# Generated by pormake.
# Topology yfr, (5)-cn, num edge types: 1
# Building blocks:
#     Node 0, Type 0, BuildingBlock: BEQFEK_clean_sbu_0, # of connection points: 5
#     Node 1, Type 0, BuildingBlock: BEQFEK_clean_sbu_0, # of connection points: 5
#     Node 2, Type 0, BuildingBlock: BEQFEK_clean_sbu_0, # of connection points: 5
#     Node 3, Type 0, BuildingBlock: BEQFEK_clean_sbu_0, # of connection points: 5
#     Node 4, Type 0, BuildingBlock: BEQFEK_clean_sbu_0, # of connection points: 5
#     Node 5, Type 0, BuildingBlock: BEQFEK_clean_sbu_0, # of connection points: 5
#     Node 6, Type 0, BuildingBlock: BEQFEK_clean_sbu_0, # of connection points: 5
#     Node 7, Type 0, BuildingBlock: BEQFEK_clean_sbu_0, # of connection points: 5
#     Node 8, Type 0, BuildingBlock: BEQFEK_clean_sbu_0, # of connection points: 5
#     Node 9, Type 0, BuildingBlock: BEQFEK_clean_sbu_0, # of connection points: 5
#     Node 10, Type 0, BuildingBlock: BEQFEK_clean_sbu_0, # of connection points: 5
#     Node 11, Type 0, BuildingBlock: BEQFEK_clean_sbu_0, # of connection points: 5
#     Node 12, Type 0, BuildingBlock: BEQFEK_clean_sbu_0, # of connection points: 5
#     Node 13, Type 0, BuildingBlock: BEQFEK_clean_sbu_0, # of connection points: 5
#     Node 14, Type 0, BuildingBlock: BEQFEK_clean_sbu_0, # of connection points: 5
#     Node 15, Type 0, BuildingBlock: BEQFEK_clean_sbu_0, # of connection points: 5
#     Node 16, Type 0, BuildingBlock: BEQFEK_clean_sbu_0, # of connection points: 5
#     Node 17, Type 0, BuildingBlock: BEQFEK_clean_sbu_0, # of connection points: 5
#     Node 18, Type 0, BuildingBlock: BEQFEK_clean_sbu_0, # of connection points: 5
#     Node 19, Type 0, BuildingBlock: BEQFEK_clean_sbu_0, # of connection points: 5
#     Node 20, Type 0, BuildingBlock: BEQFEK_clean_sbu_0, # of connection points: 5
#     Node 21, Type 0, BuildingBlock: BEQFEK_clean_sbu_0, # of connection points: 5
#     Node 22, Type 0, BuildingBlock: BEQFEK_clean_sbu_0, # of connection points: 5
#     Node 23, Type 0, BuildingBlock: BEQFEK_clean_sbu_0, # of connection points: 5
#     Node 24, Type 0, BuildingBlock: BEQFEK_clean_sbu_0, # of connection points: 5
#     Node 25, Type 0, BuildingBlock: BEQFEK_clean_sbu_0, # of connection points: 5
#     Node 26, Type 0, BuildingBlock: BEQFEK_clean_sbu_0, # of connection points: 5
#     Node 27, Type 0, BuildingBlock: BEQFEK_clean_sbu_0, # of connection points: 5
#     Node 28, Type 0, BuildingBlock: BEQFEK_clean_sbu_0, # of connection points: 5
#     Node 29, Type 0, BuildingBlock: BEQFEK_clean_sbu_0, # of connection points: 5
#     Node 30, Type 0, BuildingBlock: BEQFEK_clean_sbu_0, # of connection points: 5
#     Node 31, Type 0, BuildingBlock: BEQFEK_clean_sbu_0, # of connection points: 5
#     Edge 32, Type (0, 0), BuildingBlock: AJUNOK_clean_linker_0, # of connection points: 2
#     Edge 33, Type (0, 0), BuildingBlock: AJUNOK_clean_linker_0, # of connection points: 2
#     Edge 34, Type (0, 0), BuildingBlock: AJUNOK_clean_linker_0, # of connection points: 2
#     Edge 35, Type (0, 0), BuildingBlock: AJUNOK_clean_linker_0, # of connection points: 2
#     Edge 36, Type (0, 0), BuildingBlock: AJUNOK_clean_linker_0, # of connection points: 2
#     Edge 37, Type (0, 0), BuildingBlock: AJUNOK_clean_linker_0, # of connection points: 2
#     Edge 38, Type (0, 0), BuildingBlock: AJUNOK_clean_linker_0, # of connection points: 2
#     Edge 39, Type (0, 0), BuildingBlock: AJUNOK_clean_linker_0, # of connection points: 2
#     Edge 40, Type (0, 0), BuildingBlock: AJUNOK_clean_linker_0, # of connection points: 2
#     Edge 41, Type (0, 0), BuildingBlock: AJUNOK_clean_linker_0, # of connection points: 2
#     Edge 42, Type (0, 0), BuildingBlock: AJUNOK_clean_linker_0, # of connection points: 2
#     Edge 43, Type (0, 0), BuildingBlock: AJUNOK_clean_linker_0, # of connection points: 2
#     Edge 44, Type (0, 0), BuildingBlock: AJUNOK_clean_linker_0, # of connection points: 2
#     Edge 45, Type (0, 0), BuildingBlock: AJUNOK_clean_linker_0, # of connection points: 2
#     Edge 46, Type (0, 0), BuildingBlock: AJUNOK_clean_linker_0, # of connection points: 2
#     Edge 47, Type (0, 0), BuildingBlock: AJUNOK_clean_linker_0, # of connection points: 2
#     Edge 48, Type (0, 0), BuildingBlock: AJUNOK_clean_linker_0, # of connection points: 2
#     Edge 49, Type (0, 0), BuildingBlock: AJUNOK_clean_linker_0, # of connection points: 2
#     Edge 50, Type (0, 0), BuildingBlock: AJUNOK_clean_linker_0, # of connection points: 2
#     Edge 51, Type (0, 0), BuildingBlock: AJUNOK_clean_linker_0, # of connection points: 2
#     Edge 52, Type (0, 0), BuildingBlock: AJUNOK_clean_linker_0, # of connection points: 2
#     Edge 53, Type (0, 0), BuildingBlock: AJUNOK_clean_linker_0, # of connection points: 2
#     Edge 54, Type (0, 0), BuildingBlock: AJUNOK_clean_linker_0, # of connection points: 2
#     Edge 55, Type (0, 0), BuildingBlock: AJUNOK_clean_linker_0, # of connection points: 2
#     Edge 56, Type (0, 0), BuildingBlock: AJUNOK_clean_linker_0, # of connection points: 2
#     Edge 57, Type (0, 0), BuildingBlock: AJUNOK_clean_linker_0, # of connection points: 2
#     Edge 58, Type (0, 0), BuildingBlock: AJUNOK_clean_linker_0, # of connection points: 2
#     Edge 59, Type (0, 0), BuildingBlock: AJUNOK_clean_linker_0, # of connection points: 2
#     Edge 60, Type (0, 0), BuildingBlock: AJUNOK_clean_linker_0, # of connection points: 2
#     Edge 61, Type (0, 0), BuildingBlock: AJUNOK_clean_linker_0, # of connection points: 2
#     Edge 62, Type (0, 0), BuildingBlock: AJUNOK_clean_linker_0, # of connection points: 2
#     Edge 63, Type (0, 0), BuildingBlock: AJUNOK_clean_linker_0, # of connection points: 2
#     Edge 64, Type (0, 0), BuildingBlock: AJUNOK_clean_linker_0, # of connection points: 2
#     Edge 65, Type (0, 0), BuildingBlock: AJUNOK_clean_linker_0, # of connection points: 2
#     Edge 66, Type (0, 0), BuildingBlock: AJUNOK_clean_linker_0, # of connection points: 2
#     Edge 67, Type (0, 0), BuildingBlock: AJUNOK_clean_linker_0, # of connection points: 2
#     Edge 68, Type (0, 0), BuildingBlock: AJUNOK_clean_linker_0, # of connection points: 2
#     Edge 69, Type (0, 0), BuildingBlock: AJUNOK_clean_linker_0, # of connection points: 2
#     Edge 70, Type (0, 0), BuildingBlock: AJUNOK_clean_linker_0, # of connection points: 2
#     Edge 71, Type (0, 0), BuildingBlock: AJUNOK_clean_linker_0, # of connection points: 2
#     Edge 72, Type (0, 0), BuildingBlock: AJUNOK_clean_linker_0, # of connection points: 2
#     Edge 73, Type (0, 0), BuildingBlock: AJUNOK_clean_linker_0, # of connection points: 2
#     Edge 74, Type (0, 0), BuildingBlock: AJUNOK_clean_linker_0, # of connection points: 2
#     Edge 75, Type (0, 0), BuildingBlock: AJUNOK_clean_linker_0, # of connection points: 2
#     Edge 76, Type (0, 0), BuildingBlock: AJUNOK_clean_linker_0, # of connection points: 2
#     Edge 77, Type (0, 0), BuildingBlock: AJUNOK_clean_linker_0, # of connection points: 2
#     Edge 78, Type (0, 0), BuildingBlock: AJUNOK_clean_linker_0, # of connection points: 2
#     Edge 79, Type (0, 0), BuildingBlock: AJUNOK_clean_linker_0, # of connection points: 2
#     Edge 80, Type (0, 0), BuildingBlock: AJUNOK_clean_linker_0, # of connection points: 2
#     Edge 81, Type (0, 0), BuildingBlock: AJUNOK_clean_linker_0, # of connection points: 2
#     Edge 82, Type (0, 0), BuildingBlock: AJUNOK_clean_linker_0, # of connection points: 2
#     Edge 83, Type (0, 0), BuildingBlock: AJUNOK_clean_linker_0, # of connection points: 2
#     Edge 84, Type (0, 0), BuildingBlock: AJUNOK_clean_linker_0, # of connection points: 2
#     Edge 85, Type (0, 0), BuildingBlock: AJUNOK_clean_linker_0, # of connection points: 2
#     Edge 86, Type (0, 0), BuildingBlock: AJUNOK_clean_linker_0, # of connection points: 2
#     Edge 87, Type (0, 0), BuildingBlock: AJUNOK_clean_linker_0, # of connection points: 2
#     Edge 88, Type (0, 0), BuildingBlock: AJUNOK_clean_linker_0, # of connection points: 2
#     Edge 89, Type (0, 0), BuildingBlock: AJUNOK_clean_linker_0, # of connection points: 2
#     Edge 90, Type (0, 0), BuildingBlock: AJUNOK_clean_linker_0, # of connection points: 2
#     Edge 91, Type (0, 0), BuildingBlock: AJUNOK_clean_linker_0, # of connection points: 2
#     Edge 92, Type (0, 0), BuildingBlock: AJUNOK_clean_linker_0, # of connection points: 2
#     Edge 93, Type (0, 0), BuildingBlock: AJUNOK_clean_linker_0, # of connection points: 2
#     Edge 94, Type (0, 0), BuildingBlock: AJUNOK_clean_linker_0, # of connection points: 2
#     Edge 95, Type (0, 0), BuildingBlock: AJUNOK_clean_linker_0, # of connection points: 2
#     Edge 96, Type (0, 0), BuildingBlock: AJUNOK_clean_linker_0, # of connection points: 2
#     Edge 97, Type (0, 0), BuildingBlock: AJUNOK_clean_linker_0, # of connection points: 2
#     Edge 98, Type (0, 0), BuildingBlock: AJUNOK_clean_linker_0, # of connection points: 2
#     Edge 99, Type (0, 0), BuildingBlock: AJUNOK_clean_linker_0, # of connection points: 2
#     Edge 100, Type (0, 0), BuildingBlock: AJUNOK_clean_linker_0, # of connection points: 2
#     Edge 101, Type (0, 0), BuildingBlock: AJUNOK_clean_linker_0, # of connection points: 2
#     Edge 102, Type (0, 0), BuildingBlock: AJUNOK_clean_linker_0, # of connection points: 2
#     Edge 103, Type (0, 0), BuildingBlock: AJUNOK_clean_linker_0, # of connection points: 2
#     Edge 104, Type (0, 0), BuildingBlock: AJUNOK_clean_linker_0, # of connection points: 2
#     Edge 105, Type (0, 0), BuildingBlock: AJUNOK_clean_linker_0, # of connection points: 2
#     Edge 106, Type (0, 0), BuildingBlock: AJUNOK_clean_linker_0, # of connection points: 2
#     Edge 107, Type (0, 0), BuildingBlock: AJUNOK_clean_linker_0, # of connection points: 2
#     Edge 108, Type (0, 0), BuildingBlock: AJUNOK_clean_linker_0, # of connection points: 2
#     Edge 109, Type (0, 0), BuildingBlock: AJUNOK_clean_linker_0, # of connection points: 2
#     Edge 110, Type (0, 0), BuildingBlock: AJUNOK_clean_linker_0, # of connection points: 2
#     Edge 111, Type (0, 0), BuildingBlock: AJUNOK_clean_linker_0, # of connection points: 2
# Relax obj value: 0.512
# Max RMSD: 0.225
# Mean RMSD: 0.210
data_MOF--net-yfr--node1-BEQFEK_clean_sbu_0--edge1-AJUNOK_clean_linker_0
_symmetry_space_group_name_H-M    P1
_symmetry_Int_Tables_number       1
_symmetry_cell_setting            triclinic
loop_
_symmetry_equiv_pos_as_xyz
'x, y, z'
_cell_length_a     47.03563
_cell_length_b     47.253232
_cell_length_c     42.594385
_cell_angle_alpha  89.761199
_cell_angle_beta   89.759765
_cell_angle_gamma 89.742076
loop_
_atom_site_label
_atom_site_type_symbol
_atom_site_fract_x
_atom_site_fract_y
_atom_site_fract_z
_atom_type_partial_charge
Co0 Co 0.02575 0.1544 0.33901 0.0
Co1 Co 0.07907 0.16183 0.29721 0.0
C2 C 0.02969 0.2032 0.29388 0.0
O3 O 1.01426 0.18857 0.31256 0.0
O4 O 0.05389 0.19392 0.2854 0.0
C5 C 0.96673 0.14561 0.35755 0.0
O6 O 0.96003 0.15322 0.32882 0.0
C7 C 0.10213 0.16525 0.23489 0.0
C8 C 0.14789 0.15586 0.24001 0.0
C9 C 0.12693 0.1614 0.21803 0.0
N10 N 0.10782 0.16187 0.26552 0.0
N11 N 0.1353 0.15654 0.26859 0.0
C12 C 0.07301 0.17081 0.22206 0.0
H13 H 0.05686 0.15931 0.23619 0.0
H14 H 0.07135 0.16456 0.19707 0.0
H15 H 0.06838 0.1938 0.2237 0.0
C16 C 0.03174 0.09328 0.31717 0.0
N17 N 0.03958 0.12095 0.3172 0.0
N18 N 0.06133 0.12425 0.29823 0.0
C19 C 0.06712 0.09894 0.28432 0.0
C20 C 0.04862 0.07784 0.29573 0.0
C21 C 1.01056 0.08149 0.34 0.0
H22 H 1.01245 0.09245 0.36286 0.0
H23 H 0.98877 0.08536 0.33101 0.0
H24 H 1.01387 0.05846 0.34375 0.0
O25 O 0.05425 0.17192 0.36799 0.0
O26 O 0.09334 0.17715 0.33901 0.0
H27 H 0.11041 0.09836 0.26864 0.0
H28 H 0.08735 0.07485 0.24686 0.0
C29 C 0.08881 0.09554 0.25882 0.0
H30 H 0.08523 0.11206 0.24089 0.0
H31 H 0.14528 0.15258 0.28999 0.0
O32 O 0.99277 0.14417 0.36535 0.0
C33 C 0.07954 0.18116 0.36465 0.0
Co34 Co 0.1231 0.75876 0.57794 0.0
Co35 Co 0.11929 0.81841 0.54825 0.0
C36 C 0.07641 0.77017 0.53549 0.0
O37 O 0.09159 0.75042 0.54738 0.0
O38 O 0.08566 0.79542 0.53509 0.0
C39 C 0.12083 0.7 0.59925 0.0
O40 O 0.10359 0.6958 0.57556 0.0
C41 C 0.11856 0.84488 0.48765 0.0
C42 C 0.1304 0.88936 0.49595 0.0
C43 C 0.12514 0.86991 0.47243 0.0
N44 N 0.12049 0.84895 0.51874 0.0
N45 N 0.12721 0.87571 0.5237 0.0
C46 C 0.11189 0.8169 0.47306 0.0
H47 H 0.12403 0.79984 0.48508 0.0
H48 H 0.11654 0.81658 0.44754 0.0
H49 H 0.08892 0.81251 0.47633 0.0
C50 C 0.18545 0.76465 0.55796 0.0
N51 N 0.1581 0.77403 0.56004 0.0
N52 N 0.15636 0.79912 0.54688 0.0
C53 C 0.18242 0.8061 0.53517 0.0
C54 C 0.20229 0.78446 0.54151 0.0
C55 C 0.19566 0.73843 0.57426 0.0
H56 H 0.18534 0.73669 0.59762 0.0
H57 H 0.18946 0.71964 0.56037 0.0
H58 H 0.21905 0.73859 0.57742 0.0
O59 O 0.10239 0.78518 0.60764 0.0
O60 O 0.10547 0.82988 0.59172 0.0
H61 H 0.1844 0.85125 0.53183 0.0
H62 H 0.20924 0.83312 0.50599 0.0
C63 C 0.18777 0.83251 0.51663 0.0
H64 H 0.17245 0.83362 0.49722 0.0
H65 H 0.13079 0.88432 0.54582 0.0
O66 O 0.13165 0.72436 0.60305 0.0
C67 C 0.09653 0.81138 0.61147 0.0
Co68 Co 0.51217 0.87814 0.82679 0.0
Co69 Co 0.45824 0.87147 0.78714 0.0
C70 C 0.5069 0.82925 0.78249 0.0
O71 O 0.52292 0.84374 0.80045 0.0
O72 O 0.4826 0.8388 0.7748 0.0
C73 C 0.57106 0.88851 0.84496 0.0
O74 O 0.57888 0.88109 0.81651 0.0
C75 C 0.43262 0.86785 0.72634 0.0
C76 C 0.38753 0.87923 0.73388 0.0
C77 C 0.40731 0.87246 0.7109 0.0
N78 N 0.42838 0.87202 0.75713 0.0
N79 N 0.4013 0.87857 0.76167 0.0
C80 C 0.46087 0.86069 0.71198 0.0
H81 H 0.4781 0.87185 0.72456 0.0
H82 H 0.46169 0.8662 0.68666 0.0
H83 H 0.46461 0.83759 0.71436 0.0
C84 C 0.50749 0.93909 0.8039 0.0
N85 N 0.4988 0.91168 0.80489 0.0
N86 N 0.47684 0.90869 0.78641 0.0
C87 C 0.47184 0.93389 0.77168 0.0
C88 C 0.49109 0.95461 0.78214 0.0
C89 C 0.52892 0.9507 0.82625 0.0
H90 H 0.5266 0.94026 0.84949 0.0
H91 H 0.55063 0.94608 0.81731 0.0
H92 H 0.52624 0.97386 0.82931 0.0
O93 O 0.48428 0.86123 0.85714 0.0
O94 O 0.44452 0.85668 0.82976 0.0
H95 H 0.42856 0.93609 0.75653 0.0
H96 H 0.45269 0.95765 0.7333 0.0
C97 C 0.45023 0.93747 0.74629 0.0
H98 H 0.45285 0.9202 0.72915 0.0
H99 H 0.39242 0.88332 0.78351 0.0
O100 O 0.54489 0.88859 0.85237 0.0
C101 C 0.45878 0.85251 0.85495 0.0
Co102 Co 0.40154 0.2587 0.06656 0.0
Co103 Co 0.40898 0.20144 0.03351 0.0
C104 C 0.45022 0.25106 0.02427 0.0
O105 O 0.43416 0.26894 0.03817 0.0
O106 O 0.44217 0.22556 0.02115 0.0
C107 C 0.38751 0.31786 0.08147 0.0
O108 O 0.39578 0.32541 0.05318 0.0
C109 C 0.40985 0.17661 0.97292 0.0
C110 C 0.40246 0.13098 0.98048 0.0
C111 C 0.40536 0.15149 0.9573 0.0
N112 N 0.40896 0.17153 1.00388 0.0
N113 N 0.40477 0.14417 1.00844 0.0
C114 C 0.41497 0.20535 0.95901 0.0
H115 H 0.40338 0.22164 0.97278 0.0
H116 H 0.40865 0.20671 0.93405 0.0
H117 H 0.43801 0.2101 0.96044 0.0
C118 C 0.34095 0.25194 0.04497 0.0
N119 N 0.36843 0.24327 0.04677 0.0
N120 N 0.37143 0.21941 0.03154 0.0
C121 C 0.34594 0.2127 1.01845 0.0
C122 C 0.32542 0.23326 0.02631 0.0
C123 C 0.32908 0.27562 0.06421 0.0
H124 H 0.33772 0.27402 0.08829 0.0
H125 H 0.33572 0.29614 0.05386 0.0
H126 H 0.30555 0.27484 0.06568 0.0
O127 O 0.42078 0.23271 0.0974 0.0
O128 O 0.42209 0.18945 0.07704 0.0
H129 H 0.34946 0.16832 1.00903 0.0
H130 H 0.3194 0.18521 0.99008 0.0
C131 C 0.34178 0.18788 0.99727 0.0
H132 H 0.35443 0.19113 0.97561 0.0
H133 H 0.40261 0.13469 0.03048 0.0
O134 O 0.38943 0.29215 0.09012 0.0
C135 C 0.42805 0.20671 0.09918 0.0
Co136 Co 0.02605 0.87755 0.22015 0.0
Co137 Co 0.08135 0.87062 0.25764 0.0
C138 C 0.03211 0.82764 0.26111 0.0
O139 O 1.01446 0.84375 0.24678 0.0
O140 O 0.05722 0.83634 0.26641 0.0
C141 C 0.96849 0.88551 0.19566 0.0
O142 O 0.95883 0.8767 0.22297 0.0
C143 C 0.10378 0.86692 0.31995 0.0
C144 C 0.14876 0.8795 0.31523 0.0
C145 C 0.12788 0.87294 0.33714 0.0
N146 N 0.10977 0.87046 0.28937 0.0
N147 N 0.1368 0.87763 0.28654 0.0
C148 C 0.07503 0.85857 0.33202 0.0
H149 H 0.07115 0.83615 0.32581 0.0
H150 H 0.05841 0.87162 0.32041 0.0
H151 H 0.07315 0.8605 0.35784 0.0
C152 C 0.03132 0.93861 0.24232 0.0
N153 N 0.03968 0.91102 0.24154 0.0
N154 N 0.06232 0.90782 0.25904 0.0
C155 C 0.0682 0.93308 0.27288 0.0
C156 C 0.04883 0.95406 0.2628 0.0
C157 C 1.00909 0.95039 0.22082 0.0
H158 H 1.01065 0.93999 0.19759 0.0
H159 H 0.98772 0.9458 0.23069 0.0
H160 H 1.01154 0.97355 0.21749 0.0
O161 O 0.05471 0.8593 0.19207 0.0
O162 O 0.09705 0.85934 0.21485 0.0
H163 H 0.11209 0.93329 0.28599 0.0
H164 H 0.09013 0.95754 0.30853 0.0
C165 C 0.09094 0.93661 0.29702 0.0
H166 H 0.08803 0.92056 0.31566 0.0
H167 H 0.14674 0.88238 0.26523 0.0
O168 O 0.9951 0.88786 0.19149 0.0
C169 C 0.08105 0.853 0.19168 0.0
Co170 Co 0.39785 0.77082 0.44792 0.0
Co171 Co 0.41049 0.81406 0.49858 0.0
C172 C 0.45333 0.76975 0.48818 0.0
O173 O 0.43752 0.76179 0.46553 0.0
O174 O 0.44406 0.78827 0.50739 0.0
C175 C 0.40381 0.71933 0.4177 0.0
O176 O 0.41362 0.71067 0.44494 0.0
C177 C 0.41547 0.83935 0.5603 0.0
C178 C 0.39676 0.88188 0.55332 0.0
C179 C 0.40698 0.86354 0.57611 0.0
N180 N 0.4098 0.84288 0.52968 0.0
N181 N 0.39906 0.86852 0.52551 0.0
C182 C 0.42832 0.81293 0.57383 0.0
H183 H 0.44991 0.80999 0.56375 0.0
H184 H 0.41547 0.79433 0.56697 0.0
H185 H 0.43022 0.81385 0.59972 0.0
C186 C 0.33913 0.77092 0.47766 0.0
N187 N 0.36704 0.77814 0.47664 0.0
N188 N 0.37252 0.79581 0.49945 0.0
C189 C 0.34834 0.79913 0.51689 0.0
C190 C 0.32575 0.78366 0.50374 0.0
C191 C 0.32509 0.75526 0.45155 0.0
H192 H 0.3358 0.76018 0.42893 0.0
H193 H 0.32727 0.73217 0.45578 0.0
H194 H 0.30222 0.76092 0.4498 0.0
O195 O 0.40473 0.80331 0.42106 0.0
O196 O 0.42266 0.83214 0.45631 0.0
H197 H 0.34676 0.83874 0.54096 0.0
H198 H 0.32827 0.81037 0.56106 0.0
C199 C 0.34715 0.81581 0.54664 0.0
H200 H 0.36624 0.81119 0.56081 0.0
H201 H 0.39204 0.87636 0.50396 0.0
O202 O 0.38925 0.74191 0.41669 0.0
C203 C 0.41884 0.82526 0.42756 0.0
Co204 Co 0.51429 0.15702 0.70742 0.0
Co205 Co 0.45777 0.16028 0.74562 0.0
C206 C 0.50154 0.20729 0.74909 0.0
O207 O 0.51951 0.19336 0.7327 0.0
O208 O 0.47777 0.19629 0.7563 0.0
C209 C 0.57409 0.16308 0.69107 0.0
O210 O 0.5756 0.17755 0.71726 0.0
C211 C 0.43095 0.16189 0.80644 0.0
C212 C 0.38873 0.14285 0.79913 0.0
C213 C 0.40707 0.15227 0.82219 0.0
N214 N 0.42743 0.15758 0.77556 0.0
N215 N 0.40189 0.14671 0.77118 0.0
C216 C 0.45781 0.17299 0.82051 0.0
H217 H 0.45989 0.19572 0.81436 0.0
H218 H 0.47638 0.16163 0.81037 0.0
H219 H 0.45796 0.17107 0.84645 0.0
C220 C 0.51184 0.09531 0.72999 0.0
N221 N 0.50276 0.12274 0.72986 0.0
N222 N 0.47966 0.12468 0.74714 0.0
C223 C 0.47414 0.09879 0.75986 0.0
C224 C 0.49411 0.07866 0.74948 0.0
C225 C 0.53484 0.08482 0.70859 0.0
H226 H 0.53494 0.09735 0.6865 0.0
H227 H 0.55574 0.08772 0.72009 0.0
H228 H 0.53191 0.06212 0.70295 0.0
O229 O 0.48481 0.16859 0.67565 0.0
O230 O 0.44386 0.17032 0.7021 0.0
H231 H 0.43003 0.09282 0.77021 0.0
H232 H 0.4538 0.07375 0.79637 0.0
C233 C 0.45062 0.09353 0.78277 0.0
H234 H 0.45005 0.11095 0.79971 0.0
H235 H 0.3941 0.14047 0.74941 0.0
O236 O 0.55067 0.15131 0.68383 0.0
C237 C 0.45818 0.17397 0.67676 0.0
Co238 Co 0.12703 0.24897 0.94576 0.0
Co239 Co 0.11888 0.20536 0.9992 0.0
C240 C 0.07264 0.24821 0.98664 0.0
O241 O 0.08777 0.2577 0.96402 0.0
O242 O 0.08248 0.22867 1.00432 0.0
C243 C 0.11758 0.29761 0.90972 0.0
O244 O 0.10803 0.30782 0.93641 0.0
C245 C 0.11603 0.18616 0.06421 0.0
C246 C 0.13378 0.14286 0.06154 0.0
C247 C 0.1244 0.16326 0.08248 0.0
N248 N 0.121 0.1799 0.03396 0.0
N249 N 0.13118 0.15381 0.03243 0.0
C250 C 0.10361 0.21375 0.0749 0.0
H251 H 0.08198 0.21607 0.06494 0.0
H252 H 0.1166 0.23149 0.06565 0.0
H253 H 0.10191 0.21507 0.1008 0.0
C254 C 0.1865 0.25149 0.97242 0.0
N255 N 0.15858 0.24444 0.97407 0.0
N256 N 0.15472 0.22684 0.99769 0.0
C257 C 0.17991 0.22348 1.01285 0.0
C258 C 0.20142 0.23857 0.99724 0.0
C259 C 0.19907 0.26644 0.94465 0.0
H260 H 0.18669 0.26161 0.92324 0.0
H261 H 0.1979 0.28962 0.94855 0.0
H262 H 0.2216 0.26017 0.94095 0.0
O263 O 0.1231 0.21397 0.92348 0.0
O264 O 0.11379 0.18149 0.95957 0.0
H265 H 0.18251 0.18358 0.03665 0.0
H266 H 0.20364 0.21114 0.05432 0.0
C267 C 0.18335 0.20644 0.0423 0.0
H268 H 0.16592 0.21161 0.05879 0.0
H269 H 0.13739 0.14393 1.01164 0.0
O270 O 0.13239 0.27514 0.91012 0.0
C271 C 0.11718 0.18871 0.93084 0.0
Co272 Co 0.94879 0.80334 0.73259 0.0
Co273 Co 0.96263 0.86572 0.73667 0.0
C274 C 1.00251 0.83028 0.70147 0.0
O275 O 0.98465 0.8102 0.7054 0.0
O276 O 0.99867 0.8536 0.7156 0.0
C277 C 0.95986 0.74449 0.73887 0.0
O278 O 0.95391 0.71754 0.74207 0.0
C279 C 0.98729 0.91775 0.75695 0.0
C280 C 0.95587 0.94879 0.73891 0.0
C281 C 0.98145 0.94617 0.75454 0.0
N282 N 0.96603 0.904 0.74307 0.0
N283 N 0.94734 0.92251 0.7322 0.0
C284 C 1.01315 0.90372 0.77031 0.0
H285 H 0.02851 0.8997 0.75099 0.0
H286 H 1.00742 0.88299 0.78087 0.0
H287 H 0.02363 0.91733 0.78793 0.0
C288 C 0.94014 0.81025 0.80262 0.0
N289 N 0.94876 0.8195 0.77396 0.0
N290 N 0.95315 0.84687 0.77531 0.0
C291 C 0.9467 0.85613 0.80452 0.0
C292 C 0.93902 0.83306 0.82346 0.0
C293 C 0.93066 0.78062 0.80952 0.0
H294 H 0.90714 0.77966 0.8082 0.0
H295 H 0.93914 0.76541 0.79248 0.0
H296 H 0.93751 0.77395 0.83332 0.0
O297 O 0.917 0.81951 0.70893 0.0
O298 O 0.9318 0.86368 0.70597 0.0
H299 H 0.92863 0.88962 0.83305 0.0
H300 H 0.96326 0.89686 0.81614 0.0
C301 C 0.94237 0.8868 0.81205 0.0
H302 H 0.93212 0.89772 0.79196 0.0
H303 H 0.92884 0.91723 0.72023 0.0
O304 O 0.93999 0.76246 0.73599 0.0
C305 C 0.91446 0.84455 0.69828 0.0
Co306 Co 0.97037 0.22271 0.49522 0.0
Co307 Co 0.90633 0.23176 0.50814 0.0
C308 C 0.94059 0.27423 0.4686 0.0
O309 O 0.96317 0.25957 0.47245 0.0
O310 O 0.91723 0.26669 0.48165 0.0
C311 C 0.03021 0.2226 0.48152 0.0
O312 O 0.05593 0.21217 0.484 0.0
C313 C 0.85036 0.25708 0.52242 0.0
C314 C 0.8267 0.21878 0.53667 0.0
C315 C 0.82372 0.24756 0.53161 0.0
N316 N 0.86827 0.23483 0.52235 0.0
N317 N 0.85396 0.21205 0.53087 0.0
C318 C 0.85858 0.28645 0.51305 0.0
H319 H 0.86125 0.28743 0.48717 0.0
H320 H 0.87933 0.29184 0.52375 0.0
H321 H 0.84216 0.30206 0.52037 0.0
C322 C 0.97255 0.21134 0.56277 0.0
N323 N 0.95844 0.22119 0.53746 0.0
N324 N 0.9311 0.22257 0.54367 0.0
C325 C 0.92703 0.21309 0.57357 0.0
C326 C 0.95321 0.20496 0.5865 0.0
C327 C 1.00417 0.20771 0.5639 0.0
H328 H 1.01034 0.18822 0.5511 0.0
H329 H 1.01458 0.22593 0.55214 0.0
H330 H 1.01184 0.20615 0.58846 0.0
O331 O 0.95118 0.19354 0.47179 0.0
O332 O 0.90489 0.19961 0.47791 0.0
H333 H 0.88888 0.1893 0.57852 0.0
H334 H 0.89982 0.20614 0.61403 0.0
C335 C 0.89843 0.20877 0.58824 0.0
H336 H 0.8844 0.22703 0.5828 0.0
H337 H 0.86254 0.19166 0.5314 0.0
O338 O 1.00967 0.20883 0.49285 0.0
C339 C 0.92584 0.1863 0.46612 0.0
Co340 Co 0.56878 0.21016 0.23324 0.0
Co341 Co 0.53394 0.15903 0.25034 0.0
C342 C 0.51091 0.1894 0.2007 0.0
O343 O 0.53471 0.20294 0.20148 0.0
O344 O 0.50401 0.17329 0.22341 0.0
C345 C 0.57587 0.27007 0.22198 0.0
O346 O 0.5897 0.29361 0.21634 0.0
C347 C 0.50435 0.10535 0.25759 0.0
C348 C 0.52636 0.08738 0.29886 0.0
C349 C 0.50536 0.08191 0.27706 0.0
N350 N 0.52343 0.12414 0.268 0.0
N351 N 0.53662 0.11321 0.29254 0.0
C352 C 0.48667 0.10938 0.2288 0.0
H353 H 0.47163 0.12718 0.23269 0.0
H354 H 0.47436 0.09008 0.2232 0.0
H355 H 0.50059 0.11514 0.20868 0.0
C356 C 0.56769 0.21908 0.30345 0.0
N357 N 0.55918 0.20661 0.27654 0.0
N358 N 0.54205 0.18565 0.28358 0.0
C359 C 0.53683 0.18605 0.31491 0.0
C360 C 0.55328 0.20699 0.32873 0.0
C361 C 0.59144 0.23993 0.30566 0.0
H362 H 0.59532 0.25057 0.28291 0.0
H363 H 0.58669 0.25585 0.32408 0.0
H364 H 0.61118 0.22857 0.31248 0.0
O365 O 0.59772 0.18193 0.22633 0.0
O366 O 0.56494 0.15031 0.21811 0.0
H367 H 0.53021 0.15016 0.34478 0.0
H368 H 0.50438 0.1776 0.34932 0.0
C369 C 0.5174 0.16607 0.33177 0.0
H370 H 0.503 0.15542 0.31508 0.0
H371 H 0.55345 0.12292 0.30415 0.0
O372 O 0.58915 0.2468 0.22467 0.0
C373 C 0.58948 0.16025 0.21189 0.0
Co374 Co 0.56379 0.82042 0.99223 0.0
Co375 Co 0.62649 0.8038 0.99809 0.0
C376 C 0.59047 0.7679 0.95912 0.0
O377 O 0.57102 0.78646 0.96352 0.0
O378 O 0.61343 0.7691 0.97478 0.0
C379 C 0.50384 0.81225 0.98953 0.0
O380 O 0.47703 0.81997 0.99042 0.0
C381 C 0.68156 0.77797 1.01413 0.0
C382 C 0.71017 0.81266 0.99936 0.0
C383 C 0.70988 0.78517 1.01057 0.0
N384 N 0.6658 0.80027 1.00491 0.0
N385 N 0.68303 0.82091 0.99627 0.0
C386 C 0.66959 0.75012 0.02429 0.0
H387 H 0.65312 0.74325 1.00745 0.0
H388 H 0.6591 0.75265 0.0475 0.0
H389 H 0.68643 0.73366 0.02599 0.0
C390 C 0.568 0.82706 0.06136 0.0
N391 N 0.57875 0.81833 0.03353 0.0
N392 N 0.60605 0.81308 0.03649 0.0
C393 C 0.61372 0.81899 0.06641 0.0
C394 C 0.5897 0.828 0.08349 0.0
C395 C 0.53761 0.83573 0.06636 0.0
H396 H 0.53485 0.85808 0.05884 0.0
H397 H 0.52315 0.82257 0.05235 0.0
H398 H 0.5313 0.83364 0.09137 0.0
O399 O 0.58083 0.85245 0.97068 0.0
O400 O 0.62437 0.83515 0.96679 0.0
H401 H 0.64641 0.83265 0.09859 0.0
H402 H 0.65173 0.79805 0.08129 0.0
C403 C 0.64403 0.81994 0.07693 0.0
H404 H 0.65746 0.8293 0.05817 0.0
H405 H 0.67627 0.84051 0.98768 0.0
O406 O 0.52302 0.83028 0.99471 0.0
C407 C 0.60578 0.85353 0.95935 0.0
Co408 Co 0.02722 0.19095 0.78089 0.0
Co409 Co 0.99994 0.13653 0.79927 0.0
C410 C 0.05906 0.15626 0.82201 0.0
O411 O 0.06081 0.17688 0.8029 0.0
O412 O 0.03696 0.14083 0.82252 0.0
C413 C 0.02721 0.24158 0.73759 0.0
O414 O 0.04356 0.26168 0.7263 0.0
C415 C 1.00646 0.07786 0.79361 0.0
C416 C 0.97251 0.06044 0.82398 0.0
C417 C 0.99546 0.05291 0.80515 0.0
N418 N 0.99086 0.09907 0.80507 0.0
N419 N 0.97078 0.08883 0.82355 0.0
C420 C 0.032 0.08207 0.77301 0.0
H421 H 0.04332 0.10165 0.77967 0.0
H422 H 0.02493 0.08479 0.74835 0.0
H423 H 0.04671 0.06368 0.7745 0.0
C424 C 1.01493 0.17075 0.71661 0.0
N425 N 0.01673 0.16593 0.74779 0.0
N426 N 0.99849 0.1464 0.75574 0.0
C427 C 0.9822 0.14052 0.73041 0.0
C428 C 0.99221 0.15585 0.70452 0.0
C429 C 0.03657 0.18636 0.69745 0.0
H430 H 0.02629 0.20327 0.68336 0.0
H431 H 0.05376 0.19487 0.71236 0.0
H432 H 0.04621 0.17147 0.68031 0.0
O433 O 0.9976 0.19837 0.81652 0.0
O434 O 0.9737 0.15834 0.82234 0.0
H435 H 0.93703 0.13739 0.7303 0.0
H436 H 0.95515 0.10881 0.71104 0.0
C437 C 0.95581 0.12313 0.73162 0.0
H438 H 0.95477 0.1107 0.75375 0.0
H439 H 0.95611 0.10118 0.83594 0.0
O440 O 0.03746 0.22642 0.75966 0.0
C441 C 0.97782 0.18389 0.82968 0.0
Co442 Co 0.57799 0.21082 0.55811 0.0
Co443 Co 0.62592 0.24714 0.53896 0.0
C444 C 0.59412 0.27204 0.58575 0.0
O445 O 0.58285 0.24719 0.58701 0.0
O446 O 0.61032 0.27867 0.56286 0.0
C447 C 0.52666 0.19822 0.59144 0.0
O448 O 0.51124 0.18379 0.6115 0.0
C449 C 0.68295 0.27054 0.53155 0.0
C450 C 0.69803 0.24814 0.48924 0.0
C451 C 0.70666 0.26651 0.51253 0.0
N452 N 0.66136 0.25548 0.51974 0.0
N453 N 0.67053 0.24218 0.49443 0.0
C454 C 0.68123 0.28646 0.5618 0.0
H455 H 0.66192 0.30001 0.56189 0.0
H456 H 0.70025 0.29988 0.56527 0.0
H457 H 0.67924 0.27119 0.58155 0.0
C458 C 0.56303 0.21195 0.48853 0.0
N459 N 0.577 0.22003 0.51474 0.0
N460 N 0.59829 0.23652 0.50668 0.0
C461 C 0.59698 0.24133 0.47536 0.0
C462 C 0.57493 0.22561 0.46262 0.0
C463 C 0.54158 0.18867 0.4876 0.0
H464 H 0.54147 0.17665 0.51005 0.0
H465 H 0.52016 0.19789 0.48363 0.0
H466 H 0.5463 0.17418 0.46777 0.0
O467 O 0.61024 0.18524 0.55829 0.0
O468 O 0.63523 0.21968 0.57523 0.0
H469 H 0.60166 0.27465 0.44146 0.0
H470 H 0.62586 0.27665 0.47436 0.0
C471 C 0.61505 0.26214 0.4579 0.0
H472 H 0.63108 0.25072 0.44354 0.0
H473 H 0.65873 0.22728 0.48207 0.0
O474 O 0.54745 0.18641 0.5775 0.0
C475 C 0.62756 0.19409 0.57816 0.0
Co476 Co 0.55442 0.83043 0.30495 0.0
Co477 Co 0.55056 0.89285 0.30406 0.0
C478 C 0.50538 0.85088 0.33409 0.0
O479 O 0.5161 0.82816 0.32291 0.0
O480 O 0.51717 0.87493 0.32904 0.0
C481 C 0.60566 0.80605 0.2953 0.0
O482 O 0.61159 0.83242 0.28814 0.0
C483 C 0.52032 0.94342 0.28276 0.0
C484 C 0.53943 0.97521 0.31418 0.0
C485 C 0.51872 0.9714 0.29168 0.0
N486 N 0.54095 0.93104 0.29974 0.0
N487 N 0.55231 0.95014 0.31838 0.0
C488 C 0.50146 0.92837 0.26024 0.0
H489 H 0.504 0.90509 0.2626 0.0
H490 H 0.50709 0.93481 0.23593 0.0
H491 H 0.47896 0.93454 0.26441 0.0
C492 C 0.5593 0.83573 0.23728 0.0
N493 N 0.5551 0.84772 0.26547 0.0
N494 N 0.55756 0.87519 0.26349 0.0
C495 C 0.56475 0.88166 0.23334 0.0
C496 C 0.56668 0.85659 0.21558 0.0
C497 C 0.55435 0.80486 0.23141 0.0
H498 H 0.57361 0.79252 0.23763 0.0
H499 H 0.53682 0.79715 0.24669 0.0
H500 H 0.54905 0.80094 0.20644 0.0
O501 O 0.57708 0.84694 0.33792 0.0
O502 O 0.58491 0.89224 0.33177 0.0
H503 H 0.5751 0.92518 0.2424 0.0
H504 H 0.5903 0.9106 0.20652 0.0
C505 C 0.57138 0.91093 0.22219 0.0
H506 H 0.55314 0.91919 0.20846 0.0
H507 H 0.56833 0.94589 0.3346 0.0
O508 O 0.57988 0.79854 0.30088 0.0
C509 C 0.58965 0.86917 0.346 0.0
Co510 Co 0.96727 0.80604 0.0426 0.0
Co511 Co 0.90347 0.79325 0.05068 0.0
C512 C 0.94608 0.75511 0.08105 0.0
O513 O 0.96579 0.77178 0.07181 0.0
O514 O 0.92059 0.75916 0.07205 0.0
C515 C 0.02734 0.80046 0.03052 0.0
O516 O 0.05267 0.81001 0.02311 0.0
C517 C 0.84672 0.7691 0.03995 0.0
C518 C 0.82141 0.79496 0.07304 0.0
C519 C 0.81954 0.77277 0.05207 0.0
N520 N 0.86381 0.78821 0.0534 0.0
N521 N 0.84858 0.80336 0.07338 0.0
C522 C 0.85673 0.74663 1.01784 0.0
H523 H 0.8803 0.74514 1.01798 0.0
H524 H 0.84966 0.75168 0.99369 0.0
H525 H 0.84729 0.72596 0.02454 0.0
C526 C 0.95184 0.811 0.976 0.0
N527 N 0.94491 0.80379 1.00574 0.0
N528 N 0.91717 0.80115 1.00831 0.0
C529 C 0.90548 0.80766 0.98003 0.0
C530 C 0.92711 0.81444 0.95858 0.0
C531 C 0.98181 0.815 0.96452 0.0
H532 H 0.99619 0.79906 0.97465 0.0
H533 H 0.98338 0.8131 0.93864 0.0
H534 H 0.98958 0.83606 0.97193 0.0
O535 O 0.9548 0.83818 0.06797 0.0
O536 O 0.91056 0.82589 0.07876 0.0
H537 H 0.86271 0.81419 0.9968 0.0
H538 H 0.87003 0.82861 0.9581 0.0
C539 C 0.87427 0.81071 0.97442 0.0
H540 H 0.86628 0.79115 0.96329 0.0
H541 H 0.8567 0.81945 0.08737 0.0
O542 O 1.00612 0.81692 0.02941 0.0
C543 C 0.93152 0.84237 0.08242 0.0
Co544 Co 0.5156 0.65959 0.82716 0.0
Co545 Co 0.57536 0.6625 0.79686 0.0
C546 C 0.52864 0.70713 0.78507 0.0
O547 O 0.5089 0.69218 0.79718 0.0
O548 O 0.55395 0.69764 0.78436 0.0
C549 C 0.45519 0.66365 0.84212 0.0
O550 O 0.45359 0.68002 0.8172 0.0
C551 C 0.60114 0.66452 0.73606 0.0
C552 C 0.64585 0.6517 0.74287 0.0
C553 C 0.62597 0.65839 0.72004 0.0
N554 N 0.60576 0.6613 0.76696 0.0
N555 N 0.63267 0.65398 0.77104 0.0
C556 C 0.57262 0.67106 0.72217 0.0
H557 H 0.56884 0.69422 0.72338 0.0
H558 H 0.55567 0.66035 0.73592 0.0
H559 H 0.57134 0.66463 0.69722 0.0
C560 C 0.52058 0.59755 0.80737 0.0
N561 N 0.53012 0.62468 0.80872 0.0
N562 N 0.55493 0.62614 0.79465 0.0
C563 C 0.56138 0.60012 0.78278 0.0
C564 C 0.53985 0.58052 0.79023 0.0
C565 C 0.49513 0.58769 0.82547 0.0
H566 H 0.49381 0.59906 0.84816 0.0
H567 H 0.4756 0.59275 0.812 0.0
H568 H 0.49616 0.56461 0.8302 0.0
O569 O 0.54252 0.67734 0.85849 0.0
O570 O 0.58705 0.6742 0.84093 0.0
H571 H 0.60631 0.59368 0.77892 0.0
H572 H 0.58579 0.57433 0.75011 0.0
C573 C 0.58737 0.5943 0.76348 0.0
H574 H 0.59022 0.6114 0.74623 0.0
H575 H 0.64169 0.64939 0.79281 0.0
O576 O 0.479 0.65255 0.84952 0.0
C577 C 0.56909 0.6821 0.86191 0.0
Co578 Co 0.61855 0.26077 0.0746 0.0
Co579 Co 0.61514 0.3202 0.04348 0.0
C580 C 0.57222 0.27281 0.03057 0.0
O581 O 0.5868 0.25328 0.04375 0.0
O582 O 0.58171 0.29791 0.02967 0.0
C583 C 0.61412 0.20177 0.09397 0.0
O584 O 0.59712 0.19918 0.06979 0.0
C585 C 0.61475 0.34675 0.983 0.0
C586 C 0.62547 0.3915 0.99139 0.0
C587 C 0.6205 0.37198 0.96782 0.0
N588 N 0.61688 0.35076 1.01408 0.0
N589 N 0.62301 0.37764 1.0191 0.0
C590 C 0.60775 0.31882 0.96843 0.0
H591 H 0.6187 0.30148 0.98129 0.0
H592 H 0.61353 0.31795 0.94323 0.0
H593 H 0.5845 0.31533 0.97042 0.0
C594 C 0.68141 0.2675 0.05666 0.0
N595 N 0.65374 0.27607 0.05725 0.0
N596 N 0.65172 0.30054 0.0427 0.0
C597 C 0.67775 0.30763 0.03118 0.0
C598 C 0.69806 0.28735 0.04022 0.0
C599 C 0.69191 0.24146 0.07304 0.0
H600 H 0.68001 0.23829 0.09529 0.0
H601 H 0.68812 0.22284 0.05785 0.0
H602 H 0.71497 0.24286 0.07817 0.0
O603 O 0.59892 0.28743 0.10465 0.0
O604 O 0.60154 0.3317 0.08693 0.0
H605 H 0.67809 0.35205 0.02066 0.0
H606 H 0.7041 0.33163 0.99851 0.0
C607 C 0.68241 0.33166 1.00871 0.0
H608 H 0.6676 0.32955 0.98883 0.0
H609 H 0.62635 0.38631 0.04125 0.0
O610 O 0.62603 0.22547 0.09896 0.0
C611 C 0.5934 0.31378 0.10773 0.0
Co612 Co 0.018 0.37444 0.33757 0.0
Co613 Co 0.96211 0.37119 0.29901 0.0
C614 C 1.0068 0.32506 0.29487 0.0
O615 O 0.02428 0.33908 0.31142 0.0
O616 O 0.9826 0.33542 0.28829 0.0
C617 C 0.07867 0.36941 0.35168 0.0
O618 O 0.08001 0.35444 0.32581 0.0
C619 C 0.93695 0.36839 0.23774 0.0
C620 C 0.89216 0.38112 0.24452 0.0
C621 C 0.91192 0.3735 0.2218 0.0
N622 N 0.93254 0.37318 0.26843 0.0
N623 N 0.90563 0.38057 0.27249 0.0
C624 C 0.96494 0.35922 0.22416 0.0
H625 H 0.98266 0.36889 0.23743 0.0
H626 H 0.96687 0.36481 0.19896 0.0
H627 H 0.96681 0.33589 0.22637 0.0
C628 C 0.01656 0.43559 0.31355 0.0
N629 N 1.00665 0.40858 0.31477 0.0
N630 N 0.98424 0.40664 0.29667 0.0
C631 C 0.98029 0.432 0.28188 0.0
C632 C 1.00048 0.45197 0.29208 0.0
C633 C 0.03885 0.44602 0.33557 0.0
H634 H 0.03759 0.43427 0.35813 0.0
H635 H 0.06018 0.44197 0.32526 0.0
H636 H 0.03624 0.46898 0.3402 0.0
O637 O 0.9881 0.36172 0.36914 0.0
O638 O 0.94738 0.36057 0.34276 0.0
H639 H 0.937 0.43652 0.26716 0.0
H640 H 0.96218 0.45614 0.24313 0.0
C641 C 0.95862 0.43641 0.25664 0.0
H642 H 0.96001 0.41886 0.23971 0.0
H643 H 0.89662 0.38573 0.29415 0.0
O644 O 0.05493 0.38036 0.36003 0.0
C645 C 0.9615 0.35622 0.36806 0.0
Co646 Co 0.90521 0.75021 0.57461 0.0
Co647 Co 0.91508 0.69455 0.53914 0.0
C648 C 0.95446 0.74571 0.53195 0.0
O649 O 0.93784 0.76225 0.547 0.0
O650 O 0.94722 0.72018 0.52732 0.0
C651 C 0.88651 0.80785 0.5872 0.0
O652 O 0.89098 0.81411 0.55753 0.0
C653 C 0.91852 0.67188 0.47686 0.0
C654 C 0.90923 0.62636 0.48184 0.0
C655 C 0.91374 0.64756 0.45978 0.0
N656 N 0.91627 0.66573 0.5076 0.0
N657 N 0.911 0.63836 0.51054 0.0
C658 C 0.9238 0.70106 0.46428 0.0
H659 H 0.94654 0.70632 0.46765 0.0
H660 H 0.91086 0.71669 0.47756 0.0
H661 H 0.91907 0.70282 0.43889 0.0
C662 C 0.84448 0.74159 0.55347 0.0
N663 N 0.87242 0.73417 0.55465 0.0
N664 N 0.87643 0.71098 0.53841 0.0
C665 C 0.8511 0.70356 0.52538 0.0
C666 C 0.82957 0.72264 0.53456 0.0
C667 C 0.83163 0.76506 0.57234 0.0
H668 H 0.84138 0.76554 0.59595 0.0
H669 H 0.8357 0.78552 0.56032 0.0
H670 H 0.80834 0.76238 0.57519 0.0
O671 O 0.92465 0.72455 0.60566 0.0
O672 O 0.92975 0.68256 0.58273 0.0
H673 H 0.85168 0.65941 0.51437 0.0
H674 H 0.82699 0.68016 0.49077 0.0
C675 C 0.84802 0.67999 0.50238 0.0
H676 H 0.86421 0.68248 0.48386 0.0
H677 H 0.90749 0.62814 0.53194 0.0
O678 O 0.89216 0.78324 0.59762 0.0
C679 C 0.93385 0.6991 0.60617 0.0
Co680 Co 0.51913 0.38174 0.70928 0.0
Co681 Co 0.56953 0.37209 0.75425 0.0
C682 C 0.52208 0.33015 0.75297 0.0
O683 O 0.50894 0.34521 0.73261 0.0
O684 O 0.54469 0.3394 0.76552 0.0
C685 C 0.46048 0.38931 0.69142 0.0
O686 O 0.4544 0.38115 0.72018 0.0
C687 C 0.59441 0.36814 0.81621 0.0
C688 C 0.63793 0.38453 0.80983 0.0
C689 C 0.61855 0.37592 0.83247 0.0
N690 N 0.59888 0.37266 0.7854 0.0
N691 N 0.62513 0.38206 0.78164 0.0
C692 C 0.56683 0.35791 0.82973 0.0
H693 H 0.56377 0.33551 0.82291 0.0
H694 H 0.54896 0.37044 0.81979 0.0
H695 H 0.56637 0.35909 0.85571 0.0
C696 C 0.52366 0.442 0.73322 0.0
N697 N 0.53117 0.41416 0.73326 0.0
N698 N 0.55137 0.40997 0.75385 0.0
C699 C 0.5562 0.43492 0.76888 0.0
C700 C 0.53893 0.45669 0.75644 0.0
C701 C 0.50483 0.4546 0.70858 0.0
H702 H 0.508 0.44334 0.68603 0.0
H703 H 0.48228 0.45191 0.71569 0.0
H704 H 0.50939 0.47741 0.70497 0.0
O705 O 0.54844 0.36792 0.67933 0.0
O706 O 0.58394 0.35719 0.71165 0.0
H707 H 0.59808 0.43743 0.78798 0.0
H708 H 0.57139 0.45677 0.81021 0.0
C709 C 0.57569 0.43746 0.79628 0.0
H710 H 0.57244 0.41912 0.81187 0.0
H711 H 0.63381 0.38808 0.76007 0.0
O712 O 0.48634 0.39214 0.68336 0.0
C713 C 0.57246 0.35629 0.68437 0.0
Co714 Co 0.89437 0.27825 0.95417 0.0
Co715 Co 0.90495 0.32346 1.00427 0.0
C716 C 0.95075 0.28075 0.99114 0.0
O717 O 0.93452 0.27078 0.97005 0.0
O718 O 0.94166 0.30052 1.00888 0.0
C719 C 0.90246 0.22661 0.92645 0.0
O720 O 0.91008 0.219 0.9549 0.0
C721 C 0.91074 0.34412 0.06826 0.0
C722 C 0.89385 0.38774 0.06554 0.0
C723 C 0.90398 0.36752 0.08635 0.0
N724 N 0.90433 0.34993 0.03819 0.0
N725 N 0.89454 0.37618 0.03663 0.0
C726 C 0.92324 0.31658 0.07909 0.0
H727 H 0.91286 0.29874 0.06683 0.0
H728 H 0.92137 0.3138 0.10487 0.0
H729 H 0.94613 0.31614 0.07272 0.0
C730 C 0.83634 0.27578 0.98491 0.0
N731 N 0.86407 0.2836 0.98386 0.0
N732 N 0.86898 0.30182 1.00637 0.0
C733 C 0.84472 0.30482 0.0236 0.0
C734 C 0.82252 0.28907 1.0102 0.0
C735 C 0.82264 0.25844 0.95991 0.0
H736 H 0.83479 0.26011 0.93762 0.0
H737 H 0.82252 0.23593 0.96742 0.0
H738 H 0.80037 0.26539 0.95597 0.0
O739 O 0.89732 0.31178 0.9286 0.0
O740 O 0.90919 0.34533 0.96217 0.0
H741 H 0.84454 0.3434 0.04982 0.0
H742 H 0.82425 0.31497 0.06787 0.0
C743 C 0.84361 0.32027 0.05414 0.0
H744 H 0.86221 0.31402 0.06835 0.0
H745 H 0.88747 0.38586 1.01603 0.0
O746 O 0.88786 0.24896 0.92292 0.0
C747 C 0.90462 0.33705 0.93399 0.0
Co748 Co 0.0283 0.65482 0.21776 0.0
Co749 Co 0.96843 0.65779 0.24861 0.0
C750 C 1.01317 0.70437 0.25731 0.0
O751 O 0.03328 0.6896 0.24542 0.0
O752 O 0.9884 0.6939 0.25949 0.0
C753 C 0.08709 0.66328 0.19928 0.0
O754 O 0.08758 0.68048 0.22339 0.0
C755 C 0.94063 0.66077 0.30862 0.0
C756 C 0.89806 0.64268 0.30104 0.0
C757 C 0.91636 0.65196 0.32425 0.0
N758 N 0.93733 0.65619 0.27775 0.0
N759 N 0.91158 0.64589 0.27319 0.0
C760 C 0.96756 0.67161 0.32282 0.0
H761 H 0.98609 0.66015 0.31271 0.0
H762 H 0.96771 0.6697 0.34874 0.0
H763 H 0.96979 0.69435 0.31678 0.0
C764 C 0.02367 0.59266 0.23944 0.0
N765 N 1.01451 0.62006 0.23791 0.0
N766 N 0.9902 0.62215 0.25298 0.0
C767 C 0.98413 0.59657 0.26627 0.0
C768 C 1.00483 0.57624 0.25799 0.0
C769 C 0.04816 0.58204 0.22026 0.0
H770 H 0.05003 0.59456 0.19826 0.0
H771 H 0.06813 0.5848 0.23366 0.0
H772 H 0.04548 0.55937 0.2143 0.0
O773 O 1.00098 0.66973 0.18568 0.0
O774 O 0.95659 0.66708 0.20355 0.0
H775 H 0.93956 0.59278 0.27585 0.0
H776 H 0.96189 0.57217 0.30214 0.0
C777 C 0.95999 0.59221 0.28875 0.0
H778 H 0.96005 0.60932 0.30623 0.0
H779 H 0.90387 0.63954 0.25141 0.0
O780 O 0.06475 0.64883 0.19423 0.0
C781 C 0.97437 0.67393 0.18192 0.0
Co782 Co 0.63321 0.7438 0.45051 0.0
Co783 Co 0.62152 0.69889 0.50194 0.0
C784 C 0.57658 0.74158 0.48868 0.0
O785 O 0.59277 0.75086 0.46686 0.0
O786 O 0.58586 0.72273 0.5075 0.0
C787 C 0.63677 0.80241 0.43795 0.0
O788 O 0.63037 0.80309 0.46799 0.0
C789 C 0.61673 0.67877 0.56592 0.0
C790 C 0.6331 0.63495 0.56368 0.0
C791 C 0.62429 0.65577 0.58444 0.0
N792 N 0.62165 0.67221 0.53574 0.0
N793 N 0.63096 0.6458 0.53443 0.0
C794 C 0.60543 0.70691 0.57639 0.0
H795 H 0.61825 0.72414 0.56573 0.0
H796 H 0.60507 0.70901 0.60228 0.0
H797 H 0.58334 0.7094 0.56775 0.0
C798 C 0.69179 0.74225 0.47946 0.0
N799 N 0.66354 0.73631 0.47986 0.0
N800 N 0.65827 0.71842 0.50279 0.0
C801 C 0.68291 0.71354 0.51863 0.0
C802 C 0.70556 0.7278 0.50398 0.0
C803 C 0.70578 0.75887 0.45379 0.0
H804 H 0.69338 0.75723 0.43178 0.0
H805 H 0.70649 0.78147 0.46071 0.0
H806 H 0.72785 0.75133 0.44962 0.0
O807 O 0.62884 0.71 0.42358 0.0
O808 O 0.61554 0.67858 0.45996 0.0
H809 H 0.68185 0.67423 0.54377 0.0
H810 H 0.70497 0.7005 0.56091 0.0
C811 C 0.68452 0.69708 0.54865 0.0
H812 H 0.6673 0.70409 0.56458 0.0
H813 H 0.63718 0.63569 0.51378 0.0
O814 O 0.64132 0.77847 0.42514 0.0
C815 C 0.61974 0.68545 0.43112 0.0
Co816 Co 0.44654 0.30386 0.22701 0.0
Co817 Co 0.46321 0.36461 0.2383 0.0
C818 C 0.50175 0.33311 0.19969 0.0
O819 O 0.48273 0.31375 0.20147 0.0
O820 O 0.49955 0.35526 0.21651 0.0
C821 C 0.45773 0.24503 0.22805 0.0
O822 O 0.45168 0.21811 0.23115 0.0
C823 C 0.47991 0.42162 0.25638 0.0
C824 C 0.43694 0.43936 0.26555 0.0
C825 C 0.46557 0.44557 0.26609 0.0
N826 N 0.4604 0.4018 0.25085 0.0
N827 N 0.43483 0.4125 0.25608 0.0
C828 C 0.51128 0.41718 0.25313 0.0
H829 H 0.51718 0.39598 0.26243 0.0
H830 H 0.52327 0.43386 0.26562 0.0
H831 H 0.51709 0.41769 0.22786 0.0
C832 C 0.43982 0.30359 0.29744 0.0
N833 N 0.44735 0.31545 0.26965 0.0
N834 N 0.45517 0.34166 0.27441 0.0
C835 C 0.45343 0.34733 0.30545 0.0
C836 C 0.44364 0.32335 0.32135 0.0
C837 C 0.42814 0.27425 0.30098 0.0
H838 H 0.43659 0.25982 0.28311 0.0
H839 H 0.43315 0.26528 0.32444 0.0
H840 H 0.40477 0.27494 0.29768 0.0
O841 O 0.41459 0.32193 0.20612 0.0
O842 O 0.43364 0.36438 0.20542 0.0
H843 H 0.45753 0.3765 0.34491 0.0
H844 H 0.47878 0.38464 0.31057 0.0
C845 C 0.45816 0.37617 0.31899 0.0
H846 H 0.44096 0.39046 0.31097 0.0
H847 H 0.41594 0.40127 0.25349 0.0
O848 O 0.43789 0.26308 0.22603 0.0
C849 C 0.41465 0.34733 0.19649 0.0
Co850 Co 0.46263 0.70355 0.97445 0.0
Co851 Co 0.41339 0.73668 1.00036 0.0
C852 C 0.44044 0.76398 0.95048 0.0
O853 O 0.45302 0.73986 0.94741 0.0
O854 O 0.42635 0.76926 0.97538 0.0
C855 C 0.52147 0.69652 0.95691 0.0
O856 O 0.54461 0.68218 0.95023 0.0
C857 C 0.36044 0.76539 1.0166 0.0
C858 C 0.34084 0.73384 0.04824 0.0
C859 C 0.33548 0.759 0.03251 0.0
N860 N 0.37938 0.74469 0.0223 0.0
N861 N 0.3677 0.72611 0.04163 0.0
C862 C 0.36624 0.79032 0.99578 0.0
H863 H 0.38643 0.80039 1.00302 0.0
H864 H 0.34882 0.8062 0.99709 0.0
H865 H 0.36898 0.78305 0.97121 0.0
C866 C 0.47877 0.69798 0.04221 0.0
N867 N 0.46373 0.70941 1.01826 0.0
N868 N 0.44234 0.72408 0.02973 0.0
C869 C 0.44432 0.72414 0.06145 0.0
C870 C 0.46734 0.70727 0.07051 0.0
C871 C 0.49933 0.67388 0.03883 0.0
H872 H 0.50286 0.66831 1.01398 0.0
H873 H 0.51985 0.67919 0.04997 0.0
H874 H 0.49085 0.6551 0.05143 0.0
O875 O 0.43332 0.67561 0.97018 0.0
O876 O 0.40191 0.70929 0.9655 0.0
H877 H 0.40699 0.72723 0.09008 0.0
H878 H 0.43664 0.74729 0.10408 0.0
C879 C 0.42509 0.74065 0.08267 0.0
H880 H 0.41658 0.75952 0.07021 0.0
H881 H 0.37737 0.70721 0.0485 0.0
O882 O 0.49782 0.68392 0.95909 0.0
C883 C 0.41103 0.68493 0.95749 0.0
Co884 Co 0.07441 0.71485 0.73888 0.0
Co885 Co 0.04387 0.66293 0.75952 0.0
C886 C 0.01715 0.6877 0.70886 0.0
O887 O 0.0399 0.70304 0.70896 0.0
O888 O 1.01168 0.67162 0.73222 0.0
C889 C 0.07677 0.77437 0.72621 0.0
O890 O 0.08847 0.79904 0.72067 0.0
C891 C 0.02314 0.60807 0.78185 0.0
C892 C 0.05771 0.59775 0.81515 0.0
C893 C 0.03281 0.58744 0.80246 0.0
N894 N 0.04156 0.62954 0.78253 0.0
N895 N 0.06203 0.62338 0.80259 0.0
C896 C 0.99732 0.60752 0.76147 0.0
H897 H 0.98635 0.62833 0.76248 0.0
H898 H 0.98244 0.5906 0.76896 0.0
H899 H 1.00395 0.60393 0.73677 0.0
C900 C 0.07419 0.72646 0.80923 0.0
N901 N 0.06582 0.71331 0.78257 0.0
N902 N 0.0499 0.69171 0.79029 0.0
C903 C 0.04592 0.69152 0.82173 0.0
C904 C 0.06167 0.71314 0.83509 0.0
C905 C 0.09716 0.74817 0.81066 0.0
H906 H 0.10325 0.75555 0.78689 0.0
H907 H 0.08997 0.76634 0.82513 0.0
H908 H 0.11606 0.73881 0.82235 0.0
O909 O 0.10546 0.6887 0.73236 0.0
O910 O 0.07454 0.65487 0.72711 0.0
H911 H 0.03981 0.65389 0.84928 0.0
H912 H 0.01605 0.6823 0.85859 0.0
C913 C 0.02699 0.67128 0.83896 0.0
H914 H 1.01099 0.66221 0.82284 0.0
H915 H 0.07936 0.63645 0.80705 0.0
O916 O 0.09195 0.75226 0.72807 0.0
C917 C 0.09838 0.66568 0.71981 0.0
Co918 Co 0.07822 0.33286 0.47944 0.0
Co919 Co 0.12277 0.29751 0.50819 0.0
C920 C 0.09585 0.27076 0.45828 0.0
O921 O 0.0857 0.29571 0.45351 0.0
O922 O 0.10781 0.26515 0.48433 0.0
C923 C 0.02573 0.34002 0.44761 0.0
O924 O 1.00864 0.35296 0.42815 0.0
C925 C 0.17418 0.26591 0.52272 0.0
C926 C 0.19125 0.28962 0.56285 0.0
C927 C 0.19745 0.26762 0.54249 0.0
N928 N 0.1552 0.28583 0.53116 0.0
N929 N 0.16544 0.29979 0.55536 0.0
C930 C 0.17092 0.24729 0.49463 0.0
H931 H 0.15168 0.23407 0.49772 0.0
H932 H 0.18952 0.23306 0.49141 0.0
H933 H 0.16783 0.26057 0.47334 0.0
C934 C 0.05865 0.34316 0.54395 0.0
N935 N 0.07398 0.32865 0.52258 0.0
N936 N 0.09356 0.31341 0.53661 0.0
C937 C 0.0893 0.31572 0.5681 0.0
C938 C 0.06716 0.33499 0.57383 0.0
C939 C 0.04 0.36791 0.53571 0.0
H940 H 0.04826 0.37865 0.51437 0.0
H941 H 0.01819 0.36047 0.53059 0.0
H942 H 0.03885 0.38329 0.55531 0.0
O943 O 0.10963 0.35869 0.47951 0.0
O944 O 0.13727 0.32293 0.4714 0.0
H945 H 0.08961 0.2914 0.6107 0.0
H946 H 0.11558 0.2803 0.5816 0.0
C947 C 0.10477 0.29878 0.5924 0.0
H948 H 0.12066 0.31233 0.60414 0.0
H949 H 0.15595 0.31773 0.56509 0.0
O950 O 0.04669 0.35343 0.45871 0.0
C951 C 0.12991 0.34817 0.46433 0.0
Co952 Co 0.53315 0.70042 0.28297 0.0
Co953 Co 0.51064 0.64121 0.28467 0.0
C954 C 0.55996 0.65316 0.32265 0.0
O955 O 0.55583 0.67829 0.31344 0.0
O956 O 0.545 0.63326 0.31168 0.0
C957 C 0.58449 0.71722 0.2648 0.0
O958 O 0.58548 0.69012 0.25826 0.0
C959 C 0.50169 0.58222 0.27774 0.0
C960 C 0.45487 0.57886 0.28216 0.0
C961 C 0.47963 0.5633 0.27848 0.0
N962 N 0.49052 0.60807 0.28082 0.0
N963 N 0.46259 0.60616 0.28328 0.0
C964 C 0.53294 0.57611 0.2773 0.0
H965 H 0.54418 0.59263 0.26348 0.0
H966 H 0.53777 0.55488 0.26765 0.0
H967 H 0.54102 0.57677 0.30172 0.0
C968 C 0.52022 0.69593 0.21603 0.0
N969 N 0.52412 0.68387 0.24438 0.0
N970 N 0.51537 0.65765 0.24393 0.0
C971 C 0.50537 0.65202 0.21483 0.0
C972 C 0.50804 0.67627 0.19605 0.0
C973 C 0.52441 0.72685 0.20973 0.0
H974 H 0.52117 0.73917 0.23158 0.0
H975 H 0.54654 0.73029 0.20147 0.0
H976 H 0.50962 0.73469 0.19138 0.0
O977 O 0.49805 0.71102 0.30647 0.0
O978 O 0.48577 0.66583 0.30975 0.0
H979 H 0.47054 0.62322 0.21672 0.0
H980 H 0.49001 0.62276 0.17999 0.0
C981 C 0.49197 0.62459 0.20586 0.0
H982 H 0.50492 0.60672 0.21499 0.0
H983 H 0.44895 0.62341 0.2864 0.0
O984 O 0.56116 0.72862 0.2737 0.0
C985 C 0.48169 0.69159 0.317 0.0
Co986 Co 0.0893 0.70871 0.0644 0.0
Co987 Co 0.13771 0.74538 0.04485 0.0
C988 C 0.10718 0.76974 0.09294 0.0
O989 O 0.09536 0.74503 0.09385 0.0
O990 O 0.1235 0.7763 0.07012 0.0
C991 C 0.03145 0.68932 0.08015 0.0
O992 O 1.01214 0.67031 0.08711 0.0
C993 C 0.19333 0.77072 0.03186 0.0
C994 C 0.20844 0.74311 0.99353 0.0
C995 C 0.21672 0.76506 1.01287 0.0
N996 N 0.17241 0.75288 0.02405 0.0
N997 N 0.18149 0.73663 1.00091 0.0
C998 C 0.19073 0.79227 0.05731 0.0
H999 H 0.18929 0.78138 0.0804 0.0
H1000 H 0.17082 0.80448 0.05387 0.0
H1001 H 0.20893 0.80712 0.05715 0.0
C1002 C 0.07433 0.71155 0.99498 0.0
N1003 N 0.08826 0.7192 0.02136 0.0
N1004 N 0.10909 0.73632 1.01356 0.0
C1005 C 0.10727 0.74224 0.98251 0.0
C1006 C 0.08549 0.72644 0.96943 0.0
C1007 C 0.05394 0.68747 0.99321 0.0
H1008 H 0.04618 0.68145 1.01682 0.0
H1009 H 0.03603 0.69302 0.97745 0.0
H1010 H 0.06492 0.66881 0.98305 0.0
O1011 O 0.12138 0.68297 0.065 0.0
O1012 O 0.14736 0.71746 0.08023 0.0
H1013 H 0.1426 0.74903 0.95173 0.0
H1014 H 0.11458 0.77451 0.94784 0.0
C1015 C 0.12679 0.76171 0.96508 0.0
H1016 H 0.13789 0.77602 0.9815 0.0
H1017 H 0.16979 0.72008 0.99133 0.0
O1018 O 0.05755 0.6825 0.07882 0.0
C1019 C 0.13925 0.69211 0.08413 0.0
Co1020 Co 0.98855 0.3286 0.77399 0.0
Co1021 Co 1.01304 0.38718 0.78833 0.0
C1022 C 0.95995 0.36789 0.82018 0.0
O1023 O 0.96093 0.34515 0.80436 0.0
O1024 O 0.9785 0.38701 0.816 0.0
C1025 C 0.94995 0.29459 0.73446 0.0
O1026 O 0.94136 0.3183 0.72134 0.0
C1027 C 0.01637 0.44712 0.78984 0.0
C1028 C 0.05869 0.4543 0.81084 0.0
C1029 C 0.03408 0.46775 0.80103 0.0
N1030 N 0.02971 0.42229 0.79313 0.0
N1031 N 0.05508 0.42655 0.80542 0.0
C1032 C 0.9863 0.45044 0.77911 0.0
H1033 H 0.97699 0.42961 0.77315 0.0
H1034 H 0.98557 0.46437 0.75811 0.0
H1035 H 0.97349 0.46072 0.79785 0.0
C1036 C 1.00751 0.34515 0.71045 0.0
N1037 N 1.00037 0.3524 0.73994 0.0
N1038 N 1.00903 0.37833 0.745 0.0
C1039 C 0.02099 0.38859 0.71816 0.0
C1040 C 0.01959 0.36782 0.69503 0.0
C1041 C 1.01126 0.3155 0.70008 0.0
H1042 H 1.00795 0.30116 0.72013 0.0
H1043 H 0.99636 0.31148 0.68068 0.0
H1044 H 0.03309 0.31207 0.69078 0.0
O1045 O 0.02324 0.31706 0.79901 0.0
O1046 O 0.03948 0.36036 0.80732 0.0
H1047 H 0.05506 0.41526 0.73249 0.0
H1048 H 0.04482 0.41971 0.69179 0.0
C1049 C 0.03686 0.41585 0.716 0.0
H1050 H 0.02267 0.4335 0.72313 0.0
H1051 H 0.06944 0.41046 0.81119 0.0
O1052 O 0.96855 0.29528 0.7563 0.0
C1053 C 0.04165 0.33374 0.81086 0.0
Co1054 Co 0.46073 0.30791 0.54884 0.0
Co1055 Co 0.39532 0.29949 0.54595 0.0
C1056 C 0.43466 0.25751 0.57995 0.0
O1057 O 0.45709 0.2713 0.57266 0.0
O1058 O 0.41002 0.26584 0.57112 0.0
C1059 C 0.52115 0.31529 0.55834 0.0
O1060 O 0.54543 0.32849 0.55488 0.0
C1061 C 0.3403 0.27198 0.53423 0.0
C1062 C 0.31347 0.30994 0.52674 0.0
C1063 C 0.31287 0.28072 0.52757 0.0
N1064 N 0.35655 0.29518 0.53654 0.0
N1065 N 0.34033 0.31774 0.53227 0.0
C1066 C 0.35078 0.24241 0.53922 0.0
H1067 H 0.37191 0.23974 0.52789 0.0
H1068 H 0.33553 0.22679 0.52973 0.0
H1069 H 0.35342 0.23859 0.56477 0.0
C1070 C 0.45478 0.30656 0.47971 0.0
N1071 N 0.44385 0.3055 0.50893 0.0
N1072 N 0.41603 0.30587 0.50751 0.0
C1073 C 0.40827 0.3095 0.47723 0.0
C1074 C 0.43263 0.30914 0.45811 0.0
C1075 C 0.48591 0.30408 0.47312 0.0
H1076 H 0.49611 0.29161 0.49193 0.0
H1077 H 0.48996 0.29367 0.45024 0.0
H1078 H 0.49554 0.32547 0.47295 0.0
O1079 O 0.44251 0.33698 0.57468 0.0
O1080 O 0.39592 0.33229 0.57419 0.0
H1081 H 0.37858 0.32877 0.4445 0.0
H1082 H 0.36449 0.30006 0.46849 0.0
C1083 C 0.37892 0.31857 0.46798 0.0
H1084 H 0.37096 0.33437 0.48499 0.0
H1085 H 0.34751 0.33855 0.5338 0.0
O1086 O 0.49905 0.32537 0.54564 0.0
C1087 C 0.41798 0.345 0.58333 0.0
C1088 C 0.13985 0.18339 0.13387 0.0
C1089 C 0.12657 0.16158 0.117 0.0
C1090 C 0.14116 0.18262 0.16676 0.0
C1091 C 0.12946 0.15992 0.18364 0.0
H1092 H 0.14903 0.20129 0.12158 0.0
H1093 H 0.15058 0.20024 0.17908 0.0
S1094 S 0.09466 0.09658 0.15052 0.0
N1095 N 0.10317 0.11593 0.11952 0.0
N1096 N 0.10585 0.1144 0.18134 0.0
C1097 C 0.11733 0.13743 0.16702 0.0
C1098 C 0.11594 0.13823 0.13363 0.0
C1099 C 0.11034 0.89144 0.42153 0.0
C1100 C 0.1291 0.87397 0.43834 0.0
C1101 C 0.1109 0.89197 0.3886 0.0
C1102 C 0.13016 0.87496 0.37159 0.0
H1103 H 0.09436 0.90376 0.43383 0.0
H1104 H 0.09556 0.90507 0.37632 0.0
S1105 S 0.18614 0.82863 0.40492 0.0
N1106 N 0.16946 0.84174 0.43585 0.0
N1107 N 0.1702 0.8425 0.37393 0.0
C1108 C 0.15026 0.85896 0.38819 0.0
C1109 C 0.14974 0.85845 0.42165 0.0
C1110 C 0.39059 0.84964 0.66195 0.0
C1111 C 0.40332 0.87278 0.67671 0.0
C1112 C 0.3912 0.84715 0.62917 0.0
C1113 C 0.40479 0.86762 0.61033 0.0
H1114 H 0.38111 0.83287 0.67585 0.0
H1115 H 0.38151 0.8288 0.61853 0.0
S1116 S 0.43916 0.93326 0.63791 0.0
N1117 N 0.42812 0.9174 0.67035 0.0
N1118 N 0.42942 0.91265 0.60865 0.0
C1119 C 0.41627 0.89154 0.6248 0.0
C1120 C 0.41561 0.89408 0.6581 0.0
C1121 C 0.38331 0.16377 0.873 0.0
C1122 C 0.40389 0.14826 0.85639 0.0
C1123 C 0.38286 0.16349 0.90593 0.0
C1124 C 0.40299 0.1477 0.9231 0.0
H1125 H 0.36837 0.17718 0.86053 0.0
H1126 H 0.36741 0.17658 0.91807 0.0
S1127 S 0.45859 0.10054 0.89051 0.0
N1128 N 0.44277 0.11427 0.8594 0.0
N1129 N 0.44204 0.11409 0.92128 0.0
C1130 C 0.4223 0.13059 0.90677 0.0
C1131 C 0.42277 0.13085 0.87333 0.0
C1132 C 0.90877 0.80892 0.90323 0.0
C1133 C 0.92521 0.82397 0.92493 0.0
C1134 C 0.91163 0.81363 0.87064 0.0
C1135 C 0.93225 0.83234 0.85819 0.0
H1136 H 0.89447 0.79252 0.9113 0.0
H1137 H 0.89801 0.80177 0.85525 0.0
S1138 S 0.97618 0.88128 0.90567 0.0
N1139 N 0.95723 0.86366 0.93184 0.0
N1140 N 0.96721 0.8682 0.87129 0.0
C1141 C 0.94735 0.84887 0.87993 0.0
C1142 C 0.94269 0.8457 0.91302 0.0
C1143 C 0.95924 0.18757 0.67421 0.0
C1144 C 0.97738 0.16378 0.67478 0.0
C1145 C 0.9507 0.20033 0.64575 0.0
C1146 C 0.95931 0.18926 0.61657 0.0
H1147 H 0.95263 0.19718 0.69599 0.0
H1148 H 0.93832 0.21968 0.64669 0.0
S1149 S 1.00311 0.12441 0.60527 0.0
N1150 N 1.00181 0.12835 0.64377 0.0
N1151 N 0.98402 0.1506 0.59034 0.0
C1152 C 0.97566 0.16411 0.61693 0.0
C1153 C 0.98505 0.15174 0.64594 0.0
C1154 C 0.58506 0.20693 0.3761 0.0
C1155 C 0.5581 0.21205 0.36295 0.0
C1156 C 0.59026 0.21144 0.40823 0.0
C1157 C 0.56868 0.22112 0.42859 0.0
H1158 H 0.60223 0.19907 0.36149 0.0
H1159 H 0.61128 0.20692 0.4173 0.0
S1160 S 0.49502 0.23992 0.40552 0.0
N1161 N 0.51004 0.22901 0.37254 0.0
N1162 N 0.51966 0.23696 0.43291 0.0
C1163 C 0.54171 0.22657 0.41572 0.0
C1164 C 0.53647 0.22219 0.38293 0.0
C1165 C 0.57076 0.86139 0.12558 0.0
C1166 C 0.58718 0.83739 0.11721 0.0
C1167 C 0.56504 0.86828 0.15727 0.0
C1168 C 0.57612 0.85191 0.18208 0.0
H1169 H 0.56157 0.87466 0.10747 0.0
H1170 H 0.55099 0.88592 0.16224 0.0
S1171 S 0.62451 0.79 0.17314 0.0
N1172 N 0.61598 0.79855 0.13681 0.0
N1173 N 0.60824 0.81336 0.19571 0.0
C1174 C 0.59457 0.8294 0.17396 0.0
C1175 C 0.59943 0.82174 0.14181 0.0
C1176 C 0.64154 0.67598 0.63511 0.0
C1177 C 0.62674 0.65468 0.619 0.0
C1178 C 0.64254 0.67632 0.66804 0.0
C1179 C 0.62898 0.65522 0.68577 0.0
H1180 H 0.65198 0.6928 0.62219 0.0
H1181 H 0.65308 0.69367 0.67968 0.0
S1182 S 0.58981 0.59346 0.65488 0.0
N1183 N 0.60003 0.611 0.62318 0.0
N1184 N 0.60206 0.61149 0.68505 0.0
C1185 C 0.61541 0.63305 0.66993 0.0
C1186 C 0.61435 0.63275 0.63649 0.0
C1187 C 0.64191 0.36029 0.91566 0.0
C1188 C 0.62272 0.37656 0.93361 0.0
C1189 C 0.64141 0.36116 0.88273 0.0
C1190 C 0.62166 0.37828 0.86685 0.0
H1191 H 0.6567 0.34605 0.92719 0.0
H1192 H 0.65565 0.34746 0.86965 0.0
S1193 S 0.56969 0.42767 0.90316 0.0
N1194 N 0.5855 0.41222 0.9333 0.0
N1195 N 0.58468 0.41415 0.87143 0.0
C1196 C 0.60373 0.39603 0.88459 0.0
C1197 C 0.60427 0.39515 0.91803 0.0
C1198 C 0.92364 0.39151 0.16814 0.0
C1199 C 0.90779 0.37317 0.18749 0.0
C1200 C 0.92185 0.38999 0.13531 0.0
C1201 C 0.9044 0.36987 0.12089 0.0
H1202 H 0.93783 0.40684 0.1785 0.0
H1203 H 0.93472 0.40411 0.12113 0.0
S1204 S 0.8568 0.31886 0.16117 0.0
N1205 N 0.87278 0.33569 0.19004 0.0
N1206 N 0.86938 0.33276 0.12831 0.0
C1207 C 0.88766 0.35218 0.14 0.0
C1208 C 0.88933 0.35389 0.17337 0.0
C1209 C 0.93278 0.63158 0.37536 0.0
C1210 C 0.91292 0.64801 0.3585 0.0
C1211 C 0.93204 0.63028 0.40827 0.0
C1212 C 0.91139 0.64533 0.42529 0.0
H1213 H 0.94958 0.6204 0.36305 0.0
H1214 H 0.94844 0.61848 0.42049 0.0
S1215 S 0.85248 0.6883 0.39206 0.0
N1216 N 0.87055 0.67734 0.36102 0.0
N1217 N 0.86891 0.67473 0.42289 0.0
C1218 C 0.89034 0.66029 0.40862 0.0
C1219 C 0.89111 0.6616 0.37515 0.0
C1220 C 0.45792 0.32656 0.40931 0.0
C1221 C 0.43487 0.31203 0.42303 0.0
C1222 C 0.46094 0.32903 0.37665 0.0
C1223 C 0.43977 0.31953 0.35606 0.0
H1224 H 0.4739 0.33637 0.42371 0.0
H1225 H 0.48008 0.33877 0.36752 0.0
S1226 S 0.37464 0.28048 0.37942 0.0
N1227 N 0.39196 0.28508 0.41258 0.0
N1228 N 0.39381 0.29644 0.35215 0.0
C1229 C 0.41601 0.3059 0.3694 0.0
C1230 C 0.41439 0.30076 0.40253 0.0
C1231 C 0.5055 0.70223 0.11131 0.0
C1232 C 0.47685 0.69887 0.10276 0.0
C1233 C 0.51541 0.6942 0.14115 0.0
C1234 C 0.49716 0.68216 0.16373 0.0
H1235 H 0.52039 0.71153 0.09496 0.0
H1236 H 0.53758 0.69767 0.14671 0.0
S1237 S 0.42021 0.66831 0.15322 0.0
N1238 N 0.43043 0.6819 0.11922 0.0
N1239 N 0.44881 0.66756 0.17558 0.0
C1240 C 0.46846 0.67847 0.15551 0.0
C1241 C 0.45835 0.68669 0.12503 0.0
C1242 C 0.06697 0.74488 0.91757 0.0
C1243 C 0.07934 0.72277 0.93524 0.0
C1244 C 0.06164 0.74191 0.88511 0.0
C1245 C 0.06842 0.7167 0.86917 0.0
H1246 H 0.06125 0.76456 0.92897 0.0
H1247 H 0.0518 0.75931 0.87253 0.0
S1248 S 0.10386 0.65373 0.90394 0.0
N1249 N 0.10007 0.6757 0.93374 0.0
N1250 N 0.09003 0.67007 0.87321 0.0
C1251 C 0.08138 0.69476 0.88649 0.0
C1252 C 0.08682 0.6978 0.91937 0.0
C1253 C 0.06138 0.36497 0.65747 0.0
C1254 C 0.03178 0.36582 0.66263 0.0
C1255 C 0.07288 0.35507 0.62876 0.0
C1256 C 0.05519 0.34538 0.60438 0.0
H1257 H 0.07571 0.37066 0.67622 0.0
H1258 H 0.09574 0.35475 0.62578 0.0
S1259 S 0.97637 0.34268 0.60676 0.0
N1260 N 0.98522 0.35655 0.64082 0.0
N1261 N 1.0066 0.33685 0.58802 0.0
C1262 C 0.02563 0.34653 0.60932 0.0
C1263 C 1.01403 0.35704 0.63807 0.0
C1264 C 0.07332 1.00157 0.27401 0.0
C1265 C 0.04801 0.98569 0.27119 0.0
C1266 C 0.07329 0.03056 0.2827 0.0
C1267 C 0.0479 0.0462 0.28742 0.0
H1268 H 0.09363 0.99155 0.26938 0.0
H1269 H 0.09363 0.04076 0.28579 0.0
S1270 S 0.97531 0.01563 0.28184 0.0
N1271 N 0.99653 0.98834 0.2754 0.0
N1272 N 0.99634 0.0431 0.28682 0.0
C1273 C 0.02235 0.03082 0.28379 0.0
C1274 C 0.02243 1.00084 0.27664 0.0
C1275 C 0.25153 0.80739 0.53527 0.0
C1276 C 0.23399 0.78327 0.53263 0.0
C1277 C 0.28044 0.80743 0.5255 0.0
C1278 C 0.29432 0.78292 0.51394 0.0
H1279 H 0.24284 0.82675 0.54493 0.0
H1280 H 0.29191 0.82718 0.52684 0.0
S1281 S 0.25915 0.71309 0.50429 0.0
N1282 N 0.23328 0.73396 0.5168 0.0
N1283 N 0.28792 0.73294 0.50285 0.0
C1284 C 0.27735 0.75828 0.51238 0.0
C1285 C 0.24745 0.75864 0.52085 0.0
C1286 C 0.46872 0.03128 0.75901 0.0
C1287 C 0.49442 0.04666 0.75648 0.0
C1288 C 0.4679 1.00232 0.7679 0.0
C1289 C 0.49281 0.98609 0.77297 0.0
H1290 H 0.44867 0.04172 0.75429 0.0
H1291 H 0.44726 0.99267 0.77104 0.0
S1292 S 0.56624 0.01477 0.76689 0.0
N1293 N 0.54579 0.04264 0.76037 0.0
N1294 N 0.54446 0.98785 0.7721 0.0
C1295 C 0.5188 1.0008 0.76908 0.0
C1296 C 0.51957 0.03083 0.76177 0.0
C1297 C 0.27628 0.21098 0.02007 0.0
C1298 C 0.29404 0.23489 1.01763 0.0
C1299 C 0.24699 0.21222 1.01258 0.0
C1300 C 0.23333 0.23774 1.00363 0.0
H1301 H 0.28494 0.19103 0.02826 0.0
H1302 H 0.23493 0.19281 1.014 0.0
S1303 S 0.26984 0.30683 0.99383 0.0
N1304 N 0.29563 0.2848 1.0038 0.0
N1305 N 0.24047 0.28784 0.99352 0.0
C1306 C 0.25079 0.2619 1.00141 0.0
C1307 C 0.28092 0.26036 1.0077 0.0
C1308 C 1.00551 0.01967 0.76192 0.0
C1309 C 1.00162 0.02423 0.79425 0.0
C1310 C 1.00283 0.99274 0.74938 0.0
C1311 C 0.996 0.9698 0.76876 0.0
H1312 H 1.0075 0.03714 0.74561 0.0
H1313 H 1.00313 0.99036 0.72407 0.0
S1314 S 0.98802 0.96984 0.85522 0.0
N1315 N 0.99454 1.00316 0.84584 0.0
N1316 N 0.98867 0.95219 0.82184 0.0
C1317 C 0.99497 0.97341 0.80136 0.0
C1318 C 0.99785 1.00088 0.81423 0.0
C1319 C 0.77636 0.25808 0.55407 0.0
C1320 C 0.79589 0.26169 0.52938 0.0
C1321 C 0.74729 0.26282 0.54951 0.0
C1322 C 0.73685 0.27118 0.51998 0.0
H1323 H 0.78334 0.24937 0.57634 0.0
H1324 H 0.73285 0.25716 0.56834 0.0
S1325 S 0.77953 0.28605 0.44859 0.0
N1326 N 0.80312 0.27614 0.4751 0.0
N1327 N 0.74839 0.28537 0.46662 0.0
C1328 C 0.75641 0.27706 0.49587 0.0
C1329 C 0.78603 0.27228 0.50054 0.0
C1330 C 0.48198 0.03938 0.29728 0.0
C1331 C 0.49455 0.05336 0.27168 0.0
C1332 C 0.48531 1.01019 0.30104 0.0
C1333 C 0.50132 0.99451 0.27929 0.0
H1334 H 0.47304 0.05146 0.31656 0.0
H1335 H 0.47891 1.00066 0.32314 0.0
S1336 S 0.53205 0.02026 0.20454 0.0
N1337 N 0.5184 0.04877 0.22122 0.0
N1338 N 0.52454 0.99364 0.22838 0.0
C1339 C 0.50962 1.00741 0.25109 0.0
C1340 C 0.50627 0.03716 0.24724 0.0
C1341 C 0.78645 0.76605 1.00796 0.0
C1342 C 0.79224 0.76254 0.04005 0.0
C1343 C 0.7585 0.76958 0.99762 0.0
C1344 C 0.73571 0.76949 1.01902 0.0
H1345 H 0.80345 0.7699 0.99132 0.0
H1346 H 0.75499 0.77546 0.97331 0.0
S1347 S 0.73952 0.75477 0.1043 0.0
N1348 N 0.77294 0.75404 0.0922 0.0
N1349 N 0.72023 0.76096 0.07268 0.0
C1350 C 0.74093 0.7621 0.05037 0.0
C1351 C 0.76939 0.75854 0.06092 0.0
C1352 C 0.56339 0.50277 0.77359 0.0
C1353 C 0.53824 0.48831 0.76525 0.0
C1354 C 0.56344 0.53167 0.78264 0.0
C1355 C 0.53864 0.54878 0.78216 0.0
H1356 H 0.58358 0.49173 0.77306 0.0
H1357 H 0.58341 0.54064 0.79008 0.0
S1358 S 0.46668 0.52217 0.76189 0.0
N1359 N 0.48712 0.49379 0.7594 0.0
N1360 N 0.48798 0.54845 0.77126 0.0
C1361 C 0.51336 0.5348 0.77327 0.0
C1362 C 0.51303 0.50484 0.76583 0.0
C1363 C 0.77461 0.26369 1.01713 0.0
C1364 C 0.79086 0.2888 1.01872 0.0
C1365 C 0.74506 0.26319 0.02434 0.0
C1366 C 0.73013 0.28764 0.03422 0.0
H1367 H 0.78477 0.24409 1.0102 0.0
H1368 H 0.73374 0.24345 0.02167 0.0
S1369 S 0.76229 0.35885 0.04351 0.0
N1370 N 0.78855 0.33923 0.02968 0.0
N1371 N 0.735 0.33732 0.04756 0.0
C1372 C 0.74636 0.3126 0.03704 0.0
C1373 C 0.77602 0.31343 0.02826 0.0
C1374 C 0.97918 0.52894 0.26803 0.0
C1375 C 1.00494 0.54429 0.266 0.0
C1376 C 0.97804 0.50011 0.27747 0.0
C1377 C 1.00271 0.48364 0.2832 0.0
H1378 H 0.95929 0.53929 0.26239 0.0
H1379 H 0.95725 0.49075 0.28038 0.0
S1380 S 0.07635 0.51216 0.27917 0.0
N1381 N 0.05616 0.54005 0.27185 0.0
N1382 N 0.05437 0.48533 0.28382 0.0
C1383 C 0.02882 0.49831 0.27996 0.0
C1384 C 0.02987 0.52835 0.27243 0.0
C1385 C 0.7548 0.75013 0.51048 0.0
C1386 C 0.73737 0.72585 0.51104 0.0
C1387 C 0.78425 0.74883 0.51765 0.0
C1388 C 0.79798 0.72325 0.52628 0.0
H1389 H 0.74557 0.77052 0.50476 0.0
H1390 H 0.79641 0.76821 0.51641 0.0
S1391 S 0.76259 0.65316 0.53072 0.0
N1392 N 0.7372 0.67483 0.51876 0.0
N1393 N 0.79098 0.67303 0.53566 0.0
C1394 C 0.78077 0.69884 0.52707 0.0
C1395 C 0.75104 0.69999 0.51868 0.0
C1396 C 0.46975 0.51681 0.30191 0.0
C1397 C 0.48144 0.53267 0.27725 0.0
C1398 C 0.46727 0.48759 0.29934 0.0
C1399 C 0.47645 0.4737 0.27207 0.0
H1400 H 0.46138 0.5272 0.32264 0.0
H1401 H 0.45657 0.47599 0.31791 0.0
S1402 S 0.50905 0.50605 0.20139 0.0
N1403 N 0.5029 0.53287 0.22526 0.0
N1404 N 0.49841 0.47747 0.22048 0.0
C1405 C 0.48962 0.48914 0.24799 0.0
C1406 C 0.49201 0.51894 0.25054 0.0
C1407 C 0.28763 0.77149 0.05253 0.0
C1408 C 0.30646 0.76973 0.02695 0.0
C1409 C 0.25823 0.77296 0.04792 0.0
C1410 C 0.24672 0.77295 1.01748 0.0
H1411 H 0.29554 0.76943 0.0763 0.0
H1412 H 0.24461 0.77132 0.06837 0.0
S1413 S 0.28692 0.77105 0.94257 0.0
N1414 N 0.31152 0.76939 0.97003 0.0
N1415 N 0.25634 0.77375 0.96147 0.0
C1416 C 0.26543 0.77361 0.99174 0.0
C1417 C 0.29533 0.77164 0.9964 0.0
C1418 C 0.02213 0.51313 0.77549 0.0
C1419 C 0.02815 0.49793 0.80298 0.0
C1420 C 0.02083 0.5426 0.77592 0.0
C1421 C 0.02519 0.5575 0.80398 0.0
H1422 H 0.02047 0.50235 0.75317 0.0
H1423 H 0.01888 0.55361 0.7537 0.0
S1424 S 0.0375 0.52667 0.88289 0.0
N1425 N 0.03565 0.49908 0.8593 0.0
N1426 N 0.03265 0.55481 0.86037 0.0
C1427 C 0.02904 0.54227 0.832 0.0
C1428 C 0.03073 0.51231 0.83145 0.0
C1429 C 0.26791 0.26831 0.50234 0.0
C1430 C 0.28632 0.26472 0.52786 0.0
C1431 C 0.23858 0.26531 0.50618 0.0
C1432 C 0.22688 0.25875 0.53576 0.0
H1433 H 0.27591 0.27658 0.48024 0.0
H1434 H 0.22506 0.27161 0.48684 0.0
S1435 S 0.2667 0.24227 0.60838 0.0
N1436 N 0.29152 0.25022 0.58228 0.0
N1437 N 0.23609 0.24464 0.58963 0.0
C1438 C 0.24536 0.25181 0.56042 0.0
C1439 C 0.27528 0.25469 0.55641 0.0
C1440 C 0.99033 0.27445 0.29494 0.0
C1441 C 1.01207 0.29427 0.28883 0.0
C1442 C 0.99562 0.24501 0.2949 0.0
C1443 C 0.02272 0.23392 0.28767 0.0
H1444 H 0.96931 0.28178 0.30154 0.0
H1445 H 0.97854 0.23092 0.30169 0.0
S1446 S 0.08614 0.27697 0.26594 0.0
N1447 N 0.06116 0.30072 0.27325 0.0
N1448 N 0.07104 0.24583 0.27124 0.0
C1449 C 0.04414 0.25365 0.27924 0.0
C1450 C 0.03888 0.28362 0.28036 0.0
C1451 C 0.03513 0.73803 0.52204 0.0
C1452 C 0.04546 0.7653 0.52848 0.0
C1453 C 1.00568 0.7325 0.52056 0.0
C1454 C 0.98501 0.7538 0.52621 0.0
H1455 H 0.04989 0.72056 0.51921 0.0
H1456 H 0.99916 0.71083 0.51679 0.0
S1457 S 1.00063 0.82921 0.5428 0.0
N1458 N 0.03225 0.81432 0.53896 0.0
N1459 N 0.97743 0.80369 0.53694 0.0
C1460 C 0.99508 0.7814 0.53137 0.0
C1461 C 0.02504 0.78716 0.53234 0.0
C1462 C 0.54068 0.78718 0.78234 0.0
C1463 C 0.51348 0.79847 0.77623 0.0
C1464 C 0.54573 0.75769 0.7827 0.0
C1465 C 0.52367 0.73794 0.77787 0.0
H1466 H 0.55803 0.80116 0.78823 0.0
H1467 H 0.56682 0.75034 0.78889 0.0
S1468 S 0.44914 0.75595 0.75774 0.0
N1469 N 0.46466 0.78694 0.76204 0.0
N1470 N 0.47411 0.73199 0.7642 0.0
C1471 C 0.49676 0.74886 0.77014 0.0
C1472 C 0.49172 0.7789 0.76891 0.0
C1473 C 0.50125 0.2355 1.01671 0.0
C1474 C 0.48105 0.25775 1.01852 0.0
C1475 C 0.53074 0.24048 1.01883 0.0
C1476 C 0.54158 0.26802 0.02212 0.0
H1477 H 0.49425 0.21372 1.01575 0.0
H1478 H 0.54505 0.22246 0.01925 0.0
S1479 S 0.4981 0.33413 0.02417 0.0
N1480 N 0.47443 0.30863 0.02124 0.0
N1481 N 0.52941 0.31823 0.02426 0.0
C1482 C 0.52169 0.29065 0.02159 0.0
C1483 C 0.49165 0.28548 0.02003 0.0
C1484 C 0.04453 0.74731 0.26641 0.0
C1485 C 0.01716 0.73561 0.26359 0.0
C1486 C 0.04879 0.77688 0.26779 0.0
C1487 C 0.02598 0.79649 0.26568 0.0
H1488 H 0.06299 0.73353 0.26668 0.0
H1489 H 0.07048 0.7844 0.26889 0.0
S1490 S 0.9498 0.77729 0.25943 0.0
N1491 N 0.96654 0.74651 0.26037 0.0
N1492 N 0.97477 0.8016 0.26197 0.0
C1493 C 0.99844 0.7851 0.26385 0.0
C1494 C 0.994 0.75495 0.26307 0.0
C1495 C 0.52963 0.7527 0.51699 0.0
C1496 C 0.54532 0.74943 0.48883 0.0
C1497 C 0.50004 0.75907 0.51688 0.0
C1498 C 0.48442 0.76116 0.48865 0.0
H1499 H 0.5404 0.75075 0.53933 0.0
H1500 H 0.48926 0.76214 0.53914 0.0
S1501 S 0.51499 0.7533 0.40842 0.0
N1502 N 0.54247 0.74861 0.4319 0.0
N1503 N 0.48745 0.75916 0.4317 0.0
C1504 C 0.49984 0.75733 0.46043 0.0
C1505 C 0.52998 0.75183 0.46052 0.0
C1506 C 0.53227 0.24981 0.76234 0.0
C1507 C 0.50563 0.23853 0.75435 0.0
C1508 C 0.53665 0.27937 0.76412 0.0
C1509 C 0.51492 0.29919 0.75685 0.0
H1510 H 0.55002 0.23569 0.76675 0.0
H1511 H 0.55784 0.28671 0.76959 0.0
S1512 S 0.44126 0.28072 0.73405 0.0
N1513 N 0.45693 0.24978 0.73972 0.0
N1514 N 0.4656 0.30483 0.74146 0.0
C1515 C 0.48812 0.28812 0.74913 0.0
C1516 C 0.48341 0.25805 0.74828 0.0
C1517 C 0.02546 0.26049 0.96175 0.0
C1518 C 0.04183 0.25723 0.98924 0.0
C1519 C 0.99616 0.26721 0.96289 0.0
C1520 C 0.98172 0.27196 0.99154 0.0
H1521 H 0.03526 0.25722 0.93898 0.0
H1522 H 0.98481 0.26925 0.9409 0.0
S1523 S 1.01459 0.26677 0.07049 0.0
N1524 N 0.041 0.25909 0.0462 0.0
N1525 N 0.98654 0.27319 0.04826 0.0
C1526 C 0.99789 0.26926 0.01925 0.0
C1527 C 0.02764 0.26148 1.01812 0.0
C1528 C 1.00249 0.75338 0.70687 0.0
C1529 C 0.98929 0.75377 0.73636 0.0
C1530 C 0.03091 0.76127 0.70354 0.0
C1531 C 0.04616 0.77152 0.72917 0.0
H1532 H 0.99082 0.74673 0.68639 0.0
H1533 H 0.04132 0.75847 0.68104 0.0
S1534 S 0.01995 0.78058 0.81044 0.0
N1535 N 0.99309 0.76626 0.79148 0.0
N1536 N 0.04558 0.78452 0.78416 0.0
C1537 C 0.03262 0.77405 0.75829 0.0
C1538 C 1.00421 0.76445 0.76214 0.0
C1539 C 0.02695 0.273 0.49503 0.0
C1540 C 0.02606 0.25201 0.47206 0.0
C1541 C 0.02421 0.30143 0.48672 0.0
C1542 C 0.02206 0.30988 0.45527 0.0
H1543 H 0.02991 0.26747 0.51951 0.0
H1544 H 0.02383 0.31698 0.50502 0.0
S1545 S 1.00976 0.2623 0.38785 0.0
N1546 N 1.01595 0.24067 0.41767 0.0
N1547 N 1.01258 0.29479 0.4018 0.0
C1548 C 0.01829 0.28896 0.43237 0.0
C1549 C 0.02028 0.25977 0.44088 0.0
C1550 C 0.50095 0.25669 0.19804 0.0
C1551 C 0.48723 0.25437 0.22717 0.0
C1552 C 0.52984 0.2633 0.19632 0.0
C1553 C 0.54502 0.26979 0.22348 0.0
H1554 H 0.48938 0.2528 0.17662 0.0
H1555 H 0.54061 0.26234 0.17384 0.0
S1556 S 0.51708 0.27309 0.30465 0.0
N1557 N 0.49027 0.26139 0.28354 0.0
N1558 N 0.54346 0.27824 0.27958 0.0
C1559 C 0.53083 0.27045 0.25237 0.0
C1560 C 0.502 0.26178 0.25441 0.0
C1561 C 0.50721 0.77425 0.9501 0.0
C1562 C 0.51159 0.78334 0.98092 0.0
C1563 C 0.51203 0.74602 0.94183 0.0
C1564 C 0.52266 0.72665 0.96383 0.0
H1565 H 0.49955 0.78895 0.93251 0.0
H1566 H 0.5066 0.73907 0.91841 0.0
S1567 S 0.54653 0.74247 0.04437 0.0
N1568 N 0.53192 0.77226 0.03186 0.0
N1569 N 0.54363 0.71976 1.01519 0.0
C1570 C 0.53045 0.73631 0.99353 0.0
C1571 C 0.52432 0.76467 1.00241 0.0
C1572 C 0.99161 0.25238 0.69576 0.0
C1573 C 0.99793 0.23851 0.72439 0.0
C1574 C 0.96483 0.26539 0.69163 0.0
C1575 C 0.94663 0.26748 0.71772 0.0
H1576 H 1.00824 0.25658 0.67872 0.0
H1577 H 0.96167 0.27925 0.67163 0.0
S1578 S 0.94018 0.20873 0.77374 0.0
N1579 N 0.97404 0.20841 0.76285 0.0
N1580 N 0.92503 0.23522 0.75473 0.0
C1581 C 0.94763 0.24407 0.73756 0.0
C1582 C 0.97419 0.23015 0.74233 0.0
C1583 C 0.52466 0.26523 0.5457 0.0
C1584 C 0.52092 0.28595 0.56859 0.0
C1585 C 0.52335 0.23681 0.55362 0.0
C1586 C 0.52081 0.22804 0.58483 0.0
H1587 H 0.52892 0.27092 0.52152 0.0
H1588 H 0.52501 0.22137 0.5353 0.0
S1589 S 0.50528 0.27416 0.65291 0.0
N1590 N 0.50977 0.29636 0.62317 0.0
N1591 N 0.51028 0.24201 0.6386 0.0
C1592 C 0.51551 0.24842 0.60803 0.0
C1593 C 0.51543 0.27774 0.59976 0.0
C1594 C 0.63276 0.77623 0.26133 0.0
C1595 C 0.62759 0.78435 0.29245 0.0
C1596 C 0.62266 0.74999 0.25129 0.0
C1597 C 0.61044 0.73157 0.27331 0.0
H1598 H 0.63754 0.79219 0.24385 0.0
H1599 H 0.62012 0.74626 0.22639 0.0
S1600 S 0.61016 0.73906 0.35962 0.0
N1601 N 0.62391 0.76883 0.34627 0.0
N1602 N 0.6045 0.71936 0.32837 0.0
C1603 C 0.61478 0.73651 0.30539 0.0
C1604 C 0.62518 0.7631 0.31504 0.0
C1605 C 0.03598 0.74033 0.08695 0.0
C1606 C 0.02346 0.71786 0.07106 0.0
C1607 C 0.03654 0.76736 0.07375 0.0
C1608 C 0.02433 0.77242 0.0444 0.0
H1609 H 0.04592 0.7366 0.10945 0.0
H1610 H 0.04691 0.7843 0.08625 0.0
S1611 S 0.98165 0.72186 0.99794 0.0
N1612 N 0.99331 0.70312 0.02812 0.0
N1613 N 0.99462 0.75399 1.00254 0.0
C1614 C 1.0091 0.75063 0.02976 0.0
C1615 C 1.00834 0.72321 0.04352 0.0
C1616 C 0.10109 0.21963 0.44 0.0
C1617 C 0.0944 0.24826 0.43314 0.0
C1618 C 0.0973 0.19781 0.41773 0.0
C1619 C 0.0887 0.20387 0.38684 0.0
H1620 H 0.10814 0.21375 0.46331 0.0
H1621 H 0.10072 0.17605 0.42489 0.0
S1622 S 0.07429 0.27542 0.35426 0.0
N1623 N 0.08156 0.28128 0.39156 0.0
N1624 N 0.07688 0.24086 0.34945 0.0
C1625 C 0.08436 0.23251 0.37884 0.0
C1626 C 0.08685 0.25453 0.40185 0.0
C1627 C 0.04723 0.80348 0.63204 0.0
C1628 C 0.07306 0.81841 0.63422 0.0
C1629 C 0.02458 0.80807 0.65319 0.0
C1630 C 0.02684 0.82709 0.67845 0.0
H1631 H 0.04442 0.78803 0.61358 0.0
H1632 H 1.00526 0.79602 0.65006 0.0
S1633 S 0.08939 0.87282 0.6938 0.0
N1634 N 0.0989 0.85445 0.66249 0.0
N1635 N 0.05694 0.86233 0.70311 0.0
C1636 C 0.05227 0.84291 0.68032 0.0
C1637 C 0.07522 0.83864 0.65818 0.0
C1638 C 0.44084 0.83661 0.90862 0.0
C1639 C 0.44969 0.83011 0.87786 0.0
C1640 C 0.4367 0.81511 0.93145 0.0
C1641 C 0.4424 0.78625 0.92497 0.0
H1642 H 0.43762 0.85849 0.91525 0.0
H1643 H 0.42989 0.82133 0.95474 0.0
S1644 S 0.46562 0.75815 0.84764 0.0
N1645 N 0.46321 0.79267 0.8419 0.0
N1646 N 0.45632 0.7527 0.88456 0.0
C1647 C 0.45073 0.77958 0.89402 0.0
C1648 C 0.45429 0.80135 0.87069 0.0
C1649 C 0.46277 0.18103 0.17545 0.0
C1650 C 0.49079 0.19188 0.17323 0.0
C1651 C 0.44266 0.18476 0.15117 0.0
C1652 C 0.44981 0.19907 0.12331 0.0
H1653 H 0.45591 0.1702 0.19658 0.0
H1654 H 0.4212 0.1771 0.15462 0.0
S1655 S 0.52084 0.22816 0.10314 0.0
N1656 N 0.52505 0.21475 0.13869 0.0
N1657 N 0.48734 0.22232 0.09377 0.0
C1658 C 0.47801 0.2087 0.11999 0.0
C1659 C 0.4985 0.20476 0.14456 0.0
C1660 C 0.08296 0.78522 0.14347 0.0
C1661 C 0.10206 0.7911 0.11873 0.0
C1662 C 0.077 0.80525 0.16706 0.0
C1663 C 0.09039 0.8319 0.16769 0.0
H1664 H 0.07211 0.7651 0.14453 0.0
H1665 H 0.06155 0.79984 0.18504 0.0
S1666 S 0.14313 0.85804 0.10993 0.0
N1667 N 0.13494 0.82612 0.09726 0.0
N1668 N 0.12415 0.86295 0.14219 0.0
C1669 C 0.11013 0.83793 0.14392 0.0
C1670 C 0.11587 0.81777 0.11941 0.0
C1671 C 0.46014 0.85519 0.40857 0.0
C1672 C 0.43664 0.83785 0.40163 0.0
C1673 C 0.48145 0.86083 0.38594 0.0
C1674 C 0.48041 0.84895 0.35566 0.0
H1675 H 0.46306 0.86309 0.43216 0.0
H1676 H 0.49976 0.87313 0.39284 0.0
S1677 S 0.42168 0.80616 0.32348 0.0
N1678 N 0.412 0.81242 0.36011 0.0
N1679 N 0.45271 0.82181 0.31879 0.0
C1680 C 0.45635 0.83318 0.34775 0.0
C1681 C 0.43429 0.82806 0.37034 0.0
C1682 C 0.43337 0.2407 0.63553 0.0
C1683 C 0.43685 0.23432 0.60353 0.0
C1684 C 0.43794 0.2201 0.65895 0.0
C1685 C 0.44628 0.19228 0.65136 0.0
H1686 H 0.42815 0.26212 0.64261 0.0
H1687 H 0.43656 0.22649 0.68329 0.0
S1688 S 0.45472 0.16392 0.57078 0.0
N1689 N 0.44668 0.19767 0.56524 0.0
N1690 N 0.45506 0.15884 0.60923 0.0
C1691 C 0.44828 0.18525 0.61934 0.0
C1692 C 0.44367 0.2063 0.59543 0.0
C1693 C 0.06936 0.14656 0.87872 0.0
C1694 C 0.07928 0.15484 0.84872 0.0
C1695 C 0.08401 0.15418 0.90615 0.0
C1696 C 0.10914 0.1701 0.90438 0.0
H1697 H 0.0487 0.13677 0.88131 0.0
H1698 H 0.07396 0.15031 0.92869 0.0
S1699 S 0.14784 0.19007 0.83152 0.0
N1700 N 0.11855 0.17477 0.81895 0.0
N1701 N 0.14629 0.18855 0.87022 0.0
C1702 C 0.12121 0.17483 0.87448 0.0
C1703 C 0.1062 0.16741 0.84669 0.0
C1704 C 0.87278 0.83109 0.66699 0.0
C1705 C 0.89637 0.84883 0.67062 0.0
C1706 C 0.86504 0.82179 0.63718 0.0
C1707 C 0.88105 0.82976 0.61067 0.0
H1708 H 0.86305 0.82112 0.6873 0.0
H1709 H 0.84965 0.80486 0.63557 0.0
S1710 S 0.9369 0.88445 0.60706 0.0
N1711 N 0.92942 0.88105 0.6448 0.0
N1712 N 0.91523 0.86273 0.58869 0.0
C1713 C 0.90023 0.85217 0.6134 0.0
C1714 C 0.90792 0.86196 0.64374 0.0
C1715 C 0.94081 0.14262 0.44001 0.0
C1716 C 0.92225 0.166 0.44046 0.0
C1717 C 0.95229 0.13288 0.41172 0.0
C1718 C 0.94542 0.1462 0.38314 0.0
H1719 H 0.94968 0.1346 0.46177 0.0
H1720 H 0.9692 0.11724 0.41268 0.0
S1721 S 0.89006 0.20131 0.37146 0.0
N1722 N 0.89168 0.197 0.40991 0.0
N1723 N 0.91307 0.17855 0.35639 0.0
C1724 C 0.92278 0.16577 0.38291 0.0
C1725 C 0.91109 0.17569 0.41186 0.0
C1726 C 0.58812 0.16521 0.12513 0.0
C1727 C 0.61319 0.1807 0.11979 0.0
C1728 C 0.58232 0.15336 0.15472 0.0
C1729 C 0.60138 0.15684 0.17984 0.0
H1730 H 0.57145 0.16496 0.10766 0.0
H1731 H 0.56124 0.14494 0.15886 0.0
S1732 S 0.67394 0.18683 0.1744 0.0
N1733 N 0.66014 0.19236 0.1393 0.0
N1734 N 0.64933 0.16995 0.19484 0.0
C1735 C 0.62851 0.16774 0.17297 0.0
C1736 C 0.63431 0.17998 0.14298 0.0
C1737 C 0.59297 0.89556 0.92772 0.0
C1738 C 0.60986 0.87115 0.93108 0.0
C1739 C 0.58393 0.90442 0.89805 0.0
C1740 C 0.59146 0.88904 0.87105 0.0
H1741 H 0.58368 0.90557 0.9482 0.0
H1742 H 0.56804 0.92107 0.89669 0.0
S1743 S 0.64271 0.82944 0.8668 0.0
N1744 N 0.6397 0.83634 0.90464 0.0
N1745 N 0.62235 0.85292 0.84876 0.0
C1746 C 0.61251 0.86803 0.87366 0.0
C1747 C 0.62189 0.85907 0.90392 0.0
C1748 C 0.945 0.17755 0.87495 0.0
C1749 C 0.95867 0.1961 0.85372 0.0
C1750 C 0.92615 0.18755 0.89779 0.0
C1751 C 0.91966 0.2164 0.89985 0.0
H1752 H 0.94923 0.155 0.87432 0.0
H1753 H 0.91674 0.17262 0.91413 0.0
S1754 S 0.94988 0.27407 0.8505 0.0
N1755 N 0.96484 0.2449 0.83679 0.0
N1756 N 0.92866 0.26379 0.87933 0.0
C1757 C 0.93293 0.23532 0.87872 0.0
C1758 C 0.9527 0.22516 0.85581 0.0
C1759 C 0.61019 0.15522 0.61264 0.0
C1760 C 0.62523 0.18091 0.60988 0.0
C1761 C 0.59575 0.14809 0.6403 0.0
C1762 C 0.59659 0.16582 0.66665 0.0
H1763 H 0.60677 0.14207 0.59223 0.0
H1764 H 0.58204 0.12972 0.64013 0.0
S1765 S 0.64265 0.22894 0.67561 0.0
N1766 N 0.64664 0.21975 0.63849 0.0
N1767 N 0.62057 0.20562 0.69116 0.0
C1768 C 0.61581 0.18866 0.66606 0.0
C1769 C 0.63005 0.19632 0.63751 0.0
C1770 C 0.63379 0.8478 0.36492 0.0
C1771 C 0.61047 0.86568 0.37132 0.0
C1772 C 0.64419 0.82894 0.3877 0.0
C1773 C 0.63202 0.82777 0.41787 0.0
H1774 H 0.64157 0.84569 0.34107 0.0
H1775 H 0.66021 0.81361 0.3808 0.0
S1776 S 0.57473 0.87478 0.44813 0.0
N1777 N 0.57862 0.88428 0.41101 0.0
N1778 N 0.59872 0.84979 0.45444 0.0
C1779 C 0.61148 0.84843 0.4258 0.0
C1780 C 0.60067 0.86731 0.40236 0.0
C1781 C 0.92809 0.86454 0.1663 0.0
C1782 C 0.9506 0.88401 0.1673 0.0
C1783 C 0.9187 0.85376 0.13755 0.0
C1784 C 0.93171 0.86208 0.10917 0.0
H1785 H 0.91995 0.85512 0.18774 0.0
H1786 H 0.9037 0.83642 0.13799 0.0
S1787 S 0.98432 0.91949 0.09893 0.0
N1788 N 0.9801 0.91663 0.13732 0.0
N1789 N 0.96281 0.89591 0.08335 0.0
C1790 C 0.95078 0.88481 0.1097 0.0
C1791 C 0.96014 0.89595 0.13886 0.0
C1792 C 0.5951 0.69839 0.91146 0.0
C1793 C 0.57716 0.70401 0.88569 0.0
C1794 C 0.59976 0.71906 0.93506 0.0
C1795 C 0.58696 0.74622 0.93352 0.0
H1796 H 0.60465 0.67763 0.91407 0.0
H1797 H 0.61284 0.71348 0.95502 0.0
S1798 S 0.54305 0.77312 0.8674 0.0
N1799 N 0.54932 0.73971 0.85844 0.0
N1800 N 0.55941 0.77854 0.90102 0.0
C1801 C 0.57087 0.75252 0.90653 0.0
C1802 C 0.5656 0.73146 0.88317 0.0
C1803 C 0.52154 0.31372 0.14905 0.0
C1804 C 0.52555 0.33028 0.17612 0.0
C1805 C 0.54358 0.30917 0.1272 0.0
C1806 C 0.57058 0.3215 0.13076 0.0
H1807 H 0.50129 0.30357 0.14497 0.0
H1808 H 0.53947 0.2956 0.10729 0.0
S1809 S 0.59197 0.36853 0.19582 0.0
N1810 N 0.55867 0.36031 0.20425 0.0
N1811 N 0.59975 0.35223 0.16258 0.0
C1812 C 0.57469 0.33916 0.15681 0.0
C1813 C 0.55225 0.34354 0.17949 0.0
C1814 C 0.94562 0.32541 0.45003 0.0
C1815 C 0.94059 0.29664 0.44349 0.0
C1816 C 0.94966 0.34552 0.42554 0.0
C1817 C 0.94936 0.33759 0.39358 0.0
H1818 H 0.94763 0.33221 0.47417 0.0
H1819 H 0.95464 0.36715 0.43172 0.0
S1820 S 0.93451 0.26539 0.36409 0.0
N1821 N 0.93329 0.26187 0.40267 0.0
N1822 N 0.94132 0.29911 0.35721 0.0
C1823 C 0.94261 0.30923 0.38697 0.0
C1824 C 0.93835 0.28891 0.41173 0.0
C1825 C 0.96855 0.67826 0.68462 0.0
C1826 C 0.99674 0.68842 0.68138 0.0
C1827 C 0.94842 0.68044 0.66001 0.0
C1828 C 0.95575 0.69213 0.63064 0.0
H1829 H 0.9616 0.6693 0.70678 0.0
H1830 H 0.92681 0.67358 0.66428 0.0
S1831 S 0.02684 0.71988 0.6084 0.0
N1832 N 0.03091 0.70914 0.64506 0.0
N1833 N 0.99344 0.71312 0.59936 0.0
C1834 C 0.98402 0.70135 0.62663 0.0
C1835 C 1.00442 0.69936 0.65166 0.0
C1836 C 0.58858 0.34295 0.62956 0.0
C1837 C 0.58229 0.33499 0.66069 0.0
C1838 C 0.59293 0.32252 0.60584 0.0
C1839 C 0.58963 0.29322 0.6117 0.0
H1840 H 0.58982 0.36518 0.62341 0.0
H1841 H 0.59815 0.32986 0.58241 0.0
S1842 S 0.5725 0.26134 0.68932 0.0
N1843 N 0.57324 0.2957 0.69617 0.0
N1844 N 0.5798 0.25762 0.65158 0.0
C1845 C 0.58323 0.28506 0.64279 0.0
C1846 C 0.57987 0.30581 0.66715 0.0
C1847 C 0.93737 0.37079 0.90573 0.0
C1848 C 0.91258 0.35419 0.90579 0.0
C1849 C 0.95114 0.37811 0.87732 0.0
C1850 C 0.94073 0.36884 0.84807 0.0
H1851 H 0.94772 0.3758 0.92768 0.0
H1852 H 0.97149 0.38869 0.87853 0.0
S1853 S 0.8734 0.33032 0.83517 0.0
N1854 N 0.87558 0.33326 0.87369 0.0
N1855 N 0.90186 0.3462 0.82086 0.0
C1856 C 0.91444 0.35495 0.84778 0.0
C1857 C 0.90025 0.34792 0.87648 0.0
C1858 C 0.97648 0.7362 0.12483 0.0
C1859 C 0.95252 0.7329 0.10554 0.0
C1860 C 0.98331 0.71659 0.14852 0.0
C1861 C 0.96589 0.69311 0.15531 0.0
H1862 H 0.98991 0.75457 0.12212 0.0
H1863 H 1.00216 0.72045 0.16238 0.0
S1864 S 0.89922 0.67541 0.11378 0.0
N1865 N 0.91056 0.70431 0.09575 0.0
N1866 N 0.92267 0.66831 0.14157 0.0
C1867 C 0.94121 0.68991 0.13714 0.0
C1868 C 0.93465 0.70958 0.11214 0.0
C1869 C 0.58052 0.65698 0.40744 0.0
C1870 C 0.60853 0.66732 0.40542 0.0
C1871 C 0.56573 0.64833 0.38041 0.0
C1872 C 0.57853 0.64936 0.35048 0.0
H1873 H 0.56895 0.65827 0.42943 0.0
H1874 H 0.54329 0.64359 0.38257 0.0
S1875 S 0.65337 0.66847 0.33358 0.0
N1876 N 0.64985 0.67362 0.37177 0.0
N1877 N 0.62222 0.65697 0.3213 0.0
C1878 C 0.60747 0.65644 0.34878 0.0
C1879 C 0.62244 0.66553 0.37617 0.0
C1880 C 0.413 0.36569 0.14233 0.0
C1881 C 0.3983 0.35393 0.16811 0.0
C1882 C 0.4058 0.35805 0.11164 0.0
C1883 C 0.38369 0.3388 0.10646 0.0
H1884 H 0.4327 0.37702 0.14584 0.0
H1885 H 0.42028 0.3636 0.09276 0.0
S1886 S 0.33178 0.31272 0.16522 0.0
N1887 N 0.35569 0.32992 0.18597 0.0
N1888 N 0.34168 0.31618 0.12816 0.0
C1889 C 0.36523 0.3324 0.13145 0.0
C1890 C 0.37272 0.33983 0.16257 0.0
C1891 C 0.41764 0.68986 0.87163 0.0
C1892 C 0.43234 0.66435 0.86602 0.0
C1893 C 0.40475 0.69498 0.90086 0.0
C1894 C 0.40636 0.67471 0.92514 0.0
H1895 H 0.41905 0.7072 0.85499 0.0
H1896 H 0.39739 0.71629 0.90573 0.0
S1897 S 0.43285 0.60107 0.91755 0.0
N1898 N 0.44081 0.61612 0.88358 0.0
N1899 N 0.41607 0.62552 0.93825 0.0
C1900 C 0.41586 0.64733 0.91734 0.0
C1901 C 0.42937 0.64228 0.88788 0.0
C1902 C 0.09141 0.6543 0.66359 0.0
C1903 C 0.11037 0.66041 0.68817 0.0
C1904 C 0.09666 0.66414 0.63301 0.0
C1905 C 0.12111 0.68012 0.62618 0.0
H1906 H 0.07066 0.64546 0.66862 0.0
H1907 H 0.07992 0.66212 0.61578 0.0
S1908 S 0.18183 0.69223 0.67955 0.0
N1909 N 0.15783 0.6762 0.70166 0.0
N1910 N 0.16778 0.69461 0.64416 0.0
C1911 C 0.14239 0.6817 0.64915 0.0
C1912 C 0.13706 0.67164 0.68019 0.0
C1913 C 0.11922 0.38535 0.42513 0.0
C1914 C 0.13205 0.35885 0.4315 0.0
C1915 C 0.10384 0.38985 0.39751 0.0
C1916 C 0.10253 0.36886 0.37438 0.0
H1917 H 0.11713 0.40097 0.44357 0.0
H1918 H 0.09095 0.40884 0.39553 0.0
S1919 S 0.14566 0.30285 0.37263 0.0
N1920 N 0.15091 0.31583 0.40807 0.0
N1921 N 0.12426 0.32547 0.35463 0.0
C1922 C 0.12092 0.34535 0.3773 0.0
C1923 C 0.13555 0.34018 0.40618 0.0
C1924 C 0.44887 0.72561 0.34434 0.0
C1925 C 0.45907 0.69788 0.34035 0.0
C1926 C 0.42925 0.73201 0.36817 0.0
C1927 C 0.41949 0.71101 0.38916 0.0
H1928 H 0.45656 0.74261 0.32946 0.0
H1929 H 0.42293 0.75388 0.37124 0.0
S1930 S 0.43846 0.63498 0.38824 0.0
N1931 N 0.45666 0.64887 0.35882 0.0
N1932 N 0.4204 0.66147 0.40384 0.0
C1933 C 0.42878 0.68315 0.38493 0.0
C1934 C 0.44838 0.67644 0.36045 0.0
C1935 C 0.12345 0.69205 0.17054 0.0
C1936 C 0.10862 0.66636 0.17391 0.0
C1937 C 0.13732 0.69903 0.14231 0.0
C1938 C 0.13689 0.68048 0.11652 0.0
H1939 H 0.12216 0.70806 0.18863 0.0
H1940 H 0.14573 0.72022 0.13975 0.0
S1941 S 0.10816 0.60743 0.11675 0.0
N1942 N 0.0995 0.62006 0.1516 0.0
N1943 N 0.12594 0.6329 0.0988 0.0
C1944 C 0.12574 0.65316 0.12137 0.0
C1945 C 0.11136 0.64621 0.14993 0.0
C1946 C 0.07867 0.34322 0.85126 0.0
C1947 C 0.06434 0.32336 0.83235 0.0
C1948 C 0.09723 0.33471 0.87507 0.0
C1949 C 0.10296 0.30604 0.88052 0.0
H1950 H 0.07453 0.36568 0.84886 0.0
H1951 H 0.10641 0.35069 0.89009 0.0
S1952 S 0.07326 0.24536 0.83636 0.0
N1953 N 0.05864 0.27353 0.8198 0.0
N1954 N 0.09426 0.25752 0.86418 0.0
C1955 C 0.09025 0.28587 0.86074 0.0
C1956 C 0.07077 0.29452 0.83677 0.0
C1957 C 0.43487 0.38829 0.60895 0.0
C1958 C 0.41671 0.36483 0.60968 0.0
C1959 C 0.44588 0.39935 0.63672 0.0
C1960 C 0.43943 0.38689 0.66595 0.0
H1961 H 0.44323 0.39595 0.58675 0.0
H1962 H 0.46212 0.41549 0.63494 0.0
S1963 S 0.38729 0.3296 0.68041 0.0
N1964 N 0.38814 0.33327 0.64185 0.0
N1965 N 0.40913 0.35375 0.69428 0.0
C1966 C 0.41784 0.36639 0.6672 0.0
C1967 C 0.40639 0.35535 0.63883 0.0
loop_
_geom_bond_atom_site_label_1
_geom_bond_atom_site_label_2
_geom_bond_distance
_geom_bond_site_symmetry_2
_ccdc_geom_bond_type
Co0 O3 1.970 . S
Co0 N17 1.989 . S
Co0 O25 1.967 . S
Co0 O32 1.920 . S
Co1 O4 1.966 . S
Co1 N10 2.022 . S
Co1 N18 1.993 . S
Co1 O26 1.941 . S
C2 O3 1.258 . S
C2 O4 1.263 . S
O3 Co0 1.970 . S
O3 C2 1.258 . S
O4 Co1 1.966 . S
O4 C2 1.263 . S
C5 O6 1.235 . S
C5 O32 1.289 1_655 S
O6 C5 1.235 . S
C7 C9 1.400 . S
C7 N10 1.351 . S
C7 C12 1.501 . S
C8 C9 1.387 . S
C8 N11 1.341 . S
C9 C7 1.400 . S
C9 C8 1.387 . S
N10 Co1 2.022 . S
N10 C7 1.351 . S
N10 N11 1.365 . S
N11 C8 1.341 . S
N11 N10 1.365 . S
N11 H31 0.862 . S
C12 C7 1.501 . S
C12 H13 0.961 . S
C12 H14 0.961 . S
C12 H15 0.960 . S
H13 C12 0.961 . S
H14 C12 0.961 . S
H15 C12 0.960 . S
C16 N17 1.342 . S
C16 C20 1.401 . S
C16 C21 1.499 . S
N17 Co0 1.989 . S
N17 C16 1.342 . S
N17 N18 1.388 . S
N18 Co1 1.993 . S
N18 N17 1.388 . S
N18 C19 1.346 . S
C19 N18 1.346 . S
C19 C20 1.396 . S
C19 C29 1.510 . S
C20 C16 1.401 . S
C20 C19 1.396 . S
C21 C16 1.499 . S
C21 H22 0.959 . S
C21 H23 0.960 . S
C21 H24 0.961 . S
H22 C21 0.959 . S
H23 C21 0.960 . S
H24 C21 0.961 . S
O25 Co0 1.967 . S
O25 C33 1.258 . S
O26 Co1 1.941 . S
O26 C33 1.266 . S
H27 C29 0.959 . S
H28 C29 0.961 . S
C29 C19 1.510 . S
C29 H27 0.959 . S
C29 H28 0.961 . S
C29 H30 0.960 . S
H30 C29 0.960 . S
H31 N11 0.862 . S
O32 Co0 1.920 . S
O32 C5 1.289 1_455 S
C33 O25 1.258 . S
C33 O26 1.266 . S
Co34 O37 1.970 . S
Co34 N51 1.989 . S
Co34 O59 1.967 . S
Co34 O66 1.920 . S
Co35 O38 1.966 . S
Co35 N44 2.022 . S
Co35 N52 1.993 . S
Co35 O60 1.941 . S
C36 O37 1.258 . S
C36 O38 1.263 . S
O37 Co34 1.970 . S
O37 C36 1.258 . S
O38 Co35 1.966 . S
O38 C36 1.263 . S
C39 O40 1.235 . S
C39 O66 1.289 . S
O40 C39 1.235 . S
C41 C43 1.400 . S
C41 N44 1.351 . S
C41 C46 1.501 . S
C42 C43 1.387 . S
C42 N45 1.341 . S
C43 C41 1.400 . S
C43 C42 1.387 . S
N44 Co35 2.022 . S
N44 C41 1.351 . S
N44 N45 1.365 . S
N45 C42 1.341 . S
N45 N44 1.365 . S
N45 H65 0.862 . S
C46 C41 1.501 . S
C46 H47 0.961 . S
C46 H48 0.961 . S
C46 H49 0.960 . S
H47 C46 0.961 . S
H48 C46 0.961 . S
H49 C46 0.960 . S
C50 N51 1.342 . S
C50 C54 1.401 . S
C50 C55 1.499 . S
N51 Co34 1.989 . S
N51 C50 1.342 . S
N51 N52 1.388 . S
N52 Co35 1.993 . S
N52 N51 1.388 . S
N52 C53 1.346 . S
C53 N52 1.346 . S
C53 C54 1.396 . S
C53 C63 1.510 . S
C54 C50 1.401 . S
C54 C53 1.396 . S
C55 C50 1.499 . S
C55 H56 0.959 . S
C55 H57 0.960 . S
C55 H58 0.961 . S
H56 C55 0.959 . S
H57 C55 0.960 . S
H58 C55 0.961 . S
O59 Co34 1.967 . S
O59 C67 1.258 . S
O60 Co35 1.941 . S
O60 C67 1.266 . S
H61 C63 0.959 . S
H62 C63 0.961 . S
C63 C53 1.510 . S
C63 H61 0.959 . S
C63 H62 0.961 . S
C63 H64 0.960 . S
H64 C63 0.960 . S
H65 N45 0.862 . S
O66 Co34 1.920 . S
O66 C39 1.289 . S
C67 O59 1.258 . S
C67 O60 1.266 . S
Co68 O71 1.970 . S
Co68 N85 1.989 . S
Co68 O93 1.967 . S
Co68 O100 1.920 . S
Co69 O72 1.966 . S
Co69 N78 2.022 . S
Co69 N86 1.993 . S
Co69 O94 1.941 . S
C70 O71 1.258 . S
C70 O72 1.263 . S
O71 Co68 1.970 . S
O71 C70 1.258 . S
O72 Co69 1.966 . S
O72 C70 1.263 . S
C73 O74 1.235 . S
C73 O100 1.289 . S
O74 C73 1.235 . S
C75 C77 1.400 . S
C75 N78 1.351 . S
C75 C80 1.501 . S
C76 C77 1.387 . S
C76 N79 1.341 . S
C77 C75 1.400 . S
C77 C76 1.387 . S
N78 Co69 2.022 . S
N78 C75 1.351 . S
N78 N79 1.365 . S
N79 C76 1.341 . S
N79 N78 1.365 . S
N79 H99 0.862 . S
C80 C75 1.501 . S
C80 H81 0.961 . S
C80 H82 0.961 . S
C80 H83 0.960 . S
H81 C80 0.961 . S
H82 C80 0.961 . S
H83 C80 0.960 . S
C84 N85 1.342 . S
C84 C88 1.401 . S
C84 C89 1.499 . S
N85 Co68 1.989 . S
N85 C84 1.342 . S
N85 N86 1.388 . S
N86 Co69 1.993 . S
N86 N85 1.388 . S
N86 C87 1.346 . S
C87 N86 1.346 . S
C87 C88 1.396 . S
C87 C97 1.510 . S
C88 C84 1.401 . S
C88 C87 1.396 . S
C89 C84 1.499 . S
C89 H90 0.959 . S
C89 H91 0.960 . S
C89 H92 0.961 . S
H90 C89 0.959 . S
H91 C89 0.960 . S
H92 C89 0.961 . S
O93 Co68 1.967 . S
O93 C101 1.258 . S
O94 Co69 1.941 . S
O94 C101 1.266 . S
H95 C97 0.959 . S
H96 C97 0.961 . S
C97 C87 1.510 . S
C97 H95 0.959 . S
C97 H96 0.961 . S
C97 H98 0.960 . S
H98 C97 0.960 . S
H99 N79 0.862 . S
O100 Co68 1.920 . S
O100 C73 1.289 . S
C101 O93 1.258 . S
C101 O94 1.266 . S
Co102 O105 1.970 . S
Co102 N119 1.989 . S
Co102 O127 1.967 . S
Co102 O134 1.920 . S
Co103 O106 1.966 . S
Co103 N112 2.022 1_554 S
Co103 N120 1.993 . S
Co103 O128 1.941 . S
C104 O105 1.258 . S
C104 O106 1.263 . S
O105 Co102 1.970 . S
O105 C104 1.258 . S
O106 Co103 1.966 . S
O106 C104 1.263 . S
C107 O108 1.235 . S
C107 O134 1.289 . S
O108 C107 1.235 . S
C109 C111 1.400 . S
C109 N112 1.351 . S
C109 C114 1.501 . S
C110 C111 1.387 . S
C110 N113 1.341 . S
C111 C109 1.400 . S
C111 C110 1.387 . S
N112 Co103 2.022 1_556 S
N112 C109 1.351 . S
N112 N113 1.365 . S
N113 C110 1.341 . S
N113 N112 1.365 . S
N113 H133 0.862 . S
C114 C109 1.501 . S
C114 H115 0.961 . S
C114 H116 0.961 . S
C114 H117 0.960 . S
H115 C114 0.961 . S
H116 C114 0.961 . S
H117 C114 0.960 . S
C118 N119 1.342 . S
C118 C122 1.401 . S
C118 C123 1.499 . S
N119 Co102 1.989 . S
N119 C118 1.342 . S
N119 N120 1.388 . S
N120 Co103 1.993 . S
N120 N119 1.388 . S
N120 C121 1.346 . S
C121 N120 1.346 . S
C121 C122 1.396 . S
C121 C131 1.510 1_554 S
C122 C118 1.401 . S
C122 C121 1.396 . S
C123 C118 1.499 . S
C123 H124 0.959 . S
C123 H125 0.960 . S
C123 H126 0.961 . S
H124 C123 0.959 . S
H125 C123 0.960 . S
H126 C123 0.961 . S
O127 Co102 1.967 . S
O127 C135 1.258 . S
O128 Co103 1.941 . S
O128 C135 1.266 . S
H129 C131 0.959 . S
H130 C131 0.961 . S
C131 C121 1.510 1_556 S
C131 H129 0.959 . S
C131 H130 0.961 . S
C131 H132 0.960 . S
H132 C131 0.960 . S
H133 N113 0.862 . S
O134 Co102 1.920 . S
O134 C107 1.289 . S
C135 O127 1.258 . S
C135 O128 1.266 . S
Co136 O139 1.970 . S
Co136 N153 1.989 . S
Co136 O161 1.967 . S
Co136 O168 1.920 . S
Co137 O140 1.966 . S
Co137 N146 2.022 . S
Co137 N154 1.993 . S
Co137 O162 1.941 . S
C138 O139 1.258 . S
C138 O140 1.263 . S
O139 Co136 1.970 . S
O139 C138 1.258 . S
O140 Co137 1.966 . S
O140 C138 1.263 . S
C141 O142 1.235 . S
C141 O168 1.289 1_655 S
O142 C141 1.235 . S
C143 C145 1.400 . S
C143 N146 1.351 . S
C143 C148 1.501 . S
C144 C145 1.387 . S
C144 N147 1.341 . S
C145 C143 1.400 . S
C145 C144 1.387 . S
N146 Co137 2.022 . S
N146 C143 1.351 . S
N146 N147 1.365 . S
N147 C144 1.341 . S
N147 N146 1.365 . S
N147 H167 0.862 . S
C148 C143 1.501 . S
C148 H149 0.961 . S
C148 H150 0.961 . S
C148 H151 0.960 . S
H149 C148 0.961 . S
H150 C148 0.961 . S
H151 C148 0.960 . S
C152 N153 1.342 . S
C152 C156 1.401 . S
C152 C157 1.499 . S
N153 Co136 1.989 . S
N153 C152 1.342 . S
N153 N154 1.388 . S
N154 Co137 1.993 . S
N154 N153 1.388 . S
N154 C155 1.346 . S
C155 N154 1.346 . S
C155 C156 1.396 . S
C155 C165 1.510 . S
C156 C152 1.401 . S
C156 C155 1.396 . S
C157 C152 1.499 . S
C157 H158 0.959 . S
C157 H159 0.960 . S
C157 H160 0.961 . S
H158 C157 0.959 . S
H159 C157 0.960 . S
H160 C157 0.961 . S
O161 Co136 1.967 . S
O161 C169 1.258 . S
O162 Co137 1.941 . S
O162 C169 1.266 . S
H163 C165 0.959 . S
H164 C165 0.961 . S
C165 C155 1.510 . S
C165 H163 0.959 . S
C165 H164 0.961 . S
C165 H166 0.960 . S
H166 C165 0.960 . S
H167 N147 0.862 . S
O168 Co136 1.920 . S
O168 C141 1.289 1_455 S
C169 O161 1.258 . S
C169 O162 1.266 . S
Co170 O173 1.970 . S
Co170 N187 1.989 . S
Co170 O195 1.967 . S
Co170 O202 1.920 . S
Co171 O174 1.966 . S
Co171 N180 2.022 . S
Co171 N188 1.993 . S
Co171 O196 1.941 . S
C172 O173 1.258 . S
C172 O174 1.263 . S
O173 Co170 1.970 . S
O173 C172 1.258 . S
O174 Co171 1.966 . S
O174 C172 1.263 . S
C175 O176 1.235 . S
C175 O202 1.289 . S
O176 C175 1.235 . S
C177 C179 1.400 . S
C177 N180 1.351 . S
C177 C182 1.501 . S
C178 C179 1.387 . S
C178 N181 1.341 . S
C179 C177 1.400 . S
C179 C178 1.387 . S
N180 Co171 2.022 . S
N180 C177 1.351 . S
N180 N181 1.365 . S
N181 C178 1.341 . S
N181 N180 1.365 . S
N181 H201 0.862 . S
C182 C177 1.501 . S
C182 H183 0.961 . S
C182 H184 0.961 . S
C182 H185 0.960 . S
H183 C182 0.961 . S
H184 C182 0.961 . S
H185 C182 0.960 . S
C186 N187 1.342 . S
C186 C190 1.401 . S
C186 C191 1.499 . S
N187 Co170 1.989 . S
N187 C186 1.342 . S
N187 N188 1.388 . S
N188 Co171 1.993 . S
N188 N187 1.388 . S
N188 C189 1.346 . S
C189 N188 1.346 . S
C189 C190 1.396 . S
C189 C199 1.510 . S
C190 C186 1.401 . S
C190 C189 1.396 . S
C191 C186 1.499 . S
C191 H192 0.959 . S
C191 H193 0.960 . S
C191 H194 0.961 . S
H192 C191 0.959 . S
H193 C191 0.960 . S
H194 C191 0.961 . S
O195 Co170 1.967 . S
O195 C203 1.258 . S
O196 Co171 1.941 . S
O196 C203 1.266 . S
H197 C199 0.959 . S
H198 C199 0.961 . S
C199 C189 1.510 . S
C199 H197 0.959 . S
C199 H198 0.961 . S
C199 H200 0.960 . S
H200 C199 0.960 . S
H201 N181 0.862 . S
O202 Co170 1.920 . S
O202 C175 1.289 . S
C203 O195 1.258 . S
C203 O196 1.266 . S
Co204 O207 1.970 . S
Co204 N221 1.989 . S
Co204 O229 1.967 . S
Co204 O236 1.920 . S
Co205 O208 1.966 . S
Co205 N214 2.022 . S
Co205 N222 1.993 . S
Co205 O230 1.941 . S
C206 O207 1.258 . S
C206 O208 1.263 . S
O207 Co204 1.970 . S
O207 C206 1.258 . S
O208 Co205 1.966 . S
O208 C206 1.263 . S
C209 O210 1.235 . S
C209 O236 1.289 . S
O210 C209 1.235 . S
C211 C213 1.400 . S
C211 N214 1.351 . S
C211 C216 1.501 . S
C212 C213 1.387 . S
C212 N215 1.341 . S
C213 C211 1.400 . S
C213 C212 1.387 . S
N214 Co205 2.022 . S
N214 C211 1.351 . S
N214 N215 1.365 . S
N215 C212 1.341 . S
N215 N214 1.365 . S
N215 H235 0.862 . S
C216 C211 1.501 . S
C216 H217 0.961 . S
C216 H218 0.961 . S
C216 H219 0.960 . S
H217 C216 0.961 . S
H218 C216 0.961 . S
H219 C216 0.960 . S
C220 N221 1.342 . S
C220 C224 1.401 . S
C220 C225 1.499 . S
N221 Co204 1.989 . S
N221 C220 1.342 . S
N221 N222 1.388 . S
N222 Co205 1.993 . S
N222 N221 1.388 . S
N222 C223 1.346 . S
C223 N222 1.346 . S
C223 C224 1.396 . S
C223 C233 1.510 . S
C224 C220 1.401 . S
C224 C223 1.396 . S
C225 C220 1.499 . S
C225 H226 0.959 . S
C225 H227 0.960 . S
C225 H228 0.961 . S
H226 C225 0.959 . S
H227 C225 0.960 . S
H228 C225 0.961 . S
O229 Co204 1.967 . S
O229 C237 1.258 . S
O230 Co205 1.941 . S
O230 C237 1.266 . S
H231 C233 0.959 . S
H232 C233 0.961 . S
C233 C223 1.510 . S
C233 H231 0.959 . S
C233 H232 0.961 . S
C233 H234 0.960 . S
H234 C233 0.960 . S
H235 N215 0.862 . S
O236 Co204 1.920 . S
O236 C209 1.289 . S
C237 O229 1.258 . S
C237 O230 1.266 . S
Co238 O241 1.970 . S
Co238 N255 1.989 . S
Co238 O263 1.967 . S
Co238 O270 1.920 . S
Co239 O242 1.966 . S
Co239 N248 2.022 1_556 S
Co239 N256 1.993 . S
Co239 O264 1.941 . S
C240 O241 1.258 . S
C240 O242 1.263 . S
O241 Co238 1.970 . S
O241 C240 1.258 . S
O242 Co239 1.966 . S
O242 C240 1.263 . S
C243 O244 1.235 . S
C243 O270 1.289 . S
O244 C243 1.235 . S
C245 C247 1.400 . S
C245 N248 1.351 . S
C245 C250 1.501 . S
C246 C247 1.387 . S
C246 N249 1.341 . S
C247 C245 1.400 . S
C247 C246 1.387 . S
N248 Co239 2.022 1_554 S
N248 C245 1.351 . S
N248 N249 1.365 . S
N249 C246 1.341 . S
N249 N248 1.365 . S
N249 H269 0.862 . S
C250 C245 1.501 . S
C250 H251 0.961 . S
C250 H252 0.961 . S
C250 H253 0.960 . S
H251 C250 0.961 . S
H252 C250 0.961 . S
H253 C250 0.960 . S
C254 N255 1.342 . S
C254 C258 1.401 . S
C254 C259 1.499 . S
N255 Co238 1.989 . S
N255 C254 1.342 . S
N255 N256 1.388 . S
N256 Co239 1.993 . S
N256 N255 1.388 . S
N256 C257 1.346 . S
C257 N256 1.346 . S
C257 C258 1.396 . S
C257 C267 1.510 1_556 S
C258 C254 1.401 . S
C258 C257 1.396 . S
C259 C254 1.499 . S
C259 H260 0.959 . S
C259 H261 0.960 . S
C259 H262 0.961 . S
H260 C259 0.959 . S
H261 C259 0.960 . S
H262 C259 0.961 . S
O263 Co238 1.967 . S
O263 C271 1.258 . S
O264 Co239 1.941 . S
O264 C271 1.266 . S
H265 C267 0.959 . S
H266 C267 0.961 . S
C267 C257 1.510 1_554 S
C267 H265 0.959 . S
C267 H266 0.961 . S
C267 H268 0.960 . S
H268 C267 0.960 . S
H269 N249 0.862 . S
O270 Co238 1.920 . S
O270 C243 1.289 . S
C271 O263 1.258 . S
C271 O264 1.266 . S
Co272 O275 1.970 . S
Co272 N289 1.989 . S
Co272 O297 1.967 . S
Co272 O304 1.920 . S
Co273 O276 1.966 . S
Co273 N282 2.022 . S
Co273 N290 1.993 . S
Co273 O298 1.941 . S
C274 O275 1.258 . S
C274 O276 1.263 . S
O275 Co272 1.970 . S
O275 C274 1.258 . S
O276 Co273 1.966 . S
O276 C274 1.263 . S
C277 O278 1.235 . S
C277 O304 1.289 . S
O278 C277 1.235 . S
C279 C281 1.400 . S
C279 N282 1.351 . S
C279 C284 1.501 . S
C280 C281 1.387 . S
C280 N283 1.341 . S
C281 C279 1.400 . S
C281 C280 1.387 . S
N282 Co273 2.022 . S
N282 C279 1.351 . S
N282 N283 1.365 . S
N283 C280 1.341 . S
N283 N282 1.365 . S
N283 H303 0.862 . S
C284 C279 1.501 . S
C284 H285 0.961 . S
C284 H286 0.961 . S
C284 H287 0.960 . S
H285 C284 0.961 . S
H286 C284 0.961 . S
H287 C284 0.960 . S
C288 N289 1.342 . S
C288 C292 1.401 . S
C288 C293 1.499 . S
N289 Co272 1.989 . S
N289 C288 1.342 . S
N289 N290 1.388 . S
N290 Co273 1.993 . S
N290 N289 1.388 . S
N290 C291 1.346 . S
C291 N290 1.346 . S
C291 C292 1.396 . S
C291 C301 1.510 . S
C292 C288 1.401 . S
C292 C291 1.396 . S
C293 C288 1.499 . S
C293 H294 0.959 . S
C293 H295 0.960 . S
C293 H296 0.961 . S
H294 C293 0.959 . S
H295 C293 0.960 . S
H296 C293 0.961 . S
O297 Co272 1.967 . S
O297 C305 1.258 . S
O298 Co273 1.941 . S
O298 C305 1.266 . S
H299 C301 0.959 . S
H300 C301 0.961 . S
C301 C291 1.510 . S
C301 H299 0.959 . S
C301 H300 0.961 . S
C301 H302 0.960 . S
H302 C301 0.960 . S
H303 N283 0.862 . S
O304 Co272 1.920 . S
O304 C277 1.289 . S
C305 O297 1.258 . S
C305 O298 1.266 . S
Co306 O309 1.970 . S
Co306 N323 1.989 . S
Co306 O331 1.967 . S
Co306 O338 1.920 . S
Co307 O310 1.966 . S
Co307 N316 2.022 . S
Co307 N324 1.993 . S
Co307 O332 1.941 . S
C308 O309 1.258 . S
C308 O310 1.263 . S
O309 Co306 1.970 . S
O309 C308 1.258 . S
O310 Co307 1.966 . S
O310 C308 1.263 . S
C311 O312 1.235 . S
C311 O338 1.289 . S
O312 C311 1.235 . S
C313 C315 1.400 . S
C313 N316 1.351 . S
C313 C318 1.501 . S
C314 C315 1.387 . S
C314 N317 1.341 . S
C315 C313 1.400 . S
C315 C314 1.387 . S
N316 Co307 2.022 . S
N316 C313 1.351 . S
N316 N317 1.365 . S
N317 C314 1.341 . S
N317 N316 1.365 . S
N317 H337 0.862 . S
C318 C313 1.501 . S
C318 H319 0.961 . S
C318 H320 0.961 . S
C318 H321 0.960 . S
H319 C318 0.961 . S
H320 C318 0.961 . S
H321 C318 0.960 . S
C322 N323 1.342 . S
C322 C326 1.401 . S
C322 C327 1.499 . S
N323 Co306 1.989 . S
N323 C322 1.342 . S
N323 N324 1.388 . S
N324 Co307 1.993 . S
N324 N323 1.388 . S
N324 C325 1.346 . S
C325 N324 1.346 . S
C325 C326 1.396 . S
C325 C335 1.510 . S
C326 C322 1.401 . S
C326 C325 1.396 . S
C327 C322 1.499 . S
C327 H328 0.959 . S
C327 H329 0.960 . S
C327 H330 0.961 . S
H328 C327 0.959 . S
H329 C327 0.960 . S
H330 C327 0.961 . S
O331 Co306 1.967 . S
O331 C339 1.258 . S
O332 Co307 1.941 . S
O332 C339 1.266 . S
H333 C335 0.959 . S
H334 C335 0.961 . S
C335 C325 1.510 . S
C335 H333 0.959 . S
C335 H334 0.961 . S
C335 H336 0.960 . S
H336 C335 0.960 . S
H337 N317 0.862 . S
O338 Co306 1.920 . S
O338 C311 1.289 . S
C339 O331 1.258 . S
C339 O332 1.266 . S
Co340 O343 1.970 . S
Co340 N357 1.989 . S
Co340 O365 1.967 . S
Co340 O372 1.920 . S
Co341 O344 1.966 . S
Co341 N350 2.022 . S
Co341 N358 1.993 . S
Co341 O366 1.941 . S
C342 O343 1.258 . S
C342 O344 1.263 . S
O343 Co340 1.970 . S
O343 C342 1.258 . S
O344 Co341 1.966 . S
O344 C342 1.263 . S
C345 O346 1.235 . S
C345 O372 1.289 . S
O346 C345 1.235 . S
C347 C349 1.400 . S
C347 N350 1.351 . S
C347 C352 1.501 . S
C348 C349 1.387 . S
C348 N351 1.341 . S
C349 C347 1.400 . S
C349 C348 1.387 . S
N350 Co341 2.022 . S
N350 C347 1.351 . S
N350 N351 1.365 . S
N351 C348 1.341 . S
N351 N350 1.365 . S
N351 H371 0.862 . S
C352 C347 1.501 . S
C352 H353 0.961 . S
C352 H354 0.961 . S
C352 H355 0.960 . S
H353 C352 0.961 . S
H354 C352 0.961 . S
H355 C352 0.960 . S
C356 N357 1.342 . S
C356 C360 1.401 . S
C356 C361 1.499 . S
N357 Co340 1.989 . S
N357 C356 1.342 . S
N357 N358 1.388 . S
N358 Co341 1.993 . S
N358 N357 1.388 . S
N358 C359 1.346 . S
C359 N358 1.346 . S
C359 C360 1.396 . S
C359 C369 1.510 . S
C360 C356 1.401 . S
C360 C359 1.396 . S
C361 C356 1.499 . S
C361 H362 0.959 . S
C361 H363 0.960 . S
C361 H364 0.961 . S
H362 C361 0.959 . S
H363 C361 0.960 . S
H364 C361 0.961 . S
O365 Co340 1.967 . S
O365 C373 1.258 . S
O366 Co341 1.941 . S
O366 C373 1.266 . S
H367 C369 0.959 . S
H368 C369 0.961 . S
C369 C359 1.510 . S
C369 H367 0.959 . S
C369 H368 0.961 . S
C369 H370 0.960 . S
H370 C369 0.960 . S
H371 N351 0.862 . S
O372 Co340 1.920 . S
O372 C345 1.289 . S
C373 O365 1.258 . S
C373 O366 1.266 . S
Co374 O377 1.970 . S
Co374 N391 1.989 1_556 S
Co374 O399 1.967 . S
Co374 O406 1.920 . S
Co375 O378 1.966 . S
Co375 N384 2.022 . S
Co375 N392 1.993 1_556 S
Co375 O400 1.941 . S
C376 O377 1.258 . S
C376 O378 1.263 . S
O377 Co374 1.970 . S
O377 C376 1.258 . S
O378 Co375 1.966 . S
O378 C376 1.263 . S
C379 O380 1.235 1_556 S
C379 O406 1.289 . S
O380 C379 1.235 1_554 S
C381 C383 1.400 . S
C381 N384 1.351 . S
C381 C386 1.501 . S
C382 C383 1.387 . S
C382 N385 1.341 . S
C383 C381 1.400 . S
C383 C382 1.387 . S
N384 Co375 2.022 . S
N384 C381 1.351 . S
N384 N385 1.365 . S
N385 C382 1.341 . S
N385 N384 1.365 . S
N385 H405 0.862 . S
C386 C381 1.501 . S
C386 H387 0.961 . S
C386 H388 0.961 . S
C386 H389 0.960 . S
H387 C386 0.961 . S
H388 C386 0.961 . S
H389 C386 0.960 . S
C390 N391 1.342 . S
C390 C394 1.401 . S
C390 C395 1.499 . S
N391 Co374 1.989 1_554 S
N391 C390 1.342 . S
N391 N392 1.388 . S
N392 Co375 1.993 1_554 S
N392 N391 1.388 . S
N392 C393 1.346 . S
C393 N392 1.346 . S
C393 C394 1.396 . S
C393 C403 1.510 . S
C394 C390 1.401 . S
C394 C393 1.396 . S
C395 C390 1.499 . S
C395 H396 0.959 . S
C395 H397 0.960 . S
C395 H398 0.961 . S
H396 C395 0.959 . S
H397 C395 0.960 . S
H398 C395 0.961 . S
O399 Co374 1.967 . S
O399 C407 1.258 . S
O400 Co375 1.941 . S
O400 C407 1.266 . S
H401 C403 0.959 . S
H402 C403 0.961 . S
C403 C393 1.510 . S
C403 H401 0.959 . S
C403 H402 0.961 . S
C403 H404 0.960 . S
H404 C403 0.960 . S
H405 N385 0.862 . S
O406 Co374 1.920 . S
O406 C379 1.289 . S
C407 O399 1.258 . S
C407 O400 1.266 . S
Co408 O411 1.970 . S
Co408 N425 1.989 . S
Co408 O433 1.967 . S
Co408 O440 1.920 . S
Co409 O412 1.966 . S
Co409 N418 2.022 . S
Co409 N426 1.993 . S
Co409 O434 1.941 . S
C410 O411 1.258 . S
C410 O412 1.263 . S
O411 Co408 1.970 . S
O411 C410 1.258 . S
O412 Co409 1.966 . S
O412 C410 1.263 . S
C413 O414 1.235 . S
C413 O440 1.289 . S
O414 C413 1.235 . S
C415 C417 1.400 . S
C415 N418 1.351 . S
C415 C420 1.501 . S
C416 C417 1.387 . S
C416 N419 1.341 . S
C417 C415 1.400 . S
C417 C416 1.387 . S
N418 Co409 2.022 . S
N418 C415 1.351 . S
N418 N419 1.365 . S
N419 C416 1.341 . S
N419 N418 1.365 . S
N419 H439 0.862 . S
C420 C415 1.501 . S
C420 H421 0.961 . S
C420 H422 0.961 . S
C420 H423 0.960 . S
H421 C420 0.961 . S
H422 C420 0.961 . S
H423 C420 0.960 . S
C424 N425 1.342 . S
C424 C428 1.401 . S
C424 C429 1.499 . S
N425 Co408 1.989 . S
N425 C424 1.342 . S
N425 N426 1.388 . S
N426 Co409 1.993 . S
N426 N425 1.388 . S
N426 C427 1.346 . S
C427 N426 1.346 . S
C427 C428 1.396 . S
C427 C437 1.510 . S
C428 C424 1.401 . S
C428 C427 1.396 . S
C429 C424 1.499 . S
C429 H430 0.959 . S
C429 H431 0.960 . S
C429 H432 0.961 . S
H430 C429 0.959 . S
H431 C429 0.960 . S
H432 C429 0.961 . S
O433 Co408 1.967 . S
O433 C441 1.258 . S
O434 Co409 1.941 . S
O434 C441 1.266 . S
H435 C437 0.959 . S
H436 C437 0.961 . S
C437 C427 1.510 . S
C437 H435 0.959 . S
C437 H436 0.961 . S
C437 H438 0.960 . S
H438 C437 0.960 . S
H439 N419 0.862 . S
O440 Co408 1.920 . S
O440 C413 1.289 . S
C441 O433 1.258 . S
C441 O434 1.266 . S
Co442 O445 1.970 . S
Co442 N459 1.989 . S
Co442 O467 1.967 . S
Co442 O474 1.920 . S
Co443 O446 1.966 . S
Co443 N452 2.022 . S
Co443 N460 1.993 . S
Co443 O468 1.941 . S
C444 O445 1.258 . S
C444 O446 1.263 . S
O445 Co442 1.970 . S
O445 C444 1.258 . S
O446 Co443 1.966 . S
O446 C444 1.263 . S
C447 O448 1.235 . S
C447 O474 1.289 . S
O448 C447 1.235 . S
C449 C451 1.400 . S
C449 N452 1.351 . S
C449 C454 1.501 . S
C450 C451 1.387 . S
C450 N453 1.341 . S
C451 C449 1.400 . S
C451 C450 1.387 . S
N452 Co443 2.022 . S
N452 C449 1.351 . S
N452 N453 1.365 . S
N453 C450 1.341 . S
N453 N452 1.365 . S
N453 H473 0.862 . S
C454 C449 1.501 . S
C454 H455 0.961 . S
C454 H456 0.961 . S
C454 H457 0.960 . S
H455 C454 0.961 . S
H456 C454 0.961 . S
H457 C454 0.960 . S
C458 N459 1.342 . S
C458 C462 1.401 . S
C458 C463 1.499 . S
N459 Co442 1.989 . S
N459 C458 1.342 . S
N459 N460 1.388 . S
N460 Co443 1.993 . S
N460 N459 1.388 . S
N460 C461 1.346 . S
C461 N460 1.346 . S
C461 C462 1.396 . S
C461 C471 1.510 . S
C462 C458 1.401 . S
C462 C461 1.396 . S
C463 C458 1.499 . S
C463 H464 0.959 . S
C463 H465 0.960 . S
C463 H466 0.961 . S
H464 C463 0.959 . S
H465 C463 0.960 . S
H466 C463 0.961 . S
O467 Co442 1.967 . S
O467 C475 1.258 . S
O468 Co443 1.941 . S
O468 C475 1.266 . S
H469 C471 0.959 . S
H470 C471 0.961 . S
C471 C461 1.510 . S
C471 H469 0.959 . S
C471 H470 0.961 . S
C471 H472 0.960 . S
H472 C471 0.960 . S
H473 N453 0.862 . S
O474 Co442 1.920 . S
O474 C447 1.289 . S
C475 O467 1.258 . S
C475 O468 1.266 . S
Co476 O479 1.970 . S
Co476 N493 1.989 . S
Co476 O501 1.967 . S
Co476 O508 1.920 . S
Co477 O480 1.966 . S
Co477 N486 2.022 . S
Co477 N494 1.993 . S
Co477 O502 1.941 . S
C478 O479 1.258 . S
C478 O480 1.263 . S
O479 Co476 1.970 . S
O479 C478 1.258 . S
O480 Co477 1.966 . S
O480 C478 1.263 . S
C481 O482 1.235 . S
C481 O508 1.289 . S
O482 C481 1.235 . S
C483 C485 1.400 . S
C483 N486 1.351 . S
C483 C488 1.501 . S
C484 C485 1.387 . S
C484 N487 1.341 . S
C485 C483 1.400 . S
C485 C484 1.387 . S
N486 Co477 2.022 . S
N486 C483 1.351 . S
N486 N487 1.365 . S
N487 C484 1.341 . S
N487 N486 1.365 . S
N487 H507 0.862 . S
C488 C483 1.501 . S
C488 H489 0.961 . S
C488 H490 0.961 . S
C488 H491 0.960 . S
H489 C488 0.961 . S
H490 C488 0.961 . S
H491 C488 0.960 . S
C492 N493 1.342 . S
C492 C496 1.401 . S
C492 C497 1.499 . S
N493 Co476 1.989 . S
N493 C492 1.342 . S
N493 N494 1.388 . S
N494 Co477 1.993 . S
N494 N493 1.388 . S
N494 C495 1.346 . S
C495 N494 1.346 . S
C495 C496 1.396 . S
C495 C505 1.510 . S
C496 C492 1.401 . S
C496 C495 1.396 . S
C497 C492 1.499 . S
C497 H498 0.959 . S
C497 H499 0.960 . S
C497 H500 0.961 . S
H498 C497 0.959 . S
H499 C497 0.960 . S
H500 C497 0.961 . S
O501 Co476 1.967 . S
O501 C509 1.258 . S
O502 Co477 1.941 . S
O502 C509 1.266 . S
H503 C505 0.959 . S
H504 C505 0.961 . S
C505 C495 1.510 . S
C505 H503 0.959 . S
C505 H504 0.961 . S
C505 H506 0.960 . S
H506 C505 0.960 . S
H507 N487 0.862 . S
O508 Co476 1.920 . S
O508 C481 1.289 . S
C509 O501 1.258 . S
C509 O502 1.266 . S
Co510 O513 1.970 . S
Co510 N527 1.989 1_554 S
Co510 O535 1.967 . S
Co510 O542 1.920 . S
Co511 O514 1.966 . S
Co511 N520 2.022 . S
Co511 N528 1.993 1_554 S
Co511 O536 1.941 . S
C512 O513 1.258 . S
C512 O514 1.263 . S
O513 Co510 1.970 . S
O513 C512 1.258 . S
O514 Co511 1.966 . S
O514 C512 1.263 . S
C515 O516 1.235 1_554 S
C515 O542 1.289 . S
O516 C515 1.235 1_556 S
C517 C519 1.400 . S
C517 N520 1.351 . S
C517 C522 1.501 . S
C518 C519 1.387 . S
C518 N521 1.341 . S
C519 C517 1.400 . S
C519 C518 1.387 . S
N520 Co511 2.022 . S
N520 C517 1.351 . S
N520 N521 1.365 . S
N521 C518 1.341 . S
N521 N520 1.365 . S
N521 H541 0.862 . S
C522 C517 1.501 . S
C522 H523 0.961 . S
C522 H524 0.961 . S
C522 H525 0.960 . S
H523 C522 0.961 . S
H524 C522 0.961 . S
H525 C522 0.960 . S
C526 N527 1.342 . S
C526 C530 1.401 . S
C526 C531 1.499 . S
N527 Co510 1.989 1_556 S
N527 C526 1.342 . S
N527 N528 1.388 . S
N528 Co511 1.993 1_556 S
N528 N527 1.388 . S
N528 C529 1.346 . S
C529 N528 1.346 . S
C529 C530 1.396 . S
C529 C539 1.510 . S
C530 C526 1.401 . S
C530 C529 1.396 . S
C531 C526 1.499 . S
C531 H532 0.959 . S
C531 H533 0.960 . S
C531 H534 0.961 . S
H532 C531 0.959 . S
H533 C531 0.960 . S
H534 C531 0.961 . S
O535 Co510 1.967 . S
O535 C543 1.258 . S
O536 Co511 1.941 . S
O536 C543 1.266 . S
H537 C539 0.959 . S
H538 C539 0.961 . S
C539 C529 1.510 . S
C539 H537 0.959 . S
C539 H538 0.961 . S
C539 H540 0.960 . S
H540 C539 0.960 . S
H541 N521 0.862 . S
O542 Co510 1.920 . S
O542 C515 1.289 . S
C543 O535 1.258 . S
C543 O536 1.266 . S
Co544 O547 1.970 . S
Co544 N561 1.989 . S
Co544 O569 1.967 . S
Co544 O576 1.920 . S
Co545 O548 1.966 . S
Co545 N554 2.022 . S
Co545 N562 1.993 . S
Co545 O570 1.941 . S
C546 O547 1.258 . S
C546 O548 1.263 . S
O547 Co544 1.970 . S
O547 C546 1.258 . S
O548 Co545 1.966 . S
O548 C546 1.263 . S
C549 O550 1.235 . S
C549 O576 1.289 . S
O550 C549 1.235 . S
C551 C553 1.400 . S
C551 N554 1.351 . S
C551 C556 1.501 . S
C552 C553 1.387 . S
C552 N555 1.341 . S
C553 C551 1.400 . S
C553 C552 1.387 . S
N554 Co545 2.022 . S
N554 C551 1.351 . S
N554 N555 1.365 . S
N555 C552 1.341 . S
N555 N554 1.365 . S
N555 H575 0.862 . S
C556 C551 1.501 . S
C556 H557 0.961 . S
C556 H558 0.961 . S
C556 H559 0.960 . S
H557 C556 0.961 . S
H558 C556 0.961 . S
H559 C556 0.960 . S
C560 N561 1.342 . S
C560 C564 1.401 . S
C560 C565 1.499 . S
N561 Co544 1.989 . S
N561 C560 1.342 . S
N561 N562 1.388 . S
N562 Co545 1.993 . S
N562 N561 1.388 . S
N562 C563 1.346 . S
C563 N562 1.346 . S
C563 C564 1.396 . S
C563 C573 1.510 . S
C564 C560 1.401 . S
C564 C563 1.396 . S
C565 C560 1.499 . S
C565 H566 0.959 . S
C565 H567 0.960 . S
C565 H568 0.961 . S
H566 C565 0.959 . S
H567 C565 0.960 . S
H568 C565 0.961 . S
O569 Co544 1.967 . S
O569 C577 1.258 . S
O570 Co545 1.941 . S
O570 C577 1.266 . S
H571 C573 0.959 . S
H572 C573 0.961 . S
C573 C563 1.510 . S
C573 H571 0.959 . S
C573 H572 0.961 . S
C573 H574 0.960 . S
H574 C573 0.960 . S
H575 N555 0.862 . S
O576 Co544 1.920 . S
O576 C549 1.289 . S
C577 O569 1.258 . S
C577 O570 1.266 . S
Co578 O581 1.970 . S
Co578 N595 1.989 . S
Co578 O603 1.967 . S
Co578 O610 1.920 . S
Co579 O582 1.966 . S
Co579 N588 2.022 1_554 S
Co579 N596 1.993 . S
Co579 O604 1.941 . S
C580 O581 1.258 . S
C580 O582 1.263 . S
O581 Co578 1.970 . S
O581 C580 1.258 . S
O582 Co579 1.966 . S
O582 C580 1.263 . S
C583 O584 1.235 . S
C583 O610 1.289 . S
O584 C583 1.235 . S
C585 C587 1.400 . S
C585 N588 1.351 . S
C585 C590 1.501 . S
C586 C587 1.387 . S
C586 N589 1.341 . S
C587 C585 1.400 . S
C587 C586 1.387 . S
N588 Co579 2.022 1_556 S
N588 C585 1.351 . S
N588 N589 1.365 . S
N589 C586 1.341 . S
N589 N588 1.365 . S
N589 H609 0.862 . S
C590 C585 1.501 . S
C590 H591 0.961 . S
C590 H592 0.961 . S
C590 H593 0.960 . S
H591 C590 0.961 . S
H592 C590 0.961 . S
H593 C590 0.960 . S
C594 N595 1.342 . S
C594 C598 1.401 . S
C594 C599 1.499 . S
N595 Co578 1.989 . S
N595 C594 1.342 . S
N595 N596 1.388 . S
N596 Co579 1.993 . S
N596 N595 1.388 . S
N596 C597 1.346 . S
C597 N596 1.346 . S
C597 C598 1.396 . S
C597 C607 1.510 1_554 S
C598 C594 1.401 . S
C598 C597 1.396 . S
C599 C594 1.499 . S
C599 H600 0.959 . S
C599 H601 0.960 . S
C599 H602 0.961 . S
H600 C599 0.959 . S
H601 C599 0.960 . S
H602 C599 0.961 . S
O603 Co578 1.967 . S
O603 C611 1.258 . S
O604 Co579 1.941 . S
O604 C611 1.266 . S
H605 C607 0.959 . S
H606 C607 0.961 . S
C607 C597 1.510 1_556 S
C607 H605 0.959 . S
C607 H606 0.961 . S
C607 H608 0.960 . S
H608 C607 0.960 . S
H609 N589 0.862 . S
O610 Co578 1.920 . S
O610 C583 1.289 . S
C611 O603 1.258 . S
C611 O604 1.266 . S
Co612 O615 1.970 . S
Co612 N629 1.989 . S
Co612 O637 1.967 . S
Co612 O644 1.920 . S
Co613 O616 1.966 . S
Co613 N622 2.022 . S
Co613 N630 1.993 . S
Co613 O638 1.941 . S
C614 O615 1.258 . S
C614 O616 1.263 . S
O615 Co612 1.970 . S
O615 C614 1.258 . S
O616 Co613 1.966 . S
O616 C614 1.263 . S
C617 O618 1.235 . S
C617 O644 1.289 1_455 S
O618 C617 1.235 . S
C619 C621 1.400 . S
C619 N622 1.351 . S
C619 C624 1.501 . S
C620 C621 1.387 . S
C620 N623 1.341 . S
C621 C619 1.400 . S
C621 C620 1.387 . S
N622 Co613 2.022 . S
N622 C619 1.351 . S
N622 N623 1.365 . S
N623 C620 1.341 . S
N623 N622 1.365 . S
N623 H643 0.862 . S
C624 C619 1.501 . S
C624 H625 0.961 . S
C624 H626 0.961 . S
C624 H627 0.960 . S
H625 C624 0.961 . S
H626 C624 0.961 . S
H627 C624 0.960 . S
C628 N629 1.342 . S
C628 C632 1.401 . S
C628 C633 1.499 . S
N629 Co612 1.989 . S
N629 C628 1.342 . S
N629 N630 1.388 . S
N630 Co613 1.993 . S
N630 N629 1.388 . S
N630 C631 1.346 . S
C631 N630 1.346 . S
C631 C632 1.396 . S
C631 C641 1.510 . S
C632 C628 1.401 . S
C632 C631 1.396 . S
C633 C628 1.499 . S
C633 H634 0.959 . S
C633 H635 0.960 . S
C633 H636 0.961 . S
H634 C633 0.959 . S
H635 C633 0.960 . S
H636 C633 0.961 . S
O637 Co612 1.967 . S
O637 C645 1.258 . S
O638 Co613 1.941 . S
O638 C645 1.266 . S
H639 C641 0.959 . S
H640 C641 0.961 . S
C641 C631 1.510 . S
C641 H639 0.959 . S
C641 H640 0.961 . S
C641 H642 0.960 . S
H642 C641 0.960 . S
H643 N623 0.862 . S
O644 Co612 1.920 . S
O644 C617 1.289 1_655 S
C645 O637 1.258 . S
C645 O638 1.266 . S
Co646 O649 1.970 . S
Co646 N663 1.989 . S
Co646 O671 1.967 . S
Co646 O678 1.920 . S
Co647 O650 1.966 . S
Co647 N656 2.022 . S
Co647 N664 1.993 . S
Co647 O672 1.941 . S
C648 O649 1.258 . S
C648 O650 1.263 . S
O649 Co646 1.970 . S
O649 C648 1.258 . S
O650 Co647 1.966 . S
O650 C648 1.263 . S
C651 O652 1.235 . S
C651 O678 1.289 . S
O652 C651 1.235 . S
C653 C655 1.400 . S
C653 N656 1.351 . S
C653 C658 1.501 . S
C654 C655 1.387 . S
C654 N657 1.341 . S
C655 C653 1.400 . S
C655 C654 1.387 . S
N656 Co647 2.022 . S
N656 C653 1.351 . S
N656 N657 1.365 . S
N657 C654 1.341 . S
N657 N656 1.365 . S
N657 H677 0.862 . S
C658 C653 1.501 . S
C658 H659 0.961 . S
C658 H660 0.961 . S
C658 H661 0.960 . S
H659 C658 0.961 . S
H660 C658 0.961 . S
H661 C658 0.960 . S
C662 N663 1.342 . S
C662 C666 1.401 . S
C662 C667 1.499 . S
N663 Co646 1.989 . S
N663 C662 1.342 . S
N663 N664 1.388 . S
N664 Co647 1.993 . S
N664 N663 1.388 . S
N664 C665 1.346 . S
C665 N664 1.346 . S
C665 C666 1.396 . S
C665 C675 1.510 . S
C666 C662 1.401 . S
C666 C665 1.396 . S
C667 C662 1.499 . S
C667 H668 0.959 . S
C667 H669 0.960 . S
C667 H670 0.961 . S
H668 C667 0.959 . S
H669 C667 0.960 . S
H670 C667 0.961 . S
O671 Co646 1.967 . S
O671 C679 1.258 . S
O672 Co647 1.941 . S
O672 C679 1.266 . S
H673 C675 0.959 . S
H674 C675 0.961 . S
C675 C665 1.510 . S
C675 H673 0.959 . S
C675 H674 0.961 . S
C675 H676 0.960 . S
H676 C675 0.960 . S
H677 N657 0.862 . S
O678 Co646 1.920 . S
O678 C651 1.289 . S
C679 O671 1.258 . S
C679 O672 1.266 . S
Co680 O683 1.970 . S
Co680 N697 1.989 . S
Co680 O705 1.967 . S
Co680 O712 1.920 . S
Co681 O684 1.966 . S
Co681 N690 2.022 . S
Co681 N698 1.993 . S
Co681 O706 1.941 . S
C682 O683 1.258 . S
C682 O684 1.263 . S
O683 Co680 1.970 . S
O683 C682 1.258 . S
O684 Co681 1.966 . S
O684 C682 1.263 . S
C685 O686 1.235 . S
C685 O712 1.289 . S
O686 C685 1.235 . S
C687 C689 1.400 . S
C687 N690 1.351 . S
C687 C692 1.501 . S
C688 C689 1.387 . S
C688 N691 1.341 . S
C689 C687 1.400 . S
C689 C688 1.387 . S
N690 Co681 2.022 . S
N690 C687 1.351 . S
N690 N691 1.365 . S
N691 C688 1.341 . S
N691 N690 1.365 . S
N691 H711 0.862 . S
C692 C687 1.501 . S
C692 H693 0.961 . S
C692 H694 0.961 . S
C692 H695 0.960 . S
H693 C692 0.961 . S
H694 C692 0.961 . S
H695 C692 0.960 . S
C696 N697 1.342 . S
C696 C700 1.401 . S
C696 C701 1.499 . S
N697 Co680 1.989 . S
N697 C696 1.342 . S
N697 N698 1.388 . S
N698 Co681 1.993 . S
N698 N697 1.388 . S
N698 C699 1.346 . S
C699 N698 1.346 . S
C699 C700 1.396 . S
C699 C709 1.510 . S
C700 C696 1.401 . S
C700 C699 1.396 . S
C701 C696 1.499 . S
C701 H702 0.959 . S
C701 H703 0.960 . S
C701 H704 0.961 . S
H702 C701 0.959 . S
H703 C701 0.960 . S
H704 C701 0.961 . S
O705 Co680 1.967 . S
O705 C713 1.258 . S
O706 Co681 1.941 . S
O706 C713 1.266 . S
H707 C709 0.959 . S
H708 C709 0.961 . S
C709 C699 1.510 . S
C709 H707 0.959 . S
C709 H708 0.961 . S
C709 H710 0.960 . S
H710 C709 0.960 . S
H711 N691 0.862 . S
O712 Co680 1.920 . S
O712 C685 1.289 . S
C713 O705 1.258 . S
C713 O706 1.266 . S
Co714 O717 1.970 . S
Co714 N731 1.989 . S
Co714 O739 1.967 . S
Co714 O746 1.920 . S
Co715 O718 1.966 . S
Co715 N724 2.022 1_556 S
Co715 N732 1.993 . S
Co715 O740 1.941 . S
C716 O717 1.258 . S
C716 O718 1.263 . S
O717 Co714 1.970 . S
O717 C716 1.258 . S
O718 Co715 1.966 . S
O718 C716 1.263 . S
C719 O720 1.235 . S
C719 O746 1.289 . S
O720 C719 1.235 . S
C721 C723 1.400 . S
C721 N724 1.351 . S
C721 C726 1.501 . S
C722 C723 1.387 . S
C722 N725 1.341 . S
C723 C721 1.400 . S
C723 C722 1.387 . S
N724 Co715 2.022 1_554 S
N724 C721 1.351 . S
N724 N725 1.365 . S
N725 C722 1.341 . S
N725 N724 1.365 . S
N725 H745 0.862 . S
C726 C721 1.501 . S
C726 H727 0.961 . S
C726 H728 0.961 . S
C726 H729 0.960 . S
H727 C726 0.961 . S
H728 C726 0.961 . S
H729 C726 0.960 . S
C730 N731 1.342 . S
C730 C734 1.401 . S
C730 C735 1.499 . S
N731 Co714 1.989 . S
N731 C730 1.342 . S
N731 N732 1.388 . S
N732 Co715 1.993 . S
N732 N731 1.388 . S
N732 C733 1.346 . S
C733 N732 1.346 . S
C733 C734 1.396 . S
C733 C743 1.510 1_556 S
C734 C730 1.401 . S
C734 C733 1.396 . S
C735 C730 1.499 . S
C735 H736 0.959 . S
C735 H737 0.960 . S
C735 H738 0.961 . S
H736 C735 0.959 . S
H737 C735 0.960 . S
H738 C735 0.961 . S
O739 Co714 1.967 . S
O739 C747 1.258 . S
O740 Co715 1.941 . S
O740 C747 1.266 . S
H741 C743 0.959 . S
H742 C743 0.961 . S
C743 C733 1.510 1_554 S
C743 H741 0.959 . S
C743 H742 0.961 . S
C743 H744 0.960 . S
H744 C743 0.960 . S
H745 N725 0.862 . S
O746 Co714 1.920 . S
O746 C719 1.289 . S
C747 O739 1.258 . S
C747 O740 1.266 . S
Co748 O751 1.970 . S
Co748 N765 1.989 . S
Co748 O773 1.967 . S
Co748 O780 1.920 . S
Co749 O752 1.966 . S
Co749 N758 2.022 . S
Co749 N766 1.993 . S
Co749 O774 1.941 . S
C750 O751 1.258 . S
C750 O752 1.263 . S
O751 Co748 1.970 . S
O751 C750 1.258 . S
O752 Co749 1.966 . S
O752 C750 1.263 . S
C753 O754 1.235 . S
C753 O780 1.289 1_455 S
O754 C753 1.235 . S
C755 C757 1.400 . S
C755 N758 1.351 . S
C755 C760 1.501 . S
C756 C757 1.387 . S
C756 N759 1.341 . S
C757 C755 1.400 . S
C757 C756 1.387 . S
N758 Co749 2.022 . S
N758 C755 1.351 . S
N758 N759 1.365 . S
N759 C756 1.341 . S
N759 N758 1.365 . S
N759 H779 0.862 . S
C760 C755 1.501 . S
C760 H761 0.961 . S
C760 H762 0.961 . S
C760 H763 0.960 . S
H761 C760 0.961 . S
H762 C760 0.961 . S
H763 C760 0.960 . S
C764 N765 1.342 . S
C764 C768 1.401 . S
C764 C769 1.499 . S
N765 Co748 1.989 . S
N765 C764 1.342 . S
N765 N766 1.388 . S
N766 Co749 1.993 . S
N766 N765 1.388 . S
N766 C767 1.346 . S
C767 N766 1.346 . S
C767 C768 1.396 . S
C767 C777 1.510 . S
C768 C764 1.401 . S
C768 C767 1.396 . S
C769 C764 1.499 . S
C769 H770 0.959 . S
C769 H771 0.960 . S
C769 H772 0.961 . S
H770 C769 0.959 . S
H771 C769 0.960 . S
H772 C769 0.961 . S
O773 Co748 1.967 . S
O773 C781 1.258 . S
O774 Co749 1.941 . S
O774 C781 1.266 . S
H775 C777 0.959 . S
H776 C777 0.961 . S
C777 C767 1.510 . S
C777 H775 0.959 . S
C777 H776 0.961 . S
C777 H778 0.960 . S
H778 C777 0.960 . S
H779 N759 0.862 . S
O780 Co748 1.920 . S
O780 C753 1.289 1_655 S
C781 O773 1.258 . S
C781 O774 1.266 . S
Co782 O785 1.970 . S
Co782 N799 1.989 . S
Co782 O807 1.967 . S
Co782 O814 1.920 . S
Co783 O786 1.966 . S
Co783 N792 2.022 . S
Co783 N800 1.993 . S
Co783 O808 1.941 . S
C784 O785 1.258 . S
C784 O786 1.263 . S
O785 Co782 1.970 . S
O785 C784 1.258 . S
O786 Co783 1.966 . S
O786 C784 1.263 . S
C787 O788 1.235 . S
C787 O814 1.289 . S
O788 C787 1.235 . S
C789 C791 1.400 . S
C789 N792 1.351 . S
C789 C794 1.501 . S
C790 C791 1.387 . S
C790 N793 1.341 . S
C791 C789 1.400 . S
C791 C790 1.387 . S
N792 Co783 2.022 . S
N792 C789 1.351 . S
N792 N793 1.365 . S
N793 C790 1.341 . S
N793 N792 1.365 . S
N793 H813 0.862 . S
C794 C789 1.501 . S
C794 H795 0.961 . S
C794 H796 0.961 . S
C794 H797 0.960 . S
H795 C794 0.961 . S
H796 C794 0.961 . S
H797 C794 0.960 . S
C798 N799 1.342 . S
C798 C802 1.401 . S
C798 C803 1.499 . S
N799 Co782 1.989 . S
N799 C798 1.342 . S
N799 N800 1.388 . S
N800 Co783 1.993 . S
N800 N799 1.388 . S
N800 C801 1.346 . S
C801 N800 1.346 . S
C801 C802 1.396 . S
C801 C811 1.510 . S
C802 C798 1.401 . S
C802 C801 1.396 . S
C803 C798 1.499 . S
C803 H804 0.959 . S
C803 H805 0.960 . S
C803 H806 0.961 . S
H804 C803 0.959 . S
H805 C803 0.960 . S
H806 C803 0.961 . S
O807 Co782 1.967 . S
O807 C815 1.258 . S
O808 Co783 1.941 . S
O808 C815 1.266 . S
H809 C811 0.959 . S
H810 C811 0.961 . S
C811 C801 1.510 . S
C811 H809 0.959 . S
C811 H810 0.961 . S
C811 H812 0.960 . S
H812 C811 0.960 . S
H813 N793 0.862 . S
O814 Co782 1.920 . S
O814 C787 1.289 . S
C815 O807 1.258 . S
C815 O808 1.266 . S
Co816 O819 1.970 . S
Co816 N833 1.989 . S
Co816 O841 1.967 . S
Co816 O848 1.920 . S
Co817 O820 1.966 . S
Co817 N826 2.022 . S
Co817 N834 1.993 . S
Co817 O842 1.941 . S
C818 O819 1.258 . S
C818 O820 1.263 . S
O819 Co816 1.970 . S
O819 C818 1.258 . S
O820 Co817 1.966 . S
O820 C818 1.263 . S
C821 O822 1.235 . S
C821 O848 1.289 . S
O822 C821 1.235 . S
C823 C825 1.400 . S
C823 N826 1.351 . S
C823 C828 1.501 . S
C824 C825 1.387 . S
C824 N827 1.341 . S
C825 C823 1.400 . S
C825 C824 1.387 . S
N826 Co817 2.022 . S
N826 C823 1.351 . S
N826 N827 1.365 . S
N827 C824 1.341 . S
N827 N826 1.365 . S
N827 H847 0.862 . S
C828 C823 1.501 . S
C828 H829 0.961 . S
C828 H830 0.961 . S
C828 H831 0.960 . S
H829 C828 0.961 . S
H830 C828 0.961 . S
H831 C828 0.960 . S
C832 N833 1.342 . S
C832 C836 1.401 . S
C832 C837 1.499 . S
N833 Co816 1.989 . S
N833 C832 1.342 . S
N833 N834 1.388 . S
N834 Co817 1.993 . S
N834 N833 1.388 . S
N834 C835 1.346 . S
C835 N834 1.346 . S
C835 C836 1.396 . S
C835 C845 1.510 . S
C836 C832 1.401 . S
C836 C835 1.396 . S
C837 C832 1.499 . S
C837 H838 0.959 . S
C837 H839 0.960 . S
C837 H840 0.961 . S
H838 C837 0.959 . S
H839 C837 0.960 . S
H840 C837 0.961 . S
O841 Co816 1.967 . S
O841 C849 1.258 . S
O842 Co817 1.941 . S
O842 C849 1.266 . S
H843 C845 0.959 . S
H844 C845 0.961 . S
C845 C835 1.510 . S
C845 H843 0.959 . S
C845 H844 0.961 . S
C845 H846 0.960 . S
H846 C845 0.960 . S
H847 N827 0.862 . S
O848 Co816 1.920 . S
O848 C821 1.289 . S
C849 O841 1.258 . S
C849 O842 1.266 . S
Co850 O853 1.970 . S
Co850 N867 1.989 1_556 S
Co850 O875 1.967 . S
Co850 O882 1.920 . S
Co851 O854 1.966 . S
Co851 N860 2.022 . S
Co851 N868 1.993 1_556 S
Co851 O876 1.941 . S
C852 O853 1.258 . S
C852 O854 1.263 . S
O853 Co850 1.970 . S
O853 C852 1.258 . S
O854 Co851 1.966 . S
O854 C852 1.263 . S
C855 O856 1.235 1_556 S
C855 O882 1.289 . S
O856 C855 1.235 1_554 S
C857 C859 1.400 . S
C857 N860 1.351 . S
C857 C862 1.501 . S
C858 C859 1.387 . S
C858 N861 1.341 . S
C859 C857 1.400 . S
C859 C858 1.387 . S
N860 Co851 2.022 . S
N860 C857 1.351 . S
N860 N861 1.365 . S
N861 C858 1.341 . S
N861 N860 1.365 . S
N861 H881 0.862 . S
C862 C857 1.501 . S
C862 H863 0.961 . S
C862 H864 0.961 . S
C862 H865 0.960 . S
H863 C862 0.961 . S
H864 C862 0.961 . S
H865 C862 0.960 . S
C866 N867 1.342 . S
C866 C870 1.401 . S
C866 C871 1.499 . S
N867 Co850 1.989 1_554 S
N867 C866 1.342 . S
N867 N868 1.388 . S
N868 Co851 1.993 1_554 S
N868 N867 1.388 . S
N868 C869 1.346 . S
C869 N868 1.346 . S
C869 C870 1.396 . S
C869 C879 1.510 . S
C870 C866 1.401 . S
C870 C869 1.396 . S
C871 C866 1.499 . S
C871 H872 0.959 . S
C871 H873 0.960 . S
C871 H874 0.961 . S
H872 C871 0.959 . S
H873 C871 0.960 . S
H874 C871 0.961 . S
O875 Co850 1.967 . S
O875 C883 1.258 . S
O876 Co851 1.941 . S
O876 C883 1.266 . S
H877 C879 0.959 . S
H878 C879 0.961 . S
C879 C869 1.510 . S
C879 H877 0.959 . S
C879 H878 0.961 . S
C879 H880 0.960 . S
H880 C879 0.960 . S
H881 N861 0.862 . S
O882 Co850 1.920 . S
O882 C855 1.289 . S
C883 O875 1.258 . S
C883 O876 1.266 . S
Co884 O887 1.970 . S
Co884 N901 1.989 . S
Co884 O909 1.967 . S
Co884 O916 1.920 . S
Co885 O888 1.966 . S
Co885 N894 2.022 . S
Co885 N902 1.993 . S
Co885 O910 1.941 . S
C886 O887 1.258 . S
C886 O888 1.263 . S
O887 Co884 1.970 . S
O887 C886 1.258 . S
O888 Co885 1.966 . S
O888 C886 1.263 . S
C889 O890 1.235 . S
C889 O916 1.289 . S
O890 C889 1.235 . S
C891 C893 1.400 . S
C891 N894 1.351 . S
C891 C896 1.501 . S
C892 C893 1.387 . S
C892 N895 1.341 . S
C893 C891 1.400 . S
C893 C892 1.387 . S
N894 Co885 2.022 . S
N894 C891 1.351 . S
N894 N895 1.365 . S
N895 C892 1.341 . S
N895 N894 1.365 . S
N895 H915 0.862 . S
C896 C891 1.501 . S
C896 H897 0.961 . S
C896 H898 0.961 . S
C896 H899 0.960 . S
H897 C896 0.961 . S
H898 C896 0.961 . S
H899 C896 0.960 . S
C900 N901 1.342 . S
C900 C904 1.401 . S
C900 C905 1.499 . S
N901 Co884 1.989 . S
N901 C900 1.342 . S
N901 N902 1.388 . S
N902 Co885 1.993 . S
N902 N901 1.388 . S
N902 C903 1.346 . S
C903 N902 1.346 . S
C903 C904 1.396 . S
C903 C913 1.510 . S
C904 C900 1.401 . S
C904 C903 1.396 . S
C905 C900 1.499 . S
C905 H906 0.959 . S
C905 H907 0.960 . S
C905 H908 0.961 . S
H906 C905 0.959 . S
H907 C905 0.960 . S
H908 C905 0.961 . S
O909 Co884 1.967 . S
O909 C917 1.258 . S
O910 Co885 1.941 . S
O910 C917 1.266 . S
H911 C913 0.959 . S
H912 C913 0.961 . S
C913 C903 1.510 . S
C913 H911 0.959 . S
C913 H912 0.961 . S
C913 H914 0.960 . S
H914 C913 0.960 . S
H915 N895 0.862 . S
O916 Co884 1.920 . S
O916 C889 1.289 . S
C917 O909 1.258 . S
C917 O910 1.266 . S
Co918 O921 1.970 . S
Co918 N935 1.989 . S
Co918 O943 1.967 . S
Co918 O950 1.920 . S
Co919 O922 1.966 . S
Co919 N928 2.022 . S
Co919 N936 1.993 . S
Co919 O944 1.941 . S
C920 O921 1.258 . S
C920 O922 1.263 . S
O921 Co918 1.970 . S
O921 C920 1.258 . S
O922 Co919 1.966 . S
O922 C920 1.263 . S
C923 O924 1.235 . S
C923 O950 1.289 . S
O924 C923 1.235 . S
C925 C927 1.400 . S
C925 N928 1.351 . S
C925 C930 1.501 . S
C926 C927 1.387 . S
C926 N929 1.341 . S
C927 C925 1.400 . S
C927 C926 1.387 . S
N928 Co919 2.022 . S
N928 C925 1.351 . S
N928 N929 1.365 . S
N929 C926 1.341 . S
N929 N928 1.365 . S
N929 H949 0.862 . S
C930 C925 1.501 . S
C930 H931 0.961 . S
C930 H932 0.961 . S
C930 H933 0.960 . S
H931 C930 0.961 . S
H932 C930 0.961 . S
H933 C930 0.960 . S
C934 N935 1.342 . S
C934 C938 1.401 . S
C934 C939 1.499 . S
N935 Co918 1.989 . S
N935 C934 1.342 . S
N935 N936 1.388 . S
N936 Co919 1.993 . S
N936 N935 1.388 . S
N936 C937 1.346 . S
C937 N936 1.346 . S
C937 C938 1.396 . S
C937 C947 1.510 . S
C938 C934 1.401 . S
C938 C937 1.396 . S
C939 C934 1.499 . S
C939 H940 0.959 . S
C939 H941 0.960 . S
C939 H942 0.961 . S
H940 C939 0.959 . S
H941 C939 0.960 . S
H942 C939 0.961 . S
O943 Co918 1.967 . S
O943 C951 1.258 . S
O944 Co919 1.941 . S
O944 C951 1.266 . S
H945 C947 0.959 . S
H946 C947 0.961 . S
C947 C937 1.510 . S
C947 H945 0.959 . S
C947 H946 0.961 . S
C947 H948 0.960 . S
H948 C947 0.960 . S
H949 N929 0.862 . S
O950 Co918 1.920 . S
O950 C923 1.289 . S
C951 O943 1.258 . S
C951 O944 1.266 . S
Co952 O955 1.970 . S
Co952 N969 1.989 . S
Co952 O977 1.967 . S
Co952 O984 1.920 . S
Co953 O956 1.966 . S
Co953 N962 2.022 . S
Co953 N970 1.993 . S
Co953 O978 1.941 . S
C954 O955 1.258 . S
C954 O956 1.263 . S
O955 Co952 1.970 . S
O955 C954 1.258 . S
O956 Co953 1.966 . S
O956 C954 1.263 . S
C957 O958 1.235 . S
C957 O984 1.289 . S
O958 C957 1.235 . S
C959 C961 1.400 . S
C959 N962 1.351 . S
C959 C964 1.501 . S
C960 C961 1.387 . S
C960 N963 1.341 . S
C961 C959 1.400 . S
C961 C960 1.387 . S
N962 Co953 2.022 . S
N962 C959 1.351 . S
N962 N963 1.365 . S
N963 C960 1.341 . S
N963 N962 1.365 . S
N963 H983 0.862 . S
C964 C959 1.501 . S
C964 H965 0.961 . S
C964 H966 0.961 . S
C964 H967 0.960 . S
H965 C964 0.961 . S
H966 C964 0.961 . S
H967 C964 0.960 . S
C968 N969 1.342 . S
C968 C972 1.401 . S
C968 C973 1.499 . S
N969 Co952 1.989 . S
N969 C968 1.342 . S
N969 N970 1.388 . S
N970 Co953 1.993 . S
N970 N969 1.388 . S
N970 C971 1.346 . S
C971 N970 1.346 . S
C971 C972 1.396 . S
C971 C981 1.510 . S
C972 C968 1.401 . S
C972 C971 1.396 . S
C973 C968 1.499 . S
C973 H974 0.959 . S
C973 H975 0.960 . S
C973 H976 0.961 . S
H974 C973 0.959 . S
H975 C973 0.960 . S
H976 C973 0.961 . S
O977 Co952 1.967 . S
O977 C985 1.258 . S
O978 Co953 1.941 . S
O978 C985 1.266 . S
H979 C981 0.959 . S
H980 C981 0.961 . S
C981 C971 1.510 . S
C981 H979 0.959 . S
C981 H980 0.961 . S
C981 H982 0.960 . S
H982 C981 0.960 . S
H983 N963 0.862 . S
O984 Co952 1.920 . S
O984 C957 1.289 . S
C985 O977 1.258 . S
C985 O978 1.266 . S
Co986 O989 1.970 . S
Co986 N1003 1.989 1_554 S
Co986 O1011 1.967 . S
Co986 O1018 1.920 . S
Co987 O990 1.966 . S
Co987 N996 2.022 . S
Co987 N1004 1.993 1_554 S
Co987 O1012 1.941 . S
C988 O989 1.258 . S
C988 O990 1.263 . S
O989 Co986 1.970 . S
O989 C988 1.258 . S
O990 Co987 1.966 . S
O990 C988 1.263 . S
C991 O992 1.235 1_554 S
C991 O1018 1.289 . S
O992 C991 1.235 1_556 S
C993 C995 1.400 . S
C993 N996 1.351 . S
C993 C998 1.501 . S
C994 C995 1.387 . S
C994 N997 1.341 . S
C995 C993 1.400 . S
C995 C994 1.387 . S
N996 Co987 2.022 . S
N996 C993 1.351 . S
N996 N997 1.365 . S
N997 C994 1.341 . S
N997 N996 1.365 . S
N997 H1017 0.862 . S
C998 C993 1.501 . S
C998 H999 0.961 . S
C998 H1000 0.961 . S
C998 H1001 0.960 . S
H999 C998 0.961 . S
H1000 C998 0.961 . S
H1001 C998 0.960 . S
C1002 N1003 1.342 . S
C1002 C1006 1.401 . S
C1002 C1007 1.499 . S
N1003 Co986 1.989 1_556 S
N1003 C1002 1.342 . S
N1003 N1004 1.388 . S
N1004 Co987 1.993 1_556 S
N1004 N1003 1.388 . S
N1004 C1005 1.346 . S
C1005 N1004 1.346 . S
C1005 C1006 1.396 . S
C1005 C1015 1.510 . S
C1006 C1002 1.401 . S
C1006 C1005 1.396 . S
C1007 C1002 1.499 . S
C1007 H1008 0.959 . S
C1007 H1009 0.960 . S
C1007 H1010 0.961 . S
H1008 C1007 0.959 . S
H1009 C1007 0.960 . S
H1010 C1007 0.961 . S
O1011 Co986 1.967 . S
O1011 C1019 1.258 . S
O1012 Co987 1.941 . S
O1012 C1019 1.266 . S
H1013 C1015 0.959 . S
H1014 C1015 0.961 . S
C1015 C1005 1.510 . S
C1015 H1013 0.959 . S
C1015 H1014 0.961 . S
C1015 H1016 0.960 . S
H1016 C1015 0.960 . S
H1017 N997 0.862 . S
O1018 Co986 1.920 . S
O1018 C991 1.289 . S
C1019 O1011 1.258 . S
C1019 O1012 1.266 . S
Co1020 O1023 1.970 . S
Co1020 N1037 1.989 . S
Co1020 O1045 1.967 . S
Co1020 O1052 1.920 . S
Co1021 O1024 1.966 . S
Co1021 N1030 2.022 . S
Co1021 N1038 1.993 . S
Co1021 O1046 1.941 . S
C1022 O1023 1.258 . S
C1022 O1024 1.263 . S
O1023 Co1020 1.970 . S
O1023 C1022 1.258 . S
O1024 Co1021 1.966 . S
O1024 C1022 1.263 . S
C1025 O1026 1.235 . S
C1025 O1052 1.289 . S
O1026 C1025 1.235 . S
C1027 C1029 1.400 . S
C1027 N1030 1.351 . S
C1027 C1032 1.501 . S
C1028 C1029 1.387 . S
C1028 N1031 1.341 . S
C1029 C1027 1.400 . S
C1029 C1028 1.387 . S
N1030 Co1021 2.022 . S
N1030 C1027 1.351 . S
N1030 N1031 1.365 . S
N1031 C1028 1.341 . S
N1031 N1030 1.365 . S
N1031 H1051 0.862 . S
C1032 C1027 1.501 . S
C1032 H1033 0.961 . S
C1032 H1034 0.961 . S
C1032 H1035 0.960 . S
H1033 C1032 0.961 . S
H1034 C1032 0.961 . S
H1035 C1032 0.960 . S
C1036 N1037 1.342 . S
C1036 C1040 1.401 . S
C1036 C1041 1.499 . S
N1037 Co1020 1.989 . S
N1037 C1036 1.342 . S
N1037 N1038 1.388 . S
N1038 Co1021 1.993 . S
N1038 N1037 1.388 . S
N1038 C1039 1.346 . S
C1039 N1038 1.346 . S
C1039 C1040 1.396 . S
C1039 C1049 1.510 . S
C1040 C1036 1.401 . S
C1040 C1039 1.396 . S
C1041 C1036 1.499 . S
C1041 H1042 0.959 . S
C1041 H1043 0.960 . S
C1041 H1044 0.961 . S
H1042 C1041 0.959 . S
H1043 C1041 0.960 . S
H1044 C1041 0.961 . S
O1045 Co1020 1.967 . S
O1045 C1053 1.258 . S
O1046 Co1021 1.941 . S
O1046 C1053 1.266 . S
H1047 C1049 0.959 . S
H1048 C1049 0.961 . S
C1049 C1039 1.510 . S
C1049 H1047 0.959 . S
C1049 H1048 0.961 . S
C1049 H1050 0.960 . S
H1050 C1049 0.960 . S
H1051 N1031 0.862 . S
O1052 Co1020 1.920 . S
O1052 C1025 1.289 . S
C1053 O1045 1.258 . S
C1053 O1046 1.266 . S
Co1054 O1057 1.970 . S
Co1054 N1071 1.989 . S
Co1054 O1079 1.967 . S
Co1054 O1086 1.920 . S
Co1055 O1058 1.966 . S
Co1055 N1064 2.022 . S
Co1055 N1072 1.993 . S
Co1055 O1080 1.941 . S
C1056 O1057 1.258 . S
C1056 O1058 1.263 . S
O1057 Co1054 1.970 . S
O1057 C1056 1.258 . S
O1058 Co1055 1.966 . S
O1058 C1056 1.263 . S
C1059 O1060 1.235 . S
C1059 O1086 1.289 . S
O1060 C1059 1.235 . S
C1061 C1063 1.400 . S
C1061 N1064 1.351 . S
C1061 C1066 1.501 . S
C1062 C1063 1.387 . S
C1062 N1065 1.341 . S
C1063 C1061 1.400 . S
C1063 C1062 1.387 . S
N1064 Co1055 2.022 . S
N1064 C1061 1.351 . S
N1064 N1065 1.365 . S
N1065 C1062 1.341 . S
N1065 N1064 1.365 . S
N1065 H1085 0.862 . S
C1066 C1061 1.501 . S
C1066 H1067 0.961 . S
C1066 H1068 0.961 . S
C1066 H1069 0.960 . S
H1067 C1066 0.961 . S
H1068 C1066 0.961 . S
H1069 C1066 0.960 . S
C1070 N1071 1.342 . S
C1070 C1074 1.401 . S
C1070 C1075 1.499 . S
N1071 Co1054 1.989 . S
N1071 C1070 1.342 . S
N1071 N1072 1.388 . S
N1072 Co1055 1.993 . S
N1072 N1071 1.388 . S
N1072 C1073 1.346 . S
C1073 N1072 1.346 . S
C1073 C1074 1.396 . S
C1073 C1083 1.510 . S
C1074 C1070 1.401 . S
C1074 C1073 1.396 . S
C1075 C1070 1.499 . S
C1075 H1076 0.959 . S
C1075 H1077 0.960 . S
C1075 H1078 0.961 . S
H1076 C1075 0.959 . S
H1077 C1075 0.960 . S
H1078 C1075 0.961 . S
O1079 Co1054 1.967 . S
O1079 C1087 1.258 . S
O1080 Co1055 1.941 . S
O1080 C1087 1.266 . S
H1081 C1083 0.959 . S
H1082 C1083 0.961 . S
C1083 C1073 1.510 . S
C1083 H1081 0.959 . S
C1083 H1082 0.961 . S
C1083 H1084 0.960 . S
H1084 C1083 0.960 . S
H1085 N1065 0.862 . S
O1086 Co1054 1.920 . S
O1086 C1059 1.289 . S
C1087 O1079 1.258 . S
C1087 O1080 1.266 . S
C1088 C1089 1.369 . S
C1088 C1090 1.419 . S
C1088 H1092 0.930 . S
C1089 C1088 1.369 . S
C1089 C1098 1.429 . S
C1090 C1088 1.419 . S
C1090 C1091 1.363 . S
C1090 H1093 0.929 . S
C1091 C1090 1.363 . S
C1091 C1097 1.428 . S
H1092 C1088 0.930 . S
H1093 C1090 0.929 . S
S1094 N1095 1.613 . S
S1094 N1096 1.610 . S
N1095 S1094 1.613 . S
N1095 C1098 1.350 . S
N1096 S1094 1.610 . S
N1096 C1097 1.351 . S
C1097 C1091 1.428 . S
C1097 N1096 1.351 . S
C1097 C1098 1.434 . S
C1098 C1089 1.429 . S
C1098 N1095 1.350 . S
C1098 C1097 1.434 . S
C1099 C1100 1.369 . S
C1099 C1101 1.419 . S
C1099 H1103 0.930 . S
C1100 C1099 1.369 . S
C1100 C1109 1.429 . S
C1101 C1099 1.419 . S
C1101 C1102 1.363 . S
C1101 H1104 0.929 . S
C1102 C1101 1.363 . S
C1102 C1108 1.428 . S
H1103 C1099 0.930 . S
H1104 C1101 0.929 . S
S1105 N1106 1.613 . S
S1105 N1107 1.610 . S
N1106 S1105 1.613 . S
N1106 C1109 1.350 . S
N1107 S1105 1.610 . S
N1107 C1108 1.351 . S
C1108 C1102 1.428 . S
C1108 N1107 1.351 . S
C1108 C1109 1.434 . S
C1109 C1100 1.429 . S
C1109 N1106 1.350 . S
C1109 C1108 1.434 . S
C1110 C1111 1.369 . S
C1110 C1112 1.419 . S
C1110 H1114 0.930 . S
C1111 C1110 1.369 . S
C1111 C1120 1.429 . S
C1112 C1110 1.419 . S
C1112 C1113 1.363 . S
C1112 H1115 0.929 . S
C1113 C1112 1.363 . S
C1113 C1119 1.428 . S
H1114 C1110 0.930 . S
H1115 C1112 0.929 . S
S1116 N1117 1.613 . S
S1116 N1118 1.610 . S
N1117 S1116 1.613 . S
N1117 C1120 1.350 . S
N1118 S1116 1.610 . S
N1118 C1119 1.351 . S
C1119 C1113 1.428 . S
C1119 N1118 1.351 . S
C1119 C1120 1.434 . S
C1120 C1111 1.429 . S
C1120 N1117 1.350 . S
C1120 C1119 1.434 . S
C1121 C1122 1.369 . S
C1121 C1123 1.419 . S
C1121 H1125 0.930 . S
C1122 C1121 1.369 . S
C1122 C1131 1.429 . S
C1123 C1121 1.419 . S
C1123 C1124 1.363 . S
C1123 H1126 0.929 . S
C1124 C1123 1.363 . S
C1124 C1130 1.428 . S
H1125 C1121 0.930 . S
H1126 C1123 0.929 . S
S1127 N1128 1.613 . S
S1127 N1129 1.610 . S
N1128 S1127 1.613 . S
N1128 C1131 1.350 . S
N1129 S1127 1.610 . S
N1129 C1130 1.351 . S
C1130 C1124 1.428 . S
C1130 N1129 1.351 . S
C1130 C1131 1.434 . S
C1131 C1122 1.429 . S
C1131 N1128 1.350 . S
C1131 C1130 1.434 . S
C1132 C1133 1.369 . S
C1132 C1134 1.419 . S
C1132 H1136 0.930 . S
C1133 C1132 1.369 . S
C1133 C1142 1.429 . S
C1134 C1132 1.419 . S
C1134 C1135 1.363 . S
C1134 H1137 0.929 . S
C1135 C1134 1.363 . S
C1135 C1141 1.428 . S
H1136 C1132 0.930 . S
H1137 C1134 0.929 . S
S1138 N1139 1.613 . S
S1138 N1140 1.610 . S
N1139 S1138 1.613 . S
N1139 C1142 1.350 . S
N1140 S1138 1.610 . S
N1140 C1141 1.351 . S
C1141 C1135 1.428 . S
C1141 N1140 1.351 . S
C1141 C1142 1.434 . S
C1142 C1133 1.429 . S
C1142 N1139 1.350 . S
C1142 C1141 1.434 . S
C1143 C1144 1.369 . S
C1143 C1145 1.419 . S
C1143 H1147 0.930 . S
C1144 C1143 1.369 . S
C1144 C1153 1.429 . S
C1145 C1143 1.419 . S
C1145 C1146 1.363 . S
C1145 H1148 0.929 . S
C1146 C1145 1.363 . S
C1146 C1152 1.428 . S
H1147 C1143 0.930 . S
H1148 C1145 0.929 . S
S1149 N1150 1.613 . S
S1149 N1151 1.610 . S
N1150 S1149 1.613 . S
N1150 C1153 1.350 . S
N1151 S1149 1.610 . S
N1151 C1152 1.351 . S
C1152 C1146 1.428 . S
C1152 N1151 1.351 . S
C1152 C1153 1.434 . S
C1153 C1144 1.429 . S
C1153 N1150 1.350 . S
C1153 C1152 1.434 . S
C1154 C1155 1.369 . S
C1154 C1156 1.419 . S
C1154 H1158 0.930 . S
C1155 C1154 1.369 . S
C1155 C1164 1.429 . S
C1156 C1154 1.419 . S
C1156 C1157 1.363 . S
C1156 H1159 0.929 . S
C1157 C1156 1.363 . S
C1157 C1163 1.428 . S
H1158 C1154 0.930 . S
H1159 C1156 0.929 . S
S1160 N1161 1.613 . S
S1160 N1162 1.610 . S
N1161 S1160 1.613 . S
N1161 C1164 1.350 . S
N1162 S1160 1.610 . S
N1162 C1163 1.351 . S
C1163 C1157 1.428 . S
C1163 N1162 1.351 . S
C1163 C1164 1.434 . S
C1164 C1155 1.429 . S
C1164 N1161 1.350 . S
C1164 C1163 1.434 . S
C1165 C1166 1.369 . S
C1165 C1167 1.419 . S
C1165 H1169 0.930 . S
C1166 C1165 1.369 . S
C1166 C1175 1.429 . S
C1167 C1165 1.419 . S
C1167 C1168 1.363 . S
C1167 H1170 0.929 . S
C1168 C1167 1.363 . S
C1168 C1174 1.428 . S
H1169 C1165 0.930 . S
H1170 C1167 0.929 . S
S1171 N1172 1.613 . S
S1171 N1173 1.610 . S
N1172 S1171 1.613 . S
N1172 C1175 1.350 . S
N1173 S1171 1.610 . S
N1173 C1174 1.351 . S
C1174 C1168 1.428 . S
C1174 N1173 1.351 . S
C1174 C1175 1.434 . S
C1175 C1166 1.429 . S
C1175 N1172 1.350 . S
C1175 C1174 1.434 . S
C1176 C1177 1.369 . S
C1176 C1178 1.419 . S
C1176 H1180 0.930 . S
C1177 C1176 1.369 . S
C1177 C1186 1.429 . S
C1178 C1176 1.419 . S
C1178 C1179 1.363 . S
C1178 H1181 0.929 . S
C1179 C1178 1.363 . S
C1179 C1185 1.428 . S
H1180 C1176 0.930 . S
H1181 C1178 0.929 . S
S1182 N1183 1.613 . S
S1182 N1184 1.610 . S
N1183 S1182 1.613 . S
N1183 C1186 1.350 . S
N1184 S1182 1.610 . S
N1184 C1185 1.351 . S
C1185 C1179 1.428 . S
C1185 N1184 1.351 . S
C1185 C1186 1.434 . S
C1186 C1177 1.429 . S
C1186 N1183 1.350 . S
C1186 C1185 1.434 . S
C1187 C1188 1.369 . S
C1187 C1189 1.419 . S
C1187 H1191 0.930 . S
C1188 C1187 1.369 . S
C1188 C1197 1.429 . S
C1189 C1187 1.419 . S
C1189 C1190 1.363 . S
C1189 H1192 0.929 . S
C1190 C1189 1.363 . S
C1190 C1196 1.428 . S
H1191 C1187 0.930 . S
H1192 C1189 0.929 . S
S1193 N1194 1.613 . S
S1193 N1195 1.610 . S
N1194 S1193 1.613 . S
N1194 C1197 1.350 . S
N1195 S1193 1.610 . S
N1195 C1196 1.351 . S
C1196 C1190 1.428 . S
C1196 N1195 1.351 . S
C1196 C1197 1.434 . S
C1197 C1188 1.429 . S
C1197 N1194 1.350 . S
C1197 C1196 1.434 . S
C1198 C1199 1.369 . S
C1198 C1200 1.419 . S
C1198 H1202 0.930 . S
C1199 C1198 1.369 . S
C1199 C1208 1.429 . S
C1200 C1198 1.419 . S
C1200 C1201 1.363 . S
C1200 H1203 0.929 . S
C1201 C1200 1.363 . S
C1201 C1207 1.428 . S
H1202 C1198 0.930 . S
H1203 C1200 0.929 . S
S1204 N1205 1.613 . S
S1204 N1206 1.610 . S
N1205 S1204 1.613 . S
N1205 C1208 1.350 . S
N1206 S1204 1.610 . S
N1206 C1207 1.351 . S
C1207 C1201 1.428 . S
C1207 N1206 1.351 . S
C1207 C1208 1.434 . S
C1208 C1199 1.429 . S
C1208 N1205 1.350 . S
C1208 C1207 1.434 . S
C1209 C1210 1.369 . S
C1209 C1211 1.419 . S
C1209 H1213 0.930 . S
C1210 C1209 1.369 . S
C1210 C1219 1.429 . S
C1211 C1209 1.419 . S
C1211 C1212 1.363 . S
C1211 H1214 0.929 . S
C1212 C1211 1.363 . S
C1212 C1218 1.428 . S
H1213 C1209 0.930 . S
H1214 C1211 0.929 . S
S1215 N1216 1.613 . S
S1215 N1217 1.610 . S
N1216 S1215 1.613 . S
N1216 C1219 1.350 . S
N1217 S1215 1.610 . S
N1217 C1218 1.351 . S
C1218 C1212 1.428 . S
C1218 N1217 1.351 . S
C1218 C1219 1.434 . S
C1219 C1210 1.429 . S
C1219 N1216 1.350 . S
C1219 C1218 1.434 . S
C1220 C1221 1.369 . S
C1220 C1222 1.419 . S
C1220 H1224 0.930 . S
C1221 C1220 1.369 . S
C1221 C1230 1.429 . S
C1222 C1220 1.419 . S
C1222 C1223 1.363 . S
C1222 H1225 0.929 . S
C1223 C1222 1.363 . S
C1223 C1229 1.428 . S
H1224 C1220 0.930 . S
H1225 C1222 0.929 . S
S1226 N1227 1.613 . S
S1226 N1228 1.610 . S
N1227 S1226 1.613 . S
N1227 C1230 1.350 . S
N1228 S1226 1.610 . S
N1228 C1229 1.351 . S
C1229 C1223 1.428 . S
C1229 N1228 1.351 . S
C1229 C1230 1.434 . S
C1230 C1221 1.429 . S
C1230 N1227 1.350 . S
C1230 C1229 1.434 . S
C1231 C1232 1.369 . S
C1231 C1233 1.419 . S
C1231 H1235 0.930 . S
C1232 C1231 1.369 . S
C1232 C1241 1.429 . S
C1233 C1231 1.419 . S
C1233 C1234 1.363 . S
C1233 H1236 0.929 . S
C1234 C1233 1.363 . S
C1234 C1240 1.428 . S
H1235 C1231 0.930 . S
H1236 C1233 0.929 . S
S1237 N1238 1.613 . S
S1237 N1239 1.610 . S
N1238 S1237 1.613 . S
N1238 C1241 1.350 . S
N1239 S1237 1.610 . S
N1239 C1240 1.351 . S
C1240 C1234 1.428 . S
C1240 N1239 1.351 . S
C1240 C1241 1.434 . S
C1241 C1232 1.429 . S
C1241 N1238 1.350 . S
C1241 C1240 1.434 . S
C1242 C1243 1.369 . S
C1242 C1244 1.419 . S
C1242 H1246 0.930 . S
C1243 C1242 1.369 . S
C1243 C1252 1.429 . S
C1244 C1242 1.419 . S
C1244 C1245 1.363 . S
C1244 H1247 0.929 . S
C1245 C1244 1.363 . S
C1245 C1251 1.428 . S
H1246 C1242 0.930 . S
H1247 C1244 0.929 . S
S1248 N1249 1.613 . S
S1248 N1250 1.610 . S
N1249 S1248 1.613 . S
N1249 C1252 1.350 . S
N1250 S1248 1.610 . S
N1250 C1251 1.351 . S
C1251 C1245 1.428 . S
C1251 N1250 1.351 . S
C1251 C1252 1.434 . S
C1252 C1243 1.429 . S
C1252 N1249 1.350 . S
C1252 C1251 1.434 . S
C1253 C1254 1.369 . S
C1253 C1255 1.419 . S
C1253 H1257 0.930 . S
C1254 C1253 1.369 . S
C1254 C1263 1.429 . S
C1255 C1253 1.419 . S
C1255 C1256 1.363 . S
C1255 H1258 0.929 . S
C1256 C1255 1.363 . S
C1256 C1262 1.428 . S
H1257 C1253 0.930 . S
H1258 C1255 0.929 . S
S1259 N1260 1.613 . S
S1259 N1261 1.610 . S
N1260 S1259 1.613 . S
N1260 C1263 1.350 . S
N1261 S1259 1.610 . S
N1261 C1262 1.351 . S
C1262 C1256 1.428 . S
C1262 N1261 1.351 . S
C1262 C1263 1.434 . S
C1263 C1254 1.429 . S
C1263 N1260 1.350 . S
C1263 C1262 1.434 . S
C1264 C1265 1.369 . S
C1264 C1266 1.419 1_565 S
C1264 H1268 0.930 . S
C1265 C1264 1.369 . S
C1265 C1274 1.429 . S
C1266 C1264 1.419 1_545 S
C1266 C1267 1.363 . S
C1266 H1269 0.929 . S
C1267 C1266 1.363 . S
C1267 C1273 1.428 . S
H1268 C1264 0.930 . S
H1269 C1266 0.929 . S
S1270 N1271 1.613 1_545 S
S1270 N1272 1.610 . S
N1271 S1270 1.613 1_565 S
N1271 C1274 1.350 1_655 S
N1272 S1270 1.610 . S
N1272 C1273 1.351 1_655 S
C1273 C1267 1.428 . S
C1273 N1272 1.351 1_455 S
C1273 C1274 1.434 1_545 S
C1274 C1265 1.429 . S
C1274 N1271 1.350 1_455 S
C1274 C1273 1.434 1_565 S
C1275 C1276 1.369 . S
C1275 C1277 1.419 . S
C1275 H1279 0.930 . S
C1276 C1275 1.369 . S
C1276 C1285 1.429 . S
C1277 C1275 1.419 . S
C1277 C1278 1.363 . S
C1277 H1280 0.929 . S
C1278 C1277 1.363 . S
C1278 C1284 1.428 . S
H1279 C1275 0.930 . S
H1280 C1277 0.929 . S
S1281 N1282 1.613 . S
S1281 N1283 1.610 . S
N1282 S1281 1.613 . S
N1282 C1285 1.350 . S
N1283 S1281 1.610 . S
N1283 C1284 1.351 . S
C1284 C1278 1.428 . S
C1284 N1283 1.351 . S
C1284 C1285 1.434 . S
C1285 C1276 1.429 . S
C1285 N1282 1.350 . S
C1285 C1284 1.434 . S
C1286 C1287 1.369 . S
C1286 C1288 1.419 1_545 S
C1286 H1290 0.930 . S
C1287 C1286 1.369 . S
C1287 C1296 1.429 . S
C1288 C1286 1.419 1_565 S
C1288 C1289 1.363 . S
C1288 H1291 0.929 . S
C1289 C1288 1.363 . S
C1289 C1295 1.428 . S
H1290 C1286 0.930 . S
H1291 C1288 0.929 . S
S1292 N1293 1.613 1_565 S
S1292 N1294 1.610 . S
N1293 S1292 1.613 1_545 S
N1293 C1296 1.350 . S
N1294 S1292 1.610 . S
N1294 C1295 1.351 . S
C1295 C1289 1.428 . S
C1295 N1294 1.351 . S
C1295 C1296 1.434 1_565 S
C1296 C1287 1.429 . S
C1296 N1293 1.350 . S
C1296 C1295 1.434 1_545 S
C1297 C1298 1.369 1_556 S
C1297 C1299 1.419 . S
C1297 H1301 0.930 . S
C1298 C1297 1.369 1_554 S
C1298 C1307 1.429 . S
C1299 C1297 1.419 . S
C1299 C1300 1.363 . S
C1299 H1302 0.929 . S
C1300 C1299 1.363 . S
C1300 C1306 1.428 1_556 S
H1301 C1297 0.930 . S
H1302 C1299 0.929 . S
S1303 N1304 1.613 . S
S1303 N1305 1.610 . S
N1304 S1303 1.613 . S
N1304 C1307 1.350 . S
N1305 S1303 1.610 . S
N1305 C1306 1.351 . S
C1306 C1300 1.428 1_554 S
C1306 N1305 1.351 . S
C1306 C1307 1.434 . S
C1307 C1298 1.429 . S
C1307 N1304 1.350 . S
C1307 C1306 1.434 . S
C1308 C1309 1.369 . S
C1308 C1310 1.419 1_545 S
C1308 H1312 0.930 . S
C1309 C1308 1.369 . S
C1309 C1318 1.438 . S
C1310 C1308 1.419 1_565 S
C1310 C1311 1.363 . S
C1310 H1313 0.929 . S
C1311 C1310 1.363 . S
C1311 C1317 1.428 . S
H1312 C1308 0.930 . S
H1313 C1310 0.929 . S
S1314 N1315 1.613 . S
S1314 N1316 1.610 . S
N1315 S1314 1.613 . S
N1315 C1318 1.349 1_565 S
N1316 S1314 1.610 . S
N1316 C1317 1.351 . S
C1317 C1311 1.428 . S
C1317 N1316 1.351 . S
C1317 C1318 1.424 1_565 S
C1318 C1309 1.438 . S
C1318 N1315 1.349 1_545 S
C1318 C1317 1.424 1_545 S
C1319 C1320 1.369 . S
C1319 C1321 1.419 . S
C1319 H1323 0.930 . S
C1320 C1319 1.369 . S
C1320 C1329 1.429 . S
C1321 C1319 1.419 . S
C1321 C1322 1.363 . S
C1321 H1324 0.929 . S
C1322 C1321 1.363 . S
C1322 C1328 1.428 . S
H1323 C1319 0.930 . S
H1324 C1321 0.929 . S
S1325 N1326 1.613 . S
S1325 N1327 1.610 . S
N1326 S1325 1.613 . S
N1326 C1329 1.350 . S
N1327 S1325 1.610 . S
N1327 C1328 1.351 . S
C1328 C1322 1.428 . S
C1328 N1327 1.351 . S
C1328 C1329 1.434 . S
C1329 C1320 1.429 . S
C1329 N1326 1.350 . S
C1329 C1328 1.434 . S
C1330 C1331 1.369 . S
C1330 C1332 1.419 1_545 S
C1330 H1334 0.930 . S
C1331 C1330 1.369 . S
C1331 C1340 1.429 . S
C1332 C1330 1.419 1_565 S
C1332 C1333 1.363 . S
C1332 H1335 0.929 . S
C1333 C1332 1.363 . S
C1333 C1339 1.428 . S
H1334 C1330 0.930 . S
H1335 C1332 0.929 . S
S1336 N1337 1.613 1_565 S
S1336 N1338 1.610 . S
N1337 S1336 1.613 1_545 S
N1337 C1340 1.350 . S
N1338 S1336 1.610 . S
N1338 C1339 1.351 . S
C1339 C1333 1.428 . S
C1339 N1338 1.351 . S
C1339 C1340 1.434 1_565 S
C1340 C1331 1.429 . S
C1340 N1337 1.350 . S
C1340 C1339 1.434 1_545 S
C1341 C1342 1.369 1_556 S
C1341 C1343 1.419 . S
C1341 H1345 0.930 . S
C1342 C1341 1.369 1_554 S
C1342 C1351 1.429 . S
C1343 C1341 1.419 . S
C1343 C1344 1.363 . S
C1343 H1346 0.929 . S
C1344 C1343 1.363 . S
C1344 C1350 1.428 1_556 S
H1345 C1341 0.930 . S
H1346 C1343 0.929 . S
S1347 N1348 1.613 . S
S1347 N1349 1.610 . S
N1348 S1347 1.613 . S
N1348 C1351 1.350 . S
N1349 S1347 1.610 . S
N1349 C1350 1.351 . S
C1350 C1344 1.428 1_554 S
C1350 N1349 1.351 . S
C1350 C1351 1.434 . S
C1351 C1342 1.429 . S
C1351 N1348 1.350 . S
C1351 C1350 1.434 . S
C1352 C1353 1.369 . S
C1352 C1354 1.419 . S
C1352 H1356 0.930 . S
C1353 C1352 1.369 . S
C1353 C1362 1.429 . S
C1354 C1352 1.419 . S
C1354 C1355 1.363 . S
C1354 H1357 0.929 . S
C1355 C1354 1.363 . S
C1355 C1361 1.428 . S
H1356 C1352 0.930 . S
H1357 C1354 0.929 . S
S1358 N1359 1.613 . S
S1358 N1360 1.610 . S
N1359 S1358 1.613 . S
N1359 C1362 1.350 . S
N1360 S1358 1.610 . S
N1360 C1361 1.351 . S
C1361 C1355 1.428 . S
C1361 N1360 1.351 . S
C1361 C1362 1.434 . S
C1362 C1353 1.429 . S
C1362 N1359 1.350 . S
C1362 C1361 1.434 . S
C1363 C1364 1.369 1_554 S
C1363 C1365 1.419 . S
C1363 H1367 0.930 . S
C1364 C1363 1.369 1_556 S
C1364 C1373 1.429 . S
C1365 C1363 1.419 . S
C1365 C1366 1.363 . S
C1365 H1368 0.929 . S
C1366 C1365 1.363 . S
C1366 C1372 1.428 1_554 S
H1367 C1363 0.930 . S
H1368 C1365 0.929 . S
S1369 N1370 1.613 . S
S1369 N1371 1.610 . S
N1370 S1369 1.613 . S
N1370 C1373 1.350 . S
N1371 S1369 1.610 . S
N1371 C1372 1.351 . S
C1372 C1366 1.428 1_556 S
C1372 N1371 1.351 . S
C1372 C1373 1.434 . S
C1373 C1364 1.429 . S
C1373 N1370 1.350 . S
C1373 C1372 1.434 . S
C1374 C1375 1.369 . S
C1374 C1376 1.419 . S
C1374 H1378 0.930 . S
C1375 C1374 1.369 . S
C1375 C1384 1.429 . S
C1376 C1374 1.419 . S
C1376 C1377 1.363 . S
C1376 H1379 0.929 . S
C1377 C1376 1.363 . S
C1377 C1383 1.428 . S
H1378 C1374 0.930 . S
H1379 C1376 0.929 . S
S1380 N1381 1.613 . S
S1380 N1382 1.610 . S
N1381 S1380 1.613 . S
N1381 C1384 1.350 . S
N1382 S1380 1.610 . S
N1382 C1383 1.351 . S
C1383 C1377 1.428 . S
C1383 N1382 1.351 . S
C1383 C1384 1.434 . S
C1384 C1375 1.429 . S
C1384 N1381 1.350 . S
C1384 C1383 1.434 . S
C1385 C1386 1.369 . S
C1385 C1387 1.419 . S
C1385 H1389 0.930 . S
C1386 C1385 1.369 . S
C1386 C1395 1.429 . S
C1387 C1385 1.419 . S
C1387 C1388 1.363 . S
C1387 H1390 0.929 . S
C1388 C1387 1.363 . S
C1388 C1394 1.428 . S
H1389 C1385 0.930 . S
H1390 C1387 0.929 . S
S1391 N1392 1.613 . S
S1391 N1393 1.610 . S
N1392 S1391 1.613 . S
N1392 C1395 1.350 . S
N1393 S1391 1.610 . S
N1393 C1394 1.351 . S
C1394 C1388 1.428 . S
C1394 N1393 1.351 . S
C1394 C1395 1.434 . S
C1395 C1386 1.429 . S
C1395 N1392 1.350 . S
C1395 C1394 1.434 . S
C1396 C1397 1.369 . S
C1396 C1398 1.419 . S
C1396 H1400 0.930 . S
C1397 C1396 1.369 . S
C1397 C1406 1.429 . S
C1398 C1396 1.419 . S
C1398 C1399 1.363 . S
C1398 H1401 0.929 . S
C1399 C1398 1.363 . S
C1399 C1405 1.428 . S
H1400 C1396 0.930 . S
H1401 C1398 0.929 . S
S1402 N1403 1.613 . S
S1402 N1404 1.610 . S
N1403 S1402 1.613 . S
N1403 C1406 1.350 . S
N1404 S1402 1.610 . S
N1404 C1405 1.351 . S
C1405 C1399 1.428 . S
C1405 N1404 1.351 . S
C1405 C1406 1.434 . S
C1406 C1397 1.429 . S
C1406 N1403 1.350 . S
C1406 C1405 1.434 . S
C1407 C1408 1.369 . S
C1407 C1409 1.419 1_556 S
C1407 H1411 0.930 . S
C1408 C1407 1.369 . S
C1408 C1417 1.429 . S
C1409 C1407 1.419 1_554 S
C1409 C1410 1.363 . S
C1409 H1412 0.929 . S
C1410 C1409 1.363 . S
C1410 C1416 1.428 . S
H1411 C1407 0.930 . S
H1412 C1409 0.929 . S
S1413 N1414 1.613 . S
S1413 N1415 1.610 1_556 S
N1414 S1413 1.613 . S
N1414 C1417 1.350 . S
N1415 S1413 1.610 1_554 S
N1415 C1416 1.351 . S
C1416 C1410 1.428 . S
C1416 N1415 1.351 . S
C1416 C1417 1.434 1_554 S
C1417 C1408 1.429 . S
C1417 N1414 1.350 . S
C1417 C1416 1.434 1_556 S
C1418 C1419 1.369 . S
C1418 C1420 1.419 . S
C1418 H1422 0.930 . S
C1419 C1418 1.369 . S
C1419 C1428 1.429 . S
C1420 C1418 1.419 . S
C1420 C1421 1.363 . S
C1420 H1423 0.929 . S
C1421 C1420 1.363 . S
C1421 C1427 1.428 . S
H1422 C1418 0.930 . S
H1423 C1420 0.929 . S
S1424 N1425 1.613 . S
S1424 N1426 1.610 . S
N1425 S1424 1.613 . S
N1425 C1428 1.350 . S
N1426 S1424 1.610 . S
N1426 C1427 1.351 . S
C1427 C1421 1.428 . S
C1427 N1426 1.351 . S
C1427 C1428 1.434 . S
C1428 C1419 1.429 . S
C1428 N1425 1.350 . S
C1428 C1427 1.434 . S
C1429 C1430 1.369 . S
C1429 C1431 1.419 . S
C1429 H1433 0.930 . S
C1430 C1429 1.369 . S
C1430 C1439 1.429 . S
C1431 C1429 1.419 . S
C1431 C1432 1.363 . S
C1431 H1434 0.929 . S
C1432 C1431 1.363 . S
C1432 C1438 1.428 . S
H1433 C1429 0.930 . S
H1434 C1431 0.929 . S
S1435 N1436 1.613 . S
S1435 N1437 1.610 . S
N1436 S1435 1.613 . S
N1436 C1439 1.350 . S
N1437 S1435 1.610 . S
N1437 C1438 1.351 . S
C1438 C1432 1.428 . S
C1438 N1437 1.351 . S
C1438 C1439 1.434 . S
C1439 C1430 1.429 . S
C1439 N1436 1.350 . S
C1439 C1438 1.434 . S
C1440 C1441 1.369 . S
C1440 C1442 1.419 . S
C1440 H1444 0.930 . S
C1441 C1440 1.369 . S
C1441 C1450 1.429 1_655 S
C1442 C1440 1.419 . S
C1442 C1443 1.363 1_655 S
C1442 H1445 0.929 . S
C1443 C1442 1.363 1_455 S
C1443 C1449 1.428 . S
H1444 C1440 0.930 . S
H1445 C1442 0.929 . S
S1446 N1447 1.613 . S
S1446 N1448 1.610 . S
N1447 S1446 1.613 . S
N1447 C1450 1.350 . S
N1448 S1446 1.610 . S
N1448 C1449 1.351 . S
C1449 C1443 1.428 . S
C1449 N1448 1.351 . S
C1449 C1450 1.434 . S
C1450 C1441 1.429 1_455 S
C1450 N1447 1.350 . S
C1450 C1449 1.434 . S
C1451 C1452 1.369 . S
C1451 C1453 1.419 1_455 S
C1451 H1455 0.930 . S
C1452 C1451 1.369 . S
C1452 C1461 1.429 . S
C1453 C1451 1.419 1_655 S
C1453 C1454 1.363 . S
C1453 H1456 0.929 . S
C1454 C1453 1.363 . S
C1454 C1460 1.428 . S
H1455 C1451 0.930 . S
H1456 C1453 0.929 . S
S1457 N1458 1.613 1_655 S
S1457 N1459 1.610 . S
N1458 S1457 1.613 1_455 S
N1458 C1461 1.350 . S
N1459 S1457 1.610 . S
N1459 C1460 1.351 . S
C1460 C1454 1.428 . S
C1460 N1459 1.351 . S
C1460 C1461 1.434 1_655 S
C1461 C1452 1.429 . S
C1461 N1458 1.350 . S
C1461 C1460 1.434 1_455 S
C1462 C1463 1.369 . S
C1462 C1464 1.419 . S
C1462 H1466 0.930 . S
C1463 C1462 1.369 . S
C1463 C1472 1.429 . S
C1464 C1462 1.419 . S
C1464 C1465 1.363 . S
C1464 H1467 0.929 . S
C1465 C1464 1.363 . S
C1465 C1471 1.428 . S
H1466 C1462 0.930 . S
H1467 C1464 0.929 . S
S1468 N1469 1.613 . S
S1468 N1470 1.610 . S
N1469 S1468 1.613 . S
N1469 C1472 1.350 . S
N1470 S1468 1.610 . S
N1470 C1471 1.351 . S
C1471 C1465 1.428 . S
C1471 N1470 1.351 . S
C1471 C1472 1.434 . S
C1472 C1463 1.429 . S
C1472 N1469 1.350 . S
C1472 C1471 1.434 . S
C1473 C1474 1.369 . S
C1473 C1475 1.419 . S
C1473 H1477 0.930 . S
C1474 C1473 1.369 . S
C1474 C1483 1.429 . S
C1475 C1473 1.419 . S
C1475 C1476 1.363 . S
C1475 H1478 0.929 . S
C1476 C1475 1.363 . S
C1476 C1482 1.428 . S
H1477 C1473 0.930 . S
H1478 C1475 0.929 . S
S1479 N1480 1.613 . S
S1479 N1481 1.610 . S
N1480 S1479 1.613 . S
N1480 C1483 1.350 . S
N1481 S1479 1.610 . S
N1481 C1482 1.351 . S
C1482 C1476 1.428 . S
C1482 N1481 1.351 . S
C1482 C1483 1.434 . S
C1483 C1474 1.429 . S
C1483 N1480 1.350 . S
C1483 C1482 1.434 . S
C1484 C1485 1.369 1_455 S
C1484 C1486 1.419 . S
C1484 H1488 0.930 . S
C1485 C1484 1.369 1_655 S
C1485 C1494 1.429 . S
C1486 C1484 1.419 . S
C1486 C1487 1.363 . S
C1486 H1489 0.929 . S
C1487 C1486 1.363 . S
C1487 C1493 1.428 1_455 S
H1488 C1484 0.930 . S
H1489 C1486 0.929 . S
S1490 N1491 1.613 . S
S1490 N1492 1.610 . S
N1491 S1490 1.613 . S
N1491 C1494 1.350 . S
N1492 S1490 1.610 . S
N1492 C1493 1.351 . S
C1493 C1487 1.428 1_655 S
C1493 N1492 1.351 . S
C1493 C1494 1.434 . S
C1494 C1485 1.429 . S
C1494 N1491 1.350 . S
C1494 C1493 1.434 . S
C1495 C1496 1.369 . S
C1495 C1497 1.419 . S
C1495 H1499 0.930 . S
C1496 C1495 1.369 . S
C1496 C1505 1.429 . S
C1497 C1495 1.419 . S
C1497 C1498 1.363 . S
C1497 H1500 0.929 . S
C1498 C1497 1.363 . S
C1498 C1504 1.428 . S
H1499 C1495 0.930 . S
H1500 C1497 0.929 . S
S1501 N1502 1.613 . S
S1501 N1503 1.610 . S
N1502 S1501 1.613 . S
N1502 C1505 1.350 . S
N1503 S1501 1.610 . S
N1503 C1504 1.351 . S
C1504 C1498 1.428 . S
C1504 N1503 1.351 . S
C1504 C1505 1.434 . S
C1505 C1496 1.429 . S
C1505 N1502 1.350 . S
C1505 C1504 1.434 . S
C1506 C1507 1.369 . S
C1506 C1508 1.419 . S
C1506 H1510 0.930 . S
C1507 C1506 1.369 . S
C1507 C1516 1.429 . S
C1508 C1506 1.419 . S
C1508 C1509 1.363 . S
C1508 H1511 0.929 . S
C1509 C1508 1.363 . S
C1509 C1515 1.428 . S
H1510 C1506 0.930 . S
H1511 C1508 0.929 . S
S1512 N1513 1.613 . S
S1512 N1514 1.610 . S
N1513 S1512 1.613 . S
N1513 C1516 1.350 . S
N1514 S1512 1.610 . S
N1514 C1515 1.351 . S
C1515 C1509 1.428 . S
C1515 N1514 1.351 . S
C1515 C1516 1.434 . S
C1516 C1507 1.429 . S
C1516 N1513 1.350 . S
C1516 C1515 1.434 . S
C1517 C1518 1.369 . S
C1517 C1519 1.419 1_455 S
C1517 H1521 0.930 . S
C1518 C1517 1.369 . S
C1518 C1527 1.429 . S
C1519 C1517 1.419 1_655 S
C1519 C1520 1.363 . S
C1519 H1522 0.929 . S
C1520 C1519 1.363 . S
C1520 C1526 1.428 . S
H1521 C1517 0.930 . S
H1522 C1519 0.929 . S
S1523 N1524 1.613 . S
S1523 N1525 1.610 1_455 S
N1524 S1523 1.613 . S
N1524 C1527 1.350 1_554 S
N1525 S1523 1.610 1_655 S
N1525 C1526 1.351 1_554 S
C1526 C1520 1.428 . S
C1526 N1525 1.351 1_556 S
C1526 C1527 1.434 1_655 S
C1527 C1518 1.429 . S
C1527 N1524 1.350 1_556 S
C1527 C1526 1.434 1_455 S
C1528 C1529 1.369 . S
C1528 C1530 1.419 1_655 S
C1528 H1532 0.930 . S
C1529 C1528 1.369 . S
C1529 C1538 1.429 . S
C1530 C1528 1.419 1_455 S
C1530 C1531 1.363 . S
C1530 H1533 0.929 . S
C1531 C1530 1.363 . S
C1531 C1537 1.428 . S
H1532 C1528 0.930 . S
H1533 C1530 0.929 . S
S1534 N1535 1.613 1_455 S
S1534 N1536 1.610 . S
N1535 S1534 1.613 1_655 S
N1535 C1538 1.350 . S
N1536 S1534 1.610 . S
N1536 C1537 1.351 . S
C1537 C1531 1.428 . S
C1537 N1536 1.351 . S
C1537 C1538 1.434 1_455 S
C1538 C1529 1.429 . S
C1538 N1535 1.350 . S
C1538 C1537 1.434 1_655 S
C1539 C1540 1.369 1_455 S
C1539 C1541 1.419 . S
C1539 H1543 0.930 . S
C1540 C1539 1.369 1_655 S
C1540 C1549 1.429 . S
C1541 C1539 1.419 . S
C1541 C1542 1.363 . S
C1541 H1544 0.929 . S
C1542 C1541 1.363 . S
C1542 C1548 1.428 1_455 S
H1543 C1539 0.930 . S
H1544 C1541 0.929 . S
S1545 N1546 1.613 . S
S1545 N1547 1.610 . S
N1546 S1545 1.613 . S
N1546 C1549 1.350 . S
N1547 S1545 1.610 . S
N1547 C1548 1.351 . S
C1548 C1542 1.428 1_655 S
C1548 N1547 1.351 . S
C1548 C1549 1.434 . S
C1549 C1540 1.429 . S
C1549 N1546 1.350 . S
C1549 C1548 1.434 . S
C1550 C1551 1.369 . S
C1550 C1552 1.419 . S
C1550 H1554 0.930 . S
C1551 C1550 1.369 . S
C1551 C1560 1.429 . S
C1552 C1550 1.419 . S
C1552 C1553 1.363 . S
C1552 H1555 0.929 . S
C1553 C1552 1.363 . S
C1553 C1559 1.428 . S
H1554 C1550 0.930 . S
H1555 C1552 0.929 . S
S1556 N1557 1.613 . S
S1556 N1558 1.610 . S
N1557 S1556 1.613 . S
N1557 C1560 1.350 . S
N1558 S1556 1.610 . S
N1558 C1559 1.351 . S
C1559 C1553 1.428 . S
C1559 N1558 1.351 . S
C1559 C1560 1.434 . S
C1560 C1551 1.429 . S
C1560 N1557 1.350 . S
C1560 C1559 1.434 . S
C1561 C1562 1.369 . S
C1561 C1563 1.419 . S
C1561 H1565 0.930 . S
C1562 C1561 1.369 . S
C1562 C1571 1.429 1_556 S
C1563 C1561 1.419 . S
C1563 C1564 1.363 . S
C1563 H1566 0.929 . S
C1564 C1563 1.363 . S
C1564 C1570 1.428 1_556 S
H1565 C1561 0.930 . S
H1566 C1563 0.929 . S
S1567 N1568 1.613 . S
S1567 N1569 1.610 . S
N1568 S1567 1.613 . S
N1568 C1571 1.350 . S
N1569 S1567 1.610 . S
N1569 C1570 1.351 . S
C1570 C1564 1.428 1_554 S
C1570 N1569 1.351 . S
C1570 C1571 1.434 . S
C1571 C1562 1.429 1_554 S
C1571 N1568 1.350 . S
C1571 C1570 1.434 . S
C1572 C1573 1.369 . S
C1572 C1574 1.419 1_655 S
C1572 H1576 0.930 . S
C1573 C1572 1.369 . S
C1573 C1582 1.429 . S
C1574 C1572 1.419 1_455 S
C1574 C1575 1.363 . S
C1574 H1577 0.929 . S
C1575 C1574 1.363 . S
C1575 C1581 1.428 . S
H1576 C1572 0.930 . S
H1577 C1574 0.929 . S
S1578 N1579 1.613 . S
S1578 N1580 1.610 1_655 S
N1579 S1578 1.613 . S
N1579 C1582 1.350 . S
N1580 S1578 1.610 1_455 S
N1580 C1581 1.351 . S
C1581 C1575 1.428 . S
C1581 N1580 1.351 . S
C1581 C1582 1.434 1_455 S
C1582 C1573 1.429 . S
C1582 N1579 1.350 . S
C1582 C1581 1.434 1_655 S
C1583 C1584 1.369 . S
C1583 C1585 1.419 . S
C1583 H1587 0.930 . S
C1584 C1583 1.369 . S
C1584 C1593 1.429 . S
C1585 C1583 1.419 . S
C1585 C1586 1.363 . S
C1585 H1588 0.929 . S
C1586 C1585 1.363 . S
C1586 C1592 1.428 . S
H1587 C1583 0.930 . S
H1588 C1585 0.929 . S
S1589 N1590 1.613 . S
S1589 N1591 1.610 . S
N1590 S1589 1.613 . S
N1590 C1593 1.350 . S
N1591 S1589 1.610 . S
N1591 C1592 1.351 . S
C1592 C1586 1.428 . S
C1592 N1591 1.351 . S
C1592 C1593 1.434 . S
C1593 C1584 1.429 . S
C1593 N1590 1.350 . S
C1593 C1592 1.434 . S
C1594 C1595 1.369 . S
C1594 C1596 1.419 . S
C1594 H1598 0.930 . S
C1595 C1594 1.369 . S
C1595 C1604 1.429 . S
C1596 C1594 1.419 . S
C1596 C1597 1.363 . S
C1596 H1599 0.929 . S
C1597 C1596 1.363 . S
C1597 C1603 1.428 . S
H1598 C1594 0.930 . S
H1599 C1596 0.929 . S
S1600 N1601 1.613 . S
S1600 N1602 1.610 . S
N1601 S1600 1.613 . S
N1601 C1604 1.350 . S
N1602 S1600 1.610 . S
N1602 C1603 1.351 . S
C1603 C1597 1.428 . S
C1603 N1602 1.351 . S
C1603 C1604 1.434 . S
C1604 C1595 1.429 . S
C1604 N1601 1.350 . S
C1604 C1603 1.434 . S
C1605 C1606 1.369 . S
C1605 C1607 1.419 1_455 S
C1605 H1609 0.930 1_455 S
C1606 C1605 1.369 . S
C1606 C1615 1.429 1_554 S
C1607 C1605 1.419 1_655 S
C1607 C1608 1.363 . S
C1607 H1610 0.929 . S
C1608 C1607 1.363 . S
C1608 C1614 1.424 1_654 S
H1609 C1605 0.930 1_655 S
H1610 C1607 0.929 . S
S1611 N1612 1.613 . S
S1611 N1613 1.610 . S
N1612 S1611 1.613 . S
N1612 C1615 1.350 . S
N1613 S1611 1.610 . S
N1613 C1614 1.353 . S
C1614 C1608 1.424 1_456 S
C1614 N1613 1.353 . S
C1614 C1615 1.438 . S
C1615 C1606 1.429 1_556 S
C1615 N1612 1.350 . S
C1615 C1614 1.438 . S
C1616 C1617 1.369 . S
C1616 C1618 1.419 . S
C1616 H1620 0.930 . S
C1617 C1616 1.369 . S
C1617 C1626 1.429 . S
C1618 C1616 1.419 . S
C1618 C1619 1.363 . S
C1618 H1621 0.929 . S
C1619 C1618 1.363 . S
C1619 C1625 1.428 . S
H1620 C1616 0.930 . S
H1621 C1618 0.929 . S
S1622 N1623 1.613 . S
S1622 N1624 1.610 . S
N1623 S1622 1.613 . S
N1623 C1626 1.350 . S
N1624 S1622 1.610 . S
N1624 C1625 1.351 . S
C1625 C1619 1.428 . S
C1625 N1624 1.351 . S
C1625 C1626 1.434 . S
C1626 C1617 1.429 . S
C1626 N1623 1.350 . S
C1626 C1625 1.434 . S
C1627 C1628 1.369 . S
C1627 C1629 1.419 . S
C1627 H1631 0.930 . S
C1628 C1627 1.369 . S
C1628 C1637 1.429 . S
C1629 C1627 1.419 . S
C1629 C1630 1.363 . S
C1629 H1632 0.929 1_455 S
C1630 C1629 1.363 . S
C1630 C1636 1.428 . S
H1631 C1627 0.930 . S
H1632 C1629 0.929 1_655 S
S1633 N1634 1.613 . S
S1633 N1635 1.610 . S
N1634 S1633 1.613 . S
N1634 C1637 1.350 . S
N1635 S1633 1.610 . S
N1635 C1636 1.351 . S
C1636 C1630 1.428 . S
C1636 N1635 1.351 . S
C1636 C1637 1.434 . S
C1637 C1628 1.429 . S
C1637 N1634 1.350 . S
C1637 C1636 1.434 . S
C1638 C1639 1.369 . S
C1638 C1640 1.419 . S
C1638 H1642 0.930 . S
C1639 C1638 1.369 . S
C1639 C1648 1.429 . S
C1640 C1638 1.419 . S
C1640 C1641 1.363 . S
C1640 H1643 0.929 . S
C1641 C1640 1.363 . S
C1641 C1647 1.428 . S
H1642 C1638 0.930 . S
H1643 C1640 0.929 . S
S1644 N1645 1.613 . S
S1644 N1646 1.610 . S
N1645 S1644 1.613 . S
N1645 C1648 1.350 . S
N1646 S1644 1.610 . S
N1646 C1647 1.351 . S
C1647 C1641 1.428 . S
C1647 N1646 1.351 . S
C1647 C1648 1.434 . S
C1648 C1639 1.429 . S
C1648 N1645 1.350 . S
C1648 C1647 1.434 . S
C1649 C1650 1.369 . S
C1649 C1651 1.419 . S
C1649 H1653 0.930 . S
C1650 C1649 1.369 . S
C1650 C1659 1.429 . S
C1651 C1649 1.419 . S
C1651 C1652 1.363 . S
C1651 H1654 0.929 . S
C1652 C1651 1.363 . S
C1652 C1658 1.428 . S
H1653 C1649 0.930 . S
H1654 C1651 0.929 . S
S1655 N1656 1.613 . S
S1655 N1657 1.610 . S
N1656 S1655 1.613 . S
N1656 C1659 1.350 . S
N1657 S1655 1.610 . S
N1657 C1658 1.351 . S
C1658 C1652 1.428 . S
C1658 N1657 1.351 . S
C1658 C1659 1.434 . S
C1659 C1650 1.429 . S
C1659 N1656 1.350 . S
C1659 C1658 1.434 . S
C1660 C1661 1.369 . S
C1660 C1662 1.419 . S
C1660 H1664 0.930 . S
C1661 C1660 1.369 . S
C1661 C1670 1.429 . S
C1662 C1660 1.419 . S
C1662 C1663 1.363 . S
C1662 H1665 0.929 . S
C1663 C1662 1.363 . S
C1663 C1669 1.428 . S
H1664 C1660 0.930 . S
H1665 C1662 0.929 . S
S1666 N1667 1.613 . S
S1666 N1668 1.610 . S
N1667 S1666 1.613 . S
N1667 C1670 1.350 . S
N1668 S1666 1.610 . S
N1668 C1669 1.351 . S
C1669 C1663 1.428 . S
C1669 N1668 1.351 . S
C1669 C1670 1.434 . S
C1670 C1661 1.429 . S
C1670 N1667 1.350 . S
C1670 C1669 1.434 . S
C1671 C1672 1.369 . S
C1671 C1673 1.419 . S
C1671 H1675 0.930 . S
C1672 C1671 1.369 . S
C1672 C1681 1.429 . S
C1673 C1671 1.419 . S
C1673 C1674 1.363 . S
C1673 H1676 0.929 . S
C1674 C1673 1.363 . S
C1674 C1680 1.428 . S
H1675 C1671 0.930 . S
H1676 C1673 0.929 . S
S1677 N1678 1.613 . S
S1677 N1679 1.610 . S
N1678 S1677 1.613 . S
N1678 C1681 1.350 . S
N1679 S1677 1.610 . S
N1679 C1680 1.351 . S
C1680 C1674 1.428 . S
C1680 N1679 1.351 . S
C1680 C1681 1.434 . S
C1681 C1672 1.429 . S
C1681 N1678 1.350 . S
C1681 C1680 1.434 . S
C1682 C1683 1.369 . S
C1682 C1684 1.419 . S
C1682 H1686 0.930 . S
C1683 C1682 1.369 . S
C1683 C1692 1.429 . S
C1684 C1682 1.419 . S
C1684 C1685 1.363 . S
C1684 H1687 0.929 . S
C1685 C1684 1.363 . S
C1685 C1691 1.428 . S
H1686 C1682 0.930 . S
H1687 C1684 0.929 . S
S1688 N1689 1.613 . S
S1688 N1690 1.610 . S
N1689 S1688 1.613 . S
N1689 C1692 1.350 . S
N1690 S1688 1.610 . S
N1690 C1691 1.351 . S
C1691 C1685 1.428 . S
C1691 N1690 1.351 . S
C1691 C1692 1.434 . S
C1692 C1683 1.429 . S
C1692 N1689 1.350 . S
C1692 C1691 1.434 . S
C1693 C1694 1.369 . S
C1693 C1695 1.419 . S
C1693 H1697 0.930 1_455 S
C1694 C1693 1.369 . S
C1694 C1703 1.429 . S
C1695 C1693 1.419 . S
C1695 C1696 1.363 . S
C1695 H1698 0.929 . S
C1696 C1695 1.363 . S
C1696 C1702 1.428 . S
H1697 C1693 0.930 1_655 S
H1698 C1695 0.929 . S
S1699 N1700 1.613 . S
S1699 N1701 1.610 . S
N1700 S1699 1.613 . S
N1700 C1703 1.350 . S
N1701 S1699 1.610 . S
N1701 C1702 1.351 . S
C1702 C1696 1.428 . S
C1702 N1701 1.351 . S
C1702 C1703 1.434 . S
C1703 C1694 1.429 . S
C1703 N1700 1.350 . S
C1703 C1702 1.434 . S
C1704 C1705 1.369 . S
C1704 C1706 1.419 . S
C1704 H1708 0.930 . S
C1705 C1704 1.369 . S
C1705 C1714 1.429 . S
C1706 C1704 1.419 . S
C1706 C1707 1.363 . S
C1706 H1709 0.929 . S
C1707 C1706 1.363 . S
C1707 C1713 1.428 . S
H1708 C1704 0.930 . S
H1709 C1706 0.929 . S
S1710 N1711 1.613 . S
S1710 N1712 1.610 . S
N1711 S1710 1.613 . S
N1711 C1714 1.350 . S
N1712 S1710 1.610 . S
N1712 C1713 1.351 . S
C1713 C1707 1.428 . S
C1713 N1712 1.351 . S
C1713 C1714 1.434 . S
C1714 C1705 1.429 . S
C1714 N1711 1.350 . S
C1714 C1713 1.434 . S
C1715 C1716 1.369 . S
C1715 C1717 1.419 . S
C1715 H1719 0.930 . S
C1716 C1715 1.369 . S
C1716 C1725 1.429 . S
C1717 C1715 1.419 . S
C1717 C1718 1.363 . S
C1717 H1720 0.929 . S
C1718 C1717 1.363 . S
C1718 C1724 1.428 . S
H1719 C1715 0.930 . S
H1720 C1717 0.929 . S
S1721 N1722 1.613 . S
S1721 N1723 1.610 . S
N1722 S1721 1.613 . S
N1722 C1725 1.350 . S
N1723 S1721 1.610 . S
N1723 C1724 1.351 . S
C1724 C1718 1.428 . S
C1724 N1723 1.351 . S
C1724 C1725 1.434 . S
C1725 C1716 1.429 . S
C1725 N1722 1.350 . S
C1725 C1724 1.434 . S
C1726 C1727 1.369 . S
C1726 C1728 1.419 . S
C1726 H1730 0.930 . S
C1727 C1726 1.369 . S
C1727 C1736 1.429 . S
C1728 C1726 1.419 . S
C1728 C1729 1.363 . S
C1728 H1731 0.929 . S
C1729 C1728 1.363 . S
C1729 C1735 1.428 . S
H1730 C1726 0.930 . S
H1731 C1728 0.929 . S
S1732 N1733 1.613 . S
S1732 N1734 1.610 . S
N1733 S1732 1.613 . S
N1733 C1736 1.350 . S
N1734 S1732 1.610 . S
N1734 C1735 1.351 . S
C1735 C1729 1.428 . S
C1735 N1734 1.351 . S
C1735 C1736 1.434 . S
C1736 C1727 1.429 . S
C1736 N1733 1.350 . S
C1736 C1735 1.434 . S
C1737 C1738 1.369 . S
C1737 C1739 1.419 . S
C1737 H1741 0.930 . S
C1738 C1737 1.369 . S
C1738 C1747 1.429 . S
C1739 C1737 1.419 . S
C1739 C1740 1.363 . S
C1739 H1742 0.929 . S
C1740 C1739 1.363 . S
C1740 C1746 1.428 . S
H1741 C1737 0.930 . S
H1742 C1739 0.929 . S
S1743 N1744 1.613 . S
S1743 N1745 1.610 . S
N1744 S1743 1.613 . S
N1744 C1747 1.350 . S
N1745 S1743 1.610 . S
N1745 C1746 1.351 . S
C1746 C1740 1.428 . S
C1746 N1745 1.351 . S
C1746 C1747 1.434 . S
C1747 C1738 1.429 . S
C1747 N1744 1.350 . S
C1747 C1746 1.434 . S
C1748 C1749 1.369 . S
C1748 C1750 1.419 . S
C1748 H1752 0.930 . S
C1749 C1748 1.369 . S
C1749 C1758 1.429 . S
C1750 C1748 1.419 . S
C1750 C1751 1.363 . S
C1750 H1753 0.929 . S
C1751 C1750 1.363 . S
C1751 C1757 1.428 . S
H1752 C1748 0.930 . S
H1753 C1750 0.929 . S
S1754 N1755 1.613 . S
S1754 N1756 1.610 . S
N1755 S1754 1.613 . S
N1755 C1758 1.350 . S
N1756 S1754 1.610 . S
N1756 C1757 1.351 . S
C1757 C1751 1.428 . S
C1757 N1756 1.351 . S
C1757 C1758 1.434 . S
C1758 C1749 1.429 . S
C1758 N1755 1.350 . S
C1758 C1757 1.434 . S
C1759 C1760 1.369 . S
C1759 C1761 1.419 . S
C1759 H1763 0.930 . S
C1760 C1759 1.369 . S
C1760 C1769 1.429 . S
C1761 C1759 1.419 . S
C1761 C1762 1.363 . S
C1761 H1764 0.929 . S
C1762 C1761 1.363 . S
C1762 C1768 1.428 . S
H1763 C1759 0.930 . S
H1764 C1761 0.929 . S
S1765 N1766 1.613 . S
S1765 N1767 1.610 . S
N1766 S1765 1.613 . S
N1766 C1769 1.350 . S
N1767 S1765 1.610 . S
N1767 C1768 1.351 . S
C1768 C1762 1.428 . S
C1768 N1767 1.351 . S
C1768 C1769 1.434 . S
C1769 C1760 1.429 . S
C1769 N1766 1.350 . S
C1769 C1768 1.434 . S
C1770 C1771 1.369 . S
C1770 C1772 1.419 . S
C1770 H1774 0.930 . S
C1771 C1770 1.369 . S
C1771 C1780 1.429 . S
C1772 C1770 1.419 . S
C1772 C1773 1.363 . S
C1772 H1775 0.929 . S
C1773 C1772 1.363 . S
C1773 C1779 1.428 . S
H1774 C1770 0.930 . S
H1775 C1772 0.929 . S
S1776 N1777 1.613 . S
S1776 N1778 1.610 . S
N1777 S1776 1.613 . S
N1777 C1780 1.350 . S
N1778 S1776 1.610 . S
N1778 C1779 1.351 . S
C1779 C1773 1.428 . S
C1779 N1778 1.351 . S
C1779 C1780 1.434 . S
C1780 C1771 1.429 . S
C1780 N1777 1.350 . S
C1780 C1779 1.434 . S
C1781 C1782 1.369 . S
C1781 C1783 1.419 . S
C1781 H1785 0.930 . S
C1782 C1781 1.369 . S
C1782 C1791 1.429 . S
C1783 C1781 1.419 . S
C1783 C1784 1.363 . S
C1783 H1786 0.929 . S
C1784 C1783 1.363 . S
C1784 C1790 1.428 . S
H1785 C1781 0.930 . S
H1786 C1783 0.929 . S
S1787 N1788 1.613 . S
S1787 N1789 1.610 . S
N1788 S1787 1.613 . S
N1788 C1791 1.350 . S
N1789 S1787 1.610 . S
N1789 C1790 1.351 . S
C1790 C1784 1.428 . S
C1790 N1789 1.351 . S
C1790 C1791 1.434 . S
C1791 C1782 1.429 . S
C1791 N1788 1.350 . S
C1791 C1790 1.434 . S
C1792 C1793 1.369 . S
C1792 C1794 1.419 . S
C1792 H1796 0.930 . S
C1793 C1792 1.369 . S
C1793 C1802 1.429 . S
C1794 C1792 1.419 . S
C1794 C1795 1.363 . S
C1794 H1797 0.929 . S
C1795 C1794 1.363 . S
C1795 C1801 1.428 . S
H1796 C1792 0.930 . S
H1797 C1794 0.929 . S
S1798 N1799 1.613 . S
S1798 N1800 1.610 . S
N1799 S1798 1.613 . S
N1799 C1802 1.350 . S
N1800 S1798 1.610 . S
N1800 C1801 1.351 . S
C1801 C1795 1.428 . S
C1801 N1800 1.351 . S
C1801 C1802 1.434 . S
C1802 C1793 1.429 . S
C1802 N1799 1.350 . S
C1802 C1801 1.434 . S
C1803 C1804 1.369 . S
C1803 C1805 1.419 . S
C1803 H1807 0.930 . S
C1804 C1803 1.369 . S
C1804 C1813 1.429 . S
C1805 C1803 1.419 . S
C1805 C1806 1.363 . S
C1805 H1808 0.929 . S
C1806 C1805 1.363 . S
C1806 C1812 1.428 . S
H1807 C1803 0.930 . S
H1808 C1805 0.929 . S
S1809 N1810 1.613 . S
S1809 N1811 1.610 . S
N1810 S1809 1.613 . S
N1810 C1813 1.350 . S
N1811 S1809 1.610 . S
N1811 C1812 1.351 . S
C1812 C1806 1.428 . S
C1812 N1811 1.351 . S
C1812 C1813 1.434 . S
C1813 C1804 1.429 . S
C1813 N1810 1.350 . S
C1813 C1812 1.434 . S
C1814 C1815 1.369 . S
C1814 C1816 1.419 . S
C1814 H1818 0.930 . S
C1815 C1814 1.369 . S
C1815 C1824 1.429 . S
C1816 C1814 1.419 . S
C1816 C1817 1.363 . S
C1816 H1819 0.929 . S
C1817 C1816 1.363 . S
C1817 C1823 1.428 . S
H1818 C1814 0.930 . S
H1819 C1816 0.929 . S
S1820 N1821 1.613 . S
S1820 N1822 1.610 . S
N1821 S1820 1.613 . S
N1821 C1824 1.350 . S
N1822 S1820 1.610 . S
N1822 C1823 1.351 . S
C1823 C1817 1.428 . S
C1823 N1822 1.351 . S
C1823 C1824 1.434 . S
C1824 C1815 1.429 . S
C1824 N1821 1.350 . S
C1824 C1823 1.434 . S
C1825 C1826 1.369 . S
C1825 C1827 1.419 . S
C1825 H1829 0.930 . S
C1826 C1825 1.369 . S
C1826 C1835 1.429 . S
C1827 C1825 1.419 . S
C1827 C1828 1.363 . S
C1827 H1830 0.929 . S
C1828 C1827 1.363 . S
C1828 C1834 1.428 . S
H1829 C1825 0.930 . S
H1830 C1827 0.929 . S
S1831 N1832 1.613 . S
S1831 N1833 1.610 1_455 S
N1832 S1831 1.613 . S
N1832 C1835 1.350 1_455 S
N1833 S1831 1.610 1_655 S
N1833 C1834 1.351 . S
C1834 C1828 1.428 . S
C1834 N1833 1.351 . S
C1834 C1835 1.434 . S
C1835 C1826 1.429 . S
C1835 N1832 1.350 1_655 S
C1835 C1834 1.434 . S
C1836 C1837 1.369 . S
C1836 C1838 1.419 . S
C1836 H1840 0.930 . S
C1837 C1836 1.369 . S
C1837 C1846 1.429 . S
C1838 C1836 1.419 . S
C1838 C1839 1.363 . S
C1838 H1841 0.929 . S
C1839 C1838 1.363 . S
C1839 C1845 1.428 . S
H1840 C1836 0.930 . S
H1841 C1838 0.929 . S
S1842 N1843 1.613 . S
S1842 N1844 1.610 . S
N1843 S1842 1.613 . S
N1843 C1846 1.350 . S
N1844 S1842 1.610 . S
N1844 C1845 1.351 . S
C1845 C1839 1.428 . S
C1845 N1844 1.351 . S
C1845 C1846 1.434 . S
C1846 C1837 1.429 . S
C1846 N1843 1.350 . S
C1846 C1845 1.434 . S
C1847 C1848 1.369 . S
C1847 C1849 1.419 . S
C1847 H1851 0.930 . S
C1848 C1847 1.369 . S
C1848 C1857 1.429 . S
C1849 C1847 1.419 . S
C1849 C1850 1.363 . S
C1849 H1852 0.929 . S
C1850 C1849 1.363 . S
C1850 C1856 1.428 . S
H1851 C1847 0.930 . S
H1852 C1849 0.929 . S
S1853 N1854 1.613 . S
S1853 N1855 1.610 . S
N1854 S1853 1.613 . S
N1854 C1857 1.350 . S
N1855 S1853 1.610 . S
N1855 C1856 1.351 . S
C1856 C1850 1.428 . S
C1856 N1855 1.351 . S
C1856 C1857 1.434 . S
C1857 C1848 1.429 . S
C1857 N1854 1.350 . S
C1857 C1856 1.434 . S
C1858 C1859 1.369 . S
C1858 C1860 1.419 . S
C1858 H1862 0.930 . S
C1859 C1858 1.369 . S
C1859 C1868 1.429 . S
C1860 C1858 1.419 . S
C1860 C1861 1.363 . S
C1860 H1863 0.929 . S
C1861 C1860 1.363 . S
C1861 C1867 1.428 . S
H1862 C1858 0.930 . S
H1863 C1860 0.929 . S
S1864 N1865 1.613 . S
S1864 N1866 1.610 . S
N1865 S1864 1.613 . S
N1865 C1868 1.350 . S
N1866 S1864 1.610 . S
N1866 C1867 1.351 . S
C1867 C1861 1.428 . S
C1867 N1866 1.351 . S
C1867 C1868 1.434 . S
C1868 C1859 1.429 . S
C1868 N1865 1.350 . S
C1868 C1867 1.434 . S
C1869 C1870 1.369 . S
C1869 C1871 1.419 . S
C1869 H1873 0.930 . S
C1870 C1869 1.369 . S
C1870 C1879 1.429 . S
C1871 C1869 1.419 . S
C1871 C1872 1.363 . S
C1871 H1874 0.929 . S
C1872 C1871 1.363 . S
C1872 C1878 1.428 . S
H1873 C1869 0.930 . S
H1874 C1871 0.929 . S
S1875 N1876 1.613 . S
S1875 N1877 1.610 . S
N1876 S1875 1.613 . S
N1876 C1879 1.350 . S
N1877 S1875 1.610 . S
N1877 C1878 1.351 . S
C1878 C1872 1.428 . S
C1878 N1877 1.351 . S
C1878 C1879 1.434 . S
C1879 C1870 1.429 . S
C1879 N1876 1.350 . S
C1879 C1878 1.434 . S
C1880 C1881 1.369 . S
C1880 C1882 1.419 . S
C1880 H1884 0.930 . S
C1881 C1880 1.369 . S
C1881 C1890 1.429 . S
C1882 C1880 1.419 . S
C1882 C1883 1.363 . S
C1882 H1885 0.929 . S
C1883 C1882 1.363 . S
C1883 C1889 1.428 . S
H1884 C1880 0.930 . S
H1885 C1882 0.929 . S
S1886 N1887 1.613 . S
S1886 N1888 1.610 . S
N1887 S1886 1.613 . S
N1887 C1890 1.350 . S
N1888 S1886 1.610 . S
N1888 C1889 1.351 . S
C1889 C1883 1.428 . S
C1889 N1888 1.351 . S
C1889 C1890 1.434 . S
C1890 C1881 1.429 . S
C1890 N1887 1.350 . S
C1890 C1889 1.434 . S
C1891 C1892 1.369 . S
C1891 C1893 1.419 . S
C1891 H1895 0.930 . S
C1892 C1891 1.369 . S
C1892 C1901 1.429 . S
C1893 C1891 1.419 . S
C1893 C1894 1.363 . S
C1893 H1896 0.929 . S
C1894 C1893 1.363 . S
C1894 C1900 1.428 . S
H1895 C1891 0.930 . S
H1896 C1893 0.929 . S
S1897 N1898 1.613 . S
S1897 N1899 1.610 . S
N1898 S1897 1.613 . S
N1898 C1901 1.350 . S
N1899 S1897 1.610 . S
N1899 C1900 1.351 . S
C1900 C1894 1.428 . S
C1900 N1899 1.351 . S
C1900 C1901 1.434 . S
C1901 C1892 1.429 . S
C1901 N1898 1.350 . S
C1901 C1900 1.434 . S
C1902 C1903 1.369 . S
C1902 C1904 1.419 . S
C1902 H1906 0.930 . S
C1903 C1902 1.369 . S
C1903 C1912 1.429 . S
C1904 C1902 1.419 . S
C1904 C1905 1.363 . S
C1904 H1907 0.929 . S
C1905 C1904 1.363 . S
C1905 C1911 1.428 . S
H1906 C1902 0.930 . S
H1907 C1904 0.929 . S
S1908 N1909 1.613 . S
S1908 N1910 1.610 . S
N1909 S1908 1.613 . S
N1909 C1912 1.350 . S
N1910 S1908 1.610 . S
N1910 C1911 1.351 . S
C1911 C1905 1.428 . S
C1911 N1910 1.351 . S
C1911 C1912 1.434 . S
C1912 C1903 1.429 . S
C1912 N1909 1.350 . S
C1912 C1911 1.434 . S
C1913 C1914 1.369 . S
C1913 C1915 1.419 . S
C1913 H1917 0.930 . S
C1914 C1913 1.369 . S
C1914 C1923 1.429 . S
C1915 C1913 1.419 . S
C1915 C1916 1.363 . S
C1915 H1918 0.929 . S
C1916 C1915 1.363 . S
C1916 C1922 1.428 . S
H1917 C1913 0.930 . S
H1918 C1915 0.929 . S
S1919 N1920 1.613 . S
S1919 N1921 1.610 . S
N1920 S1919 1.613 . S
N1920 C1923 1.350 . S
N1921 S1919 1.610 . S
N1921 C1922 1.351 . S
C1922 C1916 1.428 . S
C1922 N1921 1.351 . S
C1922 C1923 1.434 . S
C1923 C1914 1.429 . S
C1923 N1920 1.350 . S
C1923 C1922 1.434 . S
C1924 C1925 1.369 . S
C1924 C1926 1.419 . S
C1924 H1928 0.930 . S
C1925 C1924 1.369 . S
C1925 C1934 1.429 . S
C1926 C1924 1.419 . S
C1926 C1927 1.363 . S
C1926 H1929 0.929 . S
C1927 C1926 1.363 . S
C1927 C1933 1.428 . S
H1928 C1924 0.930 . S
H1929 C1926 0.929 . S
S1930 N1931 1.613 . S
S1930 N1932 1.610 . S
N1931 S1930 1.613 . S
N1931 C1934 1.350 . S
N1932 S1930 1.610 . S
N1932 C1933 1.351 . S
C1933 C1927 1.428 . S
C1933 N1932 1.351 . S
C1933 C1934 1.434 . S
C1934 C1925 1.429 . S
C1934 N1931 1.350 . S
C1934 C1933 1.434 . S
C1935 C1936 1.369 . S
C1935 C1937 1.419 . S
C1935 H1939 0.930 . S
C1936 C1935 1.369 . S
C1936 C1945 1.429 . S
C1937 C1935 1.419 . S
C1937 C1938 1.363 . S
C1937 H1940 0.929 . S
C1938 C1937 1.363 . S
C1938 C1944 1.428 . S
H1939 C1935 0.930 . S
H1940 C1937 0.929 . S
S1941 N1942 1.613 1_455 S
S1941 N1943 1.610 . S
N1942 S1941 1.613 1_655 S
N1942 C1945 1.350 1_655 S
N1943 S1941 1.610 . S
N1943 C1944 1.351 . S
C1944 C1938 1.428 . S
C1944 N1943 1.351 . S
C1944 C1945 1.434 . S
C1945 C1936 1.429 . S
C1945 N1942 1.350 1_455 S
C1945 C1944 1.434 . S
C1946 C1947 1.369 . S
C1946 C1948 1.419 . S
C1946 H1950 0.930 . S
C1947 C1946 1.369 . S
C1947 C1956 1.429 . S
C1948 C1946 1.419 . S
C1948 C1949 1.363 . S
C1948 H1951 0.929 . S
C1949 C1948 1.363 . S
C1949 C1955 1.428 . S
H1950 C1946 0.930 . S
H1951 C1948 0.929 . S
S1952 N1953 1.613 . S
S1952 N1954 1.610 . S
N1953 S1952 1.613 . S
N1953 C1956 1.350 . S
N1954 S1952 1.610 . S
N1954 C1955 1.351 . S
C1955 C1949 1.428 . S
C1955 N1954 1.351 . S
C1955 C1956 1.434 . S
C1956 C1947 1.429 . S
C1956 N1953 1.350 . S
C1956 C1955 1.434 . S
C1957 C1958 1.369 . S
C1957 C1959 1.419 . S
C1957 H1961 0.930 . S
C1958 C1957 1.369 . S
C1958 C1967 1.429 . S
C1959 C1957 1.419 . S
C1959 C1960 1.363 . S
C1959 H1962 0.929 . S
C1960 C1959 1.363 . S
C1960 C1966 1.428 . S
H1961 C1957 0.930 . S
H1962 C1959 0.929 . S
S1963 N1964 1.613 . S
S1963 N1965 1.610 . S
N1964 S1963 1.613 . S
N1964 C1967 1.350 . S
N1965 S1963 1.610 . S
N1965 C1966 1.351 . S
C1966 C1960 1.428 . S
C1966 N1965 1.351 . S
C1966 C1967 1.434 . S
C1967 C1958 1.429 . S
C1967 N1964 1.350 . S
C1967 C1966 1.434 . S
C1089 C247 1.298 . S
C1091 C9 1.297 . S
C1100 C43 1.296 . S
C1102 C145 1.297 . S
C1111 C77 1.296 . S
C1113 C179 1.296 . S
C1122 C213 1.297 . S
C1124 C111 1.297 . S
C1133 C530 1.631 . S
C1135 C292 1.632 . S
C1144 C428 1.631 . S
C1146 C326 1.630 . S
C1155 C360 1.629 . S
C1157 C462 1.629 . S
C1166 C394 1.630 . S
C1168 C496 1.630 . S
C1177 C791 1.299 . S
C1179 C553 1.299 . S
C1188 C587 1.299 . S
C1190 C689 1.298 . S
C1199 C621 1.299 . S
C1201 C723 1.298 . S
C1210 C757 1.299 . S
C1212 C655 1.298 . S
C1221 C1074 1.630 . S
C1223 C836 1.630 . S
C1232 C870 1.632 . S
C1234 C972 1.632 . S
C1243 C1006 1.633 . S
C1245 C904 1.632 . S
C1254 C1040 1.629 . S
C1256 C938 1.629 . S
C1265 C156 2.340 . S
C1267 C20 2.339 . S
C1276 C54 2.337 . S
C1278 C190 2.340 . S
C1287 C224 2.341 . S
C1289 C88 2.338 . S
C1298 C122 2.340 . S
C1300 C258 2.338 . S
C1309 C417 0.821 . S
C1311 C281 0.809 . S
C1320 C315 0.819 . S
C1322 C451 0.809 . S
C1331 C349 0.822 . S
C1333 C485 0.818 . S
C1342 C519 0.824 . S
C1344 C383 0.815 . S
C1353 C700 2.341 . S
C1355 C564 2.338 . S
C1364 C734 2.340 . S
C1366 C598 2.338 . S
C1375 C768 2.341 . S
C1377 C632 2.338 . S
C1386 C802 2.337 . S
C1388 C666 2.340 . S
C1397 C961 0.807 . S
C1399 C825 0.820 . S
C1408 C859 0.820 . S
C1410 C995 0.820 . S
C1419 C1029 0.817 . S
C1421 C893 0.809 . S
C1430 C1063 0.824 . S
C1432 C927 0.812 . S
C1441 C614 1.645 . S
C1443 C2 1.642 . S
C1452 C36 1.639 . S
C1454 C648 1.643 . S
C1463 C70 1.639 . S
C1465 C546 1.642 . S
C1474 C104 1.644 . S
C1476 C580 1.641 . S
C1485 C750 1.640 . S
C1487 C138 1.644 . S
C1496 C784 1.639 . S
C1498 C172 1.641 . S
C1507 C206 1.639 . S
C1509 C682 1.642 . S
C1518 C240 1.643 . S
C1520 C716 1.643 . S
C1529 C277 0.785 . S
C1531 C889 0.808 . S
C1540 C311 0.790 . S
C1542 C923 0.804 . S
C1551 C821 0.782 . S
C1553 C345 0.810 . S
C1562 C379 0.810 . S
C1564 C855 0.789 . S
C1573 C413 0.813 . S
C1575 C1025 0.786 . S
C1584 C1059 0.793 . S
C1586 C447 0.802 . S
C1595 C481 0.810 . S
C1597 C957 0.788 . S
C1606 C991 0.791 . S
C1608 C515 0.804 . S
C1617 C920 2.059 . S
C1619 C33 1.981 . S
C1628 C67 1.978 . S
C1630 C274 2.056 1_455 S
C1639 C101 1.982 . S
C1641 C852 2.059 . S
C1650 C342 2.055 . S
C1652 C135 1.977 . S
C1661 C988 2.059 . S
C1663 C169 1.981 . S
C1672 C203 1.977 . S
C1674 C478 2.056 . S
C1683 C1056 2.058 . S
C1685 C237 1.982 . S
C1694 C410 2.059 1_455 S
C1696 C271 1.983 . S
C1705 C305 0.834 . S
C1707 C651 0.817 . S
C1716 C339 0.832 . S
C1718 C5 0.816 . S
C1727 C583 0.829 . S
C1729 C373 0.824 . S
C1738 C407 0.836 . S
C1740 C73 0.826 . S
C1749 C441 0.821 . S
C1751 C719 0.822 . S
C1760 C475 0.829 . S
C1762 C209 0.815 . S
C1771 C509 0.836 . S
C1773 C787 0.819 . S
C1782 C141 0.829 . S
C1784 C543 0.834 . S
C1793 C577 1.978 . S
C1795 C376 2.058 . S
C1804 C818 2.058 . S
C1806 C611 1.981 . S
C1815 C308 2.059 . S
C1817 C645 1.981 . S
C1826 C886 2.056 1_655 S
C1828 C679 1.978 . S
C1837 C713 1.979 . S
C1839 C444 2.058 . S
C1848 C747 1.976 . S
C1850 C1022 2.056 1_655 S
C1859 C512 2.060 . S
C1861 C781 1.983 . S
C1870 C815 1.979 . S
C1872 C954 2.057 . S
C1881 C849 0.822 . S
C1883 C107 0.826 . S
C1892 C549 0.825 . S
C1894 C883 0.835 . S
C1903 C917 0.831 . S
C1905 C39 0.830 . S
C1914 C951 0.836 . S
C1916 C617 0.819 . S
C1925 C985 0.832 . S
C1927 C175 0.816 . S
C1936 C753 0.828 . S
C1938 C1019 0.824 . S
C1947 C1053 0.822 . S
C1949 C243 0.826 . S
C1958 C1087 0.835 . S
C1960 C685 0.818 . S
