# Generated by pormake.
# Topology ukh, (4)-cn, num edge types: 1
# Building blocks:
#     Node 0, Type 0, BuildingBlock: NAHDIM_clean_sbu_0, # of connection points: 4
#     Node 1, Type 0, BuildingBlock: NAHDIM_clean_sbu_0, # of connection points: 4
#     Node 2, Type 0, BuildingBlock: NAHDIM_clean_sbu_0, # of connection points: 4
#     Node 3, Type 0, BuildingBlock: NAHDIM_clean_sbu_0, # of connection points: 4
#     Node 4, Type 0, BuildingBlock: NAHDIM_clean_sbu_0, # of connection points: 4
#     Node 5, Type 0, BuildingBlock: NAHDIM_clean_sbu_0, # of connection points: 4
#     Node 6, Type 0, BuildingBlock: NAHDIM_clean_sbu_0, # of connection points: 4
#     Node 7, Type 0, BuildingBlock: NAHDIM_clean_sbu_0, # of connection points: 4
#     Node 8, Type 0, BuildingBlock: NAHDIM_clean_sbu_0, # of connection points: 4
#     Node 9, Type 0, BuildingBlock: NAHDIM_clean_sbu_0, # of connection points: 4
#     Node 10, Type 0, BuildingBlock: NAHDIM_clean_sbu_0, # of connection points: 4
#     Node 11, Type 0, BuildingBlock: NAHDIM_clean_sbu_0, # of connection points: 4
#     Edge 12, Type (0, 0), BuildingBlock: AJUNOK_clean_linker_0, # of connection points: 2
#     Edge 13, Type (0, 0), BuildingBlock: AJUNOK_clean_linker_0, # of connection points: 2
#     Edge 14, Type (0, 0), BuildingBlock: AJUNOK_clean_linker_0, # of connection points: 2
#     Edge 15, Type (0, 0), BuildingBlock: AJUNOK_clean_linker_0, # of connection points: 2
#     Edge 16, Type (0, 0), BuildingBlock: AJUNOK_clean_linker_0, # of connection points: 2
#     Edge 17, Type (0, 0), BuildingBlock: AJUNOK_clean_linker_0, # of connection points: 2
#     Edge 18, Type (0, 0), BuildingBlock: AJUNOK_clean_linker_0, # of connection points: 2
#     Edge 19, Type (0, 0), BuildingBlock: AJUNOK_clean_linker_0, # of connection points: 2
#     Edge 20, Type (0, 0), BuildingBlock: AJUNOK_clean_linker_0, # of connection points: 2
#     Edge 21, Type (0, 0), BuildingBlock: AJUNOK_clean_linker_0, # of connection points: 2
#     Edge 22, Type (0, 0), BuildingBlock: AJUNOK_clean_linker_0, # of connection points: 2
#     Edge 23, Type (0, 0), BuildingBlock: AJUNOK_clean_linker_0, # of connection points: 2
#     Edge 24, Type (0, 0), BuildingBlock: AJUNOK_clean_linker_0, # of connection points: 2
#     Edge 25, Type (0, 0), BuildingBlock: AJUNOK_clean_linker_0, # of connection points: 2
#     Edge 26, Type (0, 0), BuildingBlock: AJUNOK_clean_linker_0, # of connection points: 2
#     Edge 27, Type (0, 0), BuildingBlock: AJUNOK_clean_linker_0, # of connection points: 2
#     Edge 28, Type (0, 0), BuildingBlock: AJUNOK_clean_linker_0, # of connection points: 2
#     Edge 29, Type (0, 0), BuildingBlock: AJUNOK_clean_linker_0, # of connection points: 2
#     Edge 30, Type (0, 0), BuildingBlock: AJUNOK_clean_linker_0, # of connection points: 2
#     Edge 31, Type (0, 0), BuildingBlock: AJUNOK_clean_linker_0, # of connection points: 2
#     Edge 32, Type (0, 0), BuildingBlock: AJUNOK_clean_linker_0, # of connection points: 2
#     Edge 33, Type (0, 0), BuildingBlock: AJUNOK_clean_linker_0, # of connection points: 2
#     Edge 34, Type (0, 0), BuildingBlock: AJUNOK_clean_linker_0, # of connection points: 2
#     Edge 35, Type (0, 0), BuildingBlock: AJUNOK_clean_linker_0, # of connection points: 2
# Relax obj value: 0.182
# Max RMSD: 0.213
# Mean RMSD: 0.213
data_MOF--net-ukh--node1-NAHDIM_clean_sbu_0--edge1-AJUNOK_clean_linker_0
_symmetry_space_group_name_H-M    P1
_symmetry_Int_Tables_number       1
_symmetry_cell_setting            triclinic
loop_
_symmetry_equiv_pos_as_xyz
'x, y, z'
_cell_length_a     23.985366
_cell_length_b     23.987269
_cell_length_c     44.30756
_cell_angle_alpha  90.010936
_cell_angle_beta   90.236298
_cell_angle_gamma 120.27305
loop_
_atom_site_label
_atom_site_type_symbol
_atom_site_fract_x
_atom_site_fract_y
_atom_site_fract_z
_atom_type_partial_charge
C0 C 0.40162 0.36394 0.03922 0.0
O1 O 0.34219 0.3493 0.04526 0.0
O2 O 0.26109 0.2192 0.01927 0.0
Zn3 Zn 0.3377 0.22856 0.04276 0.0
O4 O 0.32028 0.21476 0.0871 0.0
C5 C 0.33784 0.1311 0.00456 0.0
O6 O 0.32546 0.16111 0.98306 0.0
O7 O 0.41371 0.31824 0.03647 0.0
C8 C 0.27832 0.1597 0.09707 0.0
O9 O 0.24123 0.11379 0.07797 0.0
C10 C 0.20959 0.21201 0.03096 0.0
O11 O 0.20457 0.21146 0.06047 0.0
O12 O 0.35211 0.15623 0.03067 0.0
C13 C 0.03479 0.41431 0.3747 0.0
O14 O 0.01339 0.36534 0.3934 0.0
O15 O 0.04614 0.27774 0.34576 0.0
Zn16 Zn 0.1126 0.3626 0.3638 0.0
O17 O 0.12361 0.35523 0.40819 0.0
C18 C 0.20206 0.36272 0.32119 0.0
O19 O 0.15175 0.33939 0.30306 0.0
O20 O 0.08209 0.4263 0.35764 0.0
C21 C 0.14769 0.32197 0.41778 0.0
O22 O 0.16012 0.28828 0.39839 0.0
C23 C 0.0032 0.22952 0.36019 0.0
O24 O 0.00028 0.23309 0.38967 0.0
O25 O 0.19885 0.38578 0.34648 0.0
C26 C 0.63162 0.03024 0.70503 0.0
O27 O 0.64535 0.98545 0.71245 0.0
O28 O 0.76101 0.02097 0.68036 0.0
Zn29 Zn 0.76612 0.09612 0.70264 0.0
O30 O 0.78778 0.09398 0.74645 0.0
C31 C 0.84342 0.17908 0.6549 0.0
O32 O 0.79623 0.13443 0.63849 0.0
O33 O 0.67795 0.08687 0.6995 0.0
C34 C 0.84387 0.1323 0.7569 0.0
O35 O 0.88892 0.17322 0.73865 0.0
C36 C 0.79422 0.9946 0.68627 0.0
O37 O 0.83503 0.01621 0.70906 0.0
O38 O 0.83756 0.17614 0.68339 0.0
C39 C 0.61165 0.63155 0.04312 0.0
O40 O 0.66993 0.64208 0.049 0.0
O41 O 0.75942 0.77259 0.03084 0.0
Zn42 Zn 0.68095 0.76757 0.04948 0.0
O43 O 0.69554 0.78238 0.09406 0.0
C44 C 0.67646 0.8595 0.00684 0.0
O45 O 0.67752 0.82211 0.98545 0.0
O46 O 0.60308 0.6797 0.04158 0.0
C47 C 0.66172 0.8019 0.10739 0.0
O48 O 0.61748 0.80651 0.09183 0.0
C49 C 0.81235 0.82586 0.02923 0.0
O50 O 0.81533 0.87823 0.04013 0.0
O51 O 0.6734 0.8424 0.03416 0.0
C52 C 0.92644 0.58188 0.38319 0.0
O53 O 0.94114 0.616 0.40815 0.0
O54 O 0.94551 0.74258 0.34937 0.0
Zn55 Zn 0.87633 0.66349 0.37018 0.0
O56 O 0.87543 0.67807 0.41468 0.0
C57 C 0.77808 0.66525 0.33206 0.0
O58 O 0.82079 0.68213 0.31039 0.0
O59 O 0.89471 0.59101 0.36263 0.0
C60 C 0.8747 0.72641 0.4259 0.0
O61 O 0.87929 0.77226 0.40806 0.0
C62 C -0.0022 0.78244 0.36255 0.0
O63 O 0.00681 0.77264 0.39087 0.0
O64 O 0.78935 0.64779 0.35727 0.0
C65 C 0.36056 0.95847 0.70467 0.0
O66 O 0.34378 0.00144 0.7111 0.0
O67 O 0.21931 0.95333 0.68603 0.0
Zn68 Zn 0.22568 0.88255 0.70695 0.0
O69 O 0.20959 0.88541 0.75118 0.0
C70 C 0.13536 0.78671 0.66454 0.0
O71 O 0.16958 0.83055 0.64422 0.0
O72 O 0.31644 0.89968 0.70151 0.0
C73 C 0.15197 0.85544 0.76093 0.0
O74 O 0.10404 0.82608 0.74165 0.0
C75 C 0.16724 0.95218 0.67933 0.0
O76 O 0.11171 0.90095 0.68604 0.0
O77 O 0.15525 0.79635 0.69168 0.0
C78 C 0.62474 0.58277 0.62253 0.0
O79 O 0.63467 0.64163 0.62504 0.0
O80 O 0.77223 0.73253 0.63014 0.0
Zn81 Zn 0.76054 0.65323 0.6086 0.0
O82 O 0.77 0.66846 0.56404 0.0
C83 C 0.86106 0.65384 0.64546 0.0
O84 O 0.8308 0.66298 0.66787 0.0
O85 O 0.67251 0.57522 0.6168 0.0
C86 C 0.81948 0.71795 0.5536 0.0
O87 O 0.86182 0.76107 0.57236 0.0
C88 C 0.75754 0.77122 0.61775 0.0
O89 O 0.73288 0.75841 0.59039 0.0
O90 O 0.83569 0.64215 0.61937 0.0
C91 C 0.02808 0.62682 0.9519 0.0
O92 O 0.98086 0.63773 0.94554 0.0
O93 O 0.02703 0.77101 0.96794 0.0
Zn94 Zn 0.0969 0.76301 0.94692 0.0
O95 O 0.08982 0.77293 0.90227 0.0
C96 C 0.19835 0.85673 0.9867 0.0
O97 O 0.15869 0.82283 0.00849 0.0
O98 O 0.08505 0.67483 0.95454 0.0
C99 C 0.11921 0.82892 0.89061 0.0
O100 O 0.15174 0.87945 0.90816 0.0
C101 C 0.03111 0.82519 0.97284 0.0
O102 O 0.08293 0.87821 0.96406 0.0
O103 O 0.18375 0.83627 0.95977 0.0
C104 C 0.44432 0.10823 0.2767 0.0
O105 O 0.44972 0.14241 0.25257 0.0
O106 O 0.24436 0.0411 0.30383 0.0
Zn107 Zn 0.3241 0.10632 0.2821 0.0
O108 O 0.31296 0.09816 0.23729 0.0
C109 C 0.32731 0.21361 0.31472 0.0
O110 O 0.31507 0.17731 0.33878 0.0
O111 O 0.39644 0.09139 0.29402 0.0
C112 C 0.26597 0.0988 0.22431 0.0
O113 O 0.21887 0.09573 0.24059 0.0
C114 C 0.20732 0.98495 0.29329 0.0
O115 O 0.21973 0.96975 0.26666 0.0
O116 O 0.33897 0.195 0.29 0.0
C117 C 0.35903 0.37161 0.61189 0.0
O118 O 0.34681 0.31566 0.60093 0.0
O119 O 0.22017 0.22626 0.62072 0.0
Zn120 Zn 0.22502 0.30611 0.60386 0.0
O121 O 0.2205 0.30015 0.55868 0.0
C122 C 0.09706 0.28729 0.60325 0.0
O123 O 0.09849 0.26555 0.57624 0.0
O124 O 0.31204 0.38138 0.61575 0.0
C125 C 0.22288 0.34699 0.54424 0.0
O126 O 0.23149 0.39787 0.55939 0.0
C127 C 0.16933 0.17112 0.62129 0.0
O128 O 0.11548 0.1643 0.61003 0.0
O129 O 0.14775 0.31057 0.61962 0.0
C130 C 0.971 0.36013 0.94945 0.0
O131 O 0.01705 0.34717 0.94396 0.0
O132 O 0.96633 0.2144 0.9649 0.0
Zn133 Zn 0.89989 0.22498 0.94178 0.0
O134 O 0.90694 0.21489 0.89722 0.0
C135 C 0.80385 0.13129 0.98107 0.0
O136 O 0.84628 0.16724 0.00177 0.0
O137 O 0.91287 0.31365 0.95005 0.0
C138 C 0.88397 0.15833 0.88647 0.0
O139 O 0.86127 0.10909 0.90504 0.0
C140 C 0.01426 0.21358 0.95335 0.0
O141 O 0.02357 0.22137 0.92409 0.0
O142 O 0.81331 0.15125 0.95403 0.0
C143 C 0.6121 0.99851 0.28336 0.0
O144 O 0.66811 0.02905 0.26962 0.0
O145 O 0.74255 0.9793 0.30788 0.0
Zn146 Zn 0.65912 0.91472 0.28755 0.0
O147 O 0.66938 0.9108 0.2429 0.0
C148 C 0.65394 0.81511 0.32602 0.0
O149 O 0.679 0.8617 0.34618 0.0
O150 O 0.59409 0.94304 0.29443 0.0
C151 C 0.70078 0.88506 0.23293 0.0
O152 O 0.73187 0.86877 0.25218 0.0
C153 C 0.79372 0.01807 0.29383 0.0
O154 O 0.79381 0.0162 0.26422 0.0
O155 O 0.63371 0.82512 0.30128 0.0
C156 C 0.56934 0.51265 0.03983 0.0
C157 C 0.55701 0.56421 0.03994 0.0
C158 C 0.51901 0.44827 0.03873 0.0
C159 C 0.45407 0.43258 0.03789 0.0
H160 H 0.61839 0.52185 0.04101 0.0
H161 H 0.53124 0.41054 0.03928 0.0
S162 S 0.39542 0.54943 0.03568 0.0
N163 N 0.47474 0.59504 0.03756 0.0
N164 N 0.38018 0.47422 0.03556 0.0
C165 C 0.44096 0.48364 0.0371 0.0
C166 C 0.49234 0.54932 0.03809 0.0
C167 C 0.97973 0.46261 0.40257 0.0
C168 C 0.00598 0.45611 0.37538 0.0
C169 C 0.95289 0.50241 0.40456 0.0
C170 C 0.94964 0.53592 0.37926 0.0
H171 H 0.98123 0.43789 0.42275 0.0
H172 H 0.93475 0.5072 0.42619 0.0
S173 S 0.00908 0.53338 0.30244 0.0
N174 N 0.02608 0.48557 0.32238 0.0
N175 N 0.97365 0.55925 0.32595 0.0
C176 C 0.97405 0.52864 0.35167 0.0
C177 C 0.00289 0.48913 0.3498 0.0
C178 C 0.44844 0.93126 0.70549 0.0
C179 C 0.42981 0.97801 0.70297 0.0
C180 C 0.51369 0.94884 0.70587 0.0
C181 C 0.56314 0.01386 0.70347 0.0
H182 H 0.41243 0.88068 0.70785 0.0
H183 H 0.52527 0.91086 0.70827 0.0
S184 S 0.53995 0.15472 0.69431 0.0
N185 N 0.46605 0.09212 0.6966 0.0
N186 N 0.58865 0.12502 0.69716 0.0
C187 C 0.54519 0.06103 0.70009 0.0
C188 C 0.47861 0.04315 0.6999 0.0
C189 C 0.5053 0.53802 0.62488 0.0
C190 C 0.55761 0.52697 0.62293 0.0
C191 C 0.44128 0.48737 0.62224 0.0
C192 C 0.42678 0.42347 0.61749 0.0
H193 H 0.51367 0.58652 0.62766 0.0
H194 H 0.40304 0.49884 0.62305 0.0
S195 S 0.54549 0.36725 0.61421 0.0
N196 N 0.59008 0.44623 0.61844 0.0
N197 N 0.46997 0.35107 0.61355 0.0
C198 C 0.47842 0.41121 0.61688 0.0
C199 C 0.5437 0.46287 0.61959 0.0
C200 C 0.93711 0.44331 0.95069 0.0
C201 C 0.98651 0.42815 0.95263 0.0
C202 C 0.95105 0.50753 0.95117 0.0
C203 C 0.01496 0.55936 0.95381 0.0
H204 H 0.88726 0.40541 0.94797 0.0
H205 H 0.91122 0.51644 0.94894 0.0
S206 S 0.16164 0.54553 0.96229 0.0
N207 N 0.10181 0.47027 0.95922 0.0
N208 N 0.1279 0.59073 0.9602 0.0
C209 C 0.06468 0.54481 0.95691 0.0
C210 C 0.0505 0.47935 0.95628 0.0
C211 C 0.54553 0.10797 0.26412 0.0
C212 C 0.48884 0.08289 0.28132 0.0
C213 C 0.58549 0.08113 0.26556 0.0
C214 C 0.5702 0.02756 0.28404 0.0
H215 H 0.55883 0.14814 0.24896 0.0
H216 H 0.62799 0.10183 0.25142 0.0
S217 S 0.42912 0.9457 0.33501 0.0
N218 N 0.4209 0.00299 0.31865 0.0
N219 N 0.49592 0.95227 0.3211 0.0
C220 C 0.51459 0.00295 0.30203 0.0
C221 C 0.47404 0.03073 0.30078 0.0
C222 C 0.21371 0.08557 0.17382 0.0
C223 C 0.26972 0.1135 0.19185 0.0
C224 C 0.21675 0.10053 0.14302 0.0
C225 C 0.27553 0.14554 0.1296 0.0
H226 H 0.16746 0.05139 0.1835 0.0
H227 H 0.17273 0.07734 0.12973 0.0
S228 S 0.43552 0.23357 0.16743 0.0
N229 N 0.38543 0.18854 0.19423 0.0
N230 N 0.39085 0.21804 0.13671 0.0
C231 C 0.33164 0.17447 0.14755 0.0
C232 C 0.32881 0.15807 0.17861 0.0
C233 C 0.16815 0.37484 0.46831 0.0
C234 C 0.16673 0.32629 0.44992 0.0
C235 C 0.18795 0.38202 0.49849 0.0
C236 C 0.20649 0.3405 0.51169 0.0
H237 H 0.15431 0.40816 0.45933 0.0
H238 H 0.18762 0.4199 0.51165 0.0
S239 S 0.21202 0.20568 0.47338 0.0
N240 N 0.18632 0.23625 0.44708 0.0
N241 N 0.22298 0.24937 0.50399 0.0
C242 C 0.20552 0.29174 0.49361 0.0
C243 C 0.18579 0.28473 0.46271 0.0
C244 C 0.90573 0.193 0.80261 0.0
C245 C 0.85673 0.1353 0.78969 0.0
C246 C 0.91526 0.19944 0.8339 0.0
C247 C 0.87698 0.14803 0.85342 0.0
H248 H 0.93559 0.23442 0.78856 0.0
H249 H 0.95235 0.24543 0.84287 0.0
S250 S 0.74565 0.9849 0.83068 0.0
N251 N 0.77172 0.02461 0.7986 0.0
N252 N 0.79035 0.03618 0.85741 0.0
C253 C 0.82964 0.08908 0.84069 0.0
C254 C 0.81926 0.08288 0.80883 0.0
C255 C 0.64299 0.85434 0.15169 0.0
C256 C 0.67408 0.82318 0.13935 0.0
C257 C 0.65355 0.87577 0.18163 0.0
C258 C 0.69542 0.8667 0.20064 0.0
H259 H 0.60998 0.8624 0.13817 0.0
H260 H 0.62764 0.89873 0.18999 0.0
S261 S 0.79023 0.78923 0.17923 0.0
N262 N 0.74975 0.78541 0.14832 0.0
N263 N 0.76961 0.82567 0.20472 0.0
C264 C 0.72768 0.83642 0.18853 0.0
C265 C 0.71699 0.81465 0.1579 0.0
C266 C 0.80941 0.66558 0.5039 0.0
C267 C 0.83284 0.72254 0.52094 0.0
C268 C 0.82411 0.66762 0.4733 0.0
C269 C 0.86163 0.72675 0.45837 0.0
H270 H 0.78056 0.61881 0.51441 0.0
H271 H 0.80522 0.62238 0.46116 0.0
S272 S 0.93334 0.88978 0.49258 0.0
N273 N 0.89521 0.83989 0.52072 0.0
N274 N 0.92134 0.84373 0.46272 0.0
C275 C 0.88453 0.7842 0.47495 0.0
C276 C 0.87062 0.78208 0.50638 0.0
C277 C 0.17725 0.89043 0.84472 0.0
C278 C 0.12327 0.83681 0.85751 0.0
C279 C 0.1856 0.89655 0.81342 0.0
C280 C 0.13964 0.84996 0.79372 0.0
H281 H 0.21455 0.92701 0.859 0.0
H282 H 0.22872 0.93786 0.80461 0.0
S283 S 0.98755 0.70261 0.81581 0.0
N284 N 0.02181 0.7376 0.84814 0.0
N285 N 0.03675 0.74966 0.78919 0.0
C286 C 0.08419 0.79728 0.80617 0.0
C287 C 0.07624 0.79051 0.8381 0.0
C288 C 0.27116 0.96815 0.96714 0.0
C289 C 0.24832 0.92535 -0.00818 0.0
C290 C 0.30482 0.03513 0.97146 0.0
C291 C 0.31807 0.06207 0.0006 0.0
H292 H 0.25918 0.95019 0.94423 0.0
H293 H 0.31727 0.06589 0.95179 0.0
S294 S 0.28169 0.97105 0.07266 0.0
N295 N 0.25032 0.91466 0.04631 0.0
N296 N 0.31501 0.04053 0.05454 0.0
C297 C 0.30194 0.01988 0.02542 0.0
C298 C 0.26669 0.95152 0.021 0.0
C299 C 0.278 0.3309 0.34328 0.0
C300 C 0.24976 0.3412 0.31749 0.0
C301 C 0.30734 0.29312 0.34186 0.0
C302 C 0.31109 0.26566 0.31449 0.0
H303 H 0.27307 0.34772 0.36525 0.0
H304 H 0.32404 0.28251 0.36266 0.0
S305 S 0.25687 0.2898 0.23936 0.0
N306 N 0.23585 0.32898 0.2631 0.0
N307 N 0.29281 0.25979 0.26009 0.0
C308 C 0.28955 0.2817 0.28795 0.0
C309 C 0.25847 0.31908 0.28954 0.0
C310 C 0.91634 0.21395 0.61026 0.0
C311 C 0.9079 0.22065 0.64116 0.0
C312 C 0.97801 0.2398 0.59785 0.0
C313 C 0.03398 0.27333 0.6158 0.0
H314 H 0.8751 0.18529 0.59575 0.0
H315 H 0.98143 0.23014 0.57425 0.0
S316 S 0.03865 0.3164 0.69661 0.0
N317 N 0.961 0.27272 0.68841 0.0
N318 N 0.07702 0.3206 0.66508 0.0
C319 C 0.02644 0.28586 0.64608 0.0
C320 C 0.9634 0.25975 0.65874 0.0
C321 C 0.72031 0.9736 0.02359 0.0
C322 C 0.69474 0.92728 0.00026 0.0
C323 C 0.75106 0.03973 0.01736 0.0
C324 C 0.757 0.06237 0.98761 0.0
H325 H 0.72052 0.95912 0.04673 0.0
H326 H 0.77357 0.07328 0.03593 0.0
S327 S 0.68524 0.96047 0.91924 0.0
N328 N 0.66835 0.90824 0.94686 0.0
N329 N 0.72495 0.03259 0.93509 0.0
C330 C 0.72562 0.01642 0.96443 0.0
C331 C 0.69492 0.94889 0.97077 0.0
C332 C 0.6886 0.74958 0.35588 0.0
C333 C 0.66763 0.76133 0.32818 0.0
C334 C 0.71891 0.71275 0.35731 0.0
C335 C 0.73051 0.68725 0.33099 0.0
H336 H 0.68537 0.77242 0.37637 0.0
H337 H 0.73803 0.70889 0.37891 0.0
S338 S 0.6729 0.69197 0.25387 0.0
N339 N 0.65004 0.73412 0.27458 0.0
N340 N 0.70999 0.66759 0.27728 0.0
C341 C 0.70441 0.69329 0.30365 0.0
C342 C 0.67201 0.72949 0.30225 0.0
C343 C 0.02326 0.71129 0.68263 0.0
C344 C 0.06658 0.73843 0.65835 0.0
C345 C 0.95635 0.67974 0.67806 0.0
C346 C 0.92999 0.67282 0.64898 0.0
H347 H 0.04086 0.71823 0.70565 0.0
H348 H 0.92523 0.66367 0.69764 0.0
S349 S 0.02217 0.72296 0.57721 0.0
N350 N 0.0781 0.74764 0.60381 0.0
N351 N 0.95239 0.68709 0.59503 0.0
C352 C 0.97255 0.69351 0.62421 0.0
C353 C 0.04082 0.72657 0.62894 0.0
C354 C 0.12356 0.22741 0.96216 0.0
C355 C 0.06154 0.20847 0.97306 0.0
C356 C 0.17062 0.22722 0.98091 0.0
C357 C 0.15757 0.20809 0.01132 0.0
H358 H 0.13654 0.24405 0.93915 0.0
H359 H 0.21809 0.24364 0.97159 0.0
S360 S 0.00016 0.14644 0.04987 0.0
N361 N 0.98778 0.16469 0.01552 0.0
N362 N 0.07628 0.16446 0.05074 0.0
C363 C 0.09498 0.18669 0.02221 0.0
C364 C 0.04699 0.18682 0.00309 0.0
C365 C 0.84474 0.0778 0.34173 0.0
C366 C 0.85028 0.06858 0.31073 0.0
C367 C 0.89525 0.12861 0.35778 0.0
C368 C 0.95332 0.17237 0.34349 0.0
H369 H 0.80035 0.04664 0.35365 0.0
H370 H 0.88774 0.13471 0.38136 0.0
S371 S 0.99576 0.16481 0.26363 0.0
N372 N 0.92102 0.1042 0.26701 0.0
N373 N 0.01585 0.19959 0.29716 0.0
C374 C 0.96076 0.16196 0.31285 0.0
C375 C 0.90931 0.11014 0.29649 0.0
C376 C 0.80164 0.84678 0.66182 0.0
C377 C 0.76722 0.82919 0.63432 0.0
C378 C 0.81088 0.90075 0.67823 0.0
C379 C 0.78564 0.93906 0.66795 0.0
H380 H 0.82172 0.81865 0.67085 0.0
H381 H 0.83734 0.91192 0.69934 0.0
S382 S 0.69331 0.91506 0.59686 0.0
N383 N 0.70891 0.85548 0.59722 0.0
N384 N 0.72608 0.95665 0.62804 0.0
C385 C 0.75166 0.92248 0.64032 0.0
C386 C 0.74255 0.86769 0.62352 0.0
C387 C 0.86635 0.77008 0.00658 0.0
C388 C 0.86955 0.82807 0.01526 0.0
C389 C 0.9189 0.76989 -0.00685 0.0
C390 C 0.97703 0.8277 0.98765 0.0
H391 H 0.82279 0.72407 0.01016 0.0
H392 H 0.9135 0.72377 0.98685 0.0
S393 S 0.01111 0.9931 0.00635 0.0
N394 N 0.93614 0.94524 0.01759 0.0
N395 N 0.03504 0.9449 -0.00771 0.0
C396 C 0.98122 0.88624 -0.0037 0.0
C397 C 0.92754 0.88642 0.01012 0.0
C398 C 0.05237 0.83194 0.31385 0.0
C399 C 0.04969 0.83652 0.34542 0.0
C400 C 0.10314 0.8805 0.29719 0.0
C401 C 0.15265 0.93605 0.31137 0.0
H402 H 0.01583 0.78972 0.30193 0.0
H403 H 0.10366 0.87419 0.273 0.0
S404 S 0.16579 0.97321 0.39338 0.0
N405 N 0.09946 0.90205 0.39014 0.0
N406 N 0.19444 0.99388 0.35885 0.0
C407 C 0.14952 0.94214 0.34286 0.0
C408 C 0.09823 0.89221 0.35987 0.0
C409 C 0.11193 0.0044 0.65382 0.0
C410 C 0.16937 0.00832 0.66414 0.0
C411 C 0.11248 0.05694 0.63969 0.0
C412 C 0.17046 0.11566 0.63544 0.0
H413 H 0.06595 0.9604 0.65666 0.0
H414 H 0.06687 0.0515 0.63234 0.0
S415 S 0.33465 0.15089 0.65788 0.0
N416 N 0.28623 0.07578 0.66873 0.0
N417 N 0.28724 0.17425 0.64227 0.0
C418 C 0.22843 0.12013 0.64543 0.0
C419 C 0.22789 0.06659 0.65974 0.0
loop_
_geom_bond_atom_site_label_1
_geom_bond_atom_site_label_2
_geom_bond_distance
_geom_bond_site_symmetry_2
_ccdc_geom_bond_type
C0 O1 1.160 . S
C0 O7 1.185 . S
O1 C0 1.160 . S
O2 Zn3 1.899 . S
O2 C10 1.284 . S
Zn3 O2 1.899 . S
Zn3 O4 2.032 . S
Zn3 O7 2.086 . S
Zn3 O12 1.977 . S
O4 Zn3 2.032 . S
O4 C8 1.278 . S
C5 O6 1.203 . S
C5 O12 1.267 . S
O6 C5 1.203 . S
O7 C0 1.185 . S
O7 Zn3 2.086 . S
C8 O4 1.278 . S
C8 O9 1.211 . S
O9 C8 1.211 . S
C10 O2 1.284 . S
C10 O11 1.273 . S
O11 C10 1.273 . S
O12 Zn3 1.977 . S
O12 C5 1.267 . S
C13 O14 1.160 . S
C13 O20 1.185 . S
O14 C13 1.160 . S
O15 Zn16 1.899 . S
O15 C23 1.284 1_455 S
Zn16 O15 1.899 . S
Zn16 O17 2.032 . S
Zn16 O20 2.086 . S
Zn16 O25 1.977 . S
O17 Zn16 2.032 . S
O17 C21 1.278 . S
C18 O19 1.203 . S
C18 O25 1.267 . S
O19 C18 1.203 . S
O20 C13 1.185 . S
O20 Zn16 2.086 . S
C21 O17 1.278 . S
C21 O22 1.211 . S
O22 C21 1.211 . S
C23 O15 1.284 1_655 S
C23 O24 1.273 1_655 S
O24 C23 1.273 1_455 S
O25 Zn16 1.977 . S
O25 C18 1.267 . S
C26 O27 1.160 . S
C26 O33 1.185 . S
O27 C26 1.160 . S
O28 Zn29 1.899 . S
O28 C36 1.284 1_545 S
Zn29 O28 1.899 . S
Zn29 O30 2.032 . S
Zn29 O33 2.086 . S
Zn29 O38 1.977 . S
O30 Zn29 2.032 . S
O30 C34 1.278 . S
C31 O32 1.203 . S
C31 O38 1.267 . S
O32 C31 1.203 . S
O33 C26 1.185 . S
O33 Zn29 2.086 . S
C34 O30 1.278 . S
C34 O35 1.211 . S
O35 C34 1.211 . S
C36 O28 1.284 1_565 S
C36 O37 1.273 1_565 S
O37 C36 1.273 1_545 S
O38 Zn29 1.977 . S
O38 C31 1.267 . S
C39 O40 1.160 . S
C39 O46 1.185 . S
O40 C39 1.160 . S
O41 Zn42 1.899 . S
O41 C49 1.284 . S
Zn42 O41 1.899 . S
Zn42 O43 2.032 . S
Zn42 O46 2.086 . S
Zn42 O51 1.977 . S
O43 Zn42 2.032 . S
O43 C47 1.278 . S
C44 O45 1.203 . S
C44 O51 1.267 . S
O45 C44 1.203 . S
O46 C39 1.185 . S
O46 Zn42 2.086 . S
C47 O43 1.278 . S
C47 O48 1.211 . S
O48 C47 1.211 . S
C49 O41 1.284 . S
C49 O50 1.273 . S
O50 C49 1.273 . S
O51 Zn42 1.977 . S
O51 C44 1.267 . S
C52 O53 1.160 . S
C52 O59 1.185 . S
O53 C52 1.160 . S
O54 Zn55 1.899 . S
O54 C62 1.284 1_655 S
Zn55 O54 1.899 . S
Zn55 O56 2.032 . S
Zn55 O59 2.086 . S
Zn55 O64 1.977 . S
O56 Zn55 2.032 . S
O56 C60 1.278 . S
C57 O58 1.203 . S
C57 O64 1.267 . S
O58 C57 1.203 . S
O59 C52 1.185 . S
O59 Zn55 2.086 . S
C60 O56 1.278 . S
C60 O61 1.211 . S
O61 C60 1.211 . S
C62 O54 1.284 1_455 S
C62 O63 1.273 1_455 S
O63 C62 1.273 1_655 S
O64 Zn55 1.977 . S
O64 C57 1.267 . S
C65 O66 1.160 . S
C65 O72 1.185 . S
O66 C65 1.160 . S
O67 Zn68 1.899 . S
O67 C75 1.284 1_565 S
Zn68 O67 1.899 . S
Zn68 O69 2.032 . S
Zn68 O72 2.086 . S
Zn68 O77 1.977 . S
O69 Zn68 2.032 . S
O69 C73 1.278 . S
C70 O71 1.203 . S
C70 O77 1.267 . S
O71 C70 1.203 . S
O72 C65 1.185 . S
O72 Zn68 2.086 . S
C73 O69 1.278 . S
C73 O74 1.211 . S
O74 C73 1.211 . S
C75 O67 1.284 1_545 S
C75 O76 1.273 1_545 S
O76 C75 1.273 1_565 S
O77 Zn68 1.977 . S
O77 C70 1.267 . S
C78 O79 1.160 . S
C78 O85 1.185 . S
O79 C78 1.160 . S
O80 Zn81 1.899 . S
O80 C88 1.284 . S
Zn81 O80 1.899 . S
Zn81 O82 2.032 . S
Zn81 O85 2.086 . S
Zn81 O90 1.977 . S
O82 Zn81 2.032 . S
O82 C86 1.278 . S
C83 O84 1.203 . S
C83 O90 1.267 . S
O84 C83 1.203 . S
O85 C78 1.185 . S
O85 Zn81 2.086 . S
C86 O82 1.278 . S
C86 O87 1.211 . S
O87 C86 1.211 . S
C88 O80 1.284 . S
C88 O89 1.273 . S
O89 C88 1.273 . S
O90 Zn81 1.977 . S
O90 C83 1.267 . S
C91 O92 1.160 . S
C91 O98 1.185 . S
O92 C91 1.160 . S
O93 Zn94 1.899 . S
O93 C101 1.284 1_455 S
Zn94 O93 1.899 . S
Zn94 O95 2.032 . S
Zn94 O98 2.086 . S
Zn94 O103 1.977 . S
O95 Zn94 2.032 . S
O95 C99 1.278 . S
C96 O97 1.203 . S
C96 O103 1.267 . S
O97 C96 1.203 . S
O98 C91 1.185 . S
O98 Zn94 2.086 . S
C99 O95 1.278 . S
C99 O100 1.211 . S
O100 C99 1.211 . S
C101 O93 1.284 1_655 S
C101 O102 1.273 1_655 S
O102 C101 1.273 1_455 S
O103 Zn94 1.977 . S
O103 C96 1.267 . S
C104 O105 1.160 . S
C104 O111 1.185 . S
O105 C104 1.160 . S
O106 Zn107 1.899 . S
O106 C114 1.284 1_545 S
Zn107 O106 1.899 . S
Zn107 O108 2.032 . S
Zn107 O111 2.086 . S
Zn107 O116 1.977 . S
O108 Zn107 2.032 . S
O108 C112 1.278 . S
C109 O110 1.203 . S
C109 O116 1.267 . S
O110 C109 1.203 . S
O111 C104 1.185 . S
O111 Zn107 2.086 . S
C112 O108 1.278 . S
C112 O113 1.211 . S
O113 C112 1.211 . S
C114 O106 1.284 1_565 S
C114 O115 1.273 1_565 S
O115 C114 1.273 1_545 S
O116 Zn107 1.977 . S
O116 C109 1.267 . S
C117 O118 1.160 . S
C117 O124 1.185 . S
O118 C117 1.160 . S
O119 Zn120 1.899 . S
O119 C127 1.284 . S
Zn120 O119 1.899 . S
Zn120 O121 2.032 . S
Zn120 O124 2.086 . S
Zn120 O129 1.977 . S
O121 Zn120 2.032 . S
O121 C125 1.278 . S
C122 O123 1.203 . S
C122 O129 1.267 . S
O123 C122 1.203 . S
O124 C117 1.185 . S
O124 Zn120 2.086 . S
C125 O121 1.278 . S
C125 O126 1.211 . S
O126 C125 1.211 . S
C127 O119 1.284 . S
C127 O128 1.273 . S
O128 C127 1.273 . S
O129 Zn120 1.977 . S
O129 C122 1.267 . S
C130 O131 1.160 . S
C130 O137 1.185 . S
O131 C130 1.160 . S
O132 Zn133 1.899 . S
O132 C140 1.284 1_655 S
Zn133 O132 1.899 . S
Zn133 O134 2.032 . S
Zn133 O137 2.086 . S
Zn133 O142 1.977 . S
O134 Zn133 2.032 . S
O134 C138 1.278 . S
C135 O136 1.203 . S
C135 O142 1.267 . S
O136 C135 1.203 . S
O137 C130 1.185 . S
O137 Zn133 2.086 . S
C138 O134 1.278 . S
C138 O139 1.211 . S
O139 C138 1.211 . S
C140 O132 1.284 1_455 S
C140 O141 1.273 1_455 S
O141 C140 1.273 1_655 S
O142 Zn133 1.977 . S
O142 C135 1.267 . S
C143 O144 1.160 . S
C143 O150 1.185 . S
O144 C143 1.160 . S
O145 Zn146 1.899 . S
O145 C153 1.284 1_565 S
Zn146 O145 1.899 . S
Zn146 O147 2.032 . S
Zn146 O150 2.086 . S
Zn146 O155 1.977 . S
O147 Zn146 2.032 . S
O147 C151 1.278 . S
C148 O149 1.203 . S
C148 O155 1.267 . S
O149 C148 1.203 . S
O150 C143 1.185 . S
O150 Zn146 2.086 . S
C151 O147 1.278 . S
C151 O152 1.211 . S
O152 C151 1.211 . S
C153 O145 1.284 1_545 S
C153 O154 1.273 1_545 S
O154 C153 1.273 1_565 S
O155 Zn146 1.977 . S
O155 C148 1.267 . S
C156 C157 1.369 . S
C156 C158 1.419 . S
C156 H160 0.947 . S
C157 C156 1.369 . S
C157 C166 1.429 . S
C158 C156 1.419 . S
C158 C159 1.363 . S
C158 H161 0.929 . S
C159 C158 1.363 . S
C159 C165 1.428 . S
H160 C156 0.947 . S
H161 C158 0.929 . S
S162 N163 1.613 . S
S162 N164 1.610 . S
N163 S162 1.613 . S
N163 C166 1.350 . S
N164 S162 1.610 . S
N164 C165 1.351 . S
C165 C159 1.428 . S
C165 N164 1.351 . S
C165 C166 1.434 . S
C166 C157 1.429 . S
C166 N163 1.350 . S
C166 C165 1.434 . S
C167 C168 1.369 . S
C167 C169 1.419 1_455 S
C167 H171 0.930 . S
C168 C167 1.369 . S
C168 C177 1.429 . S
C169 C167 1.419 1_655 S
C169 C170 1.363 . S
C169 H172 0.929 . S
C170 C169 1.363 . S
C170 C176 1.428 . S
H171 C167 0.930 . S
H172 C169 0.929 . S
S173 N174 1.613 1_655 S
S173 N175 1.610 . S
N174 S173 1.613 1_455 S
N174 C177 1.350 . S
N175 S173 1.610 . S
N175 C176 1.351 . S
C176 C170 1.428 . S
C176 N175 1.351 . S
C176 C177 1.434 1_655 S
C177 C168 1.429 . S
C177 N174 1.350 . S
C177 C176 1.434 1_455 S
C178 C179 1.369 . S
C178 C180 1.419 1_565 S
C178 H182 0.930 . S
C179 C178 1.369 . S
C179 C188 1.429 . S
C180 C178 1.419 1_545 S
C180 C181 1.363 . S
C180 H183 0.929 . S
C181 C180 1.363 . S
C181 C187 1.428 . S
H182 C178 0.930 . S
H183 C180 0.929 . S
S184 N185 1.613 1_545 S
S184 N186 1.610 . S
N185 S184 1.613 1_565 S
N185 C188 1.350 . S
N186 S184 1.610 . S
N186 C187 1.351 . S
C187 C181 1.428 . S
C187 N186 1.351 . S
C187 C188 1.434 1_545 S
C188 C179 1.429 . S
C188 N185 1.350 . S
C188 C187 1.434 1_565 S
C189 C190 1.369 . S
C189 C191 1.419 . S
C189 H193 0.930 . S
C190 C189 1.369 . S
C190 C199 1.429 . S
C191 C189 1.419 . S
C191 C192 1.363 . S
C191 H194 0.929 . S
C192 C191 1.363 . S
C192 C198 1.428 . S
H193 C189 0.930 . S
H194 C191 0.929 . S
S195 N196 1.613 . S
S195 N197 1.610 . S
N196 S195 1.613 . S
N196 C199 1.350 . S
N197 S195 1.610 . S
N197 C198 1.351 . S
C198 C192 1.428 . S
C198 N197 1.351 . S
C198 C199 1.434 . S
C199 C190 1.429 . S
C199 N196 1.350 . S
C199 C198 1.434 . S
C200 C201 1.369 . S
C200 C202 1.419 . S
C200 H204 0.930 . S
C201 C200 1.369 . S
C201 C210 1.429 1_655 S
C202 C200 1.419 . S
C202 C203 1.363 1_655 S
C202 H205 0.929 . S
C203 C202 1.363 1_455 S
C203 C209 1.428 . S
H204 C200 0.930 . S
H205 C202 0.929 . S
S206 N207 1.613 . S
S206 N208 1.610 . S
N207 S206 1.613 . S
N207 C210 1.350 . S
N208 S206 1.610 . S
N208 C209 1.351 . S
C209 C203 1.428 . S
C209 N208 1.351 . S
C209 C210 1.434 . S
C210 C201 1.429 1_455 S
C210 N207 1.350 . S
C210 C209 1.434 . S
C211 C212 1.369 . S
C211 C213 1.419 1_545 S
C211 H215 0.930 . S
C212 C211 1.369 . S
C212 C221 1.429 . S
C213 C211 1.419 1_565 S
C213 C214 1.363 . S
C213 H216 0.929 . S
C214 C213 1.363 . S
C214 C220 1.428 . S
H215 C211 0.930 . S
H216 C213 0.929 . S
S217 N218 1.613 1_565 S
S217 N219 1.610 . S
N218 S217 1.613 1_545 S
N218 C221 1.350 . S
N219 S217 1.610 . S
N219 C220 1.351 . S
C220 C214 1.428 . S
C220 N219 1.351 . S
C220 C221 1.434 1_565 S
C221 C212 1.429 . S
C221 N218 1.350 . S
C221 C220 1.434 1_545 S
C222 C223 1.369 . S
C222 C224 1.419 . S
C222 H226 0.930 . S
C223 C222 1.369 . S
C223 C232 1.429 . S
C224 C222 1.419 . S
C224 C225 1.363 . S
C224 H227 0.929 . S
C225 C224 1.363 . S
C225 C231 1.428 . S
H226 C222 0.930 . S
H227 C224 0.929 . S
S228 N229 1.613 . S
S228 N230 1.610 . S
N229 S228 1.613 . S
N229 C232 1.350 . S
N230 S228 1.610 . S
N230 C231 1.351 . S
C231 C225 1.428 . S
C231 N230 1.351 . S
C231 C232 1.434 . S
C232 C223 1.429 . S
C232 N229 1.350 . S
C232 C231 1.434 . S
C233 C234 1.369 . S
C233 C235 1.419 . S
C233 H237 0.930 . S
C234 C233 1.369 . S
C234 C243 1.429 . S
C235 C233 1.419 . S
C235 C236 1.363 . S
C235 H238 0.929 . S
C236 C235 1.363 . S
C236 C242 1.428 . S
H237 C233 0.930 . S
H238 C235 0.929 . S
S239 N240 1.613 . S
S239 N241 1.610 . S
N240 S239 1.613 . S
N240 C243 1.350 . S
N241 S239 1.610 . S
N241 C242 1.351 . S
C242 C236 1.428 . S
C242 N241 1.351 . S
C242 C243 1.434 . S
C243 C234 1.429 . S
C243 N240 1.350 . S
C243 C242 1.434 . S
C244 C245 1.369 . S
C244 C246 1.419 . S
C244 H248 0.930 . S
C245 C244 1.369 . S
C245 C254 1.429 . S
C246 C244 1.419 . S
C246 C247 1.363 . S
C246 H249 0.929 . S
C247 C246 1.363 . S
C247 C253 1.428 . S
H248 C244 0.930 . S
H249 C246 0.929 . S
S250 N251 1.613 . S
S250 N252 1.610 . S
N251 S250 1.613 . S
N251 C254 1.350 . S
N252 S250 1.610 . S
N252 C253 1.351 . S
C253 C247 1.428 . S
C253 N252 1.351 . S
C253 C254 1.434 . S
C254 C245 1.429 . S
C254 N251 1.350 . S
C254 C253 1.434 . S
C255 C256 1.369 . S
C255 C257 1.419 . S
C255 H259 0.930 . S
C256 C255 1.369 . S
C256 C265 1.429 . S
C257 C255 1.419 . S
C257 C258 1.363 . S
C257 H260 0.929 . S
C258 C257 1.363 . S
C258 C264 1.428 . S
H259 C255 0.930 . S
H260 C257 0.929 . S
S261 N262 1.613 . S
S261 N263 1.610 . S
N262 S261 1.613 . S
N262 C265 1.350 . S
N263 S261 1.610 . S
N263 C264 1.351 . S
C264 C258 1.428 . S
C264 N263 1.351 . S
C264 C265 1.434 . S
C265 C256 1.429 . S
C265 N262 1.350 . S
C265 C264 1.434 . S
C266 C267 1.369 . S
C266 C268 1.419 . S
C266 H270 0.930 . S
C267 C266 1.369 . S
C267 C276 1.429 . S
C268 C266 1.419 . S
C268 C269 1.363 . S
C268 H271 0.929 . S
C269 C268 1.363 . S
C269 C275 1.428 . S
H270 C266 0.930 . S
H271 C268 0.929 . S
S272 N273 1.613 . S
S272 N274 1.610 . S
N273 S272 1.613 . S
N273 C276 1.350 . S
N274 S272 1.610 . S
N274 C275 1.351 . S
C275 C269 1.428 . S
C275 N274 1.351 . S
C275 C276 1.434 . S
C276 C267 1.429 . S
C276 N273 1.350 . S
C276 C275 1.434 . S
C277 C278 1.369 . S
C277 C279 1.419 . S
C277 H281 0.930 . S
C278 C277 1.369 . S
C278 C287 1.429 . S
C279 C277 1.419 . S
C279 C280 1.363 . S
C279 H282 0.929 . S
C280 C279 1.363 . S
C280 C286 1.428 . S
H281 C277 0.930 . S
H282 C279 0.929 . S
S283 N284 1.613 . S
S283 N285 1.610 . S
N284 S283 1.613 . S
N284 C287 1.350 . S
N285 S283 1.610 . S
N285 C286 1.351 . S
C286 C280 1.428 . S
C286 N285 1.351 . S
C286 C287 1.434 . S
C287 C278 1.429 . S
C287 N284 1.350 . S
C287 C286 1.434 . S
C288 C289 1.369 . S
C288 C290 1.419 1_565 S
C288 H292 0.930 . S
C289 C288 1.369 . S
C289 C298 1.429 1_556 S
C290 C288 1.419 1_545 S
C290 C291 1.363 1_556 S
C290 H293 0.929 . S
C291 C290 1.363 1_554 S
C291 C297 1.428 . S
H292 C288 0.930 . S
H293 C290 0.929 . S
S294 N295 1.613 . S
S294 N296 1.610 1_565 S
N295 S294 1.613 . S
N295 C298 1.350 . S
N296 S294 1.610 1_545 S
N296 C297 1.351 . S
C297 C291 1.428 . S
C297 N296 1.351 . S
C297 C298 1.434 1_545 S
C298 C289 1.429 1_554 S
C298 N295 1.350 . S
C298 C297 1.434 1_565 S
C299 C300 1.369 . S
C299 C301 1.419 . S
C299 H303 0.930 . S
C300 C299 1.369 . S
C300 C309 1.429 . S
C301 C299 1.419 . S
C301 C302 1.363 . S
C301 H304 0.929 . S
C302 C301 1.363 . S
C302 C308 1.428 . S
H303 C299 0.930 . S
H304 C301 0.929 . S
S305 N306 1.613 . S
S305 N307 1.610 . S
N306 S305 1.613 . S
N306 C309 1.350 . S
N307 S305 1.610 . S
N307 C308 1.351 . S
C308 C302 1.428 . S
C308 N307 1.351 . S
C308 C309 1.434 . S
C309 C300 1.429 . S
C309 N306 1.350 . S
C309 C308 1.434 . S
C310 C311 1.369 . S
C310 C312 1.419 1_655 S
C310 H314 0.930 . S
C311 C310 1.369 . S
C311 C320 1.429 . S
C312 C310 1.419 1_455 S
C312 C313 1.363 . S
C312 H315 0.929 . S
C313 C312 1.363 . S
C313 C319 1.428 . S
H314 C310 0.930 . S
H315 C312 0.929 . S
S316 N317 1.613 . S
S316 N318 1.610 1_655 S
N317 S316 1.613 . S
N317 C320 1.350 . S
N318 S316 1.610 1_455 S
N318 C319 1.351 . S
C319 C313 1.428 . S
C319 N318 1.351 . S
C319 C320 1.434 1_455 S
C320 C311 1.429 . S
C320 N317 1.350 . S
C320 C319 1.434 1_655 S
C321 C322 1.369 . S
C321 C323 1.419 1_565 S
C321 H325 0.930 . S
C322 C321 1.369 . S
C322 C331 1.429 1_554 S
C323 C321 1.419 1_545 S
C323 C324 1.363 1_554 S
C323 H326 0.929 . S
C324 C323 1.363 1_556 S
C324 C330 1.428 . S
H325 C321 0.930 . S
H326 C323 0.929 . S
S327 N328 1.613 . S
S327 N329 1.610 1_565 S
N328 S327 1.613 . S
N328 C331 1.350 . S
N329 S327 1.610 1_545 S
N329 C330 1.351 . S
C330 C324 1.428 . S
C330 N329 1.351 . S
C330 C331 1.434 1_545 S
C331 C322 1.429 1_556 S
C331 N328 1.350 . S
C331 C330 1.434 1_565 S
C332 C333 1.369 . S
C332 C334 1.419 . S
C332 H336 0.930 . S
C333 C332 1.369 . S
C333 C342 1.429 . S
C334 C332 1.419 . S
C334 C335 1.363 . S
C334 H337 0.929 . S
C335 C334 1.363 . S
C335 C341 1.428 . S
H336 C332 0.930 . S
H337 C334 0.929 . S
S338 N339 1.613 . S
S338 N340 1.610 . S
N339 S338 1.613 . S
N339 C342 1.350 . S
N340 S338 1.610 . S
N340 C341 1.351 . S
C341 C335 1.428 . S
C341 N340 1.351 . S
C341 C342 1.434 . S
C342 C333 1.429 . S
C342 N339 1.350 . S
C342 C341 1.434 . S
C343 C344 1.369 . S
C343 C345 1.419 1_455 S
C343 H347 0.930 . S
C344 C343 1.369 . S
C344 C353 1.429 . S
C345 C343 1.419 1_655 S
C345 C346 1.363 . S
C345 H348 0.929 . S
C346 C345 1.363 . S
C346 C352 1.428 . S
H347 C343 0.930 . S
H348 C345 0.929 . S
S349 N350 1.613 . S
S349 N351 1.610 1_455 S
N350 S349 1.613 . S
N350 C353 1.350 . S
N351 S349 1.610 1_655 S
N351 C352 1.351 . S
C352 C346 1.428 . S
C352 N351 1.351 . S
C352 C353 1.434 1_655 S
C353 C344 1.429 . S
C353 N350 1.350 . S
C353 C352 1.434 1_455 S
C354 C355 1.369 . S
C354 C356 1.419 . S
C354 H358 0.930 . S
C355 C354 1.369 . S
C355 C364 1.429 1_556 S
C356 C354 1.419 . S
C356 C357 1.363 1_556 S
C356 H359 0.929 . S
C357 C356 1.363 1_554 S
C357 C363 1.428 . S
H358 C354 0.930 . S
H359 C356 0.929 . S
S360 N361 1.613 1_455 S
S360 N362 1.610 . S
N361 S360 1.613 1_655 S
N361 C364 1.350 1_655 S
N362 S360 1.610 . S
N362 C363 1.351 . S
C363 C357 1.428 . S
C363 N362 1.351 . S
C363 C364 1.434 . S
C364 C355 1.429 1_554 S
C364 N361 1.350 1_455 S
C364 C363 1.434 . S
C365 C366 1.369 . S
C365 C367 1.419 . S
C365 H369 0.930 . S
C366 C365 1.369 . S
C366 C375 1.429 . S
C367 C365 1.419 . S
C367 C368 1.363 . S
C367 H370 0.929 . S
C368 C367 1.363 . S
C368 C374 1.428 . S
H369 C365 0.930 . S
H370 C367 0.929 . S
S371 N372 1.613 . S
S371 N373 1.610 . S
N372 S371 1.613 . S
N372 C375 1.350 . S
N373 S371 1.610 . S
N373 C374 1.351 . S
C374 C368 1.428 . S
C374 N373 1.351 . S
C374 C375 1.434 . S
C375 C366 1.429 . S
C375 N372 1.350 . S
C375 C374 1.434 . S
C376 C377 1.369 . S
C376 C378 1.419 . S
C376 H380 0.930 . S
C377 C376 1.369 . S
C377 C386 1.429 . S
C378 C376 1.419 . S
C378 C379 1.363 . S
C378 H381 0.929 . S
C379 C378 1.363 . S
C379 C385 1.428 . S
H380 C376 0.930 . S
H381 C378 0.929 . S
S382 N383 1.613 . S
S382 N384 1.610 . S
N383 S382 1.613 . S
N383 C386 1.350 . S
N384 S382 1.610 . S
N384 C385 1.351 . S
C385 C379 1.428 . S
C385 N384 1.351 . S
C385 C386 1.434 . S
C386 C377 1.429 . S
C386 N383 1.350 . S
C386 C385 1.434 . S
C387 C388 1.369 . S
C387 C389 1.419 1_554 S
C387 H391 0.930 . S
C388 C387 1.369 . S
C388 C397 1.429 . S
C389 C387 1.419 1_556 S
C389 C390 1.363 . S
C389 H392 0.929 . S
C390 C389 1.363 . S
C390 C396 1.428 . S
H391 C387 0.930 . S
H392 C389 0.929 . S
S393 N394 1.613 . S
S393 N395 1.610 1_554 S
N394 S393 1.613 . S
N394 C397 1.350 . S
N395 S393 1.610 1_556 S
N395 C396 1.351 . S
C396 C390 1.428 . S
C396 N395 1.351 . S
C396 C397 1.434 1_556 S
C397 C388 1.429 . S
C397 N394 1.350 . S
C397 C396 1.434 1_554 S
C398 C399 1.369 . S
C398 C400 1.419 . S
C398 H402 0.930 . S
C399 C398 1.369 . S
C399 C408 1.429 . S
C400 C398 1.419 . S
C400 C401 1.363 . S
C400 H403 0.929 . S
C401 C400 1.363 . S
C401 C407 1.428 . S
H402 C398 0.930 . S
H403 C400 0.929 . S
S404 N405 1.596 1_545 S
S404 N406 1.606 . S
N405 S404 1.596 1_565 S
N405 C408 1.350 . S
N406 S404 1.606 . S
N406 C407 1.351 1_545 S
C407 C401 1.428 . S
C407 N406 1.351 1_565 S
C407 C408 1.434 . S
C408 C399 1.429 . S
C408 N405 1.350 . S
C408 C407 1.434 . S
C409 C410 1.369 . S
C409 C411 1.419 . S
C409 H413 0.930 . S
C410 C409 1.369 . S
C410 C419 1.429 . S
C411 C409 1.419 . S
C411 C412 1.363 . S
C411 H414 0.929 . S
C412 C411 1.363 . S
C412 C418 1.428 . S
H413 C409 0.930 . S
H414 C411 0.929 . S
S415 N416 1.613 . S
S415 N417 1.610 . S
N416 S415 1.613 . S
N416 C419 1.350 . S
N417 S415 1.610 . S
N417 C418 1.351 . S
C418 C412 1.428 . S
C418 N417 1.351 . S
C418 C419 1.434 . S
C419 C410 1.429 . S
C419 N416 1.350 . S
C419 C418 1.434 . S
C157 C39 1.472 . S
C159 C0 1.468 . S
C168 C13 1.472 . S
C170 C52 1.469 . S
C179 C65 1.470 . S
C181 C26 1.470 . S
C190 C78 1.472 . S
C192 C117 1.468 . S
C201 C130 1.463 . S
C203 C91 1.475 . S
C212 C104 1.470 . S
C214 C143 1.471 . S
C223 C112 1.489 . S
C225 C8 1.494 . S
C234 C21 1.490 . S
C236 C125 1.492 . S
C245 C34 1.495 . S
C247 C138 1.489 . S
C256 C47 1.495 . S
C258 C151 1.488 . S
C267 C86 1.491 . S
C269 C60 1.491 . S
C278 C99 1.496 . S
C280 C73 1.488 . S
C289 C96 1.101 . S
C291 C5 1.094 . S
C300 C18 1.108 . S
C302 C109 1.100 . S
C311 C31 1.108 . S
C313 C122 1.102 . S
C322 C44 1.096 . S
C324 C135 1.092 . S
C333 C148 1.106 . S
C335 C57 1.106 . S
C344 C70 1.105 . S
C346 C83 1.096 . S
C355 C140 1.389 . S
C357 C10 1.390 . S
C366 C153 1.390 . S
C368 C23 1.389 . S
C377 C88 1.391 . S
C379 C36 1.390 . S
C388 C49 1.389 . S
C390 C101 1.389 . S
C399 C62 1.389 . S
C401 C114 1.389 . S
C410 C75 1.391 . S
C412 C127 1.390 . S
