# Generated by pormake.
# Topology acs-g, (3)-cn, num edge types: 1
# Building blocks:
#     Node 0, Type 0, BuildingBlock: OLANEW_clean_sbu_2, # of connection points: 3
#     Node 1, Type 0, BuildingBlock: OLANEW_clean_sbu_2, # of connection points: 3
#     Node 2, Type 0, BuildingBlock: OLANEW_clean_sbu_2, # of connection points: 3
#     Node 3, Type 0, BuildingBlock: OLANEW_clean_sbu_2, # of connection points: 3
#     Node 4, Type 0, BuildingBlock: OLANEW_clean_sbu_2, # of connection points: 3
#     Node 5, Type 0, BuildingBlock: OLANEW_clean_sbu_2, # of connection points: 3
#     Node 6, Type 0, BuildingBlock: OLANEW_clean_sbu_2, # of connection points: 3
#     Node 7, Type 0, BuildingBlock: OLANEW_clean_sbu_2, # of connection points: 3
#     Node 8, Type 0, BuildingBlock: OLANEW_clean_sbu_2, # of connection points: 3
#     Node 9, Type 0, BuildingBlock: OLANEW_clean_sbu_2, # of connection points: 3
#     Node 10, Type 0, BuildingBlock: OLANEW_clean_sbu_2, # of connection points: 3
#     Node 11, Type 0, BuildingBlock: OLANEW_clean_sbu_2, # of connection points: 3
#     Edge 12, Type (0, 0), BuildingBlock: AJUNOK_clean_linker_0, # of connection points: 2
#     Edge 13, Type (0, 0), BuildingBlock: AJUNOK_clean_linker_0, # of connection points: 2
#     Edge 14, Type (0, 0), BuildingBlock: AJUNOK_clean_linker_0, # of connection points: 2
#     Edge 15, Type (0, 0), BuildingBlock: AJUNOK_clean_linker_0, # of connection points: 2
#     Edge 16, Type (0, 0), BuildingBlock: AJUNOK_clean_linker_0, # of connection points: 2
#     Edge 17, Type (0, 0), BuildingBlock: AJUNOK_clean_linker_0, # of connection points: 2
#     Edge 18, Type (0, 0), BuildingBlock: AJUNOK_clean_linker_0, # of connection points: 2
#     Edge 19, Type (0, 0), BuildingBlock: AJUNOK_clean_linker_0, # of connection points: 2
#     Edge 20, Type (0, 0), BuildingBlock: AJUNOK_clean_linker_0, # of connection points: 2
#     Edge 21, Type (0, 0), BuildingBlock: AJUNOK_clean_linker_0, # of connection points: 2
#     Edge 22, Type (0, 0), BuildingBlock: AJUNOK_clean_linker_0, # of connection points: 2
#     Edge 23, Type (0, 0), BuildingBlock: AJUNOK_clean_linker_0, # of connection points: 2
#     Edge 24, Type (0, 0), BuildingBlock: AJUNOK_clean_linker_0, # of connection points: 2
#     Edge 25, Type (0, 0), BuildingBlock: AJUNOK_clean_linker_0, # of connection points: 2
#     Edge 26, Type (0, 0), BuildingBlock: AJUNOK_clean_linker_0, # of connection points: 2
#     Edge 27, Type (0, 0), BuildingBlock: AJUNOK_clean_linker_0, # of connection points: 2
#     Edge 28, Type (0, 0), BuildingBlock: AJUNOK_clean_linker_0, # of connection points: 2
#     Edge 29, Type (0, 0), BuildingBlock: AJUNOK_clean_linker_0, # of connection points: 2
# Relax obj value: 0.000
# Max RMSD: 0.029
# Mean RMSD: 0.029
data_MOF--net-acs-g--node1-OLANEW_clean_sbu_2--edge1-AJUNOK_clean_linker_0
_symmetry_space_group_name_H-M    P1
_symmetry_Int_Tables_number       1
_symmetry_cell_setting            triclinic
loop_
_symmetry_equiv_pos_as_xyz
'x, y, z'
_cell_length_a     41.433445
_cell_length_b     41.446252
_cell_length_c     35.48341
_cell_angle_alpha  90.002338
_cell_angle_beta   90.020274
_cell_angle_gamma 120.00131
loop_
_atom_site_label
_atom_site_type_symbol
_atom_site_fract_x
_atom_site_fract_y
_atom_site_fract_z
_atom_type_partial_charge
O0 O 0.40848 0.44502 0.19851 0.0
Cd1 Cd 0.35154 0.39634 0.16856 0.0
O2 O 0.38914 0.42604 0.25629 0.0
Cd3 Cd 0.33162 0.38714 0.24001 0.0
O4 O 0.27288 0.37174 0.24123 0.0
C5 C 0.26263 0.38956 0.21988 0.0
O6 O 0.28707 0.41413 0.19637 0.0
C7 C 0.41468 0.44786 0.23382 0.0
C8 C 0.36303 0.38638 0.09264 0.0
O9 O 0.35148 0.40868 0.10235 0.0
O10 O 0.36903 0.36877 0.11886 0.0
O11 O 0.96984 0.42079 0.68833 0.0
Cd12 Cd 0.9632 0.36404 0.65955 0.0
O13 O 0.95763 0.39799 0.74582 0.0
Cd14 Cd 0.94024 0.34088 0.72894 0.0
O15 O 0.89848 0.28166 0.72573 0.0
C16 C 0.88529 0.26404 0.7564 0.0
O17 O 0.89899 0.28164 0.78836 0.0
C18 C 0.96684 0.42516 0.72339 0.0
C19 C 0.98488 0.37459 0.5837 0.0
O20 O 0.00858 0.38169 0.61015 0.0
O21 O 0.95087 0.36246 0.59315 0.0
O22 O 0.55079 0.96687 0.18588 0.0
Cd23 Cd 0.60035 0.95963 0.15673 0.0
O24 O 0.5607 0.95339 0.24311 0.0
Cd25 Cd 0.60004 0.93559 0.22599 0.0
O26 O 0.61749 0.89381 0.22304 0.0
C27 C 0.61914 0.87885 0.25372 0.0
O28 O 0.61247 0.89081 0.28545 0.0
C29 C 0.54322 0.9634 0.2209 0.0
C30 C 0.60897 0.97843 0.08012 0.0
O31 O 0.58752 0.94481 0.09098 0.0
O32 O 0.62625 0.00317 0.10555 0.0
O33 O 0.5867 0.55352 0.699 0.0
Cd34 Cd 0.64383 0.60239 0.66957 0.0
O35 O 0.60588 0.57205 0.75694 0.0
Cd36 Cd 0.66342 0.61139 0.74111 0.0
O37 O 0.72259 0.62844 0.7429 0.0
C38 C 0.7344 0.61279 0.72042 0.0
O39 O 0.71117 0.58925 0.69539 0.0
C40 C 0.58041 0.5504 0.7343 0.0
C41 C 0.63443 0.60984 0.59247 0.0
O42 O 0.64636 0.58845 0.60425 0.0
O43 O 0.62684 0.6276 0.6172 0.0
O44 O 0.03119 0.58729 0.18884 0.0
Cd45 Cd 0.03841 0.64449 0.16067 0.0
O46 O 0.03608 0.60639 0.24746 0.0
Cd47 Cd 0.05448 0.66413 0.23251 0.0
O48 O 0.10016 0.72186 0.23223 0.0
C49 C 0.13045 0.72698 0.21782 0.0
O50 O 0.13107 0.69824 0.20302 0.0
C51 C 0.03036 0.58086 0.22399 0.0
C52 C 0.01597 0.63386 0.085 0.0
O53 O 0.05004 0.64576 0.09412 0.0
O54 O 0.99262 0.62717 0.11168 0.0
O55 O 0.44648 0.03633 0.68386 0.0
Cd56 Cd 0.39613 0.0427 0.6553 0.0
O57 O 0.43515 0.04733 0.74155 0.0
Cd58 Cd 0.39522 0.06462 0.72512 0.0
O59 O 0.37774 0.10643 0.72381 0.0
C60 C 0.37262 0.11823 0.75506 0.0
O61 O 0.37581 0.10309 0.78634 0.0
C62 C 0.45354 0.03879 0.71897 0.0
C63 C 0.3862 0.02284 0.57895 0.0
O64 O 0.36958 0.99841 0.60478 0.0
O65 O 0.40762 0.05666 0.58928 0.0
O66 O 0.55344 0.58331 0.32789 0.0
Cd67 Cd 0.60286 0.64022 0.35708 0.0
O68 O 0.56225 0.60691 0.27081 0.0
Cd69 Cd 0.60132 0.66427 0.28751 0.0
O70 O 0.61775 0.7233 0.28833 0.0
C71 C 0.62133 0.73951 0.2569 0.0
O72 O 0.61721 0.72065 0.22577 0.0
C73 C 0.54539 0.57928 0.29297 0.0
C74 C 0.61341 0.62908 0.43294 0.0
O75 O 0.59131 0.64092 0.4234 0.0
O76 O 0.63056 0.62262 0.40659 0.0
O77 O 0.96457 0.55935 0.81863 0.0
Cd78 Cd 0.956 0.60762 0.84905 0.0
O79 O 0.95802 0.5749 0.76102 0.0
Cd80 Cd 0.9383 0.61289 0.7774 0.0
O81 O 0.89413 0.62689 0.77156 0.0
C82 C 0.87537 0.61579 0.74122 0.0
O83 O 0.88485 0.59868 0.71614 0.0
C84 C 0.96506 0.55507 0.78315 0.0
C85 C 0.97386 0.61494 0.92595 0.0
O86 O 0.94046 0.59329 0.9145 0.0
O87 O 0.99884 0.63302 0.90097 0.0
O88 O 0.40651 0.96035 0.31612 0.0
Cd89 Cd 0.34958 0.95173 0.34627 0.0
O90 O 0.38569 0.95694 0.25839 0.0
Cd91 Cd 0.32775 0.93634 0.2745 0.0
O92 O 0.27132 0.88944 0.26615 0.0
C93 C 0.2691 0.86725 0.24019 0.0
O94 O 0.29955 0.87519 0.22148 0.0
C95 C 0.412 0.9625 0.2807 0.0
C96 C 0.36239 0.97634 0.4212 0.0
O97 O 0.35135 0.94227 0.41291 0.0
O98 O 0.3672 0.99868 0.39403 0.0
O99 O 0.44082 0.41479 0.82727 0.0
Cd100 Cd 0.39088 0.35784 0.85585 0.0
O101 O 0.43167 0.39171 0.76994 0.0
Cd102 Cd 0.39195 0.3345 0.78649 0.0
O103 O 0.3744 0.27524 0.78897 0.0
C104 C 0.37341 0.25903 0.75821 0.0
O105 O 0.38075 0.27807 0.72668 0.0
C106 C 0.44888 0.41907 0.79236 0.0
C107 C 0.38305 0.36664 0.93299 0.0
O108 O 0.36587 0.375 0.90825 0.0
O109 O 0.40402 0.35423 0.92119 0.0
O110 O 0.03279 0.44575 0.31686 0.0
Cd111 Cd 0.04193 0.39784 0.34716 0.0
O112 O 0.0406 0.43138 0.25919 0.0
Cd113 Cd 0.06028 0.3933 0.27536 0.0
O114 O 0.10386 0.37847 0.26964 0.0
C115 C 0.12352 0.39051 0.23995 0.0
O116 O 0.11531 0.40913 0.21548 0.0
C117 C 0.03285 0.4506 0.28144 0.0
C118 C 0.0251 0.3915 0.42424 0.0
O119 O 0.05834 0.41303 0.41234 0.0
O120 O 0.99982 0.37303 0.39963 0.0
O121 O 0.58837 0.03901 0.81535 0.0
Cd122 Cd 0.64446 0.04654 0.8466 0.0
O123 O 0.61185 0.04688 0.75829 0.0
Cd124 Cd 0.66856 0.06511 0.77738 0.0
O125 O 0.72746 0.10731 0.78273 0.0
C126 C 0.74495 0.12346 0.75281 0.0
O127 O 0.72739 0.11244 0.7204 0.0
C128 C 0.58448 0.03953 0.77981 0.0
C129 C 0.63119 0.0228 0.92177 0.0
O130 O 0.64284 0.0569 0.91305 0.0
O131 O 0.62585 0.99999 0.89491 0.0
C132 C 0.21461 0.40542 0.19904 0.0
C133 C 0.22521 0.38592 0.22389 0.0
C134 C 0.18125 0.40573 0.20394 0.0
C135 C 0.15699 0.38669 0.23405 0.0
H136 H 0.23258 0.42134 0.17589 0.0
H137 H 0.175 0.42191 0.18436 0.0
S138 S 0.17012 0.32882 0.30555 0.0
N139 N 0.2075 0.34506 0.27859 0.0
N140 N 0.14482 0.3458 0.28788 0.0
C141 C 0.16649 0.36591 0.25841 0.0
C142 C 0.20053 0.36545 0.2533 0.0
C143 C 0.79957 0.17669 0.7211 0.0
C144 C 0.78288 0.15684 0.7544 0.0
C145 C 0.83338 0.21049 0.72189 0.0
C146 C 0.85201 0.226 0.75605 0.0
H147 H 0.78594 0.16669 0.69411 0.0
H148 H 0.8443 0.22511 0.69553 0.0
S149 S 0.82246 0.18305 0.85087 0.0
N150 N 0.7893 0.15369 0.82229 0.0
N151 N 0.8528 0.21716 0.82382 0.0
C152 C 0.83664 0.20554 0.78941 0.0
C153 C 0.80213 0.17103 0.78859 0.0
C154 C 0.62248 0.79399 0.28881 0.0
C155 C 0.62541 0.77724 0.25546 0.0
C156 C 0.62189 0.82749 0.28798 0.0
C157 C 0.62425 0.84579 0.25377 0.0
H158 H 0.6194 0.78057 0.31582 0.0
H159 H 0.61845 0.83848 0.31442 0.0
S160 S 0.63671 0.81593 0.15877 0.0
N161 N 0.63393 0.78326 0.18741 0.0
N162 N 0.6328 0.84616 0.18588 0.0
C163 C 0.62909 0.83037 0.22035 0.0
C164 C 0.62967 0.79616 0.22119 0.0
C165 C 0.78444 0.60009 0.699 0.0
C166 C 0.77227 0.6176 0.72472 0.0
C167 C 0.81827 0.60075 0.70408 0.0
C168 C 0.84145 0.6188 0.7352 0.0
H169 H 0.76734 0.58496 0.67504 0.0
H170 H 0.82572 0.58604 0.68379 0.0
S171 S 0.82414 0.67168 0.80922 0.0
N172 N 0.7874 0.6557 0.78134 0.0
N173 N 0.85095 0.65677 0.79092 0.0
C174 C 0.8304 0.63769 0.76043 0.0
C175 C 0.79589 0.63716 0.75517 0.0
C176 C 0.20062 0.82469 0.25128 0.0
C177 C 0.23352 0.83233 0.23225 0.0
C178 C 0.16715 0.79111 0.24559 0.0
C179 C 0.16525 0.76364 0.22084 0.0
H180 H 0.20073 0.84459 0.27115 0.0
H181 H 0.14282 0.78631 0.26148 0.0
S182 S 0.24282 0.77065 0.16232 0.0
N183 N 0.26149 0.81008 0.18619 0.0
N184 N 0.19883 0.74718 0.1757 0.0
C185 C 0.19767 0.7713 0.20088 0.0
C186 C 0.23169 0.80554 0.20652 0.0
C187 C 0.37225 0.20571 0.72388 0.0
C188 C 0.36847 0.22093 0.75796 0.0
C189 C 0.372 0.17178 0.72306 0.0
C190 C 0.36799 0.15156 0.75628 0.0
H191 H 0.37661 0.22061 0.69759 0.0
H192 H 0.37624 0.16204 0.6962 0.0
S193 S 0.35256 0.17685 0.8524 0.0
N194 N 0.35725 0.21139 0.82545 0.0
N195 N 0.35675 0.14767 0.82392 0.0
C196 C 0.36221 0.16544 0.79034 0.0
C197 C 0.36246 0.20007 0.79117 0.0
C198 C 0.47415 0.50833 0.22526 0.0
C199 C 0.45032 0.47866 0.24895 0.0
C200 C 0.50551 0.54001 0.23956 0.0
C201 C 0.51457 0.54341 0.27818 0.0
H202 H 0.46787 0.50782 0.19556 0.0
H203 H 0.52213 0.56248 0.22018 0.0
S204 S 0.46385 0.47149 0.3515 0.0
N205 N 0.43986 0.45322 0.31249 0.0
N206 N 0.49879 0.51267 0.33935 0.0
C207 C 0.49214 0.51305 0.30189 0.0
C208 C 0.46006 0.48077 0.2873 0.0
C209 C 0.96753 0.46486 0.77703 0.0
C210 C 0.97126 0.4608 0.7381 0.0
C211 C 0.96728 0.4962 0.79148 0.0
C212 C 0.97053 0.52481 0.76764 0.0
H213 H 0.96369 0.44315 0.79658 0.0
H214 H 0.96306 0.49722 0.82149 0.0
S215 S 0.98539 0.53006 0.66404 0.0
N216 N 0.9816 0.48989 0.67631 0.0
N217 N 0.981 0.54867 0.70345 0.0
C218 C 0.97619 0.52209 0.72888 0.0
C219 C 0.97661 0.49019 0.71414 0.0
C220 C 0.50398 0.96352 0.27457 0.0
C221 C 0.51226 0.96817 0.23576 0.0
C222 C 0.47251 0.9635 0.28904 0.0
C223 C 0.44778 0.96795 0.26533 0.0
H224 H 0.52132 0.95872 0.29399 0.0
H225 H 0.46684 0.9585 0.31891 0.0
S226 S 0.45898 0.98567 0.16219 0.0
N227 N 0.49474 0.98075 0.17431 0.0
N228 N 0.43559 0.9806 0.20148 0.0
C229 C 0.45672 0.9746 0.22674 0.0
C230 C 0.48891 0.97477 0.21199 0.0
C231 C 0.48924 0.45848 0.73929 0.0
C232 C 0.48002 0.45488 0.77787 0.0
C233 C 0.52079 0.49013 0.72526 0.0
C234 C 0.54467 0.51957 0.74919 0.0
H235 H 0.47256 0.4362 0.71973 0.0
H236 H 0.52716 0.49081 0.69557 0.0
S237 S 0.53088 0.52611 0.85179 0.0
N238 N 0.49578 0.48516 0.83929 0.0
N239 N 0.55508 0.54454 0.81294 0.0
C240 C 0.53483 0.51724 0.78752 0.0
C241 C 0.50255 0.48499 0.80183 0.0
C242 C 0.02774 0.53948 0.27682 0.0
C243 C 0.02592 0.54496 0.23786 0.0
C244 C 0.02826 0.50809 0.2907 0.0
C245 C 0.02713 0.48082 0.26623 0.0
H246 H 0.02999 0.56019 0.29691 0.0
H247 H 0.03102 0.50602 0.32083 0.0
S248 S 0.01745 0.47932 0.16203 0.0
N249 N 0.01944 0.51847 0.17518 0.0
N250 N 0.02049 0.45958 0.20123 0.0
C251 C 0.02325 0.48486 0.22733 0.0
C252 C 0.02261 0.51683 0.21317 0.0
C253 C 0.49154 0.03651 0.77277 0.0
C254 C 0.48478 0.03439 0.73368 0.0
C255 C 0.52295 0.03654 0.78745 0.0
C256 C 0.54917 0.03467 0.7637 0.0
H257 H 0.47294 0.03916 0.79234 0.0
H258 H 0.52731 0.03939 0.81765 0.0
S259 S 0.54263 0.02468 0.65948 0.0
N260 N 0.50558 0.02732 0.67163 0.0
N261 N 0.56463 0.02751 0.69921 0.0
C262 C 0.54191 0.03076 0.72466 0.0
C263 C 0.50976 0.03056 0.70968 0.0
C264 C 0.35576 0.39542 0.02397 0.0
C265 C 0.36886 0.38103 0.05227 0.0
C266 C 0.36041 0.39052 0.98565 0.0
C267 C 0.37867 0.37131 0.97391 0.0
H268 H 0.34147 0.41041 0.03139 0.0
H269 H 0.34967 0.40209 0.96508 0.0
S270 S 0.4187 0.32851 0.0367 0.0
N271 N 0.40116 0.34685 0.0658 0.0
N272 N 0.41012 0.33789 0.99388 0.0
C273 C 0.39215 0.35695 0.00189 0.0
C274 C 0.38717 0.36172 0.04098 0.0
C275 C 0.97842 0.36903 0.47673 0.0
C276 C 0.01593 0.38799 0.4651 0.0
C277 C 0.96875 0.36515 0.51501 0.0
C278 C 0.99617 0.37975 0.54338 0.0
H279 H 0.95617 0.35714 0.45611 0.0
H280 H 0.93945 0.35026 0.52234 0.0
S281 S 0.09859 0.43199 0.52811 0.0
N282 N 0.08076 0.42177 0.48525 0.0
N283 N 0.06262 0.41425 0.55709 0.0
C284 C 0.03384 0.3988 0.5322 0.0
C285 C 0.04369 0.40299 0.49315 0.0
C286 C 0.63763 0.03711 0.99087 0.0
C287 C 0.62463 0.01045 0.96177 0.0
C288 C 0.63248 0.02645 0.02889 0.0
C289 C 0.61378 0.98866 0.0395 0.0
H290 H 0.65227 0.06658 0.98433 0.0
H291 H 0.64319 0.04815 0.05011 0.0
S292 S 0.57365 0.90769 0.97426 0.0
N293 N 0.59185 0.9444 0.94625 0.0
N294 N 0.58192 0.92439 0.0176 0.0
C295 C 0.60033 0.96164 0.0107 0.0
C296 C 0.60583 0.97251 0.97192 0.0
C297 C 0.61057 0.63267 0.53995 0.0
C298 C 0.62942 0.614 0.55158 0.0
C299 C 0.60536 0.63713 0.50166 0.0
C300 C 0.61907 0.62343 0.47328 0.0
H301 H 0.59953 0.64386 0.56058 0.0
H302 H 0.59067 0.65173 0.49433 0.0
S303 S 0.67043 0.57238 0.48854 0.0
N304 N 0.66177 0.58154 0.53142 0.0
N305 N 0.65224 0.59015 0.45955 0.0
C306 C 0.63803 0.60472 0.48445 0.0
C307 C 0.6431 0.59993 0.52352 0.0
C308 C 0.0313 0.64234 0.0161 0.0
C309 C 0.00422 0.62836 0.04479 0.0
C310 C 0.02118 0.63795 0.97792 0.0
C311 C 0.98353 0.61906 0.96672 0.0
H312 H 0.06069 0.65711 0.0231 0.0
H313 H 0.04319 0.64936 0.95704 0.0
S314 S 0.90162 0.57668 0.0307 0.0
N315 N 0.93793 0.5946 0.05927 0.0
N316 N 0.91894 0.5861 0.98762 0.0
C317 C 0.9561 0.60471 0.9951 0.0
C318 C 0.96642 0.60944 0.03404 0.0
C319 C 0.35693 0.96297 0.49048 0.0
C320 C 0.36906 0.98922 0.46104 0.0
C321 C 0.36249 0.97414 0.52836 0.0
C322 C 0.38075 0.01206 0.53847 0.0
H323 H 0.34273 0.93342 0.48433 0.0
H324 H 0.35251 0.95274 0.54986 0.0
S325 S 0.41836 0.09211 0.47219 0.0
N326 N 0.40038 0.05504 0.44466 0.0
N327 N 0.41108 0.076 0.51574 0.0
C328 C 0.39324 0.03868 0.50932 0.0
C329 C 0.38731 0.02728 0.47069 0.0
loop_
_geom_bond_atom_site_label_1
_geom_bond_atom_site_label_2
_geom_bond_distance
_geom_bond_site_symmetry_2
_ccdc_geom_bond_type
O0 Cd1 2.300 . S
O0 C7 1.275 . S
Cd1 O0 2.300 . S
Cd1 O9 2.381 . S
Cd1 O10 2.378 . S
O2 Cd3 2.385 . S
O2 C7 1.255 . S
Cd3 O2 2.385 . S
Cd3 O4 2.317 . S
O4 Cd3 2.317 . S
O4 C5 1.232 . S
C5 O4 1.232 . S
C5 O6 1.218 . S
O6 C5 1.218 . S
C7 O0 1.275 . S
C7 O2 1.255 . S
C8 O9 1.258 . S
C8 O10 1.256 . S
O9 Cd1 2.381 . S
O9 C8 1.258 . S
O10 Cd1 2.378 . S
O10 C8 1.256 . S
O11 Cd12 2.300 . S
O11 C18 1.275 . S
Cd12 O11 2.300 . S
Cd12 O20 2.381 . S
Cd12 O21 2.378 . S
O13 Cd14 2.385 . S
O13 C18 1.255 . S
Cd14 O13 2.385 . S
Cd14 O15 2.317 . S
O15 Cd14 2.317 . S
O15 C16 1.232 . S
C16 O15 1.232 . S
C16 O17 1.218 . S
O17 C16 1.218 . S
C18 O11 1.275 . S
C18 O13 1.255 . S
C19 O20 1.258 . S
C19 O21 1.256 . S
O20 Cd12 2.381 . S
O20 C19 1.258 . S
O21 Cd12 2.378 . S
O21 C19 1.256 . S
O22 Cd23 2.300 . S
O22 C29 1.275 . S
Cd23 O22 2.300 . S
Cd23 O31 2.381 . S
Cd23 O32 2.378 . S
O24 Cd25 2.385 . S
O24 C29 1.255 . S
Cd25 O24 2.385 . S
Cd25 O26 2.317 . S
O26 Cd25 2.317 . S
O26 C27 1.232 . S
C27 O26 1.232 . S
C27 O28 1.218 . S
O28 C27 1.218 . S
C29 O22 1.275 . S
C29 O24 1.255 . S
C30 O31 1.258 . S
C30 O32 1.256 . S
O31 Cd23 2.381 . S
O31 C30 1.258 . S
O32 Cd23 2.378 . S
O32 C30 1.256 . S
O33 Cd34 2.300 . S
O33 C40 1.275 . S
Cd34 O33 2.300 . S
Cd34 O42 2.381 . S
Cd34 O43 2.378 . S
O35 Cd36 2.385 . S
O35 C40 1.255 . S
Cd36 O35 2.385 . S
Cd36 O37 2.317 . S
O37 Cd36 2.317 . S
O37 C38 1.232 . S
C38 O37 1.232 . S
C38 O39 1.218 . S
O39 C38 1.218 . S
C40 O33 1.275 . S
C40 O35 1.255 . S
C41 O42 1.258 . S
C41 O43 1.256 . S
O42 Cd34 2.381 . S
O42 C41 1.258 . S
O43 Cd34 2.378 . S
O43 C41 1.256 . S
O44 Cd45 2.300 . S
O44 C51 1.275 . S
Cd45 O44 2.300 . S
Cd45 O53 2.381 . S
Cd45 O54 2.378 . S
O46 Cd47 2.385 . S
O46 C51 1.255 . S
Cd47 O46 2.385 . S
Cd47 O48 2.317 . S
O48 Cd47 2.317 . S
O48 C49 1.232 . S
C49 O48 1.232 . S
C49 O50 1.218 . S
O50 C49 1.218 . S
C51 O44 1.275 . S
C51 O46 1.255 . S
C52 O53 1.258 . S
C52 O54 1.256 . S
O53 Cd45 2.381 . S
O53 C52 1.258 . S
O54 Cd45 2.378 . S
O54 C52 1.256 . S
O55 Cd56 2.300 . S
O55 C62 1.275 . S
Cd56 O55 2.300 . S
Cd56 O64 2.381 . S
Cd56 O65 2.378 . S
O57 Cd58 2.385 . S
O57 C62 1.255 . S
Cd58 O57 2.385 . S
Cd58 O59 2.317 . S
O59 Cd58 2.317 . S
O59 C60 1.232 . S
C60 O59 1.232 . S
C60 O61 1.218 . S
O61 C60 1.218 . S
C62 O55 1.275 . S
C62 O57 1.255 . S
C63 O64 1.258 . S
C63 O65 1.256 . S
O64 Cd56 2.381 . S
O64 C63 1.258 . S
O65 Cd56 2.378 . S
O65 C63 1.256 . S
O66 Cd67 2.300 . S
O66 C73 1.275 . S
Cd67 O66 2.300 . S
Cd67 O75 2.381 . S
Cd67 O76 2.378 . S
O68 Cd69 2.385 . S
O68 C73 1.255 . S
Cd69 O68 2.385 . S
Cd69 O70 2.317 . S
O70 Cd69 2.317 . S
O70 C71 1.232 . S
C71 O70 1.232 . S
C71 O72 1.218 . S
O72 C71 1.218 . S
C73 O66 1.275 . S
C73 O68 1.255 . S
C74 O75 1.258 . S
C74 O76 1.256 . S
O75 Cd67 2.381 . S
O75 C74 1.258 . S
O76 Cd67 2.378 . S
O76 C74 1.256 . S
O77 Cd78 2.300 . S
O77 C84 1.275 . S
Cd78 O77 2.300 . S
Cd78 O86 2.381 . S
Cd78 O87 2.378 . S
O79 Cd80 2.385 . S
O79 C84 1.255 . S
Cd80 O79 2.385 . S
Cd80 O81 2.317 . S
O81 Cd80 2.317 . S
O81 C82 1.232 . S
C82 O81 1.232 . S
C82 O83 1.218 . S
O83 C82 1.218 . S
C84 O77 1.275 . S
C84 O79 1.255 . S
C85 O86 1.258 . S
C85 O87 1.256 . S
O86 Cd78 2.381 . S
O86 C85 1.258 . S
O87 Cd78 2.378 . S
O87 C85 1.256 . S
O88 Cd89 2.300 . S
O88 C95 1.275 . S
Cd89 O88 2.300 . S
Cd89 O97 2.381 . S
Cd89 O98 2.378 . S
O90 Cd91 2.385 . S
O90 C95 1.255 . S
Cd91 O90 2.385 . S
Cd91 O92 2.317 . S
O92 Cd91 2.317 . S
O92 C93 1.232 . S
C93 O92 1.232 . S
C93 O94 1.218 . S
O94 C93 1.218 . S
C95 O88 1.275 . S
C95 O90 1.255 . S
C96 O97 1.258 . S
C96 O98 1.256 . S
O97 Cd89 2.381 . S
O97 C96 1.258 . S
O98 Cd89 2.378 . S
O98 C96 1.256 . S
O99 Cd100 2.300 . S
O99 C106 1.275 . S
Cd100 O99 2.300 . S
Cd100 O108 2.381 . S
Cd100 O109 2.378 . S
O101 Cd102 2.385 . S
O101 C106 1.255 . S
Cd102 O101 2.385 . S
Cd102 O103 2.317 . S
O103 Cd102 2.317 . S
O103 C104 1.232 . S
C104 O103 1.232 . S
C104 O105 1.218 . S
O105 C104 1.218 . S
C106 O99 1.275 . S
C106 O101 1.255 . S
C107 O108 1.258 . S
C107 O109 1.256 . S
O108 Cd100 2.381 . S
O108 C107 1.258 . S
O109 Cd100 2.378 . S
O109 C107 1.256 . S
O110 Cd111 2.300 . S
O110 C117 1.275 . S
Cd111 O110 2.300 . S
Cd111 O119 2.381 . S
Cd111 O120 2.378 . S
O112 Cd113 2.385 . S
O112 C117 1.255 . S
Cd113 O112 2.385 . S
Cd113 O114 2.317 . S
O114 Cd113 2.317 . S
O114 C115 1.232 . S
C115 O114 1.232 . S
C115 O116 1.218 . S
O116 C115 1.218 . S
C117 O110 1.275 . S
C117 O112 1.255 . S
C118 O119 1.258 . S
C118 O120 1.256 . S
O119 Cd111 2.381 . S
O119 C118 1.258 . S
O120 Cd111 2.378 . S
O120 C118 1.256 . S
O121 Cd122 2.300 . S
O121 C128 1.275 . S
Cd122 O121 2.300 . S
Cd122 O130 2.381 . S
Cd122 O131 2.378 . S
O123 Cd124 2.385 . S
O123 C128 1.255 . S
Cd124 O123 2.385 . S
Cd124 O125 2.317 . S
O125 Cd124 2.317 . S
O125 C126 1.232 . S
C126 O125 1.232 . S
C126 O127 1.218 . S
O127 C126 1.218 . S
C128 O121 1.275 . S
C128 O123 1.255 . S
C129 O130 1.258 . S
C129 O131 1.256 . S
O130 Cd122 2.381 . S
O130 C129 1.258 . S
O131 Cd122 2.378 . S
O131 C129 1.256 . S
C132 C133 1.369 . S
C132 C134 1.419 . S
C132 H136 0.930 . S
C133 C132 1.369 . S
C133 C142 1.429 . S
C134 C132 1.419 . S
C134 C135 1.363 . S
C134 H137 0.929 . S
C135 C134 1.363 . S
C135 C141 1.428 . S
H136 C132 0.930 . S
H137 C134 0.929 . S
S138 N139 1.613 . S
S138 N140 1.610 . S
N139 S138 1.613 . S
N139 C142 1.350 . S
N140 S138 1.610 . S
N140 C141 1.351 . S
C141 C135 1.428 . S
C141 N140 1.351 . S
C141 C142 1.434 . S
C142 C133 1.429 . S
C142 N139 1.350 . S
C142 C141 1.434 . S
C143 C144 1.369 . S
C143 C145 1.419 . S
C143 H147 0.930 . S
C144 C143 1.369 . S
C144 C153 1.429 . S
C145 C143 1.419 . S
C145 C146 1.363 . S
C145 H148 0.929 . S
C146 C145 1.363 . S
C146 C152 1.428 . S
H147 C143 0.930 . S
H148 C145 0.929 . S
S149 N150 1.613 . S
S149 N151 1.610 . S
N150 S149 1.613 . S
N150 C153 1.350 . S
N151 S149 1.610 . S
N151 C152 1.351 . S
C152 C146 1.428 . S
C152 N151 1.351 . S
C152 C153 1.434 . S
C153 C144 1.429 . S
C153 N150 1.350 . S
C153 C152 1.434 . S
C154 C155 1.369 . S
C154 C156 1.419 . S
C154 H158 0.930 . S
C155 C154 1.369 . S
C155 C164 1.429 . S
C156 C154 1.419 . S
C156 C157 1.363 . S
C156 H159 0.929 . S
C157 C156 1.363 . S
C157 C163 1.428 . S
H158 C154 0.930 . S
H159 C156 0.929 . S
S160 N161 1.613 . S
S160 N162 1.610 . S
N161 S160 1.613 . S
N161 C164 1.350 . S
N162 S160 1.610 . S
N162 C163 1.351 . S
C163 C157 1.428 . S
C163 N162 1.351 . S
C163 C164 1.434 . S
C164 C155 1.429 . S
C164 N161 1.350 . S
C164 C163 1.434 . S
C165 C166 1.369 . S
C165 C167 1.419 . S
C165 H169 0.930 . S
C166 C165 1.369 . S
C166 C175 1.429 . S
C167 C165 1.419 . S
C167 C168 1.363 . S
C167 H170 0.929 . S
C168 C167 1.363 . S
C168 C174 1.428 . S
H169 C165 0.930 . S
H170 C167 0.929 . S
S171 N172 1.613 . S
S171 N173 1.610 . S
N172 S171 1.613 . S
N172 C175 1.350 . S
N173 S171 1.610 . S
N173 C174 1.351 . S
C174 C168 1.428 . S
C174 N173 1.351 . S
C174 C175 1.434 . S
C175 C166 1.429 . S
C175 N172 1.350 . S
C175 C174 1.434 . S
C176 C177 1.369 . S
C176 C178 1.419 . S
C176 H180 0.930 . S
C177 C176 1.369 . S
C177 C186 1.429 . S
C178 C176 1.419 . S
C178 C179 1.363 . S
C178 H181 0.929 . S
C179 C178 1.363 . S
C179 C185 1.428 . S
H180 C176 0.930 . S
H181 C178 0.929 . S
S182 N183 1.613 . S
S182 N184 1.610 . S
N183 S182 1.613 . S
N183 C186 1.350 . S
N184 S182 1.610 . S
N184 C185 1.351 . S
C185 C179 1.428 . S
C185 N184 1.351 . S
C185 C186 1.434 . S
C186 C177 1.429 . S
C186 N183 1.350 . S
C186 C185 1.434 . S
C187 C188 1.369 . S
C187 C189 1.419 . S
C187 H191 0.930 . S
C188 C187 1.369 . S
C188 C197 1.429 . S
C189 C187 1.419 . S
C189 C190 1.363 . S
C189 H192 0.929 . S
C190 C189 1.363 . S
C190 C196 1.428 . S
H191 C187 0.930 . S
H192 C189 0.929 . S
S193 N194 1.613 . S
S193 N195 1.610 . S
N194 S193 1.613 . S
N194 C197 1.350 . S
N195 S193 1.610 . S
N195 C196 1.351 . S
C196 C190 1.428 . S
C196 N195 1.351 . S
C196 C197 1.434 . S
C197 C188 1.429 . S
C197 N194 1.350 . S
C197 C196 1.434 . S
C198 C199 1.369 . S
C198 C200 1.419 . S
C198 H202 0.930 . S
C199 C198 1.369 . S
C199 C208 1.429 . S
C200 C198 1.419 . S
C200 C201 1.363 . S
C200 H203 0.929 . S
C201 C200 1.363 . S
C201 C207 1.428 . S
H202 C198 0.930 . S
H203 C200 0.929 . S
S204 N205 1.613 . S
S204 N206 1.610 . S
N205 S204 1.613 . S
N205 C208 1.350 . S
N206 S204 1.610 . S
N206 C207 1.351 . S
C207 C201 1.428 . S
C207 N206 1.351 . S
C207 C208 1.434 . S
C208 C199 1.429 . S
C208 N205 1.350 . S
C208 C207 1.434 . S
C209 C210 1.369 . S
C209 C211 1.419 . S
C209 H213 0.930 . S
C210 C209 1.369 . S
C210 C219 1.429 . S
C211 C209 1.419 . S
C211 C212 1.363 . S
C211 H214 0.929 . S
C212 C211 1.363 . S
C212 C218 1.428 . S
H213 C209 0.930 . S
H214 C211 0.929 . S
S215 N216 1.613 . S
S215 N217 1.610 . S
N216 S215 1.613 . S
N216 C219 1.350 . S
N217 S215 1.610 . S
N217 C218 1.351 . S
C218 C212 1.428 . S
C218 N217 1.351 . S
C218 C219 1.434 . S
C219 C210 1.429 . S
C219 N216 1.350 . S
C219 C218 1.434 . S
C220 C221 1.369 . S
C220 C222 1.419 . S
C220 H224 0.930 . S
C221 C220 1.369 . S
C221 C230 1.429 . S
C222 C220 1.419 . S
C222 C223 1.363 . S
C222 H225 0.929 . S
C223 C222 1.363 . S
C223 C229 1.428 . S
H224 C220 0.930 . S
H225 C222 0.929 . S
S226 N227 1.613 . S
S226 N228 1.610 . S
N227 S226 1.613 . S
N227 C230 1.350 . S
N228 S226 1.610 . S
N228 C229 1.351 . S
C229 C223 1.428 . S
C229 N228 1.351 . S
C229 C230 1.434 . S
C230 C221 1.429 . S
C230 N227 1.350 . S
C230 C229 1.434 . S
C231 C232 1.369 . S
C231 C233 1.419 . S
C231 H235 0.930 . S
C232 C231 1.369 . S
C232 C241 1.429 . S
C233 C231 1.419 . S
C233 C234 1.363 . S
C233 H236 0.929 . S
C234 C233 1.363 . S
C234 C240 1.428 . S
H235 C231 0.930 . S
H236 C233 0.929 . S
S237 N238 1.613 . S
S237 N239 1.610 . S
N238 S237 1.613 . S
N238 C241 1.350 . S
N239 S237 1.610 . S
N239 C240 1.351 . S
C240 C234 1.428 . S
C240 N239 1.351 . S
C240 C241 1.434 . S
C241 C232 1.429 . S
C241 N238 1.350 . S
C241 C240 1.434 . S
C242 C243 1.369 . S
C242 C244 1.419 . S
C242 H246 0.930 . S
C243 C242 1.369 . S
C243 C252 1.429 . S
C244 C242 1.419 . S
C244 C245 1.363 . S
C244 H247 0.929 . S
C245 C244 1.363 . S
C245 C251 1.428 . S
H246 C242 0.930 . S
H247 C244 0.929 . S
S248 N249 1.613 . S
S248 N250 1.610 . S
N249 S248 1.613 . S
N249 C252 1.350 . S
N250 S248 1.610 . S
N250 C251 1.351 . S
C251 C245 1.428 . S
C251 N250 1.351 . S
C251 C252 1.434 . S
C252 C243 1.429 . S
C252 N249 1.350 . S
C252 C251 1.434 . S
C253 C254 1.369 . S
C253 C255 1.419 . S
C253 H257 0.930 . S
C254 C253 1.369 . S
C254 C263 1.429 . S
C255 C253 1.419 . S
C255 C256 1.363 . S
C255 H258 0.929 . S
C256 C255 1.363 . S
C256 C262 1.428 . S
H257 C253 0.930 . S
H258 C255 0.929 . S
S259 N260 1.613 . S
S259 N261 1.610 . S
N260 S259 1.613 . S
N260 C263 1.350 . S
N261 S259 1.610 . S
N261 C262 1.351 . S
C262 C256 1.428 . S
C262 N261 1.351 . S
C262 C263 1.434 . S
C263 C254 1.429 . S
C263 N260 1.350 . S
C263 C262 1.434 . S
C264 C265 1.369 . S
C264 C266 1.419 1_554 S
C264 H268 0.930 . S
C265 C264 1.369 . S
C265 C274 1.429 . S
C266 C264 1.419 1_556 S
C266 C267 1.363 . S
C266 H269 0.929 . S
C267 C266 1.363 . S
C267 C273 1.428 . S
H268 C264 0.930 . S
H269 C266 0.929 . S
S270 N271 1.613 . S
S270 N272 1.610 1_554 S
N271 S270 1.613 . S
N271 C274 1.350 . S
N272 S270 1.610 1_556 S
N272 C273 1.351 . S
C273 C267 1.428 . S
C273 N272 1.351 . S
C273 C274 1.434 1_556 S
C274 C265 1.429 . S
C274 N271 1.350 . S
C274 C273 1.434 1_554 S
C275 C276 1.369 1_655 S
C275 C277 1.419 . S
C275 H279 0.930 . S
C276 C275 1.369 1_455 S
C276 C285 1.429 . S
C277 C275 1.419 . S
C277 C278 1.363 . S
C277 H280 0.929 . S
C278 C277 1.363 . S
C278 C284 1.428 1_655 S
H279 C275 0.930 . S
H280 C277 0.929 . S
S281 N282 1.613 . S
S281 N283 1.610 . S
N282 S281 1.613 . S
N282 C285 1.350 . S
N283 S281 1.610 . S
N283 C284 1.351 . S
C284 C278 1.428 1_455 S
C284 N283 1.351 . S
C284 C285 1.434 . S
C285 C276 1.429 . S
C285 N282 1.350 . S
C285 C284 1.434 . S
C286 C287 1.369 . S
C286 C288 1.419 1_556 S
C286 H290 0.930 . S
C287 C286 1.369 . S
C287 C296 1.429 1_545 S
C288 C286 1.419 1_554 S
C288 C289 1.363 1_545 S
C288 H291 0.929 . S
C289 C288 1.363 1_565 S
C289 C295 1.428 . S
H290 C286 0.930 . S
H291 C288 0.929 . S
S292 N293 1.613 . S
S292 N294 1.610 1_556 S
N293 S292 1.613 . S
N293 C296 1.350 . S
N294 S292 1.610 1_554 S
N294 C295 1.351 . S
C295 C289 1.428 . S
C295 N294 1.351 . S
C295 C296 1.434 1_554 S
C296 C287 1.429 1_565 S
C296 N293 1.350 . S
C296 C295 1.434 1_556 S
C297 C298 1.369 . S
C297 C299 1.419 . S
C297 H301 0.930 . S
C298 C297 1.369 . S
C298 C307 1.429 . S
C299 C297 1.419 . S
C299 C300 1.363 . S
C299 H302 0.929 . S
C300 C299 1.363 . S
C300 C306 1.428 . S
H301 C297 0.930 . S
H302 C299 0.929 . S
S303 N304 1.613 . S
S303 N305 1.610 . S
N304 S303 1.613 . S
N304 C307 1.350 . S
N305 S303 1.610 . S
N305 C306 1.351 . S
C306 C300 1.428 . S
C306 N305 1.351 . S
C306 C307 1.434 . S
C307 C298 1.429 . S
C307 N304 1.350 . S
C307 C306 1.434 . S
C308 C309 1.369 . S
C308 C310 1.419 1_554 S
C308 H312 0.930 . S
C309 C308 1.369 . S
C309 C318 1.429 1_455 S
C310 C308 1.419 1_556 S
C310 C311 1.363 1_455 S
C310 H313 0.929 . S
C311 C310 1.363 1_655 S
C311 C317 1.428 . S
H312 C308 0.930 . S
H313 C310 0.929 . S
S314 N315 1.613 . S
S314 N316 1.610 1_554 S
N315 S314 1.613 . S
N315 C318 1.350 . S
N316 S314 1.610 1_556 S
N316 C317 1.351 . S
C317 C311 1.428 . S
C317 N316 1.351 . S
C317 C318 1.434 1_556 S
C318 C309 1.429 1_655 S
C318 N315 1.350 . S
C318 C317 1.434 1_554 S
C319 C320 1.369 . S
C319 C321 1.419 . S
C319 H323 0.930 . S
C320 C319 1.369 . S
C320 C329 1.429 1_565 S
C321 C319 1.419 . S
C321 C322 1.363 1_565 S
C321 H324 0.929 . S
C322 C321 1.363 1_545 S
C322 C328 1.428 . S
H323 C319 0.930 . S
H324 C321 0.929 . S
S325 N326 1.613 . S
S325 N327 1.610 . S
N326 S325 1.613 . S
N326 C329 1.350 . S
N327 S325 1.610 . S
N327 C328 1.351 . S
C328 C322 1.428 . S
C328 N327 1.351 . S
C328 C329 1.434 . S
C329 C320 1.429 1_545 S
C329 N326 1.350 . S
C329 C328 1.434 . S
C133 C5 1.406 . S
C135 C115 1.411 . S
C144 C126 1.418 . S
C146 C16 1.407 . S
C155 C71 1.406 . S
C157 C27 1.417 . S
C166 C38 1.406 . S
C168 C82 1.412 . S
C177 C93 1.410 . S
C179 C49 1.417 . S
C188 C104 1.418 . S
C190 C60 1.407 . S
C199 C7 1.528 . S
C201 C73 1.525 . S
C210 C18 1.524 . S
C212 C84 1.527 . S
C221 C29 1.522 . S
C223 C95 1.525 . S
C232 C106 1.522 . S
C234 C40 1.525 . S
C243 C51 1.526 . S
C245 C117 1.527 . S
C254 C62 1.525 . S
C256 C128 1.527 . S
C265 C8 1.571 . S
C267 C107 1.571 . S
C276 C118 1.571 . S
C278 C19 1.571 . S
C287 C129 1.571 . S
C289 C30 1.571 . S
C298 C41 1.571 . S
C300 C74 1.571 . S
C309 C52 1.571 . S
C311 C85 1.571 . S
C320 C96 1.571 . S
C322 C63 1.571 . S
