# Generated by pormake.
# Topology wlb, (5)-cn, num edge types: 1
# Building blocks:
#     Node 0, Type 0, BuildingBlock: XOMCOT_clean_sbu_1, # of connection points: 5
#     Node 1, Type 0, BuildingBlock: XOMCOT_clean_sbu_1, # of connection points: 5
#     Node 2, Type 0, BuildingBlock: XOMCOT_clean_sbu_1, # of connection points: 5
#     Node 3, Type 0, BuildingBlock: XOMCOT_clean_sbu_1, # of connection points: 5
#     Node 4, Type 0, BuildingBlock: XOMCOT_clean_sbu_1, # of connection points: 5
#     Node 5, Type 0, BuildingBlock: XOMCOT_clean_sbu_1, # of connection points: 5
#     Node 6, Type 0, BuildingBlock: XOMCOT_clean_sbu_1, # of connection points: 5
#     Node 7, Type 0, BuildingBlock: XOMCOT_clean_sbu_1, # of connection points: 5
#     Node 8, Type 0, BuildingBlock: XOMCOT_clean_sbu_1, # of connection points: 5
#     Node 9, Type 0, BuildingBlock: XOMCOT_clean_sbu_1, # of connection points: 5
#     Node 10, Type 0, BuildingBlock: XOMCOT_clean_sbu_1, # of connection points: 5
#     Node 11, Type 0, BuildingBlock: XOMCOT_clean_sbu_1, # of connection points: 5
#     Node 12, Type 0, BuildingBlock: XOMCOT_clean_sbu_1, # of connection points: 5
#     Node 13, Type 0, BuildingBlock: XOMCOT_clean_sbu_1, # of connection points: 5
#     Node 14, Type 0, BuildingBlock: XOMCOT_clean_sbu_1, # of connection points: 5
#     Node 15, Type 0, BuildingBlock: XOMCOT_clean_sbu_1, # of connection points: 5
#     Node 16, Type 0, BuildingBlock: XOMCOT_clean_sbu_1, # of connection points: 5
#     Node 17, Type 0, BuildingBlock: XOMCOT_clean_sbu_1, # of connection points: 5
#     Edge 18, Type (0, 0), BuildingBlock: OJICUG_clean_linker_0, # of connection points: 2
#     Edge 19, Type (0, 0), BuildingBlock: OJICUG_clean_linker_0, # of connection points: 2
#     Edge 20, Type (0, 0), BuildingBlock: OJICUG_clean_linker_0, # of connection points: 2
#     Edge 21, Type (0, 0), BuildingBlock: OJICUG_clean_linker_0, # of connection points: 2
#     Edge 22, Type (0, 0), BuildingBlock: OJICUG_clean_linker_0, # of connection points: 2
#     Edge 23, Type (0, 0), BuildingBlock: OJICUG_clean_linker_0, # of connection points: 2
#     Edge 24, Type (0, 0), BuildingBlock: OJICUG_clean_linker_0, # of connection points: 2
#     Edge 25, Type (0, 0), BuildingBlock: OJICUG_clean_linker_0, # of connection points: 2
#     Edge 26, Type (0, 0), BuildingBlock: OJICUG_clean_linker_0, # of connection points: 2
#     Edge 27, Type (0, 0), BuildingBlock: OJICUG_clean_linker_0, # of connection points: 2
#     Edge 28, Type (0, 0), BuildingBlock: OJICUG_clean_linker_0, # of connection points: 2
#     Edge 29, Type (0, 0), BuildingBlock: OJICUG_clean_linker_0, # of connection points: 2
#     Edge 30, Type (0, 0), BuildingBlock: OJICUG_clean_linker_0, # of connection points: 2
#     Edge 31, Type (0, 0), BuildingBlock: OJICUG_clean_linker_0, # of connection points: 2
#     Edge 32, Type (0, 0), BuildingBlock: OJICUG_clean_linker_0, # of connection points: 2
#     Edge 33, Type (0, 0), BuildingBlock: OJICUG_clean_linker_0, # of connection points: 2
#     Edge 34, Type (0, 0), BuildingBlock: OJICUG_clean_linker_0, # of connection points: 2
#     Edge 35, Type (0, 0), BuildingBlock: OJICUG_clean_linker_0, # of connection points: 2
#     Edge 36, Type (0, 0), BuildingBlock: OJICUG_clean_linker_0, # of connection points: 2
#     Edge 37, Type (0, 0), BuildingBlock: OJICUG_clean_linker_0, # of connection points: 2
#     Edge 38, Type (0, 0), BuildingBlock: OJICUG_clean_linker_0, # of connection points: 2
#     Edge 39, Type (0, 0), BuildingBlock: OJICUG_clean_linker_0, # of connection points: 2
#     Edge 40, Type (0, 0), BuildingBlock: OJICUG_clean_linker_0, # of connection points: 2
#     Edge 41, Type (0, 0), BuildingBlock: OJICUG_clean_linker_0, # of connection points: 2
#     Edge 42, Type (0, 0), BuildingBlock: OJICUG_clean_linker_0, # of connection points: 2
#     Edge 43, Type (0, 0), BuildingBlock: OJICUG_clean_linker_0, # of connection points: 2
#     Edge 44, Type (0, 0), BuildingBlock: OJICUG_clean_linker_0, # of connection points: 2
#     Edge 45, Type (0, 0), BuildingBlock: OJICUG_clean_linker_0, # of connection points: 2
#     Edge 46, Type (0, 0), BuildingBlock: OJICUG_clean_linker_0, # of connection points: 2
#     Edge 47, Type (0, 0), BuildingBlock: OJICUG_clean_linker_0, # of connection points: 2
#     Edge 48, Type (0, 0), BuildingBlock: OJICUG_clean_linker_0, # of connection points: 2
#     Edge 49, Type (0, 0), BuildingBlock: OJICUG_clean_linker_0, # of connection points: 2
#     Edge 50, Type (0, 0), BuildingBlock: OJICUG_clean_linker_0, # of connection points: 2
#     Edge 51, Type (0, 0), BuildingBlock: OJICUG_clean_linker_0, # of connection points: 2
#     Edge 52, Type (0, 0), BuildingBlock: OJICUG_clean_linker_0, # of connection points: 2
#     Edge 53, Type (0, 0), BuildingBlock: OJICUG_clean_linker_0, # of connection points: 2
#     Edge 54, Type (0, 0), BuildingBlock: OJICUG_clean_linker_0, # of connection points: 2
#     Edge 55, Type (0, 0), BuildingBlock: OJICUG_clean_linker_0, # of connection points: 2
#     Edge 56, Type (0, 0), BuildingBlock: OJICUG_clean_linker_0, # of connection points: 2
#     Edge 57, Type (0, 0), BuildingBlock: OJICUG_clean_linker_0, # of connection points: 2
#     Edge 58, Type (0, 0), BuildingBlock: OJICUG_clean_linker_0, # of connection points: 2
#     Edge 59, Type (0, 0), BuildingBlock: OJICUG_clean_linker_0, # of connection points: 2
#     Edge 60, Type (0, 0), BuildingBlock: OJICUG_clean_linker_0, # of connection points: 2
#     Edge 61, Type (0, 0), BuildingBlock: OJICUG_clean_linker_0, # of connection points: 2
#     Edge 62, Type (0, 0), BuildingBlock: OJICUG_clean_linker_0, # of connection points: 2
# Relax obj value: 0.359
# Max RMSD: 0.211
# Mean RMSD: 0.211
data_MOF--net-wlb--node1-XOMCOT_clean_sbu_1--edge1-OJICUG_clean_linker_0
_symmetry_space_group_name_H-M    P1
_symmetry_Int_Tables_number       1
_symmetry_cell_setting            triclinic
loop_
_symmetry_equiv_pos_as_xyz
'x, y, z'
_cell_length_a     38.758845
_cell_length_b     38.665149
_cell_length_c     30.605571
_cell_angle_alpha  90.022379
_cell_angle_beta   89.778422
_cell_angle_gamma 119.92371
loop_
_atom_site_label
_atom_site_type_symbol
_atom_site_fract_x
_atom_site_fract_y
_atom_site_fract_z
_atom_type_partial_charge
C0 C 0.15408 0.21349 0.20524 0.0
C1 C 0.17218 0.19148 0.21361 0.0
N2 N 0.14712 0.15924 0.23745 0.0
N3 N 0.11764 0.19555 0.22364 0.0
C4 C 0.11394 0.16221 0.24287 0.0
H5 H 0.16669 0.24099 0.18675 0.0
Co6 Co 0.08565 0.21898 0.22061 0.0
C7 C 1.00287 0.15652 0.237 0.0
O8 O 0.99404 0.17389 0.20557 0.0
N9 N 0.05449 0.2446 0.21912 0.0
C10 C 1.01728 0.2685 0.24682 0.0
C11 C 0.03627 0.24749 0.25562 0.0
C12 C 0.04656 0.26509 0.18862 0.0
N13 N 1.02372 0.27967 0.20462 0.0
O14 O 0.10726 0.246 0.27508 0.0
H15 H 0.03632 0.2345 0.2869 0.0
H16 H 0.05754 0.26993 0.15552 0.0
O17 O 0.03953 0.17073 0.24819 0.0
C18 C 0.13369 0.28148 0.26381 0.0
O19 O 0.14181 0.28888 0.22198 0.0
N20 N 0.06978 0.19716 0.16448 0.0
C21 C 0.05793 0.17407 0.07681 0.0
C22 C 0.04276 0.14535 0.11031 0.0
C23 C 0.04981 0.1575 0.15403 0.0
C24 C 0.08736 0.22502 0.13243 0.0
C25 C 0.08095 0.21437 0.08853 0.0
H26 H 0.03999 0.13495 0.17919 0.0
H27 H 0.10681 0.25592 0.14107 0.0
H28 H 0.08785 0.14092 0.26092 0.0
H29 H 0.20139 0.19834 0.2022 0.0
H30 H 0.99935 0.27422 0.26967 0.0
H31 H 1.02635 0.11379 0.10286 0.0
H32 H 0.09376 0.23775 0.06411 0.0
C33 C 0.82488 0.95401 0.19682 0.0
C34 C 0.84485 0.99416 0.20608 0.0
N35 N 0.87059 1.00082 0.2387 0.0
N36 N 0.83863 0.93513 0.22247 0.0
C37 C 0.86472 0.96443 0.24945 0.0
H38 H 0.80192 0.93997 0.17256 0.0
Co39 Co 0.823 0.87977 0.22152 0.0
C40 C 0.90902 0.91771 0.24218 0.0
O41 O 0.9158 0.94408 0.21137 0.0
N42 N 0.80681 0.82558 0.22237 0.0
C43 C 0.79502 0.76621 0.24537 0.0
C44 C 0.81321 0.80616 0.25511 0.0
C45 C 0.78438 0.79689 0.19327 0.0
N46 N 0.77681 0.76033 0.20644 0.0
O47 O 0.79425 0.87254 0.27472 0.0
H48 H 0.8297 0.82008 0.28452 0.0
H49 H 0.77331 0.80273 0.1634 0.0
O50 O 0.87308 0.89086 0.25126 0.0
C51 C 0.75851 0.86044 0.26227 0.0
O52 O 0.7518 0.85976 0.22011 0.0
N53 N 0.84613 0.88388 0.1659 0.0
C54 C 0.86945 0.88315 0.07925 0.0
C55 C 0.88859 0.87613 0.1142 0.0
C56 C 0.87514 0.87461 0.15688 0.0
C57 C 0.82564 0.88828 0.13239 0.0
C58 C 0.83689 0.88837 0.08906 0.0
H59 H 0.88743 0.86473 0.18226 0.0
H60 H 0.79873 0.88907 0.13899 0.0
H61 H 0.88021 0.95965 0.27597 0.0
H62 H 0.84207 1.01696 0.18857 0.0
H63 H 0.79568 0.7434 0.26522 0.0
H64 H 0.9132 0.87088 0.10902 0.0
H65 H 0.81888 0.89078 0.06363 0.0
C66 C 0.08856 0.88841 0.2124 0.0
C67 C 0.04909 0.8762 0.2204 0.0
N68 N 0.04728 0.90384 0.24564 0.0
N69 N 0.11153 0.92363 0.23238 0.0
C70 C 0.08555 0.93195 0.25278 0.0
H71 H 0.09981 0.87338 0.19195 0.0
Co72 Co 0.16678 0.95411 0.22883 0.0
C73 C 0.1878 0.03772 0.24964 0.0
O74 O 0.21862 0.0499 0.22345 0.0
N75 N 0.22334 0.98431 0.22673 0.0
C76 C 0.28538 1.01854 0.2523 0.0
C77 C 0.24573 0.99937 0.26312 0.0
C78 C 0.25053 0.9948 0.19415 0.0
N79 N 0.28829 1.01574 0.20887 0.0
O80 O 0.17128 0.93168 0.28284 0.0
H81 H 0.23394 0.99722 0.29571 0.0
H82 H 0.24345 0.98735 0.16022 0.0
O83 O 0.16516 1.00017 0.25674 0.0
C84 C 0.17799 0.90378 0.271 0.0
O85 O 0.17469 0.89454 0.22931 0.0
N86 N 0.16177 0.97101 0.17308 0.0
C87 C 0.15751 0.98831 0.0855 0.0
C88 C 0.14474 1.00456 0.11864 0.0
C89 C 0.14639 0.99487 0.16232 0.0
C90 C 0.17005 0.9517 0.14119 0.0
C91 C 0.1694 0.96077 0.09736 0.0
H92 H 0.13466 1.00606 0.18702 0.0
H93 H 0.17892 0.93019 0.15007 0.0
H94 H 0.09432 0.95855 0.27181 0.0
H95 H 1.02375 0.85026 0.2065 0.0
H96 H 0.31011 0.03422 0.27448 0.0
H97 H 0.13328 0.02427 0.11096 0.0
H98 H 0.17926 0.94703 0.07329 0.0
C99 C 0.21708 0.15034 0.79052 0.0
C100 C 0.19572 0.16789 0.77655 0.0
N101 N 0.17976 0.15262 0.7373 0.0
N102 N 0.21411 0.12318 0.76077 0.0
C103 C 0.1932 0.12726 0.72762 0.0
H104 H 0.23217 0.1563 0.82141 0.0
Co105 Co 0.23065 0.08432 0.76301 0.0
C106 C 0.14491 0.03705 0.7412 0.0
O107 O 0.13866 0.05869 0.76986 0.0
N108 N 0.24735 0.04678 0.76312 0.0
C109 C 0.25905 0.99891 0.74097 0.0
C110 C 0.24153 0.0211 0.73038 0.0
C111 C 0.26874 0.03997 0.79312 0.0
N112 N 0.2762 1.01079 0.78047 0.0
O113 O 0.25938 0.10534 0.7095 0.0
H114 H 0.22575 1.01881 0.70049 0.0
H115 H 0.27903 0.05649 0.82334 0.0
O116 O 0.18065 0.04469 0.73345 0.0
C117 C 0.2953 0.12949 0.72092 0.0
O118 O 0.30281 0.13663 0.76283 0.0
N119 N 0.20733 0.06553 0.81861 0.0
C120 C 0.18437 0.04023 0.90491 0.0
C121 C 0.16492 1.01466 0.86971 0.0
C122 C 0.178 0.02726 0.82714 0.0
C123 C 0.22802 0.08994 0.85243 0.0
C124 C 0.21671 0.07826 0.8957 0.0
H125 H 0.16558 1.00534 0.80156 0.0
H126 H 0.25488 0.11786 0.84591 0.0
H127 H 0.18535 0.10947 0.69819 0.0
H128 H 0.18995 0.18806 0.79561 0.0
H129 H 0.25859 0.97541 0.72133 0.0
H130 H 0.1405 0.98463 0.87479 0.0
H131 H 0.23444 0.09824 0.92161 0.0
C132 C 0.90588 0.08968 0.74602 0.0
C133 C 0.88975 0.0498 0.73645 0.0
N134 N 0.91966 0.04184 0.7316 0.0
N135 N 0.94588 0.10707 0.74715 0.0
C136 C 0.95333 0.07695 0.73893 0.0
H137 H 0.88941 0.10513 0.75098 0.0
Co138 Co 0.98092 0.16191 0.7549 0.0
C139 C 0.03454 0.14679 0.69104 0.0
O140 O 1.00933 0.12471 0.66061 0.0
N141 N 1.01606 0.21659 0.76131 0.0
C142 C 0.0602 0.27864 0.7422 0.0
C143 C 0.04055 0.23966 0.72905 0.0
C144 C 1.02114 0.24237 0.79386 0.0
N145 N 0.04787 0.28053 0.78287 0.0
O146 O 0.95968 0.17344 0.70387 0.0
H147 H 0.04328 0.22896 0.6973 0.0
H148 H 1.00462 0.23345 0.82428 0.0
O149 O 1.02267 0.15869 0.72355 0.0
C150 C 0.93639 0.18549 0.71831 0.0
O151 O 0.93143 0.1857 0.76082 0.0
N152 N 0.99823 0.15174 0.80745 0.0
C153 C 1.01809 0.14597 0.89361 0.0
C154 C 0.04525 0.15348 0.85934 0.0
C155 C 0.03489 0.15668 0.81641 0.0
C156 C 0.97096 0.14282 0.83987 0.0
C157 C 0.98021 0.13984 0.88313 0.0
H158 H 0.05696 0.16467 0.79106 0.0
H159 H 0.94237 0.13986 0.83224 0.0
H160 H 0.98283 0.08055 0.73851 0.0
H161 H 0.85842 0.02857 0.73223 0.0
H162 H 0.08193 0.30367 0.72311 0.0
H163 H 0.0747 0.15806 0.8657 0.0
H164 H 0.95848 0.1349 0.90825 0.0
C165 C 0.96002 0.81972 0.73273 0.0
C166 C 0.99955 0.84761 0.72579 0.0
N167 N 1.00522 0.88377 0.73709 0.0
N168 N 0.94076 0.83819 0.74823 0.0
C169 C 0.96939 0.87688 0.75167 0.0
H170 H 0.94602 0.78838 0.72473 0.0
Co171 Co 0.88567 0.81781 0.7543 0.0
C172 C 0.90848 0.89045 0.6964 0.0
O173 O 0.9324 0.88583 0.66955 0.0
N174 N 0.83087 0.79835 0.75889 0.0
C175 C 0.77005 0.78323 0.73828 0.0
C176 C 0.80933 0.80164 0.72628 0.0
C177 C 0.80387 0.77746 0.79042 0.0
N178 N 0.76652 0.76791 0.77861 0.0
O179 O 0.87602 0.78853 0.70084 0.0
H180 H 0.8214 0.81622 0.6953 0.0
H181 H 0.81124 0.76871 0.82097 0.0
O182 O 0.89048 0.86513 0.72673 0.0
C183 C 0.86417 0.75274 0.71354 0.0
O184 O 0.86465 0.74624 0.75563 0.0
N185 N 0.89361 0.84162 0.80908 0.0
C186 C 0.89708 0.863 0.89677 0.0
C187 C 0.9014 0.88979 0.86323 0.0
C188 C 0.89894 0.8783 0.81953 0.0
C189 C 0.89158 0.81617 0.84089 0.0
C190 C 0.89245 0.82583 0.8848 0.0
H191 H 0.90114 0.89898 0.79461 0.0
H192 H 0.88737 0.78725 0.83199 0.0
H193 H 0.96354 0.89995 0.76286 0.0
H194 H 1.02176 0.84187 0.71144 0.0
H195 H 0.74605 0.78178 0.71895 0.0
H196 H 0.90614 0.91925 0.87039 0.0
H197 H 0.88797 0.80344 0.90882 0.0
C198 C 0.82549 0.54487 0.54109 0.0
C199 C 0.84228 0.52229 0.5534 0.0
N200 N 0.81969 0.49702 0.58522 0.0
N201 N 0.79129 0.53297 0.56358 0.0
C202 C 0.79059 0.50598 0.59239 0.0
H203 H 0.83789 0.56835 0.51699 0.0
Co204 Co 0.75373 0.55118 0.55843 0.0
C205 C 0.69967 0.46544 0.58062 0.0
O206 O 0.71874 0.45609 0.55158 0.0
N207 N 0.71781 0.56995 0.55564 0.0
C208 C 0.67177 0.58461 0.57671 0.0
C209 C 0.69276 0.56618 0.58837 0.0
C210 C 0.7118 0.59109 0.52446 0.0
N211 N 0.68374 0.60037 0.53652 0.0
O212 O 0.77403 0.58049 0.61123 0.0
H213 H 0.69016 0.55124 0.61909 0.0
H214 H 0.72804 0.59988 0.49386 0.0
O215 O 0.71137 0.5023 0.58841 0.0
C216 C 0.79906 0.61585 0.59842 0.0
O217 O 0.80676 0.62195 0.55636 0.0
N218 N 0.73615 0.5272 0.50303 0.0
C219 C 0.71329 0.50474 0.41649 0.0
C220 C 0.68508 0.48973 0.45033 0.0
C221 C 0.69696 0.50209 0.49319 0.0
C222 C 0.7634 0.54346 0.47009 0.0
C223 C 0.75293 0.53187 0.42682 0.0
H224 H 0.67419 0.49309 0.51792 0.0
H225 H 0.79273 0.56786 0.47663 0.0
H226 H 0.76838 0.49205 0.61774 0.0
H227 H 0.86783 0.52291 0.53816 0.0
H228 H 0.64899 0.58575 0.59618 0.0
H229 H 0.65385 0.46976 0.44358 0.0
H230 H 0.77518 0.54605 0.40138 0.0
C231 C 0.50313 0.28657 0.53418 0.0
C232 C 0.5256 0.32615 0.54561 0.0
N233 N 0.54739 0.32892 0.58094 0.0
N234 N 0.51136 0.26407 0.56126 0.0
C235 C 0.53634 0.29071 0.59107 0.0
H236 H 0.48306 0.27565 0.50684 0.0
Co237 Co 0.49317 0.20815 0.55858 0.0
C238 C 0.57869 0.24168 0.58225 0.0
O239 O 0.58796 0.26988 0.55299 0.0
N240 N 0.47458 0.15344 0.55765 0.0
C241 C 0.46037 0.09295 0.57924 0.0
C242 C 0.47867 0.13254 0.59048 0.0
C243 C 0.45338 0.12594 0.52691 0.0
N244 N 0.44439 0.08873 0.53921 0.0
O245 O 0.46417 0.201 0.61176 0.0
H246 H 0.49384 0.14526 0.6209 0.0
H247 H 0.44435 0.13308 0.49639 0.0
O248 O 0.54198 0.21567 0.58903 0.0
C249 C 0.42864 0.19064 0.60004 0.0
O250 O 0.42142 0.19009 0.55803 0.0
N251 N 0.51675 0.21273 0.50312 0.0
C252 C 0.54022 0.21328 0.4163 0.0
C253 C 0.55886 0.20506 0.45081 0.0
C254 C 0.5455 0.2032 0.49363 0.0
C255 C 0.4967 0.21822 0.46988 0.0
C256 C 0.50821 0.21923 0.42647 0.0
H257 H 0.55744 0.19257 0.51861 0.0
H258 H 0.47002 0.21941 0.47681 0.0
H259 H 0.54826 0.28257 0.61856 0.0
H260 H 0.52804 0.35113 0.52711 0.0
H261 H 0.45951 0.06924 0.59884 0.0
H262 H 0.58293 0.19906 0.445 0.0
H263 H 0.49084 0.2228 0.40111 0.0
C264 C 0.75913 0.21707 0.55334 0.0
C265 C 0.71945 0.20134 0.56376 0.0
N266 N 0.71603 0.22619 0.59195 0.0
N267 N 0.78088 0.25285 0.57302 0.0
C268 C 0.75388 0.25549 0.59905 0.0
H269 H 0.77096 0.20302 0.53232 0.0
Co270 Co 0.83687 0.28975 0.5674 0.0
C271 C 0.80736 0.34589 0.58575 0.0
O272 O 0.7804 0.32735 0.5554 0.0
N273 N 0.89161 0.32476 0.56435 0.0
C274 C 0.95249 0.3705 0.58439 0.0
C275 C 0.91318 0.35012 0.59653 0.0
C276 C 0.91844 0.32986 0.53309 0.0
N277 N 0.95585 0.35779 0.54446 0.0
O278 O 0.84541 0.2694 0.62067 0.0
H279 H 0.90107 0.35347 0.62711 0.0
H280 H 0.91063 0.31328 0.50279 0.0
O281 O 0.83118 0.33317 0.59622 0.0
C282 C 0.85535 0.24403 0.6078 0.0
O283 O 0.85244 0.2355 0.56591 0.0
N284 N 0.83122 0.30756 0.51144 0.0
C285 C 0.83409 0.33121 0.42442 0.0
C286 C 0.85047 0.35964 0.45782 0.0
C287 C 0.84927 0.34726 0.50091 0.0
C288 C 0.81625 0.27977 0.47903 0.0
C289 C 0.81626 0.29075 0.43571 0.0
H290 H 0.86488 0.36981 0.52541 0.0
H291 H 0.8067 0.24909 0.48581 0.0
H292 H 0.76149 0.27897 0.62258 0.0
H293 H 0.69494 0.17485 0.54961 0.0
H294 H 0.9766 0.39351 0.60323 0.0
H295 H 0.86609 0.39128 0.45059 0.0
H296 H 0.80371 0.26763 0.41108 0.0
C297 C 0.8888 0.4937 0.12675 0.0
C298 C 0.86571 0.50963 0.1135 0.0
N299 N 0.84654 0.49107 0.07666 0.0
N300 N 0.88355 0.46418 0.09915 0.0
C301 C 0.8599 0.46558 0.06746 0.0
H302 H 0.90672 0.50254 0.15582 0.0
Co303 Co 0.9007 0.42562 0.10089 0.0
C304 C 0.8141 0.37648 0.08519 0.0
O305 O 0.8094 0.39773 0.11574 0.0
N306 N 0.91788 0.38844 0.09996 0.0
C307 C 0.92816 0.33992 0.07695 0.0
C308 C 0.90999 0.36173 0.06777 0.0
C309 C 0.9413 0.38273 0.12813 0.0
N310 N 0.94796 0.35313 0.11493 0.0
O311 O 0.92764 0.44602 0.0465 0.0
H312 H 0.89228 0.35842 0.0392 0.0
H313 H 0.95343 0.40026 0.15745 0.0
O314 O 0.84944 0.38497 0.07374 0.0
C315 C 0.9634 0.47085 0.0579 0.0
O316 O 0.97068 0.47871 0.09975 0.0
N317 N 0.87945 0.40749 0.15737 0.0
C318 C 0.85994 0.38249 0.24394 0.0
C319 C 0.84254 0.35534 0.20962 0.0
C320 C 0.85342 0.36821 0.16666 0.0
C321 C 0.89865 0.43345 0.19064 0.0
C322 C 0.88843 0.422 0.23414 0.0
H323 H 0.84229 0.346 0.14119 0.0
H324 H 0.9239 0.4624 0.18369 0.0
H325 H 0.84989 0.44573 0.03964 0.0
H326 H 0.86069 0.53065 0.13188 0.0
H327 H 0.92625 0.31573 0.05737 0.0
H328 H 0.82161 0.32415 0.21598 0.0
H329 H 0.90434 0.44321 0.25992 0.0
C330 C 0.55787 0.42153 0.09773 0.0
C331 C 0.53765 0.38143 0.08848 0.0
N332 N 0.56259 0.37221 0.06756 0.0
N333 N 0.59611 0.4379 0.08441 0.0
C334 C 0.59718 0.40719 0.06397 0.0
H335 H 0.54536 0.43769 0.11387 0.0
Co336 Co 0.6341 0.49343 0.09092 0.0
C337 C 0.69085 0.46488 0.07107 0.0
O338 O 0.67373 0.43751 0.10159 0.0
N339 N 0.67045 0.54827 0.09487 0.0
C340 C 0.71653 0.60893 0.0736 0.0
C341 C 0.69578 0.56945 0.06227 0.0
C342 C 0.6761 0.57568 0.12569 0.0
N343 N 0.70414 0.61298 0.11343 0.0
O344 O 0.61442 0.50378 0.03815 0.0
H345 H 0.69855 0.55705 0.03166 0.0
H346 H 0.65946 0.56847 0.15602 0.0
O347 O 0.67656 0.48748 0.06131 0.0
C348 C 0.59086 0.51593 0.05138 0.0
O349 O 0.58481 0.51611 0.09366 0.0
N350 N 0.65052 0.48538 0.14646 0.0
C351 C 0.67031 0.48343 0.23386 0.0
C352 C 0.70016 0.5025 0.20211 0.0
C353 C 0.68964 0.50357 0.15872 0.0
C354 C 0.62136 0.46702 0.17721 0.0
C355 C 0.63051 0.46482 0.22065 0.0
H356 H 0.713 0.52076 0.13541 0.0
H357 H 0.5907 0.45597 0.16917 0.0
H358 H 0.62214 0.41011 0.04536 0.0
H359 H 0.50725 0.36054 0.09785 0.0
H360 H 0.73929 0.63278 0.05404 0.0
H361 H 0.73133 0.51838 0.21102 0.0
H362 H 0.60641 0.44996 0.244 0.0
C363 C 0.63246 0.16302 0.10043 0.0
C364 C 0.67195 0.19138 0.09456 0.0
N365 N 0.67375 0.22386 0.07603 0.0
N366 N 0.6094 0.17746 0.08565 0.0
C367 C 0.63543 0.21442 0.07072 0.0
H368 H 0.62129 0.13423 0.1159 0.0
Co369 Co 0.55386 0.15126 0.08923 0.0
C370 C 0.52981 0.21159 0.0692 0.0
O371 O 0.50039 0.19285 0.09711 0.0
N372 N 0.49721 0.12351 0.09144 0.0
C373 C 0.43539 0.09505 0.06542 0.0
C374 C 0.47501 0.11589 0.05491 0.0
C375 C 0.46985 0.10657 0.12387 0.0
N376 N 0.43204 0.0893 0.10891 0.0
O377 O 0.54999 0.12466 0.03501 0.0
H378 H 0.48688 0.12548 0.02234 0.0
H379 H 0.47708 0.10754 0.15794 0.0
O380 O 0.55352 0.19802 0.06138 0.0
C381 C 0.54319 0.08992 0.04643 0.0
O382 O 0.54622 0.08358 0.08806 0.0
N383 N 0.55837 0.17273 0.14506 0.0
C384 C 0.56444 0.19322 0.23326 0.0
C385 C 0.57556 0.2225 0.20058 0.0
C386 C 0.57293 0.21172 0.15652 0.0
C387 C 0.55109 0.14488 0.17629 0.0
C388 C 0.55268 0.15405 0.22039 0.0
H389 H 0.58336 0.23486 0.13204 0.0
H390 H 0.54256 0.11474 0.16672 0.0
H391 H 0.62666 0.23447 0.05689 0.0
H392 H 0.69729 0.18904 0.10529 0.0
H393 H 0.41104 0.08488 0.04255 0.0
H394 H 0.58664 0.25349 0.20887 0.0
H395 H 0.54376 0.13019 0.24396 0.0
C396 C 0.4852 0.87568 0.86726 0.0
C397 C 0.50259 0.8536 0.87922 0.0
N398 N 0.48549 0.83402 0.91656 0.0
N399 N 0.45634 0.86953 0.89627 0.0
C400 C 0.45923 0.84607 0.92729 0.0
H401 H 0.49239 0.89357 0.83805 0.0
Co402 Co 0.41863 0.88743 0.89386 0.0
C403 C 0.36739 0.80158 0.92035 0.0
O404 O 0.38698 0.79159 0.89276 0.0
N405 N 0.38224 0.90565 0.89312 0.0
C406 C 0.33609 0.91972 0.91552 0.0
C407 C 0.35739 0.90134 0.92629 0.0
C408 C 0.37582 0.92706 0.86264 0.0
N409 N 0.3477 0.93596 0.87546 0.0
O410 O 0.44061 0.9169 0.94652 0.0
H411 H 0.35514 0.88611 0.9567 0.0
H412 H 0.39198 0.93653 0.83205 0.0
O413 O 0.37754 0.83848 0.92476 0.0
C414 C 0.46516 0.95218 0.93289 0.0
O415 O 0.47048 0.95805 0.89052 0.0
N416 N 0.40025 0.86413 0.83863 0.0
C417 C 0.3805 0.84373 0.75074 0.0
C418 C 0.35429 0.82082 0.78451 0.0
C419 C 0.3639 0.83265 0.82796 0.0
C420 C 0.42515 0.88769 0.80639 0.0
C421 C 0.41603 0.87817 0.76252 0.0
H422 H 0.34126 0.8172 0.85227 0.0
H423 H 0.45158 0.91532 0.81477 0.0
H424 H 0.44022 0.83546 0.95586 0.0
H425 H 0.52364 0.84951 0.85971 0.0
H426 H 0.31343 0.92057 0.9355 0.0
H427 H 0.32605 0.79441 0.77791 0.0
H428 H 0.43626 0.89875 0.73835 0.0
C429 C 0.17352 0.62289 0.86878 0.0
C430 C 0.19579 0.66254 0.87999 0.0
N431 N 0.21529 0.6654 0.91732 0.0
N432 N 0.17944 0.60043 0.89829 0.0
C433 C 0.20311 0.6272 0.92876 0.0
H434 H 0.15561 0.61185 0.83976 0.0
Co435 Co 0.16091 0.54458 0.89743 0.0
C436 C 0.24683 0.57891 0.92148 0.0
O437 O 0.25651 0.60785 0.8931 0.0
N438 N 0.14213 0.4898 0.89829 0.0
C439 C 0.12889 0.42993 0.92128 0.0
C440 C 0.14684 0.46973 0.93161 0.0
C441 C 0.12075 0.46156 0.86833 0.0
N442 N 0.11247 0.42474 0.88137 0.0
O443 O 0.133 0.53901 0.95101 0.0
H444 H 0.16247 0.48321 0.96159 0.0
H445 H 0.11129 0.46795 0.83767 0.0
O446 O 0.21009 0.55249 0.92699 0.0
C447 C 0.09766 0.52905 0.93885 0.0
O448 O 0.09072 0.52812 0.89673 0.0
N449 N 0.18282 0.54759 0.84141 0.0
C450 C 0.20036 0.54418 0.75298 0.0
C451 C 0.22402 0.54182 0.78632 0.0
C452 C 0.21368 0.54176 0.83014 0.0
C453 C 0.15865 0.54825 0.80967 0.0
C454 C 0.16673 0.54661 0.76559 0.0
H455 H 0.22973 0.53535 0.85434 0.0
H456 H 0.13156 0.548 0.81874 0.0
H457 H 0.2137 0.61909 0.95747 0.0
H458 H 0.19999 0.68748 0.86005 0.0
H459 H 0.1289 0.40687 0.94127 0.0
H460 H 0.2499 0.53912 0.77911 0.0
H461 H 0.14567 0.54577 0.74195 0.0
C462 C 0.42476 0.56197 0.87108 0.0
C463 C 0.38536 0.5447 0.88316 0.0
N464 N 0.38278 0.56255 0.91981 0.0
N465 N 0.44733 0.5915 0.8993 0.0
C466 C 0.42095 0.58919 0.93005 0.0
H467 H 0.43553 0.5542 0.84232 0.0
Co468 Co 0.50283 0.62911 0.89618 0.0
C469 C 0.46865 0.68117 0.92077 0.0
O470 O 0.43909 0.66133 0.89351 0.0
N471 N 0.55725 0.6653 0.89475 0.0
C472 C 0.61755 0.71194 0.91559 0.0
C473 C 0.57793 0.6915 0.92669 0.0
C474 C 0.5849 0.66996 0.8648 0.0
N475 N 0.62196 0.69836 0.87663 0.0
O476 O 0.5104 0.60838 0.94968 0.0
H477 H 0.5651 0.69526 0.9565 0.0
H478 H 0.57802 0.65235 0.83531 0.0
O479 O 0.49518 0.67089 0.92554 0.0
C480 C 0.52029 0.5829 0.93708 0.0
O481 O 0.51878 0.57521 0.89508 0.0
N482 N 0.49803 0.6465 0.84015 0.0
C483 C 0.49896 0.66519 0.75145 0.0
C484 C 0.50178 0.69193 0.78432 0.0
C485 C 0.50312 0.6828 0.82823 0.0
C486 C 0.49693 0.621 0.8088 0.0
C487 C 0.4973 0.62957 0.76459 0.0
H488 H 0.50997 0.70585 0.85189 0.0
H489 H 0.49787 0.59456 0.81819 0.0
H490 H 0.42925 0.6088 0.95802 0.0
H491 H 0.36033 0.52314 0.86413 0.0
H492 H 0.64113 0.7354 0.93453 0.0
H493 H 0.50396 0.72024 0.77663 0.0
H494 H 0.49787 0.60889 0.7412 0.0
C495 C 0.54738 0.80741 0.44738 0.0
C496 C 0.52508 0.82459 0.43558 0.0
N497 N 0.50514 0.80702 0.39874 0.0
N498 N 0.54103 0.77824 0.41877 0.0
C499 C 0.51712 0.78066 0.38813 0.0
H500 H 0.56563 0.81502 0.47618 0.0
Co501 Co 0.55952 0.74094 0.42115 0.0
C502 C 0.47357 0.68865 0.39704 0.0
O503 O 0.46369 0.70838 0.42457 0.0
N504 N 0.57837 0.70504 0.42187 0.0
C505 C 0.59255 0.65871 0.40021 0.0
C506 C 0.57352 0.6794 0.38942 0.0
C507 C 0.60082 0.69976 0.45185 0.0
N508 N 0.60978 0.67152 0.43952 0.0
O509 O 0.5876 0.76221 0.36745 0.0
H510 H 0.55737 0.67613 0.35954 0.0
H511 H 0.61086 0.71674 0.48179 0.0
O512 O 0.51037 0.69903 0.39195 0.0
C513 C 0.62277 0.78803 0.37964 0.0
O514 O 0.62927 0.79514 0.42168 0.0
N515 N 0.53747 0.72315 0.47725 0.0
C516 C 0.51931 0.70423 0.56591 0.0
C517 C 0.4958 0.6775 0.53299 0.0
C518 C 0.50646 0.68675 0.48909 0.0
C519 C 0.56156 0.74859 0.50863 0.0
C520 C 0.55314 0.7399 0.55284 0.0
H521 H 0.49054 0.66377 0.46535 0.0
H522 H 0.58878 0.77515 0.49925 0.0
H523 H 0.50626 0.7613 0.35994 0.0
H524 H 0.52117 0.84587 0.45488 0.0
H525 H 0.59303 0.63554 0.38083 0.0
H526 H 0.46979 0.64915 0.54061 0.0
H527 H 0.57411 0.76058 0.57626 0.0
C528 C 0.23426 0.74546 0.44942 0.0
C529 C 0.21718 0.70588 0.43797 0.0
N530 N 0.23472 0.70315 0.4011 0.0
N531 N 0.26338 0.76803 0.42059 0.0
C532 C 0.26094 0.7414 0.39011 0.0
H533 H 0.22664 0.75636 0.47818 0.0
Co534 Co 0.30078 0.82386 0.42298 0.0
C535 C 0.35269 0.79 0.39692 0.0
O536 O 0.33349 0.76062 0.42484 0.0
N537 N 0.33687 0.87864 0.42377 0.0
C538 C 0.38304 0.939 0.40174 0.0
C539 C 0.3617 0.89937 0.39067 0.0
C540 C 0.34332 0.90632 0.45448 0.0
N541 N 0.37149 0.94343 0.44193 0.0
O542 O 0.2788 0.8311 0.37022 0.0
H543 H 0.36401 0.88652 0.36018 0.0
H544 H 0.32725 0.89945 0.48514 0.0
O545 O 0.34216 0.81642 0.39224 0.0
C546 C 0.25409 0.8416 0.38387 0.0
O547 O 0.24847 0.84175 0.42623 0.0
N548 N 0.31917 0.81923 0.47829 0.0
C549 C 0.33912 0.82039 0.5664 0.0
C550 C 0.36549 0.82355 0.53288 0.0
C551 C 0.35573 0.82481 0.48925 0.0
C552 C 0.29402 0.81782 0.51027 0.0
C553 C 0.30323 0.8183 0.55422 0.0
H554 H 0.37846 0.832 0.46502 0.0
H555 H 0.26741 0.81854 0.50159 0.0
H556 H 0.28017 0.74961 0.36173 0.0
H557 H 0.19598 0.68088 0.45752 0.0
H558 H 0.40579 0.96257 0.3819 0.0
H559 H 0.394 0.82611 0.53985 0.0
H560 H 0.28281 0.8187 0.57813 0.0
C561 C 0.29653 0.49258 0.44885 0.0
C562 C 0.33594 0.51508 0.43688 0.0
N563 N 0.33836 0.53542 0.40022 0.0
N564 N 0.27379 0.4992 0.42056 0.0
C565 C 0.30011 0.52344 0.38986 0.0
H566 H 0.28588 0.47403 0.47759 0.0
Co567 Co 0.21819 0.48091 0.42374 0.0
C568 C 0.2518 0.56705 0.39882 0.0
O569 O 0.28124 0.57694 0.42629 0.0
N570 N 0.16372 0.46232 0.42529 0.0
C571 C 0.10319 0.44822 0.4049 0.0
C572 C 0.14269 0.46719 0.39328 0.0
C573 C 0.1364 0.43994 0.45581 0.0
N574 N 0.09922 0.43104 0.44428 0.0
O575 O 0.21072 0.45222 0.37026 0.0
H576 H 0.15523 0.48329 0.36314 0.0
H577 H 0.14362 0.42989 0.48557 0.0
O578 O 0.22545 0.53014 0.39397 0.0
C579 C 0.19991 0.41648 0.38233 0.0
O580 O 0.19997 0.40947 0.42435 0.0
N581 N 0.22289 0.50348 0.47968 0.0
C582 C 0.22115 0.52199 0.56811 0.0
C583 C 0.2179 0.54517 0.53468 0.0
C584 C 0.21691 0.53429 0.49098 0.0
C585 C 0.22455 0.4798 0.51153 0.0
C586 C 0.2238 0.4884 0.55563 0.0
H587 H 0.20951 0.54977 0.46695 0.0
H588 H 0.22414 0.45256 0.50266 0.0
H589 H 0.29167 0.53454 0.36184 0.0
H590 H 0.36103 0.51884 0.45597 0.0
H591 H 0.07939 0.44775 0.38605 0.0
H592 H 0.21506 0.57103 0.54173 0.0
H593 H 0.22364 0.46765 0.57941 0.0
C594 C 0.97608 0.342 0.18246 0.0
C595 C 0.96998 0.33738 0.13714 0.0
H596 H 0.9987 0.32819 0.23925 0.0
C597 C 0.98429 0.31556 0.11403 0.0
H598 H 0.96542 0.35843 0.20141 0.0
C599 C 1.00275 0.29749 0.1359 0.0
C600 C 1.00763 0.30096 0.18144 0.0
H601 H 0.9809 0.31199 0.07899 0.0
H602 H 1.01206 0.27982 0.11715 0.0
C603 C 0.99478 0.32414 0.2043 0.0
C604 C 0.71996 0.65016 0.18318 0.0
C605 C 0.71898 0.64981 0.13734 0.0
H606 H 0.73876 0.68561 0.24122 0.0
C607 C 0.73493 0.68638 0.11486 0.0
H608 H 0.70803 0.62254 0.20142 0.0
C609 C 0.75289 0.7225 0.13751 0.0
C610 C 0.75537 0.723 0.18328 0.0
H611 H 0.73402 0.68717 0.07956 0.0
H612 H 0.766 0.75002 0.11899 0.0
C613 C 0.73802 0.68637 0.20591 0.0
C614 C 0.39484 0.05532 0.1763 0.0
C615 C 0.3956 0.07001 0.13405 0.0
H616 H 0.35986 0.02617 0.23309 0.0
C617 C 0.36009 0.06581 0.11678 0.0
H618 H 0.4213 0.05735 0.19049 0.0
C619 C 0.32485 0.04748 0.14103 0.0
C620 C 0.3243 0.03325 0.18332 0.0
H621 H 0.35947 0.07735 0.0848 0.0
H622 H 0.29824 0.04538 0.12711 0.0
C623 C 0.35961 0.03731 0.20072 0.0
C624 C 0.29758 0.99536 0.85028 0.0
C625 C 0.29672 0.99439 0.80442 0.0
H626 H 0.31493 0.97806 0.9088 0.0
C627 C 0.31489 0.97568 0.7823 0.0
H628 H 0.28371 1.00928 0.86837 0.0
C629 C 0.33245 0.95737 0.80549 0.0
C630 C 0.3322 0.95726 0.85138 0.0
H631 H 0.31532 0.97492 0.74697 0.0
H632 H 0.34517 0.94232 0.78745 0.0
C633 C 0.31508 0.977 0.87348 0.0
C634 C 0.0765 0.35074 0.87808 0.0
C635 C 0.09294 0.38801 0.85682 0.0
H636 H 0.04939 0.28728 0.87125 0.0
C637 C 0.09165 0.3888 0.81101 0.0
H638 H 0.07629 0.34887 0.91334 0.0
C639 C 0.0757 0.35348 0.78704 0.0
C640 C 0.06082 0.31638 0.80815 0.0
H641 H 0.10408 0.41675 0.79339 0.0
H642 H 0.07553 0.35541 0.75179 0.0
C643 C 0.06062 0.31532 0.854 0.0
C644 C 0.69553 0.73172 0.87352 0.0
C645 C 0.65848 0.71276 0.85218 0.0
H646 H 0.75901 0.76422 0.86687 0.0
C647 C 0.6578 0.70979 0.80644 0.0
H648 H 0.69717 0.73392 0.90877 0.0
C649 C 0.69325 0.72672 0.78253 0.0
C650 C 0.73027 0.74711 0.80372 0.0
H651 H 0.6299 0.69558 0.7889 0.0
H652 H 0.69159 0.72428 0.74729 0.0
C653 C 0.73104 0.74869 0.84956 0.0
C654 C 0.66809 0.62043 0.46589 0.0
C655 C 0.66828 0.62133 0.51175 0.0
H656 H 0.64985 0.63617 0.4069 0.0
C657 C 0.65118 0.64136 0.53326 0.0
H658 H 0.68085 0.60516 0.44831 0.0
C659 C 0.63297 0.65871 0.50961 0.0
C660 C 0.63142 0.65653 0.4638 0.0
H661 H 0.65143 0.64326 0.56854 0.0
H662 H 0.619 0.67269 0.52738 0.0
C663 C 0.64985 0.63781 0.44219 0.0
C664 C 0.40541 1.01721 0.44498 0.0
C665 C 0.38733 0.98006 0.46651 0.0
H666 H 0.43788 0.0808 0.45106 0.0
C667 C 0.38647 0.97941 0.5124 0.0
H668 H 0.40607 1.01888 0.40968 0.0
C669 C 0.40432 1.015 0.53614 0.0
C670 C 0.4235 0.05215 0.51461 0.0
H671 H 0.37303 0.95143 0.53008 0.0
H672 H 0.40332 1.01333 0.57144 0.0
C673 C 0.42327 0.05282 0.46873 0.0
C674 C 1.02572 0.39086 0.44859 0.0
C675 C 0.06302 0.40952 0.46938 0.0
H676 H 0.96235 0.35986 0.45614 0.0
C677 C 0.06427 0.40834 0.51518 0.0
H678 H 1.02366 0.39061 0.41334 0.0
C679 C 0.02912 0.39025 0.53964 0.0
C680 C 0.99184 0.37295 0.51894 0.0
H681 H 0.09239 0.42252 0.53231 0.0
H682 H 0.03119 0.39031 0.57489 0.0
C683 C 0.99052 0.37276 0.47309 0.0
C684 C 0.18816 0.38789 0.30641 0.0
C685 C 0.18394 0.3822 0.3517 0.0
H686 H 0.17613 0.36062 0.24346 0.0
C687 C 0.16343 0.34279 0.36818 0.0
H688 H 0.20369 0.4177 0.29269 0.0
C689 C 0.14714 0.30987 0.34002 0.0
C690 C 0.15149 0.31558 0.29473 0.0
H691 H 0.15938 0.33725 0.40302 0.0
H692 H 0.13118 0.28007 0.3537 0.0
C693 C 0.17238 0.35499 0.2783 0.0
C694 C 0.69615 0.8287 0.36593 0.0
C695 C 0.6571 0.80747 0.34915 0.0
H696 H 0.75881 0.86185 0.35194 0.0
C697 C 0.65187 0.80463 0.3038 0.0
H698 H 0.70136 0.83136 0.40082 0.0
C699 C 0.68494 0.82257 0.27588 0.0
C700 C 0.72402 0.84332 0.29266 0.0
H701 H 0.62231 0.78854 0.28989 0.0
H702 H 0.67977 0.81956 0.24098 0.0
C703 C 0.72923 0.84621 0.33801 0.0
C704 C 0.21276 0.86466 0.28279 0.0
C705 C 0.19579 0.88656 0.30052 0.0
H706 H 0.24496 0.83374 0.29485 0.0
C707 C 0.19799 0.89312 0.34566 0.0
H708 H 0.21191 0.85927 0.24798 0.0
C709 C 0.21663 0.87804 0.37244 0.0
C710 C 0.23403 0.8566 0.35463 0.0
H711 H 0.18549 0.90999 0.36026 0.0
H712 H 0.21789 0.88379 0.4072 0.0
C713 C 0.23195 0.85013 0.3095 0.0
C714 C 0.40106 0.18013 0.67652 0.0
C715 C 0.39486 0.17623 0.63131 0.0
H716 H 0.37455 0.16889 0.74004 0.0
C717 C 0.35542 0.15745 0.61557 0.0
H718 H 0.43094 0.19437 0.68968 0.0
C719 C 0.32295 0.14244 0.64436 0.0
C720 C 0.32915 0.14628 0.68958 0.0
H721 H 0.34947 0.15375 0.58083 0.0
H722 H 0.29306 0.12775 0.63121 0.0
C723 C 0.3686 0.16555 0.7053 0.0
C724 C 0.89281 0.20738 0.61833 0.0
C725 C 0.87494 0.2282 0.63668 0.0
H726 H 0.92664 0.178 0.62935 0.0
C727 C 0.87769 0.23483 0.68183 0.0
H728 H 0.89156 0.20194 0.5835 0.0
C729 C 0.89764 0.22079 0.70802 0.0
C730 C 0.91572 0.20022 0.68962 0.0
H731 H 0.86452 0.25089 0.69692 0.0
H732 H 0.89917 0.22646 0.74282 0.0
C733 C 0.91317 0.19377 0.64446 0.0
C734 C 0.82789 0.67909 0.70091 0.0
C735 C 0.84809 0.71813 0.68355 0.0
H736 H 0.7964 0.61619 0.68791 0.0
C737 C 0.85231 0.7231 0.63818 0.0
H738 H 0.82388 0.67413 0.73584 0.0
C739 C 0.83683 0.68971 0.6108 0.0
C740 C 0.8164 0.65066 0.62818 0.0
H741 H 0.86766 0.75267 0.62386 0.0
H742 H 0.84054 0.69462 0.57584 0.0
C743 C 0.81203 0.64574 0.67355 0.0
C744 C 0.0368 0.50658 0.04315 0.0
C745 C 0.99749 0.48709 0.02695 0.0
H746 H 0.09926 0.5348 0.02835 0.0
C747 C 0.99168 0.48224 0.98175 0.0
H748 H 0.04243 0.51067 0.07792 0.0
C749 C 1.0244 0.49648 0.95342 0.0
C750 C 0.06368 0.51544 0.96966 0.0
H751 H 0.96191 0.46731 0.96827 0.0
H752 H 1.01876 0.492 0.91867 0.0
C753 C 0.06951 0.52037 0.01485 0.0
C754 C 0.55536 0.54415 0.94923 0.0
C755 C 0.53729 0.56505 0.96682 0.0
H756 H 0.58678 0.51256 0.96182 0.0
C757 C 0.53692 0.56936 0.0122 0.0
H758 H 0.55643 0.54044 0.91426 0.0
C759 C 0.5541 0.55301 0.03935 0.0
C760 C 0.57245 0.53239 0.02174 0.0
H761 H 0.52343 0.58534 0.02672 0.0
H762 H 0.55332 0.55699 0.0743 0.0
C763 C 0.57295 0.52821 0.97636 0.0
C764 C 0.50813 1.01609 0.03406 0.0
C765 C 0.52504 0.05506 0.01665 0.0
H766 H 0.47548 0.95303 0.02165 0.0
C767 C 0.52221 0.05964 0.97166 0.0
H768 H 0.50944 1.01135 0.06874 0.0
C769 C 0.50301 0.02605 0.94474 0.0
C770 C 0.48567 0.98711 0.96226 0.0
H771 H 0.53461 0.08909 0.9573 0.0
H772 H 0.50128 0.0307 0.9101 0.0
C773 C 0.4884 0.9825 0.00723 0.0
C774 C 1.01181 0.13205 0.01684 0.0
C775 C 0.04954 0.16261 0.02996 0.0
H776 H 0.97264 0.10182 0.96359 0.0
C777 C 0.07825 0.18418 -0.00237 0.0
H778 H 0.98893 0.11479 0.04075 0.0
C779 C 0.06861 0.17745 0.95338 0.0
C780 C 0.03014 0.14854 0.94021 0.0
H781 H 0.10798 0.20722 0.00647 0.0
H782 H 0.09087 0.19641 0.92968 0.0
C783 C 1.0023 0.12497 0.97249 0.0
C784 C 0.90554 0.85447 0.97698 0.0
C785 C 0.89478 0.87234 0.94368 0.0
H786 H 0.90435 0.84179 0.04464 0.0
C787 C 0.87916 0.89692 0.95585 0.0
H788 H 0.91897 0.83646 0.96944 0.0
C789 C 0.87301 0.90209 -0.00023 0.0
C790 C 0.88089 0.88172 0.03287 0.0
H791 H 0.87017 0.91117 0.93159 0.0
H792 H 0.86116 0.92148 0.00747 0.0
C793 C 0.89797 0.8584 0.02075 0.0
C794 C 0.16027 0.98609 0.96178 0.0
C795 C 0.17351 0.02614 0.95086 0.0
H796 H 0.14296 0.94237 0.01211 0.0
C797 C 0.17807 0.05287 0.98455 0.0
H798 H 0.15682 0.96454 0.93712 0.0
C799 C 0.17156 0.04034 0.02813 0.0
C800 C 0.15974 1.00061 0.03905 0.0
H801 H 0.18742 0.08374 0.9774 0.0
H802 H 0.17727 0.06223 0.05329 0.0
C803 C 0.15301 0.97343 0.00517 0.0
C804 C 0.71333 0.48374 0.29545 0.0
C805 C 0.68028 0.48628 0.28098 0.0
H806 H 0.7494 0.487 0.35001 0.0
C807 C 0.65742 0.49326 0.31178 0.0
H808 H 0.73133 0.47807 0.2726 0.0
C809 C 0.6675 0.49798 0.35586 0.0
C810 C 0.70087 0.49612 0.37025 0.0
H811 H 0.63238 0.49642 0.30171 0.0
H812 H 0.64998 0.50459 0.37844 0.0
C813 C 0.72358 0.48871 0.3397 0.0
C814 C 0.56468 0.18572 0.3568 0.0
C815 C 0.55132 0.21196 0.36985 0.0
H816 H 0.58135 0.16085 0.30423 0.0
C817 C 0.54644 0.23515 0.33763 0.0
H818 H 0.56857 0.16699 0.3802 0.0
C819 C 0.55215 0.23026 0.29343 0.0
C820 C 0.56366 0.20261 0.28034 0.0
H821 H 0.53723 0.25648 0.34636 0.0
H822 H 0.54591 0.24702 0.26952 0.0
C823 C 0.57129 0.18156 0.31279 0.0
C824 C 0.84341 0.3901 0.32132 0.0
C825 C 0.85155 0.36872 0.28979 0.0
H826 H 0.83025 0.39436 0.38845 0.0
C827 C 0.85308 0.33467 0.3025 0.0
H828 H 0.84195 0.4164 0.31218 0.0
C829 C 0.84706 0.32241 0.34602 0.0
C830 C 0.83886 0.34365 0.37783 0.0
H831 H 0.86009 0.31812 0.27896 0.0
H832 H 0.84996 0.29686 0.35481 0.0
C833 C 0.83688 0.37754 0.36491 0.0
C834 C 0.39972 0.84735 0.67125 0.0
C835 C 0.36988 0.83386 0.70367 0.0
H836 H 0.41413 0.85593 0.60364 0.0
C837 C 0.32987 0.81259 0.69026 0.0
H838 H 0.43094 0.86249 0.67972 0.0
C839 C 0.32013 0.80623 0.64604 0.0
C840 C 0.34991 0.82249 0.61358 0.0
H841 H 0.30562 0.80173 0.71351 0.0
H842 H 0.28893 0.78918 0.6376 0.0
C843 C 0.38994 0.84256 0.62698 0.0
C844 C 0.23497 0.51725 0.64796 0.0
C845 C 0.21884 0.53075 0.61541 0.0
H846 H 0.2403 0.50866 0.71564 0.0
C847 C 0.1991 0.55122 0.62884 0.0
H848 H 0.25161 0.50255 0.63957 0.0
C849 C 0.19496 0.55723 0.67309 0.0
C850 C 0.2088 0.54147 0.70566 0.0
H851 H 0.18566 0.5619 0.60555 0.0
H852 H 0.18024 0.57388 0.68143 0.0
C853 C 0.22932 0.52176 0.69225 0.0
C854 C 0.48457 0.64498 0.67219 0.0
C855 C 0.50074 0.67529 0.70398 0.0
H856 H 0.47926 0.62962 0.60494 0.0
C857 C 0.5202 0.71522 0.68964 0.0
H858 H 0.46807 0.61381 0.68135 0.0
C859 C 0.52427 0.72443 0.64515 0.0
C860 C 0.5106 0.69412 0.61336 0.0
H861 H 0.53354 0.7398 0.71242 0.0
H862 H 0.53889 0.7556 0.63598 0.0
C863 C 0.49014 0.65419 0.62771 0.0
C864 C 0.13489 0.05744 0.25625 0.0
C865 C 0.17495 0.06717 0.26003 0.0
H866 H 0.09437 0.07949 0.24557 0.0
C867 C 0.20424 0.10751 0.26393 0.0
H868 H 0.11168 0.0267 0.25278 0.0
C869 C 0.19441 0.13753 0.2599 0.0
C870 C 0.15504 0.12813 0.25147 0.0
H871 H 0.23532 0.11602 0.26715 0.0
H872 H 0.21812 0.16832 0.26099 0.0
C873 C 0.12499 0.08772 0.25189 0.0
C874 C 0.97538 0.08406 0.25628 0.0
C875 C 0.97015 0.11733 0.25208 0.0
H876 H 0.94705 0.02006 0.25555 0.0
C877 C 0.93119 0.11123 0.25196 0.0
H878 H 1.00501 0.0878 0.25586 0.0
C879 C 0.89825 0.07275 0.25128 0.0
C880 C 0.90336 0.03933 0.25101 0.0
H881 H 0.92622 0.13633 0.24893 0.0
H882 H 0.8688 0.06909 0.2481 0.0
C883 C 0.94215 0.04527 0.25587 0.0
C884 C 0.94004 0.8759 0.25859 0.0
C885 C 0.94315 0.91364 0.25626 0.0
H886 H 0.97132 0.84314 0.2568 0.0
C887 C 0.98099 0.94786 0.2574 0.0
H888 H 0.91118 0.849 0.25737 0.0
C889 C 1.0152 0.94455 0.25701 0.0
C890 C 1.01236 0.90689 0.25499 0.0
H891 H 0.9842 0.97731 0.25548 0.0
H892 H 0.04371 0.97163 0.25484 0.0
C893 C 0.97443 0.87255 0.25762 0.0
C894 C 0.08199 0.12081 0.68141 0.0
C895 C 0.075 0.15182 0.69351 0.0
H896 H 0.12072 0.09641 0.68614 0.0
C897 C 0.10554 0.18557 0.71435 0.0
H898 H 0.05886 0.09426 0.66569 0.0
C899 C 0.14116 0.18708 0.72577 0.0
C900 C 0.14706 0.15468 0.71708 0.0
H901 H 0.10111 0.21009 0.72378 0.0
H902 H 0.16335 0.21291 0.74328 0.0
C903 C 0.11761 0.12213 0.69321 0.0
C904 C 0.94657 1.00201 0.69679 0.0
C905 C 0.91607 1.00392 0.71993 0.0
H906 H 0.96762 0.96457 0.66978 0.0
C907 C 0.88172 0.96801 0.7314 0.0
H908 H 0.97315 0.02908 0.68685 0.0
C909 C 0.87849 0.93122 0.72149 0.0
C910 C 0.90941 0.92924 0.69957 0.0
H911 H 0.85776 0.96829 0.74936 0.0
H912 H 0.85218 0.9042 0.73226 0.0
C913 C 0.94314 0.96504 0.68642 0.0
C914 C 0.11317 0.96348 0.72747 0.0
C915 C 0.11026 0.99826 0.72921 0.0
H916 H 0.08194 0.89957 0.72995 0.0
C917 C 0.07242 0.99469 0.72853 0.0
H918 H 0.14199 0.96534 0.72841 0.0
C919 C 0.03816 0.95722 0.72936 0.0
C920 C 0.04076 0.92222 0.73136 0.0
H921 H 0.0693 0.02102 0.72956 0.0
H922 H 1.00966 0.95594 0.72966 0.0
C923 C 0.0787 0.92577 0.72876 0.0
C924 C 0.85078 0.41954 0.59565 0.0
C925 C 0.81349 0.3849 0.60052 0.0
H926 H 0.88219 0.48316 0.58713 0.0
C927 C 0.77997 0.38881 0.60869 0.0
H928 H 0.87707 0.41733 0.58892 0.0
C929 C 0.78285 0.42623 0.60801 0.0
C930 C 0.81923 0.46073 0.59807 0.0
H931 H 0.75084 0.36262 0.61232 0.0
H932 H 0.7557 0.42742 0.61137 0.0
C933 C 0.85359 0.45718 0.59412 0.0
C934 C 0.62618 0.43679 0.58969 0.0
C935 C 0.66023 0.43319 0.59524 0.0
H936 H 0.56279 0.40575 0.58058 0.0
C937 C 0.65537 0.39552 0.60473 0.0
H938 H 0.62906 0.46549 0.58217 0.0
C939 C 0.61754 0.36159 0.60482 0.0
C940 C 0.58375 0.36433 0.5939 0.0
H941 H 0.68111 0.39187 0.60904 0.0
H942 H 0.61535 0.3329 0.60953 0.0
C943 C 0.58827 0.40256 0.58849 0.0
C944 C 0.64218 0.19392 0.59751 0.0
C945 C 0.68026 0.22801 0.60115 0.0
H946 H 0.57933 0.17128 0.59023 0.0
C947 C 0.6827 0.26522 0.60752 0.0
H948 H 0.63906 0.16472 0.59319 0.0
C949 C 0.64876 0.26896 0.60543 0.0
C950 C 0.61125 0.2355 0.59798 0.0
H951 H 0.71114 0.29218 0.61045 0.0
H952 H 0.65233 0.29855 0.60671 0.0
C953 C 0.6079 0.1976 0.5963 0.0
C954 C 0.77774 0.45032 0.04942 0.0
C955 C 0.80962 0.48776 0.06175 0.0
H956 H 0.71452 0.41369 0.04292 0.0
C957 C 0.80237 0.51977 0.06674 0.0
H958 H 0.78202 0.42501 0.04486 0.0
C959 C 0.76351 0.51346 0.06395 0.0
C960 C 0.73126 0.47484 0.05721 0.0
H961 H 0.82633 0.54904 0.07571 0.0
H962 H 0.75839 0.53793 0.07137 0.0
C963 C 0.73891 0.44377 0.04801 0.0
C964 C 0.50836 0.26109 0.05307 0.0
C965 C 0.53947 0.25247 0.05626 0.0
H966 H 0.49126 0.30579 0.05277 0.0
C967 C 0.57888 0.28437 0.05615 0.0
H968 H 0.47764 0.23716 0.05288 0.0
C969 C 0.58675 0.32399 0.0569 0.0
C970 C 0.55533 0.33247 0.05757 0.0
H971 H 0.60351 0.27892 0.05921 0.0
H972 H 0.61731 0.3477 0.06013 0.0
C973 C 0.51616 0.30051 0.05347 0.0
C974 C 0.78115 0.30406 0.06436 0.0
C975 C 0.77858 0.33846 0.07257 0.0
H976 H 0.7494 0.24016 0.05915 0.0
C977 C 0.74077 0.3348 0.07663 0.0
H978 H 0.80989 0.30591 0.06154 0.0
C979 C 0.70635 0.29743 0.07528 0.0
C980 C 0.70883 0.2626 0.07036 0.0
H981 H 0.73779 0.36071 0.08328 0.0
H982 H 0.67801 0.29579 0.08095 0.0
C983 C 0.74656 0.2664 0.06356 0.0
C984 C 0.51791 0.79299 0.92473 0.0
C985 C 0.48465 0.79798 0.93103 0.0
H986 H 0.53934 0.75161 0.91849 0.0
C987 C 0.44844 0.76465 0.94406 0.0
H988 H 0.54632 0.81813 0.91519 0.0
C989 C 0.44422 0.72658 0.94493 0.0
C990 C 0.47644 0.72114 0.93435 0.0
H991 H 0.42229 0.76722 0.94965 0.0
H992 H 0.41497 0.70108 0.95081 0.0
C993 C 0.51397 0.75493 0.92691 0.0
C994 C 0.32242 0.73182 0.94492 0.0
C995 C 0.32762 0.76949 0.93449 0.0
H996 H 0.28216 0.66919 0.94955 0.0
C997 C 0.29375 0.7731 0.92732 0.0
H998 H 0.34798 0.72814 0.95053 0.0
C999 C 0.25589 0.73891 0.92522 0.0
C1000 C 0.25118 0.7007 0.93144 0.0
H1001 H 0.29687 0.80176 0.91899 0.0
H1002 H 0.23069 0.74207 0.91587 0.0
C1003 C 0.28455 0.69791 0.94416 0.0
C1004 C 0.31646 0.6041 0.94573 0.0
C1005 C 0.27894 0.5715 0.93589 0.0
H1006 H 0.37891 0.62642 0.95038 0.0
C1007 C 0.27536 0.5338 0.92986 0.0
H1008 H 0.32009 0.63349 0.95051 0.0
C1009 C 0.30948 0.52996 0.92829 0.0
C1010 C 0.34757 0.56352 0.93381 0.0
H1011 H 0.24678 0.50814 0.92204 0.0
H1012 H 0.30635 0.50135 0.91981 0.0
C1013 C 0.3503 0.60001 0.94547 0.0
C1014 C 0.39774 0.76543 0.37205 0.0
C1015 C 0.39238 0.79781 0.38237 0.0
H1016 H 0.43822 0.74337 0.36725 0.0
C1017 C 0.42615 0.83549 0.38896 0.0
H1018 H 0.37225 0.73605 0.36685 0.0
C1019 C 0.46414 0.83947 0.39063 0.0
C1020 C 0.46906 0.80606 0.38469 0.0
H1021 H 0.42289 0.86098 0.39719 0.0
H1022 H 0.48931 0.86802 0.39955 0.0
C1023 C 0.43571 0.76965 0.37247 0.0
C1024 C 0.20646 0.59546 0.39191 0.0
C1025 C 0.24403 0.59917 0.38486 0.0
H1026 H 0.17399 0.62633 0.4028 0.0
C1027 C 0.2763 0.63685 0.37435 0.0
H1028 H 0.18106 0.56679 0.4003 0.0
C1029 C 0.27205 0.67069 0.3748 0.0
C1030 C 0.23574 0.66784 0.3873 0.0
H1031 H 0.3056 0.64061 0.36881 0.0
H1032 H 0.29823 0.69941 0.36927 0.0
C1033 C 0.20247 0.62958 0.39364 0.0
C1034 C 0.44556 0.61493 0.39001 0.0
C1035 C 0.44159 0.64875 0.38334 0.0
H1036 H 0.41512 0.55159 0.4008 0.0
C1037 C 0.40389 0.64331 0.37336 0.0
H1038 H 0.47426 0.61824 0.39799 0.0
C1039 C 0.37028 0.6052 0.37401 0.0
C1040 C 0.37339 0.57177 0.38617 0.0
H1041 H 0.39996 0.66883 0.3681 0.0
H1042 H 0.34153 0.60262 0.36892 0.0
C1043 C 0.41167 0.5768 0.39193 0.0
loop_
_geom_bond_atom_site_label_1
_geom_bond_atom_site_label_2
_geom_bond_distance
_geom_bond_site_symmetry_2
_ccdc_geom_bond_type
C0 C1 1.351 . S
C0 N3 1.368 . S
C0 H5 0.931 . S
C1 C0 1.351 . S
C1 N2 1.373 . S
C1 H29 0.930 . S
N2 C1 1.373 . S
N2 C4 1.340 . S
N3 C0 1.368 . S
N3 C4 1.321 . S
N3 Co6 2.135 . S
C4 N2 1.340 . S
C4 N3 1.321 . S
C4 H28 0.930 . S
H5 C0 0.931 . S
Co6 N3 2.135 . S
Co6 N9 2.121 1_455 S
Co6 O14 2.055 . S
Co6 O17 2.039 1_455 S
Co6 N20 2.140 . S
C7 O8 1.227 . S
C7 O17 1.265 . S
O8 C7 1.227 . S
N9 Co6 2.121 1_655 S
N9 C11 1.375 . S
N9 C12 1.313 . S
C10 C11 1.338 . S
C10 N13 1.377 . S
C10 H30 0.930 . S
C11 N9 1.375 . S
C11 C10 1.338 . S
C11 H15 0.931 . S
C12 N9 1.313 . S
C12 N13 1.344 . S
C12 H16 0.926 1_655 S
N13 C10 1.377 . S
N13 C12 1.344 . S
O14 Co6 2.055 . S
O14 C18 1.253 . S
H15 C11 0.931 . S
H16 C12 0.926 1_455 S
O17 Co6 2.039 1_655 S
O17 C7 1.265 . S
C18 O14 1.253 . S
C18 O19 1.227 . S
O19 C18 1.227 . S
N20 Co6 2.140 . S
N20 C23 1.346 . S
N20 C24 1.345 . S
C21 C22 1.387 . S
C21 C25 1.391 . S
C22 C21 1.387 . S
C22 C23 1.369 . S
C22 H31 0.929 . S
C23 N20 1.346 . S
C23 C22 1.369 . S
C23 H26 0.928 . S
C24 N20 1.345 . S
C24 C25 1.371 . S
C24 H27 0.931 . S
C25 C21 1.391 . S
C25 C24 1.371 . S
C25 H32 0.930 . S
H26 C23 0.928 . S
H27 C24 0.931 . S
H28 C4 0.930 . S
H29 C1 0.930 . S
H30 C10 0.930 . S
H31 C22 0.929 . S
H32 C25 0.930 . S
C33 C34 1.351 . S
C33 N36 1.368 . S
C33 H38 0.931 . S
C34 C33 1.351 . S
C34 N35 1.373 . S
C34 H62 0.930 . S
N35 C34 1.373 . S
N35 C37 1.340 . S
N36 C33 1.368 . S
N36 C37 1.321 . S
N36 Co39 2.135 . S
C37 N35 1.340 . S
C37 N36 1.321 . S
C37 H61 0.930 . S
H38 C33 0.931 . S
Co39 N36 2.135 . S
Co39 N42 2.121 . S
Co39 O47 2.055 . S
Co39 O50 2.039 . S
Co39 N53 2.140 . S
C40 O41 1.227 . S
C40 O50 1.265 . S
O41 C40 1.227 . S
N42 Co39 2.121 . S
N42 C44 1.375 . S
N42 C45 1.313 . S
C43 C44 1.338 . S
C43 N46 1.377 . S
C43 H63 0.930 . S
C44 N42 1.375 . S
C44 C43 1.338 . S
C44 H48 0.931 . S
C45 N42 1.313 . S
C45 N46 1.344 . S
C45 H49 0.930 . S
N46 C43 1.377 . S
N46 C45 1.344 . S
O47 Co39 2.055 . S
O47 C51 1.253 . S
H48 C44 0.931 . S
H49 C45 0.930 . S
O50 Co39 2.039 . S
O50 C40 1.265 . S
C51 O47 1.253 . S
C51 O52 1.227 . S
O52 C51 1.227 . S
N53 Co39 2.140 . S
N53 C56 1.346 . S
N53 C57 1.345 . S
C54 C55 1.387 . S
C54 C58 1.391 . S
C55 C54 1.387 . S
C55 C56 1.369 . S
C55 H64 0.929 . S
C56 N53 1.346 . S
C56 C55 1.369 . S
C56 H59 0.928 . S
C57 N53 1.345 . S
C57 C58 1.371 . S
C57 H60 0.931 . S
C58 C54 1.391 . S
C58 C57 1.371 . S
C58 H65 0.930 . S
H59 C56 0.928 . S
H60 C57 0.931 . S
H61 C37 0.930 . S
H62 C34 0.930 . S
H63 C43 0.930 . S
H64 C55 0.929 . S
H65 C58 0.930 . S
C66 C67 1.351 . S
C66 N69 1.368 . S
C66 H71 0.931 . S
C67 C66 1.351 . S
C67 N68 1.373 . S
C67 H95 0.930 . S
N68 C67 1.373 . S
N68 C70 1.340 . S
N69 C66 1.368 . S
N69 C70 1.321 . S
N69 Co72 2.135 . S
C70 N68 1.340 . S
C70 N69 1.321 . S
C70 H94 0.930 . S
H71 C66 0.931 . S
Co72 N69 2.135 . S
Co72 N75 2.121 1_565 S
Co72 O80 2.055 . S
Co72 O83 2.039 1_565 S
Co72 N86 2.140 . S
C73 O74 1.227 . S
C73 O83 1.265 . S
O74 C73 1.227 . S
N75 Co72 2.121 1_545 S
N75 C77 1.375 . S
N75 C78 1.313 . S
C76 C77 1.338 . S
C76 N79 1.377 . S
C76 H96 0.930 . S
C77 N75 1.375 . S
C77 C76 1.338 . S
C77 H81 0.931 . S
C78 N75 1.313 . S
C78 N79 1.344 . S
C78 H82 0.922 1_545 S
N79 C76 1.377 . S
N79 C78 1.344 . S
O80 Co72 2.055 . S
O80 C84 1.253 . S
H81 C77 0.931 . S
H82 C78 0.922 1_565 S
O83 Co72 2.039 1_545 S
O83 C73 1.265 . S
C84 O80 1.253 . S
C84 O85 1.227 . S
O85 C84 1.227 . S
N86 Co72 2.140 . S
N86 C89 1.346 . S
N86 C90 1.345 . S
C87 C88 1.387 . S
C87 C91 1.391 . S
C88 C87 1.387 . S
C88 C89 1.369 . S
C88 H97 0.929 . S
C89 N86 1.346 . S
C89 C88 1.369 . S
C89 H92 0.928 . S
C90 N86 1.345 . S
C90 C91 1.371 . S
C90 H93 0.931 . S
C91 C87 1.391 . S
C91 C90 1.371 . S
C91 H98 0.930 . S
H92 C89 0.928 . S
H93 C90 0.931 . S
H94 C70 0.930 . S
H95 C67 0.930 . S
H96 C76 0.930 . S
H97 C88 0.929 . S
H98 C91 0.930 . S
C99 C100 1.351 . S
C99 N102 1.368 . S
C99 H104 0.931 . S
C100 C99 1.351 . S
C100 N101 1.373 . S
C100 H128 0.930 . S
N101 C100 1.373 . S
N101 C103 1.340 . S
N102 C99 1.368 . S
N102 C103 1.321 . S
N102 Co105 2.135 . S
C103 N101 1.340 . S
C103 N102 1.321 . S
C103 H127 0.930 . S
H104 C99 0.931 . S
Co105 N102 2.135 . S
Co105 N108 2.121 1_545 S
Co105 O113 2.055 . S
Co105 O116 2.039 1_545 S
Co105 N119 2.140 . S
C106 O107 1.227 . S
C106 O116 1.265 . S
O107 C106 1.227 . S
N108 Co105 2.121 1_565 S
N108 C110 1.375 . S
N108 C111 1.313 . S
C109 C110 1.338 . S
C109 N112 1.377 . S
C109 H129 0.930 . S
C110 N108 1.375 . S
C110 C109 1.338 . S
C110 H114 0.931 . S
C111 N108 1.313 . S
C111 N112 1.344 . S
C111 H115 0.926 1_565 S
N112 C109 1.377 . S
N112 C111 1.344 . S
O113 Co105 2.055 . S
O113 C117 1.253 . S
H114 C110 0.931 . S
H115 C111 0.926 1_545 S
O116 Co105 2.039 1_565 S
O116 C106 1.265 . S
C117 O113 1.253 . S
C117 O118 1.227 . S
O118 C117 1.227 . S
N119 Co105 2.140 . S
N119 C122 1.346 . S
N119 C123 1.345 . S
C120 C121 1.387 . S
C120 C124 1.391 . S
C121 C120 1.387 . S
C121 C122 1.369 . S
C121 H130 0.929 . S
C122 N119 1.346 . S
C122 C121 1.369 . S
C122 H125 0.928 . S
C123 N119 1.345 . S
C123 C124 1.371 . S
C123 H126 0.931 . S
C124 C120 1.391 . S
C124 C123 1.371 . S
C124 H131 0.930 . S
H125 C122 0.928 . S
H126 C123 0.931 . S
H127 C103 0.930 . S
H128 C100 0.930 . S
H129 C109 0.930 . S
H130 C121 0.929 . S
H131 C124 0.930 . S
C132 C133 1.351 . S
C132 N135 1.368 . S
C132 H137 0.931 . S
C133 C132 1.351 . S
C133 N134 1.373 . S
C133 H161 0.930 . S
N134 C133 1.373 . S
N134 C136 1.340 . S
N135 C132 1.368 . S
N135 C136 1.321 . S
N135 Co138 2.135 . S
C136 N134 1.340 . S
C136 N135 1.321 . S
C136 H160 0.930 . S
H137 C132 0.931 . S
Co138 N135 2.135 . S
Co138 N141 2.121 1_655 S
Co138 O146 2.055 . S
Co138 O149 2.039 1_655 S
Co138 N152 2.140 . S
C139 O140 1.227 . S
C139 O149 1.265 . S
O140 C139 1.227 . S
N141 Co138 2.121 1_455 S
N141 C143 1.375 . S
N141 C144 1.313 . S
C142 C143 1.338 . S
C142 N145 1.377 . S
C142 H162 0.930 . S
C143 N141 1.375 . S
C143 C142 1.338 . S
C143 H147 0.931 . S
C144 N141 1.313 . S
C144 N145 1.344 . S
C144 H148 0.922 1_455 S
N145 C142 1.377 . S
N145 C144 1.344 . S
O146 Co138 2.055 . S
O146 C150 1.253 . S
H147 C143 0.931 . S
H148 C144 0.922 1_655 S
O149 Co138 2.039 1_455 S
O149 C139 1.265 . S
C150 O146 1.253 . S
C150 O151 1.227 . S
O151 C150 1.227 . S
N152 Co138 2.140 . S
N152 C155 1.346 . S
N152 C156 1.345 . S
C153 C154 1.387 . S
C153 C157 1.391 . S
C154 C153 1.387 . S
C154 C155 1.369 . S
C154 H163 0.929 . S
C155 N152 1.346 . S
C155 C154 1.369 . S
C155 H158 0.928 . S
C156 N152 1.345 . S
C156 C157 1.371 . S
C156 H159 0.931 . S
C157 C153 1.391 . S
C157 C156 1.371 . S
C157 H164 0.930 . S
H158 C155 0.928 . S
H159 C156 0.931 . S
H160 C136 0.930 . S
H161 C133 0.930 . S
H162 C142 0.930 . S
H163 C154 0.929 . S
H164 C157 0.930 . S
C165 C166 1.351 . S
C165 N168 1.368 . S
C165 H170 0.931 . S
C166 C165 1.351 . S
C166 N167 1.373 . S
C166 H194 0.930 . S
N167 C166 1.373 . S
N167 C169 1.340 . S
N168 C165 1.368 . S
N168 C169 1.321 . S
N168 Co171 2.135 . S
C169 N167 1.340 . S
C169 N168 1.321 . S
C169 H193 0.930 . S
H170 C165 0.931 . S
Co171 N168 2.135 . S
Co171 N174 2.121 . S
Co171 O179 2.055 . S
Co171 O182 2.039 . S
Co171 N185 2.140 . S
C172 O173 1.227 . S
C172 O182 1.265 . S
O173 C172 1.227 . S
N174 Co171 2.121 . S
N174 C176 1.375 . S
N174 C177 1.313 . S
C175 C176 1.338 . S
C175 N178 1.377 . S
C175 H195 0.930 . S
C176 N174 1.375 . S
C176 C175 1.338 . S
C176 H180 0.931 . S
C177 N174 1.313 . S
C177 N178 1.344 . S
C177 H181 0.930 . S
N178 C175 1.377 . S
N178 C177 1.344 . S
O179 Co171 2.055 . S
O179 C183 1.253 . S
H180 C176 0.931 . S
H181 C177 0.930 . S
O182 Co171 2.039 . S
O182 C172 1.265 . S
C183 O179 1.253 . S
C183 O184 1.227 . S
O184 C183 1.227 . S
N185 Co171 2.140 . S
N185 C188 1.346 . S
N185 C189 1.345 . S
C186 C187 1.387 . S
C186 C190 1.391 . S
C187 C186 1.387 . S
C187 C188 1.369 . S
C187 H196 0.929 . S
C188 N185 1.346 . S
C188 C187 1.369 . S
C188 H191 0.928 . S
C189 N185 1.345 . S
C189 C190 1.371 . S
C189 H192 0.931 . S
C190 C186 1.391 . S
C190 C189 1.371 . S
C190 H197 0.930 . S
H191 C188 0.928 . S
H192 C189 0.931 . S
H193 C169 0.930 . S
H194 C166 0.930 . S
H195 C175 0.930 . S
H196 C187 0.929 . S
H197 C190 0.930 . S
C198 C199 1.351 . S
C198 N201 1.368 . S
C198 H203 0.931 . S
C199 C198 1.351 . S
C199 N200 1.373 . S
C199 H227 0.930 . S
N200 C199 1.373 . S
N200 C202 1.340 . S
N201 C198 1.368 . S
N201 C202 1.321 . S
N201 Co204 2.135 . S
C202 N200 1.340 . S
C202 N201 1.321 . S
C202 H226 0.930 . S
H203 C198 0.931 . S
Co204 N201 2.135 . S
Co204 N207 2.121 . S
Co204 O212 2.055 . S
Co204 O215 2.039 . S
Co204 N218 2.140 . S
C205 O206 1.227 . S
C205 O215 1.265 . S
O206 C205 1.227 . S
N207 Co204 2.121 . S
N207 C209 1.375 . S
N207 C210 1.313 . S
C208 C209 1.338 . S
C208 N211 1.377 . S
C208 H228 0.930 . S
C209 N207 1.375 . S
C209 C208 1.338 . S
C209 H213 0.931 . S
C210 N207 1.313 . S
C210 N211 1.344 . S
C210 H214 0.930 . S
N211 C208 1.377 . S
N211 C210 1.344 . S
O212 Co204 2.055 . S
O212 C216 1.253 . S
H213 C209 0.931 . S
H214 C210 0.930 . S
O215 Co204 2.039 . S
O215 C205 1.265 . S
C216 O212 1.253 . S
C216 O217 1.227 . S
O217 C216 1.227 . S
N218 Co204 2.140 . S
N218 C221 1.346 . S
N218 C222 1.345 . S
C219 C220 1.387 . S
C219 C223 1.391 . S
C220 C219 1.387 . S
C220 C221 1.369 . S
C220 H229 0.929 . S
C221 N218 1.346 . S
C221 C220 1.369 . S
C221 H224 0.928 . S
C222 N218 1.345 . S
C222 C223 1.371 . S
C222 H225 0.931 . S
C223 C219 1.391 . S
C223 C222 1.371 . S
C223 H230 0.930 . S
H224 C221 0.928 . S
H225 C222 0.931 . S
H226 C202 0.930 . S
H227 C199 0.930 . S
H228 C208 0.930 . S
H229 C220 0.929 . S
H230 C223 0.930 . S
C231 C232 1.351 . S
C231 N234 1.368 . S
C231 H236 0.931 . S
C232 C231 1.351 . S
C232 N233 1.373 . S
C232 H260 0.930 . S
N233 C232 1.373 . S
N233 C235 1.340 . S
N234 C231 1.368 . S
N234 C235 1.321 . S
N234 Co237 2.135 . S
C235 N233 1.340 . S
C235 N234 1.321 . S
C235 H259 0.930 . S
H236 C231 0.931 . S
Co237 N234 2.135 . S
Co237 N240 2.121 . S
Co237 O245 2.055 . S
Co237 O248 2.039 . S
Co237 N251 2.140 . S
C238 O239 1.227 . S
C238 O248 1.265 . S
O239 C238 1.227 . S
N240 Co237 2.121 . S
N240 C242 1.375 . S
N240 C243 1.313 . S
C241 C242 1.338 . S
C241 N244 1.377 . S
C241 H261 0.930 . S
C242 N240 1.375 . S
C242 C241 1.338 . S
C242 H246 0.931 . S
C243 N240 1.313 . S
C243 N244 1.344 . S
C243 H247 0.930 . S
N244 C241 1.377 . S
N244 C243 1.344 . S
O245 Co237 2.055 . S
O245 C249 1.253 . S
H246 C242 0.931 . S
H247 C243 0.930 . S
O248 Co237 2.039 . S
O248 C238 1.265 . S
C249 O245 1.253 . S
C249 O250 1.227 . S
O250 C249 1.227 . S
N251 Co237 2.140 . S
N251 C254 1.346 . S
N251 C255 1.345 . S
C252 C253 1.387 . S
C252 C256 1.391 . S
C253 C252 1.387 . S
C253 C254 1.369 . S
C253 H262 0.929 . S
C254 N251 1.346 . S
C254 C253 1.369 . S
C254 H257 0.928 . S
C255 N251 1.345 . S
C255 C256 1.371 . S
C255 H258 0.931 . S
C256 C252 1.391 . S
C256 C255 1.371 . S
C256 H263 0.930 . S
H257 C254 0.928 . S
H258 C255 0.931 . S
H259 C235 0.930 . S
H260 C232 0.930 . S
H261 C241 0.930 . S
H262 C253 0.929 . S
H263 C256 0.930 . S
C264 C265 1.351 . S
C264 N267 1.368 . S
C264 H269 0.931 . S
C265 C264 1.351 . S
C265 N266 1.373 . S
C265 H293 0.930 . S
N266 C265 1.373 . S
N266 C268 1.340 . S
N267 C264 1.368 . S
N267 C268 1.321 . S
N267 Co270 2.135 . S
C268 N266 1.340 . S
C268 N267 1.321 . S
C268 H292 0.930 . S
H269 C264 0.931 . S
Co270 N267 2.135 . S
Co270 N273 2.121 . S
Co270 O278 2.055 . S
Co270 O281 2.039 . S
Co270 N284 2.140 . S
C271 O272 1.227 . S
C271 O281 1.265 . S
O272 C271 1.227 . S
N273 Co270 2.121 . S
N273 C275 1.375 . S
N273 C276 1.313 . S
C274 C275 1.338 . S
C274 N277 1.377 . S
C274 H294 0.930 . S
C275 N273 1.375 . S
C275 C274 1.338 . S
C275 H279 0.931 . S
C276 N273 1.313 . S
C276 N277 1.344 . S
C276 H280 0.930 . S
N277 C274 1.377 . S
N277 C276 1.344 . S
O278 Co270 2.055 . S
O278 C282 1.253 . S
H279 C275 0.931 . S
H280 C276 0.930 . S
O281 Co270 2.039 . S
O281 C271 1.265 . S
C282 O278 1.253 . S
C282 O283 1.227 . S
O283 C282 1.227 . S
N284 Co270 2.140 . S
N284 C287 1.346 . S
N284 C288 1.345 . S
C285 C286 1.387 . S
C285 C289 1.391 . S
C286 C285 1.387 . S
C286 C287 1.369 . S
C286 H295 0.929 . S
C287 N284 1.346 . S
C287 C286 1.369 . S
C287 H290 0.928 . S
C288 N284 1.345 . S
C288 C289 1.371 . S
C288 H291 0.931 . S
C289 C285 1.391 . S
C289 C288 1.371 . S
C289 H296 0.930 . S
H290 C287 0.928 . S
H291 C288 0.931 . S
H292 C268 0.930 . S
H293 C265 0.930 . S
H294 C274 0.930 . S
H295 C286 0.929 . S
H296 C289 0.930 . S
C297 C298 1.351 . S
C297 N300 1.368 . S
C297 H302 0.931 . S
C298 C297 1.351 . S
C298 N299 1.373 . S
C298 H326 0.930 . S
N299 C298 1.373 . S
N299 C301 1.340 . S
N300 C297 1.368 . S
N300 C301 1.321 . S
N300 Co303 2.135 . S
C301 N299 1.340 . S
C301 N300 1.321 . S
C301 H325 0.930 . S
H302 C297 0.931 . S
Co303 N300 2.135 . S
Co303 N306 2.121 . S
Co303 O311 2.055 . S
Co303 O314 2.039 . S
Co303 N317 2.140 . S
C304 O305 1.227 . S
C304 O314 1.265 . S
O305 C304 1.227 . S
N306 Co303 2.121 . S
N306 C308 1.375 . S
N306 C309 1.313 . S
C307 C308 1.338 . S
C307 N310 1.377 . S
C307 H327 0.930 . S
C308 N306 1.375 . S
C308 C307 1.338 . S
C308 H312 0.931 . S
C309 N306 1.313 . S
C309 N310 1.344 . S
C309 H313 0.930 . S
N310 C307 1.377 . S
N310 C309 1.344 . S
O311 Co303 2.055 . S
O311 C315 1.253 . S
H312 C308 0.931 . S
H313 C309 0.930 . S
O314 Co303 2.039 . S
O314 C304 1.265 . S
C315 O311 1.253 . S
C315 O316 1.227 . S
O316 C315 1.227 . S
N317 Co303 2.140 . S
N317 C320 1.346 . S
N317 C321 1.345 . S
C318 C319 1.387 . S
C318 C322 1.391 . S
C319 C318 1.387 . S
C319 C320 1.369 . S
C319 H328 0.929 . S
C320 N317 1.346 . S
C320 C319 1.369 . S
C320 H323 0.928 . S
C321 N317 1.345 . S
C321 C322 1.371 . S
C321 H324 0.931 . S
C322 C318 1.391 . S
C322 C321 1.371 . S
C322 H329 0.930 . S
H323 C320 0.928 . S
H324 C321 0.931 . S
H325 C301 0.930 . S
H326 C298 0.930 . S
H327 C307 0.930 . S
H328 C319 0.929 . S
H329 C322 0.930 . S
C330 C331 1.351 . S
C330 N333 1.368 . S
C330 H335 0.931 . S
C331 C330 1.351 . S
C331 N332 1.373 . S
C331 H359 0.930 . S
N332 C331 1.373 . S
N332 C334 1.340 . S
N333 C330 1.368 . S
N333 C334 1.321 . S
N333 Co336 2.135 . S
C334 N332 1.340 . S
C334 N333 1.321 . S
C334 H358 0.930 . S
H335 C330 0.931 . S
Co336 N333 2.135 . S
Co336 N339 2.121 . S
Co336 O344 2.055 . S
Co336 O347 2.039 . S
Co336 N350 2.140 . S
C337 O338 1.227 . S
C337 O347 1.265 . S
O338 C337 1.227 . S
N339 Co336 2.121 . S
N339 C341 1.375 . S
N339 C342 1.313 . S
C340 C341 1.338 . S
C340 N343 1.377 . S
C340 H360 0.930 . S
C341 N339 1.375 . S
C341 C340 1.338 . S
C341 H345 0.931 . S
C342 N339 1.313 . S
C342 N343 1.344 . S
C342 H346 0.930 . S
N343 C340 1.377 . S
N343 C342 1.344 . S
O344 Co336 2.055 . S
O344 C348 1.253 . S
H345 C341 0.931 . S
H346 C342 0.930 . S
O347 Co336 2.039 . S
O347 C337 1.265 . S
C348 O344 1.253 . S
C348 O349 1.227 . S
O349 C348 1.227 . S
N350 Co336 2.140 . S
N350 C353 1.346 . S
N350 C354 1.345 . S
C351 C352 1.387 . S
C351 C355 1.391 . S
C352 C351 1.387 . S
C352 C353 1.369 . S
C352 H361 0.929 . S
C353 N350 1.346 . S
C353 C352 1.369 . S
C353 H356 0.928 . S
C354 N350 1.345 . S
C354 C355 1.371 . S
C354 H357 0.931 . S
C355 C351 1.391 . S
C355 C354 1.371 . S
C355 H362 0.930 . S
H356 C353 0.928 . S
H357 C354 0.931 . S
H358 C334 0.930 . S
H359 C331 0.930 . S
H360 C340 0.930 . S
H361 C352 0.929 . S
H362 C355 0.930 . S
C363 C364 1.351 . S
C363 N366 1.368 . S
C363 H368 0.931 . S
C364 C363 1.351 . S
C364 N365 1.373 . S
C364 H392 0.930 . S
N365 C364 1.373 . S
N365 C367 1.340 . S
N366 C363 1.368 . S
N366 C367 1.321 . S
N366 Co369 2.135 . S
C367 N365 1.340 . S
C367 N366 1.321 . S
C367 H391 0.930 . S
H368 C363 0.931 . S
Co369 N366 2.135 . S
Co369 N372 2.121 . S
Co369 O377 2.055 . S
Co369 O380 2.039 . S
Co369 N383 2.140 . S
C370 O371 1.227 . S
C370 O380 1.265 . S
O371 C370 1.227 . S
N372 Co369 2.121 . S
N372 C374 1.375 . S
N372 C375 1.313 . S
C373 C374 1.338 . S
C373 N376 1.377 . S
C373 H393 0.930 . S
C374 N372 1.375 . S
C374 C373 1.338 . S
C374 H378 0.931 . S
C375 N372 1.313 . S
C375 N376 1.344 . S
C375 H379 0.930 . S
N376 C373 1.377 . S
N376 C375 1.344 . S
O377 Co369 2.055 . S
O377 C381 1.253 . S
H378 C374 0.931 . S
H379 C375 0.930 . S
O380 Co369 2.039 . S
O380 C370 1.265 . S
C381 O377 1.253 . S
C381 O382 1.227 . S
O382 C381 1.227 . S
N383 Co369 2.140 . S
N383 C386 1.346 . S
N383 C387 1.345 . S
C384 C385 1.387 . S
C384 C388 1.391 . S
C385 C384 1.387 . S
C385 C386 1.369 . S
C385 H394 0.929 . S
C386 N383 1.346 . S
C386 C385 1.369 . S
C386 H389 0.928 . S
C387 N383 1.345 . S
C387 C388 1.371 . S
C387 H390 0.931 . S
C388 C384 1.391 . S
C388 C387 1.371 . S
C388 H395 0.930 . S
H389 C386 0.928 . S
H390 C387 0.931 . S
H391 C367 0.930 . S
H392 C364 0.930 . S
H393 C373 0.930 . S
H394 C385 0.929 . S
H395 C388 0.930 . S
C396 C397 1.351 . S
C396 N399 1.368 . S
C396 H401 0.931 . S
C397 C396 1.351 . S
C397 N398 1.373 . S
C397 H425 0.930 . S
N398 C397 1.373 . S
N398 C400 1.340 . S
N399 C396 1.368 . S
N399 C400 1.321 . S
N399 Co402 2.135 . S
C400 N398 1.340 . S
C400 N399 1.321 . S
C400 H424 0.930 . S
H401 C396 0.931 . S
Co402 N399 2.135 . S
Co402 N405 2.121 . S
Co402 O410 2.055 . S
Co402 O413 2.039 . S
Co402 N416 2.140 . S
C403 O404 1.227 . S
C403 O413 1.265 . S
O404 C403 1.227 . S
N405 Co402 2.121 . S
N405 C407 1.375 . S
N405 C408 1.313 . S
C406 C407 1.338 . S
C406 N409 1.377 . S
C406 H426 0.930 . S
C407 N405 1.375 . S
C407 C406 1.338 . S
C407 H411 0.931 . S
C408 N405 1.313 . S
C408 N409 1.344 . S
C408 H412 0.930 . S
N409 C406 1.377 . S
N409 C408 1.344 . S
O410 Co402 2.055 . S
O410 C414 1.253 . S
H411 C407 0.931 . S
H412 C408 0.930 . S
O413 Co402 2.039 . S
O413 C403 1.265 . S
C414 O410 1.253 . S
C414 O415 1.227 . S
O415 C414 1.227 . S
N416 Co402 2.140 . S
N416 C419 1.346 . S
N416 C420 1.345 . S
C417 C418 1.387 . S
C417 C421 1.391 . S
C418 C417 1.387 . S
C418 C419 1.369 . S
C418 H427 0.929 . S
C419 N416 1.346 . S
C419 C418 1.369 . S
C419 H422 0.928 . S
C420 N416 1.345 . S
C420 C421 1.371 . S
C420 H423 0.931 . S
C421 C417 1.391 . S
C421 C420 1.371 . S
C421 H428 0.930 . S
H422 C419 0.928 . S
H423 C420 0.931 . S
H424 C400 0.930 . S
H425 C397 0.930 . S
H426 C406 0.930 . S
H427 C418 0.929 . S
H428 C421 0.930 . S
C429 C430 1.351 . S
C429 N432 1.368 . S
C429 H434 0.931 . S
C430 C429 1.351 . S
C430 N431 1.373 . S
C430 H458 0.930 . S
N431 C430 1.373 . S
N431 C433 1.340 . S
N432 C429 1.368 . S
N432 C433 1.321 . S
N432 Co435 2.135 . S
C433 N431 1.340 . S
C433 N432 1.321 . S
C433 H457 0.930 . S
H434 C429 0.931 . S
Co435 N432 2.135 . S
Co435 N438 2.121 . S
Co435 O443 2.055 . S
Co435 O446 2.039 . S
Co435 N449 2.140 . S
C436 O437 1.227 . S
C436 O446 1.265 . S
O437 C436 1.227 . S
N438 Co435 2.121 . S
N438 C440 1.375 . S
N438 C441 1.313 . S
C439 C440 1.338 . S
C439 N442 1.377 . S
C439 H459 0.930 . S
C440 N438 1.375 . S
C440 C439 1.338 . S
C440 H444 0.931 . S
C441 N438 1.313 . S
C441 N442 1.344 . S
C441 H445 0.930 . S
N442 C439 1.377 . S
N442 C441 1.344 . S
O443 Co435 2.055 . S
O443 C447 1.253 . S
H444 C440 0.931 . S
H445 C441 0.930 . S
O446 Co435 2.039 . S
O446 C436 1.265 . S
C447 O443 1.253 . S
C447 O448 1.227 . S
O448 C447 1.227 . S
N449 Co435 2.140 . S
N449 C452 1.346 . S
N449 C453 1.345 . S
C450 C451 1.387 . S
C450 C454 1.391 . S
C451 C450 1.387 . S
C451 C452 1.369 . S
C451 H460 0.929 . S
C452 N449 1.346 . S
C452 C451 1.369 . S
C452 H455 0.928 . S
C453 N449 1.345 . S
C453 C454 1.371 . S
C453 H456 0.931 . S
C454 C450 1.391 . S
C454 C453 1.371 . S
C454 H461 0.930 . S
H455 C452 0.928 . S
H456 C453 0.931 . S
H457 C433 0.930 . S
H458 C430 0.930 . S
H459 C439 0.930 . S
H460 C451 0.929 . S
H461 C454 0.930 . S
C462 C463 1.351 . S
C462 N465 1.368 . S
C462 H467 0.931 . S
C463 C462 1.351 . S
C463 N464 1.373 . S
C463 H491 0.930 . S
N464 C463 1.373 . S
N464 C466 1.340 . S
N465 C462 1.368 . S
N465 C466 1.321 . S
N465 Co468 2.135 . S
C466 N464 1.340 . S
C466 N465 1.321 . S
C466 H490 0.930 . S
H467 C462 0.931 . S
Co468 N465 2.135 . S
Co468 N471 2.121 . S
Co468 O476 2.055 . S
Co468 O479 2.039 . S
Co468 N482 2.140 . S
C469 O470 1.227 . S
C469 O479 1.265 . S
O470 C469 1.227 . S
N471 Co468 2.121 . S
N471 C473 1.375 . S
N471 C474 1.313 . S
C472 C473 1.338 . S
C472 N475 1.377 . S
C472 H492 0.930 . S
C473 N471 1.375 . S
C473 C472 1.338 . S
C473 H477 0.931 . S
C474 N471 1.313 . S
C474 N475 1.344 . S
C474 H478 0.930 . S
N475 C472 1.377 . S
N475 C474 1.344 . S
O476 Co468 2.055 . S
O476 C480 1.253 . S
H477 C473 0.931 . S
H478 C474 0.930 . S
O479 Co468 2.039 . S
O479 C469 1.265 . S
C480 O476 1.253 . S
C480 O481 1.227 . S
O481 C480 1.227 . S
N482 Co468 2.140 . S
N482 C485 1.346 . S
N482 C486 1.345 . S
C483 C484 1.387 . S
C483 C487 1.391 . S
C484 C483 1.387 . S
C484 C485 1.369 . S
C484 H493 0.929 . S
C485 N482 1.346 . S
C485 C484 1.369 . S
C485 H488 0.928 . S
C486 N482 1.345 . S
C486 C487 1.371 . S
C486 H489 0.931 . S
C487 C483 1.391 . S
C487 C486 1.371 . S
C487 H494 0.930 . S
H488 C485 0.928 . S
H489 C486 0.931 . S
H490 C466 0.930 . S
H491 C463 0.930 . S
H492 C472 0.930 . S
H493 C484 0.929 . S
H494 C487 0.930 . S
C495 C496 1.351 . S
C495 N498 1.368 . S
C495 H500 0.931 . S
C496 C495 1.351 . S
C496 N497 1.373 . S
C496 H524 0.930 . S
N497 C496 1.373 . S
N497 C499 1.340 . S
N498 C495 1.368 . S
N498 C499 1.321 . S
N498 Co501 2.135 . S
C499 N497 1.340 . S
C499 N498 1.321 . S
C499 H523 0.930 . S
H500 C495 0.931 . S
Co501 N498 2.135 . S
Co501 N504 2.121 . S
Co501 O509 2.055 . S
Co501 O512 2.039 . S
Co501 N515 2.140 . S
C502 O503 1.227 . S
C502 O512 1.265 . S
O503 C502 1.227 . S
N504 Co501 2.121 . S
N504 C506 1.375 . S
N504 C507 1.313 . S
C505 C506 1.338 . S
C505 N508 1.377 . S
C505 H525 0.930 . S
C506 N504 1.375 . S
C506 C505 1.338 . S
C506 H510 0.931 . S
C507 N504 1.313 . S
C507 N508 1.344 . S
C507 H511 0.930 . S
N508 C505 1.377 . S
N508 C507 1.344 . S
O509 Co501 2.055 . S
O509 C513 1.253 . S
H510 C506 0.931 . S
H511 C507 0.930 . S
O512 Co501 2.039 . S
O512 C502 1.265 . S
C513 O509 1.253 . S
C513 O514 1.227 . S
O514 C513 1.227 . S
N515 Co501 2.140 . S
N515 C518 1.346 . S
N515 C519 1.345 . S
C516 C517 1.387 . S
C516 C520 1.391 . S
C517 C516 1.387 . S
C517 C518 1.369 . S
C517 H526 0.929 . S
C518 N515 1.346 . S
C518 C517 1.369 . S
C518 H521 0.928 . S
C519 N515 1.345 . S
C519 C520 1.371 . S
C519 H522 0.931 . S
C520 C516 1.391 . S
C520 C519 1.371 . S
C520 H527 0.930 . S
H521 C518 0.928 . S
H522 C519 0.931 . S
H523 C499 0.930 . S
H524 C496 0.930 . S
H525 C505 0.930 . S
H526 C517 0.929 . S
H527 C520 0.930 . S
C528 C529 1.351 . S
C528 N531 1.368 . S
C528 H533 0.931 . S
C529 C528 1.351 . S
C529 N530 1.373 . S
C529 H557 0.930 . S
N530 C529 1.373 . S
N530 C532 1.340 . S
N531 C528 1.368 . S
N531 C532 1.321 . S
N531 Co534 2.135 . S
C532 N530 1.340 . S
C532 N531 1.321 . S
C532 H556 0.930 . S
H533 C528 0.931 . S
Co534 N531 2.135 . S
Co534 N537 2.121 . S
Co534 O542 2.055 . S
Co534 O545 2.039 . S
Co534 N548 2.140 . S
C535 O536 1.227 . S
C535 O545 1.265 . S
O536 C535 1.227 . S
N537 Co534 2.121 . S
N537 C539 1.375 . S
N537 C540 1.313 . S
C538 C539 1.338 . S
C538 N541 1.377 . S
C538 H558 0.930 . S
C539 N537 1.375 . S
C539 C538 1.338 . S
C539 H543 0.931 . S
C540 N537 1.313 . S
C540 N541 1.344 . S
C540 H544 0.930 . S
N541 C538 1.377 . S
N541 C540 1.344 . S
O542 Co534 2.055 . S
O542 C546 1.253 . S
H543 C539 0.931 . S
H544 C540 0.930 . S
O545 Co534 2.039 . S
O545 C535 1.265 . S
C546 O542 1.253 . S
C546 O547 1.227 . S
O547 C546 1.227 . S
N548 Co534 2.140 . S
N548 C551 1.346 . S
N548 C552 1.345 . S
C549 C550 1.387 . S
C549 C553 1.391 . S
C550 C549 1.387 . S
C550 C551 1.369 . S
C550 H559 0.929 . S
C551 N548 1.346 . S
C551 C550 1.369 . S
C551 H554 0.928 . S
C552 N548 1.345 . S
C552 C553 1.371 . S
C552 H555 0.931 . S
C553 C549 1.391 . S
C553 C552 1.371 . S
C553 H560 0.930 . S
H554 C551 0.928 . S
H555 C552 0.931 . S
H556 C532 0.930 . S
H557 C529 0.930 . S
H558 C538 0.930 . S
H559 C550 0.929 . S
H560 C553 0.930 . S
C561 C562 1.351 . S
C561 N564 1.368 . S
C561 H566 0.931 . S
C562 C561 1.351 . S
C562 N563 1.373 . S
C562 H590 0.930 . S
N563 C562 1.373 . S
N563 C565 1.340 . S
N564 C561 1.368 . S
N564 C565 1.321 . S
N564 Co567 2.135 . S
C565 N563 1.340 . S
C565 N564 1.321 . S
C565 H589 0.930 . S
H566 C561 0.931 . S
Co567 N564 2.135 . S
Co567 N570 2.121 . S
Co567 O575 2.055 . S
Co567 O578 2.039 . S
Co567 N581 2.140 . S
C568 O569 1.227 . S
C568 O578 1.265 . S
O569 C568 1.227 . S
N570 Co567 2.121 . S
N570 C572 1.375 . S
N570 C573 1.313 . S
C571 C572 1.338 . S
C571 N574 1.377 . S
C571 H591 0.930 . S
C572 N570 1.375 . S
C572 C571 1.338 . S
C572 H576 0.931 . S
C573 N570 1.313 . S
C573 N574 1.344 . S
C573 H577 0.930 . S
N574 C571 1.377 . S
N574 C573 1.344 . S
O575 Co567 2.055 . S
O575 C579 1.253 . S
H576 C572 0.931 . S
H577 C573 0.930 . S
O578 Co567 2.039 . S
O578 C568 1.265 . S
C579 O575 1.253 . S
C579 O580 1.227 . S
O580 C579 1.227 . S
N581 Co567 2.140 . S
N581 C584 1.346 . S
N581 C585 1.345 . S
C582 C583 1.387 . S
C582 C586 1.391 . S
C583 C582 1.387 . S
C583 C584 1.369 . S
C583 H592 0.929 . S
C584 N581 1.346 . S
C584 C583 1.369 . S
C584 H587 0.928 . S
C585 N581 1.345 . S
C585 C586 1.371 . S
C585 H588 0.931 . S
C586 C582 1.391 . S
C586 C585 1.371 . S
C586 H593 0.930 . S
H587 C584 0.928 . S
H588 C585 0.931 . S
H589 C565 0.930 . S
H590 C562 0.930 . S
H591 C571 0.930 . S
H592 C583 0.929 . S
H593 C586 0.930 . S
C594 C595 1.387 . S
C594 H598 0.950 . S
C594 C603 1.390 . S
C595 C594 1.387 . S
C595 C597 1.387 . S
H596 C603 0.950 . S
C597 C595 1.387 . S
C597 C599 1.390 . S
C597 H601 0.950 . S
H598 C594 0.950 . S
C599 C597 1.390 . S
C599 C600 1.387 . S
C599 H602 0.950 . S
C600 C599 1.387 . S
C600 C603 1.387 . S
H601 C597 0.950 . S
H602 C599 0.950 . S
C603 C594 1.390 . S
C603 H596 0.950 . S
C603 C600 1.387 . S
C604 C605 1.387 . S
C604 H608 0.950 . S
C604 C613 1.390 . S
C605 C604 1.387 . S
C605 C607 1.387 . S
H606 C613 0.950 . S
C607 C605 1.387 . S
C607 C609 1.390 . S
C607 H611 0.950 . S
H608 C604 0.950 . S
C609 C607 1.390 . S
C609 C610 1.387 . S
C609 H612 0.950 . S
C610 C609 1.387 . S
C610 C613 1.387 . S
H611 C607 0.950 . S
H612 C609 0.950 . S
C613 C604 1.390 . S
C613 H606 0.950 . S
C613 C610 1.387 . S
C614 C615 1.387 . S
C614 H618 0.950 . S
C614 C623 1.390 . S
C615 C614 1.387 . S
C615 C617 1.387 . S
H616 C623 0.950 . S
C617 C615 1.387 . S
C617 C619 1.390 . S
C617 H621 0.950 . S
H618 C614 0.950 . S
C619 C617 1.390 . S
C619 C620 1.387 . S
C619 H622 0.950 . S
C620 C619 1.387 . S
C620 C623 1.387 . S
H621 C617 0.950 . S
H622 C619 0.950 . S
C623 C614 1.390 . S
C623 H616 0.950 . S
C623 C620 1.387 . S
C624 C625 1.387 . S
C624 H628 0.950 . S
C624 C633 1.390 . S
C625 C624 1.387 . S
C625 C627 1.387 . S
H626 C633 0.950 . S
C627 C625 1.387 . S
C627 C629 1.390 . S
C627 H631 0.950 . S
H628 C624 0.950 . S
C629 C627 1.390 . S
C629 C630 1.387 . S
C629 H632 0.950 . S
C630 C629 1.387 . S
C630 C633 1.387 . S
H631 C627 0.950 . S
H632 C629 0.950 . S
C633 C624 1.390 . S
C633 H626 0.950 . S
C633 C630 1.387 . S
C634 C635 1.387 . S
C634 H638 0.950 . S
C634 C643 1.390 . S
C635 C634 1.387 . S
C635 C637 1.387 . S
H636 C643 0.950 . S
C637 C635 1.387 . S
C637 C639 1.390 . S
C637 H641 0.950 . S
H638 C634 0.950 . S
C639 C637 1.390 . S
C639 C640 1.387 . S
C639 H642 0.950 . S
C640 C639 1.387 . S
C640 C643 1.387 . S
H641 C637 0.950 . S
H642 C639 0.950 . S
C643 C634 1.390 . S
C643 H636 0.950 . S
C643 C640 1.387 . S
C644 C645 1.387 . S
C644 H648 0.950 . S
C644 C653 1.390 . S
C645 C644 1.387 . S
C645 C647 1.387 . S
H646 C653 0.950 . S
C647 C645 1.387 . S
C647 C649 1.390 . S
C647 H651 0.950 . S
H648 C644 0.950 . S
C649 C647 1.390 . S
C649 C650 1.387 . S
C649 H652 0.950 . S
C650 C649 1.387 . S
C650 C653 1.387 . S
H651 C647 0.950 . S
H652 C649 0.950 . S
C653 C644 1.390 . S
C653 H646 0.950 . S
C653 C650 1.387 . S
C654 C655 1.387 . S
C654 H658 0.950 . S
C654 C663 1.390 . S
C655 C654 1.387 . S
C655 C657 1.387 . S
H656 C663 0.950 . S
C657 C655 1.387 . S
C657 C659 1.390 . S
C657 H661 0.950 . S
H658 C654 0.950 . S
C659 C657 1.390 . S
C659 C660 1.387 . S
C659 H662 0.950 . S
C660 C659 1.387 . S
C660 C663 1.387 . S
H661 C657 0.950 . S
H662 C659 0.950 . S
C663 C654 1.390 . S
C663 H656 0.950 . S
C663 C660 1.387 . S
C664 C665 1.387 . S
C664 H668 0.950 . S
C664 C673 1.390 1_565 S
C665 C664 1.387 . S
C665 C667 1.387 . S
H666 C673 0.950 . S
C667 C665 1.387 . S
C667 C669 1.390 1_565 S
C667 H671 0.950 . S
H668 C664 0.950 . S
C669 C667 1.390 1_545 S
C669 C670 1.387 . S
C669 H672 0.950 . S
C670 C669 1.387 . S
C670 C673 1.387 . S
H671 C667 0.950 . S
H672 C669 0.950 . S
C673 C664 1.390 1_545 S
C673 H666 0.950 . S
C673 C670 1.387 . S
C674 C675 1.387 1_655 S
C674 H678 0.950 . S
C674 C683 1.390 . S
C675 C674 1.387 1_455 S
C675 C677 1.387 . S
H676 C683 0.950 . S
C677 C675 1.387 . S
C677 C679 1.390 . S
C677 H681 0.950 . S
H678 C674 0.950 . S
C679 C677 1.390 . S
C679 C680 1.387 1_455 S
C679 H682 0.950 . S
C680 C679 1.387 1_655 S
C680 C683 1.387 . S
H681 C677 0.950 . S
H682 C679 0.950 . S
C683 C674 1.390 . S
C683 H676 0.950 . S
C683 C680 1.387 . S
C684 C685 1.387 . S
C684 H688 0.950 . S
C684 C693 1.390 . S
C685 C684 1.387 . S
C685 C687 1.387 . S
H686 C693 0.950 . S
C687 C685 1.387 . S
C687 C689 1.390 . S
C687 H691 0.950 . S
H688 C684 0.950 . S
C689 C687 1.390 . S
C689 C690 1.387 . S
C689 H692 0.950 . S
C690 C689 1.387 . S
C690 C693 1.387 . S
H691 C687 0.950 . S
H692 C689 0.950 . S
C693 C684 1.390 . S
C693 H686 0.950 . S
C693 C690 1.387 . S
C694 C695 1.387 . S
C694 H698 0.950 . S
C694 C703 1.390 . S
C695 C694 1.387 . S
C695 C697 1.387 . S
H696 C703 0.950 . S
C697 C695 1.387 . S
C697 C699 1.390 . S
C697 H701 0.950 . S
H698 C694 0.950 . S
C699 C697 1.390 . S
C699 C700 1.387 . S
C699 H702 0.950 . S
C700 C699 1.387 . S
C700 C703 1.387 . S
H701 C697 0.950 . S
H702 C699 0.950 . S
C703 C694 1.390 . S
C703 H696 0.950 . S
C703 C700 1.387 . S
C704 C705 1.387 . S
C704 H708 0.950 . S
C704 C713 1.390 . S
C705 C704 1.387 . S
C705 C707 1.387 . S
H706 C713 0.950 . S
C707 C705 1.387 . S
C707 C709 1.390 . S
C707 H711 0.950 . S
H708 C704 0.950 . S
C709 C707 1.390 . S
C709 C710 1.387 . S
C709 H712 0.950 . S
C710 C709 1.387 . S
C710 C713 1.387 . S
H711 C707 0.950 . S
H712 C709 0.950 . S
C713 C704 1.390 . S
C713 H706 0.950 . S
C713 C710 1.387 . S
C714 C715 1.387 . S
C714 H718 0.950 . S
C714 C723 1.390 . S
C715 C714 1.387 . S
C715 C717 1.387 . S
H716 C723 0.950 . S
C717 C715 1.387 . S
C717 C719 1.390 . S
C717 H721 0.950 . S
H718 C714 0.950 . S
C719 C717 1.390 . S
C719 C720 1.387 . S
C719 H722 0.950 . S
C720 C719 1.387 . S
C720 C723 1.387 . S
H721 C717 0.950 . S
H722 C719 0.950 . S
C723 C714 1.390 . S
C723 H716 0.950 . S
C723 C720 1.387 . S
C724 C725 1.387 . S
C724 H728 0.950 . S
C724 C733 1.390 . S
C725 C724 1.387 . S
C725 C727 1.387 . S
H726 C733 0.950 . S
C727 C725 1.387 . S
C727 C729 1.390 . S
C727 H731 0.950 . S
H728 C724 0.950 . S
C729 C727 1.390 . S
C729 C730 1.387 . S
C729 H732 0.950 . S
C730 C729 1.387 . S
C730 C733 1.387 . S
H731 C727 0.950 . S
H732 C729 0.950 . S
C733 C724 1.390 . S
C733 H726 0.950 . S
C733 C730 1.387 . S
C734 C735 1.387 . S
C734 H738 0.950 . S
C734 C743 1.390 . S
C735 C734 1.387 . S
C735 C737 1.387 . S
H736 C743 0.950 . S
C737 C735 1.387 . S
C737 C739 1.390 . S
C737 H741 0.950 . S
H738 C734 0.950 . S
C739 C737 1.390 . S
C739 C740 1.387 . S
C739 H742 0.950 . S
C740 C739 1.387 . S
C740 C743 1.387 . S
H741 C737 0.950 . S
H742 C739 0.950 . S
C743 C734 1.390 . S
C743 H736 0.950 . S
C743 C740 1.387 . S
C744 C745 1.387 . S
C744 H748 0.950 . S
C744 C753 1.390 1_655 S
C745 C744 1.387 . S
C745 C747 1.387 1_554 S
H746 C753 0.950 . S
C747 C745 1.387 1_556 S
C747 C749 1.390 1_655 S
C747 H751 0.950 . S
H748 C744 0.950 . S
C749 C747 1.390 1_455 S
C749 C750 1.387 . S
C749 H752 0.950 . S
C750 C749 1.387 . S
C750 C753 1.387 1_556 S
H751 C747 0.950 . S
H752 C749 0.950 . S
C753 C744 1.390 1_455 S
C753 H746 0.950 . S
C753 C750 1.387 1_554 S
C754 C755 1.387 . S
C754 H758 0.950 . S
C754 C763 1.390 . S
C755 C754 1.387 . S
C755 C757 1.387 1_556 S
H756 C763 0.950 . S
C757 C755 1.387 1_554 S
C757 C759 1.390 . S
C757 H761 0.950 . S
H758 C754 0.950 . S
C759 C757 1.390 . S
C759 C760 1.387 . S
C759 H762 0.950 . S
C760 C759 1.387 . S
C760 C763 1.387 1_554 S
H761 C757 0.950 . S
H762 C759 0.950 . S
C763 C754 1.390 . S
C763 H756 0.950 . S
C763 C760 1.387 1_556 S
C764 C765 1.387 . S
C764 H768 0.950 . S
C764 C773 1.390 1_544 S
C765 C764 1.387 . S
C765 C767 1.387 . S
H766 C773 0.950 . S
C767 C765 1.387 . S
C767 C769 1.390 1_544 S
C767 H771 0.950 . S
H768 C764 0.950 . S
C769 C767 1.390 1_566 S
C769 C770 1.387 . S
C769 H772 0.950 . S
C770 C769 1.387 . S
C770 C773 1.387 . S
H771 C767 0.950 . S
H772 C769 0.950 . S
C773 C764 1.390 1_566 S
C773 H766 0.950 . S
C773 C770 1.387 . S
C774 C775 1.387 . S
C774 H778 0.950 . S
C774 C783 1.390 1_454 S
C775 C774 1.387 . S
C775 C777 1.387 . S
H776 C783 0.950 . S
C777 C775 1.387 . S
C777 C779 1.390 1_454 S
C777 H781 0.950 . S
H778 C774 0.950 . S
C779 C777 1.390 1_656 S
C779 C780 1.387 . S
C779 H782 0.950 . S
C780 C779 1.387 . S
C780 C783 1.387 . S
H781 C777 0.950 . S
H782 C779 0.950 . S
C783 C774 1.390 1_656 S
C783 H776 0.950 . S
C783 C780 1.387 . S
C784 C785 1.387 1_554 S
C784 H788 0.950 . S
C784 C793 1.390 . S
C785 C784 1.387 1_556 S
C785 C787 1.387 . S
H786 C793 0.950 . S
C787 C785 1.387 . S
C787 C789 1.390 . S
C787 H791 0.950 . S
H788 C784 0.950 . S
C789 C787 1.390 . S
C789 C790 1.387 1_556 S
C789 H792 0.950 . S
C790 C789 1.387 1_554 S
C790 C793 1.387 . S
H791 C787 0.950 . S
H792 C789 0.950 . S
C793 C784 1.390 . S
C793 H786 0.950 . S
C793 C790 1.387 . S
C794 C795 1.387 . S
C794 H798 0.950 . S
C794 C803 1.390 1_546 S
C795 C794 1.387 . S
C795 C797 1.387 . S
H796 C803 0.950 . S
C797 C795 1.387 . S
C797 C799 1.390 1_546 S
C797 H801 0.950 . S
H798 C794 0.950 . S
C799 C797 1.390 1_564 S
C799 C800 1.387 . S
C799 H802 0.950 . S
C800 C799 1.387 . S
C800 C803 1.387 . S
H801 C797 0.950 . S
H802 C799 0.950 . S
C803 C794 1.390 1_564 S
C803 H796 0.950 . S
C803 C800 1.387 . S
C804 C805 1.387 . S
C804 H808 0.950 . S
C804 C813 1.390 . S
C805 C804 1.387 . S
C805 C807 1.387 . S
H806 C813 0.950 . S
C807 C805 1.387 . S
C807 C809 1.390 . S
C807 H811 0.950 . S
H808 C804 0.950 . S
C809 C807 1.390 . S
C809 C810 1.387 . S
C809 H812 0.950 . S
C810 C809 1.387 . S
C810 C813 1.387 . S
H811 C807 0.950 . S
H812 C809 0.950 . S
C813 C804 1.390 . S
C813 H806 0.950 . S
C813 C810 1.387 . S
C814 C815 1.387 . S
C814 H818 0.950 . S
C814 C823 1.390 . S
C815 C814 1.387 . S
C815 C817 1.387 . S
H816 C823 0.950 . S
C817 C815 1.387 . S
C817 C819 1.390 . S
C817 H821 0.950 . S
H818 C814 0.950 . S
C819 C817 1.390 . S
C819 C820 1.387 . S
C819 H822 0.950 . S
C820 C819 1.387 . S
C820 C823 1.387 . S
H821 C817 0.950 . S
H822 C819 0.950 . S
C823 C814 1.390 . S
C823 H816 0.950 . S
C823 C820 1.387 . S
C824 C825 1.387 . S
C824 H828 0.950 . S
C824 C833 1.390 . S
C825 C824 1.387 . S
C825 C827 1.387 . S
H826 C833 0.950 . S
C827 C825 1.387 . S
C827 C829 1.390 . S
C827 H831 0.950 . S
H828 C824 0.950 . S
C829 C827 1.390 . S
C829 C830 1.387 . S
C829 H832 0.950 . S
C830 C829 1.387 . S
C830 C833 1.387 . S
H831 C827 0.950 . S
H832 C829 0.950 . S
C833 C824 1.390 . S
C833 H826 0.950 . S
C833 C830 1.387 . S
C834 C835 1.387 . S
C834 H838 0.950 . S
C834 C843 1.390 . S
C835 C834 1.387 . S
C835 C837 1.387 . S
H836 C843 0.950 . S
C837 C835 1.387 . S
C837 C839 1.390 . S
C837 H841 0.950 . S
H838 C834 0.950 . S
C839 C837 1.390 . S
C839 C840 1.387 . S
C839 H842 0.950 . S
C840 C839 1.387 . S
C840 C843 1.387 . S
H841 C837 0.950 . S
H842 C839 0.950 . S
C843 C834 1.390 . S
C843 H836 0.950 . S
C843 C840 1.387 . S
C844 C845 1.387 . S
C844 H848 0.950 . S
C844 C853 1.390 . S
C845 C844 1.387 . S
C845 C847 1.387 . S
H846 C853 0.950 . S
C847 C845 1.387 . S
C847 C849 1.390 . S
C847 H851 0.950 . S
H848 C844 0.950 . S
C849 C847 1.390 . S
C849 C850 1.387 . S
C849 H852 0.950 . S
C850 C849 1.387 . S
C850 C853 1.387 . S
H851 C847 0.950 . S
H852 C849 0.950 . S
C853 C844 1.390 . S
C853 H846 0.950 . S
C853 C850 1.387 . S
C854 C855 1.387 . S
C854 H858 0.950 . S
C854 C863 1.390 . S
C855 C854 1.387 . S
C855 C857 1.387 . S
H856 C863 0.950 . S
C857 C855 1.387 . S
C857 C859 1.390 . S
C857 H861 0.950 . S
H858 C854 0.950 . S
C859 C857 1.390 . S
C859 C860 1.387 . S
C859 H862 0.950 . S
C860 C859 1.387 . S
C860 C863 1.387 . S
H861 C857 0.950 . S
H862 C859 0.950 . S
C863 C854 1.390 . S
C863 H856 0.950 . S
C863 C860 1.387 . S
C864 C865 1.387 . S
C864 H868 0.950 . S
C864 C873 1.390 . S
C865 C864 1.387 . S
C865 C867 1.387 . S
H866 C873 0.950 . S
C867 C865 1.387 . S
C867 C869 1.390 . S
C867 H871 0.950 . S
H868 C864 0.950 . S
C869 C867 1.390 . S
C869 C870 1.387 . S
C869 H872 0.950 . S
C870 C869 1.387 . S
C870 C873 1.387 . S
H871 C867 0.950 . S
H872 C869 0.950 . S
C873 C864 1.390 . S
C873 H866 0.950 . S
C873 C870 1.387 . S
C874 C875 1.387 . S
C874 H878 0.950 . S
C874 C883 1.390 . S
C875 C874 1.387 . S
C875 C877 1.387 . S
H876 C883 0.950 1_565 S
C877 C875 1.387 . S
C877 C879 1.390 . S
C877 H881 0.950 . S
H878 C874 0.950 . S
C879 C877 1.390 . S
C879 C880 1.387 1_545 S
C879 H882 0.950 . S
C880 C879 1.387 1_565 S
C880 C883 1.387 1_565 S
H881 C877 0.950 . S
H882 C879 0.950 . S
C883 C874 1.390 . S
C883 H876 0.950 1_545 S
C883 C880 1.387 1_545 S
C884 C885 1.387 . S
C884 H888 0.950 . S
C884 C893 1.390 . S
C885 C884 1.387 . S
C885 C887 1.387 . S
H886 C893 0.950 . S
C887 C885 1.387 . S
C887 C889 1.390 . S
C887 H891 0.950 . S
H888 C884 0.950 . S
C889 C887 1.390 . S
C889 C890 1.387 1_655 S
C889 H892 0.950 1_655 S
C890 C889 1.387 1_455 S
C890 C893 1.387 1_455 S
H891 C887 0.950 . S
H892 C889 0.950 1_455 S
C893 C884 1.390 . S
C893 H886 0.950 . S
C893 C890 1.387 1_655 S
C894 C895 1.387 . S
C894 H898 0.950 . S
C894 C903 1.390 . S
C895 C894 1.387 . S
C895 C897 1.387 . S
H896 C903 0.950 . S
C897 C895 1.387 . S
C897 C899 1.390 . S
C897 H901 0.950 . S
H898 C894 0.950 . S
C899 C897 1.390 . S
C899 C900 1.387 . S
C899 H902 0.950 . S
C900 C899 1.387 . S
C900 C903 1.387 . S
H901 C897 0.950 . S
H902 C899 0.950 . S
C903 C894 1.390 . S
C903 H896 0.950 . S
C903 C900 1.387 . S
C904 C905 1.387 1_565 S
C904 H908 0.957 . S
C904 C913 1.390 . S
C905 C904 1.387 1_545 S
C905 C907 1.387 1_545 S
H906 C913 0.950 . S
C907 C905 1.387 1_565 S
C907 C909 1.390 . S
C907 H911 0.950 . S
H908 C904 0.957 . S
C909 C907 1.390 . S
C909 C910 1.387 . S
C909 H912 0.950 . S
C910 C909 1.387 . S
C910 C913 1.387 . S
H911 C907 0.950 . S
H912 C909 0.950 . S
C913 C904 1.390 . S
C913 H906 0.950 . S
C913 C910 1.387 . S
C914 C915 1.387 . S
C914 H918 0.950 . S
C914 C923 1.390 . S
C915 C914 1.387 . S
C915 C917 1.387 . S
H916 C923 0.950 . S
C917 C915 1.387 . S
C917 C919 1.390 . S
C917 H921 0.950 . S
H918 C914 0.950 . S
C919 C917 1.390 . S
C919 C920 1.387 1_455 S
C919 H922 0.950 1_455 S
C920 C919 1.387 1_655 S
C920 C923 1.387 1_655 S
H921 C917 0.950 . S
H922 C919 0.950 1_655 S
C923 C914 1.390 . S
C923 H916 0.950 . S
C923 C920 1.387 1_455 S
C924 C925 1.387 . S
C924 H928 0.950 . S
C924 C933 1.390 . S
C925 C924 1.387 . S
C925 C927 1.387 . S
H926 C933 0.950 . S
C927 C925 1.387 . S
C927 C929 1.390 . S
C927 H931 0.950 . S
H928 C924 0.950 . S
C929 C927 1.390 . S
C929 C930 1.387 . S
C929 H932 0.950 . S
C930 C929 1.387 . S
C930 C933 1.387 . S
H931 C927 0.950 . S
H932 C929 0.950 . S
C933 C924 1.390 . S
C933 H926 0.950 . S
C933 C930 1.387 . S
C934 C935 1.387 . S
C934 H938 0.950 . S
C934 C943 1.390 . S
C935 C934 1.387 . S
C935 C937 1.387 . S
H936 C943 0.950 . S
C937 C935 1.387 . S
C937 C939 1.390 . S
C937 H941 0.950 . S
H938 C934 0.950 . S
C939 C937 1.390 . S
C939 C940 1.387 . S
C939 H942 0.950 . S
C940 C939 1.387 . S
C940 C943 1.387 . S
H941 C937 0.950 . S
H942 C939 0.950 . S
C943 C934 1.390 . S
C943 H936 0.950 . S
C943 C940 1.387 . S
C944 C945 1.387 . S
C944 H948 0.950 . S
C944 C953 1.390 . S
C945 C944 1.387 . S
C945 C947 1.387 . S
H946 C953 0.950 . S
C947 C945 1.387 . S
C947 C949 1.390 . S
C947 H951 0.950 . S
H948 C944 0.950 . S
C949 C947 1.390 . S
C949 C950 1.387 . S
C949 H952 0.950 . S
C950 C949 1.387 . S
C950 C953 1.387 . S
H951 C947 0.950 . S
H952 C949 0.950 . S
C953 C944 1.390 . S
C953 H946 0.950 . S
C953 C950 1.387 . S
C954 C955 1.387 . S
C954 H958 0.950 . S
C954 C963 1.390 . S
C955 C954 1.387 . S
C955 C957 1.387 . S
H956 C963 0.950 . S
C957 C955 1.387 . S
C957 C959 1.390 . S
C957 H961 0.950 . S
H958 C954 0.950 . S
C959 C957 1.390 . S
C959 C960 1.387 . S
C959 H962 0.950 . S
C960 C959 1.387 . S
C960 C963 1.387 . S
H961 C957 0.950 . S
H962 C959 0.950 . S
C963 C954 1.390 . S
C963 H956 0.950 . S
C963 C960 1.387 . S
C964 C965 1.387 . S
C964 H968 0.950 . S
C964 C973 1.390 . S
C965 C964 1.387 . S
C965 C967 1.387 . S
H966 C973 0.950 . S
C967 C965 1.387 . S
C967 C969 1.390 . S
C967 H971 0.950 . S
H968 C964 0.950 . S
C969 C967 1.390 . S
C969 C970 1.387 . S
C969 H972 0.950 . S
C970 C969 1.387 . S
C970 C973 1.387 . S
H971 C967 0.950 . S
H972 C969 0.950 . S
C973 C964 1.390 . S
C973 H966 0.950 . S
C973 C970 1.387 . S
C974 C975 1.387 . S
C974 H978 0.950 . S
C974 C983 1.390 . S
C975 C974 1.387 . S
C975 C977 1.387 . S
H976 C983 0.950 . S
C977 C975 1.387 . S
C977 C979 1.390 . S
C977 H981 0.950 . S
H978 C974 0.950 . S
C979 C977 1.390 . S
C979 C980 1.387 . S
C979 H982 0.950 . S
C980 C979 1.387 . S
C980 C983 1.387 . S
H981 C977 0.950 . S
H982 C979 0.950 . S
C983 C974 1.390 . S
C983 H976 0.950 . S
C983 C980 1.387 . S
C984 C985 1.387 . S
C984 H988 0.950 . S
C984 C993 1.390 . S
C985 C984 1.387 . S
C985 C987 1.387 . S
H986 C993 0.950 . S
C987 C985 1.387 . S
C987 C989 1.390 . S
C987 H991 0.950 . S
H988 C984 0.950 . S
C989 C987 1.390 . S
C989 C990 1.387 . S
C989 H992 0.950 . S
C990 C989 1.387 . S
C990 C993 1.387 . S
H991 C987 0.950 . S
H992 C989 0.950 . S
C993 C984 1.390 . S
C993 H986 0.950 . S
C993 C990 1.387 . S
C994 C995 1.387 . S
C994 H998 0.950 . S
C994 C1003 1.390 . S
C995 C994 1.387 . S
C995 C997 1.387 . S
H996 C1003 0.950 . S
C997 C995 1.387 . S
C997 C999 1.390 . S
C997 H1001 0.950 . S
H998 C994 0.950 . S
C999 C997 1.390 . S
C999 C1000 1.387 . S
C999 H1002 0.950 . S
C1000 C999 1.387 . S
C1000 C1003 1.387 . S
H1001 C997 0.950 . S
H1002 C999 0.950 . S
C1003 C994 1.390 . S
C1003 H996 0.950 . S
C1003 C1000 1.387 . S
C1004 C1005 1.387 . S
C1004 H1008 0.950 . S
C1004 C1013 1.390 . S
C1005 C1004 1.387 . S
C1005 C1007 1.387 . S
H1006 C1013 0.950 . S
C1007 C1005 1.387 . S
C1007 C1009 1.390 . S
C1007 H1011 0.950 . S
H1008 C1004 0.950 . S
C1009 C1007 1.390 . S
C1009 C1010 1.387 . S
C1009 H1012 0.950 . S
C1010 C1009 1.387 . S
C1010 C1013 1.387 . S
H1011 C1007 0.950 . S
H1012 C1009 0.950 . S
C1013 C1004 1.390 . S
C1013 H1006 0.950 . S
C1013 C1010 1.387 . S
C1014 C1015 1.387 . S
C1014 H1018 0.950 . S
C1014 C1023 1.390 . S
C1015 C1014 1.387 . S
C1015 C1017 1.387 . S
H1016 C1023 0.950 . S
C1017 C1015 1.387 . S
C1017 C1019 1.390 . S
C1017 H1021 0.950 . S
H1018 C1014 0.950 . S
C1019 C1017 1.390 . S
C1019 C1020 1.387 . S
C1019 H1022 0.950 . S
C1020 C1019 1.387 . S
C1020 C1023 1.387 . S
H1021 C1017 0.950 . S
H1022 C1019 0.950 . S
C1023 C1014 1.390 . S
C1023 H1016 0.950 . S
C1023 C1020 1.387 . S
C1024 C1025 1.387 . S
C1024 H1028 0.950 . S
C1024 C1033 1.390 . S
C1025 C1024 1.387 . S
C1025 C1027 1.387 . S
H1026 C1033 0.950 . S
C1027 C1025 1.387 . S
C1027 C1029 1.390 . S
C1027 H1031 0.950 . S
H1028 C1024 0.950 . S
C1029 C1027 1.390 . S
C1029 C1030 1.387 . S
C1029 H1032 0.950 . S
C1030 C1029 1.387 . S
C1030 C1033 1.387 . S
H1031 C1027 0.950 . S
H1032 C1029 0.950 . S
C1033 C1024 1.390 . S
C1033 H1026 0.950 . S
C1033 C1030 1.387 . S
C1034 C1035 1.387 . S
C1034 H1038 0.950 . S
C1034 C1043 1.390 . S
C1035 C1034 1.387 . S
C1035 C1037 1.387 . S
H1036 C1043 0.950 . S
C1037 C1035 1.387 . S
C1037 C1039 1.390 . S
C1037 H1041 0.950 . S
H1038 C1034 0.950 . S
C1039 C1037 1.390 . S
C1039 C1040 1.387 . S
C1039 H1042 0.950 . S
C1040 C1039 1.387 . S
C1040 C1043 1.387 . S
H1041 C1037 0.950 . S
H1042 C1039 0.950 . S
C1043 C1034 1.390 . S
C1043 H1036 0.950 . S
C1043 C1040 1.387 . S
C595 N310 1.360 . S
C600 N13 1.359 . S
C605 N343 1.354 . S
C610 N46 1.354 . S
C615 N376 1.360 . S
C620 N79 1.360 . S
C625 N112 1.360 . S
C630 N409 1.359 . S
C635 N442 1.360 . S
C640 N145 1.360 . S
C645 N475 1.354 . S
C650 N178 1.354 . S
C655 N211 1.355 . S
C660 N508 1.354 . S
C665 N541 1.360 . S
C670 N244 1.360 . S
C675 N574 1.358 . S
C680 N277 1.359 . S
C685 C579 1.889 . S
C690 C18 1.889 . S
C695 C513 1.890 . S
C700 C51 1.890 . S
C705 C84 1.890 . S
C710 C546 1.890 . S
C715 C249 1.889 . S
C720 C117 1.890 . S
C725 C282 1.890 . S
C730 C150 1.890 . S
C735 C183 1.889 . S
C740 C216 1.889 . S
C745 C315 1.890 . S
C750 C447 1.889 . S
C755 C480 1.890 . S
C760 C348 1.889 . S
C765 C381 1.889 . S
C770 C414 1.889 . S
C775 C21 1.486 . S
C780 C153 1.486 . S
C785 C186 1.485 . S
C790 C54 1.485 . S
C795 C120 1.486 . S
C800 C87 1.486 . S
C805 C351 1.482 . S
C810 C219 1.482 . S
C815 C252 1.482 . S
C820 C384 1.482 . S
C825 C318 1.486 . S
C830 C285 1.486 . S
C835 C417 1.482 . S
C840 C549 1.482 . S
C845 C582 1.482 . S
C850 C450 1.482 . S
C855 C483 1.487 . S
C860 C516 1.487 . S
C865 C73 1.212 . S
C870 N2 1.249 . S
C875 C7 1.212 . S
C880 N35 1.249 . S
C885 C40 1.213 . S
C890 N68 1.250 . S
C895 C139 1.211 . S
C900 N101 1.249 . S
C905 N134 1.249 . S
C910 C172 1.212 . S
C915 C106 1.213 . S
C920 N167 1.250 . S
C925 C271 1.213 . S
C930 N200 1.249 . S
C935 C205 1.213 . S
C940 N233 1.250 . S
C945 N266 1.250 . S
C950 C238 1.213 . S
C955 N299 1.249 . S
C960 C337 1.211 . S
C965 C370 1.213 . S
C970 N332 1.250 . S
C975 C304 1.213 . S
C980 N365 1.250 . S
C985 N398 1.250 . S
C990 C469 1.213 . S
C995 C403 1.211 . S
C1000 N431 1.249 . S
C1005 C436 1.211 . S
C1010 N464 1.249 . S
C1015 C535 1.211 . S
C1020 N497 1.249 . S
C1025 C568 1.213 . S
C1030 N530 1.250 . S
C1035 C502 1.213 . S
C1040 N563 1.250 . S
