# Generated by pormake.
# Topology zfp, (5)-cn, num edge types: 1
# Building blocks:
#     Node 0, Type 0, BuildingBlock: XOMCOT_clean_sbu_1, # of connection points: 5
#     Node 1, Type 0, BuildingBlock: XOMCOT_clean_sbu_1, # of connection points: 5
#     Node 2, Type 0, BuildingBlock: XOMCOT_clean_sbu_1, # of connection points: 5
#     Node 3, Type 0, BuildingBlock: XOMCOT_clean_sbu_1, # of connection points: 5
#     Node 4, Type 0, BuildingBlock: XOMCOT_clean_sbu_1, # of connection points: 5
#     Node 5, Type 0, BuildingBlock: XOMCOT_clean_sbu_1, # of connection points: 5
#     Node 6, Type 0, BuildingBlock: XOMCOT_clean_sbu_1, # of connection points: 5
#     Node 7, Type 0, BuildingBlock: XOMCOT_clean_sbu_1, # of connection points: 5
#     Node 8, Type 0, BuildingBlock: XOMCOT_clean_sbu_1, # of connection points: 5
#     Node 9, Type 0, BuildingBlock: XOMCOT_clean_sbu_1, # of connection points: 5
#     Node 10, Type 0, BuildingBlock: XOMCOT_clean_sbu_1, # of connection points: 5
#     Node 11, Type 0, BuildingBlock: XOMCOT_clean_sbu_1, # of connection points: 5
#     Node 12, Type 0, BuildingBlock: XOMCOT_clean_sbu_1, # of connection points: 5
#     Node 13, Type 0, BuildingBlock: XOMCOT_clean_sbu_1, # of connection points: 5
#     Node 14, Type 0, BuildingBlock: XOMCOT_clean_sbu_1, # of connection points: 5
#     Node 15, Type 0, BuildingBlock: XOMCOT_clean_sbu_1, # of connection points: 5
#     Edge 16, Type (0, 0), BuildingBlock: OJICUG_clean_linker_0, # of connection points: 2
#     Edge 17, Type (0, 0), BuildingBlock: OJICUG_clean_linker_0, # of connection points: 2
#     Edge 18, Type (0, 0), BuildingBlock: OJICUG_clean_linker_0, # of connection points: 2
#     Edge 19, Type (0, 0), BuildingBlock: OJICUG_clean_linker_0, # of connection points: 2
#     Edge 20, Type (0, 0), BuildingBlock: OJICUG_clean_linker_0, # of connection points: 2
#     Edge 21, Type (0, 0), BuildingBlock: OJICUG_clean_linker_0, # of connection points: 2
#     Edge 22, Type (0, 0), BuildingBlock: OJICUG_clean_linker_0, # of connection points: 2
#     Edge 23, Type (0, 0), BuildingBlock: OJICUG_clean_linker_0, # of connection points: 2
#     Edge 24, Type (0, 0), BuildingBlock: OJICUG_clean_linker_0, # of connection points: 2
#     Edge 25, Type (0, 0), BuildingBlock: OJICUG_clean_linker_0, # of connection points: 2
#     Edge 26, Type (0, 0), BuildingBlock: OJICUG_clean_linker_0, # of connection points: 2
#     Edge 27, Type (0, 0), BuildingBlock: OJICUG_clean_linker_0, # of connection points: 2
#     Edge 28, Type (0, 0), BuildingBlock: OJICUG_clean_linker_0, # of connection points: 2
#     Edge 29, Type (0, 0), BuildingBlock: OJICUG_clean_linker_0, # of connection points: 2
#     Edge 30, Type (0, 0), BuildingBlock: OJICUG_clean_linker_0, # of connection points: 2
#     Edge 31, Type (0, 0), BuildingBlock: OJICUG_clean_linker_0, # of connection points: 2
#     Edge 32, Type (0, 0), BuildingBlock: OJICUG_clean_linker_0, # of connection points: 2
#     Edge 33, Type (0, 0), BuildingBlock: OJICUG_clean_linker_0, # of connection points: 2
#     Edge 34, Type (0, 0), BuildingBlock: OJICUG_clean_linker_0, # of connection points: 2
#     Edge 35, Type (0, 0), BuildingBlock: OJICUG_clean_linker_0, # of connection points: 2
#     Edge 36, Type (0, 0), BuildingBlock: OJICUG_clean_linker_0, # of connection points: 2
#     Edge 37, Type (0, 0), BuildingBlock: OJICUG_clean_linker_0, # of connection points: 2
#     Edge 38, Type (0, 0), BuildingBlock: OJICUG_clean_linker_0, # of connection points: 2
#     Edge 39, Type (0, 0), BuildingBlock: OJICUG_clean_linker_0, # of connection points: 2
#     Edge 40, Type (0, 0), BuildingBlock: OJICUG_clean_linker_0, # of connection points: 2
#     Edge 41, Type (0, 0), BuildingBlock: OJICUG_clean_linker_0, # of connection points: 2
#     Edge 42, Type (0, 0), BuildingBlock: OJICUG_clean_linker_0, # of connection points: 2
#     Edge 43, Type (0, 0), BuildingBlock: OJICUG_clean_linker_0, # of connection points: 2
#     Edge 44, Type (0, 0), BuildingBlock: OJICUG_clean_linker_0, # of connection points: 2
#     Edge 45, Type (0, 0), BuildingBlock: OJICUG_clean_linker_0, # of connection points: 2
#     Edge 46, Type (0, 0), BuildingBlock: OJICUG_clean_linker_0, # of connection points: 2
#     Edge 47, Type (0, 0), BuildingBlock: OJICUG_clean_linker_0, # of connection points: 2
#     Edge 48, Type (0, 0), BuildingBlock: OJICUG_clean_linker_0, # of connection points: 2
#     Edge 49, Type (0, 0), BuildingBlock: OJICUG_clean_linker_0, # of connection points: 2
#     Edge 50, Type (0, 0), BuildingBlock: OJICUG_clean_linker_0, # of connection points: 2
#     Edge 51, Type (0, 0), BuildingBlock: OJICUG_clean_linker_0, # of connection points: 2
#     Edge 52, Type (0, 0), BuildingBlock: OJICUG_clean_linker_0, # of connection points: 2
#     Edge 53, Type (0, 0), BuildingBlock: OJICUG_clean_linker_0, # of connection points: 2
#     Edge 54, Type (0, 0), BuildingBlock: OJICUG_clean_linker_0, # of connection points: 2
#     Edge 55, Type (0, 0), BuildingBlock: OJICUG_clean_linker_0, # of connection points: 2
# Relax obj value: 0.311
# Max RMSD: 0.224
# Mean RMSD: 0.224
data_MOF--net-zfp--node1-XOMCOT_clean_sbu_1--edge1-OJICUG_clean_linker_0
_symmetry_space_group_name_H-M    P1
_symmetry_Int_Tables_number       1
_symmetry_cell_setting            triclinic
loop_
_symmetry_equiv_pos_as_xyz
'x, y, z'
_cell_length_a     22.552499
_cell_length_b     22.51818
_cell_length_c     53.468534
_cell_angle_alpha  90.063672
_cell_angle_beta   90.208902
_cell_angle_gamma 90.053396
loop_
_atom_site_label
_atom_site_type_symbol
_atom_site_fract_x
_atom_site_fract_y
_atom_site_fract_z
_atom_type_partial_charge
C0 C 0.15741 0.15758 0.12019 0.0
C1 C 0.16071 0.13873 0.0959 0.0
N2 N 0.1694 0.18635 0.08115 0.0
N3 N 0.16374 0.21694 0.12123 0.0
C4 C 0.17261 0.23328 0.09701 0.0
H5 H 0.14974 0.12973 0.13633 0.0
Co6 Co 0.15704 0.24794 0.15381 0.0
C7 C 0.02916 0.26834 0.16295 0.0
O8 O 0.04733 0.31584 0.17507 0.0
N9 N 0.15262 0.26899 0.18815 0.0
C10 C 0.12891 0.24912 0.22773 0.0
C11 C 0.11853 0.23517 0.20326 0.0
C12 C 0.18709 0.30019 0.20446 0.0
N13 N 0.17214 0.29012 0.22866 0.0
O14 O 0.24311 0.2639 0.15478 0.0
H15 H 0.09026 0.1993 0.19701 0.0
H16 H 0.22533 0.32594 0.19899 0.0
O17 O 0.06797 0.23302 0.15323 0.0
C18 C 0.27824 0.29516 0.14132 0.0
O19 O 0.25768 0.32266 0.12147 0.0
N20 N 0.1398 0.32623 0.14162 0.0
C21 C 0.08015 0.4322 0.13262 0.0
C22 C 0.06811 0.38217 0.11813 0.0
C23 C 0.09809 0.32981 0.12297 0.0
C24 C 0.15811 0.37707 0.15333 0.0
C25 C 0.12781 0.43054 0.14951 0.0
H26 H 0.08149 0.29053 0.11374 0.0
H27 H 0.19359 0.37621 0.16674 0.0
H28 H 0.17828 0.2787 0.09091 0.0
H29 H 0.15623 0.09326 0.08959 0.0
H30 H 0.10951 0.22694 0.24369 0.0
H31 H 0.03144 0.38142 0.10498 0.0
H32 H 0.1395 0.46924 0.16053 0.0
C33 C 0.8769 0.14302 0.61873 0.0
C34 C 0.89288 0.14725 0.59412 0.0
N35 N 0.84383 0.15737 0.58035 0.0
N36 N 0.81794 0.15022 0.62098 0.0
C37 C 0.79892 0.16003 0.59711 0.0
H38 H 0.90654 0.13473 0.63428 0.0
Co39 Co 0.7906 0.1444 0.65423 0.0
C40 C 0.76776 0.01672 0.66375 0.0
O41 O 0.72248 0.03608 0.67685 0.0
N42 N 0.77336 0.14042 0.68907 0.0
C43 C 0.79644 0.11501 0.72829 0.0
C44 C 0.80859 0.10598 0.70355 0.0
C45 C 0.74308 0.17368 0.70603 0.0
N46 N 0.75507 0.15762 0.73 0.0
O47 O 0.7764 0.2311 0.65523 0.0
H48 H 0.84358 0.07772 0.69659 0.0
H49 H 0.71605 0.21153 0.70122 0.0
O50 O 0.80312 0.05485 0.65355 0.0
C51 C 0.74443 0.26569 0.6417 0.0
O52 O 0.71593 0.24427 0.62225 0.0
N53 N 0.71095 0.12926 0.64351 0.0
C54 C 0.60081 0.07755 0.63509 0.0
C55 C 0.64929 0.0613 0.62055 0.0
C56 C 0.70377 0.08757 0.62505 0.0
C57 C 0.66216 0.15114 0.65545 0.0
C58 C 0.60658 0.12506 0.65184 0.0
H59 H 0.7414 0.06891 0.61544 0.0
H60 H 0.66592 0.18704 0.66854 0.0
H61 H 0.75304 0.16663 0.59189 0.0
H62 H 0.93751 0.14316 0.58695 0.0
H63 H 0.81923 0.09441 0.74387 0.0
H64 H 0.64675 0.02459 0.60747 0.0
H65 H 0.5692 0.13999 0.66285 0.0
C66 C 0.82198 0.88549 0.11166 0.0
C67 C 0.8194 0.89816 0.08661 0.0
N68 N 0.81308 0.84687 0.0739 0.0
N69 N 0.8176 0.82647 0.11516 0.0
C70 C 0.81156 0.80399 0.09164 0.0
H71 H 0.82774 0.9174 0.12661 0.0
Co72 Co 0.82122 0.80087 0.14874 0.0
C73 C 0.94802 0.7877 0.16149 0.0
O74 O 0.93037 0.74093 0.17414 0.0
N75 N 0.82246 0.78501 0.1837 0.0
C76 C 0.84367 0.81498 0.22254 0.0
C77 C 0.84954 0.82722 0.19768 0.0
C78 C 0.79643 0.74938 0.20111 0.0
N79 N 0.81039 0.7659 0.22485 0.0
O80 O 0.73602 0.78149 0.148 0.0
H81 H 0.87117 0.86615 0.19016 0.0
H82 H 0.76561 0.71409 0.19687 0.0
O83 O 0.90908 0.82019 0.1502 0.0
C84 C 0.70201 0.74983 0.13406 0.0
O85 O 0.72392 0.72139 0.11477 0.0
N86 N 0.84301 0.72195 0.13877 0.0
C87 C 0.90316 0.61546 0.13154 0.0
C88 C 0.91818 0.66555 0.1177 0.0
C89 C 0.88788 0.71804 0.12161 0.0
C90 C 0.82262 0.67134 0.14989 0.0
C91 C 0.85317 0.61761 0.14704 0.0
H92 H 0.90534 0.75707 0.11255 0.0
H93 H 0.78429 0.67245 0.16172 0.0
H94 H 0.80741 0.75721 0.08744 0.0
H95 H 0.82398 0.9418 0.07837 0.0
H96 H 0.86031 0.84184 0.23784 0.0
H97 H 0.95662 0.66591 0.10559 0.0
H98 H 0.83924 0.57886 0.15748 0.0
C99 C 0.13013 0.85043 0.6144 0.0
C100 C 0.11839 0.8478 0.58928 0.0
N101 N 0.16968 0.83831 0.57709 0.0
N102 N 0.18854 0.84288 0.61845 0.0
C103 C 0.21152 0.83422 0.59523 0.0
H104 H 0.09805 0.85828 0.62902 0.0
Co105 Co 0.21265 0.8475 0.65212 0.0
C106 C 0.23113 0.97503 0.66347 0.0
O107 O 0.27547 0.95641 0.67743 0.0
N108 N 0.22727 0.84986 0.68708 0.0
C109 C 0.20171 0.87065 0.72643 0.0
C110 C 0.19021 0.88168 0.70173 0.0
C111 C 0.25825 0.81638 0.70372 0.0
N112 N 0.24458 0.82941 0.72778 0.0
O113 O 0.22799 0.76119 0.65256 0.0
H114 H 0.15507 0.90997 0.69485 0.0
H115 H 0.28623 0.77951 0.69859 0.0
O116 O 0.19807 0.9365 0.65214 0.0
C117 C 0.26128 0.72641 0.6398 0.0
O118 O 0.29265 0.74766 0.62123 0.0
N119 N 0.29287 0.86504 0.64285 0.0
C120 C 0.40311 0.91735 0.63524 0.0
C121 C 0.35437 0.93488 0.62103 0.0
C122 C 0.29997 0.9084 0.62512 0.0
C123 C 0.34175 0.84272 0.65472 0.0
C124 C 0.39735 0.86906 0.65154 0.0
H125 H 0.2624 0.92737 0.61547 0.0
H126 H 0.33826 0.80576 0.66723 0.0
H127 H 0.25817 0.82802 0.59146 0.0
H128 H 0.07523 0.85306 0.58064 0.0
H129 H 0.17918 0.89071 0.74215 0.0
H130 H 0.35684 0.9723 0.60834 0.0
H131 H 0.43488 0.85329 0.66233 0.0
C132 C 0.66608 0.37479 0.93454 0.0
C133 C 0.66594 0.39052 0.95925 0.0
N134 N 0.66876 0.3408 0.97313 0.0
N135 N 0.66869 0.31532 0.93233 0.0
C136 C 0.67165 0.29558 0.9564 0.0
H137 H 0.66297 0.40495 0.91886 0.0
Co138 Co 0.66417 0.29038 0.89871 0.0
C139 C 0.53675 0.2718 0.88722 0.0
O140 O 0.55528 0.22795 0.87301 0.0
N141 N 0.66131 0.27573 0.86367 0.0
C142 C 0.63903 0.30523 0.82487 0.0
C143 C 0.63174 0.31637 0.84982 0.0
C144 C 0.68944 0.24213 0.84618 0.0
N145 N 0.67547 0.25847 0.82244 0.0
O146 O 0.75055 0.27561 0.89824 0.0
H147 H 0.60722 0.35334 0.8575 0.0
H148 H 0.7231 0.20965 0.85035 0.0
O149 O 0.57531 0.30445 0.89872 0.0
C150 C 0.78544 0.2455 0.91236 0.0
O151 O 0.76425 0.21882 0.93224 0.0
N152 N 0.64787 0.20993 0.90809 0.0
C153 C 0.59696 0.09834 0.91399 0.0
C154 C 0.57741 0.14617 0.92831 0.0
C155 C 0.6035 0.20132 0.92516 0.0
C156 C 0.67276 0.16181 0.89665 0.0
C157 C 0.64704 0.10557 0.89888 0.0
H158 H 0.58342 0.23827 0.9348 0.0
H159 H 0.71139 0.16655 0.88519 0.0
H160 H 0.67312 0.24925 0.96169 0.0
H161 H 0.66289 0.43533 0.9665 0.0
H162 H 0.61953 0.33041 0.80971 0.0
H163 H 0.53893 0.14244 0.94028 0.0
H164 H 0.66475 0.0687 0.88824 0.0
C165 C 0.79657 0.71961 0.44498 0.0
C166 C 0.79049 0.71683 0.47032 0.0
N167 N 0.74205 0.68451 0.47549 0.0
N168 N 0.75235 0.68896 0.43366 0.0
C169 C 0.71896 0.66864 0.45297 0.0
H170 H 0.83358 0.73983 0.43571 0.0
Co171 Co 0.74637 0.67751 0.39836 0.0
C172 C 0.7409 0.54822 0.38888 0.0
O173 O 0.77515 0.56055 0.36974 0.0
N174 N 0.73482 0.67097 0.36308 0.0
C175 C 0.68965 0.64896 0.32696 0.0
C176 C 0.68861 0.64184 0.35251 0.0
C177 C 0.76013 0.69949 0.34349 0.0
N178 N 0.73518 0.68502 0.3212 0.0
O179 O 0.76927 0.76211 0.39381 0.0
H180 H 0.65572 0.61691 0.36277 0.0
H181 H 0.79399 0.73308 0.34553 0.0
O182 O 0.72165 0.59118 0.4027 0.0
C183 C 0.81529 0.7957 0.39285 0.0
O184 O 0.86858 0.77287 0.39491 0.0
N185 N 0.82741 0.64769 0.39788 0.0
C186 C 0.93186 0.58038 0.39925 0.0
C187 C 0.88989 0.5754 0.41808 0.0
C188 C 0.83902 0.609 0.41714 0.0
C189 C 0.86892 0.65382 0.37937 0.0
C190 C 0.92153 0.62052 0.37971 0.0
H191 H 0.80678 0.59924 0.43135 0.0
H192 H 0.86238 0.68364 0.36406 0.0
H193 H 0.68026 0.6407 0.45061 0.0
H194 H 0.82035 0.7361 0.48401 0.0
H195 H 0.65911 0.62898 0.31376 0.0
H196 H 0.89473 0.54346 0.4331 0.0
H197 H 0.95343 0.62583 0.36479 0.0
C198 C 0.3818 0.6292 0.93462 0.0
C199 C 0.37844 0.62388 0.96022 0.0
N200 N 0.35838 0.67559 0.96955 0.0
N201 N 0.36418 0.68397 0.92766 0.0
C202 C 0.34917 0.71082 0.94941 0.0
H203 H 0.39734 0.59552 0.92179 0.0
Co204 Co 0.36586 0.70591 0.89365 0.0
C205 C 0.49245 0.72283 0.881 0.0
O206 O 0.47345 0.76604 0.86654 0.0
N207 N 0.36549 0.71827 0.85855 0.0
C208 C 0.3848 0.69132 0.81922 0.0
C209 C 0.39639 0.68037 0.84392 0.0
C210 C 0.33149 0.74879 0.84193 0.0
N211 N 0.34405 0.73464 0.81787 0.0
O212 O 0.27913 0.72267 0.89426 0.0
H213 H 0.42442 0.64503 0.85082 0.0
H214 H 0.29574 0.77805 0.84716 0.0
O215 O 0.45432 0.69041 0.89273 0.0
C216 C 0.24568 0.7613 0.90492 0.0
O217 O 0.26885 0.80076 0.92015 0.0
N218 N 0.38619 0.78682 0.90201 0.0
C219 C 0.44192 0.89616 0.90937 0.0
C220 C 0.45723 0.84744 0.92401 0.0
C221 C 0.42923 0.79356 0.92002 0.0
C222 C 0.36704 0.83575 0.88919 0.0
C223 C 0.39496 0.89077 0.89232 0.0
H224 H 0.44681 0.75595 0.93008 0.0
H225 H 0.33099 0.83291 0.87617 0.0
H226 H 0.33403 0.75608 0.95067 0.0
H227 H 0.39166 0.58561 0.97111 0.0
H228 H 0.40284 0.66708 0.8035 0.0
H229 H 0.49378 0.84954 0.9372 0.0
H230 H 0.38099 0.92828 0.88108 0.0
C231 C 0.39872 0.35514 0.43654 0.0
C232 C 0.40785 0.35654 0.46186 0.0
N233 N 0.35521 0.34979 0.47331 0.0
N234 N 0.34062 0.3478 0.43164 0.0
C235 C 0.31502 0.34366 0.45458 0.0
H236 H 0.43244 0.35984 0.42234 0.0
Co237 Co 0.32075 0.34683 0.39749 0.0
C238 C 0.3121 0.47404 0.38184 0.0
O239 O 0.27188 0.45666 0.36566 0.0
N240 N 0.30988 0.34303 0.36254 0.0
C241 C 0.34964 0.3286 0.32492 0.0
C242 C 0.36069 0.33288 0.35008 0.0
C243 C 0.268 0.34468 0.34419 0.0
N244 N 0.29114 0.33619 0.32108 0.0
O245 O 0.30333 0.26074 0.39908 0.0
H246 H 0.4035 0.32793 0.35902 0.0
H247 H 0.22178 0.35382 0.34737 0.0
O248 O 0.33905 0.43479 0.39525 0.0
C249 C 0.27038 0.22661 0.41231 0.0
O250 O 0.23893 0.249 0.43064 0.0
N251 N 0.24057 0.36694 0.40439 0.0
C252 C 0.13035 0.42143 0.40685 0.0
C253 C 0.17805 0.44331 0.42077 0.0
C254 C 0.23223 0.41513 0.41955 0.0
C255 C 0.19275 0.34034 0.39331 0.0
C256 C 0.13708 0.3678 0.39381 0.0
H257 H 0.26884 0.43574 0.42931 0.0
H258 H 0.1982 0.30008 0.38255 0.0
H259 H 0.26789 0.33871 0.45762 0.0
H260 H 0.4502 0.36222 0.47116 0.0
H261 H 0.38225 0.31886 0.31071 0.0
H262 H 0.17513 0.4845 0.43118 0.0
H263 H 0.10048 0.34854 0.38343 0.0
C264 C 0.8693 0.87378 0.93112 0.0
C265 C 0.85956 0.889 0.95559 0.0
N266 N 0.84282 0.83998 0.96809 0.0
N267 N 0.85896 0.81538 0.92783 0.0
C268 C 0.84275 0.79579 0.95089 0.0
H269 H 0.88242 0.90372 0.91633 0.0
Co270 Co 0.86412 0.78773 0.89461 0.0
C271 C 0.99142 0.76479 0.88478 0.0
O272 O 0.97175 0.71919 0.87181 0.0
N273 N 0.8669 0.76998 0.85984 0.0
C274 C 0.88842 0.79217 0.82019 0.0
C275 C 0.90135 0.80354 0.84474 0.0
C276 C 0.83021 0.74139 0.84355 0.0
N277 N 0.84341 0.75314 0.81932 0.0
O278 O 0.7774 0.77323 0.89397 0.0
H279 H 0.93227 0.83702 0.85114 0.0
H280 H 0.79125 0.71682 0.84911 0.0
O281 O 0.95361 0.80052 0.89496 0.0
C282 C 0.74302 0.73828 0.90618 0.0
O283 O 0.76469 0.70494 0.92411 0.0
N284 N 0.88012 0.7082 0.90532 0.0
C285 C 0.93522 0.59971 0.91379 0.0
C286 C 0.94873 0.64855 0.92877 0.0
C287 C 0.92085 0.70219 0.92425 0.0
C288 C 0.86101 0.65881 0.89277 0.0
C289 C 0.88871 0.60407 0.89646 0.0
H290 H 0.93787 0.74033 0.93417 0.0
H291 H 0.82632 0.6615 0.87906 0.0
H292 H 0.831 0.75043 0.95515 0.0
H293 H 0.86478 0.93285 0.96363 0.0
H294 H 0.90953 0.81266 0.80423 0.0
H295 H 0.98466 0.64716 0.94227 0.0
H296 H 0.87588 0.56636 0.88506 0.0
C297 C 0.15514 0.83863 0.43142 0.0
C298 C 0.13713 0.83549 0.45576 0.0
N299 N 0.18549 0.83094 0.47044 0.0
N300 N 0.21469 0.83638 0.43026 0.0
C301 C 0.23213 0.82995 0.45452 0.0
H302 H 0.12652 0.84384 0.4153 0.0
Co303 Co 0.24162 0.84508 0.39724 0.0
C304 C 0.26085 0.97401 0.3889 0.0
O305 O 0.30589 0.95635 0.37525 0.0
N306 N 0.25747 0.85148 0.36255 0.0
C307 C 0.22959 0.8777 0.32406 0.0
C308 C 0.22028 0.88594 0.34899 0.0
C309 C 0.28599 0.81877 0.34486 0.0
N310 N 0.27094 0.83543 0.32129 0.0
O311 O 0.25814 0.75878 0.39523 0.0
H312 H 0.18533 0.91307 0.35672 0.0
H313 H 0.31364 0.7808 0.34893 0.0
O314 O 0.22683 0.93455 0.39904 0.0
C315 C 0.29002 0.72397 0.40869 0.0
O316 O 0.31671 0.74485 0.42872 0.0
N317 N 0.3213 0.86204 0.40776 0.0
C318 C 0.42883 0.92027 0.41534 0.0
C319 C 0.38064 0.93202 0.43079 0.0
C320 C 0.32752 0.90279 0.42665 0.0
C321 C 0.37033 0.84422 0.39482 0.0
C322 C 0.4245 0.87383 0.39793 0.0
H323 H 0.28963 0.91924 0.43674 0.0
H324 H 0.36734 0.80965 0.38103 0.0
H325 H 0.27787 0.82779 0.46061 0.0
H326 H 0.09175 0.83781 0.46222 0.0
H327 H 0.20456 0.89819 0.30906 0.0
H328 H 0.38186 0.96786 0.44432 0.0
H329 H 0.46168 0.86246 0.38609 0.0
C330 C 0.16483 0.12986 0.93687 0.0
C331 C 0.16678 0.11827 0.96199 0.0
N332 N 0.1734 0.17002 0.97432 0.0
N333 N 0.16991 0.18865 0.93293 0.0
C334 C 0.17651 0.21206 0.95627 0.0
H335 H 0.15878 0.09739 0.92215 0.0
Co336 Co 0.1642 0.21136 0.89907 0.0
C337 C 0.03634 0.22908 0.88815 0.0
O338 O 0.05458 0.27252 0.87368 0.0
N339 N 0.16039 0.22423 0.86397 0.0
C340 C 0.13697 0.19462 0.82529 0.0
C341 C 0.12923 0.18438 0.85028 0.0
C342 C 0.19009 0.25606 0.8464 0.0
N343 N 0.17542 0.23976 0.82271 0.0
O344 O 0.2506 0.22668 0.89809 0.0
H345 H 0.10341 0.14842 0.85805 0.0
H346 H 0.2254 0.28691 0.85052 0.0
O347 O 0.07516 0.19676 0.89963 0.0
C348 C 0.28554 0.25921 0.91127 0.0
O349 O 0.26448 0.28928 0.9303 0.0
N350 N 0.14744 0.2921 0.9079 0.0
C351 C 0.09701 0.40348 0.91499 0.0
C352 C 0.07856 0.35534 0.92931 0.0
C353 C 0.10417 0.30038 0.9255 0.0
C354 C 0.17081 0.34035 0.89599 0.0
C355 C 0.14537 0.39652 0.89888 0.0
H356 H 0.08478 0.26336 0.93533 0.0
H357 H 0.20805 0.33586 0.88374 0.0
H358 H 0.1805 0.25902 0.96018 0.0
H359 H 0.16269 0.07491 0.97054 0.0
H360 H 0.11648 0.16981 0.81022 0.0
H361 H 0.04111 0.35868 0.94187 0.0
H362 H 0.1619 0.43355 0.88803 0.0
C363 C 0.88549 0.17664 0.43537 0.0
C364 C 0.8997 0.17535 0.4603 0.0
N365 N 0.84932 0.17938 0.47363 0.0
N366 N 0.82636 0.18119 0.43253 0.0
C367 C 0.80544 0.18436 0.45637 0.0
H368 H 0.91637 0.17288 0.42002 0.0
Co369 Co 0.79915 0.17848 0.39907 0.0
C370 C 0.78544 0.05168 0.38604 0.0
O371 O 0.73781 0.06944 0.37394 0.0
N372 N 0.78129 0.17824 0.36423 0.0
C373 C 0.80576 0.15946 0.32457 0.0
C374 C 0.81982 0.14965 0.34909 0.0
C375 C 0.74646 0.20907 0.34794 0.0
N376 N 0.75949 0.19683 0.3237 0.0
O377 O 0.7798 0.26358 0.40019 0.0
H378 H 0.85794 0.1248 0.3555 0.0
H379 H 0.71487 0.24255 0.35343 0.0
O380 O 0.8185 0.09057 0.39713 0.0
C381 C 0.75002 0.2979 0.41458 0.0
O382 O 0.7245 0.27643 0.43465 0.0
N383 N 0.72071 0.15625 0.40945 0.0
C384 C 0.61467 0.09519 0.4166 0.0
C385 C 0.66519 0.07967 0.43013 0.0
C386 C 0.71741 0.11048 0.42629 0.0
C387 C 0.66975 0.17702 0.3987 0.0
C388 C 0.61623 0.14609 0.40152 0.0
H389 H 0.75672 0.0926 0.43502 0.0
H390 H 0.67035 0.21581 0.38707 0.0
H391 H 0.75894 0.18677 0.46113 0.0
H392 H 0.94388 0.17058 0.46801 0.0
H393 H 0.8301 0.14311 0.30856 0.0
H394 H 0.66606 0.04054 0.44191 0.0
H395 H 0.57718 0.16048 0.39136 0.0
C396 C 0.2801 0.79765 0.10098 0.0
C397 C 0.28361 0.79111 0.07567 0.0
N398 N 0.31648 0.74286 0.07077 0.0
N399 N 0.31082 0.75389 0.1125 0.0
C400 C 0.33193 0.72034 0.09339 0.0
H401 H 0.25933 0.83464 0.11007 0.0
Co402 Co 0.32199 0.74785 0.14769 0.0
C403 C 0.45086 0.74374 0.15765 0.0
O404 O 0.43769 0.77819 0.17669 0.0
N405 N 0.32866 0.73579 0.18279 0.0
C406 C 0.35377 0.69162 0.21872 0.0
C407 C 0.35767 0.68915 0.19306 0.0
C408 C 0.30294 0.76247 0.20269 0.0
N409 N 0.31989 0.7385 0.22477 0.0
O410 O 0.23719 0.77009 0.15225 0.0
H411 H 0.38131 0.65575 0.18252 0.0
H412 H 0.26995 0.79696 0.20123 0.0
O413 O 0.40851 0.72394 0.14354 0.0
C414 C 0.20355 0.81611 0.15297 0.0
O415 O 0.22618 0.86946 0.15048 0.0
N416 N 0.35112 0.82947 0.14842 0.0
C417 C 0.41823 0.93434 0.14787 0.0
C418 C 0.42383 0.8925 0.1289 0.0
C419 C 0.39019 0.84145 0.12941 0.0
C420 C 0.34386 0.87128 0.16682 0.0
C421 C 0.37703 0.92398 0.16691 0.0
H422 H 0.40032 0.80929 0.11513 0.0
H423 H 0.31301 0.8652 0.18169 0.0
H424 H 0.36018 0.68198 0.09597 0.0
H425 H 0.26451 0.82056 0.06182 0.0
H426 H 0.37538 0.66208 0.23184 0.0
H427 H 0.45639 0.89741 0.11419 0.0
H428 H 0.37083 0.95594 0.18182 0.0
C429 C 0.37664 0.34771 0.61832 0.0
C430 C 0.39205 0.34798 0.5936 0.0
N431 N 0.34231 0.34335 0.57976 0.0
N432 N 0.31738 0.34325 0.62053 0.0
C433 C 0.2975 0.33922 0.59649 0.0
H434 H 0.4068 0.35212 0.63399 0.0
Co435 Co 0.29203 0.34782 0.65398 0.0
C436 C 0.27263 0.47541 0.66474 0.0
O437 O 0.22824 0.45695 0.67859 0.0
N438 N 0.27681 0.35079 0.68894 0.0
C439 C 0.30324 0.3747 0.72799 0.0
C440 C 0.3148 0.383 0.70315 0.0
C441 C 0.24515 0.31956 0.70611 0.0
N442 N 0.25928 0.33479 0.72998 0.0
O443 O 0.27728 0.26135 0.65449 0.0
H444 H 0.35085 0.40945 0.69588 0.0
H445 H 0.21531 0.28368 0.70156 0.0
O446 O 0.3059 0.43675 0.65377 0.0
C447 C 0.24657 0.22678 0.6404 0.0
O448 O 0.21936 0.24843 0.62068 0.0
N449 N 0.21176 0.36393 0.64422 0.0
C450 C 0.10027 0.41402 0.63718 0.0
C451 C 0.14827 0.4332 0.62298 0.0
C452 C 0.20338 0.40764 0.62674 0.0
C453 C 0.16359 0.33964 0.65579 0.0
C454 C 0.10741 0.36492 0.65295 0.0
H455 H 0.24039 0.4277 0.6172 0.0
H456 H 0.16821 0.30193 0.66785 0.0
H457 H 0.25125 0.33641 0.5912 0.0
H458 H 0.43656 0.35248 0.58632 0.0
H459 H 0.32781 0.39398 0.74342 0.0
H460 H 0.14462 0.4711 0.6106 0.0
H461 H 0.07046 0.34766 0.66361 0.0
C462 C 0.65429 0.40031 0.11646 0.0
C463 C 0.65525 0.40941 0.09115 0.0
N464 N 0.66177 0.35656 0.07969 0.0
N465 N 0.65989 0.342 0.12141 0.0
C466 C 0.66562 0.3163 0.09845 0.0
H467 H 0.6488 0.43419 0.13062 0.0
Co468 Co 0.65622 0.32239 0.15569 0.0
C469 C 0.52831 0.30994 0.16788 0.0
O470 O 0.54549 0.26756 0.18316 0.0
N471 N 0.65467 0.3121 0.19104 0.0
C472 C 0.63416 0.34267 0.22984 0.0
C473 C 0.6255 0.353 0.20485 0.0
C474 C 0.68434 0.27969 0.20851 0.0
N475 N 0.67125 0.29636 0.23227 0.0
O476 O 0.74203 0.30508 0.15595 0.0
H477 H 0.60003 0.38934 0.19714 0.0
H478 H 0.71845 0.24784 0.20422 0.0
O479 O 0.56785 0.33969 0.15575 0.0
C480 C 0.77563 0.27064 0.14317 0.0
O481 O 0.75288 0.23808 0.12516 0.0
N482 N 0.63641 0.24148 0.14829 0.0
C483 C 0.57965 0.13203 0.14447 0.0
C484 C 0.56189 0.17964 0.12956 0.0
C485 C 0.59116 0.23332 0.13149 0.0
C486 C 0.65897 0.19343 0.16066 0.0
C487 C 0.63052 0.13828 0.15938 0.0
H488 H 0.57282 0.27002 0.12107 0.0
H489 H 0.69815 0.19728 0.17195 0.0
H490 H 0.66961 0.26901 0.09537 0.0
H491 H 0.65089 0.45188 0.08185 0.0
H492 H 0.61498 0.36801 0.24498 0.0
H493 H 0.52278 0.17724 0.11779 0.0
H494 H 0.64718 0.10151 0.17038 0.0
C495 C 0.62994 0.62829 0.61258 0.0
C496 C 0.62432 0.63072 0.58696 0.0
N497 N 0.67655 0.64828 0.57736 0.0
N498 N 0.6854 0.64404 0.61936 0.0
C499 C 0.71247 0.65689 0.59741 0.0
H500 H 0.59589 0.61467 0.62557 0.0
Co501 Co 0.70718 0.64263 0.65352 0.0
C502 C 0.72354 0.516 0.66672 0.0
O503 O 0.76646 0.53519 0.68135 0.0
N504 N 0.71953 0.64318 0.68873 0.0
C505 C 0.69239 0.62378 0.72802 0.0
C506 C 0.68074 0.61322 0.70326 0.0
C507 C 0.75153 0.67558 0.70549 0.0
N508 N 0.73725 0.6629 0.72953 0.0
O509 O 0.72378 0.72938 0.65289 0.0
H510 H 0.64466 0.58624 0.69623 0.0
H511 H 0.78211 0.71032 0.70043 0.0
O512 O 0.69162 0.55404 0.65462 0.0
C513 C 0.76115 0.76327 0.64173 0.0
O514 O 0.7988 0.74061 0.62571 0.0
N515 N 0.78794 0.62265 0.64538 0.0
C516 C 0.89755 0.56783 0.63876 0.0
C517 C 0.84896 0.55083 0.62432 0.0
C518 C 0.79493 0.57853 0.62791 0.0
C519 C 0.8368 0.64375 0.65774 0.0
C520 C 0.89197 0.61624 0.65503 0.0
H521 H 0.75746 0.56013 0.61796 0.0
H522 H 0.83384 0.68123 0.66998 0.0
H523 H 0.75826 0.67015 0.59599 0.0
H524 H 0.58533 0.6186 0.57625 0.0
H525 H 0.66786 0.60594 0.74367 0.0
H526 H 0.85133 0.51332 0.61165 0.0
H527 H 0.92945 0.63168 0.66598 0.0
C528 C 0.16963 0.31039 0.27402 0.0
C529 C 0.20106 0.30996 0.25133 0.0
H530 H 0.17298 0.3179 0.31372 0.0
C531 C 0.26171 0.32407 0.25176 0.0
H532 H 0.12256 0.30099 0.27432 0.0
C533 C 0.29076 0.33497 0.27452 0.0
C534 C 0.25996 0.33169 0.29742 0.0
H535 H 0.28734 0.32422 0.23469 0.0
H536 H 0.3377 0.34469 0.2741 0.0
C537 C 0.19861 0.32078 0.29672 0.0
C538 C 0.71431 0.17376 0.79788 0.0
C539 C 0.69627 0.23331 0.79915 0.0
H540 H 0.74544 0.10273 0.77486 0.0
C541 C 0.69703 0.26744 0.77704 0.0
H542 H 0.71336 0.1459 0.81435 0.0
C543 C 0.71527 0.24265 0.75429 0.0
C544 C 0.73351 0.18314 0.75308 0.0
H545 H 0.68432 0.31374 0.77728 0.0
H546 H 0.71631 0.27051 0.73783 0.0
C547 C 0.73256 0.149 0.77516 0.0
C548 C 0.81207 0.72452 0.29274 0.0
C549 C 0.75412 0.70339 0.2965 0.0
H550 H 0.87541 0.75949 0.267 0.0
C551 C 0.71581 0.69959 0.2756 0.0
H552 H 0.84352 0.72664 0.30803 0.0
C553 C 0.73466 0.71785 0.25178 0.0
C554 C 0.79202 0.74069 0.24841 0.0
H555 H 0.6708 0.68378 0.27764 0.0
H556 H 0.70379 0.71612 0.23625 0.0
C557 C 0.8306 0.74298 0.26911 0.0
C558 C 0.2607 0.78169 0.79494 0.0
C559 C 0.31832 0.75817 0.79518 0.0
H560 H 0.19141 0.82111 0.77329 0.0
C561 C 0.3507 0.75739 0.77271 0.0
H562 H 0.23414 0.7821 0.81175 0.0
C563 C 0.32624 0.77975 0.75058 0.0
C564 C 0.26879 0.80365 0.75034 0.0
H565 H 0.39557 0.74046 0.77227 0.0
H566 H 0.35291 0.77959 0.73379 0.0
C567 C 0.23619 0.80401 0.77279 0.0
C568 C 0.78554 0.67625 0.7968 0.0
C569 C 0.81409 0.73164 0.79698 0.0
H570 H 0.74004 0.61046 0.7752 0.0
C571 C 0.81572 0.76473 0.77463 0.0
H572 H 0.78409 0.64933 0.81355 0.0
C573 C 0.79049 0.74252 0.75258 0.0
C574 C 0.76273 0.68668 0.75229 0.0
H575 H 0.83626 0.80814 0.77412 0.0
H576 H 0.79228 0.76944 0.73586 0.0
C577 C 0.7603 0.654 0.77474 0.0
C578 C 0.28875 0.84701 0.27622 0.0
C579 C 0.28835 0.81057 0.29755 0.0
H580 H 0.29907 0.85298 0.23667 0.0
C581 C 0.30036 0.7497 0.29472 0.0
H582 H 0.2808 0.89426 0.27784 0.0
C583 C 0.31066 0.72572 0.27086 0.0
C584 C 0.30905 0.7622 0.24945 0.0
H585 H 0.2998 0.72044 0.31077 0.0
H586 H 0.31858 0.67851 0.26912 0.0
C587 C 0.29879 0.82323 0.25256 0.0
C588 C 0.2382 0.34525 0.77518 0.0
C589 C 0.23684 0.31082 0.75316 0.0
H590 H 0.21964 0.34996 0.8144 0.0
C591 C 0.21529 0.25243 0.75449 0.0
H592 H 0.25373 0.39072 0.77477 0.0
C593 C 0.196 0.22897 0.7773 0.0
C594 C 0.1974 0.26341 0.79936 0.0
H595 H 0.21454 0.22435 0.73806 0.0
H596 H 0.18073 0.18345 0.77762 0.0
C597 C 0.21881 0.32186 0.79797 0.0
C598 C 0.73469 0.18825 0.27877 0.0
C599 C 0.73437 0.22151 0.30109 0.0
H600 H 0.71468 0.18544 0.23964 0.0
C601 C 0.71229 0.27973 0.30045 0.0
H602 H 0.7506 0.14291 0.27868 0.0
C603 C 0.69208 0.3044 0.27792 0.0
C604 C 0.69305 0.2713 0.25548 0.0
H605 H 0.71221 0.30681 0.31719 0.0
H606 H 0.6767 0.34986 0.27811 0.0
C607 C 0.71433 0.21274 0.2563 0.0
C608 C 0.13566 0.14198 0.04143 0.0
C609 C 0.1684 0.18589 0.0541 0.0
H610 H 0.11072 0.10339 1.00657 0.0
C611 C 0.20046 0.22751 0.03986 0.0
H612 H 0.1088 0.11043 0.05161 0.0
C613 C 0.20145 0.22345 1.01356 0.0
C614 C 0.17046 0.17769 1.00114 0.0
H615 H 0.22598 0.26197 0.04906 0.0
H616 H 0.22769 0.25489 1.00302 0.0
C617 C 0.13673 0.13792 1.01546 0.0
C618 C 0.88586 0.13626 0.51312 0.0
C619 C 0.84445 0.17183 0.50042 0.0
H620 H 0.9171 0.10259 0.54795 0.0
C621 C 0.79972 0.19999 0.51441 0.0
H622 H 0.91971 0.11232 0.50298 0.0
C623 C 0.79827 0.19447 0.54066 0.0
C624 C 0.84145 0.16056 0.55331 0.0
H625 H 0.76706 0.22755 0.50514 0.0
H626 H 0.76459 0.21802 0.55107 0.0
C627 C 0.88433 0.13065 0.53905 0.0
C628 C 0.80157 0.88633 1.00597 0.0
C629 C 0.82835 0.8373 0.99435 0.0
H630 H 0.77409 0.92697 0.0401 0.0
C631 C 0.84439 0.78821 1.00915 0.0
H632 H 0.78744 0.92421 0.99503 0.0
C633 C 0.83708 0.78991 0.03526 0.0
C634 C 0.81333 0.84065 0.04696 0.0
H635 H 0.86523 0.74987 1.00069 0.0
H636 H 0.85262 0.75281 0.04633 0.0
C637 C 0.79399 0.88791 0.03185 0.0
C638 C 0.142 0.86955 0.50929 0.0
C639 C 0.18553 0.83518 0.49739 0.0
H640 H 0.10378 0.89847 0.54353 0.0
C641 C 0.2269 0.80437 0.51226 0.0
H642 H 0.11064 0.89537 0.49847 0.0
C643 C 0.22281 0.80601 0.53854 0.0
C644 C 0.17736 0.83859 0.55026 0.0
H645 H 0.26104 0.7777 0.50357 0.0
H646 H 0.25395 0.78053 0.54961 0.0
C647 C 0.138 0.87126 0.53524 0.0
C648 C 0.62482 0.38455 0.03798 0.0
C649 C 0.65948 0.34683 0.05296 0.0
H650 H 0.59967 0.41116 1.00119 0.0
C651 C 0.69341 0.3024 0.04118 0.0
H652 H 0.59676 0.41799 0.04638 0.0
C653 C 0.69501 0.29835 1.01485 0.0
C654 C 0.66274 0.33873 1.00003 0.0
H655 H 0.72041 0.27255 0.05225 0.0
H656 H 0.72324 0.26554 1.00611 0.0
C657 C 0.62643 0.38058 1.01201 0.0
C658 C 0.64818 0.66326 0.53272 0.0
C659 C 0.69194 0.65329 0.55119 0.0
H660 H 0.62992 0.6805 0.4938 0.0
C661 C 0.75132 0.64841 0.54364 0.0
H662 H 0.60199 0.66734 0.53781 0.0
C663 C 0.76691 0.65595 0.51864 0.0
C664 C 0.7237 0.66837 0.50037 0.0
H665 H 0.78608 0.63892 0.55704 0.0
H666 H 0.81326 0.65298 0.51357 0.0
C667 C 0.66395 0.67055 0.5075 0.0
C668 C 0.33315 0.66416 0.03913 0.0
C669 C 0.3338 0.72424 0.04609 0.0
H670 H 0.33909 0.60142 1.00903 0.0
C671 C 0.34627 0.76732 0.02786 0.0
H672 H 0.32327 0.63023 0.05284 0.0
C673 C 0.35532 0.75123 1.003 0.0
C674 C 0.35193 0.69147 0.9956 0.0
H675 H 0.34818 0.81392 0.03283 0.0
H676 H 0.36481 0.78587 0.9896 0.0
C677 C 0.34197 0.64788 1.01406 0.0
C678 C 0.37976 0.38683 0.54074 0.0
C679 C 0.33944 0.34917 0.55289 0.0
H680 H 0.4152 0.4175 0.50618 0.0
C681 C 0.2996 0.31559 0.53827 0.0
H682 H 0.40982 0.41458 0.55142 0.0
C683 C 0.30278 0.31721 0.51195 0.0
C684 C 0.34579 0.3525 0.5 0.0
H685 H 0.26795 0.28635 0.54717 0.0
H686 H 0.27354 0.28912 0.50103 0.0
C687 C 0.38285 0.3885 0.51476 0.0
C688 C 0.01308 0.50235 0.15485 0.0
C689 C 0.0374 0.48168 0.13232 0.0
H690 H 0.94987 0.56006 0.17218 0.0
C691 C 0.01474 0.50277 0.10952 0.0
H692 H 0.02884 0.48563 0.17267 0.0
C693 C 0.96879 0.54404 0.10924 0.0
C694 C 0.94462 0.56494 0.13175 0.0
H695 H 0.03241 0.48706 0.0919 0.0
H696 H 0.95261 0.56029 0.09141 0.0
C697 C 0.96693 0.54359 0.15457 0.0
C698 C 0.48023 0.97563 0.65773 0.0
C699 C 0.45657 0.95474 0.63506 0.0
H700 H 0.54394 0.03233 0.67541 0.0
C701 C 0.47915 0.97617 0.61236 0.0
H702 H 0.46263 0.96065 0.67547 0.0
C703 C 0.52453 0.01809 0.61233 0.0
C704 C 0.54798 0.03925 0.63499 0.0
H705 H 0.46125 0.9609 0.59466 0.0
H706 H 0.54152 0.03379 0.5946 0.0
C707 C 0.52555 0.01768 0.6577 0.0
C708 C 0.49716 0.97278 0.93378 0.0
C709 C 0.47919 0.94981 0.91053 0.0
H710 H 0.55023 0.03697 0.95311 0.0
C711 C 0.5023 0.97424 0.88849 0.0
H712 H 0.48011 0.95439 0.95104 0.0
C713 C 0.54285 0.02095 0.88968 0.0
C714 C 0.56057 0.04408 0.91294 0.0
H715 H 0.48995 0.95643 0.87037 0.0
H716 H 0.55919 0.03996 0.87242 0.0
C717 C 0.53744 0.01959 0.93497 0.0
C718 C 0.04982 0.46879 0.3814 0.0
C719 C 0.07637 0.45801 0.4048 0.0
H720 H 0.98317 0.51708 0.36114 0.0
C721 C 0.05603 0.4888 0.42589 0.0
H722 H 0.06549 0.44638 0.36475 0.0
C723 C 0.01146 0.53077 0.42362 0.0
C724 C 0.98442 0.54152 0.40036 0.0
H725 H 0.07541 0.48125 0.44418 0.0
H726 H 0.99772 0.55454 0.44025 0.0
C727 C 1.00393 0.51024 0.37921 0.0
C728 C 0.99587 0.52536 0.93702 0.0
C729 C 0.97505 0.54802 0.91419 0.0
H730 H 0.05299 0.46301 0.95517 0.0
C731 C 0.99776 0.52557 0.89167 0.0
H732 H 0.97932 0.54233 0.95463 0.0
C733 C 0.04015 0.48062 0.89198 0.0
C734 C 0.06032 0.45742 0.91482 0.0
H735 H 0.98346 0.54341 0.87383 0.0
H736 H 0.05569 0.46272 0.87437 0.0
C737 C 0.03822 0.48047 0.93733 0.0
C738 C 0.54067 0.03343 0.39352 0.0
C739 C 0.56403 0.0537 0.41636 0.0
H740 H 0.48031 0.97379 0.37531 0.0
C741 C 0.54452 0.02788 0.43877 0.0
H742 H 0.55598 0.05177 0.37596 0.0
C743 C 0.50259 0.98247 0.43836 0.0
C744 C 0.47926 0.96203 0.41554 0.0
H745 H 0.56219 0.04249 0.45662 0.0
H746 H 0.48798 0.96359 0.45592 0.0
C747 C 0.49866 0.98784 0.39311 0.0
C748 C 0.48623 1.00611 0.16958 0.0
C749 C 0.45772 0.98661 0.14766 0.0
H750 H 0.54812 0.06752 0.18572 0.0
C751 C 0.47154 0.01371 0.12477 0.0
H752 H 0.47706 0.98535 0.18741 0.0
C753 C 0.51382 0.05832 0.12363 0.0
C754 C 0.54185 0.0786 0.14549 0.0
H755 H 0.4499 1.0001 0.10756 0.0
H756 H 0.52391 0.07758 0.10558 0.0
C757 C 0.52791 0.052 0.16851 0.0
C758 C 0.02159 0.47132 0.61501 0.0
C759 C 0.04591 0.45007 0.63747 0.0
H760 H 0.95625 0.52689 0.59786 0.0
C761 C 0.02249 0.4694 0.66037 0.0
H762 H 0.03926 0.45729 0.59714 0.0
C763 C 0.97563 0.5097 0.66078 0.0
C764 C 0.95133 0.53091 0.63831 0.0
H765 H 0.04139 0.45453 0.67793 0.0
H766 H 0.95759 0.52333 0.67864 0.0
C767 C 0.97458 0.51133 0.61543 0.0
C768 C 0.42291 0.28471 0.17786 0.0
C769 C 0.46367 0.31354 0.16203 0.0
H770 H 0.33351 0.2561 0.18386 0.0
C771 C 0.44233 0.33868 0.1397 0.0
H772 H 0.43752 0.26488 0.19527 0.0
C773 C 0.38208 0.33329 0.13307 0.0
C774 C 0.34185 0.30257 0.14859 0.0
H775 H 0.47245 0.36059 0.12695 0.0
H776 H 0.36731 0.3522 0.11551 0.0
C777 C 0.36304 0.27927 0.17125 0.0
C778 C 0.76017 0.35197 0.67091 0.0
C779 C 0.73603 0.3293 0.64864 0.0
H780 H 0.77359 0.4278 0.69428 0.0
C781 C 0.70288 0.36796 0.63321 0.0
H782 H 0.78518 0.32359 0.68343 0.0
C783 C 0.6958 0.42817 0.63952 0.0
C784 C 0.72169 0.45107 0.66142 0.0
H785 H 0.6832 0.35199 0.61596 0.0
H786 H 0.67199 0.45711 0.62682 0.0
C787 C 0.75307 0.41187 0.6772 0.0
C788 C 0.55716 0.75579 0.16966 0.0
C789 C 0.51506 0.73716 0.1517 0.0
H790 H 0.64789 0.77493 0.17821 0.0
C791 C 0.5355 0.71943 0.12805 0.0
H792 H 0.54348 0.76937 0.1882 0.0
C793 C 0.59643 0.72235 0.12236 0.0
C794 C 0.63786 0.74366 0.14012 0.0
H795 H 0.50442 0.70533 0.11374 0.0
H796 H 0.61084 0.70956 0.10383 0.0
C797 C 0.61738 0.75936 0.16393 0.0
C798 C 0.30627 0.56274 0.63852 0.0
C799 C 0.27612 0.54024 0.65941 0.0
H800 H 0.32486 0.63897 0.61578 0.0
C801 C 0.24304 0.58 0.67421 0.0
H802 H 0.33164 0.53337 0.6266 0.0
C803 C 0.2386 0.64012 0.66795 0.0
C804 C 0.26717 0.6625 0.64669 0.0
H805 H 0.2193 0.56446 0.69052 0.0
H806 H 0.21218 0.66891 0.67972 0.0
C807 C 0.30186 0.62323 0.63224 0.0
C808 C 0.93175 0.25617 0.87747 0.0
C809 C 0.97149 0.22602 0.89343 0.0
H810 H 0.84302 0.28615 0.87081 0.0
C811 C 0.94894 0.20003 0.9153 0.0
H812 H 0.94731 0.27669 0.86039 0.0
C813 C 0.8885 0.20586 0.92137 0.0
C814 C 0.84928 0.23779 0.90571 0.0
H815 H 0.97827 0.1771 0.92813 0.0
H816 H 0.87277 0.18622 0.93859 0.0
C817 C 0.8717 0.26197 0.88349 0.0
C818 C 0.75355 0.88635 0.38506 0.0
C819 C 0.80855 0.86136 0.39127 0.0
H820 H 0.70351 0.96517 0.37868 0.0
C821 C 0.85666 0.89983 0.39631 0.0
H822 H 0.71555 0.85834 0.38114 0.0
C823 C 0.84971 0.96186 0.39513 0.0
C824 C 0.79475 0.98655 0.38849 0.0
H825 H 0.89968 0.88206 0.40134 0.0
H826 H 0.88737 0.99031 0.39903 0.0
C827 C 0.74683 0.9479 0.38359 0.0
C828 C 0.08202 0.80607 0.90724 0.0
C829 C 0.05678 0.76843 0.88915 0.0
H830 H 0.16119 0.83313 0.92654 0.0
C831 C 0.0946 0.72948 0.876 0.0
H832 H 0.05437 0.83622 0.91783 0.0
C833 C 0.15546 0.72718 0.88108 0.0
C834 C 0.18073 0.76389 0.89944 0.0
H835 H 0.07712 0.69974 0.86185 0.0
H836 H 0.18266 0.69635 0.87062 0.0
C837 C 0.14329 0.80387 0.9123 0.0
C838 C 0.29305 0.13905 0.38482 0.0
C839 C 0.2647 0.16214 0.40601 0.0
H840 H 0.31249 0.06284 0.36263 0.0
C841 C 0.23059 0.12303 0.42082 0.0
H842 H 0.31907 0.16754 0.37277 0.0
C843 C 0.22655 0.06209 0.41492 0.0
C844 C 0.25649 0.03904 0.39406 0.0
H845 H 0.20777 0.13927 0.43724 0.0
H846 H 0.20171 0.03289 0.4271 0.0
C847 C 0.28894 0.07867 0.37895 0.0
C848 C 0.59633 0.75489 0.8717 0.0
C849 C 0.55728 0.72068 0.88639 0.0
H850 H 0.68457 0.78771 0.86638 0.0
C851 C 0.58033 0.6908 0.9073 0.0
H852 H 0.58035 0.77857 0.85539 0.0
C853 C 0.64063 0.69636 0.91365 0.0
C854 C 0.67919 0.73204 0.8993 0.0
H855 H 0.55154 0.66466 0.91916 0.0
H856 H 0.65679 0.67335 0.93009 0.0
C857 C 0.65628 0.76057 0.87807 0.0
C858 C 0.28595 0.57951 0.37156 0.0
C859 C 0.3142 0.53893 0.38779 0.0
H860 H 0.2558 0.66854 0.36532 0.0
C861 C 0.33677 0.5605 0.41059 0.0
H862 H 0.26798 0.56481 0.35379 0.0
C863 C 0.32949 0.62058 0.41725 0.0
C864 C 0.29926 0.66053 0.40134 0.0
H865 H 0.35811 0.53062 0.42368 0.0
H866 H 0.3465 0.63541 0.43517 0.0
C867 C 0.27849 0.63922 0.37823 0.0
C868 C 0.4491 0.30443 0.9134 0.0
C869 C 0.47187 0.27502 0.89235 0.0
H870 H 0.37269 0.32216 0.93603 0.0
C871 C 0.43227 0.24241 0.87713 0.0
H872 H 0.47826 0.32941 0.92565 0.0
C873 C 0.3721 0.23771 0.88313 0.0
C874 C 0.34946 0.26552 0.90456 0.0
H875 H 0.448 0.21922 0.86069 0.0
H876 H 0.34348 0.21163 0.87106 0.0
C877 C 0.38857 0.29974 0.91943 0.0
C878 C 0.72344 0.40408 0.42582 0.0
C879 C 0.74254 0.36182 0.40805 0.0
H880 H 0.70753 0.4966 0.43392 0.0
C881 C 0.7549 0.38125 0.38372 0.0
H882 H 0.71322 0.39051 0.44475 0.0
C883 C 0.75047 0.44127 0.37749 0.0
C884 C 0.73427 0.48421 0.39543 0.0
H885 H 0.76865 0.3501 0.36942 0.0
H886 H 0.76163 0.45419 0.35857 0.0
C887 C 0.71963 0.46481 0.41961 0.0
C888 C 0.05152 0.74853 0.16361 0.0
C889 C 0.01304 0.79643 0.15855 0.0
H890 H 0.1409 0.71692 0.16575 0.0
C891 C 0.03777 0.85092 0.15129 0.0
H892 H 0.03418 0.70553 0.16899 0.0
C893 C 0.09967 0.8575 0.14967 0.0
C894 C 0.13801 0.80946 0.15488 0.0
H895 H 0.00946 0.88856 0.14725 0.0
H896 H 0.11744 0.90022 0.14418 0.0
C897 C 0.11298 0.75485 0.16168 0.0
C898 C 0.20666 0.12392 0.63111 0.0
C899 C 0.23893 0.16276 0.64686 0.0
H900 H 0.17791 0.03417 0.624 0.0
C901 C 0.26355 0.13975 0.66895 0.0
H902 H 0.18666 0.14012 0.61399 0.0
C903 C 0.25797 0.07944 0.67471 0.0
C904 C 0.22758 0.04008 0.65862 0.0
H905 H 0.28796 0.16818 0.68171 0.0
H906 H 0.27889 0.06334 0.69167 0.0
C907 C 0.20103 0.06322 0.63692 0.0
C908 C 0.86448 0.29729 0.16929 0.0
C909 C 0.84023 0.2661 0.14896 0.0
H910 H 0.94219 0.321 0.18984 0.0
C911 C 0.8785 0.23094 0.13422 0.0
H912 H 0.83659 0.32421 0.18123 0.0
C913 C 0.93981 0.22881 0.13924 0.0
C914 C 0.96403 0.26185 0.15909 0.0
H915 H 0.86132 0.20597 0.11846 0.0
H916 H 0.96834 0.20317 0.12708 0.0
C917 C 0.9253 0.29517 0.17426 0.0
C918 C 0.80664 0.92707 0.64011 0.0
C919 C 0.771 0.95148 0.65898 0.0
H920 H 0.83121 0.84875 0.61972 0.0
C921 C 0.7333 0.91304 0.67243 0.0
H922 H 0.83574 0.95525 0.62926 0.0
C923 C 0.73016 0.85239 0.66688 0.0
C924 C 0.76473 0.82799 0.64771 0.0
H925 H 0.70517 0.92993 0.68719 0.0
H926 H 0.70031 0.82469 0.6776 0.0
C927 C 0.80358 0.866 0.63456 0.0
loop_
_geom_bond_atom_site_label_1
_geom_bond_atom_site_label_2
_geom_bond_distance
_geom_bond_site_symmetry_2
_ccdc_geom_bond_type
C0 C1 1.351 . S
C0 N3 1.368 . S
C0 H5 0.931 . S
C1 C0 1.351 . S
C1 N2 1.373 . S
C1 H29 0.930 . S
N2 C1 1.373 . S
N2 C4 1.340 . S
N3 C0 1.368 . S
N3 C4 1.321 . S
N3 Co6 2.135 . S
C4 N2 1.340 . S
C4 N3 1.321 . S
C4 H28 0.930 . S
H5 C0 0.931 . S
Co6 N3 2.135 . S
Co6 N9 2.121 . S
Co6 O14 2.055 . S
Co6 O17 2.039 . S
Co6 N20 2.140 . S
C7 O8 1.227 . S
C7 O17 1.265 1_655 S
O8 C7 1.227 . S
N9 Co6 2.121 . S
N9 C11 1.375 . S
N9 C12 1.313 . S
C10 C11 1.338 . S
C10 N13 1.377 . S
C10 H30 0.930 . S
C11 N9 1.375 . S
C11 C10 1.338 . S
C11 H15 0.931 . S
C12 N9 1.313 . S
C12 N13 1.344 . S
C12 H16 0.930 . S
N13 C10 1.377 . S
N13 C12 1.344 . S
O14 Co6 2.055 . S
O14 C18 1.253 . S
H15 C11 0.931 . S
H16 C12 0.930 . S
O17 Co6 2.039 . S
O17 C7 1.265 1_455 S
C18 O14 1.253 . S
C18 O19 1.227 . S
O19 C18 1.227 . S
N20 Co6 2.140 . S
N20 C23 1.346 . S
N20 C24 1.345 . S
C21 C22 1.387 . S
C21 C25 1.391 . S
C22 C21 1.387 . S
C22 C23 1.369 . S
C22 H31 0.929 . S
C23 N20 1.346 . S
C23 C22 1.369 . S
C23 H26 0.928 . S
C24 N20 1.345 . S
C24 C25 1.371 . S
C24 H27 0.931 . S
C25 C21 1.391 . S
C25 C24 1.371 . S
C25 H32 0.930 . S
H26 C23 0.928 . S
H27 C24 0.931 . S
H28 C4 0.930 . S
H29 C1 0.930 . S
H30 C10 0.930 . S
H31 C22 0.929 . S
H32 C25 0.930 . S
C33 C34 1.351 . S
C33 N36 1.368 . S
C33 H38 0.931 . S
C34 C33 1.351 . S
C34 N35 1.373 . S
C34 H62 0.930 . S
N35 C34 1.373 . S
N35 C37 1.340 . S
N36 C33 1.368 . S
N36 C37 1.321 . S
N36 Co39 2.135 . S
C37 N35 1.340 . S
C37 N36 1.321 . S
C37 H61 0.930 . S
H38 C33 0.931 . S
Co39 N36 2.135 . S
Co39 N42 2.121 . S
Co39 O47 2.055 . S
Co39 O50 2.039 . S
Co39 N53 2.140 . S
C40 O41 1.227 . S
C40 O50 1.265 1_565 S
O41 C40 1.227 . S
N42 Co39 2.121 . S
N42 C44 1.375 . S
N42 C45 1.313 . S
C43 C44 1.338 . S
C43 N46 1.377 . S
C43 H63 0.930 . S
C44 N42 1.375 . S
C44 C43 1.338 . S
C44 H48 0.931 . S
C45 N42 1.313 . S
C45 N46 1.344 . S
C45 H49 0.930 . S
N46 C43 1.377 . S
N46 C45 1.344 . S
O47 Co39 2.055 . S
O47 C51 1.253 . S
H48 C44 0.931 . S
H49 C45 0.930 . S
O50 Co39 2.039 . S
O50 C40 1.265 1_545 S
C51 O47 1.253 . S
C51 O52 1.227 . S
O52 C51 1.227 . S
N53 Co39 2.140 . S
N53 C56 1.346 . S
N53 C57 1.345 . S
C54 C55 1.387 . S
C54 C58 1.391 . S
C55 C54 1.387 . S
C55 C56 1.369 . S
C55 H64 0.929 . S
C56 N53 1.346 . S
C56 C55 1.369 . S
C56 H59 0.928 . S
C57 N53 1.345 . S
C57 C58 1.371 . S
C57 H60 0.931 . S
C58 C54 1.391 . S
C58 C57 1.371 . S
C58 H65 0.930 . S
H59 C56 0.928 . S
H60 C57 0.931 . S
H61 C37 0.930 . S
H62 C34 0.930 . S
H63 C43 0.930 . S
H64 C55 0.929 . S
H65 C58 0.930 . S
C66 C67 1.351 . S
C66 N69 1.368 . S
C66 H71 0.931 . S
C67 C66 1.351 . S
C67 N68 1.373 . S
C67 H95 0.930 . S
N68 C67 1.373 . S
N68 C70 1.340 . S
N69 C66 1.368 . S
N69 C70 1.321 . S
N69 Co72 2.135 . S
C70 N68 1.340 . S
C70 N69 1.321 . S
C70 H94 0.930 . S
H71 C66 0.931 . S
Co72 N69 2.135 . S
Co72 N75 2.121 . S
Co72 O80 2.055 . S
Co72 O83 2.039 . S
Co72 N86 2.140 . S
C73 O74 1.227 . S
C73 O83 1.265 1_455 S
O74 C73 1.227 . S
N75 Co72 2.121 . S
N75 C77 1.375 . S
N75 C78 1.313 . S
C76 C77 1.338 . S
C76 N79 1.377 . S
C76 H96 0.930 . S
C77 N75 1.375 . S
C77 C76 1.338 . S
C77 H81 0.931 . S
C78 N75 1.313 . S
C78 N79 1.344 . S
C78 H82 0.930 . S
N79 C76 1.377 . S
N79 C78 1.344 . S
O80 Co72 2.055 . S
O80 C84 1.253 . S
H81 C77 0.931 . S
H82 C78 0.930 . S
O83 Co72 2.039 . S
O83 C73 1.265 1_655 S
C84 O80 1.253 . S
C84 O85 1.227 . S
O85 C84 1.227 . S
N86 Co72 2.140 . S
N86 C89 1.346 . S
N86 C90 1.345 . S
C87 C88 1.387 . S
C87 C91 1.391 . S
C88 C87 1.387 . S
C88 C89 1.369 . S
C88 H97 0.929 . S
C89 N86 1.346 . S
C89 C88 1.369 . S
C89 H92 0.928 . S
C90 N86 1.345 . S
C90 C91 1.371 . S
C90 H93 0.931 . S
C91 C87 1.391 . S
C91 C90 1.371 . S
C91 H98 0.930 . S
H92 C89 0.928 . S
H93 C90 0.931 . S
H94 C70 0.930 . S
H95 C67 0.930 . S
H96 C76 0.930 . S
H97 C88 0.929 . S
H98 C91 0.930 . S
C99 C100 1.351 . S
C99 N102 1.368 . S
C99 H104 0.931 . S
C100 C99 1.351 . S
C100 N101 1.373 . S
C100 H128 0.930 . S
N101 C100 1.373 . S
N101 C103 1.340 . S
N102 C99 1.368 . S
N102 C103 1.321 . S
N102 Co105 2.135 . S
C103 N101 1.340 . S
C103 N102 1.321 . S
C103 H127 0.930 . S
H104 C99 0.931 . S
Co105 N102 2.135 . S
Co105 N108 2.121 . S
Co105 O113 2.055 . S
Co105 O116 2.039 . S
Co105 N119 2.140 . S
C106 O107 1.227 . S
C106 O116 1.265 1_545 S
O107 C106 1.227 . S
N108 Co105 2.121 . S
N108 C110 1.375 . S
N108 C111 1.313 . S
C109 C110 1.338 . S
C109 N112 1.377 . S
C109 H129 0.930 . S
C110 N108 1.375 . S
C110 C109 1.338 . S
C110 H114 0.931 . S
C111 N108 1.313 . S
C111 N112 1.344 . S
C111 H115 0.930 . S
N112 C109 1.377 . S
N112 C111 1.344 . S
O113 Co105 2.055 . S
O113 C117 1.253 . S
H114 C110 0.931 . S
H115 C111 0.930 . S
O116 Co105 2.039 . S
O116 C106 1.265 1_565 S
C117 O113 1.253 . S
C117 O118 1.227 . S
O118 C117 1.227 . S
N119 Co105 2.140 . S
N119 C122 1.346 . S
N119 C123 1.345 . S
C120 C121 1.387 . S
C120 C124 1.391 . S
C121 C120 1.387 . S
C121 C122 1.369 . S
C121 H130 0.929 . S
C122 N119 1.346 . S
C122 C121 1.369 . S
C122 H125 0.928 . S
C123 N119 1.345 . S
C123 C124 1.371 . S
C123 H126 0.931 . S
C124 C120 1.391 . S
C124 C123 1.371 . S
C124 H131 0.930 . S
H125 C122 0.928 . S
H126 C123 0.931 . S
H127 C103 0.930 . S
H128 C100 0.930 . S
H129 C109 0.930 . S
H130 C121 0.929 . S
H131 C124 0.930 . S
C132 C133 1.351 . S
C132 N135 1.368 . S
C132 H137 0.931 . S
C133 C132 1.351 . S
C133 N134 1.373 . S
C133 H161 0.930 . S
N134 C133 1.373 . S
N134 C136 1.340 . S
N135 C132 1.368 . S
N135 C136 1.321 . S
N135 Co138 2.135 . S
C136 N134 1.340 . S
C136 N135 1.321 . S
C136 H160 0.930 . S
H137 C132 0.931 . S
Co138 N135 2.135 . S
Co138 N141 2.121 . S
Co138 O146 2.055 . S
Co138 O149 2.039 . S
Co138 N152 2.140 . S
C139 O140 1.227 . S
C139 O149 1.265 . S
O140 C139 1.227 . S
N141 Co138 2.121 . S
N141 C143 1.375 . S
N141 C144 1.313 . S
C142 C143 1.338 . S
C142 N145 1.377 . S
C142 H162 0.930 . S
C143 N141 1.375 . S
C143 C142 1.338 . S
C143 H147 0.931 . S
C144 N141 1.313 . S
C144 N145 1.344 . S
C144 H148 0.930 . S
N145 C142 1.377 . S
N145 C144 1.344 . S
O146 Co138 2.055 . S
O146 C150 1.253 . S
H147 C143 0.931 . S
H148 C144 0.930 . S
O149 Co138 2.039 . S
O149 C139 1.265 . S
C150 O146 1.253 . S
C150 O151 1.227 . S
O151 C150 1.227 . S
N152 Co138 2.140 . S
N152 C155 1.346 . S
N152 C156 1.345 . S
C153 C154 1.387 . S
C153 C157 1.391 . S
C154 C153 1.387 . S
C154 C155 1.369 . S
C154 H163 0.929 . S
C155 N152 1.346 . S
C155 C154 1.369 . S
C155 H158 0.928 . S
C156 N152 1.345 . S
C156 C157 1.371 . S
C156 H159 0.931 . S
C157 C153 1.391 . S
C157 C156 1.371 . S
C157 H164 0.930 . S
H158 C155 0.928 . S
H159 C156 0.931 . S
H160 C136 0.930 . S
H161 C133 0.930 . S
H162 C142 0.930 . S
H163 C154 0.929 . S
H164 C157 0.930 . S
C165 C166 1.351 . S
C165 N168 1.368 . S
C165 H170 0.931 . S
C166 C165 1.351 . S
C166 N167 1.373 . S
C166 H194 0.930 . S
N167 C166 1.373 . S
N167 C169 1.340 . S
N168 C165 1.368 . S
N168 C169 1.321 . S
N168 Co171 2.135 . S
C169 N167 1.340 . S
C169 N168 1.321 . S
C169 H193 0.930 . S
H170 C165 0.931 . S
Co171 N168 2.135 . S
Co171 N174 2.121 . S
Co171 O179 2.055 . S
Co171 O182 2.039 . S
Co171 N185 2.140 . S
C172 O173 1.227 . S
C172 O182 1.265 . S
O173 C172 1.227 . S
N174 Co171 2.121 . S
N174 C176 1.375 . S
N174 C177 1.313 . S
C175 C176 1.338 . S
C175 N178 1.377 . S
C175 H195 0.930 . S
C176 N174 1.375 . S
C176 C175 1.338 . S
C176 H180 0.931 . S
C177 N174 1.313 . S
C177 N178 1.344 . S
C177 H181 0.930 . S
N178 C175 1.377 . S
N178 C177 1.344 . S
O179 Co171 2.055 . S
O179 C183 1.253 . S
H180 C176 0.931 . S
H181 C177 0.930 . S
O182 Co171 2.039 . S
O182 C172 1.265 . S
C183 O179 1.253 . S
C183 O184 1.227 . S
O184 C183 1.227 . S
N185 Co171 2.140 . S
N185 C188 1.346 . S
N185 C189 1.345 . S
C186 C187 1.387 . S
C186 C190 1.391 . S
C187 C186 1.387 . S
C187 C188 1.369 . S
C187 H196 0.929 . S
C188 N185 1.346 . S
C188 C187 1.369 . S
C188 H191 0.928 . S
C189 N185 1.345 . S
C189 C190 1.371 . S
C189 H192 0.931 . S
C190 C186 1.391 . S
C190 C189 1.371 . S
C190 H197 0.930 . S
H191 C188 0.928 . S
H192 C189 0.931 . S
H193 C169 0.930 . S
H194 C166 0.930 . S
H195 C175 0.930 . S
H196 C187 0.929 . S
H197 C190 0.930 . S
C198 C199 1.351 . S
C198 N201 1.368 . S
C198 H203 0.931 . S
C199 C198 1.351 . S
C199 N200 1.373 . S
C199 H227 0.930 . S
N200 C199 1.373 . S
N200 C202 1.340 . S
N201 C198 1.368 . S
N201 C202 1.321 . S
N201 Co204 2.135 . S
C202 N200 1.340 . S
C202 N201 1.321 . S
C202 H226 0.930 . S
H203 C198 0.931 . S
Co204 N201 2.135 . S
Co204 N207 2.121 . S
Co204 O212 2.055 . S
Co204 O215 2.039 . S
Co204 N218 2.140 . S
C205 O206 1.227 . S
C205 O215 1.265 . S
O206 C205 1.227 . S
N207 Co204 2.121 . S
N207 C209 1.375 . S
N207 C210 1.313 . S
C208 C209 1.338 . S
C208 N211 1.377 . S
C208 H228 0.930 . S
C209 N207 1.375 . S
C209 C208 1.338 . S
C209 H213 0.931 . S
C210 N207 1.313 . S
C210 N211 1.344 . S
C210 H214 0.930 . S
N211 C208 1.377 . S
N211 C210 1.344 . S
O212 Co204 2.055 . S
O212 C216 1.253 . S
H213 C209 0.931 . S
H214 C210 0.930 . S
O215 Co204 2.039 . S
O215 C205 1.265 . S
C216 O212 1.253 . S
C216 O217 1.227 . S
O217 C216 1.227 . S
N218 Co204 2.140 . S
N218 C221 1.346 . S
N218 C222 1.345 . S
C219 C220 1.387 . S
C219 C223 1.391 . S
C220 C219 1.387 . S
C220 C221 1.369 . S
C220 H229 0.929 . S
C221 N218 1.346 . S
C221 C220 1.369 . S
C221 H224 0.928 . S
C222 N218 1.345 . S
C222 C223 1.371 . S
C222 H225 0.931 . S
C223 C219 1.391 . S
C223 C222 1.371 . S
C223 H230 0.930 . S
H224 C221 0.928 . S
H225 C222 0.931 . S
H226 C202 0.930 . S
H227 C199 0.930 . S
H228 C208 0.930 . S
H229 C220 0.929 . S
H230 C223 0.930 . S
C231 C232 1.351 . S
C231 N234 1.368 . S
C231 H236 0.931 . S
C232 C231 1.351 . S
C232 N233 1.373 . S
C232 H260 0.930 . S
N233 C232 1.373 . S
N233 C235 1.340 . S
N234 C231 1.368 . S
N234 C235 1.321 . S
N234 Co237 2.135 . S
C235 N233 1.340 . S
C235 N234 1.321 . S
C235 H259 0.930 . S
H236 C231 0.931 . S
Co237 N234 2.135 . S
Co237 N240 2.121 . S
Co237 O245 2.055 . S
Co237 O248 2.039 . S
Co237 N251 2.140 . S
C238 O239 1.227 . S
C238 O248 1.265 . S
O239 C238 1.227 . S
N240 Co237 2.121 . S
N240 C242 1.375 . S
N240 C243 1.313 . S
C241 C242 1.338 . S
C241 N244 1.377 . S
C241 H261 0.930 . S
C242 N240 1.375 . S
C242 C241 1.338 . S
C242 H246 0.931 . S
C243 N240 1.313 . S
C243 N244 1.344 . S
C243 H247 0.930 . S
N244 C241 1.377 . S
N244 C243 1.344 . S
O245 Co237 2.055 . S
O245 C249 1.253 . S
H246 C242 0.931 . S
H247 C243 0.930 . S
O248 Co237 2.039 . S
O248 C238 1.265 . S
C249 O245 1.253 . S
C249 O250 1.227 . S
O250 C249 1.227 . S
N251 Co237 2.140 . S
N251 C254 1.346 . S
N251 C255 1.345 . S
C252 C253 1.387 . S
C252 C256 1.391 . S
C253 C252 1.387 . S
C253 C254 1.369 . S
C253 H262 0.929 . S
C254 N251 1.346 . S
C254 C253 1.369 . S
C254 H257 0.928 . S
C255 N251 1.345 . S
C255 C256 1.371 . S
C255 H258 0.931 . S
C256 C252 1.391 . S
C256 C255 1.371 . S
C256 H263 0.930 . S
H257 C254 0.928 . S
H258 C255 0.931 . S
H259 C235 0.930 . S
H260 C232 0.930 . S
H261 C241 0.930 . S
H262 C253 0.929 . S
H263 C256 0.930 . S
C264 C265 1.351 . S
C264 N267 1.368 . S
C264 H269 0.931 . S
C265 C264 1.351 . S
C265 N266 1.373 . S
C265 H293 0.930 . S
N266 C265 1.373 . S
N266 C268 1.340 . S
N267 C264 1.368 . S
N267 C268 1.321 . S
N267 Co270 2.135 . S
C268 N266 1.340 . S
C268 N267 1.321 . S
C268 H292 0.930 . S
H269 C264 0.931 . S
Co270 N267 2.135 . S
Co270 N273 2.121 . S
Co270 O278 2.055 . S
Co270 O281 2.039 . S
Co270 N284 2.140 . S
C271 O272 1.227 . S
C271 O281 1.265 1_455 S
O272 C271 1.227 . S
N273 Co270 2.121 . S
N273 C275 1.375 . S
N273 C276 1.313 . S
C274 C275 1.338 . S
C274 N277 1.377 . S
C274 H294 0.930 . S
C275 N273 1.375 . S
C275 C274 1.338 . S
C275 H279 0.931 . S
C276 N273 1.313 . S
C276 N277 1.344 . S
C276 H280 0.930 . S
N277 C274 1.377 . S
N277 C276 1.344 . S
O278 Co270 2.055 . S
O278 C282 1.253 . S
H279 C275 0.931 . S
H280 C276 0.930 . S
O281 Co270 2.039 . S
O281 C271 1.265 1_655 S
C282 O278 1.253 . S
C282 O283 1.227 . S
O283 C282 1.227 . S
N284 Co270 2.140 . S
N284 C287 1.346 . S
N284 C288 1.345 . S
C285 C286 1.387 . S
C285 C289 1.391 . S
C286 C285 1.387 . S
C286 C287 1.369 . S
C286 H295 0.929 . S
C287 N284 1.346 . S
C287 C286 1.369 . S
C287 H290 0.928 . S
C288 N284 1.345 . S
C288 C289 1.371 . S
C288 H291 0.931 . S
C289 C285 1.391 . S
C289 C288 1.371 . S
C289 H296 0.930 . S
H290 C287 0.928 . S
H291 C288 0.931 . S
H292 C268 0.930 . S
H293 C265 0.930 . S
H294 C274 0.930 . S
H295 C286 0.929 . S
H296 C289 0.930 . S
C297 C298 1.351 . S
C297 N300 1.368 . S
C297 H302 0.931 . S
C298 C297 1.351 . S
C298 N299 1.373 . S
C298 H326 0.930 . S
N299 C298 1.373 . S
N299 C301 1.340 . S
N300 C297 1.368 . S
N300 C301 1.321 . S
N300 Co303 2.135 . S
C301 N299 1.340 . S
C301 N300 1.321 . S
C301 H325 0.930 . S
H302 C297 0.931 . S
Co303 N300 2.135 . S
Co303 N306 2.121 . S
Co303 O311 2.055 . S
Co303 O314 2.039 . S
Co303 N317 2.140 . S
C304 O305 1.227 . S
C304 O314 1.265 1_545 S
O305 C304 1.227 . S
N306 Co303 2.121 . S
N306 C308 1.375 . S
N306 C309 1.313 . S
C307 C308 1.338 . S
C307 N310 1.377 . S
C307 H327 0.930 . S
C308 N306 1.375 . S
C308 C307 1.338 . S
C308 H312 0.931 . S
C309 N306 1.313 . S
C309 N310 1.344 . S
C309 H313 0.930 . S
N310 C307 1.377 . S
N310 C309 1.344 . S
O311 Co303 2.055 . S
O311 C315 1.253 . S
H312 C308 0.931 . S
H313 C309 0.930 . S
O314 Co303 2.039 . S
O314 C304 1.265 1_565 S
C315 O311 1.253 . S
C315 O316 1.227 . S
O316 C315 1.227 . S
N317 Co303 2.140 . S
N317 C320 1.346 . S
N317 C321 1.345 . S
C318 C319 1.387 . S
C318 C322 1.391 . S
C319 C318 1.387 . S
C319 C320 1.369 . S
C319 H328 0.929 . S
C320 N317 1.346 . S
C320 C319 1.369 . S
C320 H323 0.928 . S
C321 N317 1.345 . S
C321 C322 1.371 . S
C321 H324 0.931 . S
C322 C318 1.391 . S
C322 C321 1.371 . S
C322 H329 0.930 . S
H323 C320 0.928 . S
H324 C321 0.931 . S
H325 C301 0.930 . S
H326 C298 0.930 . S
H327 C307 0.930 . S
H328 C319 0.929 . S
H329 C322 0.930 . S
C330 C331 1.351 . S
C330 N333 1.368 . S
C330 H335 0.931 . S
C331 C330 1.351 . S
C331 N332 1.373 . S
C331 H359 0.930 . S
N332 C331 1.373 . S
N332 C334 1.340 . S
N333 C330 1.368 . S
N333 C334 1.321 . S
N333 Co336 2.135 . S
C334 N332 1.340 . S
C334 N333 1.321 . S
C334 H358 0.930 . S
H335 C330 0.931 . S
Co336 N333 2.135 . S
Co336 N339 2.121 . S
Co336 O344 2.055 . S
Co336 O347 2.039 . S
Co336 N350 2.140 . S
C337 O338 1.227 . S
C337 O347 1.265 1_655 S
O338 C337 1.227 . S
N339 Co336 2.121 . S
N339 C341 1.375 . S
N339 C342 1.313 . S
C340 C341 1.338 . S
C340 N343 1.377 . S
C340 H360 0.930 . S
C341 N339 1.375 . S
C341 C340 1.338 . S
C341 H345 0.931 . S
C342 N339 1.313 . S
C342 N343 1.344 . S
C342 H346 0.930 . S
N343 C340 1.377 . S
N343 C342 1.344 . S
O344 Co336 2.055 . S
O344 C348 1.253 . S
H345 C341 0.931 . S
H346 C342 0.930 . S
O347 Co336 2.039 . S
O347 C337 1.265 1_455 S
C348 O344 1.253 . S
C348 O349 1.227 . S
O349 C348 1.227 . S
N350 Co336 2.140 . S
N350 C353 1.346 . S
N350 C354 1.345 . S
C351 C352 1.387 . S
C351 C355 1.391 . S
C352 C351 1.387 . S
C352 C353 1.369 . S
C352 H361 0.929 . S
C353 N350 1.346 . S
C353 C352 1.369 . S
C353 H356 0.928 . S
C354 N350 1.345 . S
C354 C355 1.371 . S
C354 H357 0.931 . S
C355 C351 1.391 . S
C355 C354 1.371 . S
C355 H362 0.930 . S
H356 C353 0.928 . S
H357 C354 0.931 . S
H358 C334 0.930 . S
H359 C331 0.930 . S
H360 C340 0.930 . S
H361 C352 0.929 . S
H362 C355 0.930 . S
C363 C364 1.351 . S
C363 N366 1.368 . S
C363 H368 0.931 . S
C364 C363 1.351 . S
C364 N365 1.373 . S
C364 H392 0.930 . S
N365 C364 1.373 . S
N365 C367 1.340 . S
N366 C363 1.368 . S
N366 C367 1.321 . S
N366 Co369 2.135 . S
C367 N365 1.340 . S
C367 N366 1.321 . S
C367 H391 0.930 . S
H368 C363 0.931 . S
Co369 N366 2.135 . S
Co369 N372 2.121 . S
Co369 O377 2.055 . S
Co369 O380 2.039 . S
Co369 N383 2.140 . S
C370 O371 1.227 . S
C370 O380 1.265 1_565 S
O371 C370 1.227 . S
N372 Co369 2.121 . S
N372 C374 1.375 . S
N372 C375 1.313 . S
C373 C374 1.338 . S
C373 N376 1.377 . S
C373 H393 0.930 . S
C374 N372 1.375 . S
C374 C373 1.338 . S
C374 H378 0.931 . S
C375 N372 1.313 . S
C375 N376 1.344 . S
C375 H379 0.930 . S
N376 C373 1.377 . S
N376 C375 1.344 . S
O377 Co369 2.055 . S
O377 C381 1.253 . S
H378 C374 0.931 . S
H379 C375 0.930 . S
O380 Co369 2.039 . S
O380 C370 1.265 1_545 S
C381 O377 1.253 . S
C381 O382 1.227 . S
O382 C381 1.227 . S
N383 Co369 2.140 . S
N383 C386 1.346 . S
N383 C387 1.345 . S
C384 C385 1.387 . S
C384 C388 1.391 . S
C385 C384 1.387 . S
C385 C386 1.369 . S
C385 H394 0.929 . S
C386 N383 1.346 . S
C386 C385 1.369 . S
C386 H389 0.928 . S
C387 N383 1.345 . S
C387 C388 1.371 . S
C387 H390 0.931 . S
C388 C384 1.391 . S
C388 C387 1.371 . S
C388 H395 0.930 . S
H389 C386 0.928 . S
H390 C387 0.931 . S
H391 C367 0.930 . S
H392 C364 0.930 . S
H393 C373 0.930 . S
H394 C385 0.929 . S
H395 C388 0.930 . S
C396 C397 1.351 . S
C396 N399 1.368 . S
C396 H401 0.931 . S
C397 C396 1.351 . S
C397 N398 1.373 . S
C397 H425 0.930 . S
N398 C397 1.373 . S
N398 C400 1.340 . S
N399 C396 1.368 . S
N399 C400 1.321 . S
N399 Co402 2.135 . S
C400 N398 1.340 . S
C400 N399 1.321 . S
C400 H424 0.930 . S
H401 C396 0.931 . S
Co402 N399 2.135 . S
Co402 N405 2.121 . S
Co402 O410 2.055 . S
Co402 O413 2.039 . S
Co402 N416 2.140 . S
C403 O404 1.227 . S
C403 O413 1.265 . S
O404 C403 1.227 . S
N405 Co402 2.121 . S
N405 C407 1.375 . S
N405 C408 1.313 . S
C406 C407 1.338 . S
C406 N409 1.377 . S
C406 H426 0.930 . S
C407 N405 1.375 . S
C407 C406 1.338 . S
C407 H411 0.931 . S
C408 N405 1.313 . S
C408 N409 1.344 . S
C408 H412 0.930 . S
N409 C406 1.377 . S
N409 C408 1.344 . S
O410 Co402 2.055 . S
O410 C414 1.253 . S
H411 C407 0.931 . S
H412 C408 0.930 . S
O413 Co402 2.039 . S
O413 C403 1.265 . S
C414 O410 1.253 . S
C414 O415 1.227 . S
O415 C414 1.227 . S
N416 Co402 2.140 . S
N416 C419 1.346 . S
N416 C420 1.345 . S
C417 C418 1.387 . S
C417 C421 1.391 . S
C418 C417 1.387 . S
C418 C419 1.369 . S
C418 H427 0.929 . S
C419 N416 1.346 . S
C419 C418 1.369 . S
C419 H422 0.928 . S
C420 N416 1.345 . S
C420 C421 1.371 . S
C420 H423 0.931 . S
C421 C417 1.391 . S
C421 C420 1.371 . S
C421 H428 0.930 . S
H422 C419 0.928 . S
H423 C420 0.931 . S
H424 C400 0.930 . S
H425 C397 0.930 . S
H426 C406 0.930 . S
H427 C418 0.929 . S
H428 C421 0.930 . S
C429 C430 1.351 . S
C429 N432 1.368 . S
C429 H434 0.931 . S
C430 C429 1.351 . S
C430 N431 1.373 . S
C430 H458 0.930 . S
N431 C430 1.373 . S
N431 C433 1.340 . S
N432 C429 1.368 . S
N432 C433 1.321 . S
N432 Co435 2.135 . S
C433 N431 1.340 . S
C433 N432 1.321 . S
C433 H457 0.930 . S
H434 C429 0.931 . S
Co435 N432 2.135 . S
Co435 N438 2.121 . S
Co435 O443 2.055 . S
Co435 O446 2.039 . S
Co435 N449 2.140 . S
C436 O437 1.227 . S
C436 O446 1.265 . S
O437 C436 1.227 . S
N438 Co435 2.121 . S
N438 C440 1.375 . S
N438 C441 1.313 . S
C439 C440 1.338 . S
C439 N442 1.377 . S
C439 H459 0.930 . S
C440 N438 1.375 . S
C440 C439 1.338 . S
C440 H444 0.931 . S
C441 N438 1.313 . S
C441 N442 1.344 . S
C441 H445 0.930 . S
N442 C439 1.377 . S
N442 C441 1.344 . S
O443 Co435 2.055 . S
O443 C447 1.253 . S
H444 C440 0.931 . S
H445 C441 0.930 . S
O446 Co435 2.039 . S
O446 C436 1.265 . S
C447 O443 1.253 . S
C447 O448 1.227 . S
O448 C447 1.227 . S
N449 Co435 2.140 . S
N449 C452 1.346 . S
N449 C453 1.345 . S
C450 C451 1.387 . S
C450 C454 1.391 . S
C451 C450 1.387 . S
C451 C452 1.369 . S
C451 H460 0.929 . S
C452 N449 1.346 . S
C452 C451 1.369 . S
C452 H455 0.928 . S
C453 N449 1.345 . S
C453 C454 1.371 . S
C453 H456 0.931 . S
C454 C450 1.391 . S
C454 C453 1.371 . S
C454 H461 0.930 . S
H455 C452 0.928 . S
H456 C453 0.931 . S
H457 C433 0.930 . S
H458 C430 0.930 . S
H459 C439 0.930 . S
H460 C451 0.929 . S
H461 C454 0.930 . S
C462 C463 1.351 . S
C462 N465 1.368 . S
C462 H467 0.931 . S
C463 C462 1.351 . S
C463 N464 1.373 . S
C463 H491 0.930 . S
N464 C463 1.373 . S
N464 C466 1.340 . S
N465 C462 1.368 . S
N465 C466 1.321 . S
N465 Co468 2.135 . S
C466 N464 1.340 . S
C466 N465 1.321 . S
C466 H490 0.930 . S
H467 C462 0.931 . S
Co468 N465 2.135 . S
Co468 N471 2.121 . S
Co468 O476 2.055 . S
Co468 O479 2.039 . S
Co468 N482 2.140 . S
C469 O470 1.227 . S
C469 O479 1.265 . S
O470 C469 1.227 . S
N471 Co468 2.121 . S
N471 C473 1.375 . S
N471 C474 1.313 . S
C472 C473 1.338 . S
C472 N475 1.377 . S
C472 H492 0.930 . S
C473 N471 1.375 . S
C473 C472 1.338 . S
C473 H477 0.931 . S
C474 N471 1.313 . S
C474 N475 1.344 . S
C474 H478 0.930 . S
N475 C472 1.377 . S
N475 C474 1.344 . S
O476 Co468 2.055 . S
O476 C480 1.253 . S
H477 C473 0.931 . S
H478 C474 0.930 . S
O479 Co468 2.039 . S
O479 C469 1.265 . S
C480 O476 1.253 . S
C480 O481 1.227 . S
O481 C480 1.227 . S
N482 Co468 2.140 . S
N482 C485 1.346 . S
N482 C486 1.345 . S
C483 C484 1.387 . S
C483 C487 1.391 . S
C484 C483 1.387 . S
C484 C485 1.369 . S
C484 H493 0.929 . S
C485 N482 1.346 . S
C485 C484 1.369 . S
C485 H488 0.928 . S
C486 N482 1.345 . S
C486 C487 1.371 . S
C486 H489 0.931 . S
C487 C483 1.391 . S
C487 C486 1.371 . S
C487 H494 0.930 . S
H488 C485 0.928 . S
H489 C486 0.931 . S
H490 C466 0.930 . S
H491 C463 0.930 . S
H492 C472 0.930 . S
H493 C484 0.929 . S
H494 C487 0.930 . S
C495 C496 1.351 . S
C495 N498 1.368 . S
C495 H500 0.931 . S
C496 C495 1.351 . S
C496 N497 1.373 . S
C496 H524 0.930 . S
N497 C496 1.373 . S
N497 C499 1.340 . S
N498 C495 1.368 . S
N498 C499 1.321 . S
N498 Co501 2.135 . S
C499 N497 1.340 . S
C499 N498 1.321 . S
C499 H523 0.930 . S
H500 C495 0.931 . S
Co501 N498 2.135 . S
Co501 N504 2.121 . S
Co501 O509 2.055 . S
Co501 O512 2.039 . S
Co501 N515 2.140 . S
C502 O503 1.227 . S
C502 O512 1.265 . S
O503 C502 1.227 . S
N504 Co501 2.121 . S
N504 C506 1.375 . S
N504 C507 1.313 . S
C505 C506 1.338 . S
C505 N508 1.377 . S
C505 H525 0.930 . S
C506 N504 1.375 . S
C506 C505 1.338 . S
C506 H510 0.931 . S
C507 N504 1.313 . S
C507 N508 1.344 . S
C507 H511 0.930 . S
N508 C505 1.377 . S
N508 C507 1.344 . S
O509 Co501 2.055 . S
O509 C513 1.253 . S
H510 C506 0.931 . S
H511 C507 0.930 . S
O512 Co501 2.039 . S
O512 C502 1.265 . S
C513 O509 1.253 . S
C513 O514 1.227 . S
O514 C513 1.227 . S
N515 Co501 2.140 . S
N515 C518 1.346 . S
N515 C519 1.345 . S
C516 C517 1.387 . S
C516 C520 1.391 . S
C517 C516 1.387 . S
C517 C518 1.369 . S
C517 H526 0.929 . S
C518 N515 1.346 . S
C518 C517 1.369 . S
C518 H521 0.928 . S
C519 N515 1.345 . S
C519 C520 1.371 . S
C519 H522 0.931 . S
C520 C516 1.391 . S
C520 C519 1.371 . S
C520 H527 0.930 . S
H521 C518 0.928 . S
H522 C519 0.931 . S
H523 C499 0.930 . S
H524 C496 0.930 . S
H525 C505 0.930 . S
H526 C517 0.929 . S
H527 C520 0.930 . S
C528 C529 1.387 . S
C528 H532 0.950 . S
C528 C537 1.390 . S
C529 C528 1.387 . S
C529 C531 1.387 . S
H530 C537 0.950 . S
C531 C529 1.387 . S
C531 C533 1.390 . S
C531 H535 0.950 . S
H532 C528 0.950 . S
C533 C531 1.390 . S
C533 C534 1.387 . S
C533 H536 0.950 . S
C534 C533 1.387 . S
C534 C537 1.387 . S
H535 C531 0.950 . S
H536 C533 0.950 . S
C537 C528 1.390 . S
C537 H530 0.950 . S
C537 C534 1.387 . S
C538 C539 1.387 . S
C538 H542 0.950 . S
C538 C547 1.390 . S
C539 C538 1.387 . S
C539 C541 1.387 . S
H540 C547 0.950 . S
C541 C539 1.387 . S
C541 C543 1.390 . S
C541 H545 0.950 . S
H542 C538 0.950 . S
C543 C541 1.390 . S
C543 C544 1.387 . S
C543 H546 0.950 . S
C544 C543 1.387 . S
C544 C547 1.387 . S
H545 C541 0.950 . S
H546 C543 0.950 . S
C547 C538 1.390 . S
C547 H540 0.950 . S
C547 C544 1.387 . S
C548 C549 1.387 . S
C548 H552 0.950 . S
C548 C557 1.390 . S
C549 C548 1.387 . S
C549 C551 1.387 . S
H550 C557 0.950 . S
C551 C549 1.387 . S
C551 C553 1.390 . S
C551 H555 0.950 . S
H552 C548 0.950 . S
C553 C551 1.390 . S
C553 C554 1.387 . S
C553 H556 0.950 . S
C554 C553 1.387 . S
C554 C557 1.387 . S
H555 C551 0.950 . S
H556 C553 0.950 . S
C557 C548 1.390 . S
C557 H550 0.950 . S
C557 C554 1.387 . S
C558 C559 1.387 . S
C558 H562 0.950 . S
C558 C567 1.390 . S
C559 C558 1.387 . S
C559 C561 1.387 . S
H560 C567 0.950 . S
C561 C559 1.387 . S
C561 C563 1.390 . S
C561 H565 0.950 . S
H562 C558 0.950 . S
C563 C561 1.390 . S
C563 C564 1.387 . S
C563 H566 0.950 . S
C564 C563 1.387 . S
C564 C567 1.387 . S
H565 C561 0.950 . S
H566 C563 0.950 . S
C567 C558 1.390 . S
C567 H560 0.950 . S
C567 C564 1.387 . S
C568 C569 1.387 . S
C568 H572 0.950 . S
C568 C577 1.390 . S
C569 C568 1.387 . S
C569 C571 1.387 . S
H570 C577 0.950 . S
C571 C569 1.387 . S
C571 C573 1.390 . S
C571 H575 0.950 . S
H572 C568 0.950 . S
C573 C571 1.390 . S
C573 C574 1.387 . S
C573 H576 0.950 . S
C574 C573 1.387 . S
C574 C577 1.387 . S
H575 C571 0.950 . S
H576 C573 0.950 . S
C577 C568 1.390 . S
C577 H570 0.950 . S
C577 C574 1.387 . S
C578 C579 1.387 . S
C578 H582 0.950 . S
C578 C587 1.390 . S
C579 C578 1.387 . S
C579 C581 1.387 . S
H580 C587 0.950 . S
C581 C579 1.387 . S
C581 C583 1.390 . S
C581 H585 0.950 . S
H582 C578 0.950 . S
C583 C581 1.390 . S
C583 C584 1.387 . S
C583 H586 0.950 . S
C584 C583 1.387 . S
C584 C587 1.387 . S
H585 C581 0.950 . S
H586 C583 0.950 . S
C587 C578 1.390 . S
C587 H580 0.950 . S
C587 C584 1.387 . S
C588 C589 1.387 . S
C588 H592 0.950 . S
C588 C597 1.390 . S
C589 C588 1.387 . S
C589 C591 1.387 . S
H590 C597 0.950 . S
C591 C589 1.387 . S
C591 C593 1.390 . S
C591 H595 0.950 . S
H592 C588 0.950 . S
C593 C591 1.390 . S
C593 C594 1.387 . S
C593 H596 0.950 . S
C594 C593 1.387 . S
C594 C597 1.387 . S
H595 C591 0.950 . S
H596 C593 0.950 . S
C597 C588 1.390 . S
C597 H590 0.950 . S
C597 C594 1.387 . S
C598 C599 1.387 . S
C598 H602 0.950 . S
C598 C607 1.390 . S
C599 C598 1.387 . S
C599 C601 1.387 . S
H600 C607 0.950 . S
C601 C599 1.387 . S
C601 C603 1.390 . S
C601 H605 0.950 . S
H602 C598 0.950 . S
C603 C601 1.390 . S
C603 C604 1.387 . S
C603 H606 0.950 . S
C604 C603 1.387 . S
C604 C607 1.387 . S
H605 C601 0.950 . S
H606 C603 0.950 . S
C607 C598 1.390 . S
C607 H600 0.950 . S
C607 C604 1.387 . S
C608 C609 1.387 . S
C608 H612 0.950 . S
C608 C617 1.390 1_554 S
C609 C608 1.387 . S
C609 C611 1.387 . S
H610 C617 0.950 . S
C611 C609 1.387 . S
C611 C613 1.390 1_554 S
C611 H615 0.950 . S
H612 C608 0.950 . S
C613 C611 1.390 1_556 S
C613 C614 1.387 . S
C613 H616 0.950 . S
C614 C613 1.387 . S
C614 C617 1.387 . S
H615 C611 0.950 . S
H616 C613 0.950 . S
C617 C608 1.390 1_556 S
C617 H610 0.950 . S
C617 C614 1.387 . S
C618 C619 1.387 . S
C618 H622 0.950 . S
C618 C627 1.390 . S
C619 C618 1.387 . S
C619 C621 1.387 . S
H620 C627 0.950 . S
C621 C619 1.387 . S
C621 C623 1.390 . S
C621 H625 0.950 1_545 S
H622 C618 0.950 . S
C623 C621 1.390 . S
C623 C624 1.387 . S
C623 H626 0.950 1_545 S
C624 C623 1.387 . S
C624 C627 1.387 . S
H625 C621 0.950 1_565 S
H626 C623 0.950 1_565 S
C627 C618 1.390 . S
C627 H620 0.950 . S
C627 C624 1.387 . S
C628 C629 1.387 . S
C628 H632 0.950 . S
C628 C637 1.390 1_556 S
C629 C628 1.387 . S
C629 C631 1.387 . S
H630 C637 0.950 . S
C631 C629 1.387 . S
C631 C633 1.390 1_556 S
C631 H635 0.950 . S
H632 C628 0.950 . S
C633 C631 1.390 1_554 S
C633 C634 1.387 . S
C633 H636 0.950 . S
C634 C633 1.387 . S
C634 C637 1.387 . S
H635 C631 0.950 . S
H636 C633 0.950 . S
C637 C628 1.390 1_554 S
C637 H630 0.950 . S
C637 C634 1.387 . S
C638 C639 1.387 . S
C638 H642 0.950 . S
C638 C647 1.390 . S
C639 C638 1.387 . S
C639 C641 1.387 . S
H640 C647 0.950 . S
C641 C639 1.387 . S
C641 C643 1.390 . S
C641 H645 0.950 1_565 S
H642 C638 0.950 . S
C643 C641 1.390 . S
C643 C644 1.387 . S
C643 H646 0.950 1_565 S
C644 C643 1.387 . S
C644 C647 1.387 . S
H645 C641 0.950 1_545 S
H646 C643 0.950 1_545 S
C647 C638 1.390 . S
C647 H640 0.950 . S
C647 C644 1.387 . S
C648 C649 1.387 . S
C648 H652 0.950 . S
C648 C657 1.390 1_554 S
C649 C648 1.387 . S
C649 C651 1.387 . S
H650 C657 0.950 . S
C651 C649 1.387 . S
C651 C653 1.390 1_554 S
C651 H655 0.950 . S
H652 C648 0.950 . S
C653 C651 1.390 1_556 S
C653 C654 1.387 . S
C653 H656 0.950 . S
C654 C653 1.387 . S
C654 C657 1.387 . S
H655 C651 0.950 . S
H656 C653 0.950 . S
C657 C648 1.390 1_556 S
C657 H650 0.950 . S
C657 C654 1.387 . S
C658 C659 1.387 . S
C658 H662 0.950 . S
C658 C667 1.390 . S
C659 C658 1.387 . S
C659 C661 1.387 . S
H660 C667 0.950 . S
C661 C659 1.387 . S
C661 C663 1.390 . S
C661 H665 0.950 . S
H662 C658 0.950 . S
C663 C661 1.390 . S
C663 C664 1.387 . S
C663 H666 0.950 . S
C664 C663 1.387 . S
C664 C667 1.387 . S
H665 C661 0.950 . S
H666 C663 0.950 . S
C667 C658 1.390 . S
C667 H660 0.950 . S
C667 C664 1.387 . S
C668 C669 1.387 . S
C668 H672 0.950 . S
C668 C677 1.390 1_554 S
C669 C668 1.387 . S
C669 C671 1.387 . S
H670 C677 0.950 . S
C671 C669 1.387 . S
C671 C673 1.390 1_554 S
C671 H675 0.950 . S
H672 C668 0.950 . S
C673 C671 1.390 1_556 S
C673 C674 1.387 . S
C673 H676 0.950 . S
C674 C673 1.387 . S
C674 C677 1.387 . S
H675 C671 0.950 . S
H676 C673 0.950 . S
C677 C668 1.390 1_556 S
C677 H670 0.950 . S
C677 C674 1.387 . S
C678 C679 1.387 . S
C678 H682 0.950 . S
C678 C687 1.390 . S
C679 C678 1.387 . S
C679 C681 1.387 . S
H680 C687 0.950 . S
C681 C679 1.387 . S
C681 C683 1.390 . S
C681 H685 0.950 . S
H682 C678 0.950 . S
C683 C681 1.390 . S
C683 C684 1.387 . S
C683 H686 0.950 . S
C684 C683 1.387 . S
C684 C687 1.387 . S
H685 C681 0.950 . S
H686 C683 0.950 . S
C687 C678 1.390 . S
C687 H680 0.950 . S
C687 C684 1.387 . S
C688 C689 1.387 . S
C688 H692 0.950 . S
C688 C697 1.390 1_455 S
C689 C688 1.387 . S
C689 C691 1.387 . S
H690 C697 0.950 . S
C691 C689 1.387 . S
C691 C693 1.390 1_455 S
C691 H695 0.950 . S
H692 C688 0.950 . S
C693 C691 1.390 1_655 S
C693 C694 1.387 . S
C693 H696 0.950 . S
C694 C693 1.387 . S
C694 C697 1.387 . S
H695 C691 0.950 . S
H696 C693 0.950 . S
C697 C688 1.390 1_655 S
C697 H690 0.950 . S
C697 C694 1.387 . S
C698 C699 1.387 . S
C698 H702 0.950 . S
C698 C707 1.390 1_565 S
C699 C698 1.387 . S
C699 C701 1.387 . S
H700 C707 0.950 . S
C701 C699 1.387 . S
C701 C703 1.390 1_565 S
C701 H705 0.950 . S
H702 C698 0.950 . S
C703 C701 1.390 1_545 S
C703 C704 1.387 . S
C703 H706 0.950 . S
C704 C703 1.387 . S
C704 C707 1.387 . S
H705 C701 0.950 . S
H706 C703 0.950 . S
C707 C698 1.390 1_545 S
C707 H700 0.950 . S
C707 C704 1.387 . S
C708 C709 1.387 . S
C708 H712 0.950 . S
C708 C717 1.390 1_565 S
C709 C708 1.387 . S
C709 C711 1.387 . S
H710 C717 0.950 . S
C711 C709 1.387 . S
C711 C713 1.390 1_565 S
C711 H715 0.950 . S
H712 C708 0.950 . S
C713 C711 1.390 1_545 S
C713 C714 1.387 . S
C713 H716 0.950 . S
C714 C713 1.387 . S
C714 C717 1.387 . S
H715 C711 0.950 . S
H716 C713 0.950 . S
C717 C708 1.390 1_545 S
C717 H710 0.950 . S
C717 C714 1.387 . S
C718 C719 1.387 . S
C718 H722 0.950 . S
C718 C727 1.390 1_455 S
C719 C718 1.387 . S
C719 C721 1.387 . S
H720 C727 0.950 . S
C721 C719 1.387 . S
C721 C723 1.390 1_455 S
C721 H725 0.950 . S
H722 C718 0.950 . S
C723 C721 1.390 1_655 S
C723 C724 1.387 . S
C723 H726 0.950 . S
C724 C723 1.387 . S
C724 C727 1.387 . S
H725 C721 0.950 . S
H726 C723 0.950 . S
C727 C718 1.390 1_655 S
C727 H720 0.950 . S
C727 C724 1.387 . S
C728 C729 1.387 . S
C728 H732 0.950 . S
C728 C737 1.390 1_655 S
C729 C728 1.387 . S
C729 C731 1.387 . S
H730 C737 0.950 . S
C731 C729 1.387 . S
C731 C733 1.390 1_655 S
C731 H735 0.950 . S
H732 C728 0.950 . S
C733 C731 1.390 1_455 S
C733 C734 1.387 . S
C733 H736 0.950 . S
C734 C733 1.387 . S
C734 C737 1.387 . S
H735 C731 0.950 . S
H736 C733 0.950 . S
C737 C728 1.390 1_455 S
C737 H730 0.950 . S
C737 C734 1.387 . S
C738 C739 1.387 . S
C738 H742 0.950 . S
C738 C747 1.390 1_545 S
C739 C738 1.387 . S
C739 C741 1.387 . S
H740 C747 0.950 . S
C741 C739 1.387 . S
C741 C743 1.390 1_545 S
C741 H745 0.950 . S
H742 C738 0.950 . S
C743 C741 1.390 1_565 S
C743 C744 1.387 . S
C743 H746 0.950 . S
C744 C743 1.387 . S
C744 C747 1.387 . S
H745 C741 0.950 . S
H746 C743 0.950 . S
C747 C738 1.390 1_565 S
C747 H740 0.950 . S
C747 C744 1.387 . S
C748 C749 1.387 . S
C748 H752 0.950 . S
C748 C757 1.390 1_565 S
C749 C748 1.387 . S
C749 C751 1.387 . S
H750 C757 0.950 . S
C751 C749 1.387 . S
C751 C753 1.390 1_565 S
C751 H755 0.950 . S
H752 C748 0.950 . S
C753 C751 1.390 1_545 S
C753 C754 1.387 . S
C753 H756 0.950 . S
C754 C753 1.387 . S
C754 C757 1.387 . S
H755 C751 0.950 . S
H756 C753 0.950 . S
C757 C748 1.390 1_545 S
C757 H750 0.950 . S
C757 C754 1.387 . S
C758 C759 1.387 . S
C758 H762 0.950 . S
C758 C767 1.390 1_455 S
C759 C758 1.387 . S
C759 C761 1.387 . S
H760 C767 0.950 . S
C761 C759 1.387 . S
C761 C763 1.390 1_455 S
C761 H765 0.950 . S
H762 C758 0.950 . S
C763 C761 1.390 1_655 S
C763 C764 1.387 . S
C763 H766 0.950 . S
C764 C763 1.387 . S
C764 C767 1.387 . S
H765 C761 0.950 . S
H766 C763 0.950 . S
C767 C758 1.390 1_655 S
C767 H760 0.950 . S
C767 C764 1.387 . S
C768 C769 1.387 . S
C768 H772 0.950 . S
C768 C777 1.390 . S
C769 C768 1.387 . S
C769 C771 1.387 . S
H770 C777 0.950 . S
C771 C769 1.387 . S
C771 C773 1.390 . S
C771 H775 0.950 . S
H772 C768 0.950 . S
C773 C771 1.390 . S
C773 C774 1.387 . S
C773 H776 0.950 . S
C774 C773 1.387 . S
C774 C777 1.387 . S
H775 C771 0.950 . S
H776 C773 0.950 . S
C777 C768 1.390 . S
C777 H770 0.950 . S
C777 C774 1.387 . S
C778 C779 1.387 . S
C778 H782 0.950 . S
C778 C787 1.390 . S
C779 C778 1.387 . S
C779 C781 1.387 . S
H780 C787 0.950 . S
C781 C779 1.387 . S
C781 C783 1.390 . S
C781 H785 0.950 . S
H782 C778 0.950 . S
C783 C781 1.390 . S
C783 C784 1.387 . S
C783 H786 0.950 . S
C784 C783 1.387 . S
C784 C787 1.387 . S
H785 C781 0.950 . S
H786 C783 0.950 . S
C787 C778 1.390 . S
C787 H780 0.950 . S
C787 C784 1.387 . S
C788 C789 1.387 . S
C788 H792 0.950 . S
C788 C797 1.390 . S
C789 C788 1.387 . S
C789 C791 1.387 . S
H790 C797 0.950 . S
C791 C789 1.387 . S
C791 C793 1.390 . S
C791 H795 0.950 . S
H792 C788 0.950 . S
C793 C791 1.390 . S
C793 C794 1.387 . S
C793 H796 0.950 . S
C794 C793 1.387 . S
C794 C797 1.387 . S
H795 C791 0.950 . S
H796 C793 0.950 . S
C797 C788 1.390 . S
C797 H790 0.950 . S
C797 C794 1.387 . S
C798 C799 1.387 . S
C798 H802 0.950 . S
C798 C807 1.390 . S
C799 C798 1.387 . S
C799 C801 1.387 . S
H800 C807 0.950 . S
C801 C799 1.387 . S
C801 C803 1.390 . S
C801 H805 0.950 . S
H802 C798 0.950 . S
C803 C801 1.390 . S
C803 C804 1.387 . S
C803 H806 0.950 . S
C804 C803 1.387 . S
C804 C807 1.387 . S
H805 C801 0.950 . S
H806 C803 0.950 . S
C807 C798 1.390 . S
C807 H800 0.950 . S
C807 C804 1.387 . S
C808 C809 1.387 . S
C808 H812 0.950 . S
C808 C817 1.390 . S
C809 C808 1.387 . S
C809 C811 1.387 . S
H810 C817 0.950 . S
C811 C809 1.387 . S
C811 C813 1.390 . S
C811 H815 0.950 . S
H812 C808 0.950 . S
C813 C811 1.390 . S
C813 C814 1.387 . S
C813 H816 0.950 . S
C814 C813 1.387 . S
C814 C817 1.387 . S
H815 C811 0.950 . S
H816 C813 0.950 . S
C817 C808 1.390 . S
C817 H810 0.950 . S
C817 C814 1.387 . S
C818 C819 1.387 . S
C818 H822 0.950 . S
C818 C827 1.390 . S
C819 C818 1.387 . S
C819 C821 1.387 . S
H820 C827 0.950 . S
C821 C819 1.387 . S
C821 C823 1.390 . S
C821 H825 0.950 . S
H822 C818 0.950 . S
C823 C821 1.390 . S
C823 C824 1.387 . S
C823 H826 0.950 . S
C824 C823 1.387 . S
C824 C827 1.387 . S
H825 C821 0.950 . S
H826 C823 0.950 . S
C827 C818 1.390 . S
C827 H820 0.950 . S
C827 C824 1.387 . S
C828 C829 1.387 . S
C828 H832 0.950 . S
C828 C837 1.390 . S
C829 C828 1.387 . S
C829 C831 1.387 . S
H830 C837 0.950 . S
C831 C829 1.387 . S
C831 C833 1.390 . S
C831 H835 0.950 . S
H832 C828 0.950 . S
C833 C831 1.390 . S
C833 C834 1.387 . S
C833 H836 0.950 . S
C834 C833 1.387 . S
C834 C837 1.387 . S
H835 C831 0.950 . S
H836 C833 0.950 . S
C837 C828 1.390 . S
C837 H830 0.950 . S
C837 C834 1.387 . S
C838 C839 1.387 . S
C838 H842 0.950 . S
C838 C847 1.390 . S
C839 C838 1.387 . S
C839 C841 1.387 . S
H840 C847 0.950 . S
C841 C839 1.387 . S
C841 C843 1.390 . S
C841 H845 0.950 . S
H842 C838 0.950 . S
C843 C841 1.390 . S
C843 C844 1.387 . S
C843 H846 0.950 . S
C844 C843 1.387 . S
C844 C847 1.387 . S
H845 C841 0.950 . S
H846 C843 0.950 . S
C847 C838 1.390 . S
C847 H840 0.950 . S
C847 C844 1.387 . S
C848 C849 1.387 . S
C848 H852 0.950 . S
C848 C857 1.390 . S
C849 C848 1.387 . S
C849 C851 1.387 . S
H850 C857 0.950 . S
C851 C849 1.387 . S
C851 C853 1.390 . S
C851 H855 0.950 . S
H852 C848 0.950 . S
C853 C851 1.390 . S
C853 C854 1.387 . S
C853 H856 0.950 . S
C854 C853 1.387 . S
C854 C857 1.387 . S
H855 C851 0.950 . S
H856 C853 0.950 . S
C857 C848 1.390 . S
C857 H850 0.950 . S
C857 C854 1.387 . S
C858 C859 1.387 . S
C858 H862 0.950 . S
C858 C867 1.390 . S
C859 C858 1.387 . S
C859 C861 1.387 . S
H860 C867 0.950 . S
C861 C859 1.387 . S
C861 C863 1.390 . S
C861 H865 0.950 . S
H862 C858 0.950 . S
C863 C861 1.390 . S
C863 C864 1.387 . S
C863 H866 0.950 . S
C864 C863 1.387 . S
C864 C867 1.387 . S
H865 C861 0.950 . S
H866 C863 0.950 . S
C867 C858 1.390 . S
C867 H860 0.950 . S
C867 C864 1.387 . S
C868 C869 1.387 . S
C868 H872 0.950 . S
C868 C877 1.390 . S
C869 C868 1.387 . S
C869 C871 1.387 . S
H870 C877 0.950 . S
C871 C869 1.387 . S
C871 C873 1.390 . S
C871 H875 0.950 . S
H872 C868 0.950 . S
C873 C871 1.390 . S
C873 C874 1.387 . S
C873 H876 0.950 . S
C874 C873 1.387 . S
C874 C877 1.387 . S
H875 C871 0.950 . S
H876 C873 0.950 . S
C877 C868 1.390 . S
C877 H870 0.950 . S
C877 C874 1.387 . S
C878 C879 1.387 . S
C878 H882 0.950 . S
C878 C887 1.390 . S
C879 C878 1.387 . S
C879 C881 1.387 . S
H880 C887 0.950 . S
C881 C879 1.387 . S
C881 C883 1.390 . S
C881 H885 0.950 . S
H882 C878 0.950 . S
C883 C881 1.390 . S
C883 C884 1.387 . S
C883 H886 0.950 . S
C884 C883 1.387 . S
C884 C887 1.387 . S
H885 C881 0.950 . S
H886 C883 0.950 . S
C887 C878 1.390 . S
C887 H880 0.950 . S
C887 C884 1.387 . S
C888 C889 1.387 . S
C888 H892 0.950 . S
C888 C897 1.390 . S
C889 C888 1.387 . S
C889 C891 1.387 . S
H890 C897 0.950 . S
C891 C889 1.387 . S
C891 C893 1.390 . S
C891 H895 0.950 . S
H892 C888 0.950 . S
C893 C891 1.390 . S
C893 C894 1.387 . S
C893 H896 0.950 . S
C894 C893 1.387 . S
C894 C897 1.387 . S
H895 C891 0.950 . S
H896 C893 0.950 . S
C897 C888 1.390 . S
C897 H890 0.950 . S
C897 C894 1.387 . S
C898 C899 1.387 . S
C898 H902 0.950 . S
C898 C907 1.390 . S
C899 C898 1.387 . S
C899 C901 1.387 . S
H900 C907 0.950 . S
C901 C899 1.387 . S
C901 C903 1.390 . S
C901 H905 0.950 . S
H902 C898 0.950 . S
C903 C901 1.390 . S
C903 C904 1.387 . S
C903 H906 0.950 . S
C904 C903 1.387 . S
C904 C907 1.387 . S
H905 C901 0.950 . S
H906 C903 0.950 . S
C907 C898 1.390 . S
C907 H900 0.950 . S
C907 C904 1.387 . S
C908 C909 1.387 . S
C908 H912 0.950 . S
C908 C917 1.390 . S
C909 C908 1.387 . S
C909 C911 1.387 . S
H910 C917 0.950 . S
C911 C909 1.387 . S
C911 C913 1.390 . S
C911 H915 0.950 . S
H912 C908 0.950 . S
C913 C911 1.390 . S
C913 C914 1.387 . S
C913 H916 0.950 . S
C914 C913 1.387 . S
C914 C917 1.387 . S
H915 C911 0.950 . S
H916 C913 0.950 . S
C917 C908 1.390 . S
C917 H910 0.950 . S
C917 C914 1.387 . S
C918 C919 1.387 . S
C918 H922 0.950 . S
C918 C927 1.390 . S
C919 C918 1.387 . S
C919 C921 1.387 . S
H920 C927 0.950 . S
C921 C919 1.387 . S
C921 C923 1.390 . S
C921 H925 0.950 . S
H922 C918 0.950 . S
C923 C921 1.390 . S
C923 C924 1.387 . S
C923 H926 0.950 . S
C924 C923 1.387 . S
C924 C927 1.387 . S
H925 C921 0.950 . S
H926 C923 0.950 . S
C927 C918 1.390 . S
C927 H920 0.950 . S
C927 C924 1.387 . S
C529 N13 1.832 . S
C534 N244 1.832 . S
C539 N145 1.832 . S
C544 N46 1.831 . S
C549 N178 1.833 . S
C554 N79 1.832 . S
C559 N211 1.832 . S
C564 N112 1.832 . S
C569 N277 1.832 . S
C574 N508 1.832 . S
C579 N310 1.833 . S
C584 N409 1.831 . S
C589 N442 1.833 . S
C594 N343 1.831 . S
C599 N376 1.833 . S
C604 N475 1.831 . S
C609 N2 1.542 . S
C614 N332 1.545 . S
C619 N365 1.544 . S
C624 N35 1.544 . S
C629 N266 1.545 . S
C634 N68 1.542 . S
C639 N299 1.544 . S
C644 N101 1.544 . S
C649 N464 1.544 . S
C654 N134 1.543 . S
C659 N497 1.543 . S
C664 N167 1.544 . S
C669 N398 1.545 . S
C674 N200 1.542 . S
C679 N431 1.544 . S
C684 N233 1.543 . S
C689 C21 0.708 . S
C694 C87 0.708 . S
C699 C120 0.708 . S
C704 C54 0.708 . S
C709 C219 0.719 . S
C714 C153 0.719 . S
C719 C252 0.708 . S
C724 C186 0.708 . S
C729 C285 0.708 . S
C734 C351 0.708 . S
C739 C384 0.719 . S
C744 C318 0.719 . S
C749 C417 0.719 . S
C754 C483 0.719 . S
C759 C450 0.708 . S
C764 C516 0.708 . S
C769 C469 1.757 . S
C774 C18 1.931 . S
C779 C51 1.931 . S
C784 C502 1.757 . S
C789 C403 1.757 . S
C794 C84 1.931 . S
C799 C436 1.761 . S
C804 C117 1.934 . S
C809 C337 1.757 . S
C814 C150 1.931 . S
C819 C183 1.931 . S
C824 C370 1.756 . S
C829 C271 1.761 . S
C834 C216 1.934 . S
C839 C249 1.931 . S
C844 C304 1.756 . S
C849 C205 1.761 . S
C854 C282 1.934 . S
C859 C238 1.761 . S
C864 C315 1.934 . S
C869 C139 1.756 . S
C874 C348 1.931 . S
C879 C381 1.931 . S
C884 C172 1.756 . S
C889 C73 1.757 . S
C894 C414 1.931 . S
C899 C447 1.931 . S
C904 C106 1.756 . S
C909 C480 1.934 . S
C914 C7 1.761 . S
C919 C40 1.756 . S
C924 C513 1.931 . S
