# Generated by pormake.
# Topology snl, (6)-cn, num edge types: 1
# Building blocks:
#     Node 0, Type 0, BuildingBlock: BETFEN_clean_sbu_0, # of connection points: 6
#     Node 1, Type 0, BuildingBlock: BETFEN_clean_sbu_0, # of connection points: 6
#     Node 2, Type 0, BuildingBlock: BETFEN_clean_sbu_0, # of connection points: 6
#     Node 3, Type 0, BuildingBlock: BETFEN_clean_sbu_0, # of connection points: 6
#     Node 4, Type 0, BuildingBlock: BETFEN_clean_sbu_0, # of connection points: 6
#     Node 5, Type 0, BuildingBlock: BETFEN_clean_sbu_0, # of connection points: 6
#     Node 6, Type 0, BuildingBlock: BETFEN_clean_sbu_0, # of connection points: 6
#     Node 7, Type 0, BuildingBlock: BETFEN_clean_sbu_0, # of connection points: 6
#     Node 8, Type 0, BuildingBlock: BETFEN_clean_sbu_0, # of connection points: 6
#     Node 9, Type 0, BuildingBlock: BETFEN_clean_sbu_0, # of connection points: 6
#     Node 10, Type 0, BuildingBlock: BETFEN_clean_sbu_0, # of connection points: 6
#     Node 11, Type 0, BuildingBlock: BETFEN_clean_sbu_0, # of connection points: 6
#     Node 12, Type 0, BuildingBlock: BETFEN_clean_sbu_0, # of connection points: 6
#     Node 13, Type 0, BuildingBlock: BETFEN_clean_sbu_0, # of connection points: 6
#     Node 14, Type 0, BuildingBlock: BETFEN_clean_sbu_0, # of connection points: 6
#     Node 15, Type 0, BuildingBlock: BETFEN_clean_sbu_0, # of connection points: 6
#     Edge 16, Type (0, 0), BuildingBlock: XUDNAN_clean_linker_2, # of connection points: 2
#     Edge 17, Type (0, 0), BuildingBlock: XUDNAN_clean_linker_2, # of connection points: 2
#     Edge 18, Type (0, 0), BuildingBlock: XUDNAN_clean_linker_2, # of connection points: 2
#     Edge 19, Type (0, 0), BuildingBlock: XUDNAN_clean_linker_2, # of connection points: 2
#     Edge 20, Type (0, 0), BuildingBlock: XUDNAN_clean_linker_2, # of connection points: 2
#     Edge 21, Type (0, 0), BuildingBlock: XUDNAN_clean_linker_2, # of connection points: 2
#     Edge 22, Type (0, 0), BuildingBlock: XUDNAN_clean_linker_2, # of connection points: 2
#     Edge 23, Type (0, 0), BuildingBlock: XUDNAN_clean_linker_2, # of connection points: 2
#     Edge 24, Type (0, 0), BuildingBlock: XUDNAN_clean_linker_2, # of connection points: 2
#     Edge 25, Type (0, 0), BuildingBlock: XUDNAN_clean_linker_2, # of connection points: 2
#     Edge 26, Type (0, 0), BuildingBlock: XUDNAN_clean_linker_2, # of connection points: 2
#     Edge 27, Type (0, 0), BuildingBlock: XUDNAN_clean_linker_2, # of connection points: 2
#     Edge 28, Type (0, 0), BuildingBlock: XUDNAN_clean_linker_2, # of connection points: 2
#     Edge 29, Type (0, 0), BuildingBlock: XUDNAN_clean_linker_2, # of connection points: 2
#     Edge 30, Type (0, 0), BuildingBlock: XUDNAN_clean_linker_2, # of connection points: 2
#     Edge 31, Type (0, 0), BuildingBlock: XUDNAN_clean_linker_2, # of connection points: 2
#     Edge 32, Type (0, 0), BuildingBlock: XUDNAN_clean_linker_2, # of connection points: 2
#     Edge 33, Type (0, 0), BuildingBlock: XUDNAN_clean_linker_2, # of connection points: 2
#     Edge 34, Type (0, 0), BuildingBlock: XUDNAN_clean_linker_2, # of connection points: 2
#     Edge 35, Type (0, 0), BuildingBlock: XUDNAN_clean_linker_2, # of connection points: 2
#     Edge 36, Type (0, 0), BuildingBlock: XUDNAN_clean_linker_2, # of connection points: 2
#     Edge 37, Type (0, 0), BuildingBlock: XUDNAN_clean_linker_2, # of connection points: 2
#     Edge 38, Type (0, 0), BuildingBlock: XUDNAN_clean_linker_2, # of connection points: 2
#     Edge 39, Type (0, 0), BuildingBlock: XUDNAN_clean_linker_2, # of connection points: 2
#     Edge 40, Type (0, 0), BuildingBlock: XUDNAN_clean_linker_2, # of connection points: 2
#     Edge 41, Type (0, 0), BuildingBlock: XUDNAN_clean_linker_2, # of connection points: 2
#     Edge 42, Type (0, 0), BuildingBlock: XUDNAN_clean_linker_2, # of connection points: 2
#     Edge 43, Type (0, 0), BuildingBlock: XUDNAN_clean_linker_2, # of connection points: 2
#     Edge 44, Type (0, 0), BuildingBlock: XUDNAN_clean_linker_2, # of connection points: 2
#     Edge 45, Type (0, 0), BuildingBlock: XUDNAN_clean_linker_2, # of connection points: 2
#     Edge 46, Type (0, 0), BuildingBlock: XUDNAN_clean_linker_2, # of connection points: 2
#     Edge 47, Type (0, 0), BuildingBlock: XUDNAN_clean_linker_2, # of connection points: 2
#     Edge 48, Type (0, 0), BuildingBlock: XUDNAN_clean_linker_2, # of connection points: 2
#     Edge 49, Type (0, 0), BuildingBlock: XUDNAN_clean_linker_2, # of connection points: 2
#     Edge 50, Type (0, 0), BuildingBlock: XUDNAN_clean_linker_2, # of connection points: 2
#     Edge 51, Type (0, 0), BuildingBlock: XUDNAN_clean_linker_2, # of connection points: 2
#     Edge 52, Type (0, 0), BuildingBlock: XUDNAN_clean_linker_2, # of connection points: 2
#     Edge 53, Type (0, 0), BuildingBlock: XUDNAN_clean_linker_2, # of connection points: 2
#     Edge 54, Type (0, 0), BuildingBlock: XUDNAN_clean_linker_2, # of connection points: 2
#     Edge 55, Type (0, 0), BuildingBlock: XUDNAN_clean_linker_2, # of connection points: 2
#     Edge 56, Type (0, 0), BuildingBlock: XUDNAN_clean_linker_2, # of connection points: 2
#     Edge 57, Type (0, 0), BuildingBlock: XUDNAN_clean_linker_2, # of connection points: 2
#     Edge 58, Type (0, 0), BuildingBlock: XUDNAN_clean_linker_2, # of connection points: 2
#     Edge 59, Type (0, 0), BuildingBlock: XUDNAN_clean_linker_2, # of connection points: 2
#     Edge 60, Type (0, 0), BuildingBlock: XUDNAN_clean_linker_2, # of connection points: 2
#     Edge 61, Type (0, 0), BuildingBlock: XUDNAN_clean_linker_2, # of connection points: 2
#     Edge 62, Type (0, 0), BuildingBlock: XUDNAN_clean_linker_2, # of connection points: 2
#     Edge 63, Type (0, 0), BuildingBlock: XUDNAN_clean_linker_2, # of connection points: 2
# Relax obj value: 0.188
# Max RMSD: 0.219
# Mean RMSD: 0.219
data_MOF--net-snl--node1-BETFEN_clean_sbu_0--edge1-XUDNAN_clean_linker_2
_symmetry_space_group_name_H-M    P1
_symmetry_Int_Tables_number       1
_symmetry_cell_setting            triclinic
loop_
_symmetry_equiv_pos_as_xyz
'x, y, z'
_cell_length_a     55.597625
_cell_length_b     58.275707
_cell_length_c     26.136164
_cell_angle_alpha  90.035726
_cell_angle_beta   90.146785
_cell_angle_gamma 89.938454
loop_
_atom_site_label
_atom_site_type_symbol
_atom_site_fract_x
_atom_site_fract_y
_atom_site_fract_z
_atom_type_partial_charge
Pr0 Pr 0.15734 0.63148 0.04407 0.0
Pr1 Pr 0.13513 0.62599 0.14654 0.0
C2 C 0.17119 0.6323 0.94457 0.0
C3 C 0.16406 0.6308 0.88986 0.0
C4 C 0.17023 0.64876 0.85644 0.0
C5 C 0.16689 0.64653 0.80346 0.0
C6 C 0.15742 0.62619 0.78265 0.0
C7 C 0.15004 0.60873 0.81649 0.0
C8 C 0.15337 0.61098 0.86943 0.0
C9 C 0.14961 0.67349 0.09414 0.0
C10 C 0.09746 0.62744 0.05559 0.0
C11 C 0.12225 0.63007 0.24603 0.0
C12 C 0.13065 0.62713 0.29978 0.0
C13 C 0.1267 0.60641 0.32581 0.0
C14 C 0.13251 0.60427 0.37771 0.0
C15 C 0.14246 0.62278 0.40524 0.0
C16 C 0.14659 0.64351 0.37912 0.0
C17 C 0.14073 0.64566 0.32707 0.0
C18 C 0.14356 0.58386 0.09613 0.0
C19 C 0.19456 0.63074 0.1408 0.0
O20 O 0.17094 0.61369 0.97247 0.0
O21 O 0.16513 0.65063 0.97012 0.0
O22 O 0.13452 0.65722 0.09137 0.0
O23 O 0.16966 0.66758 0.07263 0.0
O24 O 0.10026 0.63472 0.10268 0.0
O25 O 0.11632 0.62128 0.02783 0.0
O26 O 0.13157 0.64679 0.21933 0.0
O27 O 0.11786 0.61175 0.21853 0.0
O28 O 0.1581 0.60054 0.09774 0.0
O29 O 0.12445 0.58819 0.12302 0.0
O30 O 0.19357 0.62726 0.09083 0.0
O31 O 0.17499 0.63313 0.16822 0.0
H32 H 0.17858 0.66421 0.87115 0.0
H33 H 0.17287 0.66026 0.77869 0.0
H34 H 0.14222 0.59301 0.80192 0.0
H35 H 0.14827 0.59688 0.89411 0.0
H36 H 0.11861 0.59191 0.30639 0.0
H37 H 0.1286 0.58816 0.39656 0.0
H38 H 0.1544 0.65806 0.39881 0.0
H39 H 0.14376 0.66199 0.30842 0.0
Pr40 Pr 0.65687 0.88458 0.4896 0.0
Pr41 Pr 0.63429 0.88803 0.38031 0.0
C42 C 0.66774 0.89673 0.58634 0.0
C43 C 0.66288 0.89247 0.64131 0.0
C44 C 0.67629 0.87653 0.67016 0.0
C45 C 0.67379 0.87557 0.72361 0.0
C46 C 0.65808 0.89072 0.74877 0.0
C47 C 0.64379 0.90567 0.71965 0.0
C48 C 0.64617 0.90656 0.66667 0.0
C49 C 0.64809 0.83933 0.45883 0.0
C50 C 0.5969 0.88044 0.4721 0.0
C51 C 0.62188 0.88149 0.28153 0.0
C52 C 0.62948 0.8851 0.2279 0.0
C53 C 0.62312 0.90527 0.20189 0.0
C54 C 0.62867 0.90795 0.1502 0.0
C55 C 0.64075 0.89053 0.12316 0.0
C56 C 0.6471 0.87029 0.14913 0.0
C57 C 0.64147 0.86759 0.20093 0.0
C58 C 0.64157 0.93051 0.4316 0.0
C59 C 0.69395 0.88947 0.38908 0.0
O60 O 0.65002 0.9056 0.55978 0.0
O61 O 0.68107 0.8823 0.56011 0.0
O62 O 0.6434 0.85696 0.43192 0.0
O63 O 0.65816 0.84515 0.50169 0.0
O64 O 0.60054 0.87611 0.42358 0.0
O65 O 0.61451 0.88715 0.50287 0.0
O66 O 0.6339 0.86646 0.30856 0.0
O67 O 0.61487 0.8993 0.30826 0.0
O68 O 0.65548 0.91342 0.43092 0.0
O69 O 0.62294 0.92647 0.40266 0.0
O70 O 0.69249 0.8903 0.43993 0.0
O71 O 0.67482 0.88752 0.35969 0.0
H72 H 0.68939 0.86552 0.65181 0.0
H73 H 0.68511 0.86401 0.74545 0.0
H74 H 0.63152 0.91747 0.73822 0.0
H75 H 0.63565 0.91914 0.64586 0.0
H76 H 0.61348 0.91891 0.2212 0.0
H77 H 0.62306 0.92357 0.13118 0.0
H78 H 0.65655 0.85661 0.12956 0.0
H79 H 0.6463 0.85166 0.2197 0.0
Pr80 Pr 0.36413 0.38304 0.54255 0.0
Pr81 Pr 0.3838 0.39186 0.65593 0.0
C82 C 0.34422 0.38469 0.44822 0.0
C83 C 0.34995 0.38228 0.39303 0.0
C84 C 0.34008 0.36387 0.36556 0.0
C85 C 0.34422 0.36152 0.31316 0.0
C86 C 0.35843 0.37752 0.28656 0.0
C87 C 0.36819 0.39615 0.31393 0.0
C88 C 0.364 0.39851 0.36665 0.0
C89 C 0.37877 0.34279 0.59286 0.0
C90 C 0.42267 0.38784 0.56166 0.0
C91 C 0.39917 0.38758 0.75344 0.0
C92 C 0.39027 0.38646 0.80666 0.0
C93 C 0.40014 0.40129 0.84348 0.0
C94 C 0.394 0.39914 0.89513 0.0
C95 C 0.37795 0.38197 0.91106 0.0
C96 C 0.36708 0.36792 0.87373 0.0
C97 C 0.37315 0.37015 0.82201 0.0
C98 C 0.37795 0.4339 0.60105 0.0
C99 C 0.32536 0.38857 0.64308 0.0
O100 O 0.35211 0.40286 0.47246 0.0
O101 O 0.34471 0.36607 0.47622 0.0
O102 O 0.36726 0.35941 0.61355 0.0
O103 O 0.38467 0.34835 0.54627 0.0
O104 O 0.41871 0.38326 0.61037 0.0
O105 O 0.40499 0.39199 0.52878 0.0
O106 O 0.39523 0.36999 0.72333 0.0
O107 O 0.39736 0.40732 0.73011 0.0
O108 O 0.37378 0.41368 0.58789 0.0
O109 O 0.38575 0.43333 0.64788 0.0
O110 O 0.32819 0.38492 0.59306 0.0
O111 O 0.34351 0.3918 0.67449 0.0
H112 H 0.32887 0.35132 0.38461 0.0
H113 H 0.33593 0.34724 0.29333 0.0
H114 H 0.37932 0.40873 0.29481 0.0
H115 H 0.37173 0.41305 0.3866 0.0
H116 H 0.41327 0.41408 0.83248 0.0
H117 H 0.40277 0.41016 0.92284 0.0
H118 H 0.35431 0.35481 0.8847 0.0
H119 H 0.36495 0.3587 0.79437 0.0
Pr120 Pr 0.86116 0.13012 0.99118 0.0
Pr121 Pr 0.88342 0.12741 0.88205 0.0
C122 C 0.84695 0.12787 0.09 0.0
C123 C 0.85461 0.12739 0.14421 0.0
C124 C 0.84285 0.1417 0.17944 0.0
C125 C 0.8477 0.13999 0.23186 0.0
C126 C 0.86442 0.12384 0.25022 0.0
C127 C 0.87706 0.1103 0.2145 0.0
C128 C 0.87217 0.112 0.16204 0.0
C129 C 0.86486 0.17249 0.94097 0.0
C130 C 0.92156 0.13115 0.97641 0.0
C131 C 0.89633 0.13864 0.78603 0.0
C132 C 0.89089 0.13318 0.73173 0.0
C133 C 0.90306 0.11541 0.70633 0.0
C134 C 0.89892 0.11125 0.65435 0.0
C135 C 0.88248 0.12474 0.62635 0.0
C136 C 0.8702 0.14246 0.65188 0.0
C137 C 0.87442 0.14667 0.70387 0.0
C138 C 0.87617 0.08169 0.91852 0.0
C139 C 0.82488 0.12413 0.89175 0.0
O140 O 0.85079 0.10974 0.06161 0.0
O141 O 0.84949 0.14714 0.06519 0.0
O142 O 0.88095 0.15704 0.9413 0.0
O143 O 0.84579 0.16563 0.96512 0.0
O144 O 0.91821 0.13481 0.92724 0.0
O145 O 0.90337 0.1268 1.00794 0.0
O146 O 0.87964 0.14952 0.81177 0.0
O147 O 0.90802 0.12341 0.81353 0.0
O148 O 0.8713 0.10011 0.9414 0.0
O149 O 0.88478 0.08668 0.87374 0.0
O150 O 0.82757 0.11842 0.9406 0.0
O151 O 0.84282 0.13234 0.86506 0.0
H152 H 0.82925 0.15372 0.16651 0.0
H153 H 0.83752 0.15059 0.2581 0.0
H154 H 0.89045 0.09803 0.22717 0.0
H155 H 0.88169 0.10092 0.13566 0.0
H156 H 0.91609 0.10487 0.72636 0.0
H157 H 0.90906 0.09773 0.63588 0.0
H158 H 0.85724 0.15304 0.6318 0.0
H159 H 0.86488 0.16066 0.72213 0.0
Pr160 Pr 0.15765 0.38203 0.98705 0.0
Pr161 Pr 0.13389 0.38739 0.88669 0.0
C162 C 0.17176 0.38608 0.08633 0.0
C163 C 0.16436 0.38614 0.1413 0.0
C164 C 0.17049 0.36767 0.17364 0.0
C165 C 0.16719 0.36917 0.22691 0.0
C166 C 0.15794 0.38931 0.24922 0.0
C167 C 0.15062 0.40724 0.21653 0.0
C168 C 0.15383 0.40572 0.16345 0.0
C169 C 0.15017 0.33941 0.93988 0.0
C170 C 0.09656 0.38102 0.97726 0.0
C171 C 0.12043 0.38703 0.7867 0.0
C172 C 0.12917 0.38892 0.73288 0.0
C173 C 0.12638 0.40967 0.70621 0.0
C174 C 0.13239 0.41131 0.65437 0.0
C175 C 0.14142 0.39225 0.62728 0.0
C176 C 0.14431 0.37143 0.65397 0.0
C177 C 0.13825 0.36978 0.7061 0.0
C178 C 0.14163 0.4289 0.93998 0.0
C179 C 0.19297 0.38061 0.88809 0.0
O180 O 0.16558 0.40348 0.05751 0.0
O181 O 0.17211 0.36667 0.06132 0.0
O182 O 0.13489 0.35566 0.94115 0.0
O183 O 0.17002 0.34549 0.96241 0.0
O184 O 0.09886 0.3783 0.9278 0.0
O185 O 0.11551 0.38481 1.00718 0.0
O186 O 0.12557 0.3685 0.81265 0.0
O187 O 0.12044 0.40549 0.81514 0.0
O188 O 0.15709 0.41322 0.93381 0.0
O189 O 0.12135 0.42341 0.91861 0.0
O190 O 0.19309 0.38607 0.93724 0.0
O191 O 0.17269 0.37743 0.86347 0.0
H192 H 0.1788 0.3524 0.15799 0.0
H193 H 0.1731 0.35507 0.25081 0.0
H194 H 0.14303 0.42285 0.23218 0.0
H195 H 0.14886 0.42032 0.14005 0.0
H196 H 0.11903 0.42464 0.72517 0.0
H197 H 0.12938 0.42753 0.63521 0.0
H198 H 0.15137 0.35642 0.6347 0.0
H199 H 0.14041 0.35341 0.72518 0.0
Pr200 Pr 0.86208 0.88064 0.04262 0.0
Pr201 Pr 0.88476 0.88917 0.15304 0.0
C202 C 0.84839 0.87772 0.94378 0.0
C203 C 0.85457 0.88137 0.88952 0.0
C204 C 0.85027 0.86354 0.85459 0.0
C205 C 0.85338 0.86699 0.80213 0.0
C206 C 0.86087 0.88843 0.78342 0.0
C207 C 0.8662 0.906 0.81879 0.0
C208 C 0.86302 0.90253 0.87137 0.0
C209 C 0.8691 0.84094 0.10131 0.0
C210 C 0.92232 0.88726 0.05866 0.0
C211 C 0.89829 0.8816 0.25055 0.0
C212 C 0.89035 0.88552 0.30396 0.0
C213 C 0.89359 0.90682 0.32814 0.0
C214 C 0.88727 0.90975 0.3795 0.0
C215 C 0.87754 0.89146 0.40792 0.0
C216 C 0.87401 0.87025 0.38344 0.0
C217 C 0.8804 0.8673 0.33214 0.0
C218 C 0.87411 0.9318 0.10279 0.0
C219 C 0.82543 0.8868 0.14113 0.0
O220 O 0.84382 0.89561 0.97262 0.0
O221 O 0.85943 0.86112 0.96793 0.0
O222 O 0.88388 0.85748 0.09768 0.0
O223 O 0.84943 0.84557 0.07645 0.0
O224 O 0.91996 0.88359 0.10807 0.0
O225 O 0.90351 0.88961 0.02737 0.0
O226 O 0.88557 0.86704 0.2236 0.0
O227 O 0.90611 0.89912 0.22376 0.0
O228 O 0.87046 0.91154 0.08899 0.0
O229 O 0.88356 0.9309 0.14839 0.0
O230 O 0.82735 0.89015 0.09103 0.0
O231 O 0.84429 0.88274 0.17021 0.0
H232 H 0.84371 0.84708 0.8678 0.0
H233 H 0.84891 0.85314 0.77617 0.0
H234 H 0.87247 0.92258 0.8058 0.0
H235 H 0.86667 0.91652 0.89758 0.0
H236 H 0.90135 0.92117 0.30771 0.0
H237 H 0.89057 0.92624 0.39728 0.0
H238 H 0.86627 0.85589 0.40389 0.0
H239 H 0.87777 0.85063 0.31466 0.0
Pr240 Pr 0.36096 0.62792 0.49494 0.0
Pr241 Pr 0.38154 0.62806 0.37656 0.0
C242 C 0.34796 0.61343 0.58856 0.0
C243 C 0.35188 0.61887 0.643 0.0
C244 C 0.34896 0.64122 0.66208 0.0
C245 C 0.35305 0.64583 0.71387 0.0
C246 C 0.36038 0.62825 0.74746 0.0
C247 C 0.3633 0.60592 0.72804 0.0
C248 C 0.35903 0.60129 0.67637 0.0
C249 C 0.36899 0.67356 0.46357 0.0
C250 C 0.42044 0.63245 0.47213 0.0
C251 C 0.39404 0.641 0.28188 0.0
C252 C 0.38679 0.63841 0.22776 0.0
C253 C 0.39338 0.61909 0.1986 0.0
C254 C 0.38904 0.61864 0.14576 0.0
C255 C 0.37828 0.63756 0.1215 0.0
C256 C 0.37037 0.65613 0.15124 0.0
C257 C 0.37465 0.65659 0.20371 0.0
C258 C 0.37553 0.58259 0.41426 0.0
C259 C 0.32267 0.62645 0.39382 0.0
O260 O 0.36654 0.60521 0.56391 0.0
O261 O 0.33491 0.62769 0.56129 0.0
O262 O 0.37258 0.65555 0.43725 0.0
O263 O 0.36121 0.66776 0.50866 0.0
O264 O 0.41596 0.63585 0.42309 0.0
O265 O 0.40338 0.62736 0.50584 0.0
O266 O 0.37952 0.6529 0.3111 0.0
O267 O 0.40415 0.62353 0.30523 0.0
O268 O 0.37092 0.60131 0.4362 0.0
O269 O 0.38345 0.58732 0.36867 0.0
O270 O 0.32531 0.62457 0.44432 0.0
O271 O 0.34072 0.62883 0.36191 0.0
H272 H 0.34356 0.65513 0.63708 0.0
H273 H 0.35028 0.66316 0.7276 0.0
H274 H 0.3693 0.59205 0.75252 0.0
H275 H 0.3615 0.58395 0.66231 0.0
H276 H 0.40268 0.60476 0.21611 0.0
H277 H 0.39531 0.60413 0.12354 0.0
H278 H 0.36172 0.67078 0.1335 0.0
H279 H 0.36929 0.67167 0.2251 0.0
Pr280 Pr 0.65466 0.12744 0.54011 0.0
Pr281 Pr 0.63893 0.126 0.65533 0.0
C282 C 0.67196 0.12083 0.44498 0.0
C283 C 0.66724 0.1261 0.39047 0.0
C284 C 0.68046 0.1434 0.36598 0.0
C285 C 0.67744 0.14754 0.31377 0.0
C286 C 0.6611 0.1345 0.28465 0.0
C287 C 0.64776 0.11724 0.30921 0.0
C288 C 0.65085 0.11304 0.36152 0.0
C289 C 0.64346 0.17091 0.58043 0.0
C290 C 0.59698 0.12793 0.56954 0.0
C291 C 0.62533 0.13561 0.75163 0.0
C292 C 0.63402 0.13323 0.80476 0.0
C293 C 0.62026 0.12089 0.84026 0.0
C294 C 0.62623 0.12128 0.89224 0.0
C295 C 0.64594 0.13423 0.90951 0.0
C296 C 0.66062 0.14533 0.87355 0.0
C297 C 0.65478 0.14479 0.82161 0.0
C298 C 0.64311 0.08031 0.61486 0.0
C299 C 0.6962 0.12421 0.63761 0.0
O300 O 0.65757 0.10634 0.46786 0.0
O301 O 0.67893 0.13771 0.47462 0.0
O302 O 0.65503 0.15519 0.60371 0.0
O303 O 0.6372 0.16374 0.53517 0.0
O304 O 0.60467 0.13738 0.61214 0.0
O305 O 0.61245 0.1197 0.53551 0.0
O306 O 0.63664 0.15018 0.72226 0.0
O307 O 0.61852 0.11699 0.72771 0.0
O308 O 0.64633 0.09914 0.59322 0.0
O309 O 0.63843 0.08465 0.66251 0.0
O310 O 0.69168 0.12109 0.58777 0.0
O311 O 0.67911 0.12806 0.67082 0.0
H312 H 0.69351 0.1535 0.38701 0.0
H313 H 0.68838 0.16066 0.29603 0.0
H314 H 0.63486 0.10701 0.28811 0.0
H315 H 0.64054 0.0994 0.37907 0.0
H316 H 0.60426 0.11176 0.82812 0.0
H317 H 0.6146 0.11259 0.91918 0.0
H318 H 0.67617 0.1551 0.88584 0.0
H319 H 0.666 0.15419 0.79509 0.0
Pr320 Pr 0.88549 0.39154 0.88123 0.0
Pr321 Pr 0.86307 0.3862 0.98861 0.0
C322 C 0.898 0.39347 0.78139 0.0
C323 C 0.88923 0.39094 0.72825 0.0
C324 C 0.89934 0.40477 0.6901 0.0
C325 C 0.89299 0.40179 0.63871 0.0
C326 C 0.87628 0.38486 0.62417 0.0
C327 C 0.86543 0.37158 0.6629 0.0
C328 C 0.87184 0.37459 0.71447 0.0
C329 C 0.88257 0.43193 0.93941 0.0
C330 C 0.82613 0.38725 0.88907 0.0
C331 C 0.85 0.39737 0.08511 0.0
C332 C 0.85372 0.39167 0.14015 0.0
C333 C 0.84124 0.37352 0.16351 0.0
C334 C 0.8435 0.36945 0.21618 0.0
C335 C 0.8583 0.38341 0.24709 0.0
C336 C 0.87092 0.40146 0.22352 0.0
C337 C 0.86859 0.40557 0.17087 0.0
C338 C 0.87065 0.34132 0.95437 0.0
C339 C 0.92319 0.38097 0.972 0.0
O340 O 0.90025 0.37496 0.80937 0.0
O341 O 0.89046 0.41126 0.8072 0.0
O342 O 0.86607 0.41715 0.93491 0.0
O343 O 0.90191 0.42538 0.9158 0.0
O344 O 0.82733 0.38886 0.93959 0.0
O345 O 0.84544 0.38624 0.86031 0.0
O346 O 0.86779 0.40722 0.0608 0.0
O347 O 0.83777 0.38307 0.05633 0.0
O348 O 0.87593 0.35911 0.92837 0.0
O349 O 0.86095 0.34665 0.99786 0.0
O350 O 0.92 0.3796 0.92231 0.0
O351 O 0.90534 0.38552 1.004 0.0
H352 H 0.91272 0.41756 0.69994 0.0
H353 H 0.90193 0.4122 0.61023 0.0
H354 H 0.85214 0.35869 0.65333 0.0
H355 H 0.86354 0.3639 0.74335 0.0
H356 H 0.82937 0.36263 0.14131 0.0
H357 H 0.83314 0.35563 0.23281 0.0
H358 H 0.88273 0.41241 0.24565 0.0
H359 H 0.87826 0.41987 0.15429 0.0
Pr360 Pr 0.37672 0.12901 0.64708 0.0
Pr361 Pr 0.36154 0.12805 0.54618 0.0
C362 C 0.38689 0.12965 0.74851 0.0
C363 C 0.37823 0.13093 0.80189 0.0
C364 C 0.38371 0.11292 0.83568 0.0
C365 C 0.37958 0.11523 0.88822 0.0
C366 C 0.36998 0.13569 0.90809 0.0
C367 C 0.36313 0.15315 0.87376 0.0
C368 C 0.36725 0.15083 0.82122 0.0
C369 C 0.37749 0.08406 0.60289 0.0
C370 C 0.32062 0.12559 0.634 0.0
C371 C 0.3517 0.11964 0.44615 0.0
C372 C 0.35623 0.12532 0.39179 0.0
C373 C 0.35044 0.14689 0.37117 0.0
C374 C 0.35308 0.15103 0.31869 0.0
C375 C 0.36159 0.13373 0.28562 0.0
C376 C 0.36758 0.11224 0.30659 0.0
C377 C 0.36488 0.1081 0.35898 0.0
C378 C 0.35886 0.17365 0.58162 0.0
C379 C 0.42037 0.13383 0.57261 0.0
O380 O 0.38609 0.14804 0.72007 0.0
O381 O 0.38306 0.11085 0.72282 0.0
O382 O 0.36017 0.09801 0.60141 0.0
O383 O 0.3961 0.09421 0.62252 0.0
O384 O 0.32731 0.11461 0.59212 0.0
O385 O 0.3365 0.13826 0.65745 0.0
O386 O 0.3687 0.10927 0.47161 0.0
O387 O 0.3394 0.13396 0.47424 0.0
O388 O 0.37662 0.16039 0.59045 0.0
O389 O 0.34229 0.16299 0.55619 0.0
O390 O 0.41228 0.14248 0.61529 0.0
O391 O 0.4048 0.12477 0.53989 0.0
H392 H 0.39229 0.09743 0.82176 0.0
H393 H 0.38518 0.10149 0.91347 0.0
H394 H 0.35522 0.16895 0.88769 0.0
H395 H 0.3627 0.16497 0.79612 0.0
H396 H 0.34351 0.16046 0.39536 0.0
H397 H 0.34795 0.16769 0.3039 0.0
H398 H 0.37449 0.0986 0.28259 0.0
H399 H 0.36928 0.09125 0.37384 0.0
Pr400 Pr 0.63449 0.62473 0.37498 0.0
Pr401 Pr 0.65591 0.62478 0.49323 0.0
C402 C 0.62192 0.63758 0.2801 0.0
C403 C 0.63001 0.63501 0.22651 0.0
C404 C 0.61766 0.62039 0.19266 0.0
C405 C 0.62318 0.62036 0.14044 0.0
C406 C 0.64095 0.63513 0.12123 0.0
C407 C 0.65424 0.64869 0.15551 0.0
C408 C 0.64885 0.64864 0.20756 0.0
C409 C 0.64052 0.57942 0.41356 0.0
C410 C 0.69345 0.62187 0.39084 0.0
C411 C 0.66899 0.61128 0.58775 0.0
C412 C 0.66519 0.61765 0.64202 0.0
C413 C 0.67591 0.63728 0.66342 0.0
C414 C 0.67273 0.64249 0.7152 0.0
C415 C 0.65865 0.62829 0.74677 0.0
C416 C 0.64779 0.60878 0.72509 0.0
C417 C 0.65113 0.60347 0.67343 0.0
C418 C 0.64846 0.67027 0.46094 0.0
C419 C 0.59624 0.63011 0.47107 0.0
O420 O 0.63551 0.65001 0.31035 0.0
O421 O 0.61233 0.61972 0.3028 0.0
O422 O 0.64512 0.59818 0.43524 0.0
O423 O 0.63251 0.58393 0.36784 0.0
O424 O 0.69112 0.62054 0.44156 0.0
O425 O 0.67517 0.62435 0.35932 0.0
O426 O 0.65045 0.60275 0.56328 0.0
O427 O 0.68223 0.62487 0.55941 0.0
O428 O 0.64436 0.65224 0.43503 0.0
O429 O 0.65651 0.66457 0.50593 0.0
O430 O 0.60035 0.63277 0.42172 0.0
O431 O 0.61349 0.62523 0.50475 0.0
H432 H 0.60309 0.60968 0.20618 0.0
H433 H 0.61265 0.60975 0.11476 0.0
H434 H 0.6683 0.65995 0.14175 0.0
H435 H 0.65889 0.65999 0.23251 0.0
H436 H 0.68696 0.64853 0.64039 0.0
H437 H 0.68171 0.65746 0.73063 0.0
H438 H 0.63652 0.59763 0.74789 0.0
H439 H 0.64272 0.58818 0.65802 0.0
Pr440 Pr 0.13483 0.88738 0.1535 0.0
Pr441 Pr 0.15652 0.88328 0.04629 0.0
C442 C 0.12282 0.87599 0.25 0.0
C443 C 0.12947 0.88092 0.3039 0.0
C444 C 0.12516 0.90245 0.32632 0.0
C445 C 0.13072 0.9063 0.37791 0.0
C446 C 0.14082 0.88878 0.40831 0.0
C447 C 0.14539 0.86735 0.38551 0.0
C448 C 0.13973 0.86347 0.33401 0.0
C449 C 0.14147 0.93284 0.11744 0.0
C450 C 0.19447 0.8881 0.14241 0.0
C451 C 0.16919 0.88119 0.94659 0.0
C452 C 0.16354 0.88455 0.89179 0.0
C453 C 0.16835 0.86653 0.85762 0.0
C454 C 0.16549 0.86953 0.80488 0.0
C455 C 0.15769 0.89068 0.78493 0.0
C456 C 0.15201 0.90848 0.81954 0.0
C457 C 0.155 0.90548 0.87243 0.0
C458 C 0.15132 0.84136 0.09861 0.0
C459 C 0.09641 0.88743 0.06132 0.0
O460 O 0.13863 0.8646 0.22291 0.0
O461 O 0.11142 0.89184 0.22371 0.0
O462 O 0.14673 0.91482 0.09299 0.0
O463 O 0.13272 0.9275 0.16186 0.0
O464 O 0.19249 0.89042 0.0922 0.0
O465 O 0.17568 0.88462 0.17163 0.0
O466 O 0.17367 0.89901 0.97569 0.0
O467 O 0.15826 0.86454 0.9705 0.0
O468 O 0.1358 0.8572 0.09572 0.0
O469 O 0.171 0.84799 0.07665 0.0
O470 O 0.09926 0.8816 0.10949 0.0
O471 O 0.11506 0.89201 0.03131 0.0
H472 H 0.11725 0.91627 0.30427 0.0
H473 H 0.12661 0.92293 0.39419 0.0
H474 H 0.15348 0.85355 0.40734 0.0
H475 H 0.14326 0.8467 0.31773 0.0
H476 H 0.17504 0.85023 0.8717 0.0
H477 H 0.17031 0.85549 0.77972 0.0
H478 H 0.14548 0.92486 0.80576 0.0
H479 H 0.15102 0.91963 0.89797 0.0
Pr480 Pr 0.88807 0.627 0.15542 0.0
Pr481 Pr 0.86297 0.6304 0.04921 0.0
C482 C 0.90131 0.63732 0.25211 0.0
C483 C 0.89242 0.63428 0.30535 0.0
C484 C 0.90732 0.62422 0.34261 0.0
C485 C 0.90047 0.62394 0.39428 0.0
C486 C 0.87861 0.63391 0.40989 0.0
C487 C 0.86312 0.64282 0.37207 0.0
C488 C 0.8699 0.64298 0.3205 0.0
C489 C 0.8788 0.58151 0.12124 0.0
C490 C 0.82823 0.63009 0.15029 0.0
C491 C 0.84882 0.62932 0.94972 0.0
C492 C 0.85625 0.6294 0.89493 0.0
C493 C 0.86718 0.64884 0.87312 0.0
C494 C 0.8701 0.65059 0.82007 0.0
C495 C 0.8622 0.63298 0.78719 0.0
C496 C 0.8526 0.61294 0.80914 0.0
C497 C 0.84955 0.61124 0.86239 0.0
C498 C 0.87108 0.6726 0.09829 0.0
C499 C 0.92412 0.62711 0.05952 0.0
O500 O 0.88906 0.65123 0.22255 0.0
O501 O 0.90961 0.61929 0.22783 0.0
O502 O 0.8734 0.59971 0.09766 0.0
O503 O 0.88875 0.58684 0.16454 0.0
O504 O 0.82819 0.62459 0.101 0.0
O505 O 0.84836 0.63389 0.17509 0.0
O506 O 0.85141 0.6107 0.97722 0.0
O507 O 0.85217 0.64809 0.97604 0.0
O508 O 0.88612 0.65629 0.09507 0.0
O509 O 0.85075 0.66681 0.07751 0.0
O510 O 0.92275 0.63146 0.10876 0.0
O511 O 0.90469 0.62404 0.03043 0.0
H512 H 0.92471 0.6173 0.33204 0.0
H513 H 0.91286 0.61697 0.42229 0.0
H514 H 0.84593 0.65021 0.3825 0.0
H515 H 0.85776 0.65059 0.2928 0.0
H516 H 0.87265 0.66319 0.89678 0.0
H517 H 0.87799 0.66609 0.80461 0.0
H518 H 0.84628 0.59908 0.78501 0.0
H519 H 0.84094 0.59611 0.87794 0.0
Pr520 Pr 0.13627 0.12528 0.88578 0.0
Pr521 Pr 0.15711 0.12703 0.98865 0.0
C522 C 0.12358 0.12631 0.78565 0.0
C523 C 0.13204 0.12757 0.73211 0.0
C524 C 0.11962 0.1151 0.69453 0.0
C525 C 0.12534 0.11757 0.64273 0.0
C526 C 0.14371 0.13261 0.62718 0.0
C527 C 0.15688 0.14436 0.66529 0.0
C528 C 0.15108 0.14189 0.71725 0.0
C529 C 0.13993 0.08203 0.93447 0.0
C530 C 0.19414 0.12565 0.89305 0.0
C531 C 0.16957 0.12045 0.08806 0.0
C532 C 0.16464 0.12643 0.14255 0.0
C533 C 0.1786 0.14311 0.16759 0.0
C534 C 0.17598 0.14713 0.22013 0.0
C535 C 0.15928 0.13459 0.24942 0.0
C536 C 0.14509 0.11805 0.22419 0.0
C537 C 0.14779 0.11397 0.17154 0.0
C538 C 0.15197 0.17137 0.94665 0.0
C539 C 0.09674 0.12987 0.9734 0.0
O540 O 0.12537 0.14465 0.8142 0.0
O541 O 0.12746 0.10733 0.8108 0.0
O542 O 0.15634 0.09697 0.93277 0.0
O543 O 0.12044 0.08986 0.91338 0.0
O544 O 0.19094 0.1164 0.93873 0.0
O545 O 0.17597 0.13552 0.86987 0.0
O546 O 0.15406 0.10762 0.06358 0.0
O547 O 0.17967 0.13581 0.05865 0.0
O548 O 0.13641 0.15554 0.94396 0.0
O549 O 0.17061 0.16432 0.97211 0.0
O550 O 0.10074 0.13499 0.92529 0.0
O551 O 0.11473 0.1238 1.00403 0.0
H552 H 0.10489 0.10392 0.70516 0.0
H553 H 0.11464 0.10838 0.61479 0.0
H554 H 0.17148 0.15572 0.65497 0.0
H555 H 0.16114 0.15152 0.74559 0.0
H556 H 0.19208 0.15273 0.14682 0.0
H557 H 0.18764 0.15968 0.23799 0.0
H558 H 0.13185 0.1082 0.24505 0.0
H559 H 0.13693 0.10075 0.15377 0.0
Pr560 Pr 0.6366 0.38756 0.64819 0.0
Pr561 Pr 0.65594 0.38103 0.54316 0.0
C562 C 0.62507 0.38362 0.74863 0.0
C563 C 0.63249 0.38707 0.80288 0.0
C564 C 0.62199 0.40492 0.83115 0.0
C565 C 0.62654 0.40727 0.88351 0.0
C566 C 0.6418 0.39185 0.90948 0.0
C567 C 0.65244 0.37394 0.88121 0.0
C568 C 0.64784 0.37156 0.82849 0.0
C569 C 0.63937 0.42895 0.59249 0.0
C570 C 0.69425 0.38435 0.64184 0.0
C571 C 0.67622 0.38138 0.44868 0.0
C572 C 0.6693 0.38241 0.39369 0.0
C573 C 0.68038 0.36765 0.35826 0.0
C574 C 0.67581 0.36978 0.30558 0.0
C575 C 0.66012 0.38685 0.28708 0.0
C576 C 0.64817 0.40088 0.32295 0.0
C577 C 0.65269 0.3987 0.37552 0.0
C578 C 0.63973 0.33946 0.5851 0.0
C579 C 0.59775 0.38459 0.55833 0.0
O580 O 0.63502 0.36714 0.72215 0.0
O581 O 0.61999 0.40168 0.72098 0.0
O582 O 0.65518 0.4133 0.59305 0.0
O583 O 0.62146 0.4238 0.62221 0.0
O584 O 0.69125 0.37633 0.59471 0.0
O585 O 0.67641 0.39359 0.66708 0.0
O586 O 0.67292 0.39977 0.47637 0.0
O587 O 0.67144 0.36257 0.47364 0.0
O588 O 0.652 0.35458 0.60858 0.0
O589 O 0.63351 0.34725 0.5404 0.0
O590 O 0.60232 0.37622 0.60403 0.0
O591 O 0.61547 0.39221 0.52923 0.0
H592 H 0.6097 0.41685 0.81299 0.0
H593 H 0.61755 0.42099 0.90389 0.0
H594 H 0.66441 0.36183 0.89971 0.0
H595 H 0.65603 0.35741 0.80805 0.0
H596 H 0.69317 0.35487 0.37125 0.0
H597 H 0.68539 0.35873 0.27924 0.0
H598 H 0.63558 0.4139 0.31031 0.0
H599 H 0.64357 0.41013 0.40178 0.0
Pr600 Pr 0.38495 0.88933 0.37687 0.0
Pr601 Pr 0.36289 0.88869 0.4935 0.0
C602 C 0.39774 0.87752 0.28131 0.0
C603 C 0.38939 0.87968 0.22764 0.0
C604 C 0.39872 0.89676 0.19528 0.0
C605 C 0.39335 0.89666 0.14287 0.0
C606 C 0.37878 0.87932 0.12195 0.0
C607 C 0.36831 0.86314 0.15482 0.0
C608 C 0.37357 0.86328 0.207 0.0
C609 C 0.37852 0.93472 0.4158 0.0
C610 C 0.32559 0.88971 0.39093 0.0
C611 C 0.34994 0.90268 0.58766 0.0
C612 C 0.35381 0.89678 0.64211 0.0
C613 C 0.34646 0.87559 0.66236 0.0
C614 C 0.34989 0.87069 0.71426 0.0
C615 C 0.36092 0.88678 0.74704 0.0
C616 C 0.36837 0.9079 0.72648 0.0
C617 C 0.36477 0.91285 0.67469 0.0
C618 C 0.37059 0.84314 0.4617 0.0
C619 C 0.42288 0.88311 0.4734 0.0
O620 O 0.38511 0.86427 0.31147 0.0
O621 O 0.40622 0.89582 0.3043 0.0
O622 O 0.37339 0.91589 0.43673 0.0
O623 O 0.38704 0.93008 0.37067 0.0
O624 O 0.32754 0.89189 0.44154 0.0
O625 O 0.3442 0.88763 0.36032 0.0
O626 O 0.36843 0.91114 0.56309 0.0
O627 O 0.33679 0.88877 0.55974 0.0
O628 O 0.37493 0.86111 0.43556 0.0
O629 O 0.36212 0.84898 0.50621 0.0
O630 O 0.41964 0.88204 0.42346 0.0
O631 O 0.40519 0.88652 0.50672 0.0
H632 H 0.41094 0.90965 0.21002 0.0
H633 H 0.40169 0.90933 0.11835 0.0
H634 H 0.35669 0.84981 0.13981 0.0
H635 H 0.36594 0.84992 0.23073 0.0
H636 H 0.33794 0.86282 0.63829 0.0
H637 H 0.34356 0.85439 0.72878 0.0
H638 H 0.37727 0.92055 0.75022 0.0
H639 H 0.37059 0.92931 0.66002 0.0
H640 H 0.14495 0.65651 0.70454 0.0
H641 H 0.17005 0.58701 0.73239 0.0
H642 H 0.17045 0.57966 0.63977 0.0
H643 H 0.10585 0.64319 0.59968 0.0
H644 H 0.1128 0.66862 0.56337 0.0
H645 H 0.11516 0.66904 0.63208 0.0
H646 H 0.1594 0.68243 0.62517 0.0
H647 H 0.15717 0.68198 0.55636 0.0
H648 H 0.18042 0.66575 0.58813 0.0
H649 H 0.1683 0.57927 0.54527 0.0
H650 H 0.16157 0.58521 0.45323 0.0
H651 H 0.13675 0.6546 0.48376 0.0
C652 C 0.15064 0.63979 0.69109 0.0
C653 C 0.15721 0.62224 0.72612 0.0
C654 C 0.16444 0.60059 0.70673 0.0
C655 C 0.16498 0.59629 0.65403 0.0
C656 C 0.15831 0.61381 0.62073 0.0
C657 C 0.15122 0.63514 0.63823 0.0
C658 C 0.14439 0.65066 0.59365 0.0
C659 C 0.11798 0.65832 0.59743 0.0
C660 C 0.16136 0.67144 0.59066 0.0
C661 C 0.14829 0.63448 0.54869 0.0
C662 C 0.15665 0.61346 0.56543 0.0
C663 C 0.16161 0.59561 0.53164 0.0
C664 C 0.15754 0.59912 0.47932 0.0
C665 C 0.14829 0.62024 0.46088 0.0
C666 C 0.14396 0.63827 0.4963 0.0
H667 H 0.63826 0.85876 0.04437 0.0
H668 H 0.6569 0.92964 0.07749 0.0
H669 H 0.66433 0.93638 0.98609 0.0
H670 H 0.68381 0.85075 0.94375 0.0
H671 H 0.66458 0.83288 0.905 0.0
H672 H 0.66125 0.83308 0.97358 0.0
H673 H 0.61629 0.84367 0.96344 0.0
H674 H 0.61946 0.8436 0.8949 0.0
H675 H 0.60802 0.86873 0.92696 0.0
H676 H 0.6675 0.93658 0.89259 0.0
H677 H 0.66799 0.92979 0.79959 0.0
H678 H 0.64937 0.85837 0.82424 0.0
C679 C 0.64428 0.87559 0.03247 0.0
C680 C 0.64673 0.89376 0.06821 0.0
C681 C 0.65439 0.91558 0.05088 0.0
C682 C 0.65885 0.91955 0.99905 0.0
C683 C 0.65589 0.90147 0.96488 0.0
C684 C 0.64902 0.87984 0.98062 0.0
C685 C 0.64693 0.86361 0.93526 0.0
C686 C 0.66524 0.84392 0.93967 0.0
C687 C 0.62114 0.85437 0.92983 0.0
C688 C 0.65327 0.87971 0.89163 0.0
C689 C 0.65838 0.90143 0.90998 0.0
C690 C 0.66379 0.91963 0.87766 0.0
C691 C 0.66394 0.91563 0.82499 0.0
C692 C 0.65878 0.8936 0.805 0.0
C693 C 0.65363 0.8753 0.83875 0.0
H694 H 0.36053 0.41054 0.20994 0.0
H695 H 0.36717 0.3372 0.23646 0.0
H696 H 0.37185 0.33083 0.14407 0.0
H697 H 0.32752 0.40741 0.09276 0.0
H698 H 0.34297 0.43086 0.06226 0.0
H699 H 0.34026 0.43016 0.1309 0.0
H700 H 0.38653 0.43325 0.14001 0.0
H701 H 0.38935 0.4341 0.07137 0.0
H702 H 0.40547 0.41275 0.10769 0.0
H703 H 0.37431 0.33173 0.04966 0.0
H704 H 0.37767 0.34022 0.95771 0.0
H705 H 0.37103 0.41305 0.99007 0.0
C706 C 0.36327 0.39317 0.1964 0.0
C707 C 0.36307 0.37432 0.23074 0.0
C708 C 0.36661 0.35188 0.21112 0.0
C709 C 0.36945 0.34807 0.15862 0.0
C710 C 0.36902 0.36687 0.12589 0.0
C711 C 0.36634 0.38902 0.14382 0.0
C712 C 0.36681 0.40611 0.09987 0.0
C713 C 0.34297 0.41941 0.09625 0.0
C714 C 0.38832 0.42252 0.10505 0.0
C715 C 0.36992 0.38998 0.05465 0.0
C716 C 0.37104 0.36744 0.07076 0.0
C717 C 0.3735 0.34931 0.03647 0.0
C718 C 0.37517 0.3543 0.98423 0.0
C719 C 0.37443 0.37726 0.96651 0.0
C720 C 0.37173 0.39532 1.00241 0.0
H721 H 0.87522 0.15629 0.54847 0.0
H722 H 0.88026 0.08307 0.57802 0.0
H723 H 0.87619 0.07538 0.48585 0.0
H724 H 0.82999 0.15108 0.44604 0.0
H725 H 0.84244 0.17436 0.40931 0.0
H726 H 0.84523 0.17432 0.47802 0.0
H727 H 0.89142 0.17814 0.46981 0.0
H728 H 0.88882 0.17805 0.40114 0.0
H729 H 0.9079 0.15736 0.4326 0.0
H730 H 0.87313 0.07529 0.39127 0.0
H731 H 0.86931 0.08266 0.29897 0.0
H732 H 0.86543 0.15592 0.32889 0.0
C733 C 0.87511 0.13862 0.53572 0.0
C734 C 0.87839 0.12029 0.57077 0.0
C735 C 0.87836 0.09745 0.5521 0.0
C736 C 0.87586 0.09287 0.49977 0.0
C737 C 0.87311 0.11127 0.46635 0.0
C738 C 0.87244 0.13369 0.48343 0.0
C739 C 0.86929 0.15024 0.43899 0.0
C740 C 0.84531 0.16327 0.44336 0.0
C741 C 0.89064 0.16692 0.43544 0.0
C742 C 0.86895 0.13357 0.39427 0.0
C743 C 0.87106 0.11121 0.41117 0.0
C744 C 0.87146 0.09272 0.37746 0.0
C745 C 0.86954 0.09713 0.32496 0.0
C746 C 0.86733 0.11987 0.3063 0.0
C747 C 0.86698 0.13832 0.34174 0.0
H748 H 0.14428 0.35891 0.32667 0.0
H749 H 0.17231 0.42746 0.30102 0.0
H750 H 0.17268 0.43443 0.39378 0.0
H751 H 0.10517 0.37369 0.43061 0.0
H752 H 0.1107 0.34791 0.4669 0.0
H753 H 0.11347 0.34752 0.39827 0.0
H754 H 0.15699 0.33218 0.40676 0.0
H755 H 0.15434 0.33258 0.47549 0.0
H756 H 0.17852 0.34784 0.44483 0.0
H757 H 0.1701 0.43465 0.48826 0.0
H758 H 0.16262 0.42887 0.57993 0.0
H759 H 0.13481 0.36068 0.54798 0.0
C760 C 0.15063 0.37532 0.34067 0.0
C761 C 0.15803 0.39274 0.3061 0.0
C762 C 0.1661 0.41399 0.32625 0.0
C763 C 0.16659 0.41806 0.37908 0.0
C764 C 0.15901 0.40075 0.41191 0.0
C765 C 0.1511 0.37979 0.39378 0.0
C766 C 0.14328 0.36451 0.43806 0.0
C767 C 0.11656 0.35804 0.43316 0.0
C768 C 0.15923 0.343 0.44147 0.0
C769 C 0.14761 0.3804 0.4835 0.0
C770 C 0.15701 0.40106 0.46725 0.0
C771 C 0.16258 0.41859 0.50146 0.0
C772 C 0.15807 0.41518 0.55363 0.0
C773 C 0.14773 0.39447 0.57167 0.0
C774 C 0.14281 0.3767 0.53583 0.0
H775 H 0.87607 0.85938 0.70607 0.0
H776 H 0.84661 0.92737 0.73332 0.0
H777 H 0.84655 0.93479 0.64062 0.0
H778 H 0.91472 0.87425 0.60277 0.0
H779 H 0.90916 0.84839 0.56676 0.0
H780 H 0.90663 0.84813 0.63541 0.0
H781 H 0.86312 0.83268 0.62769 0.0
H782 H 0.8655 0.83298 0.55894 0.0
H783 H 0.84139 0.84825 0.58994 0.0
H784 H 0.84955 0.93515 0.54565 0.0
H785 H 0.85699 0.92893 0.45377 0.0
H786 H 0.88466 0.86081 0.48713 0.0
C787 C 0.86946 0.87578 0.69257 0.0
C788 C 0.86155 0.89287 0.72729 0.0
C789 C 0.85326 0.91417 0.70782 0.0
C790 C 0.85289 0.91848 0.65511 0.0
C791 C 0.86074 0.9013 0.62211 0.0
C792 C 0.86889 0.88037 0.63992 0.0
C793 C 0.87661 0.865 0.596 0.0
C794 C 0.90337 0.85858 0.60052 0.0
C795 C 0.86071 0.84346 0.59298 0.0
C796 C 0.87202 0.88083 0.55093 0.0
C797 C 0.8626 0.90155 0.56692 0.0
C798 C 0.857 0.91903 0.53259 0.0
C799 C 0.86145 0.91538 0.48048 0.0
C800 C 0.8716 0.89448 0.46306 0.0
C801 C 0.87667 0.87691 0.49897 0.0
H802 H 0.35032 0.60134 0.83174 0.0
H803 H 0.38204 0.66648 0.78743 0.0
H804 H 0.38973 0.67543 0.87799 0.0
H805 H 0.32184 0.62066 0.94631 0.0
H806 H 0.32839 0.59503 0.98233 0.0
H807 H 0.32508 0.59353 0.91384 0.0
H808 H 0.36729 0.57498 0.90649 0.0
H809 H 0.37068 0.57637 0.975 0.0
H810 H 0.39291 0.58936 0.93417 0.0
H811 H 0.39345 0.67793 0.9718 0.0
H812 H 0.39411 0.67343 0.06543 0.0
H813 H 0.36169 0.60602 0.05068 0.0
C814 C 0.35912 0.61738 0.84097 0.0
C815 C 0.36536 0.63331 0.80226 0.0
C816 C 0.37659 0.65422 0.81624 0.0
C817 C 0.38123 0.65939 0.86759 0.0
C818 C 0.37475 0.64341 0.90458 0.0
C819 C 0.36409 0.62277 0.89212 0.0
C820 C 0.3591 0.60862 0.93969 0.0
C821 C 0.33199 0.60421 0.94589 0.0
C822 C 0.37335 0.58599 0.93877 0.0
C823 C 0.36849 0.6247 0.98075 0.0
C824 C 0.37736 0.64466 0.95939 0.0
C825 C 0.3866 0.66239 0.98907 0.0
C826 C 0.38677 0.65972 0.04216 0.0
C827 C 0.3778 0.63948 0.06512 0.0
C828 C 0.36872 0.62163 0.03397 0.0
H829 H 0.64597 0.10252 0.98776 0.0
H830 H 0.65341 0.17527 0.95609 0.0
H831 H 0.65729 0.18309 0.04842 0.0
H832 H 0.61111 0.10832 0.10288 0.0
H833 H 0.62571 0.08488 0.13556 0.0
H834 H 0.62353 0.08477 0.06678 0.0
H835 H 0.66977 0.08036 0.06005 0.0
H836 H 0.67209 0.08035 0.12879 0.0
H837 H 0.68901 0.10081 0.09182 0.0
H838 H 0.65887 0.18342 0.14314 0.0
H839 H 0.66109 0.17605 0.23572 0.0
H840 H 0.65459 0.10284 0.20706 0.0
C841 C 0.64847 0.12005 1.00042 0.0
C842 C 0.64957 0.13829 0.96488 0.0
C843 C 0.65293 0.16102 0.98268 0.0
C844 C 0.65495 0.16566 0.03501 0.0
C845 C 0.65369 0.14736 0.06906 0.0
C846 C 0.65076 0.12499 0.05266 0.0
C847 C 0.65048 0.10852 0.09754 0.0
C848 C 0.62626 0.09588 0.10087 0.0
C849 C 0.6716 0.09151 0.09436 0.0
C850 C 0.65364 0.1252 0.1416 0.0
C851 C 0.65526 0.14751 0.12417 0.0
C852 C 0.6579 0.16601 0.15735 0.0
C853 C 0.65929 0.16161 0.2099 0.0
C854 C 0.6583 0.13885 0.22887 0.0
C855 C 0.65522 0.12045 0.19402 0.0
H856 H 0.86273 0.41521 0.32571 0.0
H857 H 0.85909 0.34185 0.29696 0.0
H858 H 0.8616 0.33455 0.38963 0.0
H859 H 0.90633 0.41146 0.42849 0.0
H860 H 0.89317 0.43458 0.46477 0.0
H861 H 0.89042 0.43421 0.39609 0.0
H862 H 0.84407 0.43682 0.4041 0.0
H863 H 0.84669 0.43711 0.47281 0.0
H864 H 0.82825 0.4158 0.44176 0.0
H865 H 0.86476 0.33497 0.48558 0.0
H866 H 0.87009 0.34307 0.57749 0.0
H867 H 0.87221 0.41609 0.54467 0.0
C868 C 0.86267 0.39757 0.33868 0.0
C869 C 0.86047 0.37912 0.30349 0.0
C870 C 0.86022 0.35636 0.32273 0.0
C871 C 0.8618 0.352 0.37546 0.0
C872 C 0.86377 0.37054 0.40887 0.0
C873 C 0.86437 0.39288 0.39129 0.0
C874 C 0.86706 0.40966 0.43544 0.0
C875 C 0.89065 0.42327 0.43092 0.0
C876 C 0.84521 0.4258 0.4387 0.0
C877 C 0.86783 0.39324 0.48049 0.0
C878 C 0.86583 0.37077 0.46428 0.0
C879 C 0.86625 0.35252 0.49873 0.0
C880 C 0.86907 0.35733 0.55105 0.0
C881 C 0.87147 0.38023 0.56877 0.0
C882 C 0.87063 0.39837 0.53265 0.0
H883 H 0.35229 0.10424 0.20476 0.0
H884 H 0.37735 0.17314 0.23933 0.0
H885 H 0.38128 0.18098 0.14717 0.0
H886 H 0.39273 0.09467 0.09803 0.0
H887 H 0.37102 0.07866 0.06121 0.0
H888 H 0.36973 0.07834 0.13008 0.0
H889 H 0.32553 0.09232 0.12657 0.0
H890 H 0.32671 0.09271 0.05771 0.0
H891 H 0.31827 0.11825 0.09223 0.0
H892 H 0.38257 0.18168 0.05208 0.0
H893 H 0.38215 0.17488 0.95915 0.0
H894 H 0.35686 0.10534 0.98471 0.0
C895 C 0.35882 0.12092 0.19307 0.0
C896 C 0.36432 0.13814 0.22965 0.0
C897 C 0.37254 0.1598 0.21234 0.0
C898 C 0.375 0.16439 0.15999 0.0
C899 C 0.36931 0.14713 0.12516 0.0
C900 C 0.3615 0.12578 0.14081 0.0
C901 C 0.35681 0.11025 0.09516 0.0
C902 C 0.37357 0.08924 0.09619 0.0
C903 C 0.33025 0.10296 0.0928 0.0
C904 C 0.36309 0.12631 0.0515 0.0
C905 C 0.37022 0.14748 0.06983 0.0
C906 C 0.37691 0.16521 0.03721 0.0
C907 C 0.37638 0.16123 0.98437 0.0
C908 C 0.36919 0.13967 0.96438 0.0
C909 C 0.36248 0.12199 0.99867 0.0
H910 H 0.64541 0.6019 0.04665 0.0
H911 H 0.64279 0.67559 0.07002 0.0
H912 H 0.64665 0.68172 0.97711 0.0
H913 H 0.68948 0.60303 0.94523 0.0
H914 H 0.67584 0.57988 0.90979 0.0
H915 H 0.67268 0.58117 0.9783 0.0
H916 H 0.62634 0.57982 0.9686 0.0
H917 H 0.62932 0.57863 0.90003 0.0
H918 H 0.61139 0.60085 0.92915 0.0
H919 H 0.64958 0.68006 0.88236 0.0
H920 H 0.65356 0.67081 0.79085 0.0
H921 H 0.65627 0.59818 0.82824 0.0
C922 C 0.64564 0.61928 0.03204 0.0
C923 C 0.64397 0.63829 0.06542 0.0
C924 C 0.64443 0.66081 0.04511 0.0
C925 C 0.64644 0.66447 0.99241 0.0
C926 C 0.64808 0.64542 0.96051 0.0
C927 C 0.64788 0.62327 0.97939 0.0
C928 C 0.65034 0.60589 0.93653 0.0
C929 C 0.67347 0.59166 0.94285 0.0
C930 C 0.62801 0.59039 0.93341 0.0
C931 C 0.65186 0.6218 0.89074 0.0
C932 C 0.65037 0.64449 0.90552 0.0
C933 C 0.65101 0.66236 0.87023 0.0
C934 C 0.65346 0.65691 0.8183 0.0
C935 C 0.65546 0.63377 0.80204 0.0
C936 C 0.65455 0.61604 0.83907 0.0
H937 H 0.13531 0.85881 0.48955 0.0
H938 H 0.1588 0.92791 0.45267 0.0
H939 H 0.16576 0.93554 0.54423 0.0
H940 H 0.10455 0.8717 0.60389 0.0
H941 H 0.11425 0.8464 0.63784 0.0
H942 H 0.11185 0.84589 0.56915 0.0
H943 H 0.15629 0.833 0.56232 0.0
H944 H 0.15881 0.83335 0.63107 0.0
H945 H 0.17943 0.84985 0.5928 0.0
H946 H 0.16912 0.93626 0.63952 0.0
H947 H 0.16977 0.92975 0.73254 0.0
H948 H 0.14413 0.86014 0.70858 0.0
C949 C 0.14227 0.87545 0.50052 0.0
C950 C 0.14627 0.89283 0.46358 0.0
C951 C 0.1551 0.91444 0.48003 0.0
C952 C 0.1593 0.9189 0.53202 0.0
C953 C 0.15483 0.90154 0.56731 0.0
C954 C 0.14671 0.88017 0.55234 0.0
C955 C 0.1432 0.8646 0.5983 0.0
C956 C 0.11689 0.8567 0.60253 0.0
C957 C 0.16046 0.84398 0.59598 0.0
C958 C 0.14995 0.88082 0.64147 0.0
C959 C 0.1568 0.90195 0.6226 0.0
C960 C 0.16375 0.9198 0.65481 0.0
C961 C 0.1638 0.91598 0.70777 0.0
C962 C 0.15678 0.89451 0.72839 0.0
C963 C 0.14978 0.87672 0.69439 0.0
H964 H 0.87535 0.60242 0.71028 0.0
H965 H 0.84868 0.67154 0.73546 0.0
H966 H 0.8488 0.67846 0.64255 0.0
H967 H 0.9151 0.61622 0.60728 0.0
H968 H 0.90919 0.59047 0.57117 0.0
H969 H 0.90619 0.59031 0.63977 0.0
H970 H 0.86233 0.57587 0.63097 0.0
H971 H 0.86523 0.57594 0.5623 0.0
H972 H 0.84128 0.59184 0.5923 0.0
H973 H 0.85229 0.6785 0.54762 0.0
H974 H 0.86015 0.67205 0.45609 0.0
H975 H 0.88478 0.60295 0.48981 0.0
C976 C 0.86939 0.61894 0.69616 0.0
C977 C 0.86223 0.63652 0.73049 0.0
C978 C 0.85468 0.65794 0.71028 0.0
C979 C 0.8545 0.662 0.65742 0.0
C980 C 0.86188 0.64448 0.62478 0.0
C981 C 0.86922 0.62337 0.64317 0.0
C982 C 0.87685 0.60778 0.59937 0.0
C983 C 0.90341 0.60079 0.60473 0.0
C984 C 0.86044 0.5866 0.59605 0.0
C985 C 0.873 0.62358 0.55379 0.0
C986 C 0.86408 0.64456 0.56948 0.0
C987 C 0.85913 0.66209 0.53481 0.0
C988 C 0.86352 0.65818 0.48273 0.0
C989 C 0.87291 0.63693 0.46538 0.0
C990 C 0.87766 0.6194 0.5017 0.0
H991 H 0.14199 0.10177 0.54628 0.0
H992 H 0.15447 0.17367 0.58129 0.0
H993 H 0.15951 0.18173 0.48945 0.0
H994 H 0.18409 0.09716 0.44238 0.0
H995 H 0.16517 0.07861 0.40453 0.0
H996 H 0.16292 0.07831 0.47326 0.0
H997 H 0.11735 0.08696 0.46664 0.0
H998 H 0.11944 0.08736 0.39786 0.0
H999 H 0.10729 0.11177 0.4314 0.0
H1000 H 0.16174 0.18249 0.39371 0.0
H1001 H 0.16317 0.17562 0.30089 0.0
H1002 H 0.14999 0.10306 0.32681 0.0
C1003 C 0.14573 0.11924 0.53474 0.0
C1004 C 0.14797 0.13704 0.57152 0.0
C1005 C 0.15312 0.1596 0.55437 0.0
C1006 C 0.15578 0.16442 0.50208 0.0
C1007 C 0.15323 0.14656 0.46703 0.0
C1008 C 0.14842 0.12439 0.48257 0.0
C1009 C 0.14651 0.10837 0.43684 0.0
C1010 C 0.16583 0.0895 0.43941 0.0
C1011 C 0.12114 0.098 0.43297 0.0
C1012 C 0.15123 0.12498 0.39322 0.0
C1013 C 0.15485 0.14694 0.4116 0.0
C1014 C 0.15918 0.16531 0.37889 0.0
C1015 C 0.16012 0.16117 0.32604 0.0
C1016 C 0.15702 0.13873 0.30591 0.0
C1017 C 0.1523 0.12046 0.3404 0.0
H1018 H 0.6564 0.35556 0.2065 0.0
H1019 H 0.65875 0.42856 0.23985 0.0
H1020 H 0.65533 0.43709 0.14804 0.0
H1021 H 0.69136 0.3583 0.08896 0.0
H1022 H 0.67383 0.33684 0.05611 0.0
H1023 H 0.67661 0.33598 0.1248 0.0
H1024 H 0.63024 0.33649 0.13332 0.0
H1025 H 0.62736 0.33728 0.06468 0.0
H1026 H 0.61323 0.35913 0.10315 0.0
H1027 H 0.65252 0.4383 0.05367 0.0
H1028 H 0.6481 0.43221 0.96114 0.0
H1029 H 0.64628 0.35849 0.98552 0.0
C1030 C 0.65628 0.37333 0.19443 0.0
C1031 C 0.65763 0.3914 0.23088 0.0
C1032 C 0.65727 0.41439 0.2132 0.0
C1033 C 0.65555 0.41944 0.16093 0.0
C1034 C 0.65421 0.40136 0.12624 0.0
C1035 C 0.65443 0.37874 0.14199 0.0
C1036 C 0.65234 0.3627 0.09612 0.0
C1037 C 0.67488 0.34756 0.09123 0.0
C1038 C 0.62942 0.34804 0.09953 0.0
C1039 C 0.65077 0.37993 0.05242 0.0
C1040 C 0.6521 0.40208 0.07097 0.0
C1041 C 0.65124 0.42104 0.03866 0.0
C1042 C 0.64855 0.41737 0.986 0.0
C1043 C 0.64644 0.3949 0.9656 0.0
C1044 C 0.64792 0.3759 0.99955 0.0
H1045 H 0.36845 0.9122 0.04882 0.0
H1046 H 0.38467 0.83985 0.06835 0.0
H1047 H 0.38203 0.83415 0.97516 0.0
H1048 H 0.32535 0.90472 0.94613 0.0
H1049 H 0.33455 0.93011 0.91205 0.0
H1050 H 0.33783 0.92876 0.98056 0.0
H1051 H 0.3832 0.93792 0.972 0.0
H1052 H 0.3801 0.93923 0.90343 0.0
H1053 H 0.40182 0.9201 0.93191 0.0
H1054 H 0.3788 0.83613 0.88071 0.0
H1055 H 0.3734 0.84538 0.78955 0.0
H1056 H 0.35742 0.91614 0.82993 0.0
C1057 C 0.37145 0.8952 0.03331 0.0
C1058 C 0.37657 0.87641 0.06578 0.0
C1059 C 0.38033 0.85439 0.04422 0.0
C1060 C 0.37903 0.851 0.99133 0.0
C1061 C 0.37389 0.86978 0.96038 0.0
C1062 C 0.37 0.89144 0.98037 0.0
C1063 C 0.36442 0.90853 0.93821 0.0
C1064 C 0.33903 0.91862 0.94463 0.0
C1065 C 0.38353 0.92757 0.93629 0.0
C1066 C 0.36588 0.89305 0.8916 0.0
C1067 C 0.37149 0.87082 0.9054 0.0
C1068 C 0.37417 0.85343 0.86933 0.0
C1069 C 0.37087 0.85885 0.81759 0.0
C1070 C 0.36473 0.88144 0.80224 0.0
C1071 C 0.3623 0.89874 0.84007 0.0
H1072 H 0.15978 0.70733 0.16425 0.0
H1073 H 0.12529 0.69474 0.0182 0.0
H1074 H 0.11941 0.73651 1.00631 0.0
H1075 H 0.11984 0.75751 0.19863 0.0
H1076 H 0.14398 0.77235 0.2307 0.0
H1077 H 0.14331 0.74141 0.22999 0.0
H1078 H 0.18607 0.74072 0.19088 0.0
H1079 H 0.18682 0.77158 0.19118 0.0
H1080 H 0.19175 0.75614 0.13232 0.0
H1081 H 0.12044 0.77964 1.00686 0.0
H1082 H 0.12761 0.82111 0.0205 0.0
H1083 H 0.16119 0.8064 0.16657 0.0
C1084 C 0.15034 0.71345 0.13062 0.0
C1085 C 0.14244 0.6979 0.0926 0.0
C1086 C 0.13082 0.70641 0.0483 0.0
C1087 C 0.12754 0.7301 0.04115 0.0
C1088 C 0.13567 0.74508 0.07908 0.0
C1089 C 0.14652 0.73712 0.12333 0.0
C1090 C 0.15416 0.75699 0.15738 0.0
C1091 C 0.13946 0.75707 0.20714 0.0
C1092 C 0.18132 0.75631 0.16855 0.0
C1093 C 0.14739 0.77733 0.12392 0.0
C1094 C 0.13624 0.77004 0.07942 0.0
C1095 C 0.12877 0.78553 0.04195 0.0
C1096 C 0.13283 0.80904 0.05006 0.0
C1097 C 0.14451 0.81688 0.09493 0.0
C1098 C 0.15185 0.80082 0.13237 0.0
H1099 H 0.56198 0.91322 0.47416 0.0
H1100 H 0.57562 0.84155 0.50621 0.0
H1101 H 0.53205 0.8353 0.52059 0.0
H1102 H 0.51044 0.92046 0.56625 0.0
H1103 H 0.4946 0.93926 0.52302 0.0
H1104 H 0.52703 0.93876 0.52342 0.0
H1105 H 0.52699 0.92997 0.42625 0.0
H1106 H 0.49466 0.93031 0.42559 0.0
H1107 H 0.51063 0.90541 0.40269 0.0
H1108 H 0.48655 0.83607 0.52192 0.0
H1109 H 0.44308 0.84366 0.50838 0.0
H1110 H 0.45894 0.91462 0.47355 0.0
C1111 C 0.55579 0.89648 0.48631 0.0
C1112 C 0.57209 0.878 0.49102 0.0
C1113 C 0.5634 0.85602 0.50428 0.0
C1114 C 0.5387 0.85233 0.51225 0.0
C1115 C 0.52293 0.87084 0.5067 0.0
C1116 C 0.53117 0.89254 0.49432 0.0
C1117 C 0.51037 0.90905 0.48627 0.0
C1118 C 0.51063 0.92801 0.52717 0.0
C1119 C 0.51069 0.91926 0.43197 0.0
C1120 C 0.48915 0.89307 0.49381 0.0
C1121 C 0.49675 0.8712 0.50662 0.0
C1122 C 0.48041 0.85324 0.51303 0.0
C1123 C 0.45577 0.85769 0.50562 0.0
C1124 C 0.44776 0.87985 0.49162 0.0
C1125 C 0.46465 0.89773 0.48593 0.0
H1126 H 0.40278 0.30509 0.63619 0.0
H1127 H 0.33716 0.32556 0.55866 0.0
H1128 H 0.32549 0.285 0.5496 0.0
H1129 H 0.41584 0.25546 0.56573 0.0
H1130 H 0.42503 0.23755 0.61854 0.0
H1131 H 0.42794 0.26826 0.62312 0.0
H1132 H 0.40248 0.26838 0.70579 0.0
H1133 H 0.39972 0.23759 0.70183 0.0
H1134 H 0.37315 0.25524 0.70537 0.0
H1135 H 0.32206 0.24317 0.54202 0.0
H1136 H 0.32479 0.20136 0.54194 0.0
H1137 H 0.39195 0.20486 0.62708 0.0
C1138 C 0.38562 0.30094 0.61887 0.0
C1139 C 0.37056 0.3186 0.59907 0.0
C1140 C 0.34861 0.31245 0.57526 0.0
C1141 C 0.34193 0.2894 0.56957 0.0
C1142 C 0.35716 0.27242 0.58867 0.0
C1143 C 0.3783 0.27773 0.61387 0.0
C1144 C 0.39103 0.25566 0.63071 0.0
C1145 C 0.41647 0.25415 0.60815 0.0
C1146 C 0.39164 0.25413 0.68941 0.0
C1147 C 0.37446 0.23727 0.60825 0.0
C1148 C 0.35494 0.24762 0.58484 0.0
C1149 C 0.3371 0.23487 0.56079 0.0
C1150 C 0.33891 0.21093 0.56095 0.0
C1151 C 0.35856 0.19944 0.58457 0.0
C1152 C 0.37668 0.21295 0.60868 0.0
H1153 H 0.9581 0.15659 0.93785 0.0
H1154 H 0.94242 0.10571 0.05388 0.0
H1155 H 0.98614 0.10212 0.07241 0.0
H1156 H 1.008 0.13095 0.88627 0.0
H1157 H 0.02456 0.15706 0.87536 0.0
H1158 H 0.99226 0.15768 0.87662 0.0
H1159 H 0.99329 0.18865 0.94773 0.0
H1160 H 0.0257 0.18824 0.94647 0.0
H1161 H 0.01001 0.18331 1.0057 0.0
H1162 H 0.03263 0.10159 0.0711 0.0
H1163 H 0.07613 0.10435 0.05056 0.0
H1164 H 0.05997 0.15546 0.93502 0.0
C1165 C 0.96378 0.14504 0.96802 0.0
C1166 C 0.94686 0.1315 0.99468 0.0
C1167 C 0.95504 0.11651 0.0336 0.0
C1168 C 0.97985 0.11431 0.04414 0.0
C1169 C 0.99614 0.12751 1.01601 0.0
C1170 C 0.98828 0.14283 0.97919 0.0
C1171 C 1.00913 0.15427 0.95225 0.0
C1172 C 1.00844 0.14969 0.89422 0.0
C1173 C 0.00955 0.18015 0.96374 0.0
C1174 C 0.03007 0.14218 0.97767 0.0
C1175 C 0.02239 0.12712 1.01508 0.0
C1176 C 0.03876 0.11357 0.04236 0.0
C1177 C 0.06345 0.1153 0.03062 0.0
C1178 C 0.07144 0.13017 0.99138 0.0
C1179 C 0.05445 0.14395 0.96532 0.0
H1180 H 0.16008 0.30456 0.87192 0.0
H1181 H 0.12597 0.3192 0.01708 0.0
H1182 H 0.1201 0.27763 0.03177 0.0
H1183 H 0.12003 0.25404 0.84087 0.0
H1184 H 0.14409 0.23872 0.80982 0.0
H1185 H 0.14345 0.26966 0.80852 0.0
H1186 H 0.18627 0.27076 0.84761 0.0
H1187 H 0.18702 0.23991 0.84934 0.0
H1188 H 0.19207 0.25612 0.90716 0.0
H1189 H 0.12144 0.23447 0.03447 0.0
H1190 H 0.12877 0.19282 0.02384 0.0
H1191 H 0.16135 0.20543 0.87619 0.0
C1192 C 0.15072 0.29893 0.90595 0.0
C1193 C 0.14297 0.31501 0.94294 0.0
C1194 C 0.13143 0.30712 0.98777 0.0
C1195 C 0.12815 0.28354 0.99651 0.0
C1196 C 0.13618 0.26802 0.95963 0.0
C1197 C 0.14689 0.27537 0.91482 0.0
C1198 C 0.15443 0.255 0.88213 0.0
C1199 C 0.13963 0.25432 0.83238 0.0
C1200 C 0.18156 0.25548 0.87095 0.0
C1201 C 0.14775 0.23512 0.91696 0.0
C1202 C 0.13678 0.24305 0.96103 0.0
C1203 C 0.12961 0.22808 0.99973 0.0
C1204 C 0.13378 0.20446 0.99337 0.0
C1205 C 0.14521 0.19596 0.94892 0.0
C1206 C 0.1522 0.2115 0.91014 0.0
H1207 H 0.06101 0.85572 0.04395 0.0
H1208 H 0.07541 0.92869 0.04513 0.0
H1209 H 0.03191 0.93662 0.03421 0.0
H1210 H 0.00984 0.85969 0.94713 0.0
H1211 H 0.99359 0.83676 0.97767 0.0
H1212 H 0.02604 0.83689 0.97858 0.0
H1213 H 0.02553 0.83425 0.07745 0.0
H1214 H 0.99321 0.8342 0.07687 0.0
H1215 H 1.00921 0.85546 0.11377 0.0
H1216 H 0.98653 0.93656 0.03327 0.0
H1217 H 0.94301 0.92851 0.04241 0.0
H1218 H 0.95774 0.85558 0.04106 0.0
C1219 C 0.05498 0.87331 0.0399 0.0
C1220 C 0.07152 0.89164 0.04379 0.0
C1221 C 0.06306 0.91447 0.04037 0.0
C1222 C 0.03838 0.9191 0.03448 0.0
C1223 C 0.02241 0.90067 0.03114 0.0
C1224 C 0.03041 0.87819 0.03295 0.0
C1225 C 1.0094 0.86156 0.03096 0.0
C1226 C 0.00974 0.84791 0.98061 0.0
C1227 C 1.00934 0.84544 0.07757 0.0
C1228 C 0.98831 0.87815 0.03185 0.0
C1229 C 0.99622 0.90064 0.03043 0.0
C1230 C 0.98014 0.91902 0.03305 0.0
C1231 C 0.95545 0.91433 0.03782 0.0
C1232 C 0.94705 0.89148 0.04051 0.0
C1233 C 0.9637 0.87318 0.03719 0.0
H1234 H 0.36182 0.71039 0.524 0.0
H1235 H 0.38342 0.69289 0.36978 0.0
H1236 H 0.3872 0.73463 0.34959 0.0
H1237 H 0.32606 0.7588 0.49286 0.0
H1238 H 0.33467 0.77429 0.54973 0.0
H1239 H 0.33443 0.74342 0.55003 0.0
H1240 H 0.3791 0.743 0.57901 0.0
H1241 H 0.37948 0.77388 0.57882 0.0
H1242 H 0.40121 0.75812 0.54165 0.0
H1243 H 0.38772 0.78112 0.34903 0.0
H1244 H 0.38479 0.82306 0.36822 0.0
H1245 H 0.36287 0.80674 0.52286 0.0
C1246 C 0.36744 0.71514 0.48581 0.0
C1247 C 0.37232 0.6982 0.44854 0.0
C1248 C 0.37959 0.70547 0.39913 0.0
C1249 C 0.38176 0.72921 0.38742 0.0
C1250 C 0.37664 0.7455 0.42554 0.0
C1251 C 0.36965 0.73844 0.47378 0.0
C1252 C 0.36484 0.75854 0.5088 0.0
C1253 C 0.33844 0.75877 0.52636 0.0
C1254 C 0.38219 0.75837 0.55477 0.0
C1255 C 0.3701 0.77833 0.47327 0.0
C1256 C 0.37692 0.77087 0.42523 0.0
C1257 C 0.3824 0.78686 0.38674 0.0
C1258 C 0.38073 0.81072 0.39788 0.0
C1259 C 0.3736 0.81839 0.4471 0.0
C1260 C 0.36839 0.80171 0.48476 0.0
H1261 H 0.56149 0.13373 0.49226 0.0
H1262 H 0.57326 0.1105 0.6483 0.0
H1263 H 0.52997 0.10732 0.66118 0.0
H1264 H 0.51046 0.16748 0.51405 0.0
H1265 H 0.49337 0.1591 0.45838 0.0
H1266 H 0.52571 0.15753 0.45737 0.0
H1267 H 0.52348 0.11455 0.43293 0.0
H1268 H 0.49106 0.11601 0.43363 0.0
H1269 H 0.50653 0.09513 0.47251 0.0
H1270 H 0.48721 0.11021 0.66306 0.0
H1271 H 0.44426 0.11713 0.65254 0.0
H1272 H 0.45561 0.13741 0.49441 0.0
C1273 C 0.55483 0.12729 0.52837 0.0
C1274 C 0.5709 0.12233 0.56931 0.0
C1275 C 0.56144 0.11443 0.61641 0.0
C1276 C 0.53679 0.11251 0.62422 0.0
C1277 C 0.52142 0.1181 0.58425 0.0
C1278 C 0.52974 0.12496 0.5369 0.0
C1279 C 0.50839 0.13034 0.50178 0.0
C1280 C 0.50956 0.1551 0.48174 0.0
C1281 C 0.5073 0.11298 0.45756 0.0
C1282 C 0.48718 0.12694 0.53819 0.0
C1283 C 0.49553 0.11945 0.58513 0.0
C1284 C 0.48034 0.11575 0.62631 0.0
C1285 C 0.45588 0.11988 0.61988 0.0
C1286 C 0.44641 0.12787 0.57272 0.0
C1287 C 0.46226 0.13109 0.53073 0.0
H1288 H 0.83658 0.20891 0.96783 0.0
H1289 H 0.90438 0.1925 0.89496 0.0
H1290 H 0.91271 0.23415 0.88461 0.0
H1291 H 0.82159 0.25912 0.89257 0.0
H1292 H 0.80911 0.27432 0.94641 0.0
H1293 H 0.80812 0.24344 0.94454 0.0
H1294 H 0.83002 0.24152 0.0321 0.0
H1295 H 0.83091 0.27236 0.03441 0.0
H1296 H 0.85837 0.25609 0.0401 0.0
H1297 H 0.91313 0.27911 0.88326 0.0
H1298 H 0.90719 0.32098 0.89816 0.0
H1299 H 0.84039 0.30641 0.97643 0.0
C1300 C 0.85306 0.21399 0.94901 0.0
C1301 C 0.86967 0.19735 0.93154 0.0
C1302 C 0.89124 0.20489 0.90812 0.0
C1303 C 0.8961 0.22854 0.90212 0.0
C1304 C 0.87931 0.24453 0.92005 0.0
C1305 C 0.8583 0.23741 0.94342 0.0
C1306 C 0.84366 0.25765 0.96217 0.0
C1307 C 0.81917 0.25869 0.93478 0.0
C1308 C 0.84058 0.25685 0.02065 0.0
C1309 C 0.85966 0.27739 0.94614 0.0
C1310 C 0.88001 0.26969 0.92114 0.0
C1311 C 0.89721 0.28519 0.90279 0.0
C1312 C 0.89366 0.30896 0.91103 0.0
C1313 C 0.87331 0.31695 0.93823 0.0
C1314 C 0.85613 0.30084 0.95543 0.0
H1315 H 0.65839 0.80303 0.51846 0.0
H1316 H 0.63079 0.81958 0.36777 0.0
H1317 H 0.62725 0.77768 0.34873 0.0
H1318 H 0.69402 0.7552 0.4821 0.0
H1319 H 0.68791 0.73984 0.54046 0.0
H1320 H 0.68762 0.77071 0.5402 0.0
H1321 H 0.64423 0.77058 0.57644 0.0
H1322 H 0.64434 0.7397 0.57685 0.0
H1323 H 0.62099 0.75498 0.54309 0.0
H1324 H 0.6275 0.73137 0.3491 0.0
H1325 H 0.63132 0.68958 0.36898 0.0
H1326 H 0.65891 0.70693 0.51923 0.0
C1327 C 0.65152 0.79804 0.48127 0.0
C1328 C 0.64485 0.81469 0.44465 0.0
C1329 C 0.63598 0.80716 0.39657 0.0
C1330 C 0.63396 0.78336 0.3855 0.0
C1331 C 0.64088 0.76737 0.42293 0.0
C1332 C 0.64948 0.77473 0.46985 0.0
C1333 C 0.65598 0.75493 0.50436 0.0
C1334 C 0.68298 0.75519 0.51753 0.0
C1335 C 0.64045 0.75506 0.55304 0.0
C1336 C 0.64973 0.73496 0.47012 0.0
C1337 C 0.64105 0.74207 0.42311 0.0
C1338 C 0.6343 0.72588 0.38595 0.0
C1339 C 0.63653 0.70213 0.39745 0.0
C1340 C 0.64543 0.69484 0.4457 0.0
C1341 C 0.65201 0.71171 0.48194 0.0
H1342 H 0.84564 0.70707 0.1447 0.0
H1343 H 0.91096 0.69376 0.05972 0.0
H1344 H 0.91919 0.73553 0.05615 0.0
H1345 H 0.8265 0.75644 0.08319 0.0
H1346 H 0.81669 0.77154 0.13966 0.0
H1347 H 0.81707 0.74069 0.13904 0.0
H1348 H 0.84423 0.74047 0.21969 0.0
H1349 H 0.84387 0.77141 0.22066 0.0
H1350 H 0.8721 0.75622 0.21926 0.0
H1351 H 0.91876 0.77937 0.05731 0.0
H1352 H 0.90964 0.82092 0.06281 0.0
H1353 H 0.84466 0.80575 0.1473 0.0
C1354 C 0.86193 0.71299 0.12634 0.0
C1355 C 0.87784 0.69718 0.10304 0.0
C1356 C 0.89883 0.70553 0.07879 0.0
C1357 C 0.90357 0.72925 0.07637 0.0
C1358 C 0.88744 0.74445 0.09946 0.0
C1359 C 0.86722 0.7366 0.12468 0.0
C1360 C 0.85268 0.75649 0.14608 0.0
C1361 C 0.8267 0.75627 0.12572 0.0
C1362 C 0.85325 0.75612 0.20491 0.0
C1363 C 0.86682 0.7768 0.12573 0.0
C1364 C 0.88721 0.76951 0.10017 0.0
C1365 C 0.90304 0.78519 0.07793 0.0
C1366 C 0.89782 0.8088 0.08156 0.0
C1367 C 0.87669 0.81658 0.10633 0.0
C1368 C 0.86112 0.80029 0.12884 0.0
H1369 H 0.62154 0.20446 0.64043 0.0
H1370 H 0.67822 0.19327 0.52967 0.0
H1371 H 0.68547 0.23499 0.52526 0.0
H1372 H 0.59688 0.25367 0.58578 0.0
H1373 H 0.59101 0.26895 0.64444 0.0
H1374 H 0.59201 0.23808 0.64443 0.0
H1375 H 0.62476 0.23881 0.71504 0.0
H1376 H 0.62374 0.26975 0.71545 0.0
H1377 H 0.65187 0.25511 0.70499 0.0
H1378 H 0.68421 0.27753 0.52572 0.0
H1379 H 0.67484 0.31883 0.53187 0.0
H1380 H 0.61894 0.30432 0.64246 0.0
C1381 C 0.63592 0.21086 0.61653 0.0
C1382 C 0.64965 0.19561 0.58597 0.0
C1383 C 0.66784 0.20461 0.55399 0.0
C1384 C 0.67204 0.22831 0.55117 0.0
C1385 C 0.65802 0.24297 0.5809 0.0
C1386 C 0.64049 0.2347 0.61347 0.0
C1387 C 0.62732 0.25457 0.6392 0.0
C1388 C 0.6002 0.25376 0.62774 0.0
C1389 C 0.63221 0.25455 0.69711 0.0
C1390 C 0.63923 0.27515 0.61376 0.0
C1391 C 0.65724 0.26792 0.58107 0.0
C1392 C 0.6704 0.2834 0.55176 0.0
C1393 C 0.66496 0.30684 0.55551 0.0
C1394 C 0.6464 0.31479 0.588 0.0
C1395 C 0.63348 0.29873 0.61794 0.0
H1396 H 0.95859 0.413 0.97276 0.0
H1397 H 0.94372 0.34202 1.00919 0.0
H1398 H 0.98712 0.33543 0.02635 0.0
H1399 H 0.01075 0.40403 0.90543 0.0
H1400 H 0.02653 0.42907 0.92817 0.0
H1401 H 0.99421 0.42892 0.92656 0.0
H1402 H 0.99299 0.43874 0.0232 0.0
H1403 H 0.02542 0.43897 0.02512 0.0
H1404 H 1.00885 0.42075 0.06812 0.0
H1405 H 0.03268 0.33567 0.02919 0.0
H1406 H 0.07624 0.34254 1.01613 0.0
H1407 H 0.0614 0.41337 0.9779 0.0
C1408 C 0.96448 0.39633 0.98617 0.0
C1409 C 0.94794 0.37813 0.99124 0.0
C1410 C 0.95617 0.35627 1.00674 0.0
C1411 C 0.98075 0.3524 1.01634 0.0
C1412 C 0.99679 0.37066 1.01054 0.0
C1413 C 0.98893 0.39226 0.99619 0.0
C1414 C 0.00992 0.40852 0.98879 0.0
C1415 C 0.01037 0.41818 0.93398 0.0
C1416 C 1.00925 0.4279 0.02868 0.0
C1417 C 0.03089 0.39246 0.99869 0.0
C1418 C 0.02297 0.3708 1.01222 0.0
C1419 C 0.03906 0.35271 0.02002 0.0
C1420 C 0.06377 0.35678 1.01299 0.0
C1421 C 0.07211 0.37869 0.99818 0.0
C1422 C 0.05548 0.39674 0.99141 0.0
H1423 H 0.45792 0.64791 0.41502 0.0
H1424 H 0.44138 0.61927 0.56409 0.0
H1425 H 0.48505 0.61813 0.58435 0.0
H1426 H 0.50777 0.61343 0.39034 0.0
H1427 H 0.52419 0.63552 0.35718 0.0
H1428 H 0.49186 0.63603 0.35748 0.0
H1429 H 0.49248 0.67724 0.39485 0.0
H1430 H 0.52487 0.67687 0.39457 0.0
H1431 H 0.50893 0.68288 0.45305 0.0
H1432 H 0.53184 0.61758 0.58419 0.0
H1433 H 0.57545 0.61757 0.56343 0.0
H1434 H 0.55892 0.64662 0.41453 0.0
C1435 C 0.46325 0.64164 0.45236 0.0
C1436 C 0.4461 0.63368 0.48801 0.0
C1437 C 0.45414 0.6256 0.53625 0.0
C1438 C 0.47892 0.62486 0.54801 0.0
C1439 C 0.49534 0.6324 0.51124 0.0
C1440 C 0.48765 0.64074 0.46449 0.0
C1441 C 0.50847 0.64667 0.43 0.0
C1442 C 0.50804 0.63204 0.38089 0.0
C1443 C 0.5087 0.67245 0.41741 0.0
C1444 C 0.52926 0.64016 0.46427 0.0
C1445 C 0.52158 0.63205 0.51112 0.0
C1446 C 0.53798 0.62412 0.54775 0.0
C1447 C 0.56272 0.62423 0.53573 0.0
C1448 C 0.57073 0.63206 0.48737 0.0
C1449 C 0.55361 0.64047 0.45192 0.0
H1450 H 0.45839 0.35698 0.58017 0.0
H1451 H 0.44397 0.42257 0.50858 0.0
H1452 H 0.48764 0.42771 0.49279 0.0
H1453 H 0.5101 0.37026 0.64489 0.0
H1454 H 0.52583 0.34378 0.63237 0.0
H1455 H 0.49351 0.34424 0.63262 0.0
H1456 H 0.49272 0.32734 0.54096 0.0
H1457 H 0.52515 0.3267 0.54051 0.0
H1458 H 0.50903 0.34156 0.49063 0.0
H1459 H 0.5335 0.42695 0.49213 0.0
H1460 H 0.57709 0.42029 0.50637 0.0
H1461 H 0.56099 0.35503 0.57775 0.0
C1462 C 0.46446 0.37215 0.56008 0.0
C1463 C 0.44796 0.3893 0.54501 0.0
C1464 C 0.45639 0.40906 0.51937 0.0
C1465 C 0.48114 0.41213 0.51048 0.0
C1466 C 0.49706 0.395 0.52638 0.0
C1467 C 0.48898 0.37519 0.54987 0.0
C1468 C 0.50973 0.3596 0.56436 0.0
C1469 C 0.50979 0.35418 0.62199 0.0
C1470 C 0.50911 0.33749 0.53222 0.0
C1471 C 0.53084 0.37451 0.54923 0.0
C1472 C 0.52324 0.39456 0.52597 0.0
C1473 C 0.53962 0.41114 0.50955 0.0
C1474 C 0.56433 0.4072 0.51752 0.0
C1475 C 0.57232 0.38708 0.54266 0.0
C1476 C 0.55533 0.3705 0.55814 0.0
H1477 H 0.06194 0.65903 0.03953 0.0
H1478 H 0.07683 0.58613 0.03763 0.0
H1479 H 0.03333 0.57811 0.02697 0.0
H1480 H 0.0108 0.65894 0.1099 0.0
H1481 H 0.99446 0.6803 0.07398 0.0
H1482 H 0.02677 0.68032 0.0735 0.0
H1483 H 0.02656 0.67803 0.97454 0.0
H1484 H 0.99411 0.67808 0.97471 0.0
H1485 H 0.01024 0.65531 0.94315 0.0
H1486 H 0.98794 0.57807 0.02774 0.0
H1487 H 0.94455 0.58598 0.03987 0.0
H1488 H 0.95898 0.65893 0.04024 0.0
C1489 C 0.05602 0.64145 0.03481 0.0
C1490 C 0.07265 0.62316 0.03789 0.0
C1491 C 0.06437 0.60032 0.0335 0.0
C1492 C 0.0397 0.59565 0.02774 0.0
C1493 C 0.02362 0.61405 0.02532 0.0
C1494 C 0.03149 0.63654 0.02784 0.0
C1495 C 0.01042 0.65313 0.02697 0.0
C1496 C 0.01063 0.66909 0.07391 0.0
C1497 C 0.01033 0.66696 0.97688 0.0
C1498 C 0.98946 0.63649 0.02816 0.0
C1499 C 0.99744 0.61402 0.0255 0.0
C1500 C 0.98148 0.59559 0.02841 0.0
C1501 C 0.95686 0.60021 0.0349 0.0
C1502 C 0.94845 0.62303 0.03911 0.0
C1503 C 0.96494 0.64137 0.03526 0.0
H1504 H 0.12143 0.542 0.1112 0.0
H1505 H 0.17637 0.5752 0.02035 0.0
H1506 H 0.18244 0.53924 0.97165 0.0
H1507 H 0.15458 0.48652 0.11648 0.0
H1508 H 0.12737 0.46976 0.11675 0.0
H1509 H 0.12762 0.49805 0.14473 0.0
H1510 H 0.09215 0.51012 0.08621 0.0
H1511 H 0.09175 0.48191 0.05817 0.0
H1512 H 0.09485 0.50682 0.01783 0.0
H1513 H 0.18203 0.49921 0.93157 0.0
H1514 H 0.17483 0.45911 0.90351 0.0
H1515 H 0.12045 0.45158 0.02059 0.0
C1516 C 0.13477 0.54168 0.08111 0.0
C1517 C 0.14815 0.56165 0.06905 0.0
C1518 C 0.1657 0.56032 0.02993 0.0
C1519 C 0.16934 0.53987 1.00218 0.0
C1520 C 0.15578 0.52053 1.0148 0.0
C1521 C 0.13907 0.52118 0.05388 0.0
C1522 C 0.12739 0.49779 0.06085 0.0
C1523 C 0.13466 0.48742 0.11278 0.0
C1524 C 0.0999 0.49926 0.05539 0.0
C1525 C 0.13871 0.48438 0.01712 0.0
C1526 C 0.15559 0.49761 0.99197 0.0
C1527 C 0.16889 0.48875 0.95115 0.0
C1528 C 0.16473 0.46594 0.93548 0.0
C1529 C 0.14705 0.45232 0.95967 0.0
C1530 C 0.13395 0.4617 1.00115 0.0
H1531 H 0.73397 0.86208 0.37116 0.0
H1532 H 0.70241 0.92846 0.3385 0.0
H1533 H 0.73105 0.93404 0.26766 0.0
H1534 H 0.79768 0.87991 0.33974 0.0
H1535 H 0.80459 0.85216 0.31307 0.0
H1536 H 0.78307 0.85459 0.36421 0.0
H1537 H 0.75184 0.83338 0.30776 0.0
H1538 H 0.77294 0.8317 0.25572 0.0
H1539 H 0.74398 0.84497 0.24598 0.0
H1540 H 0.75917 0.93005 0.19236 0.0
H1541 H 0.79199 0.92109 0.13133 0.0
H1542 H 0.8076 0.85876 0.21548 0.0
C1543 C 0.73393 0.87821 0.35065 0.0
C1544 C 0.71631 0.89511 0.36108 0.0
C1545 C 0.71615 0.91559 0.33192 0.0
C1546 C 0.73213 0.91877 0.2911 0.0
C1547 C 0.7485 0.90139 0.28001 0.0
C1548 C 0.75019 0.88188 0.31004 0.0
C1549 C 0.76958 0.86594 0.28956 0.0
C1550 C 0.78994 0.86298 0.32899 0.0
C1551 C 0.75894 0.84262 0.27383 0.0
C1552 C 0.77808 0.87934 0.24307 0.0
C1553 C 0.76538 0.89955 0.23769 0.0
C1554 C 0.76948 0.91441 0.19662 0.0
C1555 C 0.7879 0.90906 0.16164 0.0
C1556 C 0.80221 0.88922 0.16847 0.0
C1557 C 0.79682 0.874 0.20916 0.0
H1558 H 0.36986 0.47996 0.62517 0.0
H1559 H 0.38472 0.43395 0.49864 0.0
H1560 H 0.38448 0.46668 0.43913 0.0
H1561 H 0.32903 0.51773 0.55136 0.0
H1562 H 0.3388 0.54359 0.58307 0.0
H1563 H 0.33978 0.51653 0.61642 0.0
H1564 H 0.38501 0.5226 0.635 0.0
H1565 H 0.38414 0.54959 0.60148 0.0
H1566 H 0.40535 0.52776 0.58264 0.0
H1567 H 0.38441 0.50373 0.39342 0.0
H1568 H 0.38312 0.54342 0.36213 0.0
H1569 H 0.36658 0.56743 0.51522 0.0
C1570 C 0.373 0.47688 0.58488 0.0
C1571 C 0.37718 0.45426 0.56647 0.0
C1572 C 0.3811 0.45093 0.51353 0.0
C1573 C 0.38113 0.4695 0.47942 0.0
C1574 C 0.37689 0.49148 0.49844 0.0
C1575 C 0.37264 0.49538 0.54978 0.0
C1576 C 0.36816 0.52093 0.55924 0.0
C1577 C 0.34241 0.52493 0.57867 0.0
C1578 C 0.38679 0.5308 0.59681 0.0
C1579 C 0.37138 0.53074 0.50545 0.0
C1580 C 0.37629 0.51324 0.47129 0.0
C1581 C 0.38041 0.51756 0.41971 0.0
C1582 C 0.37964 0.54028 0.40227 0.0
C1583 C 0.37472 0.55877 0.4359 0.0
C1584 C 0.37033 0.55382 0.48838 0.0
H1585 H 0.78597 0.15125 0.86704 0.0
H1586 H 0.81774 0.08441 0.84161 0.0
H1587 H 0.79089 0.0784 0.76713 0.0
H1588 H 0.72325 0.1336 0.82901 0.0
H1589 H 0.7172 0.16127 0.80107 0.0
H1590 H 0.73756 0.15891 0.85451 0.0
H1591 H 0.77011 0.17964 0.80089 0.0
H1592 H 0.7502 0.1811 0.74654 0.0
H1593 H 0.77925 0.16762 0.74038 0.0
H1594 H 0.76271 0.08133 0.68947 0.0
H1595 H 0.72973 0.08953 0.62768 0.0
H1596 H 0.71602 0.15397 0.7049 0.0
C1597 C 0.78641 0.13492 0.84723 0.0
C1598 C 0.80337 0.11792 0.86121 0.0
C1599 C 0.80424 0.09725 0.83275 0.0
C1600 C 0.78935 0.09387 0.78979 0.0
C1601 C 0.77343 0.1113 0.77572 0.0
C1602 C 0.7713 0.13111 0.80466 0.0
C1603 C 0.75257 0.14707 0.78163 0.0
C1604 C 0.7314 0.1504 0.81875 0.0
C1605 C 0.76371 0.17022 0.76647 0.0
C1606 C 0.74499 0.13342 0.73472 0.0
C1607 C 0.75732 0.11291 0.73157 0.0
C1608 C 0.7529 0.09735 0.69175 0.0
C1609 C 0.73443 0.10228 0.65614 0.0
C1610 C 0.72059 0.12255 0.66079 0.0
C1611 C 0.72663 0.13855 0.69967 0.0
H1612 H 0.85635 0.56222 0.03362 0.0
H1613 H 0.90427 0.54646 0.16041 0.0
H1614 H 0.909 0.50722 0.12867 0.0
H1615 H 0.82668 0.50565 0.03309 0.0
H1616 H 0.82405 0.50394 0.96444 0.0
H1617 H 0.82402 0.53152 0.9957 0.0
H1618 H 0.85968 0.5446 0.9396 0.0
H1619 H 0.85971 0.51711 0.90798 0.0
H1620 H 0.88676 0.52755 0.93811 0.0
H1621 H 0.91098 0.47041 0.08312 0.0
H1622 H 0.90827 0.43665 0.02625 0.0
H1623 H 0.85693 0.47271 0.93047 0.0
C1624 C 0.8677 0.55042 0.05469 0.0
C1625 C 0.87989 0.55764 0.0999 0.0
C1626 C 0.89458 0.54156 0.12611 0.0
C1627 C 0.89747 0.5191 0.1083 0.0
C1628 C 0.88531 0.51245 0.06424 0.0
C1629 C 0.87052 0.52741 0.03773 0.0
C1630 C 0.85942 0.51513 0.99164 0.0
C1631 C 0.83191 0.514 0.99652 0.0
C1632 C 0.86685 0.5268 0.94136 0.0
C1633 C 0.87067 0.49125 0.99644 0.0
C1634 C 0.88562 0.49032 0.03865 0.0
C1635 C 0.89906 0.47077 0.05034 0.0
C1636 C 0.89739 0.45164 0.01795 0.0
C1637 C 0.88204 0.45187 0.97484 0.0
C1638 C 0.86835 0.47191 0.96404 0.0
H1639 H 0.213 0.15493 0.82264 0.0
H1640 H 0.22453 0.08841 0.8926 0.0
H1641 H 0.25585 0.07976 0.82782 0.0
H1642 H 0.21948 0.13806 0.6942 0.0
H1643 H 0.23534 0.16345 0.67411 0.0
H1644 H 0.21469 0.16486 0.72703 0.0
H1645 H 0.24815 0.181 0.78618 0.0
H1646 H 0.26865 0.18042 0.73299 0.0
H1647 H 0.27632 0.16582 0.7916 0.0
H1648 H 0.28335 0.07729 0.74949 0.0
H1649 H 0.31126 0.08442 0.67744 0.0
H1650 H 0.28354 0.15355 0.66285 0.0
C1651 C 0.2225 0.13872 0.82501 0.0
C1652 C 0.2164 0.12233 0.86274 0.0
C1653 C 0.22914 0.10131 0.86449 0.0
C1654 C 0.24671 0.09616 0.82739 0.0
C1655 C 0.25153 0.11236 0.78931 0.0
C1656 C 0.24029 0.13351 0.78895 0.0
C1657 C 0.24911 0.14824 0.745 0.0
C1658 C 0.22842 0.15399 0.70791 0.0
C1659 C 0.26129 0.17016 0.76515 0.0
C1660 C 0.26714 0.13212 0.72046 0.0
C1661 C 0.26787 0.11129 0.74582 0.0
C1662 C 0.28295 0.09356 0.72959 0.0
C1663 C 0.29846 0.09761 0.68809 0.0
C1664 C 0.29909 0.11929 0.66384 0.0
C1665 C 0.28294 0.1366 0.67983 0.0
H1666 H 0.64119 0.56399 0.51587 0.0
H1667 H 0.64454 0.54068 0.35841 0.0
H1668 H 0.64558 0.50061 0.3877 0.0
H1669 H 0.68041 0.5185 0.56996 0.0
H1670 H 0.66298 0.51528 0.62754 0.0
H1671 H 0.66402 0.54263 0.59544 0.0
H1672 H 0.61766 0.54313 0.58999 0.0
H1673 H 0.6164 0.51575 0.62183 0.0
H1674 H 0.60213 0.51942 0.56037 0.0
H1675 H 0.64451 0.46306 0.43168 0.0
H1676 H 0.6416 0.42972 0.48934 0.0
H1677 H 0.63851 0.47514 0.62028 0.0
C1678 C 0.64259 0.55045 0.48777 0.0
C1679 C 0.643 0.55563 0.43457 0.0
C1680 C 0.64425 0.53728 0.39915 0.0
C1681 C 0.64487 0.51438 0.41545 0.0
C1682 C 0.64408 0.50976 0.46767 0.0
C1683 C 0.643 0.52716 0.50358 0.0
C1684 C 0.64144 0.51696 0.55738 0.0
C1685 C 0.66353 0.52375 0.58947 0.0
C1686 C 0.61801 0.52425 0.58394 0.0
C1687 C 0.64149 0.49125 0.54563 0.0
C1688 C 0.64325 0.48767 0.49351 0.0
C1689 C 0.64345 0.46565 0.47262 0.0
C1690 C 0.64206 0.44673 0.50567 0.0
C1691 C 0.64045 0.44969 0.55918 0.0
C1692 C 0.63987 0.47234 0.57944 0.0
H1693 H 0.29333 0.92167 0.35283 0.0
H1694 H 0.30733 0.84878 0.36573 0.0
H1695 H 0.27763 0.84107 0.2975 0.0
H1696 H 0.22677 0.91495 0.32652 0.0
H1697 H 0.22652 0.93911 0.2835 0.0
H1698 H 0.24736 0.93843 0.33638 0.0
H1699 H 0.28231 0.94455 0.2725 0.0
H1700 H 0.26168 0.94425 0.21924 0.0
H1701 H 0.28656 0.9244 0.22093 0.0
H1702 H 0.25067 0.84155 0.22036 0.0
H1703 H 0.21976 0.84908 0.15426 0.0
H1704 H 0.22009 0.9212 0.19415 0.0
C1705 C 0.2892 0.90406 0.34296 0.0
C1706 C 0.30214 0.88572 0.3656 0.0
C1707 C 0.29707 0.86297 0.35003 0.0
C1708 C 0.28052 0.85846 0.31067 0.0
C1709 C 0.26887 0.87691 0.28743 0.0
C1710 C 0.27222 0.89919 0.30423 0.0
C1711 C 0.25699 0.91575 0.2728 0.0
C1712 C 0.2383 0.92777 0.30682 0.0
C1713 C 0.27284 0.93327 0.24472 0.0
C1714 C 0.24503 0.89935 0.23524 0.0
C1715 C 0.25257 0.87708 0.24383 0.0
C1716 C 0.24449 0.8589 0.21359 0.0
C1717 C 0.22723 0.86337 0.17551 0.0
C1718 C 0.21806 0.88577 0.16811 0.0
C1719 C 0.22738 0.90404 0.19788 0.0
H1720 H 0.62596 0.97565 0.4135 0.0
H1721 H 0.67086 0.93529 0.51449 0.0
H1722 H 0.67434 0.96803 0.57371 0.0
H1723 H 0.66851 0.02596 0.43421 0.0
H1724 H 0.64525 0.04694 0.42325 0.0
H1725 H 0.64412 0.01958 0.391 0.0
H1726 H 0.60153 0.01258 0.42725 0.0
H1727 H 0.60256 0.03981 0.45974 0.0
H1728 H 0.59676 0.01392 0.49543 0.0
H1729 H 0.6682 1.00391 0.62717 0.0
H1730 H 0.66244 0.04305 0.66162 0.0
H1731 H 0.63134 0.06449 0.51709 0.0
C1732 C 0.63636 0.97373 0.44831 0.0
C1733 C 0.64619 0.95201 0.46198 0.0
C1734 C 0.66116 0.95084 0.50581 0.0
C1735 C 0.66372 0.96962 0.53913 0.0
C1736 C 0.65296 0.99041 0.52597 0.0
C1737 C 0.64082 0.99302 0.48014 0.0
C1738 C 0.63429 0.01826 0.47212 0.0
C1739 C 0.6489 0.02828 0.42749 0.0
C1740 C 0.60716 0.02131 0.46314 0.0
C1741 C 0.64234 0.0288 0.52293 0.0
C1742 C 0.6531 0.01229 0.55326 0.0
C1743 C 0.66046 0.01715 0.60321 0.0
C1744 C 0.65701 0.03944 0.62261 0.0
C1745 C 0.64683 0.05698 0.59204 0.0
C1746 C 0.63961 0.05157 0.54116 0.0
H1747 H 0.23359 0.40813 0.8747 0.0
H1748 H 0.20074 0.34378 0.82936 0.0
H1749 H 0.22922 0.34031 0.75789 0.0
H1750 H 0.24432 0.42972 0.75281 0.0
H1751 H 0.27365 0.44171 0.76504 0.0
H1752 H 0.25242 0.43874 0.81656 0.0
H1753 H 0.28296 0.41462 0.86886 0.0
H1754 H 0.30459 0.41827 0.81833 0.0
H1755 H 0.2968 0.38986 0.83976 0.0
H1756 H 0.25741 0.34609 0.68438 0.0
H1757 H 0.29088 0.35597 0.62591 0.0
H1758 H 0.30753 0.41515 0.72007 0.0
C1759 C 0.23313 0.39289 0.85101 0.0
C1760 C 0.215 0.37613 0.85777 0.0
C1761 C 0.21456 0.35673 0.82501 0.0
C1762 C 0.23051 0.35471 0.78393 0.0
C1763 C 0.24721 0.37207 0.77621 0.0
C1764 C 0.24933 0.39038 0.80979 0.0
C1765 C 0.26919 0.40647 0.79236 0.0
C1766 C 0.25929 0.43059 0.78103 0.0
C1767 C 0.28959 0.40735 0.83219 0.0
C1768 C 0.27733 0.39458 0.74352 0.0
C1769 C 0.26416 0.37494 0.73453 0.0
C1770 C 0.26807 0.36132 0.69127 0.0
C1771 C 0.28683 0.36723 0.65774 0.0
C1772 C 0.30161 0.3864 0.66813 0.0
C1773 C 0.29632 0.40051 0.71091 0.0
H1774 H 0.86934 0.97839 0.12786 0.0
H1775 H 0.87632 0.93185 0.99916 0.0
H1776 H 0.87655 0.96475 0.93996 0.0
H1777 H 0.82856 0.01869 0.05919 0.0
H1778 H 0.84079 0.04382 0.08987 0.0
H1779 H 0.84092 0.01665 0.12284 0.0
H1780 H 0.8869 0.01994 0.13595 0.0
H1781 H 0.88686 0.04707 0.10295 0.0
H1782 H 0.90608 0.02412 0.08123 0.0
H1783 H 0.87852 1.00233 0.89443 0.0
H1784 H 0.87954 0.04231 0.8642 0.0
H1785 H 0.86875 0.06639 0.01959 0.0
C1786 C 0.87081 0.9752 0.08718 0.0
C1787 C 0.87289 0.95236 0.06828 0.0
C1788 C 0.87457 0.949 1.01472 0.0
C1789 C 0.87479 0.96766 0.98068 0.0
C1790 C 0.87281 0.98986 1.00028 0.0
C1791 C 0.87046 0.99381 0.05217 0.0
C1792 C 0.86796 0.01957 0.06237 0.0
C1793 C 0.84308 0.025 0.08491 0.0
C1794 C 0.88816 0.02818 0.09772 0.0
C1795 C 0.87036 0.02943 1.00839 0.0
C1796 C 0.87301 0.01182 0.97339 0.0
C1797 C 0.8762 0.01623 0.92144 0.0
C1798 C 0.87678 0.03911 0.90458 0.0
C1799 C 0.87407 0.05768 0.93911 0.0
C1800 C 0.87062 0.05266 0.99195 0.0
H1801 H 0.22677 0.5983 0.17558 0.0
H1802 H 0.21136 0.67115 0.1741 0.0
H1803 H 0.24007 0.67708 0.24513 0.0
H1804 H 0.23111 0.59181 0.30763 0.0
H1805 H 0.25604 0.57202 0.30826 0.0
H1806 H 0.23624 0.57318 0.25365 0.0
H1807 H 0.27212 0.58121 0.19322 0.0
H1808 H 0.29214 0.57904 0.24729 0.0
H1809 H 0.29246 0.60439 0.20784 0.0
H1810 H 0.26612 0.67447 0.32327 0.0
H1811 H 0.29651 0.66525 0.38938 0.0
H1812 H 0.29755 0.59457 0.33827 0.0
C1813 C 0.23039 0.61559 0.18866 0.0
C1814 C 0.21737 0.63442 0.16853 0.0
C1815 C 0.2217 0.65667 0.18812 0.0
C1816 C 0.23767 0.66013 0.22899 0.0
C1817 C 0.24932 0.64112 0.24985 0.0
C1818 C 0.24661 0.6194 0.22929 0.0
C1819 C 0.26143 0.602 0.2592 0.0
C1820 C 0.24523 0.58367 0.28361 0.0
C1821 C 0.28068 0.59102 0.22484 0.0
C1822 C 0.27265 0.61733 0.29984 0.0
C1823 C 0.26494 0.63973 0.29436 0.0
C1824 C 0.27241 0.65701 0.32776 0.0
C1825 C 0.28931 0.65154 0.36587 0.0
C1826 C 0.29879 0.62909 0.36994 0.0
C1827 C 0.28996 0.61168 0.33712 0.0
H1828 H 0.36256 0.95087 0.51282 0.0
H1829 H 0.39484 0.97287 0.36993 0.0
H1830 H 0.39785 0.01214 0.40274 0.0
H1831 H 0.32723 1.00294 0.53402 0.0
H1832 H 0.33201 1.00384 0.60224 0.0
H1833 H 0.33232 0.97672 0.56905 0.0
H1834 H 0.37461 0.96804 0.60528 0.0
H1835 H 0.37442 0.9951 0.63875 0.0
H1836 H 0.39858 0.98836 0.59543 0.0
H1837 H 0.40076 0.04841 0.45113 0.0
H1838 H 0.39898 0.08125 0.51043 0.0
H1839 H 0.36113 0.03944 0.62101 0.0
C1840 C 0.37023 0.96397 0.48858 0.0
C1841 C 0.37864 0.95845 0.43855 0.0
C1842 C 0.38835 0.97633 0.4082 0.0
C1843 C 0.39021 0.99885 0.42658 0.0
C1844 C 0.38214 1.00371 0.47571 0.0
C1845 C 0.37207 0.98698 0.50641 0.0
C1846 C 0.36463 0.99752 0.5577 0.0
C1847 C 0.33742 0.99511 0.56623 0.0
C1848 C 0.37891 0.9866 0.60191 0.0
C1849 C 0.37183 0.02267 0.55027 0.0
C1850 C 0.38235 0.02553 0.5029 0.0
C1851 C 0.39206 0.04652 0.48787 0.0
C1852 C 0.39082 0.06521 0.52169 0.0
C1853 C 0.37916 0.06329 0.56945 0.0
C1854 C 0.36965 0.0416 0.58412 0.0
H1855 H 0.78417 0.60586 0.15472 0.0
H1856 H 0.82304 0.66381 0.21872 0.0
H1857 H 0.79488 0.66556 0.29041 0.0
H1858 H 0.72323 0.63039 0.19457 0.0
H1859 H 0.71096 0.60229 0.20621 0.0
H1860 H 0.73347 0.6062 0.1575 0.0
H1861 H 0.75952 0.57491 0.20106 0.0
H1862 H 0.7375 0.57147 0.25088 0.0
H1863 H 0.76819 0.57832 0.26718 0.0
H1864 H 0.76675 0.65777 0.36234 0.0
H1865 H 0.73202 0.64832 0.4177 0.0
H1866 H 0.70766 0.59879 0.30516 0.0
C1867 C 0.78617 0.61939 0.18278 0.0
C1868 C 0.80623 0.63438 0.18142 0.0
C1869 C 0.80814 0.65182 0.21924 0.0
C1870 C 0.79229 0.65295 0.26051 0.0
C1871 C 0.77379 0.63705 0.26295 0.0
C1872 C 0.76979 0.62134 0.22403 0.0
C1873 C 0.74752 0.60714 0.23588 0.0
C1874 C 0.72762 0.61178 0.19618 0.0
C1875 C 0.75356 0.58143 0.23893 0.0
C1876 C 0.74064 0.61665 0.28818 0.0
C1877 C 0.75628 0.63369 0.30329 0.0
C1878 C 0.7541 0.64466 0.35067 0.0
C1879 C 0.73459 0.63893 0.38234 0.0
C1880 C 0.71736 0.62268 0.36606 0.0
C1881 C 0.72079 0.61109 0.31883 0.0
H1882 H 0.16378 0.04032 0.92463 0.0
H1883 H 0.11504 0.07821 0.02252 0.0
H1884 H 0.11215 0.04487 0.08027 0.0
H1885 H 0.13249 0.98662 0.93474 0.0
H1886 H 0.15905 0.96886 0.93494 0.0
H1887 H 0.15943 0.99629 0.9032 0.0
H1888 H 0.19611 0.00871 0.95752 0.0
H1889 H 0.19597 0.98123 0.98915 0.0
H1890 H 0.19446 1.00726 0.02631 0.0
H1891 H 0.11372 0.00806 0.12674 0.0
H1892 H 0.11766 0.96864 0.1585 0.0
H1893 H 0.16305 0.9514 0.02903 0.0
C1894 C 0.15283 0.04158 0.95872 0.0
C1895 C 0.13993 0.06204 0.96977 0.0
C1896 C 0.12529 0.0629 1.01383 0.0
C1897 C 0.12353 0.044 0.0468 0.0
C1898 C 0.13619 0.02404 0.03485 0.0
C1899 C 0.15045 0.0225 0.99177 0.0
C1900 C 0.1609 0.99832 0.98687 0.0
C1901 C 0.15246 0.98684 0.93698 0.0
C1902 C 0.1885 0.99892 0.99016 0.0
C1903 C 0.15008 0.98657 0.03371 0.0
C1904 C 0.1362 1.00202 0.06091 0.0
C1905 C 0.12452 0.9958 0.1058 0.0
C1906 C 0.12694 0.97326 0.12362 0.0
C1907 C 0.14066 0.95675 0.09656 0.0
C1908 C 0.1524 0.96355 0.05069 0.0
H1909 H 0.74055 0.40241 0.64501 0.0
H1910 H 0.6928 0.35306 0.71565 0.0
H1911 H 0.72032 0.34965 0.78929 0.0
H1912 H 0.79769 0.37353 0.69133 0.0
H1913 H 0.81269 0.40064 0.70008 0.0
H1914 H 0.79027 0.39752 0.65069 0.0
H1915 H 0.7672 0.43221 0.68873 0.0
H1916 H 0.7891 0.43494 0.73922 0.0
H1917 H 0.75774 0.43141 0.75466 0.0
H1918 H 0.75011 0.35549 0.86082 0.0
H1919 H 0.78533 0.36363 0.91662 0.0
H1920 H 0.81514 0.40704 0.79802 0.0
C1921 C 0.73657 0.39011 0.67485 0.0
C1922 C 0.71482 0.3776 0.67426 0.0
C1923 C 0.70968 0.36235 0.71498 0.0
C1924 C 0.72504 0.36052 0.75729 0.0
C1925 C 0.7458 0.37377 0.7581 0.0
C1926 C 0.75211 0.38765 0.71722 0.0
C1927 C 0.77559 0.39999 0.72824 0.0
C1928 C 0.79521 0.39247 0.69034 0.0
C1929 C 0.77218 0.42619 0.72767 0.0
C1930 C 0.78096 0.39135 0.78187 0.0
C1931 C 0.76343 0.37647 0.79872 0.0
C1932 C 0.76419 0.36686 0.84775 0.0
C1933 C 0.78404 0.37178 0.87948 0.0
C1934 C 0.80288 0.3859 0.8616 0.0
C1935 C 0.80096 0.39612 0.81262 0.0
loop_
_geom_bond_atom_site_label_1
_geom_bond_atom_site_label_2
_geom_bond_distance
_geom_bond_site_symmetry_2
_ccdc_geom_bond_type
Pr0 C2 2.880 . S
Pr0 O20 2.562 . S
Pr0 O21 2.490 . S
Pr0 O22 2.695 1_556 S
Pr0 O23 2.512 1_556 S
Pr0 O25 2.437 . S
Pr0 O28 2.436 1_556 S
Pr0 O30 2.438 1_556 S
Pr1 C11 2.880 . S
Pr1 O22 2.436 . S
Pr1 O24 2.438 . S
Pr1 O26 2.562 . S
Pr1 O27 2.490 . S
Pr1 O28 2.695 . S
Pr1 O29 2.512 . S
Pr1 O31 2.437 . S
C2 Pr0 2.880 . S
C2 C3 1.491 . S
C2 O20 1.254 . S
C2 O21 1.225 . S
C3 C2 1.491 . S
C3 C4 1.392 . S
C3 C8 1.356 . S
C4 C3 1.392 . S
C4 C5 1.368 . S
C4 H32 0.929 . S
C5 C4 1.368 . S
C5 C6 1.386 . S
C5 H33 0.929 . S
C6 C5 1.386 . S
C6 C7 1.373 . S
C7 C6 1.373 . S
C7 C8 1.409 . S
C7 H34 0.931 . S
C8 C3 1.356 . S
C8 C7 1.409 . S
C8 H35 0.930 . S
C9 O22 1.270 . S
C9 O23 1.248 . S
C10 O24 1.267 . S
C10 O25 1.278 1_554 S
C11 Pr1 2.880 . S
C11 C12 1.491 . S
C11 O26 1.254 . S
C11 O27 1.225 . S
C12 C11 1.491 . S
C12 C13 1.392 . S
C12 C17 1.356 . S
C13 C12 1.392 . S
C13 C14 1.368 . S
C13 H36 0.929 . S
C14 C13 1.368 . S
C14 C15 1.386 . S
C14 H37 0.929 . S
C15 C14 1.386 . S
C15 C16 1.373 . S
C16 C15 1.373 . S
C16 C17 1.409 . S
C16 H38 0.931 . S
C17 C12 1.356 . S
C17 C16 1.409 . S
C17 H39 0.930 . S
C18 O28 1.270 . S
C18 O29 1.248 . S
C19 O30 1.267 . S
C19 O31 1.278 . S
O20 Pr0 2.562 . S
O20 C2 1.254 . S
O21 Pr0 2.490 . S
O21 C2 1.225 . S
O22 Pr0 2.695 1_554 S
O22 Pr1 2.436 . S
O22 C9 1.270 . S
O23 Pr0 2.512 1_554 S
O23 C9 1.248 . S
O24 Pr1 2.438 . S
O24 C10 1.267 . S
O25 Pr0 2.437 . S
O25 C10 1.278 1_556 S
O26 Pr1 2.562 . S
O26 C11 1.254 . S
O27 Pr1 2.490 . S
O27 C11 1.225 . S
O28 Pr0 2.436 1_554 S
O28 Pr1 2.695 . S
O28 C18 1.270 . S
O29 Pr1 2.512 . S
O29 C18 1.248 . S
O30 Pr0 2.438 1_554 S
O30 C19 1.267 . S
O31 Pr1 2.437 . S
O31 C19 1.278 . S
H32 C4 0.929 . S
H33 C5 0.929 . S
H34 C7 0.931 . S
H35 C8 0.930 . S
H36 C13 0.929 . S
H37 C14 0.929 . S
H38 C16 0.931 . S
H39 C17 0.930 . S
Pr40 C42 2.880 . S
Pr40 O60 2.562 . S
Pr40 O61 2.490 . S
Pr40 O62 2.695 . S
Pr40 O63 2.512 . S
Pr40 O65 2.437 . S
Pr40 O68 2.436 . S
Pr40 O70 2.438 . S
Pr41 C51 2.880 . S
Pr41 O62 2.436 . S
Pr41 O64 2.438 . S
Pr41 O66 2.562 . S
Pr41 O67 2.490 . S
Pr41 O68 2.695 . S
Pr41 O69 2.512 . S
Pr41 O71 2.437 . S
C42 Pr40 2.880 . S
C42 C43 1.491 . S
C42 O60 1.254 . S
C42 O61 1.225 . S
C43 C42 1.491 . S
C43 C44 1.392 . S
C43 C48 1.356 . S
C44 C43 1.392 . S
C44 C45 1.368 . S
C44 H72 0.929 . S
C45 C44 1.368 . S
C45 C46 1.386 . S
C45 H73 0.929 . S
C46 C45 1.386 . S
C46 C47 1.373 . S
C47 C46 1.373 . S
C47 C48 1.409 . S
C47 H74 0.931 . S
C48 C43 1.356 . S
C48 C47 1.409 . S
C48 H75 0.930 . S
C49 O62 1.270 . S
C49 O63 1.248 . S
C50 O64 1.267 . S
C50 O65 1.278 . S
C51 Pr41 2.880 . S
C51 C52 1.491 . S
C51 O66 1.254 . S
C51 O67 1.225 . S
C52 C51 1.491 . S
C52 C53 1.392 . S
C52 C57 1.356 . S
C53 C52 1.392 . S
C53 C54 1.368 . S
C53 H76 0.929 . S
C54 C53 1.368 . S
C54 C55 1.386 . S
C54 H77 0.929 . S
C55 C54 1.386 . S
C55 C56 1.373 . S
C56 C55 1.373 . S
C56 C57 1.409 . S
C56 H78 0.931 . S
C57 C52 1.356 . S
C57 C56 1.409 . S
C57 H79 0.930 . S
C58 O68 1.270 . S
C58 O69 1.248 . S
C59 O70 1.267 . S
C59 O71 1.278 . S
O60 Pr40 2.562 . S
O60 C42 1.254 . S
O61 Pr40 2.490 . S
O61 C42 1.225 . S
O62 Pr40 2.695 . S
O62 Pr41 2.436 . S
O62 C49 1.270 . S
O63 Pr40 2.512 . S
O63 C49 1.248 . S
O64 Pr41 2.438 . S
O64 C50 1.267 . S
O65 Pr40 2.437 . S
O65 C50 1.278 . S
O66 Pr41 2.562 . S
O66 C51 1.254 . S
O67 Pr41 2.490 . S
O67 C51 1.225 . S
O68 Pr40 2.436 . S
O68 Pr41 2.695 . S
O68 C58 1.270 . S
O69 Pr41 2.512 . S
O69 C58 1.248 . S
O70 Pr40 2.438 . S
O70 C59 1.267 . S
O71 Pr41 2.437 . S
O71 C59 1.278 . S
H72 C44 0.929 . S
H73 C45 0.929 . S
H74 C47 0.931 . S
H75 C48 0.930 . S
H76 C53 0.929 . S
H77 C54 0.929 . S
H78 C56 0.931 . S
H79 C57 0.930 . S
Pr80 C82 2.880 . S
Pr80 O100 2.562 . S
Pr80 O101 2.490 . S
Pr80 O102 2.695 . S
Pr80 O103 2.512 . S
Pr80 O105 2.437 . S
Pr80 O108 2.436 . S
Pr80 O110 2.438 . S
Pr81 C91 2.880 . S
Pr81 O102 2.436 . S
Pr81 O104 2.438 . S
Pr81 O106 2.562 . S
Pr81 O107 2.490 . S
Pr81 O108 2.695 . S
Pr81 O109 2.512 . S
Pr81 O111 2.437 . S
C82 Pr80 2.880 . S
C82 C83 1.491 . S
C82 O100 1.254 . S
C82 O101 1.225 . S
C83 C82 1.491 . S
C83 C84 1.392 . S
C83 C88 1.356 . S
C84 C83 1.392 . S
C84 C85 1.368 . S
C84 H112 0.929 . S
C85 C84 1.368 . S
C85 C86 1.386 . S
C85 H113 0.929 . S
C86 C85 1.386 . S
C86 C87 1.373 . S
C87 C86 1.373 . S
C87 C88 1.409 . S
C87 H114 0.931 . S
C88 C83 1.356 . S
C88 C87 1.409 . S
C88 H115 0.930 . S
C89 O102 1.270 . S
C89 O103 1.248 . S
C90 O104 1.267 . S
C90 O105 1.278 . S
C91 Pr81 2.880 . S
C91 C92 1.491 . S
C91 O106 1.254 . S
C91 O107 1.225 . S
C92 C91 1.491 . S
C92 C93 1.392 . S
C92 C97 1.356 . S
C93 C92 1.392 . S
C93 C94 1.368 . S
C93 H116 0.929 . S
C94 C93 1.368 . S
C94 C95 1.386 . S
C94 H117 0.929 . S
C95 C94 1.386 . S
C95 C96 1.373 . S
C96 C95 1.373 . S
C96 C97 1.409 . S
C96 H118 0.931 . S
C97 C92 1.356 . S
C97 C96 1.409 . S
C97 H119 0.930 . S
C98 O108 1.270 . S
C98 O109 1.248 . S
C99 O110 1.267 . S
C99 O111 1.278 . S
O100 Pr80 2.562 . S
O100 C82 1.254 . S
O101 Pr80 2.490 . S
O101 C82 1.225 . S
O102 Pr80 2.695 . S
O102 Pr81 2.436 . S
O102 C89 1.270 . S
O103 Pr80 2.512 . S
O103 C89 1.248 . S
O104 Pr81 2.438 . S
O104 C90 1.267 . S
O105 Pr80 2.437 . S
O105 C90 1.278 . S
O106 Pr81 2.562 . S
O106 C91 1.254 . S
O107 Pr81 2.490 . S
O107 C91 1.225 . S
O108 Pr80 2.436 . S
O108 Pr81 2.695 . S
O108 C98 1.270 . S
O109 Pr81 2.512 . S
O109 C98 1.248 . S
O110 Pr80 2.438 . S
O110 C99 1.267 . S
O111 Pr81 2.437 . S
O111 C99 1.278 . S
H112 C84 0.929 . S
H113 C85 0.929 . S
H114 C87 0.931 . S
H115 C88 0.930 . S
H116 C93 0.929 . S
H117 C94 0.929 . S
H118 C96 0.931 . S
H119 C97 0.930 . S
Pr120 C122 2.880 . S
Pr120 O140 2.562 . S
Pr120 O141 2.490 . S
Pr120 O142 2.695 1_554 S
Pr120 O143 2.512 1_554 S
Pr120 O145 2.437 . S
Pr120 O148 2.436 1_554 S
Pr120 O150 2.438 1_554 S
Pr121 C131 2.880 . S
Pr121 O142 2.436 . S
Pr121 O144 2.438 . S
Pr121 O146 2.562 . S
Pr121 O147 2.490 . S
Pr121 O148 2.695 . S
Pr121 O149 2.512 . S
Pr121 O151 2.437 . S
C122 Pr120 2.880 . S
C122 C123 1.491 . S
C122 O140 1.254 . S
C122 O141 1.225 . S
C123 C122 1.491 . S
C123 C124 1.392 . S
C123 C128 1.356 . S
C124 C123 1.392 . S
C124 C125 1.368 . S
C124 H152 0.929 . S
C125 C124 1.368 . S
C125 C126 1.386 . S
C125 H153 0.929 . S
C126 C125 1.386 . S
C126 C127 1.373 . S
C127 C126 1.373 . S
C127 C128 1.409 . S
C127 H154 0.931 . S
C128 C123 1.356 . S
C128 C127 1.409 . S
C128 H155 0.930 . S
C129 O142 1.270 . S
C129 O143 1.248 . S
C130 O144 1.267 . S
C130 O145 1.278 1_556 S
C131 Pr121 2.880 . S
C131 C132 1.491 . S
C131 O146 1.254 . S
C131 O147 1.225 . S
C132 C131 1.491 . S
C132 C133 1.392 . S
C132 C137 1.356 . S
C133 C132 1.392 . S
C133 C134 1.368 . S
C133 H156 0.929 . S
C134 C133 1.368 . S
C134 C135 1.386 . S
C134 H157 0.929 . S
C135 C134 1.386 . S
C135 C136 1.373 . S
C136 C135 1.373 . S
C136 C137 1.409 . S
C136 H158 0.931 . S
C137 C132 1.356 . S
C137 C136 1.409 . S
C137 H159 0.930 . S
C138 O148 1.270 . S
C138 O149 1.248 . S
C139 O150 1.267 . S
C139 O151 1.278 . S
O140 Pr120 2.562 . S
O140 C122 1.254 . S
O141 Pr120 2.490 . S
O141 C122 1.225 . S
O142 Pr120 2.695 1_556 S
O142 Pr121 2.436 . S
O142 C129 1.270 . S
O143 Pr120 2.512 1_556 S
O143 C129 1.248 . S
O144 Pr121 2.438 . S
O144 C130 1.267 . S
O145 Pr120 2.437 . S
O145 C130 1.278 1_554 S
O146 Pr121 2.562 . S
O146 C131 1.254 . S
O147 Pr121 2.490 . S
O147 C131 1.225 . S
O148 Pr120 2.436 1_556 S
O148 Pr121 2.695 . S
O148 C138 1.270 . S
O149 Pr121 2.512 . S
O149 C138 1.248 . S
O150 Pr120 2.438 1_556 S
O150 C139 1.267 . S
O151 Pr121 2.437 . S
O151 C139 1.278 . S
H152 C124 0.929 . S
H153 C125 0.929 . S
H154 C127 0.931 . S
H155 C128 0.930 . S
H156 C133 0.929 . S
H157 C134 0.929 . S
H158 C136 0.931 . S
H159 C137 0.930 . S
Pr160 C162 2.880 . S
Pr160 O180 2.562 . S
Pr160 O181 2.490 . S
Pr160 O182 2.695 1_554 S
Pr160 O183 2.512 1_554 S
Pr160 O185 2.437 . S
Pr160 O188 2.436 1_554 S
Pr160 O190 2.438 1_554 S
Pr161 C171 2.880 . S
Pr161 O182 2.436 . S
Pr161 O184 2.438 . S
Pr161 O186 2.562 . S
Pr161 O187 2.490 . S
Pr161 O188 2.695 . S
Pr161 O189 2.512 . S
Pr161 O191 2.437 . S
C162 Pr160 2.880 . S
C162 C163 1.491 . S
C162 O180 1.254 . S
C162 O181 1.225 . S
C163 C162 1.491 . S
C163 C164 1.392 . S
C163 C168 1.356 . S
C164 C163 1.392 . S
C164 C165 1.368 . S
C164 H192 0.929 . S
C165 C164 1.368 . S
C165 C166 1.386 . S
C165 H193 0.929 . S
C166 C165 1.386 . S
C166 C167 1.373 . S
C167 C166 1.373 . S
C167 C168 1.409 . S
C167 H194 0.931 . S
C168 C163 1.356 . S
C168 C167 1.409 . S
C168 H195 0.930 . S
C169 O182 1.270 . S
C169 O183 1.248 . S
C170 O184 1.267 . S
C170 O185 1.278 1_556 S
C171 Pr161 2.880 . S
C171 C172 1.491 . S
C171 O186 1.254 . S
C171 O187 1.225 . S
C172 C171 1.491 . S
C172 C173 1.392 . S
C172 C177 1.356 . S
C173 C172 1.392 . S
C173 C174 1.368 . S
C173 H196 0.929 . S
C174 C173 1.368 . S
C174 C175 1.386 . S
C174 H197 0.929 . S
C175 C174 1.386 . S
C175 C176 1.373 . S
C176 C175 1.373 . S
C176 C177 1.409 . S
C176 H198 0.931 . S
C177 C172 1.356 . S
C177 C176 1.409 . S
C177 H199 0.930 . S
C178 O188 1.270 . S
C178 O189 1.248 . S
C179 O190 1.267 . S
C179 O191 1.278 . S
O180 Pr160 2.562 . S
O180 C162 1.254 . S
O181 Pr160 2.490 . S
O181 C162 1.225 . S
O182 Pr160 2.695 1_556 S
O182 Pr161 2.436 . S
O182 C169 1.270 . S
O183 Pr160 2.512 1_556 S
O183 C169 1.248 . S
O184 Pr161 2.438 . S
O184 C170 1.267 . S
O185 Pr160 2.437 . S
O185 C170 1.278 1_554 S
O186 Pr161 2.562 . S
O186 C171 1.254 . S
O187 Pr161 2.490 . S
O187 C171 1.225 . S
O188 Pr160 2.436 1_556 S
O188 Pr161 2.695 . S
O188 C178 1.270 . S
O189 Pr161 2.512 . S
O189 C178 1.248 . S
O190 Pr160 2.438 1_556 S
O190 C179 1.267 . S
O191 Pr161 2.437 . S
O191 C179 1.278 . S
H192 C164 0.929 . S
H193 C165 0.929 . S
H194 C167 0.931 . S
H195 C168 0.930 . S
H196 C173 0.929 . S
H197 C174 0.929 . S
H198 C176 0.931 . S
H199 C177 0.930 . S
Pr200 C202 2.880 . S
Pr200 O220 2.562 . S
Pr200 O221 2.490 . S
Pr200 O222 2.695 1_556 S
Pr200 O223 2.512 1_556 S
Pr200 O225 2.437 . S
Pr200 O228 2.436 1_556 S
Pr200 O230 2.438 1_556 S
Pr201 C211 2.880 . S
Pr201 O222 2.436 . S
Pr201 O224 2.438 . S
Pr201 O226 2.562 . S
Pr201 O227 2.490 . S
Pr201 O228 2.695 . S
Pr201 O229 2.512 . S
Pr201 O231 2.437 . S
C202 Pr200 2.880 . S
C202 C203 1.491 . S
C202 O220 1.254 . S
C202 O221 1.225 . S
C203 C202 1.491 . S
C203 C204 1.392 . S
C203 C208 1.356 . S
C204 C203 1.392 . S
C204 C205 1.368 . S
C204 H232 0.929 . S
C205 C204 1.368 . S
C205 C206 1.386 . S
C205 H233 0.929 . S
C206 C205 1.386 . S
C206 C207 1.373 . S
C207 C206 1.373 . S
C207 C208 1.409 . S
C207 H234 0.931 . S
C208 C203 1.356 . S
C208 C207 1.409 . S
C208 H235 0.930 . S
C209 O222 1.270 . S
C209 O223 1.248 . S
C210 O224 1.267 . S
C210 O225 1.278 1_554 S
C211 Pr201 2.880 . S
C211 C212 1.491 . S
C211 O226 1.254 . S
C211 O227 1.225 . S
C212 C211 1.491 . S
C212 C213 1.392 . S
C212 C217 1.356 . S
C213 C212 1.392 . S
C213 C214 1.368 . S
C213 H236 0.929 . S
C214 C213 1.368 . S
C214 C215 1.386 . S
C214 H237 0.929 . S
C215 C214 1.386 . S
C215 C216 1.373 . S
C216 C215 1.373 . S
C216 C217 1.409 . S
C216 H238 0.931 . S
C217 C212 1.356 . S
C217 C216 1.409 . S
C217 H239 0.930 . S
C218 O228 1.270 . S
C218 O229 1.248 . S
C219 O230 1.267 . S
C219 O231 1.278 . S
O220 Pr200 2.562 . S
O220 C202 1.254 . S
O221 Pr200 2.490 . S
O221 C202 1.225 . S
O222 Pr200 2.695 1_554 S
O222 Pr201 2.436 . S
O222 C209 1.270 . S
O223 Pr200 2.512 1_554 S
O223 C209 1.248 . S
O224 Pr201 2.438 . S
O224 C210 1.267 . S
O225 Pr200 2.437 . S
O225 C210 1.278 1_556 S
O226 Pr201 2.562 . S
O226 C211 1.254 . S
O227 Pr201 2.490 . S
O227 C211 1.225 . S
O228 Pr200 2.436 1_554 S
O228 Pr201 2.695 . S
O228 C218 1.270 . S
O229 Pr201 2.512 . S
O229 C218 1.248 . S
O230 Pr200 2.438 1_554 S
O230 C219 1.267 . S
O231 Pr201 2.437 . S
O231 C219 1.278 . S
H232 C204 0.929 . S
H233 C205 0.929 . S
H234 C207 0.931 . S
H235 C208 0.930 . S
H236 C213 0.929 . S
H237 C214 0.929 . S
H238 C216 0.931 . S
H239 C217 0.930 . S
Pr240 C242 2.880 . S
Pr240 O260 2.562 . S
Pr240 O261 2.490 . S
Pr240 O262 2.695 . S
Pr240 O263 2.512 . S
Pr240 O265 2.437 . S
Pr240 O268 2.436 . S
Pr240 O270 2.438 . S
Pr241 C251 2.880 . S
Pr241 O262 2.436 . S
Pr241 O264 2.438 . S
Pr241 O266 2.562 . S
Pr241 O267 2.490 . S
Pr241 O268 2.695 . S
Pr241 O269 2.512 . S
Pr241 O271 2.437 . S
C242 Pr240 2.880 . S
C242 C243 1.491 . S
C242 O260 1.254 . S
C242 O261 1.225 . S
C243 C242 1.491 . S
C243 C244 1.392 . S
C243 C248 1.356 . S
C244 C243 1.392 . S
C244 C245 1.368 . S
C244 H272 0.929 . S
C245 C244 1.368 . S
C245 C246 1.386 . S
C245 H273 0.929 . S
C246 C245 1.386 . S
C246 C247 1.373 . S
C247 C246 1.373 . S
C247 C248 1.409 . S
C247 H274 0.931 . S
C248 C243 1.356 . S
C248 C247 1.409 . S
C248 H275 0.930 . S
C249 O262 1.270 . S
C249 O263 1.248 . S
C250 O264 1.267 . S
C250 O265 1.278 . S
C251 Pr241 2.880 . S
C251 C252 1.491 . S
C251 O266 1.254 . S
C251 O267 1.225 . S
C252 C251 1.491 . S
C252 C253 1.392 . S
C252 C257 1.356 . S
C253 C252 1.392 . S
C253 C254 1.368 . S
C253 H276 0.929 . S
C254 C253 1.368 . S
C254 C255 1.386 . S
C254 H277 0.929 . S
C255 C254 1.386 . S
C255 C256 1.373 . S
C256 C255 1.373 . S
C256 C257 1.409 . S
C256 H278 0.931 . S
C257 C252 1.356 . S
C257 C256 1.409 . S
C257 H279 0.930 . S
C258 O268 1.270 . S
C258 O269 1.248 . S
C259 O270 1.267 . S
C259 O271 1.278 . S
O260 Pr240 2.562 . S
O260 C242 1.254 . S
O261 Pr240 2.490 . S
O261 C242 1.225 . S
O262 Pr240 2.695 . S
O262 Pr241 2.436 . S
O262 C249 1.270 . S
O263 Pr240 2.512 . S
O263 C249 1.248 . S
O264 Pr241 2.438 . S
O264 C250 1.267 . S
O265 Pr240 2.437 . S
O265 C250 1.278 . S
O266 Pr241 2.562 . S
O266 C251 1.254 . S
O267 Pr241 2.490 . S
O267 C251 1.225 . S
O268 Pr240 2.436 . S
O268 Pr241 2.695 . S
O268 C258 1.270 . S
O269 Pr241 2.512 . S
O269 C258 1.248 . S
O270 Pr240 2.438 . S
O270 C259 1.267 . S
O271 Pr241 2.437 . S
O271 C259 1.278 . S
H272 C244 0.929 . S
H273 C245 0.929 . S
H274 C247 0.931 . S
H275 C248 0.930 . S
H276 C253 0.929 . S
H277 C254 0.929 . S
H278 C256 0.931 . S
H279 C257 0.930 . S
Pr280 C282 2.880 . S
Pr280 O300 2.562 . S
Pr280 O301 2.490 . S
Pr280 O302 2.695 . S
Pr280 O303 2.512 . S
Pr280 O305 2.437 . S
Pr280 O308 2.436 . S
Pr280 O310 2.438 . S
Pr281 C291 2.880 . S
Pr281 O302 2.436 . S
Pr281 O304 2.438 . S
Pr281 O306 2.562 . S
Pr281 O307 2.490 . S
Pr281 O308 2.695 . S
Pr281 O309 2.512 . S
Pr281 O311 2.437 . S
C282 Pr280 2.880 . S
C282 C283 1.491 . S
C282 O300 1.254 . S
C282 O301 1.225 . S
C283 C282 1.491 . S
C283 C284 1.392 . S
C283 C288 1.356 . S
C284 C283 1.392 . S
C284 C285 1.368 . S
C284 H312 0.929 . S
C285 C284 1.368 . S
C285 C286 1.386 . S
C285 H313 0.929 . S
C286 C285 1.386 . S
C286 C287 1.373 . S
C287 C286 1.373 . S
C287 C288 1.409 . S
C287 H314 0.931 . S
C288 C283 1.356 . S
C288 C287 1.409 . S
C288 H315 0.930 . S
C289 O302 1.270 . S
C289 O303 1.248 . S
C290 O304 1.267 . S
C290 O305 1.278 . S
C291 Pr281 2.880 . S
C291 C292 1.491 . S
C291 O306 1.254 . S
C291 O307 1.225 . S
C292 C291 1.491 . S
C292 C293 1.392 . S
C292 C297 1.356 . S
C293 C292 1.392 . S
C293 C294 1.368 . S
C293 H316 0.929 . S
C294 C293 1.368 . S
C294 C295 1.386 . S
C294 H317 0.929 . S
C295 C294 1.386 . S
C295 C296 1.373 . S
C296 C295 1.373 . S
C296 C297 1.409 . S
C296 H318 0.931 . S
C297 C292 1.356 . S
C297 C296 1.409 . S
C297 H319 0.930 . S
C298 O308 1.270 . S
C298 O309 1.248 . S
C299 O310 1.267 . S
C299 O311 1.278 . S
O300 Pr280 2.562 . S
O300 C282 1.254 . S
O301 Pr280 2.490 . S
O301 C282 1.225 . S
O302 Pr280 2.695 . S
O302 Pr281 2.436 . S
O302 C289 1.270 . S
O303 Pr280 2.512 . S
O303 C289 1.248 . S
O304 Pr281 2.438 . S
O304 C290 1.267 . S
O305 Pr280 2.437 . S
O305 C290 1.278 . S
O306 Pr281 2.562 . S
O306 C291 1.254 . S
O307 Pr281 2.490 . S
O307 C291 1.225 . S
O308 Pr280 2.436 . S
O308 Pr281 2.695 . S
O308 C298 1.270 . S
O309 Pr281 2.512 . S
O309 C298 1.248 . S
O310 Pr280 2.438 . S
O310 C299 1.267 . S
O311 Pr281 2.437 . S
O311 C299 1.278 . S
H312 C284 0.929 . S
H313 C285 0.929 . S
H314 C287 0.931 . S
H315 C288 0.930 . S
H316 C293 0.929 . S
H317 C294 0.929 . S
H318 C296 0.931 . S
H319 C297 0.930 . S
Pr320 C322 2.880 . S
Pr320 O340 2.562 . S
Pr320 O341 2.490 . S
Pr320 O342 2.695 . S
Pr320 O343 2.512 . S
Pr320 O345 2.437 . S
Pr320 O348 2.436 . S
Pr320 O350 2.438 . S
Pr321 C331 2.880 . S
Pr321 O342 2.436 1_554 S
Pr321 O344 2.438 1_554 S
Pr321 O346 2.562 . S
Pr321 O347 2.490 . S
Pr321 O348 2.695 1_554 S
Pr321 O349 2.512 1_554 S
Pr321 O351 2.437 . S
C322 Pr320 2.880 . S
C322 C323 1.491 . S
C322 O340 1.254 . S
C322 O341 1.225 . S
C323 C322 1.491 . S
C323 C324 1.392 . S
C323 C328 1.356 . S
C324 C323 1.392 . S
C324 C325 1.368 . S
C324 H352 0.929 . S
C325 C324 1.368 . S
C325 C326 1.386 . S
C325 H353 0.929 . S
C326 C325 1.386 . S
C326 C327 1.373 . S
C327 C326 1.373 . S
C327 C328 1.409 . S
C327 H354 0.931 . S
C328 C323 1.356 . S
C328 C327 1.409 . S
C328 H355 0.930 . S
C329 O342 1.270 . S
C329 O343 1.248 . S
C330 O344 1.267 . S
C330 O345 1.278 . S
C331 Pr321 2.880 . S
C331 C332 1.491 . S
C331 O346 1.254 . S
C331 O347 1.225 . S
C332 C331 1.491 . S
C332 C333 1.392 . S
C332 C337 1.356 . S
C333 C332 1.392 . S
C333 C334 1.368 . S
C333 H356 0.929 . S
C334 C333 1.368 . S
C334 C335 1.386 . S
C334 H357 0.929 . S
C335 C334 1.386 . S
C335 C336 1.373 . S
C336 C335 1.373 . S
C336 C337 1.409 . S
C336 H358 0.931 . S
C337 C332 1.356 . S
C337 C336 1.409 . S
C337 H359 0.930 . S
C338 O348 1.270 . S
C338 O349 1.248 . S
C339 O350 1.267 . S
C339 O351 1.278 1_556 S
O340 Pr320 2.562 . S
O340 C322 1.254 . S
O341 Pr320 2.490 . S
O341 C322 1.225 . S
O342 Pr320 2.695 . S
O342 Pr321 2.436 1_556 S
O342 C329 1.270 . S
O343 Pr320 2.512 . S
O343 C329 1.248 . S
O344 Pr321 2.438 1_556 S
O344 C330 1.267 . S
O345 Pr320 2.437 . S
O345 C330 1.278 . S
O346 Pr321 2.562 . S
O346 C331 1.254 . S
O347 Pr321 2.490 . S
O347 C331 1.225 . S
O348 Pr320 2.436 . S
O348 Pr321 2.695 1_556 S
O348 C338 1.270 . S
O349 Pr321 2.512 1_556 S
O349 C338 1.248 . S
O350 Pr320 2.438 . S
O350 C339 1.267 . S
O351 Pr321 2.437 . S
O351 C339 1.278 1_554 S
H352 C324 0.929 . S
H353 C325 0.929 . S
H354 C327 0.931 . S
H355 C328 0.930 . S
H356 C333 0.929 . S
H357 C334 0.929 . S
H358 C336 0.931 . S
H359 C337 0.930 . S
Pr360 C362 2.880 . S
Pr360 O380 2.562 . S
Pr360 O381 2.490 . S
Pr360 O382 2.695 . S
Pr360 O383 2.512 . S
Pr360 O385 2.437 . S
Pr360 O388 2.436 . S
Pr360 O390 2.438 . S
Pr361 C371 2.880 . S
Pr361 O382 2.436 . S
Pr361 O384 2.438 . S
Pr361 O386 2.562 . S
Pr361 O387 2.490 . S
Pr361 O388 2.695 . S
Pr361 O389 2.512 . S
Pr361 O391 2.437 . S
C362 Pr360 2.880 . S
C362 C363 1.491 . S
C362 O380 1.254 . S
C362 O381 1.225 . S
C363 C362 1.491 . S
C363 C364 1.392 . S
C363 C368 1.356 . S
C364 C363 1.392 . S
C364 C365 1.368 . S
C364 H392 0.929 . S
C365 C364 1.368 . S
C365 C366 1.386 . S
C365 H393 0.929 . S
C366 C365 1.386 . S
C366 C367 1.373 . S
C367 C366 1.373 . S
C367 C368 1.409 . S
C367 H394 0.931 . S
C368 C363 1.356 . S
C368 C367 1.409 . S
C368 H395 0.930 . S
C369 O382 1.270 . S
C369 O383 1.248 . S
C370 O384 1.267 . S
C370 O385 1.278 . S
C371 Pr361 2.880 . S
C371 C372 1.491 . S
C371 O386 1.254 . S
C371 O387 1.225 . S
C372 C371 1.491 . S
C372 C373 1.392 . S
C372 C377 1.356 . S
C373 C372 1.392 . S
C373 C374 1.368 . S
C373 H396 0.929 . S
C374 C373 1.368 . S
C374 C375 1.386 . S
C374 H397 0.929 . S
C375 C374 1.386 . S
C375 C376 1.373 . S
C376 C375 1.373 . S
C376 C377 1.409 . S
C376 H398 0.931 . S
C377 C372 1.356 . S
C377 C376 1.409 . S
C377 H399 0.930 . S
C378 O388 1.270 . S
C378 O389 1.248 . S
C379 O390 1.267 . S
C379 O391 1.278 . S
O380 Pr360 2.562 . S
O380 C362 1.254 . S
O381 Pr360 2.490 . S
O381 C362 1.225 . S
O382 Pr360 2.695 . S
O382 Pr361 2.436 . S
O382 C369 1.270 . S
O383 Pr360 2.512 . S
O383 C369 1.248 . S
O384 Pr361 2.438 . S
O384 C370 1.267 . S
O385 Pr360 2.437 . S
O385 C370 1.278 . S
O386 Pr361 2.562 . S
O386 C371 1.254 . S
O387 Pr361 2.490 . S
O387 C371 1.225 . S
O388 Pr360 2.436 . S
O388 Pr361 2.695 . S
O388 C378 1.270 . S
O389 Pr361 2.512 . S
O389 C378 1.248 . S
O390 Pr360 2.438 . S
O390 C379 1.267 . S
O391 Pr361 2.437 . S
O391 C379 1.278 . S
H392 C364 0.929 . S
H393 C365 0.929 . S
H394 C367 0.931 . S
H395 C368 0.930 . S
H396 C373 0.929 . S
H397 C374 0.929 . S
H398 C376 0.931 . S
H399 C377 0.930 . S
Pr400 C402 2.880 . S
Pr400 O420 2.562 . S
Pr400 O421 2.490 . S
Pr400 O422 2.695 . S
Pr400 O423 2.512 . S
Pr400 O425 2.437 . S
Pr400 O428 2.436 . S
Pr400 O430 2.438 . S
Pr401 C411 2.880 . S
Pr401 O422 2.436 . S
Pr401 O424 2.438 . S
Pr401 O426 2.562 . S
Pr401 O427 2.490 . S
Pr401 O428 2.695 . S
Pr401 O429 2.512 . S
Pr401 O431 2.437 . S
C402 Pr400 2.880 . S
C402 C403 1.491 . S
C402 O420 1.254 . S
C402 O421 1.225 . S
C403 C402 1.491 . S
C403 C404 1.392 . S
C403 C408 1.356 . S
C404 C403 1.392 . S
C404 C405 1.368 . S
C404 H432 0.929 . S
C405 C404 1.368 . S
C405 C406 1.386 . S
C405 H433 0.929 . S
C406 C405 1.386 . S
C406 C407 1.373 . S
C407 C406 1.373 . S
C407 C408 1.409 . S
C407 H434 0.931 . S
C408 C403 1.356 . S
C408 C407 1.409 . S
C408 H435 0.930 . S
C409 O422 1.270 . S
C409 O423 1.248 . S
C410 O424 1.267 . S
C410 O425 1.278 . S
C411 Pr401 2.880 . S
C411 C412 1.491 . S
C411 O426 1.254 . S
C411 O427 1.225 . S
C412 C411 1.491 . S
C412 C413 1.392 . S
C412 C417 1.356 . S
C413 C412 1.392 . S
C413 C414 1.368 . S
C413 H436 0.929 . S
C414 C413 1.368 . S
C414 C415 1.386 . S
C414 H437 0.929 . S
C415 C414 1.386 . S
C415 C416 1.373 . S
C416 C415 1.373 . S
C416 C417 1.409 . S
C416 H438 0.931 . S
C417 C412 1.356 . S
C417 C416 1.409 . S
C417 H439 0.930 . S
C418 O428 1.270 . S
C418 O429 1.248 . S
C419 O430 1.267 . S
C419 O431 1.278 . S
O420 Pr400 2.562 . S
O420 C402 1.254 . S
O421 Pr400 2.490 . S
O421 C402 1.225 . S
O422 Pr400 2.695 . S
O422 Pr401 2.436 . S
O422 C409 1.270 . S
O423 Pr400 2.512 . S
O423 C409 1.248 . S
O424 Pr401 2.438 . S
O424 C410 1.267 . S
O425 Pr400 2.437 . S
O425 C410 1.278 . S
O426 Pr401 2.562 . S
O426 C411 1.254 . S
O427 Pr401 2.490 . S
O427 C411 1.225 . S
O428 Pr400 2.436 . S
O428 Pr401 2.695 . S
O428 C418 1.270 . S
O429 Pr401 2.512 . S
O429 C418 1.248 . S
O430 Pr400 2.438 . S
O430 C419 1.267 . S
O431 Pr401 2.437 . S
O431 C419 1.278 . S
H432 C404 0.929 . S
H433 C405 0.929 . S
H434 C407 0.931 . S
H435 C408 0.930 . S
H436 C413 0.929 . S
H437 C414 0.929 . S
H438 C416 0.931 . S
H439 C417 0.930 . S
Pr440 C442 2.880 . S
Pr440 O460 2.562 . S
Pr440 O461 2.490 . S
Pr440 O462 2.695 . S
Pr440 O463 2.512 . S
Pr440 O465 2.437 . S
Pr440 O468 2.436 . S
Pr440 O470 2.438 . S
Pr441 C451 2.880 . S
Pr441 O462 2.436 1_556 S
Pr441 O464 2.438 1_556 S
Pr441 O466 2.562 . S
Pr441 O467 2.490 . S
Pr441 O468 2.695 1_556 S
Pr441 O469 2.512 1_556 S
Pr441 O471 2.437 . S
C442 Pr440 2.880 . S
C442 C443 1.491 . S
C442 O460 1.254 . S
C442 O461 1.225 . S
C443 C442 1.491 . S
C443 C444 1.392 . S
C443 C448 1.356 . S
C444 C443 1.392 . S
C444 C445 1.368 . S
C444 H472 0.929 . S
C445 C444 1.368 . S
C445 C446 1.386 . S
C445 H473 0.929 . S
C446 C445 1.386 . S
C446 C447 1.373 . S
C447 C446 1.373 . S
C447 C448 1.409 . S
C447 H474 0.931 . S
C448 C443 1.356 . S
C448 C447 1.409 . S
C448 H475 0.930 . S
C449 O462 1.270 . S
C449 O463 1.248 . S
C450 O464 1.267 . S
C450 O465 1.278 . S
C451 Pr441 2.880 . S
C451 C452 1.491 . S
C451 O466 1.254 . S
C451 O467 1.225 . S
C452 C451 1.491 . S
C452 C453 1.392 . S
C452 C457 1.356 . S
C453 C452 1.392 . S
C453 C454 1.368 . S
C453 H476 0.929 . S
C454 C453 1.368 . S
C454 C455 1.386 . S
C454 H477 0.929 . S
C455 C454 1.386 . S
C455 C456 1.373 . S
C456 C455 1.373 . S
C456 C457 1.409 . S
C456 H478 0.931 . S
C457 C452 1.356 . S
C457 C456 1.409 . S
C457 H479 0.930 . S
C458 O468 1.270 . S
C458 O469 1.248 . S
C459 O470 1.267 . S
C459 O471 1.278 1_554 S
O460 Pr440 2.562 . S
O460 C442 1.254 . S
O461 Pr440 2.490 . S
O461 C442 1.225 . S
O462 Pr440 2.695 . S
O462 Pr441 2.436 1_554 S
O462 C449 1.270 . S
O463 Pr440 2.512 . S
O463 C449 1.248 . S
O464 Pr441 2.438 1_554 S
O464 C450 1.267 . S
O465 Pr440 2.437 . S
O465 C450 1.278 . S
O466 Pr441 2.562 . S
O466 C451 1.254 . S
O467 Pr441 2.490 . S
O467 C451 1.225 . S
O468 Pr440 2.436 . S
O468 Pr441 2.695 1_554 S
O468 C458 1.270 . S
O469 Pr441 2.512 1_554 S
O469 C458 1.248 . S
O470 Pr440 2.438 . S
O470 C459 1.267 . S
O471 Pr441 2.437 . S
O471 C459 1.278 1_556 S
H472 C444 0.929 . S
H473 C445 0.929 . S
H474 C447 0.931 . S
H475 C448 0.930 . S
H476 C453 0.929 . S
H477 C454 0.929 . S
H478 C456 0.931 . S
H479 C457 0.930 . S
Pr480 C482 2.880 . S
Pr480 O500 2.562 . S
Pr480 O501 2.490 . S
Pr480 O502 2.695 . S
Pr480 O503 2.512 . S
Pr480 O505 2.437 . S
Pr480 O508 2.436 . S
Pr480 O510 2.438 . S
Pr481 C491 2.880 . S
Pr481 O502 2.436 1_556 S
Pr481 O504 2.438 1_556 S
Pr481 O506 2.562 . S
Pr481 O507 2.490 . S
Pr481 O508 2.695 1_556 S
Pr481 O509 2.512 1_556 S
Pr481 O511 2.437 . S
C482 Pr480 2.880 . S
C482 C483 1.491 . S
C482 O500 1.254 . S
C482 O501 1.225 . S
C483 C482 1.491 . S
C483 C484 1.392 . S
C483 C488 1.356 . S
C484 C483 1.392 . S
C484 C485 1.368 . S
C484 H512 0.929 . S
C485 C484 1.368 . S
C485 C486 1.386 . S
C485 H513 0.929 . S
C486 C485 1.386 . S
C486 C487 1.373 . S
C487 C486 1.373 . S
C487 C488 1.409 . S
C487 H514 0.931 . S
C488 C483 1.356 . S
C488 C487 1.409 . S
C488 H515 0.930 . S
C489 O502 1.270 . S
C489 O503 1.248 . S
C490 O504 1.267 . S
C490 O505 1.278 . S
C491 Pr481 2.880 . S
C491 C492 1.491 . S
C491 O506 1.254 . S
C491 O507 1.225 . S
C492 C491 1.491 . S
C492 C493 1.392 . S
C492 C497 1.356 . S
C493 C492 1.392 . S
C493 C494 1.368 . S
C493 H516 0.929 . S
C494 C493 1.368 . S
C494 C495 1.386 . S
C494 H517 0.929 . S
C495 C494 1.386 . S
C495 C496 1.373 . S
C496 C495 1.373 . S
C496 C497 1.409 . S
C496 H518 0.931 . S
C497 C492 1.356 . S
C497 C496 1.409 . S
C497 H519 0.930 . S
C498 O508 1.270 . S
C498 O509 1.248 . S
C499 O510 1.267 . S
C499 O511 1.278 1_554 S
O500 Pr480 2.562 . S
O500 C482 1.254 . S
O501 Pr480 2.490 . S
O501 C482 1.225 . S
O502 Pr480 2.695 . S
O502 Pr481 2.436 1_554 S
O502 C489 1.270 . S
O503 Pr480 2.512 . S
O503 C489 1.248 . S
O504 Pr481 2.438 1_554 S
O504 C490 1.267 . S
O505 Pr480 2.437 . S
O505 C490 1.278 . S
O506 Pr481 2.562 . S
O506 C491 1.254 . S
O507 Pr481 2.490 . S
O507 C491 1.225 . S
O508 Pr480 2.436 . S
O508 Pr481 2.695 1_554 S
O508 C498 1.270 . S
O509 Pr481 2.512 1_554 S
O509 C498 1.248 . S
O510 Pr480 2.438 . S
O510 C499 1.267 . S
O511 Pr481 2.437 . S
O511 C499 1.278 1_556 S
H512 C484 0.929 . S
H513 C485 0.929 . S
H514 C487 0.931 . S
H515 C488 0.930 . S
H516 C493 0.929 . S
H517 C494 0.929 . S
H518 C496 0.931 . S
H519 C497 0.930 . S
Pr520 C522 2.880 . S
Pr520 O540 2.562 . S
Pr520 O541 2.490 . S
Pr520 O542 2.695 . S
Pr520 O543 2.512 . S
Pr520 O545 2.437 . S
Pr520 O548 2.436 . S
Pr520 O550 2.438 . S
Pr521 C531 2.880 . S
Pr521 O542 2.436 1_554 S
Pr521 O544 2.438 1_554 S
Pr521 O546 2.562 . S
Pr521 O547 2.490 . S
Pr521 O548 2.695 1_554 S
Pr521 O549 2.512 1_554 S
Pr521 O551 2.437 . S
C522 Pr520 2.880 . S
C522 C523 1.491 . S
C522 O540 1.254 . S
C522 O541 1.225 . S
C523 C522 1.491 . S
C523 C524 1.392 . S
C523 C528 1.356 . S
C524 C523 1.392 . S
C524 C525 1.368 . S
C524 H552 0.929 . S
C525 C524 1.368 . S
C525 C526 1.386 . S
C525 H553 0.929 . S
C526 C525 1.386 . S
C526 C527 1.373 . S
C527 C526 1.373 . S
C527 C528 1.409 . S
C527 H554 0.931 . S
C528 C523 1.356 . S
C528 C527 1.409 . S
C528 H555 0.930 . S
C529 O542 1.270 . S
C529 O543 1.248 . S
C530 O544 1.267 . S
C530 O545 1.278 . S
C531 Pr521 2.880 . S
C531 C532 1.491 . S
C531 O546 1.254 . S
C531 O547 1.225 . S
C532 C531 1.491 . S
C532 C533 1.392 . S
C532 C537 1.356 . S
C533 C532 1.392 . S
C533 C534 1.368 . S
C533 H556 0.929 . S
C534 C533 1.368 . S
C534 C535 1.386 . S
C534 H557 0.929 . S
C535 C534 1.386 . S
C535 C536 1.373 . S
C536 C535 1.373 . S
C536 C537 1.409 . S
C536 H558 0.931 . S
C537 C532 1.356 . S
C537 C536 1.409 . S
C537 H559 0.930 . S
C538 O548 1.270 . S
C538 O549 1.248 . S
C539 O550 1.267 . S
C539 O551 1.278 1_556 S
O540 Pr520 2.562 . S
O540 C522 1.254 . S
O541 Pr520 2.490 . S
O541 C522 1.225 . S
O542 Pr520 2.695 . S
O542 Pr521 2.436 1_556 S
O542 C529 1.270 . S
O543 Pr520 2.512 . S
O543 C529 1.248 . S
O544 Pr521 2.438 1_556 S
O544 C530 1.267 . S
O545 Pr520 2.437 . S
O545 C530 1.278 . S
O546 Pr521 2.562 . S
O546 C531 1.254 . S
O547 Pr521 2.490 . S
O547 C531 1.225 . S
O548 Pr520 2.436 . S
O548 Pr521 2.695 1_556 S
O548 C538 1.270 . S
O549 Pr521 2.512 1_556 S
O549 C538 1.248 . S
O550 Pr520 2.438 . S
O550 C539 1.267 . S
O551 Pr521 2.437 . S
O551 C539 1.278 1_554 S
H552 C524 0.929 . S
H553 C525 0.929 . S
H554 C527 0.931 . S
H555 C528 0.930 . S
H556 C533 0.929 . S
H557 C534 0.929 . S
H558 C536 0.931 . S
H559 C537 0.930 . S
Pr560 C562 2.880 . S
Pr560 O580 2.562 . S
Pr560 O581 2.490 . S
Pr560 O582 2.695 . S
Pr560 O583 2.512 . S
Pr560 O585 2.437 . S
Pr560 O588 2.436 . S
Pr560 O590 2.438 . S
Pr561 C571 2.880 . S
Pr561 O582 2.436 . S
Pr561 O584 2.438 . S
Pr561 O586 2.562 . S
Pr561 O587 2.490 . S
Pr561 O588 2.695 . S
Pr561 O589 2.512 . S
Pr561 O591 2.437 . S
C562 Pr560 2.880 . S
C562 C563 1.491 . S
C562 O580 1.254 . S
C562 O581 1.225 . S
C563 C562 1.491 . S
C563 C564 1.392 . S
C563 C568 1.356 . S
C564 C563 1.392 . S
C564 C565 1.368 . S
C564 H592 0.929 . S
C565 C564 1.368 . S
C565 C566 1.386 . S
C565 H593 0.929 . S
C566 C565 1.386 . S
C566 C567 1.373 . S
C567 C566 1.373 . S
C567 C568 1.409 . S
C567 H594 0.931 . S
C568 C563 1.356 . S
C568 C567 1.409 . S
C568 H595 0.930 . S
C569 O582 1.270 . S
C569 O583 1.248 . S
C570 O584 1.267 . S
C570 O585 1.278 . S
C571 Pr561 2.880 . S
C571 C572 1.491 . S
C571 O586 1.254 . S
C571 O587 1.225 . S
C572 C571 1.491 . S
C572 C573 1.392 . S
C572 C577 1.356 . S
C573 C572 1.392 . S
C573 C574 1.368 . S
C573 H596 0.929 . S
C574 C573 1.368 . S
C574 C575 1.386 . S
C574 H597 0.929 . S
C575 C574 1.386 . S
C575 C576 1.373 . S
C576 C575 1.373 . S
C576 C577 1.409 . S
C576 H598 0.931 . S
C577 C572 1.356 . S
C577 C576 1.409 . S
C577 H599 0.930 . S
C578 O588 1.270 . S
C578 O589 1.248 . S
C579 O590 1.267 . S
C579 O591 1.278 . S
O580 Pr560 2.562 . S
O580 C562 1.254 . S
O581 Pr560 2.490 . S
O581 C562 1.225 . S
O582 Pr560 2.695 . S
O582 Pr561 2.436 . S
O582 C569 1.270 . S
O583 Pr560 2.512 . S
O583 C569 1.248 . S
O584 Pr561 2.438 . S
O584 C570 1.267 . S
O585 Pr560 2.437 . S
O585 C570 1.278 . S
O586 Pr561 2.562 . S
O586 C571 1.254 . S
O587 Pr561 2.490 . S
O587 C571 1.225 . S
O588 Pr560 2.436 . S
O588 Pr561 2.695 . S
O588 C578 1.270 . S
O589 Pr561 2.512 . S
O589 C578 1.248 . S
O590 Pr560 2.438 . S
O590 C579 1.267 . S
O591 Pr561 2.437 . S
O591 C579 1.278 . S
H592 C564 0.929 . S
H593 C565 0.929 . S
H594 C567 0.931 . S
H595 C568 0.930 . S
H596 C573 0.929 . S
H597 C574 0.929 . S
H598 C576 0.931 . S
H599 C577 0.930 . S
Pr600 C602 2.880 . S
Pr600 O620 2.562 . S
Pr600 O621 2.490 . S
Pr600 O622 2.695 . S
Pr600 O623 2.512 . S
Pr600 O625 2.437 . S
Pr600 O628 2.436 . S
Pr600 O630 2.438 . S
Pr601 C611 2.880 . S
Pr601 O622 2.436 . S
Pr601 O624 2.438 . S
Pr601 O626 2.562 . S
Pr601 O627 2.490 . S
Pr601 O628 2.695 . S
Pr601 O629 2.512 . S
Pr601 O631 2.437 . S
C602 Pr600 2.880 . S
C602 C603 1.491 . S
C602 O620 1.254 . S
C602 O621 1.225 . S
C603 C602 1.491 . S
C603 C604 1.392 . S
C603 C608 1.356 . S
C604 C603 1.392 . S
C604 C605 1.368 . S
C604 H632 0.929 . S
C605 C604 1.368 . S
C605 C606 1.386 . S
C605 H633 0.929 . S
C606 C605 1.386 . S
C606 C607 1.373 . S
C607 C606 1.373 . S
C607 C608 1.409 . S
C607 H634 0.931 . S
C608 C603 1.356 . S
C608 C607 1.409 . S
C608 H635 0.930 . S
C609 O622 1.270 . S
C609 O623 1.248 . S
C610 O624 1.267 . S
C610 O625 1.278 . S
C611 Pr601 2.880 . S
C611 C612 1.491 . S
C611 O626 1.254 . S
C611 O627 1.225 . S
C612 C611 1.491 . S
C612 C613 1.392 . S
C612 C617 1.356 . S
C613 C612 1.392 . S
C613 C614 1.368 . S
C613 H636 0.929 . S
C614 C613 1.368 . S
C614 C615 1.386 . S
C614 H637 0.929 . S
C615 C614 1.386 . S
C615 C616 1.373 . S
C616 C615 1.373 . S
C616 C617 1.409 . S
C616 H638 0.931 . S
C617 C612 1.356 . S
C617 C616 1.409 . S
C617 H639 0.930 . S
C618 O628 1.270 . S
C618 O629 1.248 . S
C619 O630 1.267 . S
C619 O631 1.278 . S
O620 Pr600 2.562 . S
O620 C602 1.254 . S
O621 Pr600 2.490 . S
O621 C602 1.225 . S
O622 Pr600 2.695 . S
O622 Pr601 2.436 . S
O622 C609 1.270 . S
O623 Pr600 2.512 . S
O623 C609 1.248 . S
O624 Pr601 2.438 . S
O624 C610 1.267 . S
O625 Pr600 2.437 . S
O625 C610 1.278 . S
O626 Pr601 2.562 . S
O626 C611 1.254 . S
O627 Pr601 2.490 . S
O627 C611 1.225 . S
O628 Pr600 2.436 . S
O628 Pr601 2.695 . S
O628 C618 1.270 . S
O629 Pr601 2.512 . S
O629 C618 1.248 . S
O630 Pr600 2.438 . S
O630 C619 1.267 . S
O631 Pr601 2.437 . S
O631 C619 1.278 . S
H632 C604 0.929 . S
H633 C605 0.929 . S
H634 C607 0.931 . S
H635 C608 0.930 . S
H636 C613 0.929 . S
H637 C614 0.929 . S
H638 C616 0.931 . S
H639 C617 0.930 . S
H640 C652 0.930 . S
H641 C654 0.930 . S
H642 C655 0.930 . S
H643 C659 0.959 . S
H644 C659 0.959 . S
H645 C659 0.961 . S
H646 C660 0.960 . S
H647 C660 0.961 . S
H648 C660 0.959 . S
H649 C663 0.929 . S
H650 C664 0.931 . S
H651 C666 0.930 . S
C652 H640 0.930 . S
C652 C653 1.399 . S
C652 C657 1.399 . S
C653 C652 1.399 . S
C653 C654 1.376 . S
C654 H641 0.930 . S
C654 C653 1.376 . S
C654 C655 1.388 . S
C655 H642 0.930 . S
C655 C654 1.388 . S
C655 C656 1.390 . S
C656 C655 1.390 . S
C656 C657 1.394 . S
C656 C662 1.465 . S
C657 C652 1.399 . S
C657 C656 1.394 . S
C657 C658 1.516 . S
C658 C657 1.516 . S
C658 C659 1.502 . S
C658 C660 1.561 . S
C658 C661 1.526 . S
C659 H643 0.959 . S
C659 H644 0.959 . S
C659 H645 0.961 . S
C659 C658 1.502 . S
C660 H646 0.960 . S
C660 H647 0.961 . S
C660 H648 0.959 . S
C660 C658 1.561 . S
C661 C658 1.526 . S
C661 C662 1.396 . S
C661 C666 1.390 . S
C662 C656 1.465 . S
C662 C661 1.396 . S
C662 C663 1.399 . S
C663 H649 0.929 . S
C663 C662 1.399 . S
C663 C664 1.385 . S
C664 H650 0.931 . S
C664 C663 1.385 . S
C664 C665 1.389 . S
C665 C664 1.389 . S
C665 C666 1.387 . S
C666 H651 0.930 . S
C666 C661 1.390 . S
C666 C665 1.387 . S
H667 C679 0.930 . S
H668 C681 0.930 . S
H669 C682 0.930 1_556 S
H670 C686 0.959 . S
H671 C686 0.959 . S
H672 C686 0.961 . S
H673 C687 0.960 . S
H674 C687 0.961 . S
H675 C687 0.959 . S
H676 C690 0.929 . S
H677 C691 0.931 . S
H678 C693 0.930 . S
C679 H667 0.930 . S
C679 C680 1.399 . S
C679 C684 1.399 1_554 S
C680 C679 1.399 . S
C680 C681 1.376 . S
C681 H668 0.930 . S
C681 C680 1.376 . S
C681 C682 1.388 . S
C682 H669 0.930 1_554 S
C682 C681 1.388 . S
C682 C683 1.390 1_554 S
C683 C682 1.390 1_556 S
C683 C684 1.394 . S
C683 C689 1.465 . S
C684 C679 1.399 1_556 S
C684 C683 1.394 . S
C684 C685 1.516 . S
C685 C684 1.516 . S
C685 C686 1.502 . S
C685 C687 1.561 . S
C685 C688 1.526 . S
C686 H670 0.959 . S
C686 H671 0.959 . S
C686 H672 0.961 . S
C686 C685 1.502 . S
C687 H673 0.960 . S
C687 H674 0.961 . S
C687 H675 0.959 . S
C687 C685 1.561 . S
C688 C685 1.526 . S
C688 C689 1.396 . S
C688 C693 1.390 . S
C689 C683 1.465 . S
C689 C688 1.396 . S
C689 C690 1.399 . S
C690 H676 0.929 . S
C690 C689 1.399 . S
C690 C691 1.385 . S
C691 H677 0.931 . S
C691 C690 1.385 . S
C691 C692 1.389 . S
C692 C691 1.389 . S
C692 C693 1.387 . S
C693 H678 0.930 . S
C693 C688 1.390 . S
C693 C692 1.387 . S
H694 C706 0.930 . S
H695 C708 0.930 . S
H696 C709 0.930 . S
H697 C713 0.959 . S
H698 C713 0.959 . S
H699 C713 0.961 . S
H700 C714 0.960 . S
H701 C714 0.961 . S
H702 C714 0.959 . S
H703 C717 0.929 1_554 S
H704 C718 0.931 . S
H705 C720 0.930 . S
C706 H694 0.930 . S
C706 C707 1.399 . S
C706 C711 1.399 . S
C707 C706 1.399 . S
C707 C708 1.376 . S
C708 H695 0.930 . S
C708 C707 1.376 . S
C708 C709 1.388 . S
C709 H696 0.930 . S
C709 C708 1.388 . S
C709 C710 1.390 . S
C710 C709 1.390 . S
C710 C711 1.394 . S
C710 C716 1.465 . S
C711 C706 1.399 . S
C711 C710 1.394 . S
C711 C712 1.516 . S
C712 C711 1.516 . S
C712 C713 1.502 . S
C712 C714 1.561 . S
C712 C715 1.526 . S
C713 H697 0.959 . S
C713 H698 0.959 . S
C713 H699 0.961 . S
C713 C712 1.502 . S
C714 H700 0.960 . S
C714 H701 0.961 . S
C714 H702 0.959 . S
C714 C712 1.561 . S
C715 C712 1.526 . S
C715 C716 1.396 . S
C715 C720 1.390 1_554 S
C716 C710 1.465 . S
C716 C715 1.396 . S
C716 C717 1.399 1_554 S
C717 H703 0.929 1_556 S
C717 C716 1.399 1_556 S
C717 C718 1.385 . S
C718 H704 0.931 . S
C718 C717 1.385 . S
C718 C719 1.389 . S
C719 C718 1.389 . S
C719 C720 1.387 . S
C720 H705 0.930 . S
C720 C715 1.390 1_556 S
C720 C719 1.387 . S
H721 C733 0.930 . S
H722 C735 0.930 . S
H723 C736 0.930 . S
H724 C740 0.959 . S
H725 C740 0.959 . S
H726 C740 0.961 . S
H727 C741 0.960 . S
H728 C741 0.961 . S
H729 C741 0.959 . S
H730 C744 0.929 . S
H731 C745 0.931 . S
H732 C747 0.930 . S
C733 H721 0.930 . S
C733 C734 1.399 . S
C733 C738 1.399 . S
C734 C733 1.399 . S
C734 C735 1.376 . S
C735 H722 0.930 . S
C735 C734 1.376 . S
C735 C736 1.388 . S
C736 H723 0.930 . S
C736 C735 1.388 . S
C736 C737 1.390 . S
C737 C736 1.390 . S
C737 C738 1.394 . S
C737 C743 1.465 . S
C738 C733 1.399 . S
C738 C737 1.394 . S
C738 C739 1.516 . S
C739 C738 1.516 . S
C739 C740 1.502 . S
C739 C741 1.561 . S
C739 C742 1.526 . S
C740 H724 0.959 . S
C740 H725 0.959 . S
C740 H726 0.961 . S
C740 C739 1.502 . S
C741 H727 0.960 . S
C741 H728 0.961 . S
C741 H729 0.959 . S
C741 C739 1.561 . S
C742 C739 1.526 . S
C742 C743 1.396 . S
C742 C747 1.390 . S
C743 C737 1.465 . S
C743 C742 1.396 . S
C743 C744 1.399 . S
C744 H730 0.929 . S
C744 C743 1.399 . S
C744 C745 1.385 . S
C745 H731 0.931 . S
C745 C744 1.385 . S
C745 C746 1.389 . S
C746 C745 1.389 . S
C746 C747 1.387 . S
C747 H732 0.930 . S
C747 C742 1.390 . S
C747 C746 1.387 . S
H748 C760 0.930 . S
H749 C762 0.930 . S
H750 C763 0.930 . S
H751 C767 0.959 . S
H752 C767 0.959 . S
H753 C767 0.961 . S
H754 C768 0.960 . S
H755 C768 0.961 . S
H756 C768 0.959 . S
H757 C771 0.929 . S
H758 C772 0.931 . S
H759 C774 0.930 . S
C760 H748 0.930 . S
C760 C761 1.399 . S
C760 C765 1.399 . S
C761 C760 1.399 . S
C761 C762 1.376 . S
C762 H749 0.930 . S
C762 C761 1.376 . S
C762 C763 1.388 . S
C763 H750 0.930 . S
C763 C762 1.388 . S
C763 C764 1.390 . S
C764 C763 1.390 . S
C764 C765 1.394 . S
C764 C770 1.465 . S
C765 C760 1.399 . S
C765 C764 1.394 . S
C765 C766 1.516 . S
C766 C765 1.516 . S
C766 C767 1.502 . S
C766 C768 1.561 . S
C766 C769 1.526 . S
C767 H751 0.959 . S
C767 H752 0.959 . S
C767 H753 0.961 . S
C767 C766 1.502 . S
C768 H754 0.960 . S
C768 H755 0.961 . S
C768 H756 0.959 . S
C768 C766 1.561 . S
C769 C766 1.526 . S
C769 C770 1.396 . S
C769 C774 1.390 . S
C770 C764 1.465 . S
C770 C769 1.396 . S
C770 C771 1.399 . S
C771 H757 0.929 . S
C771 C770 1.399 . S
C771 C772 1.385 . S
C772 H758 0.931 . S
C772 C771 1.385 . S
C772 C773 1.389 . S
C773 C772 1.389 . S
C773 C774 1.387 . S
C774 H759 0.930 . S
C774 C769 1.390 . S
C774 C773 1.387 . S
H775 C787 0.930 . S
H776 C789 0.930 . S
H777 C790 0.930 . S
H778 C794 0.959 . S
H779 C794 0.959 . S
H780 C794 0.961 . S
H781 C795 0.960 . S
H782 C795 0.961 . S
H783 C795 0.959 . S
H784 C798 0.929 . S
H785 C799 0.931 . S
H786 C801 0.930 . S
C787 H775 0.930 . S
C787 C788 1.399 . S
C787 C792 1.399 . S
C788 C787 1.399 . S
C788 C789 1.376 . S
C789 H776 0.930 . S
C789 C788 1.376 . S
C789 C790 1.388 . S
C790 H777 0.930 . S
C790 C789 1.388 . S
C790 C791 1.390 . S
C791 C790 1.390 . S
C791 C792 1.394 . S
C791 C797 1.465 . S
C792 C787 1.399 . S
C792 C791 1.394 . S
C792 C793 1.516 . S
C793 C792 1.516 . S
C793 C794 1.502 . S
C793 C795 1.561 . S
C793 C796 1.526 . S
C794 H778 0.959 . S
C794 H779 0.959 . S
C794 H780 0.961 . S
C794 C793 1.502 . S
C795 H781 0.960 . S
C795 H782 0.961 . S
C795 H783 0.959 . S
C795 C793 1.561 . S
C796 C793 1.526 . S
C796 C797 1.396 . S
C796 C801 1.390 . S
C797 C791 1.465 . S
C797 C796 1.396 . S
C797 C798 1.399 . S
C798 H784 0.929 . S
C798 C797 1.399 . S
C798 C799 1.385 . S
C799 H785 0.931 . S
C799 C798 1.385 . S
C799 C800 1.389 . S
C800 C799 1.389 . S
C800 C801 1.387 . S
C801 H786 0.930 . S
C801 C796 1.390 . S
C801 C800 1.387 . S
H802 C814 0.930 . S
H803 C816 0.930 . S
H804 C817 0.930 . S
H805 C821 0.959 . S
H806 C821 0.959 . S
H807 C821 0.961 . S
H808 C822 0.960 . S
H809 C822 0.961 . S
H810 C822 0.959 . S
H811 C825 0.929 . S
H812 C826 0.931 . S
H813 C828 0.930 . S
C814 H802 0.930 . S
C814 C815 1.399 . S
C814 C819 1.399 . S
C815 C814 1.399 . S
C815 C816 1.376 . S
C816 H803 0.930 . S
C816 C815 1.376 . S
C816 C817 1.388 . S
C817 H804 0.930 . S
C817 C816 1.388 . S
C817 C818 1.390 . S
C818 C817 1.390 . S
C818 C819 1.394 . S
C818 C824 1.465 . S
C819 C814 1.399 . S
C819 C818 1.394 . S
C819 C820 1.516 . S
C820 C819 1.516 . S
C820 C821 1.502 . S
C820 C822 1.561 . S
C820 C823 1.526 . S
C821 H805 0.959 . S
C821 H806 0.959 . S
C821 H807 0.961 . S
C821 C820 1.502 . S
C822 H808 0.960 . S
C822 H809 0.961 . S
C822 H810 0.959 . S
C822 C820 1.561 . S
C823 C820 1.526 . S
C823 C824 1.396 . S
C823 C828 1.390 1_556 S
C824 C818 1.465 . S
C824 C823 1.396 . S
C824 C825 1.399 1_556 S
C825 H811 0.929 . S
C825 C824 1.399 1_554 S
C825 C826 1.385 . S
C826 H812 0.931 . S
C826 C825 1.385 . S
C826 C827 1.389 . S
C827 C826 1.389 . S
C827 C828 1.387 . S
C828 H813 0.930 . S
C828 C823 1.390 1_554 S
C828 C827 1.387 . S
H829 C841 0.930 . S
H830 C843 0.930 . S
H831 C844 0.930 . S
H832 C848 0.959 . S
H833 C848 0.959 . S
H834 C848 0.961 . S
H835 C849 0.960 . S
H836 C849 0.961 . S
H837 C849 0.959 . S
H838 C852 0.929 . S
H839 C853 0.931 . S
H840 C855 0.930 . S
C841 H829 0.930 . S
C841 C842 1.399 . S
C841 C846 1.399 1_556 S
C842 C841 1.399 . S
C842 C843 1.376 . S
C843 H830 0.930 . S
C843 C842 1.376 . S
C843 C844 1.388 1_556 S
C844 H831 0.930 . S
C844 C843 1.388 1_554 S
C844 C845 1.390 . S
C845 C844 1.390 . S
C845 C846 1.394 . S
C845 C851 1.465 . S
C846 C841 1.399 1_554 S
C846 C845 1.394 . S
C846 C847 1.516 . S
C847 C846 1.516 . S
C847 C848 1.502 . S
C847 C849 1.561 . S
C847 C850 1.526 . S
C848 H832 0.959 . S
C848 H833 0.959 . S
C848 H834 0.961 . S
C848 C847 1.502 . S
C849 H835 0.960 . S
C849 H836 0.961 . S
C849 H837 0.959 . S
C849 C847 1.561 . S
C850 C847 1.526 . S
C850 C851 1.396 . S
C850 C855 1.390 . S
C851 C845 1.465 . S
C851 C850 1.396 . S
C851 C852 1.399 . S
C852 H838 0.929 . S
C852 C851 1.399 . S
C852 C853 1.385 . S
C853 H839 0.931 . S
C853 C852 1.385 . S
C853 C854 1.389 . S
C854 C853 1.389 . S
C854 C855 1.387 . S
C855 H840 0.930 . S
C855 C850 1.390 . S
C855 C854 1.387 . S
H856 C868 0.930 . S
H857 C870 0.930 . S
H858 C871 0.930 . S
H859 C875 0.959 . S
H860 C875 0.959 . S
H861 C875 0.961 . S
H862 C876 0.960 . S
H863 C876 0.961 . S
H864 C876 0.959 . S
H865 C879 0.929 . S
H866 C880 0.931 . S
H867 C882 0.930 . S
C868 H856 0.930 . S
C868 C869 1.399 . S
C868 C873 1.399 . S
C869 C868 1.399 . S
C869 C870 1.376 . S
C870 H857 0.930 . S
C870 C869 1.376 . S
C870 C871 1.388 . S
C871 H858 0.930 . S
C871 C870 1.388 . S
C871 C872 1.390 . S
C872 C871 1.390 . S
C872 C873 1.394 . S
C872 C878 1.465 . S
C873 C868 1.399 . S
C873 C872 1.394 . S
C873 C874 1.516 . S
C874 C873 1.516 . S
C874 C875 1.502 . S
C874 C876 1.561 . S
C874 C877 1.526 . S
C875 H859 0.959 . S
C875 H860 0.959 . S
C875 H861 0.961 . S
C875 C874 1.502 . S
C876 H862 0.960 . S
C876 H863 0.961 . S
C876 H864 0.959 . S
C876 C874 1.561 . S
C877 C874 1.526 . S
C877 C878 1.396 . S
C877 C882 1.390 . S
C878 C872 1.465 . S
C878 C877 1.396 . S
C878 C879 1.399 . S
C879 H865 0.929 . S
C879 C878 1.399 . S
C879 C880 1.385 . S
C880 H866 0.931 . S
C880 C879 1.385 . S
C880 C881 1.389 . S
C881 C880 1.389 . S
C881 C882 1.387 . S
C882 H867 0.930 . S
C882 C877 1.390 . S
C882 C881 1.387 . S
H883 C895 0.930 . S
H884 C897 0.930 . S
H885 C898 0.930 . S
H886 C902 0.959 . S
H887 C902 0.959 . S
H888 C902 0.961 . S
H889 C903 0.960 . S
H890 C903 0.961 . S
H891 C903 0.959 . S
H892 C906 0.929 . S
H893 C907 0.931 . S
H894 C909 0.930 . S
C895 H883 0.930 . S
C895 C896 1.399 . S
C895 C900 1.399 . S
C896 C895 1.399 . S
C896 C897 1.376 . S
C897 H884 0.930 . S
C897 C896 1.376 . S
C897 C898 1.388 . S
C898 H885 0.930 . S
C898 C897 1.388 . S
C898 C899 1.390 . S
C899 C898 1.390 . S
C899 C900 1.394 . S
C899 C905 1.465 . S
C900 C895 1.399 . S
C900 C899 1.394 . S
C900 C901 1.516 . S
C901 C900 1.516 . S
C901 C902 1.502 . S
C901 C903 1.561 . S
C901 C904 1.526 . S
C902 H886 0.959 . S
C902 H887 0.959 . S
C902 H888 0.961 . S
C902 C901 1.502 . S
C903 H889 0.960 . S
C903 H890 0.961 . S
C903 H891 0.959 . S
C903 C901 1.561 . S
C904 C901 1.526 . S
C904 C905 1.396 . S
C904 C909 1.390 1_554 S
C905 C899 1.465 . S
C905 C904 1.396 . S
C905 C906 1.399 1_554 S
C906 H892 0.929 . S
C906 C905 1.399 1_556 S
C906 C907 1.385 . S
C907 H893 0.931 . S
C907 C906 1.385 . S
C907 C908 1.389 . S
C908 C907 1.389 . S
C908 C909 1.387 . S
C909 H894 0.930 . S
C909 C904 1.390 1_556 S
C909 C908 1.387 . S
H910 C922 0.930 . S
H911 C924 0.930 . S
H912 C925 0.930 1_556 S
H913 C929 0.959 . S
H914 C929 0.959 . S
H915 C929 0.961 . S
H916 C930 0.960 . S
H917 C930 0.961 . S
H918 C930 0.959 . S
H919 C933 0.929 . S
H920 C934 0.931 . S
H921 C936 0.930 . S
C922 H910 0.930 . S
C922 C923 1.399 . S
C922 C927 1.399 1_554 S
C923 C922 1.399 . S
C923 C924 1.376 . S
C924 H911 0.930 . S
C924 C923 1.376 . S
C924 C925 1.388 . S
C925 H912 0.930 1_554 S
C925 C924 1.388 . S
C925 C926 1.390 1_554 S
C926 C925 1.390 1_556 S
C926 C927 1.394 . S
C926 C932 1.465 . S
C927 C922 1.399 1_556 S
C927 C926 1.394 . S
C927 C928 1.516 . S
C928 C927 1.516 . S
C928 C929 1.502 . S
C928 C930 1.561 . S
C928 C931 1.526 . S
C929 H913 0.959 . S
C929 H914 0.959 . S
C929 H915 0.961 . S
C929 C928 1.502 . S
C930 H916 0.960 . S
C930 H917 0.961 . S
C930 H918 0.959 . S
C930 C928 1.561 . S
C931 C928 1.526 . S
C931 C932 1.396 . S
C931 C936 1.390 . S
C932 C926 1.465 . S
C932 C931 1.396 . S
C932 C933 1.399 . S
C933 H919 0.929 . S
C933 C932 1.399 . S
C933 C934 1.385 . S
C934 H920 0.931 . S
C934 C933 1.385 . S
C934 C935 1.389 . S
C935 C934 1.389 . S
C935 C936 1.387 . S
C936 H921 0.930 . S
C936 C931 1.390 . S
C936 C935 1.387 . S
H937 C949 0.930 . S
H938 C951 0.930 . S
H939 C952 0.930 . S
H940 C956 0.959 . S
H941 C956 0.959 . S
H942 C956 0.961 . S
H943 C957 0.960 . S
H944 C957 0.961 . S
H945 C957 0.959 . S
H946 C960 0.929 . S
H947 C961 0.931 . S
H948 C963 0.930 . S
C949 H937 0.930 . S
C949 C950 1.399 . S
C949 C954 1.399 . S
C950 C949 1.399 . S
C950 C951 1.376 . S
C951 H938 0.930 . S
C951 C950 1.376 . S
C951 C952 1.388 . S
C952 H939 0.930 . S
C952 C951 1.388 . S
C952 C953 1.390 . S
C953 C952 1.390 . S
C953 C954 1.394 . S
C953 C959 1.465 . S
C954 C949 1.399 . S
C954 C953 1.394 . S
C954 C955 1.516 . S
C955 C954 1.516 . S
C955 C956 1.502 . S
C955 C957 1.561 . S
C955 C958 1.526 . S
C956 H940 0.959 . S
C956 H941 0.959 . S
C956 H942 0.961 . S
C956 C955 1.502 . S
C957 H943 0.960 . S
C957 H944 0.961 . S
C957 H945 0.959 . S
C957 C955 1.561 . S
C958 C955 1.526 . S
C958 C959 1.396 . S
C958 C963 1.390 . S
C959 C953 1.465 . S
C959 C958 1.396 . S
C959 C960 1.399 . S
C960 H946 0.929 . S
C960 C959 1.399 . S
C960 C961 1.385 . S
C961 H947 0.931 . S
C961 C960 1.385 . S
C961 C962 1.389 . S
C962 C961 1.389 . S
C962 C963 1.387 . S
C963 H948 0.930 . S
C963 C958 1.390 . S
C963 C962 1.387 . S
H964 C976 0.930 . S
H965 C978 0.930 . S
H966 C979 0.930 . S
H967 C983 0.959 . S
H968 C983 0.959 . S
H969 C983 0.961 . S
H970 C984 0.960 . S
H971 C984 0.961 . S
H972 C984 0.959 . S
H973 C987 0.929 . S
H974 C988 0.931 . S
H975 C990 0.930 . S
C976 H964 0.930 . S
C976 C977 1.399 . S
C976 C981 1.399 . S
C977 C976 1.399 . S
C977 C978 1.376 . S
C978 H965 0.930 . S
C978 C977 1.376 . S
C978 C979 1.388 . S
C979 H966 0.930 . S
C979 C978 1.388 . S
C979 C980 1.390 . S
C980 C979 1.390 . S
C980 C981 1.394 . S
C980 C986 1.465 . S
C981 C976 1.399 . S
C981 C980 1.394 . S
C981 C982 1.516 . S
C982 C981 1.516 . S
C982 C983 1.502 . S
C982 C984 1.561 . S
C982 C985 1.526 . S
C983 H967 0.959 . S
C983 H968 0.959 . S
C983 H969 0.961 . S
C983 C982 1.502 . S
C984 H970 0.960 . S
C984 H971 0.961 . S
C984 H972 0.959 . S
C984 C982 1.561 . S
C985 C982 1.526 . S
C985 C986 1.396 . S
C985 C990 1.390 . S
C986 C980 1.465 . S
C986 C985 1.396 . S
C986 C987 1.399 . S
C987 H973 0.929 . S
C987 C986 1.399 . S
C987 C988 1.385 . S
C988 H974 0.931 . S
C988 C987 1.385 . S
C988 C989 1.389 . S
C989 C988 1.389 . S
C989 C990 1.387 . S
C990 H975 0.930 . S
C990 C985 1.390 . S
C990 C989 1.387 . S
H991 C1003 0.930 . S
H992 C1005 0.930 . S
H993 C1006 0.930 . S
H994 C1010 0.959 . S
H995 C1010 0.959 . S
H996 C1010 0.961 . S
H997 C1011 0.960 . S
H998 C1011 0.961 . S
H999 C1011 0.959 . S
H1000 C1014 0.929 . S
H1001 C1015 0.931 . S
H1002 C1017 0.930 . S
C1003 H991 0.930 . S
C1003 C1004 1.399 . S
C1003 C1008 1.399 . S
C1004 C1003 1.399 . S
C1004 C1005 1.376 . S
C1005 H992 0.930 . S
C1005 C1004 1.376 . S
C1005 C1006 1.388 . S
C1006 H993 0.930 . S
C1006 C1005 1.388 . S
C1006 C1007 1.390 . S
C1007 C1006 1.390 . S
C1007 C1008 1.394 . S
C1007 C1013 1.465 . S
C1008 C1003 1.399 . S
C1008 C1007 1.394 . S
C1008 C1009 1.516 . S
C1009 C1008 1.516 . S
C1009 C1010 1.502 . S
C1009 C1011 1.561 . S
C1009 C1012 1.526 . S
C1010 H994 0.959 . S
C1010 H995 0.959 . S
C1010 H996 0.961 . S
C1010 C1009 1.502 . S
C1011 H997 0.960 . S
C1011 H998 0.961 . S
C1011 H999 0.959 . S
C1011 C1009 1.561 . S
C1012 C1009 1.526 . S
C1012 C1013 1.396 . S
C1012 C1017 1.390 . S
C1013 C1007 1.465 . S
C1013 C1012 1.396 . S
C1013 C1014 1.399 . S
C1014 H1000 0.929 . S
C1014 C1013 1.399 . S
C1014 C1015 1.385 . S
C1015 H1001 0.931 . S
C1015 C1014 1.385 . S
C1015 C1016 1.389 . S
C1016 C1015 1.389 . S
C1016 C1017 1.387 . S
C1017 H1002 0.930 . S
C1017 C1012 1.390 . S
C1017 C1016 1.387 . S
H1018 C1030 0.930 . S
H1019 C1032 0.930 . S
H1020 C1033 0.930 . S
H1021 C1037 0.959 . S
H1022 C1037 0.959 . S
H1023 C1037 0.961 . S
H1024 C1038 0.960 . S
H1025 C1038 0.961 . S
H1026 C1038 0.959 . S
H1027 C1041 0.929 1_554 S
H1028 C1042 0.931 . S
H1029 C1044 0.930 . S
C1030 H1018 0.930 . S
C1030 C1031 1.399 . S
C1030 C1035 1.399 . S
C1031 C1030 1.399 . S
C1031 C1032 1.376 . S
C1032 H1019 0.930 . S
C1032 C1031 1.376 . S
C1032 C1033 1.388 . S
C1033 H1020 0.930 . S
C1033 C1032 1.388 . S
C1033 C1034 1.390 . S
C1034 C1033 1.390 . S
C1034 C1035 1.394 . S
C1034 C1040 1.465 . S
C1035 C1030 1.399 . S
C1035 C1034 1.394 . S
C1035 C1036 1.516 . S
C1036 C1035 1.516 . S
C1036 C1037 1.502 . S
C1036 C1038 1.561 . S
C1036 C1039 1.526 . S
C1037 H1021 0.959 . S
C1037 H1022 0.959 . S
C1037 H1023 0.961 . S
C1037 C1036 1.502 . S
C1038 H1024 0.960 . S
C1038 H1025 0.961 . S
C1038 H1026 0.959 . S
C1038 C1036 1.561 . S
C1039 C1036 1.526 . S
C1039 C1040 1.396 . S
C1039 C1044 1.390 1_554 S
C1040 C1034 1.465 . S
C1040 C1039 1.396 . S
C1040 C1041 1.399 1_554 S
C1041 H1027 0.929 1_556 S
C1041 C1040 1.399 1_556 S
C1041 C1042 1.385 . S
C1042 H1028 0.931 . S
C1042 C1041 1.385 . S
C1042 C1043 1.389 . S
C1043 C1042 1.389 . S
C1043 C1044 1.387 . S
C1044 H1029 0.930 . S
C1044 C1039 1.390 1_556 S
C1044 C1043 1.387 . S
H1045 C1057 0.930 . S
H1046 C1059 0.930 . S
H1047 C1060 0.930 . S
H1048 C1064 0.959 . S
H1049 C1064 0.959 . S
H1050 C1064 0.961 . S
H1051 C1065 0.960 . S
H1052 C1065 0.961 . S
H1053 C1065 0.959 . S
H1054 C1068 0.929 . S
H1055 C1069 0.931 . S
H1056 C1071 0.930 . S
C1057 H1045 0.930 . S
C1057 C1058 1.399 . S
C1057 C1062 1.399 1_554 S
C1058 C1057 1.399 . S
C1058 C1059 1.376 . S
C1059 H1046 0.930 . S
C1059 C1058 1.376 . S
C1059 C1060 1.388 . S
C1060 H1047 0.930 . S
C1060 C1059 1.388 . S
C1060 C1061 1.390 1_554 S
C1061 C1060 1.390 1_556 S
C1061 C1062 1.394 . S
C1061 C1067 1.465 . S
C1062 C1057 1.399 1_556 S
C1062 C1061 1.394 . S
C1062 C1063 1.516 . S
C1063 C1062 1.516 . S
C1063 C1064 1.502 . S
C1063 C1065 1.561 . S
C1063 C1066 1.526 . S
C1064 H1048 0.959 . S
C1064 H1049 0.959 . S
C1064 H1050 0.961 . S
C1064 C1063 1.502 . S
C1065 H1051 0.960 . S
C1065 H1052 0.961 . S
C1065 H1053 0.959 . S
C1065 C1063 1.561 . S
C1066 C1063 1.526 . S
C1066 C1067 1.396 . S
C1066 C1071 1.390 . S
C1067 C1061 1.465 . S
C1067 C1066 1.396 . S
C1067 C1068 1.399 . S
C1068 H1054 0.929 . S
C1068 C1067 1.399 . S
C1068 C1069 1.385 . S
C1069 H1055 0.931 . S
C1069 C1068 1.385 . S
C1069 C1070 1.389 . S
C1070 C1069 1.389 . S
C1070 C1071 1.387 . S
C1071 H1056 0.930 . S
C1071 C1066 1.390 . S
C1071 C1070 1.387 . S
H1072 C1084 0.930 . S
H1073 C1086 0.930 1_556 S
H1074 C1087 0.930 1_556 S
H1075 C1091 0.959 . S
H1076 C1091 0.959 . S
H1077 C1091 0.961 . S
H1078 C1092 0.960 . S
H1079 C1092 0.961 . S
H1080 C1092 0.959 . S
H1081 C1095 0.929 1_556 S
H1082 C1096 0.931 1_556 S
H1083 C1098 0.930 . S
C1084 H1072 0.930 . S
C1084 C1085 1.399 . S
C1084 C1089 1.399 . S
C1085 C1084 1.399 . S
C1085 C1086 1.376 . S
C1086 H1073 0.930 1_554 S
C1086 C1085 1.376 . S
C1086 C1087 1.388 . S
C1087 H1074 0.930 1_554 S
C1087 C1086 1.388 . S
C1087 C1088 1.390 . S
C1088 C1087 1.390 . S
C1088 C1089 1.394 . S
C1088 C1094 1.465 . S
C1089 C1084 1.399 . S
C1089 C1088 1.394 . S
C1089 C1090 1.516 . S
C1090 C1089 1.516 . S
C1090 C1091 1.502 . S
C1090 C1092 1.561 . S
C1090 C1093 1.526 . S
C1091 H1075 0.959 . S
C1091 H1076 0.959 . S
C1091 H1077 0.961 . S
C1091 C1090 1.502 . S
C1092 H1078 0.960 . S
C1092 H1079 0.961 . S
C1092 H1080 0.959 . S
C1092 C1090 1.561 . S
C1093 C1090 1.526 . S
C1093 C1094 1.396 . S
C1093 C1098 1.390 . S
C1094 C1088 1.465 . S
C1094 C1093 1.396 . S
C1094 C1095 1.399 . S
C1095 H1081 0.929 1_554 S
C1095 C1094 1.399 . S
C1095 C1096 1.385 . S
C1096 H1082 0.931 1_554 S
C1096 C1095 1.385 . S
C1096 C1097 1.389 . S
C1097 C1096 1.389 . S
C1097 C1098 1.387 . S
C1098 H1083 0.930 . S
C1098 C1093 1.390 . S
C1098 C1097 1.387 . S
H1099 C1111 0.930 . S
H1100 C1113 0.930 . S
H1101 C1114 0.930 . S
H1102 C1118 0.959 . S
H1103 C1118 0.959 . S
H1104 C1118 0.961 . S
H1105 C1119 0.960 . S
H1106 C1119 0.961 . S
H1107 C1119 0.959 . S
H1108 C1122 0.929 . S
H1109 C1123 0.931 . S
H1110 C1125 0.930 . S
C1111 H1099 0.930 . S
C1111 C1112 1.399 . S
C1111 C1116 1.399 . S
C1112 C1111 1.399 . S
C1112 C1113 1.376 . S
C1113 H1100 0.930 . S
C1113 C1112 1.376 . S
C1113 C1114 1.388 . S
C1114 H1101 0.930 . S
C1114 C1113 1.388 . S
C1114 C1115 1.390 . S
C1115 C1114 1.390 . S
C1115 C1116 1.394 . S
C1115 C1121 1.465 . S
C1116 C1111 1.399 . S
C1116 C1115 1.394 . S
C1116 C1117 1.516 . S
C1117 C1116 1.516 . S
C1117 C1118 1.502 . S
C1117 C1119 1.561 . S
C1117 C1120 1.526 . S
C1118 H1102 0.959 . S
C1118 H1103 0.959 . S
C1118 H1104 0.961 . S
C1118 C1117 1.502 . S
C1119 H1105 0.960 . S
C1119 H1106 0.961 . S
C1119 H1107 0.959 . S
C1119 C1117 1.561 . S
C1120 C1117 1.526 . S
C1120 C1121 1.396 . S
C1120 C1125 1.390 . S
C1121 C1115 1.465 . S
C1121 C1120 1.396 . S
C1121 C1122 1.399 . S
C1122 H1108 0.929 . S
C1122 C1121 1.399 . S
C1122 C1123 1.385 . S
C1123 H1109 0.931 . S
C1123 C1122 1.385 . S
C1123 C1124 1.389 . S
C1124 C1123 1.389 . S
C1124 C1125 1.387 . S
C1125 H1110 0.930 . S
C1125 C1120 1.390 . S
C1125 C1124 1.387 . S
H1126 C1138 0.930 . S
H1127 C1140 0.930 . S
H1128 C1141 0.930 . S
H1129 C1145 0.959 . S
H1130 C1145 0.959 . S
H1131 C1145 0.961 . S
H1132 C1146 0.960 . S
H1133 C1146 0.961 . S
H1134 C1146 0.959 . S
H1135 C1149 0.929 . S
H1136 C1150 0.931 . S
H1137 C1152 0.930 . S
C1138 H1126 0.930 . S
C1138 C1139 1.399 . S
C1138 C1143 1.399 . S
C1139 C1138 1.399 . S
C1139 C1140 1.376 . S
C1140 H1127 0.930 . S
C1140 C1139 1.376 . S
C1140 C1141 1.388 . S
C1141 H1128 0.930 . S
C1141 C1140 1.388 . S
C1141 C1142 1.390 . S
C1142 C1141 1.390 . S
C1142 C1143 1.394 . S
C1142 C1148 1.465 . S
C1143 C1138 1.399 . S
C1143 C1142 1.394 . S
C1143 C1144 1.516 . S
C1144 C1143 1.516 . S
C1144 C1145 1.502 . S
C1144 C1146 1.561 . S
C1144 C1147 1.526 . S
C1145 H1129 0.959 . S
C1145 H1130 0.959 . S
C1145 H1131 0.961 . S
C1145 C1144 1.502 . S
C1146 H1132 0.960 . S
C1146 H1133 0.961 . S
C1146 H1134 0.959 . S
C1146 C1144 1.561 . S
C1147 C1144 1.526 . S
C1147 C1148 1.396 . S
C1147 C1152 1.390 . S
C1148 C1142 1.465 . S
C1148 C1147 1.396 . S
C1148 C1149 1.399 . S
C1149 H1135 0.929 . S
C1149 C1148 1.399 . S
C1149 C1150 1.385 . S
C1150 H1136 0.931 . S
C1150 C1149 1.385 . S
C1150 C1151 1.389 . S
C1151 C1150 1.389 . S
C1151 C1152 1.387 . S
C1152 H1137 0.930 . S
C1152 C1147 1.390 . S
C1152 C1151 1.387 . S
H1153 C1165 0.930 . S
H1154 C1167 0.930 . S
H1155 C1168 0.930 . S
H1156 C1172 0.962 . S
H1157 C1172 0.979 . S
H1158 C1172 0.939 1_655 S
H1159 C1173 0.958 1_655 S
H1160 C1173 0.963 1_556 S
H1161 C1173 0.959 . S
H1162 C1176 0.929 . S
H1163 C1177 0.931 . S
H1164 C1179 0.930 . S
C1165 H1153 0.930 . S
C1165 C1166 1.399 1_556 S
C1165 C1170 1.399 . S
C1166 C1165 1.399 1_554 S
C1166 C1167 1.376 . S
C1167 H1154 0.930 . S
C1167 C1166 1.376 . S
C1167 C1168 1.388 . S
C1168 H1155 0.930 . S
C1168 C1167 1.388 . S
C1168 C1169 1.390 . S
C1169 C1168 1.390 . S
C1169 C1170 1.394 1_554 S
C1169 C1175 1.465 1_655 S
C1170 C1165 1.399 . S
C1170 C1169 1.394 1_556 S
C1170 C1171 1.517 1_655 S
C1171 C1170 1.517 1_455 S
C1171 C1172 1.502 . S
C1171 C1173 1.561 1_556 S
C1171 C1174 1.525 . S
C1172 H1156 0.962 . S
C1172 H1157 0.979 . S
C1172 H1158 0.939 1_455 S
C1172 C1171 1.502 . S
C1173 H1159 0.958 1_455 S
C1173 H1160 0.963 1_554 S
C1173 H1161 0.959 . S
C1173 C1171 1.561 1_554 S
C1174 C1171 1.525 . S
C1174 C1175 1.396 1_556 S
C1174 C1179 1.390 . S
C1175 C1169 1.465 1_455 S
C1175 C1174 1.396 1_554 S
C1175 C1176 1.399 . S
C1176 H1162 0.929 . S
C1176 C1175 1.399 . S
C1176 C1177 1.385 . S
C1177 H1163 0.931 . S
C1177 C1176 1.385 . S
C1177 C1178 1.389 . S
C1178 C1177 1.389 . S
C1178 C1179 1.387 1_554 S
C1179 H1164 0.930 . S
C1179 C1174 1.390 . S
C1179 C1178 1.387 1_556 S
H1180 C1192 0.930 . S
H1181 C1194 0.930 1_554 S
H1182 C1195 0.930 1_554 S
H1183 C1199 0.959 . S
H1184 C1199 0.959 . S
H1185 C1199 0.961 . S
H1186 C1200 0.960 . S
H1187 C1200 0.961 . S
H1188 C1200 0.959 . S
H1189 C1203 0.929 1_554 S
H1190 C1204 0.931 1_554 S
H1191 C1206 0.930 . S
C1192 H1180 0.930 . S
C1192 C1193 1.399 . S
C1192 C1197 1.399 . S
C1193 C1192 1.399 . S
C1193 C1194 1.376 . S
C1194 H1181 0.930 1_556 S
C1194 C1193 1.376 . S
C1194 C1195 1.388 . S
C1195 H1182 0.930 1_556 S
C1195 C1194 1.388 . S
C1195 C1196 1.390 . S
C1196 C1195 1.390 . S
C1196 C1197 1.394 . S
C1196 C1202 1.465 . S
C1197 C1192 1.399 . S
C1197 C1196 1.394 . S
C1197 C1198 1.516 . S
C1198 C1197 1.516 . S
C1198 C1199 1.502 . S
C1198 C1200 1.561 . S
C1198 C1201 1.526 . S
C1199 H1183 0.959 . S
C1199 H1184 0.959 . S
C1199 H1185 0.961 . S
C1199 C1198 1.502 . S
C1200 H1186 0.960 . S
C1200 H1187 0.961 . S
C1200 H1188 0.959 . S
C1200 C1198 1.561 . S
C1201 C1198 1.526 . S
C1201 C1202 1.396 . S
C1201 C1206 1.390 . S
C1202 C1196 1.465 . S
C1202 C1201 1.396 . S
C1202 C1203 1.399 . S
C1203 H1189 0.929 1_556 S
C1203 C1202 1.399 . S
C1203 C1204 1.385 . S
C1204 H1190 0.931 1_556 S
C1204 C1203 1.385 . S
C1204 C1205 1.389 . S
C1205 C1204 1.389 . S
C1205 C1206 1.387 . S
C1206 H1191 0.930 . S
C1206 C1201 1.390 . S
C1206 C1205 1.387 . S
H1207 C1219 0.930 . S
H1208 C1221 0.930 . S
H1209 C1222 0.930 . S
H1210 C1226 0.962 . S
H1211 C1226 0.979 . S
H1212 C1226 0.939 1_455 S
H1213 C1227 0.958 1_455 S
H1214 C1227 0.963 . S
H1215 C1227 0.959 1_554 S
H1216 C1230 0.929 . S
H1217 C1231 0.931 . S
H1218 C1233 0.930 . S
C1219 H1207 0.930 . S
C1219 C1220 1.408 . S
C1219 C1224 1.399 . S
C1220 C1219 1.408 . S
C1220 C1221 1.364 1_556 S
C1221 H1208 0.930 . S
C1221 C1220 1.364 1_554 S
C1221 C1222 1.388 . S
C1222 H1209 0.930 . S
C1222 C1221 1.388 . S
C1222 C1223 1.390 . S
C1223 C1222 1.390 . S
C1223 C1224 1.394 1_554 S
C1223 C1229 1.465 1_455 S
C1224 C1219 1.399 . S
C1224 C1223 1.394 1_556 S
C1224 C1225 1.517 1_455 S
C1225 C1224 1.517 1_655 S
C1225 C1226 1.502 . S
C1225 C1227 1.561 . S
C1225 C1228 1.525 . S
C1226 H1210 0.962 . S
C1226 H1211 0.979 . S
C1226 H1212 0.939 1_655 S
C1226 C1225 1.502 . S
C1227 H1213 0.958 1_655 S
C1227 H1214 0.963 . S
C1227 H1215 0.959 1_556 S
C1227 C1225 1.561 . S
C1228 C1225 1.525 . S
C1228 C1229 1.396 1_556 S
C1228 C1233 1.390 . S
C1229 C1223 1.465 1_655 S
C1229 C1228 1.396 1_554 S
C1229 C1230 1.399 . S
C1230 H1216 0.929 . S
C1230 C1229 1.399 . S
C1230 C1231 1.385 . S
C1231 H1217 0.931 . S
C1231 C1230 1.385 . S
C1231 C1232 1.389 1_554 S
C1232 C1231 1.389 1_556 S
C1232 C1233 1.387 . S
C1233 H1218 0.930 . S
C1233 C1228 1.390 . S
C1233 C1232 1.387 . S
H1234 C1246 0.930 . S
H1235 C1248 0.930 . S
H1236 C1249 0.930 . S
H1237 C1253 0.959 . S
H1238 C1253 0.959 . S
H1239 C1253 0.961 . S
H1240 C1254 0.960 . S
H1241 C1254 0.961 . S
H1242 C1254 0.959 . S
H1243 C1257 0.929 . S
H1244 C1258 0.931 . S
H1245 C1260 0.930 . S
C1246 H1234 0.930 . S
C1246 C1247 1.399 . S
C1246 C1251 1.399 . S
C1247 C1246 1.399 . S
C1247 C1248 1.376 . S
C1248 H1235 0.930 . S
C1248 C1247 1.376 . S
C1248 C1249 1.388 . S
C1249 H1236 0.930 . S
C1249 C1248 1.388 . S
C1249 C1250 1.390 . S
C1250 C1249 1.390 . S
C1250 C1251 1.394 . S
C1250 C1256 1.465 . S
C1251 C1246 1.399 . S
C1251 C1250 1.394 . S
C1251 C1252 1.516 . S
C1252 C1251 1.516 . S
C1252 C1253 1.502 . S
C1252 C1254 1.561 . S
C1252 C1255 1.526 . S
C1253 H1237 0.959 . S
C1253 H1238 0.959 . S
C1253 H1239 0.961 . S
C1253 C1252 1.502 . S
C1254 H1240 0.960 . S
C1254 H1241 0.961 . S
C1254 H1242 0.959 . S
C1254 C1252 1.561 . S
C1255 C1252 1.526 . S
C1255 C1256 1.396 . S
C1255 C1260 1.390 . S
C1256 C1250 1.465 . S
C1256 C1255 1.396 . S
C1256 C1257 1.399 . S
C1257 H1243 0.929 . S
C1257 C1256 1.399 . S
C1257 C1258 1.385 . S
C1258 H1244 0.931 . S
C1258 C1257 1.385 . S
C1258 C1259 1.389 . S
C1259 C1258 1.389 . S
C1259 C1260 1.387 . S
C1260 H1245 0.930 . S
C1260 C1255 1.390 . S
C1260 C1259 1.387 . S
H1261 C1273 0.930 . S
H1262 C1275 0.930 . S
H1263 C1276 0.930 . S
H1264 C1280 0.959 . S
H1265 C1280 0.959 . S
H1266 C1280 0.961 . S
H1267 C1281 0.960 . S
H1268 C1281 0.961 . S
H1269 C1281 0.959 . S
H1270 C1284 0.929 . S
H1271 C1285 0.931 . S
H1272 C1287 0.930 . S
C1273 H1261 0.930 . S
C1273 C1274 1.399 . S
C1273 C1278 1.399 . S
C1274 C1273 1.399 . S
C1274 C1275 1.376 . S
C1275 H1262 0.930 . S
C1275 C1274 1.376 . S
C1275 C1276 1.388 . S
C1276 H1263 0.930 . S
C1276 C1275 1.388 . S
C1276 C1277 1.390 . S
C1277 C1276 1.390 . S
C1277 C1278 1.394 . S
C1277 C1283 1.465 . S
C1278 C1273 1.399 . S
C1278 C1277 1.394 . S
C1278 C1279 1.516 . S
C1279 C1278 1.516 . S
C1279 C1280 1.502 . S
C1279 C1281 1.561 . S
C1279 C1282 1.526 . S
C1280 H1264 0.959 . S
C1280 H1265 0.959 . S
C1280 H1266 0.961 . S
C1280 C1279 1.502 . S
C1281 H1267 0.960 . S
C1281 H1268 0.961 . S
C1281 H1269 0.959 . S
C1281 C1279 1.561 . S
C1282 C1279 1.526 . S
C1282 C1283 1.396 . S
C1282 C1287 1.390 . S
C1283 C1277 1.465 . S
C1283 C1282 1.396 . S
C1283 C1284 1.399 . S
C1284 H1270 0.929 . S
C1284 C1283 1.399 . S
C1284 C1285 1.385 . S
C1285 H1271 0.931 . S
C1285 C1284 1.385 . S
C1285 C1286 1.389 . S
C1286 C1285 1.389 . S
C1286 C1287 1.387 . S
C1287 H1272 0.930 . S
C1287 C1282 1.390 . S
C1287 C1286 1.387 . S
H1288 C1300 0.930 . S
H1289 C1302 0.930 . S
H1290 C1303 0.930 . S
H1291 C1307 0.959 . S
H1292 C1307 0.959 . S
H1293 C1307 0.961 . S
H1294 C1308 0.960 . S
H1295 C1308 0.961 . S
H1296 C1308 0.959 . S
H1297 C1311 0.929 . S
H1298 C1312 0.931 . S
H1299 C1314 0.930 . S
C1300 H1288 0.930 . S
C1300 C1301 1.399 . S
C1300 C1305 1.399 . S
C1301 C1300 1.399 . S
C1301 C1302 1.376 . S
C1302 H1289 0.930 . S
C1302 C1301 1.376 . S
C1302 C1303 1.388 . S
C1303 H1290 0.930 . S
C1303 C1302 1.388 . S
C1303 C1304 1.390 . S
C1304 C1303 1.390 . S
C1304 C1305 1.394 . S
C1304 C1310 1.465 . S
C1305 C1300 1.399 . S
C1305 C1304 1.394 . S
C1305 C1306 1.516 . S
C1306 C1305 1.516 . S
C1306 C1307 1.502 . S
C1306 C1308 1.561 1_556 S
C1306 C1309 1.526 . S
C1307 H1291 0.959 . S
C1307 H1292 0.959 . S
C1307 H1293 0.961 . S
C1307 C1306 1.502 . S
C1308 H1294 0.960 . S
C1308 H1295 0.961 . S
C1308 H1296 0.959 . S
C1308 C1306 1.561 1_554 S
C1309 C1306 1.526 . S
C1309 C1310 1.396 . S
C1309 C1314 1.390 . S
C1310 C1304 1.465 . S
C1310 C1309 1.396 . S
C1310 C1311 1.399 . S
C1311 H1297 0.929 . S
C1311 C1310 1.399 . S
C1311 C1312 1.385 . S
C1312 H1298 0.931 . S
C1312 C1311 1.385 . S
C1312 C1313 1.389 . S
C1313 C1312 1.389 . S
C1313 C1314 1.387 . S
C1314 H1299 0.930 . S
C1314 C1309 1.390 . S
C1314 C1313 1.387 . S
H1315 C1327 0.930 . S
H1316 C1329 0.930 . S
H1317 C1330 0.930 . S
H1318 C1334 0.959 . S
H1319 C1334 0.959 . S
H1320 C1334 0.961 . S
H1321 C1335 0.960 . S
H1322 C1335 0.961 . S
H1323 C1335 0.959 . S
H1324 C1338 0.929 . S
H1325 C1339 0.931 . S
H1326 C1341 0.930 . S
C1327 H1315 0.930 . S
C1327 C1328 1.399 . S
C1327 C1332 1.399 . S
C1328 C1327 1.399 . S
C1328 C1329 1.376 . S
C1329 H1316 0.930 . S
C1329 C1328 1.376 . S
C1329 C1330 1.388 . S
C1330 H1317 0.930 . S
C1330 C1329 1.388 . S
C1330 C1331 1.390 . S
C1331 C1330 1.390 . S
C1331 C1332 1.394 . S
C1331 C1337 1.465 . S
C1332 C1327 1.399 . S
C1332 C1331 1.394 . S
C1332 C1333 1.516 . S
C1333 C1332 1.516 . S
C1333 C1334 1.502 . S
C1333 C1335 1.561 . S
C1333 C1336 1.526 . S
C1334 H1318 0.959 . S
C1334 H1319 0.959 . S
C1334 H1320 0.961 . S
C1334 C1333 1.502 . S
C1335 H1321 0.960 . S
C1335 H1322 0.961 . S
C1335 H1323 0.959 . S
C1335 C1333 1.561 . S
C1336 C1333 1.526 . S
C1336 C1337 1.396 . S
C1336 C1341 1.390 . S
C1337 C1331 1.465 . S
C1337 C1336 1.396 . S
C1337 C1338 1.399 . S
C1338 H1324 0.929 . S
C1338 C1337 1.399 . S
C1338 C1339 1.385 . S
C1339 H1325 0.931 . S
C1339 C1338 1.385 . S
C1339 C1340 1.389 . S
C1340 C1339 1.389 . S
C1340 C1341 1.387 . S
C1341 H1326 0.930 . S
C1341 C1336 1.390 . S
C1341 C1340 1.387 . S
H1342 C1354 0.930 . S
H1343 C1356 0.930 1_556 S
H1344 C1357 0.930 1_556 S
H1345 C1361 0.959 . S
H1346 C1361 0.959 . S
H1347 C1361 0.961 . S
H1348 C1362 0.960 . S
H1349 C1362 0.961 . S
H1350 C1362 0.959 . S
H1351 C1365 0.929 1_556 S
H1352 C1366 0.931 1_556 S
H1353 C1368 0.930 . S
C1354 H1342 0.930 . S
C1354 C1355 1.399 . S
C1354 C1359 1.399 . S
C1355 C1354 1.399 . S
C1355 C1356 1.376 . S
C1356 H1343 0.930 1_554 S
C1356 C1355 1.376 . S
C1356 C1357 1.388 . S
C1357 H1344 0.930 1_554 S
C1357 C1356 1.388 . S
C1357 C1358 1.390 . S
C1358 C1357 1.390 . S
C1358 C1359 1.394 . S
C1358 C1364 1.465 . S
C1359 C1354 1.399 . S
C1359 C1358 1.394 . S
C1359 C1360 1.516 . S
C1360 C1359 1.516 . S
C1360 C1361 1.502 . S
C1360 C1362 1.561 . S
C1360 C1363 1.526 . S
C1361 H1345 0.959 . S
C1361 H1346 0.959 . S
C1361 H1347 0.961 . S
C1361 C1360 1.502 . S
C1362 H1348 0.960 . S
C1362 H1349 0.961 . S
C1362 H1350 0.959 . S
C1362 C1360 1.561 . S
C1363 C1360 1.526 . S
C1363 C1364 1.396 . S
C1363 C1368 1.390 . S
C1364 C1358 1.465 . S
C1364 C1363 1.396 . S
C1364 C1365 1.399 . S
C1365 H1351 0.929 1_554 S
C1365 C1364 1.399 . S
C1365 C1366 1.385 . S
C1366 H1352 0.931 1_554 S
C1366 C1365 1.385 . S
C1366 C1367 1.389 . S
C1367 C1366 1.389 . S
C1367 C1368 1.387 . S
C1368 H1353 0.930 . S
C1368 C1363 1.390 . S
C1368 C1367 1.387 . S
H1369 C1381 0.930 . S
H1370 C1383 0.930 . S
H1371 C1384 0.930 . S
H1372 C1388 0.959 . S
H1373 C1388 0.959 . S
H1374 C1388 0.961 . S
H1375 C1389 0.960 . S
H1376 C1389 0.961 . S
H1377 C1389 0.959 . S
H1378 C1392 0.929 . S
H1379 C1393 0.931 . S
H1380 C1395 0.930 . S
C1381 H1369 0.930 . S
C1381 C1382 1.399 . S
C1381 C1386 1.399 . S
C1382 C1381 1.399 . S
C1382 C1383 1.376 . S
C1383 H1370 0.930 . S
C1383 C1382 1.376 . S
C1383 C1384 1.388 . S
C1384 H1371 0.930 . S
C1384 C1383 1.388 . S
C1384 C1385 1.390 . S
C1385 C1384 1.390 . S
C1385 C1386 1.394 . S
C1385 C1391 1.465 . S
C1386 C1381 1.399 . S
C1386 C1385 1.394 . S
C1386 C1387 1.516 . S
C1387 C1386 1.516 . S
C1387 C1388 1.502 . S
C1387 C1389 1.561 . S
C1387 C1390 1.526 . S
C1388 H1372 0.959 . S
C1388 H1373 0.959 . S
C1388 H1374 0.961 . S
C1388 C1387 1.502 . S
C1389 H1375 0.960 . S
C1389 H1376 0.961 . S
C1389 H1377 0.959 . S
C1389 C1387 1.561 . S
C1390 C1387 1.526 . S
C1390 C1391 1.396 . S
C1390 C1395 1.390 . S
C1391 C1385 1.465 . S
C1391 C1390 1.396 . S
C1391 C1392 1.399 . S
C1392 H1378 0.929 . S
C1392 C1391 1.399 . S
C1392 C1393 1.385 . S
C1393 H1379 0.931 . S
C1393 C1392 1.385 . S
C1393 C1394 1.389 . S
C1394 C1393 1.389 . S
C1394 C1395 1.387 . S
C1395 H1380 0.930 . S
C1395 C1390 1.390 . S
C1395 C1394 1.387 . S
H1396 C1408 0.930 . S
H1397 C1410 0.930 . S
H1398 C1411 0.930 . S
H1399 C1415 0.962 . S
H1400 C1415 0.979 . S
H1401 C1415 0.939 1_655 S
H1402 C1416 0.958 1_655 S
H1403 C1416 0.963 . S
H1404 C1416 0.959 . S
H1405 C1419 0.929 . S
H1406 C1420 0.931 . S
H1407 C1422 0.930 . S
C1408 H1396 0.930 . S
C1408 C1409 1.399 . S
C1408 C1413 1.399 . S
C1409 C1408 1.399 . S
C1409 C1410 1.376 . S
C1410 H1397 0.930 . S
C1410 C1409 1.376 . S
C1410 C1411 1.388 . S
C1411 H1398 0.930 . S
C1411 C1410 1.388 . S
C1411 C1412 1.390 . S
C1412 C1411 1.390 . S
C1412 C1413 1.394 . S
C1412 C1418 1.465 1_655 S
C1413 C1408 1.399 . S
C1413 C1412 1.394 . S
C1413 C1414 1.517 1_655 S
C1414 C1413 1.517 1_455 S
C1414 C1415 1.502 1_554 S
C1414 C1416 1.561 . S
C1414 C1417 1.525 . S
C1415 H1399 0.962 . S
C1415 H1400 0.979 . S
C1415 H1401 0.939 1_455 S
C1415 C1414 1.502 1_556 S
C1416 H1402 0.958 1_455 S
C1416 H1403 0.963 . S
C1416 H1404 0.959 . S
C1416 C1414 1.561 . S
C1417 C1414 1.525 . S
C1417 C1418 1.396 . S
C1417 C1422 1.390 . S
C1418 C1412 1.465 1_455 S
C1418 C1417 1.396 . S
C1418 C1419 1.399 . S
C1419 H1405 0.929 . S
C1419 C1418 1.399 . S
C1419 C1420 1.385 . S
C1420 H1406 0.931 . S
C1420 C1419 1.385 . S
C1420 C1421 1.389 . S
C1421 C1420 1.389 . S
C1421 C1422 1.387 . S
C1422 H1407 0.930 . S
C1422 C1417 1.390 . S
C1422 C1421 1.387 . S
H1423 C1435 0.930 . S
H1424 C1437 0.930 . S
H1425 C1438 0.930 . S
H1426 C1442 0.959 . S
H1427 C1442 0.959 . S
H1428 C1442 0.961 . S
H1429 C1443 0.960 . S
H1430 C1443 0.961 . S
H1431 C1443 0.959 . S
H1432 C1446 0.929 . S
H1433 C1447 0.931 . S
H1434 C1449 0.930 . S
C1435 H1423 0.930 . S
C1435 C1436 1.399 . S
C1435 C1440 1.399 . S
C1436 C1435 1.399 . S
C1436 C1437 1.376 . S
C1437 H1424 0.930 . S
C1437 C1436 1.376 . S
C1437 C1438 1.388 . S
C1438 H1425 0.930 . S
C1438 C1437 1.388 . S
C1438 C1439 1.390 . S
C1439 C1438 1.390 . S
C1439 C1440 1.394 . S
C1439 C1445 1.465 . S
C1440 C1435 1.399 . S
C1440 C1439 1.394 . S
C1440 C1441 1.516 . S
C1441 C1440 1.516 . S
C1441 C1442 1.502 . S
C1441 C1443 1.561 . S
C1441 C1444 1.526 . S
C1442 H1426 0.959 . S
C1442 H1427 0.959 . S
C1442 H1428 0.961 . S
C1442 C1441 1.502 . S
C1443 H1429 0.960 . S
C1443 H1430 0.961 . S
C1443 H1431 0.959 . S
C1443 C1441 1.561 . S
C1444 C1441 1.526 . S
C1444 C1445 1.396 . S
C1444 C1449 1.390 . S
C1445 C1439 1.465 . S
C1445 C1444 1.396 . S
C1445 C1446 1.399 . S
C1446 H1432 0.929 . S
C1446 C1445 1.399 . S
C1446 C1447 1.385 . S
C1447 H1433 0.931 . S
C1447 C1446 1.385 . S
C1447 C1448 1.389 . S
C1448 C1447 1.389 . S
C1448 C1449 1.387 . S
C1449 H1434 0.930 . S
C1449 C1444 1.390 . S
C1449 C1448 1.387 . S
H1450 C1462 0.930 . S
H1451 C1464 0.930 . S
H1452 C1465 0.930 . S
H1453 C1469 0.959 . S
H1454 C1469 0.959 . S
H1455 C1469 0.961 . S
H1456 C1470 0.960 . S
H1457 C1470 0.961 . S
H1458 C1470 0.959 . S
H1459 C1473 0.929 . S
H1460 C1474 0.931 . S
H1461 C1476 0.930 . S
C1462 H1450 0.930 . S
C1462 C1463 1.399 . S
C1462 C1467 1.399 . S
C1463 C1462 1.399 . S
C1463 C1464 1.376 . S
C1464 H1451 0.930 . S
C1464 C1463 1.376 . S
C1464 C1465 1.388 . S
C1465 H1452 0.930 . S
C1465 C1464 1.388 . S
C1465 C1466 1.390 . S
C1466 C1465 1.390 . S
C1466 C1467 1.394 . S
C1466 C1472 1.465 . S
C1467 C1462 1.399 . S
C1467 C1466 1.394 . S
C1467 C1468 1.516 . S
C1468 C1467 1.516 . S
C1468 C1469 1.502 . S
C1468 C1470 1.561 . S
C1468 C1471 1.526 . S
C1469 H1453 0.959 . S
C1469 H1454 0.959 . S
C1469 H1455 0.961 . S
C1469 C1468 1.502 . S
C1470 H1456 0.960 . S
C1470 H1457 0.961 . S
C1470 H1458 0.959 . S
C1470 C1468 1.561 . S
C1471 C1468 1.526 . S
C1471 C1472 1.396 . S
C1471 C1476 1.390 . S
C1472 C1466 1.465 . S
C1472 C1471 1.396 . S
C1472 C1473 1.399 . S
C1473 H1459 0.929 . S
C1473 C1472 1.399 . S
C1473 C1474 1.385 . S
C1474 H1460 0.931 . S
C1474 C1473 1.385 . S
C1474 C1475 1.389 . S
C1475 C1474 1.389 . S
C1475 C1476 1.387 . S
C1476 H1461 0.930 . S
C1476 C1471 1.390 . S
C1476 C1475 1.387 . S
H1477 C1489 0.930 . S
H1478 C1491 0.930 . S
H1479 C1492 0.930 . S
H1480 C1496 0.962 1_554 S
H1481 C1496 0.979 . S
H1482 C1496 0.939 1_455 S
H1483 C1497 0.958 1_455 S
H1484 C1497 0.963 . S
H1485 C1497 0.959 . S
H1486 C1500 0.929 . S
H1487 C1501 0.931 . S
H1488 C1503 0.930 . S
C1489 H1477 0.930 . S
C1489 C1490 1.399 . S
C1489 C1494 1.399 . S
C1490 C1489 1.399 . S
C1490 C1491 1.376 1_556 S
C1491 H1478 0.930 . S
C1491 C1490 1.376 1_554 S
C1491 C1492 1.388 . S
C1492 H1479 0.930 . S
C1492 C1491 1.388 . S
C1492 C1493 1.390 . S
C1493 C1492 1.390 . S
C1493 C1494 1.394 1_554 S
C1493 C1499 1.465 1_455 S
C1494 C1489 1.399 . S
C1494 C1493 1.394 1_556 S
C1494 C1495 1.517 1_455 S
C1495 C1494 1.517 1_655 S
C1495 C1496 1.502 . S
C1495 C1497 1.561 . S
C1495 C1498 1.525 . S
C1496 H1480 0.962 1_556 S
C1496 H1481 0.979 . S
C1496 H1482 0.939 1_655 S
C1496 C1495 1.502 . S
C1497 H1483 0.958 1_655 S
C1497 H1484 0.963 . S
C1497 H1485 0.959 . S
C1497 C1495 1.561 . S
C1498 C1495 1.525 . S
C1498 C1499 1.396 1_556 S
C1498 C1503 1.390 . S
C1499 C1493 1.465 1_655 S
C1499 C1498 1.396 1_554 S
C1499 C1500 1.399 . S
C1500 H1486 0.929 . S
C1500 C1499 1.399 . S
C1500 C1501 1.385 . S
C1501 H1487 0.931 . S
C1501 C1500 1.385 . S
C1501 C1502 1.389 1_554 S
C1502 C1501 1.389 1_556 S
C1502 C1503 1.387 . S
C1503 H1488 0.930 . S
C1503 C1498 1.390 . S
C1503 C1502 1.387 . S
H1504 C1516 0.930 . S
H1505 C1518 0.930 . S
H1506 C1519 0.930 . S
H1507 C1523 0.959 . S
H1508 C1523 0.959 . S
H1509 C1523 0.961 . S
H1510 C1524 0.960 . S
H1511 C1524 0.961 . S
H1512 C1524 0.959 . S
H1513 C1527 0.929 . S
H1514 C1528 0.931 . S
H1515 C1530 0.930 . S
C1516 H1504 0.930 . S
C1516 C1517 1.399 . S
C1516 C1521 1.399 . S
C1517 C1516 1.399 . S
C1517 C1518 1.376 1_554 S
C1518 H1505 0.930 . S
C1518 C1517 1.376 1_556 S
C1518 C1519 1.388 . S
C1519 H1506 0.930 . S
C1519 C1518 1.388 . S
C1519 C1520 1.390 . S
C1520 C1519 1.390 . S
C1520 C1521 1.394 1_556 S
C1520 C1526 1.465 . S
C1521 C1516 1.399 . S
C1521 C1520 1.394 1_554 S
C1521 C1522 1.516 . S
C1522 C1521 1.516 . S
C1522 C1523 1.502 . S
C1522 C1524 1.561 . S
C1522 C1525 1.526 . S
C1523 H1507 0.959 . S
C1523 H1508 0.959 . S
C1523 H1509 0.961 . S
C1523 C1522 1.502 . S
C1524 H1510 0.960 . S
C1524 H1511 0.961 . S
C1524 H1512 0.959 . S
C1524 C1522 1.561 . S
C1525 C1522 1.526 . S
C1525 C1526 1.396 1_554 S
C1525 C1530 1.390 . S
C1526 C1520 1.465 . S
C1526 C1525 1.396 1_556 S
C1526 C1527 1.399 . S
C1527 H1513 0.929 . S
C1527 C1526 1.399 . S
C1527 C1528 1.385 . S
C1528 H1514 0.931 . S
C1528 C1527 1.385 . S
C1528 C1529 1.389 . S
C1529 C1528 1.389 . S
C1529 C1530 1.387 1_556 S
C1530 H1515 0.930 . S
C1530 C1525 1.390 . S
C1530 C1529 1.387 1_554 S
H1531 C1543 0.930 . S
H1532 C1545 0.930 . S
H1533 C1546 0.930 . S
H1534 C1550 0.959 . S
H1535 C1550 0.959 . S
H1536 C1550 0.961 . S
H1537 C1551 0.960 . S
H1538 C1551 0.961 . S
H1539 C1551 0.959 . S
H1540 C1554 0.929 . S
H1541 C1555 0.931 . S
H1542 C1557 0.930 . S
C1543 H1531 0.930 . S
C1543 C1544 1.399 . S
C1543 C1548 1.399 . S
C1544 C1543 1.399 . S
C1544 C1545 1.376 . S
C1545 H1532 0.930 . S
C1545 C1544 1.376 . S
C1545 C1546 1.388 . S
C1546 H1533 0.930 . S
C1546 C1545 1.388 . S
C1546 C1547 1.390 . S
C1547 C1546 1.390 . S
C1547 C1548 1.394 . S
C1547 C1553 1.465 . S
C1548 C1543 1.399 . S
C1548 C1547 1.394 . S
C1548 C1549 1.516 . S
C1549 C1548 1.516 . S
C1549 C1550 1.502 . S
C1549 C1551 1.561 . S
C1549 C1552 1.526 . S
C1550 H1534 0.959 . S
C1550 H1535 0.959 . S
C1550 H1536 0.961 . S
C1550 C1549 1.502 . S
C1551 H1537 0.960 . S
C1551 H1538 0.961 . S
C1551 H1539 0.959 . S
C1551 C1549 1.561 . S
C1552 C1549 1.526 . S
C1552 C1553 1.396 . S
C1552 C1557 1.390 . S
C1553 C1547 1.465 . S
C1553 C1552 1.396 . S
C1553 C1554 1.399 . S
C1554 H1540 0.929 . S
C1554 C1553 1.399 . S
C1554 C1555 1.385 . S
C1555 H1541 0.931 . S
C1555 C1554 1.385 . S
C1555 C1556 1.389 . S
C1556 C1555 1.389 . S
C1556 C1557 1.387 . S
C1557 H1542 0.930 . S
C1557 C1552 1.390 . S
C1557 C1556 1.387 . S
H1558 C1570 0.930 . S
H1559 C1572 0.930 . S
H1560 C1573 0.930 . S
H1561 C1577 0.959 . S
H1562 C1577 0.959 . S
H1563 C1577 0.961 . S
H1564 C1578 0.960 . S
H1565 C1578 0.961 . S
H1566 C1578 0.959 . S
H1567 C1581 0.929 . S
H1568 C1582 0.931 . S
H1569 C1584 0.930 . S
C1570 H1558 0.930 . S
C1570 C1571 1.399 . S
C1570 C1575 1.399 . S
C1571 C1570 1.399 . S
C1571 C1572 1.376 . S
C1572 H1559 0.930 . S
C1572 C1571 1.376 . S
C1572 C1573 1.388 . S
C1573 H1560 0.930 . S
C1573 C1572 1.388 . S
C1573 C1574 1.390 . S
C1574 C1573 1.390 . S
C1574 C1575 1.394 . S
C1574 C1580 1.465 . S
C1575 C1570 1.399 . S
C1575 C1574 1.394 . S
C1575 C1576 1.516 . S
C1576 C1575 1.516 . S
C1576 C1577 1.502 . S
C1576 C1578 1.561 . S
C1576 C1579 1.526 . S
C1577 H1561 0.959 . S
C1577 H1562 0.959 . S
C1577 H1563 0.961 . S
C1577 C1576 1.502 . S
C1578 H1564 0.960 . S
C1578 H1565 0.961 . S
C1578 H1566 0.959 . S
C1578 C1576 1.561 . S
C1579 C1576 1.526 . S
C1579 C1580 1.396 . S
C1579 C1584 1.390 . S
C1580 C1574 1.465 . S
C1580 C1579 1.396 . S
C1580 C1581 1.399 . S
C1581 H1567 0.929 . S
C1581 C1580 1.399 . S
C1581 C1582 1.385 . S
C1582 H1568 0.931 . S
C1582 C1581 1.385 . S
C1582 C1583 1.389 . S
C1583 C1582 1.389 . S
C1583 C1584 1.387 . S
C1584 H1569 0.930 . S
C1584 C1579 1.390 . S
C1584 C1583 1.387 . S
H1585 C1597 0.930 . S
H1586 C1599 0.930 . S
H1587 C1600 0.930 . S
H1588 C1604 0.959 . S
H1589 C1604 0.959 . S
H1590 C1604 0.961 . S
H1591 C1605 0.960 . S
H1592 C1605 0.961 . S
H1593 C1605 0.959 . S
H1594 C1608 0.929 . S
H1595 C1609 0.931 . S
H1596 C1611 0.930 . S
C1597 H1585 0.930 . S
C1597 C1598 1.399 . S
C1597 C1602 1.399 . S
C1598 C1597 1.399 . S
C1598 C1599 1.376 . S
C1599 H1586 0.930 . S
C1599 C1598 1.376 . S
C1599 C1600 1.388 . S
C1600 H1587 0.930 . S
C1600 C1599 1.388 . S
C1600 C1601 1.390 . S
C1601 C1600 1.390 . S
C1601 C1602 1.394 . S
C1601 C1607 1.465 . S
C1602 C1597 1.399 . S
C1602 C1601 1.394 . S
C1602 C1603 1.516 . S
C1603 C1602 1.516 . S
C1603 C1604 1.502 . S
C1603 C1605 1.561 . S
C1603 C1606 1.526 . S
C1604 H1588 0.959 . S
C1604 H1589 0.959 . S
C1604 H1590 0.961 . S
C1604 C1603 1.502 . S
C1605 H1591 0.960 . S
C1605 H1592 0.961 . S
C1605 H1593 0.959 . S
C1605 C1603 1.561 . S
C1606 C1603 1.526 . S
C1606 C1607 1.396 . S
C1606 C1611 1.390 . S
C1607 C1601 1.465 . S
C1607 C1606 1.396 . S
C1607 C1608 1.399 . S
C1608 H1594 0.929 . S
C1608 C1607 1.399 . S
C1608 C1609 1.385 . S
C1609 H1595 0.931 . S
C1609 C1608 1.385 . S
C1609 C1610 1.389 . S
C1610 C1609 1.389 . S
C1610 C1611 1.387 . S
C1611 H1596 0.930 . S
C1611 C1606 1.390 . S
C1611 C1610 1.387 . S
H1612 C1624 0.930 1_556 S
H1613 C1626 0.930 . S
H1614 C1627 0.930 . S
H1615 C1631 0.959 . S
H1616 C1631 0.959 . S
H1617 C1631 0.961 . S
H1618 C1632 0.960 . S
H1619 C1632 0.961 . S
H1620 C1632 0.959 . S
H1621 C1635 0.929 . S
H1622 C1636 0.931 . S
H1623 C1638 0.930 . S
C1624 H1612 0.930 1_554 S
C1624 C1625 1.399 . S
C1624 C1629 1.399 1_554 S
C1625 C1624 1.399 . S
C1625 C1626 1.376 . S
C1626 H1613 0.930 . S
C1626 C1625 1.376 . S
C1626 C1627 1.388 . S
C1627 H1614 0.930 . S
C1627 C1626 1.388 . S
C1627 C1628 1.390 . S
C1628 C1627 1.390 . S
C1628 C1629 1.394 1_554 S
C1628 C1634 1.465 . S
C1629 C1624 1.399 1_556 S
C1629 C1628 1.394 1_556 S
C1629 C1630 1.516 . S
C1630 C1629 1.516 . S
C1630 C1631 1.502 . S
C1630 C1632 1.561 . S
C1630 C1633 1.526 . S
C1631 H1615 0.959 . S
C1631 H1616 0.959 . S
C1631 H1617 0.961 . S
C1631 C1630 1.502 . S
C1632 H1618 0.960 . S
C1632 H1619 0.961 . S
C1632 H1620 0.959 . S
C1632 C1630 1.561 . S
C1633 C1630 1.526 . S
C1633 C1634 1.396 1_556 S
C1633 C1638 1.390 . S
C1634 C1628 1.465 . S
C1634 C1633 1.396 1_554 S
C1634 C1635 1.399 . S
C1635 H1621 0.929 . S
C1635 C1634 1.399 . S
C1635 C1636 1.385 . S
C1636 H1622 0.931 . S
C1636 C1635 1.385 . S
C1636 C1637 1.389 1_554 S
C1637 C1636 1.389 1_556 S
C1637 C1638 1.387 . S
C1638 H1623 0.930 . S
C1638 C1633 1.390 . S
C1638 C1637 1.387 . S
H1639 C1651 0.930 . S
H1640 C1653 0.930 . S
H1641 C1654 0.930 . S
H1642 C1658 0.959 . S
H1643 C1658 0.959 . S
H1644 C1658 0.961 . S
H1645 C1659 0.960 . S
H1646 C1659 0.961 . S
H1647 C1659 0.959 . S
H1648 C1662 0.929 . S
H1649 C1663 0.931 . S
H1650 C1665 0.930 . S
C1651 H1639 0.930 . S
C1651 C1652 1.399 . S
C1651 C1656 1.399 . S
C1652 C1651 1.399 . S
C1652 C1653 1.376 . S
C1653 H1640 0.930 . S
C1653 C1652 1.376 . S
C1653 C1654 1.388 . S
C1654 H1641 0.930 . S
C1654 C1653 1.388 . S
C1654 C1655 1.390 . S
C1655 C1654 1.390 . S
C1655 C1656 1.394 . S
C1655 C1661 1.465 . S
C1656 C1651 1.399 . S
C1656 C1655 1.394 . S
C1656 C1657 1.516 . S
C1657 C1656 1.516 . S
C1657 C1658 1.502 . S
C1657 C1659 1.561 . S
C1657 C1660 1.526 . S
C1658 H1642 0.959 . S
C1658 H1643 0.959 . S
C1658 H1644 0.961 . S
C1658 C1657 1.502 . S
C1659 H1645 0.960 . S
C1659 H1646 0.961 . S
C1659 H1647 0.959 . S
C1659 C1657 1.561 . S
C1660 C1657 1.526 . S
C1660 C1661 1.396 . S
C1660 C1665 1.390 . S
C1661 C1655 1.465 . S
C1661 C1660 1.396 . S
C1661 C1662 1.399 . S
C1662 H1648 0.929 . S
C1662 C1661 1.399 . S
C1662 C1663 1.385 . S
C1663 H1649 0.931 . S
C1663 C1662 1.385 . S
C1663 C1664 1.389 . S
C1664 C1663 1.389 . S
C1664 C1665 1.387 . S
C1665 H1650 0.930 . S
C1665 C1660 1.390 . S
C1665 C1664 1.387 . S
H1666 C1678 0.930 . S
H1667 C1680 0.930 . S
H1668 C1681 0.930 . S
H1669 C1685 0.959 . S
H1670 C1685 0.959 . S
H1671 C1685 0.961 . S
H1672 C1686 0.960 . S
H1673 C1686 0.961 . S
H1674 C1686 0.959 . S
H1675 C1689 0.929 . S
H1676 C1690 0.931 . S
H1677 C1692 0.930 . S
C1678 H1666 0.930 . S
C1678 C1679 1.399 . S
C1678 C1683 1.399 . S
C1679 C1678 1.399 . S
C1679 C1680 1.376 . S
C1680 H1667 0.930 . S
C1680 C1679 1.376 . S
C1680 C1681 1.388 . S
C1681 H1668 0.930 . S
C1681 C1680 1.388 . S
C1681 C1682 1.390 . S
C1682 C1681 1.390 . S
C1682 C1683 1.394 . S
C1682 C1688 1.465 . S
C1683 C1678 1.399 . S
C1683 C1682 1.394 . S
C1683 C1684 1.516 . S
C1684 C1683 1.516 . S
C1684 C1685 1.502 . S
C1684 C1686 1.561 . S
C1684 C1687 1.526 . S
C1685 H1669 0.959 . S
C1685 H1670 0.959 . S
C1685 H1671 0.961 . S
C1685 C1684 1.502 . S
C1686 H1672 0.960 . S
C1686 H1673 0.961 . S
C1686 H1674 0.959 . S
C1686 C1684 1.561 . S
C1687 C1684 1.526 . S
C1687 C1688 1.396 . S
C1687 C1692 1.390 . S
C1688 C1682 1.465 . S
C1688 C1687 1.396 . S
C1688 C1689 1.399 . S
C1689 H1675 0.929 . S
C1689 C1688 1.399 . S
C1689 C1690 1.385 . S
C1690 H1676 0.931 . S
C1690 C1689 1.385 . S
C1690 C1691 1.389 . S
C1691 C1690 1.389 . S
C1691 C1692 1.387 . S
C1692 H1677 0.930 . S
C1692 C1687 1.390 . S
C1692 C1691 1.387 . S
H1693 C1705 0.930 . S
H1694 C1707 0.930 . S
H1695 C1708 0.930 . S
H1696 C1712 0.959 . S
H1697 C1712 0.959 . S
H1698 C1712 0.961 . S
H1699 C1713 0.960 . S
H1700 C1713 0.961 . S
H1701 C1713 0.959 . S
H1702 C1716 0.929 . S
H1703 C1717 0.931 . S
H1704 C1719 0.930 . S
C1705 H1693 0.930 . S
C1705 C1706 1.399 . S
C1705 C1710 1.399 . S
C1706 C1705 1.399 . S
C1706 C1707 1.376 . S
C1707 H1694 0.930 . S
C1707 C1706 1.376 . S
C1707 C1708 1.388 . S
C1708 H1695 0.930 . S
C1708 C1707 1.388 . S
C1708 C1709 1.390 . S
C1709 C1708 1.390 . S
C1709 C1710 1.394 . S
C1709 C1715 1.465 . S
C1710 C1705 1.399 . S
C1710 C1709 1.394 . S
C1710 C1711 1.516 . S
C1711 C1710 1.516 . S
C1711 C1712 1.502 . S
C1711 C1713 1.561 . S
C1711 C1714 1.526 . S
C1712 H1696 0.959 . S
C1712 H1697 0.959 . S
C1712 H1698 0.961 . S
C1712 C1711 1.502 . S
C1713 H1699 0.960 . S
C1713 H1700 0.961 . S
C1713 H1701 0.959 . S
C1713 C1711 1.561 . S
C1714 C1711 1.526 . S
C1714 C1715 1.396 . S
C1714 C1719 1.390 . S
C1715 C1709 1.465 . S
C1715 C1714 1.396 . S
C1715 C1716 1.399 . S
C1716 H1702 0.929 . S
C1716 C1715 1.399 . S
C1716 C1717 1.385 . S
C1717 H1703 0.931 . S
C1717 C1716 1.385 . S
C1717 C1718 1.389 . S
C1718 C1717 1.389 . S
C1718 C1719 1.387 . S
C1719 H1704 0.930 . S
C1719 C1714 1.390 . S
C1719 C1718 1.387 . S
H1720 C1732 0.930 . S
H1721 C1734 0.930 . S
H1722 C1735 0.930 . S
H1723 C1739 0.959 . S
H1724 C1739 0.959 . S
H1725 C1739 0.961 . S
H1726 C1740 0.950 1_565 S
H1727 C1740 0.961 . S
H1728 C1740 0.959 . S
H1729 C1743 0.929 . S
H1730 C1744 0.931 . S
H1731 C1746 0.930 . S
C1732 H1720 0.930 . S
C1732 C1733 1.399 . S
C1732 C1737 1.399 . S
C1733 C1732 1.399 . S
C1733 C1734 1.376 . S
C1734 H1721 0.930 . S
C1734 C1733 1.376 . S
C1734 C1735 1.388 . S
C1735 H1722 0.930 . S
C1735 C1734 1.388 . S
C1735 C1736 1.390 . S
C1736 C1735 1.390 . S
C1736 C1737 1.394 . S
C1736 C1742 1.465 1_565 S
C1737 C1732 1.399 . S
C1737 C1736 1.394 . S
C1737 C1738 1.516 1_565 S
C1738 C1737 1.516 1_545 S
C1738 C1739 1.502 . S
C1738 C1740 1.561 . S
C1738 C1741 1.526 . S
C1739 H1723 0.959 . S
C1739 H1724 0.959 . S
C1739 H1725 0.961 . S
C1739 C1738 1.502 . S
C1740 H1726 0.950 1_545 S
C1740 H1727 0.961 . S
C1740 H1728 0.959 . S
C1740 C1738 1.561 . S
C1741 C1738 1.526 . S
C1741 C1742 1.396 . S
C1741 C1746 1.390 . S
C1742 C1736 1.465 1_545 S
C1742 C1741 1.396 . S
C1742 C1743 1.399 . S
C1743 H1729 0.929 . S
C1743 C1742 1.399 . S
C1743 C1744 1.385 . S
C1744 H1730 0.931 . S
C1744 C1743 1.385 . S
C1744 C1745 1.389 . S
C1745 C1744 1.389 . S
C1745 C1746 1.387 . S
C1746 H1731 0.930 . S
C1746 C1741 1.390 . S
C1746 C1745 1.387 . S
H1747 C1759 0.930 . S
H1748 C1761 0.930 . S
H1749 C1762 0.930 . S
H1750 C1766 0.959 . S
H1751 C1766 0.959 . S
H1752 C1766 0.961 . S
H1753 C1767 0.960 . S
H1754 C1767 0.961 . S
H1755 C1767 0.959 . S
H1756 C1770 0.929 . S
H1757 C1771 0.931 . S
H1758 C1773 0.930 . S
C1759 H1747 0.930 . S
C1759 C1760 1.399 . S
C1759 C1764 1.399 . S
C1760 C1759 1.399 . S
C1760 C1761 1.376 . S
C1761 H1748 0.930 . S
C1761 C1760 1.376 . S
C1761 C1762 1.388 . S
C1762 H1749 0.930 . S
C1762 C1761 1.388 . S
C1762 C1763 1.390 . S
C1763 C1762 1.390 . S
C1763 C1764 1.394 . S
C1763 C1769 1.465 . S
C1764 C1759 1.399 . S
C1764 C1763 1.394 . S
C1764 C1765 1.516 . S
C1765 C1764 1.516 . S
C1765 C1766 1.502 . S
C1765 C1767 1.561 . S
C1765 C1768 1.526 . S
C1766 H1750 0.959 . S
C1766 H1751 0.959 . S
C1766 H1752 0.961 . S
C1766 C1765 1.502 . S
C1767 H1753 0.960 . S
C1767 H1754 0.961 . S
C1767 H1755 0.959 . S
C1767 C1765 1.561 . S
C1768 C1765 1.526 . S
C1768 C1769 1.396 . S
C1768 C1773 1.390 . S
C1769 C1763 1.465 . S
C1769 C1768 1.396 . S
C1769 C1770 1.399 . S
C1770 H1756 0.929 . S
C1770 C1769 1.399 . S
C1770 C1771 1.385 . S
C1771 H1757 0.931 . S
C1771 C1770 1.385 . S
C1771 C1772 1.389 . S
C1772 C1771 1.389 . S
C1772 C1773 1.387 . S
C1773 H1758 0.930 . S
C1773 C1768 1.390 . S
C1773 C1772 1.387 . S
H1774 C1786 0.930 . S
H1775 C1788 0.930 . S
H1776 C1789 0.930 . S
H1777 C1793 0.959 . S
H1778 C1793 0.959 . S
H1779 C1793 0.961 1_565 S
H1780 C1794 0.960 . S
H1781 C1794 0.961 . S
H1782 C1794 0.959 . S
H1783 C1797 0.929 . S
H1784 C1798 0.931 . S
H1785 C1800 0.930 . S
C1786 H1774 0.930 . S
C1786 C1787 1.399 . S
C1786 C1791 1.399 . S
C1787 C1786 1.399 . S
C1787 C1788 1.376 1_554 S
C1788 H1775 0.930 . S
C1788 C1787 1.376 1_556 S
C1788 C1789 1.388 . S
C1789 H1776 0.930 . S
C1789 C1788 1.388 . S
C1789 C1790 1.390 . S
C1790 C1789 1.390 . S
C1790 C1791 1.394 1_556 S
C1790 C1796 1.465 1_565 S
C1791 C1786 1.399 . S
C1791 C1790 1.394 1_554 S
C1791 C1792 1.516 1_565 S
C1792 C1791 1.516 1_545 S
C1792 C1793 1.502 . S
C1792 C1794 1.561 . S
C1792 C1795 1.526 . S
C1793 H1777 0.959 . S
C1793 H1778 0.959 . S
C1793 H1779 0.961 1_545 S
C1793 C1792 1.502 . S
C1794 H1780 0.960 . S
C1794 H1781 0.961 . S
C1794 H1782 0.959 . S
C1794 C1792 1.561 . S
C1795 C1792 1.526 . S
C1795 C1796 1.396 1_554 S
C1795 C1800 1.390 . S
C1796 C1790 1.465 1_545 S
C1796 C1795 1.396 1_556 S
C1796 C1797 1.399 . S
C1797 H1783 0.929 . S
C1797 C1796 1.399 . S
C1797 C1798 1.385 . S
C1798 H1784 0.931 . S
C1798 C1797 1.385 . S
C1798 C1799 1.389 . S
C1799 C1798 1.389 . S
C1799 C1800 1.387 1_556 S
C1800 H1785 0.930 . S
C1800 C1795 1.390 . S
C1800 C1799 1.387 1_554 S
H1801 C1813 0.930 . S
H1802 C1815 0.930 . S
H1803 C1816 0.930 . S
H1804 C1820 0.959 . S
H1805 C1820 0.959 . S
H1806 C1820 0.961 . S
H1807 C1821 0.960 . S
H1808 C1821 0.961 . S
H1809 C1821 0.959 . S
H1810 C1824 0.929 . S
H1811 C1825 0.931 . S
H1812 C1827 0.930 . S
C1813 H1801 0.930 . S
C1813 C1814 1.399 . S
C1813 C1818 1.399 . S
C1814 C1813 1.399 . S
C1814 C1815 1.376 . S
C1815 H1802 0.930 . S
C1815 C1814 1.376 . S
C1815 C1816 1.388 . S
C1816 H1803 0.930 . S
C1816 C1815 1.388 . S
C1816 C1817 1.390 . S
C1817 C1816 1.390 . S
C1817 C1818 1.394 . S
C1817 C1823 1.465 . S
C1818 C1813 1.399 . S
C1818 C1817 1.394 . S
C1818 C1819 1.516 . S
C1819 C1818 1.516 . S
C1819 C1820 1.502 . S
C1819 C1821 1.561 . S
C1819 C1822 1.526 . S
C1820 H1804 0.959 . S
C1820 H1805 0.959 . S
C1820 H1806 0.961 . S
C1820 C1819 1.502 . S
C1821 H1807 0.960 . S
C1821 H1808 0.961 . S
C1821 H1809 0.959 . S
C1821 C1819 1.561 . S
C1822 C1819 1.526 . S
C1822 C1823 1.396 . S
C1822 C1827 1.390 . S
C1823 C1817 1.465 . S
C1823 C1822 1.396 . S
C1823 C1824 1.399 . S
C1824 H1810 0.929 . S
C1824 C1823 1.399 . S
C1824 C1825 1.385 . S
C1825 H1811 0.931 . S
C1825 C1824 1.385 . S
C1825 C1826 1.389 . S
C1826 C1825 1.389 . S
C1826 C1827 1.387 . S
C1827 H1812 0.930 . S
C1827 C1822 1.390 . S
C1827 C1826 1.387 . S
H1828 C1840 0.930 . S
H1829 C1842 0.930 . S
H1830 C1843 0.930 . S
H1831 C1847 0.959 . S
H1832 C1847 0.959 . S
H1833 C1847 0.961 . S
H1834 C1848 0.960 . S
H1835 C1848 0.961 . S
H1836 C1848 0.959 . S
H1837 C1851 0.929 . S
H1838 C1852 0.931 . S
H1839 C1854 0.930 . S
C1840 H1828 0.930 . S
C1840 C1841 1.399 . S
C1840 C1845 1.399 . S
C1841 C1840 1.399 . S
C1841 C1842 1.376 . S
C1842 H1829 0.930 . S
C1842 C1841 1.376 . S
C1842 C1843 1.388 . S
C1843 H1830 0.930 . S
C1843 C1842 1.388 . S
C1843 C1844 1.390 . S
C1844 C1843 1.390 . S
C1844 C1845 1.394 . S
C1844 C1850 1.465 1_565 S
C1845 C1840 1.399 . S
C1845 C1844 1.394 . S
C1845 C1846 1.516 . S
C1846 C1845 1.516 . S
C1846 C1847 1.502 . S
C1846 C1848 1.561 . S
C1846 C1849 1.526 1_565 S
C1847 H1831 0.959 . S
C1847 H1832 0.959 . S
C1847 H1833 0.961 . S
C1847 C1846 1.502 . S
C1848 H1834 0.960 . S
C1848 H1835 0.961 . S
C1848 H1836 0.959 . S
C1848 C1846 1.561 . S
C1849 C1846 1.526 1_545 S
C1849 C1850 1.396 . S
C1849 C1854 1.390 . S
C1850 C1844 1.465 1_545 S
C1850 C1849 1.396 . S
C1850 C1851 1.399 . S
C1851 H1837 0.929 . S
C1851 C1850 1.399 . S
C1851 C1852 1.385 . S
C1852 H1838 0.931 . S
C1852 C1851 1.385 . S
C1852 C1853 1.389 . S
C1853 C1852 1.389 . S
C1853 C1854 1.387 . S
C1854 H1839 0.930 . S
C1854 C1849 1.390 . S
C1854 C1853 1.387 . S
H1855 C1867 0.930 . S
H1856 C1869 0.930 . S
H1857 C1870 0.930 . S
H1858 C1874 0.959 . S
H1859 C1874 0.959 . S
H1860 C1874 0.961 . S
H1861 C1875 0.960 . S
H1862 C1875 0.961 . S
H1863 C1875 0.959 . S
H1864 C1878 0.929 . S
H1865 C1879 0.931 . S
H1866 C1881 0.930 . S
C1867 H1855 0.930 . S
C1867 C1868 1.399 . S
C1867 C1872 1.399 . S
C1868 C1867 1.399 . S
C1868 C1869 1.376 . S
C1869 H1856 0.930 . S
C1869 C1868 1.376 . S
C1869 C1870 1.388 . S
C1870 H1857 0.930 . S
C1870 C1869 1.388 . S
C1870 C1871 1.390 . S
C1871 C1870 1.390 . S
C1871 C1872 1.394 . S
C1871 C1877 1.465 . S
C1872 C1867 1.399 . S
C1872 C1871 1.394 . S
C1872 C1873 1.516 . S
C1873 C1872 1.516 . S
C1873 C1874 1.502 . S
C1873 C1875 1.561 . S
C1873 C1876 1.526 . S
C1874 H1858 0.959 . S
C1874 H1859 0.959 . S
C1874 H1860 0.961 . S
C1874 C1873 1.502 . S
C1875 H1861 0.960 . S
C1875 H1862 0.961 . S
C1875 H1863 0.959 . S
C1875 C1873 1.561 . S
C1876 C1873 1.526 . S
C1876 C1877 1.396 . S
C1876 C1881 1.390 . S
C1877 C1871 1.465 . S
C1877 C1876 1.396 . S
C1877 C1878 1.399 . S
C1878 H1864 0.929 . S
C1878 C1877 1.399 . S
C1878 C1879 1.385 . S
C1879 H1865 0.931 . S
C1879 C1878 1.385 . S
C1879 C1880 1.389 . S
C1880 C1879 1.389 . S
C1880 C1881 1.387 . S
C1881 H1866 0.930 . S
C1881 C1876 1.390 . S
C1881 C1880 1.387 . S
H1882 C1894 0.930 . S
H1883 C1896 0.930 . S
H1884 C1897 0.930 . S
H1885 C1901 0.959 . S
H1886 C1901 0.959 . S
H1887 C1901 0.961 . S
H1888 C1902 0.960 1_545 S
H1889 C1902 0.961 . S
H1890 C1902 0.959 1_554 S
H1891 C1905 0.929 . S
H1892 C1906 0.931 . S
H1893 C1908 0.930 1_556 S
C1894 H1882 0.930 . S
C1894 C1895 1.399 . S
C1894 C1899 1.399 . S
C1895 C1894 1.399 . S
C1895 C1896 1.376 1_556 S
C1896 H1883 0.930 . S
C1896 C1895 1.376 1_554 S
C1896 C1897 1.388 . S
C1897 H1884 0.930 . S
C1897 C1896 1.388 . S
C1897 C1898 1.390 . S
C1898 C1897 1.390 . S
C1898 C1899 1.394 1_554 S
C1898 C1904 1.465 1_545 S
C1899 C1894 1.399 . S
C1899 C1898 1.394 1_556 S
C1899 C1900 1.516 1_545 S
C1900 C1899 1.516 1_565 S
C1900 C1901 1.502 . S
C1900 C1902 1.561 . S
C1900 C1903 1.526 . S
C1901 H1885 0.959 . S
C1901 H1886 0.959 . S
C1901 H1887 0.961 . S
C1901 C1900 1.502 . S
C1902 H1888 0.960 1_565 S
C1902 H1889 0.961 . S
C1902 H1890 0.959 1_556 S
C1902 C1900 1.561 . S
C1903 C1900 1.526 . S
C1903 C1904 1.396 1_556 S
C1903 C1908 1.390 1_556 S
C1904 C1898 1.465 1_565 S
C1904 C1903 1.396 1_554 S
C1904 C1905 1.399 . S
C1905 H1891 0.929 . S
C1905 C1904 1.399 . S
C1905 C1906 1.385 . S
C1906 H1892 0.931 . S
C1906 C1905 1.385 . S
C1906 C1907 1.389 . S
C1907 C1906 1.389 . S
C1907 C1908 1.387 . S
C1908 H1893 0.930 1_554 S
C1908 C1903 1.390 1_554 S
C1908 C1907 1.387 . S
H1909 C1921 0.930 . S
H1910 C1923 0.930 . S
H1911 C1924 0.930 . S
H1912 C1928 0.959 . S
H1913 C1928 0.959 . S
H1914 C1928 0.961 . S
H1915 C1929 0.960 . S
H1916 C1929 0.961 . S
H1917 C1929 0.959 . S
H1918 C1932 0.929 . S
H1919 C1933 0.931 . S
H1920 C1935 0.930 . S
C1921 H1909 0.930 . S
C1921 C1922 1.399 . S
C1921 C1926 1.399 . S
C1922 C1921 1.399 . S
C1922 C1923 1.376 . S
C1923 H1910 0.930 . S
C1923 C1922 1.376 . S
C1923 C1924 1.388 . S
C1924 H1911 0.930 . S
C1924 C1923 1.388 . S
C1924 C1925 1.390 . S
C1925 C1924 1.390 . S
C1925 C1926 1.394 . S
C1925 C1931 1.465 . S
C1926 C1921 1.399 . S
C1926 C1925 1.394 . S
C1926 C1927 1.516 . S
C1927 C1926 1.516 . S
C1927 C1928 1.502 . S
C1927 C1929 1.561 . S
C1927 C1930 1.526 . S
C1928 H1912 0.959 . S
C1928 H1913 0.959 . S
C1928 H1914 0.961 . S
C1928 C1927 1.502 . S
C1929 H1915 0.960 . S
C1929 H1916 0.961 . S
C1929 H1917 0.959 . S
C1929 C1927 1.561 . S
C1930 C1927 1.526 . S
C1930 C1931 1.396 . S
C1930 C1935 1.390 . S
C1931 C1925 1.465 . S
C1931 C1930 1.396 . S
C1931 C1932 1.399 . S
C1932 H1918 0.929 . S
C1932 C1931 1.399 . S
C1932 C1933 1.385 . S
C1933 H1919 0.931 . S
C1933 C1932 1.385 . S
C1933 C1934 1.389 . S
C1934 C1933 1.389 . S
C1934 C1935 1.387 . S
C1935 H1920 0.930 . S
C1935 C1930 1.390 . S
C1935 C1934 1.387 . S
C653 C6 1.567 . S
C665 C15 1.603 . S
C680 C55 1.578 . S
C692 C46 1.591 . S
C707 C86 1.603 . S
C719 C95 1.585 . S
C734 C135 1.565 . S
C746 C126 1.605 . S
C761 C166 1.566 . S
C773 C175 1.604 . S
C788 C206 1.565 . S
C800 C215 1.606 . S
C815 C246 1.617 . S
C827 C255 1.569 . S
C842 C295 1.612 . S
C854 C286 1.575 . S
C869 C335 1.568 . S
C881 C326 1.602 . S
C896 C375 1.586 . S
C908 C366 1.583 . S
C923 C406 1.575 . S
C935 C415 1.594 . S
C950 C446 1.611 . S
C962 C455 1.576 . S
C977 C495 1.565 . S
C989 C486 1.605 . S
C1004 C526 1.588 . S
C1016 C535 1.581 . S
C1031 C575 1.610 . S
C1043 C566 1.578 . S
C1058 C606 1.568 . S
C1070 C615 1.602 . S
C1085 C9 1.424 . S
C1097 C458 1.425 . S
C1112 C50 2.034 . S
C1124 C619 2.042 . S
C1139 C89 1.430 . S
C1151 C378 1.426 . S
C1166 C130 2.090 1_554 S
C1178 C539 2.086 1_554 S
C1193 C169 1.423 . S
C1205 C538 1.425 . S
C1220 C459 2.036 1_556 S
C1232 C210 2.049 1_556 S
C1247 C249 1.505 . S
C1259 C618 1.507 . S
C1274 C290 2.034 . S
C1286 C379 2.030 . S
C1301 C129 1.473 . S
C1313 C338 1.485 . S
C1328 C49 1.503 . S
C1340 C418 1.506 . S
C1355 C498 1.453 . S
C1367 C209 1.442 . S
C1382 C289 1.429 . S
C1394 C578 1.425 . S
C1409 C339 2.064 1_554 S
C1421 C170 2.054 1_554 S
C1436 C250 2.087 . S
C1448 C419 2.090 . S
C1463 C90 2.082 . S
C1475 C579 2.074 . S
C1490 C10 2.068 1_556 S
C1502 C499 2.058 1_556 S
C1517 C18 1.543 . S
C1529 C178 1.511 . S
C1544 C59 1.997 . S
C1556 C219 2.016 . S
C1571 C98 1.527 . S
C1583 C258 1.504 . S
C1598 C139 1.997 . S
C1610 C299 2.017 . S
C1625 C489 1.507 . S
C1637 C329 1.527 . S
C1652 C530 2.019 . S
C1664 C370 1.998 . S
C1679 C409 1.504 . S
C1691 C569 1.544 . S
C1706 C610 2.015 . S
C1718 C450 2.029 . S
C1733 C58 1.540 . S
C1745 C298 1.509 . S
C1760 C179 2.023 . S
C1772 C99 2.030 . S
C1787 C218 1.528 . S
C1799 C138 1.504 . S
C1814 C19 2.029 . S
C1826 C259 2.024 . S
C1841 C609 1.503 . S
C1853 C369 1.540 . S
C1868 C490 2.002 . S
C1880 C410 2.031 . S
C1895 C529 1.543 . S
C1907 C449 1.504 . S
C1922 C570 2.001 . S
C1934 C330 2.030 . S
