# Generated by pormake.
# Topology upb, (4)-cn, num edge types: 1
# Building blocks:
#     Node 0, Type 0, BuildingBlock: GALJAG_clean_sbu_0, # of connection points: 4
#     Node 1, Type 0, BuildingBlock: GALJAG_clean_sbu_0, # of connection points: 4
#     Node 2, Type 0, BuildingBlock: GALJAG_clean_sbu_0, # of connection points: 4
#     Node 3, Type 0, BuildingBlock: GALJAG_clean_sbu_0, # of connection points: 4
#     Node 4, Type 0, BuildingBlock: GALJAG_clean_sbu_0, # of connection points: 4
#     Node 5, Type 0, BuildingBlock: GALJAG_clean_sbu_0, # of connection points: 4
#     Node 6, Type 0, BuildingBlock: GALJAG_clean_sbu_0, # of connection points: 4
#     Node 7, Type 0, BuildingBlock: GALJAG_clean_sbu_0, # of connection points: 4
#     Node 8, Type 0, BuildingBlock: GALJAG_clean_sbu_0, # of connection points: 4
#     Node 9, Type 0, BuildingBlock: GALJAG_clean_sbu_0, # of connection points: 4
#     Node 10, Type 0, BuildingBlock: GALJAG_clean_sbu_0, # of connection points: 4
#     Node 11, Type 0, BuildingBlock: GALJAG_clean_sbu_0, # of connection points: 4
#     Node 12, Type 0, BuildingBlock: GALJAG_clean_sbu_0, # of connection points: 4
#     Node 13, Type 0, BuildingBlock: GALJAG_clean_sbu_0, # of connection points: 4
#     Node 14, Type 0, BuildingBlock: GALJAG_clean_sbu_0, # of connection points: 4
#     Node 15, Type 0, BuildingBlock: GALJAG_clean_sbu_0, # of connection points: 4
#     Edge 16, Type (0, 0), BuildingBlock: TEMPAE_clean_linker_10, # of connection points: 2
#     Edge 17, Type (0, 0), BuildingBlock: TEMPAE_clean_linker_10, # of connection points: 2
#     Edge 18, Type (0, 0), BuildingBlock: TEMPAE_clean_linker_10, # of connection points: 2
#     Edge 19, Type (0, 0), BuildingBlock: TEMPAE_clean_linker_10, # of connection points: 2
#     Edge 20, Type (0, 0), BuildingBlock: TEMPAE_clean_linker_10, # of connection points: 2
#     Edge 21, Type (0, 0), BuildingBlock: TEMPAE_clean_linker_10, # of connection points: 2
#     Edge 22, Type (0, 0), BuildingBlock: TEMPAE_clean_linker_10, # of connection points: 2
#     Edge 23, Type (0, 0), BuildingBlock: TEMPAE_clean_linker_10, # of connection points: 2
#     Edge 24, Type (0, 0), BuildingBlock: TEMPAE_clean_linker_10, # of connection points: 2
#     Edge 25, Type (0, 0), BuildingBlock: TEMPAE_clean_linker_10, # of connection points: 2
#     Edge 26, Type (0, 0), BuildingBlock: TEMPAE_clean_linker_10, # of connection points: 2
#     Edge 27, Type (0, 0), BuildingBlock: TEMPAE_clean_linker_10, # of connection points: 2
#     Edge 28, Type (0, 0), BuildingBlock: TEMPAE_clean_linker_10, # of connection points: 2
#     Edge 29, Type (0, 0), BuildingBlock: TEMPAE_clean_linker_10, # of connection points: 2
#     Edge 30, Type (0, 0), BuildingBlock: TEMPAE_clean_linker_10, # of connection points: 2
#     Edge 31, Type (0, 0), BuildingBlock: TEMPAE_clean_linker_10, # of connection points: 2
#     Edge 32, Type (0, 0), BuildingBlock: TEMPAE_clean_linker_10, # of connection points: 2
#     Edge 33, Type (0, 0), BuildingBlock: TEMPAE_clean_linker_10, # of connection points: 2
#     Edge 34, Type (0, 0), BuildingBlock: TEMPAE_clean_linker_10, # of connection points: 2
#     Edge 35, Type (0, 0), BuildingBlock: TEMPAE_clean_linker_10, # of connection points: 2
#     Edge 36, Type (0, 0), BuildingBlock: TEMPAE_clean_linker_10, # of connection points: 2
#     Edge 37, Type (0, 0), BuildingBlock: TEMPAE_clean_linker_10, # of connection points: 2
#     Edge 38, Type (0, 0), BuildingBlock: TEMPAE_clean_linker_10, # of connection points: 2
#     Edge 39, Type (0, 0), BuildingBlock: TEMPAE_clean_linker_10, # of connection points: 2
#     Edge 40, Type (0, 0), BuildingBlock: TEMPAE_clean_linker_10, # of connection points: 2
#     Edge 41, Type (0, 0), BuildingBlock: TEMPAE_clean_linker_10, # of connection points: 2
#     Edge 42, Type (0, 0), BuildingBlock: TEMPAE_clean_linker_10, # of connection points: 2
#     Edge 43, Type (0, 0), BuildingBlock: TEMPAE_clean_linker_10, # of connection points: 2
#     Edge 44, Type (0, 0), BuildingBlock: TEMPAE_clean_linker_10, # of connection points: 2
#     Edge 45, Type (0, 0), BuildingBlock: TEMPAE_clean_linker_10, # of connection points: 2
#     Edge 46, Type (0, 0), BuildingBlock: TEMPAE_clean_linker_10, # of connection points: 2
#     Edge 47, Type (0, 0), BuildingBlock: TEMPAE_clean_linker_10, # of connection points: 2
# Relax obj value: 0.253
# Max RMSD: 0.089
# Mean RMSD: 0.089
data_MOF--net-upb--node1-GALJAG_clean_sbu_0--edge1-TEMPAE_clean_linker_10
_symmetry_space_group_name_H-M    P1
_symmetry_Int_Tables_number       1
_symmetry_cell_setting            triclinic
loop_
_symmetry_equiv_pos_as_xyz
'x, y, z'
_cell_length_a     44.616162
_cell_length_b     44.637062
_cell_length_c     36.691967
_cell_angle_alpha  89.973465
_cell_angle_beta   89.957607
_cell_angle_gamma 89.957936
loop_
_atom_site_label
_atom_site_type_symbol
_atom_site_fract_x
_atom_site_fract_y
_atom_site_fract_z
_atom_type_partial_charge
In0 In 0.03942 0.23246 0.29077 0.0
O1 O 0.07233 0.19688 0.30984 0.0
O2 O 0.07519 0.21084 0.25458 0.0
C3 C 0.02777 0.23567 0.36266 0.0
C4 C 0.05843 0.28733 0.26954 0.0
C5 C 0.98995 0.20768 0.26067 0.0
O6 O 0.05409 0.23359 0.3502 0.0
O7 O 0.00738 0.2363 0.33881 0.0
O8 O 0.99301 0.23568 0.26351 0.0
O9 O 0.01202 0.19274 0.27183 0.0
C10 C 0.08521 0.19402 0.27941 0.0
O11 O 0.04667 0.28252 0.30014 0.0
O12 O 0.0595 0.26476 0.249 0.0
In13 In 0.77368 0.0381 0.30617 0.0
O14 O 0.80587 0.07578 0.31906 0.0
O15 O 0.79342 0.07016 0.26359 0.0
C16 C 0.77023 0.02001 0.37599 0.0
C17 C 0.71805 0.05843 0.29116 0.0
C18 C 0.80363 0.99085 0.27857 0.0
O19 O 0.7804 0.04525 0.36677 0.0
O20 O 0.76155 0.00374 0.34991 0.0
O21 O 0.77546 0.99315 0.27577 0.0
O22 O 0.81621 0.0125 0.29438 0.0
C23 C 0.80868 0.08463 0.2866 0.0
O24 O 0.73241 0.0423 0.26888 0.0
O25 O 0.73157 0.06352 0.32057 0.0
In26 In 0.96727 0.76016 0.27518 0.0
O27 O 0.96941 0.71021 0.25993 0.0
O28 O 0.9296 0.73414 0.24847 0.0
C29 C 0.02195 0.77602 0.24915 0.0
C30 C 0.9273 0.80483 0.26628 0.0
C31 C 0.97231 0.75693 0.34819 0.0
O32 O 0.99804 0.7815 0.23219 0.0
O33 O 0.01832 0.76134 0.27806 0.0
O34 O 0.97467 0.78126 0.33086 0.0
O35 O 0.96723 0.73421 0.3287 0.0
C36 C 0.94293 0.70933 0.24816 0.0
O37 O 0.92923 0.78966 0.29523 0.0
O38 O 0.94555 0.79739 0.24152 0.0
In39 In 0.22984 0.96008 0.29128 0.0
O40 O 0.27201 0.95294 0.25621 0.0
O41 O 0.26777 0.92874 0.30575 0.0
C42 C 0.21165 0.01245 0.26122 0.0
C43 C 0.18889 0.91953 0.26991 0.0
C44 C 0.2285 0.97094 0.3636 0.0
O45 O 0.23696 0.00955 0.27609 0.0
O46 O 0.19653 0.9887 0.25991 0.0
O47 O 0.21571 0.94872 0.34928 0.0
O48 O 0.24207 0.98774 0.34143 0.0
C49 C 0.28328 0.93397 0.27781 0.0
O50 O 0.18567 0.93597 0.29763 0.0
O51 O 0.21295 0.92366 0.25237 0.0
In52 In 0.03502 0.76546 0.68551 0.0
O53 O 0.07055 0.80027 0.67359 0.0
O54 O 0.06559 0.78648 0.7287 0.0
C55 C 0.0199 0.75676 0.61539 0.0
C56 C 0.05741 0.71173 0.70497 0.0
C57 C 0.98614 0.79548 0.70832 0.0
O58 O 0.04446 0.7683 0.62496 0.0
O59 O 0.00286 0.74922 0.64132 0.0
O60 O 0.99006 0.76813 0.71611 0.0
O61 O 0.00693 0.80718 0.68995 0.0
C62 C 0.07916 0.80299 0.70614 0.0
O63 O 0.03828 0.72514 0.72448 0.0
O64 O 0.06426 0.72514 0.67596 0.0
In65 In 0.21955 0.03434 0.70225 0.0
O66 O 0.1802 0.0647 0.69101 0.0
O67 O 0.20227 0.06995 0.74211 0.0
C68 C 0.21966 0.01687 0.63187 0.0
C69 C 0.27218 0.06261 0.71171 0.0
C70 C 0.20005 0.98423 0.73645 0.0
O71 O 0.20049 0.03471 0.64474 0.0
O72 O 0.23868 0.00755 0.65461 0.0
O73 O 0.22672 0.98704 0.72562 0.0
O74 O 0.184 0.00703 0.73148 0.0
C75 C 0.18155 0.0785 0.72099 0.0
O76 O 0.26274 0.04339 0.73427 0.0
O77 O 0.25517 0.06719 0.68492 0.0
In78 In 0.965 0.23664 0.70236 0.0
O79 O 0.95765 0.28071 0.73342 0.0
O80 O 0.92717 0.26894 0.69128 0.0
C81 C 0.01636 0.22249 0.73808 0.0
C82 C 0.92391 0.19411 0.71727 0.0
C83 C 0.97976 0.23716 0.63101 0.0
O84 O 0.01535 0.24187 0.71317 0.0
O85 O 0.99124 0.21171 0.74641 0.0
O86 O 0.97193 0.21367 0.64756 0.0
O87 O 0.98016 0.26046 0.65046 0.0
C88 C 0.9344 0.28753 0.71555 0.0
O89 O 0.94105 0.19293 0.68991 0.0
O90 O 0.92751 0.2168 0.73733 0.0
In91 In 0.7637 0.96797 0.71574 0.0
O92 O 0.78439 0.92286 0.70135 0.0
O93 O 0.80225 0.94632 0.74688 0.0
C94 C 0.76493 0.96963 0.6424 0.0
C95 C 0.71074 0.95036 0.7449 0.0
C96 C 0.78173 0.0232 0.73755 0.0
O97 O 0.78827 0.97255 0.66152 0.0
O98 O 0.74113 0.96548 0.66028 0.0
O99 O 0.78793 -0.00025 0.75507 0.0
O100 O 0.76513 0.01894 0.71038 0.0
C101 C 0.80346 0.9234 0.72675 0.0
O102 O 0.7127 0.97133 0.72213 0.0
O103 O 0.73557 0.9397 0.75464 0.0
In104 In 0.54136 0.73748 0.78308 0.0
O105 O 0.56299 0.77044 0.74282 0.0
O106 O 0.54327 0.78809 0.79059 0.0
C107 C 0.492 0.7095 0.75745 0.0
C108 C 0.58793 0.70048 0.76999 0.0
C109 C 0.53002 0.73973 0.85511 0.0
O110 O 0.49681 0.73692 0.75124 0.0
O111 O 0.51225 0.69661 0.77546 0.0
O112 O 0.55538 0.73276 0.84245 0.0
O113 O 0.51038 0.74559 0.83142 0.0
C114 C 0.55778 0.7933 0.76194 0.0
O115 O 0.58397 0.71353 0.80012 0.0
O116 O 0.5688 0.70686 0.74579 0.0
In117 In 0.26918 0.54932 0.80705 0.0
O118 O 0.29905 0.58944 0.81679 0.0
O119 O 0.29273 0.57572 0.7618 0.0
C120 C 0.2675 0.5317 0.87756 0.0
C121 C 0.2157 0.57443 0.79217 0.0
C122 C 0.29318 0.49975 0.77675 0.0
O123 O 0.28793 0.54807 0.86477 0.0
O124 O 0.2477 0.52425 0.85484 0.0
O125 O 0.26534 0.50482 0.7759 0.0
O126 O 0.30845 0.51975 0.79222 0.0
C127 C 0.30526 0.59368 0.78362 0.0
O128 O 0.22451 0.55093 0.77629 0.0
O129 O 0.23375 0.58493 0.81524 0.0
In130 In 0.44881 0.27059 0.7933 0.0
O131 O 0.44248 0.22937 0.75644 0.0
O132 O 0.41422 0.23486 0.80264 0.0
C133 C 0.49825 0.29748 0.76653 0.0
C134 C 0.40514 0.3098 0.77676 0.0
C135 C 0.4674 0.26149 0.86227 0.0
O136 O 0.49333 0.2699 0.76147 0.0
O137 O 0.47808 0.31099 0.78404 0.0
O138 O 0.44784 0.28063 0.85382 0.0
O139 O 0.47784 0.24677 0.83579 0.0
C140 C 0.42104 0.21925 0.77533 0.0
O141 O 0.41211 0.30278 0.80896 0.0
O142 O 0.42016 0.2967 0.75224 0.0
In143 In 0.72245 0.45615 0.80906 0.0
O144 O 0.76442 0.45187 0.77303 0.0
O145 O 0.76039 0.42375 0.81948 0.0
C146 C 0.69875 0.50795 0.78424 0.0
C147 C 0.68572 0.41228 0.78557 0.0
C148 C 0.72477 0.47058 0.88036 0.0
O149 O 0.72641 0.50227 0.78143 0.0
O150 O 0.68349 0.48738 0.79865 0.0
O151 O 0.70501 0.45366 0.8671 0.0
O152 O 0.74359 0.48037 0.85759 0.0
C153 C 0.77575 0.43123 0.79215 0.0
O154 O 0.69306 0.41564 0.81847 0.0
O155 O 0.69728 0.431 0.7639 0.0
In156 In 0.54629 0.26497 0.19377 0.0
O157 O 0.58262 0.29936 0.18532 0.0
O158 O 0.56926 0.29081 0.24004 0.0
C159 C 0.53464 0.25546 0.12266 0.0
C160 C 0.57368 0.21382 0.21378 0.0
C161 C 0.49423 0.29072 0.21422 0.0
O162 O 0.55308 0.27478 0.13369 0.0
O163 O 0.5221 0.24056 0.14759 0.0
O164 O 0.50147 0.26481 0.22508 0.0
O165 O 0.51326 0.30317 0.19389 0.0
C166 C 0.58599 0.30543 0.21864 0.0
O167 O 0.5479 0.22054 0.22557 0.0
O168 O 0.58504 0.23273 0.1924 0.0
In169 In 0.73177 0.53796 0.21823 0.0
O170 O 0.71174 0.58281 0.20215 0.0
O171 O 0.7056 0.56856 0.25691 0.0
C172 C 0.72858 0.52232 0.14749 0.0
C173 C 0.78912 0.55326 0.23318 0.0
C174 C 0.70337 0.49036 0.2478 0.0
O175 O 0.71703 0.54609 0.15973 0.0
O176 O 0.74151 0.50625 0.17105 0.0
O177 O 0.73148 0.49325 0.24954 0.0
O178 O 0.69004 0.51167 0.23226 0.0
C179 C 0.70033 0.58818 0.23293 0.0
O180 O 0.76906 0.553 0.25741 0.0
O181 O 0.78035 0.54505 0.20225 0.0
In182 In 0.46229 0.72837 0.19247 0.0
O183 O 0.42388 0.69666 0.18172 0.0
O184 O 0.4361 0.70373 0.23711 0.0
C185 C 0.47907 0.73259 0.12204 0.0
C186 C 0.43386 0.78006 0.20774 0.0
C187 C 0.51324 0.70503 0.22013 0.0
O188 O 0.46367 0.7112 0.13428 0.0
O189 O 0.48612 0.7521 0.14537 0.0
O190 O 0.50731 0.73264 0.22289 0.0
O191 O 0.49336 0.68979 0.20442 0.0
C192 C 0.4191 0.69048 0.21477 0.0
O193 O 0.45672 0.77181 0.22548 0.0
O194 O 0.426 0.7625 0.18267 0.0
In195 In 0.27055 0.45698 0.21334 0.0
O196 O 0.29191 0.41269 0.19678 0.0
O197 O 0.3018 0.42969 0.24956 0.0
C198 C 0.26771 0.4709 0.14196 0.0
C199 C 0.21575 0.43966 0.23713 0.0
C200 C 0.29926 0.5059 0.23881 0.0
O201 O 0.27836 0.44639 0.15329 0.0
O202 O 0.25842 0.48827 0.16665 0.0
O203 O 0.27161 0.50184 0.24436 0.0
O204 O 0.31198 0.4852 0.2214 0.0
C205 C 0.30614 0.40933 0.22626 0.0
O206 O 0.23885 0.43792 0.25671 0.0
O207 O 0.22011 0.45108 0.20628 0.0
C208 C 0.1226 0.16864 0.23882 0.0
C209 C 0.1087 0.17127 0.27297 0.0
C210 C 0.14304 0.14536 0.23176 0.0
C211 C 0.14933 0.12414 0.2594 0.0
C212 C 0.13617 0.12742 0.29432 0.0
C213 C 0.11614 0.15102 0.3007 0.0
C214 C 0.157 0.14286 0.19441 0.0
C215 C 0.1422 0.10522 0.32455 0.0
C216 C 0.16852 0.04329 0.24034 0.0
C217 C 0.19831 0.04187 0.25234 0.0
C218 C 0.15287 0.0705 0.23996 0.0
C219 C 0.16749 0.09698 0.25148 0.0
C220 C 0.19838 0.09614 0.2603 0.0
C221 C 0.21345 0.06849 0.26081 0.0
C222 C 0.11996 0.07037 0.2303 0.0
C223 C 0.21492 0.12402 0.27192 0.0
H224 H 0.11705 0.18438 0.21735 0.0
H225 H 0.10555 0.15302 0.3272 0.0
H226 H 0.18151 0.13907 0.19666 0.0
H227 H 0.14739 0.1233 0.17991 0.0
H228 H 0.15302 0.16321 0.17766 0.0
H229 H 0.13128 0.11177 0.35058 0.0
H230 H 0.13377 0.08279 0.31654 0.0
H231 H 0.16666 0.10312 0.3293 0.0
H232 H 0.15676 0.02281 0.23346 0.0
H233 H 0.23655 0.06755 0.26986 0.0
H234 H 0.11471 0.08873 0.21097 0.0
H235 H 0.10648 0.07422 0.25531 0.0
H236 H 0.11285 0.04878 0.21799 0.0
H237 H 0.20901 0.14323 0.25412 0.0
H238 H 0.2396 0.12077 0.27128 0.0
H239 H 0.20829 0.12997 0.30015 0.0
C240 C 0.96031 0.1617 0.24861 0.0
C241 C 0.96141 0.19302 0.25085 0.0
C242 C 0.93287 0.14656 0.2478 0.0
C243 C 0.90586 0.16318 0.24904 0.0
C244 C 0.90683 0.19488 0.24768 0.0
C245 C 0.93471 0.2095 0.24872 0.0
C246 C 0.9329 0.11272 0.24903 0.0
C247 C 0.87851 0.21335 0.24811 0.0
C248 C 0.83626 0.11489 0.23976 0.0
C249 C 0.83028 0.10827 0.27643 0.0
C250 C 0.85967 0.13446 0.23018 0.0
C251 C 0.87749 0.14736 0.25795 0.0
C252 C 0.87029 0.14211 0.295 0.0
C253 C 0.84674 0.1227 0.30375 0.0
C254 C 0.86632 0.13995 0.19041 0.0
C255 C 0.88866 0.15547 0.32553 0.0
H256 H 0.98093 0.14886 0.24975 0.0
H257 H 0.93546 0.23375 0.25017 0.0
H258 H 0.92544 0.10513 0.27638 0.0
H259 H 0.91698 0.10348 0.22876 0.0
H260 H 0.95549 0.1032 0.24365 0.0
H261 H 0.88272 0.23681 0.23938 0.0
H262 H 0.86123 0.20338 0.23009 0.0
H263 H 0.86925 0.2138 0.27618 0.0
H264 H 0.82343 0.10394 0.21853 0.0
H265 H 0.84202 0.1179 0.33215 0.0
H266 H 0.88637 0.12683 0.1823 0.0
H267 H 0.8714 0.16394 0.18545 0.0
H268 H 0.84733 0.13316 0.17269 0.0
H269 H 0.91163 0.14591 0.32493 0.0
H270 H 0.87874 0.15099 0.35277 0.0
H271 H 0.89074 0.18005 0.32193 0.0
C272 C 0.80592 0.93818 0.25499 0.0
C273 C 0.82061 0.96384 0.2678 0.0
C274 C 0.82173 0.9113 0.24955 0.0
C275 C 0.8528 0.91017 0.25739 0.0
C276 C 0.86794 0.93648 0.26844 0.0
C277 C 0.85168 0.96299 0.27338 0.0
C278 C 0.80494 0.88378 0.23721 0.0
C279 C 0.90104 0.93624 0.27716 0.0
C280 C 0.88877 0.839 0.29245 0.0
C281 C 0.90616 0.83012 0.26253 0.0
C282 C 0.87033 0.86436 0.29055 0.0
C283 C 0.86906 0.88112 0.25782 0.0
C284 C 0.88554 0.87152 0.22698 0.0
C285 C 0.90406 0.84615 0.22975 0.0
C286 C 0.85324 0.87396 0.32415 0.0
C287 C 0.88448 0.88865 0.19153 0.0
H288 H 0.78192 0.93879 0.25049 0.0
H289 H 0.86322 0.98282 0.28304 0.0
H290 H 0.81728 0.8723 0.21497 0.0
H291 H 0.8031 0.86775 0.26022 0.0
H292 H 0.78199 0.88925 0.22754 0.0
H293 H 0.90986 0.95906 0.2827 0.0
H294 H 0.90512 0.92208 0.30152 0.0
H295 H 0.91394 0.92638 0.25427 0.0
H296 H 0.89023 0.82662 0.31781 0.0
H297 H 0.91733 0.83922 0.20646 0.0
H298 H 0.82917 0.87706 0.31761 0.0
H299 H 0.86192 0.89583 0.33387 0.0
H300 H 0.85517 0.85745 0.3467 0.0
H301 H 0.86092 0.8932 0.1836 0.0
H302 H 0.89573 0.87637 0.16901 0.0
H303 H 0.89573 0.91062 0.19498 0.0
C304 C 0.07624 0.7841 0.26121 0.0
C305 C 0.0508 0.79046 0.24019 0.0
C306 C 0.10153 0.80267 0.25984 0.0
C307 C 0.10123 0.82825 0.23702 0.0
C308 C 0.07683 0.83301 0.21303 0.0
C309 C 0.05185 0.81396 0.21485 0.0
C310 C 0.12726 0.79655 0.2855 0.0
C311 C 0.07575 0.85986 0.18806 0.0
C312 C 0.1388 0.89622 0.27817 0.0
C313 C 0.16621 0.897 0.25957 0.0
C314 C 0.11731 0.87435 0.27033 0.0
C315 C 0.1234 0.85254 0.2433 0.0
C316 C 0.1508 0.8535 0.22384 0.0
C317 C 0.17194 0.87584 0.23218 0.0
C318 C 0.08827 0.87428 0.29159 0.0
C319 C 0.15805 0.83057 0.19494 0.0
H320 H 0.07566 0.76573 0.28055 0.0
H321 H 0.0323 0.81886 0.19835 0.0
H322 H 0.14906 0.7998 0.27153 0.0
H323 H 0.12629 0.81257 0.30859 0.0
H324 H 0.12643 0.77344 0.29672 0.0
H325 H 0.05834 0.85736 0.16664 0.0
H326 H 0.07047 0.88017 0.2043 0.0
H327 H 0.09777 0.86356 0.17477 0.0
H328 H 0.13419 0.91262 0.29923 0.0
H329 H 0.19315 0.87637 0.21777 0.0
H330 H 0.08635 0.85321 0.30747 0.0
H331 H 0.06892 0.8752 0.27266 0.0
H332 H 0.08662 0.89347 0.31077 0.0
H333 H 0.16033 0.80815 0.2077 0.0
H334 H 0.17918 0.83586 0.18026 0.0
H335 H 0.13953 0.82912 0.17486 0.0
C336 C 0.11315 0.84516 0.69068 0.0
C337 C 0.10185 0.82536 0.7169 0.0
C338 C 0.13228 0.86862 0.7005 0.0
C339 C 0.14064 0.87219 0.73748 0.0
C340 C 0.13065 0.85129 0.76385 0.0
C341 C 0.11111 0.82818 0.75327 0.0
C342 C 0.14234 0.89045 0.67145 0.0
C343 C 0.13958 0.854 0.80336 0.0
C344 C 0.20338 0.92862 0.74379 0.0
C345 C 0.18687 0.95521 0.74724 0.0
C346 C 0.18893 0.90067 0.74447 0.0
C347 C 0.15737 0.89954 0.74827 0.0
C348 C 0.14118 0.92614 0.75567 0.0
C349 C 0.1562 0.95367 0.75526 0.0
C350 C 0.20708 0.87269 0.73767 0.0
C351 C 0.10752 0.92597 0.76007 0.0
H352 H 0.10622 0.84299 0.66249 0.0
H353 H 0.10258 0.81275 0.7736 0.0
H354 H 0.13321 0.91305 0.67745 0.0
H355 H 0.16713 0.89225 0.67132 0.0
H356 H 0.13484 0.88375 0.64377 0.0
H357 H 0.13493 0.83309 0.81878 0.0
H358 H 0.16375 0.85946 0.80589 0.0
H359 H 0.12678 0.87251 0.81621 0.0
H360 H 0.22719 0.92967 0.73802 0.0
H361 H 0.1434 0.97416 0.75848 0.0
H362 H 0.20462 0.86591 0.70874 0.0
H363 H 0.19894 0.85389 0.75481 0.0
H364 H 0.23128 0.87634 0.74323 0.0
H365 H 0.09692 0.92155 0.73325 0.0
H366 H 0.09891 0.94768 0.77055 0.0
H367 H 0.10043 0.9079 0.77892 0.0
C368 C 0.16378 0.12023 0.76155 0.0
C369 C 0.16007 0.10252 0.7303 0.0
C370 C 0.14322 0.14314 0.76997 0.0
C371 C 0.11838 0.1481 0.74674 0.0
C372 C 0.11461 0.13017 0.71523 0.0
C373 C 0.13554 0.10775 0.70736 0.0
C374 C 0.14807 0.16203 0.80354 0.0
C375 C 0.08831 0.13451 0.68979 0.0
C376 C 0.04399 0.18241 0.77126 0.0
C377 C 0.04474 0.20858 0.75013 0.0
C378 C 0.06917 0.16371 0.77374 0.0
C379 C 0.09571 0.17159 0.75486 0.0
C380 C 0.09767 0.19981 0.73737 0.0
C381 C 0.07206 0.21798 0.73509 0.0
C382 C 0.06614 0.13394 0.79292 0.0
C383 C 0.12574 0.20936 0.71758 0.0
H384 H 0.18281 0.1163 0.77927 0.0
H385 H 0.13252 0.09409 0.68321 0.0
H386 H 0.14978 0.186 0.7958 0.0
H387 H 0.12859 0.1599 0.82216 0.0
H388 H 0.16868 0.15554 0.81857 0.0
H389 H 0.08857 0.11848 0.66665 0.0
H390 H 0.06698 0.13161 0.70495 0.0
H391 H 0.08849 0.15761 0.6786 0.0
H392 H 0.02302 0.17518 0.78334 0.0
H393 H 0.07289 0.2384 0.71911 0.0
H394 H 0.08673 0.12844 0.80844 0.0
H395 H 0.06281 0.11604 0.77233 0.0
H396 H 0.04671 0.13367 0.81187 0.0
H397 H 0.14605 0.20336 0.7334 0.0
H398 H 0.12593 0.23386 0.71222 0.0
H399 H 0.12702 0.19753 0.69103 0.0
C400 C 0.87949 0.17496 0.75193 0.0
C401 C 0.90139 0.1707 0.72497 0.0
C402 C 0.85762 0.15299 0.75869 0.0
C403 C 0.85794 0.12612 0.73823 0.0
C404 C 0.88029 0.1216 0.71134 0.0
C405 C 0.90162 0.14401 0.70492 0.0
C406 C 0.83398 0.15867 0.78732 0.0
C407 C 0.88158 0.09313 0.68912 0.0
C408 C 0.82128 0.05367 0.76815 0.0
C409 C 0.79704 0.05207 0.74393 0.0
C410 C 0.84029 0.07871 0.76843 0.0
C411 C 0.83475 0.10269 0.74406 0.0
C412 C 0.80886 0.10224 0.72179 0.0
C413 C 0.79034 0.07686 0.72192 0.0
C414 C 0.86761 0.07838 0.79267 0.0
C415 C 0.80195 0.12752 0.69575 0.0
H416 H 0.87921 0.19563 0.76743 0.0
H417 H 0.91858 0.14056 0.68416 0.0
H418 H 0.81145 0.15865 0.77452 0.0
H419 H 0.8342 0.14045 0.80788 0.0
H420 H 0.83728 0.18041 0.80148 0.0
H421 H 0.90087 0.09281 0.66997 0.0
H422 H 0.88333 0.07343 0.70745 0.0
H423 H 0.86063 0.09059 0.67315 0.0
H424 H 0.82653 0.03458 0.78528 0.0
H425 H 0.77151 0.07582 0.70331 0.0
H426 H 0.87032 0.10022 0.80669 0.0
H427 H 0.88792 0.07471 0.77576 0.0
H428 H 0.86645 0.06036 0.81352 0.0
H429 H 0.80422 0.14949 0.70958 0.0
H430 H 0.77899 0.12575 0.68424 0.0
H431 H 0.81824 0.12711 0.67289 0.0
C432 C 0.83002 0.87787 0.70422 0.0
C433 C 0.82689 0.90024 0.73073 0.0
C434 C 0.8545 0.85816 0.70482 0.0
C435 C 0.87619 0.86078 0.73278 0.0
C436 C 0.87204 0.882 0.76099 0.0
C437 C 0.84748 0.90163 0.75953 0.0
C438 C 0.85818 0.83593 0.67412 0.0
C439 C 0.89449 0.88522 0.7915 0.0
C440 C 0.93541 0.79945 0.73769 0.0
C441 C 0.95872 0.81245 0.71751 0.0
C442 C 0.9086 0.81523 0.74404 0.0
C443 C 0.90508 0.84442 0.72945 0.0
C444 C 0.92887 0.85781 0.70983 0.0
C445 C 0.9554 0.84173 0.7043 0.0
C446 C 0.88383 0.80048 0.76554 0.0
C447 C 0.926 0.88882 0.69363 0.0
H448 H 0.81407 0.8766 0.682 0.0
H449 H 0.84499 0.91873 0.78029 0.0
H450 H 0.87733 0.84277 0.65668 0.0
H451 H 0.86332 0.81333 0.68502 0.0
H452 H 0.83782 0.83445 0.6568 0.0
H453 H 0.88579 0.89941 0.81403 0.0
H454 H 0.90065 0.86295 0.80265 0.0
H455 H 0.91528 0.89565 0.78081 0.0
H456 H 0.93794 0.77685 0.74806 0.0
H457 H 0.97334 0.85195 0.68872 0.0
H458 H 0.86434 0.79627 0.74751 0.0
H459 H 0.87608 0.81554 0.78769 0.0
H460 H 0.89103 0.77885 0.7777 0.0
H461 H 0.90751 0.88919 0.67343 0.0
H462 H 0.9469 0.89626 0.67987 0.0
H463 H 0.92034 0.90527 0.71521 0.0
C464 C 0.6289 0.66853 0.7948 0.0
C465 C 0.61073 0.67675 0.76529 0.0
C466 C 0.6467 0.64267 0.7934 0.0
C467 C 0.64648 0.62473 0.76159 0.0
C468 C 0.63008 0.63425 0.73064 0.0
C469 C 0.61225 0.66014 0.73291 0.0
C470 C 0.66385 0.63335 0.82703 0.0
C471 C 0.62968 0.61599 0.69604 0.0
C472 C 0.70273 0.56058 0.7605 0.0
C473 C 0.68523 0.53707 0.77428 0.0
C474 C 0.69018 0.5891 0.75453 0.0
C475 C 0.65959 0.59411 0.76295 0.0
C476 C 0.64165 0.57009 0.77554 0.0
C477 C 0.65466 0.54189 0.78087 0.0
C478 C 0.70986 0.61407 0.74055 0.0
C479 C 0.60895 0.57445 0.78495 0.0
H480 H 0.62801 0.68141 0.81982 0.0
H481 H 0.59843 0.66653 0.70989 0.0
H482 H 0.65307 0.61331 0.83925 0.0
H483 H 0.68718 0.62711 0.81988 0.0
H484 H 0.66447 0.65135 0.84791 0.0
H485 H 0.62028 0.62884 0.67276 0.0
H486 H 0.65261 0.60837 0.68886 0.0
H487 H 0.61572 0.59572 0.70021 0.0
H488 H 0.72636 0.55692 0.75523 0.0
H489 H 0.64096 0.52378 0.79138 0.0
H490 H 0.71372 0.6306 0.76261 0.0
H491 H 0.69866 0.62607 0.71783 0.0
H492 H 0.73195 0.6057 0.73094 0.0
H493 H 0.60687 0.59046 0.80795 0.0
H494 H 0.59783 0.55315 0.79285 0.0
H495 H 0.59676 0.58417 0.76142 0.0
C496 C 0.46122 0.66327 0.75507 0.0
C497 C 0.46357 0.69415 0.74879 0.0
C498 C 0.4334 0.64884 0.7541 0.0
C499 C 0.40725 0.6657 0.74652 0.0
C500 C 0.40976 0.69639 0.73719 0.0
C501 C 0.438 0.71035 0.73852 0.0
C502 C 0.43182 0.61602 0.76402 0.0
C503 C 0.38246 0.71495 0.72831 0.0
C504 C 0.33831 0.61677 0.73603 0.0
C505 C 0.32784 0.61595 0.77207 0.0
C506 C 0.36299 0.63469 0.72641 0.0
C507 C 0.37748 0.65192 0.75357 0.0
C508 C 0.36563 0.6527 0.78937 0.0
C509 C 0.34094 0.63474 0.79814 0.0
C510 C 0.37467 0.63366 0.68783 0.0
C511 C 0.38033 0.67083 0.81917 0.0
H512 H 0.48099 0.65056 0.76259 0.0
H513 H 0.43976 0.73421 0.73346 0.0
H514 H 0.4206 0.61348 0.79086 0.0
H515 H 0.41832 0.60356 0.7437 0.0
H516 H 0.45437 0.60554 0.76571 0.0
H517 H 0.38856 0.73648 0.71503 0.0
H518 H 0.36702 0.70245 0.71015 0.0
H519 H 0.37009 0.72005 0.75381 0.0
H520 H 0.32811 0.60243 0.71569 0.0
H521 H 0.33273 0.63445 0.82596 0.0
H522 H 0.39522 0.61967 0.68687 0.0
H523 H 0.38082 0.65641 0.67823 0.0
H524 H 0.35798 0.62393 0.66875 0.0
H525 H 0.4026 0.6611 0.82562 0.0
H526 H 0.36674 0.67125 0.84455 0.0
H527 H 0.384 0.69422 0.81 0.0
C528 C 0.33815 0.46836 0.7653 0.0
C529 C 0.30691 0.47144 0.76432 0.0
C530 C 0.35174 0.44042 0.76022 0.0
C531 C 0.33362 0.41493 0.7539 0.0
C532 C 0.30225 0.41834 0.74973 0.0
C533 C 0.28918 0.44666 0.75512 0.0
C534 C 0.38531 0.43784 0.76469 0.0
C535 C 0.28229 0.39178 0.74224 0.0
C536 C 0.37914 0.34501 0.73386 0.0
C537 C 0.38295 0.33354 0.76914 0.0
C538 C 0.36125 0.37047 0.72778 0.0
C539 C 0.34719 0.38471 0.75775 0.0
C540 C 0.34943 0.37195 0.79297 0.0
C541 C 0.36721 0.34649 0.79818 0.0
C542 C 0.35892 0.38311 0.68975 0.0
C543 C 0.33475 0.38635 0.82571 0.0
H544 H 0.35199 0.48756 0.77189 0.0
H545 H 0.26502 0.44902 0.75401 0.0
H546 H 0.39042 0.42583 0.79044 0.0
H547 H 0.39517 0.42468 0.74204 0.0
H548 H 0.39642 0.4601 0.76557 0.0
H549 H 0.25977 0.39882 0.73257 0.0
H550 H 0.29254 0.37678 0.72159 0.0
H551 H 0.27942 0.37861 0.76765 0.0
H552 H 0.39111 0.3349 0.71127 0.0
H553 H 0.36978 0.33749 0.82545 0.0
H554 H 0.37365 0.40303 0.68735 0.0
H555 H 0.33567 0.39049 0.68386 0.0
H556 H 0.3659 0.36654 0.66881 0.0
H557 H 0.34552 0.40828 0.83129 0.0
H558 H 0.3366 0.37226 0.85058 0.0
H559 H 0.31068 0.39066 0.82027 0.0
C560 C 0.65148 0.38973 0.73888 0.0
C561 C 0.66304 0.39 0.77441 0.0
C562 C 0.62667 0.37175 0.73001 0.0
C563 C 0.61313 0.35398 0.75743 0.0
C564 C 0.62614 0.35261 0.79258 0.0
C565 C 0.65098 0.37057 0.80058 0.0
C566 C 0.61382 0.37331 0.69203 0.0
C567 C 0.61247 0.33394 0.82266 0.0
C568 C 0.52947 0.34336 0.76322 0.0
C569 C 0.52661 0.31255 0.7568 0.0
C570 C 0.55735 0.35754 0.76095 0.0
C571 C 0.58304 0.34053 0.75172 0.0
C572 C 0.57992 0.30994 0.74219 0.0
C573 C 0.55165 0.2962 0.74501 0.0
C574 C 0.55959 0.39024 0.7713 0.0
C575 C 0.60669 0.29127 0.7314 0.0
H576 H 0.66092 0.40453 0.71845 0.0
H577 H 0.66006 0.37041 0.82797 0.0
H578 H 0.60715 0.35072 0.6824 0.0
H579 H 0.59341 0.38751 0.69225 0.0
H580 H 0.63001 0.38309 0.67234 0.0
H581 H 0.6269 0.33311 0.84731 0.0
H582 H 0.59043 0.34354 0.83049 0.0
H583 H 0.60851 0.31071 0.81314 0.0
H584 H 0.51011 0.35621 0.77189 0.0
H585 H 0.54949 0.2724 0.73976 0.0
H586 H 0.5723 0.40285 0.75034 0.0
H587 H 0.57195 0.39238 0.79741 0.0
H588 H 0.53723 0.40085 0.77462 0.0
H589 H 0.62167 0.30396 0.71283 0.0
H590 H 0.59987 0.2701 0.71784 0.0
H591 H 0.61981 0.2855 0.75609 0.0
C592 C 0.70314 0.43619 0.26561 0.0
C593 C 0.68738 0.46263 0.25796 0.0
C594 C 0.68818 0.40851 0.26713 0.0
C595 C 0.65691 0.40746 0.2606 0.0
C596 C 0.64062 0.43445 0.25633 0.0
C597 C 0.65607 0.46171 0.25515 0.0
C598 C 0.70621 0.38027 0.2726 0.0
C599 C 0.60724 0.4344 0.24946 0.0
C600 C 0.62392 0.34452 0.20489 0.0
C601 C 0.60675 0.32915 0.23083 0.0
C602 C 0.64148 0.36916 0.21473 0.0
C603 C 0.64207 0.37863 0.25155 0.0
C604 C 0.62609 0.36223 0.27829 0.0
C605 C 0.60843 0.33768 0.26756 0.0
C606 C 0.65816 0.386 0.18527 0.0
C607 C 0.62657 0.37139 0.31786 0.0
H608 H 0.72734 0.43683 0.26812 0.0
H609 H 0.64372 0.48217 0.24976 0.0
H610 H 0.69412 0.36432 0.29055 0.0
H611 H 0.70963 0.3691 0.2459 0.0
H612 H 0.72856 0.38505 0.2846 0.0
H613 H 0.59741 0.45722 0.25142 0.0
H614 H 0.60278 0.42556 0.22172 0.0
H615 H 0.59561 0.41958 0.26916 0.0
H616 H 0.62292 0.33789 0.1765 0.0
H617 H 0.59533 0.32572 0.28775 0.0
H618 H 0.68214 0.38837 0.19268 0.0
H619 H 0.64872 0.4089 0.18251 0.0
H620 H 0.65674 0.37469 0.15837 0.0
H621 H 0.64972 0.37683 0.32667 0.0
H622 H 0.61746 0.35357 0.33588 0.0
H623 H 0.61279 0.39186 0.32155 0.0
C624 C 0.54631 0.66061 0.22634 0.0
C625 C 0.54204 0.69144 0.23128 0.0
C626 C 0.57433 0.64735 0.23196 0.0
C627 C 0.59877 0.66531 0.24319 0.0
C628 C 0.59427 0.69619 0.25031 0.0
C629 C 0.56589 0.70899 0.24406 0.0
C630 C 0.57808 0.61432 0.22401 0.0
C631 C 0.61966 0.71591 0.26294 0.0
C632 C 0.66364 0.61613 0.27181 0.0
C633 C 0.6789 0.61302 0.23859 0.0
C634 C 0.63896 0.63553 0.27492 0.0
C635 C 0.62924 0.65181 0.24397 0.0
C636 C 0.64624 0.6507 0.2114 0.0
C637 C 0.67095 0.6314 0.20916 0.0
C638 C 0.62186 0.63666 0.31039 0.0
C639 C 0.63671 0.66771 0.17774 0.0
H640 H 0.52792 0.64685 0.21675 0.0
H641 H 0.56265 0.73283 0.24806 0.0
H642 H 0.59371 0.61128 0.20076 0.0
H643 H 0.58795 0.60271 0.24788 0.0
H644 H 0.5565 0.60329 0.21715 0.0
H645 H 0.61148 0.73784 0.27327 0.0
H646 H 0.63274 0.70469 0.28473 0.0
H647 H 0.63515 0.72015 0.23985 0.0
H648 H 0.66991 0.60222 0.2948 0.0
H649 H 0.68287 0.62934 0.18352 0.0
H650 H 0.60129 0.62285 0.30801 0.0
H651 H 0.6148 0.65992 0.31674 0.0
H652 H 0.63539 0.62787 0.33345 0.0
H653 H 0.61616 0.65733 0.16634 0.0
H654 H 0.65433 0.66756 0.15632 0.0
H655 H 0.63126 0.69128 0.18458 0.0
C656 C 0.39504 0.6576 0.26185 0.0
C657 C 0.39686 0.66769 0.22572 0.0
C658 C 0.37665 0.63319 0.27114 0.0
C659 C 0.35995 0.61861 0.24356 0.0
C660 C 0.36036 0.62996 0.20753 0.0
C661 C 0.37876 0.65436 0.19908 0.0
C662 C 0.37645 0.62199 0.30995 0.0
C663 C 0.34283 0.61513 0.17727 0.0
C664 C 0.34631 0.5353 0.24284 0.0
C665 C 0.3152 0.53391 0.24777 0.0
C666 C 0.36153 0.56267 0.24417 0.0
C667 C 0.34521 0.58934 0.25066 0.0
C668 C 0.31418 0.58782 0.25865 0.0
C669 C 0.29945 0.56001 0.25706 0.0
C670 C 0.39467 0.56322 0.23569 0.0
C671 C 0.29615 0.61573 0.26628 0.0
H672 H 0.40885 0.66798 0.28259 0.0
H673 H 0.37983 0.66228 0.17117 0.0
H674 H 0.35329 0.61662 0.31883 0.0
H675 H 0.38979 0.60107 0.31175 0.0
H676 H 0.38619 0.63862 0.32908 0.0
H677 H 0.34355 0.62823 0.15153 0.0
H678 H 0.35221 0.59253 0.17187 0.0
H679 H 0.31908 0.61219 0.18542 0.0
H680 H 0.35865 0.5151 0.23611 0.0
H681 H 0.2754 0.559 0.26108 0.0
H682 H 0.40688 0.57679 0.25616 0.0
H683 H 0.39829 0.57382 0.20867 0.0
H684 H 0.40458 0.54039 0.23508 0.0
H685 H 0.30852 0.63099 0.28478 0.0
H686 H 0.27404 0.6104 0.27863 0.0
H687 H 0.29223 0.62796 0.24038 0.0
C688 C 0.34681 0.38506 0.2626 0.0
C689 C 0.32881 0.38553 0.23128 0.0
C690 C 0.37184 0.36608 0.26486 0.0
C691 C 0.37899 0.34725 0.23506 0.0
C692 C 0.35949 0.34593 0.20466 0.0
C693 C 0.33462 0.36512 0.20313 0.0
C694 C 0.3919 0.36796 0.29789 0.0
C695 C 0.3662 0.32603 0.17239 0.0
C696 C 0.46068 0.33506 0.21187 0.0
C697 C 0.46532 0.30532 0.22275 0.0
C698 C 0.43291 0.34906 0.21669 0.0
C699 C 0.40903 0.33293 0.23281 0.0
C700 C 0.41375 0.30316 0.24496 0.0
C701 C 0.44196 0.28965 0.23978 0.0
C702 C 0.42893 0.38091 0.20353 0.0
C703 C 0.38882 0.28537 0.26239 0.0
H704 H 0.34227 0.40061 0.2846 0.0
H705 H 0.32061 0.36518 0.179 0.0
H706 H 0.39886 0.34528 0.30692 0.0
H707 H 0.41252 0.38055 0.29074 0.0
H708 H 0.38074 0.37957 0.32099 0.0
H709 H 0.34686 0.32443 0.15344 0.0
H710 H 0.38563 0.33522 0.15716 0.0
H711 H 0.37234 0.30316 0.18156 0.0
H712 H 0.47872 0.34737 0.1989 0.0
H713 H 0.44547 0.26664 0.24822 0.0
H714 H 0.42073 0.39529 0.22608 0.0
H715 H 0.41184 0.38161 0.18158 0.0
H716 H 0.45008 0.39065 0.1928 0.0
H717 H 0.37838 0.29837 0.28482 0.0
H718 H 0.39683 0.2636 0.27339 0.0
H719 H 0.37107 0.28091 0.24194 0.0
C720 C 0.0962 0.31593 0.23399 0.0
C721 C 0.07411 0.31555 0.2611 0.0
C722 C 0.11575 0.34031 0.23055 0.0
C723 C 0.11261 0.36515 0.25427 0.0
C724 C 0.0887 0.36596 0.2796 0.0
C725 C 0.06991 0.34091 0.28306 0.0
C726 C 0.14112 0.33846 0.20333 0.0
C727 C 0.08402 0.39248 0.30447 0.0
C728 C 0.18666 0.40291 0.27374 0.0
C729 C 0.18718 0.42511 0.24679 0.0
C730 C 0.16166 0.38423 0.27789 0.0
C731 C 0.1364 0.38838 0.25504 0.0
C732 C 0.1358 0.41252 0.23006 0.0
C733 C 0.16141 0.43042 0.22589 0.0
C734 C 0.16328 0.35859 0.3047 0.0
C735 C 0.10891 0.41827 0.20613 0.0
H736 H 0.09952 0.29635 0.21699 0.0
H737 H 0.05265 0.34075 0.30387 0.0
H738 H 0.14152 0.35875 0.1859 0.0
H739 H 0.16283 0.33745 0.21804 0.0
H740 H 0.13935 0.31843 0.18549 0.0
H741 H 0.06156 0.39206 0.31756 0.0
H742 H 0.10125 0.39227 0.32623 0.0
H743 H 0.08651 0.4138 0.2892 0.0
H744 H 0.20656 0.39875 0.28992 0.0
H745 H 0.16168 0.4478 0.20524 0.0
H746 H 0.16375 0.33703 0.28964 0.0
H747 H 0.14314 0.35837 0.32242 0.0
H748 H 0.18352 0.35982 0.32225 0.0
H749 H 0.1082 0.40134 0.18403 0.0
H750 H 0.10971 0.44086 0.19345 0.0
H751 H 0.08783 0.41618 0.22199 0.0
C752 C 0.67562 0.06937 0.24845 0.0
C753 C 0.68952 0.07353 0.28229 0.0
C754 C 0.6517 0.08782 0.23764 0.0
C755 C 0.64205 0.1112 0.26098 0.0
C756 C 0.65445 0.11382 0.29631 0.0
C757 C 0.67786 0.09477 0.30663 0.0
C758 C 0.63838 0.08379 0.20018 0.0
C759 C 0.6451 0.13862 0.32194 0.0
C760 C 0.62112 0.18525 0.21821 0.0
C761 C 0.59021 0.18665 0.22465 0.0
C762 C 0.63798 0.16046 0.2292 0.0
C763 C 0.62348 0.13608 0.24646 0.0
C764 C 0.59205 0.13683 0.25196 0.0
C765 C 0.57576 0.16239 0.24137 0.0
C766 C 0.67154 0.16086 0.22337 0.0
C767 C 0.57581 0.11092 0.2695 0.0
H768 H 0.68431 0.0527 0.22974 0.0
H769 H 0.68831 0.09788 0.33303 0.0
H770 H 0.61367 0.08662 0.20096 0.0
H771 H 0.64753 0.10112 0.18156 0.0
H772 H 0.64373 0.06141 0.18863 0.0
H773 H 0.65404 0.13524 0.34989 0.0
H774 H 0.65361 0.16034 0.31146 0.0
H775 H 0.62035 0.14029 0.32349 0.0
H776 H 0.63239 0.20399 0.20533 0.0
H777 H 0.55179 0.16335 0.24605 0.0
H778 H 0.67852 0.14114 0.20705 0.0
H779 H 0.68319 0.15944 0.25003 0.0
H780 H 0.67922 0.18144 0.20914 0.0
H781 H 0.58236 0.08954 0.25629 0.0
H782 H 0.55107 0.11344 0.26781 0.0
H783 H 0.58221 0.10929 0.29863 0.0
C784 C 0.83981 0.56643 0.20987 0.0
C785 C 0.81899 0.56668 0.23854 0.0
C786 C 0.86517 0.5849 0.21071 0.0
C787 C 0.86961 0.60411 0.24085 0.0
C788 C 0.85029 0.60218 0.27143 0.0
C789 C 0.82514 0.58338 0.26994 0.0
C790 C 0.88556 0.58588 0.17788 0.0
C791 C 0.8545 0.62206 0.30431 0.0
C792 C 0.9382 0.65361 0.25218 0.0
C793 C 0.9269 0.68124 0.24021 0.0
C794 C 0.92032 0.62772 0.25112 0.0
C795 C 0.89063 0.62973 0.23778 0.0
C796 C 0.87992 0.6572 0.2235 0.0
C797 C 0.8982 0.68261 0.22491 0.0
C798 C 0.93259 0.59875 0.2662 0.0
C799 C 0.84849 0.66024 0.20856 0.0
H800 H 0.83535 0.55318 0.18571 0.0
H801 H 0.80924 0.58342 0.29229 0.0
H802 H 0.88037 0.60612 0.16148 0.0
H803 H 0.90939 0.58738 0.18629 0.0
H804 H 0.88266 0.56588 0.16023 0.0
H805 H 0.84039 0.61483 0.32767 0.0
H806 H 0.8783 0.62217 0.31299 0.0
H807 H 0.84831 0.64541 0.2971 0.0
H808 H 0.96038 0.65252 0.26414 0.0
H809 H 0.88949 0.70391 0.21541 0.0
H810 H 0.92673 0.57963 0.24828 0.0
H811 H 0.92243 0.59438 0.29329 0.0
H812 H 0.95733 0.59953 0.26947 0.0
H813 H 0.84442 0.64309 0.18727 0.0
H814 H 0.84429 0.68272 0.19661 0.0
H815 H 0.83198 0.65641 0.23071 0.0
C816 C 0.32883 0.92388 0.23968 0.0
C817 C 0.31089 0.91694 0.26989 0.0
C818 C 0.35307 0.90541 0.22997 0.0
C819 C 0.35892 0.87918 0.25053 0.0
C820 C 0.3418 0.87302 0.28212 0.0
C821 C 0.31819 0.89214 0.29159 0.0
C822 C 0.37137 0.91308 0.19665 0.0
C823 C 0.34696 0.84506 0.3045 0.0
C824 C 0.38706 0.80972 0.2027 0.0
C825 C 0.41617 0.80701 0.21661 0.0
C826 C 0.36861 0.8337 0.21264 0.0
C827 C 0.37978 0.85595 0.2365 0.0
C828 C 0.40968 0.85417 0.24927 0.0
C829 C 0.42748 0.82941 0.23953 0.0
C830 C 0.33667 0.83441 0.19895 0.0
C831 C 0.42254 0.87791 0.27397 0.0
H832 H 0.32344 0.94324 0.22308 0.0
H833 H 0.30449 0.88675 0.3151 0.0
H834 H 0.39563 0.91001 0.20217 0.0
H835 H 0.36528 0.89779 0.17402 0.0
H836 H 0.36747 0.9365 0.18752 0.0
H837 H 0.33338 0.84485 0.32989 0.0
H838 H 0.34095 0.82505 0.2881 0.0
H839 H 0.37094 0.84294 0.31194 0.0
H840 H 0.3782 0.79244 0.18498 0.0
H841 H 0.45011 0.82748 0.25003 0.0
H842 H 0.33201 0.85599 0.1851 0.0
H843 H 0.32096 0.8326 0.22232 0.0
H844 H 0.33183 0.81589 0.17961 0.0
H845 H 0.41771 0.90057 0.26298 0.0
H846 H 0.44716 0.87544 0.27741 0.0
H847 H 0.41185 0.87644 0.30121 0.0
C848 C 0.16452 0.57498 0.76424 0.0
C849 C 0.18746 0.58981 0.78304 0.0
C850 C 0.13854 0.59042 0.75343 0.0
C851 C 0.1361 0.62149 0.76063 0.0
C852 C 0.15881 0.63622 0.78073 0.0
C853 C 0.18401 0.62009 0.79208 0.0
C854 C 0.11432 0.57379 0.73312 0.0
C855 C 0.1574 0.66946 0.78839 0.0
C856 C 0.09774 0.67429 0.69554 0.0
C857 C 0.07364 0.68456 0.71666 0.0
C858 C 0.1172 0.65224 0.70867 0.0
C859 C 0.11207 0.63967 0.74352 0.0
C860 C 0.08626 0.648 0.76362 0.0
C861 C 0.06743 0.6707 0.75009 0.0
C862 C 0.14464 0.64429 0.68649 0.0
C863 C 0.07955 0.63432 0.80033 0.0
H864 H 0.16701 0.55144 0.75766 0.0
H865 H 0.20172 0.63159 0.80666 0.0
H866 H 0.09184 0.58017 0.7435 0.0
H867 H 0.11516 0.57984 0.70382 0.0
H868 H 0.11698 0.54911 0.73551 0.0
H869 H 0.17625 0.67718 0.80577 0.0
H870 H 0.15811 0.68206 0.76231 0.0
H871 H 0.13603 0.67523 0.80215 0.0
H872 H 0.10251 0.68472 0.66949 0.0
H873 H 0.04862 0.67835 0.76632 0.0
H874 H 0.1468 0.61966 0.68375 0.0
H875 H 0.16501 0.6525 0.70067 0.0
H876 H 0.14406 0.65431 0.65877 0.0
H877 H 0.08357 0.60979 0.79988 0.0
H878 H 0.05604 0.63857 0.80891 0.0
H879 H 0.09469 0.64412 0.8211 0.0
C880 C 0.37578 0.18772 0.78217 0.0
C881 C 0.40378 0.19226 0.76578 0.0
C882 C 0.35774 0.16346 0.77238 0.0
C883 C 0.36824 0.1428 0.74607 0.0
C884 C 0.39708 0.14647 0.73051 0.0
C885 C 0.41444 0.1715 0.74023 0.0
C886 C 0.32689 0.16072 0.78913 0.0
C887 C 0.40923 0.12441 0.70308 0.0
C888 C 0.32002 0.07313 0.74492 0.0
C889 C 0.2996 0.08041 0.71732 0.0
C890 C 0.34431 0.09209 0.75267 0.0
C891 C 0.3476 0.11915 0.7329 0.0
C892 C 0.32794 0.1257 0.70373 0.0
C893 C 0.30436 0.10607 0.69607 0.0
C894 C 0.36536 0.08402 0.78331 0.0
C895 C 0.33032 0.15457 0.6824 0.0
H896 H 0.36744 0.20375 0.80193 0.0
H897 H 0.43623 0.17486 0.72781 0.0
H898 H 0.30958 0.16243 0.76752 0.0
H899 H 0.32426 0.13852 0.80231 0.0
H900 H 0.32246 0.17835 0.80981 0.0
H901 H 0.43334 0.12827 0.69717 0.0
H902 H 0.40633 0.10114 0.71314 0.0
H903 H 0.39652 0.12635 0.67722 0.0
H904 H 0.3166 0.05308 0.76106 0.0
H905 H 0.28869 0.1117 0.67455 0.0
H906 H 0.36033 0.09812 0.80743 0.0
H907 H 0.38895 0.08843 0.77534 0.0
H908 H 0.36318 0.06013 0.79138 0.0
H909 H 0.32449 0.17371 0.70038 0.0
H910 H 0.3151 0.15494 0.65846 0.0
H911 H 0.3536 0.1581 0.67277 0.0
C912 C 0.92463 0.33542 0.74922 0.0
C913 C 0.91549 0.3138 0.72388 0.0
C914 C 0.90524 0.35877 0.75955 0.0
C915 C 0.87598 0.36 0.74467 0.0
C916 C 0.86721 0.33893 0.71793 0.0
C917 C 0.88717 0.31627 0.70765 0.0
C918 C 0.91558 0.38129 0.78749 0.0
C919 C 0.83607 0.33917 0.70173 0.0
C920 C 0.81097 0.38871 0.80065 0.0
C921 C 0.80358 0.41525 0.78232 0.0
C922 C 0.83537 0.37122 0.78961 0.0
C923 C 0.85317 0.38077 0.75987 0.0
C924 C 0.84691 0.40845 0.74257 0.0
C925 C 0.8219 0.42528 0.75378 0.0
C926 C 0.84098 0.34164 0.80848 0.0
C927 C 0.86586 0.41966 0.71134 0.0
H928 H 0.94663 0.33374 0.76156 0.0
H929 H 0.88003 0.29967 0.68793 0.0
H930 H 0.90964 0.40436 0.77881 0.0
H931 H 0.90406 0.377 0.81379 0.0
H932 H 0.94015 0.38009 0.79212 0.0
H933 H 0.83347 0.32242 0.67957 0.0
H934 H 0.81938 0.33416 0.72332 0.0
H935 H 0.8307 0.36165 0.69065 0.0
H936 H 0.79692 0.38089 0.82282 0.0
H937 H 0.81639 0.44595 0.73977 0.0
H938 H 0.86461 0.34017 0.81767 0.0
H939 H 0.83715 0.32299 0.78904 0.0
H940 H 0.82613 0.33831 0.83246 0.0
H941 H 0.89003 0.41759 0.71799 0.0
H942 H 0.86086 0.44339 0.70452 0.0
H943 H 0.86162 0.40578 0.68682 0.0
C944 C 0.65602 0.94267 0.73413 0.0
C945 C 0.68214 0.93531 0.75343 0.0
C946 C 0.63075 0.92395 0.73537 0.0
C947 C 0.63185 0.89735 0.75632 0.0
C948 C 0.65726 0.89123 0.77822 0.0
C949 C 0.68209 0.91034 0.77655 0.0
C950 C 0.60385 0.93152 0.71221 0.0
C951 C 0.65919 0.86325 0.80129 0.0
C952 C 0.56653 0.84668 0.77886 0.0
C953 C 0.57185 0.82268 0.75502 0.0
C954 C 0.58445 0.87247 0.77778 0.0
C955 C 0.6083 0.87407 0.75246 0.0
C956 C 0.6121 0.85099 0.72634 0.0
C957 C 0.59372 0.82557 0.72787 0.0
C958 C 0.57929 0.89688 0.80555 0.0
C959 C 0.63715 0.85199 0.69866 0.0
H960 H 0.65591 0.96203 0.71628 0.0
H961 H 0.70216 0.9047 0.79173 0.0
H962 H 0.60383 0.91713 0.68757 0.0
H963 H 0.58272 0.92713 0.72723 0.0
H964 H 0.6041 0.95531 0.7033 0.0
H965 H 0.67934 0.86313 0.81907 0.0
H966 H 0.63898 0.86105 0.81869 0.0
H967 H 0.66012 0.84326 0.78333 0.0
H968 H 0.54942 0.84467 0.79971 0.0
H969 H 0.59778 0.80715 0.70925 0.0
H970 H 0.58146 0.91934 0.79288 0.0
H971 H 0.59651 0.8952 0.82726 0.0
H972 H 0.55683 0.89506 0.81846 0.0
H973 H 0.63745 0.87393 0.68448 0.0
H974 H 0.6351 0.83396 0.67795 0.0
H975 H 0.65899 0.84938 0.71277 0.0
C976 C 0.04447 0.23409 0.4276 0.0
C977 C 0.02125 0.23688 0.4021 0.0
C978 C 0.03846 0.23452 0.46514 0.0
C979 C 0.00855 0.23794 0.47737 0.0
C980 C 0.98507 0.24109 0.45172 0.0
C981 C 0.9917 0.24045 0.41436 0.0
C982 C 0.06406 0.231 0.49171 0.0
C983 C 0.95291 0.2449 0.46375 0.0
C984 C 0.98786 0.21057 0.572 0.0
C985 C 0.98758 0.23737 0.5919 0.0
C986 C 0.9949 0.21042 0.53475 0.0
C987 C 0.00171 0.23774 0.51699 0.0
C988 C 0.0016 0.26486 0.53698 0.0
C989 C 0.99458 0.26434 0.57426 0.0
C990 C 0.99491 0.18104 0.51434 0.0
C991 C 0.00868 0.29443 0.51892 0.0
H992 H 0.06734 0.23129 0.41823 0.0
H993 H 0.97369 0.24267 0.39474 0.0
H994 H 0.06485 0.25052 0.51039 0.0
H995 H 0.0605 0.21076 0.50873 0.0
H996 H 0.08608 0.22897 0.47777 0.0
H997 H 0.93736 0.24767 0.44036 0.0
H998 H 0.94574 0.22511 0.47983 0.0
H999 H 0.95085 0.26477 0.48174 0.0
H1000 H 0.98252 0.18966 0.58555 0.0
H1001 H 0.99438 0.28512 0.58955 0.0
H1002 H 0.01715 0.17721 0.50162 0.0
H1003 H 0.97816 0.18181 0.49202 0.0
H1004 H 0.98962 0.16171 0.5323 0.0
H1005 H 0.03129 0.29357 0.50636 0.0
H1006 H 0.00794 0.31346 0.5384 0.0
H1007 H 0.9924 0.29882 0.49669 0.0
C1008 C 0.73835 0.97758 0.58351 0.0
C1009 C 0.76518 0.97255 0.60239 0.0
C1010 C 0.73846 0.98321 0.54592 0.0
C1011 C 0.76602 0.98328 0.52679 0.0
C1012 C 0.79302 0.97681 0.54545 0.0
C1013 C 0.79231 0.9718 0.58318 0.0
C1014 C 0.70926 0.99042 0.52704 0.0
C1015 C 0.82276 0.97616 0.5258 0.0
C1016 C 0.76399 0.98026 0.42336 0.0
C1017 C 0.76874 0.01041 0.41439 0.0
C1018 C 0.76326 0.97096 0.45991 0.0
C1019 C 0.76687 0.99245 0.48792 0.0
C1020 C 0.7713 0.02296 0.47893 0.0
C1021 C 0.77243 0.03153 0.44224 0.0
C1022 C 0.75894 0.93817 0.46855 0.0
C1023 C 0.77479 0.04661 0.50807 0.0
H1024 H 0.71734 0.97821 0.59835 0.0
H1025 H 0.81305 0.96766 0.59771 0.0
H1026 H 0.70971 0.01393 0.51721 0.0
H1027 H 0.70624 0.97585 0.50284 0.0
H1028 H 0.68961 0.98759 0.54532 0.0
H1029 H 0.84121 0.96795 0.54351 0.0
H1030 H 0.82136 0.96156 0.50139 0.0
H1031 H 0.82849 0.99902 0.51622 0.0
H1032 H 0.76129 0.96388 0.40182 0.0
H1033 H 0.77597 0.05488 0.43535 0.0
H1034 H 0.73856 0.9351 0.48547 0.0
H1035 H 0.77823 0.92977 0.48467 0.0
H1036 H 0.75674 0.92428 0.44358 0.0
H1037 H 0.75496 0.04648 0.52634 0.0
H1038 H 0.77737 0.06945 0.49646 0.0
H1039 H 0.79471 0.04159 0.5251 0.0
C1040 C 0.03346 0.75637 0.54965 0.0
C1041 C 0.01154 0.75347 0.57676 0.0
C1042 C 0.02582 0.75506 0.51267 0.0
C1043 C 0.99544 0.75126 0.50263 0.0
C1044 C 0.97324 0.74778 0.5299 0.0
C1045 C 0.98162 0.7487 0.56675 0.0
C1046 C 0.05019 0.75839 0.48436 0.0
C1047 C 0.94058 0.74406 0.52016 0.0
C1048 C 0.97614 0.78137 0.40902 0.0
C1049 C 0.9761 0.75516 0.38804 0.0
C1050 C 0.98126 0.78025 0.44668 0.0
C1051 C 0.98695 0.75229 0.46355 0.0
C1052 C 0.98631 0.72568 0.44262 0.0
C1053 C 0.98065 0.72741 0.40507 0.0
C1054 C 0.98133 0.80907 0.46823 0.0
C1055 C 0.99264 0.69552 0.45963 0.0
H1056 H 0.05666 0.75986 0.55734 0.0
H1057 H 0.96462 0.74657 0.58772 0.0
H1058 H 0.04945 0.73937 0.46493 0.0
H1059 H 0.04652 0.7792 0.46843 0.0
H1060 H 0.0729 0.75935 0.4967 0.0
H1061 H 0.9263 0.7403 0.54454 0.0
H1062 H 0.93249 0.76441 0.50582 0.0
H1063 H 0.9377 0.72491 0.50123 0.0
H1064 H 0.97238 0.80283 0.39594 0.0
H1065 H 0.98067 0.70711 0.38886 0.0
H1066 H 0.00416 0.81341 0.47895 0.0
H1067 H 0.96607 0.80718 0.49201 0.0
H1068 H 0.97431 0.82862 0.45153 0.0
H1069 H 0.01602 0.69499 0.46991 0.0
H1070 H 0.98964 0.67682 0.44 0.0
H1071 H 0.97766 0.69174 0.48332 0.0
C1072 C 0.24344 0.9903 0.57943 0.0
C1073 C 0.22041 0.00853 0.59299 0.0
C1074 C 0.24508 0.98331 0.54222 0.0
C1075 C 0.22311 0.99479 0.51815 0.0
C1076 C 0.19955 0.01283 0.5318 0.0
C1077 C 0.1985 0.01952 0.56909 0.0
C1078 C 0.27053 0.964 0.52858 0.0
C1079 C 0.17566 0.02536 0.50694 0.0
C1080 C 0.24197 0.00196 0.41772 0.0
C1081 C 0.22751 0.97682 0.40314 0.0
C1082 C 0.2409 0.00795 0.45521 0.0
C1083 C 0.22498 0.98833 0.47855 0.0
C1084 C 0.21048 0.96283 0.46399 0.0
C1085 C 0.21193 0.95737 0.4264 0.0
C1086 C 0.25664 0.03537 0.46983 0.0
C1087 C 0.19328 0.94144 0.48807 0.0
H1088 H 0.26043 0.98178 0.59784 0.0
H1089 H 0.18063 0.03359 0.57949 0.0
H1090 H 0.26153 0.94404 0.5143 0.0
H1091 H 0.28414 0.97671 0.50853 0.0
H1092 H 0.28543 0.95635 0.55097 0.0
H1093 H 0.15849 0.03846 0.52202 0.0
H1094 H 0.18607 0.04011 0.48614 0.0
H1095 H 0.1643 0.00689 0.49218 0.0
H1096 H 0.25405 0.01704 0.39981 0.0
H1097 H 0.20073 0.9379 0.41521 0.0
H1098 H 0.27322 0.02874 0.49086 0.0
H1099 H 0.24017 0.05045 0.48314 0.0
H1100 H 0.26843 0.04811 0.44811 0.0
H1101 H 0.2082 0.93234 0.50958 0.0
H1102 H 0.18361 0.92242 0.47251 0.0
H1103 H 0.17479 0.95351 0.50199 0.0
C1104 C 0.54534 0.7309 0.91962 0.0
C1105 C 0.5237 0.74059 0.89456 0.0
C1106 C 0.53922 0.73056 0.95711 0.0
C1107 C 0.51088 0.74034 0.96973 0.0
C1108 C 0.48919 0.75078 0.94461 0.0
C1109 C 0.49583 0.75067 0.90726 0.0
C1110 C 0.56282 0.71911 0.98312 0.0
C1111 C 0.45878 0.76155 0.95712 0.0
C1112 C 0.48202 0.71054 0.05983 0.0
C1113 C 0.48783 0.73458 0.08334 0.0
C1114 C 0.48973 0.71204 0.02286 0.0
C1115 C 0.50335 0.73833 0.00906 0.0
C1116 C 0.50938 0.76266 0.03268 0.0
C1117 C 0.50164 0.76044 0.06967 0.0
C1118 C 0.48317 0.68555 0.99855 0.0
C1119 C 0.5237 0.79109 0.01878 0.0
H1120 H 0.56693 0.72311 0.90988 0.0
H1121 H 0.4791 0.75831 0.88796 0.0
H1122 H 0.56756 0.73616 0.00432 0.0
H1123 H 0.55445 0.69881 0.99729 0.0
H1124 H 0.58412 0.7134 0.96903 0.0
H1125 H 0.44502 0.77037 0.93428 0.0
H1126 H 0.44643 0.74285 0.97021 0.0
H1127 H 0.46136 0.77944 0.97786 0.0
H1128 H 0.47144 0.69046 0.07034 0.0
H1129 H 0.50611 0.77908 0.08779 0.0
H1130 H 0.50412 0.67768 0.98534 0.0
H1131 H 0.46755 0.6923 0.97651 0.0
H1132 H 0.47307 0.66653 0.01375 0.0
H1133 H 0.5457 0.78597 0.00612 0.0
H1134 H 0.52714 0.80784 0.04077 0.0
H1135 H 0.50941 0.80126 0.99735 0.0
C1136 C 0.24297 0.50511 0.92959 0.0
C1137 C 0.26698 0.52202 0.91604 0.0
C1138 C 0.24223 0.49599 0.9662 0.0
C1139 C 0.26613 0.5039 0.98964 0.0
C1140 C 0.29052 0.5208 0.97601 0.0
C1141 C 0.29061 0.52972 0.93938 0.0
C1142 C 0.21582 0.47806 0.97984 0.0
C1143 C 0.31647 0.52956 0.00017 0.0
C1144 C 0.25346 0.50593 0.09186 0.0
C1145 C 0.26653 0.47885 0.10292 0.0
C1146 C 0.25277 0.51414 0.05497 0.0
C1147 C 0.26556 0.49484 0.0286 0.0
C1148 C 0.27852 0.46732 0.03957 0.0
C1149 C 0.2788 0.45962 0.07665 0.0
C1150 C 0.23866 0.54362 0.04427 0.0
C1151 C 0.29246 0.44624 0.0122 0.0
H1152 H 0.22465 0.49912 0.91163 0.0
H1153 H 0.30926 0.54273 0.92899 0.0
H1154 H 0.22362 0.45635 0.99113 0.0
H1155 H 0.20448 0.49031 0.00227 0.0
H1156 H 0.19916 0.47354 0.95803 0.0
H1157 H 0.33392 0.54236 0.98519 0.0
H1158 H 0.3083 0.54345 0.0232 0.0
H1159 H 0.32696 0.50923 0.01203 0.0
H1160 H 0.24388 0.52083 0.11207 0.0
H1161 H 0.28892 0.43865 0.08509 0.0
H1162 H 0.22074 0.53983 0.02384 0.0
H1163 H 0.25571 0.55828 0.03137 0.0
H1164 H 0.22887 0.55563 0.06798 0.0
H1165 H 0.2758 0.44013 0.99105 0.0
H1166 H 0.30096 0.42537 0.02508 0.0
H1167 H 0.31137 0.45752 0.99814 0.0
C1168 C 0.54083 0.27052 0.05779 0.0
C1169 C 0.52717 0.25198 0.08375 0.0
C1170 C 0.53219 0.26953 0.02113 0.0
C1171 C 0.50938 0.24943 0.01023 0.0
C1172 C 0.49636 0.22977 0.03603 0.0
C1173 C 0.50539 0.23131 0.07261 0.0
C1174 C 0.54657 0.29088 0.99439 0.0
C1175 C 0.47208 0.20795 0.02529 0.0
C1176 C 0.46419 0.27388 0.92823 0.0
C1177 C 0.47741 0.25714 0.9002 0.0
C1178 C 0.47396 0.271 0.96431 0.0
C1179 C 0.49755 0.25089 0.97251 0.0
C1180 C 0.5106 0.23345 0.94446 0.0
C1181 C 0.50035 0.23679 0.90852 0.0
C1182 C 0.45947 0.28997 0.99352 0.0
C1183 C 0.53577 0.21177 0.9523 0.0
H1184 H 0.55777 0.28646 0.06627 0.0
H1185 H 0.49487 0.21685 0.09261 0.0
H1186 H 0.55507 0.27848 0.97031 0.0
H1187 H 0.52961 0.30714 0.98447 0.0
H1188 H 0.56544 0.30356 0.0067 0.0
H1189 H 0.46626 0.19235 0.0478 0.0
H1190 H 0.4516 0.22047 0.01738 0.0
H1191 H 0.47921 0.19465 0.00127 0.0
H1192 H 0.44636 0.28956 0.92194 0.0
H1193 H 0.51056 0.22376 0.88689 0.0
H1194 H 0.47635 0.30527 0.00558 0.0
H1195 H 0.45089 0.27553 0.01581 0.0
H1196 H 0.44061 0.30365 0.98281 0.0
H1197 H 0.55568 0.22422 0.96222 0.0
H1198 H 0.54234 0.19866 0.92783 0.0
H1199 H 0.52908 0.19599 0.9742 0.0
C1200 C 0.7036 0.46697 0.94309 0.0
C1201 C 0.72565 0.47817 0.9195 0.0
C1202 C 0.70395 0.47392 0.98033 0.0
C1203 C 0.72693 0.49247 0.99428 0.0
C1204 C 0.74931 0.5038 0.97062 0.0
C1205 C 0.74838 0.49653 0.93343 0.0
C1206 C 0.67967 0.46147 0.00472 0.0
C1207 C 0.77419 0.52361 0.98461 0.0
C1208 C 0.71256 0.53277 0.0836 0.0
C1209 C 0.72781 0.51442 0.10844 0.0
C1210 C 0.71213 0.52591 0.04631 0.0
C1211 C 0.72741 0.50013 0.03364 0.0
C1212 C 0.74282 0.4815 0.05861 0.0
C1213 C 0.74279 0.48885 0.09578 0.0
C1214 C 0.69533 0.54622 0.02049 0.0
C1215 C 0.75939 0.45385 0.04605 0.0
H1216 H 0.68597 0.45276 0.93243 0.0
H1217 H 0.76548 0.50521 0.91527 0.0
H1218 H 0.68982 0.44781 0.02677 0.0
H1219 H 0.66726 0.48009 0.01792 0.0
H1220 H 0.66344 0.44732 0.98958 0.0
H1221 H 0.78998 0.5304 0.96269 0.0
H1222 H 0.76459 0.5441 0.99714 0.0
H1223 H 0.78697 0.51174 0.00615 0.0
H1224 H 0.70095 0.55258 0.09329 0.0
H1225 H 0.75467 0.47463 0.1149 0.0
H1226 H 0.67767 0.53334 0.0061 0.0
H1227 H 0.71083 0.55508 -0.00056 0.0
H1228 H 0.68464 0.56541 0.03473 0.0
H1229 H 0.74362 0.43823 0.03247 0.0
H1230 H 0.77046 0.44186 0.06892 0.0
H1231 H 0.77669 0.46007 0.02569 0.0
loop_
_geom_bond_atom_site_label_1
_geom_bond_atom_site_label_2
_geom_bond_distance
_geom_bond_site_symmetry_2
_ccdc_geom_bond_type
In0 O1 2.294 . S
In0 O2 2.326 . S
In0 O6 2.266 . S
In0 O7 2.326 . S
In0 O8 2.266 1_455 S
In0 O9 2.326 . S
In0 O11 2.294 . S
In0 O12 2.326 . S
O1 In0 2.294 . S
O1 C10 1.240 . S
O2 In0 2.326 . S
O2 C10 1.252 . S
C3 O6 1.252 . S
C3 O7 1.260 . S
C4 O11 1.240 . S
C4 O12 1.252 . S
C5 O8 1.252 . S
C5 O9 1.260 1_655 S
O6 In0 2.266 . S
O6 C3 1.252 . S
O7 In0 2.326 . S
O7 C3 1.260 . S
O8 In0 2.266 1_655 S
O8 C5 1.252 . S
O9 In0 2.326 . S
O9 C5 1.260 1_455 S
C10 O1 1.240 . S
C10 O2 1.252 . S
O11 In0 2.294 . S
O11 C4 1.240 . S
O12 In0 2.326 . S
O12 C4 1.252 . S
In13 O14 2.294 . S
In13 O15 2.326 . S
In13 O19 2.266 . S
In13 O20 2.326 . S
In13 O21 2.266 1_545 S
In13 O22 2.326 . S
In13 O24 2.294 . S
In13 O25 2.326 . S
O14 In13 2.294 . S
O14 C23 1.240 . S
O15 In13 2.326 . S
O15 C23 1.252 . S
C16 O19 1.252 . S
C16 O20 1.260 . S
C17 O24 1.240 . S
C17 O25 1.252 . S
C18 O21 1.252 . S
C18 O22 1.260 1_565 S
O19 In13 2.266 . S
O19 C16 1.252 . S
O20 In13 2.326 . S
O20 C16 1.260 . S
O21 In13 2.266 1_565 S
O21 C18 1.252 . S
O22 In13 2.326 . S
O22 C18 1.260 1_545 S
C23 O14 1.240 . S
C23 O15 1.252 . S
O24 In13 2.294 . S
O24 C17 1.240 . S
O25 In13 2.326 . S
O25 C17 1.252 . S
In26 O27 2.294 . S
In26 O28 2.326 . S
In26 O32 2.266 1_655 S
In26 O33 2.326 . S
In26 O34 2.266 . S
In26 O35 2.326 . S
In26 O37 2.294 . S
In26 O38 2.326 . S
O27 In26 2.294 . S
O27 C36 1.240 . S
O28 In26 2.326 . S
O28 C36 1.252 . S
C29 O32 1.252 . S
C29 O33 1.260 1_455 S
C30 O37 1.240 . S
C30 O38 1.252 . S
C31 O34 1.252 . S
C31 O35 1.260 . S
O32 In26 2.266 1_455 S
O32 C29 1.252 . S
O33 In26 2.326 . S
O33 C29 1.260 1_655 S
O34 In26 2.266 . S
O34 C31 1.252 . S
O35 In26 2.326 . S
O35 C31 1.260 . S
C36 O27 1.240 . S
C36 O28 1.252 . S
O37 In26 2.294 . S
O37 C30 1.240 . S
O38 In26 2.326 . S
O38 C30 1.252 . S
In39 O40 2.294 . S
In39 O41 2.326 . S
In39 O45 2.266 1_565 S
In39 O46 2.326 . S
In39 O47 2.266 . S
In39 O48 2.326 . S
In39 O50 2.294 . S
In39 O51 2.326 . S
O40 In39 2.294 . S
O40 C49 1.240 . S
O41 In39 2.326 . S
O41 C49 1.252 . S
C42 O45 1.252 . S
C42 O46 1.260 1_545 S
C43 O50 1.240 . S
C43 O51 1.252 . S
C44 O47 1.252 . S
C44 O48 1.260 . S
O45 In39 2.266 1_545 S
O45 C42 1.252 . S
O46 In39 2.326 . S
O46 C42 1.260 1_565 S
O47 In39 2.266 . S
O47 C44 1.252 . S
O48 In39 2.326 . S
O48 C44 1.260 . S
C49 O40 1.240 . S
C49 O41 1.252 . S
O50 In39 2.294 . S
O50 C43 1.240 . S
O51 In39 2.326 . S
O51 C43 1.252 . S
In52 O53 2.294 . S
In52 O54 2.326 . S
In52 O58 2.266 . S
In52 O59 2.326 . S
In52 O60 2.266 1_455 S
In52 O61 2.326 . S
In52 O63 2.294 . S
In52 O64 2.326 . S
O53 In52 2.294 . S
O53 C62 1.240 . S
O54 In52 2.326 . S
O54 C62 1.252 . S
C55 O58 1.252 . S
C55 O59 1.260 . S
C56 O63 1.240 . S
C56 O64 1.252 . S
C57 O60 1.252 . S
C57 O61 1.260 1_655 S
O58 In52 2.266 . S
O58 C55 1.252 . S
O59 In52 2.326 . S
O59 C55 1.260 . S
O60 In52 2.266 1_655 S
O60 C57 1.252 . S
O61 In52 2.326 . S
O61 C57 1.260 1_455 S
C62 O53 1.240 . S
C62 O54 1.252 . S
O63 In52 2.294 . S
O63 C56 1.240 . S
O64 In52 2.326 . S
O64 C56 1.252 . S
In65 O66 2.294 . S
In65 O67 2.326 . S
In65 O71 2.266 . S
In65 O72 2.326 . S
In65 O73 2.266 1_545 S
In65 O74 2.326 . S
In65 O76 2.294 . S
In65 O77 2.326 . S
O66 In65 2.294 . S
O66 C75 1.240 . S
O67 In65 2.326 . S
O67 C75 1.252 . S
C68 O71 1.252 . S
C68 O72 1.260 . S
C69 O76 1.240 . S
C69 O77 1.252 . S
C70 O73 1.252 . S
C70 O74 1.260 1_565 S
O71 In65 2.266 . S
O71 C68 1.252 . S
O72 In65 2.326 . S
O72 C68 1.260 . S
O73 In65 2.266 1_565 S
O73 C70 1.252 . S
O74 In65 2.326 . S
O74 C70 1.260 1_545 S
C75 O66 1.240 . S
C75 O67 1.252 . S
O76 In65 2.294 . S
O76 C69 1.240 . S
O77 In65 2.326 . S
O77 C69 1.252 . S
In78 O79 2.294 . S
In78 O80 2.326 . S
In78 O84 2.266 1_655 S
In78 O85 2.326 . S
In78 O86 2.266 . S
In78 O87 2.326 . S
In78 O89 2.294 . S
In78 O90 2.326 . S
O79 In78 2.294 . S
O79 C88 1.240 . S
O80 In78 2.326 . S
O80 C88 1.252 . S
C81 O84 1.252 . S
C81 O85 1.260 1_455 S
C82 O89 1.240 . S
C82 O90 1.252 . S
C83 O86 1.252 . S
C83 O87 1.260 . S
O84 In78 2.266 1_455 S
O84 C81 1.252 . S
O85 In78 2.326 . S
O85 C81 1.260 1_655 S
O86 In78 2.266 . S
O86 C83 1.252 . S
O87 In78 2.326 . S
O87 C83 1.260 . S
C88 O79 1.240 . S
C88 O80 1.252 . S
O89 In78 2.294 . S
O89 C82 1.240 . S
O90 In78 2.326 . S
O90 C82 1.252 . S
In91 O92 2.294 . S
In91 O93 2.326 . S
In91 O97 2.266 . S
In91 O98 2.326 . S
In91 O99 2.266 1_565 S
In91 O100 2.326 . S
In91 O102 2.294 . S
In91 O103 2.326 . S
O92 In91 2.294 . S
O92 C101 1.240 . S
O93 In91 2.326 . S
O93 C101 1.252 . S
C94 O97 1.252 . S
C94 O98 1.260 . S
C95 O102 1.240 . S
C95 O103 1.252 . S
C96 O99 1.252 . S
C96 O100 1.260 1_545 S
O97 In91 2.266 . S
O97 C94 1.252 . S
O98 In91 2.326 . S
O98 C94 1.260 . S
O99 In91 2.266 1_545 S
O99 C96 1.252 . S
O100 In91 2.326 . S
O100 C96 1.260 1_565 S
C101 O92 1.240 . S
C101 O93 1.252 . S
O102 In91 2.294 . S
O102 C95 1.240 . S
O103 In91 2.326 . S
O103 C95 1.252 . S
In104 O105 2.294 . S
In104 O106 2.326 . S
In104 O110 2.266 . S
In104 O111 2.326 . S
In104 O112 2.266 . S
In104 O113 2.326 . S
In104 O115 2.294 . S
In104 O116 2.326 . S
O105 In104 2.294 . S
O105 C114 1.240 . S
O106 In104 2.326 . S
O106 C114 1.252 . S
C107 O110 1.252 . S
C107 O111 1.260 . S
C108 O115 1.240 . S
C108 O116 1.252 . S
C109 O112 1.252 . S
C109 O113 1.260 . S
O110 In104 2.266 . S
O110 C107 1.252 . S
O111 In104 2.326 . S
O111 C107 1.260 . S
O112 In104 2.266 . S
O112 C109 1.252 . S
O113 In104 2.326 . S
O113 C109 1.260 . S
C114 O105 1.240 . S
C114 O106 1.252 . S
O115 In104 2.294 . S
O115 C108 1.240 . S
O116 In104 2.326 . S
O116 C108 1.252 . S
In117 O118 2.294 . S
In117 O119 2.326 . S
In117 O123 2.266 . S
In117 O124 2.326 . S
In117 O125 2.266 . S
In117 O126 2.326 . S
In117 O128 2.294 . S
In117 O129 2.326 . S
O118 In117 2.294 . S
O118 C127 1.240 . S
O119 In117 2.326 . S
O119 C127 1.252 . S
C120 O123 1.252 . S
C120 O124 1.260 . S
C121 O128 1.240 . S
C121 O129 1.252 . S
C122 O125 1.252 . S
C122 O126 1.260 . S
O123 In117 2.266 . S
O123 C120 1.252 . S
O124 In117 2.326 . S
O124 C120 1.260 . S
O125 In117 2.266 . S
O125 C122 1.252 . S
O126 In117 2.326 . S
O126 C122 1.260 . S
C127 O118 1.240 . S
C127 O119 1.252 . S
O128 In117 2.294 . S
O128 C121 1.240 . S
O129 In117 2.326 . S
O129 C121 1.252 . S
In130 O131 2.294 . S
In130 O132 2.326 . S
In130 O136 2.266 . S
In130 O137 2.326 . S
In130 O138 2.266 . S
In130 O139 2.326 . S
In130 O141 2.294 . S
In130 O142 2.326 . S
O131 In130 2.294 . S
O131 C140 1.240 . S
O132 In130 2.326 . S
O132 C140 1.252 . S
C133 O136 1.252 . S
C133 O137 1.260 . S
C134 O141 1.240 . S
C134 O142 1.252 . S
C135 O138 1.252 . S
C135 O139 1.260 . S
O136 In130 2.266 . S
O136 C133 1.252 . S
O137 In130 2.326 . S
O137 C133 1.260 . S
O138 In130 2.266 . S
O138 C135 1.252 . S
O139 In130 2.326 . S
O139 C135 1.260 . S
C140 O131 1.240 . S
C140 O132 1.252 . S
O141 In130 2.294 . S
O141 C134 1.240 . S
O142 In130 2.326 . S
O142 C134 1.252 . S
In143 O144 2.294 . S
In143 O145 2.326 . S
In143 O149 2.266 . S
In143 O150 2.326 . S
In143 O151 2.266 . S
In143 O152 2.326 . S
In143 O154 2.294 . S
In143 O155 2.326 . S
O144 In143 2.294 . S
O144 C153 1.240 . S
O145 In143 2.326 . S
O145 C153 1.252 . S
C146 O149 1.252 . S
C146 O150 1.260 . S
C147 O154 1.240 . S
C147 O155 1.252 . S
C148 O151 1.252 . S
C148 O152 1.260 . S
O149 In143 2.266 . S
O149 C146 1.252 . S
O150 In143 2.326 . S
O150 C146 1.260 . S
O151 In143 2.266 . S
O151 C148 1.252 . S
O152 In143 2.326 . S
O152 C148 1.260 . S
C153 O144 1.240 . S
C153 O145 1.252 . S
O154 In143 2.294 . S
O154 C147 1.240 . S
O155 In143 2.326 . S
O155 C147 1.252 . S
In156 O157 2.294 . S
In156 O158 2.326 . S
In156 O162 2.266 . S
In156 O163 2.326 . S
In156 O164 2.266 . S
In156 O165 2.326 . S
In156 O167 2.294 . S
In156 O168 2.326 . S
O157 In156 2.294 . S
O157 C166 1.240 . S
O158 In156 2.326 . S
O158 C166 1.252 . S
C159 O162 1.252 . S
C159 O163 1.260 . S
C160 O167 1.240 . S
C160 O168 1.252 . S
C161 O164 1.252 . S
C161 O165 1.260 . S
O162 In156 2.266 . S
O162 C159 1.252 . S
O163 In156 2.326 . S
O163 C159 1.260 . S
O164 In156 2.266 . S
O164 C161 1.252 . S
O165 In156 2.326 . S
O165 C161 1.260 . S
C166 O157 1.240 . S
C166 O158 1.252 . S
O167 In156 2.294 . S
O167 C160 1.240 . S
O168 In156 2.326 . S
O168 C160 1.252 . S
In169 O170 2.294 . S
In169 O171 2.326 . S
In169 O175 2.266 . S
In169 O176 2.326 . S
In169 O177 2.266 . S
In169 O178 2.326 . S
In169 O180 2.294 . S
In169 O181 2.326 . S
O170 In169 2.294 . S
O170 C179 1.240 . S
O171 In169 2.326 . S
O171 C179 1.252 . S
C172 O175 1.252 . S
C172 O176 1.260 . S
C173 O180 1.240 . S
C173 O181 1.252 . S
C174 O177 1.252 . S
C174 O178 1.260 . S
O175 In169 2.266 . S
O175 C172 1.252 . S
O176 In169 2.326 . S
O176 C172 1.260 . S
O177 In169 2.266 . S
O177 C174 1.252 . S
O178 In169 2.326 . S
O178 C174 1.260 . S
C179 O170 1.240 . S
C179 O171 1.252 . S
O180 In169 2.294 . S
O180 C173 1.240 . S
O181 In169 2.326 . S
O181 C173 1.252 . S
In182 O183 2.294 . S
In182 O184 2.326 . S
In182 O188 2.266 . S
In182 O189 2.326 . S
In182 O190 2.266 . S
In182 O191 2.326 . S
In182 O193 2.294 . S
In182 O194 2.326 . S
O183 In182 2.294 . S
O183 C192 1.240 . S
O184 In182 2.326 . S
O184 C192 1.252 . S
C185 O188 1.252 . S
C185 O189 1.260 . S
C186 O193 1.240 . S
C186 O194 1.252 . S
C187 O190 1.252 . S
C187 O191 1.260 . S
O188 In182 2.266 . S
O188 C185 1.252 . S
O189 In182 2.326 . S
O189 C185 1.260 . S
O190 In182 2.266 . S
O190 C187 1.252 . S
O191 In182 2.326 . S
O191 C187 1.260 . S
C192 O183 1.240 . S
C192 O184 1.252 . S
O193 In182 2.294 . S
O193 C186 1.240 . S
O194 In182 2.326 . S
O194 C186 1.252 . S
In195 O196 2.294 . S
In195 O197 2.326 . S
In195 O201 2.266 . S
In195 O202 2.326 . S
In195 O203 2.266 . S
In195 O204 2.326 . S
In195 O206 2.294 . S
In195 O207 2.326 . S
O196 In195 2.294 . S
O196 C205 1.240 . S
O197 In195 2.326 . S
O197 C205 1.252 . S
C198 O201 1.252 . S
C198 O202 1.260 . S
C199 O206 1.240 . S
C199 O207 1.252 . S
C200 O203 1.252 . S
C200 O204 1.260 . S
O201 In195 2.266 . S
O201 C198 1.252 . S
O202 In195 2.326 . S
O202 C198 1.260 . S
O203 In195 2.266 . S
O203 C200 1.252 . S
O204 In195 2.326 . S
O204 C200 1.260 . S
C205 O196 1.240 . S
C205 O197 1.252 . S
O206 In195 2.294 . S
O206 C199 1.240 . S
O207 In195 2.326 . S
O207 C199 1.252 . S
C208 C209 1.391 . S
C208 C210 1.394 . S
C208 H224 0.931 . S
C209 C208 1.391 . S
C209 C213 1.376 . S
C210 C208 1.394 . S
C210 C211 1.369 . S
C210 C214 1.531 . S
C211 C210 1.369 . S
C211 C212 1.410 . S
C211 C219 1.503 . S
C212 C211 1.410 . S
C212 C213 1.392 . S
C212 C215 1.511 . S
C213 C209 1.376 . S
C213 C212 1.392 . S
C213 H225 0.929 . S
C214 C210 1.531 . S
C214 H226 0.960 . S
C214 H227 0.962 . S
C214 H228 0.960 . S
C215 C212 1.511 . S
C215 H229 0.961 . S
C215 H230 0.961 . S
C215 H231 0.961 . S
C216 C217 1.370 . S
C216 C218 1.363 . S
C216 H232 0.931 . S
C217 C216 1.370 . S
C217 C221 1.408 . S
C218 C216 1.363 . S
C218 C219 1.370 . S
C218 C222 1.524 . S
C219 C211 1.503 . S
C219 C218 1.370 . S
C219 C220 1.403 . S
C220 C219 1.403 . S
C220 C221 1.404 . S
C220 C223 1.539 . S
C221 C217 1.408 . S
C221 C220 1.404 . S
C221 H233 0.930 . S
C222 C218 1.524 . S
C222 H234 0.956 . S
C222 H235 0.961 . S
C222 H236 0.961 . S
C223 C220 1.539 . S
C223 H237 0.958 . S
C223 H238 0.961 . S
C223 H239 0.960 . S
H224 C208 0.931 . S
H225 C213 0.929 . S
H226 C214 0.960 . S
H227 C214 0.962 . S
H228 C214 0.960 . S
H229 C215 0.961 . S
H230 C215 0.961 . S
H231 C215 0.961 . S
H232 C216 0.931 . S
H233 C221 0.930 . S
H234 C222 0.956 . S
H235 C222 0.961 . S
H236 C222 0.961 . S
H237 C223 0.958 . S
H238 C223 0.961 . S
H239 C223 0.960 . S
C240 C241 1.391 . S
C240 C242 1.394 . S
C240 H256 0.931 . S
C241 C240 1.391 . S
C241 C245 1.376 . S
C242 C240 1.394 . S
C242 C243 1.369 . S
C242 C246 1.531 . S
C243 C242 1.369 . S
C243 C244 1.410 . S
C243 C251 1.503 . S
C244 C243 1.410 . S
C244 C245 1.392 . S
C244 C247 1.511 . S
C245 C241 1.376 . S
C245 C244 1.392 . S
C245 H257 0.929 . S
C246 C242 1.531 . S
C246 H258 0.960 . S
C246 H259 0.962 . S
C246 H260 0.960 . S
C247 C244 1.511 . S
C247 H261 0.961 . S
C247 H262 0.961 . S
C247 H263 0.961 . S
C248 C249 1.370 . S
C248 C250 1.363 . S
C248 H264 0.931 . S
C249 C248 1.370 . S
C249 C253 1.408 . S
C250 C248 1.363 . S
C250 C251 1.370 . S
C250 C254 1.524 . S
C251 C243 1.503 . S
C251 C250 1.370 . S
C251 C252 1.403 . S
C252 C251 1.403 . S
C252 C253 1.404 . S
C252 C255 1.539 . S
C253 C249 1.408 . S
C253 C252 1.404 . S
C253 H265 0.930 . S
C254 C250 1.524 . S
C254 H266 0.956 . S
C254 H267 0.961 . S
C254 H268 0.961 . S
C255 C252 1.539 . S
C255 H269 0.958 . S
C255 H270 0.961 . S
C255 H271 0.960 . S
H256 C240 0.931 . S
H257 C245 0.929 . S
H258 C246 0.960 . S
H259 C246 0.962 . S
H260 C246 0.960 . S
H261 C247 0.961 . S
H262 C247 0.961 . S
H263 C247 0.961 . S
H264 C248 0.931 . S
H265 C253 0.930 . S
H266 C254 0.956 . S
H267 C254 0.961 . S
H268 C254 0.961 . S
H269 C255 0.958 . S
H270 C255 0.961 . S
H271 C255 0.960 . S
C272 C273 1.391 . S
C272 C274 1.394 . S
C272 H288 0.931 . S
C273 C272 1.391 . S
C273 C277 1.376 . S
C274 C272 1.394 . S
C274 C275 1.369 . S
C274 C278 1.531 . S
C275 C274 1.369 . S
C275 C276 1.410 . S
C275 C283 1.503 . S
C276 C275 1.410 . S
C276 C277 1.392 . S
C276 C279 1.511 . S
C277 C273 1.376 . S
C277 C276 1.392 . S
C277 H289 0.929 . S
C278 C274 1.531 . S
C278 H290 0.960 . S
C278 H291 0.962 . S
C278 H292 0.960 . S
C279 C276 1.511 . S
C279 H293 0.961 . S
C279 H294 0.961 . S
C279 H295 0.961 . S
C280 C281 1.370 . S
C280 C282 1.363 . S
C280 H296 0.931 . S
C281 C280 1.370 . S
C281 C285 1.408 . S
C282 C280 1.363 . S
C282 C283 1.370 . S
C282 C286 1.524 . S
C283 C275 1.503 . S
C283 C282 1.370 . S
C283 C284 1.403 . S
C284 C283 1.403 . S
C284 C285 1.404 . S
C284 C287 1.539 . S
C285 C281 1.408 . S
C285 C284 1.404 . S
C285 H297 0.930 . S
C286 C282 1.524 . S
C286 H298 0.956 . S
C286 H299 0.961 . S
C286 H300 0.961 . S
C287 C284 1.539 . S
C287 H301 0.958 . S
C287 H302 0.961 . S
C287 H303 0.960 . S
H288 C272 0.931 . S
H289 C277 0.929 . S
H290 C278 0.960 . S
H291 C278 0.962 . S
H292 C278 0.960 . S
H293 C279 0.961 . S
H294 C279 0.961 . S
H295 C279 0.961 . S
H296 C280 0.931 . S
H297 C285 0.930 . S
H298 C286 0.956 . S
H299 C286 0.961 . S
H300 C286 0.961 . S
H301 C287 0.958 . S
H302 C287 0.961 . S
H303 C287 0.960 . S
C304 C305 1.391 . S
C304 C306 1.394 . S
C304 H320 0.931 . S
C305 C304 1.391 . S
C305 C309 1.376 . S
C306 C304 1.394 . S
C306 C307 1.369 . S
C306 C310 1.531 . S
C307 C306 1.369 . S
C307 C308 1.410 . S
C307 C315 1.503 . S
C308 C307 1.410 . S
C308 C309 1.392 . S
C308 C311 1.511 . S
C309 C305 1.376 . S
C309 C308 1.392 . S
C309 H321 0.929 . S
C310 C306 1.531 . S
C310 H322 0.960 . S
C310 H323 0.962 . S
C310 H324 0.960 . S
C311 C308 1.511 . S
C311 H325 0.961 . S
C311 H326 0.961 . S
C311 H327 0.961 . S
C312 C313 1.370 . S
C312 C314 1.363 . S
C312 H328 0.931 . S
C313 C312 1.370 . S
C313 C317 1.408 . S
C314 C312 1.363 . S
C314 C315 1.370 . S
C314 C318 1.524 . S
C315 C307 1.503 . S
C315 C314 1.370 . S
C315 C316 1.403 . S
C316 C315 1.403 . S
C316 C317 1.404 . S
C316 C319 1.539 . S
C317 C313 1.408 . S
C317 C316 1.404 . S
C317 H329 0.930 . S
C318 C314 1.524 . S
C318 H330 0.956 . S
C318 H331 0.961 . S
C318 H332 0.961 . S
C319 C316 1.539 . S
C319 H333 0.958 . S
C319 H334 0.961 . S
C319 H335 0.960 . S
H320 C304 0.931 . S
H321 C309 0.929 . S
H322 C310 0.960 . S
H323 C310 0.962 . S
H324 C310 0.960 . S
H325 C311 0.961 . S
H326 C311 0.961 . S
H327 C311 0.961 . S
H328 C312 0.931 . S
H329 C317 0.930 . S
H330 C318 0.956 . S
H331 C318 0.961 . S
H332 C318 0.961 . S
H333 C319 0.958 . S
H334 C319 0.961 . S
H335 C319 0.960 . S
C336 C337 1.391 . S
C336 C338 1.394 . S
C336 H352 0.931 . S
C337 C336 1.391 . S
C337 C341 1.376 . S
C338 C336 1.394 . S
C338 C339 1.369 . S
C338 C342 1.531 . S
C339 C338 1.369 . S
C339 C340 1.410 . S
C339 C347 1.503 . S
C340 C339 1.410 . S
C340 C341 1.392 . S
C340 C343 1.511 . S
C341 C337 1.376 . S
C341 C340 1.392 . S
C341 H353 0.929 . S
C342 C338 1.531 . S
C342 H354 0.960 . S
C342 H355 0.962 . S
C342 H356 0.960 . S
C343 C340 1.511 . S
C343 H357 0.961 . S
C343 H358 0.961 . S
C343 H359 0.961 . S
C344 C345 1.370 . S
C344 C346 1.363 . S
C344 H360 0.931 . S
C345 C344 1.370 . S
C345 C349 1.408 . S
C346 C344 1.363 . S
C346 C347 1.370 . S
C346 C350 1.524 . S
C347 C339 1.503 . S
C347 C346 1.370 . S
C347 C348 1.403 . S
C348 C347 1.403 . S
C348 C349 1.404 . S
C348 C351 1.539 . S
C349 C345 1.408 . S
C349 C348 1.404 . S
C349 H361 0.930 . S
C350 C346 1.524 . S
C350 H362 0.956 . S
C350 H363 0.961 . S
C350 H364 0.961 . S
C351 C348 1.539 . S
C351 H365 0.958 . S
C351 H366 0.961 . S
C351 H367 0.960 . S
H352 C336 0.931 . S
H353 C341 0.929 . S
H354 C342 0.960 . S
H355 C342 0.962 . S
H356 C342 0.960 . S
H357 C343 0.961 . S
H358 C343 0.961 . S
H359 C343 0.961 . S
H360 C344 0.931 . S
H361 C349 0.930 . S
H362 C350 0.956 . S
H363 C350 0.961 . S
H364 C350 0.961 . S
H365 C351 0.958 . S
H366 C351 0.961 . S
H367 C351 0.960 . S
C368 C369 1.391 . S
C368 C370 1.394 . S
C368 H384 0.931 . S
C369 C368 1.391 . S
C369 C373 1.376 . S
C370 C368 1.394 . S
C370 C371 1.369 . S
C370 C374 1.531 . S
C371 C370 1.369 . S
C371 C372 1.410 . S
C371 C379 1.503 . S
C372 C371 1.410 . S
C372 C373 1.392 . S
C372 C375 1.511 . S
C373 C369 1.376 . S
C373 C372 1.392 . S
C373 H385 0.929 . S
C374 C370 1.531 . S
C374 H386 0.960 . S
C374 H387 0.962 . S
C374 H388 0.960 . S
C375 C372 1.511 . S
C375 H389 0.961 . S
C375 H390 0.961 . S
C375 H391 0.961 . S
C376 C377 1.370 . S
C376 C378 1.363 . S
C376 H392 0.931 . S
C377 C376 1.370 . S
C377 C381 1.408 . S
C378 C376 1.363 . S
C378 C379 1.370 . S
C378 C382 1.524 . S
C379 C371 1.503 . S
C379 C378 1.370 . S
C379 C380 1.403 . S
C380 C379 1.403 . S
C380 C381 1.404 . S
C380 C383 1.539 . S
C381 C377 1.408 . S
C381 C380 1.404 . S
C381 H393 0.930 . S
C382 C378 1.524 . S
C382 H394 0.956 . S
C382 H395 0.961 . S
C382 H396 0.961 . S
C383 C380 1.539 . S
C383 H397 0.958 . S
C383 H398 0.961 . S
C383 H399 0.960 . S
H384 C368 0.931 . S
H385 C373 0.929 . S
H386 C374 0.960 . S
H387 C374 0.962 . S
H388 C374 0.960 . S
H389 C375 0.961 . S
H390 C375 0.961 . S
H391 C375 0.961 . S
H392 C376 0.931 . S
H393 C381 0.930 . S
H394 C382 0.956 . S
H395 C382 0.961 . S
H396 C382 0.961 . S
H397 C383 0.958 . S
H398 C383 0.961 . S
H399 C383 0.960 . S
C400 C401 1.391 . S
C400 C402 1.394 . S
C400 H416 0.931 . S
C401 C400 1.391 . S
C401 C405 1.376 . S
C402 C400 1.394 . S
C402 C403 1.369 . S
C402 C406 1.531 . S
C403 C402 1.369 . S
C403 C404 1.410 . S
C403 C411 1.503 . S
C404 C403 1.410 . S
C404 C405 1.392 . S
C404 C407 1.511 . S
C405 C401 1.376 . S
C405 C404 1.392 . S
C405 H417 0.929 . S
C406 C402 1.531 . S
C406 H418 0.960 . S
C406 H419 0.962 . S
C406 H420 0.960 . S
C407 C404 1.511 . S
C407 H421 0.961 . S
C407 H422 0.961 . S
C407 H423 0.961 . S
C408 C409 1.370 . S
C408 C410 1.363 . S
C408 H424 0.931 . S
C409 C408 1.370 . S
C409 C413 1.408 . S
C410 C408 1.363 . S
C410 C411 1.370 . S
C410 C414 1.524 . S
C411 C403 1.503 . S
C411 C410 1.370 . S
C411 C412 1.403 . S
C412 C411 1.403 . S
C412 C413 1.404 . S
C412 C415 1.539 . S
C413 C409 1.408 . S
C413 C412 1.404 . S
C413 H425 0.930 . S
C414 C410 1.524 . S
C414 H426 0.956 . S
C414 H427 0.961 . S
C414 H428 0.961 . S
C415 C412 1.539 . S
C415 H429 0.958 . S
C415 H430 0.961 . S
C415 H431 0.960 . S
H416 C400 0.931 . S
H417 C405 0.929 . S
H418 C406 0.960 . S
H419 C406 0.962 . S
H420 C406 0.960 . S
H421 C407 0.961 . S
H422 C407 0.961 . S
H423 C407 0.961 . S
H424 C408 0.931 . S
H425 C413 0.930 . S
H426 C414 0.956 . S
H427 C414 0.961 . S
H428 C414 0.961 . S
H429 C415 0.958 . S
H430 C415 0.961 . S
H431 C415 0.960 . S
C432 C433 1.391 . S
C432 C434 1.394 . S
C432 H448 0.931 . S
C433 C432 1.391 . S
C433 C437 1.376 . S
C434 C432 1.394 . S
C434 C435 1.369 . S
C434 C438 1.531 . S
C435 C434 1.369 . S
C435 C436 1.410 . S
C435 C443 1.503 . S
C436 C435 1.410 . S
C436 C437 1.392 . S
C436 C439 1.511 . S
C437 C433 1.376 . S
C437 C436 1.392 . S
C437 H449 0.929 . S
C438 C434 1.531 . S
C438 H450 0.960 . S
C438 H451 0.962 . S
C438 H452 0.960 . S
C439 C436 1.511 . S
C439 H453 0.961 . S
C439 H454 0.961 . S
C439 H455 0.961 . S
C440 C441 1.370 . S
C440 C442 1.363 . S
C440 H456 0.931 . S
C441 C440 1.370 . S
C441 C445 1.408 . S
C442 C440 1.363 . S
C442 C443 1.370 . S
C442 C446 1.524 . S
C443 C435 1.503 . S
C443 C442 1.370 . S
C443 C444 1.403 . S
C444 C443 1.403 . S
C444 C445 1.404 . S
C444 C447 1.539 . S
C445 C441 1.408 . S
C445 C444 1.404 . S
C445 H457 0.930 . S
C446 C442 1.524 . S
C446 H458 0.956 . S
C446 H459 0.961 . S
C446 H460 0.961 . S
C447 C444 1.539 . S
C447 H461 0.958 . S
C447 H462 0.961 . S
C447 H463 0.960 . S
H448 C432 0.931 . S
H449 C437 0.929 . S
H450 C438 0.960 . S
H451 C438 0.962 . S
H452 C438 0.960 . S
H453 C439 0.961 . S
H454 C439 0.961 . S
H455 C439 0.961 . S
H456 C440 0.931 . S
H457 C445 0.930 . S
H458 C446 0.956 . S
H459 C446 0.961 . S
H460 C446 0.961 . S
H461 C447 0.958 . S
H462 C447 0.961 . S
H463 C447 0.960 . S
C464 C465 1.391 . S
C464 C466 1.394 . S
C464 H480 0.931 . S
C465 C464 1.391 . S
C465 C469 1.376 . S
C466 C464 1.394 . S
C466 C467 1.369 . S
C466 C470 1.531 . S
C467 C466 1.369 . S
C467 C468 1.410 . S
C467 C475 1.503 . S
C468 C467 1.410 . S
C468 C469 1.392 . S
C468 C471 1.511 . S
C469 C465 1.376 . S
C469 C468 1.392 . S
C469 H481 0.929 . S
C470 C466 1.531 . S
C470 H482 0.960 . S
C470 H483 0.962 . S
C470 H484 0.960 . S
C471 C468 1.511 . S
C471 H485 0.961 . S
C471 H486 0.961 . S
C471 H487 0.961 . S
C472 C473 1.370 . S
C472 C474 1.363 . S
C472 H488 0.931 . S
C473 C472 1.370 . S
C473 C477 1.408 . S
C474 C472 1.363 . S
C474 C475 1.370 . S
C474 C478 1.524 . S
C475 C467 1.503 . S
C475 C474 1.370 . S
C475 C476 1.403 . S
C476 C475 1.403 . S
C476 C477 1.404 . S
C476 C479 1.539 . S
C477 C473 1.408 . S
C477 C476 1.404 . S
C477 H489 0.930 . S
C478 C474 1.524 . S
C478 H490 0.956 . S
C478 H491 0.961 . S
C478 H492 0.961 . S
C479 C476 1.539 . S
C479 H493 0.958 . S
C479 H494 0.961 . S
C479 H495 0.960 . S
H480 C464 0.931 . S
H481 C469 0.929 . S
H482 C470 0.960 . S
H483 C470 0.962 . S
H484 C470 0.960 . S
H485 C471 0.961 . S
H486 C471 0.961 . S
H487 C471 0.961 . S
H488 C472 0.931 . S
H489 C477 0.930 . S
H490 C478 0.956 . S
H491 C478 0.961 . S
H492 C478 0.961 . S
H493 C479 0.958 . S
H494 C479 0.961 . S
H495 C479 0.960 . S
C496 C497 1.391 . S
C496 C498 1.394 . S
C496 H512 0.931 . S
C497 C496 1.391 . S
C497 C501 1.376 . S
C498 C496 1.394 . S
C498 C499 1.369 . S
C498 C502 1.531 . S
C499 C498 1.369 . S
C499 C500 1.410 . S
C499 C507 1.503 . S
C500 C499 1.410 . S
C500 C501 1.392 . S
C500 C503 1.511 . S
C501 C497 1.376 . S
C501 C500 1.392 . S
C501 H513 0.929 . S
C502 C498 1.531 . S
C502 H514 0.960 . S
C502 H515 0.962 . S
C502 H516 0.960 . S
C503 C500 1.511 . S
C503 H517 0.961 . S
C503 H518 0.961 . S
C503 H519 0.961 . S
C504 C505 1.370 . S
C504 C506 1.363 . S
C504 H520 0.931 . S
C505 C504 1.370 . S
C505 C509 1.408 . S
C506 C504 1.363 . S
C506 C507 1.370 . S
C506 C510 1.524 . S
C507 C499 1.503 . S
C507 C506 1.370 . S
C507 C508 1.403 . S
C508 C507 1.403 . S
C508 C509 1.404 . S
C508 C511 1.539 . S
C509 C505 1.408 . S
C509 C508 1.404 . S
C509 H521 0.930 . S
C510 C506 1.524 . S
C510 H522 0.956 . S
C510 H523 0.961 . S
C510 H524 0.961 . S
C511 C508 1.539 . S
C511 H525 0.958 . S
C511 H526 0.961 . S
C511 H527 0.960 . S
H512 C496 0.931 . S
H513 C501 0.929 . S
H514 C502 0.960 . S
H515 C502 0.962 . S
H516 C502 0.960 . S
H517 C503 0.961 . S
H518 C503 0.961 . S
H519 C503 0.961 . S
H520 C504 0.931 . S
H521 C509 0.930 . S
H522 C510 0.956 . S
H523 C510 0.961 . S
H524 C510 0.961 . S
H525 C511 0.958 . S
H526 C511 0.961 . S
H527 C511 0.960 . S
C528 C529 1.391 . S
C528 C530 1.394 . S
C528 H544 0.931 . S
C529 C528 1.391 . S
C529 C533 1.376 . S
C530 C528 1.394 . S
C530 C531 1.369 . S
C530 C534 1.531 . S
C531 C530 1.369 . S
C531 C532 1.410 . S
C531 C539 1.503 . S
C532 C531 1.410 . S
C532 C533 1.392 . S
C532 C535 1.511 . S
C533 C529 1.376 . S
C533 C532 1.392 . S
C533 H545 0.929 . S
C534 C530 1.531 . S
C534 H546 0.960 . S
C534 H547 0.962 . S
C534 H548 0.960 . S
C535 C532 1.511 . S
C535 H549 0.961 . S
C535 H550 0.961 . S
C535 H551 0.961 . S
C536 C537 1.370 . S
C536 C538 1.363 . S
C536 H552 0.931 . S
C537 C536 1.370 . S
C537 C541 1.408 . S
C538 C536 1.363 . S
C538 C539 1.370 . S
C538 C542 1.524 . S
C539 C531 1.503 . S
C539 C538 1.370 . S
C539 C540 1.403 . S
C540 C539 1.403 . S
C540 C541 1.404 . S
C540 C543 1.539 . S
C541 C537 1.408 . S
C541 C540 1.404 . S
C541 H553 0.930 . S
C542 C538 1.524 . S
C542 H554 0.956 . S
C542 H555 0.961 . S
C542 H556 0.961 . S
C543 C540 1.539 . S
C543 H557 0.958 . S
C543 H558 0.961 . S
C543 H559 0.960 . S
H544 C528 0.931 . S
H545 C533 0.929 . S
H546 C534 0.960 . S
H547 C534 0.962 . S
H548 C534 0.960 . S
H549 C535 0.961 . S
H550 C535 0.961 . S
H551 C535 0.961 . S
H552 C536 0.931 . S
H553 C541 0.930 . S
H554 C542 0.956 . S
H555 C542 0.961 . S
H556 C542 0.961 . S
H557 C543 0.958 . S
H558 C543 0.961 . S
H559 C543 0.960 . S
C560 C561 1.391 . S
C560 C562 1.394 . S
C560 H576 0.931 . S
C561 C560 1.391 . S
C561 C565 1.376 . S
C562 C560 1.394 . S
C562 C563 1.369 . S
C562 C566 1.531 . S
C563 C562 1.369 . S
C563 C564 1.410 . S
C563 C571 1.503 . S
C564 C563 1.410 . S
C564 C565 1.392 . S
C564 C567 1.511 . S
C565 C561 1.376 . S
C565 C564 1.392 . S
C565 H577 0.929 . S
C566 C562 1.531 . S
C566 H578 0.960 . S
C566 H579 0.962 . S
C566 H580 0.960 . S
C567 C564 1.511 . S
C567 H581 0.961 . S
C567 H582 0.961 . S
C567 H583 0.961 . S
C568 C569 1.370 . S
C568 C570 1.363 . S
C568 H584 0.931 . S
C569 C568 1.370 . S
C569 C573 1.408 . S
C570 C568 1.363 . S
C570 C571 1.370 . S
C570 C574 1.524 . S
C571 C563 1.503 . S
C571 C570 1.370 . S
C571 C572 1.403 . S
C572 C571 1.403 . S
C572 C573 1.404 . S
C572 C575 1.539 . S
C573 C569 1.408 . S
C573 C572 1.404 . S
C573 H585 0.930 . S
C574 C570 1.524 . S
C574 H586 0.956 . S
C574 H587 0.961 . S
C574 H588 0.961 . S
C575 C572 1.539 . S
C575 H589 0.958 . S
C575 H590 0.961 . S
C575 H591 0.960 . S
H576 C560 0.931 . S
H577 C565 0.929 . S
H578 C566 0.960 . S
H579 C566 0.962 . S
H580 C566 0.960 . S
H581 C567 0.961 . S
H582 C567 0.961 . S
H583 C567 0.961 . S
H584 C568 0.931 . S
H585 C573 0.930 . S
H586 C574 0.956 . S
H587 C574 0.961 . S
H588 C574 0.961 . S
H589 C575 0.958 . S
H590 C575 0.961 . S
H591 C575 0.960 . S
C592 C593 1.391 . S
C592 C594 1.394 . S
C592 H608 0.931 . S
C593 C592 1.391 . S
C593 C597 1.376 . S
C594 C592 1.394 . S
C594 C595 1.369 . S
C594 C598 1.531 . S
C595 C594 1.369 . S
C595 C596 1.410 . S
C595 C603 1.503 . S
C596 C595 1.410 . S
C596 C597 1.392 . S
C596 C599 1.511 . S
C597 C593 1.376 . S
C597 C596 1.392 . S
C597 H609 0.929 . S
C598 C594 1.531 . S
C598 H610 0.960 . S
C598 H611 0.962 . S
C598 H612 0.960 . S
C599 C596 1.511 . S
C599 H613 0.961 . S
C599 H614 0.961 . S
C599 H615 0.961 . S
C600 C601 1.370 . S
C600 C602 1.363 . S
C600 H616 0.931 . S
C601 C600 1.370 . S
C601 C605 1.408 . S
C602 C600 1.363 . S
C602 C603 1.370 . S
C602 C606 1.524 . S
C603 C595 1.503 . S
C603 C602 1.370 . S
C603 C604 1.403 . S
C604 C603 1.403 . S
C604 C605 1.404 . S
C604 C607 1.539 . S
C605 C601 1.408 . S
C605 C604 1.404 . S
C605 H617 0.930 . S
C606 C602 1.524 . S
C606 H618 0.956 . S
C606 H619 0.961 . S
C606 H620 0.961 . S
C607 C604 1.539 . S
C607 H621 0.958 . S
C607 H622 0.961 . S
C607 H623 0.960 . S
H608 C592 0.931 . S
H609 C597 0.929 . S
H610 C598 0.960 . S
H611 C598 0.962 . S
H612 C598 0.960 . S
H613 C599 0.961 . S
H614 C599 0.961 . S
H615 C599 0.961 . S
H616 C600 0.931 . S
H617 C605 0.930 . S
H618 C606 0.956 . S
H619 C606 0.961 . S
H620 C606 0.961 . S
H621 C607 0.958 . S
H622 C607 0.961 . S
H623 C607 0.960 . S
C624 C625 1.391 . S
C624 C626 1.394 . S
C624 H640 0.931 . S
C625 C624 1.391 . S
C625 C629 1.376 . S
C626 C624 1.394 . S
C626 C627 1.369 . S
C626 C630 1.531 . S
C627 C626 1.369 . S
C627 C628 1.410 . S
C627 C635 1.503 . S
C628 C627 1.410 . S
C628 C629 1.392 . S
C628 C631 1.511 . S
C629 C625 1.376 . S
C629 C628 1.392 . S
C629 H641 0.929 . S
C630 C626 1.531 . S
C630 H642 0.960 . S
C630 H643 0.962 . S
C630 H644 0.960 . S
C631 C628 1.511 . S
C631 H645 0.961 . S
C631 H646 0.961 . S
C631 H647 0.961 . S
C632 C633 1.370 . S
C632 C634 1.363 . S
C632 H648 0.931 . S
C633 C632 1.370 . S
C633 C637 1.408 . S
C634 C632 1.363 . S
C634 C635 1.370 . S
C634 C638 1.524 . S
C635 C627 1.503 . S
C635 C634 1.370 . S
C635 C636 1.403 . S
C636 C635 1.403 . S
C636 C637 1.404 . S
C636 C639 1.539 . S
C637 C633 1.408 . S
C637 C636 1.404 . S
C637 H649 0.930 . S
C638 C634 1.524 . S
C638 H650 0.956 . S
C638 H651 0.961 . S
C638 H652 0.961 . S
C639 C636 1.539 . S
C639 H653 0.958 . S
C639 H654 0.961 . S
C639 H655 0.960 . S
H640 C624 0.931 . S
H641 C629 0.929 . S
H642 C630 0.960 . S
H643 C630 0.962 . S
H644 C630 0.960 . S
H645 C631 0.961 . S
H646 C631 0.961 . S
H647 C631 0.961 . S
H648 C632 0.931 . S
H649 C637 0.930 . S
H650 C638 0.956 . S
H651 C638 0.961 . S
H652 C638 0.961 . S
H653 C639 0.958 . S
H654 C639 0.961 . S
H655 C639 0.960 . S
C656 C657 1.391 . S
C656 C658 1.394 . S
C656 H672 0.931 . S
C657 C656 1.391 . S
C657 C661 1.376 . S
C658 C656 1.394 . S
C658 C659 1.369 . S
C658 C662 1.531 . S
C659 C658 1.369 . S
C659 C660 1.410 . S
C659 C667 1.503 . S
C660 C659 1.410 . S
C660 C661 1.392 . S
C660 C663 1.511 . S
C661 C657 1.376 . S
C661 C660 1.392 . S
C661 H673 0.929 . S
C662 C658 1.531 . S
C662 H674 0.960 . S
C662 H675 0.962 . S
C662 H676 0.960 . S
C663 C660 1.511 . S
C663 H677 0.961 . S
C663 H678 0.961 . S
C663 H679 0.961 . S
C664 C665 1.370 . S
C664 C666 1.363 . S
C664 H680 0.931 . S
C665 C664 1.370 . S
C665 C669 1.408 . S
C666 C664 1.363 . S
C666 C667 1.370 . S
C666 C670 1.524 . S
C667 C659 1.503 . S
C667 C666 1.370 . S
C667 C668 1.403 . S
C668 C667 1.403 . S
C668 C669 1.404 . S
C668 C671 1.539 . S
C669 C665 1.408 . S
C669 C668 1.404 . S
C669 H681 0.930 . S
C670 C666 1.524 . S
C670 H682 0.956 . S
C670 H683 0.961 . S
C670 H684 0.961 . S
C671 C668 1.539 . S
C671 H685 0.958 . S
C671 H686 0.961 . S
C671 H687 0.960 . S
H672 C656 0.931 . S
H673 C661 0.929 . S
H674 C662 0.960 . S
H675 C662 0.962 . S
H676 C662 0.960 . S
H677 C663 0.961 . S
H678 C663 0.961 . S
H679 C663 0.961 . S
H680 C664 0.931 . S
H681 C669 0.930 . S
H682 C670 0.956 . S
H683 C670 0.961 . S
H684 C670 0.961 . S
H685 C671 0.958 . S
H686 C671 0.961 . S
H687 C671 0.960 . S
C688 C689 1.391 . S
C688 C690 1.394 . S
C688 H704 0.931 . S
C689 C688 1.391 . S
C689 C693 1.376 . S
C690 C688 1.394 . S
C690 C691 1.369 . S
C690 C694 1.531 . S
C691 C690 1.369 . S
C691 C692 1.410 . S
C691 C699 1.503 . S
C692 C691 1.410 . S
C692 C693 1.392 . S
C692 C695 1.511 . S
C693 C689 1.376 . S
C693 C692 1.392 . S
C693 H705 0.929 . S
C694 C690 1.531 . S
C694 H706 0.960 . S
C694 H707 0.962 . S
C694 H708 0.960 . S
C695 C692 1.511 . S
C695 H709 0.961 . S
C695 H710 0.961 . S
C695 H711 0.961 . S
C696 C697 1.370 . S
C696 C698 1.363 . S
C696 H712 0.931 . S
C697 C696 1.370 . S
C697 C701 1.408 . S
C698 C696 1.363 . S
C698 C699 1.370 . S
C698 C702 1.524 . S
C699 C691 1.503 . S
C699 C698 1.370 . S
C699 C700 1.403 . S
C700 C699 1.403 . S
C700 C701 1.404 . S
C700 C703 1.539 . S
C701 C697 1.408 . S
C701 C700 1.404 . S
C701 H713 0.930 . S
C702 C698 1.524 . S
C702 H714 0.956 . S
C702 H715 0.961 . S
C702 H716 0.961 . S
C703 C700 1.539 . S
C703 H717 0.958 . S
C703 H718 0.961 . S
C703 H719 0.960 . S
H704 C688 0.931 . S
H705 C693 0.929 . S
H706 C694 0.960 . S
H707 C694 0.962 . S
H708 C694 0.960 . S
H709 C695 0.961 . S
H710 C695 0.961 . S
H711 C695 0.961 . S
H712 C696 0.931 . S
H713 C701 0.930 . S
H714 C702 0.956 . S
H715 C702 0.961 . S
H716 C702 0.961 . S
H717 C703 0.958 . S
H718 C703 0.961 . S
H719 C703 0.960 . S
C720 C721 1.391 . S
C720 C722 1.394 . S
C720 H736 0.931 . S
C721 C720 1.391 . S
C721 C725 1.376 . S
C722 C720 1.394 . S
C722 C723 1.369 . S
C722 C726 1.531 . S
C723 C722 1.369 . S
C723 C724 1.410 . S
C723 C731 1.503 . S
C724 C723 1.410 . S
C724 C725 1.392 . S
C724 C727 1.511 . S
C725 C721 1.376 . S
C725 C724 1.392 . S
C725 H737 0.929 . S
C726 C722 1.531 . S
C726 H738 0.960 . S
C726 H739 0.962 . S
C726 H740 0.960 . S
C727 C724 1.511 . S
C727 H741 0.961 . S
C727 H742 0.961 . S
C727 H743 0.961 . S
C728 C729 1.370 . S
C728 C730 1.363 . S
C728 H744 0.931 . S
C729 C728 1.370 . S
C729 C733 1.408 . S
C730 C728 1.363 . S
C730 C731 1.370 . S
C730 C734 1.524 . S
C731 C723 1.503 . S
C731 C730 1.370 . S
C731 C732 1.403 . S
C732 C731 1.403 . S
C732 C733 1.404 . S
C732 C735 1.539 . S
C733 C729 1.408 . S
C733 C732 1.404 . S
C733 H745 0.930 . S
C734 C730 1.524 . S
C734 H746 0.956 . S
C734 H747 0.961 . S
C734 H748 0.961 . S
C735 C732 1.539 . S
C735 H749 0.958 . S
C735 H750 0.961 . S
C735 H751 0.960 . S
H736 C720 0.931 . S
H737 C725 0.929 . S
H738 C726 0.960 . S
H739 C726 0.962 . S
H740 C726 0.960 . S
H741 C727 0.961 . S
H742 C727 0.961 . S
H743 C727 0.961 . S
H744 C728 0.931 . S
H745 C733 0.930 . S
H746 C734 0.956 . S
H747 C734 0.961 . S
H748 C734 0.961 . S
H749 C735 0.958 . S
H750 C735 0.961 . S
H751 C735 0.960 . S
C752 C753 1.391 . S
C752 C754 1.394 . S
C752 H768 0.931 . S
C753 C752 1.391 . S
C753 C757 1.376 . S
C754 C752 1.394 . S
C754 C755 1.369 . S
C754 C758 1.531 . S
C755 C754 1.369 . S
C755 C756 1.410 . S
C755 C763 1.503 . S
C756 C755 1.410 . S
C756 C757 1.392 . S
C756 C759 1.511 . S
C757 C753 1.376 . S
C757 C756 1.392 . S
C757 H769 0.929 . S
C758 C754 1.531 . S
C758 H770 0.960 . S
C758 H771 0.962 . S
C758 H772 0.960 . S
C759 C756 1.511 . S
C759 H773 0.961 . S
C759 H774 0.961 . S
C759 H775 0.961 . S
C760 C761 1.370 . S
C760 C762 1.363 . S
C760 H776 0.931 . S
C761 C760 1.370 . S
C761 C765 1.408 . S
C762 C760 1.363 . S
C762 C763 1.370 . S
C762 C766 1.524 . S
C763 C755 1.503 . S
C763 C762 1.370 . S
C763 C764 1.403 . S
C764 C763 1.403 . S
C764 C765 1.404 . S
C764 C767 1.539 . S
C765 C761 1.408 . S
C765 C764 1.404 . S
C765 H777 0.930 . S
C766 C762 1.524 . S
C766 H778 0.956 . S
C766 H779 0.961 . S
C766 H780 0.961 . S
C767 C764 1.539 . S
C767 H781 0.958 . S
C767 H782 0.961 . S
C767 H783 0.960 . S
H768 C752 0.931 . S
H769 C757 0.929 . S
H770 C758 0.960 . S
H771 C758 0.962 . S
H772 C758 0.960 . S
H773 C759 0.961 . S
H774 C759 0.961 . S
H775 C759 0.961 . S
H776 C760 0.931 . S
H777 C765 0.930 . S
H778 C766 0.956 . S
H779 C766 0.961 . S
H780 C766 0.961 . S
H781 C767 0.958 . S
H782 C767 0.961 . S
H783 C767 0.960 . S
C784 C785 1.391 . S
C784 C786 1.394 . S
C784 H800 0.931 . S
C785 C784 1.391 . S
C785 C789 1.376 . S
C786 C784 1.394 . S
C786 C787 1.369 . S
C786 C790 1.531 . S
C787 C786 1.369 . S
C787 C788 1.410 . S
C787 C795 1.503 . S
C788 C787 1.410 . S
C788 C789 1.392 . S
C788 C791 1.511 . S
C789 C785 1.376 . S
C789 C788 1.392 . S
C789 H801 0.929 . S
C790 C786 1.531 . S
C790 H802 0.960 . S
C790 H803 0.962 . S
C790 H804 0.960 . S
C791 C788 1.511 . S
C791 H805 0.961 . S
C791 H806 0.961 . S
C791 H807 0.961 . S
C792 C793 1.370 . S
C792 C794 1.363 . S
C792 H808 0.931 . S
C793 C792 1.370 . S
C793 C797 1.408 . S
C794 C792 1.363 . S
C794 C795 1.370 . S
C794 C798 1.524 . S
C795 C787 1.503 . S
C795 C794 1.370 . S
C795 C796 1.403 . S
C796 C795 1.403 . S
C796 C797 1.404 . S
C796 C799 1.539 . S
C797 C793 1.408 . S
C797 C796 1.404 . S
C797 H809 0.930 . S
C798 C794 1.524 . S
C798 H810 0.956 . S
C798 H811 0.961 . S
C798 H812 0.961 . S
C799 C796 1.539 . S
C799 H813 0.958 . S
C799 H814 0.961 . S
C799 H815 0.960 . S
H800 C784 0.931 . S
H801 C789 0.929 . S
H802 C790 0.960 . S
H803 C790 0.962 . S
H804 C790 0.960 . S
H805 C791 0.961 . S
H806 C791 0.961 . S
H807 C791 0.961 . S
H808 C792 0.931 . S
H809 C797 0.930 . S
H810 C798 0.956 . S
H811 C798 0.961 . S
H812 C798 0.961 . S
H813 C799 0.958 . S
H814 C799 0.961 . S
H815 C799 0.960 . S
C816 C817 1.391 . S
C816 C818 1.394 . S
C816 H832 0.931 . S
C817 C816 1.391 . S
C817 C821 1.376 . S
C818 C816 1.394 . S
C818 C819 1.369 . S
C818 C822 1.531 . S
C819 C818 1.369 . S
C819 C820 1.410 . S
C819 C827 1.503 . S
C820 C819 1.410 . S
C820 C821 1.392 . S
C820 C823 1.511 . S
C821 C817 1.376 . S
C821 C820 1.392 . S
C821 H833 0.929 . S
C822 C818 1.531 . S
C822 H834 0.960 . S
C822 H835 0.962 . S
C822 H836 0.960 . S
C823 C820 1.511 . S
C823 H837 0.961 . S
C823 H838 0.961 . S
C823 H839 0.961 . S
C824 C825 1.370 . S
C824 C826 1.363 . S
C824 H840 0.931 . S
C825 C824 1.370 . S
C825 C829 1.408 . S
C826 C824 1.363 . S
C826 C827 1.370 . S
C826 C830 1.524 . S
C827 C819 1.503 . S
C827 C826 1.370 . S
C827 C828 1.403 . S
C828 C827 1.403 . S
C828 C829 1.404 . S
C828 C831 1.539 . S
C829 C825 1.408 . S
C829 C828 1.404 . S
C829 H841 0.930 . S
C830 C826 1.524 . S
C830 H842 0.956 . S
C830 H843 0.961 . S
C830 H844 0.961 . S
C831 C828 1.539 . S
C831 H845 0.958 . S
C831 H846 0.961 . S
C831 H847 0.960 . S
H832 C816 0.931 . S
H833 C821 0.929 . S
H834 C822 0.960 . S
H835 C822 0.962 . S
H836 C822 0.960 . S
H837 C823 0.961 . S
H838 C823 0.961 . S
H839 C823 0.961 . S
H840 C824 0.931 . S
H841 C829 0.930 . S
H842 C830 0.956 . S
H843 C830 0.961 . S
H844 C830 0.961 . S
H845 C831 0.958 . S
H846 C831 0.961 . S
H847 C831 0.960 . S
C848 C849 1.391 . S
C848 C850 1.394 . S
C848 H864 0.931 . S
C849 C848 1.391 . S
C849 C853 1.376 . S
C850 C848 1.394 . S
C850 C851 1.369 . S
C850 C854 1.531 . S
C851 C850 1.369 . S
C851 C852 1.410 . S
C851 C859 1.503 . S
C852 C851 1.410 . S
C852 C853 1.392 . S
C852 C855 1.511 . S
C853 C849 1.376 . S
C853 C852 1.392 . S
C853 H865 0.929 . S
C854 C850 1.531 . S
C854 H866 0.960 . S
C854 H867 0.962 . S
C854 H868 0.960 . S
C855 C852 1.511 . S
C855 H869 0.961 . S
C855 H870 0.961 . S
C855 H871 0.961 . S
C856 C857 1.370 . S
C856 C858 1.363 . S
C856 H872 0.931 . S
C857 C856 1.370 . S
C857 C861 1.408 . S
C858 C856 1.363 . S
C858 C859 1.370 . S
C858 C862 1.524 . S
C859 C851 1.503 . S
C859 C858 1.370 . S
C859 C860 1.403 . S
C860 C859 1.403 . S
C860 C861 1.404 . S
C860 C863 1.539 . S
C861 C857 1.408 . S
C861 C860 1.404 . S
C861 H873 0.930 . S
C862 C858 1.524 . S
C862 H874 0.956 . S
C862 H875 0.961 . S
C862 H876 0.961 . S
C863 C860 1.539 . S
C863 H877 0.958 . S
C863 H878 0.961 . S
C863 H879 0.960 . S
H864 C848 0.931 . S
H865 C853 0.929 . S
H866 C854 0.960 . S
H867 C854 0.962 . S
H868 C854 0.960 . S
H869 C855 0.961 . S
H870 C855 0.961 . S
H871 C855 0.961 . S
H872 C856 0.931 . S
H873 C861 0.930 . S
H874 C862 0.956 . S
H875 C862 0.961 . S
H876 C862 0.961 . S
H877 C863 0.958 . S
H878 C863 0.961 . S
H879 C863 0.960 . S
C880 C881 1.391 . S
C880 C882 1.394 . S
C880 H896 0.931 . S
C881 C880 1.391 . S
C881 C885 1.376 . S
C882 C880 1.394 . S
C882 C883 1.369 . S
C882 C886 1.531 . S
C883 C882 1.369 . S
C883 C884 1.410 . S
C883 C891 1.503 . S
C884 C883 1.410 . S
C884 C885 1.392 . S
C884 C887 1.511 . S
C885 C881 1.376 . S
C885 C884 1.392 . S
C885 H897 0.929 . S
C886 C882 1.531 . S
C886 H898 0.960 . S
C886 H899 0.962 . S
C886 H900 0.960 . S
C887 C884 1.511 . S
C887 H901 0.961 . S
C887 H902 0.961 . S
C887 H903 0.961 . S
C888 C889 1.370 . S
C888 C890 1.363 . S
C888 H904 0.931 . S
C889 C888 1.370 . S
C889 C893 1.408 . S
C890 C888 1.363 . S
C890 C891 1.370 . S
C890 C894 1.524 . S
C891 C883 1.503 . S
C891 C890 1.370 . S
C891 C892 1.403 . S
C892 C891 1.403 . S
C892 C893 1.404 . S
C892 C895 1.539 . S
C893 C889 1.408 . S
C893 C892 1.404 . S
C893 H905 0.930 . S
C894 C890 1.524 . S
C894 H906 0.956 . S
C894 H907 0.961 . S
C894 H908 0.961 . S
C895 C892 1.539 . S
C895 H909 0.958 . S
C895 H910 0.961 . S
C895 H911 0.960 . S
H896 C880 0.931 . S
H897 C885 0.929 . S
H898 C886 0.960 . S
H899 C886 0.962 . S
H900 C886 0.960 . S
H901 C887 0.961 . S
H902 C887 0.961 . S
H903 C887 0.961 . S
H904 C888 0.931 . S
H905 C893 0.930 . S
H906 C894 0.956 . S
H907 C894 0.961 . S
H908 C894 0.961 . S
H909 C895 0.958 . S
H910 C895 0.961 . S
H911 C895 0.960 . S
C912 C913 1.391 . S
C912 C914 1.394 . S
C912 H928 0.931 . S
C913 C912 1.391 . S
C913 C917 1.376 . S
C914 C912 1.394 . S
C914 C915 1.369 . S
C914 C918 1.531 . S
C915 C914 1.369 . S
C915 C916 1.410 . S
C915 C923 1.503 . S
C916 C915 1.410 . S
C916 C917 1.392 . S
C916 C919 1.511 . S
C917 C913 1.376 . S
C917 C916 1.392 . S
C917 H929 0.929 . S
C918 C914 1.531 . S
C918 H930 0.960 . S
C918 H931 0.962 . S
C918 H932 0.960 . S
C919 C916 1.511 . S
C919 H933 0.961 . S
C919 H934 0.961 . S
C919 H935 0.961 . S
C920 C921 1.370 . S
C920 C922 1.363 . S
C920 H936 0.931 . S
C921 C920 1.370 . S
C921 C925 1.408 . S
C922 C920 1.363 . S
C922 C923 1.370 . S
C922 C926 1.524 . S
C923 C915 1.503 . S
C923 C922 1.370 . S
C923 C924 1.403 . S
C924 C923 1.403 . S
C924 C925 1.404 . S
C924 C927 1.539 . S
C925 C921 1.408 . S
C925 C924 1.404 . S
C925 H937 0.930 . S
C926 C922 1.524 . S
C926 H938 0.956 . S
C926 H939 0.961 . S
C926 H940 0.961 . S
C927 C924 1.539 . S
C927 H941 0.958 . S
C927 H942 0.961 . S
C927 H943 0.960 . S
H928 C912 0.931 . S
H929 C917 0.929 . S
H930 C918 0.960 . S
H931 C918 0.962 . S
H932 C918 0.960 . S
H933 C919 0.961 . S
H934 C919 0.961 . S
H935 C919 0.961 . S
H936 C920 0.931 . S
H937 C925 0.930 . S
H938 C926 0.956 . S
H939 C926 0.961 . S
H940 C926 0.961 . S
H941 C927 0.958 . S
H942 C927 0.961 . S
H943 C927 0.960 . S
C944 C945 1.391 . S
C944 C946 1.394 . S
C944 H960 0.931 . S
C945 C944 1.391 . S
C945 C949 1.376 . S
C946 C944 1.394 . S
C946 C947 1.369 . S
C946 C950 1.531 . S
C947 C946 1.369 . S
C947 C948 1.410 . S
C947 C955 1.503 . S
C948 C947 1.410 . S
C948 C949 1.392 . S
C948 C951 1.511 . S
C949 C945 1.376 . S
C949 C948 1.392 . S
C949 H961 0.929 . S
C950 C946 1.531 . S
C950 H962 0.960 . S
C950 H963 0.962 . S
C950 H964 0.960 . S
C951 C948 1.511 . S
C951 H965 0.961 . S
C951 H966 0.961 . S
C951 H967 0.961 . S
C952 C953 1.370 . S
C952 C954 1.363 . S
C952 H968 0.931 . S
C953 C952 1.370 . S
C953 C957 1.408 . S
C954 C952 1.363 . S
C954 C955 1.370 . S
C954 C958 1.524 . S
C955 C947 1.503 . S
C955 C954 1.370 . S
C955 C956 1.403 . S
C956 C955 1.403 . S
C956 C957 1.404 . S
C956 C959 1.539 . S
C957 C953 1.408 . S
C957 C956 1.404 . S
C957 H969 0.930 . S
C958 C954 1.524 . S
C958 H970 0.956 . S
C958 H971 0.961 . S
C958 H972 0.961 . S
C959 C956 1.539 . S
C959 H973 0.958 . S
C959 H974 0.961 . S
C959 H975 0.960 . S
H960 C944 0.931 . S
H961 C949 0.929 . S
H962 C950 0.960 . S
H963 C950 0.962 . S
H964 C950 0.960 . S
H965 C951 0.961 . S
H966 C951 0.961 . S
H967 C951 0.961 . S
H968 C952 0.931 . S
H969 C957 0.930 . S
H970 C958 0.956 . S
H971 C958 0.961 . S
H972 C958 0.961 . S
H973 C959 0.958 . S
H974 C959 0.961 . S
H975 C959 0.960 . S
C976 C977 1.391 . S
C976 C978 1.394 . S
C976 H992 0.931 . S
C977 C976 1.391 . S
C977 C981 1.376 1_455 S
C978 C976 1.394 . S
C978 C979 1.371 . S
C978 C982 1.531 . S
C979 C978 1.371 . S
C979 C980 1.408 1_455 S
C979 C987 1.503 1_455 S
C980 C979 1.408 1_655 S
C980 C981 1.392 . S
C980 C983 1.511 . S
C981 C977 1.376 1_655 S
C981 C980 1.392 . S
C981 H993 0.929 . S
C982 C978 1.531 . S
C982 H994 0.960 . S
C982 H995 0.962 . S
C982 H996 0.960 . S
C983 C980 1.511 . S
C983 H997 0.961 . S
C983 H998 0.961 . S
C983 H999 0.961 . S
C984 C985 1.358 1_455 S
C984 C986 1.367 . S
C984 H1000 0.941 . S
C985 C984 1.358 1_655 S
C985 C989 1.408 . S
C986 C984 1.367 . S
C986 C987 1.370 1_455 S
C986 C990 1.524 . S
C987 C979 1.503 1_655 S
C987 C986 1.370 1_655 S
C987 C988 1.403 . S
C988 C987 1.403 . S
C988 C989 1.404 . S
C988 C991 1.539 . S
C989 C985 1.408 . S
C989 C988 1.404 . S
C989 H1001 0.930 . S
C990 C986 1.524 . S
C990 H1002 0.956 . S
C990 H1003 0.961 . S
C990 H1004 0.961 . S
C991 C988 1.539 . S
C991 H1005 0.958 . S
C991 H1006 0.961 . S
C991 H1007 0.960 . S
H992 C976 0.931 . S
H993 C981 0.929 . S
H994 C982 0.960 . S
H995 C982 0.962 . S
H996 C982 0.960 . S
H997 C983 0.961 . S
H998 C983 0.961 . S
H999 C983 0.961 . S
H1000 C984 0.941 . S
H1001 C989 0.930 . S
H1002 C990 0.956 . S
H1003 C990 0.961 . S
H1004 C990 0.961 . S
H1005 C991 0.958 . S
H1006 C991 0.961 . S
H1007 C991 0.960 . S
C1008 C1009 1.391 . S
C1008 C1010 1.394 . S
C1008 H1024 0.931 . S
C1009 C1008 1.391 . S
C1009 C1013 1.376 1_565 S
C1010 C1008 1.394 . S
C1010 C1011 1.369 1_565 S
C1010 C1014 1.531 . S
C1011 C1010 1.369 1_545 S
C1011 C1012 1.410 . S
C1011 C1019 1.503 . S
C1012 C1011 1.410 . S
C1012 C1013 1.392 . S
C1012 C1015 1.511 . S
C1013 C1009 1.376 1_545 S
C1013 C1012 1.392 . S
C1013 H1025 0.929 . S
C1014 C1010 1.531 . S
C1014 H1026 0.960 . S
C1014 H1027 0.962 . S
C1014 H1028 0.960 . S
C1015 C1012 1.511 . S
C1015 H1029 0.961 . S
C1015 H1030 0.961 . S
C1015 H1031 0.961 . S
C1016 C1017 1.370 1_565 S
C1016 C1018 1.363 . S
C1016 H1032 0.931 . S
C1017 C1016 1.370 1_545 S
C1017 C1021 1.408 . S
C1018 C1016 1.363 . S
C1018 C1019 1.370 1_565 S
C1018 C1022 1.524 . S
C1019 C1011 1.503 . S
C1019 C1018 1.370 1_545 S
C1019 C1020 1.403 . S
C1020 C1019 1.403 . S
C1020 C1021 1.404 . S
C1020 C1023 1.539 . S
C1021 C1017 1.408 . S
C1021 C1020 1.404 . S
C1021 H1033 0.930 . S
C1022 C1018 1.524 . S
C1022 H1034 0.956 . S
C1022 H1035 0.961 . S
C1022 H1036 0.961 . S
C1023 C1020 1.539 . S
C1023 H1037 0.958 . S
C1023 H1038 0.961 . S
C1023 H1039 0.960 . S
H1024 C1008 0.931 . S
H1025 C1013 0.929 . S
H1026 C1014 0.960 . S
H1027 C1014 0.962 . S
H1028 C1014 0.960 . S
H1029 C1015 0.961 . S
H1030 C1015 0.961 . S
H1031 C1015 0.961 . S
H1032 C1016 0.931 . S
H1033 C1021 0.930 . S
H1034 C1022 0.956 . S
H1035 C1022 0.961 . S
H1036 C1022 0.961 . S
H1037 C1023 0.958 . S
H1038 C1023 0.961 . S
H1039 C1023 0.960 . S
C1040 C1041 1.391 . S
C1040 C1042 1.394 . S
C1040 H1056 0.931 . S
C1041 C1040 1.391 . S
C1041 C1045 1.376 1_455 S
C1042 C1040 1.394 . S
C1042 C1043 1.349 1_455 S
C1042 C1046 1.531 . S
C1043 C1042 1.349 1_655 S
C1043 C1044 1.427 . S
C1043 C1051 1.506 . S
C1044 C1043 1.427 . S
C1044 C1045 1.392 . S
C1044 C1047 1.511 . S
C1045 C1041 1.376 1_655 S
C1045 C1044 1.392 . S
C1045 H1057 0.929 . S
C1046 C1042 1.531 . S
C1046 H1058 0.960 . S
C1046 H1059 0.962 . S
C1046 H1060 0.960 . S
C1047 C1044 1.511 . S
C1047 H1061 0.961 . S
C1047 H1062 0.961 . S
C1047 H1063 0.961 . S
C1048 C1049 1.370 1_455 S
C1048 C1050 1.363 . S
C1048 H1064 0.931 . S
C1049 C1048 1.370 1_655 S
C1049 C1053 1.408 . S
C1050 C1048 1.363 . S
C1050 C1051 1.370 1_455 S
C1050 C1054 1.524 . S
C1051 C1043 1.506 . S
C1051 C1050 1.370 1_655 S
C1051 C1052 1.403 . S
C1052 C1051 1.403 . S
C1052 C1053 1.404 . S
C1052 C1055 1.539 . S
C1053 C1049 1.408 . S
C1053 C1052 1.404 . S
C1053 H1065 0.930 . S
C1054 C1050 1.524 . S
C1054 H1066 0.956 . S
C1054 H1067 0.961 . S
C1054 H1068 0.961 . S
C1055 C1052 1.539 . S
C1055 H1069 0.958 . S
C1055 H1070 0.961 . S
C1055 H1071 0.960 . S
H1056 C1040 0.931 . S
H1057 C1045 0.929 . S
H1058 C1046 0.960 . S
H1059 C1046 0.962 . S
H1060 C1046 0.960 . S
H1061 C1047 0.961 . S
H1062 C1047 0.961 . S
H1063 C1047 0.961 . S
H1064 C1048 0.931 . S
H1065 C1053 0.930 . S
H1066 C1054 0.956 . S
H1067 C1054 0.961 . S
H1068 C1054 0.961 . S
H1069 C1055 0.958 . S
H1070 C1055 0.961 . S
H1071 C1055 0.960 . S
C1072 C1073 1.391 1_565 S
C1072 C1074 1.394 . S
C1072 H1088 0.931 . S
C1073 C1072 1.391 1_545 S
C1073 C1077 1.376 . S
C1074 C1072 1.394 . S
C1074 C1075 1.369 . S
C1074 C1078 1.531 . S
C1075 C1074 1.369 . S
C1075 C1076 1.410 1_565 S
C1075 C1083 1.503 . S
C1076 C1075 1.410 1_545 S
C1076 C1077 1.392 . S
C1076 C1079 1.511 . S
C1077 C1073 1.376 . S
C1077 C1076 1.392 . S
C1077 H1089 0.929 . S
C1078 C1074 1.531 . S
C1078 H1090 0.960 . S
C1078 H1091 0.962 . S
C1078 H1092 0.960 . S
C1079 C1076 1.511 . S
C1079 H1093 0.961 . S
C1079 H1094 0.961 . S
C1079 H1095 0.961 1_545 S
C1080 C1081 1.370 1_545 S
C1080 C1082 1.363 . S
C1080 H1096 0.931 . S
C1081 C1080 1.370 1_565 S
C1081 C1085 1.408 . S
C1082 C1080 1.363 . S
C1082 C1083 1.370 1_545 S
C1082 C1086 1.524 . S
C1083 C1075 1.503 . S
C1083 C1082 1.370 1_565 S
C1083 C1084 1.403 . S
C1084 C1083 1.403 . S
C1084 C1085 1.404 . S
C1084 C1087 1.539 . S
C1085 C1081 1.408 . S
C1085 C1084 1.404 . S
C1085 H1097 0.930 . S
C1086 C1082 1.524 . S
C1086 H1098 0.956 . S
C1086 H1099 0.961 . S
C1086 H1100 0.961 . S
C1087 C1084 1.539 . S
C1087 H1101 0.958 . S
C1087 H1102 0.961 . S
C1087 H1103 0.960 . S
H1088 C1072 0.931 . S
H1089 C1077 0.929 . S
H1090 C1078 0.960 . S
H1091 C1078 0.962 . S
H1092 C1078 0.960 . S
H1093 C1079 0.961 . S
H1094 C1079 0.961 . S
H1095 C1079 0.961 1_565 S
H1096 C1080 0.931 . S
H1097 C1085 0.930 . S
H1098 C1086 0.956 . S
H1099 C1086 0.961 . S
H1100 C1086 0.961 . S
H1101 C1087 0.958 . S
H1102 C1087 0.961 . S
H1103 C1087 0.960 . S
C1104 C1105 1.391 . S
C1104 C1106 1.394 . S
C1104 H1120 0.931 . S
C1105 C1104 1.391 . S
C1105 C1109 1.376 . S
C1106 C1104 1.394 . S
C1106 C1107 1.369 . S
C1106 C1110 1.531 . S
C1107 C1106 1.369 . S
C1107 C1108 1.410 . S
C1107 C1115 1.503 1_556 S
C1108 C1107 1.410 . S
C1108 C1109 1.392 . S
C1108 C1111 1.511 . S
C1109 C1105 1.376 . S
C1109 C1108 1.392 . S
C1109 H1121 0.929 . S
C1110 C1106 1.531 . S
C1110 H1122 0.960 1_556 S
C1110 H1123 0.962 . S
C1110 H1124 0.960 . S
C1111 C1108 1.511 . S
C1111 H1125 0.961 . S
C1111 H1126 0.961 . S
C1111 H1127 0.961 . S
C1112 C1113 1.370 . S
C1112 C1114 1.363 . S
C1112 H1128 0.931 . S
C1113 C1112 1.370 . S
C1113 C1117 1.408 . S
C1114 C1112 1.363 . S
C1114 C1115 1.370 . S
C1114 C1118 1.524 . S
C1115 C1107 1.503 1_554 S
C1115 C1114 1.370 . S
C1115 C1116 1.403 . S
C1116 C1115 1.403 . S
C1116 C1117 1.404 . S
C1116 C1119 1.539 . S
C1117 C1113 1.408 . S
C1117 C1116 1.404 . S
C1117 H1129 0.930 . S
C1118 C1114 1.524 . S
C1118 H1130 0.956 . S
C1118 H1131 0.981 . S
C1118 H1132 0.961 . S
C1119 C1116 1.539 . S
C1119 H1133 0.958 . S
C1119 H1134 0.961 . S
C1119 H1135 0.960 1_554 S
H1120 C1104 0.931 . S
H1121 C1109 0.929 . S
H1122 C1110 0.960 1_554 S
H1123 C1110 0.962 . S
H1124 C1110 0.960 . S
H1125 C1111 0.961 . S
H1126 C1111 0.961 . S
H1127 C1111 0.961 . S
H1128 C1112 0.931 . S
H1129 C1117 0.930 . S
H1130 C1118 0.956 . S
H1131 C1118 0.981 . S
H1132 C1118 0.961 . S
H1133 C1119 0.958 . S
H1134 C1119 0.961 . S
H1135 C1119 0.960 1_556 S
C1136 C1137 1.391 . S
C1136 C1138 1.394 . S
C1136 H1152 0.931 . S
C1137 C1136 1.391 . S
C1137 C1141 1.376 . S
C1138 C1136 1.394 . S
C1138 C1139 1.369 . S
C1138 C1142 1.531 . S
C1139 C1138 1.369 . S
C1139 C1140 1.410 . S
C1139 C1147 1.503 1_556 S
C1140 C1139 1.410 . S
C1140 C1141 1.392 . S
C1140 C1143 1.511 . S
C1141 C1137 1.376 . S
C1141 C1140 1.392 . S
C1141 H1153 0.929 . S
C1142 C1138 1.531 . S
C1142 H1154 0.960 . S
C1142 H1155 0.962 . S
C1142 H1156 0.960 . S
C1143 C1140 1.511 . S
C1143 H1157 0.961 . S
C1143 H1158 0.961 1_556 S
C1143 H1159 0.961 . S
C1144 C1145 1.370 . S
C1144 C1146 1.363 . S
C1144 H1160 0.931 . S
C1145 C1144 1.370 . S
C1145 C1149 1.408 . S
C1146 C1144 1.363 . S
C1146 C1147 1.370 . S
C1146 C1150 1.524 . S
C1147 C1139 1.503 1_554 S
C1147 C1146 1.370 . S
C1147 C1148 1.403 . S
C1148 C1147 1.403 . S
C1148 C1149 1.404 . S
C1148 C1151 1.539 . S
C1149 C1145 1.408 . S
C1149 C1148 1.404 . S
C1149 H1161 0.930 . S
C1150 C1146 1.524 . S
C1150 H1162 0.956 . S
C1150 H1163 0.961 . S
C1150 H1164 0.961 . S
C1151 C1148 1.539 . S
C1151 H1165 0.958 . S
C1151 H1166 0.961 . S
C1151 H1167 0.960 1_554 S
H1152 C1136 0.931 . S
H1153 C1141 0.929 . S
H1154 C1142 0.960 . S
H1155 C1142 0.962 . S
H1156 C1142 0.960 . S
H1157 C1143 0.961 . S
H1158 C1143 0.961 1_554 S
H1159 C1143 0.961 . S
H1160 C1144 0.931 . S
H1161 C1149 0.930 . S
H1162 C1150 0.956 . S
H1163 C1150 0.961 . S
H1164 C1150 0.961 . S
H1165 C1151 0.958 . S
H1166 C1151 0.961 . S
H1167 C1151 0.960 1_556 S
C1168 C1169 1.391 . S
C1168 C1170 1.394 . S
C1168 H1184 0.931 . S
C1169 C1168 1.391 . S
C1169 C1173 1.376 . S
C1170 C1168 1.394 . S
C1170 C1171 1.369 . S
C1170 C1174 1.531 . S
C1171 C1170 1.369 . S
C1171 C1172 1.410 . S
C1171 C1179 1.503 1_554 S
C1172 C1171 1.410 . S
C1172 C1173 1.392 . S
C1172 C1175 1.511 . S
C1173 C1169 1.376 . S
C1173 C1172 1.392 . S
C1173 H1185 0.929 . S
C1174 C1170 1.531 . S
C1174 H1186 0.960 1_554 S
C1174 H1187 0.962 . S
C1174 H1188 0.960 . S
C1175 C1172 1.511 . S
C1175 H1189 0.961 . S
C1175 H1190 0.961 1_554 S
C1175 H1191 0.961 . S
C1176 C1177 1.370 . S
C1176 C1178 1.363 . S
C1176 H1192 0.931 . S
C1177 C1176 1.370 . S
C1177 C1181 1.408 . S
C1178 C1176 1.363 . S
C1178 C1179 1.370 . S
C1178 C1182 1.524 . S
C1179 C1171 1.503 1_556 S
C1179 C1178 1.370 . S
C1179 C1180 1.403 . S
C1180 C1179 1.403 . S
C1180 C1181 1.404 . S
C1180 C1183 1.539 . S
C1181 C1177 1.408 . S
C1181 C1180 1.404 . S
C1181 H1193 0.930 . S
C1182 C1178 1.524 . S
C1182 H1194 0.956 1_556 S
C1182 H1195 0.961 1_556 S
C1182 H1196 0.961 . S
C1183 C1180 1.539 . S
C1183 H1197 0.958 . S
C1183 H1198 0.961 . S
C1183 H1199 0.960 . S
H1184 C1168 0.931 . S
H1185 C1173 0.929 . S
H1186 C1174 0.960 1_556 S
H1187 C1174 0.962 . S
H1188 C1174 0.960 . S
H1189 C1175 0.961 . S
H1190 C1175 0.961 1_556 S
H1191 C1175 0.961 . S
H1192 C1176 0.931 . S
H1193 C1181 0.930 . S
H1194 C1182 0.956 1_554 S
H1195 C1182 0.961 1_554 S
H1196 C1182 0.961 . S
H1197 C1183 0.958 . S
H1198 C1183 0.961 . S
H1199 C1183 0.960 . S
C1200 C1201 1.391 . S
C1200 C1202 1.394 . S
C1200 H1216 0.931 . S
C1201 C1200 1.391 . S
C1201 C1205 1.376 . S
C1202 C1200 1.394 . S
C1202 C1203 1.369 . S
C1202 C1206 1.531 . S
C1203 C1202 1.369 . S
C1203 C1204 1.410 . S
C1203 C1211 1.503 1_556 S
C1204 C1203 1.410 . S
C1204 C1205 1.392 . S
C1204 C1207 1.511 . S
C1205 C1201 1.376 . S
C1205 C1204 1.392 . S
C1205 H1217 0.929 . S
C1206 C1202 1.531 . S
C1206 H1218 0.960 1_556 S
C1206 H1219 0.962 . S
C1206 H1220 0.960 . S
C1207 C1204 1.511 . S
C1207 H1221 0.961 . S
C1207 H1222 0.961 . S
C1207 H1223 0.961 . S
C1208 C1209 1.370 . S
C1208 C1210 1.363 . S
C1208 H1224 0.931 . S
C1209 C1208 1.370 . S
C1209 C1213 1.408 . S
C1210 C1208 1.363 . S
C1210 C1211 1.370 . S
C1210 C1214 1.524 . S
C1211 C1203 1.503 1_554 S
C1211 C1210 1.370 . S
C1211 C1212 1.403 . S
C1212 C1211 1.403 . S
C1212 C1213 1.404 . S
C1212 C1215 1.539 . S
C1213 C1209 1.408 . S
C1213 C1212 1.404 . S
C1213 H1225 0.930 . S
C1214 C1210 1.524 . S
C1214 H1226 0.956 . S
C1214 H1227 0.961 1_554 S
C1214 H1228 0.961 . S
C1215 C1212 1.539 . S
C1215 H1229 0.958 . S
C1215 H1230 0.961 . S
C1215 H1231 0.960 . S
H1216 C1200 0.931 . S
H1217 C1205 0.929 . S
H1218 C1206 0.960 1_554 S
H1219 C1206 0.962 . S
H1220 C1206 0.960 . S
H1221 C1207 0.961 . S
H1222 C1207 0.961 . S
H1223 C1207 0.961 . S
H1224 C1208 0.931 . S
H1225 C1213 0.930 . S
H1226 C1214 0.956 . S
H1227 C1214 0.961 1_556 S
H1228 C1214 0.961 . S
H1229 C1215 0.958 . S
H1230 C1215 0.961 . S
H1231 C1215 0.960 . S
C209 C10 1.592 . S
C217 C42 1.597 . S
C241 C5 1.585 . S
C249 C23 1.580 . S
C273 C18 1.589 . S
C281 C30 1.589 . S
C305 C29 1.602 . S
C313 C43 1.589 . S
C337 C62 1.570 . S
C345 C70 1.585 . S
C369 C75 1.572 . S
C377 C81 1.591 . S
C401 C82 1.561 . S
C409 C96 1.585 . S
C433 C101 1.560 . S
C441 C57 1.585 . S
C465 C108 1.561 . S
C473 C146 1.584 . S
C497 C107 1.598 . S
C505 C127 1.586 . S
C529 C122 1.574 . S
C537 C134 1.576 . S
C561 C147 1.600 . S
C569 C133 1.598 . S
C593 C174 1.591 . S
C601 C166 1.590 . S
C625 C187 1.589 . S
C633 C179 1.582 . S
C657 C192 1.600 . S
C665 C200 1.598 . S
C689 C205 1.598 . S
C697 C161 1.598 . S
C721 C4 1.150 . S
C729 C199 1.126 . S
C753 C17 1.126 . S
C761 C160 1.141 . S
C785 C173 1.112 . S
C793 C36 1.127 . S
C817 C49 1.129 . S
C825 C186 1.141 . S
C849 C121 1.111 . S
C857 C56 1.139 . S
C881 C140 1.128 . S
C889 C69 1.122 . S
C913 C88 1.127 . S
C921 C153 1.141 . S
C945 C95 1.106 . S
C953 C114 1.134 . S
C977 C3 1.682 . S
C985 C83 1.672 . S
C1009 C94 1.682 . S
C1017 C16 1.668 . S
C1041 C55 1.683 . S
C1049 C31 1.671 . S
C1073 C68 1.671 . S
C1081 C44 1.662 . S
C1105 C109 1.683 . S
C1113 C185 1.669 . S
C1137 C120 1.666 . S
C1145 C198 1.661 . S
C1169 C159 1.651 . S
C1177 C135 1.673 . S
C1201 C148 1.672 . S
C1209 C172 1.676 . S
