# Generated by pormake.
# Topology ske, (6)-cn, num edge types: 1
# Building blocks:
#     Node 0, Type 0, BuildingBlock: BETFEN_clean_sbu_0, # of connection points: 6
#     Node 1, Type 0, BuildingBlock: BETFEN_clean_sbu_0, # of connection points: 6
#     Node 2, Type 0, BuildingBlock: BETFEN_clean_sbu_0, # of connection points: 6
#     Node 3, Type 0, BuildingBlock: BETFEN_clean_sbu_0, # of connection points: 6
#     Node 4, Type 0, BuildingBlock: BETFEN_clean_sbu_0, # of connection points: 6
#     Node 5, Type 0, BuildingBlock: BETFEN_clean_sbu_0, # of connection points: 6
#     Node 6, Type 0, BuildingBlock: BETFEN_clean_sbu_0, # of connection points: 6
#     Node 7, Type 0, BuildingBlock: BETFEN_clean_sbu_0, # of connection points: 6
#     Edge 8, Type (0, 0), BuildingBlock: XUDNAN_clean_linker_2, # of connection points: 2
#     Edge 9, Type (0, 0), BuildingBlock: XUDNAN_clean_linker_2, # of connection points: 2
#     Edge 10, Type (0, 0), BuildingBlock: XUDNAN_clean_linker_2, # of connection points: 2
#     Edge 11, Type (0, 0), BuildingBlock: XUDNAN_clean_linker_2, # of connection points: 2
#     Edge 12, Type (0, 0), BuildingBlock: XUDNAN_clean_linker_2, # of connection points: 2
#     Edge 13, Type (0, 0), BuildingBlock: XUDNAN_clean_linker_2, # of connection points: 2
#     Edge 14, Type (0, 0), BuildingBlock: XUDNAN_clean_linker_2, # of connection points: 2
#     Edge 15, Type (0, 0), BuildingBlock: XUDNAN_clean_linker_2, # of connection points: 2
#     Edge 16, Type (0, 0), BuildingBlock: XUDNAN_clean_linker_2, # of connection points: 2
#     Edge 17, Type (0, 0), BuildingBlock: XUDNAN_clean_linker_2, # of connection points: 2
#     Edge 18, Type (0, 0), BuildingBlock: XUDNAN_clean_linker_2, # of connection points: 2
#     Edge 19, Type (0, 0), BuildingBlock: XUDNAN_clean_linker_2, # of connection points: 2
#     Edge 20, Type (0, 0), BuildingBlock: XUDNAN_clean_linker_2, # of connection points: 2
#     Edge 21, Type (0, 0), BuildingBlock: XUDNAN_clean_linker_2, # of connection points: 2
#     Edge 22, Type (0, 0), BuildingBlock: XUDNAN_clean_linker_2, # of connection points: 2
#     Edge 23, Type (0, 0), BuildingBlock: XUDNAN_clean_linker_2, # of connection points: 2
#     Edge 24, Type (0, 0), BuildingBlock: XUDNAN_clean_linker_2, # of connection points: 2
#     Edge 25, Type (0, 0), BuildingBlock: XUDNAN_clean_linker_2, # of connection points: 2
#     Edge 26, Type (0, 0), BuildingBlock: XUDNAN_clean_linker_2, # of connection points: 2
#     Edge 27, Type (0, 0), BuildingBlock: XUDNAN_clean_linker_2, # of connection points: 2
#     Edge 28, Type (0, 0), BuildingBlock: XUDNAN_clean_linker_2, # of connection points: 2
#     Edge 29, Type (0, 0), BuildingBlock: XUDNAN_clean_linker_2, # of connection points: 2
#     Edge 30, Type (0, 0), BuildingBlock: XUDNAN_clean_linker_2, # of connection points: 2
#     Edge 31, Type (0, 0), BuildingBlock: XUDNAN_clean_linker_2, # of connection points: 2
# Relax obj value: 0.204
# Max RMSD: 0.206
# Mean RMSD: 0.199
data_MOF--net-ske--node1-BETFEN_clean_sbu_0--edge1-XUDNAN_clean_linker_2
_symmetry_space_group_name_H-M    P1
_symmetry_Int_Tables_number       1
_symmetry_cell_setting            triclinic
loop_
_symmetry_equiv_pos_as_xyz
'x, y, z'
_cell_length_a     103.55803
_cell_length_b     29.658295
_cell_length_c     15.73175
_cell_angle_alpha  89.872078
_cell_angle_beta   89.971793
_cell_angle_gamma 84.651555
loop_
_atom_site_label
_atom_site_type_symbol
_atom_site_fract_x
_atom_site_fract_y
_atom_site_fract_z
_atom_type_partial_charge
Pr0 Pr 0.1612 0.25374 0.50545 0.0
Pr1 Pr 0.12886 0.25482 0.50047 0.0
C2 C 0.18539 0.27934 0.51711 0.0
C3 C 0.1981 0.26836 0.55892 0.0
C4 C 0.20536 0.22647 0.54644 0.0
C5 C 0.21775 0.21817 0.5816 0.0
C6 C 0.22314 0.25128 0.63101 0.0
C7 C 0.21578 0.29302 0.64398 0.0
C8 C 0.20342 0.30144 0.60814 0.0
C9 C 0.15336 0.16512 0.51465 0.0
C10 C 0.14486 0.24976 0.68839 0.0
C11 C 0.10466 0.22926 0.4962 0.0
C12 C 0.09122 0.23432 0.46339 0.0
C13 C 0.08285 0.27392 0.47652 0.0
C14 C 0.06948 0.27387 0.46141 0.0
C15 C 0.06437 0.23419 0.43375 0.0
C16 C 0.07288 0.19588 0.41498 0.0
C17 C 0.08616 0.196 0.42944 0.0
C18 C 0.13663 0.34313 0.48858 0.0
C19 C 0.14571 0.25434 0.31736 0.0
O20 O 0.17577 0.2968 0.56447 0.0
O21 O 0.18184 0.25145 0.45873 0.0
O22 O 0.14628 0.20211 0.51206 0.0
O23 O 0.16545 0.17371 0.5125 0.0
O24 O 0.13375 0.24609 0.64772 0.0
O25 O 0.15589 0.25552 0.64917 0.0
O26 O 0.11397 0.21118 0.44692 0.0
O27 O 0.10832 0.25953 0.54955 0.0
O28 O 0.1438 0.30661 0.49611 0.0
O29 O 0.12459 0.33422 0.48465 0.0
O30 O 0.15644 0.26081 0.35992 0.0
O31 O 0.13446 0.24874 0.35482 0.0
H32 H 0.20156 0.20028 0.5085 0.0
H33 H 0.22318 0.18593 0.56871 0.0
H34 H 0.2195 0.31913 0.68247 0.0
H35 H 0.19805 0.3341 0.61836 0.0
H36 H 0.08648 0.30399 0.50284 0.0
H37 H 0.06307 0.30364 0.4772 0.0
H38 H 0.06913 0.16484 0.39399 0.0
H39 H 0.09238 0.16503 0.41923 0.0
Pr40 Pr 0.87158 0.2562 0.51003 0.0
Pr41 Pr 0.90424 0.25198 0.50201 0.0
C42 C 0.84705 0.23341 0.51924 0.0
C43 C 0.83465 0.23832 0.56742 0.0
C44 C 0.82421 0.26869 0.53997 0.0
C45 C 0.81187 0.26788 0.57654 0.0
C46 C 0.80971 0.23642 0.64081 0.0
C47 C 0.82033 0.2079 0.67127 0.0
C48 C 0.83261 0.20869 0.63489 0.0
C49 C 0.88075 0.34258 0.52247 0.0
C50 C 0.88827 0.25777 0.6913 0.0
C51 C 0.92858 0.27658 0.49674 0.0
C52 C 0.94201 0.26487 0.46755 0.0
C53 C 0.94751 0.21984 0.46556 0.0
C54 C 0.96083 0.21028 0.45184 0.0
C55 C 0.96893 0.24554 0.44092 0.0
C56 C 0.9632 0.29038 0.43716 0.0
C57 C 0.94985 0.29987 0.45028 0.0
C58 C 0.89577 0.16492 0.49343 0.0
C59 C 0.88691 0.25557 0.3202 0.0
O60 O 0.85699 0.20917 0.55339 0.0
O61 O 0.85031 0.26793 0.47433 0.0
O62 O 0.88713 0.30474 0.51348 0.0
O63 O 0.86849 0.33648 0.52784 0.0
O64 O 0.89926 0.26167 0.64901 0.0
O65 O 0.87707 0.25247 0.6539 0.0
O66 O 0.91977 0.29039 0.4402 0.0
O67 O 0.92426 0.25159 0.55752 0.0
O68 O 0.88881 0.202 0.50044 0.0
O69 O 0.90793 0.17254 0.48893 0.0
O70 O 0.87599 0.2519 0.36305 0.0
O71 O 0.89833 0.25849 0.3571 0.0
H72 H 0.82543 0.29175 0.48772 0.0
H73 H 0.8039 0.29019 0.55141 0.0
H74 H 0.81907 0.18383 0.72179 0.0
H75 H 0.84038 0.18473 0.65766 0.0
H76 H 0.94163 0.1922 0.47799 0.0
H77 H 0.96486 0.17524 0.45293 0.0
H78 H 0.96909 0.3184 0.42921 0.0
H79 H 0.94576 0.33485 0.45132 0.0
Pr80 Pr 0.12987 0.75604 0.53298 0.0
Pr81 Pr 0.15863 0.75344 0.53689 0.0
C82 C 0.10441 0.74364 0.54082 0.0
C83 C 0.09108 0.7462 0.57496 0.0
C84 C 0.08469 0.78702 0.60456 0.0
C85 C 0.07147 0.78974 0.62491 0.0
C86 C 0.06436 0.75175 0.61576 0.0
C87 C 0.07091 0.7107 0.58825 0.0
C88 C 0.08411 0.70801 0.56818 0.0
C89 C 0.13863 0.84209 0.52065 0.0
C90 C 0.14456 0.75258 0.72128 0.0
C91 C 0.18415 0.7655 0.52161 0.0
C92 C 0.19641 0.76293 0.47184 0.0
C93 C 0.20615 0.72713 0.48493 0.0
C94 C 0.21861 0.72893 0.45064 0.0
C95 C 0.22163 0.76679 0.40317 0.0
C96 C 0.21168 0.80131 0.3864 0.0
C97 C 0.19928 0.79952 0.42052 0.0
C98 C 0.14948 0.66663 0.53596 0.0
C99 C 0.14387 0.75019 0.34888 0.0
O100 O 0.1134 0.7135 0.56945 0.0
O101 O 0.10886 0.78033 0.51104 0.0
O102 O 0.1432 0.81192 0.57251 0.0
O103 O 0.12946 0.82825 0.47445 0.0
O104 O 0.15498 0.76517 0.68305 0.0
O105 O 0.13441 0.7425 0.67708 0.0
O106 O 0.17479 0.79659 0.50232 0.0
O107 O 0.17996 0.72833 0.55125 0.0
O108 O 0.1453 0.69994 0.49074 0.0
O109 O 0.15884 0.67744 0.58442 0.0
O110 O 0.134 0.73721 0.39227 0.0
O111 O 0.15404 0.76393 0.38886 0.0
H112 H 0.08982 0.81712 0.60965 0.0
H113 H 0.06671 0.82203 0.64501 0.0
H114 H 0.06581 0.68064 0.58154 0.0
H115 H 0.08881 0.67628 0.54474 0.0
H116 H 0.20432 0.69865 0.52498 0.0
H117 H 0.22604 0.70187 0.46516 0.0
H118 H 0.21359 0.8306 0.3488 0.0
H119 H 0.19209 0.82786 0.40949 0.0
Pr120 Pr 0.90361 0.75087 0.53932 0.0
Pr121 Pr 0.87462 0.75664 0.53736 0.0
C122 C 0.92909 0.76287 0.52797 0.0
C123 C 0.9424 0.75843 0.56419 0.0
C124 C 0.95103 0.71988 0.54837 0.0
C125 C 0.96413 0.71896 0.57157 0.0
C126 C 0.96896 0.75675 0.61038 0.0
C127 C 0.9602 0.79486 0.62761 0.0
C128 C 0.94712 0.7956 0.60513 0.0
C129 C 0.894 0.66584 0.56347 0.0
C130 C 0.88851 0.74965 0.72187 0.0
C131 C 0.84859 0.75473 0.525 0.0
C132 C 0.83638 0.75704 0.47525 0.0
C133 C 0.82874 0.79859 0.47029 0.0
C134 C 0.81653 0.80155 0.43265 0.0
C135 C 0.81158 0.76316 0.39749 0.0
C136 C 0.81915 0.72124 0.40281 0.0
C137 C 0.83144 0.71818 0.44163 0.0
C138 C 0.88503 0.84101 0.54794 0.0
C139 C 0.88918 0.75019 0.35016 0.0
O140 O 0.92043 0.79283 0.56104 0.0
O141 O 0.92415 0.72694 0.49852 0.0
O142 O 0.88971 0.69578 0.51082 0.0
O143 O 0.9037 0.67963 0.60511 0.0
O144 O 0.87913 0.73442 0.67683 0.0
O145 O 0.89823 0.76728 0.68341 0.0
O146 O 0.85657 0.71781 0.52664 0.0
O147 O 0.85447 0.79165 0.53074 0.0
O148 O 0.88871 0.80882 0.49925 0.0
O149 O 0.87599 0.82927 0.59817 0.0
O150 O 0.90028 0.75283 0.39046 0.0
O151 O 0.87811 0.74943 0.39136 0.0
H152 H 0.94777 0.69083 0.51597 0.0
H153 H 0.97048 0.68873 0.5582 0.0
H154 H 0.96348 0.82507 0.65557 0.0
H155 H 0.94082 0.82618 0.61691 0.0
H156 H 0.83204 0.82898 0.49765 0.0
H157 H 0.81087 0.83416 0.43253 0.0
H158 H 0.81565 0.69096 0.37645 0.0
H159 H 0.83698 0.68544 0.4461 0.0
Pr160 Pr 0.65985 0.74565 0.04141 0.0
Pr161 Pr 0.6312 0.74859 0.04673 0.0
C162 C 0.68559 0.7534 0.05502 0.0
C163 C 0.69736 0.75471 0.1083 0.0
C164 C 0.70678 0.71729 0.10987 0.0
C165 C 0.71899 0.72089 0.14608 0.0
C166 C 0.72208 0.76212 0.18097 0.0
C167 C 0.71238 0.79867 0.18383 0.0
C168 C 0.7002 0.7951 0.14763 0.0
C169 C 0.65085 0.66049 0.02457 0.0
C170 C 0.64555 0.74919 0.229 0.0
C171 C 0.60571 0.73522 0.03747 0.0
C172 C 0.59206 0.74417 1.00867 0.0
C173 C 0.58577 0.78821 1.00833 0.0
C174 C 0.57226 0.79517 0.99956 0.0
C175 C 0.56467 0.7583 0.99159 0.0
C176 C 0.5711 0.71447 0.98566 0.0
C177 C 0.58465 0.70753 0.99432 0.0
C178 C 0.64032 0.83564 0.0472 0.0
C179 C 0.64591 0.75231 0.8571 0.0
O180 O 0.6768 0.78808 0.05574 0.0
O181 O 0.68073 0.71473 0.04426 0.0
O182 O 0.64652 0.68951 0.07901 0.0
O183 O 0.65965 0.67548 0.9764 0.0
O184 O 0.63553 0.73347 0.19144 0.0
O185 O 0.6552 0.76212 0.1835 0.0
O186 O 0.61447 0.7126 0.99024 0.0
O187 O 0.61045 0.76465 0.08754 0.0
O188 O 0.64451 0.80289 1.00093 0.0
O189 O 0.63078 0.82437 0.09356 0.0
O190 O 0.65619 0.76234 0.8997 0.0
O191 O 0.63544 0.74092 0.8975 0.0
H192 H 0.70493 0.68583 0.0793 0.0
H193 H 0.72625 0.69219 0.14233 0.0
H194 H 0.71436 0.83069 0.21161 0.0
H195 H 0.69322 0.82467 0.14737 0.0
H196 H 0.5912 0.81718 1.01891 0.0
H197 H 0.5677 0.82951 1.00234 0.0
H198 H 0.56563 0.68526 0.97968 0.0
H199 H 0.58926 0.6732 0.99476 0.0
Pr200 Pr 0.37371 0.754 0.03587 0.0
Pr201 Pr 0.40261 0.74796 0.04027 0.0
C202 C 0.3483 0.74133 0.05435 0.0
C203 C 0.3361 0.74953 0.10416 0.0
C204 C 0.32834 0.79079 0.09687 0.0
C205 C 0.31611 0.79656 0.13513 0.0
C206 C 0.31129 0.76147 0.18276 0.0
C207 C 0.3191 0.72019 0.1905 0.0
C208 C 0.33134 0.71428 0.15145 0.0
C209 C 0.38349 0.83869 0.02998 0.0
C210 C 0.38891 0.75399 0.22559 0.0
C211 C 0.42813 0.75409 1.01904 0.0
C212 C 0.44217 0.75738 1.00736 0.0
C213 C 0.45092 0.71821 1.00279 0.0
C214 C 0.46429 0.72172 0.99675 0.0
C215 C 0.46908 0.76447 0.99567 0.0
C216 C 0.46026 0.80349 0.9966 0.0
C217 C 0.44696 0.8 1.00255 0.0
C218 C 0.3924 0.66404 0.04153 0.0
C219 C 0.38763 0.75333 0.85203 0.0
O220 O 0.35768 0.71286 0.08381 0.0
O221 O 0.35249 0.77521 1.01233 0.0
O222 O 0.38759 0.80662 0.07878 0.0
O223 O 0.37378 0.82811 0.98455 0.0
O224 O 0.39971 0.76067 0.18534 0.0
O225 O 0.37816 0.74733 0.1838 0.0
O226 O 0.41958 0.78939 1.01447 0.0
O227 O 0.42338 0.71578 0.03579 0.0
O228 O 0.38871 0.69682 0.99365 0.0
O229 O 0.4015 0.67428 0.09267 0.0
O230 O 0.37731 0.74066 0.89104 0.0
O231 O 0.39779 0.76411 0.89555 0.0
H232 H 0.33153 0.81844 0.05967 0.0
H233 H 0.31032 0.82848 0.12555 0.0
H234 H 0.3158 0.69246 0.22698 0.0
H235 H 0.33698 0.68178 0.15706 0.0
H236 H 0.44748 0.68486 1.00569 0.0
H237 H 0.47088 0.69112 0.99668 0.0
H238 H 0.46368 0.83691 0.99483 0.0
H239 H 0.44046 0.83077 1.00541 0.0
Pr240 Pr 0.62914 0.24935 0.99203 0.0
Pr241 Pr 0.65726 0.2523 0.99837 0.0
C242 C 0.6039 0.23328 1.00118 0.0
C243 C 0.59041 0.2419 0.03279 0.0
C244 C 0.58196 0.27729 0.99863 0.0
C245 C 0.5687 0.28057 1.01771 0.0
C246 C 0.5637 0.24886 0.07182 0.0
C247 C 0.57212 0.21434 0.10808 0.0
C248 C 0.58536 0.2107 0.08826 0.0
C249 C 0.6363 0.33802 0.98014 0.0
C250 C 0.64323 0.25055 0.18132 0.0
C251 C 0.68248 0.2685 0.98114 0.0
C252 C 0.69503 0.25824 0.93589 0.0
C253 C 0.70366 0.22134 0.96137 0.0
C254 C 0.71608 0.21448 0.92622 0.0
C255 C 0.72024 0.24401 0.86377 0.0
C256 C 0.7116 0.28097 0.83801 0.0
C257 C 0.69915 0.28805 0.87385 0.0
C258 C 0.64969 0.16327 1.00457 0.0
C259 C 0.64324 0.2428 0.80989 0.0
O260 O 0.61286 0.21244 0.04949 0.0
O261 O 0.60836 0.26228 0.9487 0.0
O262 O 0.64124 0.30901 0.03267 0.0
O263 O 0.62752 0.32172 0.93407 0.0
O264 O 0.65309 0.2672 0.14319 0.0
O265 O 0.63369 0.23635 0.13625 0.0
O266 O 0.67298 0.29252 0.94266 0.0
O267 O 0.67847 0.23759 0.03149 0.0
O268 O 0.64514 0.19414 0.95499 0.0
O269 O 0.6587 0.17742 0.05198 0.0
O270 O 0.63394 0.22656 0.85404 0.0
O271 O 0.65275 0.26077 0.8498 0.0
H272 H 0.58548 0.30162 0.95493 0.0
H273 H 0.56232 0.30755 0.98948 0.0
H274 H 0.56839 0.18945 0.14972 0.0
H275 H 0.59156 0.18257 0.11418 0.0
H276 H 0.70097 0.19819 1.01023 0.0
H277 H 0.72251 0.18633 0.94964 0.0
H278 H 0.7144 0.30431 0.78984 0.0
H279 H 0.69283 0.31731 0.85391 0.0
Pr280 Pr 0.40291 0.25028 0.99566 0.0
Pr281 Pr 0.37417 0.25351 1.00261 0.0
C282 C 0.42832 0.26377 1.00186 0.0
C283 C 0.44177 0.258 0.03527 0.0
C284 C 0.45059 0.22251 1.00588 0.0
C285 C 0.46379 0.22132 0.02569 0.0
C286 C 0.46852 0.2557 0.07508 0.0
C287 C 0.45962 0.29056 0.10619 0.0
C288 C 0.44641 0.2917 0.08648 0.0
C289 C 0.39379 0.164 0.99904 0.0
C290 C 0.38831 0.24823 0.18623 0.0
C291 C 0.34852 0.24438 0.98957 0.0
C292 C 0.33673 0.24523 0.93593 0.0
C293 C 0.32684 0.28077 0.94462 0.0
C294 C 0.31472 0.27817 0.90639 0.0
C295 C 0.31222 0.2398 0.859 0.0
C296 C 0.32236 0.20544 0.84655 0.0
C297 C 0.33445 0.208 0.88481 0.0
C298 C 0.38364 0.33843 1.00735 0.0
C299 C 0.38843 0.24866 0.81397 0.0
O300 O 0.41935 0.29008 0.041 0.0
O301 O 0.4238 0.23043 0.96056 0.0
O302 O 0.38961 0.19713 0.04429 0.0
O303 O 0.4032 0.17449 0.95062 0.0
O304 O 0.37799 0.23796 0.14439 0.0
O305 O 0.39874 0.25939 0.14505 0.0
O306 O 0.35752 0.21071 0.98103 0.0
O307 O 0.35311 0.28266 1.00855 0.0
O308 O 0.38748 0.30713 0.95657 0.0
O309 O 0.37478 0.32628 0.05851 0.0
O310 O 0.39853 0.26407 0.85096 0.0
O311 O 0.3787 0.23635 0.85987 0.0
H312 H 0.44739 0.19632 0.96521 0.0
H313 H 0.47031 0.19364 1.00148 0.0
H314 H 0.4629 0.31802 0.14322 0.0
H315 H 0.43993 0.31999 0.10871 0.0
H316 H 0.32826 0.3097 0.9843 0.0
H317 H 0.30712 0.30512 0.91774 0.0
H318 H 0.32086 0.17582 0.80899 0.0
H319 H 0.34181 0.17993 0.87685 0.0
H320 H 0.24215 0.31024 0.65424 0.0
H321 H 0.23394 0.17085 0.69684 0.0
H322 H 0.25572 0.15365 0.75697 0.0
H323 H 0.27566 0.28693 0.59823 0.0
H324 H 0.28093 0.33518 0.65335 0.0
H325 H 0.26467 0.3372 0.61201 0.0
H326 H 0.25545 0.35724 0.7617 0.0
H327 H 0.27169 0.35532 0.80347 0.0
H328 H 0.26015 0.32073 0.85036 0.0
H329 H 0.27809 0.15058 0.81202 0.0
H330 H 0.30001 0.16213 0.86212 0.0
H331 H 0.29408 0.3038 0.78815 0.0
C332 C 0.24485 0.2762 0.67703 0.0
C333 C 0.23627 0.24179 0.66968 0.0
C334 C 0.24035 0.19762 0.69961 0.0
C335 C 0.25269 0.18753 0.73468 0.0
C336 C 0.26087 0.22202 0.74049 0.0
C337 C 0.25715 0.26554 0.71306 0.0
C338 C 0.26791 0.2962 0.72741 0.0
C339 C 0.27256 0.31497 0.64269 0.0
C340 C 0.26354 0.33464 0.78944 0.0
C341 C 0.27823 0.26288 0.76685 0.0
C342 C 0.27391 0.22034 0.7735 0.0
C343 C 0.28162 0.18369 0.80699 0.0
C344 C 0.29413 0.19055 0.83456 0.0
C345 C 0.29889 0.23373 0.82817 0.0
C346 C 0.29075 0.27042 0.7942 0.0
H347 H 0.73733 0.30631 0.81293 0.0
H348 H 0.73324 0.16188 0.82673 0.0
H349 H 0.75537 0.1458 0.77246 0.0
H350 H 0.75584 0.3003 0.61401 0.0
H351 H 0.76606 0.34343 0.64477 0.0
H352 H 0.74977 0.3447 0.68564 0.0
H353 H 0.75864 0.34537 0.83947 0.0
H354 H 0.77494 0.34406 0.79901 0.0
H355 H 0.77075 0.30134 0.87315 0.0
H356 H 0.77774 0.1439 0.72036 0.0
H357 H 0.79946 0.15646 0.66782 0.0
H358 H 0.78966 0.30193 0.68099 0.0
C359 C 0.74101 0.27131 0.80356 0.0
C360 C 0.73348 0.23537 0.8257 0.0
C361 C 0.73881 0.1901 0.81275 0.0
C362 C 0.75138 0.18051 0.78112 0.0
C363 C 0.75854 0.21647 0.76115 0.0
C364 C 0.75359 0.261 0.77098 0.0
C365 C 0.76351 0.29298 0.74372 0.0
C366 C 0.75849 0.32207 0.6675 0.0
C367 C 0.76717 0.32268 0.81831 0.0
C368 C 0.7748 0.25922 0.71828 0.0
C369 C 0.77163 0.21536 0.72905 0.0
C370 C 0.78037 0.17807 0.71159 0.0
C371 C 0.79274 0.18561 0.68243 0.0
C372 C 0.79637 0.23016 0.67124 0.0
C373 C 0.78718 0.26749 0.68869 0.0
H374 H 0.29273 0.70005 0.2059 0.0
H375 H 0.30025 0.83937 0.25583 0.0
H376 H 0.27848 0.85429 0.31658 0.0
H377 H 0.25931 0.72166 0.1504 0.0
H378 H 0.25412 0.67267 0.2039 0.0
H379 H 0.27045 0.6717 0.16403 0.0
H380 H 0.27942 0.65085 0.31403 0.0
H381 H 0.2631 0.65169 0.3543 0.0
H382 H 0.2744 0.68642 0.40309 0.0
H383 H 0.25606 0.85607 0.36822 0.0
H384 H 0.23393 0.84388 0.41295 0.0
H385 H 0.24031 0.70293 0.33618 0.0
C386 C 0.28988 0.73354 0.23064 0.0
C387 C 0.29827 0.76872 0.22446 0.0
C388 C 0.294 0.81207 0.25728 0.0
C389 C 0.28165 0.82088 0.29284 0.0
C390 C 0.27363 0.78588 0.29679 0.0
C391 C 0.27754 0.74292 0.26748 0.0
C392 C 0.26682 0.71167 0.28003 0.0
C393 C 0.26242 0.69336 0.19448 0.0
C394 C 0.2712 0.67286 0.34153 0.0
C395 C 0.25628 0.7442 0.31952 0.0
C396 C 0.26051 0.78672 0.32851 0.0
C397 C 0.2526 0.82293 0.36163 0.0
C398 C 0.23998 0.8157 0.38615 0.0
C399 C 0.23525 0.77262 0.37715 0.0
C400 C 0.24362 0.73623 0.34411 0.0
H401 H 0.73965 0.70355 0.27082 0.0
H402 H 0.73527 0.83529 0.14735 0.0
H403 H 0.75757 0.84784 0.18739 0.0
H404 H 0.75879 0.73705 0.44711 0.0
H405 H 0.76915 0.68475 0.45125 0.0
H406 H 0.7528 0.68504 0.4121 0.0
H407 H 0.76145 0.64808 0.27177 0.0
H408 H 0.77784 0.64774 0.31044 0.0
H409 H 0.77336 0.67482 0.21068 0.0
H410 H 0.78002 0.84659 0.2359 0.0
H411 H 0.80171 0.83364 0.29827 0.0
H412 H 0.79218 0.70384 0.3975 0.0
C413 C 0.74342 0.73491 0.25197 0.0
C414 C 0.73561 0.7687 0.20673 0.0
C415 C 0.74091 0.80933 0.18354 0.0
C416 C 0.75363 0.81663 0.20526 0.0
C417 C 0.76102 0.78295 0.24996 0.0
C418 C 0.75618 0.74294 0.27352 0.0
C419 C 0.76627 0.71303 0.32321 0.0
C420 C 0.76146 0.70448 0.4138 0.0
C421 C 0.76994 0.66827 0.2762 0.0
C422 C 0.77748 0.74274 0.32366 0.0
C423 C 0.77416 0.78268 0.28032 0.0
C424 C 0.78273 0.81565 0.2707 0.0
C425 C 0.79503 0.80804 0.30714 0.0
C426 C 0.79868 0.76808 0.35439 0.0
C427 C 0.78977 0.73468 0.36168 0.0
H428 H 0.13873 0.91141 0.63885 0.0
H429 H 0.14716 0.87686 0.37588 0.0
H430 H 0.15078 0.95642 0.34527 0.0
H431 H 0.12098 0.0183 0.59327 0.0
H432 H 0.12674 0.04751 0.68403 0.0
H433 H 0.1257 0.98722 0.68864 0.0
H434 H 0.15003 0.97414 0.72838 0.0
H435 H 0.1511 0.03441 0.72561 0.0
H436 H 0.16191 0.99742 0.66147 0.0
H437 H 0.15263 0.03957 0.34065 0.0
H438 H 0.15453 0.12099 0.36535 0.0
H439 H 0.14446 0.10466 0.6302 0.0
C440 C 0.14171 0.92059 0.57561 0.0
C441 C 0.14296 0.88792 0.50984 0.0
C442 C 0.14637 0.90132 0.42715 0.0
C443 C 0.14835 0.94647 0.4091 0.0
C444 C 0.14669 0.97824 0.47425 0.0
C445 C 0.14356 0.96604 0.55609 0.0
C446 C 0.14199 0.00759 0.61325 0.0
C447 C 0.12802 0.0156 0.6468 0.0
C448 C 0.15185 0.00312 0.68652 0.0
C449 C 0.14495 0.04473 0.55111 0.0
C450 C 0.14749 0.02688 0.47109 0.0
C451 C 0.15061 0.05397 0.40292 0.0
C452 C 0.15155 0.10024 0.41728 0.0
C453 C 0.14933 0.11924 0.49891 0.0
C454 C 0.14584 0.09119 0.56659 0.0
H455 H 0.87354 0.41387 0.6268 0.0
H456 H 0.89922 0.37264 0.41801 0.0
H457 H 0.90532 0.45136 0.40504 0.0
H458 H 0.86193 0.52171 0.55538 0.0
H459 H 0.86236 0.54928 0.65722 0.0
H460 H 0.86039 0.48969 0.65185 0.0
H461 H 0.88052 0.47187 0.74836 0.0
H462 H 0.88245 0.53154 0.75504 0.0
H463 H 0.89571 0.49264 0.71878 0.0
H464 H 0.90673 0.53649 0.40609 0.0
H465 H 0.9061 0.61879 0.43481 0.0
H466 H 0.88108 0.60349 0.65162 0.0
C467 C 0.8806 0.42141 0.57927 0.0
C468 C 0.88591 0.38744 0.52318 0.0
C469 C 0.89515 0.39823 0.46197 0.0
C470 C 0.89859 0.44286 0.45387 0.0
C471 C 0.89296 0.47593 0.5091 0.0
C472 C 0.88445 0.46542 0.57224 0.0
C473 C 0.88013 0.50678 0.62538 0.0
C474 C 0.86532 0.51748 0.62221 0.0
C475 C 0.88499 0.50032 0.71735 0.0
C476 C 0.88703 0.54279 0.57993 0.0
C477 C 0.89436 0.52427 0.5128 0.0
C478 C 0.9012 0.5511 0.4593 0.0
C479 C 0.90075 0.59776 0.47576 0.0
C480 C 0.89361 0.61712 0.54545 0.0
C481 C 0.88665 0.58932 0.59813 0.0
H482 H 0.87925 0.91864 0.64467 0.0
H483 H 0.89511 0.87134 0.4018 0.0
H484 H 0.89712 0.94998 0.35781 0.0
H485 H 0.86124 0.02181 0.56964 0.0
H486 H 0.86535 0.05574 0.65884 0.0
H487 H 0.8645 0.99568 0.67194 0.0
H488 H 0.88806 0.98671 0.72927 0.0
H489 H 0.88891 0.0468 0.7177 0.0
H490 H 0.90084 0.00768 0.6669 0.0
H491 H 0.89768 0.03251 0.33875 0.0
H492 H 0.89939 0.1146 0.35284 0.0
H493 H 0.88389 0.11145 0.60838 0.0
C494 C 0.88313 0.92501 0.58231 0.0
C495 C 0.88692 0.88875 0.52642 0.0
C496 C 0.89212 0.8984 0.44576 0.0
C497 C 0.89322 0.94306 0.41984 0.0
C498 C 0.88924 0.97803 0.47553 0.0
C499 C 0.88453 0.96972 0.55569 0.0
C500 C 0.88181 0.01381 0.60467 0.0
C501 C 0.86736 0.02224 0.62763 0.0
C502 C 0.89042 0.01374 0.68435 0.0
C503 C 0.88565 0.04802 0.53922 0.0
C504 C 0.88978 0.02638 0.46495 0.0
C505 C 0.89436 0.04992 0.39623 0.0
C506 C 0.89521 0.09657 0.40449 0.0
C507 C 0.89144 0.11941 0.48053 0.0
C508 C 0.88637 0.09501 0.5484 0.0
H509 H 0.15558 0.58835 0.63046 0.0
H510 H 0.13798 0.63753 0.39354 0.0
H511 H 0.13488 0.55932 0.35176 0.0
H512 H 0.17215 0.48409 0.55094 0.0
H513 H 0.16855 0.45057 0.64218 0.0
H514 H 0.16991 0.5104 0.65378 0.0
H515 H 0.14689 0.52125 0.71949 0.0
H516 H 0.14553 0.46138 0.70927 0.0
H517 H 0.13344 0.50148 0.66226 0.0
H518 H 0.13337 0.47677 0.33494 0.0
H519 H 0.13145 0.39483 0.35058 0.0
H520 H 0.14956 0.39626 0.59861 0.0
C521 C 0.15111 0.5825 0.56975 0.0
C522 C 0.14714 0.61917 0.51484 0.0
C523 C 0.14114 0.61017 0.43657 0.0
C524 C 0.13939 0.56574 0.41201 0.0
C525 C 0.14355 0.53035 0.46675 0.0
C526 C 0.14909 0.53808 0.54462 0.0
C527 C 0.15192 0.4938 0.59326 0.0
C528 C 0.1665 0.48416 0.61109 0.0
C529 C 0.14397 0.49452 0.67598 0.0
C530 C 0.14728 0.46003 0.53 0.0
C531 C 0.14254 0.48212 0.45736 0.0
C532 C 0.13715 0.45905 0.39114 0.0
C533 C 0.13617 0.41248 0.40028 0.0
C534 C 0.14065 0.38913 0.47457 0.0
C535 C 0.14648 0.41306 0.53986 0.0
H536 H 0.65113 0.5878 0.13572 0.0
H537 H 0.64116 0.63153 0.87901 0.0
H538 H 0.63665 0.55377 0.84191 0.0
H539 H 0.66785 0.48197 0.07603 0.0
H540 H 0.66244 0.45013 0.16483 0.0
H541 H 0.66379 0.51 0.17538 0.0
H542 H 0.63972 0.52265 0.22167 0.0
H543 H 0.63835 0.46272 0.21237 0.0
H544 H 0.62736 0.50245 0.1548 0.0
H545 H 0.63407 0.47273 0.82946 0.0
H546 H 0.6326 0.39084 0.84252 0.0
H547 H 0.64511 0.39483 0.10553 0.0
C548 C 0.64762 0.58098 0.07265 0.0
C549 C 0.64615 0.61569 1.01045 0.0
C550 C 0.64207 0.60546 0.92761 0.0
C551 C 0.63957 0.5614 0.90593 0.0
C552 C 0.64138 0.52763 0.96757 0.0
C553 C 0.64525 0.5366 0.04936 0.0
C554 C 0.64698 0.49304 0.10147 0.0
C555 C 0.66111 0.48322 0.13118 0.0
C556 C 0.63754 0.49535 0.17707 0.0
C557 C 0.64347 0.45843 0.03599 0.0
C558 C 0.64026 0.47958 0.95945 0.0
C559 C 0.63653 0.45575 0.88903 0.0
C560 C 0.63574 0.40917 0.89713 0.0
C561 C 0.63873 0.38643 0.97481 0.0
C562 C 0.64288 0.41127 0.04509 0.0
H563 H 0.38827 0.90102 0.90898 0.0
H564 H 0.38419 0.88315 0.18066 0.0
H565 H 0.38583 0.96514 0.20236 0.0
H566 H 0.41256 0.98334 0.92748 0.0
H567 H 0.40662 0.01496 0.83529 0.0
H568 H 0.40501 0.95508 0.84201 0.0
H569 H 0.38021 0.97066 0.81815 0.0
H570 H 0.38171 0.03061 0.81243 0.0
H571 H 0.37082 0.00885 0.88841 0.0
H572 H 0.38569 0.05031 0.19184 0.0
H573 H 0.38787 0.13024 0.15393 0.0
H574 H 0.3947 0.09149 0.89098 0.0
C575 C 0.38787 0.91449 0.97298 0.0
C576 C 0.38605 0.88618 0.04334 0.0
C577 C 0.38565 0.9045 0.12628 0.0
C578 C 0.38649 0.95098 0.139 0.0
C579 C 0.38806 0.97831 0.06815 0.0
C580 C 0.38912 0.96055 0.987 0.0
C581 C 0.39139 0.99691 0.92224 0.0
C582 C 0.40469 0.98698 0.87921 0.0
C583 C 0.38038 0.00205 0.85642 0.0
C584 C 0.39115 0.0381 0.97926 0.0
C585 C 0.38899 0.02674 0.06303 0.0
C586 C 0.38763 0.05944 0.12674 0.0
C587 C 0.3888 0.10474 0.10455 0.0
C588 C 0.3916 0.11675 1.0198 0.0
C589 C 0.39273 0.08299 0.95644 0.0
H590 H 0.38444 0.40282 0.13008 0.0
H591 H 0.38834 0.38114 0.85849 0.0
H592 H 0.39025 0.46303 0.83727 0.0
H593 H 0.36625 0.51052 0.12503 0.0
H594 H 0.37463 0.53367 0.21283 0.0
H595 H 0.3734 0.47357 0.20689 0.0
H596 H 0.39845 0.45839 0.2156 0.0
H597 H 0.39975 0.51842 0.22263 0.0
H598 H 0.40838 0.48565 0.14065 0.0
H599 H 0.38965 0.54815 0.84529 0.0
H600 H 0.39078 0.62858 0.8833 0.0
H601 H 0.38992 0.59357 0.15083 0.0
C602 C 0.38579 0.41543 0.06631 0.0
C603 C 0.38614 0.38609 0.99571 0.0
C604 C 0.38807 0.40331 0.91324 0.0
C605 C 0.38907 0.4497 0.90062 0.0
C606 C 0.38845 0.47802 0.97144 0.0
C607 C 0.3872 0.46138 0.05289 0.0
C608 C 0.38745 0.49866 0.11841 0.0
C609 C 0.37467 0.50443 0.16875 0.0
C610 C 0.39921 0.48975 0.17783 0.0
C611 C 0.38885 0.539 0.0611 0.0
C612 C 0.38914 0.52649 0.97644 0.0
C613 C 0.38966 0.55821 0.91136 0.0
C614 C 0.3902 0.60377 0.93349 0.0
C615 C 0.39054 0.61686 1.01986 0.0
C616 C 0.38981 0.58413 0.08437 0.0
H617 H 0.65255 0.09596 0.12555 0.0
H618 H 0.64137 0.1214 0.86299 0.0
H619 H 0.63851 0.0401 0.84429 0.0
H620 H 0.66972 0.98599 0.09753 0.0
H621 H 0.66376 0.96265 0.19424 0.0
H622 H 0.66536 0.0225 0.18649 0.0
H623 H 0.64111 0.04004 0.22603 0.0
H624 H 0.63945 0.98026 0.23458 0.0
H625 H 0.62893 0.01506 0.16464 0.0
H626 H 0.63841 0.95469 0.85173 0.0
H627 H 0.63759 0.874 0.89047 0.0
H628 H 0.64632 0.90484 0.15213 0.0
C629 C 0.64952 0.08429 0.06415 0.0
C630 C 0.64736 0.11485 0.99531 0.0
C631 C 0.64315 0.09855 0.91642 0.0
C632 C 0.64155 0.05238 0.90513 0.0
C633 C 0.64392 0.02297 0.9739 0.0
C634 C 0.64753 0.03843 0.05241 0.0
C635 C 0.64877 1.00014 0.11708 0.0
C636 C 0.66273 0.99237 0.15083 0.0
C637 C 0.63898 0.00943 0.1899 0.0
C638 C 0.64538 0.96066 0.06267 0.0
C639 C 0.64287 0.97445 0.97979 0.0
C640 C 0.64016 0.94371 0.9167 0.0
C641 C 0.63977 0.89795 0.93914 0.0
C642 C 0.64175 0.88344 0.0243 0.0
C643 C 0.64462 0.91524 0.08675 0.0
H644 H 0.12899 0.28871 0.1886 0.0
H645 H 0.16535 0.2073 0.23455 0.0
H646 H 0.16821 0.19552 0.08056 0.0
H647 H 0.11803 0.22747 1.00807 0.0
H648 H 0.11199 0.27715 0.94891 0.0
H649 H 0.11235 0.27874 0.06339 0.0
H650 H 0.12598 0.34765 0.05781 0.0
H651 H 0.1256 0.34633 0.9433 0.0
H652 H 0.14091 0.34354 0.99826 0.0
H653 H 0.16751 0.19203 0.9248 0.0
H654 H 0.1639 0.20008 0.77092 0.0
H655 H 0.12822 0.28532 0.81716 0.0
C656 C 0.13748 0.26822 0.16587 0.0
C657 C 0.14694 0.24864 0.22371 0.0
C658 C 0.15803 0.22273 0.1916 0.0
C659 C 0.15972 0.21569 0.10418 0.0
C660 C 0.15033 0.23539 0.04885 0.0
C661 C 0.1395 0.26162 0.07774 0.0
C662 C 0.13133 0.28066 1.00286 0.0
C663 C 0.11761 0.26506 1.00603 0.0
C664 C 0.13093 0.33263 1.00043 0.0
C665 C 0.13905 0.25955 0.92802 0.0
C666 C 0.15001 0.2339 0.95685 0.0
C667 C 0.15896 0.21196 0.90137 0.0
C668 C 0.15681 0.21675 0.81396 0.0
C669 C 0.14576 0.24303 0.7819 0.0
C670 C 0.13664 0.26437 0.83985 0.0
H671 H 0.89966 0.2048 0.19158 0.0
H672 H 0.87175 0.32035 0.23783 0.0
H673 H 0.86995 0.33448 0.08327 0.0
H674 H 0.91604 0.24751 1.0115 0.0
H675 H 0.91722 0.19523 0.95251 0.0
H676 H 0.91663 0.19406 0.06696 0.0
H677 H 0.89678 0.1471 0.06126 0.0
H678 H 0.89737 0.14794 0.94676 0.0
H679 H 0.88267 0.16823 1.00125 0.0
H680 H 0.87105 0.33693 0.92567 0.0
H681 H 0.87406 0.32503 0.77139 0.0
H682 H 0.90086 0.20676 0.82089 0.0
C683 C 0.89322 0.2331 0.16874 0.0
C684 C 0.8859 0.26185 0.2266 0.0
C685 C 0.87741 0.29802 0.19459 0.0
C686 C 0.87635 0.30635 0.10694 0.0
C687 C 0.88367 0.27765 0.05144 0.0
C688 C 0.8918 0.24128 0.08058 0.0
C689 C 0.89799 0.2145 1.00602 0.0
C690 C 0.91286 0.21275 1.00949 0.0
C691 C 0.89344 0.1666 1.00371 0.0
C692 C 0.89253 0.24273 0.93096 0.0
C693 C 0.88419 0.27871 0.95918 0.0
C694 C 0.87758 0.30895 0.90284 0.0
C695 C 0.87937 0.30202 0.81536 0.0
C696 C 0.8878 0.26549 0.78441 0.0
C697 C 0.89456 0.23555 0.84301 0.0
H698 H 0.15512 0.79951 0.222 0.0
H699 H 0.13202 0.68661 0.26466 0.0
H700 H 0.13048 0.67509 0.11091 0.0
H701 H 0.13669 0.84169 0.03638 0.0
H702 H 0.15054 0.85952 0.98048 0.0
H703 H 0.15036 0.8587 0.09505 0.0
H704 H 0.17188 0.8068 0.09579 0.0
H705 H 0.17215 0.80737 0.98125 0.0
H706 H 0.17294 0.75422 0.03777 0.0
H707 H 0.13067 0.67576 0.95622 0.0
H708 H 0.13259 0.68853 0.80278 0.0
H709 H 0.1556 0.80097 0.8508 0.0
C710 C 0.1499 0.77209 0.19858 0.0
C711 C 0.14378 0.7437 0.25552 0.0
C712 C 0.13679 0.70878 0.22258 0.0
C713 C 0.13586 0.70188 0.13516 0.0
C714 C 0.14185 0.73043 0.08072 0.0
C715 C 0.14869 0.76502 0.11041 0.0
C716 C 0.15368 0.79166 0.03631 0.0
C717 C 0.14745 0.84081 0.03711 0.0
C718 C 0.16855 0.78988 0.03788 0.0
C719 C 0.14889 0.76562 0.9609 0.0
C720 C 0.14197 0.73082 0.98897 0.0
C721 C 0.1361 0.70275 0.93319 0.0
C722 C 0.13722 0.71039 0.84602 0.0
C723 C 0.14426 0.74559 0.81464 0.0
C724 C 0.1503 0.77343 0.87297 0.0
H725 H 0.899 0.80042 0.85009 0.0
H726 H 0.8772 0.68442 0.80622 0.0
H727 H 0.87575 0.67207 0.96009 0.0
H728 H 0.91727 0.75666 0.03346 0.0
H729 H 0.91589 0.80941 0.09096 0.0
H730 H 0.91558 0.8097 0.97643 0.0
H731 H 0.89354 0.85873 0.97871 0.0
H732 H 0.89381 0.85861 0.09327 0.0
H733 H 0.88017 0.83926 0.0375 0.0
H734 H 0.87594 0.67203 0.11587 0.0
H735 H 0.87783 0.68476 0.26988 0.0
H736 H 0.8997 0.79992 0.22118 0.0
C737 C 0.89404 0.77223 0.87316 0.0
C738 C 0.88826 0.74322 0.8157 0.0
C739 C 0.88166 0.70721 0.84853 0.0
C740 C 0.8808 0.69979 0.93605 0.0
C741 C 0.88648 0.72887 0.99089 0.0
C742 C 0.89291 0.76458 0.96141 0.0
C743 C 0.89767 0.79146 0.03585 0.0
C744 C 0.91249 0.79181 0.03404 0.0
C745 C 0.8909 0.83989 0.03633 0.0
C746 C 0.89327 0.7642 0.11102 0.0
C747 C 0.88668 0.72865 0.08285 0.0
C748 C 0.88114 0.69957 0.13885 0.0
C749 C 0.88225 0.70706 0.22616 0.0
C750 C 0.889 0.74291 0.25719 0.0
C751 C 0.8947 0.77173 0.19892 0.0
H752 H 0.63217 0.70789 0.35868 0.0
H753 H 0.66033 0.80506 0.31156 0.0
H754 H 0.66262 0.81632 0.46437 0.0
H755 H 0.61676 0.76518 0.54311 0.0
H756 H 0.61495 0.71386 0.60175 0.0
H757 H 0.61497 0.71312 0.48717 0.0
H758 H 0.63383 0.64934 0.48853 0.0
H759 H 0.63387 0.64989 0.60309 0.0
H760 H 0.64853 0.65781 0.54529 0.0
H761 H 0.66265 0.8173 0.61784 0.0
H762 H 0.66044 0.80785 0.77143 0.0
H763 H 0.6323 0.71008 0.73059 0.0
C764 C 0.63872 0.73173 0.38085 0.0
C765 C 0.6461 0.75549 0.32257 0.0
C766 C 0.65464 0.78611 0.35426 0.0
C767 C 0.656 0.79296 0.44129 0.0
C768 C 0.64878 0.76894 0.49686 0.0
C769 C 0.64032 0.73886 0.46881 0.0
C770 C 0.6341 0.71685 0.54442 0.0
C771 C 0.61931 0.72792 0.54406 0.0
C772 C 0.6378 0.66542 0.54537 0.0
C773 C 0.64034 0.73985 0.61848 0.0
C774 C 0.6488 0.76955 0.58846 0.0
C775 C 0.65604 0.79428 0.64243 0.0
C776 C 0.65472 0.7885 0.72985 0.0
C777 C 0.64618 0.75828 0.76344 0.0
C778 C 0.63878 0.73381 0.70683 0.0
H779 H 0.39244 0.69077 0.72353 0.0
H780 H 0.3819 0.83316 0.77255 0.0
H781 H 0.38106 0.84838 0.61775 0.0
H782 H 0.41322 0.70784 0.5423 0.0
H783 H 0.40853 0.65974 0.484 0.0
H784 H 0.40811 0.65953 0.59851 0.0
H785 H 0.38391 0.64398 0.59506 0.0
H786 H 0.38427 0.64408 0.48056 0.0
H787 H 0.37249 0.68162 0.5363 0.0
H788 H 0.38124 0.84846 0.45903 0.0
H789 H 0.38266 0.83351 0.30451 0.0
H790 H 0.39356 0.6914 0.35465 0.0
C791 C 0.38994 0.72504 0.70114 0.0
C792 C 0.38719 0.76098 0.7593 0.0
C793 C 0.38402 0.80539 0.72852 0.0
C794 C 0.38352 0.81428 0.6409 0.0
C795 C 0.38631 0.77834 0.58482 0.0
C796 C 0.3895 0.73458 0.61339 0.0
C797 C 0.39225 0.70242 0.53895 0.0
C798 C 0.40637 0.68113 0.54109 0.0
C799 C 0.38266 0.66587 0.53768 0.0
C800 C 0.38998 0.73487 0.46435 0.0
C801 C 0.38657 0.77849 0.49258 0.0
C802 C 0.38392 0.81448 0.4362 0.0
C803 C 0.38475 0.80575 0.34868 0.0
C804 C 0.3882 0.7615 0.31825 0.0
C805 C 0.39089 0.72556 0.37671 0.0
H806 H 0.65396 0.2994 0.31215 0.0
H807 H 0.63187 0.18474 0.26219 0.0
H808 H 0.63023 0.17064 0.4151 0.0
H809 H 0.67184 0.25201 0.49616 0.0
H810 H 0.67062 0.30409 0.55572 0.0
H811 H 0.67059 0.30566 0.44118 0.0
H812 H 0.6488 0.35617 0.44312 0.0
H813 H 0.64878 0.35472 0.55767 0.0
H814 H 0.63516 0.33704 0.49941 0.0
H815 H 0.63026 0.16845 0.56963 0.0
H816 H 0.63196 0.17844 0.72373 0.0
H817 H 0.65395 0.29448 0.68376 0.0
C818 C 0.64889 0.27117 0.33375 0.0
C819 C 0.64302 0.24318 0.27481 0.0
C820 C 0.63634 0.20691 0.30566 0.0
C821 C 0.63539 0.19844 0.39263 0.0
C822 C 0.64108 0.22666 0.44898 0.0
C823 C 0.64767 0.26243 0.42161 0.0
C824 C 0.6524 0.28812 0.49777 0.0
C825 C 0.66725 0.28741 0.49766 0.0
C826 C 0.6459 0.33691 0.49957 0.0
C827 C 0.64769 0.26034 0.5713 0.0
C828 C 0.6411 0.22535 0.54077 0.0
C829 C 0.63544 0.19558 0.59456 0.0
C830 C 0.63645 0.20163 0.68222 0.0
C831 C 0.64316 0.23702 0.71613 0.0
C832 C 0.64894 0.26669 0.65973 0.0
H833 H 0.40091 0.29328 0.31382 0.0
H834 H 0.37507 0.18831 0.27025 0.0
H835 H 0.37294 0.17755 0.42365 0.0
H836 H 0.41733 0.24166 0.50021 0.0
H837 H 0.41793 0.29423 0.55676 0.0
H838 H 0.41793 0.29393 0.44219 0.0
H839 H 0.39781 0.35274 0.44118 0.0
H840 H 0.39775 0.3532 0.55575 0.0
H841 H 0.38345 0.34066 0.4985 0.0
H842 H 0.37271 0.17825 0.57764 0.0
H843 H 0.3747 0.18968 0.73106 0.0
H844 H 0.40082 0.29369 0.68538 0.0
C845 C 0.39497 0.2677 0.33696 0.0
C846 C 0.38819 0.24155 0.27971 0.0
C847 C 0.38032 0.20893 0.31244 0.0
C848 C 0.37904 0.20242 0.39971 0.0
C849 C 0.38565 0.22886 0.4544 0.0
C850 C 0.39346 0.26091 0.42516 0.0
C851 C 0.39906 0.28536 0.49981 0.0
C852 C 0.41395 0.27836 0.49972 0.0
C853 C 0.39423 0.33599 0.49872 0.0
C854 C 0.39335 0.26124 0.57474 0.0
C855 C 0.38556 0.22912 0.54606 0.0
C856 C 0.37882 0.20314 0.6012 0.0
C857 C 0.37999 0.21005 0.68844 0.0
C858 C 0.38791 0.24249 0.72053 0.0
C859 C 0.39479 0.26831 0.66275 0.0
H860 H 0.04392 0.28245 0.34908 0.0
H861 H 0.05323 0.17512 0.53303 0.0
H862 H 0.03003 0.16522 0.54941 0.0
H863 H 1.01493 0.33253 0.44422 0.0
H864 H 1.00598 0.34222 0.34655 0.0
H865 H 0.02341 0.34058 0.34598 0.0
H866 H 0.02462 0.27763 0.23176 0.0
H867 H 1.00717 0.27912 0.23187 0.0
H868 H 0.01692 0.22658 0.25156 0.0
H869 H 1.00643 0.16853 0.55264 0.0
H870 H 0.98284 0.18367 0.54102 0.0
H871 H 0.98775 0.28665 0.34952 0.0
C872 C 0.04099 0.25691 0.39249 0.0
C873 C 0.05031 0.22937 0.43982 0.0
C874 C 0.04621 0.19617 0.49585 0.0
C875 C 0.03308 0.19035 0.50564 0.0
C876 C 0.02412 0.21768 0.45823 0.0
C877 C 0.0278 0.25004 0.4021 0.0
C878 C 1.01597 0.27411 0.3585 0.0
C879 C 1.01502 0.32541 0.37487 0.0
C880 C 1.01619 0.26375 0.26274 0.0
C881 C 1.00514 0.25179 0.40267 0.0
C882 C 1.01017 0.21889 0.45877 0.0
C883 C 1.00232 0.19374 0.50807 0.0
C884 C 0.98888 0.20237 0.50031 0.0
C885 C 0.98332 0.23578 0.44325 0.0
C886 C 0.99164 0.26082 0.39367 0.0
H887 H 0.99007 0.71702 0.52078 0.0
H888 H 0.98005 0.79826 0.74503 0.0
H889 H 1.00321 0.80472 0.77155 0.0
H890 H 0.01898 0.65484 0.61465 0.0
H891 H 0.02781 0.65311 0.51576 0.0
H892 H 1.01038 0.654 0.51516 0.0
H893 H 1.00885 0.72509 0.41813 0.0
H894 H 0.02625 0.72456 0.4187 0.0
H895 H 1.01632 0.77461 0.4518 0.0
H896 H 0.02744 0.80555 0.77047 0.0
H897 H 0.05106 0.79785 0.74476 0.0
H898 H 0.04538 0.71384 0.52469 0.0
C899 C 0.99268 0.73539 0.5766 0.0
C900 C 0.98307 0.75742 0.63026 0.0
C901 C 0.98709 0.78181 0.70161 0.0
C902 C 1.00028 0.78538 0.71782 0.0
C903 C 1.00942 0.76377 0.6631 0.0
C904 C 1.00582 0.73881 0.59449 0.0
C905 C 0.0176 0.71928 0.54501 0.0
C906 C 0.01876 0.66722 0.54783 0.0
C907 C 0.01723 0.73695 0.45297 0.0
C908 C 0.02835 0.73799 0.59552 0.0
C909 C 0.02342 0.76347 0.66351 0.0
C910 C 0.03143 0.78539 0.71777 0.0
C911 C 0.04483 0.7811 0.70225 0.0
C912 C 0.05014 0.75516 0.63287 0.0
C913 C 0.04171 0.73326 0.57918 0.0
H914 H 0.54571 0.71627 0.90278 0.0
H915 H 0.55072 0.81579 0.09957 0.0
H916 H 0.52713 0.82792 0.11739 0.0
H917 H 0.51629 0.77618 0.81295 0.0
H918 H 0.50876 0.72518 0.78997 0.0
H919 H 0.52619 0.72443 0.7899 0.0
H920 H 0.52783 0.65939 0.89982 0.0
H921 H 0.51044 0.65961 0.90107 0.0
H922 H 0.51912 0.6664 0.99885 0.0
H923 H 0.5036 0.82947 0.11843 0.0
H924 H 0.48046 0.81969 0.1029 0.0
H925 H 0.48949 0.71902 0.90626 0.0
C926 C 0.54185 0.74061 0.94957 0.0
C927 C 0.5502 0.76552 0.99893 0.0
C928 C 0.54465 0.79705 0.05937 0.0
C929 C 0.53122 0.804 0.07058 0.0
C930 C 0.52333 0.77926 0.02103 0.0
C931 C 0.52833 0.74825 0.96153 0.0
C932 C 0.51745 0.72652 0.91682 0.0
C933 C 0.51715 0.7388 0.82177 0.0
C934 C 0.51878 0.67492 0.92998 0.0
C935 C 0.50566 0.74922 0.96301 0.0
C936 C 0.5094 0.77994 0.02192 0.0
C937 C 0.5005 0.80571 0.07233 0.0
C938 C 0.48737 0.8001 0.06264 0.0
C939 C 0.48317 0.76905 1.00282 0.0
C940 C 0.49246 0.74297 0.95258 0.0
H941 H 0.48894 0.23192 0.96645 0.0
H942 H 0.48024 0.28049 0.22229 0.0
H943 H 0.5036 0.28339 0.24928 0.0
H944 H 0.51823 0.16034 0.02279 0.0
H945 H 0.5265 0.17261 0.92578 0.0
H946 H 0.50907 0.17356 0.92709 0.0
H947 H 0.50712 0.25578 0.86885 0.0
H948 H 0.52453 0.25518 0.86762 0.0
H949 H 0.51488 0.29875 0.92515 0.0
H950 H 0.52796 0.28042 0.24932 0.0
H951 H 0.55158 0.2744 0.2195 0.0
H952 H 0.5444 0.22889 0.96388 0.0
C953 C 0.49192 0.24252 0.02868 0.0
C954 C 0.48267 0.25593 0.09228 0.0
C955 C 0.48707 0.27051 0.17212 0.0
C956 C 0.50034 0.27198 0.18834 0.0
C957 C 0.50915 0.25858 0.12428 0.0
C958 C 0.50513 0.24411 0.04604 0.0
C959 C 0.51658 0.23228 0.98758 0.0
C960 C 0.51766 0.1817 0.96445 0.0
C961 C 0.51572 0.2623 0.90758 0.0
C962 C 0.52765 0.24314 0.04467 0.0
C963 C 0.52317 0.25772 0.12367 0.0
C964 C 0.53158 0.26912 0.18769 0.0
C965 C 0.54493 0.26561 0.17041 0.0
C966 C 0.54966 0.25148 0.0896 0.0
C967 C 0.54093 0.24009 0.02601 0.0
loop_
_geom_bond_atom_site_label_1
_geom_bond_atom_site_label_2
_geom_bond_distance
_geom_bond_site_symmetry_2
_ccdc_geom_bond_type
Pr0 C2 2.880 . S
Pr0 O20 2.562 . S
Pr0 O21 2.490 . S
Pr0 O22 2.695 . S
Pr0 O23 2.512 . S
Pr0 O25 2.437 . S
Pr0 O28 2.436 . S
Pr0 O30 2.438 . S
Pr1 C11 2.880 . S
Pr1 O22 2.436 . S
Pr1 O24 2.438 . S
Pr1 O26 2.562 . S
Pr1 O27 2.490 . S
Pr1 O28 2.695 . S
Pr1 O29 2.512 . S
Pr1 O31 2.437 . S
C2 Pr0 2.880 . S
C2 C3 1.491 . S
C2 O20 1.254 . S
C2 O21 1.225 . S
C3 C2 1.491 . S
C3 C4 1.392 . S
C3 C8 1.356 . S
C4 C3 1.392 . S
C4 C5 1.368 . S
C4 H32 0.929 . S
C5 C4 1.368 . S
C5 C6 1.386 . S
C5 H33 0.929 . S
C6 C5 1.386 . S
C6 C7 1.373 . S
C7 C6 1.373 . S
C7 C8 1.409 . S
C7 H34 0.931 . S
C8 C3 1.356 . S
C8 C7 1.409 . S
C8 H35 0.930 . S
C9 O22 1.270 . S
C9 O23 1.248 . S
C10 O24 1.267 . S
C10 O25 1.278 . S
C11 Pr1 2.880 . S
C11 C12 1.491 . S
C11 O26 1.254 . S
C11 O27 1.225 . S
C12 C11 1.491 . S
C12 C13 1.392 . S
C12 C17 1.356 . S
C13 C12 1.392 . S
C13 C14 1.368 . S
C13 H36 0.929 . S
C14 C13 1.368 . S
C14 C15 1.386 . S
C14 H37 0.929 . S
C15 C14 1.386 . S
C15 C16 1.373 . S
C16 C15 1.373 . S
C16 C17 1.409 . S
C16 H38 0.931 . S
C17 C12 1.356 . S
C17 C16 1.409 . S
C17 H39 0.930 . S
C18 O28 1.270 . S
C18 O29 1.248 . S
C19 O30 1.267 . S
C19 O31 1.278 . S
O20 Pr0 2.562 . S
O20 C2 1.254 . S
O21 Pr0 2.490 . S
O21 C2 1.225 . S
O22 Pr0 2.695 . S
O22 Pr1 2.436 . S
O22 C9 1.270 . S
O23 Pr0 2.512 . S
O23 C9 1.248 . S
O24 Pr1 2.438 . S
O24 C10 1.267 . S
O25 Pr0 2.437 . S
O25 C10 1.278 . S
O26 Pr1 2.562 . S
O26 C11 1.254 . S
O27 Pr1 2.490 . S
O27 C11 1.225 . S
O28 Pr0 2.436 . S
O28 Pr1 2.695 . S
O28 C18 1.270 . S
O29 Pr1 2.512 . S
O29 C18 1.248 . S
O30 Pr0 2.438 . S
O30 C19 1.267 . S
O31 Pr1 2.437 . S
O31 C19 1.278 . S
H32 C4 0.929 . S
H33 C5 0.929 . S
H34 C7 0.931 . S
H35 C8 0.930 . S
H36 C13 0.929 . S
H37 C14 0.929 . S
H38 C16 0.931 . S
H39 C17 0.930 . S
Pr40 C42 2.880 . S
Pr40 O60 2.562 . S
Pr40 O61 2.490 . S
Pr40 O62 2.695 . S
Pr40 O63 2.512 . S
Pr40 O65 2.437 . S
Pr40 O68 2.436 . S
Pr40 O70 2.438 . S
Pr41 C51 2.880 . S
Pr41 O62 2.436 . S
Pr41 O64 2.438 . S
Pr41 O66 2.562 . S
Pr41 O67 2.490 . S
Pr41 O68 2.695 . S
Pr41 O69 2.512 . S
Pr41 O71 2.437 . S
C42 Pr40 2.880 . S
C42 C43 1.491 . S
C42 O60 1.254 . S
C42 O61 1.225 . S
C43 C42 1.491 . S
C43 C44 1.392 . S
C43 C48 1.356 . S
C44 C43 1.392 . S
C44 C45 1.368 . S
C44 H72 0.929 . S
C45 C44 1.368 . S
C45 C46 1.386 . S
C45 H73 0.929 . S
C46 C45 1.386 . S
C46 C47 1.373 . S
C47 C46 1.373 . S
C47 C48 1.409 . S
C47 H74 0.931 . S
C48 C43 1.356 . S
C48 C47 1.409 . S
C48 H75 0.930 . S
C49 O62 1.270 . S
C49 O63 1.248 . S
C50 O64 1.267 . S
C50 O65 1.278 . S
C51 Pr41 2.880 . S
C51 C52 1.491 . S
C51 O66 1.254 . S
C51 O67 1.225 . S
C52 C51 1.491 . S
C52 C53 1.392 . S
C52 C57 1.356 . S
C53 C52 1.392 . S
C53 C54 1.368 . S
C53 H76 0.929 . S
C54 C53 1.368 . S
C54 C55 1.386 . S
C54 H77 0.929 . S
C55 C54 1.386 . S
C55 C56 1.373 . S
C56 C55 1.373 . S
C56 C57 1.409 . S
C56 H78 0.931 . S
C57 C52 1.356 . S
C57 C56 1.409 . S
C57 H79 0.930 . S
C58 O68 1.270 . S
C58 O69 1.248 . S
C59 O70 1.267 . S
C59 O71 1.278 . S
O60 Pr40 2.562 . S
O60 C42 1.254 . S
O61 Pr40 2.490 . S
O61 C42 1.225 . S
O62 Pr40 2.695 . S
O62 Pr41 2.436 . S
O62 C49 1.270 . S
O63 Pr40 2.512 . S
O63 C49 1.248 . S
O64 Pr41 2.438 . S
O64 C50 1.267 . S
O65 Pr40 2.437 . S
O65 C50 1.278 . S
O66 Pr41 2.562 . S
O66 C51 1.254 . S
O67 Pr41 2.490 . S
O67 C51 1.225 . S
O68 Pr40 2.436 . S
O68 Pr41 2.695 . S
O68 C58 1.270 . S
O69 Pr41 2.512 . S
O69 C58 1.248 . S
O70 Pr40 2.438 . S
O70 C59 1.267 . S
O71 Pr41 2.437 . S
O71 C59 1.278 . S
H72 C44 0.929 . S
H73 C45 0.929 . S
H74 C47 0.931 . S
H75 C48 0.930 . S
H76 C53 0.929 . S
H77 C54 0.929 . S
H78 C56 0.931 . S
H79 C57 0.930 . S
Pr80 C82 2.880 . S
Pr80 O100 2.562 . S
Pr80 O101 2.490 . S
Pr80 O102 2.695 . S
Pr80 O103 2.512 . S
Pr80 O105 2.437 . S
Pr80 O108 2.436 . S
Pr80 O110 2.438 . S
Pr81 C91 2.880 . S
Pr81 O102 2.436 . S
Pr81 O104 2.438 . S
Pr81 O106 2.562 . S
Pr81 O107 2.490 . S
Pr81 O108 2.695 . S
Pr81 O109 2.512 . S
Pr81 O111 2.437 . S
C82 Pr80 2.880 . S
C82 C83 1.491 . S
C82 O100 1.254 . S
C82 O101 1.225 . S
C83 C82 1.491 . S
C83 C84 1.392 . S
C83 C88 1.356 . S
C84 C83 1.392 . S
C84 C85 1.368 . S
C84 H112 0.929 . S
C85 C84 1.368 . S
C85 C86 1.386 . S
C85 H113 0.929 . S
C86 C85 1.386 . S
C86 C87 1.373 . S
C87 C86 1.373 . S
C87 C88 1.409 . S
C87 H114 0.931 . S
C88 C83 1.356 . S
C88 C87 1.409 . S
C88 H115 0.930 . S
C89 O102 1.270 . S
C89 O103 1.248 . S
C90 O104 1.267 . S
C90 O105 1.278 . S
C91 Pr81 2.880 . S
C91 C92 1.491 . S
C91 O106 1.254 . S
C91 O107 1.225 . S
C92 C91 1.491 . S
C92 C93 1.392 . S
C92 C97 1.356 . S
C93 C92 1.392 . S
C93 C94 1.368 . S
C93 H116 0.929 . S
C94 C93 1.368 . S
C94 C95 1.386 . S
C94 H117 0.929 . S
C95 C94 1.386 . S
C95 C96 1.373 . S
C96 C95 1.373 . S
C96 C97 1.409 . S
C96 H118 0.931 . S
C97 C92 1.356 . S
C97 C96 1.409 . S
C97 H119 0.930 . S
C98 O108 1.270 . S
C98 O109 1.248 . S
C99 O110 1.267 . S
C99 O111 1.278 . S
O100 Pr80 2.562 . S
O100 C82 1.254 . S
O101 Pr80 2.490 . S
O101 C82 1.225 . S
O102 Pr80 2.695 . S
O102 Pr81 2.436 . S
O102 C89 1.270 . S
O103 Pr80 2.512 . S
O103 C89 1.248 . S
O104 Pr81 2.438 . S
O104 C90 1.267 . S
O105 Pr80 2.437 . S
O105 C90 1.278 . S
O106 Pr81 2.562 . S
O106 C91 1.254 . S
O107 Pr81 2.490 . S
O107 C91 1.225 . S
O108 Pr80 2.436 . S
O108 Pr81 2.695 . S
O108 C98 1.270 . S
O109 Pr81 2.512 . S
O109 C98 1.248 . S
O110 Pr80 2.438 . S
O110 C99 1.267 . S
O111 Pr81 2.437 . S
O111 C99 1.278 . S
H112 C84 0.929 . S
H113 C85 0.929 . S
H114 C87 0.931 . S
H115 C88 0.930 . S
H116 C93 0.929 . S
H117 C94 0.929 . S
H118 C96 0.931 . S
H119 C97 0.930 . S
Pr120 C122 2.880 . S
Pr120 O140 2.562 . S
Pr120 O141 2.490 . S
Pr120 O142 2.695 . S
Pr120 O143 2.512 . S
Pr120 O145 2.437 . S
Pr120 O148 2.436 . S
Pr120 O150 2.438 . S
Pr121 C131 2.880 . S
Pr121 O142 2.436 . S
Pr121 O144 2.438 . S
Pr121 O146 2.562 . S
Pr121 O147 2.490 . S
Pr121 O148 2.695 . S
Pr121 O149 2.512 . S
Pr121 O151 2.437 . S
C122 Pr120 2.880 . S
C122 C123 1.491 . S
C122 O140 1.254 . S
C122 O141 1.225 . S
C123 C122 1.491 . S
C123 C124 1.392 . S
C123 C128 1.356 . S
C124 C123 1.392 . S
C124 C125 1.368 . S
C124 H152 0.929 . S
C125 C124 1.368 . S
C125 C126 1.386 . S
C125 H153 0.929 . S
C126 C125 1.386 . S
C126 C127 1.373 . S
C127 C126 1.373 . S
C127 C128 1.409 . S
C127 H154 0.931 . S
C128 C123 1.356 . S
C128 C127 1.409 . S
C128 H155 0.930 . S
C129 O142 1.270 . S
C129 O143 1.248 . S
C130 O144 1.267 . S
C130 O145 1.278 . S
C131 Pr121 2.880 . S
C131 C132 1.491 . S
C131 O146 1.254 . S
C131 O147 1.225 . S
C132 C131 1.491 . S
C132 C133 1.392 . S
C132 C137 1.356 . S
C133 C132 1.392 . S
C133 C134 1.368 . S
C133 H156 0.929 . S
C134 C133 1.368 . S
C134 C135 1.386 . S
C134 H157 0.929 . S
C135 C134 1.386 . S
C135 C136 1.373 . S
C136 C135 1.373 . S
C136 C137 1.409 . S
C136 H158 0.931 . S
C137 C132 1.356 . S
C137 C136 1.409 . S
C137 H159 0.930 . S
C138 O148 1.270 . S
C138 O149 1.248 . S
C139 O150 1.267 . S
C139 O151 1.278 . S
O140 Pr120 2.562 . S
O140 C122 1.254 . S
O141 Pr120 2.490 . S
O141 C122 1.225 . S
O142 Pr120 2.695 . S
O142 Pr121 2.436 . S
O142 C129 1.270 . S
O143 Pr120 2.512 . S
O143 C129 1.248 . S
O144 Pr121 2.438 . S
O144 C130 1.267 . S
O145 Pr120 2.437 . S
O145 C130 1.278 . S
O146 Pr121 2.562 . S
O146 C131 1.254 . S
O147 Pr121 2.490 . S
O147 C131 1.225 . S
O148 Pr120 2.436 . S
O148 Pr121 2.695 . S
O148 C138 1.270 . S
O149 Pr121 2.512 . S
O149 C138 1.248 . S
O150 Pr120 2.438 . S
O150 C139 1.267 . S
O151 Pr121 2.437 . S
O151 C139 1.278 . S
H152 C124 0.929 . S
H153 C125 0.929 . S
H154 C127 0.931 . S
H155 C128 0.930 . S
H156 C133 0.929 . S
H157 C134 0.929 . S
H158 C136 0.931 . S
H159 C137 0.930 . S
Pr160 C162 2.880 1_556 S
Pr160 O180 2.562 1_556 S
Pr160 O181 2.490 1_556 S
Pr160 O182 2.695 . S
Pr160 O183 2.512 . S
Pr160 O185 2.437 1_556 S
Pr160 O188 2.436 1_556 S
Pr160 O190 2.438 . S
Pr161 C171 2.880 1_554 S
Pr161 O182 2.436 1_554 S
Pr161 O184 2.438 . S
Pr161 O186 2.562 1_554 S
Pr161 O187 2.490 1_554 S
Pr161 O188 2.695 . S
Pr161 O189 2.512 . S
Pr161 O191 2.437 1_554 S
C162 Pr160 2.880 1_554 S
C162 C163 1.491 . S
C162 O180 1.254 . S
C162 O181 1.225 . S
C163 C162 1.491 . S
C163 C164 1.392 . S
C163 C168 1.356 . S
C164 C163 1.392 . S
C164 C165 1.368 . S
C164 H192 0.929 . S
C165 C164 1.368 . S
C165 C166 1.386 . S
C165 H193 0.929 . S
C166 C165 1.386 . S
C166 C167 1.373 . S
C167 C166 1.373 . S
C167 C168 1.409 . S
C167 H194 0.931 . S
C168 C163 1.356 . S
C168 C167 1.409 . S
C168 H195 0.930 . S
C169 O182 1.270 . S
C169 O183 1.248 . S
C170 O184 1.267 . S
C170 O185 1.278 . S
C171 Pr161 2.880 1_556 S
C171 C172 1.491 . S
C171 O186 1.254 . S
C171 O187 1.225 . S
C172 C171 1.491 . S
C172 C173 1.392 . S
C172 C177 1.356 . S
C173 C172 1.392 . S
C173 C174 1.368 . S
C173 H196 0.929 . S
C174 C173 1.368 . S
C174 C175 1.386 . S
C174 H197 0.929 . S
C175 C174 1.386 . S
C175 C176 1.373 . S
C176 C175 1.373 . S
C176 C177 1.409 . S
C176 H198 0.931 . S
C177 C172 1.356 . S
C177 C176 1.409 . S
C177 H199 0.930 . S
C178 O188 1.270 . S
C178 O189 1.248 . S
C179 O190 1.267 . S
C179 O191 1.278 . S
O180 Pr160 2.562 1_554 S
O180 C162 1.254 . S
O181 Pr160 2.490 1_554 S
O181 C162 1.225 . S
O182 Pr160 2.695 . S
O182 Pr161 2.436 1_556 S
O182 C169 1.270 . S
O183 Pr160 2.512 . S
O183 C169 1.248 . S
O184 Pr161 2.438 . S
O184 C170 1.267 . S
O185 Pr160 2.437 1_554 S
O185 C170 1.278 . S
O186 Pr161 2.562 1_556 S
O186 C171 1.254 . S
O187 Pr161 2.490 1_556 S
O187 C171 1.225 . S
O188 Pr160 2.436 1_554 S
O188 Pr161 2.695 . S
O188 C178 1.270 . S
O189 Pr161 2.512 . S
O189 C178 1.248 . S
O190 Pr160 2.438 . S
O190 C179 1.267 . S
O191 Pr161 2.437 1_556 S
O191 C179 1.278 . S
H192 C164 0.929 . S
H193 C165 0.929 . S
H194 C167 0.931 . S
H195 C168 0.930 . S
H196 C173 0.929 . S
H197 C174 0.929 . S
H198 C176 0.931 . S
H199 C177 0.930 . S
Pr200 C202 2.880 1_556 S
Pr200 O220 2.562 1_556 S
Pr200 O221 2.490 1_556 S
Pr200 O222 2.695 . S
Pr200 O223 2.512 . S
Pr200 O225 2.437 1_556 S
Pr200 O228 2.436 1_556 S
Pr200 O230 2.438 . S
Pr201 C211 2.880 1_554 S
Pr201 O222 2.436 1_554 S
Pr201 O224 2.438 . S
Pr201 O226 2.562 1_554 S
Pr201 O227 2.490 1_554 S
Pr201 O228 2.695 . S
Pr201 O229 2.512 . S
Pr201 O231 2.437 1_554 S
C202 Pr200 2.880 1_554 S
C202 C203 1.491 . S
C202 O220 1.254 . S
C202 O221 1.225 . S
C203 C202 1.491 . S
C203 C204 1.392 . S
C203 C208 1.356 . S
C204 C203 1.392 . S
C204 C205 1.368 . S
C204 H232 0.929 . S
C205 C204 1.368 . S
C205 C206 1.386 . S
C205 H233 0.929 . S
C206 C205 1.386 . S
C206 C207 1.373 . S
C207 C206 1.373 . S
C207 C208 1.409 . S
C207 H234 0.931 . S
C208 C203 1.356 . S
C208 C207 1.409 . S
C208 H235 0.930 . S
C209 O222 1.270 . S
C209 O223 1.248 . S
C210 O224 1.267 . S
C210 O225 1.278 . S
C211 Pr201 2.880 1_556 S
C211 C212 1.491 . S
C211 O226 1.254 . S
C211 O227 1.225 . S
C212 C211 1.491 . S
C212 C213 1.392 . S
C212 C217 1.356 . S
C213 C212 1.392 . S
C213 C214 1.368 . S
C213 H236 0.929 . S
C214 C213 1.368 . S
C214 C215 1.386 . S
C214 H237 0.929 . S
C215 C214 1.386 . S
C215 C216 1.373 . S
C216 C215 1.373 . S
C216 C217 1.409 . S
C216 H238 0.931 . S
C217 C212 1.356 . S
C217 C216 1.409 . S
C217 H239 0.930 . S
C218 O228 1.270 . S
C218 O229 1.248 . S
C219 O230 1.267 . S
C219 O231 1.278 . S
O220 Pr200 2.562 1_554 S
O220 C202 1.254 . S
O221 Pr200 2.490 1_554 S
O221 C202 1.225 . S
O222 Pr200 2.695 . S
O222 Pr201 2.436 1_556 S
O222 C209 1.270 . S
O223 Pr200 2.512 . S
O223 C209 1.248 . S
O224 Pr201 2.438 . S
O224 C210 1.267 . S
O225 Pr200 2.437 1_554 S
O225 C210 1.278 . S
O226 Pr201 2.562 1_556 S
O226 C211 1.254 . S
O227 Pr201 2.490 1_556 S
O227 C211 1.225 . S
O228 Pr200 2.436 1_554 S
O228 Pr201 2.695 . S
O228 C218 1.270 . S
O229 Pr201 2.512 . S
O229 C218 1.248 . S
O230 Pr200 2.438 . S
O230 C219 1.267 . S
O231 Pr201 2.437 1_556 S
O231 C219 1.278 . S
H232 C204 0.929 . S
H233 C205 0.929 . S
H234 C207 0.931 . S
H235 C208 0.930 . S
H236 C213 0.929 . S
H237 C214 0.929 . S
H238 C216 0.931 . S
H239 C217 0.930 . S
Pr240 C242 2.880 1_556 S
Pr240 O260 2.562 1_556 S
Pr240 O261 2.490 1_556 S
Pr240 O262 2.695 . S
Pr240 O263 2.512 . S
Pr240 O265 2.437 1_556 S
Pr240 O268 2.436 1_556 S
Pr240 O270 2.438 . S
Pr241 C251 2.880 1_554 S
Pr241 O262 2.436 1_554 S
Pr241 O264 2.438 . S
Pr241 O266 2.562 1_554 S
Pr241 O267 2.490 1_554 S
Pr241 O268 2.695 . S
Pr241 O269 2.512 . S
Pr241 O271 2.437 1_554 S
C242 Pr240 2.880 1_554 S
C242 C243 1.491 . S
C242 O260 1.254 . S
C242 O261 1.225 . S
C243 C242 1.491 . S
C243 C244 1.392 . S
C243 C248 1.356 . S
C244 C243 1.392 . S
C244 C245 1.368 . S
C244 H272 0.929 . S
C245 C244 1.368 . S
C245 C246 1.386 . S
C245 H273 0.929 . S
C246 C245 1.386 . S
C246 C247 1.373 . S
C247 C246 1.373 . S
C247 C248 1.409 . S
C247 H274 0.931 . S
C248 C243 1.356 . S
C248 C247 1.409 . S
C248 H275 0.930 . S
C249 O262 1.270 . S
C249 O263 1.248 . S
C250 O264 1.267 . S
C250 O265 1.278 . S
C251 Pr241 2.880 1_556 S
C251 C252 1.491 . S
C251 O266 1.254 . S
C251 O267 1.225 . S
C252 C251 1.491 . S
C252 C253 1.392 . S
C252 C257 1.356 . S
C253 C252 1.392 . S
C253 C254 1.368 . S
C253 H276 0.929 . S
C254 C253 1.368 . S
C254 C255 1.386 . S
C254 H277 0.929 . S
C255 C254 1.386 . S
C255 C256 1.373 . S
C256 C255 1.373 . S
C256 C257 1.409 . S
C256 H278 0.931 . S
C257 C252 1.356 . S
C257 C256 1.409 . S
C257 H279 0.930 . S
C258 O268 1.270 . S
C258 O269 1.248 . S
C259 O270 1.267 . S
C259 O271 1.278 . S
O260 Pr240 2.562 1_554 S
O260 C242 1.254 . S
O261 Pr240 2.490 1_554 S
O261 C242 1.225 . S
O262 Pr240 2.695 . S
O262 Pr241 2.436 1_556 S
O262 C249 1.270 . S
O263 Pr240 2.512 . S
O263 C249 1.248 . S
O264 Pr241 2.438 . S
O264 C250 1.267 . S
O265 Pr240 2.437 1_554 S
O265 C250 1.278 . S
O266 Pr241 2.562 1_556 S
O266 C251 1.254 . S
O267 Pr241 2.490 1_556 S
O267 C251 1.225 . S
O268 Pr240 2.436 1_554 S
O268 Pr241 2.695 . S
O268 C258 1.270 . S
O269 Pr241 2.512 . S
O269 C258 1.248 . S
O270 Pr240 2.438 . S
O270 C259 1.267 . S
O271 Pr241 2.437 1_556 S
O271 C259 1.278 . S
H272 C244 0.929 . S
H273 C245 0.929 . S
H274 C247 0.931 . S
H275 C248 0.930 . S
H276 C253 0.929 . S
H277 C254 0.929 . S
H278 C256 0.931 . S
H279 C257 0.930 . S
Pr280 C282 2.880 1_556 S
Pr280 O300 2.562 1_556 S
Pr280 O301 2.490 1_556 S
Pr280 O302 2.695 . S
Pr280 O303 2.512 . S
Pr280 O305 2.437 1_556 S
Pr280 O308 2.436 1_556 S
Pr280 O310 2.438 . S
Pr281 C291 2.880 1_554 S
Pr281 O302 2.436 1_554 S
Pr281 O304 2.438 . S
Pr281 O306 2.562 1_554 S
Pr281 O307 2.490 1_554 S
Pr281 O308 2.695 . S
Pr281 O309 2.512 . S
Pr281 O311 2.437 1_554 S
C282 Pr280 2.880 1_554 S
C282 C283 1.491 . S
C282 O300 1.254 . S
C282 O301 1.225 . S
C283 C282 1.491 . S
C283 C284 1.392 . S
C283 C288 1.356 . S
C284 C283 1.392 . S
C284 C285 1.368 . S
C284 H312 0.929 . S
C285 C284 1.368 . S
C285 C286 1.386 . S
C285 H313 0.929 . S
C286 C285 1.386 . S
C286 C287 1.373 . S
C287 C286 1.373 . S
C287 C288 1.409 . S
C287 H314 0.931 . S
C288 C283 1.356 . S
C288 C287 1.409 . S
C288 H315 0.930 . S
C289 O302 1.270 . S
C289 O303 1.248 . S
C290 O304 1.267 . S
C290 O305 1.278 . S
C291 Pr281 2.880 1_556 S
C291 C292 1.491 . S
C291 O306 1.254 . S
C291 O307 1.225 . S
C292 C291 1.491 . S
C292 C293 1.392 . S
C292 C297 1.356 . S
C293 C292 1.392 . S
C293 C294 1.368 . S
C293 H316 0.929 . S
C294 C293 1.368 . S
C294 C295 1.386 . S
C294 H317 0.929 . S
C295 C294 1.386 . S
C295 C296 1.373 . S
C296 C295 1.373 . S
C296 C297 1.409 . S
C296 H318 0.931 . S
C297 C292 1.356 . S
C297 C296 1.409 . S
C297 H319 0.930 . S
C298 O308 1.270 . S
C298 O309 1.248 . S
C299 O310 1.267 . S
C299 O311 1.278 . S
O300 Pr280 2.562 1_554 S
O300 C282 1.254 . S
O301 Pr280 2.490 1_554 S
O301 C282 1.225 . S
O302 Pr280 2.695 . S
O302 Pr281 2.436 1_556 S
O302 C289 1.270 . S
O303 Pr280 2.512 . S
O303 C289 1.248 . S
O304 Pr281 2.438 . S
O304 C290 1.267 . S
O305 Pr280 2.437 1_554 S
O305 C290 1.278 . S
O306 Pr281 2.562 1_556 S
O306 C291 1.254 . S
O307 Pr281 2.490 1_556 S
O307 C291 1.225 . S
O308 Pr280 2.436 1_554 S
O308 Pr281 2.695 . S
O308 C298 1.270 . S
O309 Pr281 2.512 . S
O309 C298 1.248 . S
O310 Pr280 2.438 . S
O310 C299 1.267 . S
O311 Pr281 2.437 1_556 S
O311 C299 1.278 . S
H312 C284 0.929 . S
H313 C285 0.929 . S
H314 C287 0.931 . S
H315 C288 0.930 . S
H316 C293 0.929 . S
H317 C294 0.929 . S
H318 C296 0.931 . S
H319 C297 0.930 . S
H320 C332 0.930 . S
H321 C334 0.930 . S
H322 C335 0.930 . S
H323 C339 0.959 . S
H324 C339 0.959 . S
H325 C339 0.961 . S
H326 C340 0.960 . S
H327 C340 0.961 . S
H328 C340 0.959 . S
H329 C343 0.929 . S
H330 C344 0.931 . S
H331 C346 0.930 . S
C332 H320 0.930 . S
C332 C333 1.399 . S
C332 C337 1.399 . S
C333 C332 1.399 . S
C333 C334 1.376 . S
C334 H321 0.930 . S
C334 C333 1.376 . S
C334 C335 1.388 . S
C335 H322 0.930 . S
C335 C334 1.388 . S
C335 C336 1.390 . S
C336 C335 1.390 . S
C336 C337 1.394 . S
C336 C342 1.465 . S
C337 C332 1.399 . S
C337 C336 1.394 . S
C337 C338 1.516 . S
C338 C337 1.516 . S
C338 C339 1.502 . S
C338 C340 1.561 . S
C338 C341 1.526 . S
C339 H323 0.959 . S
C339 H324 0.959 . S
C339 H325 0.961 . S
C339 C338 1.502 . S
C340 H326 0.960 . S
C340 H327 0.961 . S
C340 H328 0.959 . S
C340 C338 1.561 . S
C341 C338 1.526 . S
C341 C342 1.396 . S
C341 C346 1.390 . S
C342 C336 1.465 . S
C342 C341 1.396 . S
C342 C343 1.399 . S
C343 H329 0.929 . S
C343 C342 1.399 . S
C343 C344 1.385 . S
C344 H330 0.931 . S
C344 C343 1.385 . S
C344 C345 1.389 . S
C345 C344 1.389 . S
C345 C346 1.387 . S
C346 H331 0.930 . S
C346 C341 1.390 . S
C346 C345 1.387 . S
H347 C359 0.930 . S
H348 C361 0.930 . S
H349 C362 0.930 . S
H350 C366 0.959 . S
H351 C366 0.959 . S
H352 C366 0.961 . S
H353 C367 0.960 . S
H354 C367 0.961 . S
H355 C367 0.959 . S
H356 C370 0.929 . S
H357 C371 0.931 . S
H358 C373 0.930 . S
C359 H347 0.930 . S
C359 C360 1.399 . S
C359 C364 1.399 . S
C360 C359 1.399 . S
C360 C361 1.376 . S
C361 H348 0.930 . S
C361 C360 1.376 . S
C361 C362 1.388 . S
C362 H349 0.930 . S
C362 C361 1.388 . S
C362 C363 1.390 . S
C363 C362 1.390 . S
C363 C364 1.394 . S
C363 C369 1.465 . S
C364 C359 1.399 . S
C364 C363 1.394 . S
C364 C365 1.516 . S
C365 C364 1.516 . S
C365 C366 1.502 . S
C365 C367 1.561 . S
C365 C368 1.526 . S
C366 H350 0.959 . S
C366 H351 0.959 . S
C366 H352 0.961 . S
C366 C365 1.502 . S
C367 H353 0.960 . S
C367 H354 0.961 . S
C367 H355 0.959 . S
C367 C365 1.561 . S
C368 C365 1.526 . S
C368 C369 1.396 . S
C368 C373 1.390 . S
C369 C363 1.465 . S
C369 C368 1.396 . S
C369 C370 1.399 . S
C370 H356 0.929 . S
C370 C369 1.399 . S
C370 C371 1.385 . S
C371 H357 0.931 . S
C371 C370 1.385 . S
C371 C372 1.389 . S
C372 C371 1.389 . S
C372 C373 1.387 . S
C373 H358 0.930 . S
C373 C368 1.390 . S
C373 C372 1.387 . S
H374 C386 0.930 . S
H375 C388 0.930 . S
H376 C389 0.930 . S
H377 C393 0.959 . S
H378 C393 0.959 . S
H379 C393 0.961 . S
H380 C394 0.960 . S
H381 C394 0.961 . S
H382 C394 0.959 . S
H383 C397 0.929 . S
H384 C398 0.931 . S
H385 C400 0.930 . S
C386 H374 0.930 . S
C386 C387 1.399 . S
C386 C391 1.399 . S
C387 C386 1.399 . S
C387 C388 1.376 . S
C388 H375 0.930 . S
C388 C387 1.376 . S
C388 C389 1.388 . S
C389 H376 0.930 . S
C389 C388 1.388 . S
C389 C390 1.390 . S
C390 C389 1.390 . S
C390 C391 1.394 . S
C390 C396 1.465 . S
C391 C386 1.399 . S
C391 C390 1.394 . S
C391 C392 1.516 . S
C392 C391 1.516 . S
C392 C393 1.502 . S
C392 C394 1.561 . S
C392 C395 1.526 . S
C393 H377 0.959 . S
C393 H378 0.959 . S
C393 H379 0.961 . S
C393 C392 1.502 . S
C394 H380 0.960 . S
C394 H381 0.961 . S
C394 H382 0.959 . S
C394 C392 1.561 . S
C395 C392 1.526 . S
C395 C396 1.396 . S
C395 C400 1.390 . S
C396 C390 1.465 . S
C396 C395 1.396 . S
C396 C397 1.399 . S
C397 H383 0.929 . S
C397 C396 1.399 . S
C397 C398 1.385 . S
C398 H384 0.931 . S
C398 C397 1.385 . S
C398 C399 1.389 . S
C399 C398 1.389 . S
C399 C400 1.387 . S
C400 H385 0.930 . S
C400 C395 1.390 . S
C400 C399 1.387 . S
H401 C413 0.930 . S
H402 C415 0.930 . S
H403 C416 0.930 . S
H404 C420 0.959 . S
H405 C420 0.959 . S
H406 C420 0.961 . S
H407 C421 0.960 . S
H408 C421 0.961 . S
H409 C421 0.959 . S
H410 C424 0.929 . S
H411 C425 0.931 . S
H412 C427 0.930 . S
C413 H401 0.930 . S
C413 C414 1.399 . S
C413 C418 1.399 . S
C414 C413 1.399 . S
C414 C415 1.376 . S
C415 H402 0.930 . S
C415 C414 1.376 . S
C415 C416 1.388 . S
C416 H403 0.930 . S
C416 C415 1.388 . S
C416 C417 1.390 . S
C417 C416 1.390 . S
C417 C418 1.394 . S
C417 C423 1.465 . S
C418 C413 1.399 . S
C418 C417 1.394 . S
C418 C419 1.516 . S
C419 C418 1.516 . S
C419 C420 1.502 . S
C419 C421 1.561 . S
C419 C422 1.526 . S
C420 H404 0.959 . S
C420 H405 0.959 . S
C420 H406 0.961 . S
C420 C419 1.502 . S
C421 H407 0.960 . S
C421 H408 0.961 . S
C421 H409 0.959 . S
C421 C419 1.561 . S
C422 C419 1.526 . S
C422 C423 1.396 . S
C422 C427 1.390 . S
C423 C417 1.465 . S
C423 C422 1.396 . S
C423 C424 1.399 . S
C424 H410 0.929 . S
C424 C423 1.399 . S
C424 C425 1.385 . S
C425 H411 0.931 . S
C425 C424 1.385 . S
C425 C426 1.389 . S
C426 C425 1.389 . S
C426 C427 1.387 . S
C427 H412 0.930 . S
C427 C422 1.390 . S
C427 C426 1.387 . S
H428 C440 0.930 . S
H429 C442 0.930 . S
H430 C443 0.930 . S
H431 C447 0.959 . S
H432 C447 0.959 . S
H433 C447 0.961 . S
H434 C448 0.960 1_565 S
H435 C448 0.961 . S
H436 C448 0.959 . S
H437 C451 0.929 . S
H438 C452 0.931 . S
H439 C454 0.930 . S
C440 H428 0.930 . S
C440 C441 1.399 . S
C440 C445 1.399 . S
C441 C440 1.399 . S
C441 C442 1.376 . S
C442 H429 0.930 . S
C442 C441 1.376 . S
C442 C443 1.388 . S
C443 H430 0.930 . S
C443 C442 1.388 . S
C443 C444 1.390 . S
C444 C443 1.390 . S
C444 C445 1.394 . S
C444 C450 1.465 1_565 S
C445 C440 1.399 . S
C445 C444 1.394 . S
C445 C446 1.516 1_565 S
C446 C445 1.516 1_545 S
C446 C447 1.502 . S
C446 C448 1.561 . S
C446 C449 1.526 . S
C447 H431 0.959 . S
C447 H432 0.959 . S
C447 H433 0.961 . S
C447 C446 1.502 . S
C448 H434 0.960 1_545 S
C448 H435 0.961 . S
C448 H436 0.959 . S
C448 C446 1.561 . S
C449 C446 1.526 . S
C449 C450 1.396 . S
C449 C454 1.390 . S
C450 C444 1.465 1_545 S
C450 C449 1.396 . S
C450 C451 1.399 . S
C451 H437 0.929 . S
C451 C450 1.399 . S
C451 C452 1.385 . S
C452 H438 0.931 . S
C452 C451 1.385 . S
C452 C453 1.389 . S
C453 C452 1.389 . S
C453 C454 1.387 . S
C454 H439 0.930 . S
C454 C449 1.390 . S
C454 C453 1.387 . S
H455 C467 0.930 . S
H456 C469 0.930 . S
H457 C470 0.930 . S
H458 C474 0.959 . S
H459 C474 0.959 . S
H460 C474 0.961 . S
H461 C475 0.960 . S
H462 C475 0.961 . S
H463 C475 0.959 . S
H464 C478 0.929 . S
H465 C479 0.931 . S
H466 C481 0.930 . S
C467 H455 0.930 . S
C467 C468 1.399 . S
C467 C472 1.399 . S
C468 C467 1.399 . S
C468 C469 1.376 . S
C469 H456 0.930 . S
C469 C468 1.376 . S
C469 C470 1.388 . S
C470 H457 0.930 . S
C470 C469 1.388 . S
C470 C471 1.390 . S
C471 C470 1.390 . S
C471 C472 1.394 . S
C471 C477 1.465 . S
C472 C467 1.399 . S
C472 C471 1.394 . S
C472 C473 1.516 . S
C473 C472 1.516 . S
C473 C474 1.502 . S
C473 C475 1.561 . S
C473 C476 1.526 . S
C474 H458 0.959 . S
C474 H459 0.959 . S
C474 H460 0.961 . S
C474 C473 1.502 . S
C475 H461 0.960 . S
C475 H462 0.961 . S
C475 H463 0.959 . S
C475 C473 1.561 . S
C476 C473 1.526 . S
C476 C477 1.396 . S
C476 C481 1.390 . S
C477 C471 1.465 . S
C477 C476 1.396 . S
C477 C478 1.399 . S
C478 H464 0.929 . S
C478 C477 1.399 . S
C478 C479 1.385 . S
C479 H465 0.931 . S
C479 C478 1.385 . S
C479 C480 1.389 . S
C480 C479 1.389 . S
C480 C481 1.387 . S
C481 H466 0.930 . S
C481 C476 1.390 . S
C481 C480 1.387 . S
H482 C494 0.930 . S
H483 C496 0.930 . S
H484 C497 0.930 . S
H485 C501 0.959 . S
H486 C501 0.959 . S
H487 C501 0.961 . S
H488 C502 0.956 1_565 S
H489 C502 0.961 . S
H490 C502 0.959 . S
H491 C505 0.929 . S
H492 C506 0.931 . S
H493 C508 0.930 . S
C494 H482 0.930 . S
C494 C495 1.399 . S
C494 C499 1.399 . S
C495 C494 1.399 . S
C495 C496 1.376 . S
C496 H483 0.930 . S
C496 C495 1.376 . S
C496 C497 1.388 . S
C497 H484 0.930 . S
C497 C496 1.388 . S
C497 C498 1.390 . S
C498 C497 1.390 . S
C498 C499 1.394 . S
C498 C504 1.465 1_565 S
C499 C494 1.399 . S
C499 C498 1.394 . S
C499 C500 1.516 1_565 S
C500 C499 1.516 1_545 S
C500 C501 1.502 . S
C500 C502 1.561 . S
C500 C503 1.526 . S
C501 H485 0.959 . S
C501 H486 0.959 . S
C501 H487 0.961 . S
C501 C500 1.502 . S
C502 H488 0.956 1_545 S
C502 H489 0.961 . S
C502 H490 0.959 . S
C502 C500 1.561 . S
C503 C500 1.526 . S
C503 C504 1.396 . S
C503 C508 1.390 . S
C504 C498 1.465 1_545 S
C504 C503 1.396 . S
C504 C505 1.399 . S
C505 H491 0.929 . S
C505 C504 1.399 . S
C505 C506 1.385 . S
C506 H492 0.931 . S
C506 C505 1.385 . S
C506 C507 1.389 . S
C507 C506 1.389 . S
C507 C508 1.387 . S
C508 H493 0.930 . S
C508 C503 1.390 . S
C508 C507 1.387 . S
H509 C521 0.930 . S
H510 C523 0.930 . S
H511 C524 0.930 . S
H512 C528 0.959 . S
H513 C528 0.959 . S
H514 C528 0.961 . S
H515 C529 0.960 . S
H516 C529 0.961 . S
H517 C529 0.959 . S
H518 C532 0.929 . S
H519 C533 0.931 . S
H520 C535 0.930 . S
C521 H509 0.930 . S
C521 C522 1.399 . S
C521 C526 1.399 . S
C522 C521 1.399 . S
C522 C523 1.376 . S
C523 H510 0.930 . S
C523 C522 1.376 . S
C523 C524 1.388 . S
C524 H511 0.930 . S
C524 C523 1.388 . S
C524 C525 1.390 . S
C525 C524 1.390 . S
C525 C526 1.394 . S
C525 C531 1.465 . S
C526 C521 1.399 . S
C526 C525 1.394 . S
C526 C527 1.516 . S
C527 C526 1.516 . S
C527 C528 1.502 . S
C527 C529 1.561 . S
C527 C530 1.526 . S
C528 H512 0.959 . S
C528 H513 0.959 . S
C528 H514 0.961 . S
C528 C527 1.502 . S
C529 H515 0.960 . S
C529 H516 0.961 . S
C529 H517 0.959 . S
C529 C527 1.561 . S
C530 C527 1.526 . S
C530 C531 1.396 . S
C530 C535 1.390 . S
C531 C525 1.465 . S
C531 C530 1.396 . S
C531 C532 1.399 . S
C532 H518 0.929 . S
C532 C531 1.399 . S
C532 C533 1.385 . S
C533 H519 0.931 . S
C533 C532 1.385 . S
C533 C534 1.389 . S
C534 C533 1.389 . S
C534 C535 1.387 . S
C535 H520 0.930 . S
C535 C530 1.390 . S
C535 C534 1.387 . S
H536 C548 0.930 . S
H537 C550 0.930 . S
H538 C551 0.930 . S
H539 C555 0.959 . S
H540 C555 0.959 . S
H541 C555 0.961 . S
H542 C556 0.960 . S
H543 C556 0.961 . S
H544 C556 0.959 . S
H545 C559 0.929 . S
H546 C560 0.931 . S
H547 C562 0.930 . S
C548 H536 0.930 . S
C548 C549 1.399 1_554 S
C548 C553 1.399 . S
C549 C548 1.399 1_556 S
C549 C550 1.376 . S
C550 H537 0.930 . S
C550 C549 1.376 . S
C550 C551 1.388 . S
C551 H538 0.930 . S
C551 C550 1.388 . S
C551 C552 1.390 . S
C552 C551 1.390 . S
C552 C553 1.394 1_556 S
C552 C558 1.465 . S
C553 C548 1.399 . S
C553 C552 1.394 1_554 S
C553 C554 1.516 . S
C554 C553 1.516 . S
C554 C555 1.502 . S
C554 C556 1.561 . S
C554 C557 1.526 . S
C555 H539 0.959 . S
C555 H540 0.959 . S
C555 H541 0.961 . S
C555 C554 1.502 . S
C556 H542 0.960 . S
C556 H543 0.961 . S
C556 H544 0.959 . S
C556 C554 1.561 . S
C557 C554 1.526 . S
C557 C558 1.396 1_554 S
C557 C562 1.390 . S
C558 C552 1.465 . S
C558 C557 1.396 1_556 S
C558 C559 1.399 . S
C559 H545 0.929 . S
C559 C558 1.399 . S
C559 C560 1.385 . S
C560 H546 0.931 . S
C560 C559 1.385 . S
C560 C561 1.389 . S
C561 C560 1.389 . S
C561 C562 1.387 1_556 S
C562 H547 0.930 . S
C562 C557 1.390 . S
C562 C561 1.387 1_554 S
H563 C575 0.930 . S
H564 C577 0.930 . S
H565 C578 0.930 . S
H566 C582 0.959 . S
H567 C582 0.959 1_545 S
H568 C582 0.961 . S
H569 C583 0.960 1_565 S
H570 C583 0.961 . S
H571 C583 0.959 . S
H572 C586 0.929 . S
H573 C587 0.931 . S
H574 C589 0.930 . S
C575 H563 0.930 . S
C575 C576 1.399 1_556 S
C575 C580 1.399 . S
C576 C575 1.399 1_554 S
C576 C577 1.376 . S
C577 H564 0.930 . S
C577 C576 1.376 . S
C577 C578 1.388 . S
C578 H565 0.930 . S
C578 C577 1.388 . S
C578 C579 1.390 . S
C579 C578 1.390 . S
C579 C580 1.394 1_554 S
C579 C585 1.465 1_565 S
C580 C575 1.399 . S
C580 C579 1.394 1_556 S
C580 C581 1.508 1_565 S
C581 C580 1.508 1_545 S
C581 C582 1.502 1_545 S
C581 C583 1.561 . S
C581 C584 1.534 . S
C582 H566 0.959 . S
C582 H567 0.959 1_565 S
C582 H568 0.961 . S
C582 C581 1.502 1_565 S
C583 H569 0.960 1_545 S
C583 H570 0.961 . S
C583 H571 0.959 . S
C583 C581 1.561 . S
C584 C581 1.534 . S
C584 C585 1.396 1_556 S
C584 C589 1.390 . S
C585 C579 1.465 1_545 S
C585 C584 1.396 1_554 S
C585 C586 1.399 . S
C586 H572 0.929 . S
C586 C585 1.399 . S
C586 C587 1.385 . S
C587 H573 0.931 . S
C587 C586 1.385 . S
C587 C588 1.389 . S
C588 C587 1.389 . S
C588 C589 1.387 1_554 S
C589 H574 0.930 . S
C589 C584 1.390 . S
C589 C588 1.387 1_556 S
H590 C602 0.930 . S
H591 C604 0.930 . S
H592 C605 0.930 . S
H593 C609 0.959 . S
H594 C609 0.959 . S
H595 C609 0.961 . S
H596 C610 0.960 . S
H597 C610 0.961 . S
H598 C610 0.959 . S
H599 C613 0.929 . S
H600 C614 0.931 . S
H601 C616 0.930 . S
C602 H590 0.930 . S
C602 C603 1.399 1_554 S
C602 C607 1.399 . S
C603 C602 1.399 1_556 S
C603 C604 1.376 . S
C604 H591 0.930 . S
C604 C603 1.376 . S
C604 C605 1.388 . S
C605 H592 0.930 . S
C605 C604 1.388 . S
C605 C606 1.390 . S
C606 C605 1.390 . S
C606 C607 1.394 1_556 S
C606 C612 1.465 . S
C607 C602 1.399 . S
C607 C606 1.394 1_554 S
C607 C608 1.516 . S
C608 C607 1.516 . S
C608 C609 1.502 . S
C608 C610 1.561 . S
C608 C611 1.526 . S
C609 H593 0.959 . S
C609 H594 0.959 . S
C609 H595 0.961 . S
C609 C608 1.502 . S
C610 H596 0.960 . S
C610 H597 0.961 . S
C610 H598 0.959 . S
C610 C608 1.561 . S
C611 C608 1.526 . S
C611 C612 1.396 1_554 S
C611 C616 1.390 . S
C612 C606 1.465 . S
C612 C611 1.396 1_556 S
C612 C613 1.399 . S
C613 H599 0.929 . S
C613 C612 1.399 . S
C613 C614 1.385 . S
C614 H600 0.931 . S
C614 C613 1.385 . S
C614 C615 1.389 . S
C615 C614 1.389 . S
C615 C616 1.387 1_556 S
C616 H601 0.930 . S
C616 C611 1.390 . S
C616 C615 1.387 1_554 S
H617 C629 0.930 . S
H618 C631 0.930 . S
H619 C632 0.930 . S
H620 C636 0.959 . S
H621 C636 0.959 . S
H622 C636 0.961 1_545 S
H623 C637 0.975 . S
H624 C637 0.948 1_565 S
H625 C637 0.959 . S
H626 C640 0.929 . S
H627 C641 0.931 . S
H628 C643 0.930 . S
C629 H617 0.930 . S
C629 C630 1.399 1_554 S
C629 C634 1.399 . S
C630 C629 1.399 1_556 S
C630 C631 1.376 . S
C631 H618 0.930 . S
C631 C630 1.376 . S
C631 C632 1.388 . S
C632 H619 0.930 . S
C632 C631 1.388 . S
C632 C633 1.390 . S
C633 C632 1.390 . S
C633 C634 1.394 1_556 S
C633 C639 1.465 1_545 S
C634 C629 1.399 . S
C634 C633 1.394 1_554 S
C634 C635 1.516 1_545 S
C635 C634 1.516 1_565 S
C635 C636 1.502 . S
C635 C637 1.561 1_565 S
C635 C638 1.526 . S
C636 H620 0.959 . S
C636 H621 0.959 . S
C636 H622 0.961 1_565 S
C636 C635 1.502 . S
C637 H623 0.975 . S
C637 H624 0.948 1_545 S
C637 H625 0.959 . S
C637 C635 1.561 1_545 S
C638 C635 1.526 . S
C638 C639 1.396 1_554 S
C638 C643 1.390 . S
C639 C633 1.465 1_565 S
C639 C638 1.396 1_556 S
C639 C640 1.399 . S
C640 H626 0.929 . S
C640 C639 1.399 . S
C640 C641 1.385 . S
C641 H627 0.931 . S
C641 C640 1.385 . S
C641 C642 1.389 . S
C642 C641 1.389 . S
C642 C643 1.387 1_556 S
C643 H628 0.930 . S
C643 C638 1.390 . S
C643 C642 1.387 1_554 S
H644 C656 0.930 . S
H645 C658 0.930 . S
H646 C659 0.930 . S
H647 C663 0.959 . S
H648 C663 0.959 . S
H649 C663 0.961 . S
H650 C664 0.960 . S
H651 C664 0.961 . S
H652 C664 0.959 . S
H653 C667 0.929 . S
H654 C668 0.931 . S
H655 C670 0.930 . S
C656 H644 0.930 . S
C656 C657 1.399 . S
C656 C661 1.399 . S
C657 C656 1.399 . S
C657 C658 1.376 . S
C658 H645 0.930 . S
C658 C657 1.376 . S
C658 C659 1.388 . S
C659 H646 0.930 . S
C659 C658 1.388 . S
C659 C660 1.390 1_554 S
C660 C659 1.390 1_556 S
C660 C661 1.394 1_556 S
C660 C666 1.465 . S
C661 C656 1.399 . S
C661 C660 1.394 1_554 S
C661 C662 1.516 1_554 S
C662 C661 1.516 1_556 S
C662 C663 1.502 . S
C662 C664 1.561 . S
C662 C665 1.526 . S
C663 H647 0.959 . S
C663 H648 0.959 . S
C663 H649 0.961 . S
C663 C662 1.502 . S
C664 H650 0.960 . S
C664 H651 0.961 . S
C664 H652 0.959 . S
C664 C662 1.561 . S
C665 C662 1.526 . S
C665 C666 1.396 . S
C665 C670 1.390 . S
C666 C660 1.465 . S
C666 C665 1.396 . S
C666 C667 1.399 . S
C667 H653 0.929 . S
C667 C666 1.399 . S
C667 C668 1.385 . S
C668 H654 0.931 . S
C668 C667 1.385 . S
C668 C669 1.389 . S
C669 C668 1.389 . S
C669 C670 1.387 . S
C670 H655 0.930 . S
C670 C665 1.390 . S
C670 C669 1.387 . S
H671 C683 0.930 . S
H672 C685 0.930 . S
H673 C686 0.930 . S
H674 C690 0.959 . S
H675 C690 0.959 . S
H676 C690 0.961 . S
H677 C691 0.960 . S
H678 C691 0.961 . S
H679 C691 0.959 . S
H680 C694 0.929 . S
H681 C695 0.931 . S
H682 C697 0.930 . S
C683 H671 0.930 . S
C683 C684 1.399 . S
C683 C688 1.399 . S
C684 C683 1.399 . S
C684 C685 1.376 . S
C685 H672 0.930 . S
C685 C684 1.376 . S
C685 C686 1.388 . S
C686 H673 0.930 . S
C686 C685 1.388 . S
C686 C687 1.390 1_554 S
C687 C686 1.390 1_556 S
C687 C688 1.394 1_556 S
C687 C693 1.465 . S
C688 C683 1.399 . S
C688 C687 1.394 1_554 S
C688 C689 1.516 1_554 S
C689 C688 1.516 1_556 S
C689 C690 1.502 . S
C689 C691 1.561 . S
C689 C692 1.526 . S
C690 H674 0.959 . S
C690 H675 0.959 . S
C690 H676 0.961 . S
C690 C689 1.502 . S
C691 H677 0.960 . S
C691 H678 0.961 . S
C691 H679 0.959 . S
C691 C689 1.561 . S
C692 C689 1.526 . S
C692 C693 1.396 . S
C692 C697 1.390 . S
C693 C687 1.465 . S
C693 C692 1.396 . S
C693 C694 1.399 . S
C694 H680 0.929 . S
C694 C693 1.399 . S
C694 C695 1.385 . S
C695 H681 0.931 . S
C695 C694 1.385 . S
C695 C696 1.389 . S
C696 C695 1.389 . S
C696 C697 1.387 . S
C697 H682 0.930 . S
C697 C692 1.390 . S
C697 C696 1.387 . S
H698 C710 0.930 . S
H699 C712 0.930 . S
H700 C713 0.930 . S
H701 C717 0.959 . S
H702 C717 0.959 . S
H703 C717 0.961 . S
H704 C718 0.960 . S
H705 C718 0.961 1_556 S
H706 C718 0.959 . S
H707 C721 0.929 . S
H708 C722 0.931 . S
H709 C724 0.930 . S
C710 H698 0.930 . S
C710 C711 1.399 . S
C710 C715 1.399 . S
C711 C710 1.399 . S
C711 C712 1.376 . S
C712 H699 0.930 . S
C712 C711 1.376 . S
C712 C713 1.388 . S
C713 H700 0.930 . S
C713 C712 1.388 . S
C713 C714 1.390 . S
C714 C713 1.390 . S
C714 C715 1.394 . S
C714 C720 1.465 . S
C715 C710 1.399 . S
C715 C714 1.394 . S
C715 C716 1.516 . S
C716 C715 1.516 . S
C716 C717 1.502 . S
C716 C718 1.561 . S
C716 C719 1.526 1_554 S
C717 H701 0.959 . S
C717 H702 0.959 . S
C717 H703 0.961 . S
C717 C716 1.502 . S
C718 H704 0.960 . S
C718 H705 0.961 1_554 S
C718 H706 0.959 . S
C718 C716 1.561 . S
C719 C716 1.526 1_556 S
C719 C720 1.396 1_556 S
C719 C724 1.390 . S
C720 C714 1.465 . S
C720 C719 1.396 1_554 S
C720 C721 1.399 1_554 S
C721 H707 0.929 . S
C721 C720 1.399 1_556 S
C721 C722 1.385 . S
C722 H708 0.931 . S
C722 C721 1.385 . S
C722 C723 1.389 . S
C723 C722 1.389 . S
C723 C724 1.387 . S
C724 H709 0.930 . S
C724 C719 1.390 . S
C724 C723 1.387 . S
H725 C737 0.930 . S
H726 C739 0.930 . S
H727 C740 0.930 . S
H728 C744 0.959 . S
H729 C744 0.959 . S
H730 C744 0.961 . S
H731 C745 0.960 . S
H732 C745 0.961 . S
H733 C745 0.959 . S
H734 C748 0.929 . S
H735 C749 0.931 . S
H736 C751 0.930 . S
C737 H725 0.930 . S
C737 C738 1.399 . S
C737 C742 1.399 . S
C738 C737 1.399 . S
C738 C739 1.376 . S
C739 H726 0.930 . S
C739 C738 1.376 . S
C739 C740 1.388 . S
C740 H727 0.930 . S
C740 C739 1.388 . S
C740 C741 1.390 1_556 S
C741 C740 1.390 1_554 S
C741 C742 1.394 1_554 S
C741 C747 1.465 . S
C742 C737 1.399 . S
C742 C741 1.394 1_556 S
C742 C743 1.516 1_556 S
C743 C742 1.516 1_554 S
C743 C744 1.502 . S
C743 C745 1.561 . S
C743 C746 1.526 . S
C744 H728 0.959 . S
C744 H729 0.959 . S
C744 H730 0.961 . S
C744 C743 1.502 . S
C745 H731 0.960 . S
C745 H732 0.961 . S
C745 H733 0.959 . S
C745 C743 1.561 . S
C746 C743 1.526 . S
C746 C747 1.396 . S
C746 C751 1.390 . S
C747 C741 1.465 . S
C747 C746 1.396 . S
C747 C748 1.399 . S
C748 H734 0.929 . S
C748 C747 1.399 . S
C748 C749 1.385 . S
C749 H735 0.931 . S
C749 C748 1.385 . S
C749 C750 1.389 . S
C750 C749 1.389 . S
C750 C751 1.387 . S
C751 H736 0.930 . S
C751 C746 1.390 . S
C751 C750 1.387 . S
H752 C764 0.930 . S
H753 C766 0.930 . S
H754 C767 0.930 . S
H755 C771 0.959 . S
H756 C771 0.959 . S
H757 C771 0.961 . S
H758 C772 0.960 . S
H759 C772 0.961 . S
H760 C772 0.959 . S
H761 C775 0.929 . S
H762 C776 0.931 . S
H763 C778 0.930 . S
C764 H752 0.930 . S
C764 C765 1.399 . S
C764 C769 1.399 . S
C765 C764 1.399 . S
C765 C766 1.376 . S
C766 H753 0.930 . S
C766 C765 1.376 . S
C766 C767 1.388 . S
C767 H754 0.930 . S
C767 C766 1.388 . S
C767 C768 1.390 . S
C768 C767 1.390 . S
C768 C769 1.394 . S
C768 C774 1.465 . S
C769 C764 1.399 . S
C769 C768 1.394 . S
C769 C770 1.516 . S
C770 C769 1.516 . S
C770 C771 1.502 . S
C770 C772 1.561 . S
C770 C773 1.526 . S
C771 H755 0.959 . S
C771 H756 0.959 . S
C771 H757 0.961 . S
C771 C770 1.502 . S
C772 H758 0.960 . S
C772 H759 0.961 . S
C772 H760 0.959 . S
C772 C770 1.561 . S
C773 C770 1.526 . S
C773 C774 1.396 . S
C773 C778 1.390 . S
C774 C768 1.465 . S
C774 C773 1.396 . S
C774 C775 1.399 . S
C775 H761 0.929 . S
C775 C774 1.399 . S
C775 C776 1.385 . S
C776 H762 0.931 . S
C776 C775 1.385 . S
C776 C777 1.389 . S
C777 C776 1.389 . S
C777 C778 1.387 . S
C778 H763 0.930 . S
C778 C773 1.390 . S
C778 C777 1.387 . S
H779 C791 0.930 . S
H780 C793 0.930 . S
H781 C794 0.930 . S
H782 C798 0.959 . S
H783 C798 0.959 . S
H784 C798 0.961 . S
H785 C799 0.960 . S
H786 C799 0.961 . S
H787 C799 0.959 . S
H788 C802 0.929 . S
H789 C803 0.931 . S
H790 C805 0.930 . S
C791 H779 0.930 . S
C791 C792 1.399 . S
C791 C796 1.399 . S
C792 C791 1.399 . S
C792 C793 1.376 . S
C793 H780 0.930 . S
C793 C792 1.376 . S
C793 C794 1.388 . S
C794 H781 0.930 . S
C794 C793 1.388 . S
C794 C795 1.390 . S
C795 C794 1.390 . S
C795 C796 1.394 . S
C795 C801 1.465 . S
C796 C791 1.399 . S
C796 C795 1.394 . S
C796 C797 1.516 . S
C797 C796 1.516 . S
C797 C798 1.502 . S
C797 C799 1.561 . S
C797 C800 1.526 . S
C798 H782 0.959 . S
C798 H783 0.959 . S
C798 H784 0.961 . S
C798 C797 1.502 . S
C799 H785 0.960 . S
C799 H786 0.961 . S
C799 H787 0.959 . S
C799 C797 1.561 . S
C800 C797 1.526 . S
C800 C801 1.396 . S
C800 C805 1.390 . S
C801 C795 1.465 . S
C801 C800 1.396 . S
C801 C802 1.399 . S
C802 H788 0.929 . S
C802 C801 1.399 . S
C802 C803 1.385 . S
C803 H789 0.931 . S
C803 C802 1.385 . S
C803 C804 1.389 . S
C804 C803 1.389 . S
C804 C805 1.387 . S
C805 H790 0.930 . S
C805 C800 1.390 . S
C805 C804 1.387 . S
H806 C818 0.930 . S
H807 C820 0.930 . S
H808 C821 0.930 . S
H809 C825 0.959 . S
H810 C825 0.959 . S
H811 C825 0.961 . S
H812 C826 0.960 . S
H813 C826 0.961 . S
H814 C826 0.959 . S
H815 C829 0.929 . S
H816 C830 0.931 . S
H817 C832 0.930 . S
C818 H806 0.930 . S
C818 C819 1.399 . S
C818 C823 1.399 . S
C819 C818 1.399 . S
C819 C820 1.376 . S
C820 H807 0.930 . S
C820 C819 1.376 . S
C820 C821 1.388 . S
C821 H808 0.930 . S
C821 C820 1.388 . S
C821 C822 1.390 . S
C822 C821 1.390 . S
C822 C823 1.394 . S
C822 C828 1.465 . S
C823 C818 1.399 . S
C823 C822 1.394 . S
C823 C824 1.516 . S
C824 C823 1.516 . S
C824 C825 1.502 . S
C824 C826 1.561 . S
C824 C827 1.526 . S
C825 H809 0.959 . S
C825 H810 0.959 . S
C825 H811 0.961 . S
C825 C824 1.502 . S
C826 H812 0.960 . S
C826 H813 0.961 . S
C826 H814 0.959 . S
C826 C824 1.561 . S
C827 C824 1.526 . S
C827 C828 1.396 . S
C827 C832 1.390 . S
C828 C822 1.465 . S
C828 C827 1.396 . S
C828 C829 1.399 . S
C829 H815 0.929 . S
C829 C828 1.399 . S
C829 C830 1.385 . S
C830 H816 0.931 . S
C830 C829 1.385 . S
C830 C831 1.389 . S
C831 C830 1.389 . S
C831 C832 1.387 . S
C832 H817 0.930 . S
C832 C827 1.390 . S
C832 C831 1.387 . S
H833 C845 0.930 . S
H834 C847 0.930 . S
H835 C848 0.930 . S
H836 C852 0.959 . S
H837 C852 0.959 . S
H838 C852 0.961 . S
H839 C853 0.960 . S
H840 C853 0.961 . S
H841 C853 0.959 . S
H842 C856 0.929 . S
H843 C857 0.931 . S
H844 C859 0.930 . S
C845 H833 0.930 . S
C845 C846 1.399 . S
C845 C850 1.399 . S
C846 C845 1.399 . S
C846 C847 1.376 . S
C847 H834 0.930 . S
C847 C846 1.376 . S
C847 C848 1.388 . S
C848 H835 0.930 . S
C848 C847 1.388 . S
C848 C849 1.390 . S
C849 C848 1.390 . S
C849 C850 1.394 . S
C849 C855 1.465 . S
C850 C845 1.399 . S
C850 C849 1.394 . S
C850 C851 1.516 . S
C851 C850 1.516 . S
C851 C852 1.502 . S
C851 C853 1.561 . S
C851 C854 1.526 . S
C852 H836 0.959 . S
C852 H837 0.959 . S
C852 H838 0.961 . S
C852 C851 1.502 . S
C853 H839 0.960 . S
C853 H840 0.961 . S
C853 H841 0.959 . S
C853 C851 1.561 . S
C854 C851 1.526 . S
C854 C855 1.396 . S
C854 C859 1.390 . S
C855 C849 1.465 . S
C855 C854 1.396 . S
C855 C856 1.399 . S
C856 H842 0.929 . S
C856 C855 1.399 . S
C856 C857 1.385 . S
C857 H843 0.931 . S
C857 C856 1.385 . S
C857 C858 1.389 . S
C858 C857 1.389 . S
C858 C859 1.387 . S
C859 H844 0.930 . S
C859 C854 1.390 . S
C859 C858 1.387 . S
H860 C872 0.930 . S
H861 C874 0.930 . S
H862 C875 0.930 . S
H863 C879 0.959 . S
H864 C879 0.959 . S
H865 C879 0.961 1_455 S
H866 C880 0.967 . S
H867 C880 0.955 1_655 S
H868 C880 0.959 . S
H869 C883 0.929 . S
H870 C884 0.931 . S
H871 C886 0.930 . S
C872 H860 0.930 . S
C872 C873 1.399 . S
C872 C877 1.399 . S
C873 C872 1.399 . S
C873 C874 1.376 . S
C874 H861 0.930 . S
C874 C873 1.376 . S
C874 C875 1.388 . S
C875 H862 0.930 . S
C875 C874 1.388 . S
C875 C876 1.390 . S
C876 C875 1.390 . S
C876 C877 1.394 . S
C876 C882 1.465 1_455 S
C877 C872 1.399 . S
C877 C876 1.394 . S
C877 C878 1.481 1_455 S
C878 C877 1.481 1_655 S
C878 C879 1.503 . S
C878 C880 1.562 1_655 S
C878 C881 1.562 . S
C879 H863 0.959 . S
C879 H864 0.959 . S
C879 H865 0.961 1_655 S
C879 C878 1.503 . S
C880 H866 0.967 . S
C880 H867 0.955 1_455 S
C880 H868 0.959 . S
C880 C878 1.562 1_455 S
C881 C878 1.562 . S
C881 C882 1.396 . S
C881 C886 1.390 . S
C882 C876 1.465 1_655 S
C882 C881 1.396 . S
C882 C883 1.399 . S
C883 H869 0.929 . S
C883 C882 1.399 . S
C883 C884 1.385 . S
C884 H870 0.931 . S
C884 C883 1.385 . S
C884 C885 1.389 . S
C885 C884 1.389 . S
C885 C886 1.387 . S
C886 H871 0.930 . S
C886 C881 1.390 . S
C886 C885 1.387 . S
H887 C899 0.930 . S
H888 C901 0.930 . S
H889 C902 0.930 . S
H890 C906 0.959 . S
H891 C906 0.959 . S
H892 C906 0.961 1_655 S
H893 C907 0.981 . S
H894 C907 0.942 1_455 S
H895 C907 0.959 . S
H896 C910 0.929 . S
H897 C911 0.931 . S
H898 C913 0.930 . S
C899 H887 0.930 . S
C899 C900 1.399 . S
C899 C904 1.399 . S
C900 C899 1.399 . S
C900 C901 1.376 . S
C901 H888 0.930 . S
C901 C900 1.376 . S
C901 C902 1.388 . S
C902 H889 0.930 . S
C902 C901 1.388 . S
C902 C903 1.390 . S
C903 C902 1.390 . S
C903 C904 1.394 . S
C903 C909 1.465 1_655 S
C904 C899 1.399 . S
C904 C903 1.394 . S
C904 C905 1.487 1_655 S
C905 C904 1.487 1_455 S
C905 C906 1.503 . S
C905 C907 1.563 1_455 S
C905 C908 1.555 . S
C906 H890 0.959 . S
C906 H891 0.959 . S
C906 H892 0.961 1_455 S
C906 C905 1.503 . S
C907 H893 0.981 . S
C907 H894 0.942 1_655 S
C907 H895 0.959 . S
C907 C905 1.563 1_655 S
C908 C905 1.555 . S
C908 C909 1.396 . S
C908 C913 1.390 . S
C909 C903 1.465 1_455 S
C909 C908 1.396 . S
C909 C910 1.399 . S
C910 H896 0.929 . S
C910 C909 1.399 . S
C910 C911 1.385 . S
C911 H897 0.931 . S
C911 C910 1.385 . S
C911 C912 1.389 . S
C912 C911 1.389 . S
C912 C913 1.387 . S
C913 H898 0.930 . S
C913 C908 1.390 . S
C913 C912 1.387 . S
H914 C926 0.930 . S
H915 C928 0.930 . S
H916 C929 0.930 . S
H917 C933 0.959 . S
H918 C933 0.959 . S
H919 C933 0.961 . S
H920 C934 0.960 . S
H921 C934 0.961 . S
H922 C934 0.959 . S
H923 C937 0.929 . S
H924 C938 0.931 . S
H925 C940 0.930 . S
C926 H914 0.930 . S
C926 C927 1.399 . S
C926 C931 1.399 . S
C927 C926 1.399 . S
C927 C928 1.376 . S
C928 H915 0.930 . S
C928 C927 1.376 . S
C928 C929 1.388 . S
C929 H916 0.930 . S
C929 C928 1.388 . S
C929 C930 1.390 . S
C930 C929 1.390 . S
C930 C931 1.394 . S
C930 C936 1.465 . S
C931 C926 1.399 . S
C931 C930 1.394 . S
C931 C932 1.516 . S
C932 C931 1.516 . S
C932 C933 1.502 . S
C932 C934 1.561 . S
C932 C935 1.526 . S
C933 H917 0.959 . S
C933 H918 0.959 . S
C933 H919 0.961 . S
C933 C932 1.502 . S
C934 H920 0.960 . S
C934 H921 0.961 . S
C934 H922 0.959 . S
C934 C932 1.561 . S
C935 C932 1.526 . S
C935 C936 1.396 . S
C935 C940 1.390 . S
C936 C930 1.465 . S
C936 C935 1.396 . S
C936 C937 1.399 . S
C937 H923 0.929 . S
C937 C936 1.399 . S
C937 C938 1.385 . S
C938 H924 0.931 . S
C938 C937 1.385 . S
C938 C939 1.389 . S
C939 C938 1.389 . S
C939 C940 1.387 . S
C940 H925 0.930 . S
C940 C935 1.390 . S
C940 C939 1.387 . S
H941 C953 0.930 . S
H942 C955 0.930 . S
H943 C956 0.930 . S
H944 C960 0.959 . S
H945 C960 0.959 . S
H946 C960 0.961 . S
H947 C961 0.960 . S
H948 C961 0.961 . S
H949 C961 0.959 . S
H950 C964 0.929 . S
H951 C965 0.931 . S
H952 C967 0.930 . S
C953 H941 0.930 . S
C953 C954 1.399 . S
C953 C958 1.399 . S
C954 C953 1.399 . S
C954 C955 1.376 . S
C955 H942 0.930 . S
C955 C954 1.376 . S
C955 C956 1.388 . S
C956 H943 0.930 . S
C956 C955 1.388 . S
C956 C957 1.390 . S
C957 C956 1.390 . S
C957 C958 1.394 . S
C957 C963 1.465 . S
C958 C953 1.399 . S
C958 C957 1.394 . S
C958 C959 1.516 . S
C959 C958 1.516 . S
C959 C960 1.502 . S
C959 C961 1.561 . S
C959 C962 1.526 . S
C960 H944 0.959 . S
C960 H945 0.959 . S
C960 H946 0.961 . S
C960 C959 1.502 . S
C961 H947 0.960 . S
C961 H948 0.961 . S
C961 H949 0.959 . S
C961 C959 1.561 . S
C962 C959 1.526 . S
C962 C963 1.396 . S
C962 C967 1.390 . S
C963 C957 1.465 . S
C963 C962 1.396 . S
C963 C964 1.399 . S
C964 H950 0.929 . S
C964 C963 1.399 . S
C964 C965 1.385 . S
C965 H951 0.931 . S
C965 C964 1.385 . S
C965 C966 1.389 . S
C966 C965 1.389 . S
C966 C967 1.387 . S
C967 H952 0.930 . S
C967 C962 1.390 . S
C967 C966 1.387 . S
C333 C6 1.678 . S
C345 C295 1.663 . S
C360 C255 1.658 . S
C372 C46 1.673 . S
C387 C206 1.677 . S
C399 C95 1.663 . S
C414 C166 1.657 . S
C426 C135 1.675 . S
C441 C89 1.556 . S
C453 C9 1.557 . S
C468 C49 1.597 . S
C480 C129 1.508 . S
C495 C138 1.581 . S
C507 C58 1.551 . S
C522 C98 1.581 . S
C534 C18 1.552 . S
C549 C169 1.455 . S
C561 C249 1.410 . S
C576 C209 1.415 1_554 S
C588 C289 1.454 1_554 S
C603 C298 1.458 1_556 S
C615 C218 1.431 1_556 S
C630 C258 1.463 1_556 S
C642 C178 1.423 1_556 S
C657 C19 2.036 . S
C669 C10 2.060 . S
C684 C59 2.043 . S
C696 C50 2.053 . S
C711 C99 2.048 . S
C723 C90 2.065 . S
C738 C130 2.026 . S
C750 C139 2.074 . S
C765 C170 2.080 . S
C777 C179 2.026 . S
C792 C219 2.045 . S
C804 C210 2.050 . S
C819 C250 2.077 . S
C831 C259 2.031 . S
C846 C290 2.024 . S
C858 C299 2.076 . S
C873 C15 2.289 . S
C885 C55 2.283 . S
C900 C126 2.315 . S
C912 C86 2.318 . S
C927 C175 2.281 . S
C939 C215 2.283 . S
C954 C286 2.318 . S
C966 C246 2.320 . S
