# Generated by pormake.
# Topology lhb, (8)-cn, num edge types: 1
# Building blocks:
#     Node 0, Type 0, BuildingBlock: OLANAS_clean_sbu_2, # of connection points: 8
#     Node 1, Type 0, BuildingBlock: OLANAS_clean_sbu_2, # of connection points: 8
#     Node 2, Type 0, BuildingBlock: OLANAS_clean_sbu_2, # of connection points: 8
#     Node 3, Type 0, BuildingBlock: OLANAS_clean_sbu_2, # of connection points: 8
#     Node 4, Type 0, BuildingBlock: OLANAS_clean_sbu_2, # of connection points: 8
#     Node 5, Type 0, BuildingBlock: OLANAS_clean_sbu_2, # of connection points: 8
#     Node 6, Type 0, BuildingBlock: OLANAS_clean_sbu_2, # of connection points: 8
#     Node 7, Type 0, BuildingBlock: OLANAS_clean_sbu_2, # of connection points: 8
#     Edge 8, Type (0, 0), BuildingBlock: MIFKUJ_clean_linker_0, # of connection points: 2
#     Edge 9, Type (0, 0), BuildingBlock: MIFKUJ_clean_linker_0, # of connection points: 2
#     Edge 10, Type (0, 0), BuildingBlock: MIFKUJ_clean_linker_0, # of connection points: 2
#     Edge 11, Type (0, 0), BuildingBlock: MIFKUJ_clean_linker_0, # of connection points: 2
#     Edge 12, Type (0, 0), BuildingBlock: MIFKUJ_clean_linker_0, # of connection points: 2
#     Edge 13, Type (0, 0), BuildingBlock: MIFKUJ_clean_linker_0, # of connection points: 2
#     Edge 14, Type (0, 0), BuildingBlock: MIFKUJ_clean_linker_0, # of connection points: 2
#     Edge 15, Type (0, 0), BuildingBlock: MIFKUJ_clean_linker_0, # of connection points: 2
#     Edge 16, Type (0, 0), BuildingBlock: MIFKUJ_clean_linker_0, # of connection points: 2
#     Edge 17, Type (0, 0), BuildingBlock: MIFKUJ_clean_linker_0, # of connection points: 2
#     Edge 18, Type (0, 0), BuildingBlock: MIFKUJ_clean_linker_0, # of connection points: 2
#     Edge 19, Type (0, 0), BuildingBlock: MIFKUJ_clean_linker_0, # of connection points: 2
#     Edge 20, Type (0, 0), BuildingBlock: MIFKUJ_clean_linker_0, # of connection points: 2
#     Edge 21, Type (0, 0), BuildingBlock: MIFKUJ_clean_linker_0, # of connection points: 2
#     Edge 22, Type (0, 0), BuildingBlock: MIFKUJ_clean_linker_0, # of connection points: 2
#     Edge 23, Type (0, 0), BuildingBlock: MIFKUJ_clean_linker_0, # of connection points: 2
#     Edge 24, Type (0, 0), BuildingBlock: MIFKUJ_clean_linker_0, # of connection points: 2
#     Edge 25, Type (0, 0), BuildingBlock: MIFKUJ_clean_linker_0, # of connection points: 2
#     Edge 26, Type (0, 0), BuildingBlock: MIFKUJ_clean_linker_0, # of connection points: 2
#     Edge 27, Type (0, 0), BuildingBlock: MIFKUJ_clean_linker_0, # of connection points: 2
#     Edge 28, Type (0, 0), BuildingBlock: MIFKUJ_clean_linker_0, # of connection points: 2
#     Edge 29, Type (0, 0), BuildingBlock: MIFKUJ_clean_linker_0, # of connection points: 2
#     Edge 30, Type (0, 0), BuildingBlock: MIFKUJ_clean_linker_0, # of connection points: 2
#     Edge 31, Type (0, 0), BuildingBlock: MIFKUJ_clean_linker_0, # of connection points: 2
#     Edge 32, Type (0, 0), BuildingBlock: MIFKUJ_clean_linker_0, # of connection points: 2
#     Edge 33, Type (0, 0), BuildingBlock: MIFKUJ_clean_linker_0, # of connection points: 2
#     Edge 34, Type (0, 0), BuildingBlock: MIFKUJ_clean_linker_0, # of connection points: 2
#     Edge 35, Type (0, 0), BuildingBlock: MIFKUJ_clean_linker_0, # of connection points: 2
#     Edge 36, Type (0, 0), BuildingBlock: MIFKUJ_clean_linker_0, # of connection points: 2
#     Edge 37, Type (0, 0), BuildingBlock: MIFKUJ_clean_linker_0, # of connection points: 2
#     Edge 38, Type (0, 0), BuildingBlock: MIFKUJ_clean_linker_0, # of connection points: 2
#     Edge 39, Type (0, 0), BuildingBlock: MIFKUJ_clean_linker_0, # of connection points: 2
# Relax obj value: 0.220
# Max RMSD: 0.286
# Mean RMSD: 0.286
data_MOF--net-lhb--node1-OLANAS_clean_sbu_2--edge1-MIFKUJ_clean_linker_0
_symmetry_space_group_name_H-M    P1
_symmetry_Int_Tables_number       1
_symmetry_cell_setting            triclinic
loop_
_symmetry_equiv_pos_as_xyz
'x, y, z'
_cell_length_a     37.936396
_cell_length_b     23.700271
_cell_length_c     79.389168
_cell_angle_alpha  89.979659
_cell_angle_beta   90.037917
_cell_angle_gamma 89.951968
loop_
_atom_site_label
_atom_site_type_symbol
_atom_site_fract_x
_atom_site_fract_y
_atom_site_fract_z
_atom_type_partial_charge
C0 C 0.02082 0.98057 0.00608 0.0
O1 O 0.02894 0.94045 0.01686 0.0
C2 C 0.04741 1.00632 -0.00498 0.0
C3 C 0.08346 0.9945 0.99374 0.0
C4 C 0.10327 0.02436 0.98154 0.0
C5 C 0.08687 0.06444 0.97086 0.0
C6 C 0.05065 0.07359 0.97281 0.0
N7 N 0.0337 0.04525 0.98485 0.0
N8 N 0.98923 0.11641 0.00307 0.0
Co9 Co 0.98598 0.05674 0.9863 0.0
N10 N 0.93819 0.06825 0.9872 0.0
C11 C 0.89159 0.12609 -0.00385 0.0
C12 C 0.86937 0.09621 0.98494 0.0
C13 C 0.88305 0.0529 0.97454 0.0
C14 C 0.91897 0.04022 0.97588 0.0
C15 C 0.9272 0.11079 -0.00318 0.0
N16 N 0.97535 0.99884 0.96967 0.0
N17 N 0.98689 0.99967 0.00401 0.0
N18 N 0.99279 0.11262 0.96858 0.0
C19 C 0.95618 0.13762 0.00617 0.0
O20 O 0.95062 0.17816 0.01716 0.0
C21 C 0.02739 0.11284 0.96365 0.0
O22 O 0.03961 0.14938 0.95265 0.0
C23 C 0.96914 0.15823 0.96463 0.0
C24 C 0.95208 0.25776 0.96709 0.0
C25 C 0.97445 0.21242 0.9715 0.0
C26 C 0.94163 0.14935 0.95325 0.0
C27 C 0.91896 0.19365 0.94873 0.0
C28 C 0.92436 0.2474 0.9557 0.0
C29 C 0.94008 0.99982 0.966 0.0
O30 O 0.92552 0.96294 0.95577 0.0
C31 C 0.99749 0.95157 0.9655 0.0
C32 C 0.02295 0.95717 0.95285 0.0
C33 C 0.0429 0.91034 0.94773 0.0
C34 C 0.03808 0.85831 0.95585 0.0
C35 C 0.01222 0.85136 0.96829 0.0
C36 C 0.99183 0.89837 0.97302 0.0
C37 C 0.9585 0.98136 0.01471 0.0
C38 C 0.92954 0.95227 0.00793 0.0
C39 C 0.90491 0.92614 0.01851 0.0
C40 C 0.90895 0.93045 0.036 0.0
C41 C 0.93804 0.95834 0.04304 0.0
C42 C 0.9625 0.98417 0.0323 0.0
C43 C 0.01822 0.12521 0.0144 0.0
C44 C 0.07514 0.13484 0.0367 0.0
C45 C 0.0417 0.12017 0.04281 0.0
C46 C 0.01351 0.11522 0.03163 0.0
C47 C 0.05114 0.14365 0.00851 0.0
C48 C 0.0801 0.14728 0.01954 0.0
H49 H 0.09587 0.96333 0.00176 0.0
H50 H 0.13122 0.01623 0.98029 0.0
H51 H 0.10195 0.08711 0.96148 0.0
H52 H 0.88141 0.16043 0.0037 0.0
H53 H 0.84176 0.10732 0.98407 0.0
H54 H 0.8663 0.031 0.96565 0.0
H55 H 0.99603 0.21885 0.98023 0.0
H56 H 0.93837 0.10799 0.94768 0.0
H57 H 0.90811 0.28209 0.95137 0.0
H58 H 0.02563 0.99714 0.94636 0.0
H59 H 0.05322 0.82207 0.95169 0.0
H60 H 0.97144 0.89341 0.98239 0.0
H61 H 0.92738 0.94606 -0.00545 0.0
H62 H 0.88963 0.9108 0.04418 0.0
H63 H 0.98587 1.00348 0.03758 0.0
H64 H 0.09691 0.13913 0.04547 0.0
H65 H 0.9878 0.10322 0.03633 0.0
H66 H 0.05422 0.15512 -0.00456 0.0
C67 C 0.21281 0.15109 0.25419 0.0
O68 O 0.20799 0.11338 0.26612 0.0
C69 C 0.18311 0.17941 0.24576 0.0
C70 C 0.1469 0.17009 0.24761 0.0
C71 C 0.12357 0.20161 0.23732 0.0
C72 C 0.13669 0.24052 0.22533 0.0
C73 C 0.17326 0.24683 0.22404 0.0
N74 N 0.19371 0.21783 0.23462 0.0
N75 N 0.24725 0.28454 0.2484 0.0
Co76 Co 0.24141 0.22493 0.23167 0.0
N77 N 0.28905 0.23172 0.22829 0.0
C78 C 0.34118 0.28179 0.2337 0.0
C79 C 0.3576 0.24928 0.22096 0.0
C80 C 0.33841 0.20788 0.21195 0.0
C81 C 0.30282 0.20038 0.216 0.0
C82 C 0.30556 0.2716 0.2371 0.0
N83 N 0.24327 0.16579 0.21461 0.0
N84 N 0.24582 0.16768 0.24912 0.0
N85 N 0.22951 0.28169 0.21469 0.0
C86 C 0.28187 0.30121 0.2488 0.0
O87 O 0.29302 0.3421 0.25865 0.0
C88 C 0.19364 0.28341 0.21261 0.0
O89 O 0.17829 0.32078 0.2028 0.0
C90 C 0.25169 0.32858 0.21007 0.0
C91 C 0.26802 0.42833 0.21267 0.0
C92 C 0.24545 0.3831 0.21662 0.0
C93 C 0.27966 0.32035 0.19889 0.0
C94 C 0.30275 0.36472 0.19506 0.0
C95 C 0.29704 0.41818 0.20214 0.0
C96 C 0.27683 0.16205 0.20832 0.0
O97 O 0.28591 0.12328 0.1973 0.0
C98 C 0.21797 0.12096 0.2126 0.0
C99 C 0.18731 0.13053 0.20315 0.0
C100 C 0.16337 0.08655 0.20017 0.0
C101 C 0.17013 0.03308 0.20698 0.0
C102 C 0.20164 0.02142 0.2155 0.0
C103 C 0.22527 0.06604 0.21867 0.0
C104 C 0.27688 0.15497 0.25877 0.0
C105 C 0.30585 0.12703 0.25152 0.0
C106 C 0.33529 0.11321 0.26145 0.0
C107 C 0.33555 0.1275 0.27859 0.0
C108 C 0.30663 0.15483 0.28599 0.0
C109 C 0.27736 0.16786 0.27599 0.0
C110 C 0.22149 0.30574 0.26007 0.0
C111 C 0.17343 0.35234 0.28299 0.0
C112 C 0.2041 0.32609 0.28891 0.0
C113 C 0.22798 0.30267 0.27747 0.0
C114 C 0.19132 0.3341 0.25431 0.0
C115 C 0.16695 0.35672 0.2657 0.0
H116 H 0.13695 0.13947 0.25653 0.0
H117 H 0.09542 0.19546 0.23849 0.0
H118 H 0.11893 0.26414 0.21731 0.0
H119 H 0.35567 0.31406 0.2404 0.0
H120 H 0.38507 0.25641 0.21799 0.0
H121 H 0.35084 0.1834 0.2021 0.0
H122 H 0.22324 0.39043 0.22482 0.0
H123 H 0.28328 0.2795 0.19306 0.0
H124 H 0.31406 0.45291 0.19857 0.0
H125 H 0.18324 0.17129 0.19731 0.0
H126 H 0.15158 0.9991 0.20471 0.0
H127 H 0.24991 0.05779 0.22513 0.0
H128 H 0.30498 0.11404 0.23848 0.0
H129 H 0.35815 0.11613 0.28626 0.0
H130 H 0.25459 0.18784 0.2816 0.0
H131 H 0.15482 0.37019 0.2919 0.0
H132 H 0.25208 0.28373 0.28208 0.0
H133 H 0.1868 0.33968 0.24107 0.0
C134 C 0.72644 0.68395 0.25775 0.0
O135 O 0.71983 0.6429 0.26844 0.0
C136 C 0.69843 0.7106 0.2477 0.0
C137 C 0.66249 0.69752 0.24701 0.0
C138 C 0.64118 0.72771 0.23545 0.0
C139 C 0.65603 0.76925 0.22478 0.0
C140 C 0.69224 0.77957 0.22611 0.0
N141 N 0.71064 0.75104 0.23763 0.0
N142 N 0.75772 0.82007 0.25507 0.0
Co143 Co 0.75847 0.76232 0.23768 0.0
N144 N 0.80629 0.77362 0.23721 0.0
C145 C 0.85428 0.82948 0.24553 0.0
C146 C 0.87479 0.80109 0.23328 0.0
C147 C 0.85959 0.75928 0.22282 0.0
C148 C 0.82389 0.74664 0.22509 0.0
C149 C 0.81878 0.81442 0.24709 0.0
N150 N 0.76671 0.70601 0.22027 0.0
N151 N 0.75996 0.7036 0.25491 0.0
N152 N 0.74928 0.81982 0.22061 0.0
C153 C 0.7912 0.84009 0.25764 0.0
O154 O 0.7982 0.87955 0.26878 0.0
C155 C 0.71419 0.81948 0.2165 0.0
O156 O 0.70041 0.85672 0.20613 0.0
C157 C 0.77147 0.86767 0.21711 0.0
C158 C 0.78537 0.96792 0.22069 0.0
C159 C 0.764 0.92082 0.22429 0.0
C160 C 0.79992 0.86209 0.20601 0.0
C161 C 0.82184 0.90832 0.20253 0.0
C162 C 0.81443 0.9607 0.20995 0.0
C163 C 0.80144 0.70705 0.21559 0.0
O164 O 0.81456 0.6709 0.20471 0.0
C165 C 0.74389 0.6592 0.21652 0.0
C166 C 0.71554 0.66659 0.20542 0.0
C167 C 0.69282 0.62153 0.20173 0.0
C168 C 0.69924 0.56865 0.20909 0.0
C169 C 0.72772 0.5599 0.22009 0.0
C170 C 0.75015 0.60567 0.22371 0.0
C171 C 0.78948 0.68701 0.26518 0.0
C172 C 0.81931 0.66199 0.25786 0.0
C173 C 0.84674 0.64159 0.26798 0.0
C174 C 0.84418 0.64619 0.28551 0.0
C175 C 0.81381 0.66837 0.29318 0.0
C176 C 0.78679 0.68954 0.28285 0.0
C177 C 0.72897 0.83233 0.2662 0.0
C178 C 0.67272 0.85389 0.28804 0.0
C179 C 0.70468 0.83331 0.29455 0.0
C180 C 0.7326 0.82224 0.28351 0.0
C181 C 0.69761 0.85573 0.26001 0.0
C182 C 0.66891 0.86527 0.27077 0.0
H183 H 0.65132 0.66494 0.25492 0.0
H184 H 0.6133 0.71851 0.23463 0.0
H185 H 0.63987 0.79188 0.2158 0.0
H186 H 0.86562 0.86256 0.2532 0.0
H187 H 0.90228 0.81206 0.23171 0.0
H188 H 0.87507 0.73831 0.21323 0.0
H189 H 0.74156 0.92532 0.2326 0.0
H190 H 0.80463 0.82196 0.1999 0.0
H191 H 0.83018 0.997 0.20646 0.0
H192 H 0.71148 0.70732 0.19956 0.0
H193 H 0.68302 0.53304 0.20547 0.0
H194 H 0.77227 0.59993 0.23215 0.0
H195 H 0.82038 0.65505 0.24446 0.0
H196 H 0.86594 0.63133 0.29318 0.0
H197 H 0.76285 0.70566 0.28848 0.0
H198 H 0.65126 0.86376 0.29655 0.0
H199 H 0.75731 0.80611 0.28837 0.0
H200 H 0.69557 0.86681 0.24687 0.0
C201 C 0.03574 0.43355 0.50774 0.0
O202 O 0.03864 0.39292 0.51894 0.0
C203 C 0.06645 0.45666 0.49878 0.0
C204 C 0.10155 0.43853 0.49918 0.0
C205 C 0.12576 0.46485 0.48812 0.0
C206 C 0.11454 0.50766 0.47688 0.0
C207 C 0.07901 0.52353 0.47722 0.0
N208 N 0.05775 0.49822 0.48824 0.0
N209 N 0.01054 0.57221 0.50363 0.0
Co210 Co 0.0106 0.51413 0.48628 0.0
N211 N 0.96349 0.52963 0.48406 0.0
C212 C 0.91512 0.58552 0.49181 0.0
C213 C 0.89516 0.55681 0.47939 0.0
C214 C 0.91073 0.51423 0.46932 0.0
C215 C 0.94628 0.50139 0.47209 0.0
C216 C 0.95053 0.57038 0.49381 0.0
N217 N 0.00324 0.45813 0.46874 0.0
N218 N 0.0038 0.45621 0.50331 0.0
N219 N 0.02485 0.56979 0.46947 0.0
C220 C 0.9773 0.59433 0.5052 0.0
O221 O 0.96986 0.63448 0.51606 0.0
C222 C 0.06037 0.56502 0.46662 0.0
O223 O 0.07722 0.59886 0.45626 0.0
C224 C 0.00486 0.61859 0.46433 0.0
C225 C 0.99658 0.72088 0.46386 0.0
C226 C 0.01533 0.67313 0.46934 0.0
C227 C 0.97569 0.6124 0.45366 0.0
C228 C 0.95539 0.65937 0.44886 0.0
C229 C 0.96614 0.71327 0.45406 0.0
C230 C 0.96897 0.46025 0.46331 0.0
O231 O 0.95636 0.42419 0.45227 0.0
C232 C 0.02583 0.41072 0.46543 0.0
C233 C 0.05421 0.41645 0.45427 0.0
C234 C 0.07542 0.36969 0.45016 0.0
C235 C 0.06794 0.31727 0.45757 0.0
C236 C 0.03942 0.31085 0.46856 0.0
C237 C 0.01838 0.3576 0.47251 0.0
C238 C 0.97164 0.44248 0.51187 0.0
C239 C 0.94403 0.41476 0.50342 0.0
C240 C 0.91361 0.39869 0.5122 0.0
C241 C 0.91065 0.41134 0.52934 0.0
C242 C 0.93829 0.4377 0.53792 0.0
C243 C 0.96895 0.45239 0.52924 0.0
C244 C 0.03896 0.5863 0.51483 0.0
C245 C 0.09421 0.61398 0.53666 0.0
C246 C 0.06319 0.59054 0.54317 0.0
C247 C 0.03539 0.57755 0.53224 0.0
C248 C 0.06948 0.61233 0.5086 0.0
C249 C 0.09723 0.62713 0.51947 0.0
H250 H 0.10987 0.40469 0.50743 0.0
H251 H 0.15303 0.45147 0.48806 0.0
H252 H 0.13287 0.52703 0.46819 0.0
H253 H 0.90334 0.61848 0.49938 0.0
H254 H 0.86775 0.56777 0.4775 0.0
H255 H 0.8956 0.49262 0.45974 0.0
H256 H 0.03869 0.67848 0.47698 0.0
H257 H 0.96913 0.57106 0.44892 0.0
H258 H 0.95144 0.74999 0.44994 0.0
H259 H 0.05899 0.45702 0.44844 0.0
H260 H 0.08283 0.28011 0.45396 0.0
H261 H 0.9958 0.35234 0.48067 0.0
H262 H 0.9467 0.40309 0.49037 0.0
H263 H 0.88722 0.3985 0.53618 0.0
H264 H 0.99092 0.47053 0.53601 0.0
H265 H 0.11565 0.6236 0.54522 0.0
H266 H 0.01109 0.56072 0.53726 0.0
H267 H 0.07092 0.62337 0.49547 0.0
C268 C 0.22516 0.71101 0.75835 0.0
O269 O 0.21737 0.6768 0.77085 0.0
C270 C 0.1987 0.72891 0.74584 0.0
C271 C 0.16269 0.71642 0.74509 0.0
C272 C 0.14261 0.74098 0.73194 0.0
C273 C 0.15862 0.77696 0.71993 0.0
C274 C 0.19482 0.78703 0.72141 0.0
N275 N 0.21216 0.76293 0.73415 0.0
N276 N 0.24994 0.84644 0.75071 0.0
Co277 Co 0.25883 0.78127 0.73636 0.0
N278 N 0.30559 0.80006 0.73833 0.0
C279 C 0.34741 0.86725 0.74683 0.0
C280 C 0.37265 0.83773 0.73709 0.0
C281 C 0.36295 0.78939 0.72771 0.0
C282 C 0.32789 0.77131 0.72859 0.0
C283 C 0.31284 0.84675 0.74704 0.0
N284 N 0.27509 0.71913 0.72223 0.0
N285 N 0.25846 0.73213 0.75604 0.0
N286 N 0.25183 0.82813 0.71655 0.0
C287 C 0.28119 0.87232 0.75459 0.0
O288 O 0.28267 0.91783 0.76403 0.0
C289 C 0.21759 0.82411 0.7112 0.0
O290 O 0.20514 0.85535 0.69887 0.0
C291 C 0.27497 0.87259 0.71126 0.0
C292 C 0.2913 0.97196 0.71122 0.0
C293 C 0.26877 0.92848 0.71646 0.0
C294 C 0.30356 0.86049 0.70067 0.0
C295 C 0.32697 0.9034 0.69586 0.0
C296 C 0.32071 0.95876 0.70131 0.0
C297 C 0.31063 0.72451 0.71955 0.0
O298 O 0.32853 0.68828 0.71037 0.0
C299 C 0.25561 0.66962 0.71729 0.0
C300 C 0.22899 0.67395 0.70505 0.0
C301 C 0.21208 0.6255 0.69897 0.0
C302 C 0.22228 0.57253 0.70502 0.0
C303 C 0.25003 0.56677 0.71652 0.0
C304 C 0.26613 0.61561 0.72301 0.0
C305 C 0.28677 0.72331 0.76781 0.0
C306 C 0.31802 0.69676 0.76258 0.0
C307 C 0.34555 0.68674 0.77403 0.0
C308 C 0.34144 0.70398 0.79078 0.0
C309 C 0.30953 0.72649 0.79648 0.0
C310 C 0.28219 0.7364 0.78498 0.0
C311 C 0.21696 0.86261 0.75815 0.0
C312 C 0.15244 0.89143 0.77286 0.0
C313 C 0.18041 0.87378 0.78306 0.0
C314 C 0.21261 0.85895 0.77567 0.0
C315 C 0.18958 0.8849 0.74821 0.0
C316 C 0.15694 0.8978 0.75549 0.0
H317 H 0.15042 0.68931 0.75435 0.0
H318 H 0.11465 0.73243 0.73111 0.0
H319 H 0.14323 0.79621 0.70998 0.0
H320 H 0.35452 0.90528 0.75356 0.0
H321 H 0.39951 0.85292 0.73656 0.0
H322 H 0.38202 0.7676 0.71994 0.0
H323 H 0.24605 0.93819 0.72417 0.0
H324 H 0.30739 0.81786 0.69612 0.0
H325 H 0.33788 0.99251 0.6971 0.0
H326 H 0.22308 0.71433 0.6994 0.0
H327 H 0.20956 0.535 0.70009 0.0
H328 H 0.28794 0.61165 0.73174 0.0
H329 H 0.32006 0.68068 0.74992 0.0
H330 H 0.36242 0.69632 0.79979 0.0
H331 H 0.25726 0.75294 0.78942 0.0
H332 H 0.12754 0.90332 0.77859 0.0
H333 H 0.2343 0.84499 0.7835 0.0
H334 H 0.19355 0.89281 0.73497 0.0
C335 C 0.7025 0.14378 0.75518 0.0
O336 O 0.7002 0.10392 0.76666 0.0
C337 C 0.67105 0.16983 0.74764 0.0
C338 C 0.63571 0.15378 0.7492 0.0
C339 C 0.61037 0.1829 0.7394 0.0
C340 C 0.62072 0.22615 0.72816 0.0
C341 C 0.65658 0.23955 0.72723 0.0
N342 N 0.67897 0.21246 0.73739 0.0
N343 N 0.73154 0.28332 0.75042 0.0
Co344 Co 0.72605 0.22443 0.73344 0.0
N345 N 0.77298 0.23593 0.72899 0.0
C346 C 0.82368 0.29056 0.73347 0.0
C347 C 0.83991 0.26047 0.72016 0.0
C348 C 0.82124 0.21824 0.71125 0.0
C349 C 0.7866 0.20666 0.7162 0.0
C350 C 0.78887 0.27692 0.73759 0.0
N351 N 0.72835 0.16706 0.71588 0.0
N352 N 0.73427 0.16598 0.75024 0.0
N353 N 0.71045 0.28117 0.71723 0.0
C354 C 0.76544 0.30349 0.75001 0.0
O355 O 0.77612 0.34481 0.75981 0.0
C356 C 0.67445 0.27958 0.71591 0.0
O357 O 0.65684 0.31555 0.7065 0.0
C358 C 0.7304 0.32961 0.71189 0.0
C359 C 0.74168 0.43153 0.71296 0.0
C360 C 0.72367 0.38344 0.71886 0.0
C361 C 0.75492 0.32424 0.69884 0.0
C362 C 0.77286 0.37175 0.69287 0.0
C363 C 0.76638 0.42481 0.69996 0.0
C364 C 0.76134 0.1663 0.70892 0.0
O365 O 0.77028 0.13017 0.69711 0.0
C366 C 0.70242 0.12437 0.71241 0.0
C367 C 0.67382 0.13762 0.70211 0.0
C368 C 0.64871 0.09667 0.69794 0.0
C369 C 0.65274 0.04146 0.70407 0.0
C370 C 0.68187 0.02637 0.71414 0.0
C371 C 0.70669 0.06864 0.71832 0.0
C372 C 0.7654 0.15991 0.76038 0.0
C373 C 0.79697 0.13912 0.75358 0.0
C374 C 0.82719 0.1335 0.76381 0.0
C375 C 0.82526 0.15053 0.7808 0.0
C376 C 0.79343 0.16962 0.78781 0.0
C377 C 0.7636 0.17283 0.77755 0.0
C378 C 0.7066 0.30099 0.76296 0.0
C379 C 0.66021 0.34061 0.78771 0.0
C380 C 0.69219 0.31538 0.79249 0.0
C381 C 0.71567 0.29757 0.78004 0.0
C382 C 0.67477 0.32673 0.75834 0.0
C383 C 0.65146 0.34753 0.7706 0.0
H384 H 0.628 0.11941 0.75738 0.0
H385 H 0.58287 0.17116 0.74025 0.0
H386 H 0.60154 0.24729 0.72027 0.0
H387 H 0.83769 0.32362 0.74007 0.0
H388 H 0.86677 0.27025 0.71664 0.0
H389 H 0.83345 0.19575 0.70093 0.0
H390 H 0.70428 0.38793 0.72872 0.0
H391 H 0.75882 0.2837 0.69283 0.0
H392 H 0.77956 0.4614 0.69471 0.0
H393 H 0.67165 0.1798 0.69698 0.0
H394 H 0.6343 1.00934 0.7 0.0
H395 H 0.72936 0.05852 0.72606 0.0
H396 H 0.79752 0.12532 0.74061 0.0
H397 H 0.84841 0.14766 0.78875 0.0
H398 H 0.73867 0.18586 0.78288 0.0
H399 H 0.64291 0.35705 0.79739 0.0
H400 H 0.74114 0.28106 0.78364 0.0
H401 H 0.66861 0.33239 0.74524 0.0
C402 C 0.53041 0.97186 0.5019 0.0
O403 O 0.53656 0.93294 0.51334 0.0
C404 C 0.55905 0.99997 0.49267 0.0
C405 C 0.59537 0.98975 0.49334 0.0
C406 C 0.61747 0.02137 0.48251 0.0
C407 C 0.60305 0.06147 0.47122 0.0
C408 C 0.56646 0.06896 0.47119 0.0
N409 N 0.54721 0.03929 0.48209 0.0
N410 N 0.49607 0.10634 0.49775 0.0
Co411 Co 0.49918 0.04772 0.48063 0.0
N412 N 0.45122 0.05587 0.47873 0.0
C413 C 0.40005 0.10513 0.48646 0.0
C414 C 0.38151 0.07302 0.4743 0.0
C415 C 0.39923 0.03258 0.46427 0.0
C416 C 0.43546 0.02533 0.4668 0.0
C417 C 0.43621 0.09524 0.48832 0.0
N418 N 0.49447 0.9901 0.46327 0.0
N419 N 0.49692 0.98941 0.49795 0.0
N420 N 0.50928 0.10526 0.46375 0.0
C421 C 0.46173 0.12373 0.49937 0.0
O422 O 0.45219 0.1628 0.51021 0.0
C423 C 0.54486 0.10708 0.46077 0.0
O424 O 0.55909 0.14499 0.45078 0.0
C425 C 0.48665 0.15223 0.45983 0.0
C426 C 0.47187 0.25247 0.46233 0.0
C427 C 0.49358 0.20625 0.46647 0.0
C428 C 0.45804 0.14457 0.44901 0.0
C429 C 0.43573 0.18982 0.44488 0.0
C430 C 0.44299 0.24347 0.45156 0.0
C431 C 0.46008 0.98721 0.45805 0.0
O432 O 0.44923 0.9492 0.44716 0.0
C433 C 0.51934 0.94554 0.46007 0.0
C434 C 0.54922 0.95633 0.4503 0.0
C435 C 0.57398 0.91366 0.44728 0.0
C436 C 0.56771 0.85912 0.45345 0.0
C437 C 0.53718 0.84647 0.46277 0.0
C438 C 0.51328 0.89061 0.46625 0.0
C439 C 0.46686 0.97491 0.50805 0.0
C440 C 0.43737 0.94896 0.50081 0.0
C441 C 0.4078 0.93624 0.51068 0.0
C442 C 0.40873 0.94727 0.52805 0.0
C443 C 0.43868 0.97113 0.5357 0.0
C444 C 0.46769 0.98439 0.5255 0.0
C445 C 0.52293 0.12061 0.50971 0.0
C446 C 0.57725 0.13837 0.53297 0.0
C447 C 0.54428 0.11892 0.53855 0.0
C448 C 0.51721 0.11093 0.52685 0.0
C449 C 0.55493 0.14377 0.50443 0.0
C450 C 0.58259 0.15179 0.51591 0.0
H451 H 0.60629 0.95836 0.50176 0.0
H452 H 0.64567 0.01445 0.48275 0.0
H453 H 0.61983 0.0853 0.46281 0.0
H454 H 0.38666 0.13667 0.49395 0.0
H455 H 0.35353 0.0798 0.47256 0.0
H456 H 0.38516 1.00843 0.45485 0.0
H457 H 0.51587 0.21209 0.47481 0.0
H458 H 0.45362 0.10331 0.44363 0.0
H459 H 0.42726 0.27921 0.44757 0.0
H460 H 0.55292 0.99774 0.44485 0.0
H461 H 0.58576 0.82566 0.44998 0.0
H462 H 0.48986 0.88258 0.47366 0.0
H463 H 0.43758 0.93776 0.48764 0.0
H464 H 0.38653 0.93445 0.53572 0.0
H465 H 0.49127 1.00172 0.53107 0.0
H466 H 0.59818 0.14553 0.54202 0.0
H467 H 0.49165 0.09649 0.53104 0.0
H468 H 0.55836 0.15553 0.49142 0.0
C469 C 0.54726 0.391 0.00773 0.0
O470 O 0.55115 0.35144 0.0192 0.0
C471 C 0.5775 0.41595 -0.00121 0.0
C472 C 0.6132 0.4013 -0.00038 0.0
C473 C 0.63699 0.43015 0.98891 0.0
C474 C 0.62481 0.47203 0.97757 0.0
C475 C 0.5887 0.48404 0.97737 0.0
N476 N 0.56787 0.45657 0.98813 0.0
N477 N 0.51969 0.52814 0.00365 0.0
Co478 Co 0.5205 0.47017 0.98628 0.0
N479 N 0.47318 0.48351 0.98416 0.0
C480 C 0.42407 0.53772 0.99188 0.0
C481 C 0.40459 0.50847 0.9794 0.0
C482 C 0.42076 0.46639 0.96935 0.0
C483 C 0.45644 0.45472 0.97214 0.0
C484 C 0.45964 0.52372 -0.00606 0.0
N485 N 0.51406 0.41389 0.96875 0.0
N486 N 0.51478 0.41177 0.00331 0.0
N487 N 0.53345 0.52673 0.9695 0.0
C488 C 0.48609 0.54872 0.00533 0.0
O489 O 0.47812 0.58869 0.01615 0.0
C490 C 0.5691 0.52442 0.96674 0.0
O491 O 0.58522 0.56021 0.95671 0.0
C492 C 0.5125 0.57499 0.96478 0.0
C493 C 0.5006 0.67631 0.96643 0.0
C494 C 0.52085 0.62911 0.97101 0.0
C495 C 0.48407 0.56867 0.95363 0.0
C496 C 0.46319 0.61532 0.94907 0.0
C497 C 0.47206 0.66878 0.95545 0.0
C498 C 0.47972 0.41423 0.96342 0.0
O499 O 0.46779 0.37792 0.95228 0.0
C500 C 0.53843 0.36928 0.9648 0.0
C501 C 0.56679 0.37997 0.95402 0.0
C502 C 0.59142 0.33754 0.95036 0.0
C503 C 0.58662 0.28349 0.95718 0.0
C504 C 0.55796 0.27116 0.96781 0.0
C505 C 0.53398 0.3149 0.97165 0.0
C506 C 0.48317 0.39856 0.0125 0.0
C507 C 0.45458 0.3713 0.00465 0.0
C508 C 0.42447 0.35712 0.01402 0.0
C509 C 0.4231 0.37046 0.03119 0.0
C510 C 0.45156 0.39692 0.03924 0.0
C511 C 0.48168 0.41 0.02982 0.0
C512 C 0.5483 0.54437 0.0145 0.0
C513 C 0.60394 0.57608 0.0357 0.0
C514 C 0.57387 0.55048 0.04261 0.0
C515 C 0.54588 0.53565 0.03194 0.0
C516 C 0.57804 0.57157 0.00793 0.0
C517 C 0.60601 0.58762 0.0184 0.0
H518 H 0.62238 0.36852 0.00805 0.0
H519 H 0.66474 0.41967 0.98926 0.0
H520 H 0.6429 0.49361 0.96923 0.0
H521 H 0.41182 0.57026 -0.00056 0.0
H522 H 0.37705 0.51851 0.97749 0.0
H523 H 0.40595 0.44424 0.95976 0.0
H524 H 0.54294 0.63459 0.97941 0.0
H525 H 0.47863 0.52754 0.94838 0.0
H526 H 0.45771 0.70566 0.95119 0.0
H527 H 0.56952 0.42138 0.94842 0.0
H528 H 0.60431 0.25002 0.95332 0.0
H529 H 0.5119 0.30711 0.97997 0.0
H530 H 0.45621 0.35907 0.99157 0.0
H531 H 0.39994 0.35868 0.03838 0.0
H532 H 0.50426 0.42858 0.03595 0.0
H533 H 0.62501 0.58986 0.04395 0.0
H534 H 0.52214 0.51771 0.03719 0.0
H535 H 0.5794 0.58126 -0.00527 0.0
H536 H 0.99648 0.17885 0.06265 0.0
H537 H 0.99285 0.17618 0.09354 0.0
H538 H 0.06945 0.04158 0.09451 0.0
H539 H 0.07378 0.0452 0.06371 0.0
H540 H 0.01165 0.03473 0.12004 0.0
H541 H 0.10127 0.16454 0.0958 0.0
H542 H 0.11687 0.2456 0.07778 0.0
H543 H 0.04458 0.35068 0.10516 0.0
H544 H 0.0282 0.26983 0.12318 0.0
H545 H 0.14685 0.01517 0.17482 0.0
H546 H 0.10248 0.0263 0.15324 0.0
H547 H 0.07001 0.18461 0.17522 0.0
H548 H 0.11543 0.17364 0.19713 0.0
H549 H 0.08037 0.19589 0.14276 0.0
H550 H 0.00679 0.07175 0.17312 0.0
H551 H 0.9927 0.99058 0.19136 0.0
H552 H 0.03213 0.87688 0.1537 0.0
H553 H 0.04745 0.95757 0.13551 0.0
C554 C 0.01195 0.14801 0.06951 0.0
C555 C 0.03583 0.11279 0.06101 0.0
C556 C 0.00971 0.14634 0.08706 0.0
C557 C 0.03093 0.1088 0.09621 0.0
C558 C 0.05275 0.07062 0.0876 0.0
C559 C 0.0555 0.07305 0.0701 0.0
C560 C 0.03532 0.11514 0.11456 0.0
C561 C 0.02619 0.07019 0.12515 0.0
C562 C 0.05298 0.16256 0.1213 0.0
C563 C 0.06322 0.21116 0.11067 0.0
C564 C 0.08855 0.20486 0.09789 0.0
C565 C 0.09755 0.25074 0.08769 0.0
C566 C 0.08165 0.30323 0.0903 0.0
C567 C 0.05681 0.30997 0.10314 0.0
C568 C 0.04764 0.26415 0.11333 0.0
C569 C 0.12966 0.05165 0.17543 0.0
C570 C 0.13429 0.09316 0.18786 0.0
C571 C 0.10402 0.05781 0.1631 0.0
C572 C 0.08202 0.10539 0.16288 0.0
C573 C 0.08628 0.14703 0.17532 0.0
C574 C 0.1123 0.14095 0.18775 0.0
C575 C 0.05852 0.11387 0.14817 0.0
C576 C 0.06411 0.16164 0.1381 0.0
C577 C 0.03717 0.06939 0.14202 0.0
C578 C 0.02774 0.02061 0.15283 0.0
C579 C 0.01246 0.02942 0.16874 0.0
C580 C 0.00439 0.98353 0.1791 0.0
C581 C 0.01129 0.92857 0.17365 0.0
C582 C 0.0266 0.91944 0.15789 0.0
C583 C 0.03483 0.96521 0.14751 0.0
H584 H 0.00483 0.89309 0.18166 0.0
H585 H 0.08865 0.33871 0.08239 0.0
H586 H 0.9595 0.04409 0.06404 0.0
H587 H 0.96314 0.04143 0.09493 0.0
H588 H 0.9323 0.86616 0.09429 0.0
H589 H 0.93005 0.86798 0.06376 0.0
H590 H 0.91163 0.02703 0.11549 0.0
H591 H 0.9604 0.79258 0.12793 0.0
H592 H 0.00631 0.72873 0.11717 0.0
H593 H 0.06347 0.86993 0.09721 0.0
H594 H 0.01832 0.93488 0.10805 0.0
H595 H 0.81829 0.86101 0.1713 0.0
H596 H 0.86037 0.87315 0.14828 0.0
H597 H 0.93099 0.9614 0.1816 0.0
H598 H 0.88913 0.94908 0.20482 0.0
H599 H 0.95329 0.86381 0.14927 0.0
H600 H 0.91635 0.0545 0.16625 0.0
H601 H 0.87131 0.11815 0.17823 0.0
H602 H 0.79828 0.06871 0.13961 0.0
H603 H 0.84279 1.00414 0.12759 0.0
C604 C 0.95432 1.00476 0.07053 0.0
C605 C 0.94382 0.95652 0.06152 0.0
C606 C 0.95637 1.0033 0.08815 0.0
C607 C 0.94836 0.95346 0.09697 0.0
C608 C 0.93934 0.90485 0.08785 0.0
C609 C 0.93741 0.90621 0.07036 0.0
C610 C 0.94482 0.95299 0.11559 0.0
C611 C 0.92182 0.99229 0.12295 0.0
C612 C 0.95836 0.90811 0.12553 0.0
C613 C 0.98579 0.86891 0.11892 0.0
C614 C 0.98289 0.81027 0.12141 0.0
C615 C 0.00879 0.77376 0.11523 0.0
C616 C 0.0378 0.79524 0.10652 0.0
C617 C 0.04096 0.85329 0.10395 0.0
C618 C 0.01515 0.88999 0.11009 0.0
C619 C 0.84332 0.88117 0.1739 0.0
C620 C 0.85032 0.90455 0.1898 0.0
C621 C 0.86729 0.88819 0.16074 0.0
C622 C 0.89866 0.91827 0.1633 0.0
C623 C 0.90702 0.93784 0.17945 0.0
C624 C 0.88298 0.93109 0.19263 0.0
C625 C 0.91928 0.93609 0.14847 0.0
C626 C 0.94484 0.89977 0.14185 0.0
C627 C 0.90911 0.98445 0.13932 0.0
C628 C 0.88273 0.02443 0.14611 0.0
C629 C 0.89061 0.05711 0.16038 0.0
C630 C 0.86521 0.0933 0.16717 0.0
C631 C 0.83193 0.09741 0.1597 0.0
C632 C 0.82405 0.06547 0.14539 0.0
C633 C 0.84936 0.02913 0.13857 0.0
H634 H 0.81228 0.12538 0.16499 0.0
H635 H 0.05782 0.76688 0.10175 0.0
H636 H 0.1399 0.31663 0.44841 0.0
H637 H 0.17625 0.30438 0.4232 0.0
H638 H 0.10804 0.41784 0.3959 0.0
H639 H 0.07073 0.42806 0.42058 0.0
H640 H 0.11348 0.31699 0.38072 0.0
H641 H 0.19293 0.45097 0.40742 0.0
H642 H 0.23323 0.48471 0.4296 0.0
H643 H 0.2999 0.34048 0.42197 0.0
H644 H 0.25964 0.30523 0.39997 0.0
H645 H 0.21419 0.41468 0.30972 0.0
H646 H 0.20969 0.41373 0.34047 0.0
H647 H 0.20157 0.23222 0.33974 0.0
H648 H 0.20689 0.23307 0.30888 0.0
H649 H 0.24058 0.35205 0.3703 0.0
H650 H 0.12257 0.21284 0.35984 0.0
H651 H 0.0841 0.18021 0.33669 0.0
H652 H 0.09584 0.33997 0.31177 0.0
H653 H 0.13376 0.37375 0.33492 0.0
C654 C 0.13291 0.33954 0.43708 0.0
C655 C 0.10205 0.37271 0.43647 0.0
C656 C 0.1539 0.33281 0.42274 0.0
C657 C 0.14464 0.35983 0.40766 0.0
C658 C 0.11549 0.39634 0.40741 0.0
C659 C 0.09437 0.40267 0.42164 0.0
C660 C 0.16242 0.34575 0.39162 0.0
C661 C 0.14135 0.32436 0.37856 0.0
C662 C 0.19896 0.35397 0.38887 0.0
C663 C 0.22291 0.375 0.40223 0.0
C664 C 0.21591 0.42603 0.41062 0.0
C665 C 0.23881 0.4455 0.42314 0.0
C666 C 0.26901 0.41461 0.42725 0.0
C667 C 0.27642 0.36423 0.41883 0.0
C668 C 0.25355 0.34447 0.40634 0.0
C669 C 0.21284 0.37455 0.31623 0.0
C670 C 0.21059 0.32399 0.30714 0.0
C671 C 0.21049 0.37399 0.33374 0.0
C672 C 0.20519 0.32296 0.34227 0.0
C673 C 0.20592 0.27191 0.3333 0.0
C674 C 0.20887 0.27241 0.31576 0.0
C675 C 0.19133 0.32492 0.35958 0.0
C676 C 0.21296 0.3436 0.37276 0.0
C677 C 0.15528 0.31435 0.36258 0.0
C678 C 0.13123 0.29548 0.34899 0.0
C679 C 0.11672 0.24103 0.34946 0.0
C680 C 0.09503 0.22236 0.33635 0.0
C681 C 0.08762 0.25793 0.32274 0.0
C682 C 0.10166 0.31241 0.32229 0.0
C683 C 0.12321 0.33134 0.33541 0.0
H684 H 0.07096 0.24332 0.31257 0.0
H685 H 0.28673 0.42982 0.43692 0.0
H686 H 0.78107 0.74499 0.31442 0.0
H687 H 0.77999 0.74344 0.34525 0.0
H688 H 0.83899 0.5875 0.34489 0.0
H689 H 0.8368 0.5857 0.3145 0.0
H690 H 0.7995 0.58392 0.37014 0.0
H691 H 0.87517 0.73666 0.34651 0.0
H692 H 0.88368 0.82685 0.33148 0.0
H693 H 0.81254 0.90906 0.36565 0.0
H694 H 0.80299 0.81903 0.38062 0.0
H695 H 0.94799 0.58893 0.42168 0.0
H696 H 0.90109 0.58968 0.40072 0.0
H697 H 0.84648 0.7192 0.42852 0.0
H698 H 0.89266 0.7171 0.45005 0.0
H699 H 0.86048 0.74854 0.3953 0.0
H700 H 0.80547 0.60026 0.42441 0.0
H701 H 0.80166 0.5108 0.44014 0.0
H702 H 0.83662 0.41971 0.39649 0.0
H703 H 0.84132 0.5087 0.38057 0.0
C704 C 0.79303 0.70969 0.32092 0.0
C705 C 0.81012 0.66645 0.31188 0.0
C706 C 0.79271 0.70915 0.33859 0.0
C707 C 0.81042 0.6663 0.34751 0.0
C708 C 0.82539 0.62147 0.33844 0.0
C709 C 0.82482 0.62114 0.32093 0.0
C710 C 0.81696 0.6694 0.366 0.0
C711 C 0.8127 0.62004 0.37566 0.0
C712 C 0.83254 0.71739 0.37364 0.0
C713 C 0.83806 0.77113 0.36452 0.0
C714 C 0.86118 0.77394 0.35072 0.0
C715 C 0.86614 0.82497 0.34221 0.0
C716 C 0.84856 0.87361 0.34757 0.0
C717 C 0.82608 0.87134 0.36149 0.0
C718 C 0.82075 0.8203 0.36994 0.0
C719 C 0.9255 0.61624 0.42371 0.0
C720 C 0.92442 0.65351 0.43747 0.0
C721 C 0.89868 0.61673 0.41166 0.0
C722 C 0.87033 0.65455 0.41307 0.0
C723 C 0.86819 0.68982 0.42719 0.0
C724 C 0.89477 0.68882 0.43939 0.0
C725 C 0.84577 0.66157 0.39871 0.0
C726 C 0.84628 0.713 0.38999 0.0
C727 C 0.82713 0.61535 0.3919 0.0
C728 C 0.82379 0.56135 0.40129 0.0
C729 C 0.81253 0.56121 0.41818 0.0
C730 C 0.81021 0.51055 0.42713 0.0
C731 C 0.81889 0.45961 0.41932 0.0
C732 C 0.82985 0.45922 0.40252 0.0
C733 C 0.83229 0.50978 0.39351 0.0
H734 H 0.81711 0.42044 0.42628 0.0
H735 H 0.85243 0.91308 0.34097 0.0
H736 H 0.10472 0.5261 0.5631 0.0
H737 H 0.10906 0.52985 0.59371 0.0
H738 H 0.02042 0.64404 0.59545 0.0
H739 H 0.01611 0.64008 0.56453 0.0
H740 H 0.07573 0.68778 0.61159 0.0
H741 H 0.01277 0.51797 0.61888 0.0
H742 H 0.99241 0.42072 0.61395 0.0
H743 H 0.09799 0.35899 0.62009 0.0
H744 H 0.11897 0.45585 0.62547 0.0
H745 H 0.15032 0.68578 0.69695 0.0
H746 H 0.10601 0.68114 0.67427 0.0
H747 H 0.17287 0.5657 0.64692 0.0
H748 H 0.21657 0.57018 0.66937 0.0
H749 H 0.10481 0.52751 0.6493 0.0
H750 H 0.16571 0.70841 0.63649 0.0
H751 H 0.18163 0.8058 0.64446 0.0
H752 H 0.07215 0.84692 0.65076 0.0
H753 H 0.05566 0.7496 0.64296 0.0
C754 C 0.08546 0.55046 0.57008 0.0
C755 C 0.06011 0.58274 0.56157 0.0
C756 C 0.08778 0.55244 0.58759 0.0
C757 C 0.06488 0.58696 0.59695 0.0
C758 C 0.03819 0.61688 0.58851 0.0
C759 C 0.03563 0.61439 0.5709 0.0
C760 C 0.07288 0.5975 0.61499 0.0
C761 C 0.08104 0.65284 0.62005 0.0
C762 C 0.07949 0.55235 0.62619 0.0
C763 C 0.06744 0.49418 0.62248 0.0
C764 C 0.03169 0.48371 0.61905 0.0
C765 C 0.02002 0.42863 0.61622 0.0
C766 C 0.04389 0.38374 0.61653 0.0
C767 C 0.07952 0.3938 0.61982 0.0
C768 C 0.09128 0.44874 0.62289 0.0
C769 C 0.15555 0.66023 0.68595 0.0
C770 C 0.18665 0.6282 0.68488 0.0
C771 C 0.13025 0.6573 0.67309 0.0
C772 C 0.13605 0.62263 0.65899 0.0
C773 C 0.16762 0.59208 0.65778 0.0
C774 C 0.19263 0.59484 0.67056 0.0
C775 C 0.10987 0.61697 0.64524 0.0
C776 C 0.09823 0.56256 0.64108 0.0
C777 C 0.0995 0.66309 0.63509 0.0
C778 C 0.1095 0.72178 0.63929 0.0
C779 C 0.14508 0.73824 0.63962 0.0
C780 C 0.15419 0.79339 0.6441 0.0
C781 C 0.12793 0.83249 0.64815 0.0
C782 C 0.09247 0.81659 0.64764 0.0
C783 C 0.08323 0.76149 0.64317 0.0
H784 H 0.13504 0.87512 0.65165 0.0
H785 H 0.03475 0.34115 0.61429 0.0
H786 H 0.8405 0.33321 0.6909 0.0
H787 H 0.87963 0.3382 0.66619 0.0
H788 H 0.79461 0.40994 0.637 0.0
H789 H 0.7558 0.40446 0.66153 0.0
H790 H 0.83073 0.33209 0.61914 0.0
H791 H 0.85586 0.49103 0.65583 0.0
H792 H 0.87525 0.53643 0.68218 0.0
H793 H 0.97655 0.45682 0.67774 0.0
H794 H 0.95752 0.41012 0.65149 0.0
H795 H 0.88926 0.49747 0.55499 0.0
H796 H 0.87361 0.48459 0.58463 0.0
H797 H 0.96331 0.37497 0.5913 0.0
H798 H 0.97971 0.38927 0.56173 0.0
H799 H 0.93453 0.45939 0.62159 0.0
H800 H 0.90861 0.30069 0.58403 0.0
H801 H 0.88934 0.26477 0.55635 0.0
H802 H 0.78997 0.34948 0.56204 0.0
H803 H 0.80899 0.38685 0.58963 0.0
C804 C 0.83025 0.34885 0.67906 0.0
C805 C 0.79537 0.36811 0.67789 0.0
C806 C 0.85253 0.35209 0.66506 0.0
C807 C 0.84001 0.37476 0.64983 0.0
C808 C 0.80472 0.39212 0.64861 0.0
C809 C 0.78263 0.38907 0.66256 0.0
C810 C 0.86356 0.38327 0.63522 0.0
C811 C 0.85368 0.35931 0.61977 0.0
C812 C 0.89376 0.41839 0.63605 0.0
C813 C 0.90504 0.44627 0.65187 0.0
C814 C 0.88211 0.48264 0.66058 0.0
C815 C 0.89307 0.50872 0.67548 0.0
C816 C 0.92705 0.49929 0.68168 0.0
C817 C 0.95019 0.46389 0.67296 0.0
C818 C 0.93932 0.43756 0.65809 0.0
C819 C 0.90654 0.47296 0.56304 0.0
C820 C 0.93557 0.44427 0.55626 0.0
C821 C 0.89766 0.46566 0.5799 0.0
C822 C 0.91745 0.42907 0.59006 0.0
C823 C 0.94832 0.40445 0.58372 0.0
C824 C 0.9575 0.41235 0.56685 0.0
C825 C 0.90158 0.4081 0.60576 0.0
C826 C 0.91255 0.43018 0.62123 0.0
C827 C 0.87245 0.37112 0.60504 0.0
C828 C 0.86027 0.3467 0.58884 0.0
C829 C 0.88271 0.31183 0.57934 0.0
C830 C 0.87186 0.29125 0.56367 0.0
C831 C 0.83846 0.3048 0.55745 0.0
C832 C 0.81583 0.33896 0.56689 0.0
C833 C 0.82661 0.3598 0.58255 0.0
H834 H 0.83011 0.28866 0.54535 0.0
H835 H 0.93551 0.51959 0.6932 0.0
H836 H 0.21778 0.93568 0.80567 0.0
H837 H 0.20226 0.95292 0.83526 0.0
H838 H 0.11685 0.83342 0.83108 0.0
H839 H 0.13165 0.81775 0.80146 0.0
H840 H 0.09469 0.93078 0.84397 0.0
H841 H 0.19623 0.8088 0.85101 0.0
H842 H 0.25878 0.7856 0.8471 0.0
H843 H 0.28854 0.93052 0.87626 0.0
H844 H 0.22595 0.95621 0.87969 0.0
H845 H 0.04284 0.83656 0.92175 0.0
H846 H 0.07592 0.8419 0.89558 0.0
H847 H 0.12524 0.99596 0.91225 0.0
H848 H 0.09199 0.99068 0.93891 0.0
H849 H 0.17095 0.90292 0.89412 0.0
H850 H 0.07056 0.02407 0.8879 0.0
H851 H 0.00801 0.05005 0.8912 0.0
H852 H 0.97743 0.90811 0.86096 0.0
H853 H 0.0398 0.88066 0.85773 0.0
C854 C 0.19627 0.91223 0.81128 0.0
C855 C 0.17593 0.87523 0.80147 0.0
C856 C 0.18731 0.92229 0.82809 0.0
C857 C 0.15832 0.89459 0.83534 0.0
C858 C 0.13913 0.85558 0.82569 0.0
C859 C 0.14774 0.84621 0.80887 0.0
C860 C 0.14654 0.90753 0.85269 0.0
C861 C 0.11144 0.92465 0.85491 0.0
C862 C 0.1688 0.90178 0.86694 0.0
C863 C 0.20634 0.88501 0.86536 0.0
C864 C 0.21607 0.83629 0.85637 0.0
C865 C 0.25161 0.82278 0.85419 0.0
C866 C 0.27771 0.85675 0.86135 0.0
C867 C 0.26829 0.90436 0.87067 0.0
C868 C 0.23278 0.91857 0.87267 0.0
C869 C 0.06126 0.87101 0.92007 0.0
C870 C 0.06504 0.91305 0.93241 0.0
C871 C 0.08004 0.87405 0.90508 0.0
C872 C 0.10293 0.91921 0.90207 0.0
C873 C 0.10775 0.96063 0.91448 0.0
C874 C 0.08863 0.95783 0.92957 0.0
C875 C 0.11901 0.92424 0.88523 0.0
C876 C 0.15466 0.91039 0.88311 0.0
C877 C 0.09744 0.93335 0.87098 0.0
C878 C 0.05987 0.95012 0.87267 0.0
C879 C 0.05049 0.99814 0.88206 0.0
C880 C 0.01506 0.01317 0.88391 0.0
C881 C 0.98875 0.98071 0.87631 0.0
C882 C 0.99783 0.93321 0.86683 0.0
C883 C 0.03323 0.91794 0.86498 0.0
H884 H 0.96134 0.99241 0.87776 0.0
H885 H 0.30522 0.84608 0.8598 0.0
H886 H 0.84011 0.23097 0.8065 0.0
H887 H 0.84063 0.24287 0.83705 0.0
H888 H 0.74126 0.15547 0.84067 0.0
H889 H 0.74104 0.14188 0.81012 0.0
H890 H 0.79855 0.2853 0.86284 0.0
H891 H 0.75188 0.06133 0.87308 0.0
H892 H 0.74374 0.9721 0.85746 0.0
H893 H 0.83159 0.01304 0.82564 0.0
H894 H 0.84046 0.10201 0.84121 0.0
H895 H 0.85092 0.23334 0.94823 0.0
H896 H 0.80961 0.23125 0.92441 0.0
H897 H 0.88496 0.13501 0.89556 0.0
H898 H 0.92601 0.13701 0.91909 0.0
H899 H 0.819 0.09887 0.88964 0.0
H900 H 0.8807 0.28222 0.89403 0.0
H901 H 0.89408 0.37177 0.90857 0.0
H902 H 0.78377 0.41282 0.90973 0.0
H903 H 0.76994 0.32298 0.89549 0.0
C904 C 0.81823 0.21467 0.81378 0.0
C905 C 0.79105 0.18419 0.80596 0.0
C906 C 0.81826 0.22228 0.8312 0.0
C907 C 0.7912 0.19938 0.84111 0.0
C908 C 0.76252 0.17302 0.83323 0.0
C909 C 0.76248 0.16533 0.81577 0.0
C910 C 0.79648 0.19519 0.85954 0.0
C911 C 0.80226 0.24459 0.86884 0.0
C912 C 0.80116 0.14211 0.86739 0.0
C913 C 0.7965 0.08842 0.85815 0.0
C914 C 0.76946 0.0511 0.86277 0.0
C915 C 0.76474 1.00063 0.85394 0.0
C916 C 0.78705 0.98701 0.84053 0.0
C917 C 0.81426 0.0237 0.83598 0.0
C918 C 0.81914 0.07412 0.8448 0.0
C919 C 0.8584 0.21119 0.93684 0.0
C920 C 0.89183 0.1857 0.93547 0.0
C921 C 0.83477 0.20993 0.9233 0.0
C922 C 0.84438 0.18351 0.90817 0.0
C923 C 0.8769 0.15541 0.90715 0.0
C924 C 0.90039 0.15649 0.92064 0.0
C925 C 0.82273 0.18897 0.89271 0.0
C926 C 0.81373 0.13968 0.88395 0.0
C927 C 0.8156 0.24215 0.88531 0.0
C928 C 0.82421 0.29586 0.89387 0.0
C929 C 0.85934 0.31024 0.8975 0.0
C930 C 0.86702 0.361 0.90569 0.0
C931 C 0.8398 0.39793 0.91011 0.0
C932 C 0.80485 0.38418 0.90634 0.0
C933 C 0.79707 0.33338 0.89823 0.0
H934 H 0.8458 0.43722 0.91643 0.0
H935 H 0.78331 0.94797 0.83369 0.0
H936 H 0.57848 0.06887 0.69935 0.0
H937 H 0.53482 0.0791 0.67667 0.0
H938 H 0.61296 0.16216 0.64592 0.0
H939 H 0.65594 0.15307 0.66841 0.0
H940 H 0.54868 0.20562 0.63988 0.0
H941 H 0.60146 1.00933 0.64528 0.0
H942 H 0.60891 0.92737 0.66409 0.0
H943 H 0.49676 0.91708 0.67062 0.0
H944 H 0.48869 0.99945 0.65186 0.0
H945 H 0.5852 0.06 0.56069 0.0
H946 H 0.57747 0.05314 0.59122 0.0
H947 H 0.48082 0.14822 0.5875 0.0
H948 H 0.48822 0.15482 0.55707 0.0
H949 H 0.52632 0.01714 0.61477 0.0
H950 H 0.48367 0.24295 0.61941 0.0
H951 H 0.48012 0.32981 0.60228 0.0
H952 H 0.57508 0.28309 0.57633 0.0
H953 H 0.57927 0.19631 0.59343 0.0
C954 C 0.58596 0.09023 0.68783 0.0
C955 C 0.62065 0.10973 0.68556 0.0
C956 C 0.56103 0.09621 0.67494 0.0
C957 C 0.57075 0.12076 0.65952 0.0
C958 C 0.60471 0.14344 0.65774 0.0
C959 C 0.62937 0.13807 0.67061 0.0
C960 C 0.54848 0.11592 0.64424 0.0
C961 C 0.54266 0.16455 0.63457 0.0
C962 C 0.54007 0.0625 0.63735 0.0
C963 C 0.54453 1.01017 0.64721 0.0
C964 C 0.57841 0.98905 0.65058 0.0
C965 C 0.58271 0.94275 0.66128 0.0
C966 C 0.55328 0.91693 0.66853 0.0
C967 C 0.51947 0.9373 0.66503 0.0
C968 C 0.515 0.9836 0.65431 0.0
C969 C 0.56202 0.07859 0.56641 0.0
C970 C 0.53762 0.10873 0.55662 0.0
C971 C 0.55734 0.07399 0.58379 0.0
C972 C 0.52848 0.10009 0.59164 0.0
C973 C 0.50298 0.1272 0.58173 0.0
C974 C 0.50742 0.1313 0.56434 0.0
C975 C 0.52886 0.10673 0.61016 0.0
C976 C 0.53035 0.05841 0.62036 0.0
C977 C 0.53319 0.16057 0.61757 0.0
C978 C 0.53154 0.21313 0.60755 0.0
C979 C 0.50382 0.25144 0.61008 0.0
C980 C 0.50169 0.30057 0.60038 0.0
C981 C 0.52731 0.31189 0.58819 0.0
C982 C 0.55521 0.27423 0.58574 0.0
C983 C 0.55748 0.2251 0.59543 0.0
H984 H 0.52557 0.34988 0.58067 0.0
H985 H 0.55663 0.88122 0.67687 0.0
H986 H 0.38428 1.00013 0.55671 0.0
H987 H 0.38316 0.99531 0.58707 0.0
H988 H 0.49525 0.96365 0.58793 0.0
H989 H 0.49585 0.96192 0.55725 0.0
H990 H 0.4685 0.89222 0.60658 0.0
H991 H 0.45403 0.09182 0.60983 0.0
H992 H 0.43212 0.18734 0.6027 0.0
H993 H 0.32581 0.13271 0.61119 0.0
H994 H 0.34714 0.03736 0.61843 0.0
H995 H 0.39554 0.93859 0.69721 0.0
H996 H 0.43513 0.94891 0.67304 0.0
H997 H 0.36076 0.85957 0.6419 0.0
H998 H 0.32118 0.84915 0.66589 0.0
H999 H 0.38826 1.00334 0.64297 0.0
H1000 H 0.41173 0.79542 0.63983 0.0
H1001 H 0.44166 0.71083 0.65068 0.0
H1002 H 0.54209 0.79139 0.64431 0.0
H1003 H 0.51263 0.87684 0.63358 0.0
C1004 C 0.40879 0.99184 0.56326 0.0
C1005 C 0.43987 0.97959 0.55434 0.0
C1006 C 0.40832 0.99071 0.5808 0.0
C1007 C 0.43921 0.97969 0.59001 0.0
C1008 C 0.47097 0.972 0.58119 0.0
C1009 C 0.47128 0.97155 0.56355 0.0
C1010 C 0.43679 0.96783 0.6084 0.0
C1011 C 0.45154 0.91736 0.61461 0.0
C1012 C 0.41538 1.00074 0.61921 0.0
C1013 C 0.40224 0.05747 0.61443 0.0
C1014 C 0.42602 0.10021 0.60994 0.0
C1015 C 0.41372 0.15427 0.60597 0.0
C1016 C 0.37762 0.16589 0.60636 0.0
C1017 C 0.35376 0.12362 0.61084 0.0
C1018 C 0.36596 0.06968 0.61496 0.0
C1019 C 0.38845 0.91891 0.68537 0.0
C1020 C 0.35522 0.89339 0.68335 0.0
C1021 C 0.41126 0.92435 0.67164 0.0
C1022 C 0.4013 0.90371 0.65581 0.0
C1023 C 0.36946 0.87406 0.65416 0.0
C1024 C 0.34678 0.86828 0.66787 0.0
C1025 C 0.4179 0.92643 0.64045 0.0
C1026 C 0.40595 0.97925 0.63498 0.0
C1027 C 0.44246 0.89621 0.63058 0.0
C1028 C 0.45976 0.84376 0.63663 0.0
C1029 C 0.44005 0.79591 0.64117 0.0
C1030 C 0.45701 0.74742 0.64713 0.0
C1031 C 0.49373 0.74595 0.6484 0.0
C1032 C 0.51361 0.79268 0.64347 0.0
C1033 C 0.49677 0.84114 0.63745 0.0
H1034 H 0.50679 0.70842 0.65304 0.0
H1035 H 0.36816 0.20772 0.60326 0.0
H1036 H 0.58769 0.39253 0.92025 0.0
H1037 H 0.6313 0.39165 0.89779 0.0
H1038 H 0.70423 0.30275 0.93001 0.0
H1039 H 0.66039 0.30359 0.95272 0.0
H1040 H 0.69951 0.42297 0.89145 0.0
H1041 H 0.74343 0.20054 0.90347 0.0
H1042 H 0.72911 0.11708 0.92079 0.0
H1043 H 0.61924 0.16092 0.91921 0.0
H1044 H 0.63294 0.24404 0.90165 0.0
H1045 H 0.75376 0.34268 0.80878 0.0
H1046 H 0.76438 0.34112 0.83933 0.0
H1047 H 0.661 0.26979 0.84701 0.0
H1048 H 0.65045 0.27107 0.81674 0.0
H1049 H 0.71084 0.22745 0.86972 0.0
H1050 H 0.67235 0.41566 0.84559 0.0
H1051 H 0.68573 0.49749 0.82741 0.0
H1052 H 0.78457 0.5204 0.85294 0.0
H1053 H 0.77178 0.43836 0.87115 0.0
C1054 C 0.61337 0.37442 0.92279 0.0
C1055 C 0.62038 0.34728 0.93814 0.0
C1056 C 0.63837 0.37395 0.90992 0.0
C1057 C 0.67082 0.34634 0.91215 0.0
C1058 C 0.67918 0.32362 0.92797 0.0
C1059 C 0.65407 0.32391 0.94087 0.0
C1060 C 0.69271 0.33469 0.8971 0.0
C1061 C 0.70287 0.38016 0.88688 0.0
C1062 C 0.69807 0.27886 0.89123 0.0
C1063 C 0.68928 0.22877 0.90151 0.0
C1064 C 0.71624 0.1922 0.90681 0.0
C1065 C 0.70822 0.14498 0.91664 0.0
C1066 C 0.6733 0.13384 0.92116 0.0
C1067 C 0.64628 0.16969 0.91575 0.0
C1068 C 0.65415 0.21681 0.90585 0.0
C1069 C 0.73368 0.32563 0.81703 0.0
C1070 C 0.70093 0.3082 0.81052 0.0
C1071 C 0.73982 0.32464 0.83442 0.0
C1072 C 0.71337 0.30573 0.84542 0.0
C1073 C 0.68182 0.28439 0.83875 0.0
C1074 C 0.67559 0.28584 0.82149 0.0
C1075 C 0.71512 0.3158 0.86378 0.0
C1076 C 0.70943 0.27012 0.87464 0.0
C1077 C 0.71405 0.37129 0.87028 0.0
C1078 C 0.72123 0.42101 0.85961 0.0
C1079 C 0.6969 0.43825 0.84729 0.0
C1080 C 0.7044 0.48455 0.83698 0.0
C1081 C 0.736 0.51409 0.839 0.0
C1082 C 0.76013 0.49747 0.85137 0.0
C1083 C 0.75278 0.45112 0.86169 0.0
H1084 H 0.74178 0.54988 0.831 0.0
H1085 H 0.66715 0.09736 0.92882 0.0
H1086 H 0.45826 0.5456 0.9213 0.0
H1087 H 0.41654 0.55411 0.8981 0.0
H1088 H 0.36176 0.68642 0.92475 0.0
H1089 H 0.40059 0.67338 0.94876 0.0
H1090 H 0.31765 0.64436 0.90519 0.0
H1091 H 0.43653 0.71032 0.89715 0.0
H1092 H 0.50131 0.70199 0.89591 0.0
H1093 H 0.49235 0.57806 0.85669 0.0
H1094 H 0.42746 0.58519 0.85786 0.0
H1095 H 0.34114 0.79879 0.81819 0.0
H1096 H 0.35266 0.77828 0.84787 0.0
H1097 H 0.28247 0.63551 0.84521 0.0
H1098 H 0.27001 0.65739 0.81576 0.0
H1099 H 0.38537 0.67914 0.8528 0.0
H1100 H 0.25658 0.61113 0.87195 0.0
H1101 H 0.19442 0.63984 0.87558 0.0
H1102 H 0.22779 0.7989 0.89598 0.0
H1103 H 0.29008 0.77162 0.89194 0.0
C1104 C 0.43652 0.57486 0.92258 0.0
C1105 C 0.4338 0.61056 0.93667 0.0
C1106 C 0.41287 0.58027 0.90915 0.0
C1107 C 0.38709 0.62298 0.90927 0.0
C1108 C 0.38186 0.65399 0.9241 0.0
C1109 C 0.4046 0.64716 0.93776 0.0
C1110 C 0.36898 0.64072 0.89349 0.0
C1111 C 0.33249 0.65147 0.89371 0.0
C1112 C 0.38823 0.65188 0.87855 0.0
C1113 C 0.4272 0.6478 0.87773 0.0
C1114 C 0.4484 0.68111 0.88832 0.0
C1115 C 0.48512 0.6766 0.88763 0.0
C1116 C 0.50093 0.6394 0.87626 0.0
C1117 C 0.48006 0.60676 0.86552 0.0
C1118 C 0.44332 0.61101 0.86619 0.0
C1119 C 0.32647 0.76534 0.8243 0.0
C1120 C 0.30441 0.73003 0.81484 0.0
C1121 C 0.33327 0.75324 0.8412 0.0
C1122 C 0.31818 0.70561 0.84889 0.0
C1123 C 0.2935 0.67353 0.83985 0.0
C1124 C 0.28638 0.68605 0.82296 0.0
C1125 C 0.33422 0.68293 0.86453 0.0
C1126 C 0.37047 0.67122 0.86423 0.0
C1127 C 0.31504 0.67313 0.87949 0.0
C1128 C 0.27777 0.69001 0.88122 0.0
C1129 C 0.25057 0.6526 0.87691 0.0
C1130 C 0.21536 0.66856 0.87907 0.0
C1131 C 0.20715 0.72134 0.8859 0.0
C1132 C 0.23416 0.75815 0.89063 0.0
C1133 C 0.26938 0.74265 0.88827 0.0
H1134 H 0.1799 0.73362 0.88759 0.0
H1135 H 0.52936 0.63596 0.87574 0.0
H1136 H 0.62406 0.50884 0.0638 0.0
H1137 H 0.62464 0.51416 0.09446 0.0
H1138 H 0.51868 0.58031 0.09392 0.0
H1139 H 0.51826 0.57629 0.06316 0.0
H1140 H 0.56164 0.64865 0.11043 0.0
H1141 H 0.53671 0.44974 0.11459 0.0
H1142 H 0.54303 0.34735 0.10925 0.0
H1143 H 0.65158 0.35426 0.12411 0.0
H1144 H 0.64602 0.45605 0.12981 0.0
H1145 H 0.62615 0.57761 0.20308 0.0
H1146 H 0.58532 0.56623 0.17947 0.0
H1147 H 0.65366 0.66665 0.14813 0.0
H1148 H 0.69511 0.67667 0.17144 0.0
H1149 H 0.60865 0.51004 0.15149 0.0
H1150 H 0.60419 0.72828 0.11735 0.0
H1151 H 0.59787 0.82865 0.12493 0.0
H1152 H 0.54604 0.78234 0.17096 0.0
H1153 H 0.55153 0.68172 0.16355 0.0
C1154 C 0.60062 0.52348 0.07025 0.0
C1155 C 0.57133 0.54295 0.0611 0.0
C1156 C 0.60079 0.52585 0.0878 0.0
C1157 C 0.57158 0.54736 0.09655 0.0
C1158 C 0.54139 0.5633 0.08747 0.0
C1159 C 0.54116 0.56082 0.06988 0.0
C1160 C 0.57514 0.56135 0.11468 0.0
C1161 C 0.57147 0.61816 0.11948 0.0
C1162 C 0.58732 0.5215 0.1266 0.0
C1163 C 0.59094 0.46063 0.12257 0.0
C1164 C 0.56199 0.42952 0.11659 0.0
C1165 C 0.5654 0.37161 0.11354 0.0
C1166 C 0.59766 0.34459 0.11619 0.0
C1167 C 0.6266 0.37525 0.12202 0.0
C1168 C 0.6233 0.43295 0.12526 0.0
C1169 C 0.63216 0.59813 0.19124 0.0
C1170 C 0.66425 0.62702 0.18902 0.0
C1171 C 0.60869 0.59188 0.17782 0.0
C1172 C 0.61654 0.61539 0.16206 0.0
C1173 C 0.64692 0.64865 0.16025 0.0
C1174 C 0.67062 0.65442 0.17362 0.0
C1175 C 0.59681 0.59752 0.14689 0.0
C1176 C 0.59777 0.54016 0.1426 0.0
C1177 C 0.58217 0.63679 0.13548 0.0
C1178 C 0.57848 0.69735 0.13992 0.0
C1179 C 0.59125 0.73947 0.12904 0.0
C1180 C 0.58786 0.79644 0.13333 0.0
C1181 C 0.57164 0.81186 0.14844 0.0
C1182 C 0.55871 0.77034 0.15929 0.0
C1183 C 0.56201 0.71332 0.15506 0.0
H1184 H 0.56905 0.85598 0.15173 0.0
H1185 H 0.60018 0.29981 0.1138 0.0
H1186 H 0.29652 0.31963 0.16383 0.0
H1187 H 0.33982 0.32207 0.14124 0.0
H1188 H 0.41608 0.39584 0.17511 0.0
H1189 H 0.37201 0.39499 0.19772 0.0
H1190 H 0.41513 0.45444 0.14843 0.0
H1191 H 0.42841 0.26102 0.15746 0.0
H1192 H 0.41183 0.16235 0.16316 0.0
H1193 H 0.35776 0.15388 0.11571 0.0
H1194 H 0.37343 0.25283 0.10982 0.0
H1195 H 0.50368 0.38018 0.06274 0.0
H1196 H 0.49694 0.3812 0.0934 0.0
H1197 H 0.38924 0.43534 0.08799 0.0
H1198 H 0.39588 0.43689 0.05744 0.0
H1199 H 0.42868 0.30736 0.10452 0.0
H1200 H 0.40832 0.52046 0.10307 0.0
H1201 H 0.43016 0.61811 0.10112 0.0
H1202 H 0.50909 0.58197 0.13839 0.0
H1203 H 0.48878 0.4834 0.13994 0.0
C1204 C 0.32281 0.33492 0.16657 0.0
C1205 C 0.33097 0.35726 0.18245 0.0
C1206 C 0.34768 0.33613 0.15367 0.0
C1207 C 0.38147 0.35858 0.15648 0.0
C1208 C 0.39022 0.37834 0.17263 0.0
C1209 C 0.36512 0.37781 0.18551 0.0
C1210 C 0.40563 0.36723 0.14201 0.0
C1211 C 0.41871 0.42177 0.13902 0.0
C1212 C 0.41142 0.32448 0.12988 0.0
C1213 C 0.40209 0.26457 0.13321 0.0
C1214 C 0.41282 0.23827 0.14827 0.0
C1215 C 0.40358 0.18224 0.15153 0.0
C1216 C 0.38375 0.15187 0.1398 0.0
C1217 C 0.37316 0.17745 0.12477 0.0
C1218 C 0.38228 0.23351 0.12145 0.0
C1219 C 0.479 0.39454 0.06808 0.0
C1220 C 0.4501 0.40764 0.05765 0.0
C1221 C 0.47529 0.3951 0.08561 0.0
C1222 C 0.44288 0.40921 0.09292 0.0
C1223 C 0.41475 0.42564 0.08258 0.0
C1224 C 0.41843 0.42558 0.06512 0.0
C1225 C 0.43548 0.39511 0.11065 0.0
C1226 C 0.42586 0.33925 0.11423 0.0
C1227 C 0.43379 0.43618 0.12348 0.0
C1228 C 0.44759 0.49411 0.12128 0.0
C1229 C 0.43103 0.53275 0.11043 0.0
C1230 C 0.44302 0.58847 0.10948 0.0
C1231 C 0.47114 0.60622 0.11955 0.0
C1232 C 0.48755 0.56815 0.13047 0.0
C1233 C 0.47594 0.5123 0.13131 0.0
H1234 H 0.48023 0.64945 0.11889 0.0
H1235 H 0.37661 0.1085 0.14236 0.0
H1236 H 0.57341 0.96319 0.4164 0.0
H1237 H 0.61909 0.95578 0.39496 0.0
H1238 H 0.68901 0.878 0.43105 0.0
H1239 H 0.64286 0.88458 0.45258 0.0
H1240 H 0.68742 0.97963 0.38769 0.0
H1241 H 0.72368 0.75969 0.41032 0.0
H1242 H 0.70383 0.69029 0.4315 0.0
H1243 H 0.59705 0.74732 0.42559 0.0
H1244 H 0.61605 0.81513 0.40388 0.0
H1245 H 0.76031 0.86911 0.31366 0.0
H1246 H 0.76152 0.87905 0.3443 0.0
H1247 H 0.66037 0.79684 0.3476 0.0
H1248 H 0.65936 0.78572 0.31706 0.0
H1249 H 0.69916 0.77504 0.3754 0.0
H1250 H 0.66613 0.94229 0.34118 0.0
H1251 H 0.68042 0.01356 0.31955 0.0
H1252 H 0.77231 0.06263 0.34757 0.0
H1253 H 0.75862 0.99124 0.36929 0.0
C1254 C 0.59895 0.94647 0.41995 0.0
C1255 C 0.60443 0.92334 0.436 0.0
C1256 C 0.62513 0.94236 0.40769 0.0
C1257 C 0.65717 0.91521 0.41132 0.0
C1258 C 0.66427 0.89833 0.42793 0.0
C1259 C 0.63789 0.90189 0.44018 0.0
C1260 C 0.67924 0.89542 0.3971 0.0
C1261 C 0.69089 0.93495 0.3852 0.0
C1262 C 0.68364 0.83702 0.39379 0.0
C1263 C 0.67141 0.79309 0.40572 0.0
C1264 C 0.69592 0.75687 0.41341 0.0
C1265 C 0.6848 0.71773 0.42548 0.0
C1266 C 0.64922 0.71455 0.42994 0.0
C1267 C 0.62459 0.74972 0.42211 0.0
C1268 C 0.63548 0.78825 0.40985 0.0
C1269 C 0.73895 0.85134 0.32098 0.0
C1270 C 0.70932 0.82775 0.313 0.0
C1271 C 0.73971 0.85705 0.3385 0.0
C1272 C 0.71082 0.83953 0.34821 0.0
C1273 C 0.68294 0.81085 0.34036 0.0
C1274 C 0.68217 0.80507 0.3229 0.0
C1275 C 0.70605 0.85928 0.36577 0.0
C1276 C 0.6975 0.81974 0.37826 0.0
C1277 C 0.70384 0.91761 0.36952 0.0
C1278 C 0.7115 0.96142 0.35675 0.0
C1279 C 0.68936 0.96836 0.3427 0.0
C1280 C 0.69737 1.00867 0.33043 0.0
C1281 C 0.72729 0.04256 0.33217 0.0
C1282 C 0.74917 0.03634 0.34623 0.0
C1283 C 0.74129 0.99601 0.35853 0.0
H1284 H 0.7335 0.07368 0.32265 0.0
H1285 H 0.64074 0.68481 0.43946 0.0
H1286 H 0.37049 0.24076 0.44472 0.0
H1287 H 0.32723 0.24026 0.42179 0.0
H1288 H 0.39115 0.12082 0.39453 0.0
H1289 H 0.4352 0.1232 0.41669 0.0
H1290 H 0.34682 0.27396 0.38876 0.0
H1291 H 0.33638 0.03317 0.37354 0.0
H1292 H 0.33068 0.94405 0.3893 0.0
H1293 H 0.28512 0.03313 0.43104 0.0
H1294 H 0.28994 0.12271 0.41544 0.0
H1295 H 0.36052 0.19916 0.30446 0.0
H1296 H 0.36247 0.2143 0.33482 0.0
H1297 H 0.25468 0.15811 0.33909 0.0
H1298 H 0.25292 0.14103 0.30869 0.0
H1299 H 0.29547 0.10538 0.36108 0.0
H1300 H 0.2771 0.29522 0.34554 0.0
H1301 H 0.28577 0.38412 0.32989 0.0
H1302 H 0.39046 0.39825 0.34987 0.0
H1303 H 0.38284 0.3089 0.36525 0.0
C1304 C 0.37529 0.21421 0.43386 0.0
C1305 C 0.40666 0.1826 0.43249 0.0
C1306 C 0.35037 0.21363 0.42089 0.0
C1307 C 0.356 0.18032 0.40658 0.0
C1308 C 0.3861 0.14613 0.40563 0.0
C1309 C 0.41127 0.14743 0.4184 0.0
C1310 C 0.33356 0.18627 0.39149 0.0
C1311 C 0.335 0.23753 0.38273 0.0
C1312 C 0.31734 0.13893 0.384 0.0
C1313 C 0.31359 0.08481 0.39329 0.0
C1314 C 0.32483 0.03376 0.38601 0.0
C1315 C 0.32183 0.98313 0.39494 0.0
C1316 C 0.30758 0.98293 0.41117 0.0
C1317 C 0.29621 0.03335 0.41848 0.0
C1318 C 0.29911 0.08408 0.40961 0.0
C1319 C 0.3372 0.19016 0.31185 0.0
C1320 C 0.3067 0.16845 0.30421 0.0
C1321 C 0.33815 0.1996 0.32917 0.0
C1322 C 0.30853 0.18807 0.33919 0.0
C1323 C 0.27771 0.16772 0.33156 0.0
C1324 C 0.27673 0.1582 0.31419 0.0
C1325 C 0.31141 0.19197 0.35776 0.0
C1326 C 0.30618 0.14253 0.36719 0.0
C1327 C 0.32448 0.24101 0.36581 0.0
C1328 C 0.32921 0.29522 0.35663 0.0
C1329 C 0.30196 0.31719 0.34656 0.0
C1330 C 0.30671 0.36765 0.33772 0.0
C1331 C 0.33854 0.39689 0.33895 0.0
C1332 C 0.36574 0.37566 0.34897 0.0
C1333 C 0.3612 0.32508 0.35777 0.0
H1334 H 0.34214 0.43596 0.3321 0.0
H1335 H 0.30534 0.9437 0.41807 0.0
H1336 H 0.94816 0.79879 0.97176 0.0
H1337 H 0.93765 0.69804 0.97662 0.0
H1338 H 0.04922 0.67174 0.98362 0.0
H1339 H 0.0598 0.77215 0.97878 0.0
H1340 H 0.02301 0.60166 0.96022 0.0
H1341 H 0.99008 0.65819 0.01639 0.0
H1342 H 0.95663 0.71474 0.03699 0.0
H1343 H 0.85947 0.64829 0.0177 0.0
H1344 H 0.89226 0.59188 -0.00322 0.0
H1345 H 0.01572 0.31034 0.97338 0.0
H1346 H 0.02597 0.40999 0.97927 0.0
H1347 H 0.91385 0.44037 0.97904 0.0
H1348 H 0.9033 0.34015 0.97462 0.0
H1349 H 0.9408 0.50912 0.00013 0.0
H1350 H 0.96906 0.46122 0.94309 0.0
H1351 H 0.99863 0.40876 0.92029 0.0
H1352 H 0.09953 0.4634 0.93858 0.0
H1353 H 0.07056 0.51563 0.96163 0.0
C1354 C 0.97031 0.77183 0.97483 0.0
C1355 C 0.00486 0.79343 0.97474 0.0
C1356 C 0.9643 0.71411 0.97756 0.0
C1357 C 0.99268 0.67703 0.98041 0.0
C1358 C 0.02692 0.69927 0.98132 0.0
C1359 C 0.03293 0.75674 0.97857 0.0
C1360 C 0.98731 0.61466 0.98093 0.0
C1361 C 0.00553 0.58136 0.96918 0.0
C1362 C 0.96344 0.58823 0.99214 0.0
C1363 C 0.94366 0.62106 0.00495 0.0
C1364 C 0.96157 0.65582 0.01648 0.0
C1365 C 0.94272 0.68783 0.02821 0.0
C1366 C 0.90595 0.68511 0.02863 0.0
C1367 C 0.88795 0.65029 0.01734 0.0
C1368 C 0.90665 0.61822 0.00556 0.0
C1369 C 0.99314 0.3377 0.97506 0.0
C1370 C 0.95863 0.31686 0.9731 0.0
C1371 C 0.99907 0.39515 0.97819 0.0
C1372 C 0.97075 0.4335 0.97902 0.0
C1373 C 0.93628 0.41217 0.97823 0.0
C1374 C 0.9303 0.35464 0.97546 0.0
C1375 C 0.97692 0.4959 0.97953 0.0
C1376 C 0.95863 0.52929 0.99132 0.0
C1377 C 0.00018 0.52285 0.96809 0.0
C1378 C 0.01767 0.49182 0.95418 0.0
C1379 C 0.99757 0.46176 0.94231 0.0
C1380 C 0.01421 0.4321 0.92934 0.0
C1381 C 0.05094 0.43262 0.92801 0.0
C1382 C 0.07109 0.46296 0.93964 0.0
C1383 C 0.05458 0.49262 0.95265 0.0
H1384 H 0.06378 0.40962 0.91796 0.0
H1385 H 0.8914 0.70992 0.03772 0.0
H1386 H 0.3146 0.50492 0.22566 0.0
H1387 H 0.30456 0.6051 0.23126 0.0
H1388 H 0.19512 0.58569 0.21764 0.0
H1389 H 0.20497 0.48515 0.21232 0.0
H1390 H 0.28718 0.68275 0.20953 0.0
H1391 H 0.14521 0.69014 0.23556 0.0
H1392 H 0.10491 0.62965 0.25183 0.0
H1393 H 0.19312 0.5506 0.27621 0.0
H1394 H 0.23401 0.61165 0.26037 0.0
H1395 H 0.19819 0.93502 0.19328 0.0
H1396 H 0.20971 0.83519 0.19804 0.0
H1397 H 0.23762 0.87019 0.24963 0.0
H1398 H 0.22566 0.97157 0.24493 0.0
H1399 H 0.19107 0.76819 0.24339 0.0
H1400 H 0.29863 0.85535 0.22493 0.0
H1401 H 0.33049 0.91827 0.20559 0.0
H1402 H 0.30984 0.80525 0.16451 0.0
H1403 H 0.27552 0.74361 0.18337 0.0
C1404 C 0.28827 0.52185 0.2241 0.0
C1405 C 0.26063 0.48706 0.21847 0.0
C1406 C 0.28256 0.57921 0.22728 0.0
C1407 C 0.24907 0.60334 0.22493 0.0
C1408 C 0.2211 0.56821 0.21986 0.0
C1409 C 0.22674 0.5106 0.21681 0.0
C1410 C 0.24422 0.66576 0.22655 0.0
C1411 C 0.2664 0.70126 0.21712 0.0
C1412 C 0.21703 0.69034 0.23639 0.0
C1413 C 0.19271 0.65529 0.24666 0.0
C1414 C 0.15603 0.66028 0.24452 0.0
C1415 C 0.13307 0.62578 0.25364 0.0
C1416 C 0.14643 0.58611 0.265 0.0
C1417 C 0.18281 0.58125 0.26737 0.0
C1418 C 0.2059 0.61586 0.25834 0.0
C1419 C 0.20654 0.92163 0.20571 0.0
C1420 C 0.21086 0.96122 0.21877 0.0
C1421 C 0.21305 0.86444 0.2084 0.0
C1422 C 0.22432 0.84508 0.2242 0.0
C1423 C 0.22863 0.88423 0.23738 0.0
C1424 C 0.22224 0.94207 0.23464 0.0
C1425 C 0.23374 0.78441 0.22623 0.0
C1426 C 0.21232 0.74942 0.23617 0.0
C1427 C 0.26141 0.76002 0.21672 0.0
C1428 C 0.28416 0.79498 0.20559 0.0
C1429 C 0.30052 0.8441 0.21175 0.0
C1430 C 0.31886 0.87977 0.20083 0.0
C1431 C 0.32236 0.86566 0.18384 0.0
C1432 C 0.30718 0.81609 0.17769 0.0
C1433 C 0.28801 0.78097 0.18847 0.0
H1434 H 0.33685 0.89313 0.17544 0.0
H1435 H 0.1286 0.55918 0.27197 0.0
H1436 H 0.83077 0.04887 0.23229 0.0
H1437 H 0.81848 0.14844 0.23701 0.0
H1438 H 0.7078 0.11861 0.22822 0.0
H1439 H 0.7203 0.0189 0.22264 0.0
H1440 H 0.72715 0.20457 0.21056 0.0
H1441 H 0.74162 0.15654 0.26802 0.0
H1442 H 0.76935 0.11418 0.29311 0.0
H1443 H 0.86041 0.21922 0.28631 0.0
H1444 H 0.83342 0.26175 0.26103 0.0
H1445 H 0.67928 0.4836 0.23162 0.0
H1446 H 0.68803 0.38284 0.23649 0.0
H1447 H 0.79974 0.40276 0.22875 0.0
H1448 H 0.79109 0.50381 0.22322 0.0
H1449 H 0.7764 0.32255 0.25653 0.0
H1450 H 0.75954 0.36449 0.19709 0.0
H1451 H 0.72757 0.40773 0.1733 0.0
H1452 H 0.63506 0.31235 0.18587 0.0
H1453 H 0.66633 0.2693 0.20994 0.0
C1454 C 0.80372 0.06329 0.2315 0.0
C1455 C 0.7766 0.02582 0.22687 0.0
C1456 C 0.79664 0.12037 0.23439 0.0
C1457 C 0.76214 0.14148 0.23305 0.0
C1458 C 0.73468 0.10358 0.2293 0.0
C1459 C 0.7418 0.04635 0.22628 0.0
C1460 C 0.75545 0.20357 0.23413 0.0
C1461 C 0.7374 0.22997 0.22081 0.0
C1462 C 0.76919 0.23743 0.24733 0.0
C1463 C 0.7856 0.21202 0.26253 0.0
C1464 C 0.76768 0.17032 0.27179 0.0
C1465 C 0.78324 0.14633 0.28607 0.0
C1466 C 0.81665 0.16391 0.29128 0.0
C1467 C 0.83453 0.20562 0.28225 0.0
C1468 C 0.81909 0.22975 0.26796 0.0
C1469 C 0.70582 0.46681 0.23109 0.0
C1470 C 0.7344 0.50174 0.22666 0.0
C1471 C 0.71076 0.40919 0.23398 0.0
C1472 C 0.74444 0.38518 0.23277 0.0
C1473 C 0.77349 0.4205 0.22973 0.0
C1474 C 0.76852 0.47832 0.22663 0.0
C1475 C 0.74854 0.32276 0.23294 0.0
C1476 C 0.76605 0.29663 0.24641 0.0
C1477 C 0.7338 0.28891 0.22005 0.0
C1478 C 0.71516 0.31416 0.20543 0.0
C1479 C 0.73228 0.35312 0.19487 0.0
C1480 C 0.7143 0.37754 0.18132 0.0
C1481 C 0.67927 0.36292 0.1781 0.0
C1482 C 0.66218 0.32371 0.1884 0.0
C1483 C 0.68002 0.29928 0.20199 0.0
H1484 H 0.66539 0.38186 0.1676 0.0
H1485 H 0.82866 0.14528 0.30234 0.0
H1486 H 0.02032 0.76545 0.49391 0.0
H1487 H 0.03444 0.86483 0.49981 0.0
H1488 H 0.01409 0.90658 0.44779 0.0
H1489 H 0.00139 0.8081 0.44178 0.0
H1490 H 0.06771 0.96501 0.45828 0.0
H1491 H 0.95076 0.92209 0.47968 0.0
H1492 H 0.90837 0.87119 0.49767 0.0
H1493 H 0.96328 0.92748 0.54189 0.0
H1494 H 0.00627 0.97817 0.52412 0.0
H1495 H 0.00285 0.2353 0.45036 0.0
H1496 H 0.99964 0.13339 0.45517 0.0
H1497 H 0.05327 0.15366 0.50269 0.0
H1498 H 0.05677 0.25632 0.49776 0.0
H1499 H 0.99238 0.06462 0.49986 0.0
H1500 H 0.10402 0.12213 0.4763 0.0
H1501 H 0.13999 0.17805 0.45655 0.0
H1502 H 0.09048 0.09533 0.41466 0.0
H1503 H 0.05359 0.03989 0.43416 0.0
C1504 C 0.01949 0.79582 0.48372 0.0
C1505 C 0.00901 0.7792 0.46746 0.0
C1506 C 0.02728 0.85262 0.48712 0.0
C1507 C 0.02465 0.89352 0.47431 0.0
C1508 C 0.01613 0.87611 0.45792 0.0
C1509 C 0.00851 0.81976 0.45453 0.0
C1510 C 0.02868 0.95495 0.47778 0.0
C1511 C 0.05143 0.98653 0.46749 0.0
C1512 C 0.00782 0.98344 0.48993 0.0
C1513 C 0.98195 0.95327 0.50059 0.0
C1514 C 0.95392 0.92326 0.49324 0.0
C1515 C 0.92978 0.89451 0.50339 0.0
C1516 C 0.9332 0.89594 0.52091 0.0
C1517 C 0.96072 0.92629 0.52832 0.0
C1518 C 0.98497 0.95504 0.51822 0.0
C1519 C 0.01281 0.21814 0.46209 0.0
C1520 C 0.02974 0.25321 0.47378 0.0
C1521 C 0.01111 0.16006 0.4648 0.0
C1522 C 0.02642 0.1361 0.47923 0.0
C1523 C 0.04116 0.17151 0.49154 0.0
C1524 C 0.04307 0.22991 0.48875 0.0
C1525 C 0.03069 0.074 0.4801 0.0
C1526 C 0.00949 0.04262 0.4911 0.0
C1527 C 0.05265 0.04558 0.46847 0.0
C1528 C 0.07587 0.07711 0.45671 0.0
C1529 C 0.10066 0.11609 0.46288 0.0
C1530 C 0.1212 0.14772 0.45173 0.0
C1531 C 0.11749 0.14031 0.43436 0.0
C1532 C 0.09332 0.10105 0.42811 0.0
C1533 C 0.0726 0.06948 0.43922 0.0
H1534 H 0.13336 0.16494 0.42574 0.0
H1535 H 0.91448 0.87366 0.52875 0.0
H1536 H 0.28032 0.02325 0.74185 0.0
H1537 H 0.2759 0.12549 0.7472 0.0
H1538 H 0.28014 0.15691 0.69368 0.0
H1539 H 0.28503 0.05589 0.68842 0.0
H1540 H 0.32768 0.21832 0.70971 0.0
H1541 H 0.20463 0.17397 0.71653 0.0
H1542 H 0.15433 0.12371 0.72922 0.0
H1543 H 0.18035 0.1925 0.77768 0.0
H1544 H 0.23122 0.24244 0.76532 0.0
H1545 H 0.27152 0.49183 0.6932 0.0
H1546 H 0.28283 0.39186 0.69683 0.0
H1547 H 0.27103 0.40966 0.75064 0.0
H1548 H 0.25812 0.51097 0.74684 0.0
H1549 H 0.2338 0.32278 0.73999 0.0
H1550 H 0.35957 0.36233 0.73226 0.0
H1551 H 0.41043 0.40944 0.71872 0.0
H1552 H 0.37757 0.34576 0.6706 0.0
H1553 H 0.32659 0.29887 0.68394 0.0
C1554 C 0.27968 0.05221 0.7313 0.0
C1555 C 0.28343 0.03202 0.71475 0.0
C1556 C 0.27719 0.11045 0.73433 0.0
C1557 C 0.278 0.14894 0.72083 0.0
C1558 C 0.27991 0.12819 0.70431 0.0
C1559 C 0.28263 0.07049 0.7013 0.0
C1560 C 0.27915 0.21096 0.72359 0.0
C1561 C 0.30705 0.24109 0.71631 0.0
C1562 C 0.25289 0.24066 0.73263 0.0
C1563 C 0.22201 0.21137 0.74004 0.0
C1564 C 0.19981 0.17801 0.72992 0.0
C1565 C 0.17117 0.14963 0.73705 0.0
C1566 C 0.16422 0.15474 0.75426 0.0
C1567 C 0.18582 0.18846 0.76436 0.0
C1568 C 0.21456 0.21683 0.7573 0.0
C1569 C 0.27206 0.47475 0.70586 0.0
C1570 C 0.26387 0.5091 0.71973 0.0
C1571 C 0.27893 0.41746 0.70796 0.0
C1572 C 0.27858 0.39288 0.72405 0.0
C1573 C 0.27175 0.42759 0.73809 0.0
C1574 C 0.26465 0.48546 0.73596 0.0
C1575 C 0.2819 0.33032 0.72566 0.0
C1576 C 0.25486 0.29994 0.73375 0.0
C1577 C 0.30875 0.3 0.71718 0.0
C1578 C 0.33903 0.32846 0.70906 0.0
C1579 C 0.36299 0.35954 0.71878 0.0
C1580 C 0.39187 0.3858 0.71117 0.0
C1581 C 0.39702 0.38107 0.6938 0.0
C1582 C 0.37346 0.34964 0.68404 0.0
C1583 C 0.34466 0.32309 0.69164 0.0
H1584 H 0.41937 0.40143 0.68792 0.0
H1585 H 0.14205 0.13269 0.75975 0.0
H1586 H 0.78787 0.51717 0.71985 0.0
H1587 H 0.77427 0.61619 0.72492 0.0
H1588 H 0.66321 0.57719 0.72538 0.0
H1589 H 0.67671 0.47803 0.71966 0.0
H1590 H 0.67431 0.66236 0.70559 0.0
H1591 H 0.71147 0.61885 0.76126 0.0
H1592 H 0.74981 0.58268 0.78381 0.0
H1593 H 0.83067 0.70005 0.76964 0.0
H1594 H 0.79295 0.73668 0.74683 0.0
H1595 H 0.63156 0.94856 0.72329 0.0
H1596 H 0.63887 0.847 0.72716 0.0
H1597 H 0.75103 0.86418 0.72033 0.0
H1598 H 0.7439 0.96577 0.71586 0.0
H1599 H 0.7342 0.78935 0.74614 0.0
H1600 H 0.70195 0.82072 0.68836 0.0
H1601 H 0.66652 0.85213 0.66406 0.0
H1602 H 0.5787 0.75436 0.68162 0.0
H1603 H 0.61346 0.72289 0.70616 0.0
C1604 C 0.76052 0.52948 0.72122 0.0
C1605 C 0.73339 0.48955 0.71918 0.0
C1606 C 0.75276 0.58624 0.72432 0.0
C1607 C 0.71766 0.60461 0.72572 0.0
C1608 C 0.69052 0.56434 0.72446 0.0
C1609 C 0.69829 0.50741 0.72131 0.0
C1610 C 0.70947 0.66625 0.72686 0.0
C1611 C 0.68678 0.68981 0.71476 0.0
C1612 C 0.72645 0.70267 0.7385 0.0
C1613 C 0.74927 0.68056 0.75225 0.0
C1614 C 0.73743 0.63695 0.76287 0.0
C1615 C 0.75909 0.6163 0.77572 0.0
C1616 C 0.79266 0.63903 0.77816 0.0
C1617 C 0.80463 0.68251 0.76775 0.0
C1618 C 0.78308 0.70331 0.75487 0.0
C1619 C 0.65786 0.93094 0.72257 0.0
C1620 C 0.68707 0.96573 0.719 0.0
C1621 C 0.66197 0.8727 0.72486 0.0
C1622 C 0.69543 0.84764 0.72381 0.0
C1623 C 0.72491 0.88246 0.72117 0.0
C1624 C 0.72079 0.94077 0.71872 0.0
C1625 C 0.69949 0.78502 0.72475 0.0
C1626 C 0.72134 0.76149 0.73721 0.0
C1627 C 0.68185 0.74846 0.71342 0.0
C1628 C 0.6602 0.76999 0.69923 0.0
C1629 C 0.67491 0.8066 0.68719 0.0
C1630 C 0.65501 0.82417 0.67332 0.0
C1631 C 0.62043 0.80508 0.67128 0.0
C1632 C 0.60552 0.76898 0.68321 0.0
C1633 C 0.62531 0.7513 0.69711 0.0
H1634 H 0.60522 0.8181 0.66041 0.0
H1635 H 0.8094 0.62298 0.78811 0.0
H1636 H 0.58443 0.76385 0.47214 0.0
H1637 H 0.57348 0.66303 0.47517 0.0
H1638 H 0.46218 0.69103 0.46834 0.0
H1639 H 0.47291 0.79194 0.46423 0.0
H1640 H 0.48238 0.61099 0.49544 0.0
H1641 H 0.50003 0.64811 0.43668 0.0
H1642 H 0.52965 0.68209 0.41099 0.0
H1643 H 0.61946 0.57816 0.42205 0.0
H1644 H 0.59067 0.54439 0.44803 0.0
H1645 H 0.42575 0.33502 0.47244 0.0
H1646 H 0.43806 0.4349 0.47665 0.0
H1647 H 0.54916 0.40315 0.46993 0.0
H1648 H 0.53679 0.30337 0.4648 0.0
H1649 H 0.53026 0.48618 0.45082 0.0
H1650 H 0.51078 0.44379 0.50893 0.0
H1651 H 0.47929 0.40638 0.53368 0.0
H1652 H 0.39243 0.51794 0.52381 0.0
H1653 H 0.42315 0.55529 0.49881 0.0
C1654 C 0.55755 0.7489 0.47116 0.0
C1655 C 0.52967 0.78648 0.46756 0.0
C1656 C 0.55137 0.6911 0.47304 0.0
C1657 C 0.5171 0.66946 0.47178 0.0
C1658 C 0.48887 0.70692 0.46932 0.0
C1659 C 0.49509 0.76479 0.46709 0.0
C1660 C 0.5112 0.60747 0.47216 0.0
C1661 C 0.49252 0.58358 0.48564 0.0
C1662 C 0.5252 0.57172 0.45955 0.0
C1663 C 0.54335 0.59426 0.44443 0.0
C1664 C 0.52633 0.63319 0.4338 0.0
C1665 C 0.54288 0.65215 0.41912 0.0
C1666 C 0.57634 0.63208 0.41486 0.0
C1667 C 0.59347 0.59346 0.42534 0.0
C1668 C 0.57709 0.57452 0.44006 0.0
C1669 C 0.45288 0.34913 0.47196 0.0
C1670 C 0.48021 0.31106 0.46802 0.0
C1671 C 0.45994 0.40636 0.4746 0.0
C1672 C 0.4946 0.42694 0.4737 0.0
C1673 C 0.52217 0.38849 0.47068 0.0
C1674 C 0.51509 0.33121 0.4679 0.0
C1675 C 0.50162 0.48893 0.47423 0.0
C1676 C 0.52043 0.51312 0.46082 0.0
C1677 C 0.48776 0.52476 0.48693 0.0
C1678 C 0.46916 0.50205 0.50191 0.0
C1679 C 0.48483 0.46 0.51194 0.0
C1680 C 0.46714 0.43883 0.52603 0.0
C1681 C 0.43385 0.45966 0.5303 0.0
C1682 C 0.4182 0.50177 0.52049 0.0
C1683 C 0.43575 0.52298 0.50637 0.0
H1684 H 0.42022 0.44326 0.54122 0.0
H1685 H 0.58906 0.64668 0.40346 0.0
H1686 H 0.56563 0.72772 0.96783 0.0
H1687 H 0.57759 0.8283 0.97265 0.0
H1688 H 0.46721 0.85679 0.98248 0.0
H1689 H 0.45523 0.7568 0.97791 0.0
H1690 H 0.4938 0.92601 0.95758 0.0
H1691 H 0.52786 0.8633 0.01344 0.0
H1692 H 0.56303 0.80501 0.03294 0.0
H1693 H 0.65818 0.88021 0.01429 0.0
H1694 H 0.62372 0.93796 -0.00566 0.0
H1695 H 0.49515 0.21471 0.97278 0.0
H1696 H 0.48684 0.11418 0.97786 0.0
H1697 H 0.59955 0.0905 0.97958 0.0
H1698 H 0.60803 0.19158 0.97622 0.0
H1699 H 0.57368 0.01722 -0.00115 0.0
H1700 H 0.54768 0.07004 0.94234 0.0
H1701 H 0.51919 0.12347 0.9194 0.0
H1702 H 0.41778 0.06294 0.93519 0.0
H1703 H 0.44566 1.00971 0.95838 0.0
C1704 C 0.5441 0.7552 0.97145 0.0
C1705 C 0.50939 0.73443 0.97226 0.0
C1706 C 0.55094 0.81272 0.97414 0.0
C1707 C 0.52322 0.85022 0.97779 0.0
C1708 C 0.48896 0.82882 0.97953 0.0
C1709 C 0.48215 0.77163 0.97689 0.0
C1710 C 0.52897 0.91232 0.97846 0.0
C1711 C 0.51082 0.94605 0.96679 0.0
C1712 C 0.55249 0.9382 0.98994 0.0
C1713 C 0.57317 0.90458 0.00226 0.0
C1714 C 0.55631 0.8671 0.01339 0.0
C1715 C 0.57614 0.8341 0.02451 0.0
C1716 C 0.61285 0.83866 0.02477 0.0
C1717 C 0.62979 0.87649 0.01399 0.0
C1718 C 0.61011 0.90939 0.00277 0.0
C1719 C 0.51823 0.18864 0.97476 0.0
C1720 C 0.55235 0.21161 0.97359 0.0
C1721 C 0.51343 0.13068 0.9774 0.0
C1722 C 0.54258 0.09397 0.97842 0.0
C1723 C 0.57654 0.11738 0.97855 0.0
C1724 C 0.58134 0.17544 0.97636 0.0
C1725 C 0.53782 0.0313 0.97815 0.0
C1726 C 0.55637 0.99737 0.98974 0.0
C1727 C 0.51559 1.00471 0.96618 0.0
C1728 C 0.49872 0.03638 0.9522 0.0
C1729 C 0.51928 0.06841 0.94098 0.0
C1730 C 0.50325 0.09863 0.92793 0.0
C1731 C 0.46669 0.09672 0.92587 0.0
C1732 C 0.4461 0.06445 0.93683 0.0
C1733 C 0.46199 0.03422 0.94992 0.0
H1734 H 0.45432 0.12015 0.91576 0.0
H1735 H 0.62818 0.81303 0.03337 0.0
H1736 H 0.37771 0.39815 0.99102 0.0
H1737 H 0.31951 0.3588 0.98436 0.0
H1738 H 0.34328 0.21237 0.01461 0.0
H1739 H 0.40143 0.2516 0.02112 0.0
H1740 H 0.30093 0.18563 0.98691 0.0
H1741 H 0.30547 0.32156 0.03247 0.0
H1742 H 0.31974 0.41449 0.04464 0.0
H1743 H 0.25077 0.49491 0.00904 0.0
H1744 H 0.23662 0.4024 -0.00355 0.0
H1745 H 0.14358 0.09868 0.02655 0.0
H1746 H 0.20218 0.13231 0.01868 0.0
H1747 H 0.15528 0.26949 0.99082 0.0
H1748 H 0.09636 0.23623 -0.00114 0.0
H1749 H 0.20742 0.30557 0.01204 0.0
H1750 H 0.19449 0.16477 0.97002 0.0
H1751 H 0.18003 0.0705 0.95892 0.0
H1752 H 0.26376 0.99779 0.98818 0.0
H1753 H 0.27834 0.09151 -0.00027 0.0
C1754 C 0.371 0.35658 -0.00438 0.0
C1755 C 0.39397 0.32767 0.00646 0.0
C1756 C 0.33768 0.33428 0.99194 0.0
C1757 C 0.32688 0.2829 -0.00085 0.0
C1758 C 0.35103 0.25193 0.00887 0.0
C1759 C 0.3842 0.27434 0.01259 0.0
C1760 C 0.28928 0.26522 -0.00128 0.0
C1761 C 0.28043 0.21177 0.99237 0.0
C1762 C 0.26242 0.29974 0.00562 0.0
C1763 C 0.27031 0.3552 0.0134 0.0
C1764 C 0.29353 0.35911 0.02717 0.0
C1765 C 0.30159 0.41168 0.03415 0.0
C1766 C 0.28623 0.4606 0.02759 0.0
C1767 C 0.2627 0.45699 0.01408 0.0
C1768 C 0.25466 0.40451 0.00701 0.0
C1769 C 0.14575 0.13585 0.01867 0.0
C1770 C 0.1154 0.16503 0.01341 0.0
C1771 C 0.17924 0.15478 0.01406 0.0
C1772 C 0.18316 0.20327 0.00407 0.0
C1773 C 0.15288 0.23191 -0.0015 0.0
C1774 C 0.11926 0.21269 0.00302 0.0
C1775 C 0.21899 0.22559 0.0004 0.0
C1776 C 0.2276 0.27984 0.00614 0.0
C1777 C 0.24555 0.19165 0.993 0.0
C1778 C 0.23739 0.13524 0.98583 0.0
C1779 C 0.20971 0.12866 0.97418 0.0
C1780 C 0.20149 0.0753 0.9678 0.0
C1781 C 0.22093 0.02818 0.97286 0.0
C1782 C 0.24872 0.03435 0.98428 0.0
C1783 C 0.257 0.08761 0.99073 0.0
H1784 H 0.2145 0.98689 0.96792 0.0
H1785 H 0.2925 0.50128 0.033 0.0
H1786 H 0.85628 0.95248 -0.00586 0.0
H1787 H 0.80545 0.89512 0.98533 0.0
H1788 H 0.83922 0.76174 0.01867 0.0
H1789 H 0.88983 0.81835 0.02728 0.0
H1790 H 0.81334 0.72001 0.98889 0.0
H1791 H 0.77972 0.86019 0.03149 0.0
H1792 H 0.77207 0.95752 0.04189 0.0
H1793 H 0.70577 0.996 -0.00046 0.0
H1794 H 0.71353 0.89908 0.98876 0.0
H1795 H 0.67551 0.56942 0.02519 0.0
H1796 H 0.72561 0.62713 0.0167 0.0
H1797 H 0.65638 0.7339 0.98754 0.0
H1798 H 0.60581 0.67696 -0.00354 0.0
H1799 H 0.69716 0.79569 0.00657 0.0
H1800 H 0.71779 0.64811 0.96827 0.0
H1801 H 0.72383 0.55042 0.95805 0.0
H1802 H 0.81313 0.52532 0.99046 0.0
H1803 H 0.80712 0.62239 0.00118 0.0
C1804 C 0.85304 0.91052 -0.00069 0.0
C1805 C 0.87651 0.8901 0.01159 0.0
C1806 C 0.82405 0.8779 -0.00567 0.0
C1807 C 0.81838 0.82438 0.00149 0.0
C1808 C 0.84306 0.80284 0.01298 0.0
C1809 C 0.87175 0.8354 0.01801 0.0
C1810 C 0.78542 0.79231 -0.00157 0.0
C1811 C 0.78784 0.73645 0.99266 0.0
C1812 C 0.75201 0.81452 0.00278 0.0
C1813 C 0.74758 0.87275 0.00922 0.0
C1814 C 0.76378 0.8896 0.02433 0.0
C1815 C 0.7594 0.94464 0.0303 0.0
C1816 C 0.73856 0.98299 0.02135 0.0
C1817 C 0.72203 0.96634 0.00642 0.0
C1818 C 0.72646 0.91141 0.00036 0.0
C1819 C 0.671 0.60491 0.01686 0.0
C1820 C 0.63675 0.6188 0.01156 0.0
C1821 C 0.69972 0.63753 0.01183 0.0
C1822 C 0.69491 0.68449 0.00127 0.0
C1823 C 0.66079 0.69762 -0.00442 0.0
C1824 C 0.63197 0.66488 0.00061 0.0
C1825 C 0.72515 0.72241 -0.00235 0.0
C1826 C 0.72228 0.77944 0.00221 0.0
C1827 C 0.75805 0.70128 0.99203 0.0
C1828 C 0.76192 0.64269 0.98558 0.0
C1829 C 0.73857 0.62168 0.97332 0.0
C1830 C 0.74198 0.56636 0.96743 0.0
C1831 C 0.76883 0.53167 0.9736 0.0
C1832 C 0.79234 0.55224 0.98568 0.0
C1833 C 0.78896 0.60746 0.99166 0.0
H1834 H 0.77145 0.48887 0.96902 0.0
H1835 H 0.73514 0.02556 0.026 0.0
H1836 H 0.09972 0.33364 0.27474 0.0
H1837 H 0.04631 0.38478 0.26672 0.0
H1838 H 0.10805 0.49646 0.23555 0.0
H1839 H 0.16185 0.44474 0.24352 0.0
H1840 H 0.06236 0.5525 0.25746 0.0
H1841 H 0.05535 0.40875 0.21642 0.0
H1842 H 0.05855 0.31142 0.20561 0.0
H1843 H 0.97127 0.26402 0.23696 0.0
H1844 H 0.96793 0.36082 0.24821 0.0
H1845 H 0.89394 0.68074 0.2447 0.0
H1846 H 0.94891 0.63463 0.23567 0.0
H1847 H 0.92317 0.48975 0.26622 0.0
H1848 H 0.86849 0.53548 0.27506 0.0
H1849 H 0.95418 0.45866 0.23632 0.0
H1850 H 0.97312 0.59466 0.28173 0.0
H1851 H 0.97213 0.69002 0.29416 0.0
H1852 H 0.03889 0.75081 0.25444 0.0
H1853 H 0.03975 0.65592 0.24162 0.0
C1854 C 0.10179 0.36872 0.26603 0.0
C1855 C 0.1347 0.38533 0.25971 0.0
C1856 C 0.07132 0.39768 0.26139 0.0
C1857 C 0.0732 0.44397 0.25039 0.0
C1858 C 0.10606 0.4605 0.24393 0.0
C1859 C 0.13663 0.43093 0.24842 0.0
C1860 C 0.0408 0.47667 0.24671 0.0
C1861 C 0.03898 0.53269 0.25229 0.0
C1862 C 0.01022 0.4503 0.24023 0.0
C1863 C 0.01147 0.39217 0.23321 0.0
C1864 C 0.03693 0.37754 0.22108 0.0
C1865 C 0.03879 0.32242 0.21488 0.0
C1866 C 0.01517 0.28154 0.22061 0.0
C1867 C 0.98955 0.29575 0.23252 0.0
C1868 C 0.98762 0.3508 0.2388 0.0
C1869 C 0.89975 0.63854 0.24909 0.0
C1870 C 0.87728 0.61168 0.26061 0.0
C1871 C 0.93113 0.61235 0.24402 0.0
C1872 C 0.94024 0.55891 0.25039 0.0
C1873 C 0.91667 0.53087 0.26111 0.0
C1874 C 0.88558 0.55712 0.26625 0.0
C1875 C 0.97561 0.534 0.24749 0.0
C1876 C 0.97792 0.47927 0.24079 0.0
C1877 C 0.00672 0.56154 0.25291 0.0
C1878 C 0.00609 0.61849 0.2606 0.0
C1879 C 0.98731 0.62851 0.27557 0.0
C1880 C 0.9868 0.68244 0.28269 0.0
C1881 C 0.00532 0.72651 0.27506 0.0
C1882 C 0.02446 0.71669 0.26031 0.0
C1883 C 0.02494 0.66288 0.2531 0.0
H1884 H 0.00494 0.76821 0.2806 0.0
H1885 H 0.01668 0.23887 0.21581 0.0
H1886 H 0.33941 0.96691 0.51512 0.0
H1887 H 0.28701 0.91234 0.50786 0.0
H1888 H 0.35201 0.79029 0.48213 0.0
H1889 H 0.4048 0.84449 0.48969 0.0
H1890 H 0.25257 0.86796 0.48034 0.0
H1891 H 0.32082 0.65932 0.49459 0.0
H1892 H 0.37466 0.62222 0.50812 0.0
H1893 H 0.376 0.76342 0.54199 0.0
H1894 H 0.32185 0.8008 0.52884 0.0
H1895 H 0.13172 0.6167 0.48897 0.0
H1896 H 0.18452 0.66749 0.47959 0.0
H1897 H 0.1868 0.75879 0.52648 0.0
H1898 H 0.13349 0.71088 0.53564 0.0
H1899 H 0.25431 0.68521 0.51092 0.0
H1900 H 0.16567 0.84196 0.50524 0.0
H1901 H 0.10975 0.87576 0.49287 0.0
H1902 H 0.14802 0.83676 0.44332 0.0
H1903 H 0.204 0.80216 0.45547 0.0
C1904 C 0.34245 0.92895 0.50766 0.0
C1905 C 0.37614 0.90924 0.50327 0.0
C1906 C 0.31247 0.89811 0.50336 0.0
C1907 C 0.31564 0.84686 0.49466 0.0
C1908 C 0.34903 0.82954 0.48898 0.0
C1909 C 0.37913 0.86055 0.49327 0.0
C1910 C 0.28483 0.80841 0.49401 0.0
C1911 C 0.25316 0.82758 0.48677 0.0
C1912 C 0.28543 0.75552 0.50235 0.0
C1913 C 0.31763 0.73317 0.51058 0.0
C1914 C 0.3326 0.68233 0.50495 0.0
C1915 C 0.36315 0.66125 0.51255 0.0
C1916 C 0.37885 0.69057 0.52585 0.0
C1917 C 0.3639 0.74086 0.53165 0.0
C1918 C 0.33327 0.762 0.52413 0.0
C1919 C 0.14317 0.64797 0.49721 0.0
C1920 C 0.12861 0.65866 0.51323 0.0
C1921 C 0.17339 0.67676 0.49184 0.0
C1922 C 0.18945 0.71644 0.50243 0.0
C1923 C 0.17477 0.72791 0.51822 0.0
C1924 C 0.14447 0.69992 0.52349 0.0
C1925 C 0.22229 0.74537 0.49756 0.0
C1926 C 0.25418 0.7245 0.5039 0.0
C1927 C 0.22184 0.7966 0.48853 0.0
C1928 C 0.18877 0.81908 0.48125 0.0
C1929 C 0.16204 0.84036 0.49172 0.0
C1930 C 0.13037 0.85968 0.48476 0.0
C1931 C 0.1253 0.85818 0.46733 0.0
C1932 C 0.15197 0.83777 0.45682 0.0
C1933 C 0.18366 0.81836 0.46374 0.0
H1934 H 0.10074 0.87285 0.46195 0.0
H1935 H 0.40254 0.67422 0.53169 0.0
H1936 H 0.86904 0.43253 0.4872 0.0
H1937 H 0.81351 0.38654 0.47913 0.0
H1938 H 0.83804 0.24691 0.51202 0.0
H1939 H 0.89332 0.29268 0.51998 0.0
H1940 H 0.8006 0.21287 0.48331 0.0
H1941 H 0.7953 0.35398 0.52767 0.0
H1942 H 0.80494 0.4494 0.53914 0.0
H1943 H 0.7379 0.51917 0.50078 0.0
H1944 H 0.72837 0.42398 0.48897 0.0
H1945 H 0.64828 0.11355 0.52396 0.0
H1946 H 0.70497 0.15328 0.51544 0.0
H1947 H 0.65123 0.27979 0.48592 0.0
H1948 H 0.59431 0.24084 0.49469 0.0
H1949 H 0.70109 0.32539 0.50615 0.0
H1950 H 0.6958 0.17678 0.46617 0.0
H1951 H 0.68636 0.07943 0.45622 0.0
H1952 H 0.77227 0.02169 0.48695 0.0
H1953 H 0.78204 0.1186 0.49724 0.0
C1954 C 0.8631 0.39106 0.49213 0.0
C1955 C 0.88519 0.36596 0.50416 0.0
C1956 C 0.8314 0.36494 0.4876 0.0
C1957 C 0.82156 0.31355 0.49511 0.0
C1958 C 0.84519 0.28633 0.50602 0.0
C1959 C 0.87665 0.31254 0.5106 0.0
C1960 C 0.78488 0.29251 0.49396 0.0
C1961 C 0.77874 0.23741 0.48819 0.0
C1962 C 0.75633 0.325 0.50012 0.0
C1963 C 0.76148 0.38206 0.50734 0.0
C1964 C 0.78282 0.38974 0.52165 0.0
C1965 C 0.78824 0.44374 0.52821 0.0
C1966 C 0.77211 0.49038 0.52066 0.0
C1967 C 0.75043 0.48302 0.50659 0.0
C1968 C 0.74502 0.42904 0.49995 0.0
C1969 C 0.64857 0.14984 0.51566 0.0
C1970 C 0.61692 0.17435 0.51009 0.0
C1971 C 0.68095 0.17209 0.51063 0.0
C1972 C 0.68231 0.21913 0.49989 0.0
C1973 C 0.65075 0.24328 0.49413 0.0
C1974 C 0.61831 0.22087 0.4991 0.0
C1975 C 0.71675 0.2452 0.49576 0.0
C1976 C 0.72256 0.30125 0.50069 0.0
C1977 C 0.7449 0.21339 0.4889 0.0
C1978 C 0.73955 0.15505 0.48254 0.0
C1979 C 0.71258 0.14331 0.47088 0.0
C1980 C 0.70717 0.0882 0.46517 0.0
C1981 C 0.72863 0.0444 0.47099 0.0
C1982 C 0.75566 0.05567 0.48246 0.0
C1983 C 0.76121 0.11074 0.48821 0.0
H1984 H 0.72433 1.00174 0.46658 0.0
H1985 H 0.77633 0.5322 0.52575 0.0
H1986 H 0.87306 0.0623 0.77993 0.0
H1987 H 0.93045 0.02965 0.77023 0.0
H1988 H 0.91434 0.11305 0.7226 0.0
H1989 H 0.85698 0.14749 0.73243 0.0
H1990 H 0.94621 0.99882 0.72093 0.0
H1991 H 0.96346 0.17933 0.7464 0.0
H1992 H 0.95539 0.25177 0.76835 0.0
H1993 H 0.00444 0.14317 0.8048 0.0
H1994 H 0.01227 0.06967 0.78313 0.0
H1995 H 0.15265 1.00162 0.74104 0.0
H1996 H 0.09802 0.04975 0.73266 0.0
H1997 H 0.03989 0.89568 0.74091 0.0
H1998 H 0.09434 0.84793 0.74915 0.0
H1999 H 0.0478 0.06506 0.75501 0.0
H2000 H 0.96307 0.89513 0.72 0.0
H2001 H 0.97159 0.82337 0.6979 0.0
H2002 H 0.0601 0.91561 0.67854 0.0
H2003 H 0.05178 0.98847 0.70032 0.0
C2004 C 0.88167 0.07426 0.76742 0.0
C2005 C 0.86062 0.10898 0.75712 0.0
C2006 C 0.91439 0.055 0.76185 0.0
C2007 C 0.92678 0.06948 0.74578 0.0
C2008 C 0.90523 0.10149 0.73506 0.0
C2009 C 0.87245 0.12119 0.74071 0.0
C2010 C 0.9632 0.05381 0.74091 0.0
C2011 C 0.96859 0.01353 0.72821 0.0
C2012 C 0.99239 0.07443 0.75011 0.0
C2013 C 0.98829 0.11887 0.76315 0.0
C2014 C 0.97233 0.17075 0.75912 0.0
C2015 C 0.96782 0.21202 0.77151 0.0
C2016 C 0.97936 0.20205 0.78796 0.0
C2017 C 0.99552 0.15083 0.79205 0.0
C2018 C 4e-05 0.10938 0.77971 0.0
C2019 C 0.12838 0.97764 0.74029 0.0
C2020 C 0.12744 0.92122 0.74563 0.0
C2021 C 0.09719 1.00515 0.73563 0.0
C2022 C 0.06479 0.97637 0.73613 0.0
C2023 C 0.06452 0.91863 0.74014 0.0
C2024 C 0.09559 0.89132 0.74488 0.0
C2025 C 0.03093 1.00789 0.73548 0.0
C2026 C 0.02583 0.05116 0.7473 0.0
C2027 C 0.00225 0.99031 0.72532 0.0
C2028 C 0.00685 0.94725 0.71189 0.0
C2029 C 0.98417 0.90043 0.71095 0.0
C2030 C 0.98901 0.85946 0.69848 0.0
C2031 C 0.01641 0.86487 0.68684 0.0
C2032 C 0.03894 0.91139 0.68759 0.0
C2033 C 0.03419 0.95251 0.70001 0.0
H2034 H 0.02016 0.83306 0.67722 0.0
H2035 H 0.97583 0.23404 0.79754 0.0
H2036 H 0.64191 0.42126 0.74411 0.0
H2037 H 0.58938 0.47653 0.73742 0.0
H2038 H 0.53561 0.4027 0.77996 0.0
H2039 H 0.58679 0.34426 0.78587 0.0
H2040 H 0.49117 0.41301 0.75629 0.0
H2041 H 0.58194 0.5377 0.77923 0.0
H2042 H 0.63821 0.58989 0.77985 0.0
H2043 H 0.61318 0.66712 0.73242 0.0
H2044 H 0.5571 0.61455 0.73132 0.0
H2045 H 0.37722 0.60358 0.79223 0.0
H2046 H 0.42938 0.54928 0.78511 0.0
H2047 H 0.43694 0.63614 0.73751 0.0
H2048 H 0.38486 0.6928 0.7449 0.0
H2049 H 0.50297 0.62144 0.75492 0.0
H2050 H 0.40404 0.51349 0.73768 0.0
H2051 H 0.3444 0.47633 0.74251 0.0
H2052 H 0.38345 0.37138 0.78248 0.0
H2053 H 0.44315 0.40999 0.77846 0.0
C2054 C 0.61862 0.4157 0.7518 0.0
C2055 C 0.61883 0.37857 0.76568 0.0
C2056 C 0.5887 0.44802 0.74808 0.0
C2057 C 0.55865 0.44483 0.75838 0.0
C2058 C 0.55843 0.40629 0.77183 0.0
C2059 C 0.588 0.37333 0.77536 0.0
C2060 C 0.52774 0.48267 0.75585 0.0
C2061 C 0.49386 0.45856 0.75596 0.0
C2062 C 0.53102 0.54226 0.75478 0.0
C2063 C 0.56555 0.57155 0.75508 0.0
C2064 C 0.58867 0.56517 0.76881 0.0
C2065 C 0.62048 0.59494 0.76926 0.0
C2066 C 0.62921 0.6318 0.75617 0.0
C2067 C 0.60634 0.63856 0.74253 0.0
C2068 C 0.57463 0.60865 0.74196 0.0
C2069 C 0.39021 0.61213 0.78036 0.0
C2070 C 0.3771 0.65324 0.76921 0.0
C2071 C 0.4199 0.58062 0.77625 0.0
C2072 C 0.43684 0.58846 0.76075 0.0
C2073 C 0.42418 0.62959 0.74955 0.0
C2074 C 0.39431 0.66154 0.75371 0.0
C2075 C 0.467 0.55163 0.75635 0.0
C2076 C 0.50048 0.57583 0.75477 0.0
C2077 C 0.46343 0.49222 0.75633 0.0
C2078 C 0.4282 0.46502 0.75781 0.0
C2079 C 0.39995 0.48278 0.74759 0.0
C2080 C 0.36602 0.46182 0.75029 0.0
C2081 C 0.36007 0.42176 0.76288 0.0
C2082 C 0.38809 0.40251 0.77275 0.0
C2083 C 0.422 0.42408 0.7703 0.0
H2084 H 0.33381 0.40529 0.76488 0.0
H2085 H 0.65355 0.65546 0.75662 0.0
H2086 H 0.65873 0.95207 0.24833 0.0
H2087 H 0.60239 0.99334 0.23943 0.0
H2088 H 0.54669 0.87185 0.26989 0.0
H2089 H 0.60264 0.82966 0.27843 0.0
H2090 H 0.51428 0.88767 0.23997 0.0
H2091 H 0.56387 1.0055 0.28424 0.0
H2092 H 0.61036 0.0655 0.29652 0.0
H2093 H 0.60247 0.17897 0.25449 0.0
H2094 H 0.55621 0.11917 0.24187 0.0
H2095 H 0.35618 1.00709 0.26908 0.0
H2096 H 0.41289 0.96327 0.26251 0.0
H2097 H 0.44124 0.10802 0.23244 0.0
H2098 H 0.38418 0.1519 0.23913 0.0
H2099 H 0.49033 0.08663 0.25562 0.0
H2100 H 0.43727 0.97556 0.21254 0.0
H2101 H 0.39574 0.91205 0.19806 0.0
H2102 H 0.41072 0.78693 0.23656 0.0
H2103 H 0.45293 0.84939 0.25109 0.0
C2104 C 0.63443 0.93365 0.2529 0.0
C2105 C 0.63508 0.88805 0.26425 0.0
C2106 C 0.60229 0.95751 0.2479 0.0
C2107 C 0.57035 0.93616 0.25419 0.0
C2108 C 0.57099 0.88916 0.26493 0.0
C2109 C 0.60299 0.86541 0.26993 0.0
C2110 C 0.53614 0.96385 0.25035 0.0
C2111 C 0.50896 0.93114 0.24344 0.0
C2112 C 0.52958 0.02115 0.25429 0.0
C2113 C 0.55688 0.05759 0.26203 0.0
C2114 C 0.5722 0.04309 0.27758 0.0
C2115 C 0.59848 0.07706 0.2846 0.0
C2116 C 0.60943 0.12594 0.27627 0.0
C2117 C 0.594 0.14105 0.26092 0.0
C2118 C 0.56774 0.10716 0.25383 0.0
C2119 C 0.37412 0.0286 0.26062 0.0
C2120 C 0.36588 0.08251 0.25446 0.0
C2121 C 0.40647 1.00353 0.25681 0.0
C2122 C 0.43135 0.03209 0.24686 0.0
C2123 C 0.42241 0.085 0.24004 0.0
C2124 C 0.38979 0.1099 0.24375 0.0
C2125 C 0.46797 1.00988 0.24568 0.0
C2126 C 0.49568 0.04355 0.25176 0.0
C2127 C 0.47508 0.95347 0.24095 0.0
C2128 C 0.44803 0.91729 0.23294 0.0
C2129 C 0.43139 0.93476 0.21801 0.0
C2130 C 0.4079 0.89879 0.20974 0.0
C2131 C 0.40047 0.84552 0.21642 0.0
C2132 C 0.4165 0.82817 0.2314 0.0
C2133 C 0.44036 0.86371 0.2396 0.0
H2134 H 0.38247 0.81752 0.20996 0.0
H2135 H 0.62981 0.15215 0.28171 0.0
loop_
_geom_bond_atom_site_label_1
_geom_bond_atom_site_label_2
_geom_bond_distance
_geom_bond_site_symmetry_2
_ccdc_geom_bond_type
C0 O1 1.201 . S
C0 C2 1.493 . S
C0 N17 1.318 1_455 S
O1 C0 1.201 . S
C2 C0 1.493 . S
C2 C3 1.381 . S
C2 N7 1.335 1_554 S
C3 C2 1.381 . S
C3 C4 1.411 1_554 S
C3 H49 0.931 . S
C4 C3 1.411 1_556 S
C4 C5 1.384 . S
C4 H50 0.930 . S
C5 C4 1.384 . S
C5 C6 1.376 . S
C5 H51 0.929 . S
C6 C5 1.376 . S
C6 N7 1.330 . S
C6 C21 1.484 1_565 S
N7 C2 1.335 1_556 S
N7 C6 1.330 . S
N7 Co9 1.859 1_565 S
N8 Co9 1.962 1_554 S
N8 C19 1.318 1_455 S
N8 C43 1.421 . S
Co9 N7 1.859 1_545 S
Co9 N8 1.962 1_556 S
Co9 N10 1.859 1_455 S
Co9 N16 1.958 1_445 S
Co9 N17 1.962 1_446 S
Co9 N18 1.958 . S
N10 Co9 1.859 1_655 S
N10 C14 1.330 . S
N10 C15 1.335 1_556 S
C11 C12 1.411 1_554 S
C11 C15 1.381 . S
C11 H52 0.931 . S
C12 C11 1.411 1_556 S
C12 C13 1.384 . S
C12 H53 0.930 . S
C13 C12 1.384 . S
C13 C14 1.376 . S
C13 H54 0.929 . S
C14 N10 1.330 . S
C14 C13 1.376 . S
C14 C29 1.484 1_545 S
C15 N10 1.335 1_554 S
C15 C11 1.381 . S
C15 C19 1.493 . S
N16 Co9 1.958 1_665 S
N16 C29 1.344 . S
N16 C31 1.433 . S
N17 C0 1.318 1_655 S
N17 Co9 1.962 1_664 S
N17 C37 1.421 . S
N18 Co9 1.958 . S
N18 C21 1.344 . S
N18 C23 1.437 . S
C19 N8 1.318 1_655 S
C19 C15 1.493 . S
C19 O20 1.201 . S
O20 C19 1.201 . S
C21 C6 1.484 1_545 S
C21 N18 1.344 . S
C21 O22 1.268 . S
O22 C21 1.268 . S
C23 N18 1.437 . S
C23 C25 1.395 . S
C23 C26 1.351 1_455 S
C24 C25 1.382 1_655 S
C24 C28 1.386 . S
C25 C23 1.395 . S
C25 C24 1.382 1_455 S
C25 H55 0.928 . S
C26 C23 1.351 1_655 S
C26 C27 1.367 . S
C26 H56 0.930 . S
C27 C26 1.367 . S
C27 C28 1.369 . S
C28 C24 1.386 . S
C28 C27 1.369 . S
C28 H57 0.930 . S
C29 C14 1.484 1_565 S
C29 N16 1.344 . S
C29 O30 1.268 . S
O30 C29 1.268 . S
C31 N16 1.433 . S
C31 C32 1.356 1_655 S
C31 C36 1.394 . S
C32 C31 1.356 1_455 S
C32 C33 1.367 . S
C32 H58 0.930 . S
C33 C32 1.367 . S
C33 C34 1.369 . S
C34 C33 1.369 . S
C34 C35 1.386 . S
C34 H59 0.930 . S
C35 C34 1.386 . S
C35 C36 1.382 1_455 S
C36 C31 1.394 . S
C36 C35 1.382 1_655 S
C36 H60 0.928 . S
C37 N17 1.421 . S
C37 C38 1.371 . S
C37 C42 1.385 . S
C38 C37 1.371 . S
C38 C39 1.367 . S
C38 H61 0.931 . S
C39 C38 1.367 . S
C39 C40 1.401 . S
C40 C39 1.401 . S
C40 C41 1.385 . S
C40 H62 0.930 . S
C41 C40 1.385 . S
C41 C42 1.402 . S
C42 C37 1.385 . S
C42 C41 1.402 . S
C42 H63 0.929 . S
C43 N8 1.421 . S
C43 C46 1.385 . S
C43 C47 1.371 . S
C44 C45 1.385 . S
C44 C48 1.401 . S
C44 H64 0.930 . S
C45 C44 1.385 . S
C45 C46 1.402 . S
C46 C43 1.385 . S
C46 C45 1.402 . S
C46 H65 0.929 . S
C47 C43 1.371 . S
C47 C48 1.367 . S
C47 H66 0.931 . S
C48 C44 1.401 . S
C48 C47 1.367 . S
H49 C3 0.931 . S
H50 C4 0.930 . S
H51 C5 0.929 . S
H52 C11 0.931 . S
H53 C12 0.930 . S
H54 C13 0.929 . S
H55 C25 0.928 . S
H56 C26 0.930 . S
H57 C28 0.930 . S
H58 C32 0.930 . S
H59 C34 0.930 . S
H60 C36 0.928 . S
H61 C38 0.931 . S
H62 C40 0.930 . S
H63 C42 0.929 . S
H64 C44 0.930 . S
H65 C46 0.929 . S
H66 C47 0.931 . S
C67 O68 1.201 . S
C67 C69 1.493 . S
C67 N84 1.318 . S
O68 C67 1.201 . S
C69 C67 1.493 . S
C69 C70 1.381 . S
C69 N74 1.335 . S
C70 C69 1.381 . S
C70 C71 1.411 . S
C70 H116 0.931 . S
C71 C70 1.411 . S
C71 C72 1.384 . S
C71 H117 0.930 . S
C72 C71 1.384 . S
C72 C73 1.376 . S
C72 H118 0.929 . S
C73 C72 1.376 . S
C73 N74 1.330 . S
C73 C88 1.484 . S
N74 C69 1.335 . S
N74 C73 1.330 . S
N74 Co76 1.859 . S
N75 Co76 1.962 . S
N75 C86 1.318 . S
N75 C110 1.421 . S
Co76 N74 1.859 . S
Co76 N75 1.962 . S
Co76 N77 1.859 . S
Co76 N83 1.958 . S
Co76 N84 1.962 . S
Co76 N85 1.958 . S
N77 Co76 1.859 . S
N77 C81 1.330 . S
N77 C82 1.335 . S
C78 C79 1.411 . S
C78 C82 1.381 . S
C78 H119 0.931 . S
C79 C78 1.411 . S
C79 C80 1.384 . S
C79 H120 0.930 . S
C80 C79 1.384 . S
C80 C81 1.376 . S
C80 H121 0.929 . S
C81 N77 1.330 . S
C81 C80 1.376 . S
C81 C96 1.484 . S
C82 N77 1.335 . S
C82 C78 1.381 . S
C82 C86 1.493 . S
N83 Co76 1.958 . S
N83 C96 1.344 . S
N83 C98 1.425 . S
N84 C67 1.318 . S
N84 Co76 1.962 . S
N84 C104 1.421 . S
N85 Co76 1.958 . S
N85 C88 1.344 . S
N85 C90 1.425 . S
C86 N75 1.318 . S
C86 C82 1.493 . S
C86 O87 1.201 . S
O87 C86 1.201 . S
C88 C73 1.484 . S
C88 N85 1.344 . S
C88 O89 1.268 . S
O89 C88 1.268 . S
C90 N85 1.425 . S
C90 C92 1.392 . S
C90 C93 1.368 . S
C91 C92 1.382 . S
C91 C95 1.386 . S
C92 C90 1.392 . S
C92 C91 1.382 . S
C92 H122 0.928 . S
C93 C90 1.368 . S
C93 C94 1.367 . S
C93 H123 0.930 . S
C94 C93 1.367 . S
C94 C95 1.369 . S
C95 C91 1.386 . S
C95 C94 1.369 . S
C95 H124 0.930 . S
C96 C81 1.484 . S
C96 N83 1.344 . S
C96 O97 1.268 . S
O97 C96 1.268 . S
C98 N83 1.425 . S
C98 C99 1.368 . S
C98 C103 1.392 . S
C99 C98 1.368 . S
C99 C100 1.367 . S
C99 H125 0.930 . S
C100 C99 1.367 . S
C100 C101 1.369 . S
C101 C100 1.369 . S
C101 C102 1.386 . S
C101 H126 0.930 . S
C102 C101 1.386 . S
C102 C103 1.382 . S
C103 C98 1.392 . S
C103 C102 1.382 . S
C103 H127 0.928 . S
C104 N84 1.421 . S
C104 C105 1.371 . S
C104 C109 1.385 . S
C105 C104 1.371 . S
C105 C106 1.367 . S
C105 H128 0.931 . S
C106 C105 1.367 . S
C106 C107 1.401 . S
C107 C106 1.401 . S
C107 C108 1.385 . S
C107 H129 0.930 . S
C108 C107 1.385 . S
C108 C109 1.402 . S
C109 C104 1.385 . S
C109 C108 1.402 . S
C109 H130 0.929 . S
C110 N75 1.421 . S
C110 C113 1.385 . S
C110 C114 1.371 . S
C111 C112 1.385 . S
C111 C115 1.401 . S
C111 H131 0.930 . S
C112 C111 1.385 . S
C112 C113 1.402 . S
C113 C110 1.385 . S
C113 C112 1.402 . S
C113 H132 0.929 . S
C114 C110 1.371 . S
C114 C115 1.367 . S
C114 H133 0.931 . S
C115 C111 1.401 . S
C115 C114 1.367 . S
H116 C70 0.931 . S
H117 C71 0.930 . S
H118 C72 0.929 . S
H119 C78 0.931 . S
H120 C79 0.930 . S
H121 C80 0.929 . S
H122 C92 0.928 . S
H123 C93 0.930 . S
H124 C95 0.930 . S
H125 C99 0.930 . S
H126 C101 0.930 . S
H127 C103 0.928 . S
H128 C105 0.931 . S
H129 C107 0.930 . S
H130 C109 0.929 . S
H131 C111 0.930 . S
H132 C113 0.929 . S
H133 C114 0.931 . S
C134 O135 1.201 . S
C134 C136 1.493 . S
C134 N151 1.318 . S
O135 C134 1.201 . S
C136 C134 1.493 . S
C136 C137 1.381 . S
C136 N141 1.335 . S
C137 C136 1.381 . S
C137 C138 1.411 . S
C137 H183 0.931 . S
C138 C137 1.411 . S
C138 C139 1.384 . S
C138 H184 0.930 . S
C139 C138 1.384 . S
C139 C140 1.376 . S
C139 H185 0.929 . S
C140 C139 1.376 . S
C140 N141 1.330 . S
C140 C155 1.484 . S
N141 C136 1.335 . S
N141 C140 1.330 . S
N141 Co143 1.859 . S
N142 Co143 1.962 . S
N142 C153 1.318 . S
N142 C177 1.421 . S
Co143 N141 1.859 . S
Co143 N142 1.962 . S
Co143 N144 1.859 . S
Co143 N150 1.958 . S
Co143 N151 1.962 . S
Co143 N152 1.958 . S
N144 Co143 1.859 . S
N144 C148 1.330 . S
N144 C149 1.335 . S
C145 C146 1.411 . S
C145 C149 1.381 . S
C145 H186 0.931 . S
C146 C145 1.411 . S
C146 C147 1.384 . S
C146 H187 0.930 . S
C147 C146 1.384 . S
C147 C148 1.376 . S
C147 H188 0.929 . S
C148 N144 1.330 . S
C148 C147 1.376 . S
C148 C163 1.484 . S
C149 N144 1.335 . S
C149 C145 1.381 . S
C149 C153 1.493 . S
N150 Co143 1.958 . S
N150 C163 1.344 . S
N150 C165 1.425 . S
N151 C134 1.318 . S
N151 Co143 1.962 . S
N151 C171 1.421 . S
N152 Co143 1.958 . S
N152 C155 1.344 . S
N152 C157 1.425 . S
C153 N142 1.318 . S
C153 C149 1.493 . S
C153 O154 1.201 . S
O154 C153 1.201 . S
C155 C140 1.484 . S
C155 N152 1.344 . S
C155 O156 1.268 . S
O156 C155 1.268 . S
C157 N152 1.425 . S
C157 C159 1.392 . S
C157 C160 1.368 . S
C158 C159 1.382 . S
C158 C162 1.386 . S
C159 C157 1.392 . S
C159 C158 1.382 . S
C159 H189 0.928 . S
C160 C157 1.368 . S
C160 C161 1.367 . S
C160 H190 0.930 . S
C161 C160 1.367 . S
C161 C162 1.369 . S
C162 C158 1.386 . S
C162 C161 1.369 . S
C162 H191 0.930 . S
C163 C148 1.484 . S
C163 N150 1.344 . S
C163 O164 1.268 . S
O164 C163 1.268 . S
C165 N150 1.425 . S
C165 C166 1.368 . S
C165 C170 1.392 . S
C166 C165 1.368 . S
C166 C167 1.367 . S
C166 H192 0.930 . S
C167 C166 1.367 . S
C167 C168 1.369 . S
C168 C167 1.369 . S
C168 C169 1.386 . S
C168 H193 0.930 . S
C169 C168 1.386 . S
C169 C170 1.382 . S
C170 C165 1.392 . S
C170 C169 1.382 . S
C170 H194 0.928 . S
C171 N151 1.421 . S
C171 C172 1.371 . S
C171 C176 1.385 . S
C172 C171 1.371 . S
C172 C173 1.367 . S
C172 H195 0.931 . S
C173 C172 1.367 . S
C173 C174 1.401 . S
C174 C173 1.401 . S
C174 C175 1.385 . S
C174 H196 0.930 . S
C175 C174 1.385 . S
C175 C176 1.402 . S
C176 C171 1.385 . S
C176 C175 1.402 . S
C176 H197 0.929 . S
C177 N142 1.421 . S
C177 C180 1.385 . S
C177 C181 1.371 . S
C178 C179 1.385 . S
C178 C182 1.401 . S
C178 H198 0.930 . S
C179 C178 1.385 . S
C179 C180 1.402 . S
C180 C177 1.385 . S
C180 C179 1.402 . S
C180 H199 0.929 . S
C181 C177 1.371 . S
C181 C182 1.367 . S
C181 H200 0.931 . S
C182 C178 1.401 . S
C182 C181 1.367 . S
H183 C137 0.931 . S
H184 C138 0.930 . S
H185 C139 0.929 . S
H186 C145 0.931 . S
H187 C146 0.930 . S
H188 C147 0.929 . S
H189 C159 0.928 . S
H190 C160 0.930 . S
H191 C162 0.930 . S
H192 C166 0.930 . S
H193 C168 0.930 . S
H194 C170 0.928 . S
H195 C172 0.931 . S
H196 C174 0.930 . S
H197 C176 0.929 . S
H198 C178 0.930 . S
H199 C180 0.929 . S
H200 C181 0.931 . S
C201 O202 1.201 . S
C201 C203 1.493 . S
C201 N218 1.318 1_455 S
O202 C201 1.201 . S
C203 C201 1.493 . S
C203 C204 1.381 . S
C203 N208 1.335 . S
C204 C203 1.381 . S
C204 C205 1.411 . S
C204 H250 0.931 . S
C205 C204 1.411 . S
C205 C206 1.384 . S
C205 H251 0.930 . S
C206 C205 1.384 . S
C206 C207 1.376 . S
C206 H252 0.929 . S
C207 C206 1.376 . S
C207 N208 1.330 . S
C207 C222 1.484 . S
N208 C203 1.335 . S
N208 C207 1.330 . S
N208 Co210 1.859 . S
N209 Co210 1.962 . S
N209 C220 1.318 1_455 S
N209 C244 1.421 . S
Co210 N208 1.859 . S
Co210 N209 1.962 . S
Co210 N211 1.859 1_455 S
Co210 N217 1.958 1_455 S
Co210 N218 1.962 1_455 S
Co210 N219 1.958 . S
N211 Co210 1.859 1_655 S
N211 C215 1.330 . S
N211 C216 1.335 . S
C212 C213 1.411 . S
C212 C216 1.381 . S
C212 H253 0.931 . S
C213 C212 1.411 . S
C213 C214 1.384 . S
C213 H254 0.930 . S
C214 C213 1.384 . S
C214 C215 1.376 . S
C214 H255 0.929 . S
C215 N211 1.330 . S
C215 C214 1.376 . S
C215 C230 1.484 . S
C216 N211 1.335 . S
C216 C212 1.381 . S
C216 C220 1.493 . S
N217 Co210 1.958 1_655 S
N217 C230 1.344 . S
N217 C232 1.433 . S
N218 C201 1.318 1_655 S
N218 Co210 1.962 1_655 S
N218 C238 1.421 . S
N219 Co210 1.958 . S
N219 C222 1.344 . S
N219 C224 1.437 . S
C220 N209 1.318 1_655 S
C220 C216 1.493 . S
C220 O221 1.201 . S
O221 C220 1.201 . S
C222 C207 1.484 . S
C222 N219 1.344 . S
C222 O223 1.268 . S
O223 C222 1.268 . S
C224 N219 1.437 . S
C224 C226 1.395 . S
C224 C227 1.351 1_455 S
C225 C226 1.382 1_655 S
C225 C229 1.386 . S
C226 C224 1.395 . S
C226 C225 1.382 1_455 S
C226 H256 0.928 . S
C227 C224 1.351 1_655 S
C227 C228 1.367 . S
C227 H257 0.930 . S
C228 C227 1.367 . S
C228 C229 1.369 . S
C229 C225 1.386 . S
C229 C228 1.369 . S
C229 H258 0.930 . S
C230 C215 1.484 . S
C230 N217 1.344 . S
C230 O231 1.268 . S
O231 C230 1.268 . S
C232 N217 1.433 . S
C232 C233 1.356 1_655 S
C232 C237 1.394 . S
C233 C232 1.356 1_455 S
C233 C234 1.367 . S
C233 H259 0.930 . S
C234 C233 1.367 . S
C234 C235 1.369 . S
C235 C234 1.369 . S
C235 C236 1.386 . S
C235 H260 0.930 . S
C236 C235 1.386 . S
C236 C237 1.382 1_455 S
C237 C232 1.394 . S
C237 C236 1.382 1_655 S
C237 H261 0.928 . S
C238 N218 1.421 . S
C238 C239 1.371 . S
C238 C243 1.385 . S
C239 C238 1.371 . S
C239 C240 1.367 . S
C239 H262 0.931 . S
C240 C239 1.367 . S
C240 C241 1.401 . S
C241 C240 1.401 . S
C241 C242 1.385 . S
C241 H263 0.930 . S
C242 C241 1.385 . S
C242 C243 1.402 . S
C243 C238 1.385 . S
C243 C242 1.402 . S
C243 H264 0.929 . S
C244 N209 1.421 . S
C244 C247 1.385 . S
C244 C248 1.371 . S
C245 C246 1.385 . S
C245 C249 1.401 . S
C245 H265 0.930 . S
C246 C245 1.385 . S
C246 C247 1.402 . S
C247 C244 1.385 . S
C247 C246 1.402 . S
C247 H266 0.929 . S
C248 C244 1.371 . S
C248 C249 1.367 . S
C248 H267 0.931 . S
C249 C245 1.401 . S
C249 C248 1.367 . S
H250 C204 0.931 . S
H251 C205 0.930 . S
H252 C206 0.929 . S
H253 C212 0.931 . S
H254 C213 0.930 . S
H255 C214 0.929 . S
H256 C226 0.928 . S
H257 C227 0.930 . S
H258 C229 0.930 . S
H259 C233 0.930 . S
H260 C235 0.930 . S
H261 C237 0.928 . S
H262 C239 0.931 . S
H263 C241 0.930 . S
H264 C243 0.929 . S
H265 C245 0.930 . S
H266 C247 0.929 . S
H267 C248 0.931 . S
C268 O269 1.201 . S
C268 C270 1.493 . S
C268 N285 1.318 . S
O269 C268 1.201 . S
C270 C268 1.493 . S
C270 C271 1.381 . S
C270 N275 1.335 . S
C271 C270 1.381 . S
C271 C272 1.411 . S
C271 H317 0.931 . S
C272 C271 1.411 . S
C272 C273 1.384 . S
C272 H318 0.930 . S
C273 C272 1.384 . S
C273 C274 1.376 . S
C273 H319 0.929 . S
C274 C273 1.376 . S
C274 N275 1.330 . S
C274 C289 1.484 . S
N275 C270 1.335 . S
N275 C274 1.330 . S
N275 Co277 1.859 . S
N276 Co277 1.962 . S
N276 C287 1.318 . S
N276 C311 1.421 . S
Co277 N275 1.859 . S
Co277 N276 1.962 . S
Co277 N278 1.859 . S
Co277 N284 1.958 . S
Co277 N285 1.962 . S
Co277 N286 1.958 . S
N278 Co277 1.859 . S
N278 C282 1.330 . S
N278 C283 1.335 . S
C279 C280 1.411 . S
C279 C283 1.381 . S
C279 H320 0.931 . S
C280 C279 1.411 . S
C280 C281 1.384 . S
C280 H321 0.930 . S
C281 C280 1.384 . S
C281 C282 1.376 . S
C281 H322 0.929 . S
C282 N278 1.330 . S
C282 C281 1.376 . S
C282 C297 1.484 . S
C283 N278 1.335 . S
C283 C279 1.381 . S
C283 C287 1.493 . S
N284 Co277 1.958 . S
N284 C297 1.344 . S
N284 C299 1.425 . S
N285 C268 1.318 . S
N285 Co277 1.962 . S
N285 C305 1.421 . S
N286 Co277 1.958 . S
N286 C289 1.344 . S
N286 C291 1.425 . S
C287 N276 1.318 . S
C287 C283 1.493 . S
C287 O288 1.201 . S
O288 C287 1.201 . S
C289 C274 1.484 . S
C289 N286 1.344 . S
C289 O290 1.268 . S
O290 C289 1.268 . S
C291 N286 1.425 . S
C291 C293 1.392 . S
C291 C294 1.368 . S
C292 C293 1.382 . S
C292 C296 1.386 . S
C293 C291 1.392 . S
C293 C292 1.382 . S
C293 H323 0.928 . S
C294 C291 1.368 . S
C294 C295 1.367 . S
C294 H324 0.930 . S
C295 C294 1.367 . S
C295 C296 1.369 . S
C296 C292 1.386 . S
C296 C295 1.369 . S
C296 H325 0.930 . S
C297 C282 1.484 . S
C297 N284 1.344 . S
C297 O298 1.268 . S
O298 C297 1.268 . S
C299 N284 1.425 . S
C299 C300 1.368 . S
C299 C304 1.392 . S
C300 C299 1.368 . S
C300 C301 1.367 . S
C300 H326 0.930 . S
C301 C300 1.367 . S
C301 C302 1.369 . S
C302 C301 1.369 . S
C302 C303 1.386 . S
C302 H327 0.930 . S
C303 C302 1.386 . S
C303 C304 1.382 . S
C304 C299 1.392 . S
C304 C303 1.382 . S
C304 H328 0.928 . S
C305 N285 1.421 . S
C305 C306 1.371 . S
C305 C310 1.385 . S
C306 C305 1.371 . S
C306 C307 1.367 . S
C306 H329 0.931 . S
C307 C306 1.367 . S
C307 C308 1.401 . S
C308 C307 1.401 . S
C308 C309 1.385 . S
C308 H330 0.930 . S
C309 C308 1.385 . S
C309 C310 1.402 . S
C310 C305 1.385 . S
C310 C309 1.402 . S
C310 H331 0.929 . S
C311 N276 1.421 . S
C311 C314 1.385 . S
C311 C315 1.371 . S
C312 C313 1.385 . S
C312 C316 1.401 . S
C312 H332 0.930 . S
C313 C312 1.385 . S
C313 C314 1.402 . S
C314 C311 1.385 . S
C314 C313 1.402 . S
C314 H333 0.929 . S
C315 C311 1.371 . S
C315 C316 1.367 . S
C315 H334 0.931 . S
C316 C312 1.401 . S
C316 C315 1.367 . S
H317 C271 0.931 . S
H318 C272 0.930 . S
H319 C273 0.929 . S
H320 C279 0.931 . S
H321 C280 0.930 . S
H322 C281 0.929 . S
H323 C293 0.928 . S
H324 C294 0.930 . S
H325 C296 0.930 . S
H326 C300 0.930 . S
H327 C302 0.930 . S
H328 C304 0.928 . S
H329 C306 0.931 . S
H330 C308 0.930 . S
H331 C310 0.929 . S
H332 C312 0.930 . S
H333 C314 0.929 . S
H334 C315 0.931 . S
C335 O336 1.201 . S
C335 C337 1.493 . S
C335 N352 1.318 . S
O336 C335 1.201 . S
C337 C335 1.493 . S
C337 C338 1.381 . S
C337 N342 1.335 . S
C338 C337 1.381 . S
C338 C339 1.411 . S
C338 H384 0.931 . S
C339 C338 1.411 . S
C339 C340 1.384 . S
C339 H385 0.930 . S
C340 C339 1.384 . S
C340 C341 1.376 . S
C340 H386 0.929 . S
C341 C340 1.376 . S
C341 N342 1.330 . S
C341 C356 1.484 . S
N342 C337 1.335 . S
N342 C341 1.330 . S
N342 Co344 1.859 . S
N343 Co344 1.962 . S
N343 C354 1.318 . S
N343 C378 1.421 . S
Co344 N342 1.859 . S
Co344 N343 1.962 . S
Co344 N345 1.859 . S
Co344 N351 1.958 . S
Co344 N352 1.962 . S
Co344 N353 1.958 . S
N345 Co344 1.859 . S
N345 C349 1.330 . S
N345 C350 1.335 . S
C346 C347 1.411 . S
C346 C350 1.381 . S
C346 H387 0.931 . S
C347 C346 1.411 . S
C347 C348 1.384 . S
C347 H388 0.930 . S
C348 C347 1.384 . S
C348 C349 1.376 . S
C348 H389 0.929 . S
C349 N345 1.330 . S
C349 C348 1.376 . S
C349 C364 1.484 . S
C350 N345 1.335 . S
C350 C346 1.381 . S
C350 C354 1.493 . S
N351 Co344 1.958 . S
N351 C364 1.344 . S
N351 C366 1.425 . S
N352 C335 1.318 . S
N352 Co344 1.962 . S
N352 C372 1.421 . S
N353 Co344 1.958 . S
N353 C356 1.344 . S
N353 C358 1.425 . S
C354 N343 1.318 . S
C354 C350 1.493 . S
C354 O355 1.201 . S
O355 C354 1.201 . S
C356 C341 1.484 . S
C356 N353 1.344 . S
C356 O357 1.268 . S
O357 C356 1.268 . S
C358 N353 1.425 . S
C358 C360 1.392 . S
C358 C361 1.368 . S
C359 C360 1.382 . S
C359 C363 1.386 . S
C360 C358 1.392 . S
C360 C359 1.382 . S
C360 H390 0.928 . S
C361 C358 1.368 . S
C361 C362 1.367 . S
C361 H391 0.930 . S
C362 C361 1.367 . S
C362 C363 1.369 . S
C363 C359 1.386 . S
C363 C362 1.369 . S
C363 H392 0.930 . S
C364 C349 1.484 . S
C364 N351 1.344 . S
C364 O365 1.268 . S
O365 C364 1.268 . S
C366 N351 1.425 . S
C366 C367 1.368 . S
C366 C371 1.392 . S
C367 C366 1.368 . S
C367 C368 1.367 . S
C367 H393 0.930 . S
C368 C367 1.367 . S
C368 C369 1.369 . S
C369 C368 1.369 . S
C369 C370 1.386 . S
C369 H394 0.930 . S
C370 C369 1.386 . S
C370 C371 1.382 . S
C371 C366 1.392 . S
C371 C370 1.382 . S
C371 H395 0.928 . S
C372 N352 1.421 . S
C372 C373 1.371 . S
C372 C377 1.385 . S
C373 C372 1.371 . S
C373 C374 1.367 . S
C373 H396 0.931 . S
C374 C373 1.367 . S
C374 C375 1.401 . S
C375 C374 1.401 . S
C375 C376 1.385 . S
C375 H397 0.930 . S
C376 C375 1.385 . S
C376 C377 1.402 . S
C377 C372 1.385 . S
C377 C376 1.402 . S
C377 H398 0.929 . S
C378 N343 1.421 . S
C378 C381 1.385 . S
C378 C382 1.371 . S
C379 C380 1.385 . S
C379 C383 1.401 . S
C379 H399 0.930 . S
C380 C379 1.385 . S
C380 C381 1.402 . S
C381 C378 1.385 . S
C381 C380 1.402 . S
C381 H400 0.929 . S
C382 C378 1.371 . S
C382 C383 1.367 . S
C382 H401 0.931 . S
C383 C379 1.401 . S
C383 C382 1.367 . S
H384 C338 0.931 . S
H385 C339 0.930 . S
H386 C340 0.929 . S
H387 C346 0.931 . S
H388 C347 0.930 . S
H389 C348 0.929 . S
H390 C360 0.928 . S
H391 C361 0.930 . S
H392 C363 0.930 . S
H393 C367 0.930 . S
H394 C369 0.930 . S
H395 C371 0.928 . S
H396 C373 0.931 . S
H397 C375 0.930 . S
H398 C377 0.929 . S
H399 C379 0.930 . S
H400 C381 0.929 . S
H401 C382 0.931 . S
C402 O403 1.201 . S
C402 C404 1.493 . S
C402 N419 1.318 . S
O403 C402 1.201 . S
C404 C402 1.493 . S
C404 C405 1.381 . S
C404 N409 1.335 . S
C405 C404 1.381 . S
C405 C406 1.411 . S
C405 H451 0.931 . S
C406 C405 1.411 . S
C406 C407 1.384 . S
C406 H452 0.930 . S
C407 C406 1.384 . S
C407 C408 1.376 . S
C407 H453 0.929 . S
C408 C407 1.376 . S
C408 N409 1.330 . S
C408 C423 1.484 1_565 S
N409 C404 1.335 . S
N409 C408 1.330 . S
N409 Co411 1.859 1_565 S
N410 Co411 1.962 . S
N410 C421 1.318 . S
N410 C445 1.421 . S
Co411 N409 1.859 1_545 S
Co411 N410 1.962 . S
Co411 N412 1.859 . S
Co411 N418 1.958 1_545 S
Co411 N419 1.962 1_545 S
Co411 N420 1.958 . S
N412 Co411 1.859 . S
N412 C416 1.330 . S
N412 C417 1.335 . S
C413 C414 1.411 . S
C413 C417 1.381 . S
C413 H454 0.931 . S
C414 C413 1.411 . S
C414 C415 1.384 . S
C414 H455 0.930 . S
C415 C414 1.384 . S
C415 C416 1.376 . S
C415 H456 0.929 . S
C416 N412 1.330 . S
C416 C415 1.376 . S
C416 C431 1.484 1_545 S
C417 N412 1.335 . S
C417 C413 1.381 . S
C417 C421 1.493 . S
N418 Co411 1.958 1_565 S
N418 C431 1.344 . S
N418 C433 1.425 . S
N419 C402 1.318 . S
N419 Co411 1.962 1_565 S
N419 C439 1.421 . S
N420 Co411 1.958 . S
N420 C423 1.344 . S
N420 C425 1.425 . S
C421 N410 1.318 . S
C421 C417 1.493 . S
C421 O422 1.201 . S
O422 C421 1.201 . S
C423 C408 1.484 1_545 S
C423 N420 1.344 . S
C423 O424 1.268 . S
O424 C423 1.268 . S
C425 N420 1.425 . S
C425 C427 1.392 . S
C425 C428 1.368 . S
C426 C427 1.382 . S
C426 C430 1.386 . S
C427 C425 1.392 . S
C427 C426 1.382 . S
C427 H457 0.928 . S
C428 C425 1.368 . S
C428 C429 1.367 . S
C428 H458 0.930 . S
C429 C428 1.367 . S
C429 C430 1.369 . S
C430 C426 1.386 . S
C430 C429 1.369 . S
C430 H459 0.930 . S
C431 C416 1.484 1_565 S
C431 N418 1.344 . S
C431 O432 1.268 . S
O432 C431 1.268 . S
C433 N418 1.425 . S
C433 C434 1.368 . S
C433 C438 1.392 . S
C434 C433 1.368 . S
C434 C435 1.367 . S
C434 H460 0.930 . S
C435 C434 1.367 . S
C435 C436 1.369 . S
C436 C435 1.369 . S
C436 C437 1.386 . S
C436 H461 0.930 . S
C437 C436 1.386 . S
C437 C438 1.382 . S
C438 C433 1.392 . S
C438 C437 1.382 . S
C438 H462 0.928 . S
C439 N419 1.421 . S
C439 C440 1.371 . S
C439 C444 1.385 . S
C440 C439 1.371 . S
C440 C441 1.367 . S
C440 H463 0.931 . S
C441 C440 1.367 . S
C441 C442 1.401 . S
C442 C441 1.401 . S
C442 C443 1.385 . S
C442 H464 0.930 . S
C443 C442 1.385 . S
C443 C444 1.402 . S
C444 C439 1.385 . S
C444 C443 1.402 . S
C444 H465 0.929 . S
C445 N410 1.421 . S
C445 C448 1.385 . S
C445 C449 1.371 . S
C446 C447 1.385 . S
C446 C450 1.401 . S
C446 H466 0.930 . S
C447 C446 1.385 . S
C447 C448 1.402 . S
C448 C445 1.385 . S
C448 C447 1.402 . S
C448 H467 0.929 . S
C449 C445 1.371 . S
C449 C450 1.367 . S
C449 H468 0.931 . S
C450 C446 1.401 . S
C450 C449 1.367 . S
H451 C405 0.931 . S
H452 C406 0.930 . S
H453 C407 0.929 . S
H454 C413 0.931 . S
H455 C414 0.930 . S
H456 C415 0.929 . S
H457 C427 0.928 . S
H458 C428 0.930 . S
H459 C430 0.930 . S
H460 C434 0.930 . S
H461 C436 0.930 . S
H462 C438 0.928 . S
H463 C440 0.931 . S
H464 C442 0.930 . S
H465 C444 0.929 . S
H466 C446 0.930 . S
H467 C448 0.929 . S
H468 C449 0.931 . S
C469 O470 1.201 . S
C469 C471 1.493 . S
C469 N486 1.318 . S
O470 C469 1.201 . S
C471 C469 1.493 . S
C471 C472 1.381 . S
C471 N476 1.335 1_554 S
C472 C471 1.381 . S
C472 C473 1.411 1_554 S
C472 H518 0.931 . S
C473 C472 1.411 1_556 S
C473 C474 1.384 . S
C473 H519 0.930 . S
C474 C473 1.384 . S
C474 C475 1.376 . S
C474 H520 0.929 . S
C475 C474 1.376 . S
C475 N476 1.330 . S
C475 C490 1.484 . S
N476 C471 1.335 1_556 S
N476 C475 1.330 . S
N476 Co478 1.859 . S
N477 Co478 1.962 1_554 S
N477 C488 1.318 . S
N477 C512 1.421 . S
Co478 N476 1.859 . S
Co478 N477 1.962 1_556 S
Co478 N479 1.859 . S
Co478 N485 1.958 . S
Co478 N486 1.962 1_556 S
Co478 N487 1.958 . S
N479 Co478 1.859 . S
N479 C483 1.330 . S
N479 C484 1.335 1_556 S
C480 C481 1.411 1_554 S
C480 C484 1.381 . S
C480 H521 0.931 . S
C481 C480 1.411 1_556 S
C481 C482 1.384 . S
C481 H522 0.930 . S
C482 C481 1.384 . S
C482 C483 1.376 . S
C482 H523 0.929 . S
C483 N479 1.330 . S
C483 C482 1.376 . S
C483 C498 1.484 . S
C484 N479 1.335 1_554 S
C484 C480 1.381 . S
C484 C488 1.493 . S
N485 Co478 1.958 . S
N485 C498 1.344 . S
N485 C500 1.425 . S
N486 C469 1.318 . S
N486 Co478 1.962 1_554 S
N486 C506 1.421 . S
N487 Co478 1.958 . S
N487 C490 1.344 . S
N487 C492 1.425 . S
C488 N477 1.318 . S
C488 C484 1.493 . S
C488 O489 1.201 . S
O489 C488 1.201 . S
C490 C475 1.484 . S
C490 N487 1.344 . S
C490 O491 1.268 . S
O491 C490 1.268 . S
C492 N487 1.425 . S
C492 C494 1.392 . S
C492 C495 1.368 . S
C493 C494 1.382 . S
C493 C497 1.386 . S
C494 C492 1.392 . S
C494 C493 1.382 . S
C494 H524 0.928 . S
C495 C492 1.368 . S
C495 C496 1.367 . S
C495 H525 0.930 . S
C496 C495 1.367 . S
C496 C497 1.369 . S
C497 C493 1.386 . S
C497 C496 1.369 . S
C497 H526 0.930 . S
C498 C483 1.484 . S
C498 N485 1.344 . S
C498 O499 1.268 . S
O499 C498 1.268 . S
C500 N485 1.425 . S
C500 C501 1.368 . S
C500 C505 1.392 . S
C501 C500 1.368 . S
C501 C502 1.367 . S
C501 H527 0.930 . S
C502 C501 1.367 . S
C502 C503 1.369 . S
C503 C502 1.369 . S
C503 C504 1.386 . S
C503 H528 0.930 . S
C504 C503 1.386 . S
C504 C505 1.382 . S
C505 C500 1.392 . S
C505 C504 1.382 . S
C505 H529 0.928 . S
C506 N486 1.421 . S
C506 C507 1.371 . S
C506 C511 1.385 . S
C507 C506 1.371 . S
C507 C508 1.367 . S
C507 H530 0.931 . S
C508 C507 1.367 . S
C508 C509 1.401 . S
C509 C508 1.401 . S
C509 C510 1.385 . S
C509 H531 0.930 . S
C510 C509 1.385 . S
C510 C511 1.402 . S
C511 C506 1.385 . S
C511 C510 1.402 . S
C511 H532 0.929 . S
C512 N477 1.421 . S
C512 C515 1.385 . S
C512 C516 1.371 . S
C513 C514 1.385 . S
C513 C517 1.401 . S
C513 H533 0.930 . S
C514 C513 1.385 . S
C514 C515 1.402 . S
C515 C512 1.385 . S
C515 C514 1.402 . S
C515 H534 0.929 . S
C516 C512 1.371 . S
C516 C517 1.367 . S
C516 H535 0.931 . S
C517 C513 1.401 . S
C517 C516 1.367 . S
H518 C472 0.931 . S
H519 C473 0.930 . S
H520 C474 0.929 . S
H521 C480 0.931 . S
H522 C481 0.930 . S
H523 C482 0.929 . S
H524 C494 0.928 . S
H525 C495 0.930 . S
H526 C497 0.930 . S
H527 C501 0.930 . S
H528 C503 0.930 . S
H529 C505 0.928 . S
H530 C507 0.931 . S
H531 C509 0.930 . S
H532 C511 0.929 . S
H533 C513 0.930 . S
H534 C515 0.929 . S
H535 C516 0.931 . S
H536 C554 0.951 . S
H537 C556 0.951 . S
H538 C558 0.950 1_565 S
H539 C559 0.950 1_565 S
H540 C561 0.950 . S
H541 C564 0.950 . S
H542 C565 0.950 . S
H543 C567 0.950 . S
H544 C568 0.950 . S
H545 C569 0.951 . S
H546 C571 0.951 . S
H547 C573 0.950 . S
H548 C574 0.950 . S
H549 C576 0.950 . S
H550 C579 0.950 . S
H551 C580 0.950 . S
H552 C582 0.950 . S
H553 C583 0.950 . S
C554 H536 0.951 . S
C554 C555 1.366 . S
C554 C556 1.388 . S
C555 C554 1.366 . S
C555 C559 1.385 . S
C556 H537 0.951 . S
C556 C554 1.388 . S
C556 C557 1.366 . S
C557 C556 1.366 . S
C557 C558 1.414 . S
C557 C560 1.499 . S
C558 H538 0.950 1_545 S
C558 C557 1.414 . S
C558 C559 1.374 . S
C559 H539 0.950 1_545 S
C559 C555 1.385 . S
C559 C558 1.374 . S
C560 C557 1.499 . S
C560 C561 1.373 . S
C560 C562 1.389 . S
C561 H540 0.950 . S
C561 C560 1.373 . S
C561 C577 1.377 . S
C562 C560 1.389 . S
C562 C563 1.524 . S
C562 C576 1.377 . S
C563 C562 1.524 . S
C563 C564 1.397 . S
C563 C568 1.363 . S
C564 H541 0.950 . S
C564 C563 1.397 . S
C564 C565 1.334 . S
C565 H542 0.950 . S
C565 C564 1.334 . S
C565 C566 1.287 . S
C566 C565 1.287 . S
C566 C567 1.524 . S
C566 H585 0.913 . S
C567 H543 0.950 . S
C567 C566 1.524 . S
C567 C568 1.415 . S
C568 H544 0.950 . S
C568 C563 1.363 . S
C568 C567 1.415 . S
C569 H545 0.951 . S
C569 C570 1.366 . S
C569 C571 1.388 . S
C570 C569 1.366 . S
C570 C574 1.385 . S
C571 H546 0.951 . S
C571 C569 1.388 . S
C571 C572 1.366 . S
C572 C571 1.366 . S
C572 C573 1.414 . S
C572 C575 1.499 . S
C573 H547 0.950 . S
C573 C572 1.414 . S
C573 C574 1.374 . S
C574 H548 0.950 . S
C574 C570 1.385 . S
C574 C573 1.374 . S
C575 C572 1.499 . S
C575 C576 1.373 . S
C575 C577 1.389 . S
C576 H549 0.950 . S
C576 C562 1.377 . S
C576 C575 1.373 . S
C577 C561 1.377 . S
C577 C575 1.389 . S
C577 C578 1.524 . S
C578 C577 1.524 . S
C578 C579 1.397 . S
C578 C583 1.363 1_545 S
C579 H550 0.950 . S
C579 C578 1.397 . S
C579 C580 1.334 . S
C580 H551 0.950 . S
C580 C579 1.334 . S
C580 C581 1.287 . S
C581 C580 1.287 . S
C581 C582 1.524 1_545 S
C581 H584 0.999 . S
C582 H552 0.950 . S
C582 C581 1.524 1_565 S
C582 C583 1.415 . S
C583 H553 0.950 . S
C583 C578 1.363 1_565 S
C583 C582 1.415 . S
H584 C581 0.999 . S
H585 C566 0.913 . S
H586 C604 0.951 . S
H587 C606 0.951 . S
H588 C608 0.950 . S
H589 C609 0.950 . S
H590 C611 0.950 . S
H591 C614 0.950 . S
H592 C615 0.950 . S
H593 C617 0.950 . S
H594 C618 0.950 . S
H595 C619 0.951 . S
H596 C621 0.951 . S
H597 C623 0.950 . S
H598 C624 0.950 . S
H599 C626 0.950 . S
H600 C629 0.950 . S
H601 C630 0.950 1_545 S
H602 C632 0.950 . S
H603 C633 0.950 . S
C604 H586 0.951 . S
C604 C605 1.366 . S
C604 C606 1.388 . S
C605 C604 1.366 . S
C605 C609 1.385 . S
C606 H587 0.951 . S
C606 C604 1.388 . S
C606 C607 1.366 . S
C607 C606 1.366 . S
C607 C608 1.414 . S
C607 C610 1.499 . S
C608 H588 0.950 . S
C608 C607 1.414 . S
C608 C609 1.374 . S
C609 H589 0.950 . S
C609 C605 1.385 . S
C609 C608 1.374 . S
C610 C607 1.499 . S
C610 C611 1.373 . S
C610 C612 1.389 . S
C611 H590 0.950 . S
C611 C610 1.373 . S
C611 C627 1.377 . S
C612 C610 1.389 . S
C612 C613 1.524 . S
C612 C626 1.377 . S
C613 C612 1.524 . S
C613 C614 1.397 . S
C613 C618 1.363 . S
C614 H591 0.950 . S
C614 C613 1.397 . S
C614 C615 1.334 . S
C615 H592 0.950 . S
C615 C614 1.334 . S
C615 C616 1.287 1_655 S
C616 C615 1.287 1_455 S
C616 C617 1.524 . S
C616 H635 0.913 . S
C617 H593 0.950 . S
C617 C616 1.524 . S
C617 C618 1.415 1_455 S
C618 H594 0.950 . S
C618 C613 1.363 . S
C618 C617 1.415 1_655 S
C619 H595 0.951 . S
C619 C620 1.366 . S
C619 C621 1.388 . S
C620 C619 1.366 . S
C620 C624 1.385 . S
C621 H596 0.951 . S
C621 C619 1.388 . S
C621 C622 1.366 . S
C622 C621 1.366 . S
C622 C623 1.414 . S
C622 C625 1.499 . S
C623 H597 0.950 . S
C623 C622 1.414 . S
C623 C624 1.374 . S
C624 H598 0.950 . S
C624 C620 1.385 . S
C624 C623 1.374 . S
C625 C622 1.499 . S
C625 C626 1.373 . S
C625 C627 1.389 . S
C626 H599 0.950 . S
C626 C612 1.377 . S
C626 C625 1.373 . S
C627 C611 1.377 . S
C627 C625 1.389 . S
C627 C628 1.524 . S
C628 C627 1.524 . S
C628 C629 1.397 . S
C628 C633 1.363 . S
C629 H600 0.950 . S
C629 C628 1.397 . S
C629 C630 1.334 . S
C630 H601 0.950 1_565 S
C630 C629 1.334 . S
C630 C631 1.287 . S
C631 C630 1.287 . S
C631 C632 1.524 . S
C631 H634 0.999 . S
C632 H602 0.950 . S
C632 C631 1.524 . S
C632 C633 1.415 . S
C633 H603 0.950 . S
C633 C628 1.363 . S
C633 C632 1.415 . S
H634 C631 0.999 . S
H635 C616 0.913 . S
H636 C654 0.951 . S
H637 C656 0.951 . S
H638 C658 0.950 . S
H639 C659 0.950 . S
H640 C661 0.950 . S
H641 C664 0.950 . S
H642 C665 0.950 . S
H643 C667 0.950 . S
H644 C668 0.950 . S
H645 C669 0.951 . S
H646 C671 0.951 . S
H647 C673 0.950 . S
H648 C674 0.950 . S
H649 C676 0.950 . S
H650 C679 0.950 . S
H651 C680 0.950 . S
H652 C682 0.950 1_655 S
H653 C683 0.950 . S
C654 H636 0.951 . S
C654 C655 1.366 . S
C654 C656 1.388 . S
C655 C654 1.366 . S
C655 C659 1.385 . S
C656 H637 0.951 . S
C656 C654 1.388 . S
C656 C657 1.366 . S
C657 C656 1.366 . S
C657 C658 1.414 . S
C657 C660 1.499 . S
C658 H638 0.950 . S
C658 C657 1.414 . S
C658 C659 1.374 . S
C659 H639 0.950 . S
C659 C655 1.385 . S
C659 C658 1.374 . S
C660 C657 1.499 . S
C660 C661 1.373 . S
C660 C662 1.389 . S
C661 H640 0.950 . S
C661 C660 1.373 . S
C661 C677 1.377 . S
C662 C660 1.389 . S
C662 C663 1.524 . S
C662 C676 1.377 . S
C663 C662 1.524 . S
C663 C664 1.397 . S
C663 C668 1.363 . S
C664 H641 0.950 . S
C664 C663 1.397 . S
C664 C665 1.334 . S
C665 H642 0.950 . S
C665 C664 1.334 . S
C665 C666 1.287 . S
C666 C665 1.287 . S
C666 C667 1.524 . S
C666 H685 0.913 . S
C667 H643 0.950 . S
C667 C666 1.524 . S
C667 C668 1.415 . S
C668 H644 0.950 . S
C668 C663 1.363 . S
C668 C667 1.415 . S
C669 H645 0.951 . S
C669 C670 1.366 . S
C669 C671 1.388 . S
C670 C669 1.366 . S
C670 C674 1.385 . S
C671 H646 0.951 . S
C671 C669 1.388 . S
C671 C672 1.366 . S
C672 C671 1.366 . S
C672 C673 1.414 . S
C672 C675 1.499 . S
C673 H647 0.950 . S
C673 C672 1.414 . S
C673 C674 1.374 . S
C674 H648 0.950 . S
C674 C670 1.385 . S
C674 C673 1.374 . S
C675 C672 1.499 . S
C675 C676 1.373 . S
C675 C677 1.389 . S
C676 H649 0.950 . S
C676 C662 1.377 . S
C676 C675 1.373 . S
C677 C661 1.377 . S
C677 C675 1.389 . S
C677 C678 1.524 . S
C678 C677 1.524 . S
C678 C679 1.397 . S
C678 C683 1.363 . S
C679 H650 0.950 . S
C679 C678 1.397 . S
C679 C680 1.334 . S
C680 H651 0.950 . S
C680 C679 1.334 . S
C680 C681 1.287 . S
C681 C680 1.287 . S
C681 C682 1.524 . S
C681 H684 0.999 . S
C682 H652 0.950 1_455 S
C682 C681 1.524 . S
C682 C683 1.415 . S
C683 H653 0.950 . S
C683 C678 1.363 . S
C683 C682 1.415 . S
H684 C681 0.999 . S
H685 C666 0.913 . S
H686 C704 0.951 . S
H687 C706 0.951 . S
H688 C708 0.950 . S
H689 C709 0.950 . S
H690 C711 0.950 . S
H691 C714 0.950 . S
H692 C715 0.950 . S
H693 C717 0.950 . S
H694 C718 0.950 . S
H695 C719 0.951 . S
H696 C721 0.951 . S
H697 C723 0.950 . S
H698 C724 0.950 . S
H699 C726 0.950 . S
H700 C729 0.950 . S
H701 C730 0.950 . S
H702 C732 0.950 . S
H703 C733 0.950 . S
C704 H686 0.951 . S
C704 C705 1.366 . S
C704 C706 1.388 . S
C705 C704 1.366 . S
C705 C709 1.385 . S
C706 H687 0.951 . S
C706 C704 1.388 . S
C706 C707 1.366 . S
C707 C706 1.366 . S
C707 C708 1.414 . S
C707 C710 1.499 . S
C708 H688 0.950 . S
C708 C707 1.414 . S
C708 C709 1.374 . S
C709 H689 0.950 . S
C709 C705 1.385 . S
C709 C708 1.374 . S
C710 C707 1.499 . S
C710 C711 1.373 . S
C710 C712 1.389 . S
C711 H690 0.950 . S
C711 C710 1.373 . S
C711 C727 1.377 . S
C712 C710 1.389 . S
C712 C713 1.524 . S
C712 C726 1.377 . S
C713 C712 1.524 . S
C713 C714 1.397 . S
C713 C718 1.363 . S
C714 H691 0.950 . S
C714 C713 1.397 . S
C714 C715 1.334 . S
C715 H692 0.950 . S
C715 C714 1.334 . S
C715 C716 1.287 . S
C716 C715 1.287 . S
C716 C717 1.524 . S
C716 H735 0.913 . S
C717 H693 0.950 . S
C717 C716 1.524 . S
C717 C718 1.415 . S
C718 H694 0.950 . S
C718 C713 1.363 . S
C718 C717 1.415 . S
C719 H695 0.951 . S
C719 C720 1.366 . S
C719 C721 1.388 . S
C720 C719 1.366 . S
C720 C724 1.385 . S
C721 H696 0.951 . S
C721 C719 1.388 . S
C721 C722 1.366 . S
C722 C721 1.366 . S
C722 C723 1.414 . S
C722 C725 1.499 . S
C723 H697 0.950 . S
C723 C722 1.414 . S
C723 C724 1.374 . S
C724 H698 0.950 . S
C724 C720 1.385 . S
C724 C723 1.374 . S
C725 C722 1.499 . S
C725 C726 1.373 . S
C725 C727 1.389 . S
C726 H699 0.950 . S
C726 C712 1.377 . S
C726 C725 1.373 . S
C727 C711 1.377 . S
C727 C725 1.389 . S
C727 C728 1.524 . S
C728 C727 1.524 . S
C728 C729 1.397 . S
C728 C733 1.363 . S
C729 H700 0.950 . S
C729 C728 1.397 . S
C729 C730 1.334 . S
C730 H701 0.950 . S
C730 C729 1.334 . S
C730 C731 1.287 . S
C731 C730 1.287 . S
C731 C732 1.524 . S
C731 H734 0.999 . S
C732 H702 0.950 . S
C732 C731 1.524 . S
C732 C733 1.415 . S
C733 H703 0.950 . S
C733 C728 1.363 . S
C733 C732 1.415 . S
H734 C731 0.999 . S
H735 C716 0.913 . S
H736 C754 0.951 . S
H737 C756 0.951 . S
H738 C758 0.950 . S
H739 C759 0.950 . S
H740 C761 0.950 . S
H741 C764 0.950 . S
H742 C765 0.950 . S
H743 C767 0.950 . S
H744 C768 0.950 . S
H745 C769 0.951 . S
H746 C771 0.951 . S
H747 C773 0.950 . S
H748 C774 0.950 . S
H749 C776 0.950 . S
H750 C779 0.950 . S
H751 C780 0.950 . S
H752 C782 0.950 . S
H753 C783 0.950 . S
C754 H736 0.951 . S
C754 C755 1.366 . S
C754 C756 1.388 . S
C755 C754 1.366 . S
C755 C759 1.385 . S
C756 H737 0.951 . S
C756 C754 1.388 . S
C756 C757 1.366 . S
C757 C756 1.366 . S
C757 C758 1.414 . S
C757 C760 1.499 . S
C758 H738 0.950 . S
C758 C757 1.414 . S
C758 C759 1.374 . S
C759 H739 0.950 . S
C759 C755 1.385 . S
C759 C758 1.374 . S
C760 C757 1.499 . S
C760 C761 1.373 . S
C760 C762 1.389 . S
C761 H740 0.950 . S
C761 C760 1.373 . S
C761 C777 1.377 . S
C762 C760 1.389 . S
C762 C763 1.524 . S
C762 C776 1.377 . S
C763 C762 1.524 . S
C763 C764 1.397 . S
C763 C768 1.363 . S
C764 H741 0.950 . S
C764 C763 1.397 . S
C764 C765 1.334 . S
C765 H742 0.950 . S
C765 C764 1.334 . S
C765 C766 1.287 . S
C766 C765 1.287 . S
C766 C767 1.524 . S
C766 H785 0.913 . S
C767 H743 0.950 . S
C767 C766 1.524 . S
C767 C768 1.415 . S
C768 H744 0.950 . S
C768 C763 1.363 . S
C768 C767 1.415 . S
C769 H745 0.951 . S
C769 C770 1.366 . S
C769 C771 1.388 . S
C770 C769 1.366 . S
C770 C774 1.385 . S
C771 H746 0.951 . S
C771 C769 1.388 . S
C771 C772 1.366 . S
C772 C771 1.366 . S
C772 C773 1.414 . S
C772 C775 1.499 . S
C773 H747 0.950 . S
C773 C772 1.414 . S
C773 C774 1.374 . S
C774 H748 0.950 . S
C774 C770 1.385 . S
C774 C773 1.374 . S
C775 C772 1.499 . S
C775 C776 1.373 . S
C775 C777 1.389 . S
C776 H749 0.950 . S
C776 C762 1.377 . S
C776 C775 1.373 . S
C777 C761 1.377 . S
C777 C775 1.389 . S
C777 C778 1.524 . S
C778 C777 1.524 . S
C778 C779 1.397 . S
C778 C783 1.363 . S
C779 H750 0.950 . S
C779 C778 1.397 . S
C779 C780 1.334 . S
C780 H751 0.950 . S
C780 C779 1.334 . S
C780 C781 1.287 . S
C781 C780 1.287 . S
C781 C782 1.524 . S
C781 H784 0.999 . S
C782 H752 0.950 . S
C782 C781 1.524 . S
C782 C783 1.415 . S
C783 H753 0.950 . S
C783 C778 1.363 . S
C783 C782 1.415 . S
H784 C781 0.999 . S
H785 C766 0.913 . S
H786 C804 0.951 . S
H787 C806 0.951 . S
H788 C808 0.950 . S
H789 C809 0.950 . S
H790 C811 0.950 . S
H791 C814 0.950 . S
H792 C815 0.950 . S
H793 C817 0.950 . S
H794 C818 0.950 . S
H795 C819 0.951 . S
H796 C821 0.951 . S
H797 C823 0.950 . S
H798 C824 0.950 . S
H799 C826 0.950 . S
H800 C829 0.950 . S
H801 C830 0.950 . S
H802 C832 0.950 . S
H803 C833 0.950 . S
C804 H786 0.951 . S
C804 C805 1.366 . S
C804 C806 1.388 . S
C805 C804 1.366 . S
C805 C809 1.385 . S
C806 H787 0.951 . S
C806 C804 1.388 . S
C806 C807 1.366 . S
C807 C806 1.366 . S
C807 C808 1.414 . S
C807 C810 1.499 . S
C808 H788 0.950 . S
C808 C807 1.414 . S
C808 C809 1.374 . S
C809 H789 0.950 . S
C809 C805 1.385 . S
C809 C808 1.374 . S
C810 C807 1.499 . S
C810 C811 1.373 . S
C810 C812 1.389 . S
C811 H790 0.950 . S
C811 C810 1.373 . S
C811 C827 1.377 . S
C812 C810 1.389 . S
C812 C813 1.524 . S
C812 C826 1.377 . S
C813 C812 1.524 . S
C813 C814 1.397 . S
C813 C818 1.363 . S
C814 H791 0.950 . S
C814 C813 1.397 . S
C814 C815 1.334 . S
C815 H792 0.950 . S
C815 C814 1.334 . S
C815 C816 1.287 . S
C816 C815 1.287 . S
C816 C817 1.524 . S
C816 H835 0.913 . S
C817 H793 0.950 . S
C817 C816 1.524 . S
C817 C818 1.415 . S
C818 H794 0.950 . S
C818 C813 1.363 . S
C818 C817 1.415 . S
C819 H795 0.951 . S
C819 C820 1.366 . S
C819 C821 1.388 . S
C820 C819 1.366 . S
C820 C824 1.385 . S
C821 H796 0.951 . S
C821 C819 1.388 . S
C821 C822 1.366 . S
C822 C821 1.366 . S
C822 C823 1.414 . S
C822 C825 1.499 . S
C823 H797 0.950 . S
C823 C822 1.414 . S
C823 C824 1.374 . S
C824 H798 0.950 . S
C824 C820 1.385 . S
C824 C823 1.374 . S
C825 C822 1.499 . S
C825 C826 1.373 . S
C825 C827 1.389 . S
C826 H799 0.950 . S
C826 C812 1.377 . S
C826 C825 1.373 . S
C827 C811 1.377 . S
C827 C825 1.389 . S
C827 C828 1.524 . S
C828 C827 1.524 . S
C828 C829 1.397 . S
C828 C833 1.363 . S
C829 H800 0.950 . S
C829 C828 1.397 . S
C829 C830 1.334 . S
C830 H801 0.950 . S
C830 C829 1.334 . S
C830 C831 1.287 . S
C831 C830 1.287 . S
C831 C832 1.524 . S
C831 H834 0.999 . S
C832 H802 0.950 . S
C832 C831 1.524 . S
C832 C833 1.415 . S
C833 H803 0.950 . S
C833 C828 1.363 . S
C833 C832 1.415 . S
H834 C831 0.999 . S
H835 C816 0.913 . S
H836 C854 0.951 . S
H837 C856 0.951 . S
H838 C858 0.950 . S
H839 C859 0.950 . S
H840 C861 0.950 . S
H841 C864 0.950 . S
H842 C865 0.950 . S
H843 C867 0.950 . S
H844 C868 0.950 . S
H845 C869 0.951 . S
H846 C871 0.951 . S
H847 C873 0.950 . S
H848 C874 0.950 . S
H849 C876 0.950 . S
H850 C879 0.950 . S
H851 C880 0.950 . S
H852 C882 0.950 . S
H853 C883 0.950 . S
C854 H836 0.951 . S
C854 C855 1.366 . S
C854 C856 1.388 . S
C855 C854 1.366 . S
C855 C859 1.385 . S
C856 H837 0.951 . S
C856 C854 1.388 . S
C856 C857 1.366 . S
C857 C856 1.366 . S
C857 C858 1.414 . S
C857 C860 1.499 . S
C858 H838 0.950 . S
C858 C857 1.414 . S
C858 C859 1.374 . S
C859 H839 0.950 . S
C859 C855 1.385 . S
C859 C858 1.374 . S
C860 C857 1.499 . S
C860 C861 1.373 . S
C860 C862 1.389 . S
C861 H840 0.950 . S
C861 C860 1.373 . S
C861 C877 1.377 . S
C862 C860 1.389 . S
C862 C863 1.524 . S
C862 C876 1.377 . S
C863 C862 1.524 . S
C863 C864 1.397 . S
C863 C868 1.363 . S
C864 H841 0.950 . S
C864 C863 1.397 . S
C864 C865 1.334 . S
C865 H842 0.950 . S
C865 C864 1.334 . S
C865 C866 1.287 . S
C866 C865 1.287 . S
C866 C867 1.524 . S
C866 H885 0.913 . S
C867 H843 0.950 . S
C867 C866 1.524 . S
C867 C868 1.415 . S
C868 H844 0.950 . S
C868 C863 1.363 . S
C868 C867 1.415 . S
C869 H845 0.951 . S
C869 C870 1.366 . S
C869 C871 1.388 . S
C870 C869 1.366 . S
C870 C874 1.385 . S
C871 H846 0.951 . S
C871 C869 1.388 . S
C871 C872 1.366 . S
C872 C871 1.366 . S
C872 C873 1.414 . S
C872 C875 1.499 . S
C873 H847 0.950 . S
C873 C872 1.414 . S
C873 C874 1.374 . S
C874 H848 0.950 . S
C874 C870 1.385 . S
C874 C873 1.374 . S
C875 C872 1.499 . S
C875 C876 1.373 . S
C875 C877 1.389 . S
C876 H849 0.950 . S
C876 C862 1.377 . S
C876 C875 1.373 . S
C877 C861 1.377 . S
C877 C875 1.389 . S
C877 C878 1.524 . S
C878 C877 1.524 . S
C878 C879 1.397 . S
C878 C883 1.363 . S
C879 H850 0.950 . S
C879 C878 1.397 . S
C879 C880 1.334 . S
C880 H851 0.950 . S
C880 C879 1.334 . S
C880 C881 1.287 1_455 S
C881 C880 1.287 1_655 S
C881 C882 1.524 . S
C881 H884 0.999 . S
C882 H852 0.950 . S
C882 C881 1.524 . S
C882 C883 1.415 1_655 S
C883 H853 0.950 . S
C883 C878 1.363 . S
C883 C882 1.415 1_455 S
H884 C881 0.999 . S
H885 C866 0.913 . S
H886 C904 0.951 . S
H887 C906 0.951 . S
H888 C908 0.950 . S
H889 C909 0.950 . S
H890 C911 0.950 . S
H891 C914 0.950 . S
H892 C915 0.955 . S
H893 C917 0.950 . S
H894 C918 0.950 . S
H895 C919 0.951 . S
H896 C921 0.951 . S
H897 C923 0.950 . S
H898 C924 0.950 . S
H899 C926 0.950 . S
H900 C929 0.950 . S
H901 C930 0.950 . S
H902 C932 0.950 . S
H903 C933 0.950 . S
C904 H886 0.951 . S
C904 C905 1.366 . S
C904 C906 1.388 . S
C905 C904 1.366 . S
C905 C909 1.385 . S
C906 H887 0.951 . S
C906 C904 1.388 . S
C906 C907 1.366 . S
C907 C906 1.366 . S
C907 C908 1.414 . S
C907 C910 1.499 . S
C908 H888 0.950 . S
C908 C907 1.414 . S
C908 C909 1.374 . S
C909 H889 0.950 . S
C909 C905 1.385 . S
C909 C908 1.374 . S
C910 C907 1.499 . S
C910 C911 1.373 . S
C910 C912 1.389 . S
C911 H890 0.950 . S
C911 C910 1.373 . S
C911 C927 1.377 . S
C912 C910 1.389 . S
C912 C913 1.524 . S
C912 C926 1.377 . S
C913 C912 1.524 . S
C913 C914 1.397 . S
C913 C918 1.363 . S
C914 H891 0.950 . S
C914 C913 1.397 . S
C914 C915 1.321 1_545 S
C915 H892 0.955 . S
C915 C914 1.321 1_565 S
C915 C916 1.295 . S
C916 C915 1.295 . S
C916 C917 1.524 . S
C916 H935 0.913 . S
C917 H893 0.950 . S
C917 C916 1.524 . S
C917 C918 1.415 1_565 S
C918 H894 0.950 . S
C918 C913 1.363 . S
C918 C917 1.415 1_545 S
C919 H895 0.951 . S
C919 C920 1.366 . S
C919 C921 1.388 . S
C920 C919 1.366 . S
C920 C924 1.385 . S
C921 H896 0.951 . S
C921 C919 1.388 . S
C921 C922 1.366 . S
C922 C921 1.366 . S
C922 C923 1.414 . S
C922 C925 1.499 . S
C923 H897 0.950 . S
C923 C922 1.414 . S
C923 C924 1.374 . S
C924 H898 0.950 . S
C924 C920 1.385 . S
C924 C923 1.374 . S
C925 C922 1.499 . S
C925 C926 1.373 . S
C925 C927 1.389 . S
C926 H899 0.950 . S
C926 C912 1.377 . S
C926 C925 1.373 . S
C927 C911 1.377 . S
C927 C925 1.389 . S
C927 C928 1.524 . S
C928 C927 1.524 . S
C928 C929 1.397 . S
C928 C933 1.363 . S
C929 H900 0.950 . S
C929 C928 1.397 . S
C929 C930 1.334 . S
C930 H901 0.950 . S
C930 C929 1.334 . S
C930 C931 1.287 . S
C931 C930 1.287 . S
C931 C932 1.524 . S
C931 H934 0.999 . S
C932 H902 0.950 . S
C932 C931 1.524 . S
C932 C933 1.415 . S
C933 H903 0.950 . S
C933 C928 1.363 . S
C933 C932 1.415 . S
H934 C931 0.999 . S
H935 C916 0.913 . S
H936 C954 0.951 . S
H937 C956 0.951 . S
H938 C958 0.950 . S
H939 C959 0.950 . S
H940 C961 0.950 . S
H941 C964 0.956 . S
H942 C965 0.950 . S
H943 C967 0.950 . S
H944 C968 0.950 . S
H945 C969 0.951 . S
H946 C971 0.951 . S
H947 C973 0.950 . S
H948 C974 0.950 . S
H949 C976 0.950 . S
H950 C979 0.950 . S
H951 C980 0.950 . S
H952 C982 0.950 . S
H953 C983 0.950 . S
C954 H936 0.951 . S
C954 C955 1.366 . S
C954 C956 1.388 . S
C955 C954 1.366 . S
C955 C959 1.385 . S
C956 H937 0.951 . S
C956 C954 1.388 . S
C956 C957 1.366 . S
C957 C956 1.366 . S
C957 C958 1.414 . S
C957 C960 1.499 . S
C958 H938 0.950 . S
C958 C957 1.414 . S
C958 C959 1.374 . S
C959 H939 0.950 . S
C959 C955 1.385 . S
C959 C958 1.374 . S
C960 C957 1.499 . S
C960 C961 1.373 . S
C960 C962 1.389 . S
C961 H940 0.950 . S
C961 C960 1.373 . S
C961 C977 1.377 . S
C962 C960 1.389 . S
C962 C963 1.524 . S
C962 C976 1.377 . S
C963 C962 1.524 . S
C963 C964 1.397 1_545 S
C963 C968 1.363 1_545 S
C964 H941 0.956 . S
C964 C963 1.397 1_565 S
C964 C965 1.334 . S
C965 H942 0.950 . S
C965 C964 1.334 . S
C965 C966 1.287 . S
C966 C965 1.287 . S
C966 C967 1.524 . S
C966 H985 0.913 . S
C967 H943 0.950 . S
C967 C966 1.524 . S
C967 C968 1.415 . S
C968 H944 0.950 . S
C968 C963 1.363 1_565 S
C968 C967 1.415 . S
C969 H945 0.951 . S
C969 C970 1.366 . S
C969 C971 1.388 . S
C970 C969 1.366 . S
C970 C974 1.385 . S
C971 H946 0.951 . S
C971 C969 1.388 . S
C971 C972 1.366 . S
C972 C971 1.366 . S
C972 C973 1.414 . S
C972 C975 1.499 . S
C973 H947 0.950 . S
C973 C972 1.414 . S
C973 C974 1.374 . S
C974 H948 0.950 . S
C974 C970 1.385 . S
C974 C973 1.374 . S
C975 C972 1.499 . S
C975 C976 1.373 . S
C975 C977 1.389 . S
C976 H949 0.950 . S
C976 C962 1.377 . S
C976 C975 1.373 . S
C977 C961 1.377 . S
C977 C975 1.389 . S
C977 C978 1.524 . S
C978 C977 1.524 . S
C978 C979 1.397 . S
C978 C983 1.363 . S
C979 H950 0.950 . S
C979 C978 1.397 . S
C979 C980 1.334 . S
C980 H951 0.950 . S
C980 C979 1.334 . S
C980 C981 1.287 . S
C981 C980 1.287 . S
C981 C982 1.524 . S
C981 H984 0.999 . S
C982 H952 0.950 . S
C982 C981 1.524 . S
C982 C983 1.415 . S
C983 H953 0.950 . S
C983 C978 1.363 . S
C983 C982 1.415 . S
H984 C981 0.999 . S
H985 C966 0.913 . S
H986 C1004 0.951 . S
H987 C1006 0.951 . S
H988 C1008 0.950 . S
H989 C1009 0.950 . S
H990 C1011 0.950 . S
H991 C1014 0.950 . S
H992 C1015 0.950 . S
H993 C1017 0.950 . S
H994 C1018 0.950 . S
H995 C1019 0.951 . S
H996 C1021 0.951 . S
H997 C1023 0.950 . S
H998 C1024 0.950 . S
H999 C1026 0.950 . S
H1000 C1029 0.950 . S
H1001 C1030 0.950 . S
H1002 C1032 0.950 . S
H1003 C1033 0.950 . S
C1004 H986 0.951 . S
C1004 C1005 1.366 . S
C1004 C1006 1.388 . S
C1005 C1004 1.366 . S
C1005 C1009 1.385 . S
C1006 H987 0.951 . S
C1006 C1004 1.388 . S
C1006 C1007 1.366 . S
C1007 C1006 1.366 . S
C1007 C1008 1.414 . S
C1007 C1010 1.499 . S
C1008 H988 0.950 . S
C1008 C1007 1.414 . S
C1008 C1009 1.374 . S
C1009 H989 0.950 . S
C1009 C1005 1.385 . S
C1009 C1008 1.374 . S
C1010 C1007 1.499 . S
C1010 C1011 1.373 . S
C1010 C1012 1.389 . S
C1011 H990 0.950 . S
C1011 C1010 1.373 . S
C1011 C1027 1.377 . S
C1012 C1010 1.389 . S
C1012 C1013 1.524 . S
C1012 C1026 1.377 . S
C1013 C1012 1.524 . S
C1013 C1014 1.397 1_565 S
C1013 C1018 1.363 . S
C1014 H991 0.950 . S
C1014 C1013 1.397 1_545 S
C1014 C1015 1.334 . S
C1015 H992 0.950 . S
C1015 C1014 1.334 . S
C1015 C1016 1.287 . S
C1016 C1015 1.287 . S
C1016 C1017 1.524 1_545 S
C1016 H1035 0.913 . S
C1017 H993 0.950 . S
C1017 C1016 1.524 1_565 S
C1017 C1018 1.415 . S
C1018 H994 0.950 . S
C1018 C1013 1.363 . S
C1018 C1017 1.415 . S
C1019 H995 0.951 . S
C1019 C1020 1.366 . S
C1019 C1021 1.388 . S
C1020 C1019 1.366 . S
C1020 C1024 1.385 . S
C1021 H996 0.951 . S
C1021 C1019 1.388 . S
C1021 C1022 1.366 . S
C1022 C1021 1.366 . S
C1022 C1023 1.414 . S
C1022 C1025 1.499 . S
C1023 H997 0.950 . S
C1023 C1022 1.414 . S
C1023 C1024 1.374 . S
C1024 H998 0.950 . S
C1024 C1020 1.385 . S
C1024 C1023 1.374 . S
C1025 C1022 1.499 . S
C1025 C1026 1.373 . S
C1025 C1027 1.389 . S
C1026 H999 0.950 . S
C1026 C1012 1.377 . S
C1026 C1025 1.373 . S
C1027 C1011 1.377 . S
C1027 C1025 1.389 . S
C1027 C1028 1.524 . S
C1028 C1027 1.524 . S
C1028 C1029 1.397 . S
C1028 C1033 1.363 . S
C1029 H1000 0.950 . S
C1029 C1028 1.397 . S
C1029 C1030 1.334 . S
C1030 H1001 0.950 . S
C1030 C1029 1.334 . S
C1030 C1031 1.287 . S
C1031 C1030 1.287 . S
C1031 C1032 1.524 . S
C1031 H1034 0.999 . S
C1032 H1002 0.950 . S
C1032 C1031 1.524 . S
C1032 C1033 1.415 . S
C1033 H1003 0.950 . S
C1033 C1028 1.363 . S
C1033 C1032 1.415 . S
H1034 C1031 0.999 . S
H1035 C1016 0.913 . S
H1036 C1054 0.951 . S
H1037 C1056 0.951 . S
H1038 C1058 0.950 . S
H1039 C1059 0.950 . S
H1040 C1061 0.950 . S
H1041 C1064 0.950 . S
H1042 C1065 0.950 . S
H1043 C1067 0.950 . S
H1044 C1068 0.950 . S
H1045 C1069 0.951 . S
H1046 C1071 0.951 . S
H1047 C1073 0.950 . S
H1048 C1074 0.950 . S
H1049 C1076 0.950 . S
H1050 C1079 0.950 . S
H1051 C1080 0.950 . S
H1052 C1082 0.950 . S
H1053 C1083 0.950 . S
C1054 H1036 0.951 . S
C1054 C1055 1.366 . S
C1054 C1056 1.388 . S
C1055 C1054 1.366 . S
C1055 C1059 1.385 . S
C1056 H1037 0.951 . S
C1056 C1054 1.388 . S
C1056 C1057 1.366 . S
C1057 C1056 1.366 . S
C1057 C1058 1.414 . S
C1057 C1060 1.499 . S
C1058 H1038 0.950 . S
C1058 C1057 1.414 . S
C1058 C1059 1.374 . S
C1059 H1039 0.950 . S
C1059 C1055 1.385 . S
C1059 C1058 1.374 . S
C1060 C1057 1.499 . S
C1060 C1061 1.373 . S
C1060 C1062 1.389 . S
C1061 H1040 0.950 . S
C1061 C1060 1.373 . S
C1061 C1077 1.377 . S
C1062 C1060 1.389 . S
C1062 C1063 1.524 . S
C1062 C1076 1.377 . S
C1063 C1062 1.524 . S
C1063 C1064 1.397 . S
C1063 C1068 1.363 . S
C1064 H1041 0.950 . S
C1064 C1063 1.397 . S
C1064 C1065 1.334 . S
C1065 H1042 0.950 . S
C1065 C1064 1.334 . S
C1065 C1066 1.287 . S
C1066 C1065 1.287 . S
C1066 C1067 1.524 . S
C1066 H1085 0.913 . S
C1067 H1043 0.950 . S
C1067 C1066 1.524 . S
C1067 C1068 1.415 . S
C1068 H1044 0.950 . S
C1068 C1063 1.363 . S
C1068 C1067 1.415 . S
C1069 H1045 0.951 . S
C1069 C1070 1.366 . S
C1069 C1071 1.388 . S
C1070 C1069 1.366 . S
C1070 C1074 1.385 . S
C1071 H1046 0.951 . S
C1071 C1069 1.388 . S
C1071 C1072 1.366 . S
C1072 C1071 1.366 . S
C1072 C1073 1.414 . S
C1072 C1075 1.499 . S
C1073 H1047 0.950 . S
C1073 C1072 1.414 . S
C1073 C1074 1.374 . S
C1074 H1048 0.950 . S
C1074 C1070 1.385 . S
C1074 C1073 1.374 . S
C1075 C1072 1.499 . S
C1075 C1076 1.373 . S
C1075 C1077 1.389 . S
C1076 H1049 0.950 . S
C1076 C1062 1.377 . S
C1076 C1075 1.373 . S
C1077 C1061 1.377 . S
C1077 C1075 1.389 . S
C1077 C1078 1.524 . S
C1078 C1077 1.524 . S
C1078 C1079 1.397 . S
C1078 C1083 1.363 . S
C1079 H1050 0.950 . S
C1079 C1078 1.397 . S
C1079 C1080 1.334 . S
C1080 H1051 0.950 . S
C1080 C1079 1.334 . S
C1080 C1081 1.287 . S
C1081 C1080 1.287 . S
C1081 C1082 1.524 . S
C1081 H1084 0.999 . S
C1082 H1052 0.950 . S
C1082 C1081 1.524 . S
C1082 C1083 1.415 . S
C1083 H1053 0.950 . S
C1083 C1078 1.363 . S
C1083 C1082 1.415 . S
H1084 C1081 0.999 . S
H1085 C1066 0.913 . S
H1086 C1104 0.951 . S
H1087 C1106 0.951 . S
H1088 C1108 0.950 . S
H1089 C1109 0.950 . S
H1090 C1111 0.950 . S
H1091 C1114 0.950 . S
H1092 C1115 0.950 . S
H1093 C1117 0.950 . S
H1094 C1118 0.950 . S
H1095 C1119 0.951 . S
H1096 C1121 0.951 . S
H1097 C1123 0.950 . S
H1098 C1124 0.950 . S
H1099 C1126 0.950 . S
H1100 C1129 0.950 . S
H1101 C1130 0.950 . S
H1102 C1132 0.950 . S
H1103 C1133 0.950 . S
C1104 H1086 0.951 . S
C1104 C1105 1.366 . S
C1104 C1106 1.388 . S
C1105 C1104 1.366 . S
C1105 C1109 1.385 . S
C1106 H1087 0.951 . S
C1106 C1104 1.388 . S
C1106 C1107 1.366 . S
C1107 C1106 1.366 . S
C1107 C1108 1.414 . S
C1107 C1110 1.499 . S
C1108 H1088 0.950 . S
C1108 C1107 1.414 . S
C1108 C1109 1.374 . S
C1109 H1089 0.950 . S
C1109 C1105 1.385 . S
C1109 C1108 1.374 . S
C1110 C1107 1.499 . S
C1110 C1111 1.373 . S
C1110 C1112 1.389 . S
C1111 H1090 0.950 . S
C1111 C1110 1.373 . S
C1111 C1127 1.377 . S
C1112 C1110 1.389 . S
C1112 C1113 1.524 . S
C1112 C1126 1.377 . S
C1113 C1112 1.524 . S
C1113 C1114 1.397 . S
C1113 C1118 1.363 . S
C1114 H1091 0.950 . S
C1114 C1113 1.397 . S
C1114 C1115 1.334 . S
C1115 H1092 0.950 . S
C1115 C1114 1.334 . S
C1115 C1116 1.287 . S
C1116 C1115 1.287 . S
C1116 C1117 1.524 . S
C1116 H1135 0.913 . S
C1117 H1093 0.950 . S
C1117 C1116 1.524 . S
C1117 C1118 1.415 . S
C1118 H1094 0.950 . S
C1118 C1113 1.363 . S
C1118 C1117 1.415 . S
C1119 H1095 0.951 . S
C1119 C1120 1.366 . S
C1119 C1121 1.388 . S
C1120 C1119 1.366 . S
C1120 C1124 1.385 . S
C1121 H1096 0.951 . S
C1121 C1119 1.388 . S
C1121 C1122 1.366 . S
C1122 C1121 1.366 . S
C1122 C1123 1.414 . S
C1122 C1125 1.499 . S
C1123 H1097 0.950 . S
C1123 C1122 1.414 . S
C1123 C1124 1.374 . S
C1124 H1098 0.950 . S
C1124 C1120 1.385 . S
C1124 C1123 1.374 . S
C1125 C1122 1.499 . S
C1125 C1126 1.373 . S
C1125 C1127 1.389 . S
C1126 H1099 0.950 . S
C1126 C1112 1.377 . S
C1126 C1125 1.373 . S
C1127 C1111 1.377 . S
C1127 C1125 1.389 . S
C1127 C1128 1.524 . S
C1128 C1127 1.524 . S
C1128 C1129 1.397 . S
C1128 C1133 1.363 . S
C1129 H1100 0.950 . S
C1129 C1128 1.397 . S
C1129 C1130 1.334 . S
C1130 H1101 0.950 . S
C1130 C1129 1.334 . S
C1130 C1131 1.287 . S
C1131 C1130 1.287 . S
C1131 C1132 1.524 . S
C1131 H1134 0.999 . S
C1132 H1102 0.950 . S
C1132 C1131 1.524 . S
C1132 C1133 1.415 . S
C1133 H1103 0.950 . S
C1133 C1128 1.363 . S
C1133 C1132 1.415 . S
H1134 C1131 0.999 . S
H1135 C1116 0.913 . S
H1136 C1154 0.951 . S
H1137 C1156 0.951 . S
H1138 C1158 0.950 . S
H1139 C1159 0.950 . S
H1140 C1161 0.950 . S
H1141 C1164 0.950 . S
H1142 C1165 0.950 . S
H1143 C1167 0.950 . S
H1144 C1168 0.950 . S
H1145 C1169 0.951 . S
H1146 C1171 0.951 . S
H1147 C1173 0.950 . S
H1148 C1174 0.950 . S
H1149 C1176 0.950 . S
H1150 C1179 0.950 . S
H1151 C1180 0.950 . S
H1152 C1182 0.950 . S
H1153 C1183 0.950 . S
C1154 H1136 0.951 . S
C1154 C1155 1.366 . S
C1154 C1156 1.388 . S
C1155 C1154 1.366 . S
C1155 C1159 1.385 . S
C1156 H1137 0.951 . S
C1156 C1154 1.388 . S
C1156 C1157 1.366 . S
C1157 C1156 1.366 . S
C1157 C1158 1.414 . S
C1157 C1160 1.499 . S
C1158 H1138 0.950 . S
C1158 C1157 1.414 . S
C1158 C1159 1.374 . S
C1159 H1139 0.950 . S
C1159 C1155 1.385 . S
C1159 C1158 1.374 . S
C1160 C1157 1.499 . S
C1160 C1161 1.373 . S
C1160 C1162 1.389 . S
C1161 H1140 0.950 . S
C1161 C1160 1.373 . S
C1161 C1177 1.377 . S
C1162 C1160 1.389 . S
C1162 C1163 1.524 . S
C1162 C1176 1.377 . S
C1163 C1162 1.524 . S
C1163 C1164 1.397 . S
C1163 C1168 1.363 . S
C1164 H1141 0.950 . S
C1164 C1163 1.397 . S
C1164 C1165 1.334 . S
C1165 H1142 0.950 . S
C1165 C1164 1.334 . S
C1165 C1166 1.287 . S
C1166 C1165 1.287 . S
C1166 C1167 1.524 . S
C1166 H1185 0.913 . S
C1167 H1143 0.950 . S
C1167 C1166 1.524 . S
C1167 C1168 1.415 . S
C1168 H1144 0.950 . S
C1168 C1163 1.363 . S
C1168 C1167 1.415 . S
C1169 H1145 0.951 . S
C1169 C1170 1.366 . S
C1169 C1171 1.388 . S
C1170 C1169 1.366 . S
C1170 C1174 1.385 . S
C1171 H1146 0.951 . S
C1171 C1169 1.388 . S
C1171 C1172 1.366 . S
C1172 C1171 1.366 . S
C1172 C1173 1.414 . S
C1172 C1175 1.499 . S
C1173 H1147 0.950 . S
C1173 C1172 1.414 . S
C1173 C1174 1.374 . S
C1174 H1148 0.950 . S
C1174 C1170 1.385 . S
C1174 C1173 1.374 . S
C1175 C1172 1.499 . S
C1175 C1176 1.373 . S
C1175 C1177 1.389 . S
C1176 H1149 0.950 . S
C1176 C1162 1.377 . S
C1176 C1175 1.373 . S
C1177 C1161 1.377 . S
C1177 C1175 1.389 . S
C1177 C1178 1.524 . S
C1178 C1177 1.524 . S
C1178 C1179 1.397 . S
C1178 C1183 1.363 . S
C1179 H1150 0.950 . S
C1179 C1178 1.397 . S
C1179 C1180 1.334 . S
C1180 H1151 0.950 . S
C1180 C1179 1.334 . S
C1180 C1181 1.287 . S
C1181 C1180 1.287 . S
C1181 C1182 1.524 . S
C1181 H1184 0.999 . S
C1182 H1152 0.950 . S
C1182 C1181 1.524 . S
C1182 C1183 1.415 . S
C1183 H1153 0.950 . S
C1183 C1178 1.363 . S
C1183 C1182 1.415 . S
H1184 C1181 0.999 . S
H1185 C1166 0.913 . S
H1186 C1204 0.951 . S
H1187 C1206 0.951 . S
H1188 C1208 0.950 . S
H1189 C1209 0.950 . S
H1190 C1211 0.950 . S
H1191 C1214 0.950 . S
H1192 C1215 0.950 . S
H1193 C1217 0.950 . S
H1194 C1218 0.950 . S
H1195 C1219 0.951 . S
H1196 C1221 0.951 . S
H1197 C1223 0.950 . S
H1198 C1224 0.950 . S
H1199 C1226 0.950 . S
H1200 C1229 0.950 . S
H1201 C1230 0.950 . S
H1202 C1232 0.950 . S
H1203 C1233 0.950 . S
C1204 H1186 0.951 . S
C1204 C1205 1.366 . S
C1204 C1206 1.388 . S
C1205 C1204 1.366 . S
C1205 C1209 1.385 . S
C1206 H1187 0.951 . S
C1206 C1204 1.388 . S
C1206 C1207 1.366 . S
C1207 C1206 1.366 . S
C1207 C1208 1.414 . S
C1207 C1210 1.499 . S
C1208 H1188 0.950 . S
C1208 C1207 1.414 . S
C1208 C1209 1.374 . S
C1209 H1189 0.950 . S
C1209 C1205 1.385 . S
C1209 C1208 1.374 . S
C1210 C1207 1.499 . S
C1210 C1211 1.373 . S
C1210 C1212 1.389 . S
C1211 H1190 0.950 . S
C1211 C1210 1.373 . S
C1211 C1227 1.377 . S
C1212 C1210 1.389 . S
C1212 C1213 1.524 . S
C1212 C1226 1.377 . S
C1213 C1212 1.524 . S
C1213 C1214 1.397 . S
C1213 C1218 1.363 . S
C1214 H1191 0.950 . S
C1214 C1213 1.397 . S
C1214 C1215 1.334 . S
C1215 H1192 0.950 . S
C1215 C1214 1.334 . S
C1215 C1216 1.287 . S
C1216 C1215 1.287 . S
C1216 C1217 1.524 . S
C1216 H1235 0.913 . S
C1217 H1193 0.950 . S
C1217 C1216 1.524 . S
C1217 C1218 1.415 . S
C1218 H1194 0.950 . S
C1218 C1213 1.363 . S
C1218 C1217 1.415 . S
C1219 H1195 0.951 . S
C1219 C1220 1.366 . S
C1219 C1221 1.388 . S
C1220 C1219 1.366 . S
C1220 C1224 1.385 . S
C1221 H1196 0.951 . S
C1221 C1219 1.388 . S
C1221 C1222 1.366 . S
C1222 C1221 1.366 . S
C1222 C1223 1.414 . S
C1222 C1225 1.499 . S
C1223 H1197 0.950 . S
C1223 C1222 1.414 . S
C1223 C1224 1.374 . S
C1224 H1198 0.950 . S
C1224 C1220 1.385 . S
C1224 C1223 1.374 . S
C1225 C1222 1.499 . S
C1225 C1226 1.373 . S
C1225 C1227 1.389 . S
C1226 H1199 0.950 . S
C1226 C1212 1.377 . S
C1226 C1225 1.373 . S
C1227 C1211 1.377 . S
C1227 C1225 1.389 . S
C1227 C1228 1.524 . S
C1228 C1227 1.524 . S
C1228 C1229 1.397 . S
C1228 C1233 1.363 . S
C1229 H1200 0.950 . S
C1229 C1228 1.397 . S
C1229 C1230 1.334 . S
C1230 H1201 0.950 . S
C1230 C1229 1.334 . S
C1230 C1231 1.287 . S
C1231 C1230 1.287 . S
C1231 C1232 1.524 . S
C1231 H1234 0.999 . S
C1232 H1202 0.950 . S
C1232 C1231 1.524 . S
C1232 C1233 1.415 . S
C1233 H1203 0.950 . S
C1233 C1228 1.363 . S
C1233 C1232 1.415 . S
H1234 C1231 0.999 . S
H1235 C1216 0.913 . S
H1236 C1254 0.951 . S
H1237 C1256 0.951 . S
H1238 C1258 0.950 . S
H1239 C1259 0.950 . S
H1240 C1261 0.950 . S
H1241 C1264 0.950 . S
H1242 C1265 0.950 . S
H1243 C1267 0.950 . S
H1244 C1268 0.950 . S
H1245 C1269 0.951 . S
H1246 C1271 0.951 . S
H1247 C1273 0.950 . S
H1248 C1274 0.950 . S
H1249 C1276 0.950 . S
H1250 C1279 0.950 . S
H1251 C1280 0.950 . S
H1252 C1282 0.950 . S
H1253 C1283 0.950 . S
C1254 H1236 0.951 . S
C1254 C1255 1.366 . S
C1254 C1256 1.388 . S
C1255 C1254 1.366 . S
C1255 C1259 1.385 . S
C1256 H1237 0.951 . S
C1256 C1254 1.388 . S
C1256 C1257 1.366 . S
C1257 C1256 1.366 . S
C1257 C1258 1.414 . S
C1257 C1260 1.499 . S
C1258 H1238 0.950 . S
C1258 C1257 1.414 . S
C1258 C1259 1.374 . S
C1259 H1239 0.950 . S
C1259 C1255 1.385 . S
C1259 C1258 1.374 . S
C1260 C1257 1.499 . S
C1260 C1261 1.373 . S
C1260 C1262 1.389 . S
C1261 H1240 0.950 . S
C1261 C1260 1.373 . S
C1261 C1277 1.377 . S
C1262 C1260 1.389 . S
C1262 C1263 1.524 . S
C1262 C1276 1.377 . S
C1263 C1262 1.524 . S
C1263 C1264 1.397 . S
C1263 C1268 1.363 . S
C1264 H1241 0.950 . S
C1264 C1263 1.397 . S
C1264 C1265 1.334 . S
C1265 H1242 0.950 . S
C1265 C1264 1.334 . S
C1265 C1266 1.287 . S
C1266 C1265 1.287 . S
C1266 C1267 1.524 . S
C1266 H1285 0.913 . S
C1267 H1243 0.950 . S
C1267 C1266 1.524 . S
C1267 C1268 1.415 . S
C1268 H1244 0.950 . S
C1268 C1263 1.363 . S
C1268 C1267 1.415 . S
C1269 H1245 0.951 . S
C1269 C1270 1.366 . S
C1269 C1271 1.388 . S
C1270 C1269 1.366 . S
C1270 C1274 1.385 . S
C1271 H1246 0.951 . S
C1271 C1269 1.388 . S
C1271 C1272 1.366 . S
C1272 C1271 1.366 . S
C1272 C1273 1.414 . S
C1272 C1275 1.499 . S
C1273 H1247 0.950 . S
C1273 C1272 1.414 . S
C1273 C1274 1.374 . S
C1274 H1248 0.950 . S
C1274 C1270 1.385 . S
C1274 C1273 1.374 . S
C1275 C1272 1.499 . S
C1275 C1276 1.373 . S
C1275 C1277 1.389 . S
C1276 H1249 0.950 . S
C1276 C1262 1.377 . S
C1276 C1275 1.373 . S
C1277 C1261 1.377 . S
C1277 C1275 1.389 . S
C1277 C1278 1.524 . S
C1278 C1277 1.524 . S
C1278 C1279 1.397 . S
C1278 C1283 1.363 . S
C1279 H1250 0.950 . S
C1279 C1278 1.397 . S
C1279 C1280 1.334 . S
C1280 H1251 0.950 . S
C1280 C1279 1.334 . S
C1280 C1281 1.287 . S
C1281 C1280 1.287 . S
C1281 C1282 1.524 . S
C1281 H1284 0.999 . S
C1282 H1252 0.950 . S
C1282 C1281 1.524 . S
C1282 C1283 1.415 . S
C1283 H1253 0.950 . S
C1283 C1278 1.363 . S
C1283 C1282 1.415 . S
H1284 C1281 0.999 . S
H1285 C1266 0.913 . S
H1286 C1304 0.951 . S
H1287 C1306 0.951 . S
H1288 C1308 0.950 . S
H1289 C1309 0.950 . S
H1290 C1311 0.950 . S
H1291 C1314 0.950 . S
H1292 C1315 0.950 . S
H1293 C1317 0.950 . S
H1294 C1318 0.950 . S
H1295 C1319 0.951 . S
H1296 C1321 0.951 . S
H1297 C1323 0.950 . S
H1298 C1324 0.950 . S
H1299 C1326 0.950 . S
H1300 C1329 0.950 . S
H1301 C1330 0.950 . S
H1302 C1332 0.950 . S
H1303 C1333 0.950 . S
C1304 H1286 0.951 . S
C1304 C1305 1.366 . S
C1304 C1306 1.388 . S
C1305 C1304 1.366 . S
C1305 C1309 1.385 . S
C1306 H1287 0.951 . S
C1306 C1304 1.388 . S
C1306 C1307 1.366 . S
C1307 C1306 1.366 . S
C1307 C1308 1.414 . S
C1307 C1310 1.499 . S
C1308 H1288 0.950 . S
C1308 C1307 1.414 . S
C1308 C1309 1.374 . S
C1309 H1289 0.950 . S
C1309 C1305 1.385 . S
C1309 C1308 1.374 . S
C1310 C1307 1.499 . S
C1310 C1311 1.373 . S
C1310 C1312 1.389 . S
C1311 H1290 0.950 . S
C1311 C1310 1.373 . S
C1311 C1327 1.377 . S
C1312 C1310 1.389 . S
C1312 C1313 1.524 . S
C1312 C1326 1.377 . S
C1313 C1312 1.524 . S
C1313 C1314 1.397 . S
C1313 C1318 1.363 . S
C1314 H1291 0.950 . S
C1314 C1313 1.397 . S
C1314 C1315 1.334 1_545 S
C1315 H1292 0.950 . S
C1315 C1314 1.334 1_565 S
C1315 C1316 1.287 . S
C1316 C1315 1.287 . S
C1316 C1317 1.524 . S
C1316 H1335 0.913 . S
C1317 H1293 0.950 . S
C1317 C1316 1.524 . S
C1317 C1318 1.415 1_565 S
C1318 H1294 0.950 . S
C1318 C1313 1.363 . S
C1318 C1317 1.415 1_545 S
C1319 H1295 0.951 . S
C1319 C1320 1.366 . S
C1319 C1321 1.388 . S
C1320 C1319 1.366 . S
C1320 C1324 1.385 . S
C1321 H1296 0.951 . S
C1321 C1319 1.388 . S
C1321 C1322 1.366 . S
C1322 C1321 1.366 . S
C1322 C1323 1.414 . S
C1322 C1325 1.499 . S
C1323 H1297 0.950 . S
C1323 C1322 1.414 . S
C1323 C1324 1.374 . S
C1324 H1298 0.950 . S
C1324 C1320 1.385 . S
C1324 C1323 1.374 . S
C1325 C1322 1.499 . S
C1325 C1326 1.373 . S
C1325 C1327 1.389 . S
C1326 H1299 0.950 . S
C1326 C1312 1.377 . S
C1326 C1325 1.373 . S
C1327 C1311 1.377 . S
C1327 C1325 1.389 . S
C1327 C1328 1.524 . S
C1328 C1327 1.524 . S
C1328 C1329 1.397 . S
C1328 C1333 1.363 . S
C1329 H1300 0.950 . S
C1329 C1328 1.397 . S
C1329 C1330 1.334 . S
C1330 H1301 0.950 . S
C1330 C1329 1.334 . S
C1330 C1331 1.287 . S
C1331 C1330 1.287 . S
C1331 C1332 1.524 . S
C1331 H1334 0.999 . S
C1332 H1302 0.950 . S
C1332 C1331 1.524 . S
C1332 C1333 1.415 . S
C1333 H1303 0.950 . S
C1333 C1328 1.363 . S
C1333 C1332 1.415 . S
H1334 C1331 0.999 . S
H1335 C1316 0.913 . S
H1336 C1354 0.951 . S
H1337 C1356 0.951 . S
H1338 C1358 0.950 . S
H1339 C1359 0.950 . S
H1340 C1361 0.950 . S
H1341 C1364 0.950 . S
H1342 C1365 0.950 1_455 S
H1343 C1367 0.950 . S
H1344 C1368 0.950 . S
H1345 C1369 0.951 . S
H1346 C1371 0.951 . S
H1347 C1373 0.950 . S
H1348 C1374 0.950 . S
H1349 C1376 0.950 . S
H1350 C1379 0.978 . S
H1351 C1380 0.950 1_655 S
H1352 C1382 0.950 . S
H1353 C1383 0.950 . S
C1354 H1336 0.951 . S
C1354 C1355 1.366 1_655 S
C1354 C1356 1.388 . S
C1355 C1354 1.366 1_455 S
C1355 C1359 1.385 . S
C1356 H1337 0.951 . S
C1356 C1354 1.388 . S
C1356 C1357 1.366 1_655 S
C1357 C1356 1.366 1_455 S
C1357 C1358 1.414 . S
C1357 C1360 1.499 . S
C1358 H1338 0.950 . S
C1358 C1357 1.414 . S
C1358 C1359 1.374 . S
C1359 H1339 0.950 . S
C1359 C1355 1.385 . S
C1359 C1358 1.374 . S
C1360 C1357 1.499 . S
C1360 C1361 1.373 . S
C1360 C1362 1.389 1_455 S
C1361 H1340 0.950 . S
C1361 C1360 1.373 . S
C1361 C1377 1.377 . S
C1362 C1360 1.389 1_655 S
C1362 C1363 1.524 1_556 S
C1362 C1376 1.377 . S
C1363 C1362 1.524 1_554 S
C1363 C1364 1.397 1_655 S
C1363 C1368 1.363 . S
C1364 H1341 0.950 . S
C1364 C1363 1.397 1_455 S
C1364 C1365 1.334 1_455 S
C1365 H1342 0.950 1_655 S
C1365 C1364 1.334 1_655 S
C1365 C1366 1.287 . S
C1366 C1365 1.287 . S
C1366 C1367 1.524 . S
C1366 H1385 0.913 . S
C1367 H1343 0.950 . S
C1367 C1366 1.524 . S
C1367 C1368 1.415 . S
C1368 H1344 0.950 . S
C1368 C1363 1.363 . S
C1368 C1367 1.415 . S
C1369 H1345 0.951 . S
C1369 C1370 1.366 1_455 S
C1369 C1371 1.388 . S
C1370 C1369 1.366 1_655 S
C1370 C1374 1.385 . S
C1371 H1346 0.951 . S
C1371 C1369 1.388 . S
C1371 C1372 1.366 1_455 S
C1372 C1371 1.366 1_655 S
C1372 C1373 1.414 . S
C1372 C1375 1.499 . S
C1373 H1347 0.950 . S
C1373 C1372 1.414 . S
C1373 C1374 1.374 . S
C1374 H1348 0.950 . S
C1374 C1370 1.385 . S
C1374 C1373 1.374 . S
C1375 C1372 1.499 . S
C1375 C1376 1.373 . S
C1375 C1377 1.389 1_655 S
C1376 H1349 0.950 . S
C1376 C1362 1.377 . S
C1376 C1375 1.373 . S
C1377 C1361 1.377 . S
C1377 C1375 1.389 1_455 S
C1377 C1378 1.524 . S
C1378 C1377 1.524 . S
C1378 C1379 1.375 1_455 S
C1378 C1383 1.363 . S
C1379 H1350 0.978 . S
C1379 C1378 1.375 1_655 S
C1379 C1380 1.328 1_655 S
C1380 H1351 0.950 1_455 S
C1380 C1379 1.328 1_455 S
C1380 C1381 1.287 . S
C1381 C1380 1.287 . S
C1381 C1382 1.524 . S
C1381 H1384 0.999 . S
C1382 H1352 0.950 . S
C1382 C1381 1.524 . S
C1382 C1383 1.415 . S
C1383 H1353 0.950 . S
C1383 C1378 1.363 . S
C1383 C1382 1.415 . S
H1384 C1381 0.999 . S
H1385 C1366 0.913 . S
H1386 C1404 0.951 . S
H1387 C1406 0.951 . S
H1388 C1408 0.950 . S
H1389 C1409 0.950 . S
H1390 C1411 0.950 . S
H1391 C1414 0.950 . S
H1392 C1415 0.950 . S
H1393 C1417 0.950 . S
H1394 C1418 0.950 . S
H1395 C1419 0.951 . S
H1396 C1421 0.951 . S
H1397 C1423 0.950 . S
H1398 C1424 0.950 . S
H1399 C1426 0.950 . S
H1400 C1429 0.950 . S
H1401 C1430 0.950 . S
H1402 C1432 0.950 . S
H1403 C1433 0.950 . S
C1404 H1386 0.951 . S
C1404 C1405 1.366 . S
C1404 C1406 1.388 . S
C1405 C1404 1.366 . S
C1405 C1409 1.385 . S
C1406 H1387 0.951 . S
C1406 C1404 1.388 . S
C1406 C1407 1.366 . S
C1407 C1406 1.366 . S
C1407 C1408 1.414 . S
C1407 C1410 1.499 . S
C1408 H1388 0.950 . S
C1408 C1407 1.414 . S
C1408 C1409 1.374 . S
C1409 H1389 0.950 . S
C1409 C1405 1.385 . S
C1409 C1408 1.374 . S
C1410 C1407 1.499 . S
C1410 C1411 1.373 . S
C1410 C1412 1.389 . S
C1411 H1390 0.950 . S
C1411 C1410 1.373 . S
C1411 C1427 1.377 . S
C1412 C1410 1.389 . S
C1412 C1413 1.524 . S
C1412 C1426 1.377 . S
C1413 C1412 1.524 . S
C1413 C1414 1.397 . S
C1413 C1418 1.363 . S
C1414 H1391 0.950 . S
C1414 C1413 1.397 . S
C1414 C1415 1.334 . S
C1415 H1392 0.950 . S
C1415 C1414 1.334 . S
C1415 C1416 1.287 . S
C1416 C1415 1.287 . S
C1416 C1417 1.524 . S
C1416 H1435 0.913 . S
C1417 H1393 0.950 . S
C1417 C1416 1.524 . S
C1417 C1418 1.415 . S
C1418 H1394 0.950 . S
C1418 C1413 1.363 . S
C1418 C1417 1.415 . S
C1419 H1395 0.951 . S
C1419 C1420 1.366 . S
C1419 C1421 1.388 . S
C1420 C1419 1.366 . S
C1420 C1424 1.385 . S
C1421 H1396 0.951 . S
C1421 C1419 1.388 . S
C1421 C1422 1.366 . S
C1422 C1421 1.366 . S
C1422 C1423 1.414 . S
C1422 C1425 1.499 . S
C1423 H1397 0.950 . S
C1423 C1422 1.414 . S
C1423 C1424 1.374 . S
C1424 H1398 0.950 . S
C1424 C1420 1.385 . S
C1424 C1423 1.374 . S
C1425 C1422 1.499 . S
C1425 C1426 1.373 . S
C1425 C1427 1.389 . S
C1426 H1399 0.950 . S
C1426 C1412 1.377 . S
C1426 C1425 1.373 . S
C1427 C1411 1.377 . S
C1427 C1425 1.389 . S
C1427 C1428 1.524 . S
C1428 C1427 1.524 . S
C1428 C1429 1.397 . S
C1428 C1433 1.363 . S
C1429 H1400 0.950 . S
C1429 C1428 1.397 . S
C1429 C1430 1.334 . S
C1430 H1401 0.950 . S
C1430 C1429 1.334 . S
C1430 C1431 1.287 . S
C1431 C1430 1.287 . S
C1431 C1432 1.524 . S
C1431 H1434 0.999 . S
C1432 H1402 0.950 . S
C1432 C1431 1.524 . S
C1432 C1433 1.415 . S
C1433 H1403 0.950 . S
C1433 C1428 1.363 . S
C1433 C1432 1.415 . S
H1434 C1431 0.999 . S
H1435 C1416 0.913 . S
H1436 C1454 0.951 . S
H1437 C1456 0.951 . S
H1438 C1458 0.950 . S
H1439 C1459 0.950 . S
H1440 C1461 0.950 . S
H1441 C1464 0.950 . S
H1442 C1465 0.950 . S
H1443 C1467 0.950 . S
H1444 C1468 0.950 . S
H1445 C1469 0.951 . S
H1446 C1471 0.951 . S
H1447 C1473 0.950 . S
H1448 C1474 0.950 . S
H1449 C1476 0.950 . S
H1450 C1479 0.950 . S
H1451 C1480 0.950 . S
H1452 C1482 0.950 . S
H1453 C1483 0.950 . S
C1454 H1436 0.951 . S
C1454 C1455 1.366 . S
C1454 C1456 1.388 . S
C1455 C1454 1.366 . S
C1455 C1459 1.385 . S
C1456 H1437 0.951 . S
C1456 C1454 1.388 . S
C1456 C1457 1.366 . S
C1457 C1456 1.366 . S
C1457 C1458 1.414 . S
C1457 C1460 1.499 . S
C1458 H1438 0.950 . S
C1458 C1457 1.414 . S
C1458 C1459 1.374 . S
C1459 H1439 0.950 . S
C1459 C1455 1.385 . S
C1459 C1458 1.374 . S
C1460 C1457 1.499 . S
C1460 C1461 1.373 . S
C1460 C1462 1.389 . S
C1461 H1440 0.950 . S
C1461 C1460 1.373 . S
C1461 C1477 1.377 . S
C1462 C1460 1.389 . S
C1462 C1463 1.524 . S
C1462 C1476 1.377 . S
C1463 C1462 1.524 . S
C1463 C1464 1.397 . S
C1463 C1468 1.363 . S
C1464 H1441 0.950 . S
C1464 C1463 1.397 . S
C1464 C1465 1.334 . S
C1465 H1442 0.950 . S
C1465 C1464 1.334 . S
C1465 C1466 1.287 . S
C1466 C1465 1.287 . S
C1466 C1467 1.524 . S
C1466 H1485 0.913 . S
C1467 H1443 0.950 . S
C1467 C1466 1.524 . S
C1467 C1468 1.415 . S
C1468 H1444 0.950 . S
C1468 C1463 1.363 . S
C1468 C1467 1.415 . S
C1469 H1445 0.951 . S
C1469 C1470 1.366 . S
C1469 C1471 1.388 . S
C1470 C1469 1.366 . S
C1470 C1474 1.385 . S
C1471 H1446 0.951 . S
C1471 C1469 1.388 . S
C1471 C1472 1.366 . S
C1472 C1471 1.366 . S
C1472 C1473 1.414 . S
C1472 C1475 1.499 . S
C1473 H1447 0.950 . S
C1473 C1472 1.414 . S
C1473 C1474 1.374 . S
C1474 H1448 0.950 . S
C1474 C1470 1.385 . S
C1474 C1473 1.374 . S
C1475 C1472 1.499 . S
C1475 C1476 1.373 . S
C1475 C1477 1.389 . S
C1476 H1449 0.950 . S
C1476 C1462 1.377 . S
C1476 C1475 1.373 . S
C1477 C1461 1.377 . S
C1477 C1475 1.389 . S
C1477 C1478 1.524 . S
C1478 C1477 1.524 . S
C1478 C1479 1.397 . S
C1478 C1483 1.363 . S
C1479 H1450 0.950 . S
C1479 C1478 1.397 . S
C1479 C1480 1.334 . S
C1480 H1451 0.950 . S
C1480 C1479 1.334 . S
C1480 C1481 1.287 . S
C1481 C1480 1.287 . S
C1481 C1482 1.524 . S
C1481 H1484 0.999 . S
C1482 H1452 0.950 . S
C1482 C1481 1.524 . S
C1482 C1483 1.415 . S
C1483 H1453 0.950 . S
C1483 C1478 1.363 . S
C1483 C1482 1.415 . S
H1484 C1481 0.999 . S
H1485 C1466 0.913 . S
H1486 C1504 0.951 . S
H1487 C1506 0.951 . S
H1488 C1508 0.950 . S
H1489 C1509 0.950 . S
H1490 C1511 0.950 . S
H1491 C1514 0.950 . S
H1492 C1515 0.950 . S
H1493 C1517 0.950 . S
H1494 C1518 0.950 1_455 S
H1495 C1519 0.951 . S
H1496 C1521 0.951 . S
H1497 C1523 0.950 . S
H1498 C1524 0.950 . S
H1499 C1526 0.950 . S
H1500 C1529 0.950 . S
H1501 C1530 0.950 . S
H1502 C1532 0.950 . S
H1503 C1533 0.950 1_655 S
C1504 H1486 0.951 . S
C1504 C1505 1.366 1_455 S
C1504 C1506 1.388 . S
C1505 C1504 1.366 1_655 S
C1505 C1509 1.385 . S
C1506 H1487 0.951 . S
C1506 C1504 1.388 . S
C1506 C1507 1.366 1_455 S
C1507 C1506 1.366 1_655 S
C1507 C1508 1.414 . S
C1507 C1510 1.499 . S
C1508 H1488 0.950 . S
C1508 C1507 1.414 . S
C1508 C1509 1.374 . S
C1509 H1489 0.950 . S
C1509 C1505 1.385 . S
C1509 C1508 1.374 . S
C1510 C1507 1.499 . S
C1510 C1511 1.373 1_655 S
C1510 C1512 1.389 . S
C1511 H1490 0.950 . S
C1511 C1510 1.373 1_455 S
C1511 C1527 1.377 1_565 S
C1512 C1510 1.389 . S
C1512 C1513 1.524 . S
C1512 C1526 1.377 1_565 S
C1513 C1512 1.524 . S
C1513 C1514 1.397 . S
C1513 C1518 1.363 . S
C1514 H1491 0.950 . S
C1514 C1513 1.397 . S
C1514 C1515 1.334 . S
C1515 H1492 0.950 . S
C1515 C1514 1.334 . S
C1515 C1516 1.287 . S
C1516 C1515 1.287 . S
C1516 C1517 1.524 . S
C1516 H1535 0.913 . S
C1517 H1493 0.950 . S
C1517 C1516 1.524 . S
C1517 C1518 1.415 . S
C1518 H1494 0.950 1_655 S
C1518 C1513 1.363 . S
C1518 C1517 1.415 . S
C1519 H1495 0.951 . S
C1519 C1520 1.366 1_655 S
C1519 C1521 1.388 . S
C1520 C1519 1.366 1_455 S
C1520 C1524 1.385 . S
C1521 H1496 0.951 . S
C1521 C1519 1.388 . S
C1521 C1522 1.366 1_655 S
C1522 C1521 1.366 1_455 S
C1522 C1523 1.414 . S
C1522 C1525 1.499 . S
C1523 H1497 0.950 . S
C1523 C1522 1.414 . S
C1523 C1524 1.374 . S
C1524 H1498 0.950 . S
C1524 C1520 1.385 . S
C1524 C1523 1.374 . S
C1525 C1522 1.499 . S
C1525 C1526 1.373 1_455 S
C1525 C1527 1.389 . S
C1526 H1499 0.950 . S
C1526 C1512 1.377 1_545 S
C1526 C1525 1.373 1_655 S
C1527 C1511 1.377 1_545 S
C1527 C1525 1.389 . S
C1527 C1528 1.524 . S
C1528 C1527 1.524 . S
C1528 C1529 1.397 . S
C1528 C1533 1.363 . S
C1529 H1500 0.950 . S
C1529 C1528 1.397 . S
C1529 C1530 1.334 . S
C1530 H1501 0.950 . S
C1530 C1529 1.334 . S
C1530 C1531 1.287 . S
C1531 C1530 1.287 . S
C1531 C1532 1.524 . S
C1531 H1534 0.999 . S
C1532 H1502 0.950 . S
C1532 C1531 1.524 . S
C1532 C1533 1.415 . S
C1533 H1503 0.950 1_455 S
C1533 C1528 1.363 . S
C1533 C1532 1.415 . S
H1534 C1531 0.999 . S
H1535 C1516 0.913 . S
H1536 C1554 0.951 . S
H1537 C1556 0.951 . S
H1538 C1558 0.950 . S
H1539 C1559 0.950 . S
H1540 C1561 0.950 . S
H1541 C1564 0.950 . S
H1542 C1565 0.950 . S
H1543 C1567 0.950 . S
H1544 C1568 0.950 . S
H1545 C1569 0.951 . S
H1546 C1571 0.951 . S
H1547 C1573 0.950 . S
H1548 C1574 0.950 . S
H1549 C1576 0.950 . S
H1550 C1579 0.950 . S
H1551 C1580 0.950 . S
H1552 C1582 0.950 . S
H1553 C1583 0.950 . S
C1554 H1536 0.951 . S
C1554 C1555 1.366 . S
C1554 C1556 1.388 . S
C1555 C1554 1.366 . S
C1555 C1559 1.385 . S
C1556 H1537 0.951 . S
C1556 C1554 1.388 . S
C1556 C1557 1.366 . S
C1557 C1556 1.366 . S
C1557 C1558 1.414 . S
C1557 C1560 1.499 . S
C1558 H1538 0.950 . S
C1558 C1557 1.414 . S
C1558 C1559 1.374 . S
C1559 H1539 0.950 . S
C1559 C1555 1.385 . S
C1559 C1558 1.374 . S
C1560 C1557 1.499 . S
C1560 C1561 1.373 . S
C1560 C1562 1.389 . S
C1561 H1540 0.950 . S
C1561 C1560 1.373 . S
C1561 C1577 1.377 . S
C1562 C1560 1.389 . S
C1562 C1563 1.524 . S
C1562 C1576 1.377 . S
C1563 C1562 1.524 . S
C1563 C1564 1.397 . S
C1563 C1568 1.363 . S
C1564 H1541 0.950 . S
C1564 C1563 1.397 . S
C1564 C1565 1.334 . S
C1565 H1542 0.950 . S
C1565 C1564 1.334 . S
C1565 C1566 1.287 . S
C1566 C1565 1.287 . S
C1566 C1567 1.524 . S
C1566 H1585 0.913 . S
C1567 H1543 0.950 . S
C1567 C1566 1.524 . S
C1567 C1568 1.415 . S
C1568 H1544 0.950 . S
C1568 C1563 1.363 . S
C1568 C1567 1.415 . S
C1569 H1545 0.951 . S
C1569 C1570 1.366 . S
C1569 C1571 1.388 . S
C1570 C1569 1.366 . S
C1570 C1574 1.385 . S
C1571 H1546 0.951 . S
C1571 C1569 1.388 . S
C1571 C1572 1.366 . S
C1572 C1571 1.366 . S
C1572 C1573 1.414 . S
C1572 C1575 1.499 . S
C1573 H1547 0.950 . S
C1573 C1572 1.414 . S
C1573 C1574 1.374 . S
C1574 H1548 0.950 . S
C1574 C1570 1.385 . S
C1574 C1573 1.374 . S
C1575 C1572 1.499 . S
C1575 C1576 1.373 . S
C1575 C1577 1.389 . S
C1576 H1549 0.950 . S
C1576 C1562 1.377 . S
C1576 C1575 1.373 . S
C1577 C1561 1.377 . S
C1577 C1575 1.389 . S
C1577 C1578 1.524 . S
C1578 C1577 1.524 . S
C1578 C1579 1.397 . S
C1578 C1583 1.363 . S
C1579 H1550 0.950 . S
C1579 C1578 1.397 . S
C1579 C1580 1.334 . S
C1580 H1551 0.950 . S
C1580 C1579 1.334 . S
C1580 C1581 1.287 . S
C1581 C1580 1.287 . S
C1581 C1582 1.524 . S
C1581 H1584 0.999 . S
C1582 H1552 0.950 . S
C1582 C1581 1.524 . S
C1582 C1583 1.415 . S
C1583 H1553 0.950 . S
C1583 C1578 1.363 . S
C1583 C1582 1.415 . S
H1584 C1581 0.999 . S
H1585 C1566 0.913 . S
H1586 C1604 0.951 . S
H1587 C1606 0.951 . S
H1588 C1608 0.950 . S
H1589 C1609 0.950 . S
H1590 C1611 0.950 . S
H1591 C1614 0.950 . S
H1592 C1615 0.950 . S
H1593 C1617 0.950 . S
H1594 C1618 0.950 . S
H1595 C1619 0.951 . S
H1596 C1621 0.951 . S
H1597 C1623 0.950 . S
H1598 C1624 0.950 . S
H1599 C1626 0.950 . S
H1600 C1629 0.950 . S
H1601 C1630 0.950 . S
H1602 C1632 0.950 . S
H1603 C1633 0.950 . S
C1604 H1586 0.951 . S
C1604 C1605 1.366 . S
C1604 C1606 1.388 . S
C1605 C1604 1.366 . S
C1605 C1609 1.385 . S
C1606 H1587 0.951 . S
C1606 C1604 1.388 . S
C1606 C1607 1.366 . S
C1607 C1606 1.366 . S
C1607 C1608 1.414 . S
C1607 C1610 1.499 . S
C1608 H1588 0.950 . S
C1608 C1607 1.414 . S
C1608 C1609 1.374 . S
C1609 H1589 0.950 . S
C1609 C1605 1.385 . S
C1609 C1608 1.374 . S
C1610 C1607 1.499 . S
C1610 C1611 1.373 . S
C1610 C1612 1.389 . S
C1611 H1590 0.950 . S
C1611 C1610 1.373 . S
C1611 C1627 1.377 . S
C1612 C1610 1.389 . S
C1612 C1613 1.524 . S
C1612 C1626 1.377 . S
C1613 C1612 1.524 . S
C1613 C1614 1.397 . S
C1613 C1618 1.363 . S
C1614 H1591 0.950 . S
C1614 C1613 1.397 . S
C1614 C1615 1.334 . S
C1615 H1592 0.950 . S
C1615 C1614 1.334 . S
C1615 C1616 1.287 . S
C1616 C1615 1.287 . S
C1616 C1617 1.524 . S
C1616 H1635 0.913 . S
C1617 H1593 0.950 . S
C1617 C1616 1.524 . S
C1617 C1618 1.415 . S
C1618 H1594 0.950 . S
C1618 C1613 1.363 . S
C1618 C1617 1.415 . S
C1619 H1595 0.951 . S
C1619 C1620 1.366 . S
C1619 C1621 1.388 . S
C1620 C1619 1.366 . S
C1620 C1624 1.385 . S
C1621 H1596 0.951 . S
C1621 C1619 1.388 . S
C1621 C1622 1.366 . S
C1622 C1621 1.366 . S
C1622 C1623 1.414 . S
C1622 C1625 1.499 . S
C1623 H1597 0.950 . S
C1623 C1622 1.414 . S
C1623 C1624 1.374 . S
C1624 H1598 0.950 . S
C1624 C1620 1.385 . S
C1624 C1623 1.374 . S
C1625 C1622 1.499 . S
C1625 C1626 1.373 . S
C1625 C1627 1.389 . S
C1626 H1599 0.950 . S
C1626 C1612 1.377 . S
C1626 C1625 1.373 . S
C1627 C1611 1.377 . S
C1627 C1625 1.389 . S
C1627 C1628 1.524 . S
C1628 C1627 1.524 . S
C1628 C1629 1.397 . S
C1628 C1633 1.363 . S
C1629 H1600 0.950 . S
C1629 C1628 1.397 . S
C1629 C1630 1.334 . S
C1630 H1601 0.950 . S
C1630 C1629 1.334 . S
C1630 C1631 1.287 . S
C1631 C1630 1.287 . S
C1631 C1632 1.524 . S
C1631 H1634 0.999 . S
C1632 H1602 0.950 . S
C1632 C1631 1.524 . S
C1632 C1633 1.415 . S
C1633 H1603 0.950 . S
C1633 C1628 1.363 . S
C1633 C1632 1.415 . S
H1634 C1631 0.999 . S
H1635 C1616 0.913 . S
H1636 C1654 0.951 . S
H1637 C1656 0.951 . S
H1638 C1658 0.950 . S
H1639 C1659 0.950 . S
H1640 C1661 0.950 . S
H1641 C1664 0.950 . S
H1642 C1665 0.950 . S
H1643 C1667 0.950 . S
H1644 C1668 0.950 . S
H1645 C1669 0.951 . S
H1646 C1671 0.951 . S
H1647 C1673 0.950 . S
H1648 C1674 0.950 . S
H1649 C1676 0.950 . S
H1650 C1679 0.950 . S
H1651 C1680 0.950 . S
H1652 C1682 0.950 . S
H1653 C1683 0.950 . S
C1654 H1636 0.951 . S
C1654 C1655 1.366 . S
C1654 C1656 1.388 . S
C1655 C1654 1.366 . S
C1655 C1659 1.385 . S
C1656 H1637 0.951 . S
C1656 C1654 1.388 . S
C1656 C1657 1.366 . S
C1657 C1656 1.366 . S
C1657 C1658 1.414 . S
C1657 C1660 1.499 . S
C1658 H1638 0.950 . S
C1658 C1657 1.414 . S
C1658 C1659 1.374 . S
C1659 H1639 0.950 . S
C1659 C1655 1.385 . S
C1659 C1658 1.374 . S
C1660 C1657 1.499 . S
C1660 C1661 1.373 . S
C1660 C1662 1.389 . S
C1661 H1640 0.950 . S
C1661 C1660 1.373 . S
C1661 C1677 1.377 . S
C1662 C1660 1.389 . S
C1662 C1663 1.524 . S
C1662 C1676 1.377 . S
C1663 C1662 1.524 . S
C1663 C1664 1.397 . S
C1663 C1668 1.363 . S
C1664 H1641 0.950 . S
C1664 C1663 1.397 . S
C1664 C1665 1.334 . S
C1665 H1642 0.950 . S
C1665 C1664 1.334 . S
C1665 C1666 1.287 . S
C1666 C1665 1.287 . S
C1666 C1667 1.524 . S
C1666 H1685 0.913 . S
C1667 H1643 0.950 . S
C1667 C1666 1.524 . S
C1667 C1668 1.415 . S
C1668 H1644 0.950 . S
C1668 C1663 1.363 . S
C1668 C1667 1.415 . S
C1669 H1645 0.951 . S
C1669 C1670 1.366 . S
C1669 C1671 1.388 . S
C1670 C1669 1.366 . S
C1670 C1674 1.385 . S
C1671 H1646 0.951 . S
C1671 C1669 1.388 . S
C1671 C1672 1.366 . S
C1672 C1671 1.366 . S
C1672 C1673 1.414 . S
C1672 C1675 1.499 . S
C1673 H1647 0.950 . S
C1673 C1672 1.414 . S
C1673 C1674 1.374 . S
C1674 H1648 0.950 . S
C1674 C1670 1.385 . S
C1674 C1673 1.374 . S
C1675 C1672 1.499 . S
C1675 C1676 1.373 . S
C1675 C1677 1.389 . S
C1676 H1649 0.950 . S
C1676 C1662 1.377 . S
C1676 C1675 1.373 . S
C1677 C1661 1.377 . S
C1677 C1675 1.389 . S
C1677 C1678 1.524 . S
C1678 C1677 1.524 . S
C1678 C1679 1.397 . S
C1678 C1683 1.363 . S
C1679 H1650 0.950 . S
C1679 C1678 1.397 . S
C1679 C1680 1.334 . S
C1680 H1651 0.950 . S
C1680 C1679 1.334 . S
C1680 C1681 1.287 . S
C1681 C1680 1.287 . S
C1681 C1682 1.524 . S
C1681 H1684 0.999 . S
C1682 H1652 0.950 . S
C1682 C1681 1.524 . S
C1682 C1683 1.415 . S
C1683 H1653 0.950 . S
C1683 C1678 1.363 . S
C1683 C1682 1.415 . S
H1684 C1681 0.999 . S
H1685 C1666 0.913 . S
H1686 C1704 0.951 . S
H1687 C1706 0.951 . S
H1688 C1708 0.950 . S
H1689 C1709 0.950 . S
H1690 C1711 0.950 . S
H1691 C1714 0.950 . S
H1692 C1715 0.950 . S
H1693 C1717 0.950 . S
H1694 C1718 0.950 . S
H1695 C1719 0.951 . S
H1696 C1721 0.951 . S
H1697 C1723 0.950 . S
H1698 C1724 0.950 . S
H1699 C1726 0.950 . S
H1700 C1729 0.950 . S
H1701 C1730 0.950 . S
H1702 C1732 0.950 . S
H1703 C1733 0.950 . S
C1704 H1686 0.951 . S
C1704 C1705 1.366 . S
C1704 C1706 1.388 . S
C1705 C1704 1.366 . S
C1705 C1709 1.385 . S
C1706 H1687 0.951 . S
C1706 C1704 1.388 . S
C1706 C1707 1.366 . S
C1707 C1706 1.366 . S
C1707 C1708 1.414 . S
C1707 C1710 1.499 . S
C1708 H1688 0.950 . S
C1708 C1707 1.414 . S
C1708 C1709 1.374 . S
C1709 H1689 0.950 . S
C1709 C1705 1.385 . S
C1709 C1708 1.374 . S
C1710 C1707 1.499 . S
C1710 C1711 1.373 . S
C1710 C1712 1.389 . S
C1711 H1690 0.950 . S
C1711 C1710 1.373 . S
C1711 C1727 1.377 1_565 S
C1712 C1710 1.389 . S
C1712 C1713 1.524 . S
C1712 C1726 1.377 1_565 S
C1713 C1712 1.524 . S
C1713 C1714 1.397 1_556 S
C1713 C1718 1.363 . S
C1714 H1691 0.950 . S
C1714 C1713 1.397 1_554 S
C1714 C1715 1.334 . S
C1715 H1692 0.950 . S
C1715 C1714 1.334 . S
C1715 C1716 1.287 . S
C1716 C1715 1.287 . S
C1716 C1717 1.524 . S
C1716 H1735 0.913 . S
C1717 H1693 0.950 . S
C1717 C1716 1.524 . S
C1717 C1718 1.415 1_554 S
C1718 H1694 0.950 . S
C1718 C1713 1.363 . S
C1718 C1717 1.415 1_556 S
C1719 H1695 0.951 . S
C1719 C1720 1.366 . S
C1719 C1721 1.388 . S
C1720 C1719 1.366 . S
C1720 C1724 1.385 . S
C1721 H1696 0.951 . S
C1721 C1719 1.388 . S
C1721 C1722 1.366 . S
C1722 C1721 1.366 . S
C1722 C1723 1.414 . S
C1722 C1725 1.499 . S
C1723 H1697 0.950 . S
C1723 C1722 1.414 . S
C1723 C1724 1.374 . S
C1724 H1698 0.950 . S
C1724 C1720 1.385 . S
C1724 C1723 1.374 . S
C1725 C1722 1.499 . S
C1725 C1726 1.373 . S
C1725 C1727 1.389 . S
C1726 H1699 0.950 . S
C1726 C1712 1.377 1_545 S
C1726 C1725 1.373 . S
C1727 C1711 1.377 1_545 S
C1727 C1725 1.389 . S
C1727 C1728 1.524 . S
C1728 C1727 1.524 . S
C1728 C1729 1.397 . S
C1728 C1733 1.363 . S
C1729 H1700 0.950 . S
C1729 C1728 1.397 . S
C1729 C1730 1.334 . S
C1730 H1701 0.950 . S
C1730 C1729 1.334 . S
C1730 C1731 1.287 . S
C1731 C1730 1.287 . S
C1731 C1732 1.524 . S
C1731 H1734 0.999 . S
C1732 H1702 0.950 . S
C1732 C1731 1.524 . S
C1732 C1733 1.415 . S
C1733 H1703 0.950 . S
C1733 C1728 1.363 . S
C1733 C1732 1.415 . S
H1734 C1731 0.999 . S
H1735 C1716 0.913 . S
H1736 C1754 0.951 . S
H1737 C1756 0.951 . S
H1738 C1758 0.950 . S
H1739 C1759 0.950 . S
H1740 C1761 0.950 . S
H1741 C1764 0.950 . S
H1742 C1765 0.950 . S
H1743 C1767 0.950 . S
H1744 C1768 0.950 . S
H1745 C1769 0.951 . S
H1746 C1771 0.951 . S
H1747 C1773 0.950 . S
H1748 C1774 0.950 . S
H1749 C1776 0.950 . S
H1750 C1779 0.950 . S
H1751 C1780 0.950 . S
H1752 C1782 0.950 1_554 S
H1753 C1783 0.950 . S
C1754 H1736 0.951 . S
C1754 C1755 1.366 . S
C1754 C1756 1.388 . S
C1755 C1754 1.366 . S
C1755 C1759 1.385 . S
C1756 H1737 0.951 . S
C1756 C1754 1.388 . S
C1756 C1757 1.366 . S
C1757 C1756 1.366 . S
C1757 C1758 1.414 . S
C1757 C1760 1.499 . S
C1758 H1738 0.950 . S
C1758 C1757 1.414 . S
C1758 C1759 1.374 . S
C1759 H1739 0.950 . S
C1759 C1755 1.385 . S
C1759 C1758 1.374 . S
C1760 C1757 1.499 . S
C1760 C1761 1.373 . S
C1760 C1762 1.389 . S
C1761 H1740 0.950 . S
C1761 C1760 1.373 . S
C1761 C1777 1.377 . S
C1762 C1760 1.389 . S
C1762 C1763 1.524 . S
C1762 C1776 1.377 . S
C1763 C1762 1.524 . S
C1763 C1764 1.397 . S
C1763 C1768 1.363 . S
C1764 H1741 0.950 . S
C1764 C1763 1.397 . S
C1764 C1765 1.334 . S
C1765 H1742 0.950 . S
C1765 C1764 1.334 . S
C1765 C1766 1.287 . S
C1766 C1765 1.287 . S
C1766 C1767 1.524 . S
C1766 H1785 0.913 . S
C1767 H1743 0.950 . S
C1767 C1766 1.524 . S
C1767 C1768 1.415 . S
C1768 H1744 0.950 . S
C1768 C1763 1.363 . S
C1768 C1767 1.415 . S
C1769 H1745 0.951 . S
C1769 C1770 1.366 . S
C1769 C1771 1.388 . S
C1770 C1769 1.366 . S
C1770 C1774 1.385 . S
C1771 H1746 0.951 . S
C1771 C1769 1.388 . S
C1771 C1772 1.366 . S
C1772 C1771 1.366 . S
C1772 C1773 1.414 . S
C1772 C1775 1.499 . S
C1773 H1747 0.950 . S
C1773 C1772 1.414 . S
C1773 C1774 1.374 . S
C1774 H1748 0.950 . S
C1774 C1770 1.385 . S
C1774 C1773 1.374 . S
C1775 C1772 1.499 . S
C1775 C1776 1.373 . S
C1775 C1777 1.389 . S
C1776 H1749 0.950 . S
C1776 C1762 1.377 . S
C1776 C1775 1.373 . S
C1777 C1761 1.377 . S
C1777 C1775 1.389 . S
C1777 C1778 1.524 . S
C1778 C1777 1.524 . S
C1778 C1779 1.397 1_554 S
C1778 C1783 1.363 . S
C1779 H1750 0.950 . S
C1779 C1778 1.397 1_556 S
C1779 C1780 1.334 . S
C1780 H1751 0.950 . S
C1780 C1779 1.334 . S
C1780 C1781 1.287 . S
C1781 C1780 1.287 . S
C1781 C1782 1.524 . S
C1781 H1784 0.999 . S
C1782 H1752 0.950 1_556 S
C1782 C1781 1.524 . S
C1782 C1783 1.415 1_556 S
C1783 H1753 0.950 . S
C1783 C1778 1.363 . S
C1783 C1782 1.415 1_554 S
H1784 C1781 0.999 . S
H1785 C1766 0.913 . S
H1786 C1804 0.951 . S
H1787 C1806 0.951 . S
H1788 C1808 0.950 . S
H1789 C1809 0.950 . S
H1790 C1811 0.950 . S
H1791 C1814 0.950 . S
H1792 C1815 0.950 . S
H1793 C1817 0.950 . S
H1794 C1818 0.950 . S
H1795 C1819 0.951 . S
H1796 C1821 0.951 . S
H1797 C1823 0.950 . S
H1798 C1824 0.950 . S
H1799 C1826 0.950 . S
H1800 C1829 0.950 . S
H1801 C1830 0.950 . S
H1802 C1832 0.964 . S
H1803 C1833 0.950 . S
C1804 H1786 0.951 . S
C1804 C1805 1.366 . S
C1804 C1806 1.388 . S
C1805 C1804 1.366 . S
C1805 C1809 1.385 . S
C1806 H1787 0.951 . S
C1806 C1804 1.388 . S
C1806 C1807 1.366 . S
C1807 C1806 1.366 . S
C1807 C1808 1.414 . S
C1807 C1810 1.499 . S
C1808 H1788 0.950 . S
C1808 C1807 1.414 . S
C1808 C1809 1.374 . S
C1809 H1789 0.950 . S
C1809 C1805 1.385 . S
C1809 C1808 1.374 . S
C1810 C1807 1.499 . S
C1810 C1811 1.373 . S
C1810 C1812 1.389 . S
C1811 H1790 0.950 . S
C1811 C1810 1.373 . S
C1811 C1827 1.377 . S
C1812 C1810 1.389 . S
C1812 C1813 1.524 . S
C1812 C1826 1.377 . S
C1813 C1812 1.524 . S
C1813 C1814 1.397 . S
C1813 C1818 1.363 . S
C1814 H1791 0.950 . S
C1814 C1813 1.397 . S
C1814 C1815 1.334 . S
C1815 H1792 0.950 . S
C1815 C1814 1.334 . S
C1815 C1816 1.287 . S
C1816 C1815 1.287 . S
C1816 C1817 1.524 . S
C1816 H1835 0.913 . S
C1817 H1793 0.950 . S
C1817 C1816 1.524 . S
C1817 C1818 1.415 . S
C1818 H1794 0.950 . S
C1818 C1813 1.363 . S
C1818 C1817 1.415 . S
C1819 H1795 0.951 . S
C1819 C1820 1.366 . S
C1819 C1821 1.388 . S
C1820 C1819 1.366 . S
C1820 C1824 1.385 . S
C1821 H1796 0.951 . S
C1821 C1819 1.388 . S
C1821 C1822 1.366 . S
C1822 C1821 1.366 . S
C1822 C1823 1.414 . S
C1822 C1825 1.499 . S
C1823 H1797 0.950 . S
C1823 C1822 1.414 . S
C1823 C1824 1.374 . S
C1824 H1798 0.950 . S
C1824 C1820 1.385 . S
C1824 C1823 1.374 . S
C1825 C1822 1.499 . S
C1825 C1826 1.373 . S
C1825 C1827 1.389 . S
C1826 H1799 0.950 . S
C1826 C1812 1.377 . S
C1826 C1825 1.373 . S
C1827 C1811 1.377 . S
C1827 C1825 1.389 . S
C1827 C1828 1.524 . S
C1828 C1827 1.524 . S
C1828 C1829 1.397 1_554 S
C1828 C1833 1.363 . S
C1829 H1800 0.950 . S
C1829 C1828 1.397 1_556 S
C1829 C1830 1.334 . S
C1830 H1801 0.950 . S
C1830 C1829 1.334 . S
C1830 C1831 1.287 . S
C1831 C1830 1.287 . S
C1831 C1832 1.524 . S
C1831 H1834 0.999 . S
C1832 H1802 0.964 . S
C1832 C1831 1.524 . S
C1832 C1833 1.415 1_556 S
C1833 H1803 0.950 . S
C1833 C1828 1.363 . S
C1833 C1832 1.415 1_554 S
H1834 C1831 0.999 . S
H1835 C1816 0.913 . S
H1836 C1854 0.951 . S
H1837 C1856 0.951 . S
H1838 C1858 0.950 . S
H1839 C1859 0.950 . S
H1840 C1861 0.950 . S
H1841 C1864 0.950 . S
H1842 C1865 0.950 . S
H1843 C1867 0.952 . S
H1844 C1868 0.950 . S
H1845 C1869 0.951 . S
H1846 C1871 0.951 . S
H1847 C1873 0.950 . S
H1848 C1874 0.950 . S
H1849 C1876 0.950 . S
H1850 C1879 0.950 . S
H1851 C1880 0.950 . S
H1852 C1882 0.952 . S
H1853 C1883 0.950 . S
C1854 H1836 0.951 . S
C1854 C1855 1.366 . S
C1854 C1856 1.388 . S
C1855 C1854 1.366 . S
C1855 C1859 1.385 . S
C1856 H1837 0.951 . S
C1856 C1854 1.388 . S
C1856 C1857 1.366 . S
C1857 C1856 1.366 . S
C1857 C1858 1.414 . S
C1857 C1860 1.499 . S
C1858 H1838 0.950 . S
C1858 C1857 1.414 . S
C1858 C1859 1.374 . S
C1859 H1839 0.950 . S
C1859 C1855 1.385 . S
C1859 C1858 1.374 . S
C1860 C1857 1.499 . S
C1860 C1861 1.373 . S
C1860 C1862 1.389 . S
C1861 H1840 0.950 . S
C1861 C1860 1.373 . S
C1861 C1877 1.377 1_455 S
C1862 C1860 1.389 . S
C1862 C1863 1.524 . S
C1862 C1876 1.377 1_455 S
C1863 C1862 1.524 . S
C1863 C1864 1.397 . S
C1863 C1868 1.363 1_455 S
C1864 H1841 0.950 . S
C1864 C1863 1.397 . S
C1864 C1865 1.334 . S
C1865 H1842 0.950 . S
C1865 C1864 1.334 . S
C1865 C1866 1.287 . S
C1866 C1865 1.287 . S
C1866 C1867 1.520 1_455 S
C1866 H1885 0.913 . S
C1867 H1843 0.952 . S
C1867 C1866 1.520 1_655 S
C1867 C1868 1.416 . S
C1868 H1844 0.950 . S
C1868 C1863 1.363 1_655 S
C1868 C1867 1.416 . S
C1869 H1845 0.951 . S
C1869 C1870 1.366 . S
C1869 C1871 1.388 . S
C1870 C1869 1.366 . S
C1870 C1874 1.385 . S
C1871 H1846 0.951 . S
C1871 C1869 1.388 . S
C1871 C1872 1.366 . S
C1872 C1871 1.366 . S
C1872 C1873 1.414 . S
C1872 C1875 1.499 . S
C1873 H1847 0.950 . S
C1873 C1872 1.414 . S
C1873 C1874 1.374 . S
C1874 H1848 0.950 . S
C1874 C1870 1.385 . S
C1874 C1873 1.374 . S
C1875 C1872 1.499 . S
C1875 C1876 1.373 . S
C1875 C1877 1.389 . S
C1876 H1849 0.950 . S
C1876 C1862 1.377 1_655 S
C1876 C1875 1.373 . S
C1877 C1861 1.377 1_655 S
C1877 C1875 1.389 . S
C1877 C1878 1.524 . S
C1878 C1877 1.524 . S
C1878 C1879 1.397 . S
C1878 C1883 1.363 1_655 S
C1879 H1850 0.950 . S
C1879 C1878 1.397 . S
C1879 C1880 1.334 . S
C1880 H1851 0.950 . S
C1880 C1879 1.334 . S
C1880 C1881 1.287 . S
C1881 C1880 1.287 . S
C1881 C1882 1.520 1_655 S
C1881 H1884 0.999 . S
C1882 H1852 0.952 . S
C1882 C1881 1.520 1_455 S
C1882 C1883 1.416 . S
C1883 H1853 0.950 . S
C1883 C1878 1.363 1_455 S
C1883 C1882 1.416 . S
H1884 C1881 0.999 . S
H1885 C1866 0.913 . S
H1886 C1904 0.951 . S
H1887 C1906 0.951 . S
H1888 C1908 0.950 . S
H1889 C1909 0.950 . S
H1890 C1911 0.950 . S
H1891 C1914 0.950 . S
H1892 C1915 0.950 . S
H1893 C1917 0.950 . S
H1894 C1918 0.950 . S
H1895 C1919 0.951 . S
H1896 C1921 0.951 . S
H1897 C1923 0.950 . S
H1898 C1924 0.950 . S
H1899 C1926 0.950 . S
H1900 C1929 0.950 . S
H1901 C1930 0.950 . S
H1902 C1932 0.950 . S
H1903 C1933 0.950 . S
C1904 H1886 0.951 . S
C1904 C1905 1.366 . S
C1904 C1906 1.388 . S
C1905 C1904 1.366 . S
C1905 C1909 1.385 . S
C1906 H1887 0.951 . S
C1906 C1904 1.388 . S
C1906 C1907 1.366 . S
C1907 C1906 1.366 . S
C1907 C1908 1.414 . S
C1907 C1910 1.499 . S
C1908 H1888 0.950 . S
C1908 C1907 1.414 . S
C1908 C1909 1.374 . S
C1909 H1889 0.950 . S
C1909 C1905 1.385 . S
C1909 C1908 1.374 . S
C1910 C1907 1.499 . S
C1910 C1911 1.373 . S
C1910 C1912 1.389 . S
C1911 H1890 0.950 . S
C1911 C1910 1.373 . S
C1911 C1927 1.377 . S
C1912 C1910 1.389 . S
C1912 C1913 1.524 . S
C1912 C1926 1.377 . S
C1913 C1912 1.524 . S
C1913 C1914 1.397 . S
C1913 C1918 1.363 . S
C1914 H1891 0.950 . S
C1914 C1913 1.397 . S
C1914 C1915 1.334 . S
C1915 H1892 0.950 . S
C1915 C1914 1.334 . S
C1915 C1916 1.287 . S
C1916 C1915 1.287 . S
C1916 C1917 1.524 . S
C1916 H1935 0.913 . S
C1917 H1893 0.950 . S
C1917 C1916 1.524 . S
C1917 C1918 1.415 . S
C1918 H1894 0.950 . S
C1918 C1913 1.363 . S
C1918 C1917 1.415 . S
C1919 H1895 0.951 . S
C1919 C1920 1.366 . S
C1919 C1921 1.388 . S
C1920 C1919 1.366 . S
C1920 C1924 1.385 . S
C1921 H1896 0.951 . S
C1921 C1919 1.388 . S
C1921 C1922 1.366 . S
C1922 C1921 1.366 . S
C1922 C1923 1.414 . S
C1922 C1925 1.499 . S
C1923 H1897 0.950 . S
C1923 C1922 1.414 . S
C1923 C1924 1.374 . S
C1924 H1898 0.950 . S
C1924 C1920 1.385 . S
C1924 C1923 1.374 . S
C1925 C1922 1.499 . S
C1925 C1926 1.373 . S
C1925 C1927 1.389 . S
C1926 H1899 0.950 . S
C1926 C1912 1.377 . S
C1926 C1925 1.373 . S
C1927 C1911 1.377 . S
C1927 C1925 1.389 . S
C1927 C1928 1.524 . S
C1928 C1927 1.524 . S
C1928 C1929 1.397 . S
C1928 C1933 1.363 . S
C1929 H1900 0.950 . S
C1929 C1928 1.397 . S
C1929 C1930 1.334 . S
C1930 H1901 0.950 . S
C1930 C1929 1.334 . S
C1930 C1931 1.287 . S
C1931 C1930 1.287 . S
C1931 C1932 1.524 . S
C1931 H1934 0.999 . S
C1932 H1902 0.950 . S
C1932 C1931 1.524 . S
C1932 C1933 1.415 . S
C1933 H1903 0.950 . S
C1933 C1928 1.363 . S
C1933 C1932 1.415 . S
H1934 C1931 0.999 . S
H1935 C1916 0.913 . S
H1936 C1954 0.951 . S
H1937 C1956 0.951 . S
H1938 C1958 0.950 . S
H1939 C1959 0.950 . S
H1940 C1961 0.950 . S
H1941 C1964 0.950 . S
H1942 C1965 0.950 . S
H1943 C1967 0.950 . S
H1944 C1968 0.950 . S
H1945 C1969 0.951 . S
H1946 C1971 0.951 . S
H1947 C1973 0.950 . S
H1948 C1974 0.950 . S
H1949 C1976 0.950 . S
H1950 C1979 0.950 . S
H1951 C1980 0.950 . S
H1952 C1982 0.950 . S
H1953 C1983 0.950 . S
C1954 H1936 0.951 . S
C1954 C1955 1.366 . S
C1954 C1956 1.388 . S
C1955 C1954 1.366 . S
C1955 C1959 1.385 . S
C1956 H1937 0.951 . S
C1956 C1954 1.388 . S
C1956 C1957 1.366 . S
C1957 C1956 1.366 . S
C1957 C1958 1.414 . S
C1957 C1960 1.499 . S
C1958 H1938 0.950 . S
C1958 C1957 1.414 . S
C1958 C1959 1.374 . S
C1959 H1939 0.950 . S
C1959 C1955 1.385 . S
C1959 C1958 1.374 . S
C1960 C1957 1.499 . S
C1960 C1961 1.373 . S
C1960 C1962 1.389 . S
C1961 H1940 0.950 . S
C1961 C1960 1.373 . S
C1961 C1977 1.377 . S
C1962 C1960 1.389 . S
C1962 C1963 1.524 . S
C1962 C1976 1.377 . S
C1963 C1962 1.524 . S
C1963 C1964 1.397 . S
C1963 C1968 1.363 . S
C1964 H1941 0.950 . S
C1964 C1963 1.397 . S
C1964 C1965 1.334 . S
C1965 H1942 0.950 . S
C1965 C1964 1.334 . S
C1965 C1966 1.287 . S
C1966 C1965 1.287 . S
C1966 C1967 1.524 . S
C1966 H1985 0.913 . S
C1967 H1943 0.950 . S
C1967 C1966 1.524 . S
C1967 C1968 1.415 . S
C1968 H1944 0.950 . S
C1968 C1963 1.363 . S
C1968 C1967 1.415 . S
C1969 H1945 0.951 . S
C1969 C1970 1.366 . S
C1969 C1971 1.388 . S
C1970 C1969 1.366 . S
C1970 C1974 1.385 . S
C1971 H1946 0.951 . S
C1971 C1969 1.388 . S
C1971 C1972 1.366 . S
C1972 C1971 1.366 . S
C1972 C1973 1.414 . S
C1972 C1975 1.499 . S
C1973 H1947 0.950 . S
C1973 C1972 1.414 . S
C1973 C1974 1.374 . S
C1974 H1948 0.950 . S
C1974 C1970 1.385 . S
C1974 C1973 1.374 . S
C1975 C1972 1.499 . S
C1975 C1976 1.373 . S
C1975 C1977 1.389 . S
C1976 H1949 0.950 . S
C1976 C1962 1.377 . S
C1976 C1975 1.373 . S
C1977 C1961 1.377 . S
C1977 C1975 1.389 . S
C1977 C1978 1.524 . S
C1978 C1977 1.524 . S
C1978 C1979 1.397 . S
C1978 C1983 1.363 . S
C1979 H1950 0.950 . S
C1979 C1978 1.397 . S
C1979 C1980 1.334 . S
C1980 H1951 0.950 . S
C1980 C1979 1.334 . S
C1980 C1981 1.287 . S
C1981 C1980 1.287 . S
C1981 C1982 1.524 . S
C1981 H1984 0.999 1_545 S
C1982 H1952 0.950 . S
C1982 C1981 1.524 . S
C1982 C1983 1.415 . S
C1983 H1953 0.950 . S
C1983 C1978 1.363 . S
C1983 C1982 1.415 . S
H1984 C1981 0.999 1_565 S
H1985 C1966 0.913 . S
H1986 C2004 0.951 . S
H1987 C2006 0.951 . S
H1988 C2008 0.950 . S
H1989 C2009 0.950 . S
H1990 C2011 0.951 . S
H1991 C2014 0.950 . S
H1992 C2015 0.950 . S
H1993 C2017 0.950 . S
H1994 C2018 0.950 . S
H1995 C2019 0.951 . S
H1996 C2021 0.951 . S
H1997 C2023 0.950 . S
H1998 C2024 0.950 . S
H1999 C2026 0.951 . S
H2000 C2029 0.950 . S
H2001 C2030 0.950 . S
H2002 C2032 0.950 . S
H2003 C2033 0.950 . S
C2004 H1986 0.951 . S
C2004 C2005 1.366 . S
C2004 C2006 1.388 . S
C2005 C2004 1.366 . S
C2005 C2009 1.385 . S
C2006 H1987 0.951 . S
C2006 C2004 1.388 . S
C2006 C2007 1.366 . S
C2007 C2006 1.366 . S
C2007 C2008 1.414 . S
C2007 C2010 1.499 . S
C2008 H1988 0.950 . S
C2008 C2007 1.414 . S
C2008 C2009 1.374 . S
C2009 H1989 0.950 . S
C2009 C2005 1.385 . S
C2009 C2008 1.374 . S
C2010 C2007 1.499 . S
C2010 C2011 1.385 . S
C2010 C2012 1.389 . S
C2011 H1990 0.951 . S
C2011 C2010 1.385 . S
C2011 C2027 1.364 1_645 S
C2012 C2010 1.389 . S
C2012 C2013 1.524 . S
C2012 C2026 1.364 1_645 S
C2013 C2012 1.524 . S
C2013 C2014 1.397 . S
C2013 C2018 1.363 . S
C2014 H1991 0.950 . S
C2014 C2013 1.397 . S
C2014 C2015 1.334 . S
C2015 H1992 0.950 . S
C2015 C2014 1.334 . S
C2015 C2016 1.287 . S
C2016 C2015 1.287 . S
C2016 C2017 1.524 . S
C2016 H2035 0.913 . S
C2017 H1993 0.950 . S
C2017 C2016 1.524 . S
C2017 C2018 1.415 . S
C2018 H1994 0.950 . S
C2018 C2013 1.363 . S
C2018 C2017 1.415 . S
C2019 H1995 0.951 . S
C2019 C2020 1.366 . S
C2019 C2021 1.388 . S
C2020 C2019 1.366 . S
C2020 C2024 1.385 . S
C2021 H1996 0.951 . S
C2021 C2019 1.388 . S
C2021 C2022 1.366 . S
C2022 C2021 1.366 . S
C2022 C2023 1.414 . S
C2022 C2025 1.499 . S
C2023 H1997 0.950 . S
C2023 C2022 1.414 . S
C2023 C2024 1.374 . S
C2024 H1998 0.950 . S
C2024 C2020 1.385 . S
C2024 C2023 1.374 . S
C2025 C2022 1.499 . S
C2025 C2026 1.385 . S
C2025 C2027 1.389 . S
C2026 H1999 0.951 . S
C2026 C2012 1.364 1_465 S
C2026 C2025 1.385 . S
C2027 C2011 1.364 1_465 S
C2027 C2025 1.389 . S
C2027 C2028 1.524 . S
C2028 C2027 1.524 . S
C2028 C2029 1.397 . S
C2028 C2033 1.363 . S
C2029 H2000 0.950 . S
C2029 C2028 1.397 . S
C2029 C2030 1.334 . S
C2030 H2001 0.950 . S
C2030 C2029 1.334 . S
C2030 C2031 1.287 . S
C2031 C2030 1.287 . S
C2031 C2032 1.524 . S
C2031 H2034 0.999 . S
C2032 H2002 0.950 . S
C2032 C2031 1.524 . S
C2032 C2033 1.415 . S
C2033 H2003 0.950 . S
C2033 C2028 1.363 . S
C2033 C2032 1.415 . S
H2034 C2031 0.999 . S
H2035 C2016 0.913 . S
H2036 C2054 0.951 . S
H2037 C2056 0.951 . S
H2038 C2058 0.950 . S
H2039 C2059 0.950 . S
H2040 C2061 0.950 . S
H2041 C2064 0.950 . S
H2042 C2065 0.950 . S
H2043 C2067 0.950 . S
H2044 C2068 0.950 . S
H2045 C2069 0.951 . S
H2046 C2071 0.951 . S
H2047 C2073 0.950 . S
H2048 C2074 0.950 . S
H2049 C2076 0.950 . S
H2050 C2079 0.950 . S
H2051 C2080 0.950 . S
H2052 C2082 0.950 . S
H2053 C2083 0.950 . S
C2054 H2036 0.951 . S
C2054 C2055 1.366 . S
C2054 C2056 1.388 . S
C2055 C2054 1.366 . S
C2055 C2059 1.385 . S
C2056 H2037 0.951 . S
C2056 C2054 1.388 . S
C2056 C2057 1.366 . S
C2057 C2056 1.366 . S
C2057 C2058 1.414 . S
C2057 C2060 1.499 . S
C2058 H2038 0.950 . S
C2058 C2057 1.414 . S
C2058 C2059 1.374 . S
C2059 H2039 0.950 . S
C2059 C2055 1.385 . S
C2059 C2058 1.374 . S
C2060 C2057 1.499 . S
C2060 C2061 1.373 . S
C2060 C2062 1.389 . S
C2061 H2040 0.950 . S
C2061 C2060 1.373 . S
C2061 C2077 1.377 . S
C2062 C2060 1.389 . S
C2062 C2063 1.524 . S
C2062 C2076 1.377 . S
C2063 C2062 1.524 . S
C2063 C2064 1.397 . S
C2063 C2068 1.363 . S
C2064 H2041 0.950 . S
C2064 C2063 1.397 . S
C2064 C2065 1.334 . S
C2065 H2042 0.950 . S
C2065 C2064 1.334 . S
C2065 C2066 1.287 . S
C2066 C2065 1.287 . S
C2066 C2067 1.524 . S
C2066 H2085 0.913 . S
C2067 H2043 0.950 . S
C2067 C2066 1.524 . S
C2067 C2068 1.415 . S
C2068 H2044 0.950 . S
C2068 C2063 1.363 . S
C2068 C2067 1.415 . S
C2069 H2045 0.951 . S
C2069 C2070 1.366 . S
C2069 C2071 1.388 . S
C2070 C2069 1.366 . S
C2070 C2074 1.385 . S
C2071 H2046 0.951 . S
C2071 C2069 1.388 . S
C2071 C2072 1.366 . S
C2072 C2071 1.366 . S
C2072 C2073 1.414 . S
C2072 C2075 1.499 . S
C2073 H2047 0.950 . S
C2073 C2072 1.414 . S
C2073 C2074 1.374 . S
C2074 H2048 0.950 . S
C2074 C2070 1.385 . S
C2074 C2073 1.374 . S
C2075 C2072 1.499 . S
C2075 C2076 1.373 . S
C2075 C2077 1.389 . S
C2076 H2049 0.950 . S
C2076 C2062 1.377 . S
C2076 C2075 1.373 . S
C2077 C2061 1.377 . S
C2077 C2075 1.389 . S
C2077 C2078 1.524 . S
C2078 C2077 1.524 . S
C2078 C2079 1.397 . S
C2078 C2083 1.363 . S
C2079 H2050 0.950 . S
C2079 C2078 1.397 . S
C2079 C2080 1.334 . S
C2080 H2051 0.950 . S
C2080 C2079 1.334 . S
C2080 C2081 1.287 . S
C2081 C2080 1.287 . S
C2081 C2082 1.524 . S
C2081 H2084 0.999 . S
C2082 H2052 0.950 . S
C2082 C2081 1.524 . S
C2082 C2083 1.415 . S
C2083 H2053 0.950 . S
C2083 C2078 1.363 . S
C2083 C2082 1.415 . S
H2084 C2081 0.999 . S
H2085 C2066 0.913 . S
H2086 C2104 0.951 . S
H2087 C2106 0.951 1_545 S
H2088 C2108 0.950 . S
H2089 C2109 0.950 . S
H2090 C2111 0.950 . S
H2091 C2114 0.950 1_565 S
H2092 C2115 0.950 . S
H2093 C2117 0.950 . S
H2094 C2118 0.950 . S
H2095 C2119 0.951 . S
H2096 C2121 0.951 1_565 S
H2097 C2123 0.950 . S
H2098 C2124 0.950 . S
H2099 C2126 0.950 . S
H2100 C2129 0.950 1_545 S
H2101 C2130 0.950 . S
H2102 C2132 0.950 . S
H2103 C2133 0.950 . S
C2104 H2086 0.951 . S
C2104 C2105 1.366 . S
C2104 C2106 1.388 . S
C2105 C2104 1.366 . S
C2105 C2109 1.385 . S
C2106 H2087 0.951 1_565 S
C2106 C2104 1.388 . S
C2106 C2107 1.366 . S
C2107 C2106 1.366 . S
C2107 C2108 1.414 . S
C2107 C2110 1.499 . S
C2108 H2088 0.950 . S
C2108 C2107 1.414 . S
C2108 C2109 1.374 . S
C2109 H2089 0.950 . S
C2109 C2105 1.385 . S
C2109 C2108 1.374 . S
C2110 C2107 1.499 . S
C2110 C2111 1.373 . S
C2110 C2112 1.389 1_565 S
C2111 H2090 0.950 . S
C2111 C2110 1.373 . S
C2111 C2127 1.377 . S
C2112 C2110 1.389 1_545 S
C2112 C2113 1.524 . S
C2112 C2126 1.377 . S
C2113 C2112 1.524 . S
C2113 C2114 1.397 . S
C2113 C2118 1.363 . S
C2114 H2091 0.950 1_545 S
C2114 C2113 1.397 . S
C2114 C2115 1.334 . S
C2115 H2092 0.950 . S
C2115 C2114 1.334 . S
C2115 C2116 1.287 . S
C2116 C2115 1.287 . S
C2116 C2117 1.524 . S
C2116 H2135 0.913 . S
C2117 H2093 0.950 . S
C2117 C2116 1.524 . S
C2117 C2118 1.415 . S
C2118 H2094 0.950 . S
C2118 C2113 1.363 . S
C2118 C2117 1.415 . S
C2119 H2095 0.951 . S
C2119 C2120 1.366 . S
C2119 C2121 1.388 . S
C2120 C2119 1.366 . S
C2120 C2124 1.385 . S
C2121 H2096 0.951 1_545 S
C2121 C2119 1.388 . S
C2121 C2122 1.366 . S
C2122 C2121 1.366 . S
C2122 C2123 1.414 . S
C2122 C2125 1.499 . S
C2123 H2097 0.950 . S
C2123 C2122 1.414 . S
C2123 C2124 1.374 . S
C2124 H2098 0.950 . S
C2124 C2120 1.385 . S
C2124 C2123 1.374 . S
C2125 C2122 1.499 . S
C2125 C2126 1.373 . S
C2125 C2127 1.389 1_545 S
C2126 H2099 0.950 . S
C2126 C2112 1.377 . S
C2126 C2125 1.373 . S
C2127 C2111 1.377 . S
C2127 C2125 1.389 1_565 S
C2127 C2128 1.524 . S
C2128 C2127 1.524 . S
C2128 C2129 1.397 . S
C2128 C2133 1.363 . S
C2129 H2100 0.950 1_565 S
C2129 C2128 1.397 . S
C2129 C2130 1.334 . S
C2130 H2101 0.950 . S
C2130 C2129 1.334 . S
C2130 C2131 1.287 . S
C2131 C2130 1.287 . S
C2131 C2132 1.524 . S
C2131 H2134 0.999 . S
C2132 H2102 0.950 . S
C2132 C2131 1.524 . S
C2132 C2133 1.415 . S
C2133 H2103 0.950 . S
C2133 C2128 1.363 . S
C2133 C2132 1.415 . S
H2134 C2131 0.999 . S
H2135 C2116 0.913 . S
C555 C45 0.955 . S
C570 C100 0.953 . S
C605 C41 0.955 . S
C620 C161 0.959 . S
C655 C234 0.959 . S
C670 C112 0.954 . S
C705 C175 0.955 . S
C720 C228 0.962 . S
C755 C246 0.954 . S
C770 C301 0.958 . S
C805 C362 0.960 . S
C820 C242 0.956 . S
C855 C313 0.954 . S
C870 C33 0.962 . S
C905 C376 0.955 . S
C920 C27 0.968 . S
C955 C368 0.961 . S
C970 C447 0.956 . S
C1005 C443 0.955 . S
C1020 C295 0.959 . S
C1055 C502 0.961 . S
C1070 C380 0.960 . S
C1105 C496 0.961 . S
C1120 C309 0.960 . S
C1155 C514 0.954 . S
C1170 C167 0.955 . S
C1205 C94 0.960 . S
C1220 C510 0.948 . S
C1255 C435 0.961 . S
C1270 C179 0.955 . S
C1305 C429 0.959 . S
C1320 C108 0.955 . S
C1355 C35 1.894 . S
C1370 C24 1.894 . S
C1405 C91 1.894 . S
C1420 C102 1.894 1_565 S
C1455 C158 1.894 1_545 S
C1470 C169 1.894 . S
C1505 C225 1.894 . S
C1520 C236 1.894 . S
C1555 C292 1.894 1_545 S
C1570 C303 1.894 . S
C1605 C359 1.894 . S
C1620 C370 1.894 1_565 S
C1655 C437 1.894 . S
C1670 C426 1.894 . S
C1705 C493 1.894 . S
C1720 C504 1.894 . S
C1755 C508 1.205 . S
C1770 C48 1.200 . S
C1805 C39 1.205 . S
C1820 C517 1.209 . S
C1855 C115 1.204 . S
C1870 C173 1.205 . S
C1905 C441 1.205 . S
C1920 C249 1.202 . S
C1955 C240 1.205 . S
C1970 C450 1.206 . S
C2005 C374 1.205 . S
C2020 C316 1.204 . S
C2055 C383 1.205 . S
C2070 C307 1.204 . S
C2105 C182 1.205 . S
C2120 C106 1.204 . S
