# Generated by pormake.
# Topology yfs, (5)-cn, num edge types: 1
# Building blocks:
#     Node 0, Type 0, BuildingBlock: BEQFEK_clean_sbu_0, # of connection points: 5
#     Node 1, Type 0, BuildingBlock: BEQFEK_clean_sbu_0, # of connection points: 5
#     Node 2, Type 0, BuildingBlock: BEQFEK_clean_sbu_0, # of connection points: 5
#     Node 3, Type 0, BuildingBlock: BEQFEK_clean_sbu_0, # of connection points: 5
#     Node 4, Type 0, BuildingBlock: BEQFEK_clean_sbu_0, # of connection points: 5
#     Node 5, Type 0, BuildingBlock: BEQFEK_clean_sbu_0, # of connection points: 5
#     Node 6, Type 0, BuildingBlock: BEQFEK_clean_sbu_0, # of connection points: 5
#     Node 7, Type 0, BuildingBlock: BEQFEK_clean_sbu_0, # of connection points: 5
#     Node 8, Type 0, BuildingBlock: BEQFEK_clean_sbu_0, # of connection points: 5
#     Node 9, Type 0, BuildingBlock: BEQFEK_clean_sbu_0, # of connection points: 5
#     Node 10, Type 0, BuildingBlock: BEQFEK_clean_sbu_0, # of connection points: 5
#     Node 11, Type 0, BuildingBlock: BEQFEK_clean_sbu_0, # of connection points: 5
#     Node 12, Type 0, BuildingBlock: BEQFEK_clean_sbu_0, # of connection points: 5
#     Node 13, Type 0, BuildingBlock: BEQFEK_clean_sbu_0, # of connection points: 5
#     Node 14, Type 0, BuildingBlock: BEQFEK_clean_sbu_0, # of connection points: 5
#     Node 15, Type 0, BuildingBlock: BEQFEK_clean_sbu_0, # of connection points: 5
#     Node 16, Type 0, BuildingBlock: BEQFEK_clean_sbu_0, # of connection points: 5
#     Node 17, Type 0, BuildingBlock: BEQFEK_clean_sbu_0, # of connection points: 5
#     Node 18, Type 0, BuildingBlock: BEQFEK_clean_sbu_0, # of connection points: 5
#     Node 19, Type 0, BuildingBlock: BEQFEK_clean_sbu_0, # of connection points: 5
#     Node 20, Type 0, BuildingBlock: BEQFEK_clean_sbu_0, # of connection points: 5
#     Node 21, Type 0, BuildingBlock: BEQFEK_clean_sbu_0, # of connection points: 5
#     Node 22, Type 0, BuildingBlock: BEQFEK_clean_sbu_0, # of connection points: 5
#     Node 23, Type 0, BuildingBlock: BEQFEK_clean_sbu_0, # of connection points: 5
#     Node 24, Type 0, BuildingBlock: BEQFEK_clean_sbu_0, # of connection points: 5
#     Node 25, Type 0, BuildingBlock: BEQFEK_clean_sbu_0, # of connection points: 5
#     Node 26, Type 0, BuildingBlock: BEQFEK_clean_sbu_0, # of connection points: 5
#     Node 27, Type 0, BuildingBlock: BEQFEK_clean_sbu_0, # of connection points: 5
#     Node 28, Type 0, BuildingBlock: BEQFEK_clean_sbu_0, # of connection points: 5
#     Node 29, Type 0, BuildingBlock: BEQFEK_clean_sbu_0, # of connection points: 5
#     Node 30, Type 0, BuildingBlock: BEQFEK_clean_sbu_0, # of connection points: 5
#     Node 31, Type 0, BuildingBlock: BEQFEK_clean_sbu_0, # of connection points: 5
#     Edge 32, Type (0, 0), BuildingBlock: XUDNAN_clean_linker_2, # of connection points: 2
#     Edge 33, Type (0, 0), BuildingBlock: XUDNAN_clean_linker_2, # of connection points: 2
#     Edge 34, Type (0, 0), BuildingBlock: XUDNAN_clean_linker_2, # of connection points: 2
#     Edge 35, Type (0, 0), BuildingBlock: XUDNAN_clean_linker_2, # of connection points: 2
#     Edge 36, Type (0, 0), BuildingBlock: XUDNAN_clean_linker_2, # of connection points: 2
#     Edge 37, Type (0, 0), BuildingBlock: XUDNAN_clean_linker_2, # of connection points: 2
#     Edge 38, Type (0, 0), BuildingBlock: XUDNAN_clean_linker_2, # of connection points: 2
#     Edge 39, Type (0, 0), BuildingBlock: XUDNAN_clean_linker_2, # of connection points: 2
#     Edge 40, Type (0, 0), BuildingBlock: XUDNAN_clean_linker_2, # of connection points: 2
#     Edge 41, Type (0, 0), BuildingBlock: XUDNAN_clean_linker_2, # of connection points: 2
#     Edge 42, Type (0, 0), BuildingBlock: XUDNAN_clean_linker_2, # of connection points: 2
#     Edge 43, Type (0, 0), BuildingBlock: XUDNAN_clean_linker_2, # of connection points: 2
#     Edge 44, Type (0, 0), BuildingBlock: XUDNAN_clean_linker_2, # of connection points: 2
#     Edge 45, Type (0, 0), BuildingBlock: XUDNAN_clean_linker_2, # of connection points: 2
#     Edge 46, Type (0, 0), BuildingBlock: XUDNAN_clean_linker_2, # of connection points: 2
#     Edge 47, Type (0, 0), BuildingBlock: XUDNAN_clean_linker_2, # of connection points: 2
#     Edge 48, Type (0, 0), BuildingBlock: XUDNAN_clean_linker_2, # of connection points: 2
#     Edge 49, Type (0, 0), BuildingBlock: XUDNAN_clean_linker_2, # of connection points: 2
#     Edge 50, Type (0, 0), BuildingBlock: XUDNAN_clean_linker_2, # of connection points: 2
#     Edge 51, Type (0, 0), BuildingBlock: XUDNAN_clean_linker_2, # of connection points: 2
#     Edge 52, Type (0, 0), BuildingBlock: XUDNAN_clean_linker_2, # of connection points: 2
#     Edge 53, Type (0, 0), BuildingBlock: XUDNAN_clean_linker_2, # of connection points: 2
#     Edge 54, Type (0, 0), BuildingBlock: XUDNAN_clean_linker_2, # of connection points: 2
#     Edge 55, Type (0, 0), BuildingBlock: XUDNAN_clean_linker_2, # of connection points: 2
#     Edge 56, Type (0, 0), BuildingBlock: XUDNAN_clean_linker_2, # of connection points: 2
#     Edge 57, Type (0, 0), BuildingBlock: XUDNAN_clean_linker_2, # of connection points: 2
#     Edge 58, Type (0, 0), BuildingBlock: XUDNAN_clean_linker_2, # of connection points: 2
#     Edge 59, Type (0, 0), BuildingBlock: XUDNAN_clean_linker_2, # of connection points: 2
#     Edge 60, Type (0, 0), BuildingBlock: XUDNAN_clean_linker_2, # of connection points: 2
#     Edge 61, Type (0, 0), BuildingBlock: XUDNAN_clean_linker_2, # of connection points: 2
#     Edge 62, Type (0, 0), BuildingBlock: XUDNAN_clean_linker_2, # of connection points: 2
#     Edge 63, Type (0, 0), BuildingBlock: XUDNAN_clean_linker_2, # of connection points: 2
#     Edge 64, Type (0, 0), BuildingBlock: XUDNAN_clean_linker_2, # of connection points: 2
#     Edge 65, Type (0, 0), BuildingBlock: XUDNAN_clean_linker_2, # of connection points: 2
#     Edge 66, Type (0, 0), BuildingBlock: XUDNAN_clean_linker_2, # of connection points: 2
#     Edge 67, Type (0, 0), BuildingBlock: XUDNAN_clean_linker_2, # of connection points: 2
#     Edge 68, Type (0, 0), BuildingBlock: XUDNAN_clean_linker_2, # of connection points: 2
#     Edge 69, Type (0, 0), BuildingBlock: XUDNAN_clean_linker_2, # of connection points: 2
#     Edge 70, Type (0, 0), BuildingBlock: XUDNAN_clean_linker_2, # of connection points: 2
#     Edge 71, Type (0, 0), BuildingBlock: XUDNAN_clean_linker_2, # of connection points: 2
#     Edge 72, Type (0, 0), BuildingBlock: XUDNAN_clean_linker_2, # of connection points: 2
#     Edge 73, Type (0, 0), BuildingBlock: XUDNAN_clean_linker_2, # of connection points: 2
#     Edge 74, Type (0, 0), BuildingBlock: XUDNAN_clean_linker_2, # of connection points: 2
#     Edge 75, Type (0, 0), BuildingBlock: XUDNAN_clean_linker_2, # of connection points: 2
#     Edge 76, Type (0, 0), BuildingBlock: XUDNAN_clean_linker_2, # of connection points: 2
#     Edge 77, Type (0, 0), BuildingBlock: XUDNAN_clean_linker_2, # of connection points: 2
#     Edge 78, Type (0, 0), BuildingBlock: XUDNAN_clean_linker_2, # of connection points: 2
#     Edge 79, Type (0, 0), BuildingBlock: XUDNAN_clean_linker_2, # of connection points: 2
#     Edge 80, Type (0, 0), BuildingBlock: XUDNAN_clean_linker_2, # of connection points: 2
#     Edge 81, Type (0, 0), BuildingBlock: XUDNAN_clean_linker_2, # of connection points: 2
#     Edge 82, Type (0, 0), BuildingBlock: XUDNAN_clean_linker_2, # of connection points: 2
#     Edge 83, Type (0, 0), BuildingBlock: XUDNAN_clean_linker_2, # of connection points: 2
#     Edge 84, Type (0, 0), BuildingBlock: XUDNAN_clean_linker_2, # of connection points: 2
#     Edge 85, Type (0, 0), BuildingBlock: XUDNAN_clean_linker_2, # of connection points: 2
#     Edge 86, Type (0, 0), BuildingBlock: XUDNAN_clean_linker_2, # of connection points: 2
#     Edge 87, Type (0, 0), BuildingBlock: XUDNAN_clean_linker_2, # of connection points: 2
#     Edge 88, Type (0, 0), BuildingBlock: XUDNAN_clean_linker_2, # of connection points: 2
#     Edge 89, Type (0, 0), BuildingBlock: XUDNAN_clean_linker_2, # of connection points: 2
#     Edge 90, Type (0, 0), BuildingBlock: XUDNAN_clean_linker_2, # of connection points: 2
#     Edge 91, Type (0, 0), BuildingBlock: XUDNAN_clean_linker_2, # of connection points: 2
#     Edge 92, Type (0, 0), BuildingBlock: XUDNAN_clean_linker_2, # of connection points: 2
#     Edge 93, Type (0, 0), BuildingBlock: XUDNAN_clean_linker_2, # of connection points: 2
#     Edge 94, Type (0, 0), BuildingBlock: XUDNAN_clean_linker_2, # of connection points: 2
#     Edge 95, Type (0, 0), BuildingBlock: XUDNAN_clean_linker_2, # of connection points: 2
#     Edge 96, Type (0, 0), BuildingBlock: XUDNAN_clean_linker_2, # of connection points: 2
#     Edge 97, Type (0, 0), BuildingBlock: XUDNAN_clean_linker_2, # of connection points: 2
#     Edge 98, Type (0, 0), BuildingBlock: XUDNAN_clean_linker_2, # of connection points: 2
#     Edge 99, Type (0, 0), BuildingBlock: XUDNAN_clean_linker_2, # of connection points: 2
#     Edge 100, Type (0, 0), BuildingBlock: XUDNAN_clean_linker_2, # of connection points: 2
#     Edge 101, Type (0, 0), BuildingBlock: XUDNAN_clean_linker_2, # of connection points: 2
#     Edge 102, Type (0, 0), BuildingBlock: XUDNAN_clean_linker_2, # of connection points: 2
#     Edge 103, Type (0, 0), BuildingBlock: XUDNAN_clean_linker_2, # of connection points: 2
#     Edge 104, Type (0, 0), BuildingBlock: XUDNAN_clean_linker_2, # of connection points: 2
#     Edge 105, Type (0, 0), BuildingBlock: XUDNAN_clean_linker_2, # of connection points: 2
#     Edge 106, Type (0, 0), BuildingBlock: XUDNAN_clean_linker_2, # of connection points: 2
#     Edge 107, Type (0, 0), BuildingBlock: XUDNAN_clean_linker_2, # of connection points: 2
#     Edge 108, Type (0, 0), BuildingBlock: XUDNAN_clean_linker_2, # of connection points: 2
#     Edge 109, Type (0, 0), BuildingBlock: XUDNAN_clean_linker_2, # of connection points: 2
#     Edge 110, Type (0, 0), BuildingBlock: XUDNAN_clean_linker_2, # of connection points: 2
#     Edge 111, Type (0, 0), BuildingBlock: XUDNAN_clean_linker_2, # of connection points: 2
# Relax obj value: 0.319
# Max RMSD: 0.166
# Mean RMSD: 0.166
data_MOF--net-yfs--node1-BEQFEK_clean_sbu_0--edge1-XUDNAN_clean_linker_2
_symmetry_space_group_name_H-M    P1
_symmetry_Int_Tables_number       1
_symmetry_cell_setting            triclinic
loop_
_symmetry_equiv_pos_as_xyz
'x, y, z'
_cell_length_a     49.281052
_cell_length_b     49.273422
_cell_length_c     84.609581
_cell_angle_alpha  90.019591
_cell_angle_beta   89.935973
_cell_angle_gamma 89.987037
loop_
_atom_site_label
_atom_site_type_symbol
_atom_site_fract_x
_atom_site_fract_y
_atom_site_fract_z
_atom_type_partial_charge
Co0 Co 0.43063 0.12489 0.18152 0.0
Co1 Co 0.3958 0.1562 0.20663 0.0
C2 C 0.38933 0.16445 0.17144 0.0
O3 O 0.4057 0.14557 0.16765 0.0
O4 O 0.38507 0.17061 0.18581 0.0
C5 C 0.44686 0.09221 0.15479 0.0
O6 O 0.42078 0.09135 0.15161 0.0
C7 C 0.34754 0.18282 0.21875 0.0
C8 C 0.35977 0.19415 0.24296 0.0
C9 C 0.33939 0.1975 0.23188 0.0
N10 N 0.37186 0.17173 0.22177 0.0
N11 N 0.37895 0.17829 0.23635 0.0
C12 C 0.33251 0.17936 0.20351 0.0
H13 H 0.33699 0.15914 0.19835 0.0
H14 H 0.31031 0.1815 0.20539 0.0
H15 H 0.33919 0.19515 0.19502 0.0
C16 C 0.40942 0.07782 0.20021 0.0
N17 N 0.41085 0.10449 0.19678 0.0
N18 N 0.39562 0.11797 0.2069 0.0
C19 C 0.38391 0.10049 0.21699 0.0
C20 C 0.39217 0.07443 0.21308 0.0
C21 C 0.42456 0.05629 0.1914 0.0
H22 H 0.41908 0.05728 0.17871 0.0
H23 H 0.41992 0.03571 0.19599 0.0
H24 H 0.44667 0.06023 0.19233 0.0
O25 O 0.45537 0.15121 0.19195 0.0
O26 O 0.43198 0.1698 0.2116 0.0
H27 H 0.36113 0.09174 0.23847 0.0
H28 H 0.34946 0.12049 0.22705 0.0
C29 C 0.36761 0.10911 0.23107 0.0
H30 H 0.38002 0.12293 0.23846 0.0
H31 H 0.39748 0.17312 0.24148 0.0
O32 O 0.45474 0.1032 0.16757 0.0
C33 C 0.45389 0.16683 0.20391 0.0
Co34 Co 0.1161 0.16155 0.43134 0.0
Co35 Co 0.08719 0.12822 0.4582 0.0
C36 C 0.07936 0.11673 0.42318 0.0
O37 O 0.09725 0.13368 0.41864 0.0
O38 O 0.07356 0.11366 0.43774 0.0
C39 C 0.14198 0.18297 0.40285 0.0
O40 O 0.13187 0.16163 0.39564 0.0
C41 C 0.05991 0.08338 0.47456 0.0
C42 C 0.05094 0.10253 0.49763 0.0
C43 C 0.04594 0.0796 0.48866 0.0
N44 N 0.07255 0.10754 0.47523 0.0
N45 N 0.06742 0.11866 0.48913 0.0
C46 C 0.05748 0.06694 0.45975 0.0
H47 H 0.04129 0.07579 0.45223 0.0
H48 H 0.07687 0.06762 0.45309 0.0
H49 H 0.05213 0.04555 0.46224 0.0
C50 C 0.16352 0.14951 0.45157 0.0
N51 N 0.13737 0.14562 0.44765 0.0
N52 N 0.12538 0.13164 0.45891 0.0
C53 C 0.14334 0.12668 0.47055 0.0
C54 C 0.16822 0.13804 0.46635 0.0
C55 C 0.18309 0.16535 0.44167 0.0
H56 H 0.18096 0.15932 0.4291 0.0
H57 H 0.20435 0.16192 0.4455 0.0
H58 H 0.17822 0.18729 0.44259 0.0
O59 O 0.08769 0.1862 0.44026 0.0
O60 O 0.07127 0.16387 0.46095 0.0
H61 H 0.12197 0.13109 0.49232 0.0
H62 H 0.15259 0.11186 0.49427 0.0
C63 C 0.13515 0.11593 0.48642 0.0
H64 H 0.12333 0.09696 0.48489 0.0
H65 H 0.07346 0.13817 0.49237 0.0
O66 O 0.13845 0.18566 0.41766 0.0
C67 C 0.07237 0.18488 0.45236 0.0
Co68 Co 0.0757 0.86991 0.67815 0.0
Co69 Co 0.12351 0.85075 0.70018 0.0
C70 C 0.12458 0.84022 0.66557 0.0
O71 O 0.10206 0.85237 0.66349 0.0
O72 O 0.13538 0.8385 0.67916 0.0
C73 C 0.05194 0.90181 0.65319 0.0
O74 O 0.07702 0.90977 0.65068 0.0
C75 C 0.17222 0.82634 0.71332 0.0
C76 C 0.16224 0.82543 0.73875 0.0
C77 C 0.18033 0.81538 0.72767 0.0
N78 N 0.14992 0.84147 0.71574 0.0
N79 N 0.14437 0.84128 0.73103 0.0
C80 C 0.1849 0.82184 0.69745 0.0
H81 H 0.18405 0.84085 0.69044 0.0
H82 H 0.20637 0.81534 0.69863 0.0
H83 H 0.17346 0.80592 0.69103 0.0
C84 C 0.0858 0.92121 0.69547 0.0
N85 N 0.09243 0.89548 0.69177 0.0
N86 N 0.11314 0.88781 0.70054 0.0
C87 C 0.12076 0.90867 0.70981 0.0
C88 C 0.10356 0.93046 0.70701 0.0
C89 C 0.06099 0.93535 0.68944 0.0
H90 H 0.04442 0.92049 0.68755 0.0
H91 H 0.06579 0.94511 0.67796 0.0
H92 H 0.05392 0.95118 0.69782 0.0
O93 O 0.05825 0.8409 0.69067 0.0
O94 O 0.09265 0.82751 0.70564 0.0
H95 H 0.13712 0.89935 0.73253 0.0
H96 H 0.15236 0.92841 0.72318 0.0
C97 C 0.14413 0.90776 0.72108 0.0
H98 H 0.16042 0.89451 0.71635 0.0
H99 H 0.12708 0.85002 0.736 0.0
O100 O 0.04696 0.886 0.66469 0.0
C101 C 0.06817 0.82531 0.70116 0.0
Co102 Co 0.37744 0.82257 0.93426 0.0
Co103 Co 0.40032 0.86884 0.95591 0.0
C104 C 0.40634 0.87061 0.92069 0.0
O105 O 0.39298 0.84874 0.91885 0.0
O106 O 0.41078 0.88038 0.93435 0.0
C107 C 0.34393 0.79822 0.91027 0.0
O108 O 0.33727 0.82341 0.90697 0.0
C109 C 0.41446 0.92301 0.96749 0.0
C110 C 0.42882 0.91368 0.99164 0.0
C111 C 0.42623 0.93453 0.98079 0.0
N112 N 0.41026 0.89654 0.97043 0.0
N113 N 0.41857 0.89117 0.98494 0.0
C114 C 0.41098 0.93558 0.95151 0.0
H115 H 0.42884 0.93042 0.9441 0.0
H116 H 0.3926 0.92719 0.94573 0.0
H117 H 0.40936 0.95795 0.95214 0.0
C118 C 0.32866 0.83281 0.9539 0.0
N119 N 0.35356 0.83976 0.94875 0.0
N120 N 0.36308 0.85941 0.95772 0.0
C121 C 0.34452 0.86562 0.96886 0.0
C122 C 0.32213 0.84879 0.96691 0.0
C123 C 0.31243 0.8099 0.94716 0.0
H124 H 0.32418 0.79075 0.94813 0.0
H125 H 0.3087 0.81382 0.93446 0.0
H126 H 0.29254 0.80759 0.95315 0.0
O127 O 0.40745 0.80463 0.946 0.0
O128 O 0.42289 0.83756 0.96144 0.0
H129 H 0.36621 0.87452 0.99005 0.0
H130 H 0.33212 0.88743 0.99005 0.0
C131 C 0.35026 0.88389 0.98261 0.0
H132 H 0.35793 0.90367 0.97824 0.0
H133 H 0.41849 0.87184 0.98997 0.0
O134 O 0.35962 0.79349 0.92185 0.0
C135 C 0.42378 0.8132 0.95655 0.0
Co136 Co 0.41699 0.86071 0.31441 0.0
Co137 Co 0.38115 0.83485 0.28785 0.0
C138 C 0.37075 0.82624 0.32296 0.0
O139 O 0.38907 0.84254 0.32774 0.0
O140 O 0.36716 0.82193 0.3083 0.0
C141 C 0.43987 0.89443 0.33997 0.0
O142 O 0.41494 0.90154 0.3436 0.0
C143 C 0.32807 0.82356 0.27564 0.0
C144 C 0.33641 0.79915 0.25431 0.0
C145 C 0.31564 0.8078 0.26418 0.0
N146 N 0.35486 0.82364 0.27292 0.0
N147 N 0.35978 0.80943 0.25999 0.0
C148 C 0.31494 0.8386 0.289 0.0
H149 H 0.31411 0.82545 0.2996 0.0
H150 H 0.32709 0.85681 0.29208 0.0
H151 H 0.29395 0.84468 0.28584 0.0
C152 C 0.40237 0.91094 0.296 0.0
N153 N 0.40107 0.88403 0.2989 0.0
N154 N 0.38607 0.87257 0.28789 0.0
C155 C 0.37741 0.89153 0.27769 0.0
C156 C 0.38712 0.9165 0.28255 0.0
C157 C 0.41764 0.93076 0.30598 0.0
H158 H 0.43865 0.92333 0.30784 0.0
H159 H 0.40768 0.93221 0.31771 0.0
H160 H 0.41813 0.95124 0.30057 0.0
O161 O 0.43842 0.83158 0.30402 0.0
O162 O 0.41532 0.81622 0.28334 0.0
H163 H 0.37079 0.86699 0.25712 0.0
H164 H 0.36322 0.90244 0.25426 0.0
C165 C 0.3622 0.88537 0.26279 0.0
H166 H 0.34063 0.88134 0.26571 0.0
H167 H 0.37915 0.80543 0.25559 0.0
O168 O 0.44408 0.87899 0.32819 0.0
C169 C 0.43643 0.81632 0.29193 0.0
Co170 Co 0.37539 0.16402 0.57455 0.0
Co171 Co 0.39384 0.11788 0.55136 0.0
C172 C 0.40389 0.1124 0.58548 0.0
O173 O 0.3928 0.13545 0.58788 0.0
O174 O 0.40548 0.1021 0.5717 0.0
C175 C 0.34655 0.18736 0.60129 0.0
O176 O 0.33911 0.16237 0.60452 0.0
C177 C 0.42244 0.07671 0.53294 0.0
C178 C 0.41232 0.08975 0.50863 0.0
C179 C 0.42862 0.0722 0.51713 0.0
N180 N 0.40303 0.09584 0.53367 0.0
N181 N 0.39706 0.10346 0.5191 0.0
C182 C 0.43832 0.06757 0.54705 0.0
H183 H 0.44673 0.08561 0.55318 0.0
H184 H 0.42452 0.05709 0.55544 0.0
H185 H 0.45526 0.05385 0.54386 0.0
C186 C 0.32387 0.15648 0.55699 0.0
N187 N 0.34932 0.14887 0.56064 0.0
N188 N 0.35643 0.12829 0.5516 0.0
C189 C 0.33517 0.12142 0.54239 0.0
C190 C 0.31407 0.13961 0.5451 0.0
C191 C 0.30974 0.18018 0.5644 0.0
H192 H 0.3218 0.19887 0.56236 0.0
H193 H 0.30845 0.17692 0.57733 0.0
H194 H 0.28888 0.18285 0.55975 0.0
O195 O 0.40384 0.18311 0.56248 0.0
O196 O 0.41744 0.14909 0.54742 0.0
H197 H 0.33678 0.10744 0.51841 0.0
H198 H 0.3167 0.08675 0.53128 0.0
C199 C 0.33554 0.09887 0.53052 0.0
H200 H 0.35264 0.08487 0.53272 0.0
H201 H 0.38437 0.11971 0.51635 0.0
O202 O 0.36035 0.19205 0.5889 0.0
C203 C 0.41963 0.17344 0.55204 0.0
Co204 Co 0.06958 0.13776 0.81229 0.0
Co205 Co 0.11889 0.16109 0.79312 0.0
C206 C 0.11438 0.16881 0.82795 0.0
O207 O 0.09293 0.15451 0.829 0.0
O208 O 0.12597 0.17293 0.81478 0.0
C209 C 0.04083 0.10047 0.83305 0.0
O210 O 0.06455 0.08887 0.83523 0.0
C211 C 0.17367 0.179 0.78455 0.0
C212 C 0.16918 0.1861 0.75887 0.0
C213 C 0.18732 0.18844 0.77129 0.0
N214 N 0.14869 0.17122 0.78009 0.0
N215 N 0.1462 0.17536 0.76473 0.0
C216 C 0.18232 0.18108 0.80148 0.0
H217 H 0.17092 0.19784 0.80721 0.0
H218 H 0.17725 0.16195 0.80774 0.0
H219 H 0.20421 0.18537 0.80281 0.0
C220 C 0.08303 0.08952 0.79251 0.0
N221 N 0.08917 0.11398 0.79873 0.0
N222 N 0.111 0.12349 0.79164 0.0
C223 C 0.12 0.10496 0.78121 0.0
C224 C 0.10237 0.08308 0.78115 0.0
C225 C 0.05683 0.07498 0.7954 0.0
H226 H 0.04023 0.08982 0.79731 0.0
H227 H 0.05884 0.06242 0.80622 0.0
H228 H 0.05157 0.0614 0.7854 0.0
O229 O 0.05336 0.16727 0.79958 0.0
O230 O 0.08811 0.18277 0.78555 0.0
H231 H 0.13712 0.12163 0.76013 0.0
H232 H 0.15113 0.08934 0.76574 0.0
C233 C 0.14359 0.10907 0.77032 0.0
H234 H 0.16028 0.11958 0.77661 0.0
H235 H 0.1284 0.17191 0.75837 0.0
O236 O 0.03885 0.12015 0.82343 0.0
C237 C 0.06316 0.18347 0.78934 0.0
Co238 Co 0.11385 0.82769 0.07475 0.0
Co239 Co 0.08812 0.85818 0.04592 0.0
C240 C 0.07658 0.87349 0.0802 0.0
O241 O 0.09371 0.85677 0.08595 0.0
O242 O 0.07245 0.87527 0.06534 0.0
C243 C 0.13953 0.80585 0.10375 0.0
O244 O 0.13163 0.82778 0.1113 0.0
C245 C 0.06795 0.90281 0.02598 0.0
C246 C 0.06341 0.88183 0.00304 0.0
C247 C 0.05934 0.9065 0.0105 0.0
N248 N 0.07659 0.8771 0.02755 0.0
N249 N 0.07376 0.86467 0.0138 0.0
C250 C 0.06856 0.92326 0.03904 0.0
H251 H 0.08586 0.91905 0.04707 0.0
H252 H 0.07026 0.94417 0.03427 0.0
H253 H 0.04954 0.92166 0.04602 0.0
C254 C 0.16376 0.83887 0.05646 0.0
N255 N 0.13699 0.84213 0.05894 0.0
N256 N 0.12635 0.85492 0.0468 0.0
C257 C 0.14595 0.85988 0.03605 0.0
C258 C 0.1704 0.84972 0.04179 0.0
C259 C 0.18227 0.82445 0.06767 0.0
H260 H 0.17816 0.83138 0.07991 0.0
H261 H 0.20391 0.82825 0.06476 0.0
H262 H 0.17819 0.80232 0.06711 0.0
O263 O 0.08645 0.80252 0.06564 0.0
O264 O 0.07198 0.82228 0.04369 0.0
H265 H 0.12767 0.85478 0.01342 0.0
H266 H 0.15883 0.87341 0.01266 0.0
C267 C 0.14023 0.86999 0.01969 0.0
H268 H 0.12858 0.88922 0.02038 0.0
H269 H 0.07843 0.8443 0.01185 0.0
O270 O 0.13459 0.80353 0.08908 0.0
C271 C 0.07223 0.80231 0.05311 0.0
Co272 Co 0.57179 0.87216 0.81671 0.0
Co273 Co 0.61258 0.84368 0.79357 0.0
C274 C 0.61594 0.83831 0.82921 0.0
O275 O 0.59729 0.85559 0.8319 0.0
O276 O 0.62256 0.83166 0.81518 0.0
C277 C 0.54416 0.89915 0.84267 0.0
O278 O 0.56709 0.89618 0.85038 0.0
C279 C 0.66448 0.8222 0.78307 0.0
C280 C 0.65586 0.8105 0.75838 0.0
C281 C 0.67547 0.80894 0.77008 0.0
N282 N 0.63938 0.83057 0.77934 0.0
N283 N 0.63445 0.82387 0.76449 0.0
C284 C 0.67763 0.82762 0.7987 0.0
H285 H 0.67036 0.84727 0.80353 0.0
H286 H 0.70006 0.82816 0.79752 0.0
H287 H 0.67197 0.81136 0.80715 0.0
C288 C 0.58847 0.91992 0.79778 0.0
N289 N 0.59035 0.89352 0.80163 0.0
N290 N 0.6083 0.88173 0.79237 0.0
C291 C 0.61879 0.90032 0.78247 0.0
C292 C 0.60644 0.92513 0.78547 0.0
C293 C 0.56812 0.93891 0.80489 0.0
H294 H 0.54834 0.92843 0.80619 0.0
H295 H 0.57508 0.94495 0.81685 0.0
H296 H 0.56525 0.95734 0.79756 0.0
O297 O 0.55184 0.84244 0.80632 0.0
O298 O 0.57865 0.82537 0.78772 0.0
H299 H 0.63166 0.88315 0.76052 0.0
H300 H 0.65027 0.91324 0.76621 0.0
C301 C 0.64058 0.89438 0.77062 0.0
H302 H 0.65638 0.88139 0.77607 0.0
H303 H 0.61604 0.82737 0.75876 0.0
O304 O 0.54301 0.89222 0.82822 0.0
C305 C 0.55601 0.82628 0.79486 0.0
Co306 Co 0.88363 0.82507 0.56524 0.0
Co307 Co 0.9074 0.86094 0.53794 0.0
C308 C 0.91709 0.87286 0.57283 0.0
O309 O 0.90171 0.85377 0.57758 0.0
O310 O 0.92093 0.87708 0.55814 0.0
C311 C 0.85369 0.80455 0.59252 0.0
O312 O 0.84917 0.83006 0.59619 0.0
C313 C 0.9181 0.91182 0.5211 0.0
C314 C 0.93884 0.89672 0.49967 0.0
C315 C 0.93192 0.92029 0.50765 0.0
N316 N 0.91723 0.88457 0.52109 0.0
N317 N 0.92918 0.87569 0.50809 0.0
C318 C 0.90857 0.92902 0.5346 0.0
H319 H 0.92562 0.94147 0.53916 0.0
H320 H 0.89996 0.91639 0.54419 0.0
H321 H 0.89241 0.94296 0.53047 0.0
C322 C 0.83298 0.83478 0.54697 0.0
N323 N 0.85942 0.83943 0.54989 0.0
N324 N 0.86965 0.85388 0.53824 0.0
C325 C 0.85032 0.85827 0.52732 0.0
C326 C 0.82628 0.84638 0.53248 0.0
C327 C 0.81481 0.81903 0.55777 0.0
H328 H 0.81771 0.82616 0.57007 0.0
H329 H 0.79313 0.82149 0.55458 0.0
H330 H 0.82042 0.79724 0.55728 0.0
O331 O 0.91246 0.80338 0.55494 0.0
O332 O 0.92721 0.82698 0.53432 0.0
H333 H 0.87521 0.86107 0.50663 0.0
H334 H 0.83974 0.86569 0.50271 0.0
C335 C 0.85614 0.86991 0.51131 0.0
H336 H 0.85898 0.89217 0.51239 0.0
H337 H 0.93204 0.85523 0.50539 0.0
O338 O 0.86635 0.79884 0.57987 0.0
C339 C 0.9276 0.80579 0.54283 0.0
Co340 Co 0.91761 0.12961 0.31794 0.0
Co341 Co 0.88735 0.15884 0.2902 0.0
C342 C 0.87332 0.17007 0.32417 0.0
O343 O 0.89059 0.15281 0.32924 0.0
O344 O 0.87015 0.17432 0.30941 0.0
C345 C 0.93604 0.10679 0.34773 0.0
O346 O 0.91621 0.12078 0.35418 0.0
C347 C 0.84675 0.18457 0.26969 0.0
C348 C 0.8694 0.18667 0.24715 0.0
C349 C 0.8453 0.19431 0.2543 0.0
N350 N 0.87079 0.17218 0.27155 0.0
N351 N 0.88415 0.17335 0.25801 0.0
C352 C 0.82557 0.18607 0.28233 0.0
H353 H 0.82738 0.16842 0.2904 0.0
H354 H 0.80493 0.18654 0.27711 0.0
H355 H 0.82868 0.20486 0.28932 0.0
C356 C 0.89929 0.08126 0.29957 0.0
N357 N 0.90066 0.10825 0.30203 0.0
N358 N 0.88707 0.1207 0.29078 0.0
C359 C 0.8762 0.10214 0.28101 0.0
C360 C 0.88361 0.07656 0.28623 0.0
C361 C 0.91273 0.06056 0.30985 0.0
H362 H 0.90617 0.06358 0.32227 0.0
H363 H 0.90775 0.03959 0.30603 0.0
H364 H 0.93503 0.06358 0.30941 0.0
O365 O 0.94559 0.15402 0.30896 0.0
O366 O 0.92451 0.17249 0.28853 0.0
H367 H 0.85133 0.09071 0.2609 0.0
H368 H 0.84413 0.12362 0.26941 0.0
C369 C 0.86042 0.10895 0.26643 0.0
H370 H 0.87417 0.11865 0.25773 0.0
H371 H 0.90367 0.16567 0.25633 0.0
O372 O 0.93853 0.1066 0.33279 0.0
C373 C 0.94553 0.1695 0.29695 0.0
Co374 Co 0.60939 0.17018 0.06121 0.0
Co375 Co 0.57949 0.13764 0.03448 0.0
C376 C 0.57227 0.12428 0.06921 0.0
O377 O 0.58919 0.14238 0.07359 0.0
O378 O 0.56684 0.12058 0.05461 0.0
C379 C 0.64347 0.18741 0.08797 0.0
O380 O 0.64578 0.16174 0.09192 0.0
C381 C 0.55271 0.09497 0.01568 0.0
C382 C 0.54688 0.1166 0.99303 0.0
C383 C 0.54074 0.09276 0.00087 0.0
N384 N 0.56535 0.11909 0.01649 0.0
N385 N 0.56208 0.13173 0.00284 0.0
C386 C 0.54838 0.07698 0.02969 0.0
H387 H 0.53083 0.08481 0.03652 0.0
H388 H 0.5666 0.0773 0.03737 0.0
H389 H 0.54393 0.05579 0.02624 0.0
C390 C 0.65747 0.15335 0.04174 0.0
N391 N 0.63059 0.15403 0.04479 0.0
N392 N 0.61779 0.14016 0.03377 0.0
C393 C 0.63596 0.1302 0.02341 0.0
C394 C 0.66178 0.1381 0.02811 0.0
C395 C 0.67845 0.16613 0.0521 0.0
H396 H 0.67673 0.15757 0.06417 0.0
H397 H 0.6993 0.16259 0.0476 0.0
H398 H 0.67453 0.18826 0.05294 0.0
O399 O 0.58218 0.19575 0.05269 0.0
O400 O 0.56309 0.17366 0.03283 0.0
H401 H 0.64616 0.10865 0.00169 0.0
H402 H 0.61617 0.09686 0.01199 0.0
C403 C 0.62833 0.11497 0.00875 0.0
H404 H 0.61563 0.12823 0.00121 0.0
H405 H 0.56896 0.15135 0.00054 0.0
O406 O 0.63069 0.19382 0.0755 0.0
C407 C 0.56555 0.19476 0.04126 0.0
Co408 Co 0.58434 0.12642 0.67938 0.0
Co409 Co 0.6342 0.15232 0.6968 0.0
C410 C 0.62651 0.15974 0.66229 0.0
O411 O 0.60532 0.14487 0.66211 0.0
O412 O 0.63953 0.16428 0.67498 0.0
C413 C 0.55299 0.09646 0.65605 0.0
O414 O 0.57501 0.09754 0.64731 0.0
C415 C 0.68502 0.17894 0.7059 0.0
C416 C 0.67989 0.1811 0.73182 0.0
C417 C 0.69637 0.18973 0.71954 0.0
N418 N 0.6627 0.16493 0.70996 0.0
N419 N 0.65987 0.16615 0.72547 0.0
C420 C 0.69474 0.18215 0.68924 0.0
H421 H 0.69118 0.1631 0.68256 0.0
H422 H 0.71668 0.18721 0.6889 0.0
H423 H 0.6831 0.19864 0.68343 0.0
C424 C 0.60189 0.07964 0.69872 0.0
N425 N 0.60664 0.10408 0.69216 0.0
N426 N 0.62884 0.11443 0.69834 0.0
C427 C 0.63962 0.09639 0.70844 0.0
C428 C 0.62255 0.07407 0.70945 0.0
C429 C 0.57568 0.06465 0.69675 0.0
H430 H 0.55847 0.07898 0.69814 0.0
H431 H 0.57471 0.05627 0.68459 0.0
H432 H 0.57347 0.04786 0.70537 0.0
O433 O 0.56696 0.15434 0.69277 0.0
O434 O 0.60248 0.17157 0.70519 0.0
H435 H 0.65999 0.11188 0.72889 0.0
H436 H 0.67454 0.08138 0.72097 0.0
C437 C 0.66497 0.10104 0.7178 0.0
H438 H 0.67953 0.11345 0.71089 0.0
H439 H 0.64339 0.15811 0.73164 0.0
O440 O 0.55355 0.10612 0.66998 0.0
C441 C 0.57711 0.17083 0.70269 0.0
Co442 Co 0.60844 0.83259 0.43171 0.0
Co443 Co 0.59124 0.88142 0.45334 0.0
C444 C 0.58169 0.88259 0.41835 0.0
O445 O 0.59209 0.85904 0.41664 0.0
O446 O 0.58105 0.89419 0.43183 0.0
C447 C 0.63304 0.80058 0.40638 0.0
O448 O 0.63479 0.82335 0.39838 0.0
C449 C 0.57279 0.93279 0.46752 0.0
C450 C 0.5742 0.92239 0.49294 0.0
C451 C 0.56665 0.94264 0.48251 0.0
N452 N 0.58392 0.90805 0.46913 0.0
N453 N 0.58469 0.90199 0.48434 0.0
C454 C 0.56376 0.94397 0.45195 0.0
H455 H 0.54932 0.92947 0.4465 0.0
H456 H 0.58156 0.94583 0.44397 0.0
H457 H 0.55352 0.96386 0.45301 0.0
C458 C 0.65981 0.83992 0.44894 0.0
N459 N 0.63471 0.84838 0.44513 0.0
N460 N 0.62794 0.86895 0.45425 0.0
C461 C 0.64892 0.87451 0.46401 0.0
C462 C 0.66961 0.85589 0.46119 0.0
C463 C 0.67347 0.81597 0.4415 0.0
H464 H 0.66203 0.79726 0.44447 0.0
H465 H 0.67326 0.81836 0.42847 0.0
H466 H 0.69481 0.8139 0.44548 0.0
O467 O 0.57859 0.81717 0.44426 0.0
O468 O 0.56538 0.85233 0.45863 0.0
H469 H 0.63911 0.88578 0.48771 0.0
H470 H 0.66845 0.90262 0.48007 0.0
C471 C 0.64797 0.89517 0.47697 0.0
H472 H 0.63552 0.91279 0.47334 0.0
H473 H 0.59089 0.88325 0.48879 0.0
O474 O 0.62338 0.80091 0.4203 0.0
C475 C 0.56267 0.82781 0.45431 0.0
Co476 Co 0.90234 0.87662 0.17674 0.0
Co477 Co 0.87845 0.83925 0.20349 0.0
C478 C 0.8562 0.83938 0.17018 0.0
O479 O 0.87157 0.85878 0.1657 0.0
O480 O 0.85714 0.83011 0.18426 0.0
C481 C 0.92408 0.89786 0.14825 0.0
O482 O 0.90799 0.87952 0.142 0.0
C483 C 0.84036 0.81011 0.22434 0.0
C484 C 0.86709 0.80062 0.24458 0.0
C485 C 0.84098 0.79714 0.23891 0.0
N486 N 0.86503 0.82064 0.22154 0.0
N487 N 0.88092 0.81479 0.23365 0.0
C488 C 0.81665 0.81359 0.2135 0.0
H489 H 0.81654 0.79679 0.20476 0.0
H490 H 0.81845 0.83303 0.20695 0.0
H491 H 0.79727 0.81323 0.22019 0.0
C492 C 0.89041 0.91861 0.20113 0.0
N493 N 0.89078 0.89271 0.19602 0.0
N494 N 0.88 0.87705 0.20695 0.0
C495 C 0.87221 0.89244 0.21929 0.0
C496 C 0.87854 0.91926 0.21602 0.0
C497 C 0.90043 0.94218 0.19165 0.0
H498 H 0.92292 0.94147 0.19115 0.0
H499 H 0.89275 0.9406 0.17936 0.0
H500 H 0.89396 0.96179 0.1969 0.0
O501 O 0.9297 0.8479 0.18011 0.0
O502 O 0.91473 0.82421 0.20055 0.0
H503 H 0.87516 0.86772 0.23992 0.0
H504 H 0.8548 0.89752 0.24275 0.0
C505 C 0.86021 0.88134 0.23422 0.0
H506 H 0.84187 0.86926 0.23136 0.0
H507 H 0.90128 0.82042 0.23441 0.0
O508 O 0.92251 0.90243 0.16302 0.0
C509 C 0.93255 0.82891 0.19011 0.0
Co510 Co 0.87972 0.16254 0.9306 0.0
Co511 Co 0.90482 0.11513 0.95082 0.0
C512 C 0.90792 0.11404 0.91576 0.0
O513 O 0.89599 0.13697 0.91486 0.0
O514 O 0.91186 0.10254 0.92903 0.0
C515 C 0.84748 0.18731 0.90595 0.0
O516 O 0.84225 0.16215 0.9018 0.0
C517 C 0.9281 0.06449 0.96303 0.0
C518 C 0.93859 0.07653 0.98742 0.0
C519 C 0.94179 0.05587 0.97648 0.0
N520 N 0.91781 0.08929 0.96582 0.0
N521 N 0.92392 0.09622 0.98048 0.0
C522 C 0.92514 0.0498 0.94768 0.0
H523 H 0.90524 0.05468 0.94225 0.0
H524 H 0.9268 0.02753 0.94939 0.0
H525 H 0.9414 0.05657 0.93951 0.0
C526 C 0.83114 0.14778 0.95019 0.0
N527 N 0.85707 0.14416 0.94552 0.0
N528 N 0.86785 0.12437 0.95389 0.0
C529 C 0.84923 0.1147 0.96407 0.0
C530 C 0.82526 0.12917 0.9621 0.0
C531 C 0.81245 0.16837 0.9431 0.0
H532 H 0.82055 0.18901 0.94541 0.0
H533 H 0.81181 0.1655 0.93011 0.0
H534 H 0.79157 0.16671 0.94789 0.0
O535 O 0.90999 0.18104 0.94158 0.0
O536 O 0.92829 0.14648 0.95446 0.0
H537 H 0.87046 0.102 0.98472 0.0
H538 H 0.83729 0.08761 0.98326 0.0
C539 C 0.85536 0.09366 0.97634 0.0
H540 H 0.86437 0.07552 0.9706 0.0
H541 H 0.91944 0.11508 0.98545 0.0
O542 O 0.8612 0.19173 0.91841 0.0
C543 C 0.92834 0.17129 0.95048 0.0
Co544 Co 0.91899 0.63212 0.68406 0.0
Co545 Co 0.88147 0.66364 0.70771 0.0
C546 C 0.87202 0.66853 0.67355 0.0
O547 O 0.89238 0.65322 0.67064 0.0
O548 O 0.86464 0.67357 0.68767 0.0
C549 C 0.93591 0.59518 0.65837 0.0
O550 O 0.9101 0.59123 0.65524 0.0
C551 C 0.83737 0.68876 0.72634 0.0
C552 C 0.85829 0.69478 0.74919 0.0
C553 C 0.83394 0.69916 0.74147 0.0
N554 N 0.86269 0.67883 0.7252 0.0
N555 N 0.87508 0.68258 0.73888 0.0
C556 C 0.81681 0.68701 0.71339 0.0
H557 H 0.82072 0.66887 0.70595 0.0
H558 H 0.79594 0.686 0.71829 0.0
H559 H 0.8185 0.7053 0.70581 0.0
C560 C 0.90632 0.58737 0.7068 0.0
N561 N 0.90201 0.61228 0.70065 0.0
N562 N 0.88503 0.62555 0.70986 0.0
C563 C 0.87704 0.60921 0.72169 0.0
C564 C 0.89077 0.58472 0.72049 0.0
C565 C 0.92763 0.56826 0.70088 0.0
H566 H 0.94539 0.57985 0.69647 0.0
H567 H 0.91922 0.55644 0.69086 0.0
H568 H 0.93424 0.55396 0.71024 0.0
O569 O 0.94466 0.6578 0.69355 0.0
O570 O 0.917 0.68176 0.70878 0.0
H571 H 0.86723 0.62894 0.74349 0.0
H572 H 0.84763 0.59882 0.73964 0.0
C573 C 0.8569 0.61706 0.73414 0.0
H574 H 0.84064 0.62972 0.72889 0.0
H575 H 0.89509 0.67689 0.74113 0.0
O576 O 0.94255 0.60987 0.67008 0.0
C577 C 0.94037 0.67719 0.70309 0.0
Co578 Co 0.61113 0.67177 0.93376 0.0
Co579 Co 0.59028 0.62694 0.95701 0.0
C580 C 0.57804 0.62381 0.92253 0.0
O581 O 0.5906 0.64601 0.91988 0.0
O582 O 0.57695 0.61367 0.93636 0.0
C583 C 0.63595 0.69774 0.90642 0.0
O584 O 0.63367 0.67414 0.89931 0.0
C585 C 0.57367 0.57604 0.9722 0.0
C586 C 0.57302 0.58816 0.99737 0.0
C587 C 0.56751 0.56678 0.98726 0.0
N588 N 0.58266 0.60167 0.9734 0.0
N589 N 0.58249 0.6087 0.98847 0.0
C590 C 0.5674 0.56263 0.95676 0.0
H591 H 0.58494 0.5649 0.94864 0.0
H592 H 0.56241 0.54086 0.95807 0.0
H593 H 0.5497 0.57301 0.95139 0.0
C594 C 0.66277 0.65957 0.95004 0.0
N595 N 0.63652 0.65423 0.94693 0.0
N596 N 0.62798 0.63483 0.95638 0.0
C597 C 0.64881 0.62654 0.96546 0.0
C598 C 0.67145 0.64221 0.96195 0.0
C599 C 0.67784 0.68313 0.94311 0.0
H600 H 0.66458 0.70133 0.94309 0.0
H601 H 0.68317 0.67842 0.93066 0.0
H602 H 0.69659 0.68784 0.94979 0.0
O603 O 0.58514 0.69166 0.94696 0.0
O604 O 0.5687 0.65947 0.96263 0.0
H605 H 0.63826 0.61167 0.98839 0.0
H606 H 0.66759 0.59551 0.9798 0.0
C607 C 0.64717 0.60391 0.97722 0.0
H608 H 0.63407 0.58743 0.97261 0.0
H609 H 0.58783 0.62792 0.99261 0.0
O610 O 0.62851 0.70007 0.92072 0.0
C611 C 0.56929 0.68392 0.95789 0.0
Co612 Co 0.58884 0.3632 0.17675 0.0
Co613 Co 0.6329 0.34326 0.20066 0.0
C614 C 0.63582 0.33111 0.1655 0.0
O615 O 0.61508 0.34545 0.16212 0.0
O616 O 0.64418 0.32908 0.17969 0.0
C617 C 0.55981 0.39002 0.1509 0.0
O618 O 0.58267 0.38919 0.14291 0.0
C619 C 0.68661 0.33015 0.21219 0.0
C620 C 0.67786 0.31553 0.23632 0.0
C621 C 0.69827 0.31722 0.22506 0.0
N622 N 0.66045 0.33502 0.21549 0.0
N623 N 0.65544 0.32684 0.23008 0.0
C624 C 0.69997 0.33829 0.19703 0.0
H625 H 0.69026 0.35692 0.19229 0.0
H626 H 0.722 0.34182 0.19883 0.0
H627 H 0.69739 0.32197 0.18818 0.0
C628 C 0.59833 0.41441 0.19435 0.0
N629 N 0.60497 0.38861 0.19077 0.0
N630 N 0.62432 0.38046 0.20034 0.0
C631 C 0.63113 0.40093 0.21009 0.0
C632 C 0.61471 0.42314 0.20675 0.0
C633 C 0.57426 0.42874 0.18749 0.0
H634 H 0.55651 0.41491 0.18752 0.0
H635 H 0.57871 0.43424 0.17503 0.0
H636 H 0.56885 0.44729 0.1942 0.0
O637 O 0.57163 0.33339 0.18862 0.0
O638 O 0.60116 0.32181 0.20724 0.0
H639 H 0.64465 0.38698 0.23265 0.0
H640 H 0.65905 0.4192 0.22674 0.0
C641 C 0.65261 0.39888 0.22253 0.0
H642 H 0.67054 0.38809 0.21771 0.0
H643 H 0.63633 0.32734 0.23537 0.0
O644 O 0.55897 0.38045 0.16483 0.0
C645 C 0.57828 0.31916 0.20054 0.0
Co646 Co 0.8716 0.32073 0.43275 0.0
Co647 Co 0.89962 0.36241 0.45567 0.0
C648 C 0.90947 0.36477 0.4212 0.0
O649 O 0.89386 0.34447 0.41912 0.0
O650 O 0.91314 0.37501 0.43486 0.0
C651 C 0.84068 0.30292 0.40579 0.0
O652 O 0.83955 0.32884 0.40221 0.0
C653 C 0.93102 0.40464 0.47192 0.0
C654 C 0.92637 0.3915 0.49678 0.0
C655 C 0.93992 0.40975 0.48719 0.0
N656 N 0.91287 0.38431 0.47251 0.0
N657 N 0.91002 0.37674 0.48741 0.0
C658 C 0.94269 0.41547 0.45684 0.0
H659 H 0.95342 0.39885 0.45057 0.0
H660 H 0.92598 0.42262 0.44911 0.0
H661 H 0.9572 0.43227 0.45888 0.0
C662 C 0.82263 0.34158 0.44938 0.0
N663 N 0.84956 0.34129 0.44671 0.0
N664 N 0.86125 0.35953 0.45583 0.0
C665 C 0.84207 0.37248 0.4643 0.0
C666 C 0.81697 0.36144 0.46057 0.0
C667 C 0.80287 0.32349 0.44107 0.0
H668 H 0.80262 0.32875 0.42833 0.0
H669 H 0.78203 0.32565 0.44586 0.0
H670 H 0.80965 0.30208 0.4421 0.0
O671 O 0.89748 0.29745 0.44399 0.0
O672 O 0.91708 0.32727 0.45988 0.0
H673 H 0.85442 0.38362 0.48757 0.0
H674 H 0.83 0.40632 0.4792 0.0
C675 C 0.848 0.39372 0.47649 0.0
H676 H 0.86466 0.40707 0.47235 0.0
H677 H 0.89827 0.36028 0.49105 0.0
O678 O 0.85134 0.29572 0.41878 0.0
C679 C 0.91486 0.30335 0.4545 0.0
Co680 Co 0.9183 0.36623 0.81965 0.0
Co681 Co 0.87673 0.34619 0.79435 0.0
C682 C 0.8702 0.32927 0.82753 0.0
O683 O 0.89168 0.34237 0.83115 0.0
O684 O 0.86093 0.32954 0.81348 0.0
C685 C 0.93581 0.39851 0.84674 0.0
O686 O 0.91034 0.40597 0.84822 0.0
C687 C 0.8327 0.3257 0.77397 0.0
C688 C 0.84972 0.33501 0.75038 0.0
C689 C 0.82809 0.32255 0.75787 0.0
N690 N 0.85614 0.3392 0.77584 0.0
N691 N 0.86614 0.34476 0.76171 0.0
C692 C 0.81522 0.31644 0.78739 0.0
H693 H 0.81576 0.33164 0.79706 0.0
H694 H 0.79392 0.31343 0.78353 0.0
H695 H 0.82328 0.29701 0.79206 0.0
C696 C 0.90633 0.41887 0.80405 0.0
N697 N 0.90127 0.39238 0.80665 0.0
N698 N 0.88239 0.38411 0.79679 0.0
C699 C 0.87381 0.40541 0.78815 0.0
C700 C 0.88904 0.42809 0.79222 0.0
C701 C 0.92986 0.43378 0.81112 0.0
H702 H 0.94653 0.41946 0.8139 0.0
H703 H 0.92321 0.44375 0.82222 0.0
H704 H 0.93763 0.44957 0.80294 0.0
O705 O 0.94182 0.34358 0.80645 0.0
O706 O 0.91121 0.32709 0.78982 0.0
H707 H 0.85896 0.39874 0.76471 0.0
H708 H 0.84079 0.42429 0.77559 0.0
C709 C 0.85095 0.40424 0.77653 0.0
H710 H 0.83588 0.38876 0.7802 0.0
H711 H 0.88464 0.35452 0.75981 0.0
O712 O 0.9426 0.38281 0.8355 0.0
C713 C 0.93537 0.32837 0.79495 0.0
Co714 Co 0.86962 0.66751 0.07334 0.0
Co715 Co 0.89706 0.62087 0.05368 0.0
C716 C 0.89934 0.62103 0.08879 0.0
O717 O 0.88572 0.643 0.0896 0.0
O718 O 0.9044 0.60971 0.07561 0.0
C719 C 0.83854 0.69466 0.0977 0.0
O720 O 0.84099 0.67166 0.10542 0.0
C721 C 0.91743 0.56851 0.04217 0.0
C722 C 0.92869 0.57906 0.0176 0.0
C723 C 0.92913 0.55815 0.02852 0.0
N724 N 0.91022 0.59434 0.03934 0.0
N725 N 0.91688 0.60048 0.02464 0.0
C726 C 0.91641 0.55578 0.05823 0.0
H727 H 0.93137 0.56608 0.06598 0.0
H728 H 0.89598 0.55886 0.06346 0.0
H729 H 0.92133 0.53388 0.058 0.0
C730 C 0.82545 0.65575 0.0505 0.0
N731 N 0.84904 0.64922 0.05761 0.0
N732 N 0.8601 0.62862 0.0501 0.0
C733 C 0.84355 0.6208 0.03833 0.0
C734 C 0.82133 0.63806 0.0379 0.0
C735 C 0.80968 0.68089 0.05428 0.0
H736 H 0.82364 0.69855 0.05462 0.0
H737 H 0.80057 0.67878 0.06622 0.0
H738 H 0.79338 0.68475 0.04554 0.0
O739 O 0.90079 0.68607 0.06364 0.0
O740 O 0.91942 0.65322 0.04928 0.0
H741 H 0.86343 0.60541 0.01772 0.0
H742 H 0.83061 0.59068 0.02141 0.0
C743 C 0.84951 0.59809 0.02709 0.0
H744 H 0.85933 0.58106 0.03345 0.0
H745 H 0.91416 0.6196 0.01959 0.0
O746 O 0.84815 0.6965 0.0838 0.0
C747 C 0.91901 0.67758 0.0542 0.0
Co748 Co 0.58059 0.62159 0.31815 0.0
Co749 Co 0.62504 0.65008 0.29717 0.0
C750 C 0.62571 0.65357 0.33254 0.0
O751 O 0.60567 0.63746 0.33406 0.0
O752 O 0.6347 0.66021 0.31899 0.0
C753 C 0.55141 0.59677 0.34404 0.0
O754 O 0.57391 0.6012 0.35195 0.0
C755 C 0.67741 0.67131 0.28652 0.0
C756 C 0.66754 0.6847 0.26227 0.0
C757 C 0.68799 0.685 0.27351 0.0
N758 N 0.65186 0.66382 0.28314 0.0
N759 N 0.64616 0.67166 0.26859 0.0
C760 C 0.69115 0.66474 0.3018 0.0
H761 H 0.6831 0.64539 0.30662 0.0
H762 H 0.71343 0.66301 0.30016 0.0
H763 H 0.68682 0.68103 0.3105 0.0
C764 C 0.59345 0.57666 0.29579 0.0
N765 N 0.59916 0.60078 0.30255 0.0
N766 N 0.61908 0.61241 0.29467 0.0
C767 C 0.62721 0.59579 0.28301 0.0
C768 C 0.6109 0.57283 0.28302 0.0
C769 C 0.56905 0.5601 0.30001 0.0
H770 H 0.55074 0.5732 0.29974 0.0
H771 H 0.57132 0.5525 0.31228 0.0
H772 H 0.56621 0.5427 0.29187 0.0
O773 O 0.5616 0.65225 0.30798 0.0
O774 O 0.59191 0.66991 0.2915 0.0
H775 H 0.6406 0.61681 0.26232 0.0
H776 H 0.6565 0.5842 0.26521 0.0
C777 C 0.64893 0.60268 0.27129 0.0
H778 H 0.66609 0.61279 0.27737 0.0
H779 H 0.62732 0.66901 0.26319 0.0
O780 O 0.55099 0.60153 0.32926 0.0
C781 C 0.56818 0.66919 0.29732 0.0
Co782 Co 0.60702 0.32795 0.55958 0.0
Co783 Co 0.57286 0.36541 0.53737 0.0
C784 C 0.56992 0.37015 0.57283 0.0
O785 O 0.58696 0.35105 0.57508 0.0
O786 O 0.5634 0.37761 0.55894 0.0
C787 C 0.6365 0.30267 0.58522 0.0
O788 O 0.62964 0.32418 0.59349 0.0
C789 C 0.55166 0.41598 0.52517 0.0
C790 C 0.52958 0.40276 0.50381 0.0
C791 C 0.53445 0.42505 0.51337 0.0
N792 N 0.55626 0.38948 0.52291 0.0
N793 N 0.54335 0.3817 0.50999 0.0
C794 C 0.56407 0.43215 0.53827 0.0
H795 H 0.58369 0.423 0.54188 0.0
H796 H 0.56718 0.45353 0.53455 0.0
H797 H 0.55032 0.43197 0.54862 0.0
C798 C 0.65162 0.35001 0.53976 0.0
N799 N 0.62541 0.34884 0.54416 0.0
N800 N 0.61086 0.36374 0.53444 0.0
C801 C 0.62723 0.37458 0.52338 0.0
C802 C 0.6537 0.36634 0.5264 0.0
C803 C 0.67402 0.33557 0.54821 0.0
H804 H 0.67428 0.31399 0.54445 0.0
H805 H 0.67034 0.33615 0.56115 0.0
H806 H 0.69403 0.34485 0.54555 0.0
O807 O 0.58075 0.3035 0.5492 0.0
O808 O 0.55561 0.3301 0.53399 0.0
H809 H 0.59897 0.3796 0.50441 0.0
H810 H 0.63258 0.39141 0.49984 0.0
C811 C 0.61708 0.38993 0.5093 0.0
H812 H 0.611 0.41064 0.51304 0.0
H813 H 0.543 0.3618 0.5058 0.0
O814 O 0.63101 0.30193 0.57057 0.0
C815 C 0.56137 0.3069 0.53953 0.0
Co816 Co 0.09433 0.3584 0.32079 0.0
Co817 Co 0.13377 0.33915 0.29398 0.0
C818 C 0.1444 0.32698 0.32819 0.0
O819 O 0.1243 0.34132 0.33265 0.0
O820 O 0.1501 0.32381 0.31361 0.0
C821 C 0.05375 0.35746 0.34338 0.0
O822 O 0.05727 0.33146 0.34061 0.0
C823 C 0.18173 0.32294 0.27569 0.0
C824 C 0.16555 0.32424 0.25134 0.0
C825 C 0.1883 0.31732 0.26006 0.0
N826 N 0.15616 0.33232 0.27615 0.0
N827 N 0.14668 0.33324 0.26156 0.0
C828 C 0.19945 0.32035 0.28996 0.0
H829 H 0.1949 0.33695 0.29842 0.0
H830 H 0.22124 0.32114 0.28668 0.0
H831 H 0.19515 0.30074 0.2959 0.0
C832 C 0.10002 0.41021 0.30357 0.0
N833 N 0.10695 0.38417 0.30607 0.0
N834 N 0.1252 0.37676 0.29558 0.0
C835 C 0.13141 0.39831 0.28645 0.0
C836 C 0.11543 0.42027 0.29107 0.0
C837 C 0.07681 0.42383 0.31183 0.0
H838 H 0.0607 0.40882 0.31449 0.0
H839 H 0.08409 0.43251 0.32316 0.0
H840 H 0.06793 0.44025 0.30452 0.0
O841 O 0.07449 0.32916 0.30995 0.0
O842 O 0.1008 0.31753 0.2898 0.0
H843 H 0.144 0.39046 0.26271 0.0
H844 H 0.16117 0.41865 0.27192 0.0
C845 C 0.15287 0.398 0.27392 0.0
H846 H 0.16966 0.38427 0.27741 0.0
H847 H 0.12702 0.33926 0.25865 0.0
O848 O 0.06877 0.37452 0.33629 0.0
C849 C 0.07909 0.31488 0.29775 0.0
Co850 Co 0.37445 0.34087 0.07278 0.0
Co851 Co 0.39656 0.38116 0.0472 0.0
C852 C 0.40719 0.38845 0.08215 0.0
O853 O 0.39204 0.36861 0.08606 0.0
O854 O 0.41092 0.39495 0.06773 0.0
C855 C 0.35436 0.31301 0.1007 0.0
O856 O 0.36117 0.33502 0.10852 0.0
C857 C 0.42435 0.42479 0.03019 0.0
C858 C 0.4202 0.4101 0.0056 0.0
C859 C 0.43297 0.42945 0.0148 0.0
N860 N 0.40709 0.40367 0.03001 0.0
N861 N 0.4045 0.39521 0.01526 0.0
C862 C 0.43626 0.43629 0.04502 0.0
H863 H 0.44924 0.42066 0.05067 0.0
H864 H 0.4197 0.44151 0.05339 0.0
H865 H 0.44878 0.45454 0.04277 0.0
C866 C 0.32369 0.35088 0.05541 0.0
N867 N 0.34986 0.35663 0.05832 0.0
N868 N 0.35855 0.37448 0.04791 0.0
C869 C 0.33788 0.381 0.03818 0.0
C870 C 0.31523 0.3658 0.04241 0.0
C871 C 0.30772 0.33007 0.06433 0.0
H872 H 0.31617 0.30963 0.06185 0.0
H873 H 0.30967 0.3339 0.0772 0.0
H874 H 0.28594 0.33054 0.06103 0.0
O875 O 0.40359 0.32052 0.06194 0.0
O876 O 0.41604 0.34758 0.04237 0.0
H877 H 0.34633 0.38619 0.0136 0.0
H878 H 0.32128 0.40912 0.02113 0.0
C879 C 0.34063 0.3988 0.02394 0.0
H880 H 0.35628 0.41452 0.02596 0.0
H881 H 0.39396 0.37776 0.01197 0.0
O882 O 0.35688 0.3126 0.08577 0.0
C883 C 0.41783 0.32529 0.04975 0.0
Co884 Co 0.41148 0.63349 0.81932 0.0
Co885 Co 0.36881 0.65543 0.79492 0.0
C886 C 0.36077 0.66296 0.8296 0.0
O887 O 0.38243 0.64979 0.83268 0.0
O888 O 0.35292 0.6666 0.81541 0.0
C889 C 0.43776 0.59859 0.84337 0.0
O890 O 0.4148 0.58532 0.84496 0.0
C891 C 0.32076 0.67517 0.77743 0.0
C892 C 0.33655 0.67393 0.75297 0.0
C893 C 0.31419 0.68125 0.76189 0.0
N894 N 0.34594 0.66468 0.77765 0.0
N895 N 0.35525 0.66411 0.763 0.0
C896 C 0.30361 0.67929 0.79182 0.0
H897 H 0.30659 0.66219 0.80017 0.0
H898 H 0.2818 0.68086 0.78867 0.0
H899 H 0.30998 0.69829 0.79779 0.0
C900 C 0.40613 0.58479 0.79853 0.0
N901 N 0.39776 0.60929 0.80376 0.0
N902 N 0.37802 0.61801 0.79459 0.0
C903 C 0.37232 0.59881 0.78379 0.0
C904 C 0.39038 0.57749 0.78559 0.0
C905 C 0.43104 0.57068 0.8044 0.0
H906 H 0.4466 0.58581 0.80788 0.0
H907 H 0.42567 0.55854 0.81499 0.0
H908 H 0.43957 0.55684 0.79532 0.0
O909 O 0.43053 0.66347 0.80906 0.0
O910 O 0.40141 0.67776 0.79093 0.0
H911 H 0.35813 0.61043 0.76086 0.0
H912 H 0.34279 0.5802 0.76852 0.0
C913 C 0.35019 0.60076 0.77173 0.0
H914 H 0.33303 0.61293 0.77639 0.0
H915 H 0.3747 0.65764 0.7599 0.0
O916 O 0.43955 0.61754 0.83326 0.0
C917 C 0.42432 0.67912 0.79772 0.0
Co918 Co 0.11296 0.65341 0.57119 0.0
Co919 Co 0.09157 0.61401 0.5449 0.0
C920 C 0.07805 0.60764 0.5801 0.0
O921 O 0.09367 0.62677 0.5846 0.0
O922 O 0.07569 0.60162 0.56549 0.0
C923 C 0.13562 0.68431 0.59814 0.0
O924 O 0.13173 0.66298 0.60718 0.0
C925 C 0.07862 0.56195 0.52918 0.0
C926 C 0.06691 0.57677 0.50551 0.0
C927 C 0.06807 0.55357 0.51472 0.0
N928 N 0.08311 0.58886 0.52849 0.0
N929 N 0.0765 0.59744 0.51422 0.0
C930 C 0.0821 0.54528 0.54383 0.0
H931 H 0.08807 0.55799 0.554 0.0
H932 H 0.09848 0.5302 0.54193 0.0
H933 H 0.06306 0.53418 0.54655 0.0
C934 C 0.16427 0.64356 0.55419 0.0
N935 N 0.13823 0.63719 0.55717 0.0
N936 N 0.12932 0.62095 0.54599 0.0
C937 C 0.14932 0.61672 0.53539 0.0
C938 C 0.1722 0.63114 0.54016 0.0
C939 C 0.18034 0.66329 0.56383 0.0
H940 H 0.17279 0.68415 0.56157 0.0
H941 H 0.17748 0.65884 0.57658 0.0
H942 H 0.20227 0.66226 0.56089 0.0
O943 O 0.08475 0.67318 0.55931 0.0
O944 O 0.07241 0.64748 0.53905 0.0
H945 H 0.12942 0.61545 0.51301 0.0
H946 H 0.16341 0.60226 0.51246 0.0
C947 C 0.1447 0.60355 0.51967 0.0
H948 H 0.13652 0.58281 0.52148 0.0
H949 H 0.07729 0.61769 0.51066 0.0
O950 O 0.12997 0.68297 0.58353 0.0
C951 C 0.07091 0.66944 0.54683 0.0
Co952 Co 0.08454 0.6248 0.18346 0.0
Co953 Co 0.10854 0.6621 0.20999 0.0
C954 C 0.13124 0.66084 0.17681 0.0
O955 O 0.1165 0.64094 0.17239 0.0
O956 O 0.12954 0.67044 0.19074 0.0
C957 C 0.05512 0.61541 0.15739 0.0
O958 O 0.06586 0.63955 0.1553 0.0
C959 C 0.14865 0.69111 0.22891 0.0
C960 C 0.12412 0.70409 0.24946 0.0
C961 C 0.14966 0.70627 0.24273 0.0
N962 N 0.12356 0.68087 0.22746 0.0
N963 N 0.109 0.68859 0.23979 0.0
C964 C 0.17124 0.68512 0.21759 0.0
H965 H 0.17107 0.70043 0.20797 0.0
H966 H 0.1683 0.66479 0.21221 0.0
H967 H 0.1912 0.68577 0.22363 0.0
C968 C 0.09072 0.58366 0.20946 0.0
N969 N 0.09384 0.60868 0.20323 0.0
N970 N 0.10565 0.62437 0.21377 0.0
C971 C 0.11141 0.60973 0.22673 0.0
C972 C 0.10164 0.5835 0.22466 0.0
C973 C 0.07579 0.56112 0.20142 0.0
H974 H 0.06038 0.56943 0.19321 0.0
H975 H 0.09044 0.54883 0.19448 0.0
H976 H 0.06571 0.54772 0.21018 0.0
O977 O 0.05909 0.6552 0.18649 0.0
O978 O 0.0729 0.67904 0.20707 0.0
H979 H 0.11398 0.6326 0.24817 0.0
H980 H 0.1367 0.60379 0.24738 0.0
C981 C 0.12746 0.62044 0.2404 0.0
H982 H 0.14396 0.63375 0.23604 0.0
H983 H 0.08859 0.68374 0.24142 0.0
O984 O 0.06323 0.60117 0.169 0.0
C985 C 0.05603 0.67476 0.19605 0.0
Co986 Co 0.11096 0.33473 0.93404 0.0
Co987 Co 0.08116 0.36611 0.96142 0.0
C988 C 0.07171 0.38003 0.92738 0.0
O989 O 0.0881 0.36168 0.92261 0.0
O990 O 0.06765 0.38421 0.94207 0.0
C991 C 0.13125 0.31258 0.9046 0.0
O992 O 0.11755 0.33214 0.89771 0.0
C993 C 0.05585 0.40616 0.98333 0.0
C994 C 0.04977 0.37955 0.00408 0.0
C995 C 0.04431 0.40524 0.99833 0.0
N996 N 0.06741 0.38194 0.98037 0.0
N997 N 0.06404 0.36637 0.99294 0.0
C998 C 0.05358 0.42866 0.97151 0.0
H999 H 0.03218 0.4355 0.97056 0.0
H1000 H 0.06121 0.42236 0.9598 0.0
H1001 H 0.06601 0.44612 0.97549 0.0
C1002 C 0.15848 0.34877 0.9534 0.0
N1003 N 0.13195 0.35108 0.95003 0.0
N1004 N 0.11963 0.36381 0.96168 0.0
C1005 C 0.13801 0.37002 0.97289 0.0
C1006 C 0.16326 0.36043 0.96808 0.0
C1007 C 0.17834 0.33388 0.9432 0.0
H1008 H 0.17538 0.3398 0.93067 0.0
H1009 H 0.19957 0.33827 0.94675 0.0
H1010 H 0.17454 0.31174 0.94417 0.0
O1011 O 0.08712 0.30708 0.9434 0.0
O1012 O 0.06462 0.32991 0.96175 0.0
H1013 H 0.11912 0.3654 0.99543 0.0
H1014 H 0.14853 0.38683 0.99589 0.0
C1015 C 0.13057 0.38108 0.98881 0.0
H1016 H 0.11734 0.3991 0.98736 0.0
H1017 H 0.07035 0.34619 0.9936 0.0
O1018 O 0.13304 0.31223 0.91956 0.0
C1019 C 0.06929 0.30822 0.95419 0.0
Co1020 Co 0.43184 0.35461 0.68967 0.0
Co1021 Co 0.39069 0.33488 0.7155 0.0
C1022 C 0.38102 0.32227 0.68178 0.0
O1023 O 0.4031 0.33412 0.67797 0.0
O1024 O 0.37295 0.32165 0.69607 0.0
C1025 C 0.44903 0.38628 0.66266 0.0
O1026 O 0.42368 0.39449 0.6621 0.0
C1027 C 0.34679 0.31235 0.73487 0.0
C1028 C 0.36232 0.31993 0.75899 0.0
C1029 C 0.34151 0.30755 0.75074 0.0
N1030 N 0.36953 0.32724 0.73382 0.0
N1031 N 0.37861 0.33185 0.74827 0.0
C1032 C 0.33333 0.29943 0.72091 0.0
H1033 H 0.34846 0.28693 0.71447 0.0
H1034 H 0.32609 0.31554 0.71278 0.0
H1035 H 0.31609 0.28623 0.72427 0.0
C1036 C 0.42249 0.40708 0.70619 0.0
N1037 N 0.4171 0.38062 0.70374 0.0
N1038 N 0.39871 0.37254 0.71401 0.0
C1039 C 0.39087 0.39391 0.72282 0.0
C1040 C 0.406 0.41644 0.71837 0.0
C1041 C 0.44499 0.42216 0.69818 0.0
H1042 H 0.46166 0.40805 0.69502 0.0
H1043 H 0.43712 0.43154 0.68718 0.0
H1044 H 0.45311 0.43846 0.70589 0.0
O1045 O 0.45407 0.32901 0.70165 0.0
O1046 O 0.42396 0.3131 0.71885 0.0
H1047 H 0.37639 0.3877 0.74638 0.0
H1048 H 0.35828 0.41334 0.73557 0.0
C1049 C 0.36819 0.39318 0.73461 0.0
H1050 H 0.35284 0.37788 0.7311 0.0
H1051 H 0.39675 0.34186 0.75077 0.0
O1052 O 0.45645 0.37047 0.67368 0.0
C1053 C 0.44765 0.31334 0.71295 0.0
Co1054 Co 0.37175 0.67701 0.42956 0.0
Co1055 Co 0.40251 0.64115 0.45396 0.0
C1056 C 0.40895 0.63145 0.41941 0.0
O1057 O 0.3926 0.65077 0.41626 0.0
O1058 O 0.41458 0.62504 0.43363 0.0
C1059 C 0.33808 0.6933 0.403 0.0
O1060 O 0.33684 0.66745 0.39925 0.0
C1061 C 0.42337 0.59516 0.47226 0.0
C1062 C 0.43481 0.61568 0.49454 0.0
C1063 C 0.43491 0.59073 0.48701 0.0
N1064 N 0.41694 0.62155 0.47118 0.0
N1065 N 0.42384 0.6337 0.48451 0.0
C1066 C 0.41723 0.57483 0.45963 0.0
H1067 H 0.39934 0.58147 0.45267 0.0
H1068 H 0.41332 0.55452 0.46482 0.0
H1069 H 0.43484 0.5734 0.45148 0.0
C1070 C 0.32509 0.662 0.44978 0.0
N1071 N 0.35111 0.65924 0.44526 0.0
N1072 N 0.36404 0.64417 0.45564 0.0
C1073 C 0.34658 0.63681 0.46716 0.0
C1074 C 0.32129 0.64803 0.46389 0.0
C1075 C 0.30488 0.67929 0.44127 0.0
H1076 H 0.30494 0.67395 0.42854 0.0
H1077 H 0.28409 0.67653 0.44604 0.0
H1078 H 0.3109 0.70092 0.44232 0.0
O1079 O 0.39679 0.70314 0.43963 0.0
O1080 O 0.41981 0.67672 0.45597 0.0
H1081 H 0.36936 0.63643 0.4886 0.0
H1082 H 0.33783 0.61834 0.48998 0.0
C1083 C 0.35515 0.62302 0.48211 0.0
H1084 H 0.36594 0.60392 0.47919 0.0
H1085 H 0.4212 0.65437 0.4867 0.0
O1086 O 0.34995 0.7004 0.41564 0.0
C1087 C 0.41527 0.69976 0.44988 0.0
H1088 H 0.30558 0.20579 0.25695 0.0
H1089 H 0.32391 0.23465 0.20971 0.0
H1090 H 0.28778 0.26902 0.212 0.0
H1091 H 0.2328 0.21427 0.25435 0.0
H1092 H 0.22933 0.22508 0.27461 0.0
H1093 H 0.25649 0.20255 0.26907 0.0
H1094 H 0.29135 0.2363 0.2809 0.0
H1095 H 0.26429 0.25911 0.28628 0.0
H1096 H 0.29181 0.27095 0.27404 0.0
H1097 H 0.25006 0.30051 0.21951 0.0
H1098 H 0.212 0.32602 0.23147 0.0
H1099 H 0.21783 0.27607 0.27356 0.0
C1100 C 0.30179 0.21927 0.24709 0.0
C1101 C 0.31698 0.21718 0.23302 0.0
C1102 C 0.31181 0.23528 0.22038 0.0
C1103 C 0.29157 0.2551 0.22165 0.0
C1104 C 0.27682 0.25657 0.23565 0.0
C1105 C 0.28154 0.23907 0.24812 0.0
C1106 C 0.26258 0.24479 0.26179 0.0
C1107 C 0.2442 0.22021 0.26514 0.0
C1108 C 0.27846 0.2533 0.27663 0.0
C1109 C 0.2466 0.26833 0.25508 0.0
C1110 C 0.2552 0.27488 0.24002 0.0
C1111 C 0.24321 0.29567 0.23133 0.0
C1112 C 0.22167 0.31003 0.23821 0.0
C1113 C 0.21249 0.30356 0.25361 0.0
C1114 C 0.22509 0.28234 0.26207 0.0
H1115 H 0.98281 0.93168 0.49732 0.0
H1116 H 0.90667 0.97003 0.51016 0.0
H1117 H 0.9278 0.01514 0.50685 0.0
H1118 H 0.02622 0.97777 0.51683 0.0
H1119 H 0.05205 0.97735 0.50173 0.0
H1120 H 0.03065 0.94814 0.50459 0.0
H1121 H 0.01619 0.94994 0.47515 0.0
H1122 H 0.0377 0.97906 0.47217 0.0
H1123 H 0.00218 0.98088 0.46724 0.0
H1124 H 0.95799 0.05589 0.50328 0.0
H1125 H 0.99427 0.08947 0.49815 0.0
H1126 H 0.05036 0.02425 0.48736 0.0
C1127 C 0.97046 0.94957 0.49924 0.0
C1128 C 0.94326 0.94742 0.50433 0.0
C1129 C 0.92779 0.97124 0.50678 0.0
C1130 C 0.93955 0.99693 0.50477 0.0
C1131 C 0.96668 -0.00168 0.50016 0.0
C1132 C 0.98186 0.97527 0.49728 0.0
C1133 C 0.01071 0.98224 0.49267 0.0
C1134 C 0.0311 0.97069 0.50468 0.0
C1135 C 0.01706 0.97245 0.47581 0.0
C1136 C 0.00947 0.01285 0.49351 0.0
C1137 C 0.9839 0.02173 0.49785 0.0
C1138 C 0.97801 0.04918 0.49974 0.0
C1139 C -0.00129 0.06805 0.49689 0.0
C1140 C 0.02483 0.05932 0.49212 0.0
C1141 C 0.03033 0.03139 0.4906 0.0
H1142 H 0.29023 0.72699 0.77391 0.0
H1143 H 0.28628 0.66946 0.73519 0.0
H1144 H 0.25016 0.69685 0.72268 0.0
H1145 H 0.21707 0.7439 0.77515 0.0
H1146 H 0.22358 0.77915 0.77941 0.0
H1147 H 0.24695 0.75347 0.78608 0.0
H1148 H 0.28613 0.77841 0.77171 0.0
H1149 H 0.26286 0.80391 0.76478 0.0
H1150 H 0.28334 0.78527 0.75085 0.0
H1151 H 0.21645 0.73113 0.71387 0.0
H1152 H 0.18677 0.77033 0.70911 0.0
H1153 H 0.21388 0.8071 0.75295 0.0
C1154 C 0.28107 0.7197 0.76309 0.0
C1155 C 0.29043 0.69581 0.75566 0.0
C1156 C 0.27898 0.68754 0.74112 0.0
C1157 C 0.25853 0.70293 0.73396 0.0
C1158 C 0.25001 0.72662 0.74146 0.0
C1159 C 0.2608 0.73497 0.75572 0.0
C1160 C 0.24927 0.76216 0.76073 0.0
C1161 C 0.23326 0.7595 0.77626 0.0
C1162 C 0.27174 0.7837 0.76209 0.0
C1163 C 0.23064 0.76797 0.74693 0.0
C1164 C 0.23127 0.74708 0.73602 0.0
C1165 C 0.21596 0.74775 0.72224 0.0
C1166 C 0.19952 0.77039 0.7195 0.0
C1167 C 0.19888 0.7923 0.73035 0.0
C1168 C 0.21439 0.79084 0.74434 0.0
H1169 H 0.47753 0.94537 0.99036 0.0
H1170 H 0.40303 0.98414 0.97516 0.0
H1171 H 0.4252 0.02913 0.97727 0.0
H1172 H 0.49583 0.99511 0.01915 0.0
H1173 H 0.5317 0.99278 0.01519 0.0
H1174 H 0.51016 0.96382 0.0119 0.0
H1175 H 0.52685 0.96104 0.98286 0.0
H1176 H 0.54841 0.99004 0.98606 0.0
H1177 H 0.52387 0.99039 0.97027 0.0
H1178 H 0.45546 0.06967 0.98147 0.0
H1179 H 0.49085 0.10306 0.98869 0.0
H1180 H 0.54552 0.0374 0.0009 0.0
C1181 C 0.46593 0.96338 0.98747 0.0
C1182 C 0.43883 0.96147 0.98229 0.0
C1183 C 0.4241 0.98531 0.97871 0.0
C1184 C 0.43646 0.01086 0.97996 0.0
C1185 C 0.46344 0.01203 0.98487 0.0
C1186 C 0.47795 0.98892 0.98863 0.0
C1187 C 0.50645 0.99568 0.99395 0.0
C1188 C 0.5113 0.98629 0.01106 0.0
C1189 C 0.52764 0.98357 0.98261 0.0
C1190 C 0.50564 0.02627 0.9928 0.0
C1191 C 0.48071 0.03531 0.98745 0.0
C1192 C 0.47504 0.06283 0.98566 0.0
C1193 C 0.49524 0.08159 0.98972 0.0
C1194 C 0.52058 0.07267 0.99561 0.0
C1195 C 0.52601 0.04469 0.99682 0.0
H1196 H 0.18707 0.73627 0.22606 0.0
H1197 H 0.16222 0.71456 0.27363 0.0
H1198 H 0.19989 0.74196 0.28444 0.0
H1199 H 0.25785 0.73078 0.23273 0.0
H1200 H 0.2666 0.75888 0.22008 0.0
H1201 H 0.23638 0.73948 0.21625 0.0
H1202 H 0.20773 0.78355 0.2174 0.0
H1203 H 0.23785 0.8031 0.22139 0.0
H1204 H 0.20934 0.80482 0.23471 0.0
H1205 H 0.2419 0.76833 0.2899 0.0
H1206 H 0.28598 0.79143 0.28987 0.0
H1207 H 0.28389 0.79613 0.23867 0.0
C1208 C 0.18977 0.73685 0.23873 0.0
C1209 C 0.17217 0.72274 0.24902 0.0
C1210 C 0.17567 0.72509 0.26556 0.0
C1211 C 0.19692 0.74061 0.2718 0.0
C1212 C 0.21425 0.75382 0.2613 0.0
C1213 C 0.21092 0.75212 0.24513 0.0
C1214 C 0.23308 0.76727 0.23642 0.0
C1215 C 0.24944 0.74795 0.22575 0.0
C1216 C 0.22129 0.7911 0.22692 0.0
C1217 C 0.2498 0.77721 0.25024 0.0
C1218 C 0.23834 0.76952 0.26448 0.0
C1219 C 0.25074 0.77506 0.27887 0.0
C1220 C 0.27568 0.78859 0.27872 0.0
C1221 C 0.28788 0.79659 0.26428 0.0
C1222 C 0.27468 0.79082 0.24989 0.0
H1223 H 0.52437 0.94442 0.50305 0.0
H1224 H 0.57259 0.99478 0.47177 0.0
H1225 H 0.54255 0.0339 0.47751 0.0
H1226 H 0.46038 0.97112 0.49301 0.0
H1227 H 0.4468 0.96968 0.51279 0.0
H1228 H 0.47277 0.94612 0.50679 0.0
H1229 H 0.50297 0.96143 0.53022 0.0
H1230 H 0.477 0.98492 0.53637 0.0
H1231 H 0.51094 0.99691 0.53258 0.0
H1232 H 0.50556 0.06631 0.48535 0.0
H1233 H 0.46604 0.09099 0.49626 0.0
H1234 H 0.44289 0.01955 0.52296 0.0
C1235 C 0.52878 0.96379 0.49757 0.0
C1236 C 0.55034 0.96662 0.48672 0.0
C1237 C 0.55564 0.99218 0.47979 0.0
C1238 C 0.53884 0.01446 0.48306 0.0
C1239 C 0.51719 0.01078 0.49346 0.0
C1240 C 0.51232 0.98618 0.50075 0.0
C1241 C 0.48749 0.98741 0.51126 0.0
C1242 C 0.46557 0.9674 0.50562 0.0
C1243 C 0.49506 0.98237 0.52864 0.0
C1244 C 0.47892 0.01649 0.50859 0.0
C1245 C 0.49629 0.02962 0.49827 0.0
C1246 C 0.49199 0.05635 0.49358 0.0
C1247 C 0.46948 0.07011 0.49974 0.0
C1248 C 0.4518 0.05715 0.51056 0.0
C1249 C 0.45648 0.02998 0.51493 0.0
H1250 H 0.1976 0.23604 0.75639 0.0
H1251 H 0.2361 0.17252 0.78383 0.0
H1252 H 0.27928 0.19822 0.78341 0.0
H1253 H 0.25435 0.24842 0.73102 0.0
H1254 H 0.24834 0.28444 0.72981 0.0
H1255 H 0.22039 0.26159 0.73308 0.0
H1256 H 0.20738 0.28825 0.75842 0.0
H1257 H 0.23546 0.31104 0.7553 0.0
H1258 H 0.23233 0.29299 0.77374 0.0
H1259 H 0.31812 0.23087 0.77977 0.0
H1260 H 0.35097 0.2658 0.77097 0.0
H1261 H 0.28703 0.30706 0.74534 0.0
C1262 C 0.21514 0.22759 0.76233 0.0
C1263 C 0.21348 0.2028 0.77057 0.0
C1264 C 0.23684 0.19205 0.77798 0.0
C1265 C 0.26141 0.2064 0.77771 0.0
C1266 C 0.26219 0.23121 0.76982 0.0
C1267 C 0.23975 0.24155 0.7621 0.0
C1268 C 0.24619 0.26798 0.75385 0.0
C1269 C 0.24208 0.26544 0.73588 0.0
C1270 C 0.22934 0.29145 0.76075 0.0
C1271 C 0.27585 0.27083 0.75801 0.0
C1272 C 0.28466 0.24958 0.76736 0.0
C1273 C 0.31146 0.2476 0.77245 0.0
C1274 C 0.3299 0.26752 0.76749 0.0
C1275 C 0.32138 0.28876 0.75741 0.0
C1276 C 0.29395 0.29079 0.75295 0.0
H1277 H 0.02132 0.94062 0.02362 0.0
H1278 H 0.06616 0.9245 0.98047 0.0
H1279 H 0.04091 0.96109 0.96698 0.0
H1280 H 0.95825 0.95311 0.00565 0.0
H1281 H 0.9483 0.97997 0.01892 0.0
H1282 H 0.97107 0.95379 0.02559 0.0
H1283 H 0.00667 0.99003 0.03347 0.0
H1284 H 0.98385 0.01638 0.02705 0.0
H1285 H 0.01769 0.01456 0.01902 0.0
H1286 H 0.01036 -0.00153 0.9581 0.0
H1287 H 0.97703 0.03503 0.95441 0.0
H1288 H 0.95095 0.02613 0.00315 0.0
C1289 C 0.02645 0.94535 0.01149 0.0
C1290 C 0.04613 0.93019 0.00315 0.0
C1291 C 0.05133 0.93613 0.98707 0.0
C1292 C 0.03711 0.95682 0.97933 0.0
C1293 C 0.01766 0.97122 0.98783 0.0
C1294 C 0.01237 0.96587 0.00357 0.0
C1295 C 0.98975 0.98373 0.00981 0.0
C1296 C 0.96541 0.96662 0.01531 0.0
C1297 C 0.00012 0.00228 0.02313 0.0
C1298 C 0.98302 -0.0002 0.99508 0.0
C1299 C -0.0006 0.99227 0.98256 0.0
C1300 C 0.99718 0.00434 0.96776 0.0
C1301 C 0.97781 0.02481 0.9657 0.0
C1302 C 0.96064 0.03275 0.97833 0.0
C1303 C 0.96349 0.02014 0.99322 0.0
H1304 H 0.70813 0.80118 0.74439 0.0
H1305 H 0.69768 0.77721 0.79338 0.0
H1306 H 0.73763 0.7476 0.79141 0.0
H1307 H 0.72629 0.73554 0.73038 0.0
H1308 H 0.75086 0.74755 0.71623 0.0
H1309 H 0.72256 0.76873 0.72168 0.0
H1310 H 0.75552 0.80724 0.72983 0.0
H1311 H 0.78391 0.7863 0.72424 0.0
H1312 H 0.78207 0.80026 0.7439 0.0
H1313 H 0.77781 0.71965 0.78408 0.0
H1314 H 0.81588 0.69493 0.77166 0.0
H1315 H 0.79964 0.73577 0.72723 0.0
C1316 C 0.71452 0.78997 0.75475 0.0
C1317 C 0.7004 0.79236 0.76921 0.0
C1318 C 0.70892 0.77687 0.78241 0.0
C1319 C 0.7314 0.75962 0.78135 0.0
C1320 C 0.74492 0.75781 0.76695 0.0
C1321 C 0.73686 0.77253 0.75387 0.0
C1322 C 0.75444 0.76612 0.73966 0.0
C1323 C 0.73752 0.75375 0.72619 0.0
C1324 C 0.7699 0.79149 0.73409 0.0
C1325 C 0.77345 0.74535 0.74679 0.0
C1326 C 0.76764 0.74094 0.76256 0.0
C1327 C 0.78254 0.72285 0.77173 0.0
C1328 C 0.80406 0.70892 0.76459 0.0
C1329 C 0.81026 0.71301 0.74843 0.0
C1330 C 0.7948 0.73155 0.73946 0.0
H1331 H 0.81476 0.2346 0.26822 0.0
H1332 H 0.82991 0.19416 0.22349 0.0
H1333 H 0.79662 0.22432 0.21054 0.0
H1334 H 0.74299 0.24145 0.26322 0.0
H1335 H 0.74149 0.2741 0.2728 0.0
H1336 H 0.76746 0.25016 0.27821 0.0
H1337 H 0.80422 0.28629 0.27208 0.0
H1338 H 0.77835 0.31021 0.2664 0.0
H1339 H 0.80526 0.30183 0.2528 0.0
H1340 H 0.76037 0.25691 0.20286 0.0
H1341 H 0.72194 0.28829 0.201 0.0
H1342 H 0.73024 0.30791 0.25076 0.0
C1343 C 0.81067 0.23157 0.2558 0.0
C1344 C 0.82441 0.21156 0.24692 0.0
C1345 C 0.81938 0.20924 0.23051 0.0
C1346 C 0.80061 0.2263 0.22306 0.0
C1347 C 0.78728 0.24568 0.2322 0.0
C1348 C 0.79195 0.24833 0.24821 0.0
C1349 C 0.77426 0.2702 0.25542 0.0
C1350 C 0.75543 0.25826 0.26816 0.0
C1351 C 0.79156 0.29351 0.26206 0.0
C1352 C 0.75854 0.27911 0.24098 0.0
C1353 C 0.76664 0.26492 0.22769 0.0
C1354 C 0.75423 0.26859 0.2131 0.0
C1355 C 0.7326 0.28689 0.2121 0.0
C1356 C 0.72372 0.30144 0.22561 0.0
C1357 C 0.73705 0.29756 0.24018 0.0
H1358 H 0.80718 0.27336 0.76692 0.0
H1359 H 0.80347 0.33424 0.72996 0.0
H1360 H 0.77105 0.30556 0.71514 0.0
H1361 H 0.80391 0.21542 0.74184 0.0
H1362 H 0.783 0.19592 0.75513 0.0
H1363 H 0.80581 0.22121 0.76285 0.0
H1364 H 0.76583 0.24509 0.77716 0.0
H1365 H 0.743 0.21961 0.76971 0.0
H1366 H 0.73633 0.255 0.76598 0.0
H1367 H 0.7384 0.27075 0.70479 0.0
H1368 H 0.70653 0.23317 0.70003 0.0
H1369 H 0.73236 0.19476 0.74364 0.0
C1370 C 0.79901 0.28104 0.75594 0.0
C1371 C 0.80721 0.30633 0.74975 0.0
C1372 C 0.79709 0.31502 0.73495 0.0
C1373 C 0.77879 0.29888 0.72645 0.0
C1374 C 0.77109 0.27403 0.7329 0.0
C1375 C 0.78079 0.26521 0.74733 0.0
C1376 C 0.76928 0.23777 0.75168 0.0
C1377 C 0.79185 0.21632 0.75294 0.0
C1378 C 0.75261 0.23948 0.76704 0.0
C1379 C 0.75136 0.23263 0.7375 0.0
C1380 C 0.75283 0.25369 0.72675 0.0
C1381 C 0.73739 0.25392 0.71299 0.0
C1382 C 0.71962 0.23223 0.71026 0.0
C1383 C 0.71766 0.21056 0.7212 0.0
C1384 C 0.73386 0.21081 0.73493 0.0
H1385 H 0.80395 0.76206 0.22585 0.0
H1386 H 0.83036 0.79665 0.2704 0.0
H1387 H 0.79543 0.76991 0.28447 0.0
H1388 H 0.7326 0.76166 0.23445 0.0
H1389 H 0.72657 0.72987 0.22451 0.0
H1390 H 0.75385 0.75155 0.21812 0.0
H1391 H 0.78779 0.71186 0.22178 0.0
H1392 H 0.76065 0.69013 0.22836 0.0
H1393 H 0.79004 0.69512 0.24068 0.0
H1394 H 0.75634 0.74129 0.29341 0.0
H1395 H 0.71604 0.71254 0.29675 0.0
H1396 H 0.71638 0.6948 0.24649 0.0
C1397 C 0.80205 0.76439 0.23852 0.0
C1398 C 0.81939 0.78183 0.24704 0.0
C1399 C 0.81704 0.78352 0.26368 0.0
C1400 C 0.79733 0.76842 0.27176 0.0
C1401 C 0.78043 0.75149 0.263 0.0
C1402 C 0.78262 0.74933 0.24676 0.0
C1403 C 0.76196 0.72966 0.24016 0.0
C1404 C 0.7426 0.74405 0.22863 0.0
C1405 C 0.77596 0.70525 0.23229 0.0
C1406 C 0.74755 0.72139 0.25522 0.0
C1407 C 0.75858 0.73415 0.26825 0.0
C1408 C 0.74789 0.73069 0.28335 0.0
C1409 C 0.72516 0.71389 0.28517 0.0
C1410 C 0.7136 0.70047 0.27198 0.0
C1411 C 0.72508 0.70434 0.25684 0.0
H1412 H 0.52125 0.56348 0.00449 0.0
H1413 H 0.58067 0.51452 0.97967 0.0
H1414 H 0.55282 0.47349 0.98452 0.0
H1415 H 0.50368 0.51261 0.03462 0.0
H1416 H 0.46838 0.52217 0.03474 0.0
H1417 H 0.494 0.54708 0.03024 0.0
H1418 H 0.46975 0.5578 0.00379 0.0
H1419 H 0.44424 0.53274 0.00811 0.0
H1420 H 0.46331 0.53072 0.98996 0.0
H1421 H 0.5169 0.43891 0.99024 0.0
H1422 H 0.4768 0.41205 0.99827 0.0
H1423 H 0.44109 0.4837 0.01956 0.0
C1424 C 0.52857 0.544 0.00035 0.0
C1425 C 0.55276 0.54195 0.99154 0.0
C1426 C 0.56183 0.51633 0.98619 0.0
C1427 C 0.54626 0.49302 0.98895 0.0
C1428 C 0.52194 0.49584 0.99721 0.0
C1429 C 0.51329 0.52061 0.003 0.0
C1430 C 0.48598 0.5183 0.01107 0.0
C1431 C 0.48815 0.52546 0.02871 0.0
C1432 C 0.46456 0.53594 0.00273 0.0
C1433 C 0.48041 0.48842 0.00871 0.0
C1434 C 0.50141 0.47583 0.0007 0.0
C1435 C 0.50048 0.44845 0.99667 0.0
C1436 C 0.47762 0.43345 0.00117 0.0
C1437 C 0.45622 0.44589 0.00966 0.0
C1438 C 0.45751 0.47373 0.01333 0.0
H1439 H 0.02259 0.54708 0.49704 0.0
H1440 H 0.08316 0.50133 0.52302 0.0
H1441 H 0.05698 0.45936 0.51858 0.0
H1442 H 0.96521 0.51252 0.51077 0.0
H1443 H 0.94741 0.51316 0.49218 0.0
H1444 H 0.97153 0.5394 0.49679 0.0
H1445 H -0.00194 0.52883 0.47104 0.0
H1446 H 0.97387 0.50268 0.46626 0.0
H1447 H 0.00951 0.49467 0.4673 0.0
H1448 H 0.0223 0.42309 0.51295 0.0
H1449 H 0.98355 0.39449 0.50462 0.0
H1450 H 0.94699 0.46377 0.48136 0.0
C1451 C 0.03063 0.52819 0.50162 0.0
C1452 C 0.05455 0.52764 0.51079 0.0
C1453 C 0.06434 0.5025 0.51654 0.0
C1454 C 0.04977 0.47848 0.51389 0.0
C1455 C 0.02575 0.47995 0.50526 0.0
C1456 C 0.01648 0.50411 0.499 0.0
C1457 C 0.98988 0.50038 0.49035 0.0
C1458 C 0.96718 0.51737 0.49799 0.0
C1459 C 0.99303 0.50703 0.47269 0.0
C1460 C 0.98539 0.47038 0.49293 0.0
C1461 C 0.00628 0.45895 0.50156 0.0
C1462 C 0.00602 0.43172 0.50599 0.0
C1463 C 0.98394 0.41572 0.50131 0.0
C1464 C 0.9627 0.42699 0.49219 0.0
C1465 C 0.96336 0.45465 0.48805 0.0
H1466 H 0.04727 0.46103 0.99893 0.0
H1467 H -0.00189 0.39292 0.01431 0.0
H1468 H 0.96372 0.42468 0.02474 0.0
H1469 H 0.03112 0.50599 0.03166 0.0
H1470 H 0.03035 0.53583 0.01935 0.0
H1471 H 0.05194 0.50769 0.01416 0.0
H1472 H 0.02923 0.50518 0.98656 0.0
H1473 H 0.00754 0.53324 0.99168 0.0
H1474 H 0.9929 0.50161 0.98522 0.0
H1475 H 0.93314 0.46366 0.03156 0.0
H1476 H 0.90963 0.50757 0.03555 0.0
H1477 H 0.97877 0.54985 0.01558 0.0
C1478 C 0.0292 0.45277 0.00434 0.0
C1479 C 0.02509 0.42455 0.00555 0.0
C1480 C 0.00162 0.41455 0.01328 0.0
C1481 C 0.98195 0.43239 0.01918 0.0
C1482 C 0.98623 0.46012 0.01737 0.0
C1483 C 0.00937 0.47028 0.01026 0.0
C1484 C 0.00876 0.50092 0.00945 0.0
C1485 C 0.03191 0.51333 0.01924 0.0
C1486 C 0.00965 0.51081 0.9922 0.0
C1487 C 0.98144 0.50635 0.01695 0.0
C1488 C 0.9688 0.48258 0.02151 0.0
C1489 C 0.94301 0.48246 0.02829 0.0
C1490 C 0.92991 0.5074 0.0306 0.0
C1491 C 0.94277 0.53192 0.02623 0.0
C1492 C 0.96868 0.53132 0.01917 0.0
H1493 H 0.52253 0.45456 0.48703 0.0
H1494 H 0.51126 0.4527 0.53788 0.0
H1495 H 0.48407 0.4945 0.53648 0.0
H1496 H 0.528 0.52764 0.48337 0.0
H1497 H 0.50966 0.52881 0.46496 0.0
H1498 H 0.52893 0.49904 0.47009 0.0
H1499 H 0.48582 0.46953 0.4665 0.0
H1500 H 0.46634 0.49929 0.46159 0.0
H1501 H 0.45561 0.47764 0.47758 0.0
H1502 H 0.45753 0.53575 0.52965 0.0
H1503 H 0.43461 0.57535 0.51778 0.0
H1504 H 0.46333 0.55073 0.47142 0.0
C1505 C 0.51453 0.46318 0.49785 0.0
C1506 C 0.51965 0.45094 0.51261 0.0
C1507 C 0.50856 0.4624 0.52654 0.0
C1508 C 0.49274 0.48592 0.52584 0.0
C1509 C 0.4881 0.49756 0.51112 0.0
C1510 C 0.49876 0.48674 0.49738 0.0
C1511 C 0.49069 0.50334 0.48309 0.0
C1512 C 0.51582 0.51543 0.4749 0.0
C1513 C 0.4736 0.48644 0.47151 0.0
C1514 C 0.47379 0.52512 0.49099 0.0
C1515 C 0.47246 0.5213 0.50714 0.0
C1516 C 0.45833 0.53895 0.51701 0.0
C1517 C 0.44541 0.56133 0.51017 0.0
C1518 C 0.44668 0.56575 0.49366 0.0
C1519 C 0.46109 0.54738 0.48398 0.0
H1520 H 0.37275 0.21684 0.17411 0.0
H1521 H 0.37882 0.15039 0.14067 0.0
H1522 H 0.36173 0.18049 0.11948 0.0
H1523 H 0.31271 0.252 0.15626 0.0
H1524 H 0.32709 0.28493 0.16023 0.0
H1525 H 0.33417 0.25687 0.17327 0.0
H1526 H 0.38578 0.26454 0.16934 0.0
H1527 H 0.37889 0.29248 0.15633 0.0
H1528 H 0.39964 0.26463 0.14961 0.0
H1529 H 0.3492 0.21877 0.10158 0.0
H1530 H 0.3472 0.26263 0.08774 0.0
H1531 H 0.3519 0.30475 0.13274 0.0
C1532 C 0.36962 0.20836 0.16244 0.0
C1533 C 0.37666 0.1812 0.15904 0.0
C1534 C 0.3733 0.1711 0.14351 0.0
C1535 C 0.36343 0.18799 0.13146 0.0
C1536 C 0.35718 0.21489 0.13516 0.0
C1537 C 0.36031 0.22504 0.15027 0.0
C1538 C 0.35608 0.25546 0.15075 0.0
C1539 C 0.33102 0.26274 0.16072 0.0
C1540 C 0.38162 0.27012 0.15686 0.0
C1541 C 0.35125 0.26108 0.1334 0.0
C1542 C 0.35113 0.23731 0.12469 0.0
C1543 C 0.34892 0.23747 0.10829 0.0
C1544 C 0.34782 0.26255 0.10054 0.0
C1545 C 0.34952 0.28718 0.10916 0.0
C1546 C 0.35032 0.28632 0.12583 0.0
H1547 H 0.93954 0.10643 0.38011 0.0
H1548 H 0.98409 0.08492 0.33763 0.0
H1549 H 0.02513 0.07722 0.35354 0.0
H1550 H 0.98809 0.14416 0.39707 0.0
H1551 H 0.98247 0.13377 0.41723 0.0
H1552 H 0.95523 0.13198 0.40321 0.0
H1553 H 0.94888 0.08081 0.40927 0.0
H1554 H 0.97611 0.08247 0.42346 0.0
H1555 H 0.97742 0.0581 0.40759 0.0
H1556 H 0.06316 0.08291 0.37263 0.0
H1557 H 0.09411 0.09673 0.39422 0.0
H1558 H 0.02492 0.11051 0.42481 0.0
C1559 C 0.95764 0.09912 0.37423 0.0
C1560 C 0.95856 0.09639 0.35761 0.0
C1561 C 0.98279 0.08713 0.35034 0.0
C1562 C 0.00627 0.08264 0.3593 0.0
C1563 C 0.00507 0.08684 0.37556 0.0
C1564 C 0.9812 0.09423 0.38303 0.0
C1565 C 0.98594 0.1 0.4004 0.0
C1566 C 0.97744 0.1292 0.40471 0.0
C1567 C 0.97121 0.07909 0.41079 0.0
C1568 C 0.01642 0.09636 0.40128 0.0
C1569 C 0.02709 0.08857 0.38685 0.0
C1570 C 0.05504 0.08796 0.38415 0.0
C1571 C 0.07247 0.0959 0.39642 0.0
C1572 C 0.06185 0.1039 0.41123 0.0
C1573 C 0.03355 0.10339 0.41378 0.0
H1574 H 0.14424 0.78933 0.66843 0.0
H1575 H 0.12625 0.85161 0.63388 0.0
H1576 H 0.13602 0.81899 0.61233 0.0
H1577 H 0.19624 0.74968 0.6449 0.0
H1578 H 0.18267 0.71796 0.65198 0.0
H1579 H 0.18152 0.74772 0.66438 0.0
H1580 H 0.12957 0.74179 0.66745 0.0
H1581 H 0.13043 0.71234 0.65495 0.0
H1582 H 0.10859 0.74043 0.65002 0.0
H1583 H 0.14127 0.7785 0.59493 0.0
H1584 H 0.13754 0.7332 0.58293 0.0
H1585 H 0.14816 0.6962 0.62908 0.0
C1586 C 0.14371 0.79644 0.65632 0.0
C1587 C 0.13537 0.82315 0.65274 0.0
C1588 C 0.13323 0.83137 0.63679 0.0
C1589 C 0.1388 0.813 0.62452 0.0
C1590 C 0.14608 0.78645 0.62846 0.0
C1591 C 0.14843 0.77816 0.644 0.0
C1592 C 0.15178 0.74764 0.64518 0.0
C1593 C 0.17972 0.74032 0.65201 0.0
C1594 C 0.12871 0.73482 0.65497 0.0
C1595 C 0.14981 0.73988 0.62792 0.0
C1596 C 0.14738 0.76263 0.61844 0.0
C1597 C 0.14352 0.76058 0.6022 0.0
C1598 C 0.14136 0.73468 0.59551 0.0
C1599 C 0.14246 0.71107 0.60508 0.0
C1600 C 0.14743 0.7138 0.62144 0.0
H1601 H 0.538 0.91114 0.87417 0.0
H1602 H 0.49239 0.89789 0.83099 0.0
H1603 H 0.44998 0.89662 0.84635 0.0
H1604 H 0.50457 0.86646 0.89688 0.0
H1605 H 0.50437 0.8859 0.91493 0.0
H1606 H 0.5304 0.89163 0.90046 0.0
H1607 H 0.5177 0.94261 0.89924 0.0
H1608 H 0.49166 0.93709 0.91388 0.0
H1609 H 0.48314 0.95236 0.89518 0.0
H1610 H 0.41468 0.88609 0.86654 0.0
H1611 H 0.38849 0.87181 0.89008 0.0
H1612 H 0.45573 0.89509 0.92014 0.0
C1613 C 0.519 0.909 0.86787 0.0
C1614 C 0.5186 0.90455 0.85138 0.0
C1615 C 0.4933 0.90142 0.84362 0.0
C1616 C 0.46902 0.9007 0.85225 0.0
C1617 C 0.47025 0.90377 0.86859 0.0
C1618 C 0.49452 0.90853 0.87631 0.0
C1619 C 0.49065 0.90852 0.89408 0.0
C1620 C 0.50854 0.88684 0.90204 0.0
C1621 C 0.49611 0.93684 0.901 0.0
C1622 C 0.46082 0.90133 0.89514 0.0
C1623 C 0.44933 0.89893 0.88031 0.0
C1624 C 0.42311 0.88883 0.87823 0.0
C1625 C 0.40843 0.88066 0.89163 0.0
C1626 C 0.41991 0.88292 0.90689 0.0
C1627 C 0.44614 0.89404 0.90864 0.0
H1628 H 0.37615 0.82412 0.35531 0.0
H1629 H 0.33079 0.78954 0.31622 0.0
H1630 H 0.31033 0.75626 0.33416 0.0
H1631 H 0.39457 0.76489 0.37177 0.0
H1632 H 0.39163 0.77501 0.39217 0.0
H1633 H 0.39795 0.8001 0.37725 0.0
H1634 H 0.35532 0.82687 0.38617 0.0
H1635 H 0.3489 0.8018 0.40124 0.0
H1636 H 0.32292 0.80996 0.38703 0.0
H1637 H 0.30253 0.72099 0.35457 0.0
H1638 H 0.30677 0.68788 0.37638 0.0
H1639 H 0.35542 0.74577 0.40263 0.0
C1640 C 0.36115 0.81022 0.35065 0.0
C1641 C 0.355 0.8097 0.33436 0.0
C1642 C 0.3357 0.79069 0.32866 0.0
C1643 C 0.32386 0.77162 0.33879 0.0
C1644 C 0.33119 0.77193 0.35465 0.0
C1645 C 0.34908 0.791 0.36063 0.0
C1646 C 0.35605 0.7849 0.37768 0.0
C1647 C 0.38686 0.78098 0.37983 0.0
C1648 C 0.34514 0.80721 0.38868 0.0
C1649 C 0.34071 0.75856 0.37999 0.0
C1650 C 0.32611 0.75163 0.36666 0.0
C1651 C 0.31319 0.72654 0.36526 0.0
C1652 C 0.31577 0.70781 0.37767 0.0
C1653 C 0.33113 0.71435 0.39126 0.0
C1654 C 0.34296 0.7404 0.39257 0.0
H1655 H 0.45329 0.08837 0.58378 0.0
H1656 H 0.38983 0.1109 0.6167 0.0
H1657 H 0.41986 0.09915 0.63906 0.0
H1658 H 0.48786 0.03415 0.60902 0.0
H1659 H 0.52085 0.04553 0.60261 0.0
H1660 H 0.49221 0.04783 0.58942 0.0
H1661 H 0.50142 0.0992 0.58581 0.0
H1662 H 0.52977 0.09718 0.59904 0.0
H1663 H 0.5027 0.12086 0.60298 0.0
H1664 H 0.45859 0.09309 0.65746 0.0
H1665 H 0.50317 0.09641 0.6704 0.0
H1666 H 0.54279 0.08087 0.62545 0.0
C1667 C 0.44531 0.08946 0.59569 0.0
C1668 C 0.41907 0.09982 0.59858 0.0
C1669 C 0.40971 0.10246 0.6143 0.0
C1670 C 0.42662 0.09576 0.62705 0.0
C1671 C 0.4529 0.08671 0.62384 0.0
C1672 C 0.46222 0.08354 0.60852 0.0
C1673 C 0.49255 0.07839 0.60819 0.0
C1674 C 0.49873 0.04977 0.60194 0.0
C1675 C 0.50746 0.10021 0.59844 0.0
C1676 C 0.49909 0.08067 0.62563 0.0
C1677 C 0.47582 0.08456 0.63449 0.0
C1678 C 0.47689 0.08956 0.65069 0.0
C1679 C 0.50238 0.09149 0.65793 0.0
C1680 C 0.52655 0.08895 0.64894 0.0
C1681 C 0.52474 0.08259 0.63268 0.0
H1682 H 0.13767 0.30709 0.87255 0.0
H1683 H 0.13874 0.26158 0.91645 0.0
H1684 H 0.13986 0.21878 0.90143 0.0
H1685 H 0.0946 0.26653 0.85223 0.0
H1686 H 0.11132 0.2685 0.83331 0.0
H1687 H 0.11508 0.29566 0.84731 0.0
H1688 H 0.16739 0.29068 0.84618 0.0
H1689 H 0.16384 0.26362 0.83198 0.0
H1690 H 0.18268 0.25807 0.84994 0.0
H1691 H 0.13041 0.1815 0.88191 0.0
H1692 H 0.11864 0.15248 0.85891 0.0
H1693 H 0.1288 0.22156 0.8278 0.0
C1694 C 0.13908 0.28814 0.87898 0.0
C1695 C 0.13808 0.2877 0.89564 0.0
C1696 C 0.13969 0.26248 0.90367 0.0
C1697 C 0.14026 0.238 0.89524 0.0
C1698 C 0.14001 0.23907 0.87881 0.0
C1699 C 0.14031 0.26351 0.87074 0.0
C1700 C 0.1385 0.25907 0.85308 0.0
C1701 C 0.11338 0.27327 0.84608 0.0
C1702 C 0.16467 0.26841 0.84481 0.0
C1703 C 0.13568 0.2285 0.85255 0.0
C1704 C 0.13653 0.21726 0.86749 0.0
C1705 C 0.13071 0.18986 0.87008 0.0
C1706 C 0.12392 0.17357 0.85703 0.0
C1707 C 0.12357 0.18472 0.84165 0.0
C1708 C 0.12992 0.21238 0.83942 0.0
H1709 H 0.93198 0.89589 0.11627 0.0
H1710 H 0.9714 0.91874 0.1601 0.0
H1711 H 0.01509 0.92249 0.14606 0.0
H1712 H 0.97995 0.85387 0.10287 0.0
H1713 H 0.97805 0.86265 0.08222 0.0
H1714 H 0.94904 0.86757 0.09474 0.0
H1715 H 0.94715 0.91839 0.08695 0.0
H1716 H 0.97611 0.91358 0.0742 0.0
H1717 H 0.97688 0.9393 0.08935 0.0
H1718 H 0.05546 0.91235 0.129 0.0
H1719 H 0.08836 0.89482 0.10933 0.0
H1720 H 0.02284 0.88254 0.076 0.0
C1721 C 0.94959 0.90277 0.12278 0.0
C1722 C 0.94824 0.90702 0.13927 0.0
C1723 C 0.97182 0.9156 0.14744 0.0
C1724 C 0.99681 0.91774 0.13955 0.0
C1725 C -0.00225 0.91196 0.12343 0.0
C1726 C 0.97459 0.90541 0.11503 0.0
C1727 C 0.98139 0.89767 0.09815 0.0
C1728 C 0.97154 0.86873 0.09429 0.0
C1729 C 0.96969 0.91848 0.08647 0.0
C1730 C 0.01206 0.89921 0.09866 0.0
C1731 C 0.02116 0.90765 0.11331 0.0
C1732 C 0.04864 0.90674 0.1173 0.0
C1733 C 0.06718 0.89667 0.10611 0.0
C1734 C 0.05817 0.88804 0.09106 0.0
C1735 C 0.03038 0.89002 0.08721 0.0
H1736 H 0.64453 0.7024 0.87446 0.0
H1737 H 0.64148 0.74931 0.91787 0.0
H1738 H 0.64383 0.79157 0.90245 0.0
H1739 H 0.68971 0.75157 0.85174 0.0
H1740 H 0.67141 0.74516 0.83369 0.0
H1741 H 0.67518 0.71856 0.84816 0.0
H1742 H 0.62296 0.7125 0.84897 0.0
H1743 H 0.61901 0.73907 0.83464 0.0
H1744 H 0.60177 0.74137 0.85339 0.0
H1745 H 0.63622 0.82793 0.88265 0.0
H1746 H 0.62291 0.85584 0.85963 0.0
H1747 H 0.63373 0.78613 0.82898 0.0
C1748 C 0.64536 0.72152 0.88075 0.0
C1749 C 0.64274 0.72251 0.89736 0.0
C1750 C 0.64343 0.74799 0.90514 0.0
C1751 C 0.64488 0.77216 0.89648 0.0
C1752 C 0.64615 0.77055 0.88008 0.0
C1753 C 0.64698 0.74588 0.87227 0.0
C1754 C 0.64549 0.74975 0.85454 0.0
C1755 C 0.67203 0.74072 0.84656 0.0
C1756 C 0.62084 0.7348 0.84749 0.0
C1757 C 0.64207 0.78026 0.85367 0.0
C1758 C 0.64281 0.79193 0.86852 0.0
C1759 C 0.6365 0.81924 0.8709 0.0
C1760 C 0.62884 0.8349 0.85781 0.0
C1761 C 0.62781 0.82322 0.84255 0.0
C1762 C 0.63522 0.79577 0.84045 0.0
H1763 H 0.00106 0.87983 0.65171 0.0
H1764 H 0.05453 0.93668 0.62795 0.0
H1765 H 0.02101 0.94152 0.60644 0.0
H1766 H 0.98304 0.84459 0.61893 0.0
H1767 H 0.94831 0.83836 0.62457 0.0
H1768 H 0.97357 0.84372 0.63952 0.0
H1769 H 0.94518 0.88323 0.6512 0.0
H1770 H 0.91969 0.87792 0.63624 0.0
H1771 H 0.93495 0.91091 0.63861 0.0
H1772 H 0.9853 0.93465 0.58572 0.0
H1773 H 0.95135 0.91579 0.56734 0.0
H1774 H 0.92141 0.86313 0.60461 0.0
C1775 C 0.00538 0.894 0.64225 0.0
C1776 C 0.03037 0.90801 0.64156 0.0
C1777 C 0.03547 0.92584 0.62877 0.0
C1778 C 0.01648 0.92881 0.61653 0.0
C1779 C 0.99242 0.91396 0.61731 0.0
C1780 C 0.98675 0.89703 0.62992 0.0
C1781 C 0.96113 0.8808 0.62708 0.0
C1782 C 0.96688 0.85007 0.62754 0.0
C1783 C 0.93892 0.8887 0.63899 0.0
C1784 C 0.95397 0.89023 0.61058 0.0
C1785 C 0.9719 0.90979 0.60527 0.0
C1786 C 0.97083 0.91973 0.58986 0.0
C1787 C 0.95147 0.90884 0.57949 0.0
C1788 C 0.93362 0.888 0.58452 0.0
C1789 C 0.93443 0.87931 0.60043 0.0
H1790 H 0.88081 0.17353 0.35629 0.0
H1791 H 0.83323 0.20706 0.31782 0.0
H1792 H 0.81409 0.24117 0.33594 0.0
H1793 H 0.82982 0.18713 0.38854 0.0
H1794 H 0.85623 0.19565 0.4024 0.0
H1795 H 0.86254 0.17093 0.38711 0.0
H1796 H 0.90414 0.19873 0.37767 0.0
H1797 H 0.89793 0.2235 0.39284 0.0
H1798 H 0.89976 0.23394 0.37245 0.0
H1799 H 0.80636 0.27628 0.35681 0.0
H1800 H 0.80951 0.30845 0.37918 0.0
H1801 H 0.86058 0.25129 0.40436 0.0
C1802 C 0.86571 0.18746 0.35177 0.0
C1803 C 0.85854 0.18752 0.3356 0.0
C1804 C 0.83908 0.20652 0.33014 0.0
C1805 C 0.82798 0.22596 0.34037 0.0
C1806 C 0.83624 0.22599 0.3561 0.0
C1807 C 0.8544 0.207 0.36184 0.0
C1808 C 0.86197 0.21302 0.37883 0.0
C1809 C 0.85204 0.19033 0.38987 0.0
C1810 C 0.89276 0.21758 0.38053 0.0
C1811 C 0.84621 0.23902 0.38149 0.0
C1812 C 0.83124 0.24602 0.36831 0.0
C1813 C 0.81742 0.27068 0.36736 0.0
C1814 C 0.81936 0.28886 0.38009 0.0
C1815 C 0.83494 0.28222 0.39359 0.0
C1816 C 0.8479 0.25666 0.3944 0.0
H1817 H 0.57139 0.13278 0.10133 0.0
H1818 H 0.53616 0.08265 0.06452 0.0
H1819 H 0.50403 0.06349 0.0838 0.0
H1820 H 0.56164 0.08259 0.13458 0.0
H1821 H 0.55369 0.10937 0.14835 0.0
H1822 H 0.57701 0.11557 0.13231 0.0
H1823 H 0.5476 0.15624 0.12319 0.0
H1824 H 0.52423 0.15013 0.1391 0.0
H1825 H 0.51212 0.15096 0.11901 0.0
H1826 H 0.47063 0.05606 0.10571 0.0
H1827 H 0.44012 0.05962 0.12885 0.0
H1828 H 0.49805 0.11283 0.15181 0.0
C1829 C 0.55753 0.11713 0.09741 0.0
C1830 C 0.55636 0.10931 0.08133 0.0
C1831 C 0.53751 0.08909 0.0767 0.0
C1832 C 0.51919 0.07796 0.08761 0.0
C1833 C 0.52018 0.08691 0.10322 0.0
C1834 C 0.53915 0.10574 0.10818 0.0
C1835 C 0.53433 0.11385 0.12523 0.0
C1836 C 0.55808 0.10479 0.13574 0.0
C1837 C 0.52926 0.1446 0.1267 0.0
C1838 C 0.50892 0.09767 0.12883 0.0
C1839 C 0.50124 0.08199 0.11605 0.0
C1840 C 0.47681 0.06766 0.11595 0.0
C1841 C 0.45957 0.06984 0.12912 0.0
C1842 C 0.46689 0.08612 0.14222 0.0
C1843 C 0.49223 0.09958 0.14218 0.0
H1844 H 0.6514 0.29608 0.61621 0.0
H1845 H 0.63713 0.25142 0.57278 0.0
H1846 H 0.63905 0.20843 0.58752 0.0
H1847 H 0.69738 0.243 0.6349 0.0
H1848 H 0.68354 0.24987 0.65422 0.0
H1849 H 0.68605 0.27675 0.63984 0.0
H1850 H 0.63463 0.28629 0.64302 0.0
H1851 H 0.63187 0.25934 0.65722 0.0
H1852 H 0.6107 0.25915 0.63986 0.0
H1853 H 0.63188 0.17176 0.6076 0.0
H1854 H 0.62286 0.14357 0.63131 0.0
H1855 H 0.64575 0.21112 0.66129 0.0
C1856 C 0.64968 0.27722 0.60972 0.0
C1857 C 0.64403 0.27718 0.59336 0.0
C1858 C 0.64158 0.25205 0.5853 0.0
C1859 C 0.64262 0.22745 0.59358 0.0
C1860 C 0.64683 0.22824 0.60984 0.0
C1861 C 0.65112 0.25243 0.61777 0.0
C1862 C 0.65315 0.2479 0.63542 0.0
C1863 C 0.68174 0.25478 0.64145 0.0
C1864 C 0.63128 0.26412 0.64439 0.0
C1865 C 0.64782 0.21768 0.63622 0.0
C1866 C 0.64429 0.20663 0.62135 0.0
C1867 C 0.63557 0.17989 0.61928 0.0
C1868 C 0.63035 0.16409 0.63276 0.0
C1869 C 0.63426 0.17503 0.64803 0.0
C1870 C 0.64354 0.20197 0.64971 0.0
H1871 H 0.48748 0.8669 0.3436 0.0
H1872 H 0.4433 0.93721 0.36064 0.0
H1873 H 0.48003 0.94641 0.37985 0.0
H1874 H 0.50629 0.84395 0.3804 0.0
H1875 H 0.53907 0.8312 0.37452 0.0
H1876 H 0.51212 0.83328 0.36029 0.0
H1877 H 0.54261 0.86262 0.3421 0.0
H1878 H 0.5697 0.86073 0.35636 0.0
H1879 H 0.55761 0.89332 0.34972 0.0
H1880 H 0.51929 0.94526 0.39883 0.0
H1881 H 0.55445 0.93128 0.41781 0.0
H1882 H 0.57163 0.86018 0.38919 0.0
C1883 C 0.4859 0.88471 0.35105 0.0
C1884 C 0.46275 0.90162 0.35048 0.0
C1885 C 0.46098 0.92415 0.36081 0.0
C1886 C 0.48183 0.92961 0.37167 0.0
C1887 C 0.5042 0.91224 0.37212 0.0
C1888 C 0.50625 0.89013 0.36213 0.0
C1889 C 0.53043 0.87255 0.36632 0.0
C1890 C 0.52142 0.84355 0.37065 0.0
C1891 C 0.55133 0.87231 0.35282 0.0
C1892 C 0.54117 0.88769 0.38058 0.0
C1893 C 0.52621 0.91091 0.38348 0.0
C1894 C 0.53126 0.92725 0.39659 0.0
C1895 C 0.55133 0.91909 0.40734 0.0
C1896 C 0.56578 0.89448 0.40513 0.0
C1897 C 0.56122 0.87922 0.39121 0.0
H1898 H 0.83729 0.78758 0.17249 0.0
H1899 H 0.84261 0.85571 0.1402 0.0
H1900 H 0.82807 0.82606 0.11829 0.0
H1901 H 0.86882 0.74388 0.14933 0.0
H1902 H 0.84956 0.71398 0.15431 0.0
H1903 H 0.85183 0.74143 0.16817 0.0
H1904 H 0.79943 0.74494 0.16927 0.0
H1905 H 0.7969 0.7171 0.1555 0.0
H1906 H 0.78044 0.74893 0.15122 0.0
H1907 H 0.82336 0.78792 0.09929 0.0
H1908 H 0.82936 0.74486 0.08488 0.0
H1909 H 0.82855 0.70099 0.12933 0.0
C1910 C 0.83409 0.7966 0.16097 0.0
C1911 C 0.84081 0.82405 0.15809 0.0
C1912 C 0.83731 0.83482 0.14272 0.0
C1913 C 0.82898 0.81811 0.1302 0.0
C1914 C 0.82412 0.79071 0.13325 0.0
C1915 C 0.82627 0.78008 0.14833 0.0
C1916 C 0.82463 0.74936 0.14811 0.0
C1917 C 0.85023 0.73644 0.1554 0.0
C1918 C 0.7988 0.73951 0.15652 0.0
C1919 C 0.82306 0.74427 0.13049 0.0
C1920 C 0.82197 0.76838 0.12215 0.0
C1921 C 0.82352 0.76892 0.1057 0.0
C1922 C 0.82705 0.74432 0.09761 0.0
C1923 C 0.82937 0.71953 0.10598 0.0
C1924 C 0.82637 0.71953 0.12258 0.0
H1925 H 0.91691 0.13922 0.88736 0.0
H1926 H 0.93004 0.06331 0.91216 0.0
H1927 H 0.96112 0.04837 0.89105 0.0
H1928 H 0.92351 0.11038 0.84581 0.0
H1929 H 0.94067 0.1406 0.83916 0.0
H1930 H 0.91521 0.14281 0.85443 0.0
H1931 H 0.9499 0.16667 0.87273 0.0
H1932 H 0.9755 0.16425 0.85768 0.0
H1933 H 0.98172 0.15017 0.877 0.0
H1934 H 0.99749 0.04576 0.87043 0.0
H1935 H 0.03376 0.0545 0.85086 0.0
H1936 H 0.99584 0.13123 0.83889 0.0
C1937 C 0.92543 0.119 0.88806 0.0
C1938 C 0.92112 0.10251 0.90149 0.0
C1939 C 0.93317 0.07641 0.90207 0.0
C1940 C 0.95077 0.06767 0.89007 0.0
C1941 C 0.95578 0.08505 0.87741 0.0
C1942 C 0.94303 0.10997 0.87616 0.0
C1943 C 0.95404 0.12604 0.86231 0.0
C1944 C 0.93204 0.13019 0.84968 0.0
C1945 C 0.966 0.15338 0.86777 0.0
C1946 C 0.97597 0.10693 0.85652 0.0
C1947 C 0.97644 0.08322 0.86524 0.0
C1948 C 0.99685 0.06388 0.86322 0.0
C1949 C 0.01745 0.06907 0.85214 0.0
C1950 C 0.01745 0.09337 0.84323 0.0
C1951 C 0.99605 0.11216 0.84525 0.0
H1952 H 0.87882 0.75552 0.59544 0.0
H1953 H 0.81463 0.80489 0.61556 0.0
H1954 H 0.80695 0.77 0.63612 0.0
H1955 H 0.84978 0.68725 0.60523 0.0
H1956 H 0.88275 0.67382 0.6101 0.0
H1957 H 0.87955 0.6998 0.59521 0.0
H1958 H 0.91383 0.7299 0.61041 0.0
H1959 H 0.91719 0.70409 0.62527 0.0
H1960 H 0.90743 0.73803 0.63085 0.0
H1961 H 0.80982 0.73281 0.65603 0.0
H1962 H 0.82565 0.69889 0.67525 0.0
H1963 H 0.88966 0.67465 0.6429 0.0
C1964 C 0.86255 0.75857 0.60387 0.0
C1965 C 0.84699 0.78268 0.6038 0.0
C1966 C 0.82659 0.78644 0.61536 0.0
C1967 C 0.82198 0.76666 0.62699 0.0
C1968 C 0.83807 0.74334 0.62693 0.0
C1969 C 0.85805 0.73928 0.6157 0.0
C1970 C 0.87504 0.71448 0.6195 0.0
C1971 C 0.87156 0.69254 0.60675 0.0
C1972 C 0.90513 0.7221 0.62164 0.0
C1973 C 0.8622 0.70581 0.63496 0.0
C1974 C 0.84045 0.7223 0.6388 0.0
C1975 C 0.82658 0.71956 0.65305 0.0
C1976 C 0.8358 0.70021 0.66392 0.0
C1977 C 0.85896 0.68407 0.66062 0.0
C1978 C 0.87167 0.68633 0.64569 0.0
H1979 H 0.48232 0.63073 0.84764 0.0
H1980 H 0.44453 0.55654 0.86438 0.0
H1981 H 0.48086 0.55156 0.88434 0.0
H1982 H 0.55397 0.6108 0.85468 0.0
H1983 H 0.56301 0.64448 0.86112 0.0
H1984 H 0.53656 0.63988 0.84666 0.0
H1985 H 0.50322 0.66697 0.86435 0.0
H1986 H 0.52948 0.67166 0.87882 0.0
H1987 H 0.49773 0.65631 0.88449 0.0
H1988 H 0.51867 0.5572 0.90405 0.0
H1989 H 0.55282 0.57416 0.92285 0.0
H1990 H 0.56489 0.64553 0.89363 0.0
C1991 C 0.48199 0.61303 0.85522 0.0
C1992 C 0.46068 0.59386 0.85435 0.0
C1993 C 0.46072 0.57138 0.86477 0.0
C1994 C 0.48134 0.56834 0.87609 0.0
C1995 C 0.50176 0.58793 0.87681 0.0
C1996 C 0.50221 0.60985 0.86665 0.0
C1997 C 0.52465 0.62956 0.87087 0.0
C1998 C 0.5458 0.63127 0.85754 0.0
C1999 C 0.51307 0.65778 0.87487 0.0
C2000 C 0.53627 0.61578 0.88534 0.0
C2001 C 0.52314 0.59154 0.8884 0.0
C2002 C 0.52924 0.57602 0.90168 0.0
C2003 C 0.54865 0.5859 0.91234 0.0
C2004 C 0.56153 0.61127 0.90981 0.0
C2005 C 0.55572 0.62593 0.89585 0.0
H2006 H 0.62425 0.23929 0.08931 0.0
H2007 H 0.68054 0.18407 0.11207 0.0
H2008 H 0.69053 0.2191 0.13221 0.0
H2009 H 0.66037 0.30408 0.09847 0.0
H2010 H 0.62892 0.32168 0.10215 0.0
H2011 H 0.63009 0.29442 0.08794 0.0
H2012 H 0.5913 0.26978 0.10285 0.0
H2013 H 0.59 0.29688 0.11704 0.0
H2014 H 0.59517 0.26247 0.12361 0.0
H2015 H 0.69015 0.25759 0.15143 0.0
H2016 H 0.67711 0.29446 0.16938 0.0
H2017 H 0.61989 0.32448 0.13454 0.0
C2018 C 0.63935 0.23484 0.09823 0.0
C2019 C 0.65197 0.20909 0.09901 0.0
C2020 C 0.67085 0.20375 0.11119 0.0
C2021 C 0.67674 0.22357 0.12261 0.0
C2022 C 0.66348 0.24857 0.1217 0.0
C2023 C 0.6451 0.25422 0.10983 0.0
C2024 C 0.63097 0.28114 0.11262 0.0
C2025 C 0.63802 0.30154 0.09951 0.0
C2026 C 0.60004 0.27732 0.11413 0.0
C2027 C 0.64358 0.28937 0.12822 0.0
C2028 C 0.66273 0.2706 0.13305 0.0
C2029 C 0.67558 0.27266 0.14763 0.0
C2030 C 0.66808 0.29389 0.15775 0.0
C2031 C 0.64767 0.31277 0.15337 0.0
C2032 C 0.63591 0.3108 0.13817 0.0
H2033 H 0.92298 0.3345 0.39565 0.0
H2034 H 0.93815 0.41245 0.41779 0.0
H2035 H 0.97444 0.42152 0.39818 0.0
H2036 H 0.99002 0.31793 0.39158 0.0
H2037 H 0.98634 0.29991 0.37316 0.0
H2038 H 0.95822 0.30198 0.38665 0.0
H2039 H 0.92808 0.32297 0.36473 0.0
H2040 H 0.95602 0.32055 0.35105 0.0
H2041 H 0.9396 0.35276 0.35434 0.0
H2042 H 0.01211 0.41973 0.37748 0.0
H2043 H 0.04834 0.40654 0.3586 0.0
H2044 H 0.00961 0.32825 0.3522 0.0
C2045 C 0.93316 0.35397 0.39606 0.0
C2046 C 0.92739 0.37302 0.40806 0.0
C2047 C 0.94201 0.39776 0.40854 0.0
C2048 C 0.96263 0.40305 0.39746 0.0
C2049 C 0.96848 0.38327 0.38614 0.0
C2050 C 0.9541 0.35921 0.38542 0.0
C2051 C 0.96631 0.33968 0.37362 0.0
C2052 C 0.97578 0.31334 0.38174 0.0
C2053 C 0.94631 0.33365 0.36013 0.0
C2054 C 0.99007 0.35632 0.36791 0.0
C2055 C 0.99084 0.38158 0.37501 0.0
C2056 C 0.01157 0.40007 0.37179 0.0
C2057 C 0.03205 0.39242 0.36109 0.0
C2058 C 0.03182 0.36634 0.35406 0.0
C2059 C 0.01042 0.34828 0.35747 0.0
H2060 H 0.87296 0.23654 0.90415 0.0
H2061 H 0.80963 0.18836 0.8823 0.0
H2062 H 0.80409 0.22345 0.86167 0.0
H2063 H 0.84523 0.30508 0.89412 0.0
H2064 H 0.87862 0.31839 0.89016 0.0
H2065 H 0.87415 0.29206 0.90472 0.0
H2066 H 0.9094 0.26221 0.89007 0.0
H2067 H 0.9139 0.28831 0.87546 0.0
H2068 H 0.9044 0.25454 0.86944 0.0
H2069 H 0.8091 0.26102 0.84182 0.0
H2070 H 0.82557 0.29659 0.82372 0.0
H2071 H 0.88691 0.31949 0.85803 0.0
C2072 C 0.85729 0.23379 0.89533 0.0
C2073 C 0.84142 0.20989 0.89495 0.0
C2074 C 0.82181 0.20662 0.88289 0.0
C2075 C 0.81847 0.2265 0.87116 0.0
C2076 C 0.83497 0.24949 0.87162 0.0
C2077 C 0.854 0.25323 0.88341 0.0
C2078 C 0.87136 0.27803 0.88022 0.0
C2079 C 0.86707 0.29967 0.89307 0.0
C2080 C 0.90154 0.2703 0.8787 0.0
C2081 C 0.85973 0.28718 0.86453 0.0
C2082 C 0.83841 0.27077 0.85993 0.0
C2083 C 0.82554 0.27421 0.84541 0.0
C2084 C 0.83508 0.29451 0.83518 0.0
C2085 C 0.85755 0.31097 0.83941 0.0
C2086 C 0.86952 0.30754 0.85447 0.0
H2087 H 0.92179 0.65353 0.11087 0.0
H2088 H 0.91536 0.56935 0.09659 0.0
H2089 H 0.95196 0.55722 0.11536 0.0
H2090 H 0.99022 0.65473 0.10958 0.0
H2091 H 0.9952 0.67778 0.12586 0.0
H2092 H 0.9642 0.67889 0.11474 0.0
H2093 H 0.93608 0.67162 0.1403 0.0
H2094 H 0.96706 0.67114 0.1516 0.0
H2095 H 0.94358 0.64318 0.15297 0.0
H2096 H 0.99335 0.55556 0.13362 0.0
H2097 H 0.03592 0.56502 0.14844 0.0
H2098 H 0.017 0.65093 0.14771 0.0
C2099 C 0.92708 0.63233 0.11229 0.0
C2100 C 0.91526 0.61224 0.10263 0.0
C2101 C 0.9238 0.58492 0.10417 0.0
C2102 C 0.94461 0.57789 0.11477 0.0
C2103 C 0.95687 0.5985 0.12354 0.0
C2104 C 0.9483 0.62519 0.12239 0.0
C2105 C 0.96725 0.64424 0.13099 0.0
C2106 C 0.97996 0.66511 0.11961 0.0
C2107 C 0.95262 0.65837 0.14479 0.0
C2108 C 0.98814 0.62425 0.13689 0.0
C2109 C 0.98163 0.59788 0.13286 0.0
C2110 C -0.00148 0.57615 0.13689 0.0
C2111 C 0.02264 0.58165 0.14523 0.0
C2112 C 0.02984 0.60868 0.14896 0.0
C2113 C 0.01221 0.63007 0.1448 0.0
H2114 H 0.65081 0.79135 0.37608 0.0
H2115 H 0.62881 0.75009 0.41957 0.0
H2116 H 0.63278 0.70601 0.40607 0.0
H2117 H 0.61306 0.75268 0.35141 0.0
H2118 H 0.63677 0.75186 0.33517 0.0
H2119 H 0.63741 0.77965 0.34889 0.0
H2120 H 0.68822 0.77024 0.35462 0.0
H2121 H 0.68769 0.74227 0.34088 0.0
H2122 H 0.69865 0.7369 0.36095 0.0
H2123 H 0.62998 0.66775 0.38692 0.0
H2124 H 0.62243 0.63833 0.36367 0.0
H2125 H 0.64894 0.70358 0.33293 0.0
C2126 C 0.64766 0.77301 0.38289 0.0
C2127 C 0.63947 0.77422 0.39887 0.0
C2128 C 0.63513 0.74974 0.40731 0.0
C2129 C 0.63747 0.72454 0.39976 0.0
C2130 C 0.64465 0.72407 0.38384 0.0
C2131 C 0.6501 0.74764 0.37555 0.0
C2132 C 0.65467 0.74178 0.35818 0.0
C2133 C 0.63425 0.7574 0.34782 0.0
C2134 C 0.68406 0.74817 0.35338 0.0
C2135 C 0.64936 0.71152 0.35787 0.0
C2136 C 0.64398 0.70158 0.37282 0.0
C2137 C 0.63498 0.67504 0.37521 0.0
C2138 C 0.63069 0.65848 0.36195 0.0
C2139 C 0.63554 0.66852 0.34654 0.0
C2140 C 0.64588 0.69505 0.34459 0.0
H2141 H 0.56916 0.35239 0.60366 0.0
H2142 H 0.5355 0.41373 0.57253 0.0
H2143 H 0.50484 0.42874 0.5937 0.0
H2144 H 0.50887 0.33234 0.61967 0.0
H2145 H 0.52101 0.32668 0.63949 0.0
H2146 H 0.54402 0.32399 0.62307 0.0
H2147 H 0.57566 0.35977 0.63583 0.0
H2148 H 0.55283 0.36243 0.65242 0.0
H2149 H 0.56213 0.39237 0.64145 0.0
H2150 H 0.47287 0.43223 0.61643 0.0
H2151 H 0.44315 0.42483 0.63957 0.0
H2152 H 0.49758 0.36175 0.65619 0.0
C2153 C 0.55601 0.36959 0.60146 0.0
C2154 C 0.55499 0.382 0.58641 0.0
C2155 C 0.53694 0.40401 0.58394 0.0
C2156 C 0.51939 0.41274 0.59593 0.0
C2157 C 0.52019 0.39943 0.61042 0.0
C2158 C 0.53825 0.37852 0.61332 0.0
C2159 C 0.5331 0.36583 0.62935 0.0
C2160 C 0.52634 0.33543 0.62779 0.0
C2161 C 0.55738 0.37038 0.64042 0.0
C2162 C 0.50862 0.38207 0.63466 0.0
C2163 C 0.5017 0.40159 0.62367 0.0
C2164 C 0.47841 0.41743 0.6253 0.0
C2165 C 0.46158 0.41301 0.63844 0.0
C2166 C 0.46815 0.3929 0.64975 0.0
C2167 C 0.49227 0.37765 0.64792 0.0
H2168 H 0.14702 0.187 0.3706 0.0
H2169 H 0.16198 0.23102 0.41416 0.0
H2170 H 0.17347 0.27188 0.3988 0.0
H2171 H 0.20042 0.22338 0.34596 0.0
H2172 H 0.17875 0.22289 0.32881 0.0
H2173 H 0.17714 0.19562 0.343 0.0
H2174 H 0.12546 0.20368 0.34632 0.0
H2175 H 0.12692 0.23081 0.3322 0.0
H2176 H 0.11344 0.237 0.35168 0.0
H2177 H 0.17285 0.3099 0.3795 0.0
H2178 H 0.1626 0.34129 0.35748 0.0
H2179 H 0.1517 0.2728 0.32609 0.0
C2180 C 0.15363 0.20495 0.37689 0.0
C2181 C 0.15356 0.20576 0.3936 0.0
C2182 C 0.16189 0.22983 0.40138 0.0
C2183 C 0.16858 0.25316 0.39274 0.0
C2184 C 0.16737 0.25203 0.3763 0.0
C2185 C 0.16055 0.2284 0.36843 0.0
C2186 C 0.15784 0.23333 0.35081 0.0
C2187 C 0.17986 0.21789 0.3416 0.0
C2188 C 0.12922 0.22577 0.34492 0.0
C2189 C 0.16261 0.26369 0.35015 0.0
C2190 C 0.1684 0.27407 0.36496 0.0
C2191 C 0.1694 0.30198 0.36774 0.0
C2192 C 0.1636 0.31968 0.3552 0.0
C2193 C 0.15732 0.30939 0.34005 0.0
C2194 C 0.15775 0.28111 0.3374 0.0
H2195 H 0.55095 0.40167 0.11958 0.0
H2196 H 0.51093 0.3987 0.16527 0.0
H2197 H 0.46701 0.40757 0.15245 0.0
H2198 H 0.50413 0.45427 0.10114 0.0
H2199 H 0.50541 0.43726 0.08229 0.0
H2200 H 0.53444 0.43644 0.09524 0.0
H2201 H 0.53435 0.38384 0.09426 0.0
H2202 H 0.50552 0.38454 0.08132 0.0
H2203 H 0.50389 0.36572 0.09956 0.0
H2204 H 0.42716 0.40678 0.1347 0.0
H2205 H 0.39462 0.39749 0.11316 0.0
H2206 H 0.45977 0.4036 0.07893 0.0
C2207 C 0.53309 0.40383 0.12694 0.0
C2208 C 0.53439 0.39949 0.14342 0.0
C2209 C 0.51046 0.4019 0.15261 0.0
C2210 C 0.48539 0.40714 0.14545 0.0
C2211 C 0.48459 0.41031 0.1291 0.0
C2212 C 0.50786 0.4091 0.11996 0.0
C2213 C 0.50106 0.40992 0.1025 0.0
C2214 C 0.5119 0.43603 0.09484 0.0
C2215 C 0.51183 0.3845 0.09392 0.0
C2216 C 0.47034 0.41013 0.10328 0.0
C2217 C 0.46124 0.41081 0.11874 0.0
C2218 C 0.43391 0.40719 0.12252 0.0
C2219 C 0.41557 0.40191 0.11025 0.0
C2220 C 0.42463 0.40054 0.09441 0.0
C2221 C 0.45215 0.40569 0.09088 0.0
H2222 H 0.36738 0.74821 0.90779 0.0
H2223 H 0.30369 0.79844 0.88795 0.0
H2224 H 0.295 0.76349 0.86762 0.0
H2225 H 0.39527 0.73017 0.87274 0.0
H2226 H 0.40444 0.69602 0.87821 0.0
H2227 H 0.40141 0.7217 0.89316 0.0
H2228 H 0.36647 0.69204 0.9082 0.0
H2229 H 0.3694 0.66617 0.89322 0.0
H2230 H 0.3366 0.68005 0.89809 0.0
H2231 H 0.29802 0.72688 0.84725 0.0
H2232 H 0.31434 0.6936 0.8277 0.0
H2233 H 0.37695 0.66773 0.86046 0.0
C2234 C 0.35095 0.75144 0.89952 0.0
C2235 C 0.336 0.7759 0.89954 0.0
C2236 C 0.31526 0.77976 0.8882 0.0
C2237 C 0.31007 0.75994 0.87667 0.0
C2238 C 0.32578 0.73637 0.87667 0.0
C2239 C 0.34578 0.73204 0.88783 0.0
C2240 C 0.3624 0.70703 0.88397 0.0
C2241 C 0.39264 0.71418 0.88189 0.0
C2242 C 0.35847 0.68502 0.89663 0.0
C2243 C 0.34953 0.69874 0.86847 0.0
C2244 C 0.32797 0.71547 0.86467 0.0
C2245 C 0.31454 0.71335 0.85024 0.0
C2246 C 0.32402 0.69436 0.83917 0.0
C2247 C 0.34697 0.67799 0.8425 0.0
C2248 C 0.35913 0.6796 0.8576 0.0
H2249 H 0.07237 0.61951 0.61165 0.0
H2250 H 0.04018 0.56792 0.57453 0.0
H2251 H 0.00299 0.55379 0.59221 0.0
H2252 H 0.05173 0.57481 0.64587 0.0
H2253 H 0.04365 0.60397 0.65785 0.0
H2254 H 0.07042 0.60596 0.64336 0.0
H2255 H 0.04686 0.64759 0.63066 0.0
H2256 H 0.01997 0.64561 0.64495 0.0
H2257 H 0.01215 0.64471 0.62416 0.0
H2258 H 0.96492 0.55186 0.6121 0.0
H2259 H 0.93091 0.56048 0.63305 0.0
H2260 H 0.98869 0.61212 0.65737 0.0
C2261 C 0.05809 0.6045 0.60739 0.0
C2262 C 0.05932 0.59484 0.59167 0.0
C2263 C 0.03983 0.57558 0.58653 0.0
C2264 C 0.01858 0.56738 0.59651 0.0
C2265 C 0.01727 0.57827 0.6117 0.0
C2266 C 0.0368 0.59606 0.61721 0.0
C2267 C 0.02944 0.60685 0.63342 0.0
C2268 C 0.05004 0.59732 0.64586 0.0
C2269 C 0.02695 0.63802 0.63327 0.0
C2270 C 0.00213 0.5934 0.63583 0.0
C2271 C 0.99555 0.57672 0.62328 0.0
C2272 C 0.97015 0.56432 0.62218 0.0
C2273 C 0.9509 0.5694 0.63411 0.0
C2274 C 0.95716 0.58674 0.64695 0.0
C2275 C 0.98338 0.59831 0.64791 0.0
H2276 H 0.1459 0.71381 0.17908 0.0
H2277 H 0.14704 0.64527 0.14693 0.0
H2278 H 0.15989 0.67597 0.12509 0.0
H2279 H 0.11084 0.75387 0.15554 0.0
H2280 H 0.12686 0.78559 0.16061 0.0
H2281 H 0.12686 0.75816 0.17453 0.0
H2282 H 0.1793 0.75979 0.17618 0.0
H2283 H 0.17954 0.7877 0.16239 0.0
H2284 H 0.19921 0.75765 0.15834 0.0
H2285 H 0.16314 0.71442 0.10612 0.0
H2286 H 0.15431 0.75663 0.09148 0.0
H2287 H 0.14744 0.80058 0.13576 0.0
C2288 C 0.1502 0.70498 0.16763 0.0
C2289 C 0.14588 0.67703 0.16476 0.0
C2290 C 0.15062 0.66652 0.14944 0.0
C2291 C 0.15798 0.68385 0.13698 0.0
C2292 C 0.16042 0.7116 0.14002 0.0
C2293 C 0.1568 0.72208 0.15503 0.0
C2294 C 0.15539 0.75282 0.15477 0.0
C2295 C 0.12839 0.76318 0.16176 0.0
C2296 C 0.17982 0.76522 0.16343 0.0
C2297 C 0.15706 0.75798 0.13717 0.0
C2298 C 0.16092 0.73403 0.12892 0.0
C2299 C 0.16064 0.73332 0.11247 0.0
C2300 C 0.15547 0.75747 0.10425 0.0
C2301 C 0.15005 0.78197 0.11248 0.0
C2302 C 0.15177 0.78229 0.12914 0.0
H2303 H 0.98838 0.38134 0.84841 0.0
H2304 H 0.92918 0.43172 0.87258 0.0
H2305 H 0.96195 0.43927 0.89424 0.0
H2306 H 0.00985 0.34707 0.88082 0.0
H2307 H 0.04503 0.34466 0.87511 0.0
H2308 H 0.01929 0.34783 0.86023 0.0
H2309 H 0.04345 0.39042 0.849 0.0
H2310 H 0.06936 0.38735 0.86393 0.0
H2311 H 0.05072 0.41863 0.86189 0.0
H2312 H -0.00174 0.43562 0.91489 0.0
H2313 H 0.03371 0.41959 0.93315 0.0
H2314 H 0.06893 0.37119 0.89545 0.0
C2315 C 0.98251 0.39461 0.85803 0.0
C2316 C 0.95624 0.40604 0.85877 0.0
C2317 C 0.94924 0.42285 0.87172 0.0
C2318 C 0.96778 0.42737 0.88404 0.0
C2319 C 0.99327 0.41511 0.88314 0.0
C2320 C 0.00067 0.39918 0.8704 0.0
C2321 C 0.02784 0.38561 0.87308 0.0
C2322 C 0.02533 0.35447 0.87227 0.0
C2323 C 0.0491 0.39614 0.86127 0.0
C2324 C 0.03396 0.39524 0.88967 0.0
C2325 C 0.01413 0.41276 0.89513 0.0
C2326 C 0.01416 0.42233 0.91063 0.0
C2327 C 0.03442 0.41306 0.92093 0.0
C2328 C 0.0542 0.39411 0.91575 0.0
C2329 C 0.05439 0.38593 0.89975 0.0
H2330 H 0.37412 0.23525 0.60344 0.0
H2331 H 0.31021 0.18849 0.62585 0.0
H2332 H 0.30714 0.22289 0.64708 0.0
H2333 H 0.40824 0.25017 0.63752 0.0
H2334 H 0.41876 0.28382 0.63183 0.0
H2335 H 0.41221 0.2587 0.61692 0.0
H2336 H 0.37734 0.29077 0.60365 0.0
H2337 H 0.38383 0.3161 0.61856 0.0
H2338 H 0.34969 0.30437 0.61516 0.0
H2339 H 0.31481 0.25927 0.66734 0.0
H2340 H 0.33438 0.29254 0.68579 0.0
H2341 H 0.39473 0.31445 0.65062 0.0
C2342 C 0.35886 0.23266 0.61254 0.0
C2343 C 0.34215 0.20936 0.61291 0.0
C2344 C 0.32306 0.20629 0.62529 0.0
C2345 C 0.32109 0.2258 0.63734 0.0
C2346 C 0.3384 0.2482 0.63684 0.0
C2347 C 0.35694 0.2517 0.62475 0.0
C2348 C 0.37554 0.27555 0.62794 0.0
C2349 C 0.40544 0.2665 0.6286 0.0
C2350 C 0.37134 0.29803 0.61559 0.0
C2351 C 0.36529 0.28429 0.64402 0.0
C2352 C 0.34345 0.26869 0.64878 0.0
C2353 C 0.33169 0.27182 0.66365 0.0
C2354 C 0.34304 0.29078 0.67409 0.0
C2355 C 0.36621 0.30613 0.66973 0.0
C2356 C 0.37689 0.30329 0.6543 0.0
H2357 H 0.46 0.61002 0.42033 0.0
H2358 H 0.39248 0.62514 0.38873 0.0
H2359 H 0.42026 0.60951 0.36614 0.0
H2360 H 0.50807 0.63765 0.3962 0.0
H2361 H 0.535 0.61438 0.40111 0.0
H2362 H 0.50831 0.62074 0.4151 0.0
H2363 H 0.49779 0.56926 0.41643 0.0
H2364 H 0.5246 0.56271 0.40242 0.0
H2365 H 0.49066 0.55089 0.39848 0.0
H2366 H 0.45689 0.59808 0.34669 0.0
H2367 H 0.49987 0.59544 0.33183 0.0
H2368 H 0.54431 0.59 0.37598 0.0
C2369 C 0.45075 0.60906 0.40874 0.0
C2370 C 0.42394 0.61832 0.4063 0.0
C2371 C 0.41288 0.61783 0.39087 0.0
C2372 C 0.42848 0.60887 0.37799 0.0
C2373 C 0.45515 0.60062 0.38071 0.0
C2374 C 0.46622 0.60069 0.39573 0.0
C2375 C 0.49638 0.59468 0.39523 0.0
C2376 C 0.51289 0.61827 0.40232 0.0
C2377 C 0.50272 0.56778 0.40364 0.0
C2378 C 0.50078 0.5923 0.37755 0.0
C2379 C 0.47663 0.59506 0.36941 0.0
C2380 C 0.47586 0.5955 0.35295 0.0
C2381 C 0.50044 0.59397 0.34459 0.0
C2382 C 0.52555 0.59249 0.35271 0.0
C2383 C 0.5255 0.59081 0.3694 0.0
H2384 H 0.55314 0.28498 0.18054 0.0
H2385 H 0.56568 0.30117 0.23035 0.0
H2386 H 0.53746 0.26099 0.23713 0.0
H2387 H 0.48528 0.26226 0.18241 0.0
H2388 H 0.48992 0.23616 0.16772 0.0
H2389 H 0.51075 0.26611 0.16726 0.0
H2390 H 0.55387 0.23592 0.16808 0.0
H2391 H 0.5331 0.20586 0.16877 0.0
H2392 H 0.55809 0.21183 0.18392 0.0
H2393 H 0.50411 0.22157 0.23796 0.0
H2394 H 0.47095 0.18472 0.23287 0.0
H2395 H 0.48584 0.19195 0.18256 0.0
C2396 C 0.54972 0.28018 0.19288 0.0
C2397 C 0.5609 0.29627 0.20498 0.0
C2398 C 0.55684 0.28908 0.22098 0.0
C2399 C 0.54102 0.26633 0.2249 0.0
C2400 C 0.53031 0.25075 0.21262 0.0
C2401 C 0.53483 0.25722 0.19694 0.0
C2402 C 0.5216 0.23715 0.1859 0.0
C2403 C 0.50064 0.25127 0.17521 0.0
C2404 C 0.54294 0.22178 0.17609 0.0
C2405 C 0.50813 0.21872 0.19778 0.0
C2406 C 0.51321 0.22689 0.21315 0.0
C2407 C 0.50054 0.21456 0.22602 0.0
C2408 C 0.48183 0.1937 0.22305 0.0
C2409 C 0.47652 0.1852 0.20737 0.0
C2410 C 0.49032 0.19745 0.19468 0.0
H2411 H 0.93916 0.26859 0.43418 0.0
H2412 H 0.9403 0.29617 0.48285 0.0
H2413 H 0.98195 0.26921 0.48763 0.0
H2414 H 0.96661 0.20034 0.44044 0.0
H2415 H 0.98655 0.2016 0.42259 0.0
H2416 H 0.95516 0.22019 0.42384 0.0
H2417 H 0.98085 0.26428 0.41637 0.0
H2418 H 0.01245 0.24599 0.4155 0.0
H2419 H 0.0092 0.27514 0.42824 0.0
H2420 H 0.02353 0.23958 0.48683 0.0
H2421 H 0.06233 0.20945 0.48049 0.0
H2422 H 0.03652 0.20618 0.43159 0.0
C2423 C 0.94769 0.2682 0.44598 0.0
C2424 C 0.93631 0.28378 0.45829 0.0
C2425 C 0.94859 0.28385 0.47339 0.0
C2426 C 0.97225 0.26878 0.47616 0.0
C2427 C 0.98351 0.25433 0.46359 0.0
C2428 C 0.97164 0.25395 0.4488 0.0
C2429 C 0.98878 0.23851 0.43699 0.0
C2430 C 0.97336 0.21368 0.4306 0.0
C2431 C -0.00162 0.2571 0.42348 0.0
C2432 C 0.01215 0.23017 0.44747 0.0
C2433 C 0.0086 0.23924 0.46281 0.0
C2434 C 0.02675 0.23267 0.47483 0.0
C2435 C 0.04874 0.21579 0.47113 0.0
C2436 C 0.05261 0.20636 0.45551 0.0
C2437 C 0.03441 0.21403 0.4435 0.0
H2438 H 0.93779 0.73199 0.70368 0.0
H2439 H 0.99275 0.66424 0.71006 0.0
H2440 H 0.03064 0.69629 0.7147 0.0
H2441 H 0.98202 0.7692 0.68059 0.0
H2442 H 0.97175 0.80204 0.68785 0.0
H2443 H 0.94823 0.77418 0.68826 0.0
H2444 H 0.94144 0.78103 0.71839 0.0
H2445 H 0.96508 0.80895 0.71808 0.0
H2446 H 0.97052 0.7808 0.7313 0.0
H2447 H 0.06261 0.73521 0.71676 0.0
H2448 H 0.08809 0.77746 0.71219 0.0
H2449 H 0.01286 0.81967 0.70179 0.0
C2450 C 0.95769 0.72403 0.70651 0.0
C2451 C 0.96251 0.69586 0.70687 0.0
C2452 C 0.98885 0.68587 0.70994 0.0
C2453 C 0.01033 0.70388 0.7127 0.0
C2454 C 0.00502 0.73167 0.71208 0.0
C2455 C 0.97943 0.74169 0.70883 0.0
C2456 C 0.97987 0.77212 0.70645 0.0
C2457 C 0.96989 0.77982 0.6898 0.0
C2458 C 0.96324 0.78657 0.71933 0.0
C2459 C 0.00987 0.77755 0.70839 0.0
C2460 C 0.02384 0.75409 0.71215 0.0
C2461 C 0.05189 0.75376 0.71395 0.0
C2462 C 0.06615 0.77789 0.71137 0.0
C2463 C 0.05237 0.80179 0.70664 0.0
C2464 C 0.02384 0.80171 0.70547 0.0
H2465 H 0.515 0.68119 0.95435 0.0
H2466 H 0.57942 0.73095 0.9735 0.0
H2467 H 0.54619 0.76718 0.97964 0.0
H2468 H 0.48546 0.73221 0.9337 0.0
H2469 H 0.45076 0.72144 0.93619 0.0
H2470 H 0.4777 0.69692 0.93707 0.0
H2471 H 0.46152 0.6816 0.96482 0.0
H2472 H 0.43429 0.70601 0.96398 0.0
H2473 H 0.45769 0.7064 0.98034 0.0
H2474 H 0.50781 0.7997 0.98038 0.0
H2475 H 0.46823 0.82794 0.9738 0.0
H2476 H 0.42926 0.75827 0.95205 0.0
C2477 C 0.52173 0.6993 0.96046 0.0
C2478 C 0.54936 0.70327 0.96395 0.0
C2479 C 0.55808 0.72758 0.97114 0.0
C2480 C 0.53937 0.74811 0.97469 0.0
C2481 C 0.51222 0.744 0.97071 0.0
C2482 C 0.5034 0.72023 0.96368 0.0
C2483 C 0.47426 0.7226 0.9582 0.0
C2484 C 0.47194 0.71804 0.94023 0.0
C2485 C 0.45585 0.70299 0.96739 0.0
C2486 C 0.46844 0.75178 0.96261 0.0
C2487 C 0.49031 0.76347 0.97025 0.0
C2488 C 0.49041 0.79069 0.97462 0.0
C2489 C 0.46781 0.80658 0.97079 0.0
C2490 C 0.44565 0.79531 0.96237 0.0
C2491 C 0.44582 0.76741 0.95855 0.0
H2492 H 0.46395 0.78794 0.31398 0.0
H2493 H 0.45553 0.79838 0.26335 0.0
H2494 H 0.48953 0.76195 0.25891 0.0
H2495 H 0.53551 0.77164 0.31519 0.0
H2496 H 0.53116 0.74642 0.33041 0.0
H2497 H 0.50832 0.77489 0.32934 0.0
H2498 H 0.46745 0.74181 0.32797 0.0
H2499 H 0.49017 0.71324 0.32888 0.0
H2500 H 0.46652 0.71624 0.31274 0.0
H2501 H 0.52545 0.72496 0.2604 0.0
H2502 H 0.55707 0.6877 0.26758 0.0
H2503 H 0.53687 0.6988 0.31702 0.0
C2504 C 0.46968 0.7829 0.30196 0.0
C2505 C 0.45772 0.79615 0.28898 0.0
C2506 C 0.46486 0.7885 0.27341 0.0
C2507 C 0.48408 0.76794 0.2708 0.0
C2508 C 0.49531 0.755 0.28392 0.0
C2509 C 0.4881 0.76201 0.29918 0.0
C2510 C 0.50141 0.7438 0.31124 0.0
C2511 C 0.52022 0.76017 0.32219 0.0
C2512 C 0.48011 0.72783 0.32076 0.0
C2513 C 0.51736 0.72542 0.30041 0.0
C2514 C 0.51402 0.73243 0.28471 0.0
C2515 C 0.52793 0.71906 0.27263 0.0
C2516 C 0.54574 0.69801 0.27678 0.0
C2517 C 0.54875 0.69025 0.29277 0.0
C2518 C 0.53429 0.70401 0.30467 0.0
H2519 H 0.5067 0.30744 0.54128 0.0
H2520 H 0.57547 0.255 0.53205 0.0
H2521 H 0.54464 0.21539 0.53044 0.0
H2522 H 0.47679 0.26428 0.56783 0.0
H2523 H 0.44215 0.272 0.56268 0.0
H2524 H 0.46827 0.29687 0.55951 0.0
H2525 H 0.4552 0.30007 0.5299 0.0
H2526 H 0.42879 0.27532 0.533 0.0
H2527 H 0.45426 0.26967 0.51805 0.0
H2528 H 0.50732 0.18149 0.53226 0.0
H2529 H 0.46722 0.15469 0.53994 0.0
H2530 H 0.42353 0.22892 0.55079 0.0
C2531 C 0.51502 0.28773 0.53831 0.0
C2532 C 0.54317 0.2841 0.53634 0.0
C2533 C 0.55379 0.25799 0.53328 0.0
C2534 C 0.53646 0.23552 0.5323 0.0
C2535 C 0.50875 0.23962 0.5347 0.0
C2536 C 0.49811 0.26505 0.53778 0.0
C2537 C 0.46845 0.26345 0.54235 0.0
C2538 C 0.46366 0.27481 0.55908 0.0
C2539 C 0.45062 0.27799 0.53009 0.0
C2540 C 0.46425 0.23308 0.5418 0.0
C2541 C 0.48752 0.2198 0.53691 0.0
C2542 C 0.48891 0.19165 0.53596 0.0
C2543 C 0.46603 0.17663 0.54035 0.0
C2544 C 0.44235 0.18981 0.54598 0.0
C2545 C 0.44139 0.21839 0.54653 0.0
H2546 H 0.00781 0.18747 0.79032 0.0
H2547 H 0.08037 0.23058 0.77563 0.0
H2548 H 0.05323 0.2718 0.7712 0.0
H2549 H 0.95933 0.225 0.76267 0.0
H2550 H 0.93298 0.2244 0.77746 0.0
H2551 H 0.95699 0.19685 0.77621 0.0
H2552 H 0.96918 0.20389 0.80571 0.0
H2553 H 0.94561 0.23159 0.80701 0.0
H2554 H 0.98067 0.23677 0.81226 0.0
H2555 H 0.02137 0.31021 0.77502 0.0
H2556 H 0.98499 0.34192 0.78328 0.0
H2557 H 0.93208 0.27384 0.79309 0.0
C2558 C 0.01779 0.2053 0.78561 0.0
C2559 C 0.04616 0.20585 0.78336 0.0
C2560 C 0.05861 0.22962 0.77734 0.0
C2561 C 0.04336 0.25317 0.77479 0.0
C2562 C 0.01562 0.25238 0.77789 0.0
C2563 C 0.00278 0.22885 0.78275 0.0
C2564 C 0.97328 0.23402 0.78671 0.0
C2565 C 0.95454 0.21919 0.77506 0.0
C2566 C 0.96684 0.22611 0.80394 0.0
C2567 C 0.97205 0.26442 0.78434 0.0
C2568 C 0.99665 0.27463 0.77915 0.0
C2569 C 0.00169 0.30246 0.77845 0.0
C2570 C 0.98109 0.32029 0.78324 0.0
C2571 C 0.95581 0.31008 0.78837 0.0
C2572 C 0.95104 0.28193 0.78862 0.0
H2573 H 0.94551 0.71082 0.07441 0.0
H2574 H 0.94502 0.68279 0.02584 0.0
H2575 H 0.9859 0.7106 0.02026 0.0
H2576 H 0.96857 0.77881 0.06763 0.0
H2577 H 0.98989 0.77939 0.08492 0.0
H2578 H 0.96002 0.75839 0.0846 0.0
H2579 H 0.98949 0.71637 0.09136 0.0
H2580 H 0.01952 0.73719 0.0915 0.0
H2581 H 0.01787 0.70779 0.07886 0.0
H2582 H 0.02504 0.7437 0.01989 0.0
H2583 H 0.06135 0.77734 0.02509 0.0
H2584 H 0.03899 0.77889 0.07463 0.0
C2585 C 0.95381 0.71092 0.06255 0.0
C2586 C 0.942 0.69529 0.05042 0.0
C2587 C 0.95377 0.69503 0.03517 0.0
C2588 C 0.97693 0.71064 0.03194 0.0
C2589 C 0.9883 0.72567 0.04424 0.0
C2590 C 0.97729 0.72566 0.05927 0.0
C2591 C 0.99396 0.74256 0.07058 0.0
C2592 C 0.9771 0.76619 0.07732 0.0
C2593 C 0.00592 0.72492 0.08386 0.0
C2594 C 0.01582 0.75256 0.05948 0.0
C2595 C 0.01209 0.74281 0.04431 0.0
C2596 C 0.02851 0.75104 0.03177 0.0
C2597 C 0.04902 0.77005 0.03481 0.0
C2598 C 0.05318 0.78 0.05029 0.0
C2599 C 0.03669 0.77082 0.06279 0.0
H2600 H 0.45415 0.70919 0.81782 0.0
H2601 H 0.43618 0.6983 0.76809 0.0
H2602 H 0.46839 0.7354 0.76142 0.0
H2603 H 0.45642 0.78179 0.81634 0.0
H2604 H 0.48298 0.78431 0.8309 0.0
H2605 H 0.45972 0.75615 0.83141 0.0
H2606 H 0.50012 0.72244 0.83026 0.0
H2607 H 0.52352 0.75047 0.82979 0.0
H2608 H 0.5245 0.72515 0.81443 0.0
H2609 H 0.50517 0.77205 0.76058 0.0
H2610 H 0.53916 0.80827 0.76577 0.0
H2611 H 0.52775 0.79737 0.81616 0.0
C2612 C 0.4572 0.71448 0.80552 0.0
C2613 C 0.44324 0.70081 0.79341 0.0
C2614 C 0.44701 0.7086 0.77747 0.0
C2615 C 0.46521 0.72953 0.77361 0.0
C2616 C 0.47876 0.74266 0.7859 0.0
C2617 C 0.47455 0.73566 0.80154 0.0
C2618 C 0.49034 0.7536 0.81266 0.0
C2619 C 0.47122 0.76993 0.82346 0.0
C2620 C 0.51083 0.73692 0.82235 0.0
C2621 C 0.50442 0.77167 0.80085 0.0
C2622 C 0.49792 0.7649 0.78546 0.0
C2623 C 0.51003 0.77785 0.77258 0.0
C2624 C 0.52923 0.79828 0.7756 0.0
C2625 C 0.53539 0.80579 0.79132 0.0
C2626 C 0.52274 0.79242 0.80403 0.0
H2627 H 0.95486 0.77617 0.56449 0.0
H2628 H 0.94673 0.78891 0.51401 0.0
H2629 H 0.98263 0.75454 0.50913 0.0
H2630 H 0.02683 0.77145 0.56411 0.0
H2631 H 0.0282 0.74647 0.57965 0.0
H2632 H 0.00055 0.77032 0.57894 0.0
H2633 H 0.96596 0.73066 0.57879 0.0
H2634 H 0.99348 0.70668 0.57962 0.0
H2635 H 0.9688 0.70451 0.56397 0.0
H2636 H 0.01869 0.71739 0.51015 0.0
H2637 H 0.05437 0.6838 0.51702 0.0
H2638 H 0.04107 0.7001 0.56679 0.0
C2639 C 0.96034 0.7714 0.55239 0.0
C2640 C 0.94784 0.78465 0.53959 0.0
C2641 C 0.95604 0.77863 0.52394 0.0
C2642 C 0.97632 0.7592 0.52108 0.0
C2643 C 0.98843 0.74659 0.53404 0.0
C2644 C 0.98092 0.75274 0.54938 0.0
C2645 C -0.00194 0.73779 0.56131 0.0
C2646 C 0.01437 0.7577 0.5716 0.0
C2647 C 0.98053 0.71878 0.57151 0.0
C2648 C 0.01631 0.72204 0.55031 0.0
C2649 C 0.0103 0.727 0.53462 0.0
C2650 C 0.0238 0.71361 0.52239 0.0
C2651 C 0.04395 0.69464 0.52637 0.0
C2652 C 0.05065 0.68989 0.54238 0.0
C2653 C 0.03673 0.70388 0.55443 0.0
H2654 H 0.97647 0.19608 0.31842 0.0
H2655 H 0.96585 0.18346 0.26812 0.0
H2656 H 0.00119 0.21794 0.26261 0.0
H2657 H 0.98054 0.26641 0.31596 0.0
H2658 H 0.00506 0.27047 0.33157 0.0
H2659 H 0.98245 0.24181 0.33169 0.0
H2660 H 0.02341 0.20884 0.33286 0.0
H2661 H 0.04619 0.23743 0.33301 0.0
H2662 H 0.04987 0.21138 0.31821 0.0
H2663 H 0.03638 0.25528 0.26275 0.0
H2664 H 0.06685 0.29412 0.26854 0.0
H2665 H 0.05016 0.28486 0.31859 0.0
C2666 C 0.98228 0.19998 0.30628 0.0
C2667 C 0.96907 0.18683 0.29367 0.0
C2668 C 0.9762 0.19316 0.27789 0.0
C2669 C 0.99617 0.21266 0.27468 0.0
C2670 C 0.00834 0.22588 0.28739 0.0
C2671 C 0.00157 0.21987 0.30288 0.0
C2672 C 0.01545 0.23885 0.31434 0.0
C2673 C 0.99463 0.25536 0.32394 0.0
C2674 C 0.03489 0.22319 0.32524 0.0
C2675 C 0.0308 0.25666 0.30289 0.0
C2676 C 0.02692 0.2486 0.28742 0.0
C2677 C 0.03951 0.26184 0.27482 0.0
C2678 C 0.05665 0.28385 0.27818 0.0
C2679 C 0.06035 0.29264 0.29395 0.0
C2680 C 0.04719 0.27888 0.30639 0.0
H2681 H 0.54098 0.22462 0.06404 0.0
H2682 H 0.54559 0.21363 0.01326 0.0
H2683 H 0.50882 0.24737 0.00969 0.0
H2684 H 0.47009 0.22624 0.06562 0.0
H2685 H 0.46803 0.25088 0.08133 0.0
H2686 H 0.49717 0.22902 0.07984 0.0
H2687 H 0.52906 0.27084 0.07901 0.0
H2688 H 0.50003 0.29287 0.08077 0.0
H2689 H 0.52332 0.29701 0.06451 0.0
H2690 H 0.47099 0.28165 0.01189 0.0
H2691 H 0.43325 0.31211 0.01973 0.0
H2692 H 0.45057 0.29617 0.0691 0.0
C2693 C 0.53475 0.22994 0.05216 0.0
C2694 C 0.54634 0.21713 0.03888 0.0
C2695 C 0.53707 0.22365 0.02353 0.0
C2696 C 0.51625 0.2427 0.02141 0.0
C2697 C 0.50473 0.25452 0.0348 0.0
C2698 C 0.51356 0.24828 0.04988 0.0
C2699 C 0.49625 0.26184 0.06235 0.0
C2700 C 0.48205 0.24073 0.0729 0.0
C2701 C 0.51318 0.28183 0.07224 0.0
C2702 C 0.47617 0.27655 0.05194 0.0
C2703 C 0.48167 0.27249 0.03609 0.0
C2704 C 0.46635 0.28482 0.02426 0.0
C2705 C 0.44498 0.30195 0.02879 0.0
C2706 C 0.43886 0.3059 0.04496 0.0
C2707 C 0.45451 0.29289 0.05664 0.0
H2708 H 0.44455 0.25937 0.70853 0.0
H2709 H 0.4958 0.3228 0.72746 0.0
H2710 H 0.53244 0.28929 0.73199 0.0
H2711 H 0.47238 0.20031 0.73256 0.0
H2712 H 0.47052 0.17808 0.71568 0.0
H2713 H 0.44605 0.205 0.71804 0.0
H2714 H 0.45842 0.22327 0.69023 0.0
H2715 H 0.48295 0.19665 0.68783 0.0
H2716 H 0.49325 0.23158 0.68584 0.0
H2717 H 0.56517 0.25139 0.73054 0.0
H2718 H 0.59321 0.2133 0.72125 0.0
H2719 H 0.52165 0.17496 0.7013 0.0
C2720 C 0.46311 0.26576 0.71429 0.0
C2721 C 0.46742 0.2932 0.71812 0.0
C2722 C 0.49223 0.30157 0.72483 0.0
C2723 C 0.51298 0.2827 0.72749 0.0
C2724 C 0.50853 0.25575 0.72314 0.0
C2725 C 0.48421 0.24728 0.71662 0.0
C2726 C 0.48622 0.21858 0.71033 0.0
C2727 C 0.46769 0.19936 0.71972 0.0
C2728 C 0.47985 0.21749 0.69251 0.0
C2729 C 0.51582 0.21275 0.71358 0.0
C2730 C 0.52805 0.23408 0.72145 0.0
C2731 C 0.55575 0.23436 0.72462 0.0
C2732 C 0.57152 0.21262 0.71923 0.0
C2733 C 0.55962 0.19118 0.71048 0.0
C2734 C 0.53129 0.19095 0.70805 0.0
H2735 H 0.5569 0.77286 0.45647 0.0
H2736 H 0.51337 0.84872 0.46232 0.0
H2737 H 0.47031 0.82351 0.46475 0.0
H2738 H 0.51175 0.7413 0.43277 0.0
H2739 H 0.51473 0.70781 0.44116 0.0
H2740 H 0.5426 0.73118 0.44257 0.0
H2741 H 0.54289 0.72622 0.47307 0.0
H2742 H 0.51522 0.7024 0.47175 0.0
H2743 H 0.5121 0.73208 0.48408 0.0
H2744 H 0.43179 0.79111 0.46059 0.0
H2745 H 0.40093 0.75275 0.45455 0.0
H2746 H 0.46963 0.69784 0.45396 0.0
C2747 C 0.5384 0.78405 0.4588 0.0
C2748 C 0.53836 0.81264 0.45922 0.0
C2749 C 0.51382 0.82675 0.46214 0.0
C2750 C 0.48926 0.81262 0.46347 0.0
C2751 C 0.48981 0.78443 0.46231 0.0
C2752 C 0.51384 0.77023 0.46051 0.0
C2753 C 0.50876 0.74014 0.45865 0.0
C2754 C 0.52013 0.72951 0.44285 0.0
C2755 C 0.52043 0.72428 0.47273 0.0
C2756 C 0.4781 0.73983 0.45881 0.0
C2757 C 0.46749 0.76555 0.46091 0.0
C2758 C 0.43976 0.77073 0.45948 0.0
C2759 C 0.42245 0.74897 0.45594 0.0
C2760 C 0.43301 0.72249 0.45413 0.0
C2761 C 0.46107 0.71786 0.45577 0.0
H2762 H 0.95968 0.80127 0.21315 0.0
H2763 H 0.95353 0.81112 0.16232 0.0
H2764 H 0.98336 0.77137 0.15844 0.0
H2765 H 0.03201 0.78067 0.21273 0.0
H2766 H 0.02741 0.75744 0.22897 0.0
H2767 H 0.00659 0.7874 0.22757 0.0
H2768 H 0.96358 0.7572 0.22887 0.0
H2769 H 0.98423 0.7271 0.22986 0.0
H2770 H 0.9591 0.73051 0.21452 0.0
H2771 H 0.00847 0.72755 0.16015 0.0
H2772 H 0.03667 0.68803 0.16707 0.0
H2773 H 0.03022 0.70894 0.21678 0.0
C2774 C 0.96518 0.79537 0.20123 0.0
C2775 C 0.95445 0.80909 0.18802 0.0
C2776 C 0.96188 0.80095 0.17257 0.0
C2777 C 0.97854 0.77828 0.17026 0.0
C2778 C 0.98798 0.76454 0.18354 0.0
C2779 C 0.98236 0.77325 0.19872 0.0
C2780 C 0.99565 0.75518 0.21092 0.0
C2781 C 0.01667 0.77112 0.22062 0.0
C2782 C 0.97436 0.74171 0.22167 0.0
C2783 C 0.00912 0.7346 0.20022 0.0
C2784 C 0.00399 0.74012 0.18449 0.0
C2785 C 0.01307 0.72326 0.1724 0.0
C2786 C 0.02878 0.7007 0.17647 0.0
C2787 C 0.03561 0.69557 0.19246 0.0
C2788 C 0.02535 0.71253 0.20448 0.0
H2789 H 0.93125 0.22687 0.95194 0.0
H2790 H 0.97865 0.15348 0.95865 0.0
H2791 H 0.0197 0.18102 0.96278 0.0
H2792 H 0.97872 0.26299 0.93057 0.0
H2793 H 0.97209 0.29551 0.93953 0.0
H2794 H 0.94574 0.2703 0.93877 0.0
H2795 H 0.94 0.2731 0.96919 0.0
H2796 H 0.96627 0.29852 0.97004 0.0
H2797 H 0.96908 0.26811 0.98177 0.0
H2798 H 0.05643 0.2156 0.96157 0.0
H2799 H 0.08582 0.25608 0.95854 0.0
H2800 H 0.01447 0.30719 0.95537 0.0
C2801 C 0.95017 0.21667 0.95461 0.0
C2802 C 0.95181 0.1881 0.95495 0.0
C2803 C 0.9769 0.17539 0.95843 0.0
C2804 C 0.00036 0.19083 0.96077 0.0
C2805 C -0.00178 0.21893 0.95997 0.0
C2806 C 0.9737 0.2318 0.95733 0.0
C2807 C 0.9772 0.26227 0.9565 0.0
C2808 C 0.96789 0.2734 0.94039 0.0
C2809 C 0.96225 0.27633 0.97019 0.0
C2810 C 0.00765 0.26436 0.95842 0.0
C2811 C 0.01941 0.23911 0.96035 0.0
C2812 C 0.04749 0.23558 0.96056 0.0
C2813 C 0.06397 0.25853 0.95877 0.0
C2814 C 0.0522 0.2845 0.95711 0.0
C2815 C 0.02378 0.2875 0.95714 0.0
H2816 H 0.42562 0.95033 0.27022 0.0
H2817 H 0.33884 0.93966 0.27565 0.0
H2818 H 0.33065 0.9785 0.25777 0.0
H2819 H 0.42442 0.0253 0.26829 0.0
H2820 H 0.45132 0.02644 0.25385 0.0
H2821 H 0.45 -0.00086 0.26799 0.0
H2822 H 0.45079 0.96448 0.24494 0.0
H2823 H 0.45138 0.99166 0.23072 0.0
H2824 H 0.42508 0.96629 0.22983 0.0
H2825 H 0.3319 0.01584 0.23793 0.0
H2826 H 0.34255 0.05347 0.21956 0.0
H2827 H 0.42849 0.0405 0.22726 0.0
C2828 C 0.40497 0.9568 0.26798 0.0
C2829 C 0.38279 0.94244 0.27435 0.0
C2830 C 0.35599 0.95077 0.27091 0.0
C2831 C 0.35118 0.97262 0.26074 0.0
C2832 C 0.37346 0.98587 0.25419 0.0
C2833 C 0.39983 0.97863 0.25786 0.0
C2834 C 0.42009 0.99596 0.24895 0.0
C2835 C 0.43748 0.01271 0.26046 0.0
C2836 C 0.43788 0.97855 0.23796 0.0
C2837 C 0.40098 0.01383 0.23959 0.0
C2838 C 0.37418 0.00755 0.24274 0.0
C2839 C 0.35279 0.0211 0.23545 0.0
C2840 C 0.35897 0.04225 0.225 0.0
C2841 C 0.38624 0.04959 0.22208 0.0
C2842 C 0.4075 0.03494 0.22923 0.0
H2843 H 0.2752 0.10407 0.53415 0.0
H2844 H 0.3021 0.18772 0.53097 0.0
H2845 H 0.26718 0.19669 0.51078 0.0
H2846 H 0.2678 0.0961 0.49222 0.0
H2847 H 0.23895 0.07375 0.4937 0.0
H2848 H 0.26378 0.07462 0.5093 0.0
H2849 H 0.22595 0.08541 0.52968 0.0
H2850 H 0.20099 0.08448 0.51415 0.0
H2851 H 0.20403 0.11418 0.52646 0.0
H2852 H 0.22941 0.19649 0.491 0.0
H2853 H 0.19243 0.18677 0.4722 0.0
H2854 H 0.19592 0.10148 0.48472 0.0
C2855 C 0.27394 0.12419 0.52911 0.0
C2856 C 0.29126 0.14524 0.53421 0.0
C2857 C 0.28852 0.17148 0.52756 0.0
C2858 C 0.26896 0.1767 0.51596 0.0
C2859 C 0.25273 0.15529 0.51089 0.0
C2860 C 0.25515 0.12951 0.51714 0.0
C2861 C 0.23645 0.1097 0.50886 0.0
C2862 C 0.25272 0.08722 0.50052 0.0
C2863 C 0.21562 0.09775 0.52048 0.0
C2864 C 0.22303 0.12845 0.49705 0.0
C2865 C 0.23245 0.15472 0.49858 0.0
C2866 C 0.22213 0.17592 0.48952 0.0
C2867 C 0.20135 0.17016 0.47876 0.0
C2868 C 0.19153 0.14334 0.47691 0.0
C2869 C 0.20293 0.12219 0.48598 0.0
H2870 H 0.10476 0.93825 0.73902 0.0
H2871 H 0.09923 0.98106 0.69437 0.0
H2872 H 0.0959 0.02469 0.70873 0.0
H2873 H 0.05857 0.98073 0.76096 0.0
H2874 H 0.07802 0.97933 0.77897 0.0
H2875 H 0.07916 0.95139 0.76524 0.0
H2876 H 0.13155 0.95527 0.76374 0.0
H2877 H 0.1306 0.98305 0.77756 0.0
H2878 H 0.14677 0.98735 0.75861 0.0
H2879 H 0.09393 0.06322 0.72772 0.0
H2880 H 0.09523 0.09504 0.75026 0.0
H2881 H 0.10307 0.02749 0.78274 0.0
C2882 C 0.10314 0.95685 0.73229 0.0
C2883 C 0.10233 0.95648 0.71561 0.0
C2884 C 0.09969 0.98108 0.70717 0.0
C2885 C 0.09782 0.00586 0.71521 0.0
C2886 C 0.09862 0.00555 0.73167 0.0
C2887 C 0.10133 0.98174 0.74014 0.0
C2888 C 0.10228 0.98714 0.75776 0.0
C2889 C 0.07806 0.97386 0.76623 0.0
C2890 C 0.12942 0.97764 0.76483 0.0
C2891 C 0.09997 0.01777 0.75788 0.0
C2892 C 0.0977 0.0279 0.74269 0.0
C2893 C 0.09573 0.05557 0.73966 0.0
C2894 C 0.09657 0.07343 0.75249 0.0
C2895 C 0.0995 0.06354 0.76809 0.0
C2896 C 0.10078 0.03538 0.77087 0.0
H2897 H 0.20021 0.88691 0.02507 0.0
H2898 H 0.1966 0.80164 0.03755 0.0
H2899 H 0.23635 0.79255 0.02059 0.0
H2900 H 0.21421 0.87538 0.9845 0.0
H2901 H 0.23635 0.90424 0.98226 0.0
H2902 H 0.20978 0.90483 0.99689 0.0
H2903 H 0.24513 0.91509 0.01875 0.0
H2904 H 0.27181 0.91471 0.00417 0.0
H2905 H 0.27386 0.89283 0.0212 0.0
H2906 H 0.27523 0.79239 0.00166 0.0
H2907 H 0.31046 0.80102 0.98147 0.0
H2908 H 0.28577 0.88537 0.979 0.0
C2909 C 0.20798 0.86639 0.02429 0.0
C2910 C 0.19557 0.845 0.03268 0.0
C2911 C 0.2062 0.81839 0.03144 0.0
C2912 C 0.22862 0.81301 0.02176 0.0
C2913 C 0.23995 0.83442 0.01329 0.0
C2914 C 0.22998 0.86058 0.0144 0.0
C2915 C 0.24472 0.87953 0.00321 0.0
C2916 C 0.22509 0.8917 0.99099 0.0
C2917 C 0.25977 0.90186 0.01238 0.0
C2918 C 0.26438 0.85988 0.99557 0.0
C2919 C 0.26148 0.83404 0.0017 0.0
C2920 C 0.2776 0.81248 0.99669 0.0
C2921 C 0.29735 0.81751 0.98515 0.0
C2922 C 0.30045 0.84374 0.9786 0.0
C2923 C 0.28369 0.86513 0.98384 0.0
H2924 H 0.60636 0.93181 0.75346 0.0
H2925 H 0.61428 0.97571 0.79765 0.0
H2926 H 0.61918 0.01872 0.78283 0.0
H2927 H 0.6566 0.97096 0.73201 0.0
H2928 H 0.6382 0.96959 0.71363 0.0
H2929 H 0.6349 0.94243 0.72775 0.0
H2930 H 0.5827 0.94896 0.7279 0.0
H2931 H 0.58584 0.97623 0.71384 0.0
H2932 H 0.56873 0.9819 0.73239 0.0
H2933 H 0.62141 0.05656 0.76344 0.0
H2934 H 0.62323 0.08734 0.74054 0.0
H2935 H 0.61747 0.01859 0.7087 0.0
C2936 C 0.60945 0.95047 0.75998 0.0
C2937 C 0.60995 0.95066 0.77665 0.0
C2938 C 0.61359 0.97537 0.78486 0.0
C2939 C 0.61649 -0.00022 0.77656 0.0
C2940 C 0.61592 -0.00109 0.7601 0.0
C2941 C 0.6127 0.97492 0.75188 0.0
C2942 C 0.61308 0.97959 0.73419 0.0
C2943 C 0.63713 0.96476 0.72644 0.0
C2944 C 0.58597 0.97117 0.72664 0.0
C2945 C 0.61687 0.01004 0.73374 0.0
C2946 C 0.61831 0.02072 0.74884 0.0
C2947 C 0.6208 0.04842 0.75156 0.0
C2948 C 0.62207 0.06569 0.73849 0.0
C2949 C 0.62125 0.05516 0.72292 0.0
C2950 C 0.61847 0.02701 0.72052 0.0
H2951 H 0.7107 0.88936 0.47142 0.0
H2952 H 0.67943 0.80736 0.47528 0.0
H2953 H 0.71609 0.79589 0.49398 0.0
H2954 H 0.78159 0.87402 0.47489 0.0
H2955 H 0.78914 0.9031 0.48703 0.0
H2956 H 0.76145 0.90443 0.47318 0.0
H2957 H 0.72849 0.91748 0.49585 0.0
H2958 H 0.7561 0.91619 0.50978 0.0
H2959 H 0.72612 0.89599 0.51304 0.0
H2960 H 0.75672 0.79305 0.51161 0.0
H2961 H 0.79762 0.79954 0.52798 0.0
H2962 H 0.79868 0.88499 0.51566 0.0
C2963 C 0.71144 0.8691 0.47634 0.0
C2964 C 0.69236 0.84919 0.47189 0.0
C2965 C 0.69421 0.82274 0.47834 0.0
C2966 C 0.7148 0.81611 0.48905 0.0
C2967 C 0.73306 0.83631 0.49339 0.0
C2968 C 0.73147 0.86233 0.48736 0.0
C2969 C 0.75306 0.88048 0.49446 0.0
C2970 C 0.77245 0.89113 0.48162 0.0
C2971 C 0.74017 0.90392 0.50384 0.0
C2972 C 0.76715 0.86052 0.5053 0.0
C2973 C 0.75545 0.8351 0.50438 0.0
C2974 C 0.76578 0.81297 0.51265 0.0
C2975 C 0.78884 0.81691 0.52204 0.0
C2976 C 0.80096 0.84286 0.52331 0.0
C2977 C 0.78972 0.86495 0.51495 0.0
H2978 H 0.91983 0.04393 0.27115 0.0
H2979 H 0.8346 0.05241 0.28264 0.0
H2980 H 0.8239 0.01258 0.26587 0.0
H2981 H 0.91054 0.0274 0.23104 0.0
H2982 H 0.93791 0.00319 0.22997 0.0
H2983 H 0.93936 0.03061 0.24402 0.0
H2984 H 0.94545 0.99633 0.26697 0.0
H2985 H 0.94454 0.96881 0.25296 0.0
H2986 H 0.92125 0.96921 0.2694 0.0
H2987 H 0.82231 0.9739 0.24673 0.0
H2988 H 0.83018 0.93684 0.22748 0.0
H2989 H 0.91638 0.95411 0.22792 0.0
C2990 C 0.89907 0.03685 0.27039 0.0
C2991 C 0.87797 0.05071 0.27822 0.0
C2992 C 0.85092 0.04161 0.27678 0.0
C2993 C 0.84471 0.01919 0.26726 0.0
C2994 C 0.86586 0.0063 0.25929 0.0
C2995 C 0.89252 0.01462 0.26084 0.0
C2996 C 0.91126 -0.00205 0.25048 0.0
C2997 C 0.92561 0.01587 0.23815 0.0
C2998 C 0.93184 0.98213 0.26055 0.0
C2999 C 0.89095 0.97912 0.24276 0.0
C3000 C 0.86488 0.98426 0.24804 0.0
C3001 C 0.84263 0.96958 0.24257 0.0
C3002 C 0.84724 0.94872 0.23164 0.0
C3003 C 0.87381 0.94285 0.22635 0.0
C3004 C 0.89587 0.95845 0.23179 0.0
H3005 H 0.79612 0.16819 0.97797 0.0
H3006 H 0.79706 0.08243 0.96652 0.0
H3007 H 0.75743 0.07509 0.98393 0.0
H3008 H 0.77554 0.1626 0.01841 0.0
H3009 H 0.75309 0.19148 0.01797 0.0
H3010 H 0.78203 0.19021 0.00495 0.0
H3011 H 0.75076 0.19685 0.98065 0.0
H3012 H 0.72181 0.19868 0.99362 0.0
H3013 H 0.72244 0.17425 0.97776 0.0
H3014 H 0.7195 0.07662 0.00343 0.0
H3015 H 0.6803 0.08795 0.02045 0.0
H3016 H 0.70098 0.1733 0.01753 0.0
C3017 C 0.78771 0.14797 0.97901 0.0
C3018 C 0.7998 0.12573 0.97116 0.0
C3019 C 0.78831 0.09957 0.97273 0.0
C3020 C 0.76588 0.09523 0.98258 0.0
C3021 C 0.75487 0.1174 0.99053 0.0
C3022 C 0.76495 0.14336 0.98859 0.0
C3023 C 0.74838 0.1638 0.99791 0.0
C3024 C 0.76581 0.17785 0.01056 0.0
C3025 C 0.73505 0.18462 0.98682 0.0
C3026 C 0.72745 0.14523 0.00538 0.0
C3027 C 0.73193 0.1185 0.00116 0.0
C3028 C 0.71558 0.0975 0.00668 0.0
C3029 C 0.69346 0.10409 0.01633 0.0
C3030 C 0.68759 0.13144 0.02009 0.0
C3031 C 0.70516 0.15221 0.01485 0.0
H3032 H 0.88754 0.52904 0.71813 0.0
H3033 H 0.90061 0.59451 0.75153 0.0
H3034 H 0.90075 0.56176 0.7735 0.0
H3035 H 0.84412 0.48868 0.74209 0.0
H3036 H 0.85849 0.45658 0.73623 0.0
H3037 H 0.85958 0.48503 0.72288 0.0
H3038 H 0.91186 0.48062 0.72072 0.0
H3039 H 0.91088 0.4519 0.73388 0.0
H3040 H 0.93207 0.48065 0.73847 0.0
H3041 H 0.89648 0.52257 0.79201 0.0
H3042 H 0.89292 0.47835 0.80568 0.0
H3043 H 0.88723 0.43776 0.76029 0.0
C3044 C 0.8907 0.53632 0.73006 0.0
C3045 C 0.89336 0.5643 0.73322 0.0
C3046 C 0.89766 0.5732 0.74894 0.0
C3047 C 0.89795 0.55476 0.76149 0.0
C3048 C 0.89447 0.52739 0.75809 0.0
C3049 C 0.89143 0.51806 0.74277 0.0
C3050 C 0.88861 0.48746 0.74244 0.0
C3051 C 0.86106 0.47895 0.7355 0.0
C3052 C 0.91227 0.47439 0.73334 0.0
C3053 C 0.89016 0.48122 0.75996 0.0
C3054 C 0.89333 0.50456 0.76877 0.0
C3055 C 0.89436 0.50406 0.78524 0.0
C3056 C 0.8924 0.47891 0.79289 0.0
C3057 C 0.88977 0.45467 0.78407 0.0
C3058 C 0.88868 0.45595 0.76739 0.0
H3059 H 0.7657 0.64031 0.0386 0.0
H3060 H 0.83489 0.64345 0.00697 0.0
H3061 H 0.80414 0.64552 0.98401 0.0
H3062 H 0.72373 0.59884 0.01466 0.0
H3063 H 0.69264 0.61643 0.01925 0.0
H3064 H 0.72 0.61611 0.03333 0.0
H3065 H 0.72004 0.66872 0.034 0.0
H3066 H 0.69248 0.66919 0.02003 0.0
H3067 H 0.72336 0.68738 0.01578 0.0
H3068 H 0.76608 0.64448 0.96445 0.0
H3069 H 0.72273 0.64296 0.94967 0.0
H3070 H 0.67837 0.64335 0.99395 0.0
C3071 C 0.77424 0.64175 0.02683 0.0
C3072 C 0.80254 0.64134 0.02446 0.0
C3073 C 0.81318 0.6432 0.00895 0.0
C3074 C 0.79592 0.64454 0.99586 0.0
C3075 C 0.76807 0.64435 0.99852 0.0
C3076 C 0.75724 0.64332 0.01361 0.0
C3077 C 0.72654 0.6432 0.01313 0.0
C3078 C 0.71507 0.61709 0.02053 0.0
C3079 C 0.71493 0.66864 0.02121 0.0
C3080 C 0.7219 0.64386 0.99545 0.0
C3081 C 0.7461 0.64451 0.98723 0.0
C3082 C 0.74696 0.6443 0.97075 0.0
C3083 C 0.72234 0.64348 0.96246 0.0
C3084 C 0.69737 0.64302 0.97069 0.0
C3085 C 0.69722 0.64337 0.98738 0.0
H3086 H 0.61101 0.51705 0.2838 0.0
H3087 H 0.60355 0.58588 0.25219 0.0
H3088 H 0.60311 0.55504 0.22925 0.0
H3089 H 0.65433 0.47733 0.25997 0.0
H3090 H 0.63845 0.44527 0.2644 0.0
H3091 H 0.63707 0.47253 0.27856 0.0
H3092 H 0.58455 0.46973 0.27904 0.0
H3093 H 0.5858 0.4422 0.26503 0.0
H3094 H 0.56596 0.47204 0.26075 0.0
H3095 H 0.60755 0.51741 0.20972 0.0
H3096 H 0.61212 0.47444 0.19481 0.0
H3097 H 0.6126 0.42957 0.23891 0.0
C3098 C 0.60887 0.52546 0.27204 0.0
C3099 C 0.60779 0.55376 0.26967 0.0
C3100 C 0.60501 0.56422 0.25417 0.0
C3101 C 0.60459 0.54689 0.24109 0.0
C3102 C 0.60646 0.51911 0.24374 0.0
C3103 C 0.60806 0.50835 0.25881 0.0
C3104 C 0.60991 0.47768 0.25827 0.0
C3105 C 0.63653 0.46762 0.26574 0.0
C3106 C 0.58507 0.46465 0.26624 0.0
C3107 C 0.60972 0.47304 0.24057 0.0
C3108 C 0.60781 0.49722 0.23241 0.0
C3109 C 0.60858 0.49827 0.21596 0.0
C3110 C 0.61113 0.47384 0.2076 0.0
C3111 C 0.61258 0.44881 0.21571 0.0
C3112 C 0.61177 0.44847 0.2324 0.0
H3113 H 0.78526 0.32598 0.47685 0.0
H3114 H 0.79048 0.40994 0.46197 0.0
H3115 H 0.74938 0.42075 0.47767 0.0
H3116 H 0.71114 0.32178 0.47562 0.0
H3117 H 0.70948 0.29977 0.49261 0.0
H3118 H 0.73876 0.29893 0.47985 0.0
H3119 H 0.7697 0.30825 0.50402 0.0
H3120 H 0.74048 0.30961 0.5168 0.0
H3121 H 0.76366 0.33787 0.51604 0.0
H3122 H 0.70964 0.4227 0.49635 0.0
H3123 H 0.67113 0.41483 0.51461 0.0
H3124 H 0.69046 0.32901 0.51581 0.0
C3125 C 0.7774 0.34651 0.47671 0.0
C3126 C 0.79089 0.36725 0.46838 0.0
C3127 C 0.78037 0.39394 0.46849 0.0
C3128 C 0.75713 0.40021 0.47733 0.0
C3129 C 0.7446 0.37942 0.48577 0.0
C3130 C 0.7541 0.35302 0.48534 0.0
C3131 C 0.7369 0.33442 0.49543 0.0
C3132 C 0.72325 0.31243 0.48527 0.0
C3133 C 0.75369 0.3218 0.50887 0.0
C3134 C 0.71639 0.35451 0.50175 0.0
C3135 C 0.72128 0.3804 0.49613 0.0
C3136 C 0.7054 0.40247 0.50067 0.0
C3137 C 0.68364 0.39783 0.511 0.0
C3138 C 0.67787 0.37134 0.5165 0.0
C3139 C 0.6946 0.34951 0.5119 0.0
H3140 H 0.11099 0.52864 0.22058 0.0
H3141 H 0.08965 0.58879 0.25596 0.0
H3142 H 0.09299 0.55405 0.27676 0.0
H3143 H 0.06976 0.47492 0.23883 0.0
H3144 H 0.09316 0.44844 0.23331 0.0
H3145 H 0.0901 0.47838 0.22122 0.0
H3146 H 0.14186 0.48646 0.22381 0.0
H3147 H 0.145 0.45682 0.23613 0.0
H3148 H 0.15679 0.48926 0.24318 0.0
H3149 H 0.10274 0.51403 0.29391 0.0
H3150 H 0.10992 0.46909 0.30605 0.0
H3151 H 0.11685 0.43317 0.25936 0.0
C3152 C 0.10664 0.53441 0.23266 0.0
C3153 C 0.10093 0.56164 0.23671 0.0
C3154 C 0.09519 0.5683 0.25266 0.0
C3155 C 0.09682 0.54868 0.26456 0.0
C3156 C 0.10332 0.52223 0.26026 0.0
C3157 C 0.10734 0.51483 0.24467 0.0
C3158 C 0.11253 0.4846 0.24326 0.0
C3159 C 0.09004 0.47077 0.23358 0.0
C3160 C 0.14072 0.47897 0.23618 0.0
C3161 C 0.11127 0.47638 0.26052 0.0
C3162 C 0.10641 0.49852 0.27011 0.0
C3163 C 0.10589 0.49638 0.28652 0.0
C3164 C 0.10984 0.47076 0.29329 0.0
C3165 C 0.11349 0.44751 0.28369 0.0
C3166 C 0.11436 0.45051 0.26707 0.0
H3167 H 0.27747 0.40125 0.03048 0.0
H3168 H 0.30104 0.31645 0.03094 0.0
H3169 H 0.2645 0.30586 0.012 0.0
H3170 H 0.20497 0.39128 0.02613 0.0
H3171 H 0.20085 0.41945 0.01276 0.0
H3172 H 0.22753 0.42002 0.0273 0.0
H3173 H 0.26301 0.42775 0.00511 0.0
H3174 H 0.23646 0.42704 0.99049 0.0
H3175 H 0.26487 0.40415 0.98886 0.0
H3176 H 0.22629 0.30454 0.99285 0.0
H3177 H 0.18798 0.31252 0.97466 0.0
H3178 H 0.19191 0.3988 0.98451 0.0
C3179 C 0.27487 0.3805 0.02655 0.0
C3180 C 0.29186 0.3596 0.03216 0.0
C3181 C 0.28782 0.33262 0.02696 0.0
C3182 C 0.26731 0.32646 0.01612 0.0
C3183 C 0.25127 0.3476 0.01053 0.0
C3184 C 0.25476 0.37408 0.01553 0.0
C3185 C 0.23536 0.3931 0.00719 0.0
C3186 C 0.21603 0.40676 0.01905 0.0
C3187 C 0.25086 0.41426 0.99732 0.0
C3188 C 0.22044 0.37314 0.99673 0.0
C3189 C 0.22986 0.347 0.99893 0.0
C3190 C 0.21883 0.32493 0.99093 0.0
C3191 C 0.19729 0.32967 0.98054 0.0
C3192 C 0.18727 0.35627 0.97816 0.0
C3193 C 0.19924 0.37828 0.9862 0.0
H3194 H 0.39492 0.52233 0.7896 0.0
H3195 H 0.39963 0.58612 0.75443 0.0
H3196 H 0.40543 0.55191 0.73343 0.0
H3197 H 0.44579 0.47779 0.77077 0.0
H3198 H 0.42791 0.4472 0.77605 0.0
H3199 H 0.42537 0.47684 0.78845 0.0
H3200 H 0.37296 0.47517 0.78607 0.0
H3201 H 0.37536 0.44573 0.77354 0.0
H3202 H 0.35756 0.47547 0.76675 0.0
H3203 H 0.40695 0.51109 0.71608 0.0
H3204 H 0.40709 0.46572 0.7036 0.0
H3205 H 0.40483 0.4283 0.74999 0.0
C3206 C 0.39755 0.52895 0.77749 0.0
C3207 C 0.39633 0.55669 0.77352 0.0
C3208 C 0.39983 0.56484 0.7576 0.0
C3209 C 0.40334 0.54561 0.74562 0.0
C3210 C 0.40371 0.51833 0.74981 0.0
C3211 C 0.40128 0.50995 0.76536 0.0
C3212 C 0.40192 0.47929 0.76652 0.0
C3213 C 0.42673 0.46972 0.77601 0.0
C3214 C 0.37537 0.46828 0.77364 0.0
C3215 C 0.40451 0.47188 0.74921 0.0
C3216 C 0.40551 0.4947 0.73978 0.0
C3217 C 0.40663 0.49301 0.72334 0.0
C3218 C 0.4068 0.46722 0.71636 0.0
C3219 C 0.40602 0.44358 0.72582 0.0
C3220 C 0.40508 0.44603 0.74245 0.0
H3221 H 0.20834 0.59755 0.5251 0.0
H3222 H 0.1875 0.68224 0.53197 0.0
H3223 H 0.22395 0.69571 0.51357 0.0
H3224 H 0.28148 0.60647 0.52073 0.0
H3225 H 0.28437 0.5812 0.50541 0.0
H3226 H 0.25814 0.57832 0.52017 0.0
H3227 H 0.2218 0.57619 0.49808 0.0
H3228 H 0.24789 0.57927 0.48326 0.0
H3229 H 0.2201 0.60306 0.48366 0.0
H3230 H 0.26154 0.70002 0.494 0.0
H3231 H 0.29851 0.69487 0.47447 0.0
H3232 H 0.29288 0.60734 0.47854 0.0
C3233 C 0.21172 0.61891 0.5228 0.0
C3234 C 0.19545 0.63891 0.53008 0.0
C3235 C 0.20019 0.66666 0.52677 0.0
C3236 C 0.22067 0.67449 0.51625 0.0
C3237 C 0.23604 0.65428 0.50902 0.0
C3238 C 0.23186 0.62706 0.51213 0.0
C3239 C 0.25048 0.60943 0.50222 0.0
C3240 C 0.26976 0.59288 0.51277 0.0
C3241 C 0.23408 0.5909 0.49115 0.0
C3242 C 0.26569 0.63101 0.49305 0.0
C3243 C 0.25712 0.65674 0.49723 0.0
C3244 C 0.26836 0.67999 0.49055 0.0
C3245 C 0.28914 0.67688 0.4794 0.0
C3246 C 0.29825 0.65074 0.47496 0.0
C3247 C 0.2862 0.62754 0.48178 0.0
loop_
_geom_bond_atom_site_label_1
_geom_bond_atom_site_label_2
_geom_bond_distance
_geom_bond_site_symmetry_2
_ccdc_geom_bond_type
Co0 O3 1.970 . S
Co0 N17 1.989 . S
Co0 O25 1.967 . S
Co0 O32 1.920 . S
Co1 O4 1.966 . S
Co1 N10 2.022 . S
Co1 N18 1.993 . S
Co1 O26 1.941 . S
C2 O3 1.258 . S
C2 O4 1.263 . S
O3 Co0 1.970 . S
O3 C2 1.258 . S
O4 Co1 1.966 . S
O4 C2 1.263 . S
C5 O6 1.235 . S
C5 O32 1.289 . S
O6 C5 1.235 . S
C7 C9 1.400 . S
C7 N10 1.351 . S
C7 C12 1.501 . S
C8 C9 1.387 . S
C8 N11 1.341 . S
C9 C7 1.400 . S
C9 C8 1.387 . S
N10 Co1 2.022 . S
N10 C7 1.351 . S
N10 N11 1.365 . S
N11 C8 1.341 . S
N11 N10 1.365 . S
N11 H31 0.862 . S
C12 C7 1.501 . S
C12 H13 0.961 . S
C12 H14 0.961 . S
C12 H15 0.960 . S
H13 C12 0.961 . S
H14 C12 0.961 . S
H15 C12 0.960 . S
C16 N17 1.342 . S
C16 C20 1.401 . S
C16 C21 1.499 . S
N17 Co0 1.989 . S
N17 C16 1.342 . S
N17 N18 1.388 . S
N18 Co1 1.993 . S
N18 N17 1.388 . S
N18 C19 1.346 . S
C19 N18 1.346 . S
C19 C20 1.396 . S
C19 C29 1.510 . S
C20 C16 1.401 . S
C20 C19 1.396 . S
C21 C16 1.499 . S
C21 H22 0.959 . S
C21 H23 0.960 . S
C21 H24 0.961 . S
H22 C21 0.959 . S
H23 C21 0.960 . S
H24 C21 0.961 . S
O25 Co0 1.967 . S
O25 C33 1.258 . S
O26 Co1 1.941 . S
O26 C33 1.266 . S
H27 C29 0.959 . S
H28 C29 0.961 . S
C29 C19 1.510 . S
C29 H27 0.959 . S
C29 H28 0.961 . S
C29 H30 0.960 . S
H30 C29 0.960 . S
H31 N11 0.862 . S
O32 Co0 1.920 . S
O32 C5 1.289 . S
C33 O25 1.258 . S
C33 O26 1.266 . S
Co34 O37 1.970 . S
Co34 N51 1.989 . S
Co34 O59 1.967 . S
Co34 O66 1.920 . S
Co35 O38 1.966 . S
Co35 N44 2.022 . S
Co35 N52 1.993 . S
Co35 O60 1.941 . S
C36 O37 1.258 . S
C36 O38 1.263 . S
O37 Co34 1.970 . S
O37 C36 1.258 . S
O38 Co35 1.966 . S
O38 C36 1.263 . S
C39 O40 1.235 . S
C39 O66 1.289 . S
O40 C39 1.235 . S
C41 C43 1.400 . S
C41 N44 1.351 . S
C41 C46 1.501 . S
C42 C43 1.387 . S
C42 N45 1.341 . S
C43 C41 1.400 . S
C43 C42 1.387 . S
N44 Co35 2.022 . S
N44 C41 1.351 . S
N44 N45 1.365 . S
N45 C42 1.341 . S
N45 N44 1.365 . S
N45 H65 0.862 . S
C46 C41 1.501 . S
C46 H47 0.961 . S
C46 H48 0.961 . S
C46 H49 0.960 . S
H47 C46 0.961 . S
H48 C46 0.961 . S
H49 C46 0.960 . S
C50 N51 1.342 . S
C50 C54 1.401 . S
C50 C55 1.499 . S
N51 Co34 1.989 . S
N51 C50 1.342 . S
N51 N52 1.388 . S
N52 Co35 1.993 . S
N52 N51 1.388 . S
N52 C53 1.346 . S
C53 N52 1.346 . S
C53 C54 1.396 . S
C53 C63 1.510 . S
C54 C50 1.401 . S
C54 C53 1.396 . S
C55 C50 1.499 . S
C55 H56 0.959 . S
C55 H57 0.960 . S
C55 H58 0.961 . S
H56 C55 0.959 . S
H57 C55 0.960 . S
H58 C55 0.961 . S
O59 Co34 1.967 . S
O59 C67 1.258 . S
O60 Co35 1.941 . S
O60 C67 1.266 . S
H61 C63 0.959 . S
H62 C63 0.961 . S
C63 C53 1.510 . S
C63 H61 0.959 . S
C63 H62 0.961 . S
C63 H64 0.960 . S
H64 C63 0.960 . S
H65 N45 0.862 . S
O66 Co34 1.920 . S
O66 C39 1.289 . S
C67 O59 1.258 . S
C67 O60 1.266 . S
Co68 O71 1.970 . S
Co68 N85 1.989 . S
Co68 O93 1.967 . S
Co68 O100 1.920 . S
Co69 O72 1.966 . S
Co69 N78 2.022 . S
Co69 N86 1.993 . S
Co69 O94 1.941 . S
C70 O71 1.258 . S
C70 O72 1.263 . S
O71 Co68 1.970 . S
O71 C70 1.258 . S
O72 Co69 1.966 . S
O72 C70 1.263 . S
C73 O74 1.235 . S
C73 O100 1.289 . S
O74 C73 1.235 . S
C75 C77 1.400 . S
C75 N78 1.351 . S
C75 C80 1.501 . S
C76 C77 1.387 . S
C76 N79 1.341 . S
C77 C75 1.400 . S
C77 C76 1.387 . S
N78 Co69 2.022 . S
N78 C75 1.351 . S
N78 N79 1.365 . S
N79 C76 1.341 . S
N79 N78 1.365 . S
N79 H99 0.862 . S
C80 C75 1.501 . S
C80 H81 0.961 . S
C80 H82 0.961 . S
C80 H83 0.960 . S
H81 C80 0.961 . S
H82 C80 0.961 . S
H83 C80 0.960 . S
C84 N85 1.342 . S
C84 C88 1.401 . S
C84 C89 1.499 . S
N85 Co68 1.989 . S
N85 C84 1.342 . S
N85 N86 1.388 . S
N86 Co69 1.993 . S
N86 N85 1.388 . S
N86 C87 1.346 . S
C87 N86 1.346 . S
C87 C88 1.396 . S
C87 C97 1.510 . S
C88 C84 1.401 . S
C88 C87 1.396 . S
C89 C84 1.499 . S
C89 H90 0.959 . S
C89 H91 0.960 . S
C89 H92 0.961 . S
H90 C89 0.959 . S
H91 C89 0.960 . S
H92 C89 0.961 . S
O93 Co68 1.967 . S
O93 C101 1.258 . S
O94 Co69 1.941 . S
O94 C101 1.266 . S
H95 C97 0.959 . S
H96 C97 0.961 . S
C97 C87 1.510 . S
C97 H95 0.959 . S
C97 H96 0.961 . S
C97 H98 0.960 . S
H98 C97 0.960 . S
H99 N79 0.862 . S
O100 Co68 1.920 . S
O100 C73 1.289 . S
C101 O93 1.258 . S
C101 O94 1.266 . S
Co102 O105 1.970 . S
Co102 N119 1.989 . S
Co102 O127 1.967 . S
Co102 O134 1.920 . S
Co103 O106 1.966 . S
Co103 N112 2.022 . S
Co103 N120 1.993 . S
Co103 O128 1.941 . S
C104 O105 1.258 . S
C104 O106 1.263 . S
O105 Co102 1.970 . S
O105 C104 1.258 . S
O106 Co103 1.966 . S
O106 C104 1.263 . S
C107 O108 1.235 . S
C107 O134 1.289 . S
O108 C107 1.235 . S
C109 C111 1.400 . S
C109 N112 1.351 . S
C109 C114 1.501 . S
C110 C111 1.387 . S
C110 N113 1.341 . S
C111 C109 1.400 . S
C111 C110 1.387 . S
N112 Co103 2.022 . S
N112 C109 1.351 . S
N112 N113 1.365 . S
N113 C110 1.341 . S
N113 N112 1.365 . S
N113 H133 0.862 . S
C114 C109 1.501 . S
C114 H115 0.961 . S
C114 H116 0.961 . S
C114 H117 0.960 . S
H115 C114 0.961 . S
H116 C114 0.961 . S
H117 C114 0.960 . S
C118 N119 1.342 . S
C118 C122 1.401 . S
C118 C123 1.499 . S
N119 Co102 1.989 . S
N119 C118 1.342 . S
N119 N120 1.388 . S
N120 Co103 1.993 . S
N120 N119 1.388 . S
N120 C121 1.346 . S
C121 N120 1.346 . S
C121 C122 1.396 . S
C121 C131 1.510 . S
C122 C118 1.401 . S
C122 C121 1.396 . S
C123 C118 1.499 . S
C123 H124 0.959 . S
C123 H125 0.960 . S
C123 H126 0.961 . S
H124 C123 0.959 . S
H125 C123 0.960 . S
H126 C123 0.961 . S
O127 Co102 1.967 . S
O127 C135 1.258 . S
O128 Co103 1.941 . S
O128 C135 1.266 . S
H129 C131 0.959 . S
H130 C131 0.961 . S
C131 C121 1.510 . S
C131 H129 0.959 . S
C131 H130 0.961 . S
C131 H132 0.960 . S
H132 C131 0.960 . S
H133 N113 0.862 . S
O134 Co102 1.920 . S
O134 C107 1.289 . S
C135 O127 1.258 . S
C135 O128 1.266 . S
Co136 O139 1.970 . S
Co136 N153 1.989 . S
Co136 O161 1.967 . S
Co136 O168 1.920 . S
Co137 O140 1.966 . S
Co137 N146 2.022 . S
Co137 N154 1.993 . S
Co137 O162 1.941 . S
C138 O139 1.258 . S
C138 O140 1.263 . S
O139 Co136 1.970 . S
O139 C138 1.258 . S
O140 Co137 1.966 . S
O140 C138 1.263 . S
C141 O142 1.235 . S
C141 O168 1.289 . S
O142 C141 1.235 . S
C143 C145 1.400 . S
C143 N146 1.351 . S
C143 C148 1.501 . S
C144 C145 1.387 . S
C144 N147 1.341 . S
C145 C143 1.400 . S
C145 C144 1.387 . S
N146 Co137 2.022 . S
N146 C143 1.351 . S
N146 N147 1.365 . S
N147 C144 1.341 . S
N147 N146 1.365 . S
N147 H167 0.862 . S
C148 C143 1.501 . S
C148 H149 0.961 . S
C148 H150 0.961 . S
C148 H151 0.960 . S
H149 C148 0.961 . S
H150 C148 0.961 . S
H151 C148 0.960 . S
C152 N153 1.342 . S
C152 C156 1.401 . S
C152 C157 1.499 . S
N153 Co136 1.989 . S
N153 C152 1.342 . S
N153 N154 1.388 . S
N154 Co137 1.993 . S
N154 N153 1.388 . S
N154 C155 1.346 . S
C155 N154 1.346 . S
C155 C156 1.396 . S
C155 C165 1.510 . S
C156 C152 1.401 . S
C156 C155 1.396 . S
C157 C152 1.499 . S
C157 H158 0.959 . S
C157 H159 0.960 . S
C157 H160 0.961 . S
H158 C157 0.959 . S
H159 C157 0.960 . S
H160 C157 0.961 . S
O161 Co136 1.967 . S
O161 C169 1.258 . S
O162 Co137 1.941 . S
O162 C169 1.266 . S
H163 C165 0.959 . S
H164 C165 0.961 . S
C165 C155 1.510 . S
C165 H163 0.959 . S
C165 H164 0.961 . S
C165 H166 0.960 . S
H166 C165 0.960 . S
H167 N147 0.862 . S
O168 Co136 1.920 . S
O168 C141 1.289 . S
C169 O161 1.258 . S
C169 O162 1.266 . S
Co170 O173 1.970 . S
Co170 N187 1.989 . S
Co170 O195 1.967 . S
Co170 O202 1.920 . S
Co171 O174 1.966 . S
Co171 N180 2.022 . S
Co171 N188 1.993 . S
Co171 O196 1.941 . S
C172 O173 1.258 . S
C172 O174 1.263 . S
O173 Co170 1.970 . S
O173 C172 1.258 . S
O174 Co171 1.966 . S
O174 C172 1.263 . S
C175 O176 1.235 . S
C175 O202 1.289 . S
O176 C175 1.235 . S
C177 C179 1.400 . S
C177 N180 1.351 . S
C177 C182 1.501 . S
C178 C179 1.387 . S
C178 N181 1.341 . S
C179 C177 1.400 . S
C179 C178 1.387 . S
N180 Co171 2.022 . S
N180 C177 1.351 . S
N180 N181 1.365 . S
N181 C178 1.341 . S
N181 N180 1.365 . S
N181 H201 0.862 . S
C182 C177 1.501 . S
C182 H183 0.961 . S
C182 H184 0.961 . S
C182 H185 0.960 . S
H183 C182 0.961 . S
H184 C182 0.961 . S
H185 C182 0.960 . S
C186 N187 1.342 . S
C186 C190 1.401 . S
C186 C191 1.499 . S
N187 Co170 1.989 . S
N187 C186 1.342 . S
N187 N188 1.388 . S
N188 Co171 1.993 . S
N188 N187 1.388 . S
N188 C189 1.346 . S
C189 N188 1.346 . S
C189 C190 1.396 . S
C189 C199 1.510 . S
C190 C186 1.401 . S
C190 C189 1.396 . S
C191 C186 1.499 . S
C191 H192 0.959 . S
C191 H193 0.960 . S
C191 H194 0.961 . S
H192 C191 0.959 . S
H193 C191 0.960 . S
H194 C191 0.961 . S
O195 Co170 1.967 . S
O195 C203 1.258 . S
O196 Co171 1.941 . S
O196 C203 1.266 . S
H197 C199 0.959 . S
H198 C199 0.961 . S
C199 C189 1.510 . S
C199 H197 0.959 . S
C199 H198 0.961 . S
C199 H200 0.960 . S
H200 C199 0.960 . S
H201 N181 0.862 . S
O202 Co170 1.920 . S
O202 C175 1.289 . S
C203 O195 1.258 . S
C203 O196 1.266 . S
Co204 O207 1.970 . S
Co204 N221 1.989 . S
Co204 O229 1.967 . S
Co204 O236 1.920 . S
Co205 O208 1.966 . S
Co205 N214 2.022 . S
Co205 N222 1.993 . S
Co205 O230 1.941 . S
C206 O207 1.258 . S
C206 O208 1.263 . S
O207 Co204 1.970 . S
O207 C206 1.258 . S
O208 Co205 1.966 . S
O208 C206 1.263 . S
C209 O210 1.235 . S
C209 O236 1.289 . S
O210 C209 1.235 . S
C211 C213 1.400 . S
C211 N214 1.351 . S
C211 C216 1.501 . S
C212 C213 1.387 . S
C212 N215 1.341 . S
C213 C211 1.400 . S
C213 C212 1.387 . S
N214 Co205 2.022 . S
N214 C211 1.351 . S
N214 N215 1.365 . S
N215 C212 1.341 . S
N215 N214 1.365 . S
N215 H235 0.862 . S
C216 C211 1.501 . S
C216 H217 0.961 . S
C216 H218 0.961 . S
C216 H219 0.960 . S
H217 C216 0.961 . S
H218 C216 0.961 . S
H219 C216 0.960 . S
C220 N221 1.342 . S
C220 C224 1.401 . S
C220 C225 1.499 . S
N221 Co204 1.989 . S
N221 C220 1.342 . S
N221 N222 1.388 . S
N222 Co205 1.993 . S
N222 N221 1.388 . S
N222 C223 1.346 . S
C223 N222 1.346 . S
C223 C224 1.396 . S
C223 C233 1.510 . S
C224 C220 1.401 . S
C224 C223 1.396 . S
C225 C220 1.499 . S
C225 H226 0.959 . S
C225 H227 0.960 . S
C225 H228 0.961 . S
H226 C225 0.959 . S
H227 C225 0.960 . S
H228 C225 0.961 . S
O229 Co204 1.967 . S
O229 C237 1.258 . S
O230 Co205 1.941 . S
O230 C237 1.266 . S
H231 C233 0.959 . S
H232 C233 0.961 . S
C233 C223 1.510 . S
C233 H231 0.959 . S
C233 H232 0.961 . S
C233 H234 0.960 . S
H234 C233 0.960 . S
H235 N215 0.862 . S
O236 Co204 1.920 . S
O236 C209 1.289 . S
C237 O229 1.258 . S
C237 O230 1.266 . S
Co238 O241 1.970 . S
Co238 N255 1.989 . S
Co238 O263 1.967 . S
Co238 O270 1.920 . S
Co239 O242 1.966 . S
Co239 N248 2.022 . S
Co239 N256 1.993 . S
Co239 O264 1.941 . S
C240 O241 1.258 . S
C240 O242 1.263 . S
O241 Co238 1.970 . S
O241 C240 1.258 . S
O242 Co239 1.966 . S
O242 C240 1.263 . S
C243 O244 1.235 . S
C243 O270 1.289 . S
O244 C243 1.235 . S
C245 C247 1.400 . S
C245 N248 1.351 . S
C245 C250 1.501 . S
C246 C247 1.387 . S
C246 N249 1.341 . S
C247 C245 1.400 . S
C247 C246 1.387 . S
N248 Co239 2.022 . S
N248 C245 1.351 . S
N248 N249 1.365 . S
N249 C246 1.341 . S
N249 N248 1.365 . S
N249 H269 0.862 . S
C250 C245 1.501 . S
C250 H251 0.961 . S
C250 H252 0.961 . S
C250 H253 0.960 . S
H251 C250 0.961 . S
H252 C250 0.961 . S
H253 C250 0.960 . S
C254 N255 1.342 . S
C254 C258 1.401 . S
C254 C259 1.499 . S
N255 Co238 1.989 . S
N255 C254 1.342 . S
N255 N256 1.388 . S
N256 Co239 1.993 . S
N256 N255 1.388 . S
N256 C257 1.346 . S
C257 N256 1.346 . S
C257 C258 1.396 . S
C257 C267 1.510 . S
C258 C254 1.401 . S
C258 C257 1.396 . S
C259 C254 1.499 . S
C259 H260 0.959 . S
C259 H261 0.960 . S
C259 H262 0.961 . S
H260 C259 0.959 . S
H261 C259 0.960 . S
H262 C259 0.961 . S
O263 Co238 1.967 . S
O263 C271 1.258 . S
O264 Co239 1.941 . S
O264 C271 1.266 . S
H265 C267 0.959 . S
H266 C267 0.961 . S
C267 C257 1.510 . S
C267 H265 0.959 . S
C267 H266 0.961 . S
C267 H268 0.960 . S
H268 C267 0.960 . S
H269 N249 0.862 . S
O270 Co238 1.920 . S
O270 C243 1.289 . S
C271 O263 1.258 . S
C271 O264 1.266 . S
Co272 O275 1.970 . S
Co272 N289 1.989 . S
Co272 O297 1.967 . S
Co272 O304 1.920 . S
Co273 O276 1.966 . S
Co273 N282 2.022 . S
Co273 N290 1.993 . S
Co273 O298 1.941 . S
C274 O275 1.258 . S
C274 O276 1.263 . S
O275 Co272 1.970 . S
O275 C274 1.258 . S
O276 Co273 1.966 . S
O276 C274 1.263 . S
C277 O278 1.235 . S
C277 O304 1.289 . S
O278 C277 1.235 . S
C279 C281 1.400 . S
C279 N282 1.351 . S
C279 C284 1.501 . S
C280 C281 1.387 . S
C280 N283 1.341 . S
C281 C279 1.400 . S
C281 C280 1.387 . S
N282 Co273 2.022 . S
N282 C279 1.351 . S
N282 N283 1.365 . S
N283 C280 1.341 . S
N283 N282 1.365 . S
N283 H303 0.862 . S
C284 C279 1.501 . S
C284 H285 0.961 . S
C284 H286 0.961 . S
C284 H287 0.960 . S
H285 C284 0.961 . S
H286 C284 0.961 . S
H287 C284 0.960 . S
C288 N289 1.342 . S
C288 C292 1.401 . S
C288 C293 1.499 . S
N289 Co272 1.989 . S
N289 C288 1.342 . S
N289 N290 1.388 . S
N290 Co273 1.993 . S
N290 N289 1.388 . S
N290 C291 1.346 . S
C291 N290 1.346 . S
C291 C292 1.396 . S
C291 C301 1.510 . S
C292 C288 1.401 . S
C292 C291 1.396 . S
C293 C288 1.499 . S
C293 H294 0.959 . S
C293 H295 0.960 . S
C293 H296 0.961 . S
H294 C293 0.959 . S
H295 C293 0.960 . S
H296 C293 0.961 . S
O297 Co272 1.967 . S
O297 C305 1.258 . S
O298 Co273 1.941 . S
O298 C305 1.266 . S
H299 C301 0.959 . S
H300 C301 0.961 . S
C301 C291 1.510 . S
C301 H299 0.959 . S
C301 H300 0.961 . S
C301 H302 0.960 . S
H302 C301 0.960 . S
H303 N283 0.862 . S
O304 Co272 1.920 . S
O304 C277 1.289 . S
C305 O297 1.258 . S
C305 O298 1.266 . S
Co306 O309 1.970 . S
Co306 N323 1.989 . S
Co306 O331 1.967 . S
Co306 O338 1.920 . S
Co307 O310 1.966 . S
Co307 N316 2.022 . S
Co307 N324 1.993 . S
Co307 O332 1.941 . S
C308 O309 1.258 . S
C308 O310 1.263 . S
O309 Co306 1.970 . S
O309 C308 1.258 . S
O310 Co307 1.966 . S
O310 C308 1.263 . S
C311 O312 1.235 . S
C311 O338 1.289 . S
O312 C311 1.235 . S
C313 C315 1.400 . S
C313 N316 1.351 . S
C313 C318 1.501 . S
C314 C315 1.387 . S
C314 N317 1.341 . S
C315 C313 1.400 . S
C315 C314 1.387 . S
N316 Co307 2.022 . S
N316 C313 1.351 . S
N316 N317 1.365 . S
N317 C314 1.341 . S
N317 N316 1.365 . S
N317 H337 0.862 . S
C318 C313 1.501 . S
C318 H319 0.961 . S
C318 H320 0.961 . S
C318 H321 0.960 . S
H319 C318 0.961 . S
H320 C318 0.961 . S
H321 C318 0.960 . S
C322 N323 1.342 . S
C322 C326 1.401 . S
C322 C327 1.499 . S
N323 Co306 1.989 . S
N323 C322 1.342 . S
N323 N324 1.388 . S
N324 Co307 1.993 . S
N324 N323 1.388 . S
N324 C325 1.346 . S
C325 N324 1.346 . S
C325 C326 1.396 . S
C325 C335 1.510 . S
C326 C322 1.401 . S
C326 C325 1.396 . S
C327 C322 1.499 . S
C327 H328 0.959 . S
C327 H329 0.960 . S
C327 H330 0.961 . S
H328 C327 0.959 . S
H329 C327 0.960 . S
H330 C327 0.961 . S
O331 Co306 1.967 . S
O331 C339 1.258 . S
O332 Co307 1.941 . S
O332 C339 1.266 . S
H333 C335 0.959 . S
H334 C335 0.961 . S
C335 C325 1.510 . S
C335 H333 0.959 . S
C335 H334 0.961 . S
C335 H336 0.960 . S
H336 C335 0.960 . S
H337 N317 0.862 . S
O338 Co306 1.920 . S
O338 C311 1.289 . S
C339 O331 1.258 . S
C339 O332 1.266 . S
Co340 O343 1.970 . S
Co340 N357 1.989 . S
Co340 O365 1.967 . S
Co340 O372 1.920 . S
Co341 O344 1.966 . S
Co341 N350 2.022 . S
Co341 N358 1.993 . S
Co341 O366 1.941 . S
C342 O343 1.258 . S
C342 O344 1.263 . S
O343 Co340 1.970 . S
O343 C342 1.258 . S
O344 Co341 1.966 . S
O344 C342 1.263 . S
C345 O346 1.235 . S
C345 O372 1.289 . S
O346 C345 1.235 . S
C347 C349 1.400 . S
C347 N350 1.351 . S
C347 C352 1.501 . S
C348 C349 1.387 . S
C348 N351 1.341 . S
C349 C347 1.400 . S
C349 C348 1.387 . S
N350 Co341 2.022 . S
N350 C347 1.351 . S
N350 N351 1.365 . S
N351 C348 1.341 . S
N351 N350 1.365 . S
N351 H371 0.862 . S
C352 C347 1.501 . S
C352 H353 0.961 . S
C352 H354 0.961 . S
C352 H355 0.960 . S
H353 C352 0.961 . S
H354 C352 0.961 . S
H355 C352 0.960 . S
C356 N357 1.342 . S
C356 C360 1.401 . S
C356 C361 1.499 . S
N357 Co340 1.989 . S
N357 C356 1.342 . S
N357 N358 1.388 . S
N358 Co341 1.993 . S
N358 N357 1.388 . S
N358 C359 1.346 . S
C359 N358 1.346 . S
C359 C360 1.396 . S
C359 C369 1.510 . S
C360 C356 1.401 . S
C360 C359 1.396 . S
C361 C356 1.499 . S
C361 H362 0.959 . S
C361 H363 0.960 . S
C361 H364 0.961 . S
H362 C361 0.959 . S
H363 C361 0.960 . S
H364 C361 0.961 . S
O365 Co340 1.967 . S
O365 C373 1.258 . S
O366 Co341 1.941 . S
O366 C373 1.266 . S
H367 C369 0.959 . S
H368 C369 0.961 . S
C369 C359 1.510 . S
C369 H367 0.959 . S
C369 H368 0.961 . S
C369 H370 0.960 . S
H370 C369 0.960 . S
H371 N351 0.862 . S
O372 Co340 1.920 . S
O372 C345 1.289 . S
C373 O365 1.258 . S
C373 O366 1.266 . S
Co374 O377 1.970 . S
Co374 N391 1.989 . S
Co374 O399 1.967 . S
Co374 O406 1.920 . S
Co375 O378 1.966 . S
Co375 N384 2.022 . S
Co375 N392 1.993 . S
Co375 O400 1.941 . S
C376 O377 1.258 . S
C376 O378 1.263 . S
O377 Co374 1.970 . S
O377 C376 1.258 . S
O378 Co375 1.966 . S
O378 C376 1.263 . S
C379 O380 1.235 . S
C379 O406 1.289 . S
O380 C379 1.235 . S
C381 C383 1.400 . S
C381 N384 1.351 . S
C381 C386 1.501 . S
C382 C383 1.387 . S
C382 N385 1.341 . S
C383 C381 1.400 . S
C383 C382 1.387 . S
N384 Co375 2.022 . S
N384 C381 1.351 . S
N384 N385 1.365 . S
N385 C382 1.341 . S
N385 N384 1.365 . S
N385 H405 0.862 . S
C386 C381 1.501 . S
C386 H387 0.961 . S
C386 H388 0.961 . S
C386 H389 0.960 . S
H387 C386 0.961 . S
H388 C386 0.961 . S
H389 C386 0.960 . S
C390 N391 1.342 . S
C390 C394 1.401 . S
C390 C395 1.499 . S
N391 Co374 1.989 . S
N391 C390 1.342 . S
N391 N392 1.388 . S
N392 Co375 1.993 . S
N392 N391 1.388 . S
N392 C393 1.346 . S
C393 N392 1.346 . S
C393 C394 1.396 . S
C393 C403 1.510 . S
C394 C390 1.401 . S
C394 C393 1.396 . S
C395 C390 1.499 . S
C395 H396 0.959 . S
C395 H397 0.960 . S
C395 H398 0.961 . S
H396 C395 0.959 . S
H397 C395 0.960 . S
H398 C395 0.961 . S
O399 Co374 1.967 . S
O399 C407 1.258 . S
O400 Co375 1.941 . S
O400 C407 1.266 . S
H401 C403 0.959 . S
H402 C403 0.961 . S
C403 C393 1.510 . S
C403 H401 0.959 . S
C403 H402 0.961 . S
C403 H404 0.960 . S
H404 C403 0.960 . S
H405 N385 0.862 . S
O406 Co374 1.920 . S
O406 C379 1.289 . S
C407 O399 1.258 . S
C407 O400 1.266 . S
Co408 O411 1.970 . S
Co408 N425 1.989 . S
Co408 O433 1.967 . S
Co408 O440 1.920 . S
Co409 O412 1.966 . S
Co409 N418 2.022 . S
Co409 N426 1.993 . S
Co409 O434 1.941 . S
C410 O411 1.258 . S
C410 O412 1.263 . S
O411 Co408 1.970 . S
O411 C410 1.258 . S
O412 Co409 1.966 . S
O412 C410 1.263 . S
C413 O414 1.235 . S
C413 O440 1.289 . S
O414 C413 1.235 . S
C415 C417 1.400 . S
C415 N418 1.351 . S
C415 C420 1.501 . S
C416 C417 1.387 . S
C416 N419 1.341 . S
C417 C415 1.400 . S
C417 C416 1.387 . S
N418 Co409 2.022 . S
N418 C415 1.351 . S
N418 N419 1.365 . S
N419 C416 1.341 . S
N419 N418 1.365 . S
N419 H439 0.862 . S
C420 C415 1.501 . S
C420 H421 0.961 . S
C420 H422 0.961 . S
C420 H423 0.960 . S
H421 C420 0.961 . S
H422 C420 0.961 . S
H423 C420 0.960 . S
C424 N425 1.342 . S
C424 C428 1.401 . S
C424 C429 1.499 . S
N425 Co408 1.989 . S
N425 C424 1.342 . S
N425 N426 1.388 . S
N426 Co409 1.993 . S
N426 N425 1.388 . S
N426 C427 1.346 . S
C427 N426 1.346 . S
C427 C428 1.396 . S
C427 C437 1.510 . S
C428 C424 1.401 . S
C428 C427 1.396 . S
C429 C424 1.499 . S
C429 H430 0.959 . S
C429 H431 0.960 . S
C429 H432 0.961 . S
H430 C429 0.959 . S
H431 C429 0.960 . S
H432 C429 0.961 . S
O433 Co408 1.967 . S
O433 C441 1.258 . S
O434 Co409 1.941 . S
O434 C441 1.266 . S
H435 C437 0.959 . S
H436 C437 0.961 . S
C437 C427 1.510 . S
C437 H435 0.959 . S
C437 H436 0.961 . S
C437 H438 0.960 . S
H438 C437 0.960 . S
H439 N419 0.862 . S
O440 Co408 1.920 . S
O440 C413 1.289 . S
C441 O433 1.258 . S
C441 O434 1.266 . S
Co442 O445 1.970 . S
Co442 N459 1.989 . S
Co442 O467 1.967 . S
Co442 O474 1.920 . S
Co443 O446 1.966 . S
Co443 N452 2.022 . S
Co443 N460 1.993 . S
Co443 O468 1.941 . S
C444 O445 1.258 . S
C444 O446 1.263 . S
O445 Co442 1.970 . S
O445 C444 1.258 . S
O446 Co443 1.966 . S
O446 C444 1.263 . S
C447 O448 1.235 . S
C447 O474 1.289 . S
O448 C447 1.235 . S
C449 C451 1.400 . S
C449 N452 1.351 . S
C449 C454 1.501 . S
C450 C451 1.387 . S
C450 N453 1.341 . S
C451 C449 1.400 . S
C451 C450 1.387 . S
N452 Co443 2.022 . S
N452 C449 1.351 . S
N452 N453 1.365 . S
N453 C450 1.341 . S
N453 N452 1.365 . S
N453 H473 0.862 . S
C454 C449 1.501 . S
C454 H455 0.961 . S
C454 H456 0.961 . S
C454 H457 0.960 . S
H455 C454 0.961 . S
H456 C454 0.961 . S
H457 C454 0.960 . S
C458 N459 1.342 . S
C458 C462 1.401 . S
C458 C463 1.499 . S
N459 Co442 1.989 . S
N459 C458 1.342 . S
N459 N460 1.388 . S
N460 Co443 1.993 . S
N460 N459 1.388 . S
N460 C461 1.346 . S
C461 N460 1.346 . S
C461 C462 1.396 . S
C461 C471 1.510 . S
C462 C458 1.401 . S
C462 C461 1.396 . S
C463 C458 1.499 . S
C463 H464 0.959 . S
C463 H465 0.960 . S
C463 H466 0.961 . S
H464 C463 0.959 . S
H465 C463 0.960 . S
H466 C463 0.961 . S
O467 Co442 1.967 . S
O467 C475 1.258 . S
O468 Co443 1.941 . S
O468 C475 1.266 . S
H469 C471 0.959 . S
H470 C471 0.961 . S
C471 C461 1.510 . S
C471 H469 0.959 . S
C471 H470 0.961 . S
C471 H472 0.960 . S
H472 C471 0.960 . S
H473 N453 0.862 . S
O474 Co442 1.920 . S
O474 C447 1.289 . S
C475 O467 1.258 . S
C475 O468 1.266 . S
Co476 O479 1.970 . S
Co476 N493 1.989 . S
Co476 O501 1.967 . S
Co476 O508 1.920 . S
Co477 O480 1.966 . S
Co477 N486 2.022 . S
Co477 N494 1.993 . S
Co477 O502 1.941 . S
C478 O479 1.258 . S
C478 O480 1.263 . S
O479 Co476 1.970 . S
O479 C478 1.258 . S
O480 Co477 1.966 . S
O480 C478 1.263 . S
C481 O482 1.235 . S
C481 O508 1.289 . S
O482 C481 1.235 . S
C483 C485 1.400 . S
C483 N486 1.351 . S
C483 C488 1.501 . S
C484 C485 1.387 . S
C484 N487 1.341 . S
C485 C483 1.400 . S
C485 C484 1.387 . S
N486 Co477 2.022 . S
N486 C483 1.351 . S
N486 N487 1.365 . S
N487 C484 1.341 . S
N487 N486 1.365 . S
N487 H507 0.862 . S
C488 C483 1.501 . S
C488 H489 0.961 . S
C488 H490 0.961 . S
C488 H491 0.960 . S
H489 C488 0.961 . S
H490 C488 0.961 . S
H491 C488 0.960 . S
C492 N493 1.342 . S
C492 C496 1.401 . S
C492 C497 1.499 . S
N493 Co476 1.989 . S
N493 C492 1.342 . S
N493 N494 1.388 . S
N494 Co477 1.993 . S
N494 N493 1.388 . S
N494 C495 1.346 . S
C495 N494 1.346 . S
C495 C496 1.396 . S
C495 C505 1.510 . S
C496 C492 1.401 . S
C496 C495 1.396 . S
C497 C492 1.499 . S
C497 H498 0.959 . S
C497 H499 0.960 . S
C497 H500 0.961 . S
H498 C497 0.959 . S
H499 C497 0.960 . S
H500 C497 0.961 . S
O501 Co476 1.967 . S
O501 C509 1.258 . S
O502 Co477 1.941 . S
O502 C509 1.266 . S
H503 C505 0.959 . S
H504 C505 0.961 . S
C505 C495 1.510 . S
C505 H503 0.959 . S
C505 H504 0.961 . S
C505 H506 0.960 . S
H506 C505 0.960 . S
H507 N487 0.862 . S
O508 Co476 1.920 . S
O508 C481 1.289 . S
C509 O501 1.258 . S
C509 O502 1.266 . S
Co510 O513 1.970 . S
Co510 N527 1.989 . S
Co510 O535 1.967 . S
Co510 O542 1.920 . S
Co511 O514 1.966 . S
Co511 N520 2.022 . S
Co511 N528 1.993 . S
Co511 O536 1.941 . S
C512 O513 1.258 . S
C512 O514 1.263 . S
O513 Co510 1.970 . S
O513 C512 1.258 . S
O514 Co511 1.966 . S
O514 C512 1.263 . S
C515 O516 1.235 . S
C515 O542 1.289 . S
O516 C515 1.235 . S
C517 C519 1.400 . S
C517 N520 1.351 . S
C517 C522 1.501 . S
C518 C519 1.387 . S
C518 N521 1.341 . S
C519 C517 1.400 . S
C519 C518 1.387 . S
N520 Co511 2.022 . S
N520 C517 1.351 . S
N520 N521 1.365 . S
N521 C518 1.341 . S
N521 N520 1.365 . S
N521 H541 0.862 . S
C522 C517 1.501 . S
C522 H523 0.961 . S
C522 H524 0.961 . S
C522 H525 0.960 . S
H523 C522 0.961 . S
H524 C522 0.961 . S
H525 C522 0.960 . S
C526 N527 1.342 . S
C526 C530 1.401 . S
C526 C531 1.499 . S
N527 Co510 1.989 . S
N527 C526 1.342 . S
N527 N528 1.388 . S
N528 Co511 1.993 . S
N528 N527 1.388 . S
N528 C529 1.346 . S
C529 N528 1.346 . S
C529 C530 1.396 . S
C529 C539 1.510 . S
C530 C526 1.401 . S
C530 C529 1.396 . S
C531 C526 1.499 . S
C531 H532 0.959 . S
C531 H533 0.960 . S
C531 H534 0.961 . S
H532 C531 0.959 . S
H533 C531 0.960 . S
H534 C531 0.961 . S
O535 Co510 1.967 . S
O535 C543 1.258 . S
O536 Co511 1.941 . S
O536 C543 1.266 . S
H537 C539 0.959 . S
H538 C539 0.961 . S
C539 C529 1.510 . S
C539 H537 0.959 . S
C539 H538 0.961 . S
C539 H540 0.960 . S
H540 C539 0.960 . S
H541 N521 0.862 . S
O542 Co510 1.920 . S
O542 C515 1.289 . S
C543 O535 1.258 . S
C543 O536 1.266 . S
Co544 O547 1.970 . S
Co544 N561 1.989 . S
Co544 O569 1.967 . S
Co544 O576 1.920 . S
Co545 O548 1.966 . S
Co545 N554 2.022 . S
Co545 N562 1.993 . S
Co545 O570 1.941 . S
C546 O547 1.258 . S
C546 O548 1.263 . S
O547 Co544 1.970 . S
O547 C546 1.258 . S
O548 Co545 1.966 . S
O548 C546 1.263 . S
C549 O550 1.235 . S
C549 O576 1.289 . S
O550 C549 1.235 . S
C551 C553 1.400 . S
C551 N554 1.351 . S
C551 C556 1.501 . S
C552 C553 1.387 . S
C552 N555 1.341 . S
C553 C551 1.400 . S
C553 C552 1.387 . S
N554 Co545 2.022 . S
N554 C551 1.351 . S
N554 N555 1.365 . S
N555 C552 1.341 . S
N555 N554 1.365 . S
N555 H575 0.862 . S
C556 C551 1.501 . S
C556 H557 0.961 . S
C556 H558 0.961 . S
C556 H559 0.960 . S
H557 C556 0.961 . S
H558 C556 0.961 . S
H559 C556 0.960 . S
C560 N561 1.342 . S
C560 C564 1.401 . S
C560 C565 1.499 . S
N561 Co544 1.989 . S
N561 C560 1.342 . S
N561 N562 1.388 . S
N562 Co545 1.993 . S
N562 N561 1.388 . S
N562 C563 1.346 . S
C563 N562 1.346 . S
C563 C564 1.396 . S
C563 C573 1.510 . S
C564 C560 1.401 . S
C564 C563 1.396 . S
C565 C560 1.499 . S
C565 H566 0.959 . S
C565 H567 0.960 . S
C565 H568 0.961 . S
H566 C565 0.959 . S
H567 C565 0.960 . S
H568 C565 0.961 . S
O569 Co544 1.967 . S
O569 C577 1.258 . S
O570 Co545 1.941 . S
O570 C577 1.266 . S
H571 C573 0.959 . S
H572 C573 0.961 . S
C573 C563 1.510 . S
C573 H571 0.959 . S
C573 H572 0.961 . S
C573 H574 0.960 . S
H574 C573 0.960 . S
H575 N555 0.862 . S
O576 Co544 1.920 . S
O576 C549 1.289 . S
C577 O569 1.258 . S
C577 O570 1.266 . S
Co578 O581 1.970 . S
Co578 N595 1.989 . S
Co578 O603 1.967 . S
Co578 O610 1.920 . S
Co579 O582 1.966 . S
Co579 N588 2.022 . S
Co579 N596 1.993 . S
Co579 O604 1.941 . S
C580 O581 1.258 . S
C580 O582 1.263 . S
O581 Co578 1.970 . S
O581 C580 1.258 . S
O582 Co579 1.966 . S
O582 C580 1.263 . S
C583 O584 1.235 . S
C583 O610 1.289 . S
O584 C583 1.235 . S
C585 C587 1.400 . S
C585 N588 1.351 . S
C585 C590 1.501 . S
C586 C587 1.387 . S
C586 N589 1.341 . S
C587 C585 1.400 . S
C587 C586 1.387 . S
N588 Co579 2.022 . S
N588 C585 1.351 . S
N588 N589 1.365 . S
N589 C586 1.341 . S
N589 N588 1.365 . S
N589 H609 0.862 . S
C590 C585 1.501 . S
C590 H591 0.961 . S
C590 H592 0.961 . S
C590 H593 0.960 . S
H591 C590 0.961 . S
H592 C590 0.961 . S
H593 C590 0.960 . S
C594 N595 1.342 . S
C594 C598 1.401 . S
C594 C599 1.499 . S
N595 Co578 1.989 . S
N595 C594 1.342 . S
N595 N596 1.388 . S
N596 Co579 1.993 . S
N596 N595 1.388 . S
N596 C597 1.346 . S
C597 N596 1.346 . S
C597 C598 1.396 . S
C597 C607 1.510 . S
C598 C594 1.401 . S
C598 C597 1.396 . S
C599 C594 1.499 . S
C599 H600 0.959 . S
C599 H601 0.960 . S
C599 H602 0.961 . S
H600 C599 0.959 . S
H601 C599 0.960 . S
H602 C599 0.961 . S
O603 Co578 1.967 . S
O603 C611 1.258 . S
O604 Co579 1.941 . S
O604 C611 1.266 . S
H605 C607 0.959 . S
H606 C607 0.961 . S
C607 C597 1.510 . S
C607 H605 0.959 . S
C607 H606 0.961 . S
C607 H608 0.960 . S
H608 C607 0.960 . S
H609 N589 0.862 . S
O610 Co578 1.920 . S
O610 C583 1.289 . S
C611 O603 1.258 . S
C611 O604 1.266 . S
Co612 O615 1.970 . S
Co612 N629 1.989 . S
Co612 O637 1.967 . S
Co612 O644 1.920 . S
Co613 O616 1.966 . S
Co613 N622 2.022 . S
Co613 N630 1.993 . S
Co613 O638 1.941 . S
C614 O615 1.258 . S
C614 O616 1.263 . S
O615 Co612 1.970 . S
O615 C614 1.258 . S
O616 Co613 1.966 . S
O616 C614 1.263 . S
C617 O618 1.235 . S
C617 O644 1.289 . S
O618 C617 1.235 . S
C619 C621 1.400 . S
C619 N622 1.351 . S
C619 C624 1.501 . S
C620 C621 1.387 . S
C620 N623 1.341 . S
C621 C619 1.400 . S
C621 C620 1.387 . S
N622 Co613 2.022 . S
N622 C619 1.351 . S
N622 N623 1.365 . S
N623 C620 1.341 . S
N623 N622 1.365 . S
N623 H643 0.862 . S
C624 C619 1.501 . S
C624 H625 0.961 . S
C624 H626 0.961 . S
C624 H627 0.960 . S
H625 C624 0.961 . S
H626 C624 0.961 . S
H627 C624 0.960 . S
C628 N629 1.342 . S
C628 C632 1.401 . S
C628 C633 1.499 . S
N629 Co612 1.989 . S
N629 C628 1.342 . S
N629 N630 1.388 . S
N630 Co613 1.993 . S
N630 N629 1.388 . S
N630 C631 1.346 . S
C631 N630 1.346 . S
C631 C632 1.396 . S
C631 C641 1.510 . S
C632 C628 1.401 . S
C632 C631 1.396 . S
C633 C628 1.499 . S
C633 H634 0.959 . S
C633 H635 0.960 . S
C633 H636 0.961 . S
H634 C633 0.959 . S
H635 C633 0.960 . S
H636 C633 0.961 . S
O637 Co612 1.967 . S
O637 C645 1.258 . S
O638 Co613 1.941 . S
O638 C645 1.266 . S
H639 C641 0.959 . S
H640 C641 0.961 . S
C641 C631 1.510 . S
C641 H639 0.959 . S
C641 H640 0.961 . S
C641 H642 0.960 . S
H642 C641 0.960 . S
H643 N623 0.862 . S
O644 Co612 1.920 . S
O644 C617 1.289 . S
C645 O637 1.258 . S
C645 O638 1.266 . S
Co646 O649 1.970 . S
Co646 N663 1.989 . S
Co646 O671 1.967 . S
Co646 O678 1.920 . S
Co647 O650 1.966 . S
Co647 N656 2.022 . S
Co647 N664 1.993 . S
Co647 O672 1.941 . S
C648 O649 1.258 . S
C648 O650 1.263 . S
O649 Co646 1.970 . S
O649 C648 1.258 . S
O650 Co647 1.966 . S
O650 C648 1.263 . S
C651 O652 1.235 . S
C651 O678 1.289 . S
O652 C651 1.235 . S
C653 C655 1.400 . S
C653 N656 1.351 . S
C653 C658 1.501 . S
C654 C655 1.387 . S
C654 N657 1.341 . S
C655 C653 1.400 . S
C655 C654 1.387 . S
N656 Co647 2.022 . S
N656 C653 1.351 . S
N656 N657 1.365 . S
N657 C654 1.341 . S
N657 N656 1.365 . S
N657 H677 0.862 . S
C658 C653 1.501 . S
C658 H659 0.961 . S
C658 H660 0.961 . S
C658 H661 0.960 . S
H659 C658 0.961 . S
H660 C658 0.961 . S
H661 C658 0.960 . S
C662 N663 1.342 . S
C662 C666 1.401 . S
C662 C667 1.499 . S
N663 Co646 1.989 . S
N663 C662 1.342 . S
N663 N664 1.388 . S
N664 Co647 1.993 . S
N664 N663 1.388 . S
N664 C665 1.346 . S
C665 N664 1.346 . S
C665 C666 1.396 . S
C665 C675 1.510 . S
C666 C662 1.401 . S
C666 C665 1.396 . S
C667 C662 1.499 . S
C667 H668 0.959 . S
C667 H669 0.960 . S
C667 H670 0.961 . S
H668 C667 0.959 . S
H669 C667 0.960 . S
H670 C667 0.961 . S
O671 Co646 1.967 . S
O671 C679 1.258 . S
O672 Co647 1.941 . S
O672 C679 1.266 . S
H673 C675 0.959 . S
H674 C675 0.961 . S
C675 C665 1.510 . S
C675 H673 0.959 . S
C675 H674 0.961 . S
C675 H676 0.960 . S
H676 C675 0.960 . S
H677 N657 0.862 . S
O678 Co646 1.920 . S
O678 C651 1.289 . S
C679 O671 1.258 . S
C679 O672 1.266 . S
Co680 O683 1.970 . S
Co680 N697 1.989 . S
Co680 O705 1.967 . S
Co680 O712 1.920 . S
Co681 O684 1.966 . S
Co681 N690 2.022 . S
Co681 N698 1.993 . S
Co681 O706 1.941 . S
C682 O683 1.258 . S
C682 O684 1.263 . S
O683 Co680 1.970 . S
O683 C682 1.258 . S
O684 Co681 1.966 . S
O684 C682 1.263 . S
C685 O686 1.235 . S
C685 O712 1.289 . S
O686 C685 1.235 . S
C687 C689 1.400 . S
C687 N690 1.351 . S
C687 C692 1.501 . S
C688 C689 1.387 . S
C688 N691 1.341 . S
C689 C687 1.400 . S
C689 C688 1.387 . S
N690 Co681 2.022 . S
N690 C687 1.351 . S
N690 N691 1.365 . S
N691 C688 1.341 . S
N691 N690 1.365 . S
N691 H711 0.862 . S
C692 C687 1.501 . S
C692 H693 0.961 . S
C692 H694 0.961 . S
C692 H695 0.960 . S
H693 C692 0.961 . S
H694 C692 0.961 . S
H695 C692 0.960 . S
C696 N697 1.342 . S
C696 C700 1.401 . S
C696 C701 1.499 . S
N697 Co680 1.989 . S
N697 C696 1.342 . S
N697 N698 1.388 . S
N698 Co681 1.993 . S
N698 N697 1.388 . S
N698 C699 1.346 . S
C699 N698 1.346 . S
C699 C700 1.396 . S
C699 C709 1.510 . S
C700 C696 1.401 . S
C700 C699 1.396 . S
C701 C696 1.499 . S
C701 H702 0.959 . S
C701 H703 0.960 . S
C701 H704 0.961 . S
H702 C701 0.959 . S
H703 C701 0.960 . S
H704 C701 0.961 . S
O705 Co680 1.967 . S
O705 C713 1.258 . S
O706 Co681 1.941 . S
O706 C713 1.266 . S
H707 C709 0.959 . S
H708 C709 0.961 . S
C709 C699 1.510 . S
C709 H707 0.959 . S
C709 H708 0.961 . S
C709 H710 0.960 . S
H710 C709 0.960 . S
H711 N691 0.862 . S
O712 Co680 1.920 . S
O712 C685 1.289 . S
C713 O705 1.258 . S
C713 O706 1.266 . S
Co714 O717 1.970 . S
Co714 N731 1.989 . S
Co714 O739 1.967 . S
Co714 O746 1.920 . S
Co715 O718 1.966 . S
Co715 N724 2.022 . S
Co715 N732 1.993 . S
Co715 O740 1.941 . S
C716 O717 1.258 . S
C716 O718 1.263 . S
O717 Co714 1.970 . S
O717 C716 1.258 . S
O718 Co715 1.966 . S
O718 C716 1.263 . S
C719 O720 1.235 . S
C719 O746 1.289 . S
O720 C719 1.235 . S
C721 C723 1.400 . S
C721 N724 1.351 . S
C721 C726 1.501 . S
C722 C723 1.387 . S
C722 N725 1.341 . S
C723 C721 1.400 . S
C723 C722 1.387 . S
N724 Co715 2.022 . S
N724 C721 1.351 . S
N724 N725 1.365 . S
N725 C722 1.341 . S
N725 N724 1.365 . S
N725 H745 0.862 . S
C726 C721 1.501 . S
C726 H727 0.961 . S
C726 H728 0.961 . S
C726 H729 0.960 . S
H727 C726 0.961 . S
H728 C726 0.961 . S
H729 C726 0.960 . S
C730 N731 1.342 . S
C730 C734 1.401 . S
C730 C735 1.499 . S
N731 Co714 1.989 . S
N731 C730 1.342 . S
N731 N732 1.388 . S
N732 Co715 1.993 . S
N732 N731 1.388 . S
N732 C733 1.346 . S
C733 N732 1.346 . S
C733 C734 1.396 . S
C733 C743 1.510 . S
C734 C730 1.401 . S
C734 C733 1.396 . S
C735 C730 1.499 . S
C735 H736 0.959 . S
C735 H737 0.960 . S
C735 H738 0.961 . S
H736 C735 0.959 . S
H737 C735 0.960 . S
H738 C735 0.961 . S
O739 Co714 1.967 . S
O739 C747 1.258 . S
O740 Co715 1.941 . S
O740 C747 1.266 . S
H741 C743 0.959 . S
H742 C743 0.961 . S
C743 C733 1.510 . S
C743 H741 0.959 . S
C743 H742 0.961 . S
C743 H744 0.960 . S
H744 C743 0.960 . S
H745 N725 0.862 . S
O746 Co714 1.920 . S
O746 C719 1.289 . S
C747 O739 1.258 . S
C747 O740 1.266 . S
Co748 O751 1.970 . S
Co748 N765 1.989 . S
Co748 O773 1.967 . S
Co748 O780 1.920 . S
Co749 O752 1.966 . S
Co749 N758 2.022 . S
Co749 N766 1.993 . S
Co749 O774 1.941 . S
C750 O751 1.258 . S
C750 O752 1.263 . S
O751 Co748 1.970 . S
O751 C750 1.258 . S
O752 Co749 1.966 . S
O752 C750 1.263 . S
C753 O754 1.235 . S
C753 O780 1.289 . S
O754 C753 1.235 . S
C755 C757 1.400 . S
C755 N758 1.351 . S
C755 C760 1.501 . S
C756 C757 1.387 . S
C756 N759 1.341 . S
C757 C755 1.400 . S
C757 C756 1.387 . S
N758 Co749 2.022 . S
N758 C755 1.351 . S
N758 N759 1.365 . S
N759 C756 1.341 . S
N759 N758 1.365 . S
N759 H779 0.862 . S
C760 C755 1.501 . S
C760 H761 0.961 . S
C760 H762 0.961 . S
C760 H763 0.960 . S
H761 C760 0.961 . S
H762 C760 0.961 . S
H763 C760 0.960 . S
C764 N765 1.342 . S
C764 C768 1.401 . S
C764 C769 1.499 . S
N765 Co748 1.989 . S
N765 C764 1.342 . S
N765 N766 1.388 . S
N766 Co749 1.993 . S
N766 N765 1.388 . S
N766 C767 1.346 . S
C767 N766 1.346 . S
C767 C768 1.396 . S
C767 C777 1.510 . S
C768 C764 1.401 . S
C768 C767 1.396 . S
C769 C764 1.499 . S
C769 H770 0.959 . S
C769 H771 0.960 . S
C769 H772 0.961 . S
H770 C769 0.959 . S
H771 C769 0.960 . S
H772 C769 0.961 . S
O773 Co748 1.967 . S
O773 C781 1.258 . S
O774 Co749 1.941 . S
O774 C781 1.266 . S
H775 C777 0.959 . S
H776 C777 0.961 . S
C777 C767 1.510 . S
C777 H775 0.959 . S
C777 H776 0.961 . S
C777 H778 0.960 . S
H778 C777 0.960 . S
H779 N759 0.862 . S
O780 Co748 1.920 . S
O780 C753 1.289 . S
C781 O773 1.258 . S
C781 O774 1.266 . S
Co782 O785 1.970 . S
Co782 N799 1.989 . S
Co782 O807 1.967 . S
Co782 O814 1.920 . S
Co783 O786 1.966 . S
Co783 N792 2.022 . S
Co783 N800 1.993 . S
Co783 O808 1.941 . S
C784 O785 1.258 . S
C784 O786 1.263 . S
O785 Co782 1.970 . S
O785 C784 1.258 . S
O786 Co783 1.966 . S
O786 C784 1.263 . S
C787 O788 1.235 . S
C787 O814 1.289 . S
O788 C787 1.235 . S
C789 C791 1.400 . S
C789 N792 1.351 . S
C789 C794 1.501 . S
C790 C791 1.387 . S
C790 N793 1.341 . S
C791 C789 1.400 . S
C791 C790 1.387 . S
N792 Co783 2.022 . S
N792 C789 1.351 . S
N792 N793 1.365 . S
N793 C790 1.341 . S
N793 N792 1.365 . S
N793 H813 0.862 . S
C794 C789 1.501 . S
C794 H795 0.961 . S
C794 H796 0.961 . S
C794 H797 0.960 . S
H795 C794 0.961 . S
H796 C794 0.961 . S
H797 C794 0.960 . S
C798 N799 1.342 . S
C798 C802 1.401 . S
C798 C803 1.499 . S
N799 Co782 1.989 . S
N799 C798 1.342 . S
N799 N800 1.388 . S
N800 Co783 1.993 . S
N800 N799 1.388 . S
N800 C801 1.346 . S
C801 N800 1.346 . S
C801 C802 1.396 . S
C801 C811 1.510 . S
C802 C798 1.401 . S
C802 C801 1.396 . S
C803 C798 1.499 . S
C803 H804 0.959 . S
C803 H805 0.960 . S
C803 H806 0.961 . S
H804 C803 0.959 . S
H805 C803 0.960 . S
H806 C803 0.961 . S
O807 Co782 1.967 . S
O807 C815 1.258 . S
O808 Co783 1.941 . S
O808 C815 1.266 . S
H809 C811 0.959 . S
H810 C811 0.961 . S
C811 C801 1.510 . S
C811 H809 0.959 . S
C811 H810 0.961 . S
C811 H812 0.960 . S
H812 C811 0.960 . S
H813 N793 0.862 . S
O814 Co782 1.920 . S
O814 C787 1.289 . S
C815 O807 1.258 . S
C815 O808 1.266 . S
Co816 O819 1.970 . S
Co816 N833 1.989 . S
Co816 O841 1.967 . S
Co816 O848 1.920 . S
Co817 O820 1.966 . S
Co817 N826 2.022 . S
Co817 N834 1.993 . S
Co817 O842 1.941 . S
C818 O819 1.258 . S
C818 O820 1.263 . S
O819 Co816 1.970 . S
O819 C818 1.258 . S
O820 Co817 1.966 . S
O820 C818 1.263 . S
C821 O822 1.235 . S
C821 O848 1.289 . S
O822 C821 1.235 . S
C823 C825 1.400 . S
C823 N826 1.351 . S
C823 C828 1.501 . S
C824 C825 1.387 . S
C824 N827 1.341 . S
C825 C823 1.400 . S
C825 C824 1.387 . S
N826 Co817 2.022 . S
N826 C823 1.351 . S
N826 N827 1.365 . S
N827 C824 1.341 . S
N827 N826 1.365 . S
N827 H847 0.862 . S
C828 C823 1.501 . S
C828 H829 0.961 . S
C828 H830 0.961 . S
C828 H831 0.960 . S
H829 C828 0.961 . S
H830 C828 0.961 . S
H831 C828 0.960 . S
C832 N833 1.342 . S
C832 C836 1.401 . S
C832 C837 1.499 . S
N833 Co816 1.989 . S
N833 C832 1.342 . S
N833 N834 1.388 . S
N834 Co817 1.993 . S
N834 N833 1.388 . S
N834 C835 1.346 . S
C835 N834 1.346 . S
C835 C836 1.396 . S
C835 C845 1.510 . S
C836 C832 1.401 . S
C836 C835 1.396 . S
C837 C832 1.499 . S
C837 H838 0.959 . S
C837 H839 0.960 . S
C837 H840 0.961 . S
H838 C837 0.959 . S
H839 C837 0.960 . S
H840 C837 0.961 . S
O841 Co816 1.967 . S
O841 C849 1.258 . S
O842 Co817 1.941 . S
O842 C849 1.266 . S
H843 C845 0.959 . S
H844 C845 0.961 . S
C845 C835 1.510 . S
C845 H843 0.959 . S
C845 H844 0.961 . S
C845 H846 0.960 . S
H846 C845 0.960 . S
H847 N827 0.862 . S
O848 Co816 1.920 . S
O848 C821 1.289 . S
C849 O841 1.258 . S
C849 O842 1.266 . S
Co850 O853 1.970 . S
Co850 N867 1.989 . S
Co850 O875 1.967 . S
Co850 O882 1.920 . S
Co851 O854 1.966 . S
Co851 N860 2.022 . S
Co851 N868 1.993 . S
Co851 O876 1.941 . S
C852 O853 1.258 . S
C852 O854 1.263 . S
O853 Co850 1.970 . S
O853 C852 1.258 . S
O854 Co851 1.966 . S
O854 C852 1.263 . S
C855 O856 1.235 . S
C855 O882 1.289 . S
O856 C855 1.235 . S
C857 C859 1.400 . S
C857 N860 1.351 . S
C857 C862 1.501 . S
C858 C859 1.387 . S
C858 N861 1.341 . S
C859 C857 1.400 . S
C859 C858 1.387 . S
N860 Co851 2.022 . S
N860 C857 1.351 . S
N860 N861 1.365 . S
N861 C858 1.341 . S
N861 N860 1.365 . S
N861 H881 0.862 . S
C862 C857 1.501 . S
C862 H863 0.961 . S
C862 H864 0.961 . S
C862 H865 0.960 . S
H863 C862 0.961 . S
H864 C862 0.961 . S
H865 C862 0.960 . S
C866 N867 1.342 . S
C866 C870 1.401 . S
C866 C871 1.499 . S
N867 Co850 1.989 . S
N867 C866 1.342 . S
N867 N868 1.388 . S
N868 Co851 1.993 . S
N868 N867 1.388 . S
N868 C869 1.346 . S
C869 N868 1.346 . S
C869 C870 1.396 . S
C869 C879 1.510 . S
C870 C866 1.401 . S
C870 C869 1.396 . S
C871 C866 1.499 . S
C871 H872 0.959 . S
C871 H873 0.960 . S
C871 H874 0.961 . S
H872 C871 0.959 . S
H873 C871 0.960 . S
H874 C871 0.961 . S
O875 Co850 1.967 . S
O875 C883 1.258 . S
O876 Co851 1.941 . S
O876 C883 1.266 . S
H877 C879 0.959 . S
H878 C879 0.961 . S
C879 C869 1.510 . S
C879 H877 0.959 . S
C879 H878 0.961 . S
C879 H880 0.960 . S
H880 C879 0.960 . S
H881 N861 0.862 . S
O882 Co850 1.920 . S
O882 C855 1.289 . S
C883 O875 1.258 . S
C883 O876 1.266 . S
Co884 O887 1.970 . S
Co884 N901 1.989 . S
Co884 O909 1.967 . S
Co884 O916 1.920 . S
Co885 O888 1.966 . S
Co885 N894 2.022 . S
Co885 N902 1.993 . S
Co885 O910 1.941 . S
C886 O887 1.258 . S
C886 O888 1.263 . S
O887 Co884 1.970 . S
O887 C886 1.258 . S
O888 Co885 1.966 . S
O888 C886 1.263 . S
C889 O890 1.235 . S
C889 O916 1.289 . S
O890 C889 1.235 . S
C891 C893 1.400 . S
C891 N894 1.351 . S
C891 C896 1.501 . S
C892 C893 1.387 . S
C892 N895 1.341 . S
C893 C891 1.400 . S
C893 C892 1.387 . S
N894 Co885 2.022 . S
N894 C891 1.351 . S
N894 N895 1.365 . S
N895 C892 1.341 . S
N895 N894 1.365 . S
N895 H915 0.862 . S
C896 C891 1.501 . S
C896 H897 0.961 . S
C896 H898 0.961 . S
C896 H899 0.960 . S
H897 C896 0.961 . S
H898 C896 0.961 . S
H899 C896 0.960 . S
C900 N901 1.342 . S
C900 C904 1.401 . S
C900 C905 1.499 . S
N901 Co884 1.989 . S
N901 C900 1.342 . S
N901 N902 1.388 . S
N902 Co885 1.993 . S
N902 N901 1.388 . S
N902 C903 1.346 . S
C903 N902 1.346 . S
C903 C904 1.396 . S
C903 C913 1.510 . S
C904 C900 1.401 . S
C904 C903 1.396 . S
C905 C900 1.499 . S
C905 H906 0.959 . S
C905 H907 0.960 . S
C905 H908 0.961 . S
H906 C905 0.959 . S
H907 C905 0.960 . S
H908 C905 0.961 . S
O909 Co884 1.967 . S
O909 C917 1.258 . S
O910 Co885 1.941 . S
O910 C917 1.266 . S
H911 C913 0.959 . S
H912 C913 0.961 . S
C913 C903 1.510 . S
C913 H911 0.959 . S
C913 H912 0.961 . S
C913 H914 0.960 . S
H914 C913 0.960 . S
H915 N895 0.862 . S
O916 Co884 1.920 . S
O916 C889 1.289 . S
C917 O909 1.258 . S
C917 O910 1.266 . S
Co918 O921 1.970 . S
Co918 N935 1.989 . S
Co918 O943 1.967 . S
Co918 O950 1.920 . S
Co919 O922 1.966 . S
Co919 N928 2.022 . S
Co919 N936 1.993 . S
Co919 O944 1.941 . S
C920 O921 1.258 . S
C920 O922 1.263 . S
O921 Co918 1.970 . S
O921 C920 1.258 . S
O922 Co919 1.966 . S
O922 C920 1.263 . S
C923 O924 1.235 . S
C923 O950 1.289 . S
O924 C923 1.235 . S
C925 C927 1.400 . S
C925 N928 1.351 . S
C925 C930 1.501 . S
C926 C927 1.387 . S
C926 N929 1.341 . S
C927 C925 1.400 . S
C927 C926 1.387 . S
N928 Co919 2.022 . S
N928 C925 1.351 . S
N928 N929 1.365 . S
N929 C926 1.341 . S
N929 N928 1.365 . S
N929 H949 0.862 . S
C930 C925 1.501 . S
C930 H931 0.961 . S
C930 H932 0.961 . S
C930 H933 0.960 . S
H931 C930 0.961 . S
H932 C930 0.961 . S
H933 C930 0.960 . S
C934 N935 1.342 . S
C934 C938 1.401 . S
C934 C939 1.499 . S
N935 Co918 1.989 . S
N935 C934 1.342 . S
N935 N936 1.388 . S
N936 Co919 1.993 . S
N936 N935 1.388 . S
N936 C937 1.346 . S
C937 N936 1.346 . S
C937 C938 1.396 . S
C937 C947 1.510 . S
C938 C934 1.401 . S
C938 C937 1.396 . S
C939 C934 1.499 . S
C939 H940 0.959 . S
C939 H941 0.960 . S
C939 H942 0.961 . S
H940 C939 0.959 . S
H941 C939 0.960 . S
H942 C939 0.961 . S
O943 Co918 1.967 . S
O943 C951 1.258 . S
O944 Co919 1.941 . S
O944 C951 1.266 . S
H945 C947 0.959 . S
H946 C947 0.961 . S
C947 C937 1.510 . S
C947 H945 0.959 . S
C947 H946 0.961 . S
C947 H948 0.960 . S
H948 C947 0.960 . S
H949 N929 0.862 . S
O950 Co918 1.920 . S
O950 C923 1.289 . S
C951 O943 1.258 . S
C951 O944 1.266 . S
Co952 O955 1.970 . S
Co952 N969 1.989 . S
Co952 O977 1.967 . S
Co952 O984 1.920 . S
Co953 O956 1.966 . S
Co953 N962 2.022 . S
Co953 N970 1.993 . S
Co953 O978 1.941 . S
C954 O955 1.258 . S
C954 O956 1.263 . S
O955 Co952 1.970 . S
O955 C954 1.258 . S
O956 Co953 1.966 . S
O956 C954 1.263 . S
C957 O958 1.235 . S
C957 O984 1.289 . S
O958 C957 1.235 . S
C959 C961 1.400 . S
C959 N962 1.351 . S
C959 C964 1.501 . S
C960 C961 1.387 . S
C960 N963 1.341 . S
C961 C959 1.400 . S
C961 C960 1.387 . S
N962 Co953 2.022 . S
N962 C959 1.351 . S
N962 N963 1.365 . S
N963 C960 1.341 . S
N963 N962 1.365 . S
N963 H983 0.862 . S
C964 C959 1.501 . S
C964 H965 0.961 . S
C964 H966 0.961 . S
C964 H967 0.960 . S
H965 C964 0.961 . S
H966 C964 0.961 . S
H967 C964 0.960 . S
C968 N969 1.342 . S
C968 C972 1.401 . S
C968 C973 1.499 . S
N969 Co952 1.989 . S
N969 C968 1.342 . S
N969 N970 1.388 . S
N970 Co953 1.993 . S
N970 N969 1.388 . S
N970 C971 1.346 . S
C971 N970 1.346 . S
C971 C972 1.396 . S
C971 C981 1.510 . S
C972 C968 1.401 . S
C972 C971 1.396 . S
C973 C968 1.499 . S
C973 H974 0.959 . S
C973 H975 0.960 . S
C973 H976 0.961 . S
H974 C973 0.959 . S
H975 C973 0.960 . S
H976 C973 0.961 . S
O977 Co952 1.967 . S
O977 C985 1.258 . S
O978 Co953 1.941 . S
O978 C985 1.266 . S
H979 C981 0.959 . S
H980 C981 0.961 . S
C981 C971 1.510 . S
C981 H979 0.959 . S
C981 H980 0.961 . S
C981 H982 0.960 . S
H982 C981 0.960 . S
H983 N963 0.862 . S
O984 Co952 1.920 . S
O984 C957 1.289 . S
C985 O977 1.258 . S
C985 O978 1.266 . S
Co986 O989 1.970 . S
Co986 N1003 1.989 . S
Co986 O1011 1.967 . S
Co986 O1018 1.920 . S
Co987 O990 1.966 . S
Co987 N996 2.022 . S
Co987 N1004 1.993 . S
Co987 O1012 1.941 . S
C988 O989 1.258 . S
C988 O990 1.263 . S
O989 Co986 1.970 . S
O989 C988 1.258 . S
O990 Co987 1.966 . S
O990 C988 1.263 . S
C991 O992 1.235 . S
C991 O1018 1.289 . S
O992 C991 1.235 . S
C993 C995 1.400 . S
C993 N996 1.351 . S
C993 C998 1.501 . S
C994 C995 1.387 . S
C994 N997 1.341 . S
C995 C993 1.400 . S
C995 C994 1.387 . S
N996 Co987 2.022 . S
N996 C993 1.351 . S
N996 N997 1.365 . S
N997 C994 1.341 . S
N997 N996 1.365 . S
N997 H1017 0.862 . S
C998 C993 1.501 . S
C998 H999 0.961 . S
C998 H1000 0.961 . S
C998 H1001 0.960 . S
H999 C998 0.961 . S
H1000 C998 0.961 . S
H1001 C998 0.960 . S
C1002 N1003 1.342 . S
C1002 C1006 1.401 . S
C1002 C1007 1.499 . S
N1003 Co986 1.989 . S
N1003 C1002 1.342 . S
N1003 N1004 1.388 . S
N1004 Co987 1.993 . S
N1004 N1003 1.388 . S
N1004 C1005 1.346 . S
C1005 N1004 1.346 . S
C1005 C1006 1.396 . S
C1005 C1015 1.510 . S
C1006 C1002 1.401 . S
C1006 C1005 1.396 . S
C1007 C1002 1.499 . S
C1007 H1008 0.959 . S
C1007 H1009 0.960 . S
C1007 H1010 0.961 . S
H1008 C1007 0.959 . S
H1009 C1007 0.960 . S
H1010 C1007 0.961 . S
O1011 Co986 1.967 . S
O1011 C1019 1.258 . S
O1012 Co987 1.941 . S
O1012 C1019 1.266 . S
H1013 C1015 0.959 . S
H1014 C1015 0.961 . S
C1015 C1005 1.510 . S
C1015 H1013 0.959 . S
C1015 H1014 0.961 . S
C1015 H1016 0.960 . S
H1016 C1015 0.960 . S
H1017 N997 0.862 . S
O1018 Co986 1.920 . S
O1018 C991 1.289 . S
C1019 O1011 1.258 . S
C1019 O1012 1.266 . S
Co1020 O1023 1.970 . S
Co1020 N1037 1.989 . S
Co1020 O1045 1.967 . S
Co1020 O1052 1.920 . S
Co1021 O1024 1.966 . S
Co1021 N1030 2.022 . S
Co1021 N1038 1.993 . S
Co1021 O1046 1.941 . S
C1022 O1023 1.258 . S
C1022 O1024 1.263 . S
O1023 Co1020 1.970 . S
O1023 C1022 1.258 . S
O1024 Co1021 1.966 . S
O1024 C1022 1.263 . S
C1025 O1026 1.235 . S
C1025 O1052 1.289 . S
O1026 C1025 1.235 . S
C1027 C1029 1.400 . S
C1027 N1030 1.351 . S
C1027 C1032 1.501 . S
C1028 C1029 1.387 . S
C1028 N1031 1.341 . S
C1029 C1027 1.400 . S
C1029 C1028 1.387 . S
N1030 Co1021 2.022 . S
N1030 C1027 1.351 . S
N1030 N1031 1.365 . S
N1031 C1028 1.341 . S
N1031 N1030 1.365 . S
N1031 H1051 0.862 . S
C1032 C1027 1.501 . S
C1032 H1033 0.961 . S
C1032 H1034 0.961 . S
C1032 H1035 0.960 . S
H1033 C1032 0.961 . S
H1034 C1032 0.961 . S
H1035 C1032 0.960 . S
C1036 N1037 1.342 . S
C1036 C1040 1.401 . S
C1036 C1041 1.499 . S
N1037 Co1020 1.989 . S
N1037 C1036 1.342 . S
N1037 N1038 1.388 . S
N1038 Co1021 1.993 . S
N1038 N1037 1.388 . S
N1038 C1039 1.346 . S
C1039 N1038 1.346 . S
C1039 C1040 1.396 . S
C1039 C1049 1.510 . S
C1040 C1036 1.401 . S
C1040 C1039 1.396 . S
C1041 C1036 1.499 . S
C1041 H1042 0.959 . S
C1041 H1043 0.960 . S
C1041 H1044 0.961 . S
H1042 C1041 0.959 . S
H1043 C1041 0.960 . S
H1044 C1041 0.961 . S
O1045 Co1020 1.967 . S
O1045 C1053 1.258 . S
O1046 Co1021 1.941 . S
O1046 C1053 1.266 . S
H1047 C1049 0.959 . S
H1048 C1049 0.961 . S
C1049 C1039 1.510 . S
C1049 H1047 0.959 . S
C1049 H1048 0.961 . S
C1049 H1050 0.960 . S
H1050 C1049 0.960 . S
H1051 N1031 0.862 . S
O1052 Co1020 1.920 . S
O1052 C1025 1.289 . S
C1053 O1045 1.258 . S
C1053 O1046 1.266 . S
Co1054 O1057 1.970 . S
Co1054 N1071 1.989 . S
Co1054 O1079 1.967 . S
Co1054 O1086 1.920 . S
Co1055 O1058 1.966 . S
Co1055 N1064 2.022 . S
Co1055 N1072 1.993 . S
Co1055 O1080 1.941 . S
C1056 O1057 1.258 . S
C1056 O1058 1.263 . S
O1057 Co1054 1.970 . S
O1057 C1056 1.258 . S
O1058 Co1055 1.966 . S
O1058 C1056 1.263 . S
C1059 O1060 1.235 . S
C1059 O1086 1.289 . S
O1060 C1059 1.235 . S
C1061 C1063 1.400 . S
C1061 N1064 1.351 . S
C1061 C1066 1.501 . S
C1062 C1063 1.387 . S
C1062 N1065 1.341 . S
C1063 C1061 1.400 . S
C1063 C1062 1.387 . S
N1064 Co1055 2.022 . S
N1064 C1061 1.351 . S
N1064 N1065 1.365 . S
N1065 C1062 1.341 . S
N1065 N1064 1.365 . S
N1065 H1085 0.862 . S
C1066 C1061 1.501 . S
C1066 H1067 0.961 . S
C1066 H1068 0.961 . S
C1066 H1069 0.960 . S
H1067 C1066 0.961 . S
H1068 C1066 0.961 . S
H1069 C1066 0.960 . S
C1070 N1071 1.342 . S
C1070 C1074 1.401 . S
C1070 C1075 1.499 . S
N1071 Co1054 1.989 . S
N1071 C1070 1.342 . S
N1071 N1072 1.388 . S
N1072 Co1055 1.993 . S
N1072 N1071 1.388 . S
N1072 C1073 1.346 . S
C1073 N1072 1.346 . S
C1073 C1074 1.396 . S
C1073 C1083 1.510 . S
C1074 C1070 1.401 . S
C1074 C1073 1.396 . S
C1075 C1070 1.499 . S
C1075 H1076 0.959 . S
C1075 H1077 0.960 . S
C1075 H1078 0.961 . S
H1076 C1075 0.959 . S
H1077 C1075 0.960 . S
H1078 C1075 0.961 . S
O1079 Co1054 1.967 . S
O1079 C1087 1.258 . S
O1080 Co1055 1.941 . S
O1080 C1087 1.266 . S
H1081 C1083 0.959 . S
H1082 C1083 0.961 . S
C1083 C1073 1.510 . S
C1083 H1081 0.959 . S
C1083 H1082 0.961 . S
C1083 H1084 0.960 . S
H1084 C1083 0.960 . S
H1085 N1065 0.862 . S
O1086 Co1054 1.920 . S
O1086 C1059 1.289 . S
C1087 O1079 1.258 . S
C1087 O1080 1.266 . S
H1088 C1100 0.930 . S
H1089 C1102 0.930 . S
H1090 C1103 0.930 . S
H1091 C1107 0.959 . S
H1092 C1107 0.959 . S
H1093 C1107 0.961 . S
H1094 C1108 0.960 . S
H1095 C1108 0.961 . S
H1096 C1108 0.959 . S
H1097 C1111 0.929 . S
H1098 C1112 0.931 . S
H1099 C1114 0.930 . S
C1100 H1088 0.930 . S
C1100 C1101 1.399 . S
C1100 C1105 1.399 . S
C1101 C1100 1.399 . S
C1101 C1102 1.376 . S
C1102 H1089 0.930 . S
C1102 C1101 1.376 . S
C1102 C1103 1.388 . S
C1103 H1090 0.930 . S
C1103 C1102 1.388 . S
C1103 C1104 1.390 . S
C1104 C1103 1.390 . S
C1104 C1105 1.394 . S
C1104 C1110 1.465 . S
C1105 C1100 1.399 . S
C1105 C1104 1.394 . S
C1105 C1106 1.516 . S
C1106 C1105 1.516 . S
C1106 C1107 1.502 . S
C1106 C1108 1.561 . S
C1106 C1109 1.526 . S
C1107 H1091 0.959 . S
C1107 H1092 0.959 . S
C1107 H1093 0.961 . S
C1107 C1106 1.502 . S
C1108 H1094 0.960 . S
C1108 H1095 0.961 . S
C1108 H1096 0.959 . S
C1108 C1106 1.561 . S
C1109 C1106 1.526 . S
C1109 C1110 1.396 . S
C1109 C1114 1.390 . S
C1110 C1104 1.465 . S
C1110 C1109 1.396 . S
C1110 C1111 1.399 . S
C1111 H1097 0.929 . S
C1111 C1110 1.399 . S
C1111 C1112 1.385 . S
C1112 H1098 0.931 . S
C1112 C1111 1.385 . S
C1112 C1113 1.389 . S
C1113 C1112 1.389 . S
C1113 C1114 1.387 . S
C1114 H1099 0.930 . S
C1114 C1109 1.390 . S
C1114 C1113 1.387 . S
H1115 C1127 0.930 . S
H1116 C1129 0.930 . S
H1117 C1130 0.930 . S
H1118 C1134 0.959 . S
H1119 C1134 0.959 . S
H1120 C1134 0.961 . S
H1121 C1135 0.960 . S
H1122 C1135 0.961 1_455 S
H1123 C1135 0.959 . S
H1124 C1138 0.929 1_655 S
H1125 C1139 0.931 . S
H1126 C1141 0.930 . S
C1127 H1115 0.930 . S
C1127 C1128 1.399 . S
C1127 C1132 1.399 . S
C1128 C1127 1.399 . S
C1128 C1129 1.376 . S
C1129 H1116 0.930 . S
C1129 C1128 1.376 . S
C1129 C1130 1.388 1_565 S
C1130 H1117 0.930 . S
C1130 C1129 1.388 1_545 S
C1130 C1131 1.390 . S
C1131 C1130 1.390 . S
C1131 C1132 1.394 1_545 S
C1131 C1137 1.465 1_655 S
C1132 C1127 1.399 . S
C1132 C1131 1.394 1_565 S
C1132 C1133 1.516 1_655 S
C1133 C1132 1.516 1_455 S
C1133 C1134 1.502 . S
C1133 C1135 1.561 1_455 S
C1133 C1136 1.526 1_565 S
C1134 H1118 0.959 . S
C1134 H1119 0.959 . S
C1134 H1120 0.961 . S
C1134 C1133 1.502 . S
C1135 H1121 0.960 . S
C1135 H1122 0.961 1_655 S
C1135 H1123 0.959 . S
C1135 C1133 1.561 1_655 S
C1136 C1133 1.526 1_545 S
C1136 C1137 1.396 . S
C1136 C1141 1.390 . S
C1137 C1131 1.465 1_455 S
C1137 C1136 1.396 . S
C1137 C1138 1.399 . S
C1138 H1124 0.929 1_455 S
C1138 C1137 1.399 . S
C1138 C1139 1.385 . S
C1139 H1125 0.931 . S
C1139 C1138 1.385 . S
C1139 C1140 1.389 . S
C1140 C1139 1.389 . S
C1140 C1141 1.387 . S
C1141 H1126 0.930 . S
C1141 C1136 1.390 . S
C1141 C1140 1.387 . S
H1142 C1154 0.930 . S
H1143 C1156 0.930 . S
H1144 C1157 0.930 . S
H1145 C1161 0.959 . S
H1146 C1161 0.959 . S
H1147 C1161 0.961 . S
H1148 C1162 0.960 . S
H1149 C1162 0.961 . S
H1150 C1162 0.959 . S
H1151 C1165 0.929 . S
H1152 C1166 0.931 . S
H1153 C1168 0.930 . S
C1154 H1142 0.930 . S
C1154 C1155 1.399 . S
C1154 C1159 1.399 . S
C1155 C1154 1.399 . S
C1155 C1156 1.376 . S
C1156 H1143 0.930 . S
C1156 C1155 1.376 . S
C1156 C1157 1.388 . S
C1157 H1144 0.930 . S
C1157 C1156 1.388 . S
C1157 C1158 1.390 . S
C1158 C1157 1.390 . S
C1158 C1159 1.394 . S
C1158 C1164 1.465 . S
C1159 C1154 1.399 . S
C1159 C1158 1.394 . S
C1159 C1160 1.516 . S
C1160 C1159 1.516 . S
C1160 C1161 1.502 . S
C1160 C1162 1.561 . S
C1160 C1163 1.526 . S
C1161 H1145 0.959 . S
C1161 H1146 0.959 . S
C1161 H1147 0.961 . S
C1161 C1160 1.502 . S
C1162 H1148 0.960 . S
C1162 H1149 0.961 . S
C1162 H1150 0.959 . S
C1162 C1160 1.561 . S
C1163 C1160 1.526 . S
C1163 C1164 1.396 . S
C1163 C1168 1.390 . S
C1164 C1158 1.465 . S
C1164 C1163 1.396 . S
C1164 C1165 1.399 . S
C1165 H1151 0.929 . S
C1165 C1164 1.399 . S
C1165 C1166 1.385 . S
C1166 H1152 0.931 . S
C1166 C1165 1.385 . S
C1166 C1167 1.389 . S
C1167 C1166 1.389 . S
C1167 C1168 1.387 . S
C1168 H1153 0.930 . S
C1168 C1163 1.390 . S
C1168 C1167 1.387 . S
H1169 C1181 0.930 . S
H1170 C1183 0.930 . S
H1171 C1184 0.930 . S
H1172 C1188 0.959 . S
H1173 C1188 0.959 . S
H1174 C1188 0.961 . S
H1175 C1189 0.960 . S
H1176 C1189 0.961 . S
H1177 C1189 0.959 . S
H1178 C1192 0.929 . S
H1179 C1193 0.931 . S
H1180 C1195 0.930 . S
C1181 H1169 0.930 . S
C1181 C1182 1.399 . S
C1181 C1186 1.399 . S
C1182 C1181 1.399 . S
C1182 C1183 1.376 . S
C1183 H1170 0.930 . S
C1183 C1182 1.376 . S
C1183 C1184 1.388 1_565 S
C1184 H1171 0.930 . S
C1184 C1183 1.388 1_545 S
C1184 C1185 1.390 . S
C1185 C1184 1.390 . S
C1185 C1186 1.394 1_545 S
C1185 C1191 1.465 1_556 S
C1186 C1181 1.399 . S
C1186 C1185 1.394 1_565 S
C1186 C1187 1.516 . S
C1187 C1186 1.516 . S
C1187 C1188 1.502 1_556 S
C1187 C1189 1.561 . S
C1187 C1190 1.526 1_566 S
C1188 H1172 0.959 . S
C1188 H1173 0.959 . S
C1188 H1174 0.961 . S
C1188 C1187 1.502 1_554 S
C1189 H1175 0.960 . S
C1189 H1176 0.961 . S
C1189 H1177 0.959 . S
C1189 C1187 1.561 . S
C1190 C1187 1.526 1_544 S
C1190 C1191 1.396 . S
C1190 C1195 1.390 . S
C1191 C1185 1.465 1_554 S
C1191 C1190 1.396 . S
C1191 C1192 1.399 . S
C1192 H1178 0.929 . S
C1192 C1191 1.399 . S
C1192 C1193 1.385 . S
C1193 H1179 0.931 . S
C1193 C1192 1.385 . S
C1193 C1194 1.389 . S
C1194 C1193 1.389 . S
C1194 C1195 1.387 . S
C1195 H1180 0.930 . S
C1195 C1190 1.390 . S
C1195 C1194 1.387 . S
H1196 C1208 0.930 . S
H1197 C1210 0.930 . S
H1198 C1211 0.930 . S
H1199 C1215 0.959 . S
H1200 C1215 0.959 . S
H1201 C1215 0.961 . S
H1202 C1216 0.960 . S
H1203 C1216 0.961 . S
H1204 C1216 0.959 . S
H1205 C1219 0.929 . S
H1206 C1220 0.931 . S
H1207 C1222 0.930 . S
C1208 H1196 0.930 . S
C1208 C1209 1.399 . S
C1208 C1213 1.399 . S
C1209 C1208 1.399 . S
C1209 C1210 1.376 . S
C1210 H1197 0.930 . S
C1210 C1209 1.376 . S
C1210 C1211 1.388 . S
C1211 H1198 0.930 . S
C1211 C1210 1.388 . S
C1211 C1212 1.390 . S
C1212 C1211 1.390 . S
C1212 C1213 1.394 . S
C1212 C1218 1.465 . S
C1213 C1208 1.399 . S
C1213 C1212 1.394 . S
C1213 C1214 1.516 . S
C1214 C1213 1.516 . S
C1214 C1215 1.502 . S
C1214 C1216 1.561 . S
C1214 C1217 1.526 . S
C1215 H1199 0.959 . S
C1215 H1200 0.959 . S
C1215 H1201 0.961 . S
C1215 C1214 1.502 . S
C1216 H1202 0.960 . S
C1216 H1203 0.961 . S
C1216 H1204 0.959 . S
C1216 C1214 1.561 . S
C1217 C1214 1.526 . S
C1217 C1218 1.396 . S
C1217 C1222 1.390 . S
C1218 C1212 1.465 . S
C1218 C1217 1.396 . S
C1218 C1219 1.399 . S
C1219 H1205 0.929 . S
C1219 C1218 1.399 . S
C1219 C1220 1.385 . S
C1220 H1206 0.931 . S
C1220 C1219 1.385 . S
C1220 C1221 1.389 . S
C1221 C1220 1.389 . S
C1221 C1222 1.387 . S
C1222 H1207 0.930 . S
C1222 C1217 1.390 . S
C1222 C1221 1.387 . S
H1223 C1235 0.930 . S
H1224 C1237 0.930 . S
H1225 C1238 0.930 . S
H1226 C1242 0.959 . S
H1227 C1242 0.959 . S
H1228 C1242 0.961 . S
H1229 C1243 0.960 . S
H1230 C1243 0.961 . S
H1231 C1243 0.959 . S
H1232 C1246 0.929 . S
H1233 C1247 0.931 . S
H1234 C1249 0.930 . S
C1235 H1223 0.930 . S
C1235 C1236 1.399 . S
C1235 C1240 1.399 . S
C1236 C1235 1.399 . S
C1236 C1237 1.376 . S
C1237 H1224 0.930 . S
C1237 C1236 1.376 . S
C1237 C1238 1.388 1_565 S
C1238 H1225 0.930 . S
C1238 C1237 1.388 1_545 S
C1238 C1239 1.390 . S
C1239 C1238 1.390 . S
C1239 C1240 1.394 1_545 S
C1239 C1245 1.465 . S
C1240 C1235 1.399 . S
C1240 C1239 1.394 1_565 S
C1240 C1241 1.516 . S
C1241 C1240 1.516 . S
C1241 C1242 1.502 . S
C1241 C1243 1.561 . S
C1241 C1244 1.526 1_565 S
C1242 H1226 0.959 . S
C1242 H1227 0.959 . S
C1242 H1228 0.961 . S
C1242 C1241 1.502 . S
C1243 H1229 0.960 . S
C1243 H1230 0.961 . S
C1243 H1231 0.959 . S
C1243 C1241 1.561 . S
C1244 C1241 1.526 1_545 S
C1244 C1245 1.396 . S
C1244 C1249 1.390 . S
C1245 C1239 1.465 . S
C1245 C1244 1.396 . S
C1245 C1246 1.399 . S
C1246 H1232 0.929 . S
C1246 C1245 1.399 . S
C1246 C1247 1.385 . S
C1247 H1233 0.931 . S
C1247 C1246 1.385 . S
C1247 C1248 1.389 . S
C1248 C1247 1.389 . S
C1248 C1249 1.387 . S
C1249 H1234 0.930 . S
C1249 C1244 1.390 . S
C1249 C1248 1.387 . S
H1250 C1262 0.930 . S
H1251 C1264 0.930 . S
H1252 C1265 0.930 . S
H1253 C1269 0.959 . S
H1254 C1269 0.959 . S
H1255 C1269 0.961 . S
H1256 C1270 0.960 . S
H1257 C1270 0.961 . S
H1258 C1270 0.959 . S
H1259 C1273 0.929 . S
H1260 C1274 0.931 . S
H1261 C1276 0.930 . S
C1262 H1250 0.930 . S
C1262 C1263 1.399 . S
C1262 C1267 1.399 . S
C1263 C1262 1.399 . S
C1263 C1264 1.376 . S
C1264 H1251 0.930 . S
C1264 C1263 1.376 . S
C1264 C1265 1.388 . S
C1265 H1252 0.930 . S
C1265 C1264 1.388 . S
C1265 C1266 1.390 . S
C1266 C1265 1.390 . S
C1266 C1267 1.394 . S
C1266 C1272 1.465 . S
C1267 C1262 1.399 . S
C1267 C1266 1.394 . S
C1267 C1268 1.516 . S
C1268 C1267 1.516 . S
C1268 C1269 1.502 . S
C1268 C1270 1.561 . S
C1268 C1271 1.526 . S
C1269 H1253 0.959 . S
C1269 H1254 0.959 . S
C1269 H1255 0.961 . S
C1269 C1268 1.502 . S
C1270 H1256 0.960 . S
C1270 H1257 0.961 . S
C1270 H1258 0.959 . S
C1270 C1268 1.561 . S
C1271 C1268 1.526 . S
C1271 C1272 1.396 . S
C1271 C1276 1.390 . S
C1272 C1266 1.465 . S
C1272 C1271 1.396 . S
C1272 C1273 1.399 . S
C1273 H1259 0.929 . S
C1273 C1272 1.399 . S
C1273 C1274 1.385 . S
C1274 H1260 0.931 . S
C1274 C1273 1.385 . S
C1274 C1275 1.389 . S
C1275 C1274 1.389 . S
C1275 C1276 1.387 . S
C1276 H1261 0.930 . S
C1276 C1271 1.390 . S
C1276 C1275 1.387 . S
H1277 C1289 0.930 . S
H1278 C1291 0.935 . S
H1279 C1292 0.930 . S
H1280 C1296 0.959 . S
H1281 C1296 0.959 . S
H1282 C1296 0.961 . S
H1283 C1297 0.960 . S
H1284 C1297 0.961 . S
H1285 C1297 0.959 . S
H1286 C1300 0.899 1_455 S
H1287 C1301 0.931 . S
H1288 C1303 0.930 1_554 S
C1289 H1277 0.930 . S
C1289 C1290 1.399 . S
C1289 C1294 1.399 . S
C1290 C1289 1.399 . S
C1290 C1291 1.376 . S
C1291 H1278 0.935 . S
C1291 C1290 1.376 . S
C1291 C1292 1.388 1_554 S
C1292 H1279 0.930 . S
C1292 C1291 1.388 1_556 S
C1292 C1293 1.390 . S
C1293 C1292 1.390 . S
C1293 C1294 1.394 1_556 S
C1293 C1299 1.436 1_465 S
C1294 C1289 1.399 . S
C1294 C1293 1.394 1_554 S
C1294 C1295 1.516 1_455 S
C1295 C1294 1.516 1_655 S
C1295 C1296 1.502 . S
C1295 C1297 1.561 1_565 S
C1295 C1298 1.535 1_565 S
C1296 H1280 0.959 . S
C1296 H1281 0.959 . S
C1296 H1282 0.961 . S
C1296 C1295 1.502 . S
C1297 H1283 0.960 . S
C1297 H1284 0.961 . S
C1297 H1285 0.959 . S
C1297 C1295 1.561 1_545 S
C1298 C1295 1.535 1_545 S
C1298 C1299 1.424 1_554 S
C1298 C1303 1.386 1_554 S
C1299 C1293 1.436 1_645 S
C1299 C1298 1.424 1_556 S
C1299 C1300 1.399 . S
C1300 H1286 0.899 1_655 S
C1300 C1299 1.399 . S
C1300 C1301 1.417 . S
C1301 H1287 0.931 . S
C1301 C1300 1.417 . S
C1301 C1302 1.389 . S
C1302 C1301 1.389 . S
C1302 C1303 1.387 . S
C1303 H1288 0.930 1_556 S
C1303 C1298 1.386 1_556 S
C1303 C1302 1.387 . S
H1304 C1316 0.930 . S
H1305 C1318 0.930 . S
H1306 C1319 0.930 . S
H1307 C1323 0.959 . S
H1308 C1323 0.959 . S
H1309 C1323 0.961 . S
H1310 C1324 0.960 . S
H1311 C1324 0.961 . S
H1312 C1324 0.959 . S
H1313 C1327 0.929 . S
H1314 C1328 0.931 . S
H1315 C1330 0.930 . S
C1316 H1304 0.930 . S
C1316 C1317 1.399 . S
C1316 C1321 1.399 . S
C1317 C1316 1.399 . S
C1317 C1318 1.376 . S
C1318 H1305 0.930 . S
C1318 C1317 1.376 . S
C1318 C1319 1.388 . S
C1319 H1306 0.930 . S
C1319 C1318 1.388 . S
C1319 C1320 1.390 . S
C1320 C1319 1.390 . S
C1320 C1321 1.394 . S
C1320 C1326 1.465 . S
C1321 C1316 1.399 . S
C1321 C1320 1.394 . S
C1321 C1322 1.516 . S
C1322 C1321 1.516 . S
C1322 C1323 1.502 . S
C1322 C1324 1.561 . S
C1322 C1325 1.526 . S
C1323 H1307 0.959 . S
C1323 H1308 0.959 . S
C1323 H1309 0.961 . S
C1323 C1322 1.502 . S
C1324 H1310 0.960 . S
C1324 H1311 0.961 . S
C1324 H1312 0.959 . S
C1324 C1322 1.561 . S
C1325 C1322 1.526 . S
C1325 C1326 1.396 . S
C1325 C1330 1.390 . S
C1326 C1320 1.465 . S
C1326 C1325 1.396 . S
C1326 C1327 1.399 . S
C1327 H1313 0.929 . S
C1327 C1326 1.399 . S
C1327 C1328 1.385 . S
C1328 H1314 0.931 . S
C1328 C1327 1.385 . S
C1328 C1329 1.389 . S
C1329 C1328 1.389 . S
C1329 C1330 1.387 . S
C1330 H1315 0.930 . S
C1330 C1325 1.390 . S
C1330 C1329 1.387 . S
H1331 C1343 0.930 . S
H1332 C1345 0.930 . S
H1333 C1346 0.930 . S
H1334 C1350 0.959 . S
H1335 C1350 0.959 . S
H1336 C1350 0.961 . S
H1337 C1351 0.960 . S
H1338 C1351 0.961 . S
H1339 C1351 0.959 . S
H1340 C1354 0.929 . S
H1341 C1355 0.931 . S
H1342 C1357 0.930 . S
C1343 H1331 0.930 . S
C1343 C1344 1.399 . S
C1343 C1348 1.399 . S
C1344 C1343 1.399 . S
C1344 C1345 1.376 . S
C1345 H1332 0.930 . S
C1345 C1344 1.376 . S
C1345 C1346 1.388 . S
C1346 H1333 0.930 . S
C1346 C1345 1.388 . S
C1346 C1347 1.390 . S
C1347 C1346 1.390 . S
C1347 C1348 1.394 . S
C1347 C1353 1.465 . S
C1348 C1343 1.399 . S
C1348 C1347 1.394 . S
C1348 C1349 1.516 . S
C1349 C1348 1.516 . S
C1349 C1350 1.502 . S
C1349 C1351 1.561 . S
C1349 C1352 1.526 . S
C1350 H1334 0.959 . S
C1350 H1335 0.959 . S
C1350 H1336 0.961 . S
C1350 C1349 1.502 . S
C1351 H1337 0.960 . S
C1351 H1338 0.961 . S
C1351 H1339 0.959 . S
C1351 C1349 1.561 . S
C1352 C1349 1.526 . S
C1352 C1353 1.396 . S
C1352 C1357 1.390 . S
C1353 C1347 1.465 . S
C1353 C1352 1.396 . S
C1353 C1354 1.399 . S
C1354 H1340 0.929 . S
C1354 C1353 1.399 . S
C1354 C1355 1.385 . S
C1355 H1341 0.931 . S
C1355 C1354 1.385 . S
C1355 C1356 1.389 . S
C1356 C1355 1.389 . S
C1356 C1357 1.387 . S
C1357 H1342 0.930 . S
C1357 C1352 1.390 . S
C1357 C1356 1.387 . S
H1358 C1370 0.930 . S
H1359 C1372 0.930 . S
H1360 C1373 0.930 . S
H1361 C1377 0.959 . S
H1362 C1377 0.959 . S
H1363 C1377 0.961 . S
H1364 C1378 0.960 . S
H1365 C1378 0.961 . S
H1366 C1378 0.959 . S
H1367 C1381 0.929 . S
H1368 C1382 0.931 . S
H1369 C1384 0.930 . S
C1370 H1358 0.930 . S
C1370 C1371 1.399 . S
C1370 C1375 1.399 . S
C1371 C1370 1.399 . S
C1371 C1372 1.376 . S
C1372 H1359 0.930 . S
C1372 C1371 1.376 . S
C1372 C1373 1.388 . S
C1373 H1360 0.930 . S
C1373 C1372 1.388 . S
C1373 C1374 1.390 . S
C1374 C1373 1.390 . S
C1374 C1375 1.394 . S
C1374 C1380 1.465 . S
C1375 C1370 1.399 . S
C1375 C1374 1.394 . S
C1375 C1376 1.516 . S
C1376 C1375 1.516 . S
C1376 C1377 1.502 . S
C1376 C1378 1.561 . S
C1376 C1379 1.526 . S
C1377 H1361 0.959 . S
C1377 H1362 0.959 . S
C1377 H1363 0.961 . S
C1377 C1376 1.502 . S
C1378 H1364 0.960 . S
C1378 H1365 0.961 . S
C1378 H1366 0.959 . S
C1378 C1376 1.561 . S
C1379 C1376 1.526 . S
C1379 C1380 1.396 . S
C1379 C1384 1.390 . S
C1380 C1374 1.465 . S
C1380 C1379 1.396 . S
C1380 C1381 1.399 . S
C1381 H1367 0.929 . S
C1381 C1380 1.399 . S
C1381 C1382 1.385 . S
C1382 H1368 0.931 . S
C1382 C1381 1.385 . S
C1382 C1383 1.389 . S
C1383 C1382 1.389 . S
C1383 C1384 1.387 . S
C1384 H1369 0.930 . S
C1384 C1379 1.390 . S
C1384 C1383 1.387 . S
H1385 C1397 0.930 . S
H1386 C1399 0.930 . S
H1387 C1400 0.930 . S
H1388 C1404 0.959 . S
H1389 C1404 0.959 . S
H1390 C1404 0.961 . S
H1391 C1405 0.960 . S
H1392 C1405 0.961 . S
H1393 C1405 0.959 . S
H1394 C1408 0.929 . S
H1395 C1409 0.931 . S
H1396 C1411 0.930 . S
C1397 H1385 0.930 . S
C1397 C1398 1.399 . S
C1397 C1402 1.399 . S
C1398 C1397 1.399 . S
C1398 C1399 1.376 . S
C1399 H1386 0.930 . S
C1399 C1398 1.376 . S
C1399 C1400 1.388 . S
C1400 H1387 0.930 . S
C1400 C1399 1.388 . S
C1400 C1401 1.390 . S
C1401 C1400 1.390 . S
C1401 C1402 1.394 . S
C1401 C1407 1.465 . S
C1402 C1397 1.399 . S
C1402 C1401 1.394 . S
C1402 C1403 1.516 . S
C1403 C1402 1.516 . S
C1403 C1404 1.502 . S
C1403 C1405 1.561 . S
C1403 C1406 1.526 . S
C1404 H1388 0.959 . S
C1404 H1389 0.959 . S
C1404 H1390 0.961 . S
C1404 C1403 1.502 . S
C1405 H1391 0.960 . S
C1405 H1392 0.961 . S
C1405 H1393 0.959 . S
C1405 C1403 1.561 . S
C1406 C1403 1.526 . S
C1406 C1407 1.396 . S
C1406 C1411 1.390 . S
C1407 C1401 1.465 . S
C1407 C1406 1.396 . S
C1407 C1408 1.399 . S
C1408 H1394 0.929 . S
C1408 C1407 1.399 . S
C1408 C1409 1.385 . S
C1409 H1395 0.931 . S
C1409 C1408 1.385 . S
C1409 C1410 1.389 . S
C1410 C1409 1.389 . S
C1410 C1411 1.387 . S
C1411 H1396 0.930 . S
C1411 C1406 1.390 . S
C1411 C1410 1.387 . S
H1412 C1424 0.933 1_554 S
H1413 C1426 0.930 . S
H1414 C1427 0.930 . S
H1415 C1431 0.959 . S
H1416 C1431 0.959 . S
H1417 C1431 0.961 . S
H1418 C1432 0.960 . S
H1419 C1432 0.961 . S
H1420 C1432 0.959 1_556 S
H1421 C1435 0.929 . S
H1422 C1436 0.949 . S
H1423 C1438 0.930 . S
C1424 H1412 0.933 1_556 S
C1424 C1425 1.399 . S
C1424 C1429 1.399 . S
C1425 C1424 1.399 . S
C1425 C1426 1.376 . S
C1426 H1413 0.930 . S
C1426 C1425 1.376 . S
C1426 C1427 1.388 . S
C1427 H1414 0.930 . S
C1427 C1426 1.388 . S
C1427 C1428 1.390 . S
C1428 C1427 1.390 . S
C1428 C1429 1.394 . S
C1428 C1434 1.465 . S
C1429 C1424 1.399 . S
C1429 C1428 1.394 . S
C1429 C1430 1.516 1_556 S
C1430 C1429 1.516 1_554 S
C1430 C1431 1.502 . S
C1430 C1432 1.561 . S
C1430 C1433 1.526 . S
C1431 H1415 0.959 . S
C1431 H1416 0.959 . S
C1431 H1417 0.961 . S
C1431 C1430 1.502 . S
C1432 H1418 0.960 . S
C1432 H1419 0.961 . S
C1432 H1420 0.959 1_554 S
C1432 C1430 1.561 . S
C1433 C1430 1.526 . S
C1433 C1434 1.396 1_554 S
C1433 C1438 1.390 . S
C1434 C1428 1.465 . S
C1434 C1433 1.396 1_556 S
C1434 C1435 1.399 . S
C1435 H1421 0.929 . S
C1435 C1434 1.399 . S
C1435 C1436 1.385 1_556 S
C1436 H1422 0.949 . S
C1436 C1435 1.385 1_554 S
C1436 C1437 1.389 . S
C1437 C1436 1.389 . S
C1437 C1438 1.387 . S
C1438 H1423 0.930 . S
C1438 C1433 1.390 . S
C1438 C1437 1.387 . S
H1439 C1451 0.930 . S
H1440 C1453 0.930 . S
H1441 C1454 0.930 . S
H1442 C1458 0.959 . S
H1443 C1458 0.959 . S
H1444 C1458 0.961 . S
H1445 C1459 0.960 . S
H1446 C1459 0.961 1_655 S
H1447 C1459 0.959 . S
H1448 C1462 0.929 1_455 S
H1449 C1463 0.931 . S
H1450 C1465 0.930 . S
C1451 H1439 0.930 . S
C1451 C1452 1.399 . S
C1451 C1456 1.399 . S
C1452 C1451 1.399 . S
C1452 C1453 1.376 . S
C1453 H1440 0.930 . S
C1453 C1452 1.376 . S
C1453 C1454 1.388 . S
C1454 H1441 0.930 . S
C1454 C1453 1.388 . S
C1454 C1455 1.390 . S
C1455 C1454 1.390 . S
C1455 C1456 1.394 . S
C1455 C1461 1.465 1_455 S
C1456 C1451 1.399 . S
C1456 C1455 1.394 . S
C1456 C1457 1.516 1_455 S
C1457 C1456 1.516 1_655 S
C1457 C1458 1.502 . S
C1457 C1459 1.561 1_655 S
C1457 C1460 1.526 . S
C1458 H1442 0.959 . S
C1458 H1443 0.959 . S
C1458 H1444 0.961 . S
C1458 C1457 1.502 . S
C1459 H1445 0.960 . S
C1459 H1446 0.961 1_455 S
C1459 H1447 0.959 . S
C1459 C1457 1.561 1_455 S
C1460 C1457 1.526 . S
C1460 C1461 1.396 . S
C1460 C1465 1.390 . S
C1461 C1455 1.465 1_655 S
C1461 C1460 1.396 . S
C1461 C1462 1.399 . S
C1462 H1448 0.929 1_655 S
C1462 C1461 1.399 . S
C1462 C1463 1.385 . S
C1463 H1449 0.931 . S
C1463 C1462 1.385 . S
C1463 C1464 1.389 . S
C1464 C1463 1.389 . S
C1464 C1465 1.387 . S
C1465 H1450 0.930 . S
C1465 C1460 1.390 . S
C1465 C1464 1.387 . S
H1466 C1478 0.930 . S
H1467 C1480 0.930 . S
H1468 C1481 0.930 . S
H1469 C1485 0.959 . S
H1470 C1485 0.959 . S
H1471 C1485 0.961 . S
H1472 C1486 0.960 . S
H1473 C1486 0.961 . S
H1474 C1486 0.959 . S
H1475 C1489 0.929 . S
H1476 C1490 0.931 . S
H1477 C1492 0.930 1_556 S
C1478 H1466 0.930 . S
C1478 C1479 1.399 . S
C1478 C1483 1.399 . S
C1479 C1478 1.399 . S
C1479 C1480 1.376 . S
C1480 H1467 0.930 . S
C1480 C1479 1.376 . S
C1480 C1481 1.388 1_556 S
C1481 H1468 0.930 . S
C1481 C1480 1.388 1_554 S
C1481 C1482 1.390 . S
C1482 C1481 1.390 . S
C1482 C1483 1.394 1_554 S
C1482 C1488 1.465 1_455 S
C1483 C1478 1.399 . S
C1483 C1482 1.394 1_556 S
C1483 C1484 1.495 1_455 S
C1484 C1483 1.495 1_655 S
C1484 C1485 1.481 1_655 S
C1484 C1486 1.586 . S
C1484 C1487 1.547 . S
C1485 H1469 0.959 . S
C1485 H1470 0.959 . S
C1485 H1471 0.961 . S
C1485 C1484 1.481 1_455 S
C1486 H1472 0.960 . S
C1486 H1473 0.961 . S
C1486 H1474 0.959 . S
C1486 C1484 1.586 . S
C1487 C1484 1.547 . S
C1487 C1488 1.396 1_556 S
C1487 C1492 1.390 1_556 S
C1488 C1482 1.465 1_655 S
C1488 C1487 1.396 1_554 S
C1488 C1489 1.399 . S
C1489 H1475 0.929 . S
C1489 C1488 1.399 . S
C1489 C1490 1.385 . S
C1490 H1476 0.931 . S
C1490 C1489 1.385 . S
C1490 C1491 1.389 . S
C1491 C1490 1.389 . S
C1491 C1492 1.387 . S
C1492 H1477 0.930 1_554 S
C1492 C1487 1.390 1_554 S
C1492 C1491 1.387 . S
H1493 C1505 0.930 . S
H1494 C1507 0.930 . S
H1495 C1508 0.930 . S
H1496 C1512 0.959 . S
H1497 C1512 0.959 . S
H1498 C1512 0.961 . S
H1499 C1513 0.960 . S
H1500 C1513 0.961 . S
H1501 C1513 0.959 . S
H1502 C1516 0.929 . S
H1503 C1517 0.931 . S
H1504 C1519 0.930 . S
C1505 H1493 0.930 . S
C1505 C1506 1.399 . S
C1505 C1510 1.399 . S
C1506 C1505 1.399 . S
C1506 C1507 1.376 . S
C1507 H1494 0.930 . S
C1507 C1506 1.376 . S
C1507 C1508 1.388 . S
C1508 H1495 0.930 . S
C1508 C1507 1.388 . S
C1508 C1509 1.390 . S
C1509 C1508 1.390 . S
C1509 C1510 1.394 . S
C1509 C1515 1.465 . S
C1510 C1505 1.399 . S
C1510 C1509 1.394 . S
C1510 C1511 1.516 . S
C1511 C1510 1.516 . S
C1511 C1512 1.502 . S
C1511 C1513 1.561 . S
C1511 C1514 1.526 . S
C1512 H1496 0.959 . S
C1512 H1497 0.959 . S
C1512 H1498 0.961 . S
C1512 C1511 1.502 . S
C1513 H1499 0.960 . S
C1513 H1500 0.961 . S
C1513 H1501 0.959 . S
C1513 C1511 1.561 . S
C1514 C1511 1.526 . S
C1514 C1515 1.396 . S
C1514 C1519 1.390 . S
C1515 C1509 1.465 . S
C1515 C1514 1.396 . S
C1515 C1516 1.399 . S
C1516 H1502 0.929 . S
C1516 C1515 1.399 . S
C1516 C1517 1.385 . S
C1517 H1503 0.931 . S
C1517 C1516 1.385 . S
C1517 C1518 1.389 . S
C1518 C1517 1.389 . S
C1518 C1519 1.387 . S
C1519 H1504 0.930 . S
C1519 C1514 1.390 . S
C1519 C1518 1.387 . S
H1520 C1532 0.930 . S
H1521 C1534 0.930 . S
H1522 C1535 0.930 . S
H1523 C1539 0.959 . S
H1524 C1539 0.959 . S
H1525 C1539 0.961 . S
H1526 C1540 0.960 . S
H1527 C1540 0.961 . S
H1528 C1540 0.959 . S
H1529 C1543 0.929 . S
H1530 C1544 0.931 . S
H1531 C1546 0.930 . S
C1532 H1520 0.930 . S
C1532 C1533 1.399 . S
C1532 C1537 1.399 . S
C1533 C1532 1.399 . S
C1533 C1534 1.376 . S
C1534 H1521 0.930 . S
C1534 C1533 1.376 . S
C1534 C1535 1.388 . S
C1535 H1522 0.930 . S
C1535 C1534 1.388 . S
C1535 C1536 1.390 . S
C1536 C1535 1.390 . S
C1536 C1537 1.394 . S
C1536 C1542 1.465 . S
C1537 C1532 1.399 . S
C1537 C1536 1.394 . S
C1537 C1538 1.516 . S
C1538 C1537 1.516 . S
C1538 C1539 1.502 . S
C1538 C1540 1.561 . S
C1538 C1541 1.526 . S
C1539 H1523 0.959 . S
C1539 H1524 0.959 . S
C1539 H1525 0.961 . S
C1539 C1538 1.502 . S
C1540 H1526 0.960 . S
C1540 H1527 0.961 . S
C1540 H1528 0.959 . S
C1540 C1538 1.561 . S
C1541 C1538 1.526 . S
C1541 C1542 1.396 . S
C1541 C1546 1.390 . S
C1542 C1536 1.465 . S
C1542 C1541 1.396 . S
C1542 C1543 1.399 . S
C1543 H1529 0.929 . S
C1543 C1542 1.399 . S
C1543 C1544 1.385 . S
C1544 H1530 0.931 . S
C1544 C1543 1.385 . S
C1544 C1545 1.389 . S
C1545 C1544 1.389 . S
C1545 C1546 1.387 . S
C1546 H1531 0.930 . S
C1546 C1541 1.390 . S
C1546 C1545 1.387 . S
H1547 C1559 0.930 . S
H1548 C1561 0.930 . S
H1549 C1562 0.911 1_455 S
H1550 C1566 0.959 . S
H1551 C1566 0.959 . S
H1552 C1566 0.961 . S
H1553 C1567 0.960 1_655 S
H1554 C1567 0.961 . S
H1555 C1567 0.959 . S
H1556 C1570 0.929 . S
H1557 C1571 0.931 . S
H1558 C1573 0.930 . S
C1559 H1547 0.930 . S
C1559 C1560 1.399 . S
C1559 C1564 1.399 . S
C1560 C1559 1.399 . S
C1560 C1561 1.376 . S
C1561 H1548 0.930 . S
C1561 C1560 1.376 . S
C1561 C1562 1.414 . S
C1562 H1549 0.911 1_655 S
C1562 C1561 1.414 . S
C1562 C1563 1.385 1_655 S
C1563 C1562 1.385 1_455 S
C1563 C1564 1.394 1_455 S
C1563 C1569 1.465 . S
C1564 C1559 1.399 . S
C1564 C1563 1.394 1_655 S
C1564 C1565 1.516 . S
C1565 C1564 1.516 . S
C1565 C1566 1.502 . S
C1565 C1567 1.561 1_655 S
C1565 C1568 1.526 1_655 S
C1566 H1550 0.959 . S
C1566 H1551 0.959 . S
C1566 H1552 0.961 . S
C1566 C1565 1.502 . S
C1567 H1553 0.960 1_455 S
C1567 H1554 0.961 . S
C1567 H1555 0.959 . S
C1567 C1565 1.561 1_455 S
C1568 C1565 1.526 1_455 S
C1568 C1569 1.396 . S
C1568 C1573 1.390 . S
C1569 C1563 1.465 . S
C1569 C1568 1.396 . S
C1569 C1570 1.399 . S
C1570 H1556 0.929 . S
C1570 C1569 1.399 . S
C1570 C1571 1.385 . S
C1571 H1557 0.931 . S
C1571 C1570 1.385 . S
C1571 C1572 1.389 . S
C1572 C1571 1.389 . S
C1572 C1573 1.387 . S
C1573 H1558 0.930 . S
C1573 C1568 1.390 . S
C1573 C1572 1.387 . S
H1574 C1586 0.930 . S
H1575 C1588 0.930 . S
H1576 C1589 0.930 . S
H1577 C1593 0.959 . S
H1578 C1593 0.959 . S
H1579 C1593 0.961 . S
H1580 C1594 0.960 . S
H1581 C1594 0.961 . S
H1582 C1594 0.959 . S
H1583 C1597 0.929 . S
H1584 C1598 0.931 . S
H1585 C1600 0.930 . S
C1586 H1574 0.930 . S
C1586 C1587 1.399 . S
C1586 C1591 1.399 . S
C1587 C1586 1.399 . S
C1587 C1588 1.376 . S
C1588 H1575 0.930 . S
C1588 C1587 1.376 . S
C1588 C1589 1.388 . S
C1589 H1576 0.930 . S
C1589 C1588 1.388 . S
C1589 C1590 1.390 . S
C1590 C1589 1.390 . S
C1590 C1591 1.394 . S
C1590 C1596 1.465 . S
C1591 C1586 1.399 . S
C1591 C1590 1.394 . S
C1591 C1592 1.516 . S
C1592 C1591 1.516 . S
C1592 C1593 1.502 . S
C1592 C1594 1.561 . S
C1592 C1595 1.526 . S
C1593 H1577 0.959 . S
C1593 H1578 0.959 . S
C1593 H1579 0.961 . S
C1593 C1592 1.502 . S
C1594 H1580 0.960 . S
C1594 H1581 0.961 . S
C1594 H1582 0.959 . S
C1594 C1592 1.561 . S
C1595 C1592 1.526 . S
C1595 C1596 1.396 . S
C1595 C1600 1.390 . S
C1596 C1590 1.465 . S
C1596 C1595 1.396 . S
C1596 C1597 1.399 . S
C1597 H1583 0.929 . S
C1597 C1596 1.399 . S
C1597 C1598 1.385 . S
C1598 H1584 0.931 . S
C1598 C1597 1.385 . S
C1598 C1599 1.389 . S
C1599 C1598 1.389 . S
C1599 C1600 1.387 . S
C1600 H1585 0.930 . S
C1600 C1595 1.390 . S
C1600 C1599 1.387 . S
H1601 C1613 0.930 . S
H1602 C1615 0.930 . S
H1603 C1616 0.930 . S
H1604 C1620 0.959 . S
H1605 C1620 0.959 . S
H1606 C1620 0.961 . S
H1607 C1621 0.960 . S
H1608 C1621 0.961 . S
H1609 C1621 0.959 . S
H1610 C1624 0.929 . S
H1611 C1625 0.931 . S
H1612 C1627 0.930 . S
C1613 H1601 0.930 . S
C1613 C1614 1.399 . S
C1613 C1618 1.399 . S
C1614 C1613 1.399 . S
C1614 C1615 1.376 . S
C1615 H1602 0.930 . S
C1615 C1614 1.376 . S
C1615 C1616 1.388 . S
C1616 H1603 0.930 . S
C1616 C1615 1.388 . S
C1616 C1617 1.390 . S
C1617 C1616 1.390 . S
C1617 C1618 1.394 . S
C1617 C1623 1.465 . S
C1618 C1613 1.399 . S
C1618 C1617 1.394 . S
C1618 C1619 1.516 . S
C1619 C1618 1.516 . S
C1619 C1620 1.502 . S
C1619 C1621 1.561 . S
C1619 C1622 1.526 . S
C1620 H1604 0.959 . S
C1620 H1605 0.959 . S
C1620 H1606 0.961 . S
C1620 C1619 1.502 . S
C1621 H1607 0.960 . S
C1621 H1608 0.961 . S
C1621 H1609 0.959 . S
C1621 C1619 1.561 . S
C1622 C1619 1.526 . S
C1622 C1623 1.396 . S
C1622 C1627 1.390 . S
C1623 C1617 1.465 . S
C1623 C1622 1.396 . S
C1623 C1624 1.399 . S
C1624 H1610 0.929 . S
C1624 C1623 1.399 . S
C1624 C1625 1.385 . S
C1625 H1611 0.931 . S
C1625 C1624 1.385 . S
C1625 C1626 1.389 . S
C1626 C1625 1.389 . S
C1626 C1627 1.387 . S
C1627 H1612 0.930 . S
C1627 C1622 1.390 . S
C1627 C1626 1.387 . S
H1628 C1640 0.930 . S
H1629 C1642 0.930 . S
H1630 C1643 0.930 . S
H1631 C1647 0.959 . S
H1632 C1647 0.959 . S
H1633 C1647 0.961 . S
H1634 C1648 0.960 . S
H1635 C1648 0.961 . S
H1636 C1648 0.959 . S
H1637 C1651 0.929 . S
H1638 C1652 0.931 . S
H1639 C1654 0.930 . S
C1640 H1628 0.930 . S
C1640 C1641 1.399 . S
C1640 C1645 1.399 . S
C1641 C1640 1.399 . S
C1641 C1642 1.376 . S
C1642 H1629 0.930 . S
C1642 C1641 1.376 . S
C1642 C1643 1.388 . S
C1643 H1630 0.930 . S
C1643 C1642 1.388 . S
C1643 C1644 1.390 . S
C1644 C1643 1.390 . S
C1644 C1645 1.394 . S
C1644 C1650 1.465 . S
C1645 C1640 1.399 . S
C1645 C1644 1.394 . S
C1645 C1646 1.516 . S
C1646 C1645 1.516 . S
C1646 C1647 1.502 . S
C1646 C1648 1.561 . S
C1646 C1649 1.526 . S
C1647 H1631 0.959 . S
C1647 H1632 0.959 . S
C1647 H1633 0.961 . S
C1647 C1646 1.502 . S
C1648 H1634 0.960 . S
C1648 H1635 0.961 . S
C1648 H1636 0.959 . S
C1648 C1646 1.561 . S
C1649 C1646 1.526 . S
C1649 C1650 1.396 . S
C1649 C1654 1.390 . S
C1650 C1644 1.465 . S
C1650 C1649 1.396 . S
C1650 C1651 1.399 . S
C1651 H1637 0.929 . S
C1651 C1650 1.399 . S
C1651 C1652 1.385 . S
C1652 H1638 0.931 . S
C1652 C1651 1.385 . S
C1652 C1653 1.389 . S
C1653 C1652 1.389 . S
C1653 C1654 1.387 . S
C1654 H1639 0.930 . S
C1654 C1649 1.390 . S
C1654 C1653 1.387 . S
H1655 C1667 0.930 . S
H1656 C1669 0.930 . S
H1657 C1670 0.930 . S
H1658 C1674 0.959 . S
H1659 C1674 0.959 . S
H1660 C1674 0.961 . S
H1661 C1675 0.960 . S
H1662 C1675 0.961 . S
H1663 C1675 0.959 . S
H1664 C1678 0.929 . S
H1665 C1679 0.931 . S
H1666 C1681 0.930 . S
C1667 H1655 0.930 . S
C1667 C1668 1.399 . S
C1667 C1672 1.399 . S
C1668 C1667 1.399 . S
C1668 C1669 1.376 . S
C1669 H1656 0.930 . S
C1669 C1668 1.376 . S
C1669 C1670 1.388 . S
C1670 H1657 0.930 . S
C1670 C1669 1.388 . S
C1670 C1671 1.390 . S
C1671 C1670 1.390 . S
C1671 C1672 1.394 . S
C1671 C1677 1.465 . S
C1672 C1667 1.399 . S
C1672 C1671 1.394 . S
C1672 C1673 1.516 . S
C1673 C1672 1.516 . S
C1673 C1674 1.502 . S
C1673 C1675 1.561 . S
C1673 C1676 1.526 . S
C1674 H1658 0.959 . S
C1674 H1659 0.959 . S
C1674 H1660 0.961 . S
C1674 C1673 1.502 . S
C1675 H1661 0.960 . S
C1675 H1662 0.961 . S
C1675 H1663 0.959 . S
C1675 C1673 1.561 . S
C1676 C1673 1.526 . S
C1676 C1677 1.396 . S
C1676 C1681 1.390 . S
C1677 C1671 1.465 . S
C1677 C1676 1.396 . S
C1677 C1678 1.399 . S
C1678 H1664 0.929 . S
C1678 C1677 1.399 . S
C1678 C1679 1.385 . S
C1679 H1665 0.931 . S
C1679 C1678 1.385 . S
C1679 C1680 1.389 . S
C1680 C1679 1.389 . S
C1680 C1681 1.387 . S
C1681 H1666 0.930 . S
C1681 C1676 1.390 . S
C1681 C1680 1.387 . S
H1682 C1694 0.930 . S
H1683 C1696 0.930 . S
H1684 C1697 0.930 . S
H1685 C1701 0.959 . S
H1686 C1701 0.959 . S
H1687 C1701 0.961 . S
H1688 C1702 0.960 . S
H1689 C1702 0.961 . S
H1690 C1702 0.959 . S
H1691 C1705 0.929 . S
H1692 C1706 0.931 . S
H1693 C1708 0.930 . S
C1694 H1682 0.930 . S
C1694 C1695 1.399 . S
C1694 C1699 1.399 . S
C1695 C1694 1.399 . S
C1695 C1696 1.376 . S
C1696 H1683 0.930 . S
C1696 C1695 1.376 . S
C1696 C1697 1.388 . S
C1697 H1684 0.930 . S
C1697 C1696 1.388 . S
C1697 C1698 1.390 . S
C1698 C1697 1.390 . S
C1698 C1699 1.394 . S
C1698 C1704 1.465 . S
C1699 C1694 1.399 . S
C1699 C1698 1.394 . S
C1699 C1700 1.516 . S
C1700 C1699 1.516 . S
C1700 C1701 1.502 . S
C1700 C1702 1.561 . S
C1700 C1703 1.526 . S
C1701 H1685 0.959 . S
C1701 H1686 0.959 . S
C1701 H1687 0.961 . S
C1701 C1700 1.502 . S
C1702 H1688 0.960 . S
C1702 H1689 0.961 . S
C1702 H1690 0.959 . S
C1702 C1700 1.561 . S
C1703 C1700 1.526 . S
C1703 C1704 1.396 . S
C1703 C1708 1.390 . S
C1704 C1698 1.465 . S
C1704 C1703 1.396 . S
C1704 C1705 1.399 . S
C1705 H1691 0.929 . S
C1705 C1704 1.399 . S
C1705 C1706 1.385 . S
C1706 H1692 0.931 . S
C1706 C1705 1.385 . S
C1706 C1707 1.389 . S
C1707 C1706 1.389 . S
C1707 C1708 1.387 . S
C1708 H1693 0.930 . S
C1708 C1703 1.390 . S
C1708 C1707 1.387 . S
H1709 C1721 0.930 . S
H1710 C1723 0.930 . S
H1711 C1724 0.930 1_455 S
H1712 C1728 0.959 . S
H1713 C1728 0.959 . S
H1714 C1728 0.961 . S
H1715 C1729 0.960 1_655 S
H1716 C1729 0.961 . S
H1717 C1729 0.959 . S
H1718 C1732 0.929 . S
H1719 C1733 0.931 . S
H1720 C1735 0.930 . S
C1721 H1709 0.930 . S
C1721 C1722 1.399 . S
C1721 C1726 1.399 . S
C1722 C1721 1.399 . S
C1722 C1723 1.376 . S
C1723 H1710 0.930 . S
C1723 C1722 1.376 . S
C1723 C1724 1.388 . S
C1724 H1711 0.930 1_655 S
C1724 C1723 1.388 . S
C1724 C1725 1.390 1_655 S
C1725 C1724 1.390 1_455 S
C1725 C1726 1.394 1_455 S
C1725 C1731 1.465 . S
C1726 C1721 1.399 . S
C1726 C1725 1.394 1_655 S
C1726 C1727 1.516 . S
C1727 C1726 1.516 . S
C1727 C1728 1.502 . S
C1727 C1729 1.561 1_655 S
C1727 C1730 1.526 1_655 S
C1728 H1712 0.959 . S
C1728 H1713 0.959 . S
C1728 H1714 0.961 . S
C1728 C1727 1.502 . S
C1729 H1715 0.960 1_455 S
C1729 H1716 0.961 . S
C1729 H1717 0.959 . S
C1729 C1727 1.561 1_455 S
C1730 C1727 1.526 1_455 S
C1730 C1731 1.396 . S
C1730 C1735 1.390 . S
C1731 C1725 1.465 . S
C1731 C1730 1.396 . S
C1731 C1732 1.399 . S
C1732 H1718 0.929 . S
C1732 C1731 1.399 . S
C1732 C1733 1.385 . S
C1733 H1719 0.931 . S
C1733 C1732 1.385 . S
C1733 C1734 1.389 . S
C1734 C1733 1.389 . S
C1734 C1735 1.387 . S
C1735 H1720 0.930 . S
C1735 C1730 1.390 . S
C1735 C1734 1.387 . S
H1736 C1748 0.930 . S
H1737 C1750 0.930 . S
H1738 C1751 0.930 . S
H1739 C1755 0.959 . S
H1740 C1755 0.959 . S
H1741 C1755 0.961 . S
H1742 C1756 0.960 . S
H1743 C1756 0.961 . S
H1744 C1756 0.959 . S
H1745 C1759 0.929 . S
H1746 C1760 0.931 . S
H1747 C1762 0.930 . S
C1748 H1736 0.930 . S
C1748 C1749 1.399 . S
C1748 C1753 1.399 . S
C1749 C1748 1.399 . S
C1749 C1750 1.376 . S
C1750 H1737 0.930 . S
C1750 C1749 1.376 . S
C1750 C1751 1.388 . S
C1751 H1738 0.930 . S
C1751 C1750 1.388 . S
C1751 C1752 1.390 . S
C1752 C1751 1.390 . S
C1752 C1753 1.394 . S
C1752 C1758 1.465 . S
C1753 C1748 1.399 . S
C1753 C1752 1.394 . S
C1753 C1754 1.516 . S
C1754 C1753 1.516 . S
C1754 C1755 1.502 . S
C1754 C1756 1.561 . S
C1754 C1757 1.526 . S
C1755 H1739 0.959 . S
C1755 H1740 0.959 . S
C1755 H1741 0.961 . S
C1755 C1754 1.502 . S
C1756 H1742 0.960 . S
C1756 H1743 0.961 . S
C1756 H1744 0.959 . S
C1756 C1754 1.561 . S
C1757 C1754 1.526 . S
C1757 C1758 1.396 . S
C1757 C1762 1.390 . S
C1758 C1752 1.465 . S
C1758 C1757 1.396 . S
C1758 C1759 1.399 . S
C1759 H1745 0.929 . S
C1759 C1758 1.399 . S
C1759 C1760 1.385 . S
C1760 H1746 0.931 . S
C1760 C1759 1.385 . S
C1760 C1761 1.389 . S
C1761 C1760 1.389 . S
C1761 C1762 1.387 . S
C1762 H1747 0.930 . S
C1762 C1757 1.390 . S
C1762 C1761 1.387 . S
H1763 C1775 0.930 . S
H1764 C1777 0.930 . S
H1765 C1778 0.930 . S
H1766 C1782 0.959 . S
H1767 C1782 0.959 . S
H1768 C1782 0.961 . S
H1769 C1783 0.960 1_455 S
H1770 C1783 0.961 . S
H1771 C1783 0.959 1_455 S
H1772 C1786 0.929 . S
H1773 C1787 0.931 . S
H1774 C1789 0.930 . S
C1775 H1763 0.930 . S
C1775 C1776 1.399 . S
C1775 C1780 1.399 . S
C1776 C1775 1.399 . S
C1776 C1777 1.376 . S
C1777 H1764 0.930 . S
C1777 C1776 1.376 . S
C1777 C1778 1.388 . S
C1778 H1765 0.930 . S
C1778 C1777 1.388 . S
C1778 C1779 1.390 . S
C1779 C1778 1.390 . S
C1779 C1780 1.394 . S
C1779 C1785 1.465 1_455 S
C1780 C1775 1.399 . S
C1780 C1779 1.394 . S
C1780 C1781 1.516 1_455 S
C1781 C1780 1.516 1_655 S
C1781 C1782 1.502 . S
C1781 C1783 1.561 . S
C1781 C1784 1.526 . S
C1782 H1766 0.959 . S
C1782 H1767 0.959 . S
C1782 H1768 0.961 . S
C1782 C1781 1.502 . S
C1783 H1769 0.960 1_655 S
C1783 H1770 0.961 . S
C1783 H1771 0.959 1_655 S
C1783 C1781 1.561 . S
C1784 C1781 1.526 . S
C1784 C1785 1.396 . S
C1784 C1789 1.390 . S
C1785 C1779 1.465 1_655 S
C1785 C1784 1.396 . S
C1785 C1786 1.399 . S
C1786 H1772 0.929 . S
C1786 C1785 1.399 . S
C1786 C1787 1.385 . S
C1787 H1773 0.931 . S
C1787 C1786 1.385 . S
C1787 C1788 1.389 . S
C1788 C1787 1.389 . S
C1788 C1789 1.387 . S
C1789 H1774 0.930 . S
C1789 C1784 1.390 . S
C1789 C1788 1.387 . S
H1790 C1802 0.930 . S
H1791 C1804 0.930 . S
H1792 C1805 0.930 . S
H1793 C1809 0.959 . S
H1794 C1809 0.959 . S
H1795 C1809 0.961 . S
H1796 C1810 0.960 . S
H1797 C1810 0.961 . S
H1798 C1810 0.959 . S
H1799 C1813 0.929 . S
H1800 C1814 0.931 . S
H1801 C1816 0.930 . S
C1802 H1790 0.930 . S
C1802 C1803 1.399 . S
C1802 C1807 1.399 . S
C1803 C1802 1.399 . S
C1803 C1804 1.376 . S
C1804 H1791 0.930 . S
C1804 C1803 1.376 . S
C1804 C1805 1.388 . S
C1805 H1792 0.930 . S
C1805 C1804 1.388 . S
C1805 C1806 1.390 . S
C1806 C1805 1.390 . S
C1806 C1807 1.394 . S
C1806 C1812 1.465 . S
C1807 C1802 1.399 . S
C1807 C1806 1.394 . S
C1807 C1808 1.516 . S
C1808 C1807 1.516 . S
C1808 C1809 1.502 . S
C1808 C1810 1.561 . S
C1808 C1811 1.526 . S
C1809 H1793 0.959 . S
C1809 H1794 0.959 . S
C1809 H1795 0.961 . S
C1809 C1808 1.502 . S
C1810 H1796 0.960 . S
C1810 H1797 0.961 . S
C1810 H1798 0.959 . S
C1810 C1808 1.561 . S
C1811 C1808 1.526 . S
C1811 C1812 1.396 . S
C1811 C1816 1.390 . S
C1812 C1806 1.465 . S
C1812 C1811 1.396 . S
C1812 C1813 1.399 . S
C1813 H1799 0.929 . S
C1813 C1812 1.399 . S
C1813 C1814 1.385 . S
C1814 H1800 0.931 . S
C1814 C1813 1.385 . S
C1814 C1815 1.389 . S
C1815 C1814 1.389 . S
C1815 C1816 1.387 . S
C1816 H1801 0.930 . S
C1816 C1811 1.390 . S
C1816 C1815 1.387 . S
H1817 C1829 0.930 . S
H1818 C1831 0.930 . S
H1819 C1832 0.930 . S
H1820 C1836 0.959 . S
H1821 C1836 0.959 . S
H1822 C1836 0.961 . S
H1823 C1837 0.960 . S
H1824 C1837 0.961 . S
H1825 C1837 0.959 . S
H1826 C1840 0.929 . S
H1827 C1841 0.931 . S
H1828 C1843 0.930 . S
C1829 H1817 0.930 . S
C1829 C1830 1.399 . S
C1829 C1834 1.399 . S
C1830 C1829 1.399 . S
C1830 C1831 1.376 . S
C1831 H1818 0.930 . S
C1831 C1830 1.376 . S
C1831 C1832 1.388 . S
C1832 H1819 0.930 . S
C1832 C1831 1.388 . S
C1832 C1833 1.390 . S
C1833 C1832 1.390 . S
C1833 C1834 1.394 . S
C1833 C1839 1.465 . S
C1834 C1829 1.399 . S
C1834 C1833 1.394 . S
C1834 C1835 1.516 . S
C1835 C1834 1.516 . S
C1835 C1836 1.502 . S
C1835 C1837 1.561 . S
C1835 C1838 1.526 . S
C1836 H1820 0.959 . S
C1836 H1821 0.959 . S
C1836 H1822 0.961 . S
C1836 C1835 1.502 . S
C1837 H1823 0.960 . S
C1837 H1824 0.961 . S
C1837 H1825 0.959 . S
C1837 C1835 1.561 . S
C1838 C1835 1.526 . S
C1838 C1839 1.396 . S
C1838 C1843 1.390 . S
C1839 C1833 1.465 . S
C1839 C1838 1.396 . S
C1839 C1840 1.399 . S
C1840 H1826 0.929 . S
C1840 C1839 1.399 . S
C1840 C1841 1.385 . S
C1841 H1827 0.931 . S
C1841 C1840 1.385 . S
C1841 C1842 1.389 . S
C1842 C1841 1.389 . S
C1842 C1843 1.387 . S
C1843 H1828 0.930 . S
C1843 C1838 1.390 . S
C1843 C1842 1.387 . S
H1844 C1856 0.930 . S
H1845 C1858 0.930 . S
H1846 C1859 0.930 . S
H1847 C1863 0.959 . S
H1848 C1863 0.959 . S
H1849 C1863 0.961 . S
H1850 C1864 0.960 . S
H1851 C1864 0.961 . S
H1852 C1864 0.959 . S
H1853 C1867 0.929 . S
H1854 C1868 0.931 . S
H1855 C1870 0.930 . S
C1856 H1844 0.930 . S
C1856 C1857 1.399 . S
C1856 C1861 1.399 . S
C1857 C1856 1.399 . S
C1857 C1858 1.376 . S
C1858 H1845 0.930 . S
C1858 C1857 1.376 . S
C1858 C1859 1.388 . S
C1859 H1846 0.930 . S
C1859 C1858 1.388 . S
C1859 C1860 1.390 . S
C1860 C1859 1.390 . S
C1860 C1861 1.394 . S
C1860 C1866 1.465 . S
C1861 C1856 1.399 . S
C1861 C1860 1.394 . S
C1861 C1862 1.516 . S
C1862 C1861 1.516 . S
C1862 C1863 1.502 . S
C1862 C1864 1.561 . S
C1862 C1865 1.526 . S
C1863 H1847 0.959 . S
C1863 H1848 0.959 . S
C1863 H1849 0.961 . S
C1863 C1862 1.502 . S
C1864 H1850 0.960 . S
C1864 H1851 0.961 . S
C1864 H1852 0.959 . S
C1864 C1862 1.561 . S
C1865 C1862 1.526 . S
C1865 C1866 1.396 . S
C1865 C1870 1.390 . S
C1866 C1860 1.465 . S
C1866 C1865 1.396 . S
C1866 C1867 1.399 . S
C1867 H1853 0.929 . S
C1867 C1866 1.399 . S
C1867 C1868 1.385 . S
C1868 H1854 0.931 . S
C1868 C1867 1.385 . S
C1868 C1869 1.389 . S
C1869 C1868 1.389 . S
C1869 C1870 1.387 . S
C1870 H1855 0.930 . S
C1870 C1865 1.390 . S
C1870 C1869 1.387 . S
H1871 C1883 0.930 . S
H1872 C1885 0.930 . S
H1873 C1886 0.930 . S
H1874 C1890 0.959 . S
H1875 C1890 0.959 . S
H1876 C1890 0.961 . S
H1877 C1891 0.960 . S
H1878 C1891 0.961 . S
H1879 C1891 0.959 . S
H1880 C1894 0.929 . S
H1881 C1895 0.931 . S
H1882 C1897 0.930 . S
C1883 H1871 0.930 . S
C1883 C1884 1.399 . S
C1883 C1888 1.399 . S
C1884 C1883 1.399 . S
C1884 C1885 1.376 . S
C1885 H1872 0.930 . S
C1885 C1884 1.376 . S
C1885 C1886 1.388 . S
C1886 H1873 0.930 . S
C1886 C1885 1.388 . S
C1886 C1887 1.390 . S
C1887 C1886 1.390 . S
C1887 C1888 1.394 . S
C1887 C1893 1.465 . S
C1888 C1883 1.399 . S
C1888 C1887 1.394 . S
C1888 C1889 1.516 . S
C1889 C1888 1.516 . S
C1889 C1890 1.502 . S
C1889 C1891 1.561 . S
C1889 C1892 1.526 . S
C1890 H1874 0.959 . S
C1890 H1875 0.959 . S
C1890 H1876 0.961 . S
C1890 C1889 1.502 . S
C1891 H1877 0.960 . S
C1891 H1878 0.961 . S
C1891 H1879 0.959 . S
C1891 C1889 1.561 . S
C1892 C1889 1.526 . S
C1892 C1893 1.396 . S
C1892 C1897 1.390 . S
C1893 C1887 1.465 . S
C1893 C1892 1.396 . S
C1893 C1894 1.399 . S
C1894 H1880 0.929 . S
C1894 C1893 1.399 . S
C1894 C1895 1.385 . S
C1895 H1881 0.931 . S
C1895 C1894 1.385 . S
C1895 C1896 1.389 . S
C1896 C1895 1.389 . S
C1896 C1897 1.387 . S
C1897 H1882 0.930 . S
C1897 C1892 1.390 . S
C1897 C1896 1.387 . S
H1898 C1910 0.930 . S
H1899 C1912 0.930 . S
H1900 C1913 0.930 . S
H1901 C1917 0.959 . S
H1902 C1917 0.959 . S
H1903 C1917 0.961 . S
H1904 C1918 0.960 . S
H1905 C1918 0.961 . S
H1906 C1918 0.959 . S
H1907 C1921 0.929 . S
H1908 C1922 0.931 . S
H1909 C1924 0.930 . S
C1910 H1898 0.930 . S
C1910 C1911 1.399 . S
C1910 C1915 1.399 . S
C1911 C1910 1.399 . S
C1911 C1912 1.376 . S
C1912 H1899 0.930 . S
C1912 C1911 1.376 . S
C1912 C1913 1.388 . S
C1913 H1900 0.930 . S
C1913 C1912 1.388 . S
C1913 C1914 1.390 . S
C1914 C1913 1.390 . S
C1914 C1915 1.394 . S
C1914 C1920 1.465 . S
C1915 C1910 1.399 . S
C1915 C1914 1.394 . S
C1915 C1916 1.516 . S
C1916 C1915 1.516 . S
C1916 C1917 1.502 . S
C1916 C1918 1.561 . S
C1916 C1919 1.526 . S
C1917 H1901 0.959 . S
C1917 H1902 0.959 . S
C1917 H1903 0.961 . S
C1917 C1916 1.502 . S
C1918 H1904 0.960 . S
C1918 H1905 0.961 . S
C1918 H1906 0.959 . S
C1918 C1916 1.561 . S
C1919 C1916 1.526 . S
C1919 C1920 1.396 . S
C1919 C1924 1.390 . S
C1920 C1914 1.465 . S
C1920 C1919 1.396 . S
C1920 C1921 1.399 . S
C1921 H1907 0.929 . S
C1921 C1920 1.399 . S
C1921 C1922 1.385 . S
C1922 H1908 0.931 . S
C1922 C1921 1.385 . S
C1922 C1923 1.389 . S
C1923 C1922 1.389 . S
C1923 C1924 1.387 . S
C1924 H1909 0.930 . S
C1924 C1919 1.390 . S
C1924 C1923 1.387 . S
H1925 C1937 0.930 . S
H1926 C1939 0.930 . S
H1927 C1940 0.930 . S
H1928 C1944 0.959 . S
H1929 C1944 0.959 . S
H1930 C1944 0.961 . S
H1931 C1945 0.960 . S
H1932 C1945 0.961 . S
H1933 C1945 0.959 . S
H1934 C1948 0.929 . S
H1935 C1949 0.931 . S
H1936 C1951 0.930 . S
C1937 H1925 0.930 . S
C1937 C1938 1.399 . S
C1937 C1942 1.399 . S
C1938 C1937 1.399 . S
C1938 C1939 1.376 . S
C1939 H1926 0.930 . S
C1939 C1938 1.376 . S
C1939 C1940 1.388 . S
C1940 H1927 0.930 . S
C1940 C1939 1.388 . S
C1940 C1941 1.390 . S
C1941 C1940 1.390 . S
C1941 C1942 1.394 . S
C1941 C1947 1.465 1_655 S
C1942 C1937 1.399 . S
C1942 C1941 1.394 . S
C1942 C1943 1.516 . S
C1943 C1942 1.516 . S
C1943 C1944 1.502 . S
C1943 C1945 1.561 1_655 S
C1943 C1946 1.526 1_655 S
C1944 H1928 0.959 . S
C1944 H1929 0.959 . S
C1944 H1930 0.961 . S
C1944 C1943 1.502 . S
C1945 H1931 0.960 . S
C1945 H1932 0.961 . S
C1945 H1933 0.959 . S
C1945 C1943 1.561 1_455 S
C1946 C1943 1.526 1_455 S
C1946 C1947 1.396 . S
C1946 C1951 1.390 . S
C1947 C1941 1.465 1_455 S
C1947 C1946 1.396 . S
C1947 C1948 1.399 . S
C1948 H1934 0.929 . S
C1948 C1947 1.399 . S
C1948 C1949 1.385 . S
C1949 H1935 0.931 . S
C1949 C1948 1.385 . S
C1949 C1950 1.389 . S
C1950 C1949 1.389 . S
C1950 C1951 1.387 . S
C1951 H1936 0.930 . S
C1951 C1946 1.390 . S
C1951 C1950 1.387 . S
H1952 C1964 0.930 . S
H1953 C1966 0.930 . S
H1954 C1967 0.930 . S
H1955 C1971 0.959 . S
H1956 C1971 0.959 . S
H1957 C1971 0.961 . S
H1958 C1972 0.960 . S
H1959 C1972 0.961 . S
H1960 C1972 0.959 . S
H1961 C1975 0.929 . S
H1962 C1976 0.931 . S
H1963 C1978 0.930 . S
C1964 H1952 0.930 . S
C1964 C1965 1.399 . S
C1964 C1969 1.399 . S
C1965 C1964 1.399 . S
C1965 C1966 1.376 . S
C1966 H1953 0.930 . S
C1966 C1965 1.376 . S
C1966 C1967 1.388 . S
C1967 H1954 0.930 . S
C1967 C1966 1.388 . S
C1967 C1968 1.390 . S
C1968 C1967 1.390 . S
C1968 C1969 1.394 . S
C1968 C1974 1.465 . S
C1969 C1964 1.399 . S
C1969 C1968 1.394 . S
C1969 C1970 1.516 . S
C1970 C1969 1.516 . S
C1970 C1971 1.502 . S
C1970 C1972 1.561 . S
C1970 C1973 1.526 . S
C1971 H1955 0.959 . S
C1971 H1956 0.959 . S
C1971 H1957 0.961 . S
C1971 C1970 1.502 . S
C1972 H1958 0.960 . S
C1972 H1959 0.961 . S
C1972 H1960 0.959 . S
C1972 C1970 1.561 . S
C1973 C1970 1.526 . S
C1973 C1974 1.396 . S
C1973 C1978 1.390 . S
C1974 C1968 1.465 . S
C1974 C1973 1.396 . S
C1974 C1975 1.399 . S
C1975 H1961 0.929 . S
C1975 C1974 1.399 . S
C1975 C1976 1.385 . S
C1976 H1962 0.931 . S
C1976 C1975 1.385 . S
C1976 C1977 1.389 . S
C1977 C1976 1.389 . S
C1977 C1978 1.387 . S
C1978 H1963 0.930 . S
C1978 C1973 1.390 . S
C1978 C1977 1.387 . S
H1979 C1991 0.930 . S
H1980 C1993 0.930 . S
H1981 C1994 0.930 . S
H1982 C1998 0.959 . S
H1983 C1998 0.959 . S
H1984 C1998 0.961 . S
H1985 C1999 0.960 . S
H1986 C1999 0.961 . S
H1987 C1999 0.959 . S
H1988 C2002 0.929 . S
H1989 C2003 0.931 . S
H1990 C2005 0.930 . S
C1991 H1979 0.930 . S
C1991 C1992 1.399 . S
C1991 C1996 1.399 . S
C1992 C1991 1.399 . S
C1992 C1993 1.376 . S
C1993 H1980 0.930 . S
C1993 C1992 1.376 . S
C1993 C1994 1.388 . S
C1994 H1981 0.930 . S
C1994 C1993 1.388 . S
C1994 C1995 1.390 . S
C1995 C1994 1.390 . S
C1995 C1996 1.394 . S
C1995 C2001 1.465 . S
C1996 C1991 1.399 . S
C1996 C1995 1.394 . S
C1996 C1997 1.516 . S
C1997 C1996 1.516 . S
C1997 C1998 1.502 . S
C1997 C1999 1.561 . S
C1997 C2000 1.526 . S
C1998 H1982 0.959 . S
C1998 H1983 0.959 . S
C1998 H1984 0.961 . S
C1998 C1997 1.502 . S
C1999 H1985 0.960 . S
C1999 H1986 0.961 . S
C1999 H1987 0.959 . S
C1999 C1997 1.561 . S
C2000 C1997 1.526 . S
C2000 C2001 1.396 . S
C2000 C2005 1.390 . S
C2001 C1995 1.465 . S
C2001 C2000 1.396 . S
C2001 C2002 1.399 . S
C2002 H1988 0.929 . S
C2002 C2001 1.399 . S
C2002 C2003 1.385 . S
C2003 H1989 0.931 . S
C2003 C2002 1.385 . S
C2003 C2004 1.389 . S
C2004 C2003 1.389 . S
C2004 C2005 1.387 . S
C2005 H1990 0.930 . S
C2005 C2000 1.390 . S
C2005 C2004 1.387 . S
H2006 C2018 0.930 . S
H2007 C2020 0.930 . S
H2008 C2021 0.930 . S
H2009 C2025 0.959 . S
H2010 C2025 0.959 . S
H2011 C2025 0.961 . S
H2012 C2026 0.960 . S
H2013 C2026 0.961 . S
H2014 C2026 0.959 . S
H2015 C2029 0.929 . S
H2016 C2030 0.931 . S
H2017 C2032 0.930 . S
C2018 H2006 0.930 . S
C2018 C2019 1.399 . S
C2018 C2023 1.399 . S
C2019 C2018 1.399 . S
C2019 C2020 1.376 . S
C2020 H2007 0.930 . S
C2020 C2019 1.376 . S
C2020 C2021 1.388 . S
C2021 H2008 0.930 . S
C2021 C2020 1.388 . S
C2021 C2022 1.390 . S
C2022 C2021 1.390 . S
C2022 C2023 1.394 . S
C2022 C2028 1.465 . S
C2023 C2018 1.399 . S
C2023 C2022 1.394 . S
C2023 C2024 1.516 . S
C2024 C2023 1.516 . S
C2024 C2025 1.502 . S
C2024 C2026 1.561 . S
C2024 C2027 1.526 . S
C2025 H2009 0.959 . S
C2025 H2010 0.959 . S
C2025 H2011 0.961 . S
C2025 C2024 1.502 . S
C2026 H2012 0.960 . S
C2026 H2013 0.961 . S
C2026 H2014 0.959 . S
C2026 C2024 1.561 . S
C2027 C2024 1.526 . S
C2027 C2028 1.396 . S
C2027 C2032 1.390 . S
C2028 C2022 1.465 . S
C2028 C2027 1.396 . S
C2028 C2029 1.399 . S
C2029 H2015 0.929 . S
C2029 C2028 1.399 . S
C2029 C2030 1.385 . S
C2030 H2016 0.931 . S
C2030 C2029 1.385 . S
C2030 C2031 1.389 . S
C2031 C2030 1.389 . S
C2031 C2032 1.387 . S
C2032 H2017 0.930 . S
C2032 C2027 1.390 . S
C2032 C2031 1.387 . S
H2033 C2045 0.930 . S
H2034 C2047 0.930 . S
H2035 C2048 0.930 . S
H2036 C2052 0.959 . S
H2037 C2052 0.959 . S
H2038 C2052 0.961 . S
H2039 C2053 0.960 . S
H2040 C2053 0.961 1_455 S
H2041 C2053 0.959 . S
H2042 C2056 0.926 1_655 S
H2043 C2057 0.931 . S
H2044 C2059 0.930 . S
C2045 H2033 0.930 . S
C2045 C2046 1.399 . S
C2045 C2050 1.399 . S
C2046 C2045 1.399 . S
C2046 C2047 1.376 . S
C2047 H2034 0.930 . S
C2047 C2046 1.376 . S
C2047 C2048 1.388 . S
C2048 H2035 0.930 . S
C2048 C2047 1.388 . S
C2048 C2049 1.390 . S
C2049 C2048 1.390 . S
C2049 C2050 1.394 . S
C2049 C2055 1.465 . S
C2050 C2045 1.399 . S
C2050 C2049 1.394 . S
C2050 C2051 1.516 1_655 S
C2051 C2050 1.516 1_455 S
C2051 C2052 1.502 . S
C2051 C2053 1.561 1_455 S
C2051 C2054 1.526 . S
C2052 H2036 0.959 . S
C2052 H2037 0.959 . S
C2052 H2038 0.961 . S
C2052 C2051 1.502 . S
C2053 H2039 0.960 . S
C2053 H2040 0.961 1_655 S
C2053 H2041 0.959 . S
C2053 C2051 1.561 1_655 S
C2054 C2051 1.526 . S
C2054 C2055 1.396 1_455 S
C2054 C2059 1.390 . S
C2055 C2049 1.465 . S
C2055 C2054 1.396 1_655 S
C2055 C2056 1.398 1_655 S
C2056 H2042 0.926 1_455 S
C2056 C2055 1.398 1_455 S
C2056 C2057 1.389 . S
C2057 H2043 0.931 . S
C2057 C2056 1.389 . S
C2057 C2058 1.389 . S
C2058 C2057 1.389 . S
C2058 C2059 1.387 . S
C2059 H2044 0.930 . S
C2059 C2054 1.390 . S
C2059 C2058 1.387 . S
H2060 C2072 0.930 . S
H2061 C2074 0.930 . S
H2062 C2075 0.930 . S
H2063 C2079 0.959 . S
H2064 C2079 0.959 . S
H2065 C2079 0.961 . S
H2066 C2080 0.960 . S
H2067 C2080 0.961 . S
H2068 C2080 0.959 . S
H2069 C2083 0.929 . S
H2070 C2084 0.931 . S
H2071 C2086 0.930 . S
C2072 H2060 0.930 . S
C2072 C2073 1.399 . S
C2072 C2077 1.399 . S
C2073 C2072 1.399 . S
C2073 C2074 1.376 . S
C2074 H2061 0.930 . S
C2074 C2073 1.376 . S
C2074 C2075 1.388 . S
C2075 H2062 0.930 . S
C2075 C2074 1.388 . S
C2075 C2076 1.390 . S
C2076 C2075 1.390 . S
C2076 C2077 1.394 . S
C2076 C2082 1.465 . S
C2077 C2072 1.399 . S
C2077 C2076 1.394 . S
C2077 C2078 1.516 . S
C2078 C2077 1.516 . S
C2078 C2079 1.502 . S
C2078 C2080 1.561 . S
C2078 C2081 1.526 . S
C2079 H2063 0.959 . S
C2079 H2064 0.959 . S
C2079 H2065 0.961 . S
C2079 C2078 1.502 . S
C2080 H2066 0.960 . S
C2080 H2067 0.961 . S
C2080 H2068 0.959 . S
C2080 C2078 1.561 . S
C2081 C2078 1.526 . S
C2081 C2082 1.396 . S
C2081 C2086 1.390 . S
C2082 C2076 1.465 . S
C2082 C2081 1.396 . S
C2082 C2083 1.399 . S
C2083 H2069 0.929 . S
C2083 C2082 1.399 . S
C2083 C2084 1.385 . S
C2084 H2070 0.931 . S
C2084 C2083 1.385 . S
C2084 C2085 1.389 . S
C2085 C2084 1.389 . S
C2085 C2086 1.387 . S
C2086 H2071 0.930 . S
C2086 C2081 1.390 . S
C2086 C2085 1.387 . S
H2087 C2099 0.930 . S
H2088 C2101 0.930 . S
H2089 C2102 0.930 . S
H2090 C2106 0.959 . S
H2091 C2106 0.959 . S
H2092 C2106 0.961 . S
H2093 C2107 0.958 1_655 S
H2094 C2107 0.966 . S
H2095 C2107 0.955 1_655 S
H2096 C2110 0.929 . S
H2097 C2111 0.931 . S
H2098 C2113 0.930 . S
C2099 H2087 0.930 . S
C2099 C2100 1.399 . S
C2099 C2104 1.399 . S
C2100 C2099 1.399 . S
C2100 C2101 1.376 . S
C2101 H2088 0.930 . S
C2101 C2100 1.376 . S
C2101 C2102 1.388 . S
C2102 H2089 0.930 . S
C2102 C2101 1.388 . S
C2102 C2103 1.390 . S
C2103 C2102 1.390 . S
C2103 C2104 1.394 . S
C2103 C2109 1.465 . S
C2104 C2099 1.399 . S
C2104 C2103 1.394 . S
C2104 C2105 1.516 1_655 S
C2105 C2104 1.516 1_455 S
C2105 C2106 1.502 . S
C2105 C2107 1.563 . S
C2105 C2108 1.526 . S
C2106 H2090 0.959 . S
C2106 H2091 0.959 . S
C2106 H2092 0.961 . S
C2106 C2105 1.502 . S
C2107 H2093 0.958 1_455 S
C2107 H2094 0.966 . S
C2107 H2095 0.955 1_455 S
C2107 C2105 1.563 . S
C2108 C2105 1.526 . S
C2108 C2109 1.396 1_455 S
C2108 C2113 1.390 . S
C2109 C2103 1.465 . S
C2109 C2108 1.396 1_655 S
C2109 C2110 1.399 . S
C2110 H2096 0.929 . S
C2110 C2109 1.399 . S
C2110 C2111 1.385 1_655 S
C2111 H2097 0.931 . S
C2111 C2110 1.385 1_455 S
C2111 C2112 1.389 . S
C2112 C2111 1.389 . S
C2112 C2113 1.387 . S
C2113 H2098 0.930 . S
C2113 C2108 1.390 . S
C2113 C2112 1.387 . S
H2114 C2126 0.930 . S
H2115 C2128 0.930 . S
H2116 C2129 0.930 . S
H2117 C2133 0.959 . S
H2118 C2133 0.959 . S
H2119 C2133 0.961 . S
H2120 C2134 0.960 . S
H2121 C2134 0.961 . S
H2122 C2134 0.959 . S
H2123 C2137 0.929 . S
H2124 C2138 0.931 . S
H2125 C2140 0.930 . S
C2126 H2114 0.930 . S
C2126 C2127 1.399 . S
C2126 C2131 1.399 . S
C2127 C2126 1.399 . S
C2127 C2128 1.376 . S
C2128 H2115 0.930 . S
C2128 C2127 1.376 . S
C2128 C2129 1.388 . S
C2129 H2116 0.930 . S
C2129 C2128 1.388 . S
C2129 C2130 1.390 . S
C2130 C2129 1.390 . S
C2130 C2131 1.394 . S
C2130 C2136 1.465 . S
C2131 C2126 1.399 . S
C2131 C2130 1.394 . S
C2131 C2132 1.516 . S
C2132 C2131 1.516 . S
C2132 C2133 1.502 . S
C2132 C2134 1.561 . S
C2132 C2135 1.526 . S
C2133 H2117 0.959 . S
C2133 H2118 0.959 . S
C2133 H2119 0.961 . S
C2133 C2132 1.502 . S
C2134 H2120 0.960 . S
C2134 H2121 0.961 . S
C2134 H2122 0.959 . S
C2134 C2132 1.561 . S
C2135 C2132 1.526 . S
C2135 C2136 1.396 . S
C2135 C2140 1.390 . S
C2136 C2130 1.465 . S
C2136 C2135 1.396 . S
C2136 C2137 1.399 . S
C2137 H2123 0.929 . S
C2137 C2136 1.399 . S
C2137 C2138 1.385 . S
C2138 H2124 0.931 . S
C2138 C2137 1.385 . S
C2138 C2139 1.389 . S
C2139 C2138 1.389 . S
C2139 C2140 1.387 . S
C2140 H2125 0.930 . S
C2140 C2135 1.390 . S
C2140 C2139 1.387 . S
H2141 C2153 0.930 . S
H2142 C2155 0.930 . S
H2143 C2156 0.930 . S
H2144 C2160 0.959 . S
H2145 C2160 0.959 . S
H2146 C2160 0.961 . S
H2147 C2161 0.960 . S
H2148 C2161 0.961 . S
H2149 C2161 0.959 . S
H2150 C2164 0.929 . S
H2151 C2165 0.931 . S
H2152 C2167 0.930 . S
C2153 H2141 0.930 . S
C2153 C2154 1.399 . S
C2153 C2158 1.399 . S
C2154 C2153 1.399 . S
C2154 C2155 1.376 . S
C2155 H2142 0.930 . S
C2155 C2154 1.376 . S
C2155 C2156 1.388 . S
C2156 H2143 0.930 . S
C2156 C2155 1.388 . S
C2156 C2157 1.390 . S
C2157 C2156 1.390 . S
C2157 C2158 1.394 . S
C2157 C2163 1.465 . S
C2158 C2153 1.399 . S
C2158 C2157 1.394 . S
C2158 C2159 1.516 . S
C2159 C2158 1.516 . S
C2159 C2160 1.502 . S
C2159 C2161 1.561 . S
C2159 C2162 1.526 . S
C2160 H2144 0.959 . S
C2160 H2145 0.959 . S
C2160 H2146 0.961 . S
C2160 C2159 1.502 . S
C2161 H2147 0.960 . S
C2161 H2148 0.961 . S
C2161 H2149 0.959 . S
C2161 C2159 1.561 . S
C2162 C2159 1.526 . S
C2162 C2163 1.396 . S
C2162 C2167 1.390 . S
C2163 C2157 1.465 . S
C2163 C2162 1.396 . S
C2163 C2164 1.399 . S
C2164 H2150 0.929 . S
C2164 C2163 1.399 . S
C2164 C2165 1.385 . S
C2165 H2151 0.931 . S
C2165 C2164 1.385 . S
C2165 C2166 1.389 . S
C2166 C2165 1.389 . S
C2166 C2167 1.387 . S
C2167 H2152 0.930 . S
C2167 C2162 1.390 . S
C2167 C2166 1.387 . S
H2168 C2180 0.930 . S
H2169 C2182 0.930 . S
H2170 C2183 0.930 . S
H2171 C2187 0.959 . S
H2172 C2187 0.959 . S
H2173 C2187 0.961 . S
H2174 C2188 0.960 . S
H2175 C2188 0.961 . S
H2176 C2188 0.959 . S
H2177 C2191 0.929 . S
H2178 C2192 0.931 . S
H2179 C2194 0.930 . S
C2180 H2168 0.930 . S
C2180 C2181 1.399 . S
C2180 C2185 1.399 . S
C2181 C2180 1.399 . S
C2181 C2182 1.376 . S
C2182 H2169 0.930 . S
C2182 C2181 1.376 . S
C2182 C2183 1.388 . S
C2183 H2170 0.930 . S
C2183 C2182 1.388 . S
C2183 C2184 1.390 . S
C2184 C2183 1.390 . S
C2184 C2185 1.394 . S
C2184 C2190 1.465 . S
C2185 C2180 1.399 . S
C2185 C2184 1.394 . S
C2185 C2186 1.516 . S
C2186 C2185 1.516 . S
C2186 C2187 1.502 . S
C2186 C2188 1.561 . S
C2186 C2189 1.526 . S
C2187 H2171 0.959 . S
C2187 H2172 0.959 . S
C2187 H2173 0.961 . S
C2187 C2186 1.502 . S
C2188 H2174 0.960 . S
C2188 H2175 0.961 . S
C2188 H2176 0.959 . S
C2188 C2186 1.561 . S
C2189 C2186 1.526 . S
C2189 C2190 1.396 . S
C2189 C2194 1.390 . S
C2190 C2184 1.465 . S
C2190 C2189 1.396 . S
C2190 C2191 1.399 . S
C2191 H2177 0.929 . S
C2191 C2190 1.399 . S
C2191 C2192 1.385 . S
C2192 H2178 0.931 . S
C2192 C2191 1.385 . S
C2192 C2193 1.389 . S
C2193 C2192 1.389 . S
C2193 C2194 1.387 . S
C2194 H2179 0.930 . S
C2194 C2189 1.390 . S
C2194 C2193 1.387 . S
H2195 C2207 0.930 . S
H2196 C2209 0.930 . S
H2197 C2210 0.930 . S
H2198 C2214 0.959 . S
H2199 C2214 0.959 . S
H2200 C2214 0.961 . S
H2201 C2215 0.960 . S
H2202 C2215 0.961 . S
H2203 C2215 0.959 . S
H2204 C2218 0.929 . S
H2205 C2219 0.931 . S
H2206 C2221 0.930 . S
C2207 H2195 0.930 . S
C2207 C2208 1.399 . S
C2207 C2212 1.399 . S
C2208 C2207 1.399 . S
C2208 C2209 1.376 . S
C2209 H2196 0.930 . S
C2209 C2208 1.376 . S
C2209 C2210 1.388 . S
C2210 H2197 0.930 . S
C2210 C2209 1.388 . S
C2210 C2211 1.390 . S
C2211 C2210 1.390 . S
C2211 C2212 1.394 . S
C2211 C2217 1.465 . S
C2212 C2207 1.399 . S
C2212 C2211 1.394 . S
C2212 C2213 1.516 . S
C2213 C2212 1.516 . S
C2213 C2214 1.502 . S
C2213 C2215 1.561 . S
C2213 C2216 1.526 . S
C2214 H2198 0.959 . S
C2214 H2199 0.959 . S
C2214 H2200 0.961 . S
C2214 C2213 1.502 . S
C2215 H2201 0.960 . S
C2215 H2202 0.961 . S
C2215 H2203 0.959 . S
C2215 C2213 1.561 . S
C2216 C2213 1.526 . S
C2216 C2217 1.396 . S
C2216 C2221 1.390 . S
C2217 C2211 1.465 . S
C2217 C2216 1.396 . S
C2217 C2218 1.399 . S
C2218 H2204 0.929 . S
C2218 C2217 1.399 . S
C2218 C2219 1.385 . S
C2219 H2205 0.931 . S
C2219 C2218 1.385 . S
C2219 C2220 1.389 . S
C2220 C2219 1.389 . S
C2220 C2221 1.387 . S
C2221 H2206 0.930 . S
C2221 C2216 1.390 . S
C2221 C2220 1.387 . S
H2222 C2234 0.930 . S
H2223 C2236 0.930 . S
H2224 C2237 0.930 . S
H2225 C2241 0.959 . S
H2226 C2241 0.959 . S
H2227 C2241 0.961 . S
H2228 C2242 0.960 . S
H2229 C2242 0.961 . S
H2230 C2242 0.959 . S
H2231 C2245 0.929 . S
H2232 C2246 0.931 . S
H2233 C2248 0.930 . S
C2234 H2222 0.930 . S
C2234 C2235 1.399 . S
C2234 C2239 1.399 . S
C2235 C2234 1.399 . S
C2235 C2236 1.376 . S
C2236 H2223 0.930 . S
C2236 C2235 1.376 . S
C2236 C2237 1.388 . S
C2237 H2224 0.930 . S
C2237 C2236 1.388 . S
C2237 C2238 1.390 . S
C2238 C2237 1.390 . S
C2238 C2239 1.394 . S
C2238 C2244 1.465 . S
C2239 C2234 1.399 . S
C2239 C2238 1.394 . S
C2239 C2240 1.516 . S
C2240 C2239 1.516 . S
C2240 C2241 1.502 . S
C2240 C2242 1.561 . S
C2240 C2243 1.526 . S
C2241 H2225 0.959 . S
C2241 H2226 0.959 . S
C2241 H2227 0.961 . S
C2241 C2240 1.502 . S
C2242 H2228 0.960 . S
C2242 H2229 0.961 . S
C2242 H2230 0.959 . S
C2242 C2240 1.561 . S
C2243 C2240 1.526 . S
C2243 C2244 1.396 . S
C2243 C2248 1.390 . S
C2244 C2238 1.465 . S
C2244 C2243 1.396 . S
C2244 C2245 1.399 . S
C2245 H2231 0.929 . S
C2245 C2244 1.399 . S
C2245 C2246 1.385 . S
C2246 H2232 0.931 . S
C2246 C2245 1.385 . S
C2246 C2247 1.389 . S
C2247 C2246 1.389 . S
C2247 C2248 1.387 . S
C2248 H2233 0.930 . S
C2248 C2243 1.390 . S
C2248 C2247 1.387 . S
H2249 C2261 0.930 . S
H2250 C2263 0.930 . S
H2251 C2264 0.930 . S
H2252 C2268 0.959 . S
H2253 C2268 0.959 . S
H2254 C2268 0.961 . S
H2255 C2269 0.960 . S
H2256 C2269 0.961 1_655 S
H2257 C2269 0.959 1_655 S
H2258 C2272 0.929 . S
H2259 C2273 0.931 . S
H2260 C2275 0.930 . S
C2261 H2249 0.930 . S
C2261 C2262 1.399 . S
C2261 C2266 1.399 . S
C2262 C2261 1.399 . S
C2262 C2263 1.376 . S
C2263 H2250 0.930 . S
C2263 C2262 1.376 . S
C2263 C2264 1.388 . S
C2264 H2251 0.930 . S
C2264 C2263 1.388 . S
C2264 C2265 1.390 . S
C2265 C2264 1.390 . S
C2265 C2266 1.394 . S
C2265 C2271 1.465 1_455 S
C2266 C2261 1.399 . S
C2266 C2265 1.394 . S
C2266 C2267 1.516 . S
C2267 C2266 1.516 . S
C2267 C2268 1.502 . S
C2267 C2269 1.561 . S
C2267 C2270 1.526 1_455 S
C2268 H2252 0.959 . S
C2268 H2253 0.959 . S
C2268 H2254 0.961 . S
C2268 C2267 1.502 . S
C2269 H2255 0.960 . S
C2269 H2256 0.961 1_455 S
C2269 H2257 0.959 1_455 S
C2269 C2267 1.561 . S
C2270 C2267 1.526 1_655 S
C2270 C2271 1.396 . S
C2270 C2275 1.390 . S
C2271 C2265 1.465 1_655 S
C2271 C2270 1.396 . S
C2271 C2272 1.399 . S
C2272 H2258 0.929 . S
C2272 C2271 1.399 . S
C2272 C2273 1.385 . S
C2273 H2259 0.931 . S
C2273 C2272 1.385 . S
C2273 C2274 1.389 . S
C2274 C2273 1.389 . S
C2274 C2275 1.387 . S
C2275 H2260 0.930 . S
C2275 C2270 1.390 . S
C2275 C2274 1.387 . S
H2276 C2288 0.930 . S
H2277 C2290 0.930 . S
H2278 C2291 0.930 . S
H2279 C2295 0.959 . S
H2280 C2295 0.959 . S
H2281 C2295 0.961 . S
H2282 C2296 0.960 . S
H2283 C2296 0.961 . S
H2284 C2296 0.959 . S
H2285 C2299 0.929 . S
H2286 C2300 0.931 . S
H2287 C2302 0.930 . S
C2288 H2276 0.930 . S
C2288 C2289 1.399 . S
C2288 C2293 1.399 . S
C2289 C2288 1.399 . S
C2289 C2290 1.376 . S
C2290 H2277 0.930 . S
C2290 C2289 1.376 . S
C2290 C2291 1.388 . S
C2291 H2278 0.930 . S
C2291 C2290 1.388 . S
C2291 C2292 1.390 . S
C2292 C2291 1.390 . S
C2292 C2293 1.394 . S
C2292 C2298 1.465 . S
C2293 C2288 1.399 . S
C2293 C2292 1.394 . S
C2293 C2294 1.516 . S
C2294 C2293 1.516 . S
C2294 C2295 1.502 . S
C2294 C2296 1.561 . S
C2294 C2297 1.526 . S
C2295 H2279 0.959 . S
C2295 H2280 0.959 . S
C2295 H2281 0.961 . S
C2295 C2294 1.502 . S
C2296 H2282 0.960 . S
C2296 H2283 0.961 . S
C2296 H2284 0.959 . S
C2296 C2294 1.561 . S
C2297 C2294 1.526 . S
C2297 C2298 1.396 . S
C2297 C2302 1.390 . S
C2298 C2292 1.465 . S
C2298 C2297 1.396 . S
C2298 C2299 1.399 . S
C2299 H2285 0.929 . S
C2299 C2298 1.399 . S
C2299 C2300 1.385 . S
C2300 H2286 0.931 . S
C2300 C2299 1.385 . S
C2300 C2301 1.389 . S
C2301 C2300 1.389 . S
C2301 C2302 1.387 . S
C2302 H2287 0.930 . S
C2302 C2297 1.390 . S
C2302 C2301 1.387 . S
H2303 C2315 0.930 . S
H2304 C2317 0.930 . S
H2305 C2318 0.930 . S
H2306 C2322 0.959 . S
H2307 C2322 0.959 . S
H2308 C2322 0.961 . S
H2309 C2323 0.960 . S
H2310 C2323 0.961 . S
H2311 C2323 0.959 . S
H2312 C2326 0.943 . S
H2313 C2327 0.931 . S
H2314 C2329 0.930 . S
C2315 H2303 0.930 . S
C2315 C2316 1.399 . S
C2315 C2320 1.399 . S
C2316 C2315 1.399 . S
C2316 C2317 1.376 . S
C2317 H2304 0.930 . S
C2317 C2316 1.376 . S
C2317 C2318 1.388 . S
C2318 H2305 0.930 . S
C2318 C2317 1.388 . S
C2318 C2319 1.390 . S
C2319 C2318 1.390 . S
C2319 C2320 1.394 . S
C2319 C2325 1.465 1_655 S
C2320 C2315 1.399 . S
C2320 C2319 1.394 . S
C2320 C2321 1.516 1_655 S
C2321 C2320 1.516 1_455 S
C2321 C2322 1.502 . S
C2321 C2323 1.561 . S
C2321 C2324 1.526 . S
C2322 H2306 0.959 . S
C2322 H2307 0.959 . S
C2322 H2308 0.961 . S
C2322 C2321 1.502 . S
C2323 H2309 0.960 . S
C2323 H2310 0.961 . S
C2323 H2311 0.959 . S
C2323 C2321 1.561 . S
C2324 C2321 1.526 . S
C2324 C2325 1.396 . S
C2324 C2329 1.390 . S
C2325 C2319 1.465 1_455 S
C2325 C2324 1.396 . S
C2325 C2326 1.399 . S
C2326 H2312 0.943 . S
C2326 C2325 1.399 . S
C2326 C2327 1.385 . S
C2327 H2313 0.931 . S
C2327 C2326 1.385 . S
C2327 C2328 1.389 . S
C2328 C2327 1.389 . S
C2328 C2329 1.387 . S
C2329 H2314 0.930 . S
C2329 C2324 1.390 . S
C2329 C2328 1.387 . S
H2330 C2342 0.930 . S
H2331 C2344 0.930 . S
H2332 C2345 0.930 . S
H2333 C2349 0.959 . S
H2334 C2349 0.959 . S
H2335 C2349 0.961 . S
H2336 C2350 0.960 . S
H2337 C2350 0.961 . S
H2338 C2350 0.959 . S
H2339 C2353 0.929 . S
H2340 C2354 0.931 . S
H2341 C2356 0.930 . S
C2342 H2330 0.930 . S
C2342 C2343 1.399 . S
C2342 C2347 1.399 . S
C2343 C2342 1.399 . S
C2343 C2344 1.376 . S
C2344 H2331 0.930 . S
C2344 C2343 1.376 . S
C2344 C2345 1.388 . S
C2345 H2332 0.930 . S
C2345 C2344 1.388 . S
C2345 C2346 1.390 . S
C2346 C2345 1.390 . S
C2346 C2347 1.394 . S
C2346 C2352 1.465 . S
C2347 C2342 1.399 . S
C2347 C2346 1.394 . S
C2347 C2348 1.516 . S
C2348 C2347 1.516 . S
C2348 C2349 1.502 . S
C2348 C2350 1.561 . S
C2348 C2351 1.526 . S
C2349 H2333 0.959 . S
C2349 H2334 0.959 . S
C2349 H2335 0.961 . S
C2349 C2348 1.502 . S
C2350 H2336 0.960 . S
C2350 H2337 0.961 . S
C2350 H2338 0.959 . S
C2350 C2348 1.561 . S
C2351 C2348 1.526 . S
C2351 C2352 1.396 . S
C2351 C2356 1.390 . S
C2352 C2346 1.465 . S
C2352 C2351 1.396 . S
C2352 C2353 1.399 . S
C2353 H2339 0.929 . S
C2353 C2352 1.399 . S
C2353 C2354 1.385 . S
C2354 H2340 0.931 . S
C2354 C2353 1.385 . S
C2354 C2355 1.389 . S
C2355 C2354 1.389 . S
C2355 C2356 1.387 . S
C2356 H2341 0.930 . S
C2356 C2351 1.390 . S
C2356 C2355 1.387 . S
H2357 C2369 0.930 . S
H2358 C2371 0.930 . S
H2359 C2372 0.930 . S
H2360 C2376 0.959 . S
H2361 C2376 0.959 . S
H2362 C2376 0.961 . S
H2363 C2377 0.960 . S
H2364 C2377 0.961 . S
H2365 C2377 0.959 . S
H2366 C2380 0.929 . S
H2367 C2381 0.931 . S
H2368 C2383 0.930 . S
C2369 H2357 0.930 . S
C2369 C2370 1.399 . S
C2369 C2374 1.399 . S
C2370 C2369 1.399 . S
C2370 C2371 1.376 . S
C2371 H2358 0.930 . S
C2371 C2370 1.376 . S
C2371 C2372 1.388 . S
C2372 H2359 0.930 . S
C2372 C2371 1.388 . S
C2372 C2373 1.390 . S
C2373 C2372 1.390 . S
C2373 C2374 1.394 . S
C2373 C2379 1.465 . S
C2374 C2369 1.399 . S
C2374 C2373 1.394 . S
C2374 C2375 1.516 . S
C2375 C2374 1.516 . S
C2375 C2376 1.502 . S
C2375 C2377 1.561 . S
C2375 C2378 1.526 . S
C2376 H2360 0.959 . S
C2376 H2361 0.959 . S
C2376 H2362 0.961 . S
C2376 C2375 1.502 . S
C2377 H2363 0.960 . S
C2377 H2364 0.961 . S
C2377 H2365 0.959 . S
C2377 C2375 1.561 . S
C2378 C2375 1.526 . S
C2378 C2379 1.396 . S
C2378 C2383 1.390 . S
C2379 C2373 1.465 . S
C2379 C2378 1.396 . S
C2379 C2380 1.399 . S
C2380 H2366 0.929 . S
C2380 C2379 1.399 . S
C2380 C2381 1.385 . S
C2381 H2367 0.931 . S
C2381 C2380 1.385 . S
C2381 C2382 1.389 . S
C2382 C2381 1.389 . S
C2382 C2383 1.387 . S
C2383 H2368 0.930 . S
C2383 C2378 1.390 . S
C2383 C2382 1.387 . S
H2384 C2396 0.930 . S
H2385 C2398 0.930 . S
H2386 C2399 0.930 . S
H2387 C2403 0.959 . S
H2388 C2403 0.959 . S
H2389 C2403 0.961 . S
H2390 C2404 0.960 . S
H2391 C2404 0.961 . S
H2392 C2404 0.959 . S
H2393 C2407 0.929 . S
H2394 C2408 0.931 . S
H2395 C2410 0.930 . S
C2396 H2384 0.930 . S
C2396 C2397 1.399 . S
C2396 C2401 1.399 . S
C2397 C2396 1.399 . S
C2397 C2398 1.376 . S
C2398 H2385 0.930 . S
C2398 C2397 1.376 . S
C2398 C2399 1.388 . S
C2399 H2386 0.930 . S
C2399 C2398 1.388 . S
C2399 C2400 1.390 . S
C2400 C2399 1.390 . S
C2400 C2401 1.394 . S
C2400 C2406 1.465 . S
C2401 C2396 1.399 . S
C2401 C2400 1.394 . S
C2401 C2402 1.516 . S
C2402 C2401 1.516 . S
C2402 C2403 1.502 . S
C2402 C2404 1.561 . S
C2402 C2405 1.526 . S
C2403 H2387 0.959 . S
C2403 H2388 0.959 . S
C2403 H2389 0.961 . S
C2403 C2402 1.502 . S
C2404 H2390 0.960 . S
C2404 H2391 0.961 . S
C2404 H2392 0.959 . S
C2404 C2402 1.561 . S
C2405 C2402 1.526 . S
C2405 C2406 1.396 . S
C2405 C2410 1.390 . S
C2406 C2400 1.465 . S
C2406 C2405 1.396 . S
C2406 C2407 1.399 . S
C2407 H2393 0.929 . S
C2407 C2406 1.399 . S
C2407 C2408 1.385 . S
C2408 H2394 0.931 . S
C2408 C2407 1.385 . S
C2408 C2409 1.389 . S
C2409 C2408 1.389 . S
C2409 C2410 1.387 . S
C2410 H2395 0.930 . S
C2410 C2405 1.390 . S
C2410 C2409 1.387 . S
H2411 C2423 0.930 . S
H2412 C2425 0.930 . S
H2413 C2426 0.930 . S
H2414 C2430 0.959 . S
H2415 C2430 0.959 . S
H2416 C2430 0.961 . S
H2417 C2431 0.966 . S
H2418 C2431 0.961 . S
H2419 C2431 0.959 . S
H2420 C2434 0.929 . S
H2421 C2435 0.931 . S
H2422 C2437 0.930 . S
C2423 H2411 0.930 . S
C2423 C2424 1.399 . S
C2423 C2428 1.399 . S
C2424 C2423 1.399 . S
C2424 C2425 1.376 . S
C2425 H2412 0.930 . S
C2425 C2424 1.376 . S
C2425 C2426 1.388 . S
C2426 H2413 0.930 . S
C2426 C2425 1.388 . S
C2426 C2427 1.390 . S
C2427 C2426 1.390 . S
C2427 C2428 1.394 . S
C2427 C2433 1.465 1_655 S
C2428 C2423 1.399 . S
C2428 C2427 1.394 . S
C2428 C2429 1.516 . S
C2429 C2428 1.516 . S
C2429 C2430 1.502 . S
C2429 C2431 1.561 1_655 S
C2429 C2432 1.526 1_655 S
C2430 H2414 0.959 . S
C2430 H2415 0.959 . S
C2430 H2416 0.961 . S
C2430 C2429 1.502 . S
C2431 H2417 0.966 . S
C2431 H2418 0.961 . S
C2431 H2419 0.959 . S
C2431 C2429 1.561 1_455 S
C2432 C2429 1.526 1_455 S
C2432 C2433 1.396 . S
C2432 C2437 1.390 . S
C2433 C2427 1.465 1_455 S
C2433 C2432 1.396 . S
C2433 C2434 1.399 . S
C2434 H2420 0.929 . S
C2434 C2433 1.399 . S
C2434 C2435 1.385 . S
C2435 H2421 0.931 . S
C2435 C2434 1.385 . S
C2435 C2436 1.389 . S
C2436 C2435 1.389 . S
C2436 C2437 1.387 . S
C2437 H2422 0.930 . S
C2437 C2432 1.390 . S
C2437 C2436 1.387 . S
H2438 C2450 0.930 . S
H2439 C2452 0.930 . S
H2440 C2453 0.930 . S
H2441 C2457 0.959 . S
H2442 C2457 0.959 . S
H2443 C2457 0.961 . S
H2444 C2458 0.960 . S
H2445 C2458 0.961 . S
H2446 C2458 0.959 . S
H2447 C2461 0.929 . S
H2448 C2462 0.931 . S
H2449 C2464 0.930 . S
C2450 H2438 0.930 . S
C2450 C2451 1.399 . S
C2450 C2455 1.399 . S
C2451 C2450 1.399 . S
C2451 C2452 1.376 . S
C2452 H2439 0.930 . S
C2452 C2451 1.376 . S
C2452 C2453 1.388 . S
C2453 H2440 0.930 . S
C2453 C2452 1.388 . S
C2453 C2454 1.390 . S
C2454 C2453 1.390 . S
C2454 C2455 1.394 . S
C2454 C2460 1.465 1_655 S
C2455 C2450 1.399 . S
C2455 C2454 1.394 . S
C2455 C2456 1.516 . S
C2456 C2455 1.516 . S
C2456 C2457 1.502 . S
C2456 C2458 1.561 1_655 S
C2456 C2459 1.526 1_655 S
C2457 H2441 0.959 . S
C2457 H2442 0.959 . S
C2457 H2443 0.961 . S
C2457 C2456 1.502 . S
C2458 H2444 0.960 . S
C2458 H2445 0.961 . S
C2458 H2446 0.959 . S
C2458 C2456 1.561 1_455 S
C2459 C2456 1.526 1_455 S
C2459 C2460 1.396 . S
C2459 C2464 1.390 . S
C2460 C2454 1.465 1_455 S
C2460 C2459 1.396 . S
C2460 C2461 1.399 . S
C2461 H2447 0.929 . S
C2461 C2460 1.399 . S
C2461 C2462 1.385 . S
C2462 H2448 0.931 . S
C2462 C2461 1.385 . S
C2462 C2463 1.389 . S
C2463 C2462 1.389 . S
C2463 C2464 1.387 . S
C2464 H2449 0.930 . S
C2464 C2459 1.390 . S
C2464 C2463 1.387 . S
H2465 C2477 0.930 . S
H2466 C2479 0.930 . S
H2467 C2480 0.930 . S
H2468 C2484 0.959 . S
H2469 C2484 0.959 . S
H2470 C2484 0.961 . S
H2471 C2485 0.960 . S
H2472 C2485 0.961 . S
H2473 C2485 0.959 . S
H2474 C2488 0.929 . S
H2475 C2489 0.931 . S
H2476 C2491 0.930 . S
C2477 H2465 0.930 . S
C2477 C2478 1.399 . S
C2477 C2482 1.399 . S
C2478 C2477 1.399 . S
C2478 C2479 1.376 . S
C2479 H2466 0.930 . S
C2479 C2478 1.376 . S
C2479 C2480 1.388 . S
C2480 H2467 0.930 . S
C2480 C2479 1.388 . S
C2480 C2481 1.390 . S
C2481 C2480 1.390 . S
C2481 C2482 1.394 . S
C2481 C2487 1.465 . S
C2482 C2477 1.399 . S
C2482 C2481 1.394 . S
C2482 C2483 1.516 . S
C2483 C2482 1.516 . S
C2483 C2484 1.502 . S
C2483 C2485 1.561 . S
C2483 C2486 1.526 . S
C2484 H2468 0.959 . S
C2484 H2469 0.959 . S
C2484 H2470 0.961 . S
C2484 C2483 1.502 . S
C2485 H2471 0.960 . S
C2485 H2472 0.961 . S
C2485 H2473 0.959 . S
C2485 C2483 1.561 . S
C2486 C2483 1.526 . S
C2486 C2487 1.396 . S
C2486 C2491 1.390 . S
C2487 C2481 1.465 . S
C2487 C2486 1.396 . S
C2487 C2488 1.399 . S
C2488 H2474 0.929 . S
C2488 C2487 1.399 . S
C2488 C2489 1.385 . S
C2489 H2475 0.931 . S
C2489 C2488 1.385 . S
C2489 C2490 1.389 . S
C2490 C2489 1.389 . S
C2490 C2491 1.387 . S
C2491 H2476 0.930 . S
C2491 C2486 1.390 . S
C2491 C2490 1.387 . S
H2492 C2504 0.930 . S
H2493 C2506 0.930 . S
H2494 C2507 0.930 . S
H2495 C2511 0.959 . S
H2496 C2511 0.959 . S
H2497 C2511 0.961 . S
H2498 C2512 0.960 . S
H2499 C2512 0.961 . S
H2500 C2512 0.959 . S
H2501 C2515 0.929 . S
H2502 C2516 0.931 . S
H2503 C2518 0.930 . S
C2504 H2492 0.930 . S
C2504 C2505 1.399 . S
C2504 C2509 1.399 . S
C2505 C2504 1.399 . S
C2505 C2506 1.376 . S
C2506 H2493 0.930 . S
C2506 C2505 1.376 . S
C2506 C2507 1.388 . S
C2507 H2494 0.930 . S
C2507 C2506 1.388 . S
C2507 C2508 1.390 . S
C2508 C2507 1.390 . S
C2508 C2509 1.394 . S
C2508 C2514 1.465 . S
C2509 C2504 1.399 . S
C2509 C2508 1.394 . S
C2509 C2510 1.516 . S
C2510 C2509 1.516 . S
C2510 C2511 1.502 . S
C2510 C2512 1.561 . S
C2510 C2513 1.526 . S
C2511 H2495 0.959 . S
C2511 H2496 0.959 . S
C2511 H2497 0.961 . S
C2511 C2510 1.502 . S
C2512 H2498 0.960 . S
C2512 H2499 0.961 . S
C2512 H2500 0.959 . S
C2512 C2510 1.561 . S
C2513 C2510 1.526 . S
C2513 C2514 1.396 . S
C2513 C2518 1.390 . S
C2514 C2508 1.465 . S
C2514 C2513 1.396 . S
C2514 C2515 1.399 . S
C2515 H2501 0.929 . S
C2515 C2514 1.399 . S
C2515 C2516 1.385 . S
C2516 H2502 0.931 . S
C2516 C2515 1.385 . S
C2516 C2517 1.389 . S
C2517 C2516 1.389 . S
C2517 C2518 1.387 . S
C2518 H2503 0.930 . S
C2518 C2513 1.390 . S
C2518 C2517 1.387 . S
H2519 C2531 0.930 . S
H2520 C2533 0.930 . S
H2521 C2534 0.930 . S
H2522 C2538 0.959 . S
H2523 C2538 0.959 . S
H2524 C2538 0.961 . S
H2525 C2539 0.960 . S
H2526 C2539 0.961 . S
H2527 C2539 0.959 . S
H2528 C2542 0.929 . S
H2529 C2543 0.931 . S
H2530 C2545 0.930 . S
C2531 H2519 0.930 . S
C2531 C2532 1.399 . S
C2531 C2536 1.399 . S
C2532 C2531 1.399 . S
C2532 C2533 1.376 . S
C2533 H2520 0.930 . S
C2533 C2532 1.376 . S
C2533 C2534 1.388 . S
C2534 H2521 0.930 . S
C2534 C2533 1.388 . S
C2534 C2535 1.390 . S
C2535 C2534 1.390 . S
C2535 C2536 1.394 . S
C2535 C2541 1.465 . S
C2536 C2531 1.399 . S
C2536 C2535 1.394 . S
C2536 C2537 1.516 . S
C2537 C2536 1.516 . S
C2537 C2538 1.502 . S
C2537 C2539 1.561 . S
C2537 C2540 1.526 . S
C2538 H2522 0.959 . S
C2538 H2523 0.959 . S
C2538 H2524 0.961 . S
C2538 C2537 1.502 . S
C2539 H2525 0.960 . S
C2539 H2526 0.961 . S
C2539 H2527 0.959 . S
C2539 C2537 1.561 . S
C2540 C2537 1.526 . S
C2540 C2541 1.396 . S
C2540 C2545 1.390 . S
C2541 C2535 1.465 . S
C2541 C2540 1.396 . S
C2541 C2542 1.399 . S
C2542 H2528 0.929 . S
C2542 C2541 1.399 . S
C2542 C2543 1.385 . S
C2543 H2529 0.931 . S
C2543 C2542 1.385 . S
C2543 C2544 1.389 . S
C2544 C2543 1.389 . S
C2544 C2545 1.387 . S
C2545 H2530 0.930 . S
C2545 C2540 1.390 . S
C2545 C2544 1.387 . S
H2546 C2558 0.930 . S
H2547 C2560 0.930 . S
H2548 C2561 0.930 . S
H2549 C2565 0.959 . S
H2550 C2565 0.959 . S
H2551 C2565 0.961 . S
H2552 C2566 0.960 . S
H2553 C2566 0.961 . S
H2554 C2566 0.959 . S
H2555 C2569 0.945 . S
H2556 C2570 0.931 . S
H2557 C2572 0.930 . S
C2558 H2546 0.930 . S
C2558 C2559 1.399 . S
C2558 C2563 1.399 . S
C2559 C2558 1.399 . S
C2559 C2560 1.376 . S
C2560 H2547 0.930 . S
C2560 C2559 1.376 . S
C2560 C2561 1.388 . S
C2561 H2548 0.930 . S
C2561 C2560 1.388 . S
C2561 C2562 1.390 . S
C2562 C2561 1.390 . S
C2562 C2563 1.394 . S
C2562 C2568 1.455 1_455 S
C2563 C2558 1.399 . S
C2563 C2562 1.394 . S
C2563 C2564 1.516 1_455 S
C2564 C2563 1.516 1_655 S
C2564 C2565 1.502 . S
C2564 C2566 1.561 . S
C2564 C2567 1.526 . S
C2565 H2549 0.959 . S
C2565 H2550 0.959 . S
C2565 H2551 0.961 . S
C2565 C2564 1.502 . S
C2566 H2552 0.960 . S
C2566 H2553 0.961 . S
C2566 H2554 0.959 . S
C2566 C2564 1.561 . S
C2567 C2564 1.526 . S
C2567 C2568 1.409 . S
C2567 C2572 1.390 . S
C2568 C2562 1.455 1_655 S
C2568 C2567 1.409 . S
C2568 C2569 1.398 1_655 S
C2569 H2555 0.945 . S
C2569 C2568 1.398 1_455 S
C2569 C2570 1.370 1_455 S
C2570 H2556 0.931 . S
C2570 C2569 1.370 1_655 S
C2570 C2571 1.389 . S
C2571 C2570 1.389 . S
C2571 C2572 1.387 . S
C2572 H2557 0.930 . S
C2572 C2567 1.390 . S
C2572 C2571 1.387 . S
H2573 C2585 0.930 . S
H2574 C2587 0.930 . S
H2575 C2588 0.930 . S
H2576 C2592 0.959 . S
H2577 C2592 0.959 . S
H2578 C2592 0.961 . S
H2579 C2593 0.960 . S
H2580 C2593 0.961 . S
H2581 C2593 0.959 . S
H2582 C2596 0.929 . S
H2583 C2597 0.931 . S
H2584 C2599 0.930 . S
C2585 H2573 0.930 . S
C2585 C2586 1.399 . S
C2585 C2590 1.399 . S
C2586 C2585 1.399 . S
C2586 C2587 1.376 . S
C2587 H2574 0.930 . S
C2587 C2586 1.376 . S
C2587 C2588 1.388 . S
C2588 H2575 0.930 . S
C2588 C2587 1.388 . S
C2588 C2589 1.390 . S
C2589 C2588 1.390 . S
C2589 C2590 1.394 . S
C2589 C2595 1.465 1_655 S
C2590 C2585 1.399 . S
C2590 C2589 1.394 . S
C2590 C2591 1.516 1_655 S
C2591 C2590 1.516 1_455 S
C2591 C2592 1.502 1_455 S
C2591 C2593 1.561 . S
C2591 C2594 1.526 . S
C2592 H2576 0.959 . S
C2592 H2577 0.959 . S
C2592 H2578 0.961 . S
C2592 C2591 1.502 1_655 S
C2593 H2579 0.960 . S
C2593 H2580 0.961 . S
C2593 H2581 0.959 . S
C2593 C2591 1.561 . S
C2594 C2591 1.526 . S
C2594 C2595 1.396 . S
C2594 C2599 1.390 . S
C2595 C2589 1.465 1_455 S
C2595 C2594 1.396 . S
C2595 C2596 1.399 . S
C2596 H2582 0.929 . S
C2596 C2595 1.399 . S
C2596 C2597 1.385 . S
C2597 H2583 0.931 . S
C2597 C2596 1.385 . S
C2597 C2598 1.389 . S
C2598 C2597 1.389 . S
C2598 C2599 1.387 . S
C2599 H2584 0.930 . S
C2599 C2594 1.390 . S
C2599 C2598 1.387 . S
H2600 C2612 0.930 . S
H2601 C2614 0.930 . S
H2602 C2615 0.930 . S
H2603 C2619 0.959 . S
H2604 C2619 0.959 . S
H2605 C2619 0.961 . S
H2606 C2620 0.960 . S
H2607 C2620 0.961 . S
H2608 C2620 0.959 . S
H2609 C2623 0.929 . S
H2610 C2624 0.931 . S
H2611 C2626 0.930 . S
C2612 H2600 0.930 . S
C2612 C2613 1.399 . S
C2612 C2617 1.399 . S
C2613 C2612 1.399 . S
C2613 C2614 1.376 . S
C2614 H2601 0.930 . S
C2614 C2613 1.376 . S
C2614 C2615 1.388 . S
C2615 H2602 0.930 . S
C2615 C2614 1.388 . S
C2615 C2616 1.390 . S
C2616 C2615 1.390 . S
C2616 C2617 1.394 . S
C2616 C2622 1.465 . S
C2617 C2612 1.399 . S
C2617 C2616 1.394 . S
C2617 C2618 1.516 . S
C2618 C2617 1.516 . S
C2618 C2619 1.502 . S
C2618 C2620 1.561 . S
C2618 C2621 1.526 . S
C2619 H2603 0.959 . S
C2619 H2604 0.959 . S
C2619 H2605 0.961 . S
C2619 C2618 1.502 . S
C2620 H2606 0.960 . S
C2620 H2607 0.961 . S
C2620 H2608 0.959 . S
C2620 C2618 1.561 . S
C2621 C2618 1.526 . S
C2621 C2622 1.396 . S
C2621 C2626 1.390 . S
C2622 C2616 1.465 . S
C2622 C2621 1.396 . S
C2622 C2623 1.399 . S
C2623 H2609 0.929 . S
C2623 C2622 1.399 . S
C2623 C2624 1.385 . S
C2624 H2610 0.931 . S
C2624 C2623 1.385 . S
C2624 C2625 1.389 . S
C2625 C2624 1.389 . S
C2625 C2626 1.387 . S
C2626 H2611 0.930 . S
C2626 C2621 1.390 . S
C2626 C2625 1.387 . S
H2627 C2639 0.930 . S
H2628 C2641 0.930 . S
H2629 C2642 0.930 . S
H2630 C2646 0.959 . S
H2631 C2646 0.959 . S
H2632 C2646 0.961 . S
H2633 C2647 0.960 . S
H2634 C2647 0.961 . S
H2635 C2647 0.959 . S
H2636 C2650 0.929 . S
H2637 C2651 0.931 . S
H2638 C2653 0.930 . S
C2639 H2627 0.930 . S
C2639 C2640 1.399 . S
C2639 C2644 1.399 . S
C2640 C2639 1.399 . S
C2640 C2641 1.376 . S
C2641 H2628 0.930 . S
C2641 C2640 1.376 . S
C2641 C2642 1.388 . S
C2642 H2629 0.930 . S
C2642 C2641 1.388 . S
C2642 C2643 1.390 . S
C2643 C2642 1.390 . S
C2643 C2644 1.394 . S
C2643 C2649 1.465 1_655 S
C2644 C2639 1.399 . S
C2644 C2643 1.394 . S
C2644 C2645 1.510 1_655 S
C2645 C2644 1.510 1_455 S
C2645 C2646 1.508 . S
C2645 C2647 1.555 1_455 S
C2645 C2648 1.532 . S
C2646 H2630 0.959 . S
C2646 H2631 0.959 . S
C2646 H2632 0.961 . S
C2646 C2645 1.508 . S
C2647 H2633 0.960 . S
C2647 H2634 0.961 . S
C2647 H2635 0.959 . S
C2647 C2645 1.555 1_655 S
C2648 C2645 1.532 . S
C2648 C2649 1.396 . S
C2648 C2653 1.390 . S
C2649 C2643 1.465 1_455 S
C2649 C2648 1.396 . S
C2649 C2650 1.399 . S
C2650 H2636 0.929 . S
C2650 C2649 1.399 . S
C2650 C2651 1.385 . S
C2651 H2637 0.931 . S
C2651 C2650 1.385 . S
C2651 C2652 1.389 . S
C2652 C2651 1.389 . S
C2652 C2653 1.387 . S
C2653 H2638 0.930 . S
C2653 C2648 1.390 . S
C2653 C2652 1.387 . S
H2654 C2666 0.930 . S
H2655 C2668 0.930 . S
H2656 C2669 0.930 . S
H2657 C2673 0.959 . S
H2658 C2673 0.959 . S
H2659 C2673 0.961 . S
H2660 C2674 0.960 . S
H2661 C2674 0.961 . S
H2662 C2674 0.959 . S
H2663 C2677 0.929 . S
H2664 C2678 0.931 . S
H2665 C2680 0.930 . S
C2666 H2654 0.930 . S
C2666 C2667 1.399 . S
C2666 C2671 1.399 . S
C2667 C2666 1.399 . S
C2667 C2668 1.376 . S
C2668 H2655 0.930 . S
C2668 C2667 1.376 . S
C2668 C2669 1.388 . S
C2669 H2656 0.930 . S
C2669 C2668 1.388 . S
C2669 C2670 1.390 . S
C2670 C2669 1.390 . S
C2670 C2671 1.394 . S
C2670 C2676 1.465 1_655 S
C2671 C2666 1.399 . S
C2671 C2670 1.394 . S
C2671 C2672 1.516 . S
C2672 C2671 1.516 . S
C2672 C2673 1.502 . S
C2672 C2674 1.561 1_655 S
C2672 C2675 1.526 1_655 S
C2673 H2657 0.959 . S
C2673 H2658 0.959 . S
C2673 H2659 0.961 . S
C2673 C2672 1.502 . S
C2674 H2660 0.960 . S
C2674 H2661 0.961 . S
C2674 H2662 0.959 . S
C2674 C2672 1.561 1_455 S
C2675 C2672 1.526 1_455 S
C2675 C2676 1.396 . S
C2675 C2680 1.390 . S
C2676 C2670 1.465 1_455 S
C2676 C2675 1.396 . S
C2676 C2677 1.399 . S
C2677 H2663 0.929 . S
C2677 C2676 1.399 . S
C2677 C2678 1.385 . S
C2678 H2664 0.931 . S
C2678 C2677 1.385 . S
C2678 C2679 1.389 . S
C2679 C2678 1.389 . S
C2679 C2680 1.387 . S
C2680 H2665 0.930 . S
C2680 C2675 1.390 . S
C2680 C2679 1.387 . S
H2681 C2693 0.930 . S
H2682 C2695 0.930 . S
H2683 C2696 0.930 . S
H2684 C2700 0.959 . S
H2685 C2700 0.959 . S
H2686 C2700 0.961 . S
H2687 C2701 0.960 . S
H2688 C2701 0.961 . S
H2689 C2701 0.959 . S
H2690 C2704 0.929 . S
H2691 C2705 0.931 . S
H2692 C2707 0.930 . S
C2693 H2681 0.930 . S
C2693 C2694 1.399 . S
C2693 C2698 1.399 . S
C2694 C2693 1.399 . S
C2694 C2695 1.376 . S
C2695 H2682 0.930 . S
C2695 C2694 1.376 . S
C2695 C2696 1.388 . S
C2696 H2683 0.930 . S
C2696 C2695 1.388 . S
C2696 C2697 1.390 . S
C2697 C2696 1.390 . S
C2697 C2698 1.394 . S
C2697 C2703 1.465 . S
C2698 C2693 1.399 . S
C2698 C2697 1.394 . S
C2698 C2699 1.516 . S
C2699 C2698 1.516 . S
C2699 C2700 1.502 . S
C2699 C2701 1.561 . S
C2699 C2702 1.526 . S
C2700 H2684 0.959 . S
C2700 H2685 0.959 . S
C2700 H2686 0.961 . S
C2700 C2699 1.502 . S
C2701 H2687 0.960 . S
C2701 H2688 0.961 . S
C2701 H2689 0.959 . S
C2701 C2699 1.561 . S
C2702 C2699 1.526 . S
C2702 C2703 1.396 . S
C2702 C2707 1.390 . S
C2703 C2697 1.465 . S
C2703 C2702 1.396 . S
C2703 C2704 1.399 . S
C2704 H2690 0.929 . S
C2704 C2703 1.399 . S
C2704 C2705 1.385 . S
C2705 H2691 0.931 . S
C2705 C2704 1.385 . S
C2705 C2706 1.389 . S
C2706 C2705 1.389 . S
C2706 C2707 1.387 . S
C2707 H2692 0.930 . S
C2707 C2702 1.390 . S
C2707 C2706 1.387 . S
H2708 C2720 0.930 . S
H2709 C2722 0.930 . S
H2710 C2723 0.930 . S
H2711 C2727 0.959 . S
H2712 C2727 0.959 . S
H2713 C2727 0.961 . S
H2714 C2728 0.960 . S
H2715 C2728 0.961 . S
H2716 C2728 0.959 . S
H2717 C2731 0.929 . S
H2718 C2732 0.931 . S
H2719 C2734 0.930 . S
C2720 H2708 0.930 . S
C2720 C2721 1.399 . S
C2720 C2725 1.399 . S
C2721 C2720 1.399 . S
C2721 C2722 1.376 . S
C2722 H2709 0.930 . S
C2722 C2721 1.376 . S
C2722 C2723 1.388 . S
C2723 H2710 0.930 . S
C2723 C2722 1.388 . S
C2723 C2724 1.390 . S
C2724 C2723 1.390 . S
C2724 C2725 1.394 . S
C2724 C2730 1.465 . S
C2725 C2720 1.399 . S
C2725 C2724 1.394 . S
C2725 C2726 1.516 . S
C2726 C2725 1.516 . S
C2726 C2727 1.502 . S
C2726 C2728 1.561 . S
C2726 C2729 1.526 . S
C2727 H2711 0.959 . S
C2727 H2712 0.959 . S
C2727 H2713 0.961 . S
C2727 C2726 1.502 . S
C2728 H2714 0.960 . S
C2728 H2715 0.961 . S
C2728 H2716 0.959 . S
C2728 C2726 1.561 . S
C2729 C2726 1.526 . S
C2729 C2730 1.396 . S
C2729 C2734 1.390 . S
C2730 C2724 1.465 . S
C2730 C2729 1.396 . S
C2730 C2731 1.399 . S
C2731 H2717 0.929 . S
C2731 C2730 1.399 . S
C2731 C2732 1.385 . S
C2732 H2718 0.931 . S
C2732 C2731 1.385 . S
C2732 C2733 1.389 . S
C2733 C2732 1.389 . S
C2733 C2734 1.387 . S
C2734 H2719 0.930 . S
C2734 C2729 1.390 . S
C2734 C2733 1.387 . S
H2735 C2747 0.930 . S
H2736 C2749 0.930 . S
H2737 C2750 0.930 . S
H2738 C2754 0.959 . S
H2739 C2754 0.959 . S
H2740 C2754 0.961 . S
H2741 C2755 0.960 . S
H2742 C2755 0.961 . S
H2743 C2755 0.959 . S
H2744 C2758 0.929 . S
H2745 C2759 0.931 . S
H2746 C2761 0.930 . S
C2747 H2735 0.930 . S
C2747 C2748 1.399 . S
C2747 C2752 1.399 . S
C2748 C2747 1.399 . S
C2748 C2749 1.376 . S
C2749 H2736 0.930 . S
C2749 C2748 1.376 . S
C2749 C2750 1.388 . S
C2750 H2737 0.930 . S
C2750 C2749 1.388 . S
C2750 C2751 1.390 . S
C2751 C2750 1.390 . S
C2751 C2752 1.394 . S
C2751 C2757 1.465 . S
C2752 C2747 1.399 . S
C2752 C2751 1.394 . S
C2752 C2753 1.516 . S
C2753 C2752 1.516 . S
C2753 C2754 1.502 . S
C2753 C2755 1.561 . S
C2753 C2756 1.526 . S
C2754 H2738 0.959 . S
C2754 H2739 0.959 . S
C2754 H2740 0.961 . S
C2754 C2753 1.502 . S
C2755 H2741 0.960 . S
C2755 H2742 0.961 . S
C2755 H2743 0.959 . S
C2755 C2753 1.561 . S
C2756 C2753 1.526 . S
C2756 C2757 1.396 . S
C2756 C2761 1.390 . S
C2757 C2751 1.465 . S
C2757 C2756 1.396 . S
C2757 C2758 1.399 . S
C2758 H2744 0.929 . S
C2758 C2757 1.399 . S
C2758 C2759 1.385 . S
C2759 H2745 0.931 . S
C2759 C2758 1.385 . S
C2759 C2760 1.389 . S
C2760 C2759 1.389 . S
C2760 C2761 1.387 . S
C2761 H2746 0.930 . S
C2761 C2756 1.390 . S
C2761 C2760 1.387 . S
H2762 C2774 0.930 . S
H2763 C2776 0.930 . S
H2764 C2777 0.930 . S
H2765 C2781 0.959 . S
H2766 C2781 0.959 . S
H2767 C2781 0.961 . S
H2768 C2782 0.960 . S
H2769 C2782 0.964 1_455 S
H2770 C2782 0.959 . S
H2771 C2785 0.929 . S
H2772 C2786 0.931 . S
H2773 C2788 0.930 . S
C2774 H2762 0.930 . S
C2774 C2775 1.399 . S
C2774 C2779 1.399 . S
C2775 C2774 1.399 . S
C2775 C2776 1.376 . S
C2776 H2763 0.930 . S
C2776 C2775 1.376 . S
C2776 C2777 1.388 . S
C2777 H2764 0.930 . S
C2777 C2776 1.388 . S
C2777 C2778 1.390 . S
C2778 C2777 1.390 . S
C2778 C2779 1.394 . S
C2778 C2784 1.465 1_655 S
C2779 C2774 1.399 . S
C2779 C2778 1.394 . S
C2779 C2780 1.516 1_655 S
C2780 C2779 1.516 1_455 S
C2780 C2781 1.502 . S
C2780 C2782 1.561 1_455 S
C2780 C2783 1.526 . S
C2781 H2765 0.959 . S
C2781 H2766 0.959 . S
C2781 H2767 0.961 . S
C2781 C2780 1.502 . S
C2782 H2768 0.960 . S
C2782 H2769 0.964 1_655 S
C2782 H2770 0.959 . S
C2782 C2780 1.561 1_655 S
C2783 C2780 1.526 . S
C2783 C2784 1.396 . S
C2783 C2788 1.390 . S
C2784 C2778 1.465 1_455 S
C2784 C2783 1.396 . S
C2784 C2785 1.399 . S
C2785 H2771 0.929 . S
C2785 C2784 1.399 . S
C2785 C2786 1.385 . S
C2786 H2772 0.931 . S
C2786 C2785 1.385 . S
C2786 C2787 1.389 . S
C2787 C2786 1.389 . S
C2787 C2788 1.387 . S
C2788 H2773 0.930 . S
C2788 C2783 1.390 . S
C2788 C2787 1.387 . S
H2789 C2801 0.930 . S
H2790 C2803 0.930 . S
H2791 C2804 0.930 . S
H2792 C2808 0.959 . S
H2793 C2808 0.959 . S
H2794 C2808 0.961 . S
H2795 C2809 0.960 1_655 S
H2796 C2809 0.961 . S
H2797 C2809 0.959 . S
H2798 C2812 0.929 . S
H2799 C2813 0.931 . S
H2800 C2815 0.930 . S
C2801 H2789 0.930 . S
C2801 C2802 1.399 . S
C2801 C2806 1.399 . S
C2802 C2801 1.399 . S
C2802 C2803 1.376 . S
C2803 H2790 0.930 . S
C2803 C2802 1.376 . S
C2803 C2804 1.388 . S
C2804 H2791 0.930 . S
C2804 C2803 1.388 . S
C2804 C2805 1.390 . S
C2805 C2804 1.390 . S
C2805 C2806 1.394 . S
C2805 C2811 1.465 1_655 S
C2806 C2801 1.399 . S
C2806 C2805 1.394 . S
C2806 C2807 1.516 . S
C2807 C2806 1.516 . S
C2807 C2808 1.502 . S
C2807 C2809 1.561 1_655 S
C2807 C2810 1.526 1_655 S
C2808 H2792 0.959 . S
C2808 H2793 0.959 . S
C2808 H2794 0.961 . S
C2808 C2807 1.502 . S
C2809 H2795 0.960 1_455 S
C2809 H2796 0.961 . S
C2809 H2797 0.959 . S
C2809 C2807 1.561 1_455 S
C2810 C2807 1.526 1_455 S
C2810 C2811 1.396 . S
C2810 C2815 1.390 . S
C2811 C2805 1.465 1_455 S
C2811 C2810 1.396 . S
C2811 C2812 1.399 . S
C2812 H2798 0.929 . S
C2812 C2811 1.399 . S
C2812 C2813 1.385 . S
C2813 H2799 0.931 . S
C2813 C2812 1.385 . S
C2813 C2814 1.389 . S
C2814 C2813 1.389 . S
C2814 C2815 1.387 . S
C2815 H2800 0.930 . S
C2815 C2810 1.390 . S
C2815 C2814 1.387 . S
H2816 C2828 0.930 . S
H2817 C2830 0.930 . S
H2818 C2831 0.930 . S
H2819 C2835 0.959 1_545 S
H2820 C2835 0.959 1_545 S
H2821 C2835 0.961 . S
H2822 C2836 0.960 . S
H2823 C2836 0.961 . S
H2824 C2836 0.959 . S
H2825 C2839 0.929 . S
H2826 C2840 0.931 . S
H2827 C2842 0.930 . S
C2828 H2816 0.930 . S
C2828 C2829 1.399 . S
C2828 C2833 1.399 . S
C2829 C2828 1.399 . S
C2829 C2830 1.376 . S
C2830 H2817 0.930 . S
C2830 C2829 1.376 . S
C2830 C2831 1.388 . S
C2831 H2818 0.930 . S
C2831 C2830 1.388 . S
C2831 C2832 1.390 . S
C2832 C2831 1.390 . S
C2832 C2833 1.394 . S
C2832 C2838 1.465 1_565 S
C2833 C2828 1.399 . S
C2833 C2832 1.394 . S
C2833 C2834 1.516 . S
C2834 C2833 1.516 . S
C2834 C2835 1.502 . S
C2834 C2836 1.561 . S
C2834 C2837 1.526 1_565 S
C2835 H2819 0.959 1_565 S
C2835 H2820 0.959 1_565 S
C2835 H2821 0.961 . S
C2835 C2834 1.502 . S
C2836 H2822 0.960 . S
C2836 H2823 0.961 . S
C2836 H2824 0.959 . S
C2836 C2834 1.561 . S
C2837 C2834 1.526 1_545 S
C2837 C2838 1.396 . S
C2837 C2842 1.390 . S
C2838 C2832 1.465 1_545 S
C2838 C2837 1.396 . S
C2838 C2839 1.399 . S
C2839 H2825 0.929 . S
C2839 C2838 1.399 . S
C2839 C2840 1.385 . S
C2840 H2826 0.931 . S
C2840 C2839 1.385 . S
C2840 C2841 1.389 . S
C2841 C2840 1.389 . S
C2841 C2842 1.387 . S
C2842 H2827 0.930 . S
C2842 C2837 1.390 . S
C2842 C2841 1.387 . S
H2843 C2855 0.930 . S
H2844 C2857 0.930 . S
H2845 C2858 0.930 . S
H2846 C2862 0.959 . S
H2847 C2862 0.959 . S
H2848 C2862 0.961 . S
H2849 C2863 0.960 . S
H2850 C2863 0.961 . S
H2851 C2863 0.959 . S
H2852 C2866 0.929 . S
H2853 C2867 0.931 . S
H2854 C2869 0.930 . S
C2855 H2843 0.930 . S
C2855 C2856 1.399 . S
C2855 C2860 1.399 . S
C2856 C2855 1.399 . S
C2856 C2857 1.376 . S
C2857 H2844 0.930 . S
C2857 C2856 1.376 . S
C2857 C2858 1.388 . S
C2858 H2845 0.930 . S
C2858 C2857 1.388 . S
C2858 C2859 1.390 . S
C2859 C2858 1.390 . S
C2859 C2860 1.394 . S
C2859 C2865 1.465 . S
C2860 C2855 1.399 . S
C2860 C2859 1.394 . S
C2860 C2861 1.516 . S
C2861 C2860 1.516 . S
C2861 C2862 1.502 . S
C2861 C2863 1.561 . S
C2861 C2864 1.526 . S
C2862 H2846 0.959 . S
C2862 H2847 0.959 . S
C2862 H2848 0.961 . S
C2862 C2861 1.502 . S
C2863 H2849 0.960 . S
C2863 H2850 0.961 . S
C2863 H2851 0.959 . S
C2863 C2861 1.561 . S
C2864 C2861 1.526 . S
C2864 C2865 1.396 . S
C2864 C2869 1.390 . S
C2865 C2859 1.465 . S
C2865 C2864 1.396 . S
C2865 C2866 1.399 . S
C2866 H2852 0.929 . S
C2866 C2865 1.399 . S
C2866 C2867 1.385 . S
C2867 H2853 0.931 . S
C2867 C2866 1.385 . S
C2867 C2868 1.389 . S
C2868 C2867 1.389 . S
C2868 C2869 1.387 . S
C2869 H2854 0.930 . S
C2869 C2864 1.390 . S
C2869 C2868 1.387 . S
H2870 C2882 0.930 . S
H2871 C2884 0.930 . S
H2872 C2885 0.930 1_545 S
H2873 C2889 0.959 . S
H2874 C2889 0.959 . S
H2875 C2889 0.961 . S
H2876 C2890 0.960 . S
H2877 C2890 0.961 . S
H2878 C2890 0.959 . S
H2879 C2893 0.929 . S
H2880 C2894 0.931 . S
H2881 C2896 0.930 . S
C2882 H2870 0.930 . S
C2882 C2883 1.399 . S
C2882 C2887 1.399 . S
C2883 C2882 1.399 . S
C2883 C2884 1.376 . S
C2884 H2871 0.930 . S
C2884 C2883 1.376 . S
C2884 C2885 1.388 . S
C2885 H2872 0.930 1_565 S
C2885 C2884 1.388 . S
C2885 C2886 1.390 . S
C2886 C2885 1.390 . S
C2886 C2887 1.394 . S
C2886 C2892 1.465 1_565 S
C2887 C2882 1.399 . S
C2887 C2886 1.394 . S
C2887 C2888 1.516 . S
C2888 C2887 1.516 . S
C2888 C2889 1.502 . S
C2888 C2890 1.561 . S
C2888 C2891 1.526 1_565 S
C2889 H2873 0.959 . S
C2889 H2874 0.959 . S
C2889 H2875 0.961 . S
C2889 C2888 1.502 . S
C2890 H2876 0.960 . S
C2890 H2877 0.961 . S
C2890 H2878 0.959 . S
C2890 C2888 1.561 . S
C2891 C2888 1.526 1_545 S
C2891 C2892 1.396 . S
C2891 C2896 1.390 . S
C2892 C2886 1.465 1_545 S
C2892 C2891 1.396 . S
C2892 C2893 1.399 . S
C2893 H2879 0.929 . S
C2893 C2892 1.399 . S
C2893 C2894 1.385 . S
C2894 H2880 0.931 . S
C2894 C2893 1.385 . S
C2894 C2895 1.389 . S
C2895 C2894 1.389 . S
C2895 C2896 1.387 . S
C2896 H2881 0.930 . S
C2896 C2891 1.390 . S
C2896 C2895 1.387 . S
H2897 C2909 0.930 . S
H2898 C2911 0.930 . S
H2899 C2912 0.930 . S
H2900 C2916 0.959 . S
H2901 C2916 0.959 . S
H2902 C2916 0.961 . S
H2903 C2917 0.960 . S
H2904 C2917 0.996 . S
H2905 C2917 0.959 . S
H2906 C2920 0.929 . S
H2907 C2921 0.931 . S
H2908 C2923 0.930 . S
C2909 H2897 0.930 . S
C2909 C2910 1.399 . S
C2909 C2914 1.399 . S
C2910 C2909 1.399 . S
C2910 C2911 1.376 . S
C2911 H2898 0.930 . S
C2911 C2910 1.376 . S
C2911 C2912 1.388 . S
C2912 H2899 0.930 . S
C2912 C2911 1.388 . S
C2912 C2913 1.390 . S
C2913 C2912 1.390 . S
C2913 C2914 1.394 . S
C2913 C2919 1.465 1_554 S
C2914 C2909 1.399 . S
C2914 C2913 1.394 . S
C2914 C2915 1.516 1_554 S
C2915 C2914 1.516 1_556 S
C2915 C2916 1.502 . S
C2915 C2917 1.561 1_556 S
C2915 C2918 1.526 . S
C2916 H2900 0.959 . S
C2916 H2901 0.959 . S
C2916 H2902 0.961 . S
C2916 C2915 1.502 . S
C2917 H2903 0.960 . S
C2917 H2904 0.996 . S
C2917 H2905 0.959 . S
C2917 C2915 1.561 1_554 S
C2918 C2915 1.526 . S
C2918 C2919 1.396 . S
C2918 C2923 1.390 . S
C2919 C2913 1.465 1_556 S
C2919 C2918 1.396 . S
C2919 C2920 1.399 . S
C2920 H2906 0.929 . S
C2920 C2919 1.399 . S
C2920 C2921 1.385 . S
C2921 H2907 0.931 . S
C2921 C2920 1.385 . S
C2921 C2922 1.389 . S
C2922 C2921 1.389 . S
C2922 C2923 1.387 . S
C2923 H2908 0.930 . S
C2923 C2918 1.390 . S
C2923 C2922 1.387 . S
H2924 C2936 0.930 . S
H2925 C2938 0.930 . S
H2926 C2939 0.930 1_545 S
H2927 C2943 0.959 . S
H2928 C2943 0.959 . S
H2929 C2943 0.961 . S
H2930 C2944 0.960 . S
H2931 C2944 0.961 . S
H2932 C2944 0.959 . S
H2933 C2947 0.929 . S
H2934 C2948 0.931 . S
H2935 C2950 0.930 . S
C2936 H2924 0.930 . S
C2936 C2937 1.399 . S
C2936 C2941 1.399 . S
C2937 C2936 1.399 . S
C2937 C2938 1.376 . S
C2938 H2925 0.930 . S
C2938 C2937 1.376 . S
C2938 C2939 1.388 . S
C2939 H2926 0.930 1_565 S
C2939 C2938 1.388 . S
C2939 C2940 1.390 . S
C2940 C2939 1.390 . S
C2940 C2941 1.394 . S
C2940 C2946 1.465 1_565 S
C2941 C2936 1.399 . S
C2941 C2940 1.394 . S
C2941 C2942 1.516 . S
C2942 C2941 1.516 . S
C2942 C2943 1.502 . S
C2942 C2944 1.561 . S
C2942 C2945 1.526 1_565 S
C2943 H2927 0.959 . S
C2943 H2928 0.959 . S
C2943 H2929 0.961 . S
C2943 C2942 1.502 . S
C2944 H2930 0.960 . S
C2944 H2931 0.961 . S
C2944 H2932 0.959 . S
C2944 C2942 1.561 . S
C2945 C2942 1.526 1_545 S
C2945 C2946 1.396 . S
C2945 C2950 1.390 . S
C2946 C2940 1.465 1_545 S
C2946 C2945 1.396 . S
C2946 C2947 1.399 . S
C2947 H2933 0.929 . S
C2947 C2946 1.399 . S
C2947 C2948 1.385 . S
C2948 H2934 0.931 . S
C2948 C2947 1.385 . S
C2948 C2949 1.389 . S
C2949 C2948 1.389 . S
C2949 C2950 1.387 . S
C2950 H2935 0.930 . S
C2950 C2945 1.390 . S
C2950 C2949 1.387 . S
H2951 C2963 0.930 . S
H2952 C2965 0.930 . S
H2953 C2966 0.930 . S
H2954 C2970 0.959 . S
H2955 C2970 0.959 . S
H2956 C2970 0.961 . S
H2957 C2971 0.960 . S
H2958 C2971 0.961 . S
H2959 C2971 0.959 . S
H2960 C2974 0.929 . S
H2961 C2975 0.931 . S
H2962 C2977 0.930 . S
C2963 H2951 0.930 . S
C2963 C2964 1.399 . S
C2963 C2968 1.399 . S
C2964 C2963 1.399 . S
C2964 C2965 1.376 . S
C2965 H2952 0.930 . S
C2965 C2964 1.376 . S
C2965 C2966 1.388 . S
C2966 H2953 0.930 . S
C2966 C2965 1.388 . S
C2966 C2967 1.390 . S
C2967 C2966 1.390 . S
C2967 C2968 1.394 . S
C2967 C2973 1.465 . S
C2968 C2963 1.399 . S
C2968 C2967 1.394 . S
C2968 C2969 1.516 . S
C2969 C2968 1.516 . S
C2969 C2970 1.502 . S
C2969 C2971 1.561 . S
C2969 C2972 1.526 . S
C2970 H2954 0.959 . S
C2970 H2955 0.959 . S
C2970 H2956 0.961 . S
C2970 C2969 1.502 . S
C2971 H2957 0.960 . S
C2971 H2958 0.961 . S
C2971 H2959 0.959 . S
C2971 C2969 1.561 . S
C2972 C2969 1.526 . S
C2972 C2973 1.396 . S
C2972 C2977 1.390 . S
C2973 C2967 1.465 . S
C2973 C2972 1.396 . S
C2973 C2974 1.399 . S
C2974 H2960 0.929 . S
C2974 C2973 1.399 . S
C2974 C2975 1.385 . S
C2975 H2961 0.931 . S
C2975 C2974 1.385 . S
C2975 C2976 1.389 . S
C2976 C2975 1.389 . S
C2976 C2977 1.387 . S
C2977 H2962 0.930 . S
C2977 C2972 1.390 . S
C2977 C2976 1.387 . S
H2978 C2990 0.930 . S
H2979 C2992 0.930 . S
H2980 C2993 0.930 . S
H2981 C2997 0.948 1_545 S
H2982 C2997 0.959 . S
H2983 C2997 0.961 . S
H2984 C2998 0.960 . S
H2985 C2998 0.961 . S
H2986 C2998 0.959 . S
H2987 C3001 0.929 . S
H2988 C3002 0.931 . S
H2989 C3004 0.930 . S
C2990 H2978 0.930 . S
C2990 C2991 1.399 . S
C2990 C2995 1.399 . S
C2991 C2990 1.399 . S
C2991 C2992 1.376 . S
C2992 H2979 0.930 . S
C2992 C2991 1.376 . S
C2992 C2993 1.388 . S
C2993 H2980 0.930 . S
C2993 C2992 1.388 . S
C2993 C2994 1.390 . S
C2994 C2993 1.390 . S
C2994 C2995 1.394 . S
C2994 C3000 1.465 1_545 S
C2995 C2990 1.399 . S
C2995 C2994 1.394 . S
C2995 C2996 1.516 1_545 S
C2996 C2995 1.516 1_565 S
C2996 C2997 1.502 . S
C2996 C2998 1.561 . S
C2996 C2999 1.526 . S
C2997 H2981 0.948 1_565 S
C2997 H2982 0.959 . S
C2997 H2983 0.961 . S
C2997 C2996 1.502 . S
C2998 H2984 0.960 . S
C2998 H2985 0.961 . S
C2998 H2986 0.959 . S
C2998 C2996 1.561 . S
C2999 C2996 1.526 . S
C2999 C3000 1.396 . S
C2999 C3004 1.390 . S
C3000 C2994 1.465 1_565 S
C3000 C2999 1.396 . S
C3000 C3001 1.399 . S
C3001 H2987 0.929 . S
C3001 C3000 1.399 . S
C3001 C3002 1.385 . S
C3002 H2988 0.931 . S
C3002 C3001 1.385 . S
C3002 C3003 1.389 . S
C3003 C3002 1.389 . S
C3003 C3004 1.387 . S
C3004 H2989 0.930 . S
C3004 C2999 1.390 . S
C3004 C3003 1.387 . S
H3005 C3017 0.930 . S
H3006 C3019 0.930 . S
H3007 C3020 0.930 . S
H3008 C3024 0.959 . S
H3009 C3024 0.959 . S
H3010 C3024 0.961 . S
H3011 C3025 0.960 . S
H3012 C3025 0.961 1_554 S
H3013 C3025 0.959 . S
H3014 C3028 0.929 1_556 S
H3015 C3029 0.931 . S
H3016 C3031 0.930 . S
C3017 H3005 0.930 . S
C3017 C3018 1.399 . S
C3017 C3022 1.399 . S
C3018 C3017 1.399 . S
C3018 C3019 1.376 . S
C3019 H3006 0.930 . S
C3019 C3018 1.376 . S
C3019 C3020 1.388 . S
C3020 H3007 0.930 . S
C3020 C3019 1.388 . S
C3020 C3021 1.390 . S
C3021 C3020 1.390 . S
C3021 C3022 1.394 . S
C3021 C3027 1.465 1_556 S
C3022 C3017 1.399 . S
C3022 C3021 1.394 . S
C3022 C3023 1.516 1_556 S
C3023 C3022 1.516 1_554 S
C3023 C3024 1.502 . S
C3023 C3025 1.561 1_554 S
C3023 C3026 1.526 . S
C3024 H3008 0.959 . S
C3024 H3009 0.959 . S
C3024 H3010 0.961 . S
C3024 C3023 1.502 . S
C3025 H3011 0.960 . S
C3025 H3012 0.961 1_556 S
C3025 H3013 0.959 . S
C3025 C3023 1.561 1_556 S
C3026 C3023 1.526 . S
C3026 C3027 1.396 . S
C3026 C3031 1.390 . S
C3027 C3021 1.465 1_554 S
C3027 C3026 1.396 . S
C3027 C3028 1.399 . S
C3028 H3014 0.929 1_554 S
C3028 C3027 1.399 . S
C3028 C3029 1.385 . S
C3029 H3015 0.931 . S
C3029 C3028 1.385 . S
C3029 C3030 1.389 . S
C3030 C3029 1.389 . S
C3030 C3031 1.387 . S
C3031 H3016 0.930 . S
C3031 C3026 1.390 . S
C3031 C3030 1.387 . S
H3032 C3044 0.930 . S
H3033 C3046 0.930 . S
H3034 C3047 0.930 . S
H3035 C3051 0.959 . S
H3036 C3051 0.959 . S
H3037 C3051 0.961 . S
H3038 C3052 0.960 . S
H3039 C3052 0.961 . S
H3040 C3052 0.959 . S
H3041 C3055 0.929 . S
H3042 C3056 0.931 . S
H3043 C3058 0.930 . S
C3044 H3032 0.930 . S
C3044 C3045 1.399 . S
C3044 C3049 1.399 . S
C3045 C3044 1.399 . S
C3045 C3046 1.376 . S
C3046 H3033 0.930 . S
C3046 C3045 1.376 . S
C3046 C3047 1.388 . S
C3047 H3034 0.930 . S
C3047 C3046 1.388 . S
C3047 C3048 1.390 . S
C3048 C3047 1.390 . S
C3048 C3049 1.394 . S
C3048 C3054 1.465 . S
C3049 C3044 1.399 . S
C3049 C3048 1.394 . S
C3049 C3050 1.516 . S
C3050 C3049 1.516 . S
C3050 C3051 1.502 . S
C3050 C3052 1.561 . S
C3050 C3053 1.526 . S
C3051 H3035 0.959 . S
C3051 H3036 0.959 . S
C3051 H3037 0.961 . S
C3051 C3050 1.502 . S
C3052 H3038 0.960 . S
C3052 H3039 0.961 . S
C3052 H3040 0.959 . S
C3052 C3050 1.561 . S
C3053 C3050 1.526 . S
C3053 C3054 1.396 . S
C3053 C3058 1.390 . S
C3054 C3048 1.465 . S
C3054 C3053 1.396 . S
C3054 C3055 1.399 . S
C3055 H3041 0.929 . S
C3055 C3054 1.399 . S
C3055 C3056 1.385 . S
C3056 H3042 0.931 . S
C3056 C3055 1.385 . S
C3056 C3057 1.389 . S
C3057 C3056 1.389 . S
C3057 C3058 1.387 . S
C3058 H3043 0.930 . S
C3058 C3053 1.390 . S
C3058 C3057 1.387 . S
H3059 C3071 0.930 . S
H3060 C3073 0.930 . S
H3061 C3074 0.967 . S
H3062 C3078 0.959 . S
H3063 C3078 0.959 . S
H3064 C3078 0.961 . S
H3065 C3079 0.960 . S
H3066 C3079 0.961 . S
H3067 C3079 0.959 1_556 S
H3068 C3082 0.929 . S
H3069 C3083 0.931 . S
H3070 C3085 0.930 . S
C3071 H3059 0.930 . S
C3071 C3072 1.399 . S
C3071 C3076 1.399 . S
C3072 C3071 1.399 . S
C3072 C3073 1.376 . S
C3073 H3060 0.930 . S
C3073 C3072 1.376 . S
C3073 C3074 1.353 1_554 S
C3074 H3061 0.967 . S
C3074 C3073 1.353 1_556 S
C3074 C3075 1.389 . S
C3075 C3074 1.389 . S
C3075 C3076 1.395 1_556 S
C3075 C3081 1.464 . S
C3076 C3071 1.399 . S
C3076 C3075 1.395 1_554 S
C3076 C3077 1.516 . S
C3077 C3076 1.516 . S
C3077 C3078 1.502 . S
C3077 C3079 1.561 . S
C3077 C3080 1.526 1_554 S
C3078 H3062 0.959 . S
C3078 H3063 0.959 . S
C3078 H3064 0.961 . S
C3078 C3077 1.502 . S
C3079 H3065 0.960 . S
C3079 H3066 0.961 . S
C3079 H3067 0.959 1_554 S
C3079 C3077 1.561 . S
C3080 C3077 1.526 1_556 S
C3080 C3081 1.396 . S
C3080 C3085 1.390 . S
C3081 C3075 1.464 . S
C3081 C3080 1.396 . S
C3081 C3082 1.399 . S
C3082 H3068 0.929 . S
C3082 C3081 1.399 . S
C3082 C3083 1.385 . S
C3083 H3069 0.931 . S
C3083 C3082 1.385 . S
C3083 C3084 1.389 . S
C3084 C3083 1.389 . S
C3084 C3085 1.387 . S
C3085 H3070 0.930 . S
C3085 C3080 1.390 . S
C3085 C3084 1.387 . S
H3086 C3098 0.930 . S
H3087 C3100 0.930 . S
H3088 C3101 0.930 . S
H3089 C3105 0.959 . S
H3090 C3105 0.959 . S
H3091 C3105 0.961 . S
H3092 C3106 0.960 . S
H3093 C3106 0.961 . S
H3094 C3106 0.959 . S
H3095 C3109 0.929 . S
H3096 C3110 0.931 . S
H3097 C3112 0.930 . S
C3098 H3086 0.930 . S
C3098 C3099 1.399 . S
C3098 C3103 1.399 . S
C3099 C3098 1.399 . S
C3099 C3100 1.376 . S
C3100 H3087 0.930 . S
C3100 C3099 1.376 . S
C3100 C3101 1.388 . S
C3101 H3088 0.930 . S
C3101 C3100 1.388 . S
C3101 C3102 1.390 . S
C3102 C3101 1.390 . S
C3102 C3103 1.394 . S
C3102 C3108 1.465 . S
C3103 C3098 1.399 . S
C3103 C3102 1.394 . S
C3103 C3104 1.516 . S
C3104 C3103 1.516 . S
C3104 C3105 1.502 . S
C3104 C3106 1.561 . S
C3104 C3107 1.526 . S
C3105 H3089 0.959 . S
C3105 H3090 0.959 . S
C3105 H3091 0.961 . S
C3105 C3104 1.502 . S
C3106 H3092 0.960 . S
C3106 H3093 0.961 . S
C3106 H3094 0.959 . S
C3106 C3104 1.561 . S
C3107 C3104 1.526 . S
C3107 C3108 1.396 . S
C3107 C3112 1.390 . S
C3108 C3102 1.465 . S
C3108 C3107 1.396 . S
C3108 C3109 1.399 . S
C3109 H3095 0.929 . S
C3109 C3108 1.399 . S
C3109 C3110 1.385 . S
C3110 H3096 0.931 . S
C3110 C3109 1.385 . S
C3110 C3111 1.389 . S
C3111 C3110 1.389 . S
C3111 C3112 1.387 . S
C3112 H3097 0.930 . S
C3112 C3107 1.390 . S
C3112 C3111 1.387 . S
H3113 C3125 0.930 . S
H3114 C3127 0.930 . S
H3115 C3128 0.930 . S
H3116 C3132 0.959 . S
H3117 C3132 0.959 . S
H3118 C3132 0.961 . S
H3119 C3133 0.960 . S
H3120 C3133 0.961 . S
H3121 C3133 0.959 . S
H3122 C3136 0.929 . S
H3123 C3137 0.931 . S
H3124 C3139 0.930 . S
C3125 H3113 0.930 . S
C3125 C3126 1.399 . S
C3125 C3130 1.399 . S
C3126 C3125 1.399 . S
C3126 C3127 1.376 . S
C3127 H3114 0.930 . S
C3127 C3126 1.376 . S
C3127 C3128 1.388 . S
C3128 H3115 0.930 . S
C3128 C3127 1.388 . S
C3128 C3129 1.390 . S
C3129 C3128 1.390 . S
C3129 C3130 1.394 . S
C3129 C3135 1.465 . S
C3130 C3125 1.399 . S
C3130 C3129 1.394 . S
C3130 C3131 1.516 . S
C3131 C3130 1.516 . S
C3131 C3132 1.502 . S
C3131 C3133 1.561 . S
C3131 C3134 1.526 . S
C3132 H3116 0.959 . S
C3132 H3117 0.959 . S
C3132 H3118 0.961 . S
C3132 C3131 1.502 . S
C3133 H3119 0.960 . S
C3133 H3120 0.961 . S
C3133 H3121 0.959 . S
C3133 C3131 1.561 . S
C3134 C3131 1.526 . S
C3134 C3135 1.396 . S
C3134 C3139 1.390 . S
C3135 C3129 1.465 . S
C3135 C3134 1.396 . S
C3135 C3136 1.399 . S
C3136 H3122 0.929 . S
C3136 C3135 1.399 . S
C3136 C3137 1.385 . S
C3137 H3123 0.931 . S
C3137 C3136 1.385 . S
C3137 C3138 1.389 . S
C3138 C3137 1.389 . S
C3138 C3139 1.387 . S
C3139 H3124 0.930 . S
C3139 C3134 1.390 . S
C3139 C3138 1.387 . S
H3140 C3152 0.930 . S
H3141 C3154 0.930 . S
H3142 C3155 0.930 . S
H3143 C3159 0.959 . S
H3144 C3159 0.959 . S
H3145 C3159 0.961 . S
H3146 C3160 0.960 . S
H3147 C3160 0.961 . S
H3148 C3160 0.959 . S
H3149 C3163 0.929 . S
H3150 C3164 0.931 . S
H3151 C3166 0.930 . S
C3152 H3140 0.930 . S
C3152 C3153 1.399 . S
C3152 C3157 1.399 . S
C3153 C3152 1.399 . S
C3153 C3154 1.376 . S
C3154 H3141 0.930 . S
C3154 C3153 1.376 . S
C3154 C3155 1.388 . S
C3155 H3142 0.930 . S
C3155 C3154 1.388 . S
C3155 C3156 1.390 . S
C3156 C3155 1.390 . S
C3156 C3157 1.394 . S
C3156 C3162 1.465 . S
C3157 C3152 1.399 . S
C3157 C3156 1.394 . S
C3157 C3158 1.516 . S
C3158 C3157 1.516 . S
C3158 C3159 1.502 . S
C3158 C3160 1.561 . S
C3158 C3161 1.526 . S
C3159 H3143 0.959 . S
C3159 H3144 0.959 . S
C3159 H3145 0.961 . S
C3159 C3158 1.502 . S
C3160 H3146 0.960 . S
C3160 H3147 0.961 . S
C3160 H3148 0.959 . S
C3160 C3158 1.561 . S
C3161 C3158 1.526 . S
C3161 C3162 1.396 . S
C3161 C3166 1.390 . S
C3162 C3156 1.465 . S
C3162 C3161 1.396 . S
C3162 C3163 1.399 . S
C3163 H3149 0.929 . S
C3163 C3162 1.399 . S
C3163 C3164 1.385 . S
C3164 H3150 0.931 . S
C3164 C3163 1.385 . S
C3164 C3165 1.389 . S
C3165 C3164 1.389 . S
C3165 C3166 1.387 . S
C3166 H3151 0.930 . S
C3166 C3161 1.390 . S
C3166 C3165 1.387 . S
H3167 C3179 0.930 . S
H3168 C3181 0.930 . S
H3169 C3182 0.930 1_556 S
H3170 C3186 0.959 . S
H3171 C3186 0.959 . S
H3172 C3186 0.961 . S
H3173 C3187 0.960 1_554 S
H3174 C3187 0.961 . S
H3175 C3187 0.959 . S
H3176 C3190 0.929 . S
H3177 C3191 0.931 . S
H3178 C3193 0.930 . S
C3179 H3167 0.930 . S
C3179 C3180 1.399 . S
C3179 C3184 1.399 . S
C3180 C3179 1.399 . S
C3180 C3181 1.376 . S
C3181 H3168 0.930 . S
C3181 C3180 1.376 . S
C3181 C3182 1.388 . S
C3182 H3169 0.930 1_554 S
C3182 C3181 1.388 . S
C3182 C3183 1.390 . S
C3183 C3182 1.390 . S
C3183 C3184 1.394 . S
C3183 C3189 1.465 1_554 S
C3184 C3179 1.399 . S
C3184 C3183 1.394 . S
C3184 C3185 1.516 . S
C3185 C3184 1.516 . S
C3185 C3186 1.502 . S
C3185 C3187 1.561 1_554 S
C3185 C3188 1.526 1_554 S
C3186 H3170 0.959 . S
C3186 H3171 0.959 . S
C3186 H3172 0.961 . S
C3186 C3185 1.502 . S
C3187 H3173 0.960 1_556 S
C3187 H3174 0.961 . S
C3187 H3175 0.959 . S
C3187 C3185 1.561 1_556 S
C3188 C3185 1.526 1_556 S
C3188 C3189 1.396 . S
C3188 C3193 1.390 . S
C3189 C3183 1.465 1_556 S
C3189 C3188 1.396 . S
C3189 C3190 1.399 . S
C3190 H3176 0.929 . S
C3190 C3189 1.399 . S
C3190 C3191 1.385 . S
C3191 H3177 0.931 . S
C3191 C3190 1.385 . S
C3191 C3192 1.389 . S
C3192 C3191 1.389 . S
C3192 C3193 1.387 . S
C3193 H3178 0.930 . S
C3193 C3188 1.390 . S
C3193 C3192 1.387 . S
H3194 C3206 0.930 . S
H3195 C3208 0.930 . S
H3196 C3209 0.930 . S
H3197 C3213 0.959 . S
H3198 C3213 0.959 . S
H3199 C3213 0.961 . S
H3200 C3214 0.960 . S
H3201 C3214 0.961 . S
H3202 C3214 0.959 . S
H3203 C3217 0.929 . S
H3204 C3218 0.931 . S
H3205 C3220 0.930 . S
C3206 H3194 0.930 . S
C3206 C3207 1.399 . S
C3206 C3211 1.399 . S
C3207 C3206 1.399 . S
C3207 C3208 1.376 . S
C3208 H3195 0.930 . S
C3208 C3207 1.376 . S
C3208 C3209 1.388 . S
C3209 H3196 0.930 . S
C3209 C3208 1.388 . S
C3209 C3210 1.390 . S
C3210 C3209 1.390 . S
C3210 C3211 1.394 . S
C3210 C3216 1.465 . S
C3211 C3206 1.399 . S
C3211 C3210 1.394 . S
C3211 C3212 1.516 . S
C3212 C3211 1.516 . S
C3212 C3213 1.502 . S
C3212 C3214 1.561 . S
C3212 C3215 1.526 . S
C3213 H3197 0.959 . S
C3213 H3198 0.959 . S
C3213 H3199 0.961 . S
C3213 C3212 1.502 . S
C3214 H3200 0.960 . S
C3214 H3201 0.961 . S
C3214 H3202 0.959 . S
C3214 C3212 1.561 . S
C3215 C3212 1.526 . S
C3215 C3216 1.396 . S
C3215 C3220 1.390 . S
C3216 C3210 1.465 . S
C3216 C3215 1.396 . S
C3216 C3217 1.399 . S
C3217 H3203 0.929 . S
C3217 C3216 1.399 . S
C3217 C3218 1.385 . S
C3218 H3204 0.931 . S
C3218 C3217 1.385 . S
C3218 C3219 1.389 . S
C3219 C3218 1.389 . S
C3219 C3220 1.387 . S
C3220 H3205 0.930 . S
C3220 C3215 1.390 . S
C3220 C3219 1.387 . S
H3221 C3233 0.930 . S
H3222 C3235 0.930 . S
H3223 C3236 0.930 . S
H3224 C3240 0.959 . S
H3225 C3240 0.959 . S
H3226 C3240 0.961 . S
H3227 C3241 0.960 . S
H3228 C3241 0.961 . S
H3229 C3241 0.959 . S
H3230 C3244 0.929 . S
H3231 C3245 0.931 . S
H3232 C3247 0.930 . S
C3233 H3221 0.930 . S
C3233 C3234 1.399 . S
C3233 C3238 1.399 . S
C3234 C3233 1.399 . S
C3234 C3235 1.376 . S
C3235 H3222 0.930 . S
C3235 C3234 1.376 . S
C3235 C3236 1.388 . S
C3236 H3223 0.930 . S
C3236 C3235 1.388 . S
C3236 C3237 1.390 . S
C3237 C3236 1.390 . S
C3237 C3238 1.394 . S
C3237 C3243 1.465 . S
C3238 C3233 1.399 . S
C3238 C3237 1.394 . S
C3238 C3239 1.516 . S
C3239 C3238 1.516 . S
C3239 C3240 1.502 . S
C3239 C3241 1.561 . S
C3239 C3242 1.526 . S
C3240 H3224 0.959 . S
C3240 H3225 0.959 . S
C3240 H3226 0.961 . S
C3240 C3239 1.502 . S
C3241 H3227 0.960 . S
C3241 H3228 0.961 . S
C3241 H3229 0.959 . S
C3241 C3239 1.561 . S
C3242 C3239 1.526 . S
C3242 C3243 1.396 . S
C3242 C3247 1.390 . S
C3243 C3237 1.465 . S
C3243 C3242 1.396 . S
C3243 C3244 1.399 . S
C3244 H3230 0.929 . S
C3244 C3243 1.399 . S
C3244 C3245 1.385 . S
C3245 H3231 0.931 . S
C3245 C3244 1.385 . S
C3245 C3246 1.389 . S
C3246 C3245 1.389 . S
C3246 C3247 1.387 . S
C3247 H3232 0.930 . S
C3247 C3242 1.390 . S
C3247 C3246 1.387 . S
C1101 C9 1.247 . S
C1113 C825 1.309 . S
C1128 C315 1.347 . S
C1140 C43 1.224 . S
C1155 C893 1.254 . S
C1167 C77 1.301 . S
C1182 C111 1.348 . S
C1194 C383 1.227 . S
C1209 C961 1.291 . S
C1221 C145 1.264 . S
C1236 C451 1.348 . S
C1248 C179 1.229 . S
C1263 C213 1.348 . S
C1275 C1029 1.226 . S
C1290 C247 1.325 . S
C1302 C519 1.266 . S
C1317 C281 1.318 . S
C1329 C553 1.273 . S
C1344 C349 1.271 . S
C1356 C621 1.284 . S
C1371 C689 1.299 . S
C1383 C417 1.293 . S
C1398 C485 1.295 . S
C1410 C757 1.260 . S
C1425 C587 1.319 . S
C1437 C859 1.239 . S
C1452 C927 1.347 . S
C1464 C655 1.224 . S
C1479 C995 1.224 . S
C1491 C723 1.338 . S
C1506 C791 1.258 . S
C1518 C1063 1.297 . S
C1533 C2 0.905 . S
C1545 C855 0.865 . S
C1560 C345 0.921 . S
C1572 C36 0.935 . S
C1587 C70 0.931 . S
C1599 C923 0.915 . S
C1614 C277 0.869 . S
C1626 C104 0.908 . S
C1641 C138 0.938 . S
C1653 C1059 0.918 . S
C1668 C172 0.905 . S
C1680 C413 0.866 . S
C1695 C991 0.975 . S
C1707 C206 0.966 . S
C1722 C481 0.919 . S
C1734 C240 0.934 . S
C1749 C583 0.922 . S
C1761 C274 0.955 . S
C1776 C73 0.868 . S
C1788 C308 0.904 . S
C1803 C342 0.906 . S
C1815 C651 0.862 . S
C1830 C376 0.914 . S
C1842 C5 0.863 . S
C1857 C787 0.870 . S
C1869 C410 0.923 . S
C1884 C141 0.976 . S
C1896 C444 0.972 . S
C1911 C478 0.972 . S
C1923 C719 0.974 . S
C1938 C512 0.955 . S
C1950 C209 0.974 . S
C1965 C311 0.973 . S
C1977 C546 0.967 . S
C1992 C889 0.925 . S
C2004 C580 0.942 . S
C2019 C379 0.911 . S
C2031 C614 0.935 . S
C2046 C648 0.969 . S
C2058 C821 0.978 . S
C2073 C515 0.861 . S
C2085 C682 0.906 . S
C2100 C716 0.968 . S
C2112 C957 0.976 . S
C2127 C447 0.948 . S
C2139 C750 0.949 . S
C2154 C784 0.913 . S
C2166 C1025 0.874 . S
C2181 C39 0.936 . S
C2193 C818 0.961 . S
C2208 C617 0.868 . S
C2220 C852 0.921 . S
C2235 C107 0.932 . S
C2247 C886 0.925 . S
C2262 C920 0.935 . S
C2274 C549 0.950 . S
C2289 C954 0.969 . S
C2301 C243 0.982 . S
C2316 C685 0.878 . S
C2328 C988 0.905 . S
C2343 C175 0.928 . S
C2355 C1022 0.923 . S
C2370 C1056 0.933 . S
C2382 C753 0.883 . S
C2397 C645 0.984 . S
C2409 C33 1.014 . S
C2424 C679 0.987 . S
C2436 C67 1.013 . S
C2451 C577 0.970 . S
C2463 C101 0.947 . S
C2478 C611 0.974 . S
C2490 C135 0.946 . S
C2505 C169 0.993 . S
C2517 C781 1.011 . S
C2532 C815 0.965 . S
C2544 C203 0.950 . S
C2559 C237 0.959 . S
C2571 C713 1.010 . S
C2586 C747 0.994 . S
C2598 C271 1.011 . S
C2613 C917 1.013 . S
C2625 C305 0.984 . S
C2640 C339 1.015 . S
C2652 C951 1.001 . S
C2667 C373 1.015 . S
C2679 C849 0.997 . S
C2694 C407 1.015 . S
C2706 C883 1.002 . S
C2721 C1053 0.981 . S
C2733 C441 0.949 . S
C2748 C475 0.944 . S
C2760 C1087 0.958 . S
C2775 C509 0.944 . S
C2787 C985 0.964 . S
C2802 C543 0.944 . S
C2814 C1019 0.965 . S
C2829 C156 2.074 . S
C2841 C20 2.072 . S
C2856 C190 2.068 . S
C2868 C54 2.065 . S
C2883 C88 2.077 . S
C2895 C224 2.067 . S
C2910 C258 2.070 . S
C2922 C122 2.064 . S
C2937 C292 2.071 . S
C2949 C428 2.063 . S
C2964 C462 2.062 . S
C2976 C326 2.068 . S
C2991 C360 2.073 . S
C3003 C496 2.077 . S
C3018 C530 2.077 . S
C3030 C394 2.070 . S
C3045 C564 2.062 . S
C3057 C700 2.075 . S
C3072 C734 2.065 . S
C3084 C598 2.077 . S
C3099 C768 2.062 . S
C3111 C632 2.074 . S
C3126 C666 2.068 . S
C3138 C802 2.077 . S
C3153 C972 2.066 . S
C3165 C836 2.076 . S
C3180 C870 2.062 . S
C3192 C1006 2.070 . S
C3207 C904 2.068 . S
C3219 C1040 2.077 . S
C3234 C938 2.062 . S
C3246 C1074 2.069 . S
