# Generated by pormake.
# Topology wlu, (5)-cn, num edge types: 1
# Building blocks:
#     Node 0, Type 0, BuildingBlock: XOMCOT_clean_sbu_1, # of connection points: 5
#     Node 1, Type 0, BuildingBlock: XOMCOT_clean_sbu_1, # of connection points: 5
#     Node 2, Type 0, BuildingBlock: XOMCOT_clean_sbu_1, # of connection points: 5
#     Node 3, Type 0, BuildingBlock: XOMCOT_clean_sbu_1, # of connection points: 5
#     Node 4, Type 0, BuildingBlock: XOMCOT_clean_sbu_1, # of connection points: 5
#     Node 5, Type 0, BuildingBlock: XOMCOT_clean_sbu_1, # of connection points: 5
#     Node 6, Type 0, BuildingBlock: XOMCOT_clean_sbu_1, # of connection points: 5
#     Node 7, Type 0, BuildingBlock: XOMCOT_clean_sbu_1, # of connection points: 5
#     Node 8, Type 0, BuildingBlock: XOMCOT_clean_sbu_1, # of connection points: 5
#     Node 9, Type 0, BuildingBlock: XOMCOT_clean_sbu_1, # of connection points: 5
#     Node 10, Type 0, BuildingBlock: XOMCOT_clean_sbu_1, # of connection points: 5
#     Node 11, Type 0, BuildingBlock: XOMCOT_clean_sbu_1, # of connection points: 5
#     Node 12, Type 0, BuildingBlock: XOMCOT_clean_sbu_1, # of connection points: 5
#     Node 13, Type 0, BuildingBlock: XOMCOT_clean_sbu_1, # of connection points: 5
#     Node 14, Type 0, BuildingBlock: XOMCOT_clean_sbu_1, # of connection points: 5
#     Node 15, Type 0, BuildingBlock: XOMCOT_clean_sbu_1, # of connection points: 5
#     Node 16, Type 0, BuildingBlock: XOMCOT_clean_sbu_1, # of connection points: 5
#     Node 17, Type 0, BuildingBlock: XOMCOT_clean_sbu_1, # of connection points: 5
#     Node 18, Type 0, BuildingBlock: XOMCOT_clean_sbu_1, # of connection points: 5
#     Node 19, Type 0, BuildingBlock: XOMCOT_clean_sbu_1, # of connection points: 5
#     Node 20, Type 0, BuildingBlock: XOMCOT_clean_sbu_1, # of connection points: 5
#     Node 21, Type 0, BuildingBlock: XOMCOT_clean_sbu_1, # of connection points: 5
#     Node 22, Type 0, BuildingBlock: XOMCOT_clean_sbu_1, # of connection points: 5
#     Node 23, Type 0, BuildingBlock: XOMCOT_clean_sbu_1, # of connection points: 5
#     Node 24, Type 0, BuildingBlock: XOMCOT_clean_sbu_1, # of connection points: 5
#     Node 25, Type 0, BuildingBlock: XOMCOT_clean_sbu_1, # of connection points: 5
#     Node 26, Type 0, BuildingBlock: XOMCOT_clean_sbu_1, # of connection points: 5
#     Node 27, Type 0, BuildingBlock: XOMCOT_clean_sbu_1, # of connection points: 5
#     Node 28, Type 0, BuildingBlock: XOMCOT_clean_sbu_1, # of connection points: 5
#     Node 29, Type 0, BuildingBlock: XOMCOT_clean_sbu_1, # of connection points: 5
#     Node 30, Type 0, BuildingBlock: XOMCOT_clean_sbu_1, # of connection points: 5
#     Node 31, Type 0, BuildingBlock: XOMCOT_clean_sbu_1, # of connection points: 5
#     Node 32, Type 0, BuildingBlock: XOMCOT_clean_sbu_1, # of connection points: 5
#     Node 33, Type 0, BuildingBlock: XOMCOT_clean_sbu_1, # of connection points: 5
#     Node 34, Type 0, BuildingBlock: XOMCOT_clean_sbu_1, # of connection points: 5
#     Node 35, Type 0, BuildingBlock: XOMCOT_clean_sbu_1, # of connection points: 5
#     Edge 36, Type (0, 0), BuildingBlock: OJICUG_clean_linker_0, # of connection points: 2
#     Edge 37, Type (0, 0), BuildingBlock: OJICUG_clean_linker_0, # of connection points: 2
#     Edge 38, Type (0, 0), BuildingBlock: OJICUG_clean_linker_0, # of connection points: 2
#     Edge 39, Type (0, 0), BuildingBlock: OJICUG_clean_linker_0, # of connection points: 2
#     Edge 40, Type (0, 0), BuildingBlock: OJICUG_clean_linker_0, # of connection points: 2
#     Edge 41, Type (0, 0), BuildingBlock: OJICUG_clean_linker_0, # of connection points: 2
#     Edge 42, Type (0, 0), BuildingBlock: OJICUG_clean_linker_0, # of connection points: 2
#     Edge 43, Type (0, 0), BuildingBlock: OJICUG_clean_linker_0, # of connection points: 2
#     Edge 44, Type (0, 0), BuildingBlock: OJICUG_clean_linker_0, # of connection points: 2
#     Edge 45, Type (0, 0), BuildingBlock: OJICUG_clean_linker_0, # of connection points: 2
#     Edge 46, Type (0, 0), BuildingBlock: OJICUG_clean_linker_0, # of connection points: 2
#     Edge 47, Type (0, 0), BuildingBlock: OJICUG_clean_linker_0, # of connection points: 2
#     Edge 48, Type (0, 0), BuildingBlock: OJICUG_clean_linker_0, # of connection points: 2
#     Edge 49, Type (0, 0), BuildingBlock: OJICUG_clean_linker_0, # of connection points: 2
#     Edge 50, Type (0, 0), BuildingBlock: OJICUG_clean_linker_0, # of connection points: 2
#     Edge 51, Type (0, 0), BuildingBlock: OJICUG_clean_linker_0, # of connection points: 2
#     Edge 52, Type (0, 0), BuildingBlock: OJICUG_clean_linker_0, # of connection points: 2
#     Edge 53, Type (0, 0), BuildingBlock: OJICUG_clean_linker_0, # of connection points: 2
#     Edge 54, Type (0, 0), BuildingBlock: OJICUG_clean_linker_0, # of connection points: 2
#     Edge 55, Type (0, 0), BuildingBlock: OJICUG_clean_linker_0, # of connection points: 2
#     Edge 56, Type (0, 0), BuildingBlock: OJICUG_clean_linker_0, # of connection points: 2
#     Edge 57, Type (0, 0), BuildingBlock: OJICUG_clean_linker_0, # of connection points: 2
#     Edge 58, Type (0, 0), BuildingBlock: OJICUG_clean_linker_0, # of connection points: 2
#     Edge 59, Type (0, 0), BuildingBlock: OJICUG_clean_linker_0, # of connection points: 2
#     Edge 60, Type (0, 0), BuildingBlock: OJICUG_clean_linker_0, # of connection points: 2
#     Edge 61, Type (0, 0), BuildingBlock: OJICUG_clean_linker_0, # of connection points: 2
#     Edge 62, Type (0, 0), BuildingBlock: OJICUG_clean_linker_0, # of connection points: 2
#     Edge 63, Type (0, 0), BuildingBlock: OJICUG_clean_linker_0, # of connection points: 2
#     Edge 64, Type (0, 0), BuildingBlock: OJICUG_clean_linker_0, # of connection points: 2
#     Edge 65, Type (0, 0), BuildingBlock: OJICUG_clean_linker_0, # of connection points: 2
#     Edge 66, Type (0, 0), BuildingBlock: OJICUG_clean_linker_0, # of connection points: 2
#     Edge 67, Type (0, 0), BuildingBlock: OJICUG_clean_linker_0, # of connection points: 2
#     Edge 68, Type (0, 0), BuildingBlock: OJICUG_clean_linker_0, # of connection points: 2
#     Edge 69, Type (0, 0), BuildingBlock: OJICUG_clean_linker_0, # of connection points: 2
#     Edge 70, Type (0, 0), BuildingBlock: OJICUG_clean_linker_0, # of connection points: 2
#     Edge 71, Type (0, 0), BuildingBlock: OJICUG_clean_linker_0, # of connection points: 2
#     Edge 72, Type (0, 0), BuildingBlock: OJICUG_clean_linker_0, # of connection points: 2
#     Edge 73, Type (0, 0), BuildingBlock: OJICUG_clean_linker_0, # of connection points: 2
#     Edge 74, Type (0, 0), BuildingBlock: OJICUG_clean_linker_0, # of connection points: 2
#     Edge 75, Type (0, 0), BuildingBlock: OJICUG_clean_linker_0, # of connection points: 2
#     Edge 76, Type (0, 0), BuildingBlock: OJICUG_clean_linker_0, # of connection points: 2
#     Edge 77, Type (0, 0), BuildingBlock: OJICUG_clean_linker_0, # of connection points: 2
#     Edge 78, Type (0, 0), BuildingBlock: OJICUG_clean_linker_0, # of connection points: 2
#     Edge 79, Type (0, 0), BuildingBlock: OJICUG_clean_linker_0, # of connection points: 2
#     Edge 80, Type (0, 0), BuildingBlock: OJICUG_clean_linker_0, # of connection points: 2
#     Edge 81, Type (0, 0), BuildingBlock: OJICUG_clean_linker_0, # of connection points: 2
#     Edge 82, Type (0, 0), BuildingBlock: OJICUG_clean_linker_0, # of connection points: 2
#     Edge 83, Type (0, 0), BuildingBlock: OJICUG_clean_linker_0, # of connection points: 2
#     Edge 84, Type (0, 0), BuildingBlock: OJICUG_clean_linker_0, # of connection points: 2
#     Edge 85, Type (0, 0), BuildingBlock: OJICUG_clean_linker_0, # of connection points: 2
#     Edge 86, Type (0, 0), BuildingBlock: OJICUG_clean_linker_0, # of connection points: 2
#     Edge 87, Type (0, 0), BuildingBlock: OJICUG_clean_linker_0, # of connection points: 2
#     Edge 88, Type (0, 0), BuildingBlock: OJICUG_clean_linker_0, # of connection points: 2
#     Edge 89, Type (0, 0), BuildingBlock: OJICUG_clean_linker_0, # of connection points: 2
#     Edge 90, Type (0, 0), BuildingBlock: OJICUG_clean_linker_0, # of connection points: 2
#     Edge 91, Type (0, 0), BuildingBlock: OJICUG_clean_linker_0, # of connection points: 2
#     Edge 92, Type (0, 0), BuildingBlock: OJICUG_clean_linker_0, # of connection points: 2
#     Edge 93, Type (0, 0), BuildingBlock: OJICUG_clean_linker_0, # of connection points: 2
#     Edge 94, Type (0, 0), BuildingBlock: OJICUG_clean_linker_0, # of connection points: 2
#     Edge 95, Type (0, 0), BuildingBlock: OJICUG_clean_linker_0, # of connection points: 2
#     Edge 96, Type (0, 0), BuildingBlock: OJICUG_clean_linker_0, # of connection points: 2
#     Edge 97, Type (0, 0), BuildingBlock: OJICUG_clean_linker_0, # of connection points: 2
#     Edge 98, Type (0, 0), BuildingBlock: OJICUG_clean_linker_0, # of connection points: 2
#     Edge 99, Type (0, 0), BuildingBlock: OJICUG_clean_linker_0, # of connection points: 2
#     Edge 100, Type (0, 0), BuildingBlock: OJICUG_clean_linker_0, # of connection points: 2
#     Edge 101, Type (0, 0), BuildingBlock: OJICUG_clean_linker_0, # of connection points: 2
#     Edge 102, Type (0, 0), BuildingBlock: OJICUG_clean_linker_0, # of connection points: 2
#     Edge 103, Type (0, 0), BuildingBlock: OJICUG_clean_linker_0, # of connection points: 2
#     Edge 104, Type (0, 0), BuildingBlock: OJICUG_clean_linker_0, # of connection points: 2
#     Edge 105, Type (0, 0), BuildingBlock: OJICUG_clean_linker_0, # of connection points: 2
#     Edge 106, Type (0, 0), BuildingBlock: OJICUG_clean_linker_0, # of connection points: 2
#     Edge 107, Type (0, 0), BuildingBlock: OJICUG_clean_linker_0, # of connection points: 2
#     Edge 108, Type (0, 0), BuildingBlock: OJICUG_clean_linker_0, # of connection points: 2
#     Edge 109, Type (0, 0), BuildingBlock: OJICUG_clean_linker_0, # of connection points: 2
#     Edge 110, Type (0, 0), BuildingBlock: OJICUG_clean_linker_0, # of connection points: 2
#     Edge 111, Type (0, 0), BuildingBlock: OJICUG_clean_linker_0, # of connection points: 2
#     Edge 112, Type (0, 0), BuildingBlock: OJICUG_clean_linker_0, # of connection points: 2
#     Edge 113, Type (0, 0), BuildingBlock: OJICUG_clean_linker_0, # of connection points: 2
#     Edge 114, Type (0, 0), BuildingBlock: OJICUG_clean_linker_0, # of connection points: 2
#     Edge 115, Type (0, 0), BuildingBlock: OJICUG_clean_linker_0, # of connection points: 2
#     Edge 116, Type (0, 0), BuildingBlock: OJICUG_clean_linker_0, # of connection points: 2
#     Edge 117, Type (0, 0), BuildingBlock: OJICUG_clean_linker_0, # of connection points: 2
#     Edge 118, Type (0, 0), BuildingBlock: OJICUG_clean_linker_0, # of connection points: 2
#     Edge 119, Type (0, 0), BuildingBlock: OJICUG_clean_linker_0, # of connection points: 2
#     Edge 120, Type (0, 0), BuildingBlock: OJICUG_clean_linker_0, # of connection points: 2
#     Edge 121, Type (0, 0), BuildingBlock: OJICUG_clean_linker_0, # of connection points: 2
#     Edge 122, Type (0, 0), BuildingBlock: OJICUG_clean_linker_0, # of connection points: 2
#     Edge 123, Type (0, 0), BuildingBlock: OJICUG_clean_linker_0, # of connection points: 2
#     Edge 124, Type (0, 0), BuildingBlock: OJICUG_clean_linker_0, # of connection points: 2
#     Edge 125, Type (0, 0), BuildingBlock: OJICUG_clean_linker_0, # of connection points: 2
# Relax obj value: 0.206
# Max RMSD: 0.162
# Mean RMSD: 0.162
data_MOF--net-wlu--node1-XOMCOT_clean_sbu_1--edge1-OJICUG_clean_linker_0
_symmetry_space_group_name_H-M    P1
_symmetry_Int_Tables_number       1
_symmetry_cell_setting            triclinic
loop_
_symmetry_equiv_pos_as_xyz
'x, y, z'
_cell_length_a     52.448754
_cell_length_b     52.426925
_cell_length_c     39.452106
_cell_angle_alpha  90.110674
_cell_angle_beta   89.960941
_cell_angle_gamma 120.0742
loop_
_atom_site_label
_atom_site_type_symbol
_atom_site_fract_x
_atom_site_fract_y
_atom_site_fract_z
_atom_type_partial_charge
C0 C 0.23233 0.13824 0.08048 0.0
C1 C 0.2186 0.10798 0.0806 0.0
N2 N 0.23915 0.10004 0.07577 0.0
N3 N 0.26136 0.14943 0.07487 0.0
C4 C 0.26498 0.12574 0.07356 0.0
H5 H 0.22159 0.15118 0.083 0.0
Co6 Co 0.29007 0.18894 0.06935 0.0
C7 C 0.3008 0.1622 1.0034 0.0
O8 O 0.27753 0.1357 1.00463 0.0
N9 N 0.31878 0.22864 0.06372 0.0
C10 C 0.34467 0.27216 0.03861 0.0
C11 C 0.32616 0.24262 0.03355 0.0
C12 C 0.33303 0.25028 0.08684 0.0
N13 N 0.34898 0.27716 0.07219 0.0
O14 O 0.31614 0.18254 0.09824 0.0
H15 H 0.31707 0.23233 1.00939 0.0
H16 H 0.33073 0.24644 0.11386 0.0
O17 O 0.30544 0.18088 0.02705 0.0
C18 C 0.30908 0.18348 0.12915 0.0
O19 O 0.28835 0.19005 0.13495 0.0
N20 N 0.26341 0.19588 0.04514 0.0
C21 C 0.22101 0.20825 1.01999 0.0
C22 C 0.22752 0.18864 1.00283 0.0
C23 C 0.24888 0.18276 1.01584 0.0
C24 C 0.25722 0.21474 0.06216 0.0
C25 C 0.23666 0.22169 0.04976 0.0
H26 H 0.25271 0.16686 1.00305 0.0
H27 H 0.26827 0.22435 0.08586 0.0
H28 H 0.28619 0.12749 0.06953 0.0
H29 H 0.19507 0.09314 0.08218 0.0
H30 H 0.35271 0.28878 1.01899 0.0
H31 H 0.21565 0.17724 0.98015 0.0
H32 H 0.23305 0.23742 0.06367 0.0
C33 C 0.86576 0.10066 0.11151 0.0
C34 C 0.89559 0.11351 0.10553 0.0
N35 N 0.90239 0.13252 0.07965 0.0
N36 N 0.85413 0.11188 0.08973 0.0
C37 C 0.87701 0.1312 0.0706 0.0
H38 H 0.85346 0.08485 0.13116 0.0
Co39 Co 0.81586 0.10484 0.09084 0.0
C40 C 0.80424 0.12041 0.02317 0.0
O41 O 0.77889 0.09567 0.02495 0.0
N42 N 0.77718 0.09886 0.09331 0.0
C43 C 0.74392 0.11338 0.09636 0.0
C44 C 0.7729 0.12219 0.09077 0.0
C45 C 0.75004 0.07593 0.10073 0.0
N46 N 0.72958 0.08432 0.10267 0.0
O47 O 0.82879 0.13851 0.12039 0.0
H48 H 0.79006 0.14456 0.08563 0.0
H49 H 0.74513 0.05377 0.10601 0.0
O50 O 0.8223 0.12842 0.0483 0.0
C51 C 0.8252 0.12988 0.15125 0.0
O52 O 0.81362 0.10152 0.15706 0.0
N53 N 0.80413 0.07018 0.06542 0.0
C54 C 0.79048 0.01638 0.0353 0.0
C55 C 0.80937 0.0432 1.01916 0.0
C56 C 0.81631 0.0698 0.03488 0.0
C57 C 0.78767 0.04452 0.08256 0.0
C58 C 0.77961 0.01741 0.06755 0.0
H59 H 0.83237 0.09006 0.02291 0.0
H60 H 0.78166 0.04509 0.10861 0.0
H61 H 0.87553 0.14507 0.05136 0.0
H62 H 0.9111 0.10954 0.1193 0.0
H63 H 0.73413 0.1273 0.09601 0.0
H64 H 0.81971 0.04383 0.99518 0.0
H65 H 0.76538 0.99754 0.08157 0.0
C66 C 0.90342 0.76874 0.09855 0.0
C67 C 0.88796 0.78357 0.09685 0.0
N68 N 0.86183 0.76579 0.08181 0.0
N69 N 0.88722 0.74195 0.08424 0.0
C70 C 0.86191 0.74065 0.07466 0.0
H71 H 0.92531 0.77714 0.10885 0.0
Co72 Co 0.89807 0.71362 0.07792 0.0
C73 C 0.85274 0.67651 0.02642 0.0
O74 O 0.8388 0.65596 0.04932 0.0
N75 N 0.90907 0.68506 0.07094 0.0
C76 C 0.92718 0.66043 0.04379 0.0
C77 C 0.91467 0.67771 0.04007 0.0
C78 C 0.91837 0.6718 0.09315 0.0
N79 N 0.92971 0.65688 0.0771 0.0
O80 O 0.86545 0.68711 0.10671 0.0
H81 H 0.91173 0.68599 1.01619 0.0
H82 H 0.91875 0.6747 0.12034 0.0
O83 O 0.87535 0.70077 0.03522 0.0
C84 C 0.8734 0.69363 0.13776 0.0
O85 O 0.90078 0.71413 0.14383 0.0
N86 N 0.93154 0.74086 0.05429 0.0
C87 C 0.98577 0.78382 0.02825 0.0
C88 C 0.9592 0.77752 1.0123 0.0
C89 C 0.93219 0.75585 0.02577 0.0
C90 C 0.95695 0.74694 0.07029 0.0
C91 C 0.9842 0.76775 0.05737 0.0
H92 H 0.91189 0.75175 1.01393 0.0
H93 H 0.95603 0.73553 0.09346 0.0
H94 H 0.84425 0.72199 0.06164 0.0
H95 H 0.89548 0.80579 0.10567 0.0
H96 H 0.93485 0.65197 0.02356 0.0
H97 H 0.95914 0.78966 0.99017 0.0
H98 H 0.00383 0.7711 0.07032 0.0
C99 C 0.13198 0.23207 0.46512 0.0
C100 C 0.10185 0.21931 0.46643 0.0
N101 N 0.09513 0.24056 0.47277 0.0
N102 N 0.14432 0.26117 0.47131 0.0
C103 C 0.12138 0.26584 0.47443 0.0
H104 H 0.14408 0.22061 0.46121 0.0
Co105 Co 0.18435 0.28845 0.47533 0.0
C106 C 0.16113 0.30114 0.54304 0.0
O107 O 0.13442 0.27814 0.54297 0.0
N108 N 0.22454 0.31567 0.47934 0.0
C109 C 0.26895 0.33957 0.50287 0.0
C110 C 0.23943 0.32238 0.50899 0.0
C111 C 0.24561 0.32909 0.45543 0.0
N112 N 0.27286 0.34363 0.46922 0.0
O113 O 0.17885 0.31544 0.44701 0.0
H114 H 0.22963 0.31377 0.53346 0.0
H115 H 0.24128 0.32677 0.42846 0.0
O116 O 0.17878 0.30515 0.51841 0.0
C117 C 0.17888 0.30788 0.41608 0.0
O118 O 0.18336 0.28574 0.4102 0.0
N119 N 0.1904 0.26077 0.49867 0.0
C120 C 0.20168 0.21708 0.52202 0.0
C121 C 0.18346 0.22466 0.54052 0.0
C122 C 0.17813 0.24668 0.52842 0.0
C123 C 0.20775 0.25342 0.48028 0.0
C124 C 0.21419 0.23224 0.49176 0.0
H125 H 0.1634 0.25148 0.54236 0.0
H126 H 0.21664 0.2641 0.45625 0.0
H127 H 0.12408 0.28737 0.47932 0.0
H128 H 0.08631 0.19592 0.46481 0.0
H129 H 0.28633 0.34769 0.52166 0.0
H130 H 0.17277 0.21324 0.56366 0.0
H131 H 0.22892 0.22792 0.4768 0.0
C132 C 0.75901 0.89319 0.44934 0.0
C133 C 0.77354 0.87759 0.45314 0.0
N134 N 0.7619 0.85969 0.48006 0.0
N135 N 0.73819 0.88486 0.47355 0.0
C136 C 0.74058 0.8645 0.49201 0.0
H137 H 0.76269 0.90891 0.42953 0.0
Co138 Co 0.71011 0.89638 0.47529 0.0
C139 C 0.68746 0.88433 0.54556 0.0
O140 O 0.69066 0.91085 0.54521 0.0
N141 N 0.68065 0.90722 0.47578 0.0
C142 C 0.63557 0.90134 0.47947 0.0
C143 C 0.65245 0.88856 0.48517 0.0
C144 C 0.67987 0.93079 0.463 0.0
N145 N 0.65283 0.92787 0.46539 0.0
O146 O 0.68463 0.86292 0.44764 0.0
H147 H 0.64428 0.86637 0.49432 0.0
H148 H 0.69815 0.94918 0.45065 0.0
O149 O 0.69386 0.87445 0.51894 0.0
C150 C 0.68906 0.87182 0.41685 0.0
O151 O 0.70711 0.89999 0.41118 0.0
N152 N 0.73761 0.93094 0.49814 0.0
C153 C 0.78159 0.98525 0.52314 0.0
C154 C 0.77203 0.95936 0.54207 0.0
C155 C 0.75069 0.93225 0.52859 0.0
C156 C 0.74879 0.95534 0.47819 0.0
C157 C 0.77025 0.98275 0.49035 0.0
H158 H 0.74498 0.91242 0.54259 0.0
H159 H 0.74177 0.95335 0.45214 0.0
H160 H 0.72618 0.85237 0.51284 0.0
H161 H 0.791 0.87899 0.4372 0.0
H162 H 0.61201 0.89112 0.48328 0.0
H163 H 0.78086 0.95993 0.56704 0.0
H164 H 0.77837 0.0017 0.4738 0.0
C165 C 0.09781 0.86846 0.46022 0.0
C166 C 0.11478 0.89868 0.46046 0.0
N167 N 0.14326 0.90614 0.46428 0.0
N168 N 0.11537 0.85681 0.4646 0.0
C169 C 0.14293 0.88021 0.46554 0.0
H170 H 0.07406 0.85585 0.45835 0.0
Co171 Co 0.10406 0.81716 0.46936 0.0
C172 C 0.1425 0.84293 0.53489 0.0
O173 O 0.14668 0.86979 0.534 0.0
N174 N 0.09268 0.77739 0.47421 0.0
C175 C 0.07622 0.73387 0.4989 0.0
C176 C 0.08605 0.76314 0.50423 0.0
C177 C 0.08644 0.75616 0.45085 0.0
N178 N 0.07627 0.72938 0.46531 0.0
O179 O 0.13615 0.82329 0.43985 0.0
H180 H 0.087 0.77314 0.52852 0.0
H181 H 0.08795 0.75996 0.42379 0.0
O182 O 0.1278 0.82453 0.51125 0.0
C183 C 0.12834 0.82271 0.40895 0.0
O184 O 0.10141 0.81729 0.40308 0.0
N185 N 0.07084 0.81042 0.4945 0.0
C186 C 0.01689 0.79649 0.52332 0.0
C187 C 0.04336 0.81638 0.53945 0.0
C188 C 0.07026 0.82305 0.52459 0.0
C189 C 0.04528 0.79181 0.47808 0.0
C190 C 0.01808 0.78422 0.49223 0.0
H191 H 0.09033 0.8388 0.53694 0.0
H192 H 0.04608 0.78278 0.45369 0.0
H193 H 0.16224 0.87806 0.46868 0.0
H194 H 0.10643 0.91381 0.45984 0.0
H195 H 0.06895 0.71707 0.51828 0.0
H196 H 0.04326 0.82652 0.56335 0.0
H197 H 0.99813 0.7693 0.47862 0.0
C198 C 0.76008 0.86846 0.94651 0.0
C199 C 0.77414 0.89868 0.9499 0.0
N200 N 0.7616 0.90478 0.97596 0.0
N201 N 0.73932 0.85555 0.97094 0.0
C202 C 0.74011 0.87862 0.98733 0.0
H203 H 0.76402 0.85678 0.92647 0.0
Co204 Co 0.71062 0.81508 0.97398 0.0
C205 C 0.70729 0.83289 0.04565 0.0
O206 O 0.7362 0.84659 0.0477 0.0
N207 N 0.68135 0.77554 0.97562 0.0
C208 C 0.63797 0.73546 0.98466 0.0
C209 C 0.65407 0.76547 0.98835 0.0
C210 C 0.68108 0.75133 0.96336 0.0
N211 N 0.65493 0.72658 0.9689 0.0
O212 O 0.68559 0.82306 0.94566 0.0
H213 H 0.64586 0.77919 0.99829 0.0
H214 H 0.69946 0.75193 0.95012 0.0
O215 O 0.69463 0.82139 1.01728 0.0
C216 C 0.69046 0.819 0.91486 0.0
O217 O 0.70897 0.80946 0.9092 0.0
N218 N 0.73633 0.80618 0.99858 0.0
C219 C 0.77582 0.79276 0.03031 0.0
C220 C 0.74763 0.78263 0.04382 0.0
C221 C 0.72805 0.78929 0.02732 0.0
C222 C 0.76286 0.81417 0.98398 0.0
C223 C 0.78315 0.80835 0.99975 0.0
H224 H 0.70617 0.78073 0.03763 0.0
H225 H 0.76825 0.82434 0.95943 0.0
H226 H 0.7242 0.87683 1.0059 0.0
H227 H 0.79193 0.91485 0.93441 0.0
H228 H 0.61499 0.72144 0.99121 0.0
H229 H 0.74082 0.76981 0.06694 0.0
H230 H 0.80413 0.81527 0.98756 0.0
C231 C 0.13872 0.90123 0.94934 0.0
C232 C 0.10867 0.88786 0.95358 0.0
N233 N 0.10093 0.86808 0.97876 0.0
N234 N 0.14968 0.88964 0.97152 0.0
C235 C 0.12611 0.86955 0.98922 0.0
H236 H 0.15171 0.91778 0.93065 0.0
Co237 Co 0.18842 0.89787 0.97183 0.0
C238 C 0.19844 0.88177 0.04018 0.0
O239 O 0.2232 0.90719 0.0399 0.0
N240 N 0.22767 0.90537 0.9705 0.0
C241 C 0.26416 0.89515 0.97022 0.0
C242 C 0.23502 0.88463 0.97762 0.0
C243 C 0.25264 0.92787 0.95724 0.0
N244 N 0.27517 0.92232 0.95725 0.0
O245 O 0.17757 0.86504 0.94189 0.0
H246 H 0.21977 0.86255 0.98626 0.0
H247 H 0.25424 0.94739 0.94617 0.0
O248 O 0.18141 0.87372 1.01406 0.0
C249 C 0.18203 0.87495 0.91152 0.0
O250 O 0.19309 0.90343 0.90721 0.0
N251 N 0.19855 0.93209 0.9975 0.0
C252 C 0.21264 0.98571 0.02812 0.0
C253 C 0.19435 0.95893 0.04463 0.0
C254 C 0.18678 0.93234 0.0284 0.0
C255 C 0.21405 0.95773 0.98001 0.0
C256 C 0.22194 0.98478 0.99502 0.0
H257 H 0.17111 0.91202 0.04059 0.0
H258 H 0.21914 0.95717 0.95364 0.0
H259 H 0.12706 0.85537 1.00846 0.0
H260 H 0.09364 0.89215 0.93919 0.0
H261 H 0.27583 0.88306 0.97221 0.0
H262 H 0.1857 0.95843 0.0697 0.0
H263 H 0.23431 0.0047 0.98029 0.0
C264 C 0.10176 0.24291 0.9459 0.0
C265 C 0.11642 0.2273 0.94794 0.0
N266 N 0.1357 0.2385 0.97376 0.0
N267 N 0.11205 0.26392 0.97013 0.0
C268 C 0.13272 0.26067 0.98671 0.0
H269 H 0.08504 0.23956 0.92755 0.0
Co270 Co 0.10127 0.29237 0.975 0.0
C271 C 0.11355 0.31062 0.04693 0.0
O272 O 0.08666 0.30642 0.04769 0.0
N273 N 0.09118 0.32234 0.97835 0.0
C274 C 0.09674 0.36707 0.98598 0.0
C275 C 0.10846 0.34931 0.99226 0.0
C276 C 0.07004 0.32513 0.96196 0.0
N277 N 0.07258 0.35181 0.96679 0.0
O278 O 0.13443 0.31849 0.94735 0.0
H279 H 0.12943 0.35649 1.00444 0.0
H280 H 0.05428 0.3089 0.9448 0.0
O281 O 0.12388 0.30672 1.01895 0.0
C282 C 0.12536 0.31448 0.91659 0.0
O283 O 0.09716 0.29647 0.91096 0.0
N284 N 0.0669 0.26423 0.99809 0.0
C285 C 0.01417 0.21842 0.02449 0.0
C286 C 0.04137 0.22571 0.03918 0.0
C287 C 0.06748 0.24826 0.02521 0.0
C288 C 0.0409 0.2557 0.98198 0.0
C289 C 0.01431 0.23376 0.99531 0.0
H290 H 0.08819 0.25249 0.03593 0.0
H291 H 0.04067 0.26475 0.95768 0.0
H292 H 0.14599 0.27474 1.00727 0.0
H293 H 0.11316 0.20917 0.93184 0.0
H294 H 0.10645 0.39008 0.99287 0.0
H295 H 0.04266 0.21361 0.06068 0.0
H296 H 0.99412 0.22873 0.9824 0.0
C297 C 0.86283 0.76646 0.59291 0.0
C298 C 0.89288 0.78266 0.58823 0.0
N299 N 0.90144 0.7659 0.57108 0.0
N300 N 0.85249 0.73975 0.57858 0.0
C301 C 0.87639 0.74 0.56562 0.0
H302 H 0.84944 0.77342 0.60652 0.0
Co303 Co 0.81438 0.70817 0.58036 0.0
C304 C 0.80278 0.68137 0.51179 0.0
O305 O 0.77755 0.68095 0.51362 0.0
N306 N 0.77596 0.67506 0.58325 0.0
C307 C 0.74327 0.62705 0.58637 0.0
C308 C 0.77185 0.64762 0.57917 0.0
C309 C 0.74919 0.67035 0.59332 0.0
N310 N 0.72907 0.64135 0.59534 0.0
O311 O 0.82801 0.68798 0.60994 0.0
H312 H 0.78897 0.64279 0.57236 0.0
H313 H 0.74448 0.68732 0.60091 0.0
O314 O 0.82076 0.69124 0.53708 0.0
C315 C 0.82595 0.69539 0.64039 0.0
O316 O 0.81556 0.71336 0.64478 0.0
N317 N 0.80178 0.73072 0.5559 0.0
C318 C 0.78853 0.77251 0.53003 0.0
C319 C 0.80661 0.76458 0.5119 0.0
C320 C 0.81335 0.74403 0.5255 0.0
C321 C 0.78583 0.73958 0.57469 0.0
C322 C 0.77797 0.75942 0.56182 0.0
H323 H 0.82907 0.74002 0.51234 0.0
H324 H 0.78052 0.73251 0.60068 0.0
H325 H 0.87532 0.72129 0.55274 0.0
H326 H 0.90727 0.80474 0.59759 0.0
H327 H 0.73377 0.60334 0.58571 0.0
H328 H 0.81665 0.77507 0.48812 0.0
H329 H 0.76434 0.76491 0.57728 0.0
C330 C 0.241 0.1004 0.59358 0.0
C331 C 0.22313 0.11257 0.59069 0.0
N332 N 0.23368 0.13235 0.56536 0.0
N333 N 0.2628 0.11281 0.57045 0.0
C334 C 0.25767 0.13212 0.55351 0.0
H335 H 0.23898 0.0844 0.61224 0.0
Co336 Co 0.29499 0.10735 0.569 0.0
C337 C 0.32137 0.12638 0.50114 0.0
O338 O 0.32291 0.10213 0.50053 0.0
N339 N 0.32848 0.10276 0.56922 0.0
C340 C 0.37653 0.11832 0.57088 0.0
C341 C 0.35579 0.1263 0.56502 0.0
C342 C 0.33344 0.08068 0.57833 0.0
N343 N 0.36249 0.08968 0.57942 0.0
O344 O 0.31549 0.14033 0.59926 0.0
H345 H 0.36044 0.14837 0.55919 0.0
H346 H 0.31658 0.05899 0.58611 0.0
O347 O 0.31072 0.1325 0.52729 0.0
C348 C 0.31198 0.13099 0.62979 0.0
O349 O 0.29663 0.1024 0.63493 0.0
N350 N 0.27256 0.07319 0.54271 0.0
C351 C 0.23346 0.01961 0.5116 0.0
C352 C 0.24129 0.04648 0.49572 0.0
C353 C 0.26008 0.07297 0.51219 0.0
C354 C 0.26369 0.04737 0.55939 0.0
C355 C 0.2447 0.02036 0.54409 0.0
H356 H 0.2638 0.09322 0.50071 0.0
H357 H 0.27015 0.04774 0.58543 0.0
H358 H 0.27199 0.14689 0.53408 0.0
H359 H 0.20425 0.10772 0.60629 0.0
H360 H 0.40018 0.13269 0.56975 0.0
H361 H 0.23256 0.04713 0.47109 0.0
H362 H 0.23787 1.00031 0.55831 0.0
C363 C 0.90966 0.13886 0.59021 0.0
C364 C 0.89593 0.10915 0.58298 0.0
N365 N 0.86837 0.10033 0.57194 0.0
N366 N 0.89093 0.14872 0.58346 0.0
C367 C 0.86598 0.12481 0.57282 0.0
H368 H 0.93193 0.15245 0.59945 0.0
Co369 Co 0.89695 0.1865 0.58808 0.0
C370 C 0.87673 0.19897 0.52354 0.0
O371 O 0.90038 0.22522 0.52512 0.0
N372 N 0.90188 0.22466 0.59365 0.0
C373 C 0.88663 0.25725 0.5983 0.0
C374 C 0.87798 0.22804 0.59533 0.0
C375 C 0.92502 0.25258 0.59627 0.0
N376 N 0.91623 0.27276 0.59869 0.0
O377 O 0.86435 0.17148 0.6194 0.0
H378 H 0.8554 0.21027 0.59365 0.0
H379 H 0.94787 0.25848 0.5955 0.0
O380 O 0.87135 0.1803 0.54747 0.0
C381 C 0.87315 0.17235 0.64983 0.0
O382 O 0.90138 0.18245 0.65496 0.0
N383 N 0.93069 0.20036 0.56049 0.0
C384 C 0.9835 0.21643 0.52672 0.0
C385 C 0.9563 0.19886 0.51067 0.0
C386 C 0.9302 0.19029 0.52836 0.0
C387 C 0.95683 0.21594 0.57711 0.0
C388 C 0.98349 0.22475 0.56057 0.0
H389 H 0.90969 0.17453 0.51659 0.0
H390 H 0.95694 0.22069 0.60382 0.0
H391 H 0.8463 0.12546 0.56628 0.0
H392 H 0.90579 0.09538 0.58513 0.0
H393 H 0.87218 0.26638 0.60005 0.0
H394 H 0.95507 0.19114 0.48492 0.0
H395 H 0.00382 0.23688 0.5747 0.0
C396 C 0.90998 0.48087 0.40526 0.0
C397 C 0.8959 0.45069 0.40837 0.0
N398 N 0.91626 0.4422 0.40649 0.0
N399 N 0.93905 0.4914 0.40068 0.0
C400 C 0.94225 0.46748 0.40279 0.0
H401 H 0.89952 0.49417 0.40563 0.0
Co402 Co 0.96896 0.5305 0.39457 0.0
C403 C 0.97678 0.50094 0.33014 0.0
O404 O 0.95308 0.47496 0.33361 0.0
N405 N 0.99888 0.56962 0.38886 0.0
C406 C 0.02694 0.61359 0.36548 0.0
C407 C 0.00848 0.58413 0.35918 0.0
C408 C 0.01176 0.5907 0.41281 0.0
N409 N 0.0288 0.61779 0.39928 0.0
O410 O 0.99416 0.52328 0.42354 0.0
H411 H 0.00068 0.57439 0.33447 0.0
H412 H 0.00737 0.58642 0.43958 0.0
O413 O 0.98321 0.521 0.35259 0.0
C414 C 0.98704 0.52509 0.45413 0.0
O415 O 0.96633 0.53186 0.45908 0.0
N416 N 0.94339 0.53871 0.37006 0.0
C417 C 0.9026 0.55328 0.34487 0.0
C418 C 0.90739 0.53225 0.32829 0.0
C419 C 0.92809 0.52538 0.34122 0.0
C420 C 0.93894 0.55904 0.3864 0.0
C421 C 0.91945 0.56727 0.37377 0.0
H422 H 0.93054 0.5084 0.32898 0.0
H423 H 0.95042 0.56875 0.40983 0.0
H424 H 0.96338 0.4687 0.40053 0.0
H425 H 0.87234 0.43617 0.41039 0.0
H426 H 0.03635 0.63079 0.34655 0.0
H427 H 0.89457 0.52035 0.30632 0.0
H428 H 0.91736 0.58418 0.38713 0.0
C429 C 0.52233 0.42482 0.4143 0.0
C430 C 0.55255 0.43931 0.41112 0.0
N431 N 0.56138 0.46567 0.39648 0.0
N432 N 0.51225 0.44192 0.40151 0.0
C433 C 0.53648 0.46668 0.39117 0.0
H434 H 0.50858 0.40325 0.42525 0.0
Co435 Co 0.47376 0.43406 0.4004 0.0
C436 C 0.4665 0.45292 0.33218 0.0
O437 O 0.44147 0.42787 0.33008 0.0
N438 N 0.43473 0.42698 0.40032 0.0
C439 C 0.39802 0.43685 0.39905 0.0
C440 C 0.42762 0.44799 0.39383 0.0
C441 C 0.40909 0.40357 0.41069 0.0
N442 N 0.38644 0.40892 0.40981 0.0
O443 O 0.48445 0.4668 0.4306 0.0
H444 H 0.44324 0.4705 0.38694 0.0
H445 H 0.40694 0.38334 0.42017 0.0
O446 O 0.48239 0.4591 0.35902 0.0
C447 C 0.48059 0.45754 0.46121 0.0
O448 O 0.47002 0.42922 0.46626 0.0
N449 N 0.46364 0.39992 0.37439 0.0
C450 C 0.44999 0.34577 0.34533 0.0
C451 C 0.4675 0.37227 0.32786 0.0
C452 C 0.47481 0.39919 0.34327 0.0
C453 C 0.44882 0.37461 0.39265 0.0
C454 C 0.44115 0.34733 0.37845 0.0
H455 H 0.49008 0.41932 0.33048 0.0
H456 H 0.44411 0.37569 0.41909 0.0
H457 H 0.53585 0.48539 0.38063 0.0
H458 H 0.56679 0.4309 0.4186 0.0
H459 H 0.38632 0.44892 0.39715 0.0
H460 H 0.47584 0.37232 0.30273 0.0
H461 H 0.42939 0.32774 0.39388 0.0
C462 C 0.5677 0.09662 0.40642 0.0
C463 C 0.549 0.10784 0.4068 0.0
N464 N 0.52222 0.08655 0.39655 0.0
N465 N 0.55302 0.06842 0.39541 0.0
C466 C 0.5251 0.06273 0.39057 0.0
H467 H 0.59051 0.10856 0.41399 0.0
Co468 Co 0.56734 0.04206 0.39147 0.0
C469 C 0.53527 0.03288 0.3239 0.0
O470 O 0.54146 0.06045 0.32283 0.0
N471 N 0.5817 0.01602 0.38821 0.0
C472 C 0.60007 0.98937 0.36678 0.0
C473 C 0.58616 0.00491 0.35934 0.0
C474 C 0.59304 0.00684 0.41294 0.0
N475 N 0.60444 0.99065 0.40047 0.0
O476 O 0.53588 0.01501 0.42112 0.0
H477 H 0.58068 0.00864 0.33416 0.0
H478 H 0.59397 0.0128 0.43936 0.0
O479 O 0.54351 0.02382 0.34965 0.0
C480 C 0.54379 0.02292 0.45191 0.0
O481 O 0.57 0.04593 0.45725 0.0
N482 N 0.60047 0.06978 0.36685 0.0
C483 C 0.65584 0.1128 0.34396 0.0
C484 C 0.63422 0.09403 0.32086 0.0
C485 C 0.60652 0.07245 0.33286 0.0
C486 C 0.62203 0.08676 0.38944 0.0
C487 C 0.64957 0.10881 0.37861 0.0
H488 H 0.59076 0.05758 0.31474 0.0
H489 H 0.61765 0.08315 0.41631 0.0
H490 H 0.50727 0.04151 0.38245 0.0
H491 H 0.55496 0.13024 0.41315 0.0
H492 H 0.60661 0.9781 0.34878 0.0
H493 H 0.63868 0.09607 0.29389 0.0
H494 H 0.66604 0.12236 0.39724 0.0
C495 C 0.81025 0.57598 0.8064 0.0
C496 C 0.78007 0.5629 0.80498 0.0
N497 N 0.77267 0.58342 0.81241 0.0
N498 N 0.82191 0.6046 0.81522 0.0
C499 C 0.79843 0.60859 0.81755 0.0
H500 H 0.82256 0.56493 0.80162 0.0
Co501 Co 0.86152 0.63389 0.82109 0.0
C502 C 0.83284 0.63564 0.88701 0.0
O503 O 0.81479 0.60709 0.8844 0.0
N504 N 0.90083 0.66282 0.82595 0.0
C505 C 0.94499 0.69262 0.84807 0.0
C506 C 0.91539 0.67581 0.85486 0.0
C507 C 0.92197 0.67213 0.80195 0.0
N508 N 0.94903 0.69022 0.8148 0.0
O509 O 0.85468 0.65914 0.79104 0.0
H510 H 0.90548 0.6723 0.87966 0.0
H511 H 0.91783 0.66467 0.77591 0.0
O512 O 0.85172 0.64908 0.86327 0.0
C513 C 0.85604 0.65138 0.76051 0.0
O514 O 0.86222 0.63021 0.75608 0.0
N515 N 0.86966 0.60819 0.84584 0.0
C516 C 0.88633 0.5686 0.86947 0.0
C517 C 0.88002 0.5852 0.89231 0.0
C518 C 0.87243 0.60553 0.87994 0.0
C519 C 0.87711 0.59317 0.82352 0.0
C520 C 0.88516 0.57306 0.83469 0.0
H521 H 0.86993 0.61951 0.89797 0.0
H522 H 0.87654 0.59674 0.79661 0.0
H523 H 0.80021 0.62948 0.82414 0.0
H524 H 0.76473 0.53978 0.80039 0.0
H525 H 0.96226 0.7053 0.86625 0.0
H526 H 0.88172 0.58306 0.9194 0.0
H527 H 0.89008 0.56084 0.81618 0.0
C528 C 0.43019 0.24081 0.78578 0.0
C529 C 0.44781 0.22844 0.78957 0.0
N530 N 0.43557 0.20735 0.81339 0.0
N531 N 0.40693 0.22728 0.80689 0.0
C532 C 0.41086 0.20704 0.82345 0.0
H533 H 0.43346 0.25781 0.7679 0.0
Co534 Co 0.37493 0.23294 0.80679 0.0
C535 C 0.34756 0.21495 0.87439 0.0
O536 O 0.34603 0.23921 0.87388 0.0
N537 N 0.34174 0.23784 0.80506 0.0
C538 C 0.29393 0.2229 0.80093 0.0
C539 C 0.31415 0.21462 0.80873 0.0
C540 C 0.33753 0.26004 0.79452 0.0
N541 N 0.30867 0.25142 0.79192 0.0
O542 O 0.35471 0.1996 0.77698 0.0
H543 H 0.30901 0.19251 0.81526 0.0
H544 H 0.35481 0.28145 0.78653 0.0
O545 O 0.35845 0.20838 0.84883 0.0
C546 C 0.35903 0.2088 0.74635 0.0
O547 O 0.37504 0.23733 0.74109 0.0
N548 N 0.39717 0.26746 0.83254 0.0
C549 C 0.43653 0.32162 0.86228 0.0
C550 C 0.42791 0.29512 0.87946 0.0
C551 C 0.40901 0.26828 0.86369 0.0
C552 C 0.40682 0.29287 0.81471 0.0
C553 C 0.42594 0.32018 0.82926 0.0
H554 H 0.40478 0.24824 0.87621 0.0
H555 H 0.40092 0.29189 0.78833 0.0
H556 H 0.3952 0.19128 0.84124 0.0
H557 H 0.46769 0.23407 0.77556 0.0
H558 H 0.27021 0.20883 0.80077 0.0
H559 H 0.43614 0.29499 0.90457 0.0
H560 H 0.4334 0.33986 0.81412 0.0
C561 C 0.76094 0.18468 0.81029 0.0
C562 C 0.77663 0.21486 0.80709 0.0
N563 N 0.80539 0.22404 0.81196 0.0
N564 N 0.7796 0.17485 0.81785 0.0
C565 C 0.80656 0.19921 0.81746 0.0
H566 H 0.73731 0.17088 0.80788 0.0
Co567 Co 0.76999 0.13577 0.82481 0.0
C568 C 0.80667 0.16533 0.89016 0.0
O569 O 0.80887 0.19126 0.88683 0.0
N570 N 0.76013 0.09651 0.83121 0.0
C571 C 0.74383 0.05287 0.85565 0.0
C572 C 0.75479 0.08242 0.86124 0.0
C573 C 0.75217 0.07504 0.80773 0.0
N574 N 0.742 0.0482 0.82195 0.0
O575 O 0.80296 0.14261 0.79673 0.0
H576 H 0.75675 0.09256 0.88569 0.0
H577 H 0.75178 0.07868 0.78081 0.0
O578 O 0.79324 0.14539 0.86749 0.0
C579 C 0.79466 0.14059 0.76582 0.0
O580 O 0.76722 0.13359 0.76001 0.0
N581 N 0.73585 0.12817 0.84833 0.0
C582 C 0.68054 0.11696 0.87022 0.0
C583 C 0.70621 0.13687 0.88788 0.0
C584 C 0.73375 0.14216 0.87652 0.0
C585 C 0.71115 0.10853 0.83126 0.0
C586 C 0.68337 0.10214 0.84211 0.0
H587 H 0.75318 0.15858 0.88933 0.0
H588 H 0.71308 0.09829 0.80834 0.0
H589 H 0.82664 0.1987 0.82205 0.0
H590 H 0.76736 0.22897 0.80303 0.0
H591 H 0.73667 0.03601 0.87495 0.0
H592 H 0.70524 0.14921 0.90938 0.0
H593 H 0.66433 0.08607 0.82802 0.0
C594 C 0.43154 0.19246 0.29692 0.0
C595 C 0.44536 0.22275 0.2974 0.0
N596 N 0.42476 0.23071 0.30125 0.0
N597 N 0.40226 0.18114 0.30092 0.0
C598 C 0.39884 0.20504 0.30234 0.0
H599 H 0.44259 0.17985 0.29484 0.0
Co600 Co 0.37152 0.14177 0.30528 0.0
C601 C 0.3689 0.17033 0.37125 0.0
O602 O 0.3975 0.18853 0.37058 0.0
N603 N 0.34091 0.1027 0.30933 0.0
C604 C 0.30811 0.05979 0.33201 0.0
C605 C 0.32601 0.08935 0.33792 0.0
C606 C 0.33166 0.08065 0.28634 0.0
N607 N 0.31173 0.05426 0.29961 0.0
O608 O 0.34782 0.15066 0.27525 0.0
H609 H 0.32899 0.09988 0.36225 0.0
H610 H 0.34053 0.08363 0.26095 0.0
O611 O 0.35661 0.15215 0.3466 0.0
C612 C 0.35508 0.14976 0.24443 0.0
O613 O 0.37508 0.14216 0.23873 0.0
N614 N 0.3955 0.13158 0.33059 0.0
C615 C 0.43197 0.1115 0.35614 0.0
C616 C 0.4151 0.11829 0.37806 0.0
C617 C 0.3965 0.12775 0.36474 0.0
C618 C 0.41066 0.12371 0.309 0.0
C619 C 0.42928 0.11402 0.32115 0.0
H620 H 0.38247 0.13089 0.38203 0.0
H621 H 0.4085 0.12537 0.28195 0.0
H622 H 0.37762 0.20342 0.30577 0.0
H623 H 0.46893 0.2376 0.29681 0.0
H624 H 0.29403 0.04349 0.35041 0.0
H625 H 0.41577 0.11568 0.40522 0.0
H626 H 0.44181 0.10902 0.30322 0.0
C627 C 0.81496 0.24659 0.31645 0.0
C628 C 0.78483 0.23269 0.31367 0.0
N629 N 0.77405 0.20342 0.31581 0.0
N630 N 0.82324 0.22626 0.32114 0.0
C631 C 0.79783 0.20009 0.31942 0.0
H632 H 0.82977 0.27013 0.31553 0.0
Co633 Co 0.86191 0.2338 0.32672 0.0
C634 C 0.8317 0.197 0.39109 0.0
O635 O 0.80713 0.19771 0.38834 0.0
N636 N 0.90071 0.24182 0.33167 0.0
C637 C 0.94429 0.25562 0.35507 0.0
C638 C 0.915 0.24543 0.36132 0.0
C639 C 0.92184 0.25011 0.30774 0.0
N640 N 0.94863 0.25871 0.32135 0.0
O641 O 0.85303 0.20086 0.29745 0.0
H642 H 0.90524 0.24279 0.38611 0.0
H643 H 0.91807 0.25173 0.28108 0.0
O644 O 0.85181 0.20939 0.36844 0.0
C645 C 0.85501 0.20911 0.26656 0.0
O646 O 0.86269 0.23672 0.26067 0.0
N647 N 0.87181 0.268 0.35166 0.0
C648 C 0.8895 0.32412 0.37716 0.0
C649 C 0.87195 0.29892 0.39671 0.0
C650 C 0.86327 0.27094 0.38346 0.0
C651 C 0.88898 0.29225 0.33251 0.0
C652 C 0.89808 0.32043 0.3447 0.0
H653 H 0.84936 0.25203 0.39867 0.0
H654 H 0.89507 0.28955 0.30712 0.0
H655 H 0.79668 0.17904 0.3227 0.0
H656 H 0.77182 0.24334 0.31092 0.0
H657 H 0.96126 0.26135 0.37399 0.0
H658 H 0.86486 0.30077 0.42193 0.0
H659 H 0.91098 0.33911 0.32831 0.0
C660 C 0.76784 0.56999 0.29197 0.0
C661 C 0.78598 0.55809 0.29034 0.0
N662 N 0.81202 0.57765 0.30395 0.0
N663 N 0.78232 0.5967 0.30714 0.0
C664 C 0.80948 0.60098 0.3133 0.0
H665 H 0.74557 0.55971 0.28242 0.0
Co666 Co 0.76901 0.62343 0.31289 0.0
C667 C 0.80097 0.63126 0.38132 0.0
O668 O 0.79573 0.60399 0.38185 0.0
N669 N 0.75536 0.64986 0.3179 0.0
C670 C 0.73588 0.67462 0.3417 0.0
C671 C 0.74949 0.65859 0.34771 0.0
C672 C 0.74517 0.66097 0.29405 0.0
N673 N 0.7331 0.67601 0.308 0.0
O674 O 0.80115 0.65091 0.28405 0.0
H675 H 0.75347 0.65256 0.37246 0.0
H676 H 0.74528 0.65696 0.26716 0.0
O677 O 0.79251 0.64021 0.35564 0.0
C678 C 0.79363 0.64369 0.253 0.0
O679 O 0.76686 0.6219 0.24688 0.0
N680 N 0.73549 0.5952 0.33637 0.0
C681 C 0.67918 0.5529 0.35787 0.0
C682 C 0.70174 0.56866 0.38149 0.0
C683 C 0.72974 0.59001 0.37025 0.0
C684 C 0.71363 0.58038 0.3133 0.0
C685 C 0.68552 0.55895 0.32335 0.0
H686 H 0.74588 0.6029 0.38908 0.0
H687 H 0.71809 0.58551 0.28666 0.0
H688 H 0.82712 0.62074 0.32474 0.0
H689 H 0.78021 0.53639 0.28107 0.0
H690 H 0.72818 0.68415 0.36066 0.0
H691 H 0.69754 0.56527 0.40845 0.0
H692 H 0.6689 0.54731 0.30415 0.0
C693 C 0.52558 0.09246 0.92809 0.0
C694 C 0.55592 0.10654 0.92873 0.0
N695 N 0.56455 0.09374 0.90531 0.0
N696 N 0.51537 0.07082 0.90461 0.0
C697 C 0.53965 0.07217 0.89116 0.0
H698 H 0.51178 0.09734 0.94405 0.0
Co699 Co 0.47618 0.04358 0.8961 0.0
C700 C 0.4841 0.01091 0.83726 0.0
O701 O 0.47592 0.98699 0.85526 0.0
N702 N 0.43657 0.01616 0.88758 0.0
C703 C 0.3931 0.99268 0.86171 0.0
C704 C 0.42289 0.01058 0.8572 0.0
C705 C 0.41463 0.00134 0.91013 0.0
N706 N 0.38796 0.98701 0.89503 0.0
O707 O 0.48107 0.01465 0.92108 0.0
H708 H 0.43362 0.02024 0.83343 0.0
H709 H 0.41784 0.0025 0.93727 0.0
O710 O 0.48619 0.0338 0.85157 0.0
C711 C 0.4778 0.01904 0.95239 0.0
O712 O 0.47024 0.03886 0.95956 0.0
N713 N 0.47129 0.07299 0.8761 0.0
C714 C 0.46302 0.11905 0.85488 0.0
C715 C 0.48407 0.11388 0.83907 0.0
C716 C 0.48792 0.09068 0.85015 0.0
C717 C 0.45123 0.078 0.89212 0.0
C718 C 0.44629 0.10042 0.8815 0.0
H719 H 0.50488 0.08755 0.83868 0.0
H720 H 0.43903 0.06455 0.91352 0.0
H721 H 0.53918 0.05713 0.87204 0.0
H722 H 0.57049 0.1248 0.9449 0.0
H723 H 0.37644 0.9851 0.84209 0.0
H724 H 0.49799 0.12803 0.81895 0.0
H725 H 0.42944 0.10302 0.89422 0.0
C726 C 0.89832 0.42882 0.90416 0.0
C727 C 0.88622 0.44679 0.90619 0.0
N728 N 0.90794 0.47486 0.90188 0.0
N729 N 0.92749 0.44549 0.89815 0.0
C730 C 0.93274 0.47346 0.89782 0.0
H731 H 0.8864 0.40511 0.90654 0.0
Co732 Co 0.9554 0.43361 0.89375 0.0
C733 C 0.96504 0.46905 0.82798 0.0
O734 O 0.93892 0.46674 0.82821 0.0
N735 N 0.98312 0.42155 0.88969 0.0
C736 C 0.01052 0.40467 0.86687 0.0
C737 C 0.99321 0.41679 0.86023 0.0
C738 C 0.99448 0.41199 0.91394 0.0
N739 N 0.0112 0.40152 0.90064 0.0
O740 O 0.98145 0.46567 0.92322 0.0
H741 H 0.98723 0.42048 0.83528 0.0
H742 H 0.98941 0.41133 0.94061 0.0
O743 O 0.97241 0.45775 0.85222 0.0
C744 C 0.97417 0.45792 0.95411 0.0
O745 O 0.95247 0.43106 0.96002 0.0
N746 N 0.92892 0.40013 0.86907 0.0
C747 C 0.89092 0.34348 0.8447 0.0
C748 C 0.903 0.36771 0.82262 0.0
C749 C 0.92225 0.39599 0.83529 0.0
C750 C 0.91701 0.37684 0.89075 0.0
C751 C 0.89796 0.34842 0.87921 0.0
H752 H 0.93206 0.41393 0.81763 0.0
H753 H 0.92269 0.38046 0.91736 0.0
H754 H 0.95438 0.49243 0.89374 0.0
H755 H 0.86307 0.43962 0.90918 0.0
H756 H 0.02131 0.39815 0.8482 0.0
H757 H 0.89826 0.36474 0.79573 0.0
H758 H 0.88876 0.33047 0.89727 0.0
C759 C 0.5729 0.47296 0.91183 0.0
C760 C 0.55577 0.44277 0.91133 0.0
N761 N 0.52741 0.43554 0.90737 0.0
N762 N 0.55555 0.48492 0.90768 0.0
C763 C 0.52791 0.46155 0.90624 0.0
H764 H 0.59658 0.48506 0.91408 0.0
Co765 Co 0.56572 0.52456 0.90373 0.0
C766 C 0.53378 0.49724 0.83751 0.0
O767 O 0.54254 0.47776 0.83812 0.0
N768 N 0.57609 0.564 0.90031 0.0
C769 C 0.59052 0.60812 0.8782 0.0
C770 C 0.57616 0.57841 0.87191 0.0
C771 C 0.59053 0.58548 0.92356 0.0
N772 N 0.59969 0.61255 0.9106 0.0
O773 O 0.53325 0.51677 0.9337 0.0
H774 H 0.56809 0.56839 0.84745 0.0
H775 H 0.59576 0.58149 0.94883 0.0
O776 O 0.54069 0.51558 0.86223 0.0
C777 C 0.54076 0.51703 0.96466 0.0
O778 O 0.56789 0.52322 0.97084 0.0
N779 N 0.59958 0.53358 0.87838 0.0
C780 C 0.65602 0.55334 0.85275 0.0
C781 C 0.63238 0.54639 0.83082 0.0
C782 C 0.60437 0.53712 0.84419 0.0
C783 C 0.62258 0.54126 0.89994 0.0
C784 C 0.65086 0.55086 0.88774 0.0
H785 H 0.58731 0.53415 0.82687 0.0
H786 H 0.61879 0.5398 0.92701 0.0
H787 H 0.50867 0.46377 0.90275 0.0
H788 H 0.56392 0.42747 0.91196 0.0
H789 H 0.59452 0.62524 0.86011 0.0
H790 H 0.63571 0.54897 0.80367 0.0
H791 H 0.66849 0.55606 0.90561 0.0
C792 C 0.5637 0.79956 0.74405 0.0
C793 C 0.55052 0.76938 0.74293 0.0
N794 N 0.57168 0.76213 0.73946 0.0
N795 N 0.59309 0.81149 0.74069 0.0
C796 C 0.59732 0.78813 0.73916 0.0
H797 H 0.55235 0.81191 0.74627 0.0
Co798 Co 0.62142 0.85157 0.73887 0.0
C799 C 0.63492 0.82885 0.67223 0.0
O800 O 0.61073 0.80301 0.67139 0.0
N801 N 0.64962 0.89171 0.73717 0.0
C802 C 0.67807 0.93675 0.71662 0.0
C803 C 0.65861 0.90794 0.70856 0.0
C804 C 0.66373 0.91126 0.76241 0.0
N805 N 0.68135 0.93893 0.75054 0.0
O806 O 0.64656 0.84432 0.76805 0.0
H807 H 0.65064 0.8996 0.68338 0.0
H808 H 0.66079 0.90541 0.78895 0.0
O809 O 0.63947 0.84657 0.69697 0.0
C810 C 0.63838 0.84398 0.79873 0.0
O811 O 0.61635 0.84871 0.80415 0.0
N812 N 0.59559 0.85943 0.7144 0.0
C813 C 0.55481 0.87417 0.68978 0.0
C814 C 0.5659 0.86034 0.66871 0.0
C815 C 0.58629 0.85303 0.68155 0.0
C816 C 0.58499 0.87276 0.73513 0.0
C817 C 0.5646 0.88024 0.72345 0.0
H818 H 0.59421 0.84223 0.66502 0.0
H819 H 0.59225 0.87723 0.76123 0.0
H820 H 0.61886 0.79032 0.73652 0.0
H821 H 0.52703 0.75411 0.74296 0.0
H822 H 0.68798 0.95488 0.69887 0.0
H823 H 0.55907 0.8554 0.64248 0.0
H824 H 0.55622 0.89025 0.74092 0.0
C825 C 0.19892 0.77069 0.74374 0.0
C826 C 0.22894 0.7868 0.73889 0.0
N827 N 0.23576 0.81305 0.72517 0.0
N828 N 0.18681 0.78656 0.73279 0.0
C829 C 0.20971 0.81225 0.72198 0.0
H830 H 0.18668 0.74879 0.75439 0.0
Co831 Co 0.1475 0.77642 0.73351 0.0
C832 C 0.1364 0.78906 0.66368 0.0
O833 O 0.11225 0.76312 0.66445 0.0
N834 N 0.10771 0.76734 0.73511 0.0
C835 C 0.06973 0.77527 0.7326 0.0
C836 C 0.09898 0.7865 0.72525 0.0
C837 C 0.08344 0.74524 0.75013 0.0
N838 N 0.06004 0.74937 0.74836 0.0
O839 O 0.15761 0.81014 0.7616 0.0
H840 H 0.11332 0.80808 0.71465 0.0
H841 H 0.08294 0.72712 0.76359 0.0
O842 O 0.15312 0.79845 0.68997 0.0
C843 C 0.15497 0.80077 0.79209 0.0
O844 O 0.14641 0.77278 0.79664 0.0
N845 N 0.138 0.74123 0.71027 0.0
C846 C 0.12623 0.68621 0.68601 0.0
C847 C 0.14272 0.71177 0.66659 0.0
C848 C 0.14915 0.73921 0.67964 0.0
C849 C 0.12405 0.71697 0.73036 0.0
C850 C 0.11742 0.68927 0.7186 0.0
H851 H 0.16369 0.75879 0.66545 0.0
H852 H 0.11951 0.71933 0.75647 0.0
H853 H 0.20718 0.83019 0.71249 0.0
H854 H 0.24437 0.77943 0.74465 0.0
H855 H 0.05705 0.78615 0.72863 0.0
H856 H 0.15088 0.71072 0.64172 0.0
H857 H 0.10645 0.67058 0.73551 0.0
C858 C 0.23569 0.43416 0.75569 0.0
C859 C 0.22047 0.44909 0.75165 0.0
N860 N 0.19565 0.43179 0.73388 0.0
N861 N 0.22062 0.40775 0.74032 0.0
C862 C 0.19646 0.4069 0.72741 0.0
H863 H 0.25598 0.44171 0.76964 0.0
Co864 Co 0.22832 0.37702 0.74078 0.0
C865 C 0.21513 0.35258 0.67135 0.0
O866 O 0.24052 0.35333 0.67304 0.0
N867 N 0.23457 0.34449 0.74202 0.0
C868 C 0.22022 0.2967 0.74118 0.0
C869 C 0.21147 0.31704 0.73723 0.0
C870 C 0.25727 0.33999 0.74942 0.0
N871 N 0.2491 0.31107 0.7488 0.0
O872 O 0.19407 0.35517 0.76903 0.0
H873 H 0.18921 0.31199 0.73171 0.0
H874 H 0.27926 0.35717 0.75555 0.0
O875 O 0.20604 0.36104 0.69701 0.0
C876 C 0.20296 0.36112 0.7998 0.0
O877 O 0.23126 0.3788 0.80519 0.0
N878 N 0.26382 0.40121 0.71756 0.0
C879 C 0.31909 0.44464 0.69376 0.0
C880 C 0.29328 0.43694 0.67529 0.0
C881 C 0.26586 0.41552 0.68786 0.0
C882 C 0.28833 0.40987 0.73683 0.0
C883 C 0.31616 0.43053 0.72494 0.0
H884 H 0.24622 0.41148 0.67445 0.0
H885 H 0.28617 0.40166 0.76237 0.0
H886 H 0.17957 0.38804 0.71393 0.0
H887 H 0.22691 0.47064 0.76189 0.0
H888 H 0.20602 0.27304 0.73979 0.0
H889 H 0.29398 0.44815 0.652 0.0
H890 H 0.33506 0.43567 0.74061 0.0
C891 C 0.46994 0.89999 0.10396 0.0
C892 C 0.4399 0.88304 0.10853 0.0
N893 N 0.43224 0.89513 0.13381 0.0
N894 N 0.48087 0.92271 0.12605 0.0
C895 C 0.45737 0.9191 0.14393 0.0
H896 H 0.48286 0.89663 0.08498 0.0
Co897 Co 0.51904 0.95427 0.12627 0.0
C898 C 0.5295 0.97945 0.19527 0.0
O899 O 0.55435 0.97911 0.19395 0.0
N900 N 0.55763 0.98748 0.12552 0.0
C901 C 0.59036 0.03551 0.12728 0.0
C902 C 0.56112 0.01476 0.12824 0.0
C903 C 0.58558 0.99251 0.12252 0.0
N904 N 0.60584 0.02157 0.12386 0.0
O905 O 0.50612 0.97532 0.09734 0.0
H906 H 0.54334 0.0194 0.13115 0.0
H907 H 0.59138 0.97558 0.11998 0.0
O908 O 0.5119 0.97033 0.16962 0.0
C909 C 0.50987 0.9706 0.06635 0.0
O910 O 0.52205 0.95443 0.0602 0.0
N911 N 0.53068 0.93082 0.15039 0.0
C912 C 0.54317 0.88868 0.17677 0.0
C913 C 0.52418 0.89599 0.19388 0.0
C914 C 0.51787 0.91673 0.18004 0.0
C915 C 0.54739 0.92245 0.13231 0.0
C916 C 0.55484 0.90238 0.14549 0.0
H917 H 0.50175 0.92052 0.19257 0.0
H918 H 0.5543 0.93077 0.10691 0.0
H919 H 0.45826 0.93444 0.16291 0.0
H920 H 0.42482 0.86367 0.09415 0.0
H921 H 0.59945 0.05913 0.12853 0.0
H922 H 0.51327 0.88501 0.21713 0.0
H923 H 0.56928 0.89742 0.13085 0.0
C924 C 0.09441 0.56453 0.10563 0.0
C925 C 0.11018 0.55021 0.11016 0.0
N926 N 0.09774 0.53096 0.1358 0.0
N927 N 0.07205 0.55404 0.12812 0.0
C928 C 0.07474 0.53369 0.14622 0.0
H929 H 0.09838 0.58085 0.0865 0.0
Co930 Co 0.04201 0.56295 0.12881 0.0
C931 C 0.01679 0.54799 0.19764 0.0
O932 O 0.01713 0.57322 0.19713 0.0
N933 N 0.01054 0.57094 0.12847 0.0
C934 C 0.96399 0.5611 0.13146 0.0
C935 C 0.98234 0.54964 0.13428 0.0
C936 C 0.00843 0.59502 0.12094 0.0
N937 N 0.98043 0.58966 0.12303 0.0
O938 O 0.01897 0.5293 0.09996 0.0
H939 H 0.97545 0.5269 0.1399 0.0
H940 H 0.02665 0.61602 0.1134 0.0
O941 O 0.02564 0.53981 0.17159 0.0
C942 C 0.0241 0.53767 0.069 0.0
O943 O 0.04177 0.56585 0.06292 0.0
N944 N 0.0671 0.59766 0.15336 0.0
C945 C 0.10811 0.65173 0.18192 0.0
C946 C 0.09892 0.62537 0.1996 0.0
C947 C 0.07919 0.59848 0.18436 0.0
C948 C 0.0777 0.62287 0.13486 0.0
C949 C 0.09763 0.65019 0.14886 0.0
H950 H 0.07428 0.57839 0.19728 0.0
H951 H 0.07125 0.62169 0.10865 0.0
H952 H 0.05944 0.52007 0.16567 0.0
H953 H 0.12906 0.55343 0.09558 0.0
H954 H 0.94023 0.54907 0.13394 0.0
H955 H 0.10776 0.62545 0.22443 0.0
H956 H 0.10496 0.6699 0.13378 0.0
C957 C 0.42793 0.52962 0.12862 0.0
C958 C 0.44465 0.55984 0.12956 0.0
N959 N 0.47272 0.56744 0.13654 0.0
N960 N 0.44515 0.51793 0.13563 0.0
C961 C 0.47247 0.54159 0.139 0.0
H962 H 0.40458 0.51737 0.12372 0.0
Co963 Co 0.43537 0.47826 0.14025 0.0
C964 C 0.4673 0.50543 0.20638 0.0
O965 O 0.45752 0.52412 0.20707 0.0
N966 N 0.42585 0.43895 0.14461 0.0
C967 C 0.41521 0.39607 0.16771 0.0
C968 C 0.42653 0.42554 0.17355 0.0
C969 C 0.41394 0.417 0.12143 0.0
N970 N 0.40718 0.39065 0.13498 0.0
O971 O 0.46749 0.48607 0.10975 0.0
H972 H 0.43352 0.43599 0.19797 0.0
H973 H 0.4091 0.42004 0.09558 0.0
O974 O 0.46104 0.48801 0.1809 0.0
C975 C 0.45977 0.4855 0.07882 0.0
O976 O 0.4325 0.47888 0.07273 0.0
N977 N 0.40175 0.46938 0.16646 0.0
C978 C 0.34722 0.4549 0.19424 0.0
C979 C 0.37022 0.45808 0.21512 0.0
C980 C 0.39736 0.46512 0.20068 0.0
C981 C 0.37869 0.46371 0.14581 0.0
C982 C 0.35149 0.45725 0.15913 0.0
H983 H 0.41419 0.46633 0.21722 0.0
H984 H 0.38175 0.46497 0.11861 0.0
H985 H 0.49165 0.5397 0.14449 0.0
H986 H 0.43632 0.57489 0.1269 0.0
H987 H 0.4126 0.37977 0.18629 0.0
H988 H 0.36736 0.45553 0.24234 0.0
H989 H 0.3339 0.454 0.14212 0.0
C990 C 0.10467 0.53198 0.62772 0.0
C991 C 0.11987 0.56199 0.63321 0.0
N992 N 0.10067 0.57025 0.64415 0.0
N993 N 0.07611 0.52136 0.63553 0.0
C994 C 0.0743 0.54508 0.64507 0.0
H995 H 0.11382 0.51876 0.61869 0.0
Co996 Co 0.04487 0.48308 0.63225 0.0
C997 C 0.01542 0.4705 0.69872 0.0
O998 O 0.01473 0.44513 0.69704 0.0
N999 N 0.01201 0.44448 0.62796 0.0
C1000 C 0.96415 0.41165 0.62353 0.0
C1001 C 0.98449 0.44052 0.62954 0.0
C1002 C 0.00756 0.41721 0.62064 0.0
N1003 N 0.97861 0.39696 0.61781 0.0
O1004 O 0.02547 0.4968 0.6022 0.0
H1005 H 0.97944 0.4578 0.63457 0.0
H1006 H 0.02478 0.41206 0.61635 0.0
O1007 O 0.02654 0.48894 0.67411 0.0
C1008 C 0.03339 0.49554 0.57186 0.0
O1009 O 0.05198 0.48595 0.56722 0.0
N1010 N 0.0666 0.47041 0.65808 0.0
C1011 C 0.10698 0.45706 0.68702 0.0
C1012 C 0.09835 0.47482 0.70439 0.0
C1013 C 0.07846 0.48166 0.68923 0.0
C1014 C 0.07637 0.45478 0.64012 0.0
C1015 C 0.0958 0.44704 0.65446 0.0
H1016 H 0.07375 0.49711 0.70188 0.0
H1017 H 0.07027 0.44962 0.61379 0.0
H1018 H 0.05371 0.54377 0.65187 0.0
H1019 H 0.1433 0.57639 0.6297 0.0
H1020 H 0.94045 0.40215 0.62345 0.0
H1021 H 0.10735 0.48381 0.72913 0.0
H1022 H 0.10316 0.43455 0.63957 0.0
C1023 C 0.47223 0.56435 0.61748 0.0
C1024 C 0.44217 0.55112 0.62179 0.0
N1025 N 0.43441 0.53147 0.64714 0.0
N1026 N 0.4831 0.55273 0.63974 0.0
C1027 C 0.45952 0.53285 0.65759 0.0
H1028 H 0.48518 0.58044 0.59835 0.0
Co1029 Co 0.52119 0.55915 0.63923 0.0
C1030 C 0.53117 0.54142 0.70673 0.0
O1031 O 0.55685 0.56584 0.70629 0.0
N1032 N 0.55966 0.56457 0.63746 0.0
C1033 C 0.59286 0.55 0.63619 0.0
C1034 C 0.56366 0.5411 0.63975 0.0
C1035 C 0.58713 0.58765 0.63187 0.0
N1036 N 0.60775 0.57934 0.63132 0.0
O1037 O 0.50815 0.52579 0.60917 0.0
H1038 H 0.54621 0.5186 0.64351 0.0
H1039 H 0.5922 0.61005 0.62804 0.0
O1040 O 0.51361 0.53477 0.68128 0.0
C1041 C 0.51261 0.53499 0.57851 0.0
O1042 O 0.52511 0.56353 0.57335 0.0
N1043 N 0.53325 0.59369 0.6649 0.0
C1044 C 0.54813 0.64798 0.69441 0.0
C1045 C 0.5303 0.6215 0.71175 0.0
C1046 C 0.52236 0.59459 0.69612 0.0
C1047 C 0.54891 0.61904 0.64691 0.0
C1048 C 0.55715 0.6464 0.66135 0.0
H1049 H 0.50673 0.57455 0.70881 0.0
H1050 H 0.55414 0.61793 0.62063 0.0
H1051 H 0.46028 0.51838 0.67656 0.0
H1052 H 0.42711 0.55508 0.60704 0.0
H1053 H 0.60221 0.53571 0.63615 0.0
H1054 H 0.52204 0.62146 0.73691 0.0
H1055 H 0.56944 0.66605 0.64614 0.0
C1056 C 0.42699 0.90134 0.628 0.0
C1057 C 0.44033 0.88502 0.63499 0.0
N1058 N 0.46783 0.90347 0.64643 0.0
N1059 N 0.44594 0.92986 0.63531 0.0
C1060 C 0.47057 0.93048 0.6462 0.0
H1061 H 0.40506 0.89301 0.6179 0.0
Co1062 Co 0.44148 0.96234 0.62902 0.0
C1063 C 0.46106 0.99678 0.69363 0.0
O1064 O 0.44061 0.00378 0.68836 0.0
N1065 N 0.43807 0.99605 0.6215 0.0
C1066 C 0.45412 0.04376 0.61375 0.0
C1067 C 0.46227 0.02314 0.61952 0.0
C1068 C 0.4153 0.00093 0.6163 0.0
N1069 N 0.42455 0.02985 0.61189 0.0
O1070 O 0.47578 0.97935 0.59968 0.0
H1071 H 0.48468 0.02778 0.62268 0.0
H1072 H 0.3924 0.98401 0.6163 0.0
O1073 O 0.46485 0.98072 0.67172 0.0
C1074 C 0.46753 0.97086 0.56914 0.0
O1075 O 0.43947 0.95211 0.56372 0.0
N1076 N 0.40603 0.94319 0.65375 0.0
C1077 C 0.35038 0.90405 0.68038 0.0
C1078 C 0.37564 0.91573 0.7009 0.0
C1079 C 0.40332 0.93469 0.68692 0.0
C1080 C 0.38182 0.93157 0.63335 0.0
C1081 C 0.35382 0.91239 0.64616 0.0
H1082 H 0.42246 0.9409 0.70242 0.0
H1083 H 0.38448 0.93623 0.60647 0.0
H1084 H 0.49048 0.95067 0.65279 0.0
H1085 H 0.43044 0.86142 0.63195 0.0
H1086 H 0.46892 0.06721 0.61084 0.0
H1087 H 0.37422 0.9096 0.72731 0.0
H1088 H 0.33526 0.90306 0.6289 0.0
C1089 C 0.19477 0.43571 0.24835 0.0
C1090 C 0.22501 0.45098 0.247 0.0
N1091 N 0.23425 0.43152 0.24175 0.0
N1092 N 0.18488 0.40682 0.24294 0.0
C1093 C 0.20953 0.40483 0.2405 0.0
H1094 H 0.18083 0.44525 0.25192 0.0
Co1095 Co 0.14535 0.37722 0.23987 0.0
C1096 C 0.16968 0.36388 0.17343 0.0
O1097 O 0.19624 0.38709 0.1732 0.0
N1098 N 0.10565 0.34768 0.23726 0.0
C1099 C 0.06087 0.31878 0.21622 0.0
C1100 C 0.08976 0.33811 0.20843 0.0
C1101 C 0.08585 0.33395 0.26232 0.0
N1102 N 0.05826 0.31615 0.2502 0.0
O1103 O 0.15355 0.35282 0.26958 0.0
H1104 H 0.09828 0.34602 0.18332 0.0
H1105 H 0.09146 0.33771 0.28892 0.0
O1106 O 0.15185 0.36013 0.19777 0.0
C1107 C 0.15398 0.36092 0.30037 0.0
O1108 O 0.14858 0.38248 0.30606 0.0
N1109 N 0.13673 0.40235 0.21442 0.0
C1110 C 0.1242 0.44401 0.18681 0.0
C1111 C 0.14438 0.43757 0.17101 0.0
C1112 C 0.15028 0.4166 0.18517 0.0
C1113 C 0.11716 0.40833 0.23009 0.0
C1114 C 0.11012 0.42851 0.21642 0.0
H1115 H 0.16684 0.41314 0.17354 0.0
H1116 H 0.10722 0.39767 0.25381 0.0
H1117 H 0.2093 0.38437 0.23582 0.0
H1118 H 0.2391 0.47466 0.24865 0.0
H1119 H 0.04296 0.30883 0.19817 0.0
H1120 H 0.1564 0.44934 0.1486 0.0
H1121 H 0.09395 0.43204 0.22936 0.0
C1122 C 0.57365 0.77036 0.26229 0.0
C1123 C 0.55819 0.78485 0.25689 0.0
N1124 N 0.57035 0.80294 0.23021 0.0
N1125 N 0.59557 0.77961 0.23934 0.0
C1126 C 0.59288 0.79936 0.22001 0.0
H1127 H 0.56987 0.75486 0.2824 0.0
Co1128 Co 0.62505 0.77 0.23999 0.0
C1129 C 0.65267 0.78557 0.17241 0.0
O1130 O 0.65111 0.75977 0.17247 0.0
N1131 N 0.65586 0.7612 0.24183 0.0
C1132 C 0.70206 0.76988 0.24135 0.0
C1133 C 0.68437 0.78185 0.23635 0.0
C1134 C 0.6571 0.73709 0.25154 0.0
N1135 N 0.68486 0.74174 0.25098 0.0
O1136 O 0.64761 0.80297 0.26962 0.0
H1137 H 0.69198 0.80458 0.22985 0.0
H1138 H 0.63845 0.71674 0.25999 0.0
O1139 O 0.64328 0.79367 0.19804 0.0
C1140 C 0.64244 0.79384 0.3003 0.0
O1141 O 0.62504 0.76548 0.30558 0.0
N1142 N 0.60034 0.73583 0.21465 0.0
C1143 C 0.56015 0.68189 0.18509 0.0
C1144 C 0.57002 0.7084 0.16734 0.0
C1145 C 0.58936 0.73522 0.18302 0.0
C1146 C 0.58879 0.71062 0.23324 0.0
C1147 C 0.56927 0.6834 0.21882 0.0
H1148 H 0.59514 0.7554 0.16978 0.0
H1149 H 0.59411 0.71175 0.25984 0.0
H1150 H 0.60792 0.81202 0.19988 0.0
H1151 H 0.5398 0.78265 0.27167 0.0
H1152 H 0.72588 0.7814 0.23982 0.0
H1153 H 0.5628 0.70855 0.14168 0.0
H1154 H 0.56073 0.66382 0.23438 0.0
C1155 C 0.2373 0.80137 0.24657 0.0
C1156 C 0.22119 0.7711 0.24532 0.0
N1157 N 0.19297 0.76305 0.2389 0.0
N1158 N 0.21948 0.81235 0.23956 0.0
C1159 C 0.1924 0.78839 0.23623 0.0
H1160 H 0.26085 0.81453 0.25036 0.0
Co1161 Co 0.23128 0.85217 0.23389 0.0
C1162 C 0.19355 0.8267 0.16748 0.0
O1163 O 0.18949 0.79987 0.16773 0.0
N1164 N 0.24332 0.89223 0.2283 0.0
C1165 C 0.2616 0.93584 0.20323 0.0
C1166 C 0.2508 0.90633 0.19822 0.0
C1167 C 0.24994 0.9138 0.25135 0.0
N1168 N 0.26119 0.94075 0.23672 0.0
O1169 O 0.19908 0.84666 0.26276 0.0
H1170 H 0.25003 0.89606 0.17416 0.0
H1171 H 0.24733 0.90983 0.27833 0.0
O1172 O 0.20796 0.84474 0.19155 0.0
C1173 C 0.20687 0.84749 0.29372 0.0
O1174 O 0.23378 0.85289 0.2997 0.0
N1175 N 0.26457 0.85812 0.20942 0.0
C1176 C 0.31838 0.86816 0.18326 0.0
C1177 C 0.29165 0.8482 0.16744 0.0
C1178 C 0.26494 0.84351 0.18091 0.0
C1179 C 0.29023 0.87733 0.22523 0.0
C1180 C 0.31728 0.88313 0.21227 0.0
H1181 H 0.24475 0.82723 0.16926 0.0
H1182 H 0.28966 0.88808 0.24841 0.0
H1183 H 0.17295 0.78946 0.22953 0.0
H1184 H 0.22982 0.7562 0.24666 0.0
H1185 H 0.2705 0.95247 0.18365 0.0
H1186 H 0.2912 0.83557 0.14548 0.0
H1187 H 0.33713 0.89919 0.22516 0.0
C1188 C 0.31806 0.16899 0.90888 0.0
C1189 C 0.34045 0.19858 0.90675 0.0
H1190 H 0.28784 0.13405 0.94136 0.0
C1191 C 0.35265 0.21443 0.93684 0.0
H1192 H 0.3081 0.15642 0.88603 0.0
C1193 C 0.34144 0.20169 0.96845 0.0
C1194 C 0.31714 0.17299 0.97075 0.0
H1195 H 0.37004 0.2373 0.93585 0.0
H1196 H 0.35084 0.21495 0.99097 0.0
C1197 C 0.30642 0.1563 0.94064 0.0
C1198 C 0.80951 0.11806 0.96095 0.0
C1199 C 0.81264 0.13518 0.98979 0.0
H1200 H 0.80668 0.11462 0.90689 0.0
C1201 C 0.81828 0.16409 0.98541 0.0
H1202 H 0.80518 0.09567 0.96368 0.0
C1203 C 0.81841 0.17479 0.95268 0.0
C1204 C 0.813 0.15675 0.92384 0.0
H1205 H 0.82044 0.17759 1.00725 0.0
H1206 H 0.82096 0.19651 0.95023 0.0
C1207 C 0.81007 0.12883 0.92839 0.0
C1208 C 0.86036 0.67679 0.92994 0.0
C1209 C 0.83566 0.64958 0.92102 0.0
H1210 H 0.88517 0.70684 0.9701 0.0
C1211 C 0.81498 0.63351 0.94655 0.0
H1212 H 0.87668 0.68991 0.91106 0.0
C1213 C 0.81984 0.64314 0.9803 0.0
C1214 C 0.84546 0.66927 0.98971 0.0
H1215 H 0.79548 0.61263 0.94079 0.0
H1216 H 0.80395 0.62939 0.99927 0.0
C1217 C 0.8652 0.68652 0.96389 0.0
C1218 C 0.15612 0.30998 0.60525 0.0
C1219 C 0.17299 0.31835 0.57514 0.0
H1220 H 0.15604 0.31466 0.65957 0.0
C1221 C 0.20242 0.34131 0.57699 0.0
H1222 H 0.13329 0.29254 0.60488 0.0
C1223 C 0.2154 0.3535 0.60829 0.0
C1224 C 0.19913 0.34374 0.63855 0.0
H1225 H 0.21594 0.34902 0.55445 0.0
H1226 H 0.23861 0.36995 0.60896 0.0
C1227 C 0.16904 0.32269 0.63665 0.0
C1228 C 0.64356 0.82441 0.60994 0.0
C1229 C 0.65249 0.84064 0.64051 0.0
H1230 H 0.64801 0.82537 0.55556 0.0
C1231 C 0.67616 0.86976 0.63945 0.0
H1232 H 0.62555 0.80184 0.60973 0.0
C1233 C 0.68853 0.8832 0.6085 0.0
C1234 C 0.67815 0.8677 0.57781 0.0
H1235 H 0.68421 0.88276 0.66238 0.0
H1236 H 0.70558 0.90622 0.60846 0.0
C1237 C 0.65642 0.83779 0.57885 0.0
C1238 C 0.15427 0.84817 0.59759 0.0
C1239 C 0.14749 0.83151 0.56738 0.0
H1240 H 0.15657 0.84792 0.65215 0.0
C1241 C 0.1418 0.80236 0.56941 0.0
H1242 H 0.159 0.87078 0.59707 0.0
C1243 C 0.13986 0.78928 0.60086 0.0
C1244 C 0.14447 0.80523 0.6311 0.0
H1245 H 0.13742 0.78911 0.54677 0.0
H1246 H 0.1337 0.76623 0.60159 0.0
C1247 C 0.15295 0.83517 0.6292 0.0
C1248 C 0.70386 0.84003 0.10818 0.0
C1249 C 0.69004 0.82568 0.07767 0.0
H1250 H 0.70227 0.83888 0.1627 0.0
C1251 C 0.66131 0.80139 0.07922 0.0
H1252 H 0.72597 0.85889 0.10794 0.0
C1253 C 0.64798 0.78994 0.11054 0.0
C1254 C 0.66274 0.80295 0.14094 0.0
H1255 H 0.64997 0.78974 0.05646 0.0
H1256 H 0.62685 0.76972 0.11104 0.0
C1257 C 0.69026 0.8288 0.13957 0.0
C1258 C 0.18186 0.83522 0.07372 0.0
C1259 C 0.19005 0.86509 0.07239 0.0
H1260 H 0.17649 0.79942 0.10505 0.0
C1261 C 0.19492 0.88073 0.10293 0.0
H1262 H 0.17818 0.82274 0.05052 0.0
C1263 C 0.19361 0.86746 0.13407 0.0
C1264 C 0.18815 0.83838 0.13546 0.0
H1265 H 0.20101 0.90378 0.10262 0.0
H1266 H 0.19835 0.88054 0.15691 0.0
C1267 C 0.18103 0.82198 0.10501 0.0
C1268 C 0.16029 0.34262 0.07978 0.0
C1269 C 0.1307 0.32006 0.07896 0.0
H1270 H 0.19599 0.37432 0.11044 0.0
C1271 C 0.1157 0.30922 0.10984 0.0
H1272 H 0.17233 0.3515 0.05638 0.0
C1273 C 0.12919 0.32194 0.14073 0.0
C1274 C 0.15789 0.34631 0.1416 0.0
H1275 H 0.09294 0.29157 0.11002 0.0
H1276 H 0.11656 0.31348 0.16381 0.0
C1277 C 0.17374 0.35573 0.11083 0.0
C1278 C 0.80716 0.68594 0.44892 0.0
C1279 C 0.81032 0.67312 0.47876 0.0
H1280 H 0.80319 0.6839 0.39481 0.0
C1281 C 0.81484 0.649 0.47584 0.0
H1282 H 0.80351 0.70452 0.45043 0.0
C1283 C 0.81389 0.63659 0.44382 0.0
C1284 C 0.80863 0.6482 0.41402 0.0
H1285 H 0.81692 0.63842 0.49839 0.0
H1286 H 0.81563 0.61688 0.44268 0.0
C1287 C 0.80677 0.67395 0.41698 0.0
C1288 C 0.3124 0.13099 0.44036 0.0
C1289 C 0.32927 0.14386 0.46966 0.0
H1290 H 0.31105 0.13012 0.38608 0.0
C1291 C 0.35721 0.16893 0.46631 0.0
H1292 H 0.29091 0.11133 0.44229 0.0
C1293 C 0.36911 0.17936 0.43402 0.0
C1294 C 0.35332 0.16474 0.40448 0.0
H1295 H 0.37086 0.17886 0.48848 0.0
H1296 H 0.39157 0.19746 0.43236 0.0
C1297 C 0.32413 0.14156 0.40811 0.0
C1298 C 0.87753 0.19127 0.46159 0.0
C1299 C 0.86134 0.19005 0.49055 0.0
H1300 H 0.88027 0.19282 0.40746 0.0
C1301 C 0.83318 0.18645 0.4864 0.0
H1302 H 0.89946 0.19434 0.46408 0.0
C1303 C 0.82239 0.18635 0.45374 0.0
C1304 C 0.83964 0.18989 0.42471 0.0
H1305 H 0.82048 0.18592 0.50832 0.0
H1306 H 0.8014 0.18548 0.45145 0.0
C1307 C 0.86666 0.19076 0.42908 0.0
C1308 C 0.97783 0.49231 0.26727 0.0
C1309 C 0.99123 0.50976 0.29629 0.0
H1310 H 0.9758 0.49065 0.21269 0.0
C1311 C 0.01631 0.53766 0.29188 0.0
H1312 H 0.95855 0.47062 0.26966 0.0
C1313 C 0.02577 0.54911 0.2594 0.0
C1314 C 0.01094 0.53265 0.23053 0.0
H1315 H 0.02771 0.55139 0.31352 0.0
H1316 H 0.04392 0.57151 0.25687 0.0
C1317 C 0.98769 0.50366 0.2346 0.0
C1318 C 0.48165 0.47406 0.2405 0.0
C1319 C 0.47621 0.49771 0.23899 0.0
H1320 H 0.4827 0.44116 0.27178 0.0
C1321 C 0.47411 0.51035 0.26974 0.0
H1322 H 0.484 0.46411 0.21751 0.0
C1323 C 0.47415 0.49755 0.30096 0.0
C1324 C 0.47631 0.47199 0.30195 0.0
H1325 H 0.47013 0.52872 0.2697 0.0
H1326 H 0.46996 0.50614 0.32399 0.0
C1327 C 0.48118 0.46103 0.27162 0.0
C1328 C 0.52498 0.97561 0.25799 0.0
C1329 C 0.52223 0.98837 0.2279 0.0
H1330 H 0.53 0.97876 0.31195 0.0
C1331 C 0.51912 0.01338 0.23019 0.0
H1332 H 0.5276 0.95639 0.2569 0.0
C1333 C 0.52119 0.02672 0.26185 0.0
C1334 C 0.52625 0.0152 0.29182 0.0
H1335 H 0.51746 0.02393 0.20738 0.0
H1336 H 0.52061 0.04707 0.26251 0.0
C1337 C 0.52658 0.9886 0.28958 0.0
C1338 C 0.47983 0.02883 0.74485 0.0
C1339 C 0.47455 0.00296 0.72806 0.0
H1340 H 0.48758 0.05193 0.79179 0.0
C1341 C 0.47653 0.98123 0.74683 0.0
H1342 H 0.47834 0.04594 0.73117 0.0
C1343 C 0.4813 0.98439 0.78215 0.0
C1344 C 0.48463 0.00955 0.79931 0.0
H1345 H 0.47223 0.96088 0.73475 0.0
H1346 H 0.48094 0.9665 0.79622 0.0
C1347 C 0.48506 0.03222 0.77982 0.0
C1348 C 0.01989 0.47519 0.76132 0.0
C1349 C 0.00712 0.47821 0.7314 0.0
H1350 H 0.01763 0.47142 0.81534 0.0
C1351 C 0.98311 0.4829 0.73387 0.0
H1352 H 0.03844 0.47151 0.76005 0.0
C1353 C 0.97061 0.48213 0.76569 0.0
C1354 C 0.98204 0.47681 0.79556 0.0
H1355 H 0.97268 0.48493 0.71115 0.0
H1356 H 0.95092 0.4839 0.76658 0.0
C1357 C 0.00778 0.47491 0.79302 0.0
C1358 C 0.52071 0.52823 0.80053 0.0
C1359 C 0.52456 0.5037 0.80427 0.0
H1360 H 0.51963 0.55933 0.76616 0.0
C1361 C 0.52416 0.48817 0.77479 0.0
H1362 H 0.5203 0.54043 0.82248 0.0
C1363 C 0.52306 0.49869 0.74242 0.0
C1364 C 0.5222 0.52483 0.73891 0.0
H1365 H 0.52686 0.46904 0.77654 0.0
H1366 H 0.52533 0.48775 0.72026 0.0
C1367 C 0.51998 0.5389 0.76821 0.0
C1368 C 0.373 0.33703 0.13765 0.0
C1369 C 0.39261 0.36214 0.11903 0.0
H1370 H 0.34351 0.29061 0.13754 0.0
C1371 C 0.39819 0.35884 0.08506 0.0
H1372 H 0.36802 0.339 0.16383 0.0
C1373 C 0.3845 0.33093 0.07 0.0
C1374 C 0.36448 0.30571 0.08844 0.0
H1375 H 0.41354 0.37779 0.07034 0.0
H1376 H 0.38981 0.32924 0.04392 0.0
C1377 C 0.35902 0.30919 0.12254 0.0
C1378 C 0.68546 0.07893 0.13087 0.0
C1379 C 0.69892 0.0667 0.11115 0.0
H1380 H 0.64556 0.07377 0.15133 0.0
C1381 C 0.68167 0.03804 0.0982 0.0
H1382 H 0.6984 0.10071 0.14179 0.0
C1383 C 0.65109 0.02258 0.10328 0.0
C1384 C 0.63746 0.03556 0.1216 0.0
H1385 H 0.69164 0.02823 0.08286 0.0
H1386 H 0.63807 0.00111 0.09167 0.0
C1387 C 0.65517 0.0635 0.1362 0.0
C1388 C 0.96987 0.64556 0.0761 0.0
C1389 C 0.94435 0.64253 0.09156 0.0
H1390 H 0.0015 0.63122 0.0742 0.0
C1391 C 0.93229 0.62368 0.11946 0.0
H1392 H 0.97974 0.66024 0.05475 0.0
C1393 C 0.94465 0.60686 0.13047 0.0
C1394 C 0.96955 0.60908 0.11412 0.0
H1395 H 0.91261 0.62101 0.13168 0.0
H1396 H 0.93447 0.59172 0.15137 0.0
C1397 C 0.98246 0.62917 0.0874 0.0
C1398 C 0.30506 0.3756 0.42341 0.0
C1399 C 0.30076 0.35812 0.4521 0.0
H1400 H 0.33616 0.40578 0.38736 0.0
C1401 C 0.32459 0.35609 0.46514 0.0
H1402 H 0.28698 0.37748 0.41298 0.0
C1403 C 0.35244 0.37199 0.45056 0.0
C1404 C 0.35714 0.39047 0.42274 0.0
H1405 H 0.32174 0.34243 0.48696 0.0
H1406 H 0.3705 0.37064 0.46193 0.0
C1407 C 0.33312 0.39186 0.40899 0.0
C1408 C 0.65432 0.96076 0.41988 0.0
C1409 C 0.64291 0.94656 0.45094 0.0
H1410 H 0.65087 0.98602 0.37945 0.0
C1411 C 0.62008 0.94903 0.4664 0.0
H1412 H 0.67172 0.95902 0.40726 0.0
C1413 C 0.60823 0.96463 0.45056 0.0
C1414 C 0.6187 0.97755 0.41871 0.0
H1415 H 0.61106 0.93842 0.49047 0.0
H1416 H 0.59009 0.96551 0.46246 0.0
C1417 C 0.6422 0.97593 0.40383 0.0
C1418 C 0.03106 0.64833 0.44824 0.0
C1419 C 0.04193 0.6458 0.41662 0.0
H1420 H 0.03297 0.67679 0.48803 0.0
C1421 C 0.06473 0.67139 0.40141 0.0
H1422 H 0.01311 0.62938 0.46045 0.0
C1423 C 0.07605 0.69887 0.41727 0.0
C1424 C 0.06495 0.70126 0.44876 0.0
H1425 H 0.07386 0.67022 0.37724 0.0
H1426 H 0.09362 0.71817 0.40507 0.0
C1427 C 0.04243 0.67566 0.46408 0.0
C1428 C 0.63787 0.6651 0.90861 0.0
C1429 C 0.61671 0.64065 0.92701 0.0
H1430 H 0.66718 0.71186 0.90797 0.0
C1431 C 0.61101 0.64452 0.96078 0.0
H1432 H 0.64295 0.66257 0.88265 0.0
C1433 C 0.62474 0.67271 0.97514 0.0
C1434 C 0.64479 0.69736 0.95616 0.0
H1435 H 0.5948 0.62602 0.97542 0.0
H1436 H 0.61902 0.67545 1.00073 0.0
C1437 C 0.65197 0.69319 0.92316 0.0
C1438 C 0.3077 0.95656 0.91323 0.0
C1439 C 0.30391 0.93983 0.9425 0.0
H1440 H 0.33752 0.98467 0.87511 0.0
C1441 C 0.32837 0.93938 0.95634 0.0
H1442 H 0.2892 0.95706 0.90181 0.0
C1443 C 0.35605 0.95517 0.94104 0.0
C1444 C 0.35968 0.97136 0.91135 0.0
H1445 H 0.32603 0.92677 0.979 0.0
H1446 H 0.37448 0.95423 0.952 0.0
C1447 C 0.33527 0.97203 0.89771 0.0
C1448 C 0.04353 0.35346 0.91857 0.0
C1449 C 0.05569 0.36324 0.95093 0.0
H1450 H 0.01961 0.35782 0.87738 0.0
C1451 C 0.052 0.38511 0.96708 0.0
H1452 H 0.04623 0.33691 0.90527 0.0
C1453 C 0.03683 0.39727 0.95095 0.0
C1454 C 0.02537 0.38799 0.91823 0.0
H1455 H 0.06095 0.39286 0.99216 0.0
H1456 H 0.03473 0.41445 0.96367 0.0
C1457 C 0.0286 0.36574 0.90239 0.0
C1458 C 0.65071 0.6234 0.60622 0.0
C1459 C 0.63899 0.59715 0.62512 0.0
H1460 H 0.68907 0.65828 0.58189 0.0
C1461 C 0.65813 0.58747 0.63641 0.0
H1462 H 0.63662 0.63146 0.59704 0.0
C1463 C 0.68777 0.60251 0.62737 0.0
C1464 C 0.69919 0.62787 0.60721 0.0
H1465 H 0.65016 0.56792 0.65188 0.0
H1466 H 0.70178 0.5941 0.63586 0.0
C1467 C 0.68066 0.63873 0.59747 0.0
C1468 C 0.4181 0.0731 0.6163 0.0
C1469 C 0.4071 0.04367 0.60639 0.0
H1470 H 0.41228 0.11056 0.61589 0.0
C1471 C 0.37968 0.02871 0.58979 0.0
H1472 H 0.43866 0.08501 0.63002 0.0
C1473 C 0.36434 0.04345 0.58188 0.0
C1474 C 0.37631 0.07335 0.59031 0.0
H1475 H 0.37065 0.00604 0.5818 0.0
H1476 H 0.3438 0.0319 0.56802 0.0
C1477 C 0.40296 0.08776 0.60827 0.0
C1478 C 0.97691 0.34891 0.62174 0.0
C1479 C 0.96515 0.3661 0.6097 0.0
H1480 H 0.97023 0.30524 0.6279 0.0
C1481 C 0.93866 0.35233 0.59135 0.0
H1482 H 0.99729 0.35901 0.636 0.0
C1483 C 0.92335 0.32193 0.58674 0.0
C1484 C 0.93407 0.30439 0.6004 0.0
H1485 H 0.92947 0.3651 0.58099 0.0
H1486 H 0.90279 0.31205 0.57285 0.0
C1487 C 0.96145 0.31822 0.61713 0.0
C1488 C 0.97895 0.71413 0.76406 0.0
C1489 C 0.97669 0.70334 0.79711 0.0
H1490 H 0.00769 0.73756 0.72264 0.0
C1491 C 0.002 0.70633 0.81307 0.0
H1492 H 0.95976 0.71216 0.75132 0.0
C1493 C 0.02921 0.72038 0.79652 0.0
C1494 C 0.03167 0.73217 0.76399 0.0
H1495 H 0.00072 0.69789 0.83841 0.0
H1496 H 0.04852 0.72302 0.80964 0.0
C1497 C 0.00627 0.7287 0.74779 0.0
C1498 C 0.3062 0.29713 0.78842 0.0
C1499 C 0.29584 0.26784 0.77852 0.0
H1500 H 0.29907 0.33392 0.78725 0.0
C1501 C 0.27173 0.25407 0.75646 0.0
H1502 H 0.32483 0.3081 0.80545 0.0
C1503 C 0.25737 0.26881 0.74556 0.0
C1504 C 0.26643 0.29755 0.75695 0.0
H1505 H 0.26382 0.23171 0.74788 0.0
H1506 H 0.23881 0.25741 0.72858 0.0
C1507 C 0.29149 0.31186 0.7779 0.0
C1508 C 0.70534 0.9949 0.82061 0.0
C1509 C 0.72814 0.0201 0.80486 0.0
H1510 H 0.67237 0.94949 0.81568 0.0
C1511 C 0.73638 0.01764 0.77171 0.0
H1512 H 0.69817 0.99608 0.84598 0.0
C1513 C 0.72167 0.99081 0.75436 0.0
C1514 C 0.69817 0.96582 0.76964 0.0
H1515 H 0.75417 0.03652 0.75914 0.0
H1516 H 0.72864 0.98976 0.72884 0.0
C1517 C 0.69051 0.96809 0.8032 0.0
C1518 C 0.29177 0.02228 0.24918 0.0
C1519 C 0.29872 0.02566 0.28378 0.0
H1520 H 0.27337 0.99277 0.2074 0.0
C1521 C 0.29248 1.00059 0.30293 0.0
H1522 H 0.29594 0.04115 0.23396 0.0
C1523 C 0.27989 0.97277 0.28773 0.0
C1524 C 0.27299 0.96925 0.25298 0.0
H1525 H 0.29792 0.00255 0.32962 0.0
H1526 H 0.27618 0.95424 0.30323 0.0
C1527 C 0.27883 0.99442 0.23402 0.0
C1528 C 0.02913 0.3079 0.30275 0.0
C1529 C 0.03106 0.30027 0.26904 0.0
H1530 H 0.00145 0.30094 0.34562 0.0
C1531 C 0.00545 0.27773 0.25343 0.0
H1532 H 0.04811 0.3253 0.3156 0.0
C1533 C 0.97852 0.26395 0.27063 0.0
C1534 C 0.97658 0.27205 0.30402 0.0
H1535 H 0.00606 0.27073 0.22779 0.0
H1536 H 0.9592 0.24688 0.25785 0.0
C1537 C 0.00226 0.29391 0.32003 0.0
C1538 C 0.69385 0.6886 0.30546 0.0
C1539 C 0.71899 0.68986 0.29114 0.0
H1540 H 0.66304 0.70399 0.30356 0.0
C1541 C 0.73123 0.70646 0.26165 0.0
H1542 H 0.68388 0.67566 0.32802 0.0
C1543 C 0.71944 0.72286 0.2478 0.0
C1544 C 0.69493 0.72243 0.26288 0.0
H1545 H 0.75064 0.70777 0.25028 0.0
H1546 H 0.72978 0.73635 0.22569 0.0
C1547 C 0.68179 0.70455 0.29131 0.0
C1548 C 0.34135 0.16506 0.15379 0.0
C1549 C 0.32173 0.17559 0.15843 0.0
H1550 H 0.36697 0.14852 0.17711 0.0
C1551 C 0.31304 0.17751 0.19181 0.0
H1552 H 0.34838 0.16313 0.12857 0.0
C1553 C 0.32356 0.16901 0.21977 0.0
C1554 C 0.34307 0.15836 0.21513 0.0
H1555 H 0.2979 0.1855 0.19648 0.0
H1556 H 0.31644 0.17086 0.24498 0.0
C1557 C 0.35187 0.15657 0.18176 0.0
C1558 C 0.82975 0.13957 0.21398 0.0
C1559 C 0.83346 0.15045 0.18055 0.0
H1560 H 0.83365 0.1493 0.26728 0.0
C1561 C 0.84486 0.18076 0.17586 0.0
H1562 H 0.82107 0.11631 0.21864 0.0
C1563 C 0.85207 0.19963 0.20387 0.0
C1564 C 0.84813 0.18872 0.2373 0.0
H1565 H 0.84804 0.1899 0.15058 0.0
H1566 H 0.86064 0.22288 0.1992 0.0
C1567 C 0.83701 0.15845 0.24199 0.0
C1568 C 0.80379 0.64869 0.19027 0.0
C1569 C 0.81418 0.65735 0.22377 0.0
H1570 H 0.81396 0.65298 0.13705 0.0
C1571 C 0.84414 0.67785 0.22848 0.0
H1572 H 0.78082 0.63289 0.18551 0.0
C1573 C 0.86315 0.68924 0.20051 0.0
C1574 C 0.85277 0.68049 0.16702 0.0
H1575 H 0.85297 0.6849 0.25375 0.0
H1576 H 0.88613 0.70501 0.20526 0.0
C1577 C 0.82279 0.66009 0.16231 0.0
C1578 C 0.17367 0.31254 0.35338 0.0
C1579 C 0.17305 0.32213 0.38672 0.0
H1580 H 0.16816 0.31697 0.30015 0.0
C1581 C 0.16623 0.34457 0.39119 0.0
H1582 H 0.17884 0.29525 0.34883 0.0
C1583 C 0.16007 0.35698 0.36309 0.0
C1584 C 0.16055 0.34728 0.32976 0.0
H1585 H 0.16547 0.35245 0.41636 0.0
H1586 H 0.15483 0.37422 0.36761 0.0
C1587 C 0.16749 0.32493 0.3253 0.0
C1588 C 0.65892 0.82103 0.39153 0.0
C1589 C 0.67625 0.85162 0.38735 0.0
H1590 H 0.63488 0.77893 0.3674 0.0
C1591 C 0.6824 0.86313 0.35413 0.0
H1592 H 0.65387 0.81143 0.41665 0.0
C1593 C 0.67167 0.84456 0.32581 0.0
C1594 C 0.65446 0.81397 0.32996 0.0
H1595 H 0.69573 0.88664 0.34986 0.0
H1596 H 0.67683 0.85418 0.30071 0.0
C1597 C 0.64816 0.80244 0.36318 0.0
C1598 C 0.17813 0.83668 0.38437 0.0
C1599 C 0.1486 0.82886 0.37967 0.0
H1600 H 0.21952 0.84883 0.36113 0.0
C1601 C 0.13834 0.82746 0.34623 0.0
H1602 H 0.18682 0.8381 0.40964 0.0
C1603 C 0.15708 0.83368 0.31825 0.0
C1604 C 0.18661 0.84149 0.32296 0.0
H1605 H 0.11569 0.82153 0.34152 0.0
H1606 H 0.14839 0.83225 0.29299 0.0
C1607 C 0.19687 0.84292 0.35641 0.0
C1608 C 0.67324 0.82921 0.82388 0.0
C1609 C 0.65236 0.83816 0.82823 0.0
H1610 H 0.70138 0.81601 0.8477 0.0
C1611 C 0.64414 0.84096 0.86152 0.0
H1612 H 0.68 0.82676 0.79871 0.0
C1613 C 0.65639 0.83485 0.88975 0.0
C1614 C 0.67708 0.82564 0.88539 0.0
H1615 H 0.62812 0.84789 0.86589 0.0
H1616 H 0.64957 0.83723 0.91491 0.0
C1617 C 0.68538 0.82296 0.8521 0.0
C1618 C 0.17948 0.86808 0.84837 0.0
C1619 C 0.17487 0.85573 0.88115 0.0
H1620 H 0.17679 0.86064 0.79459 0.0
C1621 C 0.16338 0.82528 0.88416 0.0
H1622 H 0.18827 0.89152 0.84503 0.0
C1623 C 0.15682 0.80765 0.85514 0.0
C1624 C 0.16154 0.82 0.82236 0.0
H1625 H 0.15951 0.81506 0.90889 0.0
H1626 H 0.14806 0.78422 0.85852 0.0
C1627 C 0.17286 0.85043 0.81934 0.0
C1628 C 0.15226 0.33182 0.82539 0.0
C1629 C 0.18283 0.3493 0.82947 0.0
H1630 H 0.11031 0.30751 0.84956 0.0
C1631 C 0.19442 0.35589 0.86269 0.0
H1632 H 0.14259 0.32642 0.80029 0.0
C1633 C 0.17596 0.34508 0.89109 0.0
C1634 C 0.1454 0.32745 0.88701 0.0
H1635 H 0.21792 0.36936 0.86689 0.0
H1636 H 0.18565 0.35033 0.91618 0.0
C1637 C 0.1338 0.32108 0.85378 0.0
C1638 C 0.85251 0.65471 0.69728 0.0
C1639 C 0.8495 0.66391 0.73002 0.0
H1640 H 0.84756 0.65718 0.6435 0.0
C1641 C 0.8393 0.68395 0.73274 0.0
H1642 H 0.86037 0.63929 0.69405 0.0
C1643 C 0.83193 0.69415 0.70357 0.0
C1644 C 0.83457 0.68463 0.67086 0.0
H1645 H 0.83663 0.69145 0.75739 0.0
H1646 H 0.82391 0.70944 0.70678 0.0
C1647 C 0.84516 0.66492 0.66812 0.0
C1648 C 0.33017 0.15801 0.72088 0.0
C1649 C 0.3468 0.18865 0.71675 0.0
H1650 H 0.30628 0.1159 0.69676 0.0
C1651 C 0.35199 0.20028 0.68361 0.0
H1652 H 0.32579 0.14833 0.74595 0.0
C1653 C 0.34083 0.18174 0.6553 0.0
C1654 C 0.32421 0.15109 0.65942 0.0
H1655 H 0.36474 0.22384 0.6794 0.0
H1656 H 0.34521 0.19143 0.63023 0.0
C1657 C 0.31903 0.13946 0.69256 0.0
C1658 C 0.8638 0.1656 0.71264 0.0
C1659 C 0.85283 0.16316 0.6794 0.0
H1660 H 0.85427 0.1604 0.76602 0.0
C1661 C 0.8226 0.15236 0.67504 0.0
H1662 H 0.88702 0.17381 0.717 0.0
C1663 C 0.8039 0.14459 0.70317 0.0
C1664 C 0.81489 0.14746 0.73646 0.0
H1665 H 0.81339 0.15013 0.64991 0.0
H1666 H 0.78073 0.1366 0.69871 0.0
C1667 C 0.84506 0.15786 0.74084 0.0
C1668 C 0.03123 0.50156 0.50898 0.0
C1669 C 0.02209 0.50396 0.54192 0.0
H1670 H 0.02752 0.50634 0.45543 0.0
C1671 C 0.00205 0.51406 0.54557 0.0
H1672 H 0.04671 0.49387 0.50518 0.0
C1673 C 0.99117 0.52128 0.51698 0.0
C1674 C 1.00001 0.51854 0.48401 0.0
H1675 H 0.99461 0.51622 0.57046 0.0
H1676 H 0.97555 0.5288 0.52083 0.0
C1677 C 0.02031 0.50876 0.48036 0.0
C1678 C 0.50909 0.52653 0.51559 0.0
C1679 C 0.50406 0.51488 0.54873 0.0
H1680 H 0.50564 0.51783 0.46207 0.0
C1681 C 0.4909 0.48428 0.55266 0.0
H1682 H 0.51915 0.55005 0.5115 0.0
C1683 C 0.48314 0.46583 0.52417 0.0
C1684 C 0.48832 0.47751 0.49103 0.0
H1685 H 0.48666 0.47456 0.5777 0.0
H1686 H 0.47314 0.44232 0.52823 0.0
C1687 C 0.50131 0.50809 0.48711 0.0
C1688 C 0.49528 0.98514 0.47789 0.0
C1689 C 0.52446 0.00808 0.4817 0.0
H1690 H 0.45465 0.95537 0.50238 0.0
C1691 C 0.53523 0.01778 0.51484 0.0
H1692 H 0.48626 0.9771 0.4529 0.0
C1693 C 0.51716 0.00539 0.54332 0.0
C1694 C 0.48778 0.98292 0.53948 0.0
H1695 H 0.55766 0.03537 0.51891 0.0
H1696 H 0.52606 0.01379 0.56826 0.0
C1697 C 0.47719 0.97273 0.50641 0.0
C1698 C 0.48715 0.99914 0.04237 0.0
C1699 C 0.50074 0.98227 0.03725 0.0
H1700 H 0.46896 0.02346 1.01973 0.0
C1701 C 0.50559 0.97635 1.00362 0.0
H1702 H 0.48293 0.00398 0.06777 0.0
C1703 C 0.49753 0.98748 0.97585 0.0
C1704 C 0.48441 0.0048 0.98103 0.0
H1705 H 0.51592 0.96329 0.99864 0.0
H1706 H 0.50206 0.98297 0.95043 0.0
C1707 C 0.47909 0.01022 1.01465 0.0
C1708 C 0.98029 0.46775 1.01678 0.0
C1709 C 0.98806 0.47834 0.9833 0.0
H1710 H 0.98538 0.47788 0.07 0.0
C1711 C 0.00803 0.50841 0.97846 0.0
H1712 H 0.96496 0.44465 1.02155 0.0
C1713 C 0.01961 0.52745 1.00637 0.0
C1714 C 0.0116 0.51691 0.03984 0.0
H1715 H 0.01442 0.51733 0.95314 0.0
H1716 H 0.03483 0.55056 1.00158 0.0
C1717 C 0.99194 0.48677 0.04469 0.0
C1718 C 0.5105 0.50255 0.05485 0.0
C1719 C 0.48064 0.49332 0.04978 0.0
H1720 H 0.55269 0.51738 0.03219 0.0
C1721 C 0.47067 0.4922 1.01625 0.0
H1722 H 0.519 0.50382 0.08019 0.0
C1723 C 0.48999 0.50006 0.98857 0.0
C1724 C 0.51985 0.50928 0.99364 0.0
H1725 H 0.44779 0.48523 1.01125 0.0
H1726 H 0.4815 0.49879 0.96322 0.0
C1727 C 0.52981 0.51041 0.02718 0.0
C1728 C 0.20654 0.04571 0.07521 0.0
C1729 C 0.23388 0.07083 0.0679 0.0
H1730 H 0.17813 0.99936 0.06804 0.0
C1731 C 0.25504 0.06704 0.05012 0.0
H1732 H 0.18986 0.04753 0.08936 0.0
C1733 C 0.24849 0.03926 0.03847 0.0
C1734 C 0.22056 0.01449 0.04404 0.0
H1735 H 0.27634 0.08558 0.04381 0.0
H1736 H 0.26516 0.03731 0.02437 0.0
C1737 C 0.19991 0.01791 0.0633 0.0
C1738 C 0.93463 0.15644 0.03083 0.0
C1739 C 0.931 0.15214 0.06592 0.0
H1740 H 0.96387 0.17941 0.99008 0.0
C1741 C 0.95514 0.16846 0.0874 0.0
H1742 H 0.9163 0.14376 1.01386 0.0
C1743 C 0.98227 0.1897 0.07401 0.0
C1744 C 0.98588 0.1946 0.03879 0.0
H1745 H 0.95264 0.16562 0.11461 0.0
H1746 H 1.00006 0.20288 0.0914 0.0
C1747 C 0.96184 0.17711 1.01736 0.0
C1748 C 0.82693 0.80848 0.05014 0.0
C1749 C 0.7973 0.78623 0.04681 0.0
H1750 H 0.87067 0.81941 0.06404 0.0
C1751 C 0.78888 0.7575 0.05734 0.0
H1752 H 0.83397 0.83087 0.04243 0.0
C1753 C 0.80995 0.75091 0.06962 0.0
C1754 C 0.83975 0.773 0.07198 0.0
H1755 H 0.76623 0.7399 0.05491 0.0
H1756 H 0.803 0.72846 0.07689 0.0
C1757 C 0.84789 0.80197 0.06276 0.0
C1758 C 0.01367 0.20352 0.48831 0.0
C1759 C 0.01165 0.22407 0.50945 0.0
H1760 H 0.04147 0.19299 0.45918 0.0
C1761 C 0.03718 0.25135 0.51546 0.0
H1762 H 0.99456 0.18217 0.48325 0.0
C1763 C 0.06431 0.25732 0.50221 0.0
C1764 C 0.06662 0.2362 0.48241 0.0
H1765 H 0.03633 0.26794 0.53106 0.0
H1766 H 0.08355 0.27806 0.50881 0.0
C1767 C 0.04076 0.20959 0.47481 0.0
C1768 C 0.77979 0.7989 0.48182 0.0
C1769 C 0.78205 0.79539 0.5169 0.0
H1770 H 0.7719 0.82248 0.44264 0.0
C1771 C 0.77811 0.81409 0.5394 0.0
H1772 H 0.78217 0.78474 0.46363 0.0
C1773 C 0.77137 0.83501 0.52725 0.0
C1774 C 0.76923 0.8384 0.49235 0.0
H1775 H 0.78054 0.81293 0.56648 0.0
H1776 H 0.76827 0.84895 0.5451 0.0
C1777 C 0.77378 0.8204 0.4697 0.0
C1778 C 0.21476 0.96595 0.50032 0.0
C1779 C 0.21193 0.991 0.4958 0.0
H1780 H 0.19547 0.91959 0.4942 0.0
C1781 C 0.1875 0.98805 0.47771 0.0
H1782 H 0.23359 0.9675 0.51351 0.0
C1783 C 0.16578 0.9605 0.46584 0.0
C1784 C 0.16771 0.9351 0.47208 0.0
H1785 H 0.18443 0.00678 0.47386 0.0
H1786 H 0.14708 0.9591 0.45257 0.0
C1787 C 0.19292 0.93838 0.48874 0.0
C1788 C 0.7816 0.9839 0.98403 0.0
C1789 C 0.78348 0.98768 1.01955 0.0
H1790 H 0.77351 0.95439 0.94223 0.0
C1791 C 0.77877 0.96371 0.03999 0.0
H1792 H 0.78466 0.0016 0.96738 0.0
C1793 C 0.77155 0.93665 0.02551 0.0
C1794 C 0.76966 0.93302 0.99024 0.0
H1795 H 0.78092 0.96576 0.06728 0.0
H1796 H 0.76782 0.91853 0.04187 0.0
C1797 C 0.7751 0.9569 0.96952 0.0
C1798 C 0.03858 0.82321 0.03783 0.0
C1799 C 0.01504 0.80701 1.01521 0.0
H1800 H 0.08443 0.85501 0.04372 0.0
C1801 C 0.02017 0.81257 0.98023 0.0
H1802 H 0.03548 0.82045 0.06497 0.0
C1803 C 0.04819 0.83323 0.96828 0.0
C1804 C 0.07173 0.84829 0.99097 0.0
H1805 H 0.00283 0.80041 0.96196 0.0
H1806 H 0.05175 0.83671 0.94125 0.0
C1807 C 0.06664 0.84324 0.0258 0.0
C1808 C 0.19277 0.21547 0.97276 0.0
C1809 C 0.19779 0.21442 1.00766 0.0
H1810 H 0.16869 0.22386 0.93462 0.0
C1811 C 0.18083 0.22006 0.03096 0.0
H1812 H 0.20554 0.21158 0.95404 0.0
C1813 C 0.16043 0.22782 1.01974 0.0
C1814 C 0.15588 0.22934 0.98501 0.0
H1815 H 0.18324 0.21854 0.058 0.0
H1816 H 0.14799 0.23245 0.0382 0.0
C1817 C 0.17179 0.22261 0.96157 0.0
C1818 C 0.93749 0.75166 0.55137 0.0
C1819 C 0.93098 0.77366 0.56103 0.0
H1820 H 0.96969 0.74171 0.53215 0.0
C1821 C 0.95377 0.80332 0.56005 0.0
H1822 H 0.921 0.72856 0.55252 0.0
C1823 C 0.982 0.81076 0.5489 0.0
C1824 C 0.98796 0.78874 0.53815 0.0
H1825 H 0.94974 0.82094 0.56701 0.0
H1826 H 0.99889 0.83379 0.54755 0.0
C1827 C 0.96554 0.75914 0.53987 0.0
C1828 C 0.22081 0.1561 0.52035 0.0
C1829 C 0.22339 0.1518 0.55488 0.0
H1830 H 0.21029 0.17857 0.48291 0.0
C1831 C 0.21717 0.16771 0.57889 0.0
H1832 H 0.22517 0.14371 0.50152 0.0
C1833 C 0.20967 0.1886 0.5684 0.0
C1834 C 0.20767 0.19351 0.53366 0.0
H1835 H 0.21928 0.1648 0.6057 0.0
H1836 H 0.2064 0.20151 0.58754 0.0
C1837 C 0.21257 0.17633 0.50984 0.0
C1838 C 0.82738 0.01829 0.55693 0.0
C1839 C 0.80367 0.01466 0.53678 0.0
H1840 H 0.86625 0.04813 0.58429 0.0
C1841 C 0.80137 0.03959 0.52909 0.0
H1842 H 0.83004 0.99965 0.56311 0.0
C1843 C 0.82246 0.06747 0.54059 0.0
C1844 C 0.84635 0.07128 0.56054 0.0
H1845 H 0.78317 0.03762 0.51411 0.0
H1846 H 0.82009 0.08603 0.53327 0.0
C1847 C 0.84842 0.04625 0.56873 0.0
C1848 C 0.92562 0.3782 0.38174 0.0
C1849 C 0.89774 0.35412 0.38933 0.0
H1850 H 0.95332 0.42475 0.38072 0.0
C1851 C 0.8771 0.35935 0.406 0.0
H1852 H 0.94224 0.3749 0.3695 0.0
C1853 C 0.88365 0.38817 0.4131 0.0
C1854 C 0.91092 0.41242 0.40353 0.0
H1855 H 0.85538 0.3413 0.41217 0.0
H1856 H 0.86698 0.39138 0.42525 0.0
C1857 C 0.93209 0.40694 0.3886 0.0
C1858 C 0.59586 0.50815 0.36156 0.0
C1859 C 0.59098 0.48792 0.38757 0.0
H1860 H 0.62726 0.54473 0.33237 0.0
C1861 C 0.61546 0.4897 0.40443 0.0
H1862 H 0.57764 0.50731 0.34774 0.0
C1863 C 0.64412 0.51103 0.3952 0.0
C1864 C 0.64889 0.53095 0.36887 0.0
H1865 H 0.61251 0.4747 0.42483 0.0
H1866 H 0.66254 0.51155 0.40826 0.0
C1867 C 0.6244 0.52942 0.35241 0.0
C1868 C 0.45567 0.08012 0.35315 0.0
C1869 C 0.45279 0.10246 0.36937 0.0
H1870 H 0.47998 0.05749 0.34911 0.0
C1871 C 0.47137 0.11749 0.39684 0.0
H1872 H 0.44138 0.06783 0.33222 0.0
C1873 C 0.49337 0.11138 0.40668 0.0
C1874 C 0.49718 0.09004 0.38939 0.0
H1875 H 0.46978 0.13486 0.4098 0.0
H1876 H 0.50785 0.12388 0.42735 0.0
C1877 C 0.47758 0.07394 0.36309 0.0
C1878 C 0.69032 0.54799 0.81287 0.0
C1879 C 0.686 0.56321 0.83955 0.0
H1880 H 0.72159 0.54273 0.78309 0.0
C1881 C 0.71067 0.58686 0.85501 0.0
H1882 H 0.6717 0.52964 0.80055 0.0
C1883 C 0.7391 0.59432 0.84504 0.0
C1884 C 0.7435 0.5782 0.81949 0.0
H1885 H 0.70798 0.59922 0.87536 0.0
H1886 H 0.7576 0.61186 0.85845 0.0
C1887 C 0.71883 0.55534 0.80305 0.0
C1888 C 0.44341 0.17955 0.8581 0.0
C1889 C 0.445 0.18721 0.82388 0.0
H1890 H 0.44929 0.15331 0.89499 0.0
C1891 C 0.45436 0.17381 0.79994 0.0
H1892 H 0.43662 0.18998 0.87698 0.0
C1893 C 0.46077 0.15204 0.80994 0.0
C1894 C 0.45842 0.14369 0.84421 0.0
H1895 H 0.45548 0.17929 0.77333 0.0
H1896 H 0.46656 0.14112 0.79065 0.0
C1897 C 0.45043 0.15835 0.86825 0.0
C1898 C 0.85319 0.2605 0.837 0.0
C1899 C 0.82891 0.25408 0.81624 0.0
H1900 H 0.89197 0.29371 0.86173 0.0
C1901 C 0.82685 0.27764 0.80214 0.0
H1902 H 0.85556 0.24309 0.84849 0.0
C1903 C 0.84772 0.30684 0.81009 0.0
C1904 C 0.87099 0.31303 0.8324 0.0
H1905 H 0.80871 0.27351 0.78562 0.0
H1906 H 0.8449 0.32447 0.79999 0.0
C1907 C 0.87395 0.28959 0.84494 0.0
C1908 C 0.40868 0.26373 0.32642 0.0
C1909 C 0.42985 0.25994 0.30868 0.0
H1910 H 0.39816 0.29362 0.35108 0.0
C1911 C 0.4569 0.28515 0.3006 0.0
H1912 H 0.38767 0.24506 0.33341 0.0
C1913 C 0.46315 0.31315 0.31142 0.0
C1914 C 0.44243 0.31666 0.33046 0.0
H1915 H 0.47358 0.28324 0.28654 0.0
H1916 H 0.48467 0.33184 0.30599 0.0
C1917 C 0.41486 0.29168 0.33703 0.0
C1918 C 0.72397 0.18763 0.33647 0.0
C1919 C 0.74356 0.18105 0.31953 0.0
H1920 H 0.68083 0.17101 0.35742 0.0
C1921 C 0.73329 0.15204 0.30824 0.0
H1922 H 0.73128 0.20964 0.34587 0.0
C1923 C 0.70416 0.12992 0.31453 0.0
C1924 C 0.68511 0.13645 0.33274 0.0
H1925 H 0.74792 0.14644 0.29499 0.0
H1926 H 0.69688 0.10754 0.30646 0.0
C1927 C 0.69514 0.16553 0.34323 0.0
C1928 C 0.84918 0.56386 0.28925 0.0
C1929 C 0.83513 0.57217 0.31344 0.0
H1930 H 0.88249 0.55253 0.27981 0.0
C1931 C 0.84291 0.57393 0.34759 0.0
H1932 H 0.8432 0.56232 0.26274 0.0
C1933 C 0.86432 0.5673 0.35765 0.0
C1934 C 0.87925 0.55966 0.33359 0.0
H1935 H 0.83174 0.57967 0.36662 0.0
H1936 H 0.8687 0.56773 0.38451 0.0
C1937 C 0.87139 0.55803 0.29915 0.0
C1938 C 0.61518 0.10759 0.92228 0.0
C1939 C 0.59408 0.10115 0.89686 0.0
H1940 H 0.65884 0.11673 0.93405 0.0
C1941 C 0.60182 0.10116 0.8629 0.0
H1942 H 0.60952 0.10752 0.94869 0.0
C1943 C 0.63004 0.10708 0.85437 0.0
C1944 C 0.65105 0.1124 0.87972 0.0
H1945 H 0.586 0.09676 0.84289 0.0
H1946 H 0.63532 0.1075 0.82778 0.0
C1947 C 0.64338 0.11293 0.91383 0.0
C1948 C 0.91791 0.5455 0.86669 0.0
C1949 C 0.89408 0.5466 0.88134 0.0
H1950 H 0.94099 0.5218 0.86173 0.0
C1951 C 0.87639 0.52513 0.90523 0.0
H1952 H 0.93205 0.56195 0.84842 0.0
C1953 C 0.88152 0.50204 0.9129 0.0
C1954 C 0.90461 0.50025 0.89711 0.0
H1955 H 0.85783 0.52546 0.91681 0.0
H1956 H 0.86706 0.48525 0.93063 0.0
C1957 C 0.92319 0.52264 0.87456 0.0
C1958 C 0.45616 0.37578 0.87096 0.0
C1959 C 0.45824 0.35052 0.87732 0.0
H1960 H 0.47635 0.42244 0.87506 0.0
C1961 C 0.48219 0.35347 0.89646 0.0
H1962 H 0.43774 0.37426 0.85684 0.0
C1963 C 0.50411 0.38116 0.9077 0.0
C1964 C 0.50285 0.40665 0.89978 0.0
H1965 H 0.48471 0.33459 0.90167 0.0
H1966 H 0.52243 0.38259 0.92188 0.0
C1967 C 0.47821 0.40349 0.88191 0.0
C1968 C 0.53454 0.68001 0.72858 0.0
C1969 C 0.55547 0.67697 0.70939 0.0
H1970 H 0.52357 0.70923 0.754 0.0
C1971 C 0.5829 0.70222 0.70299 0.0
H1972 H 0.51309 0.66115 0.73385 0.0
C1973 C 0.5887 0.72997 0.714 0.0
C1974 C 0.56726 0.7332 0.73189 0.0
H1975 H 0.59975 0.70064 0.68882 0.0
H1976 H 0.60958 0.74894 0.70721 0.0
C1977 C 0.54042 0.70774 0.73981 0.0
C1978 C 0.31813 0.85989 0.71657 0.0
C1979 C 0.32093 0.88168 0.69366 0.0
H1980 H 0.28922 0.82148 0.74495 0.0
C1981 C 0.29523 0.88103 0.68226 0.0
H1982 H 0.33736 0.85938 0.72559 0.0
C1983 C 0.26745 0.85878 0.69275 0.0
C1984 C 0.26456 0.83665 0.71523 0.0
H1985 H 0.29651 0.89764 0.66495 0.0
H1986 H 0.24832 0.85875 0.68256 0.0
C1987 C 0.29034 0.83776 0.7273 0.0
C1988 C 0.15595 0.47313 0.71401 0.0
C1989 C 0.12898 0.45044 0.70154 0.0
H1990 H 0.19856 0.48523 0.73333 0.0
C1991 C 0.12371 0.42147 0.70129 0.0
H1992 H 0.16061 0.49573 0.71415 0.0
C1993 C 0.1452 0.41529 0.7127 0.0
C1994 C 0.17277 0.43805 0.7241 0.0
H1995 H 0.10293 0.40355 0.69213 0.0
H1996 H 0.13999 0.39258 0.71234 0.0
C1997 C 0.1777 0.46704 0.725 0.0
C1998 C 0.37055 0.87976 0.19289 0.0
C1999 C 0.34725 0.87316 0.17027 0.0
H2000 H 0.41595 0.89218 0.19875 0.0
C2001 C 0.35215 0.87215 0.1353 0.0
H2002 H 0.36754 0.87982 0.22003 0.0
C2003 C 0.37979 0.8783 0.12334 0.0
C2004 C 0.40317 0.88612 0.14603 0.0
H2005 H 0.33496 0.86749 0.11702 0.0
H2006 H 0.38327 0.87811 0.09631 0.0
C2007 C 0.39825 0.88656 0.18085 0.0
C2008 C 0.10514 0.50508 0.18327 0.0
C2009 C 0.10583 0.51029 0.14838 0.0
H2010 H 0.11171 0.48138 0.22284 0.0
C2011 C 0.11341 0.49432 0.126 0.0
H2012 H 0.09971 0.51745 0.20097 0.0
C2013 C 0.11938 0.47282 0.13832 0.0
C2014 C 0.11846 0.46728 0.17337 0.0
H2015 H 0.11376 0.49781 0.09893 0.0
H2016 H 0.12405 0.46014 0.12024 0.0
C2017 C 0.11176 0.48415 0.19566 0.0
C2018 C 0.54128 0.62778 0.1773 0.0
C2019 C 0.53927 0.65288 0.16955 0.0
H2020 H 0.5219 0.58119 0.17338 0.0
C2021 C 0.51639 0.64966 0.14819 0.0
H2022 H 0.55896 0.6295 0.1931 0.0
C2023 C 0.49535 0.62185 0.1361 0.0
C2024 C 0.4965 0.59651 0.1453 0.0
H2025 H 0.51401 0.66843 0.14176 0.0
H2026 H 0.47783 0.62022 0.12016 0.0
C2027 C 0.52015 0.59998 0.16548 0.0
C2028 C 0.1398 0.65284 0.65435 0.0
C2029 C 0.11928 0.65661 0.67348 0.0
H2030 H 0.14996 0.62275 0.62964 0.0
C2031 C 0.09227 0.63158 0.68179 0.0
H2032 H 0.16097 0.67156 0.64775 0.0
C2033 C 0.08621 0.60349 0.67214 0.0
C2034 C 0.10683 0.59953 0.65342 0.0
H2035 H 0.07571 0.63364 0.69602 0.0
H2036 H 0.06545 0.58494 0.68001 0.0
C2037 C 0.13361 0.62467 0.64436 0.0
C2038 C 0.37111 0.48574 0.70467 0.0
C2039 C 0.34864 0.468 0.68149 0.0
H2040 H 0.41617 0.51959 0.71164 0.0
C2041 C 0.35489 0.47265 0.64654 0.0
H2042 H 0.36719 0.48375 0.73171 0.0
C2043 C 0.38278 0.49416 0.63524 0.0
C2044 C 0.4052 0.51095 0.65858 0.0
H2045 H 0.33851 0.45928 0.6278 0.0
H2046 H 0.38719 0.49701 0.60829 0.0
C2047 C 0.39916 0.5066 0.69331 0.0
C2048 C 0.50983 0.86305 0.65569 0.0
C2049 C 0.53298 0.88209 0.67722 0.0
H2050 H 0.4711 0.85495 0.62875 0.0
C2051 C 0.53459 0.90847 0.6878 0.0
H2052 H 0.50779 0.84242 0.64731 0.0
C2053 C 0.51328 0.91537 0.67777 0.0
C2054 C 0.4899 0.89624 0.65653 0.0
H2055 H 0.55236 0.92388 0.70399 0.0
H2056 H 0.515 0.93555 0.6872 0.0
C2057 C 0.48854 0.87005 0.64544 0.0
C2058 C 0.28087 0.46297 0.21176 0.0
C2059 C 0.26347 0.43832 0.2322 0.0
H2060 H 0.32087 0.48724 0.18357 0.0
C2061 C 0.27435 0.41964 0.24131 0.0
H2062 H 0.27287 0.47749 0.20394 0.0
C2063 C 0.30208 0.42545 0.22993 0.0
C2064 C 0.31895 0.44962 0.20864 0.0
H2065 H 0.26133 0.40052 0.25705 0.0
H2066 H 0.30996 0.41062 0.23689 0.0
C2067 C 0.30819 0.46842 0.19988 0.0
C2068 C 0.55674 0.84115 0.2389 0.0
C2069 C 0.56268 0.8237 0.21696 0.0
H2070 H 0.54726 0.87613 0.24369 0.0
C2071 C 0.56191 0.82734 0.18188 0.0
H2072 H 0.55762 0.83893 0.26609 0.0
C2073 C 0.55511 0.84798 0.16886 0.0
C2074 C 0.54974 0.8661 0.19069 0.0
H2075 H 0.56617 0.81386 0.16456 0.0
H2076 H 0.55381 0.8494 0.14162 0.0
C2077 C 0.55068 0.86236 0.22595 0.0
C2078 C 0.15382 0.7012 0.17756 0.0
C2079 C 0.12989 0.68052 0.19697 0.0
H2080 H 0.19285 0.74385 0.17628 0.0
C2081 C 0.12704 0.68755 0.23072 0.0
H2082 H 0.15685 0.6963 0.15168 0.0
C2083 C 0.14764 0.71486 0.2446 0.0
C2084 C 0.17147 0.73523 0.22506 0.0
H2085 H 0.10871 0.6721 0.24619 0.0
H2086 H 0.14515 0.72009 0.27052 0.0
C2087 C 0.17446 0.72824 0.19155 0.0
loop_
_geom_bond_atom_site_label_1
_geom_bond_atom_site_label_2
_geom_bond_distance
_geom_bond_site_symmetry_2
_ccdc_geom_bond_type
C0 C1 1.351 . S
C0 N3 1.368 . S
C0 H5 0.931 . S
C1 C0 1.351 . S
C1 N2 1.373 . S
C1 H29 0.930 . S
N2 C1 1.373 . S
N2 C4 1.340 . S
N3 C0 1.368 . S
N3 C4 1.321 . S
N3 Co6 2.135 . S
C4 N2 1.340 . S
C4 N3 1.321 . S
C4 H28 0.930 1_554 S
H5 C0 0.931 . S
Co6 N3 2.135 . S
Co6 N9 2.121 . S
Co6 O14 2.055 . S
Co6 O17 2.039 . S
Co6 N20 2.140 . S
C7 O8 1.227 . S
C7 O17 1.265 1_556 S
O8 C7 1.227 . S
N9 Co6 2.121 . S
N9 C11 1.375 . S
N9 C12 1.313 . S
C10 C11 1.338 . S
C10 N13 1.377 . S
C10 H30 0.930 . S
C11 N9 1.375 . S
C11 C10 1.338 . S
C11 H15 0.931 . S
C12 N9 1.313 . S
C12 N13 1.344 . S
C12 H16 0.930 . S
N13 C10 1.377 . S
N13 C12 1.344 . S
O14 Co6 2.055 . S
O14 C18 1.253 . S
H15 C11 0.931 . S
H16 C12 0.930 . S
O17 Co6 2.039 . S
O17 C7 1.265 1_554 S
C18 O14 1.253 . S
C18 O19 1.227 . S
O19 C18 1.227 . S
N20 Co6 2.140 . S
N20 C23 1.346 . S
N20 C24 1.345 . S
C21 C22 1.387 . S
C21 C25 1.391 . S
C22 C21 1.387 . S
C22 C23 1.369 . S
C22 H31 0.929 1_554 S
C23 N20 1.346 . S
C23 C22 1.369 . S
C23 H26 0.928 . S
C24 N20 1.345 . S
C24 C25 1.371 . S
C24 H27 0.931 . S
C25 C21 1.391 . S
C25 C24 1.371 . S
C25 H32 0.930 . S
H26 C23 0.928 . S
H27 C24 0.931 . S
H28 C4 0.930 1_556 S
H29 C1 0.930 . S
H30 C10 0.930 . S
H31 C22 0.929 1_556 S
H32 C25 0.930 . S
C33 C34 1.351 . S
C33 N36 1.368 . S
C33 H38 0.931 . S
C34 C33 1.351 . S
C34 N35 1.373 . S
C34 H62 0.930 . S
N35 C34 1.373 . S
N35 C37 1.340 . S
N36 C33 1.368 . S
N36 C37 1.321 . S
N36 Co39 2.135 . S
C37 N35 1.340 . S
C37 N36 1.321 . S
C37 H61 0.930 1_554 S
H38 C33 0.931 . S
Co39 N36 2.135 . S
Co39 N42 2.121 . S
Co39 O47 2.055 . S
Co39 O50 2.039 . S
Co39 N53 2.140 . S
C40 O41 1.227 . S
C40 O50 1.265 1_556 S
O41 C40 1.227 . S
N42 Co39 2.121 . S
N42 C44 1.375 . S
N42 C45 1.313 . S
C43 C44 1.338 . S
C43 N46 1.377 . S
C43 H63 0.930 . S
C44 N42 1.375 . S
C44 C43 1.338 . S
C44 H48 0.931 . S
C45 N42 1.313 . S
C45 N46 1.344 . S
C45 H49 0.930 . S
N46 C43 1.377 . S
N46 C45 1.344 . S
O47 Co39 2.055 . S
O47 C51 1.253 . S
H48 C44 0.931 . S
H49 C45 0.930 . S
O50 Co39 2.039 . S
O50 C40 1.265 1_554 S
C51 O47 1.253 . S
C51 O52 1.227 . S
O52 C51 1.227 . S
N53 Co39 2.140 . S
N53 C56 1.346 . S
N53 C57 1.345 . S
C54 C55 1.387 . S
C54 C58 1.391 . S
C55 C54 1.387 . S
C55 C56 1.369 . S
C55 H64 0.929 1_554 S
C56 N53 1.346 . S
C56 C55 1.369 . S
C56 H59 0.928 . S
C57 N53 1.345 . S
C57 C58 1.371 . S
C57 H60 0.931 . S
C58 C54 1.391 . S
C58 C57 1.371 . S
C58 H65 0.930 . S
H59 C56 0.928 . S
H60 C57 0.931 . S
H61 C37 0.930 1_556 S
H62 C34 0.930 . S
H63 C43 0.930 . S
H64 C55 0.929 1_556 S
H65 C58 0.930 . S
C66 C67 1.351 . S
C66 N69 1.368 . S
C66 H71 0.931 . S
C67 C66 1.351 . S
C67 N68 1.373 . S
C67 H95 0.930 . S
N68 C67 1.373 . S
N68 C70 1.340 . S
N69 C66 1.368 . S
N69 C70 1.321 . S
N69 Co72 2.135 . S
C70 N68 1.340 . S
C70 N69 1.321 . S
C70 H94 0.930 1_554 S
H71 C66 0.931 . S
Co72 N69 2.135 . S
Co72 N75 2.121 . S
Co72 O80 2.055 . S
Co72 O83 2.039 . S
Co72 N86 2.140 . S
C73 O74 1.227 . S
C73 O83 1.265 1_556 S
O74 C73 1.227 . S
N75 Co72 2.121 . S
N75 C77 1.375 . S
N75 C78 1.313 . S
C76 C77 1.338 . S
C76 N79 1.377 . S
C76 H96 0.930 . S
C77 N75 1.375 . S
C77 C76 1.338 . S
C77 H81 0.931 . S
C78 N75 1.313 . S
C78 N79 1.344 . S
C78 H82 0.930 . S
N79 C76 1.377 . S
N79 C78 1.344 . S
O80 Co72 2.055 . S
O80 C84 1.253 . S
H81 C77 0.931 . S
H82 C78 0.930 . S
O83 Co72 2.039 . S
O83 C73 1.265 1_554 S
C84 O80 1.253 . S
C84 O85 1.227 . S
O85 C84 1.227 . S
N86 Co72 2.140 . S
N86 C89 1.346 . S
N86 C90 1.345 . S
C87 C88 1.387 . S
C87 C91 1.391 . S
C88 C87 1.387 . S
C88 C89 1.369 . S
C88 H97 0.929 1_554 S
C89 N86 1.346 . S
C89 C88 1.369 . S
C89 H92 0.928 . S
C90 N86 1.345 . S
C90 C91 1.371 . S
C90 H93 0.931 . S
C91 C87 1.391 . S
C91 C90 1.371 . S
C91 H98 0.930 . S
H92 C89 0.928 . S
H93 C90 0.931 . S
H94 C70 0.930 1_556 S
H95 C67 0.930 . S
H96 C76 0.930 . S
H97 C88 0.929 1_556 S
H98 C91 0.930 . S
C99 C100 1.351 . S
C99 N102 1.368 . S
C99 H104 0.931 . S
C100 C99 1.351 . S
C100 N101 1.373 . S
C100 H128 0.930 . S
N101 C100 1.373 . S
N101 C103 1.340 . S
N102 C99 1.368 . S
N102 C103 1.321 . S
N102 Co105 2.135 . S
C103 N101 1.340 . S
C103 N102 1.321 . S
C103 H127 0.930 . S
H104 C99 0.931 . S
Co105 N102 2.135 . S
Co105 N108 2.121 . S
Co105 O113 2.055 . S
Co105 O116 2.039 . S
Co105 N119 2.140 . S
C106 O107 1.227 . S
C106 O116 1.265 . S
O107 C106 1.227 . S
N108 Co105 2.121 . S
N108 C110 1.375 . S
N108 C111 1.313 . S
C109 C110 1.338 . S
C109 N112 1.377 . S
C109 H129 0.930 . S
C110 N108 1.375 . S
C110 C109 1.338 . S
C110 H114 0.931 . S
C111 N108 1.313 . S
C111 N112 1.344 . S
C111 H115 0.930 . S
N112 C109 1.377 . S
N112 C111 1.344 . S
O113 Co105 2.055 . S
O113 C117 1.253 . S
H114 C110 0.931 . S
H115 C111 0.930 . S
O116 Co105 2.039 . S
O116 C106 1.265 . S
C117 O113 1.253 . S
C117 O118 1.227 . S
O118 C117 1.227 . S
N119 Co105 2.140 . S
N119 C122 1.346 . S
N119 C123 1.345 . S
C120 C121 1.387 . S
C120 C124 1.391 . S
C121 C120 1.387 . S
C121 C122 1.369 . S
C121 H130 0.929 . S
C122 N119 1.346 . S
C122 C121 1.369 . S
C122 H125 0.928 . S
C123 N119 1.345 . S
C123 C124 1.371 . S
C123 H126 0.931 . S
C124 C120 1.391 . S
C124 C123 1.371 . S
C124 H131 0.930 . S
H125 C122 0.928 . S
H126 C123 0.931 . S
H127 C103 0.930 . S
H128 C100 0.930 . S
H129 C109 0.930 . S
H130 C121 0.929 . S
H131 C124 0.930 . S
C132 C133 1.351 . S
C132 N135 1.368 . S
C132 H137 0.931 . S
C133 C132 1.351 . S
C133 N134 1.373 . S
C133 H161 0.930 . S
N134 C133 1.373 . S
N134 C136 1.340 . S
N135 C132 1.368 . S
N135 C136 1.321 . S
N135 Co138 2.135 . S
C136 N134 1.340 . S
C136 N135 1.321 . S
C136 H160 0.930 . S
H137 C132 0.931 . S
Co138 N135 2.135 . S
Co138 N141 2.121 . S
Co138 O146 2.055 . S
Co138 O149 2.039 . S
Co138 N152 2.140 . S
C139 O140 1.227 . S
C139 O149 1.265 . S
O140 C139 1.227 . S
N141 Co138 2.121 . S
N141 C143 1.375 . S
N141 C144 1.313 . S
C142 C143 1.338 . S
C142 N145 1.377 . S
C142 H162 0.930 . S
C143 N141 1.375 . S
C143 C142 1.338 . S
C143 H147 0.931 . S
C144 N141 1.313 . S
C144 N145 1.344 . S
C144 H148 0.930 . S
N145 C142 1.377 . S
N145 C144 1.344 . S
O146 Co138 2.055 . S
O146 C150 1.253 . S
H147 C143 0.931 . S
H148 C144 0.930 . S
O149 Co138 2.039 . S
O149 C139 1.265 . S
C150 O146 1.253 . S
C150 O151 1.227 . S
O151 C150 1.227 . S
N152 Co138 2.140 . S
N152 C155 1.346 . S
N152 C156 1.345 . S
C153 C154 1.387 . S
C153 C157 1.391 . S
C154 C153 1.387 . S
C154 C155 1.369 . S
C154 H163 0.929 . S
C155 N152 1.346 . S
C155 C154 1.369 . S
C155 H158 0.928 . S
C156 N152 1.345 . S
C156 C157 1.371 . S
C156 H159 0.931 . S
C157 C153 1.391 . S
C157 C156 1.371 . S
C157 H164 0.930 . S
H158 C155 0.928 . S
H159 C156 0.931 . S
H160 C136 0.930 . S
H161 C133 0.930 . S
H162 C142 0.930 . S
H163 C154 0.929 . S
H164 C157 0.930 . S
C165 C166 1.351 . S
C165 N168 1.368 . S
C165 H170 0.931 . S
C166 C165 1.351 . S
C166 N167 1.373 . S
C166 H194 0.930 . S
N167 C166 1.373 . S
N167 C169 1.340 . S
N168 C165 1.368 . S
N168 C169 1.321 . S
N168 Co171 2.135 . S
C169 N167 1.340 . S
C169 N168 1.321 . S
C169 H193 0.930 . S
H170 C165 0.931 . S
Co171 N168 2.135 . S
Co171 N174 2.121 . S
Co171 O179 2.055 . S
Co171 O182 2.039 . S
Co171 N185 2.140 . S
C172 O173 1.227 . S
C172 O182 1.265 . S
O173 C172 1.227 . S
N174 Co171 2.121 . S
N174 C176 1.375 . S
N174 C177 1.313 . S
C175 C176 1.338 . S
C175 N178 1.377 . S
C175 H195 0.930 . S
C176 N174 1.375 . S
C176 C175 1.338 . S
C176 H180 0.931 . S
C177 N174 1.313 . S
C177 N178 1.344 . S
C177 H181 0.930 . S
N178 C175 1.377 . S
N178 C177 1.344 . S
O179 Co171 2.055 . S
O179 C183 1.253 . S
H180 C176 0.931 . S
H181 C177 0.930 . S
O182 Co171 2.039 . S
O182 C172 1.265 . S
C183 O179 1.253 . S
C183 O184 1.227 . S
O184 C183 1.227 . S
N185 Co171 2.140 . S
N185 C188 1.346 . S
N185 C189 1.345 . S
C186 C187 1.387 . S
C186 C190 1.391 . S
C187 C186 1.387 . S
C187 C188 1.369 . S
C187 H196 0.929 . S
C188 N185 1.346 . S
C188 C187 1.369 . S
C188 H191 0.928 . S
C189 N185 1.345 . S
C189 C190 1.371 . S
C189 H192 0.931 . S
C190 C186 1.391 . S
C190 C189 1.371 . S
C190 H197 0.930 . S
H191 C188 0.928 . S
H192 C189 0.931 . S
H193 C169 0.930 . S
H194 C166 0.930 . S
H195 C175 0.930 . S
H196 C187 0.929 . S
H197 C190 0.930 . S
C198 C199 1.351 . S
C198 N201 1.368 . S
C198 H203 0.931 . S
C199 C198 1.351 . S
C199 N200 1.373 . S
C199 H227 0.930 . S
N200 C199 1.373 . S
N200 C202 1.340 . S
N201 C198 1.368 . S
N201 C202 1.321 . S
N201 Co204 2.135 . S
C202 N200 1.340 . S
C202 N201 1.321 . S
C202 H226 0.930 1_556 S
H203 C198 0.931 . S
Co204 N201 2.135 . S
Co204 N207 2.121 . S
Co204 O212 2.055 . S
Co204 O215 2.039 . S
Co204 N218 2.140 . S
C205 O206 1.227 . S
C205 O215 1.265 1_554 S
O206 C205 1.227 . S
N207 Co204 2.121 . S
N207 C209 1.375 . S
N207 C210 1.313 . S
C208 C209 1.338 . S
C208 N211 1.377 . S
C208 H228 0.930 . S
C209 N207 1.375 . S
C209 C208 1.338 . S
C209 H213 0.931 . S
C210 N207 1.313 . S
C210 N211 1.344 . S
C210 H214 0.930 . S
N211 C208 1.377 . S
N211 C210 1.344 . S
O212 Co204 2.055 . S
O212 C216 1.253 . S
H213 C209 0.931 . S
H214 C210 0.930 . S
O215 Co204 2.039 . S
O215 C205 1.265 1_556 S
C216 O212 1.253 . S
C216 O217 1.227 . S
O217 C216 1.227 . S
N218 Co204 2.140 . S
N218 C221 1.346 . S
N218 C222 1.345 . S
C219 C220 1.387 . S
C219 C223 1.391 . S
C220 C219 1.387 . S
C220 C221 1.369 . S
C220 H229 0.929 1_556 S
C221 N218 1.346 . S
C221 C220 1.369 . S
C221 H224 0.928 . S
C222 N218 1.345 . S
C222 C223 1.371 . S
C222 H225 0.931 . S
C223 C219 1.391 . S
C223 C222 1.371 . S
C223 H230 0.930 . S
H224 C221 0.928 . S
H225 C222 0.931 . S
H226 C202 0.930 1_554 S
H227 C199 0.930 . S
H228 C208 0.930 . S
H229 C220 0.929 1_554 S
H230 C223 0.930 . S
C231 C232 1.351 . S
C231 N234 1.368 . S
C231 H236 0.931 . S
C232 C231 1.351 . S
C232 N233 1.373 . S
C232 H260 0.930 . S
N233 C232 1.373 . S
N233 C235 1.340 . S
N234 C231 1.368 . S
N234 C235 1.321 . S
N234 Co237 2.135 . S
C235 N233 1.340 . S
C235 N234 1.321 . S
C235 H259 0.930 1_556 S
H236 C231 0.931 . S
Co237 N234 2.135 . S
Co237 N240 2.121 . S
Co237 O245 2.055 . S
Co237 O248 2.039 . S
Co237 N251 2.140 . S
C238 O239 1.227 . S
C238 O248 1.265 1_554 S
O239 C238 1.227 . S
N240 Co237 2.121 . S
N240 C242 1.375 . S
N240 C243 1.313 . S
C241 C242 1.338 . S
C241 N244 1.377 . S
C241 H261 0.930 . S
C242 N240 1.375 . S
C242 C241 1.338 . S
C242 H246 0.931 . S
C243 N240 1.313 . S
C243 N244 1.344 . S
C243 H247 0.930 . S
N244 C241 1.377 . S
N244 C243 1.344 . S
O245 Co237 2.055 . S
O245 C249 1.253 . S
H246 C242 0.931 . S
H247 C243 0.930 . S
O248 Co237 2.039 . S
O248 C238 1.265 1_556 S
C249 O245 1.253 . S
C249 O250 1.227 . S
O250 C249 1.227 . S
N251 Co237 2.140 . S
N251 C254 1.346 . S
N251 C255 1.345 . S
C252 C253 1.387 . S
C252 C256 1.391 . S
C253 C252 1.387 . S
C253 C254 1.369 . S
C253 H262 0.929 1_556 S
C254 N251 1.346 . S
C254 C253 1.369 . S
C254 H257 0.928 . S
C255 N251 1.345 . S
C255 C256 1.371 . S
C255 H258 0.931 . S
C256 C252 1.391 . S
C256 C255 1.371 . S
C256 H263 0.930 . S
H257 C254 0.928 . S
H258 C255 0.931 . S
H259 C235 0.930 1_554 S
H260 C232 0.930 . S
H261 C241 0.930 . S
H262 C253 0.929 1_554 S
H263 C256 0.930 . S
C264 C265 1.351 . S
C264 N267 1.368 . S
C264 H269 0.931 . S
C265 C264 1.351 . S
C265 N266 1.373 . S
C265 H293 0.930 . S
N266 C265 1.373 . S
N266 C268 1.340 . S
N267 C264 1.368 . S
N267 C268 1.321 . S
N267 Co270 2.135 . S
C268 N266 1.340 . S
C268 N267 1.321 . S
C268 H292 0.930 1_556 S
H269 C264 0.931 . S
Co270 N267 2.135 . S
Co270 N273 2.121 . S
Co270 O278 2.055 . S
Co270 O281 2.039 . S
Co270 N284 2.140 . S
C271 O272 1.227 . S
C271 O281 1.265 1_554 S
O272 C271 1.227 . S
N273 Co270 2.121 . S
N273 C275 1.375 . S
N273 C276 1.313 . S
C274 C275 1.338 . S
C274 N277 1.377 . S
C274 H294 0.930 . S
C275 N273 1.375 . S
C275 C274 1.338 . S
C275 H279 0.931 . S
C276 N273 1.313 . S
C276 N277 1.344 . S
C276 H280 0.930 . S
N277 C274 1.377 . S
N277 C276 1.344 . S
O278 Co270 2.055 . S
O278 C282 1.253 . S
H279 C275 0.931 . S
H280 C276 0.930 . S
O281 Co270 2.039 . S
O281 C271 1.265 1_556 S
C282 O278 1.253 . S
C282 O283 1.227 . S
O283 C282 1.227 . S
N284 Co270 2.140 . S
N284 C287 1.346 . S
N284 C288 1.345 . S
C285 C286 1.387 . S
C285 C289 1.391 . S
C286 C285 1.387 . S
C286 C287 1.369 . S
C286 H295 0.929 1_556 S
C287 N284 1.346 . S
C287 C286 1.369 . S
C287 H290 0.928 . S
C288 N284 1.345 . S
C288 C289 1.371 . S
C288 H291 0.931 . S
C289 C285 1.391 . S
C289 C288 1.371 . S
C289 H296 0.930 . S
H290 C287 0.928 . S
H291 C288 0.931 . S
H292 C268 0.930 1_554 S
H293 C265 0.930 . S
H294 C274 0.930 . S
H295 C286 0.929 1_554 S
H296 C289 0.930 . S
C297 C298 1.351 . S
C297 N300 1.368 . S
C297 H302 0.931 . S
C298 C297 1.351 . S
C298 N299 1.373 . S
C298 H326 0.930 . S
N299 C298 1.373 . S
N299 C301 1.340 . S
N300 C297 1.368 . S
N300 C301 1.321 . S
N300 Co303 2.135 . S
C301 N299 1.340 . S
C301 N300 1.321 . S
C301 H325 0.930 . S
H302 C297 0.931 . S
Co303 N300 2.135 . S
Co303 N306 2.121 . S
Co303 O311 2.055 . S
Co303 O314 2.039 . S
Co303 N317 2.140 . S
C304 O305 1.227 . S
C304 O314 1.265 . S
O305 C304 1.227 . S
N306 Co303 2.121 . S
N306 C308 1.375 . S
N306 C309 1.313 . S
C307 C308 1.338 . S
C307 N310 1.377 . S
C307 H327 0.930 . S
C308 N306 1.375 . S
C308 C307 1.338 . S
C308 H312 0.931 . S
C309 N306 1.313 . S
C309 N310 1.344 . S
C309 H313 0.930 . S
N310 C307 1.377 . S
N310 C309 1.344 . S
O311 Co303 2.055 . S
O311 C315 1.253 . S
H312 C308 0.931 . S
H313 C309 0.930 . S
O314 Co303 2.039 . S
O314 C304 1.265 . S
C315 O311 1.253 . S
C315 O316 1.227 . S
O316 C315 1.227 . S
N317 Co303 2.140 . S
N317 C320 1.346 . S
N317 C321 1.345 . S
C318 C319 1.387 . S
C318 C322 1.391 . S
C319 C318 1.387 . S
C319 C320 1.369 . S
C319 H328 0.929 . S
C320 N317 1.346 . S
C320 C319 1.369 . S
C320 H323 0.928 . S
C321 N317 1.345 . S
C321 C322 1.371 . S
C321 H324 0.931 . S
C322 C318 1.391 . S
C322 C321 1.371 . S
C322 H329 0.930 . S
H323 C320 0.928 . S
H324 C321 0.931 . S
H325 C301 0.930 . S
H326 C298 0.930 . S
H327 C307 0.930 . S
H328 C319 0.929 . S
H329 C322 0.930 . S
C330 C331 1.351 . S
C330 N333 1.368 . S
C330 H335 0.931 . S
C331 C330 1.351 . S
C331 N332 1.373 . S
C331 H359 0.930 . S
N332 C331 1.373 . S
N332 C334 1.340 . S
N333 C330 1.368 . S
N333 C334 1.321 . S
N333 Co336 2.135 . S
C334 N332 1.340 . S
C334 N333 1.321 . S
C334 H358 0.930 . S
H335 C330 0.931 . S
Co336 N333 2.135 . S
Co336 N339 2.121 . S
Co336 O344 2.055 . S
Co336 O347 2.039 . S
Co336 N350 2.140 . S
C337 O338 1.227 . S
C337 O347 1.265 . S
O338 C337 1.227 . S
N339 Co336 2.121 . S
N339 C341 1.375 . S
N339 C342 1.313 . S
C340 C341 1.338 . S
C340 N343 1.377 . S
C340 H360 0.930 . S
C341 N339 1.375 . S
C341 C340 1.338 . S
C341 H345 0.931 . S
C342 N339 1.313 . S
C342 N343 1.344 . S
C342 H346 0.930 . S
N343 C340 1.377 . S
N343 C342 1.344 . S
O344 Co336 2.055 . S
O344 C348 1.253 . S
H345 C341 0.931 . S
H346 C342 0.930 . S
O347 Co336 2.039 . S
O347 C337 1.265 . S
C348 O344 1.253 . S
C348 O349 1.227 . S
O349 C348 1.227 . S
N350 Co336 2.140 . S
N350 C353 1.346 . S
N350 C354 1.345 . S
C351 C352 1.387 . S
C351 C355 1.391 . S
C352 C351 1.387 . S
C352 C353 1.369 . S
C352 H361 0.929 . S
C353 N350 1.346 . S
C353 C352 1.369 . S
C353 H356 0.928 . S
C354 N350 1.345 . S
C354 C355 1.371 . S
C354 H357 0.931 . S
C355 C351 1.391 . S
C355 C354 1.371 . S
C355 H362 0.930 . S
H356 C353 0.928 . S
H357 C354 0.931 . S
H358 C334 0.930 . S
H359 C331 0.930 . S
H360 C340 0.930 . S
H361 C352 0.929 . S
H362 C355 0.930 . S
C363 C364 1.351 . S
C363 N366 1.368 . S
C363 H368 0.931 . S
C364 C363 1.351 . S
C364 N365 1.373 . S
C364 H392 0.930 . S
N365 C364 1.373 . S
N365 C367 1.340 . S
N366 C363 1.368 . S
N366 C367 1.321 . S
N366 Co369 2.135 . S
C367 N365 1.340 . S
C367 N366 1.321 . S
C367 H391 0.930 . S
H368 C363 0.931 . S
Co369 N366 2.135 . S
Co369 N372 2.121 . S
Co369 O377 2.055 . S
Co369 O380 2.039 . S
Co369 N383 2.140 . S
C370 O371 1.227 . S
C370 O380 1.265 . S
O371 C370 1.227 . S
N372 Co369 2.121 . S
N372 C374 1.375 . S
N372 C375 1.313 . S
C373 C374 1.338 . S
C373 N376 1.377 . S
C373 H393 0.930 . S
C374 N372 1.375 . S
C374 C373 1.338 . S
C374 H378 0.931 . S
C375 N372 1.313 . S
C375 N376 1.344 . S
C375 H379 0.930 . S
N376 C373 1.377 . S
N376 C375 1.344 . S
O377 Co369 2.055 . S
O377 C381 1.253 . S
H378 C374 0.931 . S
H379 C375 0.930 . S
O380 Co369 2.039 . S
O380 C370 1.265 . S
C381 O377 1.253 . S
C381 O382 1.227 . S
O382 C381 1.227 . S
N383 Co369 2.140 . S
N383 C386 1.346 . S
N383 C387 1.345 . S
C384 C385 1.387 . S
C384 C388 1.391 . S
C385 C384 1.387 . S
C385 C386 1.369 . S
C385 H394 0.929 . S
C386 N383 1.346 . S
C386 C385 1.369 . S
C386 H389 0.928 . S
C387 N383 1.345 . S
C387 C388 1.371 . S
C387 H390 0.931 . S
C388 C384 1.391 . S
C388 C387 1.371 . S
C388 H395 0.930 . S
H389 C386 0.928 . S
H390 C387 0.931 . S
H391 C367 0.930 . S
H392 C364 0.930 . S
H393 C373 0.930 . S
H394 C385 0.929 . S
H395 C388 0.930 . S
C396 C397 1.351 . S
C396 N399 1.368 . S
C396 H401 0.931 . S
C397 C396 1.351 . S
C397 N398 1.373 . S
C397 H425 0.930 . S
N398 C397 1.373 . S
N398 C400 1.340 . S
N399 C396 1.368 . S
N399 C400 1.321 . S
N399 Co402 2.135 . S
C400 N398 1.340 . S
C400 N399 1.321 . S
C400 H424 0.930 . S
H401 C396 0.931 . S
Co402 N399 2.135 . S
Co402 N405 2.121 . S
Co402 O410 2.055 . S
Co402 O413 2.039 . S
Co402 N416 2.140 . S
C403 O404 1.227 . S
C403 O413 1.265 . S
O404 C403 1.227 . S
N405 Co402 2.121 . S
N405 C407 1.375 . S
N405 C408 1.313 . S
C406 C407 1.338 . S
C406 N409 1.377 1_655 S
C406 H426 0.930 1_655 S
C407 N405 1.375 . S
C407 C406 1.338 . S
C407 H411 0.931 . S
C408 N405 1.313 . S
C408 N409 1.344 1_655 S
C408 H412 0.930 . S
N409 C406 1.377 1_455 S
N409 C408 1.344 1_455 S
O410 Co402 2.055 . S
O410 C414 1.253 . S
H411 C407 0.931 . S
H412 C408 0.930 . S
O413 Co402 2.039 . S
O413 C403 1.265 . S
C414 O410 1.253 . S
C414 O415 1.227 . S
O415 C414 1.227 . S
N416 Co402 2.140 . S
N416 C419 1.346 . S
N416 C420 1.345 . S
C417 C418 1.387 . S
C417 C421 1.391 . S
C418 C417 1.387 . S
C418 C419 1.369 . S
C418 H427 0.929 . S
C419 N416 1.346 . S
C419 C418 1.369 . S
C419 H422 0.928 . S
C420 N416 1.345 . S
C420 C421 1.371 . S
C420 H423 0.931 . S
C421 C417 1.391 . S
C421 C420 1.371 . S
C421 H428 0.930 . S
H422 C419 0.928 . S
H423 C420 0.931 . S
H424 C400 0.930 . S
H425 C397 0.930 . S
H426 C406 0.930 1_455 S
H427 C418 0.929 . S
H428 C421 0.930 . S
C429 C430 1.351 . S
C429 N432 1.368 . S
C429 H434 0.931 . S
C430 C429 1.351 . S
C430 N431 1.373 . S
C430 H458 0.930 . S
N431 C430 1.373 . S
N431 C433 1.340 . S
N432 C429 1.368 . S
N432 C433 1.321 . S
N432 Co435 2.135 . S
C433 N431 1.340 . S
C433 N432 1.321 . S
C433 H457 0.930 . S
H434 C429 0.931 . S
Co435 N432 2.135 . S
Co435 N438 2.121 . S
Co435 O443 2.055 . S
Co435 O446 2.039 . S
Co435 N449 2.140 . S
C436 O437 1.227 . S
C436 O446 1.265 . S
O437 C436 1.227 . S
N438 Co435 2.121 . S
N438 C440 1.375 . S
N438 C441 1.313 . S
C439 C440 1.338 . S
C439 N442 1.377 . S
C439 H459 0.930 . S
C440 N438 1.375 . S
C440 C439 1.338 . S
C440 H444 0.931 . S
C441 N438 1.313 . S
C441 N442 1.344 . S
C441 H445 0.930 . S
N442 C439 1.377 . S
N442 C441 1.344 . S
O443 Co435 2.055 . S
O443 C447 1.253 . S
H444 C440 0.931 . S
H445 C441 0.930 . S
O446 Co435 2.039 . S
O446 C436 1.265 . S
C447 O443 1.253 . S
C447 O448 1.227 . S
O448 C447 1.227 . S
N449 Co435 2.140 . S
N449 C452 1.346 . S
N449 C453 1.345 . S
C450 C451 1.387 . S
C450 C454 1.391 . S
C451 C450 1.387 . S
C451 C452 1.369 . S
C451 H460 0.929 . S
C452 N449 1.346 . S
C452 C451 1.369 . S
C452 H455 0.928 . S
C453 N449 1.345 . S
C453 C454 1.371 . S
C453 H456 0.931 . S
C454 C450 1.391 . S
C454 C453 1.371 . S
C454 H461 0.930 . S
H455 C452 0.928 . S
H456 C453 0.931 . S
H457 C433 0.930 . S
H458 C430 0.930 . S
H459 C439 0.930 . S
H460 C451 0.929 . S
H461 C454 0.930 . S
C462 C463 1.351 . S
C462 N465 1.368 . S
C462 H467 0.931 . S
C463 C462 1.351 . S
C463 N464 1.373 . S
C463 H491 0.930 . S
N464 C463 1.373 . S
N464 C466 1.340 . S
N465 C462 1.368 . S
N465 C466 1.321 . S
N465 Co468 2.135 . S
C466 N464 1.340 . S
C466 N465 1.321 . S
C466 H490 0.930 . S
H467 C462 0.931 . S
Co468 N465 2.135 . S
Co468 N471 2.121 . S
Co468 O476 2.055 . S
Co468 O479 2.039 . S
Co468 N482 2.140 . S
C469 O470 1.227 . S
C469 O479 1.265 . S
O470 C469 1.227 . S
N471 Co468 2.121 . S
N471 C473 1.375 . S
N471 C474 1.313 . S
C472 C473 1.338 . S
C472 N475 1.377 1_545 S
C472 H492 0.930 1_545 S
C473 N471 1.375 . S
C473 C472 1.338 . S
C473 H477 0.931 . S
C474 N471 1.313 . S
C474 N475 1.344 1_545 S
C474 H478 0.930 . S
N475 C472 1.377 1_565 S
N475 C474 1.344 1_565 S
O476 Co468 2.055 . S
O476 C480 1.253 . S
H477 C473 0.931 . S
H478 C474 0.930 . S
O479 Co468 2.039 . S
O479 C469 1.265 . S
C480 O476 1.253 . S
C480 O481 1.227 . S
O481 C480 1.227 . S
N482 Co468 2.140 . S
N482 C485 1.346 . S
N482 C486 1.345 . S
C483 C484 1.387 . S
C483 C487 1.391 . S
C484 C483 1.387 . S
C484 C485 1.369 . S
C484 H493 0.929 . S
C485 N482 1.346 . S
C485 C484 1.369 . S
C485 H488 0.928 . S
C486 N482 1.345 . S
C486 C487 1.371 . S
C486 H489 0.931 . S
C487 C483 1.391 . S
C487 C486 1.371 . S
C487 H494 0.930 . S
H488 C485 0.928 . S
H489 C486 0.931 . S
H490 C466 0.930 . S
H491 C463 0.930 . S
H492 C472 0.930 1_565 S
H493 C484 0.929 . S
H494 C487 0.930 . S
C495 C496 1.351 . S
C495 N498 1.368 . S
C495 H500 0.931 . S
C496 C495 1.351 . S
C496 N497 1.373 . S
C496 H524 0.930 . S
N497 C496 1.373 . S
N497 C499 1.340 . S
N498 C495 1.368 . S
N498 C499 1.321 . S
N498 Co501 2.135 . S
C499 N497 1.340 . S
C499 N498 1.321 . S
C499 H523 0.930 . S
H500 C495 0.931 . S
Co501 N498 2.135 . S
Co501 N504 2.121 . S
Co501 O509 2.055 . S
Co501 O512 2.039 . S
Co501 N515 2.140 . S
C502 O503 1.227 . S
C502 O512 1.265 . S
O503 C502 1.227 . S
N504 Co501 2.121 . S
N504 C506 1.375 . S
N504 C507 1.313 . S
C505 C506 1.338 . S
C505 N508 1.377 . S
C505 H525 0.930 . S
C506 N504 1.375 . S
C506 C505 1.338 . S
C506 H510 0.931 . S
C507 N504 1.313 . S
C507 N508 1.344 . S
C507 H511 0.930 . S
N508 C505 1.377 . S
N508 C507 1.344 . S
O509 Co501 2.055 . S
O509 C513 1.253 . S
H510 C506 0.931 . S
H511 C507 0.930 . S
O512 Co501 2.039 . S
O512 C502 1.265 . S
C513 O509 1.253 . S
C513 O514 1.227 . S
O514 C513 1.227 . S
N515 Co501 2.140 . S
N515 C518 1.346 . S
N515 C519 1.345 . S
C516 C517 1.387 . S
C516 C520 1.391 . S
C517 C516 1.387 . S
C517 C518 1.369 . S
C517 H526 0.929 . S
C518 N515 1.346 . S
C518 C517 1.369 . S
C518 H521 0.928 . S
C519 N515 1.345 . S
C519 C520 1.371 . S
C519 H522 0.931 . S
C520 C516 1.391 . S
C520 C519 1.371 . S
C520 H527 0.930 . S
H521 C518 0.928 . S
H522 C519 0.931 . S
H523 C499 0.930 . S
H524 C496 0.930 . S
H525 C505 0.930 . S
H526 C517 0.929 . S
H527 C520 0.930 . S
C528 C529 1.351 . S
C528 N531 1.368 . S
C528 H533 0.931 . S
C529 C528 1.351 . S
C529 N530 1.373 . S
C529 H557 0.930 . S
N530 C529 1.373 . S
N530 C532 1.340 . S
N531 C528 1.368 . S
N531 C532 1.321 . S
N531 Co534 2.135 . S
C532 N530 1.340 . S
C532 N531 1.321 . S
C532 H556 0.930 . S
H533 C528 0.931 . S
Co534 N531 2.135 . S
Co534 N537 2.121 . S
Co534 O542 2.055 . S
Co534 O545 2.039 . S
Co534 N548 2.140 . S
C535 O536 1.227 . S
C535 O545 1.265 . S
O536 C535 1.227 . S
N537 Co534 2.121 . S
N537 C539 1.375 . S
N537 C540 1.313 . S
C538 C539 1.338 . S
C538 N541 1.377 . S
C538 H558 0.930 . S
C539 N537 1.375 . S
C539 C538 1.338 . S
C539 H543 0.931 . S
C540 N537 1.313 . S
C540 N541 1.344 . S
C540 H544 0.930 . S
N541 C538 1.377 . S
N541 C540 1.344 . S
O542 Co534 2.055 . S
O542 C546 1.253 . S
H543 C539 0.931 . S
H544 C540 0.930 . S
O545 Co534 2.039 . S
O545 C535 1.265 . S
C546 O542 1.253 . S
C546 O547 1.227 . S
O547 C546 1.227 . S
N548 Co534 2.140 . S
N548 C551 1.346 . S
N548 C552 1.345 . S
C549 C550 1.387 . S
C549 C553 1.391 . S
C550 C549 1.387 . S
C550 C551 1.369 . S
C550 H559 0.929 . S
C551 N548 1.346 . S
C551 C550 1.369 . S
C551 H554 0.928 . S
C552 N548 1.345 . S
C552 C553 1.371 . S
C552 H555 0.931 . S
C553 C549 1.391 . S
C553 C552 1.371 . S
C553 H560 0.930 . S
H554 C551 0.928 . S
H555 C552 0.931 . S
H556 C532 0.930 . S
H557 C529 0.930 . S
H558 C538 0.930 . S
H559 C550 0.929 . S
H560 C553 0.930 . S
C561 C562 1.351 . S
C561 N564 1.368 . S
C561 H566 0.931 . S
C562 C561 1.351 . S
C562 N563 1.373 . S
C562 H590 0.930 . S
N563 C562 1.373 . S
N563 C565 1.340 . S
N564 C561 1.368 . S
N564 C565 1.321 . S
N564 Co567 2.135 . S
C565 N563 1.340 . S
C565 N564 1.321 . S
C565 H589 0.930 . S
H566 C561 0.931 . S
Co567 N564 2.135 . S
Co567 N570 2.121 . S
Co567 O575 2.055 . S
Co567 O578 2.039 . S
Co567 N581 2.140 . S
C568 O569 1.227 . S
C568 O578 1.265 . S
O569 C568 1.227 . S
N570 Co567 2.121 . S
N570 C572 1.375 . S
N570 C573 1.313 . S
C571 C572 1.338 . S
C571 N574 1.377 . S
C571 H591 0.930 . S
C572 N570 1.375 . S
C572 C571 1.338 . S
C572 H576 0.931 . S
C573 N570 1.313 . S
C573 N574 1.344 . S
C573 H577 0.930 . S
N574 C571 1.377 . S
N574 C573 1.344 . S
O575 Co567 2.055 . S
O575 C579 1.253 . S
H576 C572 0.931 . S
H577 C573 0.930 . S
O578 Co567 2.039 . S
O578 C568 1.265 . S
C579 O575 1.253 . S
C579 O580 1.227 . S
O580 C579 1.227 . S
N581 Co567 2.140 . S
N581 C584 1.346 . S
N581 C585 1.345 . S
C582 C583 1.387 . S
C582 C586 1.391 . S
C583 C582 1.387 . S
C583 C584 1.369 . S
C583 H592 0.929 . S
C584 N581 1.346 . S
C584 C583 1.369 . S
C584 H587 0.928 . S
C585 N581 1.345 . S
C585 C586 1.371 . S
C585 H588 0.931 . S
C586 C582 1.391 . S
C586 C585 1.371 . S
C586 H593 0.930 . S
H587 C584 0.928 . S
H588 C585 0.931 . S
H589 C565 0.930 . S
H590 C562 0.930 . S
H591 C571 0.930 . S
H592 C583 0.929 . S
H593 C586 0.930 . S
C594 C595 1.351 . S
C594 N597 1.368 . S
C594 H599 0.931 . S
C595 C594 1.351 . S
C595 N596 1.373 . S
C595 H623 0.930 . S
N596 C595 1.373 . S
N596 C598 1.340 . S
N597 C594 1.368 . S
N597 C598 1.321 . S
N597 Co600 2.135 . S
C598 N596 1.340 . S
C598 N597 1.321 . S
C598 H622 0.930 . S
H599 C594 0.931 . S
Co600 N597 2.135 . S
Co600 N603 2.121 . S
Co600 O608 2.055 . S
Co600 O611 2.039 . S
Co600 N614 2.140 . S
C601 O602 1.227 . S
C601 O611 1.265 . S
O602 C601 1.227 . S
N603 Co600 2.121 . S
N603 C605 1.375 . S
N603 C606 1.313 . S
C604 C605 1.338 . S
C604 N607 1.377 . S
C604 H624 0.930 . S
C605 N603 1.375 . S
C605 C604 1.338 . S
C605 H609 0.931 . S
C606 N603 1.313 . S
C606 N607 1.344 . S
C606 H610 0.930 . S
N607 C604 1.377 . S
N607 C606 1.344 . S
O608 Co600 2.055 . S
O608 C612 1.253 . S
H609 C605 0.931 . S
H610 C606 0.930 . S
O611 Co600 2.039 . S
O611 C601 1.265 . S
C612 O608 1.253 . S
C612 O613 1.227 . S
O613 C612 1.227 . S
N614 Co600 2.140 . S
N614 C617 1.346 . S
N614 C618 1.345 . S
C615 C616 1.387 . S
C615 C619 1.391 . S
C616 C615 1.387 . S
C616 C617 1.369 . S
C616 H625 0.929 . S
C617 N614 1.346 . S
C617 C616 1.369 . S
C617 H620 0.928 . S
C618 N614 1.345 . S
C618 C619 1.371 . S
C618 H621 0.931 . S
C619 C615 1.391 . S
C619 C618 1.371 . S
C619 H626 0.930 . S
H620 C617 0.928 . S
H621 C618 0.931 . S
H622 C598 0.930 . S
H623 C595 0.930 . S
H624 C604 0.930 . S
H625 C616 0.929 . S
H626 C619 0.930 . S
C627 C628 1.351 . S
C627 N630 1.368 . S
C627 H632 0.931 . S
C628 C627 1.351 . S
C628 N629 1.373 . S
C628 H656 0.930 . S
N629 C628 1.373 . S
N629 C631 1.340 . S
N630 C627 1.368 . S
N630 C631 1.321 . S
N630 Co633 2.135 . S
C631 N629 1.340 . S
C631 N630 1.321 . S
C631 H655 0.930 . S
H632 C627 0.931 . S
Co633 N630 2.135 . S
Co633 N636 2.121 . S
Co633 O641 2.055 . S
Co633 O644 2.039 . S
Co633 N647 2.140 . S
C634 O635 1.227 . S
C634 O644 1.265 . S
O635 C634 1.227 . S
N636 Co633 2.121 . S
N636 C638 1.375 . S
N636 C639 1.313 . S
C637 C638 1.338 . S
C637 N640 1.377 . S
C637 H657 0.930 . S
C638 N636 1.375 . S
C638 C637 1.338 . S
C638 H642 0.931 . S
C639 N636 1.313 . S
C639 N640 1.344 . S
C639 H643 0.930 . S
N640 C637 1.377 . S
N640 C639 1.344 . S
O641 Co633 2.055 . S
O641 C645 1.253 . S
H642 C638 0.931 . S
H643 C639 0.930 . S
O644 Co633 2.039 . S
O644 C634 1.265 . S
C645 O641 1.253 . S
C645 O646 1.227 . S
O646 C645 1.227 . S
N647 Co633 2.140 . S
N647 C650 1.346 . S
N647 C651 1.345 . S
C648 C649 1.387 . S
C648 C652 1.391 . S
C649 C648 1.387 . S
C649 C650 1.369 . S
C649 H658 0.929 . S
C650 N647 1.346 . S
C650 C649 1.369 . S
C650 H653 0.928 . S
C651 N647 1.345 . S
C651 C652 1.371 . S
C651 H654 0.931 . S
C652 C648 1.391 . S
C652 C651 1.371 . S
C652 H659 0.930 . S
H653 C650 0.928 . S
H654 C651 0.931 . S
H655 C631 0.930 . S
H656 C628 0.930 . S
H657 C637 0.930 . S
H658 C649 0.929 . S
H659 C652 0.930 . S
C660 C661 1.351 . S
C660 N663 1.368 . S
C660 H665 0.931 . S
C661 C660 1.351 . S
C661 N662 1.373 . S
C661 H689 0.930 . S
N662 C661 1.373 . S
N662 C664 1.340 . S
N663 C660 1.368 . S
N663 C664 1.321 . S
N663 Co666 2.135 . S
C664 N662 1.340 . S
C664 N663 1.321 . S
C664 H688 0.930 . S
H665 C660 0.931 . S
Co666 N663 2.135 . S
Co666 N669 2.121 . S
Co666 O674 2.055 . S
Co666 O677 2.039 . S
Co666 N680 2.140 . S
C667 O668 1.227 . S
C667 O677 1.265 . S
O668 C667 1.227 . S
N669 Co666 2.121 . S
N669 C671 1.375 . S
N669 C672 1.313 . S
C670 C671 1.338 . S
C670 N673 1.377 . S
C670 H690 0.930 . S
C671 N669 1.375 . S
C671 C670 1.338 . S
C671 H675 0.931 . S
C672 N669 1.313 . S
C672 N673 1.344 . S
C672 H676 0.930 . S
N673 C670 1.377 . S
N673 C672 1.344 . S
O674 Co666 2.055 . S
O674 C678 1.253 . S
H675 C671 0.931 . S
H676 C672 0.930 . S
O677 Co666 2.039 . S
O677 C667 1.265 . S
C678 O674 1.253 . S
C678 O679 1.227 . S
O679 C678 1.227 . S
N680 Co666 2.140 . S
N680 C683 1.346 . S
N680 C684 1.345 . S
C681 C682 1.387 . S
C681 C685 1.391 . S
C682 C681 1.387 . S
C682 C683 1.369 . S
C682 H691 0.929 . S
C683 N680 1.346 . S
C683 C682 1.369 . S
C683 H686 0.928 . S
C684 N680 1.345 . S
C684 C685 1.371 . S
C684 H687 0.931 . S
C685 C681 1.391 . S
C685 C684 1.371 . S
C685 H692 0.930 . S
H686 C683 0.928 . S
H687 C684 0.931 . S
H688 C664 0.930 . S
H689 C661 0.930 . S
H690 C670 0.930 . S
H691 C682 0.929 . S
H692 C685 0.930 . S
C693 C694 1.351 . S
C693 N696 1.368 . S
C693 H698 0.931 . S
C694 C693 1.351 . S
C694 N695 1.373 . S
C694 H722 0.930 . S
N695 C694 1.373 . S
N695 C697 1.340 . S
N696 C693 1.368 . S
N696 C697 1.321 . S
N696 Co699 2.135 . S
C697 N695 1.340 . S
C697 N696 1.321 . S
C697 H721 0.930 . S
H698 C693 0.931 . S
Co699 N696 2.135 . S
Co699 N702 2.121 . S
Co699 O707 2.055 . S
Co699 O710 2.039 . S
Co699 N713 2.140 . S
C700 O701 1.227 . S
C700 O710 1.265 . S
O701 C700 1.227 . S
N702 Co699 2.121 . S
N702 C704 1.375 . S
N702 C705 1.313 . S
C703 C704 1.338 . S
C703 N706 1.377 1_545 S
C703 H723 0.930 1_545 S
C704 N702 1.375 . S
C704 C703 1.338 . S
C704 H708 0.931 . S
C705 N702 1.313 . S
C705 N706 1.344 1_545 S
C705 H709 0.930 . S
N706 C703 1.377 1_565 S
N706 C705 1.344 1_565 S
O707 Co699 2.055 . S
O707 C711 1.253 . S
H708 C704 0.931 . S
H709 C705 0.930 . S
O710 Co699 2.039 . S
O710 C700 1.265 . S
C711 O707 1.253 . S
C711 O712 1.227 . S
O712 C711 1.227 . S
N713 Co699 2.140 . S
N713 C716 1.346 . S
N713 C717 1.345 . S
C714 C715 1.387 . S
C714 C718 1.391 . S
C715 C714 1.387 . S
C715 C716 1.369 . S
C715 H724 0.929 . S
C716 N713 1.346 . S
C716 C715 1.369 . S
C716 H719 0.928 . S
C717 N713 1.345 . S
C717 C718 1.371 . S
C717 H720 0.931 . S
C718 C714 1.391 . S
C718 C717 1.371 . S
C718 H725 0.930 . S
H719 C716 0.928 . S
H720 C717 0.931 . S
H721 C697 0.930 . S
H722 C694 0.930 . S
H723 C703 0.930 1_565 S
H724 C715 0.929 . S
H725 C718 0.930 . S
C726 C727 1.351 . S
C726 N729 1.368 . S
C726 H731 0.931 . S
C727 C726 1.351 . S
C727 N728 1.373 . S
C727 H755 0.930 . S
N728 C727 1.373 . S
N728 C730 1.340 . S
N729 C726 1.368 . S
N729 C730 1.321 . S
N729 Co732 2.135 . S
C730 N728 1.340 . S
C730 N729 1.321 . S
C730 H754 0.930 . S
H731 C726 0.931 . S
Co732 N729 2.135 . S
Co732 N735 2.121 . S
Co732 O740 2.055 . S
Co732 O743 2.039 . S
Co732 N746 2.140 . S
C733 O734 1.227 . S
C733 O743 1.265 . S
O734 C733 1.227 . S
N735 Co732 2.121 . S
N735 C737 1.375 . S
N735 C738 1.313 . S
C736 C737 1.338 . S
C736 N739 1.377 1_655 S
C736 H756 0.930 1_655 S
C737 N735 1.375 . S
C737 C736 1.338 . S
C737 H741 0.931 . S
C738 N735 1.313 . S
C738 N739 1.344 1_655 S
C738 H742 0.930 . S
N739 C736 1.377 1_455 S
N739 C738 1.344 1_455 S
O740 Co732 2.055 . S
O740 C744 1.253 . S
H741 C737 0.931 . S
H742 C738 0.930 . S
O743 Co732 2.039 . S
O743 C733 1.265 . S
C744 O740 1.253 . S
C744 O745 1.227 . S
O745 C744 1.227 . S
N746 Co732 2.140 . S
N746 C749 1.346 . S
N746 C750 1.345 . S
C747 C748 1.387 . S
C747 C751 1.391 . S
C748 C747 1.387 . S
C748 C749 1.369 . S
C748 H757 0.929 . S
C749 N746 1.346 . S
C749 C748 1.369 . S
C749 H752 0.928 . S
C750 N746 1.345 . S
C750 C751 1.371 . S
C750 H753 0.931 . S
C751 C747 1.391 . S
C751 C750 1.371 . S
C751 H758 0.930 . S
H752 C749 0.928 . S
H753 C750 0.931 . S
H754 C730 0.930 . S
H755 C727 0.930 . S
H756 C736 0.930 1_455 S
H757 C748 0.929 . S
H758 C751 0.930 . S
C759 C760 1.351 . S
C759 N762 1.368 . S
C759 H764 0.931 . S
C760 C759 1.351 . S
C760 N761 1.373 . S
C760 H788 0.930 . S
N761 C760 1.373 . S
N761 C763 1.340 . S
N762 C759 1.368 . S
N762 C763 1.321 . S
N762 Co765 2.135 . S
C763 N761 1.340 . S
C763 N762 1.321 . S
C763 H787 0.930 . S
H764 C759 0.931 . S
Co765 N762 2.135 . S
Co765 N768 2.121 . S
Co765 O773 2.055 . S
Co765 O776 2.039 . S
Co765 N779 2.140 . S
C766 O767 1.227 . S
C766 O776 1.265 . S
O767 C766 1.227 . S
N768 Co765 2.121 . S
N768 C770 1.375 . S
N768 C771 1.313 . S
C769 C770 1.338 . S
C769 N772 1.377 . S
C769 H789 0.930 . S
C770 N768 1.375 . S
C770 C769 1.338 . S
C770 H774 0.931 . S
C771 N768 1.313 . S
C771 N772 1.344 . S
C771 H775 0.930 . S
N772 C769 1.377 . S
N772 C771 1.344 . S
O773 Co765 2.055 . S
O773 C777 1.253 . S
H774 C770 0.931 . S
H775 C771 0.930 . S
O776 Co765 2.039 . S
O776 C766 1.265 . S
C777 O773 1.253 . S
C777 O778 1.227 . S
O778 C777 1.227 . S
N779 Co765 2.140 . S
N779 C782 1.346 . S
N779 C783 1.345 . S
C780 C781 1.387 . S
C780 C784 1.391 . S
C781 C780 1.387 . S
C781 C782 1.369 . S
C781 H790 0.929 . S
C782 N779 1.346 . S
C782 C781 1.369 . S
C782 H785 0.928 . S
C783 N779 1.345 . S
C783 C784 1.371 . S
C783 H786 0.931 . S
C784 C780 1.391 . S
C784 C783 1.371 . S
C784 H791 0.930 . S
H785 C782 0.928 . S
H786 C783 0.931 . S
H787 C763 0.930 . S
H788 C760 0.930 . S
H789 C769 0.930 . S
H790 C781 0.929 . S
H791 C784 0.930 . S
C792 C793 1.351 . S
C792 N795 1.368 . S
C792 H797 0.931 . S
C793 C792 1.351 . S
C793 N794 1.373 . S
C793 H821 0.930 . S
N794 C793 1.373 . S
N794 C796 1.340 . S
N795 C792 1.368 . S
N795 C796 1.321 . S
N795 Co798 2.135 . S
C796 N794 1.340 . S
C796 N795 1.321 . S
C796 H820 0.930 . S
H797 C792 0.931 . S
Co798 N795 2.135 . S
Co798 N801 2.121 . S
Co798 O806 2.055 . S
Co798 O809 2.039 . S
Co798 N812 2.140 . S
C799 O800 1.227 . S
C799 O809 1.265 . S
O800 C799 1.227 . S
N801 Co798 2.121 . S
N801 C803 1.375 . S
N801 C804 1.313 . S
C802 C803 1.338 . S
C802 N805 1.377 . S
C802 H822 0.930 . S
C803 N801 1.375 . S
C803 C802 1.338 . S
C803 H807 0.931 . S
C804 N801 1.313 . S
C804 N805 1.344 . S
C804 H808 0.930 . S
N805 C802 1.377 . S
N805 C804 1.344 . S
O806 Co798 2.055 . S
O806 C810 1.253 . S
H807 C803 0.931 . S
H808 C804 0.930 . S
O809 Co798 2.039 . S
O809 C799 1.265 . S
C810 O806 1.253 . S
C810 O811 1.227 . S
O811 C810 1.227 . S
N812 Co798 2.140 . S
N812 C815 1.346 . S
N812 C816 1.345 . S
C813 C814 1.387 . S
C813 C817 1.391 . S
C814 C813 1.387 . S
C814 C815 1.369 . S
C814 H823 0.929 . S
C815 N812 1.346 . S
C815 C814 1.369 . S
C815 H818 0.928 . S
C816 N812 1.345 . S
C816 C817 1.371 . S
C816 H819 0.931 . S
C817 C813 1.391 . S
C817 C816 1.371 . S
C817 H824 0.930 . S
H818 C815 0.928 . S
H819 C816 0.931 . S
H820 C796 0.930 . S
H821 C793 0.930 . S
H822 C802 0.930 . S
H823 C814 0.929 . S
H824 C817 0.930 . S
C825 C826 1.351 . S
C825 N828 1.368 . S
C825 H830 0.931 . S
C826 C825 1.351 . S
C826 N827 1.373 . S
C826 H854 0.930 . S
N827 C826 1.373 . S
N827 C829 1.340 . S
N828 C825 1.368 . S
N828 C829 1.321 . S
N828 Co831 2.135 . S
C829 N827 1.340 . S
C829 N828 1.321 . S
C829 H853 0.930 . S
H830 C825 0.931 . S
Co831 N828 2.135 . S
Co831 N834 2.121 . S
Co831 O839 2.055 . S
Co831 O842 2.039 . S
Co831 N845 2.140 . S
C832 O833 1.227 . S
C832 O842 1.265 . S
O833 C832 1.227 . S
N834 Co831 2.121 . S
N834 C836 1.375 . S
N834 C837 1.313 . S
C835 C836 1.338 . S
C835 N838 1.377 . S
C835 H855 0.930 . S
C836 N834 1.375 . S
C836 C835 1.338 . S
C836 H840 0.931 . S
C837 N834 1.313 . S
C837 N838 1.344 . S
C837 H841 0.930 . S
N838 C835 1.377 . S
N838 C837 1.344 . S
O839 Co831 2.055 . S
O839 C843 1.253 . S
H840 C836 0.931 . S
H841 C837 0.930 . S
O842 Co831 2.039 . S
O842 C832 1.265 . S
C843 O839 1.253 . S
C843 O844 1.227 . S
O844 C843 1.227 . S
N845 Co831 2.140 . S
N845 C848 1.346 . S
N845 C849 1.345 . S
C846 C847 1.387 . S
C846 C850 1.391 . S
C847 C846 1.387 . S
C847 C848 1.369 . S
C847 H856 0.929 . S
C848 N845 1.346 . S
C848 C847 1.369 . S
C848 H851 0.928 . S
C849 N845 1.345 . S
C849 C850 1.371 . S
C849 H852 0.931 . S
C850 C846 1.391 . S
C850 C849 1.371 . S
C850 H857 0.930 . S
H851 C848 0.928 . S
H852 C849 0.931 . S
H853 C829 0.930 . S
H854 C826 0.930 . S
H855 C835 0.930 . S
H856 C847 0.929 . S
H857 C850 0.930 . S
C858 C859 1.351 . S
C858 N861 1.368 . S
C858 H863 0.931 . S
C859 C858 1.351 . S
C859 N860 1.373 . S
C859 H887 0.930 . S
N860 C859 1.373 . S
N860 C862 1.340 . S
N861 C858 1.368 . S
N861 C862 1.321 . S
N861 Co864 2.135 . S
C862 N860 1.340 . S
C862 N861 1.321 . S
C862 H886 0.930 . S
H863 C858 0.931 . S
Co864 N861 2.135 . S
Co864 N867 2.121 . S
Co864 O872 2.055 . S
Co864 O875 2.039 . S
Co864 N878 2.140 . S
C865 O866 1.227 . S
C865 O875 1.265 . S
O866 C865 1.227 . S
N867 Co864 2.121 . S
N867 C869 1.375 . S
N867 C870 1.313 . S
C868 C869 1.338 . S
C868 N871 1.377 . S
C868 H888 0.930 . S
C869 N867 1.375 . S
C869 C868 1.338 . S
C869 H873 0.931 . S
C870 N867 1.313 . S
C870 N871 1.344 . S
C870 H874 0.930 . S
N871 C868 1.377 . S
N871 C870 1.344 . S
O872 Co864 2.055 . S
O872 C876 1.253 . S
H873 C869 0.931 . S
H874 C870 0.930 . S
O875 Co864 2.039 . S
O875 C865 1.265 . S
C876 O872 1.253 . S
C876 O877 1.227 . S
O877 C876 1.227 . S
N878 Co864 2.140 . S
N878 C881 1.346 . S
N878 C882 1.345 . S
C879 C880 1.387 . S
C879 C883 1.391 . S
C880 C879 1.387 . S
C880 C881 1.369 . S
C880 H889 0.929 . S
C881 N878 1.346 . S
C881 C880 1.369 . S
C881 H884 0.928 . S
C882 N878 1.345 . S
C882 C883 1.371 . S
C882 H885 0.931 . S
C883 C879 1.391 . S
C883 C882 1.371 . S
C883 H890 0.930 . S
H884 C881 0.928 . S
H885 C882 0.931 . S
H886 C862 0.930 . S
H887 C859 0.930 . S
H888 C868 0.930 . S
H889 C880 0.929 . S
H890 C883 0.930 . S
C891 C892 1.351 . S
C891 N894 1.368 . S
C891 H896 0.931 . S
C892 C891 1.351 . S
C892 N893 1.373 . S
C892 H920 0.930 . S
N893 C892 1.373 . S
N893 C895 1.340 . S
N894 C891 1.368 . S
N894 C895 1.321 . S
N894 Co897 2.135 . S
C895 N893 1.340 . S
C895 N894 1.321 . S
C895 H919 0.930 . S
H896 C891 0.931 . S
Co897 N894 2.135 . S
Co897 N900 2.121 . S
Co897 O905 2.055 . S
Co897 O908 2.039 . S
Co897 N911 2.140 . S
C898 O899 1.227 . S
C898 O908 1.265 . S
O899 C898 1.227 . S
N900 Co897 2.121 . S
N900 C902 1.375 . S
N900 C903 1.313 . S
C901 C902 1.338 . S
C901 N904 1.377 1_565 S
C901 H921 0.930 1_565 S
C902 N900 1.375 . S
C902 C901 1.338 . S
C902 H906 0.931 . S
C903 N900 1.313 . S
C903 N904 1.344 1_565 S
C903 H907 0.930 . S
N904 C901 1.377 1_545 S
N904 C903 1.344 1_545 S
O905 Co897 2.055 . S
O905 C909 1.253 . S
H906 C902 0.931 . S
H907 C903 0.930 . S
O908 Co897 2.039 . S
O908 C898 1.265 . S
C909 O905 1.253 . S
C909 O910 1.227 . S
O910 C909 1.227 . S
N911 Co897 2.140 . S
N911 C914 1.346 . S
N911 C915 1.345 . S
C912 C913 1.387 . S
C912 C916 1.391 . S
C913 C912 1.387 . S
C913 C914 1.369 . S
C913 H922 0.929 . S
C914 N911 1.346 . S
C914 C913 1.369 . S
C914 H917 0.928 . S
C915 N911 1.345 . S
C915 C916 1.371 . S
C915 H918 0.931 . S
C916 C912 1.391 . S
C916 C915 1.371 . S
C916 H923 0.930 . S
H917 C914 0.928 . S
H918 C915 0.931 . S
H919 C895 0.930 . S
H920 C892 0.930 . S
H921 C901 0.930 1_545 S
H922 C913 0.929 . S
H923 C916 0.930 . S
C924 C925 1.351 . S
C924 N927 1.368 . S
C924 H929 0.931 . S
C925 C924 1.351 . S
C925 N926 1.373 . S
C925 H953 0.930 . S
N926 C925 1.373 . S
N926 C928 1.340 . S
N927 C924 1.368 . S
N927 C928 1.321 . S
N927 Co930 2.135 . S
C928 N926 1.340 . S
C928 N927 1.321 . S
C928 H952 0.930 . S
H929 C924 0.931 . S
Co930 N927 2.135 . S
Co930 N933 2.121 . S
Co930 O938 2.055 . S
Co930 O941 2.039 . S
Co930 N944 2.140 . S
C931 O932 1.227 . S
C931 O941 1.265 . S
O932 C931 1.227 . S
N933 Co930 2.121 . S
N933 C935 1.375 . S
N933 C936 1.313 . S
C934 C935 1.338 . S
C934 N937 1.377 1_455 S
C934 H954 0.930 1_455 S
C935 N933 1.375 . S
C935 C934 1.338 . S
C935 H939 0.931 . S
C936 N933 1.313 . S
C936 N937 1.344 1_455 S
C936 H940 0.930 . S
N937 C934 1.377 1_655 S
N937 C936 1.344 1_655 S
O938 Co930 2.055 . S
O938 C942 1.253 . S
H939 C935 0.931 . S
H940 C936 0.930 . S
O941 Co930 2.039 . S
O941 C931 1.265 . S
C942 O938 1.253 . S
C942 O943 1.227 . S
O943 C942 1.227 . S
N944 Co930 2.140 . S
N944 C947 1.346 . S
N944 C948 1.345 . S
C945 C946 1.387 . S
C945 C949 1.391 . S
C946 C945 1.387 . S
C946 C947 1.369 . S
C946 H955 0.929 . S
C947 N944 1.346 . S
C947 C946 1.369 . S
C947 H950 0.928 . S
C948 N944 1.345 . S
C948 C949 1.371 . S
C948 H951 0.931 . S
C949 C945 1.391 . S
C949 C948 1.371 . S
C949 H956 0.930 . S
H950 C947 0.928 . S
H951 C948 0.931 . S
H952 C928 0.930 . S
H953 C925 0.930 . S
H954 C934 0.930 1_655 S
H955 C946 0.929 . S
H956 C949 0.930 . S
C957 C958 1.351 . S
C957 N960 1.368 . S
C957 H962 0.931 . S
C958 C957 1.351 . S
C958 N959 1.373 . S
C958 H986 0.930 . S
N959 C958 1.373 . S
N959 C961 1.340 . S
N960 C957 1.368 . S
N960 C961 1.321 . S
N960 Co963 2.135 . S
C961 N959 1.340 . S
C961 N960 1.321 . S
C961 H985 0.930 . S
H962 C957 0.931 . S
Co963 N960 2.135 . S
Co963 N966 2.121 . S
Co963 O971 2.055 . S
Co963 O974 2.039 . S
Co963 N977 2.140 . S
C964 O965 1.227 . S
C964 O974 1.265 . S
O965 C964 1.227 . S
N966 Co963 2.121 . S
N966 C968 1.375 . S
N966 C969 1.313 . S
C967 C968 1.338 . S
C967 N970 1.377 . S
C967 H987 0.930 . S
C968 N966 1.375 . S
C968 C967 1.338 . S
C968 H972 0.931 . S
C969 N966 1.313 . S
C969 N970 1.344 . S
C969 H973 0.930 . S
N970 C967 1.377 . S
N970 C969 1.344 . S
O971 Co963 2.055 . S
O971 C975 1.253 . S
H972 C968 0.931 . S
H973 C969 0.930 . S
O974 Co963 2.039 . S
O974 C964 1.265 . S
C975 O971 1.253 . S
C975 O976 1.227 . S
O976 C975 1.227 . S
N977 Co963 2.140 . S
N977 C980 1.346 . S
N977 C981 1.345 . S
C978 C979 1.387 . S
C978 C982 1.391 . S
C979 C978 1.387 . S
C979 C980 1.369 . S
C979 H988 0.929 . S
C980 N977 1.346 . S
C980 C979 1.369 . S
C980 H983 0.928 . S
C981 N977 1.345 . S
C981 C982 1.371 . S
C981 H984 0.931 . S
C982 C978 1.391 . S
C982 C981 1.371 . S
C982 H989 0.930 . S
H983 C980 0.928 . S
H984 C981 0.931 . S
H985 C961 0.930 . S
H986 C958 0.930 . S
H987 C967 0.930 . S
H988 C979 0.929 . S
H989 C982 0.930 . S
C990 C991 1.351 . S
C990 N993 1.368 . S
C990 H995 0.931 . S
C991 C990 1.351 . S
C991 N992 1.373 . S
C991 H1019 0.930 . S
N992 C991 1.373 . S
N992 C994 1.340 . S
N993 C990 1.368 . S
N993 C994 1.321 . S
N993 Co996 2.135 . S
C994 N992 1.340 . S
C994 N993 1.321 . S
C994 H1018 0.930 . S
H995 C990 0.931 . S
Co996 N993 2.135 . S
Co996 N999 2.121 . S
Co996 O1004 2.055 . S
Co996 O1007 2.039 . S
Co996 N1010 2.140 . S
C997 O998 1.227 . S
C997 O1007 1.265 . S
O998 C997 1.227 . S
N999 Co996 2.121 . S
N999 C1001 1.375 . S
N999 C1002 1.313 . S
C1000 C1001 1.338 . S
C1000 N1003 1.377 1_455 S
C1000 H1020 0.930 1_455 S
C1001 N999 1.375 . S
C1001 C1000 1.338 . S
C1001 H1005 0.931 . S
C1002 N999 1.313 . S
C1002 N1003 1.344 1_455 S
C1002 H1006 0.930 . S
N1003 C1000 1.377 1_655 S
N1003 C1002 1.344 1_655 S
O1004 Co996 2.055 . S
O1004 C1008 1.253 . S
H1005 C1001 0.931 . S
H1006 C1002 0.930 . S
O1007 Co996 2.039 . S
O1007 C997 1.265 . S
C1008 O1004 1.253 . S
C1008 O1009 1.227 . S
O1009 C1008 1.227 . S
N1010 Co996 2.140 . S
N1010 C1013 1.346 . S
N1010 C1014 1.345 . S
C1011 C1012 1.387 . S
C1011 C1015 1.391 . S
C1012 C1011 1.387 . S
C1012 C1013 1.369 . S
C1012 H1021 0.929 . S
C1013 N1010 1.346 . S
C1013 C1012 1.369 . S
C1013 H1016 0.928 . S
C1014 N1010 1.345 . S
C1014 C1015 1.371 . S
C1014 H1017 0.931 . S
C1015 C1011 1.391 . S
C1015 C1014 1.371 . S
C1015 H1022 0.930 . S
H1016 C1013 0.928 . S
H1017 C1014 0.931 . S
H1018 C994 0.930 . S
H1019 C991 0.930 . S
H1020 C1000 0.930 1_655 S
H1021 C1012 0.929 . S
H1022 C1015 0.930 . S
C1023 C1024 1.351 . S
C1023 N1026 1.368 . S
C1023 H1028 0.931 . S
C1024 C1023 1.351 . S
C1024 N1025 1.373 . S
C1024 H1052 0.930 . S
N1025 C1024 1.373 . S
N1025 C1027 1.340 . S
N1026 C1023 1.368 . S
N1026 C1027 1.321 . S
N1026 Co1029 2.135 . S
C1027 N1025 1.340 . S
C1027 N1026 1.321 . S
C1027 H1051 0.930 . S
H1028 C1023 0.931 . S
Co1029 N1026 2.135 . S
Co1029 N1032 2.121 . S
Co1029 O1037 2.055 . S
Co1029 O1040 2.039 . S
Co1029 N1043 2.140 . S
C1030 O1031 1.227 . S
C1030 O1040 1.265 . S
O1031 C1030 1.227 . S
N1032 Co1029 2.121 . S
N1032 C1034 1.375 . S
N1032 C1035 1.313 . S
C1033 C1034 1.338 . S
C1033 N1036 1.377 . S
C1033 H1053 0.930 . S
C1034 N1032 1.375 . S
C1034 C1033 1.338 . S
C1034 H1038 0.931 . S
C1035 N1032 1.313 . S
C1035 N1036 1.344 . S
C1035 H1039 0.930 . S
N1036 C1033 1.377 . S
N1036 C1035 1.344 . S
O1037 Co1029 2.055 . S
O1037 C1041 1.253 . S
H1038 C1034 0.931 . S
H1039 C1035 0.930 . S
O1040 Co1029 2.039 . S
O1040 C1030 1.265 . S
C1041 O1037 1.253 . S
C1041 O1042 1.227 . S
O1042 C1041 1.227 . S
N1043 Co1029 2.140 . S
N1043 C1046 1.346 . S
N1043 C1047 1.345 . S
C1044 C1045 1.387 . S
C1044 C1048 1.391 . S
C1045 C1044 1.387 . S
C1045 C1046 1.369 . S
C1045 H1054 0.929 . S
C1046 N1043 1.346 . S
C1046 C1045 1.369 . S
C1046 H1049 0.928 . S
C1047 N1043 1.345 . S
C1047 C1048 1.371 . S
C1047 H1050 0.931 . S
C1048 C1044 1.391 . S
C1048 C1047 1.371 . S
C1048 H1055 0.930 . S
H1049 C1046 0.928 . S
H1050 C1047 0.931 . S
H1051 C1027 0.930 . S
H1052 C1024 0.930 . S
H1053 C1033 0.930 . S
H1054 C1045 0.929 . S
H1055 C1048 0.930 . S
C1056 C1057 1.351 . S
C1056 N1059 1.368 . S
C1056 H1061 0.931 . S
C1057 C1056 1.351 . S
C1057 N1058 1.373 . S
C1057 H1085 0.930 . S
N1058 C1057 1.373 . S
N1058 C1060 1.340 . S
N1059 C1056 1.368 . S
N1059 C1060 1.321 . S
N1059 Co1062 2.135 . S
C1060 N1058 1.340 . S
C1060 N1059 1.321 . S
C1060 H1084 0.930 . S
H1061 C1056 0.931 . S
Co1062 N1059 2.135 . S
Co1062 N1065 2.121 . S
Co1062 O1070 2.055 . S
Co1062 O1073 2.039 . S
Co1062 N1076 2.140 . S
C1063 O1064 1.227 . S
C1063 O1073 1.265 . S
O1064 C1063 1.227 . S
N1065 Co1062 2.121 . S
N1065 C1067 1.375 . S
N1065 C1068 1.313 . S
C1066 C1067 1.338 . S
C1066 N1069 1.377 1_565 S
C1066 H1086 0.930 1_565 S
C1067 N1065 1.375 . S
C1067 C1066 1.338 . S
C1067 H1071 0.931 . S
C1068 N1065 1.313 . S
C1068 N1069 1.344 1_565 S
C1068 H1072 0.930 . S
N1069 C1066 1.377 1_545 S
N1069 C1068 1.344 1_545 S
O1070 Co1062 2.055 . S
O1070 C1074 1.253 . S
H1071 C1067 0.931 . S
H1072 C1068 0.930 . S
O1073 Co1062 2.039 . S
O1073 C1063 1.265 . S
C1074 O1070 1.253 . S
C1074 O1075 1.227 . S
O1075 C1074 1.227 . S
N1076 Co1062 2.140 . S
N1076 C1079 1.346 . S
N1076 C1080 1.345 . S
C1077 C1078 1.387 . S
C1077 C1081 1.391 . S
C1078 C1077 1.387 . S
C1078 C1079 1.369 . S
C1078 H1087 0.929 . S
C1079 N1076 1.346 . S
C1079 C1078 1.369 . S
C1079 H1082 0.928 . S
C1080 N1076 1.345 . S
C1080 C1081 1.371 . S
C1080 H1083 0.931 . S
C1081 C1077 1.391 . S
C1081 C1080 1.371 . S
C1081 H1088 0.930 . S
H1082 C1079 0.928 . S
H1083 C1080 0.931 . S
H1084 C1060 0.930 . S
H1085 C1057 0.930 . S
H1086 C1066 0.930 1_545 S
H1087 C1078 0.929 . S
H1088 C1081 0.930 . S
C1089 C1090 1.351 . S
C1089 N1092 1.368 . S
C1089 H1094 0.931 . S
C1090 C1089 1.351 . S
C1090 N1091 1.373 . S
C1090 H1118 0.930 . S
N1091 C1090 1.373 . S
N1091 C1093 1.340 . S
N1092 C1089 1.368 . S
N1092 C1093 1.321 . S
N1092 Co1095 2.135 . S
C1093 N1091 1.340 . S
C1093 N1092 1.321 . S
C1093 H1117 0.930 . S
H1094 C1089 0.931 . S
Co1095 N1092 2.135 . S
Co1095 N1098 2.121 . S
Co1095 O1103 2.055 . S
Co1095 O1106 2.039 . S
Co1095 N1109 2.140 . S
C1096 O1097 1.227 . S
C1096 O1106 1.265 . S
O1097 C1096 1.227 . S
N1098 Co1095 2.121 . S
N1098 C1100 1.375 . S
N1098 C1101 1.313 . S
C1099 C1100 1.338 . S
C1099 N1102 1.377 . S
C1099 H1119 0.930 . S
C1100 N1098 1.375 . S
C1100 C1099 1.338 . S
C1100 H1104 0.931 . S
C1101 N1098 1.313 . S
C1101 N1102 1.344 . S
C1101 H1105 0.930 . S
N1102 C1099 1.377 . S
N1102 C1101 1.344 . S
O1103 Co1095 2.055 . S
O1103 C1107 1.253 . S
H1104 C1100 0.931 . S
H1105 C1101 0.930 . S
O1106 Co1095 2.039 . S
O1106 C1096 1.265 . S
C1107 O1103 1.253 . S
C1107 O1108 1.227 . S
O1108 C1107 1.227 . S
N1109 Co1095 2.140 . S
N1109 C1112 1.346 . S
N1109 C1113 1.345 . S
C1110 C1111 1.387 . S
C1110 C1114 1.391 . S
C1111 C1110 1.387 . S
C1111 C1112 1.369 . S
C1111 H1120 0.929 . S
C1112 N1109 1.346 . S
C1112 C1111 1.369 . S
C1112 H1115 0.928 . S
C1113 N1109 1.345 . S
C1113 C1114 1.371 . S
C1113 H1116 0.931 . S
C1114 C1110 1.391 . S
C1114 C1113 1.371 . S
C1114 H1121 0.930 . S
H1115 C1112 0.928 . S
H1116 C1113 0.931 . S
H1117 C1093 0.930 . S
H1118 C1090 0.930 . S
H1119 C1099 0.930 . S
H1120 C1111 0.929 . S
H1121 C1114 0.930 . S
C1122 C1123 1.351 . S
C1122 N1125 1.368 . S
C1122 H1127 0.931 . S
C1123 C1122 1.351 . S
C1123 N1124 1.373 . S
C1123 H1151 0.930 . S
N1124 C1123 1.373 . S
N1124 C1126 1.340 . S
N1125 C1122 1.368 . S
N1125 C1126 1.321 . S
N1125 Co1128 2.135 . S
C1126 N1124 1.340 . S
C1126 N1125 1.321 . S
C1126 H1150 0.930 . S
H1127 C1122 0.931 . S
Co1128 N1125 2.135 . S
Co1128 N1131 2.121 . S
Co1128 O1136 2.055 . S
Co1128 O1139 2.039 . S
Co1128 N1142 2.140 . S
C1129 O1130 1.227 . S
C1129 O1139 1.265 . S
O1130 C1129 1.227 . S
N1131 Co1128 2.121 . S
N1131 C1133 1.375 . S
N1131 C1134 1.313 . S
C1132 C1133 1.338 . S
C1132 N1135 1.377 . S
C1132 H1152 0.930 . S
C1133 N1131 1.375 . S
C1133 C1132 1.338 . S
C1133 H1137 0.931 . S
C1134 N1131 1.313 . S
C1134 N1135 1.344 . S
C1134 H1138 0.930 . S
N1135 C1132 1.377 . S
N1135 C1134 1.344 . S
O1136 Co1128 2.055 . S
O1136 C1140 1.253 . S
H1137 C1133 0.931 . S
H1138 C1134 0.930 . S
O1139 Co1128 2.039 . S
O1139 C1129 1.265 . S
C1140 O1136 1.253 . S
C1140 O1141 1.227 . S
O1141 C1140 1.227 . S
N1142 Co1128 2.140 . S
N1142 C1145 1.346 . S
N1142 C1146 1.345 . S
C1143 C1144 1.387 . S
C1143 C1147 1.391 . S
C1144 C1143 1.387 . S
C1144 C1145 1.369 . S
C1144 H1153 0.929 . S
C1145 N1142 1.346 . S
C1145 C1144 1.369 . S
C1145 H1148 0.928 . S
C1146 N1142 1.345 . S
C1146 C1147 1.371 . S
C1146 H1149 0.931 . S
C1147 C1143 1.391 . S
C1147 C1146 1.371 . S
C1147 H1154 0.930 . S
H1148 C1145 0.928 . S
H1149 C1146 0.931 . S
H1150 C1126 0.930 . S
H1151 C1123 0.930 . S
H1152 C1132 0.930 . S
H1153 C1144 0.929 . S
H1154 C1147 0.930 . S
C1155 C1156 1.351 . S
C1155 N1158 1.368 . S
C1155 H1160 0.931 . S
C1156 C1155 1.351 . S
C1156 N1157 1.373 . S
C1156 H1184 0.930 . S
N1157 C1156 1.373 . S
N1157 C1159 1.340 . S
N1158 C1155 1.368 . S
N1158 C1159 1.321 . S
N1158 Co1161 2.135 . S
C1159 N1157 1.340 . S
C1159 N1158 1.321 . S
C1159 H1183 0.930 . S
H1160 C1155 0.931 . S
Co1161 N1158 2.135 . S
Co1161 N1164 2.121 . S
Co1161 O1169 2.055 . S
Co1161 O1172 2.039 . S
Co1161 N1175 2.140 . S
C1162 O1163 1.227 . S
C1162 O1172 1.265 . S
O1163 C1162 1.227 . S
N1164 Co1161 2.121 . S
N1164 C1166 1.375 . S
N1164 C1167 1.313 . S
C1165 C1166 1.338 . S
C1165 N1168 1.377 . S
C1165 H1185 0.930 . S
C1166 N1164 1.375 . S
C1166 C1165 1.338 . S
C1166 H1170 0.931 . S
C1167 N1164 1.313 . S
C1167 N1168 1.344 . S
C1167 H1171 0.930 . S
N1168 C1165 1.377 . S
N1168 C1167 1.344 . S
O1169 Co1161 2.055 . S
O1169 C1173 1.253 . S
H1170 C1166 0.931 . S
H1171 C1167 0.930 . S
O1172 Co1161 2.039 . S
O1172 C1162 1.265 . S
C1173 O1169 1.253 . S
C1173 O1174 1.227 . S
O1174 C1173 1.227 . S
N1175 Co1161 2.140 . S
N1175 C1178 1.346 . S
N1175 C1179 1.345 . S
C1176 C1177 1.387 . S
C1176 C1180 1.391 . S
C1177 C1176 1.387 . S
C1177 C1178 1.369 . S
C1177 H1186 0.929 . S
C1178 N1175 1.346 . S
C1178 C1177 1.369 . S
C1178 H1181 0.928 . S
C1179 N1175 1.345 . S
C1179 C1180 1.371 . S
C1179 H1182 0.931 . S
C1180 C1176 1.391 . S
C1180 C1179 1.371 . S
C1180 H1187 0.930 . S
H1181 C1178 0.928 . S
H1182 C1179 0.931 . S
H1183 C1159 0.930 . S
H1184 C1156 0.930 . S
H1185 C1165 0.930 . S
H1186 C1177 0.929 . S
H1187 C1180 0.930 . S
C1188 C1189 1.387 . S
C1188 H1192 0.950 . S
C1188 C1197 1.390 . S
C1189 C1188 1.387 . S
C1189 C1191 1.387 . S
H1190 C1197 0.950 . S
C1191 C1189 1.387 . S
C1191 C1193 1.390 . S
C1191 H1195 0.950 . S
H1192 C1188 0.950 . S
C1193 C1191 1.390 . S
C1193 C1194 1.387 . S
C1193 H1196 0.950 . S
C1194 C1193 1.387 . S
C1194 C1197 1.387 . S
H1195 C1191 0.950 . S
H1196 C1193 0.950 . S
C1197 C1188 1.390 . S
C1197 H1190 0.950 . S
C1197 C1194 1.387 . S
C1198 C1199 1.387 . S
C1198 H1202 0.950 . S
C1198 C1207 1.390 . S
C1199 C1198 1.387 . S
C1199 C1201 1.387 . S
H1200 C1207 0.950 . S
C1201 C1199 1.387 . S
C1201 C1203 1.390 . S
C1201 H1205 0.950 . S
H1202 C1198 0.950 . S
C1203 C1201 1.390 . S
C1203 C1204 1.387 . S
C1203 H1206 0.950 . S
C1204 C1203 1.387 . S
C1204 C1207 1.387 . S
H1205 C1201 0.950 . S
H1206 C1203 0.950 . S
C1207 C1198 1.390 . S
C1207 H1200 0.950 . S
C1207 C1204 1.387 . S
C1208 C1209 1.387 . S
C1208 H1212 0.950 . S
C1208 C1217 1.390 . S
C1209 C1208 1.387 . S
C1209 C1211 1.387 . S
H1210 C1217 0.950 . S
C1211 C1209 1.387 . S
C1211 C1213 1.390 . S
C1211 H1215 0.950 . S
H1212 C1208 0.950 . S
C1213 C1211 1.390 . S
C1213 C1214 1.387 . S
C1213 H1216 0.950 . S
C1214 C1213 1.387 . S
C1214 C1217 1.387 . S
H1215 C1211 0.950 . S
H1216 C1213 0.950 . S
C1217 C1208 1.390 . S
C1217 H1210 0.950 . S
C1217 C1214 1.387 . S
C1218 C1219 1.387 . S
C1218 H1222 0.950 . S
C1218 C1227 1.390 . S
C1219 C1218 1.387 . S
C1219 C1221 1.387 . S
H1220 C1227 0.950 . S
C1221 C1219 1.387 . S
C1221 C1223 1.390 . S
C1221 H1225 0.950 . S
H1222 C1218 0.950 . S
C1223 C1221 1.390 . S
C1223 C1224 1.387 . S
C1223 H1226 0.950 . S
C1224 C1223 1.387 . S
C1224 C1227 1.387 . S
H1225 C1221 0.950 . S
H1226 C1223 0.950 . S
C1227 C1218 1.390 . S
C1227 H1220 0.950 . S
C1227 C1224 1.387 . S
C1228 C1229 1.387 . S
C1228 H1232 0.950 . S
C1228 C1237 1.390 . S
C1229 C1228 1.387 . S
C1229 C1231 1.387 . S
H1230 C1237 0.950 . S
C1231 C1229 1.387 . S
C1231 C1233 1.390 . S
C1231 H1235 0.950 . S
H1232 C1228 0.950 . S
C1233 C1231 1.390 . S
C1233 C1234 1.387 . S
C1233 H1236 0.950 . S
C1234 C1233 1.387 . S
C1234 C1237 1.387 . S
H1235 C1231 0.950 . S
H1236 C1233 0.950 . S
C1237 C1228 1.390 . S
C1237 H1230 0.950 . S
C1237 C1234 1.387 . S
C1238 C1239 1.387 . S
C1238 H1242 0.950 . S
C1238 C1247 1.390 . S
C1239 C1238 1.387 . S
C1239 C1241 1.387 . S
H1240 C1247 0.950 . S
C1241 C1239 1.387 . S
C1241 C1243 1.390 . S
C1241 H1245 0.950 . S
H1242 C1238 0.950 . S
C1243 C1241 1.390 . S
C1243 C1244 1.387 . S
C1243 H1246 0.950 . S
C1244 C1243 1.387 . S
C1244 C1247 1.387 . S
H1245 C1241 0.950 . S
H1246 C1243 0.950 . S
C1247 C1238 1.390 . S
C1247 H1240 0.950 . S
C1247 C1244 1.387 . S
C1248 C1249 1.387 . S
C1248 H1252 0.950 . S
C1248 C1257 1.390 . S
C1249 C1248 1.387 . S
C1249 C1251 1.387 . S
H1250 C1257 0.950 . S
C1251 C1249 1.387 . S
C1251 C1253 1.390 . S
C1251 H1255 0.950 . S
H1252 C1248 0.950 . S
C1253 C1251 1.390 . S
C1253 C1254 1.387 . S
C1253 H1256 0.950 . S
C1254 C1253 1.387 . S
C1254 C1257 1.387 . S
H1255 C1251 0.950 . S
H1256 C1253 0.950 . S
C1257 C1248 1.390 . S
C1257 H1250 0.950 . S
C1257 C1254 1.387 . S
C1258 C1259 1.387 . S
C1258 H1262 0.950 . S
C1258 C1267 1.390 . S
C1259 C1258 1.387 . S
C1259 C1261 1.387 . S
H1260 C1267 0.950 . S
C1261 C1259 1.387 . S
C1261 C1263 1.390 . S
C1261 H1265 0.950 . S
H1262 C1258 0.950 . S
C1263 C1261 1.390 . S
C1263 C1264 1.387 . S
C1263 H1266 0.950 . S
C1264 C1263 1.387 . S
C1264 C1267 1.387 . S
H1265 C1261 0.950 . S
H1266 C1263 0.950 . S
C1267 C1258 1.390 . S
C1267 H1260 0.950 . S
C1267 C1264 1.387 . S
C1268 C1269 1.387 . S
C1268 H1272 0.950 . S
C1268 C1277 1.390 . S
C1269 C1268 1.387 . S
C1269 C1271 1.387 . S
H1270 C1277 0.950 . S
C1271 C1269 1.387 . S
C1271 C1273 1.390 . S
C1271 H1275 0.950 . S
H1272 C1268 0.950 . S
C1273 C1271 1.390 . S
C1273 C1274 1.387 . S
C1273 H1276 0.950 . S
C1274 C1273 1.387 . S
C1274 C1277 1.387 . S
H1275 C1271 0.950 . S
H1276 C1273 0.950 . S
C1277 C1268 1.390 . S
C1277 H1270 0.950 . S
C1277 C1274 1.387 . S
C1278 C1279 1.387 . S
C1278 H1282 0.950 . S
C1278 C1287 1.390 . S
C1279 C1278 1.387 . S
C1279 C1281 1.387 . S
H1280 C1287 0.950 . S
C1281 C1279 1.387 . S
C1281 C1283 1.390 . S
C1281 H1285 0.950 . S
H1282 C1278 0.950 . S
C1283 C1281 1.390 . S
C1283 C1284 1.387 . S
C1283 H1286 0.950 . S
C1284 C1283 1.387 . S
C1284 C1287 1.387 . S
H1285 C1281 0.950 . S
H1286 C1283 0.950 . S
C1287 C1278 1.390 . S
C1287 H1280 0.950 . S
C1287 C1284 1.387 . S
C1288 C1289 1.387 . S
C1288 H1292 0.950 . S
C1288 C1297 1.390 . S
C1289 C1288 1.387 . S
C1289 C1291 1.387 . S
H1290 C1297 0.950 . S
C1291 C1289 1.387 . S
C1291 C1293 1.390 . S
C1291 H1295 0.950 . S
H1292 C1288 0.950 . S
C1293 C1291 1.390 . S
C1293 C1294 1.387 . S
C1293 H1296 0.950 . S
C1294 C1293 1.387 . S
C1294 C1297 1.387 . S
H1295 C1291 0.950 . S
H1296 C1293 0.950 . S
C1297 C1288 1.390 . S
C1297 H1290 0.950 . S
C1297 C1294 1.387 . S
C1298 C1299 1.387 . S
C1298 H1302 0.950 . S
C1298 C1307 1.390 . S
C1299 C1298 1.387 . S
C1299 C1301 1.387 . S
H1300 C1307 0.950 . S
C1301 C1299 1.387 . S
C1301 C1303 1.390 . S
C1301 H1305 0.950 . S
H1302 C1298 0.950 . S
C1303 C1301 1.390 . S
C1303 C1304 1.387 . S
C1303 H1306 0.950 . S
C1304 C1303 1.387 . S
C1304 C1307 1.387 . S
H1305 C1301 0.950 . S
H1306 C1303 0.950 . S
C1307 C1298 1.390 . S
C1307 H1300 0.950 . S
C1307 C1304 1.387 . S
C1308 C1309 1.387 . S
C1308 H1312 0.950 . S
C1308 C1317 1.390 . S
C1309 C1308 1.387 . S
C1309 C1311 1.387 1_655 S
H1310 C1317 0.950 . S
C1311 C1309 1.387 1_455 S
C1311 C1313 1.390 . S
C1311 H1315 0.950 . S
H1312 C1308 0.950 . S
C1313 C1311 1.390 . S
C1313 C1314 1.387 . S
C1313 H1316 0.950 . S
C1314 C1313 1.387 . S
C1314 C1317 1.387 1_455 S
H1315 C1311 0.950 . S
H1316 C1313 0.950 . S
C1317 C1308 1.390 . S
C1317 H1310 0.950 . S
C1317 C1314 1.387 1_655 S
C1318 C1319 1.387 . S
C1318 H1322 0.950 . S
C1318 C1327 1.390 . S
C1319 C1318 1.387 . S
C1319 C1321 1.387 . S
H1320 C1327 0.950 . S
C1321 C1319 1.387 . S
C1321 C1323 1.390 . S
C1321 H1325 0.950 . S
H1322 C1318 0.950 . S
C1323 C1321 1.390 . S
C1323 C1324 1.387 . S
C1323 H1326 0.950 . S
C1324 C1323 1.387 . S
C1324 C1327 1.387 . S
H1325 C1321 0.950 . S
H1326 C1323 0.950 . S
C1327 C1318 1.390 . S
C1327 H1320 0.950 . S
C1327 C1324 1.387 . S
C1328 C1329 1.387 . S
C1328 H1332 0.950 . S
C1328 C1337 1.390 1_565 S
C1329 C1328 1.387 . S
C1329 C1331 1.387 . S
H1330 C1337 0.950 . S
C1331 C1329 1.387 . S
C1331 C1333 1.390 1_565 S
C1331 H1335 0.950 . S
H1332 C1328 0.950 . S
C1333 C1331 1.390 1_545 S
C1333 C1334 1.387 . S
C1333 H1336 0.950 . S
C1334 C1333 1.387 . S
C1334 C1337 1.387 . S
H1335 C1331 0.950 . S
H1336 C1333 0.950 . S
C1337 C1328 1.390 1_545 S
C1337 H1330 0.950 . S
C1337 C1334 1.387 . S
C1338 C1339 1.387 . S
C1338 H1342 0.950 . S
C1338 C1347 1.390 1_565 S
C1339 C1338 1.387 . S
C1339 C1341 1.387 . S
H1340 C1347 0.950 . S
C1341 C1339 1.387 . S
C1341 C1343 1.390 1_565 S
C1341 H1345 0.950 . S
H1342 C1338 0.950 . S
C1343 C1341 1.390 1_545 S
C1343 C1344 1.387 . S
C1343 H1346 0.950 . S
C1344 C1343 1.387 . S
C1344 C1347 1.387 . S
H1345 C1341 0.950 . S
H1346 C1343 0.950 . S
C1347 C1338 1.390 1_545 S
C1347 H1340 0.950 . S
C1347 C1344 1.387 . S
C1348 C1349 1.387 . S
C1348 H1352 0.950 . S
C1348 C1357 1.390 . S
C1349 C1348 1.387 . S
C1349 C1351 1.387 1_455 S
H1350 C1357 0.950 . S
C1351 C1349 1.387 1_655 S
C1351 C1353 1.390 . S
C1351 H1355 0.950 . S
H1352 C1348 0.950 . S
C1353 C1351 1.390 . S
C1353 C1354 1.387 . S
C1353 H1356 0.950 . S
C1354 C1353 1.387 . S
C1354 C1357 1.387 1_655 S
H1355 C1351 0.950 . S
H1356 C1353 0.950 . S
C1357 C1348 1.390 . S
C1357 H1350 0.950 . S
C1357 C1354 1.387 1_455 S
C1358 C1359 1.387 . S
C1358 H1362 0.950 . S
C1358 C1367 1.390 . S
C1359 C1358 1.387 . S
C1359 C1361 1.387 . S
H1360 C1367 0.950 . S
C1361 C1359 1.387 . S
C1361 C1363 1.390 . S
C1361 H1365 0.950 . S
H1362 C1358 0.950 . S
C1363 C1361 1.390 . S
C1363 C1364 1.387 . S
C1363 H1366 0.950 . S
C1364 C1363 1.387 . S
C1364 C1367 1.387 . S
H1365 C1361 0.950 . S
H1366 C1363 0.950 . S
C1367 C1358 1.390 . S
C1367 H1360 0.950 . S
C1367 C1364 1.387 . S
C1368 C1369 1.387 . S
C1368 H1372 0.950 . S
C1368 C1377 1.390 . S
C1369 C1368 1.387 . S
C1369 C1371 1.387 . S
H1370 C1377 0.950 . S
C1371 C1369 1.387 . S
C1371 C1373 1.390 . S
C1371 H1375 0.950 . S
H1372 C1368 0.950 . S
C1373 C1371 1.390 . S
C1373 C1374 1.387 . S
C1373 H1376 0.950 . S
C1374 C1373 1.387 . S
C1374 C1377 1.387 . S
H1375 C1371 0.950 . S
H1376 C1373 0.950 . S
C1377 C1368 1.390 . S
C1377 H1370 0.950 . S
C1377 C1374 1.387 . S
C1378 C1379 1.387 . S
C1378 H1382 0.950 . S
C1378 C1387 1.390 . S
C1379 C1378 1.387 . S
C1379 C1381 1.387 . S
H1380 C1387 0.950 . S
C1381 C1379 1.387 . S
C1381 C1383 1.390 . S
C1381 H1385 0.950 . S
H1382 C1378 0.950 . S
C1383 C1381 1.390 . S
C1383 C1384 1.387 . S
C1383 H1386 0.950 . S
C1384 C1383 1.387 . S
C1384 C1387 1.387 . S
H1385 C1381 0.950 . S
H1386 C1383 0.950 . S
C1387 C1378 1.390 . S
C1387 H1380 0.950 . S
C1387 C1384 1.387 . S
C1388 C1389 1.387 . S
C1388 H1392 0.950 . S
C1388 C1397 1.390 . S
C1389 C1388 1.387 . S
C1389 C1391 1.387 . S
H1390 C1397 0.950 . S
C1391 C1389 1.387 . S
C1391 C1393 1.390 . S
C1391 H1395 0.950 . S
H1392 C1388 0.950 . S
C1393 C1391 1.390 . S
C1393 C1394 1.387 . S
C1393 H1396 0.950 . S
C1394 C1393 1.387 . S
C1394 C1397 1.387 . S
H1395 C1391 0.950 . S
H1396 C1393 0.950 . S
C1397 C1388 1.390 . S
C1397 H1390 0.950 . S
C1397 C1394 1.387 . S
C1398 C1399 1.387 . S
C1398 H1402 0.950 . S
C1398 C1407 1.390 . S
C1399 C1398 1.387 . S
C1399 C1401 1.387 . S
H1400 C1407 0.950 . S
C1401 C1399 1.387 . S
C1401 C1403 1.390 . S
C1401 H1405 0.950 . S
H1402 C1398 0.950 . S
C1403 C1401 1.390 . S
C1403 C1404 1.387 . S
C1403 H1406 0.950 . S
C1404 C1403 1.387 . S
C1404 C1407 1.387 . S
H1405 C1401 0.950 . S
H1406 C1403 0.950 . S
C1407 C1398 1.390 . S
C1407 H1400 0.950 . S
C1407 C1404 1.387 . S
C1408 C1409 1.387 . S
C1408 H1412 0.950 . S
C1408 C1417 1.390 . S
C1409 C1408 1.387 . S
C1409 C1411 1.387 . S
H1410 C1417 0.950 . S
C1411 C1409 1.387 . S
C1411 C1413 1.390 . S
C1411 H1415 0.950 . S
H1412 C1408 0.950 . S
C1413 C1411 1.390 . S
C1413 C1414 1.387 . S
C1413 H1416 0.950 . S
C1414 C1413 1.387 . S
C1414 C1417 1.387 . S
H1415 C1411 0.950 . S
H1416 C1413 0.950 . S
C1417 C1408 1.390 . S
C1417 H1410 0.950 . S
C1417 C1414 1.387 . S
C1418 C1419 1.387 . S
C1418 H1422 0.950 1_455 S
C1418 C1427 1.390 . S
C1419 C1418 1.387 . S
C1419 C1421 1.387 . S
H1420 C1427 0.950 . S
C1421 C1419 1.387 . S
C1421 C1423 1.390 . S
C1421 H1425 0.950 . S
H1422 C1418 0.950 1_655 S
C1423 C1421 1.390 . S
C1423 C1424 1.387 . S
C1423 H1426 0.950 . S
C1424 C1423 1.387 . S
C1424 C1427 1.387 . S
H1425 C1421 0.950 . S
H1426 C1423 0.950 . S
C1427 C1418 1.390 . S
C1427 H1420 0.950 . S
C1427 C1424 1.387 . S
C1428 C1429 1.387 . S
C1428 H1432 0.950 . S
C1428 C1437 1.390 . S
C1429 C1428 1.387 . S
C1429 C1431 1.387 . S
H1430 C1437 0.950 . S
C1431 C1429 1.387 . S
C1431 C1433 1.390 . S
C1431 H1435 0.950 . S
H1432 C1428 0.950 . S
C1433 C1431 1.390 . S
C1433 C1434 1.387 . S
C1433 H1436 0.950 . S
C1434 C1433 1.387 . S
C1434 C1437 1.387 . S
H1435 C1431 0.950 . S
H1436 C1433 0.950 . S
C1437 C1428 1.390 . S
C1437 H1430 0.950 . S
C1437 C1434 1.387 . S
C1438 C1439 1.387 . S
C1438 H1442 0.950 . S
C1438 C1447 1.390 . S
C1439 C1438 1.387 . S
C1439 C1441 1.387 . S
H1440 C1447 0.950 . S
C1441 C1439 1.387 . S
C1441 C1443 1.390 . S
C1441 H1445 0.950 . S
H1442 C1438 0.950 . S
C1443 C1441 1.390 . S
C1443 C1444 1.387 . S
C1443 H1446 0.950 . S
C1444 C1443 1.387 . S
C1444 C1447 1.387 . S
H1445 C1441 0.950 . S
H1446 C1443 0.950 . S
C1447 C1438 1.390 . S
C1447 H1440 0.950 . S
C1447 C1444 1.387 . S
C1448 C1449 1.387 . S
C1448 H1452 0.950 . S
C1448 C1457 1.390 . S
C1449 C1448 1.387 . S
C1449 C1451 1.387 . S
H1450 C1457 0.950 . S
C1451 C1449 1.387 . S
C1451 C1453 1.390 . S
C1451 H1455 0.950 . S
H1452 C1448 0.950 . S
C1453 C1451 1.390 . S
C1453 C1454 1.387 . S
C1453 H1456 0.950 . S
C1454 C1453 1.387 . S
C1454 C1457 1.387 . S
H1455 C1451 0.950 . S
H1456 C1453 0.950 . S
C1457 C1448 1.390 . S
C1457 H1450 0.950 . S
C1457 C1454 1.387 . S
C1458 C1459 1.387 . S
C1458 H1462 0.950 . S
C1458 C1467 1.390 . S
C1459 C1458 1.387 . S
C1459 C1461 1.387 . S
H1460 C1467 0.950 . S
C1461 C1459 1.387 . S
C1461 C1463 1.390 . S
C1461 H1465 0.950 . S
H1462 C1458 0.950 . S
C1463 C1461 1.390 . S
C1463 C1464 1.387 . S
C1463 H1466 0.950 . S
C1464 C1463 1.387 . S
C1464 C1467 1.387 . S
H1465 C1461 0.950 . S
H1466 C1463 0.950 . S
C1467 C1458 1.390 . S
C1467 H1460 0.950 . S
C1467 C1464 1.387 . S
C1468 C1469 1.387 . S
C1468 H1472 0.950 . S
C1468 C1477 1.390 . S
C1469 C1468 1.387 . S
C1469 C1471 1.387 . S
H1470 C1477 0.950 . S
C1471 C1469 1.387 . S
C1471 C1473 1.390 . S
C1471 H1475 0.950 . S
H1472 C1468 0.950 . S
C1473 C1471 1.390 . S
C1473 C1474 1.387 . S
C1473 H1476 0.950 . S
C1474 C1473 1.387 . S
C1474 C1477 1.387 . S
H1475 C1471 0.950 . S
H1476 C1473 0.950 . S
C1477 C1468 1.390 . S
C1477 H1470 0.950 . S
C1477 C1474 1.387 . S
C1478 C1479 1.387 . S
C1478 H1482 0.950 1_655 S
C1478 C1487 1.390 . S
C1479 C1478 1.387 . S
C1479 C1481 1.387 . S
H1480 C1487 0.950 . S
C1481 C1479 1.387 . S
C1481 C1483 1.390 . S
C1481 H1485 0.950 . S
H1482 C1478 0.950 1_455 S
C1483 C1481 1.390 . S
C1483 C1484 1.387 . S
C1483 H1486 0.950 . S
C1484 C1483 1.387 . S
C1484 C1487 1.387 . S
H1485 C1481 0.950 . S
H1486 C1483 0.950 . S
C1487 C1478 1.390 . S
C1487 H1480 0.950 . S
C1487 C1484 1.387 . S
C1488 C1489 1.387 . S
C1488 H1492 0.950 . S
C1488 C1497 1.390 1_655 S
C1489 C1488 1.387 . S
C1489 C1491 1.387 . S
H1490 C1497 0.950 . S
C1491 C1489 1.387 . S
C1491 C1493 1.390 1_655 S
C1491 H1495 0.950 . S
H1492 C1488 0.950 . S
C1493 C1491 1.390 1_455 S
C1493 C1494 1.387 . S
C1493 H1496 0.950 . S
C1494 C1493 1.387 . S
C1494 C1497 1.387 . S
H1495 C1491 0.950 . S
H1496 C1493 0.950 . S
C1497 C1488 1.390 1_455 S
C1497 H1490 0.950 . S
C1497 C1494 1.387 . S
C1498 C1499 1.387 . S
C1498 H1502 0.950 . S
C1498 C1507 1.390 . S
C1499 C1498 1.387 . S
C1499 C1501 1.387 . S
H1500 C1507 0.950 . S
C1501 C1499 1.387 . S
C1501 C1503 1.390 . S
C1501 H1505 0.950 . S
H1502 C1498 0.950 . S
C1503 C1501 1.390 . S
C1503 C1504 1.387 . S
C1503 H1506 0.950 . S
C1504 C1503 1.387 . S
C1504 C1507 1.387 . S
H1505 C1501 0.950 . S
H1506 C1503 0.950 . S
C1507 C1498 1.390 . S
C1507 H1500 0.950 . S
C1507 C1504 1.387 . S
C1508 C1509 1.387 . S
C1508 H1512 0.950 . S
C1508 C1517 1.390 1_545 S
C1509 C1508 1.387 . S
C1509 C1511 1.387 . S
H1510 C1517 0.950 . S
C1511 C1509 1.387 . S
C1511 C1513 1.390 1_545 S
C1511 H1515 0.950 . S
H1512 C1508 0.950 . S
C1513 C1511 1.390 1_565 S
C1513 C1514 1.387 . S
C1513 H1516 0.950 . S
C1514 C1513 1.387 . S
C1514 C1517 1.387 . S
H1515 C1511 0.950 . S
H1516 C1513 0.950 . S
C1517 C1508 1.390 1_565 S
C1517 H1510 0.950 . S
C1517 C1514 1.387 . S
C1518 C1519 1.387 . S
C1518 H1522 0.950 . S
C1518 C1527 1.390 1_545 S
C1519 C1518 1.387 . S
C1519 C1521 1.387 . S
H1520 C1527 0.950 . S
C1521 C1519 1.387 . S
C1521 C1523 1.390 1_545 S
C1521 H1525 0.950 . S
H1522 C1518 0.950 . S
C1523 C1521 1.390 1_565 S
C1523 C1524 1.387 . S
C1523 H1526 0.950 . S
C1524 C1523 1.387 . S
C1524 C1527 1.387 . S
H1525 C1521 0.950 . S
H1526 C1523 0.950 . S
C1527 C1518 1.390 1_565 S
C1527 H1520 0.950 . S
C1527 C1524 1.387 . S
C1528 C1529 1.387 . S
C1528 H1532 0.950 . S
C1528 C1537 1.390 1_455 S
C1529 C1528 1.387 . S
C1529 C1531 1.387 . S
H1530 C1537 0.950 . S
C1531 C1529 1.387 . S
C1531 C1533 1.390 1_455 S
C1531 H1535 0.950 . S
H1532 C1528 0.950 . S
C1533 C1531 1.390 1_655 S
C1533 C1534 1.387 . S
C1533 H1536 0.950 . S
C1534 C1533 1.387 . S
C1534 C1537 1.387 . S
H1535 C1531 0.950 . S
H1536 C1533 0.950 . S
C1537 C1528 1.390 1_655 S
C1537 H1530 0.950 . S
C1537 C1534 1.387 . S
C1538 C1539 1.387 . S
C1538 H1542 0.950 . S
C1538 C1547 1.390 . S
C1539 C1538 1.387 . S
C1539 C1541 1.387 . S
H1540 C1547 0.950 . S
C1541 C1539 1.387 . S
C1541 C1543 1.390 . S
C1541 H1545 0.950 . S
H1542 C1538 0.950 . S
C1543 C1541 1.390 . S
C1543 C1544 1.387 . S
C1543 H1546 0.950 . S
C1544 C1543 1.387 . S
C1544 C1547 1.387 . S
H1545 C1541 0.950 . S
H1546 C1543 0.950 . S
C1547 C1538 1.390 . S
C1547 H1540 0.950 . S
C1547 C1544 1.387 . S
C1548 C1549 1.387 . S
C1548 H1552 0.950 . S
C1548 C1557 1.390 . S
C1549 C1548 1.387 . S
C1549 C1551 1.387 . S
H1550 C1557 0.950 . S
C1551 C1549 1.387 . S
C1551 C1553 1.390 . S
C1551 H1555 0.950 . S
H1552 C1548 0.950 . S
C1553 C1551 1.390 . S
C1553 C1554 1.387 . S
C1553 H1556 0.950 . S
C1554 C1553 1.387 . S
C1554 C1557 1.387 . S
H1555 C1551 0.950 . S
H1556 C1553 0.950 . S
C1557 C1548 1.390 . S
C1557 H1550 0.950 . S
C1557 C1554 1.387 . S
C1558 C1559 1.387 . S
C1558 H1562 0.950 . S
C1558 C1567 1.390 . S
C1559 C1558 1.387 . S
C1559 C1561 1.387 . S
H1560 C1567 0.950 . S
C1561 C1559 1.387 . S
C1561 C1563 1.390 . S
C1561 H1565 0.950 . S
H1562 C1558 0.950 . S
C1563 C1561 1.390 . S
C1563 C1564 1.387 . S
C1563 H1566 0.950 . S
C1564 C1563 1.387 . S
C1564 C1567 1.387 . S
H1565 C1561 0.950 . S
H1566 C1563 0.950 . S
C1567 C1558 1.390 . S
C1567 H1560 0.950 . S
C1567 C1564 1.387 . S
C1568 C1569 1.387 . S
C1568 H1572 0.950 . S
C1568 C1577 1.390 . S
C1569 C1568 1.387 . S
C1569 C1571 1.387 . S
H1570 C1577 0.950 . S
C1571 C1569 1.387 . S
C1571 C1573 1.390 . S
C1571 H1575 0.950 . S
H1572 C1568 0.950 . S
C1573 C1571 1.390 . S
C1573 C1574 1.387 . S
C1573 H1576 0.950 . S
C1574 C1573 1.387 . S
C1574 C1577 1.387 . S
H1575 C1571 0.950 . S
H1576 C1573 0.950 . S
C1577 C1568 1.390 . S
C1577 H1570 0.950 . S
C1577 C1574 1.387 . S
C1578 C1579 1.387 . S
C1578 H1582 0.950 . S
C1578 C1587 1.390 . S
C1579 C1578 1.387 . S
C1579 C1581 1.387 . S
H1580 C1587 0.950 . S
C1581 C1579 1.387 . S
C1581 C1583 1.390 . S
C1581 H1585 0.950 . S
H1582 C1578 0.950 . S
C1583 C1581 1.390 . S
C1583 C1584 1.387 . S
C1583 H1586 0.950 . S
C1584 C1583 1.387 . S
C1584 C1587 1.387 . S
H1585 C1581 0.950 . S
H1586 C1583 0.950 . S
C1587 C1578 1.390 . S
C1587 H1580 0.950 . S
C1587 C1584 1.387 . S
C1588 C1589 1.387 . S
C1588 H1592 0.950 . S
C1588 C1597 1.390 . S
C1589 C1588 1.387 . S
C1589 C1591 1.387 . S
H1590 C1597 0.950 . S
C1591 C1589 1.387 . S
C1591 C1593 1.390 . S
C1591 H1595 0.950 . S
H1592 C1588 0.950 . S
C1593 C1591 1.390 . S
C1593 C1594 1.387 . S
C1593 H1596 0.950 . S
C1594 C1593 1.387 . S
C1594 C1597 1.387 . S
H1595 C1591 0.950 . S
H1596 C1593 0.950 . S
C1597 C1588 1.390 . S
C1597 H1590 0.950 . S
C1597 C1594 1.387 . S
C1598 C1599 1.387 . S
C1598 H1602 0.950 . S
C1598 C1607 1.390 . S
C1599 C1598 1.387 . S
C1599 C1601 1.387 . S
H1600 C1607 0.950 . S
C1601 C1599 1.387 . S
C1601 C1603 1.390 . S
C1601 H1605 0.950 . S
H1602 C1598 0.950 . S
C1603 C1601 1.390 . S
C1603 C1604 1.387 . S
C1603 H1606 0.950 . S
C1604 C1603 1.387 . S
C1604 C1607 1.387 . S
H1605 C1601 0.950 . S
H1606 C1603 0.950 . S
C1607 C1598 1.390 . S
C1607 H1600 0.950 . S
C1607 C1604 1.387 . S
C1608 C1609 1.387 . S
C1608 H1612 0.950 . S
C1608 C1617 1.390 . S
C1609 C1608 1.387 . S
C1609 C1611 1.387 . S
H1610 C1617 0.950 . S
C1611 C1609 1.387 . S
C1611 C1613 1.390 . S
C1611 H1615 0.950 . S
H1612 C1608 0.950 . S
C1613 C1611 1.390 . S
C1613 C1614 1.387 . S
C1613 H1616 0.950 . S
C1614 C1613 1.387 . S
C1614 C1617 1.387 . S
H1615 C1611 0.950 . S
H1616 C1613 0.950 . S
C1617 C1608 1.390 . S
C1617 H1610 0.950 . S
C1617 C1614 1.387 . S
C1618 C1619 1.387 . S
C1618 H1622 0.950 . S
C1618 C1627 1.390 . S
C1619 C1618 1.387 . S
C1619 C1621 1.387 . S
H1620 C1627 0.950 . S
C1621 C1619 1.387 . S
C1621 C1623 1.390 . S
C1621 H1625 0.950 . S
H1622 C1618 0.950 . S
C1623 C1621 1.390 . S
C1623 C1624 1.387 . S
C1623 H1626 0.950 . S
C1624 C1623 1.387 . S
C1624 C1627 1.387 . S
H1625 C1621 0.950 . S
H1626 C1623 0.950 . S
C1627 C1618 1.390 . S
C1627 H1620 0.950 . S
C1627 C1624 1.387 . S
C1628 C1629 1.387 . S
C1628 H1632 0.950 . S
C1628 C1637 1.390 . S
C1629 C1628 1.387 . S
C1629 C1631 1.387 . S
H1630 C1637 0.950 . S
C1631 C1629 1.387 . S
C1631 C1633 1.390 . S
C1631 H1635 0.950 . S
H1632 C1628 0.950 . S
C1633 C1631 1.390 . S
C1633 C1634 1.387 . S
C1633 H1636 0.950 . S
C1634 C1633 1.387 . S
C1634 C1637 1.387 . S
H1635 C1631 0.950 . S
H1636 C1633 0.950 . S
C1637 C1628 1.390 . S
C1637 H1630 0.950 . S
C1637 C1634 1.387 . S
C1638 C1639 1.387 . S
C1638 H1642 0.950 . S
C1638 C1647 1.390 . S
C1639 C1638 1.387 . S
C1639 C1641 1.387 . S
H1640 C1647 0.950 . S
C1641 C1639 1.387 . S
C1641 C1643 1.390 . S
C1641 H1645 0.950 . S
H1642 C1638 0.950 . S
C1643 C1641 1.390 . S
C1643 C1644 1.387 . S
C1643 H1646 0.950 . S
C1644 C1643 1.387 . S
C1644 C1647 1.387 . S
H1645 C1641 0.950 . S
H1646 C1643 0.950 . S
C1647 C1638 1.390 . S
C1647 H1640 0.950 . S
C1647 C1644 1.387 . S
C1648 C1649 1.387 . S
C1648 H1652 0.950 . S
C1648 C1657 1.390 . S
C1649 C1648 1.387 . S
C1649 C1651 1.387 . S
H1650 C1657 0.950 . S
C1651 C1649 1.387 . S
C1651 C1653 1.390 . S
C1651 H1655 0.950 . S
H1652 C1648 0.950 . S
C1653 C1651 1.390 . S
C1653 C1654 1.387 . S
C1653 H1656 0.950 . S
C1654 C1653 1.387 . S
C1654 C1657 1.387 . S
H1655 C1651 0.950 . S
H1656 C1653 0.950 . S
C1657 C1648 1.390 . S
C1657 H1650 0.950 . S
C1657 C1654 1.387 . S
C1658 C1659 1.387 . S
C1658 H1662 0.950 . S
C1658 C1667 1.390 . S
C1659 C1658 1.387 . S
C1659 C1661 1.387 . S
H1660 C1667 0.950 . S
C1661 C1659 1.387 . S
C1661 C1663 1.390 . S
C1661 H1665 0.950 . S
H1662 C1658 0.950 . S
C1663 C1661 1.390 . S
C1663 C1664 1.387 . S
C1663 H1666 0.950 . S
C1664 C1663 1.387 . S
C1664 C1667 1.387 . S
H1665 C1661 0.950 . S
H1666 C1663 0.950 . S
C1667 C1658 1.390 . S
C1667 H1660 0.950 . S
C1667 C1664 1.387 . S
C1668 C1669 1.387 1_655 S
C1668 H1672 0.950 . S
C1668 C1677 1.390 . S
C1669 C1668 1.387 1_455 S
C1669 C1671 1.387 . S
H1670 C1677 0.950 . S
C1671 C1669 1.387 . S
C1671 C1673 1.390 . S
C1671 H1675 0.950 . S
H1672 C1668 0.950 . S
C1673 C1671 1.390 . S
C1673 C1674 1.387 1_455 S
C1673 H1676 0.950 . S
C1674 C1673 1.387 1_655 S
C1674 C1677 1.387 . S
H1675 C1671 0.950 . S
H1676 C1673 0.950 . S
C1677 C1668 1.390 . S
C1677 H1670 0.950 . S
C1677 C1674 1.387 . S
C1678 C1679 1.387 . S
C1678 H1682 0.950 . S
C1678 C1687 1.390 . S
C1679 C1678 1.387 . S
C1679 C1681 1.387 . S
H1680 C1687 0.950 . S
C1681 C1679 1.387 . S
C1681 C1683 1.390 . S
C1681 H1685 0.950 . S
H1682 C1678 0.950 . S
C1683 C1681 1.390 . S
C1683 C1684 1.387 . S
C1683 H1686 0.950 . S
C1684 C1683 1.387 . S
C1684 C1687 1.387 . S
H1685 C1681 0.950 . S
H1686 C1683 0.950 . S
C1687 C1678 1.390 . S
C1687 H1680 0.950 . S
C1687 C1684 1.387 . S
C1688 C1689 1.387 1_565 S
C1688 H1692 0.950 . S
C1688 C1697 1.390 . S
C1689 C1688 1.387 1_545 S
C1689 C1691 1.387 . S
H1690 C1697 0.950 . S
C1691 C1689 1.387 . S
C1691 C1693 1.390 . S
C1691 H1695 0.950 . S
H1692 C1688 0.950 . S
C1693 C1691 1.390 . S
C1693 C1694 1.387 1_545 S
C1693 H1696 0.950 . S
C1694 C1693 1.387 1_565 S
C1694 C1697 1.387 . S
H1695 C1691 0.950 . S
H1696 C1693 0.950 . S
C1697 C1688 1.390 . S
C1697 H1690 0.950 . S
C1697 C1694 1.387 . S
C1698 C1699 1.387 1_545 S
C1698 H1702 0.950 . S
C1698 C1707 1.390 1_554 S
C1699 C1698 1.387 1_565 S
C1699 C1701 1.387 . S
H1700 C1707 0.950 . S
C1701 C1699 1.387 . S
C1701 C1703 1.390 1_554 S
C1701 H1705 0.950 . S
H1702 C1698 0.950 . S
C1703 C1701 1.390 1_556 S
C1703 C1704 1.387 1_565 S
C1703 H1706 0.950 . S
C1704 C1703 1.387 1_545 S
C1704 C1707 1.387 . S
H1705 C1701 0.950 . S
H1706 C1703 0.950 . S
C1707 C1698 1.390 1_556 S
C1707 H1700 0.950 . S
C1707 C1704 1.387 . S
C1708 C1709 1.387 1_455 S
C1708 H1712 0.950 . S
C1708 C1717 1.390 1_556 S
C1709 C1708 1.387 1_655 S
C1709 C1711 1.387 . S
H1710 C1717 0.950 . S
C1711 C1709 1.387 . S
C1711 C1713 1.390 1_556 S
C1711 H1715 0.950 . S
H1712 C1708 0.950 . S
C1713 C1711 1.390 1_554 S
C1713 C1714 1.387 1_655 S
C1713 H1716 0.950 . S
C1714 C1713 1.387 1_455 S
C1714 C1717 1.387 . S
H1715 C1711 0.950 . S
H1716 C1713 0.950 . S
C1717 C1708 1.390 1_554 S
C1717 H1710 0.950 . S
C1717 C1714 1.387 . S
C1718 C1719 1.387 . S
C1718 H1722 0.950 . S
C1718 C1727 1.390 1_554 S
C1719 C1718 1.387 . S
C1719 C1721 1.387 . S
H1720 C1727 0.950 . S
C1721 C1719 1.387 . S
C1721 C1723 1.390 1_554 S
C1721 H1725 0.950 . S
H1722 C1718 0.950 . S
C1723 C1721 1.390 1_556 S
C1723 C1724 1.387 . S
C1723 H1726 0.950 . S
C1724 C1723 1.387 . S
C1724 C1727 1.387 . S
H1725 C1721 0.950 . S
H1726 C1723 0.950 . S
C1727 C1718 1.390 1_556 S
C1727 H1720 0.950 . S
C1727 C1724 1.387 . S
C1728 C1729 1.387 . S
C1728 H1732 0.950 . S
C1728 C1737 1.390 1_554 S
C1729 C1728 1.387 . S
C1729 C1731 1.387 1_554 S
H1730 C1737 0.950 1_554 S
C1731 C1729 1.387 1_556 S
C1731 C1733 1.390 . S
C1731 H1735 0.950 . S
H1732 C1728 0.950 . S
C1733 C1731 1.390 . S
C1733 C1734 1.387 . S
C1733 H1736 0.950 . S
C1734 C1733 1.387 . S
C1734 C1737 1.387 . S
H1735 C1731 0.950 . S
H1736 C1733 0.950 . S
C1737 C1728 1.390 1_556 S
C1737 H1730 0.950 1_556 S
C1737 C1734 1.387 . S
C1738 C1739 1.387 1_556 S
C1738 H1742 0.950 . S
C1738 C1747 1.390 . S
C1739 C1738 1.387 1_554 S
C1739 C1741 1.387 . S
H1740 C1747 0.950 . S
C1741 C1739 1.387 . S
C1741 C1743 1.390 1_554 S
C1741 H1745 0.950 . S
H1742 C1738 0.950 . S
C1743 C1741 1.390 1_556 S
C1743 C1744 1.387 . S
C1743 H1746 0.941 1_656 S
C1744 C1743 1.387 . S
C1744 C1747 1.387 . S
H1745 C1741 0.950 . S
H1746 C1743 0.941 1_454 S
C1747 C1738 1.390 . S
C1747 H1740 0.950 . S
C1747 C1744 1.387 . S
C1748 C1749 1.387 . S
C1748 H1752 0.950 . S
C1748 C1757 1.390 . S
C1749 C1748 1.387 . S
C1749 C1751 1.387 1_556 S
H1750 C1757 0.950 . S
C1751 C1749 1.387 1_554 S
C1751 C1753 1.390 . S
C1751 H1755 0.950 . S
H1752 C1748 0.950 . S
C1753 C1751 1.390 . S
C1753 C1754 1.387 . S
C1753 H1756 0.950 . S
C1754 C1753 1.387 . S
C1754 C1757 1.387 1_554 S
H1755 C1751 0.950 . S
H1756 C1753 0.950 . S
C1757 C1748 1.390 . S
C1757 H1750 0.950 . S
C1757 C1754 1.387 1_556 S
C1758 C1759 1.387 . S
C1758 H1762 0.950 . S
C1758 C1767 1.390 . S
C1759 C1758 1.387 . S
C1759 C1761 1.387 . S
H1760 C1767 0.950 . S
C1761 C1759 1.387 . S
C1761 C1763 1.390 . S
C1761 H1765 0.950 1_455 S
H1762 C1758 0.950 . S
C1763 C1761 1.390 . S
C1763 C1764 1.387 . S
C1763 H1766 0.950 . S
C1764 C1763 1.387 . S
C1764 C1767 1.387 . S
H1765 C1761 0.950 1_655 S
H1766 C1763 0.950 . S
C1767 C1758 1.390 . S
C1767 H1760 0.950 . S
C1767 C1764 1.387 . S
C1768 C1769 1.387 . S
C1768 H1772 0.950 . S
C1768 C1777 1.390 . S
C1769 C1768 1.387 . S
C1769 C1771 1.387 . S
H1770 C1777 0.950 . S
C1771 C1769 1.387 . S
C1771 C1773 1.390 . S
C1771 H1775 0.950 . S
H1772 C1768 0.950 . S
C1773 C1771 1.390 . S
C1773 C1774 1.387 . S
C1773 H1776 0.950 . S
C1774 C1773 1.387 . S
C1774 C1777 1.387 . S
H1775 C1771 0.950 . S
H1776 C1773 0.950 . S
C1777 C1768 1.390 . S
C1777 H1770 0.950 . S
C1777 C1774 1.387 . S
C1778 C1779 1.387 . S
C1778 H1782 0.950 . S
C1778 C1787 1.390 . S
C1779 C1778 1.387 . S
C1779 C1781 1.387 . S
H1780 C1787 0.950 . S
C1781 C1779 1.387 . S
C1781 C1783 1.390 . S
C1781 H1785 0.950 . S
H1782 C1778 0.950 . S
C1783 C1781 1.390 . S
C1783 C1784 1.387 . S
C1783 H1786 0.950 . S
C1784 C1783 1.387 . S
C1784 C1787 1.387 . S
H1785 C1781 0.950 . S
H1786 C1783 0.950 . S
C1787 C1778 1.390 . S
C1787 H1780 0.950 . S
C1787 C1784 1.387 . S
C1788 C1789 1.387 1_556 S
C1788 H1792 0.950 1_565 S
C1788 C1797 1.390 . S
C1789 C1788 1.387 1_554 S
C1789 C1791 1.387 . S
H1790 C1797 0.950 . S
C1791 C1789 1.387 . S
C1791 C1793 1.390 . S
C1791 H1795 0.950 . S
H1792 C1788 0.950 1_545 S
C1793 C1791 1.390 . S
C1793 C1794 1.387 1_554 S
C1793 H1796 0.950 . S
C1794 C1793 1.387 1_556 S
C1794 C1797 1.387 . S
H1795 C1791 0.950 . S
H1796 C1793 0.950 . S
C1797 C1788 1.390 . S
C1797 H1790 0.950 . S
C1797 C1794 1.387 . S
C1798 C1799 1.387 . S
C1798 H1802 0.950 . S
C1798 C1807 1.390 . S
C1799 C1798 1.387 . S
C1799 C1801 1.387 1_554 S
H1800 C1807 0.950 . S
C1801 C1799 1.387 1_556 S
C1801 C1803 1.390 . S
C1801 H1805 0.950 1_455 S
H1802 C1798 0.950 . S
C1803 C1801 1.390 . S
C1803 C1804 1.387 . S
C1803 H1806 0.950 . S
C1804 C1803 1.387 . S
C1804 C1807 1.387 1_556 S
H1805 C1801 0.950 1_655 S
H1806 C1803 0.950 . S
C1807 C1798 1.390 . S
C1807 H1800 0.950 . S
C1807 C1804 1.387 1_554 S
C1808 C1809 1.387 1_556 S
C1808 H1812 0.950 . S
C1808 C1817 1.390 . S
C1809 C1808 1.387 1_554 S
C1809 C1811 1.387 . S
H1810 C1817 0.950 . S
C1811 C1809 1.387 . S
C1811 C1813 1.390 . S
C1811 H1815 0.950 . S
H1812 C1808 0.950 . S
C1813 C1811 1.390 . S
C1813 C1814 1.387 1_554 S
C1813 H1816 0.950 . S
C1814 C1813 1.387 1_556 S
C1814 C1817 1.387 . S
H1815 C1811 0.950 . S
H1816 C1813 0.950 . S
C1817 C1808 1.390 . S
C1817 H1810 0.950 . S
C1817 C1814 1.387 . S
C1818 C1819 1.387 . S
C1818 H1822 0.950 . S
C1818 C1827 1.390 . S
C1819 C1818 1.387 . S
C1819 C1821 1.387 . S
H1820 C1827 0.950 . S
C1821 C1819 1.387 . S
C1821 C1823 1.390 . S
C1821 H1825 0.950 . S
H1822 C1818 0.950 . S
C1823 C1821 1.390 . S
C1823 C1824 1.387 . S
C1823 H1826 0.950 . S
C1824 C1823 1.387 . S
C1824 C1827 1.387 . S
H1825 C1821 0.950 . S
H1826 C1823 0.950 . S
C1827 C1818 1.390 . S
C1827 H1820 0.950 . S
C1827 C1824 1.387 . S
C1828 C1829 1.387 . S
C1828 H1832 0.950 . S
C1828 C1837 1.390 . S
C1829 C1828 1.387 . S
C1829 C1831 1.387 . S
H1830 C1837 0.950 . S
C1831 C1829 1.387 . S
C1831 C1833 1.390 . S
C1831 H1835 0.950 . S
H1832 C1828 0.950 . S
C1833 C1831 1.390 . S
C1833 C1834 1.387 . S
C1833 H1836 0.950 . S
C1834 C1833 1.387 . S
C1834 C1837 1.387 . S
H1835 C1831 0.950 . S
H1836 C1833 0.950 . S
C1837 C1828 1.390 . S
C1837 H1830 0.950 . S
C1837 C1834 1.387 . S
C1838 C1839 1.387 . S
C1838 H1842 0.950 . S
C1838 C1847 1.390 . S
C1839 C1838 1.387 . S
C1839 C1841 1.387 . S
H1840 C1847 0.950 . S
C1841 C1839 1.387 . S
C1841 C1843 1.390 . S
C1841 H1845 0.950 . S
H1842 C1838 0.950 . S
C1843 C1841 1.390 . S
C1843 C1844 1.387 . S
C1843 H1846 0.950 . S
C1844 C1843 1.387 . S
C1844 C1847 1.387 . S
H1845 C1841 0.950 . S
H1846 C1843 0.950 . S
C1847 C1838 1.390 . S
C1847 H1840 0.950 . S
C1847 C1844 1.387 . S
C1848 C1849 1.387 . S
C1848 H1852 0.950 . S
C1848 C1857 1.390 . S
C1849 C1848 1.387 . S
C1849 C1851 1.387 . S
H1850 C1857 0.950 . S
C1851 C1849 1.387 . S
C1851 C1853 1.390 . S
C1851 H1855 0.950 . S
H1852 C1848 0.950 . S
C1853 C1851 1.390 . S
C1853 C1854 1.387 . S
C1853 H1856 0.950 . S
C1854 C1853 1.387 . S
C1854 C1857 1.387 . S
H1855 C1851 0.950 . S
H1856 C1853 0.950 . S
C1857 C1848 1.390 . S
C1857 H1850 0.950 . S
C1857 C1854 1.387 . S
C1858 C1859 1.387 . S
C1858 H1862 0.950 . S
C1858 C1867 1.390 . S
C1859 C1858 1.387 . S
C1859 C1861 1.387 . S
H1860 C1867 0.950 . S
C1861 C1859 1.387 . S
C1861 C1863 1.390 . S
C1861 H1865 0.950 . S
H1862 C1858 0.950 . S
C1863 C1861 1.390 . S
C1863 C1864 1.387 . S
C1863 H1866 0.950 . S
C1864 C1863 1.387 . S
C1864 C1867 1.387 . S
H1865 C1861 0.950 . S
H1866 C1863 0.950 . S
C1867 C1858 1.390 . S
C1867 H1860 0.950 . S
C1867 C1864 1.387 . S
C1868 C1869 1.387 . S
C1868 H1872 0.950 . S
C1868 C1877 1.390 . S
C1869 C1868 1.387 . S
C1869 C1871 1.387 . S
H1870 C1877 0.950 . S
C1871 C1869 1.387 . S
C1871 C1873 1.390 . S
C1871 H1875 0.950 . S
H1872 C1868 0.950 . S
C1873 C1871 1.390 . S
C1873 C1874 1.387 . S
C1873 H1876 0.950 . S
C1874 C1873 1.387 . S
C1874 C1877 1.387 . S
H1875 C1871 0.950 . S
H1876 C1873 0.950 . S
C1877 C1868 1.390 . S
C1877 H1870 0.950 . S
C1877 C1874 1.387 . S
C1878 C1879 1.387 . S
C1878 H1882 0.950 . S
C1878 C1887 1.390 . S
C1879 C1878 1.387 . S
C1879 C1881 1.387 . S
H1880 C1887 0.950 . S
C1881 C1879 1.387 . S
C1881 C1883 1.390 . S
C1881 H1885 0.950 . S
H1882 C1878 0.950 . S
C1883 C1881 1.390 . S
C1883 C1884 1.387 . S
C1883 H1886 0.950 . S
C1884 C1883 1.387 . S
C1884 C1887 1.387 . S
H1885 C1881 0.950 . S
H1886 C1883 0.950 . S
C1887 C1878 1.390 . S
C1887 H1880 0.950 . S
C1887 C1884 1.387 . S
C1888 C1889 1.387 . S
C1888 H1892 0.950 . S
C1888 C1897 1.390 . S
C1889 C1888 1.387 . S
C1889 C1891 1.387 . S
H1890 C1897 0.950 . S
C1891 C1889 1.387 . S
C1891 C1893 1.390 . S
C1891 H1895 0.950 . S
H1892 C1888 0.950 . S
C1893 C1891 1.390 . S
C1893 C1894 1.387 . S
C1893 H1896 0.950 . S
C1894 C1893 1.387 . S
C1894 C1897 1.387 . S
H1895 C1891 0.950 . S
H1896 C1893 0.950 . S
C1897 C1888 1.390 . S
C1897 H1890 0.950 . S
C1897 C1894 1.387 . S
C1898 C1899 1.387 . S
C1898 H1902 0.950 . S
C1898 C1907 1.390 . S
C1899 C1898 1.387 . S
C1899 C1901 1.387 . S
H1900 C1907 0.950 . S
C1901 C1899 1.387 . S
C1901 C1903 1.390 . S
C1901 H1905 0.950 . S
H1902 C1898 0.950 . S
C1903 C1901 1.390 . S
C1903 C1904 1.387 . S
C1903 H1906 0.950 . S
C1904 C1903 1.387 . S
C1904 C1907 1.387 . S
H1905 C1901 0.950 . S
H1906 C1903 0.950 . S
C1907 C1898 1.390 . S
C1907 H1900 0.950 . S
C1907 C1904 1.387 . S
C1908 C1909 1.387 . S
C1908 H1912 0.950 . S
C1908 C1917 1.390 . S
C1909 C1908 1.387 . S
C1909 C1911 1.387 . S
H1910 C1917 0.950 . S
C1911 C1909 1.387 . S
C1911 C1913 1.390 . S
C1911 H1915 0.950 . S
H1912 C1908 0.950 . S
C1913 C1911 1.390 . S
C1913 C1914 1.387 . S
C1913 H1916 0.950 . S
C1914 C1913 1.387 . S
C1914 C1917 1.387 . S
H1915 C1911 0.950 . S
H1916 C1913 0.950 . S
C1917 C1908 1.390 . S
C1917 H1910 0.950 . S
C1917 C1914 1.387 . S
C1918 C1919 1.387 . S
C1918 H1922 0.950 . S
C1918 C1927 1.390 . S
C1919 C1918 1.387 . S
C1919 C1921 1.387 . S
H1920 C1927 0.950 . S
C1921 C1919 1.387 . S
C1921 C1923 1.390 . S
C1921 H1925 0.950 . S
H1922 C1918 0.950 . S
C1923 C1921 1.390 . S
C1923 C1924 1.387 . S
C1923 H1926 0.950 . S
C1924 C1923 1.387 . S
C1924 C1927 1.387 . S
H1925 C1921 0.950 . S
H1926 C1923 0.950 . S
C1927 C1918 1.390 . S
C1927 H1920 0.950 . S
C1927 C1924 1.387 . S
C1928 C1929 1.387 . S
C1928 H1932 0.950 . S
C1928 C1937 1.390 . S
C1929 C1928 1.387 . S
C1929 C1931 1.387 . S
H1930 C1937 0.950 . S
C1931 C1929 1.387 . S
C1931 C1933 1.390 . S
C1931 H1935 0.950 . S
H1932 C1928 0.950 . S
C1933 C1931 1.390 . S
C1933 C1934 1.387 . S
C1933 H1936 0.950 . S
C1934 C1933 1.387 . S
C1934 C1937 1.387 . S
H1935 C1931 0.950 . S
H1936 C1933 0.950 . S
C1937 C1928 1.390 . S
C1937 H1930 0.950 . S
C1937 C1934 1.387 . S
C1938 C1939 1.387 . S
C1938 H1942 0.950 . S
C1938 C1947 1.390 . S
C1939 C1938 1.387 . S
C1939 C1941 1.387 . S
H1940 C1947 0.950 . S
C1941 C1939 1.387 . S
C1941 C1943 1.390 . S
C1941 H1945 0.950 . S
H1942 C1938 0.950 . S
C1943 C1941 1.390 . S
C1943 C1944 1.387 . S
C1943 H1946 0.950 . S
C1944 C1943 1.387 . S
C1944 C1947 1.387 . S
H1945 C1941 0.950 . S
H1946 C1943 0.950 . S
C1947 C1938 1.390 . S
C1947 H1940 0.950 . S
C1947 C1944 1.387 . S
C1948 C1949 1.387 . S
C1948 H1952 0.950 . S
C1948 C1957 1.390 . S
C1949 C1948 1.387 . S
C1949 C1951 1.387 . S
H1950 C1957 0.950 . S
C1951 C1949 1.387 . S
C1951 C1953 1.390 . S
C1951 H1955 0.950 . S
H1952 C1948 0.950 . S
C1953 C1951 1.390 . S
C1953 C1954 1.387 . S
C1953 H1956 0.950 . S
C1954 C1953 1.387 . S
C1954 C1957 1.387 . S
H1955 C1951 0.950 . S
H1956 C1953 0.950 . S
C1957 C1948 1.390 . S
C1957 H1950 0.950 . S
C1957 C1954 1.387 . S
C1958 C1959 1.387 . S
C1958 H1962 0.950 . S
C1958 C1967 1.390 . S
C1959 C1958 1.387 . S
C1959 C1961 1.387 . S
H1960 C1967 0.950 . S
C1961 C1959 1.387 . S
C1961 C1963 1.390 . S
C1961 H1965 0.950 . S
H1962 C1958 0.950 . S
C1963 C1961 1.390 . S
C1963 C1964 1.387 . S
C1963 H1966 0.950 . S
C1964 C1963 1.387 . S
C1964 C1967 1.387 . S
H1965 C1961 0.950 . S
H1966 C1963 0.950 . S
C1967 C1958 1.390 . S
C1967 H1960 0.950 . S
C1967 C1964 1.387 . S
C1968 C1969 1.387 . S
C1968 H1972 0.950 . S
C1968 C1977 1.390 . S
C1969 C1968 1.387 . S
C1969 C1971 1.387 . S
H1970 C1977 0.950 . S
C1971 C1969 1.387 . S
C1971 C1973 1.390 . S
C1971 H1975 0.950 . S
H1972 C1968 0.950 . S
C1973 C1971 1.390 . S
C1973 C1974 1.387 . S
C1973 H1976 0.950 . S
C1974 C1973 1.387 . S
C1974 C1977 1.387 . S
H1975 C1971 0.950 . S
H1976 C1973 0.950 . S
C1977 C1968 1.390 . S
C1977 H1970 0.950 . S
C1977 C1974 1.387 . S
C1978 C1979 1.387 . S
C1978 H1982 0.950 . S
C1978 C1987 1.390 . S
C1979 C1978 1.387 . S
C1979 C1981 1.387 . S
H1980 C1987 0.950 . S
C1981 C1979 1.387 . S
C1981 C1983 1.390 . S
C1981 H1985 0.950 . S
H1982 C1978 0.950 . S
C1983 C1981 1.390 . S
C1983 C1984 1.387 . S
C1983 H1986 0.950 . S
C1984 C1983 1.387 . S
C1984 C1987 1.387 . S
H1985 C1981 0.950 . S
H1986 C1983 0.950 . S
C1987 C1978 1.390 . S
C1987 H1980 0.950 . S
C1987 C1984 1.387 . S
C1988 C1989 1.387 . S
C1988 H1992 0.950 . S
C1988 C1997 1.390 . S
C1989 C1988 1.387 . S
C1989 C1991 1.387 . S
H1990 C1997 0.950 . S
C1991 C1989 1.387 . S
C1991 C1993 1.390 . S
C1991 H1995 0.950 . S
H1992 C1988 0.950 . S
C1993 C1991 1.390 . S
C1993 C1994 1.387 . S
C1993 H1996 0.950 . S
C1994 C1993 1.387 . S
C1994 C1997 1.387 . S
H1995 C1991 0.950 . S
H1996 C1993 0.950 . S
C1997 C1988 1.390 . S
C1997 H1990 0.950 . S
C1997 C1994 1.387 . S
C1998 C1999 1.387 . S
C1998 H2002 0.950 . S
C1998 C2007 1.390 . S
C1999 C1998 1.387 . S
C1999 C2001 1.387 . S
H2000 C2007 0.950 . S
C2001 C1999 1.387 . S
C2001 C2003 1.390 . S
C2001 H2005 0.950 . S
H2002 C1998 0.950 . S
C2003 C2001 1.390 . S
C2003 C2004 1.387 . S
C2003 H2006 0.950 . S
C2004 C2003 1.387 . S
C2004 C2007 1.387 . S
H2005 C2001 0.950 . S
H2006 C2003 0.950 . S
C2007 C1998 1.390 . S
C2007 H2000 0.950 . S
C2007 C2004 1.387 . S
C2008 C2009 1.387 . S
C2008 H2012 0.950 . S
C2008 C2017 1.390 . S
C2009 C2008 1.387 . S
C2009 C2011 1.387 . S
H2010 C2017 0.950 . S
C2011 C2009 1.387 . S
C2011 C2013 1.390 . S
C2011 H2015 0.950 . S
H2012 C2008 0.950 . S
C2013 C2011 1.390 . S
C2013 C2014 1.387 . S
C2013 H2016 0.950 . S
C2014 C2013 1.387 . S
C2014 C2017 1.387 . S
H2015 C2011 0.950 . S
H2016 C2013 0.950 . S
C2017 C2008 1.390 . S
C2017 H2010 0.950 . S
C2017 C2014 1.387 . S
C2018 C2019 1.387 . S
C2018 H2022 0.950 . S
C2018 C2027 1.390 . S
C2019 C2018 1.387 . S
C2019 C2021 1.387 . S
H2020 C2027 0.950 . S
C2021 C2019 1.387 . S
C2021 C2023 1.390 . S
C2021 H2025 0.950 . S
H2022 C2018 0.950 . S
C2023 C2021 1.390 . S
C2023 C2024 1.387 . S
C2023 H2026 0.950 . S
C2024 C2023 1.387 . S
C2024 C2027 1.387 . S
H2025 C2021 0.950 . S
H2026 C2023 0.950 . S
C2027 C2018 1.390 . S
C2027 H2020 0.950 . S
C2027 C2024 1.387 . S
C2028 C2029 1.387 . S
C2028 H2032 0.950 . S
C2028 C2037 1.390 . S
C2029 C2028 1.387 . S
C2029 C2031 1.387 . S
H2030 C2037 0.950 . S
C2031 C2029 1.387 . S
C2031 C2033 1.390 . S
C2031 H2035 0.950 . S
H2032 C2028 0.950 . S
C2033 C2031 1.390 . S
C2033 C2034 1.387 . S
C2033 H2036 0.950 . S
C2034 C2033 1.387 . S
C2034 C2037 1.387 . S
H2035 C2031 0.950 . S
H2036 C2033 0.950 . S
C2037 C2028 1.390 . S
C2037 H2030 0.950 . S
C2037 C2034 1.387 . S
C2038 C2039 1.387 . S
C2038 H2042 0.950 . S
C2038 C2047 1.390 . S
C2039 C2038 1.387 . S
C2039 C2041 1.387 . S
H2040 C2047 0.950 . S
C2041 C2039 1.387 . S
C2041 C2043 1.390 . S
C2041 H2045 0.950 . S
H2042 C2038 0.950 . S
C2043 C2041 1.390 . S
C2043 C2044 1.387 . S
C2043 H2046 0.950 . S
C2044 C2043 1.387 . S
C2044 C2047 1.387 . S
H2045 C2041 0.950 . S
H2046 C2043 0.950 . S
C2047 C2038 1.390 . S
C2047 H2040 0.950 . S
C2047 C2044 1.387 . S
C2048 C2049 1.387 . S
C2048 H2052 0.950 . S
C2048 C2057 1.390 . S
C2049 C2048 1.387 . S
C2049 C2051 1.387 . S
H2050 C2057 0.950 . S
C2051 C2049 1.387 . S
C2051 C2053 1.390 . S
C2051 H2055 0.950 . S
H2052 C2048 0.950 . S
C2053 C2051 1.390 . S
C2053 C2054 1.387 . S
C2053 H2056 0.950 . S
C2054 C2053 1.387 . S
C2054 C2057 1.387 . S
H2055 C2051 0.950 . S
H2056 C2053 0.950 . S
C2057 C2048 1.390 . S
C2057 H2050 0.950 . S
C2057 C2054 1.387 . S
C2058 C2059 1.387 . S
C2058 H2062 0.950 . S
C2058 C2067 1.390 . S
C2059 C2058 1.387 . S
C2059 C2061 1.387 . S
H2060 C2067 0.950 . S
C2061 C2059 1.387 . S
C2061 C2063 1.390 . S
C2061 H2065 0.950 . S
H2062 C2058 0.950 . S
C2063 C2061 1.390 . S
C2063 C2064 1.387 . S
C2063 H2066 0.950 . S
C2064 C2063 1.387 . S
C2064 C2067 1.387 . S
H2065 C2061 0.950 . S
H2066 C2063 0.950 . S
C2067 C2058 1.390 . S
C2067 H2060 0.950 . S
C2067 C2064 1.387 . S
C2068 C2069 1.387 . S
C2068 H2072 0.950 . S
C2068 C2077 1.390 . S
C2069 C2068 1.387 . S
C2069 C2071 1.387 . S
H2070 C2077 0.950 . S
C2071 C2069 1.387 . S
C2071 C2073 1.390 . S
C2071 H2075 0.950 . S
H2072 C2068 0.950 . S
C2073 C2071 1.390 . S
C2073 C2074 1.387 . S
C2073 H2076 0.950 . S
C2074 C2073 1.387 . S
C2074 C2077 1.387 . S
H2075 C2071 0.950 . S
H2076 C2073 0.950 . S
C2077 C2068 1.390 . S
C2077 H2070 0.950 . S
C2077 C2074 1.387 . S
C2078 C2079 1.387 . S
C2078 H2082 0.950 . S
C2078 C2087 1.390 . S
C2079 C2078 1.387 . S
C2079 C2081 1.387 . S
H2080 C2087 0.950 . S
C2081 C2079 1.387 . S
C2081 C2083 1.390 . S
C2081 H2085 0.950 . S
H2082 C2078 0.950 . S
C2083 C2081 1.390 . S
C2083 C2084 1.387 . S
C2083 H2086 0.950 . S
C2084 C2083 1.387 . S
C2084 C2087 1.387 . S
H2085 C2081 0.950 . S
H2086 C2083 0.950 . S
C2087 C2078 1.390 . S
C2087 H2080 0.950 . S
C2087 C2084 1.387 . S
C1189 C535 1.418 . S
C1194 C7 1.418 . S
C1199 C40 1.417 . S
C1204 C568 1.416 . S
C1209 C502 1.416 . S
C1214 C73 1.416 . S
C1219 C106 1.418 . S
C1224 C865 1.418 . S
C1229 C799 1.418 . S
C1234 C139 1.418 . S
C1239 C172 1.418 . S
C1244 C832 1.418 . S
C1249 C205 1.416 . S
C1254 C1129 1.416 . S
C1259 C238 1.417 . S
C1264 C1162 1.416 . S
C1269 C271 1.416 . S
C1274 C1096 1.416 . S
C1279 C304 1.418 . S
C1284 C667 1.418 . S
C1289 C337 1.418 . S
C1294 C601 1.418 . S
C1299 C370 1.418 . S
C1304 C634 1.418 . S
C1309 C403 1.418 . S
C1314 C931 1.418 . S
C1319 C964 1.416 . S
C1324 C436 1.417 . S
C1329 C898 1.416 . S
C1334 C469 1.416 . S
C1339 C1063 1.418 . S
C1344 C700 1.418 . S
C1349 C997 1.418 . S
C1354 C733 1.418 . S
C1359 C766 1.418 . S
C1364 C1030 1.418 . S
C1369 N970 1.513 . S
C1374 N13 1.513 . S
C1379 N46 1.515 . S
C1384 N904 1.515 . S
C1389 N79 1.515 . S
C1394 N937 1.515 . S
C1399 N112 1.514 . S
C1404 N442 1.515 . S
C1409 N145 1.515 . S
C1414 N475 1.516 . S
C1419 N409 1.513 . S
C1424 N178 1.513 . S
C1429 N772 1.513 . S
C1434 N211 1.513 . S
C1439 N244 1.515 . S
C1444 N706 1.514 . S
C1449 N277 1.515 . S
C1454 N739 1.515 . S
C1459 N1036 1.514 . S
C1464 N310 1.514 . S
C1469 N1069 1.514 . S
C1474 N343 1.515 . S
C1479 N1003 1.516 . S
C1484 N376 1.516 . S
C1489 N508 1.514 . S
C1494 N838 1.514 . S
C1499 N541 1.515 . S
C1504 N871 1.514 . S
C1509 N574 1.513 . S
C1514 N805 1.513 . S
C1519 N607 1.513 . S
C1524 N1168 1.513 . S
C1529 N1102 1.516 . S
C1534 N640 1.515 . S
C1539 N673 1.515 . S
C1544 N1135 1.516 . S
C1549 C18 1.849 . S
C1554 C612 1.849 . S
C1559 C51 1.849 . S
C1564 C645 1.849 . S
C1569 C678 1.848 . S
C1574 C84 1.848 . S
C1579 C117 1.848 . S
C1584 C1107 1.848 . S
C1589 C150 1.848 . S
C1594 C1140 1.848 . S
C1599 C183 1.849 . S
C1604 C1173 1.849 . S
C1609 C810 1.849 . S
C1614 C216 1.849 . S
C1619 C249 1.849 . S
C1624 C843 1.849 . S
C1629 C876 1.847 . S
C1634 C282 1.847 . S
C1639 C513 1.849 . S
C1644 C315 1.849 . S
C1649 C546 1.848 . S
C1654 C348 1.848 . S
C1659 C381 1.849 . S
C1664 C579 1.849 . S
C1669 C1008 1.849 . S
C1674 C414 1.849 . S
C1679 C1041 1.849 . S
C1684 C447 1.849 . S
C1689 C480 1.848 . S
C1694 C1074 1.848 . S
C1699 C909 1.848 . S
C1704 C711 1.848 . S
C1709 C744 1.849 . S
C1714 C942 1.849 . S
C1719 C975 1.849 . S
C1724 C777 1.849 . S
C1729 N2 1.239 . S
C1734 C252 1.187 1_545 S
C1739 N35 1.239 . S
C1744 C285 1.184 1_655 S
C1749 C219 1.183 . S
C1754 N68 1.240 . S
C1759 C384 1.183 1_455 S
C1764 N101 1.240 . S
C1769 C318 1.186 . S
C1774 N134 1.241 . S
C1779 C351 1.183 1_565 S
C1784 N167 1.241 . S
C1789 C54 1.183 1_565 S
C1794 N200 1.239 . S
C1799 C87 1.186 1_455 S
C1804 N233 1.241 . S
C1809 C21 1.184 . S
C1814 N266 1.239 . S
C1819 N299 1.239 . S
C1824 C186 1.187 1_655 S
C1829 N332 1.241 . S
C1834 C120 1.186 . S
C1839 C153 1.184 1_545 S
C1844 N365 1.241 . S
C1849 C648 1.184 . S
C1854 N398 1.241 . S
C1859 N431 1.241 . S
C1864 C681 1.184 . S
C1869 C615 1.183 . S
C1874 N464 1.241 . S
C1879 C780 1.185 . S
C1884 N497 1.239 . S
C1889 N530 1.239 . S
C1894 C714 1.184 . S
C1899 N563 1.241 . S
C1904 C747 1.183 . S
C1909 N596 1.240 . S
C1914 C450 1.183 . S
C1919 N629 1.241 . S
C1924 C483 1.186 . S
C1929 N662 1.239 . S
C1934 C417 1.183 . S
C1939 N695 1.240 . S
C1944 C582 1.183 . S
C1949 C516 1.186 . S
C1954 N728 1.239 . S
C1959 C549 1.186 . S
C1964 N761 1.239 . S
C1969 C1044 1.185 . S
C1974 N794 1.239 . S
C1979 C1077 1.187 . S
C1984 N827 1.239 . S
C1989 C1011 1.186 . S
C1994 N860 1.239 . S
C1999 C1176 1.183 . S
C2004 N893 1.240 . S
C2009 N926 1.240 . S
C2014 C1110 1.183 . S
C2019 C1143 1.183 . S
C2024 N959 1.241 . S
C2029 C846 1.183 . S
C2034 N992 1.241 . S
C2039 C879 1.187 . S
C2044 N1025 1.240 . S
C2049 C813 1.183 . S
C2054 N1058 1.241 . S
C2059 N1091 1.241 . S
C2064 C978 1.186 . S
C2069 N1124 1.240 . S
C2074 C912 1.183 . S
C2079 C945 1.187 . S
C2084 N1157 1.241 . S
