# Generated by pormake.
# Topology ecf, (8)-cn, num edge types: 1
# Building blocks:
#     Node 0, Type 0, BuildingBlock: VETTIZ_charged_sbu_0, # of connection points: 8
#     Node 1, Type 0, BuildingBlock: VETTIZ_charged_sbu_0, # of connection points: 8
#     Node 2, Type 0, BuildingBlock: VETTIZ_charged_sbu_0, # of connection points: 8
#     Node 3, Type 0, BuildingBlock: VETTIZ_charged_sbu_0, # of connection points: 8
#     Node 4, Type 0, BuildingBlock: VETTIZ_charged_sbu_0, # of connection points: 8
#     Node 5, Type 0, BuildingBlock: VETTIZ_charged_sbu_0, # of connection points: 8
#     Edge 6, Type (0, 0), BuildingBlock: XUDNAN_clean_linker_2, # of connection points: 2
#     Edge 7, Type (0, 0), BuildingBlock: XUDNAN_clean_linker_2, # of connection points: 2
#     Edge 8, Type (0, 0), BuildingBlock: XUDNAN_clean_linker_2, # of connection points: 2
#     Edge 9, Type (0, 0), BuildingBlock: XUDNAN_clean_linker_2, # of connection points: 2
#     Edge 10, Type (0, 0), BuildingBlock: XUDNAN_clean_linker_2, # of connection points: 2
#     Edge 11, Type (0, 0), BuildingBlock: XUDNAN_clean_linker_2, # of connection points: 2
#     Edge 12, Type (0, 0), BuildingBlock: XUDNAN_clean_linker_2, # of connection points: 2
#     Edge 13, Type (0, 0), BuildingBlock: XUDNAN_clean_linker_2, # of connection points: 2
#     Edge 14, Type (0, 0), BuildingBlock: XUDNAN_clean_linker_2, # of connection points: 2
#     Edge 15, Type (0, 0), BuildingBlock: XUDNAN_clean_linker_2, # of connection points: 2
#     Edge 16, Type (0, 0), BuildingBlock: XUDNAN_clean_linker_2, # of connection points: 2
#     Edge 17, Type (0, 0), BuildingBlock: XUDNAN_clean_linker_2, # of connection points: 2
#     Edge 18, Type (0, 0), BuildingBlock: XUDNAN_clean_linker_2, # of connection points: 2
#     Edge 19, Type (0, 0), BuildingBlock: XUDNAN_clean_linker_2, # of connection points: 2
#     Edge 20, Type (0, 0), BuildingBlock: XUDNAN_clean_linker_2, # of connection points: 2
#     Edge 21, Type (0, 0), BuildingBlock: XUDNAN_clean_linker_2, # of connection points: 2
#     Edge 22, Type (0, 0), BuildingBlock: XUDNAN_clean_linker_2, # of connection points: 2
#     Edge 23, Type (0, 0), BuildingBlock: XUDNAN_clean_linker_2, # of connection points: 2
#     Edge 24, Type (0, 0), BuildingBlock: XUDNAN_clean_linker_2, # of connection points: 2
#     Edge 25, Type (0, 0), BuildingBlock: XUDNAN_clean_linker_2, # of connection points: 2
#     Edge 26, Type (0, 0), BuildingBlock: XUDNAN_clean_linker_2, # of connection points: 2
#     Edge 27, Type (0, 0), BuildingBlock: XUDNAN_clean_linker_2, # of connection points: 2
#     Edge 28, Type (0, 0), BuildingBlock: XUDNAN_clean_linker_2, # of connection points: 2
#     Edge 29, Type (0, 0), BuildingBlock: XUDNAN_clean_linker_2, # of connection points: 2
# Relax obj value: 0.148
# Max RMSD: 0.140
# Mean RMSD: 0.140
data_MOF--net-ecf--node1-VETTIZ_charged_sbu_0--edge1-XUDNAN_clean_linker_2
_symmetry_space_group_name_H-M    P1
_symmetry_Int_Tables_number       1
_symmetry_cell_setting            triclinic
loop_
_symmetry_equiv_pos_as_xyz
'x, y, z'
_cell_length_a     33.392394
_cell_length_b     33.459892
_cell_length_c     27.299038
_cell_angle_alpha  90.777781
_cell_angle_beta   89.365223
_cell_angle_gamma 119.89804
loop_
_atom_site_label
_atom_site_type_symbol
_atom_site_fract_x
_atom_site_fract_y
_atom_site_fract_z
_atom_type_partial_charge
Fe0 Fe 0.06836 0.24146 0.19936 0.0
O1 O 0.09649 0.29712 0.24031 0.0
Fe2 Fe 0.15618 0.3562 0.2179 0.0
Fe3 Fe 0.11481 0.29602 0.30907 0.0
O4 O 0.09791 0.2994 0.23671 0.0
O5 O 0.17554 0.35391 0.2873 0.0
O6 O 0.17274 0.35248 0.29182 0.0
Fe7 Fe 0.19774 0.40524 0.33624 0.0
C8 C 0.01526 0.21921 0.29488 0.0
O9 O 0.08807 0.20493 0.24416 0.0
O10 O 0.14524 0.25897 0.28897 0.0
O11 O 0.2535 0.43026 0.2883 0.0
O12 O 0.22128 0.41652 0.21023 0.0
O13 O 0.18628 0.31851 0.19114 0.0
O14 O 0.12567 0.25853 0.15559 0.0
O15 O 0.14038 0.2996 0.37922 0.0
O16 O 0.21243 0.36376 0.38038 0.0
C17 C 0.16918 0.28493 0.16031 0.0
O18 O 0.17724 0.44273 0.29558 0.0
O19 O 0.12753 0.39573 0.2389 0.0
O20 O 0.0137 0.22292 0.24774 0.0
O21 O 0.05248 0.23723 0.32067 0.0
C22 C 0.12388 0.21893 0.27057 0.0
C23 C 0.18106 0.32449 0.39815 0.0
C24 C 0.09495 0.3571 0.36858 0.0
O25 O 0.08313 0.3324 0.33016 0.0
O26 O 0.13761 0.38125 0.37994 0.0
C27 C 0.25589 0.43643 0.24093 0.0
O28 O 0.12501 0.3501 0.1482 0.0
O29 O 0.05506 0.28152 0.15379 0.0
C30 C 0.14633 0.43315 0.26347 0.0
C31 C 0.0826 0.32117 0.13402 0.0
Fe32 Fe 0.88756 0.14831 0.67961 0.0
O33 O 0.8638 0.16775 0.73514 0.0
Fe34 Fe 0.80944 0.18043 0.72401 0.0
Fe35 Fe 0.8409 0.13136 0.79666 0.0
O36 O 0.86359 0.17128 0.73261 0.0
O37 O 0.78715 0.14497 0.78683 0.0
O38 O 0.78788 0.14226 0.78982 0.0
Fe39 Fe 0.76563 0.16485 0.84465 0.0
C40 C 0.82278 0.0551 0.72687 0.0
O41 O 0.94061 0.16417 0.72779 0.0
O42 O 0.90055 0.12623 0.79723 0.0
O43 O 0.79106 0.23048 0.82003 0.0
O44 O 0.84333 0.24325 0.76156 0.0
O45 O 0.84288 0.21763 0.65798 0.0
O46 O 0.90982 0.2132 0.65421 0.0
O47 O 0.87768 0.19163 0.83455 0.0
O48 O 0.82519 0.18879 0.8872 0.0
C49 C 0.88484 0.23096 0.64131 0.0
O50 O 0.71123 0.14802 0.798 0.0
O51 O 0.74722 0.18261 0.72477 0.0
O52 O 0.85937 0.08142 0.70298 0.0
O53 O 0.8056 0.07028 0.7588 0.0
C54 C 0.93824 0.14816 0.77147 0.0
C55 C 0.86716 0.20519 0.87357 0.0
C56 C 0.76928 0.08081 0.88063 0.0
O57 O 0.80953 0.0934 0.86087 0.0
O58 O 0.74464 0.10011 0.87248 0.0
C59 C 0.82732 0.25739 0.79621 0.0
O60 O 0.77448 0.1184 0.68569 0.0
O61 O 0.83073 0.12723 0.63489 0.0
C62 C 0.71127 0.16295 0.75411 0.0
C63 C 0.78829 0.10656 0.64737 0.0
Fe64 Fe 0.75249 0.88724 0.22432 0.0
O65 O 0.70067 0.86017 0.27041 0.0
Fe66 Fe 0.6369 0.80605 0.24672 0.0
Fe67 Fe 0.70525 0.83532 0.33508 0.0
O68 O 0.69744 0.85953 0.26657 0.0
O69 O 0.64025 0.78212 0.31268 0.0
O70 O 0.64423 0.78168 0.31596 0.0
Fe71 Fe 0.59005 0.75705 0.36076 0.0
C72 C 0.78036 0.82846 0.28116 0.0
O73 O 0.77462 0.9387 0.27543 0.0
O74 O 0.76659 0.8982 0.34678 0.0
O75 O 0.55575 0.78745 0.32906 0.0
O76 O 0.60272 0.83876 0.27403 0.0
O77 O 0.64274 0.83828 0.17825 0.0
O78 O 0.71268 0.90541 0.18382 0.0
O79 O 0.67316 0.86782 0.3677 0.0
O80 O 0.6195 0.8111 0.41163 0.0
C81 C 0.67328 0.87934 0.16316 0.0
O82 O 0.55894 0.70584 0.30769 0.0
O83 O 0.57352 0.74576 0.23521 0.0
O84 O 0.79111 0.8669 0.26233 0.0
O85 O 0.74219 0.80531 0.30441 0.0
C86 C 0.78041 0.93608 0.32208 0.0
C87 C 0.64818 0.85379 0.40592 0.0
C88 C 0.67033 0.75675 0.41266 0.0
O89 O 0.70054 0.79922 0.40061 0.0
O90 O 0.62876 0.73314 0.39499 0.0
C91 C 0.56657 0.82158 0.30092 0.0
O92 O 0.66857 0.7724 0.21754 0.0
O93 O 0.73019 0.82914 0.17964 0.0
C94 C 0.55147 0.70872 0.26152 0.0
C95 C 0.70178 0.7864 0.18705 0.0
Fe96 Fe 0.84048 0.69692 0.75727 0.0
O97 O 0.81429 0.68571 0.8248 0.0
Fe98 Fe 0.82497 0.59203 0.7186 0.0
Fe99 Fe 0.83767 0.7375 0.87227 0.0
O100 O 0.84544 0.64099 0.76735 0.0
O101 O 0.84715 0.63954 0.77115 0.0
O102 O 0.8153 0.68352 0.82891 0.0
Fe103 Fe 0.82466 0.62967 0.84093 0.0
C104 C 0.91935 0.77389 0.80278 0.0
O105 O 0.83178 0.75445 0.75421 0.0
O106 O 0.80032 0.75718 0.82864 0.0
O107 O 0.75816 0.5867 0.81927 0.0
O108 O 0.76519 0.54699 0.7561 0.0
O109 O 0.78798 0.61451 0.6779 0.0
O110 O 0.77594 0.66089 0.72696 0.0
O111 O 0.78578 0.6897 0.91562 0.0
O112 O 0.79894 0.62769 0.91296 0.0
C113 C 0.76806 0.63774 0.68746 0.0
O114 O 0.83647 0.57274 0.84172 0.0
O115 O 0.85816 0.56779 0.76192 0.0
O116 O 0.90543 0.73424 0.7849 0.0
O117 O 0.89338 0.78254 0.82983 0.0
C118 C 0.80959 0.7683 0.78279 0.0
C119 C 0.78205 0.65199 0.93301 0.0
C120 C 0.90231 0.70025 0.90241 0.0
O121 O 0.88002 0.72133 0.91103 0.0
O122 O 0.89134 0.6709 0.86742 0.0
C123 C 0.74202 0.55156 0.79114 0.0
O124 O 0.88208 0.64136 0.67974 0.0
O125 O 0.87067 0.70353 0.68878 0.0
C126 C 0.85289 0.55647 0.80787 0.0
C127 C 0.89057 0.68259 0.6684 0.0
Fe128 Fe 0.17776 0.91807 0.19873 0.0
O129 O 0.20017 0.8947 0.25058 0.0
Fe130 Fe 0.20853 0.83739 0.23743 0.0
Fe131 Fe 0.16922 0.87676 0.31564 0.0
O132 O 0.20297 0.8938 0.2477 0.0
O133 O 0.17607 0.81888 0.3028 0.0
O134 O 0.17559 0.8213 0.3068 0.0
Fe135 Fe 0.19811 0.79932 0.35985 0.0
C136 C 0.18604 0.97336 0.29045 0.0
O137 O 0.11169 0.89308 0.22943 0.0
O138 O 0.10507 0.84179 0.28454 0.0
O139 O 0.17708 0.74332 0.31407 0.0
O140 O 0.2071 0.77336 0.2373 0.0
O141 O 0.14542 0.80334 0.20072 0.0
O142 O 0.15175 0.86076 0.15463 0.0
O143 O 0.13663 0.85116 0.38274 0.0
O144 O 0.13506 0.7823 0.3916 0.0
C145 C 0.13322 0.81812 0.16411 0.0
O146 O 0.2625 0.82084 0.33061 0.0
O147 O 0.27332 0.86927 0.27002 0.0
O148 O 0.1998 0.97347 0.24585 0.0
O149 O 0.16656 0.93736 0.31815 0.0
C150 C 0.08697 0.85887 0.2573 0.0
C151 C 0.12096 0.81109 0.40281 0.0
C152 C 0.24163 0.90185 0.38957 0.0
O153 O 0.23258 0.91253 0.34842 0.0
O154 O 0.22439 0.85983 0.40212 0.0
C155 C 0.18807 0.73964 0.26894 0.0
O156 O 0.24438 0.86849 0.17087 0.0
O157 O 0.24045 0.93587 0.16684 0.0
C158 C 0.2887 0.85118 0.29996 0.0
C159 C 0.25843 0.91038 0.15498 0.0
Fe160 Fe 0.28136 0.13857 0.74194 0.0
O161 O 0.29908 0.11388 0.79871 0.0
Fe162 Fe 0.38434 0.22875 0.70162 0.0
Fe163 Fe 0.25577 0.08016 0.85187 0.0
O164 O 0.34101 0.1957 0.75452 0.0
O165 O 0.3439 0.19765 0.75858 0.0
O166 O 0.30233 0.11536 0.80206 0.0
Fe167 Fe 0.36169 0.17287 0.81625 0.0
C168 C 0.21678 0.13974 0.81721 0.0
O169 O 0.22095 0.0754 0.7354 0.0
O170 O 0.22517 0.03134 0.79699 0.0
O171 O 0.39618 0.14963 0.77123 0.0
O172 O 0.43035 0.20742 0.71782 0.0
O173 O 0.35402 0.17498 0.65094 0.0
O174 O 0.3112 0.11228 0.69485 0.0
O175 O 0.3052 0.06474 0.87179 0.0
O176 O 0.37139 0.13633 0.87482 0.0
C177 C 0.33266 0.13129 0.65561 0.0
O178 O 0.42242 0.23801 0.82091 0.0
O179 O 0.41772 0.27855 0.75473 0.0
O180 O 0.24928 0.16331 0.78726 0.0
O181 O 0.21001 0.10174 0.83443 0.0
C182 C 0.20866 0.03618 0.75602 0.0
C183 C 0.3472 0.09239 0.88599 0.0
C184 C 0.30234 0.17592 0.90013 0.0
O185 O 0.28321 0.13228 0.90423 0.0
O186 O 0.32905 0.19713 0.86403 0.0
C187 C 0.4265 0.17182 0.73842 0.0
O188 O 0.33423 0.24447 0.68116 0.0
O189 O 0.26967 0.17227 0.68429 0.0
C190 C 0.43622 0.2755 0.79526 0.0
C191 C 0.29173 0.21495 0.66985 0.0
H192 H 0.13609 0.48871 0.32786 0.0
H193 H 0.13793 0.46186 0.17254 0.0
H194 H 0.14332 0.53692 0.15432 0.0
H195 H 0.07218 0.55412 0.32075 0.0
H196 H 0.10675 0.5922 0.3695 0.0
H197 H 0.09382 0.5331 0.36824 0.0
H198 H 0.18155 0.56134 0.37223 0.0
H199 H 0.19489 0.62037 0.37209 0.0
H200 H 0.21956 0.59995 0.32593 0.0
H201 H 0.16202 0.622 0.15531 0.0
H202 H 0.183 0.70289 0.17549 0.0
H203 H 0.16981 0.66967 0.3302 0.0
C204 C 0.13577 0.49789 0.29 0.0
C205 C 0.13623 0.4698 0.2516 0.0
C206 C 0.13667 0.48287 0.2024 0.0
C207 C 0.14011 0.52553 0.1918 0.0
C208 C 0.14229 0.55388 0.2309 0.0
C209 C 0.13903 0.53985 0.279 0.0
C210 C 0.14621 0.57736 0.31485 0.0
C211 C 0.10211 0.56336 0.3451 0.0
C212 C 0.18803 0.5905 0.34818 0.0
C213 C 0.15566 0.61537 0.2797 0.0
C214 C 0.15304 0.60167 0.23137 0.0
C215 C 0.16331 0.63276 0.19309 0.0
C216 C 0.17564 0.67868 0.20482 0.0
C217 C 0.17774 0.6927 0.25438 0.0
C218 C 0.16787 0.66033 0.29181 0.0
H219 H 0.46327 0.13388 0.79885 0.0
H220 H 0.4717 0.18465 0.65161 0.0
H221 H 0.54155 0.17897 0.63566 0.0
H222 H 0.57808 0.19756 0.82306 0.0
H223 H 0.5827 0.15486 0.85827 0.0
H224 H 0.5284 0.15368 0.8552 0.0
H225 H 0.48844 0.06945 0.8229 0.0
H226 H 0.54262 0.07004 0.82649 0.0
H227 H 0.51143 0.05537 0.76953 0.0
H228 H 0.61686 0.17982 0.64013 0.0
H229 H 0.68993 0.18361 0.66388 0.0
H230 H 0.632 0.13259 0.80818 0.0
C231 C 0.4788 0.14199 0.76268 0.0
C232 C 0.46209 0.15942 0.72639 0.0
C233 C 0.48409 0.17116 0.67991 0.0
C234 C 0.52367 0.16792 0.67043 0.0
C235 C 0.54067 0.15266 0.70773 0.0
C236 C 0.51862 0.13932 0.75275 0.0
C237 C 0.54665 0.12905 0.7883 0.0
C238 C 0.55973 0.16069 0.83386 0.0
C239 C 0.52074 0.07793 0.80263 0.0
C240 C 0.58854 0.14038 0.75685 0.0
C241 C 0.58429 0.15338 0.71032 0.0
C242 C 0.62027 0.16881 0.67618 0.0
C243 C 0.66175 0.17111 0.69008 0.0
C244 C 0.66691 0.1583 0.73782 0.0
C245 C 0.62935 0.14221 0.77115 0.0
H246 H 0.33906 0.45932 0.27953 0.0
H247 H 0.27578 0.49412 0.16219 0.0
H248 H 0.35124 0.56338 0.1442 0.0
H249 H 0.39936 0.5652 0.32698 0.0
H250 H 0.44977 0.56219 0.34407 0.0
H251 H 0.39489 0.5103 0.33932 0.0
H252 H 0.42918 0.47618 0.27696 0.0
H253 H 0.48463 0.52799 0.28193 0.0
H254 H 0.45817 0.50815 0.22275 0.0
H255 H 0.42972 0.63612 0.1503 0.0
H256 H 0.50214 0.70363 0.17917 0.0
H257 H 0.5121 0.62019 0.29343 0.0
C258 C 0.34136 0.48066 0.24893 0.0
C259 C 0.30169 0.47143 0.22221 0.0
C260 C 0.30594 0.50029 0.18271 0.0
C261 C 0.34867 0.53973 0.17234 0.0
C262 C 0.38671 0.54915 0.20127 0.0
C263 C 0.38343 0.51986 0.23832 0.0
C264 C 0.42705 0.54005 0.26841 0.0
C265 C 0.41714 0.54472 0.32286 0.0
C266 C 0.45119 0.51139 0.26211 0.0
C267 C 0.45455 0.58654 0.24453 0.0
C268 C 0.4314 0.59095 0.20513 0.0
C269 C 0.44855 0.63261 0.18039 0.0
C270 C 0.48972 0.67082 0.19708 0.0
C271 C 0.51276 0.66722 0.23864 0.0
C272 C 0.49543 0.62409 0.2615 0.0
H273 H 0.86115 0.33162 0.73415 0.0
H274 H 0.8377 0.29373 0.88724 0.0
H275 H 0.85364 0.37191 0.90962 0.0
H276 H 0.95272 0.45779 0.75541 0.0
H277 H 0.93033 0.47578 0.70579 0.0
H278 H 0.92707 0.42036 0.70311 0.0
H279 H 0.83867 0.38096 0.68988 0.0
H280 H 0.84152 0.43595 0.69305 0.0
H281 H 0.80365 0.3906 0.73393 0.0
H282 H 0.85584 0.44821 0.91351 0.0
H283 H 0.85005 0.51801 0.89827 0.0
H284 H 0.87519 0.50719 0.74345 0.0
C285 C 0.86159 0.3406 0.77247 0.0
C286 C 0.84851 0.30688 0.80896 0.0
C287 C 0.84779 0.31927 0.85872 0.0
C288 C 0.85687 0.36362 0.87185 0.0
C289 C 0.86717 0.39556 0.83486 0.0
C290 C 0.87052 0.38493 0.78623 0.0
C291 C 0.8771 0.42368 0.75312 0.0
C292 C 0.92465 0.44571 0.72788 0.0
C293 C 0.8379 0.40677 0.71532 0.0
C294 C 0.87458 0.45643 0.79034 0.0
C295 C 0.86936 0.44003 0.83738 0.0
C296 C 0.86122 0.46212 0.87694 0.0
C297 C 0.85783 0.50172 0.86799 0.0
C298 C 0.86252 0.51873 0.81983 0.0
C299 C 0.87214 0.49604 0.78101 0.0
H300 H 0.33111 0.81794 0.35856 0.0
H301 H 0.35688 0.90621 0.23324 0.0
H302 H 0.43449 0.91416 0.2235 0.0
H303 H 0.4492 0.87513 0.40651 0.0
H304 H 0.44444 0.82116 0.42393 0.0
H305 H 0.39387 0.8274 0.42394 0.0
H306 H 0.35277 0.75642 0.36603 0.0
H307 H 0.40317 0.75009 0.36561 0.0
H308 H 0.37981 0.7559 0.30868 0.0
H309 H 0.50775 0.90642 0.22416 0.0
H310 H 0.56712 0.88346 0.23438 0.0
H311 H 0.49037 0.79903 0.35827 0.0
C312 C 0.35319 0.83979 0.32952 0.0
C313 C 0.33767 0.86168 0.29684 0.0
C314 C 0.36792 0.88941 0.25909 0.0
C315 C 0.41209 0.89404 0.25324 0.0
C316 C 0.42563 0.87087 0.28549 0.0
C317 C 0.39692 0.84449 0.32304 0.0
C318 C 0.41758 0.82032 0.35089 0.0
C319 C 0.42683 0.83702 0.40449 0.0
C320 C 0.38649 0.76758 0.34757 0.0
C321 C 0.46222 0.83643 0.32277 0.0
C322 C 0.4667 0.86594 0.28545 0.0
C323 C 0.50461 0.88367 0.2536 0.0
C324 C 0.53826 0.87045 0.25974 0.0
C325 C 0.53368 0.83941 0.2972 0.0
C326 C 0.49527 0.8229 0.32934 0.0
H327 H 0.50248 0.32839 0.73104 0.0
H328 H 0.47037 0.31424 0.88636 0.0
H329 H 0.54535 0.38565 0.90273 0.0
H330 H 0.62255 0.36613 0.74356 0.0
H331 H 0.63921 0.40438 0.69202 0.0
H332 H 0.58296 0.3535 0.69365 0.0
H333 H 0.54486 0.40392 0.68206 0.0
H334 H 0.60098 0.45502 0.68067 0.0
H335 H 0.55813 0.45075 0.72428 0.0
H336 H 0.62278 0.46114 0.89989 0.0
H337 H 0.69898 0.52837 0.88035 0.0
H338 H 0.68017 0.48792 0.72693 0.0
C339 C 0.51098 0.34048 0.76857 0.0
C340 C 0.48054 0.3166 0.8075 0.0
C341 C 0.49332 0.3325 0.85616 0.0
C342 C 0.53559 0.37295 0.86561 0.0
C343 C 0.56455 0.39608 0.82598 0.0
C344 C 0.5529 0.37986 0.77854 0.0
C345 C 0.59027 0.4094 0.74231 0.0
C346 C 0.60991 0.3817 0.71638 0.0
C347 C 0.57249 0.43105 0.70515 0.0
C348 C 0.62507 0.44532 0.77659 0.0
C349 C 0.60949 0.43754 0.82463 0.0
C350 C 0.63536 0.46725 0.86249 0.0
C351 C 0.67843 0.50543 0.85096 0.0
C352 C 0.69541 0.51308 0.80211 0.0
C353 C 0.66821 0.48264 0.7646 0.0
H354 H 0.1874 0.20036 0.23164 0.0
H355 H 0.08757 0.16454 0.3492 0.0
H356 H 0.10774 0.10751 0.37984 0.0
H357 H 0.1613 0.09193 0.20201 0.0
H358 H 0.21936 0.10465 0.18793 0.0
H359 H 0.20434 0.14896 0.18305 0.0
H360 H 0.27093 0.20076 0.24198 0.0
H361 H 0.2856 0.15598 0.24798 0.0
H362 H 0.27314 0.17976 0.30179 0.0
H363 H 0.12923 0.04766 0.38938 0.0
H364 H 0.14331 0.98341 0.37212 0.0
H365 H 0.22981 0.05806 0.24805 0.0
C366 C 0.1707 0.18093 0.26435 0.0
C367 C 0.13608 0.18589 0.2883 0.0
C368 C 0.1141 0.16031 0.33064 0.0
C369 C 0.12582 0.12859 0.34857 0.0
C370 C 0.15991 0.12372 0.32386 0.0
C371 C 0.18202 0.14916 0.2826 0.0
C372 C 0.21221 0.13272 0.25862 0.0
C373 C 0.19841 0.11865 0.20476 0.0
C374 C 0.26352 0.1695 0.26288 0.0
C375 C 0.20065 0.09172 0.29041 0.0
C376 C 0.17196 0.08825 0.32901 0.0
C377 C 0.15246 0.0504 0.35999 0.0
C378 C 0.1606 0.014 0.34978 0.0
C379 C 0.18723 0.01559 0.30834 0.0
C380 C 0.20935 0.05593 0.28 0.0
H381 H 0.02347 0.18678 0.72816 0.0
H382 H 0.95075 0.12434 0.86359 0.0
H383 H 0.02186 0.13041 0.89678 0.0
H384 H 0.07893 0.12639 0.71877 0.0
H385 H 0.13207 0.17181 0.69373 0.0
H386 H 0.0793 0.17232 0.68452 0.0
H387 H 0.11536 0.25401 0.72327 0.0
H388 H 0.16879 0.25402 0.73215 0.0
H389 H 0.14058 0.2644 0.78343 0.0
H390 H 0.09451 0.12956 0.90903 0.0
H391 H 0.16319 0.12073 0.89875 0.0
H392 H 0.18971 0.18561 0.7566 0.0
C393 C 0.02266 0.17543 0.76529 0.0
C394 C 0.98146 0.15491 0.79313 0.0
C395 C 0.98185 0.14 0.84137 0.0
C396 C 0.02221 0.14375 0.86079 0.0
C397 C 0.06192 0.16303 0.83177 0.0
C398 C 0.06255 0.17895 0.78517 0.0
C399 C 0.10747 0.19225 0.75888 0.0
C400 C 0.09887 0.16397 0.71121 0.0
C401 C 0.13466 0.24428 0.74887 0.0
C402 C 0.13111 0.17903 0.79702 0.0
C403 C 0.10465 0.16312 0.83921 0.0
C404 C 0.11626 0.1432 0.87691 0.0
C405 C 0.15513 0.13817 0.87071 0.0
C406 C 0.18179 0.15307 0.82722 0.0
C407 C 0.17058 0.1752 0.79078 0.0
H408 H 0.00474 0.15342 0.35665 0.0
H409 H 0.93145 0.21399 0.28871 0.0
H410 H 0.8582 0.15286 0.3234 0.0
H411 H 0.94186 0.05346 0.31786 0.0
H412 H 0.9404 0.01968 0.36952 0.0
H413 H 0.98727 0.07716 0.36294 0.0
H414 H 0.97022 0.09838 0.44919 0.0
H415 H 0.92278 0.04028 0.45611 0.0
H416 H 0.91324 0.08846 0.46395 0.0
H417 H 0.79539 0.07829 0.33871 0.0
H418 H 0.74901 0.99526 0.32286 0.0
H419 H 0.86 0.97579 0.37426 0.0
C420 C 0.97325 0.15458 0.35132 0.0
C421 C 0.97291 0.18779 0.3206 0.0
C422 C 0.93173 0.18838 0.31234 0.0
C423 C 0.8903 0.15428 0.33266 0.0
C424 C 0.89089 0.11968 0.36029 0.0
C425 C 0.93154 0.11961 0.36976 0.0
C426 C 0.92225 0.07304 0.38752 0.0
C427 C 0.94948 0.05481 0.35759 0.0
C428 C 0.93273 0.07519 0.44246 0.0
C429 C 0.87085 0.04512 0.37866 0.0
C430 C 0.85305 0.07349 0.36701 0.0
C431 C 0.80847 0.05589 0.34926 0.0
C432 C 0.78245 0.00875 0.3401 0.0
C433 C 0.80136 0.97997 0.34803 0.0
C434 C 0.84487 0.99756 0.36981 0.0
H435 H 0.78492 0.99018 0.79801 0.0
H436 H 0.82158 0.00875 0.64404 0.0
H437 H 0.80746 0.92914 0.6388 0.0
H438 H 0.84128 0.93723 0.82822 0.0
H439 H 0.80035 0.89555 0.87044 0.0
H440 H 0.80015 0.94831 0.86015 0.0
H441 H 0.71401 0.90323 0.83461 0.0
H442 H 0.71357 0.85021 0.84713 0.0
H443 H 0.69567 0.85896 0.78808 0.0
H444 H 0.80987 0.85875 0.65473 0.0
H445 H 0.82027 0.797 0.68837 0.0
H446 H 0.77761 0.8197 0.83185 0.0
C447 C 0.78736 0.97644 0.76275 0.0
C448 C 0.80385 0.00512 0.72139 0.0
C449 C 0.8089 0.98706 0.6761 0.0
C450 C 0.8007 0.94186 0.67274 0.0
C451 C 0.78696 0.91513 0.71489 0.0
C452 C 0.77925 0.93125 0.75888 0.0
C453 C 0.77053 0.89779 0.80001 0.0
C454 C 0.80517 0.92113 0.84213 0.0
C455 C 0.72046 0.87625 0.81856 0.0
C456 C 0.77843 0.8624 0.77307 0.0
C457 C 0.7869 0.87269 0.72383 0.0
C458 C 0.80138 0.8491 0.69271 0.0
C459 C 0.8072 0.81396 0.71223 0.0
C460 C 0.79841 0.80236 0.76242 0.0
C461 C 0.78316 0.82662 0.79301 0.0
H462 H 0.8532 0.86258 0.21864 0.0
H463 H 0.79228 0.76675 0.33887 0.0
H464 H 0.86196 0.75779 0.34029 0.0
H465 H 0.91643 0.81251 0.15748 0.0
H466 H 0.96409 0.86898 0.14383 0.0
H467 H 0.90631 0.85995 0.14837 0.0
H468 H 0.93568 0.92586 0.21342 0.0
H469 H 0.99282 0.93331 0.21 0.0
H470 H 0.9631 0.92164 0.26809 0.0
H471 H 0.94332 0.767 0.33334 0.0
H472 H 0.02567 0.79221 0.31995 0.0
H473 H 0.03286 0.88522 0.20644 0.0
C474 C 0.85376 0.83891 0.24492 0.0
C475 C 0.81699 0.81532 0.27877 0.0
C476 C 0.81963 0.78483 0.3123 0.0
C477 C 0.85923 0.77977 0.3134 0.0
C478 C 0.89566 0.80533 0.28068 0.0
C479 C 0.89289 0.83416 0.24697 0.0
C480 C 0.93778 0.86153 0.21888 0.0
C481 C 0.93072 0.85002 0.16387 0.0
C482 C 0.95854 0.91364 0.22818 0.0
C483 C 0.96689 0.84385 0.24192 0.0
C484 C 0.94203 0.81127 0.27731 0.0
C485 C 0.96268 0.79203 0.30532 0.0
C486 C 0.00971 0.8067 0.29736 0.0
C487 C 0.03613 0.84075 0.2619 0.0
C488 C 0.01388 0.85895 0.23351 0.0
H489 H 0.18211 0.94637 0.77346 0.0
H490 H 0.14281 0.03371 0.69568 0.0
H491 H 0.06472 0.96783 0.68445 0.0
H492 H 0.09643 0.83196 0.7036 0.0
H493 H 0.08699 0.8004 0.75955 0.0
H494 H 0.14312 0.84909 0.74632 0.0
H495 H 0.14079 0.88542 0.82989 0.0
H496 H 0.08432 0.83809 0.84277 0.0
H497 H 0.09385 0.89608 0.84313 0.0
H498 H 0.98859 0.9043 0.70652 0.0
H499 H 0.92067 0.84054 0.74713 0.0
H500 H 0.00746 0.79117 0.80694 0.0
C501 C 0.15763 0.95096 0.75203 0.0
C502 C 0.16815 0.99505 0.73606 0.0
C503 C 0.13548 0.00014 0.70825 0.0
C504 C 0.09096 0.96284 0.70159 0.0
C505 C 0.0803 0.92064 0.72174 0.0
C506 C 0.11316 0.91392 0.74483 0.0
C507 C 0.09141 0.86747 0.76957 0.0
C508 C 0.10531 0.83532 0.74317 0.0
C509 C 0.10329 0.87212 0.82456 0.0
C510 C 0.04099 0.85164 0.76163 0.0
C511 C 0.03532 0.8823 0.73301 0.0
C512 C 0.99237 0.87905 0.72725 0.0
C513 C 0.95427 0.84342 0.75106 0.0
C514 C 0.95966 0.81174 0.77989 0.0
C515 C 0.00306 0.81512 0.78443 0.0
H516 H 0.15086 0.20449 0.11309 0.0
H517 H 0.25699 0.34797 0.1283 0.0
H518 H 0.30354 0.33656 0.06399 0.0
H519 H 0.22958 0.15942 0.09297 0.0
H520 H 0.19155 0.11608 0.04995 0.0
H521 H 0.16789 0.13565 0.09799 0.0
H522 H 0.12552 0.15746 0.03346 0.0
H523 H 0.14855 0.13671 0.98609 0.0
H524 H 0.15825 0.1947 0.98364 0.0
H525 H 0.33572 0.30962 0.9915 0.0
H526 H 0.35331 0.26841 0.92593 0.0
H527 H 0.22758 0.14213 0.96226 0.0
C528 C 0.18411 0.23351 0.10331 0.0
C529 C 0.20009 0.27726 0.12591 0.0
C530 C 0.244 0.31408 0.11198 0.0
C531 C 0.27059 0.30793 0.07516 0.0
C532 C 0.25326 0.26455 0.0529 0.0
C533 C 0.21129 0.22781 0.06721 0.0
C534 C 0.20022 0.18457 0.03804 0.0
C535 C 0.19714 0.14671 0.07177 0.0
C536 C 0.1555 0.16741 1.00855 0.0
C537 C 0.24213 0.20264 1.00454 0.0
C538 C 0.2723 0.24894 1.01321 0.0
C539 C 0.31249 0.27323 0.98504 0.0
C540 C 0.32219 0.24957 0.94766 0.0
C541 C 0.29224 0.20182 0.93902 0.0
C542 C 0.2517 0.17844 0.96813 0.0
H543 H 0.97521 0.29542 0.63045 0.0
H544 H 0.84312 0.2378 0.55752 0.0
H545 H 0.88361 0.27431 0.47998 0.0
H546 H 0.03889 0.405 0.55707 0.0
H547 H 0.09109 0.4016 0.55761 0.0
H548 H 0.05136 0.37992 0.6086 0.0
H549 H 0.04697 0.30075 0.59848 0.0
H550 H 0.08591 0.32177 0.54709 0.0
H551 H 0.02999 0.27093 0.54031 0.0
H552 H 0.93968 0.30401 0.40739 0.0
H553 H 0.00431 0.32809 0.34866 0.0
H554 H 0.10022 0.36634 0.46935 0.0
C555 C 0.95462 0.29231 0.5987 0.0
C556 C 0.90579 0.26441 0.6004 0.0
C557 C 0.88028 0.26002 0.55765 0.0
C558 C 0.90319 0.28028 0.51326 0.0
C559 C 0.9516 0.30529 0.51234 0.0
C560 C 0.97693 0.31205 0.55437 0.0
C561 C 0.0284 0.33574 0.54318 0.0
C562 C 0.05394 0.3834 0.5681 0.0
C563 C 0.04899 0.30548 0.55815 0.0
C564 C 0.02833 0.34003 0.48797 0.0
C565 C 0.98374 0.32259 0.47083 0.0
C566 C 0.97468 0.31878 0.42069 0.0
C567 C 0.01175 0.33255 0.38751 0.0
C568 C 0.05769 0.3501 0.4042 0.0
C569 C 0.06589 0.35458 0.45527 0.0
H570 H 0.69182 0.96631 0.14378 0.0
H571 H 0.64794 0.83354 0.07509 0.0
H572 H 0.66498 0.87025 0.99341 0.0
H573 H 0.64944 0.01352 0.04483 0.0
H574 H 0.69833 0.07057 0.05307 0.0
H575 H 0.6754 0.03213 0.10441 0.0
H576 H 0.75668 0.04309 0.11972 0.0
H577 H 0.77962 0.08036 0.06765 0.0
H578 H 0.78542 0.02974 0.0713 0.0
H579 H 0.70006 0.92462 0.92051 0.0
H580 H 0.73753 0.98944 0.86197 0.0
H581 H 0.75611 0.08592 0.97865 0.0
C582 C 0.68375 0.94464 0.11138 0.0
C583 C 0.6677 0.89691 0.11567 0.0
C584 C 0.65891 0.86986 0.07258 0.0
C585 C 0.66914 0.89062 1.02609 0.0
C586 C 0.6874 0.93831 1.02336 0.0
C587 C 0.6933 0.96473 0.06491 0.0
C588 C 0.71572 0.01553 0.05273 0.0
C589 C 0.68275 0.03402 0.06444 0.0
C590 C 0.7621 0.04381 0.07944 0.0
C591 C 0.72291 0.01395 0.99803 0.0
C592 C 0.7066 0.96917 0.98166 0.0
C593 C 0.71222 0.95964 0.9329 0.0
C594 C 0.73408 0.99663 0.90003 0.0
C595 C 0.74998 0.04247 0.91601 0.0
C596 C 0.74415 0.05108 0.96558 0.0
H597 H 0.76984 0.718 0.6635 0.0
H598 H 0.71337 0.57543 0.61809 0.0
H599 H 0.68225 0.59076 0.54327 0.0
H600 H 0.67728 0.73661 0.61242 0.0
H601 H 0.71931 0.79478 0.59581 0.0
H602 H 0.72935 0.76789 0.64737 0.0
H603 H 0.80905 0.78745 0.6044 0.0
H604 H 0.79469 0.81123 0.5533 0.0
H605 H 0.80735 0.76524 0.54372 0.0
H606 H 0.65972 0.62201 0.47229 0.0
H607 H 0.64614 0.66655 0.41 0.0
H608 H 0.7215 0.79087 0.49788 0.0
C609 C 0.74982 0.68981 0.63843 0.0
C610 C 0.74315 0.64523 0.64709 0.0
C611 C 0.71824 0.60958 0.61253 0.0
C612 C 0.70065 0.61806 0.56985 0.0
C613 C 0.7089 0.66263 0.56176 0.0
C614 C 0.73288 0.69798 0.59502 0.0
C615 C 0.73914 0.7433 0.57598 0.0
C616 C 0.71488 0.7618 0.60988 0.0
C617 C 0.79058 0.77891 0.56899 0.0
C618 C 0.71496 0.72793 0.52692 0.0
C619 C 0.69757 0.68116 0.5197 0.0
C620 C 0.67323 0.65863 0.4776 0.0
C621 C 0.66577 0.68429 0.44237 0.0
C622 C 0.68301 0.73224 0.44888 0.0
C623 C 0.70851 0.75444 0.49154 0.0
H624 H 0.93959 0.76835 0.97142 0.0
H625 H 0.94951 0.65186 0.9145 0.0
H626 H 0.0068 0.66491 0.97926 0.0
H627 H 0.05785 0.84067 1.00137 0.0
H628 H 0.04479 0.86348 0.05559 0.0
H629 H 0.00556 0.84386 1.00471 0.0
H630 H 0.9401 0.79023 0.06347 0.0
H631 H 0.97928 0.80669 0.11443 0.0
H632 H 0.94516 0.74693 0.09705 0.0
H633 H 0.06397 0.6925 0.0544 0.0
H634 H 0.11775 0.7352 0.12304 0.0
H635 H 0.06647 0.83125 0.12701 0.0
C636 C 0.95372 0.74542 0.97204 0.0
C637 C 0.93986 0.70901 0.93754 0.0
C638 C 0.9597 0.6802 0.94019 0.0
C639 C 0.99203 0.68719 0.97715 0.0
C640 C 0.00409 0.72306 1.01117 0.0
C641 C 0.98553 0.75177 1.0083 0.0
C642 C 0.00372 0.78826 0.04809 0.0
C643 C 0.02952 0.83693 1.02612 0.0
C644 C 0.96467 0.78265 0.08275 0.0
C645 C 0.03628 0.77652 0.07368 0.0
C646 C 0.03595 0.7385 0.05271 0.0
C647 C 0.06422 0.72222 0.07088 0.0
C648 C 0.09435 0.74633 0.11016 0.0
C649 C 0.09614 0.78642 0.1303 0.0
C650 C 0.06586 0.8007 0.11232 0.0
H651 H 0.27787 0.03667 0.64411 0.0
H652 H 0.38077 0.1595 0.56925 0.0
H653 H 0.37297 0.11272 0.49571 0.0
H654 H 0.3119 0.95668 0.58931 0.0
H655 H 0.25315 0.91005 0.58445 0.0
H656 H 0.26893 0.95245 0.63277 0.0
H657 H 0.20524 0.96962 0.60489 0.0
H658 H 0.18922 0.92733 0.55654 0.0
H659 H 0.20464 0.98572 0.54225 0.0
H660 H 0.34933 0.05453 0.42776 0.0
H661 H 0.31249 0.98813 0.37063 0.0
H662 H 0.22682 0.90166 0.48906 0.0
C663 C 0.29935 0.05366 0.61255 0.0
C664 C 0.33006 0.10198 0.61274 0.0
C665 C 0.35698 0.12271 0.57026 0.0
C666 C 0.35288 0.09636 0.52822 0.0
C667 C 0.32189 0.04909 0.52901 0.0
C668 C 0.29572 0.02778 0.5701 0.0
C669 C 0.26349 0.97668 0.56036 0.0
C670 C 0.27508 0.94723 0.59371 0.0
C671 C 0.21265 0.96412 0.56636 0.0
C672 C 0.27518 0.97281 0.50716 0.0
C673 C 0.30902 0.01507 0.4899 0.0
C674 C 0.3234 0.02111 0.44108 0.0
C675 C 0.30231 0.98321 0.40888 0.0
C676 C 0.26752 0.93957 0.42556 0.0
C677 C 0.25432 0.93426 0.4756 0.0
H678 H 0.82977 0.6979 1.01159 0.0
H679 H 0.69436 0.59268 0.96408 0.0
H680 H 0.65971 0.60708 0.03793 0.0
H681 H 0.80434 0.6883 0.15207 0.0
H682 H 0.83717 0.74995 0.15938 0.0
H683 H 0.85522 0.72144 0.11509 0.0
H684 H 0.85419 0.77223 0.04604 0.0
H685 H 0.83706 0.80221 0.08863 0.0
H686 H 0.80246 0.77501 0.03511 0.0
H687 H 0.63843 0.64585 0.10323 0.0
H688 H 0.63209 0.7035 0.15512 0.0
H689 H 0.78121 0.78976 0.15424 0.0
C690 C 0.79327 0.67559 1.01899 0.0
C691 C 0.76473 0.64304 0.98348 0.0
C692 C 0.71676 0.61632 0.99203 0.0
C693 C 0.69688 0.62474 0.03368 0.0
C694 C 0.72557 0.66012 0.06596 0.0
C695 C 0.77304 0.68467 0.05954 0.0
C696 C 0.79528 0.72682 0.09292 0.0
C697 C 0.82478 0.72129 0.13216 0.0
C698 C 0.82387 0.77166 0.0639 0.0
C699 C 0.75272 0.72457 0.11564 0.0
C700 C 0.71306 0.68483 0.10137 0.0
C701 C 0.66933 0.67654 0.11538 0.0
C702 C 0.66606 0.70962 0.14456 0.0
C703 C 0.70619 0.75116 0.15818 0.0
C704 C 0.75002 0.75839 0.14396 0.0
H705 H 0.07112 0.72785 0.4505 0.0
H706 H 0.09273 0.86715 0.44577 0.0
H707 H 0.03705 0.84877 0.51302 0.0
H708 H 0.94862 0.67141 0.47551 0.0
H709 H 0.94888 0.62961 0.51627 0.0
H710 H 0.99092 0.65333 0.46757 0.0
H711 H 0.05697 0.6796 0.53066 0.0
H712 H 0.01514 0.65603 0.57958 0.0
H713 H 0.05988 0.71573 0.58168 0.0
H714 H 0.98083 0.81705 0.58055 0.0
H715 H 0.92414 0.7726 0.64401 0.0
H716 H 0.9365 0.65244 0.60606 0.0
C717 C 0.06415 0.75449 0.46356 0.0
C718 C 0.08646 0.79898 0.44265 0.0
C719 C 0.07613 0.83275 0.46084 0.0
C720 C 0.04459 0.82274 0.49921 0.0
C721 C 0.02342 0.77877 0.51899 0.0
C722 C 0.03246 0.74504 0.50185 0.0
C723 C 0.00433 0.70044 0.52968 0.0
C724 C 0.97122 0.66139 0.49519 0.0
C725 C 0.03598 0.68719 0.55702 0.0
C726 C 0.97818 0.71457 0.56507 0.0
C727 C 0.99001 0.75999 0.55815 0.0
C728 C 0.971 0.78135 0.58621 0.0
C729 C 0.93862 0.75556 0.62219 0.0
C730 C 0.92532 0.70864 0.62996 0.0
C731 C 0.94571 0.68806 0.60103 0.0
H732 H 0.32023 0.00187 0.89405 0.0
H733 H 0.40779 0.13455 0.96304 0.0
H734 H 0.41156 0.0948 0.03721 0.0
H735 H 0.24965 0.95927 0.98693 0.0
H736 H 0.23636 0.90018 0.98086 0.0
H737 H 0.25507 0.93673 0.92839 0.0
H738 H 0.32216 0.91997 0.91427 0.0
H739 H 0.30336 0.88287 0.96694 0.0
H740 H 0.362 0.92993 0.96319 0.0
H741 H 0.38931 0.04254 0.10946 0.0
H742 H 0.34019 0.98669 0.1721 0.0
H743 H 0.26052 0.88827 0.05876 0.0
C744 C 0.34205 0.02269 0.92392 0.0
C745 C 0.36394 0.07147 0.92256 0.0
C746 C 0.39149 0.09731 0.96268 0.0
C747 C 0.39355 0.07481 1.00513 0.0
C748 C 0.36807 0.02653 1.00674 0.0
C749 C 0.34304 0.0008 0.96677 0.0
C750 C 0.31066 0.9508 0.98027 0.0
C751 C 0.26 0.93595 0.96846 0.0
C752 C 0.32545 0.91902 0.95465 0.0
C753 C 0.31867 0.95281 0.03497 0.0
C754 C 0.35341 0.9963 0.04917 0.0
C755 C 0.36313 0.00816 0.0985 0.0
C756 C 0.3352 0.97604 0.13394 0.0
C757 C 0.29745 0.93272 0.12016 0.0
C758 C 0.29045 0.92025 0.07016 0.0
H759 H 0.32918 0.28695 0.60415 0.0
H760 H 0.19879 0.17507 0.65733 0.0
H761 H 0.15705 0.1953 0.59769 0.0
H762 H 0.28831 0.36817 0.57621 0.0
H763 H 0.32253 0.38833 0.52105 0.0
H764 H 0.34232 0.36841 0.57133 0.0
H765 H 0.34857 0.30981 0.51337 0.0
H766 H 0.32866 0.32939 0.463 0.0
H767 H 0.29868 0.26922 0.47888 0.0
H768 H 0.12959 0.22379 0.53019 0.0
H769 H 0.11706 0.25758 0.45698 0.0
H770 H 0.26508 0.35049 0.44344 0.0
C771 C 0.2918 0.26734 0.60392 0.0
C772 C 0.26715 0.22978 0.63608 0.0
C773 C 0.21833 0.20423 0.63358 0.0
C774 C 0.19433 0.21547 0.59978 0.0
C775 C 0.2196 0.25215 0.56824 0.0
C776 C 0.26722 0.27772 0.56977 0.0
C777 C 0.2859 0.31334 0.52923 0.0
C778 C 0.31127 0.36248 0.55075 0.0
C779 C 0.3173 0.30492 0.49405 0.0
C780 C 0.24131 0.30335 0.5044 0.0
C781 C 0.20362 0.26814 0.52798 0.0
C782 C 0.15879 0.2515 0.51151 0.0
C783 C 0.15215 0.27094 0.46955 0.0
C784 C 0.1901 0.30674 0.44398 0.0
C785 C 0.23533 0.32346 0.46217 0.0
H786 H 0.99532 0.30414 0.12449 0.0
H787 H 0.12388 0.35394 0.04445 0.0
H788 H 0.0818 0.34201 0.9665 0.0
H789 H 0.93352 0.21374 0.05378 0.0
H790 H 0.8796 0.21383 0.05619 0.0
H791 H 0.92017 0.23942 0.10532 0.0
H792 H 0.92197 0.31703 0.09422 0.0
H793 H 0.88032 0.29138 0.04559 0.0
H794 H 0.93437 0.34347 0.03473 0.0
H795 H 0.02404 0.30763 0.89855 0.0
H796 H 0.95747 0.25846 0.84628 0.0
H797 H 0.86528 0.22782 0.97099 0.0
C798 C 0.01495 0.31482 0.09062 0.0
C799 C 0.06292 0.33056 0.09035 0.0
C800 C 0.0874 0.34298 0.04548 0.0
C801 C 0.06359 0.3359 1.00107 0.0
C802 C 0.01556 0.31698 1.00248 0.0
C803 C 0.99163 0.30746 0.04632 0.0
C804 C 0.93977 0.28087 0.03836 0.0
C805 C 0.91698 0.23423 0.06497 0.0
C806 C 0.91782 0.30994 0.05416 0.0
C807 C 0.938 0.27433 0.98334 0.0
C808 C 0.98203 0.29628 0.96322 0.0
C809 C 0.98948 0.29133 0.91381 0.0
C810 C 0.95128 0.26292 0.88447 0.0
C811 C 0.90591 0.23917 0.90449 0.0
C812 C 0.89929 0.246 0.9544 0.0
H813 H 0.79629 0.09074 0.55041 0.0
H814 H 0.70633 0.03113 0.67623 0.0
H815 H 0.65657 0.9607 0.6272 0.0
H816 H 0.7062 0.04565 0.46049 0.0
H817 H 0.73654 0.03239 0.41445 0.0
H818 H 0.7682 0.08029 0.4559 0.0
H819 H 0.81936 0.0503 0.48565 0.0
H820 H 0.79245 0.00034 0.44631 0.0
H821 H 0.79462 0.99322 0.51092 0.0
H822 H 0.62058 0.89327 0.56393 0.0
H823 H 0.60151 0.8386 0.49422 0.0
H824 H 0.71485 0.94514 0.4108 0.0
C825 C 0.76569 0.06324 0.56756 0.0
C826 C 0.7551 0.0666 0.6171 0.0
C827 C 0.71481 0.02962 0.63809 0.0
C828 C 0.68646 0.98938 0.61054 0.0
C829 C 0.69843 0.98697 0.56181 0.0
C830 C 0.73683 0.02338 0.54057 0.0
C831 C 0.74353 0.01229 0.4884 0.0
C832 C 0.73845 0.04463 0.45271 0.0
C833 C 0.79032 0.01427 0.48251 0.0
C834 C 0.70373 0.96344 0.48343 0.0
C835 C 0.67777 0.94924 0.52598 0.0
C836 C 0.64047 0.90445 0.53032 0.0
C837 C 0.62986 0.87356 0.49043 0.0
C838 C 0.6564 0.88744 0.44656 0.0
C839 C 0.69342 0.93332 0.44331 0.0
loop_
_geom_bond_atom_site_label_1
_geom_bond_atom_site_label_2
_geom_bond_distance
_geom_bond_site_symmetry_2
_ccdc_geom_bond_type
Fe0 O1 1.886 . S
Fe0 O4 1.715 . S
Fe0 O9 2.077 . S
Fe0 O14 1.935 . S
Fe0 O20 2.077 . S
Fe0 O29 1.935 . S
O1 Fe0 1.886 . S
O1 Fe3 1.715 . S
Fe2 O4 1.886 . S
Fe2 O5 1.715 . S
Fe2 O12 1.935 . S
Fe2 O13 2.077 . S
Fe2 O19 1.935 . S
Fe2 O28 2.077 . S
Fe3 O1 1.715 . S
Fe3 O6 1.886 . S
Fe3 O10 1.935 . S
Fe3 O15 2.077 . S
Fe3 O21 1.935 . S
Fe3 O25 2.077 . S
O4 Fe0 1.715 . S
O4 Fe2 1.886 . S
O5 Fe2 1.715 . S
O5 Fe7 1.886 . S
O6 Fe3 1.886 . S
O6 Fe7 1.715 . S
Fe7 O5 1.886 . S
Fe7 O6 1.715 . S
Fe7 O11 2.077 . S
Fe7 O16 1.935 . S
Fe7 O18 2.077 . S
Fe7 O26 1.935 . S
C8 O20 1.381 . S
C8 O21 1.421 . S
O9 Fe0 2.077 . S
O9 C22 1.381 . S
O10 Fe3 1.935 . S
O10 C22 1.421 . S
O11 Fe7 2.077 . S
O11 C27 1.381 . S
O12 Fe2 1.935 . S
O12 C27 1.421 . S
O13 Fe2 2.077 . S
O13 C17 1.381 . S
O14 Fe0 1.935 . S
O14 C17 1.421 . S
O15 Fe3 2.077 . S
O15 C23 1.381 . S
O16 Fe7 1.935 . S
O16 C23 1.421 . S
C17 O13 1.381 . S
C17 O14 1.421 . S
O18 Fe7 2.077 . S
O18 C30 1.381 . S
O19 Fe2 1.935 . S
O19 C30 1.421 . S
O20 Fe0 2.077 . S
O20 C8 1.381 . S
O21 Fe3 1.935 . S
O21 C8 1.421 . S
C22 O9 1.381 . S
C22 O10 1.421 . S
C23 O15 1.381 . S
C23 O16 1.421 . S
C24 O25 1.381 . S
C24 O26 1.421 . S
O25 Fe3 2.077 . S
O25 C24 1.381 . S
O26 Fe7 1.935 . S
O26 C24 1.421 . S
C27 O11 1.381 . S
C27 O12 1.421 . S
O28 Fe2 2.077 . S
O28 C31 1.381 . S
O29 Fe0 1.935 . S
O29 C31 1.421 . S
C30 O18 1.381 . S
C30 O19 1.421 . S
C31 O28 1.381 . S
C31 O29 1.421 . S
Fe32 O33 1.886 . S
Fe32 O36 1.715 . S
Fe32 O41 2.077 . S
Fe32 O46 1.935 . S
Fe32 O52 2.077 . S
Fe32 O61 1.935 . S
O33 Fe32 1.886 . S
O33 Fe35 1.715 . S
Fe34 O36 1.886 . S
Fe34 O37 1.715 . S
Fe34 O44 1.935 . S
Fe34 O45 2.077 . S
Fe34 O51 1.935 . S
Fe34 O60 2.077 . S
Fe35 O33 1.715 . S
Fe35 O38 1.886 . S
Fe35 O42 1.935 . S
Fe35 O47 2.077 . S
Fe35 O53 1.935 . S
Fe35 O57 2.077 . S
O36 Fe32 1.715 . S
O36 Fe34 1.886 . S
O37 Fe34 1.715 . S
O37 Fe39 1.886 . S
O38 Fe35 1.886 . S
O38 Fe39 1.715 . S
Fe39 O37 1.886 . S
Fe39 O38 1.715 . S
Fe39 O43 2.077 . S
Fe39 O48 1.935 . S
Fe39 O50 2.077 . S
Fe39 O58 1.935 . S
C40 O52 1.381 . S
C40 O53 1.421 . S
O41 Fe32 2.077 . S
O41 C54 1.381 . S
O42 Fe35 1.935 . S
O42 C54 1.421 . S
O43 Fe39 2.077 . S
O43 C59 1.381 . S
O44 Fe34 1.935 . S
O44 C59 1.421 . S
O45 Fe34 2.077 . S
O45 C49 1.381 . S
O46 Fe32 1.935 . S
O46 C49 1.421 . S
O47 Fe35 2.077 . S
O47 C55 1.381 . S
O48 Fe39 1.935 . S
O48 C55 1.421 . S
C49 O45 1.381 . S
C49 O46 1.421 . S
O50 Fe39 2.077 . S
O50 C62 1.381 . S
O51 Fe34 1.935 . S
O51 C62 1.421 . S
O52 Fe32 2.077 . S
O52 C40 1.381 . S
O53 Fe35 1.935 . S
O53 C40 1.421 . S
C54 O41 1.381 . S
C54 O42 1.421 . S
C55 O47 1.381 . S
C55 O48 1.421 . S
C56 O57 1.381 . S
C56 O58 1.421 . S
O57 Fe35 2.077 . S
O57 C56 1.381 . S
O58 Fe39 1.935 . S
O58 C56 1.421 . S
C59 O43 1.381 . S
C59 O44 1.421 . S
O60 Fe34 2.077 . S
O60 C63 1.381 . S
O61 Fe32 1.935 . S
O61 C63 1.421 . S
C62 O50 1.381 . S
C62 O51 1.421 . S
C63 O60 1.381 . S
C63 O61 1.421 . S
Fe64 O65 1.886 . S
Fe64 O68 1.715 . S
Fe64 O73 2.077 . S
Fe64 O78 1.935 . S
Fe64 O84 2.077 . S
Fe64 O93 1.935 . S
O65 Fe64 1.886 . S
O65 Fe67 1.715 . S
Fe66 O68 1.886 . S
Fe66 O69 1.715 . S
Fe66 O76 1.935 . S
Fe66 O77 2.077 . S
Fe66 O83 1.935 . S
Fe66 O92 2.077 . S
Fe67 O65 1.715 . S
Fe67 O70 1.886 . S
Fe67 O74 1.935 . S
Fe67 O79 2.077 . S
Fe67 O85 1.935 . S
Fe67 O89 2.077 . S
O68 Fe64 1.715 . S
O68 Fe66 1.886 . S
O69 Fe66 1.715 . S
O69 Fe71 1.886 . S
O70 Fe67 1.886 . S
O70 Fe71 1.715 . S
Fe71 O69 1.886 . S
Fe71 O70 1.715 . S
Fe71 O75 2.077 . S
Fe71 O80 1.935 . S
Fe71 O82 2.077 . S
Fe71 O90 1.935 . S
C72 O84 1.381 . S
C72 O85 1.421 . S
O73 Fe64 2.077 . S
O73 C86 1.381 . S
O74 Fe67 1.935 . S
O74 C86 1.421 . S
O75 Fe71 2.077 . S
O75 C91 1.381 . S
O76 Fe66 1.935 . S
O76 C91 1.421 . S
O77 Fe66 2.077 . S
O77 C81 1.381 . S
O78 Fe64 1.935 . S
O78 C81 1.421 . S
O79 Fe67 2.077 . S
O79 C87 1.381 . S
O80 Fe71 1.935 . S
O80 C87 1.421 . S
C81 O77 1.381 . S
C81 O78 1.421 . S
O82 Fe71 2.077 . S
O82 C94 1.381 . S
O83 Fe66 1.935 . S
O83 C94 1.421 . S
O84 Fe64 2.077 . S
O84 C72 1.381 . S
O85 Fe67 1.935 . S
O85 C72 1.421 . S
C86 O73 1.381 . S
C86 O74 1.421 . S
C87 O79 1.381 . S
C87 O80 1.421 . S
C88 O89 1.381 . S
C88 O90 1.421 . S
O89 Fe67 2.077 . S
O89 C88 1.381 . S
O90 Fe71 1.935 . S
O90 C88 1.421 . S
C91 O75 1.381 . S
C91 O76 1.421 . S
O92 Fe66 2.077 . S
O92 C95 1.381 . S
O93 Fe64 1.935 . S
O93 C95 1.421 . S
C94 O82 1.381 . S
C94 O83 1.421 . S
C95 O92 1.381 . S
C95 O93 1.421 . S
Fe96 O97 1.886 . S
Fe96 O100 1.715 . S
Fe96 O105 2.077 . S
Fe96 O110 1.935 . S
Fe96 O116 2.077 . S
Fe96 O125 1.935 . S
O97 Fe96 1.886 . S
O97 Fe99 1.715 . S
Fe98 O100 1.886 . S
Fe98 O101 1.715 . S
Fe98 O108 1.935 . S
Fe98 O109 2.077 . S
Fe98 O115 1.935 . S
Fe98 O124 2.077 . S
Fe99 O97 1.715 . S
Fe99 O102 1.886 . S
Fe99 O106 1.935 . S
Fe99 O111 2.077 . S
Fe99 O117 1.935 . S
Fe99 O121 2.077 . S
O100 Fe96 1.715 . S
O100 Fe98 1.886 . S
O101 Fe98 1.715 . S
O101 Fe103 1.886 . S
O102 Fe99 1.886 . S
O102 Fe103 1.715 . S
Fe103 O101 1.886 . S
Fe103 O102 1.715 . S
Fe103 O107 2.077 . S
Fe103 O112 1.935 . S
Fe103 O114 2.077 . S
Fe103 O122 1.935 . S
C104 O116 1.381 . S
C104 O117 1.421 . S
O105 Fe96 2.077 . S
O105 C118 1.381 . S
O106 Fe99 1.935 . S
O106 C118 1.421 . S
O107 Fe103 2.077 . S
O107 C123 1.381 . S
O108 Fe98 1.935 . S
O108 C123 1.421 . S
O109 Fe98 2.077 . S
O109 C113 1.381 . S
O110 Fe96 1.935 . S
O110 C113 1.421 . S
O111 Fe99 2.077 . S
O111 C119 1.381 . S
O112 Fe103 1.935 . S
O112 C119 1.421 . S
C113 O109 1.381 . S
C113 O110 1.421 . S
O114 Fe103 2.077 . S
O114 C126 1.381 . S
O115 Fe98 1.935 . S
O115 C126 1.421 . S
O116 Fe96 2.077 . S
O116 C104 1.381 . S
O117 Fe99 1.935 . S
O117 C104 1.421 . S
C118 O105 1.381 . S
C118 O106 1.421 . S
C119 O111 1.381 . S
C119 O112 1.421 . S
C120 O121 1.381 . S
C120 O122 1.421 . S
O121 Fe99 2.077 . S
O121 C120 1.381 . S
O122 Fe103 1.935 . S
O122 C120 1.421 . S
C123 O107 1.381 . S
C123 O108 1.421 . S
O124 Fe98 2.077 . S
O124 C127 1.381 . S
O125 Fe96 1.935 . S
O125 C127 1.421 . S
C126 O114 1.381 . S
C126 O115 1.421 . S
C127 O124 1.381 . S
C127 O125 1.421 . S
Fe128 O129 1.886 . S
Fe128 O132 1.715 . S
Fe128 O137 2.077 . S
Fe128 O142 1.935 . S
Fe128 O148 2.077 . S
Fe128 O157 1.935 . S
O129 Fe128 1.886 . S
O129 Fe131 1.715 . S
Fe130 O132 1.886 . S
Fe130 O133 1.715 . S
Fe130 O140 1.935 . S
Fe130 O141 2.077 . S
Fe130 O147 1.935 . S
Fe130 O156 2.077 . S
Fe131 O129 1.715 . S
Fe131 O134 1.886 . S
Fe131 O138 1.935 . S
Fe131 O143 2.077 . S
Fe131 O149 1.935 . S
Fe131 O153 2.077 . S
O132 Fe128 1.715 . S
O132 Fe130 1.886 . S
O133 Fe130 1.715 . S
O133 Fe135 1.886 . S
O134 Fe131 1.886 . S
O134 Fe135 1.715 . S
Fe135 O133 1.886 . S
Fe135 O134 1.715 . S
Fe135 O139 2.077 . S
Fe135 O144 1.935 . S
Fe135 O146 2.077 . S
Fe135 O154 1.935 . S
C136 O148 1.381 . S
C136 O149 1.421 . S
O137 Fe128 2.077 . S
O137 C150 1.381 . S
O138 Fe131 1.935 . S
O138 C150 1.421 . S
O139 Fe135 2.077 . S
O139 C155 1.381 . S
O140 Fe130 1.935 . S
O140 C155 1.421 . S
O141 Fe130 2.077 . S
O141 C145 1.381 . S
O142 Fe128 1.935 . S
O142 C145 1.421 . S
O143 Fe131 2.077 . S
O143 C151 1.381 . S
O144 Fe135 1.935 . S
O144 C151 1.421 . S
C145 O141 1.381 . S
C145 O142 1.421 . S
O146 Fe135 2.077 . S
O146 C158 1.381 . S
O147 Fe130 1.935 . S
O147 C158 1.421 . S
O148 Fe128 2.077 . S
O148 C136 1.381 . S
O149 Fe131 1.935 . S
O149 C136 1.421 . S
C150 O137 1.381 . S
C150 O138 1.421 . S
C151 O143 1.381 . S
C151 O144 1.421 . S
C152 O153 1.381 . S
C152 O154 1.421 . S
O153 Fe131 2.077 . S
O153 C152 1.381 . S
O154 Fe135 1.935 . S
O154 C152 1.421 . S
C155 O139 1.381 . S
C155 O140 1.421 . S
O156 Fe130 2.077 . S
O156 C159 1.381 . S
O157 Fe128 1.935 . S
O157 C159 1.421 . S
C158 O146 1.381 . S
C158 O147 1.421 . S
C159 O156 1.381 . S
C159 O157 1.421 . S
Fe160 O161 1.886 . S
Fe160 O164 1.715 . S
Fe160 O169 2.077 . S
Fe160 O174 1.935 . S
Fe160 O180 2.077 . S
Fe160 O189 1.935 . S
O161 Fe160 1.886 . S
O161 Fe163 1.715 . S
Fe162 O164 1.886 . S
Fe162 O165 1.715 . S
Fe162 O172 1.935 . S
Fe162 O173 2.077 . S
Fe162 O179 1.935 . S
Fe162 O188 2.077 . S
Fe163 O161 1.715 . S
Fe163 O166 1.886 . S
Fe163 O170 1.935 . S
Fe163 O175 2.077 . S
Fe163 O181 1.935 . S
Fe163 O185 2.077 . S
O164 Fe160 1.715 . S
O164 Fe162 1.886 . S
O165 Fe162 1.715 . S
O165 Fe167 1.886 . S
O166 Fe163 1.886 . S
O166 Fe167 1.715 . S
Fe167 O165 1.886 . S
Fe167 O166 1.715 . S
Fe167 O171 2.077 . S
Fe167 O176 1.935 . S
Fe167 O178 2.077 . S
Fe167 O186 1.935 . S
C168 O180 1.381 . S
C168 O181 1.421 . S
O169 Fe160 2.077 . S
O169 C182 1.381 . S
O170 Fe163 1.935 . S
O170 C182 1.421 . S
O171 Fe167 2.077 . S
O171 C187 1.381 . S
O172 Fe162 1.935 . S
O172 C187 1.421 . S
O173 Fe162 2.077 . S
O173 C177 1.381 . S
O174 Fe160 1.935 . S
O174 C177 1.421 . S
O175 Fe163 2.077 . S
O175 C183 1.381 . S
O176 Fe167 1.935 . S
O176 C183 1.421 . S
C177 O173 1.381 . S
C177 O174 1.421 . S
O178 Fe167 2.077 . S
O178 C190 1.381 . S
O179 Fe162 1.935 . S
O179 C190 1.421 . S
O180 Fe160 2.077 . S
O180 C168 1.381 . S
O181 Fe163 1.935 . S
O181 C168 1.421 . S
C182 O169 1.381 . S
C182 O170 1.421 . S
C183 O175 1.381 . S
C183 O176 1.421 . S
C184 O185 1.381 . S
C184 O186 1.421 . S
O185 Fe163 2.077 . S
O185 C184 1.381 . S
O186 Fe167 1.935 . S
O186 C184 1.421 . S
C187 O171 1.381 . S
C187 O172 1.421 . S
O188 Fe162 2.077 . S
O188 C191 1.381 . S
O189 Fe160 1.935 . S
O189 C191 1.421 . S
C190 O178 1.381 . S
C190 O179 1.421 . S
C191 O188 1.381 . S
C191 O189 1.421 . S
H192 C204 0.930 . S
H193 C206 0.930 . S
H194 C207 0.930 . S
H195 C211 0.959 . S
H196 C211 0.959 . S
H197 C211 0.961 . S
H198 C212 0.960 . S
H199 C212 0.961 . S
H200 C212 0.959 . S
H201 C215 0.929 . S
H202 C216 0.931 . S
H203 C218 0.930 . S
C204 H192 0.930 . S
C204 C205 1.399 . S
C204 C209 1.399 . S
C205 C204 1.399 . S
C205 C206 1.376 . S
C206 H193 0.930 . S
C206 C205 1.376 . S
C206 C207 1.388 . S
C207 H194 0.930 . S
C207 C206 1.388 . S
C207 C208 1.390 . S
C208 C207 1.390 . S
C208 C209 1.394 . S
C208 C214 1.465 . S
C209 C204 1.399 . S
C209 C208 1.394 . S
C209 C210 1.516 . S
C210 C209 1.516 . S
C210 C211 1.502 . S
C210 C212 1.561 . S
C210 C213 1.526 . S
C211 H195 0.959 . S
C211 H196 0.959 . S
C211 H197 0.961 . S
C211 C210 1.502 . S
C212 H198 0.960 . S
C212 H199 0.961 . S
C212 H200 0.959 . S
C212 C210 1.561 . S
C213 C210 1.526 . S
C213 C214 1.396 . S
C213 C218 1.390 . S
C214 C208 1.465 . S
C214 C213 1.396 . S
C214 C215 1.399 . S
C215 H201 0.929 . S
C215 C214 1.399 . S
C215 C216 1.385 . S
C216 H202 0.931 . S
C216 C215 1.385 . S
C216 C217 1.389 . S
C217 C216 1.389 . S
C217 C218 1.387 . S
C218 H203 0.930 . S
C218 C213 1.390 . S
C218 C217 1.387 . S
H219 C231 0.930 . S
H220 C233 0.930 . S
H221 C234 0.930 . S
H222 C238 0.959 . S
H223 C238 0.959 . S
H224 C238 0.961 . S
H225 C239 0.960 . S
H226 C239 0.961 . S
H227 C239 0.959 . S
H228 C242 0.929 . S
H229 C243 0.931 . S
H230 C245 0.930 . S
C231 H219 0.930 . S
C231 C232 1.399 . S
C231 C236 1.399 . S
C232 C231 1.399 . S
C232 C233 1.376 . S
C233 H220 0.930 . S
C233 C232 1.376 . S
C233 C234 1.388 . S
C234 H221 0.930 . S
C234 C233 1.388 . S
C234 C235 1.390 . S
C235 C234 1.390 . S
C235 C236 1.394 . S
C235 C241 1.465 . S
C236 C231 1.399 . S
C236 C235 1.394 . S
C236 C237 1.516 . S
C237 C236 1.516 . S
C237 C238 1.502 . S
C237 C239 1.561 . S
C237 C240 1.526 . S
C238 H222 0.959 . S
C238 H223 0.959 . S
C238 H224 0.961 . S
C238 C237 1.502 . S
C239 H225 0.960 . S
C239 H226 0.961 . S
C239 H227 0.959 . S
C239 C237 1.561 . S
C240 C237 1.526 . S
C240 C241 1.396 . S
C240 C245 1.390 . S
C241 C235 1.465 . S
C241 C240 1.396 . S
C241 C242 1.399 . S
C242 H228 0.929 . S
C242 C241 1.399 . S
C242 C243 1.385 . S
C243 H229 0.931 . S
C243 C242 1.385 . S
C243 C244 1.389 . S
C244 C243 1.389 . S
C244 C245 1.387 . S
C245 H230 0.930 . S
C245 C240 1.390 . S
C245 C244 1.387 . S
H246 C258 0.930 . S
H247 C260 0.930 . S
H248 C261 0.930 . S
H249 C265 0.959 . S
H250 C265 0.959 . S
H251 C265 0.961 . S
H252 C266 0.960 . S
H253 C266 0.961 . S
H254 C266 0.959 . S
H255 C269 0.929 . S
H256 C270 0.931 . S
H257 C272 0.930 . S
C258 H246 0.930 . S
C258 C259 1.399 . S
C258 C263 1.399 . S
C259 C258 1.399 . S
C259 C260 1.376 . S
C260 H247 0.930 . S
C260 C259 1.376 . S
C260 C261 1.388 . S
C261 H248 0.930 . S
C261 C260 1.388 . S
C261 C262 1.390 . S
C262 C261 1.390 . S
C262 C263 1.394 . S
C262 C268 1.465 . S
C263 C258 1.399 . S
C263 C262 1.394 . S
C263 C264 1.516 . S
C264 C263 1.516 . S
C264 C265 1.502 . S
C264 C266 1.561 . S
C264 C267 1.526 . S
C265 H249 0.959 . S
C265 H250 0.959 . S
C265 H251 0.961 . S
C265 C264 1.502 . S
C266 H252 0.960 . S
C266 H253 0.961 . S
C266 H254 0.959 . S
C266 C264 1.561 . S
C267 C264 1.526 . S
C267 C268 1.396 . S
C267 C272 1.390 . S
C268 C262 1.465 . S
C268 C267 1.396 . S
C268 C269 1.399 . S
C269 H255 0.929 . S
C269 C268 1.399 . S
C269 C270 1.385 . S
C270 H256 0.931 . S
C270 C269 1.385 . S
C270 C271 1.389 . S
C271 C270 1.389 . S
C271 C272 1.387 . S
C272 H257 0.930 . S
C272 C267 1.390 . S
C272 C271 1.387 . S
H273 C285 0.930 . S
H274 C287 0.930 . S
H275 C288 0.930 . S
H276 C292 0.959 . S
H277 C292 0.959 . S
H278 C292 0.961 . S
H279 C293 0.960 . S
H280 C293 0.961 . S
H281 C293 0.959 . S
H282 C296 0.929 . S
H283 C297 0.931 . S
H284 C299 0.930 . S
C285 H273 0.930 . S
C285 C286 1.399 . S
C285 C290 1.399 . S
C286 C285 1.399 . S
C286 C287 1.376 . S
C287 H274 0.930 . S
C287 C286 1.376 . S
C287 C288 1.388 . S
C288 H275 0.930 . S
C288 C287 1.388 . S
C288 C289 1.390 . S
C289 C288 1.390 . S
C289 C290 1.394 . S
C289 C295 1.465 . S
C290 C285 1.399 . S
C290 C289 1.394 . S
C290 C291 1.516 . S
C291 C290 1.516 . S
C291 C292 1.502 . S
C291 C293 1.561 . S
C291 C294 1.526 . S
C292 H276 0.959 . S
C292 H277 0.959 . S
C292 H278 0.961 . S
C292 C291 1.502 . S
C293 H279 0.960 . S
C293 H280 0.961 . S
C293 H281 0.959 . S
C293 C291 1.561 . S
C294 C291 1.526 . S
C294 C295 1.396 . S
C294 C299 1.390 . S
C295 C289 1.465 . S
C295 C294 1.396 . S
C295 C296 1.399 . S
C296 H282 0.929 . S
C296 C295 1.399 . S
C296 C297 1.385 . S
C297 H283 0.931 . S
C297 C296 1.385 . S
C297 C298 1.389 . S
C298 C297 1.389 . S
C298 C299 1.387 . S
C299 H284 0.930 . S
C299 C294 1.390 . S
C299 C298 1.387 . S
H300 C312 0.930 . S
H301 C314 0.930 . S
H302 C315 0.930 . S
H303 C319 0.959 . S
H304 C319 0.959 . S
H305 C319 0.961 . S
H306 C320 0.960 . S
H307 C320 0.961 . S
H308 C320 0.959 . S
H309 C323 0.929 . S
H310 C324 0.931 . S
H311 C326 0.930 . S
C312 H300 0.930 . S
C312 C313 1.399 . S
C312 C317 1.399 . S
C313 C312 1.399 . S
C313 C314 1.376 . S
C314 H301 0.930 . S
C314 C313 1.376 . S
C314 C315 1.388 . S
C315 H302 0.930 . S
C315 C314 1.388 . S
C315 C316 1.390 . S
C316 C315 1.390 . S
C316 C317 1.394 . S
C316 C322 1.465 . S
C317 C312 1.399 . S
C317 C316 1.394 . S
C317 C318 1.516 . S
C318 C317 1.516 . S
C318 C319 1.502 . S
C318 C320 1.561 . S
C318 C321 1.526 . S
C319 H303 0.959 . S
C319 H304 0.959 . S
C319 H305 0.961 . S
C319 C318 1.502 . S
C320 H306 0.960 . S
C320 H307 0.961 . S
C320 H308 0.959 . S
C320 C318 1.561 . S
C321 C318 1.526 . S
C321 C322 1.396 . S
C321 C326 1.390 . S
C322 C316 1.465 . S
C322 C321 1.396 . S
C322 C323 1.399 . S
C323 H309 0.929 . S
C323 C322 1.399 . S
C323 C324 1.385 . S
C324 H310 0.931 . S
C324 C323 1.385 . S
C324 C325 1.389 . S
C325 C324 1.389 . S
C325 C326 1.387 . S
C326 H311 0.930 . S
C326 C321 1.390 . S
C326 C325 1.387 . S
H327 C339 0.930 . S
H328 C341 0.930 . S
H329 C342 0.930 . S
H330 C346 0.959 . S
H331 C346 0.959 . S
H332 C346 0.961 . S
H333 C347 0.960 . S
H334 C347 0.961 . S
H335 C347 0.959 . S
H336 C350 0.929 . S
H337 C351 0.931 . S
H338 C353 0.930 . S
C339 H327 0.930 . S
C339 C340 1.399 . S
C339 C344 1.399 . S
C340 C339 1.399 . S
C340 C341 1.376 . S
C341 H328 0.930 . S
C341 C340 1.376 . S
C341 C342 1.388 . S
C342 H329 0.930 . S
C342 C341 1.388 . S
C342 C343 1.390 . S
C343 C342 1.390 . S
C343 C344 1.394 . S
C343 C349 1.465 . S
C344 C339 1.399 . S
C344 C343 1.394 . S
C344 C345 1.516 . S
C345 C344 1.516 . S
C345 C346 1.502 . S
C345 C347 1.561 . S
C345 C348 1.526 . S
C346 H330 0.959 . S
C346 H331 0.959 . S
C346 H332 0.961 . S
C346 C345 1.502 . S
C347 H333 0.960 . S
C347 H334 0.961 . S
C347 H335 0.959 . S
C347 C345 1.561 . S
C348 C345 1.526 . S
C348 C349 1.396 . S
C348 C353 1.390 . S
C349 C343 1.465 . S
C349 C348 1.396 . S
C349 C350 1.399 . S
C350 H336 0.929 . S
C350 C349 1.399 . S
C350 C351 1.385 . S
C351 H337 0.931 . S
C351 C350 1.385 . S
C351 C352 1.389 . S
C352 C351 1.389 . S
C352 C353 1.387 . S
C353 H338 0.930 . S
C353 C348 1.390 . S
C353 C352 1.387 . S
H354 C366 0.930 . S
H355 C368 0.930 . S
H356 C369 0.930 . S
H357 C373 0.959 . S
H358 C373 0.959 . S
H359 C373 0.961 . S
H360 C374 0.960 . S
H361 C374 0.961 . S
H362 C374 0.959 . S
H363 C377 0.929 . S
H364 C378 0.931 1_565 S
H365 C380 0.930 1_565 S
C366 H354 0.930 . S
C366 C367 1.399 . S
C366 C371 1.399 . S
C367 C366 1.399 . S
C367 C368 1.376 . S
C368 H355 0.930 . S
C368 C367 1.376 . S
C368 C369 1.388 . S
C369 H356 0.930 . S
C369 C368 1.388 . S
C369 C370 1.390 . S
C370 C369 1.390 . S
C370 C371 1.394 . S
C370 C376 1.465 . S
C371 C366 1.399 . S
C371 C370 1.394 . S
C371 C372 1.516 . S
C372 C371 1.516 . S
C372 C373 1.502 . S
C372 C374 1.561 . S
C372 C375 1.526 . S
C373 H357 0.959 . S
C373 H358 0.959 . S
C373 H359 0.961 . S
C373 C372 1.502 . S
C374 H360 0.960 . S
C374 H361 0.961 . S
C374 H362 0.959 . S
C374 C372 1.561 . S
C375 C372 1.526 . S
C375 C376 1.396 . S
C375 C380 1.390 . S
C376 C370 1.465 . S
C376 C375 1.396 . S
C376 C377 1.399 . S
C377 H363 0.929 . S
C377 C376 1.399 . S
C377 C378 1.385 . S
C378 H364 0.931 1_545 S
C378 C377 1.385 . S
C378 C379 1.389 1_545 S
C379 C378 1.389 1_565 S
C379 C380 1.387 1_565 S
C380 H365 0.930 1_545 S
C380 C375 1.390 . S
C380 C379 1.387 1_545 S
H381 C393 0.930 . S
H382 C395 0.930 . S
H383 C396 0.930 . S
H384 C400 0.959 . S
H385 C400 0.959 . S
H386 C400 0.961 . S
H387 C401 0.960 . S
H388 C401 0.961 . S
H389 C401 0.959 . S
H390 C404 0.929 . S
H391 C405 0.931 . S
H392 C407 0.930 . S
C393 H381 0.930 . S
C393 C394 1.399 . S
C393 C398 1.399 1_655 S
C394 C393 1.399 . S
C394 C395 1.376 1_655 S
C395 H382 0.930 . S
C395 C394 1.376 1_455 S
C395 C396 1.388 . S
C396 H383 0.930 . S
C396 C395 1.388 . S
C396 C397 1.390 . S
C397 C396 1.390 . S
C397 C398 1.394 . S
C397 C403 1.465 . S
C398 C393 1.399 1_455 S
C398 C397 1.394 . S
C398 C399 1.516 . S
C399 C398 1.516 . S
C399 C400 1.502 . S
C399 C401 1.561 . S
C399 C402 1.526 . S
C400 H384 0.959 . S
C400 H385 0.959 . S
C400 H386 0.961 . S
C400 C399 1.502 . S
C401 H387 0.960 . S
C401 H388 0.961 . S
C401 H389 0.959 . S
C401 C399 1.561 . S
C402 C399 1.526 . S
C402 C403 1.396 . S
C402 C407 1.390 . S
C403 C397 1.465 . S
C403 C402 1.396 . S
C403 C404 1.399 . S
C404 H390 0.929 . S
C404 C403 1.399 . S
C404 C405 1.385 . S
C405 H391 0.931 . S
C405 C404 1.385 . S
C405 C406 1.389 . S
C406 C405 1.389 . S
C406 C407 1.387 . S
C407 H392 0.930 . S
C407 C402 1.390 . S
C407 C406 1.387 . S
H408 C420 0.930 1_455 S
H409 C422 0.930 1_455 S
H410 C423 0.930 . S
H411 C427 0.959 . S
H412 C427 0.959 . S
H413 C427 0.961 . S
H414 C428 0.960 . S
H415 C428 0.961 . S
H416 C428 0.959 . S
H417 C431 0.929 . S
H418 C432 0.931 1_565 S
H419 C434 0.930 1_565 S
C420 H408 0.930 1_655 S
C420 C421 1.399 1_655 S
C420 C425 1.399 . S
C421 C420 1.399 1_455 S
C421 C422 1.376 1_455 S
C422 H409 0.930 1_655 S
C422 C421 1.376 1_655 S
C422 C423 1.388 . S
C423 H410 0.930 . S
C423 C422 1.388 . S
C423 C424 1.390 . S
C424 C423 1.390 . S
C424 C425 1.394 . S
C424 C430 1.465 . S
C425 C420 1.399 . S
C425 C424 1.394 . S
C425 C426 1.516 . S
C426 C425 1.516 . S
C426 C427 1.502 . S
C426 C428 1.561 . S
C426 C429 1.526 . S
C427 H411 0.959 . S
C427 H412 0.959 . S
C427 H413 0.961 . S
C427 C426 1.502 . S
C428 H414 0.960 . S
C428 H415 0.961 . S
C428 H416 0.959 . S
C428 C426 1.561 . S
C429 C426 1.526 . S
C429 C430 1.396 . S
C429 C434 1.390 . S
C430 C424 1.465 . S
C430 C429 1.396 . S
C430 C431 1.399 . S
C431 H417 0.929 . S
C431 C430 1.399 . S
C431 C432 1.385 . S
C432 H418 0.931 1_545 S
C432 C431 1.385 . S
C432 C433 1.389 1_545 S
C433 C432 1.389 1_565 S
C433 C434 1.387 1_565 S
C434 H419 0.930 1_545 S
C434 C429 1.390 . S
C434 C433 1.387 1_545 S
H435 C447 0.930 1_545 S
H436 C449 0.930 1_545 S
H437 C450 0.930 . S
H438 C454 0.959 . S
H439 C454 0.959 . S
H440 C454 0.961 . S
H441 C455 0.960 . S
H442 C455 0.961 . S
H443 C455 0.959 . S
H444 C458 0.929 . S
H445 C459 0.931 . S
H446 C461 0.930 . S
C447 H435 0.930 1_565 S
C447 C448 1.399 1_565 S
C447 C452 1.399 . S
C448 C447 1.399 1_545 S
C448 C449 1.376 1_545 S
C449 H436 0.930 1_565 S
C449 C448 1.376 1_565 S
C449 C450 1.388 . S
C450 H437 0.930 . S
C450 C449 1.388 . S
C450 C451 1.390 . S
C451 C450 1.390 . S
C451 C452 1.394 . S
C451 C457 1.465 . S
C452 C447 1.399 . S
C452 C451 1.394 . S
C452 C453 1.516 . S
C453 C452 1.516 . S
C453 C454 1.502 . S
C453 C455 1.561 . S
C453 C456 1.526 . S
C454 H438 0.959 . S
C454 H439 0.959 . S
C454 H440 0.961 . S
C454 C453 1.502 . S
C455 H441 0.960 . S
C455 H442 0.961 . S
C455 H443 0.959 . S
C455 C453 1.561 . S
C456 C453 1.526 . S
C456 C457 1.396 . S
C456 C461 1.390 . S
C457 C451 1.465 . S
C457 C456 1.396 . S
C457 C458 1.399 . S
C458 H444 0.929 . S
C458 C457 1.399 . S
C458 C459 1.385 . S
C459 H445 0.931 . S
C459 C458 1.385 . S
C459 C460 1.389 . S
C460 C459 1.389 . S
C460 C461 1.387 . S
C461 H446 0.930 . S
C461 C456 1.390 . S
C461 C460 1.387 . S
H462 C474 0.930 . S
H463 C476 0.930 . S
H464 C477 0.930 . S
H465 C481 0.959 . S
H466 C481 0.959 . S
H467 C481 0.961 . S
H468 C482 0.960 . S
H469 C482 0.961 . S
H470 C482 0.959 . S
H471 C485 0.929 . S
H472 C486 0.931 . S
H473 C488 0.930 . S
C474 H462 0.930 . S
C474 C475 1.399 . S
C474 C479 1.399 . S
C475 C474 1.399 . S
C475 C476 1.376 . S
C476 H463 0.930 . S
C476 C475 1.376 . S
C476 C477 1.388 . S
C477 H464 0.930 . S
C477 C476 1.388 . S
C477 C478 1.390 . S
C478 C477 1.390 . S
C478 C479 1.394 . S
C478 C484 1.465 . S
C479 C474 1.399 . S
C479 C478 1.394 . S
C479 C480 1.516 . S
C480 C479 1.516 . S
C480 C481 1.502 . S
C480 C482 1.561 . S
C480 C483 1.526 . S
C481 H465 0.959 . S
C481 H466 0.959 . S
C481 H467 0.961 . S
C481 C480 1.502 . S
C482 H468 0.960 . S
C482 H469 0.961 . S
C482 H470 0.959 . S
C482 C480 1.561 . S
C483 C480 1.526 . S
C483 C484 1.396 . S
C483 C488 1.390 . S
C484 C478 1.465 . S
C484 C483 1.396 . S
C484 C485 1.399 . S
C485 H471 0.929 . S
C485 C484 1.399 . S
C485 C486 1.385 1_655 S
C486 H472 0.931 . S
C486 C485 1.385 1_455 S
C486 C487 1.389 . S
C487 C486 1.389 . S
C487 C488 1.387 1_455 S
C488 H473 0.930 . S
C488 C483 1.390 . S
C488 C487 1.387 1_655 S
H489 C501 0.930 . S
H490 C503 0.930 . S
H491 C504 0.930 . S
H492 C508 0.959 . S
H493 C508 0.959 . S
H494 C508 0.961 . S
H495 C509 0.960 . S
H496 C509 0.961 . S
H497 C509 0.959 . S
H498 C512 0.929 . S
H499 C513 0.931 . S
H500 C515 0.930 . S
C501 H489 0.930 . S
C501 C502 1.399 1_565 S
C501 C506 1.399 . S
C502 C501 1.399 1_545 S
C502 C503 1.376 . S
C503 H490 0.930 . S
C503 C502 1.376 . S
C503 C504 1.388 1_545 S
C504 H491 0.930 . S
C504 C503 1.388 1_565 S
C504 C505 1.390 . S
C505 C504 1.390 . S
C505 C506 1.394 . S
C505 C511 1.465 . S
C506 C501 1.399 . S
C506 C505 1.394 . S
C506 C507 1.516 . S
C507 C506 1.516 . S
C507 C508 1.502 . S
C507 C509 1.561 . S
C507 C510 1.526 . S
C508 H492 0.959 . S
C508 H493 0.959 . S
C508 H494 0.961 . S
C508 C507 1.502 . S
C509 H495 0.960 . S
C509 H496 0.961 . S
C509 H497 0.959 . S
C509 C507 1.561 . S
C510 C507 1.526 . S
C510 C511 1.396 . S
C510 C515 1.390 . S
C511 C505 1.465 . S
C511 C510 1.396 . S
C511 C512 1.399 . S
C512 H498 0.929 . S
C512 C511 1.399 . S
C512 C513 1.385 1_455 S
C513 H499 0.931 . S
C513 C512 1.385 1_655 S
C513 C514 1.389 . S
C514 C513 1.389 . S
C514 C515 1.387 1_655 S
C515 H500 0.930 . S
C515 C510 1.390 . S
C515 C514 1.387 1_455 S
H516 C528 0.930 . S
H517 C530 0.930 . S
H518 C531 0.930 . S
H519 C535 0.959 1_554 S
H520 C535 0.959 . S
H521 C535 0.961 1_554 S
H522 C536 0.960 . S
H523 C536 0.961 . S
H524 C536 0.959 . S
H525 C539 0.929 . S
H526 C540 0.931 . S
H527 C542 0.930 . S
C528 H516 0.930 . S
C528 C529 1.399 . S
C528 C533 1.399 . S
C529 C528 1.399 . S
C529 C530 1.376 . S
C530 H517 0.930 . S
C530 C529 1.376 . S
C530 C531 1.388 . S
C531 H518 0.930 . S
C531 C530 1.388 . S
C531 C532 1.390 . S
C532 C531 1.390 . S
C532 C533 1.394 . S
C532 C538 1.465 1_554 S
C533 C528 1.399 . S
C533 C532 1.394 . S
C533 C534 1.516 1_554 S
C534 C533 1.516 1_556 S
C534 C535 1.502 . S
C534 C536 1.561 . S
C534 C537 1.526 . S
C535 H519 0.959 1_556 S
C535 H520 0.959 . S
C535 H521 0.961 1_556 S
C535 C534 1.502 . S
C536 H522 0.960 . S
C536 H523 0.961 . S
C536 H524 0.959 . S
C536 C534 1.561 . S
C537 C534 1.526 . S
C537 C538 1.396 . S
C537 C542 1.390 . S
C538 C532 1.465 1_556 S
C538 C537 1.396 . S
C538 C539 1.399 . S
C539 H525 0.929 . S
C539 C538 1.399 . S
C539 C540 1.385 . S
C540 H526 0.931 . S
C540 C539 1.385 . S
C540 C541 1.389 . S
C541 C540 1.389 . S
C541 C542 1.387 . S
C542 H527 0.930 . S
C542 C537 1.390 . S
C542 C541 1.387 . S
H543 C555 0.930 . S
H544 C557 0.930 . S
H545 C558 0.930 . S
H546 C562 0.959 . S
H547 C562 0.959 . S
H548 C562 0.961 . S
H549 C563 0.960 . S
H550 C563 0.961 . S
H551 C563 0.959 . S
H552 C566 0.929 . S
H553 C567 0.931 . S
H554 C569 0.930 . S
C555 H543 0.930 . S
C555 C556 1.399 . S
C555 C560 1.399 . S
C556 C555 1.399 . S
C556 C557 1.376 . S
C557 H544 0.930 . S
C557 C556 1.376 . S
C557 C558 1.388 . S
C558 H545 0.930 . S
C558 C557 1.388 . S
C558 C559 1.390 . S
C559 C558 1.390 . S
C559 C560 1.394 . S
C559 C565 1.465 . S
C560 C555 1.399 . S
C560 C559 1.394 . S
C560 C561 1.516 1_655 S
C561 C560 1.516 1_455 S
C561 C562 1.502 . S
C561 C563 1.561 . S
C561 C564 1.526 . S
C562 H546 0.959 . S
C562 H547 0.959 . S
C562 H548 0.961 . S
C562 C561 1.502 . S
C563 H549 0.960 . S
C563 H550 0.961 . S
C563 H551 0.959 . S
C563 C561 1.561 . S
C564 C561 1.526 . S
C564 C565 1.396 1_455 S
C564 C569 1.390 . S
C565 C559 1.465 . S
C565 C564 1.396 1_655 S
C565 C566 1.399 . S
C566 H552 0.929 . S
C566 C565 1.399 . S
C566 C567 1.385 1_655 S
C567 H553 0.931 . S
C567 C566 1.385 1_455 S
C567 C568 1.389 . S
C568 C567 1.389 . S
C568 C569 1.387 . S
C569 H554 0.930 . S
C569 C564 1.390 . S
C569 C568 1.387 . S
H570 C582 0.930 . S
H571 C584 0.930 . S
H572 C585 0.930 1_556 S
H573 C589 0.959 . S
H574 C589 0.959 . S
H575 C589 0.961 . S
H576 C590 0.960 . S
H577 C590 0.961 . S
H578 C590 0.959 . S
H579 C593 0.929 . S
H580 C594 0.931 . S
H581 C596 0.930 . S
C582 H570 0.930 . S
C582 C583 1.399 . S
C582 C587 1.399 . S
C583 C582 1.399 . S
C583 C584 1.376 . S
C584 H571 0.930 . S
C584 C583 1.376 . S
C584 C585 1.388 . S
C585 H572 0.930 1_554 S
C585 C584 1.388 . S
C585 C586 1.390 . S
C586 C585 1.390 . S
C586 C587 1.394 . S
C586 C592 1.465 1_554 S
C587 C582 1.399 . S
C587 C586 1.394 . S
C587 C588 1.516 1_565 S
C588 C587 1.516 1_545 S
C588 C589 1.502 . S
C588 C590 1.561 . S
C588 C591 1.526 1_554 S
C589 H573 0.959 . S
C589 H574 0.959 . S
C589 H575 0.961 . S
C589 C588 1.502 . S
C590 H576 0.960 . S
C590 H577 0.961 . S
C590 H578 0.959 . S
C590 C588 1.561 . S
C591 C588 1.526 1_556 S
C591 C592 1.396 1_545 S
C591 C596 1.390 . S
C592 C586 1.465 1_556 S
C592 C591 1.396 1_565 S
C592 C593 1.399 . S
C593 H579 0.929 . S
C593 C592 1.399 . S
C593 C594 1.385 1_565 S
C594 H580 0.931 . S
C594 C593 1.385 1_545 S
C594 C595 1.389 . S
C595 C594 1.389 . S
C595 C596 1.387 . S
C596 H581 0.930 . S
C596 C591 1.390 . S
C596 C595 1.387 . S
H597 C609 0.930 . S
H598 C611 0.930 . S
H599 C612 0.930 . S
H600 C616 0.959 . S
H601 C616 0.959 . S
H602 C616 0.961 . S
H603 C617 0.960 . S
H604 C617 0.961 . S
H605 C617 0.959 . S
H606 C620 0.929 . S
H607 C621 0.931 . S
H608 C623 0.930 . S
C609 H597 0.930 . S
C609 C610 1.399 . S
C609 C614 1.399 . S
C610 C609 1.399 . S
C610 C611 1.376 . S
C611 H598 0.930 . S
C611 C610 1.376 . S
C611 C612 1.388 . S
C612 H599 0.930 . S
C612 C611 1.388 . S
C612 C613 1.390 . S
C613 C612 1.390 . S
C613 C614 1.394 . S
C613 C619 1.465 . S
C614 C609 1.399 . S
C614 C613 1.394 . S
C614 C615 1.516 . S
C615 C614 1.516 . S
C615 C616 1.502 . S
C615 C617 1.561 . S
C615 C618 1.526 . S
C616 H600 0.959 . S
C616 H601 0.959 . S
C616 H602 0.961 . S
C616 C615 1.502 . S
C617 H603 0.960 . S
C617 H604 0.961 . S
C617 H605 0.959 . S
C617 C615 1.561 . S
C618 C615 1.526 . S
C618 C619 1.396 . S
C618 C623 1.390 . S
C619 C613 1.465 . S
C619 C618 1.396 . S
C619 C620 1.399 . S
C620 H606 0.929 . S
C620 C619 1.399 . S
C620 C621 1.385 . S
C621 H607 0.931 . S
C621 C620 1.385 . S
C621 C622 1.389 . S
C622 C621 1.389 . S
C622 C623 1.387 . S
C623 H608 0.930 . S
C623 C618 1.390 . S
C623 C622 1.387 . S
H624 C636 0.930 . S
H625 C638 0.930 . S
H626 C639 0.930 . S
H627 C643 0.959 . S
H628 C643 0.959 . S
H629 C643 0.961 . S
H630 C644 0.960 1_556 S
H631 C644 0.961 1_455 S
H632 C644 0.959 . S
H633 C647 0.929 1_655 S
H634 C648 0.931 . S
H635 C650 0.930 . S
C636 H624 0.930 . S
C636 C637 1.399 . S
C636 C641 1.399 . S
C637 C636 1.399 . S
C637 C638 1.376 . S
C638 H625 0.930 . S
C638 C637 1.376 . S
C638 C639 1.388 . S
C639 H626 0.930 . S
C639 C638 1.388 . S
C639 C640 1.390 . S
C640 C639 1.390 . S
C640 C641 1.394 . S
C640 C646 1.465 1_656 S
C641 C636 1.399 . S
C641 C640 1.394 . S
C641 C642 1.516 1_655 S
C642 C641 1.516 1_455 S
C642 C643 1.502 . S
C642 C644 1.561 1_456 S
C642 C645 1.526 1_556 S
C643 H627 0.959 . S
C643 H628 0.959 . S
C643 H629 0.961 . S
C643 C642 1.502 . S
C644 H630 0.960 1_554 S
C644 H631 0.961 1_655 S
C644 H632 0.959 . S
C644 C642 1.561 1_654 S
C645 C642 1.526 1_554 S
C645 C646 1.396 . S
C645 C650 1.390 . S
C646 C640 1.465 1_454 S
C646 C645 1.396 . S
C646 C647 1.399 . S
C647 H633 0.929 1_455 S
C647 C646 1.399 . S
C647 C648 1.385 . S
C648 H634 0.931 . S
C648 C647 1.385 . S
C648 C649 1.389 . S
C649 C648 1.389 . S
C649 C650 1.387 . S
C650 H635 0.930 . S
C650 C645 1.390 . S
C650 C649 1.387 . S
H651 C663 0.930 . S
H652 C665 0.930 . S
H653 C666 0.930 . S
H654 C670 0.959 . S
H655 C670 0.959 1_565 S
H656 C670 0.961 . S
H657 C671 0.960 . S
H658 C671 0.961 . S
H659 C671 0.959 . S
H660 C674 0.929 . S
H661 C675 0.931 . S
H662 C677 0.930 . S
C663 H651 0.930 . S
C663 C664 1.399 . S
C663 C668 1.399 . S
C664 C663 1.399 . S
C664 C665 1.376 . S
C665 H652 0.930 . S
C665 C664 1.376 . S
C665 C666 1.388 . S
C666 H653 0.930 . S
C666 C665 1.388 . S
C666 C667 1.390 . S
C667 C666 1.390 . S
C667 C668 1.394 . S
C667 C673 1.465 1_545 S
C668 C663 1.399 . S
C668 C667 1.394 . S
C668 C669 1.516 1_545 S
C669 C668 1.516 1_565 S
C669 C670 1.502 1_565 S
C669 C671 1.561 . S
C669 C672 1.526 . S
C670 H654 0.959 . S
C670 H655 0.959 1_545 S
C670 H656 0.961 . S
C670 C669 1.502 1_545 S
C671 H657 0.960 . S
C671 H658 0.961 . S
C671 H659 0.959 . S
C671 C669 1.561 . S
C672 C669 1.526 . S
C672 C673 1.396 . S
C672 C677 1.390 . S
C673 C667 1.465 1_565 S
C673 C672 1.396 . S
C673 C674 1.399 . S
C674 H660 0.929 . S
C674 C673 1.399 . S
C674 C675 1.385 . S
C675 H661 0.931 . S
C675 C674 1.385 . S
C675 C676 1.389 . S
C676 C675 1.389 . S
C676 C677 1.387 . S
C677 H662 0.930 . S
C677 C672 1.390 . S
C677 C676 1.387 . S
H678 C690 0.930 . S
H679 C692 0.930 . S
H680 C693 0.930 . S
H681 C697 0.959 . S
H682 C697 0.959 . S
H683 C697 0.961 1_556 S
H684 C698 0.960 . S
H685 C698 0.961 . S
H686 C698 0.959 . S
H687 C701 0.929 . S
H688 C702 0.931 . S
H689 C704 0.930 . S
C690 H678 0.930 . S
C690 C691 1.399 . S
C690 C695 1.399 . S
C691 C690 1.399 . S
C691 C692 1.376 . S
C692 H679 0.930 . S
C692 C691 1.376 . S
C692 C693 1.388 . S
C693 H680 0.930 . S
C693 C692 1.388 . S
C693 C694 1.390 . S
C694 C693 1.390 . S
C694 C695 1.394 . S
C694 C700 1.465 1_556 S
C695 C690 1.399 . S
C695 C694 1.394 . S
C695 C696 1.516 . S
C696 C695 1.516 . S
C696 C697 1.502 1_556 S
C696 C698 1.561 . S
C696 C699 1.526 1_556 S
C697 H681 0.959 . S
C697 H682 0.959 . S
C697 H683 0.961 1_554 S
C697 C696 1.502 1_554 S
C698 H684 0.960 . S
C698 H685 0.961 . S
C698 H686 0.959 . S
C698 C696 1.561 . S
C699 C696 1.526 1_554 S
C699 C700 1.396 . S
C699 C704 1.390 . S
C700 C694 1.465 1_554 S
C700 C699 1.396 . S
C700 C701 1.399 . S
C701 H687 0.929 . S
C701 C700 1.399 . S
C701 C702 1.385 . S
C702 H688 0.931 . S
C702 C701 1.385 . S
C702 C703 1.389 . S
C703 C702 1.389 . S
C703 C704 1.387 . S
C704 H689 0.930 . S
C704 C699 1.390 . S
C704 C703 1.387 . S
H705 C717 0.930 . S
H706 C719 0.930 . S
H707 C720 0.930 . S
H708 C724 0.959 . S
H709 C724 0.959 . S
H710 C724 0.961 . S
H711 C725 0.960 . S
H712 C725 0.961 1_655 S
H713 C725 0.959 . S
H714 C728 0.929 1_455 S
H715 C729 0.931 . S
H716 C731 0.930 . S
C717 H705 0.930 . S
C717 C718 1.399 . S
C717 C722 1.399 . S
C718 C717 1.399 . S
C718 C719 1.376 . S
C719 H706 0.930 . S
C719 C718 1.376 . S
C719 C720 1.388 . S
C720 H707 0.930 . S
C720 C719 1.388 . S
C720 C721 1.390 . S
C721 C720 1.390 . S
C721 C722 1.394 . S
C721 C727 1.465 1_455 S
C722 C717 1.399 . S
C722 C721 1.394 . S
C722 C723 1.516 1_455 S
C723 C722 1.516 1_655 S
C723 C724 1.502 . S
C723 C725 1.561 1_655 S
C723 C726 1.526 . S
C724 H708 0.959 . S
C724 H709 0.959 . S
C724 H710 0.961 . S
C724 C723 1.502 . S
C725 H711 0.960 . S
C725 H712 0.961 1_455 S
C725 H713 0.959 . S
C725 C723 1.561 1_455 S
C726 C723 1.526 . S
C726 C727 1.396 . S
C726 C731 1.390 . S
C727 C721 1.465 1_655 S
C727 C726 1.396 . S
C727 C728 1.399 . S
C728 H714 0.929 1_655 S
C728 C727 1.399 . S
C728 C729 1.385 . S
C729 H715 0.931 . S
C729 C728 1.385 . S
C729 C730 1.389 . S
C730 C729 1.389 . S
C730 C731 1.387 . S
C731 H716 0.930 . S
C731 C726 1.390 . S
C731 C730 1.387 . S
H732 C744 0.930 . S
H733 C746 0.930 . S
H734 C747 0.930 1_554 S
H735 C751 0.959 . S
H736 C751 0.959 . S
H737 C751 0.961 . S
H738 C752 0.960 . S
H739 C752 0.961 . S
H740 C752 0.959 . S
H741 C755 0.929 . S
H742 C756 0.931 . S
H743 C758 0.930 . S
C744 H732 0.930 . S
C744 C745 1.399 . S
C744 C749 1.399 . S
C745 C744 1.399 . S
C745 C746 1.376 . S
C746 H733 0.930 . S
C746 C745 1.376 . S
C746 C747 1.388 . S
C747 H734 0.930 1_556 S
C747 C746 1.388 . S
C747 C748 1.390 . S
C748 C747 1.390 . S
C748 C749 1.394 . S
C748 C754 1.465 1_556 S
C749 C744 1.399 . S
C749 C748 1.394 . S
C749 C750 1.516 1_545 S
C750 C749 1.516 1_565 S
C750 C751 1.502 . S
C750 C752 1.561 . S
C750 C753 1.526 1_556 S
C751 H735 0.959 . S
C751 H736 0.959 . S
C751 H737 0.961 . S
C751 C750 1.502 . S
C752 H738 0.960 . S
C752 H739 0.961 . S
C752 H740 0.959 . S
C752 C750 1.561 . S
C753 C750 1.526 1_554 S
C753 C754 1.396 1_565 S
C753 C758 1.390 . S
C754 C748 1.465 1_554 S
C754 C753 1.396 1_545 S
C754 C755 1.399 . S
C755 H741 0.929 . S
C755 C754 1.399 . S
C755 C756 1.385 1_545 S
C756 H742 0.931 . S
C756 C755 1.385 1_565 S
C756 C757 1.389 . S
C757 C756 1.389 . S
C757 C758 1.387 . S
C758 H743 0.930 . S
C758 C753 1.390 . S
C758 C757 1.387 . S
H759 C771 0.930 . S
H760 C773 0.930 . S
H761 C774 0.930 . S
H762 C778 0.959 . S
H763 C778 0.959 . S
H764 C778 0.961 . S
H765 C779 0.960 . S
H766 C779 0.961 . S
H767 C779 0.959 . S
H768 C782 0.929 . S
H769 C783 0.931 . S
H770 C785 0.930 . S
C771 H759 0.930 . S
C771 C772 1.399 . S
C771 C776 1.399 . S
C772 C771 1.399 . S
C772 C773 1.376 . S
C773 H760 0.930 . S
C773 C772 1.376 . S
C773 C774 1.388 . S
C774 H761 0.930 . S
C774 C773 1.388 . S
C774 C775 1.390 . S
C775 C774 1.390 . S
C775 C776 1.394 . S
C775 C781 1.465 . S
C776 C771 1.399 . S
C776 C775 1.394 . S
C776 C777 1.516 . S
C777 C776 1.516 . S
C777 C778 1.502 . S
C777 C779 1.561 . S
C777 C780 1.526 . S
C778 H762 0.959 . S
C778 H763 0.959 . S
C778 H764 0.961 . S
C778 C777 1.502 . S
C779 H765 0.960 . S
C779 H766 0.961 . S
C779 H767 0.959 . S
C779 C777 1.561 . S
C780 C777 1.526 . S
C780 C781 1.396 . S
C780 C785 1.390 . S
C781 C775 1.465 . S
C781 C780 1.396 . S
C781 C782 1.399 . S
C782 H768 0.929 . S
C782 C781 1.399 . S
C782 C783 1.385 . S
C783 H769 0.931 . S
C783 C782 1.385 . S
C783 C784 1.389 . S
C784 C783 1.389 . S
C784 C785 1.387 . S
C785 H770 0.930 . S
C785 C780 1.390 . S
C785 C784 1.387 . S
H786 C798 0.930 . S
H787 C800 0.930 . S
H788 C801 0.930 . S
H789 C805 0.959 1_456 S
H790 C805 0.959 1_556 S
H791 C805 0.961 1_455 S
H792 C806 0.960 . S
H793 C806 0.961 . S
H794 C806 0.959 . S
H795 C809 0.929 . S
H796 C810 0.931 . S
H797 C812 0.930 . S
C798 H786 0.930 . S
C798 C799 1.399 . S
C798 C803 1.399 . S
C799 C798 1.399 . S
C799 C800 1.376 . S
C800 H787 0.930 . S
C800 C799 1.376 . S
C800 C801 1.388 . S
C801 H788 0.930 . S
C801 C800 1.388 . S
C801 C802 1.390 . S
C802 C801 1.390 . S
C802 C803 1.394 . S
C802 C808 1.465 1_454 S
C803 C798 1.399 . S
C803 C802 1.394 . S
C803 C804 1.516 1_455 S
C804 C803 1.516 1_655 S
C804 C805 1.502 . S
C804 C806 1.561 . S
C804 C807 1.526 1_554 S
C805 H789 0.959 1_654 S
C805 H790 0.959 1_554 S
C805 H791 0.961 1_655 S
C805 C804 1.502 . S
C806 H792 0.960 . S
C806 H793 0.961 . S
C806 H794 0.959 . S
C806 C804 1.561 . S
C807 C804 1.526 1_556 S
C807 C808 1.396 . S
C807 C812 1.390 . S
C808 C802 1.465 1_656 S
C808 C807 1.396 . S
C808 C809 1.399 . S
C809 H795 0.929 . S
C809 C808 1.399 . S
C809 C810 1.385 . S
C810 H796 0.931 . S
C810 C809 1.385 . S
C810 C811 1.389 . S
C811 C810 1.389 . S
C811 C812 1.387 . S
C812 H797 0.930 . S
C812 C807 1.390 . S
C812 C811 1.387 . S
H813 C825 0.930 . S
H814 C827 0.930 . S
H815 C828 0.930 . S
H816 C832 0.959 . S
H817 C832 0.959 . S
H818 C832 0.961 . S
H819 C833 0.960 . S
H820 C833 0.961 . S
H821 C833 0.959 . S
H822 C836 0.929 . S
H823 C837 0.931 . S
H824 C839 0.930 . S
C825 H813 0.930 . S
C825 C826 1.399 . S
C825 C830 1.399 . S
C826 C825 1.399 . S
C826 C827 1.376 . S
C827 H814 0.930 . S
C827 C826 1.376 . S
C827 C828 1.388 . S
C828 H815 0.930 . S
C828 C827 1.388 . S
C828 C829 1.390 . S
C829 C828 1.390 . S
C829 C830 1.394 . S
C829 C835 1.465 1_545 S
C830 C825 1.399 . S
C830 C829 1.394 . S
C830 C831 1.516 1_545 S
C831 C830 1.516 1_565 S
C831 C832 1.502 1_565 S
C831 C833 1.561 . S
C831 C834 1.526 . S
C832 H816 0.959 . S
C832 H817 0.959 . S
C832 H818 0.961 . S
C832 C831 1.502 1_545 S
C833 H819 0.960 . S
C833 H820 0.961 . S
C833 H821 0.959 . S
C833 C831 1.561 . S
C834 C831 1.526 . S
C834 C835 1.396 . S
C834 C839 1.390 . S
C835 C829 1.465 1_565 S
C835 C834 1.396 . S
C835 C836 1.399 . S
C836 H822 0.929 . S
C836 C835 1.399 . S
C836 C837 1.385 . S
C837 H823 0.931 . S
C837 C836 1.385 . S
C837 C838 1.389 . S
C838 C837 1.389 . S
C838 C839 1.387 . S
C839 H824 0.930 . S
C839 C834 1.390 . S
C839 C838 1.387 . S
C205 C30 1.096 . S
C217 C155 1.110 . S
C232 C187 1.159 . S
C244 C62 1.143 . S
C259 C27 1.162 . S
C271 C94 1.147 . S
C286 C59 1.146 . S
C298 C126 1.162 . S
C313 C158 1.097 . S
C325 C91 1.111 . S
C340 C190 1.088 . S
C352 C123 1.098 . S
C367 C22 1.022 . S
C379 C136 1.004 . S
C394 C54 1.050 . S
C406 C168 1.046 . S
C421 C8 1.040 . S
C433 C86 1.026 . S
C448 C40 1.042 . S
C460 C118 1.029 . S
C475 C72 0.935 . S
C487 C150 0.949 . S
C502 C182 0.961 . S
C514 C104 0.980 . S
C529 C17 1.547 . S
C541 C184 1.542 . S
C556 C49 1.481 . S
C568 C24 1.564 . S
C583 C81 1.463 . S
C595 C56 1.546 . S
C610 C113 1.478 . S
C622 C88 1.562 . S
C637 C120 1.527 . S
C649 C145 1.551 . S
C664 C177 1.473 . S
C676 C152 1.508 . S
C691 C119 1.562 . S
C703 C95 1.546 . S
C718 C151 1.490 . S
C730 C127 1.493 . S
C745 C183 1.531 . S
C757 C159 1.547 . S
C772 C191 1.477 . S
C784 C23 1.544 . S
C799 C31 1.545 . S
C811 C55 1.562 . S
C826 C63 1.551 . S
C838 C87 1.551 . S
