# Generated by pormake.
# Topology ske, (6)-cn, num edge types: 1
# Building blocks:
#     Node 0, Type 0, BuildingBlock: BETDEL_clean_sbu_0, # of connection points: 6
#     Node 1, Type 0, BuildingBlock: BETDEL_clean_sbu_0, # of connection points: 6
#     Node 2, Type 0, BuildingBlock: BETDEL_clean_sbu_0, # of connection points: 6
#     Node 3, Type 0, BuildingBlock: BETDEL_clean_sbu_0, # of connection points: 6
#     Node 4, Type 0, BuildingBlock: BETDEL_clean_sbu_0, # of connection points: 6
#     Node 5, Type 0, BuildingBlock: BETDEL_clean_sbu_0, # of connection points: 6
#     Node 6, Type 0, BuildingBlock: BETDEL_clean_sbu_0, # of connection points: 6
#     Node 7, Type 0, BuildingBlock: BETDEL_clean_sbu_0, # of connection points: 6
#     Edge 8, Type (0, 0), BuildingBlock: XIVTED_clean_linker_0, # of connection points: 2
#     Edge 9, Type (0, 0), BuildingBlock: XIVTED_clean_linker_0, # of connection points: 2
#     Edge 10, Type (0, 0), BuildingBlock: XIVTED_clean_linker_0, # of connection points: 2
#     Edge 11, Type (0, 0), BuildingBlock: XIVTED_clean_linker_0, # of connection points: 2
#     Edge 12, Type (0, 0), BuildingBlock: XIVTED_clean_linker_0, # of connection points: 2
#     Edge 13, Type (0, 0), BuildingBlock: XIVTED_clean_linker_0, # of connection points: 2
#     Edge 14, Type (0, 0), BuildingBlock: XIVTED_clean_linker_0, # of connection points: 2
#     Edge 15, Type (0, 0), BuildingBlock: XIVTED_clean_linker_0, # of connection points: 2
#     Edge 16, Type (0, 0), BuildingBlock: XIVTED_clean_linker_0, # of connection points: 2
#     Edge 17, Type (0, 0), BuildingBlock: XIVTED_clean_linker_0, # of connection points: 2
#     Edge 18, Type (0, 0), BuildingBlock: XIVTED_clean_linker_0, # of connection points: 2
#     Edge 19, Type (0, 0), BuildingBlock: XIVTED_clean_linker_0, # of connection points: 2
#     Edge 20, Type (0, 0), BuildingBlock: XIVTED_clean_linker_0, # of connection points: 2
#     Edge 21, Type (0, 0), BuildingBlock: XIVTED_clean_linker_0, # of connection points: 2
#     Edge 22, Type (0, 0), BuildingBlock: XIVTED_clean_linker_0, # of connection points: 2
#     Edge 23, Type (0, 0), BuildingBlock: XIVTED_clean_linker_0, # of connection points: 2
#     Edge 24, Type (0, 0), BuildingBlock: XIVTED_clean_linker_0, # of connection points: 2
#     Edge 25, Type (0, 0), BuildingBlock: XIVTED_clean_linker_0, # of connection points: 2
#     Edge 26, Type (0, 0), BuildingBlock: XIVTED_clean_linker_0, # of connection points: 2
#     Edge 27, Type (0, 0), BuildingBlock: XIVTED_clean_linker_0, # of connection points: 2
#     Edge 28, Type (0, 0), BuildingBlock: XIVTED_clean_linker_0, # of connection points: 2
#     Edge 29, Type (0, 0), BuildingBlock: XIVTED_clean_linker_0, # of connection points: 2
#     Edge 30, Type (0, 0), BuildingBlock: XIVTED_clean_linker_0, # of connection points: 2
#     Edge 31, Type (0, 0), BuildingBlock: XIVTED_clean_linker_0, # of connection points: 2
# Relax obj value: 0.146
# Max RMSD: 0.161
# Mean RMSD: 0.158
data_MOF--net-ske--node1-BETDEL_clean_sbu_0--edge1-XIVTED_clean_linker_0
_symmetry_space_group_name_H-M    P1
_symmetry_Int_Tables_number       1
_symmetry_cell_setting            triclinic
loop_
_symmetry_equiv_pos_as_xyz
'x, y, z'
_cell_length_a     71.209258
_cell_length_b     29.058625
_cell_length_c     15.659525
_cell_angle_alpha  90.072929
_cell_angle_beta   90.103645
_cell_angle_gamma 84.031492
loop_
_atom_site_label
_atom_site_type_symbol
_atom_site_fract_x
_atom_site_fract_y
_atom_site_fract_z
_atom_type_partial_charge
Dy0 Dy 0.16065 0.25419 0.55665 0.0
C1 C 0.0801 0.25882 0.53644 0.0
C2 C 0.19794 0.2606 0.59478 0.0
Dy3 Dy 0.11829 0.26041 0.55766 0.0
O4 O 0.19108 0.22432 0.56446 0.0
O5 O 0.18449 0.2943 0.60095 0.0
O6 O 0.16216 0.18697 0.4889 0.0
O7 O 0.14036 0.20316 0.57932 0.0
C8 C 0.147 0.1743 0.52345 0.0
C9 C 0.13262 0.34199 0.57879 0.0
O10 O 0.12254 0.24403 0.69551 0.0
O11 O 0.15377 0.25931 0.69654 0.0
O12 O 0.08897 0.29545 0.53814 0.0
O13 O 0.09213 0.22231 0.54557 0.0
O14 O 0.11796 0.33018 0.619 0.0
O15 O 0.1387 0.30993 0.52861 0.0
O16 O 0.15565 0.27285 0.41952 0.0
O17 O 0.12523 0.25079 0.41828 0.0
C18 C 0.13819 0.25092 0.73698 0.0
C19 C 0.14045 0.26207 0.37768 0.0
Dy20 Dy 0.85889 0.26125 0.54396 0.0
C21 C 0.93892 0.2643 0.52579 0.0
C22 C 0.82211 0.24883 0.5815 0.0
Dy23 Dy 0.9009 0.25996 0.54678 0.0
O24 O 0.82768 0.28414 0.542 0.0
O25 O 0.83661 0.21899 0.59679 0.0
O26 O 0.85501 0.33041 0.48404 0.0
O27 O 0.87796 0.31512 0.56858 0.0
C28 C 0.87021 0.34449 0.51604 0.0
C29 C 0.88807 0.17675 0.56808 0.0
O30 O 0.89644 0.27418 0.6854 0.0
O31 O 0.86536 0.25776 0.68424 0.0
O32 O 0.9299 0.229 0.50822 0.0
O33 O 0.9271 0.29799 0.55399 0.0
O34 O 0.90206 0.19069 0.61053 0.0
O35 O 0.88174 0.2076 0.51606 0.0
O36 O 0.86464 0.2438 0.40691 0.0
O37 O 0.89369 0.273 0.40871 0.0
C38 C 0.88076 0.26668 0.72575 0.0
C39 C 0.87925 0.25851 0.36647 0.0
Dy40 Dy 0.12086 0.7584 0.42814 0.0
C41 C 0.19969 0.76464 0.39414 0.0
C42 C 0.08257 0.75696 0.44538 0.0
Dy43 Dy 0.16273 0.75422 0.43181 0.0
O44 O 0.0913 0.79348 0.43639 0.0
O45 O 0.09479 0.72045 0.44555 0.0
O46 O 0.12065 0.82827 0.3677 0.0
O47 O 0.14056 0.80901 0.46275 0.0
C48 C 0.13452 0.84101 0.41247 0.0
C49 C 0.15031 0.67185 0.45661 0.0
O50 O 0.15747 0.7707 0.56957 0.0
O51 O 0.12727 0.74762 0.5676 0.0
O52 O 0.19374 0.72886 0.43061 0.0
O53 O 0.1855 0.79584 0.382 0.0
O54 O 0.16559 0.6846 0.49012 0.0
O55 O 0.14313 0.70195 0.40403 0.0
O56 O 0.12549 0.74151 0.29066 0.0
O57 O 0.15618 0.7603 0.29176 0.0
C58 C 0.1423 0.75888 0.60983 0.0
C59 C 0.14096 0.75028 0.2501 0.0
Dy60 Dy 0.90348 0.75744 0.4342 0.0
C61 C 0.8235 0.75912 0.39727 0.0
C62 C 0.94144 0.76219 0.45582 0.0
Dy63 Dy 0.86091 0.76278 0.43569 0.0
O64 O 0.93243 0.72714 0.47505 0.0
O65 O 0.92964 0.79538 0.42561 0.0
O66 O 0.90482 0.68723 0.37411 0.0
O67 O 0.88321 0.70737 0.46086 0.0
C68 C 0.88974 0.67555 0.41103 0.0
C69 C 0.87458 0.84263 0.47065 0.0
O70 O 0.86596 0.74608 0.57353 0.0
O71 O 0.89633 0.76863 0.57296 0.0
O72 O 0.83193 0.79638 0.40348 0.0
O73 O 0.8354 0.72334 0.41527 0.0
O74 O 0.85955 0.82949 0.50581 0.0
O75 O 0.88108 0.81403 0.41413 0.0
O76 O 0.89886 0.77107 0.29558 0.0
O77 O 0.86799 0.75309 0.29685 0.0
C78 C 0.88127 0.75696 0.61434 0.0
C79 C 0.8833 0.76231 0.25529 0.0
Dy80 Dy 0.66069 0.75673 0.06245 0.0
C81 C 0.58032 0.76192 0.04708 0.0
C82 C 0.69808 0.75991 0.10223 0.0
Dy83 Dy 0.61862 0.76316 0.06398 0.0
O84 O 0.68962 0.72274 0.09486 0.0
O85 O 0.68622 0.79583 0.08467 0.0
O86 O 0.66179 0.69045 -0.00815 0.0
O87 O 0.64044 0.70546 0.08507 0.0
C88 C 0.6469 0.67715 0.02788 0.0
C89 C 0.63276 0.84535 0.0825 0.0
O90 O 0.62375 0.74174 0.1992 0.0
O91 O 0.65329 0.76719 0.20094 0.0
O92 O 0.58876 0.79462 0.08145 0.0
O93 O 0.59284 0.72896 0.02175 0.0
O94 O 0.61806 0.83374 0.12228 0.0
O95 O 0.63891 0.81289 0.03343 0.0
O96 O 0.65629 0.77286 0.92393 0.0
O97 O 0.6249 0.75736 0.92321 0.0
C98 C 0.63857 0.75366 0.24148 0.0
C99 C 0.64059 0.76541 0.88245 0.0
Dy100 Dy 0.35936 0.76234 0.04023 0.0
C101 C 0.43933 0.77058 0.0134 0.0
C102 C 0.32285 0.74841 0.07968 0.0
Dy103 Dy 0.4017 0.76244 0.03746 0.0
O104 O 0.32806 0.78385 0.03927 0.0
O105 O 0.33757 0.71925 0.09495 0.0
O106 O 0.3548 0.83256 0.98461 0.0
O107 O 0.37848 0.8161 0.06432 0.0
C108 C 0.37026 0.84623 0.01451 0.0
C109 C 0.38962 0.67826 0.056 0.0
O110 O 0.39786 0.77315 0.17768 0.0
O111 O 0.36665 0.75749 0.17942 0.0
O112 O 0.43036 0.73697 0.98569 0.0
O113 O 0.42764 0.80058 0.05317 0.0
O114 O 0.40455 0.69095 0.09294 0.0
O115 O 0.38243 0.71029 0.00837 0.0
O116 O 0.36473 0.7462 0.90219 0.0
O117 O 0.39331 0.7778 0.90141 0.0
C118 C 0.38236 0.76547 0.21939 0.0
C119 C 0.37888 0.76237 0.86046 0.0
Dy120 Dy 0.61963 0.26174 0.93292 0.0
C121 C 0.69852 0.26857 0.89352 0.0
C122 C 0.58148 0.25883 0.95358 0.0
Dy123 Dy 0.66166 0.25807 0.93304 0.0
O124 O 0.59021 0.2957 0.95498 0.0
O125 O 0.59365 0.22283 0.94174 0.0
O126 O 0.61895 0.33181 0.87268 0.0
O127 O 0.63943 0.31244 0.96531 0.0
C128 C 0.63311 0.34448 0.91568 0.0
C129 C 0.64947 0.1755 0.95869 0.0
O130 O 0.65669 0.27481 0.07092 0.0
O131 O 0.62685 0.24964 0.07135 0.0
O132 O 0.69272 0.23335 0.93247 0.0
O133 O 0.68423 0.29927 0.87981 0.0
O134 O 0.6649 0.18824 0.99058 0.0
O135 O 0.64201 0.20573 0.90706 0.0
O136 O 0.62366 0.24679 0.79438 0.0
O137 O 0.65463 0.26387 0.7934 0.0
C138 C 0.64186 0.26195 0.11242 0.0
C139 C 0.63912 0.25484 0.75287 0.0
Dy140 Dy 0.40227 0.26136 0.93252 0.0
C141 C 0.32297 0.25003 0.89588 0.0
C142 C 0.44014 0.26759 0.95511 0.0
Dy143 Dy 0.35983 0.26246 0.93259 0.0
O144 O 0.43135 0.23206 0.97339 0.0
O145 O 0.42816 0.30055 0.92536 0.0
O146 O 0.40446 0.19012 0.87613 0.0
O147 O 0.38278 0.20984 0.96289 0.0
C148 C 0.38968 0.17776 0.91457 0.0
C149 C 0.37137 0.34585 0.95784 0.0
O150 O 0.3656 0.24598 0.07022 0.0
O151 O 0.3946 0.27567 0.06958 0.0
O152 O 0.32863 0.28526 0.93561 0.0
O153 O 0.33745 0.2203 0.87959 0.0
O154 O 0.35602 0.33254 0.98928 0.0
O155 O 0.37911 0.31558 0.907 0.0
O156 O 0.3979 0.27291 0.79286 0.0
O157 O 0.36668 0.25721 0.79304 0.0
C158 C 0.38011 0.26118 0.11119 0.0
C159 C 0.38224 0.26521 0.75212 0.0
H160 H 0.22677 0.19111 0.58812 0.0
H161 H 0.29278 0.3152 0.91278 0.0
H162 H 0.21234 0.32829 0.68915 0.0
H163 H 0.30993 0.1841 0.7922 0.0
H164 H 0.26261 0.31868 0.83695 0.0
H165 H 0.25697 0.18696 0.6642 0.0
C166 C 0.23007 0.2206 0.62557 0.0
C167 C 0.21707 0.26019 0.6321 0.0
C168 C 0.2729 0.289 0.82732 0.0
C169 C 0.25149 0.25539 0.72074 0.0
C170 C 0.29008 0.28682 0.87112 0.0
C171 C 0.30385 0.24923 0.85892 0.0
C172 C 0.2694 0.25329 0.77073 0.0
C173 C 0.29966 0.21361 0.80373 0.0
C174 C 0.24727 0.21811 0.66937 0.0
C175 C 0.22201 0.29723 0.68198 0.0
N176 N 0.28283 0.21657 0.76148 0.0
N177 N 0.23877 0.29383 0.72472 0.0
H178 H 0.71127 0.33429 0.78955 0.0
H179 H 0.80963 0.18316 0.68659 0.0
H180 H 0.72835 0.20179 0.90468 0.0
H181 H 0.79194 0.31441 0.56803 0.0
H182 H 0.77979 0.18869 0.76574 0.0
H183 H 0.74104 0.32841 0.71003 0.0
C184 C 0.72141 0.30427 0.79896 0.0
C185 C 0.71738 0.26857 0.85398 0.0
C186 C 0.78237 0.21615 0.72197 0.0
C187 C 0.75134 0.2611 0.76209 0.0
C188 C 0.79934 0.2128 0.67631 0.0
C189 C 0.80322 0.2483 0.62049 0.0
C190 C 0.76921 0.25539 0.71198 0.0
C191 C 0.78948 0.28617 0.6102 0.0
C192 C 0.73835 0.30072 0.75307 0.0
C193 C 0.73094 0.23021 0.86316 0.0
N194 N 0.77315 0.28882 0.65576 0.0
N195 N 0.74726 0.2274 0.81748 0.0
H196 H 0.3109 0.68211 0.18503 0.0
H197 H 0.21258 0.83175 0.2941 0.0
H198 H 0.2924 0.81317 0.06752 0.0
H199 H 0.22938 0.69728 0.40199 0.0
H200 H 0.24228 0.82667 0.2143 0.0
H201 H 0.2812 0.68668 0.26521 0.0
C202 C 0.30046 0.7115 0.17522 0.0
C203 C 0.30407 0.74723 0.11939 0.0
C204 C 0.23955 0.79836 0.25581 0.0
C205 C 0.27024 0.75324 0.21206 0.0
C206 C 0.22265 0.80145 0.3019 0.0
C207 C 0.21856 0.76497 0.35491 0.0
C208 C 0.25244 0.75843 0.26266 0.0
C209 C 0.23203 0.72629 0.36204 0.0
C210 C 0.28357 0.7143 0.22144 0.0
C211 C 0.29015 0.78477 0.10968 0.0
N212 N 0.24832 0.72396 0.31624 0.0
N213 N 0.27392 0.78691 0.15583 0.0
H214 H 0.71645 0.83541 0.14355 0.0
H215 H 0.80517 0.68339 0.35639 0.0
H216 H 0.72285 0.68624 0.14768 0.0
H217 H 0.7986 0.83256 0.35246 0.0
H218 H 0.77482 0.68349 0.28171 0.0
H219 H 0.74674 0.83516 0.21856 0.0
C220 C 0.72434 0.80264 0.15941 0.0
C221 C 0.71718 0.76082 0.13922 0.0
C222 C 0.77997 0.71622 0.29759 0.0
C223 C 0.75169 0.76011 0.22608 0.0
C224 C 0.79723 0.71612 0.34069 0.0
C225 C 0.80436 0.758 0.36078 0.0
C226 C 0.76981 0.75853 0.2743 0.0
C227 C 0.79358 0.79946 0.33832 0.0
C228 C 0.74157 0.80245 0.20269 0.0
C229 C 0.72789 0.7193 0.16188 0.0
N230 N 0.77691 0.79869 0.29613 0.0
N231 N 0.74455 0.71999 0.20425 0.0
H232 H 0.14779 0.88016 0.55667 0.0
H233 H 0.14424 0.1333 0.37076 0.0
H234 H 0.12523 0.91384 0.30601 0.0
H235 H 0.1375 0.11012 0.64017 0.0
H236 H 0.14021 0.05197 0.34326 0.0
H237 H 0.14803 0.9631 0.58645 0.0
C238 C 0.14309 0.90501 0.5076 0.0
C239 C 0.13655 0.89029 0.42855 0.0
C240 C 0.13932 0.06475 0.40829 0.0
C241 C 0.13674 0.98475 0.46232 0.0
C242 C 0.14154 0.11106 0.42394 0.0
C243 C 0.14101 0.12817 0.50765 0.0
C244 C 0.13714 0.035 0.47717 0.0
C245 C 0.13772 0.09814 0.57465 0.0
C246 C 0.14303 0.95223 0.52503 0.0
C247 C 0.13042 0.92385 0.36761 0.0
N248 N 0.13622 0.05259 0.55811 0.0
N249 N 0.1308 0.96954 0.3855 0.0
H250 H 0.90422 0.38163 0.52493 0.0
H251 H 0.85839 0.64257 0.47683 0.0
H252 H 0.84442 0.41804 0.49065 0.0
H253 H 0.91379 0.59801 0.37764 0.0
H254 H 0.85408 0.5617 0.50866 0.0
H255 H 0.90932 0.46325 0.49913 0.0
C256 C 0.89221 0.40687 0.51319 0.0
C257 C 0.87391 0.39331 0.50969 0.0
C258 C 0.86714 0.56971 0.47964 0.0
C259 C 0.87953 0.48577 0.48105 0.0
C260 C 0.86956 0.6157 0.4612 0.0
C261 C 0.88636 0.62681 0.42384 0.0
C262 C 0.88181 0.53477 0.46235 0.0
C263 C 0.90052 0.59079 0.40565 0.0
C264 C 0.89511 0.45313 0.49784 0.0
C265 C 0.85878 0.4271 0.49347 0.0
N266 N 0.898 0.54632 0.42576 0.0
N267 N 0.8619 0.47175 0.48018 0.0
H268 H 0.88735 0.90202 0.3528 0.0
H269 H 0.89564 0.1075 0.68366 0.0
H270 H 0.87368 0.88952 0.61925 0.0
H271 H 0.87659 0.13344 0.42492 0.0
H272 H 0.89462 0.02423 0.65965 0.0
H273 H 0.89125 0.98447 0.37657 0.0
C274 C 0.8856 0.91645 0.41646 0.0
C275 C 0.88019 0.88936 0.48429 0.0
C276 C 0.89064 0.04826 0.60832 0.0
C277 C 0.88461 0.98254 0.51174 0.0
C278 C 0.89115 0.09559 0.62204 0.0
C279 C 0.88602 0.12718 0.55645 0.0
C280 C 0.88544 0.03245 0.52777 0.0
C281 C 0.88044 0.11013 0.47744 0.0
C282 C 0.88761 0.96336 0.42978 0.0
C283 C 0.87782 0.90954 0.56542 0.0
N284 N 0.88046 0.06378 0.46497 0.0
N285 N 0.88009 0.95492 0.57705 0.0
H286 H 0.17595 0.59761 0.43684 0.0
H287 H 0.11021 0.41932 0.62972 0.0
H288 H 0.11682 0.63554 0.48531 0.0
H289 H 0.16111 0.37572 0.48982 0.0
H290 H 0.11341 0.49964 0.58982 0.0
H291 H 0.17154 0.5167 0.46415 0.0
C292 C 0.16193 0.58861 0.45187 0.0
C293 C 0.14666 0.62298 0.4582 0.0
C294 C 0.12387 0.47248 0.56791 0.0
C295 C 0.14163 0.53076 0.49229 0.0
C296 C 0.12217 0.42672 0.59136 0.0
C297 C 0.13547 0.39088 0.56313 0.0
C298 C 0.13911 0.48251 0.51698 0.0
C299 C 0.15059 0.40237 0.51306 0.0
C300 C 0.15945 0.54251 0.46771 0.0
C301 C 0.12885 0.60979 0.47867 0.0
N302 N 0.15205 0.44721 0.49184 0.0
N303 N 0.12685 0.56462 0.49623 0.0
H304 H 0.64447 0.63615 0.8748 0.0
H305 H 0.64697 0.3832 0.05883 0.0
H306 H 0.63699 0.61301 0.14378 0.0
H307 H 0.62362 0.41759 0.80985 0.0
H308 H 0.64761 0.46598 0.08865 0.0
H309 H 0.64009 0.55504 0.84673 0.0
C310 C 0.64158 0.61398 0.92776 0.0
C311 C 0.64094 0.63103 0.01154 0.0
C312 C 0.64235 0.4553 0.02759 0.0
C313 C 0.63663 0.53813 0.98039 0.0
C314 C 0.64218 0.40817 0.01011 0.0
C315 C 0.6353 0.39369 0.93154 0.0
C316 C 0.63598 0.48799 0.96536 0.0
C317 C 0.62907 0.42743 0.87107 0.0
C318 C 0.63914 0.56781 0.91176 0.0
C319 C 0.63734 0.60107 0.07822 0.0
N320 N 0.6297 0.47305 0.88894 0.0
N321 N 0.63564 0.55566 0.06137 0.0
H322 H 0.40441 0.88289 0.02196 0.0
H323 H 0.35855 0.14433 0.98123 0.0
H324 H 0.34455 0.92019 -0.00805 0.0
H325 H 0.4139 0.10059 0.88068 0.0
H326 H 0.35435 0.0633 0.01201 0.0
H327 H 0.40958 0.96462 -0.00198 0.0
C328 C 0.39241 0.90833 0.0115 0.0
C329 C 0.37406 0.895 0.00871 0.0
C330 C 0.36739 0.07151 0.98299 0.0
C331 C 0.37976 0.98759 0.98221 0.0
C332 C 0.36975 0.11759 0.96523 0.0
C333 C 0.3865 0.12895 0.92773 0.0
C334 C 0.38205 0.03671 0.96476 0.0
C335 C 0.40068 0.09312 0.90887 0.0
C336 C 0.39534 0.95467 -0.00276 0.0
C337 C 0.35894 0.92905 -0.00583 0.0
N338 N 0.39821 0.04852 0.9282 0.0
N339 N 0.36211 0.97375 0.98189 0.0
H340 H 0.40547 0.38283 0.95231 0.0
H341 H 0.35866 0.64408 0.9885 0.0
H342 H 0.34544 0.4198 0.97417 0.0
H343 H 0.41411 0.60155 0.08989 0.0
H344 H 0.35481 0.56293 0.95692 0.0
H345 H 0.41039 0.46485 0.97512 0.0
C346 C 0.39338 0.40826 0.96059 0.0
C347 C 0.37506 0.39476 0.96159 0.0
C348 C 0.3678 0.57141 0.98628 0.0
C349 C 0.38047 0.48766 0.98701 0.0
C350 C 0.36996 0.61758 0.00451 0.0
C351 C 0.38663 0.62934 0.04245 0.0
C352 C 0.38258 0.53691 0.00461 0.0
C353 C 0.40095 0.59379 0.06133 0.0
C354 C 0.39617 0.45478 0.97427 0.0
C355 C 0.35982 0.42881 0.97343 0.0
N356 N 0.39865 0.5491 0.04166 0.0
N357 N 0.36285 0.47364 0.98534 0.0
H358 H 0.67515 0.10153 0.93688 0.0
H359 H 0.61039 0.92253 0.13382 0.0
H360 H 0.61613 0.13877 0.98894 0.0
H361 H 0.66084 0.8792 0.99048 0.0
H362 H 0.6133 1.00281 0.09308 0.0
H363 H 0.67096 0.02047 0.96378 0.0
C364 C 0.6612 0.09235 0.95263 0.0
C365 C 0.6459 0.12657 0.96015 0.0
C366 C 0.62371 0.97572 0.07054 0.0
C367 C 0.64112 0.03416 -0.0063 0.0
C368 C 0.62219 0.92997 0.09443 0.0
C369 C 0.63545 0.89421 0.06556 0.0
C370 C 0.63876 0.98585 0.01851 0.0
C371 C 0.65036 0.90578 0.01425 0.0
C372 C 0.65884 0.04615 0.9682 0.0
C373 C 0.62818 0.11315 0.98143 0.0
N374 N 0.65166 0.95065 -0.00737 0.0
N375 N 0.6263 0.06789 -0.00127 0.0
H376 H 0.16904 0.27919 0.26824 0.0
H377 H 0.10933 0.23584 0.84642 0.0
H378 H 0.11168 0.24328 0.2715 0.0
H379 H 0.16746 0.26599 0.84332 0.0
H380 H 0.10987 0.23879 0.0024 0.0
H381 H 0.1686 0.27561 0.11224 0.0
C382 C 0.15634 0.27071 0.23628 0.0
C383 C 0.14038 0.26157 0.28319 0.0
C384 C 0.12252 0.24467 0.96752 0.0
C385 C 0.1398 0.25723 0.10464 0.0
C386 C 0.12222 0.24291 0.8784 0.0
C387 C 0.13836 0.2507 0.83151 0.0
C388 C 0.13905 0.25437 0.01012 0.0
C389 C 0.15466 0.25976 0.87661 0.0
C390 C 0.15611 0.26856 0.14717 0.0
C391 C 0.12434 0.25063 0.23818 0.0
N392 N 0.15457 0.26144 0.96326 0.0
N393 N 0.12447 0.24877 0.15155 0.0
H394 H 0.90769 0.28207 0.26352 0.0
H395 H 0.85137 0.24979 0.82925 0.0
H396 H 0.85174 0.23738 0.25391 0.0
H397 H 0.90898 0.28376 0.83799 0.0
H398 H 0.85091 0.24773 0.98463 0.0
H399 H 0.90807 0.28497 0.10812 0.0
C400 C 0.89546 0.27279 0.22882 0.0
C401 C 0.87964 0.25944 0.27205 0.0
C402 C 0.86365 0.25568 0.95266 0.0
C403 C 0.88001 0.26286 0.09351 0.0
C404 C 0.86394 0.25698 0.86373 0.0
C405 C 0.88027 0.26696 0.82022 0.0
C406 C 0.87979 0.26449 -0.00116 0.0
C407 C 0.89608 0.27591 0.86869 0.0
C408 C 0.89572 0.27447 0.1399 0.0
C409 C 0.86425 0.24781 0.22339 0.0
N410 N 0.89545 0.27444 0.95542 0.0
N411 N 0.86481 0.24986 0.1367 0.0
H412 H 0.17038 0.76684 0.14659 0.0
H413 H 0.1133 0.73878 0.7129 0.0
H414 H 0.11268 0.73351 0.13818 0.0
H415 H 0.17034 0.77671 0.72207 0.0
H416 H 0.11297 0.73572 0.86829 0.0
H417 H 0.17078 0.76902 0.99123 0.0
C418 C 0.15778 0.75983 0.11217 0.0
C419 C 0.14144 0.75 0.15572 0.0
C420 C 0.12555 0.74476 0.8364 0.0
C421 C 0.14184 0.75262 0.97721 0.0
C422 C 0.12577 0.74657 0.7475 0.0
C423 C 0.1419 0.75805 0.70418 0.0
C424 C 0.14158 0.75442 0.88262 0.0
C425 C 0.1576 0.76776 0.75267 0.0
C426 C 0.15803 0.76117 0.02326 0.0
C427 C 0.12558 0.74122 0.1074 0.0
N428 N 0.15705 0.76567 0.83933 0.0
N429 N 0.12618 0.7428 0.02069 0.0
H430 H 0.91024 0.77684 0.71826 0.0
H431 H 0.85397 0.74435 0.15159 0.0
H432 H 0.85334 0.73804 0.72614 0.0
H433 H 0.91149 0.77895 0.14325 0.0
H434 H 0.85338 0.7427 -0.00387 0.0
H435 H 0.9108 0.77834 0.87363 0.0
C436 C 0.89784 0.76855 0.75255 0.0
C437 C 0.88169 0.75726 0.7088 0.0
C438 C 0.86613 0.75066 0.02822 0.0
C439 C 0.88228 0.75904 0.88745 0.0
C440 C 0.86651 0.75166 0.11719 0.0
C441 C 0.88284 0.7618 0.16082 0.0
C442 C 0.88219 0.75991 0.98217 0.0
C443 C 0.8986 0.77096 0.11248 0.0
C444 C 0.89819 0.76945 0.84149 0.0
C445 C 0.86609 0.74689 0.75703 0.0
N446 N 0.89788 0.76979 0.02574 0.0
N447 N 0.86677 0.74807 0.84379 0.0
H448 H 0.61026 0.73427 0.35076 0.0
H449 H 0.6693 0.78138 0.77293 0.0
H450 H 0.66717 0.77317 0.34793 0.0
H451 H 0.61163 0.74775 0.77611 0.0
H452 H 0.6689 0.77759 0.61702 0.0
H453 H 0.61069 0.73735 0.50689 0.0
C454 C 0.62286 0.74329 0.38285 0.0
C455 C 0.63868 0.75354 0.33602 0.0
C456 C 0.65632 0.77113 0.65188 0.0
C457 C 0.63925 0.7573 0.5147 0.0
C458 C 0.65654 0.77336 0.74098 0.0
C459 C 0.64048 0.76496 0.78789 0.0
C460 C 0.63995 0.7603 0.60927 0.0
C461 C 0.62435 0.75461 0.7428 0.0
C462 C 0.62309 0.74515 0.47202 0.0
C463 C 0.65461 0.76508 0.38118 0.0
N464 N 0.62451 0.75252 0.65614 0.0
N465 N 0.65447 0.76669 0.46784 0.0
H466 H 0.35157 0.73768 0.75018 0.0
H467 H 0.4107 0.78471 0.32943 0.0
H468 H 0.40654 0.78802 0.75508 0.0
H469 H 0.35369 0.74636 0.32526 0.0
H470 H 0.40984 0.78407 0.48564 0.0
H471 H 0.35246 0.73857 0.59406 0.0
C472 C 0.36382 0.74893 0.71856 0.0
C473 C 0.37899 0.76281 0.76595 0.0
C474 C 0.39752 0.77586 0.45041 0.0
C475 C 0.38012 0.76384 0.58727 0.0
C476 C 0.39801 0.77619 0.36119 0.0
C477 C 0.38225 0.76563 0.31395 0.0
C478 C 0.38118 0.76473 0.49268 0.0
C479 C 0.36619 0.75483 0.35876 0.0
C480 C 0.36431 0.74947 0.62939 0.0
C481 C 0.39449 0.77706 0.72137 0.0
N482 N 0.36609 0.75461 0.44544 0.0
N483 N 0.39466 0.77714 0.63467 0.0
H484 H 0.66997 0.28206 0.2224 0.0
H485 H 0.61055 0.23736 0.64311 0.0
H486 H 0.61349 0.24037 0.21783 0.0
H487 H 0.66809 0.27195 0.6471 0.0
H488 H 0.6112 0.23908 0.48705 0.0
H489 H 0.66937 0.27973 0.37841 0.0
C490 C 0.65744 0.27248 0.25408 0.0
C491 C 0.64177 0.2614 0.20683 0.0
C492 C 0.62369 0.24621 0.52217 0.0
C493 C 0.64098 0.25861 0.38535 0.0
C494 C 0.62332 0.24521 0.61131 0.0
C495 C 0.63927 0.25452 0.65842 0.0
C496 C 0.64011 0.25672 0.47985 0.0
C497 C 0.65544 0.26452 0.61361 0.0
C498 C 0.65711 0.27109 0.34318 0.0
C499 C 0.62592 0.24919 0.25145 0.0
N500 N 0.65543 0.26542 0.52696 0.0
N501 N 0.62594 0.24814 0.33811 0.0
H502 H 0.40836 0.28568 0.21487 0.0
H503 H 0.35304 0.24693 0.64809 0.0
H504 H 0.35286 0.23836 0.22311 0.0
H505 H 0.41034 0.28315 0.64033 0.0
H506 H 0.35242 0.24595 0.49273 0.0
H507 H 0.40896 0.28706 0.3703 0.0
C508 C 0.39626 0.27555 0.24926 0.0
C509 C 0.3805 0.26185 0.20563 0.0
C510 C 0.36513 0.25411 0.5249 0.0
C511 C 0.38115 0.26346 0.38426 0.0
C512 C 0.36552 0.25478 0.61384 0.0
C513 C 0.3818 0.26518 0.65763 0.0
C514 C 0.38111 0.26401 0.47897 0.0
C515 C 0.39749 0.27494 0.60942 0.0
C516 C 0.39665 0.27634 0.33821 0.0
C517 C 0.3653 0.24911 0.25393 0.0
N518 N 0.39675 0.27415 0.52264 0.0
N519 N 0.366 0.25028 0.34069 0.0
H520 H 0.05427 0.33453 0.53712 0.0
H521 H 0.96464 0.19196 0.48366 0.0
H522 H 0.05875 0.18563 0.52116 0.0
H523 H 0.96035 0.33569 0.5574 0.0
H524 H 0.99906 0.19023 0.48251 0.0
H525 H 0.0199 0.3367 0.53045 0.0
C526 C 0.04799 0.30224 0.53184 0.0
C527 C 0.05935 0.25979 0.52979 0.0
C528 C 0.99062 0.22218 0.49879 0.0
C529 C 0.01996 0.26205 0.52189 0.0
C530 C 0.97096 0.22327 0.49916 0.0
C531 C 0.95965 0.26406 0.52078 0.0
C532 C 0.99906 0.26229 0.51962 0.0
C533 C 0.96857 0.30355 0.54042 0.0
C534 C 0.02836 0.30352 0.52828 0.0
C535 C 0.05048 0.21906 0.52307 0.0
N536 N 0.98776 0.3017 0.53934 0.0
N537 N 0.03129 0.22118 0.51922 0.0
H538 H 0.96714 0.69151 0.50655 0.0
H539 H 0.05661 0.83167 0.42831 0.0
H540 H 0.96285 0.83232 0.41611 0.0
H541 H 0.06136 0.68473 0.47536 0.0
H542 H 0.02228 0.83387 0.43503 0.0
H543 H 1.00157 0.68987 0.50761 0.0
C544 C 0.97347 0.7222 0.48736 0.0
C545 C 0.96216 0.76213 0.46109 0.0
C546 C 0.03078 0.80111 0.44401 0.0
C547 C 1.00156 0.76045 0.46193 0.0
C548 C 0.0504 0.79982 0.44034 0.0
C549 C 0.06182 0.7579 0.45119 0.0
C550 C 0.02245 0.7602 0.45922 0.0
C551 C 0.05304 0.71772 0.46648 0.0
C552 C 0.99312 0.72117 0.4877 0.0
C553 C 0.97107 0.80086 0.4368 0.0
N554 N 0.03385 0.71986 0.47015 0.0
N555 N 0.99025 0.79905 0.43775 0.0
H556 H 0.55415 0.83047 0.09959 0.0
H557 H 0.46505 0.70619 0.94087 0.0
H558 H 0.5594 0.69761 0.97395 0.0
H559 H 0.46065 0.83577 0.07753 0.0
H560 H 0.4995 0.70414 0.94461 0.0
H561 H 0.51993 0.83432 0.08557 0.0
C562 C 0.54806 0.80202 0.06897 0.0
C563 C 0.5596 0.76356 0.03808 0.0
C564 C 0.49102 0.73315 0.97339 0.0
C565 C 0.5203 0.76779 0.02157 0.0
C566 C 0.47136 0.73443 0.97103 0.0
C567 C 0.46002 0.77121 0.00907 0.0
C568 C 0.49942 0.76893 0.01415 0.0
C569 C 0.46889 0.8068 0.04743 0.0
C570 C 0.52849 0.80428 0.06092 0.0
C571 C 0.55097 0.72781 -0.0012 0.0
N572 N 0.48806 0.80469 0.04925 0.0
N573 N 0.5318 0.73075 -0.00827 0.0
H574 H 0.46109 0.34014 0.92602 0.0
H575 H 0.56057 0.18469 0.96228 0.0
H576 H 0.46627 0.19588 -0.00415 0.0
H577 H 0.55526 0.33384 0.95686 0.0
H578 H 0.526 0.18724 0.96697 0.0
H579 H 0.49564 0.33815 0.92949 0.0
C580 C 0.46951 0.30816 0.94246 0.0
C581 C 0.46085 0.26815 0.96074 0.0
C582 C 0.53241 0.21941 0.96512 0.0
C583 C 0.5003 0.26537 0.96395 0.0
C584 C 0.55212 0.21791 0.96235 0.0
C585 C 0.56075 0.25909 0.95924 0.0
C586 C 0.52129 0.26238 0.96377 0.0
C587 C 0.54917 0.30126 0.95936 0.0
C588 C 0.48921 0.30699 0.94448 0.0
C589 C 0.47239 0.22755 0.98149 0.0
N590 N 0.53006 0.30183 0.96109 0.0
N591 N 0.4915 0.2271 0.98204 0.0
loop_
_geom_bond_atom_site_label_1
_geom_bond_atom_site_label_2
_geom_bond_distance
_geom_bond_site_symmetry_2
_ccdc_geom_bond_type
Dy0 O4 2.398 . S
Dy0 O5 2.491 . S
Dy0 O6 2.403 . S
Dy0 O7 2.664 . S
Dy0 O11 2.326 . S
Dy0 O15 2.310 . S
Dy0 O16 2.351 . S
C1 O12 1.185 . S
C1 O13 1.355 . S
C2 O4 1.185 . S
C2 O5 1.355 . S
Dy3 O7 2.310 . S
Dy3 O10 2.351 . S
Dy3 O12 2.398 . S
Dy3 O13 2.491 . S
Dy3 O14 2.403 . S
Dy3 O15 2.664 . S
Dy3 O17 2.326 . S
O4 Dy0 2.398 . S
O4 C2 1.185 . S
O5 Dy0 2.491 . S
O5 C2 1.355 . S
O6 Dy0 2.403 . S
O6 C8 1.254 . S
O7 Dy0 2.664 . S
O7 Dy3 2.310 . S
O7 C8 1.268 . S
C8 O6 1.254 . S
C8 O7 1.268 . S
C9 O14 1.254 . S
C9 O15 1.268 . S
O10 Dy3 2.351 . S
O10 C18 1.249 . S
O11 Dy0 2.326 . S
O11 C18 1.267 . S
O12 C1 1.185 . S
O12 Dy3 2.398 . S
O13 C1 1.355 . S
O13 Dy3 2.491 . S
O14 Dy3 2.403 . S
O14 C9 1.254 . S
O15 Dy0 2.310 . S
O15 Dy3 2.664 . S
O15 C9 1.268 . S
O16 Dy0 2.351 . S
O16 C19 1.249 . S
O17 Dy3 2.326 . S
O17 C19 1.267 . S
C18 O10 1.249 . S
C18 O11 1.267 . S
C19 O16 1.249 . S
C19 O17 1.267 . S
Dy20 O24 2.398 . S
Dy20 O25 2.491 . S
Dy20 O26 2.403 . S
Dy20 O27 2.664 . S
Dy20 O31 2.326 . S
Dy20 O35 2.310 . S
Dy20 O36 2.351 . S
C21 O32 1.185 . S
C21 O33 1.355 . S
C22 O24 1.185 . S
C22 O25 1.355 . S
Dy23 O27 2.310 . S
Dy23 O30 2.351 . S
Dy23 O32 2.398 . S
Dy23 O33 2.491 . S
Dy23 O34 2.403 . S
Dy23 O35 2.664 . S
Dy23 O37 2.326 . S
O24 Dy20 2.398 . S
O24 C22 1.185 . S
O25 Dy20 2.491 . S
O25 C22 1.355 . S
O26 Dy20 2.403 . S
O26 C28 1.254 . S
O27 Dy20 2.664 . S
O27 Dy23 2.310 . S
O27 C28 1.268 . S
C28 O26 1.254 . S
C28 O27 1.268 . S
C29 O34 1.254 . S
C29 O35 1.268 . S
O30 Dy23 2.351 . S
O30 C38 1.249 . S
O31 Dy20 2.326 . S
O31 C38 1.267 . S
O32 C21 1.185 . S
O32 Dy23 2.398 . S
O33 C21 1.355 . S
O33 Dy23 2.491 . S
O34 Dy23 2.403 . S
O34 C29 1.254 . S
O35 Dy20 2.310 . S
O35 Dy23 2.664 . S
O35 C29 1.268 . S
O36 Dy20 2.351 . S
O36 C39 1.249 . S
O37 Dy23 2.326 . S
O37 C39 1.267 . S
C38 O30 1.249 . S
C38 O31 1.267 . S
C39 O36 1.249 . S
C39 O37 1.267 . S
Dy40 O44 2.398 . S
Dy40 O45 2.491 . S
Dy40 O46 2.403 . S
Dy40 O47 2.664 . S
Dy40 O51 2.326 . S
Dy40 O55 2.310 . S
Dy40 O56 2.351 . S
C41 O52 1.185 . S
C41 O53 1.355 . S
C42 O44 1.185 . S
C42 O45 1.355 . S
Dy43 O47 2.310 . S
Dy43 O50 2.351 . S
Dy43 O52 2.398 . S
Dy43 O53 2.491 . S
Dy43 O54 2.403 . S
Dy43 O55 2.664 . S
Dy43 O57 2.326 . S
O44 Dy40 2.398 . S
O44 C42 1.185 . S
O45 Dy40 2.491 . S
O45 C42 1.355 . S
O46 Dy40 2.403 . S
O46 C48 1.254 . S
O47 Dy40 2.664 . S
O47 Dy43 2.310 . S
O47 C48 1.268 . S
C48 O46 1.254 . S
C48 O47 1.268 . S
C49 O54 1.254 . S
C49 O55 1.268 . S
O50 Dy43 2.351 . S
O50 C58 1.249 . S
O51 Dy40 2.326 . S
O51 C58 1.267 . S
O52 C41 1.185 . S
O52 Dy43 2.398 . S
O53 C41 1.355 . S
O53 Dy43 2.491 . S
O54 Dy43 2.403 . S
O54 C49 1.254 . S
O55 Dy40 2.310 . S
O55 Dy43 2.664 . S
O55 C49 1.268 . S
O56 Dy40 2.351 . S
O56 C59 1.249 . S
O57 Dy43 2.326 . S
O57 C59 1.267 . S
C58 O50 1.249 . S
C58 O51 1.267 . S
C59 O56 1.249 . S
C59 O57 1.267 . S
Dy60 O64 2.398 . S
Dy60 O65 2.491 . S
Dy60 O66 2.403 . S
Dy60 O67 2.664 . S
Dy60 O71 2.326 . S
Dy60 O75 2.310 . S
Dy60 O76 2.351 . S
C61 O72 1.185 . S
C61 O73 1.355 . S
C62 O64 1.185 . S
C62 O65 1.355 . S
Dy63 O67 2.310 . S
Dy63 O70 2.351 . S
Dy63 O72 2.398 . S
Dy63 O73 2.491 . S
Dy63 O74 2.403 . S
Dy63 O75 2.664 . S
Dy63 O77 2.326 . S
O64 Dy60 2.398 . S
O64 C62 1.185 . S
O65 Dy60 2.491 . S
O65 C62 1.355 . S
O66 Dy60 2.403 . S
O66 C68 1.254 . S
O67 Dy60 2.664 . S
O67 Dy63 2.310 . S
O67 C68 1.268 . S
C68 O66 1.254 . S
C68 O67 1.268 . S
C69 O74 1.254 . S
C69 O75 1.268 . S
O70 Dy63 2.351 . S
O70 C78 1.249 . S
O71 Dy60 2.326 . S
O71 C78 1.267 . S
O72 C61 1.185 . S
O72 Dy63 2.398 . S
O73 C61 1.355 . S
O73 Dy63 2.491 . S
O74 Dy63 2.403 . S
O74 C69 1.254 . S
O75 Dy60 2.310 . S
O75 Dy63 2.664 . S
O75 C69 1.268 . S
O76 Dy60 2.351 . S
O76 C79 1.249 . S
O77 Dy63 2.326 . S
O77 C79 1.267 . S
C78 O70 1.249 . S
C78 O71 1.267 . S
C79 O76 1.249 . S
C79 O77 1.267 . S
Dy80 O84 2.398 1_556 S
Dy80 O85 2.491 1_556 S
Dy80 O86 2.403 . S
Dy80 O87 2.664 . S
Dy80 O91 2.326 1_556 S
Dy80 O95 2.310 1_556 S
Dy80 O96 2.351 . S
C81 O92 1.185 . S
C81 O93 1.355 . S
C82 O84 1.185 . S
C82 O85 1.355 . S
Dy83 O87 2.310 1_554 S
Dy83 O90 2.351 . S
Dy83 O92 2.398 1_554 S
Dy83 O93 2.491 1_554 S
Dy83 O94 2.403 . S
Dy83 O95 2.664 . S
Dy83 O97 2.326 1_554 S
O84 Dy80 2.398 1_554 S
O84 C82 1.185 . S
O85 Dy80 2.491 1_554 S
O85 C82 1.355 . S
O86 Dy80 2.403 . S
O86 C88 1.254 . S
O87 Dy80 2.664 . S
O87 Dy83 2.310 1_556 S
O87 C88 1.268 . S
C88 O86 1.254 . S
C88 O87 1.268 . S
C89 O94 1.254 . S
C89 O95 1.268 . S
O90 Dy83 2.351 . S
O90 C98 1.249 . S
O91 Dy80 2.326 1_554 S
O91 C98 1.267 . S
O92 C81 1.185 . S
O92 Dy83 2.398 1_556 S
O93 C81 1.355 . S
O93 Dy83 2.491 1_556 S
O94 Dy83 2.403 . S
O94 C89 1.254 . S
O95 Dy80 2.310 1_554 S
O95 Dy83 2.664 . S
O95 C89 1.268 . S
O96 Dy80 2.351 . S
O96 C99 1.249 . S
O97 Dy83 2.326 1_556 S
O97 C99 1.267 . S
C98 O90 1.249 . S
C98 O91 1.267 . S
C99 O96 1.249 . S
C99 O97 1.267 . S
Dy100 O104 2.398 1_556 S
Dy100 O105 2.491 1_556 S
Dy100 O106 2.403 . S
Dy100 O107 2.664 . S
Dy100 O111 2.326 1_556 S
Dy100 O115 2.310 1_556 S
Dy100 O116 2.351 . S
C101 O112 1.185 . S
C101 O113 1.355 . S
C102 O104 1.185 . S
C102 O105 1.355 . S
Dy103 O107 2.310 1_554 S
Dy103 O110 2.351 . S
Dy103 O112 2.398 1_554 S
Dy103 O113 2.491 1_554 S
Dy103 O114 2.403 . S
Dy103 O115 2.664 . S
Dy103 O117 2.326 1_554 S
O104 Dy100 2.398 1_554 S
O104 C102 1.185 . S
O105 Dy100 2.491 1_554 S
O105 C102 1.355 . S
O106 Dy100 2.403 . S
O106 C108 1.254 . S
O107 Dy100 2.664 . S
O107 Dy103 2.310 1_556 S
O107 C108 1.268 . S
C108 O106 1.254 . S
C108 O107 1.268 . S
C109 O114 1.254 . S
C109 O115 1.268 . S
O110 Dy103 2.351 . S
O110 C118 1.249 . S
O111 Dy100 2.326 1_554 S
O111 C118 1.267 . S
O112 C101 1.185 . S
O112 Dy103 2.398 1_556 S
O113 C101 1.355 . S
O113 Dy103 2.491 1_556 S
O114 Dy103 2.403 . S
O114 C109 1.254 . S
O115 Dy100 2.310 1_554 S
O115 Dy103 2.664 . S
O115 C109 1.268 . S
O116 Dy100 2.351 . S
O116 C119 1.249 . S
O117 Dy103 2.326 1_556 S
O117 C119 1.267 . S
C118 O110 1.249 . S
C118 O111 1.267 . S
C119 O116 1.249 . S
C119 O117 1.267 . S
Dy120 O124 2.398 1_556 S
Dy120 O125 2.491 1_556 S
Dy120 O126 2.403 . S
Dy120 O127 2.664 . S
Dy120 O131 2.326 1_556 S
Dy120 O135 2.310 1_556 S
Dy120 O136 2.351 . S
C121 O132 1.185 . S
C121 O133 1.355 . S
C122 O124 1.185 . S
C122 O125 1.355 . S
Dy123 O127 2.310 1_554 S
Dy123 O130 2.351 . S
Dy123 O132 2.398 1_554 S
Dy123 O133 2.491 1_554 S
Dy123 O134 2.403 . S
Dy123 O135 2.664 . S
Dy123 O137 2.326 1_554 S
O124 Dy120 2.398 1_554 S
O124 C122 1.185 . S
O125 Dy120 2.491 1_554 S
O125 C122 1.355 . S
O126 Dy120 2.403 . S
O126 C128 1.254 . S
O127 Dy120 2.664 . S
O127 Dy123 2.310 1_556 S
O127 C128 1.268 . S
C128 O126 1.254 . S
C128 O127 1.268 . S
C129 O134 1.254 . S
C129 O135 1.268 . S
O130 Dy123 2.351 . S
O130 C138 1.249 . S
O131 Dy120 2.326 1_554 S
O131 C138 1.267 . S
O132 C121 1.185 . S
O132 Dy123 2.398 1_556 S
O133 C121 1.355 . S
O133 Dy123 2.491 1_556 S
O134 Dy123 2.403 . S
O134 C129 1.254 . S
O135 Dy120 2.310 1_554 S
O135 Dy123 2.664 . S
O135 C129 1.268 . S
O136 Dy120 2.351 . S
O136 C139 1.249 . S
O137 Dy123 2.326 1_556 S
O137 C139 1.267 . S
C138 O130 1.249 . S
C138 O131 1.267 . S
C139 O136 1.249 . S
C139 O137 1.267 . S
Dy140 O144 2.398 1_556 S
Dy140 O145 2.491 1_556 S
Dy140 O146 2.403 . S
Dy140 O147 2.664 . S
Dy140 O151 2.326 1_556 S
Dy140 O155 2.310 1_556 S
Dy140 O156 2.351 . S
C141 O152 1.185 . S
C141 O153 1.355 . S
C142 O144 1.185 . S
C142 O145 1.355 . S
Dy143 O147 2.310 1_554 S
Dy143 O150 2.351 . S
Dy143 O152 2.398 1_554 S
Dy143 O153 2.491 1_554 S
Dy143 O154 2.403 . S
Dy143 O155 2.664 . S
Dy143 O157 2.326 1_554 S
O144 Dy140 2.398 1_554 S
O144 C142 1.185 . S
O145 Dy140 2.491 1_554 S
O145 C142 1.355 . S
O146 Dy140 2.403 . S
O146 C148 1.254 . S
O147 Dy140 2.664 . S
O147 Dy143 2.310 1_556 S
O147 C148 1.268 . S
C148 O146 1.254 . S
C148 O147 1.268 . S
C149 O154 1.254 . S
C149 O155 1.268 . S
O150 Dy143 2.351 . S
O150 C158 1.249 . S
O151 Dy140 2.326 1_554 S
O151 C158 1.267 . S
O152 C141 1.185 . S
O152 Dy143 2.398 1_556 S
O153 C141 1.355 . S
O153 Dy143 2.491 1_556 S
O154 Dy143 2.403 . S
O154 C149 1.254 . S
O155 Dy140 2.310 1_554 S
O155 Dy143 2.664 . S
O155 C149 1.268 . S
O156 Dy140 2.351 . S
O156 C159 1.249 . S
O157 Dy143 2.326 1_556 S
O157 C159 1.267 . S
C158 O150 1.249 . S
C158 O151 1.267 . S
C159 O156 1.249 . S
C159 O157 1.267 . S
H160 C166 0.930 . S
H161 C170 0.930 . S
H162 C175 0.929 . S
H163 C173 0.929 . S
H164 C168 0.929 . S
H165 C174 0.929 . S
C166 H160 0.930 . S
C166 C167 1.367 . S
C166 C174 1.378 . S
C167 C166 1.367 . S
C167 C175 1.433 . S
C168 H164 0.929 . S
C168 C170 1.378 . S
C168 C172 1.350 . S
C169 C172 1.463 . S
C169 C174 1.350 . S
C169 N177 1.427 . S
C170 H161 0.930 . S
C170 C168 1.378 . S
C170 C171 1.367 . S
C171 C170 1.367 . S
C171 C173 1.433 . S
C172 C168 1.350 . S
C172 C169 1.463 . S
C172 N176 1.427 . S
C173 H163 0.929 . S
C173 C171 1.433 . S
C173 N176 1.384 . S
C174 H165 0.929 . S
C174 C166 1.378 . S
C174 C169 1.350 . S
C175 H162 0.929 . S
C175 C167 1.433 . S
C175 N177 1.384 . S
N176 C172 1.427 . S
N176 C173 1.384 . S
N177 C169 1.427 . S
N177 C175 1.384 . S
H178 C184 0.930 . S
H179 C188 0.930 . S
H180 C193 0.929 . S
H181 C191 0.929 . S
H182 C186 0.929 . S
H183 C192 0.929 . S
C184 H178 0.930 . S
C184 C185 1.367 . S
C184 C192 1.378 . S
C185 C184 1.367 . S
C185 C193 1.433 . S
C186 H182 0.929 . S
C186 C188 1.378 . S
C186 C190 1.350 . S
C187 C190 1.463 . S
C187 C192 1.350 . S
C187 N195 1.427 . S
C188 H179 0.930 . S
C188 C186 1.378 . S
C188 C189 1.367 . S
C189 C188 1.367 . S
C189 C191 1.433 . S
C190 C186 1.350 . S
C190 C187 1.463 . S
C190 N194 1.427 . S
C191 H181 0.929 . S
C191 C189 1.433 . S
C191 N194 1.384 . S
C192 H183 0.929 . S
C192 C184 1.378 . S
C192 C187 1.350 . S
C193 H180 0.929 . S
C193 C185 1.433 . S
C193 N195 1.384 . S
N194 C190 1.427 . S
N194 C191 1.384 . S
N195 C187 1.427 . S
N195 C193 1.384 . S
H196 C202 0.930 . S
H197 C206 0.930 . S
H198 C211 0.929 . S
H199 C209 0.929 . S
H200 C204 0.929 . S
H201 C210 0.929 . S
C202 H196 0.930 . S
C202 C203 1.367 . S
C202 C210 1.378 . S
C203 C202 1.367 . S
C203 C211 1.433 . S
C204 H200 0.929 . S
C204 C206 1.378 . S
C204 C208 1.350 . S
C205 C208 1.463 . S
C205 C210 1.350 . S
C205 N213 1.427 . S
C206 H197 0.930 . S
C206 C204 1.378 . S
C206 C207 1.367 . S
C207 C206 1.367 . S
C207 C209 1.433 . S
C208 C204 1.350 . S
C208 C205 1.463 . S
C208 N212 1.427 . S
C209 H199 0.929 . S
C209 C207 1.433 . S
C209 N212 1.384 . S
C210 H201 0.929 . S
C210 C202 1.378 . S
C210 C205 1.350 . S
C211 H198 0.929 . S
C211 C203 1.433 . S
C211 N213 1.384 . S
N212 C208 1.427 . S
N212 C209 1.384 . S
N213 C205 1.427 . S
N213 C211 1.384 . S
H214 C220 0.930 . S
H215 C224 0.930 . S
H216 C229 0.929 . S
H217 C227 0.929 . S
H218 C222 0.929 . S
H219 C228 0.929 . S
C220 H214 0.930 . S
C220 C221 1.367 . S
C220 C228 1.378 . S
C221 C220 1.367 . S
C221 C229 1.433 . S
C222 H218 0.929 . S
C222 C224 1.378 . S
C222 C226 1.350 . S
C223 C226 1.463 . S
C223 C228 1.350 . S
C223 N231 1.427 . S
C224 H215 0.930 . S
C224 C222 1.378 . S
C224 C225 1.367 . S
C225 C224 1.367 . S
C225 C227 1.433 . S
C226 C222 1.350 . S
C226 C223 1.463 . S
C226 N230 1.427 . S
C227 H217 0.929 . S
C227 C225 1.433 . S
C227 N230 1.384 . S
C228 H219 0.929 . S
C228 C220 1.378 . S
C228 C223 1.350 . S
C229 H216 0.929 . S
C229 C221 1.433 . S
C229 N231 1.384 . S
N230 C226 1.427 . S
N230 C227 1.384 . S
N231 C223 1.427 . S
N231 C229 1.384 . S
H232 C238 0.930 . S
H233 C242 0.930 . S
H234 C247 0.929 . S
H235 C245 0.929 . S
H236 C240 0.929 . S
H237 C246 0.929 . S
C238 H232 0.930 . S
C238 C239 1.367 . S
C238 C246 1.378 . S
C239 C238 1.367 . S
C239 C247 1.433 . S
C240 H236 0.929 . S
C240 C242 1.378 . S
C240 C244 1.350 . S
C241 C244 1.463 1_565 S
C241 C246 1.350 . S
C241 N249 1.427 . S
C242 H233 0.930 . S
C242 C240 1.378 . S
C242 C243 1.367 . S
C243 C242 1.367 . S
C243 C245 1.433 . S
C244 C240 1.350 . S
C244 C241 1.463 1_545 S
C244 N248 1.427 . S
C245 H235 0.929 . S
C245 C243 1.433 . S
C245 N248 1.384 . S
C246 H237 0.929 . S
C246 C238 1.378 . S
C246 C241 1.350 . S
C247 H234 0.929 . S
C247 C239 1.433 . S
C247 N249 1.384 . S
N248 C244 1.427 . S
N248 C245 1.384 . S
N249 C241 1.427 . S
N249 C247 1.384 . S
H250 C256 0.930 . S
H251 C260 0.930 . S
H252 C265 0.929 . S
H253 C263 0.929 . S
H254 C258 0.929 . S
H255 C264 0.929 . S
C256 H250 0.930 . S
C256 C257 1.367 . S
C256 C264 1.378 . S
C257 C256 1.367 . S
C257 C265 1.433 . S
C258 H254 0.929 . S
C258 C260 1.378 . S
C258 C262 1.350 . S
C259 C262 1.463 . S
C259 C264 1.350 . S
C259 N267 1.427 . S
C260 H251 0.930 . S
C260 C258 1.378 . S
C260 C261 1.367 . S
C261 C260 1.367 . S
C261 C263 1.433 . S
C262 C258 1.350 . S
C262 C259 1.463 . S
C262 N266 1.427 . S
C263 H253 0.929 . S
C263 C261 1.433 . S
C263 N266 1.384 . S
C264 H255 0.929 . S
C264 C256 1.378 . S
C264 C259 1.350 . S
C265 H252 0.929 . S
C265 C257 1.433 . S
C265 N267 1.384 . S
N266 C262 1.427 . S
N266 C263 1.384 . S
N267 C259 1.427 . S
N267 C265 1.384 . S
H268 C274 0.930 . S
H269 C278 0.930 . S
H270 C283 0.929 . S
H271 C281 0.929 . S
H272 C276 0.929 . S
H273 C282 0.929 . S
C274 H268 0.930 . S
C274 C275 1.367 . S
C274 C282 1.378 . S
C275 C274 1.367 . S
C275 C283 1.433 . S
C276 H272 0.929 . S
C276 C278 1.378 . S
C276 C280 1.350 . S
C277 C280 1.463 1_565 S
C277 C282 1.350 . S
C277 N285 1.427 . S
C278 H269 0.930 . S
C278 C276 1.378 . S
C278 C279 1.367 . S
C279 C278 1.367 . S
C279 C281 1.433 . S
C280 C276 1.350 . S
C280 C277 1.463 1_545 S
C280 N284 1.427 . S
C281 H271 0.929 . S
C281 C279 1.433 . S
C281 N284 1.384 . S
C282 H273 0.929 . S
C282 C274 1.378 . S
C282 C277 1.350 . S
C283 H270 0.929 . S
C283 C275 1.433 . S
C283 N285 1.384 . S
N284 C280 1.427 . S
N284 C281 1.384 . S
N285 C277 1.427 . S
N285 C283 1.384 . S
H286 C292 0.930 . S
H287 C296 0.930 . S
H288 C301 0.929 . S
H289 C299 0.929 . S
H290 C294 0.929 . S
H291 C300 0.929 . S
C292 H286 0.930 . S
C292 C293 1.367 . S
C292 C300 1.378 . S
C293 C292 1.367 . S
C293 C301 1.433 . S
C294 H290 0.929 . S
C294 C296 1.378 . S
C294 C298 1.350 . S
C295 C298 1.463 . S
C295 C300 1.350 . S
C295 N303 1.427 . S
C296 H287 0.930 . S
C296 C294 1.378 . S
C296 C297 1.367 . S
C297 C296 1.367 . S
C297 C299 1.433 . S
C298 C294 1.350 . S
C298 C295 1.463 . S
C298 N302 1.427 . S
C299 H289 0.929 . S
C299 C297 1.433 . S
C299 N302 1.384 . S
C300 H291 0.929 . S
C300 C292 1.378 . S
C300 C295 1.350 . S
C301 H288 0.929 . S
C301 C293 1.433 . S
C301 N303 1.384 . S
N302 C298 1.427 . S
N302 C299 1.384 . S
N303 C295 1.427 . S
N303 C301 1.384 . S
H304 C310 0.930 . S
H305 C314 0.930 . S
H306 C319 0.929 . S
H307 C317 0.929 . S
H308 C312 0.929 . S
H309 C318 0.929 . S
C310 H304 0.930 . S
C310 C311 1.367 . S
C310 C318 1.378 . S
C311 C310 1.367 . S
C311 C319 1.433 1_556 S
C312 H308 0.929 . S
C312 C314 1.378 . S
C312 C316 1.350 1_554 S
C313 C316 1.463 . S
C313 C318 1.350 . S
C313 N321 1.427 1_556 S
C314 H305 0.930 . S
C314 C312 1.378 . S
C314 C315 1.367 1_554 S
C315 C314 1.367 1_556 S
C315 C317 1.433 . S
C316 C312 1.350 1_556 S
C316 C313 1.463 . S
C316 N320 1.427 . S
C317 H307 0.929 . S
C317 C315 1.433 . S
C317 N320 1.384 . S
C318 H309 0.929 . S
C318 C310 1.378 . S
C318 C313 1.350 . S
C319 H306 0.929 . S
C319 C311 1.433 1_554 S
C319 N321 1.384 . S
N320 C316 1.427 . S
N320 C317 1.384 . S
N321 C313 1.427 1_554 S
N321 C319 1.384 . S
H322 C328 0.930 . S
H323 C332 0.930 . S
H324 C337 0.929 . S
H325 C335 0.929 . S
H326 C330 0.929 . S
H327 C336 0.929 . S
C328 H322 0.930 . S
C328 C329 1.367 . S
C328 C336 1.378 . S
C329 C328 1.367 . S
C329 C337 1.433 1_556 S
C330 H326 0.929 . S
C330 C332 1.378 . S
C330 C334 1.350 1_554 S
C331 C334 1.463 1_565 S
C331 C336 1.350 . S
C331 N339 1.427 1_556 S
C332 H323 0.930 . S
C332 C330 1.378 . S
C332 C333 1.367 1_554 S
C333 C332 1.367 1_556 S
C333 C335 1.433 . S
C334 C330 1.350 1_556 S
C334 C331 1.463 1_545 S
C334 N338 1.427 . S
C335 H325 0.929 . S
C335 C333 1.433 . S
C335 N338 1.384 . S
C336 H327 0.929 . S
C336 C328 1.378 . S
C336 C331 1.350 . S
C337 H324 0.929 . S
C337 C329 1.433 1_554 S
C337 N339 1.384 . S
N338 C334 1.427 . S
N338 C335 1.384 . S
N339 C331 1.427 1_554 S
N339 C337 1.384 . S
H340 C346 0.930 . S
H341 C350 0.930 . S
H342 C355 0.929 . S
H343 C353 0.929 . S
H344 C348 0.929 . S
H345 C354 0.929 . S
C346 H340 0.930 . S
C346 C347 1.367 . S
C346 C354 1.378 . S
C347 C346 1.367 . S
C347 C355 1.433 1_554 S
C348 H344 0.929 . S
C348 C350 1.378 . S
C348 C352 1.350 1_556 S
C349 C352 1.463 . S
C349 C354 1.350 . S
C349 N357 1.427 1_554 S
C350 H341 0.930 . S
C350 C348 1.378 . S
C350 C351 1.367 1_556 S
C351 C350 1.367 1_554 S
C351 C353 1.433 . S
C352 C348 1.350 1_554 S
C352 C349 1.463 . S
C352 N356 1.427 . S
C353 H343 0.929 . S
C353 C351 1.433 . S
C353 N356 1.384 . S
C354 H345 0.929 . S
C354 C346 1.378 . S
C354 C349 1.350 . S
C355 H342 0.929 . S
C355 C347 1.433 1_556 S
C355 N357 1.384 . S
N356 C352 1.427 . S
N356 C353 1.384 . S
N357 C349 1.427 1_556 S
N357 C355 1.384 . S
H358 C364 0.930 . S
H359 C368 0.930 . S
H360 C373 0.929 . S
H361 C371 0.929 . S
H362 C366 0.929 . S
H363 C372 0.929 . S
C364 H358 0.930 . S
C364 C365 1.367 1_556 S
C364 C372 1.378 . S
C365 C364 1.367 1_554 S
C365 C373 1.433 . S
C366 H362 0.929 . S
C366 C368 1.378 . S
C366 C370 1.350 . S
C367 C370 1.463 1_545 S
C367 C372 1.350 1_554 S
C367 N375 1.427 . S
C368 H359 0.930 . S
C368 C366 1.378 . S
C368 C369 1.367 . S
C369 C368 1.367 . S
C369 C371 1.433 1_554 S
C370 C366 1.350 . S
C370 C367 1.463 1_565 S
C370 N374 1.427 1_554 S
C371 H361 0.929 . S
C371 C369 1.433 1_556 S
C371 N374 1.384 . S
C372 H363 0.929 . S
C372 C364 1.378 . S
C372 C367 1.350 1_556 S
C373 H360 0.929 . S
C373 C365 1.433 . S
C373 N375 1.384 . S
N374 C370 1.427 1_556 S
N374 C371 1.384 . S
N375 C367 1.427 . S
N375 C373 1.384 . S
H376 C382 0.930 . S
H377 C386 0.930 . S
H378 C391 0.929 . S
H379 C389 0.929 . S
H380 C384 0.929 . S
H381 C390 0.929 . S
C382 H376 0.930 . S
C382 C383 1.367 . S
C382 C390 1.378 . S
C383 C382 1.367 . S
C383 C391 1.433 . S
C384 H380 0.929 . S
C384 C386 1.378 . S
C384 C388 1.350 . S
C385 C388 1.463 1_554 S
C385 C390 1.350 . S
C385 N393 1.427 . S
C386 H377 0.930 . S
C386 C384 1.378 . S
C386 C387 1.367 . S
C387 C386 1.367 . S
C387 C389 1.433 . S
C388 C384 1.350 . S
C388 C385 1.463 1_556 S
C388 N392 1.427 . S
C389 H379 0.929 . S
C389 C387 1.433 . S
C389 N392 1.384 . S
C390 H381 0.929 . S
C390 C382 1.378 . S
C390 C385 1.350 . S
C391 H378 0.929 . S
C391 C383 1.433 . S
C391 N393 1.384 . S
N392 C388 1.427 . S
N392 C389 1.384 . S
N393 C385 1.427 . S
N393 C391 1.384 . S
H394 C400 0.930 . S
H395 C404 0.930 . S
H396 C409 0.929 . S
H397 C407 0.929 . S
H398 C402 0.929 . S
H399 C408 0.929 . S
C400 H394 0.930 . S
C400 C401 1.367 . S
C400 C408 1.378 . S
C401 C400 1.367 . S
C401 C409 1.433 . S
C402 H398 0.929 . S
C402 C404 1.378 . S
C402 C406 1.350 . S
C403 C406 1.463 1_554 S
C403 C408 1.350 . S
C403 N411 1.427 . S
C404 H395 0.930 . S
C404 C402 1.378 . S
C404 C405 1.367 . S
C405 C404 1.367 . S
C405 C407 1.433 . S
C406 C402 1.350 . S
C406 C403 1.463 1_556 S
C406 N410 1.427 . S
C407 H397 0.929 . S
C407 C405 1.433 . S
C407 N410 1.384 . S
C408 H399 0.929 . S
C408 C400 1.378 . S
C408 C403 1.350 . S
C409 H396 0.929 . S
C409 C401 1.433 . S
C409 N411 1.384 . S
N410 C406 1.427 . S
N410 C407 1.384 . S
N411 C403 1.427 . S
N411 C409 1.384 . S
H412 C418 0.930 . S
H413 C422 0.930 . S
H414 C427 0.929 . S
H415 C425 0.929 . S
H416 C420 0.929 . S
H417 C426 0.929 . S
C418 H412 0.930 . S
C418 C419 1.367 . S
C418 C426 1.378 . S
C419 C418 1.367 . S
C419 C427 1.433 . S
C420 H416 0.929 . S
C420 C422 1.378 . S
C420 C424 1.350 . S
C421 C424 1.463 1_554 S
C421 C426 1.350 . S
C421 N429 1.427 . S
C422 H413 0.930 . S
C422 C420 1.378 . S
C422 C423 1.367 . S
C423 C422 1.367 . S
C423 C425 1.433 . S
C424 C420 1.350 . S
C424 C421 1.463 1_556 S
C424 N428 1.427 . S
C425 H415 0.929 . S
C425 C423 1.433 . S
C425 N428 1.384 . S
C426 H417 0.929 . S
C426 C418 1.378 . S
C426 C421 1.350 . S
C427 H414 0.929 . S
C427 C419 1.433 . S
C427 N429 1.384 . S
N428 C424 1.427 . S
N428 C425 1.384 . S
N429 C421 1.427 . S
N429 C427 1.384 . S
H430 C436 0.930 . S
H431 C440 0.930 . S
H432 C445 0.929 . S
H433 C443 0.929 . S
H434 C438 0.929 . S
H435 C444 0.929 . S
C436 H430 0.930 . S
C436 C437 1.367 . S
C436 C444 1.378 . S
C437 C436 1.367 . S
C437 C445 1.433 . S
C438 H434 0.929 . S
C438 C440 1.378 . S
C438 C442 1.350 . S
C439 C442 1.463 1_556 S
C439 C444 1.350 . S
C439 N447 1.427 . S
C440 H431 0.930 . S
C440 C438 1.378 . S
C440 C441 1.367 . S
C441 C440 1.367 . S
C441 C443 1.433 . S
C442 C438 1.350 . S
C442 C439 1.463 1_554 S
C442 N446 1.427 . S
C443 H433 0.929 . S
C443 C441 1.433 . S
C443 N446 1.384 . S
C444 H435 0.929 . S
C444 C436 1.378 . S
C444 C439 1.350 . S
C445 H432 0.929 . S
C445 C437 1.433 . S
C445 N447 1.384 . S
N446 C442 1.427 . S
N446 C443 1.384 . S
N447 C439 1.427 . S
N447 C445 1.384 . S
H448 C454 0.930 . S
H449 C458 0.930 . S
H450 C463 0.929 . S
H451 C461 0.929 . S
H452 C456 0.929 . S
H453 C462 0.929 . S
C454 H448 0.930 . S
C454 C455 1.367 . S
C454 C462 1.378 . S
C455 C454 1.367 . S
C455 C463 1.433 . S
C456 H452 0.929 . S
C456 C458 1.378 . S
C456 C460 1.350 . S
C457 C460 1.463 . S
C457 C462 1.350 . S
C457 N465 1.427 . S
C458 H449 0.930 . S
C458 C456 1.378 . S
C458 C459 1.367 . S
C459 C458 1.367 . S
C459 C461 1.433 . S
C460 C456 1.350 . S
C460 C457 1.463 . S
C460 N464 1.427 . S
C461 H451 0.929 . S
C461 C459 1.433 . S
C461 N464 1.384 . S
C462 H453 0.929 . S
C462 C454 1.378 . S
C462 C457 1.350 . S
C463 H450 0.929 . S
C463 C455 1.433 . S
C463 N465 1.384 . S
N464 C460 1.427 . S
N464 C461 1.384 . S
N465 C457 1.427 . S
N465 C463 1.384 . S
H466 C472 0.930 . S
H467 C476 0.930 . S
H468 C481 0.929 . S
H469 C479 0.929 . S
H470 C474 0.929 . S
H471 C480 0.929 . S
C472 H466 0.930 . S
C472 C473 1.367 . S
C472 C480 1.378 . S
C473 C472 1.367 . S
C473 C481 1.433 . S
C474 H470 0.929 . S
C474 C476 1.378 . S
C474 C478 1.350 . S
C475 C478 1.463 . S
C475 C480 1.350 . S
C475 N483 1.427 . S
C476 H467 0.930 . S
C476 C474 1.378 . S
C476 C477 1.367 . S
C477 C476 1.367 . S
C477 C479 1.433 . S
C478 C474 1.350 . S
C478 C475 1.463 . S
C478 N482 1.427 . S
C479 H469 0.929 . S
C479 C477 1.433 . S
C479 N482 1.384 . S
C480 H471 0.929 . S
C480 C472 1.378 . S
C480 C475 1.350 . S
C481 H468 0.929 . S
C481 C473 1.433 . S
C481 N483 1.384 . S
N482 C478 1.427 . S
N482 C479 1.384 . S
N483 C475 1.427 . S
N483 C481 1.384 . S
H484 C490 0.930 . S
H485 C494 0.930 . S
H486 C499 0.929 . S
H487 C497 0.929 . S
H488 C492 0.929 . S
H489 C498 0.929 . S
C490 H484 0.930 . S
C490 C491 1.367 . S
C490 C498 1.378 . S
C491 C490 1.367 . S
C491 C499 1.433 . S
C492 H488 0.929 . S
C492 C494 1.378 . S
C492 C496 1.350 . S
C493 C496 1.463 . S
C493 C498 1.350 . S
C493 N501 1.427 . S
C494 H485 0.930 . S
C494 C492 1.378 . S
C494 C495 1.367 . S
C495 C494 1.367 . S
C495 C497 1.433 . S
C496 C492 1.350 . S
C496 C493 1.463 . S
C496 N500 1.427 . S
C497 H487 0.929 . S
C497 C495 1.433 . S
C497 N500 1.384 . S
C498 H489 0.929 . S
C498 C490 1.378 . S
C498 C493 1.350 . S
C499 H486 0.929 . S
C499 C491 1.433 . S
C499 N501 1.384 . S
N500 C496 1.427 . S
N500 C497 1.384 . S
N501 C493 1.427 . S
N501 C499 1.384 . S
H502 C508 0.930 . S
H503 C512 0.930 . S
H504 C517 0.929 . S
H505 C515 0.929 . S
H506 C510 0.929 . S
H507 C516 0.929 . S
C508 H502 0.930 . S
C508 C509 1.367 . S
C508 C516 1.378 . S
C509 C508 1.367 . S
C509 C517 1.433 . S
C510 H506 0.929 . S
C510 C512 1.378 . S
C510 C514 1.350 . S
C511 C514 1.463 . S
C511 C516 1.350 . S
C511 N519 1.427 . S
C512 H503 0.930 . S
C512 C510 1.378 . S
C512 C513 1.367 . S
C513 C512 1.367 . S
C513 C515 1.433 . S
C514 C510 1.350 . S
C514 C511 1.463 . S
C514 N518 1.427 . S
C515 H505 0.929 . S
C515 C513 1.433 . S
C515 N518 1.384 . S
C516 H507 0.929 . S
C516 C508 1.378 . S
C516 C511 1.350 . S
C517 H504 0.929 . S
C517 C509 1.433 . S
C517 N519 1.384 . S
N518 C514 1.427 . S
N518 C515 1.384 . S
N519 C511 1.427 . S
N519 C517 1.384 . S
H520 C526 0.930 . S
H521 C530 0.930 . S
H522 C535 0.929 . S
H523 C533 0.929 . S
H524 C528 0.929 . S
H525 C534 0.929 . S
C526 H520 0.930 . S
C526 C527 1.367 . S
C526 C534 1.378 . S
C527 C526 1.367 . S
C527 C535 1.433 . S
C528 H524 0.929 . S
C528 C530 1.378 . S
C528 C532 1.350 . S
C529 C532 1.463 1_455 S
C529 C534 1.350 . S
C529 N537 1.427 . S
C530 H521 0.930 . S
C530 C528 1.378 . S
C530 C531 1.367 . S
C531 C530 1.367 . S
C531 C533 1.433 . S
C532 C528 1.350 . S
C532 C529 1.463 1_655 S
C532 N536 1.427 . S
C533 H523 0.929 . S
C533 C531 1.433 . S
C533 N536 1.384 . S
C534 H525 0.929 . S
C534 C526 1.378 . S
C534 C529 1.350 . S
C535 H522 0.929 . S
C535 C527 1.433 . S
C535 N537 1.384 . S
N536 C532 1.427 . S
N536 C533 1.384 . S
N537 C529 1.427 . S
N537 C535 1.384 . S
H538 C544 0.930 . S
H539 C548 0.930 . S
H540 C553 0.929 . S
H541 C551 0.929 . S
H542 C546 0.929 . S
H543 C552 0.929 . S
C544 H538 0.930 . S
C544 C545 1.367 . S
C544 C552 1.378 . S
C545 C544 1.367 . S
C545 C553 1.433 . S
C546 H542 0.929 . S
C546 C548 1.378 . S
C546 C550 1.350 . S
C547 C550 1.463 1_655 S
C547 C552 1.350 . S
C547 N555 1.427 . S
C548 H539 0.930 . S
C548 C546 1.378 . S
C548 C549 1.367 . S
C549 C548 1.367 . S
C549 C551 1.433 . S
C550 C546 1.350 . S
C550 C547 1.463 1_455 S
C550 N554 1.427 . S
C551 H541 0.929 . S
C551 C549 1.433 . S
C551 N554 1.384 . S
C552 H543 0.929 . S
C552 C544 1.378 . S
C552 C547 1.350 . S
C553 H540 0.929 . S
C553 C545 1.433 . S
C553 N555 1.384 . S
N554 C550 1.427 . S
N554 C551 1.384 . S
N555 C547 1.427 . S
N555 C553 1.384 . S
H556 C562 0.930 . S
H557 C566 0.930 . S
H558 C571 0.929 . S
H559 C569 0.929 . S
H560 C564 0.929 . S
H561 C570 0.929 . S
C562 H556 0.930 . S
C562 C563 1.367 . S
C562 C570 1.378 . S
C563 C562 1.367 . S
C563 C571 1.433 . S
C564 H560 0.929 . S
C564 C566 1.378 . S
C564 C568 1.350 . S
C565 C568 1.463 . S
C565 C570 1.350 . S
C565 N573 1.427 . S
C566 H557 0.930 . S
C566 C564 1.378 . S
C566 C567 1.367 . S
C567 C566 1.367 . S
C567 C569 1.433 . S
C568 C564 1.350 . S
C568 C565 1.463 . S
C568 N572 1.427 . S
C569 H559 0.929 . S
C569 C567 1.433 . S
C569 N572 1.384 . S
C570 H561 0.929 . S
C570 C562 1.378 . S
C570 C565 1.350 . S
C571 H558 0.929 . S
C571 C563 1.433 . S
C571 N573 1.384 . S
N572 C568 1.427 . S
N572 C569 1.384 . S
N573 C565 1.427 . S
N573 C571 1.384 . S
H574 C580 0.930 . S
H575 C584 0.930 . S
H576 C589 0.929 . S
H577 C587 0.929 . S
H578 C582 0.929 . S
H579 C588 0.929 . S
C580 H574 0.930 . S
C580 C581 1.367 . S
C580 C588 1.378 . S
C581 C580 1.367 . S
C581 C589 1.433 . S
C582 H578 0.929 . S
C582 C584 1.378 . S
C582 C586 1.350 . S
C583 C586 1.463 . S
C583 C588 1.350 . S
C583 N591 1.427 . S
C584 H575 0.930 . S
C584 C582 1.378 . S
C584 C585 1.367 . S
C585 C584 1.367 . S
C585 C587 1.433 . S
C586 C582 1.350 . S
C586 C583 1.463 . S
C586 N590 1.427 . S
C587 H577 0.929 . S
C587 C585 1.433 . S
C587 N590 1.384 . S
C588 H579 0.929 . S
C588 C580 1.378 . S
C588 C583 1.350 . S
C589 H576 0.929 . S
C589 C581 1.433 . S
C589 N591 1.384 . S
N590 C586 1.427 . S
N590 C587 1.384 . S
N591 C583 1.427 . S
N591 C589 1.384 . S
C167 C2 1.668 . S
C171 C141 1.667 . S
C185 C121 1.669 . S
C189 C22 1.668 . S
C203 C102 1.671 . S
C207 C41 1.671 . S
C221 C82 1.672 . S
C225 C61 1.671 . S
C239 C48 1.465 . S
C243 C8 1.466 . S
C257 C28 1.471 . S
C261 C68 1.468 . S
C275 C69 1.462 . S
C279 C29 1.456 . S
C293 C49 1.459 . S
C297 C9 1.455 . S
C311 C88 1.454 . S
C315 C128 1.457 . S
C329 C108 1.465 . S
C333 C148 1.465 . S
C347 C149 1.462 . S
C351 C109 1.464 . S
C365 C129 1.453 . S
C369 C89 1.452 . S
C383 C19 1.629 . S
C387 C18 1.629 . S
C401 C39 1.639 . S
C405 C38 1.639 . S
C419 C59 1.639 . S
C423 C58 1.639 . S
C437 C78 1.638 . S
C441 C79 1.638 . S
C455 C98 1.635 . S
C459 C99 1.635 . S
C473 C119 1.630 . S
C477 C118 1.630 . S
C491 C138 1.635 . S
C495 C139 1.635 . S
C509 C158 1.632 . S
C513 C159 1.632 . S
C527 C1 1.868 . S
C531 C21 1.882 . S
C545 C62 1.881 . S
C549 C42 1.869 . S
C563 C81 1.871 . S
C567 C101 1.878 . S
C581 C142 1.877 . S
C585 C122 1.876 . S
