# Generated by pormake.
# Topology vbr, (6)-cn, num edge types: 1
# Building blocks:
#     Node 0, Type 0, BuildingBlock: OJICUG_clean_sbu_0, # of connection points: 6
#     Node 1, Type 0, BuildingBlock: OJICUG_clean_sbu_0, # of connection points: 6
#     Node 2, Type 0, BuildingBlock: OJICUG_clean_sbu_0, # of connection points: 6
#     Node 3, Type 0, BuildingBlock: OJICUG_clean_sbu_0, # of connection points: 6
#     Node 4, Type 0, BuildingBlock: OJICUG_clean_sbu_0, # of connection points: 6
#     Node 5, Type 0, BuildingBlock: OJICUG_clean_sbu_0, # of connection points: 6
#     Node 6, Type 0, BuildingBlock: OJICUG_clean_sbu_0, # of connection points: 6
#     Node 7, Type 0, BuildingBlock: OJICUG_clean_sbu_0, # of connection points: 6
#     Node 8, Type 0, BuildingBlock: OJICUG_clean_sbu_0, # of connection points: 6
#     Node 9, Type 0, BuildingBlock: OJICUG_clean_sbu_0, # of connection points: 6
#     Node 10, Type 0, BuildingBlock: OJICUG_clean_sbu_0, # of connection points: 6
#     Node 11, Type 0, BuildingBlock: OJICUG_clean_sbu_0, # of connection points: 6
#     Node 12, Type 0, BuildingBlock: OJICUG_clean_sbu_0, # of connection points: 6
#     Node 13, Type 0, BuildingBlock: OJICUG_clean_sbu_0, # of connection points: 6
#     Node 14, Type 0, BuildingBlock: OJICUG_clean_sbu_0, # of connection points: 6
#     Node 15, Type 0, BuildingBlock: OJICUG_clean_sbu_0, # of connection points: 6
#     Edge 16, Type (0, 0), BuildingBlock: CIFDUS_clean_linker_0, # of connection points: 2
#     Edge 17, Type (0, 0), BuildingBlock: CIFDUS_clean_linker_0, # of connection points: 2
#     Edge 18, Type (0, 0), BuildingBlock: CIFDUS_clean_linker_0, # of connection points: 2
#     Edge 19, Type (0, 0), BuildingBlock: CIFDUS_clean_linker_0, # of connection points: 2
#     Edge 20, Type (0, 0), BuildingBlock: CIFDUS_clean_linker_0, # of connection points: 2
#     Edge 21, Type (0, 0), BuildingBlock: CIFDUS_clean_linker_0, # of connection points: 2
#     Edge 22, Type (0, 0), BuildingBlock: CIFDUS_clean_linker_0, # of connection points: 2
#     Edge 23, Type (0, 0), BuildingBlock: CIFDUS_clean_linker_0, # of connection points: 2
#     Edge 24, Type (0, 0), BuildingBlock: CIFDUS_clean_linker_0, # of connection points: 2
#     Edge 25, Type (0, 0), BuildingBlock: CIFDUS_clean_linker_0, # of connection points: 2
#     Edge 26, Type (0, 0), BuildingBlock: CIFDUS_clean_linker_0, # of connection points: 2
#     Edge 27, Type (0, 0), BuildingBlock: CIFDUS_clean_linker_0, # of connection points: 2
#     Edge 28, Type (0, 0), BuildingBlock: CIFDUS_clean_linker_0, # of connection points: 2
#     Edge 29, Type (0, 0), BuildingBlock: CIFDUS_clean_linker_0, # of connection points: 2
#     Edge 30, Type (0, 0), BuildingBlock: CIFDUS_clean_linker_0, # of connection points: 2
#     Edge 31, Type (0, 0), BuildingBlock: CIFDUS_clean_linker_0, # of connection points: 2
#     Edge 32, Type (0, 0), BuildingBlock: CIFDUS_clean_linker_0, # of connection points: 2
#     Edge 33, Type (0, 0), BuildingBlock: CIFDUS_clean_linker_0, # of connection points: 2
#     Edge 34, Type (0, 0), BuildingBlock: CIFDUS_clean_linker_0, # of connection points: 2
#     Edge 35, Type (0, 0), BuildingBlock: CIFDUS_clean_linker_0, # of connection points: 2
#     Edge 36, Type (0, 0), BuildingBlock: CIFDUS_clean_linker_0, # of connection points: 2
#     Edge 37, Type (0, 0), BuildingBlock: CIFDUS_clean_linker_0, # of connection points: 2
#     Edge 38, Type (0, 0), BuildingBlock: CIFDUS_clean_linker_0, # of connection points: 2
#     Edge 39, Type (0, 0), BuildingBlock: CIFDUS_clean_linker_0, # of connection points: 2
#     Edge 40, Type (0, 0), BuildingBlock: CIFDUS_clean_linker_0, # of connection points: 2
#     Edge 41, Type (0, 0), BuildingBlock: CIFDUS_clean_linker_0, # of connection points: 2
#     Edge 42, Type (0, 0), BuildingBlock: CIFDUS_clean_linker_0, # of connection points: 2
#     Edge 43, Type (0, 0), BuildingBlock: CIFDUS_clean_linker_0, # of connection points: 2
#     Edge 44, Type (0, 0), BuildingBlock: CIFDUS_clean_linker_0, # of connection points: 2
#     Edge 45, Type (0, 0), BuildingBlock: CIFDUS_clean_linker_0, # of connection points: 2
#     Edge 46, Type (0, 0), BuildingBlock: CIFDUS_clean_linker_0, # of connection points: 2
#     Edge 47, Type (0, 0), BuildingBlock: CIFDUS_clean_linker_0, # of connection points: 2
#     Edge 48, Type (0, 0), BuildingBlock: CIFDUS_clean_linker_0, # of connection points: 2
#     Edge 49, Type (0, 0), BuildingBlock: CIFDUS_clean_linker_0, # of connection points: 2
#     Edge 50, Type (0, 0), BuildingBlock: CIFDUS_clean_linker_0, # of connection points: 2
#     Edge 51, Type (0, 0), BuildingBlock: CIFDUS_clean_linker_0, # of connection points: 2
#     Edge 52, Type (0, 0), BuildingBlock: CIFDUS_clean_linker_0, # of connection points: 2
#     Edge 53, Type (0, 0), BuildingBlock: CIFDUS_clean_linker_0, # of connection points: 2
#     Edge 54, Type (0, 0), BuildingBlock: CIFDUS_clean_linker_0, # of connection points: 2
#     Edge 55, Type (0, 0), BuildingBlock: CIFDUS_clean_linker_0, # of connection points: 2
#     Edge 56, Type (0, 0), BuildingBlock: CIFDUS_clean_linker_0, # of connection points: 2
#     Edge 57, Type (0, 0), BuildingBlock: CIFDUS_clean_linker_0, # of connection points: 2
#     Edge 58, Type (0, 0), BuildingBlock: CIFDUS_clean_linker_0, # of connection points: 2
#     Edge 59, Type (0, 0), BuildingBlock: CIFDUS_clean_linker_0, # of connection points: 2
#     Edge 60, Type (0, 0), BuildingBlock: CIFDUS_clean_linker_0, # of connection points: 2
#     Edge 61, Type (0, 0), BuildingBlock: CIFDUS_clean_linker_0, # of connection points: 2
#     Edge 62, Type (0, 0), BuildingBlock: CIFDUS_clean_linker_0, # of connection points: 2
#     Edge 63, Type (0, 0), BuildingBlock: CIFDUS_clean_linker_0, # of connection points: 2
# Relax obj value: 0.306
# Max RMSD: 0.281
# Mean RMSD: 0.281
data_MOF--net-vbr--node1-OJICUG_clean_sbu_0--edge1-CIFDUS_clean_linker_0
_symmetry_space_group_name_H-M    P1
_symmetry_Int_Tables_number       1
_symmetry_cell_setting            triclinic
loop_
_symmetry_equiv_pos_as_xyz
'x, y, z'
_cell_length_a     39.167609
_cell_length_b     26.284994
_cell_length_c     50.166071
_cell_angle_alpha  89.794597
_cell_angle_beta   90.072496
_cell_angle_gamma 89.927307
loop_
_atom_site_label
_atom_site_type_symbol
_atom_site_fract_x
_atom_site_fract_y
_atom_site_fract_z
_atom_type_partial_charge
Sc0 Sc 0.33966 0.1422 0.09678 0.0
Sc1 Sc 0.26368 0.09799 0.12466 0.0
Sc2 Sc 0.34076 0.03869 0.13897 0.0
O3 O 0.31442 0.09345 0.12042 0.0
C4 C 0.3687 0.03669 0.08022 0.0
C5 C 0.27428 0.12615 0.06282 0.0
C6 C 0.27023 0.98216 0.12756 0.0
C7 C 0.28514 0.21252 0.12517 0.0
C8 C 0.39296 0.13194 0.14111 0.0
C9 C 0.29047 0.07144 0.18399 0.0
O10 O 0.37381 0.08429 0.08201 0.0
O11 O 0.25533 0.11902 0.08317 0.0
O12 O 0.29945 0.98631 0.13816 0.0
O13 O 0.30901 0.2056 0.1085 0.0
O14 O 0.38648 0.08463 0.14331 0.0
O15 O 0.26727 0.0791 0.16653 0.0
O16 O 0.37377 0.16179 0.12811 0.0
O17 O 0.26787 0.17645 0.13529 0.0
O18 O 0.32184 0.06368 0.17778 0.0
O19 O 0.30663 0.12686 0.06413 0.0
O20 O 0.35579 0.01149 0.09956 0.0
O21 O 0.25564 0.01888 0.11553 0.0
Sc22 Sc 0.1547 0.79965 0.60174 0.0
Sc23 Sc 0.23368 0.83738 0.6279 0.0
Sc24 Sc 0.16314 0.92153 0.62955 0.0
O25 O 0.18387 0.8529 0.61995 0.0
C26 C 0.13759 0.90146 0.56932 0.0
C27 C 0.22612 0.78131 0.5729 0.0
C28 C 0.23963 0.95404 0.61469 0.0
C29 C 0.19635 0.73145 0.64179 0.0
C30 C 0.09888 0.84932 0.63938 0.0
C31 C 0.21002 0.89795 0.6801 0.0
O32 O 0.13887 0.85341 0.57212 0.0
O33 O 0.2441 0.80557 0.58957 0.0
O34 O 0.20846 0.96241 0.61983 0.0
O35 O 0.16906 0.74127 0.62912 0.0
O36 O 0.11435 0.89138 0.64219 0.0
O37 O 0.2295 0.86889 0.66681 0.0
O38 O 0.11098 0.81324 0.62575 0.0
O39 O 0.22141 0.7623 0.64302 0.0
O40 O 0.18234 0.91706 0.67073 0.0
O41 O 0.19412 0.77623 0.57519 0.0
O42 O 0.14497 0.93224 0.58824 0.0
O43 O 0.25262 0.90983 0.61405 0.0
Sc44 Sc 0.32534 0.79566 0.90632 0.0
Sc45 Sc 0.2469 0.83149 0.88019 0.0
Sc46 Sc 0.31398 0.91945 0.8824 0.0
O47 O 0.29561 0.849 0.88928 0.0
C48 C 0.34216 0.89223 0.94133 0.0
C49 C 0.25315 0.77682 0.93426 0.0
C50 C 0.23931 0.94766 0.89765 0.0
C51 C 0.28658 0.7267 0.86772 0.0
C52 C 0.37865 0.85308 0.86861 0.0
C53 C 0.26699 0.8944 0.83046 0.0
O54 O 0.33632 0.84498 0.93888 0.0
O55 O 0.2363 0.80859 0.92033 0.0
O56 O 0.27102 0.95436 0.90113 0.0
O57 O 0.31562 0.74176 0.87555 0.0
O58 O 0.35977 0.89127 0.86332 0.0
O59 O 0.25481 0.85352 0.84006 0.0
O60 O 0.3701 0.81879 0.88516 0.0
O61 O 0.25962 0.75341 0.87031 0.0
O62 O 0.28764 0.92341 0.84325 0.0
O63 O 0.28402 0.76526 0.92933 0.0
O64 O 0.33918 0.92349 0.92179 0.0
O65 O 0.22696 0.90712 0.88787 0.0
Sc66 Sc 0.14546 0.04066 0.37103 0.0
Sc67 Sc 0.21743 0.11242 0.38496 0.0
Sc68 Sc 0.13716 0.1507 0.40821 0.0
O69 O 0.16688 0.10184 0.38779 0.0
C70 C 0.08837 0.12552 0.36186 0.0
C71 C 0.19639 0.07424 0.32613 0.0
C72 C 0.19003 0.22403 0.37972 0.0
C73 C 0.21747 -0.00428 0.38871 0.0
C74 C 0.11377 0.0438 0.42886 0.0
C75 C 0.20155 0.14598 0.44508 0.0
O76 O 0.09811 0.07935 0.36197 0.0
O77 O 0.21787 0.08896 0.34363 0.0
O78 O 0.16408 0.21605 0.3942 0.0
O79 O 0.18903 -0.00646 0.37677 0.0
O80 O 0.10675 0.09067 0.42561 0.0
O81 O 0.22182 0.13694 0.42583 0.0
O82 O 0.12861 0.01798 0.41072 0.0
O83 O 0.22962 0.03676 0.39781 0.0
O84 O 0.16931 0.14721 0.44253 0.0
O85 O 0.16573 0.06132 0.33202 0.0
O86 O 0.10356 0.15951 0.37513 0.0
O87 O 0.21008 0.18905 0.37202 0.0
Sc88 Sc 0.64056 0.96718 0.8621 0.0
Sc89 Sc 0.70726 0.88472 0.87768 0.0
Sc90 Sc 0.62486 0.86135 0.90254 0.0
O91 O 0.65752 0.90386 0.88068 0.0
C92 C 0.60983 0.9758 0.92043 0.0
C93 C 0.71598 0.00108 0.87867 0.0
C94 C 0.69131 0.85076 0.93766 0.0
C95 C 0.68886 0.92379 0.81839 0.0
C96 C 0.57425 0.89732 0.85768 0.0
C97 C 0.6705 0.77754 0.87338 0.0
O98 O 0.62415 -0.00319 0.90034 0.0
O99 O 0.72533 0.95918 0.88906 0.0
O100 O 0.65917 0.855 0.93563 0.0
O101 O 0.65887 0.94016 0.82375 0.0
O102 O 0.58608 0.86172 0.87216 0.0
O103 O 0.69362 0.80887 0.86628 0.0
O104 O 0.59017 0.93872 0.85405 0.0
O105 O 0.70921 0.90704 0.83622 0.0
O106 O 0.64438 0.79052 0.88688 0.0
O107 O 0.68759 0.00646 0.86689 0.0
O108 O 0.60409 0.9281 0.92171 0.0
O109 O 0.71159 0.85895 0.91837 0.0
Sc110 Sc 0.84361 0.16909 0.3981 0.0
Sc111 Sc 0.76184 0.14104 0.37275 0.0
Sc112 Sc 0.82741 0.0504 0.36969 0.0
O113 O 0.81081 0.12039 0.38016 0.0
C114 C 0.89389 0.11577 0.35814 0.0
C115 C 0.80226 0.24402 0.36045 0.0
C116 C 0.78445 0.08364 0.31926 0.0
C117 C 0.77498 0.19099 0.42954 0.0
C118 C 0.85626 0.06364 0.42866 0.0
C119 C 0.74974 0.02585 0.38434 0.0
O120 O 0.88348 0.15554 0.3698 0.0
O121 O 0.7773 0.2138 0.35698 0.0
O122 O 0.81151 0.06291 0.32859 0.0
O123 O 0.8073 0.18982 0.42791 0.0
O124 O 0.84273 0.03521 0.41089 0.0
O125 O 0.73948 0.07121 0.38745 0.0
O126 O 0.86151 0.11091 0.42498 0.0
O127 O 0.75535 0.17432 0.41137 0.0
O128 O 0.7798 0.01478 0.37727 0.0
O129 O 0.82813 0.23297 0.37457 0.0
O130 O 0.87765 0.07423 0.35896 0.0
O131 O 0.76391 0.1098 0.33331 0.0
Sc132 Sc 0.65304 0.07251 0.12629 0.0
Sc133 Sc 0.72107 0.15892 0.12094 0.0
Sc134 Sc 0.63931 0.19083 0.09562 0.0
O135 O 0.67119 0.14099 0.11442 0.0
C136 C 0.62084 0.08581 0.06763 0.0
C137 C 0.72747 0.04258 0.10591 0.0
C138 C 0.70922 0.21042 0.0645 0.0
C139 C 0.7018 0.10164 0.17498 0.0
C140 C 0.58892 0.14138 0.13865 0.0
C141 C 0.68161 0.26385 0.13273 0.0
O142 O 0.62924 0.05879 0.0878 0.0
O143 O 0.74104 0.08624 0.108 0.0
O144 O 0.67713 0.2145 0.06728 0.0
O145 O 0.67589 0.07864 0.16551 0.0
O146 O 0.59678 0.17553 0.12176 0.0
O147 O 0.7072 0.23399 0.13429 0.0
O148 O 0.6073 0.10255 0.14277 0.0
O149 O 0.72013 0.13188 0.16135 0.0
O150 O 0.65395 0.25257 0.12087 0.0
O151 O 0.69656 0.03401 0.11171 0.0
O152 O 0.62319 0.13405 0.06747 0.0
O153 O 0.7282 0.18804 0.08141 0.0
Sc154 Sc 0.83362 0.93737 0.62935 0.0
Sc155 Sc 0.76689 0.84861 0.62639 0.0
Sc156 Sc 0.84791 0.816 0.60228 0.0
O157 O 0.81625 0.86737 0.61971 0.0
C158 C 0.86047 0.91845 0.56941 0.0
C159 C 0.75707 0.96609 0.61498 0.0
C160 C 0.77747 0.79766 0.57102 0.0
C161 C 0.78818 0.90445 0.68003 0.0
C162 C 0.90092 0.87305 0.64017 0.0
C163 C 0.80712 0.74328 0.63864 0.0
O164 O 0.8526 0.94864 0.58848 0.0
O165 O 0.74473 0.92171 0.6168 0.0
O166 O 0.80877 0.78828 0.57574 0.0
O167 O 0.81287 0.93029 0.66999 0.0
O168 O 0.89177 0.83558 0.626 0.0
O169 O 0.78097 0.77202 0.63712 0.0
O170 O 0.8823 0.91189 0.64339 0.0
O171 O 0.77078 0.87221 0.6669 0.0
O172 O 0.83629 0.75697 0.63034 0.0
O173 O 0.78847 0.97553 0.61766 0.0
O174 O 0.86081 0.87034 0.57214 0.0
O175 O 0.75918 0.82507 0.58614 0.0
Sc176 Sc 0.84195 0.67999 0.08538 0.0
Sc177 Sc 0.76197 0.6514 0.11249 0.0
Sc178 Sc 0.83164 0.57374 0.1255 0.0
O179 O 0.81167 0.63524 0.10779 0.0
C180 C 0.86406 0.56884 0.06847 0.0
C181 C 0.77582 0.68178 0.0513 0.0
C182 C 0.75614 0.5349 0.11185 0.0
C183 C 0.79192 0.76041 0.11237 0.0
C184 C 0.89195 0.6542 0.13119 0.0
C185 C 0.78505 0.61427 0.17088 0.0
O186 O 0.87 0.61642 0.06912 0.0
O187 O 0.75657 0.67765 0.07168 0.0
O188 O 0.78552 0.5306 0.12233 0.0
O189 O 0.81638 0.74904 0.09691 0.0
O190 O 0.88024 0.60918 0.13228 0.0
O191 O 0.76258 0.6287 0.15405 0.0
O192 O 0.87781 0.68901 0.11744 0.0
O193 O 0.7739 0.72732 0.12433 0.0
O194 O 0.81485 0.59957 0.1641 0.0
O195 O 0.80789 0.6745 0.05217 0.0
O196 O 0.84768 0.54594 0.08691 0.0
O197 O 0.74554 0.57615 0.10145 0.0
Sc198 Sc 0.6462 0.31866 0.59209 0.0
Sc199 Sc 0.7219 0.35941 0.62157 0.0
Sc200 Sc 0.64742 0.43191 0.62762 0.0
O201 O 0.67163 0.36978 0.61418 0.0
C202 C 0.62099 0.42247 0.56704 0.0
C203 C 0.71824 0.32686 0.56263 0.0
C204 C 0.71787 0.48047 0.61902 0.0
C205 C 0.69172 0.24589 0.62418 0.0
C206 C 0.58946 0.35039 0.63444 0.0
C207 C 0.69633 0.39654 0.67667 0.0
O208 O 0.63 0.37631 0.56483 0.0
O209 O 0.73338 0.35467 0.57967 0.0
O210 O 0.68654 0.48019 0.61301 0.0
O211 O 0.66163 0.25705 0.61697 0.0
O212 O 0.60496 0.38939 0.64309 0.0
O213 O 0.71296 0.36387 0.66327 0.0
O214 O 0.60035 0.32414 0.61505 0.0
O215 O 0.71629 0.27759 0.62374 0.0
O216 O 0.67306 0.42513 0.66655 0.0
O217 O 0.68914 0.30703 0.56673 0.0
O218 O 0.62207 0.44611 0.58928 0.0
O219 O 0.73468 0.4398 0.62307 0.0
Sc220 Sc 0.83968 0.35151 0.90391 0.0
Sc221 Sc 0.76259 0.39689 0.87648 0.0
Sc222 Sc 0.84015 0.45746 0.86204 0.0
O223 O 0.81399 0.40172 0.88079 0.0
C224 C 0.86829 0.45994 0.92155 0.0
C225 C 0.77118 0.36474 0.93727 0.0
C226 C 0.7692 0.51464 0.87343 0.0
C227 C 0.78679 0.28067 0.87426 0.0
C228 C 0.89633 0.3693 0.86084 0.0
C229 C 0.78952 0.42179 0.8173 0.0
O230 O 0.86659 0.41172 0.92366 0.0
O231 O 0.75289 0.3809 0.91806 0.0
O232 O 0.79925 0.51064 0.86442 0.0
O233 O 0.81431 0.28737 0.88712 0.0
O234 O 0.88614 0.41409 0.85575 0.0
O235 O 0.76661 0.41161 0.83449 0.0
O236 O 0.87985 0.33954 0.87591 0.0
O237 O 0.76611 0.31648 0.86841 0.0
O238 O 0.82028 0.43325 0.82353 0.0
O239 O 0.80272 0.35507 0.93486 0.0
O240 O 0.85867 0.48397 0.9006 0.0
O241 O 0.75317 0.477 0.88327 0.0
Sc242 Sc 0.65973 0.55627 0.36283 0.0
Sc243 Sc 0.72791 0.63965 0.37497 0.0
Sc244 Sc 0.64773 0.66069 0.40501 0.0
O245 O 0.67858 0.61898 0.38095 0.0
C246 C 0.59523 0.62987 0.3601 0.0
C247 C 0.70359 0.60522 0.31659 0.0
C248 C 0.68898 0.7466 0.37454 0.0
C249 C 0.73674 0.5213 0.37401 0.0
C250 C 0.63109 0.54601 0.42225 0.0
C251 C 0.71812 0.6653 0.43653 0.0
O252 O 0.6108 0.58893 0.35475 0.0
O253 O 0.72457 0.62509 0.3329 0.0
O254 O 0.66392 0.73187 0.38855 0.0
O255 O 0.70611 0.51471 0.36672 0.0
O256 O 0.62895 0.59396 0.42512 0.0
O257 O 0.73687 0.65635 0.41642 0.0
O258 O 0.64291 0.52555 0.40109 0.0
O259 O 0.74837 0.56415 0.38129 0.0
O260 O 0.68575 0.66619 0.43539 0.0
O261 O 0.6764 0.58246 0.32395 0.0
O262 O 0.60624 0.66144 0.37709 0.0
O263 O 0.71324 0.71744 0.36738 0.0
Sc264 Sc 0.16269 0.42276 0.87761 0.0
Sc265 Sc 0.22365 0.32631 0.87856 0.0
Sc266 Sc 0.14364 0.30578 0.90658 0.0
O267 O 0.17638 0.35158 0.88729 0.0
C268 C 0.13211 0.40934 0.93701 0.0
C269 C 0.23818 0.44388 0.88893 0.0
C270 C 0.21547 0.28233 0.93508 0.0
C271 C 0.20555 0.38277 0.82619 0.0
C272 C 0.09427 0.3652 0.86602 0.0
C273 C 0.17829 0.22506 0.87258 0.0
O274 O 0.1375 0.43603 0.91604 0.0
O275 O 0.24783 0.40069 0.88054 0.0
O276 O 0.18391 0.27377 0.93081 0.0
O277 O 0.18825 0.4167 0.83863 0.0
O278 O 0.10003 0.33228 0.88415 0.0
O279 O 0.2067 0.24816 0.87462 0.0
O280 O 0.11594 0.39876 0.85931 0.0
O281 O 0.21539 0.34137 0.83711 0.0
O282 O 0.15006 0.24636 0.87785 0.0
O283 O 0.20761 0.45278 0.89551 0.0
O284 O 0.13548 0.36125 0.93728 0.0
O285 O 0.23353 0.31053 0.91992 0.0
Sc286 Sc 0.35059 0.65127 0.40987 0.0
Sc287 Sc 0.27442 0.60141 0.38489 0.0
Sc288 Sc 0.35195 0.54646 0.36863 0.0
O289 O 0.32545 0.6006 0.38728 0.0
C290 C 0.40135 0.64294 0.36357 0.0
C291 C 0.29158 0.71708 0.38302 0.0
C292 C 0.29789 0.57443 0.32509 0.0
C293 C 0.28757 0.63047 0.44585 0.0
C294 C 0.38216 0.54827 0.42694 0.0
C295 C 0.28632 0.48561 0.38627 0.0
O296 O 0.38309 0.67227 0.37758 0.0
O297 O 0.27512 0.67972 0.37347 0.0
O298 O 0.32974 0.56809 0.33019 0.0
O299 O 0.31971 0.63434 0.44358 0.0
O300 O 0.36982 0.52205 0.40786 0.0
O301 O 0.27013 0.52294 0.39604 0.0
O302 O 0.38692 0.59582 0.42436 0.0
O303 O 0.26787 0.62247 0.42611 0.0
O304 O 0.3134 0.49049 0.37281 0.0
O305 O 0.31713 0.712 0.39842 0.0
O306 O 0.39525 0.59554 0.36164 0.0
O307 O 0.27572 0.58137 0.34331 0.0
Sc308 Sc 0.14663 0.53017 0.14379 0.0
Sc309 Sc 0.21309 0.61128 0.12652 0.0
Sc310 Sc 0.13161 0.63013 0.09976 0.0
O311 O 0.16383 0.59106 0.12363 0.0
C312 C 0.11591 0.51594 0.08575 0.0
C313 C 0.22184 0.49498 0.12804 0.0
C314 C 0.1972 0.63102 0.06484 0.0
C315 C 0.19495 0.57742 0.18672 0.0
C316 C 0.0832 0.60638 0.14713 0.0
C317 C 0.17683 0.71775 0.12529 0.0
O318 O 0.13135 0.49687 0.10587 0.0
O319 O 0.23122 0.53638 0.1173 0.0
O320 O 0.16515 0.62546 0.06656 0.0
O321 O 0.16515 0.55984 0.18164 0.0
O322 O 0.09592 0.63891 0.13134 0.0
O323 O 0.19873 0.68789 0.13574 0.0
O324 O 0.09664 0.56283 0.15092 0.0
O325 O 0.21492 0.59364 0.16856 0.0
O326 O 0.15281 0.70247 0.11034 0.0
O327 O 0.19356 0.4899 0.14001 0.0
O328 O 0.107 0.56245 0.08497 0.0
O329 O 0.21704 0.63047 0.08491 0.0
Sc330 Sc 0.3248 0.42629 0.62755 0.0
Sc331 Sc 0.26183 0.33247 0.63217 0.0
Sc332 Sc 0.33864 0.30555 0.60058 0.0
O333 O 0.3087 0.35487 0.62029 0.0
C334 C 0.34947 0.40715 0.56696 0.0
C335 C 0.24828 0.45035 0.62161 0.0
C336 C 0.26403 0.28719 0.57561 0.0
C337 C 0.28887 0.38785 0.68247 0.0
C338 C 0.39272 0.36404 0.63705 0.0
C339 C 0.30448 0.22863 0.63786 0.0
O340 O 0.34473 0.43723 0.58666 0.0
O341 O 0.23878 0.40732 0.63031 0.0
O342 O 0.29575 0.27739 0.57826 0.0
O343 O 0.305 0.42153 0.6688 0.0
O344 O 0.38413 0.32843 0.62133 0.0
O345 O 0.27693 0.25416 0.63755 0.0
O346 O 0.3734 0.40145 0.64228 0.0
O347 O 0.27522 0.34846 0.67239 0.0
O348 O 0.33249 0.24616 0.62932 0.0
O349 O 0.27832 0.45872 0.61355 0.0
O350 O 0.34703 0.3592 0.56926 0.0
O351 O 0.24751 0.31521 0.59182 0.0
H352 H 0.30581 0.17598 0.02266 0.0
H353 H 0.20739 0.1182 0.04695 0.0
H354 H 0.18063 0.16124 0.00893 0.0
H355 H 0.18488 0.21998 0.97112 0.0
H356 H 0.28316 0.28142 0.94878 0.0
H357 H 0.31029 0.23255 0.98441 0.0
C358 C 0.27855 0.17188 0.01949 0.0
C359 C 0.2586 0.1438 0.03765 0.0
C360 C 0.26328 0.19826 0.99838 0.0
C361 C 0.2233 0.13951 0.03326 0.0
C362 C 0.208 0.16441 0.01167 0.0
C363 C 0.21225 0.22292 0.97402 0.0
C364 C 0.23191 0.25478 0.9574 0.0
C365 C 0.22766 0.19489 0.99454 0.0
C366 C 0.26735 0.25768 0.96141 0.0
C367 C 0.28292 0.2295 0.98166 0.0
H368 H 0.3188 0.68022 0.486 0.0
H369 H 0.22185 0.61588 0.46263 0.0
H370 H 0.19435 0.6568 0.50064 0.0
H371 H 0.19715 0.71655 0.53765 0.0
H372 H 0.29376 0.78421 0.55945 0.0
H373 H 0.3221 0.73661 0.52419 0.0
C374 C 0.29176 0.67423 0.48943 0.0
C375 C 0.27231 0.64535 0.47143 0.0
C376 C 0.27598 0.69938 0.51054 0.0
C377 C 0.23731 0.63815 0.47617 0.0
C378 C 0.22156 0.66183 0.49773 0.0
C379 C 0.2244 0.72115 0.5347 0.0
C380 C 0.24324 0.75439 0.55097 0.0
C381 C 0.2405 0.69377 0.51448 0.0
C382 C 0.27859 0.75927 0.54704 0.0
C383 C 0.29486 0.73186 0.52701 0.0
H384 H 0.16417 0.68125 0.02568 0.0
H385 H 0.26209 0.61709 0.04691 0.0
H386 H 0.28767 0.6556 0.0073 0.0
H387 H 0.28301 0.71253 0.96929 0.0
H388 H 0.18587 0.781 0.9492 0.0
H389 H 0.15904 0.73583 0.98631 0.0
C390 C 0.19096 0.67482 0.02133 0.0
C391 C 0.21133 0.64644 0.03904 0.0
C392 C 0.20565 0.69853 0.99921 0.0
C393 C 0.24605 0.63894 0.03348 0.0
C394 C 0.26066 0.66111 0.01099 0.0
C395 C 0.25592 0.71763 0.97288 0.0
C396 C 0.2365 0.7504 0.95663 0.0
C397 C 0.24084 0.692 0.99418 0.0
C398 C 0.20144 0.75636 0.96159 0.0
C399 C 0.18607 0.73038 0.98268 0.0
H400 H 0.29017 0.21822 0.54144 0.0
H401 H 0.19741 0.30024 0.55964 0.0
H402 H 0.16875 0.25903 0.52213 0.0
H403 H 0.1713 0.20349 0.48298 0.0
H404 H 0.26509 0.12474 0.46427 0.0
H405 H 0.29209 0.16067 0.50382 0.0
C406 C 0.26367 0.22736 0.53731 0.0
C407 C 0.24606 0.26276 0.55318 0.0
C408 C 0.24755 0.20388 0.51582 0.0
C409 C 0.21162 0.27343 0.54762 0.0
C410 C 0.19522 0.24981 0.52624 0.0
C411 C 0.19748 0.19349 0.4878 0.0
C412 C 0.21626 0.1616 0.47075 0.0
C413 C 0.21308 0.21536 0.51009 0.0
C414 C 0.25022 0.14939 0.47707 0.0
C415 C 0.26567 0.17002 0.49958 0.0
H416 H 0.74569 0.78824 0.94147 0.0
H417 H 0.66586 0.85764 0.98814 0.0
H418 H 0.68346 0.80786 0.02714 0.0
H419 H 0.72096 0.74394 0.04754 0.0
H420 H 0.80039 0.67392 1.00061 0.0
H421 H 0.78279 0.72376 0.96173 0.0
C422 C 0.73257 0.79317 0.96032 0.0
C423 C 0.70487 0.82702 0.9621 0.0
C424 C 0.74211 0.76339 0.9823 0.0
C425 C 0.68748 0.83209 0.98642 0.0
C426 C 0.69732 0.80335 0.0086 0.0
C427 C 0.73398 0.73878 0.02867 0.0
C428 C 0.7617 0.7049 0.02685 0.0
C429 C 0.72428 0.76839 0.00664 0.0
C430 C 0.77882 0.69952 0.00242 0.0
C431 C 0.76898 0.7283 0.98028 0.0
H432 H 0.68718 0.29478 0.51829 0.0
H433 H 0.78691 0.32646 0.55096 0.0
H434 H 0.8136 0.28711 0.51188 0.0
H435 H 0.80792 0.23766 0.47056 0.0
H436 H 0.70723 0.20274 0.44017 0.0
H437 H 0.68147 0.24842 0.47706 0.0
C438 C 0.71483 0.29336 0.51688 0.0
C439 C 0.73512 0.31272 0.53759 0.0
C440 C 0.7297 0.2692 0.49517 0.0
C441 C 0.77081 0.31175 0.53521 0.0
C442 C 0.78599 0.28878 0.51307 0.0
C443 C 0.78033 0.23981 0.47204 0.0
C444 C 0.75955 0.21636 0.45272 0.0
C445 C 0.7656 0.26616 0.49333 0.0
C446 C 0.72386 0.22 0.45483 0.0
C447 C 0.70908 0.24638 0.47582 0.0
H448 H 0.67877 0.27108 0.02718 0.0
H449 H 0.77682 0.21083 0.05153 0.0
H450 H 0.8047 0.25952 0.01652 0.0
H451 H 0.80135 0.31623 0.9786 0.0
H452 H 0.70361 0.37337 0.95178 0.0
H453 H 0.67562 0.33007 0.98907 0.0
C454 C 0.70622 0.26827 0.02475 0.0
C455 C 0.7256 0.23695 0.0419 0.0
C456 C 0.7222 0.29643 0.00454 0.0
C457 C 0.76118 0.23426 0.03856 0.0
C458 C 0.77722 0.26237 0.01865 0.0
C459 C 0.77393 0.31996 0.98093 0.0
C460 C 0.75461 0.34784 0.96224 0.0
C461 C 0.75797 0.2934 0.00156 0.0
C462 C 0.71914 0.35218 0.96584 0.0
C463 C 0.70309 0.32702 0.987 0.0
H464 H 0.6872 0.70965 0.47857 0.0
H465 H 0.78565 0.65804 0.45081 0.0
H466 H 0.81274 0.69402 0.49043 0.0
H467 H 0.80857 0.74379 0.53163 0.0
H468 H 0.70988 0.79775 0.55784 0.0
H469 H 0.68284 0.75736 0.51973 0.0
C470 C 0.71456 0.70557 0.48124 0.0
C471 C 0.73437 0.68117 0.46173 0.0
C472 C 0.72997 0.72736 0.50356 0.0
C473 C 0.76981 0.67669 0.46552 0.0
C474 C 0.78532 0.69743 0.48809 0.0
C475 C 0.78114 0.74672 0.52904 0.0
C476 C 0.76135 0.77402 0.54753 0.0
C477 C 0.76568 0.72358 0.507 0.0
C478 C 0.72582 0.77736 0.54384 0.0
C479 C 0.71027 0.75408 0.52212 0.0
H480 H 0.36998 0.98404 0.95719 0.0
H481 H 0.33139 0.84162 0.98794 0.0
H482 H 0.33926 0.87112 0.03328 0.0
H483 H 0.35295 0.93941 0.06475 0.0
H484 H 0.393 0.08129 0.03462 0.0
H485 H 0.38926 0.04964 0.98918 0.0
C486 C 0.36357 0.95934 0.97379 0.0
C487 C 0.34992 0.91072 0.96883 0.0
C488 C 0.36845 0.97636 1.00026 0.0
C489 C 0.34203 0.87923 0.99083 0.0
C490 C 0.34644 0.89606 0.01697 0.0
C491 C 0.36158 0.96309 0.04835 0.0
C492 C 0.37304 0.01286 0.05341 0.0
C493 C 0.35918 0.9448 0.022 0.0
C494 C 0.38397 0.04281 0.03162 0.0
C495 C 0.38164 0.02487 0.00543 0.0
H496 H 0.11414 -0.00393 0.55279 0.0
H497 H 0.14553 0.84912 0.52325 0.0
H498 H 0.13794 0.87797 0.47771 0.0
H499 H 0.12617 0.94614 0.4456 0.0
H500 H 0.09307 0.09276 0.47424 0.0
H501 H 0.09693 0.06256 0.52011 0.0
C502 C 0.11909 0.97035 0.53639 0.0
C503 C 0.13052 0.9205 0.54175 0.0
C504 C 0.11427 0.98698 0.50977 0.0
C505 C 0.13653 0.88766 0.52005 0.0
C506 C 0.13228 0.9041 0.49378 0.0
C507 C 0.11914 0.97128 0.46179 0.0
C508 C 0.10949 0.02177 0.45617 0.0
C509 C 0.12156 0.95382 0.48833 0.0
C510 C 0.10053 0.05359 0.47768 0.0
C511 C 0.10299 0.03649 0.5041 0.0
H512 H 0.5955 0.94006 0.97018 0.0
H513 H 0.61319 0.07963 0.92667 0.0
H514 H 0.61453 0.1268 0.96858 0.0
H515 H 0.61697 0.12683 0.0176 0.0
H516 H 0.60308 0.98591 0.06077 0.0
H517 H 0.59388 0.94103 0.01887 0.0
C518 C 0.59896 0.98098 0.96967 0.0
C519 C 0.6043 0.00611 0.94511 0.0
C520 C 0.60084 0.0076 0.99388 0.0
C521 C 0.60902 0.05915 0.94515 0.0
C522 C 0.60997 0.08615 0.96917 0.0
C523 C 0.61137 0.08644 0.01795 0.0
C524 C 0.61091 0.05984 0.04245 0.0
C525 C 0.60689 0.06053 0.99368 0.0
C526 C 0.6038 0.00741 0.04232 0.0
C527 C 0.59855 0.98166 0.01832 0.0
H528 H 0.86684 0.01791 0.55241 0.0
H529 H 0.86451 0.86331 0.52352 0.0
H530 H 0.86448 0.89364 0.47783 0.0
H531 H 0.86077 0.96406 0.44545 0.0
H532 H 0.86551 0.11859 0.4741 0.0
H533 H 0.86919 0.08823 0.5198 0.0
C534 C 0.86681 0.99084 0.53616 0.0
C535 C 0.86542 0.93838 0.54176 0.0
C536 C 0.867 0.00845 0.50953 0.0
C537 C 0.86557 0.904 0.52017 0.0
C538 C 0.86539 0.92125 0.49381 0.0
C539 C 0.86301 0.99106 0.46164 0.0
C540 C 0.86265 0.04353 0.45607 0.0
C541 C 0.86542 0.97341 0.48818 0.0
C542 C 0.86581 0.07788 0.47751 0.0
C543 C 0.86777 0.06061 0.50385 0.0
H544 H 0.87539 0.60909 0.0193 0.0
H545 H 0.87163 0.46604 0.06178 0.0
H546 H 0.87799 0.42019 0.01976 0.0
H547 H 0.87809 0.42068 0.97119 0.0
H548 H 0.8763 0.56336 0.92815 0.0
H549 H 0.87936 0.6095 0.97038 0.0
C550 C 0.8767 0.56787 0.01949 0.0
C551 C 0.87307 0.54101 0.04375 0.0
C552 C 0.87915 0.54176 0.99515 0.0
C553 C 0.8743 0.48763 0.04347 0.0
C554 C 0.87787 0.46142 0.01942 0.0
C555 C 0.87899 0.46191 0.97081 0.0
C556 C 0.87678 0.48842 0.94631 0.0
C557 C 0.87936 0.4881 0.99513 0.0
C558 C 0.87792 0.54186 0.94657 0.0
C559 C 0.87948 0.56827 0.97076 0.0
H560 H 0.60978 0.57749 0.47132 0.0
H561 H 0.63444 0.44179 0.42692 0.0
H562 H 0.62916 0.39096 0.46758 0.0
H563 H 0.62363 0.38642 0.51616 0.0
H564 H 0.60227 0.52286 0.56097 0.0
H565 H 0.59972 0.57181 0.51949 0.0
C566 C 0.61356 0.53667 0.47031 0.0
C567 C 0.62282 0.51374 0.44591 0.0
C568 C 0.61125 0.50779 0.49391 0.0
C569 C 0.62743 0.46069 0.44527 0.0
C570 C 0.62452 0.43156 0.46859 0.0
C571 C 0.61783 0.42674 0.51699 0.0
C572 C 0.61338 0.45084 0.54191 0.0
C573 C 0.61733 0.45493 0.49311 0.0
C574 C 0.60589 0.50316 0.54226 0.0
C575 C 0.6046 0.53126 0.5185 0.0
H576 H 0.10293 0.55206 0.03578 0.0
H577 H 0.12418 0.41278 0.0786 0.0
H578 H 0.12869 0.36709 0.03631 0.0
H579 H 0.13128 0.36818 0.98723 0.0
H580 H 0.11355 0.509 0.94475 0.0
H581 H 0.10309 0.55245 0.98693 0.0
C582 C 0.10786 0.51145 0.03603 0.0
C583 C 0.11296 0.48596 0.06059 0.0
C584 C 0.11155 0.48578 0.01161 0.0
C585 C 0.11991 0.43346 0.06018 0.0
C586 C 0.12271 0.40735 0.03594 0.0
C587 C 0.12475 0.40828 0.98707 0.0
C588 C 0.12328 0.43516 0.96261 0.0
C589 C 0.11932 0.43335 0.01152 0.0
C590 C 0.11501 0.48722 0.96309 0.0
C591 C 0.10898 0.51215 0.98727 0.0
H592 H 0.37767 0.4993 0.55095 0.0
H593 H 0.336 0.35895 0.52052 0.0
H594 H 0.34558 0.38739 0.47513 0.0
H595 H 0.3631 0.45314 0.44342 0.0
H596 H 0.40535 0.59381 0.47271 0.0
H597 H 0.39889 0.56389 0.51854 0.0
C598 C 0.37073 0.47502 0.53438 0.0
C599 C 0.35606 0.42699 0.53945 0.0
C600 C 0.37668 0.49142 0.50783 0.0
C601 C 0.34752 0.39598 0.51752 0.0
C602 C 0.35297 0.41218 0.49136 0.0
C603 C 0.37161 0.47695 0.45973 0.0
C604 C 0.38476 0.52573 0.45431 0.0
C605 C 0.36738 0.45986 0.4862 0.0
C606 C 0.39526 0.55596 0.47602 0.0
C607 C 0.39131 0.53905 0.50239 0.0
H608 H 0.22546 0.06345 0.20229 0.0
H609 H 0.32958 0.07761 0.2297 0.0
H610 H 0.3094 0.07956 0.27595 0.0
H611 H 0.26215 0.07881 0.30831 0.0
H612 H 0.15827 0.06313 0.2805 0.0
H613 H 0.17864 0.06028 0.23447 0.0
C614 C 0.24393 0.06711 0.21829 0.0
C615 C 0.27913 0.07086 0.21236 0.0
C616 C 0.23216 0.06801 0.24473 0.0
C617 C 0.30245 0.07474 0.23356 0.0
C618 C 0.29087 0.07597 0.26001 0.0
C619 C 0.24383 0.0749 0.29223 0.0
C620 C 0.20854 0.07159 0.29801 0.0
C621 C 0.25576 0.07295 0.2658 0.0
C622 C 0.18544 0.06585 0.27679 0.0
C623 C 0.19711 0.06427 0.25043 0.0
H624 H 0.29861 0.92069 0.78364 0.0
H625 H 0.20001 0.90278 0.82037 0.0
H626 H 0.17194 0.90936 0.77706 0.0
H627 H 0.17605 0.90696 0.7279 0.0
H628 H 0.275 0.92257 0.69127 0.0
H629 H 0.30192 0.93089 0.73479 0.0
C630 C 0.271 0.91977 0.78212 0.0
C631 C 0.25144 0.91081 0.805 0.0
C632 C 0.25494 0.92232 0.75696 0.0
C633 C 0.2156 0.90924 0.80284 0.0
C634 C 0.19948 0.91279 0.77808 0.0
C635 C 0.20332 0.91342 0.72953 0.0
C636 C 0.22352 0.91308 0.70649 0.0
C637 C 0.21894 0.91728 0.75483 0.0
C638 C 0.25893 0.92159 0.70885 0.0
C639 C 0.27444 0.92641 0.73374 0.0
H640 H 0.7228 0.90811 0.69582 0.0
H641 H 0.82559 0.92463 0.72541 0.0
H642 H 0.80339 0.93356 0.77101 0.0
H643 H 0.7548 0.93175 0.80234 0.0
H644 H 0.65203 0.91825 0.77201 0.0
H645 H 0.67426 0.91321 0.72649 0.0
C646 C 0.74041 0.91373 0.71226 0.0
C647 C 0.77587 0.91482 0.70739 0.0
C648 C 0.72743 0.91918 0.73813 0.0
C649 C 0.79828 0.92344 0.72871 0.0
C650 C 0.78555 0.92831 0.75472 0.0
C651 C 0.73722 0.92775 0.78575 0.0
C652 C 0.70174 0.92458 0.79059 0.0
C653 C 0.75021 0.9254 0.75967 0.0
C654 C 0.67933 0.92059 0.76886 0.0
C655 C 0.69207 0.91756 0.74287 0.0
H656 H 0.76603 0.09876 0.19493 0.0
H657 H 0.66035 0.08192 0.21742 0.0
H658 H 0.67722 0.07091 0.2641 0.0
H659 H 0.72165 0.07177 0.2986 0.0
H660 H 0.82754 0.08513 0.27631 0.0
H661 H 0.81106 0.09087 0.22916 0.0
C662 C 0.74673 0.09262 0.21009 0.0
C663 C 0.71194 0.09204 0.20291 0.0
C664 C 0.75668 0.08547 0.23674 0.0
C665 C 0.68722 0.08281 0.22255 0.0
C666 C 0.69686 0.07657 0.24918 0.0
C667 C 0.74113 0.07539 0.28335 0.0
C668 C 0.77571 0.07862 0.29079 0.0
C669 C 0.73144 0.0786 0.25651 0.0
C670 C 0.8008 0.08245 0.27096 0.0
C671 C 0.79133 0.08615 0.24409 0.0
H672 H 0.76686 0.61402 0.2957 0.0
H673 H 0.66095 0.59864 0.2733 0.0
H674 H 0.67699 0.60109 0.22611 0.0
H675 H 0.72117 0.60743 0.19146 0.0
H676 H 0.82724 0.61847 0.21425 0.0
H677 H 0.81097 0.61782 0.26128 0.0
C678 C 0.74719 0.61155 0.28052 0.0
C679 C 0.71269 0.60671 0.28798 0.0
C680 C 0.75665 0.61208 0.25359 0.0
C681 C 0.68765 0.60249 0.26806 0.0
C682 C 0.69681 0.60395 0.24112 0.0
C683 C 0.74074 0.60996 0.20672 0.0
C684 C 0.77538 0.61342 0.19937 0.0
C685 C 0.73124 0.60876 0.23368 0.0
C686 C 0.80044 0.61576 0.21937 0.0
C687 C 0.79114 0.6155 0.24625 0.0
H688 H 0.72631 0.44008 0.79803 0.0
H689 H 0.82815 0.39897 0.7733 0.0
H690 H 0.80765 0.38712 0.72753 0.0
H691 H 0.76043 0.38505 0.69536 0.0
H692 H 0.65904 0.42944 0.71963 0.0
H693 H 0.67978 0.44321 0.76522 0.0
C694 C 0.74409 0.42863 0.78261 0.0
C695 C 0.77868 0.41978 0.78907 0.0
C696 C 0.73213 0.42208 0.7565 0.0
C697 C 0.8015 0.40601 0.76881 0.0
C698 C 0.78971 0.39894 0.74273 0.0
C699 C 0.74275 0.39737 0.71067 0.0
C700 C 0.70802 0.4052 0.70432 0.0
C701 C 0.75501 0.40613 0.73651 0.0
C702 C 0.68572 0.42268 0.72413 0.0
C703 C 0.69761 0.43058 0.75011 0.0
H704 H 0.26302 0.34663 0.80316 0.0
H705 H 0.17688 0.445 0.78799 0.0
H706 H 0.19803 0.46147 0.74275 0.0
H707 H 0.23899 0.44214 0.70635 0.0
H708 H 0.32455 0.34352 0.72226 0.0
H709 H 0.30621 0.33378 0.76863 0.0
C710 C 0.24872 0.37156 0.78995 0.0
C711 C 0.21794 0.39361 0.79876 0.0
C712 C 0.26133 0.38142 0.76426 0.0
C713 C 0.20036 0.427 0.78161 0.0
C714 C 0.21254 0.43655 0.75578 0.0
C715 C 0.25416 0.42005 0.72033 0.0
C716 C 0.28352 0.39451 0.71126 0.0
C717 C 0.24281 0.41351 0.74678 0.0
C718 C 0.30242 0.36451 0.72912 0.0
C719 C 0.29164 0.35838 0.75547 0.0
H720 H 0.26134 0.58601 0.20221 0.0
H721 H 0.15969 0.56503 0.23366 0.0
H722 H 0.18307 0.56141 0.2789 0.0
H723 H 0.23195 0.56441 0.30925 0.0
H724 H 0.33388 0.58347 0.27804 0.0
H725 H 0.3106 0.5871 0.23267 0.0
C726 C 0.24413 0.58099 0.21892 0.0
C727 C 0.20859 0.57632 0.21445 0.0
C728 C 0.25782 0.57826 0.24482 0.0
C729 C 0.18699 0.56894 0.23643 0.0
C730 C 0.20039 0.56682 0.2623 0.0
C731 C 0.24927 0.56946 0.2926 0.0
C732 C 0.28477 0.57403 0.29719 0.0
C733 C 0.23572 0.57144 0.26669 0.0
C734 C 0.30658 0.57979 0.2752 0.0
C735 C 0.29322 0.58207 0.24926 0.0
H736 H 0.44155 0.08173 0.16966 0.0
H737 H 0.42086 0.22525 0.1306 0.0
H738 H 0.48131 0.2461 0.13145 0.0
H739 H 0.54015 0.21487 0.13393 0.0
H740 H 0.56075 0.07006 0.17174 0.0
H741 H 0.50036 0.05926 0.18119 0.0
C742 C 0.45014 0.11813 0.16193 0.0
C743 C 0.42693 0.15085 0.14913 0.0
C744 C 0.48505 0.12944 0.16184 0.0
C745 C 0.4383 0.19862 0.13998 0.0
C746 C 0.47295 0.21059 0.14033 0.0
C747 C 0.53158 0.18153 0.14482 0.0
C748 C 0.55476 0.14246 0.1511 0.0
C749 C 0.49667 0.17487 0.1497 0.0
C750 C 0.54335 0.10021 0.16595 0.0
C751 C 0.50874 0.09383 0.17134 0.0
H752 H 0.05505 0.92381 0.65567 0.0
H753 H 0.06277 0.76135 0.64451 0.0
H754 H 0.00112 0.7532 0.64819 0.0
H755 H 0.94498 0.79389 0.64609 0.0
H756 H 0.93687 0.95644 0.65641 0.0
H757 H -0.00149 0.96251 0.66211 0.0
C758 C 0.04336 0.88647 0.65479 0.0
C759 C 0.06342 0.84354 0.64902 0.0
C760 C 0.00769 0.88204 0.65637 0.0
C761 C 0.04785 0.79529 0.6483 0.0
C762 C 0.01254 0.79051 0.65034 0.0
C763 C 0.95662 0.8305 0.65014 0.0
C764 C 0.93646 0.87471 0.65011 0.0
C765 C -0.00786 0.83393 0.65297 0.0
C766 C 0.95181 0.92176 0.656 0.0
C767 C 0.98715 0.92538 0.65912 0.0
H768 H 0.53417 0.81307 0.85581 0.0
H769 H 0.53325 0.97449 0.83962 0.0
H770 H 0.47114 0.97348 0.83679 0.0
H771 H 0.41724 0.92995 0.84766 0.0
H772 H 0.41883 0.76899 0.86513 0.0
H773 H 0.48027 0.76668 0.8583 0.0
C774 C 0.52046 0.84784 0.85105 0.0
C775 C 0.53832 0.89393 0.84867 0.0
C776 C 0.4847 0.8473 0.85006 0.0
C777 C 0.52018 0.93845 0.84191 0.0
C778 C 0.48456 0.93804 0.84045 0.0
C779 C 0.43089 0.89414 0.84923 0.0
C780 C 0.41362 0.85007 0.85762 0.0
C781 C 0.46651 0.89318 0.84584 0.0
C782 C 0.43164 0.8038 0.85931 0.0
C783 C 0.46683 0.80237 0.85544 0.0
H784 H 0.93856 0.19462 0.35525 0.0
H785 H 0.92663 0.03649 0.33396 0.0
H786 H 0.98776 0.02926 0.32644 0.0
H787 H 0.04457 0.06188 0.33659 0.0
H788 H 0.05656 0.21834 0.36095 0.0
H789 H -0.00449 0.23241 0.35572 0.0
C790 C 0.94918 0.15887 0.34836 0.0
C791 C 0.92833 0.11563 0.34633 0.0
C792 C 0.98448 0.15444 0.34492 0.0
C793 C 0.9423 0.07005 0.33651 0.0
C794 C 0.9773 0.06578 0.33222 0.0
C795 C 0.03401 0.09944 0.3401 0.0
C796 C 0.05478 0.13827 0.35032 0.0
C797 C -0.00125 0.1068 0.33808 0.0
C798 C 0.04092 0.18722 0.35387 0.0
C799 C 0.00596 0.19532 0.35099 0.0
H800 H 0.92765 0.59087 0.16358 0.0
H801 H 0.93292 0.73807 0.12522 0.0
H802 H -0.00578 0.74126 0.13362 0.0
H803 H 0.04668 0.69366 0.14197 0.0
H804 H 0.04158 0.54217 0.17546 0.0
H805 H 0.97978 0.54991 0.17952 0.0
C806 C 0.94204 0.62418 0.1575 0.0
C807 C 0.92601 0.66327 0.14286 0.0
C808 C 0.9774 0.62467 0.16124 0.0
C809 C 0.94477 0.7069 0.13597 0.0
C810 C 0.97987 0.70864 0.14066 0.0
C811 C 0.03221 0.66266 0.15071 0.0
C812 C 0.04855 0.6166 0.1574 0.0
C813 C -0.00338 0.66633 0.15171 0.0
C814 C 0.02955 0.57758 0.16954 0.0
C815 C -0.00583 0.58187 0.17173 0.0
H816 H 0.54525 0.41542 0.6582 0.0
H817 H 0.55607 0.25981 0.63228 0.0
H818 H 0.49459 0.24747 0.63587 0.0
H819 H 0.43792 0.28597 0.63726 0.0
H820 H 0.4268 0.44332 0.66019 0.0
H821 H 0.48821 0.44954 0.66742 0.0
C822 C 0.53427 0.37836 0.65417 0.0
C823 C 0.55494 0.33899 0.64434 0.0
C824 C 0.49878 0.37212 0.65524 0.0
C825 C 0.54047 0.29103 0.63937 0.0
C826 C 0.50533 0.28399 0.6413 0.0
C827 C 0.44883 0.32139 0.6443 0.0
C828 C 0.42801 0.36451 0.64735 0.0
C829 C 0.48417 0.32514 0.64769 0.0
C830 C 0.44236 0.40972 0.65722 0.0
C831 C 0.47752 0.41341 0.66128 0.0
H832 H 0.04577 0.29166 0.86657 0.0
H833 H 0.06469 0.44535 0.83981 0.0
H834 H 0.00406 0.45676 0.8304 0.0
H835 H 0.94525 0.42863 0.838 0.0
H836 H 0.92644 0.27598 0.86658 0.0
H837 H 0.98746 0.25838 0.86637 0.0
C838 C 0.03673 0.32735 0.85822 0.0
C839 C 0.05953 0.36802 0.85461 0.0
C840 C 0.00178 0.33404 0.85337 0.0
C841 C 0.0476 0.41359 0.84312 0.0
C842 C 0.01288 0.42026 0.83784 0.0
C843 C 0.95436 0.39105 0.84351 0.0
C844 C 0.93134 0.35425 0.85308 0.0
C845 C 0.98959 0.38158 0.84412 0.0
C846 C 0.94362 0.30546 0.85968 0.0
C847 C 0.97857 0.29536 0.85969 0.0
H848 H 0.4444 0.59643 0.3292 0.0
H849 H 0.4334 0.73188 0.37689 0.0
H850 H 0.49472 0.74633 0.37477 0.0
H851 H 0.55135 0.70822 0.36934 0.0
H852 H 0.56206 0.56927 0.3243 0.0
H853 H 0.5011 0.56907 0.31512 0.0
C854 C 0.4553 0.62991 0.33851 0.0
C855 C 0.43467 0.66173 0.35412 0.0
C856 C 0.49067 0.63678 0.33821 0.0
C857 C 0.44886 0.70599 0.36525 0.0
C858 C 0.48402 0.7141 0.36426 0.0
C859 C 0.54052 0.67852 0.35699 0.0
C860 C 0.56095 0.63766 0.34853 0.0
C861 C 0.50527 0.67772 0.35242 0.0
C862 C 0.54672 0.60039 0.33181 0.0
C863 C 0.51182 0.60017 0.32653 0.0
H864 H 0.21339 0.94533 0.10212 0.0
H865 H 0.28597 0.91143 0.16478 0.0
H866 H 0.25914 0.83013 0.1727 0.0
H867 H 0.21954 0.76499 0.15917 0.0
H868 H 0.14827 0.79415 0.0952 0.0
H869 H 0.16923 0.88132 0.09126 0.0
C870 C 0.22313 0.92016 0.11753 0.0
C871 C 0.25217 0.93392 0.13225 0.0
C872 C 0.20772 0.87267 0.12199 0.0
C873 C 0.26424 0.9013 0.15253 0.0
C874 C 0.24876 0.85483 0.15733 0.0
C875 C 0.20818 0.79056 0.14461 0.0
C876 C 0.18298 0.77285 0.12719 0.0
C877 C 0.22113 0.83962 0.14175 0.0
C878 C 0.16798 0.8068 0.1088 0.0
C879 C 0.18017 0.85652 0.10633 0.0
H880 H 0.24225 0.0157 0.65599 0.0
H881 H 0.28769 0.9898 0.57906 0.0
H882 H 0.31864 0.07112 0.5825 0.0
H883 H 0.32497 0.15461 0.60468 0.0
H884 H 0.2745 0.1814 0.67967 0.0
H885 H 0.2539 0.09364 0.68031 0.0
C886 C 0.25926 0.02776 0.6401 0.0
C887 C 0.26231 -0.00193 0.61704 0.0
C888 C 0.2761 0.07428 0.6421 0.0
C889 C 0.28486 0.01278 0.5968 0.0
C890 C 0.30239 0.0591 0.59881 0.0
C891 C 0.31057 0.1404 0.6216 0.0
C892 C 0.30139 0.17376 0.64228 0.0
C893 C 0.29726 0.09088 0.62101 0.0
C894 C 0.282 0.1559 0.66379 0.0
C895 C 0.26997 0.10607 0.66397 0.0
H896 H 0.19211 0.16994 0.91548 0.0
H897 H 0.16801 0.15694 0.83203 0.0
H898 H 0.17835 0.06458 0.83416 0.0
H899 H 0.20209 0.99077 0.85867 0.0
H900 H 0.2315 0.00758 0.94097 0.0
H901 H 0.21021 0.09516 0.9409 0.0
C902 C 0.18853 0.14652 0.89792 0.0
C903 C 0.17952 0.16944 0.87363 0.0
C904 C 0.19528 0.09434 0.89928 0.0
C905 C 0.17496 0.13951 0.85087 0.0
C906 C 0.18092 0.08698 0.85214 0.0
C907 C 0.20252 0.01317 0.8768 0.0
C908 C 0.21773 -0.007 0.89995 0.0
C909 C 0.19203 0.06427 0.87609 0.0
C910 C 0.21937 0.02246 0.92315 0.0
C911 C 0.20759 0.07254 0.92298 0.0
H912 H 0.30757 0.80252 0.41025 0.0
H913 H 0.24634 0.74686 0.34477 0.0
H914 H 0.21948 0.83005 0.34022 0.0
H915 H 0.21057 0.91526 0.35674 0.0
H916 H 0.2699 0.97169 0.42294 0.0
H917 H 0.30086 0.89062 0.42521 0.0
C918 C 0.2887 0.80875 0.39472 0.0
C919 C 0.27866 0.76858 0.37802 0.0
C920 C 0.27293 0.85623 0.39256 0.0
C921 C 0.2542 0.77713 0.35803 0.0
C922 C 0.23883 0.82455 0.35543 0.0
C923 C 0.23018 0.90992 0.37179 0.0
C924 C 0.23757 0.94876 0.39003 0.0
C925 C 0.24745 0.86376 0.37301 0.0
C926 C 0.26366 0.94192 0.40888 0.0
C927 C 0.28127 0.89575 0.41016 0.0
H928 H 0.8039 0.19559 0.90181 0.0
H929 H 0.74664 0.24859 0.83348 0.0
H930 H 0.72336 0.16341 0.82712 0.0
H931 H 0.71463 0.07792 0.84367 0.0
H932 H 0.76752 0.02496 0.91405 0.0
H933 H 0.79806 0.10642 0.91666 0.0
C934 C 0.78683 0.18818 0.88523 0.0
C935 C 0.77673 0.22818 0.86818 0.0
C936 C 0.77269 0.1396 0.88226 0.0
C937 C 0.75444 0.21839 0.84693 0.0
C938 C 0.74116 0.16983 0.84332 0.0
C939 C 0.7329 0.08398 0.85963 0.0
C940 C 0.73829 0.0461 0.87906 0.0
C941 C 0.74931 0.1308 0.86136 0.0
C942 C 0.76278 0.05386 0.89905 0.0
C943 C 0.78005 0.1004 0.90057 0.0
H944 H 0.74111 0.96222 0.34438 0.0
H945 H 0.70525 -0.00532 0.42365 0.0
H946 H 0.6769 0.91115 0.42543 0.0
H947 H 0.6719 0.82416 0.40719 0.0
H948 H 0.71454 0.79068 0.32991 0.0
H949 H 0.73058 0.87983 0.32427 0.0
C950 C 0.7264 0.95129 0.36182 0.0
C951 C 0.72542 0.9836 0.38401 0.0
C952 C 0.7119 0.90297 0.36304 0.0
C953 C 0.70616 0.97001 0.40642 0.0
C954 C 0.69035 0.92222 0.40746 0.0
C955 C 0.68388 0.83683 0.38884 0.0
C956 C 0.69233 0.80122 0.369 0.0
C957 C 0.69441 0.8876 0.38633 0.0
C958 C 0.70813 0.81759 0.34545 0.0
C959 C 0.71731 0.86838 0.34227 0.0
H960 H 0.70423 0.95288 0.08912 0.0
H961 H 0.79736 0.03007 0.11063 0.0
H962 H 0.82718 0.94787 0.11329 0.0
H963 H 0.82406 0.85287 0.11512 0.0
H964 H 0.72698 0.78026 0.10073 0.0
H965 H 0.70098 0.8619 0.09063 0.0
C966 C 0.73119 0.952 0.09419 0.0
C967 C 0.7484 -0.00271 0.10019 0.0
C968 C 0.74707 0.9052 0.09787 0.0
C969 C 0.78351 -0.00441 0.10596 0.0
C970 C 0.80038 0.9486 0.10792 0.0
C971 C 0.79717 0.85545 0.11012 0.0
C972 C 0.77711 0.81118 0.10943 0.0
C973 C 0.78197 0.90303 0.10507 0.0
C974 C 0.74251 0.81424 0.10232 0.0
C975 C 0.72775 0.8607 0.09614 0.0
H976 H 0.66834 0.16243 0.59861 0.0
H977 H 0.73389 0.21132 0.66279 0.0
H978 H 0.75594 0.12492 0.6678 0.0
H979 H 0.76229 0.04003 0.65002 0.0
H980 H 0.70149 0.99058 0.58335 0.0
H981 H 0.67109 0.07282 0.58328 0.0
C982 C 0.68682 0.15362 0.61409 0.0
C983 C 0.69973 0.19273 0.63031 0.0
C984 C 0.7004 0.10434 0.61604 0.0
C985 C 0.7239 0.18156 0.65009 0.0
C986 C 0.73651 0.13239 0.65287 0.0
C987 C 0.74216 0.04719 0.63556 0.0
C988 C 0.73449 0.01043 0.61627 0.0
C989 C 0.7259 0.09424 0.6353 0.0
C990 C 0.70786 0.01896 0.59814 0.0
C991 C 0.69073 0.06585 0.59809 0.0
H992 H 0.66002 0.34475 0.10434 0.0
H993 H 0.71922 0.30236 0.17356 0.0
H994 H 0.74489 0.38703 0.17451 0.0
H995 H 0.7574 0.46615 0.15131 0.0
H996 H 0.70216 0.507 0.07989 0.0
H997 H 0.66779 0.42928 0.08402 0.0
C998 C 0.67757 0.35474 0.12023 0.0
C999 C 0.68784 0.3176 0.1389 0.0
C1000 C 0.69361 0.40234 0.11967 0.0
C1001 C 0.71099 0.33055 0.15909 0.0
C1002 C 0.72591 0.37863 0.15942 0.0
C1003 C 0.73779 0.45815 0.13661 0.0
C1004 C 0.73294 0.49123 0.11483 0.0
C1005 C 0.71868 0.41363 0.139 0.0
C1006 C 0.70667 0.48149 0.09653 0.0
C1007 C 0.68706 0.43723 0.09895 0.0
H1008 H 0.78496 0.51182 0.61842 0.0
H1009 H 0.68281 0.55865 0.6398 0.0
H1010 H 0.70392 0.64003 0.65482 0.0
H1011 H 0.74922 0.70136 0.65724 0.0
H1012 H 0.85057 0.66199 0.63066 0.0
H1013 H 0.8325 0.57386 0.62395 0.0
C1014 C 0.76749 0.54002 0.62632 0.0
C1015 C 0.73229 0.52974 0.6272 0.0
C1016 C 0.77971 0.58789 0.63449 0.0
C1017 C 0.70991 0.56617 0.63799 0.0
C1018 C 0.72195 0.61259 0.64697 0.0
C1019 C 0.76767 0.67343 0.65045 0.0
C1020 C 0.80089 0.68865 0.64382 0.0
C1021 C 0.75656 0.6243 0.64468 0.0
C1022 C 0.82464 0.65151 0.63571 0.0
C1023 C 0.81418 0.60122 0.63144 0.0
H1024 H 0.72228 0.73654 0.84532 0.0
H1025 H 0.63666 0.69511 0.8949 0.0
H1026 H 0.65883 0.60827 0.8987 0.0
H1027 H 0.70647 0.54692 0.89203 0.0
H1028 H 0.79344 0.59462 0.8451 0.0
H1029 H 0.7671 0.67612 0.83692 0.0
C1030 C 0.70805 0.7085 0.85668 0.0
C1031 C 0.67812 0.72271 0.87008 0.0
C1032 C 0.72171 0.65979 0.85991 0.0
C1033 C 0.65987 0.68538 0.88436 0.0
C1034 C 0.67276 0.63581 0.88684 0.0
C1035 C 0.7196 0.57521 0.88008 0.0
C1036 C 0.75218 0.56452 0.86964 0.0
C1037 C 0.70439 0.6231 0.8755 0.0
C1038 C 0.76864 0.60161 0.85389 0.0
C1039 C 0.7535 0.6484 0.84892 0.0
H1040 H 0.73324 0.45052 0.33615 0.0
H1041 H 0.79188 0.4944 0.40514 0.0
H1042 H 0.82365 0.41382 0.40299 0.0
H1043 H 0.82731 0.32644 0.38584 0.0
H1044 H 0.76459 0.28155 0.31911 0.0
H1045 H 0.74234 0.36812 0.31545 0.0
C1046 C 0.75316 0.44259 0.35065 0.0
C1047 C 0.75965 0.4773 0.37129 0.0
C1048 C 0.77056 0.39633 0.34951 0.0
C1049 C 0.78623 0.46768 0.38936 0.0
C1050 C 0.80426 0.42172 0.38811 0.0
C1051 C 0.80965 0.336 0.36992 0.0
C1052 C 0.79728 0.29765 0.35289 0.0
C1053 C 0.79569 0.38506 0.36886 0.0
C1054 C 0.77425 0.31043 0.3325 0.0
C1055 C 0.76134 0.35972 0.33057 0.0
H1056 H 0.32019 0.64729 0.88987 0.0
H1057 H 0.24214 0.68523 0.83233 0.0
H1058 H 0.2242 0.59627 0.83089 0.0
H1059 H 0.22405 0.51245 0.85192 0.0
H1060 H 0.29781 0.47535 0.91269 0.0
H1061 H 0.32458 0.5594 0.90697 0.0
C1062 C 0.30004 0.63568 0.87634 0.0
C1063 C 0.28238 0.67255 0.86121 0.0
C1064 C 0.28876 0.58503 0.87672 0.0
C1065 C 0.25598 0.65737 0.84411 0.0
C1066 C 0.2456 0.6067 0.84346 0.0
C1067 C 0.24645 0.5226 0.86351 0.0
C1068 C 0.25894 0.48871 0.88287 0.0
C1069 C 0.26072 0.57094 0.86061 0.0
C1070 C 0.28795 0.50134 0.89774 0.0
C1071 C 0.30303 0.54929 0.89452 0.0
H1072 H 0.21974 0.45792 0.38588 0.0
H1073 H 0.32263 0.39913 0.3899 0.0
H1074 H 0.30152 0.31277 0.38469 0.0
H1075 H 0.25466 0.25478 0.37841 0.0
H1076 H 0.15095 0.31026 0.37688 0.0
H1077 H 0.17165 0.39798 0.38083 0.0
C1078 C 0.2373 0.42596 0.38614 0.0
C1079 C 0.27251 0.43434 0.38822 0.0
C1080 C 0.22504 0.37643 0.3828 0.0
C1081 C 0.29533 0.39312 0.38823 0.0
C1082 C 0.28338 0.34395 0.38505 0.0
C1083 C 0.23656 0.2861 0.37832 0.0
C1084 C 0.20149 0.27658 0.3769 0.0
C1085 C 0.24843 0.33539 0.38186 0.0
C1086 C 0.1782 0.31721 0.37761 0.0
C1087 C 0.18996 0.36706 0.38018 0.0
H1088 H 0.22214 0.41786 0.16276 0.0
H1089 H 0.27008 0.47104 0.09044 0.0
H1090 H 0.29772 0.38794 0.08493 0.0
H1091 H 0.30138 0.29785 0.09766 0.0
H1092 H 0.24917 0.24459 0.1683 0.0
H1093 H 0.2296 0.33079 0.17744 0.0
C1094 C 0.23883 0.41142 0.14584 0.0
C1095 C 0.24353 0.4497 0.12664 0.0
C1096 C 0.25336 0.36365 0.14239 0.0
C1097 C 0.26597 0.4417 0.1053 0.0
C1098 C 0.28149 0.39424 0.10208 0.0
C1099 C 0.28609 0.30522 0.11524 0.0
C1100 C 0.2762 0.26497 0.13207 0.0
C1101 C 0.2743 0.35451 0.12001 0.0
C1102 C 0.25654 0.27494 0.15483 0.0
C1103 C 0.24547 0.32412 0.16011 0.0
H1104 H 0.16086 0.64845 0.6256 0.0
H1105 H 0.24581 0.69409 0.67508 0.0
H1106 H 0.26663 0.60657 0.67585 0.0
H1107 H 0.26677 0.52239 0.65532 0.0
H1108 H 0.18474 0.47761 0.60321 0.0
H1109 H 0.15646 0.56009 0.61045 0.0
C1110 C 0.18337 0.63914 0.63726 0.0
C1111 C 0.20221 0.67803 0.64982 0.0
C1112 C 0.19612 0.58936 0.63647 0.0
C1113 C 0.23113 0.66504 0.66497 0.0
C1114 C 0.2432 0.61513 0.66521 0.0
C1115 C 0.24242 0.53066 0.64586 0.0
C1116 C 0.228 0.49524 0.62828 0.0
C1117 C 0.22696 0.57788 0.6498 0.0
C1118 C 0.19625 0.50506 0.61652 0.0
C1119 C 0.18025 0.55202 0.62068 0.0
loop_
_geom_bond_atom_site_label_1
_geom_bond_atom_site_label_2
_geom_bond_distance
_geom_bond_site_symmetry_2
_ccdc_geom_bond_type
Sc0 O3 2.025 . S
Sc0 O10 2.105 . S
Sc0 O13 2.105 . S
Sc0 O16 2.105 . S
Sc0 O19 2.105 . S
Sc1 O3 2.025 . S
Sc1 O11 2.105 . S
Sc1 O15 2.105 . S
Sc1 O17 2.105 . S
Sc1 O21 2.105 . S
Sc2 O3 2.025 . S
Sc2 O12 2.105 . S
Sc2 O14 2.105 . S
Sc2 O18 2.105 . S
Sc2 O20 2.105 . S
O3 Sc0 2.025 . S
O3 Sc1 2.025 . S
O3 Sc2 2.025 . S
C4 O10 1.268 . S
C4 O20 1.268 . S
C5 O11 1.268 . S
C5 O19 1.268 . S
C6 O12 1.268 . S
C6 O21 1.268 . S
C7 O13 1.268 . S
C7 O17 1.268 . S
C8 O14 1.268 . S
C8 O16 1.268 . S
C9 O15 1.268 . S
C9 O18 1.268 . S
O10 Sc0 2.105 . S
O10 C4 1.268 . S
O11 Sc1 2.105 . S
O11 C5 1.268 . S
O12 Sc2 2.105 . S
O12 C6 1.268 . S
O13 Sc0 2.105 . S
O13 C7 1.268 . S
O14 Sc2 2.105 . S
O14 C8 1.268 . S
O15 Sc1 2.105 . S
O15 C9 1.268 . S
O16 Sc0 2.105 . S
O16 C8 1.268 . S
O17 Sc1 2.105 . S
O17 C7 1.268 . S
O18 Sc2 2.105 . S
O18 C9 1.268 . S
O19 Sc0 2.105 . S
O19 C5 1.268 . S
O20 Sc2 2.105 . S
O20 C4 1.268 . S
O21 Sc1 2.105 . S
O21 C6 1.268 . S
Sc22 O25 2.025 . S
Sc22 O32 2.105 . S
Sc22 O35 2.105 . S
Sc22 O38 2.105 . S
Sc22 O41 2.105 . S
Sc23 O25 2.025 . S
Sc23 O33 2.105 . S
Sc23 O37 2.105 . S
Sc23 O39 2.105 . S
Sc23 O43 2.105 . S
Sc24 O25 2.025 . S
Sc24 O34 2.105 . S
Sc24 O36 2.105 . S
Sc24 O40 2.105 . S
Sc24 O42 2.105 . S
O25 Sc22 2.025 . S
O25 Sc23 2.025 . S
O25 Sc24 2.025 . S
C26 O32 1.268 . S
C26 O42 1.268 . S
C27 O33 1.268 . S
C27 O41 1.268 . S
C28 O34 1.268 . S
C28 O43 1.268 . S
C29 O35 1.268 . S
C29 O39 1.268 . S
C30 O36 1.268 . S
C30 O38 1.268 . S
C31 O37 1.268 . S
C31 O40 1.268 . S
O32 Sc22 2.105 . S
O32 C26 1.268 . S
O33 Sc23 2.105 . S
O33 C27 1.268 . S
O34 Sc24 2.105 . S
O34 C28 1.268 . S
O35 Sc22 2.105 . S
O35 C29 1.268 . S
O36 Sc24 2.105 . S
O36 C30 1.268 . S
O37 Sc23 2.105 . S
O37 C31 1.268 . S
O38 Sc22 2.105 . S
O38 C30 1.268 . S
O39 Sc23 2.105 . S
O39 C29 1.268 . S
O40 Sc24 2.105 . S
O40 C31 1.268 . S
O41 Sc22 2.105 . S
O41 C27 1.268 . S
O42 Sc24 2.105 . S
O42 C26 1.268 . S
O43 Sc23 2.105 . S
O43 C28 1.268 . S
Sc44 O47 2.025 . S
Sc44 O54 2.105 . S
Sc44 O57 2.105 . S
Sc44 O60 2.105 . S
Sc44 O63 2.105 . S
Sc45 O47 2.025 . S
Sc45 O55 2.105 . S
Sc45 O59 2.105 . S
Sc45 O61 2.105 . S
Sc45 O65 2.105 . S
Sc46 O47 2.025 . S
Sc46 O56 2.105 . S
Sc46 O58 2.105 . S
Sc46 O62 2.105 . S
Sc46 O64 2.105 . S
O47 Sc44 2.025 . S
O47 Sc45 2.025 . S
O47 Sc46 2.025 . S
C48 O54 1.268 . S
C48 O64 1.268 . S
C49 O55 1.268 . S
C49 O63 1.268 . S
C50 O56 1.268 . S
C50 O65 1.268 . S
C51 O57 1.268 . S
C51 O61 1.268 . S
C52 O58 1.268 . S
C52 O60 1.268 . S
C53 O59 1.268 . S
C53 O62 1.268 . S
O54 Sc44 2.105 . S
O54 C48 1.268 . S
O55 Sc45 2.105 . S
O55 C49 1.268 . S
O56 Sc46 2.105 . S
O56 C50 1.268 . S
O57 Sc44 2.105 . S
O57 C51 1.268 . S
O58 Sc46 2.105 . S
O58 C52 1.268 . S
O59 Sc45 2.105 . S
O59 C53 1.268 . S
O60 Sc44 2.105 . S
O60 C52 1.268 . S
O61 Sc45 2.105 . S
O61 C51 1.268 . S
O62 Sc46 2.105 . S
O62 C53 1.268 . S
O63 Sc44 2.105 . S
O63 C49 1.268 . S
O64 Sc46 2.105 . S
O64 C48 1.268 . S
O65 Sc45 2.105 . S
O65 C50 1.268 . S
Sc66 O69 2.025 . S
Sc66 O76 2.105 . S
Sc66 O79 2.105 . S
Sc66 O82 2.105 . S
Sc66 O85 2.105 . S
Sc67 O69 2.025 . S
Sc67 O77 2.105 . S
Sc67 O81 2.105 . S
Sc67 O83 2.105 . S
Sc67 O87 2.105 . S
Sc68 O69 2.025 . S
Sc68 O78 2.105 . S
Sc68 O80 2.105 . S
Sc68 O84 2.105 . S
Sc68 O86 2.105 . S
O69 Sc66 2.025 . S
O69 Sc67 2.025 . S
O69 Sc68 2.025 . S
C70 O76 1.268 . S
C70 O86 1.268 . S
C71 O77 1.268 . S
C71 O85 1.268 . S
C72 O78 1.268 . S
C72 O87 1.268 . S
C73 O79 1.268 . S
C73 O83 1.268 . S
C74 O80 1.268 . S
C74 O82 1.268 . S
C75 O81 1.268 . S
C75 O84 1.268 . S
O76 Sc66 2.105 . S
O76 C70 1.268 . S
O77 Sc67 2.105 . S
O77 C71 1.268 . S
O78 Sc68 2.105 . S
O78 C72 1.268 . S
O79 Sc66 2.105 . S
O79 C73 1.268 . S
O80 Sc68 2.105 . S
O80 C74 1.268 . S
O81 Sc67 2.105 . S
O81 C75 1.268 . S
O82 Sc66 2.105 . S
O82 C74 1.268 . S
O83 Sc67 2.105 . S
O83 C73 1.268 . S
O84 Sc68 2.105 . S
O84 C75 1.268 . S
O85 Sc66 2.105 . S
O85 C71 1.268 . S
O86 Sc68 2.105 . S
O86 C70 1.268 . S
O87 Sc67 2.105 . S
O87 C72 1.268 . S
Sc88 O91 2.025 . S
Sc88 O98 2.105 . S
Sc88 O101 2.105 . S
Sc88 O104 2.105 . S
Sc88 O107 2.105 . S
Sc89 O91 2.025 . S
Sc89 O99 2.105 . S
Sc89 O103 2.105 . S
Sc89 O105 2.105 . S
Sc89 O109 2.105 . S
Sc90 O91 2.025 . S
Sc90 O100 2.105 . S
Sc90 O102 2.105 . S
Sc90 O106 2.105 . S
Sc90 O108 2.105 . S
O91 Sc88 2.025 . S
O91 Sc89 2.025 . S
O91 Sc90 2.025 . S
C92 O98 1.268 . S
C92 O108 1.268 . S
C93 O99 1.268 . S
C93 O107 1.268 . S
C94 O100 1.268 . S
C94 O109 1.268 . S
C95 O101 1.268 . S
C95 O105 1.268 . S
C96 O102 1.268 . S
C96 O104 1.268 . S
C97 O103 1.268 . S
C97 O106 1.268 . S
O98 Sc88 2.105 . S
O98 C92 1.268 . S
O99 Sc89 2.105 . S
O99 C93 1.268 . S
O100 Sc90 2.105 . S
O100 C94 1.268 . S
O101 Sc88 2.105 . S
O101 C95 1.268 . S
O102 Sc90 2.105 . S
O102 C96 1.268 . S
O103 Sc89 2.105 . S
O103 C97 1.268 . S
O104 Sc88 2.105 . S
O104 C96 1.268 . S
O105 Sc89 2.105 . S
O105 C95 1.268 . S
O106 Sc90 2.105 . S
O106 C97 1.268 . S
O107 Sc88 2.105 . S
O107 C93 1.268 . S
O108 Sc90 2.105 . S
O108 C92 1.268 . S
O109 Sc89 2.105 . S
O109 C94 1.268 . S
Sc110 O113 2.025 . S
Sc110 O120 2.105 . S
Sc110 O123 2.105 . S
Sc110 O126 2.105 . S
Sc110 O129 2.105 . S
Sc111 O113 2.025 . S
Sc111 O121 2.105 . S
Sc111 O125 2.105 . S
Sc111 O127 2.105 . S
Sc111 O131 2.105 . S
Sc112 O113 2.025 . S
Sc112 O122 2.105 . S
Sc112 O124 2.105 . S
Sc112 O128 2.105 . S
Sc112 O130 2.105 . S
O113 Sc110 2.025 . S
O113 Sc111 2.025 . S
O113 Sc112 2.025 . S
C114 O120 1.268 . S
C114 O130 1.268 . S
C115 O121 1.268 . S
C115 O129 1.268 . S
C116 O122 1.268 . S
C116 O131 1.268 . S
C117 O123 1.268 . S
C117 O127 1.268 . S
C118 O124 1.268 . S
C118 O126 1.268 . S
C119 O125 1.268 . S
C119 O128 1.268 . S
O120 Sc110 2.105 . S
O120 C114 1.268 . S
O121 Sc111 2.105 . S
O121 C115 1.268 . S
O122 Sc112 2.105 . S
O122 C116 1.268 . S
O123 Sc110 2.105 . S
O123 C117 1.268 . S
O124 Sc112 2.105 . S
O124 C118 1.268 . S
O125 Sc111 2.105 . S
O125 C119 1.268 . S
O126 Sc110 2.105 . S
O126 C118 1.268 . S
O127 Sc111 2.105 . S
O127 C117 1.268 . S
O128 Sc112 2.105 . S
O128 C119 1.268 . S
O129 Sc110 2.105 . S
O129 C115 1.268 . S
O130 Sc112 2.105 . S
O130 C114 1.268 . S
O131 Sc111 2.105 . S
O131 C116 1.268 . S
Sc132 O135 2.025 . S
Sc132 O142 2.105 . S
Sc132 O145 2.105 . S
Sc132 O148 2.105 . S
Sc132 O151 2.105 . S
Sc133 O135 2.025 . S
Sc133 O143 2.105 . S
Sc133 O147 2.105 . S
Sc133 O149 2.105 . S
Sc133 O153 2.105 . S
Sc134 O135 2.025 . S
Sc134 O144 2.105 . S
Sc134 O146 2.105 . S
Sc134 O150 2.105 . S
Sc134 O152 2.105 . S
O135 Sc132 2.025 . S
O135 Sc133 2.025 . S
O135 Sc134 2.025 . S
C136 O142 1.268 . S
C136 O152 1.268 . S
C137 O143 1.268 . S
C137 O151 1.268 . S
C138 O144 1.268 . S
C138 O153 1.268 . S
C139 O145 1.268 . S
C139 O149 1.268 . S
C140 O146 1.268 . S
C140 O148 1.268 . S
C141 O147 1.268 . S
C141 O150 1.268 . S
O142 Sc132 2.105 . S
O142 C136 1.268 . S
O143 Sc133 2.105 . S
O143 C137 1.268 . S
O144 Sc134 2.105 . S
O144 C138 1.268 . S
O145 Sc132 2.105 . S
O145 C139 1.268 . S
O146 Sc134 2.105 . S
O146 C140 1.268 . S
O147 Sc133 2.105 . S
O147 C141 1.268 . S
O148 Sc132 2.105 . S
O148 C140 1.268 . S
O149 Sc133 2.105 . S
O149 C139 1.268 . S
O150 Sc134 2.105 . S
O150 C141 1.268 . S
O151 Sc132 2.105 . S
O151 C137 1.268 . S
O152 Sc134 2.105 . S
O152 C136 1.268 . S
O153 Sc133 2.105 . S
O153 C138 1.268 . S
Sc154 O157 2.025 . S
Sc154 O164 2.105 . S
Sc154 O167 2.105 . S
Sc154 O170 2.105 . S
Sc154 O173 2.105 . S
Sc155 O157 2.025 . S
Sc155 O165 2.105 . S
Sc155 O169 2.105 . S
Sc155 O171 2.105 . S
Sc155 O175 2.105 . S
Sc156 O157 2.025 . S
Sc156 O166 2.105 . S
Sc156 O168 2.105 . S
Sc156 O172 2.105 . S
Sc156 O174 2.105 . S
O157 Sc154 2.025 . S
O157 Sc155 2.025 . S
O157 Sc156 2.025 . S
C158 O164 1.268 . S
C158 O174 1.268 . S
C159 O165 1.268 . S
C159 O173 1.268 . S
C160 O166 1.268 . S
C160 O175 1.268 . S
C161 O167 1.268 . S
C161 O171 1.268 . S
C162 O168 1.268 . S
C162 O170 1.268 . S
C163 O169 1.268 . S
C163 O172 1.268 . S
O164 Sc154 2.105 . S
O164 C158 1.268 . S
O165 Sc155 2.105 . S
O165 C159 1.268 . S
O166 Sc156 2.105 . S
O166 C160 1.268 . S
O167 Sc154 2.105 . S
O167 C161 1.268 . S
O168 Sc156 2.105 . S
O168 C162 1.268 . S
O169 Sc155 2.105 . S
O169 C163 1.268 . S
O170 Sc154 2.105 . S
O170 C162 1.268 . S
O171 Sc155 2.105 . S
O171 C161 1.268 . S
O172 Sc156 2.105 . S
O172 C163 1.268 . S
O173 Sc154 2.105 . S
O173 C159 1.268 . S
O174 Sc156 2.105 . S
O174 C158 1.268 . S
O175 Sc155 2.105 . S
O175 C160 1.268 . S
Sc176 O179 2.025 . S
Sc176 O186 2.105 . S
Sc176 O189 2.105 . S
Sc176 O192 2.105 . S
Sc176 O195 2.105 . S
Sc177 O179 2.025 . S
Sc177 O187 2.105 . S
Sc177 O191 2.105 . S
Sc177 O193 2.105 . S
Sc177 O197 2.105 . S
Sc178 O179 2.025 . S
Sc178 O188 2.105 . S
Sc178 O190 2.105 . S
Sc178 O194 2.105 . S
Sc178 O196 2.105 . S
O179 Sc176 2.025 . S
O179 Sc177 2.025 . S
O179 Sc178 2.025 . S
C180 O186 1.268 . S
C180 O196 1.268 . S
C181 O187 1.268 . S
C181 O195 1.268 . S
C182 O188 1.268 . S
C182 O197 1.268 . S
C183 O189 1.268 . S
C183 O193 1.268 . S
C184 O190 1.268 . S
C184 O192 1.268 . S
C185 O191 1.268 . S
C185 O194 1.268 . S
O186 Sc176 2.105 . S
O186 C180 1.268 . S
O187 Sc177 2.105 . S
O187 C181 1.268 . S
O188 Sc178 2.105 . S
O188 C182 1.268 . S
O189 Sc176 2.105 . S
O189 C183 1.268 . S
O190 Sc178 2.105 . S
O190 C184 1.268 . S
O191 Sc177 2.105 . S
O191 C185 1.268 . S
O192 Sc176 2.105 . S
O192 C184 1.268 . S
O193 Sc177 2.105 . S
O193 C183 1.268 . S
O194 Sc178 2.105 . S
O194 C185 1.268 . S
O195 Sc176 2.105 . S
O195 C181 1.268 . S
O196 Sc178 2.105 . S
O196 C180 1.268 . S
O197 Sc177 2.105 . S
O197 C182 1.268 . S
Sc198 O201 2.025 . S
Sc198 O208 2.105 . S
Sc198 O211 2.105 . S
Sc198 O214 2.105 . S
Sc198 O217 2.105 . S
Sc199 O201 2.025 . S
Sc199 O209 2.105 . S
Sc199 O213 2.105 . S
Sc199 O215 2.105 . S
Sc199 O219 2.105 . S
Sc200 O201 2.025 . S
Sc200 O210 2.105 . S
Sc200 O212 2.105 . S
Sc200 O216 2.105 . S
Sc200 O218 2.105 . S
O201 Sc198 2.025 . S
O201 Sc199 2.025 . S
O201 Sc200 2.025 . S
C202 O208 1.268 . S
C202 O218 1.268 . S
C203 O209 1.268 . S
C203 O217 1.268 . S
C204 O210 1.268 . S
C204 O219 1.268 . S
C205 O211 1.268 . S
C205 O215 1.268 . S
C206 O212 1.268 . S
C206 O214 1.268 . S
C207 O213 1.268 . S
C207 O216 1.268 . S
O208 Sc198 2.105 . S
O208 C202 1.268 . S
O209 Sc199 2.105 . S
O209 C203 1.268 . S
O210 Sc200 2.105 . S
O210 C204 1.268 . S
O211 Sc198 2.105 . S
O211 C205 1.268 . S
O212 Sc200 2.105 . S
O212 C206 1.268 . S
O213 Sc199 2.105 . S
O213 C207 1.268 . S
O214 Sc198 2.105 . S
O214 C206 1.268 . S
O215 Sc199 2.105 . S
O215 C205 1.268 . S
O216 Sc200 2.105 . S
O216 C207 1.268 . S
O217 Sc198 2.105 . S
O217 C203 1.268 . S
O218 Sc200 2.105 . S
O218 C202 1.268 . S
O219 Sc199 2.105 . S
O219 C204 1.268 . S
Sc220 O223 2.025 . S
Sc220 O230 2.105 . S
Sc220 O233 2.105 . S
Sc220 O236 2.105 . S
Sc220 O239 2.105 . S
Sc221 O223 2.025 . S
Sc221 O231 2.105 . S
Sc221 O235 2.105 . S
Sc221 O237 2.105 . S
Sc221 O241 2.105 . S
Sc222 O223 2.025 . S
Sc222 O232 2.105 . S
Sc222 O234 2.105 . S
Sc222 O238 2.105 . S
Sc222 O240 2.105 . S
O223 Sc220 2.025 . S
O223 Sc221 2.025 . S
O223 Sc222 2.025 . S
C224 O230 1.268 . S
C224 O240 1.268 . S
C225 O231 1.268 . S
C225 O239 1.268 . S
C226 O232 1.268 . S
C226 O241 1.268 . S
C227 O233 1.268 . S
C227 O237 1.268 . S
C228 O234 1.268 . S
C228 O236 1.268 . S
C229 O235 1.268 . S
C229 O238 1.268 . S
O230 Sc220 2.105 . S
O230 C224 1.268 . S
O231 Sc221 2.105 . S
O231 C225 1.268 . S
O232 Sc222 2.105 . S
O232 C226 1.268 . S
O233 Sc220 2.105 . S
O233 C227 1.268 . S
O234 Sc222 2.105 . S
O234 C228 1.268 . S
O235 Sc221 2.105 . S
O235 C229 1.268 . S
O236 Sc220 2.105 . S
O236 C228 1.268 . S
O237 Sc221 2.105 . S
O237 C227 1.268 . S
O238 Sc222 2.105 . S
O238 C229 1.268 . S
O239 Sc220 2.105 . S
O239 C225 1.268 . S
O240 Sc222 2.105 . S
O240 C224 1.268 . S
O241 Sc221 2.105 . S
O241 C226 1.268 . S
Sc242 O245 2.025 . S
Sc242 O252 2.105 . S
Sc242 O255 2.105 . S
Sc242 O258 2.105 . S
Sc242 O261 2.105 . S
Sc243 O245 2.025 . S
Sc243 O253 2.105 . S
Sc243 O257 2.105 . S
Sc243 O259 2.105 . S
Sc243 O263 2.105 . S
Sc244 O245 2.025 . S
Sc244 O254 2.105 . S
Sc244 O256 2.105 . S
Sc244 O260 2.105 . S
Sc244 O262 2.105 . S
O245 Sc242 2.025 . S
O245 Sc243 2.025 . S
O245 Sc244 2.025 . S
C246 O252 1.268 . S
C246 O262 1.268 . S
C247 O253 1.268 . S
C247 O261 1.268 . S
C248 O254 1.268 . S
C248 O263 1.268 . S
C249 O255 1.268 . S
C249 O259 1.268 . S
C250 O256 1.268 . S
C250 O258 1.268 . S
C251 O257 1.268 . S
C251 O260 1.268 . S
O252 Sc242 2.105 . S
O252 C246 1.268 . S
O253 Sc243 2.105 . S
O253 C247 1.268 . S
O254 Sc244 2.105 . S
O254 C248 1.268 . S
O255 Sc242 2.105 . S
O255 C249 1.268 . S
O256 Sc244 2.105 . S
O256 C250 1.268 . S
O257 Sc243 2.105 . S
O257 C251 1.268 . S
O258 Sc242 2.105 . S
O258 C250 1.268 . S
O259 Sc243 2.105 . S
O259 C249 1.268 . S
O260 Sc244 2.105 . S
O260 C251 1.268 . S
O261 Sc242 2.105 . S
O261 C247 1.268 . S
O262 Sc244 2.105 . S
O262 C246 1.268 . S
O263 Sc243 2.105 . S
O263 C248 1.268 . S
Sc264 O267 2.025 . S
Sc264 O274 2.105 . S
Sc264 O277 2.105 . S
Sc264 O280 2.105 . S
Sc264 O283 2.105 . S
Sc265 O267 2.025 . S
Sc265 O275 2.105 . S
Sc265 O279 2.105 . S
Sc265 O281 2.105 . S
Sc265 O285 2.105 . S
Sc266 O267 2.025 . S
Sc266 O276 2.105 . S
Sc266 O278 2.105 . S
Sc266 O282 2.105 . S
Sc266 O284 2.105 . S
O267 Sc264 2.025 . S
O267 Sc265 2.025 . S
O267 Sc266 2.025 . S
C268 O274 1.268 . S
C268 O284 1.268 . S
C269 O275 1.268 . S
C269 O283 1.268 . S
C270 O276 1.268 . S
C270 O285 1.268 . S
C271 O277 1.268 . S
C271 O281 1.268 . S
C272 O278 1.268 . S
C272 O280 1.268 . S
C273 O279 1.268 . S
C273 O282 1.268 . S
O274 Sc264 2.105 . S
O274 C268 1.268 . S
O275 Sc265 2.105 . S
O275 C269 1.268 . S
O276 Sc266 2.105 . S
O276 C270 1.268 . S
O277 Sc264 2.105 . S
O277 C271 1.268 . S
O278 Sc266 2.105 . S
O278 C272 1.268 . S
O279 Sc265 2.105 . S
O279 C273 1.268 . S
O280 Sc264 2.105 . S
O280 C272 1.268 . S
O281 Sc265 2.105 . S
O281 C271 1.268 . S
O282 Sc266 2.105 . S
O282 C273 1.268 . S
O283 Sc264 2.105 . S
O283 C269 1.268 . S
O284 Sc266 2.105 . S
O284 C268 1.268 . S
O285 Sc265 2.105 . S
O285 C270 1.268 . S
Sc286 O289 2.025 . S
Sc286 O296 2.105 . S
Sc286 O299 2.105 . S
Sc286 O302 2.105 . S
Sc286 O305 2.105 . S
Sc287 O289 2.025 . S
Sc287 O297 2.105 . S
Sc287 O301 2.105 . S
Sc287 O303 2.105 . S
Sc287 O307 2.105 . S
Sc288 O289 2.025 . S
Sc288 O298 2.105 . S
Sc288 O300 2.105 . S
Sc288 O304 2.105 . S
Sc288 O306 2.105 . S
O289 Sc286 2.025 . S
O289 Sc287 2.025 . S
O289 Sc288 2.025 . S
C290 O296 1.268 . S
C290 O306 1.268 . S
C291 O297 1.268 . S
C291 O305 1.268 . S
C292 O298 1.268 . S
C292 O307 1.268 . S
C293 O299 1.268 . S
C293 O303 1.268 . S
C294 O300 1.268 . S
C294 O302 1.268 . S
C295 O301 1.268 . S
C295 O304 1.268 . S
O296 Sc286 2.105 . S
O296 C290 1.268 . S
O297 Sc287 2.105 . S
O297 C291 1.268 . S
O298 Sc288 2.105 . S
O298 C292 1.268 . S
O299 Sc286 2.105 . S
O299 C293 1.268 . S
O300 Sc288 2.105 . S
O300 C294 1.268 . S
O301 Sc287 2.105 . S
O301 C295 1.268 . S
O302 Sc286 2.105 . S
O302 C294 1.268 . S
O303 Sc287 2.105 . S
O303 C293 1.268 . S
O304 Sc288 2.105 . S
O304 C295 1.268 . S
O305 Sc286 2.105 . S
O305 C291 1.268 . S
O306 Sc288 2.105 . S
O306 C290 1.268 . S
O307 Sc287 2.105 . S
O307 C292 1.268 . S
Sc308 O311 2.025 . S
Sc308 O318 2.105 . S
Sc308 O321 2.105 . S
Sc308 O324 2.105 . S
Sc308 O327 2.105 . S
Sc309 O311 2.025 . S
Sc309 O319 2.105 . S
Sc309 O323 2.105 . S
Sc309 O325 2.105 . S
Sc309 O329 2.105 . S
Sc310 O311 2.025 . S
Sc310 O320 2.105 . S
Sc310 O322 2.105 . S
Sc310 O326 2.105 . S
Sc310 O328 2.105 . S
O311 Sc308 2.025 . S
O311 Sc309 2.025 . S
O311 Sc310 2.025 . S
C312 O318 1.268 . S
C312 O328 1.268 . S
C313 O319 1.268 . S
C313 O327 1.268 . S
C314 O320 1.268 . S
C314 O329 1.268 . S
C315 O321 1.268 . S
C315 O325 1.268 . S
C316 O322 1.268 . S
C316 O324 1.268 . S
C317 O323 1.268 . S
C317 O326 1.268 . S
O318 Sc308 2.105 . S
O318 C312 1.268 . S
O319 Sc309 2.105 . S
O319 C313 1.268 . S
O320 Sc310 2.105 . S
O320 C314 1.268 . S
O321 Sc308 2.105 . S
O321 C315 1.268 . S
O322 Sc310 2.105 . S
O322 C316 1.268 . S
O323 Sc309 2.105 . S
O323 C317 1.268 . S
O324 Sc308 2.105 . S
O324 C316 1.268 . S
O325 Sc309 2.105 . S
O325 C315 1.268 . S
O326 Sc310 2.105 . S
O326 C317 1.268 . S
O327 Sc308 2.105 . S
O327 C313 1.268 . S
O328 Sc310 2.105 . S
O328 C312 1.268 . S
O329 Sc309 2.105 . S
O329 C314 1.268 . S
Sc330 O333 2.025 . S
Sc330 O340 2.105 . S
Sc330 O343 2.105 . S
Sc330 O346 2.105 . S
Sc330 O349 2.105 . S
Sc331 O333 2.025 . S
Sc331 O341 2.105 . S
Sc331 O345 2.105 . S
Sc331 O347 2.105 . S
Sc331 O351 2.105 . S
Sc332 O333 2.025 . S
Sc332 O342 2.105 . S
Sc332 O344 2.105 . S
Sc332 O348 2.105 . S
Sc332 O350 2.105 . S
O333 Sc330 2.025 . S
O333 Sc331 2.025 . S
O333 Sc332 2.025 . S
C334 O340 1.268 . S
C334 O350 1.268 . S
C335 O341 1.268 . S
C335 O349 1.268 . S
C336 O342 1.268 . S
C336 O351 1.268 . S
C337 O343 1.268 . S
C337 O347 1.268 . S
C338 O344 1.268 . S
C338 O346 1.268 . S
C339 O345 1.268 . S
C339 O348 1.268 . S
O340 Sc330 2.105 . S
O340 C334 1.268 . S
O341 Sc331 2.105 . S
O341 C335 1.268 . S
O342 Sc332 2.105 . S
O342 C336 1.268 . S
O343 Sc330 2.105 . S
O343 C337 1.268 . S
O344 Sc332 2.105 . S
O344 C338 1.268 . S
O345 Sc331 2.105 . S
O345 C339 1.268 . S
O346 Sc330 2.105 . S
O346 C338 1.268 . S
O347 Sc331 2.105 . S
O347 C337 1.268 . S
O348 Sc332 2.105 . S
O348 C339 1.268 . S
O349 Sc330 2.105 . S
O349 C335 1.268 . S
O350 Sc332 2.105 . S
O350 C334 1.268 . S
O351 Sc331 2.105 . S
O351 C336 1.268 . S
H352 C358 0.930 . S
H353 C361 0.930 . S
H354 C362 0.930 1_556 S
H355 C363 0.930 . S
H356 C366 0.930 . S
H357 C367 0.930 1_554 S
C358 H352 0.930 . S
C358 C359 1.355 . S
C358 C360 1.415 . S
C359 C358 1.355 . S
C359 C361 1.419 . S
C360 C358 1.415 . S
C360 C365 1.425 1_554 S
C360 C367 1.409 1_554 S
C361 H353 0.930 . S
C361 C359 1.419 . S
C361 C362 1.362 . S
C362 H354 0.930 1_554 S
C362 C361 1.362 . S
C362 C365 1.409 1_554 S
C363 H355 0.930 . S
C363 C364 1.355 . S
C363 C365 1.415 . S
C364 C363 1.355 . S
C364 C366 1.419 . S
C365 C360 1.425 1_556 S
C365 C362 1.409 1_556 S
C365 C363 1.415 . S
C366 H356 0.930 . S
C366 C364 1.419 . S
C366 C367 1.362 . S
C367 H357 0.930 1_556 S
C367 C360 1.409 1_556 S
C367 C366 1.362 . S
H368 C374 0.930 . S
H369 C377 0.930 . S
H370 C378 0.930 . S
H371 C379 0.930 . S
H372 C382 0.930 . S
H373 C383 0.930 . S
C374 H368 0.930 . S
C374 C375 1.355 . S
C374 C376 1.415 . S
C375 C374 1.355 . S
C375 C377 1.419 . S
C376 C374 1.415 . S
C376 C381 1.425 . S
C376 C383 1.409 . S
C377 H369 0.930 . S
C377 C375 1.419 . S
C377 C378 1.362 . S
C378 H370 0.930 . S
C378 C377 1.362 . S
C378 C381 1.409 . S
C379 H371 0.930 . S
C379 C380 1.355 . S
C379 C381 1.415 . S
C380 C379 1.355 . S
C380 C382 1.419 . S
C381 C376 1.425 . S
C381 C378 1.409 . S
C381 C379 1.415 . S
C382 H372 0.930 . S
C382 C380 1.419 . S
C382 C383 1.362 . S
C383 H373 0.930 . S
C383 C376 1.409 . S
C383 C382 1.362 . S
H384 C390 0.930 . S
H385 C393 0.930 . S
H386 C394 0.930 . S
H387 C395 0.930 . S
H388 C398 0.930 . S
H389 C399 0.930 . S
C390 H384 0.930 . S
C390 C391 1.355 . S
C390 C392 1.415 . S
C391 C390 1.355 . S
C391 C393 1.419 . S
C392 C390 1.415 . S
C392 C397 1.425 1_554 S
C392 C399 1.409 1_554 S
C393 H385 0.930 . S
C393 C391 1.419 . S
C393 C394 1.362 . S
C394 H386 0.930 . S
C394 C393 1.362 . S
C394 C397 1.409 1_554 S
C395 H387 0.930 . S
C395 C396 1.355 . S
C395 C397 1.415 . S
C396 C395 1.355 . S
C396 C398 1.419 . S
C397 C392 1.425 1_556 S
C397 C394 1.409 1_556 S
C397 C395 1.415 . S
C398 H388 0.930 . S
C398 C396 1.419 . S
C398 C399 1.362 . S
C399 H389 0.930 . S
C399 C392 1.409 1_556 S
C399 C398 1.362 . S
H400 C406 0.930 . S
H401 C409 0.930 . S
H402 C410 0.930 . S
H403 C411 0.930 . S
H404 C414 0.930 . S
H405 C415 0.930 . S
C406 H400 0.930 . S
C406 C407 1.355 . S
C406 C408 1.415 . S
C407 C406 1.355 . S
C407 C409 1.419 . S
C408 C406 1.415 . S
C408 C413 1.425 . S
C408 C415 1.409 . S
C409 H401 0.930 . S
C409 C407 1.419 . S
C409 C410 1.362 . S
C410 H402 0.930 . S
C410 C409 1.362 . S
C410 C413 1.409 . S
C411 H403 0.930 . S
C411 C412 1.355 . S
C411 C413 1.415 . S
C412 C411 1.355 . S
C412 C414 1.419 . S
C413 C408 1.425 . S
C413 C410 1.409 . S
C413 C411 1.415 . S
C414 H404 0.930 . S
C414 C412 1.419 . S
C414 C415 1.362 . S
C415 H405 0.930 . S
C415 C408 1.409 . S
C415 C414 1.362 . S
H416 C422 0.930 . S
H417 C425 0.930 . S
H418 C426 0.930 . S
H419 C427 0.930 . S
H420 C430 0.930 . S
H421 C431 0.930 . S
C422 H416 0.930 . S
C422 C423 1.355 . S
C422 C424 1.415 . S
C423 C422 1.355 . S
C423 C425 1.419 . S
C424 C422 1.415 . S
C424 C429 1.425 1_556 S
C424 C431 1.409 1_556 S
C425 H417 0.930 . S
C425 C423 1.419 . S
C425 C426 1.362 . S
C426 H418 0.930 . S
C426 C425 1.362 . S
C426 C429 1.409 1_556 S
C427 H419 0.930 . S
C427 C428 1.355 . S
C427 C429 1.415 . S
C428 C427 1.355 . S
C428 C430 1.419 . S
C429 C424 1.425 1_554 S
C429 C426 1.409 1_554 S
C429 C427 1.415 . S
C430 H420 0.930 . S
C430 C428 1.419 . S
C430 C431 1.362 . S
C431 H421 0.930 . S
C431 C424 1.409 1_554 S
C431 C430 1.362 . S
H432 C438 0.930 . S
H433 C441 0.930 . S
H434 C442 0.930 . S
H435 C443 0.930 . S
H436 C446 0.930 . S
H437 C447 0.930 . S
C438 H432 0.930 . S
C438 C439 1.355 . S
C438 C440 1.415 . S
C439 C438 1.355 . S
C439 C441 1.419 . S
C440 C438 1.415 . S
C440 C445 1.425 . S
C440 C447 1.409 . S
C441 H433 0.930 . S
C441 C439 1.419 . S
C441 C442 1.362 . S
C442 H434 0.930 . S
C442 C441 1.362 . S
C442 C445 1.409 . S
C443 H435 0.930 . S
C443 C444 1.355 . S
C443 C445 1.415 . S
C444 C443 1.355 . S
C444 C446 1.419 . S
C445 C440 1.425 . S
C445 C442 1.409 . S
C445 C443 1.415 . S
C446 H436 0.930 . S
C446 C444 1.419 . S
C446 C447 1.362 . S
C447 H437 0.930 . S
C447 C440 1.409 . S
C447 C446 1.362 . S
H448 C454 0.930 . S
H449 C457 0.930 . S
H450 C458 0.930 . S
H451 C459 0.930 . S
H452 C462 0.930 . S
H453 C463 0.930 . S
C454 H448 0.930 . S
C454 C455 1.355 . S
C454 C456 1.415 . S
C455 C454 1.355 . S
C455 C457 1.419 . S
C456 C454 1.415 . S
C456 C461 1.425 1_554 S
C456 C463 1.409 1_554 S
C457 H449 0.930 . S
C457 C455 1.419 . S
C457 C458 1.362 . S
C458 H450 0.930 . S
C458 C457 1.362 . S
C458 C461 1.409 1_554 S
C459 H451 0.930 . S
C459 C460 1.355 . S
C459 C461 1.415 . S
C460 C459 1.355 . S
C460 C462 1.419 . S
C461 C456 1.425 1_556 S
C461 C458 1.409 1_556 S
C461 C459 1.415 . S
C462 H452 0.930 . S
C462 C460 1.419 . S
C462 C463 1.362 . S
C463 H453 0.930 . S
C463 C456 1.409 1_556 S
C463 C462 1.362 . S
H464 C470 0.930 . S
H465 C473 0.930 . S
H466 C474 0.930 . S
H467 C475 0.930 . S
H468 C478 0.930 . S
H469 C479 0.930 . S
C470 H464 0.930 . S
C470 C471 1.355 . S
C470 C472 1.415 . S
C471 C470 1.355 . S
C471 C473 1.419 . S
C472 C470 1.415 . S
C472 C477 1.425 . S
C472 C479 1.409 . S
C473 H465 0.930 . S
C473 C471 1.419 . S
C473 C474 1.362 . S
C474 H466 0.930 . S
C474 C473 1.362 . S
C474 C477 1.409 . S
C475 H467 0.930 . S
C475 C476 1.355 . S
C475 C477 1.415 . S
C476 C475 1.355 . S
C476 C478 1.419 . S
C477 C472 1.425 . S
C477 C474 1.409 . S
C477 C475 1.415 . S
C478 H468 0.930 . S
C478 C476 1.419 . S
C478 C479 1.362 . S
C479 H469 0.930 . S
C479 C472 1.409 . S
C479 C478 1.362 . S
H480 C486 0.930 1_545 S
H481 C489 0.930 . S
H482 C490 0.930 . S
H483 C491 0.930 1_565 S
H484 C494 0.930 . S
H485 C495 0.930 . S
C486 H480 0.930 1_565 S
C486 C487 1.355 . S
C486 C488 1.415 1_565 S
C487 C486 1.355 . S
C487 C489 1.419 . S
C488 C486 1.415 1_545 S
C488 C493 1.425 1_546 S
C488 C495 1.409 . S
C489 H481 0.930 . S
C489 C487 1.419 . S
C489 C490 1.362 1_556 S
C490 H482 0.930 . S
C490 C489 1.362 1_554 S
C490 C493 1.409 . S
C491 H483 0.930 1_545 S
C491 C492 1.355 . S
C491 C493 1.415 1_545 S
C492 C491 1.355 . S
C492 C494 1.419 . S
C493 C488 1.425 1_564 S
C493 C490 1.409 . S
C493 C491 1.415 1_565 S
C494 H484 0.930 . S
C494 C492 1.419 . S
C494 C495 1.362 1_554 S
C495 H485 0.930 . S
C495 C488 1.409 . S
C495 C494 1.362 1_556 S
H496 C502 0.929 . S
H497 C505 0.930 . S
H498 C506 0.930 . S
H499 C507 0.929 . S
H500 C510 0.930 . S
H501 C511 0.930 . S
C502 H496 0.929 . S
C502 C503 1.355 . S
C502 C504 1.415 1_565 S
C503 C502 1.355 . S
C503 C505 1.419 . S
C504 C502 1.415 1_545 S
C504 C509 1.425 1_545 S
C504 C511 1.409 . S
C505 H497 0.930 . S
C505 C503 1.419 . S
C505 C506 1.362 . S
C506 H498 0.930 . S
C506 C505 1.362 . S
C506 C509 1.409 . S
C507 H499 0.929 . S
C507 C508 1.355 . S
C507 C509 1.415 1_545 S
C508 C507 1.355 . S
C508 C510 1.419 . S
C509 C504 1.425 1_565 S
C509 C506 1.409 . S
C509 C507 1.415 1_565 S
C510 H500 0.930 . S
C510 C508 1.419 . S
C510 C511 1.362 . S
C511 H501 0.930 . S
C511 C504 1.409 . S
C511 C510 1.362 . S
H512 C518 0.930 . S
H513 C521 0.930 . S
H514 C522 0.930 . S
H515 C523 0.930 . S
H516 C526 0.930 . S
H517 C527 0.930 . S
C518 H512 0.930 . S
C518 C519 1.355 . S
C518 C520 1.415 1_556 S
C519 C518 1.355 . S
C519 C521 1.419 . S
C520 C518 1.415 1_554 S
C520 C525 1.425 1_564 S
C520 C527 1.409 . S
C521 H513 0.930 . S
C521 C519 1.419 . S
C521 C522 1.362 1_565 S
C522 H514 0.930 . S
C522 C521 1.362 1_545 S
C522 C525 1.409 . S
C523 H515 0.930 . S
C523 C524 1.355 . S
C523 C525 1.415 1_554 S
C524 C523 1.355 . S
C524 C526 1.419 . S
C525 C520 1.425 1_546 S
C525 C522 1.409 . S
C525 C523 1.415 1_556 S
C526 H516 0.930 . S
C526 C524 1.419 . S
C526 C527 1.362 1_545 S
C527 H517 0.930 . S
C527 C520 1.409 . S
C527 C526 1.362 1_565 S
H528 C534 0.930 1_545 S
H529 C537 0.930 . S
H530 C538 0.930 . S
H531 C539 0.930 1_565 S
H532 C542 0.930 . S
H533 C543 0.930 . S
C534 H528 0.930 1_565 S
C534 C535 1.355 . S
C534 C536 1.415 1_565 S
C535 C534 1.355 . S
C535 C537 1.419 . S
C536 C534 1.415 1_545 S
C536 C541 1.425 1_545 S
C536 C543 1.409 . S
C537 H529 0.930 . S
C537 C535 1.419 . S
C537 C538 1.362 . S
C538 H530 0.930 . S
C538 C537 1.362 . S
C538 C541 1.409 . S
C539 H531 0.930 1_545 S
C539 C540 1.355 . S
C539 C541 1.415 1_545 S
C540 C539 1.355 . S
C540 C542 1.419 . S
C541 C536 1.425 1_565 S
C541 C538 1.409 . S
C541 C539 1.415 1_565 S
C542 H532 0.930 . S
C542 C540 1.419 . S
C542 C543 1.362 . S
C543 H533 0.930 . S
C543 C536 1.409 . S
C543 C542 1.362 . S
H544 C550 0.930 . S
H545 C553 0.930 . S
H546 C554 0.930 . S
H547 C555 0.930 . S
H548 C558 0.930 . S
H549 C559 0.930 . S
C550 H544 0.930 . S
C550 C551 1.355 . S
C550 C552 1.415 1_554 S
C551 C550 1.355 . S
C551 C553 1.419 . S
C552 C550 1.415 1_556 S
C552 C557 1.425 1_556 S
C552 C559 1.409 . S
C553 H545 0.930 . S
C553 C551 1.419 . S
C553 C554 1.362 . S
C554 H546 0.930 . S
C554 C553 1.362 . S
C554 C557 1.409 . S
C555 H547 0.930 . S
C555 C556 1.355 . S
C555 C557 1.415 1_556 S
C556 C555 1.355 . S
C556 C558 1.419 . S
C557 C552 1.425 1_554 S
C557 C554 1.409 . S
C557 C555 1.415 1_554 S
C558 H548 0.930 . S
C558 C556 1.419 . S
C558 C559 1.362 . S
C559 H549 0.930 . S
C559 C552 1.409 . S
C559 C558 1.362 . S
H560 C566 0.930 . S
H561 C569 0.930 . S
H562 C570 0.930 . S
H563 C571 0.930 . S
H564 C574 0.930 . S
H565 C575 0.930 . S
C566 H560 0.930 . S
C566 C567 1.355 . S
C566 C568 1.415 . S
C567 C566 1.355 . S
C567 C569 1.419 . S
C568 C566 1.415 . S
C568 C573 1.425 . S
C568 C575 1.409 . S
C569 H561 0.930 . S
C569 C567 1.419 . S
C569 C570 1.362 . S
C570 H562 0.930 . S
C570 C569 1.362 . S
C570 C573 1.409 . S
C571 H563 0.930 . S
C571 C572 1.355 . S
C571 C573 1.415 . S
C572 C571 1.355 . S
C572 C574 1.419 . S
C573 C568 1.425 . S
C573 C570 1.409 . S
C573 C571 1.415 . S
C574 H564 0.930 . S
C574 C572 1.419 . S
C574 C575 1.362 . S
C575 H565 0.930 . S
C575 C568 1.409 . S
C575 C574 1.362 . S
H576 C582 0.930 . S
H577 C585 0.930 . S
H578 C586 0.930 . S
H579 C587 0.930 . S
H580 C590 0.930 . S
H581 C591 0.930 . S
C582 H576 0.930 . S
C582 C583 1.355 . S
C582 C584 1.415 1_554 S
C583 C582 1.355 . S
C583 C585 1.419 . S
C584 C582 1.415 1_556 S
C584 C589 1.425 1_556 S
C584 C591 1.409 . S
C585 H577 0.930 . S
C585 C583 1.419 . S
C585 C586 1.362 . S
C586 H578 0.930 . S
C586 C585 1.362 . S
C586 C589 1.409 . S
C587 H579 0.930 . S
C587 C588 1.355 . S
C587 C589 1.415 1_556 S
C588 C587 1.355 . S
C588 C590 1.419 . S
C589 C584 1.425 1_554 S
C589 C586 1.409 . S
C589 C587 1.415 1_554 S
C590 H580 0.930 . S
C590 C588 1.419 . S
C590 C591 1.362 . S
C591 H581 0.930 . S
C591 C584 1.409 . S
C591 C590 1.362 . S
H592 C598 0.930 . S
H593 C601 0.930 . S
H594 C602 0.930 . S
H595 C603 0.930 . S
H596 C606 0.930 . S
H597 C607 0.930 . S
C598 H592 0.930 . S
C598 C599 1.355 . S
C598 C600 1.415 . S
C599 C598 1.355 . S
C599 C601 1.419 . S
C600 C598 1.415 . S
C600 C605 1.425 . S
C600 C607 1.409 . S
C601 H593 0.930 . S
C601 C599 1.419 . S
C601 C602 1.362 . S
C602 H594 0.930 . S
C602 C601 1.362 . S
C602 C605 1.409 . S
C603 H595 0.930 . S
C603 C604 1.355 . S
C603 C605 1.415 . S
C604 C603 1.355 . S
C604 C606 1.419 . S
C605 C600 1.425 . S
C605 C602 1.409 . S
C605 C603 1.415 . S
C606 H596 0.930 . S
C606 C604 1.419 . S
C606 C607 1.362 . S
C607 H597 0.930 . S
C607 C600 1.409 . S
C607 C606 1.362 . S
H608 C614 0.930 . S
H609 C617 0.930 . S
H610 C618 0.930 . S
H611 C619 0.930 . S
H612 C622 0.930 . S
H613 C623 0.930 . S
C614 H608 0.930 . S
C614 C615 1.355 . S
C614 C616 1.415 . S
C615 C614 1.355 . S
C615 C617 1.419 . S
C616 C614 1.415 . S
C616 C621 1.425 . S
C616 C623 1.409 . S
C617 H609 0.930 . S
C617 C615 1.419 . S
C617 C618 1.362 . S
C618 H610 0.930 . S
C618 C617 1.362 . S
C618 C621 1.409 . S
C619 H611 0.930 . S
C619 C620 1.355 . S
C619 C621 1.415 . S
C620 C619 1.355 . S
C620 C622 1.419 . S
C621 C616 1.425 . S
C621 C618 1.409 . S
C621 C619 1.415 . S
C622 H612 0.930 . S
C622 C620 1.419 . S
C622 C623 1.362 . S
C623 H613 0.930 . S
C623 C616 1.409 . S
C623 C622 1.362 . S
H624 C630 0.930 . S
H625 C633 0.930 . S
H626 C634 0.930 . S
H627 C635 0.930 . S
H628 C638 0.930 . S
H629 C639 0.930 . S
C630 H624 0.930 . S
C630 C631 1.355 . S
C630 C632 1.415 . S
C631 C630 1.355 . S
C631 C633 1.419 . S
C632 C630 1.415 . S
C632 C637 1.425 . S
C632 C639 1.409 . S
C633 H625 0.930 . S
C633 C631 1.419 . S
C633 C634 1.362 . S
C634 H626 0.930 . S
C634 C633 1.362 . S
C634 C637 1.409 . S
C635 H627 0.930 . S
C635 C636 1.355 . S
C635 C637 1.415 . S
C636 C635 1.355 . S
C636 C638 1.419 . S
C637 C632 1.425 . S
C637 C634 1.409 . S
C637 C635 1.415 . S
C638 H628 0.930 . S
C638 C636 1.419 . S
C638 C639 1.362 . S
C639 H629 0.930 . S
C639 C632 1.409 . S
C639 C638 1.362 . S
H640 C646 0.930 . S
H641 C649 0.930 . S
H642 C650 0.930 . S
H643 C651 0.930 . S
H644 C654 0.930 . S
H645 C655 0.930 . S
C646 H640 0.930 . S
C646 C647 1.355 . S
C646 C648 1.415 . S
C647 C646 1.355 . S
C647 C649 1.419 . S
C648 C646 1.415 . S
C648 C653 1.425 . S
C648 C655 1.409 . S
C649 H641 0.930 . S
C649 C647 1.419 . S
C649 C650 1.362 . S
C650 H642 0.930 . S
C650 C649 1.362 . S
C650 C653 1.409 . S
C651 H643 0.930 . S
C651 C652 1.355 . S
C651 C653 1.415 . S
C652 C651 1.355 . S
C652 C654 1.419 . S
C653 C648 1.425 . S
C653 C650 1.409 . S
C653 C651 1.415 . S
C654 H644 0.930 . S
C654 C652 1.419 . S
C654 C655 1.362 . S
C655 H645 0.930 . S
C655 C648 1.409 . S
C655 C654 1.362 . S
H656 C662 0.930 . S
H657 C665 0.930 . S
H658 C666 0.930 . S
H659 C667 0.930 . S
H660 C670 0.930 . S
H661 C671 0.930 . S
C662 H656 0.930 . S
C662 C663 1.355 . S
C662 C664 1.415 . S
C663 C662 1.355 . S
C663 C665 1.419 . S
C664 C662 1.415 . S
C664 C669 1.425 . S
C664 C671 1.409 . S
C665 H657 0.930 . S
C665 C663 1.419 . S
C665 C666 1.362 . S
C666 H658 0.930 . S
C666 C665 1.362 . S
C666 C669 1.409 . S
C667 H659 0.930 . S
C667 C668 1.355 . S
C667 C669 1.415 . S
C668 C667 1.355 . S
C668 C670 1.419 . S
C669 C664 1.425 . S
C669 C666 1.409 . S
C669 C667 1.415 . S
C670 H660 0.930 . S
C670 C668 1.419 . S
C670 C671 1.362 . S
C671 H661 0.930 . S
C671 C664 1.409 . S
C671 C670 1.362 . S
H672 C678 0.930 . S
H673 C681 0.930 . S
H674 C682 0.930 . S
H675 C683 0.930 . S
H676 C686 0.930 . S
H677 C687 0.930 . S
C678 H672 0.930 . S
C678 C679 1.355 . S
C678 C680 1.415 . S
C679 C678 1.355 . S
C679 C681 1.419 . S
C680 C678 1.415 . S
C680 C685 1.425 . S
C680 C687 1.409 . S
C681 H673 0.930 . S
C681 C679 1.419 . S
C681 C682 1.362 . S
C682 H674 0.930 . S
C682 C681 1.362 . S
C682 C685 1.409 . S
C683 H675 0.930 . S
C683 C684 1.355 . S
C683 C685 1.415 . S
C684 C683 1.355 . S
C684 C686 1.419 . S
C685 C680 1.425 . S
C685 C682 1.409 . S
C685 C683 1.415 . S
C686 H676 0.930 . S
C686 C684 1.419 . S
C686 C687 1.362 . S
C687 H677 0.930 . S
C687 C680 1.409 . S
C687 C686 1.362 . S
H688 C694 0.930 . S
H689 C697 0.930 . S
H690 C698 0.930 . S
H691 C699 0.930 . S
H692 C702 0.930 . S
H693 C703 0.930 . S
C694 H688 0.930 . S
C694 C695 1.355 . S
C694 C696 1.415 . S
C695 C694 1.355 . S
C695 C697 1.419 . S
C696 C694 1.415 . S
C696 C701 1.425 . S
C696 C703 1.409 . S
C697 H689 0.930 . S
C697 C695 1.419 . S
C697 C698 1.362 . S
C698 H690 0.930 . S
C698 C697 1.362 . S
C698 C701 1.409 . S
C699 H691 0.930 . S
C699 C700 1.355 . S
C699 C701 1.415 . S
C700 C699 1.355 . S
C700 C702 1.419 . S
C701 C696 1.425 . S
C701 C698 1.409 . S
C701 C699 1.415 . S
C702 H692 0.930 . S
C702 C700 1.419 . S
C702 C703 1.362 . S
C703 H693 0.930 . S
C703 C696 1.409 . S
C703 C702 1.362 . S
H704 C710 0.930 . S
H705 C713 0.930 . S
H706 C714 0.930 . S
H707 C715 0.930 . S
H708 C718 0.930 . S
H709 C719 0.930 . S
C710 H704 0.930 . S
C710 C711 1.355 . S
C710 C712 1.415 . S
C711 C710 1.355 . S
C711 C713 1.419 . S
C712 C710 1.415 . S
C712 C717 1.425 . S
C712 C719 1.409 . S
C713 H705 0.930 . S
C713 C711 1.419 . S
C713 C714 1.362 . S
C714 H706 0.930 . S
C714 C713 1.362 . S
C714 C717 1.409 . S
C715 H707 0.930 . S
C715 C716 1.355 . S
C715 C717 1.415 . S
C716 C715 1.355 . S
C716 C718 1.419 . S
C717 C712 1.425 . S
C717 C714 1.409 . S
C717 C715 1.415 . S
C718 H708 0.930 . S
C718 C716 1.419 . S
C718 C719 1.362 . S
C719 H709 0.930 . S
C719 C712 1.409 . S
C719 C718 1.362 . S
H720 C726 0.930 . S
H721 C729 0.930 . S
H722 C730 0.930 . S
H723 C731 0.930 . S
H724 C734 0.930 . S
H725 C735 0.930 . S
C726 H720 0.930 . S
C726 C727 1.355 . S
C726 C728 1.415 . S
C727 C726 1.355 . S
C727 C729 1.419 . S
C728 C726 1.415 . S
C728 C733 1.425 . S
C728 C735 1.409 . S
C729 H721 0.930 . S
C729 C727 1.419 . S
C729 C730 1.362 . S
C730 H722 0.930 . S
C730 C729 1.362 . S
C730 C733 1.409 . S
C731 H723 0.930 . S
C731 C732 1.355 . S
C731 C733 1.415 . S
C732 C731 1.355 . S
C732 C734 1.419 . S
C733 C728 1.425 . S
C733 C730 1.409 . S
C733 C731 1.415 . S
C734 H724 0.930 . S
C734 C732 1.419 . S
C734 C735 1.362 . S
C735 H725 0.930 . S
C735 C728 1.409 . S
C735 C734 1.362 . S
H736 C742 0.930 . S
H737 C745 0.930 . S
H738 C746 0.930 . S
H739 C747 0.930 . S
H740 C750 0.930 . S
H741 C751 0.930 . S
C742 H736 0.930 . S
C742 C743 1.355 . S
C742 C744 1.415 . S
C743 C742 1.355 . S
C743 C745 1.419 . S
C744 C742 1.415 . S
C744 C749 1.425 . S
C744 C751 1.409 . S
C745 H737 0.930 . S
C745 C743 1.419 . S
C745 C746 1.362 . S
C746 H738 0.930 . S
C746 C745 1.362 . S
C746 C749 1.409 . S
C747 H739 0.930 . S
C747 C748 1.355 . S
C747 C749 1.415 . S
C748 C747 1.355 . S
C748 C750 1.419 . S
C749 C744 1.425 . S
C749 C746 1.409 . S
C749 C747 1.415 . S
C750 H740 0.930 . S
C750 C748 1.419 . S
C750 C751 1.362 . S
C751 H741 0.930 . S
C751 C744 1.409 . S
C751 C750 1.362 . S
H752 C758 0.930 . S
H753 C761 0.930 . S
H754 C762 0.930 . S
H755 C763 0.930 . S
H756 C766 0.930 . S
H757 C767 0.930 . S
C758 H752 0.930 . S
C758 C759 1.355 . S
C758 C760 1.415 . S
C759 C758 1.355 . S
C759 C761 1.419 . S
C760 C758 1.415 . S
C760 C765 1.425 1_455 S
C760 C767 1.409 1_455 S
C761 H753 0.930 . S
C761 C759 1.419 . S
C761 C762 1.362 . S
C762 H754 0.930 . S
C762 C761 1.362 . S
C762 C765 1.409 1_455 S
C763 H755 0.930 . S
C763 C764 1.355 . S
C763 C765 1.415 . S
C764 C763 1.355 . S
C764 C766 1.419 . S
C765 C760 1.425 1_655 S
C765 C762 1.409 1_655 S
C765 C763 1.415 . S
C766 H756 0.930 . S
C766 C764 1.419 . S
C766 C767 1.362 . S
C767 H757 0.930 . S
C767 C760 1.409 1_655 S
C767 C766 1.362 . S
H768 C774 0.930 . S
H769 C777 0.930 . S
H770 C778 0.930 . S
H771 C779 0.930 . S
H772 C782 0.930 . S
H773 C783 0.930 . S
C774 H768 0.930 . S
C774 C775 1.355 . S
C774 C776 1.415 . S
C775 C774 1.355 . S
C775 C777 1.419 . S
C776 C774 1.415 . S
C776 C781 1.425 . S
C776 C783 1.409 . S
C777 H769 0.930 . S
C777 C775 1.419 . S
C777 C778 1.362 . S
C778 H770 0.930 . S
C778 C777 1.362 . S
C778 C781 1.409 . S
C779 H771 0.930 . S
C779 C780 1.355 . S
C779 C781 1.415 . S
C780 C779 1.355 . S
C780 C782 1.419 . S
C781 C776 1.425 . S
C781 C778 1.409 . S
C781 C779 1.415 . S
C782 H772 0.930 . S
C782 C780 1.419 . S
C782 C783 1.362 . S
C783 H773 0.930 . S
C783 C776 1.409 . S
C783 C782 1.362 . S
H784 C790 0.930 . S
H785 C793 0.930 . S
H786 C794 0.930 . S
H787 C795 0.930 . S
H788 C798 0.930 . S
H789 C799 0.930 . S
C790 H784 0.930 . S
C790 C791 1.355 . S
C790 C792 1.415 . S
C791 C790 1.355 . S
C791 C793 1.419 . S
C792 C790 1.415 . S
C792 C797 1.425 1_655 S
C792 C799 1.409 1_655 S
C793 H785 0.930 . S
C793 C791 1.419 . S
C793 C794 1.362 . S
C794 H786 0.930 . S
C794 C793 1.362 . S
C794 C797 1.409 1_655 S
C795 H787 0.930 . S
C795 C796 1.355 . S
C795 C797 1.415 . S
C796 C795 1.355 . S
C796 C798 1.419 . S
C797 C792 1.425 1_455 S
C797 C794 1.409 1_455 S
C797 C795 1.415 . S
C798 H788 0.930 . S
C798 C796 1.419 . S
C798 C799 1.362 . S
C799 H789 0.930 . S
C799 C792 1.409 1_455 S
C799 C798 1.362 . S
H800 C806 0.930 . S
H801 C809 0.930 . S
H802 C810 0.930 . S
H803 C811 0.930 . S
H804 C814 0.930 . S
H805 C815 0.930 . S
C806 H800 0.930 . S
C806 C807 1.355 . S
C806 C808 1.415 . S
C807 C806 1.355 . S
C807 C809 1.419 . S
C808 C806 1.415 . S
C808 C813 1.425 1_655 S
C808 C815 1.409 1_655 S
C809 H801 0.930 . S
C809 C807 1.419 . S
C809 C810 1.362 . S
C810 H802 0.930 . S
C810 C809 1.362 . S
C810 C813 1.409 1_655 S
C811 H803 0.930 . S
C811 C812 1.355 . S
C811 C813 1.415 . S
C812 C811 1.355 . S
C812 C814 1.419 . S
C813 C808 1.425 1_455 S
C813 C810 1.409 1_455 S
C813 C811 1.415 . S
C814 H804 0.930 . S
C814 C812 1.419 . S
C814 C815 1.362 . S
C815 H805 0.930 . S
C815 C808 1.409 1_455 S
C815 C814 1.362 . S
H816 C822 0.930 . S
H817 C825 0.930 . S
H818 C826 0.930 . S
H819 C827 0.930 . S
H820 C830 0.930 . S
H821 C831 0.930 . S
C822 H816 0.930 . S
C822 C823 1.355 . S
C822 C824 1.415 . S
C823 C822 1.355 . S
C823 C825 1.419 . S
C824 C822 1.415 . S
C824 C829 1.425 . S
C824 C831 1.409 . S
C825 H817 0.930 . S
C825 C823 1.419 . S
C825 C826 1.362 . S
C826 H818 0.930 . S
C826 C825 1.362 . S
C826 C829 1.409 . S
C827 H819 0.930 . S
C827 C828 1.355 . S
C827 C829 1.415 . S
C828 C827 1.355 . S
C828 C830 1.419 . S
C829 C824 1.425 . S
C829 C826 1.409 . S
C829 C827 1.415 . S
C830 H820 0.930 . S
C830 C828 1.419 . S
C830 C831 1.362 . S
C831 H821 0.930 . S
C831 C824 1.409 . S
C831 C830 1.362 . S
H832 C838 0.930 . S
H833 C841 0.930 . S
H834 C842 0.930 . S
H835 C843 0.930 . S
H836 C846 0.930 . S
H837 C847 0.930 . S
C838 H832 0.930 . S
C838 C839 1.355 . S
C838 C840 1.415 . S
C839 C838 1.355 . S
C839 C841 1.419 . S
C840 C838 1.415 . S
C840 C845 1.425 1_455 S
C840 C847 1.409 1_455 S
C841 H833 0.930 . S
C841 C839 1.419 . S
C841 C842 1.362 . S
C842 H834 0.930 . S
C842 C841 1.362 . S
C842 C845 1.409 1_455 S
C843 H835 0.930 . S
C843 C844 1.355 . S
C843 C845 1.415 . S
C844 C843 1.355 . S
C844 C846 1.419 . S
C845 C840 1.425 1_655 S
C845 C842 1.409 1_655 S
C845 C843 1.415 . S
C846 H836 0.930 . S
C846 C844 1.419 . S
C846 C847 1.362 . S
C847 H837 0.930 . S
C847 C840 1.409 1_655 S
C847 C846 1.362 . S
H848 C854 0.930 . S
H849 C857 0.930 . S
H850 C858 0.930 . S
H851 C859 0.930 . S
H852 C862 0.930 . S
H853 C863 0.930 . S
C854 H848 0.930 . S
C854 C855 1.355 . S
C854 C856 1.415 . S
C855 C854 1.355 . S
C855 C857 1.419 . S
C856 C854 1.415 . S
C856 C861 1.425 . S
C856 C863 1.409 . S
C857 H849 0.930 . S
C857 C855 1.419 . S
C857 C858 1.362 . S
C858 H850 0.930 . S
C858 C857 1.362 . S
C858 C861 1.409 . S
C859 H851 0.930 . S
C859 C860 1.355 . S
C859 C861 1.415 . S
C860 C859 1.355 . S
C860 C862 1.419 . S
C861 C856 1.425 . S
C861 C858 1.409 . S
C861 C859 1.415 . S
C862 H852 0.930 . S
C862 C860 1.419 . S
C862 C863 1.362 . S
C863 H853 0.930 . S
C863 C856 1.409 . S
C863 C862 1.362 . S
H864 C870 0.930 . S
H865 C873 0.935 . S
H866 C874 0.930 . S
H867 C875 0.930 . S
H868 C878 0.930 . S
H869 C879 0.930 . S
C870 H864 0.930 . S
C870 C871 1.355 . S
C870 C872 1.415 1_545 S
C871 C870 1.355 . S
C871 C873 1.427 . S
C872 C870 1.415 1_565 S
C872 C877 1.425 . S
C872 C879 1.409 . S
C873 H865 0.935 . S
C873 C871 1.427 . S
C873 C874 1.350 1_545 S
C874 H866 0.930 . S
C874 C873 1.350 1_565 S
C874 C877 1.409 . S
C875 H867 0.930 . S
C875 C876 1.355 . S
C875 C877 1.415 . S
C876 C875 1.355 . S
C876 C878 1.419 . S
C877 C872 1.425 . S
C877 C874 1.409 . S
C877 C875 1.415 . S
C878 H868 0.930 . S
C878 C876 1.419 . S
C878 C879 1.362 . S
C879 H869 0.930 . S
C879 C872 1.409 . S
C879 C878 1.362 . S
H880 C886 0.930 . S
H881 C889 0.930 . S
H882 C890 0.930 . S
H883 C891 0.930 . S
H884 C894 0.930 . S
H885 C895 0.930 . S
C886 H880 0.930 . S
C886 C887 1.355 1_545 S
C886 C888 1.415 . S
C887 C886 1.355 1_565 S
C887 C889 1.419 . S
C888 C886 1.415 . S
C888 C893 1.425 . S
C888 C895 1.409 . S
C889 H881 0.930 . S
C889 C887 1.419 . S
C889 C890 1.362 1_565 S
C890 H882 0.930 . S
C890 C889 1.362 1_545 S
C890 C893 1.409 . S
C891 H883 0.930 . S
C891 C892 1.355 . S
C891 C893 1.415 . S
C892 C891 1.355 . S
C892 C894 1.419 . S
C893 C888 1.425 . S
C893 C890 1.409 . S
C893 C891 1.415 . S
C894 H884 0.930 . S
C894 C892 1.419 . S
C894 C895 1.362 . S
C895 H885 0.930 . S
C895 C888 1.409 . S
C895 C894 1.362 . S
H896 C902 0.930 . S
H897 C905 0.930 . S
H898 C906 0.930 . S
H899 C907 0.932 . S
H900 C910 0.930 . S
H901 C911 0.930 . S
C902 H896 0.930 . S
C902 C903 1.355 . S
C902 C904 1.415 . S
C903 C902 1.355 . S
C903 C905 1.419 . S
C904 C902 1.415 . S
C904 C909 1.425 . S
C904 C911 1.409 . S
C905 H897 0.930 . S
C905 C903 1.419 . S
C905 C906 1.362 . S
C906 H898 0.930 . S
C906 C905 1.362 . S
C906 C909 1.409 . S
C907 H899 0.932 . S
C907 C908 1.355 1_545 S
C907 C909 1.415 . S
C908 C907 1.355 1_565 S
C908 C910 1.419 . S
C909 C904 1.425 . S
C909 C906 1.409 . S
C909 C907 1.415 . S
C910 H900 0.930 . S
C910 C908 1.419 . S
C910 C911 1.362 1_565 S
C911 H901 0.930 . S
C911 C904 1.409 . S
C911 C910 1.362 1_545 S
H912 C918 0.930 . S
H913 C921 0.930 . S
H914 C922 0.930 . S
H915 C923 0.930 . S
H916 C926 0.930 . S
H917 C927 0.930 . S
C918 H912 0.930 . S
C918 C919 1.355 . S
C918 C920 1.415 . S
C919 C918 1.355 . S
C919 C921 1.419 . S
C920 C918 1.415 . S
C920 C925 1.425 . S
C920 C927 1.409 . S
C921 H913 0.930 . S
C921 C919 1.419 . S
C921 C922 1.362 . S
C922 H914 0.930 . S
C922 C921 1.362 . S
C922 C925 1.409 . S
C923 H915 0.930 . S
C923 C924 1.355 1_565 S
C923 C925 1.415 . S
C924 C923 1.355 1_545 S
C924 C926 1.419 . S
C925 C920 1.425 . S
C925 C922 1.409 . S
C925 C923 1.415 . S
C926 H916 0.930 . S
C926 C924 1.419 . S
C926 C927 1.362 1_545 S
C927 H917 0.930 . S
C927 C920 1.409 . S
C927 C926 1.362 1_565 S
H928 C934 0.930 . S
H929 C937 0.930 . S
H930 C938 0.930 . S
H931 C939 0.930 . S
H932 C942 0.930 1_565 S
H933 C943 0.930 . S
C934 H928 0.930 . S
C934 C935 1.355 . S
C934 C936 1.415 . S
C935 C934 1.355 . S
C935 C937 1.419 . S
C936 C934 1.415 . S
C936 C941 1.425 . S
C936 C943 1.409 . S
C937 H929 0.930 . S
C937 C935 1.419 . S
C937 C938 1.362 . S
C938 H930 0.930 . S
C938 C937 1.362 . S
C938 C941 1.409 . S
C939 H931 0.930 . S
C939 C940 1.355 . S
C939 C941 1.415 1_565 S
C940 C939 1.355 . S
C940 C942 1.419 1_565 S
C941 C936 1.425 . S
C941 C938 1.409 . S
C941 C939 1.415 1_545 S
C942 H932 0.930 1_545 S
C942 C940 1.419 1_545 S
C942 C943 1.362 . S
C943 H933 0.930 . S
C943 C936 1.409 . S
C943 C942 1.362 . S
H944 C950 0.930 . S
H945 C953 0.930 1_545 S
H946 C954 0.930 . S
H947 C955 0.930 . S
H948 C958 0.930 . S
H949 C959 0.930 . S
C950 H944 0.930 . S
C950 C951 1.355 . S
C950 C952 1.415 1_545 S
C951 C950 1.355 . S
C951 C953 1.419 1_545 S
C952 C950 1.415 1_565 S
C952 C957 1.425 . S
C952 C959 1.409 . S
C953 H945 0.930 1_565 S
C953 C951 1.419 1_565 S
C953 C954 1.362 . S
C954 H946 0.930 . S
C954 C953 1.362 . S
C954 C957 1.409 . S
C955 H947 0.930 . S
C955 C956 1.355 . S
C955 C957 1.415 . S
C956 C955 1.355 . S
C956 C958 1.419 . S
C957 C952 1.425 . S
C957 C954 1.409 . S
C957 C955 1.415 . S
C958 H948 0.930 . S
C958 C956 1.419 . S
C958 C959 1.362 . S
C959 H949 0.930 . S
C959 C952 1.409 . S
C959 C958 1.362 . S
H960 C966 0.931 . S
H961 C969 0.930 . S
H962 C970 0.930 . S
H963 C971 0.930 . S
H964 C974 0.930 . S
H965 C975 0.930 . S
C966 H960 0.931 . S
C966 C967 1.359 . S
C966 C968 1.408 1_545 S
C967 C966 1.359 . S
C967 C969 1.419 . S
C968 C966 1.408 1_565 S
C968 C973 1.425 . S
C968 C975 1.409 . S
C969 H961 0.930 . S
C969 C967 1.419 . S
C969 C970 1.362 1_545 S
C970 H962 0.930 . S
C970 C969 1.362 1_565 S
C970 C973 1.409 . S
C971 H963 0.930 . S
C971 C972 1.355 . S
C971 C973 1.415 . S
C972 C971 1.355 . S
C972 C974 1.419 . S
C973 C968 1.425 . S
C973 C970 1.409 . S
C973 C971 1.415 . S
C974 H964 0.930 . S
C974 C972 1.419 . S
C974 C975 1.362 . S
C975 H965 0.930 . S
C975 C968 1.409 . S
C975 C974 1.362 . S
H976 C982 0.930 . S
H977 C985 0.930 . S
H978 C986 0.930 . S
H979 C987 0.930 . S
H980 C990 0.930 1_565 S
H981 C991 0.930 . S
C982 H976 0.930 . S
C982 C983 1.355 . S
C982 C984 1.415 . S
C983 C982 1.355 . S
C983 C985 1.419 . S
C984 C982 1.415 . S
C984 C989 1.425 . S
C984 C991 1.409 . S
C985 H977 0.930 . S
C985 C983 1.419 . S
C985 C986 1.362 . S
C986 H978 0.930 . S
C986 C985 1.362 . S
C986 C989 1.409 . S
C987 H979 0.930 . S
C987 C988 1.355 . S
C987 C989 1.415 1_565 S
C988 C987 1.355 . S
C988 C990 1.419 1_565 S
C989 C984 1.425 . S
C989 C986 1.409 . S
C989 C987 1.415 1_545 S
C990 H980 0.930 1_545 S
C990 C988 1.419 1_545 S
C990 C991 1.362 . S
C991 H981 0.930 . S
C991 C984 1.409 . S
C991 C990 1.362 . S
H992 C998 0.930 . S
H993 C1001 0.930 . S
H994 C1002 0.930 . S
H995 C1003 0.930 . S
H996 C1006 0.930 . S
H997 C1007 0.930 . S
C998 H992 0.930 . S
C998 C999 1.355 . S
C998 C1000 1.415 . S
C999 C998 1.355 . S
C999 C1001 1.419 . S
C1000 C998 1.415 . S
C1000 C1005 1.425 . S
C1000 C1007 1.409 . S
C1001 H993 0.930 . S
C1001 C999 1.419 . S
C1001 C1002 1.362 . S
C1002 H994 0.930 . S
C1002 C1001 1.362 . S
C1002 C1005 1.409 . S
C1003 H995 0.930 . S
C1003 C1004 1.355 . S
C1003 C1005 1.415 . S
C1004 C1003 1.355 . S
C1004 C1006 1.419 . S
C1005 C1000 1.425 . S
C1005 C1002 1.409 . S
C1005 C1003 1.415 . S
C1006 H996 0.930 . S
C1006 C1004 1.419 . S
C1006 C1007 1.362 . S
C1007 H997 0.930 . S
C1007 C1000 1.409 . S
C1007 C1006 1.362 . S
H1008 C1014 0.930 . S
H1009 C1017 0.930 . S
H1010 C1018 0.930 . S
H1011 C1019 0.930 . S
H1012 C1022 0.930 . S
H1013 C1023 0.930 . S
C1014 H1008 0.930 . S
C1014 C1015 1.355 . S
C1014 C1016 1.415 . S
C1015 C1014 1.355 . S
C1015 C1017 1.419 . S
C1016 C1014 1.415 . S
C1016 C1021 1.425 . S
C1016 C1023 1.409 . S
C1017 H1009 0.930 . S
C1017 C1015 1.419 . S
C1017 C1018 1.362 . S
C1018 H1010 0.930 . S
C1018 C1017 1.362 . S
C1018 C1021 1.409 . S
C1019 H1011 0.930 . S
C1019 C1020 1.355 . S
C1019 C1021 1.415 . S
C1020 C1019 1.355 . S
C1020 C1022 1.419 . S
C1021 C1016 1.425 . S
C1021 C1018 1.409 . S
C1021 C1019 1.415 . S
C1022 H1012 0.930 . S
C1022 C1020 1.419 . S
C1022 C1023 1.362 . S
C1023 H1013 0.930 . S
C1023 C1016 1.409 . S
C1023 C1022 1.362 . S
H1024 C1030 0.930 . S
H1025 C1033 0.930 . S
H1026 C1034 0.930 . S
H1027 C1035 0.930 . S
H1028 C1038 0.930 . S
H1029 C1039 0.930 . S
C1030 H1024 0.930 . S
C1030 C1031 1.355 . S
C1030 C1032 1.415 . S
C1031 C1030 1.355 . S
C1031 C1033 1.419 . S
C1032 C1030 1.415 . S
C1032 C1037 1.425 . S
C1032 C1039 1.409 . S
C1033 H1025 0.930 . S
C1033 C1031 1.419 . S
C1033 C1034 1.362 . S
C1034 H1026 0.930 . S
C1034 C1033 1.362 . S
C1034 C1037 1.409 . S
C1035 H1027 0.930 . S
C1035 C1036 1.355 . S
C1035 C1037 1.415 . S
C1036 C1035 1.355 . S
C1036 C1038 1.419 . S
C1037 C1032 1.425 . S
C1037 C1034 1.409 . S
C1037 C1035 1.415 . S
C1038 H1028 0.930 . S
C1038 C1036 1.419 . S
C1038 C1039 1.362 . S
C1039 H1029 0.930 . S
C1039 C1032 1.409 . S
C1039 C1038 1.362 . S
H1040 C1046 0.930 . S
H1041 C1049 0.930 . S
H1042 C1050 0.930 . S
H1043 C1051 0.930 . S
H1044 C1054 0.930 . S
H1045 C1055 0.930 . S
C1046 H1040 0.930 . S
C1046 C1047 1.355 . S
C1046 C1048 1.415 . S
C1047 C1046 1.355 . S
C1047 C1049 1.419 . S
C1048 C1046 1.415 . S
C1048 C1053 1.425 . S
C1048 C1055 1.409 . S
C1049 H1041 0.930 . S
C1049 C1047 1.419 . S
C1049 C1050 1.362 . S
C1050 H1042 0.930 . S
C1050 C1049 1.362 . S
C1050 C1053 1.409 . S
C1051 H1043 0.930 . S
C1051 C1052 1.355 . S
C1051 C1053 1.415 . S
C1052 C1051 1.355 . S
C1052 C1054 1.419 . S
C1053 C1048 1.425 . S
C1053 C1050 1.409 . S
C1053 C1051 1.415 . S
C1054 H1044 0.930 . S
C1054 C1052 1.419 . S
C1054 C1055 1.362 . S
C1055 H1045 0.930 . S
C1055 C1048 1.409 . S
C1055 C1054 1.362 . S
H1056 C1062 0.930 . S
H1057 C1065 0.930 . S
H1058 C1066 0.930 . S
H1059 C1067 0.930 . S
H1060 C1070 0.930 . S
H1061 C1071 0.930 . S
C1062 H1056 0.930 . S
C1062 C1063 1.355 . S
C1062 C1064 1.415 . S
C1063 C1062 1.355 . S
C1063 C1065 1.419 . S
C1064 C1062 1.415 . S
C1064 C1069 1.425 . S
C1064 C1071 1.409 . S
C1065 H1057 0.930 . S
C1065 C1063 1.419 . S
C1065 C1066 1.362 . S
C1066 H1058 0.930 . S
C1066 C1065 1.362 . S
C1066 C1069 1.409 . S
C1067 H1059 0.930 . S
C1067 C1068 1.355 . S
C1067 C1069 1.415 . S
C1068 C1067 1.355 . S
C1068 C1070 1.419 . S
C1069 C1064 1.425 . S
C1069 C1066 1.409 . S
C1069 C1067 1.415 . S
C1070 H1060 0.930 . S
C1070 C1068 1.419 . S
C1070 C1071 1.362 . S
C1071 H1061 0.930 . S
C1071 C1064 1.409 . S
C1071 C1070 1.362 . S
H1072 C1078 0.930 . S
H1073 C1081 0.930 . S
H1074 C1082 0.930 . S
H1075 C1083 0.930 . S
H1076 C1086 0.930 . S
H1077 C1087 0.930 . S
C1078 H1072 0.930 . S
C1078 C1079 1.355 . S
C1078 C1080 1.415 . S
C1079 C1078 1.355 . S
C1079 C1081 1.419 . S
C1080 C1078 1.415 . S
C1080 C1085 1.425 . S
C1080 C1087 1.409 . S
C1081 H1073 0.930 . S
C1081 C1079 1.419 . S
C1081 C1082 1.362 . S
C1082 H1074 0.930 . S
C1082 C1081 1.362 . S
C1082 C1085 1.409 . S
C1083 H1075 0.930 . S
C1083 C1084 1.355 . S
C1083 C1085 1.415 . S
C1084 C1083 1.355 . S
C1084 C1086 1.419 . S
C1085 C1080 1.425 . S
C1085 C1082 1.409 . S
C1085 C1083 1.415 . S
C1086 H1076 0.930 . S
C1086 C1084 1.419 . S
C1086 C1087 1.362 . S
C1087 H1077 0.930 . S
C1087 C1080 1.409 . S
C1087 C1086 1.362 . S
H1088 C1094 0.930 . S
H1089 C1097 0.930 . S
H1090 C1098 0.930 . S
H1091 C1099 0.930 . S
H1092 C1102 0.930 . S
H1093 C1103 0.930 . S
C1094 H1088 0.930 . S
C1094 C1095 1.355 . S
C1094 C1096 1.415 . S
C1095 C1094 1.355 . S
C1095 C1097 1.419 . S
C1096 C1094 1.415 . S
C1096 C1101 1.425 . S
C1096 C1103 1.409 . S
C1097 H1089 0.930 . S
C1097 C1095 1.419 . S
C1097 C1098 1.362 . S
C1098 H1090 0.930 . S
C1098 C1097 1.362 . S
C1098 C1101 1.409 . S
C1099 H1091 0.930 . S
C1099 C1100 1.355 . S
C1099 C1101 1.415 . S
C1100 C1099 1.355 . S
C1100 C1102 1.419 . S
C1101 C1096 1.425 . S
C1101 C1098 1.409 . S
C1101 C1099 1.415 . S
C1102 H1092 0.930 . S
C1102 C1100 1.419 . S
C1102 C1103 1.362 . S
C1103 H1093 0.930 . S
C1103 C1096 1.409 . S
C1103 C1102 1.362 . S
H1104 C1110 0.930 . S
H1105 C1113 0.930 . S
H1106 C1114 0.930 . S
H1107 C1115 0.930 . S
H1108 C1118 0.930 . S
H1109 C1119 0.930 . S
C1110 H1104 0.930 . S
C1110 C1111 1.355 . S
C1110 C1112 1.415 . S
C1111 C1110 1.355 . S
C1111 C1113 1.419 . S
C1112 C1110 1.415 . S
C1112 C1117 1.425 . S
C1112 C1119 1.409 . S
C1113 H1105 0.930 . S
C1113 C1111 1.419 . S
C1113 C1114 1.362 . S
C1114 H1106 0.930 . S
C1114 C1113 1.362 . S
C1114 C1117 1.409 . S
C1115 H1107 0.930 . S
C1115 C1116 1.355 . S
C1115 C1117 1.415 . S
C1116 C1115 1.355 . S
C1116 C1118 1.419 . S
C1117 C1112 1.425 . S
C1117 C1114 1.409 . S
C1117 C1115 1.415 . S
C1118 H1108 0.930 . S
C1118 C1116 1.419 . S
C1118 C1119 1.362 . S
C1119 H1109 0.930 . S
C1119 C1112 1.409 . S
C1119 C1118 1.362 . S
C359 C5 0.912 . S
C364 C270 0.912 . S
C375 C293 0.891 . S
C380 C27 0.891 . S
C391 C314 0.989 . S
C396 C49 0.989 . S
C407 C336 0.948 . S
C412 C75 0.948 . S
C423 C94 0.841 . S
C428 C181 0.841 . S
C439 C203 0.898 . S
C444 C117 0.898 . S
C455 C138 0.853 . S
C460 C225 0.853 . S
C471 C251 0.861 . S
C476 C160 0.861 . S
C487 C48 1.844 . S
C492 C4 1.843 . S
C503 C26 1.849 . S
C508 C74 1.840 . S
C519 C92 1.851 . S
C524 C136 1.842 . S
C535 C158 1.843 . S
C540 C118 1.845 . S
C551 C180 1.843 . S
C556 C224 1.851 . S
C567 C250 1.842 . S
C572 C202 1.851 . S
C583 C312 1.851 . S
C588 C268 1.842 . S
C599 C334 1.840 . S
C604 C294 1.849 . S
C615 C9 1.804 . S
C620 C71 1.803 . S
C631 C53 1.723 . S
C636 C31 1.734 . S
C647 C161 1.785 . S
C652 C95 1.803 . S
C663 C139 1.787 . S
C668 C116 1.804 . S
C679 C247 1.732 . S
C684 C185 1.756 . S
C695 C229 1.803 . S
C700 C207 1.785 . S
C711 C271 1.771 . S
C716 C337 1.796 . S
C727 C315 1.728 . S
C732 C292 1.750 . S
C743 C8 1.449 . S
C748 C140 1.477 . S
C759 C30 1.436 . S
C764 C162 1.490 . S
C775 C96 1.469 . S
C780 C52 1.457 . S
C791 C114 1.425 . S
C796 C70 1.500 . S
C807 C184 1.502 . S
C812 C316 1.423 . S
C823 C206 1.474 . S
C828 C338 1.452 . S
C839 C272 1.422 . S
C844 C228 1.503 . S
C855 C290 1.422 . S
C860 C246 1.502 . S
C871 C6 1.291 . S
C876 C317 1.274 . S
C887 C28 1.352 . S
C892 C339 1.270 . S
C903 C273 1.255 . S
C908 C50 1.350 . S
C919 C291 1.223 . S
C924 C73 1.315 . S
C935 C227 1.303 . S
C940 C93 1.298 . S
C951 C119 1.313 . S
C956 C248 1.320 . S
C967 C137 1.293 . S
C972 C183 1.252 . S
C983 C205 1.316 . S
C988 C159 1.308 . S
C999 C141 1.251 . S
C1004 C182 1.348 . S
C1015 C204 1.293 . S
C1020 C163 1.287 . S
C1031 C97 1.240 . S
C1036 C226 1.297 . S
C1047 C249 1.296 . S
C1052 C115 1.298 . S
C1063 C51 1.297 . S
C1068 C269 1.351 . S
C1079 C295 1.312 . S
C1084 C72 1.224 . S
C1095 C313 1.336 . S
C1100 C7 1.230 . S
C1111 C29 1.252 . S
C1116 C335 1.349 . S
