# Generated by pormake.
# Topology afi, (4)-cn, num edge types: 1
# Building blocks:
#     Node 0, Type 0, BuildingBlock: ICAMEG_clean_sbu_1, # of connection points: 4
#     Node 1, Type 0, BuildingBlock: ICAMEG_clean_sbu_1, # of connection points: 4
#     Node 2, Type 0, BuildingBlock: ICAMEG_clean_sbu_1, # of connection points: 4
#     Node 3, Type 0, BuildingBlock: ICAMEG_clean_sbu_1, # of connection points: 4
#     Node 4, Type 0, BuildingBlock: ICAMEG_clean_sbu_1, # of connection points: 4
#     Node 5, Type 0, BuildingBlock: ICAMEG_clean_sbu_1, # of connection points: 4
#     Node 6, Type 0, BuildingBlock: ICAMEG_clean_sbu_1, # of connection points: 4
#     Node 7, Type 0, BuildingBlock: ICAMEG_clean_sbu_1, # of connection points: 4
#     Node 8, Type 0, BuildingBlock: ICAMEG_clean_sbu_1, # of connection points: 4
#     Node 9, Type 0, BuildingBlock: ICAMEG_clean_sbu_1, # of connection points: 4
#     Node 10, Type 0, BuildingBlock: ICAMEG_clean_sbu_1, # of connection points: 4
#     Node 11, Type 0, BuildingBlock: ICAMEG_clean_sbu_1, # of connection points: 4
#     Node 12, Type 0, BuildingBlock: ICAMEG_clean_sbu_1, # of connection points: 4
#     Node 13, Type 0, BuildingBlock: ICAMEG_clean_sbu_1, # of connection points: 4
#     Node 14, Type 0, BuildingBlock: ICAMEG_clean_sbu_1, # of connection points: 4
#     Node 15, Type 0, BuildingBlock: ICAMEG_clean_sbu_1, # of connection points: 4
#     Node 16, Type 0, BuildingBlock: ICAMEG_clean_sbu_1, # of connection points: 4
#     Node 17, Type 0, BuildingBlock: ICAMEG_clean_sbu_1, # of connection points: 4
#     Node 18, Type 0, BuildingBlock: ICAMEG_clean_sbu_1, # of connection points: 4
#     Node 19, Type 0, BuildingBlock: ICAMEG_clean_sbu_1, # of connection points: 4
#     Node 20, Type 0, BuildingBlock: ICAMEG_clean_sbu_1, # of connection points: 4
#     Node 21, Type 0, BuildingBlock: ICAMEG_clean_sbu_1, # of connection points: 4
#     Node 22, Type 0, BuildingBlock: ICAMEG_clean_sbu_1, # of connection points: 4
#     Node 23, Type 0, BuildingBlock: ICAMEG_clean_sbu_1, # of connection points: 4
#     Edge 24, Type (0, 0), BuildingBlock: XIVTED_clean_linker_0, # of connection points: 2
#     Edge 25, Type (0, 0), BuildingBlock: XIVTED_clean_linker_0, # of connection points: 2
#     Edge 26, Type (0, 0), BuildingBlock: XIVTED_clean_linker_0, # of connection points: 2
#     Edge 27, Type (0, 0), BuildingBlock: XIVTED_clean_linker_0, # of connection points: 2
#     Edge 28, Type (0, 0), BuildingBlock: XIVTED_clean_linker_0, # of connection points: 2
#     Edge 29, Type (0, 0), BuildingBlock: XIVTED_clean_linker_0, # of connection points: 2
#     Edge 30, Type (0, 0), BuildingBlock: XIVTED_clean_linker_0, # of connection points: 2
#     Edge 31, Type (0, 0), BuildingBlock: XIVTED_clean_linker_0, # of connection points: 2
#     Edge 32, Type (0, 0), BuildingBlock: XIVTED_clean_linker_0, # of connection points: 2
#     Edge 33, Type (0, 0), BuildingBlock: XIVTED_clean_linker_0, # of connection points: 2
#     Edge 34, Type (0, 0), BuildingBlock: XIVTED_clean_linker_0, # of connection points: 2
#     Edge 35, Type (0, 0), BuildingBlock: XIVTED_clean_linker_0, # of connection points: 2
#     Edge 36, Type (0, 0), BuildingBlock: XIVTED_clean_linker_0, # of connection points: 2
#     Edge 37, Type (0, 0), BuildingBlock: XIVTED_clean_linker_0, # of connection points: 2
#     Edge 38, Type (0, 0), BuildingBlock: XIVTED_clean_linker_0, # of connection points: 2
#     Edge 39, Type (0, 0), BuildingBlock: XIVTED_clean_linker_0, # of connection points: 2
#     Edge 40, Type (0, 0), BuildingBlock: XIVTED_clean_linker_0, # of connection points: 2
#     Edge 41, Type (0, 0), BuildingBlock: XIVTED_clean_linker_0, # of connection points: 2
#     Edge 42, Type (0, 0), BuildingBlock: XIVTED_clean_linker_0, # of connection points: 2
#     Edge 43, Type (0, 0), BuildingBlock: XIVTED_clean_linker_0, # of connection points: 2
#     Edge 44, Type (0, 0), BuildingBlock: XIVTED_clean_linker_0, # of connection points: 2
#     Edge 45, Type (0, 0), BuildingBlock: XIVTED_clean_linker_0, # of connection points: 2
#     Edge 46, Type (0, 0), BuildingBlock: XIVTED_clean_linker_0, # of connection points: 2
#     Edge 47, Type (0, 0), BuildingBlock: XIVTED_clean_linker_0, # of connection points: 2
#     Edge 48, Type (0, 0), BuildingBlock: XIVTED_clean_linker_0, # of connection points: 2
#     Edge 49, Type (0, 0), BuildingBlock: XIVTED_clean_linker_0, # of connection points: 2
#     Edge 50, Type (0, 0), BuildingBlock: XIVTED_clean_linker_0, # of connection points: 2
#     Edge 51, Type (0, 0), BuildingBlock: XIVTED_clean_linker_0, # of connection points: 2
#     Edge 52, Type (0, 0), BuildingBlock: XIVTED_clean_linker_0, # of connection points: 2
#     Edge 53, Type (0, 0), BuildingBlock: XIVTED_clean_linker_0, # of connection points: 2
#     Edge 54, Type (0, 0), BuildingBlock: XIVTED_clean_linker_0, # of connection points: 2
#     Edge 55, Type (0, 0), BuildingBlock: XIVTED_clean_linker_0, # of connection points: 2
#     Edge 56, Type (0, 0), BuildingBlock: XIVTED_clean_linker_0, # of connection points: 2
#     Edge 57, Type (0, 0), BuildingBlock: XIVTED_clean_linker_0, # of connection points: 2
#     Edge 58, Type (0, 0), BuildingBlock: XIVTED_clean_linker_0, # of connection points: 2
#     Edge 59, Type (0, 0), BuildingBlock: XIVTED_clean_linker_0, # of connection points: 2
#     Edge 60, Type (0, 0), BuildingBlock: XIVTED_clean_linker_0, # of connection points: 2
#     Edge 61, Type (0, 0), BuildingBlock: XIVTED_clean_linker_0, # of connection points: 2
#     Edge 62, Type (0, 0), BuildingBlock: XIVTED_clean_linker_0, # of connection points: 2
#     Edge 63, Type (0, 0), BuildingBlock: XIVTED_clean_linker_0, # of connection points: 2
#     Edge 64, Type (0, 0), BuildingBlock: XIVTED_clean_linker_0, # of connection points: 2
#     Edge 65, Type (0, 0), BuildingBlock: XIVTED_clean_linker_0, # of connection points: 2
#     Edge 66, Type (0, 0), BuildingBlock: XIVTED_clean_linker_0, # of connection points: 2
#     Edge 67, Type (0, 0), BuildingBlock: XIVTED_clean_linker_0, # of connection points: 2
#     Edge 68, Type (0, 0), BuildingBlock: XIVTED_clean_linker_0, # of connection points: 2
#     Edge 69, Type (0, 0), BuildingBlock: XIVTED_clean_linker_0, # of connection points: 2
#     Edge 70, Type (0, 0), BuildingBlock: XIVTED_clean_linker_0, # of connection points: 2
#     Edge 71, Type (0, 0), BuildingBlock: XIVTED_clean_linker_0, # of connection points: 2
# Relax obj value: 0.122
# Max RMSD: 0.173
# Mean RMSD: 0.173
data_MOF--net-afi--node1-ICAMEG_clean_sbu_1--edge1-XIVTED_clean_linker_0
_symmetry_space_group_name_H-M    P1
_symmetry_Int_Tables_number       1
_symmetry_cell_setting            triclinic
loop_
_symmetry_equiv_pos_as_xyz
'x, y, z'
_cell_length_a     70.66169
_cell_length_b     70.628801
_cell_length_c     44.43596
_cell_angle_alpha  89.983109
_cell_angle_beta   89.978796
_cell_angle_gamma 120.02903
loop_
_atom_site_label
_atom_site_type_symbol
_atom_site_fract_x
_atom_site_fract_y
_atom_site_fract_z
_atom_type_partial_charge
Co0 Co 0.46796 0.10647 0.16269 0.0
Co1 Co 0.45934 0.12693 0.22772 0.0
O2 O 0.46052 0.12627 0.18374 0.0
C3 C 0.43381 0.08685 0.11545 0.0
O4 O 0.42824 0.06773 0.12736 0.0
C5 C 0.48594 0.17412 0.24162 0.0
O6 O 0.49822 0.16903 0.25802 0.0
O7 O 0.48995 0.13269 0.2298 0.0
O8 O 0.48832 0.10862 0.19558 0.0
H9 H 0.47219 0.10884 0.3324 0.0
H10 H 0.47234 0.14543 0.13106 0.0
O11 O 0.44815 0.10428 0.12852 0.0
H12 H 0.546 0.15399 0.1288 0.0
H13 H 0.48802 0.07709 0.07211 0.0
H14 H 0.47194 0.0682 0.18085 0.0
H15 H 0.51535 0.12178 0.15285 0.0
H16 H 0.47931 0.10231 0.09898 0.0
O17 O 0.47027 0.15933 0.22611 0.0
H18 H 0.47303 0.10809 0.27695 0.0
H19 H 0.44359 0.14775 0.27233 0.0
H20 H 0.48061 0.04265 0.15486 0.0
H21 H 0.5025 0.17778 0.10643 0.0
H22 H 0.48872 0.04699 0.10008 0.0
H23 H 0.53965 0.18223 0.10523 0.0
O24 O 0.44354 0.08091 0.18386 0.0
H25 H 0.39948 0.13843 0.18723 0.0
H26 H 0.41711 0.09536 0.25739 0.0
H27 H 0.37906 0.0875 0.25328 0.0
H28 H 0.37005 0.10918 0.2181 0.0
H29 H 0.4373 0.14558 0.19178 0.0
H30 H 0.44248 0.14896 0.32774 0.0
H31 H 0.45684 0.12939 0.35816 0.0
O32 O 0.44813 0.09467 0.23049 0.0
C33 C 0.49758 0.12157 0.21762 0.0
C34 C 0.46588 0.11742 0.31939 0.0
C35 C 0.4492 0.13993 0.31678 0.0
N36 N 0.45834 0.12782 0.2714 0.0
C37 C 0.4663 0.11705 0.28798 0.0
C38 C 0.44987 0.13918 0.28541 0.0
C39 C 0.45726 0.12895 0.33383 0.0
C40 C 0.48842 0.14716 0.13042 0.0
N41 N 0.49201 0.13162 0.14317 0.0
C42 C 0.50545 0.16555 0.11654 0.0
C43 C 0.5263 0.16805 0.1159 0.0
C44 C 0.52988 0.15222 0.12913 0.0
C45 C 0.51246 0.13404 0.1428 0.0
C46 C 0.48452 0.07503 0.09598 0.0
C47 C 0.47546 0.07023 0.15702 0.0
C48 C 0.47957 0.08926 0.11133 0.0
N49 N 0.4751 0.08674 0.1415 0.0
C50 C 0.48036 0.0557 0.14242 0.0
C51 C 0.48491 0.05814 0.11169 0.0
C52 C 0.44037 0.07852 0.21228 0.0
C53 C 0.40321 0.12891 0.2027 0.0
C54 C 0.41332 0.10478 0.24188 0.0
C55 C 0.39174 0.1003 0.23973 0.0
C56 C 0.3867 0.11248 0.22001 0.0
N57 N 0.42945 0.12102 0.22496 0.0
C58 C 0.4246 0.13294 0.20545 0.0
Co59 Co 0.36332 0.47019 0.16782 0.0
Co60 Co 0.33881 0.46135 0.23732 0.0
O61 O 0.3371 0.46001 0.1931 0.0
C62 C 0.35163 0.43411 0.12462 0.0
O63 O 0.36779 0.43239 0.13621 0.0
C64 C 0.3113 0.48188 0.22528 0.0
O65 O 0.32394 0.4929 0.20258 0.0
O66 O 0.36081 0.4931 0.23578 0.0
O67 O 0.38146 0.49434 0.19666 0.0
H68 H 0.37806 0.48297 0.3366 0.0
H69 H 0.32242 0.46446 0.14108 0.0
O70 O 0.3458 0.44668 0.13718 0.0
H71 H 0.37701 0.54216 0.12508 0.0
H72 H 0.40564 0.49131 0.07025 0.0
H73 H 0.40947 0.48324 0.17996 0.0
H74 H 0.38727 0.5175 0.15023 0.0
H75 H 0.37285 0.47888 0.10185 0.0
O76 O 0.31473 0.46841 0.23992 0.0
H77 H 0.37526 0.48055 0.28128 0.0
H78 H 0.30595 0.44544 0.28711 0.0
H79 H 0.44269 0.49581 0.14918 0.0
H80 H 0.31151 0.48846 0.11536 0.0
H81 H 0.4409 0.49989 0.0939 0.0
H82 H 0.33889 0.52764 0.1073 0.0
O83 O 0.37117 0.45025 0.18989 0.0
H84 H 0.26874 0.39401 0.20845 0.0
H85 H 0.33576 0.42276 0.2696 0.0
H86 H 0.30892 0.3833 0.27068 0.0
H87 H 0.27508 0.36869 0.24003 0.0
H88 H 0.29616 0.43338 0.20781 0.0
H89 H 0.30801 0.44762 0.34249 0.0
H90 H 0.34426 0.46643 0.36761 0.0
O91 O 0.36266 0.4541 0.2372 0.0
C92 C 0.37817 0.50286 0.21995 0.0
C93 C 0.36216 0.47469 0.32593 0.0
C94 C 0.32285 0.45487 0.32923 0.0
N95 N 0.34047 0.46277 0.28095 0.0
C96 C 0.36047 0.47323 0.2946 0.0
C97 C 0.32179 0.45373 0.29785 0.0
C98 C 0.3432 0.46542 0.34331 0.0
C99 C 0.33448 0.48144 0.13743 0.0
N100 N 0.35548 0.48954 0.14715 0.0
C101 C 0.32818 0.49497 0.12295 0.0
C102 C 0.34354 0.51696 0.11848 0.0
C103 C 0.36492 0.52512 0.12848 0.0
C104 C 0.37062 0.51111 0.14289 0.0
C105 C 0.40664 0.48959 0.09431 0.0
C106 C 0.40855 0.48498 0.15592 0.0
C107 C 0.38811 0.48254 0.11234 0.0
N108 N 0.3892 0.48026 0.14276 0.0
C109 C 0.42742 0.49211 0.1386 0.0
C110 C 0.42641 0.4944 0.10759 0.0
C111 C 0.3719 0.4478 0.21829 0.0
C112 C 0.2834 0.40019 0.22195 0.0
C113 C 0.32114 0.41653 0.25606 0.0
C114 C 0.30597 0.39417 0.25684 0.0
C115 C 0.28698 0.38598 0.23965 0.0
N116 N 0.31748 0.43037 0.23871 0.0
C117 C 0.29894 0.42246 0.22173 0.0
Co118 Co 0.90087 0.36079 0.16112 0.0
Co119 Co 0.88418 0.33327 0.22796 0.0
O120 O 0.88374 0.33358 0.18384 0.0
C121 C 0.92286 0.34876 0.11441 0.0
O122 O 0.94138 0.36392 0.12608 0.0
C123 C 0.83559 0.30833 0.21863 0.0
O124 O 0.83681 0.32456 0.20266 0.0
O125 O 0.8752 0.35595 0.22945 0.0
O126 O 0.89705 0.37838 0.19328 0.0
H127 H 0.90237 0.36764 0.33066 0.0
H128 H 0.86353 0.3228 0.1318 0.0
O129 O 0.90486 0.3438 0.12754 0.0
H130 H 0.8458 0.38199 0.12785 0.0
H131 H 0.92364 0.40797 0.06794 0.0
H132 H 0.93652 0.40538 0.17652 0.0
H133 H 0.88033 0.38836 0.15056 0.0
H134 H 0.90185 0.37397 0.09679 0.0
O135 O 0.85286 0.3093 0.22893 0.0
H136 H 0.90208 0.36754 0.27518 0.0
H137 H 0.86633 0.29808 0.27462 0.0
H138 H 0.95863 0.43972 0.14854 0.0
H139 H 0.82891 0.3158 0.10859 0.0
H140 H 0.95227 0.44117 0.09383 0.0
H141 H 0.81984 0.34551 0.10655 0.0
O142 O 0.92814 0.36564 0.18164 0.0
H143 H 0.88004 0.26409 0.19102 0.0
H144 H 0.91899 0.32781 0.25803 0.0
H145 H 0.93081 0.3004 0.25539 0.0
H146 H 0.91123 0.26821 0.22178 0.0
H147 H 0.8689 0.29203 0.19413 0.0
H148 H 0.86606 0.29745 0.33009 0.0
H149 H 0.88426 0.33241 0.3585 0.0
O150 O 0.91564 0.3568 0.22888 0.0
C151 C 0.88478 0.37447 0.21622 0.0
C152 C 0.89442 0.3523 0.31854 0.0
C153 C 0.87402 0.3129 0.31822 0.0
N154 N 0.88427 0.33283 0.27164 0.0
C155 C 0.89423 0.35213 0.28711 0.0
C156 C 0.87416 0.31337 0.2868 0.0
C157 C 0.88424 0.33253 0.33415 0.0
C158 C 0.85979 0.33587 0.13074 0.0
N159 N 0.87403 0.35601 0.14229 0.0
C160 C 0.84013 0.33179 0.11768 0.0
C161 C 0.83503 0.34846 0.11659 0.0
C162 C 0.84958 0.36892 0.12854 0.0
C163 C 0.86909 0.37241 0.14144 0.0
C164 C 0.92656 0.40755 0.09177 0.0
C165 C 0.93361 0.40587 0.15275 0.0
C166 C 0.91427 0.38835 0.10824 0.0
N167 N 0.91787 0.38767 0.13837 0.0
C168 C 0.9462 0.42537 0.137 0.0
C169 C 0.94262 0.42617 0.10631 0.0
C170 C 0.93129 0.36594 0.21001 0.0
C171 C 0.88868 0.27802 0.20579 0.0
C172 C 0.91047 0.31393 0.24321 0.0
C173 C 0.91719 0.29842 0.24189 0.0
C174 C 0.90619 0.28035 0.22303 0.0
N175 N 0.89322 0.31148 0.22631 0.0
C176 C 0.88241 0.29386 0.20769 0.0
Co177 Co 0.5386 0.89576 0.16582 0.0
Co178 Co 0.5514 0.88003 0.23313 0.0
O179 O 0.54907 0.87873 0.18867 0.0
C180 C 0.57398 0.8967 0.12465 0.0
O181 O 0.57842 0.88469 0.14263 0.0
C182 C 0.52946 0.83136 0.22122 0.0
O183 O 0.51989 0.83291 0.1968 0.0
O184 O 0.5203 0.87247 0.23705 0.0
O185 O 0.51619 0.88988 0.19749 0.0
H186 H 0.5406 0.90229 0.33627 0.0
H187 H 0.5392 0.85692 0.13955 0.0
O188 O 0.56014 0.90239 0.1322 0.0
H189 H 0.46424 0.84269 0.124 0.0
H190 H 0.51749 0.92206 0.07301 0.0
H191 H 0.52598 0.92841 0.18331 0.0
H192 H 0.49166 0.87643 0.14899 0.0
H193 H 0.52969 0.89993 0.10091 0.0
O194 O 0.54227 0.84828 0.23631 0.0
H195 H 0.53821 0.90043 0.2809 0.0
H196 H 0.56932 0.86224 0.27909 0.0
H197 H 0.51346 0.95064 0.15629 0.0
H198 H 0.51256 0.82333 0.11377 0.0
H199 H 0.50916 0.94756 0.10074 0.0
H200 H 0.47465 0.81589 0.1059 0.0
O201 O 0.56037 0.92342 0.18645 0.0
H202 H 0.61247 0.87048 0.19269 0.0
H203 H 0.59376 0.91462 0.25916 0.0
H204 H 0.63231 0.92436 0.25357 0.0
H205 H 0.64187 0.90217 0.22021 0.0
H206 H 0.57413 0.86146 0.19871 0.0
H207 H 0.5719 0.86356 0.33444 0.0
H208 H 0.55755 0.88376 0.36342 0.0
O209 O 0.56083 0.9117 0.23304 0.0
C210 C 0.50955 0.87947 0.22227 0.0
C211 C 0.54696 0.89348 0.3239 0.0
C212 C 0.56451 0.87173 0.32287 0.0
N213 N 0.55372 0.88136 0.27672 0.0
C214 C 0.54569 0.8924 0.29253 0.0
C215 C 0.56296 0.87101 0.29151 0.0
C216 C 0.55646 0.88307 0.33911 0.0
C217 C 0.52301 0.85421 0.13577 0.0
N218 N 0.51727 0.869 0.14552 0.0
C219 C 0.50785 0.83495 0.12135 0.0
C220 C 0.48658 0.83075 0.11702 0.0
C221 C 0.48072 0.84576 0.1272 0.0
C222 C 0.49633 0.86483 0.14153 0.0
C223 C 0.51928 0.92353 0.09723 0.0
C224 C 0.524 0.92685 0.15916 0.0
C225 C 0.52627 0.9111 0.11316 0.0
N226 N 0.52844 0.91276 0.14379 0.0
C227 C 0.51697 0.93954 0.14397 0.0
C228 C 0.51459 0.93782 0.1128 0.0
C229 C 0.5655 0.92699 0.21424 0.0
C230 C 0.60851 0.88026 0.20733 0.0
C231 C 0.59779 0.90497 0.24444 0.0
C232 C 0.61964 0.91052 0.24145 0.0
C233 C 0.625 0.89805 0.22275 0.0
N234 N 0.5817 0.88746 0.22928 0.0
C235 C 0.58683 0.87518 0.21089 0.0
Co236 Co 0.63954 0.53517 0.15848 0.0
Co237 Co 0.67149 0.54482 0.22092 0.0
O238 O 0.66788 0.54304 0.17687 0.0
C239 C 0.67343 0.56724 0.11355 0.0
O240 O 0.69013 0.57082 0.13046 0.0
C241 C 0.69318 0.51885 0.23199 0.0
O242 O 0.67589 0.5056 0.24792 0.0
O243 O 0.64722 0.51395 0.22453 0.0
O244 O 0.62331 0.5151 0.19269 0.0
H245 H 0.64461 0.53246 0.32781 0.0
H246 H 0.67286 0.5291 0.12508 0.0
O247 O 0.65389 0.55466 0.12256 0.0
H248 H 0.60585 0.4569 0.12436 0.0
H249 H 0.58588 0.51589 0.07328 0.0
H250 H 0.59799 0.53016 0.18219 0.0
H251 H 0.60627 0.48823 0.14932 0.0
H252 H 0.6211 0.52466 0.09619 0.0
O253 O 0.69359 0.53473 0.21757 0.0
H254 H 0.64086 0.53101 0.27257 0.0
H255 H 0.70979 0.56183 0.26268 0.0
H256 H 0.56246 0.52126 0.16022 0.0
H257 H 0.67306 0.49833 0.09954 0.0
H258 H 0.55621 0.51405 0.10538 0.0
H259 H 0.63937 0.46185 0.09903 0.0
O260 O 0.63949 0.55985 0.18005 0.0
H261 H 0.74091 0.60533 0.17647 0.0
H262 H 0.68207 0.58714 0.25022 0.0
H263 H 0.71144 0.62546 0.24441 0.0
H264 H 0.74119 0.63476 0.2074 0.0
H265 H 0.71107 0.56724 0.18276 0.0
H266 H 0.71428 0.56353 0.31781 0.0
H267 H 0.68154 0.54881 0.35078 0.0
O268 O 0.64992 0.55532 0.22582 0.0
C269 C 0.628 0.50604 0.21392 0.0
C270 C 0.65901 0.53894 0.31368 0.0
C271 C 0.6981 0.55638 0.30807 0.0
N272 N 0.67507 0.54635 0.26439 0.0
C273 C 0.65698 0.53818 0.28238 0.0
C274 C 0.69546 0.55536 0.27687 0.0
C275 C 0.67973 0.54812 0.32656 0.0
C276 C 0.65802 0.51348 0.12456 0.0
N277 N 0.63944 0.51075 0.13806 0.0
C278 C 0.65828 0.49601 0.11023 0.0
C279 C 0.63939 0.47554 0.11001 0.0
C280 C 0.62059 0.47275 0.1242 0.0
C281 C 0.62094 0.4906 0.13829 0.0
C282 C 0.58839 0.51897 0.09721 0.0
C283 C 0.59539 0.52693 0.15834 0.0
C284 C 0.60833 0.524 0.11032 0.0
N285 N 0.61159 0.5278 0.14057 0.0
C286 C 0.57524 0.52195 0.14601 0.0
C287 C 0.57175 0.51793 0.11523 0.0
C288 C 0.64096 0.56299 0.20847 0.0
C289 C 0.72805 0.60149 0.1927 0.0
C290 C 0.69484 0.59106 0.23387 0.0
C291 C 0.71149 0.61279 0.23078 0.0
C292 C 0.72819 0.61799 0.21003 0.0
N293 N 0.69485 0.57495 0.21682 0.0
C294 C 0.71114 0.57994 0.19641 0.0
Co295 Co 0.10956 0.64594 0.16303 0.0
Co296 Co 0.12392 0.67646 0.22868 0.0
O297 O 0.12502 0.67421 0.18444 0.0
C298 C 0.10566 0.67767 0.1196 0.0
O299 O 0.11702 0.69486 0.13672 0.0
C300 C 0.17266 0.70229 0.22072 0.0
O301 O 0.17213 0.68712 0.2031 0.0
O302 O 0.13363 0.65458 0.23449 0.0
O303 O 0.11768 0.63171 0.19553 0.0
H304 H 0.10453 0.6466 0.33388 0.0
H305 H 0.1472 0.68683 0.13731 0.0
O306 O 0.10103 0.65865 0.12847 0.0
H307 H 0.16605 0.62926 0.12149 0.0
H308 H 0.08521 0.59584 0.0728 0.0
H309 H 0.08007 0.60038 0.18297 0.0
H310 H 0.13137 0.62063 0.14576 0.0
H311 H 0.10548 0.63131 0.09877 0.0
O312 O 0.15502 0.70085 0.23037 0.0
H313 H 0.10608 0.64431 0.27865 0.0
H314 H 0.13934 0.71359 0.27209 0.0
H315 H 0.0598 0.56452 0.15789 0.0
H316 H 0.18175 0.69605 0.11249 0.0
H317 H 0.06228 0.56209 0.10241 0.0
H318 H 0.19152 0.6672 0.10442 0.0
O319 O 0.08137 0.63828 0.18395 0.0
H320 H 0.12775 0.74347 0.18354 0.0
H321 H 0.08732 0.68162 0.2532 0.0
H322 H 0.07467 0.70805 0.24522 0.0
H323 H 0.09498 0.73929 0.21024 0.0
H324 H 0.13971 0.71651 0.19197 0.0
H325 H 0.13826 0.71663 0.32725 0.0
H326 H 0.1207 0.68297 0.35855 0.0
O327 O 0.09299 0.65257 0.22971 0.0
C328 C 0.12819 0.63686 0.22033 0.0
C329 C 0.11223 0.66139 0.32049 0.0
C330 C 0.13116 0.70069 0.31677 0.0
N331 N 0.1228 0.67878 0.27212 0.0
C332 C 0.11316 0.6602 0.2892 0.0
C333 C 0.13178 0.69886 0.28554 0.0
C334 C 0.12131 0.6818 0.33432 0.0
C335 C 0.15091 0.67401 0.13351 0.0
N336 N 0.13682 0.65306 0.14264 0.0
C337 C 0.17071 0.67941 0.11959 0.0
C338 C 0.17622 0.66324 0.11514 0.0
C339 C 0.16195 0.64197 0.12472 0.0
C340 C 0.1423 0.6372 0.13857 0.0
C341 C 0.08401 0.59668 0.09699 0.0
C342 C 0.08137 0.59945 0.15884 0.0
C343 C 0.09536 0.61675 0.11183 0.0
N344 N 0.09407 0.61794 0.14243 0.0
C345 C 0.06979 0.5791 0.14475 0.0
C346 C 0.07116 0.57775 0.11362 0.0
C347 C 0.07783 0.64039 0.2116 0.0
C348 C 0.11878 0.72995 0.19888 0.0
C349 C 0.09616 0.69508 0.23777 0.0
C350 C 0.08897 0.71004 0.23344 0.0
C351 C 0.10038 0.72758 0.21383 0.0
N352 N 0.11425 0.69753 0.22304 0.0
C353 C 0.12551 0.71467 0.20379 0.0
Co354 Co 0.90159 0.53513 0.35512 0.0
Co355 Co 0.87854 0.5438 0.29279 0.0
O356 O 0.88067 0.54244 0.33684 0.0
C357 C 0.89897 0.56672 0.40003 0.0
O358 O 0.88545 0.56976 0.38321 0.0
C359 C 0.8308 0.51743 0.28252 0.0
O360 O 0.83478 0.50399 0.26701 0.0
O361 O 0.87216 0.51299 0.28983 0.0
O362 O 0.89791 0.51501 0.32106 0.0
H363 H 0.89247 0.53052 0.18608 0.0
H364 H 0.86186 0.52828 0.38856 0.0
O365 O 0.90652 0.55467 0.39091 0.0
H366 H 0.85854 0.45695 0.39029 0.0
H367 H 0.93725 0.5173 0.44023 0.0
H368 H 0.93841 0.5307 0.33116 0.0
H369 H 0.88894 0.48852 0.36488 0.0
H370 H 0.9102 0.52529 0.41745 0.0
O371 O 0.84633 0.53355 0.29648 0.0
H372 H 0.89518 0.52966 0.24133 0.0
H373 H 0.85676 0.56016 0.25082 0.0
H374 H 0.96561 0.52257 0.35299 0.0
H375 H 0.83141 0.49728 0.41454 0.0
H376 H 0.96516 0.5158 0.40792 0.0
H377 H 0.82955 0.46124 0.41556 0.0
O378 O 0.92596 0.55996 0.33315 0.0
H379 H 0.86953 0.60445 0.33633 0.0
H380 H 0.90983 0.58591 0.26252 0.0
H381 H 0.91858 0.6242 0.26763 0.0
H382 H 0.89831 0.63368 0.30468 0.0
H383 H 0.86146 0.56638 0.33071 0.0
H384 H 0.85356 0.56126 0.19568 0.0
H385 H 0.87153 0.5464 0.1629 0.0
O386 O 0.91062 0.55449 0.28753 0.0
C387 C 0.88385 0.50547 0.30031 0.0
C388 C 0.88458 0.53706 0.20012 0.0
C389 C 0.86274 0.55431 0.20551 0.0
N390 N 0.87617 0.54487 0.24932 0.0
C391 C 0.88606 0.53662 0.23143 0.0
C392 C 0.86459 0.55362 0.23672 0.0
C393 C 0.87283 0.54597 0.18713 0.0
C394 C 0.86152 0.51288 0.38932 0.0
N395 N 0.87762 0.51053 0.37588 0.0
C396 C 0.84406 0.49526 0.40389 0.0
C397 C 0.843 0.47503 0.4044 0.0
C398 C 0.85926 0.47262 0.39024 0.0
C399 C 0.87647 0.4906 0.37591 0.0
C400 C 0.9376 0.5202 0.41626 0.0
C401 C 0.938 0.52767 0.35505 0.0
C402 C 0.92236 0.5248 0.40323 0.0
N403 N 0.92262 0.52836 0.37294 0.0
C404 C 0.9535 0.52312 0.3673 0.0
C405 C 0.95325 0.51935 0.39812 0.0
C406 C 0.92739 0.56269 0.30464 0.0
C407 C 0.87846 0.60053 0.32008 0.0
C408 C 0.90105 0.5899 0.27887 0.0
C409 C 0.90602 0.61161 0.28157 0.0
C410 C 0.89463 0.61692 0.30234 0.0
N411 N 0.88513 0.5739 0.29633 0.0
C412 C 0.87392 0.57899 0.31675 0.0
Co413 Co 0.3645 0.89859 0.35517 0.0
Co414 Co 0.33614 0.88057 0.28836 0.0
O415 O 0.33701 0.88014 0.3329 0.0
C416 C 0.32914 0.8973 0.39682 0.0
O417 O 0.31292 0.88477 0.37881 0.0
C418 C 0.30574 0.83257 0.30413 0.0
O419 O 0.31158 0.83546 0.33251 0.0
O420 O 0.3598 0.87318 0.28617 0.0
O421 O 0.38189 0.89411 0.3232 0.0
H422 H 0.37017 0.90098 0.18552 0.0
H423 H 0.32719 0.85911 0.38401 0.0
O424 O 0.3489 0.90401 0.38914 0.0
H425 H 0.39087 0.84896 0.39481 0.0
H426 H 0.41258 0.9275 0.447 0.0
H427 H 0.40872 0.93349 0.33687 0.0
H428 H 0.39455 0.88171 0.36982 0.0
H429 H 0.37842 0.90359 0.41971 0.0
O430 O 0.31389 0.84855 0.28577 0.0
H431 H 0.37017 0.90024 0.24099 0.0
H432 H 0.30087 0.86162 0.2418 0.0
H433 H 0.44328 0.95754 0.36328 0.0
H434 H 0.32286 0.82642 0.40972 0.0
H435 H 0.44537 0.95464 0.41875 0.0
H436 H 0.35483 0.82105 0.41522 0.0
O437 O 0.36822 0.92533 0.33421 0.0
H438 H 0.26541 0.87217 0.32688 0.0
H439 H 0.32804 0.91392 0.25899 0.0
H440 H 0.29913 0.92365 0.26238 0.0
H441 H 0.26747 0.90265 0.29643 0.0
H442 H 0.2948 0.86316 0.32303 0.0
H443 H 0.30015 0.86182 0.18634 0.0
H444 H 0.33497 0.88168 0.15781 0.0
O445 O 0.35819 0.91245 0.28749 0.0
C446 C 0.37806 0.8821 0.29999 0.0
C447 C 0.35488 0.89233 0.1977 0.0
C448 C 0.31559 0.87034 0.19815 0.0
N449 N 0.33555 0.88105 0.24467 0.0
C450 C 0.35477 0.89189 0.22912 0.0
C451 C 0.31611 0.87025 0.22957 0.0
C452 C 0.33513 0.88148 0.18216 0.0
C453 C 0.34129 0.85725 0.38665 0.0
N454 N 0.36117 0.87263 0.37558 0.0
C455 C 0.33869 0.83852 0.40109 0.0
C456 C 0.35661 0.83549 0.4041 0.0
C457 C 0.37681 0.85112 0.39263 0.0
C458 C 0.37877 0.86963 0.37833 0.0
C459 C 0.41189 0.9289 0.42282 0.0
C460 C 0.40952 0.93202 0.36099 0.0
C461 C 0.39255 0.91546 0.40723 0.0
N462 N 0.39157 0.91704 0.37666 0.0
C463 C 0.42912 0.94573 0.37583 0.0
C464 C 0.43028 0.94412 0.40696 0.0
C465 C 0.36738 0.92825 0.30601 0.0
C466 C 0.27907 0.88139 0.31187 0.0
C467 C 0.31438 0.90474 0.27397 0.0
C468 C 0.29802 0.9103 0.27573 0.0
C469 C 0.28026 0.89851 0.29482 0.0
N470 N 0.31305 0.88784 0.29064 0.0
C471 C 0.29573 0.87628 0.3095 0.0
Co472 Co 0.4675 0.36189 0.35576 0.0
Co473 Co 0.45661 0.3337 0.28963 0.0
O474 O 0.45756 0.33447 0.33371 0.0
C475 C 0.43383 0.34991 0.40309 0.0
O476 O 0.43017 0.36488 0.39146 0.0
C477 C 0.48064 0.30903 0.29852 0.0
O478 O 0.49624 0.32564 0.31324 0.0
O479 O 0.48824 0.35647 0.28776 0.0
O480 O 0.4886 0.37928 0.32312 0.0
H481 H 0.4723 0.36703 0.18622 0.0
H482 H 0.46764 0.3245 0.38581 0.0
O483 O 0.44687 0.34507 0.38975 0.0
H484 H 0.54426 0.38449 0.38836 0.0
H485 H 0.49213 0.41018 0.44779 0.0
H486 H 0.47583 0.40612 0.33933 0.0
H487 H 0.51564 0.39011 0.3656 0.0
H488 H 0.48005 0.3759 0.41975 0.0
O489 O 0.46399 0.30976 0.28919 0.0
H490 H 0.47271 0.36748 0.2417 0.0
H491 H 0.43914 0.29804 0.24369 0.0
H492 H 0.48792 0.44073 0.3665 0.0
H493 H 0.49573 0.31825 0.40908 0.0
H494 H 0.49615 0.44292 0.42115 0.0
H495 H 0.53437 0.34837 0.41042 0.0
O496 O 0.4447 0.36617 0.33517 0.0
H497 H 0.39183 0.26482 0.32804 0.0
H498 H 0.41615 0.32774 0.25953 0.0
H499 H 0.37695 0.30028 0.26272 0.0
H500 H 0.36457 0.26849 0.29709 0.0
H501 H 0.43088 0.29282 0.32436 0.0
H502 H 0.43855 0.29685 0.18824 0.0
H503 H 0.45513 0.33152 0.15911 0.0
O504 O 0.44858 0.35711 0.28818 0.0
C505 C 0.49703 0.37517 0.30045 0.0
C506 C 0.46499 0.35181 0.19866 0.0
C507 C 0.44607 0.31242 0.19979 0.0
N508 N 0.4559 0.33281 0.24596 0.0
C509 C 0.46514 0.35196 0.23009 0.0
C510 C 0.44653 0.31321 0.2312 0.0
C511 C 0.45537 0.33188 0.18346 0.0
C512 C 0.48438 0.33775 0.38655 0.0
N513 N 0.48993 0.3577 0.3746 0.0
C514 C 0.50023 0.33409 0.39965 0.0
C515 C 0.52191 0.35099 0.40035 0.0
C516 C 0.52747 0.37125 0.38797 0.0
C517 C 0.51119 0.37432 0.37505 0.0
C518 C 0.48861 0.40944 0.42398 0.0
C519 C 0.4794 0.40693 0.36309 0.0
C520 C 0.48176 0.39007 0.40797 0.0
N521 N 0.47724 0.38898 0.37788 0.0
C522 C 0.48624 0.42658 0.37836 0.0
C523 C 0.49085 0.4278 0.40902 0.0
C524 C 0.44186 0.36622 0.30675 0.0
C525 C 0.39703 0.27858 0.31294 0.0
C526 C 0.41089 0.31404 0.27468 0.0
C527 C 0.38867 0.29849 0.27632 0.0
C528 C 0.38174 0.28066 0.29559 0.0
N529 N 0.4258 0.31185 0.29169 0.0
C530 C 0.41912 0.29445 0.31072 0.0
Co531 Co 0.11354 0.47255 0.34906 0.0
Co532 Co 0.12918 0.46457 0.2792 0.0
O533 O 0.12997 0.46307 0.32339 0.0
C534 C 0.09051 0.43637 0.39259 0.0
O535 O 0.07223 0.43402 0.38149 0.0
C536 C 0.17728 0.48466 0.29121 0.0
O537 O 0.17568 0.49471 0.31508 0.0
O538 O 0.13857 0.49621 0.28131 0.0
O539 O 0.11842 0.49638 0.32016 0.0
H540 H 0.11036 0.48637 0.18094 0.0
H541 H 0.14973 0.46839 0.37553 0.0
O542 O 0.10864 0.44937 0.37968 0.0
H543 H 0.1705 0.54557 0.39065 0.0
H544 H 0.09205 0.49269 0.44715 0.0
H545 H 0.07914 0.48395 0.33768 0.0
H546 H 0.13575 0.51997 0.36586 0.0
H547 H 0.113 0.48124 0.41506 0.0
O548 O 0.16042 0.47204 0.27587 0.0
H549 H 0.11119 0.48363 0.23619 0.0
H550 H 0.14614 0.44936 0.22858 0.0
H551 H 0.05788 0.4955 0.36896 0.0
H552 H 0.18448 0.49335 0.40092 0.0
H553 H 0.06426 0.49991 0.42412 0.0
H554 H 0.1951 0.53227 0.40852 0.0
O555 O 0.08585 0.45186 0.32753 0.0
H556 H 0.13314 0.39766 0.30666 0.0
H557 H 0.09384 0.42591 0.2468 0.0
H558 H 0.08175 0.38657 0.24514 0.0
H559 H 0.10151 0.37222 0.27514 0.0
H560 H 0.14454 0.43688 0.30789 0.0
H561 H 0.14581 0.45189 0.17326 0.0
H562 H 0.12776 0.47043 0.14908 0.0
O563 O 0.09787 0.45682 0.27996 0.0
C564 C 0.13041 0.50542 0.29717 0.0
C565 C 0.11823 0.4782 0.19121 0.0
C566 C 0.13815 0.45887 0.1869 0.0
N567 N 0.12858 0.46623 0.23563 0.0
C568 C 0.11872 0.47656 0.22249 0.0
C569 C 0.13831 0.45754 0.21825 0.0
C570 C 0.12801 0.46927 0.17335 0.0
C571 C 0.15413 0.48525 0.37901 0.0
N572 N 0.14067 0.49268 0.36925 0.0
C573 C 0.17388 0.49933 0.39329 0.0
C574 C 0.17985 0.52117 0.39751 0.0
C575 C 0.16606 0.52865 0.38744 0.0
C576 C 0.14645 0.5141 0.37325 0.0
C577 C 0.08912 0.49082 0.42314 0.0
C578 C 0.08202 0.48584 0.36166 0.0
C579 C 0.10092 0.48434 0.40484 0.0
N580 N 0.09727 0.48187 0.37448 0.0
C581 C 0.06994 0.49239 0.37926 0.0
C582 C 0.07352 0.49487 0.41021 0.0
C583 C 0.08244 0.44965 0.29918 0.0
C584 C 0.12442 0.40372 0.29345 0.0
C585 C 0.10244 0.41978 0.26006 0.0
C586 C 0.09556 0.39749 0.25896 0.0
C587 C 0.10666 0.38946 0.27578 0.0
N588 N 0.11993 0.43368 0.27737 0.0
C589 C 0.13084 0.42591 0.294 0.0
Co590 Co 0.64432 0.10658 0.35349 0.0
Co591 Co 0.67318 0.1267 0.28816 0.0
O592 O 0.67153 0.12617 0.33219 0.0
C593 C 0.6587 0.08661 0.40035 0.0
O594 O 0.64506 0.06762 0.38821 0.0
C595 C 0.69424 0.17391 0.27399 0.0
O596 O 0.67693 0.16899 0.25754 0.0
O597 O 0.64846 0.13269 0.28615 0.0
O598 O 0.62613 0.10883 0.32071 0.0
H599 H 0.64189 0.10858 0.18368 0.0
H600 H 0.67921 0.14539 0.38494 0.0
O601 O 0.66192 0.10419 0.38757 0.0
H602 H 0.61457 0.15471 0.38742 0.0
H603 H 0.59514 0.07768 0.44443 0.0
H604 H 0.60184 0.06851 0.33565 0.0
H605 H 0.6126 0.12232 0.36343 0.0
H606 H 0.62908 0.10264 0.41731 0.0
O607 O 0.6949 0.15904 0.2896 0.0
H608 H 0.64047 0.10797 0.23914 0.0
H609 H 0.70964 0.14714 0.2433 0.0
H610 H 0.5676 0.04322 0.3619 0.0
H611 H 0.6818 0.17792 0.40951 0.0
H612 H 0.56408 0.04771 0.41669 0.0
H613 H 0.64932 0.18275 0.41082 0.0
O614 O 0.64289 0.08093 0.33237 0.0
H615 H 0.74444 0.13761 0.3282 0.0
H616 H 0.68332 0.09477 0.25857 0.0
H617 H 0.71328 0.08655 0.26253 0.0
H618 H 0.74418 0.10813 0.29744 0.0
H619 H 0.714 0.14512 0.3238 0.0
H620 H 0.71179 0.1482 0.18788 0.0
H621 H 0.67774 0.12881 0.15769 0.0
O622 O 0.65187 0.09447 0.28559 0.0
C623 C 0.62973 0.12157 0.29843 0.0
C624 C 0.65684 0.11709 0.19659 0.0
C625 C 0.69607 0.13932 0.19895 0.0
N626 N 0.67493 0.12747 0.24447 0.0
C627 C 0.65614 0.1168 0.22801 0.0
C628 C 0.69474 0.13865 0.23032 0.0
C629 C 0.67696 0.12844 0.18202 0.0
C630 C 0.66495 0.14729 0.38563 0.0
N631 N 0.64574 0.13187 0.37298 0.0
C632 C 0.66654 0.16578 0.39948 0.0
C633 C 0.64832 0.16849 0.40018 0.0
C634 C 0.62882 0.15277 0.38704 0.0
C635 C 0.62783 0.13449 0.3734 0.0
C636 C 0.59646 0.07556 0.42055 0.0
C637 C 0.60045 0.0706 0.35949 0.0
C638 C 0.61565 0.08964 0.40506 0.0
N639 N 0.61747 0.08705 0.37488 0.0
C640 C 0.58101 0.05622 0.37423 0.0
C641 C 0.57905 0.05875 0.40497 0.0
C642 C 0.64345 0.0784 0.30396 0.0
C643 C 0.7311 0.12814 0.31284 0.0
C644 C 0.69663 0.10415 0.27396 0.0
C645 C 0.71359 0.09946 0.27602 0.0
C646 C 0.73093 0.11158 0.2956 0.0
N647 N 0.69698 0.12051 0.29081 0.0
C648 C 0.71386 0.13237 0.31018 0.0
Co649 Co 0.54166 0.64451 0.35312 0.0
Co650 Co 0.5554 0.67328 0.28624 0.0
O651 O 0.55349 0.67227 0.33065 0.0
C652 C 0.57741 0.67756 0.39542 0.0
O653 O 0.58244 0.69462 0.37835 0.0
C654 C 0.53313 0.69954 0.29554 0.0
O655 O 0.51956 0.68511 0.31495 0.0
O656 O 0.52367 0.65133 0.28274 0.0
O657 O 0.51901 0.62897 0.32142 0.0
H658 H 0.54118 0.64042 0.18264 0.0
H659 H 0.54405 0.68521 0.3779 0.0
O660 O 0.56331 0.65834 0.3869 0.0
H661 H 0.46827 0.62662 0.3953 0.0
H662 H 0.51828 0.59641 0.44543 0.0
H663 H 0.52674 0.59878 0.33509 0.0
H664 H 0.49467 0.61854 0.37098 0.0
H665 H 0.53219 0.63118 0.41793 0.0
O666 O 0.5486 0.69759 0.2842 0.0
H667 H 0.53933 0.63972 0.23806 0.0
H668 H 0.57539 0.70915 0.24064 0.0
H669 H 0.51245 0.5636 0.36171 0.0
H670 H 0.51839 0.69393 0.40281 0.0
H671 H 0.50816 0.56226 0.41728 0.0
H672 H 0.48009 0.66456 0.41167 0.0
O673 O 0.56249 0.63738 0.33218 0.0
H674 H 0.62008 0.7413 0.32651 0.0
H675 H 0.59627 0.67788 0.25917 0.0
H676 H 0.63558 0.70448 0.2644 0.0
H677 H 0.64772 0.7365 0.29821 0.0
H678 H 0.5809 0.71417 0.3208 0.0
H679 H 0.5775 0.71059 0.18524 0.0
H680 H 0.56038 0.67605 0.15585 0.0
O681 O 0.56249 0.64934 0.28556 0.0
C682 C 0.51242 0.63351 0.29721 0.0
C683 C 0.54874 0.65558 0.19519 0.0
C684 C 0.56911 0.69496 0.19665 0.0
N685 N 0.55731 0.67436 0.24262 0.0
C686 C 0.54777 0.65529 0.22659 0.0
C687 C 0.56782 0.69404 0.22803 0.0
C688 C 0.5595 0.67558 0.18018 0.0
C689 C 0.52769 0.67217 0.38213 0.0
N690 N 0.52121 0.65123 0.37345 0.0
C691 C 0.51308 0.67728 0.39606 0.0
C692 C 0.49159 0.66083 0.40094 0.0
C693 C 0.48495 0.63956 0.39176 0.0
C694 C 0.50002 0.63508 0.37788 0.0
C695 C 0.52005 0.59677 0.4212 0.0
C696 C 0.52477 0.59832 0.35925 0.0
C697 C 0.52803 0.61644 0.4055 0.0
N698 N 0.53017 0.61702 0.37486 0.0
C699 C 0.51674 0.57835 0.37421 0.0
C700 C 0.51436 0.57762 0.4054 0.0
C701 C 0.56691 0.6384 0.30415 0.0
C702 C 0.615 0.72744 0.31167 0.0
C703 C 0.60141 0.69169 0.27408 0.0
C704 C 0.6237 0.70674 0.27686 0.0
C705 C 0.63049 0.72472 0.29581 0.0
N706 N 0.58631 0.69449 0.28968 0.0
C707 C 0.59284 0.71206 0.30831 0.0
Co708 Co 0.53937 0.89964 0.85712 0.0
Co709 Co 0.54825 0.87693 0.79446 0.0
O710 O 0.54594 0.87829 0.83848 0.0
C711 C 0.5699 0.89534 0.9021 0.0
O712 O 0.57264 0.88175 0.885 0.0
C713 C 0.52083 0.82981 0.78103 0.0
O714 O 0.50911 0.8353 0.76409 0.0
O715 O 0.51805 0.87207 0.79019 0.0
O716 O 0.52013 0.8973 0.8226 0.0
H717 H 0.53899 0.89428 0.68765 0.0
H718 H 0.53075 0.85909 0.88989 0.0
O719 O 0.55817 0.90332 0.89326 0.0
H720 H 0.46053 0.85806 0.88955 0.0
H721 H 0.52192 0.93522 0.94273 0.0
H722 H 0.53682 0.93772 0.83395 0.0
H723 H 0.49302 0.88827 0.86544 0.0
H724 H 0.52911 0.90775 0.91946 0.0
O725 O 0.53634 0.84435 0.79705 0.0
H726 H 0.53668 0.89578 0.74289 0.0
H727 H 0.56431 0.85477 0.7526 0.0
H728 H 0.52952 0.96537 0.85627 0.0
H729 H 0.49879 0.82879 0.91459 0.0
H730 H 0.522 0.96424 0.91105 0.0
H731 H 0.4633 0.82809 0.91455 0.0
O732 O 0.56502 0.9239 0.83634 0.0
H733 H 0.60536 0.86314 0.83983 0.0
H734 H 0.59169 0.90751 0.76677 0.0
H735 H 0.62917 0.91421 0.77355 0.0
H736 H 0.63619 0.89189 0.81022 0.0
H737 H 0.56814 0.85716 0.8326 0.0
H738 H 0.56685 0.85279 0.69747 0.0
H739 H 0.55415 0.87266 0.66459 0.0
O740 O 0.56047 0.90934 0.79033 0.0
C741 C 0.51087 0.88397 0.80097 0.0
C742 C 0.54458 0.88556 0.70174 0.0
C743 C 0.56022 0.86228 0.70725 0.0
N744 N 0.55037 0.87541 0.75099 0.0
C745 C 0.54332 0.88635 0.73304 0.0
C746 C 0.55874 0.86347 0.73845 0.0
C747 C 0.55309 0.87343 0.68881 0.0
C748 C 0.51557 0.85922 0.89017 0.0
N749 N 0.51403 0.87583 0.87685 0.0
C750 C 0.49742 0.84186 0.90403 0.0
C751 C 0.47751 0.84145 0.90394 0.0
C752 C 0.47594 0.85826 0.88993 0.0
C753 C 0.49443 0.87534 0.87633 0.0
C754 C 0.52515 0.93587 0.91883 0.0
C755 C 0.53345 0.93702 0.85777 0.0
C756 C 0.52929 0.92039 0.90552 0.0
N757 N 0.53327 0.92103 0.8753 0.0
C758 C 0.52938 0.95277 0.8703 0.0
C759 C 0.52518 0.95214 0.90104 0.0
C760 C 0.56859 0.92577 0.80804 0.0
C761 C 0.6025 0.87296 0.82375 0.0
C762 C 0.59462 0.89784 0.78297 0.0
C763 C 0.61587 0.90166 0.78661 0.0
C764 C 0.6198 0.88911 0.80716 0.0
N765 N 0.57772 0.88194 0.7993 0.0
C766 C 0.58146 0.8696 0.81951 0.0
Co767 Co 0.64623 0.53805 0.84766 0.0
Co768 Co 0.67691 0.55441 0.78196 0.0
O769 O 0.67448 0.55106 0.82621 0.0
C770 C 0.67774 0.57414 0.8905 0.0
O771 O 0.69488 0.58001 0.87325 0.0
C772 C 0.70198 0.53116 0.79196 0.0
O773 O 0.68702 0.51768 0.81089 0.0
O774 O 0.6548 0.52295 0.77599 0.0
O775 O 0.6323 0.51543 0.81558 0.0
H776 H 0.64768 0.54484 0.67656 0.0
H777 H 0.68731 0.54212 0.87401 0.0
O778 O 0.65872 0.55963 0.88183 0.0
H779 H 0.63046 0.4654 0.89014 0.0
H780 H 0.59627 0.51247 0.93808 0.0
H781 H 0.60056 0.5212 0.82775 0.0
H782 H 0.62151 0.49097 0.86504 0.0
H783 H 0.63172 0.52788 0.91201 0.0
O784 O 0.70079 0.54705 0.78056 0.0
H785 H 0.64506 0.54093 0.73178 0.0
H786 H 0.7143 0.57521 0.7388 0.0
H787 H 0.56472 0.50542 0.85293 0.0
H788 H 0.69683 0.51729 0.89966 0.0
H789 H 0.56242 0.50098 0.90849 0.0
H790 H 0.66835 0.47853 0.9079 0.0
O791 O 0.6381 0.55803 0.82621 0.0
H792 H 0.74436 0.617 0.82716 0.0
H793 H 0.68282 0.59645 0.7574 0.0
H794 H 0.70971 0.63543 0.76531 0.0
H795 H 0.74079 0.64593 0.80035 0.0
H796 H 0.71695 0.57819 0.81878 0.0
H797 H 0.71767 0.57937 0.68366 0.0
H798 H 0.6842 0.56419 0.65213 0.0
O799 O 0.65335 0.5619 0.78081 0.0
C800 C 0.63738 0.51037 0.79052 0.0
C801 C 0.66239 0.55155 0.69005 0.0
C802 C 0.70166 0.57092 0.69403 0.0
N803 N 0.67949 0.55788 0.73854 0.0
C804 C 0.66101 0.5494 0.72134 0.0
C805 C 0.69965 0.56847 0.72526 0.0
C806 C 0.68288 0.5624 0.67636 0.0
C807 C 0.67462 0.52554 0.87796 0.0
N808 N 0.65369 0.51833 0.86851 0.0
C809 C 0.6802 0.51141 0.89231 0.0
C810 C 0.66425 0.48966 0.89685 0.0
C811 C 0.64301 0.4823 0.88689 0.0
C812 C 0.63804 0.4969 0.87262 0.0
C813 C 0.59706 0.5143 0.91385 0.0
C814 C 0.59969 0.51918 0.85191 0.0
C815 C 0.61712 0.52313 0.89895 0.0
N816 N 0.61823 0.52535 0.86831 0.0
C817 C 0.57935 0.5103 0.86606 0.0
C818 C 0.57807 0.50784 0.89724 0.0
C819 C 0.64058 0.56412 0.79871 0.0
C820 C 0.73091 0.61264 0.8118 0.0
C821 C 0.69621 0.60088 0.77284 0.0
C822 C 0.71143 0.62298 0.77714 0.0
C823 C 0.72888 0.62886 0.79678 0.0
N824 N 0.69833 0.58507 0.78764 0.0
C825 C 0.71538 0.5907 0.80691 0.0
Co826 Co 0.11056 0.64398 0.85312 0.0
Co827 Co 0.1236 0.67364 0.78693 0.0
O828 O 0.12516 0.67204 0.83117 0.0
C829 C 0.10601 0.67556 0.8962 0.0
O830 O 0.11677 0.69268 0.87871 0.0
C831 C 0.17224 0.7005 0.79378 0.0
O832 O 0.17223 0.68545 0.81115 0.0
O833 O 0.13424 0.6525 0.78153 0.0
O834 O 0.11836 0.62967 0.82047 0.0
H835 H 0.10463 0.64241 0.68245 0.0
H836 H 0.1475 0.68529 0.87875 0.0
O837 O 0.10212 0.65668 0.88779 0.0
H838 H 0.16937 0.62965 0.89151 0.0
H839 H 0.08912 0.59505 0.94445 0.0
H840 H 0.08127 0.59802 0.83454 0.0
H841 H 0.13408 0.62 0.8683 0.0
H842 H 0.1082 0.63024 0.91748 0.0
O843 O 0.15433 0.69869 0.78467 0.0
H844 H 0.10654 0.64086 0.73771 0.0
H845 H 0.13744 0.71009 0.74268 0.0
H846 H 0.06215 0.56244 0.86061 0.0
H847 H 0.18267 0.69555 0.90251 0.0
H848 H 0.06599 0.56081 0.91597 0.0
H849 H 0.19394 0.66767 0.90904 0.0
O850 O 0.082 0.63555 0.83292 0.0
H851 H 0.12524 0.74004 0.8305 0.0
H852 H 0.08592 0.67695 0.76252 0.0
H853 H 0.07206 0.70246 0.76993 0.0
H854 H 0.0918 0.73432 0.80406 0.0
H855 H 0.13841 0.71398 0.82265 0.0
H856 H 0.13599 0.71239 0.68744 0.0
H857 H 0.11943 0.67837 0.65693 0.0
O858 O 0.093 0.64898 0.78656 0.0
C859 C 0.12877 0.63473 0.7956 0.0
C860 C 0.11187 0.65735 0.69549 0.0
C861 C 0.12948 0.69662 0.69829 0.0
N862 N 0.12208 0.67536 0.74345 0.0
C863 C 0.11299 0.65658 0.72681 0.0
C864 C 0.13031 0.69522 0.72957 0.0
C865 C 0.12019 0.67753 0.68119 0.0
C866 C 0.15189 0.67288 0.88193 0.0
N867 N 0.13829 0.65188 0.8726 0.0
C868 C 0.17203 0.67887 0.89522 0.0
C869 C 0.17837 0.66325 0.8988 0.0
C870 C 0.1646 0.64194 0.88897 0.0
C871 C 0.1446 0.63657 0.87575 0.0
C872 C 0.08733 0.59555 0.92032 0.0
C873 C 0.08316 0.59744 0.85861 0.0
C874 C 0.09802 0.61545 0.90491 0.0
N875 N 0.09596 0.6162 0.87439 0.0
C876 C 0.07223 0.57725 0.87326 0.0
C877 C 0.07437 0.57634 0.90432 0.0
C878 C 0.07815 0.63685 0.80513 0.0
C879 C 0.11651 0.72624 0.81553 0.0
C880 C 0.09452 0.69068 0.77758 0.0
C881 C 0.08664 0.70512 0.78159 0.0
C882 C 0.09774 0.72301 0.80072 0.0
N883 N 0.11297 0.69399 0.79216 0.0
C884 C 0.12392 0.71147 0.81095 0.0
Co885 Co 0.4674 0.10946 0.8465 0.0
Co886 Co 0.45981 0.12743 0.77856 0.0
O887 O 0.45953 0.12808 0.82283 0.0
C888 C 0.4327 0.08962 0.89276 0.0
O889 O 0.4278 0.07061 0.88113 0.0
C890 C 0.48263 0.17568 0.79147 0.0
O891 O 0.49233 0.1732 0.81508 0.0
O892 O 0.49098 0.13479 0.77911 0.0
O893 O 0.48865 0.11146 0.81505 0.0
H894 H 0.47671 0.10656 0.67818 0.0
H895 H 0.4695 0.14813 0.87582 0.0
O896 O 0.44664 0.10719 0.87947 0.0
H897 H 0.54448 0.16032 0.88152 0.0
H898 H 0.48773 0.08407 0.94095 0.0
H899 H 0.473 0.07155 0.83218 0.0
H900 H 0.51505 0.12694 0.85798 0.0
H901 H 0.4783 0.10767 0.91126 0.0
O902 O 0.46929 0.15925 0.77597 0.0
H903 H 0.47556 0.10745 0.73359 0.0
H904 H 0.44547 0.14653 0.72966 0.0
H905 H 0.48243 0.04761 0.86102 0.0
H906 H 0.49839 0.18157 0.90004 0.0
H907 H 0.48986 0.05378 0.91583 0.0
H908 H 0.53622 0.18788 0.9029 0.0
O909 O 0.44383 0.08294 0.82588 0.0
H910 H 0.39664 0.1364 0.81082 0.0
H911 H 0.4193 0.09406 0.74713 0.0
H912 H 0.38065 0.08457 0.74762 0.0
H913 H 0.36911 0.10587 0.77956 0.0
H914 H 0.43512 0.1452 0.80987 0.0
H915 H 0.44647 0.14621 0.67422 0.0
H916 H 0.46209 0.12604 0.6481 0.0
O917 O 0.44991 0.09545 0.77855 0.0
C918 C 0.49845 0.12408 0.79288 0.0
C919 C 0.46982 0.11537 0.6893 0.0
C920 C 0.45287 0.13764 0.68707 0.0
N921 N 0.46035 0.12693 0.73489 0.0
C922 C 0.46909 0.1159 0.72068 0.0
C923 C 0.4524 0.13781 0.71849 0.0
C924 C 0.46163 0.12631 0.67243 0.0
C925 C 0.48586 0.15063 0.87729 0.0
N926 N 0.49052 0.13553 0.86562 0.0
C927 C 0.50218 0.16965 0.89089 0.0
C928 C 0.52341 0.1732 0.89245 0.0
C929 C 0.52806 0.15776 0.88043 0.0
C930 C 0.51133 0.13892 0.86699 0.0
C931 C 0.48453 0.08121 0.91708 0.0
C932 C 0.47622 0.07437 0.856 0.0
C933 C 0.47918 0.09452 0.90014 0.0
N934 N 0.47507 0.091 0.86997 0.0
C935 C 0.48155 0.06075 0.87223 0.0
C936 C 0.48572 0.06422 0.90297 0.0
C937 C 0.44146 0.0798 0.7975 0.0
C938 C 0.40147 0.12703 0.79677 0.0
C939 C 0.4144 0.10333 0.76123 0.0
C940 C 0.39249 0.09792 0.76133 0.0
C941 C 0.38603 0.10988 0.77924 0.0
N942 N 0.42947 0.12022 0.7784 0.0
C943 C 0.42324 0.13197 0.79609 0.0
Co944 Co 0.36392 0.47008 0.85681 0.0
Co945 Co 0.33643 0.4574 0.78935 0.0
O946 O 0.33682 0.45833 0.83342 0.0
C947 C 0.35408 0.43576 0.90256 0.0
O948 O 0.37064 0.43444 0.89159 0.0
C949 C 0.31066 0.48001 0.79883 0.0
O950 O 0.32669 0.49503 0.81502 0.0
O951 O 0.3584 0.48921 0.78721 0.0
O952 O 0.3805 0.4932 0.82592 0.0
H953 H 0.37041 0.47374 0.68635 0.0
H954 H 0.32333 0.46441 0.88476 0.0
O955 O 0.34773 0.44762 0.88919 0.0
H956 H 0.37709 0.54292 0.89511 0.0
H957 H 0.40933 0.49567 0.9515 0.0
H958 H 0.40997 0.48405 0.84216 0.0
H959 H 0.38745 0.5179 0.87132 0.0
H960 H 0.3754 0.48117 0.92186 0.0
O961 O 0.31192 0.46391 0.78833 0.0
H962 H 0.37051 0.47429 0.74183 0.0
H963 H 0.30109 0.43887 0.74303 0.0
H964 H 0.44429 0.49866 0.87095 0.0
H965 H 0.31233 0.4888 0.90909 0.0
H966 H 0.44411 0.50454 0.92603 0.0
H967 H 0.33929 0.52838 0.91433 0.0
O968 O 0.37191 0.44992 0.8355 0.0
H969 H 0.26833 0.39138 0.82703 0.0
H970 H 0.33225 0.41741 0.76006 0.0
H971 H 0.30573 0.37792 0.76325 0.0
H972 H 0.27344 0.36468 0.79685 0.0
H973 H 0.29539 0.43074 0.82338 0.0
H974 H 0.30024 0.4381 0.68756 0.0
H975 H 0.33508 0.45555 0.65883 0.0
O976 O 0.36049 0.45049 0.7886 0.0
C977 C 0.37619 0.50016 0.80185 0.0
C978 C 0.35511 0.46604 0.69861 0.0
C979 C 0.31573 0.44607 0.69929 0.0
N980 N 0.33583 0.45654 0.74568 0.0
C981 C 0.35507 0.46626 0.73004 0.0
C982 C 0.31632 0.44661 0.73071 0.0
C983 C 0.33529 0.45585 0.68319 0.0
C984 C 0.33521 0.48159 0.88713 0.0
N985 N 0.35604 0.4897 0.87663 0.0
C986 C 0.32886 0.49533 0.90086 0.0
C987 C 0.34399 0.51754 0.90375 0.0
C988 C 0.36519 0.52571 0.89295 0.0
C989 C 0.37094 0.51148 0.87933 0.0
C990 C 0.40963 0.49318 0.92751 0.0
C991 C 0.40975 0.48657 0.86612 0.0
C992 C 0.39046 0.48495 0.9106 0.0
N993 N 0.39068 0.48171 0.88028 0.0
C994 C 0.42924 0.49485 0.8823 0.0
C995 C 0.42913 0.49814 0.91321 0.0
C996 C 0.37134 0.446 0.80729 0.0
C997 C 0.28231 0.39696 0.81227 0.0
C998 C 0.31832 0.41178 0.77487 0.0
C999 C 0.30332 0.3894 0.77651 0.0
C1000 C 0.2852 0.38198 0.79535 0.0
N1001 N 0.31532 0.42637 0.79145 0.0
C1002 C 0.29765 0.41922 0.81005 0.0
Co1003 Co 0.89944 0.35916 0.84787 0.0
Co1004 Co 0.88477 0.33371 0.77884 0.0
O1005 O 0.88422 0.33264 0.82303 0.0
C1006 C 0.92416 0.34864 0.89214 0.0
O1007 O 0.942 0.36525 0.88107 0.0
C1008 C 0.83686 0.30651 0.79066 0.0
O1009 O 0.83861 0.31994 0.8123 0.0
O1010 O 0.87458 0.35534 0.77906 0.0
O1011 O 0.8928 0.3765 0.81843 0.0
H1012 H 0.90233 0.37144 0.67837 0.0
H1013 H 0.8649 0.31782 0.87476 0.0
O1014 O 0.90588 0.34232 0.879 0.0
H1015 H 0.83934 0.37062 0.88889 0.0
H1016 H 0.91882 0.40206 0.94486 0.0
H1017 H 0.93147 0.40564 0.83533 0.0
H1018 H 0.87469 0.38187 0.86437 0.0
H1019 H 0.89954 0.36892 0.91361 0.0
O1020 O 0.85373 0.30932 0.77651 0.0
H1021 H 0.90175 0.36949 0.73379 0.0
H1022 H 0.86839 0.30009 0.73008 0.0
H1023 H 0.95104 0.4392 0.86576 0.0
H1024 H 0.82958 0.30594 0.89986 0.0
H1025 H 0.94479 0.43753 0.92094 0.0
H1026 H 0.81654 0.33241 0.90697 0.0
O1027 O 0.92764 0.36791 0.82622 0.0
H1028 H 0.88283 0.26452 0.81057 0.0
H1029 H 0.92087 0.3309 0.74796 0.0
H1030 H 0.93399 0.30446 0.74842 0.0
H1031 H 0.91488 0.27094 0.77981 0.0
H1032 H 0.87038 0.29153 0.80966 0.0
H1033 H 0.86847 0.3013 0.67462 0.0
H1034 H 0.88561 0.33717 0.64839 0.0
O1035 O 0.91573 0.35792 0.77895 0.0
C1036 C 0.8813 0.37267 0.7947 0.0
C1037 C 0.89487 0.35571 0.68953 0.0
C1038 C 0.87585 0.31635 0.68743 0.0
N1039 N 0.88518 0.33471 0.73518 0.0
C1040 C 0.89453 0.3545 0.72091 0.0
C1041 C 0.87581 0.31577 0.71885 0.0
C1042 C 0.88547 0.33648 0.67273 0.0
C1043 C 0.85944 0.3295 0.87801 0.0
N1044 N 0.8719 0.35054 0.86811 0.0
C1045 C 0.83938 0.32265 0.89213 0.0
C1046 C 0.83206 0.33749 0.89607 0.0
C1047 C 0.84482 0.35892 0.8859 0.0
C1048 C 0.86479 0.36518 0.87186 0.0
C1049 C 0.92169 0.403 0.92084 0.0
C1050 C 0.92865 0.40477 0.85933 0.0
C1051 C 0.91083 0.38428 0.90301 0.0
N1052 N 0.91441 0.3853 0.87264 0.0
C1053 C 0.93978 0.42383 0.87644 0.0
C1054 C 0.93626 0.42289 0.9074 0.0
C1055 C 0.93104 0.36823 0.79789 0.0
C1056 C 0.89127 0.27904 0.79675 0.0
C1057 C 0.91254 0.31642 0.76181 0.0
C1058 C 0.92 0.30147 0.7619 0.0
C1059 C 0.90926 0.28266 0.77951 0.0
N1060 N 0.89482 0.3127 0.7787 0.0
C1061 C 0.88426 0.29435 0.79609 0.0
Co1062 Co 0.11254 0.47319 0.65864 0.0
Co1063 Co 0.1306 0.46307 0.72552 0.0
O1064 O 0.13015 0.46376 0.68145 0.0
C1065 C 0.08905 0.43748 0.61435 0.0
O1066 O 0.07078 0.43475 0.62604 0.0
C1067 C 0.17772 0.48827 0.73991 0.0
O1068 O 0.17313 0.50112 0.75584 0.0
O1069 O 0.13756 0.49408 0.72719 0.0
O1070 O 0.11804 0.49633 0.68895 0.0
H1071 H 0.11304 0.478 0.82938 0.0
H1072 H 0.14869 0.47051 0.62894 0.0
O1073 O 0.10725 0.45068 0.62682 0.0
H1074 H 0.16686 0.54719 0.61665 0.0
H1075 H 0.08707 0.49391 0.56461 0.0
H1076 H 0.0782 0.4838 0.67455 0.0
H1077 H 0.13313 0.52065 0.64283 0.0
H1078 H 0.10946 0.48252 0.59352 0.0
O1079 O 0.16272 0.47276 0.72444 0.0
H1080 H 0.11261 0.47838 0.7739 0.0
H1081 H 0.14987 0.44632 0.77107 0.0
H1082 H 0.05552 0.49528 0.6465 0.0
H1083 H 0.18245 0.49643 0.60219 0.0
H1084 H 0.05987 0.50038 0.59111 0.0
H1085 H 0.19175 0.5351 0.59595 0.0
O1086 O 0.08561 0.45187 0.6813 0.0
H1087 H 0.13934 0.40096 0.68722 0.0
H1088 H 0.09753 0.42159 0.75533 0.0
H1089 H 0.08808 0.38299 0.75211 0.0
H1090 H 0.10913 0.37247 0.71797 0.0
H1091 H 0.14807 0.43936 0.69085 0.0
H1092 H 0.15073 0.44562 0.82653 0.0
H1093 H 0.13221 0.46154 0.85607 0.0
O1094 O 0.0988 0.45327 0.7277 0.0
C1095 C 0.12956 0.50402 0.71267 0.0
C1096 C 0.12116 0.471 0.81676 0.0
C1097 C 0.1423 0.45282 0.81516 0.0
N1098 N 0.13116 0.46235 0.76924 0.0
C1099 C 0.12096 0.47116 0.78534 0.0
C1100 C 0.14175 0.45326 0.78377 0.0
C1101 C 0.13191 0.46176 0.83172 0.0
C1102 C 0.15254 0.48727 0.62617 0.0
N1103 N 0.13889 0.49402 0.63739 0.0
C1104 C 0.17172 0.50189 0.61107 0.0
C1105 C 0.17694 0.52359 0.6076 0.0
C1106 C 0.163 0.53039 0.61924 0.0
C1107 C 0.14396 0.5153 0.6342 0.0
C1108 C 0.08502 0.49174 0.58873 0.0
C1109 C 0.0802 0.486 0.65046 0.0
C1110 C 0.09764 0.48527 0.60524 0.0
N1111 N 0.09512 0.48245 0.63573 0.0
C1112 C 0.06731 0.4925 0.63469 0.0
C1113 C 0.06976 0.49536 0.60362 0.0
C1114 C 0.08294 0.44781 0.70954 0.0
C1115 C 0.13009 0.40535 0.70224 0.0
C1116 C 0.10668 0.41714 0.74026 0.0
C1117 C 0.1013 0.39526 0.73862 0.0
C1118 C 0.11312 0.38937 0.71948 0.0
N1119 N 0.12343 0.43275 0.72342 0.0
C1120 C 0.13501 0.42707 0.70447 0.0
Co1121 Co 0.64788 0.10695 0.66981 0.0
Co1122 Co 0.67401 0.12476 0.73729 0.0
O1123 O 0.67467 0.12532 0.69305 0.0
C1124 C 0.66207 0.08687 0.62299 0.0
O1125 O 0.64773 0.06785 0.63441 0.0
C1126 C 0.70034 0.17292 0.72396 0.0
O1127 O 0.68835 0.17062 0.7002 0.0
O1128 O 0.65069 0.13277 0.73698 0.0
O1129 O 0.62905 0.10934 0.70163 0.0
H1130 H 0.63675 0.10471 0.83809 0.0
H1131 H 0.68453 0.14536 0.64003 0.0
O1132 O 0.66598 0.10442 0.63655 0.0
H1133 H 0.62231 0.15849 0.63546 0.0
H1134 H 0.60137 0.08197 0.57607 0.0
H1135 H 0.60423 0.06945 0.68474 0.0
H1136 H 0.6181 0.12497 0.65893 0.0
H1137 H 0.63476 0.10526 0.60527 0.0
O1138 O 0.69682 0.15643 0.73968 0.0
H1139 H 0.63849 0.10546 0.78265 0.0
H1140 H 0.70779 0.14342 0.78582 0.0
H1141 H 0.5705 0.04581 0.65639 0.0
H1142 H 0.68934 0.17892 0.61586 0.0
H1143 H 0.56892 0.05198 0.60164 0.0
H1144 H 0.65811 0.1857 0.61357 0.0
O1145 O 0.64472 0.08027 0.69031 0.0
H1146 H 0.74532 0.13213 0.70407 0.0
H1147 H 0.68055 0.09098 0.76869 0.0
H1148 H 0.70916 0.08073 0.7678 0.0
H1149 H 0.74188 0.10143 0.73539 0.0
H1150 H 0.71617 0.14168 0.70542 0.0
H1151 H 0.70678 0.14322 0.84128 0.0
H1152 H 0.67107 0.12368 0.86779 0.0
O1153 O 0.65148 0.09293 0.73753 0.0
C1154 C 0.63237 0.12233 0.7235 0.0
C1155 C 0.65242 0.11323 0.8268 0.0
C1156 C 0.69171 0.13487 0.82859 0.0
N1157 N 0.67321 0.12436 0.78098 0.0
C1158 C 0.65351 0.11369 0.7954 0.0
C1159 C 0.69217 0.13497 0.79717 0.0
C1160 C 0.67167 0.1239 0.84345 0.0
C1161 C 0.67079 0.14806 0.63881 0.0
N1162 N 0.65104 0.13315 0.65077 0.0
C1163 C 0.67364 0.16715 0.62523 0.0
C1164 C 0.65612 0.17097 0.624 0.0
C1165 C 0.63604 0.15572 0.63631 0.0
C1166 C 0.63379 0.1368 0.6497 0.0
C1167 C 0.60185 0.07911 0.59992 0.0
C1168 C 0.60369 0.07226 0.66093 0.0
C1169 C 0.62072 0.09225 0.61659 0.0
N1170 N 0.62149 0.08872 0.64672 0.0
C1171 C 0.58453 0.05882 0.64499 0.0
C1172 C 0.58365 0.06229 0.61428 0.0
C1173 C 0.64408 0.07721 0.71871 0.0
C1174 C 0.73116 0.12301 0.71832 0.0
C1175 C 0.69466 0.09998 0.75439 0.0
C1176 C 0.71085 0.09414 0.75405 0.0
C1177 C 0.72921 0.10577 0.73588 0.0
N1178 N 0.69673 0.11696 0.73717 0.0
C1179 C 0.71464 0.12838 0.71923 0.0
Co1180 Co 0.53584 0.64095 0.65932 0.0
Co1181 Co 0.54906 0.67056 0.72515 0.0
O1182 O 0.54737 0.6689 0.68089 0.0
C1183 C 0.57204 0.67409 0.6179 0.0
O1184 O 0.57714 0.69067 0.63595 0.0
C1185 C 0.52585 0.69605 0.7169 0.0
O1186 O 0.50956 0.67924 0.70344 0.0
O1187 O 0.51731 0.6487 0.72861 0.0
O1188 O 0.51327 0.62557 0.6913 0.0
H1189 H 0.5341 0.63968 0.83001 0.0
H1190 H 0.53798 0.68085 0.63218 0.0
O1191 O 0.5575 0.65474 0.62538 0.0
H1192 H 0.46197 0.62178 0.61783 0.0
H1193 H 0.51279 0.5917 0.56833 0.0
H1194 H 0.52165 0.59561 0.67863 0.0
H1195 H 0.48869 0.61441 0.64278 0.0
H1196 H 0.52634 0.62677 0.59492 0.0
O1197 O 0.54272 0.69525 0.725 0.0
H1198 H 0.53269 0.63791 0.7746 0.0
H1199 H 0.56868 0.70726 0.76944 0.0
H1200 H 0.50777 0.56015 0.65294 0.0
H1201 H 0.51196 0.68884 0.60672 0.0
H1202 H 0.50328 0.55804 0.5974 0.0
H1203 H 0.47356 0.65922 0.59936 0.0
O1204 O 0.5569 0.63457 0.681 0.0
H1205 H 0.6145 0.73792 0.68458 0.0
H1206 H 0.58949 0.6751 0.75346 0.0
H1207 H 0.62892 0.70142 0.74872 0.0
H1208 H 0.64166 0.73315 0.71414 0.0
H1209 H 0.57522 0.71107 0.68979 0.0
H1210 H 0.57032 0.70978 0.82481 0.0
H1211 H 0.55302 0.67581 0.85549 0.0
O1212 O 0.55584 0.64637 0.7274 0.0
C1213 C 0.50639 0.63047 0.71494 0.0
C1214 C 0.54174 0.6546 0.81689 0.0
C1215 C 0.56204 0.69393 0.81397 0.0
N1216 N 0.55065 0.67245 0.76876 0.0
C1217 C 0.54103 0.6537 0.78549 0.0
C1218 C 0.561 0.69241 0.78261 0.0
C1219 C 0.55234 0.67487 0.83117 0.0
C1220 C 0.52153 0.66771 0.6287 0.0
N1221 N 0.51515 0.64703 0.63851 0.0
C1222 C 0.50675 0.67241 0.61441 0.0
C1223 C 0.4852 0.65581 0.61036 0.0
C1224 C 0.47869 0.63482 0.62072 0.0
C1225 C 0.49393 0.63074 0.63491 0.0
C1226 C 0.51465 0.59241 0.59255 0.0
C1227 C 0.5196 0.59481 0.65447 0.0
C1228 C 0.52241 0.61224 0.60774 0.0
N1229 N 0.52468 0.61324 0.63836 0.0
C1230 C 0.5118 0.57469 0.64004 0.0
C1231 C 0.50931 0.57353 0.60887 0.0
C1232 C 0.5607 0.63552 0.70924 0.0
C1233 C 0.60916 0.72417 0.69974 0.0
C1234 C 0.5949 0.68876 0.73818 0.0
C1235 C 0.61725 0.70367 0.73569 0.0
C1236 C 0.62439 0.72147 0.7163 0.0
N1237 N 0.58006 0.69153 0.72185 0.0
C1238 C 0.58694 0.70895 0.70282 0.0
Co1239 Co 0.89642 0.53352 0.66453 0.0
Co1240 Co 0.8812 0.54665 0.73168 0.0
O1241 O 0.88045 0.54517 0.68722 0.0
C1242 C 0.8992 0.56966 0.62305 0.0
O1243 O 0.88749 0.5747 0.64073 0.0
C1244 C 0.83298 0.52554 0.72045 0.0
O1245 O 0.83404 0.51317 0.69925 0.0
O1246 O 0.87127 0.51489 0.7346 0.0
O1247 O 0.8893 0.51068 0.69598 0.0
H1248 H 0.89936 0.53143 0.83502 0.0
H1249 H 0.85844 0.53616 0.63908 0.0
O1250 O 0.90426 0.55541 0.63099 0.0
H1251 H 0.84101 0.46029 0.62186 0.0
H1252 H 0.92135 0.51081 0.57186 0.0
H1253 H 0.92733 0.51868 0.68225 0.0
H1254 H 0.87531 0.48654 0.64677 0.0
H1255 H 0.90036 0.52442 0.59962 0.0
O1256 O 0.85016 0.53988 0.73365 0.0
H1257 H 0.89855 0.5302 0.77957 0.0
H1258 H 0.86491 0.56596 0.77767 0.0
H1259 H 0.94838 0.50472 0.65537 0.0
H1260 H 0.82429 0.51067 0.61352 0.0
H1261 H 0.94548 0.50072 0.59977 0.0
H1262 H 0.81523 0.47232 0.60476 0.0
O1263 O 0.92427 0.55421 0.68575 0.0
H1264 H 0.87825 0.61189 0.69286 0.0
H1265 H 0.91743 0.58718 0.75949 0.0
H1266 H 0.93026 0.62658 0.75514 0.0
H1267 H 0.91059 0.63917 0.72169 0.0
H1268 H 0.86609 0.57263 0.69769 0.0
H1269 H 0.86523 0.56744 0.8331 0.0
H1270 H 0.88262 0.55015 0.86217 0.0
O1271 O 0.91218 0.55361 0.73248 0.0
C1272 C 0.87804 0.50386 0.72007 0.0
C1273 C 0.89179 0.53907 0.82261 0.0
C1274 C 0.87262 0.55926 0.82153 0.0
N1275 N 0.88182 0.54811 0.77534 0.0
C1276 C 0.89131 0.53847 0.79119 0.0
C1277 C 0.87245 0.55834 0.79013 0.0
C1278 C 0.88238 0.54957 0.83782 0.0
C1279 C 0.85508 0.51978 0.63487 0.0
N1280 N 0.86935 0.51318 0.64397 0.0
C1281 C 0.83548 0.50527 0.62059 0.0
C1282 C 0.83037 0.48375 0.61577 0.0
C1283 C 0.84481 0.47699 0.62537 0.0
C1284 C 0.86424 0.49197 0.63959 0.0
C1285 C 0.92273 0.51245 0.5961 0.0
C1286 C 0.92585 0.51685 0.65808 0.0
C1287 C 0.91095 0.52025 0.61195 0.0
N1288 N 0.9125 0.52224 0.6426 0.0
C1289 C 0.93787 0.50899 0.64297 0.0
C1290 C 0.93625 0.50678 0.61177 0.0
C1291 C 0.92756 0.55816 0.7139 0.0
C1292 C 0.88695 0.60661 0.70754 0.0
C1293 C 0.90886 0.59252 0.74473 0.0
C1294 C 0.91616 0.61486 0.74245 0.0
C1295 C 0.9051 0.62191 0.72369 0.0
N1296 N 0.89102 0.57762 0.72884 0.0
C1297 C 0.88011 0.58441 0.71041 0.0
Co1298 Co 0.36497 0.89896 0.66419 0.0
Co1299 Co 0.33542 0.87912 0.72919 0.0
O1300 O 0.33718 0.87901 0.68479 0.0
C1301 C 0.3298 0.89498 0.61977 0.0
O1302 O 0.31338 0.88182 0.63712 0.0
C1303 C 0.30574 0.83121 0.71231 0.0
O1304 O 0.31086 0.83463 0.68367 0.0
O1305 O 0.35966 0.87258 0.73203 0.0
O1306 O 0.38236 0.8968 0.69827 0.0
H1307 H 0.36748 0.89993 0.83303 0.0
H1308 H 0.3313 0.85847 0.63294 0.0
O1309 O 0.3495 0.90252 0.62839 0.0
H1310 H 0.39839 0.85354 0.63309 0.0
H1311 H 0.41594 0.93003 0.57544 0.0
H1312 H 0.40703 0.9367 0.68431 0.0
H1313 H 0.39819 0.88518 0.65596 0.0
H1314 H 0.38152 0.90437 0.60101 0.0
O1315 O 0.31399 0.84689 0.73111 0.0
H1316 H 0.36848 0.89956 0.77758 0.0
H1317 H 0.29946 0.85864 0.77466 0.0
H1318 H 0.44179 0.96257 0.65966 0.0
H1319 H 0.33086 0.82676 0.60948 0.0
H1320 H 0.44641 0.95933 0.60483 0.0
H1321 H 0.36458 0.82407 0.60946 0.0
O1322 O 0.3654 0.92453 0.68382 0.0
H1323 H 0.26469 0.86922 0.68802 0.0
H1324 H 0.32536 0.91107 0.75866 0.0
H1325 H 0.29574 0.91972 0.75444 0.0
H1326 H 0.26506 0.89866 0.719 0.0
H1327 H 0.29475 0.86129 0.69272 0.0
H1328 H 0.29775 0.85842 0.83008 0.0
H1329 H 0.33192 0.87926 0.85966 0.0
O1330 O 0.35672 0.91136 0.73063 0.0
C1331 C 0.3785 0.88369 0.72015 0.0
C1332 C 0.35247 0.89084 0.82039 0.0
C1333 C 0.31334 0.86753 0.81874 0.0
N1334 N 0.33405 0.87923 0.77285 0.0
C1335 C 0.35293 0.89061 0.78898 0.0
C1336 C 0.31442 0.86767 0.78735 0.0
C1337 C 0.33252 0.87922 0.83532 0.0
C1338 C 0.34613 0.85771 0.63267 0.0
N1339 N 0.3648 0.87397 0.64543 0.0
C1340 C 0.34575 0.83957 0.6195 0.0
C1341 C 0.36465 0.83804 0.61955 0.0
C1342 C 0.38361 0.85456 0.63281 0.0
C1343 C 0.38337 0.87245 0.64577 0.0
C1344 C 0.41413 0.93158 0.59936 0.0
C1345 C 0.40894 0.93508 0.66048 0.0
C1346 C 0.39465 0.91713 0.61396 0.0
N1347 N 0.39228 0.91892 0.6442 0.0
C1348 C 0.42865 0.94982 0.64663 0.0
C1349 C 0.43123 0.94802 0.61586 0.0
C1350 C 0.36467 0.92726 0.71207 0.0
C1351 C 0.27792 0.87845 0.70365 0.0
C1352 C 0.31212 0.90185 0.74311 0.0
C1353 C 0.29536 0.90681 0.74087 0.0
C1354 C 0.27815 0.89499 0.721 0.0
N1355 N 0.31172 0.88549 0.72616 0.0
C1356 C 0.29496 0.87394 0.70652 0.0
Co1357 Co 0.46999 0.36226 0.66817 0.0
Co1358 Co 0.46284 0.3388 0.73797 0.0
O1359 O 0.46043 0.33635 0.69388 0.0
C1360 C 0.43346 0.34955 0.62546 0.0
O1361 O 0.43148 0.36568 0.63668 0.0
C1362 C 0.48289 0.31102 0.72519 0.0
O1363 O 0.49352 0.32357 0.70224 0.0
O1364 O 0.49456 0.36056 0.73474 0.0
O1365 O 0.49436 0.381 0.69632 0.0
H1366 H 0.48726 0.37974 0.83579 0.0
H1367 H 0.46465 0.32137 0.64181 0.0
O1368 O 0.44626 0.34412 0.63819 0.0
H1369 H 0.54186 0.37672 0.62424 0.0
H1370 H 0.48951 0.40362 0.56981 0.0
H1371 H 0.48237 0.40837 0.67955 0.0
H1372 H 0.51711 0.38668 0.64974 0.0
H1373 H 0.47793 0.37122 0.60198 0.0
O1374 O 0.46975 0.31458 0.74044 0.0
H1375 H 0.48339 0.37599 0.78064 0.0
H1376 H 0.44808 0.30677 0.78876 0.0
H1377 H 0.49408 0.44119 0.6482 0.0
H1378 H 0.48876 0.31077 0.61576 0.0
H1379 H 0.49769 0.43894 0.5929 0.0
H1380 H 0.5277 0.33853 0.60691 0.0
O1381 O 0.4501 0.36995 0.69063 0.0
H1382 H 0.39457 0.2685 0.71273 0.0
H1383 H 0.42525 0.33653 0.77203 0.0
H1384 H 0.38581 0.30989 0.77514 0.0
H1385 H 0.37024 0.27554 0.74544 0.0
H1386 H 0.43393 0.29573 0.71006 0.0
H1387 H 0.45172 0.30978 0.84399 0.0
H1388 H 0.47135 0.34647 0.86787 0.0
O1389 O 0.45577 0.36285 0.73788 0.0
C1390 C 0.50373 0.37785 0.71871 0.0
C1391 C 0.47861 0.36366 0.82566 0.0
C1392 C 0.45869 0.3244 0.83026 0.0
N1393 N 0.4654 0.3412 0.78148 0.0
C1394 C 0.47633 0.36143 0.79444 0.0
C1395 C 0.45673 0.3228 0.79896 0.0
C1396 C 0.4697 0.34499 0.84365 0.0
C1397 C 0.48151 0.3336 0.63778 0.0
N1398 N 0.48941 0.35464 0.64724 0.0
C1399 C 0.49512 0.32747 0.62313 0.0
C1400 C 0.51697 0.34305 0.61822 0.0
C1401 C 0.52493 0.36447 0.62797 0.0
C1402 C 0.51085 0.36999 0.64256 0.0
C1403 C 0.48799 0.40481 0.59388 0.0
C1404 C 0.48389 0.40724 0.65551 0.0
C1405 C 0.48142 0.38651 0.61222 0.0
N1406 N 0.47939 0.38785 0.64266 0.0
C1407 C 0.49054 0.42589 0.63787 0.0
C1408 C 0.49257 0.42462 0.60685 0.0
C1409 C 0.44866 0.37147 0.71913 0.0
C1410 C 0.40117 0.28339 0.72583 0.0
C1411 C 0.41859 0.32169 0.75888 0.0
C1412 C 0.39625 0.30663 0.76082 0.0
C1413 C 0.38752 0.28736 0.74416 0.0
N1414 N 0.43188 0.31764 0.74093 0.0
C1415 C 0.42344 0.29883 0.72446 0.0
H1416 H 0.42171 0.03867 0.18319 0.0
H1417 H 0.38833 0.96803 0.33574 0.0
H1418 H 0.43199 0.06723 0.27186 0.0
H1419 H 0.37041 0.93998 0.24676 0.0
H1420 H 0.40546 0.00462 0.31301 0.0
H1421 H 0.40367 1.00232 0.20629 0.0
C1422 C 0.42009 0.03735 0.20745 0.0
C1423 C 0.42841 0.05615 0.22549 0.0
C1424 C 0.39771 0.9904 0.29853 0.0
C1425 C 0.40791 0.01447 0.2522 0.0
C1426 C 0.38794 0.9695 0.31152 0.0
C1427 C 0.37783 0.95078 0.29327 0.0
C1428 C 0.39749 0.99262 0.26705 0.0
C1429 C 0.37792 0.95381 0.26191 0.0
C1430 C 0.40981 0.01656 0.22067 0.0
C1431 C 0.42588 0.05329 0.25691 0.0
N1432 N 0.38759 0.97422 0.2499 0.0
N1433 N 0.41596 0.03293 0.26921 0.0
H1434 H 0.43328 0.36933 0.24745 0.0
H1435 H 0.38045 0.44452 0.27744 0.0
H1436 H 0.42681 0.39074 0.33598 0.0
H1437 H 0.38984 0.42603 0.18842 0.0
H1438 H 0.39744 0.42508 0.2989 0.0
H1439 H 0.4173 0.38967 0.22568 0.0
C1440 C 0.42845 0.37824 0.26246 0.0
C1441 C 0.43141 0.37818 0.29379 0.0
C1442 C 0.39587 0.42528 0.27468 0.0
C1443 C 0.41302 0.40178 0.26857 0.0
C1444 C 0.38613 0.43642 0.26226 0.0
C1445 C 0.38353 0.4369 0.23089 0.0
C1446 C 0.40315 0.41436 0.25578 0.0
C1447 C 0.39143 0.42613 0.21265 0.0
C1448 C 0.41934 0.38994 0.24985 0.0
C1449 C 0.42481 0.39018 0.31179 0.0
N1450 N 0.40079 0.41523 0.22538 0.0
N1451 N 0.41593 0.40147 0.29891 0.0
H1452 H 0.97029 0.39044 0.17966 0.0
H1453 H 0.04329 0.42742 0.33014 0.0
H1454 H 0.9438 0.36981 0.26905 0.0
H1455 H 0.06973 0.44538 0.24029 0.0
H1456 H 0.00649 0.40712 0.30842 0.0
H1457 H 0.00688 0.41133 0.20165 0.0
C1458 C 0.97212 0.3902 0.20383 0.0
C1459 C 0.95384 0.37824 0.22241 0.0
C1460 C 0.0204 0.41556 0.29351 0.0
C1461 C 0.99572 0.40228 0.24783 0.0
C1462 C 0.04141 0.4272 0.30594 0.0
C1463 C 0.05975 0.43809 0.28713 0.0
C1464 C 0.01768 0.41484 0.26205 0.0
C1465 C 0.05621 0.43719 0.25583 0.0
C1466 C 0.99303 0.40218 0.21642 0.0
C1467 C 0.95732 0.3787 0.25368 0.0
N1468 N 0.03569 0.42578 0.24436 0.0
N1469 N 0.97776 0.39049 0.26534 0.0
H1470 H 0.58171 0.96624 0.18344 0.0
H1471 H 0.62316 0.03889 0.33381 0.0
H1472 H 0.57621 0.93977 0.27276 0.0
H1473 H 0.63884 0.0666 0.24441 0.0
H1474 H 0.60439 1.00234 0.31152 0.0
H1475 H 0.60113 1.00323 0.20502 0.0
C1476 C 0.58455 0.96813 0.20748 0.0
C1477 C 0.57729 0.94974 0.22618 0.0
C1478 C 0.61201 0.01643 0.29678 0.0
C1479 C 0.5994 0.99199 0.25104 0.0
C1480 C 0.62277 0.03734 0.30954 0.0
C1481 C 0.6327 0.05595 0.29107 0.0
C1482 C 0.61098 0.01403 0.26528 0.0
C1483 C 0.6315 0.0528 0.25966 0.0
C1484 C 0.59566 0.98925 0.2198 0.0
C1485 C 0.58146 0.95331 0.25727 0.0
N1486 N 0.6208 0.0323 0.2478 0.0
N1487 N 0.59214 0.9739 0.26862 0.0
H1488 H 0.58417 0.61593 0.3341 0.0
H1489 H 0.61942 0.58158 0.18068 0.0
H1490 H 0.57418 0.63381 0.24499 0.0
H1491 H 0.63842 0.57077 0.26855 0.0
H1492 H 0.60128 0.59935 0.20459 0.0
H1493 H 0.6025 0.5976 0.31126 0.0
C1494 C 0.58575 0.616 0.30985 0.0
C1495 C 0.57763 0.62656 0.29158 0.0
C1496 C 0.60948 0.59316 0.21867 0.0
C1497 C 0.5985 0.60561 0.26532 0.0
C1498 C 0.6199 0.58302 0.20498 0.0
C1499 C 0.63058 0.57468 0.22251 0.0
C1500 C 0.60957 0.59494 0.25023 0.0
C1501 C 0.63046 0.57697 0.25401 0.0
C1502 C 0.59625 0.60558 0.29682 0.0
C1503 C 0.58018 0.62604 0.2602 0.0
N1504 N 0.6201 0.58682 0.26683 0.0
N1505 N 0.59031 0.6158 0.2482 0.0
H1506 H 0.06614 0.63795 0.27058 0.0
H1507 H 0.93714 0.56911 0.24429 0.0
H1508 H 0.03798 0.6154 0.18247 0.0
H1509 H 0.96785 0.58298 0.33175 0.0
H1510 H 0.97328 0.58737 0.2208 0.0
H1511 H 0.02995 0.61934 0.29241 0.0
C1512 C 0.05236 0.62907 0.25565 0.0
C1513 C 0.05532 0.62837 0.22441 0.0
C1514 C 0.97209 0.58641 0.2451 0.0
C1515 C 0.01324 0.60679 0.24982 0.0
C1516 C 0.95144 0.57605 0.25864 0.0
C1517 C 0.94933 0.5745 0.2902 0.0
C1518 C 0.99088 0.59546 0.26317 0.0
C1519 C 0.96855 0.58379 0.30742 0.0
C1520 C 0.03156 0.61835 0.26831 0.0
C1521 C 0.03657 0.61643 0.20659 0.0
N1522 N 0.98844 0.59386 0.2937 0.0
N1523 N 0.01631 0.60617 0.21954 0.0
H1524 H 0.57854 0.93649 0.74844 0.0
H1525 H 0.63887 0.06537 0.77797 0.0
H1526 H 0.58728 0.96576 0.83639 0.0
H1527 H 0.62539 0.03748 0.68866 0.0
H1528 H 0.62175 0.02891 0.79924 0.0
H1529 H 0.59736 0.97298 0.7261 0.0
C1530 C 0.58451 0.95055 0.76315 0.0
C1531 C 0.58125 0.94793 0.79448 0.0
C1532 C 0.62251 0.03067 0.77499 0.0
C1533 C 0.60283 0.9899 0.76878 0.0
C1534 C 0.63236 0.0516 0.76268 0.0
C1535 C 0.63367 0.05467 0.7313 0.0
C1536 C 0.6138 0.01241 0.75596 0.0
C1537 C 0.62481 0.03598 0.71293 0.0
C1538 C 0.59522 0.97141 0.75027 0.0
C1539 C 0.58939 0.96687 0.8122 0.0
N1540 N 0.61524 0.01563 0.72554 0.0
N1541 N 0.59974 0.98698 0.79911 0.0
H1542 H 0.63918 0.57488 0.73999 0.0
H1543 H 0.56528 0.62892 0.76885 0.0
H1544 H 0.6131 0.57583 0.82757 0.0
H1545 H 0.58012 0.61501 0.68009 0.0
H1546 H 0.58359 0.61082 0.79083 0.0
H1547 H 0.61886 0.59082 0.71828 0.0
C1548 C 0.62919 0.57842 0.75481 0.0
C1549 C 0.62799 0.57397 0.78588 0.0
C1550 C 0.58278 0.61162 0.76656 0.0
C1551 C 0.6045 0.59249 0.76068 0.0
C1552 C 0.57235 0.62204 0.75386 0.0
C1553 C 0.57119 0.62366 0.72239 0.0
C1554 C 0.59239 0.60283 0.74781 0.0
C1555 C 0.5806 0.61423 0.70438 0.0
C1556 C 0.61749 0.58751 0.74223 0.0
C1557 C 0.61462 0.57898 0.8036 0.0
N1558 N 0.59092 0.60436 0.71735 0.0
N1559 N 0.60348 0.58808 0.79077 0.0
H1560 H 0.96708 0.57552 0.68384 0.0
H1561 H 0.03908 0.61134 0.83534 0.0
H1562 H 0.93943 0.56421 0.77323 0.0
H1563 H 0.06579 0.63236 0.74614 0.0
H1564 H 1.00242 0.59088 0.813 0.0
H1565 H 1.00369 0.59339 0.70634 0.0
C1566 C 0.96865 0.57671 0.70811 0.0
C1567 C 0.95005 0.56844 0.72653 0.0
C1568 C 0.01638 0.59998 0.7984 0.0
C1569 C 0.99189 0.58879 0.7525 0.0
C1570 C 0.03731 0.61165 0.81117 0.0
C1571 C 0.05564 0.62377 0.79275 0.0
C1572 C 0.01381 0.6003 0.76699 0.0
C1573 C 0.05226 0.62343 0.76144 0.0
C1574 C 0.98955 0.58694 0.72098 0.0
C1575 C 0.95319 0.57042 0.75796 0.0
N1576 N 0.03186 0.61196 0.74965 0.0
N1577 N 0.97362 0.58037 0.76987 0.0
H1578 H 0.43462 0.06757 0.73833 0.0
H1579 H 0.36656 0.93914 0.77118 0.0
H1580 H 0.42061 0.04037 0.82808 0.0
H1581 H 0.38602 0.96679 0.68214 0.0
H1582 H 0.38447 0.97589 0.79222 0.0
H1583 H 0.41531 0.03086 0.71765 0.0
C1584 C 0.42744 0.0539 0.75382 0.0
C1585 C 0.4293 0.05722 0.78517 0.0
C1586 C 0.38479 0.97395 0.76809 0.0
C1587 C 0.407 0.01476 0.76123 0.0
C1588 C 0.3745 0.95291 0.75594 0.0
C1589 C 0.37472 0.94974 0.72469 0.0
C1590 C 0.39543 0.99211 0.74897 0.0
C1591 C 0.38535 0.96835 0.7063 0.0
C1592 C 0.4164 0.03286 0.74186 0.0
C1593 C 0.41961 0.03869 0.80384 0.0
N1594 N 0.39528 0.9887 0.71872 0.0
N1595 N 0.40888 0.01826 0.79158 0.0
H1596 H 0.37509 0.43781 0.74811 0.0
H1597 H 0.44592 0.38029 0.77844 0.0
H1598 H 0.39592 0.43103 0.83689 0.0
H1599 H 0.42793 0.39056 0.68957 0.0
H1600 H 0.42812 0.39898 0.80002 0.0
H1601 H 0.39451 0.42084 0.7267 0.0
C1602 C 0.38375 0.43278 0.76327 0.0
C1603 C 0.38369 0.43586 0.79459 0.0
C1604 C 0.42808 0.39722 0.77581 0.0
C1605 C 0.40621 0.41619 0.76969 0.0
C1606 C 0.43826 0.38649 0.76332 0.0
C1607 C 0.43839 0.38366 0.73195 0.0
C1608 C 0.41781 0.40525 0.75696 0.0
C1609 C 0.42823 0.39224 0.7138 0.0
C1610 C 0.39491 0.42306 0.75085 0.0
C1611 C 0.39539 0.42897 0.81271 0.0
N1612 N 0.4183 0.40257 0.72658 0.0
N1613 N 0.40612 0.41941 0.8 0.0
H1614 H 0.07153 0.43856 0.76894 0.0
H1615 H 0.94294 0.37592 0.73868 0.0
H1616 H 0.04309 0.43133 0.68068 0.0
H1617 H 0.97074 0.38969 0.82802 0.0
H1618 H 0.97942 0.39556 0.71745 0.0
H1619 H 0.03506 0.42021 0.7908 0.0
C1620 C 0.05765 0.43311 0.75402 0.0
C1621 C 0.06054 0.4365 0.72271 0.0
C1622 C 0.97763 0.39438 0.74169 0.0
C1623 C 0.01842 0.41533 0.74802 0.0
C1624 C 0.9567 0.38308 0.75399 0.0
C1625 C 0.95358 0.38097 0.78539 0.0
C1626 C 0.99586 0.4037 0.76074 0.0
C1627 C 0.97225 0.39082 0.80376 0.0
C1628 C 0.03676 0.42264 0.76667 0.0
C1629 C 0.04176 0.42907 0.70484 0.0
N1630 N 0.99259 0.40166 0.79115 0.0
N1631 N 0.02154 0.41879 0.71774 0.0
H1632 H 0.45886 0.18807 0.21913 0.0
H1633 H 0.51402 0.30072 0.31185 0.0
H1634 H 0.51589 0.20903 0.27503 0.0
H1635 H 0.45182 0.27317 0.26631 0.0
H1636 H 0.51698 0.26901 0.29578 0.0
H1637 H 0.45856 0.22146 0.23224 0.0
C1638 C 0.47151 0.19981 0.23385 0.0
C1639 C 0.48737 0.19563 0.24607 0.0
C1640 C 0.50271 0.26998 0.28936 0.0
C1641 C 0.48696 0.23393 0.26155 0.0
C1642 C 0.50098 0.28804 0.29859 0.0
C1643 C 0.48265 0.28969 0.29047 0.0
C1644 C 0.48605 0.25354 0.27173 0.0
C1645 C 0.46629 0.27274 0.27315 0.0
C1646 C 0.47124 0.21885 0.24152 0.0
C1647 C 0.5033 0.2115 0.26513 0.0
N1648 N 0.46842 0.25549 0.26437 0.0
N1649 N 0.50262 0.22988 0.27241 0.0
H1650 H 0.18948 0.48148 0.23421 0.0
H1651 H 0.29429 0.47637 0.28166 0.0
H1652 H 0.21354 0.49451 0.32543 0.0
H1653 H 0.28719 0.49516 0.19183 0.0
H1654 H 0.26332 0.48012 0.298 0.0
H1655 H 0.22361 0.48375 0.21796 0.0
C1656 C 0.20201 0.48491 0.25083 0.0
C1657 C 0.19863 0.4877 0.28129 0.0
C1658 C 0.26863 0.48359 0.27478 0.0
C1659 C 0.23764 0.49004 0.26278 0.0
C1660 C 0.28622 0.48132 0.26534 0.0
C1661 C 0.29324 0.48532 0.23524 0.0
C1662 C 0.2576 0.48945 0.25387 0.0
C1663 C 0.2823 0.49192 0.21521 0.0
C1664 C 0.22152 0.48632 0.24147 0.0
C1665 C 0.2155 0.49229 0.30176 0.0
N1666 N 0.2648 0.49349 0.22479 0.0
N1667 N 0.23418 0.493 0.2922 0.0
H1668 H 0.73493 0.18783 0.29776 0.0
H1669 H 0.79415 0.2995 0.20272 0.0
H1670 H 0.69991 0.20868 0.23954 0.0
H1671 H 0.82801 0.27328 0.25331 0.0
H1672 H 0.75921 0.26793 0.21831 0.0
H1673 H 0.7689 0.22109 0.28509 0.0
C1674 C 0.73431 0.19952 0.2826 0.0
C1675 C 0.71447 0.19534 0.26964 0.0
C1676 C 0.77433 0.26915 0.22597 0.0
C1677 C 0.75352 0.23351 0.25466 0.0
C1678 C 0.79428 0.28714 0.21701 0.0
C1679 C 0.81412 0.28911 0.22665 0.0
C1680 C 0.77423 0.25308 0.24481 0.0
C1681 C 0.81322 0.27257 0.24525 0.0
C1682 C 0.75377 0.21849 0.2752 0.0
C1683 C 0.71479 0.21115 0.25004 0.0
N1684 N 0.79369 0.25536 0.2537 0.0
N1685 N 0.734 0.22946 0.24302 0.0
H1686 H 0.52894 0.81887 0.27918 0.0
H1687 H 0.54325 0.71825 0.24005 0.0
H1688 H 0.52242 0.79551 0.188 0.0
H1689 H 0.51523 0.72132 0.32489 0.0
H1690 H 0.53896 0.7484 0.2213 0.0
H1691 H 0.52677 0.7851 0.29727 0.0
C1692 C 0.52688 0.80652 0.26297 0.0
C1693 C 0.52591 0.80999 0.23201 0.0
C1694 C 0.53361 0.74239 0.24394 0.0
C1695 C 0.52385 0.77152 0.2526 0.0
C1696 C 0.53622 0.72531 0.25479 0.0
C1697 C 0.52976 0.71738 0.28422 0.0
C1698 C 0.52494 0.75205 0.26281 0.0
C1699 C 0.52045 0.72697 0.30211 0.0
C1700 C 0.52556 0.78724 0.27335 0.0
C1701 C 0.52314 0.79343 0.21203 0.0
N1702 N 0.51861 0.74405 0.29128 0.0
N1703 N 0.52258 0.77504 0.22264 0.0
H1704 H 0.73548 0.55226 0.22596 0.0
H1705 H 0.79148 0.482 0.26738 0.0
H1706 H 0.69729 0.4838 0.24874 0.0
H1707 H 0.82203 0.55101 0.28651 0.0
H1708 H 0.75776 0.48185 0.25382 0.0
H1709 H 0.76874 0.55164 0.23988 0.0
C1710 C 0.73411 0.537 0.23337 0.0
C1711 C 0.71356 0.51802 0.23613 0.0
C1712 C 0.7718 0.49697 0.26124 0.0
C1713 C 0.75153 0.51727 0.25221 0.0
C1714 C 0.79101 0.49706 0.26906 0.0
C1715 C 0.80955 0.51651 0.27827 0.0
C1716 C 0.77129 0.51658 0.2619 0.0
C1717 C 0.80806 0.53559 0.27984 0.0
C1718 C 0.75307 0.53674 0.24164 0.0
C1719 C 0.71278 0.4988 0.24628 0.0
N1720 N 0.78936 0.53521 0.27137 0.0
N1721 N 0.73149 0.49889 0.25384 0.0
H1722 H 0.2137 0.72183 0.19476 0.0
H1723 H 0.27279 0.79929 0.33666 0.0
H1724 H 0.17941 0.72325 0.27431 0.0
H1725 H 0.29799 0.81737 0.24636 0.0
H1726 H 0.24134 0.76604 0.31655 0.0
H1727 H 0.24771 0.75217 0.21577 0.0
C1728 C 0.21334 0.72844 0.21661 0.0
C1729 C 0.19364 0.72021 0.2326 0.0
C1730 C 0.25389 0.77723 0.30122 0.0
C1731 C 0.23234 0.75436 0.25695 0.0
C1732 C 0.27189 0.79611 0.3127 0.0
C1733 C 0.28795 0.81119 0.29315 0.0
C1734 C 0.25214 0.77322 0.27005 0.0
C1735 C 0.28587 0.80627 0.26222 0.0
C1736 C 0.23268 0.74571 0.22855 0.0
C1737 C 0.19411 0.72931 0.26092 0.0
N1738 N 0.26831 0.78773 0.25162 0.0
N1739 N 0.2131 0.74578 0.2722 0.0
H1740 H 0.4919 0.70405 0.70697 0.0
H1741 H 0.54865 0.81602 0.80121 0.0
H1742 H 0.55586 0.73226 0.74756 0.0
H1743 H 0.49017 0.7949 0.74845 0.0
H1744 H 0.54909 0.78299 0.78619 0.0
H1745 H 0.4891 0.73541 0.72504 0.0
C1746 C 0.50538 0.71683 0.71952 0.0
C1747 C 0.52414 0.71544 0.72571 0.0
C1748 C 0.53605 0.78548 0.77805 0.0
C1749 C 0.5209 0.75119 0.74681 0.0
C1750 C 0.53569 0.80429 0.78686 0.0
C1751 C 0.51939 0.80834 0.77602 0.0
C1752 C 0.51997 0.77051 0.75831 0.0
C1753 C 0.50311 0.79253 0.75729 0.0
C1754 C 0.50373 0.73469 0.72992 0.0
C1755 C 0.54105 0.73251 0.74221 0.0
N1756 N 0.50387 0.77439 0.74891 0.0
N1757 N 0.53899 0.74956 0.75221 0.0
H1758 H 0.71992 0.53933 0.73611 0.0
H1759 H 0.82171 0.52862 0.77778 0.0
H1760 H 0.72363 0.5138 0.82272 0.0
H1761 H 0.79627 0.51567 0.6873 0.0
H1762 H 0.7879 0.52656 0.79534 0.0
H1763 H 0.74982 0.53432 0.71811 0.0
C1764 C 0.72705 0.53266 0.75136 0.0
C1765 C 0.71943 0.52713 0.78107 0.0
C1766 C 0.78961 0.52393 0.77172 0.0
C1767 C 0.75378 0.52157 0.76059 0.0
C1768 C 0.80891 0.52522 0.76163 0.0
C1769 C 0.81177 0.52241 0.731 0.0
C1770 C 0.77326 0.52041 0.75093 0.0
C1771 C 0.79464 0.51789 0.71108 0.0
C1772 C 0.74398 0.52965 0.74096 0.0
C1773 C 0.72907 0.51829 0.7997 0.0
N1774 N 0.77622 0.51741 0.72131 0.0
N1775 N 0.74604 0.51611 0.7893 0.0
H1776 H 0.29985 0.81489 0.76933 0.0
H1777 H 0.17767 0.72267 0.74148 0.0
H1778 H 0.27152 0.79877 0.68049 0.0
H1779 H 0.21397 0.71934 0.81737 0.0
H1780 H 0.21131 0.75235 0.72051 0.0
H1781 H 0.26844 0.78152 0.78882 0.0
C1782 C 0.28713 0.80418 0.75384 0.0
C1783 C 0.28827 0.80965 0.7232 0.0
C1784 C 0.21198 0.7451 0.74168 0.0
C1785 C 0.25211 0.77167 0.74557 0.0
C1786 C 0.19272 0.72826 0.75388 0.0
C1787 C 0.19293 0.7186 0.78144 0.0
C1788 C 0.2317 0.75276 0.75732 0.0
C1789 C 0.21306 0.72636 0.79613 0.0
C1790 C 0.26924 0.78513 0.76501 0.0
C1791 C 0.27135 0.79516 0.7042 0.0
N1792 N 0.23164 0.74319 0.78406 0.0
N1793 N 0.2538 0.777 0.71578 0.0
H1794 H 0.49561 0.28704 0.69054 0.0
H1795 H 0.49403 0.21184 0.82677 0.0
H1796 H 0.47795 0.29364 0.78129 0.0
H1797 H 0.48019 0.18911 0.73496 0.0
H1798 H 0.49704 0.24659 0.81058 0.0
H1799 H 0.49874 0.25541 0.70684 0.0
C1800 C 0.4926 0.28197 0.71389 0.0
C1801 C 0.48628 0.2928 0.73451 0.0
C1802 C 0.49353 0.23401 0.79402 0.0
C1803 C 0.49017 0.25705 0.75334 0.0
C1804 C 0.49193 0.21428 0.80321 0.0
C1805 C 0.48666 0.19754 0.78223 0.0
C1806 C 0.49032 0.23712 0.76358 0.0
C1807 C 0.48402 0.20151 0.75194 0.0
C1808 C 0.49432 0.26393 0.72315 0.0
C1809 C 0.48258 0.28556 0.76454 0.0
N1810 N 0.4859 0.22087 0.74352 0.0
N1811 N 0.48461 0.26819 0.77307 0.0
H1812 H 0.19075 0.46025 0.71805 0.0
H1813 H 0.30188 0.51275 0.81395 0.0
H1814 H 0.21268 0.51758 0.77369 0.0
H1815 H 0.27568 0.45226 0.76428 0.0
H1816 H 0.2706 0.51625 0.79752 0.0
H1817 H 0.22355 0.45901 0.73177 0.0
C1818 C 0.20258 0.47276 0.73285 0.0
C1819 C 0.19886 0.48901 0.74479 0.0
C1820 C 0.27175 0.50223 0.79025 0.0
C1821 C 0.23645 0.48751 0.76097 0.0
C1822 C 0.28957 0.50019 0.79971 0.0
C1823 C 0.29147 0.48219 0.79053 0.0
C1824 C 0.25578 0.48619 0.77141 0.0
C1825 C 0.275 0.46644 0.77197 0.0
C1826 C 0.22128 0.47196 0.74085 0.0
C1827 C 0.21481 0.50472 0.76398 0.0
N1828 N 0.25794 0.46884 0.76303 0.0
N1829 N 0.23283 0.50351 0.7716 0.0
H1830 H 0.79932 0.28419 0.82431 0.0
H1831 H 0.72644 0.20841 0.68828 0.0
H1832 H 0.8252 0.28786 0.73519 0.0
H1833 H 0.71551 0.18659 0.78062 0.0
H1834 H 0.75872 0.24274 0.70447 0.0
H1835 H 0.76427 0.25304 0.80775 0.0
C1836 C 0.79757 0.27856 0.80126 0.0
C1837 C 0.81523 0.28843 0.78119 0.0
C1838 C 0.74907 0.23046 0.72113 0.0
C1839 C 0.77529 0.25329 0.76203 0.0
C1840 C 0.73065 0.21098 0.71194 0.0
C1841 C 0.71845 0.19461 0.7331 0.0
C1842 C 0.75496 0.2337 0.75173 0.0
C1843 C 0.72464 0.19871 0.76352 0.0
C1844 C 0.77765 0.26081 0.79186 0.0
C1845 C 0.81209 0.28052 0.75152 0.0
N1846 N 0.74243 0.21784 0.77193 0.0
N1847 N 0.79252 0.26348 0.74281 0.0
H1848 H 0.40568 0.05314 0.07884 0.0
H1849 H 0.44743 0.12574 0.92939 0.0
H1850 H 0.44858 0.12313 0.07916 0.0
H1851 H 0.40551 0.0556 0.92962 0.0
H1852 H 0.44348 0.12588 0.98406 0.0
H1853 H 0.40096 0.05453 0.02459 0.0
C1854 C 0.41384 0.06887 0.06764 0.0
C1855 C 0.42771 0.08801 0.08371 0.0
C1856 C 0.43488 0.11049 0.97211 0.0
C1857 C 0.42257 0.0897 0.02121 0.0
C1858 C 0.43702 0.1104 0.94078 0.0
C1859 C 0.42694 0.09059 0.92475 0.0
C1860 C 0.4226 0.09063 0.98764 0.0
C1861 C 0.41373 0.07126 0.94094 0.0
C1862 C 0.41118 0.06964 0.03655 0.0
C1863 C 0.43778 0.10791 0.0678 0.0
N1864 N 0.41216 0.07174 0.97143 0.0
N1865 N 0.43522 0.10819 0.03745 0.0
H1866 H 0.3263 0.44324 0.93749 0.0
H1867 H 0.36262 0.40931 0.08915 0.0
H1868 H 0.36608 0.4127 0.94014 0.0
H1869 H 0.32623 0.44343 0.08726 0.0
H1870 H 0.35831 0.40454 0.03469 0.0
H1871 H 0.32056 0.43764 0.99178 0.0
C1872 C 0.33348 0.43495 0.94931 0.0
C1873 C 0.34689 0.42862 0.9341 0.0
C1874 C 0.35098 0.41279 0.04621 0.0
C1875 C 0.34053 0.42238 0.99659 0.0
C1876 C 0.35334 0.41544 0.07742 0.0
C1877 C 0.34497 0.427 0.09295 0.0
C1878 C 0.34025 0.42183 0.03018 0.0
C1879 C 0.33305 0.43448 0.07635 0.0
C1880 C 0.33027 0.43186 0.98042 0.0
C1881 C 0.35575 0.41801 0.95082 0.0
N1882 N 0.33131 0.43203 0.04589 0.0
N1883 N 0.35262 0.41545 0.98112 0.0
H1884 H 0.95951 0.35969 0.92861 0.0
H1885 H 0.88727 0.32375 0.07825 0.0
H1886 H 0.88899 0.3227 0.92848 0.0
H1887 H 0.95782 0.35858 0.07772 0.0
H1888 H 0.88748 0.31858 0.02385 0.0
H1889 H 0.95915 0.35474 0.98305 0.0
C1890 C 0.94394 0.35016 0.9399 0.0
C1891 C 0.92425 0.34179 0.92381 0.0
C1892 C 0.90292 0.32706 0.03569 0.0
C1893 C 0.92371 0.33635 0.98653 0.0
C1894 C 0.90282 0.32994 0.06686 0.0
C1895 C 0.92257 0.34181 0.0827 0.0
C1896 C 0.92291 0.33618 0.02012 0.0
C1897 C 0.94217 0.34947 0.06654 0.0
C1898 C 0.94375 0.34741 0.97109 0.0
C1899 C 0.9046 0.32953 0.93982 0.0
N1900 N 0.94184 0.34675 0.03619 0.0
N1901 N 0.90483 0.32747 0.97028 0.0
H1902 H 0.58651 0.87265 0.08943 0.0
H1903 H 0.57454 0.92814 0.93912 0.0
H1904 H 0.57702 0.92839 0.08679 0.0
H1905 H 0.58186 0.87105 0.93792 0.0
H1906 H 0.58127 0.93144 0.99306 0.0
H1907 H 0.59076 0.8748 0.03438 0.0
C1908 C 0.58588 0.88567 0.07741 0.0
C1909 C 0.58126 0.90028 0.09276 0.0
C1910 C 0.58166 0.91829 0.98109 0.0
C1911 C 0.58581 0.90265 0.02983 0.0
C1912 C 0.57783 0.9164 0.95016 0.0
C1913 C 0.57742 0.89916 0.93391 0.0
C1914 C 0.5849 0.90268 0.99627 0.0
C1915 C 0.58199 0.88459 0.94953 0.0
C1916 C 0.58813 0.88677 0.04595 0.0
C1917 C 0.58038 0.91666 0.07594 0.0
N1918 N 0.58525 0.88649 0.97992 0.0
N1919 N 0.58242 0.91726 0.04551 0.0
H1920 H 0.64366 0.56898 0.07631 0.0
H1921 H 0.71433 0.58937 0.92649 0.0
H1922 H 0.71026 0.58225 0.07785 0.0
H1923 H 0.64667 0.57266 0.9284 0.0
H1924 H 0.71548 0.5926 0.98164 0.0
H1925 H 0.64682 0.57598 0.02241 0.0
C1926 C 0.65908 0.57362 0.06538 0.0
C1927 C 0.67666 0.57481 0.08173 0.0
C1928 C 0.7005 0.58857 0.9699 0.0
C1929 C 0.68034 0.58266 0.0194 0.0
C1930 C 0.69988 0.5869 0.93838 0.0
C1931 C 0.68033 0.5806 0.92274 0.0
C1932 C 0.68146 0.584 0.98584 0.0
C1933 C 0.66206 0.57738 0.93944 0.0
C1934 C 0.66087 0.5776 0.03446 0.0
C1935 C 0.69628 0.5811 0.0662 0.0
N1936 N 0.66304 0.57893 0.96994 0.0
N1937 N 0.69751 0.58452 0.03584 0.0
H1938 H 0.07662 0.64399 0.93372 0.0
H1939 H 0.12548 0.71459 0.08375 0.0
H1940 H 0.12525 0.71255 0.93194 0.0
H1941 H 0.07661 0.64611 0.08169 0.0
H1942 H 0.1225 0.71599 0.02875 0.0
H1943 H 0.07322 0.64626 0.98792 0.0
C1944 C 0.08639 0.65965 0.94469 0.0
C1945 C 0.10134 0.67808 0.92816 0.0
C1946 C 0.11221 0.70076 0.04044 0.0
C1947 C 0.09779 0.68075 0.99084 0.0
C1948 C 0.1138 0.69998 0.07188 0.0
C1949 C 0.1014 0.68016 0.08744 0.0
C1950 C 0.09809 0.68159 0.02447 0.0
C1951 C 0.08667 0.66171 0.07074 0.0
C1952 C 0.08448 0.66094 0.97577 0.0
C1953 C 0.11347 0.69793 0.94373 0.0
N1954 N 0.08559 0.66285 0.04031 0.0
N1955 N 0.11166 0.69869 0.97425 0.0
H1956 H 0.87677 0.58398 0.58753 0.0
H1957 H 0.93097 0.56963 0.43734 0.0
H1958 H 0.93008 0.57072 0.58527 0.0
H1959 H 0.87565 0.57982 0.43596 0.0
H1960 H 0.93408 0.57581 0.49143 0.0
H1961 H 0.87933 0.58835 0.53251 0.0
C1962 C 0.88935 0.58252 0.5756 0.0
C1963 C 0.90315 0.57684 0.59108 0.0
C1964 C 0.92137 0.57694 0.47938 0.0
C1965 C 0.90599 0.58155 0.52813 0.0
C1966 C 0.9196 0.57344 0.44836 0.0
C1967 C 0.90289 0.574 0.43199 0.0
C1968 C 0.9062 0.58086 0.49453 0.0
C1969 C 0.88878 0.5792 0.44763 0.0
C1970 C 0.89069 0.58484 0.54415 0.0
C1971 C 0.91898 0.57492 0.57434 0.0
N1972 N 0.89057 0.58215 0.47808 0.0
N1973 N 0.91982 0.57708 0.54391 0.0
H1974 H 0.35793 0.92801 0.58307 0.0
H1975 H 0.29251 0.87219 0.43159 0.0
H1976 H 0.29391 0.87035 0.58343 0.0
H1977 H 0.35707 0.92894 0.43538 0.0
H1978 H 0.28981 0.87389 0.48662 0.0
H1979 H 0.35498 0.93127 0.52902 0.0
C1980 C 0.34307 0.91615 0.57181 0.0
C1981 C 0.32621 0.89877 0.58788 0.0
C1982 C 0.3044 0.88617 0.4753 0.0
C1983 C 0.32282 0.90222 0.52535 0.0
C1984 C 0.30589 0.8853 0.44385 0.0
C1985 C 0.32511 0.90037 0.42881 0.0
C1986 C 0.32224 0.90225 0.49174 0.0
C1987 C 0.342 0.91686 0.44596 0.0
C1988 C 0.34141 0.918 0.54081 0.0
C1989 C 0.30731 0.88402 0.57198 0.0
N1990 N 0.34023 0.91723 0.47636 0.0
N1991 N 0.30624 0.88589 0.54151 0.0
H1992 H 0.40797 0.35937 0.58953 0.0
H1993 H 0.44494 0.32514 0.43889 0.0
H1994 H 0.44364 0.32451 0.5887 0.0
H1995 H 0.4088 0.35951 0.44037 0.0
H1996 H 0.43989 0.31984 0.49332 0.0
H1997 H 0.40324 0.35452 0.53511 0.0
C1998 C 0.41445 0.35031 0.57804 0.0
C1999 C 0.42641 0.34254 0.59386 0.0
C2000 C 0.43278 0.32826 0.48168 0.0
C2001 C 0.42134 0.33721 0.53114 0.0
C2002 C 0.43557 0.33122 0.4505 0.0
C2003 C 0.42745 0.34297 0.4349 0.0
C2004 C 0.42184 0.33718 0.49753 0.0
C2005 C 0.4155 0.35048 0.45135 0.0
C2006 C 0.41182 0.34763 0.54685 0.0
C2007 C 0.43436 0.33088 0.57758 0.0
N2008 N 0.41328 0.34768 0.48171 0.0
N2009 N 0.43196 0.32885 0.54713 0.0
H2010 H 0.05378 0.41188 0.57832 0.0
H2011 H 0.12598 0.44618 0.42858 0.0
H2012 H 0.12434 0.44711 0.5781 0.0
H2013 H 0.05543 0.41145 0.42926 0.0
H2014 H 0.12573 0.4413 0.48309 0.0
H2015 H 0.05414 0.40626 0.52413 0.0
C2016 C 0.06937 0.4181 0.56703 0.0
C2017 C 0.08905 0.43019 0.58291 0.0
C2018 C 0.11029 0.43443 0.47126 0.0
C2019 C 0.08957 0.42406 0.52048 0.0
C2020 C 0.11041 0.43709 0.44002 0.0
C2021 C 0.09068 0.42942 0.42419 0.0
C2022 C 0.09031 0.42406 0.4869 0.0
C2023 C 0.07106 0.41783 0.44043 0.0
C2024 C 0.06956 0.41495 0.53598 0.0
C2025 C 0.10873 0.43778 0.5669 0.0
N2026 N 0.07138 0.41576 0.47085 0.0
N2027 N 0.10848 0.43485 0.53658 0.0
H2028 H 0.65303 0.05247 0.43606 0.0
H2029 H 0.6842 0.12332 0.58711 0.0
H2030 H 0.68016 0.12246 0.43739 0.0
H2031 H 0.6545 0.05302 0.5853 0.0
H2032 H 0.68843 0.12404 0.53244 0.0
H2033 H 0.65899 0.05316 0.49028 0.0
C2034 C 0.66058 0.06805 0.44762 0.0
C2035 C 0.66591 0.0874 0.43203 0.0
C2036 C 0.68128 0.10848 0.54404 0.0
C2037 C 0.67256 0.08828 0.49449 0.0
C2038 C 0.67897 0.10805 0.57537 0.0
C2039 C 0.66878 0.08804 0.59097 0.0
C2040 C 0.67334 0.08877 0.52806 0.0
C2041 C 0.6623 0.06883 0.57433 0.0
C2042 C 0.66392 0.06842 0.47869 0.0
C2043 C 0.67571 0.1071 0.44837 0.0
N2044 N 0.66446 0.06966 0.54384 0.0
N2045 N 0.67847 0.10699 0.4787 0.0
H2046 H 0.57885 0.64721 0.43159 0.0
H2047 H 0.58963 0.71205 0.58424 0.0
H2048 H 0.59112 0.71348 0.43253 0.0
H2049 H 0.57197 0.64416 0.57907 0.0
H2050 H 0.59654 0.7154 0.52972 0.0
H2051 H 0.58296 0.64853 0.48605 0.0
C2052 C 0.5828 0.66222 0.44323 0.0
C2053 C 0.58449 0.68021 0.42739 0.0
C2054 C 0.59147 0.69987 0.54064 0.0
C2055 C 0.58882 0.68171 0.49031 0.0
C2056 C 0.58765 0.69798 0.57181 0.0
C2057 C 0.58005 0.67774 0.58629 0.0
C2058 C 0.58778 0.68143 0.5239 0.0
C2059 C 0.57762 0.66004 0.56892 0.0
C2060 C 0.58506 0.66294 0.47445 0.0
C2061 C 0.58973 0.69924 0.44378 0.0
N2062 N 0.5813 0.66227 0.53877 0.0
N2063 N 0.5914 0.6994 0.47441 0.0
H2064 H 0.5325 0.15624 0.24543 0.0
H2065 H 0.58787 0.08822 0.29624 0.0
H2066 H 0.5079 0.08937 0.21779 0.0
H2067 H 0.62841 0.15614 0.27198 0.0
H2068 H 0.55601 0.08902 0.27663 0.0
H2069 H 0.56583 0.15729 0.26433 0.0
C2070 C 0.53406 0.1418 0.24353 0.0
C2071 C 0.51747 0.12269 0.23008 0.0
C2072 C 0.57189 0.10374 0.27556 0.0
C2073 C 0.55508 0.12373 0.25176 0.0
C2074 C 0.59005 0.10333 0.2868 0.0
C2075 C 0.61078 0.12215 0.28561 0.0
C2076 C 0.57433 0.12322 0.26366 0.0
C2077 C 0.61269 0.14127 0.27305 0.0
C2078 C 0.55307 0.14248 0.25405 0.0
C2079 C 0.52033 0.10446 0.22789 0.0
N2080 N 0.59458 0.14141 0.26278 0.0
N2081 N 0.53867 0.10537 0.23889 0.0
H2082 H 0.47935 0.59985 0.3282 0.0
H2083 H 0.41449 0.53179 0.18799 0.0
H2084 H 0.49629 0.62819 0.23933 0.0
H2085 H 0.38316 0.52336 0.27437 0.0
H2086 H 0.44533 0.56603 0.20572 0.0
H2087 H 0.44499 0.57068 0.30878 0.0
C2088 C 0.47579 0.60017 0.30465 0.0
C2089 C 0.49082 0.61668 0.28547 0.0
C2090 C 0.43154 0.55684 0.22059 0.0
C2091 C 0.45144 0.58271 0.26284 0.0
C2092 C 0.41388 0.53723 0.21055 0.0
C2093 C 0.39608 0.52457 0.2297 0.0
C2094 C 0.43172 0.56363 0.25025 0.0
C2095 C 0.39647 0.53251 0.2588 0.0
C2096 C 0.45606 0.58343 0.29358 0.0
C2097 C 0.4852 0.61588 0.25498 0.0
N2098 N 0.41416 0.55136 0.26833 0.0
N2099 N 0.46607 0.59894 0.24448 0.0
H2100 H 0.84805 0.46958 0.27569 0.0
H2101 H 0.91643 0.417 0.21494 0.0
H2102 H 0.91661 0.4963 0.29498 0.0
H2103 H 0.85052 0.37455 0.24618 0.0
H2104 H 0.91498 0.44836 0.23478 0.0
H2105 H 0.84683 0.43634 0.25571 0.0
C2106 C 0.86281 0.46851 0.27552 0.0
C2107 C 0.88246 0.48567 0.28696 0.0
C2108 C 0.90082 0.43219 0.2373 0.0
C2109 C 0.88121 0.44819 0.2641 0.0
C2110 C 0.90158 0.41428 0.2259 0.0
C2111 C 0.88356 0.39313 0.22898 0.0
C2112 C 0.88176 0.42912 0.25144 0.0
C2113 C 0.8648 0.39061 0.24358 0.0
C2114 C 0.86205 0.44955 0.26442 0.0
C2115 C 0.9011 0.48344 0.28651 0.0
N2116 N 0.86428 0.40849 0.25413 0.0
N2117 N 0.90005 0.46516 0.27504 0.0
H2118 H 0.49505 0.87185 0.28097 0.0
H2119 H 0.38075 0.86454 0.2459 0.0
H2120 H 0.4764 0.8802 0.19161 0.0
H2121 H 0.41677 0.89291 0.32786 0.0
H2122 H 0.4115 0.86084 0.22747 0.0
H2123 H 0.4616 0.86994 0.3006 0.0
C2124 C 0.48383 0.87294 0.26542 0.0
C2125 C 0.48861 0.87622 0.23454 0.0
C2126 C 0.41243 0.86764 0.24963 0.0
C2127 C 0.45034 0.87371 0.25675 0.0
C2128 C 0.39492 0.86974 0.26018 0.0
C2129 C 0.39603 0.87893 0.2886 0.0
C2130 C 0.43096 0.87437 0.26785 0.0
C2131 C 0.41495 0.8855 0.306 0.0
C2132 C 0.46484 0.87193 0.27664 0.0
C2133 C 0.47348 0.87763 0.21549 0.0
N2134 N 0.4316 0.88301 0.29542 0.0
N2135 N 0.45503 0.87631 0.22686 0.0
H2136 H 0.6285 0.47087 0.24016 0.0
H2137 H 0.50716 0.41747 0.29985 0.0
H2138 H 0.58581 0.49618 0.21841 0.0
H2139 H 0.53175 0.37538 0.27142 0.0
H2140 H 0.53975 0.44881 0.2794 0.0
H2141 H 0.59672 0.43765 0.26074 0.0
C2142 C 0.61253 0.4695 0.2399 0.0
C2143 C 0.60973 0.48626 0.22761 0.0
C2144 C 0.53804 0.43273 0.27762 0.0
C2145 C 0.57378 0.4488 0.25113 0.0
C2146 C 0.51949 0.41483 0.28937 0.0
C2147 C 0.51675 0.39379 0.28726 0.0
C2148 C 0.55428 0.42976 0.26412 0.0
C2149 C 0.53323 0.39135 0.27325 0.0
C2150 C 0.59447 0.45055 0.25135 0.0
C2151 C 0.5887 0.48364 0.22754 0.0
N2152 N 0.5515 0.40923 0.26236 0.0
N2153 N 0.57161 0.46539 0.23935 0.0
H2154 H 0.13905 0.61022 0.18995 0.0
H2155 H 0.11928 0.53206 0.32805 0.0
H2156 H 0.12946 0.62667 0.27989 0.0
H2157 H 0.1492 0.52835 0.24513 0.0
H2158 H 0.12296 0.56662 0.31136 0.0
H2159 H 0.14316 0.58047 0.20996 0.0
C2160 C 0.13792 0.60766 0.21396 0.0
C2161 C 0.1336 0.62081 0.23317 0.0
C2162 C 0.12897 0.55839 0.29699 0.0
C2163 C 0.1381 0.58644 0.25642 0.0
C2164 C 0.12685 0.53858 0.30645 0.0
C2165 C 0.13392 0.52716 0.28796 0.0
C2166 C 0.13789 0.56675 0.26859 0.0
C2167 C 0.14349 0.5365 0.26016 0.0
C2168 C 0.14038 0.59068 0.22543 0.0
C2169 C 0.1327 0.6169 0.26424 0.0
N2170 N 0.14496 0.55561 0.2512 0.0
N2171 N 0.13456 0.5998 0.2749 0.0
H2172 H 0.50344 0.91787 0.79518 0.0
H2173 H 0.37878 0.84924 0.74885 0.0
H2174 H 0.47424 0.84887 0.77678 0.0
H2175 H 0.42104 0.91582 0.7199 0.0
H2176 H 0.41117 0.84825 0.76748 0.0
H2177 H 0.47073 0.91699 0.77574 0.0
C2178 C 0.49012 0.90252 0.78696 0.0
C2179 C 0.49154 0.88342 0.78743 0.0
C2180 C 0.4132 0.86299 0.75697 0.0
C2181 C 0.4539 0.88225 0.7657 0.0
C2182 C 0.3948 0.86364 0.74662 0.0
C2183 C 0.39727 0.88264 0.73285 0.0
C2184 C 0.43399 0.88165 0.75414 0.0
C2185 C 0.41839 0.9008 0.73025 0.0
C2186 C 0.4715 0.90205 0.77584 0.0
C2187 C 0.47381 0.86397 0.77648 0.0
N2188 N 0.43587 0.89992 0.74101 0.0
N2189 N 0.45552 0.8638 0.76629 0.0
H2190 H 0.61359 0.47205 0.82062 0.0
H2191 H 0.52985 0.41547 0.68729 0.0
H2192 H 0.62491 0.49977 0.73155 0.0
H2193 H 0.52811 0.38137 0.76891 0.0
H2194 H 0.56519 0.44582 0.70222 0.0
H2195 H 0.58327 0.43816 0.80143 0.0
C2196 C 0.60976 0.47095 0.79695 0.0
C2197 C 0.62153 0.48888 0.77778 0.0
C2198 C 0.55723 0.4316 0.71669 0.0
C2199 C 0.58664 0.45007 0.75553 0.0
C2200 C 0.53696 0.4142 0.70823 0.0
C2201 C 0.52586 0.39574 0.7269 0.0
C2202 C 0.56642 0.43079 0.74427 0.0
C2203 C 0.53599 0.39522 0.75381 0.0
C2204 C 0.59249 0.45152 0.78594 0.0
C2205 C 0.61618 0.48635 0.74711 0.0
N2206 N 0.55558 0.4126 0.76183 0.0
N2207 N 0.59885 0.4674 0.73699 0.0
H2208 H 0.13684 0.62981 0.73621 0.0
H2209 H 0.146 0.52311 0.76755 0.0
H2210 H 0.13116 0.60191 0.82449 0.0
H2211 H 0.12118 0.53349 0.68407 0.0
H2212 H 0.14977 0.5573 0.78678 0.0
H2213 H 0.14033 0.5996 0.71477 0.0
C2214 C 0.13669 0.61761 0.75114 0.0
C2215 C 0.13358 0.61838 0.78223 0.0
C2216 C 0.14371 0.55213 0.76413 0.0
C2217 C 0.13781 0.58411 0.75796 0.0
C2218 C 0.14158 0.53264 0.75312 0.0
C2219 C 0.1332 0.52531 0.72414 0.0
C2220 C 0.13772 0.56454 0.74594 0.0
C2221 C 0.12772 0.53843 0.70652 0.0
C2222 C 0.13858 0.60036 0.73889 0.0
C2223 C 0.13346 0.60205 0.80046 0.0
N2224 N 0.13007 0.55739 0.71769 0.0
N2225 N 0.13552 0.58563 0.78808 0.0
H2226 H 0.63193 0.15741 0.74991 0.0
H2227 H 0.50676 0.09063 0.79289 0.0
H2228 H 0.58971 0.09069 0.72162 0.0
H2229 H 0.53544 0.15858 0.7681 0.0
H2230 H 0.53994 0.09118 0.77629 0.0
H2231 H 0.59934 0.15909 0.766 0.0
C2232 C 0.61587 0.14314 0.74728 0.0
C2233 C 0.61346 0.12389 0.73446 0.0
C2234 C 0.53897 0.10597 0.77444 0.0
C2235 C 0.57655 0.12563 0.75295 0.0
C2236 C 0.5201 0.1057 0.78396 0.0
C2237 C 0.51837 0.12458 0.78173 0.0
C2238 C 0.55652 0.12538 0.76321 0.0
C2239 C 0.53613 0.14365 0.7699 0.0
C2240 C 0.59737 0.14417 0.75619 0.0
C2241 C 0.59231 0.10589 0.73128 0.0
N2242 N 0.55466 0.14366 0.7613 0.0
N2243 N 0.57472 0.10713 0.74072 0.0
H2244 H 0.41227 0.53183 0.83129 0.0
H2245 H 0.47421 0.59462 0.68606 0.0
H2246 H 0.37972 0.51728 0.7451 0.0
H2247 H 0.49008 0.62706 0.77233 0.0
H2248 H 0.44058 0.5652 0.70722 0.0
H2249 H 0.44183 0.56572 0.81057 0.0
C2250 C 0.41112 0.53584 0.80812 0.0
C2251 C 0.39333 0.52159 0.78996 0.0
C2252 C 0.45125 0.5789 0.72141 0.0
C2253 C 0.42758 0.56028 0.76596 0.0
C2254 C 0.47054 0.59578 0.70936 0.0
C2255 C 0.48508 0.6135 0.72736 0.0
C2256 C 0.44663 0.57933 0.75196 0.0
C2257 C 0.47938 0.61379 0.75757 0.0
C2258 C 0.42806 0.55526 0.79635 0.0
C2259 C 0.39303 0.52772 0.75997 0.0
N2260 N 0.46074 0.59676 0.76908 0.0
N2261 N 0.41007 0.54645 0.74878 0.0
H2262 H 0.86535 0.37618 0.73986 0.0
H2263 H 0.86751 0.48791 0.778 0.0
H2264 H 0.88658 0.40848 0.82593 0.0
H2265 H 0.87932 0.4711 0.68929 0.0
H2266 H 0.86453 0.45387 0.79727 0.0
H2267 H 0.86037 0.40629 0.72238 0.0
C2268 C 0.86868 0.38938 0.75523 0.0
C2269 C 0.87647 0.38977 0.78441 0.0
C2270 C 0.86747 0.45763 0.77351 0.0
C2271 C 0.87054 0.42406 0.76463 0.0
C2272 C 0.8691 0.47696 0.76248 0.0
C2273 C 0.87374 0.48245 0.73194 0.0
C2274 C 0.87003 0.44356 0.7537 0.0
C2275 C 0.87572 0.46764 0.71292 0.0
C2276 C 0.86586 0.40656 0.74522 0.0
C2277 C 0.88053 0.40741 0.80329 0.0
N2278 N 0.87386 0.44892 0.72408 0.0
N2279 N 0.87754 0.42385 0.79307 0.0
loop_
_geom_bond_atom_site_label_1
_geom_bond_atom_site_label_2
_geom_bond_distance
_geom_bond_site_symmetry_2
_ccdc_geom_bond_type
Co0 O2 2.143 . S
Co0 O8 2.074 . S
Co0 O11 2.093 . S
Co0 O24 2.097 . S
Co0 N41 2.151 . S
Co0 N49 2.214 . S
Co1 O2 2.160 . S
Co1 O7 2.058 . S
Co1 O17 2.057 . S
Co1 O32 2.037 . S
Co1 N36 2.145 . S
Co1 N57 2.257 . S
O2 Co0 2.143 . S
O2 Co1 2.160 . S
C3 O4 1.278 . S
C3 O11 1.224 . S
O4 C3 1.278 . S
C5 O6 1.245 . S
C5 O17 1.232 . S
O6 C5 1.245 . S
O7 Co1 2.058 . S
O7 C33 1.269 . S
O8 Co0 2.074 . S
O8 C33 1.257 . S
H9 C34 0.930 . S
H10 C40 0.930 . S
O11 Co0 2.093 . S
O11 C3 1.224 . S
H12 C44 0.929 . S
H13 C46 0.930 . S
H14 C47 0.930 . S
H15 C45 0.929 . S
H16 C48 0.928 . S
O17 Co1 2.057 . S
O17 C5 1.232 . S
H18 C37 0.929 . S
H19 C38 0.929 . S
H20 C50 0.931 . S
H21 C42 0.929 . S
H22 C51 0.930 . S
H23 C43 0.931 . S
O24 Co0 2.097 . S
O24 C52 1.214 . S
H25 C53 0.929 . S
H26 C54 0.929 . S
H27 C55 0.930 . S
H28 C56 0.929 . S
H29 C58 0.930 . S
H30 C35 0.930 . S
H31 C39 0.930 . S
O32 Co1 2.037 . S
O32 C52 1.234 . S
C33 O7 1.269 . S
C33 O8 1.257 . S
C34 H9 0.930 . S
C34 C37 1.388 . S
C34 C39 1.418 . S
C35 H30 0.930 . S
C35 C38 1.404 . S
C35 C39 1.353 . S
N36 Co1 2.145 . S
N36 C37 1.397 . S
N36 C38 1.334 . S
C37 H18 0.929 . S
C37 C34 1.388 . S
C37 N36 1.397 . S
C38 H19 0.929 . S
C38 C35 1.404 . S
C38 N36 1.334 . S
C39 H31 0.930 . S
C39 C34 1.418 . S
C39 C35 1.353 . S
C40 H10 0.930 . S
C40 N41 1.330 . S
C40 C42 1.446 . S
N41 Co0 2.151 . S
N41 C40 1.330 . S
N41 C45 1.418 . S
C42 H21 0.929 . S
C42 C40 1.446 . S
C42 C43 1.332 . S
C43 H23 0.931 . S
C43 C42 1.332 . S
C43 C44 1.267 . S
C44 H12 0.929 . S
C44 C43 1.267 . S
C44 C45 1.251 . S
C45 H15 0.929 . S
C45 N41 1.418 . S
C45 C44 1.251 . S
C46 H13 0.930 . S
C46 C48 1.406 . S
C46 C51 1.261 . S
C47 H14 0.930 . S
C47 N49 1.325 . S
C47 C50 1.357 . S
C48 H16 0.928 . S
C48 C46 1.406 . S
C48 N49 1.261 . S
N49 Co0 2.214 . S
N49 C47 1.325 . S
N49 C48 1.261 . S
C50 H20 0.931 . S
C50 C47 1.357 . S
C50 C51 1.312 . S
C51 H22 0.930 . S
C51 C46 1.261 . S
C51 C50 1.312 . S
C52 O24 1.214 . S
C52 O32 1.234 . S
C53 H25 0.929 . S
C53 C56 1.391 . S
C53 C58 1.391 . S
C54 H26 0.929 . S
C54 C55 1.390 . S
C54 N57 1.391 . S
C55 H27 0.930 . S
C55 C54 1.390 . S
C55 C56 1.392 . S
C56 H28 0.929 . S
C56 C53 1.391 . S
C56 C55 1.392 . S
N57 Co1 2.257 . S
N57 C54 1.391 . S
N57 C58 1.388 . S
C58 H29 0.930 . S
C58 C53 1.391 . S
C58 N57 1.388 . S
Co59 O61 2.143 . S
Co59 O67 2.074 . S
Co59 O70 2.093 . S
Co59 O83 2.097 . S
Co59 N100 2.151 . S
Co59 N108 2.214 . S
Co60 O61 2.160 . S
Co60 O66 2.058 . S
Co60 O76 2.057 . S
Co60 O91 2.037 . S
Co60 N95 2.145 . S
Co60 N116 2.257 . S
O61 Co59 2.143 . S
O61 Co60 2.160 . S
C62 O63 1.278 . S
C62 O70 1.224 . S
O63 C62 1.278 . S
C64 O65 1.245 . S
C64 O76 1.232 . S
O65 C64 1.245 . S
O66 Co60 2.058 . S
O66 C92 1.269 . S
O67 Co59 2.074 . S
O67 C92 1.257 . S
H68 C93 0.930 . S
H69 C99 0.930 . S
O70 Co59 2.093 . S
O70 C62 1.224 . S
H71 C103 0.929 . S
H72 C105 0.930 . S
H73 C106 0.930 . S
H74 C104 0.929 . S
H75 C107 0.928 . S
O76 Co60 2.057 . S
O76 C64 1.232 . S
H77 C96 0.929 . S
H78 C97 0.929 . S
H79 C109 0.931 . S
H80 C101 0.929 . S
H81 C110 0.930 . S
H82 C102 0.931 . S
O83 Co59 2.097 . S
O83 C111 1.214 . S
H84 C112 0.929 . S
H85 C113 0.929 . S
H86 C114 0.930 . S
H87 C115 0.929 . S
H88 C117 0.930 . S
H89 C94 0.930 . S
H90 C98 0.930 . S
O91 Co60 2.037 . S
O91 C111 1.234 . S
C92 O66 1.269 . S
C92 O67 1.257 . S
C93 H68 0.930 . S
C93 C96 1.388 . S
C93 C98 1.418 . S
C94 H89 0.930 . S
C94 C97 1.404 . S
C94 C98 1.353 . S
N95 Co60 2.145 . S
N95 C96 1.397 . S
N95 C97 1.334 . S
C96 H77 0.929 . S
C96 C93 1.388 . S
C96 N95 1.397 . S
C97 H78 0.929 . S
C97 C94 1.404 . S
C97 N95 1.334 . S
C98 H90 0.930 . S
C98 C93 1.418 . S
C98 C94 1.353 . S
C99 H69 0.930 . S
C99 N100 1.330 . S
C99 C101 1.446 . S
N100 Co59 2.151 . S
N100 C99 1.330 . S
N100 C104 1.418 . S
C101 H80 0.929 . S
C101 C99 1.446 . S
C101 C102 1.332 . S
C102 H82 0.931 . S
C102 C101 1.332 . S
C102 C103 1.267 . S
C103 H71 0.929 . S
C103 C102 1.267 . S
C103 C104 1.251 . S
C104 H74 0.929 . S
C104 N100 1.418 . S
C104 C103 1.251 . S
C105 H72 0.930 . S
C105 C107 1.406 . S
C105 C110 1.261 . S
C106 H73 0.930 . S
C106 N108 1.325 . S
C106 C109 1.357 . S
C107 H75 0.928 . S
C107 C105 1.406 . S
C107 N108 1.261 . S
N108 Co59 2.214 . S
N108 C106 1.325 . S
N108 C107 1.261 . S
C109 H79 0.931 . S
C109 C106 1.357 . S
C109 C110 1.312 . S
C110 H81 0.930 . S
C110 C105 1.261 . S
C110 C109 1.312 . S
C111 O83 1.214 . S
C111 O91 1.234 . S
C112 H84 0.929 . S
C112 C115 1.391 . S
C112 C117 1.391 . S
C113 H85 0.929 . S
C113 C114 1.390 . S
C113 N116 1.391 . S
C114 H86 0.930 . S
C114 C113 1.390 . S
C114 C115 1.392 . S
C115 H87 0.929 . S
C115 C112 1.391 . S
C115 C114 1.392 . S
N116 Co60 2.257 . S
N116 C113 1.391 . S
N116 C117 1.388 . S
C117 H88 0.930 . S
C117 C112 1.391 . S
C117 N116 1.388 . S
Co118 O120 2.143 . S
Co118 O126 2.074 . S
Co118 O129 2.093 . S
Co118 O142 2.097 . S
Co118 N159 2.151 . S
Co118 N167 2.214 . S
Co119 O120 2.160 . S
Co119 O125 2.058 . S
Co119 O135 2.057 . S
Co119 O150 2.037 . S
Co119 N154 2.145 . S
Co119 N175 2.257 . S
O120 Co118 2.143 . S
O120 Co119 2.160 . S
C121 O122 1.278 . S
C121 O129 1.224 . S
O122 C121 1.278 . S
C123 O124 1.245 . S
C123 O135 1.232 . S
O124 C123 1.245 . S
O125 Co119 2.058 . S
O125 C151 1.269 . S
O126 Co118 2.074 . S
O126 C151 1.257 . S
H127 C152 0.930 . S
H128 C158 0.930 . S
O129 Co118 2.093 . S
O129 C121 1.224 . S
H130 C162 0.929 . S
H131 C164 0.930 . S
H132 C165 0.930 . S
H133 C163 0.929 . S
H134 C166 0.928 . S
O135 Co119 2.057 . S
O135 C123 1.232 . S
H136 C155 0.929 . S
H137 C156 0.929 . S
H138 C168 0.931 . S
H139 C160 0.929 . S
H140 C169 0.930 . S
H141 C161 0.931 . S
O142 Co118 2.097 . S
O142 C170 1.214 . S
H143 C171 0.929 . S
H144 C172 0.929 . S
H145 C173 0.930 . S
H146 C174 0.929 . S
H147 C176 0.930 . S
H148 C153 0.930 . S
H149 C157 0.930 . S
O150 Co119 2.037 . S
O150 C170 1.234 . S
C151 O125 1.269 . S
C151 O126 1.257 . S
C152 H127 0.930 . S
C152 C155 1.388 . S
C152 C157 1.418 . S
C153 H148 0.930 . S
C153 C156 1.404 . S
C153 C157 1.353 . S
N154 Co119 2.145 . S
N154 C155 1.397 . S
N154 C156 1.334 . S
C155 H136 0.929 . S
C155 C152 1.388 . S
C155 N154 1.397 . S
C156 H137 0.929 . S
C156 C153 1.404 . S
C156 N154 1.334 . S
C157 H149 0.930 . S
C157 C152 1.418 . S
C157 C153 1.353 . S
C158 H128 0.930 . S
C158 N159 1.330 . S
C158 C160 1.446 . S
N159 Co118 2.151 . S
N159 C158 1.330 . S
N159 C163 1.418 . S
C160 H139 0.929 . S
C160 C158 1.446 . S
C160 C161 1.332 . S
C161 H141 0.931 . S
C161 C160 1.332 . S
C161 C162 1.267 . S
C162 H130 0.929 . S
C162 C161 1.267 . S
C162 C163 1.251 . S
C163 H133 0.929 . S
C163 N159 1.418 . S
C163 C162 1.251 . S
C164 H131 0.930 . S
C164 C166 1.406 . S
C164 C169 1.261 . S
C165 H132 0.930 . S
C165 N167 1.325 . S
C165 C168 1.357 . S
C166 H134 0.928 . S
C166 C164 1.406 . S
C166 N167 1.261 . S
N167 Co118 2.214 . S
N167 C165 1.325 . S
N167 C166 1.261 . S
C168 H138 0.931 . S
C168 C165 1.357 . S
C168 C169 1.312 . S
C169 H140 0.930 . S
C169 C164 1.261 . S
C169 C168 1.312 . S
C170 O142 1.214 . S
C170 O150 1.234 . S
C171 H143 0.929 . S
C171 C174 1.391 . S
C171 C176 1.391 . S
C172 H144 0.929 . S
C172 C173 1.390 . S
C172 N175 1.391 . S
C173 H145 0.930 . S
C173 C172 1.390 . S
C173 C174 1.392 . S
C174 H146 0.929 . S
C174 C171 1.391 . S
C174 C173 1.392 . S
N175 Co119 2.257 . S
N175 C172 1.391 . S
N175 C176 1.388 . S
C176 H147 0.930 . S
C176 C171 1.391 . S
C176 N175 1.388 . S
Co177 O179 2.143 . S
Co177 O185 2.074 . S
Co177 O188 2.093 . S
Co177 O201 2.097 . S
Co177 N218 2.151 . S
Co177 N226 2.214 . S
Co178 O179 2.160 . S
Co178 O184 2.058 . S
Co178 O194 2.057 . S
Co178 O209 2.037 . S
Co178 N213 2.145 . S
Co178 N234 2.257 . S
O179 Co177 2.143 . S
O179 Co178 2.160 . S
C180 O181 1.278 . S
C180 O188 1.224 . S
O181 C180 1.278 . S
C182 O183 1.245 . S
C182 O194 1.232 . S
O183 C182 1.245 . S
O184 Co178 2.058 . S
O184 C210 1.269 . S
O185 Co177 2.074 . S
O185 C210 1.257 . S
H186 C211 0.930 . S
H187 C217 0.930 . S
O188 Co177 2.093 . S
O188 C180 1.224 . S
H189 C221 0.929 . S
H190 C223 0.930 . S
H191 C224 0.930 . S
H192 C222 0.929 . S
H193 C225 0.928 . S
O194 Co178 2.057 . S
O194 C182 1.232 . S
H195 C214 0.929 . S
H196 C215 0.929 . S
H197 C227 0.931 . S
H198 C219 0.929 . S
H199 C228 0.930 . S
H200 C220 0.931 . S
O201 Co177 2.097 . S
O201 C229 1.214 . S
H202 C230 0.929 . S
H203 C231 0.929 . S
H204 C232 0.930 . S
H205 C233 0.929 . S
H206 C235 0.930 . S
H207 C212 0.930 . S
H208 C216 0.930 . S
O209 Co178 2.037 . S
O209 C229 1.234 . S
C210 O184 1.269 . S
C210 O185 1.257 . S
C211 H186 0.930 . S
C211 C214 1.388 . S
C211 C216 1.418 . S
C212 H207 0.930 . S
C212 C215 1.404 . S
C212 C216 1.353 . S
N213 Co178 2.145 . S
N213 C214 1.397 . S
N213 C215 1.334 . S
C214 H195 0.929 . S
C214 C211 1.388 . S
C214 N213 1.397 . S
C215 H196 0.929 . S
C215 C212 1.404 . S
C215 N213 1.334 . S
C216 H208 0.930 . S
C216 C211 1.418 . S
C216 C212 1.353 . S
C217 H187 0.930 . S
C217 N218 1.330 . S
C217 C219 1.446 . S
N218 Co177 2.151 . S
N218 C217 1.330 . S
N218 C222 1.418 . S
C219 H198 0.929 . S
C219 C217 1.446 . S
C219 C220 1.332 . S
C220 H200 0.931 . S
C220 C219 1.332 . S
C220 C221 1.267 . S
C221 H189 0.929 . S
C221 C220 1.267 . S
C221 C222 1.251 . S
C222 H192 0.929 . S
C222 N218 1.418 . S
C222 C221 1.251 . S
C223 H190 0.930 . S
C223 C225 1.406 . S
C223 C228 1.261 . S
C224 H191 0.930 . S
C224 N226 1.325 . S
C224 C227 1.357 . S
C225 H193 0.928 . S
C225 C223 1.406 . S
C225 N226 1.261 . S
N226 Co177 2.214 . S
N226 C224 1.325 . S
N226 C225 1.261 . S
C227 H197 0.931 . S
C227 C224 1.357 . S
C227 C228 1.312 . S
C228 H199 0.930 . S
C228 C223 1.261 . S
C228 C227 1.312 . S
C229 O201 1.214 . S
C229 O209 1.234 . S
C230 H202 0.929 . S
C230 C233 1.391 . S
C230 C235 1.391 . S
C231 H203 0.929 . S
C231 C232 1.390 . S
C231 N234 1.391 . S
C232 H204 0.930 . S
C232 C231 1.390 . S
C232 C233 1.392 . S
C233 H205 0.929 . S
C233 C230 1.391 . S
C233 C232 1.392 . S
N234 Co178 2.257 . S
N234 C231 1.391 . S
N234 C235 1.388 . S
C235 H206 0.930 . S
C235 C230 1.391 . S
C235 N234 1.388 . S
Co236 O238 2.143 . S
Co236 O244 2.074 . S
Co236 O247 2.093 . S
Co236 O260 2.097 . S
Co236 N277 2.151 . S
Co236 N285 2.214 . S
Co237 O238 2.160 . S
Co237 O243 2.058 . S
Co237 O253 2.057 . S
Co237 O268 2.037 . S
Co237 N272 2.145 . S
Co237 N293 2.257 . S
O238 Co236 2.143 . S
O238 Co237 2.160 . S
C239 O240 1.278 . S
C239 O247 1.224 . S
O240 C239 1.278 . S
C241 O242 1.245 . S
C241 O253 1.232 . S
O242 C241 1.245 . S
O243 Co237 2.058 . S
O243 C269 1.269 . S
O244 Co236 2.074 . S
O244 C269 1.257 . S
H245 C270 0.930 . S
H246 C276 0.930 . S
O247 Co236 2.093 . S
O247 C239 1.224 . S
H248 C280 0.929 . S
H249 C282 0.930 . S
H250 C283 0.930 . S
H251 C281 0.929 . S
H252 C284 0.928 . S
O253 Co237 2.057 . S
O253 C241 1.232 . S
H254 C273 0.929 . S
H255 C274 0.929 . S
H256 C286 0.931 . S
H257 C278 0.929 . S
H258 C287 0.930 . S
H259 C279 0.931 . S
O260 Co236 2.097 . S
O260 C288 1.214 . S
H261 C289 0.929 . S
H262 C290 0.929 . S
H263 C291 0.930 . S
H264 C292 0.929 . S
H265 C294 0.930 . S
H266 C271 0.930 . S
H267 C275 0.930 . S
O268 Co237 2.037 . S
O268 C288 1.234 . S
C269 O243 1.269 . S
C269 O244 1.257 . S
C270 H245 0.930 . S
C270 C273 1.388 . S
C270 C275 1.418 . S
C271 H266 0.930 . S
C271 C274 1.404 . S
C271 C275 1.353 . S
N272 Co237 2.145 . S
N272 C273 1.397 . S
N272 C274 1.334 . S
C273 H254 0.929 . S
C273 C270 1.388 . S
C273 N272 1.397 . S
C274 H255 0.929 . S
C274 C271 1.404 . S
C274 N272 1.334 . S
C275 H267 0.930 . S
C275 C270 1.418 . S
C275 C271 1.353 . S
C276 H246 0.930 . S
C276 N277 1.330 . S
C276 C278 1.446 . S
N277 Co236 2.151 . S
N277 C276 1.330 . S
N277 C281 1.418 . S
C278 H257 0.929 . S
C278 C276 1.446 . S
C278 C279 1.332 . S
C279 H259 0.931 . S
C279 C278 1.332 . S
C279 C280 1.267 . S
C280 H248 0.929 . S
C280 C279 1.267 . S
C280 C281 1.251 . S
C281 H251 0.929 . S
C281 N277 1.418 . S
C281 C280 1.251 . S
C282 H249 0.930 . S
C282 C284 1.406 . S
C282 C287 1.261 . S
C283 H250 0.930 . S
C283 N285 1.325 . S
C283 C286 1.357 . S
C284 H252 0.928 . S
C284 C282 1.406 . S
C284 N285 1.261 . S
N285 Co236 2.214 . S
N285 C283 1.325 . S
N285 C284 1.261 . S
C286 H256 0.931 . S
C286 C283 1.357 . S
C286 C287 1.312 . S
C287 H258 0.930 . S
C287 C282 1.261 . S
C287 C286 1.312 . S
C288 O260 1.214 . S
C288 O268 1.234 . S
C289 H261 0.929 . S
C289 C292 1.391 . S
C289 C294 1.391 . S
C290 H262 0.929 . S
C290 C291 1.390 . S
C290 N293 1.391 . S
C291 H263 0.930 . S
C291 C290 1.390 . S
C291 C292 1.392 . S
C292 H264 0.929 . S
C292 C289 1.391 . S
C292 C291 1.392 . S
N293 Co237 2.257 . S
N293 C290 1.391 . S
N293 C294 1.388 . S
C294 H265 0.930 . S
C294 C289 1.391 . S
C294 N293 1.388 . S
Co295 O297 2.143 . S
Co295 O303 2.074 . S
Co295 O306 2.093 . S
Co295 O319 2.097 . S
Co295 N336 2.151 . S
Co295 N344 2.214 . S
Co296 O297 2.160 . S
Co296 O302 2.058 . S
Co296 O312 2.057 . S
Co296 O327 2.037 . S
Co296 N331 2.145 . S
Co296 N352 2.257 . S
O297 Co295 2.143 . S
O297 Co296 2.160 . S
C298 O299 1.278 . S
C298 O306 1.224 . S
O299 C298 1.278 . S
C300 O301 1.245 . S
C300 O312 1.232 . S
O301 C300 1.245 . S
O302 Co296 2.058 . S
O302 C328 1.269 . S
O303 Co295 2.074 . S
O303 C328 1.257 . S
H304 C329 0.930 . S
H305 C335 0.930 . S
O306 Co295 2.093 . S
O306 C298 1.224 . S
H307 C339 0.929 . S
H308 C341 0.930 . S
H309 C342 0.930 . S
H310 C340 0.929 . S
H311 C343 0.928 . S
O312 Co296 2.057 . S
O312 C300 1.232 . S
H313 C332 0.929 . S
H314 C333 0.929 . S
H315 C345 0.931 . S
H316 C337 0.929 . S
H317 C346 0.930 . S
H318 C338 0.931 . S
O319 Co295 2.097 . S
O319 C347 1.214 . S
H320 C348 0.929 . S
H321 C349 0.929 . S
H322 C350 0.930 . S
H323 C351 0.929 . S
H324 C353 0.930 . S
H325 C330 0.930 . S
H326 C334 0.930 . S
O327 Co296 2.037 . S
O327 C347 1.234 . S
C328 O302 1.269 . S
C328 O303 1.257 . S
C329 H304 0.930 . S
C329 C332 1.388 . S
C329 C334 1.418 . S
C330 H325 0.930 . S
C330 C333 1.404 . S
C330 C334 1.353 . S
N331 Co296 2.145 . S
N331 C332 1.397 . S
N331 C333 1.334 . S
C332 H313 0.929 . S
C332 C329 1.388 . S
C332 N331 1.397 . S
C333 H314 0.929 . S
C333 C330 1.404 . S
C333 N331 1.334 . S
C334 H326 0.930 . S
C334 C329 1.418 . S
C334 C330 1.353 . S
C335 H305 0.930 . S
C335 N336 1.330 . S
C335 C337 1.446 . S
N336 Co295 2.151 . S
N336 C335 1.330 . S
N336 C340 1.418 . S
C337 H316 0.929 . S
C337 C335 1.446 . S
C337 C338 1.332 . S
C338 H318 0.931 . S
C338 C337 1.332 . S
C338 C339 1.267 . S
C339 H307 0.929 . S
C339 C338 1.267 . S
C339 C340 1.251 . S
C340 H310 0.929 . S
C340 N336 1.418 . S
C340 C339 1.251 . S
C341 H308 0.930 . S
C341 C343 1.406 . S
C341 C346 1.261 . S
C342 H309 0.930 . S
C342 N344 1.325 . S
C342 C345 1.357 . S
C343 H311 0.928 . S
C343 C341 1.406 . S
C343 N344 1.261 . S
N344 Co295 2.214 . S
N344 C342 1.325 . S
N344 C343 1.261 . S
C345 H315 0.931 . S
C345 C342 1.357 . S
C345 C346 1.312 . S
C346 H317 0.930 . S
C346 C341 1.261 . S
C346 C345 1.312 . S
C347 O319 1.214 . S
C347 O327 1.234 . S
C348 H320 0.929 . S
C348 C351 1.391 . S
C348 C353 1.391 . S
C349 H321 0.929 . S
C349 C350 1.390 . S
C349 N352 1.391 . S
C350 H322 0.930 . S
C350 C349 1.390 . S
C350 C351 1.392 . S
C351 H323 0.929 . S
C351 C348 1.391 . S
C351 C350 1.392 . S
N352 Co296 2.257 . S
N352 C349 1.391 . S
N352 C353 1.388 . S
C353 H324 0.930 . S
C353 C348 1.391 . S
C353 N352 1.388 . S
Co354 O356 2.143 . S
Co354 O362 2.074 . S
Co354 O365 2.093 . S
Co354 O378 2.097 . S
Co354 N395 2.151 . S
Co354 N403 2.214 . S
Co355 O356 2.160 . S
Co355 O361 2.058 . S
Co355 O371 2.057 . S
Co355 O386 2.037 . S
Co355 N390 2.145 . S
Co355 N411 2.257 . S
O356 Co354 2.143 . S
O356 Co355 2.160 . S
C357 O358 1.278 . S
C357 O365 1.224 . S
O358 C357 1.278 . S
C359 O360 1.245 . S
C359 O371 1.232 . S
O360 C359 1.245 . S
O361 Co355 2.058 . S
O361 C387 1.269 . S
O362 Co354 2.074 . S
O362 C387 1.257 . S
H363 C388 0.930 . S
H364 C394 0.930 . S
O365 Co354 2.093 . S
O365 C357 1.224 . S
H366 C398 0.929 . S
H367 C400 0.930 . S
H368 C401 0.930 . S
H369 C399 0.929 . S
H370 C402 0.928 . S
O371 Co355 2.057 . S
O371 C359 1.232 . S
H372 C391 0.929 . S
H373 C392 0.929 . S
H374 C404 0.931 . S
H375 C396 0.929 . S
H376 C405 0.930 . S
H377 C397 0.931 . S
O378 Co354 2.097 . S
O378 C406 1.214 . S
H379 C407 0.929 . S
H380 C408 0.929 . S
H381 C409 0.930 . S
H382 C410 0.929 . S
H383 C412 0.930 . S
H384 C389 0.930 . S
H385 C393 0.930 . S
O386 Co355 2.037 . S
O386 C406 1.234 . S
C387 O361 1.269 . S
C387 O362 1.257 . S
C388 H363 0.930 . S
C388 C391 1.388 . S
C388 C393 1.418 . S
C389 H384 0.930 . S
C389 C392 1.404 . S
C389 C393 1.353 . S
N390 Co355 2.145 . S
N390 C391 1.397 . S
N390 C392 1.334 . S
C391 H372 0.929 . S
C391 C388 1.388 . S
C391 N390 1.397 . S
C392 H373 0.929 . S
C392 C389 1.404 . S
C392 N390 1.334 . S
C393 H385 0.930 . S
C393 C388 1.418 . S
C393 C389 1.353 . S
C394 H364 0.930 . S
C394 N395 1.330 . S
C394 C396 1.446 . S
N395 Co354 2.151 . S
N395 C394 1.330 . S
N395 C399 1.418 . S
C396 H375 0.929 . S
C396 C394 1.446 . S
C396 C397 1.332 . S
C397 H377 0.931 . S
C397 C396 1.332 . S
C397 C398 1.267 . S
C398 H366 0.929 . S
C398 C397 1.267 . S
C398 C399 1.251 . S
C399 H369 0.929 . S
C399 N395 1.418 . S
C399 C398 1.251 . S
C400 H367 0.930 . S
C400 C402 1.406 . S
C400 C405 1.261 . S
C401 H368 0.930 . S
C401 N403 1.325 . S
C401 C404 1.357 . S
C402 H370 0.928 . S
C402 C400 1.406 . S
C402 N403 1.261 . S
N403 Co354 2.214 . S
N403 C401 1.325 . S
N403 C402 1.261 . S
C404 H374 0.931 . S
C404 C401 1.357 . S
C404 C405 1.312 . S
C405 H376 0.930 . S
C405 C400 1.261 . S
C405 C404 1.312 . S
C406 O378 1.214 . S
C406 O386 1.234 . S
C407 H379 0.929 . S
C407 C410 1.391 . S
C407 C412 1.391 . S
C408 H380 0.929 . S
C408 C409 1.390 . S
C408 N411 1.391 . S
C409 H381 0.930 . S
C409 C408 1.390 . S
C409 C410 1.392 . S
C410 H382 0.929 . S
C410 C407 1.391 . S
C410 C409 1.392 . S
N411 Co355 2.257 . S
N411 C408 1.391 . S
N411 C412 1.388 . S
C412 H383 0.930 . S
C412 C407 1.391 . S
C412 N411 1.388 . S
Co413 O415 2.143 . S
Co413 O421 2.074 . S
Co413 O424 2.093 . S
Co413 O437 2.097 . S
Co413 N454 2.151 . S
Co413 N462 2.214 . S
Co414 O415 2.160 . S
Co414 O420 2.058 . S
Co414 O430 2.057 . S
Co414 O445 2.037 . S
Co414 N449 2.145 . S
Co414 N470 2.257 . S
O415 Co413 2.143 . S
O415 Co414 2.160 . S
C416 O417 1.278 . S
C416 O424 1.224 . S
O417 C416 1.278 . S
C418 O419 1.245 . S
C418 O430 1.232 . S
O419 C418 1.245 . S
O420 Co414 2.058 . S
O420 C446 1.269 . S
O421 Co413 2.074 . S
O421 C446 1.257 . S
H422 C447 0.930 . S
H423 C453 0.930 . S
O424 Co413 2.093 . S
O424 C416 1.224 . S
H425 C457 0.929 . S
H426 C459 0.930 . S
H427 C460 0.930 . S
H428 C458 0.929 . S
H429 C461 0.928 . S
O430 Co414 2.057 . S
O430 C418 1.232 . S
H431 C450 0.929 . S
H432 C451 0.929 . S
H433 C463 0.931 . S
H434 C455 0.929 . S
H435 C464 0.930 . S
H436 C456 0.931 . S
O437 Co413 2.097 . S
O437 C465 1.214 . S
H438 C466 0.929 . S
H439 C467 0.929 . S
H440 C468 0.930 . S
H441 C469 0.929 . S
H442 C471 0.930 . S
H443 C448 0.930 . S
H444 C452 0.930 . S
O445 Co414 2.037 . S
O445 C465 1.234 . S
C446 O420 1.269 . S
C446 O421 1.257 . S
C447 H422 0.930 . S
C447 C450 1.388 . S
C447 C452 1.418 . S
C448 H443 0.930 . S
C448 C451 1.404 . S
C448 C452 1.353 . S
N449 Co414 2.145 . S
N449 C450 1.397 . S
N449 C451 1.334 . S
C450 H431 0.929 . S
C450 C447 1.388 . S
C450 N449 1.397 . S
C451 H432 0.929 . S
C451 C448 1.404 . S
C451 N449 1.334 . S
C452 H444 0.930 . S
C452 C447 1.418 . S
C452 C448 1.353 . S
C453 H423 0.930 . S
C453 N454 1.330 . S
C453 C455 1.446 . S
N454 Co413 2.151 . S
N454 C453 1.330 . S
N454 C458 1.418 . S
C455 H434 0.929 . S
C455 C453 1.446 . S
C455 C456 1.332 . S
C456 H436 0.931 . S
C456 C455 1.332 . S
C456 C457 1.267 . S
C457 H425 0.929 . S
C457 C456 1.267 . S
C457 C458 1.251 . S
C458 H428 0.929 . S
C458 N454 1.418 . S
C458 C457 1.251 . S
C459 H426 0.930 . S
C459 C461 1.406 . S
C459 C464 1.261 . S
C460 H427 0.930 . S
C460 N462 1.325 . S
C460 C463 1.357 . S
C461 H429 0.928 . S
C461 C459 1.406 . S
C461 N462 1.261 . S
N462 Co413 2.214 . S
N462 C460 1.325 . S
N462 C461 1.261 . S
C463 H433 0.931 . S
C463 C460 1.357 . S
C463 C464 1.312 . S
C464 H435 0.930 . S
C464 C459 1.261 . S
C464 C463 1.312 . S
C465 O437 1.214 . S
C465 O445 1.234 . S
C466 H438 0.929 . S
C466 C469 1.391 . S
C466 C471 1.391 . S
C467 H439 0.929 . S
C467 C468 1.390 . S
C467 N470 1.391 . S
C468 H440 0.930 . S
C468 C467 1.390 . S
C468 C469 1.392 . S
C469 H441 0.929 . S
C469 C466 1.391 . S
C469 C468 1.392 . S
N470 Co414 2.257 . S
N470 C467 1.391 . S
N470 C471 1.388 . S
C471 H442 0.930 . S
C471 C466 1.391 . S
C471 N470 1.388 . S
Co472 O474 2.143 . S
Co472 O480 2.074 . S
Co472 O483 2.093 . S
Co472 O496 2.097 . S
Co472 N513 2.151 . S
Co472 N521 2.214 . S
Co473 O474 2.160 . S
Co473 O479 2.058 . S
Co473 O489 2.057 . S
Co473 O504 2.037 . S
Co473 N508 2.145 . S
Co473 N529 2.257 . S
O474 Co472 2.143 . S
O474 Co473 2.160 . S
C475 O476 1.278 . S
C475 O483 1.224 . S
O476 C475 1.278 . S
C477 O478 1.245 . S
C477 O489 1.232 . S
O478 C477 1.245 . S
O479 Co473 2.058 . S
O479 C505 1.269 . S
O480 Co472 2.074 . S
O480 C505 1.257 . S
H481 C506 0.930 . S
H482 C512 0.930 . S
O483 Co472 2.093 . S
O483 C475 1.224 . S
H484 C516 0.929 . S
H485 C518 0.930 . S
H486 C519 0.930 . S
H487 C517 0.929 . S
H488 C520 0.928 . S
O489 Co473 2.057 . S
O489 C477 1.232 . S
H490 C509 0.929 . S
H491 C510 0.929 . S
H492 C522 0.931 . S
H493 C514 0.929 . S
H494 C523 0.930 . S
H495 C515 0.931 . S
O496 Co472 2.097 . S
O496 C524 1.214 . S
H497 C525 0.929 . S
H498 C526 0.929 . S
H499 C527 0.930 . S
H500 C528 0.929 . S
H501 C530 0.930 . S
H502 C507 0.930 . S
H503 C511 0.930 . S
O504 Co473 2.037 . S
O504 C524 1.234 . S
C505 O479 1.269 . S
C505 O480 1.257 . S
C506 H481 0.930 . S
C506 C509 1.388 . S
C506 C511 1.418 . S
C507 H502 0.930 . S
C507 C510 1.404 . S
C507 C511 1.353 . S
N508 Co473 2.145 . S
N508 C509 1.397 . S
N508 C510 1.334 . S
C509 H490 0.929 . S
C509 C506 1.388 . S
C509 N508 1.397 . S
C510 H491 0.929 . S
C510 C507 1.404 . S
C510 N508 1.334 . S
C511 H503 0.930 . S
C511 C506 1.418 . S
C511 C507 1.353 . S
C512 H482 0.930 . S
C512 N513 1.330 . S
C512 C514 1.446 . S
N513 Co472 2.151 . S
N513 C512 1.330 . S
N513 C517 1.418 . S
C514 H493 0.929 . S
C514 C512 1.446 . S
C514 C515 1.332 . S
C515 H495 0.931 . S
C515 C514 1.332 . S
C515 C516 1.267 . S
C516 H484 0.929 . S
C516 C515 1.267 . S
C516 C517 1.251 . S
C517 H487 0.929 . S
C517 N513 1.418 . S
C517 C516 1.251 . S
C518 H485 0.930 . S
C518 C520 1.406 . S
C518 C523 1.261 . S
C519 H486 0.930 . S
C519 N521 1.325 . S
C519 C522 1.357 . S
C520 H488 0.928 . S
C520 C518 1.406 . S
C520 N521 1.261 . S
N521 Co472 2.214 . S
N521 C519 1.325 . S
N521 C520 1.261 . S
C522 H492 0.931 . S
C522 C519 1.357 . S
C522 C523 1.312 . S
C523 H494 0.930 . S
C523 C518 1.261 . S
C523 C522 1.312 . S
C524 O496 1.214 . S
C524 O504 1.234 . S
C525 H497 0.929 . S
C525 C528 1.391 . S
C525 C530 1.391 . S
C526 H498 0.929 . S
C526 C527 1.390 . S
C526 N529 1.391 . S
C527 H499 0.930 . S
C527 C526 1.390 . S
C527 C528 1.392 . S
C528 H500 0.929 . S
C528 C525 1.391 . S
C528 C527 1.392 . S
N529 Co473 2.257 . S
N529 C526 1.391 . S
N529 C530 1.388 . S
C530 H501 0.930 . S
C530 C525 1.391 . S
C530 N529 1.388 . S
Co531 O533 2.143 . S
Co531 O539 2.074 . S
Co531 O542 2.093 . S
Co531 O555 2.097 . S
Co531 N572 2.151 . S
Co531 N580 2.214 . S
Co532 O533 2.160 . S
Co532 O538 2.058 . S
Co532 O548 2.057 . S
Co532 O563 2.037 . S
Co532 N567 2.145 . S
Co532 N588 2.257 . S
O533 Co531 2.143 . S
O533 Co532 2.160 . S
C534 O535 1.278 . S
C534 O542 1.224 . S
O535 C534 1.278 . S
C536 O537 1.245 . S
C536 O548 1.232 . S
O537 C536 1.245 . S
O538 Co532 2.058 . S
O538 C564 1.269 . S
O539 Co531 2.074 . S
O539 C564 1.257 . S
H540 C565 0.930 . S
H541 C571 0.930 . S
O542 Co531 2.093 . S
O542 C534 1.224 . S
H543 C575 0.929 . S
H544 C577 0.930 . S
H545 C578 0.930 . S
H546 C576 0.929 . S
H547 C579 0.928 . S
O548 Co532 2.057 . S
O548 C536 1.232 . S
H549 C568 0.929 . S
H550 C569 0.929 . S
H551 C581 0.931 . S
H552 C573 0.929 . S
H553 C582 0.930 . S
H554 C574 0.931 . S
O555 Co531 2.097 . S
O555 C583 1.214 . S
H556 C584 0.929 . S
H557 C585 0.929 . S
H558 C586 0.930 . S
H559 C587 0.929 . S
H560 C589 0.930 . S
H561 C566 0.930 . S
H562 C570 0.930 . S
O563 Co532 2.037 . S
O563 C583 1.234 . S
C564 O538 1.269 . S
C564 O539 1.257 . S
C565 H540 0.930 . S
C565 C568 1.388 . S
C565 C570 1.418 . S
C566 H561 0.930 . S
C566 C569 1.404 . S
C566 C570 1.353 . S
N567 Co532 2.145 . S
N567 C568 1.397 . S
N567 C569 1.334 . S
C568 H549 0.929 . S
C568 C565 1.388 . S
C568 N567 1.397 . S
C569 H550 0.929 . S
C569 C566 1.404 . S
C569 N567 1.334 . S
C570 H562 0.930 . S
C570 C565 1.418 . S
C570 C566 1.353 . S
C571 H541 0.930 . S
C571 N572 1.330 . S
C571 C573 1.446 . S
N572 Co531 2.151 . S
N572 C571 1.330 . S
N572 C576 1.418 . S
C573 H552 0.929 . S
C573 C571 1.446 . S
C573 C574 1.332 . S
C574 H554 0.931 . S
C574 C573 1.332 . S
C574 C575 1.267 . S
C575 H543 0.929 . S
C575 C574 1.267 . S
C575 C576 1.251 . S
C576 H546 0.929 . S
C576 N572 1.418 . S
C576 C575 1.251 . S
C577 H544 0.930 . S
C577 C579 1.406 . S
C577 C582 1.261 . S
C578 H545 0.930 . S
C578 N580 1.325 . S
C578 C581 1.357 . S
C579 H547 0.928 . S
C579 C577 1.406 . S
C579 N580 1.261 . S
N580 Co531 2.214 . S
N580 C578 1.325 . S
N580 C579 1.261 . S
C581 H551 0.931 . S
C581 C578 1.357 . S
C581 C582 1.312 . S
C582 H553 0.930 . S
C582 C577 1.261 . S
C582 C581 1.312 . S
C583 O555 1.214 . S
C583 O563 1.234 . S
C584 H556 0.929 . S
C584 C587 1.391 . S
C584 C589 1.391 . S
C585 H557 0.929 . S
C585 C586 1.390 . S
C585 N588 1.391 . S
C586 H558 0.930 . S
C586 C585 1.390 . S
C586 C587 1.392 . S
C587 H559 0.929 . S
C587 C584 1.391 . S
C587 C586 1.392 . S
N588 Co532 2.257 . S
N588 C585 1.391 . S
N588 C589 1.388 . S
C589 H560 0.930 . S
C589 C584 1.391 . S
C589 N588 1.388 . S
Co590 O592 2.143 . S
Co590 O598 2.074 . S
Co590 O601 2.093 . S
Co590 O614 2.097 . S
Co590 N631 2.151 . S
Co590 N639 2.214 . S
Co591 O592 2.160 . S
Co591 O597 2.058 . S
Co591 O607 2.057 . S
Co591 O622 2.037 . S
Co591 N626 2.145 . S
Co591 N647 2.257 . S
O592 Co590 2.143 . S
O592 Co591 2.160 . S
C593 O594 1.278 . S
C593 O601 1.224 . S
O594 C593 1.278 . S
C595 O596 1.245 . S
C595 O607 1.232 . S
O596 C595 1.245 . S
O597 Co591 2.058 . S
O597 C623 1.269 . S
O598 Co590 2.074 . S
O598 C623 1.257 . S
H599 C624 0.930 . S
H600 C630 0.930 . S
O601 Co590 2.093 . S
O601 C593 1.224 . S
H602 C634 0.929 . S
H603 C636 0.930 . S
H604 C637 0.930 . S
H605 C635 0.929 . S
H606 C638 0.928 . S
O607 Co591 2.057 . S
O607 C595 1.232 . S
H608 C627 0.929 . S
H609 C628 0.929 . S
H610 C640 0.931 . S
H611 C632 0.929 . S
H612 C641 0.930 . S
H613 C633 0.931 . S
O614 Co590 2.097 . S
O614 C642 1.214 . S
H615 C643 0.929 . S
H616 C644 0.929 . S
H617 C645 0.930 . S
H618 C646 0.929 . S
H619 C648 0.930 . S
H620 C625 0.930 . S
H621 C629 0.930 . S
O622 Co591 2.037 . S
O622 C642 1.234 . S
C623 O597 1.269 . S
C623 O598 1.257 . S
C624 H599 0.930 . S
C624 C627 1.388 . S
C624 C629 1.418 . S
C625 H620 0.930 . S
C625 C628 1.404 . S
C625 C629 1.353 . S
N626 Co591 2.145 . S
N626 C627 1.397 . S
N626 C628 1.334 . S
C627 H608 0.929 . S
C627 C624 1.388 . S
C627 N626 1.397 . S
C628 H609 0.929 . S
C628 C625 1.404 . S
C628 N626 1.334 . S
C629 H621 0.930 . S
C629 C624 1.418 . S
C629 C625 1.353 . S
C630 H600 0.930 . S
C630 N631 1.330 . S
C630 C632 1.446 . S
N631 Co590 2.151 . S
N631 C630 1.330 . S
N631 C635 1.418 . S
C632 H611 0.929 . S
C632 C630 1.446 . S
C632 C633 1.332 . S
C633 H613 0.931 . S
C633 C632 1.332 . S
C633 C634 1.267 . S
C634 H602 0.929 . S
C634 C633 1.267 . S
C634 C635 1.251 . S
C635 H605 0.929 . S
C635 N631 1.418 . S
C635 C634 1.251 . S
C636 H603 0.930 . S
C636 C638 1.406 . S
C636 C641 1.261 . S
C637 H604 0.930 . S
C637 N639 1.325 . S
C637 C640 1.357 . S
C638 H606 0.928 . S
C638 C636 1.406 . S
C638 N639 1.261 . S
N639 Co590 2.214 . S
N639 C637 1.325 . S
N639 C638 1.261 . S
C640 H610 0.931 . S
C640 C637 1.357 . S
C640 C641 1.312 . S
C641 H612 0.930 . S
C641 C636 1.261 . S
C641 C640 1.312 . S
C642 O614 1.214 . S
C642 O622 1.234 . S
C643 H615 0.929 . S
C643 C646 1.391 . S
C643 C648 1.391 . S
C644 H616 0.929 . S
C644 C645 1.390 . S
C644 N647 1.391 . S
C645 H617 0.930 . S
C645 C644 1.390 . S
C645 C646 1.392 . S
C646 H618 0.929 . S
C646 C643 1.391 . S
C646 C645 1.392 . S
N647 Co591 2.257 . S
N647 C644 1.391 . S
N647 C648 1.388 . S
C648 H619 0.930 . S
C648 C643 1.391 . S
C648 N647 1.388 . S
Co649 O651 2.143 . S
Co649 O657 2.074 . S
Co649 O660 2.093 . S
Co649 O673 2.097 . S
Co649 N690 2.151 . S
Co649 N698 2.214 . S
Co650 O651 2.160 . S
Co650 O656 2.058 . S
Co650 O666 2.057 . S
Co650 O681 2.037 . S
Co650 N685 2.145 . S
Co650 N706 2.257 . S
O651 Co649 2.143 . S
O651 Co650 2.160 . S
C652 O653 1.278 . S
C652 O660 1.224 . S
O653 C652 1.278 . S
C654 O655 1.245 . S
C654 O666 1.232 . S
O655 C654 1.245 . S
O656 Co650 2.058 . S
O656 C682 1.269 . S
O657 Co649 2.074 . S
O657 C682 1.257 . S
H658 C683 0.930 . S
H659 C689 0.930 . S
O660 Co649 2.093 . S
O660 C652 1.224 . S
H661 C693 0.929 . S
H662 C695 0.930 . S
H663 C696 0.930 . S
H664 C694 0.929 . S
H665 C697 0.928 . S
O666 Co650 2.057 . S
O666 C654 1.232 . S
H667 C686 0.929 . S
H668 C687 0.929 . S
H669 C699 0.931 . S
H670 C691 0.929 . S
H671 C700 0.930 . S
H672 C692 0.931 . S
O673 Co649 2.097 . S
O673 C701 1.214 . S
H674 C702 0.929 . S
H675 C703 0.929 . S
H676 C704 0.930 . S
H677 C705 0.929 . S
H678 C707 0.930 . S
H679 C684 0.930 . S
H680 C688 0.930 . S
O681 Co650 2.037 . S
O681 C701 1.234 . S
C682 O656 1.269 . S
C682 O657 1.257 . S
C683 H658 0.930 . S
C683 C686 1.388 . S
C683 C688 1.418 . S
C684 H679 0.930 . S
C684 C687 1.404 . S
C684 C688 1.353 . S
N685 Co650 2.145 . S
N685 C686 1.397 . S
N685 C687 1.334 . S
C686 H667 0.929 . S
C686 C683 1.388 . S
C686 N685 1.397 . S
C687 H668 0.929 . S
C687 C684 1.404 . S
C687 N685 1.334 . S
C688 H680 0.930 . S
C688 C683 1.418 . S
C688 C684 1.353 . S
C689 H659 0.930 . S
C689 N690 1.330 . S
C689 C691 1.446 . S
N690 Co649 2.151 . S
N690 C689 1.330 . S
N690 C694 1.418 . S
C691 H670 0.929 . S
C691 C689 1.446 . S
C691 C692 1.332 . S
C692 H672 0.931 . S
C692 C691 1.332 . S
C692 C693 1.267 . S
C693 H661 0.929 . S
C693 C692 1.267 . S
C693 C694 1.251 . S
C694 H664 0.929 . S
C694 N690 1.418 . S
C694 C693 1.251 . S
C695 H662 0.930 . S
C695 C697 1.406 . S
C695 C700 1.261 . S
C696 H663 0.930 . S
C696 N698 1.325 . S
C696 C699 1.357 . S
C697 H665 0.928 . S
C697 C695 1.406 . S
C697 N698 1.261 . S
N698 Co649 2.214 . S
N698 C696 1.325 . S
N698 C697 1.261 . S
C699 H669 0.931 . S
C699 C696 1.357 . S
C699 C700 1.312 . S
C700 H671 0.930 . S
C700 C695 1.261 . S
C700 C699 1.312 . S
C701 O673 1.214 . S
C701 O681 1.234 . S
C702 H674 0.929 . S
C702 C705 1.391 . S
C702 C707 1.391 . S
C703 H675 0.929 . S
C703 C704 1.390 . S
C703 N706 1.391 . S
C704 H676 0.930 . S
C704 C703 1.390 . S
C704 C705 1.392 . S
C705 H677 0.929 . S
C705 C702 1.391 . S
C705 C704 1.392 . S
N706 Co650 2.257 . S
N706 C703 1.391 . S
N706 C707 1.388 . S
C707 H678 0.930 . S
C707 C702 1.391 . S
C707 N706 1.388 . S
Co708 O710 2.143 . S
Co708 O716 2.074 . S
Co708 O719 2.093 . S
Co708 O732 2.097 . S
Co708 N749 2.151 . S
Co708 N757 2.214 . S
Co709 O710 2.160 . S
Co709 O715 2.058 . S
Co709 O725 2.057 . S
Co709 O740 2.037 . S
Co709 N744 2.145 . S
Co709 N765 2.257 . S
O710 Co708 2.143 . S
O710 Co709 2.160 . S
C711 O712 1.278 . S
C711 O719 1.224 . S
O712 C711 1.278 . S
C713 O714 1.245 . S
C713 O725 1.232 . S
O714 C713 1.245 . S
O715 Co709 2.058 . S
O715 C741 1.269 . S
O716 Co708 2.074 . S
O716 C741 1.257 . S
H717 C742 0.930 . S
H718 C748 0.930 . S
O719 Co708 2.093 . S
O719 C711 1.224 . S
H720 C752 0.929 . S
H721 C754 0.930 . S
H722 C755 0.930 . S
H723 C753 0.929 . S
H724 C756 0.928 . S
O725 Co709 2.057 . S
O725 C713 1.232 . S
H726 C745 0.929 . S
H727 C746 0.929 . S
H728 C758 0.931 . S
H729 C750 0.929 . S
H730 C759 0.930 . S
H731 C751 0.931 . S
O732 Co708 2.097 . S
O732 C760 1.214 . S
H733 C761 0.929 . S
H734 C762 0.929 . S
H735 C763 0.930 . S
H736 C764 0.929 . S
H737 C766 0.930 . S
H738 C743 0.930 . S
H739 C747 0.930 . S
O740 Co709 2.037 . S
O740 C760 1.234 . S
C741 O715 1.269 . S
C741 O716 1.257 . S
C742 H717 0.930 . S
C742 C745 1.388 . S
C742 C747 1.418 . S
C743 H738 0.930 . S
C743 C746 1.404 . S
C743 C747 1.353 . S
N744 Co709 2.145 . S
N744 C745 1.397 . S
N744 C746 1.334 . S
C745 H726 0.929 . S
C745 C742 1.388 . S
C745 N744 1.397 . S
C746 H727 0.929 . S
C746 C743 1.404 . S
C746 N744 1.334 . S
C747 H739 0.930 . S
C747 C742 1.418 . S
C747 C743 1.353 . S
C748 H718 0.930 . S
C748 N749 1.330 . S
C748 C750 1.446 . S
N749 Co708 2.151 . S
N749 C748 1.330 . S
N749 C753 1.418 . S
C750 H729 0.929 . S
C750 C748 1.446 . S
C750 C751 1.332 . S
C751 H731 0.931 . S
C751 C750 1.332 . S
C751 C752 1.267 . S
C752 H720 0.929 . S
C752 C751 1.267 . S
C752 C753 1.251 . S
C753 H723 0.929 . S
C753 N749 1.418 . S
C753 C752 1.251 . S
C754 H721 0.930 . S
C754 C756 1.406 . S
C754 C759 1.261 . S
C755 H722 0.930 . S
C755 N757 1.325 . S
C755 C758 1.357 . S
C756 H724 0.928 . S
C756 C754 1.406 . S
C756 N757 1.261 . S
N757 Co708 2.214 . S
N757 C755 1.325 . S
N757 C756 1.261 . S
C758 H728 0.931 . S
C758 C755 1.357 . S
C758 C759 1.312 . S
C759 H730 0.930 . S
C759 C754 1.261 . S
C759 C758 1.312 . S
C760 O732 1.214 . S
C760 O740 1.234 . S
C761 H733 0.929 . S
C761 C764 1.391 . S
C761 C766 1.391 . S
C762 H734 0.929 . S
C762 C763 1.390 . S
C762 N765 1.391 . S
C763 H735 0.930 . S
C763 C762 1.390 . S
C763 C764 1.392 . S
C764 H736 0.929 . S
C764 C761 1.391 . S
C764 C763 1.392 . S
N765 Co709 2.257 . S
N765 C762 1.391 . S
N765 C766 1.388 . S
C766 H737 0.930 . S
C766 C761 1.391 . S
C766 N765 1.388 . S
Co767 O769 2.143 . S
Co767 O775 2.074 . S
Co767 O778 2.093 . S
Co767 O791 2.097 . S
Co767 N808 2.151 . S
Co767 N816 2.214 . S
Co768 O769 2.160 . S
Co768 O774 2.058 . S
Co768 O784 2.057 . S
Co768 O799 2.037 . S
Co768 N803 2.145 . S
Co768 N824 2.257 . S
O769 Co767 2.143 . S
O769 Co768 2.160 . S
C770 O771 1.278 . S
C770 O778 1.224 . S
O771 C770 1.278 . S
C772 O773 1.245 . S
C772 O784 1.232 . S
O773 C772 1.245 . S
O774 Co768 2.058 . S
O774 C800 1.269 . S
O775 Co767 2.074 . S
O775 C800 1.257 . S
H776 C801 0.930 . S
H777 C807 0.930 . S
O778 Co767 2.093 . S
O778 C770 1.224 . S
H779 C811 0.929 . S
H780 C813 0.930 . S
H781 C814 0.930 . S
H782 C812 0.929 . S
H783 C815 0.928 . S
O784 Co768 2.057 . S
O784 C772 1.232 . S
H785 C804 0.929 . S
H786 C805 0.929 . S
H787 C817 0.931 . S
H788 C809 0.929 . S
H789 C818 0.930 . S
H790 C810 0.931 . S
O791 Co767 2.097 . S
O791 C819 1.214 . S
H792 C820 0.929 . S
H793 C821 0.929 . S
H794 C822 0.930 . S
H795 C823 0.929 . S
H796 C825 0.930 . S
H797 C802 0.930 . S
H798 C806 0.930 . S
O799 Co768 2.037 . S
O799 C819 1.234 . S
C800 O774 1.269 . S
C800 O775 1.257 . S
C801 H776 0.930 . S
C801 C804 1.388 . S
C801 C806 1.418 . S
C802 H797 0.930 . S
C802 C805 1.404 . S
C802 C806 1.353 . S
N803 Co768 2.145 . S
N803 C804 1.397 . S
N803 C805 1.334 . S
C804 H785 0.929 . S
C804 C801 1.388 . S
C804 N803 1.397 . S
C805 H786 0.929 . S
C805 C802 1.404 . S
C805 N803 1.334 . S
C806 H798 0.930 . S
C806 C801 1.418 . S
C806 C802 1.353 . S
C807 H777 0.930 . S
C807 N808 1.330 . S
C807 C809 1.446 . S
N808 Co767 2.151 . S
N808 C807 1.330 . S
N808 C812 1.418 . S
C809 H788 0.929 . S
C809 C807 1.446 . S
C809 C810 1.332 . S
C810 H790 0.931 . S
C810 C809 1.332 . S
C810 C811 1.267 . S
C811 H779 0.929 . S
C811 C810 1.267 . S
C811 C812 1.251 . S
C812 H782 0.929 . S
C812 N808 1.418 . S
C812 C811 1.251 . S
C813 H780 0.930 . S
C813 C815 1.406 . S
C813 C818 1.261 . S
C814 H781 0.930 . S
C814 N816 1.325 . S
C814 C817 1.357 . S
C815 H783 0.928 . S
C815 C813 1.406 . S
C815 N816 1.261 . S
N816 Co767 2.214 . S
N816 C814 1.325 . S
N816 C815 1.261 . S
C817 H787 0.931 . S
C817 C814 1.357 . S
C817 C818 1.312 . S
C818 H789 0.930 . S
C818 C813 1.261 . S
C818 C817 1.312 . S
C819 O791 1.214 . S
C819 O799 1.234 . S
C820 H792 0.929 . S
C820 C823 1.391 . S
C820 C825 1.391 . S
C821 H793 0.929 . S
C821 C822 1.390 . S
C821 N824 1.391 . S
C822 H794 0.930 . S
C822 C821 1.390 . S
C822 C823 1.392 . S
C823 H795 0.929 . S
C823 C820 1.391 . S
C823 C822 1.392 . S
N824 Co768 2.257 . S
N824 C821 1.391 . S
N824 C825 1.388 . S
C825 H796 0.930 . S
C825 C820 1.391 . S
C825 N824 1.388 . S
Co826 O828 2.143 . S
Co826 O834 2.074 . S
Co826 O837 2.093 . S
Co826 O850 2.097 . S
Co826 N867 2.151 . S
Co826 N875 2.214 . S
Co827 O828 2.160 . S
Co827 O833 2.058 . S
Co827 O843 2.057 . S
Co827 O858 2.037 . S
Co827 N862 2.145 . S
Co827 N883 2.257 . S
O828 Co826 2.143 . S
O828 Co827 2.160 . S
C829 O830 1.278 . S
C829 O837 1.224 . S
O830 C829 1.278 . S
C831 O832 1.245 . S
C831 O843 1.232 . S
O832 C831 1.245 . S
O833 Co827 2.058 . S
O833 C859 1.269 . S
O834 Co826 2.074 . S
O834 C859 1.257 . S
H835 C860 0.930 . S
H836 C866 0.930 . S
O837 Co826 2.093 . S
O837 C829 1.224 . S
H838 C870 0.929 . S
H839 C872 0.930 . S
H840 C873 0.930 . S
H841 C871 0.929 . S
H842 C874 0.928 . S
O843 Co827 2.057 . S
O843 C831 1.232 . S
H844 C863 0.929 . S
H845 C864 0.929 . S
H846 C876 0.931 . S
H847 C868 0.929 . S
H848 C877 0.930 . S
H849 C869 0.931 . S
O850 Co826 2.097 . S
O850 C878 1.214 . S
H851 C879 0.929 . S
H852 C880 0.929 . S
H853 C881 0.930 . S
H854 C882 0.929 . S
H855 C884 0.930 . S
H856 C861 0.930 . S
H857 C865 0.930 . S
O858 Co827 2.037 . S
O858 C878 1.234 . S
C859 O833 1.269 . S
C859 O834 1.257 . S
C860 H835 0.930 . S
C860 C863 1.388 . S
C860 C865 1.418 . S
C861 H856 0.930 . S
C861 C864 1.404 . S
C861 C865 1.353 . S
N862 Co827 2.145 . S
N862 C863 1.397 . S
N862 C864 1.334 . S
C863 H844 0.929 . S
C863 C860 1.388 . S
C863 N862 1.397 . S
C864 H845 0.929 . S
C864 C861 1.404 . S
C864 N862 1.334 . S
C865 H857 0.930 . S
C865 C860 1.418 . S
C865 C861 1.353 . S
C866 H836 0.930 . S
C866 N867 1.330 . S
C866 C868 1.446 . S
N867 Co826 2.151 . S
N867 C866 1.330 . S
N867 C871 1.418 . S
C868 H847 0.929 . S
C868 C866 1.446 . S
C868 C869 1.332 . S
C869 H849 0.931 . S
C869 C868 1.332 . S
C869 C870 1.267 . S
C870 H838 0.929 . S
C870 C869 1.267 . S
C870 C871 1.251 . S
C871 H841 0.929 . S
C871 N867 1.418 . S
C871 C870 1.251 . S
C872 H839 0.930 . S
C872 C874 1.406 . S
C872 C877 1.261 . S
C873 H840 0.930 . S
C873 N875 1.325 . S
C873 C876 1.357 . S
C874 H842 0.928 . S
C874 C872 1.406 . S
C874 N875 1.261 . S
N875 Co826 2.214 . S
N875 C873 1.325 . S
N875 C874 1.261 . S
C876 H846 0.931 . S
C876 C873 1.357 . S
C876 C877 1.312 . S
C877 H848 0.930 . S
C877 C872 1.261 . S
C877 C876 1.312 . S
C878 O850 1.214 . S
C878 O858 1.234 . S
C879 H851 0.929 . S
C879 C882 1.391 . S
C879 C884 1.391 . S
C880 H852 0.929 . S
C880 C881 1.390 . S
C880 N883 1.391 . S
C881 H853 0.930 . S
C881 C880 1.390 . S
C881 C882 1.392 . S
C882 H854 0.929 . S
C882 C879 1.391 . S
C882 C881 1.392 . S
N883 Co827 2.257 . S
N883 C880 1.391 . S
N883 C884 1.388 . S
C884 H855 0.930 . S
C884 C879 1.391 . S
C884 N883 1.388 . S
Co885 O887 2.143 . S
Co885 O893 2.074 . S
Co885 O896 2.093 . S
Co885 O909 2.097 . S
Co885 N926 2.151 . S
Co885 N934 2.214 . S
Co886 O887 2.160 . S
Co886 O892 2.058 . S
Co886 O902 2.057 . S
Co886 O917 2.037 . S
Co886 N921 2.145 . S
Co886 N942 2.257 . S
O887 Co885 2.143 . S
O887 Co886 2.160 . S
C888 O889 1.278 . S
C888 O896 1.224 . S
O889 C888 1.278 . S
C890 O891 1.245 . S
C890 O902 1.232 . S
O891 C890 1.245 . S
O892 Co886 2.058 . S
O892 C918 1.269 . S
O893 Co885 2.074 . S
O893 C918 1.257 . S
H894 C919 0.930 . S
H895 C925 0.930 . S
O896 Co885 2.093 . S
O896 C888 1.224 . S
H897 C929 0.929 . S
H898 C931 0.930 . S
H899 C932 0.930 . S
H900 C930 0.929 . S
H901 C933 0.928 . S
O902 Co886 2.057 . S
O902 C890 1.232 . S
H903 C922 0.929 . S
H904 C923 0.929 . S
H905 C935 0.931 . S
H906 C927 0.929 . S
H907 C936 0.930 . S
H908 C928 0.931 . S
O909 Co885 2.097 . S
O909 C937 1.214 . S
H910 C938 0.929 . S
H911 C939 0.929 . S
H912 C940 0.930 . S
H913 C941 0.929 . S
H914 C943 0.930 . S
H915 C920 0.930 . S
H916 C924 0.930 . S
O917 Co886 2.037 . S
O917 C937 1.234 . S
C918 O892 1.269 . S
C918 O893 1.257 . S
C919 H894 0.930 . S
C919 C922 1.388 . S
C919 C924 1.418 . S
C920 H915 0.930 . S
C920 C923 1.404 . S
C920 C924 1.353 . S
N921 Co886 2.145 . S
N921 C922 1.397 . S
N921 C923 1.334 . S
C922 H903 0.929 . S
C922 C919 1.388 . S
C922 N921 1.397 . S
C923 H904 0.929 . S
C923 C920 1.404 . S
C923 N921 1.334 . S
C924 H916 0.930 . S
C924 C919 1.418 . S
C924 C920 1.353 . S
C925 H895 0.930 . S
C925 N926 1.330 . S
C925 C927 1.446 . S
N926 Co885 2.151 . S
N926 C925 1.330 . S
N926 C930 1.418 . S
C927 H906 0.929 . S
C927 C925 1.446 . S
C927 C928 1.332 . S
C928 H908 0.931 . S
C928 C927 1.332 . S
C928 C929 1.267 . S
C929 H897 0.929 . S
C929 C928 1.267 . S
C929 C930 1.251 . S
C930 H900 0.929 . S
C930 N926 1.418 . S
C930 C929 1.251 . S
C931 H898 0.930 . S
C931 C933 1.406 . S
C931 C936 1.261 . S
C932 H899 0.930 . S
C932 N934 1.325 . S
C932 C935 1.357 . S
C933 H901 0.928 . S
C933 C931 1.406 . S
C933 N934 1.261 . S
N934 Co885 2.214 . S
N934 C932 1.325 . S
N934 C933 1.261 . S
C935 H905 0.931 . S
C935 C932 1.357 . S
C935 C936 1.312 . S
C936 H907 0.930 . S
C936 C931 1.261 . S
C936 C935 1.312 . S
C937 O909 1.214 . S
C937 O917 1.234 . S
C938 H910 0.929 . S
C938 C941 1.391 . S
C938 C943 1.391 . S
C939 H911 0.929 . S
C939 C940 1.390 . S
C939 N942 1.391 . S
C940 H912 0.930 . S
C940 C939 1.390 . S
C940 C941 1.392 . S
C941 H913 0.929 . S
C941 C938 1.391 . S
C941 C940 1.392 . S
N942 Co886 2.257 . S
N942 C939 1.391 . S
N942 C943 1.388 . S
C943 H914 0.930 . S
C943 C938 1.391 . S
C943 N942 1.388 . S
Co944 O946 2.143 . S
Co944 O952 2.074 . S
Co944 O955 2.093 . S
Co944 O968 2.097 . S
Co944 N985 2.151 . S
Co944 N993 2.214 . S
Co945 O946 2.160 . S
Co945 O951 2.058 . S
Co945 O961 2.057 . S
Co945 O976 2.037 . S
Co945 N980 2.145 . S
Co945 N1001 2.257 . S
O946 Co944 2.143 . S
O946 Co945 2.160 . S
C947 O948 1.278 . S
C947 O955 1.224 . S
O948 C947 1.278 . S
C949 O950 1.245 . S
C949 O961 1.232 . S
O950 C949 1.245 . S
O951 Co945 2.058 . S
O951 C977 1.269 . S
O952 Co944 2.074 . S
O952 C977 1.257 . S
H953 C978 0.930 . S
H954 C984 0.930 . S
O955 Co944 2.093 . S
O955 C947 1.224 . S
H956 C988 0.929 . S
H957 C990 0.930 . S
H958 C991 0.930 . S
H959 C989 0.929 . S
H960 C992 0.928 . S
O961 Co945 2.057 . S
O961 C949 1.232 . S
H962 C981 0.929 . S
H963 C982 0.929 . S
H964 C994 0.931 . S
H965 C986 0.929 . S
H966 C995 0.930 . S
H967 C987 0.931 . S
O968 Co944 2.097 . S
O968 C996 1.214 . S
H969 C997 0.929 . S
H970 C998 0.929 . S
H971 C999 0.930 . S
H972 C1000 0.929 . S
H973 C1002 0.930 . S
H974 C979 0.930 . S
H975 C983 0.930 . S
O976 Co945 2.037 . S
O976 C996 1.234 . S
C977 O951 1.269 . S
C977 O952 1.257 . S
C978 H953 0.930 . S
C978 C981 1.388 . S
C978 C983 1.418 . S
C979 H974 0.930 . S
C979 C982 1.404 . S
C979 C983 1.353 . S
N980 Co945 2.145 . S
N980 C981 1.397 . S
N980 C982 1.334 . S
C981 H962 0.929 . S
C981 C978 1.388 . S
C981 N980 1.397 . S
C982 H963 0.929 . S
C982 C979 1.404 . S
C982 N980 1.334 . S
C983 H975 0.930 . S
C983 C978 1.418 . S
C983 C979 1.353 . S
C984 H954 0.930 . S
C984 N985 1.330 . S
C984 C986 1.446 . S
N985 Co944 2.151 . S
N985 C984 1.330 . S
N985 C989 1.418 . S
C986 H965 0.929 . S
C986 C984 1.446 . S
C986 C987 1.332 . S
C987 H967 0.931 . S
C987 C986 1.332 . S
C987 C988 1.267 . S
C988 H956 0.929 . S
C988 C987 1.267 . S
C988 C989 1.251 . S
C989 H959 0.929 . S
C989 N985 1.418 . S
C989 C988 1.251 . S
C990 H957 0.930 . S
C990 C992 1.406 . S
C990 C995 1.261 . S
C991 H958 0.930 . S
C991 N993 1.325 . S
C991 C994 1.357 . S
C992 H960 0.928 . S
C992 C990 1.406 . S
C992 N993 1.261 . S
N993 Co944 2.214 . S
N993 C991 1.325 . S
N993 C992 1.261 . S
C994 H964 0.931 . S
C994 C991 1.357 . S
C994 C995 1.312 . S
C995 H966 0.930 . S
C995 C990 1.261 . S
C995 C994 1.312 . S
C996 O968 1.214 . S
C996 O976 1.234 . S
C997 H969 0.929 . S
C997 C1000 1.391 . S
C997 C1002 1.391 . S
C998 H970 0.929 . S
C998 C999 1.390 . S
C998 N1001 1.391 . S
C999 H971 0.930 . S
C999 C998 1.390 . S
C999 C1000 1.392 . S
C1000 H972 0.929 . S
C1000 C997 1.391 . S
C1000 C999 1.392 . S
N1001 Co945 2.257 . S
N1001 C998 1.391 . S
N1001 C1002 1.388 . S
C1002 H973 0.930 . S
C1002 C997 1.391 . S
C1002 N1001 1.388 . S
Co1003 O1005 2.143 . S
Co1003 O1011 2.074 . S
Co1003 O1014 2.093 . S
Co1003 O1027 2.097 . S
Co1003 N1044 2.151 . S
Co1003 N1052 2.214 . S
Co1004 O1005 2.160 . S
Co1004 O1010 2.058 . S
Co1004 O1020 2.057 . S
Co1004 O1035 2.037 . S
Co1004 N1039 2.145 . S
Co1004 N1060 2.257 . S
O1005 Co1003 2.143 . S
O1005 Co1004 2.160 . S
C1006 O1007 1.278 . S
C1006 O1014 1.224 . S
O1007 C1006 1.278 . S
C1008 O1009 1.245 . S
C1008 O1020 1.232 . S
O1009 C1008 1.245 . S
O1010 Co1004 2.058 . S
O1010 C1036 1.269 . S
O1011 Co1003 2.074 . S
O1011 C1036 1.257 . S
H1012 C1037 0.930 . S
H1013 C1043 0.930 . S
O1014 Co1003 2.093 . S
O1014 C1006 1.224 . S
H1015 C1047 0.929 . S
H1016 C1049 0.930 . S
H1017 C1050 0.930 . S
H1018 C1048 0.929 . S
H1019 C1051 0.928 . S
O1020 Co1004 2.057 . S
O1020 C1008 1.232 . S
H1021 C1040 0.929 . S
H1022 C1041 0.929 . S
H1023 C1053 0.931 . S
H1024 C1045 0.929 . S
H1025 C1054 0.930 . S
H1026 C1046 0.931 . S
O1027 Co1003 2.097 . S
O1027 C1055 1.214 . S
H1028 C1056 0.929 . S
H1029 C1057 0.929 . S
H1030 C1058 0.930 . S
H1031 C1059 0.929 . S
H1032 C1061 0.930 . S
H1033 C1038 0.930 . S
H1034 C1042 0.930 . S
O1035 Co1004 2.037 . S
O1035 C1055 1.234 . S
C1036 O1010 1.269 . S
C1036 O1011 1.257 . S
C1037 H1012 0.930 . S
C1037 C1040 1.388 . S
C1037 C1042 1.418 . S
C1038 H1033 0.930 . S
C1038 C1041 1.404 . S
C1038 C1042 1.353 . S
N1039 Co1004 2.145 . S
N1039 C1040 1.397 . S
N1039 C1041 1.334 . S
C1040 H1021 0.929 . S
C1040 C1037 1.388 . S
C1040 N1039 1.397 . S
C1041 H1022 0.929 . S
C1041 C1038 1.404 . S
C1041 N1039 1.334 . S
C1042 H1034 0.930 . S
C1042 C1037 1.418 . S
C1042 C1038 1.353 . S
C1043 H1013 0.930 . S
C1043 N1044 1.330 . S
C1043 C1045 1.446 . S
N1044 Co1003 2.151 . S
N1044 C1043 1.330 . S
N1044 C1048 1.418 . S
C1045 H1024 0.929 . S
C1045 C1043 1.446 . S
C1045 C1046 1.332 . S
C1046 H1026 0.931 . S
C1046 C1045 1.332 . S
C1046 C1047 1.267 . S
C1047 H1015 0.929 . S
C1047 C1046 1.267 . S
C1047 C1048 1.251 . S
C1048 H1018 0.929 . S
C1048 N1044 1.418 . S
C1048 C1047 1.251 . S
C1049 H1016 0.930 . S
C1049 C1051 1.406 . S
C1049 C1054 1.261 . S
C1050 H1017 0.930 . S
C1050 N1052 1.325 . S
C1050 C1053 1.357 . S
C1051 H1019 0.928 . S
C1051 C1049 1.406 . S
C1051 N1052 1.261 . S
N1052 Co1003 2.214 . S
N1052 C1050 1.325 . S
N1052 C1051 1.261 . S
C1053 H1023 0.931 . S
C1053 C1050 1.357 . S
C1053 C1054 1.312 . S
C1054 H1025 0.930 . S
C1054 C1049 1.261 . S
C1054 C1053 1.312 . S
C1055 O1027 1.214 . S
C1055 O1035 1.234 . S
C1056 H1028 0.929 . S
C1056 C1059 1.391 . S
C1056 C1061 1.391 . S
C1057 H1029 0.929 . S
C1057 C1058 1.390 . S
C1057 N1060 1.391 . S
C1058 H1030 0.930 . S
C1058 C1057 1.390 . S
C1058 C1059 1.392 . S
C1059 H1031 0.929 . S
C1059 C1056 1.391 . S
C1059 C1058 1.392 . S
N1060 Co1004 2.257 . S
N1060 C1057 1.391 . S
N1060 C1061 1.388 . S
C1061 H1032 0.930 . S
C1061 C1056 1.391 . S
C1061 N1060 1.388 . S
Co1062 O1064 2.143 . S
Co1062 O1070 2.074 . S
Co1062 O1073 2.093 . S
Co1062 O1086 2.097 . S
Co1062 N1103 2.151 . S
Co1062 N1111 2.214 . S
Co1063 O1064 2.160 . S
Co1063 O1069 2.058 . S
Co1063 O1079 2.057 . S
Co1063 O1094 2.037 . S
Co1063 N1098 2.145 . S
Co1063 N1119 2.257 . S
O1064 Co1062 2.143 . S
O1064 Co1063 2.160 . S
C1065 O1066 1.278 . S
C1065 O1073 1.224 . S
O1066 C1065 1.278 . S
C1067 O1068 1.245 . S
C1067 O1079 1.232 . S
O1068 C1067 1.245 . S
O1069 Co1063 2.058 . S
O1069 C1095 1.269 . S
O1070 Co1062 2.074 . S
O1070 C1095 1.257 . S
H1071 C1096 0.930 . S
H1072 C1102 0.930 . S
O1073 Co1062 2.093 . S
O1073 C1065 1.224 . S
H1074 C1106 0.929 . S
H1075 C1108 0.930 . S
H1076 C1109 0.930 . S
H1077 C1107 0.929 . S
H1078 C1110 0.928 . S
O1079 Co1063 2.057 . S
O1079 C1067 1.232 . S
H1080 C1099 0.929 . S
H1081 C1100 0.929 . S
H1082 C1112 0.931 . S
H1083 C1104 0.929 . S
H1084 C1113 0.930 . S
H1085 C1105 0.931 . S
O1086 Co1062 2.097 . S
O1086 C1114 1.214 . S
H1087 C1115 0.929 . S
H1088 C1116 0.929 . S
H1089 C1117 0.930 . S
H1090 C1118 0.929 . S
H1091 C1120 0.930 . S
H1092 C1097 0.930 . S
H1093 C1101 0.930 . S
O1094 Co1063 2.037 . S
O1094 C1114 1.234 . S
C1095 O1069 1.269 . S
C1095 O1070 1.257 . S
C1096 H1071 0.930 . S
C1096 C1099 1.388 . S
C1096 C1101 1.418 . S
C1097 H1092 0.930 . S
C1097 C1100 1.404 . S
C1097 C1101 1.353 . S
N1098 Co1063 2.145 . S
N1098 C1099 1.397 . S
N1098 C1100 1.334 . S
C1099 H1080 0.929 . S
C1099 C1096 1.388 . S
C1099 N1098 1.397 . S
C1100 H1081 0.929 . S
C1100 C1097 1.404 . S
C1100 N1098 1.334 . S
C1101 H1093 0.930 . S
C1101 C1096 1.418 . S
C1101 C1097 1.353 . S
C1102 H1072 0.930 . S
C1102 N1103 1.330 . S
C1102 C1104 1.446 . S
N1103 Co1062 2.151 . S
N1103 C1102 1.330 . S
N1103 C1107 1.418 . S
C1104 H1083 0.929 . S
C1104 C1102 1.446 . S
C1104 C1105 1.332 . S
C1105 H1085 0.931 . S
C1105 C1104 1.332 . S
C1105 C1106 1.267 . S
C1106 H1074 0.929 . S
C1106 C1105 1.267 . S
C1106 C1107 1.251 . S
C1107 H1077 0.929 . S
C1107 N1103 1.418 . S
C1107 C1106 1.251 . S
C1108 H1075 0.930 . S
C1108 C1110 1.406 . S
C1108 C1113 1.261 . S
C1109 H1076 0.930 . S
C1109 N1111 1.325 . S
C1109 C1112 1.357 . S
C1110 H1078 0.928 . S
C1110 C1108 1.406 . S
C1110 N1111 1.261 . S
N1111 Co1062 2.214 . S
N1111 C1109 1.325 . S
N1111 C1110 1.261 . S
C1112 H1082 0.931 . S
C1112 C1109 1.357 . S
C1112 C1113 1.312 . S
C1113 H1084 0.930 . S
C1113 C1108 1.261 . S
C1113 C1112 1.312 . S
C1114 O1086 1.214 . S
C1114 O1094 1.234 . S
C1115 H1087 0.929 . S
C1115 C1118 1.391 . S
C1115 C1120 1.391 . S
C1116 H1088 0.929 . S
C1116 C1117 1.390 . S
C1116 N1119 1.391 . S
C1117 H1089 0.930 . S
C1117 C1116 1.390 . S
C1117 C1118 1.392 . S
C1118 H1090 0.929 . S
C1118 C1115 1.391 . S
C1118 C1117 1.392 . S
N1119 Co1063 2.257 . S
N1119 C1116 1.391 . S
N1119 C1120 1.388 . S
C1120 H1091 0.930 . S
C1120 C1115 1.391 . S
C1120 N1119 1.388 . S
Co1121 O1123 2.143 . S
Co1121 O1129 2.074 . S
Co1121 O1132 2.093 . S
Co1121 O1145 2.097 . S
Co1121 N1162 2.151 . S
Co1121 N1170 2.214 . S
Co1122 O1123 2.160 . S
Co1122 O1128 2.058 . S
Co1122 O1138 2.057 . S
Co1122 O1153 2.037 . S
Co1122 N1157 2.145 . S
Co1122 N1178 2.257 . S
O1123 Co1121 2.143 . S
O1123 Co1122 2.160 . S
C1124 O1125 1.278 . S
C1124 O1132 1.224 . S
O1125 C1124 1.278 . S
C1126 O1127 1.245 . S
C1126 O1138 1.232 . S
O1127 C1126 1.245 . S
O1128 Co1122 2.058 . S
O1128 C1154 1.269 . S
O1129 Co1121 2.074 . S
O1129 C1154 1.257 . S
H1130 C1155 0.930 . S
H1131 C1161 0.930 . S
O1132 Co1121 2.093 . S
O1132 C1124 1.224 . S
H1133 C1165 0.929 . S
H1134 C1167 0.930 . S
H1135 C1168 0.930 . S
H1136 C1166 0.929 . S
H1137 C1169 0.928 . S
O1138 Co1122 2.057 . S
O1138 C1126 1.232 . S
H1139 C1158 0.929 . S
H1140 C1159 0.929 . S
H1141 C1171 0.931 . S
H1142 C1163 0.929 . S
H1143 C1172 0.930 . S
H1144 C1164 0.931 . S
O1145 Co1121 2.097 . S
O1145 C1173 1.214 . S
H1146 C1174 0.929 . S
H1147 C1175 0.929 . S
H1148 C1176 0.930 . S
H1149 C1177 0.929 . S
H1150 C1179 0.930 . S
H1151 C1156 0.930 . S
H1152 C1160 0.930 . S
O1153 Co1122 2.037 . S
O1153 C1173 1.234 . S
C1154 O1128 1.269 . S
C1154 O1129 1.257 . S
C1155 H1130 0.930 . S
C1155 C1158 1.388 . S
C1155 C1160 1.418 . S
C1156 H1151 0.930 . S
C1156 C1159 1.404 . S
C1156 C1160 1.353 . S
N1157 Co1122 2.145 . S
N1157 C1158 1.397 . S
N1157 C1159 1.334 . S
C1158 H1139 0.929 . S
C1158 C1155 1.388 . S
C1158 N1157 1.397 . S
C1159 H1140 0.929 . S
C1159 C1156 1.404 . S
C1159 N1157 1.334 . S
C1160 H1152 0.930 . S
C1160 C1155 1.418 . S
C1160 C1156 1.353 . S
C1161 H1131 0.930 . S
C1161 N1162 1.330 . S
C1161 C1163 1.446 . S
N1162 Co1121 2.151 . S
N1162 C1161 1.330 . S
N1162 C1166 1.418 . S
C1163 H1142 0.929 . S
C1163 C1161 1.446 . S
C1163 C1164 1.332 . S
C1164 H1144 0.931 . S
C1164 C1163 1.332 . S
C1164 C1165 1.267 . S
C1165 H1133 0.929 . S
C1165 C1164 1.267 . S
C1165 C1166 1.251 . S
C1166 H1136 0.929 . S
C1166 N1162 1.418 . S
C1166 C1165 1.251 . S
C1167 H1134 0.930 . S
C1167 C1169 1.406 . S
C1167 C1172 1.261 . S
C1168 H1135 0.930 . S
C1168 N1170 1.325 . S
C1168 C1171 1.357 . S
C1169 H1137 0.928 . S
C1169 C1167 1.406 . S
C1169 N1170 1.261 . S
N1170 Co1121 2.214 . S
N1170 C1168 1.325 . S
N1170 C1169 1.261 . S
C1171 H1141 0.931 . S
C1171 C1168 1.357 . S
C1171 C1172 1.312 . S
C1172 H1143 0.930 . S
C1172 C1167 1.261 . S
C1172 C1171 1.312 . S
C1173 O1145 1.214 . S
C1173 O1153 1.234 . S
C1174 H1146 0.929 . S
C1174 C1177 1.391 . S
C1174 C1179 1.391 . S
C1175 H1147 0.929 . S
C1175 C1176 1.390 . S
C1175 N1178 1.391 . S
C1176 H1148 0.930 . S
C1176 C1175 1.390 . S
C1176 C1177 1.392 . S
C1177 H1149 0.929 . S
C1177 C1174 1.391 . S
C1177 C1176 1.392 . S
N1178 Co1122 2.257 . S
N1178 C1175 1.391 . S
N1178 C1179 1.388 . S
C1179 H1150 0.930 . S
C1179 C1174 1.391 . S
C1179 N1178 1.388 . S
Co1180 O1182 2.143 . S
Co1180 O1188 2.074 . S
Co1180 O1191 2.093 . S
Co1180 O1204 2.097 . S
Co1180 N1221 2.151 . S
Co1180 N1229 2.214 . S
Co1181 O1182 2.160 . S
Co1181 O1187 2.058 . S
Co1181 O1197 2.057 . S
Co1181 O1212 2.037 . S
Co1181 N1216 2.145 . S
Co1181 N1237 2.257 . S
O1182 Co1180 2.143 . S
O1182 Co1181 2.160 . S
C1183 O1184 1.278 . S
C1183 O1191 1.224 . S
O1184 C1183 1.278 . S
C1185 O1186 1.245 . S
C1185 O1197 1.232 . S
O1186 C1185 1.245 . S
O1187 Co1181 2.058 . S
O1187 C1213 1.269 . S
O1188 Co1180 2.074 . S
O1188 C1213 1.257 . S
H1189 C1214 0.930 . S
H1190 C1220 0.930 . S
O1191 Co1180 2.093 . S
O1191 C1183 1.224 . S
H1192 C1224 0.929 . S
H1193 C1226 0.930 . S
H1194 C1227 0.930 . S
H1195 C1225 0.929 . S
H1196 C1228 0.928 . S
O1197 Co1181 2.057 . S
O1197 C1185 1.232 . S
H1198 C1217 0.929 . S
H1199 C1218 0.929 . S
H1200 C1230 0.931 . S
H1201 C1222 0.929 . S
H1202 C1231 0.930 . S
H1203 C1223 0.931 . S
O1204 Co1180 2.097 . S
O1204 C1232 1.214 . S
H1205 C1233 0.929 . S
H1206 C1234 0.929 . S
H1207 C1235 0.930 . S
H1208 C1236 0.929 . S
H1209 C1238 0.930 . S
H1210 C1215 0.930 . S
H1211 C1219 0.930 . S
O1212 Co1181 2.037 . S
O1212 C1232 1.234 . S
C1213 O1187 1.269 . S
C1213 O1188 1.257 . S
C1214 H1189 0.930 . S
C1214 C1217 1.388 . S
C1214 C1219 1.418 . S
C1215 H1210 0.930 . S
C1215 C1218 1.404 . S
C1215 C1219 1.353 . S
N1216 Co1181 2.145 . S
N1216 C1217 1.397 . S
N1216 C1218 1.334 . S
C1217 H1198 0.929 . S
C1217 C1214 1.388 . S
C1217 N1216 1.397 . S
C1218 H1199 0.929 . S
C1218 C1215 1.404 . S
C1218 N1216 1.334 . S
C1219 H1211 0.930 . S
C1219 C1214 1.418 . S
C1219 C1215 1.353 . S
C1220 H1190 0.930 . S
C1220 N1221 1.330 . S
C1220 C1222 1.446 . S
N1221 Co1180 2.151 . S
N1221 C1220 1.330 . S
N1221 C1225 1.418 . S
C1222 H1201 0.929 . S
C1222 C1220 1.446 . S
C1222 C1223 1.332 . S
C1223 H1203 0.931 . S
C1223 C1222 1.332 . S
C1223 C1224 1.267 . S
C1224 H1192 0.929 . S
C1224 C1223 1.267 . S
C1224 C1225 1.251 . S
C1225 H1195 0.929 . S
C1225 N1221 1.418 . S
C1225 C1224 1.251 . S
C1226 H1193 0.930 . S
C1226 C1228 1.406 . S
C1226 C1231 1.261 . S
C1227 H1194 0.930 . S
C1227 N1229 1.325 . S
C1227 C1230 1.357 . S
C1228 H1196 0.928 . S
C1228 C1226 1.406 . S
C1228 N1229 1.261 . S
N1229 Co1180 2.214 . S
N1229 C1227 1.325 . S
N1229 C1228 1.261 . S
C1230 H1200 0.931 . S
C1230 C1227 1.357 . S
C1230 C1231 1.312 . S
C1231 H1202 0.930 . S
C1231 C1226 1.261 . S
C1231 C1230 1.312 . S
C1232 O1204 1.214 . S
C1232 O1212 1.234 . S
C1233 H1205 0.929 . S
C1233 C1236 1.391 . S
C1233 C1238 1.391 . S
C1234 H1206 0.929 . S
C1234 C1235 1.390 . S
C1234 N1237 1.391 . S
C1235 H1207 0.930 . S
C1235 C1234 1.390 . S
C1235 C1236 1.392 . S
C1236 H1208 0.929 . S
C1236 C1233 1.391 . S
C1236 C1235 1.392 . S
N1237 Co1181 2.257 . S
N1237 C1234 1.391 . S
N1237 C1238 1.388 . S
C1238 H1209 0.930 . S
C1238 C1233 1.391 . S
C1238 N1237 1.388 . S
Co1239 O1241 2.143 . S
Co1239 O1247 2.074 . S
Co1239 O1250 2.093 . S
Co1239 O1263 2.097 . S
Co1239 N1280 2.151 . S
Co1239 N1288 2.214 . S
Co1240 O1241 2.160 . S
Co1240 O1246 2.058 . S
Co1240 O1256 2.057 . S
Co1240 O1271 2.037 . S
Co1240 N1275 2.145 . S
Co1240 N1296 2.257 . S
O1241 Co1239 2.143 . S
O1241 Co1240 2.160 . S
C1242 O1243 1.278 . S
C1242 O1250 1.224 . S
O1243 C1242 1.278 . S
C1244 O1245 1.245 . S
C1244 O1256 1.232 . S
O1245 C1244 1.245 . S
O1246 Co1240 2.058 . S
O1246 C1272 1.269 . S
O1247 Co1239 2.074 . S
O1247 C1272 1.257 . S
H1248 C1273 0.930 . S
H1249 C1279 0.930 . S
O1250 Co1239 2.093 . S
O1250 C1242 1.224 . S
H1251 C1283 0.929 . S
H1252 C1285 0.930 . S
H1253 C1286 0.930 . S
H1254 C1284 0.929 . S
H1255 C1287 0.928 . S
O1256 Co1240 2.057 . S
O1256 C1244 1.232 . S
H1257 C1276 0.929 . S
H1258 C1277 0.929 . S
H1259 C1289 0.931 . S
H1260 C1281 0.929 . S
H1261 C1290 0.930 . S
H1262 C1282 0.931 . S
O1263 Co1239 2.097 . S
O1263 C1291 1.214 . S
H1264 C1292 0.929 . S
H1265 C1293 0.929 . S
H1266 C1294 0.930 . S
H1267 C1295 0.929 . S
H1268 C1297 0.930 . S
H1269 C1274 0.930 . S
H1270 C1278 0.930 . S
O1271 Co1240 2.037 . S
O1271 C1291 1.234 . S
C1272 O1246 1.269 . S
C1272 O1247 1.257 . S
C1273 H1248 0.930 . S
C1273 C1276 1.388 . S
C1273 C1278 1.418 . S
C1274 H1269 0.930 . S
C1274 C1277 1.404 . S
C1274 C1278 1.353 . S
N1275 Co1240 2.145 . S
N1275 C1276 1.397 . S
N1275 C1277 1.334 . S
C1276 H1257 0.929 . S
C1276 C1273 1.388 . S
C1276 N1275 1.397 . S
C1277 H1258 0.929 . S
C1277 C1274 1.404 . S
C1277 N1275 1.334 . S
C1278 H1270 0.930 . S
C1278 C1273 1.418 . S
C1278 C1274 1.353 . S
C1279 H1249 0.930 . S
C1279 N1280 1.330 . S
C1279 C1281 1.446 . S
N1280 Co1239 2.151 . S
N1280 C1279 1.330 . S
N1280 C1284 1.418 . S
C1281 H1260 0.929 . S
C1281 C1279 1.446 . S
C1281 C1282 1.332 . S
C1282 H1262 0.931 . S
C1282 C1281 1.332 . S
C1282 C1283 1.267 . S
C1283 H1251 0.929 . S
C1283 C1282 1.267 . S
C1283 C1284 1.251 . S
C1284 H1254 0.929 . S
C1284 N1280 1.418 . S
C1284 C1283 1.251 . S
C1285 H1252 0.930 . S
C1285 C1287 1.406 . S
C1285 C1290 1.261 . S
C1286 H1253 0.930 . S
C1286 N1288 1.325 . S
C1286 C1289 1.357 . S
C1287 H1255 0.928 . S
C1287 C1285 1.406 . S
C1287 N1288 1.261 . S
N1288 Co1239 2.214 . S
N1288 C1286 1.325 . S
N1288 C1287 1.261 . S
C1289 H1259 0.931 . S
C1289 C1286 1.357 . S
C1289 C1290 1.312 . S
C1290 H1261 0.930 . S
C1290 C1285 1.261 . S
C1290 C1289 1.312 . S
C1291 O1263 1.214 . S
C1291 O1271 1.234 . S
C1292 H1264 0.929 . S
C1292 C1295 1.391 . S
C1292 C1297 1.391 . S
C1293 H1265 0.929 . S
C1293 C1294 1.390 . S
C1293 N1296 1.391 . S
C1294 H1266 0.930 . S
C1294 C1293 1.390 . S
C1294 C1295 1.392 . S
C1295 H1267 0.929 . S
C1295 C1292 1.391 . S
C1295 C1294 1.392 . S
N1296 Co1240 2.257 . S
N1296 C1293 1.391 . S
N1296 C1297 1.388 . S
C1297 H1268 0.930 . S
C1297 C1292 1.391 . S
C1297 N1296 1.388 . S
Co1298 O1300 2.143 . S
Co1298 O1306 2.074 . S
Co1298 O1309 2.093 . S
Co1298 O1322 2.097 . S
Co1298 N1339 2.151 . S
Co1298 N1347 2.214 . S
Co1299 O1300 2.160 . S
Co1299 O1305 2.058 . S
Co1299 O1315 2.057 . S
Co1299 O1330 2.037 . S
Co1299 N1334 2.145 . S
Co1299 N1355 2.257 . S
O1300 Co1298 2.143 . S
O1300 Co1299 2.160 . S
C1301 O1302 1.278 . S
C1301 O1309 1.224 . S
O1302 C1301 1.278 . S
C1303 O1304 1.245 . S
C1303 O1315 1.232 . S
O1304 C1303 1.245 . S
O1305 Co1299 2.058 . S
O1305 C1331 1.269 . S
O1306 Co1298 2.074 . S
O1306 C1331 1.257 . S
H1307 C1332 0.930 . S
H1308 C1338 0.930 . S
O1309 Co1298 2.093 . S
O1309 C1301 1.224 . S
H1310 C1342 0.929 . S
H1311 C1344 0.930 . S
H1312 C1345 0.930 . S
H1313 C1343 0.929 . S
H1314 C1346 0.928 . S
O1315 Co1299 2.057 . S
O1315 C1303 1.232 . S
H1316 C1335 0.929 . S
H1317 C1336 0.929 . S
H1318 C1348 0.931 . S
H1319 C1340 0.929 . S
H1320 C1349 0.930 . S
H1321 C1341 0.931 . S
O1322 Co1298 2.097 . S
O1322 C1350 1.214 . S
H1323 C1351 0.929 . S
H1324 C1352 0.929 . S
H1325 C1353 0.930 . S
H1326 C1354 0.929 . S
H1327 C1356 0.930 . S
H1328 C1333 0.930 . S
H1329 C1337 0.930 . S
O1330 Co1299 2.037 . S
O1330 C1350 1.234 . S
C1331 O1305 1.269 . S
C1331 O1306 1.257 . S
C1332 H1307 0.930 . S
C1332 C1335 1.388 . S
C1332 C1337 1.418 . S
C1333 H1328 0.930 . S
C1333 C1336 1.404 . S
C1333 C1337 1.353 . S
N1334 Co1299 2.145 . S
N1334 C1335 1.397 . S
N1334 C1336 1.334 . S
C1335 H1316 0.929 . S
C1335 C1332 1.388 . S
C1335 N1334 1.397 . S
C1336 H1317 0.929 . S
C1336 C1333 1.404 . S
C1336 N1334 1.334 . S
C1337 H1329 0.930 . S
C1337 C1332 1.418 . S
C1337 C1333 1.353 . S
C1338 H1308 0.930 . S
C1338 N1339 1.330 . S
C1338 C1340 1.446 . S
N1339 Co1298 2.151 . S
N1339 C1338 1.330 . S
N1339 C1343 1.418 . S
C1340 H1319 0.929 . S
C1340 C1338 1.446 . S
C1340 C1341 1.332 . S
C1341 H1321 0.931 . S
C1341 C1340 1.332 . S
C1341 C1342 1.267 . S
C1342 H1310 0.929 . S
C1342 C1341 1.267 . S
C1342 C1343 1.251 . S
C1343 H1313 0.929 . S
C1343 N1339 1.418 . S
C1343 C1342 1.251 . S
C1344 H1311 0.930 . S
C1344 C1346 1.406 . S
C1344 C1349 1.261 . S
C1345 H1312 0.930 . S
C1345 N1347 1.325 . S
C1345 C1348 1.357 . S
C1346 H1314 0.928 . S
C1346 C1344 1.406 . S
C1346 N1347 1.261 . S
N1347 Co1298 2.214 . S
N1347 C1345 1.325 . S
N1347 C1346 1.261 . S
C1348 H1318 0.931 . S
C1348 C1345 1.357 . S
C1348 C1349 1.312 . S
C1349 H1320 0.930 . S
C1349 C1344 1.261 . S
C1349 C1348 1.312 . S
C1350 O1322 1.214 . S
C1350 O1330 1.234 . S
C1351 H1323 0.929 . S
C1351 C1354 1.391 . S
C1351 C1356 1.391 . S
C1352 H1324 0.929 . S
C1352 C1353 1.390 . S
C1352 N1355 1.391 . S
C1353 H1325 0.930 . S
C1353 C1352 1.390 . S
C1353 C1354 1.392 . S
C1354 H1326 0.929 . S
C1354 C1351 1.391 . S
C1354 C1353 1.392 . S
N1355 Co1299 2.257 . S
N1355 C1352 1.391 . S
N1355 C1356 1.388 . S
C1356 H1327 0.930 . S
C1356 C1351 1.391 . S
C1356 N1355 1.388 . S
Co1357 O1359 2.143 . S
Co1357 O1365 2.074 . S
Co1357 O1368 2.093 . S
Co1357 O1381 2.097 . S
Co1357 N1398 2.151 . S
Co1357 N1406 2.214 . S
Co1358 O1359 2.160 . S
Co1358 O1364 2.058 . S
Co1358 O1374 2.057 . S
Co1358 O1389 2.037 . S
Co1358 N1393 2.145 . S
Co1358 N1414 2.257 . S
O1359 Co1357 2.143 . S
O1359 Co1358 2.160 . S
C1360 O1361 1.278 . S
C1360 O1368 1.224 . S
O1361 C1360 1.278 . S
C1362 O1363 1.245 . S
C1362 O1374 1.232 . S
O1363 C1362 1.245 . S
O1364 Co1358 2.058 . S
O1364 C1390 1.269 . S
O1365 Co1357 2.074 . S
O1365 C1390 1.257 . S
H1366 C1391 0.930 . S
H1367 C1397 0.930 . S
O1368 Co1357 2.093 . S
O1368 C1360 1.224 . S
H1369 C1401 0.929 . S
H1370 C1403 0.930 . S
H1371 C1404 0.930 . S
H1372 C1402 0.929 . S
H1373 C1405 0.928 . S
O1374 Co1358 2.057 . S
O1374 C1362 1.232 . S
H1375 C1394 0.929 . S
H1376 C1395 0.929 . S
H1377 C1407 0.931 . S
H1378 C1399 0.929 . S
H1379 C1408 0.930 . S
H1380 C1400 0.931 . S
O1381 Co1357 2.097 . S
O1381 C1409 1.214 . S
H1382 C1410 0.929 . S
H1383 C1411 0.929 . S
H1384 C1412 0.930 . S
H1385 C1413 0.929 . S
H1386 C1415 0.930 . S
H1387 C1392 0.930 . S
H1388 C1396 0.930 . S
O1389 Co1358 2.037 . S
O1389 C1409 1.234 . S
C1390 O1364 1.269 . S
C1390 O1365 1.257 . S
C1391 H1366 0.930 . S
C1391 C1394 1.388 . S
C1391 C1396 1.418 . S
C1392 H1387 0.930 . S
C1392 C1395 1.404 . S
C1392 C1396 1.353 . S
N1393 Co1358 2.145 . S
N1393 C1394 1.397 . S
N1393 C1395 1.334 . S
C1394 H1375 0.929 . S
C1394 C1391 1.388 . S
C1394 N1393 1.397 . S
C1395 H1376 0.929 . S
C1395 C1392 1.404 . S
C1395 N1393 1.334 . S
C1396 H1388 0.930 . S
C1396 C1391 1.418 . S
C1396 C1392 1.353 . S
C1397 H1367 0.930 . S
C1397 N1398 1.330 . S
C1397 C1399 1.446 . S
N1398 Co1357 2.151 . S
N1398 C1397 1.330 . S
N1398 C1402 1.418 . S
C1399 H1378 0.929 . S
C1399 C1397 1.446 . S
C1399 C1400 1.332 . S
C1400 H1380 0.931 . S
C1400 C1399 1.332 . S
C1400 C1401 1.267 . S
C1401 H1369 0.929 . S
C1401 C1400 1.267 . S
C1401 C1402 1.251 . S
C1402 H1372 0.929 . S
C1402 N1398 1.418 . S
C1402 C1401 1.251 . S
C1403 H1370 0.930 . S
C1403 C1405 1.406 . S
C1403 C1408 1.261 . S
C1404 H1371 0.930 . S
C1404 N1406 1.325 . S
C1404 C1407 1.357 . S
C1405 H1373 0.928 . S
C1405 C1403 1.406 . S
C1405 N1406 1.261 . S
N1406 Co1357 2.214 . S
N1406 C1404 1.325 . S
N1406 C1405 1.261 . S
C1407 H1377 0.931 . S
C1407 C1404 1.357 . S
C1407 C1408 1.312 . S
C1408 H1379 0.930 . S
C1408 C1403 1.261 . S
C1408 C1407 1.312 . S
C1409 O1381 1.214 . S
C1409 O1389 1.234 . S
C1410 H1382 0.929 . S
C1410 C1413 1.391 . S
C1410 C1415 1.391 . S
C1411 H1383 0.929 . S
C1411 C1412 1.390 . S
C1411 N1414 1.391 . S
C1412 H1384 0.930 . S
C1412 C1411 1.390 . S
C1412 C1413 1.392 . S
C1413 H1385 0.929 . S
C1413 C1410 1.391 . S
C1413 C1412 1.392 . S
N1414 Co1358 2.257 . S
N1414 C1411 1.391 . S
N1414 C1415 1.388 . S
C1415 H1386 0.930 . S
C1415 C1410 1.391 . S
C1415 N1414 1.388 . S
H1416 C1422 0.930 . S
H1417 C1426 0.930 . S
H1418 C1431 0.929 . S
H1419 C1429 0.929 . S
H1420 C1424 0.929 . S
H1421 C1430 0.929 . S
C1422 H1416 0.930 . S
C1422 C1423 1.367 . S
C1422 C1430 1.378 . S
C1423 C1422 1.367 . S
C1423 C1431 1.433 . S
C1424 H1420 0.929 . S
C1424 C1426 1.378 . S
C1424 C1428 1.350 . S
C1425 C1428 1.463 1_545 S
C1425 C1430 1.350 . S
C1425 N1433 1.427 . S
C1426 H1417 0.930 . S
C1426 C1424 1.378 . S
C1426 C1427 1.367 . S
C1427 C1426 1.367 . S
C1427 C1429 1.433 . S
C1428 C1424 1.350 . S
C1428 C1425 1.463 1_565 S
C1428 N1432 1.427 . S
C1429 H1419 0.929 . S
C1429 C1427 1.433 . S
C1429 N1432 1.384 . S
C1430 H1421 0.929 . S
C1430 C1422 1.378 . S
C1430 C1425 1.350 . S
C1431 H1418 0.929 . S
C1431 C1423 1.433 . S
C1431 N1433 1.384 . S
N1432 C1428 1.427 . S
N1432 C1429 1.384 . S
N1433 C1425 1.427 . S
N1433 C1431 1.384 . S
H1434 C1440 0.930 . S
H1435 C1444 0.930 . S
H1436 C1449 0.929 . S
H1437 C1447 0.929 . S
H1438 C1442 0.929 . S
H1439 C1448 0.929 . S
C1440 H1434 0.930 . S
C1440 C1441 1.367 . S
C1440 C1448 1.378 . S
C1441 C1440 1.367 . S
C1441 C1449 1.433 . S
C1442 H1438 0.929 . S
C1442 C1444 1.378 . S
C1442 C1446 1.350 . S
C1443 C1446 1.463 . S
C1443 C1448 1.350 . S
C1443 N1451 1.427 . S
C1444 H1435 0.930 . S
C1444 C1442 1.378 . S
C1444 C1445 1.367 . S
C1445 C1444 1.367 . S
C1445 C1447 1.433 . S
C1446 C1442 1.350 . S
C1446 C1443 1.463 . S
C1446 N1450 1.427 . S
C1447 H1437 0.929 . S
C1447 C1445 1.433 . S
C1447 N1450 1.384 . S
C1448 H1439 0.929 . S
C1448 C1440 1.378 . S
C1448 C1443 1.350 . S
C1449 H1436 0.929 . S
C1449 C1441 1.433 . S
C1449 N1451 1.384 . S
N1450 C1446 1.427 . S
N1450 C1447 1.384 . S
N1451 C1443 1.427 . S
N1451 C1449 1.384 . S
H1452 C1458 0.930 . S
H1453 C1462 0.930 . S
H1454 C1467 0.929 . S
H1455 C1465 0.929 . S
H1456 C1460 0.929 . S
H1457 C1466 0.929 . S
C1458 H1452 0.930 . S
C1458 C1459 1.367 . S
C1458 C1466 1.378 . S
C1459 C1458 1.367 . S
C1459 C1467 1.433 . S
C1460 H1456 0.929 . S
C1460 C1462 1.378 . S
C1460 C1464 1.350 . S
C1461 C1464 1.463 1_655 S
C1461 C1466 1.350 . S
C1461 N1469 1.427 . S
C1462 H1453 0.930 . S
C1462 C1460 1.378 . S
C1462 C1463 1.367 . S
C1463 C1462 1.367 . S
C1463 C1465 1.433 . S
C1464 C1460 1.350 . S
C1464 C1461 1.463 1_455 S
C1464 N1468 1.427 . S
C1465 H1455 0.929 . S
C1465 C1463 1.433 . S
C1465 N1468 1.384 . S
C1466 H1457 0.929 . S
C1466 C1458 1.378 . S
C1466 C1461 1.350 . S
C1467 H1454 0.929 . S
C1467 C1459 1.433 . S
C1467 N1469 1.384 . S
N1468 C1464 1.427 . S
N1468 C1465 1.384 . S
N1469 C1461 1.427 . S
N1469 C1467 1.384 . S
H1470 C1476 0.930 . S
H1471 C1480 0.930 . S
H1472 C1485 0.929 . S
H1473 C1483 0.929 . S
H1474 C1478 0.929 . S
H1475 C1484 0.929 . S
C1476 H1470 0.930 . S
C1476 C1477 1.367 . S
C1476 C1484 1.378 . S
C1477 C1476 1.367 . S
C1477 C1485 1.433 . S
C1478 H1474 0.929 . S
C1478 C1480 1.378 . S
C1478 C1482 1.350 . S
C1479 C1482 1.463 1_565 S
C1479 C1484 1.350 . S
C1479 N1487 1.427 . S
C1480 H1471 0.930 . S
C1480 C1478 1.378 . S
C1480 C1481 1.367 . S
C1481 C1480 1.367 . S
C1481 C1483 1.433 . S
C1482 C1478 1.350 . S
C1482 C1479 1.463 1_545 S
C1482 N1486 1.427 . S
C1483 H1473 0.929 . S
C1483 C1481 1.433 . S
C1483 N1486 1.384 . S
C1484 H1475 0.929 . S
C1484 C1476 1.378 . S
C1484 C1479 1.350 . S
C1485 H1472 0.929 . S
C1485 C1477 1.433 . S
C1485 N1487 1.384 . S
N1486 C1482 1.427 . S
N1486 C1483 1.384 . S
N1487 C1479 1.427 . S
N1487 C1485 1.384 . S
H1488 C1494 0.930 . S
H1489 C1498 0.930 . S
H1490 C1503 0.929 . S
H1491 C1501 0.929 . S
H1492 C1496 0.929 . S
H1493 C1502 0.929 . S
C1494 H1488 0.930 . S
C1494 C1495 1.367 . S
C1494 C1502 1.378 . S
C1495 C1494 1.367 . S
C1495 C1503 1.433 . S
C1496 H1492 0.929 . S
C1496 C1498 1.378 . S
C1496 C1500 1.350 . S
C1497 C1500 1.463 . S
C1497 C1502 1.350 . S
C1497 N1505 1.427 . S
C1498 H1489 0.930 . S
C1498 C1496 1.378 . S
C1498 C1499 1.367 . S
C1499 C1498 1.367 . S
C1499 C1501 1.433 . S
C1500 C1496 1.350 . S
C1500 C1497 1.463 . S
C1500 N1504 1.427 . S
C1501 H1491 0.929 . S
C1501 C1499 1.433 . S
C1501 N1504 1.384 . S
C1502 H1493 0.929 . S
C1502 C1494 1.378 . S
C1502 C1497 1.350 . S
C1503 H1490 0.929 . S
C1503 C1495 1.433 . S
C1503 N1505 1.384 . S
N1504 C1500 1.427 . S
N1504 C1501 1.384 . S
N1505 C1497 1.427 . S
N1505 C1503 1.384 . S
H1506 C1512 0.930 . S
H1507 C1516 0.930 . S
H1508 C1521 0.929 . S
H1509 C1519 0.929 . S
H1510 C1514 0.929 . S
H1511 C1520 0.929 . S
C1512 H1506 0.930 . S
C1512 C1513 1.367 . S
C1512 C1520 1.378 . S
C1513 C1512 1.367 . S
C1513 C1521 1.433 . S
C1514 H1510 0.929 . S
C1514 C1516 1.378 . S
C1514 C1518 1.350 . S
C1515 C1518 1.463 1_455 S
C1515 C1520 1.350 . S
C1515 N1523 1.427 . S
C1516 H1507 0.930 . S
C1516 C1514 1.378 . S
C1516 C1517 1.367 . S
C1517 C1516 1.367 . S
C1517 C1519 1.433 . S
C1518 C1514 1.350 . S
C1518 C1515 1.463 1_655 S
C1518 N1522 1.427 . S
C1519 H1509 0.929 . S
C1519 C1517 1.433 . S
C1519 N1522 1.384 . S
C1520 H1511 0.929 . S
C1520 C1512 1.378 . S
C1520 C1515 1.350 . S
C1521 H1508 0.929 . S
C1521 C1513 1.433 . S
C1521 N1523 1.384 . S
N1522 C1518 1.427 . S
N1522 C1519 1.384 . S
N1523 C1515 1.427 . S
N1523 C1521 1.384 . S
H1524 C1530 0.930 . S
H1525 C1534 0.930 . S
H1526 C1539 0.929 . S
H1527 C1537 0.929 . S
H1528 C1532 0.929 . S
H1529 C1538 0.929 . S
C1530 H1524 0.930 . S
C1530 C1531 1.367 . S
C1530 C1538 1.378 . S
C1531 C1530 1.367 . S
C1531 C1539 1.433 . S
C1532 H1528 0.929 . S
C1532 C1534 1.378 . S
C1532 C1536 1.350 . S
C1533 C1536 1.463 1_565 S
C1533 C1538 1.350 . S
C1533 N1541 1.427 . S
C1534 H1525 0.930 . S
C1534 C1532 1.378 . S
C1534 C1535 1.367 . S
C1535 C1534 1.367 . S
C1535 C1537 1.433 . S
C1536 C1532 1.350 . S
C1536 C1533 1.463 1_545 S
C1536 N1540 1.427 . S
C1537 H1527 0.929 . S
C1537 C1535 1.433 . S
C1537 N1540 1.384 . S
C1538 H1529 0.929 . S
C1538 C1530 1.378 . S
C1538 C1533 1.350 . S
C1539 H1526 0.929 . S
C1539 C1531 1.433 . S
C1539 N1541 1.384 . S
N1540 C1536 1.427 . S
N1540 C1537 1.384 . S
N1541 C1533 1.427 . S
N1541 C1539 1.384 . S
H1542 C1548 0.930 . S
H1543 C1552 0.930 . S
H1544 C1557 0.929 . S
H1545 C1555 0.929 . S
H1546 C1550 0.929 . S
H1547 C1556 0.929 . S
C1548 H1542 0.930 . S
C1548 C1549 1.367 . S
C1548 C1556 1.378 . S
C1549 C1548 1.367 . S
C1549 C1557 1.433 . S
C1550 H1546 0.929 . S
C1550 C1552 1.378 . S
C1550 C1554 1.350 . S
C1551 C1554 1.463 . S
C1551 C1556 1.350 . S
C1551 N1559 1.427 . S
C1552 H1543 0.930 . S
C1552 C1550 1.378 . S
C1552 C1553 1.367 . S
C1553 C1552 1.367 . S
C1553 C1555 1.433 . S
C1554 C1550 1.350 . S
C1554 C1551 1.463 . S
C1554 N1558 1.427 . S
C1555 H1545 0.929 . S
C1555 C1553 1.433 . S
C1555 N1558 1.384 . S
C1556 H1547 0.929 . S
C1556 C1548 1.378 . S
C1556 C1551 1.350 . S
C1557 H1544 0.929 . S
C1557 C1549 1.433 . S
C1557 N1559 1.384 . S
N1558 C1554 1.427 . S
N1558 C1555 1.384 . S
N1559 C1551 1.427 . S
N1559 C1557 1.384 . S
H1560 C1566 0.930 . S
H1561 C1570 0.930 . S
H1562 C1575 0.929 . S
H1563 C1573 0.929 . S
H1564 C1568 0.965 . S
H1565 C1574 0.965 . S
C1566 H1560 0.930 . S
C1566 C1567 1.367 . S
C1566 C1574 1.378 . S
C1567 C1566 1.367 . S
C1567 C1575 1.433 . S
C1568 H1564 0.965 . S
C1568 C1570 1.378 . S
C1568 C1572 1.350 . S
C1569 C1572 1.463 1_655 S
C1569 C1574 1.350 . S
C1569 N1577 1.427 . S
C1570 H1561 0.930 . S
C1570 C1568 1.378 . S
C1570 C1571 1.367 . S
C1571 C1570 1.367 . S
C1571 C1573 1.433 . S
C1572 C1568 1.350 . S
C1572 C1569 1.463 1_455 S
C1572 N1576 1.427 . S
C1573 H1563 0.929 . S
C1573 C1571 1.433 . S
C1573 N1576 1.384 . S
C1574 H1565 0.965 . S
C1574 C1566 1.378 . S
C1574 C1569 1.350 . S
C1575 H1562 0.929 . S
C1575 C1567 1.433 . S
C1575 N1577 1.384 . S
N1576 C1572 1.427 . S
N1576 C1573 1.384 . S
N1577 C1569 1.427 . S
N1577 C1575 1.384 . S
H1578 C1584 0.930 . S
H1579 C1588 0.930 . S
H1580 C1593 0.929 . S
H1581 C1591 0.929 . S
H1582 C1586 0.929 . S
H1583 C1592 0.929 . S
C1584 H1578 0.930 . S
C1584 C1585 1.367 . S
C1584 C1592 1.378 . S
C1585 C1584 1.367 . S
C1585 C1593 1.433 . S
C1586 H1582 0.929 . S
C1586 C1588 1.378 . S
C1586 C1590 1.350 . S
C1587 C1590 1.463 1_545 S
C1587 C1592 1.350 . S
C1587 N1595 1.427 . S
C1588 H1579 0.930 . S
C1588 C1586 1.378 . S
C1588 C1589 1.367 . S
C1589 C1588 1.367 . S
C1589 C1591 1.433 . S
C1590 C1586 1.350 . S
C1590 C1587 1.463 1_565 S
C1590 N1594 1.427 . S
C1591 H1581 0.929 . S
C1591 C1589 1.433 . S
C1591 N1594 1.384 . S
C1592 H1583 0.929 . S
C1592 C1584 1.378 . S
C1592 C1587 1.350 . S
C1593 H1580 0.929 . S
C1593 C1585 1.433 . S
C1593 N1595 1.384 . S
N1594 C1590 1.427 . S
N1594 C1591 1.384 . S
N1595 C1587 1.427 . S
N1595 C1593 1.384 . S
H1596 C1602 0.930 . S
H1597 C1606 0.930 . S
H1598 C1611 0.929 . S
H1599 C1609 0.929 . S
H1600 C1604 0.929 . S
H1601 C1610 0.929 . S
C1602 H1596 0.930 . S
C1602 C1603 1.367 . S
C1602 C1610 1.378 . S
C1603 C1602 1.367 . S
C1603 C1611 1.433 . S
C1604 H1600 0.929 . S
C1604 C1606 1.378 . S
C1604 C1608 1.350 . S
C1605 C1608 1.463 . S
C1605 C1610 1.350 . S
C1605 N1613 1.427 . S
C1606 H1597 0.930 . S
C1606 C1604 1.378 . S
C1606 C1607 1.367 . S
C1607 C1606 1.367 . S
C1607 C1609 1.433 . S
C1608 C1604 1.350 . S
C1608 C1605 1.463 . S
C1608 N1612 1.427 . S
C1609 H1599 0.929 . S
C1609 C1607 1.433 . S
C1609 N1612 1.384 . S
C1610 H1601 0.929 . S
C1610 C1602 1.378 . S
C1610 C1605 1.350 . S
C1611 H1598 0.929 . S
C1611 C1603 1.433 . S
C1611 N1613 1.384 . S
N1612 C1608 1.427 . S
N1612 C1609 1.384 . S
N1613 C1605 1.427 . S
N1613 C1611 1.384 . S
H1614 C1620 0.930 . S
H1615 C1624 0.930 . S
H1616 C1629 0.929 . S
H1617 C1627 0.929 . S
H1618 C1622 0.929 . S
H1619 C1628 0.929 . S
C1620 H1614 0.930 . S
C1620 C1621 1.367 . S
C1620 C1628 1.378 . S
C1621 C1620 1.367 . S
C1621 C1629 1.433 . S
C1622 H1618 0.929 . S
C1622 C1624 1.378 . S
C1622 C1626 1.350 . S
C1623 C1626 1.463 1_455 S
C1623 C1628 1.350 . S
C1623 N1631 1.427 . S
C1624 H1615 0.930 . S
C1624 C1622 1.378 . S
C1624 C1625 1.367 . S
C1625 C1624 1.367 . S
C1625 C1627 1.433 . S
C1626 C1622 1.350 . S
C1626 C1623 1.463 1_655 S
C1626 N1630 1.427 . S
C1627 H1617 0.929 . S
C1627 C1625 1.433 . S
C1627 N1630 1.384 . S
C1628 H1619 0.929 . S
C1628 C1620 1.378 . S
C1628 C1623 1.350 . S
C1629 H1616 0.929 . S
C1629 C1621 1.433 . S
C1629 N1631 1.384 . S
N1630 C1626 1.427 . S
N1630 C1627 1.384 . S
N1631 C1623 1.427 . S
N1631 C1629 1.384 . S
H1632 C1638 0.930 . S
H1633 C1642 0.930 . S
H1634 C1647 0.929 . S
H1635 C1645 0.929 . S
H1636 C1640 0.929 . S
H1637 C1646 0.929 . S
C1638 H1632 0.930 . S
C1638 C1639 1.367 . S
C1638 C1646 1.378 . S
C1639 C1638 1.367 . S
C1639 C1647 1.433 . S
C1640 H1636 0.929 . S
C1640 C1642 1.378 . S
C1640 C1644 1.350 . S
C1641 C1644 1.463 . S
C1641 C1646 1.350 . S
C1641 N1649 1.427 . S
C1642 H1633 0.930 . S
C1642 C1640 1.378 . S
C1642 C1643 1.367 . S
C1643 C1642 1.367 . S
C1643 C1645 1.433 . S
C1644 C1640 1.350 . S
C1644 C1641 1.463 . S
C1644 N1648 1.427 . S
C1645 H1635 0.929 . S
C1645 C1643 1.433 . S
C1645 N1648 1.384 . S
C1646 H1637 0.929 . S
C1646 C1638 1.378 . S
C1646 C1641 1.350 . S
C1647 H1634 0.929 . S
C1647 C1639 1.433 . S
C1647 N1649 1.384 . S
N1648 C1644 1.427 . S
N1648 C1645 1.384 . S
N1649 C1641 1.427 . S
N1649 C1647 1.384 . S
H1650 C1656 0.930 . S
H1651 C1660 0.930 . S
H1652 C1665 0.929 . S
H1653 C1663 0.929 . S
H1654 C1658 0.929 . S
H1655 C1664 0.929 . S
C1656 H1650 0.930 . S
C1656 C1657 1.367 . S
C1656 C1664 1.378 . S
C1657 C1656 1.367 . S
C1657 C1665 1.433 . S
C1658 H1654 0.929 . S
C1658 C1660 1.378 . S
C1658 C1662 1.350 . S
C1659 C1662 1.463 . S
C1659 C1664 1.350 . S
C1659 N1667 1.427 . S
C1660 H1651 0.930 . S
C1660 C1658 1.378 . S
C1660 C1661 1.367 . S
C1661 C1660 1.367 . S
C1661 C1663 1.433 . S
C1662 C1658 1.350 . S
C1662 C1659 1.463 . S
C1662 N1666 1.427 . S
C1663 H1653 0.929 . S
C1663 C1661 1.433 . S
C1663 N1666 1.384 . S
C1664 H1655 0.929 . S
C1664 C1656 1.378 . S
C1664 C1659 1.350 . S
C1665 H1652 0.929 . S
C1665 C1657 1.433 . S
C1665 N1667 1.384 . S
N1666 C1662 1.427 . S
N1666 C1663 1.384 . S
N1667 C1659 1.427 . S
N1667 C1665 1.384 . S
H1668 C1674 0.930 . S
H1669 C1678 0.930 . S
H1670 C1683 0.929 . S
H1671 C1681 0.929 . S
H1672 C1676 0.929 . S
H1673 C1682 0.929 . S
C1674 H1668 0.930 . S
C1674 C1675 1.367 . S
C1674 C1682 1.378 . S
C1675 C1674 1.367 . S
C1675 C1683 1.433 . S
C1676 H1672 0.929 . S
C1676 C1678 1.378 . S
C1676 C1680 1.350 . S
C1677 C1680 1.463 . S
C1677 C1682 1.350 . S
C1677 N1685 1.427 . S
C1678 H1669 0.930 . S
C1678 C1676 1.378 . S
C1678 C1679 1.367 . S
C1679 C1678 1.367 . S
C1679 C1681 1.433 . S
C1680 C1676 1.350 . S
C1680 C1677 1.463 . S
C1680 N1684 1.427 . S
C1681 H1671 0.929 . S
C1681 C1679 1.433 . S
C1681 N1684 1.384 . S
C1682 H1673 0.929 . S
C1682 C1674 1.378 . S
C1682 C1677 1.350 . S
C1683 H1670 0.929 . S
C1683 C1675 1.433 . S
C1683 N1685 1.384 . S
N1684 C1680 1.427 . S
N1684 C1681 1.384 . S
N1685 C1677 1.427 . S
N1685 C1683 1.384 . S
H1686 C1692 0.930 . S
H1687 C1696 0.930 . S
H1688 C1701 0.929 . S
H1689 C1699 0.929 . S
H1690 C1694 0.929 . S
H1691 C1700 0.929 . S
C1692 H1686 0.930 . S
C1692 C1693 1.367 . S
C1692 C1700 1.378 . S
C1693 C1692 1.367 . S
C1693 C1701 1.433 . S
C1694 H1690 0.929 . S
C1694 C1696 1.378 . S
C1694 C1698 1.350 . S
C1695 C1698 1.463 . S
C1695 C1700 1.350 . S
C1695 N1703 1.427 . S
C1696 H1687 0.930 . S
C1696 C1694 1.378 . S
C1696 C1697 1.367 . S
C1697 C1696 1.367 . S
C1697 C1699 1.433 . S
C1698 C1694 1.350 . S
C1698 C1695 1.463 . S
C1698 N1702 1.427 . S
C1699 H1689 0.929 . S
C1699 C1697 1.433 . S
C1699 N1702 1.384 . S
C1700 H1691 0.929 . S
C1700 C1692 1.378 . S
C1700 C1695 1.350 . S
C1701 H1688 0.929 . S
C1701 C1693 1.433 . S
C1701 N1703 1.384 . S
N1702 C1698 1.427 . S
N1702 C1699 1.384 . S
N1703 C1695 1.427 . S
N1703 C1701 1.384 . S
H1704 C1710 0.930 . S
H1705 C1714 0.930 . S
H1706 C1719 0.929 . S
H1707 C1717 0.929 . S
H1708 C1712 0.929 . S
H1709 C1718 0.929 . S
C1710 H1704 0.930 . S
C1710 C1711 1.367 . S
C1710 C1718 1.378 . S
C1711 C1710 1.367 . S
C1711 C1719 1.433 . S
C1712 H1708 0.929 . S
C1712 C1714 1.378 . S
C1712 C1716 1.350 . S
C1713 C1716 1.463 . S
C1713 C1718 1.350 . S
C1713 N1721 1.427 . S
C1714 H1705 0.930 . S
C1714 C1712 1.378 . S
C1714 C1715 1.367 . S
C1715 C1714 1.367 . S
C1715 C1717 1.433 . S
C1716 C1712 1.350 . S
C1716 C1713 1.463 . S
C1716 N1720 1.427 . S
C1717 H1707 0.929 . S
C1717 C1715 1.433 . S
C1717 N1720 1.384 . S
C1718 H1709 0.929 . S
C1718 C1710 1.378 . S
C1718 C1713 1.350 . S
C1719 H1706 0.929 . S
C1719 C1711 1.433 . S
C1719 N1721 1.384 . S
N1720 C1716 1.427 . S
N1720 C1717 1.384 . S
N1721 C1713 1.427 . S
N1721 C1719 1.384 . S
H1722 C1728 0.930 . S
H1723 C1732 0.930 . S
H1724 C1737 0.929 . S
H1725 C1735 0.929 . S
H1726 C1730 0.929 . S
H1727 C1736 0.929 . S
C1728 H1722 0.930 . S
C1728 C1729 1.367 . S
C1728 C1736 1.378 . S
C1729 C1728 1.367 . S
C1729 C1737 1.433 . S
C1730 H1726 0.929 . S
C1730 C1732 1.378 . S
C1730 C1734 1.350 . S
C1731 C1734 1.463 . S
C1731 C1736 1.350 . S
C1731 N1739 1.427 . S
C1732 H1723 0.930 . S
C1732 C1730 1.378 . S
C1732 C1733 1.367 . S
C1733 C1732 1.367 . S
C1733 C1735 1.433 . S
C1734 C1730 1.350 . S
C1734 C1731 1.463 . S
C1734 N1738 1.427 . S
C1735 H1725 0.929 . S
C1735 C1733 1.433 . S
C1735 N1738 1.384 . S
C1736 H1727 0.929 . S
C1736 C1728 1.378 . S
C1736 C1731 1.350 . S
C1737 H1724 0.929 . S
C1737 C1729 1.433 . S
C1737 N1739 1.384 . S
N1738 C1734 1.427 . S
N1738 C1735 1.384 . S
N1739 C1731 1.427 . S
N1739 C1737 1.384 . S
H1740 C1746 0.930 . S
H1741 C1750 0.930 . S
H1742 C1755 0.929 . S
H1743 C1753 0.929 . S
H1744 C1748 0.929 . S
H1745 C1754 0.929 . S
C1746 H1740 0.930 . S
C1746 C1747 1.367 . S
C1746 C1754 1.378 . S
C1747 C1746 1.367 . S
C1747 C1755 1.433 . S
C1748 H1744 0.929 . S
C1748 C1750 1.378 . S
C1748 C1752 1.350 . S
C1749 C1752 1.463 . S
C1749 C1754 1.350 . S
C1749 N1757 1.427 . S
C1750 H1741 0.930 . S
C1750 C1748 1.378 . S
C1750 C1751 1.367 . S
C1751 C1750 1.367 . S
C1751 C1753 1.433 . S
C1752 C1748 1.350 . S
C1752 C1749 1.463 . S
C1752 N1756 1.427 . S
C1753 H1743 0.929 . S
C1753 C1751 1.433 . S
C1753 N1756 1.384 . S
C1754 H1745 0.929 . S
C1754 C1746 1.378 . S
C1754 C1749 1.350 . S
C1755 H1742 0.929 . S
C1755 C1747 1.433 . S
C1755 N1757 1.384 . S
N1756 C1752 1.427 . S
N1756 C1753 1.384 . S
N1757 C1749 1.427 . S
N1757 C1755 1.384 . S
H1758 C1764 0.930 . S
H1759 C1768 0.930 . S
H1760 C1773 0.929 . S
H1761 C1771 0.929 . S
H1762 C1766 0.929 . S
H1763 C1772 0.929 . S
C1764 H1758 0.930 . S
C1764 C1765 1.367 . S
C1764 C1772 1.378 . S
C1765 C1764 1.367 . S
C1765 C1773 1.433 . S
C1766 H1762 0.929 . S
C1766 C1768 1.378 . S
C1766 C1770 1.350 . S
C1767 C1770 1.463 . S
C1767 C1772 1.350 . S
C1767 N1775 1.427 . S
C1768 H1759 0.930 . S
C1768 C1766 1.378 . S
C1768 C1769 1.367 . S
C1769 C1768 1.367 . S
C1769 C1771 1.433 . S
C1770 C1766 1.350 . S
C1770 C1767 1.463 . S
C1770 N1774 1.427 . S
C1771 H1761 0.929 . S
C1771 C1769 1.433 . S
C1771 N1774 1.384 . S
C1772 H1763 0.929 . S
C1772 C1764 1.378 . S
C1772 C1767 1.350 . S
C1773 H1760 0.929 . S
C1773 C1765 1.433 . S
C1773 N1775 1.384 . S
N1774 C1770 1.427 . S
N1774 C1771 1.384 . S
N1775 C1767 1.427 . S
N1775 C1773 1.384 . S
H1776 C1782 0.930 . S
H1777 C1786 0.930 . S
H1778 C1791 0.929 . S
H1779 C1789 0.929 . S
H1780 C1784 0.929 . S
H1781 C1790 0.929 . S
C1782 H1776 0.930 . S
C1782 C1783 1.367 . S
C1782 C1790 1.378 . S
C1783 C1782 1.367 . S
C1783 C1791 1.433 . S
C1784 H1780 0.929 . S
C1784 C1786 1.378 . S
C1784 C1788 1.350 . S
C1785 C1788 1.463 . S
C1785 C1790 1.350 . S
C1785 N1793 1.427 . S
C1786 H1777 0.930 . S
C1786 C1784 1.378 . S
C1786 C1787 1.367 . S
C1787 C1786 1.367 . S
C1787 C1789 1.433 . S
C1788 C1784 1.350 . S
C1788 C1785 1.463 . S
C1788 N1792 1.427 . S
C1789 H1779 0.929 . S
C1789 C1787 1.433 . S
C1789 N1792 1.384 . S
C1790 H1781 0.929 . S
C1790 C1782 1.378 . S
C1790 C1785 1.350 . S
C1791 H1778 0.929 . S
C1791 C1783 1.433 . S
C1791 N1793 1.384 . S
N1792 C1788 1.427 . S
N1792 C1789 1.384 . S
N1793 C1785 1.427 . S
N1793 C1791 1.384 . S
H1794 C1800 0.930 . S
H1795 C1804 0.930 . S
H1796 C1809 0.929 . S
H1797 C1807 0.929 . S
H1798 C1802 0.929 . S
H1799 C1808 0.929 . S
C1800 H1794 0.930 . S
C1800 C1801 1.367 . S
C1800 C1808 1.378 . S
C1801 C1800 1.367 . S
C1801 C1809 1.433 . S
C1802 H1798 0.929 . S
C1802 C1804 1.378 . S
C1802 C1806 1.350 . S
C1803 C1806 1.463 . S
C1803 C1808 1.350 . S
C1803 N1811 1.427 . S
C1804 H1795 0.930 . S
C1804 C1802 1.378 . S
C1804 C1805 1.367 . S
C1805 C1804 1.367 . S
C1805 C1807 1.433 . S
C1806 C1802 1.350 . S
C1806 C1803 1.463 . S
C1806 N1810 1.427 . S
C1807 H1797 0.929 . S
C1807 C1805 1.433 . S
C1807 N1810 1.384 . S
C1808 H1799 0.929 . S
C1808 C1800 1.378 . S
C1808 C1803 1.350 . S
C1809 H1796 0.929 . S
C1809 C1801 1.433 . S
C1809 N1811 1.384 . S
N1810 C1806 1.427 . S
N1810 C1807 1.384 . S
N1811 C1803 1.427 . S
N1811 C1809 1.384 . S
H1812 C1818 0.930 . S
H1813 C1822 0.930 . S
H1814 C1827 0.929 . S
H1815 C1825 0.929 . S
H1816 C1820 0.929 . S
H1817 C1826 0.929 . S
C1818 H1812 0.930 . S
C1818 C1819 1.367 . S
C1818 C1826 1.378 . S
C1819 C1818 1.367 . S
C1819 C1827 1.433 . S
C1820 H1816 0.929 . S
C1820 C1822 1.378 . S
C1820 C1824 1.350 . S
C1821 C1824 1.463 . S
C1821 C1826 1.350 . S
C1821 N1829 1.427 . S
C1822 H1813 0.930 . S
C1822 C1820 1.378 . S
C1822 C1823 1.367 . S
C1823 C1822 1.367 . S
C1823 C1825 1.433 . S
C1824 C1820 1.350 . S
C1824 C1821 1.463 . S
C1824 N1828 1.427 . S
C1825 H1815 0.929 . S
C1825 C1823 1.433 . S
C1825 N1828 1.384 . S
C1826 H1817 0.929 . S
C1826 C1818 1.378 . S
C1826 C1821 1.350 . S
C1827 H1814 0.929 . S
C1827 C1819 1.433 . S
C1827 N1829 1.384 . S
N1828 C1824 1.427 . S
N1828 C1825 1.384 . S
N1829 C1821 1.427 . S
N1829 C1827 1.384 . S
H1830 C1836 0.930 . S
H1831 C1840 0.930 . S
H1832 C1845 0.929 . S
H1833 C1843 0.929 . S
H1834 C1838 0.929 . S
H1835 C1844 0.929 . S
C1836 H1830 0.930 . S
C1836 C1837 1.367 . S
C1836 C1844 1.378 . S
C1837 C1836 1.367 . S
C1837 C1845 1.433 . S
C1838 H1834 0.929 . S
C1838 C1840 1.378 . S
C1838 C1842 1.350 . S
C1839 C1842 1.463 . S
C1839 C1844 1.350 . S
C1839 N1847 1.427 . S
C1840 H1831 0.930 . S
C1840 C1838 1.378 . S
C1840 C1841 1.367 . S
C1841 C1840 1.367 . S
C1841 C1843 1.433 . S
C1842 C1838 1.350 . S
C1842 C1839 1.463 . S
C1842 N1846 1.427 . S
C1843 H1833 0.929 . S
C1843 C1841 1.433 . S
C1843 N1846 1.384 . S
C1844 H1835 0.929 . S
C1844 C1836 1.378 . S
C1844 C1839 1.350 . S
C1845 H1832 0.929 . S
C1845 C1837 1.433 . S
C1845 N1847 1.384 . S
N1846 C1842 1.427 . S
N1846 C1843 1.384 . S
N1847 C1839 1.427 . S
N1847 C1845 1.384 . S
H1848 C1854 0.930 . S
H1849 C1858 0.930 . S
H1850 C1863 0.929 . S
H1851 C1861 0.929 . S
H1852 C1856 0.929 . S
H1853 C1862 0.929 . S
C1854 H1848 0.930 . S
C1854 C1855 1.367 . S
C1854 C1862 1.378 . S
C1855 C1854 1.367 . S
C1855 C1863 1.433 . S
C1856 H1852 0.929 . S
C1856 C1858 1.378 . S
C1856 C1860 1.350 . S
C1857 C1860 1.463 1_554 S
C1857 C1862 1.350 . S
C1857 N1865 1.427 . S
C1858 H1849 0.930 . S
C1858 C1856 1.378 . S
C1858 C1859 1.367 . S
C1859 C1858 1.367 . S
C1859 C1861 1.433 . S
C1860 C1856 1.350 . S
C1860 C1857 1.463 1_556 S
C1860 N1864 1.427 . S
C1861 H1851 0.929 . S
C1861 C1859 1.433 . S
C1861 N1864 1.384 . S
C1862 H1853 0.929 . S
C1862 C1854 1.378 . S
C1862 C1857 1.350 . S
C1863 H1850 0.929 . S
C1863 C1855 1.433 . S
C1863 N1865 1.384 . S
N1864 C1860 1.427 . S
N1864 C1861 1.384 . S
N1865 C1857 1.427 . S
N1865 C1863 1.384 . S
H1866 C1872 0.930 . S
H1867 C1876 0.930 . S
H1868 C1881 0.929 . S
H1869 C1879 0.929 . S
H1870 C1874 0.929 . S
H1871 C1880 0.929 . S
C1872 H1866 0.930 . S
C1872 C1873 1.367 . S
C1872 C1880 1.378 . S
C1873 C1872 1.367 . S
C1873 C1881 1.433 . S
C1874 H1870 0.929 . S
C1874 C1876 1.378 . S
C1874 C1878 1.350 . S
C1875 C1878 1.463 1_556 S
C1875 C1880 1.350 . S
C1875 N1883 1.427 . S
C1876 H1867 0.930 . S
C1876 C1874 1.378 . S
C1876 C1877 1.367 . S
C1877 C1876 1.367 . S
C1877 C1879 1.433 . S
C1878 C1874 1.350 . S
C1878 C1875 1.463 1_554 S
C1878 N1882 1.427 . S
C1879 H1869 0.929 . S
C1879 C1877 1.433 . S
C1879 N1882 1.384 . S
C1880 H1871 0.929 . S
C1880 C1872 1.378 . S
C1880 C1875 1.350 . S
C1881 H1868 0.929 . S
C1881 C1873 1.433 . S
C1881 N1883 1.384 . S
N1882 C1878 1.427 . S
N1882 C1879 1.384 . S
N1883 C1875 1.427 . S
N1883 C1881 1.384 . S
H1884 C1890 0.930 . S
H1885 C1894 0.930 . S
H1886 C1899 0.929 . S
H1887 C1897 0.929 . S
H1888 C1892 0.929 . S
H1889 C1898 0.929 . S
C1890 H1884 0.930 . S
C1890 C1891 1.367 . S
C1890 C1898 1.378 . S
C1891 C1890 1.367 . S
C1891 C1899 1.433 . S
C1892 H1888 0.929 . S
C1892 C1894 1.378 . S
C1892 C1896 1.350 . S
C1893 C1896 1.463 1_556 S
C1893 C1898 1.350 . S
C1893 N1901 1.427 . S
C1894 H1885 0.930 . S
C1894 C1892 1.378 . S
C1894 C1895 1.367 . S
C1895 C1894 1.367 . S
C1895 C1897 1.433 . S
C1896 C1892 1.350 . S
C1896 C1893 1.463 1_554 S
C1896 N1900 1.427 . S
C1897 H1887 0.929 . S
C1897 C1895 1.433 . S
C1897 N1900 1.384 . S
C1898 H1889 0.929 . S
C1898 C1890 1.378 . S
C1898 C1893 1.350 . S
C1899 H1886 0.929 . S
C1899 C1891 1.433 . S
C1899 N1901 1.384 . S
N1900 C1896 1.427 . S
N1900 C1897 1.384 . S
N1901 C1893 1.427 . S
N1901 C1899 1.384 . S
H1902 C1908 0.930 . S
H1903 C1912 0.930 . S
H1904 C1917 0.929 . S
H1905 C1915 0.929 . S
H1906 C1910 0.929 . S
H1907 C1916 0.929 . S
C1908 H1902 0.930 . S
C1908 C1909 1.367 . S
C1908 C1916 1.378 . S
C1909 C1908 1.367 . S
C1909 C1917 1.433 . S
C1910 H1906 0.929 . S
C1910 C1912 1.378 . S
C1910 C1914 1.350 . S
C1911 C1914 1.463 1_554 S
C1911 C1916 1.350 . S
C1911 N1919 1.427 . S
C1912 H1903 0.930 . S
C1912 C1910 1.378 . S
C1912 C1913 1.367 . S
C1913 C1912 1.367 . S
C1913 C1915 1.433 . S
C1914 C1910 1.350 . S
C1914 C1911 1.463 1_556 S
C1914 N1918 1.427 . S
C1915 H1905 0.929 . S
C1915 C1913 1.433 . S
C1915 N1918 1.384 . S
C1916 H1907 0.929 . S
C1916 C1908 1.378 . S
C1916 C1911 1.350 . S
C1917 H1904 0.929 . S
C1917 C1909 1.433 . S
C1917 N1919 1.384 . S
N1918 C1914 1.427 . S
N1918 C1915 1.384 . S
N1919 C1911 1.427 . S
N1919 C1917 1.384 . S
H1920 C1926 0.930 . S
H1921 C1930 0.930 . S
H1922 C1935 0.929 . S
H1923 C1933 0.929 . S
H1924 C1928 0.929 . S
H1925 C1934 0.929 . S
C1926 H1920 0.930 . S
C1926 C1927 1.367 . S
C1926 C1934 1.378 . S
C1927 C1926 1.367 . S
C1927 C1935 1.433 . S
C1928 H1924 0.929 . S
C1928 C1930 1.378 . S
C1928 C1932 1.350 . S
C1929 C1932 1.463 1_554 S
C1929 C1934 1.350 . S
C1929 N1937 1.427 . S
C1930 H1921 0.930 . S
C1930 C1928 1.378 . S
C1930 C1931 1.367 . S
C1931 C1930 1.367 . S
C1931 C1933 1.433 . S
C1932 C1928 1.350 . S
C1932 C1929 1.463 1_556 S
C1932 N1936 1.427 . S
C1933 H1923 0.929 . S
C1933 C1931 1.433 . S
C1933 N1936 1.384 . S
C1934 H1925 0.929 . S
C1934 C1926 1.378 . S
C1934 C1929 1.350 . S
C1935 H1922 0.929 . S
C1935 C1927 1.433 . S
C1935 N1937 1.384 . S
N1936 C1932 1.427 . S
N1936 C1933 1.384 . S
N1937 C1929 1.427 . S
N1937 C1935 1.384 . S
H1938 C1944 0.930 . S
H1939 C1948 0.930 . S
H1940 C1953 0.929 . S
H1941 C1951 0.929 . S
H1942 C1946 0.929 . S
H1943 C1952 0.929 . S
C1944 H1938 0.930 . S
C1944 C1945 1.367 . S
C1944 C1952 1.378 . S
C1945 C1944 1.367 . S
C1945 C1953 1.433 . S
C1946 H1942 0.929 . S
C1946 C1948 1.378 . S
C1946 C1950 1.350 . S
C1947 C1950 1.463 1_556 S
C1947 C1952 1.350 . S
C1947 N1955 1.427 . S
C1948 H1939 0.930 . S
C1948 C1946 1.378 . S
C1948 C1949 1.367 . S
C1949 C1948 1.367 . S
C1949 C1951 1.433 . S
C1950 C1946 1.350 . S
C1950 C1947 1.463 1_554 S
C1950 N1954 1.427 . S
C1951 H1941 0.929 . S
C1951 C1949 1.433 . S
C1951 N1954 1.384 . S
C1952 H1943 0.929 . S
C1952 C1944 1.378 . S
C1952 C1947 1.350 . S
C1953 H1940 0.929 . S
C1953 C1945 1.433 . S
C1953 N1955 1.384 . S
N1954 C1950 1.427 . S
N1954 C1951 1.384 . S
N1955 C1947 1.427 . S
N1955 C1953 1.384 . S
H1956 C1962 0.930 . S
H1957 C1966 0.930 . S
H1958 C1971 0.929 . S
H1959 C1969 0.929 . S
H1960 C1964 0.929 . S
H1961 C1970 0.929 . S
C1962 H1956 0.930 . S
C1962 C1963 1.367 . S
C1962 C1970 1.378 . S
C1963 C1962 1.367 . S
C1963 C1971 1.433 . S
C1964 H1960 0.929 . S
C1964 C1966 1.378 . S
C1964 C1968 1.350 . S
C1965 C1968 1.463 . S
C1965 C1970 1.350 . S
C1965 N1973 1.427 . S
C1966 H1957 0.930 . S
C1966 C1964 1.378 . S
C1966 C1967 1.367 . S
C1967 C1966 1.367 . S
C1967 C1969 1.433 . S
C1968 C1964 1.350 . S
C1968 C1965 1.463 . S
C1968 N1972 1.427 . S
C1969 H1959 0.929 . S
C1969 C1967 1.433 . S
C1969 N1972 1.384 . S
C1970 H1961 0.929 . S
C1970 C1962 1.378 . S
C1970 C1965 1.350 . S
C1971 H1958 0.929 . S
C1971 C1963 1.433 . S
C1971 N1973 1.384 . S
N1972 C1968 1.427 . S
N1972 C1969 1.384 . S
N1973 C1965 1.427 . S
N1973 C1971 1.384 . S
H1974 C1980 0.930 . S
H1975 C1984 0.930 . S
H1976 C1989 0.929 . S
H1977 C1987 0.929 . S
H1978 C1982 0.929 . S
H1979 C1988 0.929 . S
C1980 H1974 0.930 . S
C1980 C1981 1.367 . S
C1980 C1988 1.378 . S
C1981 C1980 1.367 . S
C1981 C1989 1.433 . S
C1982 H1978 0.929 . S
C1982 C1984 1.378 . S
C1982 C1986 1.350 . S
C1983 C1986 1.463 . S
C1983 C1988 1.350 . S
C1983 N1991 1.427 . S
C1984 H1975 0.930 . S
C1984 C1982 1.378 . S
C1984 C1985 1.367 . S
C1985 C1984 1.367 . S
C1985 C1987 1.433 . S
C1986 C1982 1.350 . S
C1986 C1983 1.463 . S
C1986 N1990 1.427 . S
C1987 H1977 0.929 . S
C1987 C1985 1.433 . S
C1987 N1990 1.384 . S
C1988 H1979 0.929 . S
C1988 C1980 1.378 . S
C1988 C1983 1.350 . S
C1989 H1976 0.929 . S
C1989 C1981 1.433 . S
C1989 N1991 1.384 . S
N1990 C1986 1.427 . S
N1990 C1987 1.384 . S
N1991 C1983 1.427 . S
N1991 C1989 1.384 . S
H1992 C1998 0.930 . S
H1993 C2002 0.930 . S
H1994 C2007 0.929 . S
H1995 C2005 0.929 . S
H1996 C2000 0.929 . S
H1997 C2006 0.929 . S
C1998 H1992 0.930 . S
C1998 C1999 1.367 . S
C1998 C2006 1.378 . S
C1999 C1998 1.367 . S
C1999 C2007 1.433 . S
C2000 H1996 0.929 . S
C2000 C2002 1.378 . S
C2000 C2004 1.350 . S
C2001 C2004 1.463 . S
C2001 C2006 1.350 . S
C2001 N2009 1.427 . S
C2002 H1993 0.930 . S
C2002 C2000 1.378 . S
C2002 C2003 1.367 . S
C2003 C2002 1.367 . S
C2003 C2005 1.433 . S
C2004 C2000 1.350 . S
C2004 C2001 1.463 . S
C2004 N2008 1.427 . S
C2005 H1995 0.929 . S
C2005 C2003 1.433 . S
C2005 N2008 1.384 . S
C2006 H1997 0.929 . S
C2006 C1998 1.378 . S
C2006 C2001 1.350 . S
C2007 H1994 0.929 . S
C2007 C1999 1.433 . S
C2007 N2009 1.384 . S
N2008 C2004 1.427 . S
N2008 C2005 1.384 . S
N2009 C2001 1.427 . S
N2009 C2007 1.384 . S
H2010 C2016 0.930 . S
H2011 C2020 0.930 . S
H2012 C2025 0.929 . S
H2013 C2023 0.929 . S
H2014 C2018 0.929 . S
H2015 C2024 0.929 . S
C2016 H2010 0.930 . S
C2016 C2017 1.367 . S
C2016 C2024 1.378 . S
C2017 C2016 1.367 . S
C2017 C2025 1.433 . S
C2018 H2014 0.929 . S
C2018 C2020 1.378 . S
C2018 C2022 1.350 . S
C2019 C2022 1.463 . S
C2019 C2024 1.350 . S
C2019 N2027 1.427 . S
C2020 H2011 0.930 . S
C2020 C2018 1.378 . S
C2020 C2021 1.367 . S
C2021 C2020 1.367 . S
C2021 C2023 1.433 . S
C2022 C2018 1.350 . S
C2022 C2019 1.463 . S
C2022 N2026 1.427 . S
C2023 H2013 0.929 . S
C2023 C2021 1.433 . S
C2023 N2026 1.384 . S
C2024 H2015 0.929 . S
C2024 C2016 1.378 . S
C2024 C2019 1.350 . S
C2025 H2012 0.929 . S
C2025 C2017 1.433 . S
C2025 N2027 1.384 . S
N2026 C2022 1.427 . S
N2026 C2023 1.384 . S
N2027 C2019 1.427 . S
N2027 C2025 1.384 . S
H2028 C2034 0.930 . S
H2029 C2038 0.930 . S
H2030 C2043 0.929 . S
H2031 C2041 0.929 . S
H2032 C2036 0.929 . S
H2033 C2042 0.929 . S
C2034 H2028 0.930 . S
C2034 C2035 1.367 . S
C2034 C2042 1.378 . S
C2035 C2034 1.367 . S
C2035 C2043 1.433 . S
C2036 H2032 0.929 . S
C2036 C2038 1.378 . S
C2036 C2040 1.350 . S
C2037 C2040 1.463 . S
C2037 C2042 1.350 . S
C2037 N2045 1.427 . S
C2038 H2029 0.930 . S
C2038 C2036 1.378 . S
C2038 C2039 1.367 . S
C2039 C2038 1.367 . S
C2039 C2041 1.433 . S
C2040 C2036 1.350 . S
C2040 C2037 1.463 . S
C2040 N2044 1.427 . S
C2041 H2031 0.929 . S
C2041 C2039 1.433 . S
C2041 N2044 1.384 . S
C2042 H2033 0.929 . S
C2042 C2034 1.378 . S
C2042 C2037 1.350 . S
C2043 H2030 0.929 . S
C2043 C2035 1.433 . S
C2043 N2045 1.384 . S
N2044 C2040 1.427 . S
N2044 C2041 1.384 . S
N2045 C2037 1.427 . S
N2045 C2043 1.384 . S
H2046 C2052 0.930 . S
H2047 C2056 0.930 . S
H2048 C2061 0.929 . S
H2049 C2059 0.929 . S
H2050 C2054 0.929 . S
H2051 C2060 0.929 . S
C2052 H2046 0.930 . S
C2052 C2053 1.367 . S
C2052 C2060 1.378 . S
C2053 C2052 1.367 . S
C2053 C2061 1.433 . S
C2054 H2050 0.929 . S
C2054 C2056 1.378 . S
C2054 C2058 1.350 . S
C2055 C2058 1.463 . S
C2055 C2060 1.350 . S
C2055 N2063 1.427 . S
C2056 H2047 0.930 . S
C2056 C2054 1.378 . S
C2056 C2057 1.367 . S
C2057 C2056 1.367 . S
C2057 C2059 1.433 . S
C2058 C2054 1.350 . S
C2058 C2055 1.463 . S
C2058 N2062 1.427 . S
C2059 H2049 0.929 . S
C2059 C2057 1.433 . S
C2059 N2062 1.384 . S
C2060 H2051 0.929 . S
C2060 C2052 1.378 . S
C2060 C2055 1.350 . S
C2061 H2048 0.929 . S
C2061 C2053 1.433 . S
C2061 N2063 1.384 . S
N2062 C2058 1.427 . S
N2062 C2059 1.384 . S
N2063 C2055 1.427 . S
N2063 C2061 1.384 . S
H2064 C2070 0.930 . S
H2065 C2074 0.930 . S
H2066 C2079 0.929 . S
H2067 C2077 0.929 . S
H2068 C2072 0.929 . S
H2069 C2078 0.929 . S
C2070 H2064 0.930 . S
C2070 C2071 1.367 . S
C2070 C2078 1.378 . S
C2071 C2070 1.367 . S
C2071 C2079 1.433 . S
C2072 H2068 0.929 . S
C2072 C2074 1.378 . S
C2072 C2076 1.350 . S
C2073 C2076 1.463 . S
C2073 C2078 1.350 . S
C2073 N2081 1.427 . S
C2074 H2065 0.930 . S
C2074 C2072 1.378 . S
C2074 C2075 1.367 . S
C2075 C2074 1.367 . S
C2075 C2077 1.433 . S
C2076 C2072 1.350 . S
C2076 C2073 1.463 . S
C2076 N2080 1.427 . S
C2077 H2067 0.929 . S
C2077 C2075 1.433 . S
C2077 N2080 1.384 . S
C2078 H2069 0.929 . S
C2078 C2070 1.378 . S
C2078 C2073 1.350 . S
C2079 H2066 0.929 . S
C2079 C2071 1.433 . S
C2079 N2081 1.384 . S
N2080 C2076 1.427 . S
N2080 C2077 1.384 . S
N2081 C2073 1.427 . S
N2081 C2079 1.384 . S
H2082 C2088 0.930 . S
H2083 C2092 0.930 . S
H2084 C2097 0.929 . S
H2085 C2095 0.929 . S
H2086 C2090 0.929 . S
H2087 C2096 0.929 . S
C2088 H2082 0.930 . S
C2088 C2089 1.367 . S
C2088 C2096 1.378 . S
C2089 C2088 1.367 . S
C2089 C2097 1.433 . S
C2090 H2086 0.929 . S
C2090 C2092 1.378 . S
C2090 C2094 1.350 . S
C2091 C2094 1.463 . S
C2091 C2096 1.350 . S
C2091 N2099 1.427 . S
C2092 H2083 0.930 . S
C2092 C2090 1.378 . S
C2092 C2093 1.367 . S
C2093 C2092 1.367 . S
C2093 C2095 1.433 . S
C2094 C2090 1.350 . S
C2094 C2091 1.463 . S
C2094 N2098 1.427 . S
C2095 H2085 0.929 . S
C2095 C2093 1.433 . S
C2095 N2098 1.384 . S
C2096 H2087 0.929 . S
C2096 C2088 1.378 . S
C2096 C2091 1.350 . S
C2097 H2084 0.929 . S
C2097 C2089 1.433 . S
C2097 N2099 1.384 . S
N2098 C2094 1.427 . S
N2098 C2095 1.384 . S
N2099 C2091 1.427 . S
N2099 C2097 1.384 . S
H2100 C2106 0.930 . S
H2101 C2110 0.930 . S
H2102 C2115 0.929 . S
H2103 C2113 0.929 . S
H2104 C2108 0.929 . S
H2105 C2114 0.929 . S
C2106 H2100 0.930 . S
C2106 C2107 1.367 . S
C2106 C2114 1.378 . S
C2107 C2106 1.367 . S
C2107 C2115 1.433 . S
C2108 H2104 0.929 . S
C2108 C2110 1.378 . S
C2108 C2112 1.350 . S
C2109 C2112 1.463 . S
C2109 C2114 1.350 . S
C2109 N2117 1.427 . S
C2110 H2101 0.930 . S
C2110 C2108 1.378 . S
C2110 C2111 1.367 . S
C2111 C2110 1.367 . S
C2111 C2113 1.433 . S
C2112 C2108 1.350 . S
C2112 C2109 1.463 . S
C2112 N2116 1.427 . S
C2113 H2103 0.929 . S
C2113 C2111 1.433 . S
C2113 N2116 1.384 . S
C2114 H2105 0.929 . S
C2114 C2106 1.378 . S
C2114 C2109 1.350 . S
C2115 H2102 0.929 . S
C2115 C2107 1.433 . S
C2115 N2117 1.384 . S
N2116 C2112 1.427 . S
N2116 C2113 1.384 . S
N2117 C2109 1.427 . S
N2117 C2115 1.384 . S
H2118 C2124 0.930 . S
H2119 C2128 0.930 . S
H2120 C2133 0.929 . S
H2121 C2131 0.929 . S
H2122 C2126 0.929 . S
H2123 C2132 0.929 . S
C2124 H2118 0.930 . S
C2124 C2125 1.367 . S
C2124 C2132 1.378 . S
C2125 C2124 1.367 . S
C2125 C2133 1.433 . S
C2126 H2122 0.929 . S
C2126 C2128 1.378 . S
C2126 C2130 1.350 . S
C2127 C2130 1.463 . S
C2127 C2132 1.350 . S
C2127 N2135 1.427 . S
C2128 H2119 0.930 . S
C2128 C2126 1.378 . S
C2128 C2129 1.367 . S
C2129 C2128 1.367 . S
C2129 C2131 1.433 . S
C2130 C2126 1.350 . S
C2130 C2127 1.463 . S
C2130 N2134 1.427 . S
C2131 H2121 0.929 . S
C2131 C2129 1.433 . S
C2131 N2134 1.384 . S
C2132 H2123 0.929 . S
C2132 C2124 1.378 . S
C2132 C2127 1.350 . S
C2133 H2120 0.929 . S
C2133 C2125 1.433 . S
C2133 N2135 1.384 . S
N2134 C2130 1.427 . S
N2134 C2131 1.384 . S
N2135 C2127 1.427 . S
N2135 C2133 1.384 . S
H2136 C2142 0.930 . S
H2137 C2146 0.930 . S
H2138 C2151 0.929 . S
H2139 C2149 0.929 . S
H2140 C2144 0.929 . S
H2141 C2150 0.929 . S
C2142 H2136 0.930 . S
C2142 C2143 1.367 . S
C2142 C2150 1.378 . S
C2143 C2142 1.367 . S
C2143 C2151 1.433 . S
C2144 H2140 0.929 . S
C2144 C2146 1.378 . S
C2144 C2148 1.350 . S
C2145 C2148 1.463 . S
C2145 C2150 1.350 . S
C2145 N2153 1.427 . S
C2146 H2137 0.930 . S
C2146 C2144 1.378 . S
C2146 C2147 1.367 . S
C2147 C2146 1.367 . S
C2147 C2149 1.433 . S
C2148 C2144 1.350 . S
C2148 C2145 1.463 . S
C2148 N2152 1.427 . S
C2149 H2139 0.929 . S
C2149 C2147 1.433 . S
C2149 N2152 1.384 . S
C2150 H2141 0.929 . S
C2150 C2142 1.378 . S
C2150 C2145 1.350 . S
C2151 H2138 0.929 . S
C2151 C2143 1.433 . S
C2151 N2153 1.384 . S
N2152 C2148 1.427 . S
N2152 C2149 1.384 . S
N2153 C2145 1.427 . S
N2153 C2151 1.384 . S
H2154 C2160 0.930 . S
H2155 C2164 0.930 . S
H2156 C2169 0.929 . S
H2157 C2167 0.929 . S
H2158 C2162 0.929 . S
H2159 C2168 0.929 . S
C2160 H2154 0.930 . S
C2160 C2161 1.367 . S
C2160 C2168 1.378 . S
C2161 C2160 1.367 . S
C2161 C2169 1.433 . S
C2162 H2158 0.929 . S
C2162 C2164 1.378 . S
C2162 C2166 1.350 . S
C2163 C2166 1.463 . S
C2163 C2168 1.350 . S
C2163 N2171 1.427 . S
C2164 H2155 0.930 . S
C2164 C2162 1.378 . S
C2164 C2165 1.367 . S
C2165 C2164 1.367 . S
C2165 C2167 1.433 . S
C2166 C2162 1.350 . S
C2166 C2163 1.463 . S
C2166 N2170 1.427 . S
C2167 H2157 0.929 . S
C2167 C2165 1.433 . S
C2167 N2170 1.384 . S
C2168 H2159 0.929 . S
C2168 C2160 1.378 . S
C2168 C2163 1.350 . S
C2169 H2156 0.929 . S
C2169 C2161 1.433 . S
C2169 N2171 1.384 . S
N2170 C2166 1.427 . S
N2170 C2167 1.384 . S
N2171 C2163 1.427 . S
N2171 C2169 1.384 . S
H2172 C2178 0.930 . S
H2173 C2182 0.930 . S
H2174 C2187 0.929 . S
H2175 C2185 0.929 . S
H2176 C2180 0.929 . S
H2177 C2186 0.929 . S
C2178 H2172 0.930 . S
C2178 C2179 1.367 . S
C2178 C2186 1.378 . S
C2179 C2178 1.367 . S
C2179 C2187 1.433 . S
C2180 H2176 0.929 . S
C2180 C2182 1.378 . S
C2180 C2184 1.350 . S
C2181 C2184 1.463 . S
C2181 C2186 1.350 . S
C2181 N2189 1.427 . S
C2182 H2173 0.930 . S
C2182 C2180 1.378 . S
C2182 C2183 1.367 . S
C2183 C2182 1.367 . S
C2183 C2185 1.433 . S
C2184 C2180 1.350 . S
C2184 C2181 1.463 . S
C2184 N2188 1.427 . S
C2185 H2175 0.929 . S
C2185 C2183 1.433 . S
C2185 N2188 1.384 . S
C2186 H2177 0.929 . S
C2186 C2178 1.378 . S
C2186 C2181 1.350 . S
C2187 H2174 0.929 . S
C2187 C2179 1.433 . S
C2187 N2189 1.384 . S
N2188 C2184 1.427 . S
N2188 C2185 1.384 . S
N2189 C2181 1.427 . S
N2189 C2187 1.384 . S
H2190 C2196 0.930 . S
H2191 C2200 0.930 . S
H2192 C2205 0.929 . S
H2193 C2203 0.929 . S
H2194 C2198 0.929 . S
H2195 C2204 0.929 . S
C2196 H2190 0.930 . S
C2196 C2197 1.367 . S
C2196 C2204 1.378 . S
C2197 C2196 1.367 . S
C2197 C2205 1.433 . S
C2198 H2194 0.929 . S
C2198 C2200 1.378 . S
C2198 C2202 1.350 . S
C2199 C2202 1.463 . S
C2199 C2204 1.350 . S
C2199 N2207 1.427 . S
C2200 H2191 0.930 . S
C2200 C2198 1.378 . S
C2200 C2201 1.367 . S
C2201 C2200 1.367 . S
C2201 C2203 1.433 . S
C2202 C2198 1.350 . S
C2202 C2199 1.463 . S
C2202 N2206 1.427 . S
C2203 H2193 0.929 . S
C2203 C2201 1.433 . S
C2203 N2206 1.384 . S
C2204 H2195 0.929 . S
C2204 C2196 1.378 . S
C2204 C2199 1.350 . S
C2205 H2192 0.929 . S
C2205 C2197 1.433 . S
C2205 N2207 1.384 . S
N2206 C2202 1.427 . S
N2206 C2203 1.384 . S
N2207 C2199 1.427 . S
N2207 C2205 1.384 . S
H2208 C2214 0.930 . S
H2209 C2218 0.930 . S
H2210 C2223 0.929 . S
H2211 C2221 0.929 . S
H2212 C2216 0.929 . S
H2213 C2222 0.929 . S
C2214 H2208 0.930 . S
C2214 C2215 1.367 . S
C2214 C2222 1.378 . S
C2215 C2214 1.367 . S
C2215 C2223 1.433 . S
C2216 H2212 0.929 . S
C2216 C2218 1.378 . S
C2216 C2220 1.350 . S
C2217 C2220 1.463 . S
C2217 C2222 1.350 . S
C2217 N2225 1.427 . S
C2218 H2209 0.930 . S
C2218 C2216 1.378 . S
C2218 C2219 1.367 . S
C2219 C2218 1.367 . S
C2219 C2221 1.433 . S
C2220 C2216 1.350 . S
C2220 C2217 1.463 . S
C2220 N2224 1.427 . S
C2221 H2211 0.929 . S
C2221 C2219 1.433 . S
C2221 N2224 1.384 . S
C2222 H2213 0.929 . S
C2222 C2214 1.378 . S
C2222 C2217 1.350 . S
C2223 H2210 0.929 . S
C2223 C2215 1.433 . S
C2223 N2225 1.384 . S
N2224 C2220 1.427 . S
N2224 C2221 1.384 . S
N2225 C2217 1.427 . S
N2225 C2223 1.384 . S
H2226 C2232 0.930 . S
H2227 C2236 0.930 . S
H2228 C2241 0.929 . S
H2229 C2239 0.929 . S
H2230 C2234 0.929 . S
H2231 C2240 0.929 . S
C2232 H2226 0.930 . S
C2232 C2233 1.367 . S
C2232 C2240 1.378 . S
C2233 C2232 1.367 . S
C2233 C2241 1.433 . S
C2234 H2230 0.929 . S
C2234 C2236 1.378 . S
C2234 C2238 1.350 . S
C2235 C2238 1.463 . S
C2235 C2240 1.350 . S
C2235 N2243 1.427 . S
C2236 H2227 0.930 . S
C2236 C2234 1.378 . S
C2236 C2237 1.367 . S
C2237 C2236 1.367 . S
C2237 C2239 1.433 . S
C2238 C2234 1.350 . S
C2238 C2235 1.463 . S
C2238 N2242 1.427 . S
C2239 H2229 0.929 . S
C2239 C2237 1.433 . S
C2239 N2242 1.384 . S
C2240 H2231 0.929 . S
C2240 C2232 1.378 . S
C2240 C2235 1.350 . S
C2241 H2228 0.929 . S
C2241 C2233 1.433 . S
C2241 N2243 1.384 . S
N2242 C2238 1.427 . S
N2242 C2239 1.384 . S
N2243 C2235 1.427 . S
N2243 C2241 1.384 . S
H2244 C2250 0.930 . S
H2245 C2254 0.930 . S
H2246 C2259 0.929 . S
H2247 C2257 0.929 . S
H2248 C2252 0.929 . S
H2249 C2258 0.929 . S
C2250 H2244 0.930 . S
C2250 C2251 1.367 . S
C2250 C2258 1.378 . S
C2251 C2250 1.367 . S
C2251 C2259 1.433 . S
C2252 H2248 0.929 . S
C2252 C2254 1.378 . S
C2252 C2256 1.350 . S
C2253 C2256 1.463 . S
C2253 C2258 1.350 . S
C2253 N2261 1.427 . S
C2254 H2245 0.930 . S
C2254 C2252 1.378 . S
C2254 C2255 1.367 . S
C2255 C2254 1.367 . S
C2255 C2257 1.433 . S
C2256 C2252 1.350 . S
C2256 C2253 1.463 . S
C2256 N2260 1.427 . S
C2257 H2247 0.929 . S
C2257 C2255 1.433 . S
C2257 N2260 1.384 . S
C2258 H2249 0.929 . S
C2258 C2250 1.378 . S
C2258 C2253 1.350 . S
C2259 H2246 0.929 . S
C2259 C2251 1.433 . S
C2259 N2261 1.384 . S
N2260 C2256 1.427 . S
N2260 C2257 1.384 . S
N2261 C2253 1.427 . S
N2261 C2259 1.384 . S
H2262 C2268 0.930 . S
H2263 C2272 0.930 . S
H2264 C2277 0.929 . S
H2265 C2275 0.929 . S
H2266 C2270 0.929 . S
H2267 C2276 0.929 . S
C2268 H2262 0.930 . S
C2268 C2269 1.367 . S
C2268 C2276 1.378 . S
C2269 C2268 1.367 . S
C2269 C2277 1.433 . S
C2270 H2266 0.929 . S
C2270 C2272 1.378 . S
C2270 C2274 1.350 . S
C2271 C2274 1.463 . S
C2271 C2276 1.350 . S
C2271 N2279 1.427 . S
C2272 H2263 0.930 . S
C2272 C2270 1.378 . S
C2272 C2273 1.367 . S
C2273 C2272 1.367 . S
C2273 C2275 1.433 . S
C2274 C2270 1.350 . S
C2274 C2271 1.463 . S
C2274 N2278 1.427 . S
C2275 H2265 0.929 . S
C2275 C2273 1.433 . S
C2275 N2278 1.384 . S
C2276 H2267 0.929 . S
C2276 C2268 1.378 . S
C2276 C2271 1.350 . S
C2277 H2264 0.929 . S
C2277 C2269 1.433 . S
C2277 N2279 1.384 . S
N2278 C2274 1.427 . S
N2278 C2275 1.384 . S
N2279 C2271 1.427 . S
N2279 C2277 1.384 . S
C1423 C52 1.785 . S
C1427 C465 1.784 . S
C1441 C524 1.780 . S
C1445 C111 1.780 . S
C1459 C170 1.784 . S
C1463 C583 1.784 . S
C1477 C229 1.785 . S
C1481 C642 1.784 . S
C1495 C701 1.783 . S
C1499 C288 1.783 . S
C1513 C347 1.782 . S
C1517 C406 1.782 . S
C1531 C760 1.780 . S
C1535 C1173 1.780 . S
C1549 C819 1.782 . S
C1553 C1232 1.783 . S
C1567 C1291 1.785 . S
C1571 C878 1.785 . S
C1585 C937 1.781 . S
C1589 C1350 1.780 . S
C1603 C996 1.781 . S
C1607 C1409 1.781 . S
C1621 C1114 1.780 . S
C1625 C1055 1.780 . S
C1639 C5 1.572 . S
C1643 C477 1.571 . S
C1657 C536 1.570 . S
C1661 C64 1.570 . S
C1675 C595 1.574 . S
C1679 C123 1.573 . S
C1693 C182 1.570 . S
C1697 C654 1.570 . S
C1711 C241 1.572 . S
C1715 C359 1.571 . S
C1729 C300 1.575 . S
C1733 C418 1.574 . S
C1747 C1185 1.573 . S
C1751 C713 1.573 . S
C1765 C772 1.571 . S
C1769 C1244 1.570 . S
C1783 C1303 1.570 . S
C1787 C831 1.571 . S
C1801 C1362 1.574 . S
C1805 C890 1.574 . S
C1819 C1067 1.573 . S
C1823 C949 1.572 . S
C1837 C1008 1.574 . S
C1841 C1126 1.574 . S
C1855 C3 1.641 . S
C1859 C888 1.640 . S
C1873 C947 1.640 . S
C1877 C62 1.641 . S
C1891 C1006 1.644 . S
C1895 C121 1.637 . S
C1909 C180 1.644 . S
C1913 C711 1.636 . S
C1927 C239 1.637 . S
C1931 C770 1.644 . S
C1945 C829 1.636 . S
C1949 C298 1.644 . S
C1963 C1242 1.642 . S
C1967 C357 1.639 . S
C1981 C1301 1.636 . S
C1985 C416 1.644 . S
C1999 C1360 1.643 . S
C2003 C475 1.637 . S
C2017 C1065 1.640 . S
C2021 C534 1.640 . S
C2035 C593 1.641 . S
C2039 C1124 1.640 . S
C2053 C652 1.637 . S
C2057 C1183 1.644 . S
C2071 C33 1.467 . S
C2075 C623 1.465 . S
C2089 C682 1.457 . S
C2093 C92 1.456 . S
C2107 C387 1.459 . S
C2111 C151 1.457 . S
C2125 C210 1.464 . S
C2129 C446 1.466 . S
C2143 C269 1.467 . S
C2147 C505 1.466 . S
C2161 C328 1.459 . S
C2165 C564 1.457 . S
C2179 C741 1.459 . S
C2183 C1331 1.462 . S
C2197 C800 1.464 . S
C2201 C1390 1.462 . S
C2215 C859 1.466 . S
C2219 C1095 1.467 . S
C2233 C1154 1.460 . S
C2237 C918 1.458 . S
C2251 C977 1.456 . S
C2255 C1213 1.456 . S
C2269 C1036 1.467 . S
C2273 C1272 1.466 . S
