# Generated by pormake.
# Topology sxa, (6)-cn, num edge types: 1
# Building blocks:
#     Node 0, Type 0, BuildingBlock: VOLQOD_clean_sbu_1, # of connection points: 6
#     Node 1, Type 0, BuildingBlock: VOLQOD_clean_sbu_1, # of connection points: 6
#     Node 2, Type 0, BuildingBlock: VOLQOD_clean_sbu_1, # of connection points: 6
#     Node 3, Type 0, BuildingBlock: VOLQOD_clean_sbu_1, # of connection points: 6
#     Edge 4, Type (0, 0), BuildingBlock: CIFDUS_clean_linker_0, # of connection points: 2
#     Edge 5, Type (0, 0), BuildingBlock: CIFDUS_clean_linker_0, # of connection points: 2
#     Edge 6, Type (0, 0), BuildingBlock: CIFDUS_clean_linker_0, # of connection points: 2
#     Edge 7, Type (0, 0), BuildingBlock: CIFDUS_clean_linker_0, # of connection points: 2
#     Edge 8, Type (0, 0), BuildingBlock: CIFDUS_clean_linker_0, # of connection points: 2
#     Edge 9, Type (0, 0), BuildingBlock: CIFDUS_clean_linker_0, # of connection points: 2
#     Edge 10, Type (0, 0), BuildingBlock: CIFDUS_clean_linker_0, # of connection points: 2
#     Edge 11, Type (0, 0), BuildingBlock: CIFDUS_clean_linker_0, # of connection points: 2
#     Edge 12, Type (0, 0), BuildingBlock: CIFDUS_clean_linker_0, # of connection points: 2
#     Edge 13, Type (0, 0), BuildingBlock: CIFDUS_clean_linker_0, # of connection points: 2
#     Edge 14, Type (0, 0), BuildingBlock: CIFDUS_clean_linker_0, # of connection points: 2
#     Edge 15, Type (0, 0), BuildingBlock: CIFDUS_clean_linker_0, # of connection points: 2
# Relax obj value: 0.229
# Max RMSD: 0.203
# Mean RMSD: 0.203
data_MOF--net-sxa--node1-VOLQOD_clean_sbu_1--edge1-CIFDUS_clean_linker_0
_symmetry_space_group_name_H-M    P1
_symmetry_Int_Tables_number       1
_symmetry_cell_setting            triclinic
loop_
_symmetry_equiv_pos_as_xyz
'x, y, z'
_cell_length_a     22.722908
_cell_length_b     26.673621
_cell_length_c     15.881744
_cell_angle_alpha  91.148385
_cell_angle_beta   90.623182
_cell_angle_gamma 90.066776
loop_
_atom_site_label
_atom_site_type_symbol
_atom_site_fract_x
_atom_site_fract_y
_atom_site_fract_z
_atom_type_partial_charge
O0 O 0.92732 0.75951 0.36453 0.0
Zn1 Zn 0.01078 0.74436 0.32038 0.0
O2 O 0.03305 0.79827 0.24836 0.0
Zn3 Zn 0.07186 0.77412 0.15027 0.0
Zn4 Zn 0.96695 0.8317 0.20751 0.0
Zn5 Zn 0.08368 0.84604 0.30493 0.0
O6 O 0.15801 0.77611 0.16998 0.0
O7 O 0.16746 0.82799 0.28073 0.0
O8 O 0.00943 0.67669 0.24903 0.0
O9 O 0.05116 0.70326 0.13236 0.0
O10 O 0.04194 0.80655 0.04435 0.0
O11 O 0.95051 0.8047 0.09325 0.0
O12 O -0.01268 0.90284 0.18682 0.0
O13 O 0.07283 0.75003 0.41735 0.0
O14 O 0.06928 0.91727 0.26105 0.0
O15 O 0.07881 0.83357 0.42917 0.0
C16 C 0.88919 0.79272 0.34448 0.0
C17 C 0.18941 0.79812 0.22628 0.0
C18 C -0.01355 0.80592 1.03224 0.0
C19 C 0.02704 0.66862 0.17333 0.0
C20 C 0.02925 0.93176 0.20978 0.0
C21 C 0.09068 0.78993 0.45685 0.0
O22 O 0.89886 0.82366 0.28591 0.0
O23 O 0.45838 0.24958 0.42029 0.0
Zn24 Zn 0.51977 0.23984 0.32538 0.0
O25 O 0.50073 0.29202 0.24792 0.0
Zn26 Zn 0.46194 0.26662 0.14923 0.0
Zn27 Zn 0.45421 0.34314 0.3005 0.0
Zn28 Zn 0.56755 0.32193 0.20513 0.0
O29 O 0.49416 0.29595 0.04231 0.0
O30 O 0.5843 0.28876 0.09628 0.0
O31 O 0.51666 0.17037 0.26022 0.0
O32 O 0.48153 0.19503 0.13644 0.0
O33 O 0.37553 0.27194 0.16647 0.0
O34 O 0.37079 0.32813 0.27192 0.0
O35 O 0.47288 0.41281 0.25419 0.0
O36 O 0.60404 0.25428 0.37035 0.0
O37 O 0.5502 0.39281 0.17606 0.0
O38 O 0.63388 0.3157 0.28728 0.0
C39 C 0.44186 0.2907 0.45647 0.0
C40 C 0.54942 0.29039 1.03308 0.0
C41 C 0.34633 0.29763 0.22001 0.0
C42 C 0.50224 0.16109 0.18302 0.0
C43 C 0.51145 0.42425 0.19971 0.0
C44 C 0.6427 0.28652 0.34875 0.0
O45 O 0.45524 0.33328 0.42609 0.0
O46 O 0.10334 0.24667 0.71108 0.0
Zn47 Zn 0.02149 0.23884 0.7612 0.0
O48 O 0.0063 0.29563 0.83335 0.0
Zn49 Zn 0.97357 0.27221 0.93504 0.0
Zn50 Zn 0.07581 0.3325 0.85966 0.0
Zn51 Zn 0.94888 0.34013 0.78733 0.0
O52 O 0.88643 0.26635 0.92331 0.0
O53 O 0.86811 0.32075 0.82272 0.0
O54 O 0.02042 0.17309 0.82977 0.0
O55 O 0.00275 0.20413 0.95778 0.0
O56 O 0.00029 0.31398 1.03323 0.0
O57 O 0.09085 0.32233 0.9821 0.0
O58 O 0.06132 0.40685 0.85863 0.0
O59 O 0.95736 0.24241 0.67052 0.0
O60 O 0.96511 0.41164 0.83235 0.0
O61 O 0.94271 0.32507 0.66254 0.0
C62 C 0.14708 0.27577 0.7269 0.0
C63 C 0.85063 0.28853 0.87459 0.0
C64 C 0.05464 0.32399 0.04316 0.0
C65 C 0.01663 0.16766 0.90953 0.0
C66 C 0.01358 0.43178 0.85676 0.0
C67 C 0.93371 0.28021 0.63473 0.0
O68 O 0.14386 0.31052 0.78346 0.0
O69 O 0.58001 0.73943 0.66551 0.0
Zn70 Zn 0.51675 0.73367 0.75563 0.0
O71 O 0.53141 0.78957 0.83021 0.0
Zn72 Zn 0.56723 0.76723 0.93157 0.0
Zn73 Zn 0.58311 0.83792 0.78177 0.0
Zn74 Zn 0.46093 0.82017 0.86511 0.0
O75 O 0.53655 0.80425 1.03303 0.0
O76 O 0.4455 0.79671 0.98103 0.0
O77 O 0.51965 0.6672 0.82212 0.0
O78 O 0.54438 0.69692 0.94936 0.0
O79 O 0.65412 0.76807 0.91954 0.0
O80 O 0.66574 0.82349 0.81849 0.0
O81 O 0.56205 0.90896 0.8252 0.0
O82 O 0.43424 0.74179 0.70537 0.0
O83 O 0.47612 0.89364 0.88586 0.0
O84 O 0.39375 0.80321 0.7823 0.0
C85 C 0.60149 0.77798 0.62972 0.0
C86 C 0.48117 0.80226 0.04321 0.0
C87 C 0.68684 0.79252 0.87047 0.0
C88 C 0.52817 0.6609 0.90111 0.0
C89 C 0.51837 0.9233 0.86991 0.0
C90 C 0.39053 0.77033 0.72254 0.0
O91 O 0.59014 0.8225 0.6569 0.0
H92 H 0.95356 0.46093 0.99633 0.0
H93 H 0.07981 0.51212 0.81658 0.0
H94 H 0.09566 0.58893 0.90067 0.0
H95 H 0.07736 0.63926 1.02693 0.0
H96 H 0.95479 0.58853 0.21278 0.0
H97 H 0.93481 0.51294 0.12577 0.0
C98 C -0.01673 0.48969 0.97472 0.0
C99 C 0.01419 0.48178 0.89889 0.0
C100 C -0.00607 0.53295 1.02552 0.0
C101 C 0.0545 0.51809 0.87333 0.0
C102 C 0.06401 0.56165 0.92196 0.0
C103 C 0.04613 0.61185 0.04907 0.0
C104 C 0.01761 0.61989 0.12687 0.0
C105 C 0.03468 0.56906 0.99863 0.0
C106 C 0.97778 0.58336 0.15388 0.0
C107 C 0.96599 0.54034 0.10363 0.0
H108 H 0.53839 0.4404 1.03717 0.0
H109 H 0.47498 0.51583 0.26117 0.0
H110 H 0.47172 0.59533 0.18608 0.0
H111 H 0.49096 0.64352 0.05871 0.0
H112 H 0.54907 0.56739 0.83238 0.0
H113 H 0.54942 0.48739 0.90618 0.0
C114 C 0.52407 0.47432 0.06971 0.0
C115 C 0.50808 0.47254 0.15526 0.0
C116 C 0.52097 0.51941 1.02554 0.0
C117 C 0.48803 0.51639 0.1958 0.0
C118 C 0.48613 0.56173 0.15281 0.0
C119 C 0.50324 0.60931 1.02526 0.0
C120 C 0.52052 0.61136 0.9403 0.0
C121 C 0.503 0.56369 0.06797 0.0
C122 C 0.53543 0.56673 0.89749 0.0
C123 C 0.53607 0.52114 0.93993 0.0
H124 H 0.48558 0.94093 1.03071 0.0
H125 H 0.55959 1.01414 0.81669 0.0
H126 H 0.56428 0.09351 0.8977 0.0
H127 H 0.54372 0.14226 1.02756 0.0
H128 H 0.47659 0.06803 0.24517 0.0
H129 H 0.47389 0.98811 0.16523 0.0
C130 C 0.50244 0.97437 1.00169 0.0
C131 C 0.52092 0.972 0.91702 0.0
C132 C 0.50686 1.01922 0.04968 0.0
C133 C 0.54434 1.01519 0.88109 0.0
C134 C 0.54719 0.06042 0.92757 0.0
C135 C 0.52932 0.10838 0.05791 0.0
C136 C 0.51022 0.11101 0.14222 0.0
C137 C 0.52826 0.06287 1.01167 0.0
C138 C 0.49199 0.06688 0.18086 0.0
C139 C 0.48991 1.02139 0.13478 0.0
H140 H 0.0026 0.94813 0.04712 0.0
H141 H 0.07079 1.02243 0.27132 0.0
H142 H 0.07645 0.10169 0.19543 0.0
H143 H 0.05687 0.15014 0.06737 0.0
H144 H -0.00651 0.07438 0.84148 0.0
H145 H -0.00793 0.9947 0.91579 0.0
C146 C 0.01854 0.98175 0.07955 0.0
C147 C 0.035 0.97984 0.16536 0.0
C148 C 0.02291 1.02654 1.03501 0.0
C149 C 0.05726 1.02319 0.20575 0.0
C150 C 0.06051 0.06836 0.16229 0.0
C151 C 0.04333 0.11605 1.0341 0.0
C152 C 0.02477 0.11819 0.94908 0.0
C153 C 0.0428 0.07053 0.07721 0.0
C154 C 0.00817 0.07369 0.90657 0.0
C155 C 0.00689 1.02827 0.94931 0.0
H156 H 0.29095 0.82853 0.72893 0.0
H157 H 0.36442 0.69871 0.60204 0.0
H158 H 0.2752 0.68957 0.51655 0.0
H159 H 0.17847 0.72125 0.47084 0.0
H160 H 0.10728 0.85374 0.59129 0.0
H161 H 0.19239 0.8583 0.6869 0.0
C162 C 0.28743 0.79805 0.68294 0.0
C163 C 0.33493 0.76459 0.67207 0.0
C164 C 0.2359 0.79317 0.63296 0.0
C165 C 0.3291 0.72535 0.61184 0.0
C166 C 0.27783 0.71991 0.56286 0.0
C167 C 0.18086 0.75033 0.51949 0.0
C168 C 0.1361 0.78671 0.52461 0.0
C169 C 0.23113 0.75385 0.57219 0.0
C170 C 0.1408 0.82501 0.5865 0.0
C171 C 0.18974 0.82785 0.64079 0.0
H172 H 0.24433 0.33709 0.72413 0.0
H173 H 0.17483 0.19859 0.61845 0.0
H174 H 0.26282 0.18796 0.53354 0.0
H175 H 0.35697 0.22041 0.48164 0.0
H176 H 0.42408 0.36111 0.58075 0.0
H177 H 0.34063 0.36785 0.67633 0.0
C178 C 0.24852 0.30438 0.68302 0.0
C179 C 0.20242 0.2689 0.67782 0.0
C180 C 0.29926 0.29867 0.63312 0.0
C181 C 0.20904 0.22682 0.62374 0.0
C182 C 0.25961 0.22056 0.57508 0.0
C183 C 0.3541 0.25195 0.52558 0.0
C184 C 0.39722 0.28994 0.52448 0.0
C185 C 0.30475 0.25649 0.57842 0.0
C186 C 0.39183 0.33116 0.58054 0.0
C187 C 0.34384 0.3352 0.63491 0.0
H188 H 0.87719 0.34939 0.53923 0.0
H189 H 0.8806 0.1911 0.59061 0.0
H190 H 0.79028 0.1788 0.50831 0.0
H191 H 0.70617 0.21401 0.42874 0.0
H192 H 0.70565 0.37179 0.37415 0.0
H193 H 0.79816 0.38318 0.45127 0.0
C194 C 0.85878 0.31203 0.53147 0.0
C195 C 0.88577 0.27139 0.57166 0.0
C196 C 0.8065 0.30517 0.48451 0.0
C197 C 0.86114 0.2232 0.56032 0.0
C198 C 0.80902 0.21612 0.5138 0.0
C199 C 0.72636 0.25082 0.43405 0.0
C200 C 0.69875 0.29205 0.39655 0.0
C201 C 0.78054 0.25702 0.47714 0.0
C202 C 0.72593 0.33942 0.40258 0.0
C203 C 0.77893 0.34601 0.44659 0.0
H204 H 0.82893 0.71872 0.42434 0.0
H205 H 0.82203 0.87606 0.36718 0.0
H206 H 0.73024 0.88481 0.44427 0.0
H207 H 0.65408 0.84893 0.5337 0.0
H208 H 0.65837 0.69087 0.58677 0.0
H209 H 0.74776 0.68126 0.50445 0.0
C210 C 0.80729 0.75488 0.42885 0.0
C211 C 0.83279 0.79675 0.39072 0.0
C212 C 0.75358 0.75955 0.47208 0.0
C213 C 0.80357 0.84318 0.39599 0.0
C214 C 0.75096 0.84827 0.4401 0.0
C215 C 0.67396 0.81218 0.5263 0.0
C216 C 0.64929 0.77082 0.56703 0.0
C217 C 0.72573 0.80683 0.47896 0.0
C218 C 0.67591 0.72349 0.55614 0.0
C219 C 0.72752 0.71795 0.50952 0.0
H220 H 0.43397 0.72601 0.12184 0.0
H221 H 0.46798 0.88421 0.14557 0.0
H222 H 0.3792 0.89555 0.22958 0.0
H223 H 0.27861 0.86407 0.25313 0.0
H224 H 0.24015 0.70767 0.20554 0.0
H225 H 0.34336 0.69123 0.1753 0.0
C226 C 0.42342 0.76235 0.14984 0.0
C227 C 0.45578 0.80439 0.12685 0.0
C228 C 0.37 0.76891 0.19096 0.0
C229 C 0.44282 0.85151 0.16252 0.0
C230 C 0.39149 0.85804 0.20907 0.0
C231 C 0.29354 0.82627 0.23867 0.0
C232 C 0.25241 0.78735 0.22861 0.0
C233 C 0.35233 0.81771 0.21691 0.0
C234 C 0.27144 0.7383 0.2109 0.0
C235 C 0.3303 0.72888 0.19404 0.0
H236 H 0.08991 0.24599 0.12857 0.0
H237 H 0.08025 0.40694 0.13831 0.0
H238 H 0.17135 0.41116 0.22156 0.0
H239 H 0.26684 0.37078 0.24502 0.0
H240 H 0.28426 0.21152 0.20077 0.0
H241 H 0.17821 0.20397 0.17711 0.0
C242 C 0.10634 0.28163 0.15351 0.0
C243 C 0.07997 0.32605 0.12728 0.0
C244 C 0.16197 0.28376 0.19122 0.0
C245 C 0.10057 0.37238 0.15847 0.0
C246 C 0.15329 0.37473 0.20415 0.0
C247 C 0.24686 0.33438 0.23239 0.0
C248 C 0.28254 0.29199 0.22178 0.0
C249 C 0.18678 0.33101 0.21353 0.0
C250 C 0.25708 0.24475 0.20638 0.0
C251 C 0.19665 0.24043 0.19353 0.0
H252 H 0.60341 0.21132 0.96791 0.0
H253 H 0.56101 0.3653 0.92083 0.0
H254 H 0.65421 0.37589 0.84745 0.0
H255 H 0.75762 0.34835 0.83837 0.0
H256 H 0.80378 0.19862 0.91288 0.0
H257 H 0.70036 0.17908 0.93514 0.0
C258 C 0.61337 0.24623 0.93704 0.0
C259 C 0.57668 0.28767 0.95053 0.0
C260 C 0.66941 0.25335 0.90424 0.0
C261 C 0.58903 0.33291 0.91086 0.0
C262 C 0.64306 0.33929 0.87109 0.0
C263 C 0.74468 0.31122 0.85788 0.0
C264 C 0.78793 0.27543 0.87672 0.0
C265 C 0.6854 0.30102 0.87423 0.0
C266 C 0.77108 0.2272 0.9008 0.0
C267 C 0.71203 0.21587 0.91273 0.0
H268 H 0.94007 0.72561 0.95799 0.0
H269 H 0.97049 0.88301 0.92519 0.0
H270 H 0.87624 0.89068 0.85077 0.0
H271 H 0.77479 0.85808 0.83883 0.0
H272 H 0.7402 0.70415 0.90072 0.0
H273 H 0.84512 0.68925 0.92133 0.0
C274 C 0.92728 0.76081 0.92984 0.0
C275 C 0.96068 0.80384 0.948 0.0
C276 C 0.87045 0.76589 0.8969 0.0
C277 C 0.94485 0.84945 0.91178 0.0
C278 C 0.89022 0.85405 0.87144 0.0
C279 C 0.79062 0.82113 0.85516 0.0
C280 C 0.75027 0.78269 0.87119 0.0
C281 C 0.85073 0.81352 0.87082 0.0
C282 C 0.77074 0.73468 0.89105 0.0
C283 C 0.83064 0.72602 0.90197 0.0
loop_
_geom_bond_atom_site_label_1
_geom_bond_atom_site_label_2
_geom_bond_distance
_geom_bond_site_symmetry_2
_ccdc_geom_bond_type
O0 Zn1 1.953 1_655 S
O0 C16 1.225 . S
Zn1 O0 1.953 1_455 S
Zn1 O2 1.949 . S
Zn1 O8 1.919 . S
Zn1 O13 1.924 . S
O2 Zn1 1.949 . S
O2 Zn3 1.923 . S
O2 Zn4 1.950 1_455 S
O2 Zn5 1.945 . S
Zn3 O2 1.923 . S
Zn3 O6 1.933 . S
Zn3 O9 1.941 . S
Zn3 O10 1.965 1_455 S
Zn4 O2 1.950 1_655 S
Zn4 O11 1.938 . S
Zn4 O12 1.906 . S
Zn4 O22 1.953 . S
Zn5 O2 1.945 . S
Zn5 O7 1.932 . S
Zn5 O14 1.977 . S
Zn5 O15 1.910 . S
O6 Zn3 1.933 . S
O6 C17 1.226 . S
O7 Zn5 1.932 . S
O7 C17 1.307 . S
O8 Zn1 1.919 . S
O8 C19 1.253 . S
O9 Zn3 1.941 . S
O9 C19 1.283 . S
O10 Zn3 1.965 1_655 S
O10 C18 1.303 . S
O11 Zn4 1.938 . S
O11 C18 1.247 . S
O12 Zn4 1.906 . S
O12 C20 1.304 1_655 S
O13 Zn1 1.924 . S
O13 C21 1.311 . S
O14 Zn5 1.977 . S
O14 C20 1.272 . S
O15 Zn5 1.910 . S
O15 C21 1.231 . S
C16 O0 1.225 . S
C16 O22 1.298 . S
C17 O6 1.226 . S
C17 O7 1.307 . S
C18 O10 1.303 . S
C18 O11 1.247 . S
C19 O8 1.253 . S
C19 O9 1.283 . S
C20 O12 1.304 1_455 S
C20 O14 1.272 . S
C21 O13 1.311 . S
C21 O15 1.231 . S
O22 Zn4 1.953 . S
O22 C16 1.298 . S
O23 Zn24 1.953 . S
O23 C39 1.225 . S
Zn24 O23 1.953 . S
Zn24 O25 1.949 . S
Zn24 O31 1.919 . S
Zn24 O36 1.924 . S
O25 Zn24 1.949 . S
O25 Zn26 1.923 . S
O25 Zn27 1.950 . S
O25 Zn28 1.945 . S
Zn26 O25 1.923 . S
Zn26 O29 1.933 . S
Zn26 O32 1.941 . S
Zn26 O33 1.965 . S
Zn27 O25 1.950 . S
Zn27 O34 1.938 . S
Zn27 O35 1.906 . S
Zn27 O45 1.953 . S
Zn28 O25 1.945 . S
Zn28 O30 1.932 . S
Zn28 O37 1.977 . S
Zn28 O38 1.910 . S
O29 Zn26 1.933 . S
O29 C40 1.226 . S
O30 Zn28 1.932 . S
O30 C40 1.307 . S
O31 Zn24 1.919 . S
O31 C42 1.253 . S
O32 Zn26 1.941 . S
O32 C42 1.283 . S
O33 Zn26 1.965 . S
O33 C41 1.303 . S
O34 Zn27 1.938 . S
O34 C41 1.247 . S
O35 Zn27 1.906 . S
O35 C43 1.304 . S
O36 Zn24 1.924 . S
O36 C44 1.311 . S
O37 Zn28 1.977 . S
O37 C43 1.272 . S
O38 Zn28 1.910 . S
O38 C44 1.231 . S
C39 O23 1.225 . S
C39 O45 1.298 . S
C40 O29 1.226 . S
C40 O30 1.307 . S
C41 O33 1.303 . S
C41 O34 1.247 . S
C42 O31 1.253 . S
C42 O32 1.283 . S
C43 O35 1.304 . S
C43 O37 1.272 . S
C44 O36 1.311 . S
C44 O38 1.231 . S
O45 Zn27 1.953 . S
O45 C39 1.298 . S
O46 Zn47 1.953 . S
O46 C62 1.225 . S
Zn47 O46 1.953 . S
Zn47 O48 1.949 . S
Zn47 O54 1.919 . S
Zn47 O59 1.924 1_455 S
O48 Zn47 1.949 . S
O48 Zn49 1.923 . S
O48 Zn50 1.950 . S
O48 Zn51 1.945 1_455 S
Zn49 O48 1.923 . S
Zn49 O52 1.933 1_455 S
Zn49 O55 1.941 . S
Zn49 O56 1.965 . S
Zn50 O48 1.950 . S
Zn50 O57 1.938 . S
Zn50 O58 1.906 . S
Zn50 O68 1.953 . S
Zn51 O48 1.945 1_655 S
Zn51 O53 1.932 . S
Zn51 O60 1.977 . S
Zn51 O61 1.910 . S
O52 Zn49 1.933 1_655 S
O52 C63 1.226 . S
O53 Zn51 1.932 . S
O53 C63 1.307 . S
O54 Zn47 1.919 . S
O54 C65 1.253 . S
O55 Zn49 1.941 . S
O55 C65 1.283 . S
O56 Zn49 1.965 . S
O56 C64 1.303 . S
O57 Zn50 1.938 . S
O57 C64 1.247 . S
O58 Zn50 1.906 . S
O58 C66 1.304 . S
O59 Zn47 1.924 1_655 S
O59 C67 1.311 . S
O60 Zn51 1.977 . S
O60 C66 1.272 1_655 S
O61 Zn51 1.910 . S
O61 C67 1.231 . S
C62 O46 1.225 . S
C62 O68 1.298 . S
C63 O52 1.226 . S
C63 O53 1.307 . S
C64 O56 1.303 . S
C64 O57 1.247 . S
C65 O54 1.253 . S
C65 O55 1.283 . S
C66 O58 1.304 . S
C66 O60 1.272 1_455 S
C67 O59 1.311 . S
C67 O61 1.231 . S
O68 Zn50 1.953 . S
O68 C62 1.298 . S
O69 Zn70 1.953 . S
O69 C85 1.225 . S
Zn70 O69 1.953 . S
Zn70 O71 1.949 . S
Zn70 O77 1.919 . S
Zn70 O82 1.924 . S
O71 Zn70 1.949 . S
O71 Zn72 1.923 . S
O71 Zn73 1.950 . S
O71 Zn74 1.945 . S
Zn72 O71 1.923 . S
Zn72 O75 1.933 . S
Zn72 O78 1.941 . S
Zn72 O79 1.965 . S
Zn73 O71 1.950 . S
Zn73 O80 1.938 . S
Zn73 O81 1.906 . S
Zn73 O91 1.953 . S
Zn74 O71 1.945 . S
Zn74 O76 1.932 . S
Zn74 O83 1.977 . S
Zn74 O84 1.910 . S
O75 Zn72 1.933 . S
O75 C86 1.226 . S
O76 Zn74 1.932 . S
O76 C86 1.307 . S
O77 Zn70 1.919 . S
O77 C88 1.253 . S
O78 Zn72 1.941 . S
O78 C88 1.283 . S
O79 Zn72 1.965 . S
O79 C87 1.303 . S
O80 Zn73 1.938 . S
O80 C87 1.247 . S
O81 Zn73 1.906 . S
O81 C89 1.304 . S
O82 Zn70 1.924 . S
O82 C90 1.311 . S
O83 Zn74 1.977 . S
O83 C89 1.272 . S
O84 Zn74 1.910 . S
O84 C90 1.231 . S
C85 O69 1.225 . S
C85 O91 1.298 . S
C86 O75 1.226 . S
C86 O76 1.307 . S
C87 O79 1.303 . S
C87 O80 1.247 . S
C88 O77 1.253 . S
C88 O78 1.283 . S
C89 O81 1.304 . S
C89 O83 1.272 . S
C90 O82 1.311 . S
C90 O84 1.231 . S
O91 Zn73 1.953 . S
O91 C85 1.298 . S
H92 C98 0.918 1_655 S
H93 C101 0.930 . S
H94 C102 0.930 . S
H95 C103 0.930 . S
H96 C106 0.930 1_655 S
H97 C107 0.930 . S
C98 H92 0.918 1_455 S
C98 C99 1.363 . S
C98 C100 1.418 1_556 S
C99 C98 1.363 . S
C99 C101 1.419 . S
C100 C98 1.418 1_554 S
C100 C105 1.425 1_554 S
C100 C107 1.409 1_455 S
C101 H93 0.930 . S
C101 C99 1.419 . S
C101 C102 1.362 . S
C102 H94 0.930 . S
C102 C101 1.362 . S
C102 C105 1.409 . S
C103 H95 0.930 . S
C103 C104 1.355 . S
C103 C105 1.415 1_554 S
C104 C103 1.355 . S
C104 C106 1.419 . S
C105 C100 1.425 1_556 S
C105 C102 1.409 . S
C105 C103 1.415 1_556 S
C106 H96 0.930 1_455 S
C106 C104 1.419 . S
C106 C107 1.362 1_455 S
C107 H97 0.930 . S
C107 C100 1.409 1_655 S
C107 C106 1.362 1_655 S
H108 C114 0.930 . S
H109 C117 0.930 . S
H110 C118 0.930 . S
H111 C119 0.930 . S
H112 C122 0.930 . S
H113 C123 0.930 . S
C114 H108 0.930 . S
C114 C115 1.355 . S
C114 C116 1.415 . S
C115 C114 1.355 . S
C115 C117 1.419 . S
C116 C114 1.415 . S
C116 C121 1.425 1_554 S
C116 C123 1.409 . S
C117 H109 0.930 . S
C117 C115 1.419 . S
C117 C118 1.362 1_554 S
C118 H110 0.930 . S
C118 C117 1.362 1_556 S
C118 C121 1.409 . S
C119 H111 0.930 . S
C119 C120 1.355 . S
C119 C121 1.415 . S
C120 C119 1.355 . S
C120 C122 1.419 . S
C121 C116 1.425 1_556 S
C121 C118 1.409 . S
C121 C119 1.415 . S
C122 H112 0.930 . S
C122 C120 1.419 . S
C122 C123 1.362 1_556 S
C123 H113 0.930 . S
C123 C116 1.409 . S
C123 C122 1.362 1_554 S
H124 C130 0.930 . S
H125 C133 0.930 . S
H126 C134 0.934 . S
H127 C135 0.930 . S
H128 C138 0.930 . S
H129 C139 0.930 . S
C130 H124 0.930 . S
C130 C131 1.355 . S
C130 C132 1.427 . S
C131 C130 1.355 . S
C131 C133 1.419 . S
C132 C130 1.427 . S
C132 C137 1.424 1_566 S
C132 C139 1.399 1_565 S
C133 H125 0.930 . S
C133 C131 1.419 . S
C133 C134 1.358 1_556 S
C134 H126 0.934 . S
C134 C133 1.358 1_554 S
C134 C137 1.410 1_565 S
C135 H127 0.930 . S
C135 C136 1.355 . S
C135 C137 1.415 . S
C136 C135 1.355 . S
C136 C138 1.419 . S
C137 C132 1.424 1_544 S
C137 C134 1.410 1_545 S
C137 C135 1.415 . S
C138 H128 0.930 . S
C138 C136 1.419 . S
C138 C139 1.362 1_554 S
C139 H129 0.930 . S
C139 C132 1.399 1_545 S
C139 C138 1.362 1_556 S
H140 C146 0.930 1_655 S
H141 C149 0.930 . S
H142 C150 0.930 . S
H143 C151 0.930 . S
H144 C154 0.930 . S
H145 C155 0.930 . S
C146 H140 0.930 1_455 S
C146 C147 1.355 . S
C146 C148 1.401 1_565 S
C147 C146 1.355 . S
C147 C149 1.419 . S
C148 C146 1.401 1_545 S
C148 C153 1.426 1_554 S
C148 C155 1.422 1_455 S
C149 H141 0.930 . S
C149 C147 1.419 . S
C149 C150 1.362 1_554 S
C150 H142 0.930 . S
C150 C149 1.362 1_556 S
C150 C153 1.409 1_565 S
C151 H143 0.930 . S
C151 C152 1.355 . S
C151 C153 1.415 . S
C152 C151 1.355 . S
C152 C154 1.419 1_455 S
C153 C148 1.426 1_556 S
C153 C150 1.409 1_545 S
C153 C151 1.415 . S
C154 H144 0.930 . S
C154 C152 1.419 1_655 S
C154 C155 1.362 1_556 S
C155 H145 0.930 . S
C155 C148 1.422 1_655 S
C155 C154 1.362 1_554 S
H156 C162 0.930 . S
H157 C165 0.930 . S
H158 C166 0.930 . S
H159 C167 0.930 . S
H160 C170 0.930 . S
H161 C171 0.930 . S
C162 H156 0.930 . S
C162 C163 1.355 . S
C162 C164 1.415 . S
C163 C162 1.355 . S
C163 C165 1.419 . S
C164 C162 1.415 . S
C164 C169 1.425 . S
C164 C171 1.409 . S
C165 H157 0.930 . S
C165 C163 1.419 . S
C165 C166 1.362 . S
C166 H158 0.930 . S
C166 C165 1.362 . S
C166 C169 1.409 . S
C167 H159 0.930 . S
C167 C168 1.355 . S
C167 C169 1.415 . S
C168 C167 1.355 . S
C168 C170 1.419 . S
C169 C164 1.425 . S
C169 C166 1.409 . S
C169 C167 1.415 . S
C170 H160 0.930 . S
C170 C168 1.419 . S
C170 C171 1.362 . S
C171 H161 0.930 . S
C171 C164 1.409 . S
C171 C170 1.362 . S
H172 C178 0.930 . S
H173 C181 0.930 . S
H174 C182 0.930 . S
H175 C183 0.930 . S
H176 C186 0.930 . S
H177 C187 0.930 . S
C178 H172 0.930 . S
C178 C179 1.355 . S
C178 C180 1.415 . S
C179 C178 1.355 . S
C179 C181 1.419 . S
C180 C178 1.415 . S
C180 C185 1.425 . S
C180 C187 1.409 . S
C181 H173 0.930 . S
C181 C179 1.419 . S
C181 C182 1.362 . S
C182 H174 0.930 . S
C182 C181 1.362 . S
C182 C185 1.409 . S
C183 H175 0.930 . S
C183 C184 1.355 . S
C183 C185 1.415 . S
C184 C183 1.355 . S
C184 C186 1.419 . S
C185 C180 1.425 . S
C185 C182 1.409 . S
C185 C183 1.415 . S
C186 H176 0.930 . S
C186 C184 1.419 . S
C186 C187 1.362 . S
C187 H177 0.930 . S
C187 C180 1.409 . S
C187 C186 1.362 . S
H188 C194 0.930 . S
H189 C197 0.930 . S
H190 C198 0.930 . S
H191 C199 0.930 . S
H192 C202 0.930 . S
H193 C203 0.930 . S
C194 H188 0.930 . S
C194 C195 1.355 . S
C194 C196 1.415 . S
C195 C194 1.355 . S
C195 C197 1.419 . S
C196 C194 1.415 . S
C196 C201 1.425 . S
C196 C203 1.409 . S
C197 H189 0.930 . S
C197 C195 1.419 . S
C197 C198 1.362 . S
C198 H190 0.930 . S
C198 C197 1.362 . S
C198 C201 1.409 . S
C199 H191 0.930 . S
C199 C200 1.355 . S
C199 C201 1.415 . S
C200 C199 1.355 . S
C200 C202 1.419 . S
C201 C196 1.425 . S
C201 C198 1.409 . S
C201 C199 1.415 . S
C202 H192 0.930 . S
C202 C200 1.419 . S
C202 C203 1.362 . S
C203 H193 0.930 . S
C203 C196 1.409 . S
C203 C202 1.362 . S
H204 C210 0.930 . S
H205 C213 0.930 . S
H206 C214 0.930 . S
H207 C215 0.930 . S
H208 C218 0.930 . S
H209 C219 0.930 . S
C210 H204 0.930 . S
C210 C211 1.355 . S
C210 C212 1.415 . S
C211 C210 1.355 . S
C211 C213 1.419 . S
C212 C210 1.415 . S
C212 C217 1.425 . S
C212 C219 1.409 . S
C213 H205 0.930 . S
C213 C211 1.419 . S
C213 C214 1.362 . S
C214 H206 0.930 . S
C214 C213 1.362 . S
C214 C217 1.409 . S
C215 H207 0.930 . S
C215 C216 1.355 . S
C215 C217 1.415 . S
C216 C215 1.355 . S
C216 C218 1.419 . S
C217 C212 1.425 . S
C217 C214 1.409 . S
C217 C215 1.415 . S
C218 H208 0.930 . S
C218 C216 1.419 . S
C218 C219 1.362 . S
C219 H209 0.930 . S
C219 C212 1.409 . S
C219 C218 1.362 . S
H220 C226 0.930 . S
H221 C229 0.930 . S
H222 C230 0.930 . S
H223 C231 0.930 . S
H224 C234 0.930 . S
H225 C235 0.930 . S
C226 H220 0.930 . S
C226 C227 1.355 1_556 S
C226 C228 1.415 . S
C227 C226 1.355 1_554 S
C227 C229 1.419 . S
C228 C226 1.415 . S
C228 C233 1.425 1_556 S
C228 C235 1.409 . S
C229 H221 0.930 . S
C229 C227 1.419 . S
C229 C230 1.362 . S
C230 H222 0.930 . S
C230 C229 1.362 . S
C230 C233 1.409 . S
C231 H223 0.930 . S
C231 C232 1.355 1_554 S
C231 C233 1.415 . S
C232 C231 1.355 1_556 S
C232 C234 1.419 . S
C233 C228 1.425 1_554 S
C233 C230 1.409 . S
C233 C231 1.415 . S
C234 H224 0.930 . S
C234 C232 1.419 . S
C234 C235 1.362 . S
C235 H225 0.930 . S
C235 C228 1.409 . S
C235 C234 1.362 . S
H236 C242 0.930 . S
H237 C245 0.930 . S
H238 C246 0.930 . S
H239 C247 0.930 . S
H240 C250 0.930 . S
H241 C251 0.930 . S
C242 H236 0.930 . S
C242 C243 1.355 . S
C242 C244 1.415 . S
C243 C242 1.355 . S
C243 C245 1.419 1_556 S
C244 C242 1.415 . S
C244 C249 1.425 1_556 S
C244 C251 1.409 . S
C245 H237 0.930 . S
C245 C243 1.419 1_554 S
C245 C246 1.362 . S
C246 H238 0.930 . S
C246 C245 1.362 . S
C246 C249 1.409 . S
C247 H239 0.930 . S
C247 C248 1.355 . S
C247 C249 1.415 . S
C248 C247 1.355 . S
C248 C250 1.419 1_554 S
C249 C244 1.425 1_554 S
C249 C246 1.409 . S
C249 C247 1.415 . S
C250 H240 0.930 . S
C250 C248 1.419 1_556 S
C250 C251 1.362 . S
C251 H241 0.930 . S
C251 C244 1.409 . S
C251 C250 1.362 . S
H252 C258 0.930 . S
H253 C261 0.930 . S
H254 C262 0.930 . S
H255 C263 0.930 . S
H256 C266 0.930 . S
H257 C267 0.930 . S
C258 H252 0.930 . S
C258 C259 1.348 1_554 S
C258 C260 1.415 . S
C259 C258 1.348 1_556 S
C259 C261 1.429 . S
C260 C258 1.415 . S
C260 C265 1.425 1_554 S
C260 C267 1.409 . S
C261 H253 0.930 . S
C261 C259 1.429 . S
C261 C262 1.362 . S
C262 H254 0.930 . S
C262 C261 1.362 . S
C262 C265 1.409 . S
C263 H255 0.930 . S
C263 C264 1.348 1_556 S
C263 C265 1.415 . S
C264 C263 1.348 1_554 S
C264 C266 1.429 . S
C265 C260 1.425 1_556 S
C265 C262 1.409 . S
C265 C263 1.415 . S
C266 H256 0.930 . S
C266 C264 1.429 . S
C266 C267 1.362 . S
C267 H257 0.930 . S
C267 C260 1.409 . S
C267 C266 1.362 . S
H268 C274 0.930 . S
H269 C277 0.930 . S
H270 C278 0.930 . S
H271 C279 0.930 . S
H272 C282 0.930 . S
H273 C283 0.930 . S
C274 H268 0.930 . S
C274 C275 1.355 . S
C274 C276 1.415 . S
C275 C274 1.355 . S
C275 C277 1.419 1_554 S
C276 C274 1.415 . S
C276 C281 1.425 1_554 S
C276 C283 1.409 . S
C277 H269 0.930 . S
C277 C275 1.419 1_556 S
C277 C278 1.362 . S
C278 H270 0.930 . S
C278 C277 1.362 . S
C278 C281 1.409 . S
C279 H271 0.930 . S
C279 C280 1.355 . S
C279 C281 1.415 . S
C280 C279 1.355 . S
C280 C282 1.419 1_556 S
C281 C276 1.425 1_556 S
C281 C278 1.409 . S
C281 C279 1.415 . S
C282 H272 0.930 . S
C282 C280 1.419 1_554 S
C282 C283 1.362 . S
C283 H273 0.930 . S
C283 C276 1.409 . S
C283 C282 1.362 . S
C99 C66 2.155 . S
C104 C19 2.083 . S
C115 C43 2.128 . S
C120 C88 2.042 . S
C131 C89 2.143 . S
C136 C42 2.077 . S
C147 C20 2.141 . S
C152 C65 2.074 . S
C163 C90 1.487 . S
C168 C21 1.486 . S
C179 C62 1.998 . S
C184 C39 2.000 . S
C195 C67 1.485 . S
C200 C44 1.494 . S
C211 C16 2.003 . S
C216 C85 2.000 . S
C227 C86 0.866 1_554 S
C232 C17 0.869 1_556 S
C243 C64 0.382 . S
C248 C41 0.186 . S
C259 C40 0.819 1_556 S
C264 C63 0.829 1_554 S
C275 C18 0.360 . S
C280 C87 0.237 . S
