# Generated by pormake.
# Topology tsi, (8)-cn, num edge types: 1
# Building blocks:
#     Node 0, Type 0, BuildingBlock: AJUNOK_clean_sbu_0, # of connection points: 8
#     Node 1, Type 0, BuildingBlock: AJUNOK_clean_sbu_0, # of connection points: 8
#     Node 2, Type 0, BuildingBlock: AJUNOK_clean_sbu_0, # of connection points: 8
#     Node 3, Type 0, BuildingBlock: AJUNOK_clean_sbu_0, # of connection points: 8
#     Edge 4, Type (0, 0), BuildingBlock: TEMPAE_clean_linker_10, # of connection points: 2
#     Edge 5, Type (0, 0), BuildingBlock: TEMPAE_clean_linker_10, # of connection points: 2
#     Edge 6, Type (0, 0), BuildingBlock: TEMPAE_clean_linker_10, # of connection points: 2
#     Edge 7, Type (0, 0), BuildingBlock: TEMPAE_clean_linker_10, # of connection points: 2
#     Edge 8, Type (0, 0), BuildingBlock: TEMPAE_clean_linker_10, # of connection points: 2
#     Edge 9, Type (0, 0), BuildingBlock: TEMPAE_clean_linker_10, # of connection points: 2
#     Edge 10, Type (0, 0), BuildingBlock: TEMPAE_clean_linker_10, # of connection points: 2
#     Edge 11, Type (0, 0), BuildingBlock: TEMPAE_clean_linker_10, # of connection points: 2
#     Edge 12, Type (0, 0), BuildingBlock: TEMPAE_clean_linker_10, # of connection points: 2
#     Edge 13, Type (0, 0), BuildingBlock: TEMPAE_clean_linker_10, # of connection points: 2
#     Edge 14, Type (0, 0), BuildingBlock: TEMPAE_clean_linker_10, # of connection points: 2
#     Edge 15, Type (0, 0), BuildingBlock: TEMPAE_clean_linker_10, # of connection points: 2
#     Edge 16, Type (0, 0), BuildingBlock: TEMPAE_clean_linker_10, # of connection points: 2
#     Edge 17, Type (0, 0), BuildingBlock: TEMPAE_clean_linker_10, # of connection points: 2
#     Edge 18, Type (0, 0), BuildingBlock: TEMPAE_clean_linker_10, # of connection points: 2
#     Edge 19, Type (0, 0), BuildingBlock: TEMPAE_clean_linker_10, # of connection points: 2
# Relax obj value: 0.179
# Max RMSD: 0.223
# Mean RMSD: 0.223
data_MOF--net-tsi--node1-AJUNOK_clean_sbu_0--edge1-TEMPAE_clean_linker_10
_symmetry_space_group_name_H-M    P1
_symmetry_Int_Tables_number       1
_symmetry_cell_setting            triclinic
loop_
_symmetry_equiv_pos_as_xyz
'x, y, z'
_cell_length_a     15.837207
_cell_length_b     15.863363
_cell_length_c     75.590126
_cell_angle_alpha  90.449172
_cell_angle_beta   90.238664
_cell_angle_gamma 90.035039
loop_
_atom_site_label
_atom_site_type_symbol
_atom_site_fract_x
_atom_site_fract_y
_atom_site_fract_z
_atom_type_partial_charge
Cd0 Cd 0.09889 0.19915 0.41815 0.0
Cd1 Cd 0.0891 0.38522 0.38779 0.0
C2 C 0.18143 0.12716 0.3821 0.0
N3 N 0.10632 0.16098 0.38729 0.0
C4 C 0.05935 0.16295 0.35705 0.0
C5 C 0.14 0.13834 0.35126 0.0
C6 C 0.19995 0.11618 0.36417 0.0
C7 C 0.0439 0.17417 0.37517 0.0
H8 H 0.22986 0.11443 0.3918 0.0
H9 H 0.98291 0.19617 0.37932 0.0
C10 C 0.90383 0.28108 0.40447 0.0
C11 C 0.00579 0.44534 0.42665 0.0
C12 C 0.00426 0.47656 0.44399 0.0
C13 C 0.07902 0.50519 0.45212 0.0
C14 C 0.15395 0.50201 0.44224 0.0
C15 C 0.15268 0.46974 0.42492 0.0
N16 N 0.07975 0.43981 0.41755 0.0
H17 H 0.94701 0.42707 0.42058 0.0
H18 H 0.21042 0.46858 0.41734 0.0
C19 C 0.95429 0.35886 0.35439 0.0
N20 N 0.03816 0.36375 0.35841 0.0
C21 C 0.07326 0.34939 0.32767 0.0
C22 C 0.98734 0.34227 0.32327 0.0
C23 C 0.92758 0.34676 0.33689 0.0
C24 C 0.09739 0.35965 0.34541 0.0
H25 H 0.90745 0.36485 0.36463 0.0
H26 H 0.16361 0.36428 0.34885 0.0
C27 C 0.25945 0.29785 0.40357 0.0
C28 C 0.18463 0.04955 0.42655 0.0
N29 N 0.06664 0.22003 0.44824 0.0
C30 C 0.12772 0.25322 0.45892 0.0
C31 C 0.1234 0.24361 0.4773 0.0
C32 C 0.05568 0.19901 0.48481 0.0
C33 C 0.99042 0.17116 0.47346 0.0
C34 C 0.99764 0.18154 0.45515 0.0
C35 C 0.17765 0.53108 0.37869 0.0
O36 O 0.94459 0.22788 0.41375 0.0
O37 O 0.94346 0.3349 0.39519 0.0
O38 O 0.21886 0.29756 0.38904 0.0
O39 O 0.21799 0.30014 0.4179 0.0
O40 O 0.10511 0.04909 0.42405 0.0
O41 O 0.22183 0.12002 0.42607 0.0
O42 O 0.2135 0.46026 0.38024 0.0
O43 O 0.09752 0.53331 0.38023 0.0
H44 H 0.1831 0.28154 0.45312 0.0
H45 H 0.95091 0.15376 0.44641 0.0
H46 H 0.01006 0.17871 0.34769 0.0
H47 H 0.26192 0.09339 0.36049 0.0
H48 H 0.94473 0.47772 0.45098 0.0
H49 H 0.21286 0.52533 0.44771 0.0
H50 H 0.12126 0.34602 0.31753 0.0
H51 H 0.86067 0.3427 0.33396 0.0
H52 H 0.17576 0.26566 0.48534 0.0
H53 H 0.93606 0.13803 0.47857 0.0
Cd54 Cd 0.02847 0.77727 0.66265 0.0
Cd55 Cd 0.82192 0.76087 0.63258 0.0
C56 C 0.07594 0.95328 0.64011 0.0
N57 N 0.07288 0.86751 0.63858 0.0
C58 C 0.10928 0.87743 0.60785 0.0
C59 C 0.10101 0.96521 0.60856 0.0
C60 C 0.08661 0.00359 0.62508 0.0
C61 C 0.09358 0.82982 0.62293 0.0
H62 H 0.06581 0.98323 0.65282 0.0
H63 H 0.09466 0.76242 0.62174 0.0
C64 C 0.89766 0.58955 0.6558 0.0
C65 C 0.68296 0.75253 0.66377 0.0
C66 C 0.64677 0.7502 0.68065 0.0
C67 C 0.69857 0.75631 0.69578 0.0
C68 C 0.78607 0.76491 0.69333 0.0
C69 C 0.81945 0.76607 0.67626 0.0
N70 N 0.76802 0.76039 0.66185 0.0
H71 H 0.64316 0.74722 0.65215 0.0
H72 H 0.88664 0.77076 0.67458 0.0
C73 C 0.9643 0.66546 0.60915 0.0
N74 N 0.92543 0.74157 0.61084 0.0
C75 C 0.96397 0.77756 0.58121 0.0
C76 C 1.00151 0.69795 0.57883 0.0
C77 C 0.00377 0.64281 0.5933 0.0
C78 C 0.92547 0.79782 0.59734 0.0
H79 H 0.96065 0.62017 0.61971 0.0
H80 H 0.89083 0.85626 0.5987 0.0
C81 C 0.88935 0.94796 0.65194 0.0
C82 C 0.15892 0.67703 0.65 0.0
N83 N 0.06227 0.79687 0.69285 0.0
C84 C 0.12151 0.8542 0.69803 0.0
C85 C 0.14155 0.86466 0.71601 0.0
C86 C 0.09966 0.81623 0.7288 0.0
C87 C 0.03857 0.75777 0.72298 0.0
C88 C 0.02123 0.74873 0.7049 0.0
C89 C 0.67876 0.73354 0.61031 0.0
O90 O 0.95526 0.63441 0.66305 0.0
O91 O 0.84774 0.62164 0.64459 0.0
O92 O 0.85759 0.91114 0.6384 0.0
O93 O 0.93445 0.90743 0.66306 0.0
O94 O 0.08236 0.66168 0.64596 0.0
O95 O 0.17405 0.73807 0.6607 0.0
O96 O 0.69281 0.80623 0.61683 0.0
O97 O 0.7311 0.67665 0.61419 0.0
H98 H 0.15334 0.89171 0.6882 0.0
H99 H 0.9751 0.70289 0.70043 0.0
H100 H 0.12209 0.84526 0.59545 0.0
H101 H 0.08221 0.07154 0.62629 0.0
H102 H 0.57912 0.74221 0.6818 0.0
H103 H 0.82858 0.77119 0.70451 0.0
H104 H 0.95944 0.82163 0.57037 0.0
H105 H 0.03226 0.58099 0.5921 0.0
H106 H 0.18863 0.91088 0.71987 0.0
H107 H 0.00551 0.71825 0.7323 0.0
Cd108 Cd 0.46484 0.5686 0.88263 0.0
Cd109 Cd 0.45378 0.77174 0.91308 0.0
C110 C 0.54576 0.68444 0.85176 0.0
N111 N 0.47163 0.64767 0.8565 0.0
C112 C 0.41701 0.66488 0.82714 0.0
C113 C 0.49355 0.70145 0.82174 0.0
C114 C 0.55755 0.71311 0.83449 0.0
C115 C 0.40752 0.63798 0.84462 0.0
H116 H 0.59721 0.68849 0.86115 0.0
H117 H 0.35054 0.60548 0.84849 0.0
C118 C 0.28168 0.6459 0.90136 0.0
C119 C 0.34994 0.82339 0.94889 0.0
C120 C 0.33685 0.85163 0.96629 0.0
C121 C 0.40625 0.87532 0.97692 0.0
C122 C 0.48759 0.86921 0.96961 0.0
C123 C 0.49777 0.84048 0.9522 0.0
N124 N 0.42948 0.81844 0.94223 0.0
H125 H 0.29661 0.80571 0.94067 0.0
H126 H 0.56035 0.8357 0.94659 0.0
C127 C 0.28533 0.82847 0.88863 0.0
N128 N 0.36977 0.81152 0.88786 0.0
C129 C 0.36846 0.83394 0.85653 0.0
C130 C 0.28079 0.84257 0.85671 0.0
C131 C 0.23879 0.84205 0.87302 0.0
C132 C 0.41152 0.81745 0.87223 0.0
H133 H 0.25323 0.82717 0.90123 0.0
H134 H 0.47828 0.80667 0.8717 0.0
C135 C 0.63881 0.65749 0.90495 0.0
C136 C 0.49563 0.41962 0.86272 0.0
N137 N 0.45578 0.5093 0.91177 0.0
C138 C 0.5279 0.49785 0.92133 0.0
C139 C 0.52465 0.47047 0.93884 0.0
C140 C 0.44667 0.45072 0.94649 0.0
C141 C 0.37375 0.45585 0.93593 0.0
C142 C 0.37986 0.48498 0.9185 0.0
C143 C 0.55445 0.90025 0.89991 0.0
O144 O 0.31732 0.61976 0.88723 0.0
O145 O 0.32522 0.6777 0.91403 0.0
O146 O 0.59371 0.69745 0.91617 0.0
O147 O 0.60481 0.61938 0.89192 0.0
O148 O 0.42091 0.43758 0.86748 0.0
O149 O 0.5534 0.46924 0.86778 0.0
O150 O 0.57096 0.82347 0.89653 0.0
O151 O 0.49268 0.91659 0.9102 0.0
H152 H 0.58855 0.50906 0.91545 0.0
H153 H 0.32366 0.48819 0.9104 0.0
H154 H 0.36594 0.65469 0.8178 0.0
H155 H 0.61824 0.73929 0.83093 0.0
H156 H 0.27297 0.85606 0.97126 0.0
H157 H 0.54307 0.88552 0.97733 0.0
H158 H 0.40298 0.83573 0.8442 0.0
H159 H 0.17088 0.84943 0.87362 0.0
H160 H 0.5828 0.46413 0.94631 0.0
H161 H 0.31251 0.43932 0.94122 0.0
Cd162 Cd 0.6496 0.26835 0.13354 0.0
Cd163 Cd 0.4374 0.2587 0.16107 0.0
C164 C 0.52193 0.34525 0.10449 0.0
N165 N 0.55674 0.27064 0.10947 0.0
C166 C 0.53097 0.2117 0.08068 0.0
C167 C 0.49708 0.28882 0.07499 0.0
C168 C 0.49009 0.3552 0.08733 0.0
C169 C 0.56082 0.20406 0.09804 0.0
H170 H 0.52313 0.39851 0.1135 0.0
H171 H 0.5923 0.14678 0.10206 0.0
C172 C 0.57445 0.0832 0.15227 0.0
C173 C 0.35077 0.15679 0.19351 0.0
C174 C 0.31891 0.14182 0.21047 0.0
C175 C 0.32692 0.204 0.22376 0.0
C176 C 0.36831 0.2797 0.21953 0.0
C177 C 0.3993 0.29192 0.20243 0.0
N178 N 0.38973 0.23102 0.18983 0.0
H179 H 0.34357 0.10959 0.1832 0.0
H180 H 0.43053 0.35037 0.19914 0.0
C181 C 0.39101 0.09473 0.13418 0.0
N182 N 0.39555 0.18061 0.1348 0.0
C183 C 0.35612 0.18679 0.10413 0.0
C184 C 0.36098 0.09883 0.10259 0.0
C185 C 0.37608 0.05241 0.11808 0.0
C186 C 0.37476 0.22614 0.12023 0.0
H187 H 0.40096 0.05845 0.14604 0.0
H188 H 0.37639 0.29363 0.12064 0.0
C189 C 0.5673 0.44213 0.15599 0.0
C190 C 0.79489 0.30075 0.11269 0.0
N191 N 0.70052 0.27305 0.16317 0.0
C192 C 0.78496 0.2853 0.16546 0.0
C193 C 0.81996 0.29141 0.18247 0.0
C194 C 0.76765 0.28511 0.19741 0.0
C195 C 0.68067 0.27221 0.19461 0.0
C196 C 0.64844 0.26653 0.17737 0.0
C197 C 0.31122 0.36834 0.14995 0.0
O198 O 0.61391 0.11916 0.13973 0.0
O199 O 0.52403 0.12444 0.16224 0.0
O200 O 0.51398 0.39801 0.16449 0.0
O201 O 0.61254 0.40882 0.14405 0.0
O202 O 0.78419 0.22827 0.11936 0.0
O203 O 0.73903 0.35522 0.11598 0.0
O204 O 0.38835 0.38266 0.14645 0.0
O205 O 0.2937 0.30352 0.15919 0.0
H206 H 0.82523 0.29129 0.15401 0.0
H207 H 0.58157 0.258 0.1754 0.0
H208 H 0.53725 0.15889 0.07161 0.0
H209 H 0.46575 0.4161 0.08343 0.0
H210 H 0.28689 0.08287 0.21304 0.0
H211 H 0.37724 0.32891 0.22937 0.0
H212 H 0.344 0.2259 0.09273 0.0
H213 H 0.37724 0.98417 0.11775 0.0
H214 H 0.88711 0.30265 0.18389 0.0
H215 H 0.63774 0.2661 0.20564 0.0
C216 C 0.14372 0.51993 0.48259 0.0
C217 C 0.07804 0.53857 0.47069 0.0
C218 C 0.14112 0.54785 0.50032 0.0
C219 C 0.07071 0.59473 0.50641 0.0
C220 C 0.00513 0.61514 0.49439 0.0
C221 C 0.00989 0.58744 0.47672 0.0
C222 C 0.21283 0.52551 0.51262 0.0
C223 C 0.92859 0.66444 0.5003 0.0
C224 C 0.0061 0.58806 0.55479 0.0
C225 C 0.02858 0.66894 0.56088 0.0
C226 C 0.02229 0.56218 0.53732 0.0
C227 C 0.06247 0.61828 0.52554 0.0
C228 C 0.08878 0.6987 0.53179 0.0
C229 C 0.07095 0.7233 0.54933 0.0
C230 C 0.99253 0.47613 0.53125 0.0
C231 C 0.13323 0.76001 0.51983 0.0
H232 H 0.1963 0.4816 0.47817 0.0
H233 H 0.95965 0.60387 0.4676 0.0
H234 H 0.23516 0.58251 0.51986 0.0
H235 H 0.19049 0.47994 0.52263 0.0
H236 H 0.26699 0.49699 0.50546 0.0
H237 H 0.88365 0.67629 0.48928 0.0
H238 H 0.89504 0.62939 0.51081 0.0
H239 H 0.94827 0.72594 0.50606 0.0
H240 H 0.97216 0.54599 0.56348 0.0
H241 H 0.08931 0.78557 0.55396 0.0
H242 H 0.04506 0.4407 0.52502 0.0
H243 H 0.94231 0.48329 0.52108 0.0
H244 H 0.96709 0.43805 0.54229 0.0
H245 H 0.18285 0.72754 0.51201 0.0
H246 H 0.16264 0.81281 0.52739 0.0
H247 H 0.08708 0.78691 0.51035 0.0
C248 C 0.55755 0.79017 0.79772 0.0
C249 C 0.51017 0.71942 0.8027 0.0
C250 C 0.58258 0.80177 0.78006 0.0
C251 C 0.55971 0.74126 0.76701 0.0
C252 C 0.50842 0.67198 0.77179 0.0
C253 C 0.48445 0.66184 0.78953 0.0
C254 C 0.63659 0.87693 0.77554 0.0
C255 C 0.48202 0.60627 0.7583 0.0
C256 C 0.58511 0.79186 0.71799 0.0
C257 C 0.66232 0.75264 0.714 0.0
C258 C 0.55093 0.78901 0.73514 0.0
C259 C 0.59508 0.74635 0.74872 0.0
C260 C 0.67304 0.70679 0.7448 0.0
C261 C 0.70539 0.7101 0.72754 0.0
C262 C 0.46777 0.83203 0.73872 0.0
C263 C 0.72224 0.66034 0.75884 0.0
H264 H 0.57661 0.83574 0.80773 0.0
H265 H 0.44861 0.60649 0.79319 0.0
H266 H 0.70071 0.85529 0.77178 0.0
H267 H 0.60967 0.91058 0.76401 0.0
H268 H 0.64258 0.92204 0.7868 0.0
H269 H 0.43636 0.56026 0.76379 0.0
H270 H 0.4529 0.63675 0.74662 0.0
H271 H 0.53846 0.57136 0.75362 0.0
H272 H 0.55177 0.82592 0.70774 0.0
H273 H 0.76424 0.67821 0.72461 0.0
H274 H 0.4769 0.88253 0.74878 0.0
H275 H 0.42202 0.7862 0.74418 0.0
H276 H 0.43996 0.86034 0.72663 0.0
H277 H 0.68363 0.60789 0.7641 0.0
H278 H 0.73682 0.70343 0.77007 0.0
H279 H 0.78247 0.63404 0.75372 0.0
C280 C 0.40194 0.35119 0.97051 0.0
C281 C 0.44251 0.42575 0.96541 0.0
C282 C 0.40309 0.32487 0.98827 0.0
C283 C 0.44451 0.37512 1.00127 0.0
C284 C 0.48289 0.45194 0.99622 0.0
C285 C 0.48205 0.47584 0.97837 0.0
C286 C 0.3629 0.24177 0.99302 0.0
C287 C 0.52661 0.50815 1.00963 0.0
C288 C 0.40546 0.3472 0.05067 0.0
C289 C 0.47808 0.30321 0.05592 0.0
C290 C 0.39193 0.36841 0.03283 0.0
C291 C 0.4527 0.34552 1.01993 0.0
C292 C 0.52483 0.29898 0.02512 0.0
C293 C 0.53657 0.2784 0.043 0.0
C294 C 0.31412 0.41787 0.02787 0.0
C295 C 0.59136 0.27345 1.01186 0.0
H296 H 0.37178 0.31205 0.9605 0.0
H297 H 0.51263 0.53398 0.97449 0.0
H298 H 0.41291 0.19584 0.99654 0.0
H299 H 0.32159 0.24923 1.00474 0.0
H300 H 0.32503 0.21497 0.98192 0.0
H301 H 0.54865 0.56823 1.00376 0.0
H302 H 0.48325 0.52301 1.02071 0.0
H303 H 0.58194 0.47488 1.01529 0.0
H304 H 0.35981 0.36613 0.06058 0.0
H305 H 0.59339 0.24534 0.04696 0.0
H306 H 0.2798 0.38569 1.01692 0.0
H307 H 0.33284 0.48106 0.02305 0.0
H308 H 0.2704 0.42618 0.03921 0.0
H309 H 0.56178 0.24131 1.00032 0.0
H310 H 0.63948 0.2308 1.01768 0.0
H311 H 0.62385 0.33046 1.00688 0.0
C312 C 0.90819 0.26368 0.29957 0.0
C313 C 0.9596 0.3318 0.30458 0.0
C314 C 0.88013 0.25381 0.28199 0.0
C315 C 0.90296 0.31422 0.26914 0.0
C316 C 0.95536 0.38291 0.27416 0.0
C317 C 0.98302 0.39087 0.29181 0.0
C318 C 0.82612 0.17866 0.27715 0.0
C319 C 0.98189 0.44824 0.26088 0.0
C320 C 0.88121 0.25652 0.22014 0.0
C321 C 0.80314 0.29304 0.21574 0.0
C322 C 0.91499 0.26344 0.23736 0.0
C323 C 0.86937 0.30738 0.25063 0.0
C324 C 0.79088 0.34483 0.24625 0.0
C325 C 0.75888 0.3373 0.22892 0.0
C326 C 0.99852 0.2217 0.24136 0.0
C327 C 0.74057 0.39313 0.25989 0.0
H328 H 0.89061 0.21764 0.30943 0.0
H329 H 0.02258 0.44371 0.29569 0.0
H330 H 0.76411 0.20012 0.272 0.0
H331 H 0.85694 0.14166 0.26647 0.0
H332 H 0.81517 0.13658 0.2886 0.0
H333 H 0.02391 0.49704 0.2668 0.0
H334 H 0.01552 0.41738 0.24973 0.0
H335 H 0.92527 0.47967 0.2553 0.0
H336 H 0.9155 0.22112 0.21018 0.0
H337 H 0.69934 0.36711 0.22564 0.0
H338 H 0.03861 0.26215 0.24999 0.0
H339 H 0.03415 0.20662 0.22911 0.0
H340 H 0.98672 0.16194 0.24845 0.0
H341 H 0.72455 0.35128 0.27108 0.0
H342 H 0.6811 0.41927 0.25435 0.0
H343 H 0.779 0.44586 0.26534 0.0
C344 C 0.30136 0.11222 0.25031 0.0
C345 C 0.2925 0.1904 0.2419 0.0
C346 C 0.27259 0.10004 0.2677 0.0
C347 C 0.23384 0.16754 0.27699 0.0
C348 C 0.22268 0.24581 0.2684 0.0
C349 C 0.25208 0.25631 0.25103 0.0
C350 C 0.28577 0.01557 0.27634 0.0
C351 C 0.18167 0.31942 0.2777 0.0
C352 C 0.1058 0.12232 0.31863 0.0
C353 C 0.1639 0.14233 0.33213 0.0
C354 C 0.12757 0.1299 0.30066 0.0
C355 C 0.20949 0.15785 0.29599 0.0
C356 C 0.26822 0.17821 0.30952 0.0
C357 C 0.24469 0.17067 0.32734 0.0
C358 C 0.06248 0.10944 0.28665 0.0
C359 C 0.35588 0.2092 0.3052 0.0
H360 H 0.33302 0.06104 0.24346 0.0
H361 H 0.2434 0.3165 0.24459 0.0
H362 H 0.32911 0.02278 0.28782 0.0
H363 H 0.22494 0.9912 0.28143 0.0
H364 H 0.31284 0.96818 0.26707 0.0
H365 H 0.16297 0.36984 0.26835 0.0
H366 H 0.1251 0.29825 0.28496 0.0
H367 H 0.22639 0.34657 0.28753 0.0
H368 H 0.04323 0.10047 0.32208 0.0
H369 H 0.28943 0.18902 0.33755 0.0
H370 H 0.0873 0.06105 0.27736 0.0
H371 H 0.049 0.16672 0.27883 0.0
H372 H 1.00236 0.08625 0.29236 0.0
H373 H 0.38841 0.16293 0.29651 0.0
H374 H 0.39511 0.21967 0.31724 0.0
H375 H 0.35176 0.26933 0.29786 0.0
C376 C 0.20412 0.83156 0.75385 0.0
C377 C 0.11998 0.82568 0.74804 0.0
C378 C 0.22433 0.83765 0.77196 0.0
C379 C 0.15874 0.83817 0.78469 0.0
C380 C 0.07362 0.83378 0.7789 0.0
C381 C 0.05532 0.82723 0.7607 0.0
C382 C 0.31656 0.84051 0.77713 0.0
C383 C 1.00179 0.83529 0.79197 0.0
C384 C 0.21843 0.7664 0.83103 0.0
C385 C 0.23503 0.84315 0.83962 0.0
C386 C 0.19165 0.76391 0.8133 0.0
C387 C 0.17925 0.84025 0.80404 0.0
C388 C 0.19245 0.9182 0.81297 0.0
C389 C 0.22111 0.91871 0.83064 0.0
C390 C 0.18187 0.67955 0.80415 0.0
C391 C 0.18123 1.00083 0.80352 0.0
H392 H 0.25472 0.8293 0.74424 0.0
H393 H 0.99009 0.8238 0.75636 0.0
H394 H 0.32782 0.86113 0.79098 0.0
H395 H 0.34405 0.77669 0.77536 0.0
H396 H 0.35124 0.88382 0.76828 0.0
H397 H 0.93903 0.83447 0.78534 0.0
H398 H 0.00619 0.77989 0.8008 0.0
H399 H 0.00627 0.89253 0.80046 0.0
H400 H 0.23052 0.70807 0.83798 0.0
H401 H 0.23577 0.97796 0.83722 0.0
H402 H 0.23067 0.67321 0.79372 0.0
H403 H 0.11927 0.67504 0.79757 0.0
H404 H 0.18873 0.62609 0.81345 0.0
H405 H 0.23032 0.00674 0.79316 0.0
H406 H 0.18639 0.05575 0.81267 0.0
H407 H 0.11879 1.0027 0.79681 0.0
C408 C 0.33558 0.86787 1.00672 0.0
C409 C 0.39431 0.90632 0.99547 0.0
C410 C 0.3252 0.89557 0.02432 0.0
C411 C 0.37472 0.96338 0.03091 0.0
C412 C 0.43361 1.00277 1.0196 0.0
C413 C 0.44248 0.97407 1.00206 0.0
C414 C 0.26165 0.8519 0.03592 0.0
C415 C 0.48692 0.07583 0.026 0.0
C416 C 0.30455 0.0897 0.07137 0.0
C417 C 0.3573 0.0577 0.08473 0.0
C418 C 0.30838 0.05864 0.05392 0.0
C419 C 0.36563 0.99307 0.04965 0.0
C420 C 0.41702 0.95853 0.06316 0.0
C421 C 0.41246 0.99134 0.08048 0.0
C422 C 0.25295 0.09791 0.03993 0.0
C423 C 0.47938 0.88905 0.05919 0.0
H424 H 0.29863 0.81497 1.00186 0.0
H425 H 0.48682 0.00538 0.99342 0.0
H426 H 0.29405 0.82419 0.04755 0.0
H427 H 0.21514 0.89829 0.04103 0.0
H428 H 0.2271 0.80101 0.02876 0.0
H429 H 0.53356 0.09594 1.01595 0.0
H430 H 0.44542 0.13001 0.02923 0.0
H431 H 0.52132 0.0589 0.03828 0.0
H432 H 0.26088 0.14018 0.07449 0.0
H433 H 0.45478 0.96713 0.09053 0.0
H434 H 0.21733 0.04838 0.03262 0.0
H435 H 0.29282 0.13127 0.03018 0.0
H436 H 0.20733 0.14377 0.04561 0.0
H437 H 0.44721 0.83566 0.0524 0.0
H438 H 0.5107 0.86517 0.07134 0.0
H439 H 0.52867 0.9128 0.0501 0.0
C440 C 0.02895 0.09407 0.50903 0.0
C441 C 0.05757 0.1742 0.50392 0.0
C442 C 0.0359 0.06663 0.52661 0.0
C443 C 0.07364 0.11986 0.53953 0.0
C444 C 0.10164 0.20125 0.53461 0.0
C445 C 0.09281 0.22758 0.51693 0.0
C446 C 0.00405 0.97977 0.53129 0.0
C447 C 0.14312 0.25967 0.54789 0.0
C448 C 0.03108 0.0659 0.58779 0.0
C449 C 0.10021 0.01425 0.59186 0.0
C450 C 0.02256 0.10252 0.57097 0.0
C451 C 0.08569 0.08875 0.55803 0.0
C452 C 0.15757 0.03973 0.56239 0.0
C453 C 0.16342 1.00225 0.57915 0.0
C454 C 0.94396 0.1524 0.56677 0.0
C455 C 0.22699 0.0243 0.54913 0.0
H456 H 1.00325 0.05124 0.49916 0.0
H457 H 0.1143 0.28992 0.51329 0.0
H458 H 0.05723 0.93998 0.53588 0.0
H459 H 0.95824 0.98421 0.54232 0.0
H460 H 0.97299 0.94748 0.5199 0.0
H461 H 0.15889 0.32193 0.54213 0.0
H462 H 0.1011 0.26985 0.55941 0.0
H463 H 0.20204 0.2304 0.55293 0.0
H464 H 0.9814 0.07406 0.59747 0.0
H465 H 0.21687 0.96222 0.58225 0.0
H466 H 0.90885 0.12128 0.55578 0.0
H467 H 0.96117 0.21649 0.56226 0.0
H468 H 0.90126 0.15829 0.57832 0.0
H469 H 0.20295 0.98378 0.53819 0.0
H470 H 0.28263 0.99284 0.55516 0.0
H471 H 0.24768 0.08473 0.54325 0.0
C472 C 0.19636 0.89535 0.42996 0.0
C473 C 0.23333 0.9716 0.42518 0.0
C474 C 0.22471 0.81988 0.42244 0.0
C475 C 0.28831 0.82278 0.40928 0.0
C476 C 0.33453 0.89767 0.40665 0.0
C477 C 0.30715 0.97171 0.41497 0.0
C478 C 0.1778 0.73947 0.42658 0.0
C479 C 0.40425 0.90318 0.39318 0.0
C480 C 0.30254 0.60711 0.39 0.0
C481 C 0.2279 0.60829 0.37991 0.0
C482 C 0.33224 0.68086 0.39813 0.0
C483 C 0.28724 0.75646 0.39551 0.0
C484 C 0.22266 0.76022 0.38247 0.0
C485 C 0.19223 0.68512 0.37507 0.0
C486 C 0.4031 0.67457 0.41145 0.0
C487 C 0.17696 0.84137 0.37838 0.0
H488 H 0.14059 0.89552 0.43824 0.0
H489 H 0.33693 0.03095 0.41154 0.0
H490 H 0.13198 0.72541 0.41579 0.0
H491 H 0.22205 0.68552 0.42751 0.0
H492 H 0.14232 0.7447 0.43919 0.0
H493 H 0.45255 0.95011 0.3974 0.0
H494 H 0.43538 0.84145 0.39092 0.0
H495 H 0.37727 0.92467 0.38041 0.0
H496 H 0.33139 0.54746 0.39349 0.0
H497 H 0.13588 0.68586 0.36687 0.0
H498 H 0.3767 0.65555 0.4244 0.0
H499 H 0.43643 0.73552 0.4133 0.0
H500 H 0.44941 0.62566 0.40735 0.0
H501 H 0.13226 0.85631 0.38923 0.0
H502 H 0.14041 0.83656 0.36583 0.0
H503 H 0.22215 0.89453 0.37734 0.0
C504 C 0.30954 0.64256 0.64615 0.0
C505 C 0.22728 0.63985 0.63957 0.0
C506 C 0.37805 0.63602 0.63468 0.0
C507 C 0.36289 0.62948 0.61617 0.0
C508 C 0.28008 0.61559 0.60978 0.0
C509 C 0.21288 0.61935 0.62172 0.0
C510 C 0.46595 0.64638 0.6423 0.0
C511 C 0.26032 0.60619 0.59031 0.0
C512 C 0.53165 0.76959 0.60183 0.0
C513 C 0.59728 0.71066 0.6022 0.0
C514 C 0.44775 0.74214 0.60254 0.0
C515 C 0.43149 0.65472 0.60414 0.0
C516 C 0.4957 0.59612 0.6002 0.0
C517 C 0.57896 0.62507 0.59916 0.0
C518 C 0.37869 0.80664 0.60499 0.0
C519 C 0.47926 0.50255 0.60041 0.0
H520 H 0.32025 0.65642 0.66006 0.0
H521 H 0.14888 0.61539 0.61668 0.0
H522 H 0.50937 0.59856 0.63665 0.0
H523 H 0.49079 0.7097 0.63898 0.0
H524 H 0.46682 0.64025 0.65694 0.0
H525 H 0.21023 0.55801 0.58824 0.0
H526 H 0.23526 0.66683 0.58528 0.0
H527 H 0.31644 0.58839 0.5824 0.0
H528 H 0.54556 0.83622 0.60329 0.0
H529 H 0.62973 0.57934 0.59846 0.0
H530 H 0.36518 0.81427 0.61932 0.0
H531 H 0.31969 0.7858 0.5983 0.0
H532 H 0.39743 0.86903 0.5997 0.0
H533 H 0.48586 0.47933 0.61416 0.0
H534 H 0.52558 0.46823 0.59204 0.0
H535 H 0.4144 0.48769 0.59573 0.0
C536 C 0.60267 0.32054 0.85084 0.0
C537 C 0.51765 0.33831 0.85453 0.0
C538 C 0.6315 0.23724 0.85083 0.0
C539 C 0.57365 0.17257 0.85476 0.0
C540 C 0.4858 0.18911 0.85396 0.0
C541 C 0.45841 0.27294 0.85406 0.0
C542 C 0.72503 0.2205 0.84992 0.0
C543 C 0.42156 0.11993 0.85644 0.0
C544 C 0.60709 0.95271 0.87129 0.0
C545 C 0.59191 0.9671 0.88934 0.0
C546 C 0.61084 0.02035 0.85954 0.0
C547 C 0.60148 0.10311 0.86628 0.0
C548 C 0.6005 0.11751 0.88487 0.0
C549 C 0.59433 0.0488 0.89618 0.0
C550 C 0.61541 1.00158 0.83997 0.0
C551 C 0.59536 0.2051 0.89284 0.0
H552 H 0.64834 0.37138 0.85017 0.0
H553 H 0.39201 0.28663 0.85601 0.0
H554 H 0.75263 0.22563 0.86341 0.0
H555 H 0.73807 0.15619 0.84474 0.0
H556 H 0.75694 0.26755 0.84143 0.0
H557 H 0.35755 0.13996 0.85212 0.0
H558 H 0.43975 0.06259 0.84889 0.0
H559 H 0.41855 0.10312 0.87066 0.0
H560 H 0.60691 0.88889 0.86604 0.0
H561 H 0.5845 0.05914 0.91022 0.0
H562 H 0.63314 0.05765 0.83213 0.0
H563 H 0.553 0.97842 0.83527 0.0
H564 H 0.6618 0.95047 0.83739 0.0
H565 H 0.64431 0.2466 0.88711 0.0
H566 H 0.60407 0.20473 0.90743 0.0
H567 H 0.53264 0.233 0.88993 0.0
C568 C 0.16291 0.41199 0.14708 0.0
C569 C 0.24431 0.41136 0.14018 0.0
C570 C 0.09326 0.41922 0.13584 0.0
C571 C 0.10656 0.42275 0.11727 0.0
C572 C 0.18876 0.43564 0.11063 0.0
C573 C 0.25729 0.43153 0.12235 0.0
C574 C 0.00612 0.41076 0.14375 0.0
C575 C 0.20626 0.44304 0.0911 0.0
C576 C 0.94375 0.27119 0.10454 0.0
C577 C 0.87521 0.32668 0.1047 0.0
C578 C 0.02617 0.30301 0.10471 0.0
C579 C 0.0381 0.39151 0.10563 0.0
C580 C 0.97047 0.44576 0.10157 0.0
C581 C 0.88871 0.41241 0.1011 0.0
C582 C 0.09873 0.24259 0.10728 0.0
C583 C 0.98212 0.53998 0.10094 0.0
H584 H 0.15353 0.39877 0.16099 0.0
H585 H 0.32085 0.43361 0.11709 0.0
H586 H 0.96227 0.45755 0.13796 0.0
H587 H 0.98074 0.34686 0.14088 0.0
H588 H 0.00688 0.41993 0.15834 0.0
H589 H 0.25621 0.49088 0.08882 0.0
H590 H 0.23055 0.38187 0.08603 0.0
H591 H 0.1492 0.46027 0.08339 0.0
H592 H 0.93345 0.20429 0.10642 0.0
H593 H 0.83557 0.45528 0.10024 0.0
H594 H 0.116 0.2405 0.12152 0.0
H595 H 0.15501 0.26371 0.09984 0.0
H596 H 0.08193 0.17771 0.10288 0.0
H597 H 0.97385 0.56682 0.11443 0.0
H598 H 0.93424 0.5693 0.09215 0.0
H599 H 0.04622 0.55691 0.09627 0.0
C600 C 0.88315 0.09256 0.63843 0.0
C601 C 0.88462 0.04194 0.65359 0.0
C602 C 0.88616 0.18135 0.63969 0.0
C603 C 0.88809 0.22144 0.65655 0.0
C604 C 0.88755 0.17053 0.67191 0.0
C605 C 0.88736 0.08175 0.67025 0.0
C606 C 0.88959 0.23222 0.62292 0.0
C607 C 0.88701 0.20989 0.69015 0.0
C608 C 0.9697 0.44924 0.65979 0.0
C609 C 0.89489 0.49625 0.6584 0.0
C610 C 0.9685 0.36012 0.65935 0.0
C611 C 0.8904 0.31637 0.65804 0.0
C612 C 0.81451 0.36379 0.65746 0.0
C613 C 0.81777 0.4527 0.65733 0.0
C614 C 0.05116 0.31285 0.6595 0.0
C615 C 0.72967 0.32057 0.65654 0.0
H616 H 0.88272 0.06256 0.6255 0.0
H617 H 0.88868 0.04328 0.68204 0.0
H618 H 0.83765 0.27905 0.62267 0.0
H619 H 0.94992 0.26777 0.62247 0.0
H620 H 0.8848 0.19202 0.61087 0.0
H621 H 0.88269 0.162 0.70075 0.0
H622 H 0.94535 0.2474 0.69226 0.0
H623 H 0.83279 0.25381 0.6914 0.0
H624 H 0.02968 0.48218 0.66028 0.0
H625 H 0.75966 0.48841 0.65619 0.0
H626 H 0.0577 0.27607 0.64702 0.0
H627 H 0.0524 0.26723 0.67053 0.0
H628 H 0.10637 0.35568 0.66086 0.0
H629 H 0.72331 0.28614 0.64377 0.0
H630 H 0.67648 0.36587 0.65771 0.0
H631 H 0.72439 0.27343 0.66725 0.0
C632 C 0.77644 0.5796 0.90275 0.0
C633 C 0.73267 0.6542 0.90679 0.0
C634 C 0.86546 0.57662 0.90286 0.0
C635 C 0.91274 0.65092 0.90638 0.0
C636 C 0.8687 0.72653 0.91052 0.0
C637 C 0.77943 0.72688 0.91099 0.0
C638 C 0.90891 0.4939 0.89897 0.0
C639 C 0.91581 0.80794 0.91376 0.0
C640 C 0.14735 0.63601 0.91908 0.0
C641 C 0.18748 0.64474 0.90266 0.0
C642 C 0.05841 0.63664 0.92046 0.0
C643 C 0.00783 0.6498 0.90518 0.0
C644 C 0.04838 0.66033 0.88862 0.0
C645 C 0.13719 0.6558 0.88752 0.0
C646 C 0.01853 0.62214 0.93828 0.0
C647 C 0.99803 0.67757 0.87204 0.0
H648 H 0.74079 0.52318 0.89948 0.0
H649 H 0.7461 0.78508 0.91383 0.0
H650 H 0.94353 0.49803 0.88629 0.0
H651 H 0.956 0.48003 0.90946 0.0
H652 H 0.86362 0.44052 0.89805 0.0
H653 H 0.87269 0.86128 0.91682 0.0
H654 H 0.96087 0.80068 0.92491 0.0
H655 H 0.95332 0.82404 0.90188 0.0
H656 H 0.18562 0.62714 0.93084 0.0
H657 H 0.16754 0.66357 0.8748 0.0
H658 H 0.97475 0.56756 0.93747 0.0
H659 H 0.98064 0.67789 0.94223 0.0
H660 H 0.06623 0.6099 0.94876 0.0
H661 H 0.95742 0.62257 0.8688 0.0
H662 H 0.0391 0.69063 0.86049 0.0
H663 H 0.95576 0.73244 0.8742 0.0
C664 C 0.64688 0.57946 0.15633 0.0
C665 C 0.57049 0.53569 0.15838 0.0
C666 C 0.64976 0.6684 0.15651 0.0
C667 C 0.57397 0.71551 0.15809 0.0
C668 C 0.49666 0.67148 0.16031 0.0
C669 C 0.49606 0.58243 0.16073 0.0
C670 C 0.734 0.71194 0.15469 0.0
C671 C 0.41391 0.71832 0.16145 0.0
C672 C 0.57921 0.9508 0.1705 0.0
C673 C 0.57801 0.98951 0.15387 0.0
C674 C 0.57975 0.86209 0.17208 0.0
C675 C 0.5753 0.81035 0.15668 0.0
C676 C 0.57233 0.84953 0.13986 0.0
C677 C 0.57534 0.93822 0.13866 0.0
C678 C 0.58571 0.82371 0.19024 0.0
C679 C 0.56434 0.79783 0.12309 0.0
H680 H 0.70466 0.5439 0.15447 0.0
H681 H 0.43655 0.54925 0.162 0.0
H682 H 0.73658 0.74547 0.14189 0.0
H683 H 0.74211 0.75985 0.16534 0.0
H684 H 0.78765 0.66694 0.15528 0.0
H685 H 0.3594 0.67525 0.16334 0.0
H686 H 0.4156 0.76433 0.17256 0.0
H687 H 0.40359 0.75459 0.14913 0.0
H688 H 0.581 0.99005 0.1823 0.0
H689 H 0.57265 0.96768 0.12578 0.0
H690 H 0.64054 0.78027 0.19086 0.0
H691 H 0.52837 0.78587 0.19294 0.0
H692 H 0.59267 0.87221 0.20083 0.0
H693 H 0.62075 0.75717 0.12146 0.0
H694 H 0.5577 0.83778 0.11115 0.0
H695 H 0.50857 0.75565 0.12389 0.0
C696 C 0.76449 0.35173 0.39806 0.0
C697 C 0.80913 0.28161 0.40446 0.0
C698 C 0.67545 0.35409 0.39803 0.0
C699 C 0.62885 0.28405 0.40426 0.0
C700 C 0.67344 0.21271 0.41059 0.0
C701 C 0.76269 0.21266 0.41078 0.0
C702 C 0.63117 0.43208 0.39142 0.0
C703 C 0.62674 0.13605 0.41709 0.0
C704 C 0.39975 0.31816 0.41891 0.0
C705 C 0.35376 0.2935 0.4038 0.0
C706 C 0.48882 0.3155 0.41923 0.0
C707 C 0.53368 0.28587 0.4042 0.0
C708 C 0.48739 0.25966 0.38901 0.0
C709 C 0.3984 0.26454 0.38893 0.0
C710 C 0.53502 0.34554 0.4356 0.0
C711 C 0.5319 0.22627 0.37279 0.0
H712 H 0.79928 0.40568 0.39324 0.0
H713 H 0.79613 0.15798 0.41569 0.0
H714 H 0.59012 0.41575 0.37997 0.0
H715 H 0.5898 0.4582 0.40193 0.0
H716 H 0.67622 0.48186 0.38731 0.0
H717 H 0.67025 0.08489 0.42122 0.0
H718 H 0.58633 0.15351 0.42849 0.0
H719 H 0.58443 0.1114 0.40651 0.0
H720 H 0.36605 0.341 0.43044 0.0
H721 H 0.36362 0.24464 0.37724 0.0
H722 H 0.57752 0.39863 0.43222 0.0
H723 H 0.57514 0.2942 0.44089 0.0
H724 H 0.49122 0.36682 0.44617 0.0
H725 H 0.57392 0.27556 0.36734 0.0
H726 H 0.48697 0.2059 0.36226 0.0
H727 H 0.57231 0.17186 0.37639 0.0
loop_
_geom_bond_atom_site_label_1
_geom_bond_atom_site_label_2
_geom_bond_distance
_geom_bond_site_symmetry_2
_ccdc_geom_bond_type
Cd0 N3 2.334 . S
Cd0 N29 2.304 . S
Cd0 O36 2.268 1_455 S
Cd0 O39 2.273 . S
Cd0 O40 2.417 1_445 S
Cd0 O41 2.330 1_545 S
Cd1 N16 2.304 . S
Cd1 N20 2.334 . S
Cd1 O37 2.273 . S
Cd1 O38 2.268 1_655 S
Cd1 O42 2.417 1_655 S
Cd1 O43 2.330 . S
C2 N3 1.332 . S
C2 C6 1.381 . S
C2 H8 0.931 . S
N3 Cd0 2.334 . S
N3 C2 1.332 . S
N3 C7 1.328 1_455 S
C4 C5 1.396 1_655 S
C4 C7 1.378 . S
C4 H46 0.931 . S
C5 C4 1.396 1_455 S
C5 C6 1.382 . S
C6 C2 1.381 . S
C6 C5 1.382 . S
C6 H47 0.930 . S
C7 N3 1.328 1_655 S
C7 C4 1.378 . S
C7 H9 0.930 . S
H8 C2 0.931 . S
H9 C7 0.930 . S
C10 O36 1.238 . S
C10 O37 1.253 . S
C11 C12 1.379 . S
C11 N16 1.337 . S
C11 H17 0.929 . S
C12 C11 1.379 . S
C12 C13 1.380 . S
C12 H48 0.929 . S
C13 C12 1.380 . S
C13 C14 1.399 1_655 S
C14 C13 1.399 1_455 S
C14 C15 1.376 . S
C14 H49 0.931 . S
C15 C14 1.376 . S
C15 N16 1.338 1_455 S
C15 H18 0.930 . S
N16 Cd1 2.304 . S
N16 C11 1.337 . S
N16 C15 1.338 1_655 S
H17 C11 0.929 . S
H18 C15 0.930 . S
C19 N20 1.332 . S
C19 C23 1.381 . S
C19 H25 0.931 . S
N20 Cd1 2.334 . S
N20 C19 1.332 . S
N20 C24 1.328 1_655 S
C21 C22 1.396 1_455 S
C21 C24 1.378 . S
C21 H50 0.931 . S
C22 C21 1.396 1_655 S
C22 C23 1.382 . S
C23 C19 1.381 . S
C23 C22 1.382 . S
C23 H51 0.930 . S
C24 N20 1.328 1_455 S
C24 C21 1.378 . S
C24 H26 0.930 . S
H25 C19 0.931 . S
H26 C24 0.930 . S
C27 O38 1.238 . S
C27 O39 1.253 . S
C28 O40 1.239 1_455 S
C28 O41 1.230 . S
N29 Cd0 2.304 . S
N29 C30 1.337 . S
N29 C34 1.338 1_455 S
C30 N29 1.337 . S
C30 C31 1.379 . S
C30 H44 0.929 . S
C31 C30 1.379 . S
C31 C32 1.380 . S
C31 H52 0.929 . S
C32 C31 1.380 . S
C32 C33 1.399 1_455 S
C33 C32 1.399 1_655 S
C33 C34 1.376 . S
C33 H53 0.931 . S
C34 N29 1.338 1_655 S
C34 C33 1.376 . S
C34 H45 0.930 . S
C35 O42 1.239 1_655 S
C35 O43 1.230 . S
O36 Cd0 2.268 1_655 S
O36 C10 1.238 . S
O37 Cd1 2.273 . S
O37 C10 1.253 . S
O38 Cd1 2.268 1_455 S
O38 C27 1.238 . S
O39 Cd0 2.273 . S
O39 C27 1.253 . S
O40 Cd0 2.417 1_665 S
O40 C28 1.239 1_655 S
O41 Cd0 2.330 1_565 S
O41 C28 1.230 . S
O42 Cd1 2.417 1_455 S
O42 C35 1.239 1_455 S
O43 Cd1 2.330 . S
O43 C35 1.230 . S
H44 C30 0.929 . S
H45 C34 0.930 . S
H46 C4 0.931 . S
H47 C6 0.930 . S
H48 C12 0.929 . S
H49 C14 0.931 . S
H50 C21 0.931 . S
H51 C23 0.930 . S
H52 C31 0.929 . S
H53 C33 0.931 . S
Cd54 N57 2.334 . S
Cd54 N83 2.304 . S
Cd54 O90 2.268 . S
Cd54 O93 2.273 . S
Cd54 O94 2.417 . S
Cd54 O95 2.330 . S
Cd55 N70 2.304 . S
Cd55 N74 2.334 . S
Cd55 O91 2.273 . S
Cd55 O92 2.268 . S
Cd55 O96 2.417 . S
Cd55 O97 2.330 . S
C56 N57 1.332 . S
C56 C60 1.381 . S
C56 H62 0.931 . S
N57 Cd54 2.334 . S
N57 C56 1.332 . S
N57 C61 1.328 . S
C58 C59 1.396 . S
C58 C61 1.378 . S
C58 H100 0.931 . S
C59 C58 1.396 . S
C59 C60 1.382 . S
C60 C56 1.381 . S
C60 C59 1.382 . S
C60 H101 0.930 . S
C61 N57 1.328 . S
C61 C58 1.378 . S
C61 H63 0.930 . S
H62 C56 0.931 . S
H63 C61 0.930 . S
C64 O90 1.238 1_655 S
C64 O91 1.253 . S
C65 C66 1.379 . S
C65 N70 1.337 . S
C65 H71 0.929 . S
C66 C65 1.379 . S
C66 C67 1.380 . S
C66 H102 0.929 . S
C67 C66 1.380 . S
C67 C68 1.399 . S
C68 C67 1.399 . S
C68 C69 1.376 . S
C68 H103 0.931 . S
C69 C68 1.376 . S
C69 N70 1.338 . S
C69 H72 0.930 . S
N70 Cd55 2.304 . S
N70 C65 1.337 . S
N70 C69 1.338 . S
H71 C65 0.929 . S
H72 C69 0.930 . S
C73 N74 1.332 . S
C73 C77 1.381 . S
C73 H79 0.931 . S
N74 Cd55 2.334 . S
N74 C73 1.332 . S
N74 C78 1.328 . S
C75 C76 1.396 . S
C75 C78 1.378 . S
C75 H104 0.931 . S
C76 C75 1.396 . S
C76 C77 1.382 . S
C77 C73 1.381 . S
C77 C76 1.382 . S
C77 H105 0.930 . S
C78 N74 1.328 . S
C78 C75 1.378 . S
C78 H80 0.930 . S
H79 C73 0.931 . S
H80 C78 0.930 . S
C81 O92 1.238 1_455 S
C81 O93 1.253 . S
C82 O94 1.239 . S
C82 O95 1.230 . S
N83 Cd54 2.304 . S
N83 C84 1.337 . S
N83 C88 1.338 . S
C84 N83 1.337 . S
C84 C85 1.379 . S
C84 H98 0.929 . S
C85 C84 1.379 . S
C85 C86 1.380 . S
C85 H106 0.929 . S
C86 C85 1.380 . S
C86 C87 1.399 . S
C87 C86 1.399 . S
C87 C88 1.376 . S
C87 H107 0.931 . S
C88 N83 1.338 . S
C88 C87 1.376 . S
C88 H99 0.930 . S
C89 O96 1.239 . S
C89 O97 1.230 . S
O90 Cd54 2.268 . S
O90 C64 1.238 1_455 S
O91 Cd55 2.273 . S
O91 C64 1.253 . S
O92 Cd55 2.268 . S
O92 C81 1.238 1_655 S
O93 Cd54 2.273 . S
O93 C81 1.253 . S
O94 Cd54 2.417 . S
O94 C82 1.239 . S
O95 Cd54 2.330 . S
O95 C82 1.230 . S
O96 Cd55 2.417 . S
O96 C89 1.239 . S
O97 Cd55 2.330 . S
O97 C89 1.230 . S
H98 C84 0.929 . S
H99 C88 0.930 . S
H100 C58 0.931 . S
H101 C60 0.930 . S
H102 C66 0.929 . S
H103 C68 0.931 . S
H104 C75 0.931 . S
H105 C77 0.930 . S
H106 C85 0.929 . S
H107 C87 0.931 . S
Cd108 N111 2.334 . S
Cd108 N137 2.304 . S
Cd108 O144 2.268 . S
Cd108 O147 2.273 . S
Cd108 O148 2.417 . S
Cd108 O149 2.330 . S
Cd109 N124 2.304 . S
Cd109 N128 2.334 . S
Cd109 O145 2.273 . S
Cd109 O146 2.268 . S
Cd109 O150 2.417 1_565 S
Cd109 O151 2.330 1_565 S
C110 N111 1.332 . S
C110 C114 1.381 . S
C110 H116 0.931 . S
N111 Cd108 2.334 . S
N111 C110 1.332 . S
N111 C115 1.328 . S
C112 C113 1.396 . S
C112 C115 1.378 . S
C112 H154 0.931 . S
C113 C112 1.396 . S
C113 C114 1.382 . S
C114 C110 1.381 . S
C114 C113 1.382 . S
C114 H155 0.930 . S
C115 N111 1.328 . S
C115 C112 1.378 . S
C115 H117 0.930 . S
H116 C110 0.931 . S
H117 C115 0.930 . S
C118 O144 1.238 . S
C118 O145 1.253 . S
C119 C120 1.379 . S
C119 N124 1.337 . S
C119 H125 0.929 . S
C120 C119 1.379 . S
C120 C121 1.380 . S
C120 H156 0.929 . S
C121 C120 1.380 . S
C121 C122 1.399 . S
C122 C121 1.399 . S
C122 C123 1.376 . S
C122 H157 0.931 . S
C123 C122 1.376 . S
C123 N124 1.338 . S
C123 H126 0.930 . S
N124 Cd109 2.304 . S
N124 C119 1.337 . S
N124 C123 1.338 . S
H125 C119 0.929 . S
H126 C123 0.930 . S
C127 N128 1.332 . S
C127 C131 1.381 . S
C127 H133 0.931 . S
N128 Cd109 2.334 . S
N128 C127 1.332 . S
N128 C132 1.328 . S
C129 C130 1.396 . S
C129 C132 1.378 . S
C129 H158 0.931 . S
C130 C129 1.396 . S
C130 C131 1.382 . S
C131 C127 1.381 . S
C131 C130 1.382 . S
C131 H159 0.930 . S
C132 N128 1.328 . S
C132 C129 1.378 . S
C132 H134 0.930 . S
H133 C127 0.931 . S
H134 C132 0.930 . S
C135 O146 1.238 . S
C135 O147 1.253 . S
C136 O148 1.239 . S
C136 O149 1.230 . S
N137 Cd108 2.304 . S
N137 C138 1.337 . S
N137 C142 1.338 . S
C138 N137 1.337 . S
C138 C139 1.379 . S
C138 H152 0.929 . S
C139 C138 1.379 . S
C139 C140 1.380 . S
C139 H160 0.929 . S
C140 C139 1.380 . S
C140 C141 1.399 . S
C141 C140 1.399 . S
C141 C142 1.376 . S
C141 H161 0.931 . S
C142 N137 1.338 . S
C142 C141 1.376 . S
C142 H153 0.930 . S
C143 O150 1.239 . S
C143 O151 1.230 . S
O144 Cd108 2.268 . S
O144 C118 1.238 . S
O145 Cd109 2.273 . S
O145 C118 1.253 . S
O146 Cd109 2.268 . S
O146 C135 1.238 . S
O147 Cd108 2.273 . S
O147 C135 1.253 . S
O148 Cd108 2.417 . S
O148 C136 1.239 . S
O149 Cd108 2.330 . S
O149 C136 1.230 . S
O150 Cd109 2.417 1_545 S
O150 C143 1.239 . S
O151 Cd109 2.330 1_545 S
O151 C143 1.230 . S
H152 C138 0.929 . S
H153 C142 0.930 . S
H154 C112 0.931 . S
H155 C114 0.930 . S
H156 C120 0.929 . S
H157 C122 0.931 . S
H158 C129 0.931 . S
H159 C131 0.930 . S
H160 C139 0.929 . S
H161 C141 0.931 . S
Cd162 N165 2.334 . S
Cd162 N191 2.304 . S
Cd162 O198 2.268 . S
Cd162 O201 2.273 . S
Cd162 O202 2.417 . S
Cd162 O203 2.330 . S
Cd163 N178 2.304 . S
Cd163 N182 2.334 . S
Cd163 O199 2.273 . S
Cd163 O200 2.268 . S
Cd163 O204 2.417 . S
Cd163 O205 2.330 . S
C164 N165 1.332 . S
C164 C168 1.381 . S
C164 H170 0.931 . S
N165 Cd162 2.334 . S
N165 C164 1.332 . S
N165 C169 1.328 . S
C166 C167 1.396 . S
C166 C169 1.378 . S
C166 H208 0.931 . S
C167 C166 1.396 . S
C167 C168 1.382 . S
C168 C164 1.381 . S
C168 C167 1.382 . S
C168 H209 0.930 . S
C169 N165 1.328 . S
C169 C166 1.378 . S
C169 H171 0.930 . S
H170 C164 0.931 . S
H171 C169 0.930 . S
C172 O198 1.238 . S
C172 O199 1.253 . S
C173 C174 1.379 . S
C173 N178 1.337 . S
C173 H179 0.929 . S
C174 C173 1.379 . S
C174 C175 1.380 . S
C174 H210 0.929 . S
C175 C174 1.380 . S
C175 C176 1.399 . S
C176 C175 1.399 . S
C176 C177 1.376 . S
C176 H211 0.931 . S
C177 C176 1.376 . S
C177 N178 1.338 . S
C177 H180 0.930 . S
N178 Cd163 2.304 . S
N178 C173 1.337 . S
N178 C177 1.338 . S
H179 C173 0.929 . S
H180 C177 0.930 . S
C181 N182 1.332 . S
C181 C185 1.381 . S
C181 H187 0.931 . S
N182 Cd163 2.334 . S
N182 C181 1.332 . S
N182 C186 1.328 . S
C183 C184 1.396 . S
C183 C186 1.378 . S
C183 H212 0.931 . S
C184 C183 1.396 . S
C184 C185 1.382 . S
C185 C181 1.381 . S
C185 C184 1.382 . S
C185 H213 0.930 . S
C186 N182 1.328 . S
C186 C183 1.378 . S
C186 H188 0.930 . S
H187 C181 0.931 . S
H188 C186 0.930 . S
C189 O200 1.238 . S
C189 O201 1.253 . S
C190 O202 1.239 . S
C190 O203 1.230 . S
N191 Cd162 2.304 . S
N191 C192 1.337 . S
N191 C196 1.338 . S
C192 N191 1.337 . S
C192 C193 1.379 . S
C192 H206 0.929 . S
C193 C192 1.379 . S
C193 C194 1.380 . S
C193 H214 0.929 . S
C194 C193 1.380 . S
C194 C195 1.399 . S
C195 C194 1.399 . S
C195 C196 1.376 . S
C195 H215 0.931 . S
C196 N191 1.338 . S
C196 C195 1.376 . S
C196 H207 0.930 . S
C197 O204 1.239 . S
C197 O205 1.230 . S
O198 Cd162 2.268 . S
O198 C172 1.238 . S
O199 Cd163 2.273 . S
O199 C172 1.253 . S
O200 Cd163 2.268 . S
O200 C189 1.238 . S
O201 Cd162 2.273 . S
O201 C189 1.253 . S
O202 Cd162 2.417 . S
O202 C190 1.239 . S
O203 Cd162 2.330 . S
O203 C190 1.230 . S
O204 Cd163 2.417 . S
O204 C197 1.239 . S
O205 Cd163 2.330 . S
O205 C197 1.230 . S
H206 C192 0.929 . S
H207 C196 0.930 . S
H208 C166 0.931 . S
H209 C168 0.930 . S
H210 C174 0.929 . S
H211 C176 0.931 . S
H212 C183 0.931 . S
H213 C185 0.930 . S
H214 C193 0.929 . S
H215 C195 0.931 . S
C216 C217 1.391 1_455 S
C216 C218 1.394 1_455 S
C216 H232 0.931 . S
C217 C216 1.391 1_655 S
C217 C221 1.376 . S
C218 C216 1.394 1_655 S
C218 C219 1.369 . S
C218 C222 1.531 1_655 S
C219 C218 1.369 . S
C219 C220 1.410 . S
C219 C227 1.503 . S
C220 C219 1.410 . S
C220 C221 1.392 . S
C220 C223 1.511 . S
C221 C217 1.376 . S
C221 C220 1.392 . S
C221 H233 0.929 . S
C222 C218 1.531 1_455 S
C222 H234 0.960 . S
C222 H235 0.962 1_455 S
C222 H236 0.960 . S
C223 C220 1.511 . S
C223 H237 0.961 . S
C223 H238 0.961 . S
C223 H239 0.961 . S
C224 C225 1.370 . S
C224 C226 1.363 . S
C224 H240 0.931 . S
C225 C224 1.370 . S
C225 C229 1.408 . S
C226 C224 1.363 . S
C226 C227 1.370 . S
C226 C230 1.524 . S
C227 C219 1.503 . S
C227 C226 1.370 . S
C227 C228 1.403 1_655 S
C228 C227 1.403 1_455 S
C228 C229 1.404 1_455 S
C228 C231 1.539 . S
C229 C225 1.408 . S
C229 C228 1.404 1_655 S
C229 H241 0.930 1_655 S
C230 C226 1.524 . S
C230 H242 0.956 . S
C230 H243 0.961 . S
C230 H244 0.961 . S
C231 C228 1.539 . S
C231 H245 0.958 . S
C231 H246 0.961 . S
C231 H247 0.960 . S
H232 C216 0.931 . S
H233 C221 0.929 . S
H234 C222 0.960 . S
H235 C222 0.962 1_655 S
H236 C222 0.960 . S
H237 C223 0.961 . S
H238 C223 0.961 . S
H239 C223 0.961 . S
H240 C224 0.931 . S
H241 C229 0.930 1_455 S
H242 C230 0.956 . S
H243 C230 0.961 . S
H244 C230 0.961 . S
H245 C231 0.958 . S
H246 C231 0.961 . S
H247 C231 0.960 . S
C248 C249 1.391 . S
C248 C250 1.394 . S
C248 H264 0.931 . S
C249 C248 1.391 . S
C249 C253 1.376 . S
C250 C248 1.394 . S
C250 C251 1.369 . S
C250 C254 1.531 . S
C251 C250 1.369 . S
C251 C252 1.410 . S
C251 C259 1.503 . S
C252 C251 1.410 . S
C252 C253 1.392 . S
C252 C255 1.511 . S
C253 C249 1.376 . S
C253 C252 1.392 . S
C253 H265 0.929 . S
C254 C250 1.531 . S
C254 H266 0.960 . S
C254 H267 0.962 . S
C254 H268 0.960 . S
C255 C252 1.511 . S
C255 H269 0.961 . S
C255 H270 0.961 . S
C255 H271 0.961 . S
C256 C257 1.370 . S
C256 C258 1.363 . S
C256 H272 0.931 . S
C257 C256 1.370 . S
C257 C261 1.408 . S
C258 C256 1.363 . S
C258 C259 1.370 . S
C258 C262 1.524 . S
C259 C251 1.503 . S
C259 C258 1.370 . S
C259 C260 1.403 . S
C260 C259 1.403 . S
C260 C261 1.404 . S
C260 C263 1.539 . S
C261 C257 1.408 . S
C261 C260 1.404 . S
C261 H273 0.930 . S
C262 C258 1.524 . S
C262 H274 0.956 . S
C262 H275 0.961 . S
C262 H276 0.961 . S
C263 C260 1.539 . S
C263 H277 0.958 . S
C263 H278 0.961 . S
C263 H279 0.960 . S
H264 C248 0.931 . S
H265 C253 0.929 . S
H266 C254 0.960 . S
H267 C254 0.962 . S
H268 C254 0.960 . S
H269 C255 0.961 . S
H270 C255 0.961 . S
H271 C255 0.961 . S
H272 C256 0.931 . S
H273 C261 0.930 . S
H274 C262 0.956 . S
H275 C262 0.961 . S
H276 C262 0.961 . S
H277 C263 0.958 . S
H278 C263 0.961 . S
H279 C263 0.960 . S
C280 C281 1.391 . S
C280 C282 1.394 . S
C280 H296 0.931 . S
C281 C280 1.391 . S
C281 C285 1.376 . S
C282 C280 1.394 . S
C282 C283 1.369 . S
C282 C286 1.531 . S
C283 C282 1.369 . S
C283 C284 1.410 . S
C283 C291 1.503 1_556 S
C284 C283 1.410 . S
C284 C285 1.392 . S
C284 C287 1.511 . S
C285 C281 1.376 . S
C285 C284 1.392 . S
C285 H297 0.929 . S
C286 C282 1.531 . S
C286 H298 0.960 . S
C286 H299 0.962 . S
C286 H300 0.960 . S
C287 C284 1.511 . S
C287 H301 0.961 . S
C287 H302 0.961 1_556 S
C287 H303 0.961 . S
C288 C289 1.370 . S
C288 C290 1.363 . S
C288 H304 0.931 . S
C289 C288 1.370 . S
C289 C293 1.408 . S
C290 C288 1.363 . S
C290 C291 1.370 . S
C290 C294 1.524 . S
C291 C283 1.503 1_554 S
C291 C290 1.370 . S
C291 C292 1.403 . S
C292 C291 1.403 . S
C292 C293 1.404 . S
C292 C295 1.539 1_554 S
C293 C289 1.408 . S
C293 C292 1.404 . S
C293 H305 0.930 . S
C294 C290 1.524 . S
C294 H306 0.956 . S
C294 H307 0.961 . S
C294 H308 0.961 . S
C295 C292 1.539 1_556 S
C295 H309 0.958 . S
C295 H310 0.961 . S
C295 H311 0.960 . S
H296 C280 0.931 . S
H297 C285 0.929 . S
H298 C286 0.960 . S
H299 C286 0.962 . S
H300 C286 0.960 . S
H301 C287 0.961 . S
H302 C287 0.961 1_554 S
H303 C287 0.961 . S
H304 C288 0.931 . S
H305 C293 0.930 . S
H306 C294 0.956 . S
H307 C294 0.961 . S
H308 C294 0.961 . S
H309 C295 0.958 . S
H310 C295 0.961 . S
H311 C295 0.960 . S
C312 C313 1.391 . S
C312 C314 1.394 . S
C312 H328 0.931 . S
C313 C312 1.391 . S
C313 C317 1.376 . S
C314 C312 1.394 . S
C314 C315 1.369 . S
C314 C318 1.531 . S
C315 C314 1.369 . S
C315 C316 1.410 . S
C315 C323 1.503 . S
C316 C315 1.410 . S
C316 C317 1.392 . S
C316 C319 1.511 . S
C317 C313 1.376 . S
C317 C316 1.392 . S
C317 H329 0.929 . S
C318 C314 1.531 . S
C318 H330 0.960 . S
C318 H331 0.962 . S
C318 H332 0.960 . S
C319 C316 1.511 . S
C319 H333 0.961 . S
C319 H334 0.961 . S
C319 H335 0.961 . S
C320 C321 1.370 . S
C320 C322 1.363 . S
C320 H336 0.931 . S
C321 C320 1.370 . S
C321 C325 1.408 . S
C322 C320 1.363 . S
C322 C323 1.370 . S
C322 C326 1.524 . S
C323 C315 1.503 . S
C323 C322 1.370 . S
C323 C324 1.403 . S
C324 C323 1.403 . S
C324 C325 1.404 . S
C324 C327 1.539 . S
C325 C321 1.408 . S
C325 C324 1.404 . S
C325 H337 0.930 . S
C326 C322 1.524 . S
C326 H338 0.956 . S
C326 H339 0.961 . S
C326 H340 0.961 . S
C327 C324 1.539 . S
C327 H341 0.958 . S
C327 H342 0.961 . S
C327 H343 0.960 . S
H328 C312 0.931 . S
H329 C317 0.929 . S
H330 C318 0.960 . S
H331 C318 0.962 . S
H332 C318 0.960 . S
H333 C319 0.961 . S
H334 C319 0.961 . S
H335 C319 0.961 . S
H336 C320 0.931 . S
H337 C325 0.930 . S
H338 C326 0.956 . S
H339 C326 0.961 . S
H340 C326 0.961 . S
H341 C327 0.958 . S
H342 C327 0.961 . S
H343 C327 0.960 . S
C344 C345 1.391 . S
C344 C346 1.394 . S
C344 H360 0.931 . S
C345 C344 1.391 . S
C345 C349 1.376 . S
C346 C344 1.394 . S
C346 C347 1.369 . S
C346 C350 1.531 . S
C347 C346 1.369 . S
C347 C348 1.410 . S
C347 C355 1.503 . S
C348 C347 1.410 . S
C348 C349 1.392 . S
C348 C351 1.511 . S
C349 C345 1.376 . S
C349 C348 1.392 . S
C349 H361 0.929 . S
C350 C346 1.531 . S
C350 H362 0.960 . S
C350 H363 0.962 . S
C350 H364 0.960 . S
C351 C348 1.511 . S
C351 H365 0.961 . S
C351 H366 0.961 . S
C351 H367 0.961 . S
C352 C353 1.370 . S
C352 C354 1.363 . S
C352 H368 0.931 . S
C353 C352 1.370 . S
C353 C357 1.408 . S
C354 C352 1.363 . S
C354 C355 1.370 . S
C354 C358 1.524 . S
C355 C347 1.503 . S
C355 C354 1.370 . S
C355 C356 1.403 . S
C356 C355 1.403 . S
C356 C357 1.404 . S
C356 C359 1.539 . S
C357 C353 1.408 . S
C357 C356 1.404 . S
C357 H369 0.930 . S
C358 C354 1.524 . S
C358 H370 0.956 . S
C358 H371 0.961 . S
C358 H372 0.961 . S
C359 C356 1.539 . S
C359 H373 0.958 . S
C359 H374 0.961 . S
C359 H375 0.960 . S
H360 C344 0.931 . S
H361 C349 0.929 . S
H362 C350 0.960 . S
H363 C350 0.962 . S
H364 C350 0.960 . S
H365 C351 0.961 . S
H366 C351 0.961 . S
H367 C351 0.961 . S
H368 C352 0.931 . S
H369 C357 0.930 . S
H370 C358 0.956 . S
H371 C358 0.961 . S
H372 C358 0.961 . S
H373 C359 0.958 . S
H374 C359 0.961 . S
H375 C359 0.960 . S
C376 C377 1.391 . S
C376 C378 1.394 . S
C376 H392 0.931 . S
C377 C376 1.391 . S
C377 C381 1.376 . S
C378 C376 1.394 . S
C378 C379 1.369 . S
C378 C382 1.531 . S
C379 C378 1.369 . S
C379 C380 1.410 . S
C379 C387 1.503 . S
C380 C379 1.410 . S
C380 C381 1.392 . S
C380 C383 1.511 . S
C381 C377 1.376 . S
C381 C380 1.392 . S
C381 H393 0.929 . S
C382 C378 1.531 . S
C382 H394 0.960 . S
C382 H395 0.962 . S
C382 H396 0.960 . S
C383 C380 1.511 . S
C383 H397 0.961 . S
C383 H398 0.961 . S
C383 H399 0.961 . S
C384 C385 1.370 . S
C384 C386 1.363 . S
C384 H400 0.931 . S
C385 C384 1.370 . S
C385 C389 1.408 . S
C386 C384 1.363 . S
C386 C387 1.370 . S
C386 C390 1.524 . S
C387 C379 1.503 . S
C387 C386 1.370 . S
C387 C388 1.403 . S
C388 C387 1.403 . S
C388 C389 1.404 . S
C388 C391 1.539 . S
C389 C385 1.408 . S
C389 C388 1.404 . S
C389 H401 0.930 . S
C390 C386 1.524 . S
C390 H402 0.956 . S
C390 H403 0.961 . S
C390 H404 0.961 . S
C391 C388 1.539 . S
C391 H405 0.958 . S
C391 H406 0.961 . S
C391 H407 0.960 . S
H392 C376 0.931 . S
H393 C381 0.929 . S
H394 C382 0.960 . S
H395 C382 0.962 . S
H396 C382 0.960 . S
H397 C383 0.961 . S
H398 C383 0.961 . S
H399 C383 0.961 . S
H400 C384 0.931 . S
H401 C389 0.930 . S
H402 C390 0.956 . S
H403 C390 0.961 . S
H404 C390 0.961 . S
H405 C391 0.958 . S
H406 C391 0.961 . S
H407 C391 0.960 . S
C408 C409 1.391 . S
C408 C410 1.394 . S
C408 H424 0.931 . S
C409 C408 1.391 . S
C409 C413 1.376 . S
C410 C408 1.394 . S
C410 C411 1.369 1_565 S
C410 C414 1.531 1_556 S
C411 C410 1.369 1_545 S
C411 C412 1.410 . S
C411 C419 1.503 1_556 S
C412 C411 1.410 . S
C412 C413 1.392 1_545 S
C412 C415 1.511 . S
C413 C409 1.376 . S
C413 C412 1.392 1_565 S
C413 H425 0.929 1_565 S
C414 C410 1.531 1_554 S
C414 H426 0.960 . S
C414 H427 0.962 . S
C414 H428 0.960 . S
C415 C412 1.511 . S
C415 H429 0.961 . S
C415 H430 0.961 . S
C415 H431 0.961 . S
C416 C417 1.370 . S
C416 C418 1.363 . S
C416 H432 0.931 . S
C417 C416 1.370 . S
C417 C421 1.408 . S
C418 C416 1.363 . S
C418 C419 1.370 . S
C418 C422 1.524 1_554 S
C419 C411 1.503 1_554 S
C419 C418 1.370 . S
C419 C420 1.403 . S
C420 C419 1.403 . S
C420 C421 1.404 . S
C420 C423 1.539 . S
C421 C417 1.408 . S
C421 C420 1.404 . S
C421 H433 0.930 . S
C422 C418 1.524 1_556 S
C422 H434 0.956 . S
C422 H435 0.961 . S
C422 H436 0.961 . S
C423 C420 1.539 . S
C423 H437 0.958 1_545 S
C423 H438 0.961 . S
C423 H439 0.960 . S
H424 C408 0.931 . S
H425 C413 0.929 1_545 S
H426 C414 0.960 . S
H427 C414 0.962 . S
H428 C414 0.960 . S
H429 C415 0.961 . S
H430 C415 0.961 . S
H431 C415 0.961 . S
H432 C416 0.931 . S
H433 C421 0.930 . S
H434 C422 0.956 . S
H435 C422 0.961 . S
H436 C422 0.961 . S
H437 C423 0.958 1_565 S
H438 C423 0.961 . S
H439 C423 0.960 . S
C440 C441 1.391 1_655 S
C440 C442 1.394 1_645 S
C440 H456 0.931 1_545 S
C441 C440 1.391 1_455 S
C441 C445 1.376 . S
C442 C440 1.394 1_465 S
C442 C443 1.369 . S
C442 C446 1.531 1_455 S
C443 C442 1.369 . S
C443 C444 1.410 1_565 S
C443 C451 1.503 . S
C444 C443 1.410 1_545 S
C444 C445 1.392 . S
C444 C447 1.511 . S
C445 C441 1.376 . S
C445 C444 1.392 . S
C445 H457 0.929 . S
C446 C442 1.531 1_655 S
C446 H458 0.960 . S
C446 H459 0.962 . S
C446 H460 0.960 . S
C447 C444 1.511 . S
C447 H461 0.961 . S
C447 H462 0.961 . S
C447 H463 0.961 . S
C448 C449 1.370 . S
C448 C450 1.363 . S
C448 H464 0.931 . S
C449 C448 1.370 . S
C449 C453 1.408 . S
C450 C448 1.363 . S
C450 C451 1.370 . S
C450 C454 1.524 1_465 S
C451 C443 1.503 . S
C451 C450 1.370 . S
C451 C452 1.403 . S
C452 C451 1.403 . S
C452 C453 1.404 . S
C452 C455 1.539 . S
C453 C449 1.408 . S
C453 C452 1.404 . S
C453 H465 0.930 . S
C454 C450 1.524 1_645 S
C454 H466 0.957 . S
C454 H467 0.961 1_655 S
C454 H468 0.961 . S
C455 C452 1.539 . S
C455 H469 0.958 . S
C455 H470 0.961 . S
C455 H471 0.960 . S
H456 C440 0.931 1_565 S
H457 C445 0.929 . S
H458 C446 0.960 . S
H459 C446 0.962 . S
H460 C446 0.960 . S
H461 C447 0.961 . S
H462 C447 0.961 . S
H463 C447 0.961 . S
H464 C448 0.931 . S
H465 C453 0.930 . S
H466 C454 0.957 . S
H467 C454 0.961 1_455 S
H468 C454 0.961 . S
H469 C455 0.958 . S
H470 C455 0.961 . S
H471 C455 0.960 . S
C472 C473 1.391 1_655 S
C472 C474 1.394 . S
C472 H488 0.931 . S
C473 C472 1.391 1_455 S
C473 C477 1.376 . S
C474 C472 1.394 . S
C474 C475 1.369 1_655 S
C474 C478 1.531 . S
C475 C474 1.369 1_455 S
C475 C476 1.410 . S
C475 C483 1.503 . S
C476 C475 1.410 . S
C476 C477 1.392 . S
C476 C479 1.511 . S
C477 C473 1.376 . S
C477 C476 1.392 . S
C477 H489 0.929 . S
C478 C474 1.531 . S
C478 H490 0.960 . S
C478 H491 0.962 . S
C478 H492 0.960 . S
C479 C476 1.511 . S
C479 H493 0.961 . S
C479 H494 0.961 . S
C479 H495 0.961 . S
C480 C481 1.370 . S
C480 C482 1.363 . S
C480 H496 0.931 . S
C481 C480 1.370 . S
C481 C485 1.408 1_655 S
C482 C480 1.363 . S
C482 C483 1.370 1_655 S
C482 C486 1.524 . S
C483 C475 1.503 . S
C483 C482 1.370 1_455 S
C483 C484 1.403 . S
C484 C483 1.403 . S
C484 C485 1.404 . S
C484 C487 1.539 . S
C485 C481 1.408 1_455 S
C485 C484 1.404 . S
C485 H497 0.930 . S
C486 C482 1.524 . S
C486 H498 0.956 . S
C486 H499 0.961 . S
C486 H500 0.961 . S
C487 C484 1.539 . S
C487 H501 0.958 . S
C487 H502 0.961 . S
C487 H503 0.960 . S
H488 C472 0.931 . S
H489 C477 0.929 . S
H490 C478 0.960 . S
H491 C478 0.962 . S
H492 C478 0.960 . S
H493 C479 0.961 . S
H494 C479 0.961 . S
H495 C479 0.961 . S
H496 C480 0.931 . S
H497 C485 0.930 . S
H498 C486 0.956 . S
H499 C486 0.961 . S
H500 C486 0.961 . S
H501 C487 0.958 . S
H502 C487 0.961 . S
H503 C487 0.960 . S
C504 C505 1.391 . S
C504 C506 1.394 . S
C504 H520 0.931 . S
C505 C504 1.391 . S
C505 C509 1.376 . S
C506 C504 1.394 . S
C506 C507 1.369 . S
C506 C510 1.531 . S
C507 C506 1.369 . S
C507 C508 1.410 . S
C507 C515 1.503 . S
C508 C507 1.410 . S
C508 C509 1.392 . S
C508 C511 1.511 . S
C509 C505 1.376 . S
C509 C508 1.392 . S
C509 H521 0.929 . S
C510 C506 1.531 . S
C510 H522 0.960 . S
C510 H523 0.962 . S
C510 H524 0.960 . S
C511 C508 1.511 . S
C511 H525 0.961 . S
C511 H526 0.961 . S
C511 H527 0.961 . S
C512 C513 1.370 . S
C512 C514 1.363 . S
C512 H528 0.931 . S
C513 C512 1.370 . S
C513 C517 1.408 . S
C514 C512 1.363 . S
C514 C515 1.370 . S
C514 C518 1.524 . S
C515 C507 1.503 . S
C515 C514 1.370 . S
C515 C516 1.403 . S
C516 C515 1.403 . S
C516 C517 1.404 . S
C516 C519 1.539 . S
C517 C513 1.408 . S
C517 C516 1.404 . S
C517 H529 0.930 . S
C518 C514 1.524 . S
C518 H530 0.956 . S
C518 H531 0.961 . S
C518 H532 0.961 . S
C519 C516 1.539 . S
C519 H533 0.958 . S
C519 H534 0.961 . S
C519 H535 0.960 . S
H520 C504 0.931 . S
H521 C509 0.929 . S
H522 C510 0.960 . S
H523 C510 0.962 . S
H524 C510 0.960 . S
H525 C511 0.961 . S
H526 C511 0.961 . S
H527 C511 0.961 . S
H528 C512 0.931 . S
H529 C517 0.930 . S
H530 C518 0.956 . S
H531 C518 0.961 . S
H532 C518 0.961 . S
H533 C519 0.958 . S
H534 C519 0.961 . S
H535 C519 0.960 . S
C536 C537 1.391 . S
C536 C538 1.394 . S
C536 H552 0.931 . S
C537 C536 1.391 . S
C537 C541 1.376 . S
C538 C536 1.394 . S
C538 C539 1.369 . S
C538 C542 1.531 . S
C539 C538 1.369 . S
C539 C540 1.410 . S
C539 C547 1.503 . S
C540 C539 1.410 . S
C540 C541 1.392 . S
C540 C543 1.511 . S
C541 C537 1.376 . S
C541 C540 1.392 . S
C541 H553 0.929 . S
C542 C538 1.531 . S
C542 H554 0.960 . S
C542 H555 0.962 . S
C542 H556 0.960 . S
C543 C540 1.511 . S
C543 H557 0.961 . S
C543 H558 0.961 . S
C543 H559 0.961 . S
C544 C545 1.370 . S
C544 C546 1.363 . S
C544 H560 0.931 . S
C545 C544 1.370 . S
C545 C549 1.408 . S
C546 C544 1.363 . S
C546 C547 1.370 . S
C546 C550 1.524 . S
C547 C539 1.503 . S
C547 C546 1.370 . S
C547 C548 1.403 . S
C548 C547 1.403 . S
C548 C549 1.404 . S
C548 C551 1.539 . S
C549 C545 1.408 . S
C549 C548 1.404 . S
C549 H561 0.930 . S
C550 C546 1.524 . S
C550 H562 0.956 . S
C550 H563 0.961 . S
C550 H564 0.961 . S
C551 C548 1.539 . S
C551 H565 0.958 . S
C551 H566 0.961 . S
C551 H567 0.960 . S
H552 C536 0.931 . S
H553 C541 0.929 . S
H554 C542 0.960 . S
H555 C542 0.962 . S
H556 C542 0.960 . S
H557 C543 0.961 . S
H558 C543 0.961 . S
H559 C543 0.961 . S
H560 C544 0.931 . S
H561 C549 0.930 . S
H562 C550 0.956 . S
H563 C550 0.961 . S
H564 C550 0.961 . S
H565 C551 0.958 . S
H566 C551 0.961 . S
H567 C551 0.960 . S
C568 C569 1.391 . S
C568 C570 1.394 . S
C568 H584 0.931 . S
C569 C568 1.391 . S
C569 C573 1.376 . S
C570 C568 1.394 . S
C570 C571 1.369 . S
C570 C574 1.531 . S
C571 C570 1.369 . S
C571 C572 1.410 . S
C571 C579 1.503 1_455 S
C572 C571 1.410 . S
C572 C573 1.392 . S
C572 C575 1.511 . S
C573 C569 1.376 . S
C573 C572 1.392 . S
C573 H585 0.929 . S
C574 C570 1.531 . S
C574 H586 0.960 1_455 S
C574 H587 0.962 . S
C574 H588 0.960 . S
C575 C572 1.511 . S
C575 H589 0.961 . S
C575 H590 0.961 1_455 S
C575 H591 0.961 . S
C576 C577 1.370 . S
C576 C578 1.363 . S
C576 H592 0.931 . S
C577 C576 1.370 . S
C577 C581 1.408 . S
C578 C576 1.363 . S
C578 C579 1.370 . S
C578 C582 1.524 . S
C579 C571 1.503 1_655 S
C579 C578 1.370 . S
C579 C580 1.403 . S
C580 C579 1.403 . S
C580 C581 1.404 . S
C580 C583 1.539 . S
C581 C577 1.408 . S
C581 C580 1.404 . S
C581 H593 0.930 . S
C582 C578 1.524 . S
C582 H594 0.956 . S
C582 H595 0.961 1_655 S
C582 H596 0.961 . S
C583 C580 1.539 . S
C583 H597 0.958 . S
C583 H598 0.961 . S
C583 H599 0.960 1_655 S
H584 C568 0.931 . S
H585 C573 0.929 . S
H586 C574 0.960 1_655 S
H587 C574 0.962 . S
H588 C574 0.960 . S
H589 C575 0.961 . S
H590 C575 0.961 1_655 S
H591 C575 0.961 . S
H592 C576 0.931 . S
H593 C581 0.930 . S
H594 C582 0.956 . S
H595 C582 0.961 1_455 S
H596 C582 0.961 . S
H597 C583 0.958 . S
H598 C583 0.961 . S
H599 C583 0.960 1_455 S
C600 C601 1.391 . S
C600 C602 1.394 . S
C600 H616 0.931 . S
C601 C600 1.391 . S
C601 C605 1.376 1_655 S
C602 C600 1.394 . S
C602 C603 1.369 . S
C602 C606 1.531 . S
C603 C602 1.369 . S
C603 C604 1.410 1_655 S
C603 C611 1.503 . S
C604 C603 1.410 1_455 S
C604 C605 1.392 . S
C604 C607 1.511 . S
C605 C601 1.376 1_455 S
C605 C604 1.392 . S
C605 H617 0.929 . S
C606 C602 1.531 . S
C606 H618 0.960 . S
C606 H619 0.962 . S
C606 H620 0.960 . S
C607 C604 1.511 . S
C607 H621 0.961 . S
C607 H622 0.961 . S
C607 H623 0.961 . S
C608 C609 1.370 . S
C608 C610 1.363 . S
C608 H624 0.931 . S
C609 C608 1.370 . S
C609 C613 1.408 1_455 S
C610 C608 1.363 . S
C610 C611 1.370 1_455 S
C610 C614 1.524 . S
C611 C603 1.503 . S
C611 C610 1.370 1_655 S
C611 C612 1.403 . S
C612 C611 1.403 . S
C612 C613 1.404 . S
C612 C615 1.539 . S
C613 C609 1.408 1_655 S
C613 C612 1.404 . S
C613 H625 0.930 . S
C614 C610 1.524 . S
C614 H626 0.956 . S
C614 H627 0.961 . S
C614 H628 0.961 . S
C615 C612 1.539 . S
C615 H629 0.958 . S
C615 H630 0.961 . S
C615 H631 0.960 . S
H616 C600 0.931 . S
H617 C605 0.929 . S
H618 C606 0.960 . S
H619 C606 0.962 . S
H620 C606 0.960 . S
H621 C607 0.961 . S
H622 C607 0.961 . S
H623 C607 0.961 . S
H624 C608 0.931 . S
H625 C613 0.930 . S
H626 C614 0.956 . S
H627 C614 0.961 . S
H628 C614 0.961 . S
H629 C615 0.958 . S
H630 C615 0.961 . S
H631 C615 0.960 . S
C632 C633 1.391 . S
C632 C634 1.394 . S
C632 H648 0.931 . S
C633 C632 1.391 . S
C633 C637 1.376 . S
C634 C632 1.394 . S
C634 C635 1.369 . S
C634 C638 1.531 . S
C635 C634 1.369 . S
C635 C636 1.410 . S
C635 C643 1.503 1_655 S
C636 C635 1.410 . S
C636 C637 1.392 . S
C636 C639 1.511 . S
C637 C633 1.376 . S
C637 C636 1.392 . S
C637 H649 0.929 . S
C638 C634 1.531 . S
C638 H650 0.962 . S
C638 H651 0.962 . S
C638 H652 0.960 . S
C639 C636 1.511 . S
C639 H653 0.961 . S
C639 H654 0.961 1_655 S
C639 H655 0.961 . S
C640 C641 1.370 . S
C640 C642 1.363 . S
C640 H656 0.931 . S
C641 C640 1.370 . S
C641 C645 1.408 . S
C642 C640 1.363 . S
C642 C643 1.370 . S
C642 C646 1.524 . S
C643 C635 1.503 1_455 S
C643 C642 1.370 . S
C643 C644 1.403 . S
C644 C643 1.403 . S
C644 C645 1.404 . S
C644 C647 1.539 . S
C645 C641 1.408 . S
C645 C644 1.404 . S
C645 H657 0.930 . S
C646 C642 1.524 . S
C646 H658 0.950 1_455 S
C646 H659 0.961 1_455 S
C646 H660 0.961 . S
C647 C644 1.539 . S
C647 H661 0.958 . S
C647 H662 0.961 . S
C647 H663 0.960 . S
H648 C632 0.931 . S
H649 C637 0.929 . S
H650 C638 0.962 . S
H651 C638 0.962 . S
H652 C638 0.960 . S
H653 C639 0.961 . S
H654 C639 0.961 1_455 S
H655 C639 0.961 . S
H656 C640 0.931 . S
H657 C645 0.930 . S
H658 C646 0.950 1_655 S
H659 C646 0.961 1_655 S
H660 C646 0.961 . S
H661 C647 0.958 . S
H662 C647 0.961 . S
H663 C647 0.960 . S
C664 C665 1.391 . S
C664 C666 1.394 . S
C664 H680 0.931 . S
C665 C664 1.391 . S
C665 C669 1.376 . S
C666 C664 1.394 . S
C666 C667 1.369 . S
C666 C670 1.531 . S
C667 C666 1.369 . S
C667 C668 1.410 . S
C667 C675 1.503 . S
C668 C667 1.410 . S
C668 C669 1.392 . S
C668 C671 1.511 . S
C669 C665 1.376 . S
C669 C668 1.392 . S
C669 H681 0.929 . S
C670 C666 1.531 . S
C670 H682 0.960 . S
C670 H683 0.962 . S
C670 H684 0.960 . S
C671 C668 1.511 . S
C671 H685 0.961 . S
C671 H686 0.961 . S
C671 H687 0.961 . S
C672 C673 1.370 . S
C672 C674 1.363 . S
C672 H688 0.931 . S
C673 C672 1.370 . S
C673 C677 1.408 . S
C674 C672 1.363 . S
C674 C675 1.370 . S
C674 C678 1.524 . S
C675 C667 1.503 . S
C675 C674 1.370 . S
C675 C676 1.403 . S
C676 C675 1.403 . S
C676 C677 1.404 . S
C676 C679 1.539 . S
C677 C673 1.408 . S
C677 C676 1.404 . S
C677 H689 0.930 . S
C678 C674 1.524 . S
C678 H690 0.956 . S
C678 H691 0.961 . S
C678 H692 0.961 . S
C679 C676 1.539 . S
C679 H693 0.958 . S
C679 H694 0.961 . S
C679 H695 0.960 . S
H680 C664 0.931 . S
H681 C669 0.929 . S
H682 C670 0.960 . S
H683 C670 0.962 . S
H684 C670 0.960 . S
H685 C671 0.961 . S
H686 C671 0.961 . S
H687 C671 0.961 . S
H688 C672 0.931 . S
H689 C677 0.930 . S
H690 C678 0.956 . S
H691 C678 0.961 . S
H692 C678 0.961 . S
H693 C679 0.958 . S
H694 C679 0.961 . S
H695 C679 0.960 . S
C696 C697 1.391 . S
C696 C698 1.394 . S
C696 H712 0.931 . S
C697 C696 1.391 . S
C697 C701 1.376 . S
C698 C696 1.394 . S
C698 C699 1.369 . S
C698 C702 1.531 . S
C699 C698 1.369 . S
C699 C700 1.410 . S
C699 C707 1.503 . S
C700 C699 1.410 . S
C700 C701 1.392 . S
C700 C703 1.511 . S
C701 C697 1.376 . S
C701 C700 1.392 . S
C701 H713 0.929 . S
C702 C698 1.531 . S
C702 H714 0.960 . S
C702 H715 0.962 . S
C702 H716 0.960 . S
C703 C700 1.511 . S
C703 H717 0.961 . S
C703 H718 0.961 . S
C703 H719 0.961 . S
C704 C705 1.370 . S
C704 C706 1.363 . S
C704 H720 0.931 . S
C705 C704 1.370 . S
C705 C709 1.408 . S
C706 C704 1.363 . S
C706 C707 1.370 . S
C706 C710 1.524 . S
C707 C699 1.503 . S
C707 C706 1.370 . S
C707 C708 1.403 . S
C708 C707 1.403 . S
C708 C709 1.404 . S
C708 C711 1.539 . S
C709 C705 1.408 . S
C709 C708 1.404 . S
C709 H721 0.930 . S
C710 C706 1.524 . S
C710 H722 0.956 . S
C710 H723 0.961 . S
C710 H724 0.961 . S
C711 C708 1.539 . S
C711 H725 0.958 . S
C711 H726 0.961 . S
C711 H727 0.960 . S
H712 C696 0.931 . S
H713 C701 0.929 . S
H714 C702 0.960 . S
H715 C702 0.962 . S
H716 C702 0.960 . S
H717 C703 0.961 . S
H718 C703 0.961 . S
H719 C703 0.961 . S
H720 C704 0.931 . S
H721 C709 0.930 . S
H722 C710 0.956 . S
H723 C710 0.961 . S
H724 C710 0.961 . S
H725 C711 0.958 . S
H726 C711 0.961 . S
H727 C711 0.960 . S
C217 C13 2.124 . S
C225 C76 2.144 . S
C249 C113 2.115 . S
C257 C67 2.145 . S
C281 C140 2.108 . S
C289 C167 2.149 . S
C313 C22 2.115 . S
C321 C194 2.146 . S
C345 C175 2.154 . S
C353 C5 2.131 . S
C377 C86 2.150 . S
C385 C130 2.131 . S
C409 C121 2.144 . S
C417 C184 2.136 . S
C441 C32 2.110 . S
C449 C59 2.148 . S
C473 C28 0.262 . S
C481 C35 0.239 . S
C505 C82 0.274 . S
C513 C89 0.240 . S
C537 C136 0.265 . S
C545 C143 0.243 . S
C569 C197 0.271 . S
C577 C190 0.235 . S
C601 C81 1.916 1_645 S
C609 C64 1.906 1_455 S
C633 C135 1.909 . S
C641 C118 1.906 . S
C665 C189 1.915 . S
C673 C172 1.904 1_565 S
C697 C10 1.904 . S
C705 C27 1.908 . S
