# Generated by pormake.
# Topology qtz-e, (6)-cn, num edge types: 1
# Building blocks:
#     Node 0, Type 0, BuildingBlock: BETDIP_clean_sbu_0, # of connection points: 6
#     Node 1, Type 0, BuildingBlock: BETDIP_clean_sbu_0, # of connection points: 6
#     Node 2, Type 0, BuildingBlock: BETDIP_clean_sbu_0, # of connection points: 6
#     Node 3, Type 0, BuildingBlock: BETDIP_clean_sbu_0, # of connection points: 6
#     Node 4, Type 0, BuildingBlock: BETDIP_clean_sbu_0, # of connection points: 6
#     Node 5, Type 0, BuildingBlock: BETDIP_clean_sbu_0, # of connection points: 6
#     Edge 6, Type (0, 0), BuildingBlock: AJUNOK_clean_linker_0, # of connection points: 2
#     Edge 7, Type (0, 0), BuildingBlock: AJUNOK_clean_linker_0, # of connection points: 2
#     Edge 8, Type (0, 0), BuildingBlock: AJUNOK_clean_linker_0, # of connection points: 2
#     Edge 9, Type (0, 0), BuildingBlock: AJUNOK_clean_linker_0, # of connection points: 2
#     Edge 10, Type (0, 0), BuildingBlock: AJUNOK_clean_linker_0, # of connection points: 2
#     Edge 11, Type (0, 0), BuildingBlock: AJUNOK_clean_linker_0, # of connection points: 2
#     Edge 12, Type (0, 0), BuildingBlock: AJUNOK_clean_linker_0, # of connection points: 2
#     Edge 13, Type (0, 0), BuildingBlock: AJUNOK_clean_linker_0, # of connection points: 2
#     Edge 14, Type (0, 0), BuildingBlock: AJUNOK_clean_linker_0, # of connection points: 2
#     Edge 15, Type (0, 0), BuildingBlock: AJUNOK_clean_linker_0, # of connection points: 2
#     Edge 16, Type (0, 0), BuildingBlock: AJUNOK_clean_linker_0, # of connection points: 2
#     Edge 17, Type (0, 0), BuildingBlock: AJUNOK_clean_linker_0, # of connection points: 2
#     Edge 18, Type (0, 0), BuildingBlock: AJUNOK_clean_linker_0, # of connection points: 2
#     Edge 19, Type (0, 0), BuildingBlock: AJUNOK_clean_linker_0, # of connection points: 2
#     Edge 20, Type (0, 0), BuildingBlock: AJUNOK_clean_linker_0, # of connection points: 2
#     Edge 21, Type (0, 0), BuildingBlock: AJUNOK_clean_linker_0, # of connection points: 2
#     Edge 22, Type (0, 0), BuildingBlock: AJUNOK_clean_linker_0, # of connection points: 2
#     Edge 23, Type (0, 0), BuildingBlock: AJUNOK_clean_linker_0, # of connection points: 2
# Relax obj value: 0.106
# Max RMSD: 0.196
# Mean RMSD: 0.196
data_MOF--net-qtz-e--node1-BETDIP_clean_sbu_0--edge1-AJUNOK_clean_linker_0
_symmetry_space_group_name_H-M    P1
_symmetry_Int_Tables_number       1
_symmetry_cell_setting            triclinic
loop_
_symmetry_equiv_pos_as_xyz
'x, y, z'
_cell_length_a     18.911397
_cell_length_b     19.025087
_cell_length_c     41.370831
_cell_angle_alpha  90.143508
_cell_angle_beta   90.330187
_cell_angle_gamma 118.67679
loop_
_atom_site_label
_atom_site_type_symbol
_atom_site_fract_x
_atom_site_fract_y
_atom_site_fract_z
_atom_type_partial_charge
Tb0 Tb 0.20441 0.47611 0.11114 0.0
Tb1 Tb 0.14185 0.32016 0.07673 0.0
C2 C 0.24475 0.61082 0.13552 0.0
C3 C 0.25447 0.63258 0.16985 0.0
C4 C 0.22956 0.68617 0.18163 0.0
C5 C 0.22602 0.69635 0.21494 0.0
C6 C 0.24702 0.65272 0.23681 0.0
C7 C 0.27413 0.60098 0.22481 0.0
C8 C 0.27775 0.59089 0.19166 0.0
C9 C 0.30503 0.41697 0.11097 0.0
C10 C 0.11993 0.32253 0.15376 0.0
C11 C 0.11843 0.19488 0.04713 0.0
C12 C 0.14847 0.18503 1.01518 0.0
C13 C 0.2236 0.24371 1.00383 0.0
C14 C 0.24988 0.23772 0.97289 0.0
C15 C 0.20241 0.17241 0.9524 0.0
C16 C 0.12685 0.11373 0.96371 0.0
C17 C 0.10022 0.12 0.99478 0.0
C18 C 0.04592 0.3863 0.0774 0.0
C19 C 0.22546 0.47265 1.03623 0.0
O20 O 0.17095 0.56061 0.12689 0.0
O21 O 0.29666 0.59072 0.12377 0.0
O22 O 0.26109 0.41562 0.08767 0.0
O23 O 0.28894 0.44823 0.13569 0.0
O24 O 0.14546 0.40047 0.15217 0.0
O25 O 0.11616 0.27919 0.12774 0.0
O26 O 0.17246 0.22842 0.07022 0.0
O27 O 0.06795 0.22356 0.0462 0.0
O28 O 0.08853 0.38282 0.09986 0.0
O29 O 0.05395 0.34908 0.05265 0.0
O30 O 0.2183 0.40118 0.04043 0.0
O31 O 0.21015 0.50975 0.05996 0.0
H32 H 0.21004 0.71772 0.16513 0.0
H33 H 0.20509 0.73689 0.22361 0.0
H34 H 0.28934 0.56573 0.24102 0.0
H35 H 0.29563 0.54793 0.18316 0.0
H36 H 0.26189 0.29498 1.01876 0.0
H37 H 0.30724 0.28516 0.9648 0.0
H38 H 0.08855 0.06273 0.94862 0.0
H39 H 0.0416 0.07437 1.00276 0.0
Tb40 Tb 0.69297 0.21041 0.43774 0.0
Tb41 Tb 0.8069 0.15321 0.41337 0.0
C42 C 0.58308 0.22193 0.46663 0.0
C43 C 0.57155 0.23321 0.5012 0.0
C44 C 0.53922 0.16746 0.52223 0.0
C45 C 0.53043 0.17846 0.55495 0.0
C46 C 0.55355 0.25527 0.56739 0.0
C47 C 0.58665 0.32131 0.54666 0.0
C48 C 0.59528 0.31033 0.51376 0.0
C49 C 0.83997 0.32177 0.43368 0.0
C50 C 0.76776 0.1271 0.48645 0.0
C51 C 0.91589 0.14501 0.38139 0.0
C52 C 0.94635 0.16727 0.34775 0.0
C53 C 0.97542 0.24592 0.33633 0.0
C54 C 0.00378 0.26583 0.30465 0.0
C55 C 0.00349 0.20772 0.28345 0.0
C56 C 0.9731 0.12878 0.29458 0.0
C57 C 0.94528 0.10892 0.32645 0.0
C58 C 0.65116 0.05053 0.41105 0.0
C59 C 0.73689 0.23595 0.36527 0.0
O60 O 0.57815 0.15305 0.45842 0.0
O61 O 0.64333 0.2825 0.45263 0.0
O62 O 0.81957 0.25158 0.44344 0.0
O63 O 0.77803 0.33204 0.42913 0.0
O64 O 0.71529 0.15361 0.48059 0.0
O65 O 0.81691 0.12716 0.46375 0.0
O66 O 0.92957 0.20343 0.40162 0.0
O67 O 0.84288 0.08524 0.38423 0.0
O68 O 0.68555 0.12316 0.40563 0.0
O69 O 0.70538 0.02879 0.41691 0.0
O70 O 0.79843 0.22488 0.3736 0.0
O71 O 0.67812 0.22165 0.38588 0.0
H72 H 0.52046 0.10731 0.51347 0.0
H73 H 0.50442 0.1266 0.57059 0.0
H74 H 0.60353 0.38083 0.55571 0.0
H75 H 0.6202 0.36216 0.49812 0.0
H76 H 0.97625 0.29228 0.35183 0.0
H77 H 0.02577 0.32691 0.29661 0.0
H78 H 0.97206 0.08277 0.27881 0.0
H79 H 0.92286 0.04777 0.33447 0.0
Tb80 Tb 0.47027 0.71485 0.77255 0.0
Tb81 Tb 0.63752 0.81635 0.74489 0.0
C82 C 0.34681 0.63591 0.80575 0.0
C83 C 0.33189 0.61492 0.8399 0.0
C84 C 0.25852 0.55027 0.84932 0.0
C85 C 0.24204 0.53342 0.88209 0.0
C86 C 0.2992 0.58091 0.90546 0.0
C87 C 0.37256 0.64524 0.89607 0.0
C88 C 0.38848 0.66268 0.86348 0.0
C89 C 0.50174 0.85716 0.75141 0.0
C90 C 0.62787 0.78968 0.82002 0.0
C91 C 0.75267 0.9329 0.71777 0.0
C92 C 0.76606 0.96185 0.68367 0.0
C93 C 0.77889 0.03955 0.67704 0.0
C94 C 0.78263 0.06582 0.64511 0.0
C95 C 0.77416 0.01534 0.61877 0.0
C96 C 0.76307 0.93802 0.62537 0.0
C97 C 0.75905 0.9116 0.65741 0.0
C98 C 0.58388 0.65918 0.74606 0.0
C99 C 0.48967 0.71357 0.69906 0.0
O100 O 0.38162 0.60238 0.78907 0.0
O101 O 0.37759 0.71255 0.80007 0.0
O102 O 0.54884 0.84009 0.76705 0.0
O103 O 0.43593 0.79171 0.74571 0.0
O104 O 0.54861 0.74543 0.81571 0.0
O105 O 0.6773 0.82623 0.79554 0.0
O106 O 0.69387 0.93772 0.7324 0.0
O107 O 0.75351 0.86573 0.72447 0.0
O108 O 0.57373 0.70212 0.76641 0.0
O109 O 0.63108 0.70587 0.72374 0.0
O110 O 0.55642 0.78244 0.70331 0.0
O111 O 0.44756 0.66861 0.72348 0.0
H112 H 0.21396 0.51345 0.8314 0.0
H113 H 0.18551 0.4828 0.8892 0.0
H114 H 0.41737 0.68186 0.91397 0.0
H115 H 0.44445 0.71423 0.85689 0.0
H116 H 0.78409 0.07958 0.69668 0.0
H117 H 0.79165 0.12578 0.64102 0.0
H118 H 0.75502 0.89699 0.60576 0.0
H119 H 0.74859 0.85125 0.66159 0.0
Tb120 Tb 0.76532 0.50022 0.10958 0.0
Tb121 Tb 0.80622 0.65575 0.07951 0.0
C122 C 0.74337 0.36824 0.13098 0.0
C123 C 0.73972 0.34329 0.16466 0.0
C124 C 0.78234 0.40079 0.18866 0.0
C125 C 0.77427 0.3792 0.22103 0.0
C126 C 0.72335 0.29978 0.22996 0.0
C127 C 0.68065 0.24192 0.20604 0.0
C128 C 0.68865 0.26372 0.17348 0.0
C129 C 0.64857 0.53687 0.1131 0.0
C130 C 0.83171 0.6492 0.15609 0.0
C131 C 0.81335 0.77642 0.05164 0.0
C132 C 0.78944 0.7861 1.01796 0.0
C133 C 0.70845 0.76169 1.00993 0.0
C134 C 0.68512 0.76452 0.97788 0.0
C135 C 0.74205 0.79233 0.95281 0.0
C136 C 0.82354 0.8199 0.96094 0.0
C137 C 0.84688 0.8166 0.99304 0.0
C138 C 0.91997 0.6108 0.07894 0.0
C139 C 0.74675 0.51064 1.03413 0.0
O140 O 0.81341 0.4248 0.12149 0.0
O141 O 0.68447 0.38142 0.122 0.0
O142 O 0.69323 0.5485 0.08874 0.0
O143 O 0.67457 0.51083 0.13662 0.0
O144 O 0.82006 0.57547 0.15174 0.0
O145 O 0.82536 0.69157 0.13161 0.0
O146 O 0.75533 0.73137 0.07148 0.0
O147 O 0.87494 0.76315 0.0543 0.0
O148 O 0.87343 0.60526 0.10115 0.0
O149 O 0.90445 0.64432 0.05477 0.0
O150 O 0.74406 0.57716 0.03972 0.0
O151 O 0.76266 0.47311 0.05755 0.0
H152 H 0.82175 0.46261 0.18251 0.0
H153 H 0.80867 0.42437 0.23909 0.0
H154 H 0.64095 0.1802 0.21259 0.0
H155 H 0.65444 0.21889 0.15529 0.0
H156 H 0.66258 0.73924 1.02835 0.0
H157 H 0.62208 0.74455 0.9727 0.0
H158 H 0.86902 0.84186 0.9423 0.0
H159 H 0.9099 0.83655 0.99822 0.0
Tb160 Tb 0.24861 0.72806 0.44712 0.0
Tb161 Tb 0.14777 0.79235 0.41417 0.0
C162 C 0.3531 0.69425 0.46774 0.0
C163 C 0.37317 0.67614 0.49983 0.0
C164 C 0.44835 0.72889 0.51328 0.0
C165 C 0.46531 0.72116 0.54536 0.0
C166 C 0.40833 0.65878 0.5644 0.0
C167 C 0.33397 0.60397 0.55059 0.0
C168 C 0.31625 0.61279 0.51852 0.0
C169 C 0.09328 0.63724 0.45402 0.0
C170 C 0.18898 0.82561 0.49006 0.0
C171 C 0.04318 0.81711 0.3862 0.0
C172 C 0.00757 0.79528 0.35292 0.0
C173 C -0.01608 0.7188 0.33981 0.0
C174 C 0.9535 0.6993 0.30815 0.0
C175 C 0.94466 0.75521 0.2886 0.0
C176 C 0.96915 0.83214 0.30157 0.0
C177 C 9e-05 0.85183 0.33334 0.0
C178 C 0.30528 0.86974 0.40457 0.0
C179 C 0.20024 0.69082 0.3726 0.0
O180 O 0.36542 0.76776 0.46455 0.0
O181 O 0.28499 0.64118 0.45456 0.0
O182 O 0.12877 0.67687 0.4293 0.0
O183 O 0.14669 0.65087 0.47634 0.0
O184 O 0.24047 0.79754 0.48696 0.0
O185 O 0.14407 0.82701 0.46528 0.0
O186 O 0.02546 0.75788 0.40638 0.0
O187 O 0.11954 0.87074 0.38798 0.0
O188 O 0.2696 0.83949 0.43027 0.0
O189 O 0.2531 0.86723 0.38365 0.0
O190 O 0.14184 0.70818 0.3779 0.0
O191 O 0.25374 0.70142 0.39546 0.0
H192 H 0.49264 0.77866 0.49938 0.0
H193 H 0.52189 0.76636 0.55557 0.0
H194 H 0.28893 0.55563 0.56479 0.0
H195 H 0.25733 0.57163 0.50877 0.0
H196 H -0.01045 0.67388 0.35395 0.0
H197 H 0.93767 0.64028 0.29884 0.0
H198 H 0.9635 0.87683 0.28727 0.0
H199 H 0.01838 0.91147 0.34261 0.0
Tb200 Tb 0.47829 0.27485 0.77676 0.0
Tb201 Tb 0.31959 0.16205 0.74499 0.0
C202 C 0.60565 0.38629 0.79972 0.0
C203 C 0.63746 0.40309 0.83306 0.0
C204 C 0.65473 0.47631 0.84753 0.0
C205 C 0.67783 0.49082 0.87998 0.0
C206 C 0.68544 0.43287 0.89854 0.0
C207 C 0.66817 0.35949 0.88404 0.0
C208 C 0.64416 0.34458 0.8516 0.0
C209 C 0.44394 0.12348 0.77742 0.0
C210 C 0.32724 0.18733 0.8219 0.0
C211 C 0.20115 0.0516 0.71564 0.0
C212 C 0.19527 0.01684 0.68271 0.0
C213 C 0.26089 0.01156 0.66949 0.0
C214 C 0.25662 -0.01874 0.63822 0.0
C215 C 0.18638 0.95473 0.61918 0.0
C216 C 0.12118 0.96164 0.63207 0.0
C217 C 0.12557 -0.00776 0.66352 0.0
C218 C 0.36361 0.31748 0.74439 0.0
C219 C 0.46785 0.2462 0.7015 0.0
O220 O 0.5402 0.39206 0.79495 0.0
O221 O 0.60231 0.32319 0.78547 0.0
O222 O 0.42954 0.15882 0.75465 0.0
O223 O 0.47971 0.17435 0.80059 0.0
O224 O 0.40198 0.24633 0.81888 0.0
O225 O 0.28385 0.14413 0.7966 0.0
O226 O 0.24486 0.0386 0.73714 0.0
O227 O 0.215 0.1259 0.71652 0.0
O228 O 0.37031 0.27731 0.76684 0.0
O229 O 0.3282 0.26922 0.7204 0.0
O230 O 0.40434 0.17724 0.70784 0.0
O231 O 0.50401 0.30015 0.72469 0.0
H232 H 0.64833 0.52159 0.83392 0.0
H233 H 0.68812 0.54695 0.89071 0.0
H234 H 0.67308 0.31362 0.89778 0.0
H235 H 0.62973 0.28683 0.84126 0.0
H236 H 0.31605 0.03139 0.68321 0.0
H237 H 0.30878 0.97882 0.62885 0.0
H238 H 0.06629 0.94204 0.61805 0.0
H239 H 0.07442 -0.00339 0.67287 0.0
C240 C 0.15006 0.65669 0.31595 0.0
C241 C 0.2097 0.66875 0.33916 0.0
C242 C 0.16258 0.65095 0.28305 0.0
C243 C 0.23521 0.65685 0.27195 0.0
H244 H 0.09377 0.65385 0.32301 0.0
H245 H 0.11507 0.64243 0.26615 0.0
S246 S 0.40761 0.67997 0.32266 0.0
N247 N 0.34118 0.67845 0.34874 0.0
N248 N 0.36597 0.6706 0.28664 0.0
C249 C 0.29392 0.6649 0.29485 0.0
C250 C 0.28077 0.66992 0.32852 0.0
C251 C 0.43444 0.21631 0.6437 0.0
C252 C 0.49312 0.26016 0.66741 0.0
C253 C 0.45478 0.21767 0.61139 0.0
C254 C 0.53456 0.26361 0.60125 0.0
H255 H 0.37191 0.17889 0.65016 0.0
H256 H 0.40776 0.18104 0.59424 0.0
S257 S 0.70975 0.39628 0.6527 0.0
N258 N 0.63349 0.35613 0.67812 0.0
N259 N 0.67213 0.35926 0.6166 0.0
C260 C 0.59344 0.31185 0.62412 0.0
C261 C 0.57258 0.31014 0.65743 0.0
C262 C 0.2145 0.54966 0.9898 0.0
C263 C 0.25217 0.50981 1.00459 0.0
C264 C 0.23029 0.57353 0.95744 0.0
C265 C 0.28531 0.55955 0.9396 0.0
H266 H 0.16995 0.55888 1.00275 0.0
H267 H 0.1987 0.60192 0.94618 0.0
S268 S 0.40442 0.46403 0.96807 0.0
N269 N 0.3491 0.46059 0.99936 0.0
N270 N 0.38065 0.50853 0.93906 0.0
C271 C 0.32576 0.52314 0.95452 0.0
C272 C 0.30867 0.49742 0.987 0.0
C273 C 0.70193 0.30262 0.32084 0.0
C274 C 0.72733 0.24791 0.33087 0.0
C275 C 0.69874 0.31793 0.28788 0.0
C276 C 0.71904 0.27748 0.2642 0.0
H277 H 0.68715 0.33555 0.33853 0.0
H278 H 0.6813 0.36229 0.28083 0.0
S279 S 0.78236 0.12363 0.2782 0.0
N280 N 0.76823 0.1496 0.31471 0.0
N281 N 0.76189 0.17845 0.25288 0.0
C282 C 0.74145 0.22051 0.27397 0.0
C283 C 0.7457 0.2057 0.30735 0.0
C284 C 0.3862 0.66208 0.65517 0.0
C285 C 0.46515 0.68638 0.66578 0.0
C286 C 0.36638 0.64819 0.62223 0.0
C287 C 0.42465 0.65646 0.59927 0.0
H288 H 0.34109 0.65869 0.67205 0.0
H289 H 0.30652 0.63546 0.61457 0.0
S290 S 0.63526 0.70259 0.61644 0.0
N291 N 0.5993 0.70983 0.65181 0.0
N292 N 0.56027 0.67686 0.59042 0.0
C293 C 0.50158 0.67325 0.61028 0.0
C294 C 0.52238 0.69019 0.64345 0.0
C295 C 0.68085 0.40899 0.99002 0.0
C296 C 0.74009 0.48515 1.00022 0.0
C297 C 0.66535 0.39105 0.95689 0.0
C298 C 0.70909 0.44867 0.93317 0.0
H299 H 0.64352 0.36482 1.00761 0.0
H300 H 0.61644 0.3331 0.94988 0.0
S301 S 0.87897 0.65263 0.94822 0.0
N302 N 0.8476 0.61568 0.98457 0.0
N303 N 0.82085 0.58122 0.92259 0.0
C304 C 0.7721 0.52305 0.94338 0.0
C305 C 0.78698 0.54146 0.97687 0.0
C306 C 0.42568 0.41084 0.12944 0.0
C307 C 0.38994 0.43846 0.1067 0.0
C308 C 0.50928 0.44336 0.13115 0.0
C309 C 0.56059 0.5051 0.11017 0.0
H310 H 0.38881 0.3657 0.14683 0.0
H311 H 0.5336 0.41999 0.1494 0.0
S312 S 0.49659 0.60141 0.04742 0.0
N313 N 0.41155 0.5337 0.06374 0.0
N314 N 0.56942 0.59266 0.0661 0.0
C315 C 0.52555 0.53233 0.08688 0.0
C316 C 0.44001 0.49962 0.08537 0.0
C317 C -0.00181 0.52717 0.4187 0.0
C318 C 0.02748 0.55524 0.45003 0.0
C319 C 0.94423 0.44684 0.4131 0.0
C320 C 0.91708 0.39207 0.43857 0.0
H321 H 0.01693 0.56729 0.39823 0.0
H322 H 0.91976 0.42824 0.3889 0.0
S323 S 0.97274 0.43436 0.52502 0.0
N324 N 0.02514 0.52159 0.50696 0.0
N325 N 0.92093 0.3696 0.4961 0.0
C326 C 0.94617 0.41827 0.4699 0.0
C327 C 0.00162 0.5004 0.47574 0.0
C328 C 0.42833 0.00845 0.74365 0.0
C329 C 0.45973 0.05579 0.77157 0.0
C330 C 0.44622 0.94689 0.73636 0.0
C331 C 0.49706 0.93126 0.75651 0.0
H332 H 0.38909 0.01857 0.72745 0.0
H333 H 0.4186 0.91002 0.71515 0.0
S334 S 0.59616 0.03878 0.83234 0.0
N335 N 0.54483 0.08322 0.81948 0.0
N336 N 0.57955 0.96838 0.80536 0.0
C337 C 0.53045 0.9792 0.78415 0.0
C338 C 0.5112 0.04107 0.79188 0.0
C339 C 0.48923 0.53132 0.772 0.0
C340 C 0.53101 0.57138 0.74409 0.0
C341 C 0.43207 0.45011 0.77117 0.0
C342 C 0.41508 0.40516 0.74249 0.0
H343 H 0.50065 0.56311 0.79484 0.0
H344 H 0.40227 0.42171 0.79345 0.0
S345 S 0.50957 0.48035 0.66278 0.0
N346 N 0.5529 0.55928 0.68697 0.0
N347 N 0.44463 0.40606 0.68532 0.0
C348 C 0.45608 0.44407 0.71425 0.0
C349 C 0.51494 0.52718 0.71516 0.0
C350 C -0.00286 0.47137 0.04821 0.0
C351 C 0.01246 0.44249 0.0773 0.0
C352 C 0.97058 0.52911 0.04845 0.0
C353 C 0.96016 0.5606 0.07778 0.0
H354 H 0.00572 0.44933 1.02521 0.0
H355 H 0.95631 0.54764 1.02569 0.0
S356 S -0.0062 0.50591 0.16032 0.0
N357 N 0.01131 0.44715 0.13603 0.0
N358 N 0.97214 0.56229 0.13636 0.0
C359 C 0.97847 0.53434 0.1068 0.0
C360 C 0.00104 0.47297 0.10661 0.0
C361 C 0.43263 -0.00452 0.39934 0.0
C362 C 0.39335 0.91207 0.40117 0.0
C363 C 0.51641 0.0391 0.40172 0.0
C364 C 0.5637 0.00098 0.4069 0.0
H365 H 0.39834 0.02741 0.39721 0.0
H366 H 0.5437 0.10351 0.40023 0.0
S367 S 0.49159 0.78324 0.40538 0.0
N368 N 0.40935 0.79236 0.40182 0.0
N369 N 0.56677 0.87542 0.40855 0.0
C370 C 0.52583 0.91763 0.40659 0.0
C371 C 0.44044 0.87286 0.40326 0.0
C372 C 0.21094 0.15137 0.86029 0.0
C373 C 0.29238 0.17302 0.85506 0.0
C374 C 0.18136 0.1487 0.89181 0.0
C375 C 0.23196 0.1671 0.91932 0.0
H376 H 0.17068 0.13986 0.83987 0.0
H377 H 0.11917 0.13512 0.89455 0.0
S378 S 0.4468 0.21456 0.91886 0.0
N379 N 0.42082 0.20496 0.88031 0.0
N380 N 0.36525 0.1981 0.93901 0.0
C381 C 0.31223 0.18411 0.91434 0.0
C382 C 0.34233 0.18749 0.88243 0.0
C383 C -0.01054 0.19179 0.22253 0.0
C384 C 0.03652 0.23068 0.2501 0.0
C385 C 0.01807 0.21851 0.19101 0.0
C386 C 0.0946 0.28496 0.18609 0.0
H387 H 0.92907 0.14241 0.22538 0.0
H388 H 0.9787 0.18942 0.17053 0.0
S389 S 0.246 0.39817 0.24983 0.0
N390 N 0.16681 0.3324 0.26998 0.0
N391 N 0.21991 0.38285 0.21124 0.0
C392 C 0.14347 0.32125 0.21339 0.0
C393 C 0.11466 0.29408 0.24523 0.0
C394 C 0.72665 0.07923 0.57655 0.0
C395 C 0.77393 0.04282 0.58474 0.0
C396 C 0.72514 0.10583 0.54495 0.0
C397 C 0.77139 0.09804 0.51991 0.0
H398 H 0.68957 0.08652 0.59469 0.0
H399 H 0.68723 0.13299 0.54026 0.0
S400 S 0.90772 0.00898 0.52888 0.0
N401 N 0.86964 0.00189 0.56529 0.0
N402 N 0.86705 0.05146 0.50607 0.0
C403 C 0.81941 0.06203 0.52785 0.0
C404 C 0.8205 0.03449 0.56009 0.0
C405 C 0.72721 0.85778 0.86617 0.0
C406 C 0.66054 0.78959 0.85307 0.0
C407 C 0.75418 0.85824 0.8982 0.0
C408 C 0.71569 0.79046 0.91831 0.0
H409 H 0.75741 0.91177 0.85191 0.0
H410 H 0.80439 0.91268 0.90752 0.0
S411 S 0.54735 0.5927 0.89367 0.0
N412 N 0.56277 0.64977 0.86169 0.0
N413 N 0.61326 0.65068 0.92119 0.0
C414 C 0.65141 0.72098 0.90488 0.0
C415 C 0.62398 0.72055 0.87251 0.0
C416 C 0.94751 0.78273 0.22822 0.0
C417 C 0.91003 0.73249 0.25493 0.0
C418 C 0.91957 0.75818 0.19617 0.0
C419 C 0.85321 0.6824 0.18965 0.0
H420 H 0.00077 0.84012 0.23197 0.0
H421 H 0.95245 0.79708 0.17637 0.0
S422 S 0.7258 0.53393 0.25089 0.0
N423 N 0.7966 0.60752 0.27239 0.0
N424 N 0.74585 0.56125 0.21276 0.0
C425 C 0.81291 0.63373 0.21619 0.0
C426 C 0.84075 0.65872 0.2486 0.0
C427 C 0.1564 0.94368 0.55875 0.0
C428 C 0.18137 0.91801 0.58648 0.0
C429 C 0.15685 0.91266 0.52765 0.0
C430 C 0.18233 0.85479 0.52308 0.0
H431 H 0.13847 -0.01035 0.56098 0.0
H432 H 0.13921 0.93577 0.50701 0.0
S433 S 0.24229 0.75935 0.58848 0.0
N434 N 0.22422 0.82534 0.6075 0.0
N435 N 0.22539 0.76756 0.54987 0.0
C436 C 0.20396 0.82633 0.55093 0.0
C437 C 0.20344 0.85774 0.58233 0.0
loop_
_geom_bond_atom_site_label_1
_geom_bond_atom_site_label_2
_geom_bond_distance
_geom_bond_site_symmetry_2
_ccdc_geom_bond_type
Tb0 C2 2.809 . S
Tb0 O20 2.484 . S
Tb0 O21 2.440 . S
Tb0 O22 2.658 . S
Tb0 O23 2.409 . S
Tb0 O24 2.378 . S
Tb0 O28 2.325 . S
Tb0 O31 2.341 . S
Tb1 C11 2.809 1_554 S
Tb1 O22 2.325 . S
Tb1 O25 2.341 . S
Tb1 O26 2.484 1_554 S
Tb1 O27 2.440 1_554 S
Tb1 O28 2.658 . S
Tb1 O29 2.409 . S
Tb1 O30 2.376 . S
C2 Tb0 2.809 . S
C2 C3 1.514 . S
C2 O20 1.248 . S
C2 O21 1.266 . S
C3 C2 1.514 . S
C3 C4 1.359 . S
C3 C8 1.348 . S
C4 C3 1.359 . S
C4 C5 1.380 . S
C4 H32 0.929 . S
C5 C4 1.380 . S
C5 C6 1.347 . S
C5 H33 0.931 . S
C6 C5 1.347 . S
C6 C7 1.369 . S
C7 C6 1.369 . S
C7 C8 1.408 . S
C7 H34 0.930 . S
C8 C3 1.348 . S
C8 C7 1.408 . S
C8 H35 0.930 . S
C9 O22 1.281 . S
C9 O23 1.254 . S
C10 O24 1.236 . S
C10 O25 1.266 . S
C11 Tb1 2.809 1_556 S
C11 C12 1.514 . S
C11 O26 1.248 . S
C11 O27 1.266 . S
C12 C11 1.514 . S
C12 C13 1.359 . S
C12 C17 1.348 . S
C13 C12 1.359 . S
C13 C14 1.380 . S
C13 H36 0.929 . S
C14 C13 1.380 . S
C14 C15 1.347 . S
C14 H37 0.931 . S
C15 C14 1.347 . S
C15 C16 1.369 . S
C16 C15 1.369 . S
C16 C17 1.408 . S
C16 H38 0.930 . S
C17 C12 1.348 . S
C17 C16 1.408 . S
C17 H39 0.930 . S
C18 O28 1.281 . S
C18 O29 1.254 . S
C19 O30 1.236 . S
C19 O31 1.283 . S
O20 Tb0 2.484 . S
O20 C2 1.248 . S
O21 Tb0 2.440 . S
O21 C2 1.266 . S
O22 Tb0 2.658 . S
O22 Tb1 2.325 . S
O22 C9 1.281 . S
O23 Tb0 2.409 . S
O23 C9 1.254 . S
O24 Tb0 2.378 . S
O24 C10 1.236 . S
O25 Tb1 2.341 . S
O25 C10 1.266 . S
O26 Tb1 2.484 1_556 S
O26 C11 1.248 . S
O27 Tb1 2.440 1_556 S
O27 C11 1.266 . S
O28 Tb0 2.325 . S
O28 Tb1 2.658 . S
O28 C18 1.281 . S
O29 Tb1 2.409 . S
O29 C18 1.254 . S
O30 Tb1 2.376 . S
O30 C19 1.236 . S
O31 Tb0 2.341 . S
O31 C19 1.283 . S
H32 C4 0.929 . S
H33 C5 0.931 . S
H34 C7 0.930 . S
H35 C8 0.930 . S
H36 C13 0.929 . S
H37 C14 0.931 . S
H38 C16 0.930 . S
H39 C17 0.930 . S
Tb40 C42 2.809 . S
Tb40 O60 2.484 . S
Tb40 O61 2.440 . S
Tb40 O62 2.658 . S
Tb40 O63 2.409 . S
Tb40 O64 2.378 . S
Tb40 O68 2.325 . S
Tb40 O71 2.341 . S
Tb41 C51 2.809 . S
Tb41 O62 2.325 . S
Tb41 O65 2.341 . S
Tb41 O66 2.484 . S
Tb41 O67 2.440 . S
Tb41 O68 2.658 . S
Tb41 O69 2.409 . S
Tb41 O70 2.378 . S
C42 Tb40 2.809 . S
C42 C43 1.514 . S
C42 O60 1.248 . S
C42 O61 1.266 . S
C43 C42 1.514 . S
C43 C44 1.359 . S
C43 C48 1.348 . S
C44 C43 1.359 . S
C44 C45 1.380 . S
C44 H72 0.929 . S
C45 C44 1.380 . S
C45 C46 1.347 . S
C45 H73 0.931 . S
C46 C45 1.347 . S
C46 C47 1.369 . S
C47 C46 1.369 . S
C47 C48 1.408 . S
C47 H74 0.930 . S
C48 C43 1.348 . S
C48 C47 1.408 . S
C48 H75 0.930 . S
C49 O62 1.281 . S
C49 O63 1.254 . S
C50 O64 1.236 . S
C50 O65 1.266 . S
C51 Tb41 2.809 . S
C51 C52 1.514 . S
C51 O66 1.248 . S
C51 O67 1.266 . S
C52 C51 1.514 . S
C52 C53 1.359 1_655 S
C52 C57 1.348 . S
C53 C52 1.359 1_455 S
C53 C54 1.380 . S
C53 H76 0.929 . S
C54 C53 1.380 . S
C54 C55 1.347 . S
C54 H77 0.931 . S
C55 C54 1.347 . S
C55 C56 1.369 1_455 S
C56 C55 1.369 1_655 S
C56 C57 1.408 . S
C56 H78 0.930 . S
C57 C52 1.348 . S
C57 C56 1.408 . S
C57 H79 0.930 . S
C58 O68 1.281 . S
C58 O69 1.254 . S
C59 O70 1.236 . S
C59 O71 1.266 . S
O60 Tb40 2.484 . S
O60 C42 1.248 . S
O61 Tb40 2.440 . S
O61 C42 1.266 . S
O62 Tb40 2.658 . S
O62 Tb41 2.325 . S
O62 C49 1.281 . S
O63 Tb40 2.409 . S
O63 C49 1.254 . S
O64 Tb40 2.378 . S
O64 C50 1.236 . S
O65 Tb41 2.341 . S
O65 C50 1.266 . S
O66 Tb41 2.484 . S
O66 C51 1.248 . S
O67 Tb41 2.440 . S
O67 C51 1.266 . S
O68 Tb40 2.325 . S
O68 Tb41 2.658 . S
O68 C58 1.281 . S
O69 Tb41 2.409 . S
O69 C58 1.254 . S
O70 Tb41 2.378 . S
O70 C59 1.236 . S
O71 Tb40 2.341 . S
O71 C59 1.266 . S
H72 C44 0.929 . S
H73 C45 0.931 . S
H74 C47 0.930 . S
H75 C48 0.930 . S
H76 C53 0.929 . S
H77 C54 0.931 . S
H78 C56 0.930 . S
H79 C57 0.930 . S
Tb80 C82 2.809 . S
Tb80 O100 2.484 . S
Tb80 O101 2.440 . S
Tb80 O102 2.658 . S
Tb80 O103 2.409 . S
Tb80 O104 2.378 . S
Tb80 O108 2.325 . S
Tb80 O111 2.341 . S
Tb81 C91 2.809 . S
Tb81 O102 2.325 . S
Tb81 O105 2.341 . S
Tb81 O106 2.484 . S
Tb81 O107 2.440 . S
Tb81 O108 2.658 . S
Tb81 O109 2.409 . S
Tb81 O110 2.378 . S
C82 Tb80 2.809 . S
C82 C83 1.514 . S
C82 O100 1.248 . S
C82 O101 1.266 . S
C83 C82 1.514 . S
C83 C84 1.359 . S
C83 C88 1.348 . S
C84 C83 1.359 . S
C84 C85 1.380 . S
C84 H112 0.929 . S
C85 C84 1.380 . S
C85 C86 1.347 . S
C85 H113 0.931 . S
C86 C85 1.347 . S
C86 C87 1.369 . S
C87 C86 1.369 . S
C87 C88 1.408 . S
C87 H114 0.930 . S
C88 C83 1.348 . S
C88 C87 1.408 . S
C88 H115 0.930 . S
C89 O102 1.281 . S
C89 O103 1.254 . S
C90 O104 1.236 . S
C90 O105 1.266 . S
C91 Tb81 2.809 . S
C91 C92 1.514 . S
C91 O106 1.248 . S
C91 O107 1.266 . S
C92 C91 1.514 . S
C92 C93 1.359 1_565 S
C92 C97 1.348 . S
C93 C92 1.359 1_545 S
C93 C94 1.380 . S
C93 H116 0.929 . S
C94 C93 1.380 . S
C94 C95 1.347 . S
C94 H117 0.931 . S
C95 C94 1.347 . S
C95 C96 1.369 1_545 S
C96 C95 1.369 1_565 S
C96 C97 1.408 . S
C96 H118 0.930 . S
C97 C92 1.348 . S
C97 C96 1.408 . S
C97 H119 0.930 . S
C98 O108 1.281 . S
C98 O109 1.254 . S
C99 O110 1.236 . S
C99 O111 1.266 . S
O100 Tb80 2.484 . S
O100 C82 1.248 . S
O101 Tb80 2.440 . S
O101 C82 1.266 . S
O102 Tb80 2.658 . S
O102 Tb81 2.325 . S
O102 C89 1.281 . S
O103 Tb80 2.409 . S
O103 C89 1.254 . S
O104 Tb80 2.378 . S
O104 C90 1.236 . S
O105 Tb81 2.341 . S
O105 C90 1.266 . S
O106 Tb81 2.484 . S
O106 C91 1.248 . S
O107 Tb81 2.440 . S
O107 C91 1.266 . S
O108 Tb80 2.325 . S
O108 Tb81 2.658 . S
O108 C98 1.281 . S
O109 Tb81 2.409 . S
O109 C98 1.254 . S
O110 Tb81 2.378 . S
O110 C99 1.236 . S
O111 Tb80 2.341 . S
O111 C99 1.266 . S
H112 C84 0.929 . S
H113 C85 0.931 . S
H114 C87 0.930 . S
H115 C88 0.930 . S
H116 C93 0.929 . S
H117 C94 0.931 . S
H118 C96 0.930 . S
H119 C97 0.930 . S
Tb120 C122 2.809 . S
Tb120 O140 2.484 . S
Tb120 O141 2.440 . S
Tb120 O142 2.658 . S
Tb120 O143 2.409 . S
Tb120 O144 2.378 . S
Tb120 O148 2.325 . S
Tb120 O151 2.341 . S
Tb121 C131 2.809 1_554 S
Tb121 O142 2.325 . S
Tb121 O145 2.341 . S
Tb121 O146 2.484 1_554 S
Tb121 O147 2.440 1_554 S
Tb121 O148 2.658 . S
Tb121 O149 2.409 . S
Tb121 O150 2.376 . S
C122 Tb120 2.809 . S
C122 C123 1.514 . S
C122 O140 1.248 . S
C122 O141 1.266 . S
C123 C122 1.514 . S
C123 C124 1.359 . S
C123 C128 1.348 . S
C124 C123 1.359 . S
C124 C125 1.380 . S
C124 H152 0.929 . S
C125 C124 1.380 . S
C125 C126 1.347 . S
C125 H153 0.931 . S
C126 C125 1.347 . S
C126 C127 1.369 . S
C127 C126 1.369 . S
C127 C128 1.408 . S
C127 H154 0.930 . S
C128 C123 1.348 . S
C128 C127 1.408 . S
C128 H155 0.930 . S
C129 O142 1.281 . S
C129 O143 1.254 . S
C130 O144 1.236 . S
C130 O145 1.266 . S
C131 Tb121 2.809 1_556 S
C131 C132 1.514 . S
C131 O146 1.248 . S
C131 O147 1.266 . S
C132 C131 1.514 . S
C132 C133 1.359 . S
C132 C137 1.348 . S
C133 C132 1.359 . S
C133 C134 1.380 . S
C133 H156 0.929 . S
C134 C133 1.380 . S
C134 C135 1.347 . S
C134 H157 0.931 . S
C135 C134 1.347 . S
C135 C136 1.369 . S
C136 C135 1.369 . S
C136 C137 1.408 . S
C136 H158 0.930 . S
C137 C132 1.348 . S
C137 C136 1.408 . S
C137 H159 0.930 . S
C138 O148 1.281 . S
C138 O149 1.254 . S
C139 O150 1.236 . S
C139 O151 1.283 . S
O140 Tb120 2.484 . S
O140 C122 1.248 . S
O141 Tb120 2.440 . S
O141 C122 1.266 . S
O142 Tb120 2.658 . S
O142 Tb121 2.325 . S
O142 C129 1.281 . S
O143 Tb120 2.409 . S
O143 C129 1.254 . S
O144 Tb120 2.378 . S
O144 C130 1.236 . S
O145 Tb121 2.341 . S
O145 C130 1.266 . S
O146 Tb121 2.484 1_556 S
O146 C131 1.248 . S
O147 Tb121 2.440 1_556 S
O147 C131 1.266 . S
O148 Tb120 2.325 . S
O148 Tb121 2.658 . S
O148 C138 1.281 . S
O149 Tb121 2.409 . S
O149 C138 1.254 . S
O150 Tb121 2.376 . S
O150 C139 1.236 . S
O151 Tb120 2.341 . S
O151 C139 1.283 . S
H152 C124 0.929 . S
H153 C125 0.931 . S
H154 C127 0.930 . S
H155 C128 0.930 . S
H156 C133 0.929 . S
H157 C134 0.931 . S
H158 C136 0.930 . S
H159 C137 0.930 . S
Tb160 C162 2.809 . S
Tb160 O180 2.484 . S
Tb160 O181 2.440 . S
Tb160 O182 2.658 . S
Tb160 O183 2.409 . S
Tb160 O184 2.378 . S
Tb160 O188 2.325 . S
Tb160 O191 2.341 . S
Tb161 C171 2.809 . S
Tb161 O182 2.325 . S
Tb161 O185 2.341 . S
Tb161 O186 2.484 . S
Tb161 O187 2.440 . S
Tb161 O188 2.658 . S
Tb161 O189 2.409 . S
Tb161 O190 2.378 . S
C162 Tb160 2.809 . S
C162 C163 1.514 . S
C162 O180 1.248 . S
C162 O181 1.266 . S
C163 C162 1.514 . S
C163 C164 1.359 . S
C163 C168 1.348 . S
C164 C163 1.359 . S
C164 C165 1.380 . S
C164 H192 0.929 . S
C165 C164 1.380 . S
C165 C166 1.347 . S
C165 H193 0.931 . S
C166 C165 1.347 . S
C166 C167 1.369 . S
C167 C166 1.369 . S
C167 C168 1.408 . S
C167 H194 0.930 . S
C168 C163 1.348 . S
C168 C167 1.408 . S
C168 H195 0.930 . S
C169 O182 1.281 . S
C169 O183 1.254 . S
C170 O184 1.236 . S
C170 O185 1.266 . S
C171 Tb161 2.809 . S
C171 C172 1.514 . S
C171 O186 1.248 . S
C171 O187 1.266 . S
C172 C171 1.514 . S
C172 C173 1.359 1_455 S
C172 C177 1.348 . S
C173 C172 1.359 1_655 S
C173 C174 1.380 . S
C173 H196 0.929 . S
C174 C173 1.380 . S
C174 C175 1.347 . S
C174 H197 0.931 . S
C175 C174 1.347 . S
C175 C176 1.369 1_655 S
C176 C175 1.369 1_455 S
C176 C177 1.408 . S
C176 H198 0.930 . S
C177 C172 1.348 . S
C177 C176 1.408 . S
C177 H199 0.930 . S
C178 O188 1.281 . S
C178 O189 1.254 . S
C179 O190 1.236 . S
C179 O191 1.266 . S
O180 Tb160 2.484 . S
O180 C162 1.248 . S
O181 Tb160 2.440 . S
O181 C162 1.266 . S
O182 Tb160 2.658 . S
O182 Tb161 2.325 . S
O182 C169 1.281 . S
O183 Tb160 2.409 . S
O183 C169 1.254 . S
O184 Tb160 2.378 . S
O184 C170 1.236 . S
O185 Tb161 2.341 . S
O185 C170 1.266 . S
O186 Tb161 2.484 . S
O186 C171 1.248 . S
O187 Tb161 2.440 . S
O187 C171 1.266 . S
O188 Tb160 2.325 . S
O188 Tb161 2.658 . S
O188 C178 1.281 . S
O189 Tb161 2.409 . S
O189 C178 1.254 . S
O190 Tb161 2.378 . S
O190 C179 1.236 . S
O191 Tb160 2.341 . S
O191 C179 1.266 . S
H192 C164 0.929 . S
H193 C165 0.931 . S
H194 C167 0.930 . S
H195 C168 0.930 . S
H196 C173 0.929 . S
H197 C174 0.931 . S
H198 C176 0.930 . S
H199 C177 0.930 . S
Tb200 C202 2.809 . S
Tb200 O220 2.484 . S
Tb200 O221 2.440 . S
Tb200 O222 2.658 . S
Tb200 O223 2.409 . S
Tb200 O224 2.378 . S
Tb200 O228 2.325 . S
Tb200 O231 2.341 . S
Tb201 C211 2.809 . S
Tb201 O222 2.325 . S
Tb201 O225 2.341 . S
Tb201 O226 2.484 . S
Tb201 O227 2.440 . S
Tb201 O228 2.658 . S
Tb201 O229 2.409 . S
Tb201 O230 2.378 . S
C202 Tb200 2.809 . S
C202 C203 1.514 . S
C202 O220 1.248 . S
C202 O221 1.266 . S
C203 C202 1.514 . S
C203 C204 1.359 . S
C203 C208 1.348 . S
C204 C203 1.359 . S
C204 C205 1.380 . S
C204 H232 0.929 . S
C205 C204 1.380 . S
C205 C206 1.347 . S
C205 H233 0.931 . S
C206 C205 1.347 . S
C206 C207 1.369 . S
C207 C206 1.369 . S
C207 C208 1.408 . S
C207 H234 0.930 . S
C208 C203 1.348 . S
C208 C207 1.408 . S
C208 H235 0.930 . S
C209 O222 1.281 . S
C209 O223 1.254 . S
C210 O224 1.236 . S
C210 O225 1.266 . S
C211 Tb201 2.809 . S
C211 C212 1.514 . S
C211 O226 1.248 . S
C211 O227 1.266 . S
C212 C211 1.514 . S
C212 C213 1.359 1_545 S
C212 C217 1.348 . S
C213 C212 1.359 1_565 S
C213 C214 1.380 . S
C213 H236 0.929 . S
C214 C213 1.380 . S
C214 C215 1.347 . S
C214 H237 0.931 . S
C215 C214 1.347 . S
C215 C216 1.369 1_565 S
C216 C215 1.369 1_545 S
C216 C217 1.408 . S
C216 H238 0.930 . S
C217 C212 1.348 . S
C217 C216 1.408 . S
C217 H239 0.930 . S
C218 O228 1.281 . S
C218 O229 1.254 . S
C219 O230 1.236 . S
C219 O231 1.266 . S
O220 Tb200 2.484 . S
O220 C202 1.248 . S
O221 Tb200 2.440 . S
O221 C202 1.266 . S
O222 Tb200 2.658 . S
O222 Tb201 2.325 . S
O222 C209 1.281 . S
O223 Tb200 2.409 . S
O223 C209 1.254 . S
O224 Tb200 2.378 . S
O224 C210 1.236 . S
O225 Tb201 2.341 . S
O225 C210 1.266 . S
O226 Tb201 2.484 . S
O226 C211 1.248 . S
O227 Tb201 2.440 . S
O227 C211 1.266 . S
O228 Tb200 2.325 . S
O228 Tb201 2.658 . S
O228 C218 1.281 . S
O229 Tb201 2.409 . S
O229 C218 1.254 . S
O230 Tb201 2.378 . S
O230 C219 1.236 . S
O231 Tb200 2.341 . S
O231 C219 1.266 . S
H232 C204 0.929 . S
H233 C205 0.931 . S
H234 C207 0.930 . S
H235 C208 0.930 . S
H236 C213 0.929 . S
H237 C214 0.931 . S
H238 C216 0.930 . S
H239 C217 0.930 . S
C240 C241 1.369 . S
C240 C242 1.419 . S
C240 H244 0.930 . S
C241 C240 1.369 . S
C241 C250 1.429 . S
C242 C240 1.419 . S
C242 C243 1.363 . S
C242 H245 0.929 . S
C243 C242 1.363 . S
C243 C249 1.428 . S
H244 C240 0.930 . S
H245 C242 0.929 . S
S246 N247 1.613 . S
S246 N248 1.610 . S
N247 S246 1.613 . S
N247 C250 1.350 . S
N248 S246 1.610 . S
N248 C249 1.351 . S
C249 C243 1.428 . S
C249 N248 1.351 . S
C249 C250 1.434 . S
C250 C241 1.429 . S
C250 N247 1.350 . S
C250 C249 1.434 . S
C251 C252 1.369 . S
C251 C253 1.419 . S
C251 H255 0.930 . S
C252 C251 1.369 . S
C252 C261 1.429 . S
C253 C251 1.419 . S
C253 C254 1.363 . S
C253 H256 0.929 . S
C254 C253 1.363 . S
C254 C260 1.428 . S
H255 C251 0.930 . S
H256 C253 0.929 . S
S257 N258 1.613 . S
S257 N259 1.610 . S
N258 S257 1.613 . S
N258 C261 1.350 . S
N259 S257 1.610 . S
N259 C260 1.351 . S
C260 C254 1.428 . S
C260 N259 1.351 . S
C260 C261 1.434 . S
C261 C252 1.429 . S
C261 N258 1.350 . S
C261 C260 1.434 . S
C262 C263 1.369 . S
C262 C264 1.419 . S
C262 H266 0.930 . S
C263 C262 1.369 . S
C263 C272 1.429 . S
C264 C262 1.419 . S
C264 C265 1.363 . S
C264 H267 0.929 . S
C265 C264 1.363 . S
C265 C271 1.428 . S
H266 C262 0.930 . S
H267 C264 0.929 . S
S268 N269 1.613 . S
S268 N270 1.610 . S
N269 S268 1.613 . S
N269 C272 1.350 . S
N270 S268 1.610 . S
N270 C271 1.351 . S
C271 C265 1.428 . S
C271 N270 1.351 . S
C271 C272 1.434 . S
C272 C263 1.429 . S
C272 N269 1.350 . S
C272 C271 1.434 . S
C273 C274 1.369 . S
C273 C275 1.419 . S
C273 H277 0.930 . S
C274 C273 1.369 . S
C274 C283 1.429 . S
C275 C273 1.419 . S
C275 C276 1.363 . S
C275 H278 0.929 . S
C276 C275 1.363 . S
C276 C282 1.428 . S
H277 C273 0.930 . S
H278 C275 0.929 . S
S279 N280 1.613 . S
S279 N281 1.610 . S
N280 S279 1.613 . S
N280 C283 1.350 . S
N281 S279 1.610 . S
N281 C282 1.351 . S
C282 C276 1.428 . S
C282 N281 1.351 . S
C282 C283 1.434 . S
C283 C274 1.429 . S
C283 N280 1.350 . S
C283 C282 1.434 . S
C284 C285 1.369 . S
C284 C286 1.419 . S
C284 H288 0.930 . S
C285 C284 1.369 . S
C285 C294 1.429 . S
C286 C284 1.419 . S
C286 C287 1.363 . S
C286 H289 0.929 . S
C287 C286 1.363 . S
C287 C293 1.428 . S
H288 C284 0.930 . S
H289 C286 0.929 . S
S290 N291 1.613 . S
S290 N292 1.610 . S
N291 S290 1.613 . S
N291 C294 1.350 . S
N292 S290 1.610 . S
N292 C293 1.351 . S
C293 C287 1.428 . S
C293 N292 1.351 . S
C293 C294 1.434 . S
C294 C285 1.429 . S
C294 N291 1.350 . S
C294 C293 1.434 . S
C295 C296 1.369 . S
C295 C297 1.419 . S
C295 H299 0.930 . S
C296 C295 1.369 . S
C296 C305 1.429 . S
C297 C295 1.419 . S
C297 C298 1.363 . S
C297 H300 0.929 . S
C298 C297 1.363 . S
C298 C304 1.428 . S
H299 C295 0.930 . S
H300 C297 0.929 . S
S301 N302 1.613 . S
S301 N303 1.610 . S
N302 S301 1.613 . S
N302 C305 1.350 . S
N303 S301 1.610 . S
N303 C304 1.351 . S
C304 C298 1.428 . S
C304 N303 1.351 . S
C304 C305 1.434 . S
C305 C296 1.429 . S
C305 N302 1.350 . S
C305 C304 1.434 . S
C306 C307 1.369 . S
C306 C308 1.419 . S
C306 H310 0.930 . S
C307 C306 1.369 . S
C307 C316 1.429 . S
C308 C306 1.419 . S
C308 C309 1.363 . S
C308 H311 0.929 . S
C309 C308 1.363 . S
C309 C315 1.428 . S
H310 C306 0.930 . S
H311 C308 0.929 . S
S312 N313 1.613 . S
S312 N314 1.610 . S
N313 S312 1.613 . S
N313 C316 1.350 . S
N314 S312 1.610 . S
N314 C315 1.351 . S
C315 C309 1.428 . S
C315 N314 1.351 . S
C315 C316 1.434 . S
C316 C307 1.429 . S
C316 N313 1.350 . S
C316 C315 1.434 . S
C317 C318 1.369 . S
C317 C319 1.419 . S
C317 H321 0.930 . S
C318 C317 1.369 . S
C318 C327 1.429 1_455 S
C319 C317 1.419 . S
C319 C320 1.363 1_455 S
C319 H322 0.929 . S
C320 C319 1.363 1_655 S
C320 C326 1.428 . S
H321 C317 0.930 . S
H322 C319 0.929 . S
S323 N324 1.613 . S
S323 N325 1.610 . S
N324 S323 1.613 . S
N324 C327 1.350 . S
N325 S323 1.610 . S
N325 C326 1.351 . S
C326 C320 1.428 . S
C326 N325 1.351 . S
C326 C327 1.434 . S
C327 C318 1.429 1_655 S
C327 N324 1.350 . S
C327 C326 1.434 . S
C328 C329 1.369 . S
C328 C330 1.419 . S
C328 H332 0.930 . S
C329 C328 1.369 . S
C329 C338 1.429 1_545 S
C330 C328 1.419 . S
C330 C331 1.363 1_545 S
C330 H333 0.929 . S
C331 C330 1.363 1_565 S
C331 C337 1.428 . S
H332 C328 0.930 . S
H333 C330 0.929 . S
S334 N335 1.613 . S
S334 N336 1.610 . S
N335 S334 1.613 . S
N335 C338 1.350 . S
N336 S334 1.610 . S
N336 C337 1.351 . S
C337 C331 1.428 . S
C337 N336 1.351 . S
C337 C338 1.434 . S
C338 C329 1.429 1_565 S
C338 N335 1.350 . S
C338 C337 1.434 . S
C339 C340 1.369 . S
C339 C341 1.419 . S
C339 H343 0.930 . S
C340 C339 1.369 . S
C340 C349 1.429 . S
C341 C339 1.419 . S
C341 C342 1.363 . S
C341 H344 0.929 . S
C342 C341 1.363 . S
C342 C348 1.428 . S
H343 C339 0.930 . S
H344 C341 0.929 . S
S345 N346 1.613 . S
S345 N347 1.610 . S
N346 S345 1.613 . S
N346 C349 1.350 . S
N347 S345 1.610 . S
N347 C348 1.351 . S
C348 C342 1.428 . S
C348 N347 1.351 . S
C348 C349 1.434 . S
C349 C340 1.429 . S
C349 N346 1.350 . S
C349 C348 1.434 . S
C350 C351 1.369 . S
C350 C352 1.419 . S
C350 H354 0.930 . S
C351 C350 1.369 . S
C351 C360 1.429 1_455 S
C352 C350 1.419 . S
C352 C353 1.363 1_455 S
C352 H355 0.929 . S
C353 C352 1.363 1_655 S
C353 C359 1.428 . S
H354 C350 0.930 . S
H355 C352 0.929 . S
S356 N357 1.613 . S
S356 N358 1.610 . S
N357 S356 1.613 . S
N357 C360 1.350 . S
N358 S356 1.610 . S
N358 C359 1.351 . S
C359 C353 1.428 . S
C359 N358 1.351 . S
C359 C360 1.434 . S
C360 C351 1.429 1_655 S
C360 N357 1.350 . S
C360 C359 1.434 . S
C361 C362 1.369 1_545 S
C361 C363 1.419 . S
C361 H365 0.930 . S
C362 C361 1.369 1_565 S
C362 C371 1.429 . S
C363 C361 1.419 . S
C363 C364 1.363 . S
C363 H366 0.929 . S
C364 C363 1.363 . S
C364 C370 1.428 1_545 S
H365 C361 0.930 . S
H366 C363 0.929 . S
S367 N368 1.613 . S
S367 N369 1.610 . S
N368 S367 1.613 . S
N368 C371 1.350 . S
N369 S367 1.610 . S
N369 C370 1.351 . S
C370 C364 1.428 1_565 S
C370 N369 1.351 . S
C370 C371 1.434 . S
C371 C362 1.429 . S
C371 N368 1.350 . S
C371 C370 1.434 . S
C372 C373 1.369 . S
C372 C374 1.419 . S
C372 H376 0.930 . S
C373 C372 1.369 . S
C373 C382 1.429 . S
C374 C372 1.419 . S
C374 C375 1.363 . S
C374 H377 0.929 . S
C375 C374 1.363 . S
C375 C381 1.428 . S
H376 C372 0.930 . S
H377 C374 0.929 . S
S378 N379 1.613 . S
S378 N380 1.610 . S
N379 S378 1.613 . S
N379 C382 1.350 . S
N380 S378 1.610 . S
N380 C381 1.351 . S
C381 C375 1.428 . S
C381 N380 1.351 . S
C381 C382 1.434 . S
C382 C373 1.429 . S
C382 N379 1.350 . S
C382 C381 1.434 . S
C383 C384 1.369 . S
C383 C385 1.419 . S
C383 H387 0.930 1_455 S
C384 C383 1.369 . S
C384 C393 1.429 . S
C385 C383 1.419 . S
C385 C386 1.363 . S
C385 H388 0.929 1_455 S
C386 C385 1.363 . S
C386 C392 1.428 . S
H387 C383 0.930 1_655 S
H388 C385 0.929 1_655 S
S389 N390 1.613 . S
S389 N391 1.610 . S
N390 S389 1.613 . S
N390 C393 1.350 . S
N391 S389 1.610 . S
N391 C392 1.351 . S
C392 C386 1.428 . S
C392 N391 1.351 . S
C392 C393 1.434 . S
C393 C384 1.429 . S
C393 N390 1.350 . S
C393 C392 1.434 . S
C394 C395 1.369 . S
C394 C396 1.419 . S
C394 H398 0.930 1_545 S
C395 C394 1.369 . S
C395 C404 1.429 . S
C396 C394 1.419 . S
C396 C397 1.363 . S
C396 H399 0.929 . S
C397 C396 1.363 . S
C397 C403 1.428 . S
H398 C394 0.930 1_565 S
H399 C396 0.929 . S
S400 N401 1.613 . S
S400 N402 1.610 1_455 S
N401 S400 1.613 . S
N401 C404 1.350 1_455 S
N402 S400 1.610 1_655 S
N402 C403 1.351 . S
C403 C397 1.428 . S
C403 N402 1.351 . S
C403 C404 1.434 . S
C404 C395 1.429 . S
C404 N401 1.350 1_655 S
C404 C403 1.434 . S
C405 C406 1.369 . S
C405 C407 1.419 . S
C405 H409 0.930 . S
C406 C405 1.369 . S
C406 C415 1.429 . S
C407 C405 1.419 . S
C407 C408 1.363 . S
C407 H410 0.929 . S
C408 C407 1.363 . S
C408 C414 1.428 . S
H409 C405 0.930 . S
H410 C407 0.929 . S
S411 N412 1.613 . S
S411 N413 1.610 . S
N412 S411 1.613 . S
N412 C415 1.350 . S
N413 S411 1.610 . S
N413 C414 1.351 . S
C414 C408 1.428 . S
C414 N413 1.351 . S
C414 C415 1.434 . S
C415 C406 1.429 . S
C415 N412 1.350 . S
C415 C414 1.434 . S
C416 C417 1.369 . S
C416 C418 1.419 . S
C416 H420 0.930 1_655 S
C417 C416 1.369 . S
C417 C426 1.429 . S
C418 C416 1.419 . S
C418 C419 1.363 . S
C418 H421 0.929 . S
C419 C418 1.363 . S
C419 C425 1.428 . S
H420 C416 0.930 1_455 S
H421 C418 0.929 . S
S422 N423 1.613 . S
S422 N424 1.610 . S
N423 S422 1.613 . S
N423 C426 1.350 . S
N424 S422 1.610 . S
N424 C425 1.351 . S
C425 C419 1.428 . S
C425 N424 1.351 . S
C425 C426 1.434 . S
C426 C417 1.429 . S
C426 N423 1.350 . S
C426 C425 1.434 . S
C427 C428 1.369 . S
C427 C429 1.419 . S
C427 H431 0.930 1_565 S
C428 C427 1.369 . S
C428 C437 1.429 . S
C429 C427 1.419 . S
C429 C430 1.363 . S
C429 H432 0.929 . S
C430 C429 1.363 . S
C430 C436 1.428 . S
H431 C427 0.930 1_545 S
H432 C429 0.929 . S
S433 N434 1.613 . S
S433 N435 1.610 . S
N434 S433 1.613 . S
N434 C437 1.350 . S
N435 S433 1.610 . S
N435 C436 1.351 . S
C436 C430 1.428 . S
C436 N435 1.351 . S
C436 C437 1.434 . S
C437 C428 1.429 . S
C437 N434 1.350 . S
C437 C436 1.434 . S
C241 C179 1.236 . S
C243 C6 1.247 . S
C252 C219 1.240 . S
C254 C46 1.244 . S
C263 C19 1.222 1_556 S
C265 C86 1.244 . S
C274 C59 1.238 . S
C276 C126 1.247 . S
C285 C99 1.239 . S
C287 C166 1.246 . S
C296 C139 1.217 1_556 S
C298 C206 1.247 . S
C307 C9 1.136 . S
C309 C129 1.147 . S
C318 C169 1.139 . S
C320 C49 1.141 . S
C329 C209 1.141 . S
C331 C89 1.137 . S
C340 C98 1.434 . S
C342 C218 1.431 . S
C351 C18 1.437 . S
C353 C138 1.434 . S
C362 C178 1.434 . S
C364 C58 1.437 . S
C373 C210 1.377 . S
C375 C15 1.340 . S
C384 C55 1.337 . S
C386 C10 1.377 . S
C395 C95 1.341 . S
C397 C50 1.376 . S
C406 C90 1.379 . S
C408 C135 1.335 . S
C417 C175 1.334 . S
C419 C130 1.379 . S
C428 C215 1.335 . S
C430 C170 1.378 . S
