# Generated by pormake.
# Topology umo, (4)-cn, num edge types: 1
# Building blocks:
#     Node 0, Type 0, BuildingBlock: ICAMEG_clean_sbu_1, # of connection points: 4
#     Node 1, Type 0, BuildingBlock: ICAMEG_clean_sbu_1, # of connection points: 4
#     Node 2, Type 0, BuildingBlock: ICAMEG_clean_sbu_1, # of connection points: 4
#     Node 3, Type 0, BuildingBlock: ICAMEG_clean_sbu_1, # of connection points: 4
#     Node 4, Type 0, BuildingBlock: ICAMEG_clean_sbu_1, # of connection points: 4
#     Node 5, Type 0, BuildingBlock: ICAMEG_clean_sbu_1, # of connection points: 4
#     Node 6, Type 0, BuildingBlock: ICAMEG_clean_sbu_1, # of connection points: 4
#     Node 7, Type 0, BuildingBlock: ICAMEG_clean_sbu_1, # of connection points: 4
#     Node 8, Type 0, BuildingBlock: ICAMEG_clean_sbu_1, # of connection points: 4
#     Node 9, Type 0, BuildingBlock: ICAMEG_clean_sbu_1, # of connection points: 4
#     Node 10, Type 0, BuildingBlock: ICAMEG_clean_sbu_1, # of connection points: 4
#     Node 11, Type 0, BuildingBlock: ICAMEG_clean_sbu_1, # of connection points: 4
#     Edge 12, Type (0, 0), BuildingBlock: MIFKUJ_clean_linker_0, # of connection points: 2
#     Edge 13, Type (0, 0), BuildingBlock: MIFKUJ_clean_linker_0, # of connection points: 2
#     Edge 14, Type (0, 0), BuildingBlock: MIFKUJ_clean_linker_0, # of connection points: 2
#     Edge 15, Type (0, 0), BuildingBlock: MIFKUJ_clean_linker_0, # of connection points: 2
#     Edge 16, Type (0, 0), BuildingBlock: MIFKUJ_clean_linker_0, # of connection points: 2
#     Edge 17, Type (0, 0), BuildingBlock: MIFKUJ_clean_linker_0, # of connection points: 2
#     Edge 18, Type (0, 0), BuildingBlock: MIFKUJ_clean_linker_0, # of connection points: 2
#     Edge 19, Type (0, 0), BuildingBlock: MIFKUJ_clean_linker_0, # of connection points: 2
#     Edge 20, Type (0, 0), BuildingBlock: MIFKUJ_clean_linker_0, # of connection points: 2
#     Edge 21, Type (0, 0), BuildingBlock: MIFKUJ_clean_linker_0, # of connection points: 2
#     Edge 22, Type (0, 0), BuildingBlock: MIFKUJ_clean_linker_0, # of connection points: 2
#     Edge 23, Type (0, 0), BuildingBlock: MIFKUJ_clean_linker_0, # of connection points: 2
#     Edge 24, Type (0, 0), BuildingBlock: MIFKUJ_clean_linker_0, # of connection points: 2
#     Edge 25, Type (0, 0), BuildingBlock: MIFKUJ_clean_linker_0, # of connection points: 2
#     Edge 26, Type (0, 0), BuildingBlock: MIFKUJ_clean_linker_0, # of connection points: 2
#     Edge 27, Type (0, 0), BuildingBlock: MIFKUJ_clean_linker_0, # of connection points: 2
#     Edge 28, Type (0, 0), BuildingBlock: MIFKUJ_clean_linker_0, # of connection points: 2
#     Edge 29, Type (0, 0), BuildingBlock: MIFKUJ_clean_linker_0, # of connection points: 2
#     Edge 30, Type (0, 0), BuildingBlock: MIFKUJ_clean_linker_0, # of connection points: 2
#     Edge 31, Type (0, 0), BuildingBlock: MIFKUJ_clean_linker_0, # of connection points: 2
#     Edge 32, Type (0, 0), BuildingBlock: MIFKUJ_clean_linker_0, # of connection points: 2
#     Edge 33, Type (0, 0), BuildingBlock: MIFKUJ_clean_linker_0, # of connection points: 2
#     Edge 34, Type (0, 0), BuildingBlock: MIFKUJ_clean_linker_0, # of connection points: 2
#     Edge 35, Type (0, 0), BuildingBlock: MIFKUJ_clean_linker_0, # of connection points: 2
# Relax obj value: 0.091
# Max RMSD: 0.159
# Mean RMSD: 0.159
data_MOF--net-umo--node1-ICAMEG_clean_sbu_1--edge1-MIFKUJ_clean_linker_0
_symmetry_space_group_name_H-M    P1
_symmetry_Int_Tables_number       1
_symmetry_cell_setting            triclinic
loop_
_symmetry_equiv_pos_as_xyz
'x, y, z'
_cell_length_a     66.278154
_cell_length_b     66.181663
_cell_length_c     51.565143
_cell_angle_alpha  89.943733
_cell_angle_beta   90.025275
_cell_angle_gamma 119.98726
loop_
_atom_site_label
_atom_site_type_symbol
_atom_site_fract_x
_atom_site_fract_y
_atom_site_fract_z
_atom_type_partial_charge
Co0 Co 0.15335 0.5547 0.40406 0.0
Co1 Co 0.18733 0.5302 0.41513 0.0
O2 O 0.16275 0.53176 0.39603 0.0
C3 C 0.10892 0.50991 0.40046 0.0
O4 O 0.11694 0.50091 0.41749 0.0
C5 C 0.20044 0.53226 0.36033 0.0
O6 O 0.19533 0.54894 0.35808 0.0
O7 O 0.20899 0.56352 0.40793 0.0
O8 O 0.18587 0.57892 0.41391 0.0
H9 H 0.25416 0.55923 0.47777 0.0
H10 H 0.14099 0.53127 0.35271 0.0
O11 O 0.12089 0.53128 0.39404 0.0
H12 H 0.18846 0.61531 0.33356 0.0
H13 H 0.10743 0.59554 0.38946 0.0
H14 H 0.16348 0.58872 0.44649 0.0
H15 H 0.17961 0.60144 0.37875 0.0
H16 H 0.12092 0.56784 0.37911 0.0
O17 O 0.1979 0.52209 0.38211 0.0
H18 H 0.22183 0.55987 0.45482 0.0
H19 H 0.20653 0.49797 0.41433 0.0
H20 H 0.15055 0.61671 0.45749 0.0
H21 H 0.14911 0.54443 0.30723 0.0
H22 H 0.12232 0.62026 0.42886 0.0
H23 H 0.17312 0.58672 0.29741 0.0
O24 O 0.14714 0.54377 0.44053 0.0
H25 H 0.12681 0.44847 0.39102 0.0
H26 H 0.17356 0.50029 0.46247 0.0
H27 H 0.14557 0.45889 0.47162 0.0
H28 H 0.12198 0.43268 0.43573 0.0
H29 H 0.1549 0.49004 0.3828 0.0
H30 H 0.23879 0.4967 0.43675 0.0
H31 H 0.26283 0.52747 0.46876 0.0
O32 O 0.17774 0.53889 0.44865 0.0
C33 C 0.20585 0.58077 0.41131 0.0
C34 C 0.24373 0.54565 0.46397 0.0
C35 C 0.23512 0.51057 0.44092 0.0
N36 N 0.21213 0.5288 0.43353 0.0
C37 C 0.22534 0.54586 0.451 0.0
C38 C 0.21689 0.51137 0.42829 0.0
C39 C 0.24861 0.52784 0.45887 0.0
C40 C 0.15117 0.54973 0.34861 0.0
N41 N 0.15974 0.56556 0.3684 0.0
C42 C 0.15583 0.55706 0.32281 0.0
C43 C 0.16935 0.58079 0.31732 0.0
C44 C 0.17798 0.59684 0.33759 0.0
C45 C 0.17298 0.58886 0.36315 0.0
C46 C 0.11977 0.59419 0.40206 0.0
C47 C 0.1513 0.59025 0.43385 0.0
C48 C 0.12745 0.57851 0.39632 0.0
N49 N 0.14312 0.5768 0.41207 0.0
C50 C 0.14399 0.60609 0.44022 0.0
C51 C 0.12814 0.60806 0.42416 0.0
C52 C 0.16095 0.54178 0.45619 0.0
C53 C 0.13704 0.4597 0.40681 0.0
C54 C 0.16332 0.48899 0.44677 0.0
C55 C 0.14753 0.46556 0.45206 0.0
C56 C 0.13432 0.45086 0.4319 0.0
N57 N 0.16592 0.4975 0.4221 0.0
C58 C 0.15303 0.48321 0.40224 0.0
Co59 Co 0.64779 0.18064 0.58501 0.0
Co60 Co 0.58915 0.1498 0.5703 0.0
O61 O 0.62143 0.15829 0.56436 0.0
C62 C 0.6578 0.19838 0.53155 0.0
O63 O 0.63623 0.19414 0.53142 0.0
C64 C 0.58981 0.10569 0.57133 0.0
O65 O 0.60688 0.11548 0.58819 0.0
O66 O 0.59186 0.14497 0.6078 0.0
O67 O 0.6297 0.16768 0.61814 0.0
H68 H 0.52361 0.15155 0.61716 0.0
H69 H 0.65426 0.1513 0.54624 0.0
O70 O 0.66603 0.1942 0.55196 0.0
H71 H 0.67582 0.13181 0.6303 0.0
H72 H 0.73304 0.22811 0.60679 0.0
H73 H 0.65377 0.21026 0.63076 0.0
H74 H 0.66365 0.16142 0.62764 0.0
H75 H 0.69895 0.19934 0.58181 0.0
O76 O 0.5798 0.11664 0.56314 0.0
H77 H 0.56458 0.16295 0.60888 0.0
H78 H 0.54426 0.11684 0.54453 0.0
H79 H 0.68733 0.23901 0.6564 0.0
H80 H 0.66641 0.12166 0.54799 0.0
H81 H 0.72731 0.2481 0.64445 0.0
H82 H 0.67725 0.11171 0.59027 0.0
O83 O 0.63694 0.20366 0.58344 0.0
H84 H 0.59972 0.14155 0.47512 0.0
H85 H 0.57062 0.17546 0.54007 0.0
H86 H 0.5681 0.18271 0.49357 0.0
H87 H 0.58271 0.16568 0.46074 0.0
H88 H 0.60213 0.13494 0.52179 0.0
H89 H 0.503 0.10483 0.55219 0.0
H90 H 0.49247 0.12229 0.58867 0.0
O91 O 0.5982 0.18292 0.5773 0.0
C92 C 0.60838 0.15391 0.6243 0.0
C93 C 0.52797 0.14388 0.60113 0.0
C94 C 0.51641 0.11764 0.56469 0.0
N95 N 0.5568 0.14072 0.5761 0.0
C96 C 0.55115 0.15032 0.59629 0.0
C97 C 0.53978 0.12447 0.56046 0.0
C98 C 0.51052 0.12745 0.58516 0.0
C99 C 0.65918 0.14723 0.56466 0.0
N100 N 0.6584 0.15817 0.58678 0.0
C101 C 0.66595 0.13036 0.56555 0.0
C102 C 0.67199 0.12476 0.58929 0.0
C103 C 0.67118 0.13603 0.61176 0.0
C104 C 0.66425 0.15275 0.61014 0.0
C105 C 0.7157 0.22426 0.61223 0.0
C106 C 0.6711 0.214 0.62557 0.0
C107 C 0.69635 0.20802 0.59814 0.0
N108 N 0.67441 0.20299 0.60499 0.0
C109 C 0.69004 0.23035 0.6401 0.0
C110 C 0.71247 0.23546 0.63336 0.0
C111 C 0.61703 0.20208 0.58135 0.0
C112 C 0.59323 0.149 0.48924 0.0
C113 C 0.57704 0.16802 0.5259 0.0
C114 C 0.57553 0.17215 0.4996 0.0
C115 C 0.58371 0.16257 0.48119 0.0
N116 N 0.5864 0.15469 0.53365 0.0
C117 C 0.59443 0.14522 0.5157 0.0
Co118 Co 0.46876 0.65189 0.74874 0.0
Co119 Co 0.43986 0.59424 0.72879 0.0
O120 O 0.46546 0.62639 0.72681 0.0
C121 C 0.46627 0.66589 0.69515 0.0
O122 O 0.44977 0.64418 0.69178 0.0
C123 C 0.48277 0.59206 0.73676 0.0
O124 O 0.48993 0.61003 0.75232 0.0
O125 O 0.44187 0.59414 0.76723 0.0
O126 O 0.46072 0.63158 0.78042 0.0
H127 H 0.36437 0.52852 0.76271 0.0
H128 H 0.50681 0.65964 0.71271 0.0
O129 O 0.4763 0.6725 0.71716 0.0
H130 H 0.5417 0.6748 0.80005 0.0
H131 H 0.50697 0.73571 0.77735 0.0
H132 H 0.44254 0.65574 0.79322 0.0
H133 H 0.50058 0.66407 0.79419 0.0
H134 H 0.50241 0.703 0.75019 0.0
O135 O 0.46275 0.58303 0.7262 0.0
H136 H 0.39656 0.56921 0.75991 0.0
H137 H 0.42928 0.55029 0.70159 0.0
H138 H 0.4466 0.68786 0.82103 0.0
H139 H 0.54802 0.67042 0.71765 0.0
H140 H 0.47899 0.72821 0.81314 0.0
H141 H 0.5657 0.67802 0.76159 0.0
O142 O 0.43541 0.64237 0.74442 0.0
H143 H 0.47193 0.60935 0.6381 0.0
H144 H 0.40087 0.58025 0.69122 0.0
H145 H 0.39799 0.58112 0.64358 0.0
H146 H 0.43369 0.59573 0.61669 0.0
H147 H 0.47406 0.60841 0.68578 0.0
H148 H 0.39753 0.50933 0.70391 0.0
H149 H 0.36473 0.49825 0.73458 0.0
O150 O 0.41668 0.60494 0.7315 0.0
C151 C 0.44992 0.60964 0.78497 0.0
C152 C 0.37853 0.53314 0.74921 0.0
C153 C 0.39716 0.52237 0.71624 0.0
N154 N 0.4147 0.56213 0.73049 0.0
C155 C 0.39677 0.55616 0.74749 0.0
C156 C 0.41511 0.54557 0.71506 0.0
C157 C 0.37875 0.51616 0.73345 0.0
C158 C 0.51446 0.66316 0.73186 0.0
N159 N 0.50136 0.66137 0.75312 0.0
C160 C 0.53777 0.66916 0.73455 0.0
C161 C 0.54766 0.67338 0.75921 0.0
C162 C 0.5342 0.67156 0.7808 0.0
C163 C 0.51092 0.66545 0.77737 0.0
C164 C 0.49281 0.71821 0.78101 0.0
C165 C 0.45679 0.67322 0.7898 0.0
C166 C 0.49012 0.69963 0.76567 0.0
N167 N 0.47236 0.67747 0.77028 0.0
C168 C 0.45894 0.69135 0.80555 0.0
C169 C 0.47711 0.71398 0.80109 0.0
C170 C 0.41698 0.62369 0.73791 0.0
C171 C 0.45623 0.60287 0.6496 0.0
C172 C 0.41649 0.58666 0.67965 0.0
C173 C 0.41474 0.58708 0.65268 0.0
C174 C 0.43478 0.59526 0.6376 0.0
N175 N 0.43759 0.59414 0.69127 0.0
C176 C 0.45731 0.60219 0.67661 0.0
Co177 Co 0.84428 0.44794 0.90653 0.0
Co178 Co 0.81811 0.48011 0.92296 0.0
O179 O 0.83922 0.47433 0.90193 0.0
C180 C 0.89109 0.48994 0.90787 0.0
O181 O 0.88262 0.49964 0.92332 0.0
C182 C 0.80182 0.47648 0.86929 0.0
O183 O 0.80523 0.45865 0.86755 0.0
O184 O 0.79278 0.44739 0.9194 0.0
O185 O 0.81036 0.42632 0.91282 0.0
H186 H 0.75922 0.46327 0.99319 0.0
H187 H 0.86237 0.47707 0.85904 0.0
O188 O 0.87826 0.46904 0.90012 0.0
H189 H 0.80762 0.39764 0.8279 0.0
H190 H 0.88114 0.39944 0.88508 0.0
H191 H 0.82658 0.4079 0.94293 0.0
H192 H 0.81507 0.40552 0.87467 0.0
H193 H 0.8741 0.43246 0.87978 0.0
O194 O 0.80633 0.48795 0.89048 0.0
H195 H 0.78621 0.45614 0.96704 0.0
H196 H 0.80461 0.51678 0.92221 0.0
H197 H 0.83249 0.3742 0.94827 0.0
H198 H 0.85558 0.46986 0.81207 0.0
H199 H 0.86014 0.36994 0.91947 0.0
H200 H 0.82802 0.42995 0.79623 0.0
O201 O 0.84934 0.45408 0.94431 0.0
H202 H 0.8823 0.55701 0.89008 0.0
H203 H 0.8394 0.51261 0.96757 0.0
H204 H 0.8716 0.55313 0.97246 0.0
H205 H 0.89328 0.5756 0.93352 0.0
H206 H 0.85007 0.51641 0.88611 0.0
H207 H 0.77766 0.52448 0.94772 0.0
H208 H 0.75482 0.49765 0.98357 0.0
O209 O 0.82884 0.47147 0.95564 0.0
C210 C 0.79226 0.42804 0.91659 0.0
C211 C 0.76917 0.47515 0.97771 0.0
C212 C 0.7795 0.50949 0.95216 0.0
N213 N 0.79719 0.48621 0.94338 0.0
C214 C 0.78455 0.47126 0.96292 0.0
C215 C 0.7947 0.50503 0.93778 0.0
C216 C 0.76669 0.49443 0.97228 0.0
C217 C 0.85056 0.45958 0.8523 0.0
N218 N 0.83922 0.44172 0.86961 0.0
C219 C 0.84672 0.45564 0.82568 0.0
C220 C 0.83119 0.43324 0.81681 0.0
C221 C 0.81973 0.41511 0.83456 0.0
C222 C 0.82397 0.4197 0.86104 0.0
C223 C 0.86909 0.40114 0.89782 0.0
C224 C 0.83843 0.40603 0.93009 0.0
C225 C 0.86511 0.41984 0.89498 0.0
N226 N 0.84983 0.42202 0.91092 0.0
C227 C 0.84184 0.387 0.93335 0.0
C228 C 0.85731 0.38459 0.91712 0.0
C229 C 0.84108 0.462 0.96127 0.0
C230 C 0.87293 0.54743 0.90718 0.0
C231 C 0.84878 0.52229 0.95055 0.0
C232 C 0.86696 0.54523 0.95343 0.0
C233 C 0.87911 0.55784 0.93156 0.0
N234 N 0.84282 0.51223 0.92657 0.0
C235 C 0.85461 0.52448 0.90504 0.0
Co236 Co 0.33815 0.81226 0.08745 0.0
Co237 Co 0.39632 0.83987 0.07147 0.0
O238 O 0.36441 0.83244 0.06526 0.0
C239 C 0.3256 0.79157 0.03562 0.0
O240 O 0.34646 0.79391 0.03573 0.0
C241 C 0.39986 0.88596 0.06516 0.0
O242 O 0.38401 0.88007 0.08333 0.0
O243 O 0.39492 0.84939 0.1076 0.0
O244 O 0.35766 0.82571 0.11964 0.0
H245 H 0.46151 0.84061 0.12205 0.0
H246 H 0.33242 0.84106 0.04724 0.0
O247 O 0.31861 0.79803 0.05536 0.0
H248 H 0.31613 0.86671 0.13048 0.0
H249 H 0.25351 0.77074 0.11272 0.0
H250 H 0.33162 0.7839 0.13463 0.0
H251 H 0.32601 0.83538 0.12922 0.0
H252 H 0.28758 0.79674 0.08586 0.0
O253 O 0.4072 0.87219 0.05878 0.0
H254 H 0.42078 0.83004 0.11354 0.0
H255 H 0.44084 0.86772 0.04259 0.0
H256 H 0.29809 0.75792 0.16215 0.0
H257 H 0.32244 0.87233 0.04757 0.0
H258 H 0.25869 0.75121 0.15124 0.0
H259 H 0.31426 0.88537 0.08943 0.0
O260 O 0.34692 0.78769 0.08711 0.0
H261 H 0.38398 0.83695 0.97501 0.0
H262 H 0.41169 0.80873 0.04769 0.0
H263 H 0.4122 0.79517 1.00332 0.0
H264 H 0.3983 0.80933 0.96659 0.0
H265 H 0.38344 0.8498 0.01975 0.0
H266 H 0.48184 0.87889 0.05045 0.0
H267 H 0.49237 0.86522 0.09038 0.0
O268 O 0.38594 0.80758 0.08398 0.0
C269 C 0.37901 0.84032 0.12484 0.0
C270 C 0.45712 0.84659 0.10453 0.0
C271 C 0.46854 0.8681 0.06436 0.0
N272 N 0.42841 0.84807 0.07748 0.0
C273 C 0.43408 0.8406 0.09956 0.0
C274 C 0.4453 0.86175 0.06003 0.0
C275 C 0.47443 0.86042 0.08676 0.0
C276 C 0.32867 0.84651 0.06549 0.0
N277 N 0.32964 0.83633 0.08816 0.0
C278 C 0.32312 0.86428 0.06557 0.0
C279 C 0.31857 0.87161 0.08907 0.0
C280 C 0.31963 0.86116 0.11212 0.0
C281 C 0.32528 0.84346 0.11129 0.0
C282 C 0.2706 0.77359 0.11772 0.0
C283 C 0.31456 0.78122 0.1299 0.0
C284 C 0.28994 0.78826 0.10258 0.0
N285 N 0.31159 0.79203 0.10888 0.0
C286 C 0.29563 0.76642 0.14549 0.0
C287 C 0.27352 0.76264 0.13933 0.0
C288 C 0.36666 0.7888 0.08774 0.0
C289 C 0.39016 0.83073 0.99084 0.0
C290 C 0.40555 0.81493 0.03184 0.0
C291 C 0.40594 0.80723 0.00674 0.0
C292 C 0.39816 0.81519 0.98614 0.0
N293 N 0.39763 0.83013 0.03632 0.0
C294 C 0.39002 0.83805 0.01621 0.0
Co295 Co 0.52431 0.33948 0.25327 0.0
Co296 Co 0.55048 0.39816 0.23941 0.0
O297 O 0.52609 0.36579 0.23398 0.0
C298 C 0.52413 0.32749 0.19837 0.0
O299 O 0.54076 0.34922 0.19549 0.0
C300 C 0.50605 0.39882 0.24067 0.0
O301 O 0.49691 0.37986 0.25494 0.0
O302 O 0.54375 0.39536 0.27717 0.0
O303 O 0.53457 0.35844 0.28626 0.0
H304 H 0.6214 0.46287 0.28234 0.0
H305 H 0.48361 0.3319 0.22203 0.0
O306 O 0.51481 0.32017 0.22059 0.0
H307 H 0.45507 0.31363 0.31209 0.0
H308 H 0.48841 0.2546 0.27685 0.0
H309 H 0.55398 0.33398 0.29248 0.0
H310 H 0.49589 0.32567 0.30168 0.0
H311 H 0.49079 0.28835 0.25364 0.0
O312 O 0.52726 0.4085 0.23359 0.0
H313 H 0.58987 0.42227 0.2762 0.0
H314 H 0.5622 0.44338 0.21431 0.0
H315 H 0.55221 0.30077 0.31627 0.0
H316 H 0.44259 0.31971 0.23152 0.0
H317 H 0.51924 0.26073 0.30849 0.0
H318 H 0.42811 0.31055 0.27685 0.0
O319 O 0.55716 0.34967 0.24514 0.0
H320 H 0.52934 0.38788 0.14478 0.0
H321 H 0.59378 0.41614 0.20776 0.0
H322 H 0.60234 0.41859 0.16098 0.0
H323 H 0.56997 0.40442 0.12913 0.0
H324 H 0.5215 0.38583 0.19175 0.0
H325 H 0.59279 0.48438 0.22065 0.0
H326 H 0.62278 0.49433 0.25478 0.0
O327 O 0.57451 0.38872 0.24503 0.0
C328 C 0.5402 0.37919 0.29314 0.0
C329 C 0.60832 0.45879 0.26758 0.0
C330 C 0.59231 0.47085 0.23289 0.0
N331 N 0.57433 0.43042 0.24477 0.0
C332 C 0.59054 0.4358 0.26385 0.0
C333 C 0.57496 0.44761 0.22948 0.0
C334 C 0.60913 0.47642 0.25203 0.0
C335 C 0.47735 0.3277 0.24175 0.0
N336 N 0.49207 0.3294 0.26126 0.0
C337 C 0.45414 0.32091 0.24703 0.0
C338 C 0.44605 0.31582 0.27247 0.0
C339 C 0.46117 0.31757 0.29226 0.0
C340 C 0.48428 0.32446 0.28627 0.0
C341 C 0.50282 0.27197 0.28047 0.0
C342 C 0.53947 0.31663 0.28918 0.0
C343 C 0.50427 0.29113 0.26738 0.0
N344 N 0.52236 0.31313 0.27195 0.0
C345 C 0.53861 0.29789 0.30262 0.0
C346 C 0.52012 0.27542 0.29822 0.0
C347 C 0.57523 0.36983 0.24467 0.0
C348 C 0.54358 0.39432 0.15848 0.0
C349 C 0.57958 0.40994 0.19404 0.0
C350 C 0.58455 0.41142 0.16756 0.0
C351 C 0.56639 0.4035 0.1497 0.0
N352 N 0.55715 0.40091 0.20251 0.0
C353 C 0.53927 0.39326 0.1851 0.0
Co354 Co 0.47218 0.81705 0.42469 0.0
Co355 Co 0.44522 0.84862 0.4398 0.0
O356 O 0.46958 0.84062 0.44482 0.0
C357 C 0.46989 0.80295 0.47915 0.0
O358 O 0.45326 0.80809 0.4815 0.0
C359 C 0.48947 0.89335 0.43725 0.0
O360 O 0.49733 0.88345 0.42126 0.0
O361 O 0.45161 0.85282 0.40212 0.0
O362 O 0.46356 0.82746 0.39171 0.0
H363 H 0.37598 0.84523 0.3957 0.0
H364 H 0.51129 0.84894 0.45864 0.0
O365 O 0.48012 0.80569 0.45738 0.0
H366 H 0.544 0.86327 0.37024 0.0
H367 H 0.5091 0.76919 0.40058 0.0
H368 H 0.44449 0.784 0.38289 0.0
H369 H 0.50286 0.83377 0.37805 0.0
H370 H 0.50557 0.79933 0.42502 0.0
O371 O 0.46868 0.88204 0.44575 0.0
H372 H 0.40634 0.8346 0.40259 0.0
H373 H 0.4334 0.88146 0.46617 0.0
H374 H 0.44746 0.75385 0.35782 0.0
H375 H 0.55257 0.87852 0.45175 0.0
H376 H 0.47995 0.74629 0.36663 0.0
H377 H 0.56915 0.88587 0.40727 0.0
O378 O 0.43899 0.794 0.43076 0.0
H379 H 0.46717 0.86018 0.53417 0.0
H380 H 0.40222 0.82271 0.47189 0.0
H381 H 0.39409 0.81676 0.5188 0.0
H382 H 0.4267 0.83562 0.55029 0.0
H383 H 0.47457 0.86538 0.48713 0.0
H384 H 0.40344 0.89274 0.45985 0.0
H385 H 0.3744 0.8745 0.42446 0.0
O386 O 0.42118 0.81527 0.4338 0.0
C387 C 0.45682 0.8419 0.38552 0.0
C388 C 0.38848 0.85323 0.41125 0.0
C389 C 0.40391 0.87992 0.44723 0.0
N390 N 0.42147 0.85722 0.43492 0.0
C391 C 0.40566 0.84723 0.4153 0.0
C392 C 0.42086 0.87349 0.45069 0.0
C393 C 0.38762 0.86967 0.42738 0.0
C394 C 0.51846 0.85189 0.43928 0.0
N395 N 0.50474 0.83958 0.41879 0.0
C396 C 0.54181 0.86872 0.43547 0.0
C397 C 0.55109 0.87287 0.4105 0.0
C398 C 0.53698 0.86021 0.38972 0.0
C399 C 0.51369 0.84356 0.39425 0.0
C400 C 0.49491 0.77238 0.39651 0.0
C401 C 0.45878 0.78094 0.38666 0.0
C402 C 0.49281 0.78939 0.4103 0.0
N403 N 0.47499 0.79357 0.40516 0.0
C404 C 0.46032 0.76379 0.37248 0.0
C405 C 0.47855 0.75954 0.37746 0.0
C406 C 0.42086 0.79589 0.43227 0.0
C407 C 0.45281 0.85193 0.52065 0.0
C408 C 0.41652 0.83087 0.48546 0.0
C409 C 0.4118 0.8275 0.51201 0.0
C410 C 0.4301 0.83811 0.52967 0.0
N411 N 0.43884 0.84445 0.47676 0.0
C412 C 0.45687 0.85492 0.49397 0.0
Co413 Co 0.59876 0.44874 0.60389 0.0
Co414 Co 0.65765 0.47246 0.59372 0.0
O415 O 0.63123 0.47112 0.61219 0.0
C416 C 0.60112 0.49466 0.60554 0.0
O417 O 0.62088 0.5038 0.59277 0.0
C418 C 0.6666 0.46808 0.64886 0.0
O419 O 0.64457 0.45186 0.65012 0.0
O420 O 0.64508 0.43871 0.59904 0.0
O421 O 0.60638 0.42362 0.59653 0.0
H422 H 0.69615 0.44468 0.53046 0.0
H423 H 0.60977 0.47426 0.6539 0.0
O424 O 0.59013 0.47303 0.61111 0.0
H425 H 0.57057 0.39092 0.67748 0.0
H426 H 0.51199 0.41049 0.61636 0.0
H427 H 0.57492 0.41353 0.5625 0.0
H428 H 0.57668 0.403 0.63158 0.0
H429 H 0.55316 0.43756 0.6272 0.0
O430 O 0.67513 0.47874 0.62751 0.0
H431 H 0.66293 0.44385 0.55297 0.0
H432 H 0.70913 0.50354 0.59692 0.0
H433 H 0.53395 0.38617 0.55101 0.0
H434 H 0.60391 0.46291 0.70005 0.0
H435 H 0.50218 0.3845 0.57805 0.0
H436 H 0.58416 0.421 0.71209 0.0
O437 O 0.6041 0.45829 0.56697 0.0
H438 H 0.68121 0.55395 0.62188 0.0
H439 H 0.67551 0.50416 0.54792 0.0
H440 H 0.69056 0.54618 0.54084 0.0
H441 H 0.69352 0.57138 0.578 0.0
H442 H 0.66605 0.5118 0.62802 0.0
H443 H 0.7429 0.50496 0.57497 0.0
H444 H 0.7365 0.47543 0.54142 0.0
O445 O 0.64055 0.46551 0.55957 0.0
C446 C 0.62447 0.42149 0.59711 0.0
C447 C 0.69917 0.45774 0.54493 0.0
C448 C 0.7254 0.49155 0.56994 0.0
N449 N 0.68408 0.47383 0.57595 0.0
C450 C 0.68042 0.45742 0.55766 0.0
C451 C 0.70622 0.49066 0.5823 0.0
C452 C 0.7218 0.47497 0.55112 0.0
C453 C 0.60098 0.45597 0.65897 0.0
N454 N 0.59352 0.43932 0.64005 0.0
C455 C 0.59778 0.44966 0.68514 0.0
C456 C 0.58676 0.42613 0.69188 0.0
C457 C 0.57916 0.40925 0.67248 0.0
C458 C 0.58274 0.4162 0.64651 0.0
C459 C 0.52569 0.411 0.60447 0.0
C460 C 0.56119 0.41281 0.57446 0.0
C461 C 0.54903 0.42631 0.61049 0.0
N462 N 0.56643 0.42698 0.59563 0.0
C463 C 0.53803 0.39732 0.56781 0.0
C464 C 0.5202 0.39642 0.58298 0.0
C465 C 0.6206 0.46162 0.5517 0.0
C466 C 0.68007 0.54317 0.60555 0.0
C467 C 0.67665 0.515 0.56416 0.0
C468 C 0.68525 0.53879 0.56005 0.0
C469 C 0.68694 0.55293 0.58091 0.0
N470 N 0.66999 0.50558 0.58838 0.0
C471 C 0.6716 0.51932 0.60894 0.0
Co472 Co 0.18036 0.65282 0.75988 0.0
Co473 Co 0.14795 0.59348 0.7705 0.0
O474 O 0.15581 0.62556 0.77775 0.0
C475 C 0.19222 0.66162 0.81512 0.0
O476 O 0.1876 0.6399 0.81584 0.0
C477 C 0.10353 0.59361 0.76742 0.0
O478 O 0.11444 0.61296 0.7539 0.0
O479 O 0.14537 0.59804 0.73286 0.0
O480 O 0.17184 0.63578 0.72568 0.0
H481 H 0.1532 0.53034 0.7223 0.0
H482 H 0.14702 0.65854 0.79294 0.0
O483 O 0.18991 0.67017 0.79387 0.0
H484 H 0.13733 0.682 0.70511 0.0
H485 H 0.22958 0.73883 0.74187 0.0
H486 H 0.21586 0.66039 0.7202 0.0
H487 H 0.1661 0.66946 0.71339 0.0
H488 H 0.19798 0.70391 0.76317 0.0
O489 O 0.11423 0.58319 0.77503 0.0
H490 H 0.16362 0.57088 0.73215 0.0
H491 H 0.11393 0.54731 0.79316 0.0
H492 H 0.24752 0.69478 0.69832 0.0
H493 H 0.11817 0.67114 0.78559 0.0
H494 H 0.25455 0.73436 0.70912 0.0
H495 H 0.11314 0.68292 0.74138 0.0
O496 O 0.20294 0.64213 0.76612 0.0
H497 H 0.13333 0.59919 0.86513 0.0
H498 H 0.17209 0.57396 0.80189 0.0
H499 H 0.17644 0.56934 0.84867 0.0
H500 H 0.15696 0.58199 0.88064 0.0
H501 H 0.12959 0.60368 0.81819 0.0
H502 H 0.10284 0.50649 0.78384 0.0
H503 H 0.1226 0.4978 0.74825 0.0
O504 O 0.18158 0.60301 0.76593 0.0
C505 C 0.15749 0.61516 0.71775 0.0
C506 C 0.14452 0.5339 0.73792 0.0
C507 C 0.11624 0.52052 0.77244 0.0
N508 N 0.13956 0.56146 0.76336 0.0
C509 C 0.1504 0.55683 0.74364 0.0
C510 C 0.12257 0.54366 0.7776 0.0
C511 C 0.12734 0.51566 0.75247 0.0
C512 C 0.1451 0.66389 0.77372 0.0
N513 N 0.15828 0.66338 0.75365 0.0
C514 C 0.12866 0.6709 0.76964 0.0
C515 C 0.12582 0.67746 0.74482 0.0
C516 C 0.13937 0.67693 0.72446 0.0
C517 C 0.15559 0.66976 0.72925 0.0
C518 C 0.22663 0.72167 0.73692 0.0
C519 C 0.21865 0.67753 0.72481 0.0
C520 C 0.20877 0.70185 0.74892 0.0
N521 N 0.20488 0.68013 0.74265 0.0
C522 C 0.23668 0.69695 0.71244 0.0
C523 C 0.24063 0.71915 0.71854 0.0
C524 C 0.20107 0.62204 0.7662 0.0
C525 C 0.14182 0.59352 0.85138 0.0
C526 C 0.16359 0.57956 0.81568 0.0
C527 C 0.16607 0.57684 0.84214 0.0
C528 C 0.15512 0.58392 0.86007 0.0
N529 N 0.15053 0.58901 0.8073 0.0
C530 C 0.13968 0.59592 0.82477 0.0
Co531 Co 0.52793 0.17981 0.92824 0.0
Co532 Co 0.56413 0.15852 0.94621 0.0
O533 O 0.5363 0.16112 0.95015 0.0
C534 C 0.53259 0.19847 0.98109 0.0
O535 O 0.55117 0.19634 0.98284 0.0
C536 C 0.52475 0.11029 0.94289 0.0
O537 O 0.51543 0.11765 0.92549 0.0
O538 O 0.55926 0.15389 0.90811 0.0
O539 O 0.5358 0.16788 0.89608 0.0
H540 H 0.64019 0.17555 0.90616 0.0
H541 H 0.49488 0.14844 0.96812 0.0
O542 O 0.52056 0.19257 0.96025 0.0
H543 H 0.45399 0.12005 0.88465 0.0
H544 H 0.47833 0.21449 0.90288 0.0
H545 H 0.54788 0.20896 0.8812 0.0
H546 H 0.49346 0.15454 0.88624 0.0
H547 H 0.48942 0.19064 0.92966 0.0
O548 O 0.54475 0.12422 0.95229 0.0
H549 H 0.60544 0.17962 0.91156 0.0
H550 H 0.58171 0.13053 0.97326 0.0
H551 H 0.53735 0.23287 0.85378 0.0
H552 H 0.45541 0.11392 0.96744 0.0
H553 H 0.50234 0.23574 0.86458 0.0
H554 H 0.43474 0.09947 0.92547 0.0
O555 O 0.56025 0.20679 0.92907 0.0
H556 H 0.54018 0.14502 0.03999 0.0
H557 H 0.60503 0.18946 0.97915 0.0
H558 H 0.61161 0.19671 0.02614 0.0
H559 H 0.57904 0.17438 0.05691 0.0
H560 H 0.53429 0.1385 0.99286 0.0
H561 H 0.61616 0.12583 0.96847 0.0
H562 H 0.64572 0.14846 0.93474 0.0
O563 O 0.58365 0.19266 0.94023 0.0
C564 C 0.54847 0.15881 0.89095 0.0
C565 C 0.62744 0.16558 0.92093 0.0
C566 C 0.61394 0.13766 0.95588 0.0
N567 N 0.59153 0.15531 0.94265 0.0
C568 C 0.60772 0.16783 0.92407 0.0
C569 C 0.59442 0.14034 0.95844 0.0
C570 C 0.63052 0.15038 0.93696 0.0
C571 C 0.48588 0.1424 0.94981 0.0
N572 N 0.49638 0.15356 0.92726 0.0
C573 C 0.46359 0.12279 0.94954 0.0
C574 C 0.45201 0.11467 0.92598 0.0
C575 C 0.46281 0.1262 0.90306 0.0
C576 C 0.48516 0.14571 0.90407 0.0
C577 C 0.49359 0.21333 0.89794 0.0
C578 C 0.53254 0.21 0.8859 0.0
C579 C 0.49997 0.19989 0.91305 0.0
N580 N 0.51916 0.19827 0.90684 0.0
C581 C 0.5267 0.22362 0.87036 0.0
C582 C 0.50707 0.22524 0.87645 0.0
C583 C 0.5803 0.20932 0.93359 0.0
C584 C 0.55453 0.15479 0.02678 0.0
C585 C 0.59077 0.17969 0.99241 0.0
C586 C 0.5946 0.18384 0.019 0.0
C587 C 0.57633 0.1713 0.03626 0.0
N588 N 0.56934 0.16347 0.98327 0.0
C589 C 0.55133 0.15109 1.00007 0.0
Co590 Co 0.40372 0.55377 0.10632 0.0
Co591 Co 0.34524 0.5242 0.08986 0.0
O592 O 0.37174 0.5283 0.11047 0.0
C593 C 0.40536 0.51025 0.10048 0.0
O594 O 0.38662 0.50219 0.08601 0.0
C595 C 0.33389 0.529 0.14387 0.0
O596 O 0.35576 0.54543 0.14588 0.0
O597 O 0.35492 0.55769 0.09302 0.0
O598 O 0.39297 0.57691 0.10324 0.0
H599 H 0.30548 0.54389 0.01943 0.0
H600 H 0.39143 0.52153 0.1512 0.0
O601 O 0.41499 0.53094 0.10941 0.0
H602 H 0.42094 0.59969 0.18916 0.0
H603 H 0.48957 0.59688 0.12623 0.0
H604 H 0.42729 0.59575 0.07279 0.0
H605 H 0.41967 0.59454 0.14171 0.0
H606 H 0.44881 0.56536 0.13132 0.0
O607 O 0.32624 0.51796 0.12254 0.0
H608 H 0.33904 0.54887 0.04521 0.0
H609 H 0.29429 0.49037 0.09167 0.0
H610 H 0.46778 0.62769 0.0672 0.0
H611 H 0.39253 0.52594 0.19875 0.0
H612 H 0.49926 0.62838 0.09403 0.0
H613 H 0.40731 0.56522 0.21801 0.0
O614 O 0.40193 0.55002 0.06801 0.0
H615 H 0.32789 0.44593 0.12368 0.0
H616 H 0.33112 0.49074 0.04576 0.0
H617 H 0.32005 0.44934 0.04139 0.0
H618 H 0.31838 0.42666 0.08055 0.0
H619 H 0.33901 0.48741 0.12711 0.0
H620 H 0.26021 0.48485 0.06653 0.0
H621 H 0.26572 0.51169 0.03006 0.0
O622 O 0.36395 0.53113 0.05703 0.0
C623 C 0.3739 0.57636 0.09803 0.0
C624 C 0.30287 0.53203 0.03521 0.0
C625 C 0.27745 0.49891 0.06167 0.0
N626 N 0.31863 0.51979 0.06974 0.0
C627 C 0.32181 0.53472 0.04982 0.0
C628 C 0.2968 0.50214 0.07586 0.0
C629 C 0.28056 0.51398 0.0412 0.0
C630 C 0.39815 0.53872 0.15943 0.0
N631 N 0.40562 0.55777 0.14368 0.0
C632 C 0.39863 0.54109 0.18637 0.0
C633 C 0.40688 0.56314 0.19717 0.0
C634 C 0.41451 0.58248 0.18099 0.0
C635 C 0.41372 0.57945 0.15413 0.0
C636 C 0.47601 0.59678 0.11444 0.0
C637 C 0.44087 0.59599 0.08463 0.0
C638 C 0.45291 0.57895 0.11719 0.0
N639 N 0.43568 0.57878 0.10244 0.0
C640 C 0.46378 0.6141 0.08134 0.0
C641 C 0.48143 0.61446 0.09638 0.0
C642 C 0.38562 0.54158 0.05119 0.0
C643 C 0.32846 0.4556 0.10648 0.0
C644 C 0.33044 0.48098 0.06287 0.0
C645 C 0.32413 0.45753 0.06029 0.0
C646 C 0.32318 0.44481 0.08227 0.0
N647 N 0.33558 0.49142 0.08668 0.0
C648 C 0.33465 0.47906 0.10833 0.0
Co649 Co 0.81131 0.33803 0.2572 0.0
Co650 Co 0.84155 0.39592 0.27508 0.0
O651 O 0.83287 0.3634 0.27946 0.0
C652 C 0.79152 0.32573 0.30945 0.0
O653 O 0.79546 0.34721 0.30999 0.0
C654 C 0.88627 0.39625 0.27702 0.0
O655 O 0.87864 0.38065 0.25839 0.0
O656 O 0.84878 0.39504 0.23784 0.0
O657 O 0.82503 0.35787 0.22527 0.0
H658 H 0.84321 0.46437 0.23077 0.0
H659 H 0.83935 0.32955 0.29594 0.0
O660 O 0.79679 0.31826 0.28917 0.0
H661 H 0.86169 0.31256 0.21099 0.0
H662 H 0.76517 0.25377 0.23053 0.0
H663 H 0.78279 0.33392 0.21099 0.0
H664 H 0.83211 0.32471 0.214 0.0
H665 H 0.79301 0.28681 0.25751 0.0
O666 O 0.87402 0.40487 0.28503 0.0
H667 H 0.83112 0.42286 0.23661 0.0
H668 H 0.87275 0.43923 0.30449 0.0
H669 H 0.75499 0.30145 0.18338 0.0
H670 H 0.8689 0.31732 0.29386 0.0
H671 H 0.74602 0.26102 0.19311 0.0
H672 H 0.88028 0.30878 0.25114 0.0
O673 O 0.78821 0.34864 0.25885 0.0
H674 H 0.84282 0.38019 0.37033 0.0
H675 H 0.81381 0.41289 0.30372 0.0
H676 H 0.80297 0.41271 0.34949 0.0
H677 H 0.81754 0.3963 0.38317 0.0
H678 H 0.85294 0.38039 0.32429 0.0
H679 H 0.88555 0.48096 0.2991 0.0
H680 H 0.87065 0.49376 0.26205 0.0
O681 O 0.80908 0.38735 0.26537 0.0
C682 C 0.83943 0.37938 0.22034 0.0
C683 C 0.84976 0.45901 0.24698 0.0
C684 C 0.87354 0.46832 0.28535 0.0
N685 N 0.85105 0.42861 0.271 0.0
C686 C 0.8429 0.43551 0.25047 0.0
C687 C 0.86627 0.44467 0.28826 0.0
C688 C 0.86518 0.47549 0.26456 0.0
C689 C 0.84407 0.32565 0.27731 0.0
N690 N 0.83393 0.32768 0.25513 0.0
C691 C 0.86087 0.31882 0.27624 0.0
C692 C 0.86727 0.31407 0.25226 0.0
C693 C 0.85686 0.3162 0.22972 0.0
C694 C 0.84016 0.32312 0.23154 0.0
C695 C 0.769 0.27131 0.22605 0.0
C696 C 0.77913 0.31641 0.21519 0.0
C697 C 0.78472 0.29007 0.24126 0.0
N698 N 0.78971 0.31228 0.23562 0.0
C699 C 0.76331 0.29808 0.19956 0.0
C700 C 0.75826 0.2754 0.20505 0.0
C701 C 0.79 0.36867 0.26056 0.0
C702 C 0.83644 0.38747 0.35585 0.0
C703 C 0.82018 0.40567 0.31824 0.0
C704 C 0.81403 0.40567 0.34414 0.0
C705 C 0.82222 0.39648 0.36303 0.0
N706 N 0.83409 0.39676 0.31133 0.0
C707 C 0.84222 0.38776 0.32976 0.0
H708 H 0.24326 0.60011 0.37949 0.0
H709 H 0.27873 0.63794 0.3846 0.0
H710 H 0.2507 0.65019 0.45468 0.0
H711 H 0.21449 0.61311 0.44831 0.0
H712 H 0.2735 0.68862 0.43223 0.0
H713 H 0.29094 0.62948 0.4544 0.0
H714 H 0.29217 0.59314 0.44859 0.0
H715 H 0.33675 0.62261 0.38235 0.0
H716 H 0.3354 0.65898 0.38744 0.0
H717 H 0.40933 0.75565 0.45759 0.0
H718 H 0.37151 0.71969 0.45776 0.0
H719 H 0.34442 0.75146 0.40543 0.0
H720 H 0.3817 0.7879 0.4069 0.0
H721 H 0.3489 0.69024 0.42447 0.0
H722 H 0.28737 0.72891 0.40997 0.0
H723 H 0.28559 0.76386 0.4229 0.0
H724 H 0.3292 0.77325 0.48865 0.0
H725 H 0.33095 0.73816 0.47636 0.0
C726 C 0.24471 0.6111 0.39578 0.0
C727 C 0.22647 0.60389 0.41363 0.0
C728 C 0.26497 0.63257 0.39883 0.0
C729 C 0.26768 0.64663 0.42046 0.0
C730 C 0.24907 0.63963 0.4379 0.0
C731 C 0.22847 0.61849 0.43434 0.0
C732 C 0.29014 0.66827 0.42519 0.0
C733 C 0.28999 0.68897 0.43065 0.0
C734 C 0.31165 0.6686 0.42404 0.0
C735 C 0.31293 0.64692 0.4212 0.0
C736 C 0.30091 0.62818 0.43852 0.0
C737 C 0.30161 0.60756 0.43533 0.0
C738 C 0.31447 0.60555 0.41506 0.0
C739 C 0.32674 0.62418 0.398 0.0
C740 C 0.32604 0.64481 0.40103 0.0
C741 C 0.39514 0.75491 0.44637 0.0
C742 C 0.39819 0.7744 0.43235 0.0
C743 C 0.3736 0.73439 0.44639 0.0
C744 C 0.35494 0.73289 0.43189 0.0
C745 C 0.35824 0.75234 0.41744 0.0
C746 C 0.37956 0.7731 0.4181 0.0
C747 C 0.33233 0.71074 0.43112 0.0
C748 C 0.33244 0.68991 0.42635 0.0
C749 C 0.31079 0.71011 0.43426 0.0
C750 C 0.30945 0.731 0.44209 0.0
C751 C 0.29647 0.73835 0.42727 0.0
C752 C 0.29549 0.7582 0.43447 0.0
C753 C 0.30733 0.7708 0.45654 0.0
C754 C 0.3201 0.76351 0.47152 0.0
C755 C 0.3211 0.74365 0.46443 0.0
H756 H 0.30659 0.78619 0.46204 0.0
H757 H 0.31497 0.58956 0.41261 0.0
H758 H 0.65315 0.24673 0.58708 0.0
H759 H 0.65119 0.28253 0.58852 0.0
H760 H 0.57646 0.2426 0.58035 0.0
H761 H 0.57812 0.20657 0.57914 0.0
H762 H 0.63581 0.30097 0.55207 0.0
H763 H 0.55297 0.27015 0.61324 0.0
H764 H 0.53137 0.24303 0.64899 0.0
H765 H 0.59468 0.24765 0.6766 0.0
H766 H 0.61658 0.27465 0.64094 0.0
H767 H 0.58387 0.38015 0.58952 0.0
H768 H 0.57939 0.34139 0.58433 0.0
H769 H 0.65345 0.37065 0.59431 0.0
H770 H 0.65824 0.40939 0.5992 0.0
H771 H 0.59022 0.3159 0.61789 0.0
H772 H 0.67225 0.34289 0.55444 0.0
H773 H 0.6956 0.37292 0.52189 0.0
H774 H 0.63589 0.37855 0.50102 0.0
H775 H 0.61203 0.34814 0.53299 0.0
C776 C 0.63625 0.24548 0.58569 0.0
C777 C 0.61579 0.22374 0.58294 0.0
C778 C 0.63519 0.26598 0.58644 0.0
C779 C 0.61369 0.26518 0.58462 0.0
C780 C 0.59321 0.24355 0.58204 0.0
C781 C 0.59423 0.223 0.58126 0.0
C782 C 0.61289 0.28709 0.58503 0.0
C783 C 0.62598 0.30433 0.56656 0.0
C784 C 0.59947 0.29111 0.60342 0.0
C785 C 0.58632 0.2742 0.6243 0.0
C786 C 0.56223 0.26526 0.62689 0.0
C787 C 0.54994 0.2499 0.64711 0.0
C788 C 0.56163 0.24357 0.66501 0.0
C789 C 0.58561 0.25245 0.66262 0.0
C790 C 0.59795 0.26768 0.64234 0.0
C791 C 0.59922 0.37835 0.59066 0.0
C792 C 0.62143 0.3979 0.59475 0.0
C793 C 0.59659 0.3562 0.5877 0.0
C794 C 0.61612 0.35328 0.58863 0.0
C795 C 0.63822 0.37265 0.59309 0.0
C796 C 0.64089 0.39476 0.59601 0.0
C797 C 0.61357 0.32996 0.58535 0.0
C798 C 0.59978 0.31243 0.60315 0.0
C799 C 0.62642 0.32571 0.56638 0.0
C800 C 0.64039 0.34334 0.54629 0.0
C801 C 0.66403 0.35036 0.54274 0.0
C802 C 0.67736 0.36747 0.5244 0.0
C803 C 0.66723 0.37765 0.50943 0.0
C804 C 0.6437 0.37064 0.51264 0.0
C805 C 0.63027 0.35347 0.53087 0.0
H806 H 0.67761 0.39097 0.49533 0.0
H807 H 0.55213 0.23186 0.68079 0.0
H808 H 0.24535 0.65766 0.77466 0.0
H809 H 0.28148 0.65673 0.77039 0.0
H810 H 0.24243 0.58337 0.75207 0.0
H811 H 0.20599 0.58395 0.75681 0.0
H812 H 0.27947 0.59397 0.78401 0.0
H813 H 0.26559 0.62294 0.70439 0.0
H814 H 0.25684 0.64889 0.67832 0.0
H815 H 0.32002 0.70844 0.70479 0.0
H816 H 0.32892 0.68288 0.73143 0.0
H817 H 0.37328 0.58688 0.72865 0.0
H818 H 0.33625 0.58613 0.7329 0.0
H819 H 0.37276 0.65913 0.75311 0.0
H820 H 0.40995 0.6602 0.74877 0.0
H821 H 0.33652 0.64784 0.71928 0.0
H822 H 0.34985 0.61997 0.7999 0.0
H823 H 0.3589 0.59484 0.8271 0.0
H824 H 0.29736 0.53412 0.79941 0.0
H825 H 0.28813 0.55889 0.77175 0.0
C826 C 0.24437 0.64125 0.76989 0.0
C827 C 0.22278 0.62093 0.76572 0.0
C828 C 0.26505 0.64078 0.76743 0.0
C829 C 0.2646 0.6201 0.7604 0.0
C830 C 0.24311 0.59953 0.75737 0.0
C831 C 0.22233 0.59992 0.76002 0.0
C832 C 0.2866 0.62026 0.75514 0.0
C833 C 0.2918 0.60549 0.76961 0.0
C834 C 0.30284 0.63566 0.73667 0.0
C835 C 0.29783 0.651 0.72008 0.0
C836 C 0.27756 0.64158 0.70476 0.0
C837 C 0.27257 0.65622 0.68989 0.0
C838 C 0.28785 0.6803 0.68993 0.0
C839 C 0.30819 0.68978 0.70479 0.0
C840 C 0.31322 0.67523 0.71978 0.0
C841 C 0.37351 0.60285 0.7338 0.0
C842 C 0.39462 0.62357 0.73858 0.0
C843 C 0.35231 0.60235 0.73628 0.0
C844 C 0.35183 0.62251 0.74363 0.0
C845 C 0.37282 0.6434 0.74748 0.0
C846 C 0.39405 0.64393 0.74507 0.0
C847 C 0.32939 0.62161 0.7482 0.0
C848 C 0.32412 0.63625 0.73359 0.0
C849 C 0.31315 0.60617 0.7666 0.0
C850 C 0.31842 0.59126 0.78357 0.0
C851 C 0.33833 0.60125 0.79949 0.0
C852 C 0.34348 0.58708 0.815 0.0
C853 C 0.32874 0.5629 0.81493 0.0
C854 C 0.30878 0.55285 0.79942 0.0
C855 C 0.30356 0.56695 0.78384 0.0
H856 H 0.33277 0.55195 0.82693 0.0
H857 H 0.28395 0.69161 0.67842 0.0
H858 H 0.78343 0.38302 0.91643 0.0
H859 H 0.74556 0.34744 0.91729 0.0
H860 H 0.71133 0.38833 0.91874 0.0
H861 H 0.74917 0.42413 0.91842 0.0
H862 H 0.69195 0.35304 0.95289 0.0
H863 H 0.71256 0.36192 0.86348 0.0
H864 H 0.73825 0.36876 0.82594 0.0
H865 H 0.74004 0.30628 0.84366 0.0
H866 H 0.71469 0.29925 0.88159 0.0
H867 H 0.58138 0.25095 0.92679 0.0
H868 H 0.61585 0.28964 0.92176 0.0
H869 H 0.66013 0.25943 0.9286 0.0
H870 H 0.62602 0.22085 0.93383 0.0
H871 H 0.67186 0.29122 0.88699 0.0
H872 H 0.654 0.28517 0.97887 0.0
H873 H 0.62831 0.27882 0.01627 0.0
H874 H 0.6206 0.33679 0.99244 0.0
H875 H 0.64599 0.34326 0.95465 0.0
C876 C 0.76789 0.38451 0.91691 0.0
C877 C 0.76935 0.40644 0.91726 0.0
C878 C 0.74625 0.36414 0.9173 0.0
C879 C 0.72568 0.3653 0.9177 0.0
C880 C 0.72703 0.38711 0.91837 0.0
C881 C 0.74868 0.40752 0.91813 0.0
C882 C 0.70279 0.34363 0.9177 0.0
C883 C 0.68735 0.3397 0.93822 0.0
C884 C 0.69693 0.32621 0.89862 0.0
C885 C 0.71184 0.33014 0.87551 0.0
C886 C 0.71854 0.3497 0.85948 0.0
C887 C 0.73303 0.35362 0.83812 0.0
C888 C 0.74079 0.33799 0.83245 0.0
C889 C 0.73402 0.31838 0.84808 0.0
C890 C 0.71956 0.3144 0.8695 0.0
C891 C 0.59845 0.25253 0.92723 0.0
C892 C 0.60094 0.2328 0.93078 0.0
C893 C 0.61808 0.27462 0.92436 0.0
C894 C 0.64043 0.27726 0.92483 0.0
C895 C 0.64297 0.25764 0.92809 0.0
C896 C 0.62343 0.23563 0.93121 0.0
C897 C 0.66135 0.30052 0.92244 0.0
C898 C 0.67637 0.30473 0.90143 0.0
C899 C 0.66672 0.31826 0.94091 0.0
C900 C 0.65166 0.31453 0.96377 0.0
C901 C 0.64667 0.29644 0.98148 0.0
C902 C 0.63219 0.29284 1.00277 0.0
C903 C 0.62277 0.30735 0.00668 0.0
C904 C 0.62788 0.32554 0.98936 0.0
C905 C 0.64232 0.32919 0.96801 0.0
H906 H 0.61156 0.30453 0.02317 0.0
H907 H 0.75203 0.34107 0.81592 0.0
H908 H 0.40499 0.78447 0.09641 0.0
H909 H 0.40635 0.74855 0.10127 0.0
H910 H 0.33157 0.70817 0.09386 0.0
H911 H 0.3299 0.74408 0.08953 0.0
H912 H 0.34745 0.69026 0.13073 0.0
H913 H 0.3657 0.71614 0.04241 0.0
H914 H 0.38703 0.74502 0.00809 0.0
H915 H 0.45115 0.7501 0.03334 0.0
H916 H 0.43025 0.72155 0.06816 0.0
H917 H 0.33624 0.58243 0.0925 0.0
H918 H 0.3358 0.61904 0.09312 0.0
H919 H 0.41021 0.65711 0.1046 0.0
H920 H 0.41097 0.62057 0.10391 0.0
H921 H 0.39527 0.67648 0.06678 0.0
H922 H 0.37597 0.64903 0.15449 0.0
H923 H 0.35394 0.61998 0.18842 0.0
H924 H 0.2908 0.61718 0.16335 0.0
H925 H 0.31241 0.64594 0.12897 0.0
C926 C 0.38878 0.76798 0.09596 0.0
C927 C 0.36734 0.76713 0.09225 0.0
C928 C 0.38962 0.74748 0.09874 0.0
C929 C 0.3691 0.72575 0.09749 0.0
C930 C 0.3476 0.72481 0.09481 0.0
C931 C 0.3467 0.74534 0.09222 0.0
C932 C 0.37022 0.70402 0.09765 0.0
C933 C 0.3577 0.68711 0.11661 0.0
C934 C 0.38392 0.70018 0.07943 0.0
C935 C 0.39644 0.71686 0.05805 0.0
C936 C 0.38437 0.72351 0.04074 0.0
C937 C 0.39638 0.73982 0.0212 0.0
C938 C 0.42044 0.74943 0.01857 0.0
C939 C 0.43252 0.74266 0.03542 0.0
C940 C 0.4206 0.72641 0.05506 0.0
C941 C 0.35255 0.59855 0.09516 0.0
C942 C 0.37364 0.59855 0.09824 0.0
C943 C 0.35223 0.61944 0.0956 0.0
C944 C 0.37294 0.64067 0.09916 0.0
C945 C 0.39406 0.64083 0.1019 0.0
C946 C 0.39442 0.61993 0.10157 0.0
C947 C 0.37251 0.66274 0.09986 0.0
C948 C 0.38512 0.67968 0.08099 0.0
C949 C 0.35877 0.66652 0.11805 0.0
C950 C 0.34579 0.6495 0.139 0.0
C951 C 0.35736 0.6421 0.15609 0.0
C952 C 0.34495 0.6257 0.17542 0.0
C953 C 0.32097 0.61669 0.178 0.0
C954 C 0.30937 0.62415 0.16131 0.0
C955 C 0.3217 0.64052 0.14191 0.0
H956 H 0.31139 0.60398 0.19297 0.0
H957 H 0.42971 0.76208 1.00345 0.0
H958 H 0.78542 0.40741 0.26523 0.0
H959 H 0.74993 0.40961 0.26026 0.0
H960 H 0.71112 0.33606 0.24289 0.0
H961 H 0.74642 0.33358 0.24769 0.0
H962 H 0.70094 0.3628 0.20977 0.0
H963 H 0.70859 0.35405 0.30155 0.0
H964 H 0.72968 0.36502 0.34321 0.0
H965 H 0.7341 0.43193 0.33981 0.0
H966 H 0.71357 0.42161 0.29777 0.0
H967 H 0.58465 0.33484 0.23469 0.0
H968 H 0.62267 0.33734 0.23456 0.0
H969 H 0.65582 0.41067 0.25274 0.0
H970 H 0.61788 0.40844 0.25286 0.0
H971 H 0.67037 0.38684 0.28426 0.0
H972 H 0.66108 0.39533 0.19412 0.0
H973 H 0.64256 0.38619 0.15101 0.0
H974 H 0.64223 0.32116 0.15042 0.0
H975 H 0.66028 0.32964 0.19382 0.0
C976 C 0.76936 0.39167 0.26034 0.0
C977 C 0.76873 0.37026 0.25709 0.0
C978 C 0.74913 0.393 0.25751 0.0
C979 C 0.72797 0.37295 0.25143 0.0
C980 C 0.72734 0.35169 0.24761 0.0
C981 C 0.74752 0.35032 0.2505 0.0
C982 C 0.70629 0.37396 0.24962 0.0
C983 C 0.69405 0.36779 0.2261 0.0
C984 C 0.69785 0.38114 0.27079 0.0
C985 C 0.70975 0.38715 0.29636 0.0
C986 C 0.71421 0.37117 0.30958 0.0
C987 C 0.72605 0.37726 0.33327 0.0
C988 C 0.73323 0.39915 0.34414 0.0
C989 C 0.72855 0.41499 0.33135 0.0
C990 C 0.71683 0.40904 0.30758 0.0
C991 C 0.60002 0.35153 0.23859 0.0
C992 C 0.59824 0.37143 0.24388 0.0
C993 C 0.62172 0.35294 0.23836 0.0
C994 C 0.64198 0.37421 0.2435 0.0
C995 C 0.64032 0.39412 0.2487 0.0
C996 C 0.61864 0.39279 0.24871 0.0
C997 C 0.66479 0.37539 0.24445 0.0
C998 C 0.67725 0.38194 0.26785 0.0
C999 C 0.67345 0.3686 0.22313 0.0
C1000 C 0.66187 0.36305 0.19737 0.0
C1001 C 0.65679 0.37894 0.18497 0.0
C1002 C 0.64645 0.37391 0.16043 0.0
C1003 C 0.6413 0.35314 0.14795 0.0
C1004 C 0.64632 0.33728 0.16007 0.0
C1005 C 0.65656 0.34217 0.18467 0.0
H1006 H 0.63333 0.3493 0.12893 0.0
H1007 H 0.74239 0.40382 0.36248 0.0
H1008 H 0.19325 0.63353 0.68308 0.0
H1009 H 0.19298 0.62074 0.63868 0.0
H1010 H 0.11902 0.57259 0.64444 0.0
H1011 H 0.1197 0.58427 0.68959 0.0
H1012 H 0.13599 0.5511 0.62273 0.0
H1013 H 0.14617 0.62663 0.60623 0.0
H1014 H 0.16386 0.66928 0.61044 0.0
H1015 H 0.22901 0.67876 0.5823 0.0
H1016 H 0.21178 0.63614 0.57823 0.0
H1017 H 0.12267 0.53611 0.48273 0.0
H1018 H 0.12129 0.54801 0.52745 0.0
H1019 H 0.19417 0.57071 0.53683 0.0
H1020 H 0.1956 0.55829 0.49248 0.0
H1021 H 0.17693 0.60486 0.54954 0.0
H1022 H 0.16391 0.52715 0.5669 0.0
H1023 H 0.14341 0.48448 0.56098 0.0
H1024 H 0.07927 0.47981 0.58541 0.0
H1025 H 0.09936 0.52254 0.59108 0.0
C1026 C 0.17686 0.62054 0.67469 0.0
C1027 C 0.15645 0.61005 0.68971 0.0
C1028 C 0.17668 0.61324 0.64919 0.0
C1029 C 0.15589 0.59589 0.63779 0.0
C1030 C 0.13533 0.58594 0.65264 0.0
C1031 C 0.13566 0.59275 0.6784 0.0
C1032 C 0.1558 0.58722 0.61098 0.0
C1033 C 0.14465 0.56299 0.60673 0.0
C1034 C 0.16735 0.60251 0.5899 0.0
C1035 C 0.17773 0.62817 0.59214 0.0
C1036 C 0.1643 0.6378 0.60109 0.0
C1037 C 0.17425 0.66198 0.60343 0.0
C1038 C 0.19756 0.67672 0.5967 0.0
C1039 C 0.21096 0.66732 0.58753 0.0
C1040 C 0.20111 0.64315 0.58517 0.0
C1041 C 0.1383 0.54326 0.49447 0.0
C1042 C 0.15921 0.54613 0.48409 0.0
C1043 C 0.13749 0.5501 0.51995 0.0
C1044 C 0.15765 0.56032 0.53533 0.0
C1045 C 0.17844 0.56287 0.52521 0.0
C1046 C 0.17916 0.55558 0.49994 0.0
C1047 C 0.15721 0.56904 0.56168 0.0
C1048 C 0.16823 0.5932 0.5657 0.0
C1049 C 0.14512 0.55374 0.58236 0.0
C1050 C 0.13308 0.52806 0.57912 0.0
C1051 C 0.14539 0.51706 0.57075 0.0
C1052 C 0.13386 0.49285 0.5675 0.0
C1053 C 0.11004 0.47945 0.57274 0.0
C1054 C 0.09772 0.49022 0.58132 0.0
C1055 C 0.10917 0.51442 0.58457 0.0
H1056 H 0.10114 0.46072 0.57021 0.0
H1057 H 0.20523 0.69542 0.59854 0.0
H1058 H 0.56487 0.12676 0.64494 0.0
H1059 H 0.5533 0.12355 0.69026 0.0
H1060 H 0.62506 0.16747 0.71257 0.0
H1061 H 0.637 0.17091 0.66705 0.0
H1062 H 0.5973 0.1278 0.74676 0.0
H1063 H 0.59329 0.19099 0.70301 0.0
H1064 H 0.57919 0.20445 0.66634 0.0
H1065 H 0.50847 0.1586 0.68983 0.0
H1066 H 0.52211 0.14407 0.72601 0.0
H1067 H 0.58886 0.16596 0.86978 0.0
H1068 H 0.59719 0.16242 0.82477 0.0
H1069 H 0.52575 0.1397 0.80454 0.0
H1070 H 0.51784 0.14508 0.84986 0.0
H1071 H 0.55035 0.16505 0.76806 0.0
H1072 H 0.55017 0.10112 0.80979 0.0
H1073 H 0.55993 0.08044 0.84287 0.0
H1074 H 0.63217 0.12031 0.82181 0.0
H1075 H 0.6229 0.14147 0.78883 0.0
C1076 C 0.57834 0.13551 0.65941 0.0
C1077 C 0.60192 0.14934 0.65219 0.0
C1078 C 0.57162 0.13362 0.68537 0.0
C1079 C 0.58827 0.14551 0.70471 0.0
C1080 C 0.61193 0.1582 0.69788 0.0
C1081 C 0.61871 0.16019 0.67183 0.0
C1082 C 0.5808 0.14621 0.73169 0.0
C1083 C 0.58727 0.13616 0.75157 0.0
C1084 C 0.56681 0.15621 0.73765 0.0
C1085 C 0.55873 0.16628 0.71711 0.0
C1086 C 0.57473 0.18372 0.70033 0.0
C1087 C 0.56682 0.19149 0.67958 0.0
C1088 C 0.54295 0.1824 0.67576 0.0
C1089 C 0.52695 0.1656 0.69279 0.0
C1090 C 0.53476 0.15753 0.71338 0.0
C1091 C 0.57484 0.16006 0.85584 0.0
C1092 C 0.5526 0.15546 0.86347 0.0
C1093 C 0.57959 0.15787 0.82999 0.0
C1094 C 0.56196 0.15 0.81112 0.0
C1095 C 0.53968 0.1456 0.81864 0.0
C1096 C 0.5351 0.14856 0.84455 0.0
C1097 C 0.56719 0.14695 0.78365 0.0
C1098 C 0.56029 0.15656 0.76352 0.0
C1099 C 0.58019 0.13586 0.77732 0.0
C1100 C 0.58584 0.123 0.79695 0.0
C1101 C 0.56815 0.10557 0.8123 0.0
C1102 C 0.5736 0.09375 0.83103 0.0
C1103 C 0.59666 0.09909 0.83447 0.0
C1104 C 0.61431 0.11621 0.81913 0.0
C1105 C 0.60897 0.12809 0.80039 0.0
H1106 H 0.60084 0.08994 0.84899 0.0
H1107 H 0.53686 0.1884 0.65963 0.0
H1108 H 0.35875 0.52028 0.00807 0.0
H1109 H 0.36988 0.53028 0.96238 0.0
H1110 H 0.43846 0.58366 0.9859 0.0
H1111 H 0.42792 0.57346 0.03126 0.0
H1112 H 0.41091 0.59662 0.94812 0.0
H1113 H 0.4387 0.54191 0.96402 0.0
H1114 H 0.43323 0.50375 0.9776 0.0
H1115 H 0.38058 0.46965 0.9193 0.0
H1116 H 0.3855 0.50762 0.90564 0.0
H1117 H 0.47082 0.63437 0.82929 0.0
H1118 H 0.4605 0.62132 0.8742 0.0
H1119 H 0.40663 0.55398 0.84736 0.0
H1120 H 0.41759 0.56646 0.80266 0.0
H1121 H 0.42498 0.54706 0.88707 0.0
H1122 H 0.39535 0.59797 0.86939 0.0
H1123 H 0.39699 0.63417 0.85446 0.0
H1124 H 0.44656 0.67286 0.91422 0.0
H1125 H 0.44549 0.63692 0.92926 0.0
C1126 C 0.37628 0.53396 1.0035 0.0
C1127 C 0.39244 0.546 0.02341 0.0
C1128 C 0.38257 0.53968 0.97742 0.0
C1129 C 0.40494 0.55779 0.97087 0.0
C1130 C 0.42109 0.5697 0.99061 0.0
C1131 C 0.41502 0.5637 0.01656 0.0
C1132 C 0.41158 0.56466 0.94346 0.0
C1133 C 0.41422 0.58595 0.93478 0.0
C1134 C 0.4151 0.55032 0.92593 0.0
C1135 C 0.41228 0.52756 0.93402 0.0
C1136 C 0.4258 0.52626 0.95427 0.0
C1137 C 0.42283 0.50467 0.96195 0.0
C1138 C 0.40651 0.48428 0.94938 0.0
C1139 C 0.39318 0.48545 0.92905 0.0
C1140 C 0.39606 0.507 0.92133 0.0
C1141 C 0.45694 0.61671 0.83297 0.0
C1142 C 0.44501 0.60153 0.81231 0.0
C1143 C 0.45091 0.6093 0.85868 0.0
C1144 C 0.4324 0.58677 0.86429 0.0
C1145 C 0.42093 0.57142 0.84367 0.0
C1146 C 0.42723 0.57865 0.81802 0.0
C1147 C 0.42463 0.57931 0.89152 0.0
C1148 C 0.42167 0.55784 0.90025 0.0
C1149 C 0.42017 0.59321 0.90891 0.0
C1150 C 0.4205 0.61479 0.9003 0.0
C1151 C 0.40669 0.61422 0.87927 0.0
C1152 C 0.40752 0.63469 0.87078 0.0
C1153 C 0.42192 0.65581 0.88334 0.0
C1154 C 0.43544 0.65649 0.90449 0.0
C1155 C 0.43472 0.63607 0.91302 0.0
H1156 H 0.42257 0.67165 0.87671 0.0
H1157 H 0.40425 0.46758 0.95534 0.0
H1158 H 0.87133 0.42242 0.20125 0.0
H1159 H 0.87355 0.43724 0.15739 0.0
H1160 H 0.81803 0.36975 0.13334 0.0
H1161 H 0.81617 0.35455 0.17696 0.0
H1162 H 0.8474 0.38726 0.09593 0.0
H1163 H 0.80871 0.41556 0.14964 0.0
H1164 H 0.80242 0.43551 0.18647 0.0
H1165 H 0.86198 0.50027 0.16351 0.0
H1166 H 0.86891 0.48062 0.12681 0.0
H1167 H 0.81446 0.4599 1.00305 0.0
H1168 H 0.81576 0.44647 0.04687 0.0
H1169 H 0.87633 0.44171 0.02619 0.0
H1170 H 0.87446 0.45409 0.98209 0.0
H1171 H 0.84258 0.4593 0.08603 0.0
H1172 H 0.87727 0.3974 0.0567 0.0
H1173 H 0.87589 0.37336 0.01946 0.0
H1174 H 0.81241 0.36924 0.99329 0.0
H1175 H 0.81329 0.39302 0.0305 0.0
C1176 C 0.85983 0.41056 0.18656 0.0
C1177 C 0.84343 0.38727 0.19282 0.0
C1178 C 0.86099 0.41916 0.16148 0.0
C1179 C 0.84556 0.40482 0.14212 0.0
C1180 C 0.83004 0.38125 0.14792 0.0
C1181 C 0.82902 0.37255 0.17296 0.0
C1182 C 0.84514 0.41452 0.1161 0.0
C1183 C 0.84645 0.40307 0.09381 0.0
C1184 C 0.84321 0.4348 0.11314 0.0
C1185 C 0.83945 0.44656 0.13559 0.0
C1186 C 0.82062 0.434 0.1526 0.0
C1187 C 0.81691 0.44527 0.17342 0.0
C1188 C 0.83176 0.46915 0.17727 0.0
C1189 C 0.85047 0.48178 0.16046 0.0
C1190 C 0.85431 0.47058 0.13966 0.0
C1191 C 0.82823 0.45627 0.0079 0.0
C1192 C 0.8442 0.45784 0.98893 0.0
C1193 C 0.82895 0.44854 0.03302 0.0
C1194 C 0.84579 0.44246 0.0398 0.0
C1195 C 0.8627 0.44555 0.02133 0.0
C1196 C 0.86173 0.45285 0.99613 0.0
C1197 C 0.84528 0.43227 0.06585 0.0
C1198 C 0.84374 0.4436 0.08815 0.0
C1199 C 0.8461 0.41138 0.0688 0.0
C1200 C 0.84549 0.39718 0.04625 0.0
C1201 C 0.86301 0.39133 0.04301 0.0
C1202 C 0.86231 0.37775 0.02191 0.0
C1203 C 0.84411 0.36982 1.00399 0.0
C1204 C 0.82655 0.37546 0.00713 0.0
C1205 C 0.82716 0.38902 0.0282 0.0
H1206 H 0.84358 0.35924 0.98773 0.0
H1207 H 0.82874 0.47789 0.19326 0.0
H1208 H 0.35384 0.81724 0.16811 0.0
H1209 H 0.36844 0.82022 0.21222 0.0
H1210 H 0.43566 0.87639 0.18847 0.0
H1211 H 0.42144 0.87306 0.14416 0.0
H1212 H 0.44166 0.84675 0.21534 0.0
H1213 H 0.39742 0.88511 0.22771 0.0
H1214 H 0.36271 0.88963 0.22558 0.0
H1215 H 0.32502 0.82921 0.27389 0.0
H1216 H 0.35942 0.82414 0.27602 0.0
H1217 H 0.45086 0.87633 0.36407 0.0
H1218 H 0.43964 0.87891 0.31972 0.0
H1219 H 0.44106 0.81631 0.2999 0.0
H1220 H 0.45299 0.81397 0.34419 0.0
H1221 H 0.40204 0.85148 0.29473 0.0
H1222 H 0.45169 0.81568 0.23562 0.0
H1223 H 0.48852 0.81497 0.2377 0.0
H1224 H 0.51968 0.87795 0.28272 0.0
H1225 H 0.48315 0.87921 0.28062 0.0
C1226 C 0.37161 0.83052 0.17231 0.0
C1227 C 0.38644 0.84487 0.15245 0.0
C1228 C 0.37996 0.83222 0.19763 0.0
C1229 C 0.40319 0.84857 0.20379 0.0
C1230 C 0.41773 0.86353 0.18423 0.0
C1231 C 0.40949 0.86171 0.15888 0.0
C1232 C 0.41268 0.84938 0.23025 0.0
C1233 C 0.433 0.84785 0.23268 0.0
C1234 C 0.40162 0.85107 0.25296 0.0
C1235 C 0.38094 0.85413 0.25183 0.0
C1236 C 0.38168 0.87269 0.23773 0.0
C1237 C 0.36207 0.87537 0.23655 0.0
C1238 C 0.34166 0.85969 0.24954 0.0
C1239 C 0.34083 0.84133 0.26381 0.0
C1240 C 0.36039 0.83856 0.26504 0.0
C1241 C 0.44915 0.86327 0.35021 0.0
C1242 C 0.45287 0.84493 0.35777 0.0
C1243 C 0.44258 0.86471 0.32484 0.0
C1244 C 0.43947 0.84784 0.30635 0.0
C1245 C 0.44366 0.82977 0.31364 0.0
C1246 C 0.45049 0.82844 0.33903 0.0
C1247 C 0.43098 0.84878 0.27982 0.0
C1248 C 0.41075 0.85048 0.27738 0.0
C1249 C 0.44244 0.84779 0.25709 0.0
C1250 C 0.4646 0.84739 0.25817 0.0
C1251 C 0.46643 0.82943 0.24587 0.0
C1252 C 0.48725 0.82892 0.24707 0.0
C1253 C 0.5064 0.84636 0.26041 0.0
C1254 C 0.50481 0.8644 0.27248 0.0
C1255 C 0.48404 0.86501 0.27132 0.0
H1256 H 0.5225 0.84593 0.26133 0.0
H1257 H 0.32649 0.86179 0.2486 0.0
H1258 H 0.52966 0.40749 0.32154 0.0
H1259 H 0.54211 0.42151 0.36579 0.0
H1260 H 0.5774 0.38162 0.37011 0.0
H1261 H 0.56327 0.36616 0.32673 0.0
H1262 H 0.56258 0.3806 0.41415 0.0
H1263 H 0.60615 0.44575 0.35692 0.0
H1264 H 0.61248 0.47449 0.32282 0.0
H1265 H 0.57253 0.49764 0.36613 0.0
H1266 H 0.56609 0.46915 0.40063 0.0
H1267 H 0.64134 0.44837 0.51478 0.0
H1268 H 0.62754 0.43522 0.47058 0.0
H1269 H 0.57338 0.45247 0.4809 0.0
H1270 H 0.58671 0.4652 0.52533 0.0
H1271 H 0.59809 0.46552 0.43052 0.0
H1272 H 0.55874 0.40052 0.48999 0.0
H1273 H 0.55834 0.37451 0.5245 0.0
H1274 H 0.59585 0.35236 0.47532 0.0
H1275 H 0.59709 0.37875 0.44072 0.0
C1276 C 0.53974 0.40145 0.33219 0.0
C1277 C 0.54545 0.38571 0.32077 0.0
C1278 C 0.54717 0.40972 0.35738 0.0
C1279 C 0.56145 0.40333 0.37125 0.0
C1280 C 0.56651 0.38699 0.36002 0.0
C1281 C 0.55839 0.37809 0.33518 0.0
C1282 C 0.57141 0.41386 0.39714 0.0
C1283 C 0.57059 0.39922 0.41746 0.0
C1284 C 0.58176 0.43817 0.40198 0.0
C1285 C 0.58544 0.45516 0.38119 0.0
C1286 C 0.59859 0.45687 0.35908 0.0
C1287 C 0.60221 0.47312 0.33969 0.0
C1288 C 0.59276 0.48774 0.34218 0.0
C1289 C 0.57979 0.48626 0.36418 0.0
C1290 C 0.57622 0.47013 0.3837 0.0
C1291 C 0.62681 0.44985 0.5075 0.0
C1292 C 0.6151 0.4578 0.52363 0.0
C1293 C 0.61887 0.44219 0.48228 0.0
C1294 C 0.59932 0.44268 0.4726 0.0
C1295 C 0.58847 0.45192 0.48805 0.0
C1296 C 0.59612 0.45918 0.51342 0.0
C1297 C 0.58931 0.43228 0.44699 0.0
C1298 C 0.59009 0.44693 0.42692 0.0
C1299 C 0.57948 0.40812 0.44223 0.0
C1300 C 0.57822 0.39182 0.46283 0.0
C1301 C 0.56711 0.39028 0.48659 0.0
C1302 C 0.56672 0.37547 0.50618 0.0
C1303 C 0.57711 0.36185 0.50213 0.0
C1304 C 0.58785 0.36296 0.47845 0.0
C1305 C 0.58843 0.37787 0.45885 0.0
H1306 H 0.57674 0.35037 0.51732 0.0
H1307 H 0.59557 0.50028 0.32711 0.0
H1308 H 0.8995 0.41508 0.32493 0.0
H1309 H 0.93733 0.42981 0.34549 0.0
H1310 H 0.96203 0.4091 0.27887 0.0
H1311 H 0.92358 0.39342 0.25835 0.0
H1312 H 0.97999 0.40278 0.32415 0.0
H1313 H 0.9734 0.46417 0.28321 0.0
H1314 H 0.95429 0.48705 0.27312 0.0
H1315 H 0.95806 0.50607 0.35331 0.0
H1316 H 0.97687 0.48299 0.36394 0.0
H1317 H 0.09442 0.51992 0.3556 0.0
H1318 H 0.05754 0.49681 0.33337 0.0
H1319 H 0.0354 0.44387 0.39271 0.0
H1320 H 0.07302 0.46676 0.41478 0.0
H1321 H 0.01691 0.48637 0.34835 0.0
H1322 H 0.99444 0.39089 0.36686 0.0
H1323 H 0.01476 0.36856 0.37302 0.0
H1324 H 0.07336 0.42013 0.32983 0.0
H1325 H 0.05326 0.44258 0.32308 0.0
C1326 C 0.91289 0.41347 0.31467 0.0
C1327 C 0.90877 0.40352 0.2898 0.0
C1328 C 0.93449 0.42184 0.3265 0.0
C1329 C 0.95261 0.42099 0.31348 0.0
C1330 C 0.94826 0.40999 0.28918 0.0
C1331 C 0.92639 0.40119 0.27744 0.0
C1332 C 0.97643 0.43339 0.32445 0.0
C1333 C 0.98815 0.42106 0.32943 0.0
C1334 C 0.98721 0.45736 0.33081 0.0
C1335 C 0.97638 0.47171 0.3244 0.0
C1336 C 0.97005 0.47314 0.29871 0.0
C1337 C 0.95927 0.48614 0.29289 0.0
C1338 C 0.95491 0.49796 0.31257 0.0
C1339 C 0.96142 0.49689 0.33809 0.0
C1340 C 0.97217 0.48387 0.34402 0.0
C1341 C 0.08179 0.50331 0.36395 0.0
C1342 C 0.08653 0.49524 0.3871 0.0
C1343 C 0.06069 0.4901 0.35116 0.0
C1344 C 0.04368 0.4686 0.36131 0.0
C1345 C 0.0484 0.46027 0.3843 0.0
C1346 C 0.0698 0.47341 0.39699 0.0
C1347 C 0.02064 0.45581 0.34837 0.0
C1348 C 0.00893 0.4681 0.34307 0.0
C1349 C 0.0103 0.43205 0.34109 0.0
C1350 C 0.02242 0.41853 0.34472 0.0
C1351 C 0.01162 0.39741 0.3586 0.0
C1352 C 0.02311 0.38474 0.3622 0.0
C1353 C 0.04537 0.39296 0.3519 0.0
C1354 C 0.05616 0.41383 0.33789 0.0
C1355 C 0.04473 0.42655 0.33419 0.0
H1356 H 0.05424 0.38314 0.35474 0.0
H1357 H 0.94653 0.50798 0.30803 0.0
H1358 H 0.5372 0.91937 0.4336 0.0
H1359 H 0.56294 0.95584 0.45675 0.0
H1360 H 0.50287 0.95591 0.48876 0.0
H1361 H 0.47724 0.91988 0.46599 0.0
H1362 H 0.56598 0.00059 0.45736 0.0
H1363 H 0.51163 0.96675 0.55217 0.0
H1364 H 0.48769 0.92904 0.57424 0.0
H1365 H 0.52691 0.90149 0.53743 0.0
H1366 H 0.5514 0.93917 0.51553 0.0
H1367 H 0.55983 0.08416 0.53137 0.0
H1368 H 0.5519 0.04852 0.50917 0.0
H1369 H 0.59832 0.04037 0.56118 0.0
H1370 H 0.60666 0.07647 0.58364 0.0
H1371 H 0.55458 -0.00107 0.55272 0.0
H1372 H 0.61786 0.05633 0.50422 0.0
H1373 H 0.64077 0.094 0.48175 0.0
H1374 H 0.58572 0.07433 0.4263 0.0
H1375 H 0.56227 0.0367 0.4487 0.0
C1376 C 0.52953 0.92739 0.44528 0.0
C1377 C 0.50521 0.91666 0.44817 0.0
C1378 C 0.54423 0.94813 0.4585 0.0
C1379 C 0.53473 0.9582 0.47481 0.0
C1380 C 0.5105 0.94811 0.47664 0.0
C1381 C 0.49589 0.92754 0.46353 0.0
C1382 C 0.5497 0.97893 0.49073 0.0
C1383 C 0.56386 0.00026 0.47824 0.0
C1384 C 0.54731 0.97824 0.51805 0.0
C1385 C 0.53333 0.95582 0.53214 0.0
C1386 C 0.51533 0.95275 0.549 0.0
C1387 C 0.50162 0.93135 0.56144 0.0
C1388 C 0.50576 0.91288 0.55722 0.0
C1389 C 0.5237 0.91581 0.54066 0.0
C1390 C 0.53751 0.93719 0.52823 0.0
C1391 C 0.56832 0.07481 0.53827 0.0
C1392 C 0.58388 0.08315 0.55931 0.0
C1393 C 0.56387 0.05452 0.52543 0.0
C1394 C 0.57481 0.04209 0.53333 0.0
C1395 C 0.58987 0.0499 0.55474 0.0
C1396 C 0.59455 0.07044 0.56754 0.0
C1397 C 0.56981 0.0207 0.51916 0.0
C1398 C 0.55742 -0.00077 0.53197 0.0
C1399 C 0.57405 0.02126 0.49219 0.0
C1400 C 0.58827 0.04367 0.47821 0.0
C1401 C 0.61058 0.06007 0.48731 0.0
C1402 C 0.62366 0.08143 0.47458 0.0
C1403 C 0.6147 0.08656 0.45262 0.0
C1404 C 0.59265 0.07032 0.4433 0.0
C1405 C 0.57947 0.04894 0.45598 0.0
H1406 H 0.62485 0.10312 0.44281 0.0
H1407 H 0.49506 0.8963 0.56679 0.0
H1408 H 0.53041 0.61631 0.73744 0.0
H1409 H 0.55658 0.60414 0.71833 0.0
H1410 H 0.49738 0.53741 0.69869 0.0
H1411 H 0.4712 0.5495 0.71734 0.0
H1412 H 0.53646 0.53516 0.71902 0.0
H1413 H 0.51718 0.57719 0.65484 0.0
H1414 H 0.51586 0.61186 0.63968 0.0
H1415 H 0.5903 0.65321 0.64616 0.0
H1416 H 0.59199 0.61881 0.66181 0.0
H1417 H 0.55648 0.48114 0.61776 0.0
H1418 H 0.54227 0.50307 0.64199 0.0
H1419 H 0.61143 0.56318 0.64269 0.0
H1420 H 0.62585 0.54126 0.61776 0.0
H1421 H 0.5756 0.57454 0.63691 0.0
H1422 H 0.59574 0.53133 0.69456 0.0
H1423 H 0.59723 0.49667 0.70924 0.0
H1424 H 0.52269 0.45833 0.716 0.0
H1425 H 0.52073 0.49273 0.70104 0.0
C1426 C 0.52305 0.59889 0.72949 0.0
C1427 C 0.49879 0.58385 0.72874 0.0
C1428 C 0.53799 0.59203 0.71852 0.0
C1429 C 0.52883 0.56995 0.70703 0.0
C1430 C 0.50473 0.5545 0.70753 0.0
C1431 C 0.48981 0.56146 0.71809 0.0
C1432 C 0.54391 0.56329 0.69267 0.0
C1433 C 0.5451 0.54379 0.70113 0.0
C1434 C 0.55567 0.57501 0.66972 0.0
C1435 C 0.55469 0.59552 0.65978 0.0
C1436 C 0.53325 0.59371 0.65321 0.0
C1437 C 0.53243 0.61331 0.64451 0.0
C1438 C 0.55298 0.63474 0.64203 0.0
C1439 C 0.57439 0.6366 0.64814 0.0
C1440 C 0.57529 0.61707 0.65693 0.0
C1441 C 0.56863 0.49915 0.62268 0.0
C1442 C 0.59231 0.50943 0.61619 0.0
C1443 C 0.5605 0.51164 0.63655 0.0
C1444 C 0.57592 0.53453 0.64464 0.0
C1445 C 0.59932 0.54546 0.63674 0.0
C1446 C 0.60749 0.53296 0.62251 0.0
C1447 C 0.56753 0.54597 0.66287 0.0
C1448 C 0.56755 0.5663 0.65516 0.0
C1449 C 0.55703 0.53515 0.68669 0.0
C1450 C 0.55809 0.51461 0.69658 0.0
C1451 C 0.57965 0.51549 0.69911 0.0
C1452 C 0.58058 0.49588 0.70745 0.0
C1453 C 0.56006 0.47527 0.71348 0.0
C1454 C 0.53857 0.4743 0.71132 0.0
C1455 C 0.53755 0.49388 0.70297 0.0
H1456 H 0.56081 0.46007 0.71986 0.0
H1457 H 0.55232 0.6499 0.6353 0.0
H1458 H 0.08199 0.61899 0.77644 0.0
H1459 H 0.04443 0.60541 0.7983 0.0
H1460 H 0.03394 0.53567 0.80147 0.0
H1461 H 0.07149 0.54914 0.7802 0.0
H1462 H 0.99302 0.53876 0.78772 0.0
H1463 H 0.05596 0.56693 0.8513 0.0
H1464 H 0.09332 0.59721 0.86959 0.0
H1465 H 0.06494 0.64244 0.88041 0.0
H1466 H 0.02749 0.61251 0.86175 0.0
H1467 H 0.91706 0.47372 0.88496 0.0
H1468 H 0.95279 0.49592 0.86009 0.0
H1469 H 0.95347 0.5598 0.87869 0.0
H1470 H 0.91769 0.53759 0.90423 0.0
H1471 H 0.99766 0.56553 0.87862 0.0
H1472 H 0.93305 0.53589 0.82134 0.0
H1473 H 0.89543 0.50607 0.80321 0.0
H1474 H 0.92603 0.46516 0.77952 0.0
H1475 H 0.96383 0.49462 0.79784 0.0
C1476 C 0.07141 0.60068 0.78134 0.0
C1477 C 0.07961 0.58509 0.77675 0.0
C1478 C 0.05007 0.593 0.79387 0.0
C1479 C 0.03656 0.56959 0.80155 0.0
C1480 C 0.04413 0.55379 0.79563 0.0
C1481 C 0.06558 0.56151 0.78357 0.0
C1482 C 0.01545 0.56167 0.81759 0.0
C1483 C 0.99397 0.54459 0.80757 0.0
C1484 C 0.0167 0.56983 0.84323 0.0
C1485 C 0.03904 0.58762 0.85485 0.0
C1486 C 0.05775 0.5834 0.85738 0.0
C1487 C 0.07893 0.60049 0.86784 0.0
C1488 C 0.08154 0.62177 0.87608 0.0
C1489 C 0.06292 0.62597 0.87396 0.0
C1490 C 0.04171 0.60895 0.86345 0.0
C1491 C 0.92496 0.49253 0.8841 0.0
C1492 C 0.91446 0.50391 0.89632 0.0
C1493 C 0.94533 0.50519 0.86979 0.0
C1494 C 0.95543 0.52943 0.86703 0.0
C1495 C 0.94582 0.54107 0.88044 0.0
C1496 C 0.92543 0.52838 0.89504 0.0
C1497 C 0.97528 0.54209 0.84899 0.0
C1498 C 0.99652 0.56004 0.8586 0.0
C1499 C 0.97377 0.53493 0.82283 0.0
C1500 C 0.95126 0.51743 0.8111 0.0
C1501 C 0.93175 0.52049 0.81236 0.0
C1502 C 0.91038 0.50364 0.80206 0.0
C1503 C 0.90831 0.48369 0.79028 0.0
C1504 C 0.92766 0.48062 0.78866 0.0
C1505 C 0.94908 0.49742 0.79895 0.0
H1506 H 0.89173 0.47063 0.78237 0.0
H1507 H 0.09795 0.63498 0.88416 0.0
H1508 H 0.4833 0.07396 0.92554 0.0
H1509 H 0.46032 0.0354 0.9455 0.0
H1510 H 0.51213 0.0551 0.00565 0.0
H1511 H 0.53545 0.0931 0.98541 0.0
H1512 H 0.49915 0.01334 0.99154 0.0
H1513 H 0.45973 0.05471 0.01469 0.0
H1514 H 0.44053 0.07773 0.00592 0.0
H1515 H 0.38744 0.02088 0.96201 0.0
H1516 H 0.40657 0.99766 0.97014 0.0
H1517 H 0.39996 0.92555 0.08113 0.0
H1518 H 0.41912 0.96378 0.05955 0.0
H1519 H 0.43903 0.93476 0.99629 0.0
H1520 H 0.42081 0.89704 0.01802 0.0
H1521 H 0.41592 0.98194 0.01407 0.0
H1522 H 0.49303 0.97175 0.97729 0.0
H1523 H 0.51356 0.95068 0.98955 0.0
H1524 H 0.49378 0.94946 0.06907 0.0
H1525 H 0.47346 0.97083 0.05735 0.0
C1526 C 0.48985 0.06996 0.9429 0.0
C1527 C 0.5112 0.08656 0.95385 0.0
C1528 C 0.47663 0.048 0.95439 0.0
C1529 C 0.48435 0.04246 0.97729 0.0
C1530 C 0.50582 0.05893 0.98798 0.0
C1531 C 0.51915 0.08069 0.97635 0.0
C1532 C 0.47021 0.01958 0.99032 0.0
C1533 C 0.48095 0.00651 0.9964 0.0
C1534 C 0.44657 0.01083 0.9972 0.0
C1535 C 0.4347 0.02452 0.99283 0.0
C1536 C 0.44403 0.04716 1.00305 0.0
C1537 C 0.43316 0.06025 0.99819 0.0
C1538 C 0.41281 0.0508 0.98336 0.0
C1539 C 0.40323 0.02819 0.97346 0.0
C1540 C 0.41407 0.01505 0.9782 0.0
C1541 C 0.40832 0.92737 0.06255 0.0
C1542 C 0.40932 0.90849 0.0515 0.0
C1543 C 0.41915 0.94914 0.0502 0.0
C1544 C 0.4309 0.95221 0.02657 0.0
C1545 C 0.43056 0.93294 0.0148 0.0
C1546 C 0.42014 0.91139 0.02727 0.0
C1547 C 0.44487 0.97572 0.01492 0.0
C1548 C 0.43411 0.98885 0.00913 0.0
C1549 C 0.46875 0.98493 0.009 0.0
C1550 C 0.48155 0.97271 0.01638 0.0
C1551 C 0.4932 0.96712 0.99741 0.0
C1552 C 0.50477 0.9551 1.00426 0.0
C1553 C 0.50491 0.94867 0.03006 0.0
C1554 C 0.4936 0.95438 0.04909 0.0
C1555 C 0.48205 0.96644 0.04235 0.0
H1556 H 0.51381 0.9393 0.03531 0.0
H1557 H 0.40445 0.06097 0.97957 0.0
H1558 H 0.38032 0.46279 0.1056 0.0
H1559 H 0.39293 0.43792 0.12731 0.0
H1560 H 0.46143 0.49761 0.13813 0.0
H1561 H 0.4489 0.52255 0.11695 0.0
H1562 H 0.46084 0.45564 0.12206 0.0
H1563 H 0.42545 0.48355 0.18527 0.0
H1564 H 0.39281 0.48775 0.20171 0.0
H1565 H 0.34946 0.41323 0.20502 0.0
H1566 H 0.38179 0.4086 0.18822 0.0
H1567 H 0.52061 0.44242 0.22269 0.0
H1568 H 0.49828 0.45567 0.19762 0.0
H1569 H 0.43631 0.38857 0.20739 0.0
H1570 H 0.45868 0.37516 0.23308 0.0
H1571 H 0.42752 0.42604 0.20943 0.0
H1572 H 0.46337 0.39734 0.15211 0.0
H1573 H 0.49517 0.39205 0.13523 0.0
H1574 H 0.53603 0.46549 0.11959 0.0
H1575 H 0.50443 0.47124 0.13652 0.0
C1576 C 0.39819 0.47047 0.11215 0.0
C1577 C 0.41365 0.49458 0.1097 0.0
C1578 C 0.40531 0.45629 0.12463 0.0
C1579 C 0.42804 0.46602 0.13441 0.0
C1580 C 0.44382 0.48982 0.13067 0.0
C1581 C 0.43664 0.50403 0.11864 0.0
C1582 C 0.43523 0.45203 0.15016 0.0
C1583 C 0.45355 0.44912 0.14113 0.0
C1584 C 0.42519 0.44293 0.17468 0.0
C1585 C 0.40592 0.44573 0.18521 0.0
C1586 C 0.4089 0.46806 0.18932 0.0
C1587 C 0.39047 0.47052 0.19872 0.0
C1588 C 0.36904 0.45077 0.20432 0.0
C1589 C 0.36605 0.42852 0.20062 0.0
C1590 C 0.38442 0.42596 0.19117 0.0
C1591 C 0.50214 0.43056 0.21989 0.0
C1592 C 0.49143 0.40767 0.22958 0.0
C1593 C 0.48942 0.43814 0.2055 0.0
C1594 C 0.4658 0.42291 0.20014 0.0
C1595 C 0.45459 0.40051 0.21119 0.0
C1596 C 0.46735 0.39291 0.22587 0.0
C1597 C 0.45362 0.4303 0.18164 0.0
C1598 C 0.43443 0.43201 0.19012 0.0
C1599 C 0.46265 0.43805 0.15642 0.0
C1600 C 0.48157 0.43472 0.1457 0.0
C1601 C 0.47918 0.41238 0.14516 0.0
C1602 C 0.49718 0.40931 0.13559 0.0
C1603 C 0.51768 0.42844 0.12644 0.0
C1604 C 0.52015 0.45068 0.1267 0.0
C1605 C 0.50216 0.45385 0.1362 0.0
H1606 H 0.53163 0.42603 0.11909 0.0
H1607 H 0.35479 0.45272 0.21159 0.0
H1608 H 0.2302 0.51492 0.36134 0.0
H1609 H 0.25088 0.51026 0.32438 0.0
H1610 H 0.21469 0.53222 0.2722 0.0
H1611 H 0.19452 0.53765 0.30906 0.0
H1612 H 0.22072 0.48836 0.2586 0.0
H1613 H 0.26032 0.57162 0.2811 0.0
H1614 H 0.27855 0.60346 0.31311 0.0
H1615 H 0.32744 0.58148 0.33355 0.0
H1616 H 0.30922 0.54924 0.30191 0.0
H1617 H 0.28771 0.51583 0.14292 0.0
H1618 H 0.2632 0.51284 0.17987 0.0
H1619 H 0.32009 0.52805 0.23203 0.0
H1620 H 0.34497 0.53263 0.19497 0.0
H1621 H 0.30274 0.55139 0.24734 0.0
H1622 H 0.26774 0.47101 0.22416 0.0
H1623 H 0.24956 0.43657 0.19558 0.0
H1624 H 0.19292 0.44886 0.1801 0.0
H1625 H 0.21093 0.48357 0.20833 0.0
C1626 C 0.2264 0.51842 0.34195 0.0
C1627 C 0.21084 0.52674 0.33804 0.0
C1628 C 0.23822 0.51576 0.32091 0.0
C1629 C 0.23424 0.52088 0.29565 0.0
C1630 C 0.21788 0.5281 0.29157 0.0
C1631 C 0.20648 0.53129 0.31262 0.0
C1632 C 0.24849 0.52055 0.27374 0.0
C1633 C 0.23861 0.50217 0.25587 0.0
C1634 C 0.27197 0.53822 0.27082 0.0
C1635 C 0.28325 0.55789 0.28937 0.0
C1636 C 0.27483 0.57347 0.29258 0.0
C1637 C 0.28518 0.5916 0.31062 0.0
C1638 C 0.3041 0.59445 0.32541 0.0
C1639 C 0.31276 0.57922 0.32211 0.0
C1640 C 0.30244 0.56103 0.30411 0.0
C1641 C 0.29482 0.51824 0.16232 0.0
C1642 C 0.31818 0.52442 0.16613 0.0
C1643 C 0.28077 0.51642 0.18351 0.0
C1644 C 0.28958 0.51989 0.20898 0.0
C1645 C 0.3128 0.52539 0.21269 0.0
C1646 C 0.327 0.52788 0.1915 0.0
C1647 C 0.27513 0.51904 0.23165 0.0
C1648 C 0.28495 0.53733 0.24983 0.0
C1649 C 0.25172 0.50093 0.23512 0.0
C1650 C 0.2408 0.48002 0.21818 0.0
C1651 C 0.25149 0.46646 0.21452 0.0
C1652 C 0.24121 0.44688 0.1984 0.0
C1653 C 0.22013 0.44056 0.18598 0.0
C1654 C 0.20926 0.45379 0.18971 0.0
C1655 C 0.21949 0.47341 0.20579 0.0
H1656 H 0.2122 0.42539 0.1735 0.0
H1657 H 0.31207 0.6085 0.33936 0.0
H1658 H 0.77166 0.27795 0.3131 0.0
H1659 H 0.74967 0.25314 0.35003 0.0
H1660 H 0.76436 0.31441 0.39399 0.0
H1661 H 0.78585 0.33907 0.35743 0.0
H1662 H 0.75868 0.24891 0.40132 0.0
H1663 H 0.71633 0.3051 0.42557 0.0
H1664 H 0.70457 0.33047 0.40294 0.0
H1665 H 0.69759 0.29411 0.33162 0.0
H1666 H 0.70897 0.26831 0.35388 0.0
H1667 H 0.70546 0.22007 0.52696 0.0
H1668 H 0.72885 0.23861 0.48812 0.0
H1669 H 0.66595 0.2167 0.44395 0.0
H1670 H 0.64268 0.19894 0.48267 0.0
H1671 H 0.69397 0.25935 0.43366 0.0
H1672 H 0.70146 0.19134 0.43697 0.0
H1673 H 0.71033 0.1627 0.45667 0.0
H1674 H 0.78153 0.21628 0.46763 0.0
H1675 H 0.77302 0.24532 0.44832 0.0
C1676 C 0.77036 0.28609 0.33075 0.0
C1677 C 0.7802 0.31045 0.33217 0.0
C1678 C 0.75786 0.27192 0.35184 0.0
C1679 C 0.75503 0.28191 0.37461 0.0
C1680 C 0.76591 0.30627 0.37646 0.0
C1681 C 0.77822 0.32036 0.35548 0.0
C1682 C 0.73967 0.26712 0.396 0.0
C1683 C 0.7445 0.25112 0.40841 0.0
C1684 C 0.72081 0.26961 0.40487 0.0
C1685 C 0.71369 0.2849 0.39138 0.0
C1686 C 0.71218 0.30245 0.40509 0.0
C1687 C 0.7056 0.31692 0.39232 0.0
C1688 C 0.70037 0.31391 0.36586 0.0
C1689 C 0.7017 0.29645 0.3521 0.0
C1690 C 0.70824 0.28192 0.36478 0.0
C1691 C 0.69666 0.21908 0.5089 0.0
C1692 C 0.67223 0.20819 0.50794 0.0
C1693 C 0.71004 0.22958 0.48665 0.0
C1694 C 0.69921 0.22899 0.46295 0.0
C1695 C 0.67478 0.21756 0.46195 0.0
C1696 C 0.66147 0.20737 0.48416 0.0
C1697 C 0.71314 0.24129 0.4395 0.0
C1698 C 0.70808 0.25697 0.42665 0.0
C1699 C 0.73132 0.23798 0.42989 0.0
C1700 C 0.73654 0.22055 0.4414 0.0
C1701 C 0.71897 0.19705 0.44375 0.0
C1702 C 0.72394 0.18074 0.45482 0.0
C1703 C 0.74647 0.18767 0.46345 0.0
C1704 C 0.76409 0.21093 0.46096 0.0
C1705 C 0.7592 0.22733 0.44993 0.0
H1706 H 0.75028 0.17502 0.47202 0.0
H1707 H 0.6952 0.32507 0.35603 0.0
H1708 H 0.48333 0.713 0.69788 0.0
H1709 H 0.48895 0.73953 0.66167 0.0
H1710 H 0.46871 0.683 0.60756 0.0
H1711 H 0.46236 0.6563 0.64356 0.0
H1712 H 0.51116 0.73075 0.59421 0.0
H1713 H 0.42911 0.69097 0.61975 0.0
H1714 H 0.39777 0.67916 0.65209 0.0
H1715 H 0.42224 0.75107 0.67021 0.0
H1716 H 0.45398 0.76327 0.63825 0.0
H1717 H 0.48238 0.76939 0.47872 0.0
H1718 H 0.48632 0.74889 0.51618 0.0
H1719 H 0.47472 0.79363 0.56754 0.0
H1720 H 0.46909 0.81288 0.53005 0.0
H1721 H 0.4509 0.75378 0.58459 0.0
H1722 H 0.53048 0.79536 0.55821 0.0
H1723 H 0.56393 0.80949 0.52839 0.0
H1724 H 0.54812 0.73906 0.51478 0.0
H1725 H 0.51437 0.72448 0.54426 0.0
C1726 C 0.48039 0.70635 0.67823 0.0
C1727 C 0.47228 0.68259 0.6735 0.0
C1728 C 0.4836 0.72148 0.65762 0.0
C1729 C 0.47924 0.71317 0.632 0.0
C1730 C 0.47224 0.68973 0.62718 0.0
C1731 C 0.46851 0.6745 0.64777 0.0
C1732 C 0.48015 0.72836 0.61036 0.0
C1733 C 0.49799 0.73577 0.5919 0.0
C1734 C 0.46331 0.73536 0.60791 0.0
C1735 C 0.44407 0.72801 0.62687 0.0
C1736 C 0.42794 0.70425 0.63082 0.0
C1737 C 0.41008 0.69749 0.64904 0.0
C1738 C 0.40806 0.71435 0.66326 0.0
C1739 C 0.42385 0.73802 0.65922 0.0
C1740 C 0.44177 0.74487 0.64106 0.0
C1741 C 0.48101 0.775 0.49805 0.0
C1742 C 0.47545 0.79268 0.50155 0.0
C1743 C 0.4834 0.76337 0.51952 0.0
C1744 C 0.48114 0.76981 0.54494 0.0
C1745 C 0.47643 0.78814 0.54828 0.0
C1746 C 0.47334 0.79925 0.52684 0.0
C1747 C 0.48209 0.75652 0.56794 0.0
C1748 C 0.46443 0.74924 0.58677 0.0
C1749 C 0.49945 0.75012 0.57097 0.0
C1750 C 0.51978 0.75882 0.55328 0.0
C1751 C 0.53404 0.78287 0.54872 0.0
C1752 C 0.55307 0.79097 0.5319 0.0
C1753 C 0.55811 0.77518 0.51966 0.0
C1754 C 0.54417 0.75127 0.52426 0.0
C1755 C 0.52511 0.74308 0.54105 0.0
H1756 H 0.57285 0.78148 0.50664 0.0
H1757 H 0.39422 0.70908 0.67735 0.0
H1758 H 0.77135 0.49305 0.87015 0.0
H1759 H 0.74954 0.49601 0.83308 0.0
H1760 H 0.78686 0.47512 0.78135 0.0
H1761 H 0.80797 0.47125 0.81826 0.0
H1762 H 0.77673 0.51873 0.76862 0.0
H1763 H 0.74525 0.43457 0.78714 0.0
H1764 H 0.73008 0.40204 0.81847 0.0
H1765 H 0.67683 0.41716 0.84181 0.0
H1766 H 0.69203 0.45009 0.81092 0.0
H1767 H 0.71372 0.48566 0.65045 0.0
H1768 H 0.73776 0.49092 0.6886 0.0
H1769 H 0.67748 0.46793 0.73783 0.0
H1770 H 0.6532 0.46135 0.69955 0.0
H1771 H 0.69911 0.44876 0.75449 0.0
H1772 H 0.72468 0.5279 0.73229 0.0
H1773 H 0.73959 0.56267 0.70427 0.0
H1774 H 0.80258 0.56071 0.6913 0.0
H1775 H 0.78792 0.52573 0.71897 0.0
C1776 C 0.77516 0.48952 0.8508 0.0
C1777 C 0.79126 0.48186 0.84702 0.0
C1778 C 0.76271 0.49118 0.82971 0.0
C1779 C 0.76664 0.48577 0.80456 0.0
C1780 C 0.78365 0.47942 0.80062 0.0
C1781 C 0.79563 0.47716 0.8217 0.0
C1782 C 0.75167 0.48469 0.78267 0.0
C1783 C 0.75981 0.50344 0.7653 0.0
C1784 C 0.72939 0.46501 0.77893 0.0
C1785 C 0.71993 0.44492 0.797 0.0
C1786 C 0.73045 0.43108 0.79913 0.0
C1787 C 0.72182 0.41255 0.81677 0.0
C1788 C 0.70255 0.40757 0.83219 0.0
C1789 C 0.6918 0.42106 0.82991 0.0
C1790 C 0.7004 0.43966 0.81234 0.0
C1791 C 0.70567 0.48193 0.66945 0.0
C1792 C 0.68159 0.47311 0.67202 0.0
C1793 C 0.71946 0.48508 0.69133 0.0
C1794 C 0.70962 0.48021 0.71635 0.0
C1795 C 0.68559 0.47179 0.71887 0.0
C1796 C 0.67171 0.46811 0.69696 0.0
C1797 C 0.72409 0.48284 0.73974 0.0
C1798 C 0.71589 0.46429 0.75759 0.0
C1799 C 0.74618 0.50297 0.74411 0.0
C1800 C 0.7551 0.52407 0.72753 0.0
C1801 C 0.74165 0.53479 0.72333 0.0
C1802 C 0.75006 0.55455 0.70752 0.0
C1803 C 0.77199 0.56386 0.69597 0.0
C1804 C 0.78558 0.55346 0.70025 0.0
C1805 C 0.77724 0.53369 0.71601 0.0
H1806 H 0.77847 0.57916 0.68374 0.0
H1807 H 0.69591 0.39323 0.84585 0.0
H1808 H 0.33898 0.78611 0.98759 0.0
H1809 H 0.31452 0.76683 0.95013 0.0
H1810 H 0.2535 0.75306 0.99402 0.0
H1811 H 0.27818 0.77313 0.0316 0.0
H1812 H 0.28367 0.72401 0.94405 0.0
H1813 H 0.21031 0.74711 0.9522 0.0
H1814 H 0.2049 0.77933 0.96779 0.0
H1815 H 0.27748 0.8279 0.95518 0.0
H1816 H 0.28325 0.79605 0.93918 0.0
H1817 H 0.19234 0.64718 0.86456 0.0
H1818 H 0.21226 0.67123 0.90221 0.0
H1819 H 0.23449 0.73344 0.85648 0.0
H1820 H 0.21413 0.70939 0.81864 0.0
H1821 H 0.224 0.73961 0.90603 0.0
H1822 H 0.27069 0.7125 0.86469 0.0
H1823 H 0.27884 0.68309 0.84583 0.0
H1824 H 0.26562 0.64846 0.91952 0.0
H1825 H 0.25704 0.67748 0.93873 0.0
C1826 C 0.32037 0.77917 0.98928 0.0
C1827 C 0.3105 0.78106 0.01264 0.0
C1828 C 0.30637 0.76809 0.9678 0.0
C1829 C 0.28212 0.75845 0.96913 0.0
C1830 C 0.27219 0.76063 0.99233 0.0
C1831 C 0.28629 0.77202 0.01384 0.0
C1832 C 0.26741 0.74518 0.94655 0.0
C1833 C 0.27063 0.72748 0.93584 0.0
C1834 C 0.25056 0.7498 0.93545 0.0
C1835 C 0.24724 0.76914 0.94477 0.0
C1836 C 0.22509 0.76468 0.95268 0.0
C1837 C 0.22197 0.78288 0.96159 0.0
C1838 C 0.24085 0.80563 0.96256 0.0
C1839 C 0.26289 0.81025 0.95452 0.0
C1840 C 0.2661 0.79213 0.94556 0.0
C1841 C 0.20122 0.66599 0.86253 0.0
C1842 C 0.20193 0.67638 0.8385 0.0
C1843 C 0.21261 0.67972 0.88411 0.0
C1844 C 0.22524 0.70414 0.88206 0.0
C1845 C 0.22491 0.71463 0.85849 0.0
C1846 C 0.21332 0.70086 0.83686 0.0
C1847 C 0.24022 0.71845 0.9039 0.0
C1848 C 0.23703 0.73621 0.91442 0.0
C1849 C 0.25758 0.71437 0.91448 0.0
C1850 C 0.26302 0.69704 0.90308 0.0
C1851 C 0.26938 0.69853 0.87683 0.0
C1852 C 0.27409 0.68193 0.86608 0.0
C1853 C 0.2727 0.66388 0.88145 0.0
C1854 C 0.26666 0.66243 0.90763 0.0
C1855 C 0.26189 0.67896 0.91846 0.0
H1856 H 0.27634 0.65105 0.87309 0.0
H1857 H 0.2384 0.81969 0.96949 0.0
H1858 H 0.50939 0.28085 0.19969 0.0
H1859 H 0.50529 0.25577 0.16262 0.0
H1860 H 0.52072 0.31246 0.11018 0.0
H1861 H 0.52567 0.33784 0.14711 0.0
H1862 H 0.48117 0.26172 0.09592 0.0
H1863 H 0.56243 0.3102 0.12297 0.0
H1864 H 0.59207 0.3245 0.15748 0.0
H1865 H 0.57773 0.25463 0.17181 0.0
H1866 H 0.5471 0.23975 0.13822 0.0
H1867 H 0.51488 0.22796 0.98019 0.0
H1868 H 0.50906 0.24759 0.01727 0.0
H1869 H 0.52938 0.20965 0.06927 0.0
H1870 H 0.53688 0.19152 0.0321 0.0
H1871 H 0.54887 0.24973 0.08551 0.0
H1872 H 0.46984 0.19943 0.06072 0.0
H1873 H 0.43578 0.18103 0.03163 0.0
H1874 H 0.442 0.24779 0.01694 0.0
H1875 H 0.47629 0.26664 0.04569 0.0
C1876 C 0.51143 0.28779 0.18022 0.0
C1877 C 0.51798 0.3113 0.17623 0.0
C1878 C 0.50908 0.27347 0.15911 0.0
C1879 C 0.51271 0.28231 0.13372 0.0
C1880 C 0.51774 0.30531 0.12962 0.0
C1881 C 0.52069 0.3198 0.15072 0.0
C1882 C 0.51399 0.26857 0.11174 0.0
C1883 C 0.49599 0.25916 0.0934 0.0
C1884 C 0.53303 0.26472 0.10906 0.0
C1885 C 0.55223 0.27383 0.12833 0.0
C1886 C 0.56541 0.29785 0.13366 0.0
C1887 C 0.5824 0.30606 0.15305 0.0
C1888 C 0.58683 0.29049 0.16681 0.0
C1889 C 0.57426 0.26667 0.16117 0.0
C1890 C 0.557 0.25832 0.14203 0.0
C1891 C 0.51782 0.22368 0.9996 0.0
C1892 C 0.52629 0.20824 1.00334 0.0
C1893 C 0.51437 0.2348 0.02086 0.0
C1894 C 0.51844 0.22998 0.04636 0.0
C1895 C 0.52621 0.2139 0.04996 0.0
C1896 C 0.53037 0.20341 0.0287 0.0
C1897 C 0.51588 0.24248 0.06917 0.0
C1898 C 0.53381 0.25191 0.08781 0.0
C1899 C 0.49641 0.24574 0.07245 0.0
C1900 C 0.47577 0.23447 0.05517 0.0
C1901 C 0.46404 0.21021 0.05114 0.0
C1902 C 0.44468 0.1997 0.03474 0.0
C1903 C 0.43677 0.21324 0.02239 0.0
C1904 C 0.44816 0.23733 0.02649 0.0
C1905 C 0.46755 0.24793 0.04286 0.0
H1906 H 0.42177 0.20507 0.0097 0.0
H1907 H 0.6 0.29689 0.18183 0.0
loop_
_geom_bond_atom_site_label_1
_geom_bond_atom_site_label_2
_geom_bond_distance
_geom_bond_site_symmetry_2
_ccdc_geom_bond_type
Co0 O2 2.143 . S
Co0 O8 2.074 . S
Co0 O11 2.093 . S
Co0 O24 2.097 . S
Co0 N41 2.151 . S
Co0 N49 2.214 . S
Co1 O2 2.160 . S
Co1 O7 2.058 . S
Co1 O17 2.057 . S
Co1 O32 2.037 . S
Co1 N36 2.145 . S
Co1 N57 2.257 . S
O2 Co0 2.143 . S
O2 Co1 2.160 . S
C3 O4 1.278 . S
C3 O11 1.224 . S
O4 C3 1.278 . S
C5 O6 1.245 . S
C5 O17 1.232 . S
O6 C5 1.245 . S
O7 Co1 2.058 . S
O7 C33 1.269 . S
O8 Co0 2.074 . S
O8 C33 1.257 . S
H9 C34 0.930 . S
H10 C40 0.930 . S
O11 Co0 2.093 . S
O11 C3 1.224 . S
H12 C44 0.929 . S
H13 C46 0.930 . S
H14 C47 0.930 . S
H15 C45 0.929 . S
H16 C48 0.928 . S
O17 Co1 2.057 . S
O17 C5 1.232 . S
H18 C37 0.929 . S
H19 C38 0.929 . S
H20 C50 0.931 . S
H21 C42 0.929 . S
H22 C51 0.930 . S
H23 C43 0.931 . S
O24 Co0 2.097 . S
O24 C52 1.214 . S
H25 C53 0.929 . S
H26 C54 0.929 . S
H27 C55 0.930 . S
H28 C56 0.929 . S
H29 C58 0.930 . S
H30 C35 0.930 . S
H31 C39 0.930 . S
O32 Co1 2.037 . S
O32 C52 1.234 . S
C33 O7 1.269 . S
C33 O8 1.257 . S
C34 H9 0.930 . S
C34 C37 1.388 . S
C34 C39 1.418 . S
C35 H30 0.930 . S
C35 C38 1.404 . S
C35 C39 1.353 . S
N36 Co1 2.145 . S
N36 C37 1.397 . S
N36 C38 1.334 . S
C37 H18 0.929 . S
C37 C34 1.388 . S
C37 N36 1.397 . S
C38 H19 0.929 . S
C38 C35 1.404 . S
C38 N36 1.334 . S
C39 H31 0.930 . S
C39 C34 1.418 . S
C39 C35 1.353 . S
C40 H10 0.930 . S
C40 N41 1.330 . S
C40 C42 1.446 . S
N41 Co0 2.151 . S
N41 C40 1.330 . S
N41 C45 1.418 . S
C42 H21 0.929 . S
C42 C40 1.446 . S
C42 C43 1.332 . S
C43 H23 0.931 . S
C43 C42 1.332 . S
C43 C44 1.267 . S
C44 H12 0.929 . S
C44 C43 1.267 . S
C44 C45 1.251 . S
C45 H15 0.929 . S
C45 N41 1.418 . S
C45 C44 1.251 . S
C46 H13 0.930 . S
C46 C48 1.406 . S
C46 C51 1.261 . S
C47 H14 0.930 . S
C47 N49 1.325 . S
C47 C50 1.357 . S
C48 H16 0.928 . S
C48 C46 1.406 . S
C48 N49 1.261 . S
N49 Co0 2.214 . S
N49 C47 1.325 . S
N49 C48 1.261 . S
C50 H20 0.931 . S
C50 C47 1.357 . S
C50 C51 1.312 . S
C51 H22 0.930 . S
C51 C46 1.261 . S
C51 C50 1.312 . S
C52 O24 1.214 . S
C52 O32 1.234 . S
C53 H25 0.929 . S
C53 C56 1.391 . S
C53 C58 1.391 . S
C54 H26 0.929 . S
C54 C55 1.390 . S
C54 N57 1.391 . S
C55 H27 0.930 . S
C55 C54 1.390 . S
C55 C56 1.392 . S
C56 H28 0.929 . S
C56 C53 1.391 . S
C56 C55 1.392 . S
N57 Co1 2.257 . S
N57 C54 1.391 . S
N57 C58 1.388 . S
C58 H29 0.930 . S
C58 C53 1.391 . S
C58 N57 1.388 . S
Co59 O61 2.143 . S
Co59 O67 2.074 . S
Co59 O70 2.093 . S
Co59 O83 2.097 . S
Co59 N100 2.151 . S
Co59 N108 2.214 . S
Co60 O61 2.160 . S
Co60 O66 2.058 . S
Co60 O76 2.057 . S
Co60 O91 2.037 . S
Co60 N95 2.145 . S
Co60 N116 2.257 . S
O61 Co59 2.143 . S
O61 Co60 2.160 . S
C62 O63 1.278 . S
C62 O70 1.224 . S
O63 C62 1.278 . S
C64 O65 1.245 . S
C64 O76 1.232 . S
O65 C64 1.245 . S
O66 Co60 2.058 . S
O66 C92 1.269 . S
O67 Co59 2.074 . S
O67 C92 1.257 . S
H68 C93 0.930 . S
H69 C99 0.930 . S
O70 Co59 2.093 . S
O70 C62 1.224 . S
H71 C103 0.929 . S
H72 C105 0.930 . S
H73 C106 0.930 . S
H74 C104 0.929 . S
H75 C107 0.928 . S
O76 Co60 2.057 . S
O76 C64 1.232 . S
H77 C96 0.929 . S
H78 C97 0.929 . S
H79 C109 0.931 . S
H80 C101 0.929 . S
H81 C110 0.930 . S
H82 C102 0.931 . S
O83 Co59 2.097 . S
O83 C111 1.214 . S
H84 C112 0.929 . S
H85 C113 0.929 . S
H86 C114 0.930 . S
H87 C115 0.929 . S
H88 C117 0.930 . S
H89 C94 0.930 . S
H90 C98 0.930 . S
O91 Co60 2.037 . S
O91 C111 1.234 . S
C92 O66 1.269 . S
C92 O67 1.257 . S
C93 H68 0.930 . S
C93 C96 1.388 . S
C93 C98 1.418 . S
C94 H89 0.930 . S
C94 C97 1.404 . S
C94 C98 1.353 . S
N95 Co60 2.145 . S
N95 C96 1.397 . S
N95 C97 1.334 . S
C96 H77 0.929 . S
C96 C93 1.388 . S
C96 N95 1.397 . S
C97 H78 0.929 . S
C97 C94 1.404 . S
C97 N95 1.334 . S
C98 H90 0.930 . S
C98 C93 1.418 . S
C98 C94 1.353 . S
C99 H69 0.930 . S
C99 N100 1.330 . S
C99 C101 1.446 . S
N100 Co59 2.151 . S
N100 C99 1.330 . S
N100 C104 1.418 . S
C101 H80 0.929 . S
C101 C99 1.446 . S
C101 C102 1.332 . S
C102 H82 0.931 . S
C102 C101 1.332 . S
C102 C103 1.267 . S
C103 H71 0.929 . S
C103 C102 1.267 . S
C103 C104 1.251 . S
C104 H74 0.929 . S
C104 N100 1.418 . S
C104 C103 1.251 . S
C105 H72 0.930 . S
C105 C107 1.406 . S
C105 C110 1.261 . S
C106 H73 0.930 . S
C106 N108 1.325 . S
C106 C109 1.357 . S
C107 H75 0.928 . S
C107 C105 1.406 . S
C107 N108 1.261 . S
N108 Co59 2.214 . S
N108 C106 1.325 . S
N108 C107 1.261 . S
C109 H79 0.931 . S
C109 C106 1.357 . S
C109 C110 1.312 . S
C110 H81 0.930 . S
C110 C105 1.261 . S
C110 C109 1.312 . S
C111 O83 1.214 . S
C111 O91 1.234 . S
C112 H84 0.929 . S
C112 C115 1.391 . S
C112 C117 1.391 . S
C113 H85 0.929 . S
C113 C114 1.390 . S
C113 N116 1.391 . S
C114 H86 0.930 . S
C114 C113 1.390 . S
C114 C115 1.392 . S
C115 H87 0.929 . S
C115 C112 1.391 . S
C115 C114 1.392 . S
N116 Co60 2.257 . S
N116 C113 1.391 . S
N116 C117 1.388 . S
C117 H88 0.930 . S
C117 C112 1.391 . S
C117 N116 1.388 . S
Co118 O120 2.143 . S
Co118 O126 2.074 . S
Co118 O129 2.093 . S
Co118 O142 2.097 . S
Co118 N159 2.151 . S
Co118 N167 2.214 . S
Co119 O120 2.160 . S
Co119 O125 2.058 . S
Co119 O135 2.057 . S
Co119 O150 2.037 . S
Co119 N154 2.145 . S
Co119 N175 2.257 . S
O120 Co118 2.143 . S
O120 Co119 2.160 . S
C121 O122 1.278 . S
C121 O129 1.224 . S
O122 C121 1.278 . S
C123 O124 1.245 . S
C123 O135 1.232 . S
O124 C123 1.245 . S
O125 Co119 2.058 . S
O125 C151 1.269 . S
O126 Co118 2.074 . S
O126 C151 1.257 . S
H127 C152 0.930 . S
H128 C158 0.930 . S
O129 Co118 2.093 . S
O129 C121 1.224 . S
H130 C162 0.929 . S
H131 C164 0.930 . S
H132 C165 0.930 . S
H133 C163 0.929 . S
H134 C166 0.928 . S
O135 Co119 2.057 . S
O135 C123 1.232 . S
H136 C155 0.929 . S
H137 C156 0.929 . S
H138 C168 0.931 . S
H139 C160 0.929 . S
H140 C169 0.930 . S
H141 C161 0.931 . S
O142 Co118 2.097 . S
O142 C170 1.214 . S
H143 C171 0.929 . S
H144 C172 0.929 . S
H145 C173 0.930 . S
H146 C174 0.929 . S
H147 C176 0.930 . S
H148 C153 0.930 . S
H149 C157 0.930 . S
O150 Co119 2.037 . S
O150 C170 1.234 . S
C151 O125 1.269 . S
C151 O126 1.257 . S
C152 H127 0.930 . S
C152 C155 1.388 . S
C152 C157 1.418 . S
C153 H148 0.930 . S
C153 C156 1.404 . S
C153 C157 1.353 . S
N154 Co119 2.145 . S
N154 C155 1.397 . S
N154 C156 1.334 . S
C155 H136 0.929 . S
C155 C152 1.388 . S
C155 N154 1.397 . S
C156 H137 0.929 . S
C156 C153 1.404 . S
C156 N154 1.334 . S
C157 H149 0.930 . S
C157 C152 1.418 . S
C157 C153 1.353 . S
C158 H128 0.930 . S
C158 N159 1.330 . S
C158 C160 1.446 . S
N159 Co118 2.151 . S
N159 C158 1.330 . S
N159 C163 1.418 . S
C160 H139 0.929 . S
C160 C158 1.446 . S
C160 C161 1.332 . S
C161 H141 0.931 . S
C161 C160 1.332 . S
C161 C162 1.267 . S
C162 H130 0.929 . S
C162 C161 1.267 . S
C162 C163 1.251 . S
C163 H133 0.929 . S
C163 N159 1.418 . S
C163 C162 1.251 . S
C164 H131 0.930 . S
C164 C166 1.406 . S
C164 C169 1.261 . S
C165 H132 0.930 . S
C165 N167 1.325 . S
C165 C168 1.357 . S
C166 H134 0.928 . S
C166 C164 1.406 . S
C166 N167 1.261 . S
N167 Co118 2.214 . S
N167 C165 1.325 . S
N167 C166 1.261 . S
C168 H138 0.931 . S
C168 C165 1.357 . S
C168 C169 1.312 . S
C169 H140 0.930 . S
C169 C164 1.261 . S
C169 C168 1.312 . S
C170 O142 1.214 . S
C170 O150 1.234 . S
C171 H143 0.929 . S
C171 C174 1.391 . S
C171 C176 1.391 . S
C172 H144 0.929 . S
C172 C173 1.390 . S
C172 N175 1.391 . S
C173 H145 0.930 . S
C173 C172 1.390 . S
C173 C174 1.392 . S
C174 H146 0.929 . S
C174 C171 1.391 . S
C174 C173 1.392 . S
N175 Co119 2.257 . S
N175 C172 1.391 . S
N175 C176 1.388 . S
C176 H147 0.930 . S
C176 C171 1.391 . S
C176 N175 1.388 . S
Co177 O179 2.143 . S
Co177 O185 2.074 . S
Co177 O188 2.093 . S
Co177 O201 2.097 . S
Co177 N218 2.151 . S
Co177 N226 2.214 . S
Co178 O179 2.160 . S
Co178 O184 2.058 . S
Co178 O194 2.057 . S
Co178 O209 2.037 . S
Co178 N213 2.145 . S
Co178 N234 2.257 . S
O179 Co177 2.143 . S
O179 Co178 2.160 . S
C180 O181 1.278 . S
C180 O188 1.224 . S
O181 C180 1.278 . S
C182 O183 1.245 . S
C182 O194 1.232 . S
O183 C182 1.245 . S
O184 Co178 2.058 . S
O184 C210 1.269 . S
O185 Co177 2.074 . S
O185 C210 1.257 . S
H186 C211 0.930 . S
H187 C217 0.930 . S
O188 Co177 2.093 . S
O188 C180 1.224 . S
H189 C221 0.929 . S
H190 C223 0.930 . S
H191 C224 0.930 . S
H192 C222 0.929 . S
H193 C225 0.928 . S
O194 Co178 2.057 . S
O194 C182 1.232 . S
H195 C214 0.929 . S
H196 C215 0.929 . S
H197 C227 0.931 . S
H198 C219 0.929 . S
H199 C228 0.930 . S
H200 C220 0.931 . S
O201 Co177 2.097 . S
O201 C229 1.214 . S
H202 C230 0.929 . S
H203 C231 0.929 . S
H204 C232 0.930 . S
H205 C233 0.929 . S
H206 C235 0.930 . S
H207 C212 0.930 . S
H208 C216 0.930 . S
O209 Co178 2.037 . S
O209 C229 1.234 . S
C210 O184 1.269 . S
C210 O185 1.257 . S
C211 H186 0.930 . S
C211 C214 1.388 . S
C211 C216 1.418 . S
C212 H207 0.930 . S
C212 C215 1.404 . S
C212 C216 1.353 . S
N213 Co178 2.145 . S
N213 C214 1.397 . S
N213 C215 1.334 . S
C214 H195 0.929 . S
C214 C211 1.388 . S
C214 N213 1.397 . S
C215 H196 0.929 . S
C215 C212 1.404 . S
C215 N213 1.334 . S
C216 H208 0.930 . S
C216 C211 1.418 . S
C216 C212 1.353 . S
C217 H187 0.930 . S
C217 N218 1.330 . S
C217 C219 1.446 . S
N218 Co177 2.151 . S
N218 C217 1.330 . S
N218 C222 1.418 . S
C219 H198 0.929 . S
C219 C217 1.446 . S
C219 C220 1.332 . S
C220 H200 0.931 . S
C220 C219 1.332 . S
C220 C221 1.267 . S
C221 H189 0.929 . S
C221 C220 1.267 . S
C221 C222 1.251 . S
C222 H192 0.929 . S
C222 N218 1.418 . S
C222 C221 1.251 . S
C223 H190 0.930 . S
C223 C225 1.406 . S
C223 C228 1.261 . S
C224 H191 0.930 . S
C224 N226 1.325 . S
C224 C227 1.357 . S
C225 H193 0.928 . S
C225 C223 1.406 . S
C225 N226 1.261 . S
N226 Co177 2.214 . S
N226 C224 1.325 . S
N226 C225 1.261 . S
C227 H197 0.931 . S
C227 C224 1.357 . S
C227 C228 1.312 . S
C228 H199 0.930 . S
C228 C223 1.261 . S
C228 C227 1.312 . S
C229 O201 1.214 . S
C229 O209 1.234 . S
C230 H202 0.929 . S
C230 C233 1.391 . S
C230 C235 1.391 . S
C231 H203 0.929 . S
C231 C232 1.390 . S
C231 N234 1.391 . S
C232 H204 0.930 . S
C232 C231 1.390 . S
C232 C233 1.392 . S
C233 H205 0.929 . S
C233 C230 1.391 . S
C233 C232 1.392 . S
N234 Co178 2.257 . S
N234 C231 1.391 . S
N234 C235 1.388 . S
C235 H206 0.930 . S
C235 C230 1.391 . S
C235 N234 1.388 . S
Co236 O238 2.143 . S
Co236 O244 2.074 . S
Co236 O247 2.093 . S
Co236 O260 2.097 . S
Co236 N277 2.151 . S
Co236 N285 2.214 . S
Co237 O238 2.160 . S
Co237 O243 2.058 . S
Co237 O253 2.057 . S
Co237 O268 2.037 . S
Co237 N272 2.145 . S
Co237 N293 2.257 . S
O238 Co236 2.143 . S
O238 Co237 2.160 . S
C239 O240 1.278 . S
C239 O247 1.224 . S
O240 C239 1.278 . S
C241 O242 1.245 . S
C241 O253 1.232 . S
O242 C241 1.245 . S
O243 Co237 2.058 . S
O243 C269 1.269 . S
O244 Co236 2.074 . S
O244 C269 1.257 . S
H245 C270 0.930 . S
H246 C276 0.930 . S
O247 Co236 2.093 . S
O247 C239 1.224 . S
H248 C280 0.929 . S
H249 C282 0.930 . S
H250 C283 0.930 . S
H251 C281 0.929 . S
H252 C284 0.928 . S
O253 Co237 2.057 . S
O253 C241 1.232 . S
H254 C273 0.929 . S
H255 C274 0.929 . S
H256 C286 0.931 . S
H257 C278 0.929 . S
H258 C287 0.930 . S
H259 C279 0.931 . S
O260 Co236 2.097 . S
O260 C288 1.214 . S
H261 C289 0.929 . S
H262 C290 0.929 . S
H263 C291 0.930 . S
H264 C292 0.929 . S
H265 C294 0.930 . S
H266 C271 0.930 . S
H267 C275 0.930 . S
O268 Co237 2.037 . S
O268 C288 1.234 . S
C269 O243 1.269 . S
C269 O244 1.257 . S
C270 H245 0.930 . S
C270 C273 1.388 . S
C270 C275 1.418 . S
C271 H266 0.930 . S
C271 C274 1.404 . S
C271 C275 1.353 . S
N272 Co237 2.145 . S
N272 C273 1.397 . S
N272 C274 1.334 . S
C273 H254 0.929 . S
C273 C270 1.388 . S
C273 N272 1.397 . S
C274 H255 0.929 . S
C274 C271 1.404 . S
C274 N272 1.334 . S
C275 H267 0.930 . S
C275 C270 1.418 . S
C275 C271 1.353 . S
C276 H246 0.930 . S
C276 N277 1.330 . S
C276 C278 1.446 . S
N277 Co236 2.151 . S
N277 C276 1.330 . S
N277 C281 1.418 . S
C278 H257 0.929 . S
C278 C276 1.446 . S
C278 C279 1.332 . S
C279 H259 0.931 . S
C279 C278 1.332 . S
C279 C280 1.267 . S
C280 H248 0.929 . S
C280 C279 1.267 . S
C280 C281 1.251 . S
C281 H251 0.929 . S
C281 N277 1.418 . S
C281 C280 1.251 . S
C282 H249 0.930 . S
C282 C284 1.406 . S
C282 C287 1.261 . S
C283 H250 0.930 . S
C283 N285 1.325 . S
C283 C286 1.357 . S
C284 H252 0.928 . S
C284 C282 1.406 . S
C284 N285 1.261 . S
N285 Co236 2.214 . S
N285 C283 1.325 . S
N285 C284 1.261 . S
C286 H256 0.931 . S
C286 C283 1.357 . S
C286 C287 1.312 . S
C287 H258 0.930 . S
C287 C282 1.261 . S
C287 C286 1.312 . S
C288 O260 1.214 . S
C288 O268 1.234 . S
C289 H261 0.929 . S
C289 C292 1.391 . S
C289 C294 1.391 1_556 S
C290 H262 0.929 . S
C290 C291 1.390 1_554 S
C290 N293 1.391 . S
C291 H263 0.930 . S
C291 C290 1.390 1_556 S
C291 C292 1.392 . S
C292 H264 0.929 . S
C292 C289 1.391 . S
C292 C291 1.392 . S
N293 Co237 2.257 . S
N293 C290 1.391 . S
N293 C294 1.388 . S
C294 H265 0.930 . S
C294 C289 1.391 1_554 S
C294 N293 1.388 . S
Co295 O297 2.143 . S
Co295 O303 2.074 . S
Co295 O306 2.093 . S
Co295 O319 2.097 . S
Co295 N336 2.151 . S
Co295 N344 2.214 . S
Co296 O297 2.160 . S
Co296 O302 2.058 . S
Co296 O312 2.057 . S
Co296 O327 2.037 . S
Co296 N331 2.145 . S
Co296 N352 2.257 . S
O297 Co295 2.143 . S
O297 Co296 2.160 . S
C298 O299 1.278 . S
C298 O306 1.224 . S
O299 C298 1.278 . S
C300 O301 1.245 . S
C300 O312 1.232 . S
O301 C300 1.245 . S
O302 Co296 2.058 . S
O302 C328 1.269 . S
O303 Co295 2.074 . S
O303 C328 1.257 . S
H304 C329 0.930 . S
H305 C335 0.930 . S
O306 Co295 2.093 . S
O306 C298 1.224 . S
H307 C339 0.929 . S
H308 C341 0.930 . S
H309 C342 0.930 . S
H310 C340 0.929 . S
H311 C343 0.928 . S
O312 Co296 2.057 . S
O312 C300 1.232 . S
H313 C332 0.929 . S
H314 C333 0.929 . S
H315 C345 0.931 . S
H316 C337 0.929 . S
H317 C346 0.930 . S
H318 C338 0.931 . S
O319 Co295 2.097 . S
O319 C347 1.214 . S
H320 C348 0.929 . S
H321 C349 0.929 . S
H322 C350 0.930 . S
H323 C351 0.929 . S
H324 C353 0.930 . S
H325 C330 0.930 . S
H326 C334 0.930 . S
O327 Co296 2.037 . S
O327 C347 1.234 . S
C328 O302 1.269 . S
C328 O303 1.257 . S
C329 H304 0.930 . S
C329 C332 1.388 . S
C329 C334 1.418 . S
C330 H325 0.930 . S
C330 C333 1.404 . S
C330 C334 1.353 . S
N331 Co296 2.145 . S
N331 C332 1.397 . S
N331 C333 1.334 . S
C332 H313 0.929 . S
C332 C329 1.388 . S
C332 N331 1.397 . S
C333 H314 0.929 . S
C333 C330 1.404 . S
C333 N331 1.334 . S
C334 H326 0.930 . S
C334 C329 1.418 . S
C334 C330 1.353 . S
C335 H305 0.930 . S
C335 N336 1.330 . S
C335 C337 1.446 . S
N336 Co295 2.151 . S
N336 C335 1.330 . S
N336 C340 1.418 . S
C337 H316 0.929 . S
C337 C335 1.446 . S
C337 C338 1.332 . S
C338 H318 0.931 . S
C338 C337 1.332 . S
C338 C339 1.267 . S
C339 H307 0.929 . S
C339 C338 1.267 . S
C339 C340 1.251 . S
C340 H310 0.929 . S
C340 N336 1.418 . S
C340 C339 1.251 . S
C341 H308 0.930 . S
C341 C343 1.406 . S
C341 C346 1.261 . S
C342 H309 0.930 . S
C342 N344 1.325 . S
C342 C345 1.357 . S
C343 H311 0.928 . S
C343 C341 1.406 . S
C343 N344 1.261 . S
N344 Co295 2.214 . S
N344 C342 1.325 . S
N344 C343 1.261 . S
C345 H315 0.931 . S
C345 C342 1.357 . S
C345 C346 1.312 . S
C346 H317 0.930 . S
C346 C341 1.261 . S
C346 C345 1.312 . S
C347 O319 1.214 . S
C347 O327 1.234 . S
C348 H320 0.929 . S
C348 C351 1.391 . S
C348 C353 1.391 . S
C349 H321 0.929 . S
C349 C350 1.390 . S
C349 N352 1.391 . S
C350 H322 0.930 . S
C350 C349 1.390 . S
C350 C351 1.392 . S
C351 H323 0.929 . S
C351 C348 1.391 . S
C351 C350 1.392 . S
N352 Co296 2.257 . S
N352 C349 1.391 . S
N352 C353 1.388 . S
C353 H324 0.930 . S
C353 C348 1.391 . S
C353 N352 1.388 . S
Co354 O356 2.143 . S
Co354 O362 2.074 . S
Co354 O365 2.093 . S
Co354 O378 2.097 . S
Co354 N395 2.151 . S
Co354 N403 2.214 . S
Co355 O356 2.160 . S
Co355 O361 2.058 . S
Co355 O371 2.057 . S
Co355 O386 2.037 . S
Co355 N390 2.145 . S
Co355 N411 2.257 . S
O356 Co354 2.143 . S
O356 Co355 2.160 . S
C357 O358 1.278 . S
C357 O365 1.224 . S
O358 C357 1.278 . S
C359 O360 1.245 . S
C359 O371 1.232 . S
O360 C359 1.245 . S
O361 Co355 2.058 . S
O361 C387 1.269 . S
O362 Co354 2.074 . S
O362 C387 1.257 . S
H363 C388 0.930 . S
H364 C394 0.930 . S
O365 Co354 2.093 . S
O365 C357 1.224 . S
H366 C398 0.929 . S
H367 C400 0.930 . S
H368 C401 0.930 . S
H369 C399 0.929 . S
H370 C402 0.928 . S
O371 Co355 2.057 . S
O371 C359 1.232 . S
H372 C391 0.929 . S
H373 C392 0.929 . S
H374 C404 0.931 . S
H375 C396 0.929 . S
H376 C405 0.930 . S
H377 C397 0.931 . S
O378 Co354 2.097 . S
O378 C406 1.214 . S
H379 C407 0.929 . S
H380 C408 0.929 . S
H381 C409 0.930 . S
H382 C410 0.929 . S
H383 C412 0.930 . S
H384 C389 0.930 . S
H385 C393 0.930 . S
O386 Co355 2.037 . S
O386 C406 1.234 . S
C387 O361 1.269 . S
C387 O362 1.257 . S
C388 H363 0.930 . S
C388 C391 1.388 . S
C388 C393 1.418 . S
C389 H384 0.930 . S
C389 C392 1.404 . S
C389 C393 1.353 . S
N390 Co355 2.145 . S
N390 C391 1.397 . S
N390 C392 1.334 . S
C391 H372 0.929 . S
C391 C388 1.388 . S
C391 N390 1.397 . S
C392 H373 0.929 . S
C392 C389 1.404 . S
C392 N390 1.334 . S
C393 H385 0.930 . S
C393 C388 1.418 . S
C393 C389 1.353 . S
C394 H364 0.930 . S
C394 N395 1.330 . S
C394 C396 1.446 . S
N395 Co354 2.151 . S
N395 C394 1.330 . S
N395 C399 1.418 . S
C396 H375 0.929 . S
C396 C394 1.446 . S
C396 C397 1.332 . S
C397 H377 0.931 . S
C397 C396 1.332 . S
C397 C398 1.267 . S
C398 H366 0.929 . S
C398 C397 1.267 . S
C398 C399 1.251 . S
C399 H369 0.929 . S
C399 N395 1.418 . S
C399 C398 1.251 . S
C400 H367 0.930 . S
C400 C402 1.406 . S
C400 C405 1.261 . S
C401 H368 0.930 . S
C401 N403 1.325 . S
C401 C404 1.357 . S
C402 H370 0.928 . S
C402 C400 1.406 . S
C402 N403 1.261 . S
N403 Co354 2.214 . S
N403 C401 1.325 . S
N403 C402 1.261 . S
C404 H374 0.931 . S
C404 C401 1.357 . S
C404 C405 1.312 . S
C405 H376 0.930 . S
C405 C400 1.261 . S
C405 C404 1.312 . S
C406 O378 1.214 . S
C406 O386 1.234 . S
C407 H379 0.929 . S
C407 C410 1.391 . S
C407 C412 1.391 . S
C408 H380 0.929 . S
C408 C409 1.390 . S
C408 N411 1.391 . S
C409 H381 0.930 . S
C409 C408 1.390 . S
C409 C410 1.392 . S
C410 H382 0.929 . S
C410 C407 1.391 . S
C410 C409 1.392 . S
N411 Co355 2.257 . S
N411 C408 1.391 . S
N411 C412 1.388 . S
C412 H383 0.930 . S
C412 C407 1.391 . S
C412 N411 1.388 . S
Co413 O415 2.143 . S
Co413 O421 2.074 . S
Co413 O424 2.093 . S
Co413 O437 2.097 . S
Co413 N454 2.151 . S
Co413 N462 2.214 . S
Co414 O415 2.160 . S
Co414 O420 2.058 . S
Co414 O430 2.057 . S
Co414 O445 2.037 . S
Co414 N449 2.145 . S
Co414 N470 2.257 . S
O415 Co413 2.143 . S
O415 Co414 2.160 . S
C416 O417 1.278 . S
C416 O424 1.224 . S
O417 C416 1.278 . S
C418 O419 1.245 . S
C418 O430 1.232 . S
O419 C418 1.245 . S
O420 Co414 2.058 . S
O420 C446 1.269 . S
O421 Co413 2.074 . S
O421 C446 1.257 . S
H422 C447 0.930 . S
H423 C453 0.930 . S
O424 Co413 2.093 . S
O424 C416 1.224 . S
H425 C457 0.929 . S
H426 C459 0.930 . S
H427 C460 0.930 . S
H428 C458 0.929 . S
H429 C461 0.928 . S
O430 Co414 2.057 . S
O430 C418 1.232 . S
H431 C450 0.929 . S
H432 C451 0.929 . S
H433 C463 0.931 . S
H434 C455 0.929 . S
H435 C464 0.930 . S
H436 C456 0.931 . S
O437 Co413 2.097 . S
O437 C465 1.214 . S
H438 C466 0.929 . S
H439 C467 0.929 . S
H440 C468 0.930 . S
H441 C469 0.929 . S
H442 C471 0.930 . S
H443 C448 0.930 . S
H444 C452 0.930 . S
O445 Co414 2.037 . S
O445 C465 1.234 . S
C446 O420 1.269 . S
C446 O421 1.257 . S
C447 H422 0.930 . S
C447 C450 1.388 . S
C447 C452 1.418 . S
C448 H443 0.930 . S
C448 C451 1.404 . S
C448 C452 1.353 . S
N449 Co414 2.145 . S
N449 C450 1.397 . S
N449 C451 1.334 . S
C450 H431 0.929 . S
C450 C447 1.388 . S
C450 N449 1.397 . S
C451 H432 0.929 . S
C451 C448 1.404 . S
C451 N449 1.334 . S
C452 H444 0.930 . S
C452 C447 1.418 . S
C452 C448 1.353 . S
C453 H423 0.930 . S
C453 N454 1.330 . S
C453 C455 1.446 . S
N454 Co413 2.151 . S
N454 C453 1.330 . S
N454 C458 1.418 . S
C455 H434 0.929 . S
C455 C453 1.446 . S
C455 C456 1.332 . S
C456 H436 0.931 . S
C456 C455 1.332 . S
C456 C457 1.267 . S
C457 H425 0.929 . S
C457 C456 1.267 . S
C457 C458 1.251 . S
C458 H428 0.929 . S
C458 N454 1.418 . S
C458 C457 1.251 . S
C459 H426 0.930 . S
C459 C461 1.406 . S
C459 C464 1.261 . S
C460 H427 0.930 . S
C460 N462 1.325 . S
C460 C463 1.357 . S
C461 H429 0.928 . S
C461 C459 1.406 . S
C461 N462 1.261 . S
N462 Co413 2.214 . S
N462 C460 1.325 . S
N462 C461 1.261 . S
C463 H433 0.931 . S
C463 C460 1.357 . S
C463 C464 1.312 . S
C464 H435 0.930 . S
C464 C459 1.261 . S
C464 C463 1.312 . S
C465 O437 1.214 . S
C465 O445 1.234 . S
C466 H438 0.929 . S
C466 C469 1.391 . S
C466 C471 1.391 . S
C467 H439 0.929 . S
C467 C468 1.390 . S
C467 N470 1.391 . S
C468 H440 0.930 . S
C468 C467 1.390 . S
C468 C469 1.392 . S
C469 H441 0.929 . S
C469 C466 1.391 . S
C469 C468 1.392 . S
N470 Co414 2.257 . S
N470 C467 1.391 . S
N470 C471 1.388 . S
C471 H442 0.930 . S
C471 C466 1.391 . S
C471 N470 1.388 . S
Co472 O474 2.143 . S
Co472 O480 2.074 . S
Co472 O483 2.093 . S
Co472 O496 2.097 . S
Co472 N513 2.151 . S
Co472 N521 2.214 . S
Co473 O474 2.160 . S
Co473 O479 2.058 . S
Co473 O489 2.057 . S
Co473 O504 2.037 . S
Co473 N508 2.145 . S
Co473 N529 2.257 . S
O474 Co472 2.143 . S
O474 Co473 2.160 . S
C475 O476 1.278 . S
C475 O483 1.224 . S
O476 C475 1.278 . S
C477 O478 1.245 . S
C477 O489 1.232 . S
O478 C477 1.245 . S
O479 Co473 2.058 . S
O479 C505 1.269 . S
O480 Co472 2.074 . S
O480 C505 1.257 . S
H481 C506 0.930 . S
H482 C512 0.930 . S
O483 Co472 2.093 . S
O483 C475 1.224 . S
H484 C516 0.929 . S
H485 C518 0.930 . S
H486 C519 0.930 . S
H487 C517 0.929 . S
H488 C520 0.928 . S
O489 Co473 2.057 . S
O489 C477 1.232 . S
H490 C509 0.929 . S
H491 C510 0.929 . S
H492 C522 0.931 . S
H493 C514 0.929 . S
H494 C523 0.930 . S
H495 C515 0.931 . S
O496 Co472 2.097 . S
O496 C524 1.214 . S
H497 C525 0.929 . S
H498 C526 0.929 . S
H499 C527 0.930 . S
H500 C528 0.929 . S
H501 C530 0.930 . S
H502 C507 0.930 . S
H503 C511 0.930 . S
O504 Co473 2.037 . S
O504 C524 1.234 . S
C505 O479 1.269 . S
C505 O480 1.257 . S
C506 H481 0.930 . S
C506 C509 1.388 . S
C506 C511 1.418 . S
C507 H502 0.930 . S
C507 C510 1.404 . S
C507 C511 1.353 . S
N508 Co473 2.145 . S
N508 C509 1.397 . S
N508 C510 1.334 . S
C509 H490 0.929 . S
C509 C506 1.388 . S
C509 N508 1.397 . S
C510 H491 0.929 . S
C510 C507 1.404 . S
C510 N508 1.334 . S
C511 H503 0.930 . S
C511 C506 1.418 . S
C511 C507 1.353 . S
C512 H482 0.930 . S
C512 N513 1.330 . S
C512 C514 1.446 . S
N513 Co472 2.151 . S
N513 C512 1.330 . S
N513 C517 1.418 . S
C514 H493 0.929 . S
C514 C512 1.446 . S
C514 C515 1.332 . S
C515 H495 0.931 . S
C515 C514 1.332 . S
C515 C516 1.267 . S
C516 H484 0.929 . S
C516 C515 1.267 . S
C516 C517 1.251 . S
C517 H487 0.929 . S
C517 N513 1.418 . S
C517 C516 1.251 . S
C518 H485 0.930 . S
C518 C520 1.406 . S
C518 C523 1.261 . S
C519 H486 0.930 . S
C519 N521 1.325 . S
C519 C522 1.357 . S
C520 H488 0.928 . S
C520 C518 1.406 . S
C520 N521 1.261 . S
N521 Co472 2.214 . S
N521 C519 1.325 . S
N521 C520 1.261 . S
C522 H492 0.931 . S
C522 C519 1.357 . S
C522 C523 1.312 . S
C523 H494 0.930 . S
C523 C518 1.261 . S
C523 C522 1.312 . S
C524 O496 1.214 . S
C524 O504 1.234 . S
C525 H497 0.929 . S
C525 C528 1.391 . S
C525 C530 1.391 . S
C526 H498 0.929 . S
C526 C527 1.390 . S
C526 N529 1.391 . S
C527 H499 0.930 . S
C527 C526 1.390 . S
C527 C528 1.392 . S
C528 H500 0.929 . S
C528 C525 1.391 . S
C528 C527 1.392 . S
N529 Co473 2.257 . S
N529 C526 1.391 . S
N529 C530 1.388 . S
C530 H501 0.930 . S
C530 C525 1.391 . S
C530 N529 1.388 . S
Co531 O533 2.143 . S
Co531 O539 2.074 . S
Co531 O542 2.093 . S
Co531 O555 2.097 . S
Co531 N572 2.151 . S
Co531 N580 2.214 . S
Co532 O533 2.160 . S
Co532 O538 2.058 . S
Co532 O548 2.057 . S
Co532 O563 2.037 . S
Co532 N567 2.145 . S
Co532 N588 2.257 . S
O533 Co531 2.143 . S
O533 Co532 2.160 . S
C534 O535 1.278 . S
C534 O542 1.224 . S
O535 C534 1.278 . S
C536 O537 1.245 . S
C536 O548 1.232 . S
O537 C536 1.245 . S
O538 Co532 2.058 . S
O538 C564 1.269 . S
O539 Co531 2.074 . S
O539 C564 1.257 . S
H540 C565 0.930 . S
H541 C571 0.930 . S
O542 Co531 2.093 . S
O542 C534 1.224 . S
H543 C575 0.929 . S
H544 C577 0.930 . S
H545 C578 0.930 . S
H546 C576 0.929 . S
H547 C579 0.928 . S
O548 Co532 2.057 . S
O548 C536 1.232 . S
H549 C568 0.929 . S
H550 C569 0.929 . S
H551 C581 0.931 . S
H552 C573 0.929 . S
H553 C582 0.930 . S
H554 C574 0.931 . S
O555 Co531 2.097 . S
O555 C583 1.214 . S
H556 C584 0.929 . S
H557 C585 0.929 . S
H558 C586 0.930 . S
H559 C587 0.929 . S
H560 C589 0.930 . S
H561 C566 0.930 . S
H562 C570 0.930 . S
O563 Co532 2.037 . S
O563 C583 1.234 . S
C564 O538 1.269 . S
C564 O539 1.257 . S
C565 H540 0.930 . S
C565 C568 1.388 . S
C565 C570 1.418 . S
C566 H561 0.930 . S
C566 C569 1.404 . S
C566 C570 1.353 . S
N567 Co532 2.145 . S
N567 C568 1.397 . S
N567 C569 1.334 . S
C568 H549 0.929 . S
C568 C565 1.388 . S
C568 N567 1.397 . S
C569 H550 0.929 . S
C569 C566 1.404 . S
C569 N567 1.334 . S
C570 H562 0.930 . S
C570 C565 1.418 . S
C570 C566 1.353 . S
C571 H541 0.930 . S
C571 N572 1.330 . S
C571 C573 1.446 . S
N572 Co531 2.151 . S
N572 C571 1.330 . S
N572 C576 1.418 . S
C573 H552 0.929 . S
C573 C571 1.446 . S
C573 C574 1.332 . S
C574 H554 0.931 . S
C574 C573 1.332 . S
C574 C575 1.267 . S
C575 H543 0.929 . S
C575 C574 1.267 . S
C575 C576 1.251 . S
C576 H546 0.929 . S
C576 N572 1.418 . S
C576 C575 1.251 . S
C577 H544 0.930 . S
C577 C579 1.406 . S
C577 C582 1.261 . S
C578 H545 0.930 . S
C578 N580 1.325 . S
C578 C581 1.357 . S
C579 H547 0.928 . S
C579 C577 1.406 . S
C579 N580 1.261 . S
N580 Co531 2.214 . S
N580 C578 1.325 . S
N580 C579 1.261 . S
C581 H551 0.931 . S
C581 C578 1.357 . S
C581 C582 1.312 . S
C582 H553 0.930 . S
C582 C577 1.261 . S
C582 C581 1.312 . S
C583 O555 1.214 . S
C583 O563 1.234 . S
C584 H556 0.929 . S
C584 C587 1.391 . S
C584 C589 1.391 1_554 S
C585 H557 0.929 . S
C585 C586 1.390 1_556 S
C585 N588 1.391 . S
C586 H558 0.930 . S
C586 C585 1.390 1_554 S
C586 C587 1.392 . S
C587 H559 0.929 . S
C587 C584 1.391 . S
C587 C586 1.392 . S
N588 Co532 2.257 . S
N588 C585 1.391 . S
N588 C589 1.388 . S
C589 H560 0.930 . S
C589 C584 1.391 1_556 S
C589 N588 1.388 . S
Co590 O592 2.143 . S
Co590 O598 2.074 . S
Co590 O601 2.093 . S
Co590 O614 2.097 . S
Co590 N631 2.151 . S
Co590 N639 2.214 . S
Co591 O592 2.160 . S
Co591 O597 2.058 . S
Co591 O607 2.057 . S
Co591 O622 2.037 . S
Co591 N626 2.145 . S
Co591 N647 2.257 . S
O592 Co590 2.143 . S
O592 Co591 2.160 . S
C593 O594 1.278 . S
C593 O601 1.224 . S
O594 C593 1.278 . S
C595 O596 1.245 . S
C595 O607 1.232 . S
O596 C595 1.245 . S
O597 Co591 2.058 . S
O597 C623 1.269 . S
O598 Co590 2.074 . S
O598 C623 1.257 . S
H599 C624 0.930 . S
H600 C630 0.930 . S
O601 Co590 2.093 . S
O601 C593 1.224 . S
H602 C634 0.929 . S
H603 C636 0.930 . S
H604 C637 0.930 . S
H605 C635 0.929 . S
H606 C638 0.928 . S
O607 Co591 2.057 . S
O607 C595 1.232 . S
H608 C627 0.929 . S
H609 C628 0.929 . S
H610 C640 0.931 . S
H611 C632 0.929 . S
H612 C641 0.930 . S
H613 C633 0.931 . S
O614 Co590 2.097 . S
O614 C642 1.214 . S
H615 C643 0.929 . S
H616 C644 0.929 . S
H617 C645 0.930 . S
H618 C646 0.929 . S
H619 C648 0.930 . S
H620 C625 0.930 . S
H621 C629 0.930 . S
O622 Co591 2.037 . S
O622 C642 1.234 . S
C623 O597 1.269 . S
C623 O598 1.257 . S
C624 H599 0.930 . S
C624 C627 1.388 . S
C624 C629 1.418 . S
C625 H620 0.930 . S
C625 C628 1.404 . S
C625 C629 1.353 . S
N626 Co591 2.145 . S
N626 C627 1.397 . S
N626 C628 1.334 . S
C627 H608 0.929 . S
C627 C624 1.388 . S
C627 N626 1.397 . S
C628 H609 0.929 . S
C628 C625 1.404 . S
C628 N626 1.334 . S
C629 H621 0.930 . S
C629 C624 1.418 . S
C629 C625 1.353 . S
C630 H600 0.930 . S
C630 N631 1.330 . S
C630 C632 1.446 . S
N631 Co590 2.151 . S
N631 C630 1.330 . S
N631 C635 1.418 . S
C632 H611 0.929 . S
C632 C630 1.446 . S
C632 C633 1.332 . S
C633 H613 0.931 . S
C633 C632 1.332 . S
C633 C634 1.267 . S
C634 H602 0.929 . S
C634 C633 1.267 . S
C634 C635 1.251 . S
C635 H605 0.929 . S
C635 N631 1.418 . S
C635 C634 1.251 . S
C636 H603 0.930 . S
C636 C638 1.406 . S
C636 C641 1.261 . S
C637 H604 0.930 . S
C637 N639 1.325 . S
C637 C640 1.357 . S
C638 H606 0.928 . S
C638 C636 1.406 . S
C638 N639 1.261 . S
N639 Co590 2.214 . S
N639 C637 1.325 . S
N639 C638 1.261 . S
C640 H610 0.931 . S
C640 C637 1.357 . S
C640 C641 1.312 . S
C641 H612 0.930 . S
C641 C636 1.261 . S
C641 C640 1.312 . S
C642 O614 1.214 . S
C642 O622 1.234 . S
C643 H615 0.929 . S
C643 C646 1.391 . S
C643 C648 1.391 . S
C644 H616 0.929 . S
C644 C645 1.390 . S
C644 N647 1.391 . S
C645 H617 0.930 . S
C645 C644 1.390 . S
C645 C646 1.392 . S
C646 H618 0.929 . S
C646 C643 1.391 . S
C646 C645 1.392 . S
N647 Co591 2.257 . S
N647 C644 1.391 . S
N647 C648 1.388 . S
C648 H619 0.930 . S
C648 C643 1.391 . S
C648 N647 1.388 . S
Co649 O651 2.143 . S
Co649 O657 2.074 . S
Co649 O660 2.093 . S
Co649 O673 2.097 . S
Co649 N690 2.151 . S
Co649 N698 2.214 . S
Co650 O651 2.160 . S
Co650 O656 2.058 . S
Co650 O666 2.057 . S
Co650 O681 2.037 . S
Co650 N685 2.145 . S
Co650 N706 2.257 . S
O651 Co649 2.143 . S
O651 Co650 2.160 . S
C652 O653 1.278 . S
C652 O660 1.224 . S
O653 C652 1.278 . S
C654 O655 1.245 . S
C654 O666 1.232 . S
O655 C654 1.245 . S
O656 Co650 2.058 . S
O656 C682 1.269 . S
O657 Co649 2.074 . S
O657 C682 1.257 . S
H658 C683 0.930 . S
H659 C689 0.930 . S
O660 Co649 2.093 . S
O660 C652 1.224 . S
H661 C693 0.929 . S
H662 C695 0.930 . S
H663 C696 0.930 . S
H664 C694 0.929 . S
H665 C697 0.928 . S
O666 Co650 2.057 . S
O666 C654 1.232 . S
H667 C686 0.929 . S
H668 C687 0.929 . S
H669 C699 0.931 . S
H670 C691 0.929 . S
H671 C700 0.930 . S
H672 C692 0.931 . S
O673 Co649 2.097 . S
O673 C701 1.214 . S
H674 C702 0.929 . S
H675 C703 0.929 . S
H676 C704 0.930 . S
H677 C705 0.929 . S
H678 C707 0.930 . S
H679 C684 0.930 . S
H680 C688 0.930 . S
O681 Co650 2.037 . S
O681 C701 1.234 . S
C682 O656 1.269 . S
C682 O657 1.257 . S
C683 H658 0.930 . S
C683 C686 1.388 . S
C683 C688 1.418 . S
C684 H679 0.930 . S
C684 C687 1.404 . S
C684 C688 1.353 . S
N685 Co650 2.145 . S
N685 C686 1.397 . S
N685 C687 1.334 . S
C686 H667 0.929 . S
C686 C683 1.388 . S
C686 N685 1.397 . S
C687 H668 0.929 . S
C687 C684 1.404 . S
C687 N685 1.334 . S
C688 H680 0.930 . S
C688 C683 1.418 . S
C688 C684 1.353 . S
C689 H659 0.930 . S
C689 N690 1.330 . S
C689 C691 1.446 . S
N690 Co649 2.151 . S
N690 C689 1.330 . S
N690 C694 1.418 . S
C691 H670 0.929 . S
C691 C689 1.446 . S
C691 C692 1.332 . S
C692 H672 0.931 . S
C692 C691 1.332 . S
C692 C693 1.267 . S
C693 H661 0.929 . S
C693 C692 1.267 . S
C693 C694 1.251 . S
C694 H664 0.929 . S
C694 N690 1.418 . S
C694 C693 1.251 . S
C695 H662 0.930 . S
C695 C697 1.406 . S
C695 C700 1.261 . S
C696 H663 0.930 . S
C696 N698 1.325 . S
C696 C699 1.357 . S
C697 H665 0.928 . S
C697 C695 1.406 . S
C697 N698 1.261 . S
N698 Co649 2.214 . S
N698 C696 1.325 . S
N698 C697 1.261 . S
C699 H669 0.931 . S
C699 C696 1.357 . S
C699 C700 1.312 . S
C700 H671 0.930 . S
C700 C695 1.261 . S
C700 C699 1.312 . S
C701 O673 1.214 . S
C701 O681 1.234 . S
C702 H674 0.929 . S
C702 C705 1.391 . S
C702 C707 1.391 . S
C703 H675 0.929 . S
C703 C704 1.390 . S
C703 N706 1.391 . S
C704 H676 0.930 . S
C704 C703 1.390 . S
C704 C705 1.392 . S
C705 H677 0.929 . S
C705 C702 1.391 . S
C705 C704 1.392 . S
N706 Co650 2.257 . S
N706 C703 1.391 . S
N706 C707 1.388 . S
C707 H678 0.930 . S
C707 C702 1.391 . S
C707 N706 1.388 . S
H708 C726 0.951 . S
H709 C728 0.951 . S
H710 C730 0.950 . S
H711 C731 0.950 . S
H712 C733 0.950 . S
H713 C736 0.950 . S
H714 C737 0.950 . S
H715 C739 0.950 . S
H716 C740 0.950 . S
H717 C741 0.951 . S
H718 C743 0.951 . S
H719 C745 0.950 . S
H720 C746 0.950 . S
H721 C748 0.950 . S
H722 C751 0.950 . S
H723 C752 0.950 . S
H724 C754 0.950 . S
H725 C755 0.950 . S
C726 H708 0.951 . S
C726 C727 1.366 . S
C726 C728 1.388 . S
C727 C726 1.366 . S
C727 C731 1.385 . S
C728 H709 0.951 . S
C728 C726 1.388 . S
C728 C729 1.366 . S
C729 C728 1.366 . S
C729 C730 1.414 . S
C729 C732 1.499 . S
C730 H710 0.950 . S
C730 C729 1.414 . S
C730 C731 1.374 . S
C731 H711 0.950 . S
C731 C727 1.385 . S
C731 C730 1.374 . S
C732 C729 1.499 . S
C732 C733 1.373 . S
C732 C734 1.389 . S
C733 H712 0.950 . S
C733 C732 1.373 . S
C733 C749 1.377 . S
C734 C732 1.389 . S
C734 C735 1.524 . S
C734 C748 1.377 . S
C735 C734 1.524 . S
C735 C736 1.397 . S
C735 C740 1.363 . S
C736 H713 0.950 . S
C736 C735 1.397 . S
C736 C737 1.334 . S
C737 H714 0.950 . S
C737 C736 1.334 . S
C737 C738 1.287 . S
C738 C737 1.287 . S
C738 C739 1.524 . S
C738 H757 0.913 . S
C739 H715 0.950 . S
C739 C738 1.524 . S
C739 C740 1.415 . S
C740 H716 0.950 . S
C740 C735 1.363 . S
C740 C739 1.415 . S
C741 H717 0.951 . S
C741 C742 1.366 . S
C741 C743 1.388 . S
C742 C741 1.366 . S
C742 C746 1.385 . S
C743 H718 0.951 . S
C743 C741 1.388 . S
C743 C744 1.366 . S
C744 C743 1.366 . S
C744 C745 1.414 . S
C744 C747 1.499 . S
C745 H719 0.950 . S
C745 C744 1.414 . S
C745 C746 1.374 . S
C746 H720 0.950 . S
C746 C742 1.385 . S
C746 C745 1.374 . S
C747 C744 1.499 . S
C747 C748 1.373 . S
C747 C749 1.389 . S
C748 H721 0.950 . S
C748 C734 1.377 . S
C748 C747 1.373 . S
C749 C733 1.377 . S
C749 C747 1.389 . S
C749 C750 1.524 . S
C750 C749 1.524 . S
C750 C751 1.397 . S
C750 C755 1.363 . S
C751 H722 0.950 . S
C751 C750 1.397 . S
C751 C752 1.334 . S
C752 H723 0.950 . S
C752 C751 1.334 . S
C752 C753 1.287 . S
C753 C752 1.287 . S
C753 C754 1.524 . S
C753 H756 0.999 . S
C754 H724 0.950 . S
C754 C753 1.524 . S
C754 C755 1.415 . S
C755 H725 0.950 . S
C755 C750 1.363 . S
C755 C754 1.415 . S
H756 C753 0.999 . S
H757 C738 0.913 . S
H758 C776 0.951 . S
H759 C778 0.951 . S
H760 C780 0.950 . S
H761 C781 0.950 . S
H762 C783 0.950 . S
H763 C786 0.950 . S
H764 C787 0.950 . S
H765 C789 0.950 . S
H766 C790 0.950 . S
H767 C791 0.951 . S
H768 C793 0.951 . S
H769 C795 0.950 . S
H770 C796 0.950 . S
H771 C798 0.950 . S
H772 C801 0.950 . S
H773 C802 0.950 . S
H774 C804 0.950 . S
H775 C805 0.950 . S
C776 H758 0.951 . S
C776 C777 1.366 . S
C776 C778 1.388 . S
C777 C776 1.366 . S
C777 C781 1.385 . S
C778 H759 0.951 . S
C778 C776 1.388 . S
C778 C779 1.366 . S
C779 C778 1.366 . S
C779 C780 1.414 . S
C779 C782 1.499 . S
C780 H760 0.950 . S
C780 C779 1.414 . S
C780 C781 1.374 . S
C781 H761 0.950 . S
C781 C777 1.385 . S
C781 C780 1.374 . S
C782 C779 1.499 . S
C782 C783 1.373 . S
C782 C784 1.389 . S
C783 H762 0.950 . S
C783 C782 1.373 . S
C783 C799 1.377 . S
C784 C782 1.389 . S
C784 C785 1.524 . S
C784 C798 1.377 . S
C785 C784 1.524 . S
C785 C786 1.397 . S
C785 C790 1.363 . S
C786 H763 0.950 . S
C786 C785 1.397 . S
C786 C787 1.334 . S
C787 H764 0.950 . S
C787 C786 1.334 . S
C787 C788 1.287 . S
C788 C787 1.287 . S
C788 C789 1.524 . S
C788 H807 0.913 . S
C789 H765 0.950 . S
C789 C788 1.524 . S
C789 C790 1.415 . S
C790 H766 0.950 . S
C790 C785 1.363 . S
C790 C789 1.415 . S
C791 H767 0.951 . S
C791 C792 1.366 . S
C791 C793 1.388 . S
C792 C791 1.366 . S
C792 C796 1.385 . S
C793 H768 0.951 . S
C793 C791 1.388 . S
C793 C794 1.366 . S
C794 C793 1.366 . S
C794 C795 1.414 . S
C794 C797 1.499 . S
C795 H769 0.950 . S
C795 C794 1.414 . S
C795 C796 1.374 . S
C796 H770 0.950 . S
C796 C792 1.385 . S
C796 C795 1.374 . S
C797 C794 1.499 . S
C797 C798 1.373 . S
C797 C799 1.389 . S
C798 H771 0.950 . S
C798 C784 1.377 . S
C798 C797 1.373 . S
C799 C783 1.377 . S
C799 C797 1.389 . S
C799 C800 1.524 . S
C800 C799 1.524 . S
C800 C801 1.397 . S
C800 C805 1.363 . S
C801 H772 0.950 . S
C801 C800 1.397 . S
C801 C802 1.334 . S
C802 H773 0.950 . S
C802 C801 1.334 . S
C802 C803 1.287 . S
C803 C802 1.287 . S
C803 C804 1.524 . S
C803 H806 0.999 . S
C804 H774 0.950 . S
C804 C803 1.524 . S
C804 C805 1.415 . S
C805 H775 0.950 . S
C805 C800 1.363 . S
C805 C804 1.415 . S
H806 C803 0.999 . S
H807 C788 0.913 . S
H808 C826 0.951 . S
H809 C828 0.951 . S
H810 C830 0.950 . S
H811 C831 0.950 . S
H812 C833 0.950 . S
H813 C836 0.950 . S
H814 C837 0.950 . S
H815 C839 0.950 . S
H816 C840 0.950 . S
H817 C841 0.951 . S
H818 C843 0.951 . S
H819 C845 0.950 . S
H820 C846 0.950 . S
H821 C848 0.950 . S
H822 C851 0.950 . S
H823 C852 0.950 . S
H824 C854 0.950 . S
H825 C855 0.950 . S
C826 H808 0.951 . S
C826 C827 1.366 . S
C826 C828 1.388 . S
C827 C826 1.366 . S
C827 C831 1.385 . S
C828 H809 0.951 . S
C828 C826 1.388 . S
C828 C829 1.366 . S
C829 C828 1.366 . S
C829 C830 1.414 . S
C829 C832 1.499 . S
C830 H810 0.950 . S
C830 C829 1.414 . S
C830 C831 1.374 . S
C831 H811 0.950 . S
C831 C827 1.385 . S
C831 C830 1.374 . S
C832 C829 1.499 . S
C832 C833 1.373 . S
C832 C834 1.389 . S
C833 H812 0.950 . S
C833 C832 1.373 . S
C833 C849 1.377 . S
C834 C832 1.389 . S
C834 C835 1.524 . S
C834 C848 1.377 . S
C835 C834 1.524 . S
C835 C836 1.397 . S
C835 C840 1.363 . S
C836 H813 0.950 . S
C836 C835 1.397 . S
C836 C837 1.334 . S
C837 H814 0.950 . S
C837 C836 1.334 . S
C837 C838 1.287 . S
C838 C837 1.287 . S
C838 C839 1.524 . S
C838 H857 0.913 . S
C839 H815 0.950 . S
C839 C838 1.524 . S
C839 C840 1.415 . S
C840 H816 0.950 . S
C840 C835 1.363 . S
C840 C839 1.415 . S
C841 H817 0.951 . S
C841 C842 1.366 . S
C841 C843 1.388 . S
C842 C841 1.366 . S
C842 C846 1.385 . S
C843 H818 0.951 . S
C843 C841 1.388 . S
C843 C844 1.366 . S
C844 C843 1.366 . S
C844 C845 1.414 . S
C844 C847 1.499 . S
C845 H819 0.950 . S
C845 C844 1.414 . S
C845 C846 1.374 . S
C846 H820 0.950 . S
C846 C842 1.385 . S
C846 C845 1.374 . S
C847 C844 1.499 . S
C847 C848 1.373 . S
C847 C849 1.389 . S
C848 H821 0.950 . S
C848 C834 1.377 . S
C848 C847 1.373 . S
C849 C833 1.377 . S
C849 C847 1.389 . S
C849 C850 1.524 . S
C850 C849 1.524 . S
C850 C851 1.397 . S
C850 C855 1.363 . S
C851 H822 0.950 . S
C851 C850 1.397 . S
C851 C852 1.334 . S
C852 H823 0.950 . S
C852 C851 1.334 . S
C852 C853 1.287 . S
C853 C852 1.287 . S
C853 C854 1.524 . S
C853 H856 0.999 . S
C854 H824 0.950 . S
C854 C853 1.524 . S
C854 C855 1.415 . S
C855 H825 0.950 . S
C855 C850 1.363 . S
C855 C854 1.415 . S
H856 C853 0.999 . S
H857 C838 0.913 . S
H858 C876 0.951 . S
H859 C878 0.951 . S
H860 C880 0.950 . S
H861 C881 0.950 . S
H862 C883 0.950 . S
H863 C886 0.950 . S
H864 C887 0.950 . S
H865 C889 0.950 . S
H866 C890 0.950 . S
H867 C891 0.951 . S
H868 C893 0.951 . S
H869 C895 0.950 . S
H870 C896 0.950 . S
H871 C898 0.950 . S
H872 C901 0.950 . S
H873 C902 0.952 . S
H874 C904 0.950 . S
H875 C905 0.950 . S
C876 H858 0.951 . S
C876 C877 1.366 . S
C876 C878 1.388 . S
C877 C876 1.366 . S
C877 C881 1.385 . S
C878 H859 0.951 . S
C878 C876 1.388 . S
C878 C879 1.366 . S
C879 C878 1.366 . S
C879 C880 1.414 . S
C879 C882 1.499 . S
C880 H860 0.950 . S
C880 C879 1.414 . S
C880 C881 1.374 . S
C881 H861 0.950 . S
C881 C877 1.385 . S
C881 C880 1.374 . S
C882 C879 1.499 . S
C882 C883 1.373 . S
C882 C884 1.389 . S
C883 H862 0.950 . S
C883 C882 1.373 . S
C883 C899 1.377 . S
C884 C882 1.389 . S
C884 C885 1.524 . S
C884 C898 1.377 . S
C885 C884 1.524 . S
C885 C886 1.397 . S
C885 C890 1.363 . S
C886 H863 0.950 . S
C886 C885 1.397 . S
C886 C887 1.334 . S
C887 H864 0.950 . S
C887 C886 1.334 . S
C887 C888 1.287 . S
C888 C887 1.287 . S
C888 C889 1.524 . S
C888 H907 0.913 . S
C889 H865 0.950 . S
C889 C888 1.524 . S
C889 C890 1.415 . S
C890 H866 0.950 . S
C890 C885 1.363 . S
C890 C889 1.415 . S
C891 H867 0.951 . S
C891 C892 1.366 . S
C891 C893 1.388 . S
C892 C891 1.366 . S
C892 C896 1.385 . S
C893 H868 0.951 . S
C893 C891 1.388 . S
C893 C894 1.366 . S
C894 C893 1.366 . S
C894 C895 1.414 . S
C894 C897 1.499 . S
C895 H869 0.950 . S
C895 C894 1.414 . S
C895 C896 1.374 . S
C896 H870 0.950 . S
C896 C892 1.385 . S
C896 C895 1.374 . S
C897 C894 1.499 . S
C897 C898 1.373 . S
C897 C899 1.389 . S
C898 H871 0.950 . S
C898 C884 1.377 . S
C898 C897 1.373 . S
C899 C883 1.377 . S
C899 C897 1.389 . S
C899 C900 1.524 . S
C900 C899 1.524 . S
C900 C901 1.397 . S
C900 C905 1.363 . S
C901 H872 0.950 . S
C901 C900 1.397 . S
C901 C902 1.334 . S
C902 H873 0.952 . S
C902 C901 1.334 . S
C902 C903 1.287 . S
C903 C902 1.287 . S
C903 C904 1.524 . S
C903 H906 0.999 . S
C904 H874 0.950 . S
C904 C903 1.524 . S
C904 C905 1.415 . S
C905 H875 0.950 . S
C905 C900 1.363 . S
C905 C904 1.415 . S
H906 C903 0.999 . S
H907 C888 0.913 . S
H908 C926 0.951 . S
H909 C928 0.951 . S
H910 C930 0.950 . S
H911 C931 0.950 . S
H912 C933 0.950 . S
H913 C936 0.950 . S
H914 C937 0.943 1_556 S
H915 C939 0.950 . S
H916 C940 0.950 . S
H917 C941 0.951 . S
H918 C943 0.951 . S
H919 C945 0.950 . S
H920 C946 0.950 . S
H921 C948 0.950 . S
H922 C951 0.950 . S
H923 C952 0.950 . S
H924 C954 0.950 . S
H925 C955 0.950 . S
C926 H908 0.951 . S
C926 C927 1.366 . S
C926 C928 1.388 . S
C927 C926 1.366 . S
C927 C931 1.385 . S
C928 H909 0.951 . S
C928 C926 1.388 . S
C928 C929 1.366 . S
C929 C928 1.366 . S
C929 C930 1.414 . S
C929 C932 1.499 . S
C930 H910 0.950 . S
C930 C929 1.414 . S
C930 C931 1.374 . S
C931 H911 0.950 . S
C931 C927 1.385 . S
C931 C930 1.374 . S
C932 C929 1.499 . S
C932 C933 1.373 . S
C932 C934 1.389 . S
C933 H912 0.950 . S
C933 C932 1.373 . S
C933 C949 1.377 . S
C934 C932 1.389 . S
C934 C935 1.524 . S
C934 C948 1.377 . S
C935 C934 1.524 . S
C935 C936 1.397 . S
C935 C940 1.363 . S
C936 H913 0.950 . S
C936 C935 1.397 . S
C936 C937 1.334 . S
C937 H914 0.943 1_554 S
C937 C936 1.334 . S
C937 C938 1.287 . S
C938 C937 1.287 . S
C938 C939 1.524 . S
C938 H957 0.913 . S
C939 H915 0.950 . S
C939 C938 1.524 . S
C939 C940 1.415 . S
C940 H916 0.950 . S
C940 C935 1.363 . S
C940 C939 1.415 . S
C941 H917 0.951 . S
C941 C942 1.366 . S
C941 C943 1.388 . S
C942 C941 1.366 . S
C942 C946 1.385 . S
C943 H918 0.951 . S
C943 C941 1.388 . S
C943 C944 1.366 . S
C944 C943 1.366 . S
C944 C945 1.414 . S
C944 C947 1.499 . S
C945 H919 0.950 . S
C945 C944 1.414 . S
C945 C946 1.374 . S
C946 H920 0.950 . S
C946 C942 1.385 . S
C946 C945 1.374 . S
C947 C944 1.499 . S
C947 C948 1.373 . S
C947 C949 1.389 . S
C948 H921 0.950 . S
C948 C934 1.377 . S
C948 C947 1.373 . S
C949 C933 1.377 . S
C949 C947 1.389 . S
C949 C950 1.524 . S
C950 C949 1.524 . S
C950 C951 1.397 . S
C950 C955 1.363 . S
C951 H922 0.950 . S
C951 C950 1.397 . S
C951 C952 1.334 . S
C952 H923 0.950 . S
C952 C951 1.334 . S
C952 C953 1.287 . S
C953 C952 1.287 . S
C953 C954 1.524 . S
C953 H956 0.999 . S
C954 H924 0.950 . S
C954 C953 1.524 . S
C954 C955 1.415 . S
C955 H925 0.950 . S
C955 C950 1.363 . S
C955 C954 1.415 . S
H956 C953 0.999 . S
H957 C938 0.913 . S
H958 C976 0.951 . S
H959 C978 0.951 . S
H960 C980 0.950 . S
H961 C981 0.950 . S
H962 C983 0.950 . S
H963 C986 0.950 . S
H964 C987 0.950 . S
H965 C989 0.950 . S
H966 C990 0.950 . S
H967 C991 0.951 . S
H968 C993 0.951 . S
H969 C995 0.950 . S
H970 C996 0.950 . S
H971 C998 0.950 . S
H972 C1001 0.950 . S
H973 C1002 0.950 . S
H974 C1004 0.950 . S
H975 C1005 0.950 . S
C976 H958 0.951 . S
C976 C977 1.366 . S
C976 C978 1.388 . S
C977 C976 1.366 . S
C977 C981 1.385 . S
C978 H959 0.951 . S
C978 C976 1.388 . S
C978 C979 1.366 . S
C979 C978 1.366 . S
C979 C980 1.414 . S
C979 C982 1.499 . S
C980 H960 0.950 . S
C980 C979 1.414 . S
C980 C981 1.374 . S
C981 H961 0.950 . S
C981 C977 1.385 . S
C981 C980 1.374 . S
C982 C979 1.499 . S
C982 C983 1.373 . S
C982 C984 1.389 . S
C983 H962 0.950 . S
C983 C982 1.373 . S
C983 C999 1.377 . S
C984 C982 1.389 . S
C984 C985 1.524 . S
C984 C998 1.377 . S
C985 C984 1.524 . S
C985 C986 1.397 . S
C985 C990 1.363 . S
C986 H963 0.950 . S
C986 C985 1.397 . S
C986 C987 1.334 . S
C987 H964 0.950 . S
C987 C986 1.334 . S
C987 C988 1.287 . S
C988 C987 1.287 . S
C988 C989 1.524 . S
C988 H1007 0.913 . S
C989 H965 0.950 . S
C989 C988 1.524 . S
C989 C990 1.415 . S
C990 H966 0.950 . S
C990 C985 1.363 . S
C990 C989 1.415 . S
C991 H967 0.951 . S
C991 C992 1.366 . S
C991 C993 1.388 . S
C992 C991 1.366 . S
C992 C996 1.385 . S
C993 H968 0.951 . S
C993 C991 1.388 . S
C993 C994 1.366 . S
C994 C993 1.366 . S
C994 C995 1.414 . S
C994 C997 1.499 . S
C995 H969 0.950 . S
C995 C994 1.414 . S
C995 C996 1.374 . S
C996 H970 0.950 . S
C996 C992 1.385 . S
C996 C995 1.374 . S
C997 C994 1.499 . S
C997 C998 1.373 . S
C997 C999 1.389 . S
C998 H971 0.950 . S
C998 C984 1.377 . S
C998 C997 1.373 . S
C999 C983 1.377 . S
C999 C997 1.389 . S
C999 C1000 1.524 . S
C1000 C999 1.524 . S
C1000 C1001 1.397 . S
C1000 C1005 1.363 . S
C1001 H972 0.950 . S
C1001 C1000 1.397 . S
C1001 C1002 1.334 . S
C1002 H973 0.950 . S
C1002 C1001 1.334 . S
C1002 C1003 1.287 . S
C1003 C1002 1.287 . S
C1003 C1004 1.524 . S
C1003 H1006 0.999 . S
C1004 H974 0.950 . S
C1004 C1003 1.524 . S
C1004 C1005 1.415 . S
C1005 H975 0.950 . S
C1005 C1000 1.363 . S
C1005 C1004 1.415 . S
H1006 C1003 0.999 . S
H1007 C988 0.913 . S
H1008 C1026 0.951 . S
H1009 C1028 0.951 . S
H1010 C1030 0.950 . S
H1011 C1031 0.950 . S
H1012 C1033 0.950 . S
H1013 C1036 0.950 . S
H1014 C1037 0.950 . S
H1015 C1039 0.950 . S
H1016 C1040 0.950 . S
H1017 C1041 0.951 . S
H1018 C1043 0.951 . S
H1019 C1045 0.950 . S
H1020 C1046 0.950 . S
H1021 C1048 0.950 . S
H1022 C1051 0.950 . S
H1023 C1052 0.950 . S
H1024 C1054 0.950 . S
H1025 C1055 0.950 . S
C1026 H1008 0.951 . S
C1026 C1027 1.366 . S
C1026 C1028 1.388 . S
C1027 C1026 1.366 . S
C1027 C1031 1.385 . S
C1028 H1009 0.951 . S
C1028 C1026 1.388 . S
C1028 C1029 1.366 . S
C1029 C1028 1.366 . S
C1029 C1030 1.414 . S
C1029 C1032 1.499 . S
C1030 H1010 0.950 . S
C1030 C1029 1.414 . S
C1030 C1031 1.374 . S
C1031 H1011 0.950 . S
C1031 C1027 1.385 . S
C1031 C1030 1.374 . S
C1032 C1029 1.499 . S
C1032 C1033 1.373 . S
C1032 C1034 1.389 . S
C1033 H1012 0.950 . S
C1033 C1032 1.373 . S
C1033 C1049 1.377 . S
C1034 C1032 1.389 . S
C1034 C1035 1.524 . S
C1034 C1048 1.377 . S
C1035 C1034 1.524 . S
C1035 C1036 1.397 . S
C1035 C1040 1.363 . S
C1036 H1013 0.950 . S
C1036 C1035 1.397 . S
C1036 C1037 1.334 . S
C1037 H1014 0.950 . S
C1037 C1036 1.334 . S
C1037 C1038 1.287 . S
C1038 C1037 1.287 . S
C1038 C1039 1.524 . S
C1038 H1057 0.913 . S
C1039 H1015 0.950 . S
C1039 C1038 1.524 . S
C1039 C1040 1.415 . S
C1040 H1016 0.950 . S
C1040 C1035 1.363 . S
C1040 C1039 1.415 . S
C1041 H1017 0.951 . S
C1041 C1042 1.366 . S
C1041 C1043 1.388 . S
C1042 C1041 1.366 . S
C1042 C1046 1.385 . S
C1043 H1018 0.951 . S
C1043 C1041 1.388 . S
C1043 C1044 1.366 . S
C1044 C1043 1.366 . S
C1044 C1045 1.414 . S
C1044 C1047 1.499 . S
C1045 H1019 0.950 . S
C1045 C1044 1.414 . S
C1045 C1046 1.374 . S
C1046 H1020 0.950 . S
C1046 C1042 1.385 . S
C1046 C1045 1.374 . S
C1047 C1044 1.499 . S
C1047 C1048 1.373 . S
C1047 C1049 1.389 . S
C1048 H1021 0.950 . S
C1048 C1034 1.377 . S
C1048 C1047 1.373 . S
C1049 C1033 1.377 . S
C1049 C1047 1.389 . S
C1049 C1050 1.524 . S
C1050 C1049 1.524 . S
C1050 C1051 1.397 . S
C1050 C1055 1.363 . S
C1051 H1022 0.950 . S
C1051 C1050 1.397 . S
C1051 C1052 1.334 . S
C1052 H1023 0.950 . S
C1052 C1051 1.334 . S
C1052 C1053 1.287 . S
C1053 C1052 1.287 . S
C1053 C1054 1.524 . S
C1053 H1056 0.999 . S
C1054 H1024 0.950 . S
C1054 C1053 1.524 . S
C1054 C1055 1.415 . S
C1055 H1025 0.950 . S
C1055 C1050 1.363 . S
C1055 C1054 1.415 . S
H1056 C1053 0.999 . S
H1057 C1038 0.913 . S
H1058 C1076 0.951 . S
H1059 C1078 0.951 . S
H1060 C1080 0.950 . S
H1061 C1081 0.950 . S
H1062 C1083 0.950 . S
H1063 C1086 0.950 . S
H1064 C1087 0.950 . S
H1065 C1089 0.950 . S
H1066 C1090 0.950 . S
H1067 C1091 0.951 . S
H1068 C1093 0.951 . S
H1069 C1095 0.950 . S
H1070 C1096 0.950 . S
H1071 C1098 0.950 . S
H1072 C1101 0.950 . S
H1073 C1102 0.950 . S
H1074 C1104 0.950 . S
H1075 C1105 0.950 . S
C1076 H1058 0.951 . S
C1076 C1077 1.366 . S
C1076 C1078 1.388 . S
C1077 C1076 1.366 . S
C1077 C1081 1.385 . S
C1078 H1059 0.951 . S
C1078 C1076 1.388 . S
C1078 C1079 1.366 . S
C1079 C1078 1.366 . S
C1079 C1080 1.414 . S
C1079 C1082 1.499 . S
C1080 H1060 0.950 . S
C1080 C1079 1.414 . S
C1080 C1081 1.374 . S
C1081 H1061 0.950 . S
C1081 C1077 1.385 . S
C1081 C1080 1.374 . S
C1082 C1079 1.499 . S
C1082 C1083 1.373 . S
C1082 C1084 1.389 . S
C1083 H1062 0.950 . S
C1083 C1082 1.373 . S
C1083 C1099 1.377 . S
C1084 C1082 1.389 . S
C1084 C1085 1.524 . S
C1084 C1098 1.377 . S
C1085 C1084 1.524 . S
C1085 C1086 1.397 . S
C1085 C1090 1.363 . S
C1086 H1063 0.950 . S
C1086 C1085 1.397 . S
C1086 C1087 1.334 . S
C1087 H1064 0.950 . S
C1087 C1086 1.334 . S
C1087 C1088 1.287 . S
C1088 C1087 1.287 . S
C1088 C1089 1.524 . S
C1088 H1107 0.913 . S
C1089 H1065 0.950 . S
C1089 C1088 1.524 . S
C1089 C1090 1.415 . S
C1090 H1066 0.950 . S
C1090 C1085 1.363 . S
C1090 C1089 1.415 . S
C1091 H1067 0.951 . S
C1091 C1092 1.366 . S
C1091 C1093 1.388 . S
C1092 C1091 1.366 . S
C1092 C1096 1.385 . S
C1093 H1068 0.951 . S
C1093 C1091 1.388 . S
C1093 C1094 1.366 . S
C1094 C1093 1.366 . S
C1094 C1095 1.414 . S
C1094 C1097 1.499 . S
C1095 H1069 0.950 . S
C1095 C1094 1.414 . S
C1095 C1096 1.374 . S
C1096 H1070 0.950 . S
C1096 C1092 1.385 . S
C1096 C1095 1.374 . S
C1097 C1094 1.499 . S
C1097 C1098 1.373 . S
C1097 C1099 1.389 . S
C1098 H1071 0.950 . S
C1098 C1084 1.377 . S
C1098 C1097 1.373 . S
C1099 C1083 1.377 . S
C1099 C1097 1.389 . S
C1099 C1100 1.524 . S
C1100 C1099 1.524 . S
C1100 C1101 1.397 . S
C1100 C1105 1.363 . S
C1101 H1072 0.950 . S
C1101 C1100 1.397 . S
C1101 C1102 1.334 . S
C1102 H1073 0.950 . S
C1102 C1101 1.334 . S
C1102 C1103 1.287 . S
C1103 C1102 1.287 . S
C1103 C1104 1.524 . S
C1103 H1106 0.999 . S
C1104 H1074 0.950 . S
C1104 C1103 1.524 . S
C1104 C1105 1.415 . S
C1105 H1075 0.950 . S
C1105 C1100 1.363 . S
C1105 C1104 1.415 . S
H1106 C1103 0.999 . S
H1107 C1088 0.913 . S
H1108 C1126 0.951 . S
H1109 C1128 0.951 . S
H1110 C1130 0.950 . S
H1111 C1131 0.950 . S
H1112 C1133 0.950 . S
H1113 C1136 0.950 . S
H1114 C1137 0.950 . S
H1115 C1139 0.950 . S
H1116 C1140 0.950 . S
H1117 C1141 0.951 . S
H1118 C1143 0.951 . S
H1119 C1145 0.950 . S
H1120 C1146 0.950 . S
H1121 C1148 0.950 . S
H1122 C1151 0.950 . S
H1123 C1152 0.950 . S
H1124 C1154 0.950 . S
H1125 C1155 0.950 . S
C1126 H1108 0.951 . S
C1126 C1127 1.366 1_556 S
C1126 C1128 1.388 . S
C1127 C1126 1.366 1_554 S
C1127 C1131 1.385 . S
C1128 H1109 0.951 . S
C1128 C1126 1.388 . S
C1128 C1129 1.366 . S
C1129 C1128 1.366 . S
C1129 C1130 1.414 . S
C1129 C1132 1.499 . S
C1130 H1110 0.950 . S
C1130 C1129 1.414 . S
C1130 C1131 1.374 1_556 S
C1131 H1111 0.950 . S
C1131 C1127 1.385 . S
C1131 C1130 1.374 1_554 S
C1132 C1129 1.499 . S
C1132 C1133 1.373 . S
C1132 C1134 1.389 . S
C1133 H1112 0.950 . S
C1133 C1132 1.373 . S
C1133 C1149 1.377 . S
C1134 C1132 1.389 . S
C1134 C1135 1.524 . S
C1134 C1148 1.377 . S
C1135 C1134 1.524 . S
C1135 C1136 1.397 . S
C1135 C1140 1.363 . S
C1136 H1113 0.950 . S
C1136 C1135 1.397 . S
C1136 C1137 1.334 . S
C1137 H1114 0.950 . S
C1137 C1136 1.334 . S
C1137 C1138 1.287 . S
C1138 C1137 1.287 . S
C1138 C1139 1.524 . S
C1138 H1157 0.913 . S
C1139 H1115 0.950 . S
C1139 C1138 1.524 . S
C1139 C1140 1.415 . S
C1140 H1116 0.950 . S
C1140 C1135 1.363 . S
C1140 C1139 1.415 . S
C1141 H1117 0.951 . S
C1141 C1142 1.366 . S
C1141 C1143 1.388 . S
C1142 C1141 1.366 . S
C1142 C1146 1.385 . S
C1143 H1118 0.951 . S
C1143 C1141 1.388 . S
C1143 C1144 1.366 . S
C1144 C1143 1.366 . S
C1144 C1145 1.414 . S
C1144 C1147 1.499 . S
C1145 H1119 0.950 . S
C1145 C1144 1.414 . S
C1145 C1146 1.374 . S
C1146 H1120 0.950 . S
C1146 C1142 1.385 . S
C1146 C1145 1.374 . S
C1147 C1144 1.499 . S
C1147 C1148 1.373 . S
C1147 C1149 1.389 . S
C1148 H1121 0.950 . S
C1148 C1134 1.377 . S
C1148 C1147 1.373 . S
C1149 C1133 1.377 . S
C1149 C1147 1.389 . S
C1149 C1150 1.524 . S
C1150 C1149 1.524 . S
C1150 C1151 1.397 . S
C1150 C1155 1.363 . S
C1151 H1122 0.950 . S
C1151 C1150 1.397 . S
C1151 C1152 1.334 . S
C1152 H1123 0.950 . S
C1152 C1151 1.334 . S
C1152 C1153 1.287 . S
C1153 C1152 1.287 . S
C1153 C1154 1.524 . S
C1153 H1156 0.999 . S
C1154 H1124 0.950 . S
C1154 C1153 1.524 . S
C1154 C1155 1.415 . S
C1155 H1125 0.950 . S
C1155 C1150 1.363 . S
C1155 C1154 1.415 . S
H1156 C1153 0.999 . S
H1157 C1138 0.913 . S
H1158 C1176 0.951 . S
H1159 C1178 0.951 . S
H1160 C1180 0.950 . S
H1161 C1181 0.950 . S
H1162 C1183 0.950 . S
H1163 C1186 0.950 . S
H1164 C1187 0.950 . S
H1165 C1189 0.950 . S
H1166 C1190 0.950 . S
H1167 C1191 0.951 . S
H1168 C1193 0.951 . S
H1169 C1195 0.950 . S
H1170 C1196 0.950 1_556 S
H1171 C1198 0.950 . S
H1172 C1201 0.950 . S
H1173 C1202 0.950 . S
H1174 C1204 0.950 . S
H1175 C1205 0.950 . S
C1176 H1158 0.951 . S
C1176 C1177 1.366 . S
C1176 C1178 1.388 . S
C1177 C1176 1.366 . S
C1177 C1181 1.385 . S
C1178 H1159 0.951 . S
C1178 C1176 1.388 . S
C1178 C1179 1.366 . S
C1179 C1178 1.366 . S
C1179 C1180 1.414 . S
C1179 C1182 1.499 . S
C1180 H1160 0.950 . S
C1180 C1179 1.414 . S
C1180 C1181 1.374 . S
C1181 H1161 0.950 . S
C1181 C1177 1.385 . S
C1181 C1180 1.374 . S
C1182 C1179 1.499 . S
C1182 C1183 1.373 . S
C1182 C1184 1.389 . S
C1183 H1162 0.950 . S
C1183 C1182 1.373 . S
C1183 C1199 1.377 . S
C1184 C1182 1.389 . S
C1184 C1185 1.524 . S
C1184 C1198 1.377 . S
C1185 C1184 1.524 . S
C1185 C1186 1.397 . S
C1185 C1190 1.363 . S
C1186 H1163 0.950 . S
C1186 C1185 1.397 . S
C1186 C1187 1.334 . S
C1187 H1164 0.950 . S
C1187 C1186 1.334 . S
C1187 C1188 1.287 . S
C1188 C1187 1.287 . S
C1188 C1189 1.524 . S
C1188 H1207 0.913 . S
C1189 H1165 0.950 . S
C1189 C1188 1.524 . S
C1189 C1190 1.415 . S
C1190 H1166 0.950 . S
C1190 C1185 1.363 . S
C1190 C1189 1.415 . S
C1191 H1167 0.951 . S
C1191 C1192 1.366 . S
C1191 C1193 1.388 1_556 S
C1192 C1191 1.366 . S
C1192 C1196 1.385 1_556 S
C1193 H1168 0.951 . S
C1193 C1191 1.388 1_554 S
C1193 C1194 1.366 . S
C1194 C1193 1.366 . S
C1194 C1195 1.414 . S
C1194 C1197 1.499 . S
C1195 H1169 0.950 . S
C1195 C1194 1.414 . S
C1195 C1196 1.374 . S
C1196 H1170 0.950 1_554 S
C1196 C1192 1.385 1_554 S
C1196 C1195 1.374 . S
C1197 C1194 1.499 . S
C1197 C1198 1.373 . S
C1197 C1199 1.389 . S
C1198 H1171 0.950 . S
C1198 C1184 1.377 . S
C1198 C1197 1.373 . S
C1199 C1183 1.377 . S
C1199 C1197 1.389 . S
C1199 C1200 1.524 . S
C1200 C1199 1.524 . S
C1200 C1201 1.397 . S
C1200 C1205 1.363 . S
C1201 H1172 0.950 . S
C1201 C1200 1.397 . S
C1201 C1202 1.334 . S
C1202 H1173 0.950 . S
C1202 C1201 1.334 . S
C1202 C1203 1.287 . S
C1203 C1202 1.287 . S
C1203 C1204 1.524 . S
C1203 H1206 0.999 1_554 S
C1204 H1174 0.950 . S
C1204 C1203 1.524 . S
C1204 C1205 1.415 . S
C1205 H1175 0.950 . S
C1205 C1200 1.363 . S
C1205 C1204 1.415 . S
H1206 C1203 0.999 1_556 S
H1207 C1188 0.913 . S
H1208 C1226 0.951 . S
H1209 C1228 0.951 . S
H1210 C1230 0.950 . S
H1211 C1231 0.950 . S
H1212 C1233 0.950 . S
H1213 C1236 0.950 . S
H1214 C1237 0.950 . S
H1215 C1239 0.950 . S
H1216 C1240 0.950 . S
H1217 C1241 0.951 . S
H1218 C1243 0.951 . S
H1219 C1245 0.950 . S
H1220 C1246 0.950 . S
H1221 C1248 0.950 . S
H1222 C1251 0.950 . S
H1223 C1252 0.950 . S
H1224 C1254 0.950 . S
H1225 C1255 0.950 . S
C1226 H1208 0.951 . S
C1226 C1227 1.366 . S
C1226 C1228 1.388 . S
C1227 C1226 1.366 . S
C1227 C1231 1.385 . S
C1228 H1209 0.951 . S
C1228 C1226 1.388 . S
C1228 C1229 1.366 . S
C1229 C1228 1.366 . S
C1229 C1230 1.414 . S
C1229 C1232 1.499 . S
C1230 H1210 0.950 . S
C1230 C1229 1.414 . S
C1230 C1231 1.374 . S
C1231 H1211 0.950 . S
C1231 C1227 1.385 . S
C1231 C1230 1.374 . S
C1232 C1229 1.499 . S
C1232 C1233 1.373 . S
C1232 C1234 1.389 . S
C1233 H1212 0.950 . S
C1233 C1232 1.373 . S
C1233 C1249 1.377 . S
C1234 C1232 1.389 . S
C1234 C1235 1.524 . S
C1234 C1248 1.377 . S
C1235 C1234 1.524 . S
C1235 C1236 1.397 . S
C1235 C1240 1.363 . S
C1236 H1213 0.950 . S
C1236 C1235 1.397 . S
C1236 C1237 1.334 . S
C1237 H1214 0.950 . S
C1237 C1236 1.334 . S
C1237 C1238 1.287 . S
C1238 C1237 1.287 . S
C1238 C1239 1.524 . S
C1238 H1257 0.913 . S
C1239 H1215 0.950 . S
C1239 C1238 1.524 . S
C1239 C1240 1.415 . S
C1240 H1216 0.950 . S
C1240 C1235 1.363 . S
C1240 C1239 1.415 . S
C1241 H1217 0.951 . S
C1241 C1242 1.366 . S
C1241 C1243 1.388 . S
C1242 C1241 1.366 . S
C1242 C1246 1.385 . S
C1243 H1218 0.951 . S
C1243 C1241 1.388 . S
C1243 C1244 1.366 . S
C1244 C1243 1.366 . S
C1244 C1245 1.414 . S
C1244 C1247 1.499 . S
C1245 H1219 0.950 . S
C1245 C1244 1.414 . S
C1245 C1246 1.374 . S
C1246 H1220 0.950 . S
C1246 C1242 1.385 . S
C1246 C1245 1.374 . S
C1247 C1244 1.499 . S
C1247 C1248 1.373 . S
C1247 C1249 1.389 . S
C1248 H1221 0.950 . S
C1248 C1234 1.377 . S
C1248 C1247 1.373 . S
C1249 C1233 1.377 . S
C1249 C1247 1.389 . S
C1249 C1250 1.524 . S
C1250 C1249 1.524 . S
C1250 C1251 1.397 . S
C1250 C1255 1.363 . S
C1251 H1222 0.950 . S
C1251 C1250 1.397 . S
C1251 C1252 1.334 . S
C1252 H1223 0.950 . S
C1252 C1251 1.334 . S
C1252 C1253 1.287 . S
C1253 C1252 1.287 . S
C1253 C1254 1.524 . S
C1253 H1256 0.999 . S
C1254 H1224 0.950 . S
C1254 C1253 1.524 . S
C1254 C1255 1.415 . S
C1255 H1225 0.950 . S
C1255 C1250 1.363 . S
C1255 C1254 1.415 . S
H1256 C1253 0.999 . S
H1257 C1238 0.913 . S
H1258 C1276 0.951 . S
H1259 C1278 0.951 . S
H1260 C1280 0.950 . S
H1261 C1281 0.950 . S
H1262 C1283 0.950 . S
H1263 C1286 0.950 . S
H1264 C1287 0.950 . S
H1265 C1289 0.950 . S
H1266 C1290 0.950 . S
H1267 C1291 0.951 . S
H1268 C1293 0.951 . S
H1269 C1295 0.950 . S
H1270 C1296 0.950 . S
H1271 C1298 0.950 . S
H1272 C1301 0.950 . S
H1273 C1302 0.950 . S
H1274 C1304 0.950 . S
H1275 C1305 0.950 . S
C1276 H1258 0.951 . S
C1276 C1277 1.366 . S
C1276 C1278 1.388 . S
C1277 C1276 1.366 . S
C1277 C1281 1.385 . S
C1278 H1259 0.951 . S
C1278 C1276 1.388 . S
C1278 C1279 1.366 . S
C1279 C1278 1.366 . S
C1279 C1280 1.414 . S
C1279 C1282 1.499 . S
C1280 H1260 0.950 . S
C1280 C1279 1.414 . S
C1280 C1281 1.374 . S
C1281 H1261 0.950 . S
C1281 C1277 1.385 . S
C1281 C1280 1.374 . S
C1282 C1279 1.499 . S
C1282 C1283 1.373 . S
C1282 C1284 1.389 . S
C1283 H1262 0.950 . S
C1283 C1282 1.373 . S
C1283 C1299 1.377 . S
C1284 C1282 1.389 . S
C1284 C1285 1.524 . S
C1284 C1298 1.377 . S
C1285 C1284 1.524 . S
C1285 C1286 1.397 . S
C1285 C1290 1.363 . S
C1286 H1263 0.950 . S
C1286 C1285 1.397 . S
C1286 C1287 1.334 . S
C1287 H1264 0.950 . S
C1287 C1286 1.334 . S
C1287 C1288 1.287 . S
C1288 C1287 1.287 . S
C1288 C1289 1.524 . S
C1288 H1307 0.913 . S
C1289 H1265 0.950 . S
C1289 C1288 1.524 . S
C1289 C1290 1.415 . S
C1290 H1266 0.950 . S
C1290 C1285 1.363 . S
C1290 C1289 1.415 . S
C1291 H1267 0.951 . S
C1291 C1292 1.366 . S
C1291 C1293 1.388 . S
C1292 C1291 1.366 . S
C1292 C1296 1.385 . S
C1293 H1268 0.951 . S
C1293 C1291 1.388 . S
C1293 C1294 1.366 . S
C1294 C1293 1.366 . S
C1294 C1295 1.414 . S
C1294 C1297 1.499 . S
C1295 H1269 0.950 . S
C1295 C1294 1.414 . S
C1295 C1296 1.374 . S
C1296 H1270 0.950 . S
C1296 C1292 1.385 . S
C1296 C1295 1.374 . S
C1297 C1294 1.499 . S
C1297 C1298 1.373 . S
C1297 C1299 1.389 . S
C1298 H1271 0.950 . S
C1298 C1284 1.377 . S
C1298 C1297 1.373 . S
C1299 C1283 1.377 . S
C1299 C1297 1.389 . S
C1299 C1300 1.524 . S
C1300 C1299 1.524 . S
C1300 C1301 1.397 . S
C1300 C1305 1.363 . S
C1301 H1272 0.950 . S
C1301 C1300 1.397 . S
C1301 C1302 1.334 . S
C1302 H1273 0.950 . S
C1302 C1301 1.334 . S
C1302 C1303 1.287 . S
C1303 C1302 1.287 . S
C1303 C1304 1.524 . S
C1303 H1306 0.999 . S
C1304 H1274 0.950 . S
C1304 C1303 1.524 . S
C1304 C1305 1.415 . S
C1305 H1275 0.950 . S
C1305 C1300 1.363 . S
C1305 C1304 1.415 . S
H1306 C1303 0.999 . S
H1307 C1288 0.913 . S
H1308 C1326 0.951 . S
H1309 C1328 0.951 . S
H1310 C1330 0.950 . S
H1311 C1331 0.950 . S
H1312 C1333 0.950 . S
H1313 C1336 0.950 . S
H1314 C1337 0.950 . S
H1315 C1339 0.950 . S
H1316 C1340 0.950 . S
H1317 C1341 0.951 . S
H1318 C1343 0.951 . S
H1319 C1345 0.950 . S
H1320 C1346 0.950 . S
H1321 C1348 0.950 . S
H1322 C1351 0.950 . S
H1323 C1352 0.950 . S
H1324 C1354 0.950 . S
H1325 C1355 0.950 . S
C1326 H1308 0.951 . S
C1326 C1327 1.366 . S
C1326 C1328 1.388 . S
C1327 C1326 1.366 . S
C1327 C1331 1.385 . S
C1328 H1309 0.951 . S
C1328 C1326 1.388 . S
C1328 C1329 1.366 . S
C1329 C1328 1.366 . S
C1329 C1330 1.414 . S
C1329 C1332 1.499 . S
C1330 H1310 0.950 . S
C1330 C1329 1.414 . S
C1330 C1331 1.374 . S
C1331 H1311 0.950 . S
C1331 C1327 1.385 . S
C1331 C1330 1.374 . S
C1332 C1329 1.499 . S
C1332 C1333 1.373 . S
C1332 C1334 1.389 . S
C1333 H1312 0.950 . S
C1333 C1332 1.373 . S
C1333 C1349 1.377 1_655 S
C1334 C1332 1.389 . S
C1334 C1335 1.524 . S
C1334 C1348 1.377 1_655 S
C1335 C1334 1.524 . S
C1335 C1336 1.397 . S
C1335 C1340 1.363 . S
C1336 H1313 0.950 . S
C1336 C1335 1.397 . S
C1336 C1337 1.334 . S
C1337 H1314 0.950 . S
C1337 C1336 1.334 . S
C1337 C1338 1.287 . S
C1338 C1337 1.287 . S
C1338 C1339 1.524 . S
C1338 H1357 0.913 . S
C1339 H1315 0.950 . S
C1339 C1338 1.524 . S
C1339 C1340 1.415 . S
C1340 H1316 0.950 . S
C1340 C1335 1.363 . S
C1340 C1339 1.415 . S
C1341 H1317 0.951 . S
C1341 C1342 1.366 . S
C1341 C1343 1.388 . S
C1342 C1341 1.366 . S
C1342 C1346 1.385 . S
C1343 H1318 0.951 . S
C1343 C1341 1.388 . S
C1343 C1344 1.366 . S
C1344 C1343 1.366 . S
C1344 C1345 1.414 . S
C1344 C1347 1.499 . S
C1345 H1319 0.950 . S
C1345 C1344 1.414 . S
C1345 C1346 1.374 . S
C1346 H1320 0.950 . S
C1346 C1342 1.385 . S
C1346 C1345 1.374 . S
C1347 C1344 1.499 . S
C1347 C1348 1.373 . S
C1347 C1349 1.389 . S
C1348 H1321 0.950 . S
C1348 C1334 1.377 1_455 S
C1348 C1347 1.373 . S
C1349 C1333 1.377 1_455 S
C1349 C1347 1.389 . S
C1349 C1350 1.524 . S
C1350 C1349 1.524 . S
C1350 C1351 1.397 . S
C1350 C1355 1.363 . S
C1351 H1322 0.950 . S
C1351 C1350 1.397 . S
C1351 C1352 1.334 . S
C1352 H1323 0.950 . S
C1352 C1351 1.334 . S
C1352 C1353 1.287 . S
C1353 C1352 1.287 . S
C1353 C1354 1.524 . S
C1353 H1356 0.999 . S
C1354 H1324 0.950 . S
C1354 C1353 1.524 . S
C1354 C1355 1.415 . S
C1355 H1325 0.950 . S
C1355 C1350 1.363 . S
C1355 C1354 1.415 . S
H1356 C1353 0.999 . S
H1357 C1338 0.913 . S
H1358 C1376 0.951 . S
H1359 C1378 0.951 . S
H1360 C1380 0.950 . S
H1361 C1381 0.950 . S
H1362 C1383 0.950 . S
H1363 C1386 0.950 . S
H1364 C1387 0.950 . S
H1365 C1389 0.950 . S
H1366 C1390 0.950 . S
H1367 C1391 0.951 . S
H1368 C1393 0.951 . S
H1369 C1395 0.950 . S
H1370 C1396 0.950 . S
H1371 C1398 0.950 . S
H1372 C1401 0.950 . S
H1373 C1402 0.950 . S
H1374 C1404 0.950 . S
H1375 C1405 0.950 . S
C1376 H1358 0.951 . S
C1376 C1377 1.366 . S
C1376 C1378 1.388 . S
C1377 C1376 1.366 . S
C1377 C1381 1.385 . S
C1378 H1359 0.951 . S
C1378 C1376 1.388 . S
C1378 C1379 1.366 . S
C1379 C1378 1.366 . S
C1379 C1380 1.414 . S
C1379 C1382 1.499 . S
C1380 H1360 0.950 . S
C1380 C1379 1.414 . S
C1380 C1381 1.374 . S
C1381 H1361 0.950 . S
C1381 C1377 1.385 . S
C1381 C1380 1.374 . S
C1382 C1379 1.499 . S
C1382 C1383 1.373 . S
C1382 C1384 1.389 . S
C1383 H1362 0.950 . S
C1383 C1382 1.373 . S
C1383 C1399 1.377 1_565 S
C1384 C1382 1.389 . S
C1384 C1385 1.524 . S
C1384 C1398 1.377 1_565 S
C1385 C1384 1.524 . S
C1385 C1386 1.397 . S
C1385 C1390 1.363 . S
C1386 H1363 0.950 . S
C1386 C1385 1.397 . S
C1386 C1387 1.334 . S
C1387 H1364 0.950 . S
C1387 C1386 1.334 . S
C1387 C1388 1.287 . S
C1388 C1387 1.287 . S
C1388 C1389 1.524 . S
C1388 H1407 0.913 . S
C1389 H1365 0.950 . S
C1389 C1388 1.524 . S
C1389 C1390 1.415 . S
C1390 H1366 0.950 . S
C1390 C1385 1.363 . S
C1390 C1389 1.415 . S
C1391 H1367 0.951 . S
C1391 C1392 1.366 . S
C1391 C1393 1.388 . S
C1392 C1391 1.366 . S
C1392 C1396 1.385 . S
C1393 H1368 0.951 . S
C1393 C1391 1.388 . S
C1393 C1394 1.366 . S
C1394 C1393 1.366 . S
C1394 C1395 1.414 . S
C1394 C1397 1.499 . S
C1395 H1369 0.950 . S
C1395 C1394 1.414 . S
C1395 C1396 1.374 . S
C1396 H1370 0.950 . S
C1396 C1392 1.385 . S
C1396 C1395 1.374 . S
C1397 C1394 1.499 . S
C1397 C1398 1.373 . S
C1397 C1399 1.389 . S
C1398 H1371 0.950 . S
C1398 C1384 1.377 1_545 S
C1398 C1397 1.373 . S
C1399 C1383 1.377 1_545 S
C1399 C1397 1.389 . S
C1399 C1400 1.524 . S
C1400 C1399 1.524 . S
C1400 C1401 1.397 . S
C1400 C1405 1.363 . S
C1401 H1372 0.950 . S
C1401 C1400 1.397 . S
C1401 C1402 1.334 . S
C1402 H1373 0.950 . S
C1402 C1401 1.334 . S
C1402 C1403 1.287 . S
C1403 C1402 1.287 . S
C1403 C1404 1.524 . S
C1403 H1406 0.999 . S
C1404 H1374 0.950 . S
C1404 C1403 1.524 . S
C1404 C1405 1.415 . S
C1405 H1375 0.950 . S
C1405 C1400 1.363 . S
C1405 C1404 1.415 . S
H1406 C1403 0.999 . S
H1407 C1388 0.913 . S
H1408 C1426 0.951 . S
H1409 C1428 0.951 . S
H1410 C1430 0.950 . S
H1411 C1431 0.950 . S
H1412 C1433 0.950 . S
H1413 C1436 0.950 . S
H1414 C1437 0.950 . S
H1415 C1439 0.950 . S
H1416 C1440 0.950 . S
H1417 C1441 0.951 . S
H1418 C1443 0.951 . S
H1419 C1445 0.950 . S
H1420 C1446 0.950 . S
H1421 C1448 0.950 . S
H1422 C1451 0.950 . S
H1423 C1452 0.950 . S
H1424 C1454 0.950 . S
H1425 C1455 0.950 . S
C1426 H1408 0.951 . S
C1426 C1427 1.366 . S
C1426 C1428 1.388 . S
C1427 C1426 1.366 . S
C1427 C1431 1.385 . S
C1428 H1409 0.951 . S
C1428 C1426 1.388 . S
C1428 C1429 1.366 . S
C1429 C1428 1.366 . S
C1429 C1430 1.414 . S
C1429 C1432 1.499 . S
C1430 H1410 0.950 . S
C1430 C1429 1.414 . S
C1430 C1431 1.374 . S
C1431 H1411 0.950 . S
C1431 C1427 1.385 . S
C1431 C1430 1.374 . S
C1432 C1429 1.499 . S
C1432 C1433 1.373 . S
C1432 C1434 1.389 . S
C1433 H1412 0.950 . S
C1433 C1432 1.373 . S
C1433 C1449 1.377 . S
C1434 C1432 1.389 . S
C1434 C1435 1.524 . S
C1434 C1448 1.377 . S
C1435 C1434 1.524 . S
C1435 C1436 1.397 . S
C1435 C1440 1.363 . S
C1436 H1413 0.950 . S
C1436 C1435 1.397 . S
C1436 C1437 1.334 . S
C1437 H1414 0.950 . S
C1437 C1436 1.334 . S
C1437 C1438 1.287 . S
C1438 C1437 1.287 . S
C1438 C1439 1.524 . S
C1438 H1457 0.913 . S
C1439 H1415 0.950 . S
C1439 C1438 1.524 . S
C1439 C1440 1.415 . S
C1440 H1416 0.950 . S
C1440 C1435 1.363 . S
C1440 C1439 1.415 . S
C1441 H1417 0.951 . S
C1441 C1442 1.366 . S
C1441 C1443 1.388 . S
C1442 C1441 1.366 . S
C1442 C1446 1.385 . S
C1443 H1418 0.951 . S
C1443 C1441 1.388 . S
C1443 C1444 1.366 . S
C1444 C1443 1.366 . S
C1444 C1445 1.414 . S
C1444 C1447 1.499 . S
C1445 H1419 0.950 . S
C1445 C1444 1.414 . S
C1445 C1446 1.374 . S
C1446 H1420 0.950 . S
C1446 C1442 1.385 . S
C1446 C1445 1.374 . S
C1447 C1444 1.499 . S
C1447 C1448 1.373 . S
C1447 C1449 1.389 . S
C1448 H1421 0.950 . S
C1448 C1434 1.377 . S
C1448 C1447 1.373 . S
C1449 C1433 1.377 . S
C1449 C1447 1.389 . S
C1449 C1450 1.524 . S
C1450 C1449 1.524 . S
C1450 C1451 1.397 . S
C1450 C1455 1.363 . S
C1451 H1422 0.950 . S
C1451 C1450 1.397 . S
C1451 C1452 1.334 . S
C1452 H1423 0.950 . S
C1452 C1451 1.334 . S
C1452 C1453 1.287 . S
C1453 C1452 1.287 . S
C1453 C1454 1.524 . S
C1453 H1456 0.999 . S
C1454 H1424 0.950 . S
C1454 C1453 1.524 . S
C1454 C1455 1.415 . S
C1455 H1425 0.950 . S
C1455 C1450 1.363 . S
C1455 C1454 1.415 . S
H1456 C1453 0.999 . S
H1457 C1438 0.913 . S
H1458 C1476 0.951 . S
H1459 C1478 0.951 . S
H1460 C1480 0.950 . S
H1461 C1481 0.950 . S
H1462 C1483 0.950 . S
H1463 C1486 0.950 . S
H1464 C1487 0.950 . S
H1465 C1489 0.950 . S
H1466 C1490 0.950 . S
H1467 C1491 0.951 . S
H1468 C1493 0.951 . S
H1469 C1495 0.950 . S
H1470 C1496 0.950 . S
H1471 C1498 0.950 . S
H1472 C1501 0.950 . S
H1473 C1502 0.950 . S
H1474 C1504 0.950 . S
H1475 C1505 0.950 . S
C1476 H1458 0.951 . S
C1476 C1477 1.366 . S
C1476 C1478 1.388 . S
C1477 C1476 1.366 . S
C1477 C1481 1.385 . S
C1478 H1459 0.951 . S
C1478 C1476 1.388 . S
C1478 C1479 1.366 . S
C1479 C1478 1.366 . S
C1479 C1480 1.414 . S
C1479 C1482 1.499 . S
C1480 H1460 0.950 . S
C1480 C1479 1.414 . S
C1480 C1481 1.374 . S
C1481 H1461 0.950 . S
C1481 C1477 1.385 . S
C1481 C1480 1.374 . S
C1482 C1479 1.499 . S
C1482 C1483 1.373 . S
C1482 C1484 1.389 . S
C1483 H1462 0.950 . S
C1483 C1482 1.373 . S
C1483 C1499 1.377 1_455 S
C1484 C1482 1.389 . S
C1484 C1485 1.524 . S
C1484 C1498 1.377 1_455 S
C1485 C1484 1.524 . S
C1485 C1486 1.397 . S
C1485 C1490 1.363 . S
C1486 H1463 0.950 . S
C1486 C1485 1.397 . S
C1486 C1487 1.334 . S
C1487 H1464 0.950 . S
C1487 C1486 1.334 . S
C1487 C1488 1.287 . S
C1488 C1487 1.287 . S
C1488 C1489 1.524 . S
C1488 H1507 0.913 . S
C1489 H1465 0.950 . S
C1489 C1488 1.524 . S
C1489 C1490 1.415 . S
C1490 H1466 0.950 . S
C1490 C1485 1.363 . S
C1490 C1489 1.415 . S
C1491 H1467 0.951 . S
C1491 C1492 1.366 . S
C1491 C1493 1.388 . S
C1492 C1491 1.366 . S
C1492 C1496 1.385 . S
C1493 H1468 0.951 . S
C1493 C1491 1.388 . S
C1493 C1494 1.366 . S
C1494 C1493 1.366 . S
C1494 C1495 1.414 . S
C1494 C1497 1.499 . S
C1495 H1469 0.950 . S
C1495 C1494 1.414 . S
C1495 C1496 1.374 . S
C1496 H1470 0.950 . S
C1496 C1492 1.385 . S
C1496 C1495 1.374 . S
C1497 C1494 1.499 . S
C1497 C1498 1.373 . S
C1497 C1499 1.389 . S
C1498 H1471 0.950 . S
C1498 C1484 1.377 1_655 S
C1498 C1497 1.373 . S
C1499 C1483 1.377 1_655 S
C1499 C1497 1.389 . S
C1499 C1500 1.524 . S
C1500 C1499 1.524 . S
C1500 C1501 1.397 . S
C1500 C1505 1.363 . S
C1501 H1472 0.950 . S
C1501 C1500 1.397 . S
C1501 C1502 1.334 . S
C1502 H1473 0.950 . S
C1502 C1501 1.334 . S
C1502 C1503 1.287 . S
C1503 C1502 1.287 . S
C1503 C1504 1.524 . S
C1503 H1506 0.999 . S
C1504 H1474 0.950 . S
C1504 C1503 1.524 . S
C1504 C1505 1.415 . S
C1505 H1475 0.950 . S
C1505 C1500 1.363 . S
C1505 C1504 1.415 . S
H1506 C1503 0.999 . S
H1507 C1488 0.913 . S
H1508 C1526 0.951 . S
H1509 C1528 0.951 . S
H1510 C1530 0.950 1_554 S
H1511 C1531 0.950 . S
H1512 C1533 0.950 . S
H1513 C1536 0.950 . S
H1514 C1537 0.950 . S
H1515 C1539 0.950 1_565 S
H1516 C1540 0.939 1_565 S
H1517 C1541 0.951 . S
H1518 C1543 0.951 . S
H1519 C1545 0.950 1_556 S
H1520 C1546 0.950 . S
H1521 C1548 0.950 . S
H1522 C1551 0.950 . S
H1523 C1552 0.950 . S
H1524 C1554 0.950 1_545 S
H1525 C1555 0.940 1_545 S
C1526 H1508 0.951 . S
C1526 C1527 1.366 . S
C1526 C1528 1.388 . S
C1527 C1526 1.366 . S
C1527 C1531 1.385 . S
C1528 H1509 0.951 . S
C1528 C1526 1.388 . S
C1528 C1529 1.366 . S
C1529 C1528 1.366 . S
C1529 C1530 1.414 . S
C1529 C1532 1.499 . S
C1530 H1510 0.950 1_556 S
C1530 C1529 1.414 . S
C1530 C1531 1.374 . S
C1531 H1511 0.950 . S
C1531 C1527 1.385 . S
C1531 C1530 1.374 . S
C1532 C1529 1.499 . S
C1532 C1533 1.373 1_556 S
C1532 C1534 1.389 . S
C1533 H1512 0.950 . S
C1533 C1532 1.373 1_554 S
C1533 C1549 1.377 1_545 S
C1534 C1532 1.389 . S
C1534 C1535 1.524 . S
C1534 C1548 1.377 1_545 S
C1535 C1534 1.524 . S
C1535 C1536 1.397 . S
C1535 C1540 1.366 . S
C1536 H1513 0.950 . S
C1536 C1535 1.397 . S
C1536 C1537 1.334 . S
C1537 H1514 0.950 . S
C1537 C1536 1.334 . S
C1537 C1538 1.287 . S
C1538 C1537 1.287 . S
C1538 C1539 1.524 . S
C1538 H1557 0.913 . S
C1539 H1515 0.950 1_545 S
C1539 C1538 1.524 . S
C1539 C1540 1.422 . S
C1540 H1516 0.939 1_545 S
C1540 C1535 1.366 . S
C1540 C1539 1.422 . S
C1541 H1517 0.951 . S
C1541 C1542 1.366 . S
C1541 C1543 1.388 . S
C1542 C1541 1.366 . S
C1542 C1546 1.385 . S
C1543 H1518 0.951 . S
C1543 C1541 1.388 . S
C1543 C1544 1.366 . S
C1544 C1543 1.366 . S
C1544 C1545 1.414 . S
C1544 C1547 1.499 . S
C1545 H1519 0.950 1_554 S
C1545 C1544 1.414 . S
C1545 C1546 1.374 . S
C1546 H1520 0.950 . S
C1546 C1542 1.385 . S
C1546 C1545 1.374 . S
C1547 C1544 1.499 . S
C1547 C1548 1.373 1_554 S
C1547 C1549 1.389 . S
C1548 H1521 0.950 . S
C1548 C1534 1.377 1_565 S
C1548 C1547 1.373 1_556 S
C1549 C1533 1.377 1_565 S
C1549 C1547 1.389 . S
C1549 C1550 1.524 . S
C1550 C1549 1.524 . S
C1550 C1551 1.397 . S
C1550 C1555 1.366 . S
C1551 H1522 0.950 . S
C1551 C1550 1.397 . S
C1551 C1552 1.334 . S
C1552 H1523 0.950 . S
C1552 C1551 1.334 . S
C1552 C1553 1.287 . S
C1553 C1552 1.287 . S
C1553 C1554 1.524 . S
C1553 H1556 0.999 . S
C1554 H1524 0.950 1_565 S
C1554 C1553 1.524 . S
C1554 C1555 1.422 . S
C1555 H1525 0.940 1_565 S
C1555 C1550 1.366 . S
C1555 C1554 1.422 . S
H1556 C1553 0.999 . S
H1557 C1538 0.913 . S
H1558 C1576 0.951 . S
H1559 C1578 0.951 . S
H1560 C1580 0.950 . S
H1561 C1581 0.950 . S
H1562 C1583 0.950 . S
H1563 C1586 0.950 . S
H1564 C1587 0.950 . S
H1565 C1589 0.950 . S
H1566 C1590 0.950 . S
H1567 C1591 0.951 . S
H1568 C1593 0.951 . S
H1569 C1595 0.950 . S
H1570 C1596 0.950 . S
H1571 C1598 0.950 . S
H1572 C1601 0.950 . S
H1573 C1602 0.950 . S
H1574 C1604 0.950 . S
H1575 C1605 0.950 . S
C1576 H1558 0.951 . S
C1576 C1577 1.366 . S
C1576 C1578 1.388 . S
C1577 C1576 1.366 . S
C1577 C1581 1.385 . S
C1578 H1559 0.951 . S
C1578 C1576 1.388 . S
C1578 C1579 1.366 . S
C1579 C1578 1.366 . S
C1579 C1580 1.414 . S
C1579 C1582 1.499 . S
C1580 H1560 0.950 . S
C1580 C1579 1.414 . S
C1580 C1581 1.374 . S
C1581 H1561 0.950 . S
C1581 C1577 1.385 . S
C1581 C1580 1.374 . S
C1582 C1579 1.499 . S
C1582 C1583 1.373 . S
C1582 C1584 1.389 . S
C1583 H1562 0.950 . S
C1583 C1582 1.373 . S
C1583 C1599 1.377 . S
C1584 C1582 1.389 . S
C1584 C1585 1.524 . S
C1584 C1598 1.377 . S
C1585 C1584 1.524 . S
C1585 C1586 1.397 . S
C1585 C1590 1.363 . S
C1586 H1563 0.950 . S
C1586 C1585 1.397 . S
C1586 C1587 1.334 . S
C1587 H1564 0.950 . S
C1587 C1586 1.334 . S
C1587 C1588 1.287 . S
C1588 C1587 1.287 . S
C1588 C1589 1.524 . S
C1588 H1607 0.913 . S
C1589 H1565 0.950 . S
C1589 C1588 1.524 . S
C1589 C1590 1.415 . S
C1590 H1566 0.950 . S
C1590 C1585 1.363 . S
C1590 C1589 1.415 . S
C1591 H1567 0.951 . S
C1591 C1592 1.366 . S
C1591 C1593 1.388 . S
C1592 C1591 1.366 . S
C1592 C1596 1.385 . S
C1593 H1568 0.951 . S
C1593 C1591 1.388 . S
C1593 C1594 1.366 . S
C1594 C1593 1.366 . S
C1594 C1595 1.414 . S
C1594 C1597 1.499 . S
C1595 H1569 0.950 . S
C1595 C1594 1.414 . S
C1595 C1596 1.374 . S
C1596 H1570 0.950 . S
C1596 C1592 1.385 . S
C1596 C1595 1.374 . S
C1597 C1594 1.499 . S
C1597 C1598 1.373 . S
C1597 C1599 1.389 . S
C1598 H1571 0.950 . S
C1598 C1584 1.377 . S
C1598 C1597 1.373 . S
C1599 C1583 1.377 . S
C1599 C1597 1.389 . S
C1599 C1600 1.524 . S
C1600 C1599 1.524 . S
C1600 C1601 1.397 . S
C1600 C1605 1.363 . S
C1601 H1572 0.950 . S
C1601 C1600 1.397 . S
C1601 C1602 1.334 . S
C1602 H1573 0.950 . S
C1602 C1601 1.334 . S
C1602 C1603 1.287 . S
C1603 C1602 1.287 . S
C1603 C1604 1.524 . S
C1603 H1606 0.999 . S
C1604 H1574 0.950 . S
C1604 C1603 1.524 . S
C1604 C1605 1.415 . S
C1605 H1575 0.950 . S
C1605 C1600 1.363 . S
C1605 C1604 1.415 . S
H1606 C1603 0.999 . S
H1607 C1588 0.913 . S
H1608 C1626 0.951 . S
H1609 C1628 0.951 . S
H1610 C1630 0.950 . S
H1611 C1631 0.950 . S
H1612 C1633 0.950 . S
H1613 C1636 0.950 . S
H1614 C1637 0.950 . S
H1615 C1639 0.950 . S
H1616 C1640 0.950 . S
H1617 C1641 0.951 . S
H1618 C1643 0.951 . S
H1619 C1645 0.950 . S
H1620 C1646 0.950 . S
H1621 C1648 0.950 . S
H1622 C1651 0.950 . S
H1623 C1652 0.950 . S
H1624 C1654 0.950 . S
H1625 C1655 0.950 . S
C1626 H1608 0.951 . S
C1626 C1627 1.366 . S
C1626 C1628 1.388 . S
C1627 C1626 1.366 . S
C1627 C1631 1.385 . S
C1628 H1609 0.951 . S
C1628 C1626 1.388 . S
C1628 C1629 1.366 . S
C1629 C1628 1.366 . S
C1629 C1630 1.414 . S
C1629 C1632 1.499 . S
C1630 H1610 0.950 . S
C1630 C1629 1.414 . S
C1630 C1631 1.374 . S
C1631 H1611 0.950 . S
C1631 C1627 1.385 . S
C1631 C1630 1.374 . S
C1632 C1629 1.499 . S
C1632 C1633 1.373 . S
C1632 C1634 1.389 . S
C1633 H1612 0.950 . S
C1633 C1632 1.373 . S
C1633 C1649 1.377 . S
C1634 C1632 1.389 . S
C1634 C1635 1.524 . S
C1634 C1648 1.377 . S
C1635 C1634 1.524 . S
C1635 C1636 1.397 . S
C1635 C1640 1.363 . S
C1636 H1613 0.950 . S
C1636 C1635 1.397 . S
C1636 C1637 1.334 . S
C1637 H1614 0.950 . S
C1637 C1636 1.334 . S
C1637 C1638 1.287 . S
C1638 C1637 1.287 . S
C1638 C1639 1.524 . S
C1638 H1657 0.913 . S
C1639 H1615 0.950 . S
C1639 C1638 1.524 . S
C1639 C1640 1.415 . S
C1640 H1616 0.950 . S
C1640 C1635 1.363 . S
C1640 C1639 1.415 . S
C1641 H1617 0.951 . S
C1641 C1642 1.366 . S
C1641 C1643 1.388 . S
C1642 C1641 1.366 . S
C1642 C1646 1.385 . S
C1643 H1618 0.951 . S
C1643 C1641 1.388 . S
C1643 C1644 1.366 . S
C1644 C1643 1.366 . S
C1644 C1645 1.414 . S
C1644 C1647 1.499 . S
C1645 H1619 0.950 . S
C1645 C1644 1.414 . S
C1645 C1646 1.374 . S
C1646 H1620 0.950 . S
C1646 C1642 1.385 . S
C1646 C1645 1.374 . S
C1647 C1644 1.499 . S
C1647 C1648 1.373 . S
C1647 C1649 1.389 . S
C1648 H1621 0.950 . S
C1648 C1634 1.377 . S
C1648 C1647 1.373 . S
C1649 C1633 1.377 . S
C1649 C1647 1.389 . S
C1649 C1650 1.524 . S
C1650 C1649 1.524 . S
C1650 C1651 1.397 . S
C1650 C1655 1.363 . S
C1651 H1622 0.950 . S
C1651 C1650 1.397 . S
C1651 C1652 1.334 . S
C1652 H1623 0.950 . S
C1652 C1651 1.334 . S
C1652 C1653 1.287 . S
C1653 C1652 1.287 . S
C1653 C1654 1.524 . S
C1653 H1656 0.999 . S
C1654 H1624 0.950 . S
C1654 C1653 1.524 . S
C1654 C1655 1.415 . S
C1655 H1625 0.950 . S
C1655 C1650 1.363 . S
C1655 C1654 1.415 . S
H1656 C1653 0.999 . S
H1657 C1638 0.913 . S
H1658 C1676 0.951 . S
H1659 C1678 0.951 . S
H1660 C1680 0.950 . S
H1661 C1681 0.950 . S
H1662 C1683 0.950 . S
H1663 C1686 0.950 . S
H1664 C1687 0.950 . S
H1665 C1689 0.950 . S
H1666 C1690 0.950 . S
H1667 C1691 0.951 . S
H1668 C1693 0.951 . S
H1669 C1695 0.950 . S
H1670 C1696 0.950 . S
H1671 C1698 0.950 . S
H1672 C1701 0.950 . S
H1673 C1702 0.950 . S
H1674 C1704 0.950 . S
H1675 C1705 0.950 . S
C1676 H1658 0.951 . S
C1676 C1677 1.366 . S
C1676 C1678 1.388 . S
C1677 C1676 1.366 . S
C1677 C1681 1.385 . S
C1678 H1659 0.951 . S
C1678 C1676 1.388 . S
C1678 C1679 1.366 . S
C1679 C1678 1.366 . S
C1679 C1680 1.414 . S
C1679 C1682 1.499 . S
C1680 H1660 0.950 . S
C1680 C1679 1.414 . S
C1680 C1681 1.374 . S
C1681 H1661 0.950 . S
C1681 C1677 1.385 . S
C1681 C1680 1.374 . S
C1682 C1679 1.499 . S
C1682 C1683 1.373 . S
C1682 C1684 1.389 . S
C1683 H1662 0.950 . S
C1683 C1682 1.373 . S
C1683 C1699 1.377 . S
C1684 C1682 1.389 . S
C1684 C1685 1.524 . S
C1684 C1698 1.377 . S
C1685 C1684 1.524 . S
C1685 C1686 1.397 . S
C1685 C1690 1.363 . S
C1686 H1663 0.950 . S
C1686 C1685 1.397 . S
C1686 C1687 1.334 . S
C1687 H1664 0.950 . S
C1687 C1686 1.334 . S
C1687 C1688 1.287 . S
C1688 C1687 1.287 . S
C1688 C1689 1.524 . S
C1688 H1707 0.913 . S
C1689 H1665 0.950 . S
C1689 C1688 1.524 . S
C1689 C1690 1.415 . S
C1690 H1666 0.950 . S
C1690 C1685 1.363 . S
C1690 C1689 1.415 . S
C1691 H1667 0.951 . S
C1691 C1692 1.366 . S
C1691 C1693 1.388 . S
C1692 C1691 1.366 . S
C1692 C1696 1.385 . S
C1693 H1668 0.951 . S
C1693 C1691 1.388 . S
C1693 C1694 1.366 . S
C1694 C1693 1.366 . S
C1694 C1695 1.414 . S
C1694 C1697 1.499 . S
C1695 H1669 0.950 . S
C1695 C1694 1.414 . S
C1695 C1696 1.374 . S
C1696 H1670 0.950 . S
C1696 C1692 1.385 . S
C1696 C1695 1.374 . S
C1697 C1694 1.499 . S
C1697 C1698 1.373 . S
C1697 C1699 1.389 . S
C1698 H1671 0.950 . S
C1698 C1684 1.377 . S
C1698 C1697 1.373 . S
C1699 C1683 1.377 . S
C1699 C1697 1.389 . S
C1699 C1700 1.524 . S
C1700 C1699 1.524 . S
C1700 C1701 1.397 . S
C1700 C1705 1.363 . S
C1701 H1672 0.950 . S
C1701 C1700 1.397 . S
C1701 C1702 1.334 . S
C1702 H1673 0.950 . S
C1702 C1701 1.334 . S
C1702 C1703 1.287 . S
C1703 C1702 1.287 . S
C1703 C1704 1.524 . S
C1703 H1706 0.999 . S
C1704 H1674 0.950 . S
C1704 C1703 1.524 . S
C1704 C1705 1.415 . S
C1705 H1675 0.950 . S
C1705 C1700 1.363 . S
C1705 C1704 1.415 . S
H1706 C1703 0.999 . S
H1707 C1688 0.913 . S
H1708 C1726 0.951 . S
H1709 C1728 0.951 . S
H1710 C1730 0.950 . S
H1711 C1731 0.950 . S
H1712 C1733 0.950 . S
H1713 C1736 0.950 . S
H1714 C1737 0.950 . S
H1715 C1739 0.950 . S
H1716 C1740 0.950 . S
H1717 C1741 0.951 . S
H1718 C1743 0.951 . S
H1719 C1745 0.950 . S
H1720 C1746 0.950 . S
H1721 C1748 0.950 . S
H1722 C1751 0.950 . S
H1723 C1752 0.950 . S
H1724 C1754 0.950 . S
H1725 C1755 0.950 . S
C1726 H1708 0.951 . S
C1726 C1727 1.366 . S
C1726 C1728 1.388 . S
C1727 C1726 1.366 . S
C1727 C1731 1.385 . S
C1728 H1709 0.951 . S
C1728 C1726 1.388 . S
C1728 C1729 1.366 . S
C1729 C1728 1.366 . S
C1729 C1730 1.414 . S
C1729 C1732 1.499 . S
C1730 H1710 0.950 . S
C1730 C1729 1.414 . S
C1730 C1731 1.374 . S
C1731 H1711 0.950 . S
C1731 C1727 1.385 . S
C1731 C1730 1.374 . S
C1732 C1729 1.499 . S
C1732 C1733 1.373 . S
C1732 C1734 1.389 . S
C1733 H1712 0.950 . S
C1733 C1732 1.373 . S
C1733 C1749 1.377 . S
C1734 C1732 1.389 . S
C1734 C1735 1.524 . S
C1734 C1748 1.377 . S
C1735 C1734 1.524 . S
C1735 C1736 1.397 . S
C1735 C1740 1.363 . S
C1736 H1713 0.950 . S
C1736 C1735 1.397 . S
C1736 C1737 1.334 . S
C1737 H1714 0.950 . S
C1737 C1736 1.334 . S
C1737 C1738 1.287 . S
C1738 C1737 1.287 . S
C1738 C1739 1.524 . S
C1738 H1757 0.913 . S
C1739 H1715 0.950 . S
C1739 C1738 1.524 . S
C1739 C1740 1.415 . S
C1740 H1716 0.950 . S
C1740 C1735 1.363 . S
C1740 C1739 1.415 . S
C1741 H1717 0.951 . S
C1741 C1742 1.366 . S
C1741 C1743 1.388 . S
C1742 C1741 1.366 . S
C1742 C1746 1.385 . S
C1743 H1718 0.951 . S
C1743 C1741 1.388 . S
C1743 C1744 1.366 . S
C1744 C1743 1.366 . S
C1744 C1745 1.414 . S
C1744 C1747 1.499 . S
C1745 H1719 0.950 . S
C1745 C1744 1.414 . S
C1745 C1746 1.374 . S
C1746 H1720 0.950 . S
C1746 C1742 1.385 . S
C1746 C1745 1.374 . S
C1747 C1744 1.499 . S
C1747 C1748 1.373 . S
C1747 C1749 1.389 . S
C1748 H1721 0.950 . S
C1748 C1734 1.377 . S
C1748 C1747 1.373 . S
C1749 C1733 1.377 . S
C1749 C1747 1.389 . S
C1749 C1750 1.524 . S
C1750 C1749 1.524 . S
C1750 C1751 1.397 . S
C1750 C1755 1.363 . S
C1751 H1722 0.950 . S
C1751 C1750 1.397 . S
C1751 C1752 1.334 . S
C1752 H1723 0.950 . S
C1752 C1751 1.334 . S
C1752 C1753 1.287 . S
C1753 C1752 1.287 . S
C1753 C1754 1.524 . S
C1753 H1756 0.999 . S
C1754 H1724 0.950 . S
C1754 C1753 1.524 . S
C1754 C1755 1.415 . S
C1755 H1725 0.950 . S
C1755 C1750 1.363 . S
C1755 C1754 1.415 . S
H1756 C1753 0.999 . S
H1757 C1738 0.913 . S
H1758 C1776 0.951 . S
H1759 C1778 0.951 . S
H1760 C1780 0.950 . S
H1761 C1781 0.950 . S
H1762 C1783 0.950 . S
H1763 C1786 0.950 . S
H1764 C1787 0.950 . S
H1765 C1789 0.950 . S
H1766 C1790 0.950 . S
H1767 C1791 0.951 . S
H1768 C1793 0.951 . S
H1769 C1795 0.950 . S
H1770 C1796 0.950 . S
H1771 C1798 0.950 . S
H1772 C1801 0.950 . S
H1773 C1802 0.950 . S
H1774 C1804 0.950 . S
H1775 C1805 0.950 . S
C1776 H1758 0.951 . S
C1776 C1777 1.366 . S
C1776 C1778 1.388 . S
C1777 C1776 1.366 . S
C1777 C1781 1.385 . S
C1778 H1759 0.951 . S
C1778 C1776 1.388 . S
C1778 C1779 1.366 . S
C1779 C1778 1.366 . S
C1779 C1780 1.414 . S
C1779 C1782 1.499 . S
C1780 H1760 0.950 . S
C1780 C1779 1.414 . S
C1780 C1781 1.374 . S
C1781 H1761 0.950 . S
C1781 C1777 1.385 . S
C1781 C1780 1.374 . S
C1782 C1779 1.499 . S
C1782 C1783 1.373 . S
C1782 C1784 1.389 . S
C1783 H1762 0.950 . S
C1783 C1782 1.373 . S
C1783 C1799 1.377 . S
C1784 C1782 1.389 . S
C1784 C1785 1.524 . S
C1784 C1798 1.377 . S
C1785 C1784 1.524 . S
C1785 C1786 1.397 . S
C1785 C1790 1.363 . S
C1786 H1763 0.950 . S
C1786 C1785 1.397 . S
C1786 C1787 1.334 . S
C1787 H1764 0.950 . S
C1787 C1786 1.334 . S
C1787 C1788 1.287 . S
C1788 C1787 1.287 . S
C1788 C1789 1.524 . S
C1788 H1807 0.913 . S
C1789 H1765 0.950 . S
C1789 C1788 1.524 . S
C1789 C1790 1.415 . S
C1790 H1766 0.950 . S
C1790 C1785 1.363 . S
C1790 C1789 1.415 . S
C1791 H1767 0.951 . S
C1791 C1792 1.366 . S
C1791 C1793 1.388 . S
C1792 C1791 1.366 . S
C1792 C1796 1.385 . S
C1793 H1768 0.951 . S
C1793 C1791 1.388 . S
C1793 C1794 1.366 . S
C1794 C1793 1.366 . S
C1794 C1795 1.414 . S
C1794 C1797 1.499 . S
C1795 H1769 0.950 . S
C1795 C1794 1.414 . S
C1795 C1796 1.374 . S
C1796 H1770 0.950 . S
C1796 C1792 1.385 . S
C1796 C1795 1.374 . S
C1797 C1794 1.499 . S
C1797 C1798 1.373 . S
C1797 C1799 1.389 . S
C1798 H1771 0.950 . S
C1798 C1784 1.377 . S
C1798 C1797 1.373 . S
C1799 C1783 1.377 . S
C1799 C1797 1.389 . S
C1799 C1800 1.524 . S
C1800 C1799 1.524 . S
C1800 C1801 1.397 . S
C1800 C1805 1.363 . S
C1801 H1772 0.950 . S
C1801 C1800 1.397 . S
C1801 C1802 1.334 . S
C1802 H1773 0.950 . S
C1802 C1801 1.334 . S
C1802 C1803 1.287 . S
C1803 C1802 1.287 . S
C1803 C1804 1.524 . S
C1803 H1806 0.999 . S
C1804 H1774 0.950 . S
C1804 C1803 1.524 . S
C1804 C1805 1.415 . S
C1805 H1775 0.950 . S
C1805 C1800 1.363 . S
C1805 C1804 1.415 . S
H1806 C1803 0.999 . S
H1807 C1788 0.913 . S
H1808 C1826 0.951 . S
H1809 C1828 0.951 . S
H1810 C1830 0.950 . S
H1811 C1831 0.950 . S
H1812 C1833 0.950 . S
H1813 C1836 0.950 . S
H1814 C1837 0.950 . S
H1815 C1839 0.950 . S
H1816 C1840 0.950 . S
H1817 C1841 0.951 . S
H1818 C1843 0.951 . S
H1819 C1845 0.950 . S
H1820 C1846 0.950 . S
H1821 C1848 0.950 . S
H1822 C1851 0.950 . S
H1823 C1852 0.950 . S
H1824 C1854 0.950 . S
H1825 C1855 0.950 . S
C1826 H1808 0.951 . S
C1826 C1827 1.366 1_556 S
C1826 C1828 1.388 . S
C1827 C1826 1.366 1_554 S
C1827 C1831 1.385 . S
C1828 H1809 0.951 . S
C1828 C1826 1.388 . S
C1828 C1829 1.366 . S
C1829 C1828 1.366 . S
C1829 C1830 1.414 . S
C1829 C1832 1.499 . S
C1830 H1810 0.950 . S
C1830 C1829 1.414 . S
C1830 C1831 1.374 1_556 S
C1831 H1811 0.950 . S
C1831 C1827 1.385 . S
C1831 C1830 1.374 1_554 S
C1832 C1829 1.499 . S
C1832 C1833 1.373 . S
C1832 C1834 1.389 . S
C1833 H1812 0.950 . S
C1833 C1832 1.373 . S
C1833 C1849 1.377 . S
C1834 C1832 1.389 . S
C1834 C1835 1.524 . S
C1834 C1848 1.377 . S
C1835 C1834 1.524 . S
C1835 C1836 1.397 . S
C1835 C1840 1.363 . S
C1836 H1813 0.950 . S
C1836 C1835 1.397 . S
C1836 C1837 1.334 . S
C1837 H1814 0.950 . S
C1837 C1836 1.334 . S
C1837 C1838 1.287 . S
C1838 C1837 1.287 . S
C1838 C1839 1.524 . S
C1838 H1857 0.913 . S
C1839 H1815 0.950 . S
C1839 C1838 1.524 . S
C1839 C1840 1.415 . S
C1840 H1816 0.950 . S
C1840 C1835 1.363 . S
C1840 C1839 1.415 . S
C1841 H1817 0.951 . S
C1841 C1842 1.366 . S
C1841 C1843 1.388 . S
C1842 C1841 1.366 . S
C1842 C1846 1.385 . S
C1843 H1818 0.951 . S
C1843 C1841 1.388 . S
C1843 C1844 1.366 . S
C1844 C1843 1.366 . S
C1844 C1845 1.414 . S
C1844 C1847 1.499 . S
C1845 H1819 0.950 . S
C1845 C1844 1.414 . S
C1845 C1846 1.374 . S
C1846 H1820 0.950 . S
C1846 C1842 1.385 . S
C1846 C1845 1.374 . S
C1847 C1844 1.499 . S
C1847 C1848 1.373 . S
C1847 C1849 1.389 . S
C1848 H1821 0.950 . S
C1848 C1834 1.377 . S
C1848 C1847 1.373 . S
C1849 C1833 1.377 . S
C1849 C1847 1.389 . S
C1849 C1850 1.524 . S
C1850 C1849 1.524 . S
C1850 C1851 1.397 . S
C1850 C1855 1.363 . S
C1851 H1822 0.950 . S
C1851 C1850 1.397 . S
C1851 C1852 1.334 . S
C1852 H1823 0.950 . S
C1852 C1851 1.334 . S
C1852 C1853 1.287 . S
C1853 C1852 1.287 . S
C1853 C1854 1.524 . S
C1853 H1856 0.999 . S
C1854 H1824 0.950 . S
C1854 C1853 1.524 . S
C1854 C1855 1.415 . S
C1855 H1825 0.950 . S
C1855 C1850 1.363 . S
C1855 C1854 1.415 . S
H1856 C1853 0.999 . S
H1857 C1838 0.913 . S
H1858 C1876 0.951 . S
H1859 C1878 0.951 . S
H1860 C1880 0.950 . S
H1861 C1881 0.950 . S
H1862 C1883 0.950 . S
H1863 C1886 0.950 . S
H1864 C1887 0.950 . S
H1865 C1889 0.950 . S
H1866 C1890 0.950 . S
H1867 C1891 0.951 . S
H1868 C1893 0.951 . S
H1869 C1895 0.950 . S
H1870 C1896 0.950 . S
H1871 C1898 0.950 . S
H1872 C1901 0.950 . S
H1873 C1902 0.950 . S
H1874 C1904 0.950 . S
H1875 C1905 0.950 . S
C1876 H1858 0.951 . S
C1876 C1877 1.366 . S
C1876 C1878 1.388 . S
C1877 C1876 1.366 . S
C1877 C1881 1.385 . S
C1878 H1859 0.951 . S
C1878 C1876 1.388 . S
C1878 C1879 1.366 . S
C1879 C1878 1.366 . S
C1879 C1880 1.414 . S
C1879 C1882 1.499 . S
C1880 H1860 0.950 . S
C1880 C1879 1.414 . S
C1880 C1881 1.374 . S
C1881 H1861 0.950 . S
C1881 C1877 1.385 . S
C1881 C1880 1.374 . S
C1882 C1879 1.499 . S
C1882 C1883 1.373 . S
C1882 C1884 1.389 . S
C1883 H1862 0.950 . S
C1883 C1882 1.373 . S
C1883 C1899 1.377 . S
C1884 C1882 1.389 . S
C1884 C1885 1.524 . S
C1884 C1898 1.377 . S
C1885 C1884 1.524 . S
C1885 C1886 1.397 . S
C1885 C1890 1.363 . S
C1886 H1863 0.950 . S
C1886 C1885 1.397 . S
C1886 C1887 1.334 . S
C1887 H1864 0.950 . S
C1887 C1886 1.334 . S
C1887 C1888 1.287 . S
C1888 C1887 1.287 . S
C1888 C1889 1.524 . S
C1888 H1907 0.913 . S
C1889 H1865 0.950 . S
C1889 C1888 1.524 . S
C1889 C1890 1.415 . S
C1890 H1866 0.950 . S
C1890 C1885 1.363 . S
C1890 C1889 1.415 . S
C1891 H1867 0.951 . S
C1891 C1892 1.366 . S
C1891 C1893 1.388 1_556 S
C1892 C1891 1.366 . S
C1892 C1896 1.385 1_556 S
C1893 H1868 0.951 . S
C1893 C1891 1.388 1_554 S
C1893 C1894 1.366 . S
C1894 C1893 1.366 . S
C1894 C1895 1.414 . S
C1894 C1897 1.499 . S
C1895 H1869 0.950 . S
C1895 C1894 1.414 . S
C1895 C1896 1.374 . S
C1896 H1870 0.950 . S
C1896 C1892 1.385 1_554 S
C1896 C1895 1.374 . S
C1897 C1894 1.499 . S
C1897 C1898 1.373 . S
C1897 C1899 1.389 . S
C1898 H1871 0.950 . S
C1898 C1884 1.377 . S
C1898 C1897 1.373 . S
C1899 C1883 1.377 . S
C1899 C1897 1.389 . S
C1899 C1900 1.524 . S
C1900 C1899 1.524 . S
C1900 C1901 1.397 . S
C1900 C1905 1.363 . S
C1901 H1872 0.950 . S
C1901 C1900 1.397 . S
C1901 C1902 1.334 . S
C1902 H1873 0.950 . S
C1902 C1901 1.334 . S
C1902 C1903 1.287 . S
C1903 C1902 1.287 . S
C1903 C1904 1.524 . S
C1903 H1906 0.999 . S
C1904 H1874 0.950 . S
C1904 C1903 1.524 . S
C1904 C1905 1.415 . S
C1905 H1875 0.950 . S
C1905 C1900 1.363 . S
C1905 C1904 1.415 . S
H1906 C1903 0.999 . S
H1907 C1888 0.913 . S
C727 C33 0.882 . S
C742 C406 0.881 . S
C777 C111 0.880 . S
C792 C446 0.882 . S
C827 C524 0.882 . S
C842 C170 0.881 . S
C877 C210 0.882 . S
C892 C583 0.882 . S
C927 C288 0.881 . S
C942 C623 0.882 . S
C977 C701 0.882 . S
C992 C347 0.882 . S
C1027 C505 1.707 . S
C1042 C52 1.723 . S
C1077 C92 1.708 . S
C1092 C564 1.708 . S
C1127 C642 1.723 . S
C1142 C151 1.708 . S
C1177 C682 1.708 . S
C1192 C229 1.723 . S
C1227 C269 1.707 . S
C1242 C387 1.708 . S
C1277 C328 1.708 . S
C1292 C465 1.723 . S
C1327 C654 1.429 . S
C1342 C3 1.426 . S
C1377 C359 1.427 . S
C1392 C64 1.427 . S
C1427 C123 1.428 . S
C1442 C416 1.426 . S
C1477 C477 1.429 . S
C1492 C180 1.426 . S
C1527 C536 1.427 . S
C1542 C241 1.427 . S
C1577 C593 1.426 . S
C1592 C300 1.428 . S
C1627 C5 1.174 . S
C1642 C595 1.173 . S
C1677 C652 1.163 . S
C1692 C62 1.162 . S
C1727 C121 1.163 . S
C1742 C357 1.162 . S
C1777 C182 1.174 . S
C1792 C418 1.173 . S
C1827 C239 1.162 . S
C1842 C475 1.163 . S
C1877 C298 1.163 . S
C1892 C534 1.162 . S
