# Generated by pormake.
# Topology uou, (4)-cn, num edge types: 1
# Building blocks:
#     Node 0, Type 0, BuildingBlock: TATPOV_clean_sbu_0, # of connection points: 4
#     Node 1, Type 0, BuildingBlock: TATPOV_clean_sbu_0, # of connection points: 4
#     Node 2, Type 0, BuildingBlock: TATPOV_clean_sbu_0, # of connection points: 4
#     Node 3, Type 0, BuildingBlock: TATPOV_clean_sbu_0, # of connection points: 4
#     Node 4, Type 0, BuildingBlock: TATPOV_clean_sbu_0, # of connection points: 4
#     Node 5, Type 0, BuildingBlock: TATPOV_clean_sbu_0, # of connection points: 4
#     Node 6, Type 0, BuildingBlock: TATPOV_clean_sbu_0, # of connection points: 4
#     Node 7, Type 0, BuildingBlock: TATPOV_clean_sbu_0, # of connection points: 4
#     Node 8, Type 0, BuildingBlock: TATPOV_clean_sbu_0, # of connection points: 4
#     Node 9, Type 0, BuildingBlock: TATPOV_clean_sbu_0, # of connection points: 4
#     Node 10, Type 0, BuildingBlock: TATPOV_clean_sbu_0, # of connection points: 4
#     Node 11, Type 0, BuildingBlock: TATPOV_clean_sbu_0, # of connection points: 4
#     Node 12, Type 0, BuildingBlock: TATPOV_clean_sbu_0, # of connection points: 4
#     Node 13, Type 0, BuildingBlock: TATPOV_clean_sbu_0, # of connection points: 4
#     Node 14, Type 0, BuildingBlock: TATPOV_clean_sbu_0, # of connection points: 4
#     Node 15, Type 0, BuildingBlock: TATPOV_clean_sbu_0, # of connection points: 4
#     Edge 16, Type (0, 0), BuildingBlock: AJUNOK_clean_linker_0, # of connection points: 2
#     Edge 17, Type (0, 0), BuildingBlock: AJUNOK_clean_linker_0, # of connection points: 2
#     Edge 18, Type (0, 0), BuildingBlock: AJUNOK_clean_linker_0, # of connection points: 2
#     Edge 19, Type (0, 0), BuildingBlock: AJUNOK_clean_linker_0, # of connection points: 2
#     Edge 20, Type (0, 0), BuildingBlock: AJUNOK_clean_linker_0, # of connection points: 2
#     Edge 21, Type (0, 0), BuildingBlock: AJUNOK_clean_linker_0, # of connection points: 2
#     Edge 22, Type (0, 0), BuildingBlock: AJUNOK_clean_linker_0, # of connection points: 2
#     Edge 23, Type (0, 0), BuildingBlock: AJUNOK_clean_linker_0, # of connection points: 2
#     Edge 24, Type (0, 0), BuildingBlock: AJUNOK_clean_linker_0, # of connection points: 2
#     Edge 25, Type (0, 0), BuildingBlock: AJUNOK_clean_linker_0, # of connection points: 2
#     Edge 26, Type (0, 0), BuildingBlock: AJUNOK_clean_linker_0, # of connection points: 2
#     Edge 27, Type (0, 0), BuildingBlock: AJUNOK_clean_linker_0, # of connection points: 2
#     Edge 28, Type (0, 0), BuildingBlock: AJUNOK_clean_linker_0, # of connection points: 2
#     Edge 29, Type (0, 0), BuildingBlock: AJUNOK_clean_linker_0, # of connection points: 2
#     Edge 30, Type (0, 0), BuildingBlock: AJUNOK_clean_linker_0, # of connection points: 2
#     Edge 31, Type (0, 0), BuildingBlock: AJUNOK_clean_linker_0, # of connection points: 2
#     Edge 32, Type (0, 0), BuildingBlock: AJUNOK_clean_linker_0, # of connection points: 2
#     Edge 33, Type (0, 0), BuildingBlock: AJUNOK_clean_linker_0, # of connection points: 2
#     Edge 34, Type (0, 0), BuildingBlock: AJUNOK_clean_linker_0, # of connection points: 2
#     Edge 35, Type (0, 0), BuildingBlock: AJUNOK_clean_linker_0, # of connection points: 2
#     Edge 36, Type (0, 0), BuildingBlock: AJUNOK_clean_linker_0, # of connection points: 2
#     Edge 37, Type (0, 0), BuildingBlock: AJUNOK_clean_linker_0, # of connection points: 2
#     Edge 38, Type (0, 0), BuildingBlock: AJUNOK_clean_linker_0, # of connection points: 2
#     Edge 39, Type (0, 0), BuildingBlock: AJUNOK_clean_linker_0, # of connection points: 2
#     Edge 40, Type (0, 0), BuildingBlock: AJUNOK_clean_linker_0, # of connection points: 2
#     Edge 41, Type (0, 0), BuildingBlock: AJUNOK_clean_linker_0, # of connection points: 2
#     Edge 42, Type (0, 0), BuildingBlock: AJUNOK_clean_linker_0, # of connection points: 2
#     Edge 43, Type (0, 0), BuildingBlock: AJUNOK_clean_linker_0, # of connection points: 2
#     Edge 44, Type (0, 0), BuildingBlock: AJUNOK_clean_linker_0, # of connection points: 2
#     Edge 45, Type (0, 0), BuildingBlock: AJUNOK_clean_linker_0, # of connection points: 2
#     Edge 46, Type (0, 0), BuildingBlock: AJUNOK_clean_linker_0, # of connection points: 2
#     Edge 47, Type (0, 0), BuildingBlock: AJUNOK_clean_linker_0, # of connection points: 2
# Relax obj value: 0.084
# Max RMSD: 0.143
# Mean RMSD: 0.143
data_MOF--net-uou--node1-TATPOV_clean_sbu_0--edge1-AJUNOK_clean_linker_0
_symmetry_space_group_name_H-M    P1
_symmetry_Int_Tables_number       1
_symmetry_cell_setting            triclinic
loop_
_symmetry_equiv_pos_as_xyz
'x, y, z'
_cell_length_a     28.770449
_cell_length_b     25.704328
_cell_length_c     41.483455
_cell_angle_alpha  89.754126
_cell_angle_beta   90.217376
_cell_angle_gamma 89.826898
loop_
_atom_site_label
_atom_site_type_symbol
_atom_site_fract_x
_atom_site_fract_y
_atom_site_fract_z
_atom_type_partial_charge
Zn0 Zn 0.99599 0.03669 0.10037 0.0
Zn1 Zn 0.08956 0.04323 0.10456 0.0
O2 O 0.06723 0.99656 0.14135 0.0
O3 O 0.99208 0.98451 0.137 0.0
O4 O 0.1592 0.03706 0.11072 0.0
O5 O 1.0017 0.01631 0.05356 0.0
O6 O 0.0777 0.0229 0.05736 0.0
C7 C 0.02996 0.97608 0.15177 0.0
C8 C 0.03226 0.14087 0.11418 0.0
O9 O 0.0721 0.11924 0.11208 0.0
O10 O 0.99567 0.11401 0.11077 0.0
C11 C 0.18895 0.04204 0.08836 0.0
O12 O 0.1747 0.05589 0.05947 0.0
C13 C 0.04139 0.01475 0.04046 0.0
Zn14 Zn 0.57552 0.96612 0.10229 0.0
Zn15 Zn 0.48036 0.96631 0.10047 0.0
O16 O 0.49688 0.01061 0.13959 0.0
O17 O 0.57309 0.01495 0.14097 0.0
O18 O 0.41117 0.97679 0.0942 0.0
O19 O 0.58004 0.9903 0.05551 0.0
O20 O 0.50398 0.98547 0.05595 0.0
C21 C 0.53402 0.02642 0.15311 0.0
C22 C 0.5296 0.86441 0.11244 0.0
O23 O 0.49155 0.88951 0.10939 0.0
O24 O 0.56822 0.88796 0.11033 0.0
C25 C 0.38214 0.98658 0.1164 0.0
O26 O 0.39651 0.98686 0.1465 0.0
C27 C 0.54156 0.9932 0.04067 0.0
Zn28 Zn 0.48181 0.96838 0.33964 0.0
Zn29 Zn 0.57645 0.96355 0.341 0.0
O30 O 0.56063 0.00884 0.30178 0.0
O31 O 0.48473 0.01836 0.30144 0.0
O32 O 0.64579 0.97232 0.34702 0.0
O33 O 0.47804 0.99123 0.38652 0.0
O34 O 0.55386 0.98278 0.38573 0.0
C35 C 0.52396 0.0274 0.28879 0.0
C36 C 0.5241 0.86446 0.32887 0.0
O37 O 0.56315 0.88722 0.33219 0.0
O38 O 0.48654 0.89029 0.33088 0.0
C39 C 0.67515 0.97925 0.32462 0.0
O40 O 0.66109 0.97668 0.2945 0.0
C41 C 0.51669 0.99185 0.40121 0.0
Zn42 Zn 0.0606 0.03853 0.33816 0.0
Zn43 Zn 0.96677 0.04187 0.33441 0.0
O44 O 0.98983 0.99606 0.29754 0.0
O45 O 0.06549 0.9876 0.30119 0.0
O46 O 0.89717 0.03386 0.32882 0.0
O47 O 0.05618 0.01651 0.38484 0.0
O48 O 0.97999 0.02122 0.38153 0.0
C49 C 0.02777 0.97752 0.28677 0.0
C50 C 1.021 0.14166 0.32486 0.0
O51 O 0.98194 0.11853 0.32672 0.0
O52 O 0.05851 0.11611 0.32835 0.0
C53 C 0.86752 0.03849 0.35127 0.0
O54 O 0.8817 0.05313 0.37993 0.0
C55 C 1.01672 0.01363 0.39818 0.0
Zn56 Zn 0.07813 0.9705 0.83851 0.0
Zn57 Zn 0.98403 0.96916 0.84191 0.0
O58 O 0.99906 0.01171 0.80123 0.0
O59 O 0.07511 0.01825 0.79947 0.0
O60 O 0.91466 0.97891 0.84849 0.0
O61 O 0.08478 0.99533 0.88462 0.0
O62 O 1.00867 0.99064 0.88615 0.0
C63 C 0.03563 0.0279 0.78716 0.0
C64 C 0.03458 0.86768 0.83077 0.0
O65 O 0.99617 0.89182 0.83456 0.0
O66 O 0.07264 0.89246 0.83133 0.0
C67 C 0.88424 0.98488 0.82645 0.0
O68 O 0.89702 0.98163 0.79615 0.0
C69 C 0.04728 0.99869 0.90033 0.0
Zn70 Zn 0.49746 0.03184 0.83888 0.0
Zn71 Zn 0.59009 0.03743 0.83786 0.0
O72 O 0.56858 0.99177 0.79992 0.0
O73 O 0.49315 0.98089 0.8024 0.0
O74 O 0.66027 0.03183 0.83308 0.0
O75 O 0.49977 0.01022 0.88532 0.0
O76 O 0.57593 0.01613 0.88492 0.0
C77 C 0.53136 0.97229 0.78843 0.0
C78 C 0.53338 0.13601 0.82743 0.0
O79 O 0.57304 0.11414 0.83064 0.0
O80 O 0.49665 0.10907 0.82915 0.0
C81 C 0.68984 0.03196 0.85596 0.0
O82 O 0.67521 0.03858 0.88561 0.0
C83 C 0.5382 0.00815 0.90019 0.0
Zn84 Zn 0.56241 0.03441 0.60221 0.0
Zn85 Zn 0.46875 0.03585 0.6038 0.0
O86 O 0.492 0.99083 0.64165 0.0
O87 O 0.56789 0.98379 0.63924 0.0
O88 O 0.3988 0.02867 0.60933 0.0
O89 O 0.55965 0.01192 0.55598 0.0
O90 O 0.48329 0.01476 0.55694 0.0
C91 C 0.53002 0.97307 0.65314 0.0
C92 C 0.52205 0.13678 0.61328 0.0
O93 O 0.48342 0.1129 0.6107 0.0
O94 O 0.56001 0.11184 0.61119 0.0
C95 C 0.36957 0.01724 0.58741 0.0
O96 O 0.38405 0.01215 0.55759 0.0
C97 C 0.52105 0.00785 0.5415 0.0
Zn98 Zn 0.98117 0.96579 0.60037 0.0
Zn99 Zn 0.07558 0.96521 0.59711 0.0
O100 O 0.06002 0.00871 0.63708 0.0
O101 O 0.98387 0.01411 0.63894 0.0
O102 O 0.14534 0.97312 0.59195 0.0
O103 O 0.97562 0.99053 0.55409 0.0
O104 O 0.05185 0.98693 0.55246 0.0
C105 C 1.02326 0.02482 0.65093 0.0
C106 C 1.02526 0.86349 0.60875 0.0
O107 O 0.06327 0.88814 0.60499 0.0
O108 O 0.98676 0.88768 0.60794 0.0
C109 C 0.17398 0.97503 0.61536 0.0
O110 O 0.15831 0.96925 0.64484 0.0
C111 C 1.01303 0.99452 0.53832 0.0
Zn112 Zn 0.48676 0.53637 0.10318 0.0
Zn113 Zn 0.58039 0.53668 0.10096 0.0
O114 O 0.56208 0.49201 0.14014 0.0
O115 O 0.48608 0.4854 0.14035 0.0
O116 O 0.6505 0.52737 0.0993 0.0
O117 O 0.48256 0.51451 0.05671 0.0
O118 O 0.55889 0.51667 0.05535 0.0
C119 C 0.52507 0.47462 0.15299 0.0
C120 C 0.53001 0.63817 0.11333 0.0
O121 O 0.56822 0.61391 0.10903 0.0
O122 O 0.49182 0.61371 0.1125 0.0
C123 C 0.67502 0.5289 0.12487 0.0
O124 O 0.65445 0.53946 0.15231 0.0
C125 C 0.52003 0.51035 0.04103 0.0
Zn126 Zn 0.06231 0.4691 0.10159 0.0
Zn127 Zn 0.9682 0.46713 0.10275 0.0
O128 O 0.98872 0.51334 0.14052 0.0
O129 O 0.06469 0.51997 0.13858 0.0
O130 O 0.89792 0.47517 0.10192 0.0
O131 O 0.0623 0.49092 0.05481 0.0
O132 O 0.98614 0.48596 0.05643 0.0
C133 C 0.02659 0.53096 0.15214 0.0
C134 C 1.02098 0.36672 0.11428 0.0
O135 O 0.98215 0.39043 0.11159 0.0
O136 O 0.05875 0.39167 0.11143 0.0
C137 C 0.87375 0.47962 0.12738 0.0
O138 O 0.89473 0.47631 0.1555 0.0
C139 C 1.02336 0.49325 0.04055 0.0
Zn140 Zn 0.9926 0.47094 0.33777 0.0
Zn141 Zn 0.08622 0.46596 0.33634 0.0
O142 O 0.06544 0.51271 0.29851 0.0
O143 O 0.98982 0.52303 0.30128 0.0
O144 O 0.15659 0.47327 0.33583 0.0
O145 O 0.99324 0.49129 0.38461 0.0
O146 O 0.06935 0.48459 0.38293 0.0
C147 C 0.02796 0.53227 0.28728 0.0
C148 C 0.03167 0.36746 0.32459 0.0
O149 O 0.07109 0.38957 0.3277 0.0
O150 O 0.99455 0.39379 0.3273 0.0
C151 C 0.17894 0.47401 0.30942 0.0
O152 O 0.156 0.46633 0.28243 0.0
C153 C 0.03222 0.49242 0.39886 0.0
Zn154 Zn 0.56373 0.53647 0.3396 0.0
Zn155 Zn 0.46919 0.53635 0.33828 0.0
O156 O 0.49103 0.49158 0.30038 0.0
O157 O 0.56715 0.48686 0.30189 0.0
O158 O 0.39902 0.52668 0.33742 0.0
O159 O 0.56383 0.51315 0.38619 0.0
O160 O 0.48752 0.51679 0.38456 0.0
C161 C 0.52905 0.47521 0.28842 0.0
C162 C 0.51966 0.63823 0.32797 0.0
O163 O 0.48145 0.61349 0.33024 0.0
O164 O 0.55807 0.61418 0.33071 0.0
C165 C 0.37707 0.52585 0.31073 0.0
O166 O 0.40026 0.53444 0.28403 0.0
C167 C 0.52506 0.50978 0.4004 0.0
Zn168 Zn 0.56125 0.46486 0.841 0.0
Zn169 Zn 0.46716 0.46242 0.83838 0.0
O170 O 0.48988 0.50615 0.7999 0.0
O171 O 0.5656 0.51448 0.80334 0.0
O172 O 0.39656 0.47042 0.83601 0.0
O173 O 0.55949 0.48822 0.88722 0.0
O174 O 0.48327 0.48351 0.88485 0.0
C175 C 0.52785 0.52397 0.78868 0.0
C176 C 0.52093 0.36192 0.82947 0.0
O177 O 0.48188 0.38534 0.83145 0.0
O178 O 0.55849 0.38725 0.83231 0.0
C179 C 0.3799 0.51513 0.82916 0.0
O180 O 0.40874 0.55398 0.82467 0.0
C181 C 0.52037 0.49135 0.90097 0.0
Zn182 Zn 0.98845 0.54086 0.83886 0.0
Zn183 Zn 0.08227 0.53718 0.84047 0.0
O184 O 0.06243 0.49438 0.80089 0.0
O185 O 0.98613 0.49252 0.80076 0.0
O186 O 0.15248 0.52731 0.84209 0.0
O187 O 0.98488 0.51626 0.88486 0.0
O188 O 0.06127 0.51587 0.88597 0.0
C189 C 1.02435 0.47988 0.78793 0.0
C190 C 0.03366 0.64124 0.8301 0.0
O191 O 0.07113 0.61507 0.83338 0.0
O192 O 0.99465 0.61847 0.8311 0.0
C193 C 0.17905 0.54967 0.82192 0.0
O194 O 0.16039 0.57985 0.79972 0.0
C195 C 1.0225 0.51016 0.90034 0.0
Zn196 Zn 0.06505 0.53413 0.60084 0.0
Zn197 Zn 0.97183 0.53598 0.59845 0.0
O198 O 0.9901 0.49341 0.63875 0.0
O199 O 0.06606 0.48514 0.63885 0.0
O200 O 0.90176 0.52626 0.59583 0.0
O201 O 0.0699 0.51038 0.5549 0.0
O202 O 0.99366 0.51454 0.55321 0.0
C203 C 0.0272 0.47608 0.65189 0.0
C204 C 1.0227 0.63713 0.60938 0.0
O205 O 0.98415 0.61352 0.60543 0.0
O206 O 0.06058 0.6118 0.60888 0.0
C207 C 0.8735 0.54632 0.61577 0.0
O208 O 0.88985 0.57641 0.63867 0.0
C209 C 0.03236 0.50686 0.5391 0.0
Zn210 Zn 0.49052 0.46676 0.60245 0.0
Zn211 Zn 0.5837 0.4625 0.60129 0.0
O212 O 0.56428 0.50595 0.64076 0.0
O213 O 0.4887 0.51721 0.63935 0.0
O214 O 0.65446 0.46891 0.60136 0.0
O215 O 0.4881 0.48916 0.55613 0.0
O216 O 0.56437 0.48444 0.55521 0.0
C217 C 0.52745 0.52514 0.65294 0.0
C218 C 0.5298 0.36296 0.61273 0.0
O219 O 0.56886 0.38542 0.6086 0.0
O220 O 0.49252 0.38934 0.61189 0.0
C221 C 0.67285 0.51241 0.60855 0.0
O222 O 0.64556 0.5519 0.61537 0.0
C223 C 0.5258 0.49228 0.54067 0.0
C224 C 0.30034 0.00638 0.13318 0.0
C225 C 0.33311 1.00024 0.10835 0.0
C226 C 0.25411 0.02027 0.12647 0.0
C227 C 0.23862 0.02906 0.09465 0.0
H228 H 0.31034 1.00027 0.15811 0.0
H229 H 0.23036 0.02416 0.14653 0.0
S230 S 0.31037 0.01826 0.02071 0.0
N231 N 0.34659 1.00411 0.05045 0.0
N232 N 0.25992 0.03039 0.03795 0.0
C233 C 0.27101 0.02327 0.06955 0.0
C234 C 0.31809 0.00878 0.07635 0.0
C235 C 0.75651 0.99991 0.30733 0.0
C236 C 0.72407 0.99355 0.33235 0.0
C237 C 0.8025 0.01481 0.31369 0.0
C238 C 0.81808 0.02437 0.34534 0.0
H239 H 0.74643 0.99339 0.28249 0.0
H240 H 0.82598 0.01893 0.29349 0.0
S241 S 0.7472 0.01315 0.41971 0.0
N242 N 0.71104 0.9979 0.39028 0.0
N243 N 0.79723 0.02604 0.40213 0.0
C244 C 0.78603 0.01829 0.37065 0.0
C245 C 0.73919 1.00281 0.3642 0.0
C246 C 0.80031 0.99516 0.81088 0.0
C247 C 0.83509 0.99719 0.83479 0.0
C248 C 0.75377 0.00696 0.8179 0.0
C249 C 0.73987 0.02149 0.84915 0.0
H250 H 0.80892 0.98399 0.78647 0.0
H251 H 0.72846 1.00419 0.7986 0.0
S252 S 0.81778 0.03553 0.92022 0.0
N253 N 0.85255 0.01667 0.89093 0.0
N254 N 0.76534 0.03891 0.90406 0.0
C255 C 0.77441 0.02436 0.87325 0.0
C256 C 0.82185 0.01219 0.86611 0.0
C257 C 0.24019 0.99079 0.57732 0.0
C258 C 0.22414 0.98553 0.60922 0.0
C259 C 0.28699 1.00135 0.57063 0.0
C260 C 0.31993 0.0074 0.5955 0.0
H261 H 0.21643 0.9867 0.55718 0.0
H262 H 0.29731 0.00486 0.54563 0.0
S263 S 0.29632 0.99705 0.68333 0.0
N264 N 0.24537 0.98701 0.66608 0.0
N265 N 0.33313 0.00689 0.65352 0.0
C266 C 0.30444 1.00234 0.62757 0.0
C267 C 0.25671 0.99138 0.6344 0.0
C268 C 0.79788 0.49967 0.15421 0.0
C269 C 0.82297 0.49116 0.12562 0.0
C270 C 0.7504 0.51211 0.15357 0.0
C271 C 0.72566 0.51652 0.12433 0.0
H272 H 0.81502 0.49699 0.17745 0.0
H273 H 0.733 0.5181 0.17637 0.0
S274 S 0.77476 0.49784 0.04244 0.0
N275 N 0.8192 0.48792 0.06701 0.0
N276 N 0.73003 0.51118 0.06584 0.0
C277 C 0.75019 0.50793 0.09548 0.0
C278 C 0.79871 0.49531 0.09612 0.0
C279 C 0.30147 0.50623 0.33847 0.0
C280 C 0.32653 0.51305 0.30966 0.0
C281 C 0.25406 0.49327 0.33816 0.0
C282 C 0.22959 0.48628 0.30901 0.0
H283 H 0.31851 0.51101 0.36159 0.0
H284 H 0.23651 0.48878 0.36105 0.0
S285 S 0.27897 0.49916 0.22669 0.0
N286 N 0.32303 0.51156 0.25101 0.0
N287 N 0.23441 0.48701 0.25043 0.0
C288 C 0.25427 0.49275 0.27999 0.0
C289 C 0.30251 0.50619 0.28031 0.0
C290 C 0.24923 0.49907 0.84067 0.0
C291 C 0.23032 0.54138 0.82325 0.0
C292 C 0.29748 0.49025 0.84205 0.0
C293 C 0.32884 0.52388 0.82651 0.0
H294 H 0.22659 0.47222 0.85321 0.0
H295 H 0.31028 0.45727 0.85583 0.0
S296 S 0.29745 0.6401 0.77742 0.0
N297 N 0.24712 0.61693 0.78979 0.0
N298 N 0.33737 0.60077 0.79266 0.0
C299 C 0.31041 0.56628 0.80898 0.0
C300 C 0.26133 0.5749 0.80726 0.0
C301 C 0.74303 0.56062 0.62781 0.0
C302 C 0.72418 0.51909 0.61005 0.0
C303 C 0.79116 0.56874 0.62963 0.0
C304 C 0.82264 0.53619 0.61336 0.0
H305 H 0.72044 0.58704 0.64072 0.0
H306 H 0.80368 0.60126 0.6437 0.0
S307 S 0.79136 0.4217 0.56347 0.0
N308 N 0.74092 0.44465 0.57601 0.0
N309 N 0.83133 0.46027 0.579 0.0
C310 C 0.80432 0.49446 0.59544 0.0
C311 C 0.75519 0.48578 0.59393 0.0
C312 C 0.98669 0.95406 0.2358 0.0
C313 C 0.02841 0.95557 0.25368 0.0
C314 C 0.98713 0.95352 0.20204 0.0
C315 C 0.02932 0.95449 0.18501 0.0
H316 H 0.95346 0.9586 0.24768 0.0
H317 H 0.95428 0.95796 0.18946 0.0
S318 S 0.1472 0.93917 0.22049 0.0
N319 N 0.11237 0.94361 0.25191 0.0
N320 N 0.11313 0.94256 0.18844 0.0
C321 C 0.07077 0.94699 0.20259 0.0
C322 C 0.07035 0.94751 0.23701 0.0
C323 C 0.48824 0.04771 0.20243 0.0
C324 C 0.53146 0.04703 0.18655 0.0
C325 C 0.48565 0.04806 0.23614 0.0
C326 C 0.52619 0.04786 0.25525 0.0
H327 H 0.45621 0.04298 0.18898 0.0
H328 H 0.45179 0.04327 0.24708 0.0
S329 S 0.6467 0.06505 0.22548 0.0
N330 N 0.61487 0.05995 0.19244 0.0
N331 N 0.60988 0.06113 0.25582 0.0
C332 C 0.569 0.05581 0.23967 0.0
C333 C 0.57168 0.05529 0.20528 0.0
C334 C 0.98583 0.04516 0.70369 0.0
C335 C 1.02607 0.04497 0.68445 0.0
C336 C 0.98891 0.04595 0.73741 0.0
C337 C 0.03233 0.04661 0.7532 0.0
H338 H 0.95184 0.0398 0.69292 0.0
H339 H 0.95713 0.04128 0.75102 0.0
S340 S 0.14697 0.06373 0.71365 0.0
N341 N 0.10973 0.05846 0.68348 0.0
N342 N 0.11562 0.05981 0.74683 0.0
C343 C 0.07225 0.05441 0.73419 0.0
C344 C 0.06908 0.05359 0.6998 0.0
C345 C 0.57308 0.95162 0.7038 0.0
C346 C 0.53094 0.95163 0.68642 0.0
C347 C 0.57339 0.95149 0.73756 0.0
C348 C 0.53159 0.95122 0.75512 0.0
H349 H 0.60585 0.95716 0.69151 0.0
H350 H 0.6064 0.95681 0.74973 0.0
S351 S 0.4134 0.93212 0.72088 0.0
N352 N 0.44748 0.93732 0.68911 0.0
N353 N 0.44799 0.93677 0.75259 0.0
C354 C 0.48995 0.94231 0.73804 0.0
C355 C 0.48964 0.94264 0.70362 0.0
C356 C 0.48538 0.45112 0.2044 0.0
C357 C 0.52673 0.45356 0.1864 0.0
C358 C 0.48642 0.45131 0.23814 0.0
C359 C 0.52883 0.454 0.25512 0.0
H360 H 0.45185 0.45433 0.19257 0.0
H361 H 0.45363 0.45447 0.25074 0.0
S362 S 0.64647 0.44179 0.21931 0.0
N363 N 0.61091 0.44422 0.18801 0.0
N364 N 0.61296 0.44496 0.25147 0.0
C365 C 0.57021 0.44761 0.23749 0.0
C366 C 0.56912 0.44731 0.20306 0.0
C367 C 0.98528 0.55442 0.23658 0.0
C368 C 0.02741 0.5537 0.25397 0.0
C369 C 0.98497 0.55397 0.20283 0.0
C370 C 0.02675 0.55282 0.18527 0.0
H371 H 0.9524 0.54981 0.24889 0.0
H372 H 0.95185 0.54928 0.1907 0.0
S373 S 0.14519 0.57044 0.21939 0.0
N374 N 0.11104 0.56653 0.2512 0.0
N375 N 0.11057 0.56566 0.18771 0.0
C376 C 0.06854 0.56118 0.20229 0.0
C377 C 0.06883 0.56158 0.23672 0.0
C378 C 0.4866 0.54818 0.7039 0.0
C379 C 0.52842 0.54522 0.68645 0.0
C380 C 0.48671 0.54781 0.73765 0.0
C381 C 0.52863 0.54465 0.75518 0.0
H382 H 0.45338 0.5456 0.69165 0.0
H383 H 0.45358 0.5451 0.74987 0.0
S384 S 0.64737 0.5545 0.72082 0.0
N385 N 0.61263 0.5526 0.68909 0.0
N386 N 0.61296 0.55215 0.75255 0.0
C387 C 0.57055 0.55027 0.73805 0.0
C388 C 0.57041 0.55046 0.70362 0.0
C389 C 0.06691 0.45687 0.73757 0.0
C390 C 1.02466 0.45916 0.75451 0.0
C391 C 0.0676 0.45573 0.70383 0.0
C392 C 1.02604 0.45706 0.68576 0.0
H393 H 0.09976 0.46079 0.75018 0.0
H394 H 0.10097 0.4589 0.69199 0.0
S395 S 0.90675 0.44566 0.7187 0.0
N396 N 0.94057 0.44949 0.75085 0.0
N397 N 0.94196 0.44778 0.6874 0.0
C398 C 0.98388 0.45128 0.70245 0.0
C399 C 0.98316 0.45221 0.73688 0.0
C400 C 0.06871 0.22899 0.11611 0.0
C401 C 0.02855 0.19812 0.11819 0.0
C402 C 0.06589 0.28333 0.11613 0.0
C403 C 1.02281 0.30929 0.11821 0.0
H404 H 0.10262 0.21119 0.11337 0.0
H405 H 0.09788 0.30504 0.11344 0.0
S406 S 0.90761 0.24665 0.12831 0.0
N407 N 0.94453 0.19763 0.12549 0.0
N408 N 0.93935 0.29982 0.1254 0.0
C409 C 0.98252 0.27899 0.12201 0.0
C410 C 0.98539 0.22348 0.12203 0.0
C411 C 0.57063 0.77848 0.11163 0.0
C412 C 0.5293 0.80697 0.11626 0.0
C413 C 0.57082 0.72401 0.11192 0.0
C414 C 0.52972 0.69565 0.11691 0.0
H415 H 0.60303 0.79827 0.10669 0.0
H416 H 0.60331 0.70411 0.10717 0.0
S417 S 0.4132 0.75162 0.13436 0.0
N418 N 0.44689 0.80271 0.1289 0.0
N419 N 0.44716 0.70039 0.12959 0.0
C420 C 0.48852 0.72365 0.12322 0.0
C421 C 0.48833 0.77921 0.12284 0.0
C422 C 0.56205 0.72301 0.32801 0.0
C423 C 0.51992 0.69576 0.32452 0.0
C424 C 0.56321 0.77743 0.32822 0.0
C425 C 0.52229 0.80708 0.3249 0.0
H426 H 0.59449 0.70227 0.33163 0.0
H427 H 0.59641 0.79624 0.332 0.0
S428 S 0.40351 0.75488 0.31105 0.0
N429 N 0.43667 0.7027 0.31483 0.0
N430 N 0.43873 0.80501 0.3151 0.0
C431 C 0.48013 0.78042 0.31976 0.0
C432 C 0.47897 0.72484 0.3196 0.0
C433 C 0.06864 0.27923 0.32521 0.0
C434 C 0.0288 0.31019 0.32049 0.0
C435 C 0.06592 0.22486 0.32541 0.0
C436 C 1.02324 0.19905 0.32093 0.0
H437 H 0.10206 0.29699 0.32993 0.0
H438 H 0.09747 0.20303 0.33021 0.0
S439 S 0.9096 0.26197 0.30321 0.0
N440 N 0.94597 0.31089 0.30797 0.0
N441 N 0.94094 0.20872 0.30851 0.0
C442 C 0.98351 0.22945 0.31447 0.0
C443 C 0.98628 0.28493 0.3142 0.0
C444 C 0.99342 0.72757 0.83044 0.0
C445 C 0.03489 0.69879 0.82722 0.0
C446 C 0.99355 0.782 0.83063 0.0
C447 C 0.03515 0.81013 0.82752 0.0
H448 H 0.96047 0.708 0.83374 0.0
H449 H 0.96077 0.80204 0.83403 0.0
S450 S 0.15283 0.75348 0.81502 0.0
N451 N 0.11837 0.70258 0.81847 0.0
N452 N 0.11879 0.8049 0.81867 0.0
C453 C 0.07675 0.7819 0.82291 0.0
C454 C 0.07658 0.72632 0.82281 0.0
C455 C 0.56626 0.27874 0.82939 0.0
C456 C 0.52326 0.30455 0.82568 0.0
C457 C 0.56943 0.22441 0.82871 0.0
C458 C 0.52975 0.19345 0.82424 0.0
H459 H 0.59782 0.30051 0.8338 0.0
H460 H 0.60316 0.20665 0.8327 0.0
S461 S 0.40952 0.24181 0.80954 0.0
N462 N 0.44062 0.29499 0.8147 0.0
N463 N 0.44645 0.19288 0.81325 0.0
C464 C 0.48678 0.21876 0.81896 0.0
C465 C 0.48356 0.27422 0.81974 0.0
C466 C 0.56572 0.22077 0.61245 0.0
C467 C 0.52333 0.19426 0.61651 0.0
C468 C 0.5677 0.27519 0.61235 0.0
C469 C 0.5274 0.3055 0.61638 0.0
H470 H 0.59767 0.19947 0.60833 0.0
H471 H 0.60101 0.29349 0.60816 0.0
S472 S 0.40837 0.25518 0.63168 0.0
N473 N 0.4406 0.2025 0.62731 0.0
N474 N 0.44418 0.30472 0.6273 0.0
C475 C 0.48503 0.2795 0.622 0.0
C476 C 0.48303 0.22397 0.622 0.0
C477 C 0.98347 0.77827 0.60828 0.0
C478 C 1.02531 0.80598 0.61205 0.0
C479 C 0.98275 0.7238 0.60847 0.0
C480 C 1.02383 0.69466 0.61252 0.0
H481 H 0.95098 0.7987 0.6042 0.0
H482 H 0.9498 0.70452 0.60455 0.0
S483 S 0.14195 0.74844 0.62702 0.0
N484 N 0.10841 0.80015 0.62251 0.0
N485 N 0.10722 0.69787 0.62305 0.0
C486 C 0.06569 0.72189 0.61778 0.0
C487 C 0.0664 0.77744 0.61748 0.0
C488 C 1.0054 0.01021 0.95244 0.0
C489 C 0.04783 0.00576 0.93588 0.0
C490 C 1.00385 0.0118 -0.0139 0.0
C491 C 0.04465 0.00915 0.00488 0.0
H492 H 0.97277 0.01201 0.93935 0.0
H493 H 0.97014 0.01566 -0.00259 0.0
S494 S 0.16498 0.9967 -0.02641 0.0
N495 N 0.13197 0.99848 0.94096 0.0
N496 N 0.12898 1.00137 0.00432 0.0
C497 C 0.08746 0.0048 -0.01128 0.0
C498 C 0.08908 1.00326 0.95427 0.0
C499 C 0.5807 1.00304 0.95321 0.0
C500 C 0.53849 1.00226 0.93589 0.0
C501 C 0.58145 1.00154 -0.01294 0.0
C502 C 0.54003 0.99943 0.00501 0.0
H503 H 0.61353 0.00512 0.94059 0.0
H504 H 0.61487 1.00155 -0.00083 0.0
S505 S 0.42001 0.99727 -0.02863 0.0
N506 N 0.45401 0.99935 0.93951 0.0
N507 N 0.4554 0.99726 0.00271 0.0
C508 C 0.49754 0.99899 -0.01203 0.0
C509 C 0.49678 1.0001 0.95359 0.0
C510 C 0.4784 0.00572 0.48856 0.0
C511 C 0.52037 1.00085 0.50593 0.0
C512 C 0.47757 1.00395 0.45475 0.0
C513 C 0.51867 0.99736 0.43687 0.0
H514 H 0.44587 0.01165 0.50109 0.0
H515 H 0.44433 0.00759 0.44259 0.0
S516 S 0.63782 0.98147 0.47074 0.0
N517 N 0.60413 0.98797 0.50254 0.0
N518 N 0.60269 0.98529 0.43933 0.0
C519 C 0.5609 0.99221 0.45398 0.0
C520 C 0.5617 0.99368 0.48835 0.0
C521 C 0.0542 0.00649 0.48591 0.0
C522 C 1.01204 1.00204 0.50277 0.0
C523 C 0.0552 0.00889 0.45223 0.0
C524 C 1.01409 0.00704 0.43375 0.0
H525 H 0.08702 0.00771 0.49876 0.0
H526 H 0.08873 0.01273 0.44067 0.0
S527 S 0.89425 0.99484 0.46593 0.0
N528 N 0.92779 0.99558 0.4983 0.0
N529 N 0.92977 0.99991 0.43495 0.0
C530 C 0.97155 1.00259 0.45023 0.0
C531 C 0.97049 1.00026 0.48468 0.0
C532 C 0.56036 0.50496 -0.01216 0.0
C533 C 0.51869 0.50358 0.00547 0.0
C534 C 0.56029 0.50251 0.95415 0.0
C535 C 0.51857 0.49845 0.93648 0.0
H536 H 0.59352 0.5084 8e-05 0.0
H537 H 0.59351 0.50332 0.94194 0.0
S538 S 0.39963 0.49339 0.97093 0.0
N539 N 0.43424 0.49795 0.00259 0.0
N540 N 0.43419 0.49329 0.93928 0.0
C541 C 0.47651 0.49715 0.95374 0.0
C542 C 0.47658 0.4996 -0.01184 0.0
C543 C 0.0633 0.50291 -0.01263 0.0
C544 C 1.02164 0.49896 0.0049 0.0
C545 C 0.06324 0.50473 0.95364 0.0
C546 C 1.02151 0.50279 0.93587 0.0
H547 H 0.0965 0.50435 -0.00027 0.0
H548 H 0.09632 0.50845 0.94148 0.0
S549 S 0.90265 0.49146 0.97004 0.0
N550 N 0.93729 0.49252 0.00181 0.0
N551 N 0.93716 0.49587 0.93848 0.0
C552 C 0.9795 0.49844 0.95305 0.0
C553 C 0.97956 0.49666 -0.01252 0.0
C554 C 0.99203 0.50402 0.48563 0.0
C555 C 0.03354 0.50017 0.50355 0.0
C556 C 0.9922 0.50275 0.4519 0.0
C557 C 0.03389 0.49747 0.43451 0.0
H558 H 0.95894 0.50878 0.49765 0.0
H559 H 0.95915 0.50568 0.43943 0.0
S560 S 0.15232 0.48486 0.46983 0.0
N561 N 0.11769 0.49011 0.50127 0.0
N562 N 0.11799 0.48772 0.43792 0.0
C563 C 0.07574 0.49328 0.45209 0.0
C564 C 0.07556 0.4945 0.48653 0.0
C565 C 0.56605 0.49568 0.48724 0.0
C566 C 0.52465 0.4992 0.50507 0.0
C567 C 0.56565 0.49776 0.45348 0.0
C568 C 0.52384 0.50342 0.43602 0.0
H569 H 0.59918 0.49072 0.49937 0.0
H570 H 0.59861 0.4952 0.44104 0.0
S571 S 0.40559 0.51502 0.4711 0.0
N572 N 0.44044 0.50917 0.50258 0.0
N573 N 0.43974 0.51284 0.43929 0.0
C574 C 0.48209 0.50703 0.45353 0.0
C575 C 0.48251 0.5051 0.48794 0.0
loop_
_geom_bond_atom_site_label_1
_geom_bond_atom_site_label_2
_geom_bond_distance
_geom_bond_site_symmetry_2
_ccdc_geom_bond_type
Zn0 O3 2.031 . S
Zn0 O5 2.049 . S
Zn0 O10 2.067 . S
Zn1 O2 1.962 . S
Zn1 O4 1.986 . S
Zn1 O6 1.996 . S
Zn1 O9 1.943 . S
O2 Zn1 1.962 . S
O2 C7 1.254 . S
O3 Zn0 2.031 . S
O3 C7 1.269 1_655 S
O4 Zn1 1.986 . S
O4 C11 1.262 . S
O5 Zn0 2.049 . S
O5 C13 1.260 1_655 S
O6 Zn1 1.996 . S
O6 C13 1.257 . S
C7 O2 1.254 . S
C7 O3 1.269 1_455 S
C8 O9 1.249 . S
C8 O10 1.270 1_455 S
O9 Zn1 1.943 . S
O9 C8 1.249 . S
O10 Zn0 2.067 . S
O10 C8 1.270 1_655 S
C11 O4 1.262 . S
C11 O12 1.232 . S
O12 C11 1.232 . S
C13 O5 1.260 1_455 S
C13 O6 1.257 . S
Zn14 O17 2.031 . S
Zn14 O19 2.049 . S
Zn14 O24 2.067 . S
Zn15 O16 1.962 . S
Zn15 O18 1.986 . S
Zn15 O20 1.996 . S
Zn15 O23 1.943 . S
O16 Zn15 1.962 . S
O16 C21 1.254 . S
O17 Zn14 2.031 . S
O17 C21 1.269 . S
O18 Zn15 1.986 . S
O18 C25 1.262 . S
O19 Zn14 2.049 . S
O19 C27 1.260 . S
O20 Zn15 1.996 . S
O20 C27 1.257 . S
C21 O16 1.254 . S
C21 O17 1.269 . S
C22 O23 1.249 . S
C22 O24 1.270 . S
O23 Zn15 1.943 . S
O23 C22 1.249 . S
O24 Zn14 2.067 . S
O24 C22 1.270 . S
C25 O18 1.262 . S
C25 O26 1.232 . S
O26 C25 1.232 . S
C27 O19 1.260 . S
C27 O20 1.257 . S
Zn28 O31 2.031 . S
Zn28 O33 2.049 . S
Zn28 O38 2.067 . S
Zn29 O30 1.962 . S
Zn29 O32 1.986 . S
Zn29 O34 1.996 . S
Zn29 O37 1.943 . S
O30 Zn29 1.962 . S
O30 C35 1.254 . S
O31 Zn28 2.031 . S
O31 C35 1.269 . S
O32 Zn29 1.986 . S
O32 C39 1.262 . S
O33 Zn28 2.049 . S
O33 C41 1.260 . S
O34 Zn29 1.996 . S
O34 C41 1.257 . S
C35 O30 1.254 . S
C35 O31 1.269 . S
C36 O37 1.249 . S
C36 O38 1.270 . S
O37 Zn29 1.943 . S
O37 C36 1.249 . S
O38 Zn28 2.067 . S
O38 C36 1.270 . S
C39 O32 1.262 . S
C39 O40 1.232 . S
O40 C39 1.232 . S
C41 O33 1.260 . S
C41 O34 1.257 . S
Zn42 O45 2.031 . S
Zn42 O47 2.049 . S
Zn42 O52 2.067 . S
Zn43 O44 1.962 . S
Zn43 O46 1.986 . S
Zn43 O48 1.996 . S
Zn43 O51 1.943 . S
O44 Zn43 1.962 . S
O44 C49 1.254 . S
O45 Zn42 2.031 . S
O45 C49 1.269 1_455 S
O46 Zn43 1.986 . S
O46 C53 1.262 . S
O47 Zn42 2.049 . S
O47 C55 1.260 1_455 S
O48 Zn43 1.996 . S
O48 C55 1.257 . S
C49 O44 1.254 . S
C49 O45 1.269 1_655 S
C50 O51 1.249 . S
C50 O52 1.270 1_655 S
O51 Zn43 1.943 . S
O51 C50 1.249 . S
O52 Zn42 2.067 . S
O52 C50 1.270 1_455 S
C53 O46 1.262 . S
C53 O54 1.232 . S
O54 C53 1.232 . S
C55 O47 1.260 1_655 S
C55 O48 1.257 . S
Zn56 O59 2.031 . S
Zn56 O61 2.049 . S
Zn56 O66 2.067 . S
Zn57 O58 1.962 . S
Zn57 O60 1.986 . S
Zn57 O62 1.996 . S
Zn57 O65 1.943 . S
O58 Zn57 1.962 . S
O58 C63 1.254 . S
O59 Zn56 2.031 . S
O59 C63 1.269 1_455 S
O60 Zn57 1.986 . S
O60 C67 1.262 . S
O61 Zn56 2.049 . S
O61 C69 1.260 1_455 S
O62 Zn57 1.996 . S
O62 C69 1.257 . S
C63 O58 1.254 . S
C63 O59 1.269 1_655 S
C64 O65 1.249 . S
C64 O66 1.270 1_655 S
O65 Zn57 1.943 . S
O65 C64 1.249 . S
O66 Zn56 2.067 . S
O66 C64 1.270 1_455 S
C67 O60 1.262 . S
C67 O68 1.232 . S
O68 C67 1.232 . S
C69 O61 1.260 1_655 S
C69 O62 1.257 . S
Zn70 O73 2.031 . S
Zn70 O75 2.049 . S
Zn70 O80 2.067 . S
Zn71 O72 1.962 . S
Zn71 O74 1.986 . S
Zn71 O76 1.996 . S
Zn71 O79 1.943 . S
O72 Zn71 1.962 . S
O72 C77 1.254 . S
O73 Zn70 2.031 . S
O73 C77 1.269 . S
O74 Zn71 1.986 . S
O74 C81 1.262 . S
O75 Zn70 2.049 . S
O75 C83 1.260 . S
O76 Zn71 1.996 . S
O76 C83 1.257 . S
C77 O72 1.254 . S
C77 O73 1.269 . S
C78 O79 1.249 . S
C78 O80 1.270 . S
O79 Zn71 1.943 . S
O79 C78 1.249 . S
O80 Zn70 2.067 . S
O80 C78 1.270 . S
C81 O74 1.262 . S
C81 O82 1.232 . S
O82 C81 1.232 . S
C83 O75 1.260 . S
C83 O76 1.257 . S
Zn84 O87 2.031 . S
Zn84 O89 2.049 . S
Zn84 O94 2.067 . S
Zn85 O86 1.962 . S
Zn85 O88 1.986 . S
Zn85 O90 1.996 . S
Zn85 O93 1.943 . S
O86 Zn85 1.962 . S
O86 C91 1.254 . S
O87 Zn84 2.031 . S
O87 C91 1.269 . S
O88 Zn85 1.986 . S
O88 C95 1.262 . S
O89 Zn84 2.049 . S
O89 C97 1.260 . S
O90 Zn85 1.996 . S
O90 C97 1.257 . S
C91 O86 1.254 . S
C91 O87 1.269 . S
C92 O93 1.249 . S
C92 O94 1.270 . S
O93 Zn85 1.943 . S
O93 C92 1.249 . S
O94 Zn84 2.067 . S
O94 C92 1.270 . S
C95 O88 1.262 . S
C95 O96 1.232 . S
O96 C95 1.232 . S
C97 O89 1.260 . S
C97 O90 1.257 . S
Zn98 O101 2.031 . S
Zn98 O103 2.049 . S
Zn98 O108 2.067 . S
Zn99 O100 1.962 . S
Zn99 O102 1.986 . S
Zn99 O104 1.996 . S
Zn99 O107 1.943 . S
O100 Zn99 1.962 . S
O100 C105 1.254 . S
O101 Zn98 2.031 . S
O101 C105 1.269 1_655 S
O102 Zn99 1.986 . S
O102 C109 1.262 . S
O103 Zn98 2.049 . S
O103 C111 1.260 1_655 S
O104 Zn99 1.996 . S
O104 C111 1.257 . S
C105 O100 1.254 . S
C105 O101 1.269 1_455 S
C106 O107 1.249 . S
C106 O108 1.270 1_455 S
O107 Zn99 1.943 . S
O107 C106 1.249 . S
O108 Zn98 2.067 . S
O108 C106 1.270 1_655 S
C109 O102 1.262 . S
C109 O110 1.232 . S
O110 C109 1.232 . S
C111 O103 1.260 1_455 S
C111 O104 1.257 . S
Zn112 O115 2.031 . S
Zn112 O117 2.049 . S
Zn112 O122 2.067 . S
Zn113 O114 1.962 . S
Zn113 O116 1.986 . S
Zn113 O118 1.996 . S
Zn113 O121 1.943 . S
O114 Zn113 1.962 . S
O114 C119 1.254 . S
O115 Zn112 2.031 . S
O115 C119 1.269 . S
O116 Zn113 1.986 . S
O116 C123 1.262 . S
O117 Zn112 2.049 . S
O117 C125 1.260 . S
O118 Zn113 1.996 . S
O118 C125 1.257 . S
C119 O114 1.254 . S
C119 O115 1.269 . S
C120 O121 1.249 . S
C120 O122 1.270 . S
O121 Zn113 1.943 . S
O121 C120 1.249 . S
O122 Zn112 2.067 . S
O122 C120 1.270 . S
C123 O116 1.262 . S
C123 O124 1.232 . S
O124 C123 1.232 . S
C125 O117 1.260 . S
C125 O118 1.257 . S
Zn126 O129 2.031 . S
Zn126 O131 2.049 . S
Zn126 O136 2.067 . S
Zn127 O128 1.962 . S
Zn127 O130 1.986 . S
Zn127 O132 1.996 . S
Zn127 O135 1.943 . S
O128 Zn127 1.962 . S
O128 C133 1.254 . S
O129 Zn126 2.031 . S
O129 C133 1.269 1_455 S
O130 Zn127 1.986 . S
O130 C137 1.262 . S
O131 Zn126 2.049 . S
O131 C139 1.260 1_455 S
O132 Zn127 1.996 . S
O132 C139 1.257 . S
C133 O128 1.254 . S
C133 O129 1.269 1_655 S
C134 O135 1.249 . S
C134 O136 1.270 1_655 S
O135 Zn127 1.943 . S
O135 C134 1.249 . S
O136 Zn126 2.067 . S
O136 C134 1.270 1_455 S
C137 O130 1.262 . S
C137 O138 1.232 . S
O138 C137 1.232 . S
C139 O131 1.260 1_655 S
C139 O132 1.257 . S
Zn140 O143 2.031 . S
Zn140 O145 2.049 . S
Zn140 O150 2.067 . S
Zn141 O142 1.962 . S
Zn141 O144 1.986 . S
Zn141 O146 1.996 . S
Zn141 O149 1.943 . S
O142 Zn141 1.962 . S
O142 C147 1.254 . S
O143 Zn140 2.031 . S
O143 C147 1.269 1_655 S
O144 Zn141 1.986 . S
O144 C151 1.262 . S
O145 Zn140 2.049 . S
O145 C153 1.260 1_655 S
O146 Zn141 1.996 . S
O146 C153 1.257 . S
C147 O142 1.254 . S
C147 O143 1.269 1_455 S
C148 O149 1.249 . S
C148 O150 1.270 1_455 S
O149 Zn141 1.943 . S
O149 C148 1.249 . S
O150 Zn140 2.067 . S
O150 C148 1.270 1_655 S
C151 O144 1.262 . S
C151 O152 1.232 . S
O152 C151 1.232 . S
C153 O145 1.260 1_455 S
C153 O146 1.257 . S
Zn154 O157 2.031 . S
Zn154 O159 2.049 . S
Zn154 O164 2.067 . S
Zn155 O156 1.962 . S
Zn155 O158 1.986 . S
Zn155 O160 1.996 . S
Zn155 O163 1.943 . S
O156 Zn155 1.962 . S
O156 C161 1.254 . S
O157 Zn154 2.031 . S
O157 C161 1.269 . S
O158 Zn155 1.986 . S
O158 C165 1.262 . S
O159 Zn154 2.049 . S
O159 C167 1.260 . S
O160 Zn155 1.996 . S
O160 C167 1.257 . S
C161 O156 1.254 . S
C161 O157 1.269 . S
C162 O163 1.249 . S
C162 O164 1.270 . S
O163 Zn155 1.943 . S
O163 C162 1.249 . S
O164 Zn154 2.067 . S
O164 C162 1.270 . S
C165 O158 1.262 . S
C165 O166 1.232 . S
O166 C165 1.232 . S
C167 O159 1.260 . S
C167 O160 1.257 . S
Zn168 O171 2.031 . S
Zn168 O173 2.049 . S
Zn168 O178 2.067 . S
Zn169 O170 1.962 . S
Zn169 O172 1.986 . S
Zn169 O174 1.996 . S
Zn169 O177 1.943 . S
O170 Zn169 1.962 . S
O170 C175 1.254 . S
O171 Zn168 2.031 . S
O171 C175 1.269 . S
O172 Zn169 1.986 . S
O172 C179 1.262 . S
O173 Zn168 2.049 . S
O173 C181 1.260 . S
O174 Zn169 1.996 . S
O174 C181 1.257 . S
C175 O170 1.254 . S
C175 O171 1.269 . S
C176 O177 1.249 . S
C176 O178 1.270 . S
O177 Zn169 1.943 . S
O177 C176 1.249 . S
O178 Zn168 2.067 . S
O178 C176 1.270 . S
C179 O172 1.262 . S
C179 O180 1.232 . S
O180 C179 1.232 . S
C181 O173 1.260 . S
C181 O174 1.257 . S
Zn182 O185 2.031 . S
Zn182 O187 2.049 . S
Zn182 O192 2.067 . S
Zn183 O184 1.962 . S
Zn183 O186 1.986 . S
Zn183 O188 1.996 . S
Zn183 O191 1.943 . S
O184 Zn183 1.962 . S
O184 C189 1.254 . S
O185 Zn182 2.031 . S
O185 C189 1.269 1_655 S
O186 Zn183 1.986 . S
O186 C193 1.262 . S
O187 Zn182 2.049 . S
O187 C195 1.260 1_655 S
O188 Zn183 1.996 . S
O188 C195 1.257 . S
C189 O184 1.254 . S
C189 O185 1.269 1_455 S
C190 O191 1.249 . S
C190 O192 1.270 1_455 S
O191 Zn183 1.943 . S
O191 C190 1.249 . S
O192 Zn182 2.067 . S
O192 C190 1.270 1_655 S
C193 O186 1.262 . S
C193 O194 1.232 . S
O194 C193 1.232 . S
C195 O187 1.260 1_455 S
C195 O188 1.257 . S
Zn196 O199 2.031 . S
Zn196 O201 2.049 . S
Zn196 O206 2.067 . S
Zn197 O198 1.962 . S
Zn197 O200 1.986 . S
Zn197 O202 1.996 . S
Zn197 O205 1.943 . S
O198 Zn197 1.962 . S
O198 C203 1.254 . S
O199 Zn196 2.031 . S
O199 C203 1.269 1_455 S
O200 Zn197 1.986 . S
O200 C207 1.262 . S
O201 Zn196 2.049 . S
O201 C209 1.260 1_455 S
O202 Zn197 1.996 . S
O202 C209 1.257 . S
C203 O198 1.254 . S
C203 O199 1.269 1_655 S
C204 O205 1.249 . S
C204 O206 1.270 1_655 S
O205 Zn197 1.943 . S
O205 C204 1.249 . S
O206 Zn196 2.067 . S
O206 C204 1.270 1_455 S
C207 O200 1.262 . S
C207 O208 1.232 . S
O208 C207 1.232 . S
C209 O201 1.260 1_655 S
C209 O202 1.257 . S
Zn210 O213 2.031 . S
Zn210 O215 2.049 . S
Zn210 O220 2.067 . S
Zn211 O212 1.962 . S
Zn211 O214 1.986 . S
Zn211 O216 1.996 . S
Zn211 O219 1.943 . S
O212 Zn211 1.962 . S
O212 C217 1.254 . S
O213 Zn210 2.031 . S
O213 C217 1.269 . S
O214 Zn211 1.986 . S
O214 C221 1.262 . S
O215 Zn210 2.049 . S
O215 C223 1.260 . S
O216 Zn211 1.996 . S
O216 C223 1.257 . S
C217 O212 1.254 . S
C217 O213 1.269 . S
C218 O219 1.249 . S
C218 O220 1.270 . S
O219 Zn211 1.943 . S
O219 C218 1.249 . S
O220 Zn210 2.067 . S
O220 C218 1.270 . S
C221 O214 1.262 . S
C221 O222 1.232 . S
O222 C221 1.232 . S
C223 O215 1.260 . S
C223 O216 1.257 . S
C224 C225 1.369 . S
C224 C226 1.419 . S
C224 H228 0.930 . S
C225 C224 1.369 . S
C225 C234 1.429 1_565 S
C226 C224 1.419 . S
C226 C227 1.363 1_565 S
C226 H229 0.929 . S
C227 C226 1.363 1_545 S
C227 C233 1.428 . S
H228 C224 0.930 . S
H229 C226 0.929 . S
S230 N231 1.613 . S
S230 N232 1.610 . S
N231 S230 1.613 . S
N231 C234 1.350 . S
N232 S230 1.610 . S
N232 C233 1.351 . S
C233 C227 1.428 . S
C233 N232 1.351 . S
C233 C234 1.434 . S
C234 C225 1.429 1_545 S
C234 N231 1.350 . S
C234 C233 1.434 . S
C235 C236 1.369 . S
C235 C237 1.419 . S
C235 H239 0.930 . S
C236 C235 1.369 . S
C236 C245 1.429 1_565 S
C237 C235 1.419 . S
C237 C238 1.363 1_565 S
C237 H240 0.929 . S
C238 C237 1.363 1_545 S
C238 C244 1.428 . S
H239 C235 0.930 . S
H240 C237 0.929 . S
S241 N242 1.613 . S
S241 N243 1.610 . S
N242 S241 1.613 . S
N242 C245 1.350 . S
N243 S241 1.610 . S
N243 C244 1.351 . S
C244 C238 1.428 . S
C244 N243 1.351 . S
C244 C245 1.434 . S
C245 C236 1.429 1_545 S
C245 N242 1.350 . S
C245 C244 1.434 . S
C246 C247 1.369 . S
C246 C248 1.419 . S
C246 H250 0.930 . S
C247 C246 1.369 . S
C247 C256 1.429 1_565 S
C248 C246 1.419 . S
C248 C249 1.363 1_565 S
C248 H251 0.929 . S
C249 C248 1.363 1_545 S
C249 C255 1.428 . S
H250 C246 0.930 . S
H251 C248 0.929 . S
S252 N253 1.613 . S
S252 N254 1.610 . S
N253 S252 1.613 . S
N253 C256 1.350 . S
N254 S252 1.610 . S
N254 C255 1.351 . S
C255 C249 1.428 . S
C255 N254 1.351 . S
C255 C256 1.434 . S
C256 C247 1.429 1_545 S
C256 N253 1.350 . S
C256 C255 1.434 . S
C257 C258 1.369 1_545 S
C257 C259 1.419 . S
C257 H261 0.930 . S
C258 C257 1.369 1_565 S
C258 C267 1.429 . S
C259 C257 1.419 . S
C259 C260 1.363 . S
C259 H262 0.929 . S
C260 C259 1.363 . S
C260 C266 1.428 1_545 S
H261 C257 0.930 . S
H262 C259 0.929 . S
S263 N264 1.613 . S
S263 N265 1.610 . S
N264 S263 1.613 . S
N264 C267 1.350 . S
N265 S263 1.610 . S
N265 C266 1.351 . S
C266 C260 1.428 1_565 S
C266 N265 1.351 . S
C266 C267 1.434 . S
C267 C258 1.429 . S
C267 N264 1.350 . S
C267 C266 1.434 . S
C268 C269 1.369 . S
C268 C270 1.419 . S
C268 H272 0.930 . S
C269 C268 1.369 . S
C269 C278 1.429 . S
C270 C268 1.419 . S
C270 C271 1.363 . S
C270 H273 0.929 . S
C271 C270 1.363 . S
C271 C277 1.428 . S
H272 C268 0.930 . S
H273 C270 0.929 . S
S274 N275 1.613 . S
S274 N276 1.610 . S
N275 S274 1.613 . S
N275 C278 1.350 . S
N276 S274 1.610 . S
N276 C277 1.351 . S
C277 C271 1.428 . S
C277 N276 1.351 . S
C277 C278 1.434 . S
C278 C269 1.429 . S
C278 N275 1.350 . S
C278 C277 1.434 . S
C279 C280 1.369 . S
C279 C281 1.419 . S
C279 H283 0.930 . S
C280 C279 1.369 . S
C280 C289 1.429 . S
C281 C279 1.419 . S
C281 C282 1.363 . S
C281 H284 0.929 . S
C282 C281 1.363 . S
C282 C288 1.428 . S
H283 C279 0.930 . S
H284 C281 0.929 . S
S285 N286 1.613 . S
S285 N287 1.610 . S
N286 S285 1.613 . S
N286 C289 1.350 . S
N287 S285 1.610 . S
N287 C288 1.351 . S
C288 C282 1.428 . S
C288 N287 1.351 . S
C288 C289 1.434 . S
C289 C280 1.429 . S
C289 N286 1.350 . S
C289 C288 1.434 . S
C290 C291 1.369 . S
C290 C292 1.419 . S
C290 H294 0.930 . S
C291 C290 1.369 . S
C291 C300 1.429 . S
C292 C290 1.419 . S
C292 C293 1.363 . S
C292 H295 0.929 . S
C293 C292 1.363 . S
C293 C299 1.428 . S
H294 C290 0.930 . S
H295 C292 0.929 . S
S296 N297 1.613 . S
S296 N298 1.610 . S
N297 S296 1.613 . S
N297 C300 1.350 . S
N298 S296 1.610 . S
N298 C299 1.351 . S
C299 C293 1.428 . S
C299 N298 1.351 . S
C299 C300 1.434 . S
C300 C291 1.429 . S
C300 N297 1.350 . S
C300 C299 1.434 . S
C301 C302 1.369 . S
C301 C303 1.419 . S
C301 H305 0.930 . S
C302 C301 1.369 . S
C302 C311 1.429 . S
C303 C301 1.419 . S
C303 C304 1.363 . S
C303 H306 0.929 . S
C304 C303 1.363 . S
C304 C310 1.428 . S
H305 C301 0.930 . S
H306 C303 0.929 . S
S307 N308 1.613 . S
S307 N309 1.610 . S
N308 S307 1.613 . S
N308 C311 1.350 . S
N309 S307 1.610 . S
N309 C310 1.351 . S
C310 C304 1.428 . S
C310 N309 1.351 . S
C310 C311 1.434 . S
C311 C302 1.429 . S
C311 N308 1.350 . S
C311 C310 1.434 . S
C312 C313 1.369 . S
C312 C314 1.419 . S
C312 H316 0.930 . S
C313 C312 1.369 . S
C313 C322 1.420 1_645 S
C314 C312 1.419 . S
C314 C315 1.363 1_655 S
C314 H317 0.929 . S
C315 C314 1.363 1_455 S
C315 C321 1.418 1_545 S
H316 C312 0.930 . S
H317 C314 0.929 . S
S318 N319 1.613 . S
S318 N320 1.610 . S
N319 S318 1.613 . S
N319 C322 1.359 . S
N320 S318 1.610 . S
N320 C321 1.361 . S
C321 C315 1.418 1_565 S
C321 N320 1.361 . S
C321 C322 1.434 . S
C322 C313 1.420 1_465 S
C322 N319 1.359 . S
C322 C321 1.434 . S
C323 C324 1.369 . S
C323 C325 1.419 . S
C323 H327 0.930 1_565 S
C324 C323 1.369 . S
C324 C333 1.429 . S
C325 C323 1.419 . S
C325 C326 1.363 . S
C325 H328 0.929 1_565 S
C326 C325 1.363 . S
C326 C332 1.428 . S
H327 C323 0.930 1_545 S
H328 C325 0.929 1_545 S
S329 N330 1.613 . S
S329 N331 1.610 . S
N330 S329 1.613 . S
N330 C333 1.350 . S
N331 S329 1.610 . S
N331 C332 1.351 . S
C332 C326 1.428 . S
C332 N331 1.351 . S
C332 C333 1.434 . S
C333 C324 1.429 . S
C333 N330 1.350 . S
C333 C332 1.434 . S
C334 C335 1.369 1_655 S
C334 C336 1.419 . S
C334 H338 0.930 1_565 S
C335 C334 1.369 1_455 S
C335 C344 1.429 . S
C336 C334 1.419 . S
C336 C337 1.363 . S
C336 H339 0.929 1_565 S
C337 C336 1.363 . S
C337 C343 1.428 1_655 S
H338 C334 0.930 1_545 S
H339 C336 0.929 1_545 S
S340 N341 1.613 . S
S340 N342 1.610 . S
N341 S340 1.613 . S
N341 C344 1.350 . S
N342 S340 1.610 . S
N342 C343 1.351 . S
C343 C337 1.428 1_455 S
C343 N342 1.351 . S
C343 C344 1.434 . S
C344 C335 1.429 . S
C344 N341 1.350 . S
C344 C343 1.434 . S
C345 C346 1.369 . S
C345 C347 1.419 . S
C345 H349 0.930 . S
C346 C345 1.369 . S
C346 C355 1.429 . S
C347 C345 1.419 . S
C347 C348 1.363 . S
C347 H350 0.929 . S
C348 C347 1.363 . S
C348 C354 1.428 . S
H349 C345 0.930 . S
H350 C347 0.929 . S
S351 N352 1.613 . S
S351 N353 1.610 . S
N352 S351 1.613 . S
N352 C355 1.350 . S
N353 S351 1.610 . S
N353 C354 1.351 . S
C354 C348 1.428 . S
C354 N353 1.351 . S
C354 C355 1.434 . S
C355 C346 1.429 . S
C355 N352 1.350 . S
C355 C354 1.434 . S
C356 C357 1.369 . S
C356 C358 1.419 . S
C356 H360 0.930 . S
C357 C356 1.369 . S
C357 C366 1.429 . S
C358 C356 1.419 . S
C358 C359 1.363 . S
C358 H361 0.929 . S
C359 C358 1.363 . S
C359 C365 1.428 . S
H360 C356 0.930 . S
H361 C358 0.929 . S
S362 N363 1.613 . S
S362 N364 1.610 . S
N363 S362 1.613 . S
N363 C366 1.350 . S
N364 S362 1.610 . S
N364 C365 1.351 . S
C365 C359 1.428 . S
C365 N364 1.351 . S
C365 C366 1.434 . S
C366 C357 1.429 . S
C366 N363 1.350 . S
C366 C365 1.434 . S
C367 C368 1.369 1_655 S
C367 C369 1.419 . S
C367 H371 0.930 . S
C368 C367 1.369 1_455 S
C368 C377 1.429 . S
C369 C367 1.419 . S
C369 C370 1.363 . S
C369 H372 0.929 . S
C370 C369 1.363 . S
C370 C376 1.428 1_655 S
H371 C367 0.930 . S
H372 C369 0.929 . S
S373 N374 1.613 . S
S373 N375 1.610 . S
N374 S373 1.613 . S
N374 C377 1.350 . S
N375 S373 1.610 . S
N375 C376 1.351 . S
C376 C370 1.428 1_455 S
C376 N375 1.351 . S
C376 C377 1.434 . S
C377 C368 1.429 . S
C377 N374 1.350 . S
C377 C376 1.434 . S
C378 C379 1.369 . S
C378 C380 1.419 . S
C378 H382 0.930 . S
C379 C378 1.369 . S
C379 C388 1.429 . S
C380 C378 1.419 . S
C380 C381 1.363 . S
C380 H383 0.929 . S
C381 C380 1.363 . S
C381 C387 1.428 . S
H382 C378 0.930 . S
H383 C380 0.929 . S
S384 N385 1.613 . S
S384 N386 1.610 . S
N385 S384 1.613 . S
N385 C388 1.350 . S
N386 S384 1.610 . S
N386 C387 1.351 . S
C387 C381 1.428 . S
C387 N386 1.351 . S
C387 C388 1.434 . S
C388 C379 1.429 . S
C388 N385 1.350 . S
C388 C387 1.434 . S
C389 C390 1.369 . S
C389 C391 1.419 . S
C389 H393 0.930 . S
C390 C389 1.369 . S
C390 C399 1.429 1_455 S
C391 C389 1.419 . S
C391 C392 1.363 1_455 S
C391 H394 0.929 . S
C392 C391 1.363 1_655 S
C392 C398 1.428 . S
H393 C389 0.930 . S
H394 C391 0.929 . S
S395 N396 1.613 . S
S395 N397 1.610 . S
N396 S395 1.613 . S
N396 C399 1.350 . S
N397 S395 1.610 . S
N397 C398 1.351 . S
C398 C392 1.428 . S
C398 N397 1.351 . S
C398 C399 1.434 . S
C399 C390 1.429 1_655 S
C399 N396 1.350 . S
C399 C398 1.434 . S
C400 C401 1.369 . S
C400 C402 1.419 . S
C400 H404 0.930 . S
C401 C400 1.369 . S
C401 C410 1.429 1_455 S
C402 C400 1.419 . S
C402 C403 1.363 1_455 S
C402 H405 0.929 . S
C403 C402 1.363 1_655 S
C403 C409 1.428 . S
H404 C400 0.930 . S
H405 C402 0.929 . S
S406 N407 1.613 . S
S406 N408 1.610 . S
N407 S406 1.613 . S
N407 C410 1.350 . S
N408 S406 1.610 . S
N408 C409 1.351 . S
C409 C403 1.428 . S
C409 N408 1.351 . S
C409 C410 1.434 . S
C410 C401 1.429 1_655 S
C410 N407 1.350 . S
C410 C409 1.434 . S
C411 C412 1.369 . S
C411 C413 1.419 . S
C411 H415 0.930 . S
C412 C411 1.369 . S
C412 C421 1.429 . S
C413 C411 1.419 . S
C413 C414 1.363 . S
C413 H416 0.929 . S
C414 C413 1.363 . S
C414 C420 1.428 . S
H415 C411 0.930 . S
H416 C413 0.929 . S
S417 N418 1.613 . S
S417 N419 1.610 . S
N418 S417 1.613 . S
N418 C421 1.350 . S
N419 S417 1.610 . S
N419 C420 1.351 . S
C420 C414 1.428 . S
C420 N419 1.351 . S
C420 C421 1.434 . S
C421 C412 1.429 . S
C421 N418 1.350 . S
C421 C420 1.434 . S
C422 C423 1.369 . S
C422 C424 1.419 . S
C422 H426 0.930 . S
C423 C422 1.369 . S
C423 C432 1.429 . S
C424 C422 1.419 . S
C424 C425 1.363 . S
C424 H427 0.929 . S
C425 C424 1.363 . S
C425 C431 1.428 . S
H426 C422 0.930 . S
H427 C424 0.929 . S
S428 N429 1.613 . S
S428 N430 1.610 . S
N429 S428 1.613 . S
N429 C432 1.350 . S
N430 S428 1.610 . S
N430 C431 1.351 . S
C431 C425 1.428 . S
C431 N430 1.351 . S
C431 C432 1.434 . S
C432 C423 1.429 . S
C432 N429 1.350 . S
C432 C431 1.434 . S
C433 C434 1.369 . S
C433 C435 1.419 1_455 S
C433 H437 0.930 . S
C434 C433 1.369 . S
C434 C443 1.433 . S
C435 C433 1.419 1_655 S
C435 C436 1.363 . S
C435 H438 0.929 . S
C436 C435 1.363 . S
C436 C442 1.428 . S
H437 C433 0.930 . S
H438 C435 0.929 . S
S439 N440 1.613 . S
S439 N441 1.610 . S
N440 S439 1.613 . S
N440 C443 1.349 1_655 S
N441 S439 1.610 . S
N441 C442 1.351 . S
C442 C436 1.428 . S
C442 N441 1.351 . S
C442 C443 1.430 1_655 S
C443 C434 1.433 . S
C443 N440 1.349 1_455 S
C443 C442 1.430 1_455 S
C444 C445 1.369 1_655 S
C444 C446 1.419 . S
C444 H448 0.930 . S
C445 C444 1.369 1_455 S
C445 C454 1.429 . S
C446 C444 1.419 . S
C446 C447 1.363 . S
C446 H449 0.929 . S
C447 C446 1.363 . S
C447 C453 1.428 1_655 S
H448 C444 0.930 . S
H449 C446 0.929 . S
S450 N451 1.613 . S
S450 N452 1.610 . S
N451 S450 1.613 . S
N451 C454 1.350 . S
N452 S450 1.610 . S
N452 C453 1.351 . S
C453 C447 1.428 1_455 S
C453 N452 1.351 . S
C453 C454 1.434 . S
C454 C445 1.429 . S
C454 N451 1.350 . S
C454 C453 1.434 . S
C455 C456 1.369 . S
C455 C457 1.419 . S
C455 H459 0.930 . S
C456 C455 1.369 . S
C456 C465 1.429 . S
C457 C455 1.419 . S
C457 C458 1.363 . S
C457 H460 0.929 . S
C458 C457 1.363 . S
C458 C464 1.428 . S
H459 C455 0.930 . S
H460 C457 0.929 . S
S461 N462 1.613 . S
S461 N463 1.610 . S
N462 S461 1.613 . S
N462 C465 1.350 . S
N463 S461 1.610 . S
N463 C464 1.351 . S
C464 C458 1.428 . S
C464 N463 1.351 . S
C464 C465 1.434 . S
C465 C456 1.429 . S
C465 N462 1.350 . S
C465 C464 1.434 . S
C466 C467 1.369 . S
C466 C468 1.419 . S
C466 H470 0.930 . S
C467 C466 1.369 . S
C467 C476 1.429 . S
C468 C466 1.419 . S
C468 C469 1.363 . S
C468 H471 0.929 . S
C469 C468 1.363 . S
C469 C475 1.428 . S
H470 C466 0.930 . S
H471 C468 0.929 . S
S472 N473 1.613 . S
S472 N474 1.610 . S
N473 S472 1.613 . S
N473 C476 1.350 . S
N474 S472 1.610 . S
N474 C475 1.351 . S
C475 C469 1.428 . S
C475 N474 1.351 . S
C475 C476 1.434 . S
C476 C467 1.429 . S
C476 N473 1.350 . S
C476 C475 1.434 . S
C477 C478 1.369 1_655 S
C477 C479 1.419 . S
C477 H481 0.930 . S
C478 C477 1.369 1_455 S
C478 C487 1.429 . S
C479 C477 1.419 . S
C479 C480 1.363 . S
C479 H482 0.929 . S
C480 C479 1.363 . S
C480 C486 1.428 1_655 S
H481 C477 0.930 . S
H482 C479 0.929 . S
S483 N484 1.613 . S
S483 N485 1.610 . S
N484 S483 1.613 . S
N484 C487 1.350 . S
N485 S483 1.610 . S
N485 C486 1.351 . S
C486 C480 1.428 1_455 S
C486 N485 1.351 . S
C486 C487 1.434 . S
C487 C478 1.429 . S
C487 N484 1.350 . S
C487 C486 1.434 . S
C488 C489 1.369 1_545 S
C488 C490 1.419 1_556 S
C488 H492 0.930 . S
C489 C488 1.369 1_565 S
C489 C498 1.429 1_655 S
C490 C488 1.419 1_554 S
C490 C491 1.363 1_655 S
C490 H493 0.929 . S
C491 C490 1.363 1_455 S
C491 C497 1.428 1_545 S
H492 C488 0.930 . S
H493 C490 0.929 . S
S494 N495 1.613 . S
S494 N496 1.610 1_556 S
N495 S494 1.613 . S
N495 C498 1.350 . S
N496 S494 1.610 1_554 S
N496 C497 1.351 . S
C497 C491 1.428 1_565 S
C497 N496 1.351 . S
C497 C498 1.434 1_554 S
C498 C489 1.429 1_455 S
C498 N495 1.350 . S
C498 C497 1.434 1_556 S
C499 C500 1.369 1_565 S
C499 C501 1.419 1_556 S
C499 H503 0.930 . S
C500 C499 1.369 1_545 S
C500 C509 1.429 . S
C501 C499 1.419 1_554 S
C501 C502 1.363 . S
C501 H504 0.929 . S
C502 C501 1.363 . S
C502 C508 1.428 1_565 S
H503 C499 0.930 . S
H504 C501 0.929 . S
S505 N506 1.613 . S
S505 N507 1.610 1_556 S
N506 S505 1.613 . S
N506 C509 1.350 . S
N507 S505 1.610 1_554 S
N507 C508 1.351 . S
C508 C502 1.428 1_545 S
C508 N507 1.351 . S
C508 C509 1.434 1_554 S
C509 C500 1.429 . S
C509 N506 1.350 . S
C509 C508 1.434 1_556 S
C510 C511 1.369 . S
C510 C512 1.419 . S
C510 H514 0.930 . S
C511 C510 1.369 . S
C511 C520 1.429 1_545 S
C512 C510 1.419 . S
C512 C513 1.363 1_545 S
C512 H515 0.929 . S
C513 C512 1.363 1_565 S
C513 C519 1.428 . S
H514 C510 0.930 . S
H515 C512 0.929 . S
S516 N517 1.613 . S
S516 N518 1.610 . S
N517 S516 1.613 . S
N517 C520 1.350 . S
N518 S516 1.610 . S
N518 C519 1.351 . S
C519 C513 1.428 . S
C519 N518 1.351 . S
C519 C520 1.434 . S
C520 C511 1.429 1_565 S
C520 N517 1.350 . S
C520 C519 1.434 . S
C521 C522 1.369 . S
C521 C523 1.419 . S
C521 H525 0.930 . S
C522 C521 1.369 . S
C522 C531 1.429 1_465 S
C523 C521 1.419 . S
C523 C524 1.363 1_465 S
C523 H526 0.929 . S
C524 C523 1.363 1_645 S
C524 C530 1.428 . S
H525 C521 0.930 . S
H526 C523 0.929 . S
S527 N528 1.613 . S
S527 N529 1.610 . S
N528 S527 1.613 . S
N528 C531 1.350 . S
N529 S527 1.610 . S
N529 C530 1.351 . S
C530 C524 1.428 . S
C530 N529 1.351 . S
C530 C531 1.434 . S
C531 C522 1.429 1_645 S
C531 N528 1.350 . S
C531 C530 1.434 . S
C532 C533 1.369 . S
C532 C534 1.419 1_554 S
C532 H536 0.930 . S
C533 C532 1.369 . S
C533 C542 1.429 . S
C534 C532 1.419 1_556 S
C534 C535 1.363 . S
C534 H537 0.929 . S
C535 C534 1.363 . S
C535 C541 1.428 . S
H536 C532 0.930 . S
H537 C534 0.929 . S
S538 N539 1.613 . S
S538 N540 1.610 1_554 S
N539 S538 1.613 . S
N539 C542 1.350 . S
N540 S538 1.610 1_556 S
N540 C541 1.351 . S
C541 C535 1.428 . S
C541 N540 1.351 . S
C541 C542 1.434 1_556 S
C542 C533 1.429 . S
C542 N539 1.350 . S
C542 C541 1.434 1_554 S
C543 C544 1.369 1_455 S
C543 C545 1.419 1_554 S
C543 H547 0.930 . S
C544 C543 1.369 1_655 S
C544 C553 1.429 . S
C545 C543 1.419 1_556 S
C545 C546 1.363 . S
C545 H548 0.929 . S
C546 C545 1.363 . S
C546 C552 1.428 1_455 S
H547 C543 0.930 . S
H548 C545 0.929 . S
S549 N550 1.613 1_556 S
S549 N551 1.610 . S
N550 S549 1.613 1_554 S
N550 C553 1.350 . S
N551 S549 1.610 . S
N551 C552 1.351 . S
C552 C546 1.428 1_655 S
C552 N551 1.351 . S
C552 C553 1.434 1_556 S
C553 C544 1.429 . S
C553 N550 1.350 . S
C553 C552 1.434 1_554 S
C554 C555 1.369 . S
C554 C556 1.419 . S
C554 H558 0.930 . S
C555 C554 1.369 . S
C555 C564 1.429 1_655 S
C556 C554 1.419 . S
C556 C557 1.363 1_655 S
C556 H559 0.929 . S
C557 C556 1.363 1_455 S
C557 C563 1.428 . S
H558 C554 0.930 . S
H559 C556 0.929 . S
S560 N561 1.613 . S
S560 N562 1.610 . S
N561 S560 1.613 . S
N561 C564 1.350 . S
N562 S560 1.610 . S
N562 C563 1.351 . S
C563 C557 1.428 . S
C563 N562 1.351 . S
C563 C564 1.434 . S
C564 C555 1.429 1_455 S
C564 N561 1.350 . S
C564 C563 1.434 . S
C565 C566 1.369 . S
C565 C567 1.419 . S
C565 H569 0.930 . S
C566 C565 1.369 . S
C566 C575 1.429 . S
C567 C565 1.419 . S
C567 C568 1.363 . S
C567 H570 0.929 . S
C568 C567 1.363 . S
C568 C574 1.428 . S
H569 C565 0.930 . S
H570 C567 0.929 . S
S571 N572 1.613 . S
S571 N573 1.610 . S
N572 S571 1.613 . S
N572 C575 1.350 . S
N573 S571 1.610 . S
N573 C574 1.351 . S
C574 C568 1.428 . S
C574 N573 1.351 . S
C574 C575 1.434 . S
C575 C566 1.429 . S
C575 N572 1.350 . S
C575 C574 1.434 . S
C225 C25 1.492 . S
C227 C11 1.496 . S
C236 C39 1.493 . S
C238 C53 1.496 . S
C247 C67 1.493 . S
C249 C81 1.496 . S
C258 C109 1.495 . S
C260 C95 1.493 . S
C269 C137 1.494 . S
C271 C123 1.496 . S
C280 C165 1.493 . S
C282 C151 1.493 . S
C291 C193 1.493 . S
C293 C179 1.493 . S
C302 C221 1.496 . S
C304 C207 1.494 . S
C313 C49 1.318 . S
C315 C7 1.318 . S
C324 C21 1.315 . S
C326 C35 1.316 . S
C335 C105 1.315 . S
C337 C63 1.316 . S
C346 C91 1.316 . S
C348 C77 1.316 . S
C357 C119 1.318 . S
C359 C161 1.318 . S
C368 C147 1.318 . S
C370 C133 1.318 . S
C379 C217 1.315 . S
C381 C175 1.315 . S
C390 C189 1.319 . S
C392 C203 1.318 . S
C401 C8 1.455 . S
C403 C134 1.465 . S
C412 C22 1.465 . S
C414 C120 1.459 . S
C423 C162 1.466 . S
C425 C36 1.458 . S
C434 C148 1.458 . S
C436 C50 1.464 . S
C445 C190 1.466 . S
C447 C64 1.456 . S
C456 C176 1.466 . S
C458 C78 1.457 . S
C467 C92 1.463 . S
C469 C218 1.456 . S
C478 C106 1.463 . S
C480 C204 1.456 . S
C489 C69 1.278 . S
C491 C13 1.289 . S
C500 C83 1.279 . S
C502 C27 1.288 . S
C511 C97 1.281 . S
C513 C41 1.286 . S
C522 C111 1.282 . S
C524 C55 1.285 . S
C533 C125 1.278 . S
C535 C181 1.288 . S
C544 C139 1.281 . S
C546 C195 1.286 . S
C555 C209 1.278 . S
C557 C153 1.289 . S
C566 C223 1.280 . S
C568 C167 1.287 . S
