# Generated by pormake.
# Topology why, (6)-cn, num edge types: 1
# Building blocks:
#     Node 0, Type 0, BuildingBlock: BETDEL_clean_sbu_0, # of connection points: 6
#     Node 1, Type 0, BuildingBlock: BETDEL_clean_sbu_0, # of connection points: 6
#     Node 2, Type 0, BuildingBlock: BETDEL_clean_sbu_0, # of connection points: 6
#     Node 3, Type 0, BuildingBlock: BETDEL_clean_sbu_0, # of connection points: 6
#     Node 4, Type 0, BuildingBlock: BETDEL_clean_sbu_0, # of connection points: 6
#     Node 5, Type 0, BuildingBlock: BETDEL_clean_sbu_0, # of connection points: 6
#     Node 6, Type 0, BuildingBlock: BETDEL_clean_sbu_0, # of connection points: 6
#     Node 7, Type 0, BuildingBlock: BETDEL_clean_sbu_0, # of connection points: 6
#     Node 8, Type 0, BuildingBlock: BETDEL_clean_sbu_0, # of connection points: 6
#     Node 9, Type 0, BuildingBlock: BETDEL_clean_sbu_0, # of connection points: 6
#     Node 10, Type 0, BuildingBlock: BETDEL_clean_sbu_0, # of connection points: 6
#     Node 11, Type 0, BuildingBlock: BETDEL_clean_sbu_0, # of connection points: 6
#     Node 12, Type 0, BuildingBlock: BETDEL_clean_sbu_0, # of connection points: 6
#     Node 13, Type 0, BuildingBlock: BETDEL_clean_sbu_0, # of connection points: 6
#     Node 14, Type 0, BuildingBlock: BETDEL_clean_sbu_0, # of connection points: 6
#     Node 15, Type 0, BuildingBlock: BETDEL_clean_sbu_0, # of connection points: 6
#     Edge 16, Type (0, 0), BuildingBlock: TEMPAE_clean_linker_10, # of connection points: 2
#     Edge 17, Type (0, 0), BuildingBlock: TEMPAE_clean_linker_10, # of connection points: 2
#     Edge 18, Type (0, 0), BuildingBlock: TEMPAE_clean_linker_10, # of connection points: 2
#     Edge 19, Type (0, 0), BuildingBlock: TEMPAE_clean_linker_10, # of connection points: 2
#     Edge 20, Type (0, 0), BuildingBlock: TEMPAE_clean_linker_10, # of connection points: 2
#     Edge 21, Type (0, 0), BuildingBlock: TEMPAE_clean_linker_10, # of connection points: 2
#     Edge 22, Type (0, 0), BuildingBlock: TEMPAE_clean_linker_10, # of connection points: 2
#     Edge 23, Type (0, 0), BuildingBlock: TEMPAE_clean_linker_10, # of connection points: 2
#     Edge 24, Type (0, 0), BuildingBlock: TEMPAE_clean_linker_10, # of connection points: 2
#     Edge 25, Type (0, 0), BuildingBlock: TEMPAE_clean_linker_10, # of connection points: 2
#     Edge 26, Type (0, 0), BuildingBlock: TEMPAE_clean_linker_10, # of connection points: 2
#     Edge 27, Type (0, 0), BuildingBlock: TEMPAE_clean_linker_10, # of connection points: 2
#     Edge 28, Type (0, 0), BuildingBlock: TEMPAE_clean_linker_10, # of connection points: 2
#     Edge 29, Type (0, 0), BuildingBlock: TEMPAE_clean_linker_10, # of connection points: 2
#     Edge 30, Type (0, 0), BuildingBlock: TEMPAE_clean_linker_10, # of connection points: 2
#     Edge 31, Type (0, 0), BuildingBlock: TEMPAE_clean_linker_10, # of connection points: 2
#     Edge 32, Type (0, 0), BuildingBlock: TEMPAE_clean_linker_10, # of connection points: 2
#     Edge 33, Type (0, 0), BuildingBlock: TEMPAE_clean_linker_10, # of connection points: 2
#     Edge 34, Type (0, 0), BuildingBlock: TEMPAE_clean_linker_10, # of connection points: 2
#     Edge 35, Type (0, 0), BuildingBlock: TEMPAE_clean_linker_10, # of connection points: 2
#     Edge 36, Type (0, 0), BuildingBlock: TEMPAE_clean_linker_10, # of connection points: 2
#     Edge 37, Type (0, 0), BuildingBlock: TEMPAE_clean_linker_10, # of connection points: 2
#     Edge 38, Type (0, 0), BuildingBlock: TEMPAE_clean_linker_10, # of connection points: 2
#     Edge 39, Type (0, 0), BuildingBlock: TEMPAE_clean_linker_10, # of connection points: 2
#     Edge 40, Type (0, 0), BuildingBlock: TEMPAE_clean_linker_10, # of connection points: 2
#     Edge 41, Type (0, 0), BuildingBlock: TEMPAE_clean_linker_10, # of connection points: 2
#     Edge 42, Type (0, 0), BuildingBlock: TEMPAE_clean_linker_10, # of connection points: 2
#     Edge 43, Type (0, 0), BuildingBlock: TEMPAE_clean_linker_10, # of connection points: 2
#     Edge 44, Type (0, 0), BuildingBlock: TEMPAE_clean_linker_10, # of connection points: 2
#     Edge 45, Type (0, 0), BuildingBlock: TEMPAE_clean_linker_10, # of connection points: 2
#     Edge 46, Type (0, 0), BuildingBlock: TEMPAE_clean_linker_10, # of connection points: 2
#     Edge 47, Type (0, 0), BuildingBlock: TEMPAE_clean_linker_10, # of connection points: 2
#     Edge 48, Type (0, 0), BuildingBlock: TEMPAE_clean_linker_10, # of connection points: 2
#     Edge 49, Type (0, 0), BuildingBlock: TEMPAE_clean_linker_10, # of connection points: 2
#     Edge 50, Type (0, 0), BuildingBlock: TEMPAE_clean_linker_10, # of connection points: 2
#     Edge 51, Type (0, 0), BuildingBlock: TEMPAE_clean_linker_10, # of connection points: 2
#     Edge 52, Type (0, 0), BuildingBlock: TEMPAE_clean_linker_10, # of connection points: 2
#     Edge 53, Type (0, 0), BuildingBlock: TEMPAE_clean_linker_10, # of connection points: 2
#     Edge 54, Type (0, 0), BuildingBlock: TEMPAE_clean_linker_10, # of connection points: 2
#     Edge 55, Type (0, 0), BuildingBlock: TEMPAE_clean_linker_10, # of connection points: 2
#     Edge 56, Type (0, 0), BuildingBlock: TEMPAE_clean_linker_10, # of connection points: 2
#     Edge 57, Type (0, 0), BuildingBlock: TEMPAE_clean_linker_10, # of connection points: 2
#     Edge 58, Type (0, 0), BuildingBlock: TEMPAE_clean_linker_10, # of connection points: 2
#     Edge 59, Type (0, 0), BuildingBlock: TEMPAE_clean_linker_10, # of connection points: 2
#     Edge 60, Type (0, 0), BuildingBlock: TEMPAE_clean_linker_10, # of connection points: 2
#     Edge 61, Type (0, 0), BuildingBlock: TEMPAE_clean_linker_10, # of connection points: 2
#     Edge 62, Type (0, 0), BuildingBlock: TEMPAE_clean_linker_10, # of connection points: 2
#     Edge 63, Type (0, 0), BuildingBlock: TEMPAE_clean_linker_10, # of connection points: 2
# Relax obj value: 0.215
# Max RMSD: 0.170
# Mean RMSD: 0.170
data_MOF--net-why--node1-BETDEL_clean_sbu_0--edge1-TEMPAE_clean_linker_10
_symmetry_space_group_name_H-M    P1
_symmetry_Int_Tables_number       1
_symmetry_cell_setting            triclinic
loop_
_symmetry_equiv_pos_as_xyz
'x, y, z'
_cell_length_a     48.509188
_cell_length_b     48.516098
_cell_length_c     29.340669
_cell_angle_alpha  89.974199
_cell_angle_beta   90.011143
_cell_angle_gamma 90.024467
loop_
_atom_site_label
_atom_site_type_symbol
_atom_site_fract_x
_atom_site_fract_y
_atom_site_fract_z
_atom_type_partial_charge
Dy0 Dy 0.41318 0.17002 0.03158 0.0
C1 C 0.34199 0.21923 0.15793 0.0
C2 C 0.44368 0.16676 0.95482 0.0
Dy3 Dy 0.38206 0.19823 0.10452 0.0
O4 O 0.42541 0.14847 0.9669 0.0
O5 O 0.44519 0.1864 0.98462 0.0
O6 O 0.42531 0.13016 0.06189 0.0
O7 O 0.40203 0.1576 0.10266 0.0
C8 C 0.4137 0.13412 0.10109 0.0
C9 C 0.39401 0.22971 0.03256 0.0
O10 O 0.42387 0.21168 0.12849 0.0
O11 O 0.44517 0.1981 0.06181 0.0
O12 O 0.34242 0.21918 0.11402 0.0
O13 O 0.36401 0.20737 0.17432 0.0
O14 O 0.3945 0.23878 0.07398 0.0
O15 O 0.38614 0.20509 0.03182 0.0
O16 O 0.37054 0.16308 0.00437 0.0
O17 O 0.34903 0.17167 0.07293 0.0
C18 C 0.44553 0.2116 0.10097 0.0
C19 C 0.34801 0.16353 0.02984 0.0
Dy20 Dy 0.63632 0.66356 0.2768 0.0
C21 C 0.58894 0.59532 0.41039 0.0
C22 C 0.64188 0.69462 0.201 0.0
Dy23 Dy 0.60782 0.63252 0.34942 0.0
O24 O 0.65815 0.67423 0.21151 0.0
O25 O 0.62307 0.69791 0.23183 0.0
O26 O 0.67623 0.67539 0.30804 0.0
O27 O 0.64846 0.6523 0.34801 0.0
C28 C 0.67202 0.66378 0.34713 0.0
C29 C 0.57574 0.64356 0.27748 0.0
O30 O 0.59412 0.67458 0.3716 0.0
O31 O 0.60697 0.69515 0.3041 0.0
O32 O 0.5935 0.59068 0.36778 0.0
O33 O 0.59522 0.6206 0.42089 0.0
O34 O 0.56654 0.64168 0.31869 0.0
O35 O 0.60072 0.63686 0.27653 0.0
O36 O 0.64181 0.62076 0.24896 0.0
O37 O 0.6336 0.59913 0.31758 0.0
C38 C 0.59354 0.69577 0.34321 0.0
C39 C 0.64125 0.59812 0.27426 0.0
Dy40 Dy 0.14206 0.8874 0.53017 0.0
C41 C 0.20904 0.83304 0.65382 0.0
C42 C 0.1101 0.9015 0.45782 0.0
Dy43 Dy 0.17083 0.85731 0.5997 0.0
O44 O 0.1073 0.91162 0.4985 0.0
O45 O 0.13067 0.88465 0.45666 0.0
O46 O 0.15754 0.92735 0.55691 0.0
O47 O 0.14729 0.8962 0.60421 0.0
C48 C 0.15684 0.92047 0.59963 0.0
C49 C 0.15759 0.82569 0.52813 0.0
O50 O 0.12897 0.8435 0.62213 0.0
O51 O 0.10864 0.85914 0.55603 0.0
O52 O 0.20954 0.8346 0.61001 0.0
O53 O 0.18746 0.84587 0.66979 0.0
O54 O 0.15786 0.81696 0.56975 0.0
O55 O 0.16619 0.85012 0.52664 0.0
O56 O 0.18433 0.89115 0.50049 0.0
O57 O 0.2051 0.88305 0.56938 0.0
C58 C 0.10756 0.84463 0.59422 0.0
C59 C 0.20679 0.89021 0.5259 0.0
Dy60 Dy 0.91784 0.392 0.78472 0.0
C61 C 0.97285 0.45927 0.90461 0.0
C62 C 0.9077 0.3561 0.71582 0.0
Dy63 Dy 0.94802 0.42087 0.85173 0.0
O64 O 0.89102 0.37582 0.72766 0.0
O65 O 0.92927 0.35614 0.74158 0.0
O66 O 0.87709 0.40244 0.81412 0.0
O67 O 0.91002 0.3961 0.85932 0.0
C68 C 0.88501 0.40371 0.85623 0.0
C69 C 0.97801 0.40826 0.77807 0.0
O70 O 0.96335 0.3797 0.87508 0.0
O71 O 0.94386 0.35771 0.81363 0.0
O72 O 0.97213 0.45885 0.86075 0.0
O73 O 0.95906 0.4385 0.92122 0.0
O74 O 0.98739 0.40643 0.81915 0.0
O75 O 0.95391 0.41748 0.77822 0.0
O76 O 0.91782 0.43384 0.75244 0.0
O77 O 0.92054 0.45424 0.82229 0.0
C78 C 0.96023 0.35741 0.84966 0.0
C79 C 0.91562 0.45615 0.778 0.0
Dy80 Dy 0.66827 0.85775 0.86643 0.0
C81 C 0.60564 0.89785 0.00812 0.0
C82 C 0.70026 0.83897 0.79686 0.0
Dy83 Dy 0.64159 0.88594 0.93957 0.0
O84 O 0.67944 0.82621 0.81433 0.0
O85 O 0.7029 0.86296 0.81589 0.0
O86 O 0.65907 0.81608 0.89518 0.0
O87 O 0.66656 0.84887 0.93969 0.0
C88 C 0.65904 0.82416 0.93706 0.0
C89 C 0.65189 0.92017 0.86873 0.0
O90 O 0.68376 0.88501 0.97088 0.0
O91 O 0.70508 0.87706 0.90224 0.0
O92 O 0.63077 0.90703 0.00601 0.0
O93 O 0.60034 0.88295 0.97277 0.0
O94 O 0.65228 0.92719 0.91121 0.0
O95 O 0.64325 0.89559 0.86517 0.0
O96 O 0.62497 0.84842 0.84463 0.0
O97 O 0.60902 0.85607 0.91695 0.0
C98 C 0.70648 0.88405 0.94591 0.0
C99 C 0.60561 0.84547 0.87595 0.0
Dy100 Dy 0.44571 0.4214 0.62429 0.0
C101 C 0.40973 0.3566 0.76458 0.0
C102 C 0.46954 0.45924 0.56944 0.0
Dy103 Dy 0.4177 0.39191 0.69415 0.0
O104 O 0.47233 0.45742 0.61297 0.0
O105 O 0.45257 0.44046 0.55445 0.0
O106 O 0.48608 0.40718 0.65265 0.0
O107 O 0.45395 0.41733 0.69724 0.0
C108 C 0.47823 0.4085 0.69468 0.0
C109 C 0.38332 0.40413 0.62529 0.0
O110 O 0.4181 0.43378 0.72634 0.0
O111 O 0.41945 0.45465 0.65658 0.0
O112 O 0.39104 0.37346 0.74934 0.0
O113 O 0.43221 0.35912 0.74139 0.0
O114 O 0.37646 0.4038 0.66795 0.0
O115 O 0.40802 0.39596 0.62029 0.0
O116 O 0.46011 0.38024 0.59937 0.0
O117 O 0.44213 0.35767 0.66168 0.0
C118 C 0.41548 0.45622 0.70115 0.0
C119 C 0.4576 0.35775 0.62455 0.0
Dy120 Dy 0.88145 0.1964 0.37741 0.0
C121 C 0.94724 0.15574 0.51225 0.0
C122 C 0.84283 0.22016 0.32375 0.0
Dy123 Dy 0.91044 0.16663 0.44498 0.0
O124 O 0.84234 0.21844 0.36754 0.0
O125 O 0.8646 0.20784 0.30761 0.0
O126 O 0.89488 0.23646 0.40821 0.0
O127 O 0.88547 0.20323 0.45092 0.0
C128 C 0.89402 0.22763 0.44973 0.0
C129 C 0.89835 0.13354 0.37388 0.0
O130 O 0.86883 0.16766 0.4777 0.0
O131 O 0.84848 0.1689 0.40772 0.0
O132 O 0.92459 0.14192 0.50602 0.0
O133 O 0.9496 0.17476 0.48176 0.0
O134 O 0.89977 0.12576 0.41602 0.0
O135 O 0.90617 0.15844 0.37059 0.0
O136 O 0.92273 0.2116 0.35409 0.0
O137 O 0.94403 0.19388 0.41758 0.0
C138 C 0.84657 0.16485 0.45222 0.0
C139 C 0.94466 0.20939 0.38061 0.0
Dy140 Dy 0.10671 0.63529 0.12404 0.0
C141 C 0.15229 0.69118 0.27068 0.0
C142 C 0.08658 0.60498 0.05362 0.0
Dy143 Dy 0.13706 0.661 0.19702 0.0
O144 O 0.07408 0.62524 0.07328 0.0
O145 O 0.111 0.60196 0.07101 0.0
O146 O 0.06575 0.6435 0.1563 0.0
O147 O 0.0999 0.63631 0.19767 0.0
C148 C 0.07508 0.64368 0.19751 0.0
C149 C 0.16915 0.64945 0.12471 0.0
O150 O 0.14252 0.618 0.22254 0.0
O151 O 0.12537 0.59752 0.1575 0.0
O152 O 0.16121 0.69537 0.22957 0.0
O153 O 0.13592 0.67017 0.27152 0.0
O154 O 0.17657 0.64661 0.1669 0.0
O155 O 0.14502 0.65956 0.12241 0.0
O156 O 0.09824 0.67887 0.10393 0.0
O157 O 0.10768 0.69456 0.17601 0.0
C158 C 0.13716 0.59568 0.19825 0.0
C159 C 0.09629 0.69814 0.13552 0.0
Dy160 Dy 0.91272 0.66652 0.53269 0.0
C161 C 0.84825 0.72549 0.65379 0.0
C162 C 0.94351 0.65259 0.45899 0.0
Dy163 Dy 0.88521 0.69826 0.60135 0.0
O164 O 0.94493 0.64034 0.4983 0.0
O165 O 0.92501 0.67173 0.45994 0.0
O166 O 0.89719 0.62711 0.56111 0.0
O167 O 0.90802 0.65885 0.60716 0.0
C168 C 0.89817 0.63458 0.60356 0.0
C169 C 0.89847 0.72741 0.52709 0.0
O170 O 0.92733 0.71083 0.62386 0.0
O171 O 0.94723 0.69371 0.55846 0.0
O172 O 0.84927 0.72527 0.60996 0.0
O173 O 0.86763 0.70989 0.67072 0.0
O174 O 0.90079 0.73701 0.56798 0.0
O175 O 0.88852 0.70356 0.52803 0.0
O176 O 0.87015 0.66191 0.5048 0.0
O177 O 0.84998 0.67283 0.57322 0.0
C178 C 0.94874 0.70864 0.59619 0.0
C179 C 0.84793 0.66406 0.53056 0.0
Dy180 Dy 0.13777 0.16225 0.78285 0.0
C181 C 0.08113 0.0956 0.90395 0.0
C182 C 0.15573 0.19582 0.71476 0.0
Dy183 Dy 0.1066 0.13336 0.85055 0.0
O184 O 0.15837 0.20083 0.75792 0.0
O185 O 0.14386 0.1722 0.70878 0.0
O186 O 0.17748 0.14689 0.81077 0.0
O187 O 0.14588 0.15603 0.85696 0.0
C188 C 0.17018 0.14649 0.85325 0.0
C189 C 0.07621 0.14723 0.77796 0.0
O190 O 0.09352 0.17553 0.87326 0.0
O191 O 0.10818 0.19521 0.80615 0.0
O192 O 0.08184 0.09582 0.86007 0.0
O193 O 0.09538 0.11615 0.92029 0.0
O194 O 0.06693 0.14778 0.81924 0.0
O195 O 0.10044 0.13822 0.77741 0.0
O196 O 0.13992 0.12047 0.75131 0.0
O197 O 0.1325 0.09916 0.81996 0.0
C198 C 0.09427 0.19676 0.84488 0.0
C199 C 0.13937 0.09787 0.7763 0.0
Dy200 Dy 0.64174 0.38474 0.03157 0.0
C201 C 0.69874 0.33567 0.17491 0.0
C202 C 0.60897 0.39258 0.9577 0.0
Dy203 Dy 0.66806 0.3563 0.10535 0.0
O204 O 0.62354 0.4119 0.97674 0.0
O205 O 0.61241 0.36953 0.97894 0.0
O206 O 0.65192 0.42595 0.05982 0.0
O207 O 0.64272 0.39395 0.10598 0.0
C208 C 0.65123 0.41864 0.10227 0.0
C209 C 0.6602 0.32416 0.03215 0.0
O210 O 0.62502 0.34758 0.12855 0.0
O211 O 0.60663 0.3595 0.05928 0.0
O212 O 0.67876 0.32315 0.15457 0.0
O213 O 0.7014 0.36042 0.15861 0.0
O214 O 0.65913 0.31524 0.07352 0.0
O215 O 0.66781 0.34883 0.03183 0.0
O216 O 0.68477 0.38691 0.0038 0.0
O217 O 0.70517 0.37669 0.07258 0.0
C218 C 0.60438 0.34714 0.09921 0.0
C219 C 0.70709 0.3853 0.02974 0.0
Dy220 Dy 0.41818 0.892 0.27942 0.0
C221 C 0.47048 0.94703 0.42148 0.0
C222 C 0.40478 0.86252 0.2039 0.0
Dy223 Dy 0.44868 0.91655 0.35275 0.0
O224 O 0.39232 0.86043 0.2429 0.0
O225 O 0.42391 0.88105 0.20604 0.0
O226 O 0.37841 0.90606 0.30901 0.0
O227 O 0.40976 0.89324 0.35399 0.0
C228 C 0.38569 0.90355 0.35137 0.0
C229 C 0.4795 0.90773 0.27852 0.0
O230 O 0.45546 0.87299 0.37426 0.0
O231 O 0.44584 0.85731 0.30229 0.0
O232 O 0.48305 0.92774 0.39946 0.0
O233 O 0.44515 0.94891 0.40751 0.0
O234 O 0.48874 0.90496 0.31951 0.0
O235 O 0.45529 0.91674 0.27931 0.0
O236 O 0.41252 0.93516 0.25501 0.0
O237 O 0.4302 0.95477 0.32038 0.0
C238 C 0.45693 0.85349 0.34297 0.0
C239 C 0.41809 0.95715 0.27996 0.0
Dy240 Dy 0.17007 0.35576 0.37728 0.0
C241 C 0.10717 0.40431 0.51326 0.0
C242 C 0.19463 0.33047 0.30572 0.0
Dy243 Dy 0.14073 0.38601 0.44604 0.0
O244 O 0.17721 0.31913 0.33335 0.0
O245 O 0.19777 0.35636 0.31583 0.0
O246 O 0.19284 0.3309 0.4296 0.0
O247 O 0.15213 0.34284 0.44227 0.0
C248 C 0.1729 0.33101 0.45884 0.0
C249 C 0.15566 0.4185 0.37484 0.0
O250 O 0.18292 0.38664 0.47659 0.0
O251 O 0.20388 0.38206 0.407 0.0
O252 O 0.10066 0.40327 0.47045 0.0
O253 O 0.13228 0.39591 0.51939 0.0
O254 O 0.15564 0.42582 0.41718 0.0
O255 O 0.14626 0.3942 0.37187 0.0
O256 O 0.12796 0.33954 0.35979 0.0
O257 O 0.10661 0.35801 0.42291 0.0
C258 C 0.2053 0.38764 0.4511 0.0
C259 C 0.10611 0.34193 0.38649 0.0
Dy260 Dy 0.94689 0.91849 0.12203 0.0
C261 C 0.902 0.8556 0.25957 0.0
C262 C 0.9664 0.95024 0.05261 0.0
Dy263 Dy 0.91708 0.8915 0.19289 0.0
O264 O 0.94267 0.95359 0.07219 0.0
O265 O 0.97854 0.92885 0.06945 0.0
O266 O 0.9882 0.91177 0.15417 0.0
O267 O 0.95383 0.91679 0.19595 0.0
C268 C 0.97893 0.91051 0.19536 0.0
C269 C 0.88438 0.90252 0.12078 0.0
O270 O 0.91438 0.93384 0.22289 0.0
O271 O 0.92657 0.95518 0.15586 0.0
O272 O 0.90152 0.88221 0.26368 0.0
O273 O 0.90972 0.84886 0.21893 0.0
O274 O 0.87678 0.90367 0.16295 0.0
O275 O 0.90891 0.89354 0.11812 0.0
O276 O 0.95708 0.87521 0.1018 0.0
O277 O 0.94954 0.86043 0.17472 0.0
C278 C 0.91709 0.95652 0.1982 0.0
C279 C 0.96039 0.85652 0.13404 0.0
Dy280 Dy 0.38501 0.69754 0.87104 0.0
C281 C 0.44297 0.65401 0.01761 0.0
C282 C 0.35374 0.71675 0.80087 0.0
Dy283 Dy 0.4116 0.66876 0.94494 0.0
O284 O 0.35016 0.69309 0.82067 0.0
O285 O 0.37514 0.72883 0.81783 0.0
O286 O 0.39321 0.73926 0.90077 0.0
O287 O 0.38701 0.70589 0.94413 0.0
C288 C 0.39424 0.7307 0.94238 0.0
C289 C 0.39897 0.63507 0.87507 0.0
O290 O 0.36895 0.66509 0.97299 0.0
O291 O 0.34775 0.67891 0.9064 0.0
O292 O 0.42169 0.67 0.01923 0.0
O293 O 0.44679 0.64526 0.97633 0.0
O294 O 0.39629 0.62881 0.9178 0.0
O295 O 0.40915 0.65908 0.87078 0.0
O296 O 0.42849 0.70589 0.84971 0.0
O297 O 0.44474 0.69803 0.92199 0.0
C298 C 0.34638 0.66904 0.94858 0.0
C299 C 0.44798 0.70864 0.88086 0.0
Dy300 Dy 0.60455 0.13525 0.62013 0.0
C301 C 0.64386 0.19638 0.76573 0.0
C302 C 0.58131 0.09632 0.56655 0.0
Dy303 Dy 0.63332 0.16413 0.69217 0.0
O304 O 0.58106 0.09709 0.61041 0.0
O305 O 0.59512 0.11721 0.55021 0.0
O306 O 0.56412 0.14954 0.6481 0.0
O307 O 0.59642 0.13956 0.69261 0.0
C308 C 0.57226 0.14875 0.69003 0.0
C309 C 0.66733 0.14971 0.62406 0.0
O310 O 0.63579 0.12187 0.72218 0.0
O311 O 0.63013 0.10137 0.65234 0.0
O312 O 0.66113 0.1922 0.73262 0.0
O313 O 0.62139 0.18271 0.75882 0.0
O314 O 0.67366 0.14886 0.66704 0.0
O315 O 0.64315 0.15931 0.61851 0.0
O316 O 0.59123 0.17706 0.59669 0.0
O317 O 0.60809 0.1984 0.66129 0.0
C318 C 0.63601 0.09954 0.69638 0.0
C319 C 0.59327 0.199 0.62336 0.0
C320 C 0.46782 0.25292 0.13886 0.0
C321 C 0.46964 0.2301 0.10953 0.0
C322 C 0.48922 0.27268 0.14109 0.0
C323 C 0.51313 0.26947 0.11372 0.0
C324 C 0.51534 0.24608 0.08509 0.0
C325 C 0.49366 0.22687 0.08328 0.0
C326 C 0.48578 0.29761 0.17131 0.0
C327 C 0.54035 0.24158 0.05534 0.0
C328 C 0.55704 0.33103 0.07752 0.0
C329 C 0.57958 0.32954 0.10752 0.0
C330 C 0.535 0.31224 0.0801 0.0
C331 C 0.53538 0.29103 0.11332 0.0
C332 C 0.55779 0.28963 0.14433 0.0
C333 C 0.57953 0.30894 0.14123 0.0
C334 C 0.51163 0.31472 0.0463 0.0
C335 C 0.55935 0.267 0.17955 0.0
H336 H 0.44921 0.25599 0.15865 0.0
H337 H 0.49534 0.20949 0.06025 0.0
H338 H 0.50357 0.29949 0.19485 0.0
H339 H 0.48538 0.31654 0.15007 0.0
H340 H 0.46653 0.29671 0.19175 0.0
H341 H 0.53957 0.22158 0.03696 0.0
H342 H 0.54194 0.25833 0.02974 0.0
H343 H 0.55937 0.2422 0.07632 0.0
H344 H 0.55687 0.34661 0.05103 0.0
H345 H 0.59701 0.30716 0.16405 0.0
H346 H 0.49159 0.3154 0.06448 0.0
H347 H 0.51127 0.29641 0.02369 0.0
H348 H 0.51349 0.33343 0.02465 0.0
H349 H 0.54037 0.26681 0.20064 0.0
H350 H 0.57746 0.26929 0.20239 0.0
H351 H 0.56063 0.2467 0.16225 0.0
C352 C 0.57791 0.74366 0.32505 0.0
C353 C 0.57472 0.71961 0.35122 0.0
C354 C 0.55858 0.7652 0.32676 0.0
C355 C 0.53504 0.76271 0.35502 0.0
C356 C 0.53179 0.73868 0.38212 0.0
C357 C 0.55174 0.7175 0.38016 0.0
C358 C 0.56318 0.79043 0.29751 0.0
C359 C 0.50667 0.73492 0.41183 0.0
C360 C 0.49518 0.82844 0.38413 0.0
C361 C 0.47478 0.82882 0.3501 0.0
C362 C 0.51463 0.80686 0.38663 0.0
C363 C 0.51348 0.78488 0.35482 0.0
C364 C 0.49247 0.78481 0.32126 0.0
C365 C 0.47361 0.80679 0.31913 0.0
C366 C 0.53714 0.80815 0.42211 0.0
C367 C 0.4902 0.7618 0.28679 0.0
H368 H 0.59543 0.74551 0.30232 0.0
H369 H 0.54872 0.69883 0.39983 0.0
H370 H 0.54657 0.79216 0.27169 0.0
H371 H 0.56239 0.8093 0.31882 0.0
H372 H 0.58329 0.78984 0.27942 0.0
H373 H 0.50738 0.71543 0.43166 0.0
H374 H 0.5047 0.75241 0.43593 0.0
H375 H 0.48785 0.73485 0.3903 0.0
H376 H 0.49669 0.84558 0.40768 0.0
H377 H 0.45814 0.80693 0.29246 0.0
H378 H 0.55752 0.80952 0.40505 0.0
H379 H 0.53721 0.78905 0.44288 0.0
H380 H 0.5348 0.82611 0.44524 0.0
H381 H 0.5086 0.76174 0.26436 0.0
H382 H 0.47156 0.76381 0.26502 0.0
H383 H 0.48952 0.74158 0.30443 0.0
C384 C 0.0602 0.82849 0.57265 0.0
C385 C 0.08334 0.82606 0.60119 0.0
C386 C 0.03844 0.80936 0.57432 0.0
C387 C 0.03975 0.78688 0.60508 0.0
C388 C 0.06285 0.78441 0.63445 0.0
C389 C 0.08429 0.80406 0.63233 0.0
C390 C 1.01423 0.81303 0.54248 0.0
C391 C 0.06532 0.76047 0.66708 0.0
C392 C 0.97282 0.74887 0.6337 0.0
C393 C 0.9733 0.72683 0.60262 0.0
C394 C 0.99443 0.76833 0.63532 0.0
C395 C 1.01727 0.76563 0.6055 0.0
C396 C 1.01816 0.74309 0.57484 0.0
C397 C 0.99621 0.72414 0.57366 0.0
C398 C 0.99237 0.79237 0.6678 0.0
C399 C 0.04207 0.73923 0.54249 0.0
H400 H 0.05924 0.8452 0.54817 0.0
H401 H 0.10222 0.80161 0.654 0.0
H402 H 1.01296 0.79535 0.51862 0.0
H403 H 0.99472 0.81345 0.56221 0.0
H404 H 1.01574 0.83229 0.52212 0.0
H405 H 0.08425 0.76168 0.68827 0.0
H406 H 0.04714 0.75976 0.68998 0.0
H407 H 0.06562 0.74083 0.64769 0.0
H408 H 0.95508 0.75154 0.65572 0.0
H409 H 0.99679 0.70743 0.54918 0.0
H410 H 0.99185 0.81195 0.64824 0.0
H411 H 1.0108 0.79313 0.69014 0.0
H412 H 0.97367 0.79125 0.68958 0.0
H413 H 0.04309 0.75676 0.51828 0.0
H414 H 0.04036 0.71984 0.52253 0.0
H415 H 0.06175 0.73893 0.56174 0.0
C416 C 0.97473 0.30939 0.82874 0.0
C417 C 0.97837 0.3328 0.85637 0.0
C418 C 0.99348 0.28728 0.82958 0.0
C419 C 1.01677 0.28839 0.85867 0.0
C420 C 1.02042 0.31171 0.88724 0.0
C421 C 1.00119 0.33356 0.88587 0.0
C422 C 0.9886 0.26296 0.79845 0.0
C423 C 0.04522 0.31398 0.9181 0.0
C424 C 0.05485 0.22099 0.88485 0.0
C425 C 0.07602 0.22122 0.85215 0.0
C426 C 0.03568 0.24284 0.88782 0.0
C427 C 0.03777 0.26564 0.85769 0.0
C428 C 0.05944 0.26621 0.82532 0.0
C429 C 0.07811 0.24408 0.82287 0.0
C430 C 1.0126 0.24113 0.9222 0.0
C431 C 0.06267 0.29002 0.79253 0.0
H432 H 0.95743 0.30853 0.80541 0.0
H433 H 1.00458 0.35164 0.9068 0.0
H434 H 1.00564 0.26127 0.77341 0.0
H435 H 0.98834 0.24358 0.81853 0.0
H436 H 0.96887 0.26468 0.77939 0.0
H437 H 0.04475 0.33296 0.93926 0.0
H438 H 0.04636 0.29583 0.941 0.0
H439 H 0.06432 0.31411 0.8973 0.0
H440 H 0.05269 0.20334 0.90722 0.0
H441 H 0.09419 0.24453 0.79725 0.0
H442 H 0.99246 0.24078 0.90423 0.0
H443 H 1.01271 0.25963 0.94439 0.0
H444 H 1.01414 0.22248 0.94403 0.0
H445 H 0.04444 0.29128 0.76982 0.0
H446 H 0.08139 0.28802 0.77098 0.0
H447 H 0.06385 0.30973 0.8116 0.0
C448 C 0.58226 0.80505 0.83757 0.0
C449 C 0.58141 0.827 0.86873 0.0
C450 C 0.56097 0.78516 0.83616 0.0
C451 C 0.53805 0.78752 0.86601 0.0
C452 C 0.53681 0.81011 0.89654 0.0
C453 C 0.55851 0.8293 0.89776 0.0
C454 C 0.56353 0.76097 0.80412 0.0
C455 C 0.51277 0.81382 0.92869 0.0
C456 C 0.47139 0.74814 0.84025 0.0
C457 C 0.47225 0.72688 0.87275 0.0
C458 C 0.49278 0.76781 0.83723 0.0
C459 C 0.51588 0.76592 0.86677 0.0
C460 C 0.51717 0.744 0.89866 0.0
C461 C 0.4953 0.72504 0.90154 0.0
C462 C 0.49015 0.7913 0.80376 0.0
C463 C 0.54143 0.7408 0.93051 0.0
H464 H 0.60012 0.80269 0.81574 0.0
H465 H 0.55772 0.84602 0.92223 0.0
H466 H 0.56442 0.74154 0.82406 0.0
H467 H 0.54513 0.75966 0.78177 0.0
H468 H 0.58221 0.76232 0.78236 0.0
H469 H 0.51414 0.83336 0.94832 0.0
H470 H 0.49313 0.81368 0.90932 0.0
H471 H 0.51196 0.79646 0.95325 0.0
H472 H 0.45344 0.75014 0.81849 0.0
H473 H 0.4961 0.70886 0.92701 0.0
H474 H 0.50838 0.79198 0.78099 0.0
H475 H 0.48953 0.81117 0.82251 0.0
H476 H 0.47129 0.78961 0.78247 0.0
H477 H 0.56097 0.74081 0.91085 0.0
H478 H 0.54028 0.72149 0.95079 0.0
H479 H 0.54229 0.75844 0.95447 0.0
C480 C 0.49777 0.3344 0.58528 0.0
C481 C 0.47566 0.33327 0.6162 0.0
C482 C 0.51726 0.31283 0.58268 0.0
C483 C 0.51463 0.28948 0.61148 0.0
C484 C 0.492 0.28795 0.64189 0.0
C485 C 0.47293 0.30975 0.64387 0.0
C486 C 0.54132 0.31549 0.55035 0.0
C487 C 0.48826 0.26358 0.67339 0.0
C488 C 0.55331 0.22269 0.58412 0.0
C489 C 0.57515 0.22348 0.61559 0.0
C490 C 0.53377 0.24422 0.58178 0.0
C491 C 0.5361 0.2672 0.61142 0.0
C492 C 0.55845 0.26838 0.64244 0.0
C493 C 0.57756 0.24661 0.64416 0.0
C494 C 0.51001 0.24191 0.54878 0.0
C495 C 0.56188 0.29235 0.6748 0.0
H496 H 0.50046 0.35257 0.56426 0.0
H497 H 0.4562 0.30861 0.66826 0.0
H498 H 0.56085 0.3162 0.57002 0.0
H499 H 0.54241 0.29722 0.5277 0.0
H500 H 0.53995 0.33432 0.52891 0.0
H501 H 0.46885 0.26486 0.69337 0.0
H502 H 0.48813 0.24414 0.65348 0.0
H503 H 0.50578 0.26237 0.69761 0.0
H504 H 0.55085 0.20479 0.56241 0.0
H505 H 0.59409 0.24747 0.66896 0.0
H506 H 0.50911 0.26044 0.52667 0.0
H507 H 0.49031 0.24096 0.56793 0.0
H508 H 0.5116 0.22334 0.52681 0.0
H509 H 0.56215 0.31203 0.65553 0.0
H510 H 0.58113 0.29085 0.69519 0.0
H511 H 0.54416 0.29322 0.69864 0.0
C512 C 0.96884 0.24994 0.34373 0.0
C513 C 0.96924 0.2275 0.374 0.0
C514 C 0.99077 0.26909 0.34246 0.0
C515 C 1.01369 0.26573 0.37202 0.0
C516 C 1.0144 0.24283 0.40192 0.0
C517 C 0.9923 0.22413 0.40251 0.0
C518 C 0.98904 0.29346 0.3106 0.0
C519 C 0.03828 0.23831 0.43414 0.0
C520 C 0.08191 0.30234 0.34732 0.0
C521 C 0.08153 0.32393 0.37923 0.0
C522 C 0.05978 0.28357 0.34398 0.0
C523 C 0.03657 0.2865 0.37295 0.0
C524 C 0.03584 0.30858 0.40453 0.0
C525 C 0.05827 0.32687 0.40735 0.0
C526 C 0.06161 0.26003 0.31049 0.0
C527 C 1.01161 0.31261 0.43617 0.0
H528 H 0.95101 0.25309 0.32209 0.0
H529 H 0.9929 0.20707 0.42635 0.0
H530 H 0.98876 0.31285 0.33065 0.0
H531 H 1.00751 0.29421 0.28835 0.0
H532 H 0.97035 0.29278 0.28875 0.0
H533 H 0.03609 0.21901 0.45423 0.0
H534 H 0.05788 0.23741 0.41473 0.0
H535 H 0.03991 0.25583 0.45826 0.0
H536 H 0.09986 0.29958 0.3258 0.0
H537 H 0.05771 0.34329 0.43237 0.0
H538 H 0.04339 0.26006 0.28764 0.0
H539 H 0.06148 0.24013 0.32918 0.0
H540 H 0.08055 0.26105 0.28928 0.0
H541 H 0.99221 0.31381 0.41624 0.0
H542 H 1.0136 0.3316 0.4571 0.0
H543 H 1.00975 0.29472 0.45951 0.0
C544 C 0.05631 0.72191 0.0971 0.0
C545 C 0.07809 0.72253 0.12865 0.0
C546 C 0.0368 0.74345 0.09507 0.0
C547 C 0.03942 0.76646 0.12458 0.0
C548 C 0.06182 0.76749 0.15555 0.0
C549 C 0.0806 0.74544 0.15753 0.0
C550 C 1.01273 0.74108 0.06266 0.0
C551 C 0.0658 0.79169 0.18724 0.0
C552 C 1.00067 0.83299 0.09583 0.0
C553 C 0.97909 0.83248 0.12771 0.0
C554 C 1.02039 0.81161 0.09423 0.0
C555 C 1.01817 0.78891 0.12454 0.0
C556 C 0.99598 0.78804 0.15592 0.0
C557 C 0.97701 0.80989 0.15742 0.0
C558 C 0.0442 0.81378 0.06129 0.0
C559 C 0.99237 0.76416 0.18845 0.0
H560 H 0.0538 0.70405 0.07531 0.0
H561 H 0.09719 0.74604 0.18227 0.0
H562 H 0.99316 0.74087 0.08224 0.0
H563 H 1.01202 0.75922 0.0397 0.0
H564 H 1.01376 0.72212 0.04151 0.0
H565 H 0.08535 0.79026 0.20685 0.0
H566 H 0.06585 0.81121 0.16752 0.0
H567 H 0.04847 0.79282 0.2118 0.0
H568 H 1.0028 0.85062 0.07338 0.0
H569 H 0.96053 0.80937 0.18237 0.0
H570 H 0.04475 0.79546 0.03872 0.0
H571 H 0.06393 0.81414 0.08046 0.0
H572 H 0.04297 0.83257 0.03975 0.0
H573 H 0.99204 0.74445 0.16928 0.0
H574 H 0.97307 0.7658 0.20867 0.0
H575 H 1.00999 0.76323 0.21245 0.0
C576 C 0.20743 0.17427 0.88883 0.0
C577 C 0.19183 0.14996 0.88843 0.0
C578 C 0.23182 0.17636 0.91457 0.0
C579 C 0.24099 0.15351 0.94062 0.0
C580 C 0.22467 0.12921 0.94169 0.0
C581 C 0.20032 0.12768 0.91539 0.0
C582 C 0.24848 0.20261 0.91199 0.0
C583 C 0.23376 0.10433 0.96867 0.0
C584 C 0.31855 0.1493 0.96305 0.0
C585 C 0.32057 0.15858 0.00826 0.0
C586 C 0.29281 0.14702 0.94107 0.0
C587 C 0.26836 0.15455 0.9645 0.0
C588 C 0.27027 0.16378 0.01021 0.0
C589 C 0.29622 0.16553 0.03153 0.0
C590 C 0.29182 0.13689 0.89244 0.0
C591 C 0.24494 0.17247 0.03637 0.0
H592 H 0.20114 0.1913 0.86726 0.0
H593 H 0.1886 0.10866 0.91436 0.0
H594 H 0.2534 0.21014 0.94675 0.0
H595 H 0.26833 0.1985 0.89448 0.0
H596 H 0.23751 0.21916 0.89313 0.0
H597 H 0.21787 0.08784 0.96902 0.0
H598 H 0.25296 0.09586 0.95365 0.0
H599 H 0.23852 0.11025 0.00433 0.0
H600 H 0.33716 0.14412 0.9445 0.0
H601 H 0.29745 0.17314 0.06619 0.0
H602 H 0.28346 0.15327 0.86995 0.0
H603 H 0.27777 0.11891 0.88979 0.0
H604 H 0.31246 0.1308 0.87955 0.0
H605 H 0.2348 0.18998 0.01874 0.0
H606 H 0.24983 0.17881 0.07185 0.0
H607 H 0.22986 0.15528 0.03754 0.0
C608 C 0.67423 0.45241 0.15349 0.0
C609 C 0.64986 0.43993 0.1383 0.0
C610 C 0.67363 0.47703 0.17895 0.0
C611 C 0.64802 0.48985 0.18858 0.0
C612 C 0.62328 0.47676 0.17447 0.0
C613 C 0.6245 0.45191 0.14964 0.0
C614 C 0.70049 0.49012 0.19335 0.0
C615 C 0.59556 0.48988 0.18312 0.0
C616 C 0.6443 0.54647 0.27898 0.0
C617 C 0.64529 0.5706 0.25252 0.0
C618 C 0.64532 0.52017 0.25879 0.0
C619 C 0.64726 0.51771 0.21079 0.0
C620 C 0.6485 0.54198 0.18385 0.0
C621 C 0.64755 0.56806 0.20497 0.0
C622 C 0.64401 0.495 0.28893 0.0
C623 C 0.65039 0.54041 0.13254 0.0
H624 H 0.69387 0.44351 0.14376 0.0
H625 H 0.60569 0.4427 0.13675 0.0
H626 H 0.70372 0.50949 0.17394 0.0
H627 H 0.69984 0.49563 0.23003 0.0
H628 H 0.7184 0.47635 0.18731 0.0
H629 H 0.57822 0.47622 0.17302 0.0
H630 H 0.59332 0.49519 0.2197 0.0
H631 H 0.59398 0.50937 0.16349 0.0
H632 H 0.64229 0.54808 0.31567 0.0
H633 H 0.64794 0.58646 0.18402 0.0
H634 H 0.66239 0.48187 0.2831 0.0
H635 H 0.62559 0.48252 0.28015 0.0
H636 H 0.643 0.50039 0.32569 0.0
H637 H 0.66906 0.5287 0.12245 0.0
H638 H 0.65125 0.56111 0.11641 0.0
H639 H 0.6323 0.52915 0.11876 0.0
C640 C 0.35141 0.87568 0.39498 0.0
C641 C 0.3642 0.90114 0.38708 0.0
C642 C 0.32682 0.87385 0.42043 0.0
C643 C 0.3148 0.89807 0.43887 0.0
C644 C 0.32841 0.92368 0.43265 0.0
C645 C 0.35274 0.92495 0.40638 0.0
C646 C 0.31284 0.8462 0.42523 0.0
C647 C 0.31646 0.94998 0.45172 0.0
C648 C 0.23673 0.89885 0.4572 0.0
C649 C 0.23441 0.89414 0.50431 0.0
C650 C 0.26266 0.90028 0.43569 0.0
C651 C 0.28708 0.89692 0.46172 0.0
C652 C 0.28487 0.89238 0.50932 0.0
C653 C 0.25866 0.89102 0.52995 0.0
C654 C 0.26391 0.90506 0.38486 0.0
C655 C 0.3102 0.88866 0.5385 0.0
H656 H 0.35985 0.85737 0.37905 0.0
H657 H 0.36227 0.94474 0.39949 0.0
H658 H 0.30789 0.84205 0.46149 0.0
H659 H 0.29308 0.84638 0.40616 0.0
H660 H 0.32576 0.82909 0.41196 0.0
H661 H 0.33078 0.9677 0.44797 0.0
H662 H 0.29697 0.95494 0.4337 0.0
H663 H 0.31139 0.94738 0.48835 0.0
H664 H 0.21822 0.90098 0.43681 0.0
H665 H 0.25721 0.88707 0.56623 0.0
H666 H 0.27451 0.88755 0.36803 0.0
H667 H 0.27608 0.9239 0.37744 0.0
H668 H 0.24311 0.90742 0.36947 0.0
H669 H 0.32201 0.87043 0.5267 0.0
H670 H 0.30505 0.88582 0.5751 0.0
H671 H 0.32389 0.90688 0.53508 0.0
C672 C 0.92234 0.60809 0.66562 0.0
C673 C 0.89858 0.61308 0.63962 0.0
C674 C 0.92511 0.5836 0.69137 0.0
C675 C 0.90333 0.56401 0.69205 0.0
C676 C 0.87871 0.56991 0.66794 0.0
C677 C 0.87685 0.59407 0.64153 0.0
C678 C 0.95209 0.57776 0.71511 0.0
C679 C 0.85476 0.55002 0.66808 0.0
C680 C 0.91804 0.48734 0.70979 0.0
C681 C 0.91184 0.48363 0.75616 0.0
C682 C 0.91604 0.51343 0.68897 0.0
C683 C 0.90695 0.53644 0.71473 0.0
C684 C 0.90056 0.53274 0.76154 0.0
C685 C 0.90346 0.50653 0.78177 0.0
C686 C 0.92387 0.51637 0.63937 0.0
C687 C 0.89027 0.5564 0.79018 0.0
H688 H 0.93947 0.62237 0.66334 0.0
H689 H 0.85862 0.59769 0.62096 0.0
H690 H 0.94848 0.57178 0.7511 0.0
H691 H 0.96245 0.56011 0.69822 0.0
H692 H 0.96622 0.59577 0.71433 0.0
H693 H 0.83596 0.55914 0.65258 0.0
H694 H 0.86031 0.53127 0.64852 0.0
H695 H 0.84992 0.54346 0.70342 0.0
H696 H 0.92507 0.4699 0.68983 0.0
H697 H 0.89883 0.50388 0.81765 0.0
H698 H 0.93962 0.53279 0.63538 0.0
H699 H 0.90561 0.52262 0.61912 0.0
H700 H 0.93217 0.49692 0.62487 0.0
H701 H 0.90583 0.57314 0.7909 0.0
H702 H 0.88576 0.55005 0.82581 0.0
H703 H 0.87121 0.56503 0.77487 0.0
C704 C 0.7576 0.8918 0.94182 0.0
C705 C 0.73389 0.88729 0.96812 0.0
C706 C 0.78375 0.89442 0.96223 0.0
C707 C 0.78647 0.89186 0.01016 0.0
C708 C 0.7626 0.8868 0.03684 0.0
C709 C 0.73664 0.88485 0.0156 0.0
C710 C 0.8084 0.9003 0.93245 0.0
C711 C 0.7645 0.88331 0.08791 0.0
C712 C 0.85623 0.87537 0.06486 0.0
C713 C 0.86319 0.90077 0.0845 0.0
C714 C 0.83169 0.87226 0.03945 0.0
C715 C 0.81404 0.89525 0.03276 0.0
C716 C 0.8219 0.92125 0.05053 0.0
C717 C 0.84609 0.92356 0.07675 0.0
C718 C 0.82371 0.844 0.02249 0.0
C719 C 0.80403 0.94641 0.04387 0.0
H720 H 0.75569 0.89362 0.90513 0.0
H721 H 0.71851 0.88093 0.03623 0.0
H722 H 0.8182 0.91993 0.94317 0.0
H723 H 0.82399 0.88377 0.93648 0.0
H724 H 0.8028 0.90186 0.89581 0.0
H725 H 0.74428 0.87811 0.10351 0.0
H726 H 0.77942 0.86675 0.09636 0.0
H727 H 0.77222 0.90259 0.10371 0.0
H728 H 0.869 0.85753 0.07191 0.0
H729 H 0.85118 0.94309 0.09265 0.0
H730 H 0.81832 0.84477 0.98578 0.0
H731 H 0.80511 0.8368 0.04105 0.0
H732 H 0.84043 0.82866 0.02748 0.0
H733 H 0.79816 0.94858 0.00748 0.0
H734 H 0.81453 0.96561 0.05505 0.0
H735 H 0.78473 0.94411 0.06376 0.0
C736 C 0.37792 0.59376 0.83912 0.0
C737 C 0.39953 0.61293 0.84012 0.0
C738 C 0.37963 0.56955 0.8129 0.0
C739 C 0.40402 0.56374 0.78813 0.0
C740 C 0.42572 0.58342 0.78805 0.0
C741 C 0.42305 0.608 0.81353 0.0
C742 C 0.35574 0.54959 0.81343 0.0
C743 C 0.45246 0.57764 0.76358 0.0
C744 C 0.41857 0.48714 0.76961 0.0
C745 C 0.4119 0.48358 0.7234 0.0
C746 C 0.41677 0.51317 0.79063 0.0
C747 C 0.40743 0.53624 0.76524 0.0
C748 C 0.40053 0.53269 0.71862 0.0
C749 C 0.40323 0.50654 0.69817 0.0
C750 C 0.42508 0.516 0.84003 0.0
C751 C 0.3899 0.5564 0.6904 0.0
H752 H 0.35983 0.5974 0.85999 0.0
H753 H 0.44007 0.62247 0.81501 0.0
H754 H 0.35049 0.54311 0.77821 0.0
H755 H 0.36157 0.5308 0.83269 0.0
H756 H 0.3371 0.55861 0.82958 0.0
H757 H 0.46667 0.5956 0.76429 0.0
H758 H 0.46291 0.55984 0.77991 0.0
H759 H 0.4485 0.57191 0.72759 0.0
H760 H 0.42582 0.46964 0.78925 0.0
H761 H 0.39821 0.50401 0.66241 0.0
H762 H 0.40706 0.52234 0.86077 0.0
H763 H 0.44097 0.53232 0.84364 0.0
H764 H 0.43339 0.49648 0.85429 0.0
H765 H 0.37104 0.56501 0.70635 0.0
H766 H 0.38496 0.55013 0.6549 0.0
H767 H 0.40545 0.57314 0.68924 0.0
C768 C 0.70906 0.12827 0.59045 0.0
C769 C 0.68948 0.14947 0.58925 0.0
C770 C 0.73337 0.12967 0.56447 0.0
C771 C 0.7388 0.15337 0.53766 0.0
C772 C 0.71867 0.17457 0.5353 0.0
C773 C 0.69401 0.17217 0.56062 0.0
C774 C 0.75385 0.10631 0.56747 0.0
C775 C 0.72404 0.20064 0.50863 0.0
C776 C 0.81512 0.16913 0.51962 0.0
C777 C 0.81915 0.16129 0.47404 0.0
C778 C 0.78899 0.16734 0.54022 0.0
C779 C 0.76635 0.15673 0.51512 0.0
C780 C 0.77041 0.14861 0.46916 0.0
C781 C 0.79662 0.15141 0.44901 0.0
C782 C 0.78557 0.17706 0.58881 0.0
C783 C 0.74717 0.13657 0.4414 0.0
H784 H 0.70569 0.11083 0.61292 0.0
H785 H 0.67919 0.18889 0.5604 0.0
H786 H 0.76079 0.10017 0.5329 0.0
H787 H 0.77231 0.11314 0.5867 0.0
H788 H 0.74508 0.08797 0.58494 0.0
H789 H 0.70573 0.21438 0.50765 0.0
H790 H 0.74142 0.21204 0.52446 0.0
H791 H 0.73022 0.19571 0.47318 0.0
H792 H 0.83231 0.17731 0.539 0.0
H793 H 0.79957 0.14549 0.41373 0.0
H794 H 0.7796 0.15952 0.61095 0.0
H795 H 0.76878 0.19255 0.5908 0.0
H796 H 0.80475 0.18637 0.60267 0.0
H797 H 0.73885 0.11802 0.45878 0.0
H798 H 0.75385 0.1307 0.40651 0.0
H799 H 0.7301 0.15166 0.43856 0.0
C800 C 0.12735 0.45573 0.34056 0.0
C801 C 0.15148 0.4399 0.33953 0.0
C802 C 0.12475 0.47981 0.31421 0.0
C803 C 0.14692 0.4884 0.28612 0.0
C804 C 0.17096 0.47181 0.28355 0.0
C805 C 0.173 0.44775 0.31043 0.0
C806 C 0.09883 0.49684 0.31844 0.0
C807 C 0.19514 0.48036 0.25442 0.0
C808 C 0.13316 0.54398 0.19652 0.0
C809 C 0.14144 0.56804 0.2193 0.0
C810 C 0.13511 0.51793 0.21748 0.0
C811 C 0.14571 0.51575 0.26236 0.0
C812 C 0.15449 0.53993 0.28528 0.0
C813 C 0.1522 0.5657 0.26359 0.0
C814 C 0.12532 0.49282 0.19184 0.0
C815 C 0.16601 0.53865 0.33307 0.0
H816 H 0.1109 0.44988 0.36366 0.0
H817 H 0.19188 0.43579 0.31026 0.0
H818 H 0.10368 0.51668 0.33545 0.0
H819 H 0.09047 0.50176 0.28419 0.0
H820 H 0.08262 0.48617 0.33856 0.0
H821 H 0.21123 0.46411 0.25268 0.0
H822 H 0.18822 0.48529 0.21931 0.0
H823 H 0.20453 0.49935 0.2687 0.0
H824 H 0.12463 0.5455 0.16247 0.0
H825 H 0.15852 0.58409 0.28175 0.0
H826 H 0.10801 0.48303 0.21052 0.0
H827 H 0.14215 0.47741 0.18962 0.0
H828 H 0.1183 0.49789 0.15677 0.0
H829 H 0.15021 0.53038 0.35674 0.0
H830 H 0.17271 0.55917 0.34568 0.0
H831 H 0.18389 0.52441 0.33418 0.0
C832 C 0.71339 0.68463 0.38262 0.0
C833 C 0.69376 0.6634 0.383 0.0
C834 C 0.73697 0.68374 0.41028 0.0
C835 C 0.74151 0.66076 0.43907 0.0
C836 C 0.72133 0.63953 0.4409 0.0
C837 C 0.69749 0.64118 0.41306 0.0
C838 C 0.75759 0.70701 0.40717 0.0
C839 C 0.7257 0.61446 0.47045 0.0
C840 C 0.81763 0.64878 0.46571 0.0
C841 C 0.8202 0.66005 0.50959 0.0
C842 C 0.79194 0.64768 0.44339 0.0
C843 C 0.76814 0.65856 0.46496 0.0
C844 C 0.77054 0.6695 0.5096 0.0
C845 C 0.79642 0.66992 0.53143 0.0
C846 C 0.79045 0.6356 0.39603 0.0
C847 C 0.74601 0.68193 0.5336 0.0
H848 H 0.71065 0.70186 0.35953 0.0
H849 H 0.68263 0.62449 0.41311 0.0
H850 H 0.76254 0.71493 0.44168 0.0
H851 H 0.77707 0.69937 0.39194 0.0
H852 H 0.74993 0.72439 0.38598 0.0
H853 H 0.70741 0.60068 0.47081 0.0
H854 H 0.74368 0.60264 0.45763 0.0
H855 H 0.73051 0.62069 0.50594 0.0
H856 H 0.83583 0.64125 0.44831 0.0
H857 H 0.79816 0.67905 0.56502 0.0
H858 H 0.78539 0.65202 0.37107 0.0
H859 H 0.77379 0.61997 0.39422 0.0
H860 H 0.81016 0.62582 0.38559 0.0
H861 H 0.73892 0.70042 0.51468 0.0
H862 H 0.75087 0.68808 0.56918 0.0
H863 H 0.72864 0.66706 0.5342 0.0
C864 C 0.15268 0.04785 0.77876 0.0
C865 C 0.14328 0.07066 0.75396 0.0
C866 C 0.15587 1.02189 0.75789 0.0
C867 C 0.14849 1.01833 0.71145 0.0
C868 C 0.13827 0.04125 0.6866 0.0
C869 C 0.13623 0.06716 0.7079 0.0
C870 C 0.16758 0.99839 0.78542 0.0
C871 C 0.1292 0.03837 0.63757 0.0
C872 C 0.17785 0.96186 0.63528 0.0
C873 C 0.15666 0.94224 0.63515 0.0
C874 C 0.17614 0.98587 0.662 0.0
C875 C 0.15214 0.991 0.68819 0.0
C876 C 0.1309 0.97084 0.68916 0.0
C877 C 0.1336 0.94647 0.66313 0.0
C878 C 0.19955 1.00636 0.66044 0.0
C879 C 0.1045 0.97591 0.71504 0.0
H880 H 0.158 0.05044 0.81439 0.0
H881 H 0.12839 0.08458 0.68871 0.0
H882 H 0.15244 0.98131 0.78734 0.0
H883 H 0.18631 0.99023 0.76843 0.0
H884 H 0.17306 1.00474 0.82066 0.0
H885 H 0.11996 0.05766 0.62401 0.0
H886 H 0.14705 0.03278 0.61588 0.0
H887 H 0.11383 1.02153 0.63445 0.0
H888 H 0.19555 0.95876 0.61329 0.0
H889 H 0.11686 0.93166 0.66231 0.0
H890 H 0.2052 1.013 0.69541 0.0
H891 H 0.19302 1.02499 0.64137 0.0
H892 H 0.21813 0.99775 0.64351 0.0
H893 H 0.10897 0.9817 0.75083 0.0
H894 H 0.09075 0.95759 0.715 0.0
H895 H 0.09329 0.99345 0.69932 0.0
C896 C 0.73734 0.39772 0.96321 0.0
C897 C 0.73481 0.38939 0.00886 0.0
C898 C 0.76333 0.40003 0.94222 0.0
C899 C 0.78752 0.39367 0.96726 0.0
C900 C 0.7851 0.38542 0.01342 0.0
C901 C 0.75885 0.38346 0.03364 0.0
C902 C 0.76486 0.40905 0.893 0.0
C903 C 0.81022 0.3782 0.04131 0.0
C904 C 0.84974 0.37471 0.89438 0.0
C905 C 0.86419 0.39969 0.89246 0.0
C906 C 0.82543 0.37211 0.92015 0.0
C907 C 0.81519 0.39513 0.94459 0.0
C908 C 0.83045 0.42009 0.9444 0.0
C909 C 0.85474 0.42212 0.91813 0.0
C910 C 0.80983 0.34519 0.91889 0.0
C911 C 0.82017 0.44517 0.96962 0.0
H912 H 0.71896 0.40221 0.94357 0.0
H913 H 0.75719 0.37678 0.06879 0.0
H914 H 0.77817 0.42756 0.8899 0.0
H915 H 0.77437 0.39256 0.87208 0.0
H916 H 0.74425 0.41393 0.87861 0.0
H917 H 0.8049 0.37257 0.07695 0.0
H918 H 0.8212 0.36061 0.02537 0.0
H919 H 0.82471 0.39588 0.04198 0.0
H920 H 0.85673 0.35756 0.8737 0.0
H921 H 0.86554 0.44164 0.9158 0.0
H922 H 0.79017 0.34804 0.90014 0.0
H923 H 0.80456 0.33842 0.95395 0.0
H924 H 0.82175 0.32858 0.90186 0.0
H925 H 0.80106 0.45283 0.95314 0.0
H926 H 0.8356 0.4621 0.96991 0.0
H927 H 0.81488 0.43979 0.00531 0.0
C928 C 0.40139 0.98806 0.21701 0.0
C929 C 0.41392 0.98503 0.25987 0.0
C930 C 0.39966 1.01397 0.19563 0.0
C931 C 0.41099 0.03752 0.21727 0.0
C932 C 0.4231 0.03468 0.26099 0.0
C933 C 0.4243 1.00857 0.28179 0.0
C934 C 0.38647 1.01595 0.14911 0.0
C935 C 0.4359 0.05902 0.28503 0.0
C936 C 0.43538 0.0929 0.13516 0.0
C937 C 0.414 0.11233 0.13675 0.0
C938 C 0.43506 0.06914 0.16231 0.0
C939 C 0.41263 0.06433 0.19205 0.0
C940 C 0.39135 0.08436 0.19536 0.0
C941 C 0.39233 0.10832 0.16778 0.0
C942 C 0.45829 0.0486 0.1575 0.0
C943 C 0.36692 0.07968 0.22624 0.0
H944 H 0.39338 0.97007 0.19959 0.0
H945 H 0.43423 1.0065 0.31472 0.0
H946 H 0.37066 0.03247 0.14887 0.0
H947 H 0.40226 1.0215 0.12335 0.0
H948 H 0.37661 0.99628 0.13858 0.0
H949 H 0.44277 0.05381 0.32012 0.0
H950 H 0.454 0.0664 0.26535 0.0
H951 H 0.42099 0.07629 0.28691 0.0
H952 H 0.45222 0.0959 0.11137 0.0
H953 H 0.37556 0.12307 0.16883 0.0
H954 H 0.45033 0.0292 0.14243 0.0
H955 H 0.46697 0.04347 0.19144 0.0
H956 H 0.47518 0.05641 0.13541 0.0
H957 H 0.35476 0.06188 0.21355 0.0
H958 H 0.35322 0.09799 0.22799 0.0
H959 H 0.37391 0.07442 0.26118 0.0
C960 C 0.23631 0.38471 0.51917 0.0
C961 C 0.2326 0.39155 0.47309 0.0
C962 C 0.26236 0.38664 0.54 0.0
C963 C 0.28524 0.39637 0.51454 0.0
C964 C 0.2815 0.40353 0.46807 0.0
C965 C 0.25535 0.40063 0.44777 0.0
C966 C 0.26544 0.37797 0.5892 0.0
C967 C 0.30503 0.4146 0.43987 0.0
C968 C 0.34251 0.42559 0.58901 0.0
C969 C 0.36167 0.40402 0.58967 0.0
C970 C 0.31839 0.42402 0.56256 0.0
C971 C 0.31274 0.39982 0.53722 0.0
C972 C 0.33248 0.37821 0.5367 0.0
C973 C 0.35695 0.38073 0.56249 0.0
C974 C 0.2983 0.44777 0.56366 0.0
C975 C 0.32683 0.35165 0.51159 0.0
H976 H 0.21894 0.37713 0.53879 0.0
H977 H 0.25261 0.40581 0.41211 0.0
H978 H 0.2819 0.3622 0.59233 0.0
H979 H 0.2717 0.39588 0.61027 0.0
H980 H 0.24603 0.36937 0.60345 0.0
H981 H 0.29858 0.41975 0.40453 0.0
H982 H 0.31354 0.43341 0.45614 0.0
H983 H 0.32189 0.39921 0.43824 0.0
H984 H 0.34601 0.44345 0.61047 0.0
H985 H 0.37143 0.36373 0.56382 0.0
H986 H 0.27961 0.4417 0.58298 0.0
H987 H 0.29167 0.45322 0.52859 0.0
H988 H 0.30728 0.46636 0.58008 0.0
H989 H 0.30922 0.34085 0.52787 0.0
H990 H 0.34493 0.33763 0.51171 0.0
H991 H 0.32088 0.35589 0.47577 0.0
C992 C 0.92734 0.09878 0.33461 0.0
C993 C 0.90211 0.11267 0.33775 0.0
C994 C 0.92994 0.07451 0.30875 0.0
C995 C 0.90668 0.06381 0.28545 0.0
C996 C 0.88142 0.07852 0.28692 0.0
C997 C 0.87939 0.10273 0.3133 0.0
C998 C 0.95718 0.05947 0.30865 0.0
C999 C 0.8561 0.06775 0.26287 0.0
C1000 C 0.91805 1.00825 0.19522 0.0
C1001 C 0.91287 0.98397 0.21983 0.0
C1002 C 0.9159 0.03432 0.2159 0.0
C1003 C 0.90831 0.03631 0.2624 0.0
C1004 C 0.90277 1.01188 0.28733 0.0
C1005 C 0.90517 0.98606 0.26583 0.0
C1006 C 0.92214 0.05973 0.18806 0.0
C1007 C 0.89457 1.01298 0.33696 0.0
H1008 H 0.94473 0.10616 0.35438 0.0
H1009 H 0.85971 0.11313 0.31658 0.0
H1010 H 0.95502 0.03966 0.32721 0.0
H1011 H 0.96349 0.05454 0.27324 0.0
H1012 H 0.97382 0.07165 0.32514 0.0
H1013 H 0.83883 0.08277 0.26361 0.0
H1014 H 0.86093 0.06273 0.22686 0.0
H1015 H 0.84918 0.0484 0.2795 0.0
H1016 H 0.92419 1.00694 0.15978 0.0
H1017 H 0.90129 0.96748 0.28533 0.0
H1018 H 0.93975 0.07101 0.20337 0.0
H1019 H 0.90415 0.07383 0.18836 0.0
H1020 H 0.92729 0.05471 0.15211 0.0
H1021 H 0.91121 1.02277 0.35724 0.0
H1022 H 0.89039 0.9922 0.3513 0.0
H1023 H 0.87583 1.02584 0.34109 0.0
C1024 C 0.19759 0.67694 0.06974 0.0
C1025 C 0.19039 0.65137 0.08855 0.0
C1026 C 0.22193 0.68003 0.04386 0.0
C1027 C 0.23904 0.65684 0.0356 0.0
C1028 C 0.23087 0.63068 0.05241 0.0
C1029 C 0.20696 0.62839 0.07934 0.0
C1030 C 0.23032 0.70845 0.02816 0.0
C1031 C 0.24812 0.60531 0.04391 0.0
C1032 C 0.29515 0.66173 0.94419 0.0
C1033 C 0.319 0.66524 0.97056 0.0
C1034 C 0.26905 0.65881 0.96473 0.0
C1035 C 0.26655 0.66019 0.01284 0.0
C1036 C 0.29058 0.66424 0.03958 0.0
C1037 C 0.31647 0.66636 0.01821 0.0
C1038 C 0.24422 0.65392 0.93488 0.0
C1039 C 0.28894 0.66657 0.09085 0.0
H1040 H 0.18519 0.69487 0.07782 0.0
H1041 H 0.20163 0.60869 0.09445 0.0
H1042 H 0.24921 0.71493 0.04666 0.0
H1043 H 0.23538 0.70831 -0.00869 0.0
H1044 H 0.21395 0.72401 0.03434 0.0
H1045 H 0.23723 0.58611 0.05403 0.0
H1046 H 0.25378 0.60386 0.00734 0.0
H1047 H 0.26756 0.60669 0.06369 0.0
H1048 H 0.29693 0.66094 0.90739 0.0
H1049 H 0.33471 0.66954 0.0389 0.0
H1050 H 0.22898 0.67069 0.93976 0.0
H1051 H 0.23405 0.63432 0.94479 0.0
H1052 H 0.2497 0.65287 0.89815 0.0
H1053 H 0.27433 0.68318 0.10047 0.0
H1054 H 0.30929 0.67106 0.10655 0.0
H1055 H 0.28094 0.64709 0.10556 0.0
C1056 C 0.63799 0.04775 0.69168 0.0
C1057 C 0.63998 0.07191 0.71784 0.0
C1058 C 0.63969 1.02146 0.71197 0.0
C1059 C 0.64342 1.01908 0.75974 0.0
C1060 C 0.64555 0.04341 0.78632 0.0
C1061 C 0.64379 0.06942 0.76514 0.0
C1062 C 0.63725 0.99622 0.68224 0.0
C1063 C 0.64945 0.04197 0.83734 0.0
C1064 C 0.62338 0.95365 0.82457 0.0
C1065 C 0.64915 0.94168 0.83316 0.0
C1066 C 0.62108 0.97831 0.79938 0.0
C1067 C 0.64515 0.99128 0.78214 0.0
C1068 C 0.67112 0.97852 0.78914 0.0
C1069 C 0.67282 0.95404 0.81493 0.0
C1070 C 0.59305 0.99132 0.79358 0.0
C1071 C 0.69729 0.99155 0.77152 0.0
H1072 H 0.63473 0.04932 0.65523 0.0
H1073 H 0.64504 0.08785 0.7859 0.0
H1074 H 0.65589 0.98319 0.68611 0.0
H1075 H 0.6193 0.98368 0.69317 0.0
H1076 H 0.63472 1.00153 0.64564 0.0
H1077 H 0.65079 0.06272 0.8532 0.0
H1078 H 0.63202 0.03064 0.85312 0.0
H1079 H 0.66856 0.03042 0.84549 0.0
H1080 H 0.60515 0.9445 0.83969 0.0
H1081 H 0.69282 0.94515 0.82243 0.0
H1082 H 0.58933 0.99644 0.75724 0.0
H1083 H 0.59219 1.0109 0.81306 0.0
H1084 H 0.57619 0.97767 0.80575 0.0
H1085 H 0.69514 0.99678 0.73487 0.0
H1086 H 0.71545 0.97787 0.77588 0.0
H1087 H 0.70124 1.01108 0.79009 0.0
C1088 C 0.47913 0.18727 0.90473 0.0
C1089 C 0.46132 0.16532 0.91444 0.0
C1090 C 0.49734 0.18594 0.86788 0.0
C1091 C 0.49763 0.16204 0.84036 0.0
C1092 C 0.47935 0.13996 0.84964 0.0
C1093 C 0.46124 0.14193 0.88668 0.0
C1094 C 0.51655 0.20987 0.85896 0.0
C1095 C 0.47938 0.11407 0.8211 0.0
C1096 C 0.52809 0.16523 0.72199 0.0
C1097 C 0.55404 0.15343 0.7291 0.0
C1098 C 0.50965 0.16866 0.75815 0.0
C1099 C 0.51743 0.15988 0.80228 0.0
C1100 C 0.54391 0.1485 0.80988 0.0
C1101 C 0.56203 0.14547 0.77304 0.0
C1102 C 0.48172 0.18122 0.74895 0.0
C1103 C 0.5528 0.139 0.85668 0.0
H1104 H 0.47908 0.20543 0.92627 0.0
H1105 H 0.44743 0.12498 0.8944 0.0
H1106 H 0.53826 0.20306 0.86277 0.0
H1107 H 0.51401 0.21732 0.82346 0.0
H1108 H 0.51289 0.22737 0.88262 0.0
H1109 H 0.46347 0.09905 0.83235 0.0
H1110 H 0.47563 0.11927 0.78481 0.0
H1111 H 0.49989 0.10402 0.8231 0.0
H1112 H 0.5221 0.1716 0.68797 0.0
H1113 H 0.58218 0.13636 0.77845 0.0
H1114 H 0.47825 0.19912 0.77177 0.0
H1115 H 0.46534 0.16589 0.75631 0.0
H1116 H 0.47949 0.18819 0.71306 0.0
H1117 H 0.55118 0.15622 0.8814 0.0
H1118 H 0.57431 0.13116 0.85701 0.0
H1119 H 0.53889 0.12238 0.86878 0.0
C1120 C 0.66762 0.71121 0.13299 0.0
C1121 C 0.64426 0.71229 0.16081 0.0
C1122 C 0.67044 0.72939 0.09615 0.0
C1123 C 0.6492 0.74865 0.08703 0.0
C1124 C 0.62533 0.74935 0.11463 0.0
C1125 C 0.62319 0.73115 0.15134 0.0
C1126 C 0.6963 0.7284 0.06759 0.0
C1127 C 0.60222 0.76953 0.10578 0.0
C1128 C 0.66552 0.81302 0.01929 0.0
C1129 C 0.65636 0.80536 0.97585 0.0
C1130 C 0.66362 0.79455 0.05591 0.0
C1131 C 0.6519 0.76817 0.04866 0.0
C1132 C 0.64227 0.7606 0.00493 0.0
C1133 C 0.64479 0.77929 0.96893 0.0
C1134 C 0.67423 0.80312 0.1022 0.0
C1135 C 0.62921 0.73283 -0.00382 0.0
H1136 H 0.68389 0.69659 0.14058 0.0
H1137 H 0.60503 0.73181 0.17285 0.0
H1138 H 0.69095 0.72464 0.03136 0.0
H1139 H 0.70705 0.74857 0.06922 0.0
H1140 H 0.71077 0.71206 0.07907 0.0
H1141 H 0.58476 0.76684 0.12989 0.0
H1142 H 0.61001 0.79095 0.10889 0.0
H1143 H 0.59438 0.76701 0.0705 0.0
H1144 H 0.67451 0.83324 0.0245 0.0
H1145 H 0.63751 0.77356 0.93529 0.0
H1146 H 0.69008 0.78829 0.11415 0.0
H1147 H 0.65719 0.80273 0.12742 0.0
H1148 H 0.68338 0.82411 0.10184 0.0
H1149 H 0.64403 0.71617 0.00451 0.0
H1150 H 0.62256 0.73036 0.96017 0.0
H1151 H 0.61099 0.73006 0.01856 0.0
C1152 C 0.98738 0.90158 0.27768 0.0
C1153 C 0.99677 0.91149 0.23565 0.0
C1154 C 1.00495 0.90121 0.3157 0.0
C1155 C 0.03202 0.91189 0.31153 0.0
C1156 C 0.04106 0.92297 0.2695 0.0
C1157 C 1.02344 0.92217 0.2318 0.0
C1158 C 0.99506 0.88826 0.35958 0.0
C1159 C 0.06958 0.93503 0.26397 0.0
C1160 C 0.0726 0.92737 0.41907 0.0
C1161 C 0.09055 0.90489 0.42027 0.0
C1162 C 0.0534 0.93011 0.38363 0.0
C1163 C 0.05175 0.90937 0.34976 0.0
C1164 C 0.06955 0.8863 0.35155 0.0
C1165 C 0.08908 0.88459 0.38647 0.0
C1166 C 0.03515 0.95527 0.3822 0.0
C1167 C 0.06777 0.86329 0.31693 0.0
H1168 H 0.9667 0.89324 0.28034 0.0
H1169 H 0.03051 0.93009 0.19927 0.0
H1170 H 1.00765 0.86973 0.36725 0.0
H1171 H 0.99778 0.90276 0.38843 0.0
H1172 H 0.97304 0.88203 0.35786 0.0
H1173 H 0.07218 0.94563 0.23067 0.0
H1174 H 0.07389 0.94998 0.2917 0.0
H1175 H 0.08519 0.91841 0.26638 0.0
H1176 H 0.07382 0.94294 0.4455 0.0
H1177 H 0.10274 0.86697 0.388 0.0
H1178 H 1.01318 0.94904 0.38386 0.0
H1179 H 0.0382 0.96637 0.34951 0.0
H1180 H 0.03945 0.96969 0.41075 0.0
H1181 H 0.04645 0.85502 0.31567 0.0
H1182 H 0.0821 0.84607 0.32476 0.0
H1183 H 0.0727 0.87128 0.28246 0.0
C1184 C 0.88436 0.23763 0.53145 0.0
C1185 C 0.89564 0.24578 0.48958 0.0
C1186 C 0.88489 0.25545 0.56903 0.0
C1187 C 0.89741 0.28166 0.56451 0.0
C1188 C 0.9091 0.28977 0.52239 0.0
C1189 C 0.90788 0.27173 0.48527 0.0
C1190 C 0.87205 0.24632 0.61346 0.0
C1191 C 0.92307 0.31737 0.51659 0.0
C1192 C 0.88115 0.33844 0.64907 0.0
C1193 C 0.904 0.33676 0.67798 0.0
C1194 C 0.87846 0.32026 0.61216 0.0
C1195 C 0.89922 0.30028 0.60427 0.0
C1196 C 0.92213 0.29839 0.63384 0.0
C1197 C 0.92422 0.31668 0.67039 0.0
C1198 C 0.85357 0.32248 0.5815 0.0
C1199 C 0.94464 0.2773 0.62662 0.0
H1200 H 0.87475 0.21754 0.53464 0.0
H1201 H 0.9167 0.27787 0.45285 0.0
H1202 H 0.88799 0.24547 0.64052 0.0
H1203 H 0.85631 0.2615 0.62454 0.0
H1204 H 0.86215 0.22573 0.61077 0.0
H1205 H 0.93109 0.32045 0.48149 0.0
H1206 H 0.90836 0.33422 0.52443 0.0
H1207 H 0.9405 0.31919 0.54091 0.0
H1208 H 0.86556 0.35402 0.65511 0.0
H1209 H 0.94191 0.31537 0.6929 0.0
H1210 H 0.84262 0.30241 0.58018 0.0
H1211 H 0.86018 0.32745 0.54625 0.0
H1212 H 0.83889 0.33857 0.59315 0.0
H1213 H 0.93577 0.25622 0.62667 0.0
H1214 H 0.96086 0.27836 0.65333 0.0
H1215 H 0.95445 0.28054 0.59288 0.0
C1216 C 0.59193 0.91932 0.08207 0.0
C1217 C 0.58654 0.90087 0.04658 0.0
C1218 C 0.57384 0.9213 0.11929 0.0
C1219 C 0.55038 0.9039 0.12123 0.0
C1220 C 0.54493 0.88527 0.08529 0.0
C1221 C 0.56298 0.88419 0.04818 0.0
C1222 C 0.57979 0.94195 0.15649 0.0
C1223 C 0.52039 0.86607 0.08636 0.0
C1224 C 0.52043 0.88968 0.23809 0.0
C1225 C 0.49689 0.90628 0.23767 0.0
C1226 C 0.53781 0.88837 0.20006 0.0
C1227 C 0.53182 0.90471 0.16132 0.0
C1228 C 0.50803 0.92162 0.1608 0.0
C1229 C 0.49053 0.92187 0.19888 0.0
C1230 C 0.56255 0.86948 0.20139 0.0
C1231 C 0.50141 0.93979 0.12044 0.0
H1232 H 0.61017 0.93221 0.08067 0.0
H1233 H 0.55891 0.86976 0.02076 0.0
H1234 H 0.56171 0.95564 0.16141 0.0
H1235 H 0.5834 0.93108 0.18922 0.0
H1236 H 0.59811 0.95487 0.14874 0.0
H1237 H 0.51918 0.85283 0.05553 0.0
H1238 H 0.52158 0.8526 0.11688 0.0
H1239 H 0.50102 0.87807 0.08901 0.0
H1240 H 0.52511 0.87749 0.2681 0.0
H1241 H 0.47231 0.93482 0.1988 0.0
H1242 H 0.58176 0.88175 0.19848 0.0
H1243 H 0.56198 0.8551 0.17201 0.0
H1244 H 0.5635 0.85721 0.23335 0.0
H1245 H 0.5189 0.95396 0.11368 0.0
H1246 H 0.48249 0.95226 0.12592 0.0
H1247 H 0.49854 0.92705 0.08944 0.0
C1248 C 0.42903 0.32047 0.81448 0.0
C1249 C 0.40674 0.3374 0.80273 0.0
C1250 C 0.42719 0.30212 0.85105 0.0
C1251 C 0.40244 0.30081 0.87638 0.0
C1252 C 0.37973 0.31768 0.86435 0.0
C1253 C 0.38219 0.33592 0.82751 0.0
C1254 C 0.45178 0.28435 0.86275 0.0
C1255 C 0.35296 0.31651 0.89048 0.0
C1256 C 0.39011 0.23739 0.94879 0.0
C1257 C 0.39711 0.24726 -0.00785 0.0
C1258 C 0.39165 0.25469 0.91059 0.0
C1259 C 0.40063 0.28224 0.9162 0.0
C1260 C 0.40825 0.29204 0.95982 0.0
C1261 C 0.40632 0.27439 -0.00264 0.0
C1262 C 0.38344 0.24368 0.86438 0.0
C1263 C 0.41831 0.3212 0.96691 0.0
H1264 H 0.44805 0.32163 0.79516 0.0
H1265 H 0.365 0.34905 0.81822 0.0
H1266 H 0.45887 0.28898 0.89787 0.0
H1267 H 0.44592 0.26225 0.86187 0.0
H1268 H 0.4693 0.28758 0.83893 0.0
H1269 H 0.33709 0.33053 0.87605 0.0
H1270 H 0.34473 0.29516 0.89023 0.0
H1271 H 0.35658 0.32223 0.9266 0.0
H1272 H 0.38302 0.21633 0.94485 0.0
H1273 H 0.41191 0.28189 0.03092 0.0
H1274 H 0.401 0.24538 0.84032 0.0
H1275 H 0.36634 0.25621 0.85016 0.0
H1276 H 0.37676 0.22179 0.86586 0.0
H1277 H 0.43679 0.32507 0.94557 0.0
H1278 H 0.42367 0.32542 0.00306 0.0
H1279 H 0.40218 0.33603 0.95607 0.0
C1280 C 0.03389 0.16365 0.73983 0.0
C1281 C 0.05835 0.14852 0.73782 0.0
C1282 C 1.01589 0.16434 0.7026 0.0
C1283 C 1.02236 0.14895 0.66306 0.0
C1284 C 0.04707 0.13352 0.66092 0.0
C1285 C 0.06506 0.1338 0.69829 0.0
C1286 C 0.99003 0.18159 0.70559 0.0
C1287 C 0.05428 0.11649 0.6195 0.0
C1288 C 0.96291 0.13261 0.58368 0.0
C1289 C 0.96681 0.15253 0.54986 0.0
C1290 C 0.98125 0.13081 0.62054 0.0
C1291 C 1.00355 0.14961 0.62346 0.0
C1292 C 1.00763 0.16953 0.58898 0.0
C1293 C 0.98924 0.17065 0.55247 0.0
C1294 C 0.97674 0.10896 0.65642 0.0
C1295 C 0.0311 0.19 0.59097 0.0
H1296 H 0.02894 0.1751 0.7705 0.0
H1297 H 0.08398 0.12192 0.69703 0.0
H1298 H 0.98957 0.19678 0.67731 0.0
H1299 H 0.9716 0.16824 0.70191 0.0
H1300 H 0.9885 0.19289 0.73843 0.0
H1301 H 0.07388 0.10495 0.62392 0.0
H1302 H 0.03751 0.10155 0.6123 0.0
H1303 H 0.05622 0.12998 0.58914 0.0
H1304 H 0.9455 0.11866 0.5815 0.0
H1305 H 0.99223 0.18611 0.52621 0.0
H1306 H 0.97275 0.11882 0.68988 0.0
H1307 H 0.9956 0.09622 0.66019 0.0
H1308 H 0.95913 0.09521 0.64809 0.0
H1309 H 0.02936 0.20266 0.62234 0.0
H1310 H 0.0314 0.20401 0.561 0.0
H1311 H 0.05111 0.17901 0.59258 0.0
C1312 C 0.14748 0.81426 0.44717 0.0
C1313 C 0.15893 0.80688 0.48918 0.0
C1314 C 0.14802 0.79586 0.41035 0.0
C1315 C 0.16095 0.76992 0.41579 0.0
C1316 C 0.17342 0.76286 0.45776 0.0
C1317 C 0.17188 0.78131 0.49425 0.0
C1318 C 0.13366 0.8036 0.36647 0.0
C1319 C 0.18786 0.73558 0.46447 0.0
C1320 C 0.13643 0.7102 0.34414 0.0
C1321 C 0.15586 0.71017 0.30889 0.0
C1322 C 0.13768 0.72986 0.37887 0.0
C1323 C 0.15946 0.74925 0.37892 0.0
C1324 C 0.17953 0.74885 0.34389 0.0
C1325 C 0.17722 0.72947 0.30872 0.0
C1326 C 0.11531 0.73033 0.41477 0.0
C1327 C 0.20326 0.76896 0.34335 0.0
H1328 H 0.13725 0.83392 0.44359 0.0
H1329 H 0.18102 0.77583 0.52674 0.0
H1330 H 0.14743 0.80024 0.33684 0.0
H1331 H 0.11534 0.7902 0.36162 0.0
H1332 H 0.12682 0.82541 0.36631 0.0
H1333 H 0.19906 0.73461 0.49746 0.0
H1334 H 0.17254 0.71861 0.46365 0.0
H1335 H 0.20273 0.7319 0.43639 0.0
H1336 H 0.11968 0.69546 0.34368 0.0
H1337 H 0.19208 0.72938 0.28113 0.0
H1338 H 0.10511 0.7508 0.41509 0.0
H1339 H 0.1244 0.7271 0.44904 0.0
H1340 H 0.09936 0.71428 0.40895 0.0
H1341 H 0.19536 0.7903 0.33993 0.0
H1342 H 0.21782 0.76492 0.31489 0.0
H1343 H 0.21473 0.76782 0.37603 0.0
C1344 C 0.98074 0.62612 0.42059 0.0
C1345 C 0.96236 0.6483 0.42069 0.0
C1346 C 0.99983 0.62295 0.38511 0.0
C1347 C 1.0007 0.6428 0.34972 0.0
C1348 C 0.98218 0.66531 0.34991 0.0
C1349 C 0.96297 0.66759 0.38519 0.0
C1350 C 1.01918 0.59861 0.38575 0.0
C1351 C 0.98307 0.68734 0.31347 0.0
C1352 C 0.06522 0.65309 0.27931 0.0
C1353 C 0.05704 0.64189 0.23752 0.0
C1354 C 0.04734 0.65277 0.31688 0.0
C1355 C 1.02105 0.6404 0.3124 0.0
C1356 C 1.01325 0.628 0.27073 0.0
C1357 C 0.03123 0.62929 0.2335 0.0
C1358 C 0.05593 0.66698 0.36044 0.0
C1359 C 0.9856 0.61414 0.26501 0.0
H1360 H 0.98026 0.61134 0.44831 0.0
H1361 H 0.94889 0.68495 0.3856 0.0
H1362 H 1.01738 0.58692 0.35339 0.0
H1363 H 0.0408 0.60588 0.38844 0.0
H1364 H 1.01494 0.58443 0.41467 0.0
H1365 H 0.96757 0.70384 0.31925 0.0
H1366 H 1.00385 0.6969 0.31246 0.0
H1367 H 0.97926 0.67807 0.27951 0.0
H1368 H 0.08504 0.66313 0.2821 0.0
H1369 H 1.02508 0.62037 0.20118 0.0
H1370 H 0.05167 0.65377 0.39047 0.0
H1371 H 0.04377 0.68618 0.36466 0.0
H1372 H 0.07814 0.67238 0.36045 0.0
H1373 H 0.9818 0.59958 0.29351 0.0
H1374 H 0.98409 0.6027 0.2323 0.0
H1375 H 0.96901 0.62986 0.26584 0.0
C1376 C 0.17134 0.242 0.68953 0.0
C1377 C 0.16162 0.2157 0.67839 0.0
C1378 C 0.17462 0.26219 0.65587 0.0
C1379 C 0.16803 0.25578 0.61012 0.0
C1380 C 0.15878 0.22898 0.59856 0.0
C1381 C 0.15564 0.2092 0.63297 0.0
C1382 C 0.18446 0.29053 0.66951 0.0
C1383 C 0.15159 0.22145 0.55003 0.0
C1384 C 0.14831 0.31177 0.5263 0.0
C1385 C 0.17236 0.31379 0.50009 0.0
C1386 C 0.14692 0.29358 0.56339 0.0
C1387 C 0.17014 0.27716 0.57425 0.0
C1388 C 0.1948 0.27995 0.54891 0.0
C1389 C 0.19562 0.29833 0.51212 0.0
C1390 C 0.12028 0.2911 0.58975 0.0
C1391 C 0.21991 0.2627 0.55946 0.0
H1392 H 0.17578 0.247 0.72479 0.0
H1393 H 0.14796 0.18885 0.62446 0.0
H1394 H 0.20272 0.29647 0.64899 0.0
H1395 H 0.16805 0.30589 0.66255 0.0
H1396 H 0.18998 0.29167 0.70622 0.0
H1397 H 0.14561 0.19944 0.54652 0.0
H1398 H 0.13424 0.23443 0.53795 0.0
H1399 H 0.16939 0.22555 0.52727 0.0
H1400 H 0.13036 0.32388 0.51714 0.0
H1401 H 0.21429 0.30006 0.49201 0.0
H1402 H 0.1242 0.29336 0.62681 0.0
H1403 H 0.11129 0.27032 0.58438 0.0
H1404 H 0.10486 0.30677 0.57918 0.0
H1405 H 0.22531 0.26439 0.5961 0.0
H1406 H 0.23808 0.26888 0.5388 0.0
H1407 H 0.21534 0.24069 0.55247 0.0
C1408 C 0.4878 0.41139 0.778 0.0
C1409 C 0.4971 0.40628 0.73359 0.0
C1410 C 0.50604 0.41003 0.815 0.0
C1411 C 0.53405 0.40344 0.80705 0.0
C1412 C 0.54344 0.39821 0.76226 0.0
C1413 C 0.52477 0.39962 0.72602 0.0
C1414 C 0.49538 0.41546 0.86254 0.0
C1415 C 0.57315 0.39098 0.75258 0.0
C1416 C 0.587 0.42127 0.89736 0.0
C1417 C 0.59034 0.39575 0.91877 0.0
C1418 C 0.5686 0.42416 0.86081 0.0
C1419 C 0.55338 0.40095 0.84577 0.0
C1420 C 0.55679 0.37514 0.86741 0.0
C1421 C 0.57535 0.37284 0.9036 0.0
C1422 C 0.5653 0.45199 0.83846 0.0
C1423 C 0.54071 0.35 0.85257 0.0
H1424 H 0.46633 0.41652 0.7838 0.0
H1425 H 0.5319 0.39561 0.69164 0.0
H1426 H 0.49831 0.39688 0.88406 0.0
H1427 H 0.50727 0.43243 0.87857 0.0
H1428 H 0.47317 0.42104 0.86276 0.0
H1429 H 0.5772 0.38829 0.71558 0.0
H1430 H 0.58692 0.4074 0.7658 0.0
H1431 H 0.57868 0.37159 0.77042 0.0
H1432 H 0.59864 0.43893 0.90929 0.0
H1433 H 0.57797 0.35306 0.92027 0.0
H1434 H 0.54356 0.45888 0.84111 0.0
H1435 H 0.57032 0.4505 0.80166 0.0
H1436 H 0.57875 0.46792 0.85418 0.0
H1437 H 0.51827 0.35403 0.85549 0.0
H1438 H 0.54577 0.33148 0.87324 0.0
H1439 H 0.54505 0.34537 0.81625 0.0
C1440 C 0.38156 0.77539 0.97722 0.0
C1441 C 0.39353 0.74932 0.98169 0.0
C1442 C 0.38091 0.79369 0.01405 0.0
C1443 C 0.39335 0.78593 0.05573 0.0
C1444 C 0.40535 0.7595 0.06051 0.0
C1445 C 0.40495 0.74129 0.02341 0.0
C1446 C 0.36742 0.82149 0.00805 0.0
C1447 C 0.41962 0.75097 0.10407 0.0
C1448 C 0.42022 0.84372 0.12974 0.0
C1449 C 0.4007 0.84412 0.1649 0.0
C1450 C 0.4181 0.82472 0.09408 0.0
C1451 C 0.39556 0.8062 0.09321 0.0
C1452 C 0.37549 0.80691 0.12822 0.0
C1453 C 0.37847 0.82578 0.16403 0.0
C1454 C 0.44035 0.82397 0.05802 0.0
C1455 C 0.35109 0.78759 0.12813 0.0
H1456 H 0.37249 0.78142 0.94494 0.0
H1457 H 0.41446 0.72124 0.02651 0.0
H1458 H 0.35257 0.82532 0.03611 0.0
H1459 H 0.38327 0.83793 0.00958 0.0
H1460 H 0.35636 0.8232 0.975 0.0
H1461 H 0.4266 0.72922 0.1031 0.0
H1462 H 0.43782 0.76437 0.10994 0.0
H1463 H 0.40566 0.75364 0.13366 0.0
H1464 H 0.43762 0.85775 0.13077 0.0
H1465 H 0.36351 0.82609 0.19148 0.0
H1466 H 0.43127 0.82779 0.02391 0.0
H1467 H 0.44996 0.80322 0.05709 0.0
H1468 H 0.45677 0.8395 0.06418 0.0
H1469 H 0.33968 0.78946 0.09549 0.0
H1470 H 0.33666 0.79179 0.15671 0.0
H1471 H 0.35828 0.76596 0.13092 0.0
C1472 C 0.09502 0.41894 0.59171 0.0
C1473 C 0.08714 0.40762 0.54993 0.0
C1474 C 0.0763 0.42005 0.62801 0.0
C1475 C 0.04978 0.40823 0.6227 0.0
C1476 C 0.04191 0.39658 0.58046 0.0
C1477 C 0.06058 0.39697 0.54417 0.0
C1478 C 0.08488 0.43373 0.67201 0.0
C1479 C 1.01422 0.38286 0.574 0.0
C1480 C 1.01527 0.38698 0.73285 0.0
C1481 C 0.99551 0.40767 0.73762 0.0
C1482 C 0.03247 0.38632 0.69457 0.0
C1483 C 0.0305 0.40763 0.66168 0.0
C1484 C 1.01061 0.42874 0.66671 0.0
C1485 C 0.99286 0.42816 0.70432 0.0
C1486 C 0.05277 0.36293 0.68947 0.0
C1487 C 1.00876 0.45241 0.63334 0.0
H1488 H 0.11572 0.42702 0.59583 0.0
H1489 H 0.05486 0.38772 0.51187 0.0
H1490 H 0.06939 0.44944 0.68204 0.0
H1491 H 0.0858 0.41826 0.69979 0.0
H1492 H 0.10535 0.44387 0.66925 0.0
H1493 H 1.01168 0.37423 0.53916 0.0
H1494 H 1.01178 0.36591 0.5991 0.0
H1495 H 0.99739 0.39783 0.58023 0.0
H1496 H 1.01696 0.37111 0.75877 0.0
H1497 H 0.97759 0.44428 0.70858 0.0
H1498 H 0.07413 0.37091 0.69204 0.0
H1499 H 0.05057 0.35328 0.65537 0.0
H1500 H 0.0499 0.34679 0.71595 0.0
H1501 H 0.02867 0.46367 0.63256 0.0
H1502 H 0.99212 0.46718 0.64228 0.0
H1503 H 1.00495 0.44457 0.59842 0.0
C1504 C 0.88609 0.84281 0.33741 0.0
C1505 C 0.89997 0.83594 0.29728 0.0
C1506 C 0.88549 0.82434 0.3742 0.0
C1507 C 0.90007 0.7991 0.37104 0.0
C1508 C 0.91435 0.7923 0.33055 0.0
C1509 C 0.91373 0.81067 0.29384 0.0
C1510 C 0.86921 0.83175 0.4163 0.0
C1511 C 0.93079 0.76597 0.32629 0.0
C1512 C 0.91911 0.76599 0.48363 0.0
C1513 C 0.89984 0.74462 0.48612 0.0
C1514 C 0.92003 0.78339 0.44554 0.0
C1515 C 0.90045 0.77985 0.4102 0.0
C1516 C 0.8809 0.75823 0.41268 0.0
C1517 C 0.88119 0.74047 0.45036 0.0
C1518 C 0.94177 0.80565 0.44334 0.0
C1519 C 0.85912 0.75449 0.37637 0.0
H1520 H 0.87556 0.86246 0.33987 0.0
H1521 H 0.92485 0.80563 0.26287 0.0
H1522 H 0.85422 0.81513 0.4242 0.0
H1523 H 0.88322 0.83362 0.446 0.0
H1524 H 0.8578 0.85145 0.41228 0.0
H1525 H 0.94132 0.76424 0.29277 0.0
H1526 H 0.94656 0.76501 0.35363 0.0
H1527 H 0.91709 0.74786 0.33062 0.0
H1528 H 0.9336 0.76893 0.51138 0.0
H1529 H 0.86614 0.72399 0.45269 0.0
H1530 H 0.93187 0.82623 0.44461 0.0
H1531 H 0.95319 0.80432 0.41063 0.0
H1532 H 0.95677 0.80417 0.47188 0.0
H1533 H 0.84646 0.77348 0.37368 0.0
H1534 H 0.84524 0.73681 0.38367 0.0
H1535 H 0.86891 0.75118 0.34268 0.0
C1536 C 0.48226 0.62954 0.05353 0.0
C1537 C 0.46227 0.65022 0.05538 0.0
C1538 C 0.50175 0.62681 0.08848 0.0
C1539 C 0.50153 0.64579 0.12513 0.0
C1540 C 0.4815 0.66696 0.12672 0.0
C1541 C 0.46178 0.66861 0.09209 0.0
C1542 C 0.52242 0.60362 0.08623 0.0
C1543 C 0.48121 0.68813 0.16453 0.0
C1544 C 0.53214 0.62981 0.24034 0.0
C1545 C 0.55771 0.64301 0.23746 0.0
C1546 C 0.51426 0.62928 0.20299 0.0
C1547 C 0.52176 0.64333 0.16259 0.0
C1548 C 0.5477 0.65661 0.15941 0.0
C1549 C 0.56573 0.65571 0.19677 0.0
C1550 C 0.48711 0.61424 0.20719 0.0
C1551 C 0.55582 0.67279 0.11749 0.0
H1552 H 0.48257 0.61545 0.02486 0.0
H1553 H 0.44643 0.68479 0.09307 0.0
H1554 H 0.54362 0.61209 0.08464 0.0
H1555 H 0.52103 0.59085 0.11754 0.0
H1556 H 0.51913 0.59014 0.05611 0.0
H1557 H 0.46508 0.70409 0.15939 0.0
H1558 H 0.4775 0.6779 0.19777 0.0
H1559 H 0.50157 0.69849 0.16671 0.0
H1560 H 0.52622 0.61965 0.27177 0.0
H1561 H 0.58561 0.66578 0.19472 0.0
H1562 H 0.48399 0.60041 0.1775 0.0
H1563 H 0.46992 0.6293 0.20736 0.0
H1564 H 0.48589 0.60177 0.2389 0.0
H1565 H 0.55462 0.65957 0.08674 0.0
H1566 H 0.577 0.68139 0.12009 0.0
H1567 H 0.54116 0.69008 0.11238 0.0
C1568 C 0.65635 0.31736 0.9482 0.0
C1569 C 0.65984 0.30624 -0.00811 0.0
C1570 C 0.65472 0.30009 0.90996 0.0
C1571 C 0.65769 0.27127 0.91574 0.0
C1572 C 0.66224 0.26013 0.95967 0.0
C1573 C 0.66281 0.27776 -0.00265 0.0
C1574 C 0.64891 0.31251 0.86373 0.0
C1575 C 0.666 0.22955 0.96705 0.0
C1576 C 0.62522 0.22237 0.83124 0.0
C1577 C 0.64783 0.21535 0.80396 0.0
C1578 C 0.62806 0.24109 0.86712 0.0
C1579 C 0.65431 0.2525 0.87642 0.0
C1580 C 0.67726 0.24536 0.84902 0.0
C1581 C 0.67366 0.22696 0.81267 0.0
C1582 C 0.60296 0.24878 0.89486 0.0
C1583 C 0.7056 0.25693 0.85836 0.0
H1584 H 0.6542 0.33945 0.94407 0.0
H1585 H 0.66577 0.26923 0.03115 0.0
H1586 H 0.66514 0.30644 0.8391 0.0
H1587 H 0.62904 0.30447 0.85047 0.0
H1588 H 0.64776 0.33537 0.86489 0.0
H1589 H 0.67176 0.22457 0.00277 0.0
H1590 H 0.64658 0.21856 0.95875 0.0
H1591 H 0.68224 0.22149 0.94399 0.0
H1592 H 0.60514 0.2135 0.82415 0.0
H1593 H 0.69107 0.22148 0.79135 0.0
H1594 H 0.60005 0.27147 0.89441 0.0
H1595 H 0.60592 0.24257 0.93091 0.0
H1596 H 0.58385 0.23887 0.88189 0.0
H1597 H 0.70513 0.27975 0.85633 0.0
H1598 H 0.72126 0.24916 0.8339 0.0
H1599 H 0.71214 0.25138 0.89343 0.0
C1600 C 0.29662 0.24089 0.15742 0.0
C1601 C 0.31969 0.23274 0.18279 0.0
C1602 C 0.27593 0.25679 0.17674 0.0
C1603 C 0.27816 0.26442 0.22292 0.0
C1604 C 0.30091 0.25553 0.2495 0.0
C1605 C 0.32171 0.23968 0.2289 0.0
C1606 C 0.252 0.26589 0.14729 0.0
C1607 C 0.30344 0.26327 0.29915 0.0
C1608 C 0.23694 0.32679 0.25854 0.0
C1609 C 0.21396 0.31424 0.27851 0.0
C1610 C 0.25828 0.31073 0.24049 0.0
C1611 C 0.25637 0.28166 0.24294 0.0
C1612 C 0.23283 0.26894 0.26187 0.0
C1613 C 0.21174 0.28546 0.27915 0.0
C1614 C 0.28306 0.32477 0.21967 0.0
C1615 C 0.23018 0.23794 0.2647 0.0
H1616 H 0.29495 0.23534 0.12172 0.0
H1617 H 0.33967 0.23343 0.24829 0.0
H1618 H 0.23227 0.25885 0.16241 0.0
H1619 H 0.25132 0.28872 0.14559 0.0
H1620 H 0.2534 0.25775 0.11197 0.0
H1621 H 0.32194 0.25403 0.3154 0.0
H1622 H 0.30463 0.28601 0.30253 0.0
H1623 H 0.28485 0.25643 0.31808 0.0
H1624 H 0.23869 0.34907 0.25848 0.0
H1625 H 0.194 0.27576 0.29491 0.0
H1626 H 0.28558 0.31816 0.18371 0.0
H1627 H 0.30202 0.31857 0.23819 0.0
H1628 H 0.28135 0.34759 0.22057 0.0
H1629 H 0.23112 0.22884 0.23005 0.0
H1630 H 0.21062 0.23138 0.28112 0.0
H1631 H 0.24766 0.22928 0.28444 0.0
C1632 C 0.55456 0.58449 0.47041 0.0
C1633 C 0.57405 0.57563 0.43856 0.0
C1634 C 0.5362 0.56554 0.48991 0.0
C1635 C 0.5381 0.53737 0.47763 0.0
C1636 C 0.55847 0.52836 0.44667 0.0
C1637 C 0.57609 0.54773 0.42722 0.0
C1638 C 0.51435 0.57564 0.52258 0.0
C1639 C 0.56159 0.49836 0.43388 0.0
C1640 C 0.51171 0.48628 0.56283 0.0
C1641 C 0.48689 0.4778 0.54286 0.0
C1642 C 0.52858 0.50553 0.54167 0.0
C1643 C 0.52019 0.51687 0.49968 0.0
C1644 C 0.49532 0.50816 0.4787 0.0
C1645 C 0.47892 0.48823 0.50049 0.0
C1646 C 0.55532 0.51377 0.56447 0.0
C1647 C 0.48583 0.52039 0.43407 0.0
H1648 H 0.55273 0.60626 0.47818 0.0
H1649 H 0.59115 0.54113 0.40216 0.0
H1650 H 0.49362 0.56969 0.50993 0.0
H1651 H 0.51707 0.56576 0.55638 0.0
H1652 H 0.51496 0.59836 0.52712 0.0
H1653 H 0.57874 0.49493 0.40941 0.0
H1654 H 0.56552 0.48585 0.46488 0.0
H1655 H 0.54226 0.49061 0.4183 0.0
H1656 H 0.51802 0.47782 0.59543 0.0
H1657 H 0.45964 0.48159 0.48536 0.0
H1658 H 0.55506 0.53609 0.5726 0.0
H1659 H 0.5729 0.51013 0.54104 0.0
H1660 H 0.55908 0.50218 0.59655 0.0
H1661 H 0.48368 0.54307 0.43762 0.0
H1662 H 0.4658 0.51169 0.42265 0.0
H1663 H 0.50144 0.51665 0.40717 0.0
C1664 C 0.24696 0.79984 0.6523 0.0
C1665 C 0.22884 0.81579 0.67854 0.0
C1666 C 0.26614 0.78246 0.67254 0.0
C1667 C 0.26756 0.78119 0.72047 0.0
C1668 C 0.24926 0.79705 0.74758 0.0
C1669 C 0.22977 0.8142 0.72612 0.0
C1670 C 0.28521 0.76584 0.64241 0.0
C1671 C 0.25072 0.79622 0.79894 0.0
C1672 C 0.30646 0.72015 0.76847 0.0
C1673 C 0.33254 0.73175 0.77538 0.0
C1674 C 0.28476 0.73621 0.7514 0.0
C1675 C 0.28946 0.76438 0.74151 0.0
C1676 C 0.31589 0.77602 0.74783 0.0
C1677 C 0.3372 0.75946 0.76435 0.0
C1678 C 0.25684 0.72316 0.74416 0.0
C1679 C 0.3216 0.80601 0.73749 0.0
H1680 H 0.24617 0.80078 0.61541 0.0
H1681 H 0.21562 0.82643 0.74631 0.0
H1682 H 0.30683 0.77252 0.64782 0.0
H1683 H 0.28398 0.74367 0.65139 0.0
H1684 H 0.28025 0.76816 0.60563 0.0
H1685 H 0.23448 0.80904 0.81512 0.0
H1686 H 0.24858 0.77469 0.81117 0.0
H1687 H 0.27119 0.80372 0.81045 0.0
H1688 H 0.30282 0.6988 0.77758 0.0
H1689 H 0.35735 0.76851 0.77009 0.0
H1690 H 0.25096 0.72461 0.70768 0.0
H1691 H 0.24097 0.73446 0.76395 0.0
H1692 H 0.25645 0.70114 0.7545 0.0
H1693 H 0.31834 0.8101 0.70067 0.0
H1694 H 0.34298 0.81215 0.7465 0.0
H1695 H 0.30703 0.81933 0.75657 0.0
C1696 C 0.04382 0.58814 0.01776 0.0
C1697 C 0.07182 0.58405 0.02725 0.0
C1698 C 0.02763 0.56678 0.0005 0.0
C1699 C 0.03994 0.54091 -0.00803 0.0
C1700 C 0.06839 0.53684 0.00017 0.0
C1701 C 0.08409 0.55857 0.01794 0.0
C1702 C 0.99731 0.57179 -0.0081 0.0
C1703 C 0.08208 0.5095 -0.00937 0.0
C1704 C 0.99171 0.48002 0.97666 0.0
C1705 C 0.98947 0.47961 0.92914 0.0
C1706 C 1.00857 0.49976 -0.00198 0.0
C1707 C 1.02335 0.51893 0.97086 0.0
C1708 C 1.02127 0.51818 0.92298 0.0
C1709 C 1.00428 0.49864 0.90283 0.0
C1710 C 1.01035 0.50045 0.04937 0.0
C1711 C 0.03666 0.53827 0.89283 0.0
H1712 H 0.03429 0.60783 0.02532 0.0
H1713 H 0.10569 0.55538 0.02585 0.0
H1714 H 0.99261 0.56891 0.9552 0.0
H1715 H 0.98476 0.5566 0.01111 0.0
H1716 H 0.99078 0.59286 0.00202 0.0
H1717 H 0.10433 0.5096 -0.00044 0.0
H1718 H 0.07172 0.49293 0.01029 0.0
H1719 H 0.07995 0.50426 0.95398 0.0
H1720 H 0.98035 0.46515 -0.00313 0.0
H1721 H 1.00271 0.49831 0.86597 0.0
H1722 H 1.00263 0.52054 0.06215 0.0
H1723 H 0.03216 0.49862 0.06035 0.0
H1724 H 0.99822 0.48367 0.06552 0.0
H1725 H 0.02958 0.55959 0.89982 0.0
H1726 H 0.03359 0.53396 0.85598 0.0
H1727 H 0.05906 0.53746 0.90031 0.0
C1728 C 0.71768 0.79711 0.75881 0.0
C1729 C 0.72197 0.82458 0.77168 0.0
C1730 C 0.73944 0.78101 0.74265 0.0
C1731 C 0.76596 0.79285 0.73893 0.0
C1732 C 0.7703 0.82079 0.75075 0.0
C1733 C 0.74813 0.83642 0.7671 0.0
C1734 C 0.7341 0.75129 0.72993 0.0
C1735 C 0.79836 0.83402 0.74649 0.0
C1736 C 0.82589 0.7432 0.72544 0.0
C1737 C 0.8283 0.7428 0.67795 0.0
C1738 C 0.80591 0.76002 0.74631 0.0
C1739 C 0.78849 0.77656 0.71872 0.0
C1740 C 0.79141 0.77649 0.67094 0.0
C1741 C 0.8112 0.75961 0.65127 0.0
C1742 C 0.80296 0.75972 0.79751 0.0
C1743 C 0.77319 0.79374 0.6403 0.0
H1744 H 0.69745 0.7879 0.76276 0.0
H1745 H 0.75146 0.85756 0.77769 0.0
H1746 H 0.7386 0.74805 0.69324 0.0
H1747 H 0.74803 0.73752 0.74948 0.0
H1748 H 0.71246 0.74497 0.73656 0.0
H1749 H 0.79839 0.8558 0.75817 0.0
H1750 H 0.81367 0.8223 0.76683 0.0
H1751 H 0.80528 0.8334 0.71046 0.0
H1752 H 0.83924 0.73029 0.74598 0.0
H1753 H 0.8131 0.75953 0.61445 0.0
H1754 H 0.7823 0.75172 0.80691 0.0
H1755 H 0.80447 0.78099 0.81113 0.0
H1756 H 0.81889 0.74674 0.81422 0.0
H1757 H 0.75145 0.7869 0.64356 0.0
H1758 H 0.77922 0.79224 0.60385 0.0
H1759 H 0.77407 0.8157 0.65067 0.0
C1760 C 0.71578 0.29256 0.2089 0.0
C1761 C 0.71963 0.32078 0.20109 0.0
C1762 C 0.73712 0.2763 0.22593 0.0
C1763 C 0.76268 0.28878 0.23619 0.0
C1764 C 0.76649 0.31744 0.22977 0.0
C1765 C 0.7448 0.33321 0.21198 0.0
C1766 C 0.73239 0.24574 0.23254 0.0
C1767 C 0.79348 0.33129 0.24131 0.0
C1768 C 0.80327 0.25129 0.3253 0.0
C1769 C 0.82283 0.23712 0.29914 0.0
C1770 C 0.78423 0.26884 0.30519 0.0
C1771 C 0.78447 0.27204 0.25746 0.0
C1772 C 0.80416 0.25791 0.23046 0.0
C1773 C 0.82345 0.24056 0.25183 0.0
C1774 C 0.76356 0.28354 0.33516 0.0
C1775 C 0.80445 0.26084 0.17924 0.0
H1776 H 0.69632 0.2829 0.20017 0.0
H1777 H 0.74779 0.355 0.2054 0.0
H1778 H 0.74816 0.23381 0.21355 0.0
H1779 H 0.73457 0.24034 0.26911 0.0
H1780 H 0.71164 0.23912 0.22083 0.0
H1781 H 0.79322 0.3537 0.23356 0.0
H1782 H 0.79813 0.3285 0.27806 0.0
H1783 H 0.81051 0.32153 0.22191 0.0
H1784 H 0.80284 0.24885 0.36203 0.0
H1785 H 0.83876 0.22973 0.23177 0.0
H1786 H 0.74242 0.27637 0.32695 0.0
H1787 H 0.76427 0.30606 0.32875 0.0
H1788 H 0.76734 0.27988 0.37203 0.0
H1789 H 0.78471 0.25319 0.16492 0.0
H1790 H 0.82168 0.24926 0.1633 0.0
H1791 H 0.80624 0.2829 0.16967 0.0
C1792 C 0.06388 0.0737 0.97627 0.0
C1793 C 0.0639 0.07584 0.92874 0.0
C1794 C 0.04707 0.05399 -0.00213 0.0
C1795 C 0.03002 0.03665 0.971 0.0
C1796 C 0.02967 0.03933 0.92317 0.0
C1797 C 0.04667 0.05879 0.90274 0.0
C1798 C 0.0479 0.05124 0.04909 0.0
C1799 C 1.01176 1.0213 0.8933 0.0
C1800 C 1.00835 0.96654 0.0132 0.0
C1801 C 0.98114 0.97152 0.02688 0.0
C1802 C 1.02473 0.98782 -0.00402 0.0
C1803 C 1.01345 1.01458 -0.00792 0.0
C1804 C 0.98577 1.01962 0.0048 0.0
C1805 C 0.96986 0.99791 0.02216 0.0
C1806 C 0.05416 0.98176 0.98237 0.0
C1807 C 0.97313 0.04793 0.00042 0.0
H1808 H 0.07712 0.08704 -0.00373 0.0
H1809 H 0.04641 0.06056 0.8659 0.0
H1810 H 0.02683 0.05335 0.06338 0.0
H1811 H 0.05546 0.03042 0.05852 0.0
H1812 H 0.06149 0.0669 0.06518 0.0
H1813 H 1.01306 0.02708 0.8567 0.0
H1814 H 1.01814 0.99945 0.89679 0.0
H1815 H 0.98992 1.02273 0.9042 0.0
H1816 H 1.01713 0.94614 0.01725 0.0
H1817 H 0.94892 1.00179 0.03335 0.0
H1818 H 0.06847 0.99551 0.00118 0.0
H1819 H 0.05705 0.98594 0.9455 0.0
H1820 H 0.06007 0.96002 -0.01077 0.0
H1821 H 0.98543 0.06311 0.02007 0.0
H1822 H 0.9515 0.04852 0.0128 0.0
H1823 H 0.97349 0.0546 0.96424 0.0
C1824 C 0.55263 0.05495 0.56806 0.0
C1825 C 0.56584 0.07517 0.54181 0.0
C1826 C 0.53621 0.0349 0.54807 0.0
C1827 C 0.53311 0.03479 0.50033 0.0
C1828 C 0.54647 0.05496 0.47315 0.0
C1829 C 0.56278 0.07522 0.4944 0.0
C1830 C 0.52235 1.01372 0.57824 0.0
C1831 C 0.54357 0.05494 0.42194 0.0
C1832 C 0.5138 0.96536 0.45311 0.0
C1833 C 0.48537 0.96842 0.44653 0.0
C1834 C 0.52975 0.98723 0.4692 0.0
C1835 C 0.5168 1.01255 0.4794 0.0
C1836 C 0.48798 1.01561 0.47384 0.0
C1837 C 0.4725 0.99337 0.4573 0.0
C1838 C 0.56045 0.98326 0.47514 0.0
C1839 C 0.47362 0.04235 0.48516 0.0
H1840 H 0.55492 0.05481 0.60482 0.0
H1841 H 0.57289 0.09098 0.47423 0.0
H1842 H 0.49975 1.01392 0.5725 0.0
H1843 H 0.5299 0.99279 0.56957 0.0
H1844 H 0.52629 1.01743 0.61504 0.0
H1845 H 0.55488 0.07227 0.40574 0.0
H1846 H 0.5515 0.03525 0.40787 0.0
H1847 H 0.52148 0.05633 0.41238 0.0
H1848 H 0.52377 0.94608 0.44436 0.0
H1849 H 0.45056 0.99578 0.45155 0.0
H1850 H 0.56609 0.98568 0.51157 0.0
H1851 H 0.57187 0.99925 0.45575 0.0
H1852 H 0.56745 0.96263 0.46348 0.0
H1853 H 0.47631 0.04714 0.52187 0.0
H1854 H 0.45121 0.04162 0.47744 0.0
H1855 H 0.48303 0.05953 0.46562 0.0
loop_
_geom_bond_atom_site_label_1
_geom_bond_atom_site_label_2
_geom_bond_distance
_geom_bond_site_symmetry_2
_ccdc_geom_bond_type
Dy0 O4 2.398 1_554 S
Dy0 O5 2.491 1_554 S
Dy0 O6 2.403 . S
Dy0 O7 2.664 . S
Dy0 O11 2.326 . S
Dy0 O15 2.310 . S
Dy0 O16 2.351 . S
C1 O12 1.185 . S
C1 O13 1.355 . S
C2 O4 1.185 . S
C2 O5 1.355 . S
Dy3 O7 2.310 . S
Dy3 O10 2.351 . S
Dy3 O12 2.398 . S
Dy3 O13 2.491 . S
Dy3 O14 2.403 . S
Dy3 O15 2.664 . S
Dy3 O17 2.326 . S
O4 Dy0 2.398 1_556 S
O4 C2 1.185 . S
O5 Dy0 2.491 1_556 S
O5 C2 1.355 . S
O6 Dy0 2.403 . S
O6 C8 1.254 . S
O7 Dy0 2.664 . S
O7 Dy3 2.310 . S
O7 C8 1.268 . S
C8 O6 1.254 . S
C8 O7 1.268 . S
C9 O14 1.254 . S
C9 O15 1.268 . S
O10 Dy3 2.351 . S
O10 C18 1.249 . S
O11 Dy0 2.326 . S
O11 C18 1.267 . S
O12 C1 1.185 . S
O12 Dy3 2.398 . S
O13 C1 1.355 . S
O13 Dy3 2.491 . S
O14 Dy3 2.403 . S
O14 C9 1.254 . S
O15 Dy0 2.310 . S
O15 Dy3 2.664 . S
O15 C9 1.268 . S
O16 Dy0 2.351 . S
O16 C19 1.249 . S
O17 Dy3 2.326 . S
O17 C19 1.267 . S
C18 O10 1.249 . S
C18 O11 1.267 . S
C19 O16 1.249 . S
C19 O17 1.267 . S
Dy20 O24 2.398 . S
Dy20 O25 2.491 . S
Dy20 O26 2.403 . S
Dy20 O27 2.664 . S
Dy20 O31 2.326 . S
Dy20 O35 2.310 . S
Dy20 O36 2.351 . S
C21 O32 1.185 . S
C21 O33 1.355 . S
C22 O24 1.185 . S
C22 O25 1.355 . S
Dy23 O27 2.310 . S
Dy23 O30 2.351 . S
Dy23 O32 2.398 . S
Dy23 O33 2.491 . S
Dy23 O34 2.403 . S
Dy23 O35 2.664 . S
Dy23 O37 2.326 . S
O24 Dy20 2.398 . S
O24 C22 1.185 . S
O25 Dy20 2.491 . S
O25 C22 1.355 . S
O26 Dy20 2.403 . S
O26 C28 1.254 . S
O27 Dy20 2.664 . S
O27 Dy23 2.310 . S
O27 C28 1.268 . S
C28 O26 1.254 . S
C28 O27 1.268 . S
C29 O34 1.254 . S
C29 O35 1.268 . S
O30 Dy23 2.351 . S
O30 C38 1.249 . S
O31 Dy20 2.326 . S
O31 C38 1.267 . S
O32 C21 1.185 . S
O32 Dy23 2.398 . S
O33 C21 1.355 . S
O33 Dy23 2.491 . S
O34 Dy23 2.403 . S
O34 C29 1.254 . S
O35 Dy20 2.310 . S
O35 Dy23 2.664 . S
O35 C29 1.268 . S
O36 Dy20 2.351 . S
O36 C39 1.249 . S
O37 Dy23 2.326 . S
O37 C39 1.267 . S
C38 O30 1.249 . S
C38 O31 1.267 . S
C39 O36 1.249 . S
C39 O37 1.267 . S
Dy40 O44 2.398 . S
Dy40 O45 2.491 . S
Dy40 O46 2.403 . S
Dy40 O47 2.664 . S
Dy40 O51 2.326 . S
Dy40 O55 2.310 . S
Dy40 O56 2.351 . S
C41 O52 1.185 . S
C41 O53 1.355 . S
C42 O44 1.185 . S
C42 O45 1.355 . S
Dy43 O47 2.310 . S
Dy43 O50 2.351 . S
Dy43 O52 2.398 . S
Dy43 O53 2.491 . S
Dy43 O54 2.403 . S
Dy43 O55 2.664 . S
Dy43 O57 2.326 . S
O44 Dy40 2.398 . S
O44 C42 1.185 . S
O45 Dy40 2.491 . S
O45 C42 1.355 . S
O46 Dy40 2.403 . S
O46 C48 1.254 . S
O47 Dy40 2.664 . S
O47 Dy43 2.310 . S
O47 C48 1.268 . S
C48 O46 1.254 . S
C48 O47 1.268 . S
C49 O54 1.254 . S
C49 O55 1.268 . S
O50 Dy43 2.351 . S
O50 C58 1.249 . S
O51 Dy40 2.326 . S
O51 C58 1.267 . S
O52 C41 1.185 . S
O52 Dy43 2.398 . S
O53 C41 1.355 . S
O53 Dy43 2.491 . S
O54 Dy43 2.403 . S
O54 C49 1.254 . S
O55 Dy40 2.310 . S
O55 Dy43 2.664 . S
O55 C49 1.268 . S
O56 Dy40 2.351 . S
O56 C59 1.249 . S
O57 Dy43 2.326 . S
O57 C59 1.267 . S
C58 O50 1.249 . S
C58 O51 1.267 . S
C59 O56 1.249 . S
C59 O57 1.267 . S
Dy60 O64 2.398 . S
Dy60 O65 2.491 . S
Dy60 O66 2.403 . S
Dy60 O67 2.664 . S
Dy60 O71 2.326 . S
Dy60 O75 2.310 . S
Dy60 O76 2.351 . S
C61 O72 1.185 . S
C61 O73 1.355 . S
C62 O64 1.185 . S
C62 O65 1.355 . S
Dy63 O67 2.310 . S
Dy63 O70 2.351 . S
Dy63 O72 2.398 . S
Dy63 O73 2.491 . S
Dy63 O74 2.403 . S
Dy63 O75 2.664 . S
Dy63 O77 2.326 . S
O64 Dy60 2.398 . S
O64 C62 1.185 . S
O65 Dy60 2.491 . S
O65 C62 1.355 . S
O66 Dy60 2.403 . S
O66 C68 1.254 . S
O67 Dy60 2.664 . S
O67 Dy63 2.310 . S
O67 C68 1.268 . S
C68 O66 1.254 . S
C68 O67 1.268 . S
C69 O74 1.254 . S
C69 O75 1.268 . S
O70 Dy63 2.351 . S
O70 C78 1.249 . S
O71 Dy60 2.326 . S
O71 C78 1.267 . S
O72 C61 1.185 . S
O72 Dy63 2.398 . S
O73 C61 1.355 . S
O73 Dy63 2.491 . S
O74 Dy63 2.403 . S
O74 C69 1.254 . S
O75 Dy60 2.310 . S
O75 Dy63 2.664 . S
O75 C69 1.268 . S
O76 Dy60 2.351 . S
O76 C79 1.249 . S
O77 Dy63 2.326 . S
O77 C79 1.267 . S
C78 O70 1.249 . S
C78 O71 1.267 . S
C79 O76 1.249 . S
C79 O77 1.267 . S
Dy80 O84 2.398 . S
Dy80 O85 2.491 . S
Dy80 O86 2.403 . S
Dy80 O87 2.664 . S
Dy80 O91 2.326 . S
Dy80 O95 2.310 . S
Dy80 O96 2.351 . S
C81 O92 1.185 . S
C81 O93 1.355 . S
C82 O84 1.185 . S
C82 O85 1.355 . S
Dy83 O87 2.310 . S
Dy83 O90 2.351 . S
Dy83 O92 2.398 1_556 S
Dy83 O93 2.491 1_556 S
Dy83 O94 2.403 . S
Dy83 O95 2.664 . S
Dy83 O97 2.326 . S
O84 Dy80 2.398 . S
O84 C82 1.185 . S
O85 Dy80 2.491 . S
O85 C82 1.355 . S
O86 Dy80 2.403 . S
O86 C88 1.254 . S
O87 Dy80 2.664 . S
O87 Dy83 2.310 . S
O87 C88 1.268 . S
C88 O86 1.254 . S
C88 O87 1.268 . S
C89 O94 1.254 . S
C89 O95 1.268 . S
O90 Dy83 2.351 . S
O90 C98 1.249 . S
O91 Dy80 2.326 . S
O91 C98 1.267 . S
O92 C81 1.185 . S
O92 Dy83 2.398 1_554 S
O93 C81 1.355 . S
O93 Dy83 2.491 1_554 S
O94 Dy83 2.403 . S
O94 C89 1.254 . S
O95 Dy80 2.310 . S
O95 Dy83 2.664 . S
O95 C89 1.268 . S
O96 Dy80 2.351 . S
O96 C99 1.249 . S
O97 Dy83 2.326 . S
O97 C99 1.267 . S
C98 O90 1.249 . S
C98 O91 1.267 . S
C99 O96 1.249 . S
C99 O97 1.267 . S
Dy100 O104 2.398 . S
Dy100 O105 2.491 . S
Dy100 O106 2.403 . S
Dy100 O107 2.664 . S
Dy100 O111 2.326 . S
Dy100 O115 2.310 . S
Dy100 O116 2.351 . S
C101 O112 1.185 . S
C101 O113 1.355 . S
C102 O104 1.185 . S
C102 O105 1.355 . S
Dy103 O107 2.310 . S
Dy103 O110 2.351 . S
Dy103 O112 2.398 . S
Dy103 O113 2.491 . S
Dy103 O114 2.403 . S
Dy103 O115 2.664 . S
Dy103 O117 2.326 . S
O104 Dy100 2.398 . S
O104 C102 1.185 . S
O105 Dy100 2.491 . S
O105 C102 1.355 . S
O106 Dy100 2.403 . S
O106 C108 1.254 . S
O107 Dy100 2.664 . S
O107 Dy103 2.310 . S
O107 C108 1.268 . S
C108 O106 1.254 . S
C108 O107 1.268 . S
C109 O114 1.254 . S
C109 O115 1.268 . S
O110 Dy103 2.351 . S
O110 C118 1.249 . S
O111 Dy100 2.326 . S
O111 C118 1.267 . S
O112 C101 1.185 . S
O112 Dy103 2.398 . S
O113 C101 1.355 . S
O113 Dy103 2.491 . S
O114 Dy103 2.403 . S
O114 C109 1.254 . S
O115 Dy100 2.310 . S
O115 Dy103 2.664 . S
O115 C109 1.268 . S
O116 Dy100 2.351 . S
O116 C119 1.249 . S
O117 Dy103 2.326 . S
O117 C119 1.267 . S
C118 O110 1.249 . S
C118 O111 1.267 . S
C119 O116 1.249 . S
C119 O117 1.267 . S
Dy120 O124 2.398 . S
Dy120 O125 2.491 . S
Dy120 O126 2.403 . S
Dy120 O127 2.664 . S
Dy120 O131 2.326 . S
Dy120 O135 2.310 . S
Dy120 O136 2.351 . S
C121 O132 1.185 . S
C121 O133 1.355 . S
C122 O124 1.185 . S
C122 O125 1.355 . S
Dy123 O127 2.310 . S
Dy123 O130 2.351 . S
Dy123 O132 2.398 . S
Dy123 O133 2.491 . S
Dy123 O134 2.403 . S
Dy123 O135 2.664 . S
Dy123 O137 2.326 . S
O124 Dy120 2.398 . S
O124 C122 1.185 . S
O125 Dy120 2.491 . S
O125 C122 1.355 . S
O126 Dy120 2.403 . S
O126 C128 1.254 . S
O127 Dy120 2.664 . S
O127 Dy123 2.310 . S
O127 C128 1.268 . S
C128 O126 1.254 . S
C128 O127 1.268 . S
C129 O134 1.254 . S
C129 O135 1.268 . S
O130 Dy123 2.351 . S
O130 C138 1.249 . S
O131 Dy120 2.326 . S
O131 C138 1.267 . S
O132 C121 1.185 . S
O132 Dy123 2.398 . S
O133 C121 1.355 . S
O133 Dy123 2.491 . S
O134 Dy123 2.403 . S
O134 C129 1.254 . S
O135 Dy120 2.310 . S
O135 Dy123 2.664 . S
O135 C129 1.268 . S
O136 Dy120 2.351 . S
O136 C139 1.249 . S
O137 Dy123 2.326 . S
O137 C139 1.267 . S
C138 O130 1.249 . S
C138 O131 1.267 . S
C139 O136 1.249 . S
C139 O137 1.267 . S
Dy140 O144 2.398 . S
Dy140 O145 2.491 . S
Dy140 O146 2.403 . S
Dy140 O147 2.664 . S
Dy140 O151 2.326 . S
Dy140 O155 2.310 . S
Dy140 O156 2.351 . S
C141 O152 1.185 . S
C141 O153 1.355 . S
C142 O144 1.185 . S
C142 O145 1.355 . S
Dy143 O147 2.310 . S
Dy143 O150 2.351 . S
Dy143 O152 2.398 . S
Dy143 O153 2.491 . S
Dy143 O154 2.403 . S
Dy143 O155 2.664 . S
Dy143 O157 2.326 . S
O144 Dy140 2.398 . S
O144 C142 1.185 . S
O145 Dy140 2.491 . S
O145 C142 1.355 . S
O146 Dy140 2.403 . S
O146 C148 1.254 . S
O147 Dy140 2.664 . S
O147 Dy143 2.310 . S
O147 C148 1.268 . S
C148 O146 1.254 . S
C148 O147 1.268 . S
C149 O154 1.254 . S
C149 O155 1.268 . S
O150 Dy143 2.351 . S
O150 C158 1.249 . S
O151 Dy140 2.326 . S
O151 C158 1.267 . S
O152 C141 1.185 . S
O152 Dy143 2.398 . S
O153 C141 1.355 . S
O153 Dy143 2.491 . S
O154 Dy143 2.403 . S
O154 C149 1.254 . S
O155 Dy140 2.310 . S
O155 Dy143 2.664 . S
O155 C149 1.268 . S
O156 Dy140 2.351 . S
O156 C159 1.249 . S
O157 Dy143 2.326 . S
O157 C159 1.267 . S
C158 O150 1.249 . S
C158 O151 1.267 . S
C159 O156 1.249 . S
C159 O157 1.267 . S
Dy160 O164 2.398 . S
Dy160 O165 2.491 . S
Dy160 O166 2.403 . S
Dy160 O167 2.664 . S
Dy160 O171 2.326 . S
Dy160 O175 2.310 . S
Dy160 O176 2.351 . S
C161 O172 1.185 . S
C161 O173 1.355 . S
C162 O164 1.185 . S
C162 O165 1.355 . S
Dy163 O167 2.310 . S
Dy163 O170 2.351 . S
Dy163 O172 2.398 . S
Dy163 O173 2.491 . S
Dy163 O174 2.403 . S
Dy163 O175 2.664 . S
Dy163 O177 2.326 . S
O164 Dy160 2.398 . S
O164 C162 1.185 . S
O165 Dy160 2.491 . S
O165 C162 1.355 . S
O166 Dy160 2.403 . S
O166 C168 1.254 . S
O167 Dy160 2.664 . S
O167 Dy163 2.310 . S
O167 C168 1.268 . S
C168 O166 1.254 . S
C168 O167 1.268 . S
C169 O174 1.254 . S
C169 O175 1.268 . S
O170 Dy163 2.351 . S
O170 C178 1.249 . S
O171 Dy160 2.326 . S
O171 C178 1.267 . S
O172 C161 1.185 . S
O172 Dy163 2.398 . S
O173 C161 1.355 . S
O173 Dy163 2.491 . S
O174 Dy163 2.403 . S
O174 C169 1.254 . S
O175 Dy160 2.310 . S
O175 Dy163 2.664 . S
O175 C169 1.268 . S
O176 Dy160 2.351 . S
O176 C179 1.249 . S
O177 Dy163 2.326 . S
O177 C179 1.267 . S
C178 O170 1.249 . S
C178 O171 1.267 . S
C179 O176 1.249 . S
C179 O177 1.267 . S
Dy180 O184 2.398 . S
Dy180 O185 2.491 . S
Dy180 O186 2.403 . S
Dy180 O187 2.664 . S
Dy180 O191 2.326 . S
Dy180 O195 2.310 . S
Dy180 O196 2.351 . S
C181 O192 1.185 . S
C181 O193 1.355 . S
C182 O184 1.185 . S
C182 O185 1.355 . S
Dy183 O187 2.310 . S
Dy183 O190 2.351 . S
Dy183 O192 2.398 . S
Dy183 O193 2.491 . S
Dy183 O194 2.403 . S
Dy183 O195 2.664 . S
Dy183 O197 2.326 . S
O184 Dy180 2.398 . S
O184 C182 1.185 . S
O185 Dy180 2.491 . S
O185 C182 1.355 . S
O186 Dy180 2.403 . S
O186 C188 1.254 . S
O187 Dy180 2.664 . S
O187 Dy183 2.310 . S
O187 C188 1.268 . S
C188 O186 1.254 . S
C188 O187 1.268 . S
C189 O194 1.254 . S
C189 O195 1.268 . S
O190 Dy183 2.351 . S
O190 C198 1.249 . S
O191 Dy180 2.326 . S
O191 C198 1.267 . S
O192 C181 1.185 . S
O192 Dy183 2.398 . S
O193 C181 1.355 . S
O193 Dy183 2.491 . S
O194 Dy183 2.403 . S
O194 C189 1.254 . S
O195 Dy180 2.310 . S
O195 Dy183 2.664 . S
O195 C189 1.268 . S
O196 Dy180 2.351 . S
O196 C199 1.249 . S
O197 Dy183 2.326 . S
O197 C199 1.267 . S
C198 O190 1.249 . S
C198 O191 1.267 . S
C199 O196 1.249 . S
C199 O197 1.267 . S
Dy200 O204 2.398 1_554 S
Dy200 O205 2.491 1_554 S
Dy200 O206 2.403 . S
Dy200 O207 2.664 . S
Dy200 O211 2.326 . S
Dy200 O215 2.310 . S
Dy200 O216 2.351 . S
C201 O212 1.185 . S
C201 O213 1.355 . S
C202 O204 1.185 . S
C202 O205 1.355 . S
Dy203 O207 2.310 . S
Dy203 O210 2.351 . S
Dy203 O212 2.398 . S
Dy203 O213 2.491 . S
Dy203 O214 2.403 . S
Dy203 O215 2.664 . S
Dy203 O217 2.326 . S
O204 Dy200 2.398 1_556 S
O204 C202 1.185 . S
O205 Dy200 2.491 1_556 S
O205 C202 1.355 . S
O206 Dy200 2.403 . S
O206 C208 1.254 . S
O207 Dy200 2.664 . S
O207 Dy203 2.310 . S
O207 C208 1.268 . S
C208 O206 1.254 . S
C208 O207 1.268 . S
C209 O214 1.254 . S
C209 O215 1.268 . S
O210 Dy203 2.351 . S
O210 C218 1.249 . S
O211 Dy200 2.326 . S
O211 C218 1.267 . S
O212 C201 1.185 . S
O212 Dy203 2.398 . S
O213 C201 1.355 . S
O213 Dy203 2.491 . S
O214 Dy203 2.403 . S
O214 C209 1.254 . S
O215 Dy200 2.310 . S
O215 Dy203 2.664 . S
O215 C209 1.268 . S
O216 Dy200 2.351 . S
O216 C219 1.249 . S
O217 Dy203 2.326 . S
O217 C219 1.267 . S
C218 O210 1.249 . S
C218 O211 1.267 . S
C219 O216 1.249 . S
C219 O217 1.267 . S
Dy220 O224 2.398 . S
Dy220 O225 2.491 . S
Dy220 O226 2.403 . S
Dy220 O227 2.664 . S
Dy220 O231 2.326 . S
Dy220 O235 2.310 . S
Dy220 O236 2.351 . S
C221 O232 1.185 . S
C221 O233 1.355 . S
C222 O224 1.185 . S
C222 O225 1.355 . S
Dy223 O227 2.310 . S
Dy223 O230 2.351 . S
Dy223 O232 2.398 . S
Dy223 O233 2.491 . S
Dy223 O234 2.403 . S
Dy223 O235 2.664 . S
Dy223 O237 2.326 . S
O224 Dy220 2.398 . S
O224 C222 1.185 . S
O225 Dy220 2.491 . S
O225 C222 1.355 . S
O226 Dy220 2.403 . S
O226 C228 1.254 . S
O227 Dy220 2.664 . S
O227 Dy223 2.310 . S
O227 C228 1.268 . S
C228 O226 1.254 . S
C228 O227 1.268 . S
C229 O234 1.254 . S
C229 O235 1.268 . S
O230 Dy223 2.351 . S
O230 C238 1.249 . S
O231 Dy220 2.326 . S
O231 C238 1.267 . S
O232 C221 1.185 . S
O232 Dy223 2.398 . S
O233 C221 1.355 . S
O233 Dy223 2.491 . S
O234 Dy223 2.403 . S
O234 C229 1.254 . S
O235 Dy220 2.310 . S
O235 Dy223 2.664 . S
O235 C229 1.268 . S
O236 Dy220 2.351 . S
O236 C239 1.249 . S
O237 Dy223 2.326 . S
O237 C239 1.267 . S
C238 O230 1.249 . S
C238 O231 1.267 . S
C239 O236 1.249 . S
C239 O237 1.267 . S
Dy240 O244 2.398 . S
Dy240 O245 2.491 . S
Dy240 O246 2.403 . S
Dy240 O247 2.664 . S
Dy240 O251 2.326 . S
Dy240 O255 2.310 . S
Dy240 O256 2.351 . S
C241 O252 1.185 . S
C241 O253 1.355 . S
C242 O244 1.185 . S
C242 O245 1.355 . S
Dy243 O247 2.310 . S
Dy243 O250 2.351 . S
Dy243 O252 2.398 . S
Dy243 O253 2.491 . S
Dy243 O254 2.403 . S
Dy243 O255 2.664 . S
Dy243 O257 2.326 . S
O244 Dy240 2.398 . S
O244 C242 1.185 . S
O245 Dy240 2.491 . S
O245 C242 1.355 . S
O246 Dy240 2.403 . S
O246 C248 1.254 . S
O247 Dy240 2.664 . S
O247 Dy243 2.310 . S
O247 C248 1.268 . S
C248 O246 1.254 . S
C248 O247 1.268 . S
C249 O254 1.254 . S
C249 O255 1.268 . S
O250 Dy243 2.351 . S
O250 C258 1.249 . S
O251 Dy240 2.326 . S
O251 C258 1.267 . S
O252 C241 1.185 . S
O252 Dy243 2.398 . S
O253 C241 1.355 . S
O253 Dy243 2.491 . S
O254 Dy243 2.403 . S
O254 C249 1.254 . S
O255 Dy240 2.310 . S
O255 Dy243 2.664 . S
O255 C249 1.268 . S
O256 Dy240 2.351 . S
O256 C259 1.249 . S
O257 Dy243 2.326 . S
O257 C259 1.267 . S
C258 O250 1.249 . S
C258 O251 1.267 . S
C259 O256 1.249 . S
C259 O257 1.267 . S
Dy260 O264 2.398 . S
Dy260 O265 2.491 . S
Dy260 O266 2.403 . S
Dy260 O267 2.664 . S
Dy260 O271 2.326 . S
Dy260 O275 2.310 . S
Dy260 O276 2.351 . S
C261 O272 1.185 . S
C261 O273 1.355 . S
C262 O264 1.185 . S
C262 O265 1.355 . S
Dy263 O267 2.310 . S
Dy263 O270 2.351 . S
Dy263 O272 2.398 . S
Dy263 O273 2.491 . S
Dy263 O274 2.403 . S
Dy263 O275 2.664 . S
Dy263 O277 2.326 . S
O264 Dy260 2.398 . S
O264 C262 1.185 . S
O265 Dy260 2.491 . S
O265 C262 1.355 . S
O266 Dy260 2.403 . S
O266 C268 1.254 . S
O267 Dy260 2.664 . S
O267 Dy263 2.310 . S
O267 C268 1.268 . S
C268 O266 1.254 . S
C268 O267 1.268 . S
C269 O274 1.254 . S
C269 O275 1.268 . S
O270 Dy263 2.351 . S
O270 C278 1.249 . S
O271 Dy260 2.326 . S
O271 C278 1.267 . S
O272 C261 1.185 . S
O272 Dy263 2.398 . S
O273 C261 1.355 . S
O273 Dy263 2.491 . S
O274 Dy263 2.403 . S
O274 C269 1.254 . S
O275 Dy260 2.310 . S
O275 Dy263 2.664 . S
O275 C269 1.268 . S
O276 Dy260 2.351 . S
O276 C279 1.249 . S
O277 Dy263 2.326 . S
O277 C279 1.267 . S
C278 O270 1.249 . S
C278 O271 1.267 . S
C279 O276 1.249 . S
C279 O277 1.267 . S
Dy280 O284 2.398 . S
Dy280 O285 2.491 . S
Dy280 O286 2.403 . S
Dy280 O287 2.664 . S
Dy280 O291 2.326 . S
Dy280 O295 2.310 . S
Dy280 O296 2.351 . S
C281 O292 1.185 . S
C281 O293 1.355 . S
C282 O284 1.185 . S
C282 O285 1.355 . S
Dy283 O287 2.310 . S
Dy283 O290 2.351 . S
Dy283 O292 2.398 1_556 S
Dy283 O293 2.491 1_556 S
Dy283 O294 2.403 . S
Dy283 O295 2.664 . S
Dy283 O297 2.326 . S
O284 Dy280 2.398 . S
O284 C282 1.185 . S
O285 Dy280 2.491 . S
O285 C282 1.355 . S
O286 Dy280 2.403 . S
O286 C288 1.254 . S
O287 Dy280 2.664 . S
O287 Dy283 2.310 . S
O287 C288 1.268 . S
C288 O286 1.254 . S
C288 O287 1.268 . S
C289 O294 1.254 . S
C289 O295 1.268 . S
O290 Dy283 2.351 . S
O290 C298 1.249 . S
O291 Dy280 2.326 . S
O291 C298 1.267 . S
O292 C281 1.185 . S
O292 Dy283 2.398 1_554 S
O293 C281 1.355 . S
O293 Dy283 2.491 1_554 S
O294 Dy283 2.403 . S
O294 C289 1.254 . S
O295 Dy280 2.310 . S
O295 Dy283 2.664 . S
O295 C289 1.268 . S
O296 Dy280 2.351 . S
O296 C299 1.249 . S
O297 Dy283 2.326 . S
O297 C299 1.267 . S
C298 O290 1.249 . S
C298 O291 1.267 . S
C299 O296 1.249 . S
C299 O297 1.267 . S
Dy300 O304 2.398 . S
Dy300 O305 2.491 . S
Dy300 O306 2.403 . S
Dy300 O307 2.664 . S
Dy300 O311 2.326 . S
Dy300 O315 2.310 . S
Dy300 O316 2.351 . S
C301 O312 1.185 . S
C301 O313 1.355 . S
C302 O304 1.185 . S
C302 O305 1.355 . S
Dy303 O307 2.310 . S
Dy303 O310 2.351 . S
Dy303 O312 2.398 . S
Dy303 O313 2.491 . S
Dy303 O314 2.403 . S
Dy303 O315 2.664 . S
Dy303 O317 2.326 . S
O304 Dy300 2.398 . S
O304 C302 1.185 . S
O305 Dy300 2.491 . S
O305 C302 1.355 . S
O306 Dy300 2.403 . S
O306 C308 1.254 . S
O307 Dy300 2.664 . S
O307 Dy303 2.310 . S
O307 C308 1.268 . S
C308 O306 1.254 . S
C308 O307 1.268 . S
C309 O314 1.254 . S
C309 O315 1.268 . S
O310 Dy303 2.351 . S
O310 C318 1.249 . S
O311 Dy300 2.326 . S
O311 C318 1.267 . S
O312 C301 1.185 . S
O312 Dy303 2.398 . S
O313 C301 1.355 . S
O313 Dy303 2.491 . S
O314 Dy303 2.403 . S
O314 C309 1.254 . S
O315 Dy300 2.310 . S
O315 Dy303 2.664 . S
O315 C309 1.268 . S
O316 Dy300 2.351 . S
O316 C319 1.249 . S
O317 Dy303 2.326 . S
O317 C319 1.267 . S
C318 O310 1.249 . S
C318 O311 1.267 . S
C319 O316 1.249 . S
C319 O317 1.267 . S
C320 C321 1.391 . S
C320 C322 1.394 . S
C320 H336 0.931 . S
C321 C320 1.391 . S
C321 C325 1.376 . S
C322 C320 1.394 . S
C322 C323 1.369 . S
C322 C326 1.531 . S
C323 C322 1.369 . S
C323 C324 1.410 . S
C323 C331 1.503 . S
C324 C323 1.410 . S
C324 C325 1.392 . S
C324 C327 1.511 . S
C325 C321 1.376 . S
C325 C324 1.392 . S
C325 H337 0.929 . S
C326 C322 1.531 . S
C326 H338 0.960 . S
C326 H339 0.962 . S
C326 H340 0.960 . S
C327 C324 1.511 . S
C327 H341 0.961 . S
C327 H342 0.961 . S
C327 H343 0.961 . S
C328 C329 1.370 . S
C328 C330 1.363 . S
C328 H344 0.931 . S
C329 C328 1.370 . S
C329 C333 1.408 . S
C330 C328 1.363 . S
C330 C331 1.370 . S
C330 C334 1.509 1_554 S
C331 C323 1.503 . S
C331 C330 1.370 . S
C331 C332 1.403 . S
C332 C331 1.403 . S
C332 C333 1.404 . S
C332 C335 1.539 . S
C333 C329 1.408 . S
C333 C332 1.404 . S
C333 H345 0.930 . S
C334 C330 1.509 1_556 S
C334 H346 0.961 . S
C334 H347 0.957 1_556 S
C334 H348 0.975 . S
C335 C332 1.539 . S
C335 H349 0.958 . S
C335 H350 0.961 . S
C335 H351 0.960 . S
H336 C320 0.931 . S
H337 C325 0.929 . S
H338 C326 0.960 . S
H339 C326 0.962 . S
H340 C326 0.960 . S
H341 C327 0.961 . S
H342 C327 0.961 . S
H343 C327 0.961 . S
H344 C328 0.931 . S
H345 C333 0.930 . S
H346 C334 0.961 . S
H347 C334 0.957 1_554 S
H348 C334 0.975 . S
H349 C335 0.958 . S
H350 C335 0.961 . S
H351 C335 0.960 . S
C352 C353 1.391 . S
C352 C354 1.394 . S
C352 H368 0.931 . S
C353 C352 1.391 . S
C353 C357 1.376 . S
C354 C352 1.394 . S
C354 C355 1.369 . S
C354 C358 1.531 . S
C355 C354 1.369 . S
C355 C356 1.410 . S
C355 C363 1.503 . S
C356 C355 1.410 . S
C356 C357 1.392 . S
C356 C359 1.511 . S
C357 C353 1.376 . S
C357 C356 1.392 . S
C357 H369 0.929 . S
C358 C354 1.531 . S
C358 H370 0.960 . S
C358 H371 0.962 . S
C358 H372 0.960 . S
C359 C356 1.511 . S
C359 H373 0.961 . S
C359 H374 0.961 . S
C359 H375 0.961 . S
C360 C361 1.370 . S
C360 C362 1.363 . S
C360 H376 0.931 . S
C361 C360 1.370 . S
C361 C365 1.408 . S
C362 C360 1.363 . S
C362 C363 1.370 . S
C362 C366 1.524 . S
C363 C355 1.503 . S
C363 C362 1.370 . S
C363 C364 1.403 . S
C364 C363 1.403 . S
C364 C365 1.404 . S
C364 C367 1.539 . S
C365 C361 1.408 . S
C365 C364 1.404 . S
C365 H377 0.930 . S
C366 C362 1.524 . S
C366 H378 0.956 . S
C366 H379 0.961 . S
C366 H380 0.961 . S
C367 C364 1.539 . S
C367 H381 0.958 . S
C367 H382 0.961 . S
C367 H383 0.960 . S
H368 C352 0.931 . S
H369 C357 0.929 . S
H370 C358 0.960 . S
H371 C358 0.962 . S
H372 C358 0.960 . S
H373 C359 0.961 . S
H374 C359 0.961 . S
H375 C359 0.961 . S
H376 C360 0.931 . S
H377 C365 0.930 . S
H378 C366 0.956 . S
H379 C366 0.961 . S
H380 C366 0.961 . S
H381 C367 0.958 . S
H382 C367 0.961 . S
H383 C367 0.960 . S
C384 C385 1.391 . S
C384 C386 1.394 . S
C384 H400 0.931 . S
C385 C384 1.391 . S
C385 C389 1.376 . S
C386 C384 1.394 . S
C386 C387 1.369 . S
C386 C390 1.531 1_455 S
C387 C386 1.369 . S
C387 C388 1.410 . S
C387 C395 1.503 1_455 S
C388 C387 1.410 . S
C388 C389 1.392 . S
C388 C391 1.511 . S
C389 C385 1.376 . S
C389 C388 1.392 . S
C389 H401 0.929 . S
C390 C386 1.531 1_655 S
C390 H402 0.960 . S
C390 H403 0.962 . S
C390 H404 0.960 . S
C391 C388 1.511 . S
C391 H405 0.961 . S
C391 H406 0.961 . S
C391 H407 0.961 . S
C392 C393 1.370 . S
C392 C394 1.363 . S
C392 H408 0.931 . S
C393 C392 1.370 . S
C393 C397 1.408 . S
C394 C392 1.363 . S
C394 C395 1.370 . S
C394 C398 1.524 . S
C395 C387 1.503 1_655 S
C395 C394 1.370 . S
C395 C396 1.403 . S
C396 C395 1.403 . S
C396 C397 1.404 . S
C396 C399 1.539 1_655 S
C397 C393 1.408 . S
C397 C396 1.404 . S
C397 H409 0.930 . S
C398 C394 1.524 . S
C398 H410 0.956 . S
C398 H411 0.961 . S
C398 H412 0.961 . S
C399 C396 1.539 1_455 S
C399 H413 0.958 1_455 S
C399 H414 0.961 . S
C399 H415 0.960 . S
H400 C384 0.931 . S
H401 C389 0.929 . S
H402 C390 0.960 . S
H403 C390 0.962 . S
H404 C390 0.960 . S
H405 C391 0.961 . S
H406 C391 0.961 . S
H407 C391 0.961 . S
H408 C392 0.931 . S
H409 C397 0.930 . S
H410 C398 0.956 . S
H411 C398 0.961 . S
H412 C398 0.961 . S
H413 C399 0.958 1_655 S
H414 C399 0.961 . S
H415 C399 0.960 . S
C416 C417 1.391 . S
C416 C418 1.394 . S
C416 H432 0.931 . S
C417 C416 1.391 . S
C417 C421 1.376 . S
C418 C416 1.394 . S
C418 C419 1.369 . S
C418 C422 1.531 . S
C419 C418 1.369 . S
C419 C420 1.410 . S
C419 C427 1.503 1_655 S
C420 C419 1.410 . S
C420 C421 1.392 . S
C420 C423 1.511 1_655 S
C421 C417 1.376 . S
C421 C420 1.392 . S
C421 H433 0.929 . S
C422 C418 1.531 . S
C422 H434 0.960 . S
C422 H435 0.962 . S
C422 H436 0.960 . S
C423 C420 1.511 1_455 S
C423 H437 0.961 . S
C423 H438 0.961 . S
C423 H439 0.961 . S
C424 C425 1.370 . S
C424 C426 1.363 . S
C424 H440 0.931 . S
C425 C424 1.370 . S
C425 C429 1.408 . S
C426 C424 1.363 . S
C426 C427 1.370 . S
C426 C430 1.524 1_455 S
C427 C419 1.503 1_455 S
C427 C426 1.370 . S
C427 C428 1.403 . S
C428 C427 1.403 . S
C428 C429 1.404 . S
C428 C431 1.539 . S
C429 C425 1.408 . S
C429 C428 1.404 . S
C429 H441 0.930 . S
C430 C426 1.524 1_655 S
C430 H442 0.956 . S
C430 H443 0.961 . S
C430 H444 0.971 . S
C431 C428 1.539 . S
C431 H445 0.958 . S
C431 H446 0.961 . S
C431 H447 0.960 . S
H432 C416 0.931 . S
H433 C421 0.929 . S
H434 C422 0.960 . S
H435 C422 0.962 . S
H436 C422 0.960 . S
H437 C423 0.961 . S
H438 C423 0.961 . S
H439 C423 0.961 . S
H440 C424 0.931 . S
H441 C429 0.930 . S
H442 C430 0.956 . S
H443 C430 0.961 . S
H444 C430 0.971 . S
H445 C431 0.958 . S
H446 C431 0.961 . S
H447 C431 0.960 . S
C448 C449 1.391 . S
C448 C450 1.394 . S
C448 H464 0.931 . S
C449 C448 1.391 . S
C449 C453 1.376 . S
C450 C448 1.394 . S
C450 C451 1.369 . S
C450 C454 1.531 . S
C451 C450 1.369 . S
C451 C452 1.410 . S
C451 C459 1.503 . S
C452 C451 1.410 . S
C452 C453 1.392 . S
C452 C455 1.511 . S
C453 C449 1.376 . S
C453 C452 1.392 . S
C453 H465 0.929 . S
C454 C450 1.531 . S
C454 H466 0.960 . S
C454 H467 0.962 . S
C454 H468 0.960 . S
C455 C452 1.511 . S
C455 H469 0.961 . S
C455 H470 0.961 . S
C455 H471 0.961 1_556 S
C456 C457 1.370 . S
C456 C458 1.363 . S
C456 H472 0.931 . S
C457 C456 1.370 . S
C457 C461 1.408 . S
C458 C456 1.363 . S
C458 C459 1.370 . S
C458 C462 1.524 . S
C459 C451 1.503 . S
C459 C458 1.370 . S
C459 C460 1.403 . S
C460 C459 1.403 . S
C460 C461 1.404 . S
C460 C463 1.539 1_556 S
C461 C457 1.408 . S
C461 C460 1.404 . S
C461 H473 0.930 . S
C462 C458 1.524 . S
C462 H474 0.956 . S
C462 H475 0.961 . S
C462 H476 0.961 . S
C463 C460 1.539 1_554 S
C463 H477 0.958 . S
C463 H478 0.961 . S
C463 H479 0.960 . S
H464 C448 0.931 . S
H465 C453 0.929 . S
H466 C454 0.960 . S
H467 C454 0.962 . S
H468 C454 0.960 . S
H469 C455 0.961 . S
H470 C455 0.961 . S
H471 C455 0.961 1_554 S
H472 C456 0.931 . S
H473 C461 0.930 . S
H474 C462 0.956 . S
H475 C462 0.961 . S
H476 C462 0.961 . S
H477 C463 0.958 . S
H478 C463 0.961 . S
H479 C463 0.960 . S
C480 C481 1.391 . S
C480 C482 1.394 . S
C480 H496 0.931 . S
C481 C480 1.391 . S
C481 C485 1.376 . S
C482 C480 1.394 . S
C482 C483 1.369 . S
C482 C486 1.531 . S
C483 C482 1.369 . S
C483 C484 1.410 . S
C483 C491 1.503 . S
C484 C483 1.410 . S
C484 C485 1.392 . S
C484 C487 1.511 . S
C485 C481 1.376 . S
C485 C484 1.392 . S
C485 H497 0.929 . S
C486 C482 1.531 . S
C486 H498 0.960 . S
C486 H499 0.962 . S
C486 H500 0.960 . S
C487 C484 1.511 . S
C487 H501 0.961 . S
C487 H502 0.961 . S
C487 H503 0.961 . S
C488 C489 1.370 . S
C488 C490 1.363 . S
C488 H504 0.931 . S
C489 C488 1.370 . S
C489 C493 1.408 . S
C490 C488 1.363 . S
C490 C491 1.370 . S
C490 C494 1.524 . S
C491 C483 1.503 . S
C491 C490 1.370 . S
C491 C492 1.403 . S
C492 C491 1.403 . S
C492 C493 1.404 . S
C492 C495 1.539 . S
C493 C489 1.408 . S
C493 C492 1.404 . S
C493 H505 0.930 . S
C494 C490 1.524 . S
C494 H506 0.956 . S
C494 H507 0.961 . S
C494 H508 0.961 . S
C495 C492 1.539 . S
C495 H509 0.958 . S
C495 H510 0.961 . S
C495 H511 0.960 . S
H496 C480 0.931 . S
H497 C485 0.929 . S
H498 C486 0.960 . S
H499 C486 0.962 . S
H500 C486 0.960 . S
H501 C487 0.961 . S
H502 C487 0.961 . S
H503 C487 0.961 . S
H504 C488 0.931 . S
H505 C493 0.930 . S
H506 C494 0.956 . S
H507 C494 0.961 . S
H508 C494 0.961 . S
H509 C495 0.958 . S
H510 C495 0.961 . S
H511 C495 0.960 . S
C512 C513 1.391 . S
C512 C514 1.394 . S
C512 H528 0.931 . S
C513 C512 1.391 . S
C513 C517 1.376 . S
C514 C512 1.394 . S
C514 C515 1.369 . S
C514 C518 1.531 1_655 S
C515 C514 1.369 . S
C515 C516 1.410 . S
C515 C523 1.503 1_655 S
C516 C515 1.410 . S
C516 C517 1.392 . S
C516 C519 1.511 . S
C517 C513 1.376 . S
C517 C516 1.392 . S
C517 H529 0.929 . S
C518 C514 1.531 1_455 S
C518 H530 0.960 . S
C518 H531 0.962 . S
C518 H532 0.960 1_455 S
C519 C516 1.511 . S
C519 H533 0.961 . S
C519 H534 0.961 . S
C519 H535 0.961 . S
C520 C521 1.370 . S
C520 C522 1.363 . S
C520 H536 0.931 . S
C521 C520 1.370 . S
C521 C525 1.408 . S
C522 C520 1.363 . S
C522 C523 1.370 . S
C522 C526 1.524 . S
C523 C515 1.503 1_455 S
C523 C522 1.370 . S
C523 C524 1.403 . S
C524 C523 1.403 . S
C524 C525 1.404 . S
C524 C527 1.539 1_455 S
C525 C521 1.408 . S
C525 C524 1.404 . S
C525 H537 0.930 . S
C526 C522 1.524 . S
C526 H538 0.956 . S
C526 H539 0.961 . S
C526 H540 0.961 . S
C527 C524 1.539 1_655 S
C527 H541 0.958 . S
C527 H542 0.961 . S
C527 H543 0.960 . S
H528 C512 0.931 . S
H529 C517 0.929 . S
H530 C518 0.960 . S
H531 C518 0.962 . S
H532 C518 0.960 1_655 S
H533 C519 0.961 . S
H534 C519 0.961 . S
H535 C519 0.961 . S
H536 C520 0.931 . S
H537 C525 0.930 . S
H538 C526 0.956 . S
H539 C526 0.961 . S
H540 C526 0.961 . S
H541 C527 0.958 . S
H542 C527 0.961 . S
H543 C527 0.960 . S
C544 C545 1.391 . S
C544 C546 1.394 . S
C544 H560 0.931 . S
C545 C544 1.391 . S
C545 C549 1.376 . S
C546 C544 1.394 . S
C546 C547 1.369 . S
C546 C550 1.531 . S
C547 C546 1.369 . S
C547 C548 1.410 . S
C547 C555 1.503 1_455 S
C548 C547 1.410 . S
C548 C549 1.392 . S
C548 C551 1.511 . S
C549 C545 1.376 . S
C549 C548 1.392 . S
C549 H561 0.929 . S
C550 C546 1.531 . S
C550 H562 0.960 1_455 S
C550 H563 0.962 . S
C550 H564 0.960 . S
C551 C548 1.511 . S
C551 H565 0.961 . S
C551 H566 0.961 1_455 S
C551 H567 0.961 1_455 S
C552 C553 1.370 . S
C552 C554 1.363 . S
C552 H568 0.931 . S
C553 C552 1.370 . S
C553 C557 1.408 . S
C554 C552 1.363 . S
C554 C555 1.370 . S
C554 C558 1.524 1_655 S
C555 C547 1.503 1_655 S
C555 C554 1.370 . S
C555 C556 1.403 . S
C556 C555 1.403 . S
C556 C557 1.404 . S
C556 C559 1.539 . S
C557 C553 1.408 . S
C557 C556 1.404 . S
C557 H569 0.930 . S
C558 C554 1.524 1_455 S
C558 H570 0.956 . S
C558 H571 0.961 . S
C558 H572 0.961 . S
C559 C556 1.539 . S
C559 H573 0.958 . S
C559 H574 0.961 . S
C559 H575 0.960 . S
H560 C544 0.931 . S
H561 C549 0.929 . S
H562 C550 0.960 1_655 S
H563 C550 0.962 . S
H564 C550 0.960 . S
H565 C551 0.961 . S
H566 C551 0.961 1_655 S
H567 C551 0.961 1_655 S
H568 C552 0.931 . S
H569 C557 0.930 . S
H570 C558 0.956 . S
H571 C558 0.961 . S
H572 C558 0.961 . S
H573 C559 0.958 . S
H574 C559 0.961 . S
H575 C559 0.960 . S
C576 C577 1.391 . S
C576 C578 1.394 . S
C576 H592 0.931 . S
C577 C576 1.391 . S
C577 C581 1.376 . S
C578 C576 1.394 . S
C578 C579 1.369 . S
C578 C582 1.531 . S
C579 C578 1.369 . S
C579 C580 1.410 . S
C579 C587 1.503 . S
C580 C579 1.410 . S
C580 C581 1.392 . S
C580 C583 1.511 1_556 S
C581 C577 1.376 . S
C581 C580 1.392 . S
C581 H593 0.929 . S
C582 C578 1.531 . S
C582 H594 0.960 . S
C582 H595 0.962 . S
C582 H596 0.960 . S
C583 C580 1.511 1_554 S
C583 H597 0.961 . S
C583 H598 0.961 . S
C583 H599 0.961 . S
C584 C585 1.370 1_556 S
C584 C586 1.363 . S
C584 H600 0.928 1_556 S
C585 C584 1.370 1_554 S
C585 C589 1.408 1_554 S
C586 C584 1.363 . S
C586 C587 1.370 . S
C586 C590 1.524 . S
C587 C579 1.503 . S
C587 C586 1.370 . S
C587 C588 1.403 . S
C588 C587 1.403 . S
C588 C589 1.404 . S
C588 C591 1.539 . S
C589 C585 1.408 1_556 S
C589 C588 1.404 . S
C589 H601 0.930 . S
C590 C586 1.524 . S
C590 H602 0.956 . S
C590 H603 0.961 . S
C590 H604 0.961 . S
C591 C588 1.539 . S
C591 H605 0.958 . S
C591 H606 0.961 . S
C591 H607 0.960 . S
H592 C576 0.931 . S
H593 C581 0.929 . S
H594 C582 0.960 . S
H595 C582 0.962 . S
H596 C582 0.960 . S
H597 C583 0.961 . S
H598 C583 0.961 . S
H599 C583 0.961 . S
H600 C584 0.928 1_554 S
H601 C589 0.930 . S
H602 C590 0.956 . S
H603 C590 0.961 . S
H604 C590 0.961 . S
H605 C591 0.958 . S
H606 C591 0.961 . S
H607 C591 0.960 . S
C608 C609 1.391 . S
C608 C610 1.394 . S
C608 H624 0.931 . S
C609 C608 1.391 . S
C609 C613 1.376 . S
C610 C608 1.394 . S
C610 C611 1.369 . S
C610 C614 1.531 . S
C611 C610 1.369 . S
C611 C612 1.410 . S
C611 C619 1.503 . S
C612 C611 1.410 . S
C612 C613 1.392 . S
C612 C615 1.511 . S
C613 C609 1.376 . S
C613 C612 1.392 . S
C613 H625 0.929 . S
C614 C610 1.531 . S
C614 H626 0.960 . S
C614 H627 0.962 . S
C614 H628 0.960 . S
C615 C612 1.511 . S
C615 H629 0.961 . S
C615 H630 0.961 . S
C615 H631 0.961 . S
C616 C617 1.370 . S
C616 C618 1.363 . S
C616 H632 0.931 . S
C617 C616 1.370 . S
C617 C621 1.408 . S
C618 C616 1.363 . S
C618 C619 1.370 . S
C618 C622 1.524 . S
C619 C611 1.503 . S
C619 C618 1.370 . S
C619 C620 1.403 . S
C620 C619 1.403 . S
C620 C621 1.404 . S
C620 C623 1.539 . S
C621 C617 1.408 . S
C621 C620 1.404 . S
C621 H633 0.930 . S
C622 C618 1.524 . S
C622 H634 0.956 . S
C622 H635 0.961 . S
C622 H636 0.961 . S
C623 C620 1.539 . S
C623 H637 0.958 . S
C623 H638 0.961 . S
C623 H639 0.960 . S
H624 C608 0.931 . S
H625 C613 0.929 . S
H626 C614 0.960 . S
H627 C614 0.962 . S
H628 C614 0.960 . S
H629 C615 0.961 . S
H630 C615 0.961 . S
H631 C615 0.961 . S
H632 C616 0.931 . S
H633 C621 0.930 . S
H634 C622 0.956 . S
H635 C622 0.961 . S
H636 C622 0.961 . S
H637 C623 0.958 . S
H638 C623 0.961 . S
H639 C623 0.960 . S
C640 C641 1.391 . S
C640 C642 1.394 . S
C640 H656 0.931 . S
C641 C640 1.391 . S
C641 C645 1.376 . S
C642 C640 1.394 . S
C642 C643 1.369 . S
C642 C646 1.531 . S
C643 C642 1.369 . S
C643 C644 1.410 . S
C643 C651 1.503 . S
C644 C643 1.410 . S
C644 C645 1.392 . S
C644 C647 1.511 . S
C645 C641 1.376 . S
C645 C644 1.392 . S
C645 H657 0.929 . S
C646 C642 1.531 . S
C646 H658 0.960 . S
C646 H659 0.962 . S
C646 H660 0.960 . S
C647 C644 1.511 . S
C647 H661 0.961 . S
C647 H662 0.961 . S
C647 H663 0.961 . S
C648 C649 1.370 . S
C648 C650 1.363 . S
C648 H664 0.931 . S
C649 C648 1.370 . S
C649 C653 1.408 . S
C650 C648 1.363 . S
C650 C651 1.370 . S
C650 C654 1.524 . S
C651 C643 1.503 . S
C651 C650 1.370 . S
C651 C652 1.403 . S
C652 C651 1.403 . S
C652 C653 1.404 . S
C652 C655 1.539 . S
C653 C649 1.408 . S
C653 C652 1.404 . S
C653 H665 0.930 . S
C654 C650 1.524 . S
C654 H666 0.956 . S
C654 H667 0.961 . S
C654 H668 0.961 . S
C655 C652 1.539 . S
C655 H669 0.958 . S
C655 H670 0.961 . S
C655 H671 0.960 . S
H656 C640 0.931 . S
H657 C645 0.929 . S
H658 C646 0.960 . S
H659 C646 0.962 . S
H660 C646 0.960 . S
H661 C647 0.961 . S
H662 C647 0.961 . S
H663 C647 0.961 . S
H664 C648 0.931 . S
H665 C653 0.930 . S
H666 C654 0.956 . S
H667 C654 0.961 . S
H668 C654 0.961 . S
H669 C655 0.958 . S
H670 C655 0.961 . S
H671 C655 0.960 . S
C672 C673 1.391 . S
C672 C674 1.394 . S
C672 H688 0.931 . S
C673 C672 1.391 . S
C673 C677 1.376 . S
C674 C672 1.394 . S
C674 C675 1.369 . S
C674 C678 1.531 . S
C675 C674 1.369 . S
C675 C676 1.410 . S
C675 C683 1.503 . S
C676 C675 1.410 . S
C676 C677 1.392 . S
C676 C679 1.511 . S
C677 C673 1.376 . S
C677 C676 1.392 . S
C677 H689 0.929 . S
C678 C674 1.531 . S
C678 H690 0.960 . S
C678 H691 0.962 . S
C678 H692 0.960 . S
C679 C676 1.511 . S
C679 H693 0.961 . S
C679 H694 0.961 . S
C679 H695 0.961 . S
C680 C681 1.370 . S
C680 C682 1.363 . S
C680 H696 0.931 . S
C681 C680 1.370 . S
C681 C685 1.408 . S
C682 C680 1.363 . S
C682 C683 1.370 . S
C682 C686 1.524 . S
C683 C675 1.503 . S
C683 C682 1.370 . S
C683 C684 1.403 . S
C684 C683 1.403 . S
C684 C685 1.404 . S
C684 C687 1.539 . S
C685 C681 1.408 . S
C685 C684 1.404 . S
C685 H697 0.930 . S
C686 C682 1.524 . S
C686 H698 0.956 . S
C686 H699 0.961 . S
C686 H700 0.961 . S
C687 C684 1.539 . S
C687 H701 0.958 . S
C687 H702 0.961 . S
C687 H703 0.960 . S
H688 C672 0.931 . S
H689 C677 0.929 . S
H690 C678 0.960 . S
H691 C678 0.962 . S
H692 C678 0.960 . S
H693 C679 0.961 . S
H694 C679 0.961 . S
H695 C679 0.961 . S
H696 C680 0.931 . S
H697 C685 0.930 . S
H698 C686 0.956 . S
H699 C686 0.961 . S
H700 C686 0.961 . S
H701 C687 0.958 . S
H702 C687 0.961 . S
H703 C687 0.960 . S
C704 C705 1.391 . S
C704 C706 1.394 . S
C704 H720 0.931 . S
C705 C704 1.391 . S
C705 C709 1.376 1_556 S
C706 C704 1.394 . S
C706 C707 1.369 1_556 S
C706 C710 1.531 . S
C707 C706 1.369 1_554 S
C707 C708 1.410 . S
C707 C715 1.503 . S
C708 C707 1.410 . S
C708 C709 1.392 . S
C708 C711 1.511 . S
C709 C705 1.376 1_554 S
C709 C708 1.392 . S
C709 H721 0.929 . S
C710 C706 1.531 . S
C710 H722 0.960 . S
C710 H723 0.962 . S
C710 H724 0.960 . S
C711 C708 1.511 . S
C711 H725 0.961 . S
C711 H726 0.961 . S
C711 H727 0.961 . S
C712 C713 1.370 . S
C712 C714 1.363 . S
C712 H728 0.931 . S
C713 C712 1.370 . S
C713 C717 1.408 . S
C714 C712 1.363 . S
C714 C715 1.370 . S
C714 C718 1.524 . S
C715 C707 1.503 . S
C715 C714 1.370 . S
C715 C716 1.403 . S
C716 C715 1.403 . S
C716 C717 1.404 . S
C716 C719 1.539 . S
C717 C713 1.408 . S
C717 C716 1.404 . S
C717 H729 0.930 . S
C718 C714 1.524 . S
C718 H730 0.956 . S
C718 H731 0.961 . S
C718 H732 0.961 . S
C719 C716 1.539 . S
C719 H733 0.958 . S
C719 H734 0.961 . S
C719 H735 0.960 . S
H720 C704 0.931 . S
H721 C709 0.929 . S
H722 C710 0.960 . S
H723 C710 0.962 . S
H724 C710 0.960 . S
H725 C711 0.961 . S
H726 C711 0.961 . S
H727 C711 0.961 . S
H728 C712 0.931 . S
H729 C717 0.930 . S
H730 C718 0.956 . S
H731 C718 0.961 . S
H732 C718 0.961 . S
H733 C719 0.958 . S
H734 C719 0.961 . S
H735 C719 0.960 . S
C736 C737 1.391 . S
C736 C738 1.394 . S
C736 H752 0.931 . S
C737 C736 1.391 . S
C737 C741 1.376 . S
C738 C736 1.394 . S
C738 C739 1.369 . S
C738 C742 1.531 . S
C739 C738 1.369 . S
C739 C740 1.410 . S
C739 C747 1.503 . S
C740 C739 1.410 . S
C740 C741 1.392 . S
C740 C743 1.511 . S
C741 C737 1.376 . S
C741 C740 1.392 . S
C741 H753 0.929 . S
C742 C738 1.531 . S
C742 H754 0.960 . S
C742 H755 0.962 . S
C742 H756 0.960 . S
C743 C740 1.511 . S
C743 H757 0.961 . S
C743 H758 0.961 . S
C743 H759 0.961 . S
C744 C745 1.370 . S
C744 C746 1.363 . S
C744 H760 0.931 . S
C745 C744 1.370 . S
C745 C749 1.408 . S
C746 C744 1.363 . S
C746 C747 1.370 . S
C746 C750 1.524 . S
C747 C739 1.503 . S
C747 C746 1.370 . S
C747 C748 1.403 . S
C748 C747 1.403 . S
C748 C749 1.404 . S
C748 C751 1.539 . S
C749 C745 1.408 . S
C749 C748 1.404 . S
C749 H761 0.930 . S
C750 C746 1.524 . S
C750 H762 0.956 . S
C750 H763 0.961 . S
C750 H764 0.961 . S
C751 C748 1.539 . S
C751 H765 0.958 . S
C751 H766 0.961 . S
C751 H767 0.960 . S
H752 C736 0.931 . S
H753 C741 0.929 . S
H754 C742 0.960 . S
H755 C742 0.962 . S
H756 C742 0.960 . S
H757 C743 0.961 . S
H758 C743 0.961 . S
H759 C743 0.961 . S
H760 C744 0.931 . S
H761 C749 0.930 . S
H762 C750 0.956 . S
H763 C750 0.961 . S
H764 C750 0.961 . S
H765 C751 0.958 . S
H766 C751 0.961 . S
H767 C751 0.960 . S
C768 C769 1.391 . S
C768 C770 1.394 . S
C768 H784 0.931 . S
C769 C768 1.391 . S
C769 C773 1.376 . S
C770 C768 1.394 . S
C770 C771 1.369 . S
C770 C774 1.531 . S
C771 C770 1.369 . S
C771 C772 1.410 . S
C771 C779 1.503 . S
C772 C771 1.410 . S
C772 C773 1.392 . S
C772 C775 1.511 . S
C773 C769 1.376 . S
C773 C772 1.392 . S
C773 H785 0.929 . S
C774 C770 1.531 . S
C774 H786 0.960 . S
C774 H787 0.962 . S
C774 H788 0.960 . S
C775 C772 1.511 . S
C775 H789 0.961 . S
C775 H790 0.961 . S
C775 H791 0.961 . S
C776 C777 1.370 . S
C776 C778 1.363 . S
C776 H792 0.931 . S
C777 C776 1.370 . S
C777 C781 1.408 . S
C778 C776 1.363 . S
C778 C779 1.370 . S
C778 C782 1.524 . S
C779 C771 1.503 . S
C779 C778 1.370 . S
C779 C780 1.403 . S
C780 C779 1.403 . S
C780 C781 1.404 . S
C780 C783 1.539 . S
C781 C777 1.408 . S
C781 C780 1.404 . S
C781 H793 0.930 . S
C782 C778 1.524 . S
C782 H794 0.956 . S
C782 H795 0.961 . S
C782 H796 0.961 . S
C783 C780 1.539 . S
C783 H797 0.958 . S
C783 H798 0.961 . S
C783 H799 0.960 . S
H784 C768 0.931 . S
H785 C773 0.929 . S
H786 C774 0.960 . S
H787 C774 0.962 . S
H788 C774 0.960 . S
H789 C775 0.961 . S
H790 C775 0.961 . S
H791 C775 0.961 . S
H792 C776 0.931 . S
H793 C781 0.930 . S
H794 C782 0.956 . S
H795 C782 0.961 . S
H796 C782 0.961 . S
H797 C783 0.958 . S
H798 C783 0.961 . S
H799 C783 0.960 . S
C800 C801 1.391 . S
C800 C802 1.394 . S
C800 H816 0.931 . S
C801 C800 1.391 . S
C801 C805 1.376 . S
C802 C800 1.394 . S
C802 C803 1.369 . S
C802 C806 1.531 . S
C803 C802 1.369 . S
C803 C804 1.410 . S
C803 C811 1.503 . S
C804 C803 1.410 . S
C804 C805 1.392 . S
C804 C807 1.511 . S
C805 C801 1.376 . S
C805 C804 1.392 . S
C805 H817 0.929 . S
C806 C802 1.531 . S
C806 H818 0.960 . S
C806 H819 0.962 . S
C806 H820 0.960 . S
C807 C804 1.511 . S
C807 H821 0.961 . S
C807 H822 0.961 . S
C807 H823 0.961 . S
C808 C809 1.370 . S
C808 C810 1.363 . S
C808 H824 0.931 . S
C809 C808 1.370 . S
C809 C813 1.408 . S
C810 C808 1.363 . S
C810 C811 1.370 . S
C810 C814 1.524 . S
C811 C803 1.503 . S
C811 C810 1.370 . S
C811 C812 1.403 . S
C812 C811 1.403 . S
C812 C813 1.404 . S
C812 C815 1.539 . S
C813 C809 1.408 . S
C813 C812 1.404 . S
C813 H825 0.930 . S
C814 C810 1.524 . S
C814 H826 0.956 . S
C814 H827 0.961 . S
C814 H828 0.961 . S
C815 C812 1.539 . S
C815 H829 0.958 . S
C815 H830 0.961 . S
C815 H831 0.960 . S
H816 C800 0.931 . S
H817 C805 0.929 . S
H818 C806 0.960 . S
H819 C806 0.962 . S
H820 C806 0.960 . S
H821 C807 0.961 . S
H822 C807 0.961 . S
H823 C807 0.961 . S
H824 C808 0.931 . S
H825 C813 0.930 . S
H826 C814 0.956 . S
H827 C814 0.961 . S
H828 C814 0.961 . S
H829 C815 0.958 . S
H830 C815 0.961 . S
H831 C815 0.960 . S
C832 C833 1.391 . S
C832 C834 1.394 . S
C832 H848 0.931 . S
C833 C832 1.391 . S
C833 C837 1.376 . S
C834 C832 1.394 . S
C834 C835 1.369 . S
C834 C838 1.531 . S
C835 C834 1.369 . S
C835 C836 1.410 . S
C835 C843 1.503 . S
C836 C835 1.410 . S
C836 C837 1.392 . S
C836 C839 1.511 . S
C837 C833 1.376 . S
C837 C836 1.392 . S
C837 H849 0.929 . S
C838 C834 1.531 . S
C838 H850 0.960 . S
C838 H851 0.962 . S
C838 H852 0.960 . S
C839 C836 1.511 . S
C839 H853 0.961 . S
C839 H854 0.961 . S
C839 H855 0.961 . S
C840 C841 1.370 . S
C840 C842 1.363 . S
C840 H856 0.931 . S
C841 C840 1.370 . S
C841 C845 1.408 . S
C842 C840 1.363 . S
C842 C843 1.370 . S
C842 C846 1.524 . S
C843 C835 1.503 . S
C843 C842 1.370 . S
C843 C844 1.403 . S
C844 C843 1.403 . S
C844 C845 1.404 . S
C844 C847 1.539 . S
C845 C841 1.408 . S
C845 C844 1.404 . S
C845 H857 0.930 . S
C846 C842 1.524 . S
C846 H858 0.956 . S
C846 H859 0.961 . S
C846 H860 0.961 . S
C847 C844 1.539 . S
C847 H861 0.958 . S
C847 H862 0.961 . S
C847 H863 0.960 . S
H848 C832 0.931 . S
H849 C837 0.929 . S
H850 C838 0.960 . S
H851 C838 0.962 . S
H852 C838 0.960 . S
H853 C839 0.961 . S
H854 C839 0.961 . S
H855 C839 0.961 . S
H856 C840 0.931 . S
H857 C845 0.930 . S
H858 C846 0.956 . S
H859 C846 0.961 . S
H860 C846 0.961 . S
H861 C847 0.958 . S
H862 C847 0.961 . S
H863 C847 0.960 . S
C864 C865 1.391 . S
C864 C866 1.394 1_545 S
C864 H880 0.931 . S
C865 C864 1.391 . S
C865 C869 1.376 . S
C866 C864 1.394 1_565 S
C866 C867 1.369 . S
C866 C870 1.531 . S
C867 C866 1.369 . S
C867 C868 1.410 . S
C867 C875 1.503 . S
C868 C867 1.410 . S
C868 C869 1.392 1_565 S
C868 C871 1.511 . S
C869 C865 1.376 . S
C869 C868 1.392 1_545 S
C869 H881 0.929 . S
C870 C866 1.531 . S
C870 H882 0.960 . S
C870 H883 0.962 . S
C870 H884 0.960 . S
C871 C868 1.511 . S
C871 H885 0.961 . S
C871 H886 0.961 . S
C871 H887 0.961 . S
C872 C873 1.370 . S
C872 C874 1.363 . S
C872 H888 0.931 . S
C873 C872 1.370 . S
C873 C877 1.408 . S
C874 C872 1.363 . S
C874 C875 1.370 . S
C874 C878 1.524 . S
C875 C867 1.503 . S
C875 C874 1.370 . S
C875 C876 1.403 . S
C876 C875 1.403 . S
C876 C877 1.404 . S
C876 C879 1.539 . S
C877 C873 1.408 . S
C877 C876 1.404 . S
C877 H889 0.930 . S
C878 C874 1.524 . S
C878 H890 0.956 . S
C878 H891 0.961 . S
C878 H892 0.961 . S
C879 C876 1.539 . S
C879 H893 0.958 . S
C879 H894 0.961 . S
C879 H895 0.960 . S
H880 C864 0.931 . S
H881 C869 0.929 . S
H882 C870 0.960 . S
H883 C870 0.962 . S
H884 C870 0.960 . S
H885 C871 0.961 . S
H886 C871 0.961 . S
H887 C871 0.961 . S
H888 C872 0.931 . S
H889 C877 0.930 . S
H890 C878 0.956 . S
H891 C878 0.961 . S
H892 C878 0.961 . S
H893 C879 0.958 . S
H894 C879 0.961 . S
H895 C879 0.960 . S
C896 C897 1.391 1_556 S
C896 C898 1.394 . S
C896 H912 0.931 . S
C897 C896 1.391 1_554 S
C897 C901 1.376 . S
C898 C896 1.394 . S
C898 C899 1.369 . S
C898 C902 1.531 . S
C899 C898 1.369 . S
C899 C900 1.410 . S
C899 C907 1.503 . S
C900 C899 1.410 . S
C900 C901 1.392 1_556 S
C900 C903 1.511 1_556 S
C901 C897 1.376 . S
C901 C900 1.392 1_554 S
C901 H913 0.929 . S
C902 C898 1.531 . S
C902 H914 0.960 . S
C902 H915 0.962 . S
C902 H916 0.960 . S
C903 C900 1.511 1_554 S
C903 H917 0.961 . S
C903 H918 0.958 1_554 S
C903 H919 0.963 . S
C904 C905 1.370 . S
C904 C906 1.363 . S
C904 H920 0.931 . S
C905 C904 1.370 . S
C905 C909 1.408 . S
C906 C904 1.363 . S
C906 C907 1.370 . S
C906 C910 1.524 . S
C907 C899 1.503 . S
C907 C906 1.370 . S
C907 C908 1.403 . S
C908 C907 1.403 . S
C908 C909 1.404 . S
C908 C911 1.539 1_556 S
C909 C905 1.408 . S
C909 C908 1.404 . S
C909 H921 0.930 . S
C910 C906 1.524 . S
C910 H922 0.956 . S
C910 H923 0.961 . S
C910 H924 0.961 . S
C911 C908 1.539 1_554 S
C911 H925 0.958 . S
C911 H926 0.961 . S
C911 H927 0.960 . S
H912 C896 0.931 . S
H913 C901 0.929 . S
H914 C902 0.960 . S
H915 C902 0.962 . S
H916 C902 0.960 . S
H917 C903 0.961 . S
H918 C903 0.958 1_556 S
H919 C903 0.963 . S
H920 C904 0.931 . S
H921 C909 0.930 . S
H922 C910 0.956 . S
H923 C910 0.961 . S
H924 C910 0.961 . S
H925 C911 0.958 . S
H926 C911 0.961 . S
H927 C911 0.960 . S
C928 C929 1.391 . S
C928 C930 1.394 . S
C928 H944 0.931 . S
C929 C928 1.391 . S
C929 C933 1.376 . S
C930 C928 1.394 . S
C930 C931 1.369 1_565 S
C930 C934 1.531 1_565 S
C931 C930 1.369 1_545 S
C931 C932 1.410 . S
C931 C939 1.503 . S
C932 C931 1.410 . S
C932 C933 1.392 1_545 S
C932 C935 1.511 . S
C933 C929 1.376 . S
C933 C932 1.392 1_565 S
C933 H945 0.929 . S
C934 C930 1.531 1_545 S
C934 H946 0.960 . S
C934 H947 0.962 . S
C934 H948 0.960 1_545 S
C935 C932 1.511 . S
C935 H949 0.961 . S
C935 H950 0.961 . S
C935 H951 0.961 . S
C936 C937 1.370 . S
C936 C938 1.363 . S
C936 H952 0.931 . S
C937 C936 1.370 . S
C937 C941 1.408 . S
C938 C936 1.363 . S
C938 C939 1.370 . S
C938 C942 1.524 . S
C939 C931 1.503 . S
C939 C938 1.370 . S
C939 C940 1.403 . S
C940 C939 1.403 . S
C940 C941 1.404 . S
C940 C943 1.539 . S
C941 C937 1.408 . S
C941 C940 1.404 . S
C941 H953 0.930 . S
C942 C938 1.524 . S
C942 H954 0.956 . S
C942 H955 0.961 . S
C942 H956 0.961 . S
C943 C940 1.539 . S
C943 H957 0.958 . S
C943 H958 0.961 . S
C943 H959 0.960 . S
H944 C928 0.931 . S
H945 C933 0.929 . S
H946 C934 0.960 . S
H947 C934 0.962 . S
H948 C934 0.960 1_565 S
H949 C935 0.961 . S
H950 C935 0.961 . S
H951 C935 0.961 . S
H952 C936 0.931 . S
H953 C941 0.930 . S
H954 C942 0.956 . S
H955 C942 0.961 . S
H956 C942 0.961 . S
H957 C943 0.958 . S
H958 C943 0.961 . S
H959 C943 0.960 . S
C960 C961 1.391 . S
C960 C962 1.394 . S
C960 H976 0.931 . S
C961 C960 1.391 . S
C961 C965 1.376 . S
C962 C960 1.394 . S
C962 C963 1.369 . S
C962 C966 1.531 . S
C963 C962 1.369 . S
C963 C964 1.410 . S
C963 C971 1.503 . S
C964 C963 1.410 . S
C964 C965 1.392 . S
C964 C967 1.511 . S
C965 C961 1.376 . S
C965 C964 1.392 . S
C965 H977 0.929 . S
C966 C962 1.531 . S
C966 H978 0.960 . S
C966 H979 0.962 . S
C966 H980 0.960 . S
C967 C964 1.511 . S
C967 H981 0.961 . S
C967 H982 0.961 . S
C967 H983 0.961 . S
C968 C969 1.370 . S
C968 C970 1.363 . S
C968 H984 0.931 . S
C969 C968 1.370 . S
C969 C973 1.408 . S
C970 C968 1.363 . S
C970 C971 1.370 . S
C970 C974 1.524 . S
C971 C963 1.503 . S
C971 C970 1.370 . S
C971 C972 1.403 . S
C972 C971 1.403 . S
C972 C973 1.404 . S
C972 C975 1.539 . S
C973 C969 1.408 . S
C973 C972 1.404 . S
C973 H985 0.930 . S
C974 C970 1.524 . S
C974 H986 0.956 . S
C974 H987 0.961 . S
C974 H988 0.961 . S
C975 C972 1.539 . S
C975 H989 0.958 . S
C975 H990 0.961 . S
C975 H991 0.960 . S
H976 C960 0.931 . S
H977 C965 0.929 . S
H978 C966 0.960 . S
H979 C966 0.962 . S
H980 C966 0.960 . S
H981 C967 0.961 . S
H982 C967 0.961 . S
H983 C967 0.961 . S
H984 C968 0.931 . S
H985 C973 0.930 . S
H986 C974 0.956 . S
H987 C974 0.961 . S
H988 C974 0.961 . S
H989 C975 0.958 . S
H990 C975 0.961 . S
H991 C975 0.960 . S
C992 C993 1.391 . S
C992 C994 1.394 . S
C992 H1008 0.931 . S
C993 C992 1.391 . S
C993 C997 1.376 . S
C994 C992 1.394 . S
C994 C995 1.369 . S
C994 C998 1.531 . S
C995 C994 1.369 . S
C995 C996 1.410 . S
C995 C1003 1.503 . S
C996 C995 1.410 . S
C996 C997 1.392 . S
C996 C999 1.511 . S
C997 C993 1.376 . S
C997 C996 1.392 . S
C997 H1009 0.929 . S
C998 C994 1.531 . S
C998 H1010 0.960 . S
C998 H1011 0.962 . S
C998 H1012 0.960 . S
C999 C996 1.511 . S
C999 H1013 0.961 . S
C999 H1014 0.961 . S
C999 H1015 0.961 . S
C1000 C1001 1.370 . S
C1000 C1002 1.363 1_565 S
C1000 H1016 0.931 . S
C1001 C1000 1.370 . S
C1001 C1005 1.408 . S
C1002 C1000 1.363 1_545 S
C1002 C1003 1.370 . S
C1002 C1006 1.524 . S
C1003 C995 1.503 . S
C1003 C1002 1.370 . S
C1003 C1004 1.403 1_545 S
C1004 C1003 1.403 1_565 S
C1004 C1005 1.404 . S
C1004 C1007 1.539 . S
C1005 C1001 1.408 . S
C1005 C1004 1.404 . S
C1005 H1017 0.930 . S
C1006 C1002 1.524 . S
C1006 H1018 0.956 . S
C1006 H1019 0.961 . S
C1006 H1020 0.961 . S
C1007 C1004 1.539 . S
C1007 H1021 0.958 . S
C1007 H1022 0.961 . S
C1007 H1023 0.960 1_565 S
H1008 C992 0.931 . S
H1009 C997 0.929 . S
H1010 C998 0.960 . S
H1011 C998 0.962 . S
H1012 C998 0.960 . S
H1013 C999 0.961 . S
H1014 C999 0.961 . S
H1015 C999 0.961 . S
H1016 C1000 0.931 . S
H1017 C1005 0.930 . S
H1018 C1006 0.956 . S
H1019 C1006 0.961 . S
H1020 C1006 0.961 . S
H1021 C1007 0.958 . S
H1022 C1007 0.961 . S
H1023 C1007 0.960 1_545 S
C1024 C1025 1.391 . S
C1024 C1026 1.394 . S
C1024 H1040 0.931 . S
C1025 C1024 1.391 . S
C1025 C1029 1.376 . S
C1026 C1024 1.394 . S
C1026 C1027 1.369 . S
C1026 C1030 1.531 . S
C1027 C1026 1.369 . S
C1027 C1028 1.410 . S
C1027 C1035 1.503 . S
C1028 C1027 1.410 . S
C1028 C1029 1.392 . S
C1028 C1031 1.511 . S
C1029 C1025 1.376 . S
C1029 C1028 1.392 . S
C1029 H1041 0.929 . S
C1030 C1026 1.531 . S
C1030 H1042 0.960 . S
C1030 H1043 0.962 1_554 S
C1030 H1044 0.960 . S
C1031 C1028 1.511 . S
C1031 H1045 0.961 . S
C1031 H1046 0.961 . S
C1031 H1047 0.961 . S
C1032 C1033 1.370 . S
C1032 C1034 1.363 1_556 S
C1032 H1048 0.931 . S
C1033 C1032 1.370 . S
C1033 C1037 1.408 1_556 S
C1034 C1032 1.363 1_554 S
C1034 C1035 1.370 . S
C1034 C1038 1.524 1_554 S
C1035 C1027 1.503 . S
C1035 C1034 1.370 . S
C1035 C1036 1.403 . S
C1036 C1035 1.403 . S
C1036 C1037 1.404 . S
C1036 C1039 1.539 . S
C1037 C1033 1.408 1_554 S
C1037 C1036 1.404 . S
C1037 H1049 0.930 . S
C1038 C1034 1.524 1_556 S
C1038 H1050 0.956 . S
C1038 H1051 0.961 1_556 S
C1038 H1052 0.961 . S
C1039 C1036 1.539 . S
C1039 H1053 0.958 . S
C1039 H1054 0.961 . S
C1039 H1055 0.960 . S
H1040 C1024 0.931 . S
H1041 C1029 0.929 . S
H1042 C1030 0.960 . S
H1043 C1030 0.962 1_556 S
H1044 C1030 0.960 . S
H1045 C1031 0.961 . S
H1046 C1031 0.961 . S
H1047 C1031 0.961 . S
H1048 C1032 0.931 . S
H1049 C1037 0.930 . S
H1050 C1038 0.956 . S
H1051 C1038 0.961 1_554 S
H1052 C1038 0.961 . S
H1053 C1039 0.958 . S
H1054 C1039 0.961 . S
H1055 C1039 0.960 . S
C1056 C1057 1.391 . S
C1056 C1058 1.394 1_545 S
C1056 H1072 0.931 . S
C1057 C1056 1.391 . S
C1057 C1061 1.376 . S
C1058 C1056 1.394 1_565 S
C1058 C1059 1.369 . S
C1058 C1062 1.531 . S
C1059 C1058 1.369 . S
C1059 C1060 1.410 1_565 S
C1059 C1067 1.503 . S
C1060 C1059 1.410 1_545 S
C1060 C1061 1.392 . S
C1060 C1063 1.511 . S
C1061 C1057 1.376 . S
C1061 C1060 1.392 . S
C1061 H1073 0.929 . S
C1062 C1058 1.531 . S
C1062 H1074 0.960 . S
C1062 H1075 0.962 . S
C1062 H1076 0.960 . S
C1063 C1060 1.511 . S
C1063 H1077 0.961 . S
C1063 H1078 0.961 1_545 S
C1063 H1079 0.958 1_545 S
C1064 C1065 1.370 . S
C1064 C1066 1.363 . S
C1064 H1080 0.931 . S
C1065 C1064 1.370 . S
C1065 C1069 1.408 . S
C1066 C1064 1.363 . S
C1066 C1067 1.370 . S
C1066 C1070 1.524 . S
C1067 C1059 1.503 . S
C1067 C1066 1.370 . S
C1067 C1068 1.403 . S
C1068 C1067 1.403 . S
C1068 C1069 1.404 . S
C1068 C1071 1.539 . S
C1069 C1065 1.408 . S
C1069 C1068 1.404 . S
C1069 H1081 0.930 . S
C1070 C1066 1.524 . S
C1070 H1082 0.956 . S
C1070 H1083 0.961 . S
C1070 H1084 0.961 . S
C1071 C1068 1.539 . S
C1071 H1085 0.958 . S
C1071 H1086 0.961 . S
C1071 H1087 0.960 . S
H1072 C1056 0.931 . S
H1073 C1061 0.929 . S
H1074 C1062 0.960 . S
H1075 C1062 0.962 . S
H1076 C1062 0.960 . S
H1077 C1063 0.961 . S
H1078 C1063 0.961 1_565 S
H1079 C1063 0.958 1_565 S
H1080 C1064 0.931 . S
H1081 C1069 0.930 . S
H1082 C1070 0.956 . S
H1083 C1070 0.961 . S
H1084 C1070 0.961 . S
H1085 C1071 0.958 . S
H1086 C1071 0.961 . S
H1087 C1071 0.960 . S
C1088 C1089 1.391 . S
C1088 C1090 1.394 . S
C1088 H1104 0.931 . S
C1089 C1088 1.391 . S
C1089 C1093 1.376 . S
C1090 C1088 1.394 . S
C1090 C1091 1.369 . S
C1090 C1094 1.531 . S
C1091 C1090 1.369 . S
C1091 C1092 1.410 . S
C1091 C1099 1.503 . S
C1092 C1091 1.410 . S
C1092 C1093 1.392 . S
C1092 C1095 1.511 . S
C1093 C1089 1.376 . S
C1093 C1092 1.392 . S
C1093 H1105 0.929 . S
C1094 C1090 1.531 . S
C1094 H1106 0.960 . S
C1094 H1107 0.962 . S
C1094 H1108 0.960 . S
C1095 C1092 1.511 . S
C1095 H1109 0.961 . S
C1095 H1110 0.961 . S
C1095 H1111 0.961 . S
C1096 C1097 1.370 . S
C1096 C1098 1.363 . S
C1096 H1112 0.931 . S
C1097 C1096 1.370 . S
C1097 C1101 1.408 . S
C1098 C1096 1.363 . S
C1098 C1099 1.370 . S
C1098 C1102 1.524 . S
C1099 C1091 1.503 . S
C1099 C1098 1.370 . S
C1099 C1100 1.403 . S
C1100 C1099 1.403 . S
C1100 C1101 1.404 . S
C1100 C1103 1.539 . S
C1101 C1097 1.408 . S
C1101 C1100 1.404 . S
C1101 H1113 0.930 . S
C1102 C1098 1.524 . S
C1102 H1114 0.956 . S
C1102 H1115 0.961 . S
C1102 H1116 0.961 . S
C1103 C1100 1.539 . S
C1103 H1117 0.958 . S
C1103 H1118 0.961 . S
C1103 H1119 0.960 . S
H1104 C1088 0.931 . S
H1105 C1093 0.929 . S
H1106 C1094 0.960 . S
H1107 C1094 0.962 . S
H1108 C1094 0.960 . S
H1109 C1095 0.961 . S
H1110 C1095 0.961 . S
H1111 C1095 0.961 . S
H1112 C1096 0.931 . S
H1113 C1101 0.930 . S
H1114 C1102 0.956 . S
H1115 C1102 0.961 . S
H1116 C1102 0.961 . S
H1117 C1103 0.958 . S
H1118 C1103 0.961 . S
H1119 C1103 0.960 . S
C1120 C1121 1.391 . S
C1120 C1122 1.394 . S
C1120 H1136 0.931 . S
C1121 C1120 1.391 . S
C1121 C1125 1.376 . S
C1122 C1120 1.394 . S
C1122 C1123 1.369 . S
C1122 C1126 1.531 . S
C1123 C1122 1.369 . S
C1123 C1124 1.410 . S
C1123 C1131 1.503 . S
C1124 C1123 1.410 . S
C1124 C1125 1.392 . S
C1124 C1127 1.511 . S
C1125 C1121 1.376 . S
C1125 C1124 1.392 . S
C1125 H1137 0.929 . S
C1126 C1122 1.531 . S
C1126 H1138 0.960 . S
C1126 H1139 0.962 . S
C1126 H1140 0.960 . S
C1127 C1124 1.511 . S
C1127 H1141 0.961 . S
C1127 H1142 0.961 . S
C1127 H1143 0.961 . S
C1128 C1129 1.370 . S
C1128 C1130 1.363 . S
C1128 H1144 0.931 . S
C1129 C1128 1.370 . S
C1129 C1133 1.408 1_554 S
C1130 C1128 1.363 . S
C1130 C1131 1.370 . S
C1130 C1134 1.524 . S
C1131 C1123 1.503 . S
C1131 C1130 1.370 . S
C1131 C1132 1.403 . S
C1132 C1131 1.403 . S
C1132 C1133 1.404 1_554 S
C1132 C1135 1.539 . S
C1133 C1129 1.408 1_556 S
C1133 C1132 1.404 1_556 S
C1133 H1145 0.930 . S
C1134 C1130 1.524 . S
C1134 H1146 0.956 . S
C1134 H1147 0.961 . S
C1134 H1148 0.961 . S
C1135 C1132 1.539 . S
C1135 H1149 0.958 . S
C1135 H1150 0.961 1_554 S
C1135 H1151 0.960 . S
H1136 C1120 0.931 . S
H1137 C1125 0.929 . S
H1138 C1126 0.960 . S
H1139 C1126 0.962 . S
H1140 C1126 0.960 . S
H1141 C1127 0.961 . S
H1142 C1127 0.961 . S
H1143 C1127 0.961 . S
H1144 C1128 0.931 . S
H1145 C1133 0.930 . S
H1146 C1134 0.956 . S
H1147 C1134 0.961 . S
H1148 C1134 0.961 . S
H1149 C1135 0.958 . S
H1150 C1135 0.961 1_556 S
H1151 C1135 0.960 . S
C1152 C1153 1.391 . S
C1152 C1154 1.394 . S
C1152 H1168 0.931 . S
C1153 C1152 1.391 . S
C1153 C1157 1.376 . S
C1154 C1152 1.394 . S
C1154 C1155 1.369 1_655 S
C1154 C1158 1.531 . S
C1155 C1154 1.369 1_455 S
C1155 C1156 1.410 . S
C1155 C1163 1.503 . S
C1156 C1155 1.410 . S
C1156 C1157 1.392 1_455 S
C1156 C1159 1.511 . S
C1157 C1153 1.376 . S
C1157 C1156 1.392 1_655 S
C1157 H1169 0.939 . S
C1158 C1154 1.531 . S
C1158 H1170 0.960 . S
C1158 H1171 0.962 . S
C1158 H1172 0.960 . S
C1159 C1156 1.511 . S
C1159 H1173 0.961 . S
C1159 H1174 0.961 . S
C1159 H1175 0.961 . S
C1160 C1161 1.370 . S
C1160 C1162 1.363 . S
C1160 H1176 0.931 . S
C1161 C1160 1.370 . S
C1161 C1165 1.408 . S
C1162 C1160 1.363 . S
C1162 C1163 1.370 . S
C1162 C1166 1.524 . S
C1163 C1155 1.503 . S
C1163 C1162 1.370 . S
C1163 C1164 1.403 . S
C1164 C1163 1.403 . S
C1164 C1165 1.404 . S
C1164 C1167 1.539 . S
C1165 C1161 1.408 . S
C1165 C1164 1.404 . S
C1165 H1177 0.930 . S
C1166 C1162 1.524 . S
C1166 H1178 0.956 1_455 S
C1166 H1179 0.961 . S
C1166 H1180 0.961 . S
C1167 C1164 1.539 . S
C1167 H1181 0.958 . S
C1167 H1182 0.961 . S
C1167 H1183 0.960 . S
H1168 C1152 0.931 . S
H1169 C1157 0.939 . S
H1170 C1158 0.960 . S
H1171 C1158 0.962 . S
H1172 C1158 0.960 . S
H1173 C1159 0.961 . S
H1174 C1159 0.961 . S
H1175 C1159 0.961 . S
H1176 C1160 0.931 . S
H1177 C1165 0.930 . S
H1178 C1166 0.956 1_655 S
H1179 C1166 0.961 . S
H1180 C1166 0.961 . S
H1181 C1167 0.958 . S
H1182 C1167 0.961 . S
H1183 C1167 0.960 . S
C1184 C1185 1.391 . S
C1184 C1186 1.394 . S
C1184 H1200 0.931 . S
C1185 C1184 1.391 . S
C1185 C1189 1.376 . S
C1186 C1184 1.394 . S
C1186 C1187 1.369 . S
C1186 C1190 1.531 . S
C1187 C1186 1.369 . S
C1187 C1188 1.410 . S
C1187 C1195 1.503 . S
C1188 C1187 1.410 . S
C1188 C1189 1.392 . S
C1188 C1191 1.511 . S
C1189 C1185 1.376 . S
C1189 C1188 1.392 . S
C1189 H1201 0.929 . S
C1190 C1186 1.531 . S
C1190 H1202 0.960 . S
C1190 H1203 0.962 . S
C1190 H1204 0.960 . S
C1191 C1188 1.511 . S
C1191 H1205 0.961 . S
C1191 H1206 0.961 . S
C1191 H1207 0.961 . S
C1192 C1193 1.370 . S
C1192 C1194 1.363 . S
C1192 H1208 0.931 . S
C1193 C1192 1.370 . S
C1193 C1197 1.408 . S
C1194 C1192 1.363 . S
C1194 C1195 1.370 . S
C1194 C1198 1.524 . S
C1195 C1187 1.503 . S
C1195 C1194 1.370 . S
C1195 C1196 1.403 . S
C1196 C1195 1.403 . S
C1196 C1197 1.404 . S
C1196 C1199 1.539 . S
C1197 C1193 1.408 . S
C1197 C1196 1.404 . S
C1197 H1209 0.930 . S
C1198 C1194 1.524 . S
C1198 H1210 0.956 . S
C1198 H1211 0.961 . S
C1198 H1212 0.961 . S
C1199 C1196 1.539 . S
C1199 H1213 0.958 . S
C1199 H1214 0.961 . S
C1199 H1215 0.960 . S
H1200 C1184 0.931 . S
H1201 C1189 0.929 . S
H1202 C1190 0.960 . S
H1203 C1190 0.962 . S
H1204 C1190 0.960 . S
H1205 C1191 0.961 . S
H1206 C1191 0.961 . S
H1207 C1191 0.961 . S
H1208 C1192 0.931 . S
H1209 C1197 0.930 . S
H1210 C1198 0.956 . S
H1211 C1198 0.961 . S
H1212 C1198 0.961 . S
H1213 C1199 0.958 . S
H1214 C1199 0.961 . S
H1215 C1199 0.960 . S
C1216 C1217 1.391 . S
C1216 C1218 1.394 . S
C1216 H1232 0.931 . S
C1217 C1216 1.391 . S
C1217 C1221 1.376 . S
C1218 C1216 1.394 . S
C1218 C1219 1.369 . S
C1218 C1222 1.531 . S
C1219 C1218 1.369 . S
C1219 C1220 1.410 . S
C1219 C1227 1.503 . S
C1220 C1219 1.410 . S
C1220 C1221 1.392 . S
C1220 C1223 1.511 . S
C1221 C1217 1.376 . S
C1221 C1220 1.392 . S
C1221 H1233 0.929 . S
C1222 C1218 1.531 . S
C1222 H1234 0.960 . S
C1222 H1235 0.962 . S
C1222 H1236 0.960 . S
C1223 C1220 1.511 . S
C1223 H1237 0.961 . S
C1223 H1238 0.961 . S
C1223 H1239 0.961 . S
C1224 C1225 1.370 . S
C1224 C1226 1.363 . S
C1224 H1240 0.931 . S
C1225 C1224 1.370 . S
C1225 C1229 1.408 . S
C1226 C1224 1.363 . S
C1226 C1227 1.370 . S
C1226 C1230 1.524 . S
C1227 C1219 1.503 . S
C1227 C1226 1.370 . S
C1227 C1228 1.403 . S
C1228 C1227 1.403 . S
C1228 C1229 1.404 . S
C1228 C1231 1.539 . S
C1229 C1225 1.408 . S
C1229 C1228 1.404 . S
C1229 H1241 0.930 . S
C1230 C1226 1.524 . S
C1230 H1242 0.956 . S
C1230 H1243 0.961 . S
C1230 H1244 0.961 . S
C1231 C1228 1.539 . S
C1231 H1245 0.958 . S
C1231 H1246 0.961 . S
C1231 H1247 0.960 . S
H1232 C1216 0.931 . S
H1233 C1221 0.929 . S
H1234 C1222 0.960 . S
H1235 C1222 0.962 . S
H1236 C1222 0.960 . S
H1237 C1223 0.961 . S
H1238 C1223 0.961 . S
H1239 C1223 0.961 . S
H1240 C1224 0.931 . S
H1241 C1229 0.930 . S
H1242 C1230 0.956 . S
H1243 C1230 0.961 . S
H1244 C1230 0.961 . S
H1245 C1231 0.958 . S
H1246 C1231 0.961 . S
H1247 C1231 0.960 . S
C1248 C1249 1.391 . S
C1248 C1250 1.394 . S
C1248 H1264 0.931 . S
C1249 C1248 1.391 . S
C1249 C1253 1.376 . S
C1250 C1248 1.394 . S
C1250 C1251 1.369 . S
C1250 C1254 1.531 . S
C1251 C1250 1.369 . S
C1251 C1252 1.410 . S
C1251 C1259 1.503 . S
C1252 C1251 1.410 . S
C1252 C1253 1.392 . S
C1252 C1255 1.511 . S
C1253 C1249 1.376 . S
C1253 C1252 1.392 . S
C1253 H1265 0.929 . S
C1254 C1250 1.531 . S
C1254 H1266 0.960 . S
C1254 H1267 0.962 . S
C1254 H1268 0.960 . S
C1255 C1252 1.511 . S
C1255 H1269 0.961 . S
C1255 H1270 0.961 . S
C1255 H1271 0.961 . S
C1256 C1257 1.370 . S
C1256 C1258 1.363 . S
C1256 H1272 0.931 . S
C1257 C1256 1.370 . S
C1257 C1261 1.408 1_556 S
C1258 C1256 1.363 . S
C1258 C1259 1.370 . S
C1258 C1262 1.524 . S
C1259 C1251 1.503 . S
C1259 C1258 1.370 . S
C1259 C1260 1.403 . S
C1260 C1259 1.403 . S
C1260 C1261 1.404 1_556 S
C1260 C1263 1.539 . S
C1261 C1257 1.408 1_554 S
C1261 C1260 1.404 1_554 S
C1261 H1273 0.930 . S
C1262 C1258 1.524 . S
C1262 H1274 0.956 . S
C1262 H1275 0.961 . S
C1262 H1276 0.961 . S
C1263 C1260 1.539 . S
C1263 H1277 0.958 . S
C1263 H1278 0.961 1_556 S
C1263 H1279 0.960 . S
H1264 C1248 0.931 . S
H1265 C1253 0.929 . S
H1266 C1254 0.960 . S
H1267 C1254 0.962 . S
H1268 C1254 0.960 . S
H1269 C1255 0.961 . S
H1270 C1255 0.961 . S
H1271 C1255 0.961 . S
H1272 C1256 0.931 . S
H1273 C1261 0.930 . S
H1274 C1262 0.956 . S
H1275 C1262 0.961 . S
H1276 C1262 0.961 . S
H1277 C1263 0.958 . S
H1278 C1263 0.961 1_554 S
H1279 C1263 0.960 . S
C1280 C1281 1.391 . S
C1280 C1282 1.394 . S
C1280 H1296 0.931 . S
C1281 C1280 1.391 . S
C1281 C1285 1.376 . S
C1282 C1280 1.394 . S
C1282 C1283 1.372 . S
C1282 C1286 1.531 1_455 S
C1283 C1282 1.372 . S
C1283 C1284 1.428 . S
C1283 C1291 1.480 1_455 S
C1284 C1283 1.428 . S
C1284 C1285 1.392 . S
C1284 C1287 1.511 . S
C1285 C1281 1.376 . S
C1285 C1284 1.392 . S
C1285 H1297 0.929 . S
C1286 C1282 1.531 1_655 S
C1286 H1298 0.960 . S
C1286 H1299 0.962 . S
C1286 H1300 0.960 . S
C1287 C1284 1.511 . S
C1287 H1301 0.961 . S
C1287 H1302 0.961 1_455 S
C1287 H1303 0.961 . S
C1288 C1289 1.370 . S
C1288 C1290 1.363 . S
C1288 H1304 0.931 . S
C1289 C1288 1.370 . S
C1289 C1293 1.408 . S
C1290 C1288 1.363 . S
C1290 C1291 1.370 . S
C1290 C1294 1.524 . S
C1291 C1283 1.480 1_655 S
C1291 C1290 1.370 . S
C1291 C1292 1.403 . S
C1292 C1291 1.403 . S
C1292 C1293 1.404 . S
C1292 C1295 1.539 1_655 S
C1293 C1289 1.408 . S
C1293 C1292 1.404 . S
C1293 H1305 0.930 . S
C1294 C1290 1.524 . S
C1294 H1306 0.956 . S
C1294 H1307 0.961 . S
C1294 H1308 0.961 . S
C1295 C1292 1.539 1_455 S
C1295 H1309 0.958 . S
C1295 H1310 0.961 . S
C1295 H1311 0.960 . S
H1296 C1280 0.931 . S
H1297 C1285 0.929 . S
H1298 C1286 0.960 . S
H1299 C1286 0.962 . S
H1300 C1286 0.960 . S
H1301 C1287 0.961 . S
H1302 C1287 0.961 1_655 S
H1303 C1287 0.961 . S
H1304 C1288 0.931 . S
H1305 C1293 0.930 . S
H1306 C1294 0.956 . S
H1307 C1294 0.961 . S
H1308 C1294 0.961 . S
H1309 C1295 0.958 . S
H1310 C1295 0.961 . S
H1311 C1295 0.960 . S
C1312 C1313 1.391 . S
C1312 C1314 1.394 . S
C1312 H1328 0.931 . S
C1313 C1312 1.391 . S
C1313 C1317 1.376 . S
C1314 C1312 1.394 . S
C1314 C1315 1.369 . S
C1314 C1318 1.531 . S
C1315 C1314 1.369 . S
C1315 C1316 1.410 . S
C1315 C1323 1.503 . S
C1316 C1315 1.410 . S
C1316 C1317 1.392 . S
C1316 C1319 1.511 . S
C1317 C1313 1.376 . S
C1317 C1316 1.392 . S
C1317 H1329 0.929 . S
C1318 C1314 1.531 . S
C1318 H1330 0.960 . S
C1318 H1331 0.962 . S
C1318 H1332 0.960 . S
C1319 C1316 1.511 . S
C1319 H1333 0.961 . S
C1319 H1334 0.961 . S
C1319 H1335 0.961 . S
C1320 C1321 1.370 . S
C1320 C1322 1.363 . S
C1320 H1336 0.931 . S
C1321 C1320 1.370 . S
C1321 C1325 1.408 . S
C1322 C1320 1.363 . S
C1322 C1323 1.370 . S
C1322 C1326 1.524 . S
C1323 C1315 1.503 . S
C1323 C1322 1.370 . S
C1323 C1324 1.403 . S
C1324 C1323 1.403 . S
C1324 C1325 1.404 . S
C1324 C1327 1.539 . S
C1325 C1321 1.408 . S
C1325 C1324 1.404 . S
C1325 H1337 0.930 . S
C1326 C1322 1.524 . S
C1326 H1338 0.956 . S
C1326 H1339 0.961 . S
C1326 H1340 0.961 . S
C1327 C1324 1.539 . S
C1327 H1341 0.958 . S
C1327 H1342 0.961 . S
C1327 H1343 0.960 . S
H1328 C1312 0.931 . S
H1329 C1317 0.929 . S
H1330 C1318 0.960 . S
H1331 C1318 0.962 . S
H1332 C1318 0.960 . S
H1333 C1319 0.961 . S
H1334 C1319 0.961 . S
H1335 C1319 0.961 . S
H1336 C1320 0.931 . S
H1337 C1325 0.930 . S
H1338 C1326 0.956 . S
H1339 C1326 0.961 . S
H1340 C1326 0.961 . S
H1341 C1327 0.958 . S
H1342 C1327 0.961 . S
H1343 C1327 0.960 . S
C1344 C1345 1.391 . S
C1344 C1346 1.394 . S
C1344 H1360 0.931 . S
C1345 C1344 1.391 . S
C1345 C1349 1.376 . S
C1346 C1344 1.394 . S
C1346 C1347 1.369 . S
C1346 C1350 1.531 1_655 S
C1347 C1346 1.369 . S
C1347 C1348 1.410 . S
C1347 C1355 1.503 . S
C1348 C1347 1.410 . S
C1348 C1349 1.392 . S
C1348 C1351 1.511 . S
C1349 C1345 1.376 . S
C1349 C1348 1.392 . S
C1349 H1361 0.929 . S
C1350 C1346 1.531 1_455 S
C1350 H1362 0.960 . S
C1350 H1363 0.962 . S
C1350 H1364 0.960 . S
C1351 C1348 1.511 . S
C1351 H1365 0.961 . S
C1351 H1366 0.961 . S
C1351 H1367 0.961 . S
C1352 C1353 1.370 . S
C1352 C1354 1.363 . S
C1352 H1368 0.931 . S
C1353 C1352 1.370 . S
C1353 C1357 1.408 . S
C1354 C1352 1.363 . S
C1354 C1355 1.370 1_455 S
C1354 C1358 1.524 . S
C1355 C1347 1.503 . S
C1355 C1354 1.370 1_655 S
C1355 C1356 1.403 . S
C1356 C1355 1.403 . S
C1356 C1357 1.404 1_655 S
C1356 C1359 1.539 . S
C1357 C1353 1.408 . S
C1357 C1356 1.404 1_455 S
C1357 H1369 0.930 . S
C1358 C1354 1.524 . S
C1358 H1370 0.956 . S
C1358 H1371 0.961 1_455 S
C1358 H1372 0.961 . S
C1359 C1356 1.539 . S
C1359 H1373 0.958 . S
C1359 H1374 0.961 . S
C1359 H1375 0.960 . S
H1360 C1344 0.931 . S
H1361 C1349 0.929 . S
H1362 C1350 0.960 . S
H1363 C1350 0.962 . S
H1364 C1350 0.960 . S
H1365 C1351 0.961 . S
H1366 C1351 0.961 . S
H1367 C1351 0.961 . S
H1368 C1352 0.931 . S
H1369 C1357 0.930 . S
H1370 C1358 0.956 . S
H1371 C1358 0.961 1_655 S
H1372 C1358 0.961 . S
H1373 C1359 0.958 . S
H1374 C1359 0.961 . S
H1375 C1359 0.960 . S
C1376 C1377 1.391 . S
C1376 C1378 1.394 . S
C1376 H1392 0.931 . S
C1377 C1376 1.391 . S
C1377 C1381 1.376 . S
C1378 C1376 1.394 . S
C1378 C1379 1.369 . S
C1378 C1382 1.531 . S
C1379 C1378 1.369 . S
C1379 C1380 1.410 . S
C1379 C1387 1.503 . S
C1380 C1379 1.410 . S
C1380 C1381 1.392 . S
C1380 C1383 1.511 . S
C1381 C1377 1.376 . S
C1381 C1380 1.392 . S
C1381 H1393 0.929 . S
C1382 C1378 1.531 . S
C1382 H1394 0.960 . S
C1382 H1395 0.962 . S
C1382 H1396 0.960 . S
C1383 C1380 1.511 . S
C1383 H1397 0.961 . S
C1383 H1398 0.961 . S
C1383 H1399 0.961 . S
C1384 C1385 1.370 . S
C1384 C1386 1.363 . S
C1384 H1400 0.931 . S
C1385 C1384 1.370 . S
C1385 C1389 1.408 . S
C1386 C1384 1.363 . S
C1386 C1387 1.370 . S
C1386 C1390 1.524 . S
C1387 C1379 1.503 . S
C1387 C1386 1.370 . S
C1387 C1388 1.403 . S
C1388 C1387 1.403 . S
C1388 C1389 1.404 . S
C1388 C1391 1.539 . S
C1389 C1385 1.408 . S
C1389 C1388 1.404 . S
C1389 H1401 0.930 . S
C1390 C1386 1.524 . S
C1390 H1402 0.956 . S
C1390 H1403 0.961 . S
C1390 H1404 0.961 . S
C1391 C1388 1.539 . S
C1391 H1405 0.958 . S
C1391 H1406 0.961 . S
C1391 H1407 0.960 . S
H1392 C1376 0.931 . S
H1393 C1381 0.929 . S
H1394 C1382 0.960 . S
H1395 C1382 0.962 . S
H1396 C1382 0.960 . S
H1397 C1383 0.961 . S
H1398 C1383 0.961 . S
H1399 C1383 0.961 . S
H1400 C1384 0.931 . S
H1401 C1389 0.930 . S
H1402 C1390 0.956 . S
H1403 C1390 0.961 . S
H1404 C1390 0.961 . S
H1405 C1391 0.958 . S
H1406 C1391 0.961 . S
H1407 C1391 0.960 . S
C1408 C1409 1.391 . S
C1408 C1410 1.394 . S
C1408 H1424 0.931 . S
C1409 C1408 1.391 . S
C1409 C1413 1.376 . S
C1410 C1408 1.394 . S
C1410 C1411 1.369 . S
C1410 C1414 1.531 . S
C1411 C1410 1.369 . S
C1411 C1412 1.410 . S
C1411 C1419 1.503 . S
C1412 C1411 1.410 . S
C1412 C1413 1.392 . S
C1412 C1415 1.511 . S
C1413 C1409 1.376 . S
C1413 C1412 1.392 . S
C1413 H1425 0.929 . S
C1414 C1410 1.531 . S
C1414 H1426 0.960 . S
C1414 H1427 0.962 . S
C1414 H1428 0.960 . S
C1415 C1412 1.511 . S
C1415 H1429 0.961 . S
C1415 H1430 0.961 . S
C1415 H1431 0.961 . S
C1416 C1417 1.370 . S
C1416 C1418 1.363 . S
C1416 H1432 0.931 . S
C1417 C1416 1.370 . S
C1417 C1421 1.408 . S
C1418 C1416 1.363 . S
C1418 C1419 1.370 . S
C1418 C1422 1.524 . S
C1419 C1411 1.503 . S
C1419 C1418 1.370 . S
C1419 C1420 1.403 . S
C1420 C1419 1.403 . S
C1420 C1421 1.404 . S
C1420 C1423 1.539 . S
C1421 C1417 1.408 . S
C1421 C1420 1.404 . S
C1421 H1433 0.930 . S
C1422 C1418 1.524 . S
C1422 H1434 0.956 . S
C1422 H1435 0.961 . S
C1422 H1436 0.961 . S
C1423 C1420 1.539 . S
C1423 H1437 0.958 . S
C1423 H1438 0.961 . S
C1423 H1439 0.960 . S
H1424 C1408 0.931 . S
H1425 C1413 0.929 . S
H1426 C1414 0.960 . S
H1427 C1414 0.962 . S
H1428 C1414 0.960 . S
H1429 C1415 0.961 . S
H1430 C1415 0.961 . S
H1431 C1415 0.961 . S
H1432 C1416 0.931 . S
H1433 C1421 0.930 . S
H1434 C1422 0.956 . S
H1435 C1422 0.961 . S
H1436 C1422 0.961 . S
H1437 C1423 0.958 . S
H1438 C1423 0.961 . S
H1439 C1423 0.960 . S
C1440 C1441 1.391 . S
C1440 C1442 1.394 . S
C1440 H1456 0.931 . S
C1441 C1440 1.391 . S
C1441 C1445 1.376 . S
C1442 C1440 1.394 . S
C1442 C1443 1.369 . S
C1442 C1446 1.531 . S
C1443 C1442 1.369 . S
C1443 C1444 1.410 . S
C1443 C1451 1.503 . S
C1444 C1443 1.410 . S
C1444 C1445 1.392 . S
C1444 C1447 1.511 . S
C1445 C1441 1.376 . S
C1445 C1444 1.392 . S
C1445 H1457 0.929 . S
C1446 C1442 1.531 . S
C1446 H1458 0.960 . S
C1446 H1459 0.962 . S
C1446 H1460 0.960 . S
C1447 C1444 1.511 . S
C1447 H1461 0.961 . S
C1447 H1462 0.961 . S
C1447 H1463 0.961 . S
C1448 C1449 1.370 . S
C1448 C1450 1.363 . S
C1448 H1464 0.931 . S
C1449 C1448 1.370 . S
C1449 C1453 1.408 . S
C1450 C1448 1.363 . S
C1450 C1451 1.370 . S
C1450 C1454 1.524 . S
C1451 C1443 1.503 . S
C1451 C1450 1.370 . S
C1451 C1452 1.403 . S
C1452 C1451 1.403 . S
C1452 C1453 1.404 . S
C1452 C1455 1.539 . S
C1453 C1449 1.408 . S
C1453 C1452 1.404 . S
C1453 H1465 0.930 . S
C1454 C1450 1.524 . S
C1454 H1466 0.956 . S
C1454 H1467 0.961 . S
C1454 H1468 0.961 . S
C1455 C1452 1.539 . S
C1455 H1469 0.958 . S
C1455 H1470 0.961 . S
C1455 H1471 0.960 . S
H1456 C1440 0.931 . S
H1457 C1445 0.929 . S
H1458 C1446 0.960 . S
H1459 C1446 0.962 . S
H1460 C1446 0.960 . S
H1461 C1447 0.961 . S
H1462 C1447 0.961 . S
H1463 C1447 0.961 . S
H1464 C1448 0.931 . S
H1465 C1453 0.930 . S
H1466 C1454 0.956 . S
H1467 C1454 0.961 . S
H1468 C1454 0.961 . S
H1469 C1455 0.958 . S
H1470 C1455 0.961 . S
H1471 C1455 0.960 . S
C1472 C1473 1.391 . S
C1472 C1474 1.394 . S
C1472 H1488 0.931 . S
C1473 C1472 1.391 . S
C1473 C1477 1.376 . S
C1474 C1472 1.394 . S
C1474 C1475 1.369 . S
C1474 C1478 1.531 . S
C1475 C1474 1.369 . S
C1475 C1476 1.410 . S
C1475 C1483 1.503 . S
C1476 C1475 1.410 . S
C1476 C1477 1.392 . S
C1476 C1479 1.511 1_455 S
C1477 C1473 1.376 . S
C1477 C1476 1.392 . S
C1477 H1489 0.929 . S
C1478 C1474 1.531 . S
C1478 H1490 0.960 . S
C1478 H1491 0.962 . S
C1478 H1492 0.960 . S
C1479 C1476 1.511 1_655 S
C1479 H1493 0.961 . S
C1479 H1494 0.961 . S
C1479 H1495 0.961 . S
C1480 C1481 1.370 . S
C1480 C1482 1.363 1_655 S
C1480 H1496 0.931 . S
C1481 C1480 1.370 . S
C1481 C1485 1.408 . S
C1482 C1480 1.363 1_455 S
C1482 C1483 1.370 . S
C1482 C1486 1.524 . S
C1483 C1475 1.503 . S
C1483 C1482 1.370 . S
C1483 C1484 1.403 1_455 S
C1484 C1483 1.403 1_655 S
C1484 C1485 1.404 . S
C1484 C1487 1.539 . S
C1485 C1481 1.408 . S
C1485 C1484 1.404 . S
C1485 H1497 0.930 . S
C1486 C1482 1.524 . S
C1486 H1498 0.956 . S
C1486 H1499 0.961 . S
C1486 H1500 0.961 . S
C1487 C1484 1.539 . S
C1487 H1501 0.958 . S
C1487 H1502 0.961 . S
C1487 H1503 0.960 . S
H1488 C1472 0.931 . S
H1489 C1477 0.929 . S
H1490 C1478 0.960 . S
H1491 C1478 0.962 . S
H1492 C1478 0.960 . S
H1493 C1479 0.961 . S
H1494 C1479 0.961 . S
H1495 C1479 0.961 . S
H1496 C1480 0.931 . S
H1497 C1485 0.930 . S
H1498 C1486 0.956 . S
H1499 C1486 0.961 . S
H1500 C1486 0.961 . S
H1501 C1487 0.958 . S
H1502 C1487 0.961 . S
H1503 C1487 0.960 . S
C1504 C1505 1.391 . S
C1504 C1506 1.394 . S
C1504 H1520 0.931 . S
C1505 C1504 1.391 . S
C1505 C1509 1.376 . S
C1506 C1504 1.394 . S
C1506 C1507 1.369 . S
C1506 C1510 1.531 . S
C1507 C1506 1.369 . S
C1507 C1508 1.410 . S
C1507 C1515 1.503 . S
C1508 C1507 1.410 . S
C1508 C1509 1.392 . S
C1508 C1511 1.511 . S
C1509 C1505 1.376 . S
C1509 C1508 1.392 . S
C1509 H1521 0.929 . S
C1510 C1506 1.531 . S
C1510 H1522 0.960 . S
C1510 H1523 0.962 . S
C1510 H1524 0.960 . S
C1511 C1508 1.511 . S
C1511 H1525 0.961 . S
C1511 H1526 0.961 . S
C1511 H1527 0.961 . S
C1512 C1513 1.370 . S
C1512 C1514 1.363 . S
C1512 H1528 0.931 . S
C1513 C1512 1.370 . S
C1513 C1517 1.408 . S
C1514 C1512 1.363 . S
C1514 C1515 1.370 . S
C1514 C1518 1.524 . S
C1515 C1507 1.503 . S
C1515 C1514 1.370 . S
C1515 C1516 1.403 . S
C1516 C1515 1.403 . S
C1516 C1517 1.404 . S
C1516 C1519 1.539 . S
C1517 C1513 1.408 . S
C1517 C1516 1.404 . S
C1517 H1529 0.930 . S
C1518 C1514 1.524 . S
C1518 H1530 0.956 . S
C1518 H1531 0.961 . S
C1518 H1532 0.961 . S
C1519 C1516 1.539 . S
C1519 H1533 0.958 . S
C1519 H1534 0.961 . S
C1519 H1535 0.960 . S
H1520 C1504 0.931 . S
H1521 C1509 0.929 . S
H1522 C1510 0.960 . S
H1523 C1510 0.962 . S
H1524 C1510 0.960 . S
H1525 C1511 0.961 . S
H1526 C1511 0.961 . S
H1527 C1511 0.961 . S
H1528 C1512 0.931 . S
H1529 C1517 0.930 . S
H1530 C1518 0.956 . S
H1531 C1518 0.961 . S
H1532 C1518 0.961 . S
H1533 C1519 0.958 . S
H1534 C1519 0.961 . S
H1535 C1519 0.960 . S
C1536 C1537 1.391 . S
C1536 C1538 1.394 . S
C1536 H1552 0.931 . S
C1537 C1536 1.391 . S
C1537 C1541 1.376 . S
C1538 C1536 1.394 . S
C1538 C1539 1.369 . S
C1538 C1542 1.531 . S
C1539 C1538 1.369 . S
C1539 C1540 1.410 . S
C1539 C1547 1.503 . S
C1540 C1539 1.410 . S
C1540 C1541 1.392 . S
C1540 C1543 1.511 . S
C1541 C1537 1.376 . S
C1541 C1540 1.392 . S
C1541 H1553 0.929 . S
C1542 C1538 1.531 . S
C1542 H1554 0.960 . S
C1542 H1555 0.962 . S
C1542 H1556 0.960 . S
C1543 C1540 1.511 . S
C1543 H1557 0.961 . S
C1543 H1558 0.961 . S
C1543 H1559 0.961 . S
C1544 C1545 1.370 . S
C1544 C1546 1.363 . S
C1544 H1560 0.931 . S
C1545 C1544 1.370 . S
C1545 C1549 1.408 . S
C1546 C1544 1.363 . S
C1546 C1547 1.370 . S
C1546 C1550 1.524 . S
C1547 C1539 1.503 . S
C1547 C1546 1.370 . S
C1547 C1548 1.403 . S
C1548 C1547 1.403 . S
C1548 C1549 1.404 . S
C1548 C1551 1.539 . S
C1549 C1545 1.408 . S
C1549 C1548 1.404 . S
C1549 H1561 0.930 . S
C1550 C1546 1.524 . S
C1550 H1562 0.956 . S
C1550 H1563 0.961 . S
C1550 H1564 0.961 . S
C1551 C1548 1.539 . S
C1551 H1565 0.958 . S
C1551 H1566 0.961 . S
C1551 H1567 0.960 . S
H1552 C1536 0.931 . S
H1553 C1541 0.929 . S
H1554 C1542 0.960 . S
H1555 C1542 0.962 . S
H1556 C1542 0.960 . S
H1557 C1543 0.961 . S
H1558 C1543 0.961 . S
H1559 C1543 0.961 . S
H1560 C1544 0.931 . S
H1561 C1549 0.930 . S
H1562 C1550 0.956 . S
H1563 C1550 0.961 . S
H1564 C1550 0.961 . S
H1565 C1551 0.958 . S
H1566 C1551 0.961 . S
H1567 C1551 0.960 . S
C1568 C1569 1.391 . S
C1568 C1570 1.394 . S
C1568 H1584 0.931 . S
C1569 C1568 1.391 . S
C1569 C1573 1.376 . S
C1570 C1568 1.394 . S
C1570 C1571 1.369 . S
C1570 C1574 1.531 . S
C1571 C1570 1.369 . S
C1571 C1572 1.410 . S
C1571 C1579 1.503 . S
C1572 C1571 1.410 . S
C1572 C1573 1.392 . S
C1572 C1575 1.511 . S
C1573 C1569 1.376 . S
C1573 C1572 1.392 . S
C1573 H1585 0.929 1_556 S
C1574 C1570 1.531 . S
C1574 H1586 0.960 . S
C1574 H1587 0.962 . S
C1574 H1588 0.960 . S
C1575 C1572 1.511 . S
C1575 H1589 0.961 . S
C1575 H1590 0.961 . S
C1575 H1591 0.961 . S
C1576 C1577 1.370 . S
C1576 C1578 1.363 . S
C1576 H1592 0.931 . S
C1577 C1576 1.370 . S
C1577 C1581 1.408 . S
C1578 C1576 1.363 . S
C1578 C1579 1.370 . S
C1578 C1582 1.524 . S
C1579 C1571 1.503 . S
C1579 C1578 1.370 . S
C1579 C1580 1.403 . S
C1580 C1579 1.403 . S
C1580 C1581 1.404 . S
C1580 C1583 1.539 . S
C1581 C1577 1.408 . S
C1581 C1580 1.404 . S
C1581 H1593 0.930 . S
C1582 C1578 1.524 . S
C1582 H1594 0.956 . S
C1582 H1595 0.961 . S
C1582 H1596 0.961 . S
C1583 C1580 1.539 . S
C1583 H1597 0.958 . S
C1583 H1598 0.961 . S
C1583 H1599 0.960 . S
H1584 C1568 0.931 . S
H1585 C1573 0.929 1_554 S
H1586 C1574 0.960 . S
H1587 C1574 0.962 . S
H1588 C1574 0.960 . S
H1589 C1575 0.961 . S
H1590 C1575 0.961 . S
H1591 C1575 0.961 . S
H1592 C1576 0.931 . S
H1593 C1581 0.930 . S
H1594 C1582 0.956 . S
H1595 C1582 0.961 . S
H1596 C1582 0.961 . S
H1597 C1583 0.958 . S
H1598 C1583 0.961 . S
H1599 C1583 0.960 . S
C1600 C1601 1.391 . S
C1600 C1602 1.394 . S
C1600 H1616 0.931 . S
C1601 C1600 1.391 . S
C1601 C1605 1.376 . S
C1602 C1600 1.394 . S
C1602 C1603 1.369 . S
C1602 C1606 1.531 . S
C1603 C1602 1.369 . S
C1603 C1604 1.410 . S
C1603 C1611 1.503 . S
C1604 C1603 1.410 . S
C1604 C1605 1.392 . S
C1604 C1607 1.511 . S
C1605 C1601 1.376 . S
C1605 C1604 1.392 . S
C1605 H1617 0.929 . S
C1606 C1602 1.531 . S
C1606 H1618 0.960 . S
C1606 H1619 0.962 . S
C1606 H1620 0.960 . S
C1607 C1604 1.511 . S
C1607 H1621 0.961 . S
C1607 H1622 0.961 . S
C1607 H1623 0.961 . S
C1608 C1609 1.370 . S
C1608 C1610 1.363 . S
C1608 H1624 0.931 . S
C1609 C1608 1.370 . S
C1609 C1613 1.408 . S
C1610 C1608 1.363 . S
C1610 C1611 1.370 . S
C1610 C1614 1.524 . S
C1611 C1603 1.503 . S
C1611 C1610 1.370 . S
C1611 C1612 1.403 . S
C1612 C1611 1.403 . S
C1612 C1613 1.404 . S
C1612 C1615 1.539 . S
C1613 C1609 1.408 . S
C1613 C1612 1.404 . S
C1613 H1625 0.930 . S
C1614 C1610 1.524 . S
C1614 H1626 0.956 . S
C1614 H1627 0.961 . S
C1614 H1628 0.961 . S
C1615 C1612 1.539 . S
C1615 H1629 0.958 . S
C1615 H1630 0.961 . S
C1615 H1631 0.960 . S
H1616 C1600 0.931 . S
H1617 C1605 0.929 . S
H1618 C1606 0.960 . S
H1619 C1606 0.962 . S
H1620 C1606 0.960 . S
H1621 C1607 0.961 . S
H1622 C1607 0.961 . S
H1623 C1607 0.961 . S
H1624 C1608 0.931 . S
H1625 C1613 0.930 . S
H1626 C1614 0.956 . S
H1627 C1614 0.961 . S
H1628 C1614 0.961 . S
H1629 C1615 0.958 . S
H1630 C1615 0.961 . S
H1631 C1615 0.960 . S
C1632 C1633 1.391 . S
C1632 C1634 1.394 . S
C1632 H1648 0.931 . S
C1633 C1632 1.391 . S
C1633 C1637 1.376 . S
C1634 C1632 1.394 . S
C1634 C1635 1.369 . S
C1634 C1638 1.531 . S
C1635 C1634 1.369 . S
C1635 C1636 1.410 . S
C1635 C1643 1.503 . S
C1636 C1635 1.410 . S
C1636 C1637 1.392 . S
C1636 C1639 1.511 . S
C1637 C1633 1.376 . S
C1637 C1636 1.392 . S
C1637 H1649 0.929 . S
C1638 C1634 1.531 . S
C1638 H1650 0.960 . S
C1638 H1651 0.962 . S
C1638 H1652 0.960 . S
C1639 C1636 1.511 . S
C1639 H1653 0.961 . S
C1639 H1654 0.961 . S
C1639 H1655 0.961 . S
C1640 C1641 1.370 . S
C1640 C1642 1.363 . S
C1640 H1656 0.931 . S
C1641 C1640 1.370 . S
C1641 C1645 1.408 . S
C1642 C1640 1.363 . S
C1642 C1643 1.370 . S
C1642 C1646 1.524 . S
C1643 C1635 1.503 . S
C1643 C1642 1.370 . S
C1643 C1644 1.403 . S
C1644 C1643 1.403 . S
C1644 C1645 1.404 . S
C1644 C1647 1.539 . S
C1645 C1641 1.408 . S
C1645 C1644 1.404 . S
C1645 H1657 0.930 . S
C1646 C1642 1.524 . S
C1646 H1658 0.956 . S
C1646 H1659 0.961 . S
C1646 H1660 0.961 . S
C1647 C1644 1.539 . S
C1647 H1661 0.958 . S
C1647 H1662 0.961 . S
C1647 H1663 0.960 . S
H1648 C1632 0.931 . S
H1649 C1637 0.929 . S
H1650 C1638 0.960 . S
H1651 C1638 0.962 . S
H1652 C1638 0.960 . S
H1653 C1639 0.961 . S
H1654 C1639 0.961 . S
H1655 C1639 0.961 . S
H1656 C1640 0.931 . S
H1657 C1645 0.930 . S
H1658 C1646 0.956 . S
H1659 C1646 0.961 . S
H1660 C1646 0.961 . S
H1661 C1647 0.958 . S
H1662 C1647 0.961 . S
H1663 C1647 0.960 . S
C1664 C1665 1.391 . S
C1664 C1666 1.394 . S
C1664 H1680 0.931 . S
C1665 C1664 1.391 . S
C1665 C1669 1.376 . S
C1666 C1664 1.394 . S
C1666 C1667 1.369 . S
C1666 C1670 1.531 . S
C1667 C1666 1.369 . S
C1667 C1668 1.410 . S
C1667 C1675 1.503 . S
C1668 C1667 1.410 . S
C1668 C1669 1.392 . S
C1668 C1671 1.511 . S
C1669 C1665 1.376 . S
C1669 C1668 1.392 . S
C1669 H1681 0.929 . S
C1670 C1666 1.531 . S
C1670 H1682 0.960 . S
C1670 H1683 0.962 . S
C1670 H1684 0.960 . S
C1671 C1668 1.511 . S
C1671 H1685 0.961 . S
C1671 H1686 0.961 . S
C1671 H1687 0.961 . S
C1672 C1673 1.370 . S
C1672 C1674 1.363 . S
C1672 H1688 0.931 . S
C1673 C1672 1.370 . S
C1673 C1677 1.408 . S
C1674 C1672 1.363 . S
C1674 C1675 1.370 . S
C1674 C1678 1.524 . S
C1675 C1667 1.503 . S
C1675 C1674 1.370 . S
C1675 C1676 1.403 . S
C1676 C1675 1.403 . S
C1676 C1677 1.404 . S
C1676 C1679 1.539 . S
C1677 C1673 1.408 . S
C1677 C1676 1.404 . S
C1677 H1689 0.930 . S
C1678 C1674 1.524 . S
C1678 H1690 0.956 . S
C1678 H1691 0.961 . S
C1678 H1692 0.961 . S
C1679 C1676 1.539 . S
C1679 H1693 0.958 . S
C1679 H1694 0.961 . S
C1679 H1695 0.960 . S
H1680 C1664 0.931 . S
H1681 C1669 0.929 . S
H1682 C1670 0.960 . S
H1683 C1670 0.962 . S
H1684 C1670 0.960 . S
H1685 C1671 0.961 . S
H1686 C1671 0.961 . S
H1687 C1671 0.961 . S
H1688 C1672 0.931 . S
H1689 C1677 0.930 . S
H1690 C1678 0.956 . S
H1691 C1678 0.961 . S
H1692 C1678 0.961 . S
H1693 C1679 0.958 . S
H1694 C1679 0.961 . S
H1695 C1679 0.960 . S
C1696 C1697 1.391 . S
C1696 C1698 1.394 1_455 S
C1696 H1712 0.931 . S
C1697 C1696 1.391 . S
C1697 C1701 1.376 . S
C1698 C1696 1.394 1_655 S
C1698 C1699 1.369 1_655 S
C1698 C1702 1.531 . S
C1699 C1698 1.369 1_455 S
C1699 C1700 1.410 . S
C1699 C1707 1.503 1_454 S
C1700 C1699 1.410 . S
C1700 C1701 1.392 . S
C1700 C1703 1.511 1_554 S
C1701 C1697 1.376 . S
C1701 C1700 1.392 . S
C1701 H1713 0.929 . S
C1702 C1698 1.531 . S
C1702 H1714 0.960 . S
C1702 H1715 0.962 . S
C1702 H1716 0.960 . S
C1703 C1700 1.511 1_556 S
C1703 H1717 0.961 . S
C1703 H1718 0.961 . S
C1703 H1719 0.961 . S
C1704 C1705 1.370 . S
C1704 C1706 1.363 . S
C1704 H1720 0.931 . S
C1705 C1704 1.370 . S
C1705 C1709 1.408 . S
C1706 C1704 1.363 . S
C1706 C1707 1.370 . S
C1706 C1710 1.524 1_556 S
C1707 C1699 1.503 1_656 S
C1707 C1706 1.370 . S
C1707 C1708 1.403 . S
C1708 C1707 1.403 . S
C1708 C1709 1.404 . S
C1708 C1711 1.539 . S
C1709 C1705 1.408 . S
C1709 C1708 1.404 . S
C1709 H1721 0.930 . S
C1710 C1706 1.524 1_554 S
C1710 H1722 0.956 . S
C1710 H1723 0.961 1_655 S
C1710 H1724 0.961 . S
C1711 C1708 1.539 . S
C1711 H1725 0.958 . S
C1711 H1726 0.961 . S
C1711 H1727 0.960 1_655 S
H1712 C1696 0.931 . S
H1713 C1701 0.929 . S
H1714 C1702 0.960 . S
H1715 C1702 0.962 . S
H1716 C1702 0.960 . S
H1717 C1703 0.961 . S
H1718 C1703 0.961 . S
H1719 C1703 0.961 . S
H1720 C1704 0.931 . S
H1721 C1709 0.930 . S
H1722 C1710 0.956 . S
H1723 C1710 0.961 1_455 S
H1724 C1710 0.961 . S
H1725 C1711 0.958 . S
H1726 C1711 0.961 . S
H1727 C1711 0.960 1_455 S
C1728 C1729 1.391 . S
C1728 C1730 1.394 . S
C1728 H1744 0.931 . S
C1729 C1728 1.391 . S
C1729 C1733 1.376 . S
C1730 C1728 1.394 . S
C1730 C1731 1.369 . S
C1730 C1734 1.531 . S
C1731 C1730 1.369 . S
C1731 C1732 1.410 . S
C1731 C1739 1.503 . S
C1732 C1731 1.410 . S
C1732 C1733 1.392 . S
C1732 C1735 1.511 . S
C1733 C1729 1.376 . S
C1733 C1732 1.392 . S
C1733 H1745 0.929 . S
C1734 C1730 1.531 . S
C1734 H1746 0.960 . S
C1734 H1747 0.962 . S
C1734 H1748 0.960 . S
C1735 C1732 1.511 . S
C1735 H1749 0.961 . S
C1735 H1750 0.961 . S
C1735 H1751 0.961 . S
C1736 C1737 1.370 . S
C1736 C1738 1.363 . S
C1736 H1752 0.931 . S
C1737 C1736 1.370 . S
C1737 C1741 1.408 . S
C1738 C1736 1.363 . S
C1738 C1739 1.370 . S
C1738 C1742 1.524 . S
C1739 C1731 1.503 . S
C1739 C1738 1.370 . S
C1739 C1740 1.403 . S
C1740 C1739 1.403 . S
C1740 C1741 1.404 . S
C1740 C1743 1.539 . S
C1741 C1737 1.408 . S
C1741 C1740 1.404 . S
C1741 H1753 0.930 . S
C1742 C1738 1.524 . S
C1742 H1754 0.956 . S
C1742 H1755 0.961 . S
C1742 H1756 0.961 . S
C1743 C1740 1.539 . S
C1743 H1757 0.958 . S
C1743 H1758 0.961 . S
C1743 H1759 0.960 . S
H1744 C1728 0.931 . S
H1745 C1733 0.929 . S
H1746 C1734 0.960 . S
H1747 C1734 0.962 . S
H1748 C1734 0.960 . S
H1749 C1735 0.961 . S
H1750 C1735 0.961 . S
H1751 C1735 0.961 . S
H1752 C1736 0.931 . S
H1753 C1741 0.930 . S
H1754 C1742 0.956 . S
H1755 C1742 0.961 . S
H1756 C1742 0.961 . S
H1757 C1743 0.958 . S
H1758 C1743 0.961 . S
H1759 C1743 0.960 . S
C1760 C1761 1.391 . S
C1760 C1762 1.394 . S
C1760 H1776 0.931 . S
C1761 C1760 1.391 . S
C1761 C1765 1.376 . S
C1762 C1760 1.394 . S
C1762 C1763 1.369 . S
C1762 C1766 1.531 . S
C1763 C1762 1.369 . S
C1763 C1764 1.410 . S
C1763 C1771 1.503 . S
C1764 C1763 1.410 . S
C1764 C1765 1.392 . S
C1764 C1767 1.511 . S
C1765 C1761 1.376 . S
C1765 C1764 1.392 . S
C1765 H1777 0.929 . S
C1766 C1762 1.531 . S
C1766 H1778 0.960 . S
C1766 H1779 0.962 . S
C1766 H1780 0.960 . S
C1767 C1764 1.511 . S
C1767 H1781 0.961 . S
C1767 H1782 0.961 . S
C1767 H1783 0.961 . S
C1768 C1769 1.370 . S
C1768 C1770 1.363 . S
C1768 H1784 0.931 . S
C1769 C1768 1.370 . S
C1769 C1773 1.408 . S
C1770 C1768 1.363 . S
C1770 C1771 1.370 . S
C1770 C1774 1.524 . S
C1771 C1763 1.503 . S
C1771 C1770 1.370 . S
C1771 C1772 1.403 . S
C1772 C1771 1.403 . S
C1772 C1773 1.404 . S
C1772 C1775 1.539 . S
C1773 C1769 1.408 . S
C1773 C1772 1.404 . S
C1773 H1785 0.930 . S
C1774 C1770 1.524 . S
C1774 H1786 0.956 . S
C1774 H1787 0.961 . S
C1774 H1788 0.961 . S
C1775 C1772 1.539 . S
C1775 H1789 0.958 . S
C1775 H1790 0.961 . S
C1775 H1791 0.960 . S
H1776 C1760 0.931 . S
H1777 C1765 0.929 . S
H1778 C1766 0.960 . S
H1779 C1766 0.962 . S
H1780 C1766 0.960 . S
H1781 C1767 0.961 . S
H1782 C1767 0.961 . S
H1783 C1767 0.961 . S
H1784 C1768 0.931 . S
H1785 C1773 0.930 . S
H1786 C1774 0.956 . S
H1787 C1774 0.961 . S
H1788 C1774 0.961 . S
H1789 C1775 0.958 . S
H1790 C1775 0.961 . S
H1791 C1775 0.960 . S
C1792 C1793 1.391 . S
C1792 C1794 1.394 1_556 S
C1792 H1808 0.931 . S
C1793 C1792 1.391 . S
C1793 C1797 1.376 . S
C1794 C1792 1.394 1_554 S
C1794 C1795 1.369 1_554 S
C1794 C1798 1.531 . S
C1795 C1794 1.369 1_556 S
C1795 C1796 1.410 1_455 S
C1795 C1803 1.503 1_446 S
C1796 C1795 1.410 1_655 S
C1796 C1797 1.392 1_655 S
C1796 C1799 1.511 . S
C1797 C1793 1.376 . S
C1797 C1796 1.392 1_455 S
C1797 H1809 0.929 . S
C1798 C1794 1.531 . S
C1798 H1810 0.960 . S
C1798 H1811 0.962 1_545 S
C1798 H1812 0.960 . S
C1799 C1796 1.511 . S
C1799 H1813 0.961 . S
C1799 H1814 0.961 1_545 S
C1799 H1815 0.961 . S
C1800 C1801 1.370 . S
C1800 C1802 1.363 . S
C1800 H1816 0.931 . S
C1801 C1800 1.370 . S
C1801 C1805 1.408 . S
C1802 C1800 1.363 . S
C1802 C1803 1.370 . S
C1802 C1806 1.524 1_654 S
C1803 C1795 1.503 1_664 S
C1803 C1802 1.370 . S
C1803 C1804 1.403 1_565 S
C1804 C1803 1.403 1_545 S
C1804 C1805 1.404 1_545 S
C1804 C1807 1.539 . S
C1805 C1801 1.408 . S
C1805 C1804 1.404 1_565 S
C1805 H1817 0.922 1_565 S
C1806 C1802 1.524 1_456 S
C1806 H1818 0.956 . S
C1806 H1819 0.961 . S
C1806 H1820 0.961 . S
C1807 C1804 1.539 . S
C1807 H1821 0.958 . S
C1807 H1822 0.961 . S
C1807 H1823 0.960 . S
H1808 C1792 0.931 . S
H1809 C1797 0.929 . S
H1810 C1798 0.960 . S
H1811 C1798 0.962 1_565 S
H1812 C1798 0.960 . S
H1813 C1799 0.961 . S
H1814 C1799 0.961 1_565 S
H1815 C1799 0.961 . S
H1816 C1800 0.931 . S
H1817 C1805 0.922 1_545 S
H1818 C1806 0.956 . S
H1819 C1806 0.961 . S
H1820 C1806 0.961 . S
H1821 C1807 0.958 . S
H1822 C1807 0.961 . S
H1823 C1807 0.960 . S
C1824 C1825 1.391 . S
C1824 C1826 1.394 . S
C1824 H1840 0.931 . S
C1825 C1824 1.391 . S
C1825 C1829 1.376 . S
C1826 C1824 1.394 . S
C1826 C1827 1.369 . S
C1826 C1830 1.531 1_545 S
C1827 C1826 1.369 . S
C1827 C1828 1.410 . S
C1827 C1835 1.503 1_545 S
C1828 C1827 1.410 . S
C1828 C1829 1.392 . S
C1828 C1831 1.511 . S
C1829 C1825 1.376 . S
C1829 C1828 1.392 . S
C1829 H1841 0.929 . S
C1830 C1826 1.531 1_565 S
C1830 H1842 0.960 . S
C1830 H1843 0.962 . S
C1830 H1844 0.960 . S
C1831 C1828 1.511 . S
C1831 H1845 0.961 . S
C1831 H1846 0.961 . S
C1831 H1847 0.961 . S
C1832 C1833 1.370 . S
C1832 C1834 1.363 . S
C1832 H1848 0.931 . S
C1833 C1832 1.370 . S
C1833 C1837 1.408 . S
C1834 C1832 1.363 . S
C1834 C1835 1.370 . S
C1834 C1838 1.524 . S
C1835 C1827 1.503 1_565 S
C1835 C1834 1.370 . S
C1835 C1836 1.403 1_565 S
C1836 C1835 1.403 1_545 S
C1836 C1837 1.404 1_545 S
C1836 C1839 1.539 . S
C1837 C1833 1.408 . S
C1837 C1836 1.404 1_565 S
C1837 H1849 0.930 . S
C1838 C1834 1.524 . S
C1838 H1850 0.956 . S
C1838 H1851 0.961 . S
C1838 H1852 0.961 . S
C1839 C1836 1.539 . S
C1839 H1853 0.958 . S
C1839 H1854 0.961 . S
C1839 H1855 0.960 . S
H1840 C1824 0.931 . S
H1841 C1829 0.929 . S
H1842 C1830 0.960 . S
H1843 C1830 0.962 . S
H1844 C1830 0.960 . S
H1845 C1831 0.961 . S
H1846 C1831 0.961 . S
H1847 C1831 0.961 . S
H1848 C1832 0.931 . S
H1849 C1837 0.930 . S
H1850 C1838 0.956 . S
H1851 C1838 0.961 . S
H1852 C1838 0.961 . S
H1853 C1839 0.958 . S
H1854 C1839 0.961 . S
H1855 C1839 0.960 . S
C321 C18 1.964 . S
C329 C218 1.971 . S
C353 C38 1.962 . S
C361 C238 1.972 . S
C385 C58 1.958 . S
C393 C178 1.974 . S
C417 C78 1.959 . S
C425 C198 1.974 . S
C449 C99 1.959 . S
C457 C299 1.972 . S
C481 C119 1.953 . S
C489 C319 1.975 . S
C513 C139 1.954 . S
C521 C259 1.977 . S
C545 C159 1.951 . S
C553 C279 1.977 . S
C577 C188 2.198 . S
C585 C19 2.254 . S
C609 C208 2.183 . S
C617 C39 2.250 . S
C641 C228 2.211 . S
C649 C59 2.258 . S
C673 C168 2.230 . S
C681 C79 2.265 . S
C705 C98 2.255 . S
C713 C269 2.208 . S
C737 C289 2.230 . S
C745 C118 2.263 . S
C769 C309 2.216 . S
C777 C138 2.263 . S
C801 C249 2.192 . S
C809 C158 2.255 . S
C833 C28 2.229 . S
C841 C179 2.264 . S
C865 C199 2.266 . S
C873 C48 2.219 . S
C897 C219 2.270 . S
C905 C68 2.221 . S
C929 C239 2.253 . S
C937 C8 2.211 . S
C961 C258 2.264 . S
C969 C109 2.220 . S
C993 C129 2.191 . S
C1001 C278 2.255 . S
C1025 C149 2.184 . S
C1033 C298 2.249 . S
C1057 C318 2.269 . S
C1065 C89 2.218 . S
C1089 C2 0.749 . S
C1097 C308 0.707 . S
C1121 C22 0.668 . S
C1129 C88 0.688 1_554 S
C1153 C268 0.673 . S
C1161 C42 0.690 . S
C1185 C128 0.718 . S
C1193 C62 0.722 . S
C1217 C81 0.727 . S
C1225 C229 0.711 . S
C1249 C101 0.657 . S
C1257 C9 0.688 1_556 S
C1281 C189 0.719 . S
C1289 C121 0.724 . S
C1313 C49 0.728 . S
C1321 C141 0.711 . S
C1345 C162 0.673 . S
C1353 C148 0.698 . S
C1377 C182 0.652 . S
C1385 C248 0.687 . S
C1409 C108 0.680 . S
C1417 C202 0.698 . S
C1441 C288 0.729 1_554 S
C1449 C222 0.724 . S
C1473 C241 0.724 . S
C1481 C69 0.711 . S
C1505 C261 0.693 . S
C1513 C169 0.706 . S
C1537 C281 0.731 . S
C1545 C29 0.696 . S
C1569 C209 0.728 1_556 S
C1577 C301 0.711 . S
C1601 C1 1.401 . S
C1609 C242 1.381 . S
C1633 C21 1.387 . S
C1641 C102 1.382 . S
C1665 C41 1.423 . S
C1673 C282 1.369 . S
C1697 C142 1.354 . S
C1705 C61 1.396 . S
C1729 C82 1.366 . S
C1737 C161 1.391 . S
C1761 C201 1.409 . S
C1769 C122 1.373 . S
C1793 C181 1.344 . S
C1801 C262 1.403 . S
C1825 C302 1.342 . S
C1833 C221 1.403 . S
