# Generated by pormake.
# Topology neb, (4)-cn, num edge types: 1
# Building blocks:
#     Node 0, Type 0, BuildingBlock: AZAVOO_clean_sbu_0, # of connection points: 4
#     Node 1, Type 0, BuildingBlock: AZAVOO_clean_sbu_0, # of connection points: 4
#     Node 2, Type 0, BuildingBlock: AZAVOO_clean_sbu_0, # of connection points: 4
#     Node 3, Type 0, BuildingBlock: AZAVOO_clean_sbu_0, # of connection points: 4
#     Node 4, Type 0, BuildingBlock: AZAVOO_clean_sbu_0, # of connection points: 4
#     Node 5, Type 0, BuildingBlock: AZAVOO_clean_sbu_0, # of connection points: 4
#     Node 6, Type 0, BuildingBlock: AZAVOO_clean_sbu_0, # of connection points: 4
#     Node 7, Type 0, BuildingBlock: AZAVOO_clean_sbu_0, # of connection points: 4
#     Node 8, Type 0, BuildingBlock: AZAVOO_clean_sbu_0, # of connection points: 4
#     Node 9, Type 0, BuildingBlock: AZAVOO_clean_sbu_0, # of connection points: 4
#     Node 10, Type 0, BuildingBlock: AZAVOO_clean_sbu_0, # of connection points: 4
#     Node 11, Type 0, BuildingBlock: AZAVOO_clean_sbu_0, # of connection points: 4
#     Node 12, Type 0, BuildingBlock: AZAVOO_clean_sbu_0, # of connection points: 4
#     Node 13, Type 0, BuildingBlock: AZAVOO_clean_sbu_0, # of connection points: 4
#     Node 14, Type 0, BuildingBlock: AZAVOO_clean_sbu_0, # of connection points: 4
#     Node 15, Type 0, BuildingBlock: AZAVOO_clean_sbu_0, # of connection points: 4
#     Edge 16, Type (0, 0), BuildingBlock: ZUJKAS_clean_linker_0, # of connection points: 2
#     Edge 17, Type (0, 0), BuildingBlock: ZUJKAS_clean_linker_0, # of connection points: 2
#     Edge 18, Type (0, 0), BuildingBlock: ZUJKAS_clean_linker_0, # of connection points: 2
#     Edge 19, Type (0, 0), BuildingBlock: ZUJKAS_clean_linker_0, # of connection points: 2
#     Edge 20, Type (0, 0), BuildingBlock: ZUJKAS_clean_linker_0, # of connection points: 2
#     Edge 21, Type (0, 0), BuildingBlock: ZUJKAS_clean_linker_0, # of connection points: 2
#     Edge 22, Type (0, 0), BuildingBlock: ZUJKAS_clean_linker_0, # of connection points: 2
#     Edge 23, Type (0, 0), BuildingBlock: ZUJKAS_clean_linker_0, # of connection points: 2
#     Edge 24, Type (0, 0), BuildingBlock: ZUJKAS_clean_linker_0, # of connection points: 2
#     Edge 25, Type (0, 0), BuildingBlock: ZUJKAS_clean_linker_0, # of connection points: 2
#     Edge 26, Type (0, 0), BuildingBlock: ZUJKAS_clean_linker_0, # of connection points: 2
#     Edge 27, Type (0, 0), BuildingBlock: ZUJKAS_clean_linker_0, # of connection points: 2
#     Edge 28, Type (0, 0), BuildingBlock: ZUJKAS_clean_linker_0, # of connection points: 2
#     Edge 29, Type (0, 0), BuildingBlock: ZUJKAS_clean_linker_0, # of connection points: 2
#     Edge 30, Type (0, 0), BuildingBlock: ZUJKAS_clean_linker_0, # of connection points: 2
#     Edge 31, Type (0, 0), BuildingBlock: ZUJKAS_clean_linker_0, # of connection points: 2
#     Edge 32, Type (0, 0), BuildingBlock: ZUJKAS_clean_linker_0, # of connection points: 2
#     Edge 33, Type (0, 0), BuildingBlock: ZUJKAS_clean_linker_0, # of connection points: 2
#     Edge 34, Type (0, 0), BuildingBlock: ZUJKAS_clean_linker_0, # of connection points: 2
#     Edge 35, Type (0, 0), BuildingBlock: ZUJKAS_clean_linker_0, # of connection points: 2
#     Edge 36, Type (0, 0), BuildingBlock: ZUJKAS_clean_linker_0, # of connection points: 2
#     Edge 37, Type (0, 0), BuildingBlock: ZUJKAS_clean_linker_0, # of connection points: 2
#     Edge 38, Type (0, 0), BuildingBlock: ZUJKAS_clean_linker_0, # of connection points: 2
#     Edge 39, Type (0, 0), BuildingBlock: ZUJKAS_clean_linker_0, # of connection points: 2
#     Edge 40, Type (0, 0), BuildingBlock: ZUJKAS_clean_linker_0, # of connection points: 2
#     Edge 41, Type (0, 0), BuildingBlock: ZUJKAS_clean_linker_0, # of connection points: 2
#     Edge 42, Type (0, 0), BuildingBlock: ZUJKAS_clean_linker_0, # of connection points: 2
#     Edge 43, Type (0, 0), BuildingBlock: ZUJKAS_clean_linker_0, # of connection points: 2
#     Edge 44, Type (0, 0), BuildingBlock: ZUJKAS_clean_linker_0, # of connection points: 2
#     Edge 45, Type (0, 0), BuildingBlock: ZUJKAS_clean_linker_0, # of connection points: 2
#     Edge 46, Type (0, 0), BuildingBlock: ZUJKAS_clean_linker_0, # of connection points: 2
#     Edge 47, Type (0, 0), BuildingBlock: ZUJKAS_clean_linker_0, # of connection points: 2
# Relax obj value: 0.100
# Max RMSD: 0.147
# Mean RMSD: 0.147
data_MOF--net-neb--node1-AZAVOO_clean_sbu_0--edge1-ZUJKAS_clean_linker_0
_symmetry_space_group_name_H-M    P1
_symmetry_Int_Tables_number       1
_symmetry_cell_setting            triclinic
loop_
_symmetry_equiv_pos_as_xyz
'x, y, z'
_cell_length_a     63.020266
_cell_length_b     26.621802
_cell_length_c     93.505533
_cell_angle_alpha  97.029452
_cell_angle_beta   90.016399
_cell_angle_gamma 90.001498
loop_
_atom_site_label
_atom_site_type_symbol
_atom_site_fract_x
_atom_site_fract_y
_atom_site_fract_z
_atom_type_partial_charge
Mg0 Mg 0.10805 0.18382 0.44496 0.0
O1 O 0.11578 0.11847 0.42725 0.0
O2 O 0.13693 0.14915 0.41122 0.0
Mg3 Mg 0.14168 0.23384 0.41814 0.0
C4 C 0.12677 0.11261 0.41569 0.0
C5 C 0.08 0.14819 0.46759 0.0
O6 O 0.07666 0.19718 0.46837 0.0
O7 O 0.14142 0.18123 0.4545 0.0
O8 O 0.16021 0.21686 0.43812 0.0
O9 O 0.07989 0.20423 0.43246 0.0
O10 O 0.112 0.23609 0.43051 0.0
C11 C 0.1589 0.19815 0.45004 0.0
C12 C 0.09258 0.23301 0.42623 0.0
O13 O 0.0942 0.1285 0.45903 0.0
Mg14 Mg 0.10963 0.06292 0.79618 0.0
O15 O 0.11692 0.1281 0.81399 0.0
O16 O 0.13626 0.09688 0.83086 0.0
Mg17 Mg 0.1411 0.01212 0.82392 0.0
C18 C 0.12691 0.13378 0.82598 0.0
C19 C 0.08498 0.09887 0.77181 0.0
O20 O 0.08331 0.0493 0.7697 0.0
O21 O 0.14349 0.06464 0.7876 0.0
O22 O 0.16113 0.02886 0.80449 0.0
O23 O 0.08059 0.04345 0.80789 0.0
O24 O 0.11227 0.01034 0.81067 0.0
C25 C 0.16062 0.04753 0.79253 0.0
C26 C 0.09261 0.01397 0.81438 0.0
O27 O 0.09703 0.11873 0.78183 0.0
Mg28 Mg 0.89102 0.81134 0.5462 0.0
O29 O 0.88416 0.87672 0.56408 0.0
O30 O 0.86349 0.84643 0.58045 0.0
Mg31 Mg 0.85825 0.76189 0.57355 0.0
C32 C 0.87359 0.88276 0.57583 0.0
C33 C 0.91855 0.84679 0.52328 0.0
O34 O 0.92191 0.7978 0.5225 0.0
O35 O 0.8573 0.815 0.53731 0.0
O36 O 0.83896 0.77971 0.55397 0.0
O37 O 0.91959 0.79017 0.55813 0.0
O38 O 0.88749 0.75901 0.56068 0.0
C39 C 0.83991 0.79859 0.54205 0.0
C40 C 0.90709 0.76164 0.56459 0.0
O41 O 0.9045 0.86653 0.53195 0.0
Mg42 Mg 0.89083 0.92581 0.19508 0.0
O43 O 0.88292 0.86354 0.17664 0.0
O44 O 0.86339 0.89747 0.16039 0.0
Mg45 Mg 0.8587 0.98155 0.16861 0.0
C46 C 0.87276 0.85961 0.16474 0.0
C47 C 0.91518 0.88536 0.21888 0.0
O48 O 0.91593 0.9348 0.22208 0.0
O49 O 0.85719 0.92298 0.20411 0.0
O50 O 0.8392 0.96109 0.18783 0.0
O51 O 0.91939 0.94737 0.18305 0.0
O52 O 0.88756 0.9819 0.1818 0.0
C53 C 0.83995 0.94067 0.19951 0.0
C54 C 0.90703 0.9791 0.17769 0.0
O55 O 0.90387 0.86695 0.20826 0.0
Mg56 Mg 0.10665 0.68291 0.94516 0.0
O57 O 0.11407 0.6204 0.92661 0.0
O58 O 0.13327 0.65472 0.91024 0.0
Mg59 Mg 0.13806 0.73871 0.91829 0.0
C60 C 0.12402 0.61675 0.91462 0.0
C61 C 0.08327 0.64263 0.96949 0.0
O62 O 0.08263 0.69203 0.97281 0.0
O63 O 0.14051 0.67989 0.95368 0.0
O64 O 0.15811 0.71843 0.93733 0.0
O65 O 0.07761 0.70424 0.9337 0.0
O66 O 0.1093 0.73813 0.9315 0.0
C67 C 0.15763 0.69774 0.94896 0.0
C68 C 0.08967 0.73497 0.92769 0.0
O69 O 0.09415 0.6244 0.95865 0.0
Mg70 Mg 0.11134 0.56615 0.29412 0.0
O71 O 0.11795 0.62993 0.31251 0.0
O72 O 0.13842 0.59814 0.32871 0.0
Mg73 Mg 0.14379 0.51404 0.32117 0.0
C74 C 0.12835 0.63495 0.32433 0.0
C75 C 0.08656 0.60356 0.26994 0.0
O76 O 0.08573 0.554 0.26716 0.0
O77 O 0.14511 0.57086 0.28549 0.0
O78 O 0.16328 0.53381 0.30189 0.0
O79 O 0.08264 0.54348 0.30563 0.0
O80 O 0.11473 0.51216 0.30812 0.0
C81 C 0.16245 0.55392 0.29017 0.0
C82 C 0.09508 0.51423 0.31189 0.0
O83 O 0.09804 0.62296 0.28035 0.0
Mg84 Mg 0.88982 0.31477 0.04352 0.0
O85 O 0.88235 0.37653 0.06223 0.0
O86 O 0.86347 0.3418 0.07865 0.0
Mg87 Mg 0.85855 0.25801 0.07027 0.0
C88 C 0.8726 0.37992 0.07428 0.0
C89 C 0.91258 0.3569 0.01916 0.0
O90 O 0.91284 0.30771 0.01538 0.0
O91 O 0.8559 0.31789 0.03499 0.0
O92 O 0.83848 0.27941 0.05145 0.0
O93 O 0.91874 0.29297 0.0552 0.0
O94 O 0.88698 0.2585 0.05676 0.0
C95 C 0.83882 0.30023 0.03983 0.0
C96 C 0.9065 0.26143 0.06075 0.0
O97 O 0.90228 0.37428 0.03035 0.0
Mg98 Mg 0.89189 0.42996 0.69679 0.0
O99 O 0.88499 0.36645 0.67841 0.0
O100 O 0.86448 0.39855 0.66228 0.0
Mg101 Mg 0.85937 0.48271 0.66989 0.0
C102 C 0.87451 0.36159 0.66662 0.0
C103 C 0.91715 0.3916 0.7206 0.0
O104 O 0.91866 0.44111 0.7232 0.0
O105 O 0.85815 0.42567 0.70554 0.0
O106 O 0.83998 0.46313 0.68923 0.0
O107 O 0.92055 0.45229 0.68515 0.0
O108 O 0.8885 0.48411 0.68286 0.0
C109 C 0.84084 0.44293 0.70094 0.0
C110 C 0.90811 0.48177 0.67897 0.0
O111 O 0.90512 0.37267 0.71045 0.0
Mg112 Mg 0.6058 0.18033 0.94487 0.0
O113 O 0.61374 0.11537 0.92711 0.0
O114 O 0.63408 0.14705 0.91082 0.0
Mg115 Mg 0.63786 0.23215 0.91758 0.0
C116 C 0.62451 0.10998 0.91545 0.0
C117 C 0.58112 0.14364 0.96916 0.0
O118 O 0.57919 0.19315 0.97132 0.0
O119 O 0.6395 0.17973 0.9539 0.0
O120 O 0.65732 0.21655 0.9373 0.0
O121 O 0.57694 0.19909 0.9328 0.0
O122 O 0.60862 0.2327 0.93038 0.0
C123 C 0.65662 0.19773 0.94923 0.0
C124 C 0.58906 0.22867 0.92642 0.0
O125 O 0.59323 0.12423 0.95912 0.0
Mg126 Mg 0.60879 0.06354 0.29552 0.0
O127 O 0.61605 0.12696 0.31386 0.0
O128 O 0.63643 0.09434 0.32997 0.0
Mg129 Mg 0.64108 0.00996 0.3224 0.0
C130 C 0.6266 0.13158 0.32562 0.0
C131 C 0.58429 0.10225 0.27136 0.0
O132 O 0.58313 0.05275 0.26852 0.0
O133 O 0.64255 0.06686 0.28671 0.0
O134 O 0.66057 0.0291 0.30305 0.0
O135 O 0.58007 0.04177 0.30723 0.0
O136 O 0.61201 0.00921 0.30941 0.0
C137 C 0.6598 0.04926 0.29133 0.0
C138 C 0.59241 0.01177 0.3133 0.0
O139 O 0.59577 0.12105 0.28184 0.0
Mg140 Mg 0.39024 0.80973 0.04447 0.0
O141 O 0.38283 0.87366 0.0626 0.0
O142 O 0.36271 0.84142 0.07891 0.0
Mg143 Mg 0.35855 0.7566 0.07167 0.0
C144 C 0.37233 0.87862 0.07437 0.0
C145 C 0.41479 0.84805 0.02039 0.0
O146 O 0.41677 0.79859 0.01803 0.0
O147 O 0.35642 0.81169 0.0358 0.0
O148 O 0.33868 0.774 0.05226 0.0
O149 O 0.41925 0.78972 0.05612 0.0
O150 O 0.38758 0.75613 0.05863 0.0
C151 C 0.33929 0.79373 0.04047 0.0
C152 C 0.40722 0.75969 0.06241 0.0
O153 O 0.40268 0.86687 0.03051 0.0
Mg154 Mg 0.39215 0.93308 0.6956 0.0
O155 O 0.38482 0.86843 0.67764 0.0
O156 O 0.36418 0.89952 0.66141 0.0
Mg157 Mg 0.35947 0.98422 0.66852 0.0
C158 C 0.37415 0.86283 0.66594 0.0
C159 C 0.41784 0.89623 0.71942 0.0
O160 O 0.41985 0.94573 0.72151 0.0
O161 O 0.35854 0.93031 0.70463 0.0
O162 O 0.34022 0.96676 0.68818 0.0
O163 O 0.42073 0.95365 0.68361 0.0
O164 O 0.38879 0.98611 0.68132 0.0
C165 C 0.3412 0.94753 0.70004 0.0
C166 C 0.40834 0.98299 0.67734 0.0
O167 O 0.40534 0.87685 0.7096 0.0
Mg168 Mg 0.60811 0.68137 0.44567 0.0
O169 O 0.61576 0.61645 0.42783 0.0
O170 O 0.63652 0.64772 0.41169 0.0
Mg171 Mg 0.64106 0.73248 0.41871 0.0
C172 C 0.62659 0.61092 0.4162 0.0
C173 C 0.58203 0.64537 0.46939 0.0
O174 O 0.58003 0.69488 0.47126 0.0
O175 O 0.64167 0.6789 0.4549 0.0
O176 O 0.6601 0.71501 0.43845 0.0
O177 O 0.57967 0.70165 0.43344 0.0
O178 O 0.61164 0.73416 0.43133 0.0
C179 C 0.65905 0.69596 0.45033 0.0
C180 C 0.59214 0.73093 0.42722 0.0
O181 O 0.59467 0.62551 0.45972 0.0
Mg182 Mg 0.60794 0.56056 0.79577 0.0
O183 O 0.61534 0.62434 0.81397 0.0
O184 O 0.6353 0.59174 0.8303 0.0
Mg185 Mg 0.63937 0.50698 0.82305 0.0
C186 C 0.62577 0.62907 0.82578 0.0
C187 C 0.58326 0.59933 0.77182 0.0
O188 O 0.58094 0.54994 0.76957 0.0
O189 O 0.64186 0.56221 0.78719 0.0
O190 O 0.65935 0.52423 0.8037 0.0
O191 O 0.5788 0.54061 0.8073 0.0
O192 O 0.61042 0.50695 0.80993 0.0
C193 C 0.65889 0.54398 0.79192 0.0
C194 C 0.59076 0.51059 0.81365 0.0
O195 O 0.59566 0.61792 0.78181 0.0
Mg196 Mg 0.39078 0.31325 0.54578 0.0
O197 O 0.38411 0.37698 0.56414 0.0
O198 O 0.36414 0.34494 0.58056 0.0
Mg199 Mg 0.35919 0.26053 0.57315 0.0
C200 C 0.3739 0.38194 0.57603 0.0
C201 C 0.41596 0.35145 0.52196 0.0
O202 O 0.41817 0.30202 0.51981 0.0
O203 O 0.35678 0.31674 0.53739 0.0
O204 O 0.33917 0.27949 0.554 0.0
O205 O 0.4198 0.29152 0.55717 0.0
O206 O 0.38791 0.25923 0.5598 0.0
C207 C 0.33964 0.29941 0.54224 0.0
C208 C 0.40761 0.2618 0.56346 0.0
O209 O 0.4035 0.3704 0.53187 0.0
Mg210 Mg 0.39316 0.4289 0.19351 0.0
O211 O 0.38516 0.36487 0.17551 0.0
O212 O 0.36481 0.39743 0.15937 0.0
Mg213 Mg 0.36102 0.48234 0.16654 0.0
C214 C 0.37439 0.36006 0.16384 0.0
C215 C 0.41707 0.39092 0.21804 0.0
O216 O 0.41818 0.44045 0.22081 0.0
O217 O 0.35948 0.4278 0.20256 0.0
O218 O 0.34157 0.46546 0.18615 0.0
O219 O 0.42193 0.44847 0.18149 0.0
O220 O 0.39024 0.48234 0.17935 0.0
C221 C 0.34232 0.44597 0.19798 0.0
C222 C 0.40977 0.47864 0.17535 0.0
O223 O 0.40582 0.37186 0.20747 0.0
H224 H 0.29959 0.27621 0.55044 0.0
H225 H 0.26842 0.25998 0.53512 0.0
H226 H 0.30384 0.29987 0.49872 0.0
H227 H 0.33524 0.31675 0.51402 0.0
H228 H 0.26157 0.33838 0.50085 0.0
H229 H 0.26445 0.13239 0.50549 0.0
H230 H 0.26375 0.1725 0.52239 0.0
H231 H 0.28633 0.1744 0.51074 0.0
C232 C 0.30077 0.2821 0.53921 0.0
C233 C 0.32004 0.29721 0.53342 0.0
C234 C 0.28294 0.27249 0.53046 0.0
C235 C 0.28402 0.27747 0.51573 0.0
C236 C 0.3028 0.29531 0.51005 0.0
H237 H 0.19938 0.22179 0.44293 0.0
H238 H 0.22956 0.23923 0.45907 0.0
C239 C 0.32069 0.3051 0.51882 0.0
C240 C 0.26571 0.26268 0.50622 0.0
H241 H 0.23475 0.16175 0.49338 0.0
C242 C 0.25573 0.29977 0.49917 0.0
C243 C 0.25814 0.21223 0.5041 0.0
C244 C 0.2688 0.17041 0.51096 0.0
C245 C 0.23815 0.2879 0.49017 0.0
C246 C 0.23065 0.23742 0.48799 0.0
C247 C 0.24055 0.20038 0.4951 0.0
C248 C 0.21282 0.22233 0.47809 0.0
C249 C 0.22754 0.32964 0.48324 0.0
C250 C 0.19372 0.20455 0.48333 0.0
C251 C 0.17636 0.19414 0.47409 0.0
C252 C 0.17791 0.20128 0.45946 0.0
C253 C 0.1975 0.21644 0.45415 0.0
C254 C 0.21478 0.22673 0.46337 0.0
H255 H 0.23169 0.36766 0.4888 0.0
H256 H 0.23286 0.32779 0.47187 0.0
H257 H 0.21002 0.32533 0.48327 0.0
H258 H 0.19202 0.20043 0.49465 0.0
H259 H 0.16154 0.18248 0.47852 0.0
H260 H 0.95062 0.81549 0.50474 0.0
H261 H 0.97788 0.86771 0.49532 0.0
H262 H 0.94711 0.00241 0.51575 0.0
H263 H 0.91984 0.95039 0.52543 0.0
H264 H 0.97562 0.94655 0.47792 0.0
H265 H 0.00768 0.01249 0.53237 0.0
H266 H 0.98945 0.96005 0.52909 0.0
H267 H 0.97986 0.02396 0.53013 0.0
C268 C 0.94949 0.85625 0.50713 0.0
C269 C 0.93318 0.87878 0.51597 0.0
C270 C 0.9651 0.886 0.50173 0.0
C271 C 0.96473 0.93875 0.50511 0.0
C272 C 0.9479 0.96162 0.5133 0.0
H273 H 0.04777 0.17939 0.486 0.0
H274 H 0.02047 0.1271 0.49535 0.0
C275 C 0.93225 0.93187 0.51872 0.0
C276 C 0.98232 0.9695 0.50034 0.0
H277 H 0.02282 0.04823 0.51277 0.0
C278 C 0.98598 0.96872 0.48552 0.0
C279 C 0.99584 -0.00189 0.51031 0.0
C280 C 0.9932 -0.00148 0.52637 0.0
C281 C 0.0026 -0.00334 0.48038 0.0
C282 C 0.01611 0.0253 0.49036 0.0
C283 C 0.01245 0.02606 0.50518 0.0
C284 C 0.03368 0.05609 0.48559 0.0
C285 C 0.00526 0.99622 0.46432 0.0
C286 C 0.05056 0.03327 0.47743 0.0
C287 C 0.06624 0.06306 0.47206 0.0
C288 C 0.06529 0.11614 0.47482 0.0
C289 C 0.04891 0.13864 0.4836 0.0
C290 C 0.03328 0.10885 0.48896 0.0
H291 H 0.99079 0.98215 0.45831 0.0
H292 H 0.00897 0.03471 0.4616 0.0
H293 H 0.01863 0.97086 0.46057 0.0
H294 H 0.05137 0.99249 0.47498 0.0
H295 H 0.0787 0.04457 0.46539 0.0
H296 H 0.30101 0.97337 0.69282 0.0
H297 H 0.27058 0.98987 0.70879 0.0
H298 H 0.30718 0.94593 0.74418 0.0
H299 H 0.33786 0.92886 0.72823 0.0
H300 H 0.26442 0.90857 0.74235 0.0
H301 H 0.26849 0.11549 0.73943 0.0
H302 H 0.26726 0.07714 0.72226 0.0
H303 H 0.29001 0.07304 0.73365 0.0
C304 C 0.30261 0.96668 0.70396 0.0
C305 C 0.32201 0.95032 0.70927 0.0
C306 C 0.2852 0.97644 0.71309 0.0
C307 C 0.28683 0.97031 0.72771 0.0
C308 C 0.30572 0.95138 0.73293 0.0
H309 H 0.20045 0.02061 0.8003 0.0
H310 H 0.23136 0.00387 0.78476 0.0
C311 C 0.32321 0.94149 0.72379 0.0
C312 C 0.26892 0.98489 0.73759 0.0
H313 H 0.23851 0.08576 0.75123 0.0
C314 C 0.25881 0.9473 0.74437 0.0
C315 C 0.26167 0.03552 0.74016 0.0
C316 C 0.27251 0.07779 0.73361 0.0
C317 C 0.24128 0.95881 0.75344 0.0
C318 C 0.23399 0.00942 0.75598 0.0
C319 C 0.24415 0.04703 0.74924 0.0
C320 C 0.21581 0.02392 0.76563 0.0
C321 C 0.2304 0.91651 0.75996 0.0
C322 C 0.19716 0.0432 0.76018 0.0
C323 C 0.17942 0.05326 0.76907 0.0
C324 C 0.18011 0.04426 0.78358 0.0
C325 C 0.19925 0.02746 0.78915 0.0
C326 C 0.21692 0.01754 0.78027 0.0
H327 H 0.23452 0.8788 0.75418 0.0
H328 H 0.23551 0.91727 0.77134 0.0
H329 H 0.21289 0.92111 0.75981 0.0
H330 H 0.19609 0.04885 0.74892 0.0
H331 H 0.16498 0.06624 0.76443 0.0
H332 H 0.07892 0.20133 0.7772 0.0
H333 H 0.05015 0.25037 0.76809 0.0
H334 H 0.02842 0.1172 0.74118 0.0
H335 H 0.05694 0.06769 0.7503 0.0
H336 H 0.03783 0.26747 0.73986 0.0
H337 H 0.97662 0.16111 0.7666 0.0
H338 H 0.0045 0.15809 0.77084 0.0
H339 H 0.99417 0.12255 0.75476 0.0
C340 C 0.06822 0.18261 0.76918 0.0
C341 C 0.07005 0.13046 0.76461 0.0
C342 C 0.05177 0.21067 0.76403 0.0
C343 C 0.0369 0.18703 0.75425 0.0
C344 C 0.03946 0.13578 0.74899 0.0
H345 H 0.92311 0.28926 0.7145 0.0
H346 H 0.95183 0.23906 0.72324 0.0
C347 C 0.05586 0.10767 0.75415 0.0
C348 C 0.01832 0.21556 0.74994 0.0
H349 H 0.9642 0.22038 0.75161 0.0
C350 C 0.02173 0.25734 0.74245 0.0
C351 C 0.99737 0.20213 0.75338 0.0
C352 C 0.99286 0.15881 0.76195 0.0
C353 C 0.00467 0.28568 0.73808 0.0
C354 C 0.98373 0.27231 0.74155 0.0
C355 C 0.9803 0.23045 0.749 0.0
C356 C 0.96519 0.30136 0.73743 0.0
C357 C 0.00917 0.3291 0.72955 0.0
C358 C 0.96274 0.35236 0.74299 0.0
C359 C 0.94638 0.3811 0.73805 0.0
C360 C 0.93213 0.35922 0.7275 0.0
C361 C 0.93387 0.30728 0.7226 0.0
C362 C 0.95028 0.27857 0.72754 0.0
H363 H 0.0254 0.3268 0.72487 0.0
H364 H 0.99749 0.32994 0.72069 0.0
H365 H 0.00788 0.36529 0.73677 0.0
H366 H 0.97383 0.37026 0.75088 0.0
H367 H 0.94537 0.42088 0.74215 0.0
H368 H 0.83638 0.81484 0.51369 0.0
H369 H 0.80516 0.79938 0.49814 0.0
H370 H 0.76878 0.7601 0.5342 0.0
H371 H 0.7996 0.776 0.54982 0.0
H372 H 0.78437 0.70538 0.49302 0.0
H373 H 0.72891 0.85565 0.51614 0.0
H374 H 0.75707 0.85813 0.51975 0.0
H375 H 0.74006 0.81918 0.52922 0.0
C376 C 0.82161 0.804 0.51838 0.0
C377 C 0.82054 0.79657 0.53301 0.0
C378 C 0.80383 0.79496 0.50947 0.0
C379 C 0.78464 0.77895 0.51505 0.0
C380 C 0.78332 0.77325 0.52972 0.0
H381 H 0.66225 0.67979 0.47872 0.0
H382 H 0.69329 0.69532 0.49445 0.0
C383 C 0.80104 0.78212 0.53862 0.0
C384 C 0.76645 0.76438 0.5054 0.0
H385 H 0.71418 0.78929 0.49976 0.0
C386 C 0.76906 0.72395 0.49441 0.0
C387 C 0.74645 0.78833 0.50736 0.0
C388 C 0.74294 0.83303 0.51867 0.0
C389 C 0.7521 0.70633 0.48543 0.0
C390 C 0.73212 0.73034 0.48738 0.0
C391 C 0.72949 0.77071 0.49838 0.0
C392 C 0.71399 0.71597 0.47765 0.0
C393 C 0.75562 0.66162 0.47412 0.0
C394 C 0.71545 0.72185 0.46299 0.0
C395 C 0.69783 0.71295 0.45401 0.0
C396 C 0.67829 0.69829 0.45951 0.0
C397 C 0.67706 0.69078 0.47412 0.0
C398 C 0.69474 0.69986 0.48313 0.0
H399 H 0.7696 0.6389 0.47669 0.0
H400 H 0.74146 0.63661 0.473 0.0
H401 H 0.75859 0.67545 0.46358 0.0
H402 H 0.73003 0.73507 0.45859 0.0
H403 H 0.6994 0.71914 0.44282 0.0
H404 H 0.69999 0.02543 0.29902 0.0
H405 H 0.73071 0.00881 0.28332 0.0
H406 H 0.69432 0.04912 0.24737 0.0
H407 H 0.66341 0.0664 0.26305 0.0
H408 H 0.73124 0.93515 0.2594 0.0
H409 H 0.75042 0.12503 0.24404 0.0
H410 H 0.73377 0.1164 0.25926 0.0
H411 H 0.7232 0.10618 0.24129 0.0
C412 C 0.69855 0.03166 0.28783 0.0
C413 C 0.67916 0.04705 0.28228 0.0
C414 C 0.71615 0.02202 0.27887 0.0
C415 C 0.71481 0.02781 0.26421 0.0
C416 C 0.69578 0.04511 0.25871 0.0
H417 H 0.79976 0.9645 0.1918 0.0
H418 H 0.76905 0.98131 0.20751 0.0
C419 C 0.67811 0.05492 0.26769 0.0
C420 C 0.73285 0.0121 0.25454 0.0
H421 H 0.76852 0.05503 0.23143 0.0
C422 C 0.73948 0.96137 0.25332 0.0
C423 C 0.74348 0.04639 0.24662 0.0
C424 C 0.73752 0.10166 0.24792 0.0
C425 C 0.75629 0.94379 0.24422 0.0
C426 C 0.76692 0.97808 0.2363 0.0
C427 C 0.76029 0.02881 0.23751 0.0
C428 C 0.78495 0.96235 0.22663 0.0
C429 C 0.76223 0.88852 0.24291 0.0
C430 C 0.80398 0.945 0.23213 0.0
C431 C 0.82163 0.93507 0.22314 0.0
C432 C 0.82058 0.94286 0.20855 0.0
C433 C 0.8012 0.95831 0.203 0.0
C434 C 0.78361 0.96807 0.21196 0.0
H435 H 0.74934 0.86516 0.24679 0.0
H436 H 0.76598 0.87378 0.23157 0.0
H437 H 0.77655 0.88399 0.24954 0.0
H438 H 0.80543 0.94104 0.24347 0.0
H439 H 0.83633 0.92357 0.22779 0.0
H440 H 0.94222 0.91393 0.24118 0.0
H441 H 0.97118 0.86438 0.24971 0.0
H442 H 0.95157 0.73452 0.22057 0.0
H443 H 0.92263 0.78395 0.21181 0.0
H444 H 0.97231 0.77188 0.26173 0.0
H445 H 0.01354 0.75891 0.20885 0.0
H446 H 0.9919 0.8022 0.21354 0.0
H447 H 0.98665 0.73627 0.20815 0.0
C448 C 0.94387 0.87464 0.2367 0.0
C449 C 0.93029 0.85305 0.22568 0.0
C450 C 0.96044 0.84643 0.24158 0.0
C451 C 0.96377 0.79625 0.23552 0.0
C452 C 0.9495 0.7736 0.22515 0.0
H453 H 0.05939 0.57319 0.24784 0.0
H454 H 0.03025 0.62177 0.2391 0.0
C455 C 0.93289 0.80178 0.22025 0.0
C456 C 0.98264 0.76845 0.2397 0.0
H457 H 0.02902 0.71454 0.22665 0.0
C458 C 0.98474 0.75938 0.25409 0.0
C459 C 0.99883 0.75251 0.22968 0.0
C460 C 0.9978 0.76326 0.21421 0.0
C461 C 0.00249 0.73393 0.2587 0.0
C462 C 0.01868 0.71804 0.24868 0.0
C463 C 0.01657 0.727 0.23428 0.0
C464 C 0.03766 0.69076 0.25291 0.0
C465 C 0.00357 0.72332 0.27417 0.0
C466 C 0.05196 0.71421 0.26313 0.0
C467 C 0.06868 0.68662 0.26813 0.0
C468 C 0.07134 0.63513 0.26297 0.0
C469 C 0.0577 0.61268 0.2521 0.0
C470 C 0.04103 0.64033 0.2471 0.0
H471 H 0.98785 0.72774 0.27956 0.0
H472 H 0.00948 0.68439 0.27485 0.0
H473 H 0.01475 0.75034 0.28019 0.0
H474 H 0.04983 0.75347 0.26751 0.0
H475 H 0.07897 0.70511 0.27644 0.0
H476 H 0.33514 0.81495 0.01258 0.0
H477 H 0.30414 0.79912 -0.00309 0.0
H478 H 0.2687 0.7499 0.0321 0.0
H479 H 0.29953 0.76505 0.0478 0.0
H480 H 0.26786 0.68117 0.007 0.0
H481 H 0.24776 0.87556 -0.00436 0.0
H482 H 0.27497 0.85768 0.99232 0.0
H483 H 0.26476 0.86352 0.01039 0.0
C484 C 0.32064 0.80165 0.01707 0.0
C485 C 0.31988 0.79112 0.03145 0.0
C486 C 0.30292 0.79271 0.0081 0.0
C487 C 0.28411 0.77355 0.01338 0.0
C488 C 0.28308 0.76464 0.02782 0.0
H489 H 0.16208 0.67525 0.97671 0.0
H490 H 0.19332 0.69005 0.9922 0.0
C491 C 0.30074 0.77346 0.03678 0.0
C492 C 0.26591 0.75971 0.00368 0.0
H493 H 0.22955 0.80789 0.98201 0.0
C494 C 0.25941 0.70887 0.00157 0.0
C495 C 0.255 0.79594 -0.00339 0.0
C496 C 0.2608 0.85132 -0.00109 0.0
C497 C 0.24243 0.69312 0.99238 0.0
C498 C 0.23151 0.72935 0.98532 0.0
C499 C 0.23802 0.78018 0.98743 0.0
C500 C 0.21323 0.71561 0.97567 0.0
C501 C 0.2366 0.63775 0.99009 0.0
C502 C 0.21413 0.72478 0.96125 0.0
C503 C 0.19634 0.71657 0.95239 0.0
C504 C 0.17719 0.69927 0.95781 0.0
C505 C 0.17658 0.68829 0.97215 0.0
C506 C 0.19443 0.69664 0.98102 0.0
H507 H 0.24967 0.61349 0.99332 0.0
H508 H 0.22249 0.6314 -0.00327 0.0
H509 H 0.23256 0.62557 0.97863 0.0
H510 H 0.22851 0.73938 0.95692 0.0
H511 H 0.19744 0.72526 0.9414 0.0
H512 H 0.05743 0.67038 0.99251 0.0
H513 H 0.02872 0.62085 0.00139 0.0
H514 H 0.04592 0.49309 0.97068 0.0
H515 H 0.07486 0.54204 0.96186 0.0
H516 H 0.99511 0.58207 0.98424 0.0
H517 H 0.03751 0.42875 0.00771 0.0
H518 H 0.05056 0.48607 0.00395 0.0
H519 H 0.04543 0.43603 0.98964 0.0
C520 C 0.05541 0.6314 0.98784 0.0
C521 C 0.06838 0.6102 0.97644 0.0
C522 C 0.03895 0.60323 0.99291 0.0
C523 C 0.03526 0.55332 0.98672 0.0
C524 C 0.04872 0.5313 0.97576 0.0
H525 H 0.93793 0.33048 -0.0042 0.0
H526 H 0.96645 0.3806 0.98693 0.0
C527 C 0.06523 0.5594 0.9707 0.0
C528 C 0.01629 0.52583 0.99092 0.0
H529 H 0.00028 0.41877 0.00447 0.0
C530 C 0.99621 0.5465 0.98875 0.0
C531 C 0.01783 0.47937 -0.00329 0.0
C532 C 0.03899 0.45639 -0.00022 0.0
C533 C 0.97756 0.52151 0.99202 0.0
C534 C 0.9791 0.47501 -0.00222 0.0
C535 C 0.99918 0.45435 -4e-05 0.0
C536 C 0.96016 0.44741 0.00193 0.0
C537 C 0.95639 0.54452 0.98902 0.0
C538 C 0.94688 0.46888 0.01308 0.0
C539 C 0.9305 0.44042 0.01815 0.0
C540 C 0.92729 0.38983 0.01223 0.0
C541 C 0.94002 0.36927 0.00062 0.0
C542 C 0.95636 0.39777 -0.00444 0.0
H543 H 0.95785 0.57275 0.98125 0.0
H544 H 0.9449 0.51489 0.98468 0.0
H545 H 0.94984 0.56413 -0.00078 0.0
H546 H 0.94976 0.50689 0.01829 0.0
H547 H 0.92103 0.45731 0.02714 0.0
H548 H 0.33879 0.42911 0.22628 0.0
H549 H 0.30805 0.44721 0.24208 0.0
H550 H 0.27175 0.4895 0.20633 0.0
H551 H 0.3023 0.47211 0.19052 0.0
H552 H 0.27125 0.56224 0.23043 0.0
H553 H 0.2519 0.37165 0.24518 0.0
H554 H 0.27913 0.39021 0.24802 0.0
H555 H 0.26861 0.38078 0.23003 0.0
C556 C 0.32414 0.44129 0.22171 0.0
C557 C 0.32306 0.44934 0.20714 0.0
C558 C 0.30658 0.45155 0.23076 0.0
C559 C 0.28762 0.46952 0.22535 0.0
C560 C 0.28626 0.47576 0.21072 0.0
H561 H 0.16607 0.57203 0.26197 0.0
H562 H 0.19703 0.55553 0.2463 0.0
C563 C 0.30376 0.46566 0.20169 0.0
C564 C 0.26961 0.48503 0.23507 0.0
H565 H 0.23392 0.44135 0.25803 0.0
C566 C 0.26301 0.5358 0.23643 0.0
C567 C 0.25896 0.45045 0.24288 0.0
C568 C 0.26484 0.39512 0.2414 0.0
C569 C 0.24621 0.55313 0.24557 0.0
C570 C 0.23558 0.51856 0.2534 0.0
C571 C 0.24217 0.46779 0.25204 0.0
C572 C 0.21754 0.53396 0.26309 0.0
C573 C 0.24026 0.60841 0.24702 0.0
C574 C 0.21888 0.52779 0.27773 0.0
C575 C 0.20126 0.537 0.28668 0.0
C576 C 0.18184 0.5523 0.28116 0.0
C577 C 0.18079 0.56058 0.2666 0.0
C578 C 0.19848 0.55123 0.25762 0.0
H579 H 0.25313 0.63192 0.24318 0.0
H580 H 0.22591 0.61314 0.24044 0.0
H581 H 0.23655 0.62282 0.2584 0.0
H582 H 0.23346 0.51458 0.28215 0.0
H583 H 0.2027 0.53045 0.29785 0.0
H584 H 0.66048 0.18038 0.9775 0.0
H585 H 0.69133 0.19904 0.99324 0.0
H586 H 0.72703 0.24304 0.95748 0.0
H587 H 0.69647 0.22493 0.94171 0.0
H588 H 0.73426 0.16265 0.99106 0.0
H589 H 0.72906 0.36931 0.98795 0.0
H590 H 0.70761 0.32626 0.98245 0.0
H591 H 0.73002 0.33079 0.97079 0.0
C592 C 0.67498 0.1934 0.97294 0.0
C593 C 0.6759 0.20173 0.95838 0.0
C594 C 0.69254 0.2042 0.98196 0.0
C595 C 0.71122 0.22357 0.97657 0.0
C596 C 0.71256 0.22929 0.9619 0.0
H597 H 0.83405 0.31915 0.01177 0.0
H598 H 0.80248 0.30262 -0.00341 0.0
C599 C 0.69508 0.21861 0.9529 0.0
C600 C 0.72926 0.23876 0.98627 0.0
H601 H 0.75959 0.34043 -0.00061 0.0
C602 C 0.73974 0.20152 0.99297 0.0
C603 C 0.73634 0.28956 0.98868 0.0
C604 C 0.72509 0.33145 0.98221 0.0
C605 C 0.75747 0.21354 0.0018 0.0
C606 C 0.76461 0.26431 0.00417 0.0
C607 C 0.75408 0.30159 -0.00249 0.0
C608 C 0.78294 0.27924 0.01362 0.0
C609 C 0.76872 0.17164 0.00828 0.0
C610 C 0.78204 0.27361 0.0283 0.0
C611 C 0.79995 0.28305 0.03698 0.0
C612 C 0.81911 0.29857 0.03114 0.0
C613 C 0.81958 0.30717 0.0166 0.0
C614 C 0.80159 0.29759 0.0079 0.0
H615 H 0.7645 0.13372 0.00268 0.0
H616 H 0.7862 0.17642 0.00782 0.0
H617 H 0.76407 0.17282 0.01976 0.0
H618 H 0.76762 0.26062 0.03297 0.0
H619 H 0.79892 0.27662 0.04817 0.0
H620 H 0.66333 0.56442 0.76396 0.0
H621 H 0.69442 0.54747 0.7484 0.0
H622 H 0.72927 0.498 0.78382 0.0
H623 H 0.69855 0.51537 0.79948 0.0
H624 H 0.75296 0.55927 0.76728 0.0
H625 H 0.71262 0.4019 0.73319 0.0
H626 H 0.69896 0.46156 0.73478 0.0
H627 H 0.70224 0.42916 0.7504 0.0
C628 C 0.67769 0.55063 0.7685 0.0
C629 C 0.67834 0.54076 0.78294 0.0
C630 C 0.69538 0.54055 0.75956 0.0
C631 C 0.71395 0.52041 0.7649 0.0
C632 C 0.71501 0.51308 0.77947 0.0
H633 H 0.83701 0.42137 0.72884 0.0
H634 H 0.80602 0.43663 0.74459 0.0
C635 C 0.6974 0.52305 0.78839 0.0
C636 C 0.73214 0.50553 0.7553 0.0
H637 H 0.74707 0.42375 0.72602 0.0
C638 C 0.75173 0.52959 0.75827 0.0
C639 C 0.73044 0.46655 0.74363 0.0
C640 C 0.71 0.43789 0.74033 0.0
C641 C 0.76961 0.51646 0.74968 0.0
C642 C 0.7679 0.47753 0.73799 0.0
C643 C 0.74832 0.45338 0.73504 0.0
C644 C 0.78601 0.46316 0.72826 0.0
C645 C 0.79002 0.54525 0.75295 0.0
C646 C 0.78464 0.47061 0.71371 0.0
C647 C 0.80218 0.46155 0.70467 0.0
C648 C 0.82149 0.4447 0.71 0.0
C649 C 0.82244 0.43454 0.7244 0.0
C650 C 0.80482 0.44367 0.73345 0.0
H651 H 0.78738 0.58115 0.76013 0.0
H652 H 0.80114 0.52161 0.75846 0.0
H653 H 0.79771 0.55418 0.74288 0.0
H654 H 0.7702 0.48519 0.70946 0.0
H655 H 0.80078 0.4694 0.69362 0.0
H656 H 0.5527 0.17389 0.99049 0.0
H657 H 0.5248 0.12301 -0.00023 0.0
H658 H 0.54792 0.99048 0.9732 0.0
H659 H 0.57605 0.04088 0.96397 0.0
H660 H 0.49377 0.07233 0.98226 0.0
H661 H 0.53858 0.93917 0.01223 0.0
H662 H 0.55012 -0.0033 0.00729 0.0
H663 H 0.54777 0.94173 0.99415 0.0
C664 C 0.55214 0.13371 0.98683 0.0
C665 C 0.56655 0.11146 0.97645 0.0
C666 C 0.53615 0.10476 0.99212 0.0
C667 C 0.53436 0.05303 0.98721 0.0
C668 C 0.54923 0.03021 0.9773 0.0
H669 H 0.44326 0.81902 -0.00099 0.0
H670 H 0.47113 0.87061 0.98998 0.0
C671 C 0.56527 0.05913 0.97201 0.0
C672 C 0.51595 0.02396 0.99156 0.0
H673 H 0.50205 0.92106 0.00789 0.0
C674 C 0.49554 0.03942 0.98795 0.0
C675 C 0.51838 0.98097 -0.00111 0.0
C676 C 0.53987 0.96381 0.0035 0.0
C677 C 0.47744 0.01247 0.99128 0.0
C678 C 0.47987 0.96941 -0.00141 0.0
C679 C 0.50028 0.95401 0.00222 0.0
C680 C 0.46148 0.94002 0.0028 0.0
C681 C 0.45593 0.02964 0.9867 0.0
C682 C 0.44657 0.9623 0.01276 0.0
C683 C 0.43055 0.93297 0.01791 0.0
C684 C 0.42934 0.88077 0.01327 0.0
C685 C 0.44378 0.85909 0.00283 0.0
C686 C 0.45975 0.88844 -0.00232 0.0
H687 H 0.45721 0.0548 0.9781 0.0
H688 H 0.44578 -0.00326 0.98275 0.0
H689 H 0.44793 0.05113 -0.0039 0.0
H690 H 0.44783 0.00191 0.017 0.0
H691 H 0.41973 0.95078 0.02599 0.0
H692 H 0.4241 0.2891 0.21174 0.0
H693 H 0.45229 0.23965 0.22129 0.0
H694 H 0.47149 0.37051 0.25019 0.0
H695 H 0.44354 0.42048 0.2406 0.0
H696 H 0.50449 0.32546 0.23342 0.0
H697 H 0.45955 0.18244 0.25964 0.0
H698 H 0.45173 0.18708 0.24138 0.0
H699 H 0.44751 0.23986 0.25501 0.0
C700 C 0.43402 0.30712 0.22034 0.0
C701 C 0.43164 0.3588 0.22537 0.0
C702 C 0.4501 0.27874 0.22581 0.0
C703 C 0.4639 0.3014 0.23649 0.0
C704 C 0.46099 0.35237 0.24195 0.0
H705 H 0.57728 0.204 0.27794 0.0
H706 H 0.54898 0.25381 0.26865 0.0
C707 C 0.44497 0.3808 0.23647 0.0
C708 C 0.48239 0.27321 0.24114 0.0
H709 H 0.4966 0.16858 0.25658 0.0
C710 C 0.5028 0.29131 0.23857 0.0
C711 C 0.48008 0.2286 0.24776 0.0
C712 C 0.45855 0.20849 0.25125 0.0
C713 C 0.52102 0.26547 0.24225 0.0
C714 C 0.51871 0.22081 0.24886 0.0
C715 C 0.4983 0.20275 0.25144 0.0
C716 C 0.5372 0.1924 0.2534 0.0
C717 C 0.54255 0.28556 0.23876 0.0
C718 C 0.54004 0.14151 0.24783 0.0
C719 C 0.55612 0.11289 0.25316 0.0
C720 C 0.56959 0.1346 0.26422 0.0
C721 C 0.56725 0.1862 0.26937 0.0
C722 C 0.55111 0.21478 0.26405 0.0
H723 H 0.54153 0.31182 0.23042 0.0
H724 H 0.54943 0.30672 0.24864 0.0
H725 H 0.55354 0.25419 0.23491 0.0
H726 H 0.52945 0.1236 0.23961 0.0
H727 H 0.55751 0.07328 0.24894 0.0
H728 H 0.44692 0.92643 0.74034 0.0
H729 H 0.47514 0.87548 0.74923 0.0
H730 H 0.45088 0.74262 0.72339 0.0
H731 H 0.42265 0.79333 0.7143 0.0
H732 H 0.47439 0.78666 0.76337 0.0
H733 H 0.51285 0.75453 0.70953 0.0
H734 H 0.49265 0.802 0.7139 0.0
H735 H 0.48539 0.73653 0.70988 0.0
C736 C 0.4474 0.88625 0.73667 0.0
C737 C 0.43269 0.86402 0.72648 0.0
C738 C 0.46355 0.85724 0.74176 0.0
C739 C 0.46532 0.80564 0.73671 0.0
C740 C 0.44999 0.78268 0.72717 0.0
H741 H 0.55436 0.57088 0.75066 0.0
H742 H 0.52656 0.6231 0.74181 0.0
C743 C 0.43379 0.81164 0.72208 0.0
C744 C 0.48366 0.77637 0.74106 0.0
H745 H 0.52776 0.71197 0.72793 0.0
C746 C 0.48611 0.77042 0.75566 0.0
C747 C 0.49892 0.75554 0.73093 0.0
C748 C 0.49751 0.76272 0.71519 0.0
C749 C 0.50325 0.74314 0.76038 0.0
C750 C 0.51849 0.7222 0.75025 0.0
C751 C 0.51606 0.72827 0.73565 0.0
C752 C 0.53665 0.69227 0.75456 0.0
C753 C 0.50463 0.73588 0.77611 0.0
C754 C 0.55201 0.71442 0.76421 0.0
C755 C 0.56796 0.68471 0.76929 0.0
C756 C 0.56878 0.63237 0.76475 0.0
C757 C 0.55409 0.61099 0.75444 0.0
C758 C 0.53818 0.64073 0.74937 0.0
H759 H 0.48931 0.74433 0.78179 0.0
H760 H 0.50936 0.6965 0.7774 0.0
H761 H 0.51683 0.76183 0.78143 0.0
H762 H 0.55133 0.75442 0.76809 0.0
H763 H 0.57911 0.70239 0.77717 0.0
H764 H 0.42048 0.45446 0.52714 0.0
H765 H 0.44813 0.50594 0.51769 0.0
H766 H 0.47236 0.37358 0.4916 0.0
H767 H 0.44471 0.32203 0.5008 0.0
H768 H 0.49158 0.48957 0.52128 0.0
H769 H 0.47089 0.47902 0.46332 0.0
H770 H 0.45226 0.46321 0.47674 0.0
H771 H 0.47225 0.41846 0.46987 0.0
C772 C 0.4314 0.4365 0.51915 0.0
C773 C 0.43043 0.38411 0.51475 0.0
C774 C 0.44723 0.46594 0.51381 0.0
C775 C 0.46219 0.4436 0.50389 0.0
C776 C 0.46076 0.39172 0.49907 0.0
H777 H 0.57696 0.54247 0.46459 0.0
H778 H 0.54881 0.49243 0.47405 0.0
C779 C 0.44498 0.36227 0.5044 0.0
C780 C 0.48031 0.47347 0.49945 0.0
H781 H 0.50525 0.51062 0.47011 0.0
C782 C 0.49451 0.49456 0.51011 0.0
C783 C 0.48413 0.47949 0.48486 0.0
C784 C 0.46898 0.45926 0.47304 0.0
C785 C 0.51267 0.52082 0.50653 0.0
C786 C 0.51653 0.52665 0.49194 0.0
C787 C 0.5023 0.5057 0.48129 0.0
C788 C 0.53484 0.5558 0.48748 0.0
C789 C 0.5278 0.54116 0.51835 0.0
C790 C 0.53647 0.60778 0.4921 0.0
C791 C 0.55253 0.63642 0.48675 0.0
C792 C 0.56717 0.61363 0.47661 0.0
C793 C 0.56598 0.56114 0.47242 0.0
C794 C 0.54986 0.53253 0.47776 0.0
H795 H 0.52566 0.52214 0.52819 0.0
H796 H 0.54453 0.53637 0.51472 0.0
H797 H 0.52479 0.58219 0.5213 0.0
H798 H 0.52484 0.6266 0.49942 0.0
H799 H 0.55297 0.67677 0.49018 0.0
H800 H 0.15567 0.66806 0.3462 0.0
H801 H 0.15504 0.74882 0.36169 0.0
H802 H 0.09998 0.79437 0.33907 0.0
H803 H 0.10099 0.71433 0.32315 0.0
H804 H 0.12692 0.87007 0.3437 0.0
H805 H 0.11622 0.78871 0.3949 0.0
H806 H 0.13965 0.76504 0.38552 0.0
H807 H 0.11395 0.75107 0.37757 0.0
C808 C 0.1434 0.69522 0.34452 0.0
C809 C 0.12829 0.68457 0.33348 0.0
C810 C 0.14296 0.74128 0.35348 0.0
C811 C 0.12714 0.77725 0.35182 0.0
C812 C 0.11226 0.76709 0.34064 0.0
H813 H 0.09918 0.03347 0.41654 0.0
H814 H 0.09879 0.95284 0.40086 0.0
C815 C 0.11286 0.7213 0.33153 0.0
C816 C 0.12638 0.82589 0.36151 0.0
H817 H 0.1255 0.87626 0.39692 0.0
C818 C 0.12647 0.87139 0.35533 0.0
C819 C 0.12539 0.82776 0.37671 0.0
C820 C 0.12356 0.78052 0.38406 0.0
C821 C 0.12603 0.91856 0.3639 0.0
C822 C 0.12622 0.92042 0.3791 0.0
C823 C 0.12568 0.87493 0.38528 0.0
C824 C 0.12676 0.96908 0.38879 0.0
C825 C 0.12489 0.96582 0.3565 0.0
C826 C 0.14287 0.00467 0.38748 0.0
C827 C 0.14297 0.05105 0.39629 0.0
C828 C 0.12722 0.0624 0.40685 0.0
C829 C 0.11155 0.02594 0.40853 0.0
C830 C 0.1113 0.97983 0.39955 0.0
H831 H 0.1181 0.9578 0.34549 0.0
H832 H 0.11511 0.9955 0.36275 0.0
H833 H 0.14115 0.98093 0.35543 0.0
H834 H 0.15539 -0.00334 0.3796 0.0
H835 H 0.15543 0.07798 0.39484 0.0
H836 H 0.05412 0.22597 0.41233 0.0
H837 H 0.04257 0.27332 0.39273 0.0
H838 H 0.10306 0.34952 0.39408 0.0
H839 H 0.11457 0.30332 0.41359 0.0
H840 H 0.06503 0.4136 0.3935 0.0
H841 H 0.06776 0.24835 0.35061 0.0
H842 H 0.05321 0.24361 0.36698 0.0
H843 H 0.0816 0.24724 0.36747 0.0
C844 C 0.06492 0.25284 0.40842 0.0
C845 C 0.08534 0.26058 0.41439 0.0
C846 C 0.0583 0.27975 0.39726 0.0
C847 C 0.07202 0.31467 0.392 0.0
C848 C 0.09226 0.32274 0.39805 0.0
H849 H 0.11662 0.44318 0.32456 0.0
H850 H 0.10426 0.39507 0.34344 0.0
C851 C 0.09887 0.29597 0.40912 0.0
C852 C 0.06607 0.34237 0.37989 0.0
H853 H 0.06712 0.32932 0.3432 0.0
C854 C 0.06478 0.3953 0.38247 0.0
C855 C 0.06579 0.31801 0.3656 0.0
C856 C 0.06719 0.26118 0.36236 0.0
C857 C 0.0651 0.4249 0.37107 0.0
C858 C 0.06658 0.4006 0.3568 0.0
C859 C 0.06597 0.34759 0.35419 0.0
C860 C 0.07297 0.42881 0.34489 0.0
C861 C 0.06578 0.4818 0.37437 0.0
C862 C 0.05939 0.46365 0.33946 0.0
C863 C 0.06651 0.49168 0.32868 0.0
C864 C 0.08728 0.48514 0.32326 0.0
C865 C 0.10065 0.44963 0.32863 0.0
C866 C 0.09355 0.42176 0.33933 0.0
H867 H 0.06582 0.49454 0.38614 0.0
H868 H 0.08018 0.49685 0.36953 0.0
H869 H 0.05174 0.49841 0.36954 0.0
H870 H 0.04341 0.46928 0.3436 0.0
H871 H 0.05582 0.51857 0.32466 0.0
H872 H 0.10936 0.22237 0.81928 0.0
H873 H 0.10962 0.30524 0.83383 0.0
H874 H 0.14507 0.24285 0.86694 0.0
H875 H 0.14519 0.16013 0.85244 0.0
H876 H 0.09319 0.33223 0.86107 0.0
H877 H 0.17991 0.36737 0.86071 0.0
H878 H 0.16732 0.31849 0.84852 0.0
H879 H 0.17289 0.30817 0.8668 0.0
C880 C 0.11735 0.22626 0.82961 0.0
C881 C 0.12735 0.18447 0.83463 0.0
C882 C 0.11745 0.27369 0.83792 0.0
C883 C 0.12763 0.28042 0.85138 0.0
C884 C 0.13751 0.23882 0.85646 0.0
H885 H 0.10784 0.52575 0.92052 0.0
H886 H 0.10858 0.44466 0.90511 0.0
C887 C 0.13746 0.19142 0.84816 0.0
C888 C 0.12733 0.33054 0.86031 0.0
H889 H 0.15939 0.42304 0.87712 0.0
C890 C 0.10766 0.35222 0.86453 0.0
C891 C 0.14621 0.35686 0.86467 0.0
C892 C 0.16778 0.33684 0.85984 0.0
C893 C 0.10635 0.39905 0.87323 0.0
C894 C 0.12525 0.42446 0.87803 0.0
C895 C 0.14492 0.40325 0.87357 0.0
C896 C 0.12498 0.47352 0.88749 0.0
C897 C 0.08474 0.42124 0.87699 0.0
C898 C 0.1345 0.5164 0.88289 0.0
C899 C 0.13428 0.56276 0.89172 0.0
C900 C 0.12459 0.5672 0.90538 0.0
C901 C 0.11531 0.52391 0.91003 0.0
C902 C 0.1156 0.47751 0.9012 0.0
H903 H 0.07234 0.40431 0.86944 0.0
H904 H 0.08037 0.41345 0.888 0.0
H905 H 0.08475 0.46289 0.87684 0.0
H906 H 0.14193 0.51412 0.87238 0.0
H907 H 0.14161 0.59518 0.88776 0.0
H908 H 0.10919 0.81349 0.91721 0.0
H909 H 0.09654 0.86228 0.89857 0.0
H910 H 0.03918 0.77333 0.89428 0.0
H911 H 0.05182 0.72377 0.91312 0.0
H912 H 0.06086 0.78174 0.86806 0.0
H913 H 0.04939 0.96972 0.89917 0.0
H914 H 0.07423 0.94232 0.9035 0.0
H915 H 0.04978 0.9119 0.90751 0.0
C916 C 0.09384 0.80433 0.91238 0.0
C917 C 0.08154 0.76466 0.91656 0.0
C918 C 0.08651 0.83269 0.90185 0.0
C919 C 0.06674 0.82206 0.8953 0.0
C920 C 0.05434 0.78249 0.89941 0.0
H921 H 0.05391 0.02432 0.82784 0.0
H922 H 0.04049 0.97577 0.84668 0.0
C923 C 0.06161 0.75421 0.9101 0.0
C924 C 0.06048 0.8496 0.8832 0.0
H925 H 0.06012 0.96955 0.874 0.0
C926 C 0.05996 0.82274 0.86934 0.0
C927 C 0.05888 0.90296 0.88492 0.0
C928 C 0.05786 0.93334 0.89961 0.0
C929 C 0.06036 0.84829 0.85711 0.0
C930 C 0.06155 0.9017 0.85889 0.0
C931 C 0.05956 0.92852 0.87269 0.0
C932 C 0.06864 0.9295 0.84705 0.0
C933 C 0.06093 0.81789 0.84241 0.0
C934 C 0.08901 0.92008 0.84133 0.0
C935 C 0.09676 0.94785 0.83079 0.0
C936 C 0.08429 0.98573 0.82577 0.0
C937 C 0.06385 0.99527 0.83151 0.0
C938 C 0.05614 0.96757 0.8422 0.0
H939 H 0.05279 0.78091 0.84248 0.0
H940 H 0.05337 0.83878 0.83418 0.0
H941 H 0.0777 0.81013 0.83923 0.0
H942 H 0.09909 0.89164 0.8452 0.0
H943 H 0.11252 0.93941 0.82654 0.0
H944 H 0.90178 0.28201 0.66768 0.0
H945 H 0.90246 0.20181 0.65184 0.0
H946 H 0.84723 0.24775 0.62946 0.0
H947 H 0.84693 0.32869 0.64488 0.0
H948 H 0.8754 0.12655 0.64752 0.0
H949 H 0.88545 0.20647 0.59605 0.0
H950 H 0.88801 0.24448 0.61329 0.0
H951 H 0.86218 0.23062 0.60553 0.0
C952 C 0.8898 0.27509 0.65937 0.0
C953 C 0.87441 0.31197 0.65747 0.0
C954 C 0.89022 0.22922 0.6503 0.0
C955 C 0.87519 0.21909 0.63922 0.0
C956 C 0.85942 0.25524 0.6376 0.0
H957 H 0.84556 0.9181 0.597 0.0
H958 H 0.84612 -0.00037 0.61213 0.0
C959 C 0.85917 0.30141 0.64652 0.0
C960 C 0.87572 0.17026 0.6296 0.0
H961 H 0.87593 0.11908 0.59426 0.0
C962 C 0.87566 0.12495 0.63587 0.0
C963 C 0.87647 0.16802 0.61439 0.0
C964 C 0.87827 0.21501 0.60692 0.0
C965 C 0.87589 0.07761 0.62739 0.0
C966 C 0.87543 0.07539 0.61218 0.0
C967 C 0.87595 0.12068 0.60591 0.0
C968 C 0.8746 0.02654 0.60258 0.0
C969 C 0.87708 0.03056 0.63488 0.0
C970 C 0.88981 0.01534 0.59167 0.0
C971 C 0.88925 0.96911 0.58276 0.0
C972 C 0.87353 0.93299 0.58466 0.0
C973 C 0.85806 0.94477 0.59539 0.0
C974 C 0.85845 0.99126 0.60413 0.0
H975 H 0.88412 0.03876 0.64581 0.0
H976 H 0.86082 0.01576 0.63615 0.0
H977 H 0.88667 0.00059 0.62859 0.0
H978 H 0.90234 0.04208 0.59019 0.0
H979 H 0.9014 0.96124 0.57461 0.0
H980 H 0.88669 0.55388 0.66669 0.0
H981 H 0.89874 0.60135 0.64759 0.0
H982 H 0.95908 0.52453 0.64646 0.0
H983 H 0.94698 0.47589 0.66564 0.0
H984 H 0.93644 0.66539 0.64708 0.0
H985 H 0.9347 0.49958 0.60434 0.0
H986 H 0.92095 0.49823 0.62121 0.0
H987 H 0.94936 0.49536 0.62069 0.0
C988 C 0.90249 0.54674 0.66238 0.0
C989 C 0.91579 0.51067 0.66753 0.0
C990 C 0.90941 0.57426 0.65155 0.0
C991 C 0.92974 0.56626 0.64564 0.0
C992 C 0.94328 0.53091 0.65087 0.0
H993 H 0.94622 0.76743 0.57757 0.0
H994 H 0.95854 0.71985 0.59692 0.0
C995 C 0.93635 0.50325 0.66179 0.0
C996 C 0.93584 0.59395 0.63356 0.0
H997 H 0.93535 0.58035 0.59685 0.0
C998 C 0.93691 0.64693 0.63608 0.0
C999 C 0.93643 0.5694 0.61929 0.0
C1000 C 0.93526 0.51252 0.61609 0.0
C1001 C 0.93664 0.67632 0.62463 0.0
C1002 C 0.93542 0.65178 0.61038 0.0
C1003 C 0.93629 0.59879 0.60784 0.0
C1004 C 0.92897 0.67955 0.59839 0.0
C1005 C 0.93573 0.73322 0.62783 0.0
C1006 C 0.90841 0.67214 0.59283 0.0
C1007 C 0.90136 0.69904 0.5819 0.0
C1008 C 0.91476 0.73392 0.57629 0.0
C1009 C 0.9355 0.74098 0.58176 0.0
C1010 C 0.94257 0.71394 0.59278 0.0
H1011 H 0.93582 0.74621 0.63959 0.0
H1012 H 0.94959 0.7501 0.62287 0.0
H1013 H 0.92116 0.74773 0.62305 0.0
H1014 H 0.89769 0.64579 0.59709 0.0
H1015 H 0.88541 0.69222 0.57782 0.0
H1016 H 0.88885 0.47084 0.06841 0.0
H1017 H 0.88846 0.55175 0.08389 0.0
H1018 H 0.85525 0.48238 0.11669 0.0
H1019 H 0.85524 0.40143 0.10123 0.0
H1020 H 0.83811 0.57457 0.11213 0.0
H1021 H 0.92534 0.58997 0.11943 0.0
H1022 H 0.91707 0.5813 0.10091 0.0
H1023 H 0.9125 0.53191 0.11206 0.0
C1024 C 0.88147 0.47265 0.07892 0.0
C1025 C 0.87216 0.42939 0.08358 0.0
C1026 C 0.88138 0.51895 0.0878 0.0
C1027 C 0.87215 0.52293 0.10155 0.0
C1028 C 0.86256 0.48011 0.10615 0.0
H1029 H 0.8899 0.76958 0.17055 0.0
H1030 H 0.88898 0.68791 0.15545 0.0
C1031 C 0.86259 0.43381 0.09728 0.0
C1032 C 0.87223 0.57186 0.11109 0.0
H1033 H 0.90499 0.66247 0.1281 0.0
C1034 C 0.85273 0.59376 0.11566 0.0
C1035 C 0.89132 0.59649 0.11584 0.0
C1036 C 0.91276 0.57356 0.11194 0.0
C1037 C 0.85179 0.64001 0.12466 0.0
C1038 C 0.87087 0.66547 0.12902 0.0
C1039 C 0.89037 0.64316 0.12464 0.0
C1040 C 0.87099 0.71506 0.13824 0.0
C1041 C 0.83039 0.66074 0.12963 0.0
C1042 C 0.86133 0.75764 0.13354 0.0
C1043 C 0.86177 0.80445 0.14217 0.0
C1044 C 0.87203 0.80975 0.15565 0.0
C1045 C 0.88181 0.767 0.16027 0.0
C1046 C 0.88133 0.72022 0.15164 0.0
H1047 H 0.81801 0.63079 0.12862 0.0
H1048 H 0.83101 0.67833 0.14102 0.0
H1049 H 0.82553 0.6902 0.12286 0.0
H1050 H 0.85365 0.75484 0.12311 0.0
H1051 H 0.85418 0.83653 0.1382 0.0
H1052 H 0.93144 0.95248 0.1538 0.0
H1053 H 0.9389 0.00522 0.13459 0.0
H1054 H 0.90783 0.13173 0.15944 0.0
H1055 H 0.89919 0.07823 0.17801 0.0
H1056 H 0.89125 0.1164 0.13456 0.0
H1057 H 0.97827 0.11608 0.1268 0.0
H1058 H 0.96778 0.05309 0.12556 0.0
H1059 H 0.966 0.09407 0.14234 0.0
C1060 C 0.92662 0.99184 0.15518 0.0
C1061 C 0.91459 0.01148 0.16719 0.0
C1062 C 0.93106 0.0221 0.14431 0.0
C1063 C 0.9241 0.07267 0.14562 0.0
C1064 C 0.91332 0.09286 0.15816 0.0
H1065 H 0.93578 0.28774 0.08204 0.0
H1066 H 0.94309 0.24161 0.10279 0.0
C1067 C 0.90834 0.06234 0.16873 0.0
C1068 C 0.92495 0.10232 0.13321 0.0
H1069 H 0.95715 0.14143 0.10732 0.0
C1070 C 0.90578 0.12241 0.12879 0.0
C1071 C 0.94388 0.11052 0.12568 0.0
C1072 C 0.96517 0.09274 0.13044 0.0
C1073 C 0.90488 0.14957 0.11696 0.0
C1074 C 0.9235 0.15502 0.10887 0.0
C1075 C 0.94286 0.13637 0.11344 0.0
C1076 C 0.92256 0.17853 0.0954 0.0
C1077 C 0.88389 0.17216 0.11323 0.0
C1078 C 0.90937 0.15718 0.08421 0.0
C1079 C 0.90482 0.18377 0.07268 0.0
C1080 C 0.91389 0.23146 0.07193 0.0
C1081 C 0.92858 0.25101 0.08247 0.0
C1082 C 0.93279 0.22473 0.09425 0.0
H1083 H 0.87317 0.17788 0.12273 0.0
H1084 H 0.88614 0.2091 0.10906 0.0
H1085 H 0.87586 0.14594 0.10479 0.0
H1086 H 0.90169 0.12106 0.08479 0.0
H1087 H 0.89372 0.16761 0.06453 0.0
H1088 H 0.5993 0.70999 0.82456 0.0
H1089 H 0.59981 0.79117 0.83991 0.0
H1090 H 0.65471 0.74318 0.86225 0.0
H1091 H 0.65378 0.66119 0.84732 0.0
H1092 H 0.62735 0.78683 0.88087 0.0
H1093 H 0.6378 0.90979 0.83778 0.0
H1094 H 0.61455 0.87104 0.835 0.0
H1095 H 0.64039 0.84192 0.83447 0.0
C1096 C 0.61158 0.71685 0.83267 0.0
C1097 C 0.62655 0.67915 0.83467 0.0
C1098 C 0.61194 0.76346 0.84139 0.0
C1099 C 0.62757 0.77382 0.85207 0.0
C1100 C 0.64254 0.73622 0.85406 0.0
H1101 H 0.65351 0.07667 0.89471 0.0
H1102 H 0.65491 0.99421 0.88006 0.0
C1103 C 0.642 0.68935 0.8455 0.0
C1104 C 0.62791 0.82308 0.86149 0.0
H1105 H 0.62828 0.95111 0.86098 0.0
C1106 C 0.6277 0.82275 0.87651 0.0
C1107 C 0.62872 0.87004 0.85585 0.0
C1108 C 0.63061 0.87331 0.8399 0.0
C1109 C 0.62797 0.86791 0.88601 0.0
C1110 C 0.6277 0.91488 0.88035 0.0
C1111 C 0.62823 0.91519 0.86534 0.0
C1112 C 0.62718 0.96421 0.88975 0.0
C1113 C 0.62904 0.86462 0.902 0.0
C1114 C 0.61112 0.97506 0.90009 0.0
C1115 C 0.61049 0.02196 0.90866 0.0
C1116 C 0.62564 0.05946 0.90683 0.0
C1117 C 0.64158 0.04869 0.89638 0.0
C1118 C 0.64238 0.00154 0.88798 0.0
H1119 H 0.63593 0.82801 0.90428 0.0
H1120 H 0.6387 0.89584 0.90765 0.0
H1121 H 0.61275 0.8672 0.90653 0.0
H1122 H 0.59883 0.94756 0.90138 0.0
H1123 H 0.59785 0.02926 0.91648 0.0
H1124 H 0.54995 0.22097 0.91338 0.0
H1125 H 0.53707 0.26888 0.89423 0.0
H1126 H 0.5971 0.34676 0.89447 0.0
H1127 H 0.60991 0.30009 0.91352 0.0
H1128 H 0.55877 0.41002 0.89484 0.0
H1129 H 0.56017 0.24576 0.8516 0.0
H1130 H 0.54638 0.24071 0.86825 0.0
H1131 H 0.57478 0.24412 0.86815 0.0
C1132 C 0.56036 0.24833 0.90932 0.0
C1133 C 0.58103 0.2564 0.91483 0.0
C1134 C 0.55297 0.27558 0.89843 0.0
C1135 C 0.56618 0.31115 0.89299 0.0
C1136 C 0.58667 0.31952 0.8986 0.0
H1137 H 0.61128 0.43865 0.82658 0.0
H1138 H 0.59793 0.39101 0.84526 0.0
C1139 C 0.59404 0.29245 0.9094 0.0
C1140 C 0.55953 0.33909 0.88109 0.0
H1141 H 0.56007 0.32705 0.8444 0.0
C1142 C 0.55829 0.39201 0.88379 0.0
C1143 C 0.55889 0.31511 0.86676 0.0
C1144 C 0.56014 0.2583 0.86338 0.0
C1145 C 0.55857 0.42195 0.87247 0.0
C1146 C 0.55995 0.39801 0.85816 0.0
C1147 C 0.55903 0.34504 0.85543 0.0
C1148 C 0.56693 0.42623 0.84639 0.0
C1149 C 0.55948 0.47879 0.87589 0.0
C1150 C 0.55385 0.46185 0.84086 0.0
C1151 C 0.56154 0.48965 0.83019 0.0
C1152 C 0.5824 0.48209 0.82498 0.0
C1153 C 0.59526 0.4459 0.83047 0.0
C1154 C 0.58759 0.41828 0.84106 0.0
H1155 H 0.55921 0.49126 0.88767 0.0
H1156 H 0.57414 0.49352 0.87129 0.0
H1157 H 0.54572 0.49596 0.87089 0.0
H1158 H 0.5378 0.46821 0.84482 0.0
H1159 H 0.55123 0.51709 0.82607 0.0
H1160 H 0.5999 0.21227 0.32462 0.0
H1161 H 0.60029 0.29315 0.34012 0.0
H1162 H 0.65531 0.24514 0.36232 0.0
H1163 H 0.65452 0.16347 0.34724 0.0
H1164 H 0.62782 0.28829 0.38102 0.0
H1165 H 0.63824 0.41208 0.33811 0.0
H1166 H 0.61503 0.37319 0.33532 0.0
H1167 H 0.6409 0.34424 0.33472 0.0
C1168 C 0.61217 0.21905 0.33274 0.0
C1169 C 0.62723 0.18144 0.33465 0.0
C1170 C 0.61246 0.2655 0.34154 0.0
C1171 C 0.62809 0.27577 0.35222 0.0
C1172 C 0.64313 0.23825 0.35413 0.0
H1173 H 0.6553 0.5771 0.3953 0.0
H1174 H 0.65612 0.49493 0.38048 0.0
C1175 C 0.64268 0.19155 0.34548 0.0
C1176 C 0.62842 0.3249 0.36172 0.0
H1177 H 0.62908 0.45303 0.36139 0.0
C1178 C 0.62822 0.32431 0.37672 0.0
C1179 C 0.62928 0.37199 0.35614 0.0
C1180 C 0.63111 0.37552 0.3402 0.0
C1181 C 0.62861 0.36933 0.38628 0.0
C1182 C 0.62849 0.41644 0.3807 0.0
C1183 C 0.62894 0.41701 0.3657 0.0
C1184 C 0.62825 0.46564 0.39017 0.0
C1185 C 0.6297 0.36574 0.40225 0.0
C1186 C 0.61229 0.47678 0.40056 0.0
C1187 C 0.61198 0.52353 0.40923 0.0
C1188 C 0.62736 0.56056 0.40745 0.0
C1189 C 0.64319 0.54949 0.39694 0.0
C1190 C 0.64367 0.5025 0.38844 0.0
H1191 H 0.63639 0.32886 0.40447 0.0
H1192 H 0.63955 0.39658 0.40792 0.0
H1193 H 0.61344 0.36879 0.40682 0.0
H1194 H 0.59984 0.44966 0.40184 0.0
H1195 H 0.59941 0.53106 0.4171 0.0
H1196 H 0.6128 0.8059 0.41571 0.0
H1197 H 0.60059 0.85355 0.39667 0.0
H1198 H 0.54215 0.76858 0.3934 0.0
H1199 H 0.55433 0.72022 0.41263 0.0
H1200 H 0.56398 0.77529 0.36663 0.0
H1201 H 0.55368 0.96329 0.39814 0.0
H1202 H 0.57837 0.9344 0.40215 0.0
H1203 H 0.55374 0.90518 0.40633 0.0
C1204 C 0.59733 0.79726 0.41099 0.0
C1205 C 0.58454 0.75921 0.41562 0.0
C1206 C 0.59028 0.82493 0.40022 0.0
C1207 C 0.57031 0.8152 0.39388 0.0
C1208 C 0.55749 0.77699 0.39835 0.0
H1209 H 0.55424 0.02036 0.3275 0.0
H1210 H 0.54189 0.97007 0.34624 0.0
C1211 C 0.56449 0.74941 0.40926 0.0
C1212 C 0.56397 0.84296 0.38185 0.0
H1213 H 0.56288 0.96311 0.37283 0.0
C1214 C 0.56305 0.81629 0.36798 0.0
C1215 C 0.56234 0.8963 0.38367 0.0
C1216 C 0.56185 0.92643 0.39841 0.0
C1217 C 0.56287 0.84205 0.35578 0.0
C1218 C 0.56387 0.8955 0.35761 0.0
C1219 C 0.56241 0.92206 0.37147 0.0
C1220 C 0.57016 0.92376 0.34567 0.0
C1221 C 0.56291 0.81187 0.34104 0.0
C1222 C 0.59022 0.91479 0.33941 0.0
C1223 C 0.59737 0.94356 0.32892 0.0
C1224 C 0.58459 0.982 0.3245 0.0
C1225 C 0.56441 0.99091 0.33071 0.0
C1226 C 0.55731 0.9622 0.34135 0.0
H1227 H 0.55489 0.77478 0.34122 0.0
H1228 H 0.55493 0.83281 0.33299 0.0
H1229 H 0.57955 0.80432 0.33754 0.0
H1230 H 0.60058 0.8861 0.34287 0.0
H1231 H 0.61293 0.93556 0.32429 0.0
H1232 H 0.34557 0.32787 0.14283 0.0
H1233 H 0.34396 0.24558 0.12809 0.0
H1234 H 0.39956 0.19728 0.14962 0.0
H1235 H 0.40077 0.27878 0.16479 0.0
H1236 H 0.37048 0.20126 0.1091 0.0
H1237 H 0.36166 0.07914 0.15253 0.0
H1238 H 0.35926 0.14706 0.15581 0.0
H1239 H 0.38504 0.1176 0.15486 0.0
C1240 C 0.35737 0.29958 0.14452 0.0
C1241 C 0.37322 0.30981 0.15506 0.0
C1242 C 0.35643 0.25252 0.13607 0.0
C1243 C 0.37141 0.21475 0.13789 0.0
C1244 C 0.38743 0.22512 0.14829 0.0
H1245 H 0.39899 0.95918 0.07316 0.0
H1246 H 0.39848 0.04063 0.08837 0.0
C1247 C 0.38819 0.27193 0.1569 0.0
C1248 C 0.37067 0.16535 0.12853 0.0
H1249 H 0.37038 0.03737 0.12921 0.0
C1250 C 0.37031 0.16543 0.11351 0.0
C1251 C 0.37009 0.11849 0.13425 0.0
C1252 C 0.3688 0.11548 0.15024 0.0
C1253 C 0.36971 0.12016 0.10407 0.0
C1254 C 0.37023 0.07329 0.10978 0.0
C1255 C 0.37025 0.0732 0.1248 0.0
C1256 C 0.37054 0.02387 0.10042 0.0
C1257 C 0.36802 0.12322 0.0881 0.0
C1258 C 0.35546 0.98649 0.1024 0.0
C1259 C 0.35601 0.93943 0.09393 0.0
C1260 C 0.37156 0.92883 0.0832 0.0
C1261 C 0.38663 0.96633 0.0812 0.0
C1262 C 0.38627 0.01311 0.08984 0.0
H1263 H 0.36096 0.15976 0.0859 0.0
H1264 H 0.38413 0.12067 0.08328 0.0
H1265 H 0.35822 0.0919 0.08264 0.0
H1266 H 0.34321 0.99374 0.11052 0.0
H1267 H 0.34415 0.91144 0.09574 0.0
H1268 H 0.44767 0.46745 0.16085 0.0
H1269 H 0.46029 0.5167 0.14193 0.0
H1270 H 0.40248 0.60405 0.14563 0.0
H1271 H 0.38985 0.55558 0.16434 0.0
H1272 H 0.43879 0.52498 0.11539 0.0
H1273 H 0.44957 0.71245 0.14697 0.0
H1274 H 0.44928 0.6543 0.15515 0.0
H1275 H 0.42477 0.68437 0.15109 0.0
C1276 C 0.43775 0.4974 0.15765 0.0
C1277 C 0.41773 0.50757 0.16401 0.0
C1278 C 0.44501 0.5255 0.14692 0.0
C1279 C 0.43249 0.56461 0.14266 0.0
C1280 C 0.41259 0.57479 0.14904 0.0
H1281 H 0.38741 0.68381 0.07405 0.0
H1282 H 0.40079 0.6351 0.09251 0.0
C1283 C 0.40528 0.54661 0.15961 0.0
C1284 C 0.4389 0.59249 0.13067 0.0
H1285 H 0.4393 0.71281 0.12176 0.0
C1286 C 0.43964 0.56599 0.11677 0.0
C1287 C 0.44044 0.64585 0.13252 0.0
C1288 C 0.44121 0.67585 0.14727 0.0
C1289 C 0.43938 0.5919 0.1046 0.0
C1290 C 0.43812 0.64531 0.1065 0.0
C1291 C 0.43991 0.67177 0.12036 0.0
C1292 C 0.43112 0.67345 0.0947 0.0
C1293 C 0.43904 0.5619 0.08984 0.0
C1294 C 0.44357 0.71207 0.0901 0.0
C1295 C 0.43589 0.74031 0.07953 0.0
C1296 C 0.41552 0.73076 0.07366 0.0
C1297 C 0.40311 0.69227 0.07841 0.0
C1298 C 0.41084 0.66396 0.08883 0.0
H1299 H 0.44727 0.525 0.08989 0.0
H1300 H 0.42234 0.55397 0.08655 0.0
H1301 H 0.44666 0.58316 0.08172 0.0
H1302 H 0.45915 0.72034 0.0947 0.0
H1303 H 0.44578 0.76982 0.07607 0.0
H1304 H 0.40165 0.78375 0.66707 0.0
H1305 H 0.40213 0.7028 0.65157 0.0
H1306 H 0.346 0.74645 0.62973 0.0
H1307 H 0.34591 0.82819 0.64479 0.0
H1308 H 0.37548 0.62668 0.64779 0.0
H1309 H 0.38337 0.70511 0.59592 0.0
H1310 H 0.38619 0.74375 0.61305 0.0
H1311 H 0.36023 0.72873 0.60566 0.0
C1312 C 0.38941 0.77615 0.65895 0.0
C1313 C 0.37385 0.81266 0.65707 0.0
C1314 C 0.38972 0.72984 0.65008 0.0
C1315 C 0.37439 0.71887 0.63923 0.0
C1316 C 0.35841 0.75459 0.63768 0.0
H1317 H 0.34642 0.41526 0.59778 0.0
H1318 H 0.34664 0.49671 0.61296 0.0
C1319 C 0.35829 0.80121 0.64639 0.0
C1320 C 0.37493 0.66975 0.62973 0.0
H1321 H 0.37458 0.61747 0.59449 0.0
C1322 C 0.37541 0.6247 0.63613 0.0
C1323 C 0.37525 0.66703 0.61451 0.0
C1324 C 0.37647 0.71375 0.60688 0.0
C1325 C 0.37583 0.57714 0.62777 0.0
C1326 C 0.375 0.57439 0.61255 0.0
C1327 C 0.37491 0.61945 0.60615 0.0
C1328 C 0.37448 0.52527 0.60305 0.0
C1329 C 0.37766 0.53046 0.63537 0.0
C1330 C 0.38945 0.5149 0.59195 0.0
C1331 C 0.38907 0.46873 0.58301 0.0
C1332 C 0.37378 0.43179 0.58506 0.0
C1333 C 0.35859 0.44259 0.59603 0.0
C1334 C 0.3588 0.48905 0.60481 0.0
H1335 H 0.3849 0.53934 0.64622 0.0
H1336 H 0.36158 0.51492 0.63683 0.0
H1337 H 0.38738 0.5008 0.62905 0.0
H1338 H 0.40163 0.54233 0.5903 0.0
H1339 H 0.40101 0.46164 0.57468 0.0
H1340 H 0.44596 0.2714 0.57742 0.0
H1341 H 0.45876 0.22191 0.59623 0.0
H1342 H 0.40036 0.13676 0.59332 0.0
H1343 H 0.38755 0.18551 0.5747 0.0
H1344 H 0.43783 0.2152 0.62301 0.0
H1345 H 0.44675 0.02662 0.59169 0.0
H1346 H 0.44653 0.08448 0.58337 0.0
H1347 H 0.42199 0.05553 0.58788 0.0
C1348 C 0.43596 0.24186 0.58075 0.0
C1349 C 0.41572 0.23242 0.57466 0.0
C1350 C 0.44331 0.21362 0.59143 0.0
C1351 C 0.43067 0.17509 0.5959 0.0
C1352 C 0.41056 0.16556 0.58975 0.0
H1353 H 0.38786 0.05801 0.66574 0.0
H1354 H 0.40036 0.10582 0.64681 0.0
C1355 C 0.40315 0.19389 0.57924 0.0
C1356 C 0.4372 0.14732 0.60788 0.0
H1357 H 0.43753 0.02737 0.61709 0.0
C1358 C 0.43849 0.17417 0.62171 0.0
C1359 C 0.43846 0.09391 0.60613 0.0
C1360 C 0.43859 0.0635 0.59143 0.0
C1361 C 0.43859 0.14865 0.63396 0.0
C1362 C 0.43715 0.09527 0.63221 0.0
C1363 C 0.43831 0.06839 0.61838 0.0
C1364 C 0.43069 0.06764 0.64423 0.0
C1365 C 0.43886 0.17905 0.64866 0.0
C1366 C 0.44345 0.02947 0.64879 0.0
C1367 C 0.43628 0.00179 0.65963 0.0
C1368 C 0.41613 0.01145 0.66584 0.0
C1369 C 0.40341 0.04949 0.66113 0.0
C1370 C 0.41062 0.07727 0.65044 0.0
H1371 H 0.447 0.21594 0.64838 0.0
H1372 H 0.4223 0.18697 0.65228 0.0
H1373 H 0.44689 0.15804 0.65668 0.0
H1374 H 0.45886 0.02112 0.64394 0.0
H1375 H 0.4464 0.97261 0.66305 0.0
loop_
_geom_bond_atom_site_label_1
_geom_bond_atom_site_label_2
_geom_bond_distance
_geom_bond_site_symmetry_2
_ccdc_geom_bond_type
Mg0 O1 2.028 . S
Mg0 O7 1.986 . S
Mg0 O9 2.114 . S
Mg0 O10 2.251 . S
Mg0 O13 2.010 . S
O1 Mg0 2.028 . S
O1 C4 1.250 . S
O2 Mg3 2.028 . S
O2 C4 1.248 . S
Mg3 O2 2.028 . S
Mg3 O8 2.032 . S
Mg3 O10 2.079 . S
C4 O1 1.250 . S
C4 O2 1.248 . S
C5 O6 1.264 . S
C5 O13 1.249 . S
O6 C5 1.264 . S
O7 Mg0 1.986 . S
O7 C11 1.246 . S
O8 Mg3 2.032 . S
O8 C11 1.259 . S
O9 Mg0 2.114 . S
O9 C12 1.252 . S
O10 Mg0 2.251 . S
O10 Mg3 2.079 . S
O10 C12 1.273 . S
C11 O7 1.246 . S
C11 O8 1.259 . S
C12 O9 1.252 . S
C12 O10 1.273 . S
O13 Mg0 2.010 . S
O13 C5 1.249 . S
Mg14 O15 2.028 . S
Mg14 O21 1.986 . S
Mg14 O23 2.114 . S
Mg14 O24 2.251 . S
Mg14 O27 2.010 . S
O15 Mg14 2.028 . S
O15 C18 1.250 . S
O16 Mg17 2.028 . S
O16 C18 1.248 . S
Mg17 O16 2.028 . S
Mg17 O22 2.032 . S
Mg17 O24 2.079 . S
C18 O15 1.250 . S
C18 O16 1.248 . S
C19 O20 1.264 . S
C19 O27 1.249 . S
O20 C19 1.264 . S
O21 Mg14 1.986 . S
O21 C25 1.246 . S
O22 Mg17 2.032 . S
O22 C25 1.259 . S
O23 Mg14 2.114 . S
O23 C26 1.252 . S
O24 Mg14 2.251 . S
O24 Mg17 2.079 . S
O24 C26 1.273 . S
C25 O21 1.246 . S
C25 O22 1.259 . S
C26 O23 1.252 . S
C26 O24 1.273 . S
O27 Mg14 2.010 . S
O27 C19 1.249 . S
Mg28 O29 2.028 . S
Mg28 O35 1.986 . S
Mg28 O37 2.114 . S
Mg28 O38 2.251 . S
Mg28 O41 2.010 . S
O29 Mg28 2.028 . S
O29 C32 1.250 . S
O30 Mg31 2.028 . S
O30 C32 1.248 . S
Mg31 O30 2.028 . S
Mg31 O36 2.032 . S
Mg31 O38 2.079 . S
C32 O29 1.250 . S
C32 O30 1.248 . S
C33 O34 1.264 . S
C33 O41 1.249 . S
O34 C33 1.264 . S
O35 Mg28 1.986 . S
O35 C39 1.246 . S
O36 Mg31 2.032 . S
O36 C39 1.259 . S
O37 Mg28 2.114 . S
O37 C40 1.252 . S
O38 Mg28 2.251 . S
O38 Mg31 2.079 . S
O38 C40 1.273 . S
C39 O35 1.246 . S
C39 O36 1.259 . S
C40 O37 1.252 . S
C40 O38 1.273 . S
O41 Mg28 2.010 . S
O41 C33 1.249 . S
Mg42 O43 2.028 . S
Mg42 O49 1.986 . S
Mg42 O51 2.114 . S
Mg42 O52 2.251 . S
Mg42 O55 2.010 . S
O43 Mg42 2.028 . S
O43 C46 1.250 . S
O44 Mg45 2.028 . S
O44 C46 1.248 . S
Mg45 O44 2.028 . S
Mg45 O50 2.032 . S
Mg45 O52 2.079 . S
C46 O43 1.250 . S
C46 O44 1.248 . S
C47 O48 1.264 . S
C47 O55 1.249 . S
O48 C47 1.264 . S
O49 Mg42 1.986 . S
O49 C53 1.246 . S
O50 Mg45 2.032 . S
O50 C53 1.259 . S
O51 Mg42 2.114 . S
O51 C54 1.252 . S
O52 Mg42 2.251 . S
O52 Mg45 2.079 . S
O52 C54 1.273 . S
C53 O49 1.246 . S
C53 O50 1.259 . S
C54 O51 1.252 . S
C54 O52 1.273 . S
O55 Mg42 2.010 . S
O55 C47 1.249 . S
Mg56 O57 2.028 . S
Mg56 O63 1.986 . S
Mg56 O65 2.114 . S
Mg56 O66 2.251 . S
Mg56 O69 2.010 . S
O57 Mg56 2.028 . S
O57 C60 1.250 . S
O58 Mg59 2.028 . S
O58 C60 1.248 . S
Mg59 O58 2.028 . S
Mg59 O64 2.032 . S
Mg59 O66 2.079 . S
C60 O57 1.250 . S
C60 O58 1.248 . S
C61 O62 1.264 . S
C61 O69 1.249 . S
O62 C61 1.264 . S
O63 Mg56 1.986 . S
O63 C67 1.246 . S
O64 Mg59 2.032 . S
O64 C67 1.259 . S
O65 Mg56 2.114 . S
O65 C68 1.252 . S
O66 Mg56 2.251 . S
O66 Mg59 2.079 . S
O66 C68 1.273 . S
C67 O63 1.246 . S
C67 O64 1.259 . S
C68 O65 1.252 . S
C68 O66 1.273 . S
O69 Mg56 2.010 . S
O69 C61 1.249 . S
Mg70 O71 2.028 . S
Mg70 O77 1.986 . S
Mg70 O79 2.114 . S
Mg70 O80 2.251 . S
Mg70 O83 2.010 . S
O71 Mg70 2.028 . S
O71 C74 1.250 . S
O72 Mg73 2.028 . S
O72 C74 1.248 . S
Mg73 O72 2.028 . S
Mg73 O78 2.032 . S
Mg73 O80 2.079 . S
C74 O71 1.250 . S
C74 O72 1.248 . S
C75 O76 1.264 . S
C75 O83 1.249 . S
O76 C75 1.264 . S
O77 Mg70 1.986 . S
O77 C81 1.246 . S
O78 Mg73 2.032 . S
O78 C81 1.259 . S
O79 Mg70 2.114 . S
O79 C82 1.252 . S
O80 Mg70 2.251 . S
O80 Mg73 2.079 . S
O80 C82 1.273 . S
C81 O77 1.246 . S
C81 O78 1.259 . S
C82 O79 1.252 . S
C82 O80 1.273 . S
O83 Mg70 2.010 . S
O83 C75 1.249 . S
Mg84 O85 2.028 . S
Mg84 O91 1.986 . S
Mg84 O93 2.114 . S
Mg84 O94 2.251 . S
Mg84 O97 2.010 . S
O85 Mg84 2.028 . S
O85 C88 1.250 . S
O86 Mg87 2.028 . S
O86 C88 1.248 . S
Mg87 O86 2.028 . S
Mg87 O92 2.032 . S
Mg87 O94 2.079 . S
C88 O85 1.250 . S
C88 O86 1.248 . S
C89 O90 1.264 . S
C89 O97 1.249 . S
O90 C89 1.264 . S
O91 Mg84 1.986 . S
O91 C95 1.246 . S
O92 Mg87 2.032 . S
O92 C95 1.259 . S
O93 Mg84 2.114 . S
O93 C96 1.252 . S
O94 Mg84 2.251 . S
O94 Mg87 2.079 . S
O94 C96 1.273 . S
C95 O91 1.246 . S
C95 O92 1.259 . S
C96 O93 1.252 . S
C96 O94 1.273 . S
O97 Mg84 2.010 . S
O97 C89 1.249 . S
Mg98 O99 2.028 . S
Mg98 O105 1.986 . S
Mg98 O107 2.114 . S
Mg98 O108 2.251 . S
Mg98 O111 2.010 . S
O99 Mg98 2.028 . S
O99 C102 1.250 . S
O100 Mg101 2.028 . S
O100 C102 1.248 . S
Mg101 O100 2.028 . S
Mg101 O106 2.032 . S
Mg101 O108 2.079 . S
C102 O99 1.250 . S
C102 O100 1.248 . S
C103 O104 1.264 . S
C103 O111 1.249 . S
O104 C103 1.264 . S
O105 Mg98 1.986 . S
O105 C109 1.246 . S
O106 Mg101 2.032 . S
O106 C109 1.259 . S
O107 Mg98 2.114 . S
O107 C110 1.252 . S
O108 Mg98 2.251 . S
O108 Mg101 2.079 . S
O108 C110 1.273 . S
C109 O105 1.246 . S
C109 O106 1.259 . S
C110 O107 1.252 . S
C110 O108 1.273 . S
O111 Mg98 2.010 . S
O111 C103 1.249 . S
Mg112 O113 2.028 . S
Mg112 O119 1.986 . S
Mg112 O121 2.114 . S
Mg112 O122 2.251 . S
Mg112 O125 2.010 . S
O113 Mg112 2.028 . S
O113 C116 1.250 . S
O114 Mg115 2.028 . S
O114 C116 1.248 . S
Mg115 O114 2.028 . S
Mg115 O120 2.032 . S
Mg115 O122 2.079 . S
C116 O113 1.250 . S
C116 O114 1.248 . S
C117 O118 1.264 . S
C117 O125 1.249 . S
O118 C117 1.264 . S
O119 Mg112 1.986 . S
O119 C123 1.246 . S
O120 Mg115 2.032 . S
O120 C123 1.259 . S
O121 Mg112 2.114 . S
O121 C124 1.252 . S
O122 Mg112 2.251 . S
O122 Mg115 2.079 . S
O122 C124 1.273 . S
C123 O119 1.246 . S
C123 O120 1.259 . S
C124 O121 1.252 . S
C124 O122 1.273 . S
O125 Mg112 2.010 . S
O125 C117 1.249 . S
Mg126 O127 2.028 . S
Mg126 O133 1.986 . S
Mg126 O135 2.114 . S
Mg126 O136 2.251 . S
Mg126 O139 2.010 . S
O127 Mg126 2.028 . S
O127 C130 1.250 . S
O128 Mg129 2.028 . S
O128 C130 1.248 . S
Mg129 O128 2.028 . S
Mg129 O134 2.032 . S
Mg129 O136 2.079 . S
C130 O127 1.250 . S
C130 O128 1.248 . S
C131 O132 1.264 . S
C131 O139 1.249 . S
O132 C131 1.264 . S
O133 Mg126 1.986 . S
O133 C137 1.246 . S
O134 Mg129 2.032 . S
O134 C137 1.259 . S
O135 Mg126 2.114 . S
O135 C138 1.252 . S
O136 Mg126 2.251 . S
O136 Mg129 2.079 . S
O136 C138 1.273 . S
C137 O133 1.246 . S
C137 O134 1.259 . S
C138 O135 1.252 . S
C138 O136 1.273 . S
O139 Mg126 2.010 . S
O139 C131 1.249 . S
Mg140 O141 2.028 . S
Mg140 O147 1.986 . S
Mg140 O149 2.114 . S
Mg140 O150 2.251 . S
Mg140 O153 2.010 . S
O141 Mg140 2.028 . S
O141 C144 1.250 . S
O142 Mg143 2.028 . S
O142 C144 1.248 . S
Mg143 O142 2.028 . S
Mg143 O148 2.032 . S
Mg143 O150 2.079 . S
C144 O141 1.250 . S
C144 O142 1.248 . S
C145 O146 1.264 . S
C145 O153 1.249 . S
O146 C145 1.264 . S
O147 Mg140 1.986 . S
O147 C151 1.246 . S
O148 Mg143 2.032 . S
O148 C151 1.259 . S
O149 Mg140 2.114 . S
O149 C152 1.252 . S
O150 Mg140 2.251 . S
O150 Mg143 2.079 . S
O150 C152 1.273 . S
C151 O147 1.246 . S
C151 O148 1.259 . S
C152 O149 1.252 . S
C152 O150 1.273 . S
O153 Mg140 2.010 . S
O153 C145 1.249 . S
Mg154 O155 2.028 . S
Mg154 O161 1.986 . S
Mg154 O163 2.114 . S
Mg154 O164 2.251 . S
Mg154 O167 2.010 . S
O155 Mg154 2.028 . S
O155 C158 1.250 . S
O156 Mg157 2.028 . S
O156 C158 1.248 . S
Mg157 O156 2.028 . S
Mg157 O162 2.032 . S
Mg157 O164 2.079 . S
C158 O155 1.250 . S
C158 O156 1.248 . S
C159 O160 1.264 . S
C159 O167 1.249 . S
O160 C159 1.264 . S
O161 Mg154 1.986 . S
O161 C165 1.246 . S
O162 Mg157 2.032 . S
O162 C165 1.259 . S
O163 Mg154 2.114 . S
O163 C166 1.252 . S
O164 Mg154 2.251 . S
O164 Mg157 2.079 . S
O164 C166 1.273 . S
C165 O161 1.246 . S
C165 O162 1.259 . S
C166 O163 1.252 . S
C166 O164 1.273 . S
O167 Mg154 2.010 . S
O167 C159 1.249 . S
Mg168 O169 2.028 . S
Mg168 O175 1.986 . S
Mg168 O177 2.114 . S
Mg168 O178 2.251 . S
Mg168 O181 2.010 . S
O169 Mg168 2.028 . S
O169 C172 1.250 . S
O170 Mg171 2.028 . S
O170 C172 1.248 . S
Mg171 O170 2.028 . S
Mg171 O176 2.032 . S
Mg171 O178 2.079 . S
C172 O169 1.250 . S
C172 O170 1.248 . S
C173 O174 1.264 . S
C173 O181 1.249 . S
O174 C173 1.264 . S
O175 Mg168 1.986 . S
O175 C179 1.246 . S
O176 Mg171 2.032 . S
O176 C179 1.259 . S
O177 Mg168 2.114 . S
O177 C180 1.252 . S
O178 Mg168 2.251 . S
O178 Mg171 2.079 . S
O178 C180 1.273 . S
C179 O175 1.246 . S
C179 O176 1.259 . S
C180 O177 1.252 . S
C180 O178 1.273 . S
O181 Mg168 2.010 . S
O181 C173 1.249 . S
Mg182 O183 2.028 . S
Mg182 O189 1.986 . S
Mg182 O191 2.114 . S
Mg182 O192 2.251 . S
Mg182 O195 2.010 . S
O183 Mg182 2.028 . S
O183 C186 1.250 . S
O184 Mg185 2.028 . S
O184 C186 1.248 . S
Mg185 O184 2.028 . S
Mg185 O190 2.032 . S
Mg185 O192 2.079 . S
C186 O183 1.250 . S
C186 O184 1.248 . S
C187 O188 1.264 . S
C187 O195 1.249 . S
O188 C187 1.264 . S
O189 Mg182 1.986 . S
O189 C193 1.246 . S
O190 Mg185 2.032 . S
O190 C193 1.259 . S
O191 Mg182 2.114 . S
O191 C194 1.252 . S
O192 Mg182 2.251 . S
O192 Mg185 2.079 . S
O192 C194 1.273 . S
C193 O189 1.246 . S
C193 O190 1.259 . S
C194 O191 1.252 . S
C194 O192 1.273 . S
O195 Mg182 2.010 . S
O195 C187 1.249 . S
Mg196 O197 2.028 . S
Mg196 O203 1.986 . S
Mg196 O205 2.114 . S
Mg196 O206 2.251 . S
Mg196 O209 2.010 . S
O197 Mg196 2.028 . S
O197 C200 1.250 . S
O198 Mg199 2.028 . S
O198 C200 1.248 . S
Mg199 O198 2.028 . S
Mg199 O204 2.032 . S
Mg199 O206 2.079 . S
C200 O197 1.250 . S
C200 O198 1.248 . S
C201 O202 1.264 . S
C201 O209 1.249 . S
O202 C201 1.264 . S
O203 Mg196 1.986 . S
O203 C207 1.246 . S
O204 Mg199 2.032 . S
O204 C207 1.259 . S
O205 Mg196 2.114 . S
O205 C208 1.252 . S
O206 Mg196 2.251 . S
O206 Mg199 2.079 . S
O206 C208 1.273 . S
C207 O203 1.246 . S
C207 O204 1.259 . S
C208 O205 1.252 . S
C208 O206 1.273 . S
O209 Mg196 2.010 . S
O209 C201 1.249 . S
Mg210 O211 2.028 . S
Mg210 O217 1.986 . S
Mg210 O219 2.114 . S
Mg210 O220 2.251 . S
Mg210 O223 2.010 . S
O211 Mg210 2.028 . S
O211 C214 1.250 . S
O212 Mg213 2.028 . S
O212 C214 1.248 . S
Mg213 O212 2.028 . S
Mg213 O218 2.032 . S
Mg213 O220 2.079 . S
C214 O211 1.250 . S
C214 O212 1.248 . S
C215 O216 1.264 . S
C215 O223 1.249 . S
O216 C215 1.264 . S
O217 Mg210 1.986 . S
O217 C221 1.246 . S
O218 Mg213 2.032 . S
O218 C221 1.259 . S
O219 Mg210 2.114 . S
O219 C222 1.252 . S
O220 Mg210 2.251 . S
O220 Mg213 2.079 . S
O220 C222 1.273 . S
C221 O217 1.246 . S
C221 O218 1.259 . S
C222 O219 1.252 . S
C222 O220 1.273 . S
O223 Mg210 2.010 . S
O223 C215 1.249 . S
H224 C232 0.929 . S
H225 C234 0.930 . S
H226 C236 0.930 . S
H227 C239 0.929 . S
H228 C242 0.930 . S
H229 C244 0.960 . S
H230 C244 0.960 . S
H231 C244 0.960 . S
C232 H224 0.929 . S
C232 C233 1.377 . S
C232 C234 1.384 . S
C233 C232 1.377 . S
C233 C239 1.390 . S
C234 H225 0.930 . S
C234 C232 1.384 . S
C234 C235 1.372 . S
C235 C234 1.372 . S
C235 C236 1.400 . S
C235 C240 1.490 . S
C236 H226 0.930 . S
C236 C235 1.400 . S
C236 C239 1.386 . S
H237 C253 0.930 . S
H238 C254 0.931 . S
C239 H227 0.929 . S
C239 C233 1.390 . S
C239 C236 1.386 . S
C240 C235 1.490 . S
C240 C242 1.395 . S
C240 C243 1.403 . S
H241 C247 0.930 . S
C242 H228 0.930 . S
C242 C240 1.395 . S
C242 C245 1.403 . S
C243 C240 1.403 . S
C243 C244 1.524 . S
C243 C247 1.400 . S
C244 H229 0.960 . S
C244 H230 0.960 . S
C244 H231 0.960 . S
C244 C243 1.524 . S
C245 C242 1.403 . S
C245 C246 1.392 . S
C245 C249 1.495 . S
C246 C245 1.392 . S
C246 C247 1.385 . S
C246 C248 1.478 . S
C247 H241 0.930 . S
C247 C243 1.400 . S
C247 C246 1.385 . S
C248 C246 1.478 . S
C248 C250 1.381 . S
C248 C254 1.383 . S
C249 C245 1.495 . S
C249 H255 0.959 . S
C249 H256 0.961 . S
C249 H257 0.960 . S
C250 C248 1.381 . S
C250 C251 1.394 . S
C250 H258 0.930 . S
C251 C250 1.394 . S
C251 C252 1.383 . S
C251 H259 0.929 . S
C252 C251 1.383 . S
C252 C253 1.377 . S
C253 H237 0.930 . S
C253 C252 1.377 . S
C253 C254 1.379 . S
C254 H238 0.931 . S
C254 C248 1.383 . S
C254 C253 1.379 . S
H255 C249 0.959 . S
H256 C249 0.961 . S
H257 C249 0.960 . S
H258 C250 0.930 . S
H259 C251 0.929 . S
H260 C268 0.929 . S
H261 C270 0.930 . S
H262 C272 0.930 . S
H263 C275 0.929 . S
H264 C278 0.930 . S
H265 C280 0.960 . S
H266 C280 0.960 . S
H267 C280 0.960 . S
C268 H260 0.929 . S
C268 C269 1.377 . S
C268 C270 1.384 . S
C269 C268 1.377 . S
C269 C275 1.390 . S
C270 H261 0.930 . S
C270 C268 1.384 . S
C270 C271 1.372 . S
C271 C270 1.372 . S
C271 C272 1.400 . S
C271 C276 1.490 . S
C272 H262 0.930 . S
C272 C271 1.400 . S
C272 C275 1.386 . S
H273 C289 0.930 . S
H274 C290 0.931 . S
C275 H263 0.929 . S
C275 C269 1.390 . S
C275 C272 1.386 . S
C276 C271 1.490 . S
C276 C278 1.395 1_655 S
C276 C279 1.403 1_565 S
H277 C283 0.927 1_655 S
C278 H264 0.930 . S
C278 C276 1.395 1_455 S
C278 C281 1.403 . S
C279 C276 1.403 1_545 S
C279 C280 1.524 . S
C279 C283 1.391 1_655 S
C280 H265 0.960 . S
C280 H266 0.960 . S
C280 H267 0.960 . S
C280 C279 1.524 . S
C281 C278 1.403 . S
C281 C282 1.392 1_565 S
C281 C285 1.495 . S
C282 C281 1.392 1_545 S
C282 C283 1.395 . S
C282 C284 1.478 . S
C283 H277 0.927 1_455 S
C283 C279 1.391 1_455 S
C283 C282 1.395 . S
C284 C282 1.478 . S
C284 C286 1.381 . S
C284 C290 1.383 . S
C285 C281 1.495 . S
C285 H291 0.959 . S
C285 H292 0.961 . S
C285 H293 0.960 . S
C286 C284 1.381 . S
C286 C287 1.394 . S
C286 H294 0.930 . S
C287 C286 1.394 . S
C287 C288 1.383 . S
C287 H295 0.929 . S
C288 C287 1.383 . S
C288 C289 1.377 . S
C289 H273 0.930 . S
C289 C288 1.377 . S
C289 C290 1.379 . S
C290 H274 0.931 . S
C290 C284 1.383 . S
C290 C289 1.379 . S
H291 C285 0.959 . S
H292 C285 0.961 . S
H293 C285 0.960 . S
H294 C286 0.930 . S
H295 C287 0.929 . S
H296 C304 0.929 . S
H297 C306 0.930 . S
H298 C308 0.930 1_545 S
H299 C311 0.929 . S
H300 C314 0.930 . S
H301 C316 0.960 . S
H302 C316 0.960 1_565 S
H303 C316 0.960 . S
C304 H296 0.929 . S
C304 C305 1.377 . S
C304 C306 1.384 . S
C305 C304 1.377 . S
C305 C311 1.390 . S
C306 H297 0.930 . S
C306 C304 1.384 . S
C306 C307 1.372 . S
C307 C306 1.372 . S
C307 C308 1.400 . S
C307 C312 1.490 . S
C308 H298 0.930 1_565 S
C308 C307 1.400 . S
C308 C311 1.386 . S
H309 C325 0.930 . S
H310 C326 0.931 . S
C311 H299 0.929 . S
C311 C305 1.390 . S
C311 C308 1.386 . S
C312 C307 1.490 . S
C312 C314 1.395 . S
C312 C315 1.400 1_565 S
H313 C319 0.930 . S
C314 H300 0.930 . S
C314 C312 1.395 . S
C314 C317 1.403 . S
C315 C312 1.400 1_545 S
C315 C316 1.525 . S
C315 C319 1.402 . S
C316 H301 0.960 . S
C316 H302 0.960 1_545 S
C316 H303 0.960 . S
C316 C315 1.525 . S
C317 C314 1.403 . S
C317 C318 1.392 1_565 S
C317 C321 1.495 . S
C318 C317 1.392 1_545 S
C318 C319 1.385 . S
C318 C320 1.478 . S
C319 H313 0.930 . S
C319 C315 1.402 . S
C319 C318 1.385 . S
C320 C318 1.478 . S
C320 C322 1.381 . S
C320 C326 1.383 . S
C321 C317 1.495 . S
C321 H327 0.959 . S
C321 H328 0.961 1_565 S
C321 H329 0.960 . S
C322 C320 1.381 . S
C322 C323 1.394 . S
C322 H330 0.930 1_545 S
C323 C322 1.394 . S
C323 C324 1.383 . S
C323 H331 0.929 . S
C324 C323 1.383 . S
C324 C325 1.377 . S
C325 H309 0.930 . S
C325 C324 1.377 . S
C325 C326 1.379 . S
C326 H310 0.931 . S
C326 C320 1.383 . S
C326 C325 1.379 . S
H327 C321 0.959 . S
H328 C321 0.961 1_545 S
H329 C321 0.960 . S
H330 C322 0.930 1_565 S
H331 C323 0.929 . S
H332 C340 0.929 . S
H333 C342 0.930 . S
H334 C344 0.930 . S
H335 C347 0.929 . S
H336 C350 0.930 . S
H337 C352 0.960 . S
H338 C352 0.960 . S
H339 C352 0.960 . S
C340 H332 0.929 . S
C340 C341 1.377 . S
C340 C342 1.384 . S
C341 C340 1.377 . S
C341 C347 1.390 . S
C342 H333 0.930 . S
C342 C340 1.384 . S
C342 C343 1.372 . S
C343 C342 1.372 . S
C343 C344 1.400 . S
C343 C348 1.490 . S
C344 H334 0.930 . S
C344 C343 1.400 . S
C344 C347 1.386 . S
H345 C361 0.930 . S
H346 C362 0.931 . S
C347 H335 0.929 . S
C347 C341 1.390 . S
C347 C344 1.386 . S
C348 C343 1.490 . S
C348 C350 1.395 . S
C348 C351 1.403 1_455 S
H349 C355 0.930 . S
C350 H336 0.930 . S
C350 C348 1.395 . S
C350 C353 1.403 . S
C351 C348 1.403 1_655 S
C351 C352 1.524 . S
C351 C355 1.400 . S
C352 H337 0.960 . S
C352 H338 0.960 . S
C352 H339 0.960 . S
C352 C351 1.524 . S
C353 C350 1.403 . S
C353 C354 1.392 1_455 S
C353 C357 1.495 . S
C354 C353 1.392 1_655 S
C354 C355 1.385 . S
C354 C356 1.478 . S
C355 H349 0.930 . S
C355 C351 1.400 . S
C355 C354 1.385 . S
C356 C354 1.478 . S
C356 C358 1.381 . S
C356 C362 1.383 . S
C357 C353 1.495 . S
C357 H363 0.959 . S
C357 H364 0.961 . S
C357 H365 0.960 . S
C358 C356 1.381 . S
C358 C359 1.394 . S
C358 H366 0.930 . S
C359 C358 1.394 . S
C359 C360 1.383 . S
C359 H367 0.929 . S
C360 C359 1.383 . S
C360 C361 1.377 . S
C361 H345 0.930 . S
C361 C360 1.377 . S
C361 C362 1.379 . S
C362 H346 0.931 . S
C362 C356 1.383 . S
C362 C361 1.379 . S
H363 C357 0.959 . S
H364 C357 0.961 . S
H365 C357 0.960 . S
H366 C358 0.930 . S
H367 C359 0.929 . S
H368 C376 0.929 . S
H369 C378 0.930 . S
H370 C380 0.930 . S
H371 C383 0.929 . S
H372 C386 0.930 . S
H373 C388 0.960 . S
H374 C388 0.960 . S
H375 C388 0.960 . S
C376 H368 0.929 . S
C376 C377 1.377 . S
C376 C378 1.384 . S
C377 C376 1.377 . S
C377 C383 1.390 . S
C378 H369 0.930 . S
C378 C376 1.384 . S
C378 C379 1.372 . S
C379 C378 1.372 . S
C379 C380 1.400 . S
C379 C384 1.490 . S
C380 H370 0.930 . S
C380 C379 1.400 . S
C380 C383 1.386 . S
H381 C397 0.930 . S
H382 C398 0.931 . S
C383 H371 0.929 . S
C383 C377 1.390 . S
C383 C380 1.386 . S
C384 C379 1.490 . S
C384 C386 1.395 . S
C384 C387 1.403 . S
H385 C391 0.930 . S
C386 H372 0.930 . S
C386 C384 1.395 . S
C386 C389 1.403 . S
C387 C384 1.403 . S
C387 C388 1.524 . S
C387 C391 1.400 . S
C388 H373 0.960 . S
C388 H374 0.960 . S
C388 H375 0.960 . S
C388 C387 1.524 . S
C389 C386 1.403 . S
C389 C390 1.392 . S
C389 C393 1.495 . S
C390 C389 1.392 . S
C390 C391 1.385 . S
C390 C392 1.478 . S
C391 H385 0.930 . S
C391 C387 1.400 . S
C391 C390 1.385 . S
C392 C390 1.478 . S
C392 C394 1.381 . S
C392 C398 1.383 . S
C393 C389 1.495 . S
C393 H399 0.959 . S
C393 H400 0.961 . S
C393 H401 0.960 . S
C394 C392 1.381 . S
C394 C395 1.394 . S
C394 H402 0.930 . S
C395 C394 1.394 . S
C395 C396 1.383 . S
C395 H403 0.929 . S
C396 C395 1.383 . S
C396 C397 1.377 . S
C397 H381 0.930 . S
C397 C396 1.377 . S
C397 C398 1.379 . S
C398 H382 0.931 . S
C398 C392 1.383 . S
C398 C397 1.379 . S
H399 C393 0.959 . S
H400 C393 0.961 . S
H401 C393 0.960 . S
H402 C394 0.930 . S
H403 C395 0.929 . S
H404 C412 0.929 . S
H405 C414 0.930 . S
H406 C416 0.930 1_565 S
H407 C419 0.929 . S
H408 C422 0.930 . S
H409 C424 0.960 . S
H410 C424 0.960 . S
H411 C424 0.960 . S
C412 H404 0.929 . S
C412 C413 1.377 . S
C412 C414 1.384 . S
C413 C412 1.377 . S
C413 C419 1.390 . S
C414 H405 0.930 . S
C414 C412 1.384 . S
C414 C415 1.372 . S
C415 C414 1.372 . S
C415 C416 1.400 . S
C415 C420 1.490 . S
C416 H406 0.930 1_545 S
C416 C415 1.400 . S
C416 C419 1.386 . S
H417 C433 0.930 . S
H418 C434 0.931 . S
C419 H407 0.929 . S
C419 C413 1.390 . S
C419 C416 1.386 . S
C420 C415 1.490 . S
C420 C422 1.395 . S
C420 C423 1.403 . S
H421 C427 0.930 . S
C422 H408 0.930 . S
C422 C420 1.395 . S
C422 C425 1.403 1_545 S
C423 C420 1.403 . S
C423 C424 1.524 . S
C423 C427 1.400 1_545 S
C424 H409 0.960 . S
C424 H410 0.960 . S
C424 H411 0.960 . S
C424 C423 1.524 . S
C425 C422 1.403 1_565 S
C425 C426 1.392 . S
C425 C429 1.495 . S
C426 C425 1.392 . S
C426 C427 1.385 . S
C426 C428 1.478 . S
C427 H421 0.930 . S
C427 C423 1.400 1_565 S
C427 C426 1.385 . S
C428 C426 1.478 . S
C428 C430 1.381 . S
C428 C434 1.383 . S
C429 C425 1.495 . S
C429 H435 0.959 . S
C429 H436 0.961 . S
C429 H437 0.960 . S
C430 C428 1.381 . S
C430 C431 1.394 . S
C430 H438 0.930 1_565 S
C431 C430 1.394 . S
C431 C432 1.383 . S
C431 H439 0.929 . S
C432 C431 1.383 . S
C432 C433 1.377 . S
C433 H417 0.930 . S
C433 C432 1.377 . S
C433 C434 1.379 . S
C434 H418 0.931 . S
C434 C428 1.383 . S
C434 C433 1.379 . S
H435 C429 0.959 . S
H436 C429 0.961 . S
H437 C429 0.960 . S
H438 C430 0.930 1_545 S
H439 C431 0.929 . S
H440 C448 0.929 . S
H441 C450 0.930 . S
H442 C452 0.930 . S
H443 C455 0.929 . S
H444 C458 0.930 . S
H445 C460 0.960 . S
H446 C460 0.960 . S
H447 C460 0.960 . S
C448 H440 0.929 . S
C448 C449 1.377 . S
C448 C450 1.384 . S
C449 C448 1.377 . S
C449 C455 1.390 . S
C450 H441 0.930 . S
C450 C448 1.384 . S
C450 C451 1.372 . S
C451 C450 1.372 . S
C451 C452 1.400 . S
C451 C456 1.490 . S
C452 H442 0.930 . S
C452 C451 1.400 . S
C452 C455 1.386 . S
H453 C469 0.930 . S
H454 C470 0.931 . S
C455 H443 0.929 . S
C455 C449 1.390 . S
C455 C452 1.386 . S
C456 C451 1.490 . S
C456 C458 1.395 . S
C456 C459 1.403 1_655 S
H457 C463 0.930 . S
C458 H444 0.930 . S
C458 C456 1.395 . S
C458 C461 1.403 . S
C459 C456 1.403 1_455 S
C459 C460 1.524 . S
C459 C463 1.400 . S
C460 H445 0.960 . S
C460 H446 0.960 . S
C460 H447 0.960 . S
C460 C459 1.524 . S
C461 C458 1.403 . S
C461 C462 1.392 1_655 S
C461 C465 1.495 . S
C462 C461 1.392 1_455 S
C462 C463 1.385 . S
C462 C464 1.478 . S
C463 H457 0.930 . S
C463 C459 1.400 . S
C463 C462 1.385 . S
C464 C462 1.478 . S
C464 C466 1.381 . S
C464 C470 1.383 . S
C465 C461 1.495 . S
C465 H471 0.959 . S
C465 H472 0.961 . S
C465 H473 0.960 . S
C466 C464 1.381 . S
C466 C467 1.394 . S
C466 H474 0.930 . S
C467 C466 1.394 . S
C467 C468 1.383 . S
C467 H475 0.929 . S
C468 C467 1.383 . S
C468 C469 1.377 . S
C469 H453 0.930 . S
C469 C468 1.377 . S
C469 C470 1.379 . S
C470 H454 0.931 . S
C470 C464 1.383 . S
C470 C469 1.379 . S
H471 C465 0.959 . S
H472 C465 0.961 . S
H473 C465 0.960 . S
H474 C466 0.930 . S
H475 C467 0.929 . S
H476 C484 0.929 . S
H477 C486 0.930 . S
H478 C488 0.930 . S
H479 C491 0.929 . S
H480 C494 0.930 . S
H481 C496 0.960 . S
H482 C496 0.960 . S
H483 C496 0.960 . S
C484 H476 0.929 . S
C484 C485 1.377 . S
C484 C486 1.384 . S
C485 C484 1.377 . S
C485 C491 1.390 . S
C486 H477 0.930 . S
C486 C484 1.384 . S
C486 C487 1.372 . S
C487 C486 1.372 . S
C487 C488 1.400 . S
C487 C492 1.490 . S
C488 H478 0.930 . S
C488 C487 1.400 . S
C488 C491 1.386 . S
H489 C505 0.930 . S
H490 C506 0.931 . S
C491 H479 0.929 . S
C491 C485 1.390 . S
C491 C488 1.386 . S
C492 C487 1.490 . S
C492 C494 1.395 . S
C492 C495 1.403 1_554 S
H493 C499 0.930 . S
C494 H480 0.930 . S
C494 C492 1.395 . S
C494 C497 1.403 . S
C495 C492 1.403 1_556 S
C495 C496 1.524 . S
C495 C499 1.400 . S
C496 H481 0.960 . S
C496 H482 0.960 . S
C496 H483 0.960 . S
C496 C495 1.524 . S
C497 C494 1.403 . S
C497 C498 1.392 1_554 S
C497 C501 1.495 . S
C498 C497 1.392 1_556 S
C498 C499 1.385 . S
C498 C500 1.478 . S
C499 H493 0.930 . S
C499 C495 1.400 . S
C499 C498 1.385 . S
C500 C498 1.478 . S
C500 C502 1.381 . S
C500 C506 1.383 . S
C501 C497 1.495 . S
C501 H507 0.959 . S
C501 H508 0.961 . S
C501 H509 0.960 . S
C502 C500 1.381 . S
C502 C503 1.394 . S
C502 H510 0.930 . S
C503 C502 1.394 . S
C503 C504 1.383 . S
C503 H511 0.929 . S
C504 C503 1.383 . S
C504 C505 1.377 . S
C505 H489 0.930 . S
C505 C504 1.377 . S
C505 C506 1.379 . S
C506 H490 0.931 . S
C506 C500 1.383 . S
C506 C505 1.379 . S
H507 C501 0.959 . S
H508 C501 0.961 . S
H509 C501 0.960 . S
H510 C502 0.930 . S
H511 C503 0.929 . S
H512 C520 0.929 . S
H513 C522 0.930 . S
H514 C524 0.930 . S
H515 C527 0.929 . S
H516 C530 0.930 . S
H517 C532 0.960 . S
H518 C532 0.960 . S
H519 C532 1.000 . S
C520 H512 0.929 . S
C520 C521 1.377 . S
C520 C522 1.384 . S
C521 C520 1.377 . S
C521 C527 1.390 . S
C522 H513 0.930 . S
C522 C520 1.384 . S
C522 C523 1.372 . S
C523 C522 1.372 . S
C523 C524 1.400 . S
C523 C528 1.490 . S
C524 H514 0.930 . S
C524 C523 1.400 . S
C524 C527 1.386 . S
H525 C541 0.930 . S
H526 C542 0.931 . S
C527 H515 0.929 . S
C527 C521 1.390 . S
C527 C524 1.386 . S
C528 C523 1.490 . S
C528 C530 1.395 1_455 S
C528 C531 1.403 1_556 S
H529 C535 0.930 . S
C530 H516 0.930 . S
C530 C528 1.395 1_655 S
C530 C533 1.403 . S
C531 C528 1.403 1_554 S
C531 C532 1.524 . S
C531 C535 1.400 . S
C532 H517 0.960 . S
C532 H518 0.960 . S
C532 H519 1.000 . S
C532 C531 1.524 . S
C533 C530 1.403 . S
C533 C534 1.392 1_556 S
C533 C537 1.495 . S
C534 C533 1.392 1_554 S
C534 C535 1.385 1_655 S
C534 C536 1.478 . S
C535 H529 0.930 . S
C535 C531 1.400 . S
C535 C534 1.385 1_455 S
C536 C534 1.478 . S
C536 C538 1.381 . S
C536 C542 1.383 . S
C537 C533 1.495 . S
C537 H543 0.959 . S
C537 H544 0.961 . S
C537 H545 0.992 . S
C538 C536 1.381 . S
C538 C539 1.394 . S
C538 H546 0.930 . S
C539 C538 1.394 . S
C539 C540 1.383 . S
C539 H547 0.929 . S
C540 C539 1.383 . S
C540 C541 1.377 . S
C541 H525 0.930 . S
C541 C540 1.377 . S
C541 C542 1.379 . S
C542 H526 0.931 . S
C542 C536 1.383 . S
C542 C541 1.379 . S
H543 C537 0.959 . S
H544 C537 0.961 . S
H545 C537 0.992 . S
H546 C538 0.930 . S
H547 C539 0.929 . S
H548 C556 0.929 . S
H549 C558 0.930 . S
H550 C560 0.930 . S
H551 C563 0.929 . S
H552 C566 0.930 . S
H553 C568 0.960 . S
H554 C568 0.960 . S
H555 C568 0.960 . S
C556 H548 0.929 . S
C556 C557 1.377 . S
C556 C558 1.384 . S
C557 C556 1.377 . S
C557 C563 1.390 . S
C558 H549 0.930 . S
C558 C556 1.384 . S
C558 C559 1.372 . S
C559 C558 1.372 . S
C559 C560 1.400 . S
C559 C564 1.490 . S
C560 H550 0.930 . S
C560 C559 1.400 . S
C560 C563 1.386 . S
H561 C577 0.930 . S
H562 C578 0.931 . S
C563 H551 0.929 . S
C563 C557 1.390 . S
C563 C560 1.386 . S
C564 C559 1.490 . S
C564 C566 1.395 . S
C564 C567 1.403 . S
H565 C571 0.930 . S
C566 H552 0.930 . S
C566 C564 1.395 . S
C566 C569 1.403 . S
C567 C564 1.403 . S
C567 C568 1.524 . S
C567 C571 1.400 . S
C568 H553 0.960 . S
C568 H554 0.960 . S
C568 H555 0.960 . S
C568 C567 1.524 . S
C569 C566 1.403 . S
C569 C570 1.392 . S
C569 C573 1.495 . S
C570 C569 1.392 . S
C570 C571 1.385 . S
C570 C572 1.478 . S
C571 H565 0.930 . S
C571 C567 1.400 . S
C571 C570 1.385 . S
C572 C570 1.478 . S
C572 C574 1.381 . S
C572 C578 1.383 . S
C573 C569 1.495 . S
C573 H579 0.959 . S
C573 H580 0.961 . S
C573 H581 0.960 . S
C574 C572 1.381 . S
C574 C575 1.394 . S
C574 H582 0.930 . S
C575 C574 1.394 . S
C575 C576 1.383 . S
C575 H583 0.929 . S
C576 C575 1.383 . S
C576 C577 1.377 . S
C577 H561 0.930 . S
C577 C576 1.377 . S
C577 C578 1.379 . S
C578 H562 0.931 . S
C578 C572 1.383 . S
C578 C577 1.379 . S
H579 C573 0.959 . S
H580 C573 0.961 . S
H581 C573 0.960 . S
H582 C574 0.930 . S
H583 C575 0.929 . S
H584 C592 0.929 . S
H585 C594 0.930 . S
H586 C596 0.930 . S
H587 C599 0.929 . S
H588 C602 0.930 . S
H589 C604 0.960 . S
H590 C604 0.960 . S
H591 C604 0.960 . S
C592 H584 0.929 . S
C592 C593 1.377 . S
C592 C594 1.384 . S
C593 C592 1.377 . S
C593 C599 1.390 . S
C594 H585 0.930 . S
C594 C592 1.384 . S
C594 C595 1.372 . S
C595 C594 1.372 . S
C595 C596 1.400 . S
C595 C600 1.490 . S
C596 H586 0.930 . S
C596 C595 1.400 . S
C596 C599 1.386 . S
H597 C613 0.930 . S
H598 C614 0.931 . S
C599 H587 0.929 . S
C599 C593 1.390 . S
C599 C596 1.386 . S
C600 C595 1.490 . S
C600 C602 1.395 1_556 S
C600 C603 1.403 . S
H601 C607 0.930 . S
C602 H588 0.930 . S
C602 C600 1.395 1_554 S
C602 C605 1.403 . S
C603 C600 1.403 . S
C603 C604 1.524 . S
C603 C607 1.400 . S
C604 H589 0.960 . S
C604 H590 0.960 . S
C604 H591 0.960 . S
C604 C603 1.524 . S
C605 C602 1.403 . S
C605 C606 1.392 . S
C605 C609 1.495 . S
C606 C605 1.392 . S
C606 C607 1.385 1_554 S
C606 C608 1.478 . S
C607 H601 0.930 . S
C607 C603 1.400 . S
C607 C606 1.385 1_556 S
C608 C606 1.478 . S
C608 C610 1.381 . S
C608 C614 1.383 . S
C609 C605 1.495 . S
C609 H615 0.959 . S
C609 H616 0.961 . S
C609 H617 0.960 . S
C610 C608 1.381 . S
C610 C611 1.394 . S
C610 H618 0.930 . S
C611 C610 1.394 . S
C611 C612 1.383 . S
C611 H619 0.929 . S
C612 C611 1.383 . S
C612 C613 1.377 . S
C613 H597 0.930 . S
C613 C612 1.377 . S
C613 C614 1.379 . S
C614 H598 0.931 . S
C614 C608 1.383 . S
C614 C613 1.379 . S
H615 C609 0.959 . S
H616 C609 0.961 . S
H617 C609 0.960 . S
H618 C610 0.930 . S
H619 C611 0.929 . S
H620 C628 0.929 . S
H621 C630 0.930 . S
H622 C632 0.930 . S
H623 C635 0.929 . S
H624 C638 0.930 . S
H625 C640 0.960 . S
H626 C640 0.960 . S
H627 C640 0.960 . S
C628 H620 0.929 . S
C628 C629 1.377 . S
C628 C630 1.384 . S
C629 C628 1.377 . S
C629 C635 1.390 . S
C630 H621 0.930 . S
C630 C628 1.384 . S
C630 C631 1.372 . S
C631 C630 1.372 . S
C631 C632 1.400 . S
C631 C636 1.490 . S
C632 H622 0.930 . S
C632 C631 1.400 . S
C632 C635 1.386 . S
H633 C649 0.930 . S
H634 C650 0.931 . S
C635 H623 0.929 . S
C635 C629 1.390 . S
C635 C632 1.386 . S
C636 C631 1.490 . S
C636 C638 1.395 . S
C636 C639 1.403 . S
H637 C643 0.930 . S
C638 H624 0.930 . S
C638 C636 1.395 . S
C638 C641 1.403 . S
C639 C636 1.403 . S
C639 C640 1.524 . S
C639 C643 1.400 . S
C640 H625 0.960 . S
C640 H626 0.960 . S
C640 H627 0.960 . S
C640 C639 1.524 . S
C641 C638 1.403 . S
C641 C642 1.392 . S
C641 C645 1.495 . S
C642 C641 1.392 . S
C642 C643 1.385 . S
C642 C644 1.478 . S
C643 H637 0.930 . S
C643 C639 1.400 . S
C643 C642 1.385 . S
C644 C642 1.478 . S
C644 C646 1.381 . S
C644 C650 1.383 . S
C645 C641 1.495 . S
C645 H651 0.959 . S
C645 H652 0.961 . S
C645 H653 0.960 . S
C646 C644 1.381 . S
C646 C647 1.394 . S
C646 H654 0.930 . S
C647 C646 1.394 . S
C647 C648 1.383 . S
C647 H655 0.929 . S
C648 C647 1.383 . S
C648 C649 1.377 . S
C649 H633 0.930 . S
C649 C648 1.377 . S
C649 C650 1.379 . S
C650 H634 0.931 . S
C650 C644 1.383 . S
C650 C649 1.379 . S
H651 C645 0.959 . S
H652 C645 0.961 . S
H653 C645 0.960 . S
H654 C646 0.930 . S
H655 C647 0.929 . S
H656 C664 0.929 . S
H657 C666 0.930 . S
H658 C668 0.930 1_565 S
H659 C671 0.929 . S
H660 C674 0.930 . S
H661 C676 0.960 . S
H662 C676 0.960 1_545 S
H663 C676 0.960 . S
C664 H656 0.929 . S
C664 C665 1.377 . S
C664 C666 1.384 . S
C665 C664 1.377 . S
C665 C671 1.390 . S
C666 H657 0.930 . S
C666 C664 1.384 . S
C666 C667 1.372 . S
C667 C666 1.372 . S
C667 C668 1.400 . S
C667 C672 1.490 . S
C668 H658 0.930 1_545 S
C668 C667 1.400 . S
C668 C671 1.386 . S
H669 C685 0.930 . S
H670 C686 0.931 . S
C671 H659 0.929 . S
C671 C665 1.390 . S
C671 C668 1.386 . S
C672 C667 1.490 . S
C672 C674 1.395 . S
C672 C675 1.403 1_546 S
H673 C679 0.930 . S
C674 H660 0.930 . S
C674 C672 1.395 . S
C674 C677 1.403 . S
C675 C672 1.403 1_564 S
C675 C676 1.524 . S
C675 C679 1.400 . S
C676 H661 0.960 . S
C676 H662 0.960 1_565 S
C676 H663 0.960 . S
C676 C675 1.524 . S
C677 C674 1.403 . S
C677 C678 1.392 1_546 S
C677 C681 1.495 . S
C678 C677 1.392 1_564 S
C678 C679 1.385 . S
C678 C680 1.478 . S
C679 H673 0.930 . S
C679 C675 1.400 . S
C679 C678 1.385 . S
C680 C678 1.478 . S
C680 C682 1.381 . S
C680 C686 1.383 . S
C681 C677 1.495 . S
C681 H687 0.959 . S
C681 H688 0.961 1_545 S
C681 H689 0.960 . S
C682 C680 1.381 . S
C682 C683 1.394 . S
C682 H690 0.930 1_565 S
C683 C682 1.394 . S
C683 C684 1.383 . S
C683 H691 0.929 . S
C684 C683 1.383 . S
C684 C685 1.377 . S
C685 H669 0.930 . S
C685 C684 1.377 . S
C685 C686 1.379 . S
C686 H670 0.931 . S
C686 C680 1.383 . S
C686 C685 1.379 . S
H687 C681 0.959 . S
H688 C681 0.961 1_565 S
H689 C681 0.960 . S
H690 C682 0.930 1_545 S
H691 C683 0.929 . S
H692 C700 0.929 . S
H693 C702 0.930 . S
H694 C704 0.930 . S
H695 C707 0.929 . S
H696 C710 0.930 . S
H697 C712 0.960 . S
H698 C712 0.960 . S
H699 C712 0.960 . S
C700 H692 0.929 . S
C700 C701 1.377 . S
C700 C702 1.384 . S
C701 C700 1.377 . S
C701 C707 1.390 . S
C702 H693 0.930 . S
C702 C700 1.384 . S
C702 C703 1.372 . S
C703 C702 1.372 . S
C703 C704 1.400 . S
C703 C708 1.490 . S
C704 H694 0.930 . S
C704 C703 1.400 . S
C704 C707 1.386 . S
H705 C721 0.930 . S
H706 C722 0.931 . S
C707 H695 0.929 . S
C707 C701 1.390 . S
C707 C704 1.386 . S
C708 C703 1.490 . S
C708 C710 1.395 . S
C708 C711 1.403 . S
H709 C715 0.930 . S
C710 H696 0.930 . S
C710 C708 1.395 . S
C710 C713 1.403 . S
C711 C708 1.403 . S
C711 C712 1.524 . S
C711 C715 1.400 . S
C712 H697 0.960 . S
C712 H698 0.960 . S
C712 H699 0.960 . S
C712 C711 1.524 . S
C713 C710 1.403 . S
C713 C714 1.392 . S
C713 C717 1.495 . S
C714 C713 1.392 . S
C714 C715 1.385 . S
C714 C716 1.478 . S
C715 H709 0.930 . S
C715 C711 1.400 . S
C715 C714 1.385 . S
C716 C714 1.478 . S
C716 C718 1.381 . S
C716 C722 1.383 . S
C717 C713 1.495 . S
C717 H723 0.959 . S
C717 H724 0.961 . S
C717 H725 0.960 . S
C718 C716 1.381 . S
C718 C719 1.394 . S
C718 H726 0.930 . S
C719 C718 1.394 . S
C719 C720 1.383 . S
C719 H727 0.929 . S
C720 C719 1.383 . S
C720 C721 1.377 . S
C721 H705 0.930 . S
C721 C720 1.377 . S
C721 C722 1.379 . S
C722 H706 0.931 . S
C722 C716 1.383 . S
C722 C721 1.379 . S
H723 C717 0.959 . S
H724 C717 0.961 . S
H725 C717 0.960 . S
H726 C718 0.930 . S
H727 C719 0.929 . S
H728 C736 0.929 . S
H729 C738 0.930 . S
H730 C740 0.930 . S
H731 C743 0.929 . S
H732 C746 0.930 . S
H733 C748 0.960 . S
H734 C748 0.960 . S
H735 C748 0.960 . S
C736 H728 0.929 . S
C736 C737 1.377 . S
C736 C738 1.384 . S
C737 C736 1.377 . S
C737 C743 1.390 . S
C738 H729 0.930 . S
C738 C736 1.384 . S
C738 C739 1.372 . S
C739 C738 1.372 . S
C739 C740 1.400 . S
C739 C744 1.490 . S
C740 H730 0.930 . S
C740 C739 1.400 . S
C740 C743 1.386 . S
H741 C757 0.930 . S
H742 C758 0.931 . S
C743 H731 0.929 . S
C743 C737 1.390 . S
C743 C740 1.386 . S
C744 C739 1.490 . S
C744 C746 1.395 . S
C744 C747 1.403 . S
H745 C751 0.930 . S
C746 H732 0.930 . S
C746 C744 1.395 . S
C746 C749 1.403 . S
C747 C744 1.403 . S
C747 C748 1.524 . S
C747 C751 1.400 . S
C748 H733 0.960 . S
C748 H734 0.960 . S
C748 H735 0.960 . S
C748 C747 1.524 . S
C749 C746 1.403 . S
C749 C750 1.392 . S
C749 C753 1.495 . S
C750 C749 1.392 . S
C750 C751 1.385 . S
C750 C752 1.478 . S
C751 H745 0.930 . S
C751 C747 1.400 . S
C751 C750 1.385 . S
C752 C750 1.478 . S
C752 C754 1.381 . S
C752 C758 1.383 . S
C753 C749 1.495 . S
C753 H759 0.959 . S
C753 H760 0.961 . S
C753 H761 0.960 . S
C754 C752 1.381 . S
C754 C755 1.394 . S
C754 H762 0.930 . S
C755 C754 1.394 . S
C755 C756 1.383 . S
C755 H763 0.929 . S
C756 C755 1.383 . S
C756 C757 1.377 . S
C757 H741 0.930 . S
C757 C756 1.377 . S
C757 C758 1.379 . S
C758 H742 0.931 . S
C758 C752 1.383 . S
C758 C757 1.379 . S
H759 C753 0.959 . S
H760 C753 0.961 . S
H761 C753 0.960 . S
H762 C754 0.930 . S
H763 C755 0.929 . S
H764 C772 0.929 . S
H765 C774 0.930 . S
H766 C776 0.930 . S
H767 C779 0.929 . S
H768 C782 0.930 . S
H769 C784 0.960 . S
H770 C784 0.960 . S
H771 C784 0.960 . S
C772 H764 0.929 . S
C772 C773 1.377 . S
C772 C774 1.384 . S
C773 C772 1.377 . S
C773 C779 1.390 . S
C774 H765 0.930 . S
C774 C772 1.384 . S
C774 C775 1.372 . S
C775 C774 1.372 . S
C775 C776 1.400 . S
C775 C780 1.490 . S
C776 H766 0.930 . S
C776 C775 1.400 . S
C776 C779 1.386 . S
H777 C793 0.930 . S
H778 C794 0.931 . S
C779 H767 0.929 . S
C779 C773 1.390 . S
C779 C776 1.386 . S
C780 C775 1.490 . S
C780 C782 1.395 . S
C780 C783 1.403 . S
H781 C787 0.930 . S
C782 H768 0.930 . S
C782 C780 1.395 . S
C782 C785 1.403 . S
C783 C780 1.403 . S
C783 C784 1.524 . S
C783 C787 1.400 . S
C784 H769 0.960 . S
C784 H770 0.960 . S
C784 H771 0.960 . S
C784 C783 1.524 . S
C785 C782 1.403 . S
C785 C786 1.392 . S
C785 C789 1.495 . S
C786 C785 1.392 . S
C786 C787 1.385 . S
C786 C788 1.478 . S
C787 H781 0.930 . S
C787 C783 1.400 . S
C787 C786 1.385 . S
C788 C786 1.478 . S
C788 C790 1.381 . S
C788 C794 1.383 . S
C789 C785 1.495 . S
C789 H795 0.959 . S
C789 H796 0.961 . S
C789 H797 0.960 . S
C790 C788 1.381 . S
C790 C791 1.394 . S
C790 H798 0.930 . S
C791 C790 1.394 . S
C791 C792 1.383 . S
C791 H799 0.929 . S
C792 C791 1.383 . S
C792 C793 1.377 . S
C793 H777 0.930 . S
C793 C792 1.377 . S
C793 C794 1.379 . S
C794 H778 0.931 . S
C794 C788 1.383 . S
C794 C793 1.379 . S
H795 C789 0.959 . S
H796 C789 0.961 . S
H797 C789 0.960 . S
H798 C790 0.930 . S
H799 C791 0.929 . S
H800 C808 0.929 . S
H801 C810 0.930 . S
H802 C812 0.930 . S
H803 C815 0.929 . S
H804 C818 0.930 . S
H805 C820 0.960 . S
H806 C820 0.960 . S
H807 C820 0.960 . S
C808 H800 0.929 . S
C808 C809 1.377 . S
C808 C810 1.384 . S
C809 C808 1.377 . S
C809 C815 1.390 . S
C810 H801 0.930 . S
C810 C808 1.384 . S
C810 C811 1.372 . S
C811 C810 1.372 . S
C811 C812 1.400 . S
C811 C816 1.490 . S
C812 H802 0.930 . S
C812 C811 1.400 . S
C812 C815 1.386 . S
H813 C829 0.930 . S
H814 C830 0.931 . S
C815 H803 0.929 . S
C815 C809 1.390 . S
C815 C812 1.386 . S
C816 C811 1.490 . S
C816 C818 1.395 . S
C816 C819 1.403 . S
H817 C823 0.930 . S
C818 H804 0.930 . S
C818 C816 1.395 . S
C818 C821 1.403 . S
C819 C816 1.403 . S
C819 C820 1.524 . S
C819 C823 1.400 . S
C820 H805 0.960 . S
C820 H806 0.960 . S
C820 H807 0.960 . S
C820 C819 1.524 . S
C821 C818 1.403 . S
C821 C822 1.392 . S
C821 C825 1.495 . S
C822 C821 1.392 . S
C822 C823 1.385 . S
C822 C824 1.478 . S
C823 H817 0.930 . S
C823 C819 1.400 . S
C823 C822 1.385 . S
C824 C822 1.478 . S
C824 C826 1.381 . S
C824 C830 1.383 . S
C825 C821 1.495 . S
C825 H831 0.959 . S
C825 H832 0.961 . S
C825 H833 0.960 . S
C826 C824 1.381 . S
C826 C827 1.394 1_565 S
C826 H834 0.930 . S
C827 C826 1.394 1_545 S
C827 C828 1.383 . S
C827 H835 0.929 . S
C828 C827 1.383 . S
C828 C829 1.377 . S
C829 H813 0.930 . S
C829 C828 1.377 . S
C829 C830 1.379 1_545 S
C830 H814 0.931 . S
C830 C824 1.383 . S
C830 C829 1.379 1_565 S
H831 C825 0.959 . S
H832 C825 0.961 . S
H833 C825 0.960 . S
H834 C826 0.930 . S
H835 C827 0.929 . S
H836 C844 0.929 . S
H837 C846 0.930 . S
H838 C848 0.930 . S
H839 C851 0.929 . S
H840 C854 0.930 . S
H841 C856 0.960 . S
H842 C856 0.960 . S
H843 C856 0.960 . S
C844 H836 0.929 . S
C844 C845 1.377 . S
C844 C846 1.384 . S
C845 C844 1.377 . S
C845 C851 1.390 . S
C846 H837 0.930 . S
C846 C844 1.384 . S
C846 C847 1.372 . S
C847 C846 1.372 . S
C847 C848 1.400 . S
C847 C852 1.490 . S
C848 H838 0.930 . S
C848 C847 1.400 . S
C848 C851 1.386 . S
H849 C865 0.930 . S
H850 C866 0.931 . S
C851 H839 0.929 . S
C851 C845 1.390 . S
C851 C848 1.386 . S
C852 C847 1.490 . S
C852 C854 1.395 . S
C852 C855 1.403 . S
H853 C859 0.930 . S
C854 H840 0.930 . S
C854 C852 1.395 . S
C854 C857 1.403 . S
C855 C852 1.403 . S
C855 C856 1.524 . S
C855 C859 1.400 . S
C856 H841 0.960 . S
C856 H842 0.960 . S
C856 H843 0.960 . S
C856 C855 1.524 . S
C857 C854 1.403 . S
C857 C858 1.392 . S
C857 C861 1.495 . S
C858 C857 1.392 . S
C858 C859 1.385 . S
C858 C860 1.478 . S
C859 H853 0.930 . S
C859 C855 1.400 . S
C859 C858 1.385 . S
C860 C858 1.478 . S
C860 C862 1.381 . S
C860 C866 1.383 . S
C861 C857 1.495 . S
C861 H867 0.959 . S
C861 H868 0.961 . S
C861 H869 0.960 . S
C862 C860 1.381 . S
C862 C863 1.394 . S
C862 H870 0.930 . S
C863 C862 1.394 . S
C863 C864 1.383 . S
C863 H871 0.929 . S
C864 C863 1.383 . S
C864 C865 1.377 . S
C865 H849 0.930 . S
C865 C864 1.377 . S
C865 C866 1.379 . S
C866 H850 0.931 . S
C866 C860 1.383 . S
C866 C865 1.379 . S
H867 C861 0.959 . S
H868 C861 0.961 . S
H869 C861 0.960 . S
H870 C862 0.930 . S
H871 C863 0.929 . S
H872 C880 0.929 . S
H873 C882 0.930 . S
H874 C884 0.930 . S
H875 C887 0.929 . S
H876 C890 0.930 . S
H877 C892 0.960 . S
H878 C892 0.960 . S
H879 C892 0.960 . S
C880 H872 0.929 . S
C880 C881 1.377 . S
C880 C882 1.384 . S
C881 C880 1.377 . S
C881 C887 1.390 . S
C882 H873 0.930 . S
C882 C880 1.384 . S
C882 C883 1.372 . S
C883 C882 1.372 . S
C883 C884 1.400 . S
C883 C888 1.490 . S
C884 H874 0.930 . S
C884 C883 1.400 . S
C884 C887 1.386 . S
H885 C901 0.930 . S
H886 C902 0.931 . S
C887 H875 0.929 . S
C887 C881 1.390 . S
C887 C884 1.386 . S
C888 C883 1.490 . S
C888 C890 1.395 . S
C888 C891 1.403 . S
H889 C895 0.930 . S
C890 H876 0.930 . S
C890 C888 1.395 . S
C890 C893 1.403 . S
C891 C888 1.403 . S
C891 C892 1.524 . S
C891 C895 1.400 . S
C892 H877 0.960 . S
C892 H878 0.960 . S
C892 H879 0.960 . S
C892 C891 1.524 . S
C893 C890 1.403 . S
C893 C894 1.392 . S
C893 C897 1.495 . S
C894 C893 1.392 . S
C894 C895 1.385 . S
C894 C896 1.478 . S
C895 H889 0.930 . S
C895 C891 1.400 . S
C895 C894 1.385 . S
C896 C894 1.478 . S
C896 C898 1.381 . S
C896 C902 1.383 . S
C897 C893 1.495 . S
C897 H903 0.959 . S
C897 H904 0.961 . S
C897 H905 0.960 . S
C898 C896 1.381 . S
C898 C899 1.394 . S
C898 H906 0.930 . S
C899 C898 1.394 . S
C899 C900 1.383 . S
C899 H907 0.929 . S
C900 C899 1.383 . S
C900 C901 1.377 . S
C901 H885 0.930 . S
C901 C900 1.377 . S
C901 C902 1.379 . S
C902 H886 0.931 . S
C902 C896 1.383 . S
C902 C901 1.379 . S
H903 C897 0.959 . S
H904 C897 0.961 . S
H905 C897 0.960 . S
H906 C898 0.930 . S
H907 C899 0.929 . S
H908 C916 0.929 . S
H909 C918 0.930 . S
H910 C920 0.930 . S
H911 C923 0.929 . S
H912 C926 0.930 . S
H913 C928 0.960 . S
H914 C928 0.960 . S
H915 C928 0.960 . S
C916 H908 0.929 . S
C916 C917 1.377 . S
C916 C918 1.384 . S
C917 C916 1.377 . S
C917 C923 1.390 . S
C918 H909 0.930 . S
C918 C916 1.384 . S
C918 C919 1.372 . S
C919 C918 1.372 . S
C919 C920 1.400 . S
C919 C924 1.490 . S
C920 H910 0.930 . S
C920 C919 1.400 . S
C920 C923 1.386 . S
H921 C937 0.930 . S
H922 C938 0.931 . S
C923 H911 0.929 . S
C923 C917 1.390 . S
C923 C920 1.386 . S
C924 C919 1.490 . S
C924 C926 1.395 . S
C924 C927 1.403 . S
H925 C931 0.930 . S
C926 H912 0.930 . S
C926 C924 1.395 . S
C926 C929 1.403 . S
C927 C924 1.403 . S
C927 C928 1.524 . S
C927 C931 1.400 . S
C928 H913 0.960 . S
C928 H914 0.960 . S
C928 H915 0.960 . S
C928 C927 1.524 . S
C929 C926 1.403 . S
C929 C930 1.392 . S
C929 C933 1.495 . S
C930 C929 1.392 . S
C930 C931 1.385 . S
C930 C932 1.478 . S
C931 H925 0.930 . S
C931 C927 1.400 . S
C931 C930 1.385 . S
C932 C930 1.478 . S
C932 C934 1.381 . S
C932 C938 1.383 . S
C933 C929 1.495 . S
C933 H939 0.959 . S
C933 H940 0.961 . S
C933 H941 0.960 . S
C934 C932 1.381 . S
C934 C935 1.394 1_565 S
C934 H942 0.930 . S
C935 C934 1.394 1_545 S
C935 C936 1.383 . S
C935 H943 0.929 . S
C936 C935 1.383 . S
C936 C937 1.377 1_545 S
C937 H921 0.930 . S
C937 C936 1.377 1_565 S
C937 C938 1.379 . S
C938 H922 0.931 . S
C938 C932 1.383 . S
C938 C937 1.379 . S
H939 C933 0.959 . S
H940 C933 0.961 . S
H941 C933 0.960 . S
H942 C934 0.930 . S
H943 C935 0.929 . S
H944 C952 0.929 . S
H945 C954 0.930 . S
H946 C956 0.930 . S
H947 C959 0.929 . S
H948 C962 0.930 . S
H949 C964 0.960 . S
H950 C964 0.960 . S
H951 C964 0.960 . S
C952 H944 0.929 . S
C952 C953 1.377 . S
C952 C954 1.384 . S
C953 C952 1.377 . S
C953 C959 1.390 . S
C954 H945 0.930 . S
C954 C952 1.384 . S
C954 C955 1.372 . S
C955 C954 1.372 . S
C955 C956 1.400 . S
C955 C960 1.490 . S
C956 H946 0.930 . S
C956 C955 1.400 . S
C956 C959 1.386 . S
H957 C973 0.927 1_545 S
H958 C974 0.931 . S
C959 H947 0.929 . S
C959 C953 1.390 . S
C959 C956 1.386 . S
C960 C955 1.490 . S
C960 C962 1.395 . S
C960 C963 1.403 . S
H961 C967 0.930 . S
C962 H948 0.930 . S
C962 C960 1.395 . S
C962 C965 1.403 . S
C963 C960 1.403 . S
C963 C964 1.524 . S
C963 C967 1.400 . S
C964 H949 0.960 . S
C964 H950 0.960 . S
C964 H951 0.960 . S
C964 C963 1.524 . S
C965 C962 1.403 . S
C965 C966 1.392 . S
C965 C969 1.495 . S
C966 C965 1.392 . S
C966 C967 1.385 . S
C966 C968 1.478 . S
C967 H961 0.930 . S
C967 C963 1.400 . S
C967 C966 1.385 . S
C968 C966 1.478 . S
C968 C970 1.381 1_545 S
C968 C974 1.383 . S
C969 C965 1.495 . S
C969 H975 0.959 . S
C969 H976 0.961 . S
C969 H977 0.960 1_545 S
C970 C968 1.381 1_565 S
C970 C971 1.394 . S
C970 H978 0.930 . S
C971 C970 1.394 . S
C971 C972 1.383 . S
C971 H979 0.929 . S
C972 C971 1.383 . S
C972 C973 1.380 . S
C973 H957 0.927 1_565 S
C973 C972 1.380 . S
C973 C974 1.377 1_565 S
C974 H958 0.931 . S
C974 C968 1.383 . S
C974 C973 1.377 1_545 S
H975 C969 0.959 . S
H976 C969 0.961 . S
H977 C969 0.960 1_565 S
H978 C970 0.930 . S
H979 C971 0.929 . S
H980 C988 0.929 . S
H981 C990 0.930 . S
H982 C992 0.930 . S
H983 C995 0.929 . S
H984 C998 0.930 . S
H985 C1000 0.960 . S
H986 C1000 0.960 . S
H987 C1000 0.960 . S
C988 H980 0.929 . S
C988 C989 1.377 . S
C988 C990 1.384 . S
C989 C988 1.377 . S
C989 C995 1.390 . S
C990 H981 0.930 . S
C990 C988 1.384 . S
C990 C991 1.372 . S
C991 C990 1.372 . S
C991 C992 1.400 . S
C991 C996 1.490 . S
C992 H982 0.930 . S
C992 C991 1.400 . S
C992 C995 1.386 . S
H993 C1009 0.930 . S
H994 C1010 0.931 . S
C995 H983 0.929 . S
C995 C989 1.390 . S
C995 C992 1.386 . S
C996 C991 1.490 . S
C996 C998 1.395 . S
C996 C999 1.403 . S
H997 C1003 0.930 . S
C998 H984 0.930 . S
C998 C996 1.395 . S
C998 C1001 1.403 . S
C999 C996 1.403 . S
C999 C1000 1.524 . S
C999 C1003 1.400 . S
C1000 H985 0.960 . S
C1000 H986 0.960 . S
C1000 H987 0.960 . S
C1000 C999 1.524 . S
C1001 C998 1.403 . S
C1001 C1002 1.392 . S
C1001 C1005 1.495 . S
C1002 C1001 1.392 . S
C1002 C1003 1.385 . S
C1002 C1004 1.478 . S
C1003 H997 0.930 . S
C1003 C999 1.400 . S
C1003 C1002 1.385 . S
C1004 C1002 1.478 . S
C1004 C1006 1.381 . S
C1004 C1010 1.383 . S
C1005 C1001 1.495 . S
C1005 H1011 0.959 . S
C1005 H1012 0.961 . S
C1005 H1013 0.960 . S
C1006 C1004 1.381 . S
C1006 C1007 1.394 . S
C1006 H1014 0.930 . S
C1007 C1006 1.394 . S
C1007 C1008 1.383 . S
C1007 H1015 0.929 . S
C1008 C1007 1.383 . S
C1008 C1009 1.377 . S
C1009 H993 0.930 . S
C1009 C1008 1.377 . S
C1009 C1010 1.379 . S
C1010 H994 0.931 . S
C1010 C1004 1.383 . S
C1010 C1009 1.379 . S
H1011 C1005 0.959 . S
H1012 C1005 0.961 . S
H1013 C1005 0.960 . S
H1014 C1006 0.930 . S
H1015 C1007 0.929 . S
H1016 C1024 0.929 . S
H1017 C1026 0.930 . S
H1018 C1028 0.930 . S
H1019 C1031 0.929 . S
H1020 C1034 0.930 . S
H1021 C1036 0.960 . S
H1022 C1036 0.960 . S
H1023 C1036 0.960 . S
C1024 H1016 0.929 . S
C1024 C1025 1.377 . S
C1024 C1026 1.384 . S
C1025 C1024 1.377 . S
C1025 C1031 1.390 . S
C1026 H1017 0.930 . S
C1026 C1024 1.384 . S
C1026 C1027 1.372 . S
C1027 C1026 1.372 . S
C1027 C1028 1.400 . S
C1027 C1032 1.490 . S
C1028 H1018 0.930 . S
C1028 C1027 1.400 . S
C1028 C1031 1.386 . S
H1029 C1045 0.930 . S
H1030 C1046 0.931 . S
C1031 H1019 0.929 . S
C1031 C1025 1.390 . S
C1031 C1028 1.386 . S
C1032 C1027 1.490 . S
C1032 C1034 1.395 . S
C1032 C1035 1.403 . S
H1033 C1039 0.930 . S
C1034 H1020 0.930 . S
C1034 C1032 1.395 . S
C1034 C1037 1.403 . S
C1035 C1032 1.403 . S
C1035 C1036 1.524 . S
C1035 C1039 1.400 . S
C1036 H1021 0.960 . S
C1036 H1022 0.960 . S
C1036 H1023 0.960 . S
C1036 C1035 1.524 . S
C1037 C1034 1.403 . S
C1037 C1038 1.392 . S
C1037 C1041 1.495 . S
C1038 C1037 1.392 . S
C1038 C1039 1.385 . S
C1038 C1040 1.478 . S
C1039 H1033 0.930 . S
C1039 C1035 1.400 . S
C1039 C1038 1.385 . S
C1040 C1038 1.478 . S
C1040 C1042 1.381 . S
C1040 C1046 1.383 . S
C1041 C1037 1.495 . S
C1041 H1047 0.959 . S
C1041 H1048 0.961 . S
C1041 H1049 0.960 . S
C1042 C1040 1.381 . S
C1042 C1043 1.394 . S
C1042 H1050 0.930 . S
C1043 C1042 1.394 . S
C1043 C1044 1.383 . S
C1043 H1051 0.929 . S
C1044 C1043 1.383 . S
C1044 C1045 1.377 . S
C1045 H1029 0.930 . S
C1045 C1044 1.377 . S
C1045 C1046 1.379 . S
C1046 H1030 0.931 . S
C1046 C1040 1.383 . S
C1046 C1045 1.379 . S
H1047 C1041 0.959 . S
H1048 C1041 0.961 . S
H1049 C1041 0.960 . S
H1050 C1042 0.930 . S
H1051 C1043 0.929 . S
H1052 C1060 0.929 . S
H1053 C1062 0.930 1_565 S
H1054 C1064 0.930 . S
H1055 C1067 0.929 . S
H1056 C1070 0.930 . S
H1057 C1072 0.960 . S
H1058 C1072 0.960 . S
H1059 C1072 0.960 . S
C1060 H1052 0.929 . S
C1060 C1061 1.377 . S
C1060 C1062 1.384 1_565 S
C1061 C1060 1.377 . S
C1061 C1067 1.390 1_565 S
C1062 H1053 0.930 1_545 S
C1062 C1060 1.384 1_545 S
C1062 C1063 1.372 . S
C1063 C1062 1.372 . S
C1063 C1064 1.400 . S
C1063 C1068 1.490 . S
C1064 H1054 0.930 . S
C1064 C1063 1.400 . S
C1064 C1067 1.386 . S
H1065 C1081 0.930 . S
H1066 C1082 0.931 . S
C1067 H1055 0.929 . S
C1067 C1061 1.390 1_545 S
C1067 C1064 1.386 . S
C1068 C1063 1.490 . S
C1068 C1070 1.395 . S
C1068 C1071 1.403 . S
H1069 C1075 0.930 . S
C1070 H1056 0.930 . S
C1070 C1068 1.395 . S
C1070 C1073 1.403 . S
C1071 C1068 1.403 . S
C1071 C1072 1.524 . S
C1071 C1075 1.400 . S
C1072 H1057 0.960 . S
C1072 H1058 0.960 . S
C1072 H1059 0.960 . S
C1072 C1071 1.524 . S
C1073 C1070 1.403 . S
C1073 C1074 1.392 . S
C1073 C1077 1.495 . S
C1074 C1073 1.392 . S
C1074 C1075 1.385 . S
C1074 C1076 1.478 . S
C1075 H1069 0.930 . S
C1075 C1071 1.400 . S
C1075 C1074 1.385 . S
C1076 C1074 1.478 . S
C1076 C1078 1.381 . S
C1076 C1082 1.383 . S
C1077 C1073 1.495 . S
C1077 H1083 0.959 . S
C1077 H1084 0.961 . S
C1077 H1085 0.960 . S
C1078 C1076 1.381 . S
C1078 C1079 1.394 . S
C1078 H1086 0.930 . S
C1079 C1078 1.394 . S
C1079 C1080 1.383 . S
C1079 H1087 0.929 . S
C1080 C1079 1.383 . S
C1080 C1081 1.377 . S
C1081 H1065 0.930 . S
C1081 C1080 1.377 . S
C1081 C1082 1.379 . S
C1082 H1066 0.931 . S
C1082 C1076 1.383 . S
C1082 C1081 1.379 . S
H1083 C1077 0.959 . S
H1084 C1077 0.961 . S
H1085 C1077 0.960 . S
H1086 C1078 0.930 . S
H1087 C1079 0.929 . S
H1088 C1096 0.929 . S
H1089 C1098 0.930 . S
H1090 C1100 0.930 . S
H1091 C1103 0.929 . S
H1092 C1106 0.930 . S
H1093 C1108 0.960 . S
H1094 C1108 0.960 . S
H1095 C1108 0.960 . S
C1096 H1088 0.929 . S
C1096 C1097 1.377 . S
C1096 C1098 1.384 . S
C1097 C1096 1.377 . S
C1097 C1103 1.390 . S
C1098 H1089 0.930 . S
C1098 C1096 1.384 . S
C1098 C1099 1.372 . S
C1099 C1098 1.372 . S
C1099 C1100 1.400 . S
C1099 C1104 1.490 . S
C1100 H1090 0.930 . S
C1100 C1099 1.400 . S
C1100 C1103 1.386 . S
H1101 C1117 0.930 . S
H1102 C1118 0.931 . S
C1103 H1091 0.929 . S
C1103 C1097 1.390 . S
C1103 C1100 1.386 . S
C1104 C1099 1.490 . S
C1104 C1106 1.395 . S
C1104 C1107 1.403 . S
H1105 C1111 0.930 . S
C1106 H1092 0.930 . S
C1106 C1104 1.395 . S
C1106 C1109 1.403 . S
C1107 C1104 1.403 . S
C1107 C1108 1.524 . S
C1107 C1111 1.400 . S
C1108 H1093 0.960 . S
C1108 H1094 0.960 . S
C1108 H1095 0.960 . S
C1108 C1107 1.524 . S
C1109 C1106 1.403 . S
C1109 C1110 1.392 . S
C1109 C1113 1.495 . S
C1110 C1109 1.392 . S
C1110 C1111 1.385 . S
C1110 C1112 1.478 . S
C1111 H1105 0.930 . S
C1111 C1107 1.400 . S
C1111 C1110 1.385 . S
C1112 C1110 1.478 . S
C1112 C1114 1.381 . S
C1112 C1118 1.383 . S
C1113 C1109 1.495 . S
C1113 H1119 0.959 . S
C1113 H1120 0.961 . S
C1113 H1121 0.960 . S
C1114 C1112 1.381 . S
C1114 C1115 1.394 1_565 S
C1114 H1122 0.930 . S
C1115 C1114 1.394 1_545 S
C1115 C1116 1.383 . S
C1115 H1123 0.929 . S
C1116 C1115 1.383 . S
C1116 C1117 1.377 . S
C1117 H1101 0.930 . S
C1117 C1116 1.377 . S
C1117 C1118 1.379 1_545 S
C1118 H1102 0.931 . S
C1118 C1112 1.383 . S
C1118 C1117 1.379 1_565 S
H1119 C1113 0.959 . S
H1120 C1113 0.961 . S
H1121 C1113 0.960 . S
H1122 C1114 0.930 . S
H1123 C1115 0.929 . S
H1124 C1132 0.929 . S
H1125 C1134 0.930 . S
H1126 C1136 0.930 . S
H1127 C1139 0.929 . S
H1128 C1142 0.930 . S
H1129 C1144 0.960 . S
H1130 C1144 0.960 . S
H1131 C1144 0.960 . S
C1132 H1124 0.929 . S
C1132 C1133 1.377 . S
C1132 C1134 1.384 . S
C1133 C1132 1.377 . S
C1133 C1139 1.390 . S
C1134 H1125 0.930 . S
C1134 C1132 1.384 . S
C1134 C1135 1.372 . S
C1135 C1134 1.372 . S
C1135 C1136 1.400 . S
C1135 C1140 1.490 . S
C1136 H1126 0.930 . S
C1136 C1135 1.400 . S
C1136 C1139 1.386 . S
H1137 C1153 0.930 . S
H1138 C1154 0.931 . S
C1139 H1127 0.929 . S
C1139 C1133 1.390 . S
C1139 C1136 1.386 . S
C1140 C1135 1.490 . S
C1140 C1142 1.395 . S
C1140 C1143 1.403 . S
H1141 C1147 0.930 . S
C1142 H1128 0.930 . S
C1142 C1140 1.395 . S
C1142 C1145 1.403 . S
C1143 C1140 1.403 . S
C1143 C1144 1.524 . S
C1143 C1147 1.400 . S
C1144 H1129 0.960 . S
C1144 H1130 0.960 . S
C1144 H1131 0.960 . S
C1144 C1143 1.524 . S
C1145 C1142 1.403 . S
C1145 C1146 1.392 . S
C1145 C1149 1.495 . S
C1146 C1145 1.392 . S
C1146 C1147 1.385 . S
C1146 C1148 1.478 . S
C1147 H1141 0.930 . S
C1147 C1143 1.400 . S
C1147 C1146 1.385 . S
C1148 C1146 1.478 . S
C1148 C1150 1.381 . S
C1148 C1154 1.383 . S
C1149 C1145 1.495 . S
C1149 H1155 0.959 . S
C1149 H1156 0.961 . S
C1149 H1157 0.960 . S
C1150 C1148 1.381 . S
C1150 C1151 1.394 . S
C1150 H1158 0.930 . S
C1151 C1150 1.394 . S
C1151 C1152 1.383 . S
C1151 H1159 0.929 . S
C1152 C1151 1.383 . S
C1152 C1153 1.377 . S
C1153 H1137 0.930 . S
C1153 C1152 1.377 . S
C1153 C1154 1.379 . S
C1154 H1138 0.931 . S
C1154 C1148 1.383 . S
C1154 C1153 1.379 . S
H1155 C1149 0.959 . S
H1156 C1149 0.961 . S
H1157 C1149 0.960 . S
H1158 C1150 0.930 . S
H1159 C1151 0.929 . S
H1160 C1168 0.929 . S
H1161 C1170 0.930 . S
H1162 C1172 0.930 . S
H1163 C1175 0.929 . S
H1164 C1178 0.930 . S
H1165 C1180 0.960 . S
H1166 C1180 0.960 . S
H1167 C1180 0.960 . S
C1168 H1160 0.929 . S
C1168 C1169 1.377 . S
C1168 C1170 1.384 . S
C1169 C1168 1.377 . S
C1169 C1175 1.390 . S
C1170 H1161 0.930 . S
C1170 C1168 1.384 . S
C1170 C1171 1.372 . S
C1171 C1170 1.372 . S
C1171 C1172 1.400 . S
C1171 C1176 1.490 . S
C1172 H1162 0.930 . S
C1172 C1171 1.400 . S
C1172 C1175 1.386 . S
H1173 C1189 0.930 . S
H1174 C1190 0.931 . S
C1175 H1163 0.929 . S
C1175 C1169 1.390 . S
C1175 C1172 1.386 . S
C1176 C1171 1.490 . S
C1176 C1178 1.395 . S
C1176 C1179 1.403 . S
H1177 C1183 0.930 . S
C1178 H1164 0.930 . S
C1178 C1176 1.395 . S
C1178 C1181 1.403 . S
C1179 C1176 1.403 . S
C1179 C1180 1.524 . S
C1179 C1183 1.400 . S
C1180 H1165 0.960 . S
C1180 H1166 0.960 . S
C1180 H1167 0.960 . S
C1180 C1179 1.524 . S
C1181 C1178 1.403 . S
C1181 C1182 1.392 . S
C1181 C1185 1.495 . S
C1182 C1181 1.392 . S
C1182 C1183 1.385 . S
C1182 C1184 1.478 . S
C1183 H1177 0.930 . S
C1183 C1179 1.400 . S
C1183 C1182 1.385 . S
C1184 C1182 1.478 . S
C1184 C1186 1.381 . S
C1184 C1190 1.383 . S
C1185 C1181 1.495 . S
C1185 H1191 0.959 . S
C1185 H1192 0.961 . S
C1185 H1193 0.960 . S
C1186 C1184 1.381 . S
C1186 C1187 1.394 . S
C1186 H1194 0.930 . S
C1187 C1186 1.394 . S
C1187 C1188 1.383 . S
C1187 H1195 0.929 . S
C1188 C1187 1.383 . S
C1188 C1189 1.377 . S
C1189 H1173 0.930 . S
C1189 C1188 1.377 . S
C1189 C1190 1.379 . S
C1190 H1174 0.931 . S
C1190 C1184 1.383 . S
C1190 C1189 1.379 . S
H1191 C1185 0.959 . S
H1192 C1185 0.961 . S
H1193 C1185 0.960 . S
H1194 C1186 0.930 . S
H1195 C1187 0.929 . S
H1196 C1204 0.929 . S
H1197 C1206 0.930 . S
H1198 C1208 0.930 . S
H1199 C1211 0.929 . S
H1200 C1214 0.930 . S
H1201 C1216 0.960 . S
H1202 C1216 0.960 . S
H1203 C1216 0.960 . S
C1204 H1196 0.929 . S
C1204 C1205 1.377 . S
C1204 C1206 1.384 . S
C1205 C1204 1.377 . S
C1205 C1211 1.390 . S
C1206 H1197 0.930 . S
C1206 C1204 1.384 . S
C1206 C1207 1.372 . S
C1207 C1206 1.372 . S
C1207 C1208 1.400 . S
C1207 C1212 1.490 . S
C1208 H1198 0.930 . S
C1208 C1207 1.400 . S
C1208 C1211 1.386 . S
H1209 C1225 0.930 . S
H1210 C1226 0.931 . S
C1211 H1199 0.929 . S
C1211 C1205 1.390 . S
C1211 C1208 1.386 . S
C1212 C1207 1.490 . S
C1212 C1214 1.395 . S
C1212 C1215 1.403 . S
H1213 C1219 0.930 . S
C1214 H1200 0.930 . S
C1214 C1212 1.395 . S
C1214 C1217 1.403 . S
C1215 C1212 1.403 . S
C1215 C1216 1.524 . S
C1215 C1219 1.400 . S
C1216 H1201 0.960 . S
C1216 H1202 0.960 . S
C1216 H1203 0.960 . S
C1216 C1215 1.524 . S
C1217 C1214 1.403 . S
C1217 C1218 1.392 . S
C1217 C1221 1.495 . S
C1218 C1217 1.392 . S
C1218 C1219 1.385 . S
C1218 C1220 1.478 . S
C1219 H1213 0.930 . S
C1219 C1215 1.400 . S
C1219 C1218 1.385 . S
C1220 C1218 1.478 . S
C1220 C1222 1.381 . S
C1220 C1226 1.383 . S
C1221 C1217 1.495 . S
C1221 H1227 0.959 . S
C1221 H1228 0.961 . S
C1221 H1229 0.960 . S
C1222 C1220 1.381 . S
C1222 C1223 1.394 1_565 S
C1222 H1230 0.930 . S
C1223 C1222 1.394 1_545 S
C1223 C1224 1.383 . S
C1223 H1231 0.929 . S
C1224 C1223 1.383 . S
C1224 C1225 1.377 1_545 S
C1225 H1209 0.930 . S
C1225 C1224 1.377 1_565 S
C1225 C1226 1.379 . S
C1226 H1210 0.931 . S
C1226 C1220 1.383 . S
C1226 C1225 1.379 . S
H1227 C1221 0.959 . S
H1228 C1221 0.961 . S
H1229 C1221 0.960 . S
H1230 C1222 0.930 . S
H1231 C1223 0.929 . S
H1232 C1240 0.929 . S
H1233 C1242 0.930 . S
H1234 C1244 0.930 . S
H1235 C1247 0.929 . S
H1236 C1250 0.930 . S
H1237 C1252 0.960 . S
H1238 C1252 0.960 . S
H1239 C1252 0.960 . S
C1240 H1232 0.929 . S
C1240 C1241 1.377 . S
C1240 C1242 1.384 . S
C1241 C1240 1.377 . S
C1241 C1247 1.390 . S
C1242 H1233 0.930 . S
C1242 C1240 1.384 . S
C1242 C1243 1.372 . S
C1243 C1242 1.372 . S
C1243 C1244 1.400 . S
C1243 C1248 1.490 . S
C1244 H1234 0.930 . S
C1244 C1243 1.400 . S
C1244 C1247 1.386 . S
H1245 C1261 0.930 . S
H1246 C1262 0.931 . S
C1247 H1235 0.929 . S
C1247 C1241 1.390 . S
C1247 C1244 1.386 . S
C1248 C1243 1.490 . S
C1248 C1250 1.395 . S
C1248 C1251 1.403 . S
H1249 C1255 0.930 . S
C1250 H1236 0.930 . S
C1250 C1248 1.395 . S
C1250 C1253 1.403 . S
C1251 C1248 1.403 . S
C1251 C1252 1.524 . S
C1251 C1255 1.400 . S
C1252 H1237 0.960 . S
C1252 H1238 0.960 . S
C1252 H1239 0.960 . S
C1252 C1251 1.524 . S
C1253 C1250 1.403 . S
C1253 C1254 1.392 . S
C1253 C1257 1.495 . S
C1254 C1253 1.392 . S
C1254 C1255 1.385 . S
C1254 C1256 1.478 . S
C1255 H1249 0.930 . S
C1255 C1251 1.400 . S
C1255 C1254 1.385 . S
C1256 C1254 1.478 . S
C1256 C1258 1.381 . S
C1256 C1262 1.383 . S
C1257 C1253 1.495 . S
C1257 H1263 0.959 . S
C1257 H1264 0.961 . S
C1257 H1265 0.960 . S
C1258 C1256 1.381 . S
C1258 C1259 1.394 1_545 S
C1258 H1266 0.930 . S
C1259 C1258 1.394 1_565 S
C1259 C1260 1.383 . S
C1259 H1267 0.929 . S
C1260 C1259 1.383 . S
C1260 C1261 1.377 . S
C1261 H1245 0.930 . S
C1261 C1260 1.377 . S
C1261 C1262 1.379 1_565 S
C1262 H1246 0.931 . S
C1262 C1256 1.383 . S
C1262 C1261 1.379 1_545 S
H1263 C1257 0.959 . S
H1264 C1257 0.961 . S
H1265 C1257 0.960 . S
H1266 C1258 0.930 . S
H1267 C1259 0.929 . S
H1268 C1276 0.929 . S
H1269 C1278 0.930 . S
H1270 C1280 0.930 . S
H1271 C1283 0.929 . S
H1272 C1286 0.930 . S
H1273 C1288 0.960 . S
H1274 C1288 0.960 . S
H1275 C1288 0.960 . S
C1276 H1268 0.929 . S
C1276 C1277 1.377 . S
C1276 C1278 1.384 . S
C1277 C1276 1.377 . S
C1277 C1283 1.390 . S
C1278 H1269 0.930 . S
C1278 C1276 1.384 . S
C1278 C1279 1.372 . S
C1279 C1278 1.372 . S
C1279 C1280 1.400 . S
C1279 C1284 1.490 . S
C1280 H1270 0.930 . S
C1280 C1279 1.400 . S
C1280 C1283 1.386 . S
H1281 C1297 0.930 . S
H1282 C1298 0.931 . S
C1283 H1271 0.929 . S
C1283 C1277 1.390 . S
C1283 C1280 1.386 . S
C1284 C1279 1.490 . S
C1284 C1286 1.395 . S
C1284 C1287 1.403 . S
H1285 C1291 0.930 . S
C1286 H1272 0.930 . S
C1286 C1284 1.395 . S
C1286 C1289 1.403 . S
C1287 C1284 1.403 . S
C1287 C1288 1.524 . S
C1287 C1291 1.400 . S
C1288 H1273 0.960 . S
C1288 H1274 0.960 . S
C1288 H1275 0.960 . S
C1288 C1287 1.524 . S
C1289 C1286 1.403 . S
C1289 C1290 1.392 . S
C1289 C1293 1.495 . S
C1290 C1289 1.392 . S
C1290 C1291 1.385 . S
C1290 C1292 1.478 . S
C1291 H1285 0.930 . S
C1291 C1287 1.400 . S
C1291 C1290 1.385 . S
C1292 C1290 1.478 . S
C1292 C1294 1.381 . S
C1292 C1298 1.383 . S
C1293 C1289 1.495 . S
C1293 H1299 0.959 . S
C1293 H1300 0.961 . S
C1293 H1301 0.960 . S
C1294 C1292 1.381 . S
C1294 C1295 1.394 . S
C1294 H1302 0.930 . S
C1295 C1294 1.394 . S
C1295 C1296 1.383 . S
C1295 H1303 0.929 . S
C1296 C1295 1.383 . S
C1296 C1297 1.377 . S
C1297 H1281 0.930 . S
C1297 C1296 1.377 . S
C1297 C1298 1.379 . S
C1298 H1282 0.931 . S
C1298 C1292 1.383 . S
C1298 C1297 1.379 . S
H1299 C1293 0.959 . S
H1300 C1293 0.961 . S
H1301 C1293 0.960 . S
H1302 C1294 0.930 . S
H1303 C1295 0.929 . S
H1304 C1312 0.929 . S
H1305 C1314 0.930 . S
H1306 C1316 0.930 . S
H1307 C1319 0.929 . S
H1308 C1322 0.930 . S
H1309 C1324 0.960 . S
H1310 C1324 0.960 . S
H1311 C1324 0.960 . S
C1312 H1304 0.929 . S
C1312 C1313 1.377 . S
C1312 C1314 1.384 . S
C1313 C1312 1.377 . S
C1313 C1319 1.390 . S
C1314 H1305 0.930 . S
C1314 C1312 1.384 . S
C1314 C1315 1.372 . S
C1315 C1314 1.372 . S
C1315 C1316 1.400 . S
C1315 C1320 1.490 . S
C1316 H1306 0.930 . S
C1316 C1315 1.400 . S
C1316 C1319 1.386 . S
H1317 C1333 0.930 . S
H1318 C1334 0.931 . S
C1319 H1307 0.929 . S
C1319 C1313 1.390 . S
C1319 C1316 1.386 . S
C1320 C1315 1.490 . S
C1320 C1322 1.395 . S
C1320 C1323 1.403 . S
H1321 C1327 0.930 . S
C1322 H1308 0.930 . S
C1322 C1320 1.395 . S
C1322 C1325 1.403 . S
C1323 C1320 1.403 . S
C1323 C1324 1.524 . S
C1323 C1327 1.400 . S
C1324 H1309 0.960 . S
C1324 H1310 0.960 . S
C1324 H1311 0.960 . S
C1324 C1323 1.524 . S
C1325 C1322 1.403 . S
C1325 C1326 1.392 . S
C1325 C1329 1.495 . S
C1326 C1325 1.392 . S
C1326 C1327 1.385 . S
C1326 C1328 1.478 . S
C1327 H1321 0.930 . S
C1327 C1323 1.400 . S
C1327 C1326 1.385 . S
C1328 C1326 1.478 . S
C1328 C1330 1.381 . S
C1328 C1334 1.383 . S
C1329 C1325 1.495 . S
C1329 H1335 0.959 . S
C1329 H1336 0.961 . S
C1329 H1337 0.960 . S
C1330 C1328 1.381 . S
C1330 C1331 1.394 . S
C1330 H1338 0.930 . S
C1331 C1330 1.394 . S
C1331 C1332 1.383 . S
C1331 H1339 0.929 . S
C1332 C1331 1.383 . S
C1332 C1333 1.377 . S
C1333 H1317 0.930 . S
C1333 C1332 1.377 . S
C1333 C1334 1.379 . S
C1334 H1318 0.931 . S
C1334 C1328 1.383 . S
C1334 C1333 1.379 . S
H1335 C1329 0.959 . S
H1336 C1329 0.961 . S
H1337 C1329 0.960 . S
H1338 C1330 0.930 . S
H1339 C1331 0.929 . S
H1340 C1348 0.929 . S
H1341 C1350 0.930 . S
H1342 C1352 0.930 . S
H1343 C1355 0.929 . S
H1344 C1358 0.930 . S
H1345 C1360 0.960 . S
H1346 C1360 0.960 . S
H1347 C1360 0.960 . S
C1348 H1340 0.929 . S
C1348 C1349 1.377 . S
C1348 C1350 1.384 . S
C1349 C1348 1.377 . S
C1349 C1355 1.390 . S
C1350 H1341 0.930 . S
C1350 C1348 1.384 . S
C1350 C1351 1.372 . S
C1351 C1350 1.372 . S
C1351 C1352 1.400 . S
C1351 C1356 1.490 . S
C1352 H1342 0.930 . S
C1352 C1351 1.400 . S
C1352 C1355 1.386 . S
H1353 C1369 0.930 1_565 S
H1354 C1370 0.931 . S
C1355 H1343 0.929 . S
C1355 C1349 1.390 . S
C1355 C1352 1.386 . S
C1356 C1351 1.490 . S
C1356 C1358 1.395 . S
C1356 C1359 1.403 . S
H1357 C1363 0.930 . S
C1358 H1344 0.930 . S
C1358 C1356 1.395 . S
C1358 C1361 1.403 . S
C1359 C1356 1.403 . S
C1359 C1360 1.524 . S
C1359 C1363 1.400 . S
C1360 H1345 0.960 . S
C1360 H1346 0.960 . S
C1360 H1347 0.960 . S
C1360 C1359 1.524 . S
C1361 C1358 1.403 . S
C1361 C1362 1.392 . S
C1361 C1365 1.495 . S
C1362 C1361 1.392 . S
C1362 C1363 1.385 . S
C1362 C1364 1.478 . S
C1363 H1357 0.930 . S
C1363 C1359 1.400 . S
C1363 C1362 1.385 . S
C1364 C1362 1.478 . S
C1364 C1366 1.381 . S
C1364 C1370 1.383 . S
C1365 C1361 1.495 . S
C1365 H1371 0.959 . S
C1365 H1372 0.961 . S
C1365 H1373 0.960 . S
C1366 C1364 1.381 . S
C1366 C1367 1.394 . S
C1366 H1374 0.930 . S
C1367 C1366 1.394 . S
C1367 C1368 1.383 1_545 S
C1367 H1375 0.929 . S
C1368 C1367 1.383 1_565 S
C1368 C1369 1.377 1_565 S
C1369 H1353 0.930 1_545 S
C1369 C1368 1.377 1_545 S
C1369 C1370 1.379 . S
C1370 H1354 0.931 . S
C1370 C1364 1.383 . S
C1370 C1369 1.379 . S
H1371 C1365 0.959 . S
H1372 C1365 0.961 . S
H1373 C1365 0.960 . S
H1374 C1366 0.930 . S
H1375 C1367 0.929 . S
C233 C207 1.482 . S
C252 C11 1.460 . S
C269 C33 1.369 . S
C288 C5 1.389 . S
C305 C165 1.482 . S
C324 C25 1.460 . S
C341 C19 1.369 . S
C360 C103 1.365 . S
C377 C39 1.487 . S
C396 C179 1.492 . S
C413 C137 1.486 . S
C432 C53 1.499 . S
C449 C47 1.352 . S
C468 C75 1.362 . S
C485 C151 1.483 . S
C504 C67 1.499 . S
C521 C61 1.351 . S
C540 C89 1.359 . S
C557 C221 1.482 . S
C576 C81 1.497 . S
C593 C123 1.481 . S
C612 C95 1.459 . S
C629 C193 1.486 . S
C648 C109 1.472 . S
C665 C117 1.351 . S
C684 C145 1.353 . S
C701 C215 1.369 . S
C720 C131 1.365 . S
C737 C159 1.354 . S
C756 C187 1.378 . S
C773 C201 1.360 . S
C792 C173 1.318 . S
C809 C74 0.973 . S
C828 C4 0.945 . S
C845 C12 1.059 . S
C864 C82 1.044 . S
C881 C18 0.985 . S
C900 C60 1.000 . S
C917 C68 1.059 . S
C936 C26 1.053 . S
C953 C102 0.983 . S
C972 C32 0.945 . S
C989 C110 1.057 . S
C1008 C40 1.059 . S
C1025 C88 0.987 . S
C1044 C46 0.963 . S
C1061 C54 1.057 . S
C1080 C96 1.049 . S
C1097 C186 0.987 . S
C1116 C116 1.012 . S
C1133 C124 1.059 . S
C1152 C194 1.046 . S
C1169 C130 0.987 . S
C1188 C172 1.008 . S
C1205 C180 1.058 . S
C1224 C138 1.058 . S
C1241 C214 0.984 . S
C1260 C144 0.999 . S
C1277 C222 1.060 . S
C1296 C152 1.065 . S
C1313 C158 0.975 . S
C1332 C200 0.970 . S
C1349 C208 1.060 . S
C1368 C166 1.066 . S
