# Generated by pormake.
# Topology snp, (6)-cn, num edge types: 1
# Building blocks:
#     Node 0, Type 0, BuildingBlock: BETDAH_clean_sbu_0, # of connection points: 6
#     Node 1, Type 0, BuildingBlock: BETDAH_clean_sbu_0, # of connection points: 6
#     Node 2, Type 0, BuildingBlock: BETDAH_clean_sbu_0, # of connection points: 6
#     Node 3, Type 0, BuildingBlock: BETDAH_clean_sbu_0, # of connection points: 6
#     Edge 4, Type (0, 0), BuildingBlock: FUNLAD_clean_linker_1, # of connection points: 2
#     Edge 5, Type (0, 0), BuildingBlock: FUNLAD_clean_linker_1, # of connection points: 2
#     Edge 6, Type (0, 0), BuildingBlock: FUNLAD_clean_linker_1, # of connection points: 2
#     Edge 7, Type (0, 0), BuildingBlock: FUNLAD_clean_linker_1, # of connection points: 2
#     Edge 8, Type (0, 0), BuildingBlock: FUNLAD_clean_linker_1, # of connection points: 2
#     Edge 9, Type (0, 0), BuildingBlock: FUNLAD_clean_linker_1, # of connection points: 2
#     Edge 10, Type (0, 0), BuildingBlock: FUNLAD_clean_linker_1, # of connection points: 2
#     Edge 11, Type (0, 0), BuildingBlock: FUNLAD_clean_linker_1, # of connection points: 2
#     Edge 12, Type (0, 0), BuildingBlock: FUNLAD_clean_linker_1, # of connection points: 2
#     Edge 13, Type (0, 0), BuildingBlock: FUNLAD_clean_linker_1, # of connection points: 2
#     Edge 14, Type (0, 0), BuildingBlock: FUNLAD_clean_linker_1, # of connection points: 2
#     Edge 15, Type (0, 0), BuildingBlock: FUNLAD_clean_linker_1, # of connection points: 2
# Relax obj value: 0.682
# Max RMSD: 0.173
# Mean RMSD: 0.173
data_MOF--net-snp--node1-BETDAH_clean_sbu_0--edge1-FUNLAD_clean_linker_1
_symmetry_space_group_name_H-M    P1
_symmetry_Int_Tables_number       1
_symmetry_cell_setting            triclinic
loop_
_symmetry_equiv_pos_as_xyz
'x, y, z'
_cell_length_a     25.760286
_cell_length_b     26.06406
_cell_length_c     30.314747
_cell_angle_alpha  88.822553
_cell_angle_beta   90.842938
_cell_angle_gamma 91.223877
loop_
_atom_site_label
_atom_site_type_symbol
_atom_site_fract_x
_atom_site_fract_y
_atom_site_fract_z
_atom_type_partial_charge
Ho0 Ho 0.2485 0.9561 0.17392 0.0
Ho1 Ho 0.23043 0.06327 1.14869 0.0
C2 C 0.22521 0.03751 0.25383 0.0
C3 C 0.29312 0.86887 0.18482 0.0
C4 C 0.30009 0.8271 0.21726 0.0
C5 C 0.34474 0.79752 0.21541 0.0
C6 C 0.35334 0.75842 0.24663 0.0
C7 C 0.31717 0.74792 0.27992 0.0
C8 C 0.272 0.77748 0.28138 0.0
C9 C 0.26357 0.81678 0.25023 0.0
C10 C 0.15091 0.98034 0.18984 0.0
C11 C 0.21245 0.97762 1.07021 0.0
C12 C 0.21134 0.1552 1.11965 0.0
C13 C 0.24098 0.20377 1.11885 0.0
C14 C 0.28893 0.20811 1.14123 0.0
C15 C 0.32202 0.25025 1.13295 0.0
C16 C 0.3074 0.2884 1.10209 0.0
C17 C 0.25714 0.2864 1.08334 0.0
C18 C 0.22429 0.24408 1.09139 0.0
C19 C 0.333 0.03898 0.16282 0.0
O20 O 0.24988 0.99471 0.24293 0.0
O21 O 0.20848 0.06849 0.22162 0.0
O22 O 0.24651 0.87382 0.16764 0.0
O23 O 0.31575 0.9129 0.19423 0.0
O24 O 0.17652 0.94632 0.21252 0.0
O25 O 0.1763 0.99683 0.15668 0.0
O26 O 0.20756 0.02663 1.08128 0.0
O27 O 0.22878 0.94392 1.10067 0.0
O28 O 0.19774 0.13772 0.15847 0.0
O29 O 0.22993 0.11945 1.09525 0.0
O30 O 0.31241 0.08039 0.17605 0.0
O31 O 0.2986 0.01398 1.14252 0.0
H32 H 0.37338 0.80521 0.19016 0.0
H33 H 0.38876 0.73685 0.24519 0.0
H34 H 0.24406 0.77194 0.30742 0.0
H35 H 0.2291 0.83967 0.25235 0.0
H36 H 0.30211 0.17757 0.16303 0.0
H37 H 0.36039 0.25109 1.14805 0.0
H38 H 0.24506 0.3152 1.05926 0.0
H39 H 0.18728 0.24135 1.07404 0.0
Ho40 Ho 0.09122 0.24583 0.67102 0.0
Ho41 Ho 0.98964 0.24709 0.62441 0.0
C42 C 0.98824 0.24692 0.73279 0.0
C43 C 0.18457 0.26797 0.69765 0.0
C44 C 0.21828 0.26739 0.73743 0.0
C45 C 0.23389 0.31406 0.75633 0.0
C46 C 0.26782 0.31473 0.79263 0.0
C47 C 0.287 0.26863 0.81062 0.0
C48 C 0.27252 0.22206 0.79107 0.0
C49 C 0.23828 0.22133 0.75491 0.0
C50 C 0.03383 0.16107 0.6855 0.0
C51 C 0.08898 0.20358 0.56879 0.0
C52 C 0.90335 0.23902 0.58096 0.0
C53 C 0.85631 0.2699 0.57808 0.0
C54 C 0.85959 0.32362 0.58068 0.0
C55 C 0.81617 0.35316 0.57101 0.0
C56 C 0.76865 0.32953 0.55932 0.0
C57 C 0.76451 0.27548 0.56031 0.0
C58 C 0.80816 0.24596 0.56954 0.0
C59 C 0.02775 0.34327 0.64359 0.0
O60 O 0.03911 0.25831 0.73129 0.0
O61 O 0.96163 0.23803 0.69562 0.0
O62 O 0.17066 0.22363 0.68118 0.0
O63 O 0.14717 0.30138 0.69612 0.0
O64 O 0.06537 0.18007 0.71504 0.0
O65 O 0.03789 0.18503 0.64905 0.0
O66 O 0.03862 0.2145 0.56789 0.0
O67 O 0.11678 0.21222 0.60536 0.0
O68 O 0.91175 0.21461 0.61848 0.0
O69 O 0.94538 0.26089 0.56478 0.0
O70 O 0.97975 0.3287 0.64615 0.0
O71 O 0.05349 0.30612 0.6296 0.0
H72 H 0.22017 0.35018 0.74278 0.0
H73 H 0.27941 0.35141 0.80618 0.0
H74 H 0.28699 0.18607 0.80431 0.0
H75 H 0.22773 0.18473 0.74063 0.0
H76 H 0.89633 0.34294 0.58772 0.0
H77 H 0.82054 0.39461 0.56992 0.0
H78 H 0.72894 0.25582 0.55034 0.0
H79 H 0.80492 0.20454 0.56762 0.0
Ho80 Ho 0.81884 0.13769 0.16204 0.0
Ho81 Ho 0.84671 0.02748 1.13469 0.0
C82 C 0.86372 0.05494 0.23819 0.0
C83 C 0.76058 0.21567 0.17381 0.0
C84 C 0.74049 0.2488 0.20806 0.0
C85 C 0.68666 0.25529 0.2101 0.0
C86 C 0.66549 0.28377 0.24361 0.0
C87 C 0.69771 0.30624 0.27584 0.0
C88 C 0.75204 0.30217 0.27225 0.0
C89 C 0.77321 0.2733 0.23882 0.0
C90 C 0.91992 0.12364 0.15636 0.0
C91 C 0.84749 0.1193 1.05678 0.0
C92 C 0.87559 0.9392 1.10942 0.0
C93 C 0.90298 0.90356 1.0817 0.0
C94 C 0.90297 0.90907 1.03567 0.0
C95 C 0.9182 0.86833 1.00995 0.0
C96 C 0.93269 0.82132 1.03003 0.0
C97 C 0.93748 0.81799 1.07605 0.0
C98 C 0.92247 0.8588 1.10173 0.0
C99 C 0.74511 0.04443 0.15639 0.0
O100 O 0.83403 0.09617 0.22996 0.0
O101 O 0.87848 0.02615 0.20526 0.0
O102 O 0.80981 0.22009 0.16372 0.0
O103 O 0.74365 0.16797 0.17532 0.0
O104 O 0.90108 0.15913 0.1809 0.0
O105 O 0.88475 0.10249 1.13398 0.0
O106 O 0.86088 0.07116 1.06798 0.0
O107 O 0.82714 0.1498 1.08679 0.0
O108 O 0.83473 0.96244 1.0929 0.0
O109 O 0.90202 0.96599 1.13856 0.0
O110 O 0.76911 0.00268 0.16643 0.0
O111 O 0.77577 0.07273 1.13495 0.0
H112 H 0.66078 0.23717 0.18628 0.0
H113 H 0.62366 0.28654 0.24531 0.0
H114 H 0.77842 0.32052 0.29541 0.0
H115 H 0.81495 0.2695 0.23753 0.0
H116 H 0.88874 0.94364 1.01962 0.0
H117 H 0.91658 0.87301 0.97439 0.0
H118 H 0.94943 0.78263 1.09224 0.0
H119 H 0.9229 0.85407 1.13735 0.0
Ho120 Ho 0.02252 0.87496 0.64477 0.0
Ho121 Ho 0.11968 0.8314 0.62195 0.0
C122 C 0.11139 0.8772 0.72253 0.0
C123 C 0.92959 0.88085 0.67445 0.0
C124 C 0.90015 0.84391 0.70217 0.0
C125 C 0.90294 0.79091 0.69473 0.0
C126 C 0.88147 0.75537 0.72458 0.0
C127 C 0.85776 0.77219 0.76298 0.0
C128 C 0.85148 0.82519 0.76848 0.0
C129 C 0.87271 0.86082 0.73839 0.0
C130 C 0.09339 0.94419 0.61114 0.0
C131 C 0.0376 0.87433 0.54091 0.0
C132 C 0.20561 0.79754 0.59205 0.0
C133 C 0.22018 0.74569 0.57922 0.0
C134 C 0.18522 0.71419 0.55563 0.0
C135 C 0.20004 0.66579 0.54233 0.0
C136 C 0.24991 0.64771 0.55254 0.0
C137 C 0.28309 0.67758 0.57959 0.0
C138 C 0.26852 0.72644 0.59232 0.0
C139 C 0.05301 0.75564 0.65134 0.0
O140 O 0.06051 0.87615 0.71448 0.0
O141 O 0.14293 0.8673 0.68918 0.0
O142 O 0.96962 0.90359 0.69333 0.0
O143 O 0.94001 0.8649 0.63514 0.0
O144 O 0.04341 0.94924 0.60782 0.0
O145 O 0.10149 0.90784 0.63755 0.0
O146 O 0.08286 0.85239 0.55225 0.0
O147 O 1.00498 0.88589 0.57208 0.0
O148 O 0.197 0.80274 0.63388 0.0
O149 O 0.17101 0.8205 0.56717 0.0
O150 O 0.10123 0.76062 0.662 0.0
O151 O 0.04108 0.79363 0.62637 0.0
H152 H 0.92366 0.7767 0.6668 0.0
H153 H 0.88568 0.715 0.71827 0.0
H154 H 0.83315 0.83928 0.79768 0.0
H155 H 0.86991 0.90146 0.74458 0.0
H156 H 0.14689 0.72743 0.54646 0.0
H157 H 0.17335 0.64361 0.52198 0.0
H158 H 0.32106 0.66436 0.58959 0.0
H159 H 0.29534 0.74953 0.61183 0.0
H160 H 0.98819 0.0861 1.13756 0.0
C161 C 0.97241 0.12386 1.14057 0.0
H162 H 0.98164 0.20399 1.1288 0.0
H163 H 0.11073 0.08209 0.24531 0.0
H164 H 0.11145 0.16372 0.28593 0.0
H165 H 0.09546 0.24543 0.24683 0.0
H166 H 0.0725 0.24652 0.16769 0.0
C167 C 0.99878 0.1664 1.12669 0.0
C168 C 0.05546 0.16241 1.1197 0.0
C169 C 0.08107 0.16456 0.1605 0.0
C170 C 0.09219 0.11741 0.18224 0.0
C171 C 0.10279 0.11754 0.22782 0.0
C172 C 0.10391 0.16361 0.25082 0.0
C173 C 0.0948 0.21002 0.22878 0.0
C174 C 0.08264 0.21057 0.18389 0.0
H175 H 0.07493 0.95467 0.2138 0.0
C176 C 0.09496 0.98494 0.19521 0.0
H177 H 0.02619 0.02418 0.18839 0.0
H178 H 0.04557 0.16191 1.03152 0.0
H179 H 0.05362 0.08594 0.98521 0.0
H180 H 0.07685 0.00238 1.01901 0.0
H181 H 0.09455 0.99407 1.09849 0.0
C182 C 0.06731 0.02471 0.18091 0.0
C183 C 0.08842 0.0713 0.15813 0.0
C184 C 0.08355 0.07491 1.11147 0.0
C185 C 0.06926 0.12259 1.09187 0.0
C186 C 0.05817 0.12609 1.04646 0.0
C187 C 0.06216 0.08304 1.02023 0.0
C188 C 0.07536 0.03586 1.03933 0.0
C189 C 0.08546 0.03147 1.08466 0.0
H190 H 0.1554 0.92931 0.56291 0.0
C191 C 0.12919 0.95808 0.57434 0.0
H192 H 0.15541 0.01304 0.52692 0.0
H193 H 0.9308 0.08371 0.60116 0.0
H194 H 0.90736 0.07562 0.52339 0.0
H195 H 0.97299 0.05312 0.46898 0.0
H196 H 0.06354 0.04038 0.49188 0.0
C197 C 0.13012 0.00482 0.55463 0.0
C198 C 0.10212 0.04666 0.57515 0.0
C199 C 0.05055 0.05503 0.56127 0.0
C200 C 0.01275 0.06654 0.59288 0.0
C201 C 0.96103 0.07439 0.57843 0.0
C202 C 0.94715 0.06982 0.53399 0.0
C203 C 0.98418 0.05725 0.50328 0.0
C204 C 0.03553 0.0497 0.51665 0.0
H205 H 0.96705 0.12813 0.72237 0.0
C206 C 0.99291 0.12244 0.69515 0.0
H207 H 0.95634 0.05278 0.67788 0.0
H208 H 0.201 0.05432 0.60612 0.0
H209 H 0.22726 0.05865 0.68405 0.0
H210 H 0.16095 0.06083 0.74201 0.0
H211 H 0.06915 0.06168 0.72265 0.0
C212 C 0.9882 0.07978 0.67161 0.0
C213 C 0.02726 0.06803 0.63812 0.0
C214 C 0.0803 0.06342 0.65108 0.0
C215 C 0.11814 0.05828 0.61847 0.0
C216 C 0.17123 0.05742 0.63077 0.0
C217 C 0.18648 0.05952 0.67498 0.0
C218 C 0.14916 0.06082 0.70758 0.0
C219 C 0.09659 0.062 0.696 0.0
H220 H 0.67475 0.09076 1.14673 0.0
C221 C 0.68817 0.05391 0.15922 0.0
H222 H 0.66532 0.98253 0.18743 0.0
H223 H 0.44773 0.0475 0.26008 0.0
H224 H 0.49755 0.03646 0.32795 0.0
H225 H 0.59191 0.02277 0.32644 0.0
H226 H 0.63721 0.01978 0.25703 0.0
C227 C 0.65244 0.01913 0.17397 0.0
C228 C 0.59484 0.0299 0.17438 0.0
C229 C 0.56841 0.03188 0.21513 0.0
C230 C 0.51372 0.04062 0.21602 0.0
C231 C 0.48903 0.04178 0.2574 0.0
C232 C 0.51715 0.03534 0.29664 0.0
C233 C 0.57028 0.02755 0.29579 0.0
C234 C 0.59579 0.02579 0.25567 0.0
H235 H 0.40075 0.99211 1.1469 0.0
C236 C 0.38965 0.0276 0.16202 0.0
H237 H 0.41643 0.09429 0.19406 0.0
H238 H 0.63022 0.02311 1.09012 0.0
H239 H 0.58126 0.038 1.02244 0.0
H240 H 0.48861 0.05957 1.02418 0.0
H241 H 0.44395 0.06528 1.09355 0.0
C242 C 0.4274 0.05944 0.17783 0.0
C243 C 0.48469 0.04768 0.17617 0.0
C244 C 0.5112 0.04632 1.13536 0.0
C245 C 0.56571 0.03636 1.13443 0.0
C246 C 0.58979 0.03259 1.09299 0.0
C247 C 0.56202 0.04073 1.05379 0.0
C248 C 0.50979 0.05268 1.05476 0.0
C249 C 0.48452 0.05552 1.0949 0.0
H250 H 0.08601 0.40813 0.63874 0.0
C251 C 0.04527 0.39878 0.64401 0.0
H252 H 0.97102 0.42695 0.6567 0.0
H253 H 0.02078 0.6394 0.74044 0.0
H254 H 0.9976 0.58805 0.80533 0.0
H255 H 0.98662 0.49426 0.80126 0.0
H256 H 0.99929 0.45052 0.73264 0.0
C257 C 0.01137 0.43728 0.65042 0.0
C258 C 0.02538 0.49413 0.65327 0.0
C259 C 0.01778 0.51993 0.69352 0.0
C260 C 0.02455 0.57458 0.69594 0.0
C261 C 0.01675 0.59828 0.73686 0.0
C262 C 1.0032 0.56937 0.77427 0.0
C263 C 0.99696 0.51647 0.77199 0.0
C264 C 1.00412 0.49186 0.73228 0.0
H265 H 0.993 0.69718 0.62987 0.0
C266 C 0.0295 0.70236 0.64775 0.0
H267 H 0.0914 0.66648 0.68185 0.0
H268 H 0.04028 0.45977 0.57015 0.0
H269 H 0.06622 0.51063 0.506 0.0
H270 H 0.08091 0.60411 0.51085 0.0
H271 H 0.06914 0.64775 0.57974 0.0
C272 C 0.05537 0.66042 0.66343 0.0
C273 C 0.03889 0.60455 0.65815 0.0
C274 C 0.04667 0.57883 0.61787 0.0
C275 C 0.03944 0.52408 0.61532 0.0
C276 C 0.0462 0.50058 0.57424 0.0
C277 C 0.06101 0.52938 0.53711 0.0
C278 C 0.06927 0.58207 0.53984 0.0
C279 C 0.06231 0.60668 0.57961 0.0
H280 H 0.14583 0.14923 0.54143 0.0
C281 C 0.11519 0.17492 0.53103 0.0
H282 H 0.07408 0.20509 0.47677 0.0
H283 H 0.09483 0.06492 0.31479 0.0
H284 H 1.00199 0.07494 0.32246 0.0
H285 H 0.96671 0.11142 0.38958 0.0
H286 H 0.02355 0.14272 0.44742 0.0
C287 C 0.10463 0.17886 0.4863 0.0
C288 C 0.1293 0.14851 0.44774 0.0
C289 C 0.09631 0.12674 0.4142 0.0
C290 C 0.11692 0.10414 0.37491 0.0
C291 C 0.08155 0.08425 0.3434 0.0
C292 C 0.0282 0.08855 0.34806 0.0
C293 C 1.00833 0.10951 0.38571 0.0
C294 C 0.04166 0.12775 0.41861 0.0
H295 H 0.2155 0.01503 0.32572 0.0
C296 C 0.21115 0.04717 0.30274 0.0
H297 H 0.18973 0.12429 0.2963 0.0
H298 H 0.20755 0.1898 0.49809 0.0
H299 H 0.2998 0.18548 0.48638 0.0
H300 H 0.33405 0.1432 0.42134 0.0
H301 H 0.27587 0.10494 0.36688 0.0
C302 C 0.1918 0.09205 0.31926 0.0
C303 C 0.17138 0.10254 0.36675 0.0
C304 C 0.20451 0.123 0.40062 0.0
C305 C 0.1841 0.1462 0.44004 0.0
C306 C 0.21988 0.16931 0.4697 0.0
C307 C 0.2732 0.16777 0.46296 0.0
C308 C 0.29253 0.14412 0.42618 0.0
C309 C 0.2588 0.12238 0.39517 0.0
H310 H 0.91821 0.23939 0.77513 0.0
C311 C 0.96017 0.23626 0.77626 0.0
H312 H 0.02386 0.21241 0.81528 0.0
H313 H 0.9498 0.20048 1.01054 0.0
H314 H 0.01065 0.27241 1.01207 0.0
H315 H 0.04403 0.31159 0.94318 0.0
H316 H 0.01728 0.27875 0.87197 0.0
C317 C 0.98194 0.21611 0.8142 0.0
C318 C 0.95238 0.19756 0.85599 0.0
C319 C 0.96614 0.21773 0.89817 0.0
C320 C 0.94544 0.19568 0.93859 0.0
C321 C 0.96277 0.21613 0.97921 0.0
C322 C 0.99796 0.25738 0.98058 0.0
C323 C 0.01689 0.27936 0.94176 0.0
C324 C 1.00135 0.25997 0.90107 0.0
H325 H 0.84687 0.18241 1.00598 0.0
C326 C 0.86121 0.144 1.01213 0.0
H327 H 0.90724 0.08607 0.98629 0.0
H328 H 0.91723 0.14506 0.78417 0.0
H329 H 0.85683 0.07302 0.78292 0.0
H330 H 0.81909 0.03783 0.85165 0.0
H331 H 0.84209 0.07425 0.9224 0.0
C332 C 0.89293 0.12463 0.98097 0.0
C333 C 0.90969 0.15313 0.93807 0.0
C334 C 0.89516 0.13348 0.89597 0.0
C335 C 0.91633 0.15506 0.85554 0.0
C336 C 0.90197 0.13176 0.81533 0.0
C337 C 0.86731 0.09005 0.81417 0.0
C338 C 0.84614 0.07015 0.8529 0.0
C339 C 0.85978 0.09137 0.89331 0.0
H340 H 0.04076 0.86463 0.46729 0.0
C341 C 0.02346 0.88759 0.4924 0.0
H342 H 0.97504 0.94825 0.5061 0.0
H343 H 1.00543 0.98047 0.28305 0.0
H344 H 0.09615 0.96135 0.29395 0.0
H345 H 0.13143 0.94087 0.36778 0.0
H346 H 0.07583 0.93573 0.43113 0.0
C347 C 0.99042 0.92651 0.47931 0.0
C348 C 0.97045 0.9427 0.43199 0.0
C349 C 1.00348 0.95008 0.39477 0.0
C350 C 0.98319 0.96651 0.35184 0.0
C351 C 0.01779 0.96888 0.31592 0.0
C352 C 0.07026 0.95839 0.32171 0.0
C353 C 0.09019 0.94677 0.36336 0.0
C354 C 0.05755 0.9431 0.39949 0.0
H355 H 0.87319 0.0683 0.31116 0.0
C356 C 0.8821 0.04121 0.28577 0.0
H357 H 0.91838 0.97182 0.27216 0.0
H358 H 0.89234 0.93297 0.49171 0.0
H359 H 0.80279 0.9554 0.4817 0.0
H360 H 0.76989 0.988 0.4101 0.0
H361 H 0.82646 -0.00143 0.34788 0.0
C362 C 0.90928 -0.00225 0.29839 0.0
C363 C 0.93024 0.98174 0.34541 0.0
C364 C 0.89743 0.97546 0.38283 0.0
C365 C 0.91698 0.95595 0.42506 0.0
C366 C 0.88124 0.9489 0.45988 0.0
C367 C 0.82918 0.96107 0.45447 0.0
C368 C 0.81065 0.97945 0.41415 0.0
C369 C 0.84393 0.98599 0.37867 0.0
H370 H 0.17642 0.88415 0.77238 0.0
C371 C 0.13513 0.89073 0.76837 0.0
H372 H 0.0687 0.91677 0.79978 0.0
H373 H 0.1066 0.91666 1.00405 0.0
H374 H 0.03181 0.86078 0.99484 0.0
H375 H 1.00267 0.83363 0.9211 0.0
H376 H 0.0507 0.85854 0.85605 0.0
C377 C 0.11009 0.9109 0.80406 0.0
C378 C 0.13369 0.92447 0.8507 0.0
C379 C 0.10842 0.90679 0.8903 0.0
C380 C 0.12526 0.92329 0.93396 0.0
C381 C 0.09662 0.90554 0.97086 0.0
C382 C 0.05322 0.87342 0.96604 0.0
C383 C 0.0371 0.85774 0.92452 0.0
C384 C 0.06471 0.87315 0.88726 0.0
H385 H 0.20132 0.91523 1.02117 0.0
C386 C 0.19813 0.95651 1.02391 0.0
H387 H 0.18099 0.02403 0.98757 0.0
H388 H 0.18807 0.97503 0.78637 0.0
H389 H 0.25935 0.03569 0.79542 0.0
H390 H 0.29078 0.05999 0.86937 0.0
H391 H 0.25062 0.0243 0.93518 0.0
C392 C 0.18226 0.9825 0.98599 0.0
C393 C 0.16814 0.95836 0.94008 0.0
C394 C 0.19305 0.97649 0.90053 0.0
C395 C 0.17591 0.96044 0.8568 0.0
C396 C 0.20042 0.98333 0.81968 0.0
C397 C 0.24125 0.01874 0.82442 0.0
C398 C 0.25883 0.0326 0.86609 0.0
C399 C 0.23523 0.01192 0.90366 0.0
H400 H 0.96334 0.74401 1.01679 0.0
C401 C 0.93873 0.77436 1.00395 0.0
H402 H 0.88077 0.79459 0.95776 0.0
H403 H 0.97615 0.68018 0.80447 0.0
H404 H 0.06382 0.70575 0.82636 0.0
H405 H 0.08267 0.73603 0.90169 0.0
H406 H 0.01382 0.74129 0.95511 0.0
C407 C 0.90971 0.76666 0.96753 0.0
C408 C 0.91035 0.72017 0.94023 0.0
C409 C 0.95203 0.71328 0.91119 0.0
C410 C 0.94135 0.69487 0.86816 0.0
C411 C 0.98234 0.69321 0.83774 0.0
C412 C 0.03281 0.70771 0.84995 0.0
C413 C 0.04341 0.72473 0.89234 0.0
C414 C 1.00352 0.72779 0.92269 0.0
H415 H 0.82719 0.75444 0.82859 0.0
C416 C 0.8468 0.73729 0.80112 0.0
H417 H 0.89448 0.67627 0.78314 0.0
H418 H 0.82877 0.7089 0.99544 0.0
H419 H 0.7431 0.67215 0.97676 0.0
H420 H 0.72486 0.63874 0.90224 0.0
H421 H 0.79221 0.64203 0.84588 0.0
C422 C 0.87321 0.69385 0.80916 0.0
C423 C 0.88941 0.68274 0.85552 0.0
C424 C 0.85125 0.67726 0.88827 0.0
C425 C 0.86177 0.69633 0.93091 0.0
C426 C 0.82203 0.69457 0.9625 0.0
C427 C 0.77316 0.6736 0.95217 0.0
C428 C 0.76289 0.65476 0.91018 0.0
C429 C 0.80142 0.6568 0.87828 0.0
H430 H 0.37155 0.70355 0.32202 0.0
C431 C 0.33061 0.71038 0.31545 0.0
H432 H 0.25402 0.69198 0.33576 0.0
H433 H 0.30666 0.51536 0.4718 0.0
H434 H 0.27487 0.46363 0.41052 0.0
H435 H 0.26031 0.50307 0.33674 0.0
H436 H 0.27713 0.59433 0.32372 0.0
C437 C 0.29531 0.68885 0.34261 0.0
C438 C 0.31123 0.66351 0.3848 0.0
C439 C 0.30213 0.61017 0.39143 0.0
C440 C 0.31044 0.5874 0.43386 0.0
C441 C 0.30023 0.53428 0.44011 0.0
C442 C 0.28231 0.50431 0.40527 0.0
C443 C 0.27415 0.52653 0.36371 0.0
C444 C 0.28383 0.57888 0.35667 0.0
H445 H 0.2393 0.58628 0.50598 0.0
C446 C 0.26825 0.60231 0.52861 0.0
H447 H 0.34817 0.6082 0.53983 0.0
H448 H 0.33123 0.76794 0.38432 0.0
H449 H 0.36926 0.81702 0.44363 0.0
H450 H 0.393 0.77517 0.51456 0.0
H451 H 0.37777 0.68433 0.52653 0.0
C452 C 0.31785 0.60053 0.51564 0.0
C453 C 0.32792 0.61798 0.46937 0.0
C454 C 0.3431 0.67001 0.46133 0.0
C455 C 0.33241 0.69346 0.41957 0.0
C456 C 0.34118 0.74718 0.41434 0.0
C457 C 0.36262 0.77613 0.44838 0.0
C458 C 0.37573 0.75265 0.48833 0.0
C459 C 0.36615 0.70033 0.49492 0.0
H460 H 0.34797 0.23661 0.85481 0.0
C461 C 0.32093 0.26785 0.85043 0.0
H462 H 0.28658 0.33096 0.88049 0.0
H463 H 0.36787 0.2023 1.05696 0.0
H464 H 0.31483 0.13096 1.03151 0.0
H465 H 0.27129 0.13464 0.95855 0.0
H466 H 0.28164 0.209 0.91055 0.0
C467 C 0.31429 0.30024 0.88368 0.0
C468 C 0.34276 0.29536 0.92648 0.0
C469 C 0.33473 0.25163 0.95455 0.0
C470 C 0.35716 0.25071 0.99765 0.0
C471 C 0.35013 0.20607 1.02461 0.0
C472 C 0.31993 0.16457 1.01031 0.0
C473 C 0.29564 0.16657 0.9692 0.0
C474 C 0.30255 0.20952 0.94164 0.0
H475 H 0.32973 0.35597 1.06377 0.0
C476 C 0.34648 0.3233 1.08135 0.0
H477 H 0.40747 0.27181 1.08077 0.0
H478 H 0.37198 0.38149 0.87907 0.0
H479 H 0.42372 0.45366 0.9061 0.0
H480 H 0.45738 0.45386 0.98277 0.0
H481 H 0.43985 0.38135 1.03282 0.0
C482 C 0.3874 0.30181 1.06248 0.0
C483 C 0.38321 0.29522 1.01391 0.0
C484 C 0.39401 0.33722 0.98511 0.0
C485 C 0.37419 0.33715 0.94116 0.0
C486 C 0.38555 0.37983 0.91302 0.0
C487 C 0.4153 0.42139 0.92807 0.0
C488 C 0.43426 0.42152 0.97126 0.0
C489 C 0.42378 0.37998 0.99964 0.0
H490 H 0.63207 0.33914 0.31176 0.0
C491 C 0.673 0.32986 0.31425 0.0
H492 H 0.7364 0.32004 0.35851 0.0
H493 H 0.65953 0.44825 0.51403 0.0
H494 H 0.68112 0.5246 0.46869 0.0
H495 H 0.69758 0.5169 0.38899 0.0
H496 H 0.69147 0.43335 0.35383 0.0
C497 C 0.69668 0.33219 0.35386 0.0
C498 C 0.66808 0.34181 0.39473 0.0
C499 C 0.67115 0.39067 0.41398 0.0
C500 C 0.66276 0.39503 0.45987 0.0
C501 C 0.66628 0.44378 0.47913 0.0
C502 C 0.67853 0.48736 0.45356 0.0
C503 C 0.68783 0.483 0.40864 0.0
C504 C 0.68445 0.43512 0.38889 0.0
H505 H 0.74552 0.39003 0.51355 0.0
C506 C 0.72933 0.3608 0.53573 0.0
H507 H 0.66433 0.31712 0.55418 0.0
H508 H 0.64251 0.24628 0.36436 0.0
H509 H 0.60786 0.17426 0.40783 0.0
H510 H 0.59094 0.1832 0.48723 0.0
H511 H 0.6091 0.26405 0.52367 0.0
C512 C 0.67935 0.34545 0.53076 0.0
C513 C 0.65428 0.35017 0.48609 0.0
C514 C 0.6386 0.30432 0.46499 0.0
C515 C 0.64702 0.29961 0.4191 0.0
C516 C 0.63632 0.25189 0.39912 0.0
C517 C 0.61634 0.21039 0.42366 0.0
C518 C 0.60692 0.21539 0.4684 0.0
C519 C 0.61804 0.26173 0.48905 0.0
loop_
_geom_bond_atom_site_label_1
_geom_bond_atom_site_label_2
_geom_bond_distance
_geom_bond_site_symmetry_2
_ccdc_geom_bond_type
Ho0 C3 2.811 1_545 S
Ho0 O20 2.322 . S
Ho0 O22 2.378 1_545 S
Ho0 O23 2.524 . S
Ho0 O24 2.381 . S
Ho0 O25 2.669 1_554 S
Ho0 O27 2.346 1_554 S
Ho0 O31 2.305 . S
Ho1 C12 2.811 . S
Ho1 O21 2.346 1_556 S
Ho1 O25 2.305 . S
Ho1 O26 2.322 . S
Ho1 O28 2.378 . S
Ho1 O29 2.524 . S
Ho1 O30 2.381 . S
Ho1 O31 2.669 1_556 S
C2 O20 1.259 . S
C2 O21 1.268 . S
C3 Ho0 2.811 1_565 S
C3 C4 1.488 . S
C3 O22 1.215 . S
C3 O23 1.289 1_565 S
C4 C3 1.488 . S
C4 C5 1.348 . S
C4 C9 1.413 . S
C5 C4 1.348 . S
C5 C6 1.442 . S
C5 H32 0.930 . S
C6 C5 1.442 . S
C6 C7 1.381 . S
C6 H33 0.931 . S
C7 C6 1.381 . S
C7 C8 1.321 . S
C8 C7 1.321 . S
C8 C9 1.403 . S
C8 H34 0.934 . S
C9 C4 1.413 . S
C9 C8 1.403 . S
C9 H35 0.930 . S
C10 O24 1.275 . S
C10 O25 1.256 1_554 S
C11 O26 1.259 . S
C11 O27 1.268 . S
C12 Ho1 2.811 . S
C12 C13 1.488 . S
C12 O28 1.215 . S
C12 O29 1.289 . S
C13 C12 1.488 . S
C13 C14 1.348 . S
C13 C18 1.413 . S
C14 C13 1.348 . S
C14 C15 1.442 . S
C14 H36 0.930 . S
C15 C14 1.442 . S
C15 C16 1.381 . S
C15 H37 0.931 . S
C16 C15 1.381 . S
C16 C17 1.321 . S
C17 C16 1.321 . S
C17 C18 1.403 . S
C17 H38 0.934 . S
C18 C13 1.413 . S
C18 C17 1.403 . S
C18 H39 0.930 . S
C19 O30 1.275 1_554 S
C19 O31 1.256 . S
O20 Ho0 2.322 . S
O20 C2 1.259 . S
O21 Ho1 2.346 1_554 S
O21 C2 1.268 . S
O22 Ho0 2.378 1_565 S
O22 C3 1.215 . S
O23 Ho0 2.524 . S
O23 C3 1.289 1_545 S
O24 Ho0 2.381 . S
O24 C10 1.275 . S
O25 Ho0 2.669 1_556 S
O25 Ho1 2.305 . S
O25 C10 1.256 1_556 S
O26 Ho1 2.322 . S
O26 C11 1.259 . S
O27 Ho0 2.346 1_556 S
O27 C11 1.268 . S
O28 Ho1 2.378 . S
O28 C12 1.215 . S
O29 Ho1 2.524 . S
O29 C12 1.289 . S
O30 Ho1 2.381 . S
O30 C19 1.275 1_556 S
O31 Ho0 2.305 . S
O31 Ho1 2.669 1_554 S
O31 C19 1.256 . S
H32 C5 0.930 . S
H33 C6 0.931 . S
H34 C8 0.934 . S
H35 C9 0.930 . S
H36 C14 0.930 . S
H37 C15 0.931 . S
H38 C17 0.934 . S
H39 C18 0.930 . S
Ho40 C43 2.811 . S
Ho40 O60 2.322 1_455 S
Ho40 O62 2.378 . S
Ho40 O63 2.524 . S
Ho40 O64 2.381 . S
Ho40 O65 2.669 1_455 S
Ho40 O67 2.346 . S
Ho40 O71 2.305 . S
Ho41 C52 2.811 . S
Ho41 O61 2.346 . S
Ho41 O65 2.305 . S
Ho41 O66 2.322 1_655 S
Ho41 O68 2.378 . S
Ho41 O69 2.524 . S
Ho41 O70 2.381 . S
Ho41 O71 2.669 1_655 S
C42 O60 1.259 . S
C42 O61 1.268 . S
C43 Ho40 2.811 . S
C43 C44 1.488 . S
C43 O62 1.215 . S
C43 O63 1.289 . S
C44 C43 1.488 . S
C44 C45 1.348 . S
C44 C49 1.413 . S
C45 C44 1.348 . S
C45 C46 1.442 . S
C45 H72 0.930 . S
C46 C45 1.442 . S
C46 C47 1.381 . S
C46 H73 0.931 . S
C47 C46 1.381 . S
C47 C48 1.321 . S
C48 C47 1.321 . S
C48 C49 1.403 . S
C48 H74 0.934 . S
C49 C44 1.413 . S
C49 C48 1.403 . S
C49 H75 0.930 . S
C50 O64 1.275 . S
C50 O65 1.256 1_455 S
C51 O66 1.259 . S
C51 O67 1.268 . S
C52 Ho41 2.811 . S
C52 C53 1.488 . S
C52 O68 1.215 . S
C52 O69 1.289 . S
C53 C52 1.488 . S
C53 C54 1.348 . S
C53 C58 1.413 . S
C54 C53 1.348 . S
C54 C55 1.442 . S
C54 H76 0.930 . S
C55 C54 1.442 . S
C55 C56 1.381 . S
C55 H77 0.931 . S
C56 C55 1.381 . S
C56 C57 1.321 . S
C57 C56 1.321 . S
C57 C58 1.403 . S
C57 H78 0.934 . S
C58 C53 1.413 . S
C58 C57 1.403 . S
C58 H79 0.930 . S
C59 O70 1.275 . S
C59 O71 1.256 1_655 S
O60 Ho40 2.322 1_655 S
O60 C42 1.259 . S
O61 Ho41 2.346 . S
O61 C42 1.268 . S
O62 Ho40 2.378 . S
O62 C43 1.215 . S
O63 Ho40 2.524 . S
O63 C43 1.289 . S
O64 Ho40 2.381 . S
O64 C50 1.275 . S
O65 Ho40 2.669 1_655 S
O65 Ho41 2.305 . S
O65 C50 1.256 1_655 S
O66 Ho41 2.322 1_455 S
O66 C51 1.259 . S
O67 Ho40 2.346 . S
O67 C51 1.268 . S
O68 Ho41 2.378 . S
O68 C52 1.215 . S
O69 Ho41 2.524 . S
O69 C52 1.289 . S
O70 Ho41 2.381 . S
O70 C59 1.275 . S
O71 Ho40 2.305 . S
O71 Ho41 2.669 1_455 S
O71 C59 1.256 1_455 S
H72 C45 0.930 . S
H73 C46 0.931 . S
H74 C48 0.934 . S
H75 C49 0.930 . S
H76 C54 0.930 . S
H77 C55 0.931 . S
H78 C57 0.934 . S
H79 C58 0.930 . S
Ho80 C83 2.811 . S
Ho80 O100 2.322 1_545 S
Ho80 O102 2.378 . S
Ho80 O103 2.524 . S
Ho80 O104 2.381 . S
Ho80 O105 2.669 1_544 S
Ho80 O107 2.346 1_554 S
Ho80 O111 2.305 . S
Ho81 C92 2.811 . S
Ho81 O101 2.346 1_556 S
Ho81 O105 2.305 . S
Ho81 O106 2.322 1_565 S
Ho81 O108 2.378 . S
Ho81 O109 2.524 . S
Ho81 O110 2.381 . S
Ho81 O111 2.669 1_566 S
C82 O100 1.259 . S
C82 O101 1.268 . S
C83 Ho80 2.811 . S
C83 C84 1.488 . S
C83 O102 1.215 . S
C83 O103 1.289 . S
C84 C83 1.488 . S
C84 C85 1.348 . S
C84 C89 1.413 . S
C85 C84 1.348 . S
C85 C86 1.442 . S
C85 H112 0.930 . S
C86 C85 1.442 . S
C86 C87 1.381 . S
C86 H113 0.931 . S
C87 C86 1.381 . S
C87 C88 1.321 . S
C88 C87 1.321 . S
C88 C89 1.403 . S
C88 H114 0.934 . S
C89 C84 1.413 . S
C89 C88 1.403 . S
C89 H115 0.930 . S
C90 O104 1.275 . S
C90 O105 1.256 1_544 S
C91 O106 1.259 . S
C91 O107 1.268 . S
C92 Ho81 2.811 . S
C92 C93 1.488 . S
C92 O108 1.215 . S
C92 O109 1.289 . S
C93 C92 1.488 . S
C93 C94 1.348 . S
C93 C98 1.413 . S
C94 C93 1.348 . S
C94 C95 1.442 . S
C94 H116 0.930 . S
C95 C94 1.442 . S
C95 C96 1.381 . S
C95 H117 0.931 . S
C96 C95 1.381 . S
C96 C97 1.321 . S
C97 C96 1.321 . S
C97 C98 1.403 . S
C97 H118 0.934 . S
C98 C93 1.413 . S
C98 C97 1.403 . S
C98 H119 0.930 . S
C99 O110 1.275 1_554 S
C99 O111 1.256 1_565 S
O100 Ho80 2.322 1_565 S
O100 C82 1.259 . S
O101 Ho81 2.346 1_554 S
O101 C82 1.268 . S
O102 Ho80 2.378 . S
O102 C83 1.215 . S
O103 Ho80 2.524 . S
O103 C83 1.289 . S
O104 Ho80 2.381 . S
O104 C90 1.275 . S
O105 Ho80 2.669 1_566 S
O105 Ho81 2.305 . S
O105 C90 1.256 1_566 S
O106 Ho81 2.322 1_545 S
O106 C91 1.259 . S
O107 Ho80 2.346 1_556 S
O107 C91 1.268 . S
O108 Ho81 2.378 . S
O108 C92 1.215 . S
O109 Ho81 2.524 . S
O109 C92 1.289 . S
O110 Ho81 2.381 . S
O110 C99 1.275 1_556 S
O111 Ho80 2.305 . S
O111 Ho81 2.669 1_544 S
O111 C99 1.256 1_545 S
H112 C85 0.930 . S
H113 C86 0.931 . S
H114 C88 0.934 . S
H115 C89 0.930 . S
H116 C94 0.930 . S
H117 C95 0.931 . S
H118 C97 0.934 . S
H119 C98 0.930 . S
Ho120 C123 2.811 1_455 S
Ho120 O140 2.322 . S
Ho120 O142 2.378 1_455 S
Ho120 O143 2.524 . S
Ho120 O144 2.381 . S
Ho120 O145 2.669 . S
Ho120 O147 2.346 . S
Ho120 O151 2.305 . S
Ho121 C132 2.811 . S
Ho121 O141 2.346 . S
Ho121 O145 2.305 . S
Ho121 O146 2.322 . S
Ho121 O148 2.378 . S
Ho121 O149 2.524 . S
Ho121 O150 2.381 . S
Ho121 O151 2.669 . S
C122 O140 1.259 . S
C122 O141 1.268 . S
C123 Ho120 2.811 1_655 S
C123 C124 1.488 . S
C123 O142 1.215 . S
C123 O143 1.289 1_655 S
C124 C123 1.488 . S
C124 C125 1.348 . S
C124 C129 1.413 . S
C125 C124 1.348 . S
C125 C126 1.442 . S
C125 H152 0.929 . S
C126 C125 1.442 . S
C126 C127 1.381 . S
C126 H153 0.931 . S
C127 C126 1.381 . S
C127 C128 1.321 . S
C128 C127 1.321 . S
C128 C129 1.403 . S
C128 H154 0.934 . S
C129 C124 1.413 . S
C129 C128 1.403 . S
C129 H155 0.930 . S
C130 O144 1.275 . S
C130 O145 1.256 . S
C131 O146 1.259 . S
C131 O147 1.268 . S
C132 Ho121 2.811 . S
C132 C133 1.488 . S
C132 O148 1.215 . S
C132 O149 1.289 . S
C133 C132 1.488 . S
C133 C134 1.348 . S
C133 C138 1.413 . S
C134 C133 1.348 . S
C134 C135 1.442 . S
C134 H156 0.930 . S
C135 C134 1.442 . S
C135 C136 1.381 . S
C135 H157 0.931 . S
C136 C135 1.381 . S
C136 C137 1.321 . S
C137 C136 1.321 . S
C137 C138 1.403 . S
C137 H158 0.934 . S
C138 C133 1.413 . S
C138 C137 1.403 . S
C138 H159 0.930 . S
C139 O150 1.275 . S
C139 O151 1.256 . S
O140 Ho120 2.322 . S
O140 C122 1.259 . S
O141 Ho121 2.346 . S
O141 C122 1.268 . S
O142 Ho120 2.378 1_655 S
O142 C123 1.215 . S
O143 Ho120 2.524 . S
O143 C123 1.289 1_455 S
O144 Ho120 2.381 . S
O144 C130 1.275 . S
O145 Ho120 2.669 . S
O145 Ho121 2.305 . S
O145 C130 1.256 . S
O146 Ho121 2.322 . S
O146 C131 1.259 . S
O147 Ho120 2.346 . S
O147 C131 1.268 . S
O148 Ho121 2.378 . S
O148 C132 1.215 . S
O149 Ho121 2.524 . S
O149 C132 1.289 . S
O150 Ho121 2.381 . S
O150 C139 1.275 . S
O151 Ho120 2.305 . S
O151 Ho121 2.669 . S
O151 C139 1.256 . S
H152 C125 0.929 . S
H153 C126 0.931 . S
H154 C128 0.934 . S
H155 C129 0.930 . S
H156 C134 0.930 . S
H157 C135 0.931 . S
H158 C137 0.934 . S
H159 C138 0.930 . S
H160 C161 0.951 . S
C161 H160 0.951 . S
C161 C167 1.265 1_565 S
H162 C167 0.949 1_554 S
H163 C171 0.949 . S
H164 C172 0.950 . S
H165 C173 0.951 1_655 S
H166 C174 0.951 . S
C167 C161 1.265 1_545 S
C167 H162 0.949 1_556 S
C167 C168 1.478 . S
C168 C167 1.478 . S
C168 C169 1.397 1_656 S
C168 C185 1.394 1_655 S
C169 C168 1.397 1_454 S
C169 C170 1.438 . S
C169 C174 1.429 1_455 S
C170 C169 1.438 . S
C170 C171 1.428 . S
C170 C183 1.394 1_554 S
C171 H163 0.949 . S
C171 C170 1.428 . S
C171 C172 1.345 . S
C172 H164 0.950 . S
C172 C171 1.345 . S
C172 C173 1.424 . S
C173 H165 0.951 1_455 S
C173 C172 1.424 . S
C173 C174 1.347 1_455 S
C174 H166 0.951 . S
C174 C169 1.429 1_655 S
C174 C173 1.347 1_655 S
H175 C176 0.951 . S
C176 H175 0.951 . S
C176 C182 1.265 . S
H177 C182 0.950 . S
H178 C186 0.949 . S
H179 C187 0.950 . S
H180 C188 0.951 . S
H181 C189 0.951 . S
C182 C176 1.265 . S
C182 H177 0.950 . S
C182 C183 1.478 . S
C183 C170 1.394 1_556 S
C183 C182 1.478 . S
C183 C184 1.397 . S
C184 C183 1.397 . S
C184 C185 1.438 . S
C184 C189 1.429 . S
C185 C168 1.394 1_455 S
C185 C184 1.438 . S
C185 C186 1.428 1_445 S
C186 H178 0.949 . S
C186 C185 1.428 1_665 S
C186 C187 1.345 1_655 S
C187 H179 0.950 . S
C187 C186 1.345 1_455 S
C187 C188 1.424 . S
C188 H180 0.951 . S
C188 C187 1.424 . S
C188 C189 1.347 1_565 S
C189 H181 0.951 . S
C189 C184 1.429 . S
C189 C188 1.347 1_545 S
H190 C191 0.951 . S
C191 H190 0.951 . S
C191 C197 1.265 . S
H192 C197 0.950 . S
H193 C201 0.949 . S
H194 C202 0.950 . S
H195 C203 0.951 1_565 S
H196 C204 0.951 . S
C197 C191 1.265 . S
C197 H192 0.950 . S
C197 C198 1.478 . S
C198 C197 1.478 . S
C198 C199 1.397 1_565 S
C198 C215 1.394 1_565 S
C199 C198 1.397 1_545 S
C199 C200 1.438 . S
C199 C204 1.429 1_545 S
C200 C199 1.438 . S
C200 C201 1.428 1_455 S
C200 C213 1.394 . S
C201 H193 0.949 . S
C201 C200 1.428 1_655 S
C201 C202 1.345 . S
C202 H194 0.950 . S
C202 C201 1.345 . S
C202 C203 1.424 . S
C203 H195 0.951 1_545 S
C203 C202 1.424 . S
C203 C204 1.347 1_645 S
C204 H196 0.951 . S
C204 C199 1.429 1_565 S
C204 C203 1.347 1_465 S
H205 C206 0.951 . S
C206 H205 0.951 . S
C206 C212 1.265 1_655 S
H207 C212 0.950 . S
H208 C216 0.949 . S
H209 C217 0.950 . S
H210 C218 0.951 . S
H211 C219 0.951 . S
C212 C206 1.265 1_455 S
C212 H207 0.950 . S
C212 C213 1.478 . S
C213 C200 1.394 . S
C213 C212 1.478 . S
C213 C214 1.397 . S
C214 C213 1.397 . S
C214 C215 1.438 . S
C214 C219 1.429 . S
C215 C198 1.394 1_545 S
C215 C214 1.438 . S
C215 C216 1.428 1_545 S
C216 H208 0.949 . S
C216 C215 1.428 1_565 S
C216 C217 1.345 1_565 S
C217 H209 0.950 . S
C217 C216 1.345 1_545 S
C217 C218 1.424 . S
C218 H210 0.951 . S
C218 C217 1.424 . S
C218 C219 1.347 . S
C219 H211 0.951 . S
C219 C214 1.429 . S
C219 C218 1.347 . S
H220 C221 0.951 1_556 S
C221 H220 0.951 1_554 S
C221 C227 1.265 1_545 S
H222 C227 0.950 . S
H223 C231 0.949 . S
H224 C232 0.950 . S
H225 C233 0.951 . S
H226 C234 0.951 1_565 S
C227 C221 1.265 1_565 S
C227 H222 0.950 . S
C227 C228 1.478 1_565 S
C228 C227 1.478 1_545 S
C228 C229 1.397 . S
C228 C245 1.394 1_554 S
C229 C228 1.397 . S
C229 C230 1.438 . S
C229 C234 1.429 . S
C230 C229 1.438 . S
C230 C231 1.428 . S
C230 C243 1.394 . S
C231 H223 0.949 . S
C231 C230 1.428 . S
C231 C232 1.345 . S
C232 H224 0.950 . S
C232 C231 1.345 . S
C232 C233 1.424 . S
C233 H225 0.951 . S
C233 C232 1.424 . S
C233 C234 1.347 . S
C234 H226 0.951 1_545 S
C234 C229 1.429 . S
C234 C233 1.347 . S
H235 C236 0.951 . S
C236 H235 0.951 . S
C236 C242 1.267 . S
H237 C242 0.946 1_556 S
H238 C246 0.949 . S
H239 C247 0.950 . S
H240 C248 0.951 . S
H241 C249 0.951 . S
C242 C236 1.267 . S
C242 H237 0.946 1_554 S
C242 C243 1.479 . S
C243 C230 1.394 . S
C243 C242 1.479 . S
C243 C244 1.397 1_554 S
C244 C243 1.397 1_556 S
C244 C245 1.438 . S
C244 C249 1.429 . S
C245 C228 1.394 1_556 S
C245 C244 1.438 . S
C245 C246 1.428 . S
C246 H238 0.949 . S
C246 C245 1.428 . S
C246 C247 1.345 . S
C247 H239 0.950 . S
C247 C246 1.345 . S
C247 C248 1.424 . S
C248 H240 0.951 . S
C248 C247 1.424 . S
C248 C249 1.347 . S
C249 H241 0.951 . S
C249 C244 1.429 . S
C249 C248 1.347 . S
H250 C251 0.951 . S
C251 H250 0.951 . S
C251 C257 1.265 1_455 S
H252 C257 0.950 . S
H253 C261 0.949 . S
H254 C262 0.950 . S
H255 C263 0.951 . S
H256 C264 0.951 . S
C257 C251 1.265 1_655 S
C257 H252 0.950 . S
C257 C258 1.478 1_655 S
C258 C257 1.478 1_455 S
C258 C259 1.397 . S
C258 C275 1.394 . S
C259 C258 1.397 . S
C259 C260 1.438 . S
C259 C264 1.429 1_455 S
C260 C259 1.438 . S
C260 C261 1.428 . S
C260 C273 1.394 . S
C261 H253 0.949 . S
C261 C260 1.428 . S
C261 C262 1.345 . S
C262 H254 0.950 . S
C262 C261 1.345 . S
C262 C263 1.424 1_455 S
C263 H255 0.951 . S
C263 C262 1.424 1_655 S
C263 C264 1.347 . S
C264 H256 0.951 . S
C264 C259 1.429 1_655 S
C264 C263 1.347 . S
H265 C266 0.951 . S
C266 H265 0.951 . S
C266 C272 1.265 . S
H267 C272 0.950 . S
H268 C276 0.949 . S
H269 C277 0.950 . S
H270 C278 0.951 . S
H271 C279 0.951 . S
C272 C266 1.265 . S
C272 H267 0.950 . S
C272 C273 1.478 . S
C273 C260 1.394 . S
C273 C272 1.478 . S
C273 C274 1.397 . S
C274 C273 1.397 . S
C274 C275 1.438 . S
C274 C279 1.429 . S
C275 C258 1.394 . S
C275 C274 1.438 . S
C275 C276 1.428 . S
C276 H268 0.949 . S
C276 C275 1.428 . S
C276 C277 1.345 . S
C277 H269 0.950 . S
C277 C276 1.345 . S
C277 C278 1.424 . S
C278 H270 0.951 . S
C278 C277 1.424 . S
C278 C279 1.347 . S
C279 H271 0.951 . S
C279 C274 1.429 . S
C279 C278 1.347 . S
H280 C281 0.951 . S
C281 H280 0.951 . S
C281 C287 1.265 . S
H282 C287 0.950 . S
H283 C291 0.949 . S
H284 C292 0.950 . S
H285 C293 0.951 . S
H286 C294 0.951 . S
C287 C281 1.265 . S
C287 H282 0.950 . S
C287 C288 1.478 . S
C288 C287 1.478 . S
C288 C289 1.397 . S
C288 C305 1.394 . S
C289 C288 1.397 . S
C289 C290 1.438 . S
C289 C294 1.429 . S
C290 C289 1.438 . S
C290 C291 1.428 . S
C290 C303 1.394 . S
C291 H283 0.949 . S
C291 C290 1.428 . S
C291 C292 1.345 . S
C292 H284 0.950 . S
C292 C291 1.345 . S
C292 C293 1.424 . S
C293 H285 0.951 . S
C293 C292 1.424 . S
C293 C294 1.347 . S
C294 H286 0.951 . S
C294 C289 1.429 . S
C294 C293 1.347 . S
H295 C296 0.951 . S
C296 H295 0.951 . S
C296 C302 1.265 . S
H297 C302 0.950 . S
H298 C306 0.949 . S
H299 C307 0.950 . S
H300 C308 0.951 . S
H301 C309 0.951 . S
C302 C296 1.265 . S
C302 H297 0.950 . S
C302 C303 1.478 . S
C303 C290 1.394 . S
C303 C302 1.478 . S
C303 C304 1.397 . S
C304 C303 1.397 . S
C304 C305 1.438 . S
C304 C309 1.429 . S
C305 C288 1.394 . S
C305 C304 1.438 . S
C305 C306 1.428 . S
C306 H298 0.949 . S
C306 C305 1.428 . S
C306 C307 1.345 . S
C307 H299 0.950 . S
C307 C306 1.345 . S
C307 C308 1.424 . S
C308 H300 0.951 . S
C308 C307 1.424 . S
C308 C309 1.347 . S
C309 H301 0.951 . S
C309 C304 1.429 . S
C309 C308 1.347 . S
H310 C311 0.951 . S
C311 H310 0.951 . S
C311 C317 1.265 . S
H312 C317 0.950 . S
H313 C321 0.949 . S
H314 C322 0.950 . S
H315 C323 0.951 . S
H316 C324 0.951 . S
C317 C311 1.265 . S
C317 H312 0.950 . S
C317 C318 1.478 . S
C318 C317 1.478 . S
C318 C319 1.397 . S
C318 C335 1.394 . S
C319 C318 1.397 . S
C319 C320 1.438 . S
C319 C324 1.429 . S
C320 C319 1.438 . S
C320 C321 1.428 . S
C320 C333 1.394 . S
C321 H313 0.949 . S
C321 C320 1.428 . S
C321 C322 1.345 . S
C322 H314 0.950 . S
C322 C321 1.345 . S
C322 C323 1.424 . S
C323 H315 0.951 . S
C323 C322 1.424 . S
C323 C324 1.347 . S
C324 H316 0.951 . S
C324 C319 1.429 . S
C324 C323 1.347 . S
H325 C326 0.951 . S
C326 H325 0.951 . S
C326 C332 1.265 . S
H327 C332 0.950 . S
H328 C336 0.949 . S
H329 C337 0.950 . S
H330 C338 0.951 1_565 S
H331 C339 0.951 . S
C332 C326 1.265 . S
C332 H327 0.950 . S
C332 C333 1.478 . S
C333 C320 1.394 . S
C333 C332 1.478 . S
C333 C334 1.397 . S
C334 C333 1.397 . S
C334 C335 1.438 . S
C334 C339 1.429 . S
C335 C318 1.394 . S
C335 C334 1.438 . S
C335 C336 1.428 . S
C336 H328 0.949 . S
C336 C335 1.428 . S
C336 C337 1.345 . S
C337 H329 0.950 . S
C337 C336 1.345 . S
C337 C338 1.424 . S
C338 H330 0.951 1_545 S
C338 C337 1.424 . S
C338 C339 1.347 . S
C339 H331 0.951 . S
C339 C334 1.429 . S
C339 C338 1.347 . S
H340 C341 0.951 . S
C341 H340 0.951 . S
C341 C347 1.265 . S
H342 C347 0.950 . S
H343 C351 0.949 . S
H344 C352 0.950 1_545 S
H345 C353 0.951 1_445 S
H346 C354 0.951 . S
C347 C341 1.265 . S
C347 H342 0.950 . S
C347 C348 1.478 . S
C348 C347 1.478 . S
C348 C349 1.397 . S
C348 C365 1.394 . S
C349 C348 1.397 . S
C349 C350 1.438 . S
C349 C354 1.429 . S
C350 C349 1.438 . S
C350 C351 1.428 . S
C350 C363 1.394 . S
C351 H343 0.949 . S
C351 C350 1.428 . S
C351 C352 1.345 . S
C352 H344 0.950 1_565 S
C352 C351 1.345 . S
C352 C353 1.424 . S
C353 H345 0.951 1_665 S
C353 C352 1.424 . S
C353 C354 1.347 . S
C354 H346 0.951 . S
C354 C349 1.429 . S
C354 C353 1.347 . S
H355 C356 0.951 . S
C356 H355 0.951 . S
C356 C362 1.265 . S
H357 C362 0.950 . S
H358 C366 0.949 . S
H359 C367 0.950 . S
H360 C368 0.951 . S
H361 C369 0.951 . S
C362 C356 1.265 . S
C362 H357 0.950 . S
C362 C363 1.478 . S
C363 C350 1.394 . S
C363 C362 1.478 . S
C363 C364 1.397 . S
C364 C363 1.397 . S
C364 C365 1.438 . S
C364 C369 1.429 . S
C365 C348 1.394 . S
C365 C364 1.438 . S
C365 C366 1.428 . S
C366 H358 0.949 . S
C366 C365 1.428 . S
C366 C367 1.345 . S
C367 H359 0.950 . S
C367 C366 1.345 . S
C367 C368 1.424 . S
C368 H360 0.951 . S
C368 C367 1.424 . S
C368 C369 1.347 . S
C369 H361 0.951 . S
C369 C364 1.429 . S
C369 C368 1.347 . S
H370 C371 0.951 . S
C371 H370 0.951 . S
C371 C377 1.265 . S
H372 C377 0.950 . S
H373 C381 0.949 . S
H374 C382 0.950 . S
H375 C383 0.951 . S
H376 C384 0.951 . S
C377 C371 1.265 . S
C377 H372 0.950 . S
C377 C378 1.478 . S
C378 C377 1.478 . S
C378 C379 1.397 . S
C378 C395 1.394 . S
C379 C378 1.397 . S
C379 C380 1.438 . S
C379 C384 1.429 . S
C380 C379 1.438 . S
C380 C381 1.428 . S
C380 C393 1.394 . S
C381 H373 0.949 . S
C381 C380 1.428 . S
C381 C382 1.345 . S
C382 H374 0.950 . S
C382 C381 1.345 . S
C382 C383 1.424 . S
C383 H375 0.951 . S
C383 C382 1.424 . S
C383 C384 1.347 . S
C384 H376 0.951 . S
C384 C379 1.429 . S
C384 C383 1.347 . S
H385 C386 0.951 . S
C386 H385 0.951 . S
C386 C392 1.265 . S
H387 C392 0.950 . S
H388 C396 0.949 . S
H389 C397 0.950 . S
H390 C398 0.951 . S
H391 C399 0.951 . S
C392 C386 1.265 . S
C392 H387 0.950 . S
C392 C393 1.478 . S
C393 C380 1.394 . S
C393 C392 1.478 . S
C393 C394 1.397 . S
C394 C393 1.397 . S
C394 C395 1.438 . S
C394 C399 1.429 1_565 S
C395 C378 1.394 . S
C395 C394 1.438 . S
C395 C396 1.428 . S
C396 H388 0.949 . S
C396 C395 1.428 . S
C396 C397 1.345 1_565 S
C397 H389 0.950 . S
C397 C396 1.345 1_545 S
C397 C398 1.424 . S
C398 H390 0.951 . S
C398 C397 1.424 . S
C398 C399 1.347 . S
C399 H391 0.951 . S
C399 C394 1.429 1_545 S
C399 C398 1.347 . S
H400 C401 0.951 . S
C401 H400 0.951 . S
C401 C407 1.265 . S
H402 C407 0.950 . S
H403 C411 0.949 . S
H404 C412 0.950 . S
H405 C413 0.951 . S
H406 C414 0.951 . S
C407 C401 1.265 . S
C407 H402 0.950 . S
C407 C408 1.478 . S
C408 C407 1.478 . S
C408 C409 1.397 . S
C408 C425 1.394 . S
C409 C408 1.397 . S
C409 C410 1.438 . S
C409 C414 1.429 . S
C410 C409 1.438 . S
C410 C411 1.428 . S
C410 C423 1.394 . S
C411 H403 0.949 . S
C411 C410 1.428 . S
C411 C412 1.345 1_655 S
C412 H404 0.950 . S
C412 C411 1.345 1_455 S
C412 C413 1.424 1_455 S
C413 H405 0.951 . S
C413 C412 1.424 1_655 S
C413 C414 1.347 . S
C414 H406 0.951 . S
C414 C409 1.429 . S
C414 C413 1.347 . S
H415 C416 0.951 . S
C416 H415 0.951 . S
C416 C422 1.265 . S
H417 C422 0.950 . S
H418 C426 0.949 . S
H419 C427 0.950 . S
H420 C428 0.951 . S
H421 C429 0.951 . S
C422 C416 1.265 . S
C422 H417 0.950 . S
C422 C423 1.478 . S
C423 C410 1.394 . S
C423 C422 1.478 . S
C423 C424 1.397 . S
C424 C423 1.397 . S
C424 C425 1.438 . S
C424 C429 1.429 . S
C425 C408 1.394 . S
C425 C424 1.438 . S
C425 C426 1.428 . S
C426 H418 0.949 . S
C426 C425 1.428 . S
C426 C427 1.345 . S
C427 H419 0.950 . S
C427 C426 1.345 . S
C427 C428 1.424 . S
C428 H420 0.951 . S
C428 C427 1.424 . S
C428 C429 1.347 . S
C429 H421 0.951 . S
C429 C424 1.429 . S
C429 C428 1.347 . S
H430 C431 0.951 . S
C431 H430 0.951 . S
C431 C437 1.265 . S
H432 C437 0.950 . S
H433 C441 0.949 . S
H434 C442 0.950 . S
H435 C443 0.951 . S
H436 C444 0.951 . S
C437 C431 1.265 . S
C437 H432 0.950 . S
C437 C438 1.478 . S
C438 C437 1.478 . S
C438 C439 1.397 . S
C438 C455 1.394 . S
C439 C438 1.397 . S
C439 C440 1.438 . S
C439 C444 1.429 . S
C440 C439 1.438 . S
C440 C441 1.428 . S
C440 C453 1.394 . S
C441 H433 0.949 . S
C441 C440 1.428 . S
C441 C442 1.345 . S
C442 H434 0.950 . S
C442 C441 1.345 . S
C442 C443 1.424 . S
C443 H435 0.951 . S
C443 C442 1.424 . S
C443 C444 1.347 . S
C444 H436 0.951 . S
C444 C439 1.429 . S
C444 C443 1.347 . S
H445 C446 0.951 . S
C446 H445 0.951 . S
C446 C452 1.265 . S
H447 C452 0.950 . S
H448 C456 0.949 . S
H449 C457 0.950 . S
H450 C458 0.963 . S
H451 C459 0.951 . S
C452 C446 1.265 . S
C452 H447 0.950 . S
C452 C453 1.478 . S
C453 C440 1.394 . S
C453 C452 1.478 . S
C453 C454 1.397 . S
C454 C453 1.397 . S
C454 C455 1.438 . S
C454 C459 1.429 . S
C455 C438 1.394 . S
C455 C454 1.438 . S
C455 C456 1.428 . S
C456 H448 0.949 . S
C456 C455 1.428 . S
C456 C457 1.345 1_565 S
C457 H449 0.950 . S
C457 C456 1.345 1_545 S
C457 C458 1.424 1_545 S
C458 H450 0.963 . S
C458 C457 1.424 1_565 S
C458 C459 1.347 . S
C459 H451 0.951 . S
C459 C454 1.429 . S
C459 C458 1.347 . S
H460 C461 0.951 . S
C461 H460 0.951 . S
C461 C467 1.265 . S
H462 C467 0.950 . S
H463 C471 0.949 . S
H464 C472 0.950 . S
H465 C473 0.951 . S
H466 C474 0.951 . S
C467 C461 1.265 . S
C467 H462 0.950 . S
C467 C468 1.478 . S
C468 C467 1.478 . S
C468 C469 1.397 . S
C468 C485 1.394 . S
C469 C468 1.397 . S
C469 C470 1.438 . S
C469 C474 1.429 . S
C470 C469 1.438 . S
C470 C471 1.428 . S
C470 C483 1.394 . S
C471 H463 0.949 . S
C471 C470 1.428 . S
C471 C472 1.345 . S
C472 H464 0.950 . S
C472 C471 1.345 . S
C472 C473 1.424 . S
C473 H465 0.951 . S
C473 C472 1.424 . S
C473 C474 1.347 . S
C474 H466 0.951 . S
C474 C469 1.429 . S
C474 C473 1.347 . S
H475 C476 0.951 . S
C476 H475 0.951 . S
C476 C482 1.265 . S
H477 C482 0.950 . S
H478 C486 0.949 . S
H479 C487 0.950 . S
H480 C488 0.951 . S
H481 C489 0.951 . S
C482 C476 1.265 . S
C482 H477 0.950 . S
C482 C483 1.478 . S
C483 C470 1.394 . S
C483 C482 1.478 . S
C483 C484 1.397 . S
C484 C483 1.397 . S
C484 C485 1.438 . S
C484 C489 1.429 . S
C485 C468 1.394 . S
C485 C484 1.438 . S
C485 C486 1.428 . S
C486 H478 0.949 . S
C486 C485 1.428 . S
C486 C487 1.345 . S
C487 H479 0.950 . S
C487 C486 1.345 . S
C487 C488 1.424 . S
C488 H480 0.951 . S
C488 C487 1.424 . S
C488 C489 1.347 . S
C489 H481 0.951 . S
C489 C484 1.429 . S
C489 C488 1.347 . S
H490 C491 0.951 . S
C491 H490 0.951 . S
C491 C497 1.265 . S
H492 C497 0.950 . S
H493 C501 0.949 . S
H494 C502 0.950 . S
H495 C503 0.951 . S
H496 C504 0.951 . S
C497 C491 1.265 . S
C497 H492 0.950 . S
C497 C498 1.478 . S
C498 C497 1.478 . S
C498 C499 1.397 . S
C498 C515 1.394 . S
C499 C498 1.397 . S
C499 C500 1.438 . S
C499 C504 1.429 . S
C500 C499 1.438 . S
C500 C501 1.428 . S
C500 C513 1.394 . S
C501 H493 0.949 . S
C501 C500 1.428 . S
C501 C502 1.345 . S
C502 H494 0.950 . S
C502 C501 1.345 . S
C502 C503 1.424 . S
C503 H495 0.951 . S
C503 C502 1.424 . S
C503 C504 1.347 . S
C504 H496 0.951 . S
C504 C499 1.429 . S
C504 C503 1.347 . S
H505 C506 0.951 . S
C506 H505 0.951 . S
C506 C512 1.265 . S
H507 C512 0.950 . S
H508 C516 0.949 . S
H509 C517 0.950 . S
H510 C518 0.951 . S
H511 C519 0.951 . S
C512 C506 1.265 . S
C512 H507 0.950 . S
C512 C513 1.478 . S
C513 C500 1.394 . S
C513 C512 1.478 . S
C513 C514 1.397 . S
C514 C513 1.397 . S
C514 C515 1.438 . S
C514 C519 1.429 . S
C515 C498 1.394 . S
C515 C514 1.438 . S
C515 C516 1.428 . S
C516 H508 0.949 . S
C516 C515 1.428 . S
C516 C517 1.345 . S
C517 H509 0.950 . S
C517 C516 1.345 . S
C517 C518 1.424 . S
C518 H510 0.951 . S
C518 C517 1.424 . S
C518 C519 1.347 . S
C519 H511 0.951 . S
C519 C514 1.429 . S
C519 C518 1.347 . S
C161 C90 0.665 1_566 S
C176 C10 0.668 1_556 S
C191 C130 0.662 . S
C206 C50 0.670 1_655 S
C221 C99 0.869 1_545 S
C236 C19 0.894 . S
C251 C59 0.880 1_455 S
C266 C139 0.884 . S
C281 C51 4.628 . S
C296 C2 4.516 . S
C311 C42 4.517 . S
C326 C91 4.625 . S
C341 C131 4.628 1_655 S
C356 C82 4.523 . S
C371 C122 4.521 . S
C386 C11 4.626 1_565 S
C401 C96 1.099 . S
C416 C127 1.028 . S
C431 C7 1.113 . S
C446 C136 1.103 . S
C461 C47 1.026 . S
C476 C16 1.002 . S
C491 C87 1.114 . S
C506 C56 1.050 . S
