# Generated by pormake.
# Topology sma, (6)-cn, num edge types: 1
# Building blocks:
#     Node 0, Type 0, BuildingBlock: PAMTUU_clean_sbu_0, # of connection points: 6
#     Node 1, Type 0, BuildingBlock: PAMTUU_clean_sbu_0, # of connection points: 6
#     Node 2, Type 0, BuildingBlock: PAMTUU_clean_sbu_0, # of connection points: 6
#     Edge 3, Type (0, 0), BuildingBlock: KIFKEQ_clean_linker_1, # of connection points: 2
#     Edge 4, Type (0, 0), BuildingBlock: KIFKEQ_clean_linker_1, # of connection points: 2
#     Edge 5, Type (0, 0), BuildingBlock: KIFKEQ_clean_linker_1, # of connection points: 2
#     Edge 6, Type (0, 0), BuildingBlock: KIFKEQ_clean_linker_1, # of connection points: 2
#     Edge 7, Type (0, 0), BuildingBlock: KIFKEQ_clean_linker_1, # of connection points: 2
#     Edge 8, Type (0, 0), BuildingBlock: KIFKEQ_clean_linker_1, # of connection points: 2
#     Edge 9, Type (0, 0), BuildingBlock: KIFKEQ_clean_linker_1, # of connection points: 2
#     Edge 10, Type (0, 0), BuildingBlock: KIFKEQ_clean_linker_1, # of connection points: 2
#     Edge 11, Type (0, 0), BuildingBlock: KIFKEQ_clean_linker_1, # of connection points: 2
# Relax obj value: 0.067
# Max RMSD: 0.176
# Mean RMSD: 0.172
data_MOF--net-sma--node1-PAMTUU_clean_sbu_0--edge1-KIFKEQ_clean_linker_1
_symmetry_space_group_name_H-M    P1
_symmetry_Int_Tables_number       1
_symmetry_cell_setting            triclinic
loop_
_symmetry_equiv_pos_as_xyz
'x, y, z'
_cell_length_a     39.934035
_cell_length_b     40.146901
_cell_length_c     14.386527
_cell_angle_alpha  96.629477
_cell_angle_beta   90.895695
_cell_angle_gamma 120.08438
loop_
_atom_site_label
_atom_site_type_symbol
_atom_site_fract_x
_atom_site_fract_y
_atom_site_fract_z
_atom_type_partial_charge
Tb0 Tb 1.03841 0.55696 0.14112 0.0
Tb1 Tb 0.09169 0.5134 0.15826 0.0
C2 C 0.05895 0.52044 -0.02672 0.0
C3 C 0.95899 0.57744 0.06992 0.0
C4 C 0.88929 0.56931 -0.0083 0.0
C5 C 0.92354 0.58665 0.94556 0.0
C6 C 0.95797 0.59076 -0.01569 0.0
C7 C 0.9245 0.55906 0.11483 0.0
C8 C 0.89001 0.55491 0.07594 0.0
C9 C 0.99678 0.58677 0.116 0.0
O10 O 1.00259 0.50419 0.20243 0.0
O11 O 1.03091 0.46818 0.15164 0.0
O12 O 0.08051 0.53038 0.29676 0.0
O13 O 0.07212 0.58185 0.27372 0.0
O14 O 0.10347 0.47022 0.10079 0.0
O15 O 0.13362 0.50702 0.23153 0.0
O16 O 0.13474 0.57425 0.16253 0.0
O17 O 0.09796 0.60136 0.12226 0.0
O18 O 1.0293 0.51663 0.01783 0.0
O19 O 0.09055 0.5269 0.01902 0.0
C20 C 1.00208 0.47095 0.1871 0.0
O21 O 0.99655 0.57043 0.18959 0.0
O22 O 1.02324 0.58869 0.0613 0.0
C23 C 0.08197 0.56331 0.32676 0.0
C24 C 0.16978 0.48839 0.13168 0.0
C25 C 0.24217 0.5012 0.07262 0.0
C26 C 0.23601 0.50337 0.16867 0.0
C27 C 0.20021 0.49687 0.1977 0.0
C28 C 0.17587 0.4865 0.03564 0.0
C29 C 0.21162 0.49276 0.0065 0.0
C30 C 0.13207 0.4813 0.16455 0.0
C31 C 0.13158 0.60371 0.14188 0.0
H32 H 0.92392 0.59761 0.88 0.0
H33 H 0.9841 0.60539 0.94837 0.0
H34 H 0.92433 0.54893 0.18149 0.0
H35 H 0.86428 0.54181 0.11391 0.0
H36 H 0.25896 0.51044 0.22179 0.0
H37 H 0.19632 0.49853 0.27213 0.0
H38 H 0.15301 0.47998 -0.01722 0.0
H39 H 0.21505 0.49032 0.93195 0.0
Tb40 Tb 0.5299 1.01846 0.50115 0.0
Tb41 Tb 0.62574 0.07325 0.48095 0.0
C42 C 0.56728 0.0311 0.3155 0.0
C43 C 0.4267 0.93632 0.45953 0.0
C44 C 0.36573 0.86405 0.36983 0.0
C45 C 0.39234 0.89155 0.31666 0.0
C46 C 0.42271 0.92731 0.36113 0.0
C47 C 0.4002 0.90892 0.51255 0.0
C48 C 0.37007 0.87311 0.46826 0.0
C49 C 0.45776 0.9741 0.50846 0.0
O50 O 0.55354 0.97984 0.48006 0.0
O51 O 0.61704 1.02191 0.53883 0.0
O52 O 0.61971 0.09276 0.62227 0.0
O53 O 0.55756 0.04292 0.64199 0.0
O54 O 0.66543 0.0937 0.37937 0.0
O55 O 0.68559 0.1054 0.52614 0.0
O56 O 0.60015 0.10914 0.45871 0.0
O57 O 0.54334 0.07822 0.53216 0.0
O58 O 0.539 0.03098 0.3594 0.0
O59 O 0.59408 1.02912 0.36267 0.0
C60 C 0.58678 0.98646 0.51913 0.0
O61 O 0.48427 0.97332 0.5606 0.0
O62 O 0.47276 1.00306 0.46005 0.0
C63 C 0.59103 0.07413 0.67406 0.0
C64 C 0.72385 0.15311 0.42914 0.0
C65 C 0.78263 0.22678 0.39075 0.0
C66 C 0.7896 0.2085 0.46035 0.0
C67 C 0.76059 0.17201 0.47893 0.0
C68 C 0.71624 0.17197 0.36233 0.0
C69 C 0.74531 0.20832 0.34323 0.0
C70 C 0.69531 0.11257 0.44141 0.0
C71 C 0.57018 0.10869 0.49756 0.0
H72 H 0.38995 0.88521 0.2408 0.0
H73 H 0.44296 0.94787 0.31855 0.0
H74 H 0.40269 0.91533 0.58845 0.0
H75 H 0.34978 0.85271 0.51108 0.0
H76 H 0.8177 0.22213 0.49972 0.0
H77 H 0.76719 0.15809 0.53068 0.0
H78 H 0.6882 0.15818 0.32251 0.0
H79 H 0.73889 0.22118 0.28851 0.0
Tb80 Tb 0.55841 0.50887 0.84806 0.0
Tb81 Tb 0.58909 0.60391 0.85282 0.0
C82 C 0.54495 0.54128 0.67116 0.0
C83 C 0.5479 0.40953 0.799 0.0
C84 C 0.55741 0.34969 0.70255 0.0
C85 C 0.53876 0.36579 0.65625 0.0
C86 C 0.53415 0.39554 0.70392 0.0
C87 C 0.56677 0.39369 0.84482 0.0
C88 C 0.57158 0.36423 0.79721 0.0
C89 C 0.54211 0.43957 0.85334 0.0
O90 O 0.61191 0.53639 0.78054 0.0
O91 O 0.63768 0.59439 0.87521 0.0
O92 O 0.57561 0.59149 -0.00718 0.0
O93 O 0.58746 0.54138 -0.0166 0.0
O94 O 0.62677 0.65503 0.79803 0.0
O95 O 0.593 0.6562 0.91295 0.0
O96 O 0.52575 0.57416 0.84222 0.0
O97 O 0.51211 0.51761 0.90098 0.0
O98 O 0.53719 0.51106 0.71245 0.0
O99 O 0.56765 0.57768 0.70939 0.0
C100 C 0.64221 0.56772 0.82463 0.0
O101 O 0.57326 0.47006 0.89572 0.0
O102 O 0.51848 0.44886 0.81598 0.0
C103 C 0.57894 0.56536 0.03152 0.0
C104 C 0.60859 0.70368 0.81115 0.0
C105 C 0.60118 0.76246 0.73794 0.0
C106 C 0.6013 0.76065 0.83504 0.0
C107 C 0.60511 0.73174 0.87109 0.0
C108 C 0.60731 0.70458 0.71374 0.0
C109 C 0.60361 0.73366 0.67755 0.0
C110 C 0.61656 0.67606 0.85296 0.0
C111 C 0.50196 0.54256 0.87872 0.0
H112 H 0.52777 0.35541 0.58316 0.0
H113 H 0.51958 0.40728 0.66658 0.0
H114 H 0.5774 0.40381 0.91823 0.0
H115 H 0.5855 0.3521 0.83547 0.0
H116 H 0.59872 0.78181 0.88358 0.0
H117 H 0.6061 0.73177 0.94643 0.0
H118 H 0.61004 0.68341 0.66561 0.0
H119 H 0.60391 0.73427 0.60251 0.0
H120 H 0.28158 0.53856 0.92714 0.0
H121 H 0.28897 0.47753 0.14793 0.0
H122 H 0.34295 0.54728 0.87555 0.0
H123 H 0.35127 0.48825 0.09994 0.0
H124 H 0.44207 0.47787 0.93626 0.0
H125 H 0.37928 0.46761 -0.02099 0.0
H126 H 0.41127 0.5824 0.91871 0.0
H127 H 0.47375 0.5922 0.87298 0.0
C128 C 0.29622 0.52697 -0.03526 0.0
C129 C 0.28013 0.50727 0.04176 0.0
C130 C 0.33175 0.53244 0.93586 0.0
C131 C 0.35222 0.51848 -0.01659 0.0
C132 C 0.33617 0.49893 0.06062 0.0
C133 C 0.3006 0.49328 0.08914 0.0
C134 C 0.43571 0.5009 0.93158 0.0
C135 C 0.46307 0.53588 0.90111 0.0
C136 C 0.3997 0.49511 -0.04316 0.0
C137 C 0.39014 0.52426 0.95307 0.0
C138 C 0.41735 0.55909 0.92146 0.0
C139 C 0.45332 0.56479 0.89556 0.0
H140 H 0.8592 0.24851 0.37943 0.0
H141 H 0.77867 0.28896 0.34067 0.0
H142 H 0.91108 0.30775 0.33201 0.0
H143 H 0.83026 0.34738 0.28776 0.0
H144 H 0.94216 0.46544 0.28798 0.0
H145 H 0.88924 0.40739 0.33914 0.0
H146 H 0.93233 0.33777 0.19485 0.0
H147 H 0.98574 0.39579 0.14626 0.0
C148 C 0.85252 0.27011 0.36137 0.0
C149 C 0.8146 0.26382 0.36429 0.0
C150 C 0.88225 0.30391 0.33256 0.0
C151 C 0.87491 0.33233 0.30508 0.0
C152 C 0.83712 0.32632 0.30902 0.0
C153 C 0.80737 0.29254 0.33838 0.0
C154 C 0.94025 0.43772 0.26681 0.0
C155 C 0.96839 0.43539 0.21336 0.0
C156 C 0.90976 0.40435 0.29589 0.0
C157 C 0.90657 0.36782 0.27184 0.0
C158 C 0.93426 0.36547 0.21654 0.0
C159 C 0.96482 0.3988 0.188 0.0
H160 H 0.65131 0.98716 0.59005 0.0
H161 H 0.52946 0.9098 0.50191 0.0
H162 H 0.65565 0.93289 0.6364 0.0
H163 H 0.53362 0.85576 0.55046 0.0
H164 H 0.56139 0.75968 0.5765 0.0
H165 H 0.55954 0.81328 0.51666 0.0
H166 H 0.63483 0.89222 0.7574 0.0
H167 H 0.63812 0.83922 0.81468 0.0
C168 C 0.62544 0.95859 0.58032 0.0
C169 C 0.59002 0.95298 0.54234 0.0
C170 C 0.62787 0.92745 0.60754 0.0
C171 C 0.59492 0.88988 0.59787 0.0
C172 C 0.5597 0.88413 0.55802 0.0
C173 C 0.55729 0.91526 0.53055 0.0
C174 C 0.5779 0.78856 0.61608 0.0
C175 C 0.59976 0.79499 0.70073 0.0
C176 C 0.57651 0.81926 0.58226 0.0
C177 C 0.597 0.85718 0.63213 0.0
C178 C 0.61905 0.86358 0.71637 0.0
C179 C 0.62047 0.83297 0.75004 0.0
H180 H 0.71169 0.62823 0.90674 0.0
H181 H 0.65834 0.51045 0.76304 0.0
H182 H 0.77175 0.62808 0.93799 0.0
H183 H 0.71867 0.51054 0.79342 0.0
H184 H 0.8136 0.5098 -0.01688 0.0
H185 H 0.75507 0.51 0.93232 0.0
H186 H 0.82577 0.62635 0.86466 0.0
H187 H 0.88415 0.62662 0.91802 0.0
C188 C 0.71293 0.60251 0.88054 0.0
C189 C 0.6801 0.56933 0.8327 0.0
C190 C 0.74746 0.60247 0.89816 0.0
C191 C 0.74997 0.5692 0.86873 0.0
C192 C 0.71754 0.53645 0.81816 0.0
C193 C 0.68305 0.53655 0.80004 0.0
C194 C 0.81664 0.53542 -0.04255 0.0
C195 C 0.8536 0.56821 -0.04509 0.0
C196 C 0.78311 0.53539 0.92736 0.0
C197 C 0.78572 0.56822 0.89448 0.0
C198 C 0.8227 0.60072 0.89037 0.0
C199 C 0.8562 0.6007 0.92006 0.0
H200 H 0.34139 0.79241 0.41993 0.0
H201 H 0.31706 0.84974 0.21506 0.0
H202 H 0.28637 0.73023 0.34974 0.0
H203 H 0.26223 0.7871 0.14313 0.0
H204 H 0.13858 0.6754 0.14267 0.0
H205 H 0.19713 0.7388 0.18615 0.0
H206 H 0.26478 0.68283 0.20652 0.0
H207 H 0.20648 0.61957 0.1643 0.0
C208 C 0.32434 0.79167 0.35958 0.0
C209 C 0.33344 0.82599 0.32333 0.0
C210 C 0.29306 0.75597 0.31864 0.0
C211 C 0.27 0.75369 0.24055 0.0
C212 C 0.27934 0.78795 0.20348 0.0
C213 C 0.31089 0.82373 0.24416 0.0
C214 C 0.16604 0.67661 0.15457 0.0
C215 C 0.16765 0.64229 0.15119 0.0
C216 C 0.19964 0.713 0.17937 0.0
C217 C 0.23548 0.71578 0.20124 0.0
C218 C 0.23745 0.6816 0.19206 0.0
C219 C 0.20398 0.64532 0.16733 0.0
H220 H 0.62012 0.33933 0.7101 0.0
H221 H 0.50214 0.28526 0.58683 0.0
H222 H 0.62308 0.28196 0.64636 0.0
H223 H 0.50547 0.22828 0.52075 0.0
H224 H 0.50923 0.11654 0.55398 0.0
H225 H 0.50704 0.17603 0.58901 0.0
H226 H 0.62302 0.24208 0.50266 0.0
H227 H 0.62552 0.1823 0.46843 0.0
C228 C 0.59495 0.31534 0.66853 0.0
C229 C 0.56076 0.31673 0.65437 0.0
C230 C 0.59679 0.28262 0.63109 0.0
C231 C 0.56443 0.25041 0.57886 0.0
C232 C 0.53076 0.25242 0.56158 0.0
C233 C 0.52897 0.28524 0.59869 0.0
C234 C 0.5342 0.14362 0.54145 0.0
C235 C 0.56767 0.14458 0.50896 0.0
C236 C 0.5328 0.17778 0.56096 0.0
C237 C 0.56488 0.21387 0.54888 0.0
C238 C 0.59796 0.21477 0.51362 0.0
C239 C 0.59928 0.18047 0.49348 0.0
H240 H 0.09554 0.50329 0.83712 0.0
H241 H 1.03166 0.56239 0.9017 0.0
H242 H 0.10902 0.52802 0.68769 0.0
H243 H 1.04846 0.59075 0.75766 0.0
H244 H 1.03247 0.57329 0.43268 0.0
H245 H 1.03083 0.57164 0.60015 0.0
H246 H 0.14424 0.58185 0.61237 0.0
H247 H 0.14359 0.57968 0.44212 0.0
C248 C 0.08454 0.52171 0.81889 0.0
C249 C 0.06221 0.53062 0.87923 0.0
C250 C 0.09307 0.53678 0.73481 0.0
C251 C 0.08051 0.56212 0.71162 0.0
C252 C 0.05828 0.5711 0.77294 0.0
C253 C 1.04851 0.55476 0.85524 0.0
C254 C 0.05745 0.5764 0.47224 0.0
C255 C 0.08768 0.57564 0.42652 0.0
C256 C 0.05675 0.57571 0.56826 0.0
C257 C 0.08686 0.5752 0.61893 0.0
C258 C 0.11989 0.58049 0.57419 0.0
C259 C 0.11983 0.57968 0.47755 0.0
H260 H 0.61377 1.02483 0.1879 0.0
H261 H 0.54427 0.07807 0.25168 0.0
H262 H 0.62973 0.0537 0.04326 0.0
H263 H 0.5615 0.10826 0.10947 0.0
H264 H 0.65734 0.10625 0.79053 0.0
H265 H 0.66021 0.11117 -0.03794 0.0
H266 H 0.53842 0.07618 0.95143 0.0
H267 H 0.53601 0.07212 0.78232 0.0
C268 C 0.60223 0.04296 0.17107 0.0
C269 C 0.57673 0.04811 0.22848 0.0
C270 C 0.61201 0.06019 0.0896 0.0
C271 C 0.59679 0.08321 0.06532 0.0
C272 C 0.5732 0.09024 0.12609 0.0
C273 C 0.56292 0.07251 0.20657 0.0
C274 C 0.63175 0.10114 0.8258 0.0
C275 C 0.59617 0.0877 0.7744 0.0
C276 C 0.63332 0.10378 0.92344 0.0
C277 C 0.59935 0.09321 -0.03046 0.0
C278 C 0.56512 0.08457 0.91813 0.0
C279 C 0.56355 0.08175 0.82113 0.0
H280 H 0.53696 0.59226 0.57893 0.0
H281 H 0.51503 0.47431 0.54695 0.0
H282 H 0.52714 0.58751 0.4109 0.0
H283 H 0.50411 0.46922 0.37742 0.0
H284 H 0.59261 0.52511 0.15022 0.0
H285 H 0.56279 0.5061 0.29529 0.0
H286 H 0.4953 0.56106 0.25292 0.0
H287 H 0.52609 0.58111 0.10888 0.0
C288 C 0.52894 0.56492 0.53594 0.0
C289 C 0.5288 0.53438 0.57464 0.0
C290 C 0.52252 0.5619 0.43972 0.0
C291 C 0.51606 0.52835 0.38148 0.0
C292 C 0.50996 0.49567 0.42142 0.0
C293 C 0.51644 0.4987 0.51805 0.0
C294 C 0.57146 0.53312 0.1722 0.0
C295 C 0.56264 0.55568 0.12087 0.0
C296 C 0.55363 0.52144 0.25377 0.0
C297 C 0.52648 0.53188 0.28455 0.0
C298 C 0.51624 0.55281 0.23051 0.0
C299 C 0.53443 0.5649 0.14946 0.0
loop_
_geom_bond_atom_site_label_1
_geom_bond_atom_site_label_2
_geom_bond_distance
_geom_bond_site_symmetry_2
_ccdc_geom_bond_type
Tb0 C9 2.764 . S
Tb0 O10 2.325 . S
Tb0 O13 2.303 1_655 S
Tb0 O17 2.322 1_655 S
Tb0 O18 2.349 1_554 S
Tb0 O21 2.415 . S
Tb0 O22 2.399 . S
Tb1 O11 2.322 1_455 S
Tb1 O12 2.349 . S
Tb1 O14 2.415 . S
Tb1 O15 2.399 . S
Tb1 O16 2.325 . S
Tb1 O19 2.303 . S
Tb1 C30 2.764 . S
C2 O18 1.261 1_455 S
C2 O19 1.257 1_556 S
C3 C6 1.358 . S
C3 C7 1.332 . S
C3 C9 1.504 . S
C4 C5 1.373 . S
C4 C8 1.308 . S
C5 C4 1.373 . S
C5 C6 1.429 . S
C5 H32 0.932 . S
C6 C3 1.358 . S
C6 C5 1.429 . S
C6 H33 0.930 . S
C7 C3 1.332 . S
C7 C8 1.394 . S
C7 H34 0.932 . S
C8 C4 1.308 . S
C8 C7 1.394 . S
C8 H35 0.929 . S
C9 Tb0 2.764 . S
C9 C3 1.504 . S
C9 O21 1.239 . S
C9 O22 1.263 . S
O10 Tb0 2.325 . S
O10 C20 1.236 . S
O11 Tb1 2.322 1_655 S
O11 C20 1.257 . S
O12 Tb1 2.349 . S
O12 C23 1.261 . S
O13 Tb0 2.303 1_455 S
O13 C23 1.257 . S
O14 Tb1 2.415 . S
O14 C30 1.239 . S
O15 Tb1 2.399 . S
O15 C30 1.263 . S
O16 Tb1 2.325 . S
O16 C31 1.236 . S
O17 Tb0 2.322 1_455 S
O17 C31 1.257 . S
O18 Tb0 2.349 1_556 S
O18 C2 1.261 1_655 S
O19 Tb1 2.303 . S
O19 C2 1.257 1_554 S
C20 O10 1.236 . S
C20 O11 1.257 . S
O21 Tb0 2.415 . S
O21 C9 1.239 . S
O22 Tb0 2.399 . S
O22 C9 1.263 . S
C23 O12 1.261 . S
C23 O13 1.257 . S
C24 C27 1.358 . S
C24 C28 1.332 . S
C24 C30 1.504 . S
C25 C26 1.373 . S
C25 C29 1.308 . S
C26 C25 1.373 . S
C26 C27 1.429 . S
C26 H36 0.932 . S
C27 C24 1.358 . S
C27 C26 1.429 . S
C27 H37 0.930 . S
C28 C24 1.332 . S
C28 C29 1.394 . S
C28 H38 0.932 . S
C29 C25 1.308 . S
C29 C28 1.394 . S
C29 H39 0.929 1_554 S
C30 Tb1 2.764 . S
C30 O14 1.239 . S
C30 O15 1.263 . S
C30 C24 1.504 . S
C31 O16 1.236 . S
C31 O17 1.257 . S
H32 C5 0.932 . S
H33 C6 0.930 . S
H34 C7 0.932 . S
H35 C8 0.929 . S
H36 C26 0.932 . S
H37 C27 0.930 . S
H38 C28 0.932 . S
H39 C29 0.929 1_556 S
Tb40 C49 2.764 . S
Tb40 O50 2.325 . S
Tb40 O53 2.303 1_565 S
Tb40 O57 2.322 1_565 S
Tb40 O58 2.349 . S
Tb40 O61 2.415 . S
Tb40 O62 2.399 . S
Tb41 O51 2.322 1_545 S
Tb41 O52 2.349 . S
Tb41 O54 2.415 . S
Tb41 O55 2.399 . S
Tb41 O56 2.325 . S
Tb41 O59 2.303 . S
Tb41 C70 2.764 . S
C42 O58 1.261 1_545 S
C42 O59 1.257 . S
C43 C46 1.358 . S
C43 C47 1.332 . S
C43 C49 1.504 . S
C44 C45 1.373 . S
C44 C48 1.308 . S
C45 C44 1.373 . S
C45 C46 1.429 . S
C45 H72 0.932 . S
C46 C43 1.358 . S
C46 C45 1.429 . S
C46 H73 0.930 . S
C47 C43 1.332 . S
C47 C48 1.394 . S
C47 H74 0.932 . S
C48 C44 1.308 . S
C48 C47 1.394 . S
C48 H75 0.929 . S
C49 Tb40 2.764 . S
C49 C43 1.504 . S
C49 O61 1.239 . S
C49 O62 1.263 . S
O50 Tb40 2.325 . S
O50 C60 1.236 . S
O51 Tb41 2.322 1_565 S
O51 C60 1.257 . S
O52 Tb41 2.349 . S
O52 C63 1.261 . S
O53 Tb40 2.303 1_545 S
O53 C63 1.257 . S
O54 Tb41 2.415 . S
O54 C70 1.239 . S
O55 Tb41 2.399 . S
O55 C70 1.263 . S
O56 Tb41 2.325 . S
O56 C71 1.236 . S
O57 Tb40 2.322 1_545 S
O57 C71 1.257 . S
O58 Tb40 2.349 . S
O58 C42 1.261 1_565 S
O59 Tb41 2.303 . S
O59 C42 1.257 . S
C60 O50 1.236 . S
C60 O51 1.257 . S
O61 Tb40 2.415 . S
O61 C49 1.239 . S
O62 Tb40 2.399 . S
O62 C49 1.263 . S
C63 O52 1.261 . S
C63 O53 1.257 . S
C64 C67 1.358 . S
C64 C68 1.332 . S
C64 C70 1.504 . S
C65 C66 1.373 . S
C65 C69 1.308 . S
C66 C65 1.373 . S
C66 C67 1.429 . S
C66 H76 0.932 . S
C67 C64 1.358 . S
C67 C66 1.429 . S
C67 H77 0.930 . S
C68 C64 1.332 . S
C68 C69 1.394 . S
C68 H78 0.932 . S
C69 C65 1.308 . S
C69 C68 1.394 . S
C69 H79 0.929 . S
C70 Tb41 2.764 . S
C70 O54 1.239 . S
C70 O55 1.263 . S
C70 C64 1.504 . S
C71 O56 1.236 . S
C71 O57 1.257 . S
H72 C45 0.932 . S
H73 C46 0.930 . S
H74 C47 0.932 . S
H75 C48 0.929 . S
H76 C66 0.932 . S
H77 C67 0.930 . S
H78 C68 0.932 . S
H79 C69 0.929 . S
Tb80 C89 2.764 . S
Tb80 O90 2.325 . S
Tb80 O93 2.303 . S
Tb80 O97 2.322 . S
Tb80 O98 2.349 . S
Tb80 O101 2.415 . S
Tb80 O102 2.399 . S
Tb81 O91 2.322 . S
Tb81 O92 2.349 1_556 S
Tb81 O94 2.415 . S
Tb81 O95 2.399 . S
Tb81 O96 2.325 . S
Tb81 O99 2.303 . S
Tb81 C110 2.764 . S
C82 O98 1.261 . S
C82 O99 1.257 . S
C83 C86 1.358 . S
C83 C87 1.332 . S
C83 C89 1.504 . S
C84 C85 1.373 . S
C84 C88 1.308 . S
C85 C84 1.373 . S
C85 C86 1.429 . S
C85 H112 0.932 . S
C86 C83 1.358 . S
C86 C85 1.429 . S
C86 H113 0.930 . S
C87 C83 1.332 . S
C87 C88 1.394 . S
C87 H114 0.932 . S
C88 C84 1.308 . S
C88 C87 1.394 . S
C88 H115 0.929 . S
C89 Tb80 2.764 . S
C89 C83 1.504 . S
C89 O101 1.239 . S
C89 O102 1.263 . S
O90 Tb80 2.325 . S
O90 C100 1.236 . S
O91 Tb81 2.322 . S
O91 C100 1.257 . S
O92 Tb81 2.349 1_554 S
O92 C103 1.261 . S
O93 Tb80 2.303 . S
O93 C103 1.257 1_556 S
O94 Tb81 2.415 . S
O94 C110 1.239 . S
O95 Tb81 2.399 . S
O95 C110 1.263 . S
O96 Tb81 2.325 . S
O96 C111 1.236 . S
O97 Tb80 2.322 . S
O97 C111 1.257 . S
O98 Tb80 2.349 . S
O98 C82 1.261 . S
O99 Tb81 2.303 . S
O99 C82 1.257 . S
C100 O90 1.236 . S
C100 O91 1.257 . S
O101 Tb80 2.415 . S
O101 C89 1.239 . S
O102 Tb80 2.399 . S
O102 C89 1.263 . S
C103 O92 1.261 . S
C103 O93 1.257 1_554 S
C104 C107 1.358 . S
C104 C108 1.332 . S
C104 C110 1.504 . S
C105 C106 1.373 . S
C105 C109 1.308 . S
C106 C105 1.373 . S
C106 C107 1.429 . S
C106 H116 0.932 . S
C107 C104 1.358 . S
C107 C106 1.429 . S
C107 H117 0.930 . S
C108 C104 1.332 . S
C108 C109 1.394 . S
C108 H118 0.932 . S
C109 C105 1.308 . S
C109 C108 1.394 . S
C109 H119 0.929 . S
C110 Tb81 2.764 . S
C110 O94 1.239 . S
C110 O95 1.263 . S
C110 C104 1.504 . S
C111 O96 1.236 . S
C111 O97 1.257 . S
H112 C85 0.932 . S
H113 C86 0.930 . S
H114 C87 0.932 . S
H115 C88 0.929 . S
H116 C106 0.932 . S
H117 C107 0.930 . S
H118 C108 0.932 . S
H119 C109 0.929 . S
H120 C128 0.950 . S
H121 C133 0.950 . S
H122 C130 0.950 1_556 S
H123 C132 0.950 . S
H124 C134 0.950 . S
H125 C136 0.950 . S
H126 C138 0.950 . S
H127 C139 0.950 . S
C128 H120 0.950 . S
C128 C129 1.386 . S
C128 C130 1.391 . S
C129 C128 1.386 . S
C129 C133 1.393 . S
C130 H122 0.950 1_554 S
C130 C128 1.391 . S
C130 C131 1.400 1_554 S
C131 C130 1.400 1_556 S
C131 C132 1.398 1_556 S
C131 C137 1.491 . S
C132 H123 0.950 . S
C132 C131 1.398 1_554 S
C132 C133 1.391 . S
C133 H121 0.950 . S
C133 C129 1.393 . S
C133 C132 1.391 . S
C134 H124 0.950 . S
C134 C135 1.386 . S
C134 C136 1.391 . S
C135 C134 1.386 . S
C135 C139 1.393 . S
C136 H125 0.950 . S
C136 C134 1.391 . S
C136 C137 1.400 . S
C137 C131 1.491 . S
C137 C136 1.400 . S
C137 C138 1.398 . S
C138 H126 0.950 . S
C138 C137 1.398 . S
C138 C139 1.391 . S
C139 H127 0.950 . S
C139 C135 1.393 . S
C139 C138 1.391 . S
H140 C148 0.950 . S
H141 C153 0.950 . S
H142 C150 0.950 . S
H143 C152 0.950 . S
H144 C154 0.950 . S
H145 C156 0.950 . S
H146 C158 0.950 . S
H147 C159 0.950 . S
C148 H140 0.950 . S
C148 C149 1.386 . S
C148 C150 1.391 . S
C149 C148 1.386 . S
C149 C153 1.393 . S
C150 H142 0.950 . S
C150 C148 1.391 . S
C150 C151 1.400 . S
C151 C150 1.400 . S
C151 C152 1.398 . S
C151 C157 1.491 . S
C152 H143 0.950 . S
C152 C151 1.398 . S
C152 C153 1.391 . S
C153 H141 0.950 . S
C153 C149 1.393 . S
C153 C152 1.391 . S
C154 H144 0.950 . S
C154 C155 1.386 . S
C154 C156 1.391 . S
C155 C154 1.386 . S
C155 C159 1.393 . S
C156 H145 0.950 . S
C156 C154 1.391 . S
C156 C157 1.400 . S
C157 C151 1.491 . S
C157 C156 1.400 . S
C157 C158 1.398 . S
C158 H146 0.950 . S
C158 C157 1.398 . S
C158 C159 1.391 . S
C159 H147 0.950 . S
C159 C155 1.393 . S
C159 C158 1.391 . S
H160 C168 0.950 . S
H161 C173 0.950 . S
H162 C170 0.950 . S
H163 C172 0.950 . S
H164 C174 0.950 . S
H165 C176 0.950 . S
H166 C178 0.950 . S
H167 C179 0.950 . S
C168 H160 0.950 . S
C168 C169 1.386 . S
C168 C170 1.391 . S
C169 C168 1.386 . S
C169 C173 1.393 . S
C170 H162 0.950 . S
C170 C168 1.391 . S
C170 C171 1.400 . S
C171 C170 1.400 . S
C171 C172 1.398 . S
C171 C177 1.491 . S
C172 H163 0.950 . S
C172 C171 1.398 . S
C172 C173 1.391 . S
C173 H161 0.950 . S
C173 C169 1.393 . S
C173 C172 1.391 . S
C174 H164 0.950 . S
C174 C175 1.386 . S
C174 C176 1.391 . S
C175 C174 1.386 . S
C175 C179 1.393 . S
C176 H165 0.950 . S
C176 C174 1.391 . S
C176 C177 1.400 . S
C177 C171 1.491 . S
C177 C176 1.400 . S
C177 C178 1.398 . S
C178 H166 0.950 . S
C178 C177 1.398 . S
C178 C179 1.391 . S
C179 H167 0.950 . S
C179 C175 1.393 . S
C179 C178 1.391 . S
H180 C188 0.950 . S
H181 C193 0.950 1_554 S
H182 C190 0.950 . S
H183 C192 0.950 . S
H184 C194 0.950 . S
H185 C196 0.950 . S
H186 C198 0.950 1_556 S
H187 C199 0.950 . S
C188 H180 0.950 . S
C188 C189 1.386 . S
C188 C190 1.391 . S
C189 C188 1.386 . S
C189 C193 1.393 . S
C190 H182 0.950 . S
C190 C188 1.391 . S
C190 C191 1.400 1_556 S
C191 C190 1.400 1_554 S
C191 C192 1.398 . S
C191 C197 1.491 . S
C192 H183 0.950 . S
C192 C191 1.398 . S
C192 C193 1.391 1_554 S
C193 H181 0.950 1_556 S
C193 C189 1.393 . S
C193 C192 1.391 1_556 S
C194 H184 0.950 . S
C194 C195 1.386 . S
C194 C196 1.391 . S
C195 C194 1.386 . S
C195 C199 1.393 . S
C196 H185 0.950 . S
C196 C194 1.391 . S
C196 C197 1.400 . S
C197 C191 1.491 . S
C197 C196 1.400 . S
C197 C198 1.398 . S
C198 H186 0.950 1_554 S
C198 C197 1.398 . S
C198 C199 1.391 . S
C199 H187 0.950 . S
C199 C195 1.393 . S
C199 C198 1.391 . S
H200 C208 0.950 . S
H201 C213 0.950 . S
H202 C210 0.950 . S
H203 C212 0.950 . S
H204 C214 0.950 . S
H205 C216 0.950 . S
H206 C218 0.950 . S
H207 C219 0.950 . S
C208 H200 0.950 . S
C208 C209 1.386 . S
C208 C210 1.391 . S
C209 C208 1.386 . S
C209 C213 1.393 . S
C210 H202 0.950 . S
C210 C208 1.391 . S
C210 C211 1.400 . S
C211 C210 1.400 . S
C211 C212 1.398 . S
C211 C217 1.491 . S
C212 H203 0.950 . S
C212 C211 1.398 . S
C212 C213 1.391 . S
C213 H201 0.950 . S
C213 C209 1.393 . S
C213 C212 1.391 . S
C214 H204 0.950 . S
C214 C215 1.386 . S
C214 C216 1.391 . S
C215 C214 1.386 . S
C215 C219 1.393 . S
C216 H205 0.950 . S
C216 C214 1.391 . S
C216 C217 1.400 . S
C217 C211 1.491 . S
C217 C216 1.400 . S
C217 C218 1.398 . S
C218 H206 0.950 . S
C218 C217 1.398 . S
C218 C219 1.391 . S
C219 H207 0.950 . S
C219 C215 1.393 . S
C219 C218 1.391 . S
H220 C228 0.950 . S
H221 C233 0.950 . S
H222 C230 0.950 . S
H223 C232 0.950 . S
H224 C234 0.950 . S
H225 C236 0.950 . S
H226 C238 0.950 . S
H227 C239 0.950 . S
C228 H220 0.950 . S
C228 C229 1.386 . S
C228 C230 1.391 . S
C229 C228 1.386 . S
C229 C233 1.393 . S
C230 H222 0.950 . S
C230 C228 1.391 . S
C230 C231 1.400 . S
C231 C230 1.400 . S
C231 C232 1.398 . S
C231 C237 1.491 . S
C232 H223 0.950 . S
C232 C231 1.398 . S
C232 C233 1.391 . S
C233 H221 0.950 . S
C233 C229 1.393 . S
C233 C232 1.391 . S
C234 H224 0.950 . S
C234 C235 1.386 . S
C234 C236 1.391 . S
C235 C234 1.386 . S
C235 C239 1.393 . S
C236 H225 0.950 . S
C236 C234 1.391 . S
C236 C237 1.400 . S
C237 C231 1.491 . S
C237 C236 1.400 . S
C237 C238 1.398 . S
C238 H226 0.950 . S
C238 C237 1.398 . S
C238 C239 1.391 . S
C239 H227 0.950 . S
C239 C235 1.393 . S
C239 C238 1.391 . S
H240 C248 0.950 . S
H241 C253 0.950 1_655 S
H242 C250 0.950 . S
H243 C252 0.960 . S
H244 C254 0.950 . S
H245 C256 0.950 . S
H246 C258 0.950 . S
H247 C259 0.950 . S
C248 H240 0.950 . S
C248 C249 1.386 . S
C248 C250 1.391 . S
C249 C248 1.386 . S
C249 C253 1.393 . S
C250 H242 0.950 . S
C250 C248 1.391 . S
C250 C251 1.400 . S
C251 C250 1.400 . S
C251 C252 1.389 1_455 S
C251 C257 1.491 . S
C252 H243 0.960 . S
C252 C251 1.389 1_655 S
C252 C253 1.390 1_655 S
C253 H241 0.950 1_455 S
C253 C249 1.393 . S
C253 C252 1.390 1_455 S
C254 H244 0.950 . S
C254 C255 1.386 1_655 S
C254 C256 1.391 . S
C255 C254 1.386 1_455 S
C255 C259 1.393 . S
C256 H245 0.950 . S
C256 C254 1.391 . S
C256 C257 1.400 1_655 S
C257 C251 1.491 . S
C257 C256 1.400 1_455 S
C257 C258 1.398 . S
C258 H246 0.950 . S
C258 C257 1.398 . S
C258 C259 1.391 . S
C259 H247 0.950 . S
C259 C255 1.393 . S
C259 C258 1.391 . S
H260 C268 0.950 . S
H261 C273 0.953 1_565 S
H262 C270 0.950 . S
H263 C272 0.950 1_565 S
H264 C274 0.942 . S
H265 C276 0.948 . S
H266 C278 0.950 . S
H267 C279 0.950 . S
C268 H260 0.950 . S
C268 C269 1.386 . S
C268 C270 1.391 . S
C269 C268 1.386 . S
C269 C273 1.393 . S
C270 H262 0.950 . S
C270 C268 1.391 . S
C270 C271 1.400 . S
C271 C270 1.400 . S
C271 C272 1.398 . S
C271 C277 1.491 1_554 S
C272 H263 0.950 1_545 S
C272 C271 1.398 . S
C272 C273 1.391 . S
C273 H261 0.953 1_545 S
C273 C269 1.393 . S
C273 C272 1.391 . S
C274 H264 0.942 . S
C274 C275 1.386 . S
C274 C276 1.391 . S
C275 C274 1.386 . S
C275 C279 1.393 . S
C276 H265 0.948 . S
C276 C274 1.391 . S
C276 C277 1.400 . S
C277 C271 1.491 1_556 S
C277 C276 1.400 . S
C277 C278 1.398 . S
C278 H266 0.950 . S
C278 C277 1.398 . S
C278 C279 1.391 . S
C279 H267 0.950 . S
C279 C275 1.393 . S
C279 C278 1.391 . S
H280 C288 0.950 . S
H281 C293 0.950 . S
H282 C290 0.950 . S
H283 C292 0.950 . S
H284 C294 0.950 . S
H285 C296 0.950 . S
H286 C298 0.950 . S
H287 C299 0.950 . S
C288 H280 0.950 . S
C288 C289 1.386 . S
C288 C290 1.391 . S
C289 C288 1.386 . S
C289 C293 1.393 . S
C290 H282 0.950 . S
C290 C288 1.391 . S
C290 C291 1.400 . S
C291 C290 1.400 . S
C291 C292 1.398 . S
C291 C297 1.491 . S
C292 H283 0.950 . S
C292 C291 1.398 . S
C292 C293 1.391 . S
C293 H281 0.950 . S
C293 C289 1.393 . S
C293 C292 1.391 . S
C294 H284 0.950 . S
C294 C295 1.386 . S
C294 C296 1.391 . S
C295 C294 1.386 . S
C295 C299 1.393 . S
C296 H285 0.950 . S
C296 C294 1.391 . S
C296 C297 1.400 . S
C297 C291 1.491 . S
C297 C296 1.400 . S
C297 C298 1.398 . S
C298 H286 0.950 . S
C298 C297 1.398 . S
C298 C299 1.391 . S
C299 H287 0.950 . S
C299 C295 1.393 . S
C299 C298 1.391 . S
C129 C25 1.844 . S
C135 C111 1.799 . S
C149 C65 2.027 . S
C155 C20 2.053 . S
C169 C60 2.057 . S
C175 C105 2.026 . S
C189 C100 2.059 . S
C195 C4 2.006 . S
C209 C44 1.775 . S
C215 C31 1.751 . S
C229 C84 1.779 . S
C235 C71 1.749 . S
C249 C2 0.547 . S
C255 C23 0.547 . S
C269 C42 0.508 . S
C275 C63 0.508 . S
C289 C82 0.526 . S
C295 C103 0.526 . S
