# Generated by pormake.
# Topology unp, (4)-cn, num edge types: 1
# Building blocks:
#     Node 0, Type 0, BuildingBlock: GALJAG_clean_sbu_0, # of connection points: 4
#     Node 1, Type 0, BuildingBlock: GALJAG_clean_sbu_0, # of connection points: 4
#     Node 2, Type 0, BuildingBlock: GALJAG_clean_sbu_0, # of connection points: 4
#     Node 3, Type 0, BuildingBlock: GALJAG_clean_sbu_0, # of connection points: 4
#     Node 4, Type 0, BuildingBlock: GALJAG_clean_sbu_0, # of connection points: 4
#     Node 5, Type 0, BuildingBlock: GALJAG_clean_sbu_0, # of connection points: 4
#     Node 6, Type 0, BuildingBlock: GALJAG_clean_sbu_0, # of connection points: 4
#     Node 7, Type 0, BuildingBlock: GALJAG_clean_sbu_0, # of connection points: 4
#     Node 8, Type 0, BuildingBlock: GALJAG_clean_sbu_0, # of connection points: 4
#     Node 9, Type 0, BuildingBlock: GALJAG_clean_sbu_0, # of connection points: 4
#     Node 10, Type 0, BuildingBlock: GALJAG_clean_sbu_0, # of connection points: 4
#     Node 11, Type 0, BuildingBlock: GALJAG_clean_sbu_0, # of connection points: 4
#     Node 12, Type 0, BuildingBlock: GALJAG_clean_sbu_0, # of connection points: 4
#     Node 13, Type 0, BuildingBlock: GALJAG_clean_sbu_0, # of connection points: 4
#     Node 14, Type 0, BuildingBlock: GALJAG_clean_sbu_0, # of connection points: 4
#     Node 15, Type 0, BuildingBlock: GALJAG_clean_sbu_0, # of connection points: 4
#     Node 16, Type 0, BuildingBlock: GALJAG_clean_sbu_0, # of connection points: 4
#     Node 17, Type 0, BuildingBlock: GALJAG_clean_sbu_0, # of connection points: 4
#     Edge 18, Type (0, 0), BuildingBlock: EYOCIG_clean_linker_4, # of connection points: 2
#     Edge 19, Type (0, 0), BuildingBlock: EYOCIG_clean_linker_4, # of connection points: 2
#     Edge 20, Type (0, 0), BuildingBlock: EYOCIG_clean_linker_4, # of connection points: 2
#     Edge 21, Type (0, 0), BuildingBlock: EYOCIG_clean_linker_4, # of connection points: 2
#     Edge 22, Type (0, 0), BuildingBlock: EYOCIG_clean_linker_4, # of connection points: 2
#     Edge 23, Type (0, 0), BuildingBlock: EYOCIG_clean_linker_4, # of connection points: 2
#     Edge 24, Type (0, 0), BuildingBlock: EYOCIG_clean_linker_4, # of connection points: 2
#     Edge 25, Type (0, 0), BuildingBlock: EYOCIG_clean_linker_4, # of connection points: 2
#     Edge 26, Type (0, 0), BuildingBlock: EYOCIG_clean_linker_4, # of connection points: 2
#     Edge 27, Type (0, 0), BuildingBlock: EYOCIG_clean_linker_4, # of connection points: 2
#     Edge 28, Type (0, 0), BuildingBlock: EYOCIG_clean_linker_4, # of connection points: 2
#     Edge 29, Type (0, 0), BuildingBlock: EYOCIG_clean_linker_4, # of connection points: 2
#     Edge 30, Type (0, 0), BuildingBlock: EYOCIG_clean_linker_4, # of connection points: 2
#     Edge 31, Type (0, 0), BuildingBlock: EYOCIG_clean_linker_4, # of connection points: 2
#     Edge 32, Type (0, 0), BuildingBlock: EYOCIG_clean_linker_4, # of connection points: 2
#     Edge 33, Type (0, 0), BuildingBlock: EYOCIG_clean_linker_4, # of connection points: 2
#     Edge 34, Type (0, 0), BuildingBlock: EYOCIG_clean_linker_4, # of connection points: 2
#     Edge 35, Type (0, 0), BuildingBlock: EYOCIG_clean_linker_4, # of connection points: 2
#     Edge 36, Type (0, 0), BuildingBlock: EYOCIG_clean_linker_4, # of connection points: 2
#     Edge 37, Type (0, 0), BuildingBlock: EYOCIG_clean_linker_4, # of connection points: 2
#     Edge 38, Type (0, 0), BuildingBlock: EYOCIG_clean_linker_4, # of connection points: 2
#     Edge 39, Type (0, 0), BuildingBlock: EYOCIG_clean_linker_4, # of connection points: 2
#     Edge 40, Type (0, 0), BuildingBlock: EYOCIG_clean_linker_4, # of connection points: 2
#     Edge 41, Type (0, 0), BuildingBlock: EYOCIG_clean_linker_4, # of connection points: 2
#     Edge 42, Type (0, 0), BuildingBlock: EYOCIG_clean_linker_4, # of connection points: 2
#     Edge 43, Type (0, 0), BuildingBlock: EYOCIG_clean_linker_4, # of connection points: 2
#     Edge 44, Type (0, 0), BuildingBlock: EYOCIG_clean_linker_4, # of connection points: 2
#     Edge 45, Type (0, 0), BuildingBlock: EYOCIG_clean_linker_4, # of connection points: 2
#     Edge 46, Type (0, 0), BuildingBlock: EYOCIG_clean_linker_4, # of connection points: 2
#     Edge 47, Type (0, 0), BuildingBlock: EYOCIG_clean_linker_4, # of connection points: 2
#     Edge 48, Type (0, 0), BuildingBlock: EYOCIG_clean_linker_4, # of connection points: 2
#     Edge 49, Type (0, 0), BuildingBlock: EYOCIG_clean_linker_4, # of connection points: 2
#     Edge 50, Type (0, 0), BuildingBlock: EYOCIG_clean_linker_4, # of connection points: 2
#     Edge 51, Type (0, 0), BuildingBlock: EYOCIG_clean_linker_4, # of connection points: 2
#     Edge 52, Type (0, 0), BuildingBlock: EYOCIG_clean_linker_4, # of connection points: 2
#     Edge 53, Type (0, 0), BuildingBlock: EYOCIG_clean_linker_4, # of connection points: 2
# Relax obj value: 0.397
# Max RMSD: 0.140
# Mean RMSD: 0.140
data_MOF--net-unp--node1-GALJAG_clean_sbu_0--edge1-EYOCIG_clean_linker_4
_symmetry_space_group_name_H-M    P1
_symmetry_Int_Tables_number       1
_symmetry_cell_setting            triclinic
loop_
_symmetry_equiv_pos_as_xyz
'x, y, z'
_cell_length_a     39.326149
_cell_length_b     39.314935
_cell_length_c     33.817758
_cell_angle_alpha  89.990519
_cell_angle_beta   90.009507
_cell_angle_gamma 119.964
loop_
_atom_site_label
_atom_site_type_symbol
_atom_site_fract_x
_atom_site_fract_y
_atom_site_fract_z
_atom_type_partial_charge
In0 In 0.16346 0.15151 0.17506 0.0
O1 O 0.21083 0.21536 0.18782 0.0
O2 O 0.22889 0.17414 0.17291 0.0
C3 C 0.09983 0.15095 0.20539 0.0
C4 C 0.16083 0.1564 0.09618 0.0
C5 C 0.1511 0.08328 0.20635 0.0
O6 O 0.1324 0.1678 0.22323 0.0
O7 O 0.09983 0.13572 0.17271 0.0
O8 O 0.14109 0.08628 0.17177 0.0
O9 O 0.16817 0.11489 0.22581 0.0
C10 C 0.23873 0.20922 0.18033 0.0
O11 O 0.16433 0.12977 0.11309 0.0
O12 O 0.15801 0.1804 0.11875 0.0
In13 In 0.84813 0.01174 0.17431 0.0
O14 O 0.7843 0.99526 0.18716 0.0
O15 O 0.82539 0.05447 0.17196 0.0
C16 C 0.84884 0.94887 0.20505 0.0
C17 C 0.84302 0.00383 0.09548 0.0
C18 C 0.91636 0.06775 0.20537 0.0
O19 O 0.83197 0.96466 0.22276 0.0
O20 O 0.86402 0.96393 0.1723 0.0
O21 O 0.91334 0.05455 0.17087 0.0
O22 O 0.88477 0.05333 0.22484 0.0
C23 C 0.79035 0.02926 0.17951 0.0
O24 O 0.86964 0.03406 0.11222 0.0
O25 O 0.81915 0.9771 0.11819 0.0
In26 In 0.9882 0.83643 0.17468 0.0
O27 O 0.96522 0.83518 0.1128 0.0
O28 O 0.02256 0.84248 0.11823 0.0
C29 C 0.93223 0.84874 0.20573 0.0
C30 C 0.97115 0.76127 0.17981 0.0
C31 C 0.051 0.89987 0.20561 0.0
O32 O 0.94565 0.85919 0.17134 0.0
O33 O 0.94642 0.83127 0.2251 0.0
O34 O 0.03501 0.86725 0.22337 0.0
O35 O 0.03619 0.90002 0.17271 0.0
C36 C 0.99549 0.83921 0.09577 0.0
O37 O 0.00521 0.78931 0.18689 0.0
O38 O 0.94569 0.77093 0.17286 0.0
In39 In 0.15143 0.16393 0.82032 0.0
O40 O 0.21545 0.21104 0.80796 0.0
O41 O 0.17429 0.22944 0.82189 0.0
C42 C 0.15097 0.10049 0.78957 0.0
C43 C 0.1561 0.16141 0.89924 0.0
C44 C 0.08298 0.15124 0.78937 0.0
O45 O 0.16742 0.13305 0.77169 0.0
O46 O 0.13613 0.10042 0.82251 0.0
O47 O 0.08611 0.14096 0.82378 0.0
O48 O 0.11457 0.16876 0.76992 0.0
C49 C 0.20939 0.2391 0.81493 0.0
O50 O 0.12985 0.16546 0.8822 0.0
O51 O 0.17982 0.158 0.87678 0.0
In52 In 0.83563 0.98736 0.81958 0.0
O53 O 0.83378 0.96384 0.88134 0.0
O54 O 0.84141 0.02135 0.87623 0.0
C55 C 0.84816 0.93156 0.78839 0.0
C56 C 0.7606 0.97058 0.81396 0.0
C57 C 0.89935 0.05039 0.78937 0.0
O58 O 0.85834 0.94476 0.82288 0.0
O59 O 0.83085 0.94589 0.76897 0.0
O60 O 0.86692 0.03451 0.77129 0.0
O61 O 0.89918 0.03535 0.82223 0.0
C62 C 0.83785 0.99406 0.89854 0.0
O63 O 0.78876 0.00464 0.80713 0.0
O64 O 0.77009 0.94499 0.8209 0.0
In65 In 0.01208 0.84867 0.81987 0.0
O66 O 0.035 0.87044 0.88175 0.0
O67 O 0.97789 0.8201 0.87633 0.0
C68 C 0.06782 0.91703 0.78879 0.0
C69 C 0.02957 0.79086 0.81453 0.0
C70 C 0.94902 0.84898 0.78914 0.0
O71 O 0.05444 0.91399 0.8232 0.0
O72 O 0.05369 0.8854 0.76939 0.0
O73 O 0.96509 0.83246 0.77133 0.0
O74 O 0.96388 0.86401 0.82199 0.0
C75 C 0.00487 0.84402 0.89879 0.0
O76 O 0.99546 0.78471 0.80742 0.0
O77 O 0.05487 0.82598 0.82164 0.0
In78 In 0.82993 0.48488 0.5081 0.0
O79 O 0.87744 0.54857 0.52131 0.0
O80 O 0.89532 0.50732 0.5059 0.0
C81 C 0.76635 0.48418 0.53875 0.0
C82 C 0.82727 0.49038 0.4293 0.0
C83 C 0.8174 0.41639 0.53885 0.0
O84 O 0.79894 0.50095 0.55655 0.0
O85 O 0.7663 0.46912 0.50596 0.0
O86 O 0.80752 0.41965 0.5043 0.0
O87 O 0.83445 0.44786 0.55853 0.0
C88 C 0.90528 0.54236 0.51367 0.0
O89 O 0.83069 0.46357 0.44591 0.0
O90 O 0.82455 0.51427 0.45213 0.0
In91 In 0.51462 0.34516 0.50792 0.0
O92 O 0.45059 0.32824 0.52025 0.0
O93 O 0.49169 0.38777 0.50626 0.0
C94 C 0.51505 0.28209 0.53851 0.0
C95 C 0.51015 0.33816 0.42898 0.0
C96 C 0.5829 0.40092 0.53913 0.0
O97 O 0.49848 0.2981 0.55637 0.0
O98 O 0.53007 0.29704 0.50568 0.0
O99 O 0.57992 0.38761 0.5047 0.0
O100 O 0.55125 0.38672 0.55848 0.0
C101 C 0.45661 0.36233 0.51325 0.0
O102 O 0.53639 0.36836 0.4461 0.0
O103 O 0.48633 0.31103 0.45136 0.0
In104 In 0.65384 0.1691 0.50786 0.0
O105 O 0.67068 0.12195 0.52056 0.0
O106 O 0.61126 0.10361 0.50608 0.0
C107 C 0.7168 0.23273 0.53827 0.0
C108 C 0.66105 0.17147 0.42895 0.0
C109 C 0.59796 0.18152 0.53898 0.0
O110 O 0.70097 0.2002 0.55619 0.0
O111 O 0.70175 0.2327 0.50547 0.0
O112 O 0.61118 0.19172 0.5045 0.0
O113 O 0.61231 0.16424 0.55842 0.0
C114 C 0.63665 0.09392 0.51334 0.0
O115 O 0.63088 0.16776 0.44594 0.0
O116 O 0.68806 0.17464 0.45145 0.0
In117 In 0.81795 0.49761 0.1534 0.0
O118 O 0.7964 0.49974 0.21514 0.0
O119 O 0.84603 0.49169 0.21008 0.0
C120 C 0.74967 0.48515 0.12221 0.0
C121 C 0.87631 0.57257 0.14775 0.0
C122 C 0.81713 0.43381 0.12316 0.0
O123 O 0.75268 0.47493 0.15669 0.0
O124 O 0.78129 0.50249 0.10281 0.0
O125 O 0.83369 0.46625 0.10507 0.0
O126 O 0.80234 0.43401 0.15604 0.0
C127 C 0.82244 0.49549 0.23237 0.0
O128 O 0.88211 0.54431 0.14104 0.0
O129 O 0.84126 0.56321 0.15456 0.0
In130 In 0.50286 0.32123 0.15312 0.0
O131 O 0.5021 0.2986 0.21507 0.0
O132 O 0.5084 0.35555 0.20947 0.0
C133 C 0.51524 0.26536 0.12185 0.0
C134 C 0.42757 0.30367 0.148 0.0
C135 C 0.5663 0.38429 0.12254 0.0
O136 O 0.52547 0.27854 0.15634 0.0
O137 O 0.49796 0.27975 0.10247 0.0
O138 O 0.5337 0.36844 0.10477 0.0
O139 O 0.56644 0.36919 0.15526 0.0
C140 C 0.50561 0.32872 0.23201 0.0
O141 O 0.45544 0.33772 0.14054 0.0
O142 O 0.43745 0.27843 0.15533 0.0
In143 In 0.67822 0.1814 0.15315 0.0
O144 O 0.70095 0.20278 0.21516 0.0
O145 O 0.64378 0.15258 0.20941 0.0
C146 C 0.734 0.25 0.12251 0.0
C147 C 0.69573 0.12363 0.1476 0.0
C148 C 0.6153 0.18194 0.12235 0.0
O149 O 0.72055 0.24671 0.15692 0.0
O150 O 0.71995 0.2185 0.1029 0.0
O151 O 0.63144 0.16553 0.10445 0.0
O152 O 0.63002 0.19672 0.15533 0.0
C153 C 0.67071 0.17631 0.23202 0.0
O154 O 0.66163 0.1175 0.14046 0.0
O155 O 0.72102 0.15872 0.1548 0.0
In156 In 0.49668 0.81866 0.84104 0.0
O157 O 0.54387 0.88275 0.85305 0.0
O158 O 0.56217 0.84151 0.83908 0.0
C159 C 0.43346 0.81825 0.87227 0.0
C160 C 0.49358 0.82304 0.76215 0.0
C161 C 0.48429 0.75029 0.872 0.0
O162 O 0.46612 0.83475 0.88994 0.0
O163 O 0.43317 0.80332 0.83932 0.0
O164 O 0.47376 0.75333 0.83767 0.0
O165 O 0.50189 0.78192 0.89136 0.0
C166 C 0.57187 0.87665 0.84595 0.0
O167 O 0.49776 0.79686 0.77915 0.0
O168 O 0.49035 0.84685 0.78463 0.0
In169 In 0.18223 0.67925 0.84153 0.0
O170 O 0.11822 0.66252 0.85369 0.0
O171 O 0.15941 0.72193 0.83932 0.0
C172 C 0.18253 0.61622 0.87241 0.0
C173 C 0.17796 0.67192 0.76261 0.0
C174 C 0.25031 0.73508 0.87301 0.0
O175 O 0.16575 0.63214 0.89002 0.0
O176 O 0.19783 0.63123 0.83969 0.0
O177 O 0.24751 0.72181 0.83858 0.0
O178 O 0.21858 0.7208 0.89222 0.0
C179 C 0.12431 0.69659 0.84639 0.0
O180 O 0.20426 0.70212 0.77968 0.0
O181 O 0.15398 0.64495 0.78504 0.0
In182 In 0.32084 0.5031 0.84138 0.0
O183 O 0.33782 0.456 0.85376 0.0
O184 O 0.2783 0.4376 0.83972 0.0
C185 C 0.38388 0.56674 0.87168 0.0
C186 C 0.32774 0.50557 0.76243 0.0
C187 C 0.26508 0.5155 0.87286 0.0
O188 O 0.36814 0.53419 0.88956 0.0
O189 O 0.36869 0.56673 0.83897 0.0
O190 O 0.27813 0.52568 0.83832 0.0
O191 O 0.27953 0.49824 0.89218 0.0
C192 C 0.30376 0.42795 0.84674 0.0
O193 O 0.29758 0.5017 0.77958 0.0
O194 O 0.35488 0.50883 0.78479 0.0
In195 In 0.48399 0.83007 0.48623 0.0
O196 O 0.54806 0.87711 0.47399 0.0
O197 O 0.50702 0.8956 0.48817 0.0
C198 C 0.48357 0.76656 0.4557 0.0
C199 C 0.48832 0.82739 0.56517 0.0
C200 C 0.41589 0.81786 0.4548 0.0
O201 O 0.50025 0.79915 0.43788 0.0
O202 O 0.46841 0.76648 0.48845 0.0
O203 O 0.41872 0.80741 0.48923 0.0
O204 O 0.4476 0.83528 0.43555 0.0
C205 C 0.5421 0.90519 0.48116 0.0
O206 O 0.46206 0.83133 0.54802 0.0
O207 O 0.5122 0.82415 0.54282 0.0
In208 In 0.16967 0.65462 0.48671 0.0
O209 O 0.16911 0.63188 0.54857 0.0
O210 O 0.17566 0.68894 0.54318 0.0
C211 C 0.18215 0.59889 0.45526 0.0
C212 C 0.09432 0.63695 0.48196 0.0
C213 C 0.2328 0.71767 0.45568 0.0
O214 O 0.19255 0.61215 0.4897 0.0
O215 O 0.16464 0.61312 0.43603 0.0
O216 O 0.20007 0.70168 0.43814 0.0
O217 O 0.2332 0.70273 0.48842 0.0
C218 C 0.17287 0.66205 0.56562 0.0
O219 O 0.12214 0.67108 0.47471 0.0
O220 O 0.10427 0.61171 0.48892 0.0
In221 In 0.34507 0.51491 0.48658 0.0
O222 O 0.36779 0.5365 0.54856 0.0
O223 O 0.31052 0.48644 0.54289 0.0
C224 C 0.40101 0.58316 0.4555 0.0
C225 C 0.36225 0.45688 0.48142 0.0
C226 C 0.28228 0.51562 0.45567 0.0
O227 O 0.38771 0.58017 0.48994 0.0
O228 O 0.38674 0.55153 0.4361 0.0
O229 O 0.29818 0.49886 0.43797 0.0
O230 O 0.29718 0.53067 0.48851 0.0
C231 C 0.33747 0.51021 0.56547 0.0
O232 O 0.32823 0.4509 0.47412 0.0
O233 O 0.38763 0.49195 0.48862 0.0
C234 C 0.35333 0.28193 0.15953 0.0
C235 C 0.3878 0.29482 0.15336 0.0
C236 C 0.31296 0.26174 0.16888 0.0
C237 C 0.27849 0.24015 0.17502 0.0
C238 C 0.73773 0.05089 0.16814 0.0
C239 C 0.75937 0.03805 0.17426 0.0
C240 C 0.71749 0.07107 0.15887 0.0
C241 C 0.70458 0.09267 0.15284 0.0
C242 C 0.92933 0.64667 0.15904 0.0
C243 C 0.90752 0.61221 0.15303 0.0
C244 C 0.94964 0.68707 0.1683 0.0
C245 C 0.96249 0.72155 0.17443 0.0
C246 C 0.28227 0.35372 0.83545 0.0
C247 C 0.29508 0.38821 0.84148 0.0
C248 C 0.26206 0.31331 0.82624 0.0
C249 C 0.2404 0.27883 0.82022 0.0
C250 C 0.68644 0.94935 0.82515 0.0
C251 C 0.72092 0.96206 0.81917 0.0
C252 C 0.64605 0.92924 0.83438 0.0
C253 C 0.61159 0.90763 0.84053 0.0
C254 C 0.07166 0.71819 0.83493 0.0
C255 C 0.09333 0.70538 0.84103 0.0
C256 C 0.05138 0.73834 0.82572 0.0
C257 C 0.03845 0.75993 0.81973 0.0
C258 C 0.97962 0.59481 0.50268 0.0
C259 C 0.9451 0.57324 0.50863 0.0
C260 C 0.02002 0.61502 0.4935 0.0
C261 C 0.05451 0.62796 0.48737 0.0
C262 C 0.38373 0.40413 0.49275 0.0
C263 C 0.37094 0.42582 0.48668 0.0
C264 C 0.40391 0.38389 0.50196 0.0
C265 C 0.42558 0.37105 0.50798 0.0
C266 C 0.61512 0.0197 0.50204 0.0
C267 C 0.62797 0.05419 0.50811 0.0
C268 C 0.59488 0.97932 0.49273 0.0
C269 C 0.57317 0.94487 0.48657 0.0
C270 C 0.02998 0.13586 0.228 0.0
C271 C 0.06384 0.14558 0.22188 0.0
C272 C 0.98856 0.11658 0.22788 0.0
C273 C 0.95411 0.09488 0.22159 0.0
C274 C 0.86403 0.89424 0.22806 0.0
C275 C 0.85428 0.91835 0.22175 0.0
C276 C 0.88332 0.87209 0.22812 0.0
C277 C 0.90502 0.8593 0.22191 0.0
C278 C 0.12762 0.01104 0.22889 0.0
C279 C 0.14042 0.04552 0.22265 0.0
C280 C 0.10548 0.96961 0.22881 0.0
C281 C 0.08141 0.93579 0.22242 0.0
C282 C 0.11658 0.98929 0.76641 0.0
C283 C 0.09494 0.95481 0.77261 0.0
C284 C 0.13581 0.03072 0.76649 0.0
C285 C 0.14549 0.06455 0.77282 0.0
C286 C 0.01066 0.12745 0.76695 0.0
C287 C 0.04515 0.14042 0.7732 0.0
C288 C 0.96925 0.10515 0.76685 0.0
C289 C 0.93541 0.08096 0.77296 0.0
C290 C 0.89418 0.86384 0.76606 0.0
C291 C 0.91843 0.85428 0.77242 0.0
C292 C 0.87186 0.88294 0.76595 0.0
C293 C 0.85892 0.90453 0.77215 0.0
C294 C 0.69653 0.46894 0.56168 0.0
C295 C 0.73038 0.4787 0.55541 0.0
C296 C 0.65511 0.44966 0.56166 0.0
C297 C 0.62064 0.42802 0.55538 0.0
C298 C 0.53004 0.2273 0.56142 0.0
C299 C 0.52041 0.25151 0.55515 0.0
C300 C 0.54923 0.20505 0.56144 0.0
C301 C 0.57087 0.1922 0.55521 0.0
C302 C 0.7937 0.34399 0.56106 0.0
C303 C 0.80656 0.3785 0.55491 0.0
C304 C 0.77148 0.30257 0.56103 0.0
C305 C 0.74733 0.26873 0.55481 0.0
C306 C 0.78262 0.32242 0.10044 0.0
C307 C 0.76105 0.2879 0.10654 0.0
C308 C 0.80181 0.36385 0.10049 0.0
C309 C 0.81152 0.39771 0.10669 0.0
C310 C 0.6774 0.46147 0.09968 0.0
C311 C 0.71189 0.47439 0.10594 0.0
C312 C 0.63599 0.43916 0.09968 0.0
C313 C 0.60219 0.41493 0.10593 0.0
C314 C 0.53862 0.21652 0.09929 0.0
C315 C 0.52584 0.23822 0.10556 0.0
C316 C 0.56075 0.19721 0.09929 0.0
C317 C 0.58487 0.18747 0.1056 0.0
C318 C 0.32241 0.78389 0.89573 0.0
C319 C 0.28796 0.76223 0.88941 0.0
C320 C 0.36383 0.80316 0.89567 0.0
C321 C 0.39763 0.81285 0.88923 0.0
C322 C 0.21645 0.53907 0.89559 0.0
C323 C 0.23806 0.52619 0.88927 0.0
C324 C 0.19731 0.56136 0.89556 0.0
C325 C 0.18772 0.58558 0.88919 0.0
C326 C 0.46083 0.678 0.89435 0.0
C327 C 0.47368 0.7125 0.88815 0.0
C328 C 0.43862 0.63658 0.89437 0.0
C329 C 0.41447 0.60274 0.88817 0.0
C330 C 0.46876 0.69683 0.43292 0.0
C331 C 0.47832 0.73064 0.43913 0.0
C332 C 0.44966 0.65541 0.43297 0.0
C333 C 0.42807 0.62093 0.43925 0.0
C334 C 0.30233 0.77241 0.43234 0.0
C335 C 0.26856 0.74824 0.43878 0.0
C336 C 0.34374 0.79459 0.43221 0.0
C337 C 0.37821 0.80738 0.43845 0.0
C338 C 0.22775 0.53086 0.43254 0.0
C339 C 0.25183 0.52109 0.43888 0.0
C340 C 0.20559 0.55014 0.43254 0.0
C341 C 0.19275 0.57178 0.43889 0.0
C342 C 0.16056 0.16062 0.01852 0.0
C343 C 0.16061 0.15931 0.05404 0.0
C344 C 0.1601 0.16112 0.97692 0.0
C345 C 0.15886 0.16117 0.94139 0.0
C346 C 0.83805 0.99807 0.97624 0.0
C347 C 0.83805 0.99687 0.9407 0.0
C348 C 0.83859 0.99904 0.01783 0.0
C349 C 0.83997 0.0005 0.05336 0.0
C350 C 0.00064 0.84003 0.97648 0.0
C351 C 0.00188 0.84125 0.94095 0.0
C352 C -0.00023 0.83958 0.01808 0.0
C353 C 0.99851 0.8395 0.05361 0.0
C354 C 0.82635 0.49547 0.31007 0.0
C355 C 0.82511 0.49541 0.27454 0.0
C356 C 0.82687 0.49499 0.35167 0.0
C357 C 0.82697 0.49357 0.38719 0.0
C358 C 0.5059 0.33314 0.30968 0.0
C359 C 0.50585 0.33182 0.27415 0.0
C360 C 0.50631 0.33403 0.35128 0.0
C361 C 0.50748 0.33525 0.38682 0.0
C362 C 0.66531 0.17157 0.35128 0.0
C363 C 0.66405 0.17161 0.38681 0.0
C364 C 0.66622 0.17202 0.30968 0.0
C365 C 0.66755 0.17334 0.27415 0.0
C366 C 0.49221 0.82714 0.64287 0.0
C367 C 0.49098 0.82717 0.60733 0.0
C368 C 0.4928 0.82678 0.68447 0.0
C369 C 0.49307 0.82568 0.72 0.0
C370 C 0.17361 0.6665 0.64331 0.0
C371 C 0.17335 0.66513 0.60778 0.0
C372 C 0.17416 0.66752 0.68492 0.0
C373 C 0.17533 0.66888 0.72045 0.0
C374 C 0.33284 0.50619 0.64314 0.0
C375 C 0.33425 0.50741 0.60761 0.0
C376 C 0.33185 0.50576 0.68474 0.0
C377 C 0.3306 0.50575 0.72027 0.0
loop_
_geom_bond_atom_site_label_1
_geom_bond_atom_site_label_2
_geom_bond_distance
_geom_bond_site_symmetry_2
_ccdc_geom_bond_type
In0 O1 2.294 . S
In0 O2 2.326 . S
In0 O6 2.266 . S
In0 O7 2.326 . S
In0 O8 2.266 . S
In0 O9 2.326 . S
In0 O11 2.294 . S
In0 O12 2.326 . S
O1 In0 2.294 . S
O1 C10 1.240 . S
O2 In0 2.326 . S
O2 C10 1.252 . S
C3 O6 1.252 . S
C3 O7 1.260 . S
C4 O11 1.240 . S
C4 O12 1.252 . S
C5 O8 1.252 . S
C5 O9 1.260 . S
O6 In0 2.266 . S
O6 C3 1.252 . S
O7 In0 2.326 . S
O7 C3 1.260 . S
O8 In0 2.266 . S
O8 C5 1.252 . S
O9 In0 2.326 . S
O9 C5 1.260 . S
C10 O1 1.240 . S
C10 O2 1.252 . S
O11 In0 2.294 . S
O11 C4 1.240 . S
O12 In0 2.326 . S
O12 C4 1.252 . S
In13 O14 2.294 . S
In13 O15 2.326 . S
In13 O19 2.266 1_545 S
In13 O20 2.326 1_545 S
In13 O21 2.266 . S
In13 O22 2.326 . S
In13 O24 2.294 . S
In13 O25 2.326 1_545 S
O14 In13 2.294 . S
O14 C23 1.240 . S
O15 In13 2.326 . S
O15 C23 1.252 . S
C16 O19 1.252 . S
C16 O20 1.260 . S
C17 O24 1.240 1_565 S
C17 O25 1.252 . S
C18 O21 1.252 . S
C18 O22 1.260 . S
O19 In13 2.266 1_565 S
O19 C16 1.252 . S
O20 In13 2.326 1_565 S
O20 C16 1.260 . S
O21 In13 2.266 . S
O21 C18 1.252 . S
O22 In13 2.326 . S
O22 C18 1.260 . S
C23 O14 1.240 . S
C23 O15 1.252 . S
O24 In13 2.294 . S
O24 C17 1.240 1_545 S
O25 In13 2.326 1_565 S
O25 C17 1.252 . S
In26 O27 2.294 . S
In26 O28 2.326 1_655 S
In26 O32 2.266 . S
In26 O33 2.326 . S
In26 O34 2.266 1_655 S
In26 O35 2.326 1_655 S
In26 O37 2.294 . S
In26 O38 2.326 . S
O27 In26 2.294 . S
O27 C36 1.240 1_655 S
O28 In26 2.326 1_455 S
O28 C36 1.252 . S
C29 O32 1.252 . S
C29 O33 1.260 . S
C30 O37 1.240 . S
C30 O38 1.252 . S
C31 O34 1.252 . S
C31 O35 1.260 . S
O32 In26 2.266 . S
O32 C29 1.252 . S
O33 In26 2.326 . S
O33 C29 1.260 . S
O34 In26 2.266 1_455 S
O34 C31 1.252 . S
O35 In26 2.326 1_455 S
O35 C31 1.260 . S
C36 O27 1.240 1_455 S
C36 O28 1.252 . S
O37 In26 2.294 . S
O37 C30 1.240 . S
O38 In26 2.326 . S
O38 C30 1.252 . S
In39 O40 2.294 . S
In39 O41 2.326 . S
In39 O45 2.266 . S
In39 O46 2.326 . S
In39 O47 2.266 . S
In39 O48 2.326 . S
In39 O50 2.294 . S
In39 O51 2.326 . S
O40 In39 2.294 . S
O40 C49 1.240 . S
O41 In39 2.326 . S
O41 C49 1.252 . S
C42 O45 1.252 . S
C42 O46 1.260 . S
C43 O50 1.240 . S
C43 O51 1.252 . S
C44 O47 1.252 . S
C44 O48 1.260 . S
O45 In39 2.266 . S
O45 C42 1.252 . S
O46 In39 2.326 . S
O46 C42 1.260 . S
O47 In39 2.266 . S
O47 C44 1.252 . S
O48 In39 2.326 . S
O48 C44 1.260 . S
C49 O40 1.240 . S
C49 O41 1.252 . S
O50 In39 2.294 . S
O50 C43 1.240 . S
O51 In39 2.326 . S
O51 C43 1.252 . S
In52 O53 2.294 . S
In52 O54 2.326 1_565 S
In52 O58 2.266 . S
In52 O59 2.326 . S
In52 O60 2.266 1_565 S
In52 O61 2.326 1_565 S
In52 O63 2.294 . S
In52 O64 2.326 . S
O53 In52 2.294 . S
O53 C62 1.240 1_565 S
O54 In52 2.326 1_545 S
O54 C62 1.252 . S
C55 O58 1.252 . S
C55 O59 1.260 . S
C56 O63 1.240 . S
C56 O64 1.252 . S
C57 O60 1.252 . S
C57 O61 1.260 . S
O58 In52 2.266 . S
O58 C55 1.252 . S
O59 In52 2.326 . S
O59 C55 1.260 . S
O60 In52 2.266 1_545 S
O60 C57 1.252 . S
O61 In52 2.326 1_545 S
O61 C57 1.260 . S
C62 O53 1.240 1_545 S
C62 O54 1.252 . S
O63 In52 2.294 . S
O63 C56 1.240 . S
O64 In52 2.326 . S
O64 C56 1.252 . S
In65 O66 2.294 . S
In65 O67 2.326 1_455 S
In65 O71 2.266 . S
In65 O72 2.326 . S
In65 O73 2.266 1_455 S
In65 O74 2.326 1_455 S
In65 O76 2.294 . S
In65 O77 2.326 . S
O66 In65 2.294 . S
O66 C75 1.240 1_455 S
O67 In65 2.326 1_655 S
O67 C75 1.252 . S
C68 O71 1.252 . S
C68 O72 1.260 . S
C69 O76 1.240 . S
C69 O77 1.252 . S
C70 O73 1.252 . S
C70 O74 1.260 . S
O71 In65 2.266 . S
O71 C68 1.252 . S
O72 In65 2.326 . S
O72 C68 1.260 . S
O73 In65 2.266 1_655 S
O73 C70 1.252 . S
O74 In65 2.326 1_655 S
O74 C70 1.260 . S
C75 O66 1.240 1_655 S
C75 O67 1.252 . S
O76 In65 2.294 . S
O76 C69 1.240 . S
O77 In65 2.326 . S
O77 C69 1.252 . S
In78 O79 2.294 . S
In78 O80 2.326 . S
In78 O84 2.266 . S
In78 O85 2.326 . S
In78 O86 2.266 . S
In78 O87 2.326 . S
In78 O89 2.294 . S
In78 O90 2.326 . S
O79 In78 2.294 . S
O79 C88 1.240 . S
O80 In78 2.326 . S
O80 C88 1.252 . S
C81 O84 1.252 . S
C81 O85 1.260 . S
C82 O89 1.240 . S
C82 O90 1.252 . S
C83 O86 1.252 . S
C83 O87 1.260 . S
O84 In78 2.266 . S
O84 C81 1.252 . S
O85 In78 2.326 . S
O85 C81 1.260 . S
O86 In78 2.266 . S
O86 C83 1.252 . S
O87 In78 2.326 . S
O87 C83 1.260 . S
C88 O79 1.240 . S
C88 O80 1.252 . S
O89 In78 2.294 . S
O89 C82 1.240 . S
O90 In78 2.326 . S
O90 C82 1.252 . S
In91 O92 2.294 . S
In91 O93 2.326 . S
In91 O97 2.266 . S
In91 O98 2.326 . S
In91 O99 2.266 . S
In91 O100 2.326 . S
In91 O102 2.294 . S
In91 O103 2.326 . S
O92 In91 2.294 . S
O92 C101 1.240 . S
O93 In91 2.326 . S
O93 C101 1.252 . S
C94 O97 1.252 . S
C94 O98 1.260 . S
C95 O102 1.240 . S
C95 O103 1.252 . S
C96 O99 1.252 . S
C96 O100 1.260 . S
O97 In91 2.266 . S
O97 C94 1.252 . S
O98 In91 2.326 . S
O98 C94 1.260 . S
O99 In91 2.266 . S
O99 C96 1.252 . S
O100 In91 2.326 . S
O100 C96 1.260 . S
C101 O92 1.240 . S
C101 O93 1.252 . S
O102 In91 2.294 . S
O102 C95 1.240 . S
O103 In91 2.326 . S
O103 C95 1.252 . S
In104 O105 2.294 . S
In104 O106 2.326 . S
In104 O110 2.266 . S
In104 O111 2.326 . S
In104 O112 2.266 . S
In104 O113 2.326 . S
In104 O115 2.294 . S
In104 O116 2.326 . S
O105 In104 2.294 . S
O105 C114 1.240 . S
O106 In104 2.326 . S
O106 C114 1.252 . S
C107 O110 1.252 . S
C107 O111 1.260 . S
C108 O115 1.240 . S
C108 O116 1.252 . S
C109 O112 1.252 . S
C109 O113 1.260 . S
O110 In104 2.266 . S
O110 C107 1.252 . S
O111 In104 2.326 . S
O111 C107 1.260 . S
O112 In104 2.266 . S
O112 C109 1.252 . S
O113 In104 2.326 . S
O113 C109 1.260 . S
C114 O105 1.240 . S
C114 O106 1.252 . S
O115 In104 2.294 . S
O115 C108 1.240 . S
O116 In104 2.326 . S
O116 C108 1.252 . S
In117 O118 2.294 . S
In117 O119 2.326 . S
In117 O123 2.266 . S
In117 O124 2.326 . S
In117 O125 2.266 . S
In117 O126 2.326 . S
In117 O128 2.294 . S
In117 O129 2.326 . S
O118 In117 2.294 . S
O118 C127 1.240 . S
O119 In117 2.326 . S
O119 C127 1.252 . S
C120 O123 1.252 . S
C120 O124 1.260 . S
C121 O128 1.240 . S
C121 O129 1.252 . S
C122 O125 1.252 . S
C122 O126 1.260 . S
O123 In117 2.266 . S
O123 C120 1.252 . S
O124 In117 2.326 . S
O124 C120 1.260 . S
O125 In117 2.266 . S
O125 C122 1.252 . S
O126 In117 2.326 . S
O126 C122 1.260 . S
C127 O118 1.240 . S
C127 O119 1.252 . S
O128 In117 2.294 . S
O128 C121 1.240 . S
O129 In117 2.326 . S
O129 C121 1.252 . S
In130 O131 2.294 . S
In130 O132 2.326 . S
In130 O136 2.266 . S
In130 O137 2.326 . S
In130 O138 2.266 . S
In130 O139 2.326 . S
In130 O141 2.294 . S
In130 O142 2.326 . S
O131 In130 2.294 . S
O131 C140 1.240 . S
O132 In130 2.326 . S
O132 C140 1.252 . S
C133 O136 1.252 . S
C133 O137 1.260 . S
C134 O141 1.240 . S
C134 O142 1.252 . S
C135 O138 1.252 . S
C135 O139 1.260 . S
O136 In130 2.266 . S
O136 C133 1.252 . S
O137 In130 2.326 . S
O137 C133 1.260 . S
O138 In130 2.266 . S
O138 C135 1.252 . S
O139 In130 2.326 . S
O139 C135 1.260 . S
C140 O131 1.240 . S
C140 O132 1.252 . S
O141 In130 2.294 . S
O141 C134 1.240 . S
O142 In130 2.326 . S
O142 C134 1.252 . S
In143 O144 2.294 . S
In143 O145 2.326 . S
In143 O149 2.266 . S
In143 O150 2.326 . S
In143 O151 2.266 . S
In143 O152 2.326 . S
In143 O154 2.294 . S
In143 O155 2.326 . S
O144 In143 2.294 . S
O144 C153 1.240 . S
O145 In143 2.326 . S
O145 C153 1.252 . S
C146 O149 1.252 . S
C146 O150 1.260 . S
C147 O154 1.240 . S
C147 O155 1.252 . S
C148 O151 1.252 . S
C148 O152 1.260 . S
O149 In143 2.266 . S
O149 C146 1.252 . S
O150 In143 2.326 . S
O150 C146 1.260 . S
O151 In143 2.266 . S
O151 C148 1.252 . S
O152 In143 2.326 . S
O152 C148 1.260 . S
C153 O144 1.240 . S
C153 O145 1.252 . S
O154 In143 2.294 . S
O154 C147 1.240 . S
O155 In143 2.326 . S
O155 C147 1.252 . S
In156 O157 2.294 . S
In156 O158 2.326 . S
In156 O162 2.266 . S
In156 O163 2.326 . S
In156 O164 2.266 . S
In156 O165 2.326 . S
In156 O167 2.294 . S
In156 O168 2.326 . S
O157 In156 2.294 . S
O157 C166 1.240 . S
O158 In156 2.326 . S
O158 C166 1.252 . S
C159 O162 1.252 . S
C159 O163 1.260 . S
C160 O167 1.240 . S
C160 O168 1.252 . S
C161 O164 1.252 . S
C161 O165 1.260 . S
O162 In156 2.266 . S
O162 C159 1.252 . S
O163 In156 2.326 . S
O163 C159 1.260 . S
O164 In156 2.266 . S
O164 C161 1.252 . S
O165 In156 2.326 . S
O165 C161 1.260 . S
C166 O157 1.240 . S
C166 O158 1.252 . S
O167 In156 2.294 . S
O167 C160 1.240 . S
O168 In156 2.326 . S
O168 C160 1.252 . S
In169 O170 2.294 . S
In169 O171 2.326 . S
In169 O175 2.266 . S
In169 O176 2.326 . S
In169 O177 2.266 . S
In169 O178 2.326 . S
In169 O180 2.294 . S
In169 O181 2.326 . S
O170 In169 2.294 . S
O170 C179 1.240 . S
O171 In169 2.326 . S
O171 C179 1.252 . S
C172 O175 1.252 . S
C172 O176 1.260 . S
C173 O180 1.240 . S
C173 O181 1.252 . S
C174 O177 1.252 . S
C174 O178 1.260 . S
O175 In169 2.266 . S
O175 C172 1.252 . S
O176 In169 2.326 . S
O176 C172 1.260 . S
O177 In169 2.266 . S
O177 C174 1.252 . S
O178 In169 2.326 . S
O178 C174 1.260 . S
C179 O170 1.240 . S
C179 O171 1.252 . S
O180 In169 2.294 . S
O180 C173 1.240 . S
O181 In169 2.326 . S
O181 C173 1.252 . S
In182 O183 2.294 . S
In182 O184 2.326 . S
In182 O188 2.266 . S
In182 O189 2.326 . S
In182 O190 2.266 . S
In182 O191 2.326 . S
In182 O193 2.294 . S
In182 O194 2.326 . S
O183 In182 2.294 . S
O183 C192 1.240 . S
O184 In182 2.326 . S
O184 C192 1.252 . S
C185 O188 1.252 . S
C185 O189 1.260 . S
C186 O193 1.240 . S
C186 O194 1.252 . S
C187 O190 1.252 . S
C187 O191 1.260 . S
O188 In182 2.266 . S
O188 C185 1.252 . S
O189 In182 2.326 . S
O189 C185 1.260 . S
O190 In182 2.266 . S
O190 C187 1.252 . S
O191 In182 2.326 . S
O191 C187 1.260 . S
C192 O183 1.240 . S
C192 O184 1.252 . S
O193 In182 2.294 . S
O193 C186 1.240 . S
O194 In182 2.326 . S
O194 C186 1.252 . S
In195 O196 2.294 . S
In195 O197 2.326 . S
In195 O201 2.266 . S
In195 O202 2.326 . S
In195 O203 2.266 . S
In195 O204 2.326 . S
In195 O206 2.294 . S
In195 O207 2.326 . S
O196 In195 2.294 . S
O196 C205 1.240 . S
O197 In195 2.326 . S
O197 C205 1.252 . S
C198 O201 1.252 . S
C198 O202 1.260 . S
C199 O206 1.240 . S
C199 O207 1.252 . S
C200 O203 1.252 . S
C200 O204 1.260 . S
O201 In195 2.266 . S
O201 C198 1.252 . S
O202 In195 2.326 . S
O202 C198 1.260 . S
O203 In195 2.266 . S
O203 C200 1.252 . S
O204 In195 2.326 . S
O204 C200 1.260 . S
C205 O196 1.240 . S
C205 O197 1.252 . S
O206 In195 2.294 . S
O206 C199 1.240 . S
O207 In195 2.326 . S
O207 C199 1.252 . S
In208 O209 2.294 . S
In208 O210 2.326 . S
In208 O214 2.266 . S
In208 O215 2.326 . S
In208 O216 2.266 . S
In208 O217 2.326 . S
In208 O219 2.294 . S
In208 O220 2.326 . S
O209 In208 2.294 . S
O209 C218 1.240 . S
O210 In208 2.326 . S
O210 C218 1.252 . S
C211 O214 1.252 . S
C211 O215 1.260 . S
C212 O219 1.240 . S
C212 O220 1.252 . S
C213 O216 1.252 . S
C213 O217 1.260 . S
O214 In208 2.266 . S
O214 C211 1.252 . S
O215 In208 2.326 . S
O215 C211 1.260 . S
O216 In208 2.266 . S
O216 C213 1.252 . S
O217 In208 2.326 . S
O217 C213 1.260 . S
C218 O209 1.240 . S
C218 O210 1.252 . S
O219 In208 2.294 . S
O219 C212 1.240 . S
O220 In208 2.326 . S
O220 C212 1.252 . S
In221 O222 2.294 . S
In221 O223 2.326 . S
In221 O227 2.266 . S
In221 O228 2.326 . S
In221 O229 2.266 . S
In221 O230 2.326 . S
In221 O232 2.294 . S
In221 O233 2.326 . S
O222 In221 2.294 . S
O222 C231 1.240 . S
O223 In221 2.326 . S
O223 C231 1.252 . S
C224 O227 1.252 . S
C224 O228 1.260 . S
C225 O232 1.240 . S
C225 O233 1.252 . S
C226 O229 1.252 . S
C226 O230 1.260 . S
O227 In221 2.266 . S
O227 C224 1.252 . S
O228 In221 2.326 . S
O228 C224 1.260 . S
O229 In221 2.266 . S
O229 C226 1.252 . S
O230 In221 2.326 . S
O230 C226 1.260 . S
C231 O222 1.240 . S
C231 O223 1.252 . S
O232 In221 2.294 . S
O232 C225 1.240 . S
O233 In221 2.326 . S
O233 C225 1.252 . S
C234 C235 1.170 . S
C234 C236 1.380 . S
C235 C234 1.170 . S
C236 C234 1.380 . S
C236 C237 1.170 . S
C237 C236 1.170 . S
C238 C239 1.170 . S
C238 C240 1.380 . S
C239 C238 1.170 . S
C240 C238 1.380 . S
C240 C241 1.170 . S
C241 C240 1.170 . S
C242 C243 1.170 . S
C242 C244 1.380 . S
C243 C242 1.170 . S
C244 C242 1.380 . S
C244 C245 1.170 . S
C245 C244 1.170 . S
C246 C247 1.170 . S
C246 C248 1.380 . S
C247 C246 1.170 . S
C248 C246 1.380 . S
C248 C249 1.170 . S
C249 C248 1.170 . S
C250 C251 1.170 . S
C250 C252 1.380 . S
C251 C250 1.170 . S
C252 C250 1.380 . S
C252 C253 1.170 . S
C253 C252 1.170 . S
C254 C255 1.170 . S
C254 C256 1.380 . S
C255 C254 1.170 . S
C256 C254 1.380 . S
C256 C257 1.170 . S
C257 C256 1.170 . S
C258 C259 1.170 . S
C258 C260 1.380 1_655 S
C259 C258 1.170 . S
C260 C258 1.380 1_455 S
C260 C261 1.170 . S
C261 C260 1.170 . S
C262 C263 1.170 . S
C262 C264 1.380 . S
C263 C262 1.170 . S
C264 C262 1.380 . S
C264 C265 1.170 . S
C265 C264 1.170 . S
C266 C267 1.170 . S
C266 C268 1.380 1_545 S
C267 C266 1.170 . S
C268 C266 1.380 1_565 S
C268 C269 1.170 . S
C269 C268 1.170 . S
C270 C271 1.170 . S
C270 C272 1.380 1_455 S
C271 C270 1.170 . S
C272 C270 1.380 1_655 S
C272 C273 1.170 . S
C273 C272 1.170 . S
C274 C275 1.170 . S
C274 C276 1.380 . S
C275 C274 1.170 . S
C276 C274 1.380 . S
C276 C277 1.170 . S
C277 C276 1.170 . S
C278 C279 1.170 . S
C278 C280 1.380 1_545 S
C279 C278 1.170 . S
C280 C278 1.380 1_565 S
C280 C281 1.170 . S
C281 C280 1.170 . S
C282 C283 1.170 . S
C282 C284 1.380 1_565 S
C283 C282 1.170 . S
C284 C282 1.380 1_545 S
C284 C285 1.170 . S
C285 C284 1.170 . S
C286 C287 1.170 . S
C286 C288 1.380 1_455 S
C287 C286 1.170 . S
C288 C286 1.380 1_655 S
C288 C289 1.170 . S
C289 C288 1.170 . S
C290 C291 1.170 . S
C290 C292 1.380 . S
C291 C290 1.170 . S
C292 C290 1.380 . S
C292 C293 1.170 . S
C293 C292 1.170 . S
C294 C295 1.170 . S
C294 C296 1.380 . S
C295 C294 1.170 . S
C296 C294 1.380 . S
C296 C297 1.170 . S
C297 C296 1.170 . S
C298 C299 1.170 . S
C298 C300 1.380 . S
C299 C298 1.170 . S
C300 C298 1.380 . S
C300 C301 1.170 . S
C301 C300 1.170 . S
C302 C303 1.170 . S
C302 C304 1.380 . S
C303 C302 1.170 . S
C304 C302 1.380 . S
C304 C305 1.170 . S
C305 C304 1.170 . S
C306 C307 1.170 . S
C306 C308 1.380 . S
C307 C306 1.170 . S
C308 C306 1.380 . S
C308 C309 1.170 . S
C309 C308 1.170 . S
C310 C311 1.170 . S
C310 C312 1.380 . S
C311 C310 1.170 . S
C312 C310 1.380 . S
C312 C313 1.170 . S
C313 C312 1.170 . S
C314 C315 1.170 . S
C314 C316 1.380 . S
C315 C314 1.170 . S
C316 C314 1.380 . S
C316 C317 1.170 . S
C317 C316 1.170 . S
C318 C319 1.170 . S
C318 C320 1.380 . S
C319 C318 1.170 . S
C320 C318 1.380 . S
C320 C321 1.170 . S
C321 C320 1.170 . S
C322 C323 1.170 . S
C322 C324 1.380 . S
C323 C322 1.170 . S
C324 C322 1.380 . S
C324 C325 1.170 . S
C325 C324 1.170 . S
C326 C327 1.170 . S
C326 C328 1.380 . S
C327 C326 1.170 . S
C328 C326 1.380 . S
C328 C329 1.170 . S
C329 C328 1.170 . S
C330 C331 1.170 . S
C330 C332 1.380 . S
C331 C330 1.170 . S
C332 C330 1.380 . S
C332 C333 1.170 . S
C333 C332 1.170 . S
C334 C335 1.170 . S
C334 C336 1.380 . S
C335 C334 1.170 . S
C336 C334 1.380 . S
C336 C337 1.170 . S
C337 C336 1.170 . S
C338 C339 1.170 . S
C338 C340 1.380 . S
C339 C338 1.170 . S
C340 C338 1.380 . S
C340 C341 1.170 . S
C341 C340 1.170 . S
C342 C343 1.170 . S
C342 C344 1.380 1_554 S
C343 C342 1.170 . S
C344 C342 1.380 1_556 S
C344 C345 1.170 . S
C345 C344 1.170 . S
C346 C347 1.170 1_565 S
C346 C348 1.381 1_556 S
C347 C346 1.170 1_545 S
C348 C346 1.381 1_554 S
C348 C349 1.170 . S
C349 C348 1.170 . S
C350 C351 1.170 1_455 S
C350 C352 1.380 1_556 S
C351 C350 1.170 1_655 S
C352 C350 1.380 1_554 S
C352 C353 1.170 . S
C353 C352 1.170 . S
C354 C355 1.170 . S
C354 C356 1.380 . S
C355 C354 1.170 . S
C356 C354 1.380 . S
C356 C357 1.170 . S
C357 C356 1.170 . S
C358 C359 1.170 . S
C358 C360 1.380 . S
C359 C358 1.170 . S
C360 C358 1.380 . S
C360 C361 1.170 . S
C361 C360 1.170 . S
C362 C363 1.170 . S
C362 C364 1.380 . S
C363 C362 1.170 . S
C364 C362 1.380 . S
C364 C365 1.170 . S
C365 C364 1.170 . S
C366 C367 1.170 . S
C366 C368 1.380 . S
C367 C366 1.170 . S
C368 C366 1.380 . S
C368 C369 1.170 . S
C369 C368 1.170 . S
C370 C371 1.170 . S
C370 C372 1.380 . S
C371 C370 1.170 . S
C372 C370 1.380 . S
C372 C373 1.170 . S
C373 C372 1.170 . S
C374 C375 1.170 . S
C374 C376 1.380 . S
C375 C374 1.170 . S
C376 C374 1.380 . S
C376 C377 1.170 . S
C377 C376 1.170 . S
C235 C134 1.431 . S
C237 C10 1.395 . S
C239 C23 1.400 . S
C241 C147 1.446 . S
C243 C121 1.439 . S
C245 C30 1.425 . S
C247 C192 1.441 . S
C249 C49 1.395 . S
C251 C56 1.447 . S
C253 C166 1.410 . S
C255 C179 1.401 . S
C257 C69 1.417 . S
C259 C88 1.407 . S
C261 C212 1.411 . S
C263 C225 1.438 . S
C265 C101 1.427 . S
C267 C114 1.398 . S
C269 C205 1.423 . S
C271 C3 1.373 . S
C273 C18 1.387 . S
C275 C16 1.377 . S
C277 C29 1.390 . S
C279 C5 1.411 . S
C281 C31 1.398 . S
C283 C68 1.380 . S
C285 C42 1.364 . S
C287 C44 1.377 . S
C289 C57 1.359 . S
C291 C70 1.397 . S
C293 C55 1.409 . S
C295 C81 1.375 . S
C297 C96 1.394 . S
C299 C94 1.383 . S
C301 C109 1.396 . S
C303 C83 1.376 . S
C305 C107 1.355 . S
C307 C146 1.374 . S
C309 C122 1.354 . S
C311 C120 1.411 . S
C313 C135 1.398 . S
C315 C133 1.410 . S
C317 C148 1.397 . S
C319 C174 1.410 . S
C321 C159 1.395 . S
C323 C187 1.403 . S
C325 C172 1.385 . S
C327 C161 1.374 . S
C329 C185 1.354 . S
C331 C198 1.383 . S
C333 C224 1.402 . S
C335 C213 1.398 . S
C337 C200 1.412 . S
C339 C226 1.374 . S
C341 C211 1.394 . S
C343 C4 1.743 . S
C345 C43 1.726 . S
C347 C62 1.720 . S
C349 C17 1.745 . S
C351 C75 1.717 . S
C353 C36 1.741 . S
C355 C127 1.728 . S
C357 C82 1.742 . S
C359 C140 1.728 . S
C361 C95 1.743 . S
C363 C108 1.730 . S
C365 C153 1.741 . S
C367 C199 1.719 . S
C369 C160 1.732 . S
C371 C218 1.723 . S
C373 C173 1.728 . S
C375 C231 1.745 . S
C377 C186 1.723 . S
