# Generated by pormake.
# Topology vbw, (6)-cn, num edge types: 1
# Building blocks:
#     Node 0, Type 0, BuildingBlock: OJICUG_clean_sbu_0, # of connection points: 6
#     Node 1, Type 0, BuildingBlock: OJICUG_clean_sbu_0, # of connection points: 6
#     Node 2, Type 0, BuildingBlock: OJICUG_clean_sbu_0, # of connection points: 6
#     Node 3, Type 0, BuildingBlock: OJICUG_clean_sbu_0, # of connection points: 6
#     Node 4, Type 0, BuildingBlock: OJICUG_clean_sbu_0, # of connection points: 6
#     Node 5, Type 0, BuildingBlock: OJICUG_clean_sbu_0, # of connection points: 6
#     Node 6, Type 0, BuildingBlock: OJICUG_clean_sbu_0, # of connection points: 6
#     Node 7, Type 0, BuildingBlock: OJICUG_clean_sbu_0, # of connection points: 6
#     Node 8, Type 0, BuildingBlock: OJICUG_clean_sbu_0, # of connection points: 6
#     Node 9, Type 0, BuildingBlock: OJICUG_clean_sbu_0, # of connection points: 6
#     Node 10, Type 0, BuildingBlock: OJICUG_clean_sbu_0, # of connection points: 6
#     Node 11, Type 0, BuildingBlock: OJICUG_clean_sbu_0, # of connection points: 6
#     Node 12, Type 0, BuildingBlock: OJICUG_clean_sbu_0, # of connection points: 6
#     Node 13, Type 0, BuildingBlock: OJICUG_clean_sbu_0, # of connection points: 6
#     Node 14, Type 0, BuildingBlock: OJICUG_clean_sbu_0, # of connection points: 6
#     Node 15, Type 0, BuildingBlock: OJICUG_clean_sbu_0, # of connection points: 6
#     Edge 16, Type (0, 0), BuildingBlock: ZUJKAS_clean_linker_0, # of connection points: 2
#     Edge 17, Type (0, 0), BuildingBlock: ZUJKAS_clean_linker_0, # of connection points: 2
#     Edge 18, Type (0, 0), BuildingBlock: ZUJKAS_clean_linker_0, # of connection points: 2
#     Edge 19, Type (0, 0), BuildingBlock: ZUJKAS_clean_linker_0, # of connection points: 2
#     Edge 20, Type (0, 0), BuildingBlock: ZUJKAS_clean_linker_0, # of connection points: 2
#     Edge 21, Type (0, 0), BuildingBlock: ZUJKAS_clean_linker_0, # of connection points: 2
#     Edge 22, Type (0, 0), BuildingBlock: ZUJKAS_clean_linker_0, # of connection points: 2
#     Edge 23, Type (0, 0), BuildingBlock: ZUJKAS_clean_linker_0, # of connection points: 2
#     Edge 24, Type (0, 0), BuildingBlock: ZUJKAS_clean_linker_0, # of connection points: 2
#     Edge 25, Type (0, 0), BuildingBlock: ZUJKAS_clean_linker_0, # of connection points: 2
#     Edge 26, Type (0, 0), BuildingBlock: ZUJKAS_clean_linker_0, # of connection points: 2
#     Edge 27, Type (0, 0), BuildingBlock: ZUJKAS_clean_linker_0, # of connection points: 2
#     Edge 28, Type (0, 0), BuildingBlock: ZUJKAS_clean_linker_0, # of connection points: 2
#     Edge 29, Type (0, 0), BuildingBlock: ZUJKAS_clean_linker_0, # of connection points: 2
#     Edge 30, Type (0, 0), BuildingBlock: ZUJKAS_clean_linker_0, # of connection points: 2
#     Edge 31, Type (0, 0), BuildingBlock: ZUJKAS_clean_linker_0, # of connection points: 2
#     Edge 32, Type (0, 0), BuildingBlock: ZUJKAS_clean_linker_0, # of connection points: 2
#     Edge 33, Type (0, 0), BuildingBlock: ZUJKAS_clean_linker_0, # of connection points: 2
#     Edge 34, Type (0, 0), BuildingBlock: ZUJKAS_clean_linker_0, # of connection points: 2
#     Edge 35, Type (0, 0), BuildingBlock: ZUJKAS_clean_linker_0, # of connection points: 2
#     Edge 36, Type (0, 0), BuildingBlock: ZUJKAS_clean_linker_0, # of connection points: 2
#     Edge 37, Type (0, 0), BuildingBlock: ZUJKAS_clean_linker_0, # of connection points: 2
#     Edge 38, Type (0, 0), BuildingBlock: ZUJKAS_clean_linker_0, # of connection points: 2
#     Edge 39, Type (0, 0), BuildingBlock: ZUJKAS_clean_linker_0, # of connection points: 2
#     Edge 40, Type (0, 0), BuildingBlock: ZUJKAS_clean_linker_0, # of connection points: 2
#     Edge 41, Type (0, 0), BuildingBlock: ZUJKAS_clean_linker_0, # of connection points: 2
#     Edge 42, Type (0, 0), BuildingBlock: ZUJKAS_clean_linker_0, # of connection points: 2
#     Edge 43, Type (0, 0), BuildingBlock: ZUJKAS_clean_linker_0, # of connection points: 2
#     Edge 44, Type (0, 0), BuildingBlock: ZUJKAS_clean_linker_0, # of connection points: 2
#     Edge 45, Type (0, 0), BuildingBlock: ZUJKAS_clean_linker_0, # of connection points: 2
#     Edge 46, Type (0, 0), BuildingBlock: ZUJKAS_clean_linker_0, # of connection points: 2
#     Edge 47, Type (0, 0), BuildingBlock: ZUJKAS_clean_linker_0, # of connection points: 2
#     Edge 48, Type (0, 0), BuildingBlock: ZUJKAS_clean_linker_0, # of connection points: 2
#     Edge 49, Type (0, 0), BuildingBlock: ZUJKAS_clean_linker_0, # of connection points: 2
#     Edge 50, Type (0, 0), BuildingBlock: ZUJKAS_clean_linker_0, # of connection points: 2
#     Edge 51, Type (0, 0), BuildingBlock: ZUJKAS_clean_linker_0, # of connection points: 2
#     Edge 52, Type (0, 0), BuildingBlock: ZUJKAS_clean_linker_0, # of connection points: 2
#     Edge 53, Type (0, 0), BuildingBlock: ZUJKAS_clean_linker_0, # of connection points: 2
#     Edge 54, Type (0, 0), BuildingBlock: ZUJKAS_clean_linker_0, # of connection points: 2
#     Edge 55, Type (0, 0), BuildingBlock: ZUJKAS_clean_linker_0, # of connection points: 2
#     Edge 56, Type (0, 0), BuildingBlock: ZUJKAS_clean_linker_0, # of connection points: 2
#     Edge 57, Type (0, 0), BuildingBlock: ZUJKAS_clean_linker_0, # of connection points: 2
#     Edge 58, Type (0, 0), BuildingBlock: ZUJKAS_clean_linker_0, # of connection points: 2
#     Edge 59, Type (0, 0), BuildingBlock: ZUJKAS_clean_linker_0, # of connection points: 2
#     Edge 60, Type (0, 0), BuildingBlock: ZUJKAS_clean_linker_0, # of connection points: 2
#     Edge 61, Type (0, 0), BuildingBlock: ZUJKAS_clean_linker_0, # of connection points: 2
#     Edge 62, Type (0, 0), BuildingBlock: ZUJKAS_clean_linker_0, # of connection points: 2
#     Edge 63, Type (0, 0), BuildingBlock: ZUJKAS_clean_linker_0, # of connection points: 2
# Relax obj value: 0.200
# Max RMSD: 0.231
# Mean RMSD: 0.231
data_MOF--net-vbw--node1-OJICUG_clean_sbu_0--edge1-ZUJKAS_clean_linker_0
_symmetry_space_group_name_H-M    P1
_symmetry_Int_Tables_number       1
_symmetry_cell_setting            triclinic
loop_
_symmetry_equiv_pos_as_xyz
'x, y, z'
_cell_length_a     73.378392
_cell_length_b     59.245342
_cell_length_c     36.868879
_cell_angle_alpha  90.003255
_cell_angle_beta   90.001133
_cell_angle_gamma 90.014936
loop_
_atom_site_label
_atom_site_type_symbol
_atom_site_fract_x
_atom_site_fract_y
_atom_site_fract_z
_atom_type_partial_charge
Sc0 Sc 0.14844 0.14511 0.05904 0.0
Sc1 Sc 0.12914 0.1957 0.08911 0.0
Sc2 Sc 0.11983 0.14501 0.13472 0.0
O3 O 0.13244 0.16202 0.09425 0.0
C4 C 0.11689 0.11022 0.06799 0.0
C5 C 0.12993 0.18201 0.00665 0.0
C6 C 0.08902 0.17774 0.10751 0.0
C7 C 0.17161 0.18883 0.07227 0.0
C8 C 0.15848 0.12271 0.13574 0.0
C9 C 0.12993 0.19185 0.17417 0.0
O10 O 0.12729 0.1214 0.04717 0.0
O11 O 0.12324 0.19355 0.03239 0.0
O12 O 0.09398 0.15832 0.11847 0.0
O13 O 0.17058 0.1676 0.06827 0.0
O14 O 0.14519 0.13132 0.15297 0.0
O15 O 0.13463 0.20182 0.14519 0.0
O16 O 0.1599 0.12384 0.10132 0.0
O17 O 0.15773 0.20133 0.07761 0.0
O18 O 0.12323 0.17202 0.17424 0.0
O19 O 0.14001 0.16483 0.01207 0.0
O20 O 0.11452 0.11533 0.10126 0.0
O21 O 0.10022 0.19334 0.09914 0.0
Sc22 Sc 0.32964 0.8423 0.57203 0.0
Sc23 Sc 0.3629 0.80256 0.5955 0.0
Sc24 Sc 0.35939 0.85348 0.64478 0.0
O25 O 0.35067 0.83278 0.60416 0.0
C26 C 0.35296 0.88717 0.57742 0.0
C27 C 0.35434 0.81541 0.51443 0.0
C28 C 0.39665 0.8343 0.61361 0.0
C29 C 0.32055 0.79108 0.58593 0.0
C30 C 0.31697 0.86251 0.64871 0.0
C31 C 0.36143 0.80474 0.68217 0.0
O32 O 0.34286 0.87364 0.55964 0.0
O33 O 0.36491 0.8069 0.53793 0.0
O34 O 0.38753 0.84888 0.63109 0.0
O35 O 0.31542 0.81148 0.58247 0.0
O36 O 0.33241 0.86062 0.66383 0.0
O37 O 0.3623 0.79428 0.65214 0.0
O38 O 0.31436 0.85759 0.6156 0.0
O39 O 0.33719 0.78532 0.58918 0.0
O40 O 0.36047 0.8262 0.68417 0.0
O41 O 0.34084 0.82777 0.52291 0.0
O42 O 0.35905 0.8828 0.60912 0.0
O43 O 0.38971 0.81678 0.59943 0.0
Sc44 Sc 0.14764 0.85569 0.94083 0.0
Sc45 Sc 0.12816 0.8046 0.91148 0.0
Sc46 Sc 0.11945 0.85507 0.86375 0.0
O47 O 0.13172 0.8384 0.90538 0.0
C48 C 0.11633 0.89135 0.92851 0.0
C49 C 0.12883 0.82015 0.99429 0.0
C50 C 0.0882 0.82268 0.89307 0.0
C51 C 0.1705 0.81084 0.92786 0.0
C52 C 0.15878 0.87673 0.8636 0.0
C53 C 0.12872 0.80777 0.82551 0.0
O54 O 0.12774 0.88155 0.949 0.0
O55 O 0.12441 0.80683 0.96887 0.0
O56 O 0.09346 0.84091 0.87802 0.0
O57 O 0.16903 0.83156 0.93605 0.0
O58 O 0.14474 0.86981 0.84676 0.0
O59 O 0.13121 0.79723 0.855 0.0
O60 O 0.16084 0.87429 0.89768 0.0
O61 O 0.157 0.79855 0.91876 0.0
O62 O 0.12429 0.8285 0.82434 0.0
O63 O 0.1372 0.83864 0.98863 0.0
O64 O 0.11281 0.88449 0.89652 0.0
O65 O 0.09912 0.80784 0.90536 0.0
Sc66 Sc 0.35941 0.14002 0.34962 0.0
Sc67 Sc 0.36095 0.19167 0.39673 0.0
Sc68 Sc 0.33053 0.14958 0.42389 0.0
O69 O 0.35036 0.1604 0.39004 0.0
C70 C 0.31753 0.12837 0.34806 0.0
C71 C 0.35791 0.18868 0.31099 0.0
C72 C 0.31836 0.1995 0.41142 0.0
C73 C 0.39616 0.16256 0.37603 0.0
C74 C 0.35524 0.10627 0.41768 0.0
C75 C 0.35546 0.17894 0.47827 0.0
O76 O 0.33242 0.13203 0.33163 0.0
O77 O 0.35724 0.19964 0.34058 0.0
O78 O 0.31429 0.17869 0.41312 0.0
O79 O 0.38739 0.14589 0.36326 0.0
O80 O 0.34568 0.11971 0.43672 0.0
O81 O 0.36564 0.18701 0.45366 0.0
O82 O 0.36001 0.11061 0.38509 0.0
O83 O 0.38844 0.18046 0.38724 0.0
O84 O 0.34189 0.16626 0.47126 0.0
O85 O 0.35961 0.16725 0.30987 0.0
O86 O 0.31548 0.13224 0.38174 0.0
O87 O 0.33466 0.20657 0.40804 0.0
Sc88 Sc 0.86578 0.86061 0.87019 0.0
Sc89 Sc 0.85597 0.80954 0.91509 0.0
Sc90 Sc 0.83634 0.86015 0.94553 0.0
O91 O 0.85274 0.84342 0.91033 0.0
C92 C 0.86776 0.89607 0.9363 0.0
C93 C 0.89633 0.82738 0.8988 0.0
C94 C 0.8551 0.82397 0.99817 0.0
C95 C 0.85604 0.81406 0.82955 0.0
C96 C 0.82646 0.88237 0.86855 0.0
C97 C 0.81352 0.81559 0.93091 0.0
O98 O 0.87201 0.88956 0.90447 0.0
O99 O 0.88508 0.81223 0.90873 0.0
O100 O 0.8463 0.84222 0.99301 0.0
O101 O 0.86168 0.83439 0.8296 0.0
O102 O 0.82389 0.87941 0.90238 0.0
O103 O 0.82718 0.80341 0.92255 0.0
O104 O 0.84072 0.87562 0.85219 0.0
O105 O 0.85233 0.80348 0.85849 0.0
O106 O 0.81484 0.83633 0.93894 0.0
O107 O 0.89146 0.84631 0.88564 0.0
O108 O 0.85601 0.88593 0.95556 0.0
O109 O 0.86001 0.81117 0.97239 0.0
Sc110 Sc 0.65704 0.1541 0.4303 0.0
Sc111 Sc 0.62523 0.1939 0.39901 0.0
Sc112 Sc 0.62859 0.14058 0.35634 0.0
O113 O 0.63692 0.16284 0.39527 0.0
C114 C 0.67141 0.13194 0.35677 0.0
C115 C 0.66707 0.20506 0.41172 0.0
C116 C 0.62793 0.1872 0.31297 0.0
C117 C 0.63145 0.18301 0.4828 0.0
C118 C 0.63368 0.10871 0.42572 0.0
C119 C 0.59106 0.16274 0.38237 0.0
O120 O 0.67376 0.14018 0.38816 0.0
O121 O 0.65108 0.21107 0.40256 0.0
O122 O 0.62993 0.16584 0.31366 0.0
O123 O 0.64359 0.16805 0.47743 0.0
O124 O 0.62649 0.11321 0.39509 0.0
O125 O 0.5983 0.18011 0.3965 0.0
O126 O 0.64487 0.12184 0.44153 0.0
O127 O 0.62334 0.19315 0.45713 0.0
O128 O 0.60021 0.14757 0.36615 0.0
O129 O 0.67105 0.18521 0.42197 0.0
O130 O 0.6559 0.13058 0.34166 0.0
O131 O 0.62567 0.19896 0.34141 0.0
Sc132 Sc 0.83497 0.15235 0.05885 0.0
Sc133 Sc 0.85734 0.20188 0.08589 0.0
Sc134 Sc 0.86519 0.15081 0.13298 0.0
O135 O 0.85257 0.16834 0.09254 0.0
C136 C 0.82534 0.13035 0.13591 0.0
C137 C 0.8145 0.19843 0.07267 0.0
C138 C 0.85676 0.19826 0.17195 0.0
C139 C 0.85438 0.18662 0.00372 0.0
C140 C 0.86583 0.11533 0.06684 0.0
C141 C 0.8969 0.18242 0.10361 0.0
O142 O 0.82229 0.13424 0.10259 0.0
O143 O 0.82886 0.20989 0.07855 0.0
O144 O 0.86118 0.17746 0.17293 0.0
O145 O 0.84446 0.16949 0.0104 0.0
O146 O 0.87094 0.122 0.09812 0.0
O147 O 0.88625 0.19768 0.09191 0.0
O148 O 0.85364 0.12539 0.04851 0.0
O149 O 0.86104 0.19906 0.0284 0.0
O150 O 0.89131 0.16424 0.11817 0.0
O151 O 0.81464 0.17738 0.06659 0.0
O152 O 0.8401 0.13584 0.15167 0.0
O153 O 0.85425 0.20884 0.14245 0.0
Sc154 Sc 0.65574 0.84524 0.58069 0.0
Sc155 Sc 0.62448 0.80408 0.60796 0.0
Sc156 Sc 0.62607 0.85632 0.65308 0.0
O157 O 0.63541 0.83526 0.61393 0.0
C158 C 0.66814 0.86667 0.65675 0.0
C159 C 0.66686 0.79499 0.59367 0.0
C160 C 0.6266 0.80799 0.69329 0.0
C161 C 0.63036 0.81641 0.52631 0.0
C162 C 0.63214 0.88958 0.58506 0.0
C163 C 0.58962 0.83426 0.62548 0.0
O164 O 0.67059 0.86219 0.62336 0.0
O165 O 0.65044 0.78842 0.59684 0.0
O166 O 0.62458 0.82941 0.69355 0.0
O167 O 0.6441 0.82884 0.53328 0.0
O168 O 0.6265 0.88544 0.61712 0.0
O169 O 0.59706 0.8156 0.61724 0.0
O170 O 0.64177 0.87578 0.56691 0.0
O171 O 0.62008 0.80855 0.55098 0.0
O172 O 0.59842 0.85131 0.63663 0.0
O173 O 0.67132 0.81567 0.59219 0.0
O174 O 0.65296 0.86373 0.67258 0.0
O175 O 0.62807 0.7967 0.66416 0.0
Sc176 Sc 0.65639 0.6536 0.07936 0.0
Sc177 Sc 0.62461 0.69427 0.10759 0.0
Sc178 Sc 0.62772 0.64226 0.15385 0.0
O179 O 0.63621 0.66336 0.11357 0.0
C180 C 0.63324 0.60858 0.08632 0.0
C181 C 0.63059 0.68154 0.02508 0.0
C182 C 0.59031 0.66316 0.12626 0.0
C183 C 0.66669 0.70472 0.09331 0.0
C184 C 0.67037 0.63339 0.15512 0.0
C185 C 0.62721 0.69039 0.1937 0.0
O186 O 0.64343 0.6219 0.06842 0.0
O187 O 0.62147 0.69098 0.05009 0.0
O188 O 0.59952 0.64757 0.14115 0.0
O189 O 0.67107 0.6843 0.0875 0.0
O190 O 0.65503 0.63454 0.17096 0.0
O191 O 0.62658 0.70153 0.16431 0.0
O192 O 0.67256 0.63886 0.12207 0.0
O193 O 0.65044 0.71099 0.0998 0.0
O194 O 0.62736 0.66888 0.19448 0.0
O195 O 0.6436 0.6679 0.03155 0.0
O196 O 0.62704 0.61331 0.11773 0.0
O197 O 0.59748 0.68106 0.11371 0.0
Sc198 Sc 0.8344 0.35926 0.55754 0.0
Sc199 Sc 0.85692 0.30998 0.5861 0.0
Sc200 Sc 0.86419 0.36131 0.63258 0.0
O201 O 0.85188 0.34353 0.59205 0.0
C202 C 0.86509 0.39673 0.56655 0.0
C203 C 0.85345 0.32484 0.50306 0.0
C204 C 0.89617 0.33018 0.60187 0.0
C205 C 0.8142 0.31271 0.57392 0.0
C206 C 0.82399 0.38131 0.63413 0.0
C207 C 0.85742 0.31425 0.67249 0.0
O208 O 0.85239 0.38719 0.54887 0.0
O209 O 0.8583 0.3116 0.52826 0.0
O210 O 0.89037 0.3471 0.61973 0.0
O211 O 0.81468 0.33311 0.56343 0.0
O212 O 0.83906 0.37678 0.64947 0.0
O213 O 0.8566 0.30316 0.64313 0.0
O214 O 0.82075 0.3765 0.60116 0.0
O215 O 0.82828 0.3017 0.58363 0.0
O216 O 0.85935 0.33558 0.67339 0.0
O217 O 0.84515 0.34332 0.50905 0.0
O218 O 0.87074 0.3895 0.59711 0.0
O219 O 0.88579 0.31559 0.58729 0.0
Sc220 Sc 0.656 0.34593 0.9261 0.0
Sc221 Sc 0.62423 0.30513 0.89819 0.0
Sc222 Sc 0.62523 0.35854 0.85573 0.0
O223 O 0.63511 0.33654 0.89337 0.0
C224 C 0.63154 0.38995 0.92597 0.0
C225 C 0.63353 0.31453 0.98092 0.0
C226 C 0.5892 0.33583 0.88777 0.0
C227 C 0.66692 0.29613 0.90286 0.0
C228 C 0.66735 0.36976 0.85144 0.0
C229 C 0.62335 0.31202 0.8122 0.0
O230 O 0.64245 0.37647 0.94179 0.0
O231 O 0.62403 0.30528 0.95635 0.0
O232 O 0.59748 0.35142 0.87072 0.0
O233 O 0.67091 0.31622 0.91211 0.0
O234 O 0.65184 0.36808 0.83646 0.0
O235 O 0.62275 0.30011 0.84075 0.0
O236 O 0.67034 0.36333 0.88372 0.0
O237 O 0.65066 0.28931 0.89784 0.0
O238 O 0.62474 0.33343 0.81278 0.0
O239 O 0.64556 0.32935 0.97408 0.0
O240 O 0.62478 0.38608 0.89468 0.0
O241 O 0.59709 0.31823 0.89959 0.0
Sc242 Sc 0.86906 0.65158 0.37052 0.0
Sc243 Sc 0.85806 0.70237 0.41476 0.0
Sc244 Sc 0.83868 0.65141 0.44388 0.0
O245 O 0.85535 0.66849 0.40985 0.0
C246 C 0.83034 0.62884 0.36653 0.0
C247 C 0.85913 0.69788 0.32955 0.0
C248 C 0.81536 0.69491 0.42693 0.0
C249 C 0.89886 0.68519 0.40039 0.0
C250 C 0.87054 0.61642 0.43722 0.0
C251 C 0.85591 0.68845 0.49749 0.0
O252 O 0.84426 0.63686 0.35053 0.0
O253 O 0.85426 0.70813 0.35811 0.0
O254 O 0.81677 0.674 0.43369 0.0
O255 O 0.89435 0.66588 0.38818 0.0
O256 O 0.8591 0.62701 0.4566 0.0
O257 O 0.86204 0.70076 0.47215 0.0
O258 O 0.87448 0.6224 0.40493 0.0
O259 O 0.88731 0.70041 0.40864 0.0
O260 O 0.84669 0.67059 0.49161 0.0
O261 O 0.86582 0.67806 0.33009 0.0
O262 O 0.82783 0.63072 0.40059 0.0
O263 O 0.82906 0.70769 0.42167 0.0
Sc264 Sc 0.35969 0.35504 0.85038 0.0
Sc265 Sc 0.36046 0.30199 0.89388 0.0
Sc266 Sc 0.32916 0.3434 0.92186 0.0
O267 O 0.34976 0.33348 0.8887 0.0
C268 C 0.35367 0.38765 0.91901 0.0
C269 C 0.39565 0.33227 0.88243 0.0
C270 C 0.35229 0.31316 0.97691 0.0
C271 C 0.36114 0.30817 0.80772 0.0
C272 C 0.31733 0.36574 0.84628 0.0
C273 C 0.31798 0.29294 0.90166 0.0
O274 O 0.36085 0.38295 0.88844 0.0
O275 O 0.38769 0.31493 0.89505 0.0
O276 O 0.34079 0.3287 0.97043 0.0
O277 O 0.35965 0.32959 0.80788 0.0
O278 O 0.31416 0.35891 0.87832 0.0
O279 O 0.33401 0.28623 0.89409 0.0
O280 O 0.33307 0.36497 0.83202 0.0
O281 O 0.3619 0.29654 0.83655 0.0
O282 O 0.31433 0.31298 0.91163 0.0
O283 O 0.38742 0.34763 0.86479 0.0
O284 O 0.34229 0.37476 0.93475 0.0
O285 O 0.3606 0.30266 0.95194 0.0
Sc286 Sc 0.14915 0.64522 0.43642 0.0
Sc287 Sc 0.13034 0.69688 0.41095 0.0
Sc288 Sc 0.11832 0.64751 0.36483 0.0
O289 O 0.13255 0.6633 0.40416 0.0
C290 C 0.15626 0.62417 0.35778 0.0
C291 C 0.17309 0.68785 0.42161 0.0
C292 C 0.12832 0.6946 0.32624 0.0
C293 C 0.13323 0.68188 0.49222 0.0
C294 C 0.11693 0.61158 0.43016 0.0
C295 C 0.08927 0.68067 0.39698 0.0
O296 O 0.15815 0.62371 0.39216 0.0
O297 O 0.15939 0.70106 0.41981 0.0
O298 O 0.12044 0.67543 0.3266 0.0
O299 O 0.14328 0.66497 0.48482 0.0
O300 O 0.11408 0.61705 0.39718 0.0
O301 O 0.10113 0.69591 0.4033 0.0
O302 O 0.12757 0.62265 0.45066 0.0
O303 O 0.12551 0.69371 0.46802 0.0
O304 O 0.09336 0.66095 0.38586 0.0
O305 O 0.17159 0.66658 0.42412 0.0
O306 O 0.14298 0.63409 0.34238 0.0
O307 O 0.13489 0.70353 0.35465 0.0
Sc308 Sc 0.33009 0.65134 0.06867 0.0
Sc309 Sc 0.36196 0.69204 0.09721 0.0
Sc310 Sc 0.35855 0.64001 0.1435 0.0
O311 O 0.35022 0.66112 0.10309 0.0
C312 C 0.31573 0.63146 0.14428 0.0
C313 C 0.31997 0.70269 0.08419 0.0
C314 C 0.35988 0.6878 0.18359 0.0
C315 C 0.35566 0.67909 0.01422 0.0
C316 C 0.35324 0.60616 0.07628 0.0
C317 C 0.39607 0.66083 0.11502 0.0
O318 O 0.31348 0.63774 0.11164 0.0
O319 O 0.33602 0.70895 0.09257 0.0
O320 O 0.3581 0.66643 0.18437 0.0
O321 O 0.34343 0.66439 0.02057 0.0
O322 O 0.35993 0.61125 0.10712 0.0
O323 O 0.38894 0.6782 0.1006 0.0
O324 O 0.34252 0.61913 0.05896 0.0
O325 O 0.36382 0.68972 0.03931 0.0
O326 O 0.38685 0.646 0.13189 0.0
O327 O 0.31595 0.68254 0.07554 0.0
O328 O 0.33121 0.63159 0.15971 0.0
O329 O 0.36163 0.69883 0.15429 0.0
Sc330 Sc 0.14917 0.3541 0.55907 0.0
Sc331 Sc 0.12856 0.30397 0.5887 0.0
Sc332 Sc 0.1199 0.35507 0.63359 0.0
O333 O 0.13254 0.33761 0.59373 0.0
C334 C 0.15892 0.37606 0.63627 0.0
C335 C 0.17138 0.30962 0.57483 0.0
C336 C 0.12793 0.30788 0.67385 0.0
C337 C 0.13071 0.3177 0.50599 0.0
C338 C 0.11879 0.39048 0.56736 0.0
C339 C 0.08883 0.32382 0.60335 0.0
O340 O 0.16057 0.37485 0.6019 0.0
O341 O 0.15728 0.29751 0.58025 0.0
O342 O 0.12185 0.32802 0.67348 0.0
O343 O 0.14067 0.33494 0.51177 0.0
O344 O 0.11596 0.38504 0.60032 0.0
O345 O 0.09949 0.30746 0.59619 0.0
O346 O 0.12887 0.37886 0.54652 0.0
O347 O 0.12399 0.30594 0.53143 0.0
O348 O 0.0941 0.34298 0.61485 0.0
O349 O 0.17068 0.33072 0.56897 0.0
O350 O 0.14542 0.3677 0.65322 0.0
O351 O 0.13269 0.29768 0.64517 0.0
H352 H 0.16207 0.12057 0.2096 0.0
H353 H 0.18987 0.11301 0.24372 0.0
H354 H 0.21793 0.09639 0.14453 0.0
H355 H 0.19026 0.10428 0.10987 0.0
H356 H 0.21525 0.07652 0.25044 0.0
H357 H 0.24498 0.15235 0.18366 0.0
H358 H 0.22104 0.14568 0.1811 0.0
H359 H 0.23714 0.13055 0.15361 0.0
C360 C 0.17402 0.11488 0.19497 0.0
C361 C 0.17399 0.11348 0.15684 0.0
C362 C 0.1899 0.11051 0.21461 0.0
C363 C 0.20602 0.10463 0.19654 0.0
C364 C 0.20568 0.10134 0.15886 0.0
H365 H 0.31718 0.11433 0.27734 0.0
H366 H 0.29072 0.10451 0.24047 0.0
C367 C 0.18982 0.10579 0.13913 0.0
C368 C 0.22345 0.1044 0.2167 0.0
H369 H 0.26316 0.13373 0.22649 0.0
C370 C 0.22583 0.08887 0.24507 0.0
C371 C 0.23714 0.12065 0.2097 0.0
C372 C 0.23498 0.1384 0.18059 0.0
C373 C 0.24157 0.08924 0.26677 0.0
C374 C 0.25506 0.10581 0.26021 0.0
C375 C 0.25283 0.12098 0.23134 0.0
C376 C 0.2712 0.10871 0.28392 0.0
C377 C 0.24363 0.07189 0.29642 0.0
C378 C 0.26903 0.11412 0.32073 0.0
C379 C 0.28415 0.11972 0.34198 0.0
C380 C 0.30171 0.12027 0.32668 0.0
C381 C 0.30386 0.11419 0.29002 0.0
C382 C 0.28876 0.10851 0.26888 0.0
H383 H 0.23529 0.05662 0.29086 0.0
H384 H 0.25809 0.06674 0.2997 0.0
H385 H 0.23888 0.07924 0.32244 0.0
H386 H 0.25557 0.11492 0.3327 0.0
H387 H 0.28196 0.1244 0.37005 0.0
H388 H 0.16202 0.8785 0.78965 0.0
H389 H 0.18996 0.88416 0.75501 0.0
H390 H 0.21904 0.89965 0.85352 0.0
H391 H 0.19123 0.89365 0.8887 0.0
H392 H 0.21682 0.91874 0.74717 0.0
H393 H 0.24351 0.84173 0.81546 0.0
H394 H 0.2199 0.85 0.81821 0.0
H395 H 0.23675 0.86427 0.84513 0.0
C396 C 0.17423 0.88359 0.804 0.0
C397 C 0.17444 0.88515 0.84211 0.0
C398 C 0.19019 0.88685 0.78408 0.0
C399 C 0.2066 0.8918 0.80185 0.0
C400 C 0.20654 0.89538 0.83945 0.0
H401 H 0.31717 0.87622 0.71967 0.0
H402 H 0.29108 0.88688 0.75701 0.0
C403 C 0.19061 0.89201 0.85947 0.0
C404 C 0.22395 0.89071 0.78152 0.0
H405 H 0.26239 0.85886 0.77216 0.0
C406 C 0.22689 0.90579 0.75276 0.0
C407 C 0.23696 0.87368 0.78882 0.0
C408 C 0.23414 0.85635 0.81835 0.0
C409 C 0.24253 0.90423 0.73095 0.0
C410 C 0.25534 0.8869 0.73783 0.0
C411 C 0.25257 0.87217 0.76708 0.0
C412 C 0.27126 0.88284 0.71407 0.0
C413 C 0.24522 0.92111 0.7008 0.0
C414 C 0.26875 0.87704 0.67751 0.0
C415 C 0.28363 0.87091 0.65603 0.0
C416 C 0.3013 0.87026 0.67083 0.0
C417 C 0.30378 0.87647 0.70735 0.0
C418 C 0.28889 0.88263 0.72876 0.0
H419 H 0.2374 0.93686 0.70581 0.0
H420 H 0.25985 0.92546 0.6975 0.0
H421 H 0.24029 0.9137 0.67495 0.0
H422 H 0.2552 0.87655 0.66587 0.0
H423 H 0.28119 0.86617 0.62808 0.0
H424 H 0.66813 0.88104 0.72738 0.0
H425 H 0.6943 0.89261 0.76383 0.0
H426 H 0.72973 0.88244 0.67194 0.0
H427 H 0.70366 0.87121 0.63505 0.0
H428 H 0.72307 0.86535 0.77892 0.0
H429 H 0.74761 0.94279 0.71037 0.0
H430 H 0.72523 0.93111 0.70238 0.0
H431 H 0.74484 0.91941 0.67993 0.0
C432 C 0.68144 0.88154 0.71472 0.0
C433 C 0.68378 0.87511 0.67827 0.0
C434 C 0.69637 0.88824 0.73559 0.0
C435 C 0.7139 0.88873 0.72043 0.0
C436 C 0.71625 0.88275 0.68392 0.0
H437 H 0.8233 0.88322 0.79452 0.0
H438 H 0.79543 0.88931 0.75975 0.0
C439 C 0.70133 0.87613 0.66296 0.0
C440 C 0.72994 0.89307 0.74375 0.0
H441 H 0.76863 0.92482 0.75122 0.0
C442 C 0.73288 0.8786 0.77326 0.0
C443 C 0.74274 0.91029 0.73609 0.0
C444 C 0.73988 0.92693 0.70567 0.0
C445 C 0.74863 0.88025 0.79451 0.0
C446 C 0.76164 0.89714 0.78641 0.0
C447 C 0.75856 0.91197 0.75739 0.0
C448 C 0.77908 0.89835 0.80634 0.0
C449 C 0.75161 0.86322 0.82444 0.0
C450 C 0.77929 0.90261 0.84374 0.0
C451 C 0.79516 0.89901 0.8638 0.0
C452 C 0.81111 0.89122 0.84668 0.0
C453 C 0.81125 0.88905 0.80866 0.0
C454 C 0.79534 0.89255 0.78868 0.0
H455 H 0.74211 0.84867 0.82234 0.0
H456 H 0.7658 0.85671 0.82392 0.0
H457 H 0.74934 0.87147 0.85108 0.0
H458 H 0.76691 0.9075 0.8577 0.0
H459 H 0.79462 0.90115 0.89296 0.0
H460 H 0.67586 0.09386 0.31585 0.0
H461 H 0.70339 0.08223 0.2829 0.0
H462 H 0.73015 0.14372 0.31654 0.0
H463 H 0.70336 0.15426 0.35161 0.0
H464 H 0.71931 0.0969 0.22909 0.0
H465 H 0.7705 0.10307 0.33659 0.0
H466 H 0.74649 0.10465 0.34661 0.0
H467 H 0.75921 0.12977 0.33488 0.0
C468 C 0.68779 0.10462 0.31651 0.0
C469 C 0.68766 0.12478 0.33647 0.0
C470 C 0.70351 0.098 0.29776 0.0
C471 C 0.71917 0.11173 0.29801 0.0
C472 C 0.7187 0.13221 0.31724 0.0
H473 H 0.7896 0.13951 0.1271 0.0
H474 H 0.76451 0.12909 0.16649 0.0
C475 C 0.70328 0.13842 0.3369 0.0
C476 C 0.73546 0.10586 0.27588 0.0
H477 H 0.78168 0.11164 0.27501 0.0
C478 C 0.73297 0.09958 0.23947 0.0
C479 C 0.75345 0.10825 0.28936 0.0
C480 C 0.7575 0.1115 0.32915 0.0
C481 C 0.74778 0.09773 0.21561 0.0
C482 C 0.76545 0.10366 0.22788 0.0
C483 C 0.76813 0.1078 0.26501 0.0
C484 C 0.78075 0.10817 0.20236 0.0
C485 C 0.74417 0.08968 0.17744 0.0
C486 C 0.79858 0.10077 0.20997 0.0
C487 C 0.8132 0.10759 0.18811 0.0
C488 C 0.81015 0.12148 0.15786 0.0
C489 C 0.7923 0.12836 0.14978 0.0
C490 C 0.77786 0.12217 0.17215 0.0
H491 H 0.73329 0.07663 0.1773 0.0
H492 H 0.73922 0.10402 0.16077 0.0
H493 H 0.75656 0.08245 0.16465 0.0
H494 H 0.80126 0.09013 0.23325 0.0
H495 H 0.82687 0.10216 0.19496 0.0
H496 H 0.82705 0.62916 0.29246 0.0
H497 H 0.79942 0.62192 0.25742 0.0
H498 H 0.77164 0.60074 0.35464 0.0
H499 H 0.79909 0.60817 0.39015 0.0
H500 H 0.77447 0.58448 0.24786 0.0
H501 H 0.7438 0.65765 0.32029 0.0
H502 H 0.76787 0.65157 0.32189 0.0
H503 H 0.7522 0.63531 0.34868 0.0
C504 C 0.81523 0.62246 0.30637 0.0
C505 C 0.81521 0.61966 0.34429 0.0
C506 C 0.79944 0.61833 0.28623 0.0
C507 C 0.78343 0.61128 0.30363 0.0
C508 C 0.7838 0.60659 0.34089 0.0
H509 H 0.67149 0.6187 0.22563 0.0
H510 H 0.69845 0.60966 0.2617 0.0
C511 C 0.79954 0.6108 0.36109 0.0
C512 C 0.76598 0.61125 0.28353 0.0
H513 H 0.7256 0.63948 0.27685 0.0
C514 C 0.7637 0.59637 0.25428 0.0
C515 C 0.75203 0.62687 0.29198 0.0
C516 C 0.75406 0.64391 0.3222 0.0
C517 C 0.74777 0.59672 0.23315 0.0
C518 C 0.73398 0.61265 0.24118 0.0
C519 C 0.73615 0.62721 0.27087 0.0
C520 C 0.71761 0.61555 0.21812 0.0
C521 C 0.74582 0.57999 0.20254 0.0
C522 C 0.71944 0.6218 0.1816 0.0
C523 C 0.70407 0.62697 0.16086 0.0
C524 C 0.68654 0.62623 0.17635 0.0
C525 C 0.68475 0.61951 0.21279 0.0
C526 C 0.70014 0.61428 0.23347 0.0
H527 H 0.7545 0.56488 0.20695 0.0
H528 H 0.73144 0.57446 0.19939 0.0
H529 H 0.75021 0.58808 0.17684 0.0
H530 H 0.73281 0.62346 0.16945 0.0
H531 H 0.706 0.63216 0.13296 0.0
H532 H 0.66974 0.37541 0.77772 0.0
H533 H 0.69694 0.38546 0.74274 0.0
H534 H 0.72721 0.39427 0.84196 0.0
H535 H 0.70031 0.38393 0.87712 0.0
H536 H 0.72158 0.42362 0.74311 0.0
H537 H 0.75435 0.34362 0.7876 0.0
H538 H 0.73033 0.34895 0.79344 0.0
H539 H 0.74661 0.36157 0.8237 0.0
C540 C 0.68211 0.37977 0.79212 0.0
C541 C 0.68294 0.3785 0.83019 0.0
C542 C 0.69761 0.38556 0.7721 0.0
C543 C 0.7141 0.39022 0.78983 0.0
C544 C 0.71467 0.39032 0.82781 0.0
H545 H 0.82459 0.39262 0.70625 0.0
H546 H 0.79835 0.40006 0.74516 0.0
C547 C 0.69927 0.3844 0.84783 0.0
C548 C 0.73105 0.39312 0.76869 0.0
H549 H 0.77191 0.36796 0.75142 0.0
C550 C 0.73265 0.41155 0.74497 0.0
C551 C 0.74541 0.37729 0.77123 0.0
C552 C 0.74411 0.35663 0.7951 0.0
C553 C 0.74834 0.41456 0.72366 0.0
C554 C 0.76258 0.39854 0.7259 0.0
C555 C 0.76105 0.38035 0.75006 0.0
C556 C 0.77862 0.399 0.70158 0.0
C557 C 0.74956 0.43484 0.69906 0.0
C558 C 0.77627 0.39659 0.66404 0.0
C559 C 0.79124 0.39236 0.64168 0.0
C560 C 0.80883 0.39019 0.65653 0.0
C561 C 0.81126 0.39405 0.69388 0.0
C562 C 0.79627 0.39834 0.7162 0.0
H563 H 0.74065 0.44877 0.70868 0.0
H564 H 0.76378 0.44115 0.69713 0.0
H565 H 0.74497 0.42999 0.67146 0.0
H566 H 0.76275 0.39656 0.65227 0.0
H567 H 0.78882 0.38951 0.61306 0.0
H568 H 0.31819 0.38248 0.77693 0.0
H569 H 0.2923 0.39406 0.7396 0.0
H570 H 0.2557 0.37947 0.82808 0.0
H571 H 0.2814 0.36822 0.86577 0.0
H572 H 0.26465 0.36593 0.72048 0.0
H573 H 0.23646 0.43987 0.79293 0.0
H574 H 0.25913 0.4292 0.80141 0.0
H575 H 0.23966 0.41606 0.82231 0.0
C576 C 0.30467 0.38205 0.78868 0.0
C577 C 0.3019 0.37433 0.82436 0.0
C578 C 0.2899 0.38874 0.76731 0.0
C579 C 0.27213 0.38798 0.78127 0.0
C580 C 0.26935 0.38077 0.81707 0.0
H581 H 0.1636 0.37529 0.70994 0.0
H582 H 0.19167 0.38305 0.74312 0.0
C583 C 0.28408 0.37411 0.83848 0.0
C584 C 0.2563 0.39216 0.75733 0.0
H585 H 0.21605 0.42083 0.75166 0.0
C586 C 0.25419 0.37826 0.72682 0.0
C587 C 0.24268 0.4082 0.76582 0.0
C588 C 0.24467 0.42433 0.79722 0.0
C589 C 0.23835 0.37908 0.70567 0.0
C590 C 0.22441 0.39454 0.71495 0.0
C591 C 0.22679 0.40904 0.74465 0.0
C592 C 0.20669 0.39427 0.69595 0.0
C593 C 0.23625 0.36252 0.67478 0.0
C594 C 0.20563 0.39906 0.65879 0.0
C595 C 0.18963 0.3945 0.63962 0.0
C596 C 0.17441 0.38521 0.65743 0.0
C597 C 0.17508 0.38228 0.69528 0.0
C598 C 0.19111 0.38675 0.71435 0.0
H599 H 0.24673 0.349 0.6756 0.0
H600 H 0.22256 0.35453 0.67539 0.0
H601 H 0.23766 0.37161 0.64862 0.0
H602 H 0.21745 0.40527 0.64429 0.0
H603 H 0.18952 0.39726 0.61058 0.0
H604 H 0.2798 0.63436 0.12458 0.0
H605 H 0.2531 0.62587 0.16168 0.0
H606 H 0.28801 0.60406 0.24897 0.0
H607 H 0.31486 0.61289 0.2124 0.0
H608 H 0.24073 0.58648 0.19611 0.0
H609 H 0.25756 0.65391 0.29556 0.0
H610 H 0.26882 0.65164 0.25223 0.0
H611 H 0.27516 0.63328 0.28892 0.0
C612 C 0.28186 0.62762 0.15158 0.0
C613 C 0.29952 0.62457 0.16564 0.0
C614 C 0.26655 0.62273 0.17271 0.0
C615 C 0.26859 0.61469 0.20825 0.0
C616 C 0.28615 0.61068 0.22184 0.0
H617 H 0.18791 0.60392 0.38017 0.0
H618 H 0.21505 0.59673 0.34368 0.0
C619 C 0.30148 0.61569 0.20083 0.0
C620 C 0.25233 0.61158 0.23154 0.0
H621 H 0.23164 0.63187 0.30771 0.0
C622 C 0.23876 0.5963 0.22064 0.0
C623 C 0.2498 0.62445 0.26347 0.0
C624 C 0.2635 0.64189 0.27568 0.0
C625 C 0.22265 0.59361 0.2408 0.0
C626 C 0.22002 0.60676 0.27237 0.0
C627 C 0.23376 0.62167 0.28363 0.0
C628 C 0.20267 0.60674 0.29293 0.0
C629 C 0.20861 0.57677 0.22818 0.0
C630 C 0.18654 0.61414 0.27631 0.0
C631 C 0.17096 0.61826 0.29707 0.0
C632 C 0.17128 0.61528 0.33495 0.0
C633 C 0.18715 0.60649 0.35113 0.0
C634 C 0.20271 0.60237 0.33032 0.0
H635 H 0.2148 0.56352 0.21076 0.0
H636 H 0.20175 0.56853 0.25153 0.0
H637 H 0.1981 0.58565 0.21191 0.0
H638 H 0.1863 0.61803 0.24761 0.0
H639 H 0.15903 0.62503 0.28364 0.0
H640 H 0.15093 0.17341 0.94661 0.0
H641 H 0.15026 0.19367 0.88863 0.0
H642 H 0.10352 0.23159 0.92468 0.0
H643 H 0.10401 0.21148 0.98251 0.0
H644 H 0.10196 0.21606 0.85024 0.0
H645 H 0.16617 0.26146 0.88389 0.0
H646 H 0.16705 0.23118 0.88674 0.0
H647 H 0.15289 0.2467 0.91762 0.0
C648 C 0.14027 0.1857 0.94192 0.0
C649 C 0.1276 0.19092 0.96932 0.0
C650 C 0.14002 0.19742 0.90891 0.0
C651 C 0.12705 0.21442 0.90271 0.0
C652 C 0.11373 0.21866 0.92907 0.0
H653 H 0.12085 0.32315 0.74313 0.0
H654 H 0.12071 0.30091 0.79938 0.0
C655 C 0.11403 0.20711 0.9621 0.0
C656 C 0.12776 0.22852 0.86951 0.0
H657 H 0.15327 0.2686 0.82617 0.0
C658 C 0.11318 0.22751 0.84493 0.0
C659 C 0.14231 0.2437 0.86298 0.0
C660 C 0.15796 0.24606 0.88926 0.0
C661 C 0.11295 0.24099 0.81358 0.0
C662 C 0.12761 0.25586 0.80679 0.0
C663 C 0.14207 0.25713 0.83156 0.0
C664 C 0.12838 0.26962 0.77333 0.0
C665 C 0.09703 0.23937 0.78784 0.0
C666 C 0.13302 0.25941 0.74037 0.0
C667 C 0.13324 0.272 0.70838 0.0
C668 C 0.12872 0.29513 0.70858 0.0
C669 C 0.12436 0.30541 0.74191 0.0
C670 C 0.12428 0.29276 0.77405 0.0
H671 H 0.08565 0.22924 0.79928 0.0
H672 H 0.0919 0.25649 0.78107 0.0
H673 H 0.10157 0.23132 0.76219 0.0
H674 H 0.13632 0.24159 0.73937 0.0
H675 H 0.13667 0.26342 0.68335 0.0
H676 H 0.38494 0.79906 0.48124 0.0
H677 H 0.38669 0.77976 0.42271 0.0
H678 H 0.32957 0.79293 0.40474 0.0
H679 H 0.32793 0.81299 0.46242 0.0
H680 H 0.36988 0.74232 0.40536 0.0
H681 H 0.349 0.80782 0.30691 0.0
H682 H 0.35477 0.81449 0.35324 0.0
H683 H 0.33237 0.80416 0.34203 0.0
C684 C 0.37288 0.79839 0.46432 0.0
C685 C 0.35633 0.80768 0.4764 0.0
C686 C 0.37387 0.78724 0.43096 0.0
C687 C 0.35829 0.78497 0.40908 0.0
C688 C 0.34189 0.79491 0.42055 0.0
H689 H 0.34484 0.67643 0.24946 0.0
H690 H 0.34418 0.69949 0.30472 0.0
C691 C 0.34097 0.80639 0.45366 0.0
C692 C 0.35888 0.77064 0.37594 0.0
H693 H 0.3484 0.7697 0.28574 0.0
C694 C 0.36533 0.74839 0.37912 0.0
C695 C 0.35306 0.77854 0.34162 0.0
C696 C 0.3471 0.80263 0.33563 0.0
C697 C 0.36605 0.73381 0.3491 0.0
C698 C 0.35955 0.74143 0.31509 0.0
C699 C 0.35319 0.76373 0.31187 0.0
C700 C 0.35996 0.72701 0.28204 0.0
C701 C 0.37421 0.71063 0.35406 0.0
C702 C 0.36862 0.73496 0.25061 0.0
C703 C 0.36865 0.72208 0.21894 0.0
C704 C 0.36017 0.70079 0.21795 0.0
C705 C 0.35167 0.69264 0.24951 0.0
C706 C 0.35137 0.70577 0.28116 0.0
H707 H 0.38326 0.70994 0.3782 0.0
H708 H 0.3631 0.6982 0.35821 0.0
H709 H 0.3822 0.70548 0.32987 0.0
H710 H 0.37536 0.75123 0.25054 0.0
H711 H 0.37543 0.72882 0.19518 0.0
H712 H 0.147 0.73377 0.31342 0.0
H713 H 0.14617 0.75732 0.25915 0.0
H714 H 0.11049 0.70939 0.20719 0.0
H715 H 0.11109 0.68566 0.2616 0.0
H716 H 0.15578 0.74664 0.18649 0.0
H717 H 0.0828 0.77016 0.19965 0.0
H718 H 0.09564 0.75785 0.23646 0.0
H719 H 0.08731 0.74035 0.20029 0.0
C720 C 0.139 0.72812 0.29047 0.0
C721 C 0.12899 0.70784 0.29206 0.0
C722 C 0.13856 0.74164 0.25945 0.0
C723 C 0.12801 0.7353 0.22945 0.0
C724 C 0.11844 0.71479 0.23038 0.0
H725 H 0.10662 0.78595 0.01661 0.0
H726 H 0.10619 0.76772 0.0758 0.0
C727 C 0.11892 0.70116 0.2614 0.0
C728 C 0.12711 0.75021 0.19719 0.0
H729 H 0.09782 0.78147 0.14563 0.0
C730 C 0.14315 0.7544 0.17764 0.0
C731 C 0.11061 0.76036 0.1859 0.0
C732 C 0.09312 0.75717 0.20678 0.0
C733 C 0.14305 0.76789 0.14631 0.0
C734 C 0.1265 0.77786 0.13475 0.0
C735 C 0.1105 0.77393 0.15467 0.0
C736 C 0.12526 0.79092 0.1005 0.0
C737 C 0.16051 0.77062 0.1251 0.0
C738 C 0.13553 0.81067 0.09515 0.0
C739 C 0.13584 0.82121 0.06112 0.0
C740 C 0.12586 0.81215 0.03197 0.0
C741 C 0.11464 0.79327 0.03829 0.0
C742 C 0.11434 0.7828 0.07218 0.0
H743 H 0.17094 0.75798 0.13313 0.0
H744 H 0.15795 0.76897 0.09553 0.0
H745 H 0.16621 0.78767 0.13019 0.0
H746 H 0.14374 0.81751 0.11694 0.0
H747 H 0.14459 0.83574 0.05724 0.0
H748 H 0.37832 0.2684 0.79516 0.0
H749 H 0.37886 0.24631 0.73948 0.0
H750 H 0.34607 0.29687 0.68621 0.0
H751 H 0.34617 0.31966 0.74183 0.0
H752 H 0.3522 0.2268 0.70578 0.0
H753 H 0.38424 0.28738 0.61076 0.0
H754 H 0.38362 0.29214 0.65906 0.0
H755 H 0.36401 0.29845 0.63147 0.0
C756 C 0.37138 0.27498 0.77148 0.0
C757 C 0.3622 0.2958 0.77287 0.0
C758 C 0.37168 0.26229 0.73963 0.0
C759 C 0.36266 0.26993 0.70841 0.0
C760 C 0.35354 0.29082 0.70959 0.0
H761 H 0.3299 0.18136 0.53195 0.0
H762 H 0.33204 0.20229 0.58872 0.0
C763 C 0.35351 0.3038 0.74143 0.0
C764 C 0.3622 0.25536 0.6755 0.0
H765 H 0.37116 0.2544 0.58463 0.0
C766 C 0.35646 0.23284 0.67933 0.0
C767 C 0.36799 0.26304 0.64102 0.0
C768 C 0.37549 0.2865 0.63533 0.0
C769 C 0.35624 0.21788 0.64979 0.0
C770 C 0.3613 0.22582 0.61501 0.0
C771 C 0.36717 0.24829 0.6112 0.0
C772 C 0.36045 0.2113 0.58209 0.0
C773 C 0.35102 0.19359 0.65647 0.0
C774 C 0.37566 0.20939 0.55914 0.0
C775 C 0.37438 0.19772 0.52626 0.0
C776 C 0.35789 0.18754 0.51574 0.0
C777 C 0.34291 0.18862 0.53949 0.0
C778 C 0.34412 0.20061 0.57208 0.0
H779 H 0.3536 0.18861 0.68508 0.0
H780 H 0.33623 0.19144 0.65121 0.0
H781 H 0.35866 0.18194 0.63844 0.0
H782 H 0.38842 0.21747 0.56623 0.0
H783 H 0.38615 0.19728 0.50854 0.0
H784 H 0.87829 0.79058 0.01952 0.0
H785 H 0.87909 0.77152 0.07798 0.0
H786 H 0.83986 0.81882 0.12043 0.0
H787 H 0.83861 0.83785 0.0614 0.0
H788 H 0.88691 0.78439 0.14794 0.0
H789 H 0.81449 0.75802 0.13457 0.0
H790 H 0.82712 0.77023 0.09746 0.0
H791 H 0.81828 0.78795 0.13288 0.0
C792 C 0.86996 0.79718 0.04135 0.0
C793 C 0.85816 0.81558 0.03557 0.0
C794 C 0.87047 0.78623 0.07481 0.0
C795 C 0.85921 0.79339 0.10325 0.0
C796 C 0.84834 0.8127 0.0985 0.0
H797 H 0.83986 0.73638 0.3161 0.0
H798 H 0.83987 0.75917 0.26101 0.0
C799 C 0.8478 0.82371 0.06488 0.0
C800 C 0.85832 0.77981 0.13701 0.0
H801 H 0.82982 0.74707 0.18805 0.0
C802 C 0.87443 0.77627 0.15677 0.0
C803 C 0.84204 0.76906 0.14825 0.0
C804 C 0.82452 0.77128 0.12708 0.0
C805 C 0.87466 0.76241 0.18766 0.0
C806 C 0.8584 0.75162 0.19878 0.0
C807 C 0.84226 0.75532 0.17929 0.0
C808 C 0.85778 0.73691 0.23123 0.0
C809 C 0.89222 0.75964 0.20847 0.0
C810 C 0.86747 0.71648 0.23235 0.0
C811 C 0.86745 0.70326 0.26384 0.0
C812 C 0.85777 0.71035 0.29476 0.0
C813 C 0.8476 0.73047 0.29294 0.0
C814 C 0.84755 0.74355 0.26146 0.0
H815 H 0.90246 0.77262 0.20086 0.0
H816 H 0.88972 0.76069 0.23813 0.0
H817 H 0.89808 0.74277 0.20256 0.0
H818 H 0.87522 0.71091 0.209 0.0
H819 H 0.8754 0.68787 0.26429 0.0
H820 H 0.60107 0.2035 0.51041 0.0
H821 H 0.59873 0.22433 0.56752 0.0
H822 H 0.65369 0.20484 0.5949 0.0
H823 H 0.65577 0.18313 0.53875 0.0
H824 H 0.63389 0.20496 0.65321 0.0
H825 H 0.62103 0.28511 0.58054 0.0
H826 H 0.60386 0.26442 0.57103 0.0
H827 H 0.62708 0.25944 0.55722 0.0
C828 C 0.61251 0.20329 0.52899 0.0
C829 C 0.62863 0.19174 0.52001 0.0
C830 C 0.61125 0.21546 0.56139 0.0
C831 C 0.62626 0.21687 0.58494 0.0
C832 C 0.64197 0.20424 0.57703 0.0
H833 H 0.64007 0.32309 0.74799 0.0
H834 H 0.64124 0.30013 0.69252 0.0
C835 C 0.64311 0.19169 0.54498 0.0
C836 C 0.62581 0.23185 0.61735 0.0
H837 H 0.61732 0.28597 0.64472 0.0
C838 C 0.63033 0.22269 0.65129 0.0
C839 C 0.62167 0.25517 0.61483 0.0
C840 C 0.61834 0.26668 0.57889 0.0
C841 C 0.63046 0.23602 0.68278 0.0
C842 C 0.62519 0.25901 0.6806 0.0
C843 C 0.62107 0.2683 0.64656 0.0
C844 C 0.6238 0.2736 0.71334 0.0
C845 C 0.63672 0.22538 0.71784 0.0
C846 C 0.61314 0.26678 0.74296 0.0
C847 C 0.61273 0.27961 0.77467 0.0
C848 C 0.62255 0.29992 0.77714 0.0
C849 C 0.63238 0.30751 0.74679 0.0
C850 C 0.63308 0.29437 0.71518 0.0
H851 H 0.64591 0.21081 0.71275 0.0
H852 H 0.64401 0.23772 0.73525 0.0
H853 H 0.62469 0.21896 0.7329 0.0
H854 H 0.60528 0.25132 0.74177 0.0
H855 H 0.60479 0.27353 0.79744 0.0
H856 H 0.8428 0.3263 0.73837 0.0
H857 H 0.84191 0.30339 0.79386 0.0
H858 H 0.87175 0.25056 0.73928 0.0
H859 H 0.87162 0.27269 0.68363 0.0
H860 H 0.84642 0.23228 0.77559 0.0
H861 H 0.88031 0.29339 0.86701 0.0
H862 H 0.85977 0.3046 0.84789 0.0
H863 H 0.87876 0.29792 0.81879 0.0
C864 C 0.84919 0.30982 0.73843 0.0
C865 C 0.85724 0.30125 0.70674 0.0
C866 C 0.84882 0.29679 0.7702 0.0
C867 C 0.85707 0.27533 0.77112 0.0
C868 C 0.86524 0.26698 0.73942 0.0
H869 H 0.88389 0.20663 0.97241 0.0
H870 H 0.88493 0.22603 0.91385 0.0
C871 C 0.86519 0.27968 0.70758 0.0
C872 C 0.85691 0.26112 0.8045 0.0
H873 H 0.86725 0.26102 0.89478 0.0
C874 C 0.85111 0.23856 0.8016 0.0
C875 C 0.86326 0.26909 0.83844 0.0
C876 C 0.87106 0.29249 0.84319 0.0
C877 C 0.85154 0.2238 0.8314 0.0
C878 C 0.85713 0.23205 0.86568 0.0
C879 C 0.86288 0.25463 0.86862 0.0
C880 C 0.85716 0.21775 0.89895 0.0
C881 C 0.84654 0.19937 0.82532 0.0
C882 C 0.84141 0.20603 0.90982 0.0
C883 C 0.84104 0.19426 0.94272 0.0
C884 C 0.85621 0.19462 0.96595 0.0
C885 C 0.87207 0.20593 0.95483 0.0
C886 C 0.8726 0.21717 0.92151 0.0
H887 H 0.84894 0.19426 0.79672 0.0
H888 H 0.85448 0.18797 0.84325 0.0
H889 H 0.83182 0.197 0.83104 0.0
H890 H 0.8291 0.20675 0.89368 0.0
H891 H 0.82847 0.18618 0.95105 0.0
H892 H 0.62677 0.67427 0.26389 0.0
H893 H 0.62612 0.69649 0.32007 0.0
H894 H 0.62781 0.75797 0.25763 0.0
H895 H 0.62829 0.7362 0.20173 0.0
H896 H 0.65129 0.72886 0.34607 0.0
H897 H 0.58322 0.76692 0.32319 0.0
H898 H 0.59124 0.7427 0.29811 0.0
H899 H 0.59865 0.77062 0.28586 0.0
C900 C 0.62698 0.69251 0.26211 0.0
C901 C 0.62742 0.70338 0.22818 0.0
C902 C 0.62662 0.70518 0.29423 0.0
C903 C 0.62657 0.72887 0.29293 0.0
C904 C 0.62742 0.73972 0.25922 0.0
H905 H 0.65279 0.82221 0.46739 0.0
H906 H 0.65139 0.80196 0.40967 0.0
C907 C 0.62778 0.72716 0.22724 0.0
C908 C 0.62591 0.74245 0.32668 0.0
H909 H 0.60116 0.783 0.37044 0.0
C910 C 0.6403 0.74062 0.35154 0.0
C911 C 0.61145 0.75762 0.33387 0.0
C912 C 0.59517 0.75948 0.30905 0.0
C913 C 0.64082 0.75391 0.38308 0.0
C914 C 0.6267 0.7697 0.38955 0.0
C915 C 0.61211 0.77116 0.36509 0.0
C916 C 0.62647 0.78411 0.42245 0.0
C917 C 0.65633 0.75065 0.40947 0.0
C918 C 0.61236 0.78181 0.44781 0.0
C919 C 0.61299 0.79353 0.48066 0.0
C920 C 0.62776 0.80785 0.48879 0.0
C921 C 0.64125 0.81128 0.4622 0.0
C922 C 0.64059 0.79953 0.42931 0.0
H923 H 0.66346 0.73433 0.40505 0.0
H924 H 0.66641 0.76443 0.4058 0.0
H925 H 0.65137 0.75123 0.43792 0.0
H926 H 0.60123 0.77018 0.44286 0.0
H927 H 0.60229 0.79055 0.50032 0.0
H928 H 0.65299 0.67605 0.96611 0.0
H929 H 0.65143 0.69662 0.90863 0.0
H930 H 0.60077 0.7271 0.94187 0.0
H931 H 0.60204 0.70648 0.99914 0.0
H932 H 0.60138 0.71428 0.86859 0.0
H933 H 0.66221 0.76504 0.90622 0.0
H934 H 0.66565 0.73503 0.90688 0.0
H935 H 0.6501 0.74772 0.93849 0.0
C936 C 0.64128 0.6867 0.9609 0.0
C937 C 0.62774 0.68977 0.98748 0.0
C938 C 0.64053 0.69865 0.92819 0.0
C939 C 0.62624 0.71383 0.92147 0.0
C940 C 0.61204 0.71567 0.94673 0.0
H941 H 0.62378 0.82425 0.76329 0.0
H942 H 0.62326 0.80212 0.81966 0.0
C943 C 0.61278 0.70381 0.97944 0.0
C944 C 0.62637 0.72851 0.8889 0.0
H945 H 0.65021 0.77073 0.84714 0.0
C946 C 0.61204 0.72663 0.86389 0.0
C947 C 0.64011 0.74494 0.88327 0.0
C948 C 0.65532 0.74853 0.91024 0.0
C949 C 0.61132 0.74035 0.83289 0.0
C950 C 0.6254 0.7562 0.82657 0.0
C951 C 0.6395 0.75848 0.852 0.0
C952 C 0.62608 0.76982 0.79287 0.0
C953 C 0.59542 0.73788 0.80722 0.0
C954 C 0.62821 0.759 0.75938 0.0
C955 C 0.62855 0.77149 0.72735 0.0
C956 C 0.62683 0.79519 0.72798 0.0
C957 C 0.62506 0.80607 0.76174 0.0
C958 C 0.62477 0.79346 0.79395 0.0
H959 H 0.58361 0.72953 0.82048 0.0
H960 H 0.591 0.75458 0.79673 0.0
H961 H 0.59962 0.72735 0.78378 0.0
H962 H 0.62959 0.74082 0.758 0.0
H963 H 0.63006 0.76243 0.70201 0.0
H964 H 0.833 0.33505 0.44296 0.0
H965 H 0.83352 0.31529 0.3844 0.0
H966 H 0.87948 0.27584 0.42021 0.0
H967 H 0.87909 0.2954 0.47851 0.0
H968 H 0.88129 0.29203 0.34575 0.0
H969 H 0.8167 0.24744 0.37962 0.0
H970 H 0.81637 0.27774 0.38287 0.0
H971 H 0.83028 0.26168 0.41346 0.0
C972 C 0.84349 0.32258 0.43799 0.0
C973 C 0.85593 0.31669 0.46542 0.0
C974 C 0.84365 0.31114 0.40471 0.0
C975 C 0.85633 0.29383 0.39834 0.0
C976 C 0.8695 0.28902 0.42473 0.0
H977 H 0.86081 0.18332 0.24242 0.0
H978 H 0.86034 0.20627 0.29794 0.0
C979 C 0.86926 0.30024 0.458 0.0
C980 C 0.85544 0.27983 0.3651 0.0
H981 H 0.82992 0.23941 0.32263 0.0
C982 C 0.87003 0.2806 0.34057 0.0
C983 C 0.84086 0.26466 0.35884 0.0
C984 C 0.82519 0.26259 0.38513 0.0
C985 C 0.87032 0.26681 0.30961 0.0
C986 C 0.85564 0.25189 0.30311 0.0
C987 C 0.84113 0.25091 0.32779 0.0
C988 C 0.85496 0.2377 0.2701 0.0
C989 C 0.88638 0.26807 0.28414 0.0
C990 C 0.85172 0.24776 0.23638 0.0
C991 C 0.85187 0.23479 0.20482 0.0
C992 C 0.85534 0.2114 0.20621 0.0
C993 C 0.85814 0.20125 0.24028 0.0
C994 C 0.85788 0.21431 0.27201 0.0
H995 H 0.89798 0.27753 0.29613 0.0
H996 H 0.89107 0.25085 0.27676 0.0
H997 H 0.88217 0.27673 0.2588 0.0
H998 H 0.84928 0.26576 0.23446 0.0
H999 H 0.84958 0.24328 0.17921 0.0
H1000 H 0.66004 0.31335 0.03289 0.0
H1001 H 0.65978 0.29151 0.08915 0.0
H1002 H 0.60383 0.27275 0.06948 0.0
H1003 H 0.60426 0.29375 0.01239 0.0
H1004 H 0.64167 0.29225 0.15009 0.0
H1005 H 0.6261 0.2117 0.08092 0.0
H1006 H 0.63173 0.23707 0.05635 0.0
H1007 H 0.60885 0.23247 0.07255 0.0
C1008 C 0.64758 0.30487 0.04083 0.0
C1009 C 0.6322 0.30516 0.01807 0.0
C1010 C 0.64748 0.29226 0.07291 0.0
C1011 C 0.63196 0.27988 0.08304 0.0
C1012 C 0.61619 0.28145 0.0616 0.0
H1013 H 0.61132 0.22693 0.297 0.0
H1014 H 0.61293 0.24851 0.2409 0.0
C1015 C 0.61637 0.29371 0.0292 0.0
C1016 C 0.63236 0.26518 0.11577 0.0
H1017 H 0.62334 0.21168 0.14553 0.0
C1018 C 0.63776 0.2746 0.14901 0.0
C1019 C 0.62778 0.24194 0.11431 0.0
C1020 C 0.6235 0.23014 0.07904 0.0
C1021 C 0.63817 0.26167 0.18092 0.0
C1022 C 0.63233 0.23887 0.17992 0.0
C1023 C 0.62751 0.22924 0.14649 0.0
C1024 C 0.63073 0.22495 0.21336 0.0
C1025 C 0.64515 0.27258 0.21523 0.0
C1026 C 0.63933 0.20379 0.21599 0.0
C1027 C 0.63804 0.19104 0.24794 0.0
C1028 C 0.62826 0.19937 0.27787 0.0
C1029 C 0.61924 0.22021 0.27467 0.0
C1030 C 0.62027 0.2327 0.24267 0.0
H1031 H 0.65472 0.28661 0.20907 0.0
H1032 H 0.63351 0.2798 0.23052 0.0
H1033 H 0.65225 0.26019 0.23284 0.0
H1034 H 0.64731 0.19732 0.19357 0.0
H1035 H 0.64513 0.17503 0.2496 0.0
H1036 H 0.88182 0.71736 0.52299 0.0
H1037 H 0.88209 0.73686 0.5814 0.0
H1038 H 0.83456 0.6995 0.61484 0.0
H1039 H 0.83422 0.67971 0.55636 0.0
H1040 H 0.83303 0.75036 0.61795 0.0
H1041 H 0.89311 0.71268 0.68733 0.0
H1042 H 0.89607 0.72062 0.64057 0.0
H1043 H 0.88075 0.69811 0.65196 0.0
C1044 C 0.87163 0.71292 0.54303 0.0
C1045 C 0.85798 0.69698 0.53503 0.0
C1046 C 0.87183 0.72408 0.57639 0.0
C1047 C 0.85835 0.71961 0.60233 0.0
C1048 C 0.8451 0.70311 0.5951 0.0
H1049 H 0.84706 0.76968 0.8204 0.0
H1050 H 0.84711 0.74777 0.76456 0.0
C1051 C 0.84501 0.69172 0.56181 0.0
C1052 C 0.85738 0.73339 0.63575 0.0
H1053 H 0.87967 0.7447 0.71496 0.0
C1054 C 0.84317 0.7491 0.63926 0.0
C1055 C 0.87067 0.73169 0.66332 0.0
C1056 C 0.88599 0.71478 0.66095 0.0
C1057 C 0.84202 0.76337 0.66961 0.0
C1058 C 0.85542 0.76182 0.69699 0.0
C1059 C 0.86951 0.74594 0.69367 0.0
C1060 C 0.8546 0.77581 0.7302 0.0
C1061 C 0.82642 0.77983 0.67254 0.0
C1062 C 0.85867 0.79896 0.72926 0.0
C1063 C 0.85876 0.81168 0.76134 0.0
C1064 C 0.85471 0.8014 0.79483 0.0
C1065 C 0.85025 0.77826 0.79526 0.0
C1066 C 0.85029 0.76562 0.76335 0.0
H1067 H 0.81593 0.77697 0.6513 0.0
H1068 H 0.81988 0.77847 0.69963 0.0
H1069 H 0.8317 0.79729 0.6697 0.0
H1070 H 0.86214 0.80706 0.70384 0.0
H1071 H 0.86228 0.82941 0.75997 0.0
H1072 H 0.35893 0.17291 0.24063 0.0
H1073 H 0.35836 0.19533 0.18467 0.0
H1074 H 0.35402 0.25637 0.24768 0.0
H1075 H 0.35467 0.2344 0.30342 0.0
H1076 H 0.33129 0.2271 0.15966 0.0
H1077 H 0.39879 0.26723 0.18175 0.0
H1078 H 0.39157 0.24229 0.20597 0.0
H1079 H 0.38333 0.26961 0.21935 0.0
C1080 C 0.35785 0.1911 0.2426 0.0
C1081 C 0.357 0.20179 0.27665 0.0
C1082 C 0.3575 0.20387 0.2106 0.0
C1083 C 0.35643 0.22752 0.21211 0.0
C1084 C 0.35519 0.23818 0.24593 0.0
H1085 H 0.33002 0.32034 0.03568 0.0
H1086 H 0.33111 0.30069 0.09414 0.0
C1087 C 0.3555 0.2255 0.27781 0.0
C1088 C 0.35661 0.24123 0.17847 0.0
H1089 H 0.38078 0.28191 0.13377 0.0
C1090 C 0.34211 0.23905 0.1539 0.0
C1091 C 0.37083 0.25667 0.17098 0.0
C1092 C 0.38711 0.25902 0.19569 0.0
C1093 C 0.34134 0.25218 0.12218 0.0
C1094 C 0.35533 0.26805 0.11519 0.0
C1095 C 0.36995 0.26997 0.13951 0.0
C1096 C 0.35557 0.28184 0.08164 0.0
C1097 C 0.32575 0.24865 0.09606 0.0
C1098 C 0.36946 0.2786 0.05606 0.0
C1099 C 0.36895 0.28987 0.02283 0.0
C1100 C 0.35459 0.30475 0.01454 0.0
C1101 C 0.34129 0.30904 0.04116 0.0
C1102 C 0.34177 0.29763 0.07443 0.0
H1103 H 0.31832 0.23266 0.10154 0.0
H1104 H 0.31595 0.26281 0.09872 0.0
H1105 H 0.33073 0.24837 0.06762 0.0
H1106 H 0.38032 0.26664 0.06125 0.0
H1107 H 0.37949 0.28626 0.00308 0.0
H1108 H 0.14064 0.82178 0.75857 0.0
H1109 H 0.14237 0.7992 0.70285 0.0
H1110 H 0.1197 0.7421 0.75994 0.0
H1111 H 0.11914 0.76405 0.81579 0.0
H1112 H 0.14489 0.72762 0.71968 0.0
H1113 H 0.1029 0.78437 0.63468 0.0
H1114 H 0.1229 0.79829 0.65128 0.0
H1115 H 0.10569 0.78881 0.68269 0.0
C1116 C 0.13606 0.8044 0.75905 0.0
C1117 C 0.12977 0.79466 0.79144 0.0
C1118 C 0.13688 0.79154 0.72715 0.0
C1119 C 0.13077 0.769 0.7268 0.0
C1120 C 0.12451 0.75938 0.7593 0.0
H1121 H 0.10355 0.69902 0.52686 0.0
H1122 H 0.10284 0.71797 0.58582 0.0
C1123 C 0.12418 0.77197 0.79127 0.0
C1124 C 0.13108 0.75513 0.69305 0.0
H1125 H 0.11799 0.75441 0.6042 0.0
C1126 C 0.13887 0.73345 0.6945 0.0
C1127 C 0.12299 0.76246 0.66021 0.0
C1128 C 0.11298 0.78464 0.65718 0.0
C1129 C 0.13874 0.71895 0.66435 0.0
C1130 C 0.13143 0.7267 0.63105 0.0
C1131 C 0.1237 0.7484 0.62956 0.0
C1132 C 0.13149 0.71273 0.59739 0.0
C1133 C 0.14589 0.69525 0.66911 0.0
C1134 C 0.14768 0.70289 0.58444 0.0
C1135 C 0.14791 0.69132 0.55135 0.0
C1136 C 0.13211 0.69006 0.52996 0.0
C1137 C 0.11588 0.69961 0.54301 0.0
C1138 C 0.11552 0.71059 0.57657 0.0
H1139 H 0.14477 0.68963 0.69779 0.0
H1140 H 0.13843 0.68302 0.65179 0.0
H1141 H 0.16055 0.69483 0.6617 0.0
H1142 H 0.16034 0.7049 0.59914 0.0
H1143 H 0.16071 0.68458 0.54146 0.0
H1144 H 0.33505 0.67014 0.95373 0.0
H1145 H 0.33724 0.68868 0.89454 0.0
H1146 H 0.3851 0.72456 0.9303 0.0
H1147 H 0.38321 0.70599 0.98916 0.0
H1148 H 0.33476 0.73524 0.88561 0.0
H1149 H 0.39987 0.70334 0.82923 0.0
H1150 H 0.38821 0.68957 0.86625 0.0
H1151 H 0.40192 0.71421 0.8745 0.0
C1152 C 0.34635 0.68148 0.9487 0.0
C1153 C 0.35893 0.68659 0.97633 0.0
C1154 C 0.3475 0.69218 0.91491 0.0
C1155 C 0.36137 0.70794 0.90796 0.0
C1156 C 0.37445 0.71222 0.93482 0.0
H1157 H 0.35934 0.81932 0.7531 0.0
H1158 H 0.3592 0.79603 0.80807 0.0
C1159 C 0.37329 0.70161 0.96858 0.0
C1160 C 0.36127 0.72142 0.87403 0.0
H1161 H 0.38717 0.73588 0.80067 0.0
C1162 C 0.34616 0.73527 0.86687 0.0
C1163 C 0.37613 0.72139 0.84959 0.0
C1164 C 0.39238 0.70617 0.85502 0.0
C1165 C 0.34562 0.74935 0.83624 0.0
C1166 C 0.36072 0.74984 0.81242 0.0
C1167 C 0.3757 0.7357 0.81923 0.0
C1168 C 0.36096 0.76421 0.77943 0.0
C1169 C 0.32877 0.76331 0.82936 0.0
C1170 C 0.36241 0.75411 0.7452 0.0
C1171 C 0.3626 0.76731 0.71385 0.0
C1172 C 0.36143 0.79102 0.71595 0.0
C1173 C 0.36018 0.80115 0.7504 0.0
C1174 C 0.35999 0.78786 0.78185 0.0
H1175 H 0.31688 0.75701 0.84504 0.0
H1176 H 0.3314 0.781 0.83773 0.0
H1177 H 0.3252 0.76332 0.80009 0.0
H1178 H 0.36322 0.73591 0.74269 0.0
H1179 H 0.36361 0.75882 0.68792 0.0
H1180 H 0.15246 0.32604 0.44711 0.0
H1181 H 0.15193 0.3063 0.38866 0.0
H1182 H 0.10403 0.26966 0.42199 0.0
H1183 H 0.10448 0.28912 0.48047 0.0
H1184 H 0.15281 0.2552 0.38594 0.0
H1185 H 0.09359 0.29433 0.3156 0.0
H1186 H 0.10617 0.30873 0.35087 0.0
H1187 H 0.09051 0.28662 0.36245 0.0
C1188 C 0.14155 0.3142 0.44168 0.0
C1189 C 0.12853 0.30913 0.46848 0.0
C1190 C 0.14135 0.30284 0.40839 0.0
C1191 C 0.12794 0.28656 0.40113 0.0
C1192 C 0.11441 0.28227 0.42705 0.0
H1193 H 0.1228 0.1771 0.24362 0.0
H1194 H 0.12302 0.19963 0.29949 0.0
C1195 C 0.11471 0.29341 0.46044 0.0
C1196 C 0.12884 0.27279 0.3677 0.0
H1197 H 0.10689 0.26229 0.28782 0.0
C1198 C 0.14283 0.25676 0.36439 0.0
C1199 C 0.11575 0.27491 0.33981 0.0
C1200 C 0.10068 0.29215 0.34201 0.0
C1201 C 0.14395 0.24259 0.33394 0.0
C1202 C 0.13076 0.24455 0.30623 0.0
C1203 C 0.11689 0.26076 0.30933 0.0
C1204 C 0.1315 0.2305 0.27309 0.0
C1205 C 0.1593 0.22575 0.33127 0.0
C1206 C 0.1363 0.24041 0.23999 0.0
C1207 C 0.13631 0.22763 0.20818 0.0
C1208 C 0.13131 0.20467 0.20872 0.0
C1209 C 0.12674 0.19469 0.24217 0.0
C1210 C 0.12687 0.20752 0.27411 0.0
H1211 H 0.16972 0.2283 0.35276 0.0
H1212 H 0.15372 0.20841 0.33393 0.0
H1213 H 0.16601 0.22698 0.30434 0.0
H1214 H 0.13991 0.25813 0.23872 0.0
H1215 H 0.13989 0.23597 0.18303 0.0
H1216 H 0.06103 0.14796 0.11667 0.0
H1217 H 0.02863 0.15488 0.1079 0.0
H1218 H 0.03981 0.22416 0.07979 0.0
H1219 H 0.07244 0.21753 0.08865 0.0
H1220 H 0.01113 0.21712 0.13216 0.0
H1221 H 0.00268 0.1645 0.0091 0.0
H1222 H 0.01462 0.15022 0.04488 0.0
H1223 H 0.0246 0.17477 0.02415 0.0
C1224 C 0.05668 0.1647 0.10863 0.0
C1225 C 0.06935 0.18217 0.10324 0.0
C1226 C 0.03817 0.16855 0.10338 0.0
C1227 C 0.032 0.18988 0.09255 0.0
C1228 C 0.04446 0.20753 0.08777 0.0
H1229 H 0.91463 0.22017 0.07902 0.0
H1230 H 0.94754 0.22551 0.07243 0.0
C1231 C 0.06305 0.20368 0.0929 0.0
C1232 C 0.01235 0.19363 0.08766 0.0
H1233 H 0.97546 0.17204 0.0436 0.0
C1234 C 0.00329 0.20773 0.11229 0.0
C1235 C 0.00233 0.18144 0.06147 0.0
C1236 C 0.01157 0.16705 0.03314 0.0
C1237 C 0.98421 0.20859 0.11318 0.0
C1238 C 0.97421 0.19513 0.08864 0.0
C1239 C 0.9833 0.18219 0.06251 0.0
C1240 C 0.95442 0.19226 0.09226 0.0
C1241 C 0.97485 0.22269 0.1417 0.0
C1242 C 0.94761 0.17172 0.10528 0.0
C1243 C 0.92892 0.16856 0.10913 0.0
C1244 C 0.91672 0.1859 0.09979 0.0
C1245 C 0.92365 0.20648 0.08651 0.0
C1246 C 0.94241 0.20962 0.08279 0.0
H1247 H 0.98468 0.23074 0.16061 0.0
H1248 H 0.96675 0.23615 0.12837 0.0
H1249 H 0.96528 0.21207 0.15763 0.0
H1250 H 0.9568 0.15816 0.11266 0.0
H1251 H 0.92407 0.15249 0.11929 0.0
H1252 H 0.42036 0.84739 0.66573 0.0
H1253 H 0.45339 0.85111 0.66015 0.0
H1254 H 0.44978 0.83436 0.5463 0.0
H1255 H 0.41686 0.82891 0.55271 0.0
H1256 H 0.47551 0.81242 0.57256 0.0
H1257 H 0.48477 0.89914 0.62244 0.0
H1258 H 0.47313 0.88323 0.65654 0.0
H1259 H 0.46248 0.88777 0.61297 0.0
C1260 C 0.42669 0.8447 0.63953 0.0
C1261 C 0.41627 0.83786 0.60964 0.0
C1262 C 0.4455 0.8471 0.63619 0.0
C1263 C 0.45406 0.84363 0.60256 0.0
C1264 C 0.44349 0.83724 0.57247 0.0
H1265 H 0.57137 0.87045 0.59893 0.0
H1266 H 0.53861 0.87344 0.58746 0.0
C1267 C 0.42475 0.83411 0.57611 0.0
C1268 C 0.47415 0.84467 0.59969 0.0
H1269 H 0.51115 0.87444 0.62842 0.0
C1270 C 0.48328 0.82623 0.58412 0.0
C1271 C 0.48439 0.86291 0.61379 0.0
C1272 C 0.47562 0.88446 0.62692 0.0
C1273 C 0.50232 0.82498 0.58406 0.0
C1274 C 0.51245 0.84201 0.60188 0.0
C1275 C 0.50339 0.86106 0.61559 0.0
C1276 C 0.53231 0.84002 0.60783 0.0
C1277 C 0.51126 0.80544 0.56472 0.0
C1278 C 0.53961 0.8204 0.62357 0.0
C1279 C 0.55832 0.81845 0.62913 0.0
C1280 C 0.56991 0.83645 0.62044 0.0
C1281 C 0.5626 0.8564 0.60597 0.0
C1282 C 0.54394 0.85809 0.59937 0.0
H1283 H 0.50276 0.79957 0.54162 0.0
H1284 H 0.52495 0.81003 0.55421 0.0
H1285 H 0.51268 0.79106 0.58379 0.0
H1286 H 0.53084 0.80662 0.63174 0.0
H1287 H 0.5637 0.80304 0.64076 0.0
H1288 H 0.91283 0.78782 0.91913 0.0
H1289 H 0.94551 0.78101 0.92709 0.0
H1290 H 0.95681 0.84989 0.89667 0.0
H1291 H 0.92438 0.85698 0.88879 0.0
H1292 H 0.97334 0.78707 0.87289 0.0
H1293 H 0.98447 0.84095 0.99362 0.0
H1294 H 0.96219 0.83085 0.98042 0.0
H1295 H 0.97201 0.85506 0.95838 0.0
C1296 C 0.92227 0.80156 0.91429 0.0
C1297 C 0.91599 0.82298 0.90338 0.0
C1298 C 0.94088 0.79761 0.91889 0.0
C1299 C 0.95341 0.81507 0.91307 0.0
C1300 C 0.94724 0.83636 0.90199 0.0
H1301 H 0.06053 0.8516 0.87603 0.0
H1302 H 0.02795 0.84571 0.88472 0.0
C1303 C 0.9287 0.84031 0.89722 0.0
C1304 C 0.9731 0.8111 0.91672 0.0
H1305 H 0.01095 0.83297 0.95702 0.0
C1306 C 0.98161 0.79663 0.89184 0.0
C1307 C 0.9837 0.82352 0.9417 0.0
C1308 C 0.97511 0.8383 0.9703 0.0
C1309 C 0.00065 0.79563 0.88943 0.0
C1310 C 0.0112 0.80935 0.91264 0.0
C1311 C 0.0027 0.82264 0.93912 0.0
C1312 C 0.03089 0.81218 0.90716 0.0
C1313 C 0.00939 0.78112 0.86065 0.0
C1314 C 0.04317 0.79517 0.91693 0.0
C1315 C 0.06184 0.79845 0.91204 0.0
C1316 C 0.06844 0.81881 0.89729 0.0
C1317 C 0.05596 0.83571 0.88736 0.0
C1318 C 0.03735 0.83242 0.89237 0.0
H1319 H -0.00085 0.77251 0.84329 0.0
H1320 H 0.01835 0.79161 0.84316 0.0
H1321 H 0.01805 0.7681 0.87373 0.0
H1322 H 0.03831 0.7795 0.9286 0.0
H1323 H 0.07109 0.78509 0.92001 0.0
H1324 H 0.4198 0.19347 0.40475 0.0
H1325 H 0.45299 0.19144 0.4063 0.0
H1326 H 0.4513 0.12678 0.35272 0.0
H1327 H 0.41804 0.12841 0.35135 0.0
H1328 H 0.47521 0.12879 0.41295 0.0
H1329 H 0.48599 0.19988 0.31718 0.0
H1330 H 0.47155 0.20666 0.35495 0.0
H1331 H 0.46425 0.18598 0.32234 0.0
C1332 C 0.42644 0.1788 0.39323 0.0
C1333 C 0.41624 0.16118 0.37765 0.0
C1334 C 0.4454 0.17773 0.39405 0.0
C1335 C 0.4545 0.15914 0.37908 0.0
C1336 C 0.44444 0.14131 0.3642 0.0
H1337 H 0.5699 0.12853 0.35517 0.0
H1338 H 0.53663 0.12619 0.35529 0.0
C1339 C 0.42546 0.14232 0.36341 0.0
C1340 C 0.47457 0.15837 0.37902 0.0
H1341 H 0.51212 0.18639 0.34849 0.0
C1342 C 0.48333 0.14125 0.39869 0.0
C1343 C 0.485 0.17463 0.36017 0.0
C1344 C 0.47625 0.19271 0.33717 0.0
C1345 C 0.50239 0.1404 0.40094 0.0
C1346 C 0.51277 0.15696 0.38271 0.0
C1347 C 0.50401 0.17383 0.36257 0.0
C1348 C 0.5328 0.15745 0.38462 0.0
C1349 C 0.51127 0.12224 0.42351 0.0
C1350 C 0.54152 0.17587 0.40092 0.0
C1351 C 0.56046 0.17734 0.4008 0.0
C1352 C 0.57102 0.16046 0.38411 0.0
C1353 C 0.56219 0.14182 0.36826 0.0
C1354 C 0.54321 0.14037 0.36846 0.0
H1355 H 0.50133 0.11356 0.44146 0.0
H1356 H 0.51744 0.10944 0.40528 0.0
H1357 H 0.52234 0.12946 0.44049 0.0
H1358 H 0.53364 0.18924 0.4134 0.0
H1359 H 0.56678 0.19192 0.41332 0.0
H1360 H 0.56568 0.69259 0.09682 0.0
H1361 H 0.53267 0.68805 0.09287 0.0
H1362 H 0.5367 0.62284 0.14415 0.0
H1363 H 0.56973 0.62719 0.14864 0.0
H1364 H 0.51228 0.65236 0.05861 0.0
H1365 H 0.49986 0.65849 0.20729 0.0
H1366 H 0.521 0.66734 0.18667 0.0
H1367 H 0.51635 0.63786 0.19309 0.0
C1368 C 0.55959 0.67727 0.10733 0.0
C1369 C 0.57036 0.66033 0.12333 0.0
C1370 C 0.54075 0.6747 0.10493 0.0
C1371 C 0.53235 0.65524 0.11858 0.0
C1372 C 0.54299 0.63812 0.13397 0.0
H1373 H 0.41662 0.6259 0.14137 0.0
H1374 H 0.44975 0.62206 0.13948 0.0
C1375 C 0.56185 0.64065 0.13642 0.0
C1376 C 0.51237 0.6531 0.11701 0.0
H1377 H 0.47431 0.65235 0.16997 0.0
C1378 C 0.50394 0.65225 0.0829 0.0
C1379 C 0.50165 0.65285 0.14884 0.0
C1380 C 0.5101 0.65435 0.1861 0.0
C1381 C 0.48493 0.65137 0.07976 0.0
C1382 C 0.47419 0.65177 0.11157 0.0
C1383 C 0.48265 0.65203 0.14568 0.0
C1384 C 0.45415 0.65322 0.1102 0.0
C1385 C 0.4765 0.65001 0.04249 0.0
C1386 C 0.44576 0.67207 0.09443 0.0
C1387 C 0.42686 0.67436 0.09545 0.0
C1388 C 0.41604 0.65791 0.11257 0.0
C1389 C 0.42453 0.63891 0.12802 0.0
C1390 C 0.44345 0.63664 0.12694 0.0
H1391 H 0.48627 0.64322 0.02223 0.0
H1392 H 0.46413 0.63921 0.04265 0.0
H1393 H 0.47248 0.6672 0.03364 0.0
H1394 H 0.45386 0.68529 0.0821 0.0
H1395 H 0.4208 0.68923 0.08336 0.0
H1396 H 0.92269 0.34511 0.64734 0.0
H1397 H 0.95557 0.34156 0.6395 0.0
H1398 H 0.94721 0.30646 0.53826 0.0
H1399 H 0.91418 0.30911 0.54673 0.0
H1400 H 0.97349 0.28705 0.57625 0.0
H1401 H 0.98585 0.37893 0.57235 0.0
H1402 H 0.97432 0.37128 0.61337 0.0
H1403 H 0.96323 0.3671 0.57025 0.0
C1404 C 0.92787 0.33667 0.62339 0.0
C1405 C 0.91595 0.32756 0.59747 0.0
C1406 C 0.94663 0.33477 0.61884 0.0
C1407 C 0.95378 0.32431 0.58781 0.0
C1408 C 0.94192 0.31476 0.56224 0.0
H1409 H 0.06945 0.34672 0.55376 0.0
H1410 H 0.03666 0.34411 0.54236 0.0
C1411 C 0.92311 0.31628 0.56712 0.0
C1412 C 0.97368 0.32323 0.58248 0.0
H1413 H 0.01187 0.35569 0.58576 0.0
C1414 C 0.98192 0.30207 0.57775 0.0
C1415 C 0.98458 0.3429 0.58337 0.0
C1416 C 0.97649 0.36633 0.58467 0.0
C1417 C 0.00092 0.29994 0.57578 0.0
C1418 C 0.01186 0.31943 0.58004 0.0
C1419 C 0.00352 0.34068 0.583 0.0
C1420 C 0.03192 0.31838 0.5831 0.0
C1421 C 0.00897 0.27689 0.56902 0.0
C1422 C 0.04019 0.30449 0.60928 0.0
C1423 C 0.05897 0.30556 0.61503 0.0
C1424 C 0.06951 0.32106 0.59553 0.0
C1425 C 0.06138 0.33473 0.56912 0.0
C1426 C 0.04274 0.33321 0.56263 0.0
H1427 H -0.00053 0.26616 0.55309 0.0
H1428 H 0.02212 0.27798 0.55424 0.0
H1429 H 0.01132 0.26835 0.59539 0.0
H1430 H 0.03208 0.29346 0.62624 0.0
H1431 H 0.06513 0.29503 0.6357 0.0
H1432 H 0.56755 0.30936 0.93038 0.0
H1433 H 0.53448 0.31105 0.93633 0.0
H1434 H 0.53288 0.36844 0.86447 0.0
H1435 H 0.56605 0.36715 0.85851 0.0
H1436 H 0.50933 0.37103 0.92791 0.0
H1437 H 0.50219 0.29124 0.84953 0.0
H1438 H 0.51709 0.28981 0.88813 0.0
H1439 H 0.52304 0.30739 0.85024 0.0
C1440 C 0.56022 0.32244 0.91594 0.0
C1441 C 0.5694 0.33792 0.89349 0.0
C1442 C 0.54135 0.32337 0.91945 0.0
C1443 C 0.53138 0.33963 0.90038 0.0
C1444 C 0.54047 0.35573 0.87925 0.0
H1445 H 0.4183 0.3652 0.85639 0.0
H1446 H 0.45122 0.36806 0.8647 0.0
C1447 C 0.55938 0.3549 0.87581 0.0
C1448 C 0.51138 0.33897 0.90072 0.0
H1449 H 0.4753 0.30696 0.87366 0.0
C1450 C 0.50182 0.35706 0.91613 0.0
C1451 C 0.5018 0.32068 0.88518 0.0
C1452 C 0.5115 0.30124 0.86704 0.0
C1453 C 0.48273 0.35722 0.91673 0.0
C1454 C 0.47317 0.33897 0.90103 0.0
C1455 C 0.48277 0.32084 0.88583 0.0
C1456 C 0.45318 0.33847 0.89886 0.0
C1457 C 0.47295 0.37672 0.93444 0.0
C1458 C 0.44354 0.3207 0.91499 0.0
C1459 C 0.4248 0.31883 0.91 0.0
C1460 C 0.41541 0.33468 0.88862 0.0
C1461 C 0.42511 0.35271 0.87302 0.0
C1462 C 0.44388 0.35452 0.87799 0.0
H1463 H 0.48201 0.38612 0.95328 0.0
H1464 H 0.46826 0.38862 0.91316 0.0
H1465 H 0.4608 0.37077 0.94968 0.0
H1466 H 0.4506 0.30809 0.93098 0.0
H1467 H 0.41774 0.30481 0.92258 0.0
H1468 H 0.07417 0.72197 0.41203 0.0
H1469 H 0.04198 0.73047 0.42299 0.0
H1470 H 0.0285 0.66029 0.40743 0.0
H1471 H 0.06046 0.65154 0.39658 0.0
H1472 H 0.01248 0.72156 0.37372 0.0
H1473 H 0.00375 0.67728 0.50472 0.0
H1474 H 0.02581 0.68562 0.48746 0.0
H1475 H 0.01507 0.66021 0.47139 0.0
C1476 C 0.06437 0.70831 0.41114 0.0
C1477 C 0.06989 0.68605 0.40345 0.0
C1478 C 0.04603 0.71323 0.41745 0.0
C1479 C 0.03303 0.69593 0.41665 0.0
C1480 C 0.03846 0.67377 0.4089 0.0
H1481 H 0.9273 0.65608 0.39172 0.0
H1482 H 0.95959 0.66375 0.40049 0.0
C1483 C 0.05671 0.66885 0.40238 0.0
C1484 C 0.01353 0.70086 0.42167 0.0
H1485 H 0.97647 0.68245 0.46876 0.0
C1486 C 0.00457 0.7136 0.39505 0.0
C1487 C 0.00341 0.69058 0.44975 0.0
C1488 C 0.01253 0.67784 0.48018 0.0
C1489 C 0.98549 0.71458 0.39392 0.0
C1490 C 0.97537 0.70265 0.42025 0.0
C1491 C 0.98437 0.69144 0.44851 0.0
C1492 C 0.95572 0.69866 0.41577 0.0
C1493 C 0.97625 0.72686 0.36316 0.0
C1494 C 0.94297 0.71586 0.42159 0.0
C1495 C 0.92441 0.71156 0.41658 0.0
C1496 C 0.91843 0.69001 0.40562 0.0
C1497 C 0.93138 0.67288 0.4 0.0
C1498 C 0.94984 0.67718 0.40512 0.0
H1499 H 0.98617 0.73441 0.34392 0.0
H1500 H 0.96727 0.71506 0.34804 0.0
H1501 H 0.96754 0.74053 0.37423 0.0
H1502 H 0.94736 0.73251 0.43001 0.0
H1503 H 0.91478 0.72512 0.42121 0.0
H1504 H 0.10828 0.10127 0.99762 0.0
H1505 H 0.09967 0.06493 0.97151 0.0
H1506 H 0.09949 0.03523 0.07837 0.0
H1507 H 0.10744 0.07181 0.10477 0.0
H1508 H 0.12124 0.03 0.9737 0.0
H1509 H 0.05581 0.00467 0.03586 0.0
H1510 H 0.06435 0.03321 0.03839 0.0
H1511 H 0.07241 0.01201 0.06954 0.0
C1512 C 0.10594 0.08712 0.01565 0.0
C1513 C 0.10863 0.08935 0.05324 0.0
C1514 C 0.101 0.06636 0.00069 0.0
C1515 C 0.09881 0.0473 0.02291 0.0
C1516 C 0.10064 0.04974 0.06067 0.0
H1517 H 0.11473 0.90666 0.99828 0.0
H1518 H 0.10679 0.9446 0.01868 0.0
C1519 C 0.10531 0.07066 0.07576 0.0
C1520 C 0.09723 0.02454 0.0062 0.0
H1521 H 0.07387 0.97463 0.00974 0.0
C1522 C 0.11064 0.01809 0.98106 0.0
C1523 C 0.08347 0.0089 0.0159 0.0
C1524 C 0.0681 0.01514 0.04113 0.0
C1525 C 0.11112 0.99625 0.9665 0.0
C1526 C 0.09775 0.9804 0.97713 0.0
C1527 C 0.08406 0.98689 0.00158 0.0
C1528 C 0.09901 0.95654 0.9655 0.0
C1529 C 0.12643 0.98995 0.94108 0.0
C1530 C 0.09657 0.95047 0.92902 0.0
C1531 C 0.10109 0.92872 0.91716 0.0
C1532 C 0.10825 0.9128 0.94164 0.0
C1533 C 0.10946 0.91857 0.97861 0.0
C1534 C 0.10484 0.94022 0.99041 0.0
H1535 H 0.1371 0.00323 0.93962 0.0
H1536 H 0.1329 0.9739 0.94982 0.0
H1537 H 0.12087 0.98735 0.9134 0.0
H1538 H 0.09198 0.96286 0.90944 0.0
H1539 H 0.09995 0.92483 0.88855 0.0
H1540 H 0.36373 0.92642 0.6108 0.0
H1541 H 0.36764 0.9636 0.5826 0.0
H1542 H 0.35644 0.93465 0.47761 0.0
H1543 H 0.352 0.89774 0.50552 0.0
H1544 H 0.39014 0.98071 0.52929 0.0
H1545 H 0.318 0.98332 0.48449 0.0
H1546 H 0.32639 0.9624 0.51583 0.0
H1547 H 0.33003 0.9591 0.46783 0.0
C1548 C 0.36222 0.92797 0.58168 0.0
C1549 C 0.35725 0.90921 0.56048 0.0
C1550 C 0.36447 0.94921 0.56561 0.0
C1551 C 0.36189 0.95198 0.52812 0.0
C1552 C 0.35797 0.93303 0.50671 0.0
H1553 H 0.36561 0.06755 0.38246 0.0
H1554 H 0.36963 0.02993 0.4091 0.0
C1555 C 0.3555 0.91192 0.52273 0.0
C1556 C 0.36258 0.97476 0.51147 0.0
H1557 H 0.33735 0.01223 0.4621 0.0
C1558 C 0.3786 0.98763 0.51467 0.0
C1559 C 0.34743 0.98384 0.49264 0.0
C1560 C 0.32943 0.97156 0.49026 0.0
C1561 C 0.3799 0.00921 0.49903 0.0
C1562 C 0.36489 0.01798 0.47972 0.0
C1563 C 0.34891 0.0052 0.47655 0.0
C1564 C 0.36498 0.04095 0.46422 0.0
C1565 C 0.39725 0.02261 0.50306 0.0
C1566 C 0.36123 0.05948 0.48658 0.0
C1567 C 0.35874 0.08088 0.47151 0.0
C1568 C 0.36002 0.08413 0.43377 0.0
C1569 C 0.36459 0.06564 0.41161 0.0
C1570 C 0.36688 0.04416 0.42673 0.0
H1571 H 0.4083 0.01262 0.51597 0.0
H1572 H 0.40196 0.02856 0.47608 0.0
H1573 H 0.39457 0.03776 0.51995 0.0
H1574 H 0.35958 0.05722 0.51556 0.0
H1575 H 0.35536 0.09477 0.48939 0.0
H1576 H 0.85037 0.0887 0.01546 0.0
H1577 H 0.86072 0.05236 0.9934 0.0
H1578 H 0.90886 0.05733 0.06022 0.0
H1579 H 0.89797 0.09363 0.08408 0.0
H1580 H 0.88895 0.03841 0.95682 0.0
H1581 H 0.89035 0.99762 0.09286 0.0
H1582 H 0.88119 0.02551 0.08615 0.0
H1583 H 0.90545 0.02116 0.08684 0.0
C1584 C 0.86322 0.08221 0.02547 0.0
C1585 C 0.87326 0.09402 0.05182 0.0
C1586 C 0.86917 0.06136 0.01269 0.0
C1587 C 0.88546 0.05183 0.02545 0.0
C1588 C 0.896 0.064 0.05064 0.0
H1589 H 0.89769 0.9202 0.91239 0.0
H1590 H 0.90813 0.95712 0.93451 0.0
C1591 C 0.88983 0.0848 0.0641 0.0
C1592 C 0.89051 0.02876 0.013 0.0
H1593 H 0.89415 0.97433 0.04251 0.0
C1594 C 0.89034 0.02438 0.97552 0.0
C1595 C 0.89249 0.01049 0.03745 0.0
C1596 C 0.89227 0.01379 0.07806 0.0
C1597 C 0.89029 0.00223 0.96193 0.0
C1598 C 0.8913 0.9839 0.9865 0.0
C1599 C 0.89328 0.98838 0.02374 0.0
C1600 C 0.88701 0.96035 0.97525 0.0
C1601 C 0.88761 0.99878 0.92169 0.0
C1602 C 0.87234 0.9493 0.99198 0.0
C1603 C 0.86669 0.92812 0.98012 0.0
C1604 C 0.87541 0.91745 0.95079 0.0
C1605 C 0.89055 0.92809 0.93476 0.0
C1606 C 0.89645 0.94926 0.94721 0.0
H1607 H 0.88368 0.01464 0.90764 0.0
H1608 H 0.90053 0.99273 0.90949 0.0
H1609 H 0.8769 0.98595 0.91648 0.0
H1610 H 0.86477 0.95742 0.01359 0.0
H1611 H 0.85498 0.92054 0.9932 0.0
H1612 H 0.65377 0.08701 0.47706 0.0
H1613 H 0.64813 0.05016 0.504 0.0
H1614 H 0.59824 0.04426 0.44276 0.0
H1615 H 0.60424 0.08093 0.41434 0.0
H1616 H 0.622 0.03405 0.54543 0.0
H1617 H 0.62268 0.9864 0.41562 0.0
H1618 H 0.62921 0.01567 0.41832 0.0
H1619 H 0.60551 0.00789 0.41816 0.0
C1620 C 0.64156 0.07793 0.46929 0.0
C1621 C 0.62953 0.08683 0.44329 0.0
C1622 C 0.63834 0.05684 0.48479 0.0
C1623 C 0.62291 0.04422 0.47501 0.0
C1624 C 0.61049 0.05338 0.45001 0.0
H1625 H 0.60516 0.91974 0.60323 0.0
H1626 H 0.59963 0.957 0.57639 0.0
C1627 C 0.61388 0.0744 0.43394 0.0
C1628 C 0.62029 0.02138 0.49081 0.0
H1629 H 0.61767 0.96549 0.46885 0.0
C1630 C 0.62094 0.01904 0.52871 0.0
C1631 C 0.61901 0.0018 0.46893 0.0
C1632 C 0.61922 0.00295 0.42802 0.0
C1633 C 0.62113 0.99771 0.5453 0.0
C1634 C 0.61994 0.97813 0.5234 0.0
C1635 C 0.61849 0.98051 0.4856 0.0
C1636 C 0.62217 0.95507 0.53859 0.0
C1637 C 0.62365 0.99642 0.58589 0.0
C1638 C 0.63617 0.94121 0.5253 0.0
C1639 C 0.63908 0.91983 0.53995 0.0
C1640 C 0.62817 0.91184 0.56857 0.0
C1641 C 0.61393 0.92553 0.5815 0.0
C1642 C 0.61082 0.94688 0.56633 0.0
H1643 H 0.62873 0.0126 0.59733 0.0
H1644 H 0.61036 0.99262 0.59886 0.0
H1645 H 0.6334 0.98285 0.59327 0.0
H1646 H 0.64512 0.94712 0.50394 0.0
H1647 H 0.65021 0.90979 0.52939 0.0
H1648 H 0.60515 0.57967 0.10306 0.0
H1649 H 0.599 0.54255 0.07626 0.0
H1650 H 0.64621 0.54983 0.00746 0.0
H1651 H 0.65196 0.58705 0.03285 0.0
H1652 H 0.61873 0.53309 0.97025 0.0
H1653 H 0.62561 0.48535 0.09927 0.0
H1654 H 0.608 0.50635 0.09946 0.0
H1655 H 0.63147 0.5148 0.09566 0.0
C1656 C 0.61419 0.57332 0.08219 0.0
C1657 C 0.62908 0.58628 0.07018 0.0
C1658 C 0.61071 0.55206 0.06704 0.0
C1659 C 0.62233 0.5432 0.04027 0.0
C1660 C 0.63704 0.55628 0.02804 0.0
H1661 H 0.65091 0.41028 0.97983 0.0
H1662 H 0.64561 0.44706 0.0072 0.0
C1663 C 0.64033 0.57759 0.04266 0.0
C1664 C 0.61954 0.52029 0.02487 0.0
H1665 H 0.61917 0.4643 0.04677 0.0
C1666 C 0.61869 0.51803 0.98697 0.0
C1667 C 0.61959 0.50065 0.04675 0.0
C1668 C 0.62137 0.5018 0.0875 0.0
C1669 C 0.61875 0.49674 0.97025 0.0
C1670 C 0.61894 0.4771 0.99212 0.0
C1671 C 0.61894 0.47937 0.03006 0.0
C1672 C 0.62116 0.45418 0.97639 0.0
C1673 C 0.6197 0.49562 0.92938 0.0
C1674 C 0.609 0.44566 0.95031 0.0
C1675 C 0.6122 0.42468 0.934 0.0
C1676 C 0.62738 0.41163 0.94417 0.0
C1677 C 0.63907 0.41984 0.97137 0.0
C1678 C 0.63604 0.44089 0.98713 0.0
H1679 H 0.62389 0.51201 0.91732 0.0
H1680 H 0.62948 0.48246 0.92038 0.0
H1681 H 0.60604 0.49132 0.91848 0.0
H1682 H 0.59714 0.45531 0.94229 0.0
H1683 H 0.60282 0.41869 0.91346 0.0
H1684 H 0.89945 0.59105 0.41192 0.0
H1685 H 0.90918 0.55379 0.43373 0.0
H1686 H 0.86747 0.55591 0.51618 0.0
H1687 H 0.85843 0.59316 0.49607 0.0
H1688 H 0.89661 0.53704 0.54267 0.0
H1689 H 0.88193 0.49801 0.40838 0.0
H1690 H 0.89966 0.51886 0.40894 0.0
H1691 H 0.87649 0.52702 0.418 0.0
C1692 C 0.89256 0.58365 0.43501 0.0
C1693 C 0.87804 0.59503 0.45197 0.0
C1694 C 0.89803 0.56227 0.44728 0.0
C1695 C 0.88877 0.55173 0.47608 0.0
C1696 C 0.87486 0.56358 0.49392 0.0
H1697 H 0.84903 0.42455 0.5176 0.0
H1698 H 0.85974 0.46077 0.49561 0.0
C1699 C 0.86965 0.58497 0.48222 0.0
C1700 C 0.89235 0.52791 0.48681 0.0
H1701 H 0.88754 0.47373 0.45674 0.0
C1702 C 0.89488 0.52314 0.52383 0.0
C1703 C 0.89019 0.50977 0.46215 0.0
C1704 C 0.88679 0.51355 0.42221 0.0
C1705 C 0.89364 0.50102 0.53733 0.0
C1706 C 0.89059 0.48299 0.51284 0.0
C1707 C 0.88977 0.48758 0.47548 0.0
C1708 C 0.88518 0.46007 0.5254 0.0
C1709 C 0.89414 0.49749 0.57788 0.0
C1710 C 0.89597 0.44728 0.54932 0.0
C1711 C 0.88962 0.42655 0.56273 0.0
C1712 C 0.8726 0.41803 0.55166 0.0
C1713 C 0.86224 0.4305 0.52663 0.0
C1714 C 0.86838 0.45127 0.51391 0.0
H1715 H 0.89298 0.51364 0.59303 0.0
H1716 H 0.88291 0.4862 0.5867 0.0
H1717 H 0.90727 0.48952 0.58549 0.0
H1718 H 0.90919 0.45338 0.55788 0.0
H1719 H 0.898 0.4172 0.58168 0.0
H1720 H 0.3822 0.41633 0.90423 0.0
H1721 H 0.38875 0.45275 0.93295 0.0
H1722 H 0.34136 0.44498 0.00107 0.0
H1723 H 0.33512 0.40848 0.97364 0.0
H1724 H 0.36974 0.48999 0.93292 0.0
H1725 H 0.37751 0.4639 0.07544 0.0
H1726 H 0.37719 0.44374 0.03876 0.0
H1727 H 0.35617 0.45387 0.05824 0.0
C1728 C 0.37331 0.42228 0.92564 0.0
C1729 C 0.3582 0.4094 0.93677 0.0
C1730 C 0.37709 0.44308 0.94207 0.0
C1731 C 0.3658 0.45141 0.96981 0.0
C1732 C 0.35067 0.43861 0.9807 0.0
H1733 H 0.33525 0.58484 0.02143 0.0
H1734 H 0.34159 0.54797 0.99542 0.0
C1735 C 0.34702 0.41777 0.96469 0.0
C1736 C 0.36883 0.47419 0.98556 0.0
H1737 H 0.36831 0.5029 0.06582 0.0
C1738 C 0.36979 0.49277 0.962 0.0
C1739 C 0.36939 0.47791 0.02349 0.0
C1740 C 0.37023 0.45873 0.05035 0.0
C1741 C 0.37002 0.51496 0.97531 0.0
C1742 C 0.36863 0.51869 0.01315 0.0
C1743 C 0.36898 0.50011 0.03677 0.0
C1744 C 0.36539 0.54151 0.02855 0.0
C1745 C 0.37154 0.53414 0.94855 0.0
C1746 C 0.37623 0.54991 0.05694 0.0
C1747 C 0.37239 0.57095 0.07253 0.0
C1748 C 0.35766 0.58397 0.05991 0.0
C1749 C 0.34686 0.57545 0.03152 0.0
C1750 C 0.35056 0.55439 0.01633 0.0
H1751 H 0.37929 0.52889 0.92406 0.0
H1752 H 0.35769 0.53915 0.93954 0.0
H1753 H 0.37837 0.54905 0.9607 0.0
H1754 H 0.38763 0.54017 0.06709 0.0
H1755 H 0.38097 0.57701 0.09436 0.0
H1756 H 0.10703 0.57379 0.39222 0.0
H1757 H 0.10038 0.53647 0.41726 0.0
H1758 H 0.10289 0.56383 0.5256 0.0
H1759 H 0.11017 0.60095 0.50078 0.0
H1760 H 0.1251 0.52945 0.51874 0.0
H1761 H 0.05822 0.50405 0.46273 0.0
H1762 H 0.07384 0.51255 0.4279 0.0
H1763 H 0.06629 0.53282 0.46106 0.0
C1764 C 0.10566 0.57197 0.42133 0.0
C1765 C 0.10927 0.59026 0.44454 0.0
C1766 C 0.10175 0.55062 0.43564 0.0
C1767 C 0.10098 0.54731 0.47337 0.0
C1768 C 0.10342 0.56593 0.49643 0.0
H1769 H 0.10324 0.42499 0.6062 0.0
H1770 H 0.09597 0.46297 0.58438 0.0
C1771 C 0.10759 0.58715 0.4822 0.0
C1772 C 0.1002 0.52418 0.4889 0.0
H1773 H 0.07702 0.47411 0.48649 0.0
C1774 C 0.11439 0.51751 0.51213 0.0
C1775 C 0.08631 0.5085 0.48013 0.0
C1776 C 0.07021 0.51491 0.45687 0.0
C1777 C 0.11537 0.49553 0.52597 0.0
C1778 C 0.10176 0.47973 0.51649 0.0
C1779 C 0.0874 0.48634 0.4937 0.0
C1780 C 0.10305 0.45598 0.52857 0.0
C1781 C 0.13131 0.48906 0.54971 0.0
C1782 C 0.10883 0.43936 0.50412 0.0
C1783 C 0.1131 0.4177 0.51646 0.0
C1784 C 0.11157 0.41224 0.55352 0.0
C1785 C 0.10464 0.42859 0.57754 0.0
C1786 C 0.10048 0.45031 0.56515 0.0
H1787 H 0.14194 0.50241 0.55052 0.0
H1788 H 0.12643 0.4861 0.5778 0.0
H1789 H 0.1376 0.47315 0.53986 0.0
H1790 H 0.11091 0.44347 0.47578 0.0
H1791 H 0.11824 0.40549 0.49713 0.0
H1792 H 0.17797 0.23233 0.05137 0.0
H1793 H 0.20536 0.24599 0.02069 0.0
H1794 H 0.23233 0.18274 0.04217 0.0
H1795 H 0.2051 0.16891 0.07318 0.0
H1796 H 0.25466 0.22502 0.0469 0.0
H1797 H 0.21521 0.21383 0.9194 0.0
H1798 H 0.20424 0.23045 0.95386 0.0
H1799 H 0.20851 0.20102 0.96182 0.0
C1800 C 0.18992 0.2216 0.05071 0.0
C1801 C 0.18929 0.19939 0.064 0.0
C1802 C 0.20547 0.22936 0.03292 0.0
C1803 C 0.22052 0.21506 0.0285 0.0
C1804 C 0.22067 0.19382 0.04504 0.0
H1805 H 0.32128 0.2475 0.91294 0.0
H1806 H 0.29753 0.22299 0.93792 0.0
C1807 C 0.20512 0.186 0.06272 0.0
C1808 C 0.23527 0.2214 0.00359 0.0
H1809 H 0.24382 0.23239 0.91445 0.0
C1810 C 0.25246 0.2264 0.01789 0.0
C1811 C 0.23221 0.22277 0.96581 0.0
C1812 C 0.2141 0.21655 0.94913 0.0
C1813 C 0.26651 0.23419 0.99543 0.0
C1814 C 0.26323 0.23644 0.95773 0.0
C1815 C 0.24625 0.23044 0.94331 0.0
C1816 C 0.27629 0.2482 0.93407 0.0
C1817 C 0.28437 0.24116 0.01249 0.0
C1818 C 0.2717 0.26965 0.92099 0.0
C1819 C 0.28512 0.28357 0.90652 0.0
C1820 C 0.30329 0.27619 0.90501 0.0
C1821 C 0.3074 0.25369 0.91402 0.0
C1822 C 0.29391 0.23974 0.92858 0.0
H1823 H 0.28363 0.24155 0.04258 0.0
H1824 H 0.29515 0.22898 0.00461 0.0
H1825 H 0.28854 0.25813 0.00274 0.0
H1826 H 0.25808 0.27633 0.92468 0.0
H1827 H 0.28152 0.30072 0.89923 0.0
H1828 H 0.2837 0.79467 0.59244 0.0
H1829 H 0.26134 0.7704 0.56274 0.0
H1830 H 0.3039 0.72393 0.53257 0.0
H1831 H 0.32647 0.74802 0.56232 0.0
H1832 H 0.27416 0.75992 0.47885 0.0
H1833 H 0.25211 0.68904 0.56828 0.0
H1834 H 0.25756 0.71624 0.58762 0.0
H1835 H 0.27533 0.69923 0.56866 0.0
C1836 C 0.28824 0.77889 0.58063 0.0
C1837 C 0.30686 0.77343 0.57911 0.0
C1838 C 0.27546 0.76509 0.56373 0.0
C1839 C 0.28114 0.74565 0.54534 0.0
C1840 C 0.29939 0.73891 0.54683 0.0
H1841 H 0.20553 0.66548 0.4179 0.0
H1842 H 0.23484 0.67888 0.44046 0.0
C1843 C 0.31222 0.75267 0.56394 0.0
C1844 C 0.26856 0.73489 0.51977 0.0
H1845 H 0.23621 0.69402 0.51316 0.0
C1846 C 0.266 0.7453 0.48598 0.0
C1847 C 0.25825 0.71578 0.52934 0.0
C1848 C 0.26085 0.70426 0.56541 0.0
C1849 C 0.25265 0.73759 0.46191 0.0
C1850 C 0.24156 0.71925 0.47233 0.0
C1851 C 0.2448 0.70811 0.50536 0.0
C1852 C 0.22535 0.71273 0.45137 0.0
C1853 C 0.25021 0.74939 0.42599 0.0
C1854 C 0.21059 0.7277 0.44879 0.0
C1855 C 0.19377 0.72013 0.43604 0.0
C1856 C 0.19151 0.69742 0.42609 0.0
C1857 C 0.20677 0.68302 0.42586 0.0
C1858 C 0.22354 0.6906 0.43866 0.0
H1859 H 0.26284 0.75835 0.41764 0.0
H1860 H 0.24634 0.73723 0.40439 0.0
H1861 H 0.23917 0.76208 0.42848 0.0
H1862 H 0.21173 0.7448 0.45895 0.0
H1863 H 0.1823 0.73163 0.43652 0.0
H1864 H 0.1776 0.76692 0.9451 0.0
H1865 H 0.20586 0.75267 0.97193 0.0
H1866 H 0.23177 0.81696 0.95339 0.0
H1867 H 0.20364 0.8314 0.92647 0.0
H1868 H 0.25379 0.77293 0.94182 0.0
H1869 H 0.21896 0.78409 0.0747 0.0
H1870 H 0.20645 0.76908 0.04033 0.0
H1871 H 0.21164 0.79841 0.03396 0.0
C1872 C 0.18949 0.77777 0.94559 0.0
C1873 C 0.18838 0.80035 0.93427 0.0
C1874 C 0.20554 0.76967 0.96112 0.0
C1875 C 0.22061 0.784 0.96513 0.0
C1876 C 0.22013 0.80581 0.9507 0.0
H1877 H 0.32417 0.74758 0.06882 0.0
H1878 H 0.30052 0.77264 0.04462 0.0
C1879 C 0.20408 0.81398 0.93539 0.0
C1880 C 0.23608 0.77703 0.98778 0.0
H1881 H 0.24747 0.76529 0.07537 0.0
C1882 C 0.25259 0.77147 0.97105 0.0
C1883 C 0.23432 0.77557 0.02586 0.0
C1884 C 0.21695 0.78225 0.04498 0.0
C1885 C 0.26721 0.76306 0.99143 0.0
C1886 C 0.26521 0.76072 0.02946 0.0
C1887 C 0.24894 0.7673 0.04627 0.0
C1888 C 0.27875 0.74834 0.0512 0.0
C1889 C 0.28425 0.75556 0.97191 0.0
C1890 C 0.27396 0.72717 0.06517 0.0
C1891 C 0.28731 0.71298 0.07915 0.0
C1892 C 0.30564 0.71978 0.07938 0.0
C1893 C 0.31014 0.7419 0.06883 0.0
C1894 C 0.29671 0.75613 0.05471 0.0
H1895 H 0.28246 0.75539 0.94198 0.0
H1896 H 0.29557 0.76728 0.97849 0.0
H1897 H 0.28831 0.73838 0.98086 0.0
H1898 H 0.2601 0.721 0.06297 0.0
H1899 H 0.28343 0.69612 0.08758 0.0
H1900 H 0.28168 0.19218 0.41131 0.0
H1901 H 0.2588 0.21528 0.44165 0.0
H1902 H 0.29917 0.26648 0.46283 0.0
H1903 H 0.3223 0.24351 0.43254 0.0
H1904 H 0.26778 0.22777 0.51974 0.0
H1905 H 0.25029 0.29991 0.42896 0.0
H1906 H 0.25811 0.2732 0.41111 0.0
H1907 H 0.27381 0.29161 0.43369 0.0
C1908 C 0.28563 0.20863 0.42148 0.0
C1909 C 0.30386 0.21586 0.42006 0.0
C1910 C 0.27254 0.22175 0.43882 0.0
C1911 C 0.27745 0.24235 0.45463 0.0
C1912 C 0.29522 0.25059 0.45058 0.0
H1913 H 0.20489 0.32947 0.57678 0.0
H1914 H 0.23343 0.31321 0.55507 0.0
C1915 C 0.30837 0.23746 0.43318 0.0
C1916 C 0.26457 0.25362 0.47912 0.0
H1917 H 0.23501 0.29767 0.4849 0.0
C1918 C 0.26068 0.24316 0.51237 0.0
C1919 C 0.25568 0.27379 0.46941 0.0
C1920 C 0.25954 0.28539 0.43383 0.0
C1921 C 0.24758 0.25208 0.53592 0.0
C1922 C 0.23799 0.27167 0.52544 0.0
C1923 C 0.24245 0.28263 0.49281 0.0
C1924 C 0.22213 0.27997 0.54593 0.0
C1925 C 0.24399 0.24036 0.57153 0.0
C1926 C 0.20658 0.26634 0.54929 0.0
C1927 C 0.19025 0.27553 0.56177 0.0
C1928 C 0.18923 0.29857 0.5705 0.0
C1929 C 0.20521 0.31171 0.56978 0.0
C1930 C 0.22152 0.30248 0.55745 0.0
H1931 H 0.25607 0.23059 0.58066 0.0
H1932 H 0.24024 0.25264 0.59304 0.0
H1933 H 0.23252 0.22834 0.56809 0.0
H1934 H 0.20672 0.24901 0.53996 0.0
H1935 H 0.17818 0.265 0.56196 0.0
H1936 H 0.78031 0.83611 0.93146 0.0
H1937 H 0.75227 0.82079 0.95744 0.0
H1938 H 0.77823 0.75604 0.97044 0.0
H1939 H 0.80641 0.77114 0.94456 0.0
H1940 H 0.73054 0.77429 0.94373 0.0
H1941 H 0.76588 0.78811 0.07563 0.0
H1942 H 0.77191 0.80341 0.03498 0.0
H1943 H 0.77862 0.77448 0.0401 0.0
C1944 C 0.7799 0.81842 0.9389 0.0
C1945 C 0.79563 0.8049 0.93665 0.0
C1946 C 0.76388 0.80974 0.95361 0.0
C1947 C 0.76343 0.78749 0.96619 0.0
C1948 C 0.7785 0.77333 0.96089 0.0
H1949 H 0.70344 0.69909 0.09518 0.0
H1950 H 0.72604 0.72382 0.06754 0.0
C1951 C 0.79453 0.78196 0.946 0.0
C1952 C 0.74828 0.77998 0.98921 0.0
H1953 H 0.73772 0.76878 0.0774 0.0
C1954 C 0.73192 0.77327 0.97298 0.0
C1955 C 0.75029 0.77904 0.02728 0.0
C1956 C 0.76756 0.78676 0.04576 0.0
C1957 C 0.71768 0.7644 0.99395 0.0
C1958 C 0.71994 0.7627 0.03202 0.0
C1959 C 0.73607 0.77029 0.04826 0.0
C1960 C 0.70679 0.75029 0.05465 0.0
C1961 C 0.70077 0.75582 0.97509 0.0
C1962 C 0.68875 0.7577 0.05843 0.0
C1963 C 0.67576 0.74359 0.07433 0.0
C1964 C 0.68074 0.72193 0.08643 0.0
C1965 C 0.69918 0.71557 0.08567 0.0
C1966 C 0.7121 0.72966 0.06991 0.0
H1967 H 0.70244 0.75517 0.94516 0.0
H1968 H 0.69718 0.73867 0.98494 0.0
H1969 H 0.68916 0.76719 0.98128 0.0
H1970 H 0.68455 0.77382 0.04739 0.0
H1971 H 0.66165 0.74897 0.07463 0.0
H1972 H 0.80885 0.26844 0.55686 0.0
H1973 H 0.78096 0.25274 0.53044 0.0
H1974 H 0.75257 0.31493 0.55264 0.0
H1975 H 0.78032 0.33078 0.57906 0.0
H1976 H 0.73243 0.26793 0.56031 0.0
H1977 H 0.76719 0.28834 0.43003 0.0
H1978 H 0.78016 0.27312 0.4635 0.0
H1979 H 0.77332 0.30165 0.47239 0.0
C1980 C 0.79648 0.27841 0.55748 0.0
C1981 C 0.79675 0.30091 0.5694 0.0
C1982 C 0.78063 0.26949 0.54221 0.0
C1983 C 0.76498 0.28293 0.53918 0.0
C1984 C 0.76464 0.30446 0.55467 0.0
H1985 H 0.66262 0.24925 0.43056 0.0
H1986 H 0.68625 0.27336 0.45724 0.0
C1987 C 0.78047 0.31344 0.56968 0.0
C1988 C 0.74999 0.27586 0.51544 0.0
H1989 H 0.73908 0.26902 0.42623 0.0
C1990 C 0.73372 0.26831 0.53101 0.0
C1991 C 0.75186 0.27677 0.47732 0.0
C1992 C 0.76901 0.28553 0.4596 0.0
C1993 C 0.71941 0.26049 0.5092 0.0
C1994 C 0.72147 0.2608 0.47099 0.0
C1995 C 0.73756 0.26908 0.4555 0.0
C1996 C 0.70812 0.24968 0.44721 0.0
C1997 C 0.7026 0.25093 0.52717 0.0
C1998 C 0.713 0.22935 0.43044 0.0
C1999 C 0.69965 0.21569 0.41512 0.0
C2000 C 0.68128 0.22227 0.4163 0.0
C2001 C 0.67671 0.24382 0.42932 0.0
C2002 C 0.69012 0.25748 0.44486 0.0
H2003 H 0.70441 0.24882 0.55689 0.0
H2004 H 0.69094 0.26251 0.52259 0.0
H2005 H 0.69904 0.2343 0.51523 0.0
H2006 H 0.7269 0.22321 0.43175 0.0
H2007 H 0.70351 0.19923 0.40487 0.0
H2008 H 0.66414 0.25107 0.91734 0.0
H2009 H 0.6887 0.22781 0.94211 0.0
H2010 H 0.7274 0.2806 0.91843 0.0
H2011 H 0.7031 0.30377 0.89323 0.0
H2012 H 0.74186 0.23557 0.91523 0.0
H2013 H 0.7035 0.25491 0.04216 0.0
H2014 H 0.69148 0.23967 0.00743 0.0
H2015 H 0.69827 0.26837 0.99955 0.0
C2016 C 0.678 0.25729 0.91589 0.0
C2017 C 0.6817 0.27946 0.90444 0.0
C2018 C 0.69196 0.24405 0.93026 0.0
C2019 C 0.70962 0.25291 0.93305 0.0
C2020 C 0.71375 0.27367 0.91685 0.0
H2021 H 0.80963 0.24133 0.04791 0.0
H2022 H 0.78217 0.25513 0.0175 0.0
C2023 C 0.69985 0.28689 0.90257 0.0
C2024 C 0.72294 0.24302 0.95817 0.0
H2025 H 0.73232 0.23833 0.04857 0.0
C2026 C 0.73973 0.23585 0.94435 0.0
C2027 C 0.72005 0.24378 0.99616 0.0
C2028 C 0.70242 0.25222 0.01241 0.0
C2029 C 0.75393 0.22969 0.96765 0.0
C2030 C 0.75122 0.23118 0.00555 0.0
C2031 C 0.73426 0.23756 0.01942 0.0
C2032 C 0.76596 0.2258 0.03099 0.0
C2033 C 0.77177 0.22184 0.95164 0.0
C2034 C 0.76524 0.20569 0.05079 0.0
C2035 C 0.7808 0.19786 0.06831 0.0
C2036 C 0.79718 0.21011 0.06611 0.0
C2037 C 0.7972 0.23156 0.04996 0.0
C2038 C 0.78162 0.23934 0.0323 0.0
H2039 H 0.77036 0.21718 0.92258 0.0
H2040 H 0.78194 0.23564 0.95368 0.0
H2041 H 0.77714 0.20706 0.96677 0.0
H2042 H 0.75312 0.19524 0.05032 0.0
H2043 H 0.78041 0.18137 0.08101 0.0
H2044 H 0.78289 0.67313 0.42007 0.0
H2045 H 0.75328 0.68686 0.44052 0.0
H2046 H 0.77676 0.75228 0.46193 0.0
H2047 H 0.80643 0.73876 0.44133 0.0
H2048 H 0.7507 0.70017 0.51216 0.0
H2049 H 0.72661 0.76806 0.42085 0.0
H2050 H 0.74336 0.74741 0.40707 0.0
H2051 H 0.75005 0.77155 0.43355 0.0
C2052 C 0.78164 0.69065 0.42814 0.0
C2053 C 0.79702 0.7048 0.42978 0.0
C2054 C 0.76471 0.69844 0.4397 0.0
C2055 C 0.7629 0.72051 0.45276 0.0
C2056 C 0.77786 0.73526 0.45141 0.0
H2057 H 0.70369 0.80053 0.59647 0.0
H2058 H 0.72615 0.77795 0.56383 0.0
C2059 C 0.79482 0.7275 0.43974 0.0
C2060 C 0.74653 0.72695 0.47337 0.0
H2061 H 0.715 0.76873 0.48218 0.0
C2062 C 0.74259 0.71486 0.50523 0.0
C2063 C 0.73606 0.74607 0.46414 0.0
C2064 C 0.73911 0.75889 0.42933 0.0
C2065 C 0.7291 0.72227 0.5293 0.0
C2066 C 0.71946 0.74215 0.52108 0.0
C2067 C 0.72269 0.75356 0.48837 0.0
C2068 C 0.70682 0.75246 0.54706 0.0
C2069 C 0.72583 0.70963 0.56418 0.0
C2070 C 0.68884 0.74477 0.54974 0.0
C2071 C 0.67596 0.75756 0.56853 0.0
C2072 C 0.68097 0.7783 0.5843 0.0
C2073 C 0.6994 0.78476 0.58429 0.0
C2074 C 0.71222 0.77194 0.56564 0.0
H2075 H 0.73472 0.69455 0.56677 0.0
H2076 H 0.72832 0.72099 0.58763 0.0
H2077 H 0.71137 0.70414 0.56552 0.0
H2078 H 0.68454 0.72972 0.53539 0.0
H2079 H 0.66186 0.75215 0.568 0.0
loop_
_geom_bond_atom_site_label_1
_geom_bond_atom_site_label_2
_geom_bond_distance
_geom_bond_site_symmetry_2
_ccdc_geom_bond_type
Sc0 O3 2.025 . S
Sc0 O10 2.105 . S
Sc0 O13 2.105 . S
Sc0 O16 2.105 . S
Sc0 O19 2.105 1_554 S
Sc1 O3 2.025 . S
Sc1 O11 2.105 . S
Sc1 O15 2.105 . S
Sc1 O17 2.105 . S
Sc1 O21 2.105 . S
Sc2 O3 2.025 . S
Sc2 O12 2.105 . S
Sc2 O14 2.105 . S
Sc2 O18 2.105 . S
Sc2 O20 2.105 . S
O3 Sc0 2.025 . S
O3 Sc1 2.025 . S
O3 Sc2 2.025 . S
C4 O10 1.268 . S
C4 O20 1.268 . S
C5 O11 1.268 1_556 S
C5 O19 1.268 . S
C6 O12 1.268 . S
C6 O21 1.268 . S
C7 O13 1.268 . S
C7 O17 1.268 . S
C8 O14 1.268 . S
C8 O16 1.268 . S
C9 O15 1.268 . S
C9 O18 1.268 . S
O10 Sc0 2.105 . S
O10 C4 1.268 . S
O11 Sc1 2.105 . S
O11 C5 1.268 1_554 S
O12 Sc2 2.105 . S
O12 C6 1.268 . S
O13 Sc0 2.105 . S
O13 C7 1.268 . S
O14 Sc2 2.105 . S
O14 C8 1.268 . S
O15 Sc1 2.105 . S
O15 C9 1.268 . S
O16 Sc0 2.105 . S
O16 C8 1.268 . S
O17 Sc1 2.105 . S
O17 C7 1.268 . S
O18 Sc2 2.105 . S
O18 C9 1.268 . S
O19 Sc0 2.105 1_556 S
O19 C5 1.268 . S
O20 Sc2 2.105 . S
O20 C4 1.268 . S
O21 Sc1 2.105 . S
O21 C6 1.268 . S
Sc22 O25 2.025 . S
Sc22 O32 2.105 . S
Sc22 O35 2.105 . S
Sc22 O38 2.105 . S
Sc22 O41 2.105 . S
Sc23 O25 2.025 . S
Sc23 O33 2.105 . S
Sc23 O37 2.105 . S
Sc23 O39 2.105 . S
Sc23 O43 2.105 . S
Sc24 O25 2.025 . S
Sc24 O34 2.105 . S
Sc24 O36 2.105 . S
Sc24 O40 2.105 . S
Sc24 O42 2.105 . S
O25 Sc22 2.025 . S
O25 Sc23 2.025 . S
O25 Sc24 2.025 . S
C26 O32 1.268 . S
C26 O42 1.268 . S
C27 O33 1.268 . S
C27 O41 1.268 . S
C28 O34 1.268 . S
C28 O43 1.268 . S
C29 O35 1.268 . S
C29 O39 1.268 . S
C30 O36 1.268 . S
C30 O38 1.268 . S
C31 O37 1.268 . S
C31 O40 1.268 . S
O32 Sc22 2.105 . S
O32 C26 1.268 . S
O33 Sc23 2.105 . S
O33 C27 1.268 . S
O34 Sc24 2.105 . S
O34 C28 1.268 . S
O35 Sc22 2.105 . S
O35 C29 1.268 . S
O36 Sc24 2.105 . S
O36 C30 1.268 . S
O37 Sc23 2.105 . S
O37 C31 1.268 . S
O38 Sc22 2.105 . S
O38 C30 1.268 . S
O39 Sc23 2.105 . S
O39 C29 1.268 . S
O40 Sc24 2.105 . S
O40 C31 1.268 . S
O41 Sc22 2.105 . S
O41 C27 1.268 . S
O42 Sc24 2.105 . S
O42 C26 1.268 . S
O43 Sc23 2.105 . S
O43 C28 1.268 . S
Sc44 O47 2.025 . S
Sc44 O54 2.105 . S
Sc44 O57 2.105 . S
Sc44 O60 2.105 . S
Sc44 O63 2.105 1_556 S
Sc45 O47 2.025 . S
Sc45 O55 2.105 . S
Sc45 O59 2.105 . S
Sc45 O61 2.105 . S
Sc45 O65 2.105 . S
Sc46 O47 2.025 . S
Sc46 O56 2.105 . S
Sc46 O58 2.105 . S
Sc46 O62 2.105 . S
Sc46 O64 2.105 . S
O47 Sc44 2.025 . S
O47 Sc45 2.025 . S
O47 Sc46 2.025 . S
C48 O54 1.268 . S
C48 O64 1.268 . S
C49 O55 1.268 1_554 S
C49 O63 1.268 . S
C50 O56 1.268 . S
C50 O65 1.268 . S
C51 O57 1.268 . S
C51 O61 1.268 . S
C52 O58 1.268 . S
C52 O60 1.268 . S
C53 O59 1.268 . S
C53 O62 1.268 . S
O54 Sc44 2.105 . S
O54 C48 1.268 . S
O55 Sc45 2.105 . S
O55 C49 1.268 1_556 S
O56 Sc46 2.105 . S
O56 C50 1.268 . S
O57 Sc44 2.105 . S
O57 C51 1.268 . S
O58 Sc46 2.105 . S
O58 C52 1.268 . S
O59 Sc45 2.105 . S
O59 C53 1.268 . S
O60 Sc44 2.105 . S
O60 C52 1.268 . S
O61 Sc45 2.105 . S
O61 C51 1.268 . S
O62 Sc46 2.105 . S
O62 C53 1.268 . S
O63 Sc44 2.105 1_554 S
O63 C49 1.268 . S
O64 Sc46 2.105 . S
O64 C48 1.268 . S
O65 Sc45 2.105 . S
O65 C50 1.268 . S
Sc66 O69 2.025 . S
Sc66 O76 2.105 . S
Sc66 O79 2.105 . S
Sc66 O82 2.105 . S
Sc66 O85 2.105 . S
Sc67 O69 2.025 . S
Sc67 O77 2.105 . S
Sc67 O81 2.105 . S
Sc67 O83 2.105 . S
Sc67 O87 2.105 . S
Sc68 O69 2.025 . S
Sc68 O78 2.105 . S
Sc68 O80 2.105 . S
Sc68 O84 2.105 . S
Sc68 O86 2.105 . S
O69 Sc66 2.025 . S
O69 Sc67 2.025 . S
O69 Sc68 2.025 . S
C70 O76 1.268 . S
C70 O86 1.268 . S
C71 O77 1.268 . S
C71 O85 1.268 . S
C72 O78 1.268 . S
C72 O87 1.268 . S
C73 O79 1.268 . S
C73 O83 1.268 . S
C74 O80 1.268 . S
C74 O82 1.268 . S
C75 O81 1.268 . S
C75 O84 1.268 . S
O76 Sc66 2.105 . S
O76 C70 1.268 . S
O77 Sc67 2.105 . S
O77 C71 1.268 . S
O78 Sc68 2.105 . S
O78 C72 1.268 . S
O79 Sc66 2.105 . S
O79 C73 1.268 . S
O80 Sc68 2.105 . S
O80 C74 1.268 . S
O81 Sc67 2.105 . S
O81 C75 1.268 . S
O82 Sc66 2.105 . S
O82 C74 1.268 . S
O83 Sc67 2.105 . S
O83 C73 1.268 . S
O84 Sc68 2.105 . S
O84 C75 1.268 . S
O85 Sc66 2.105 . S
O85 C71 1.268 . S
O86 Sc68 2.105 . S
O86 C70 1.268 . S
O87 Sc67 2.105 . S
O87 C72 1.268 . S
Sc88 O91 2.025 . S
Sc88 O98 2.105 . S
Sc88 O101 2.105 . S
Sc88 O104 2.105 . S
Sc88 O107 2.105 . S
Sc89 O91 2.025 . S
Sc89 O99 2.105 . S
Sc89 O103 2.105 . S
Sc89 O105 2.105 . S
Sc89 O109 2.105 . S
Sc90 O91 2.025 . S
Sc90 O100 2.105 1_556 S
Sc90 O102 2.105 . S
Sc90 O106 2.105 . S
Sc90 O108 2.105 . S
O91 Sc88 2.025 . S
O91 Sc89 2.025 . S
O91 Sc90 2.025 . S
C92 O98 1.268 . S
C92 O108 1.268 . S
C93 O99 1.268 . S
C93 O107 1.268 . S
C94 O100 1.268 . S
C94 O109 1.268 1_554 S
C95 O101 1.268 . S
C95 O105 1.268 . S
C96 O102 1.268 . S
C96 O104 1.268 . S
C97 O103 1.268 . S
C97 O106 1.268 . S
O98 Sc88 2.105 . S
O98 C92 1.268 . S
O99 Sc89 2.105 . S
O99 C93 1.268 . S
O100 Sc90 2.105 1_554 S
O100 C94 1.268 . S
O101 Sc88 2.105 . S
O101 C95 1.268 . S
O102 Sc90 2.105 . S
O102 C96 1.268 . S
O103 Sc89 2.105 . S
O103 C97 1.268 . S
O104 Sc88 2.105 . S
O104 C96 1.268 . S
O105 Sc89 2.105 . S
O105 C95 1.268 . S
O106 Sc90 2.105 . S
O106 C97 1.268 . S
O107 Sc88 2.105 . S
O107 C93 1.268 . S
O108 Sc90 2.105 . S
O108 C92 1.268 . S
O109 Sc89 2.105 . S
O109 C94 1.268 1_556 S
Sc110 O113 2.025 . S
Sc110 O120 2.105 . S
Sc110 O123 2.105 . S
Sc110 O126 2.105 . S
Sc110 O129 2.105 . S
Sc111 O113 2.025 . S
Sc111 O121 2.105 . S
Sc111 O125 2.105 . S
Sc111 O127 2.105 . S
Sc111 O131 2.105 . S
Sc112 O113 2.025 . S
Sc112 O122 2.105 . S
Sc112 O124 2.105 . S
Sc112 O128 2.105 . S
Sc112 O130 2.105 . S
O113 Sc110 2.025 . S
O113 Sc111 2.025 . S
O113 Sc112 2.025 . S
C114 O120 1.268 . S
C114 O130 1.268 . S
C115 O121 1.268 . S
C115 O129 1.268 . S
C116 O122 1.268 . S
C116 O131 1.268 . S
C117 O123 1.268 . S
C117 O127 1.268 . S
C118 O124 1.268 . S
C118 O126 1.268 . S
C119 O125 1.268 . S
C119 O128 1.268 . S
O120 Sc110 2.105 . S
O120 C114 1.268 . S
O121 Sc111 2.105 . S
O121 C115 1.268 . S
O122 Sc112 2.105 . S
O122 C116 1.268 . S
O123 Sc110 2.105 . S
O123 C117 1.268 . S
O124 Sc112 2.105 . S
O124 C118 1.268 . S
O125 Sc111 2.105 . S
O125 C119 1.268 . S
O126 Sc110 2.105 . S
O126 C118 1.268 . S
O127 Sc111 2.105 . S
O127 C117 1.268 . S
O128 Sc112 2.105 . S
O128 C119 1.268 . S
O129 Sc110 2.105 . S
O129 C115 1.268 . S
O130 Sc112 2.105 . S
O130 C114 1.268 . S
O131 Sc111 2.105 . S
O131 C116 1.268 . S
Sc132 O135 2.025 . S
Sc132 O142 2.105 . S
Sc132 O145 2.105 1_554 S
Sc132 O148 2.105 . S
Sc132 O151 2.105 . S
Sc133 O135 2.025 . S
Sc133 O143 2.105 . S
Sc133 O147 2.105 . S
Sc133 O149 2.105 . S
Sc133 O153 2.105 . S
Sc134 O135 2.025 . S
Sc134 O144 2.105 . S
Sc134 O146 2.105 . S
Sc134 O150 2.105 . S
Sc134 O152 2.105 . S
O135 Sc132 2.025 . S
O135 Sc133 2.025 . S
O135 Sc134 2.025 . S
C136 O142 1.268 . S
C136 O152 1.268 . S
C137 O143 1.268 . S
C137 O151 1.268 . S
C138 O144 1.268 . S
C138 O153 1.268 . S
C139 O145 1.268 . S
C139 O149 1.268 1_556 S
C140 O146 1.268 . S
C140 O148 1.268 . S
C141 O147 1.268 . S
C141 O150 1.268 . S
O142 Sc132 2.105 . S
O142 C136 1.268 . S
O143 Sc133 2.105 . S
O143 C137 1.268 . S
O144 Sc134 2.105 . S
O144 C138 1.268 . S
O145 Sc132 2.105 1_556 S
O145 C139 1.268 . S
O146 Sc134 2.105 . S
O146 C140 1.268 . S
O147 Sc133 2.105 . S
O147 C141 1.268 . S
O148 Sc132 2.105 . S
O148 C140 1.268 . S
O149 Sc133 2.105 . S
O149 C139 1.268 1_554 S
O150 Sc134 2.105 . S
O150 C141 1.268 . S
O151 Sc132 2.105 . S
O151 C137 1.268 . S
O152 Sc134 2.105 . S
O152 C136 1.268 . S
O153 Sc133 2.105 . S
O153 C138 1.268 . S
Sc154 O157 2.025 . S
Sc154 O164 2.105 . S
Sc154 O167 2.105 . S
Sc154 O170 2.105 . S
Sc154 O173 2.105 . S
Sc155 O157 2.025 . S
Sc155 O165 2.105 . S
Sc155 O169 2.105 . S
Sc155 O171 2.105 . S
Sc155 O175 2.105 . S
Sc156 O157 2.025 . S
Sc156 O166 2.105 . S
Sc156 O168 2.105 . S
Sc156 O172 2.105 . S
Sc156 O174 2.105 . S
O157 Sc154 2.025 . S
O157 Sc155 2.025 . S
O157 Sc156 2.025 . S
C158 O164 1.268 . S
C158 O174 1.268 . S
C159 O165 1.268 . S
C159 O173 1.268 . S
C160 O166 1.268 . S
C160 O175 1.268 . S
C161 O167 1.268 . S
C161 O171 1.268 . S
C162 O168 1.268 . S
C162 O170 1.268 . S
C163 O169 1.268 . S
C163 O172 1.268 . S
O164 Sc154 2.105 . S
O164 C158 1.268 . S
O165 Sc155 2.105 . S
O165 C159 1.268 . S
O166 Sc156 2.105 . S
O166 C160 1.268 . S
O167 Sc154 2.105 . S
O167 C161 1.268 . S
O168 Sc156 2.105 . S
O168 C162 1.268 . S
O169 Sc155 2.105 . S
O169 C163 1.268 . S
O170 Sc154 2.105 . S
O170 C162 1.268 . S
O171 Sc155 2.105 . S
O171 C161 1.268 . S
O172 Sc156 2.105 . S
O172 C163 1.268 . S
O173 Sc154 2.105 . S
O173 C159 1.268 . S
O174 Sc156 2.105 . S
O174 C158 1.268 . S
O175 Sc155 2.105 . S
O175 C160 1.268 . S
Sc176 O179 2.025 . S
Sc176 O186 2.105 . S
Sc176 O189 2.105 . S
Sc176 O192 2.105 . S
Sc176 O195 2.105 1_554 S
Sc177 O179 2.025 . S
Sc177 O187 2.105 . S
Sc177 O191 2.105 . S
Sc177 O193 2.105 . S
Sc177 O197 2.105 . S
Sc178 O179 2.025 . S
Sc178 O188 2.105 . S
Sc178 O190 2.105 . S
Sc178 O194 2.105 . S
Sc178 O196 2.105 . S
O179 Sc176 2.025 . S
O179 Sc177 2.025 . S
O179 Sc178 2.025 . S
C180 O186 1.268 . S
C180 O196 1.268 . S
C181 O187 1.268 1_556 S
C181 O195 1.268 . S
C182 O188 1.268 . S
C182 O197 1.268 . S
C183 O189 1.268 . S
C183 O193 1.268 . S
C184 O190 1.268 . S
C184 O192 1.268 . S
C185 O191 1.268 . S
C185 O194 1.268 . S
O186 Sc176 2.105 . S
O186 C180 1.268 . S
O187 Sc177 2.105 . S
O187 C181 1.268 1_554 S
O188 Sc178 2.105 . S
O188 C182 1.268 . S
O189 Sc176 2.105 . S
O189 C183 1.268 . S
O190 Sc178 2.105 . S
O190 C184 1.268 . S
O191 Sc177 2.105 . S
O191 C185 1.268 . S
O192 Sc176 2.105 . S
O192 C184 1.268 . S
O193 Sc177 2.105 . S
O193 C183 1.268 . S
O194 Sc178 2.105 . S
O194 C185 1.268 . S
O195 Sc176 2.105 1_556 S
O195 C181 1.268 . S
O196 Sc178 2.105 . S
O196 C180 1.268 . S
O197 Sc177 2.105 . S
O197 C182 1.268 . S
Sc198 O201 2.025 . S
Sc198 O208 2.105 . S
Sc198 O211 2.105 . S
Sc198 O214 2.105 . S
Sc198 O217 2.105 . S
Sc199 O201 2.025 . S
Sc199 O209 2.105 . S
Sc199 O213 2.105 . S
Sc199 O215 2.105 . S
Sc199 O219 2.105 . S
Sc200 O201 2.025 . S
Sc200 O210 2.105 . S
Sc200 O212 2.105 . S
Sc200 O216 2.105 . S
Sc200 O218 2.105 . S
O201 Sc198 2.025 . S
O201 Sc199 2.025 . S
O201 Sc200 2.025 . S
C202 O208 1.268 . S
C202 O218 1.268 . S
C203 O209 1.268 . S
C203 O217 1.268 . S
C204 O210 1.268 . S
C204 O219 1.268 . S
C205 O211 1.268 . S
C205 O215 1.268 . S
C206 O212 1.268 . S
C206 O214 1.268 . S
C207 O213 1.268 . S
C207 O216 1.268 . S
O208 Sc198 2.105 . S
O208 C202 1.268 . S
O209 Sc199 2.105 . S
O209 C203 1.268 . S
O210 Sc200 2.105 . S
O210 C204 1.268 . S
O211 Sc198 2.105 . S
O211 C205 1.268 . S
O212 Sc200 2.105 . S
O212 C206 1.268 . S
O213 Sc199 2.105 . S
O213 C207 1.268 . S
O214 Sc198 2.105 . S
O214 C206 1.268 . S
O215 Sc199 2.105 . S
O215 C205 1.268 . S
O216 Sc200 2.105 . S
O216 C207 1.268 . S
O217 Sc198 2.105 . S
O217 C203 1.268 . S
O218 Sc200 2.105 . S
O218 C202 1.268 . S
O219 Sc199 2.105 . S
O219 C204 1.268 . S
Sc220 O223 2.025 . S
Sc220 O230 2.105 . S
Sc220 O233 2.105 . S
Sc220 O236 2.105 . S
Sc220 O239 2.105 1_556 S
Sc221 O223 2.025 . S
Sc221 O231 2.105 . S
Sc221 O235 2.105 . S
Sc221 O237 2.105 . S
Sc221 O241 2.105 . S
Sc222 O223 2.025 . S
Sc222 O232 2.105 . S
Sc222 O234 2.105 . S
Sc222 O238 2.105 . S
Sc222 O240 2.105 . S
O223 Sc220 2.025 . S
O223 Sc221 2.025 . S
O223 Sc222 2.025 . S
C224 O230 1.268 . S
C224 O240 1.268 . S
C225 O231 1.268 1_554 S
C225 O239 1.268 . S
C226 O232 1.268 . S
C226 O241 1.268 . S
C227 O233 1.268 . S
C227 O237 1.268 . S
C228 O234 1.268 . S
C228 O236 1.268 . S
C229 O235 1.268 . S
C229 O238 1.268 . S
O230 Sc220 2.105 . S
O230 C224 1.268 . S
O231 Sc221 2.105 . S
O231 C225 1.268 1_556 S
O232 Sc222 2.105 . S
O232 C226 1.268 . S
O233 Sc220 2.105 . S
O233 C227 1.268 . S
O234 Sc222 2.105 . S
O234 C228 1.268 . S
O235 Sc221 2.105 . S
O235 C229 1.268 . S
O236 Sc220 2.105 . S
O236 C228 1.268 . S
O237 Sc221 2.105 . S
O237 C227 1.268 . S
O238 Sc222 2.105 . S
O238 C229 1.268 . S
O239 Sc220 2.105 1_554 S
O239 C225 1.268 . S
O240 Sc222 2.105 . S
O240 C224 1.268 . S
O241 Sc221 2.105 . S
O241 C226 1.268 . S
Sc242 O245 2.025 . S
Sc242 O252 2.105 . S
Sc242 O255 2.105 . S
Sc242 O258 2.105 . S
Sc242 O261 2.105 . S
Sc243 O245 2.025 . S
Sc243 O253 2.105 . S
Sc243 O257 2.105 . S
Sc243 O259 2.105 . S
Sc243 O263 2.105 . S
Sc244 O245 2.025 . S
Sc244 O254 2.105 . S
Sc244 O256 2.105 . S
Sc244 O260 2.105 . S
Sc244 O262 2.105 . S
O245 Sc242 2.025 . S
O245 Sc243 2.025 . S
O245 Sc244 2.025 . S
C246 O252 1.268 . S
C246 O262 1.268 . S
C247 O253 1.268 . S
C247 O261 1.268 . S
C248 O254 1.268 . S
C248 O263 1.268 . S
C249 O255 1.268 . S
C249 O259 1.268 . S
C250 O256 1.268 . S
C250 O258 1.268 . S
C251 O257 1.268 . S
C251 O260 1.268 . S
O252 Sc242 2.105 . S
O252 C246 1.268 . S
O253 Sc243 2.105 . S
O253 C247 1.268 . S
O254 Sc244 2.105 . S
O254 C248 1.268 . S
O255 Sc242 2.105 . S
O255 C249 1.268 . S
O256 Sc244 2.105 . S
O256 C250 1.268 . S
O257 Sc243 2.105 . S
O257 C251 1.268 . S
O258 Sc242 2.105 . S
O258 C250 1.268 . S
O259 Sc243 2.105 . S
O259 C249 1.268 . S
O260 Sc244 2.105 . S
O260 C251 1.268 . S
O261 Sc242 2.105 . S
O261 C247 1.268 . S
O262 Sc244 2.105 . S
O262 C246 1.268 . S
O263 Sc243 2.105 . S
O263 C248 1.268 . S
Sc264 O267 2.025 . S
Sc264 O274 2.105 . S
Sc264 O277 2.105 . S
Sc264 O280 2.105 . S
Sc264 O283 2.105 . S
Sc265 O267 2.025 . S
Sc265 O275 2.105 . S
Sc265 O279 2.105 . S
Sc265 O281 2.105 . S
Sc265 O285 2.105 . S
Sc266 O267 2.025 . S
Sc266 O276 2.105 1_556 S
Sc266 O278 2.105 . S
Sc266 O282 2.105 . S
Sc266 O284 2.105 . S
O267 Sc264 2.025 . S
O267 Sc265 2.025 . S
O267 Sc266 2.025 . S
C268 O274 1.268 . S
C268 O284 1.268 . S
C269 O275 1.268 . S
C269 O283 1.268 . S
C270 O276 1.268 . S
C270 O285 1.268 1_554 S
C271 O277 1.268 . S
C271 O281 1.268 . S
C272 O278 1.268 . S
C272 O280 1.268 . S
C273 O279 1.268 . S
C273 O282 1.268 . S
O274 Sc264 2.105 . S
O274 C268 1.268 . S
O275 Sc265 2.105 . S
O275 C269 1.268 . S
O276 Sc266 2.105 1_554 S
O276 C270 1.268 . S
O277 Sc264 2.105 . S
O277 C271 1.268 . S
O278 Sc266 2.105 . S
O278 C272 1.268 . S
O279 Sc265 2.105 . S
O279 C273 1.268 . S
O280 Sc264 2.105 . S
O280 C272 1.268 . S
O281 Sc265 2.105 . S
O281 C271 1.268 . S
O282 Sc266 2.105 . S
O282 C273 1.268 . S
O283 Sc264 2.105 . S
O283 C269 1.268 . S
O284 Sc266 2.105 . S
O284 C268 1.268 . S
O285 Sc265 2.105 . S
O285 C270 1.268 1_556 S
Sc286 O289 2.025 . S
Sc286 O296 2.105 . S
Sc286 O299 2.105 . S
Sc286 O302 2.105 . S
Sc286 O305 2.105 . S
Sc287 O289 2.025 . S
Sc287 O297 2.105 . S
Sc287 O301 2.105 . S
Sc287 O303 2.105 . S
Sc287 O307 2.105 . S
Sc288 O289 2.025 . S
Sc288 O298 2.105 . S
Sc288 O300 2.105 . S
Sc288 O304 2.105 . S
Sc288 O306 2.105 . S
O289 Sc286 2.025 . S
O289 Sc287 2.025 . S
O289 Sc288 2.025 . S
C290 O296 1.268 . S
C290 O306 1.268 . S
C291 O297 1.268 . S
C291 O305 1.268 . S
C292 O298 1.268 . S
C292 O307 1.268 . S
C293 O299 1.268 . S
C293 O303 1.268 . S
C294 O300 1.268 . S
C294 O302 1.268 . S
C295 O301 1.268 . S
C295 O304 1.268 . S
O296 Sc286 2.105 . S
O296 C290 1.268 . S
O297 Sc287 2.105 . S
O297 C291 1.268 . S
O298 Sc288 2.105 . S
O298 C292 1.268 . S
O299 Sc286 2.105 . S
O299 C293 1.268 . S
O300 Sc288 2.105 . S
O300 C294 1.268 . S
O301 Sc287 2.105 . S
O301 C295 1.268 . S
O302 Sc286 2.105 . S
O302 C294 1.268 . S
O303 Sc287 2.105 . S
O303 C293 1.268 . S
O304 Sc288 2.105 . S
O304 C295 1.268 . S
O305 Sc286 2.105 . S
O305 C291 1.268 . S
O306 Sc288 2.105 . S
O306 C290 1.268 . S
O307 Sc287 2.105 . S
O307 C292 1.268 . S
Sc308 O311 2.025 . S
Sc308 O318 2.105 . S
Sc308 O321 2.105 1_554 S
Sc308 O324 2.105 . S
Sc308 O327 2.105 . S
Sc309 O311 2.025 . S
Sc309 O319 2.105 . S
Sc309 O323 2.105 . S
Sc309 O325 2.105 . S
Sc309 O329 2.105 . S
Sc310 O311 2.025 . S
Sc310 O320 2.105 . S
Sc310 O322 2.105 . S
Sc310 O326 2.105 . S
Sc310 O328 2.105 . S
O311 Sc308 2.025 . S
O311 Sc309 2.025 . S
O311 Sc310 2.025 . S
C312 O318 1.268 . S
C312 O328 1.268 . S
C313 O319 1.268 . S
C313 O327 1.268 . S
C314 O320 1.268 . S
C314 O329 1.268 . S
C315 O321 1.268 . S
C315 O325 1.268 1_556 S
C316 O322 1.268 . S
C316 O324 1.268 . S
C317 O323 1.268 . S
C317 O326 1.268 . S
O318 Sc308 2.105 . S
O318 C312 1.268 . S
O319 Sc309 2.105 . S
O319 C313 1.268 . S
O320 Sc310 2.105 . S
O320 C314 1.268 . S
O321 Sc308 2.105 1_556 S
O321 C315 1.268 . S
O322 Sc310 2.105 . S
O322 C316 1.268 . S
O323 Sc309 2.105 . S
O323 C317 1.268 . S
O324 Sc308 2.105 . S
O324 C316 1.268 . S
O325 Sc309 2.105 . S
O325 C315 1.268 1_554 S
O326 Sc310 2.105 . S
O326 C317 1.268 . S
O327 Sc308 2.105 . S
O327 C313 1.268 . S
O328 Sc310 2.105 . S
O328 C312 1.268 . S
O329 Sc309 2.105 . S
O329 C314 1.268 . S
Sc330 O333 2.025 . S
Sc330 O340 2.105 . S
Sc330 O343 2.105 . S
Sc330 O346 2.105 . S
Sc330 O349 2.105 . S
Sc331 O333 2.025 . S
Sc331 O341 2.105 . S
Sc331 O345 2.105 . S
Sc331 O347 2.105 . S
Sc331 O351 2.105 . S
Sc332 O333 2.025 . S
Sc332 O342 2.105 . S
Sc332 O344 2.105 . S
Sc332 O348 2.105 . S
Sc332 O350 2.105 . S
O333 Sc330 2.025 . S
O333 Sc331 2.025 . S
O333 Sc332 2.025 . S
C334 O340 1.268 . S
C334 O350 1.268 . S
C335 O341 1.268 . S
C335 O349 1.268 . S
C336 O342 1.268 . S
C336 O351 1.268 . S
C337 O343 1.268 . S
C337 O347 1.268 . S
C338 O344 1.268 . S
C338 O346 1.268 . S
C339 O345 1.268 . S
C339 O348 1.268 . S
O340 Sc330 2.105 . S
O340 C334 1.268 . S
O341 Sc331 2.105 . S
O341 C335 1.268 . S
O342 Sc332 2.105 . S
O342 C336 1.268 . S
O343 Sc330 2.105 . S
O343 C337 1.268 . S
O344 Sc332 2.105 . S
O344 C338 1.268 . S
O345 Sc331 2.105 . S
O345 C339 1.268 . S
O346 Sc330 2.105 . S
O346 C338 1.268 . S
O347 Sc331 2.105 . S
O347 C337 1.268 . S
O348 Sc332 2.105 . S
O348 C339 1.268 . S
O349 Sc330 2.105 . S
O349 C335 1.268 . S
O350 Sc332 2.105 . S
O350 C334 1.268 . S
O351 Sc331 2.105 . S
O351 C336 1.268 . S
H352 C360 0.929 . S
H353 C362 0.930 . S
H354 C364 0.930 . S
H355 C367 0.929 . S
H356 C370 0.930 . S
H357 C372 0.960 . S
H358 C372 0.960 . S
H359 C372 0.960 . S
C360 H352 0.929 . S
C360 C361 1.377 . S
C360 C362 1.384 . S
C361 C360 1.377 . S
C361 C367 1.390 . S
C362 H353 0.930 . S
C362 C360 1.384 . S
C362 C363 1.372 . S
C363 C362 1.372 . S
C363 C364 1.400 . S
C363 C368 1.490 . S
C364 H354 0.930 . S
C364 C363 1.400 . S
C364 C367 1.386 . S
H365 C381 0.930 . S
H366 C382 0.931 . S
C367 H355 0.929 . S
C367 C361 1.390 . S
C367 C364 1.386 . S
C368 C363 1.490 . S
C368 C370 1.395 . S
C368 C371 1.403 . S
H369 C375 0.930 . S
C370 H356 0.930 . S
C370 C368 1.395 . S
C370 C373 1.403 . S
C371 C368 1.403 . S
C371 C372 1.524 . S
C371 C375 1.400 . S
C372 H357 0.960 . S
C372 H358 0.960 . S
C372 H359 0.960 . S
C372 C371 1.524 . S
C373 C370 1.403 . S
C373 C374 1.392 . S
C373 C377 1.495 . S
C374 C373 1.392 . S
C374 C375 1.385 . S
C374 C376 1.478 . S
C375 H369 0.930 . S
C375 C371 1.400 . S
C375 C374 1.385 . S
C376 C374 1.478 . S
C376 C378 1.381 . S
C376 C382 1.383 . S
C377 C373 1.495 . S
C377 H383 0.959 . S
C377 H384 0.961 . S
C377 H385 0.960 . S
C378 C376 1.381 . S
C378 C379 1.394 . S
C378 H386 0.930 . S
C379 C378 1.394 . S
C379 C380 1.383 . S
C379 H387 0.929 . S
C380 C379 1.383 . S
C380 C381 1.377 . S
C381 H365 0.930 . S
C381 C380 1.377 . S
C381 C382 1.379 . S
C382 H366 0.931 . S
C382 C376 1.383 . S
C382 C381 1.379 . S
H383 C377 0.959 . S
H384 C377 0.961 . S
H385 C377 0.960 . S
H386 C378 0.930 . S
H387 C379 0.929 . S
H388 C396 0.929 . S
H389 C398 0.930 . S
H390 C400 0.930 . S
H391 C403 0.929 . S
H392 C406 0.930 . S
H393 C408 0.960 . S
H394 C408 0.960 . S
H395 C408 0.960 . S
C396 H388 0.929 . S
C396 C397 1.377 . S
C396 C398 1.384 . S
C397 C396 1.377 . S
C397 C403 1.390 . S
C398 H389 0.930 . S
C398 C396 1.384 . S
C398 C399 1.372 . S
C399 C398 1.372 . S
C399 C400 1.400 . S
C399 C404 1.490 . S
C400 H390 0.930 . S
C400 C399 1.400 . S
C400 C403 1.386 . S
H401 C417 0.930 . S
H402 C418 0.931 . S
C403 H391 0.929 . S
C403 C397 1.390 . S
C403 C400 1.386 . S
C404 C399 1.490 . S
C404 C406 1.395 . S
C404 C407 1.403 . S
H405 C411 0.930 . S
C406 H392 0.930 . S
C406 C404 1.395 . S
C406 C409 1.403 . S
C407 C404 1.403 . S
C407 C408 1.524 . S
C407 C411 1.400 . S
C408 H393 0.960 . S
C408 H394 0.960 . S
C408 H395 0.960 . S
C408 C407 1.524 . S
C409 C406 1.403 . S
C409 C410 1.392 . S
C409 C413 1.495 . S
C410 C409 1.392 . S
C410 C411 1.385 . S
C410 C412 1.478 . S
C411 H405 0.930 . S
C411 C407 1.400 . S
C411 C410 1.385 . S
C412 C410 1.478 . S
C412 C414 1.381 . S
C412 C418 1.383 . S
C413 C409 1.495 . S
C413 H419 0.959 . S
C413 H420 0.961 . S
C413 H421 0.960 . S
C414 C412 1.381 . S
C414 C415 1.394 . S
C414 H422 0.930 . S
C415 C414 1.394 . S
C415 C416 1.383 . S
C415 H423 0.929 . S
C416 C415 1.383 . S
C416 C417 1.377 . S
C417 H401 0.930 . S
C417 C416 1.377 . S
C417 C418 1.379 . S
C418 H402 0.931 . S
C418 C412 1.383 . S
C418 C417 1.379 . S
H419 C413 0.959 . S
H420 C413 0.961 . S
H421 C413 0.960 . S
H422 C414 0.930 . S
H423 C415 0.929 . S
H424 C432 0.929 . S
H425 C434 0.930 . S
H426 C436 0.930 . S
H427 C439 0.929 . S
H428 C442 0.930 . S
H429 C444 0.960 . S
H430 C444 0.960 . S
H431 C444 0.960 . S
C432 H424 0.929 . S
C432 C433 1.377 . S
C432 C434 1.384 . S
C433 C432 1.377 . S
C433 C439 1.390 . S
C434 H425 0.930 . S
C434 C432 1.384 . S
C434 C435 1.372 . S
C435 C434 1.372 . S
C435 C436 1.400 . S
C435 C440 1.490 . S
C436 H426 0.930 . S
C436 C435 1.400 . S
C436 C439 1.386 . S
H437 C453 0.930 . S
H438 C454 0.931 . S
C439 H427 0.929 . S
C439 C433 1.390 . S
C439 C436 1.386 . S
C440 C435 1.490 . S
C440 C442 1.395 . S
C440 C443 1.403 . S
H441 C447 0.930 . S
C442 H428 0.930 . S
C442 C440 1.395 . S
C442 C445 1.403 . S
C443 C440 1.403 . S
C443 C444 1.524 . S
C443 C447 1.400 . S
C444 H429 0.960 . S
C444 H430 0.960 . S
C444 H431 0.960 . S
C444 C443 1.524 . S
C445 C442 1.403 . S
C445 C446 1.392 . S
C445 C449 1.495 . S
C446 C445 1.392 . S
C446 C447 1.385 . S
C446 C448 1.478 . S
C447 H441 0.930 . S
C447 C443 1.400 . S
C447 C446 1.385 . S
C448 C446 1.478 . S
C448 C450 1.381 . S
C448 C454 1.383 . S
C449 C445 1.495 . S
C449 H455 0.959 . S
C449 H456 0.961 . S
C449 H457 0.960 . S
C450 C448 1.381 . S
C450 C451 1.394 . S
C450 H458 0.930 . S
C451 C450 1.394 . S
C451 C452 1.383 . S
C451 H459 0.929 . S
C452 C451 1.383 . S
C452 C453 1.377 . S
C453 H437 0.930 . S
C453 C452 1.377 . S
C453 C454 1.379 . S
C454 H438 0.931 . S
C454 C448 1.383 . S
C454 C453 1.379 . S
H455 C449 0.959 . S
H456 C449 0.961 . S
H457 C449 0.960 . S
H458 C450 0.930 . S
H459 C451 0.929 . S
H460 C468 0.929 . S
H461 C470 0.930 . S
H462 C472 0.930 . S
H463 C475 0.929 . S
H464 C478 0.930 . S
H465 C480 0.960 . S
H466 C480 0.960 . S
H467 C480 0.960 . S
C468 H460 0.929 . S
C468 C469 1.377 . S
C468 C470 1.384 . S
C469 C468 1.377 . S
C469 C475 1.390 . S
C470 H461 0.930 . S
C470 C468 1.384 . S
C470 C471 1.372 . S
C471 C470 1.372 . S
C471 C472 1.400 . S
C471 C476 1.490 . S
C472 H462 0.930 . S
C472 C471 1.400 . S
C472 C475 1.386 . S
H473 C489 0.930 . S
H474 C490 0.931 . S
C475 H463 0.929 . S
C475 C469 1.390 . S
C475 C472 1.386 . S
C476 C471 1.490 . S
C476 C478 1.395 . S
C476 C479 1.403 . S
H477 C483 0.930 . S
C478 H464 0.930 . S
C478 C476 1.395 . S
C478 C481 1.403 . S
C479 C476 1.403 . S
C479 C480 1.524 . S
C479 C483 1.400 . S
C480 H465 0.960 . S
C480 H466 0.960 . S
C480 H467 0.960 . S
C480 C479 1.524 . S
C481 C478 1.403 . S
C481 C482 1.392 . S
C481 C485 1.495 . S
C482 C481 1.392 . S
C482 C483 1.385 . S
C482 C484 1.478 . S
C483 H477 0.930 . S
C483 C479 1.400 . S
C483 C482 1.385 . S
C484 C482 1.478 . S
C484 C486 1.381 . S
C484 C490 1.383 . S
C485 C481 1.495 . S
C485 H491 0.959 . S
C485 H492 0.961 . S
C485 H493 0.960 . S
C486 C484 1.381 . S
C486 C487 1.394 . S
C486 H494 0.930 . S
C487 C486 1.394 . S
C487 C488 1.383 . S
C487 H495 0.929 . S
C488 C487 1.383 . S
C488 C489 1.377 . S
C489 H473 0.930 . S
C489 C488 1.377 . S
C489 C490 1.379 . S
C490 H474 0.931 . S
C490 C484 1.383 . S
C490 C489 1.379 . S
H491 C485 0.959 . S
H492 C485 0.961 . S
H493 C485 0.960 . S
H494 C486 0.930 . S
H495 C487 0.929 . S
H496 C504 0.929 . S
H497 C506 0.930 . S
H498 C508 0.930 . S
H499 C511 0.929 . S
H500 C514 0.930 . S
H501 C516 0.960 . S
H502 C516 0.960 . S
H503 C516 0.960 . S
C504 H496 0.929 . S
C504 C505 1.377 . S
C504 C506 1.384 . S
C505 C504 1.377 . S
C505 C511 1.390 . S
C506 H497 0.930 . S
C506 C504 1.384 . S
C506 C507 1.372 . S
C507 C506 1.372 . S
C507 C508 1.400 . S
C507 C512 1.490 . S
C508 H498 0.930 . S
C508 C507 1.400 . S
C508 C511 1.386 . S
H509 C525 0.930 . S
H510 C526 0.931 . S
C511 H499 0.929 . S
C511 C505 1.390 . S
C511 C508 1.386 . S
C512 C507 1.490 . S
C512 C514 1.395 . S
C512 C515 1.403 . S
H513 C519 0.930 . S
C514 H500 0.930 . S
C514 C512 1.395 . S
C514 C517 1.403 . S
C515 C512 1.403 . S
C515 C516 1.524 . S
C515 C519 1.400 . S
C516 H501 0.960 . S
C516 H502 0.960 . S
C516 H503 0.960 . S
C516 C515 1.524 . S
C517 C514 1.403 . S
C517 C518 1.392 . S
C517 C521 1.495 . S
C518 C517 1.392 . S
C518 C519 1.385 . S
C518 C520 1.478 . S
C519 H513 0.930 . S
C519 C515 1.400 . S
C519 C518 1.385 . S
C520 C518 1.478 . S
C520 C522 1.381 . S
C520 C526 1.383 . S
C521 C517 1.495 . S
C521 H527 0.959 . S
C521 H528 0.961 . S
C521 H529 0.960 . S
C522 C520 1.381 . S
C522 C523 1.394 . S
C522 H530 0.930 . S
C523 C522 1.394 . S
C523 C524 1.383 . S
C523 H531 0.929 . S
C524 C523 1.383 . S
C524 C525 1.377 . S
C525 H509 0.930 . S
C525 C524 1.377 . S
C525 C526 1.379 . S
C526 H510 0.931 . S
C526 C520 1.383 . S
C526 C525 1.379 . S
H527 C521 0.959 . S
H528 C521 0.961 . S
H529 C521 0.960 . S
H530 C522 0.930 . S
H531 C523 0.929 . S
H532 C540 0.929 . S
H533 C542 0.930 . S
H534 C544 0.930 . S
H535 C547 0.929 . S
H536 C550 0.930 . S
H537 C552 0.960 . S
H538 C552 0.960 . S
H539 C552 0.960 . S
C540 H532 0.929 . S
C540 C541 1.377 . S
C540 C542 1.384 . S
C541 C540 1.377 . S
C541 C547 1.390 . S
C542 H533 0.930 . S
C542 C540 1.384 . S
C542 C543 1.372 . S
C543 C542 1.372 . S
C543 C544 1.400 . S
C543 C548 1.490 . S
C544 H534 0.930 . S
C544 C543 1.400 . S
C544 C547 1.386 . S
H545 C561 0.930 . S
H546 C562 0.931 . S
C547 H535 0.929 . S
C547 C541 1.390 . S
C547 C544 1.386 . S
C548 C543 1.490 . S
C548 C550 1.395 . S
C548 C551 1.403 . S
H549 C555 0.930 . S
C550 H536 0.930 . S
C550 C548 1.395 . S
C550 C553 1.403 . S
C551 C548 1.403 . S
C551 C552 1.524 . S
C551 C555 1.400 . S
C552 H537 0.960 . S
C552 H538 0.960 . S
C552 H539 0.960 . S
C552 C551 1.524 . S
C553 C550 1.403 . S
C553 C554 1.392 . S
C553 C557 1.495 . S
C554 C553 1.392 . S
C554 C555 1.385 . S
C554 C556 1.478 . S
C555 H549 0.930 . S
C555 C551 1.400 . S
C555 C554 1.385 . S
C556 C554 1.478 . S
C556 C558 1.381 . S
C556 C562 1.383 . S
C557 C553 1.495 . S
C557 H563 0.959 . S
C557 H564 0.961 . S
C557 H565 0.960 . S
C558 C556 1.381 . S
C558 C559 1.394 . S
C558 H566 0.930 . S
C559 C558 1.394 . S
C559 C560 1.383 . S
C559 H567 0.929 . S
C560 C559 1.383 . S
C560 C561 1.377 . S
C561 H545 0.930 . S
C561 C560 1.377 . S
C561 C562 1.379 . S
C562 H546 0.931 . S
C562 C556 1.383 . S
C562 C561 1.379 . S
H563 C557 0.959 . S
H564 C557 0.961 . S
H565 C557 0.960 . S
H566 C558 0.930 . S
H567 C559 0.929 . S
H568 C576 0.929 . S
H569 C578 0.930 . S
H570 C580 0.930 . S
H571 C583 0.929 . S
H572 C586 0.930 . S
H573 C588 0.960 . S
H574 C588 0.960 . S
H575 C588 0.960 . S
C576 H568 0.929 . S
C576 C577 1.377 . S
C576 C578 1.384 . S
C577 C576 1.377 . S
C577 C583 1.390 . S
C578 H569 0.930 . S
C578 C576 1.384 . S
C578 C579 1.372 . S
C579 C578 1.372 . S
C579 C580 1.400 . S
C579 C584 1.490 . S
C580 H570 0.930 . S
C580 C579 1.400 . S
C580 C583 1.386 . S
H581 C597 0.930 . S
H582 C598 0.931 . S
C583 H571 0.929 . S
C583 C577 1.390 . S
C583 C580 1.386 . S
C584 C579 1.490 . S
C584 C586 1.395 . S
C584 C587 1.403 . S
H585 C591 0.930 . S
C586 H572 0.930 . S
C586 C584 1.395 . S
C586 C589 1.403 . S
C587 C584 1.403 . S
C587 C588 1.524 . S
C587 C591 1.400 . S
C588 H573 0.960 . S
C588 H574 0.960 . S
C588 H575 0.960 . S
C588 C587 1.524 . S
C589 C586 1.403 . S
C589 C590 1.392 . S
C589 C593 1.495 . S
C590 C589 1.392 . S
C590 C591 1.385 . S
C590 C592 1.478 . S
C591 H585 0.930 . S
C591 C587 1.400 . S
C591 C590 1.385 . S
C592 C590 1.478 . S
C592 C594 1.381 . S
C592 C598 1.383 . S
C593 C589 1.495 . S
C593 H599 0.959 . S
C593 H600 0.961 . S
C593 H601 0.960 . S
C594 C592 1.381 . S
C594 C595 1.394 . S
C594 H602 0.930 . S
C595 C594 1.394 . S
C595 C596 1.383 . S
C595 H603 0.929 . S
C596 C595 1.383 . S
C596 C597 1.377 . S
C597 H581 0.930 . S
C597 C596 1.377 . S
C597 C598 1.379 . S
C598 H582 0.931 . S
C598 C592 1.383 . S
C598 C597 1.379 . S
H599 C593 0.959 . S
H600 C593 0.961 . S
H601 C593 0.960 . S
H602 C594 0.930 . S
H603 C595 0.929 . S
H604 C612 0.929 . S
H605 C614 0.930 . S
H606 C616 0.930 . S
H607 C619 0.929 . S
H608 C622 0.930 . S
H609 C624 0.960 . S
H610 C624 0.960 . S
H611 C624 0.960 . S
C612 H604 0.929 . S
C612 C613 1.377 . S
C612 C614 1.384 . S
C613 C612 1.377 . S
C613 C619 1.390 . S
C614 H605 0.930 . S
C614 C612 1.384 . S
C614 C615 1.372 . S
C615 C614 1.372 . S
C615 C616 1.400 . S
C615 C620 1.490 . S
C616 H606 0.930 . S
C616 C615 1.400 . S
C616 C619 1.386 . S
H617 C633 0.930 . S
H618 C634 0.931 . S
C619 H607 0.929 . S
C619 C613 1.390 . S
C619 C616 1.386 . S
C620 C615 1.490 . S
C620 C622 1.395 . S
C620 C623 1.403 . S
H621 C627 0.930 . S
C622 H608 0.930 . S
C622 C620 1.395 . S
C622 C625 1.403 . S
C623 C620 1.403 . S
C623 C624 1.524 . S
C623 C627 1.400 . S
C624 H609 0.960 . S
C624 H610 0.960 . S
C624 H611 0.960 . S
C624 C623 1.524 . S
C625 C622 1.403 . S
C625 C626 1.392 . S
C625 C629 1.495 . S
C626 C625 1.392 . S
C626 C627 1.385 . S
C626 C628 1.478 . S
C627 H621 0.930 . S
C627 C623 1.400 . S
C627 C626 1.385 . S
C628 C626 1.478 . S
C628 C630 1.381 . S
C628 C634 1.383 . S
C629 C625 1.495 . S
C629 H635 0.959 . S
C629 H636 0.961 . S
C629 H637 0.960 . S
C630 C628 1.381 . S
C630 C631 1.394 . S
C630 H638 0.930 . S
C631 C630 1.394 . S
C631 C632 1.383 . S
C631 H639 0.929 . S
C632 C631 1.383 . S
C632 C633 1.377 . S
C633 H617 0.930 . S
C633 C632 1.377 . S
C633 C634 1.379 . S
C634 H618 0.931 . S
C634 C628 1.383 . S
C634 C633 1.379 . S
H635 C629 0.959 . S
H636 C629 0.961 . S
H637 C629 0.960 . S
H638 C630 0.930 . S
H639 C631 0.929 . S
H640 C648 0.929 . S
H641 C650 0.930 . S
H642 C652 0.930 . S
H643 C655 0.929 . S
H644 C658 0.930 . S
H645 C660 0.960 . S
H646 C660 0.960 . S
H647 C660 0.960 . S
C648 H640 0.929 . S
C648 C649 1.377 . S
C648 C650 1.384 . S
C649 C648 1.377 . S
C649 C655 1.390 . S
C650 H641 0.930 . S
C650 C648 1.384 . S
C650 C651 1.372 . S
C651 C650 1.372 . S
C651 C652 1.400 . S
C651 C656 1.490 . S
C652 H642 0.930 . S
C652 C651 1.400 . S
C652 C655 1.386 . S
H653 C669 0.930 . S
H654 C670 0.931 . S
C655 H643 0.929 . S
C655 C649 1.390 . S
C655 C652 1.386 . S
C656 C651 1.490 . S
C656 C658 1.395 . S
C656 C659 1.403 . S
H657 C663 0.930 . S
C658 H644 0.930 . S
C658 C656 1.395 . S
C658 C661 1.403 . S
C659 C656 1.403 . S
C659 C660 1.524 . S
C659 C663 1.400 . S
C660 H645 0.960 . S
C660 H646 0.960 . S
C660 H647 0.960 . S
C660 C659 1.524 . S
C661 C658 1.403 . S
C661 C662 1.392 . S
C661 C665 1.495 . S
C662 C661 1.392 . S
C662 C663 1.385 . S
C662 C664 1.478 . S
C663 H657 0.930 . S
C663 C659 1.400 . S
C663 C662 1.385 . S
C664 C662 1.478 . S
C664 C666 1.381 . S
C664 C670 1.383 . S
C665 C661 1.495 . S
C665 H671 0.959 . S
C665 H672 0.961 . S
C665 H673 0.960 . S
C666 C664 1.381 . S
C666 C667 1.394 . S
C666 H674 0.930 . S
C667 C666 1.394 . S
C667 C668 1.383 . S
C667 H675 0.929 . S
C668 C667 1.383 . S
C668 C669 1.377 . S
C669 H653 0.930 . S
C669 C668 1.377 . S
C669 C670 1.379 . S
C670 H654 0.931 . S
C670 C664 1.383 . S
C670 C669 1.379 . S
H671 C665 0.959 . S
H672 C665 0.961 . S
H673 C665 0.960 . S
H674 C666 0.930 . S
H675 C667 0.929 . S
H676 C684 0.929 . S
H677 C686 0.930 . S
H678 C688 0.930 . S
H679 C691 0.929 . S
H680 C694 0.930 . S
H681 C696 0.960 . S
H682 C696 0.960 . S
H683 C696 0.960 . S
C684 H676 0.929 . S
C684 C685 1.377 . S
C684 C686 1.384 . S
C685 C684 1.377 . S
C685 C691 1.390 . S
C686 H677 0.930 . S
C686 C684 1.384 . S
C686 C687 1.372 . S
C687 C686 1.372 . S
C687 C688 1.400 . S
C687 C692 1.490 . S
C688 H678 0.930 . S
C688 C687 1.400 . S
C688 C691 1.386 . S
H689 C705 0.930 . S
H690 C706 0.931 . S
C691 H679 0.929 . S
C691 C685 1.390 . S
C691 C688 1.386 . S
C692 C687 1.490 . S
C692 C694 1.395 . S
C692 C695 1.403 . S
H693 C699 0.930 . S
C694 H680 0.930 . S
C694 C692 1.395 . S
C694 C697 1.403 . S
C695 C692 1.403 . S
C695 C696 1.524 . S
C695 C699 1.400 . S
C696 H681 0.960 . S
C696 H682 0.960 . S
C696 H683 0.960 . S
C696 C695 1.524 . S
C697 C694 1.403 . S
C697 C698 1.392 . S
C697 C701 1.495 . S
C698 C697 1.392 . S
C698 C699 1.385 . S
C698 C700 1.478 . S
C699 H693 0.930 . S
C699 C695 1.400 . S
C699 C698 1.385 . S
C700 C698 1.478 . S
C700 C702 1.381 . S
C700 C706 1.383 . S
C701 C697 1.495 . S
C701 H707 0.959 . S
C701 H708 0.961 . S
C701 H709 0.960 . S
C702 C700 1.381 . S
C702 C703 1.394 . S
C702 H710 0.930 . S
C703 C702 1.394 . S
C703 C704 1.383 . S
C703 H711 0.929 . S
C704 C703 1.383 . S
C704 C705 1.377 . S
C705 H689 0.930 . S
C705 C704 1.377 . S
C705 C706 1.379 . S
C706 H690 0.931 . S
C706 C700 1.383 . S
C706 C705 1.379 . S
H707 C701 0.959 . S
H708 C701 0.961 . S
H709 C701 0.960 . S
H710 C702 0.930 . S
H711 C703 0.929 . S
H712 C720 0.929 . S
H713 C722 0.930 . S
H714 C724 0.930 . S
H715 C727 0.929 . S
H716 C730 0.930 . S
H717 C732 0.960 . S
H718 C732 0.960 . S
H719 C732 0.960 . S
C720 H712 0.929 . S
C720 C721 1.377 . S
C720 C722 1.384 . S
C721 C720 1.377 . S
C721 C727 1.390 . S
C722 H713 0.930 . S
C722 C720 1.384 . S
C722 C723 1.372 . S
C723 C722 1.372 . S
C723 C724 1.400 . S
C723 C728 1.490 . S
C724 H714 0.930 . S
C724 C723 1.400 . S
C724 C727 1.386 . S
H725 C741 0.930 . S
H726 C742 0.931 . S
C727 H715 0.929 . S
C727 C721 1.390 . S
C727 C724 1.386 . S
C728 C723 1.490 . S
C728 C730 1.395 . S
C728 C731 1.403 . S
H729 C735 0.930 . S
C730 H716 0.930 . S
C730 C728 1.395 . S
C730 C733 1.403 . S
C731 C728 1.403 . S
C731 C732 1.524 . S
C731 C735 1.400 . S
C732 H717 0.960 . S
C732 H718 0.960 . S
C732 H719 0.960 . S
C732 C731 1.524 . S
C733 C730 1.403 . S
C733 C734 1.392 . S
C733 C737 1.495 . S
C734 C733 1.392 . S
C734 C735 1.385 . S
C734 C736 1.478 . S
C735 H729 0.930 . S
C735 C731 1.400 . S
C735 C734 1.385 . S
C736 C734 1.478 . S
C736 C738 1.381 . S
C736 C742 1.383 . S
C737 C733 1.495 . S
C737 H743 0.959 . S
C737 H744 0.961 . S
C737 H745 0.960 . S
C738 C736 1.381 . S
C738 C739 1.394 . S
C738 H746 0.930 . S
C739 C738 1.394 . S
C739 C740 1.383 . S
C739 H747 0.929 . S
C740 C739 1.383 . S
C740 C741 1.377 . S
C741 H725 0.930 . S
C741 C740 1.377 . S
C741 C742 1.379 . S
C742 H726 0.931 . S
C742 C736 1.383 . S
C742 C741 1.379 . S
H743 C737 0.959 . S
H744 C737 0.961 . S
H745 C737 0.960 . S
H746 C738 0.930 . S
H747 C739 0.929 . S
H748 C756 0.929 . S
H749 C758 0.930 . S
H750 C760 0.930 . S
H751 C763 0.929 . S
H752 C766 0.930 . S
H753 C768 0.960 . S
H754 C768 0.960 . S
H755 C768 0.960 . S
C756 H748 0.929 . S
C756 C757 1.377 . S
C756 C758 1.384 . S
C757 C756 1.377 . S
C757 C763 1.390 . S
C758 H749 0.930 . S
C758 C756 1.384 . S
C758 C759 1.372 . S
C759 C758 1.372 . S
C759 C760 1.400 . S
C759 C764 1.490 . S
C760 H750 0.930 . S
C760 C759 1.400 . S
C760 C763 1.386 . S
H761 C777 0.930 . S
H762 C778 0.931 . S
C763 H751 0.929 . S
C763 C757 1.390 . S
C763 C760 1.386 . S
C764 C759 1.490 . S
C764 C766 1.395 . S
C764 C767 1.403 . S
H765 C771 0.930 . S
C766 H752 0.930 . S
C766 C764 1.395 . S
C766 C769 1.403 . S
C767 C764 1.403 . S
C767 C768 1.524 . S
C767 C771 1.400 . S
C768 H753 0.960 . S
C768 H754 0.960 . S
C768 H755 0.960 . S
C768 C767 1.524 . S
C769 C766 1.403 . S
C769 C770 1.392 . S
C769 C773 1.495 . S
C770 C769 1.392 . S
C770 C771 1.385 . S
C770 C772 1.478 . S
C771 H765 0.930 . S
C771 C767 1.400 . S
C771 C770 1.385 . S
C772 C770 1.478 . S
C772 C774 1.381 . S
C772 C778 1.383 . S
C773 C769 1.495 . S
C773 H779 0.959 . S
C773 H780 0.961 . S
C773 H781 0.960 . S
C774 C772 1.381 . S
C774 C775 1.394 . S
C774 H782 0.930 . S
C775 C774 1.394 . S
C775 C776 1.383 . S
C775 H783 0.929 . S
C776 C775 1.383 . S
C776 C777 1.377 . S
C777 H761 0.930 . S
C777 C776 1.377 . S
C777 C778 1.379 . S
C778 H762 0.931 . S
C778 C772 1.383 . S
C778 C777 1.379 . S
H779 C773 0.959 . S
H780 C773 0.961 . S
H781 C773 0.960 . S
H782 C774 0.930 . S
H783 C775 0.929 . S
H784 C792 0.929 . S
H785 C794 0.930 . S
H786 C796 0.930 . S
H787 C799 0.929 . S
H788 C802 0.930 . S
H789 C804 0.960 . S
H790 C804 0.960 . S
H791 C804 0.960 . S
C792 H784 0.929 . S
C792 C793 1.377 . S
C792 C794 1.384 . S
C793 C792 1.377 . S
C793 C799 1.390 . S
C794 H785 0.930 . S
C794 C792 1.384 . S
C794 C795 1.372 . S
C795 C794 1.372 . S
C795 C796 1.400 . S
C795 C800 1.490 . S
C796 H786 0.930 . S
C796 C795 1.400 . S
C796 C799 1.386 . S
H797 C813 0.930 . S
H798 C814 0.931 . S
C799 H787 0.929 . S
C799 C793 1.390 . S
C799 C796 1.386 . S
C800 C795 1.490 . S
C800 C802 1.395 . S
C800 C803 1.403 . S
H801 C807 0.930 . S
C802 H788 0.930 . S
C802 C800 1.395 . S
C802 C805 1.403 . S
C803 C800 1.403 . S
C803 C804 1.524 . S
C803 C807 1.400 . S
C804 H789 0.960 . S
C804 H790 0.960 . S
C804 H791 0.960 . S
C804 C803 1.524 . S
C805 C802 1.403 . S
C805 C806 1.392 . S
C805 C809 1.495 . S
C806 C805 1.392 . S
C806 C807 1.385 . S
C806 C808 1.478 . S
C807 H801 0.930 . S
C807 C803 1.400 . S
C807 C806 1.385 . S
C808 C806 1.478 . S
C808 C810 1.381 . S
C808 C814 1.383 . S
C809 C805 1.495 . S
C809 H815 0.959 . S
C809 H816 0.961 . S
C809 H817 0.960 . S
C810 C808 1.381 . S
C810 C811 1.394 . S
C810 H818 0.930 . S
C811 C810 1.394 . S
C811 C812 1.383 . S
C811 H819 0.929 . S
C812 C811 1.383 . S
C812 C813 1.377 . S
C813 H797 0.930 . S
C813 C812 1.377 . S
C813 C814 1.379 . S
C814 H798 0.931 . S
C814 C808 1.383 . S
C814 C813 1.379 . S
H815 C809 0.959 . S
H816 C809 0.961 . S
H817 C809 0.960 . S
H818 C810 0.930 . S
H819 C811 0.929 . S
H820 C828 0.929 . S
H821 C830 0.930 . S
H822 C832 0.930 . S
H823 C835 0.929 . S
H824 C838 0.930 . S
H825 C840 0.960 . S
H826 C840 0.960 . S
H827 C840 0.960 . S
C828 H820 0.929 . S
C828 C829 1.377 . S
C828 C830 1.384 . S
C829 C828 1.377 . S
C829 C835 1.390 . S
C830 H821 0.930 . S
C830 C828 1.384 . S
C830 C831 1.372 . S
C831 C830 1.372 . S
C831 C832 1.400 . S
C831 C836 1.490 . S
C832 H822 0.930 . S
C832 C831 1.400 . S
C832 C835 1.386 . S
H833 C849 0.930 . S
H834 C850 0.931 . S
C835 H823 0.929 . S
C835 C829 1.390 . S
C835 C832 1.386 . S
C836 C831 1.490 . S
C836 C838 1.395 . S
C836 C839 1.403 . S
H837 C843 0.930 . S
C838 H824 0.930 . S
C838 C836 1.395 . S
C838 C841 1.403 . S
C839 C836 1.403 . S
C839 C840 1.524 . S
C839 C843 1.400 . S
C840 H825 0.960 . S
C840 H826 0.960 . S
C840 H827 0.960 . S
C840 C839 1.524 . S
C841 C838 1.403 . S
C841 C842 1.392 . S
C841 C845 1.495 . S
C842 C841 1.392 . S
C842 C843 1.385 . S
C842 C844 1.478 . S
C843 H837 0.930 . S
C843 C839 1.400 . S
C843 C842 1.385 . S
C844 C842 1.478 . S
C844 C846 1.381 . S
C844 C850 1.383 . S
C845 C841 1.495 . S
C845 H851 0.959 . S
C845 H852 0.961 . S
C845 H853 0.960 . S
C846 C844 1.381 . S
C846 C847 1.394 . S
C846 H854 0.930 . S
C847 C846 1.394 . S
C847 C848 1.383 . S
C847 H855 0.929 . S
C848 C847 1.383 . S
C848 C849 1.377 . S
C849 H833 0.930 . S
C849 C848 1.377 . S
C849 C850 1.379 . S
C850 H834 0.931 . S
C850 C844 1.383 . S
C850 C849 1.379 . S
H851 C845 0.959 . S
H852 C845 0.961 . S
H853 C845 0.960 . S
H854 C846 0.930 . S
H855 C847 0.929 . S
H856 C864 0.929 . S
H857 C866 0.930 . S
H858 C868 0.930 . S
H859 C871 0.929 . S
H860 C874 0.930 . S
H861 C876 0.960 . S
H862 C876 0.960 . S
H863 C876 0.960 . S
C864 H856 0.929 . S
C864 C865 1.377 . S
C864 C866 1.384 . S
C865 C864 1.377 . S
C865 C871 1.390 . S
C866 H857 0.930 . S
C866 C864 1.384 . S
C866 C867 1.372 . S
C867 C866 1.372 . S
C867 C868 1.400 . S
C867 C872 1.490 . S
C868 H858 0.930 . S
C868 C867 1.400 . S
C868 C871 1.386 . S
H869 C885 0.930 . S
H870 C886 0.931 . S
C871 H859 0.929 . S
C871 C865 1.390 . S
C871 C868 1.386 . S
C872 C867 1.490 . S
C872 C874 1.395 . S
C872 C875 1.403 . S
H873 C879 0.930 . S
C874 H860 0.930 . S
C874 C872 1.395 . S
C874 C877 1.403 . S
C875 C872 1.403 . S
C875 C876 1.524 . S
C875 C879 1.400 . S
C876 H861 0.960 . S
C876 H862 0.960 . S
C876 H863 0.960 . S
C876 C875 1.524 . S
C877 C874 1.403 . S
C877 C878 1.392 . S
C877 C881 1.495 . S
C878 C877 1.392 . S
C878 C879 1.385 . S
C878 C880 1.478 . S
C879 H873 0.930 . S
C879 C875 1.400 . S
C879 C878 1.385 . S
C880 C878 1.478 . S
C880 C882 1.381 . S
C880 C886 1.383 . S
C881 C877 1.495 . S
C881 H887 0.959 . S
C881 H888 0.961 . S
C881 H889 0.960 . S
C882 C880 1.381 . S
C882 C883 1.394 . S
C882 H890 0.930 . S
C883 C882 1.394 . S
C883 C884 1.383 . S
C883 H891 0.929 . S
C884 C883 1.383 . S
C884 C885 1.377 . S
C885 H869 0.930 . S
C885 C884 1.377 . S
C885 C886 1.379 . S
C886 H870 0.931 . S
C886 C880 1.383 . S
C886 C885 1.379 . S
H887 C881 0.959 . S
H888 C881 0.961 . S
H889 C881 0.960 . S
H890 C882 0.930 . S
H891 C883 0.929 . S
H892 C900 0.929 . S
H893 C902 0.930 . S
H894 C904 0.930 . S
H895 C907 0.929 . S
H896 C910 0.930 . S
H897 C912 0.960 . S
H898 C912 0.960 . S
H899 C912 0.960 . S
C900 H892 0.929 . S
C900 C901 1.377 . S
C900 C902 1.384 . S
C901 C900 1.377 . S
C901 C907 1.390 . S
C902 H893 0.930 . S
C902 C900 1.384 . S
C902 C903 1.372 . S
C903 C902 1.372 . S
C903 C904 1.400 . S
C903 C908 1.490 . S
C904 H894 0.930 . S
C904 C903 1.400 . S
C904 C907 1.386 . S
H905 C921 0.930 . S
H906 C922 0.931 . S
C907 H895 0.929 . S
C907 C901 1.390 . S
C907 C904 1.386 . S
C908 C903 1.490 . S
C908 C910 1.395 . S
C908 C911 1.403 . S
H909 C915 0.930 . S
C910 H896 0.930 . S
C910 C908 1.395 . S
C910 C913 1.403 . S
C911 C908 1.403 . S
C911 C912 1.524 . S
C911 C915 1.400 . S
C912 H897 0.960 . S
C912 H898 0.960 . S
C912 H899 0.960 . S
C912 C911 1.524 . S
C913 C910 1.403 . S
C913 C914 1.392 . S
C913 C917 1.495 . S
C914 C913 1.392 . S
C914 C915 1.385 . S
C914 C916 1.478 . S
C915 H909 0.930 . S
C915 C911 1.400 . S
C915 C914 1.385 . S
C916 C914 1.478 . S
C916 C918 1.381 . S
C916 C922 1.383 . S
C917 C913 1.495 . S
C917 H923 0.959 . S
C917 H924 0.961 . S
C917 H925 0.960 . S
C918 C916 1.381 . S
C918 C919 1.394 . S
C918 H926 0.930 . S
C919 C918 1.394 . S
C919 C920 1.383 . S
C919 H927 0.929 . S
C920 C919 1.383 . S
C920 C921 1.377 . S
C921 H905 0.930 . S
C921 C920 1.377 . S
C921 C922 1.379 . S
C922 H906 0.931 . S
C922 C916 1.383 . S
C922 C921 1.379 . S
H923 C917 0.959 . S
H924 C917 0.961 . S
H925 C917 0.960 . S
H926 C918 0.930 . S
H927 C919 0.929 . S
H928 C936 0.929 . S
H929 C938 0.930 . S
H930 C940 0.930 . S
H931 C943 0.929 . S
H932 C946 0.930 . S
H933 C948 0.960 . S
H934 C948 0.960 . S
H935 C948 0.960 . S
C936 H928 0.929 . S
C936 C937 1.377 . S
C936 C938 1.384 . S
C937 C936 1.377 . S
C937 C943 1.390 . S
C938 H929 0.930 . S
C938 C936 1.384 . S
C938 C939 1.372 . S
C939 C938 1.372 . S
C939 C940 1.400 . S
C939 C944 1.490 . S
C940 H930 0.930 . S
C940 C939 1.400 . S
C940 C943 1.386 . S
H941 C957 0.930 . S
H942 C958 0.931 . S
C943 H931 0.929 . S
C943 C937 1.390 . S
C943 C940 1.386 . S
C944 C939 1.490 . S
C944 C946 1.395 . S
C944 C947 1.403 . S
H945 C951 0.930 . S
C946 H932 0.930 . S
C946 C944 1.395 . S
C946 C949 1.403 . S
C947 C944 1.403 . S
C947 C948 1.524 . S
C947 C951 1.400 . S
C948 H933 0.960 . S
C948 H934 0.960 . S
C948 H935 0.960 . S
C948 C947 1.524 . S
C949 C946 1.403 . S
C949 C950 1.392 . S
C949 C953 1.495 . S
C950 C949 1.392 . S
C950 C951 1.385 . S
C950 C952 1.478 . S
C951 H945 0.930 . S
C951 C947 1.400 . S
C951 C950 1.385 . S
C952 C950 1.478 . S
C952 C954 1.381 . S
C952 C958 1.383 . S
C953 C949 1.495 . S
C953 H959 0.959 . S
C953 H960 0.961 . S
C953 H961 0.960 . S
C954 C952 1.381 . S
C954 C955 1.394 . S
C954 H962 0.930 . S
C955 C954 1.394 . S
C955 C956 1.383 . S
C955 H963 0.929 . S
C956 C955 1.383 . S
C956 C957 1.377 . S
C957 H941 0.930 . S
C957 C956 1.377 . S
C957 C958 1.379 . S
C958 H942 0.931 . S
C958 C952 1.383 . S
C958 C957 1.379 . S
H959 C953 0.959 . S
H960 C953 0.961 . S
H961 C953 0.960 . S
H962 C954 0.930 . S
H963 C955 0.929 . S
H964 C972 0.929 . S
H965 C974 0.930 . S
H966 C976 0.930 . S
H967 C979 0.929 . S
H968 C982 0.930 . S
H969 C984 0.960 . S
H970 C984 0.960 . S
H971 C984 0.960 . S
C972 H964 0.929 . S
C972 C973 1.377 . S
C972 C974 1.384 . S
C973 C972 1.377 . S
C973 C979 1.390 . S
C974 H965 0.930 . S
C974 C972 1.384 . S
C974 C975 1.372 . S
C975 C974 1.372 . S
C975 C976 1.400 . S
C975 C980 1.490 . S
C976 H966 0.930 . S
C976 C975 1.400 . S
C976 C979 1.386 . S
H977 C993 0.930 . S
H978 C994 0.931 . S
C979 H967 0.929 . S
C979 C973 1.390 . S
C979 C976 1.386 . S
C980 C975 1.490 . S
C980 C982 1.395 . S
C980 C983 1.403 . S
H981 C987 0.930 . S
C982 H968 0.930 . S
C982 C980 1.395 . S
C982 C985 1.403 . S
C983 C980 1.403 . S
C983 C984 1.524 . S
C983 C987 1.400 . S
C984 H969 0.960 . S
C984 H970 0.960 . S
C984 H971 0.960 . S
C984 C983 1.524 . S
C985 C982 1.403 . S
C985 C986 1.392 . S
C985 C989 1.495 . S
C986 C985 1.392 . S
C986 C987 1.385 . S
C986 C988 1.478 . S
C987 H981 0.930 . S
C987 C983 1.400 . S
C987 C986 1.385 . S
C988 C986 1.478 . S
C988 C990 1.381 . S
C988 C994 1.383 . S
C989 C985 1.495 . S
C989 H995 0.959 . S
C989 H996 0.961 . S
C989 H997 0.960 . S
C990 C988 1.381 . S
C990 C991 1.394 . S
C990 H998 0.930 . S
C991 C990 1.394 . S
C991 C992 1.383 . S
C991 H999 0.929 . S
C992 C991 1.383 . S
C992 C993 1.377 . S
C993 H977 0.930 . S
C993 C992 1.377 . S
C993 C994 1.379 . S
C994 H978 0.931 . S
C994 C988 1.383 . S
C994 C993 1.379 . S
H995 C989 0.959 . S
H996 C989 0.961 . S
H997 C989 0.960 . S
H998 C990 0.930 . S
H999 C991 0.929 . S
H1000 C1008 0.929 . S
H1001 C1010 0.930 . S
H1002 C1012 0.930 . S
H1003 C1015 0.929 . S
H1004 C1018 0.930 . S
H1005 C1020 0.960 . S
H1006 C1020 0.960 . S
H1007 C1020 0.960 . S
C1008 H1000 0.929 . S
C1008 C1009 1.377 . S
C1008 C1010 1.384 . S
C1009 C1008 1.377 . S
C1009 C1015 1.390 . S
C1010 H1001 0.930 . S
C1010 C1008 1.384 . S
C1010 C1011 1.372 . S
C1011 C1010 1.372 . S
C1011 C1012 1.400 . S
C1011 C1016 1.490 . S
C1012 H1002 0.930 . S
C1012 C1011 1.400 . S
C1012 C1015 1.386 . S
H1013 C1029 0.930 . S
H1014 C1030 0.931 . S
C1015 H1003 0.929 . S
C1015 C1009 1.390 . S
C1015 C1012 1.386 . S
C1016 C1011 1.490 . S
C1016 C1018 1.395 . S
C1016 C1019 1.403 . S
H1017 C1023 0.930 . S
C1018 H1004 0.930 . S
C1018 C1016 1.395 . S
C1018 C1021 1.403 . S
C1019 C1016 1.403 . S
C1019 C1020 1.524 . S
C1019 C1023 1.400 . S
C1020 H1005 0.960 . S
C1020 H1006 0.960 . S
C1020 H1007 0.960 . S
C1020 C1019 1.524 . S
C1021 C1018 1.403 . S
C1021 C1022 1.392 . S
C1021 C1025 1.495 . S
C1022 C1021 1.392 . S
C1022 C1023 1.385 . S
C1022 C1024 1.478 . S
C1023 H1017 0.930 . S
C1023 C1019 1.400 . S
C1023 C1022 1.385 . S
C1024 C1022 1.478 . S
C1024 C1026 1.381 . S
C1024 C1030 1.383 . S
C1025 C1021 1.495 . S
C1025 H1031 0.959 . S
C1025 H1032 0.961 . S
C1025 H1033 0.960 . S
C1026 C1024 1.381 . S
C1026 C1027 1.394 . S
C1026 H1034 0.930 . S
C1027 C1026 1.394 . S
C1027 C1028 1.383 . S
C1027 H1035 0.929 . S
C1028 C1027 1.383 . S
C1028 C1029 1.377 . S
C1029 H1013 0.930 . S
C1029 C1028 1.377 . S
C1029 C1030 1.379 . S
C1030 H1014 0.931 . S
C1030 C1024 1.383 . S
C1030 C1029 1.379 . S
H1031 C1025 0.959 . S
H1032 C1025 0.961 . S
H1033 C1025 0.960 . S
H1034 C1026 0.930 . S
H1035 C1027 0.929 . S
H1036 C1044 0.929 . S
H1037 C1046 0.930 . S
H1038 C1048 0.930 . S
H1039 C1051 0.929 . S
H1040 C1054 0.930 . S
H1041 C1056 0.960 . S
H1042 C1056 0.960 . S
H1043 C1056 0.960 . S
C1044 H1036 0.929 . S
C1044 C1045 1.377 . S
C1044 C1046 1.384 . S
C1045 C1044 1.377 . S
C1045 C1051 1.390 . S
C1046 H1037 0.930 . S
C1046 C1044 1.384 . S
C1046 C1047 1.372 . S
C1047 C1046 1.372 . S
C1047 C1048 1.400 . S
C1047 C1052 1.490 . S
C1048 H1038 0.930 . S
C1048 C1047 1.400 . S
C1048 C1051 1.386 . S
H1049 C1065 0.930 . S
H1050 C1066 0.931 . S
C1051 H1039 0.929 . S
C1051 C1045 1.390 . S
C1051 C1048 1.386 . S
C1052 C1047 1.490 . S
C1052 C1054 1.395 . S
C1052 C1055 1.403 . S
H1053 C1059 0.930 . S
C1054 H1040 0.930 . S
C1054 C1052 1.395 . S
C1054 C1057 1.403 . S
C1055 C1052 1.403 . S
C1055 C1056 1.524 . S
C1055 C1059 1.400 . S
C1056 H1041 0.960 . S
C1056 H1042 0.960 . S
C1056 H1043 0.960 . S
C1056 C1055 1.524 . S
C1057 C1054 1.403 . S
C1057 C1058 1.392 . S
C1057 C1061 1.495 . S
C1058 C1057 1.392 . S
C1058 C1059 1.385 . S
C1058 C1060 1.478 . S
C1059 H1053 0.930 . S
C1059 C1055 1.400 . S
C1059 C1058 1.385 . S
C1060 C1058 1.478 . S
C1060 C1062 1.381 . S
C1060 C1066 1.383 . S
C1061 C1057 1.495 . S
C1061 H1067 0.959 . S
C1061 H1068 0.961 . S
C1061 H1069 0.960 . S
C1062 C1060 1.381 . S
C1062 C1063 1.394 . S
C1062 H1070 0.930 . S
C1063 C1062 1.394 . S
C1063 C1064 1.383 . S
C1063 H1071 0.929 . S
C1064 C1063 1.383 . S
C1064 C1065 1.377 . S
C1065 H1049 0.930 . S
C1065 C1064 1.377 . S
C1065 C1066 1.379 . S
C1066 H1050 0.931 . S
C1066 C1060 1.383 . S
C1066 C1065 1.379 . S
H1067 C1061 0.959 . S
H1068 C1061 0.961 . S
H1069 C1061 0.960 . S
H1070 C1062 0.930 . S
H1071 C1063 0.929 . S
H1072 C1080 0.929 . S
H1073 C1082 0.930 . S
H1074 C1084 0.930 . S
H1075 C1087 0.929 . S
H1076 C1090 0.930 . S
H1077 C1092 0.960 . S
H1078 C1092 0.960 . S
H1079 C1092 0.960 . S
C1080 H1072 0.929 . S
C1080 C1081 1.377 . S
C1080 C1082 1.384 . S
C1081 C1080 1.377 . S
C1081 C1087 1.390 . S
C1082 H1073 0.930 . S
C1082 C1080 1.384 . S
C1082 C1083 1.372 . S
C1083 C1082 1.372 . S
C1083 C1084 1.400 . S
C1083 C1088 1.490 . S
C1084 H1074 0.930 . S
C1084 C1083 1.400 . S
C1084 C1087 1.386 . S
H1085 C1101 0.930 . S
H1086 C1102 0.931 . S
C1087 H1075 0.929 . S
C1087 C1081 1.390 . S
C1087 C1084 1.386 . S
C1088 C1083 1.490 . S
C1088 C1090 1.395 . S
C1088 C1091 1.403 . S
H1089 C1095 0.930 . S
C1090 H1076 0.930 . S
C1090 C1088 1.395 . S
C1090 C1093 1.403 . S
C1091 C1088 1.403 . S
C1091 C1092 1.524 . S
C1091 C1095 1.400 . S
C1092 H1077 0.960 . S
C1092 H1078 0.960 . S
C1092 H1079 0.960 . S
C1092 C1091 1.524 . S
C1093 C1090 1.403 . S
C1093 C1094 1.392 . S
C1093 C1097 1.495 . S
C1094 C1093 1.392 . S
C1094 C1095 1.385 . S
C1094 C1096 1.478 . S
C1095 H1089 0.930 . S
C1095 C1091 1.400 . S
C1095 C1094 1.385 . S
C1096 C1094 1.478 . S
C1096 C1098 1.381 . S
C1096 C1102 1.383 . S
C1097 C1093 1.495 . S
C1097 H1103 0.959 . S
C1097 H1104 0.961 . S
C1097 H1105 0.960 . S
C1098 C1096 1.381 . S
C1098 C1099 1.394 . S
C1098 H1106 0.930 . S
C1099 C1098 1.394 . S
C1099 C1100 1.383 . S
C1099 H1107 0.929 . S
C1100 C1099 1.383 . S
C1100 C1101 1.377 . S
C1101 H1085 0.930 . S
C1101 C1100 1.377 . S
C1101 C1102 1.379 . S
C1102 H1086 0.931 . S
C1102 C1096 1.383 . S
C1102 C1101 1.379 . S
H1103 C1097 0.959 . S
H1104 C1097 0.961 . S
H1105 C1097 0.960 . S
H1106 C1098 0.930 . S
H1107 C1099 0.929 . S
H1108 C1116 0.929 . S
H1109 C1118 0.930 . S
H1110 C1120 0.930 . S
H1111 C1123 0.929 . S
H1112 C1126 0.930 . S
H1113 C1128 0.960 . S
H1114 C1128 0.960 . S
H1115 C1128 0.960 . S
C1116 H1108 0.929 . S
C1116 C1117 1.377 . S
C1116 C1118 1.384 . S
C1117 C1116 1.377 . S
C1117 C1123 1.390 . S
C1118 H1109 0.930 . S
C1118 C1116 1.384 . S
C1118 C1119 1.372 . S
C1119 C1118 1.372 . S
C1119 C1120 1.400 . S
C1119 C1124 1.490 . S
C1120 H1110 0.930 . S
C1120 C1119 1.400 . S
C1120 C1123 1.386 . S
H1121 C1137 0.930 . S
H1122 C1138 0.931 . S
C1123 H1111 0.929 . S
C1123 C1117 1.390 . S
C1123 C1120 1.386 . S
C1124 C1119 1.490 . S
C1124 C1126 1.395 . S
C1124 C1127 1.403 . S
H1125 C1131 0.930 . S
C1126 H1112 0.930 . S
C1126 C1124 1.395 . S
C1126 C1129 1.403 . S
C1127 C1124 1.403 . S
C1127 C1128 1.524 . S
C1127 C1131 1.400 . S
C1128 H1113 0.960 . S
C1128 H1114 0.960 . S
C1128 H1115 0.960 . S
C1128 C1127 1.524 . S
C1129 C1126 1.403 . S
C1129 C1130 1.392 . S
C1129 C1133 1.495 . S
C1130 C1129 1.392 . S
C1130 C1131 1.385 . S
C1130 C1132 1.478 . S
C1131 H1125 0.930 . S
C1131 C1127 1.400 . S
C1131 C1130 1.385 . S
C1132 C1130 1.478 . S
C1132 C1134 1.381 . S
C1132 C1138 1.383 . S
C1133 C1129 1.495 . S
C1133 H1139 0.959 . S
C1133 H1140 0.961 . S
C1133 H1141 0.960 . S
C1134 C1132 1.381 . S
C1134 C1135 1.394 . S
C1134 H1142 0.930 . S
C1135 C1134 1.394 . S
C1135 C1136 1.383 . S
C1135 H1143 0.929 . S
C1136 C1135 1.383 . S
C1136 C1137 1.377 . S
C1137 H1121 0.930 . S
C1137 C1136 1.377 . S
C1137 C1138 1.379 . S
C1138 H1122 0.931 . S
C1138 C1132 1.383 . S
C1138 C1137 1.379 . S
H1139 C1133 0.959 . S
H1140 C1133 0.961 . S
H1141 C1133 0.960 . S
H1142 C1134 0.930 . S
H1143 C1135 0.929 . S
H1144 C1152 0.929 . S
H1145 C1154 0.930 . S
H1146 C1156 0.930 . S
H1147 C1159 0.929 . S
H1148 C1162 0.930 . S
H1149 C1164 0.960 . S
H1150 C1164 0.960 . S
H1151 C1164 0.960 . S
C1152 H1144 0.929 . S
C1152 C1153 1.377 . S
C1152 C1154 1.384 . S
C1153 C1152 1.377 . S
C1153 C1159 1.390 . S
C1154 H1145 0.930 . S
C1154 C1152 1.384 . S
C1154 C1155 1.372 . S
C1155 C1154 1.372 . S
C1155 C1156 1.400 . S
C1155 C1160 1.490 . S
C1156 H1146 0.930 . S
C1156 C1155 1.400 . S
C1156 C1159 1.386 . S
H1157 C1173 0.930 . S
H1158 C1174 0.931 . S
C1159 H1147 0.929 . S
C1159 C1153 1.390 . S
C1159 C1156 1.386 . S
C1160 C1155 1.490 . S
C1160 C1162 1.395 . S
C1160 C1163 1.403 . S
H1161 C1167 0.930 . S
C1162 H1148 0.930 . S
C1162 C1160 1.395 . S
C1162 C1165 1.403 . S
C1163 C1160 1.403 . S
C1163 C1164 1.524 . S
C1163 C1167 1.400 . S
C1164 H1149 0.960 . S
C1164 H1150 0.960 . S
C1164 H1151 0.960 . S
C1164 C1163 1.524 . S
C1165 C1162 1.403 . S
C1165 C1166 1.392 . S
C1165 C1169 1.495 . S
C1166 C1165 1.392 . S
C1166 C1167 1.385 . S
C1166 C1168 1.478 . S
C1167 H1161 0.930 . S
C1167 C1163 1.400 . S
C1167 C1166 1.385 . S
C1168 C1166 1.478 . S
C1168 C1170 1.381 . S
C1168 C1174 1.383 . S
C1169 C1165 1.495 . S
C1169 H1175 0.959 . S
C1169 H1176 0.961 . S
C1169 H1177 0.960 . S
C1170 C1168 1.381 . S
C1170 C1171 1.394 . S
C1170 H1178 0.930 . S
C1171 C1170 1.394 . S
C1171 C1172 1.383 . S
C1171 H1179 0.929 . S
C1172 C1171 1.383 . S
C1172 C1173 1.377 . S
C1173 H1157 0.930 . S
C1173 C1172 1.377 . S
C1173 C1174 1.379 . S
C1174 H1158 0.931 . S
C1174 C1168 1.383 . S
C1174 C1173 1.379 . S
H1175 C1169 0.959 . S
H1176 C1169 0.961 . S
H1177 C1169 0.960 . S
H1178 C1170 0.930 . S
H1179 C1171 0.929 . S
H1180 C1188 0.929 . S
H1181 C1190 0.930 . S
H1182 C1192 0.930 . S
H1183 C1195 0.929 . S
H1184 C1198 0.930 . S
H1185 C1200 0.960 . S
H1186 C1200 0.960 . S
H1187 C1200 0.960 . S
C1188 H1180 0.929 . S
C1188 C1189 1.377 . S
C1188 C1190 1.384 . S
C1189 C1188 1.377 . S
C1189 C1195 1.390 . S
C1190 H1181 0.930 . S
C1190 C1188 1.384 . S
C1190 C1191 1.372 . S
C1191 C1190 1.372 . S
C1191 C1192 1.400 . S
C1191 C1196 1.490 . S
C1192 H1182 0.930 . S
C1192 C1191 1.400 . S
C1192 C1195 1.386 . S
H1193 C1209 0.930 . S
H1194 C1210 0.931 . S
C1195 H1183 0.929 . S
C1195 C1189 1.390 . S
C1195 C1192 1.386 . S
C1196 C1191 1.490 . S
C1196 C1198 1.395 . S
C1196 C1199 1.403 . S
H1197 C1203 0.930 . S
C1198 H1184 0.930 . S
C1198 C1196 1.395 . S
C1198 C1201 1.403 . S
C1199 C1196 1.403 . S
C1199 C1200 1.524 . S
C1199 C1203 1.400 . S
C1200 H1185 0.960 . S
C1200 H1186 0.960 . S
C1200 H1187 0.960 . S
C1200 C1199 1.524 . S
C1201 C1198 1.403 . S
C1201 C1202 1.392 . S
C1201 C1205 1.495 . S
C1202 C1201 1.392 . S
C1202 C1203 1.385 . S
C1202 C1204 1.478 . S
C1203 H1197 0.930 . S
C1203 C1199 1.400 . S
C1203 C1202 1.385 . S
C1204 C1202 1.478 . S
C1204 C1206 1.381 . S
C1204 C1210 1.383 . S
C1205 C1201 1.495 . S
C1205 H1211 0.959 . S
C1205 H1212 0.961 . S
C1205 H1213 0.960 . S
C1206 C1204 1.381 . S
C1206 C1207 1.394 . S
C1206 H1214 0.930 . S
C1207 C1206 1.394 . S
C1207 C1208 1.383 . S
C1207 H1215 0.929 . S
C1208 C1207 1.383 . S
C1208 C1209 1.377 . S
C1209 H1193 0.930 . S
C1209 C1208 1.377 . S
C1209 C1210 1.379 . S
C1210 H1194 0.931 . S
C1210 C1204 1.383 . S
C1210 C1209 1.379 . S
H1211 C1205 0.959 . S
H1212 C1205 0.961 . S
H1213 C1205 0.960 . S
H1214 C1206 0.930 . S
H1215 C1207 0.929 . S
H1216 C1224 0.929 . S
H1217 C1226 0.930 . S
H1218 C1228 0.930 . S
H1219 C1231 0.929 . S
H1220 C1234 0.930 . S
H1221 C1236 0.960 . S
H1222 C1236 0.960 . S
H1223 C1236 0.960 . S
C1224 H1216 0.929 . S
C1224 C1225 1.377 . S
C1224 C1226 1.384 . S
C1225 C1224 1.377 . S
C1225 C1231 1.390 . S
C1226 H1217 0.930 . S
C1226 C1224 1.384 . S
C1226 C1227 1.372 . S
C1227 C1226 1.372 . S
C1227 C1228 1.400 . S
C1227 C1232 1.490 . S
C1228 H1218 0.930 . S
C1228 C1227 1.400 . S
C1228 C1231 1.386 . S
H1229 C1245 0.930 . S
H1230 C1246 0.931 . S
C1231 H1219 0.929 . S
C1231 C1225 1.390 . S
C1231 C1228 1.386 . S
C1232 C1227 1.490 . S
C1232 C1234 1.395 . S
C1232 C1235 1.403 . S
H1233 C1239 0.930 . S
C1234 H1220 0.930 . S
C1234 C1232 1.395 . S
C1234 C1237 1.403 1_455 S
C1235 C1232 1.403 . S
C1235 C1236 1.524 . S
C1235 C1239 1.400 1_455 S
C1236 H1221 0.960 . S
C1236 H1222 0.960 . S
C1236 H1223 0.960 . S
C1236 C1235 1.524 . S
C1237 C1234 1.403 1_655 S
C1237 C1238 1.392 . S
C1237 C1241 1.495 . S
C1238 C1237 1.392 . S
C1238 C1239 1.385 . S
C1238 C1240 1.478 . S
C1239 H1233 0.930 . S
C1239 C1235 1.400 1_655 S
C1239 C1238 1.385 . S
C1240 C1238 1.478 . S
C1240 C1242 1.381 . S
C1240 C1246 1.383 . S
C1241 C1237 1.495 . S
C1241 H1247 0.959 . S
C1241 H1248 0.961 . S
C1241 H1249 0.960 . S
C1242 C1240 1.381 . S
C1242 C1243 1.394 . S
C1242 H1250 0.930 . S
C1243 C1242 1.394 . S
C1243 C1244 1.383 . S
C1243 H1251 0.929 . S
C1244 C1243 1.383 . S
C1244 C1245 1.377 . S
C1245 H1229 0.930 . S
C1245 C1244 1.377 . S
C1245 C1246 1.379 . S
C1246 H1230 0.931 . S
C1246 C1240 1.383 . S
C1246 C1245 1.379 . S
H1247 C1241 0.959 . S
H1248 C1241 0.961 . S
H1249 C1241 0.960 . S
H1250 C1242 0.930 . S
H1251 C1243 0.929 . S
H1252 C1260 0.929 . S
H1253 C1262 0.930 . S
H1254 C1264 0.930 . S
H1255 C1267 0.929 . S
H1256 C1270 0.930 . S
H1257 C1272 0.960 . S
H1258 C1272 0.960 . S
H1259 C1272 0.960 . S
C1260 H1252 0.929 . S
C1260 C1261 1.377 . S
C1260 C1262 1.384 . S
C1261 C1260 1.377 . S
C1261 C1267 1.390 . S
C1262 H1253 0.930 . S
C1262 C1260 1.384 . S
C1262 C1263 1.372 . S
C1263 C1262 1.372 . S
C1263 C1264 1.400 . S
C1263 C1268 1.490 . S
C1264 H1254 0.930 . S
C1264 C1263 1.400 . S
C1264 C1267 1.386 . S
H1265 C1281 0.930 . S
H1266 C1282 0.931 . S
C1267 H1255 0.929 . S
C1267 C1261 1.390 . S
C1267 C1264 1.386 . S
C1268 C1263 1.490 . S
C1268 C1270 1.395 . S
C1268 C1271 1.403 . S
H1269 C1275 0.930 . S
C1270 H1256 0.930 . S
C1270 C1268 1.395 . S
C1270 C1273 1.403 . S
C1271 C1268 1.403 . S
C1271 C1272 1.524 . S
C1271 C1275 1.400 . S
C1272 H1257 0.960 . S
C1272 H1258 0.960 . S
C1272 H1259 0.960 . S
C1272 C1271 1.524 . S
C1273 C1270 1.403 . S
C1273 C1274 1.392 . S
C1273 C1277 1.495 . S
C1274 C1273 1.392 . S
C1274 C1275 1.385 . S
C1274 C1276 1.478 . S
C1275 H1269 0.930 . S
C1275 C1271 1.400 . S
C1275 C1274 1.385 . S
C1276 C1274 1.478 . S
C1276 C1278 1.381 . S
C1276 C1282 1.383 . S
C1277 C1273 1.495 . S
C1277 H1283 0.959 . S
C1277 H1284 0.961 . S
C1277 H1285 0.960 . S
C1278 C1276 1.381 . S
C1278 C1279 1.394 . S
C1278 H1286 0.930 . S
C1279 C1278 1.394 . S
C1279 C1280 1.383 . S
C1279 H1287 0.929 . S
C1280 C1279 1.383 . S
C1280 C1281 1.377 . S
C1281 H1265 0.930 . S
C1281 C1280 1.377 . S
C1281 C1282 1.379 . S
C1282 H1266 0.931 . S
C1282 C1276 1.383 . S
C1282 C1281 1.379 . S
H1283 C1277 0.959 . S
H1284 C1277 0.961 . S
H1285 C1277 0.960 . S
H1286 C1278 0.930 . S
H1287 C1279 0.929 . S
H1288 C1296 0.929 . S
H1289 C1298 0.930 . S
H1290 C1300 0.930 . S
H1291 C1303 0.929 . S
H1292 C1306 0.930 . S
H1293 C1308 0.960 . S
H1294 C1308 0.960 . S
H1295 C1308 0.960 . S
C1296 H1288 0.929 . S
C1296 C1297 1.377 . S
C1296 C1298 1.384 . S
C1297 C1296 1.377 . S
C1297 C1303 1.390 . S
C1298 H1289 0.930 . S
C1298 C1296 1.384 . S
C1298 C1299 1.372 . S
C1299 C1298 1.372 . S
C1299 C1300 1.400 . S
C1299 C1304 1.490 . S
C1300 H1290 0.930 . S
C1300 C1299 1.400 . S
C1300 C1303 1.386 . S
H1301 C1317 0.930 . S
H1302 C1318 0.931 . S
C1303 H1291 0.929 . S
C1303 C1297 1.390 . S
C1303 C1300 1.386 . S
C1304 C1299 1.490 . S
C1304 C1306 1.395 . S
C1304 C1307 1.403 . S
H1305 C1311 0.930 . S
C1306 H1292 0.930 . S
C1306 C1304 1.395 . S
C1306 C1309 1.403 1_655 S
C1307 C1304 1.403 . S
C1307 C1308 1.524 . S
C1307 C1311 1.400 1_655 S
C1308 H1293 0.960 . S
C1308 H1294 0.960 . S
C1308 H1295 0.960 . S
C1308 C1307 1.524 . S
C1309 C1306 1.403 1_455 S
C1309 C1310 1.392 . S
C1309 C1313 1.495 . S
C1310 C1309 1.392 . S
C1310 C1311 1.385 . S
C1310 C1312 1.478 . S
C1311 H1305 0.930 . S
C1311 C1307 1.400 1_455 S
C1311 C1310 1.385 . S
C1312 C1310 1.478 . S
C1312 C1314 1.381 . S
C1312 C1318 1.383 . S
C1313 C1309 1.495 . S
C1313 H1319 0.959 . S
C1313 H1320 0.961 . S
C1313 H1321 0.960 . S
C1314 C1312 1.381 . S
C1314 C1315 1.394 . S
C1314 H1322 0.930 . S
C1315 C1314 1.394 . S
C1315 C1316 1.383 . S
C1315 H1323 0.929 . S
C1316 C1315 1.383 . S
C1316 C1317 1.377 . S
C1317 H1301 0.930 . S
C1317 C1316 1.377 . S
C1317 C1318 1.379 . S
C1318 H1302 0.931 . S
C1318 C1312 1.383 . S
C1318 C1317 1.379 . S
H1319 C1313 0.959 . S
H1320 C1313 0.961 . S
H1321 C1313 0.960 . S
H1322 C1314 0.930 . S
H1323 C1315 0.929 . S
H1324 C1332 0.929 . S
H1325 C1334 0.930 . S
H1326 C1336 0.930 . S
H1327 C1339 0.929 . S
H1328 C1342 0.930 . S
H1329 C1344 0.960 . S
H1330 C1344 0.960 . S
H1331 C1344 0.960 . S
C1332 H1324 0.929 . S
C1332 C1333 1.377 . S
C1332 C1334 1.384 . S
C1333 C1332 1.377 . S
C1333 C1339 1.390 . S
C1334 H1325 0.930 . S
C1334 C1332 1.384 . S
C1334 C1335 1.372 . S
C1335 C1334 1.372 . S
C1335 C1336 1.400 . S
C1335 C1340 1.490 . S
C1336 H1326 0.930 . S
C1336 C1335 1.400 . S
C1336 C1339 1.386 . S
H1337 C1353 0.930 . S
H1338 C1354 0.931 . S
C1339 H1327 0.929 . S
C1339 C1333 1.390 . S
C1339 C1336 1.386 . S
C1340 C1335 1.490 . S
C1340 C1342 1.395 . S
C1340 C1343 1.403 . S
H1341 C1347 0.930 . S
C1342 H1328 0.930 . S
C1342 C1340 1.395 . S
C1342 C1345 1.403 . S
C1343 C1340 1.403 . S
C1343 C1344 1.524 . S
C1343 C1347 1.400 . S
C1344 H1329 0.960 . S
C1344 H1330 0.960 . S
C1344 H1331 0.960 . S
C1344 C1343 1.524 . S
C1345 C1342 1.403 . S
C1345 C1346 1.392 . S
C1345 C1349 1.495 . S
C1346 C1345 1.392 . S
C1346 C1347 1.385 . S
C1346 C1348 1.478 . S
C1347 H1341 0.930 . S
C1347 C1343 1.400 . S
C1347 C1346 1.385 . S
C1348 C1346 1.478 . S
C1348 C1350 1.381 . S
C1348 C1354 1.383 . S
C1349 C1345 1.495 . S
C1349 H1355 0.959 . S
C1349 H1356 0.961 . S
C1349 H1357 0.960 . S
C1350 C1348 1.381 . S
C1350 C1351 1.394 . S
C1350 H1358 0.930 . S
C1351 C1350 1.394 . S
C1351 C1352 1.383 . S
C1351 H1359 0.929 . S
C1352 C1351 1.383 . S
C1352 C1353 1.377 . S
C1353 H1337 0.930 . S
C1353 C1352 1.377 . S
C1353 C1354 1.379 . S
C1354 H1338 0.931 . S
C1354 C1348 1.383 . S
C1354 C1353 1.379 . S
H1355 C1349 0.959 . S
H1356 C1349 0.961 . S
H1357 C1349 0.960 . S
H1358 C1350 0.930 . S
H1359 C1351 0.929 . S
H1360 C1368 0.929 . S
H1361 C1370 0.930 . S
H1362 C1372 0.930 . S
H1363 C1375 0.929 . S
H1364 C1378 0.930 . S
H1365 C1380 0.960 . S
H1366 C1380 0.960 . S
H1367 C1380 0.960 . S
C1368 H1360 0.929 . S
C1368 C1369 1.377 . S
C1368 C1370 1.384 . S
C1369 C1368 1.377 . S
C1369 C1375 1.390 . S
C1370 H1361 0.930 . S
C1370 C1368 1.384 . S
C1370 C1371 1.372 . S
C1371 C1370 1.372 . S
C1371 C1372 1.400 . S
C1371 C1376 1.490 . S
C1372 H1362 0.930 . S
C1372 C1371 1.400 . S
C1372 C1375 1.386 . S
H1373 C1389 0.930 . S
H1374 C1390 0.931 . S
C1375 H1363 0.929 . S
C1375 C1369 1.390 . S
C1375 C1372 1.386 . S
C1376 C1371 1.490 . S
C1376 C1378 1.395 . S
C1376 C1379 1.403 . S
H1377 C1383 0.930 . S
C1378 H1364 0.930 . S
C1378 C1376 1.395 . S
C1378 C1381 1.403 . S
C1379 C1376 1.403 . S
C1379 C1380 1.524 . S
C1379 C1383 1.400 . S
C1380 H1365 0.960 . S
C1380 H1366 0.960 . S
C1380 H1367 0.960 . S
C1380 C1379 1.524 . S
C1381 C1378 1.403 . S
C1381 C1382 1.392 . S
C1381 C1385 1.495 . S
C1382 C1381 1.392 . S
C1382 C1383 1.385 . S
C1382 C1384 1.478 . S
C1383 H1377 0.930 . S
C1383 C1379 1.400 . S
C1383 C1382 1.385 . S
C1384 C1382 1.478 . S
C1384 C1386 1.381 . S
C1384 C1390 1.383 . S
C1385 C1381 1.495 . S
C1385 H1391 0.959 1_554 S
C1385 H1392 0.961 . S
C1385 H1393 0.960 1_554 S
C1386 C1384 1.381 . S
C1386 C1387 1.394 . S
C1386 H1394 0.930 . S
C1387 C1386 1.394 . S
C1387 C1388 1.383 . S
C1387 H1395 0.929 . S
C1388 C1387 1.383 . S
C1388 C1389 1.377 . S
C1389 H1373 0.930 . S
C1389 C1388 1.377 . S
C1389 C1390 1.379 . S
C1390 H1374 0.931 . S
C1390 C1384 1.383 . S
C1390 C1389 1.379 . S
H1391 C1385 0.959 1_556 S
H1392 C1385 0.961 . S
H1393 C1385 0.960 1_556 S
H1394 C1386 0.930 . S
H1395 C1387 0.929 . S
H1396 C1404 0.929 . S
H1397 C1406 0.930 . S
H1398 C1408 0.930 . S
H1399 C1411 0.929 . S
H1400 C1414 0.930 . S
H1401 C1416 0.960 . S
H1402 C1416 0.960 . S
H1403 C1416 0.960 . S
C1404 H1396 0.929 . S
C1404 C1405 1.377 . S
C1404 C1406 1.384 . S
C1405 C1404 1.377 . S
C1405 C1411 1.390 . S
C1406 H1397 0.930 . S
C1406 C1404 1.384 . S
C1406 C1407 1.372 . S
C1407 C1406 1.372 . S
C1407 C1408 1.400 . S
C1407 C1412 1.490 . S
C1408 H1398 0.930 . S
C1408 C1407 1.400 . S
C1408 C1411 1.386 . S
H1409 C1425 0.930 . S
H1410 C1426 0.931 . S
C1411 H1399 0.929 . S
C1411 C1405 1.390 . S
C1411 C1408 1.386 . S
C1412 C1407 1.490 . S
C1412 C1414 1.395 . S
C1412 C1415 1.403 . S
H1413 C1419 0.930 . S
C1414 H1400 0.930 . S
C1414 C1412 1.395 . S
C1414 C1417 1.403 1_655 S
C1415 C1412 1.403 . S
C1415 C1416 1.524 . S
C1415 C1419 1.400 1_655 S
C1416 H1401 0.960 . S
C1416 H1402 0.960 . S
C1416 H1403 0.960 . S
C1416 C1415 1.524 . S
C1417 C1414 1.403 1_455 S
C1417 C1418 1.392 . S
C1417 C1421 1.495 . S
C1418 C1417 1.392 . S
C1418 C1419 1.385 . S
C1418 C1420 1.478 . S
C1419 H1413 0.930 . S
C1419 C1415 1.400 1_455 S
C1419 C1418 1.385 . S
C1420 C1418 1.478 . S
C1420 C1422 1.381 . S
C1420 C1426 1.383 . S
C1421 C1417 1.495 . S
C1421 H1427 0.959 . S
C1421 H1428 0.961 . S
C1421 H1429 0.960 . S
C1422 C1420 1.381 . S
C1422 C1423 1.394 . S
C1422 H1430 0.930 . S
C1423 C1422 1.394 . S
C1423 C1424 1.383 . S
C1423 H1431 0.929 . S
C1424 C1423 1.383 . S
C1424 C1425 1.377 . S
C1425 H1409 0.930 . S
C1425 C1424 1.377 . S
C1425 C1426 1.379 . S
C1426 H1410 0.931 . S
C1426 C1420 1.383 . S
C1426 C1425 1.379 . S
H1427 C1421 0.959 . S
H1428 C1421 0.961 . S
H1429 C1421 0.960 . S
H1430 C1422 0.930 . S
H1431 C1423 0.929 . S
H1432 C1440 0.929 . S
H1433 C1442 0.930 . S
H1434 C1444 0.930 . S
H1435 C1447 0.929 . S
H1436 C1450 0.930 . S
H1437 C1452 0.960 . S
H1438 C1452 0.960 . S
H1439 C1452 0.960 . S
C1440 H1432 0.929 . S
C1440 C1441 1.377 . S
C1440 C1442 1.384 . S
C1441 C1440 1.377 . S
C1441 C1447 1.390 . S
C1442 H1433 0.930 . S
C1442 C1440 1.384 . S
C1442 C1443 1.372 . S
C1443 C1442 1.372 . S
C1443 C1444 1.400 . S
C1443 C1448 1.490 . S
C1444 H1434 0.930 . S
C1444 C1443 1.400 . S
C1444 C1447 1.386 . S
H1445 C1461 0.930 . S
H1446 C1462 0.931 . S
C1447 H1435 0.929 . S
C1447 C1441 1.390 . S
C1447 C1444 1.386 . S
C1448 C1443 1.490 . S
C1448 C1450 1.395 . S
C1448 C1451 1.403 . S
H1449 C1455 0.930 . S
C1450 H1436 0.930 . S
C1450 C1448 1.395 . S
C1450 C1453 1.403 . S
C1451 C1448 1.403 . S
C1451 C1452 1.524 . S
C1451 C1455 1.400 . S
C1452 H1437 0.960 . S
C1452 H1438 0.960 . S
C1452 H1439 0.960 . S
C1452 C1451 1.524 . S
C1453 C1450 1.403 . S
C1453 C1454 1.392 . S
C1453 C1457 1.495 . S
C1454 C1453 1.392 . S
C1454 C1455 1.385 . S
C1454 C1456 1.478 . S
C1455 H1449 0.930 . S
C1455 C1451 1.400 . S
C1455 C1454 1.385 . S
C1456 C1454 1.478 . S
C1456 C1458 1.381 . S
C1456 C1462 1.383 . S
C1457 C1453 1.495 . S
C1457 H1463 0.959 . S
C1457 H1464 0.961 . S
C1457 H1465 0.960 . S
C1458 C1456 1.381 . S
C1458 C1459 1.394 . S
C1458 H1466 0.930 . S
C1459 C1458 1.394 . S
C1459 C1460 1.383 . S
C1459 H1467 0.929 . S
C1460 C1459 1.383 . S
C1460 C1461 1.377 . S
C1461 H1445 0.930 . S
C1461 C1460 1.377 . S
C1461 C1462 1.379 . S
C1462 H1446 0.931 . S
C1462 C1456 1.383 . S
C1462 C1461 1.379 . S
H1463 C1457 0.959 . S
H1464 C1457 0.961 . S
H1465 C1457 0.960 . S
H1466 C1458 0.930 . S
H1467 C1459 0.929 . S
H1468 C1476 0.929 . S
H1469 C1478 0.930 . S
H1470 C1480 0.930 . S
H1471 C1483 0.929 . S
H1472 C1486 0.930 . S
H1473 C1488 0.960 . S
H1474 C1488 0.960 . S
H1475 C1488 0.960 . S
C1476 H1468 0.929 . S
C1476 C1477 1.377 . S
C1476 C1478 1.384 . S
C1477 C1476 1.377 . S
C1477 C1483 1.390 . S
C1478 H1469 0.930 . S
C1478 C1476 1.384 . S
C1478 C1479 1.372 . S
C1479 C1478 1.372 . S
C1479 C1480 1.400 . S
C1479 C1484 1.490 . S
C1480 H1470 0.930 . S
C1480 C1479 1.400 . S
C1480 C1483 1.386 . S
H1481 C1497 0.930 . S
H1482 C1498 0.931 . S
C1483 H1471 0.929 . S
C1483 C1477 1.390 . S
C1483 C1480 1.386 . S
C1484 C1479 1.490 . S
C1484 C1486 1.395 . S
C1484 C1487 1.403 . S
H1485 C1491 0.930 . S
C1486 H1472 0.930 . S
C1486 C1484 1.395 . S
C1486 C1489 1.403 1_455 S
C1487 C1484 1.403 . S
C1487 C1488 1.524 . S
C1487 C1491 1.400 1_455 S
C1488 H1473 0.960 . S
C1488 H1474 0.960 . S
C1488 H1475 0.960 . S
C1488 C1487 1.524 . S
C1489 C1486 1.403 1_655 S
C1489 C1490 1.392 . S
C1489 C1493 1.495 . S
C1490 C1489 1.392 . S
C1490 C1491 1.385 . S
C1490 C1492 1.478 . S
C1491 H1485 0.930 . S
C1491 C1487 1.400 1_655 S
C1491 C1490 1.385 . S
C1492 C1490 1.478 . S
C1492 C1494 1.381 . S
C1492 C1498 1.383 . S
C1493 C1489 1.495 . S
C1493 H1499 0.959 . S
C1493 H1500 0.961 . S
C1493 H1501 0.960 . S
C1494 C1492 1.381 . S
C1494 C1495 1.394 . S
C1494 H1502 0.930 . S
C1495 C1494 1.394 . S
C1495 C1496 1.383 . S
C1495 H1503 0.929 . S
C1496 C1495 1.383 . S
C1496 C1497 1.377 . S
C1497 H1481 0.930 . S
C1497 C1496 1.377 . S
C1497 C1498 1.379 . S
C1498 H1482 0.931 . S
C1498 C1492 1.383 . S
C1498 C1497 1.379 . S
H1499 C1493 0.959 . S
H1500 C1493 0.961 . S
H1501 C1493 0.960 . S
H1502 C1494 0.930 . S
H1503 C1495 0.929 . S
H1504 C1512 0.929 1_556 S
H1505 C1514 0.930 . S
H1506 C1516 0.930 . S
H1507 C1519 0.929 . S
H1508 C1522 0.930 . S
H1509 C1524 0.960 1_565 S
H1510 C1524 0.960 . S
H1511 C1524 0.960 . S
C1512 H1504 0.929 1_554 S
C1512 C1513 1.377 . S
C1512 C1514 1.384 1_554 S
C1513 C1512 1.377 . S
C1513 C1519 1.390 . S
C1514 H1505 0.930 . S
C1514 C1512 1.384 1_556 S
C1514 C1515 1.372 1_556 S
C1515 C1514 1.372 1_554 S
C1515 C1516 1.400 . S
C1515 C1520 1.490 . S
C1516 H1506 0.930 . S
C1516 C1515 1.400 . S
C1516 C1519 1.386 . S
H1517 C1533 0.930 1_554 S
H1518 C1534 0.931 1_554 S
C1519 H1507 0.929 . S
C1519 C1513 1.390 . S
C1519 C1516 1.386 . S
C1520 C1515 1.490 . S
C1520 C1522 1.395 1_554 S
C1520 C1523 1.403 . S
H1521 C1527 0.930 . S
C1522 H1508 0.930 . S
C1522 C1520 1.395 1_556 S
C1522 C1525 1.403 1_545 S
C1523 C1520 1.403 . S
C1523 C1524 1.524 . S
C1523 C1527 1.400 1_545 S
C1524 H1509 0.960 1_545 S
C1524 H1510 0.960 . S
C1524 H1511 0.960 . S
C1524 C1523 1.524 . S
C1525 C1522 1.403 1_565 S
C1525 C1526 1.392 . S
C1525 C1529 1.495 . S
C1526 C1525 1.392 . S
C1526 C1527 1.385 1_556 S
C1526 C1528 1.478 . S
C1527 H1521 0.930 . S
C1527 C1523 1.400 1_565 S
C1527 C1526 1.385 1_554 S
C1528 C1526 1.478 . S
C1528 C1530 1.381 . S
C1528 C1534 1.383 . S
C1529 C1525 1.495 . S
C1529 H1535 0.959 1_565 S
C1529 H1536 0.961 . S
C1529 H1537 0.960 . S
C1530 C1528 1.381 . S
C1530 C1531 1.394 . S
C1530 H1538 0.930 . S
C1531 C1530 1.394 . S
C1531 C1532 1.383 . S
C1531 H1539 0.929 . S
C1532 C1531 1.383 . S
C1532 C1533 1.377 . S
C1533 H1517 0.930 1_556 S
C1533 C1532 1.377 . S
C1533 C1534 1.379 . S
C1534 H1518 0.931 1_556 S
C1534 C1528 1.383 . S
C1534 C1533 1.379 . S
H1535 C1529 0.959 1_545 S
H1536 C1529 0.961 . S
H1537 C1529 0.960 . S
H1538 C1530 0.930 . S
H1539 C1531 0.929 . S
H1540 C1548 0.929 . S
H1541 C1550 0.930 . S
H1542 C1552 0.930 . S
H1543 C1555 0.929 . S
H1544 C1558 0.930 . S
H1545 C1560 0.960 . S
H1546 C1560 0.960 . S
H1547 C1560 0.960 . S
C1548 H1540 0.929 . S
C1548 C1549 1.377 . S
C1548 C1550 1.384 . S
C1549 C1548 1.377 . S
C1549 C1555 1.390 . S
C1550 H1541 0.930 . S
C1550 C1548 1.384 . S
C1550 C1551 1.372 . S
C1551 C1550 1.372 . S
C1551 C1552 1.400 . S
C1551 C1556 1.490 . S
C1552 H1542 0.930 . S
C1552 C1551 1.400 . S
C1552 C1555 1.386 . S
H1553 C1569 0.930 . S
H1554 C1570 0.931 . S
C1555 H1543 0.929 . S
C1555 C1549 1.390 . S
C1555 C1552 1.386 . S
C1556 C1551 1.490 . S
C1556 C1558 1.395 . S
C1556 C1559 1.403 . S
H1557 C1563 0.930 . S
C1558 H1544 0.930 . S
C1558 C1556 1.395 . S
C1558 C1561 1.403 1_565 S
C1559 C1556 1.403 . S
C1559 C1560 1.524 . S
C1559 C1563 1.400 1_565 S
C1560 H1545 0.960 . S
C1560 H1546 0.960 . S
C1560 H1547 0.960 . S
C1560 C1559 1.524 . S
C1561 C1558 1.403 1_545 S
C1561 C1562 1.392 . S
C1561 C1565 1.495 . S
C1562 C1561 1.392 . S
C1562 C1563 1.385 . S
C1562 C1564 1.478 . S
C1563 H1557 0.930 . S
C1563 C1559 1.400 1_545 S
C1563 C1562 1.385 . S
C1564 C1562 1.478 . S
C1564 C1566 1.381 . S
C1564 C1570 1.383 . S
C1565 C1561 1.495 . S
C1565 H1571 0.959 . S
C1565 H1572 0.961 . S
C1565 H1573 0.960 . S
C1566 C1564 1.381 . S
C1566 C1567 1.394 . S
C1566 H1574 0.930 . S
C1567 C1566 1.394 . S
C1567 C1568 1.383 . S
C1567 H1575 0.929 . S
C1568 C1567 1.383 . S
C1568 C1569 1.377 . S
C1569 H1553 0.930 . S
C1569 C1568 1.377 . S
C1569 C1570 1.379 . S
C1570 H1554 0.931 . S
C1570 C1564 1.383 . S
C1570 C1569 1.379 . S
H1571 C1565 0.959 . S
H1572 C1565 0.961 . S
H1573 C1565 0.960 . S
H1574 C1566 0.930 . S
H1575 C1567 0.929 . S
H1576 C1584 0.929 . S
H1577 C1586 0.930 1_556 S
H1578 C1588 0.930 . S
H1579 C1591 0.929 . S
H1580 C1594 0.930 . S
H1581 C1596 0.960 1_565 S
H1582 C1596 0.960 . S
H1583 C1596 0.960 . S
C1584 H1576 0.929 . S
C1584 C1585 1.377 . S
C1584 C1586 1.384 . S
C1585 C1584 1.377 . S
C1585 C1591 1.390 . S
C1586 H1577 0.930 1_554 S
C1586 C1584 1.384 . S
C1586 C1587 1.372 . S
C1587 C1586 1.372 . S
C1587 C1588 1.400 . S
C1587 C1592 1.490 . S
C1588 H1578 0.930 . S
C1588 C1587 1.400 . S
C1588 C1591 1.386 . S
H1589 C1605 0.930 . S
H1590 C1606 0.926 1_554 S
C1591 H1579 0.929 . S
C1591 C1585 1.390 . S
C1591 C1588 1.386 . S
C1592 C1587 1.490 . S
C1592 C1594 1.395 1_554 S
C1592 C1595 1.403 . S
H1593 C1599 0.930 . S
C1594 H1580 0.930 . S
C1594 C1592 1.395 1_556 S
C1594 C1597 1.403 1_545 S
C1595 C1592 1.403 . S
C1595 C1596 1.524 . S
C1595 C1599 1.400 1_545 S
C1596 H1581 0.960 1_545 S
C1596 H1582 0.960 . S
C1596 H1583 0.960 . S
C1596 C1595 1.524 . S
C1597 C1594 1.403 1_565 S
C1597 C1598 1.392 . S
C1597 C1601 1.495 . S
C1598 C1597 1.392 . S
C1598 C1599 1.385 1_556 S
C1598 C1600 1.478 . S
C1599 H1593 0.930 . S
C1599 C1595 1.400 1_565 S
C1599 C1598 1.385 1_554 S
C1600 C1598 1.478 . S
C1600 C1602 1.381 . S
C1600 C1606 1.383 . S
C1601 C1597 1.495 . S
C1601 H1607 0.959 1_565 S
C1601 H1608 0.961 . S
C1601 H1609 0.960 . S
C1602 C1600 1.381 . S
C1602 C1603 1.394 . S
C1602 H1610 0.930 . S
C1603 C1602 1.394 . S
C1603 C1604 1.383 . S
C1603 H1611 0.929 . S
C1604 C1603 1.383 . S
C1604 C1605 1.377 . S
C1605 H1589 0.930 . S
C1605 C1604 1.377 . S
C1605 C1606 1.379 . S
C1606 H1590 0.926 1_556 S
C1606 C1600 1.383 . S
C1606 C1605 1.379 . S
H1607 C1601 0.959 1_545 S
H1608 C1601 0.961 . S
H1609 C1601 0.960 . S
H1610 C1602 0.930 . S
H1611 C1603 0.929 . S
H1612 C1620 0.929 . S
H1613 C1622 0.930 . S
H1614 C1624 0.930 . S
H1615 C1627 0.929 . S
H1616 C1630 0.930 . S
H1617 C1632 0.960 1_565 S
H1618 C1632 0.960 . S
H1619 C1632 0.960 . S
C1620 H1612 0.929 . S
C1620 C1621 1.377 . S
C1620 C1622 1.384 . S
C1621 C1620 1.377 . S
C1621 C1627 1.390 . S
C1622 H1613 0.930 . S
C1622 C1620 1.384 . S
C1622 C1623 1.372 . S
C1623 C1622 1.372 . S
C1623 C1624 1.400 . S
C1623 C1628 1.490 . S
C1624 H1614 0.930 . S
C1624 C1623 1.400 . S
C1624 C1627 1.386 . S
H1625 C1641 0.930 . S
H1626 C1642 0.931 . S
C1627 H1615 0.929 . S
C1627 C1621 1.390 . S
C1627 C1624 1.386 . S
C1628 C1623 1.490 . S
C1628 C1630 1.395 . S
C1628 C1631 1.403 . S
H1629 C1635 0.930 . S
C1630 H1616 0.930 . S
C1630 C1628 1.395 . S
C1630 C1633 1.403 1_545 S
C1631 C1628 1.403 . S
C1631 C1632 1.524 . S
C1631 C1635 1.400 1_545 S
C1632 H1617 0.960 1_545 S
C1632 H1618 0.960 . S
C1632 H1619 0.960 . S
C1632 C1631 1.524 . S
C1633 C1630 1.403 1_565 S
C1633 C1634 1.392 . S
C1633 C1637 1.495 . S
C1634 C1633 1.392 . S
C1634 C1635 1.385 . S
C1634 C1636 1.478 . S
C1635 H1629 0.930 . S
C1635 C1631 1.400 1_565 S
C1635 C1634 1.385 . S
C1636 C1634 1.478 . S
C1636 C1638 1.381 . S
C1636 C1642 1.383 . S
C1637 C1633 1.495 . S
C1637 H1643 0.959 1_565 S
C1637 H1644 0.961 . S
C1637 H1645 0.960 . S
C1638 C1636 1.381 . S
C1638 C1639 1.394 . S
C1638 H1646 0.930 . S
C1639 C1638 1.394 . S
C1639 C1640 1.383 . S
C1639 H1647 0.929 . S
C1640 C1639 1.383 . S
C1640 C1641 1.377 . S
C1641 H1625 0.930 . S
C1641 C1640 1.377 . S
C1641 C1642 1.379 . S
C1642 H1626 0.931 . S
C1642 C1636 1.383 . S
C1642 C1641 1.379 . S
H1643 C1637 0.959 1_545 S
H1644 C1637 0.961 . S
H1645 C1637 0.960 . S
H1646 C1638 0.930 . S
H1647 C1639 0.929 . S
H1648 C1656 0.929 . S
H1649 C1658 0.930 . S
H1650 C1660 0.930 . S
H1651 C1663 0.929 . S
H1652 C1666 0.930 . S
H1653 C1668 0.960 . S
H1654 C1668 0.960 . S
H1655 C1668 0.960 . S
C1656 H1648 0.929 . S
C1656 C1657 1.377 . S
C1656 C1658 1.384 . S
C1657 C1656 1.377 . S
C1657 C1663 1.390 . S
C1658 H1649 0.930 . S
C1658 C1656 1.384 . S
C1658 C1659 1.372 . S
C1659 C1658 1.372 . S
C1659 C1660 1.400 . S
C1659 C1664 1.490 . S
C1660 H1650 0.930 . S
C1660 C1659 1.400 . S
C1660 C1663 1.386 . S
H1661 C1677 0.930 . S
H1662 C1678 0.931 . S
C1663 H1651 0.929 . S
C1663 C1657 1.390 . S
C1663 C1660 1.386 . S
C1664 C1659 1.490 . S
C1664 C1666 1.395 1_554 S
C1664 C1667 1.403 . S
H1665 C1671 0.930 . S
C1666 H1652 0.930 . S
C1666 C1664 1.395 1_556 S
C1666 C1669 1.403 . S
C1667 C1664 1.403 . S
C1667 C1668 1.524 . S
C1667 C1671 1.400 . S
C1668 H1653 0.960 . S
C1668 H1654 0.960 . S
C1668 H1655 0.960 . S
C1668 C1667 1.524 . S
C1669 C1666 1.403 . S
C1669 C1670 1.392 . S
C1669 C1673 1.495 . S
C1670 C1669 1.392 . S
C1670 C1671 1.385 1_556 S
C1670 C1672 1.478 . S
C1671 H1665 0.930 . S
C1671 C1667 1.400 . S
C1671 C1670 1.385 1_554 S
C1672 C1670 1.478 . S
C1672 C1674 1.381 . S
C1672 C1678 1.383 . S
C1673 C1669 1.495 . S
C1673 H1679 0.959 . S
C1673 H1680 0.961 . S
C1673 H1681 0.960 . S
C1674 C1672 1.381 . S
C1674 C1675 1.394 . S
C1674 H1682 0.930 . S
C1675 C1674 1.394 . S
C1675 C1676 1.383 . S
C1675 H1683 0.929 . S
C1676 C1675 1.383 . S
C1676 C1677 1.377 . S
C1677 H1661 0.930 . S
C1677 C1676 1.377 . S
C1677 C1678 1.379 . S
C1678 H1662 0.931 . S
C1678 C1672 1.383 . S
C1678 C1677 1.379 . S
H1679 C1673 0.959 . S
H1680 C1673 0.961 . S
H1681 C1673 0.960 . S
H1682 C1674 0.930 . S
H1683 C1675 0.929 . S
H1684 C1692 0.929 . S
H1685 C1694 0.930 . S
H1686 C1696 0.930 . S
H1687 C1699 0.929 . S
H1688 C1702 0.930 . S
H1689 C1704 0.960 . S
H1690 C1704 0.960 . S
H1691 C1704 0.960 . S
C1692 H1684 0.929 . S
C1692 C1693 1.377 . S
C1692 C1694 1.384 . S
C1693 C1692 1.377 . S
C1693 C1699 1.390 . S
C1694 H1685 0.930 . S
C1694 C1692 1.384 . S
C1694 C1695 1.372 . S
C1695 C1694 1.372 . S
C1695 C1696 1.400 . S
C1695 C1700 1.490 . S
C1696 H1686 0.930 . S
C1696 C1695 1.400 . S
C1696 C1699 1.386 . S
H1697 C1713 0.930 . S
H1698 C1714 0.931 . S
C1699 H1687 0.929 . S
C1699 C1693 1.390 . S
C1699 C1696 1.386 . S
C1700 C1695 1.490 . S
C1700 C1702 1.395 . S
C1700 C1703 1.403 . S
H1701 C1707 0.930 . S
C1702 H1688 0.930 . S
C1702 C1700 1.395 . S
C1702 C1705 1.403 . S
C1703 C1700 1.403 . S
C1703 C1704 1.524 . S
C1703 C1707 1.400 . S
C1704 H1689 0.960 . S
C1704 H1690 0.960 . S
C1704 H1691 0.960 . S
C1704 C1703 1.524 . S
C1705 C1702 1.403 . S
C1705 C1706 1.392 . S
C1705 C1709 1.495 . S
C1706 C1705 1.392 . S
C1706 C1707 1.385 . S
C1706 C1708 1.478 . S
C1707 H1701 0.930 . S
C1707 C1703 1.400 . S
C1707 C1706 1.385 . S
C1708 C1706 1.478 . S
C1708 C1710 1.381 . S
C1708 C1714 1.383 . S
C1709 C1705 1.495 . S
C1709 H1715 0.959 . S
C1709 H1716 0.961 . S
C1709 H1717 0.960 . S
C1710 C1708 1.381 . S
C1710 C1711 1.394 . S
C1710 H1718 0.930 . S
C1711 C1710 1.394 . S
C1711 C1712 1.383 . S
C1711 H1719 0.929 . S
C1712 C1711 1.383 . S
C1712 C1713 1.377 . S
C1713 H1697 0.930 . S
C1713 C1712 1.377 . S
C1713 C1714 1.379 . S
C1714 H1698 0.931 . S
C1714 C1708 1.383 . S
C1714 C1713 1.379 . S
H1715 C1709 0.959 . S
H1716 C1709 0.961 . S
H1717 C1709 0.960 . S
H1718 C1710 0.930 . S
H1719 C1711 0.929 . S
H1720 C1728 0.929 . S
H1721 C1730 0.930 . S
H1722 C1732 0.930 . S
H1723 C1735 0.929 . S
H1724 C1738 0.930 . S
H1725 C1740 0.960 . S
H1726 C1740 0.960 . S
H1727 C1740 0.960 . S
C1728 H1720 0.929 . S
C1728 C1729 1.377 . S
C1728 C1730 1.384 . S
C1729 C1728 1.377 . S
C1729 C1735 1.390 . S
C1730 H1721 0.930 . S
C1730 C1728 1.384 . S
C1730 C1731 1.372 . S
C1731 C1730 1.372 . S
C1731 C1732 1.400 . S
C1731 C1736 1.490 . S
C1732 H1722 0.930 . S
C1732 C1731 1.400 . S
C1732 C1735 1.386 . S
H1733 C1749 0.930 . S
H1734 C1750 0.931 . S
C1735 H1723 0.929 . S
C1735 C1729 1.390 . S
C1735 C1732 1.386 . S
C1736 C1731 1.490 . S
C1736 C1738 1.395 . S
C1736 C1739 1.403 1_556 S
H1737 C1743 0.930 . S
C1738 H1724 0.930 . S
C1738 C1736 1.395 . S
C1738 C1741 1.403 . S
C1739 C1736 1.403 1_554 S
C1739 C1740 1.524 . S
C1739 C1743 1.400 . S
C1740 H1725 0.960 . S
C1740 H1726 0.960 . S
C1740 H1727 0.960 . S
C1740 C1739 1.524 . S
C1741 C1738 1.403 . S
C1741 C1742 1.392 1_556 S
C1741 C1745 1.495 . S
C1742 C1741 1.392 1_554 S
C1742 C1743 1.385 . S
C1742 C1744 1.478 . S
C1743 H1737 0.930 . S
C1743 C1739 1.400 . S
C1743 C1742 1.385 . S
C1744 C1742 1.478 . S
C1744 C1746 1.381 . S
C1744 C1750 1.383 . S
C1745 C1741 1.495 . S
C1745 H1751 0.959 . S
C1745 H1752 0.961 . S
C1745 H1753 0.960 . S
C1746 C1744 1.381 . S
C1746 C1747 1.394 . S
C1746 H1754 0.930 . S
C1747 C1746 1.394 . S
C1747 C1748 1.383 . S
C1747 H1755 0.929 . S
C1748 C1747 1.383 . S
C1748 C1749 1.377 . S
C1749 H1733 0.930 . S
C1749 C1748 1.377 . S
C1749 C1750 1.379 . S
C1750 H1734 0.931 . S
C1750 C1744 1.383 . S
C1750 C1749 1.379 . S
H1751 C1745 0.959 . S
H1752 C1745 0.961 . S
H1753 C1745 0.960 . S
H1754 C1746 0.930 . S
H1755 C1747 0.929 . S
H1756 C1764 0.929 . S
H1757 C1766 0.930 . S
H1758 C1768 0.930 . S
H1759 C1771 0.929 . S
H1760 C1774 0.930 . S
H1761 C1776 0.960 . S
H1762 C1776 0.960 . S
H1763 C1776 0.960 . S
C1764 H1756 0.929 . S
C1764 C1765 1.377 . S
C1764 C1766 1.384 . S
C1765 C1764 1.377 . S
C1765 C1771 1.390 . S
C1766 H1757 0.930 . S
C1766 C1764 1.384 . S
C1766 C1767 1.372 . S
C1767 C1766 1.372 . S
C1767 C1768 1.400 . S
C1767 C1772 1.490 . S
C1768 H1758 0.930 . S
C1768 C1767 1.400 . S
C1768 C1771 1.386 . S
H1769 C1785 0.930 . S
H1770 C1786 0.931 . S
C1771 H1759 0.929 . S
C1771 C1765 1.390 . S
C1771 C1768 1.386 . S
C1772 C1767 1.490 . S
C1772 C1774 1.395 . S
C1772 C1775 1.403 . S
H1773 C1779 0.930 . S
C1774 H1760 0.930 . S
C1774 C1772 1.395 . S
C1774 C1777 1.403 . S
C1775 C1772 1.403 . S
C1775 C1776 1.524 . S
C1775 C1779 1.400 . S
C1776 H1761 0.960 . S
C1776 H1762 0.960 . S
C1776 H1763 0.960 . S
C1776 C1775 1.524 . S
C1777 C1774 1.403 . S
C1777 C1778 1.392 . S
C1777 C1781 1.495 . S
C1778 C1777 1.392 . S
C1778 C1779 1.385 . S
C1778 C1780 1.478 . S
C1779 H1773 0.930 . S
C1779 C1775 1.400 . S
C1779 C1778 1.385 . S
C1780 C1778 1.478 . S
C1780 C1782 1.381 . S
C1780 C1786 1.383 . S
C1781 C1777 1.495 . S
C1781 H1787 0.959 . S
C1781 H1788 0.961 . S
C1781 H1789 0.960 . S
C1782 C1780 1.381 . S
C1782 C1783 1.394 . S
C1782 H1790 0.930 . S
C1783 C1782 1.394 . S
C1783 C1784 1.383 . S
C1783 H1791 0.929 . S
C1784 C1783 1.383 . S
C1784 C1785 1.377 . S
C1785 H1769 0.930 . S
C1785 C1784 1.377 . S
C1785 C1786 1.379 . S
C1786 H1770 0.931 . S
C1786 C1780 1.383 . S
C1786 C1785 1.379 . S
H1787 C1781 0.959 . S
H1788 C1781 0.961 . S
H1789 C1781 0.960 . S
H1790 C1782 0.930 . S
H1791 C1783 0.929 . S
H1792 C1800 0.929 . S
H1793 C1802 0.930 1_556 S
H1794 C1804 0.930 . S
H1795 C1807 0.929 . S
H1796 C1810 0.930 . S
H1797 C1812 0.960 . S
H1798 C1812 0.960 . S
H1799 C1812 0.960 . S
C1800 H1792 0.929 . S
C1800 C1801 1.377 . S
C1800 C1802 1.384 . S
C1801 C1800 1.377 . S
C1801 C1807 1.390 . S
C1802 H1793 0.930 1_554 S
C1802 C1800 1.384 . S
C1802 C1803 1.372 . S
C1803 C1802 1.372 . S
C1803 C1804 1.400 . S
C1803 C1808 1.490 . S
C1804 H1794 0.930 . S
C1804 C1803 1.400 . S
C1804 C1807 1.386 . S
H1805 C1821 0.930 . S
H1806 C1822 0.931 1_554 S
C1807 H1795 0.929 . S
C1807 C1801 1.390 . S
C1807 C1804 1.386 . S
C1808 C1803 1.490 . S
C1808 C1810 1.395 1_554 S
C1808 C1811 1.403 . S
H1809 C1815 0.930 . S
C1810 H1796 0.930 . S
C1810 C1808 1.395 1_556 S
C1810 C1813 1.403 . S
C1811 C1808 1.403 . S
C1811 C1812 1.524 . S
C1811 C1815 1.400 . S
C1812 H1797 0.960 . S
C1812 H1798 0.960 . S
C1812 H1799 0.960 . S
C1812 C1811 1.524 . S
C1813 C1810 1.403 . S
C1813 C1814 1.392 . S
C1813 C1817 1.495 . S
C1814 C1813 1.392 . S
C1814 C1815 1.385 1_556 S
C1814 C1816 1.478 . S
C1815 H1809 0.930 . S
C1815 C1811 1.400 . S
C1815 C1814 1.385 1_554 S
C1816 C1814 1.478 . S
C1816 C1818 1.381 . S
C1816 C1822 1.383 . S
C1817 C1813 1.495 . S
C1817 H1823 0.959 . S
C1817 H1824 0.961 . S
C1817 H1825 0.960 . S
C1818 C1816 1.381 . S
C1818 C1819 1.394 . S
C1818 H1826 0.930 . S
C1819 C1818 1.394 . S
C1819 C1820 1.383 . S
C1819 H1827 0.929 . S
C1820 C1819 1.383 . S
C1820 C1821 1.377 . S
C1821 H1805 0.930 . S
C1821 C1820 1.377 . S
C1821 C1822 1.379 . S
C1822 H1806 0.931 1_556 S
C1822 C1816 1.383 . S
C1822 C1821 1.379 . S
H1823 C1817 0.959 . S
H1824 C1817 0.961 . S
H1825 C1817 0.960 . S
H1826 C1818 0.930 . S
H1827 C1819 0.929 . S
H1828 C1836 0.929 . S
H1829 C1838 0.930 . S
H1830 C1840 0.930 . S
H1831 C1843 0.929 . S
H1832 C1846 0.930 . S
H1833 C1848 0.960 . S
H1834 C1848 0.960 . S
H1835 C1848 0.960 . S
C1836 H1828 0.929 . S
C1836 C1837 1.377 . S
C1836 C1838 1.384 . S
C1837 C1836 1.377 . S
C1837 C1843 1.390 . S
C1838 H1829 0.930 . S
C1838 C1836 1.384 . S
C1838 C1839 1.372 . S
C1839 C1838 1.372 . S
C1839 C1840 1.400 . S
C1839 C1844 1.490 . S
C1840 H1830 0.930 . S
C1840 C1839 1.400 . S
C1840 C1843 1.386 . S
H1841 C1857 0.930 . S
H1842 C1858 0.931 . S
C1843 H1831 0.929 . S
C1843 C1837 1.390 . S
C1843 C1840 1.386 . S
C1844 C1839 1.490 . S
C1844 C1846 1.395 . S
C1844 C1847 1.403 . S
H1845 C1851 0.930 . S
C1846 H1832 0.930 . S
C1846 C1844 1.395 . S
C1846 C1849 1.403 . S
C1847 C1844 1.403 . S
C1847 C1848 1.524 . S
C1847 C1851 1.400 . S
C1848 H1833 0.960 . S
C1848 H1834 0.960 . S
C1848 H1835 0.960 . S
C1848 C1847 1.524 . S
C1849 C1846 1.403 . S
C1849 C1850 1.392 . S
C1849 C1853 1.495 . S
C1850 C1849 1.392 . S
C1850 C1851 1.385 . S
C1850 C1852 1.478 . S
C1851 H1845 0.930 . S
C1851 C1847 1.400 . S
C1851 C1850 1.385 . S
C1852 C1850 1.478 . S
C1852 C1854 1.381 . S
C1852 C1858 1.383 . S
C1853 C1849 1.495 . S
C1853 H1859 0.959 . S
C1853 H1860 0.961 . S
C1853 H1861 0.960 . S
C1854 C1852 1.381 . S
C1854 C1855 1.394 . S
C1854 H1862 0.930 . S
C1855 C1854 1.394 . S
C1855 C1856 1.383 . S
C1855 H1863 0.929 . S
C1856 C1855 1.383 . S
C1856 C1857 1.377 . S
C1857 H1841 0.930 . S
C1857 C1856 1.377 . S
C1857 C1858 1.379 . S
C1858 H1842 0.931 . S
C1858 C1852 1.383 . S
C1858 C1857 1.379 . S
H1859 C1853 0.959 . S
H1860 C1853 0.961 . S
H1861 C1853 0.960 . S
H1862 C1854 0.930 . S
H1863 C1855 0.929 . S
H1864 C1872 0.929 . S
H1865 C1874 0.930 . S
H1866 C1876 0.930 . S
H1867 C1879 0.929 . S
H1868 C1882 0.930 . S
H1869 C1884 0.960 . S
H1870 C1884 0.960 . S
H1871 C1884 0.960 . S
C1872 H1864 0.929 . S
C1872 C1873 1.377 . S
C1872 C1874 1.384 . S
C1873 C1872 1.377 . S
C1873 C1879 1.390 . S
C1874 H1865 0.930 . S
C1874 C1872 1.384 . S
C1874 C1875 1.372 . S
C1875 C1874 1.372 . S
C1875 C1876 1.400 . S
C1875 C1880 1.490 . S
C1876 H1866 0.930 . S
C1876 C1875 1.400 . S
C1876 C1879 1.386 . S
H1877 C1893 0.930 . S
H1878 C1894 0.931 . S
C1879 H1867 0.929 . S
C1879 C1873 1.390 . S
C1879 C1876 1.386 . S
C1880 C1875 1.490 . S
C1880 C1882 1.395 . S
C1880 C1883 1.403 1_556 S
H1881 C1887 0.930 . S
C1882 H1868 0.930 . S
C1882 C1880 1.395 . S
C1882 C1885 1.403 . S
C1883 C1880 1.403 1_554 S
C1883 C1884 1.524 . S
C1883 C1887 1.400 . S
C1884 H1869 0.960 . S
C1884 H1870 0.960 . S
C1884 H1871 0.960 . S
C1884 C1883 1.524 . S
C1885 C1882 1.403 . S
C1885 C1886 1.392 1_556 S
C1885 C1889 1.495 . S
C1886 C1885 1.392 1_554 S
C1886 C1887 1.385 . S
C1886 C1888 1.478 . S
C1887 H1881 0.930 . S
C1887 C1883 1.400 . S
C1887 C1886 1.385 . S
C1888 C1886 1.478 . S
C1888 C1890 1.381 . S
C1888 C1894 1.383 . S
C1889 C1885 1.495 . S
C1889 H1895 0.959 . S
C1889 H1896 0.961 . S
C1889 H1897 0.960 . S
C1890 C1888 1.381 . S
C1890 C1891 1.394 . S
C1890 H1898 0.930 . S
C1891 C1890 1.394 . S
C1891 C1892 1.383 . S
C1891 H1899 0.929 . S
C1892 C1891 1.383 . S
C1892 C1893 1.377 . S
C1893 H1877 0.930 . S
C1893 C1892 1.377 . S
C1893 C1894 1.379 . S
C1894 H1878 0.931 . S
C1894 C1888 1.383 . S
C1894 C1893 1.379 . S
H1895 C1889 0.959 . S
H1896 C1889 0.961 . S
H1897 C1889 0.960 . S
H1898 C1890 0.930 . S
H1899 C1891 0.929 . S
H1900 C1908 0.929 . S
H1901 C1910 0.930 . S
H1902 C1912 0.930 . S
H1903 C1915 0.929 . S
H1904 C1918 0.930 . S
H1905 C1920 0.960 . S
H1906 C1920 0.960 . S
H1907 C1920 0.960 . S
C1908 H1900 0.929 . S
C1908 C1909 1.377 . S
C1908 C1910 1.384 . S
C1909 C1908 1.377 . S
C1909 C1915 1.390 . S
C1910 H1901 0.930 . S
C1910 C1908 1.384 . S
C1910 C1911 1.372 . S
C1911 C1910 1.372 . S
C1911 C1912 1.400 . S
C1911 C1916 1.490 . S
C1912 H1902 0.930 . S
C1912 C1911 1.400 . S
C1912 C1915 1.386 . S
H1913 C1929 0.930 . S
H1914 C1930 0.931 . S
C1915 H1903 0.929 . S
C1915 C1909 1.390 . S
C1915 C1912 1.386 . S
C1916 C1911 1.490 . S
C1916 C1918 1.395 . S
C1916 C1919 1.403 . S
H1917 C1923 0.930 . S
C1918 H1904 0.930 . S
C1918 C1916 1.395 . S
C1918 C1921 1.403 . S
C1919 C1916 1.403 . S
C1919 C1920 1.524 . S
C1919 C1923 1.400 . S
C1920 H1905 0.960 . S
C1920 H1906 0.960 . S
C1920 H1907 0.960 . S
C1920 C1919 1.524 . S
C1921 C1918 1.403 . S
C1921 C1922 1.392 . S
C1921 C1925 1.495 . S
C1922 C1921 1.392 . S
C1922 C1923 1.385 . S
C1922 C1924 1.478 . S
C1923 H1917 0.930 . S
C1923 C1919 1.400 . S
C1923 C1922 1.385 . S
C1924 C1922 1.478 . S
C1924 C1926 1.381 . S
C1924 C1930 1.383 . S
C1925 C1921 1.495 . S
C1925 H1931 0.959 . S
C1925 H1932 0.961 . S
C1925 H1933 0.960 . S
C1926 C1924 1.381 . S
C1926 C1927 1.394 . S
C1926 H1934 0.930 . S
C1927 C1926 1.394 . S
C1927 C1928 1.383 . S
C1927 H1935 0.929 . S
C1928 C1927 1.383 . S
C1928 C1929 1.377 . S
C1929 H1913 0.930 . S
C1929 C1928 1.377 . S
C1929 C1930 1.379 . S
C1930 H1914 0.931 . S
C1930 C1924 1.383 . S
C1930 C1929 1.379 . S
H1931 C1925 0.959 . S
H1932 C1925 0.961 . S
H1933 C1925 0.960 . S
H1934 C1926 0.930 . S
H1935 C1927 0.929 . S
H1936 C1944 0.929 . S
H1937 C1946 0.930 . S
H1938 C1948 0.930 . S
H1939 C1951 0.929 . S
H1940 C1954 0.930 . S
H1941 C1956 0.960 . S
H1942 C1956 0.960 . S
H1943 C1956 0.960 . S
C1944 H1936 0.929 . S
C1944 C1945 1.377 . S
C1944 C1946 1.384 . S
C1945 C1944 1.377 . S
C1945 C1951 1.390 . S
C1946 H1937 0.930 . S
C1946 C1944 1.384 . S
C1946 C1947 1.372 . S
C1947 C1946 1.372 . S
C1947 C1948 1.400 . S
C1947 C1952 1.490 . S
C1948 H1938 0.930 . S
C1948 C1947 1.400 . S
C1948 C1951 1.386 . S
H1949 C1965 0.930 . S
H1950 C1966 0.931 . S
C1951 H1939 0.929 . S
C1951 C1945 1.390 . S
C1951 C1948 1.386 . S
C1952 C1947 1.490 . S
C1952 C1954 1.395 . S
C1952 C1955 1.403 1_556 S
H1953 C1959 0.930 . S
C1954 H1940 0.930 . S
C1954 C1952 1.395 . S
C1954 C1957 1.403 . S
C1955 C1952 1.403 1_554 S
C1955 C1956 1.524 . S
C1955 C1959 1.400 . S
C1956 H1941 0.960 . S
C1956 H1942 0.960 . S
C1956 H1943 0.960 . S
C1956 C1955 1.524 . S
C1957 C1954 1.403 . S
C1957 C1958 1.392 1_556 S
C1957 C1961 1.495 . S
C1958 C1957 1.392 1_554 S
C1958 C1959 1.385 . S
C1958 C1960 1.478 . S
C1959 H1953 0.930 . S
C1959 C1955 1.400 . S
C1959 C1958 1.385 . S
C1960 C1958 1.478 . S
C1960 C1962 1.381 . S
C1960 C1966 1.383 . S
C1961 C1957 1.495 . S
C1961 H1967 0.959 . S
C1961 H1968 0.961 . S
C1961 H1969 0.960 . S
C1962 C1960 1.381 . S
C1962 C1963 1.394 . S
C1962 H1970 0.930 . S
C1963 C1962 1.394 . S
C1963 C1964 1.383 . S
C1963 H1971 0.929 . S
C1964 C1963 1.383 . S
C1964 C1965 1.377 . S
C1965 H1949 0.930 . S
C1965 C1964 1.377 . S
C1965 C1966 1.379 . S
C1966 H1950 0.931 . S
C1966 C1960 1.383 . S
C1966 C1965 1.379 . S
H1967 C1961 0.959 . S
H1968 C1961 0.961 . S
H1969 C1961 0.960 . S
H1970 C1962 0.930 . S
H1971 C1963 0.929 . S
H1972 C1980 0.929 . S
H1973 C1982 0.930 . S
H1974 C1984 0.930 . S
H1975 C1987 0.929 . S
H1976 C1990 0.930 . S
H1977 C1992 0.960 . S
H1978 C1992 0.960 . S
H1979 C1992 0.960 . S
C1980 H1972 0.929 . S
C1980 C1981 1.377 . S
C1980 C1982 1.384 . S
C1981 C1980 1.377 . S
C1981 C1987 1.390 . S
C1982 H1973 0.930 . S
C1982 C1980 1.384 . S
C1982 C1983 1.372 . S
C1983 C1982 1.372 . S
C1983 C1984 1.400 . S
C1983 C1988 1.490 . S
C1984 H1974 0.930 . S
C1984 C1983 1.400 . S
C1984 C1987 1.386 . S
H1985 C2001 0.930 . S
H1986 C2002 0.931 . S
C1987 H1975 0.929 . S
C1987 C1981 1.390 . S
C1987 C1984 1.386 . S
C1988 C1983 1.490 . S
C1988 C1990 1.395 . S
C1988 C1991 1.403 . S
H1989 C1995 0.930 . S
C1990 H1976 0.930 . S
C1990 C1988 1.395 . S
C1990 C1993 1.403 . S
C1991 C1988 1.403 . S
C1991 C1992 1.524 . S
C1991 C1995 1.400 . S
C1992 H1977 0.960 . S
C1992 H1978 0.960 . S
C1992 H1979 0.960 . S
C1992 C1991 1.524 . S
C1993 C1990 1.403 . S
C1993 C1994 1.392 . S
C1993 C1997 1.495 . S
C1994 C1993 1.392 . S
C1994 C1995 1.385 . S
C1994 C1996 1.478 . S
C1995 H1989 0.930 . S
C1995 C1991 1.400 . S
C1995 C1994 1.385 . S
C1996 C1994 1.478 . S
C1996 C1998 1.381 . S
C1996 C2002 1.383 . S
C1997 C1993 1.495 . S
C1997 H2003 0.959 . S
C1997 H2004 0.961 . S
C1997 H2005 0.960 . S
C1998 C1996 1.381 . S
C1998 C1999 1.394 . S
C1998 H2006 0.930 . S
C1999 C1998 1.394 . S
C1999 C2000 1.383 . S
C1999 H2007 0.929 . S
C2000 C1999 1.383 . S
C2000 C2001 1.377 . S
C2001 H1985 0.930 . S
C2001 C2000 1.377 . S
C2001 C2002 1.379 . S
C2002 H1986 0.931 . S
C2002 C1996 1.383 . S
C2002 C2001 1.379 . S
H2003 C1997 0.959 . S
H2004 C1997 0.961 . S
H2005 C1997 0.960 . S
H2006 C1998 0.930 . S
H2007 C1999 0.929 . S
H2008 C2016 0.929 . S
H2009 C2018 0.930 1_554 S
H2010 C2020 0.930 . S
H2011 C2023 0.929 . S
H2012 C2026 0.930 . S
H2013 C2028 0.960 . S
H2014 C2028 0.960 . S
H2015 C2028 0.960 . S
C2016 H2008 0.929 . S
C2016 C2017 1.377 . S
C2016 C2018 1.384 . S
C2017 C2016 1.377 . S
C2017 C2023 1.390 . S
C2018 H2009 0.930 1_556 S
C2018 C2016 1.384 . S
C2018 C2019 1.372 . S
C2019 C2018 1.372 . S
C2019 C2020 1.400 . S
C2019 C2024 1.490 . S
C2020 H2010 0.930 . S
C2020 C2019 1.400 . S
C2020 C2023 1.386 . S
H2021 C2037 0.930 . S
H2022 C2038 0.931 1_556 S
C2023 H2011 0.929 . S
C2023 C2017 1.390 . S
C2023 C2020 1.386 . S
C2024 C2019 1.490 . S
C2024 C2026 1.395 1_556 S
C2024 C2027 1.403 . S
H2025 C2031 0.930 . S
C2026 H2012 0.930 . S
C2026 C2024 1.395 1_554 S
C2026 C2029 1.403 . S
C2027 C2024 1.403 . S
C2027 C2028 1.524 . S
C2027 C2031 1.400 . S
C2028 H2013 0.960 . S
C2028 H2014 0.960 . S
C2028 H2015 0.960 . S
C2028 C2027 1.524 . S
C2029 C2026 1.403 . S
C2029 C2030 1.392 . S
C2029 C2033 1.495 . S
C2030 C2029 1.392 . S
C2030 C2031 1.385 1_554 S
C2030 C2032 1.478 . S
C2031 H2025 0.930 . S
C2031 C2027 1.400 . S
C2031 C2030 1.385 1_556 S
C2032 C2030 1.478 . S
C2032 C2034 1.381 . S
C2032 C2038 1.383 . S
C2033 C2029 1.495 . S
C2033 H2039 0.959 . S
C2033 H2040 0.961 . S
C2033 H2041 0.960 . S
C2034 C2032 1.381 . S
C2034 C2035 1.394 . S
C2034 H2042 0.930 . S
C2035 C2034 1.394 . S
C2035 C2036 1.383 . S
C2035 H2043 0.929 . S
C2036 C2035 1.383 . S
C2036 C2037 1.377 . S
C2037 H2021 0.930 . S
C2037 C2036 1.377 . S
C2037 C2038 1.379 . S
C2038 H2022 0.931 1_554 S
C2038 C2032 1.383 . S
C2038 C2037 1.379 . S
H2039 C2033 0.959 . S
H2040 C2033 0.961 . S
H2041 C2033 0.960 . S
H2042 C2034 0.930 . S
H2043 C2035 0.929 . S
H2044 C2052 0.929 . S
H2045 C2054 0.930 . S
H2046 C2056 0.930 . S
H2047 C2059 0.929 . S
H2048 C2062 0.930 . S
H2049 C2064 0.960 . S
H2050 C2064 0.960 . S
H2051 C2064 0.960 . S
C2052 H2044 0.929 . S
C2052 C2053 1.377 . S
C2052 C2054 1.384 . S
C2053 C2052 1.377 . S
C2053 C2059 1.390 . S
C2054 H2045 0.930 . S
C2054 C2052 1.384 . S
C2054 C2055 1.372 . S
C2055 C2054 1.372 . S
C2055 C2056 1.400 . S
C2055 C2060 1.490 . S
C2056 H2046 0.930 . S
C2056 C2055 1.400 . S
C2056 C2059 1.386 . S
H2057 C2073 0.930 . S
H2058 C2074 0.931 . S
C2059 H2047 0.929 . S
C2059 C2053 1.390 . S
C2059 C2056 1.386 . S
C2060 C2055 1.490 . S
C2060 C2062 1.395 . S
C2060 C2063 1.403 . S
H2061 C2067 0.930 . S
C2062 H2048 0.930 . S
C2062 C2060 1.395 . S
C2062 C2065 1.403 . S
C2063 C2060 1.403 . S
C2063 C2064 1.524 . S
C2063 C2067 1.400 . S
C2064 H2049 0.960 . S
C2064 H2050 0.960 . S
C2064 H2051 0.960 . S
C2064 C2063 1.524 . S
C2065 C2062 1.403 . S
C2065 C2066 1.392 . S
C2065 C2069 1.495 . S
C2066 C2065 1.392 . S
C2066 C2067 1.385 . S
C2066 C2068 1.478 . S
C2067 H2061 0.930 . S
C2067 C2063 1.400 . S
C2067 C2066 1.385 . S
C2068 C2066 1.478 . S
C2068 C2070 1.381 . S
C2068 C2074 1.383 . S
C2069 C2065 1.495 . S
C2069 H2075 0.959 . S
C2069 H2076 0.961 . S
C2069 H2077 0.960 . S
C2070 C2068 1.381 . S
C2070 C2071 1.394 . S
C2070 H2078 0.930 . S
C2071 C2070 1.394 . S
C2071 C2072 1.383 . S
C2071 H2079 0.929 . S
C2072 C2071 1.383 . S
C2072 C2073 1.377 . S
C2073 H2057 0.930 . S
C2073 C2072 1.377 . S
C2073 C2074 1.379 . S
C2074 H2058 0.931 . S
C2074 C2068 1.383 . S
C2074 C2073 1.379 . S
H2075 C2069 0.959 . S
H2076 C2069 0.961 . S
H2077 C2069 0.960 . S
H2078 C2070 0.930 . S
H2079 C2071 0.929 . S
C361 C8 1.517 . S
C380 C70 1.519 . S
C397 C52 1.518 . S
C416 C30 1.518 . S
C433 C158 1.519 . S
C452 C96 1.516 . S
C469 C114 1.519 . S
C488 C136 1.518 . S
C505 C246 1.517 . S
C524 C184 1.519 . S
C541 C228 1.518 . S
C560 C206 1.517 . S
C577 C272 1.519 . S
C596 C334 1.513 . S
C613 C312 1.518 . S
C632 C290 1.519 . S
C649 C5 1.476 . S
C668 C336 1.569 . S
C685 C27 1.484 . S
C704 C314 1.567 . S
C721 C292 1.579 . S
C740 C49 1.441 . S
C757 C271 1.577 . S
C776 C75 1.509 . S
C793 C94 1.471 . S
C812 C247 1.566 . S
C829 C117 1.476 . S
C848 C229 1.574 . S
C865 C207 1.578 . S
C884 C139 1.484 . S
C901 C185 1.577 . S
C920 C161 1.461 . S
C937 C181 1.472 . S
C956 C160 1.574 . S
C973 C203 1.480 . S
C992 C138 1.566 . S
C1009 C225 1.471 . S
C1028 C116 1.582 . S
C1045 C251 1.482 . S
C1064 C95 1.576 . S
C1081 C71 1.576 . S
C1100 C270 1.449 . S
C1117 C53 1.579 . S
C1136 C293 1.488 . S
C1153 C315 1.484 . S
C1172 C31 1.582 . S
C1189 C337 1.484 . S
C1208 C9 1.583 . S
C1225 C6 1.423 . S
C1244 C141 1.409 . S
C1261 C28 1.422 . S
C1280 C163 1.411 . S
C1297 C93 1.428 . S
C1316 C50 1.419 . S
C1333 C73 1.426 . S
C1352 C119 1.431 . S
C1369 C182 1.422 . S
C1388 C317 1.439 . S
C1405 C204 1.421 . S
C1424 C339 1.416 . S
C1441 C226 1.425 . S
C1460 C269 1.434 . S
C1477 C295 1.427 . S
C1496 C249 1.406 . S
C1513 C4 1.538 . S
C1532 C48 1.511 . S
C1549 C26 1.530 . S
C1568 C74 1.549 . S
C1585 C140 1.530 . S
C1604 C92 1.523 . S
C1621 C118 1.530 . S
C1640 C162 1.511 . S
C1657 C180 1.535 . S
C1676 C224 1.521 . S
C1693 C250 1.535 . S
C1712 C202 1.521 . S
C1729 C268 1.538 . S
C1748 C316 1.548 . S
C1765 C294 1.532 . S
C1784 C338 1.510 . S
C1801 C7 0.704 . S
C1820 C273 0.704 . S
C1837 C29 0.727 . S
C1856 C291 0.703 . S
C1873 C51 0.710 . S
C1892 C313 0.652 . S
C1909 C72 0.729 . S
C1928 C335 0.768 . S
C1945 C97 0.704 . S
C1964 C183 0.703 . S
C1981 C205 0.708 . S
C2000 C115 0.739 . S
C2017 C227 0.707 . S
C2036 C137 0.729 . S
C2053 C248 0.725 . S
C2072 C159 0.692 . S
