# Generated by pormake.
# Topology wio, (6)-cn, num edge types: 1
# Building blocks:
#     Node 0, Type 0, BuildingBlock: HISSIN_clean_sbu_0, # of connection points: 6
#     Node 1, Type 0, BuildingBlock: HISSIN_clean_sbu_0, # of connection points: 6
#     Node 2, Type 0, BuildingBlock: HISSIN_clean_sbu_0, # of connection points: 6
#     Node 3, Type 0, BuildingBlock: HISSIN_clean_sbu_0, # of connection points: 6
#     Node 4, Type 0, BuildingBlock: HISSIN_clean_sbu_0, # of connection points: 6
#     Node 5, Type 0, BuildingBlock: HISSIN_clean_sbu_0, # of connection points: 6
#     Node 6, Type 0, BuildingBlock: HISSIN_clean_sbu_0, # of connection points: 6
#     Node 7, Type 0, BuildingBlock: HISSIN_clean_sbu_0, # of connection points: 6
#     Node 8, Type 0, BuildingBlock: HISSIN_clean_sbu_0, # of connection points: 6
#     Node 9, Type 0, BuildingBlock: HISSIN_clean_sbu_0, # of connection points: 6
#     Node 10, Type 0, BuildingBlock: HISSIN_clean_sbu_0, # of connection points: 6
#     Node 11, Type 0, BuildingBlock: HISSIN_clean_sbu_0, # of connection points: 6
#     Node 12, Type 0, BuildingBlock: HISSIN_clean_sbu_0, # of connection points: 6
#     Node 13, Type 0, BuildingBlock: HISSIN_clean_sbu_0, # of connection points: 6
#     Node 14, Type 0, BuildingBlock: HISSIN_clean_sbu_0, # of connection points: 6
#     Node 15, Type 0, BuildingBlock: HISSIN_clean_sbu_0, # of connection points: 6
#     Node 16, Type 0, BuildingBlock: HISSIN_clean_sbu_0, # of connection points: 6
#     Node 17, Type 0, BuildingBlock: HISSIN_clean_sbu_0, # of connection points: 6
#     Node 18, Type 0, BuildingBlock: HISSIN_clean_sbu_0, # of connection points: 6
#     Node 19, Type 0, BuildingBlock: HISSIN_clean_sbu_0, # of connection points: 6
#     Node 20, Type 0, BuildingBlock: HISSIN_clean_sbu_0, # of connection points: 6
#     Node 21, Type 0, BuildingBlock: HISSIN_clean_sbu_0, # of connection points: 6
#     Node 22, Type 0, BuildingBlock: HISSIN_clean_sbu_0, # of connection points: 6
#     Node 23, Type 0, BuildingBlock: HISSIN_clean_sbu_0, # of connection points: 6
#     Node 24, Type 0, BuildingBlock: HISSIN_clean_sbu_0, # of connection points: 6
#     Node 25, Type 0, BuildingBlock: HISSIN_clean_sbu_0, # of connection points: 6
#     Node 26, Type 0, BuildingBlock: HISSIN_clean_sbu_0, # of connection points: 6
#     Node 27, Type 0, BuildingBlock: HISSIN_clean_sbu_0, # of connection points: 6
#     Node 28, Type 0, BuildingBlock: HISSIN_clean_sbu_0, # of connection points: 6
#     Node 29, Type 0, BuildingBlock: HISSIN_clean_sbu_0, # of connection points: 6
#     Node 30, Type 0, BuildingBlock: HISSIN_clean_sbu_0, # of connection points: 6
#     Node 31, Type 0, BuildingBlock: HISSIN_clean_sbu_0, # of connection points: 6
#     Edge 32, Type (0, 0), BuildingBlock: CIFDUS_clean_linker_0, # of connection points: 2
#     Edge 33, Type (0, 0), BuildingBlock: CIFDUS_clean_linker_0, # of connection points: 2
#     Edge 34, Type (0, 0), BuildingBlock: CIFDUS_clean_linker_0, # of connection points: 2
#     Edge 35, Type (0, 0), BuildingBlock: CIFDUS_clean_linker_0, # of connection points: 2
#     Edge 36, Type (0, 0), BuildingBlock: CIFDUS_clean_linker_0, # of connection points: 2
#     Edge 37, Type (0, 0), BuildingBlock: CIFDUS_clean_linker_0, # of connection points: 2
#     Edge 38, Type (0, 0), BuildingBlock: CIFDUS_clean_linker_0, # of connection points: 2
#     Edge 39, Type (0, 0), BuildingBlock: CIFDUS_clean_linker_0, # of connection points: 2
#     Edge 40, Type (0, 0), BuildingBlock: CIFDUS_clean_linker_0, # of connection points: 2
#     Edge 41, Type (0, 0), BuildingBlock: CIFDUS_clean_linker_0, # of connection points: 2
#     Edge 42, Type (0, 0), BuildingBlock: CIFDUS_clean_linker_0, # of connection points: 2
#     Edge 43, Type (0, 0), BuildingBlock: CIFDUS_clean_linker_0, # of connection points: 2
#     Edge 44, Type (0, 0), BuildingBlock: CIFDUS_clean_linker_0, # of connection points: 2
#     Edge 45, Type (0, 0), BuildingBlock: CIFDUS_clean_linker_0, # of connection points: 2
#     Edge 46, Type (0, 0), BuildingBlock: CIFDUS_clean_linker_0, # of connection points: 2
#     Edge 47, Type (0, 0), BuildingBlock: CIFDUS_clean_linker_0, # of connection points: 2
#     Edge 48, Type (0, 0), BuildingBlock: CIFDUS_clean_linker_0, # of connection points: 2
#     Edge 49, Type (0, 0), BuildingBlock: CIFDUS_clean_linker_0, # of connection points: 2
#     Edge 50, Type (0, 0), BuildingBlock: CIFDUS_clean_linker_0, # of connection points: 2
#     Edge 51, Type (0, 0), BuildingBlock: CIFDUS_clean_linker_0, # of connection points: 2
#     Edge 52, Type (0, 0), BuildingBlock: CIFDUS_clean_linker_0, # of connection points: 2
#     Edge 53, Type (0, 0), BuildingBlock: CIFDUS_clean_linker_0, # of connection points: 2
#     Edge 54, Type (0, 0), BuildingBlock: CIFDUS_clean_linker_0, # of connection points: 2
#     Edge 55, Type (0, 0), BuildingBlock: CIFDUS_clean_linker_0, # of connection points: 2
#     Edge 56, Type (0, 0), BuildingBlock: CIFDUS_clean_linker_0, # of connection points: 2
#     Edge 57, Type (0, 0), BuildingBlock: CIFDUS_clean_linker_0, # of connection points: 2
#     Edge 58, Type (0, 0), BuildingBlock: CIFDUS_clean_linker_0, # of connection points: 2
#     Edge 59, Type (0, 0), BuildingBlock: CIFDUS_clean_linker_0, # of connection points: 2
#     Edge 60, Type (0, 0), BuildingBlock: CIFDUS_clean_linker_0, # of connection points: 2
#     Edge 61, Type (0, 0), BuildingBlock: CIFDUS_clean_linker_0, # of connection points: 2
#     Edge 62, Type (0, 0), BuildingBlock: CIFDUS_clean_linker_0, # of connection points: 2
#     Edge 63, Type (0, 0), BuildingBlock: CIFDUS_clean_linker_0, # of connection points: 2
#     Edge 64, Type (0, 0), BuildingBlock: CIFDUS_clean_linker_0, # of connection points: 2
#     Edge 65, Type (0, 0), BuildingBlock: CIFDUS_clean_linker_0, # of connection points: 2
#     Edge 66, Type (0, 0), BuildingBlock: CIFDUS_clean_linker_0, # of connection points: 2
#     Edge 67, Type (0, 0), BuildingBlock: CIFDUS_clean_linker_0, # of connection points: 2
#     Edge 68, Type (0, 0), BuildingBlock: CIFDUS_clean_linker_0, # of connection points: 2
#     Edge 69, Type (0, 0), BuildingBlock: CIFDUS_clean_linker_0, # of connection points: 2
#     Edge 70, Type (0, 0), BuildingBlock: CIFDUS_clean_linker_0, # of connection points: 2
#     Edge 71, Type (0, 0), BuildingBlock: CIFDUS_clean_linker_0, # of connection points: 2
#     Edge 72, Type (0, 0), BuildingBlock: CIFDUS_clean_linker_0, # of connection points: 2
#     Edge 73, Type (0, 0), BuildingBlock: CIFDUS_clean_linker_0, # of connection points: 2
#     Edge 74, Type (0, 0), BuildingBlock: CIFDUS_clean_linker_0, # of connection points: 2
#     Edge 75, Type (0, 0), BuildingBlock: CIFDUS_clean_linker_0, # of connection points: 2
#     Edge 76, Type (0, 0), BuildingBlock: CIFDUS_clean_linker_0, # of connection points: 2
#     Edge 77, Type (0, 0), BuildingBlock: CIFDUS_clean_linker_0, # of connection points: 2
#     Edge 78, Type (0, 0), BuildingBlock: CIFDUS_clean_linker_0, # of connection points: 2
#     Edge 79, Type (0, 0), BuildingBlock: CIFDUS_clean_linker_0, # of connection points: 2
#     Edge 80, Type (0, 0), BuildingBlock: CIFDUS_clean_linker_0, # of connection points: 2
#     Edge 81, Type (0, 0), BuildingBlock: CIFDUS_clean_linker_0, # of connection points: 2
#     Edge 82, Type (0, 0), BuildingBlock: CIFDUS_clean_linker_0, # of connection points: 2
#     Edge 83, Type (0, 0), BuildingBlock: CIFDUS_clean_linker_0, # of connection points: 2
#     Edge 84, Type (0, 0), BuildingBlock: CIFDUS_clean_linker_0, # of connection points: 2
#     Edge 85, Type (0, 0), BuildingBlock: CIFDUS_clean_linker_0, # of connection points: 2
#     Edge 86, Type (0, 0), BuildingBlock: CIFDUS_clean_linker_0, # of connection points: 2
#     Edge 87, Type (0, 0), BuildingBlock: CIFDUS_clean_linker_0, # of connection points: 2
#     Edge 88, Type (0, 0), BuildingBlock: CIFDUS_clean_linker_0, # of connection points: 2
#     Edge 89, Type (0, 0), BuildingBlock: CIFDUS_clean_linker_0, # of connection points: 2
#     Edge 90, Type (0, 0), BuildingBlock: CIFDUS_clean_linker_0, # of connection points: 2
#     Edge 91, Type (0, 0), BuildingBlock: CIFDUS_clean_linker_0, # of connection points: 2
#     Edge 92, Type (0, 0), BuildingBlock: CIFDUS_clean_linker_0, # of connection points: 2
#     Edge 93, Type (0, 0), BuildingBlock: CIFDUS_clean_linker_0, # of connection points: 2
#     Edge 94, Type (0, 0), BuildingBlock: CIFDUS_clean_linker_0, # of connection points: 2
#     Edge 95, Type (0, 0), BuildingBlock: CIFDUS_clean_linker_0, # of connection points: 2
#     Edge 96, Type (0, 0), BuildingBlock: CIFDUS_clean_linker_0, # of connection points: 2
#     Edge 97, Type (0, 0), BuildingBlock: CIFDUS_clean_linker_0, # of connection points: 2
#     Edge 98, Type (0, 0), BuildingBlock: CIFDUS_clean_linker_0, # of connection points: 2
#     Edge 99, Type (0, 0), BuildingBlock: CIFDUS_clean_linker_0, # of connection points: 2
#     Edge 100, Type (0, 0), BuildingBlock: CIFDUS_clean_linker_0, # of connection points: 2
#     Edge 101, Type (0, 0), BuildingBlock: CIFDUS_clean_linker_0, # of connection points: 2
#     Edge 102, Type (0, 0), BuildingBlock: CIFDUS_clean_linker_0, # of connection points: 2
#     Edge 103, Type (0, 0), BuildingBlock: CIFDUS_clean_linker_0, # of connection points: 2
#     Edge 104, Type (0, 0), BuildingBlock: CIFDUS_clean_linker_0, # of connection points: 2
#     Edge 105, Type (0, 0), BuildingBlock: CIFDUS_clean_linker_0, # of connection points: 2
#     Edge 106, Type (0, 0), BuildingBlock: CIFDUS_clean_linker_0, # of connection points: 2
#     Edge 107, Type (0, 0), BuildingBlock: CIFDUS_clean_linker_0, # of connection points: 2
#     Edge 108, Type (0, 0), BuildingBlock: CIFDUS_clean_linker_0, # of connection points: 2
#     Edge 109, Type (0, 0), BuildingBlock: CIFDUS_clean_linker_0, # of connection points: 2
#     Edge 110, Type (0, 0), BuildingBlock: CIFDUS_clean_linker_0, # of connection points: 2
#     Edge 111, Type (0, 0), BuildingBlock: CIFDUS_clean_linker_0, # of connection points: 2
#     Edge 112, Type (0, 0), BuildingBlock: CIFDUS_clean_linker_0, # of connection points: 2
#     Edge 113, Type (0, 0), BuildingBlock: CIFDUS_clean_linker_0, # of connection points: 2
#     Edge 114, Type (0, 0), BuildingBlock: CIFDUS_clean_linker_0, # of connection points: 2
#     Edge 115, Type (0, 0), BuildingBlock: CIFDUS_clean_linker_0, # of connection points: 2
#     Edge 116, Type (0, 0), BuildingBlock: CIFDUS_clean_linker_0, # of connection points: 2
#     Edge 117, Type (0, 0), BuildingBlock: CIFDUS_clean_linker_0, # of connection points: 2
#     Edge 118, Type (0, 0), BuildingBlock: CIFDUS_clean_linker_0, # of connection points: 2
#     Edge 119, Type (0, 0), BuildingBlock: CIFDUS_clean_linker_0, # of connection points: 2
#     Edge 120, Type (0, 0), BuildingBlock: CIFDUS_clean_linker_0, # of connection points: 2
#     Edge 121, Type (0, 0), BuildingBlock: CIFDUS_clean_linker_0, # of connection points: 2
#     Edge 122, Type (0, 0), BuildingBlock: CIFDUS_clean_linker_0, # of connection points: 2
#     Edge 123, Type (0, 0), BuildingBlock: CIFDUS_clean_linker_0, # of connection points: 2
#     Edge 124, Type (0, 0), BuildingBlock: CIFDUS_clean_linker_0, # of connection points: 2
#     Edge 125, Type (0, 0), BuildingBlock: CIFDUS_clean_linker_0, # of connection points: 2
#     Edge 126, Type (0, 0), BuildingBlock: CIFDUS_clean_linker_0, # of connection points: 2
#     Edge 127, Type (0, 0), BuildingBlock: CIFDUS_clean_linker_0, # of connection points: 2
# Relax obj value: 0.188
# Max RMSD: 0.232
# Mean RMSD: 0.232
data_MOF--net-wio--node1-HISSIN_clean_sbu_0--edge1-CIFDUS_clean_linker_0
_symmetry_space_group_name_H-M    P1
_symmetry_Int_Tables_number       1
_symmetry_cell_setting            triclinic
loop_
_symmetry_equiv_pos_as_xyz
'x, y, z'
_cell_length_a     57.197511
_cell_length_b     57.192619
_cell_length_c     48.700705
_cell_angle_alpha  89.943326
_cell_angle_beta   89.9724
_cell_angle_gamma 90.00889
loop_
_atom_site_label
_atom_site_type_symbol
_atom_site_fract_x
_atom_site_fract_y
_atom_site_fract_z
_atom_type_partial_charge
Eu0 Eu 0.16204 0.12506 0.28536 0.0
Eu1 Eu 0.10502 0.12276 0.29792 0.0
C2 C 0.13395 0.07706 0.27841 0.0
C3 C 0.22339 0.13054 0.25151 0.0
C4 C 0.24465 0.11847 0.25386 0.0
C5 C 0.23617 0.14582 0.20732 0.0
C6 C 0.26159 0.12013 0.23325 0.0
C7 C 0.21915 0.14403 0.2279 0.0
C8 C 0.25768 0.13405 0.20988 0.0
C9 C 0.20665 0.12975 0.27458 0.0
O10 O 0.12182 0.11514 0.33887 0.0
O11 O 0.15861 0.10406 0.32435 0.0
C12 C 0.14187 0.10434 0.34293 0.0
O13 O 0.15406 0.15126 0.31858 0.0
O14 O 0.07276 0.10439 0.30809 0.0
O15 O 0.07181 0.14169 0.30112 0.0
O16 O 0.11753 0.15985 0.30361 0.0
C17 C 0.1359 0.16516 0.31838 0.0
O18 O 0.14364 0.14001 0.24808 0.0
O19 O 0.10855 0.12101 0.25189 0.0
O20 O 0.11691 0.08556 0.29348 0.0
O21 O 0.19219 0.14727 0.27717 0.0
O22 O 0.1968 0.10968 0.27993 0.0
O23 O 0.15031 0.09051 0.2678 0.0
C24 C 0.04562 0.12642 0.3345 0.0
C25 C 0.02864 0.14413 0.33505 0.0
C26 C 0.03302 0.11404 0.38006 0.0
C27 C 0.01396 0.14677 0.35783 0.0
C28 C 0.04784 0.11153 0.35737 0.0
C29 C 0.01582 0.13159 0.38047 0.0
C30 C 0.06033 0.12341 0.30973 0.0
C31 C 0.12445 0.13162 0.23694 0.0
H32 H 0.24832 0.10806 0.27195 0.0
H33 H 0.23249 0.1564 0.18938 0.0
H34 H 0.27802 0.11101 0.23595 0.0
H35 H 0.20283 0.15342 0.22548 0.0
H36 H 0.02653 0.15578 0.31767 0.0
H37 H 0.03503 0.10223 0.3973 0.0
H38 H 1.00071 0.16029 0.3574 0.0
H39 H 0.06087 0.09779 0.3577 0.0
Eu40 Eu 0.14158 0.91179 0.53562 0.0
Eu41 Eu 0.13923 0.85523 0.54949 0.0
C42 C 0.1867 0.87982 0.53007 0.0
C43 C 0.13825 0.97427 0.5033 0.0
C44 C 0.15124 0.97293 0.47887 0.0
C45 C 0.121 0.0107 0.48748 0.0
C46 C 0.14919 0.99051 0.45894 0.0
C47 C 0.12312 0.99324 0.50737 0.0
C48 C 0.13405 0.00961 0.46307 0.0
C49 C 0.14039 0.9567 0.52533 0.0
O50 O 0.14909 0.87172 0.58995 0.0
O51 O 0.16267 0.90743 0.57452 0.0
C52 C 0.16105 0.89116 0.59362 0.0
O53 O 0.11497 0.90592 0.56886 0.0
O54 O 0.15362 0.81982 0.54917 0.0
O55 O 0.11845 0.82564 0.56394 0.0
O56 O 0.10297 0.87036 0.55413 0.0
C57 C 0.09932 0.88925 0.5687 0.0
O58 O 0.12397 0.89495 0.49896 0.0
O59 O 0.13984 0.85837 0.50331 0.0
O60 O 0.17736 0.8651 0.54765 0.0
O61 O 0.12187 0.94417 0.53061 0.0
O62 O 0.1597 0.94461 0.527 0.0
O63 O 0.17414 0.89575 0.51736 0.0
C64 C 0.13938 0.79454 0.58451 0.0
C65 C 0.1205 0.78144 0.59463 0.0
C66 C 0.1648 0.77552 0.61785 0.0
C67 C 0.12368 0.76555 0.61611 0.0
C68 C 0.16157 0.79156 0.59643 0.0
C69 C 0.14588 0.76228 0.62787 0.0
C70 C 0.13543 0.81065 0.5612 0.0
C71 C 0.13046 0.87491 0.4882 0.0
H72 H 0.16298 0.9584 0.47522 0.0
H73 H 0.10941 0.02528 0.49146 0.0
H74 H 0.15928 0.98904 0.4402 0.0
H75 H 0.11304 0.99466 0.52615 0.0
H76 H 0.10326 0.78331 0.58569 0.0
H77 H 0.18208 0.7735 0.62662 0.0
H78 H 0.10883 0.75539 0.62305 0.0
H79 H 0.17647 0.80148 0.58913 0.0
Eu80 Eu 0.35505 0.89402 0.7837 0.0
Eu81 Eu 0.41198 0.88472 0.79314 0.0
C82 C 0.39239 0.93464 0.77377 0.0
C83 C 0.29413 0.90042 0.75005 0.0
C84 C 0.28948 0.92191 0.73709 0.0
C85 C 0.26614 0.88168 0.7195 0.0
C86 C 0.27339 0.92324 0.71553 0.0
C87 C 0.28221 0.88035 0.74106 0.0
C88 C 0.26146 0.90315 0.70654 0.0
C89 C 0.31036 0.89907 0.77374 0.0
O90 O 0.3995 0.89996 0.8335 0.0
O91 O 0.36321 0.91467 0.82165 0.0
C92 C 0.38102 0.91306 0.83861 0.0
O93 O 0.35893 0.8679 0.81778 0.0
O94 O 0.44925 0.8922 0.78786 0.0
O95 O 0.43842 0.86182 0.81111 0.0
O96 O 0.39195 0.85128 0.80074 0.0
C97 C 0.37363 0.85039 0.81692 0.0
O98 O 0.3675 0.8717 0.74846 0.0
O99 O 0.40623 0.8819 0.74713 0.0
O100 O 0.40783 0.9236 0.78892 0.0
O101 O 0.32028 0.87893 0.77858 0.0
O102 O 0.3247 0.91652 0.77748 0.0
O103 O 0.37382 0.92416 0.76367 0.0
C104 C 0.47295 0.88048 0.82587 0.0
C105 C 0.48682 0.86234 0.83638 0.0
C106 C 0.49118 0.90728 0.85832 0.0
C107 C 0.50265 0.86654 0.8577 0.0
C108 C 0.47518 0.90301 0.83709 0.0
C109 C 0.50506 0.88905 0.86895 0.0
C110 C 0.45584 0.87517 0.80397 0.0
C111 C 0.3873 0.87383 0.73506 0.0
H112 H 0.29808 0.93779 0.74377 0.0
H113 H 0.25749 0.86581 0.71287 0.0
H114 H 0.26997 0.94011 0.70626 0.0
H115 H 0.28519 0.86357 0.75079 0.0
H116 H 0.48535 0.84481 0.82811 0.0
H117 H 0.49247 0.92477 0.86669 0.0
H118 H 0.51326 0.85218 0.86513 0.0
H119 H 0.46448 0.91728 0.8296 0.0
Eu120 Eu 0.37139 0.10276 0.03341 0.0
Eu121 Eu 0.37641 0.15988 0.04399 0.0
C122 C 0.32645 0.13688 0.02925 0.0
C123 C 0.37077 0.04197 0.99987 0.0
C124 C 0.36939 0.05071 0.973 0.0
C125 C 0.37122 1.00239 0.98197 0.0
C126 C 0.36888 0.03531 0.95069 0.0
C127 C 0.37169 0.01779 1.00422 0.0
C128 C 0.36979 0.01096 0.95494 0.0
C129 C 0.37154 0.05779 1.02355 0.0
O130 O 0.36302 0.14595 0.08459 0.0
O131 O 0.35355 0.10759 0.0741 0.0
C132 C 0.35321 0.12572 0.09071 0.0
O133 O 0.3996 0.1092 0.0646 0.0
O134 O 0.36738 0.19701 0.0398 0.0
O135 O 0.3986 0.18666 0.06187 0.0
O136 O 0.41163 0.14224 0.04385 0.0
C137 C 0.41578 0.12496 0.06075 0.0
O138 O 0.38614 0.11816 0.99409 0.0
O139 O 0.37442 0.15642 0.99801 0.0
O140 O 0.33778 0.15369 0.04192 0.0
O141 O 0.39045 0.07036 1.02607 0.0
O142 O 0.35263 0.06979 0.02853 0.0
O143 O 0.33673 0.11782 1.01999 0.0
C144 C 0.37904 0.22051 0.07767 0.0
C145 C 0.38173 0.21438 0.10548 0.0
C146 C 0.36841 0.2599 0.09158 0.0
C147 C 0.37827 0.23102 0.1261 0.0
C148 C 0.37211 0.24332 0.07094 0.0
C149 C 0.37177 0.25402 0.11935 0.0
C150 C 0.38456 0.20378 0.05552 0.0
C151 C 0.38132 0.13861 0.98305 0.0
H152 H 0.3688 0.06939 0.96931 0.0
H153 H 0.37165 0.98376 0.98595 0.0
H154 H 0.36803 0.04247 0.93012 0.0
H155 H 0.37275 0.01079 1.02487 0.0
H156 H 0.38689 0.19683 0.11129 0.0
H157 H 0.36357 0.27753 0.08576 0.0
H158 H 0.38071 0.22593 0.14734 0.0
H159 H 0.37 0.24843 0.04966 0.0
Eu160 Eu 0.15853 0.89056 0.27287 0.0
Eu161 Eu 0.10061 0.89334 0.26606 0.0
C162 C 0.1297 0.93783 0.2862 0.0
C163 C 0.22025 0.88906 0.30467 0.0
C164 C 0.22357 0.91072 0.31771 0.0
C165 C 0.24888 0.87172 0.33555 0.0
C166 C 0.23944 0.91284 0.33947 0.0
C167 C 0.23315 0.86966 0.31372 0.0
C168 C 0.25226 0.89334 0.34875 0.0
C169 C 0.20351 0.88613 0.28175 0.0
O170 O 0.11537 0.91495 0.23161 0.0
O171 O 0.15318 0.9011 0.22845 0.0
C172 C 0.13554 0.91348 0.21873 0.0
O173 O 0.14643 0.85533 0.25772 0.0
O174 O 0.0681 0.91287 0.26255 0.0
O175 O 0.06722 0.87498 0.26161 0.0
O176 O 0.11314 0.86649 0.23558 0.0
C177 C 0.13032 0.85165 0.23909 0.0
O178 O 0.14388 0.88994 0.31586 0.0
O179 O 0.10675 0.87637 0.30735 0.0
O180 O 0.1107 0.92535 0.29018 0.0
O181 O 0.18856 0.86906 0.28419 0.0
O182 O 0.19399 0.90483 0.27126 0.0
O183 O 0.14909 0.9286 0.27665 0.0
C184 C 0.03975 0.8951 0.23364 0.0
C185 C 0.02288 0.87754 0.23004 0.0
C186 C 0.02548 0.9143 0.19226 0.0
C187 C 0.00743 0.87834 0.20778 0.0
C188 C 0.04106 0.91338 0.21435 0.0
C189 C 0.0084 0.89687 0.18882 0.0
C190 C 0.05549 0.8943 0.25775 0.0
C191 C 0.12395 0.88111 0.32437 0.0
H192 H 0.21392 0.92604 0.31118 0.0
H193 H 0.25808 0.85623 0.34236 0.0
H194 H 0.24179 0.92983 0.34887 0.0
H195 H 0.23092 0.85277 0.30401 0.0
H196 H 0.0215 0.86329 0.24463 0.0
H197 H 0.02682 0.92865 0.17781 0.0
H198 H 0.99432 0.86477 0.20581 0.0
H199 H 0.054 0.92711 0.21636 0.0
Eu200 Eu 0.3694 0.90918 0.5221 0.0
Eu201 Eu 0.37102 0.85164 0.51378 0.0
C202 C 0.32546 0.87808 0.53672 0.0
C203 C 0.37215 0.97258 0.55044 0.0
C204 C 0.36137 0.97009 0.57619 0.0
C205 C 0.3875 0.01031 0.56461 0.0
C206 C 0.36354 0.98773 0.59596 0.0
C207 C 0.38521 0.99278 0.54485 0.0
C208 C 0.37665 0.00803 0.59038 0.0
C209 C 0.37013 0.95459 0.52896 0.0
O210 O 0.36203 0.86618 0.47197 0.0
O211 O 0.34651 0.90152 0.48539 0.0
C212 C 0.34876 0.88457 0.4673 0.0
O213 O 0.39528 0.90224 0.48831 0.0
O214 O 0.35328 0.81866 0.50512 0.0
O215 O 0.3903 0.81863 0.51398 0.0
O216 O 0.40624 0.86514 0.50028 0.0
C217 C 0.40992 0.88465 0.48678 0.0
O218 O 0.39092 0.89456 0.55694 0.0
O219 O 0.37424 0.85827 0.5596 0.0
O220 O 0.33348 0.86207 0.51994 0.0
O221 O 0.38873 0.94204 0.52429 0.0
O222 O 0.35096 0.94222 0.5281 0.0
O223 O 0.33892 0.89478 0.54629 0.0
C224 C 0.37616 0.79071 0.48204 0.0
C225 C 0.38795 0.79836 0.45836 0.0
C226 C 0.36906 0.75328 0.46 0.0
C227 C 0.39032 0.7835 0.43564 0.0
C228 C 0.36683 0.76807 0.4827 0.0
C229 C 0.3807 0.76083 0.43612 0.0
C230 C 0.37243 0.80637 0.50566 0.0
C231 C 0.3858 0.87563 0.57099 0.0
H232 H 0.35134 0.95456 0.58102 0.0
H233 H 0.39751 0.02581 0.55959 0.0
H234 H 0.35522 0.98534 0.61575 0.0
H235 H 0.39364 0.99502 0.52509 0.0
H236 H 0.39508 0.8159 0.45733 0.0
H237 H 0.36174 0.73584 0.46121 0.0
H238 H 0.39922 0.78992 0.4175 0.0
H239 H 0.35761 0.76188 0.50075 0.0
Eu240 Eu 0.35109 0.11955 0.77209 0.0
Eu241 Eu 0.40804 0.11988 0.75763 0.0
C242 C 0.38179 0.07325 0.77991 0.0
C243 C 0.29027 0.11892 0.8071 0.0
C244 C 0.29843 0.1174 0.83419 0.0
C245 C 0.25034 0.11618 0.82369 0.0
C246 C 0.28256 0.11533 0.85598 0.0
C247 C 0.26619 0.11823 0.802 0.0
C248 C 0.25829 0.11478 0.85096 0.0
C249 C 0.30642 0.12116 0.7838 0.0
O250 O 0.39094 0.11071 0.71734 0.0
O251 O 0.35486 0.09866 0.73316 0.0
C252 C 0.37108 0.09941 0.714 0.0
O253 O 0.35621 0.14631 0.73881 0.0
O254 O 0.44008 0.10302 0.74396 0.0
O255 O 0.44128 0.13906 0.75738 0.0
O256 O 0.39431 0.15589 0.7472 0.0
C257 C 0.37409 0.16039 0.73561 0.0
O258 O 0.36928 0.13634 0.80827 0.0
O259 O 0.40499 0.11876 0.80389 0.0
O260 O 0.39825 0.0822 0.76426 0.0
O261 O 0.32004 0.13947 0.78354 0.0
O262 O 0.31728 0.10221 0.77619 0.0
O263 O 0.36493 0.08611 0.79038 0.0
C264 C 0.46746 0.12781 0.72176 0.0
C265 C 0.48665 0.14282 0.72511 0.0
C266 C 0.47877 0.12194 0.67405 0.0
C267 C 0.50191 0.14721 0.70321 0.0
C268 C 0.4634 0.11773 0.69586 0.0
C269 C 0.49837 0.13647 0.67757 0.0
C270 C 0.45264 0.12197 0.74571 0.0
C271 C 0.38897 0.12894 0.81907 0.0
H272 H 0.31702 0.1179 0.83847 0.0
H273 H 0.23183 0.11545 0.81906 0.0
H274 H 0.28926 0.11454 0.87675 0.0
H275 H 0.25962 0.11927 0.78116 0.0
H276 H 0.49015 0.15077 0.74488 0.0
H277 H 0.47542 0.11365 0.65445 0.0
H278 H 0.51696 0.15833 0.70663 0.0
H279 H 0.44862 0.10624 0.69256 0.0
Eu280 Eu 0.13929 0.10299 1.0231 0.0
Eu281 Eu 0.14243 0.16037 1.01233 0.0
C282 C 0.18747 0.13011 0.03242 0.0
C283 C 0.13332 0.04055 0.05403 0.0
C284 C 0.14967 0.04028 0.07558 0.0
C285 C 0.11425 0.00658 0.074 0.0
C286 C 0.14828 0.0232 0.09622 0.0
C287 C 0.11574 0.02349 0.05338 0.0
C288 C 0.13041 1.00628 0.09575 0.0
C289 C 0.13417 0.05806 0.03175 0.0
O290 O 0.1474 0.14389 0.97078 0.0
O291 O 0.16103 0.10797 0.98474 0.0
C292 C 0.15939 0.12467 0.96621 0.0
O293 O 0.11214 0.11213 0.9913 0.0
O294 O 0.16125 0.19119 0.99805 0.0
O295 O 0.12657 0.1951 1.01522 0.0
O296 O 0.10503 0.14953 1.00505 0.0
C297 C 0.09886 0.13081 0.99131 0.0
O298 O 0.12518 0.12039 0.06151 0.0
O299 O 0.14416 0.15556 0.05818 0.0
O300 O 0.17939 0.14784 1.01808 0.0
O301 O 0.11676 0.07275 0.03036 0.0
O302 O 0.15421 0.06796 1.02639 0.0
O303 O 0.1738 0.11335 0.04163 0.0
C304 C 0.1384 0.22191 0.98065 0.0
C305 C 0.12526 0.21498 0.95771 0.0
C306 C 0.14425 0.26002 0.9598 0.0
C307 C 0.12173 0.23054 0.93581 0.0
C308 C 0.14765 0.24455 0.98164 0.0
C309 C 0.13151 0.25313 0.93646 0.0
C310 C 0.14401 0.20545 1.00292 0.0
C311 C 0.13353 0.13951 0.07287 0.0
H312 H 0.16341 0.05329 0.07658 0.0
H313 H 0.10046 0.99364 0.07286 0.0
H314 H 0.16083 0.02355 0.11285 0.0
H315 H 0.10305 0.02328 0.03685 0.0
H316 H 0.11813 0.19745 0.95652 0.0
H317 H 0.15169 0.2774 0.96114 0.0
H318 H 0.11195 0.22468 0.91807 0.0
H319 H 0.15788 0.25016 0.99916 0.0
Eu320 Eu 0.91162 0.88566 0.76429 0.0
Eu321 Eu 0.85379 0.88959 0.77101 0.0
C322 C 0.87743 0.84826 0.73803 0.0
C323 C 0.97211 0.8781 0.73162 0.0
C324 C 0.96473 0.86614 0.70795 0.0
C325 C 0.00888 0.88716 0.70891 0.0
C326 C 0.97942 0.86465 0.68494 0.0
C327 C 0.9943 0.88849 0.73192 0.0
C328 C 1.00159 0.87534 0.68507 0.0
C329 C 0.95664 0.88099 0.75567 0.0
O330 O 0.86748 0.86948 0.80756 0.0
O331 O 0.9049 0.88368 0.81003 0.0
C332 C 0.88652 0.87402 0.82167 0.0
O333 O 0.90424 0.92327 0.77405 0.0
O334 O 0.8209 0.87074 0.77642 0.0
O335 O 0.82065 0.90844 0.77261 0.0
O336 O 0.86744 0.92112 0.79344 0.0
C337 C 0.88671 0.93261 0.78753 0.0
O338 O 0.8983 0.89725 0.7227 0.0
O339 O 0.86287 0.91299 0.73551 0.0
O340 O 0.86126 0.86441 0.73669 0.0
O341 O 0.9461 0.90107 0.75758 0.0
O342 O 0.94284 0.86363 0.76196 0.0
O343 O 0.89525 0.85073 0.75468 0.0
C344 C 0.79166 0.89133 0.80045 0.0
C345 C 0.79951 0.89348 0.82761 0.0
C346 C 0.7515 0.89265 0.81659 0.0
C347 C 0.78342 0.89529 0.84915 0.0
C348 C 0.76761 0.89088 0.79507 0.0
C349 C 0.75921 0.89495 0.84388 0.0
C350 C 0.80832 0.88974 0.77757 0.0
C351 C 0.8804 0.91124 0.71818 0.0
H352 H 0.94754 0.85821 0.70714 0.0
H353 H 0.02595 0.89531 0.70983 0.0
H354 H 0.97322 0.85557 0.66683 0.0
H355 H 1.00029 0.89786 0.74992 0.0
H356 H 0.81807 0.89377 0.83211 0.0
H357 H 0.73301 0.89259 0.8118 0.0
H358 H 0.78994 0.89673 0.86996 0.0
H359 H 0.76128 0.88928 0.77419 0.0
Eu360 Eu 0.87597 0.1583 0.50926 0.0
Eu361 Eu 0.86979 0.1013 0.52212 0.0
C362 C 0.91425 0.12166 0.49214 0.0
C363 C 0.87881 0.21893 0.47465 0.0
C364 C 0.88188 0.21315 0.44681 0.0
C365 C 0.86816 0.25845 0.46108 0.0
C366 C 0.87856 0.23002 0.42634 0.0
C367 C 0.87169 0.24163 0.48155 0.0
C368 C 0.87188 0.25293 0.43327 0.0
C369 C 0.88432 0.20205 0.49674 0.0
O370 O 0.88611 0.11722 0.56008 0.0
O371 O 0.87455 0.15544 0.55547 0.0
C372 C 0.88155 0.13783 0.57074 0.0
O373 O 0.83724 0.15261 0.51105 0.0
O374 O 0.88785 0.06834 0.52956 0.0
O375 O 0.84999 0.06925 0.52952 0.0
O376 O 0.83566 0.11772 0.53508 0.0
C377 C 0.82566 0.13646 0.5246 0.0
O378 O 0.86185 0.14366 0.4694 0.0
O379 O 0.85231 0.10551 0.48108 0.0
O380 O 0.89782 0.10589 0.49038 0.0
O381 O 0.86731 0.19558 0.5129 0.0
O382 O 0.89803 0.18471 0.49027 0.0
O383 O 0.91101 0.14031 0.50723 0.0
C384 C 0.86837 0.04094 0.5575 0.0
C385 C 0.8682 0.04981 0.58434 0.0
C386 C 0.86884 1.00143 0.57575 0.0
C387 C 0.86827 0.03452 0.6068 0.0
C388 C 0.86871 0.01671 0.55335 0.0
C389 C 0.8686 0.01013 0.60275 0.0
C390 C 0.86862 0.05657 0.53358 0.0
C391 C 0.85205 0.12329 0.4639 0.0
H392 H 0.88724 0.19571 0.44084 0.0
H393 H 0.86321 0.27599 0.4671 0.0
H394 H 0.88128 0.22517 0.40509 0.0
H395 H 0.86932 0.24651 0.50287 0.0
H396 H 0.86809 0.06852 0.58787 0.0
H397 H 0.86877 0.98278 0.57191 0.0
H398 H 0.86833 0.04178 0.62733 0.0
H399 H 0.86886 0.0096 0.53274 0.0
Eu400 Eu 0.60614 0.12053 0.256 0.0
Eu401 Eu 0.6632 0.12106 0.26734 0.0
C402 C 0.63736 0.16304 0.23799 0.0
C403 C 0.54539 0.1198 0.22129 0.0
C404 C 0.53154 0.13869 0.21268 0.0
C405 C 0.52753 0.09574 0.18577 0.0
C406 C 0.51586 0.13619 0.19087 0.0
C407 C 0.54337 0.0983 0.20752 0.0
C408 C 0.51354 0.11465 0.17725 0.0
C409 C 0.56136 0.123 0.24491 0.0
O410 O 0.64638 0.13571 0.30594 0.0
O411 O 0.60979 0.11958 0.30206 0.0
C412 C 0.62648 0.1289 0.31699 0.0
O413 O 0.61755 0.08281 0.25722 0.0
O414 O 0.6944 0.14219 0.27358 0.0
O415 O 0.69734 0.10439 0.27315 0.0
O416 O 0.65015 0.08683 0.28433 0.0
C417 C 0.63419 0.07369 0.27249 0.0
O418 O 0.62219 0.11308 0.21459 0.0
O419 O 0.65881 0.10055 0.22795 0.0
O420 O 0.65494 0.14856 0.23569 0.0
O421 O 0.57139 0.10456 0.25537 0.0
O422 O 0.57554 0.14078 0.24361 0.0
O423 O 0.61974 0.15754 0.25393 0.0
C424 C 0.7246 0.12531 0.30052 0.0
C425 C 0.74582 0.11311 0.29885 0.0
C426 C 0.73683 0.1413 0.34451 0.0
C427 C 0.76249 0.11506 0.31973 0.0
C428 C 0.72008 0.1392 0.32371 0.0
C429 C 0.75832 0.12941 0.34264 0.0
C430 C 0.70808 0.1242 0.27728 0.0
C431 C 0.64184 0.10183 0.2097 0.0
H432 H 0.53267 0.15541 0.22305 0.0
H433 H 0.52628 0.07897 0.17556 0.0
H434 H 0.50512 0.151 0.18513 0.0
H435 H 0.55388 0.08342 0.21359 0.0
H436 H 0.74968 0.10235 0.2811 0.0
H437 H 0.73296 0.15221 0.3621 0.0
H438 H 0.77892 0.10581 0.31758 0.0
H439 H 0.70376 0.14868 0.3256 0.0
Eu440 Eu 0.63847 0.85276 1.00714 0.0
Eu441 Eu 0.6439 0.90991 1.0176 0.0
C442 C 0.5992 0.88749 0.99052 0.0
C443 C 0.63631 0.79206 0.97365 0.0
C444 C 0.63311 0.79824 0.94595 0.0
C445 C 0.64771 0.75299 0.95933 0.0
C446 C 0.63673 0.78176 0.92516 0.0
C447 C 0.64386 0.7694 0.98012 0.0
C448 C 0.64388 0.7589 0.93165 0.0
C449 C 0.631 0.80864 0.99602 0.0
O450 O 0.62925 0.89485 0.05718 0.0
O451 O 0.64013 0.85631 0.05311 0.0
C452 C 0.63345 0.8742 0.06807 0.0
O453 O 0.67714 0.85929 1.00868 0.0
O454 O 0.62564 0.94262 1.02612 0.0
O455 O 0.6632 0.94276 1.02055 0.0
O456 O 0.67799 0.89437 0.0322 0.0
C457 C 0.68841 0.87568 1.02218 0.0
O458 O 0.64909 0.86726 0.96578 0.0
O459 O 0.66297 0.90379 0.97781 0.0
O460 O 0.61529 0.9034 0.98664 0.0
O461 O 0.64851 0.81589 1.01088 0.0
O462 O 0.6163 0.82539 0.99036 0.0
O463 O 0.60337 0.8705 1.00783 0.0
C464 C 0.64721 0.97133 0.05005 0.0
C465 C 0.64865 0.96323 0.0772 0.0
C466 C 0.65016 0.0113 0.06654 0.0
C467 C 0.65082 0.97912 0.09893 0.0
C468 C 0.64803 0.99542 0.04488 0.0
C469 C 0.65154 1.00338 0.09386 0.0
C470 C 0.64477 0.95504 1.02689 0.0
C471 C 0.66112 0.88637 0.9603 0.0
H472 H 0.62749 0.8157 0.94034 0.0
H473 H 0.65302 0.73545 0.96498 0.0
H474 H 0.63391 0.78689 0.904 0.0
H475 H 0.64641 0.76426 1.00133 0.0
H476 H 0.648 0.94465 0.08156 0.0
H477 H 0.65098 0.0298 0.06186 0.0
H478 H 0.65156 0.97242 0.11972 0.0
H479 H 0.64702 1.00196 1.02403 0.0
Eu480 Eu 0.90812 0.11789 0.79587 0.0
Eu481 Eu 0.85103 0.11792 0.78256 0.0
C482 C 0.87518 0.1589 0.81639 0.0
C483 C 0.96817 0.11899 0.83195 0.0
C484 C 0.98533 0.13627 0.83544 0.0
C485 C 0.9818 0.10005 0.87381 0.0
C486 C 1.00066 0.13543 0.85779 0.0
C487 C 0.96633 0.101 0.85153 0.0
C488 C 0.99926 0.11717 0.87709 0.0
C489 C 0.95286 0.11989 0.80748 0.0
O490 O 0.86869 0.13442 0.74566 0.0
O491 O 0.90481 0.11745 0.7497 0.0
C492 C 0.8885 0.12739 0.73472 0.0
O493 O 0.89699 0.08023 0.793 0.0
O494 O 0.81968 0.13909 0.77648 0.0
O495 O 0.8173 0.10125 0.77495 0.0
O496 O 0.86463 0.08402 0.76541 0.0
C497 C 0.8807 0.07105 0.77732 0.0
O498 O 0.89158 0.1085 0.83651 0.0
O499 O 0.85473 0.09741 0.82202 0.0
O500 O 0.85771 0.14417 0.81579 0.0
O501 O 0.94202 0.10078 0.80045 0.0
O502 O 0.9396 0.13826 0.80491 0.0
O503 O 0.89442 0.15448 0.80275 0.0
C504 C 0.78886 0.12315 0.75002 0.0
C505 C 0.7913 0.11131 0.72494 0.0
C506 C 0.75196 0.13933 0.73418 0.0
C507 C 0.77405 0.1134 0.70463 0.0
C508 C 0.76911 0.13716 0.75442 0.0
C509 C 0.75417 0.12746 0.70905 0.0
C510 C 0.8062 0.12106 0.77225 0.0
C511 C 0.87148 0.09776 0.84063 0.0
H512 H 0.98709 0.15029 0.8206 0.0
H513 H 0.9801 0.0859 0.88847 0.0
H514 H 0.01406 0.14873 0.85953 0.0
H515 H 0.95311 0.08754 0.84953 0.0
H516 H 0.80648 0.10047 0.72105 0.0
H517 H 0.73677 0.15005 0.73839 0.0
H518 H 0.77639 0.10424 0.68537 0.0
H519 H 0.76686 0.14636 0.77368 0.0
Eu520 Eu 0.6419 0.15847 0.54266 0.0
Eu521 Eu 0.63889 0.10128 0.52973 0.0
C522 C 0.59951 0.12745 0.56493 0.0
C523 C 0.63774 0.218 0.57895 0.0
C524 C 0.62055 0.23549 0.5774 0.0
C525 C 0.64704 0.23094 0.62536 0.0
C526 C 0.61671 0.25063 0.59954 0.0
C527 C 0.65075 0.2157 0.60333 0.0
C528 C 0.63015 0.24874 0.62363 0.0
C529 C 0.64259 0.20308 0.55471 0.0
O530 O 0.62412 0.11957 0.4923 0.0
O531 O 0.64253 0.155 0.49643 0.0
C532 C 0.63225 0.13896 0.48134 0.0
O533 O 0.6788 0.14669 0.53477 0.0
O534 O 0.61571 0.07151 0.52287 0.0
O535 O 0.65326 0.06625 0.52429 0.0
O536 O 0.67335 0.11205 0.51137 0.0
C537 C 0.68687 0.12906 0.52025 0.0
O538 O 0.65045 0.14116 0.58305 0.0
O539 O 0.66115 0.10455 0.56774 0.0
O540 O 0.61302 0.10906 0.56314 0.0
O541 O 0.66079 0.18944 0.55607 0.0
O542 O 0.62482 0.19284 0.543 0.0
O543 O 0.60505 0.1471 0.55268 0.0
C544 C 0.63074 0.03906 0.49854 0.0
C545 C 0.64301 0.04106 0.47368 0.0
C546 C 0.61424 1.00225 0.48304 0.0
C547 C 0.64102 0.02358 0.45368 0.0
C548 C 0.61631 0.01962 0.503 0.0
C549 C 0.62663 1.00395 0.45819 0.0
C550 C 0.63284 0.05661 0.52045 0.0
C551 C 0.66137 0.1211 0.5865 0.0
H552 H 0.61035 0.23771 0.55884 0.0
H553 H 0.65749 0.22885 0.64375 0.0
H554 H 0.60371 0.26428 0.59747 0.0
H555 H 0.66406 0.20233 0.60534 0.0
H556 H 0.65414 0.05603 0.46979 0.0
H557 H 0.60323 0.98725 0.48727 0.0
H558 H 0.65056 0.02553 0.4346 0.0
H559 H 0.60676 0.01778 0.5221 0.0
Eu560 Eu 0.60013 0.88864 0.2926 0.0
Eu561 Eu 0.65765 0.88828 0.28147 0.0
C562 C 0.63236 0.84756 0.31497 0.0
C563 C 0.54058 0.88162 0.32807 0.0
C564 C 0.5221 0.86558 0.32594 0.0
C565 C 0.52856 0.89019 0.37496 0.0
C566 C 0.50687 0.86198 0.34805 0.0
C567 C 0.54392 0.8936 0.35298 0.0
C568 C 0.50971 0.87455 0.37263 0.0
C569 C 0.55543 0.88649 0.30386 0.0
O570 O 0.64055 0.87363 0.2432 0.0
O571 O 0.60394 0.88969 0.24657 0.0
C572 C 0.62092 0.88068 0.23186 0.0
O573 O 0.60889 0.92571 0.28151 0.0
O574 O 0.68799 0.86707 0.27017 0.0
O575 O 0.69252 0.90357 0.28074 0.0
O576 O 0.6464 0.92295 0.26379 0.0
C577 C 0.6272 0.9348 0.26917 0.0
O578 O 0.61605 0.89893 0.33324 0.0
O579 O 0.65289 0.91026 0.31923 0.0
O580 O 0.65016 0.86194 0.31484 0.0
O581 O 0.56772 0.90565 0.30453 0.0
O582 O 0.56711 0.86904 0.29342 0.0
O583 O 0.61378 0.85214 0.30016 0.0
C584 C 0.71887 0.88753 0.24786 0.0
C585 C 0.72383 0.90966 0.23667 0.0
C586 C 0.74677 0.87026 0.21605 0.0
C587 C 0.74013 0.91205 0.21545 0.0
C588 C 0.73055 0.86789 0.23736 0.0
C589 C 0.75185 0.89239 0.20488 0.0
C590 C 0.70242 0.88474 0.27113 0.0
C591 C 0.63581 0.91023 0.3373 0.0
H592 H 0.51917 0.85617 0.30695 0.0
H593 H 0.53135 0.8999 0.39376 0.0
H594 H 0.4924 0.84995 0.34559 0.0
H595 H 0.55814 0.90595 0.35537 0.0
H596 H 0.71529 0.92522 0.24443 0.0
H597 H 0.75518 0.85468 0.20816 0.0
H598 H 0.74382 0.9294 0.20764 0.0
H599 H 0.72718 0.85065 0.24571 0.0
Eu600 Eu 0.87229 0.85341 0.04286 0.0
Eu601 Eu 0.87362 0.91132 0.03656 0.0
C602 C 0.91305 0.88368 0.06979 0.0
C603 C 0.87574 0.79232 0.07424 0.0
C604 C 0.88697 0.80012 0.09819 0.0
C605 C 0.86856 0.75485 0.09626 0.0
C606 C 0.88899 0.78533 0.12106 0.0
C607 C 0.86667 0.76958 0.07342 0.0
C608 C 0.87959 0.76258 0.12045 0.0
C609 C 0.87211 0.80805 0.05063 0.0
O610 O 0.89276 0.89618 1.00007 0.0
O611 O 0.87471 0.86052 0.99724 0.0
C612 C 0.88647 0.87772 0.98582 0.0
O613 O 0.83525 0.8651 0.03573 0.0
O614 O 0.89501 0.94282 0.03253 0.0
O615 O 0.85727 0.94572 0.03401 0.0
O616 O 0.8413 0.90012 1.01368 0.0
C617 C 0.82746 0.88296 1.02143 0.0
O618 O 0.86434 0.86744 0.08509 0.0
O619 O 0.85047 0.9038 0.07308 0.0
O620 O 0.89906 0.90183 0.07002 0.0
O621 O 0.85348 0.82108 0.05181 0.0
O622 O 0.89025 0.81964 0.04173 0.0
O623 O 0.90853 0.8655 0.05428 0.0
C624 C 0.87797 0.97447 1.00859 0.0
C625 C 0.86711 0.97091 0.98308 0.0
C626 C 0.89139 0.01254 0.99296 0.0
C627 C 0.8683 0.98816 0.96267 0.0
C628 C 0.89008 0.99537 1.01335 0.0
C629 C 0.88052 0.00917 0.96737 0.0
C630 C 0.87703 0.95673 0.03052 0.0
C631 C 0.85181 0.88618 0.09041 0.0
H632 H 0.89387 0.81774 0.09934 0.0
H633 H 0.86144 0.73734 0.09494 0.0
H634 H 0.89741 0.79189 0.13941 0.0
H635 H 0.85786 0.76329 0.05517 0.0
H636 H 0.85781 0.9548 0.97892 0.0
H637 H 0.90072 0.02859 0.99734 0.0
H638 H 0.85999 0.98491 0.94307 0.0
H639 H 0.89856 0.99843 0.03292 0.0
Eu640 Eu 0.66107 0.62032 0.78315 0.0
Eu641 Eu 0.60195 0.61951 0.7881 0.0
C642 C 0.62977 0.57404 0.77002 0.0
C643 C 0.72374 0.62406 0.75321 0.0
C644 C 0.74562 0.61315 0.75507 0.0
C645 C 0.73576 0.64197 0.71014 0.0
C646 C 0.76246 0.61654 0.73464 0.0
C647 C 0.71885 0.63846 0.73057 0.0
C648 C 0.75776 0.63099 0.71192 0.0
C649 C 0.70642 0.62001 0.77508 0.0
O650 O 0.61562 0.60254 0.82691 0.0
O651 O 0.65583 0.60714 0.82592 0.0
C652 C 0.63652 0.59997 0.83788 0.0
O653 O 0.65287 0.65004 0.81164 0.0
O654 O 0.57016 0.60057 0.79875 0.0
O655 O 0.56782 0.63696 0.78677 0.0
O656 O 0.61339 0.65476 0.80391 0.0
C657 C 0.63326 0.66165 0.81477 0.0
O658 O 0.64748 0.63518 0.7433 0.0
O659 O 0.6079 0.62708 0.74315 0.0
O660 O 0.6115 0.5871 0.76474 0.0
O661 O 0.69484 0.63812 0.78399 0.0
O662 O 0.69313 0.60166 0.77241 0.0
O663 O 0.64912 0.58278 0.78025 0.0
C664 C 0.5403 0.62312 0.81958 0.0
C665 C 0.54639 0.61802 0.84692 0.0
C666 C 0.50179 0.63529 0.83519 0.0
C667 C 0.5302 0.62137 0.86821 0.0
C668 C 0.51791 0.63183 0.81396 0.0
C669 C 0.50767 0.63007 0.8626 0.0
C670 C 0.5567 0.61888 0.79663 0.0
C671 C 0.62712 0.63412 0.73083 0.0
H672 H 0.7497 0.60198 0.7724 0.0
H673 H 0.7315 0.65298 0.69274 0.0
H674 H 0.77927 0.60802 0.73678 0.0
H675 H 0.70198 0.64692 0.72866 0.0
H676 H 0.56362 0.61134 0.85181 0.0
H677 H 0.48452 0.6417 0.83003 0.0
H678 H 0.5354 0.61741 0.88908 0.0
H679 H 0.5128 0.63577 0.79303 0.0
Eu680 Eu 0.64351 0.41091 0.03345 0.0
Eu681 Eu 0.64077 0.35356 0.04309 0.0
C682 C 0.68817 0.37896 1.02358 0.0
C683 C 0.63941 0.47271 1.0011 0.0
C684 C 0.65602 0.47521 0.98 0.0
C685 C 0.61621 0.50365 0.98029 0.0
C686 C 0.65274 0.49187 0.95929 0.0
C687 C 0.61955 0.48713 1.00105 0.0
C688 C 0.6328 0.50627 0.95924 0.0
C689 C 0.64274 0.45592 1.02387 0.0
O690 O 0.6551 0.36714 0.08336 0.0
O691 O 0.66467 0.4053 0.07187 0.0
C692 C 0.66543 0.38727 0.08871 0.0
O693 O 0.61935 0.40478 0.06882 0.0
O694 O 0.65462 0.31791 0.04148 0.0
O695 O 0.61927 0.32377 0.05553 0.0
O696 O 0.60583 0.36938 0.05481 0.0
C697 C 0.60355 0.38831 0.06977 0.0
O698 O 0.62146 0.3959 0.99929 0.0
O699 O 0.63732 0.3593 0.99712 0.0
O700 O 0.67893 0.36258 0.03911 0.0
O701 O 0.62443 0.44383 0.03119 0.0
O702 O 0.66188 0.44349 1.02432 0.0
O703 O 0.67525 0.39562 1.01279 0.0
C704 C 0.63959 0.29236 0.07609 0.0
C705 C 0.65992 0.29281 0.09231 0.0
C706 C 0.62449 0.26065 0.10441 0.0
C707 C 0.6626 0.27708 0.1142 0.0
C708 C 0.62192 0.27621 0.08243 0.0
C709 C 0.64491 0.26079 0.1205 0.0
C710 C 0.63613 0.30867 0.05282 0.0
C711 C 0.62635 0.37687 0.98538 0.0
H712 H 0.67155 0.4644 0.97949 0.0
H713 H 0.60082 0.51467 0.98098 0.0
H714 H 0.66571 0.49333 0.94317 0.0
H715 H 0.60663 0.48575 1.01725 0.0
H716 H 0.67373 0.30527 0.0881 0.0
H717 H 0.61067 0.24817 0.10846 0.0
H718 H 0.67844 0.27779 0.12635 0.0
H719 H 0.60607 0.27558 0.07026 0.0
Eu720 Eu 0.85541 0.39046 0.28328 0.0
Eu721 Eu 0.91253 0.39337 0.29427 0.0
C722 C 0.88299 0.43808 0.27205 0.0
C723 C 0.79396 0.38396 0.25087 0.0
C724 C 0.77249 0.39566 0.25286 0.0
C725 C 0.78192 0.36825 0.20666 0.0
C726 C 0.75581 0.39365 0.23201 0.0
C727 C 0.79867 0.37041 0.22745 0.0
C728 C 0.76023 0.37974 0.20879 0.0
C729 C 0.81062 0.38536 0.27394 0.0
O730 O 0.89587 0.39955 0.33555 0.0
O731 O 0.86012 0.4131 0.32093 0.0
C732 C 0.87667 0.41172 0.33965 0.0
O733 O 0.86412 0.36441 0.31641 0.0
O734 O 0.94355 0.4122 0.30784 0.0
O735 O 0.94699 0.37679 0.2928 0.0
O736 O 0.90105 0.35618 0.30202 0.0
C737 C 0.88241 0.35064 0.31631 0.0
O738 O 0.87305 0.3746 0.24599 0.0
O739 O 0.90805 0.39392 0.24834 0.0
O740 O 0.9005 0.43034 0.287 0.0
O741 O 0.82517 0.36797 0.277 0.0
O742 O 0.82046 0.40556 0.27846 0.0
O743 O 0.86631 0.42418 0.26319 0.0
C744 C 0.97324 0.38934 0.32747 0.0
C745 C 0.96511 0.37808 0.35127 0.0
C746 C 0.01122 0.39422 0.34889 0.0
C747 C 0.98 0.375 0.37385 0.0
C748 C 0.9964 0.39718 0.32636 0.0
C749 C 1.00315 0.38335 0.37303 0.0
C750 C 0.95751 0.39447 0.30436 0.0
C751 C 0.8921 0.38266 0.23418 0.0
H752 H 0.76847 0.40614 0.27078 0.0
H753 H 0.78597 0.35767 0.18884 0.0
H754 H 0.73922 0.40257 0.23436 0.0
H755 H 0.81519 0.36132 0.22531 0.0
H756 H 0.94717 0.37208 0.35255 0.0
H757 H 0.02904 0.40052 0.34742 0.0
H758 H 0.97323 0.36668 0.3922 0.0
H759 H 1.00294 0.40597 0.30819 0.0
Eu760 Eu 0.86877 0.60363 0.53183 0.0
Eu761 Eu 0.8727 0.66093 0.54257 0.0
C762 C 0.82326 0.63703 0.52799 0.0
C763 C 0.86708 0.54233 0.49875 0.0
C764 C 0.86554 0.55043 0.47162 0.0
C765 C 0.86521 0.50233 0.48226 0.0
C766 C 0.86389 0.5345 0.44987 0.0
C767 C 0.86684 0.51824 0.50393 0.0
C768 C 0.86379 0.51023 0.45495 0.0
C769 C 0.86911 0.55863 0.52193 0.0
O770 O 0.8596 0.64687 0.5832 0.0
O771 O 0.8515 0.60814 0.57296 0.0
C772 C 0.85065 0.6263 0.58953 0.0
O773 O 0.89718 0.61044 0.56278 0.0
O774 O 0.86328 0.69783 0.53736 0.0
O775 O 0.89393 0.68824 0.56095 0.0
O776 O 0.90824 0.64393 0.54223 0.0
C777 C 0.91282 0.6268 0.55921 0.0
O778 O 0.88282 0.61948 0.49235 0.0
O779 O 0.87014 0.6574 0.49666 0.0
O780 O 0.83422 0.65392 0.54095 0.0
O781 O 0.88789 0.57157 0.52266 0.0
O782 O 0.85034 0.57033 0.52843 0.0
O783 O 0.83389 0.61825 0.51851 0.0
C784 C 0.87354 0.72199 0.57507 0.0
C785 C 0.8715 0.71505 0.60266 0.0
C786 C 0.86667 0.76225 0.5887 0.0
C787 C 0.86764 0.7317 0.62319 0.0
C788 C 0.87076 0.74562 0.56821 0.0
C789 C 0.86549 0.75551 0.61645 0.0
C790 C 0.87993 0.70509 0.55353 0.0
C791 C 0.8773 0.63984 0.48152 0.0
H792 H 0.86576 0.56901 0.46727 0.0
H793 H 0.86486 0.48381 0.48692 0.0
H794 H 0.86308 0.54117 0.42908 0.0
H795 H 0.86793 0.51172 0.52479 0.0
H796 H 0.87339 0.69685 0.60842 0.0
H797 H 0.86527 0.78048 0.58291 0.0
H798 H 0.86653 0.72598 0.64436 0.0
H799 H 0.8723 0.75131 0.54706 0.0
Eu800 Eu 0.66024 0.39021 0.77249 0.0
Eu801 Eu 0.60273 0.38793 0.76314 0.0
C802 C 0.6286 0.43484 0.78195 0.0
C803 C 0.72108 0.39258 0.80701 0.0
C804 C 0.72572 0.41399 0.82009 0.0
C805 C 0.74868 0.37355 0.8378 0.0
C806 C 0.74167 0.41514 0.8418 0.0
C807 C 0.7328 0.37241 0.81605 0.0
C808 C 0.7534 0.39494 0.85088 0.0
C809 C 0.70504 0.39122 0.78319 0.0
O810 O 0.61616 0.40104 0.72228 0.0
O811 O 0.65468 0.40978 0.73286 0.0
C812 C 0.63652 0.41059 0.71625 0.0
O813 O 0.65467 0.36412 0.73888 0.0
O814 O 0.56755 0.40289 0.76439 0.0
O815 O 0.5722 0.36686 0.75233 0.0
O816 O 0.61778 0.35276 0.75105 0.0
C817 C 0.63726 0.34933 0.73732 0.0
O818 O 0.6451 0.36865 0.80701 0.0
O819 O 0.60872 0.38499 0.80917 0.0
O820 O 0.61264 0.42594 0.76568 0.0
O821 O 0.69307 0.37194 0.78029 0.0
O822 O 0.69272 0.40976 0.77725 0.0
O823 O 0.64439 0.42145 0.79362 0.0
C824 C 0.54153 0.38746 0.73068 0.0
C825 C 0.52462 0.37028 0.72539 0.0
C826 C 0.52745 0.40939 0.69107 0.0
C827 C 0.50929 0.37256 0.70316 0.0
C828 C 0.54294 0.407 0.71321 0.0
C829 C 0.51044 0.39218 0.68577 0.0
C830 C 0.55767 0.3843 0.75413 0.0
C831 C 0.6262 0.37394 0.82097 0.0
H832 H 0.71723 0.42994 0.81344 0.0
H833 H 0.75714 0.35759 0.8445 0.0
H834 H 0.74512 0.43196 0.85116 0.0
H835 H 0.72976 0.3557 0.80621 0.0
H836 H 0.52324 0.35503 0.73853 0.0
H837 H 0.52895 0.4246 0.67792 0.0
H838 H 0.49624 0.35912 0.69988 0.0
H839 H 0.55601 0.4204 0.7166 0.0
Eu840 Eu 0.87189 0.40499 1.0223 0.0
Eu841 Eu 0.87455 0.34749 1.0103 0.0
C842 C 0.82694 0.37235 0.0323 0.0
C843 C 0.87044 0.46614 0.05667 0.0
C844 C 0.84882 0.47031 0.06951 0.0
C845 C 0.88837 0.49489 0.08694 0.0
C846 C 0.847 0.48664 0.09079 0.0
C847 C 0.89016 0.47864 0.0656 0.0
C848 C 0.86674 0.49919 0.09974 0.0
C849 C 0.87254 0.44986 0.03313 0.0
O850 O 0.86523 0.36357 0.96945 0.0
O851 O 0.85043 0.39891 0.98421 0.0
C852 C 0.85235 0.38236 0.9656 0.0
O853 O 0.89887 0.39974 0.98922 0.0
O854 O 0.85833 0.31469 0.998 0.0
O855 O 0.89464 0.3149 1.01048 0.0
O856 O 0.90998 0.36234 0.9996 0.0
C857 C 0.91366 0.38232 0.98702 0.0
O858 O 0.88894 0.38852 0.05943 0.0
O859 O 0.87392 0.35153 0.0564 0.0
O860 O 0.83668 0.35535 1.01828 0.0
O861 O 0.89128 0.43687 0.032 0.0
O862 O 0.85387 0.43849 1.0255 0.0
O863 O 0.83837 0.3911 0.04032 0.0
C864 C 0.88269 0.28687 0.97722 0.0
C865 C 0.89577 0.29429 0.95438 0.0
C866 C 0.87545 0.24979 0.95461 0.0
C867 C 0.8986 0.27946 0.93168 0.0
C868 C 0.87281 0.26448 0.97726 0.0
C869 C 0.88808 0.25721 0.9314 0.0
C870 C 0.87749 0.30259 1.00032 0.0
C871 C 0.88292 0.36863 0.0709 0.0
H872 H 0.8332 0.46118 0.06296 0.0
H873 H 0.90401 0.50396 0.09353 0.0
H874 H 0.83 0.48971 0.09989 0.0
H875 H 0.90702 0.47593 0.05595 0.0
H876 H 0.90335 0.31165 0.95388 0.0
H877 H 0.86745 0.23263 0.95517 0.0
H878 H 0.90835 0.28565 0.91404 0.0
H879 H 0.8626 0.2585 0.99465 0.0
Eu880 Eu 0.85085 0.61974 0.2686 0.0
Eu881 Eu 0.90733 0.62804 0.25613 0.0
C882 C 0.88759 0.57714 0.27306 0.0
C883 C 0.7893 0.61931 0.30169 0.0
C884 C 0.79427 0.63323 0.32468 0.0
C885 C 0.75091 0.61083 0.3206 0.0
C886 C 0.7775 0.63618 0.34535 0.0
C887 C 0.76762 0.60801 0.29991 0.0
C888 C 0.75556 0.62512 0.34344 0.0
C889 C 0.80594 0.61716 0.27877 0.0
O890 O 0.89295 0.61417 0.216 0.0
O891 O 0.85723 0.59925 0.22986 0.0
C892 C 0.87428 0.6011 0.2118 0.0
O893 O 0.85495 0.64667 0.23533 0.0
O894 O 0.94468 0.61999 0.25989 0.0
O895 O 0.9335 0.65103 0.23813 0.0
O896 O 0.8881 0.66233 0.25251 0.0
C897 C 0.86974 0.66405 0.2366 0.0
O898 O 0.86547 0.63748 0.30643 0.0
O899 O 0.90406 0.62724 0.30225 0.0
O900 O 0.90328 0.58905 0.25913 0.0
O901 O 0.81664 0.63625 0.27118 0.0
O902 O 0.8198 0.59907 0.27887 0.0
O903 O 0.86842 0.58666 0.28306 0.0
C904 C 0.9679 0.63236 0.22214 0.0
C905 C 0.96209 0.63572 0.19434 0.0
C906 C 0.00721 0.62125 0.20841 0.0
C907 C 0.97885 0.63224 0.17382 0.0
C908 C 0.99052 0.62493 0.22894 0.0
C909 C 1.00163 0.62512 0.18065 0.0
C910 C 0.951 0.63741 0.24428 0.0
C911 C 0.88615 0.63369 0.31732 0.0
H912 H 0.81098 0.64203 0.3265 0.0
H913 H 0.73414 0.60226 0.31838 0.0
H914 H 0.78173 0.64703 0.36288 0.0
H915 H 0.76346 0.59726 0.28226 0.0
H916 H 0.94469 0.64128 0.18846 0.0
H917 H 0.02469 0.61596 0.21433 0.0
H918 H 0.97398 0.6351 0.15259 0.0
H919 H 0.9954 0.62231 0.25022 0.0
Eu920 Eu 0.6384 0.599 0.51911 0.0
Eu921 Eu 0.63882 0.65691 0.50946 0.0
C922 C 0.68442 0.62904 0.5296 0.0
C923 C 0.63468 0.53759 0.55224 0.0
C924 C 0.64573 0.51578 0.55034 0.0
C925 C 0.61923 0.52647 0.59693 0.0
C926 C 0.64351 0.49937 0.57149 0.0
C927 C 0.62159 0.54295 0.57582 0.0
C928 C 0.63005 0.50443 0.59492 0.0
C929 C 0.63637 0.55402 0.52898 0.0
O930 O 0.6509 0.64242 0.46868 0.0
O931 O 0.65903 0.60391 0.48015 0.0
C932 C 0.66025 0.62185 0.46322 0.0
O933 O 0.61289 0.60664 0.48541 0.0
O934 O 0.65522 0.69162 0.51021 0.0
O935 O 0.61901 0.68808 0.4984 0.0
O936 O 0.60274 0.64306 0.5002 0.0
C937 C 0.59847 0.62439 0.48543 0.0
O938 O 0.61775 0.61535 0.55354 0.0
O939 O 0.63566 0.6511 0.55535 0.0
O940 O 0.67622 0.6457 0.51375 0.0
O941 O 0.61812 0.56704 0.52402 0.0
O942 O 0.65593 0.56551 0.52626 0.0
O943 O 0.67074 0.6128 0.53997 0.0
C944 C 0.64054 0.71858 0.47724 0.0
C945 C 0.63492 0.71248 0.45007 0.0
C946 C 0.65137 0.75747 0.46145 0.0
C947 C 0.63724 0.72888 0.42881 0.0
C948 C 0.64893 0.74113 0.48268 0.0
C949 C 0.64539 0.75164 0.43426 0.0
C950 C 0.63686 0.70212 0.5003 0.0
C951 C 0.62377 0.63418 0.56719 0.0
H952 H 0.65586 0.5113 0.53229 0.0
H953 H 0.60903 0.53102 0.61489 0.0
H954 H 0.6519 0.48251 0.56921 0.0
H955 H 0.61303 0.55977 0.57782 0.0
H956 H 0.62851 0.69512 0.44532 0.0
H957 H 0.65744 0.77489 0.46648 0.0
H958 H 0.63274 0.72372 0.40808 0.0
H959 H 0.65327 0.74624 0.50348 0.0
Eu960 Eu 0.41092 0.39387 0.25932 0.0
Eu961 Eu 0.35371 0.39026 0.26989 0.0
C962 C 0.38122 0.35067 0.23711 0.0
C963 C 0.47245 0.38913 0.22837 0.0
C964 C 0.4652 0.37639 0.20526 0.0
C965 C 0.5107 0.39416 0.20765 0.0
C966 C 0.48066 0.37265 0.18335 0.0
C967 C 0.49532 0.39778 0.22952 0.0
C968 C 0.50349 0.38183 0.18415 0.0
C969 C 0.45613 0.39486 0.2507 0.0
O970 O 0.37161 0.37579 0.30783 0.0
O971 O 0.40592 0.39611 0.30516 0.0
C972 C 0.39018 0.38484 0.31964 0.0
O973 O 0.39808 0.43071 0.2643 0.0
O974 O 0.32422 0.36788 0.2811 0.0
O975 O 0.31833 0.40431 0.27086 0.0
O976 O 0.36382 0.42491 0.28812 0.0
C977 C 0.38023 0.43874 0.27843 0.0
O978 O 0.39528 0.40106 0.21767 0.0
O979 O 0.35772 0.41094 0.23058 0.0
O980 O 0.3625 0.3638 0.23748 0.0
O981 O 0.44224 0.41244 0.24607 0.0
O982 O 0.44535 0.37746 0.26257 0.0
O983 O 0.39991 0.35661 0.25104 0.0
C984 C 0.29309 0.38711 0.30416 0.0
C985 C 0.28843 0.40884 0.31647 0.0
C986 C 0.26614 0.3687 0.33628 0.0
C987 C 0.27276 0.41047 0.33842 0.0
C988 C 0.28171 0.3671 0.31422 0.0
C989 C 0.26144 0.39042 0.34865 0.0
C990 C 0.30918 0.38506 0.28048 0.0
C991 C 0.37501 0.41112 0.21268 0.0
H992 H 0.4475 0.36973 0.20397 0.0
H993 H 0.52827 0.40114 0.20909 0.0
H994 H 0.47456 0.3632 0.16547 0.0
H995 H 0.50119 0.40768 0.24718 0.0
H996 H 0.29677 0.42466 0.30912 0.0
H997 H 0.25802 0.35285 0.34385 0.0
H998 H 0.2693 0.42753 0.34714 0.0
H999 H 0.28491 0.35016 0.30502 0.0
Eu1000 Eu 0.37148 0.65897 1.01006 0.0
Eu1001 Eu 0.37311 0.60088 1.01794 0.0
C1002 C 0.41286 0.62791 0.98406 0.0
C1003 C 0.3747 0.71932 0.9761 0.0
C1004 C 0.39426 0.73402 0.97369 0.0
C1005 C 0.36003 0.73475 0.93274 0.0
C1006 C 0.39675 0.74887 0.95103 0.0
C1007 C 0.35762 0.71977 0.95531 0.0
C1008 C 0.37959 0.74951 0.93036 0.0
C1009 C 0.37231 0.70393 1.00046 0.0
O1010 O 0.37638 0.61523 0.06093 0.0
O1011 O 0.38675 0.65354 0.05241 0.0
C1012 C 0.38345 0.63589 0.06935 0.0
O1013 O 0.3398 0.64984 0.03514 0.0
O1014 O 0.39306 0.56842 1.02066 0.0
O1015 O 0.35545 0.56728 1.02416 0.0
O1016 O 0.33533 0.61211 1.02004 0.0
C1017 C 0.32666 0.63144 0.03046 0.0
O1018 O 0.34897 0.64429 0.97636 0.0
O1019 O 0.36223 0.60626 0.97363 0.0
O1020 O 0.40889 0.61185 1.00277 0.0
O1021 O 0.35309 0.69175 1.00268 0.0
O1022 O 0.39078 0.69192 1.00758 0.0
O1023 O 0.39822 0.64521 0.98033 0.0
C1024 C 0.37675 0.53846 0.04863 0.0
C1025 C 0.36356 0.5178 0.04763 0.0
C1026 C 0.39407 0.52526 0.09158 0.0
C1027 C 0.36562 0.50095 0.06836 0.0
C1028 C 0.39186 0.54219 0.07093 0.0
C1029 C 0.38107 0.50437 0.09045 0.0
C1030 C 0.37484 0.55548 1.02588 0.0
C1031 C 0.34986 0.6239 0.96391 0.0
H1032 H 0.40762 0.73412 0.98947 0.0
H1033 H 0.34662 0.73468 0.91704 0.0
H1034 H 0.41188 0.76023 0.94998 0.0
H1035 H 0.34235 0.70861 0.95644 0.0
H1036 H 0.35181 0.51456 0.0306 0.0
H1037 H 0.40586 0.52858 0.10853 0.0
H1038 H 0.3555 0.485 0.06676 0.0
H1039 H 0.40208 0.5581 0.07233 0.0
Eu1040 Eu 0.10046 0.62546 0.75782 0.0
Eu1041 Eu 0.15739 0.61834 0.77011 0.0
C1042 C 0.13692 0.66386 0.74358 0.0
C1043 C 0.04037 0.63044 0.72239 0.0
C1044 C 0.02603 0.6486 0.71286 0.0
C1045 C 0.02293 0.60448 0.68848 0.0
C1046 C 0.01032 0.64482 0.69132 0.0
C1047 C 0.03881 0.60833 0.70995 0.0
C1048 C 0.00853 0.62271 0.67887 0.0
C1049 C 0.05716 0.63536 0.7447 0.0
O1050 O 0.14198 0.63483 0.80821 0.0
O1051 O 0.10344 0.62399 0.80403 0.0
C1052 C 0.12126 0.63094 0.81901 0.0
O1053 O 0.10524 0.58658 0.75959 0.0
O1054 O 0.19124 0.63536 0.77493 0.0
O1055 O 0.18876 0.59776 0.77893 0.0
O1056 O 0.14023 0.5846 0.78333 0.0
C1057 C 0.12133 0.5748 0.77299 0.0
O1058 O 0.11573 0.61364 0.71722 0.0
O1059 O 0.15206 0.59974 0.73012 0.0
O1060 O 0.15216 0.64723 0.7393 0.0
O1061 O 0.06299 0.61822 0.76108 0.0
O1062 O 0.07501 0.64834 0.73803 0.0
O1063 O 0.11941 0.65986 0.76019 0.0
C1064 C 0.21828 0.6169 0.80444 0.0
C1065 C 0.24166 0.61021 0.80092 0.0
C1066 C 0.22674 0.62719 0.8518 0.0
C1067 C 0.25759 0.61221 0.82259 0.0
C1068 C 0.21081 0.62512 0.83011 0.0
C1069 C 0.2504 0.62103 0.84819 0.0
C1070 C 0.20226 0.61604 0.78084 0.0
C1071 C 0.13493 0.6016 0.71224 0.0
H1072 H 0.027 0.6658 0.7221 0.0
H1073 H 0.02211 0.5873 0.67918 0.0
H1074 H 0.99929 0.65915 0.68471 0.0
H1075 H 0.04989 0.5941 0.71673 0.0
H1076 H 0.24772 0.60385 0.78121 0.0
H1077 H 0.22055 0.63372 0.87136 0.0
H1078 H 0.27568 0.60755 0.81901 0.0
H1079 H 0.19277 0.63026 0.83325 0.0
Eu1080 Eu 0.13738 0.35312 0.51348 0.0
Eu1081 Eu 0.14577 0.41026 0.52113 0.0
C1082 C 0.10242 0.39025 0.48811 0.0
C1083 C 0.13389 0.2918 0.48243 0.0
C1084 C 0.13206 0.29848 0.45472 0.0
C1085 C 0.14345 0.25228 0.46791 0.0
C1086 C 0.13557 0.28209 0.43379 0.0
C1087 C 0.13973 0.26863 0.48883 0.0
C1088 C 0.14125 0.25877 0.44015 0.0
C1089 C 0.12942 0.30862 0.50482 0.0
O1090 O 0.12428 0.39828 0.55742 0.0
O1091 O 0.1348 0.35966 0.55925 0.0
C1092 C 0.12665 0.37863 0.5711 0.0
O1093 O 0.17625 0.35828 0.51696 0.0
O1094 O 0.12998 0.44485 0.52404 0.0
O1095 O 0.1676 0.44123 0.52669 0.0
O1096 O 0.17685 0.39295 0.54088 0.0
C1097 C 0.18737 0.37422 0.53129 0.0
O1098 O 0.15104 0.36506 0.47215 0.0
O1099 O 0.16628 0.40131 0.48317 0.0
O1100 O 0.11971 0.40521 0.48728 0.0
O1101 O 0.14759 0.31638 0.51813 0.0
O1102 O 0.11435 0.32514 0.49975 0.0
O1103 O 0.10349 0.37193 0.5043 0.0
C1104 C 0.15033 0.47227 0.5521 0.0
C1105 C 0.17169 0.48206 0.56047 0.0
C1106 C 0.13033 0.4961 0.58623 0.0
C1107 C 0.1724 0.49853 0.58163 0.0
C1108 C 0.12962 0.47956 0.56512 0.0
C1109 C 0.15173 0.50575 0.59475 0.0
C1110 C 0.14979 0.45533 0.52911 0.0
C1111 C 0.1642 0.38337 0.46644 0.0
H1112 H 0.12779 0.31634 0.44923 0.0
H1113 H 0.14759 0.23442 0.4735 0.0
H1114 H 0.13403 0.28768 0.41261 0.0
H1115 H 0.14123 0.26311 0.51005 0.0
H1116 H 0.18789 0.47708 0.55054 0.0
H1117 H 0.11412 0.50111 0.59612 0.0
H1118 H 0.18914 0.50586 0.58748 0.0
H1119 H 0.11282 0.47253 0.55905 0.0
Eu1120 Eu 0.40727 0.62522 0.29503 0.0
Eu1121 Eu 0.35019 0.62232 0.28225 0.0
C1122 C 0.37209 0.66292 0.31916 0.0
C1123 C 0.46613 0.63475 0.33066 0.0
C1124 C 0.46207 0.62287 0.35551 0.0
C1125 C 0.50005 0.65345 0.35114 0.0
C1126 C 0.47727 0.62576 0.37768 0.0
C1127 C 0.48498 0.65036 0.32882 0.0
C1128 C 0.49662 0.64078 0.37556 0.0
C1129 C 0.45173 0.63 0.30618 0.0
O1130 O 0.36695 0.63878 0.2446 0.0
O1131 O 0.40386 0.62376 0.24902 0.0
C1132 C 0.38697 0.63225 0.23379 0.0
O1133 O 0.40068 0.58759 0.28499 0.0
O1134 O 0.3182 0.64243 0.27693 0.0
O1135 O 0.31686 0.60457 0.27485 0.0
O1136 O 0.3636 0.5881 0.26585 0.0
C1137 C 0.3832 0.57738 0.2723 0.0
O1138 O 0.39174 0.61238 0.33497 0.0
O1139 O 0.35538 0.60013 0.32009 0.0
O1140 O 0.35542 0.64735 0.31726 0.0
O1141 O 0.44082 0.61003 0.30578 0.0
O1142 O 0.43881 0.64704 0.29688 0.0
O1143 O 0.3915 0.66038 0.30519 0.0
C1144 C 0.28847 0.62558 0.24932 0.0
C1145 C 0.29233 0.6404 0.22675 0.0
C1146 C 0.25058 0.61505 0.23043 0.0
C1147 C 0.27523 0.6428 0.2064 0.0
C1148 C 0.2676 0.61278 0.25085 0.0
C1149 C 0.25408 0.63031 0.20816 0.0
C1150 C 0.30527 0.62406 0.27217 0.0
C1151 C 0.37233 0.60027 0.33841 0.0
H1152 H 0.44749 0.61091 0.35762 0.0
H1153 H 0.51492 0.66503 0.34892 0.0
H1154 H 0.4741 0.61598 0.39638 0.0
H1155 H 0.4884 0.65969 0.30987 0.0
H1156 H 0.30838 0.65035 0.22502 0.0
H1157 H 0.23442 0.60533 0.23247 0.0
H1158 H 0.27856 0.65442 0.18926 0.0
H1159 H 0.26427 0.60132 0.26815 0.0
Eu1160 Eu 0.1429 0.6633 0.04243 0.0
Eu1161 Eu 0.13867 0.60604 0.03082 0.0
C1162 C 0.09937 0.63383 0.06387 0.0
C1163 C 0.13939 0.72453 0.07544 0.0
C1164 C 0.11733 0.72519 0.08819 0.0
C1165 C 0.15263 0.75542 0.10608 0.0
C1166 C 0.11294 0.74101 0.10957 0.0
C1167 C 0.15695 0.73978 0.08463 0.0
C1168 C 0.13056 0.7563 0.11878 0.0
C1169 C 0.14469 0.70826 0.05265 0.0
O1170 O 0.12337 0.62466 0.99399 0.0
O1171 O 0.14456 0.6585 0.99648 0.0
C1172 C 0.13265 0.64312 0.98216 0.0
O1173 O 0.17959 0.65011 0.03719 0.0
O1174 O 0.11573 0.57641 1.02282 0.0
O1175 O 0.15313 0.57082 1.02625 0.0
O1176 O 0.17333 0.61649 1.01238 0.0
C1177 C 0.18739 0.63256 1.02243 0.0
O1178 O 0.14924 0.64664 0.0837 0.0
O1179 O 0.15944 0.60939 0.06996 0.0
O1180 O 0.11246 0.61505 0.06358 0.0
O1181 O 0.16211 0.69399 0.0566 0.0
O1182 O 0.12725 0.69816 0.04008 0.0
O1183 O 0.10551 0.65256 0.05009 0.0
C1184 C 0.13198 0.54449 0.99783 0.0
C1185 C 0.14545 0.52404 0.99949 0.0
C1186 C 0.11531 0.53041 0.95494 0.0
C1187 C 0.14384 0.50687 0.97915 0.0
C1188 C 0.11704 0.54766 0.97521 0.0
C1189 C 0.12856 0.50974 0.95679 0.0
C1190 C 0.13288 0.56146 1.02066 0.0
C1191 C 0.15936 0.62632 0.08825 0.0
H1192 H 0.10348 0.71353 0.08168 0.0
H1193 H 0.16648 0.76716 0.11239 0.0
H1194 H 0.09582 0.74112 0.11907 0.0
H1195 H 0.17407 0.73965 0.07509 0.0
H1196 H 0.15697 0.52115 1.01682 0.0
H1197 H 0.10362 0.53327 0.93776 0.0
H1198 H 0.15413 0.49108 0.9813 0.0
H1199 H 0.1065 0.56331 0.97332 0.0
Eu1200 Eu 0.10389 0.39008 0.79297 0.0
Eu1201 Eu 0.16148 0.39198 0.78277 0.0
C1202 C 0.13862 0.35256 0.82101 0.0
C1203 C 0.04352 0.38287 0.82629 0.0
C1204 C 0.02555 0.36623 0.82474 0.0
C1205 C 0.03087 0.39253 0.87272 0.0
C1206 C 0.01033 0.36278 0.84692 0.0
C1207 C 0.04621 0.39583 0.85063 0.0
C1208 C 0.01266 0.37605 0.87108 0.0
C1209 C 0.05887 0.38682 0.80223 0.0
O1210 O 0.14556 0.37002 0.74914 0.0
O1211 O 0.10969 0.38737 0.74702 0.0
C1212 C 0.12677 0.37574 0.73524 0.0
O1213 O 0.11305 0.4277 0.78493 0.0
O1214 O 0.19388 0.37327 0.77364 0.0
O1215 O 0.19445 0.41084 0.77928 0.0
O1216 O 0.14663 0.42274 0.75982 0.0
C1217 C 0.12962 0.43604 0.76903 0.0
O1218 O 0.11811 0.40259 0.83359 0.0
O1219 O 0.15533 0.41386 0.82055 0.0
O1220 O 0.15618 0.36701 0.81772 0.0
O1221 O 0.07029 0.40653 0.80137 0.0
O1222 O 0.07168 0.36926 0.79415 0.0
O1223 O 0.1187 0.35566 0.80807 0.0
C1224 C 0.22259 0.39466 0.74852 0.0
C1225 C 0.22734 0.41657 0.73662 0.0
C1226 C 0.25076 0.37695 0.71733 0.0
C1227 C 0.24363 0.41863 0.71533 0.0
C1228 C 0.23452 0.3749 0.73868 0.0
C1229 C 0.25561 0.39886 0.70546 0.0
C1230 C 0.20634 0.39236 0.7721 0.0
C1231 C 0.1378 0.4139 0.8381 0.0
H1232 H 0.02311 0.35605 0.80621 0.0
H1233 H 0.03332 0.40283 0.89115 0.0
H1234 H 0.99637 0.3501 0.84488 0.0
H1235 H 0.06004 0.40867 0.85257 0.0
H1236 H 0.21868 0.43222 0.7439 0.0
H1237 H 0.25938 0.3613 0.71 0.0
H1238 H 0.24715 0.43582 0.70694 0.0
H1239 H 0.23141 0.35783 0.74761 0.0
Eu1240 Eu 0.37186 0.35324 0.54426 0.0
Eu1241 Eu 0.37475 0.41077 0.53372 0.0
C1242 C 0.41493 0.38299 0.56603 0.0
C1243 C 0.3755 0.29179 0.57662 0.0
C1244 C 0.39005 0.29793 0.59869 0.0
C1245 C 0.36722 0.25467 0.59887 0.0
C1246 C 0.39316 0.28245 0.62077 0.0
C1247 C 0.36425 0.27004 0.57683 0.0
C1248 C 0.38155 0.26073 0.62124 0.0
C1249 C 0.3707 0.30813 0.55389 0.0
O1250 O 0.38885 0.39348 0.49529 0.0
O1251 O 0.37014 0.35814 0.49831 0.0
C1252 C 0.38058 0.37442 0.48372 0.0
O1253 O 0.33477 0.36547 0.53916 0.0
O1254 O 0.39749 0.44091 0.52657 0.0
O1255 O 0.36005 0.44586 0.53 0.0
O1256 O 0.33963 0.4005 0.51641 0.0
C1257 C 0.32628 0.38339 0.5255 0.0
O1258 O 0.36645 0.36955 0.5859 0.0
O1259 O 0.35339 0.40586 0.57233 0.0
O1260 O 0.40159 0.40164 0.56599 0.0
O1261 O 0.35296 0.32206 0.55742 0.0
O1262 O 0.38847 0.31879 0.54264 0.0
O1263 O 0.40911 0.36452 0.55163 0.0
C1264 C 0.38124 0.47328 0.50295 0.0
C1265 C 0.36952 0.47015 0.47789 0.0
C1266 C 0.39543 0.51095 0.48684 0.0
C1267 C 0.37067 0.48743 0.45747 0.0
C1268 C 0.3942 0.49375 0.50721 0.0
C1269 C 0.38367 0.50806 0.4617 0.0
C1270 C 0.38019 0.45572 0.52512 0.0
C1271 C 0.35481 0.38897 0.59066 0.0
H1272 H 0.39873 0.31477 0.59903 0.0
H1273 H 0.35832 0.23796 0.59835 0.0
H1274 H 0.40419 0.28769 0.63776 0.0
H1275 H 0.3529 0.26503 0.56002 0.0
H1276 H 0.35951 0.45439 0.47413 0.0
H1277 H 0.40535 0.52669 0.49095 0.0
H1278 H 0.36164 0.48452 0.43823 0.0
H1279 H 0.40332 0.49651 0.52643 0.0
H1280 H 0.28485 0.09981 0.18765 0.0
H1281 H 0.27202 0.17407 0.18422 0.0
H1282 H 0.30203 0.17838 0.14884 0.0
H1283 H 0.33083 0.16082 0.11753 0.0
H1284 H 0.34246 0.08631 0.11965 0.0
H1285 H 0.31446 0.08241 0.15729 0.0
C1286 C 0.28879 0.11697 0.17935 0.0
C1287 C 0.27613 0.13657 0.18852 0.0
C1288 C 0.30599 0.1193 0.15889 0.0
C1289 C 0.28125 0.15864 0.17727 0.0
C1290 C 0.29854 0.16115 0.15717 0.0
C1291 C 0.32758 0.14379 0.12659 0.0
C1292 C 0.33886 0.1239 0.11594 0.0
C1293 C 0.31091 0.14158 0.14768 0.0
C1294 C 0.33407 0.1019 0.12753 0.0
C1295 C 0.31797 0.09964 0.14898 0.0
H1296 H 0.10762 0.08749 0.37627 0.0
H1297 H 0.18241 0.08692 0.36432 0.0
H1298 H 0.18662 0.05779 0.40066 0.0
H1299 H 0.16891 0.03098 0.43427 0.0
H1300 H 0.09402 0.03059 0.44494 0.0
H1301 H 0.09005 0.0616 0.41077 0.0
C1302 C 0.1249 0.08133 0.38194 0.0
C1303 C 0.14467 0.08946 0.36762 0.0
C1304 C 0.12716 0.06417 0.40244 0.0
C1305 C 0.16688 0.08099 0.375 0.0
C1306 C 0.16931 0.06423 0.39571 0.0
C1307 C 0.15172 0.03759 0.42899 0.0
C1308 C 0.1318 0.02842 0.44211 0.0
C1309 C 0.14954 0.05537 0.4092 0.0
C1310 C 0.10967 0.03746 0.43534 0.0
C1311 C 0.10737 0.05516 0.41574 0.0
H1312 H 0.21913 0.88143 0.70306 0.0
H1313 H 0.26496 0.92809 0.65874 0.0
H1314 H 0.23692 0.93008 0.62104 0.0
H1315 H 0.20025 0.9173 0.5998 0.0
H1316 H 0.15542 0.86883 0.64281 0.0
H1317 H 0.18222 0.86885 0.68191 0.0
C1318 C 0.22306 0.89193 0.68509 0.0
C1319 C 0.24416 0.90458 0.68378 0.0
C1320 C 0.20699 0.89277 0.66331 0.0
C1321 C 0.24876 0.9184 0.66049 0.0
C1322 C 0.23277 0.91947 0.63884 0.0
C1323 C 0.19611 0.90704 0.61792 0.0
C1324 C 0.17576 0.89322 0.61848 0.0
C1325 C 0.21189 0.90666 0.63999 0.0
C1326 C 0.17093 0.87967 0.64189 0.0
C1327 C 0.18629 0.87961 0.66421 0.0
H1328 H 0.35392 0.95112 0.84774 0.0
H1329 H 0.40866 0.90956 0.88442 0.0
H1330 H 0.40992 0.93615 0.92373 0.0
H1331 H 0.39601 0.97171 0.94711 0.0
H1332 H 0.34172 0.01334 0.9097 0.0
H1333 H 0.34002 0.98633 0.87098 0.0
C1334 C 0.36596 0.94765 0.86447 0.0
C1335 C 0.381 0.9282 0.86326 0.0
C1336 C 0.36685 0.96318 0.88672 0.0
C1337 C 0.39681 0.92432 0.88488 0.0
C1338 C 0.39757 0.93955 0.90734 0.0
C1339 C 0.38366 0.97474 0.9306 0.0
C1340 C 0.369 0.99452 0.93133 0.0
C1341 C 0.38274 0.9591 0.9084 0.0
C1342 C 0.35338 0.99842 0.90952 0.0
C1343 C 0.35228 0.98289 0.88746 0.0
H1344 H 0.30907 0.90952 0.45862 0.0
H1345 H 0.35583 0.86062 0.41944 0.0
H1346 H 0.3306 0.85975 0.37893 0.0
H1347 H 0.29476 0.8721 0.35517 0.0
H1348 H 0.24679 0.919 0.39583 0.0
H1349 H 0.27318 0.92165 0.43501 0.0
C1350 C 0.31391 0.89889 0.44109 0.0
C1351 C 0.33441 0.88528 0.44199 0.0
C1352 C 0.29907 0.89807 0.41812 0.0
C1353 C 0.34018 0.87129 0.41927 0.0
C1354 C 0.32574 0.87076 0.39611 0.0
C1355 C 0.28995 0.88278 0.37265 0.0
C1356 C 0.26875 0.89535 0.37238 0.0
C1357 C 0.30501 0.88389 0.39543 0.0
C1358 C 0.26311 0.90942 0.39514 0.0
C1359 C 0.27813 0.91083 0.4177 0.0
H1360 H 0.34268 0.02655 0.62287 0.0
H1361 H 0.41633 0.03165 0.60477 0.0
H1362 H 0.42074 0.06203 0.63962 0.0
H1363 H 0.40408 0.08564 0.67695 0.0
H1364 H 0.33051 0.07976 0.69571 0.0
H1365 H 0.32569 0.05136 0.65885 0.0
C1366 C 0.3597 0.03425 0.62665 0.0
C1367 C 0.37915 0.02675 0.61134 0.0
C1368 C 0.36213 0.05165 0.64679 0.0
C1369 C 0.40103 0.0372 0.61614 0.0
C1370 C 0.40359 0.05453 0.63613 0.0
C1371 C 0.38691 0.07846 0.6727 0.0
C1372 C 0.36771 0.08485 0.68916 0.0
C1373 C 0.38429 0.06177 0.65173 0.0
C1374 C 0.34563 0.07515 0.68346 0.0
C1375 C 0.34285 0.05881 0.66243 0.0
H1376 H 0.19753 0.09737 0.95758 0.0
H1377 H 0.15415 0.14949 0.91864 0.0
H1378 H 0.18066 0.15057 0.8793 0.0
H1379 H 0.21728 0.13839 0.8572 0.0
H1380 H 0.26111 0.08693 0.8966 0.0
H1381 H 0.23349 0.08424 0.93475 0.0
C1382 C 0.19364 0.10867 0.94028 0.0
C1383 C 0.17379 0.12322 0.94099 0.0
C1384 C 0.20925 0.10962 0.91802 0.0
C1385 C 0.16927 0.13807 0.9186 0.0
C1386 C 0.18447 0.13877 0.89614 0.0
C1387 C 0.22065 0.12635 0.87395 0.0
C1388 C 0.24128 0.1129 0.87401 0.0
C1389 C 0.20469 0.12488 0.89581 0.0
C1390 C 0.24555 0.09771 0.89617 0.0
C1391 C 0.22967 0.09603 0.91791 0.0
H1392 H 0.10199 0.93726 0.19111 0.0
H1393 H 0.1761 0.92294 0.19028 0.0
H1394 H 0.18117 0.95039 0.1521 0.0
H1395 H 0.16456 0.97969 0.11997 0.0
H1396 H 0.09045 0.99378 0.12216 0.0
H1397 H 0.08547 0.96524 0.15887 0.0
C1398 C 0.1193 0.93996 0.18256 0.0
C1399 C 0.13865 0.92803 0.1937 0.0
C1400 C 0.12212 0.9559 0.16092 0.0
C1401 C 0.16086 0.93176 0.1821 0.0
C1402 C 0.1638 0.94759 0.16036 0.0
C1403 C 0.14736 0.97655 0.1286 0.0
C1404 C 0.1279 0.98884 0.11827 0.0
C1405 C 0.14458 0.96 0.14983 0.0
C1406 C 0.10568 0.98439 0.12947 0.0
C1407 C 0.10281 0.96812 0.15055 0.0
H1408 H 0.71883 0.87033 0.8514 0.0
H1409 H 0.76113 0.92456 0.88781 0.0
H1410 H 0.73365 0.92771 0.92599 0.0
H1411 H 0.6984 0.91429 0.94975 0.0
H1412 H 0.65644 0.85937 0.9142 0.0
H1413 H 0.68273 0.85767 0.87464 0.0
C1414 C 0.72188 0.88304 0.86751 0.0
C1415 C 0.74208 0.89713 0.86675 0.0
C1416 C 0.706 0.88475 0.88947 0.0
C1417 C 0.74593 0.91326 0.88805 0.0
C1418 C 0.73013 0.9152 0.90981 0.0
C1419 C 0.69473 0.90221 0.93315 0.0
C1420 C 0.67534 0.8871 0.93487 0.0
C1421 C 0.71019 0.90094 0.9108 0.0
C1422 C 0.67117 0.87125 0.91337 0.0
C1423 C 0.68625 0.87021 0.89078 0.0
H1424 H 0.89424 0.9703 0.60954 0.0
H1425 H 0.84229 0.01323 0.64939 0.0
H1426 H 0.84113 0.98617 0.68816 0.0
H1427 H 0.85458 0.95037 0.71056 0.0
H1428 H 0.90695 0.90743 0.67146 0.0
H1429 H 0.90795 0.9343 0.6323 0.0
C1430 C 0.88253 0.97363 0.62661 0.0
C1431 C 0.86834 0.99377 0.62651 0.0
C1432 C 0.8819 0.95793 0.64884 0.0
C1433 C 0.85357 0.99803 0.64905 0.0
C1434 C 0.85278 0.98247 0.67114 0.0
C1435 C 0.86605 0.94669 0.69336 0.0
C1436 C 0.88048 0.92674 0.69381 0.0
C1437 C 0.86679 0.96235 0.67119 0.0
C1438 C 0.89559 0.92258 0.67158 0.0
C1439 C 0.89618 0.93796 0.64921 0.0
H1440 H 0.78482 0.09549 0.36665 0.0
H1441 H 0.77262 0.16992 0.36707 0.0
H1442 H 0.80208 0.17485 0.40294 0.0
H1443 H 0.83021 0.15786 0.43547 0.0
H1444 H 0.84118 0.08322 0.43639 0.0
H1445 H 0.81372 0.0786 0.39836 0.0
C1446 C 0.78878 0.11281 0.37441 0.0
C1447 C 0.77647 0.13229 0.36425 0.0
C1448 C 0.80564 0.11551 0.39518 0.0
C1449 C 0.78161 0.15459 0.37479 0.0
C1450 C 0.79856 0.15745 0.39518 0.0
C1451 C 0.82692 0.14063 0.42701 0.0
C1452 C 0.83787 0.12093 0.43862 0.0
C1453 C 0.81058 0.13802 0.40566 0.0
C1454 C 0.83304 0.09868 0.42778 0.0
C1455 C 0.81726 0.09601 0.4061 0.0
H1456 H 0.6283 0.04466 0.10018 0.0
H1457 H 0.67932 1.00028 0.1395 0.0
H1458 H 0.6821 0.02771 0.17778 0.0
H1459 H 0.66909 0.06363 0.20085 0.0
H1460 H 0.61732 0.10748 0.16204 0.0
H1461 H 0.61625 0.08123 0.1225 0.0
C1462 C 0.64027 0.04112 0.11693 0.0
C1463 C 0.65355 0.02038 0.11691 0.0
C1464 C 0.64177 0.05697 0.13891 0.0
C1465 C 0.66865 0.01593 0.1391 0.0
C1466 C 0.67038 0.0317 0.16093 0.0
C1467 C 0.65789 0.0677 0.18352 0.0
C1468 C 0.64345 0.08762 0.18433 0.0
C1469 C 0.65693 0.05221 0.16113 0.0
C1470 C 0.62868 0.09233 0.16192 0.0
C1471 C 0.62799 0.07726 0.13934 0.0
H1472 H 0.73511 0.09315 0.67725 0.0
H1473 H 0.73175 0.16732 0.69283 0.0
H1474 H 0.70129 0.17156 0.65809 0.0
H1475 H 0.67672 0.15454 0.62199 0.0
H1476 H 0.68087 0.08052 0.60535 0.0
H1477 H 0.70976 0.07593 0.64182 0.0
C1478 C 0.72781 0.11026 0.67291 0.0
C1479 C 0.73576 0.12988 0.68763 0.0
C1480 C 0.71033 0.1126 0.6528 0.0
C1481 C 0.72583 0.15188 0.68203 0.0
C1482 C 0.70844 0.15434 0.66209 0.0
C1483 C 0.68364 0.13733 0.62659 0.0
C1484 C 0.67654 0.11791 0.61093 0.0
C1485 C 0.70061 0.13485 0.64728 0.0
C1486 C 0.68598 0.09579 0.61704 0.0
C1487 C 0.7026 0.09314 0.63784 0.0
H1488 H 0.66161 0.98402 0.42844 0.0
H1489 H 0.58699 0.98163 0.44103 0.0
H1490 H 0.58348 0.9508 0.4066 0.0
H1491 H 0.60136 0.92585 0.37132 0.0
H1492 H 0.67591 0.92917 0.35787 0.0
H1493 H 0.67966 0.95818 0.39425 0.0
C1494 C 0.64457 0.97685 0.42352 0.0
C1495 C 0.6246 0.9852 0.43721 0.0
C1496 C 0.64266 0.9592 0.40361 0.0
C1497 C 0.60268 0.97541 0.43095 0.0
C1498 C 0.60064 0.95782 0.4112 0.0
C1499 C 0.61848 0.93262 0.37663 0.0
C1500 C 0.63831 0.9253 0.36184 0.0
C1501 C 0.62049 0.94967 0.39727 0.0
C1502 C 0.66033 0.93449 0.36885 0.0
C1503 C 0.6625 0.95117 0.38961 0.0
H1504 H 0.81334 0.91274 0.09963 0.0
H1505 H 0.85653 0.85952 0.13673 0.0
H1506 H 0.8298 0.8573 0.17585 0.0
H1507 H 0.79346 0.86951 0.19869 0.0
H1508 H 0.74921 0.92103 0.15993 0.0
H1509 H 0.77725 0.92507 0.1225 0.0
C1510 C 0.81712 0.90089 0.11646 0.0
C1511 C 0.83699 0.88642 0.11533 0.0
C1512 C 0.80142 0.89932 0.13855 0.0
C1513 C 0.84138 0.87088 0.1371 0.0
C1514 C 0.82607 0.86956 0.15945 0.0
C1515 C 0.78983 0.8815 0.18197 0.0
C1516 C 0.76919 0.89494 0.18223 0.0
C1517 C 0.80586 0.88347 0.1602 0.0
C1518 C 0.76506 0.91069 0.16055 0.0
C1519 C 0.78103 0.91293 0.13901 0.0
H1520 H 0.90485 0.08577 0.87808 0.0
H1521 H 0.83171 0.0763 0.85909 0.0
H1522 H 0.82799 0.04838 0.89675 0.0
H1523 H 0.84586 0.02523 0.93383 0.0
H1524 H 0.91913 0.03412 0.95208 0.0
H1525 H 0.92235 0.06371 0.9161 0.0
C1526 C 0.88798 0.0779 0.88239 0.0
C1527 C 0.8686 0.08321 0.86569 0.0
C1528 C 0.88601 0.06155 0.90385 0.0
C1529 C 0.84696 0.0726 0.87154 0.0
C1530 C 0.84482 0.05652 0.89303 0.0
C1531 C 0.86255 0.03358 0.92984 0.0
C1532 C 0.88222 0.02739 0.94561 0.0
C1533 C 0.86431 0.05057 0.90904 0.0
C1534 C 0.90365 0.03867 0.94045 0.0
C1535 C 0.90553 0.05555 0.91979 0.0
H1536 H 0.78536 0.59785 0.68835 0.0
H1537 H 0.77041 0.67175 0.6864 0.0
H1538 H 0.79939 0.67719 0.64999 0.0
H1539 H 0.82786 0.66064 0.61741 0.0
H1540 H 0.84157 0.58645 0.61836 0.0
H1541 H 0.81464 0.58153 0.65688 0.0
C1542 C 0.78864 0.61519 0.6802 0.0
C1543 C 0.7757 0.63435 0.69009 0.0
C1544 C 0.80522 0.61816 0.65917 0.0
C1545 C 0.77991 0.65666 0.67894 0.0
C1546 C 0.79659 0.6598 0.65824 0.0
C1547 C 0.82528 0.64346 0.62638 0.0
C1548 C 0.83683 0.62396 0.61512 0.0
C1549 C 0.80924 0.64065 0.64805 0.0
C1550 C 0.83293 0.60176 0.62666 0.0
C1551 C 0.81746 0.59891 0.64862 0.0
H1552 H 0.60287 0.57389 0.86298 0.0
H1553 H 0.67532 0.59438 0.87006 0.0
H1554 H 0.68038 0.56753 0.90853 0.0
H1555 H 0.66485 0.53672 0.93864 0.0
H1556 H 0.59274 0.51564 0.93086 0.0
H1557 H 0.58695 0.54433 0.89428 0.0
C1558 C 0.6197 0.57277 0.87314 0.0
C1559 C 0.63869 0.58613 0.8635 0.0
C1560 C 0.62263 0.55701 0.895 0.0
C1561 C 0.66039 0.58429 0.87693 0.0
C1562 C 0.66335 0.56886 0.8989 0.0
C1563 C 0.6479 0.53835 0.92884 0.0
C1564 C 0.62929 0.52399 0.93734 0.0
C1565 C 0.64472 0.55482 0.90776 0.0
C1566 C 0.60731 0.52659 0.9248 0.0
C1567 C 0.604 0.54294 0.90383 0.0
H1568 H 0.68831 0.35235 0.11545 0.0
H1569 H 0.67662 0.42687 0.11676 0.0
H1570 H 0.70442 0.43102 0.1545 0.0
H1571 H 0.73351 0.4138 0.18561 0.0
H1572 H 0.74645 0.33953 0.18317 0.0
H1573 H 0.71696 0.335 0.14722 0.0
C1574 C 0.69157 0.36944 0.12431 0.0
C1575 C 0.68029 0.38926 0.11346 0.0
C1576 C 0.70807 0.37179 0.14554 0.0
C1577 C 0.68505 0.41134 0.12478 0.0
C1578 C 0.701 0.41375 0.14631 0.0
C1579 C 0.72971 0.39659 0.17739 0.0
C1580 C 0.74219 0.37705 0.18704 0.0
C1581 C 0.71285 0.39414 0.15661 0.0
C1582 C 0.7373 0.35491 0.17587 0.0
C1583 C 0.72033 0.35228 0.15544 0.0
H1584 H 0.88839 0.46978 0.44883 0.0
H1585 H 0.83612 0.51245 0.40917 0.0
H1586 H 0.83438 0.4849 0.3709 0.0
H1587 H 0.84855 0.44935 0.34806 0.0
H1588 H 0.90145 0.40714 0.3873 0.0
H1589 H 0.90166 0.43357 0.42668 0.0
C1590 C 0.87639 0.47291 0.43199 0.0
C1591 C 0.86243 0.4932 0.4319 0.0
C1592 C 0.87549 0.457 0.41005 0.0
C1593 C 0.84729 0.49716 0.40963 0.0
C1594 C 0.84616 0.48132 0.38782 0.0
C1595 C 0.85987 0.4457 0.36541 0.0
C1596 C 0.87488 0.4262 0.36477 0.0
C1597 C 0.86027 0.46126 0.38774 0.0
C1598 C 0.8897 0.42199 0.38726 0.0
C1599 C 0.88988 0.43714 0.40976 0.0
H1600 H 0.79531 0.37246 0.85534 0.0
H1601 H 0.7497 0.42012 0.89842 0.0
H1602 H 0.77722 0.42176 0.93662 0.0
H1603 H 0.81332 0.40848 0.95861 0.0
H1604 H 0.858 0.3591 0.91695 0.0
H1605 H 0.83165 0.35923 0.87739 0.0
C1606 C 0.7913 0.38309 0.87316 0.0
C1607 C 0.77042 0.39615 0.87394 0.0
C1608 C 0.80705 0.38369 0.89527 0.0
C1609 C 0.76575 0.41014 0.89704 0.0
C1610 C 0.78142 0.41099 0.91898 0.0
C1611 C 0.81751 0.398 0.94072 0.0
C1612 C 0.8377 0.38393 0.94064 0.0
C1613 C 0.80206 0.39777 0.91836 0.0
C1614 C 0.8426 0.37012 0.9175 0.0
C1615 C 0.82752 0.37015 0.89491 0.0
H1616 H 0.84946 0.56111 0.20533 0.0
H1617 H 0.89849 0.60623 0.16364 0.0
H1618 H 0.9 0.57897 0.12498 0.0
H1619 H 0.8882 0.5418 0.10366 0.0
H1620 H 0.84091 0.49583 0.14691 0.0
H1621 H 0.83775 0.52411 0.18416 0.0
C1622 C 0.86021 0.56521 0.1876 0.0
C1623 C 0.87366 0.58582 0.18726 0.0
C1624 C 0.8614 0.54923 0.16577 0.0
C1625 C 0.88788 0.59055 0.16438 0.0
C1626 C 0.8888 0.57493 0.1423 0.0
C1627 C 0.87733 0.53786 0.12131 0.0
C1628 C 0.86479 0.51665 0.12235 0.0
C1629 C 0.87584 0.55409 0.14292 0.0
C1630 C 0.8505 0.5121 0.14527 0.0
C1631 C 0.84877 0.52823 0.1667 0.0
H1632 H 0.72753 0.59221 0.36685 0.0
H1633 H 0.74292 0.66604 0.36838 0.0
H1634 H 0.71336 0.67189 0.40399 0.0
H1635 H 0.68405 0.65579 0.43584 0.0
H1636 H 0.6698 0.5817 0.43535 0.0
H1637 H 0.69756 0.5763 0.39776 0.0
C1638 C 0.72424 0.60962 0.37477 0.0
C1639 C 0.73746 0.62864 0.365 0.0
C1640 C 0.70729 0.61284 0.39532 0.0
C1641 C 0.73322 0.65104 0.37579 0.0
C1642 C 0.7162 0.65443 0.39602 0.0
C1643 C 0.68672 0.63853 0.42717 0.0
C1644 C 0.67477 0.6192 0.43825 0.0
C1645 C 0.70321 0.63544 0.40605 0.0
C1646 C 0.67876 0.59687 0.42715 0.0
C1647 C 0.6947 0.59375 0.40573 0.0
H1648 H 0.60196 0.4343 0.69 0.0
H1649 H 0.67595 0.41993 0.68684 0.0
H1650 H 0.68037 0.44722 0.64855 0.0
H1651 H 0.6636 0.47669 0.61756 0.0
H1652 H 0.5899 0.49229 0.62187 0.0
H1653 H 0.58503 0.46327 0.65833 0.0
C1654 C 0.61897 0.43684 0.6806 0.0
C1655 C 0.63857 0.42496 0.69109 0.0
C1656 C 0.6215 0.45307 0.65908 0.0
C1657 C 0.66059 0.42882 0.67909 0.0
C1658 C 0.66314 0.44448 0.65725 0.0
C1659 C 0.64643 0.47357 0.62629 0.0
C1660 C 0.62716 0.48667 0.61702 0.0
C1661 C 0.64378 0.45695 0.64734 0.0
C1662 C 0.60509 0.48266 0.62886 0.0
C1663 C 0.60225 0.46595 0.64958 0.0
H1664 H 0.20334 0.40867 0.45685 0.0
H1665 H 0.15854 0.35658 0.42028 0.0
H1666 H 0.18444 0.35448 0.38032 0.0
H1667 H 0.22014 0.36713 0.35618 0.0
H1668 H 0.26583 0.41757 0.39454 0.0
H1669 H 0.23902 0.42082 0.43325 0.0
C1670 C 0.19903 0.39706 0.44 0.0
C1671 C 0.17889 0.38298 0.44142 0.0
C1672 C 0.2142 0.39561 0.41743 0.0
C1673 C 0.17388 0.36767 0.41964 0.0
C1674 C 0.18871 0.36644 0.39682 0.0
C1675 C 0.22435 0.37869 0.3731 0.0
C1676 C 0.24498 0.39217 0.37228 0.0
C1677 C 0.20902 0.38021 0.3956 0.0
C1678 C 0.24992 0.40729 0.39429 0.0
C1679 C 0.23467 0.40907 0.41656 0.0
H1680 H 0.40942 0.43139 0.18238 0.0
H1681 H 0.33447 0.42387 0.18711 0.0
H1682 H 0.32975 0.45143 0.14912 0.0
H1683 H 0.34681 0.47945 0.11631 0.0
H1684 H 0.42168 0.48817 0.11302 0.0
H1685 H 0.4265 0.45862 0.14885 0.0
C1686 C 0.39207 0.43545 0.17478 0.0
C1687 C 0.37233 0.42542 0.18746 0.0
C1688 C 0.38945 0.45185 0.15345 0.0
C1689 C 0.34996 0.43127 0.17769 0.0
C1690 C 0.34724 0.44711 0.15602 0.0
C1691 C 0.36419 0.47471 0.12325 0.0
C1692 C 0.38385 0.48609 0.11203 0.0
C1693 C 0.36684 0.4578 0.14403 0.0
C1694 C 0.40623 0.47994 0.12154 0.0
C1695 C 0.40902 0.46292 0.14191 0.0
H1696 H 0.28609 0.59216 0.86435 0.0
H1697 H 0.25384 0.65867 0.88224 0.0
H1698 H 0.28225 0.66564 0.91859 0.0
H1699 H 0.31586 0.65296 0.94547 0.0
H1700 H 0.34832 0.58634 0.92868 0.0
H1701 H 0.32047 0.57955 0.89134 0.0
C1702 C 0.28539 0.60825 0.87609 0.0
C1703 C 0.26772 0.62481 0.8706 0.0
C1704 C 0.3019 0.61221 0.89701 0.0
C1705 C 0.26694 0.64544 0.88627 0.0
C1706 C 0.28331 0.64953 0.90694 0.0
C1707 C 0.31709 0.63701 0.93354 0.0
C1708 C 0.33433 0.62025 0.93985 0.0
C1709 C 0.30083 0.63306 0.91249 0.0
C1710 C 0.33533 0.59959 0.92426 0.0
C1711 C 0.31935 0.59567 0.90294 0.0
H1712 H 0.16681 0.56804 0.70002 0.0
H1713 H 0.1059 0.60299 0.66741 0.0
H1714 H 0.1061 0.57677 0.6278 0.0
H1715 H 0.12264 0.54283 0.60342 0.0
H1716 H 0.18267 0.50735 0.6373 0.0
H1717 H 0.18378 0.53503 0.67536 0.0
C1718 C 0.15373 0.57022 0.68411 0.0
C1719 C 0.13641 0.58757 0.68672 0.0
C1720 C 0.15369 0.55486 0.66168 0.0
C1721 C 0.11948 0.58985 0.66596 0.0
C1722 C 0.11952 0.57479 0.64333 0.0
C1723 C 0.13591 0.54112 0.6192 0.0
C1724 C 0.15254 0.52302 0.6175 0.0
C1725 C 0.13634 0.55701 0.64119 0.0
C1726 C 0.16983 0.52126 0.63791 0.0
C1727 C 0.17041 0.53701 0.65976 0.0
H1728 H 0.18033 0.66027 0.11823 0.0
H1729 H 0.17128 0.58548 0.11362 0.0
H1730 H 0.19922 0.58015 0.15109 0.0
H1731 H 0.22812 0.59661 0.18309 0.0
H1732 H 0.23839 0.67129 0.18614 0.0
H1733 H 0.20831 0.67677 0.15111 0.0
C1734 C 0.18412 0.64283 0.12579 0.0
C1735 C 0.17361 0.6233 0.11332 0.0
C1736 C 0.20074 0.63985 0.14673 0.0
C1737 C 0.17909 0.60079 0.12296 0.0
C1738 C 0.19514 0.59772 0.14429 0.0
C1739 C 0.22359 0.61409 0.17627 0.0
C1740 C 0.23554 0.6335 0.18712 0.0
C1741 C 0.20639 0.6171 0.15599 0.0
C1742 C 0.22969 0.65604 0.17783 0.0
C1743 C 0.21238 0.6592 0.15794 0.0
H1744 H 0.10251 0.43436 0.86679 0.0
H1745 H 0.17765 0.4281 0.86378 0.0
H1746 H 0.18138 0.45666 0.90078 0.0
H1747 H 0.16345 0.48504 0.93221 0.0
H1748 H 0.08842 0.4925 0.93407 0.0
H1749 H 0.08451 0.4621 0.89911 0.0
C1750 C 0.11968 0.43896 0.87455 0.0
C1751 C 0.13977 0.42902 0.86265 0.0
C1752 C 0.12173 0.45589 0.89534 0.0
C1753 C 0.16191 0.43548 0.8726 0.0
C1754 C 0.16406 0.45187 0.8937 0.0
C1755 C 0.14623 0.47985 0.92515 0.0
C1756 C 0.12627 0.49108 0.93569 0.0
C1757 C 0.14413 0.46246 0.90493 0.0
C1758 C 0.1041 0.48436 0.92604 0.0
C1759 C 0.10183 0.46687 0.90618 0.0
H1760 H 0.31667 0.41616 0.59912 0.0
H1761 H 0.3604 0.36465 0.63858 0.0
H1762 H 0.33403 0.3639 0.67812 0.0
H1763 H 0.29759 0.37649 0.70042 0.0
H1764 H 0.25274 0.42618 0.6594 0.0
H1765 H 0.28069 0.42923 0.62172 0.0
C1766 C 0.32068 0.40507 0.61658 0.0
C1767 C 0.34056 0.39059 0.61597 0.0
C1768 C 0.30514 0.40427 0.63889 0.0
C1769 C 0.34524 0.376 0.63855 0.0
C1770 C 0.33013 0.37551 0.66112 0.0
C1771 C 0.29383 0.38788 0.68317 0.0
C1772 C 0.27301 0.40104 0.68281 0.0
C1773 C 0.30981 0.38926 0.66129 0.0
C1774 C 0.26871 0.41605 0.66047 0.0
C1775 C 0.28464 0.41772 0.6388 0.0
H1776 H 0.34853 0.52486 0.42926 0.0
H1777 H 0.42224 0.53282 0.44557 0.0
H1778 H 0.42488 0.56325 0.41051 0.0
H1779 H 0.40663 0.58668 0.37402 0.0
H1780 H 0.33309 0.57795 0.35686 0.0
H1781 H 0.33009 0.54888 0.39337 0.0
C1782 C 0.3652 0.53314 0.42502 0.0
C1783 C 0.38514 0.52649 0.44008 0.0
C1784 C 0.36665 0.55061 0.4047 0.0
C1785 C 0.40654 0.53771 0.43455 0.0
C1786 C 0.4081 0.55509 0.41441 0.0
C1787 C 0.38986 0.57868 0.37848 0.0
C1788 C 0.37012 0.58461 0.36265 0.0
C1789 C 0.38829 0.56164 0.39929 0.0
C1790 C 0.3486 0.57379 0.36863 0.0
C1791 C 0.34686 0.55707 0.38949 0.0
H1792 H 0.11405 0.25168 0.39495 0.0
H1793 H 0.17591 0.22616 0.43578 0.0
H1794 H 0.18052 0.19591 0.40079 0.0
H1795 H 0.16611 0.1757 0.35972 0.0
H1796 H 0.10351 0.20036 0.31959 0.0
H1797 H 0.10028 0.23212 0.3529 0.0
C1798 C 0.1287 0.23968 0.39598 0.0
C1799 C 0.14457 0.24115 0.41801 0.0
C1800 C 0.13111 0.22216 0.37591 0.0
C1801 C 0.16329 0.22524 0.41924 0.0
C1802 C 0.16599 0.208 0.39917 0.0
C1803 C 0.15189 0.18816 0.35803 0.0
C1804 C 0.1351 0.18562 0.3371 0.0
C1805 C 0.14988 0.20614 0.37757 0.0
C1806 C 0.11669 0.20186 0.33545 0.0
C1807 C 0.11479 0.22002 0.35455 0.0
H1808 H 0.06938 0.85436 0.585 0.0
H1809 H 0.08428 0.92775 0.5962 0.0
H1810 H 0.05483 0.93006 0.63217 0.0
H1811 H 0.02651 0.91095 0.66251 0.0
H1812 H 0.01153 0.83759 0.65237 0.0
H1813 H 0.03901 0.83564 0.61386 0.0
C1814 C 0.06593 0.87093 0.59502 0.0
C1815 C 0.07919 0.89082 0.58792 0.0
C1816 C 0.04903 0.87213 0.61609 0.0
C1817 C 0.0745 0.91211 0.60127 0.0
C1818 C 0.05766 0.91347 0.62195 0.0
C1819 C 0.02928 0.89452 0.6519 0.0
C1820 C 0.01715 0.8744 0.66052 0.0
C1821 C 0.04516 0.89351 0.62991 0.0
C1822 C 0.02058 0.85336 0.64613 0.0
C1823 C 0.03638 0.85222 0.62417 0.0
H1824 H 0.4062 0.81855 0.83356 0.0
H1825 H 0.3338 0.83792 0.84385 0.0
H1826 H 0.329 0.80771 0.87881 0.0
H1827 H 0.34587 0.77738 0.90847 0.0
H1828 H 0.41852 0.7587 0.89947 0.0
H1829 H 0.42275 0.78711 0.86222 0.0
C1830 C 0.3893 0.81594 0.84318 0.0
C1831 C 0.37039 0.83047 0.83605 0.0
C1832 C 0.38676 0.79882 0.86376 0.0
C1833 C 0.34867 0.82703 0.84897 0.0
C1834 C 0.3459 0.80977 0.86903 0.0
C1835 C 0.36254 0.77929 0.8981 0.0
C1836 C 0.38185 0.76595 0.90679 0.0
C1837 C 0.3649 0.7958 0.87687 0.0
C1838 C 0.40344 0.76893 0.8934 0.0
C1839 C 0.40585 0.7851 0.87201 0.0
H1840 H 0.42942 0.09184 0.09759 0.0
H1841 H 0.44996 0.15836 0.06325 0.0
H1842 H 0.48268 0.16049 0.09536 0.0
H1843 H 0.50411 0.14458 0.13503 0.0
H1844 H 0.48317 0.07836 0.1697 0.0
H1845 H 0.45219 0.07489 0.13544 0.0
C1846 C 0.44117 0.10671 0.09692 0.0
C1847 C 0.43711 0.12497 0.07809 0.0
C1848 C 0.45987 0.10792 0.1156 0.0
C1849 C 0.45262 0.14405 0.07749 0.0
C1850 C 0.47131 0.14533 0.09594 0.0
C1851 C 0.49277 0.12938 0.13506 0.0
C1852 C 0.4959 0.11182 0.15502 0.0
C1853 C 0.47486 0.12757 0.1154 0.0
C1854 C 0.4813 0.09204 0.15447 0.0
C1855 C 0.46347 0.09011 0.13497 0.0
H1856 H 0.09968 0.8373 0.19948 0.0
H1857 H 0.16619 0.82013 0.23628 0.0
H1858 H 0.17166 0.78871 0.20309 0.0
H1859 H 0.15851 0.76716 0.16226 0.0
H1860 H 0.09218 0.78429 0.12527 0.0
H1861 H 0.08561 0.81439 0.16004 0.0
C1862 C 0.11531 0.8266 0.2004 0.0
C1863 C 0.13254 0.83125 0.22035 0.0
C1864 C 0.11843 0.80852 0.18114 0.0
C1865 C 0.15261 0.81705 0.22122 0.0
C1866 C 0.15581 0.79907 0.20216 0.0
C1867 C 0.14263 0.7775 0.16179 0.0
C1868 C 0.12594 0.77355 0.14105 0.0
C1869 C 0.139 0.79485 0.18179 0.0
C1870 C 0.10525 0.78683 0.14107 0.0
C1871 C 0.10154 0.80415 0.16087 0.0
H1872 H 0.48893 0.90949 0.40121 0.0
H1873 H 0.49148 0.83437 0.39445 0.0
H1874 H 0.4618 0.83073 0.43047 0.0
H1875 H 0.43408 0.84907 0.46271 0.0
H1876 H 0.43056 0.92433 0.46769 0.0
H1877 H 0.46186 0.92774 0.43384 0.0
C1878 C 0.4832 0.89231 0.40789 0.0
C1879 C 0.49244 0.87222 0.39527 0.0
C1880 C 0.46595 0.89039 0.42829 0.0
C1881 C 0.48453 0.85009 0.40375 0.0
C1882 C 0.46762 0.84801 0.42439 0.0
C1883 C 0.44038 0.8662 0.45663 0.0
C1884 C 0.43006 0.88642 0.46778 0.0
C1885 C 0.45807 0.86806 0.43666 0.0
C1886 C 0.43817 0.90849 0.45938 0.0
C1887 C 0.45606 0.91047 0.44001 0.0
H1888 H 0.34718 0.23629 0.64696 0.0
H1889 H 0.42156 0.24847 0.64883 0.0
H1890 H 0.42578 0.21969 0.68577 0.0
H1891 H 0.4085 0.18922 0.71562 0.0
H1892 H 0.334 0.17708 0.71264 0.0
H1893 H 0.32976 0.20756 0.67811 0.0
C1894 C 0.36434 0.23261 0.65539 0.0
C1895 C 0.38404 0.24436 0.64491 0.0
C1896 C 0.36664 0.21596 0.67644 0.0
C1897 C 0.40608 0.23976 0.65654 0.0
C1898 C 0.40851 0.2232 0.67759 0.0
C1899 C 0.3913 0.19342 0.70766 0.0
C1900 C 0.37163 0.18068 0.71672 0.0
C1901 C 0.38894 0.21095 0.68747 0.0
C1902 C 0.3495 0.18641 0.70604 0.0
C1903 C 0.34702 0.20386 0.68621 0.0
H1904 H 0.07904 0.0948 0.96301 0.0
H1905 H 0.07172 0.16874 0.97862 0.0
H1906 H 0.03974 0.17087 0.94554 0.0
H1907 H 0.01509 0.15217 0.91036 0.0
H1908 H 0.02263 0.07833 0.89467 0.0
H1909 H 0.05304 0.07574 0.92973 0.0
C1910 C 0.07035 0.11137 0.95937 0.0
C1911 C 0.07792 0.13159 0.97327 0.0
C1912 C 0.052 0.11252 0.9402 0.0
C1913 C 0.0663 0.15286 0.96833 0.0
C1914 C 0.04804 0.15414 0.94929 0.0
C1915 C 0.02339 0.13551 0.91464 0.0
C1916 C 0.01663 0.11549 0.89979 0.0
C1917 C 0.04097 0.13415 0.9348 0.0
C1918 C 0.02732 0.09397 0.90592 0.0
C1919 C 0.04483 0.0925 0.92586 0.0
H1920 H 0.8483 0.84188 0.69454 0.0
H1921 H 0.9048 0.80909 0.73897 0.0
H1922 H 0.90511 0.77686 0.70613 0.0
H1923 H 0.89076 0.75901 0.66344 0.0
H1924 H 0.83526 0.79246 0.61816 0.0
H1925 H 0.83317 0.82344 0.65266 0.0
C1926 C 0.86054 0.82758 0.69723 0.0
C1927 C 0.87649 0.82793 0.71922 0.0
C1928 C 0.8609 0.80928 0.678 0.0
C1929 C 0.89234 0.80931 0.72222 0.0
C1930 C 0.89256 0.79086 0.70343 0.0
C1931 C 0.87798 0.77291 0.66136 0.0
C1932 C 0.86317 0.77344 0.63831 0.0
C1933 C 0.87711 0.7908 0.68107 0.0
C1934 C 0.84697 0.79177 0.63563 0.0
C1935 C 0.84573 0.80944 0.65537 0.0
H1936 H 0.99246 0.0964 0.40604 0.0
H1937 H 1.00171 0.17122 0.40723 0.0
H1938 H 0.97252 0.17463 0.44376 0.0
H1939 H 0.94268 0.15649 0.4735 0.0
H1940 H 0.93239 0.0818 0.4705 0.0
H1941 H 0.96394 0.07815 0.437 0.0
C1942 C 0.98835 0.11341 0.41459 0.0
C1943 C 0.99923 0.13352 0.4039 0.0
C1944 C 0.97135 0.11526 0.43531 0.0
C1945 C 0.99342 0.15549 0.41491 0.0
C1946 C 0.97679 0.15744 0.43587 0.0
C1947 C 0.94763 0.13939 0.46585 0.0
C1948 C 0.93524 0.11944 0.47453 0.0
C1949 C 0.96541 0.13747 0.44599 0.0
C1950 C 0.94163 0.09743 0.46412 0.0
C1951 C 0.95963 0.09533 0.44491 0.0
H1952 H 0.61299 0.24768 0.15934 0.0
H1953 H 0.68371 0.23485 0.13246 0.0
H1954 H 0.68814 0.20462 0.16755 0.0
H1955 H 0.67122 0.18023 0.2041 0.0
H1956 H 0.60041 0.19289 0.23095 0.0
H1957 H 0.59679 0.22472 0.19777 0.0
C1958 C 0.62937 0.23826 0.16117 0.0
C1959 C 0.64794 0.24347 0.14314 0.0
C1960 C 0.63179 0.22081 0.18139 0.0
C1961 C 0.66918 0.23136 0.14614 0.0
C1962 C 0.67169 0.21395 0.16613 0.0
C1963 C 0.65505 0.19008 0.20291 0.0
C1964 C 0.63609 0.18403 0.21999 0.0
C1965 C 0.65302 0.20833 0.18365 0.0
C1966 C 0.61532 0.19711 0.21815 0.0
C1967 C 0.61319 0.21529 0.19906 0.0
H1968 H 0.51326 0.86247 0.91448 0.0
H1969 H 0.5357 0.92557 0.87367 0.0
H1970 H 0.56565 0.93163 0.90874 0.0
H1971 H 0.58706 0.91773 0.94948 0.0
H1972 H 0.56475 0.85435 0.98997 0.0
H1973 H 0.53324 0.84976 0.95666 0.0
C1974 C 0.52472 0.87754 0.91325 0.0
C1975 C 0.52231 0.89345 0.89132 0.0
C1976 C 0.54199 0.88087 0.93345 0.0
C1977 C 0.53704 0.91312 0.89037 0.0
C1978 C 0.55427 0.91654 0.91036 0.0
C1979 C 0.57515 0.90305 0.95124 0.0
C1980 C 0.57842 0.88637 0.97221 0.0
C1981 C 0.55711 0.90037 0.93182 0.0
C1982 C 0.56274 0.86747 0.9741 0.0
C1983 C 0.54472 0.86476 0.95496 0.0
H1984 H 0.85259 0.23399 0.90696 0.0
H1985 H 0.9268 0.246 0.9008 0.0
H1986 H 0.92927 0.21794 0.86284 0.0
H1987 H 0.91056 0.18771 0.83379 0.0
H1988 H 0.83622 0.17595 0.8412 0.0
H1989 H 0.83363 0.20616 0.87618 0.0
C1990 C 0.86932 0.23047 0.89729 0.0
C1991 C 0.88953 0.24179 0.9069 0.0
C1992 C 0.87059 0.21429 0.87573 0.0
C1993 C 0.91099 0.23748 0.89377 0.0
C1994 C 0.91241 0.22137 0.87216 0.0
C1995 C 0.89375 0.192 0.84277 0.0
C1996 C 0.87366 0.17939 0.83497 0.0
C1997 C 0.89236 0.20935 0.86326 0.0
C1998 C 0.85202 0.18519 0.84691 0.0
C1999 C 0.85049 0.20247 0.86698 0.0
H2000 H 0.51689 0.1025 0.64544 0.0
H2001 H 0.51928 0.17686 0.65967 0.0
H2002 H 0.54964 0.18104 0.62452 0.0
H2003 H 0.57694 0.16311 0.59123 0.0
H2004 H 0.57531 0.08841 0.57899 0.0
H2005 H 0.54304 0.08488 0.61146 0.0
C2006 C 0.52379 0.11968 0.64055 0.0
C2007 C 0.51579 0.13934 0.65511 0.0
C2008 C 0.54144 0.12188 0.62065 0.0
C2009 C 0.52526 0.16142 0.64889 0.0
C2010 C 0.54257 0.16382 0.62874 0.0
C2011 C 0.56928 0.14613 0.59541 0.0
C2012 C 0.57851 0.12606 0.58268 0.0
C2013 C 0.551 0.14412 0.61468 0.0
C2014 C 0.5686 0.10412 0.58857 0.0
C2015 C 0.55014 0.10207 0.60717 0.0
H2016 H 0.6657 0.83532 0.35239 0.0
H2017 H 0.59897 0.81344 0.31995 0.0
H2018 H 0.59761 0.78134 0.35301 0.0
H2019 H 0.61436 0.76061 0.39283 0.0
H2020 H 0.68083 0.7829 0.42549 0.0
H2021 H 0.68317 0.81368 0.39083 0.0
C2022 C 0.65093 0.82343 0.35233 0.0
C2023 C 0.63247 0.8269 0.33362 0.0
C2024 C 0.6501 0.80512 0.37166 0.0
C2025 C 0.61346 0.81128 0.33404 0.0
C2026 C 0.61263 0.79289 0.35302 0.0
C2027 C 0.62951 0.77199 0.39213 0.0
C2028 C 0.64733 0.76945 0.41191 0.0
C2029 C 0.63071 0.7898 0.37215 0.0
C2030 C 0.66669 0.78461 0.41084 0.0
C2031 C 0.6681 0.80218 0.39092 0.0
H2032 H 0.93015 0.91915 0.10113 0.0
H2033 H 0.94076 0.84615 0.08233 0.0
H2034 H 0.97146 0.84388 0.11704 0.0
H2035 H 0.99433 0.86225 0.1541 0.0
H2036 H 0.98366 0.9352 0.17266 0.0
H2037 H 0.9541 0.93787 0.13662 0.0
C2038 C 0.93927 0.90276 0.10447 0.0
C2039 C 0.93306 0.88285 0.08915 0.0
C2040 C 0.95688 0.90154 0.12452 0.0
C2041 C 0.94518 0.8618 0.09371 0.0
C2042 C 0.9627 0.86044 0.11367 0.0
C2043 C 0.98549 0.8787 0.15024 0.0
C2044 C 0.99113 0.89847 0.16609 0.0
C2045 C 0.9685 0.88012 0.12943 0.0
C2046 C 0.97979 0.91978 0.16061 0.0
C2047 C 0.9628 0.92129 0.14008 0.0
H2048 H 0.66627 0.67473 0.85197 0.0
H2049 H 0.59967 0.69555 0.81815 0.0
H2050 H 0.59779 0.72822 0.85029 0.0
H2051 H 0.61392 0.74956 0.88979 0.0
H2052 H 0.67969 0.72785 0.92476 0.0
H2053 H 0.683 0.69683 0.89045 0.0
C2054 C 0.65147 0.68658 0.85136 0.0
C2055 C 0.63316 0.68266 0.83261 0.0
C2056 C 0.65025 0.70507 0.87029 0.0
C2057 C 0.614 0.69808 0.83238 0.0
C2058 C 0.61289 0.71678 0.85079 0.0
C2059 C 0.62913 0.73823 0.88964 0.0
C2060 C 0.64653 0.74099 0.90979 0.0
C2061 C 0.63075 0.72025 0.87009 0.0
C2062 C 0.66596 0.72595 0.90961 0.0
C2063 C 0.66789 0.70826 0.88996 0.0
H2064 H 0.57225 0.35497 0.08702 0.0
H2065 H 0.5905 0.4278 0.09659 0.0
H2066 H 0.56071 0.43225 0.1318 0.0
H2067 H 0.53077 0.41536 0.16149 0.0
H2068 H 0.5123 0.34262 0.1533 0.0
H2069 H 0.54056 0.33834 0.11578 0.0
C2070 C 0.56951 0.37185 0.0966 0.0
C2071 C 0.58375 0.39096 0.08921 0.0
C2072 C 0.55236 0.37432 0.1172 0.0
C2073 C 0.57997 0.41272 0.10193 0.0
C2074 C 0.56292 0.41532 0.12214 0.0
C2075 C 0.53299 0.39853 0.15158 0.0
C2076 C 0.51966 0.37928 0.1604 0.0
C2077 C 0.54929 0.39619 0.13025 0.0
C2078 C 0.52233 0.35773 0.14688 0.0
C2079 C 0.53856 0.35526 0.1255 0.0
H2080 H 0.85026 0.33831 0.35489 0.0
H2081 H 0.91567 0.31626 0.31901 0.0
H2082 H 0.91757 0.28347 0.35114 0.0
H2083 H 0.90162 0.26214 0.39092 0.0
H2084 H 0.83684 0.28498 0.4275 0.0
H2085 H 0.83381 0.31643 0.39367 0.0
C2086 C 0.86485 0.32623 0.35388 0.0
C2087 C 0.88278 0.32979 0.33448 0.0
C2088 C 0.86603 0.30763 0.3727 0.0
C2089 C 0.90161 0.314 0.33368 0.0
C2090 C 0.90274 0.29524 0.3521 0.0
C2091 C 0.88669 0.27382 0.39125 0.0
C2092 C 0.86949 0.27123 0.41173 0.0
C2093 C 0.88518 0.29203 0.37189 0.0
C2094 C 0.85043 0.28674 0.41213 0.0
C2095 C 0.84865 0.30468 0.39274 0.0
H2096 H 0.92643 0.59521 0.59805 0.0
H2097 H 0.94631 0.66092 0.5611 0.0
H2098 H 0.97823 0.66491 0.59401 0.0
H2099 H 0.99916 0.65092 0.63501 0.0
H2100 H 0.979 0.58551 0.67232 0.0
H2101 H 0.94879 0.58013 0.63741 0.0
C2102 C 0.93789 0.6103 0.59697 0.0
C2103 C 0.93383 0.62779 0.57713 0.0
C2104 C 0.95615 0.6126 0.61616 0.0
C2105 C 0.94895 0.64718 0.57609 0.0
C2106 C 0.96719 0.64953 0.59501 0.0
C2107 C 0.98815 0.63548 0.6355 0.0
C2108 C 0.99127 0.61873 0.65641 0.0
C2109 C 0.9707 0.63257 0.61543 0.0
C2110 C 0.97712 0.59862 0.65641 0.0
C2111 C 0.95973 0.59559 0.63652 0.0
H2112 H 0.60235 0.32336 0.71411 0.0
H2113 H 0.67745 0.32991 0.71808 0.0
H2114 H 0.6818 0.29876 0.68435 0.0
H2115 H 0.66443 0.27109 0.65185 0.0
H2116 H 0.58943 0.26515 0.64622 0.0
H2117 H 0.58489 0.29465 0.68224 0.0
C2118 C 0.61966 0.31775 0.70784 0.0
C2119 C 0.63954 0.32896 0.71867 0.0
C2120 C 0.62206 0.30007 0.68791 0.0
C2121 C 0.66184 0.32166 0.71005 0.0
C2122 C 0.66437 0.30384 0.69072 0.0
C2123 C 0.64708 0.27601 0.65877 0.0
C2124 C 0.6273 0.2659 0.64638 0.0
C2125 C 0.64462 0.29313 0.67924 0.0
C2126 C 0.60494 0.27281 0.65525 0.0
C2127 C 0.60234 0.28961 0.67592 0.0
H2128 H 0.93884 0.34767 0.96229 0.0
H2129 H 0.93347 0.42274 0.96865 0.0
H2130 H 0.96429 0.42736 0.9344 0.0
H2131 H 0.9913 0.41023 0.90077 0.0
H2132 H 0.99587 0.33526 0.89302 0.0
H2133 H 0.96679 0.33047 0.92945 0.0
C2134 C 0.94464 0.36503 0.95646 0.0
C2135 C 0.93387 0.38483 0.96812 0.0
C2136 C 0.96208 0.3676 0.93625 0.0
C2137 C 0.9414 0.4072 0.96 0.0
C2138 C 0.95902 0.40988 0.94037 0.0
C2139 C 0.98617 0.39284 0.90731 0.0
C2140 C 0.99577 0.37314 0.89415 0.0
C2141 C 0.96927 0.39022 0.92808 0.0
C2142 C 0.9886 0.35072 0.90259 0.0
C2143 C 0.97204 0.34797 0.92351 0.0
H2144 H 0.84535 0.7348 0.14146 0.0
H2145 H 0.91705 0.75525 0.15457 0.0
H2146 H 0.91988 0.72805 0.19326 0.0
H2147 H 0.90263 0.69653 0.22158 0.0
H2148 H 0.83109 0.6758 0.20723 0.0
H2149 H 0.82762 0.70496 0.17095 0.0
C2150 C 0.86164 0.73326 0.15271 0.0
C2151 C 0.88102 0.74691 0.1449 0.0
C2152 C 0.86319 0.71748 0.17478 0.0
C2153 C 0.90182 0.74505 0.16016 0.0
C2154 C 0.90348 0.7294 0.18223 0.0
C2155 C 0.88618 0.69864 0.2108 0.0
C2156 C 0.86717 0.68389 0.21713 0.0
C2157 C 0.88435 0.71531 0.18955 0.0
C2158 C 0.84604 0.6868 0.20276 0.0
C2159 C 0.84403 0.70346 0.18193 0.0
H2160 H 0.57428 0.66129 0.46457 0.0
H2161 H 0.57655 0.58586 0.46529 0.0
H2162 H 0.54424 0.58439 0.43261 0.0
H2163 H 0.51684 0.60445 0.40194 0.0
H2164 H 0.51577 0.67978 0.39899 0.0
H2165 H 0.54616 0.68144 0.43439 0.0
C2166 C 0.56747 0.64454 0.45784 0.0
C2167 C 0.57772 0.62371 0.46739 0.0
C2168 C 0.54925 0.64383 0.4385 0.0
C2169 C 0.56898 0.60214 0.45818 0.0
C2170 C 0.55052 0.60128 0.43949 0.0
C2171 C 0.52304 0.62123 0.40935 0.0
C2172 C 0.51405 0.64197 0.39803 0.0
C2173 C 0.54074 0.622 0.42925 0.0
C2174 C 0.52253 0.66359 0.40738 0.0
C2175 C 0.53985 0.66453 0.42762 0.0
H2176 H 0.40143 0.26308 0.16167 0.0
H2177 H 0.33636 0.28552 0.12551 0.0
H2178 H 0.33293 0.31653 0.15979 0.0
H2179 H 0.34914 0.33816 0.19873 0.0
H2180 H 0.41498 0.31677 0.23405 0.0
H2181 H 0.41723 0.28426 0.20161 0.0
C2182 C 0.38637 0.27459 0.16154 0.0
C2183 C 0.36917 0.27203 0.14108 0.0
C2184 C 0.38466 0.29256 0.18112 0.0
C2185 C 0.34992 0.28728 0.14089 0.0
C2186 C 0.34792 0.30495 0.16053 0.0
C2187 C 0.3639 0.32628 0.19957 0.0
C2188 C 0.38185 0.32992 0.21889 0.0
C2189 C 0.3653 0.3079 0.18055 0.0
C2190 C 0.40091 0.31441 0.21944 0.0
C2191 C 0.40224 0.29582 0.20085 0.0
H2192 H 0.49798 0.60154 0.9065 0.0
H2193 H 0.47813 0.66712 0.86929 0.0
H2194 H 0.44796 0.67258 0.90409 0.0
H2195 H 0.42619 0.65824 0.9439 0.0
H2196 H 0.44549 0.59265 0.9815 0.0
H2197 H 0.47709 0.58795 0.94807 0.0
C2198 C 0.48725 0.61717 0.90621 0.0
C2199 C 0.49025 0.63378 0.88506 0.0
C2200 C 0.4698 0.62022 0.92637 0.0
C2201 C 0.47599 0.65382 0.88495 0.0
C2202 C 0.45878 0.65704 0.90496 0.0
C2203 C 0.43736 0.64294 0.94499 0.0
C2204 C 0.43331 0.62579 0.96525 0.0
C2205 C 0.45534 0.64024 0.92556 0.0
C2206 C 0.44812 0.60616 0.96622 0.0
C2207 C 0.46618 0.60342 0.94702 0.0
H2208 H 0.11826 0.75415 0.67242 0.0
H2209 H 0.18113 0.73024 0.63234 0.0
H2210 H 0.185 0.69876 0.666 0.0
H2211 H 0.16892 0.67632 0.70474 0.0
H2212 H 0.10557 0.69989 0.74423 0.0
H2213 H 0.10354 0.73315 0.71293 0.0
C2214 C 0.13283 0.74206 0.67109 0.0
C2215 C 0.14928 0.74445 0.64977 0.0
C2216 C 0.13482 0.72387 0.69036 0.0
C2217 C 0.1683 0.72891 0.64863 0.0
C2218 C 0.17044 0.7108 0.66778 0.0
C2219 C 0.1548 0.68886 0.70672 0.0
C2220 C 0.13734 0.68547 0.72673 0.0
C2221 C 0.15359 0.70788 0.68846 0.0
C2222 C 0.11923 0.70198 0.72901 0.0
C2223 C 0.118 0.721 0.71104 0.0
H2224 H 0.03169 0.41672 0.39398 0.0
H2225 H 0.00965 0.34544 0.40678 0.0
H2226 H 0.03713 0.34168 0.4451 0.0
H2227 H 0.06931 0.35805 0.4731 0.0
H2228 H 0.09145 0.42924 0.45893 0.0
H2229 H 0.06213 0.43356 0.42309 0.0
C2230 C 0.03295 0.40032 0.40508 0.0
C2231 C 0.01883 0.38131 0.39731 0.0
C2232 C 0.04886 0.39825 0.42688 0.0
C2233 C 0.02028 0.36036 0.41237 0.0
C2234 C 0.03607 0.35818 0.43421 0.0
C2235 C 0.06749 0.3746 0.46243 0.0
C2236 C 0.08268 0.39325 0.46867 0.0
C2237 C 0.05068 0.37693 0.44144 0.0
C2238 C 0.08014 0.41453 0.45449 0.0
C2239 C 0.06337 0.41704 0.43392 0.0
H2240 H 0.34664 0.73351 0.41412 0.0
H2241 H 0.41896 0.75283 0.40346 0.0
H2242 H 0.42242 0.72541 0.36509 0.0
H2243 H 0.40537 0.69427 0.33617 0.0
H2244 H 0.33303 0.67497 0.34782 0.0
H2245 H 0.32921 0.70395 0.38411 0.0
C2246 C 0.3632 0.73167 0.40348 0.0
C2247 C 0.38256 0.74506 0.41186 0.0
C2248 C 0.36509 0.71581 0.38157 0.0
C2249 C 0.40374 0.74282 0.3974 0.0
C2250 C 0.40576 0.72706 0.37552 0.0
C2251 C 0.3887 0.69658 0.34643 0.0
C2252 C 0.36956 0.6823 0.33926 0.0
C2253 C 0.38661 0.71325 0.3676 0.0
C2254 C 0.34811 0.68557 0.3529 0.0
C2255 C 0.34588 0.70215 0.37375 0.0
H2256 H 0.08613 0.60166 0.10195 0.0
H2257 H 0.06587 0.66795 0.06676 0.0
H2258 H 0.03315 0.67048 0.09888 0.0
H2259 H 0.01148 0.65483 0.13855 0.0
H2260 H 0.03263 0.58923 0.17454 0.0
H2261 H 0.06388 0.58552 0.14057 0.0
C2262 C 0.07444 0.61657 0.10107 0.0
C2263 C 0.07848 0.63457 0.0819 0.0
C2264 C 0.05591 0.61812 0.11991 0.0
C2265 C 0.06321 0.65383 0.08127 0.0
C2266 C 0.0445 0.65532 0.09968 0.0
C2267 C 0.02275 0.63959 0.13871 0.0
C2268 C 0.01977 0.62234 0.15905 0.0
C2269 C 0.04084 0.6377 0.11929 0.0
C2270 C 0.03472 0.60284 0.15926 0.0
C2271 C 0.05253 0.60068 0.1398 0.0
H2272 H 0.10495 0.3222 0.83953 0.0
H2273 H 0.17822 0.33916 0.84778 0.0
H2274 H 0.18246 0.30955 0.88328 0.0
H2275 H 0.16534 0.27991 0.91337 0.0
H2276 H 0.09219 0.26276 0.90619 0.0
H2277 H 0.08805 0.29107 0.8687 0.0
C2278 C 0.12189 0.31928 0.8489 0.0
C2279 C 0.14119 0.33307 0.84098 0.0
C2280 C 0.12425 0.3022 0.8696 0.0
C2281 C 0.163 0.32898 0.85346 0.0
C2282 C 0.16548 0.31202 0.87384 0.0
C2283 C 0.14845 0.28243 0.9037 0.0
C2284 C 0.12906 0.26942 0.91278 0.0
C2285 C 0.14619 0.29877 0.88234 0.0
C2286 C 0.10742 0.2725 0.89955 0.0
C2287 C 0.10502 0.28877 0.8782 0.0
H2288 H 0.49657 0.35901 0.64896 0.0
H2289 H 0.4863 0.43139 0.67067 0.0
H2290 H 0.45696 0.43537 0.6345 0.0
H2291 H 0.43268 0.41776 0.5983 0.0
H2292 H 0.44285 0.34524 0.57681 0.0
H2293 H 0.47369 0.34193 0.61117 0.0
C2294 C 0.48789 0.37565 0.64579 0.0
C2295 C 0.49357 0.39483 0.66265 0.0
C2296 C 0.47096 0.37781 0.62497 0.0
C2297 C 0.48243 0.41638 0.65791 0.0
C2298 C 0.46554 0.41864 0.6373 0.0
C2299 C 0.44177 0.40127 0.60092 0.0
C2300 C 0.43531 0.38177 0.58495 0.0
C2301 C 0.45947 0.39941 0.62089 0.0
C2302 C 0.4474 0.36058 0.58869 0.0
C2303 C 0.46502 0.35862 0.60846 0.0
H2304 H 0.10647 0.04442 0.30284 0.0
H2305 H 0.16603 0.05174 0.24893 0.0
H2306 H 0.17068 0.00926 0.24796 0.0
H2307 H 0.15788 0.9702 0.26251 0.0
H2308 H 0.09796 0.96306 0.31582 0.0
H2309 H 0.09365 1.00556 0.31725 0.0
C2310 C 0.1204 0.03681 0.29068 0.0
C2311 C 0.13583 0.05132 0.27588 0.0
C2312 C 0.1231 0.01246 0.29041 0.0
C2313 C 0.15384 0.04103 0.26042 0.0
C2314 C 0.15659 0.01674 0.25997 0.0
C2315 C 0.14406 0.97793 0.27476 0.0
C2316 C 0.12838 0.96349 0.28927 0.0
C2317 C 0.14141 1.00232 0.27504 0.0
C2318 C 0.1103 0.97379 0.30458 0.0
C2319 C 0.10778 0.99807 0.30531 0.0
H2320 H 0.21899 0.87976 0.5703 0.0
H2321 H 0.21119 0.88067 0.48229 0.0
H2322 H 0.25383 0.87985 0.47674 0.0
H2323 H 0.2931 0.87807 0.49713 0.0
H2324 H 0.30126 0.88155 0.58497 0.0
H2325 H 0.25853 0.88166 0.59069 0.0
C2326 C 0.22673 0.87974 0.54996 0.0
C2327 C 0.21222 0.87989 0.52667 0.0
C2328 C 0.25115 0.88009 0.54704 0.0
C2329 C 0.2222 0.88041 0.50039 0.0
C2330 C 0.24648 0.87991 0.49727 0.0
C2331 C 0.28543 0.87887 0.5175 0.0
C2332 C 0.30003 0.87945 0.54067 0.0
C2333 C 0.26108 0.87961 0.52045 0.0
C2334 C 0.29017 0.88098 0.56695 0.0
C2335 C 0.26584 0.88097 0.57016 0.0
H2336 H 0.3585 0.96554 0.78561 0.0
H2337 H 0.43043 0.96062 0.76 0.0
H2338 H 0.43387 1.00338 0.76078 0.0
H2339 H 0.41624 0.04195 0.76865 0.0
H2340 H 0.34492 0.04662 0.79729 0.0
H2341 H 0.34158 1.00407 0.79617 0.0
C2342 C 0.37479 0.97394 0.77981 0.0
C2343 C 0.39403 0.96022 0.772 0.0
C2344 C 0.37684 0.99836 0.78139 0.0
C2345 C 0.41533 0.97103 0.76555 0.0
C2346 C 0.41731 0.99539 0.76619 0.0
C2347 C 0.4 0.03368 0.77486 0.0
C2348 C 0.38083 0.0475 0.78293 0.0
C2349 C 0.39819 0.00921 0.77416 0.0
C2350 C 0.36001 0.03645 0.79113 0.0
C2351 C 0.358 0.01211 0.79026 0.0
H2352 H 0.22003 0.16387 1.0245 0.0
H2353 H 0.21255 0.09105 0.04623 0.0
H2354 H 0.25502 0.08634 0.04541 0.0
H2355 H 0.29436 0.10281 0.03749 0.0
H2356 H 0.30155 0.17602 1.01811 0.0
H2357 H 0.25903 0.18061 1.01848 0.0
C2358 C 0.22766 0.14698 0.02925 0.0
C2359 C 0.21311 0.12785 0.03537 0.0
C2360 C 0.25202 0.14439 0.02869 0.0
C2361 C 0.22333 0.10613 0.04165 0.0
C2362 C 0.24762 0.10336 0.04094 0.0
C2363 C 0.28652 0.11965 0.033 0.0
C2364 C 0.30088 0.13898 0.0273 0.0
C2365 C 0.26211 0.12231 0.03416 0.0
C2366 C 0.2907 0.16089 1.02228 0.0
C2367 C 0.26646 0.16353 1.02263 0.0
H2368 H 0.91044 0.0391 0.79931 0.0
H2369 H 0.84636 0.04496 0.75288 0.0
H2370 H 0.8414 1.00258 0.75462 0.0
H2371 H 0.85538 0.96378 0.76917 0.0
H2372 H 0.9206 0.95781 0.81278 0.0
H2373 H 0.92472 1.00049 0.81306 0.0
C2374 C 0.89542 0.03117 0.78943 0.0
C2375 C 0.87881 0.04526 0.77597 0.0
C2376 C 0.89264 0.00683 0.79056 0.0
C2377 C 0.85949 0.03458 0.76327 0.0
C2378 C 0.85653 0.01034 0.76444 0.0
C2379 C 0.87017 0.97197 0.77927 0.0
C2380 C 0.88737 0.95798 0.79164 0.0
C2381 C 0.87289 0.99633 0.77821 0.0
C2382 C 0.90698 0.96847 0.8037 0.0
C2383 C 0.90941 0.99276 0.8036 0.0
H2384 H 0.71912 0.16329 0.52715 0.0
H2385 H 0.71221 0.09019 0.50662 0.0
H2386 H 0.75468 0.08574 0.50776 0.0
H2387 H 0.7938 0.10239 0.51617 0.0
H2388 H 0.80061 0.17583 0.53428 0.0
H2389 H 0.75806 0.18032 0.53308 0.0
C2390 C 0.72688 0.1464 0.52269 0.0
C2391 C 0.71249 0.12709 0.51691 0.0
C2392 C 0.75126 0.14396 0.52347 0.0
C2393 C 0.72287 0.10539 0.51096 0.0
C2394 C 0.74715 0.10278 0.51187 0.0
C2395 C 0.78586 0.11927 0.5202 0.0
C2396 C 0.80009 0.13868 0.52588 0.0
C2397 C 0.76149 0.12185 0.51853 0.0
C2398 C 0.78983 0.16064 0.5302 0.0
C2399 C 0.76558 0.16322 0.52937 0.0
H2400 H 0.60361 0.04115 0.25327 0.0
H2401 H 0.67007 0.04819 0.29451 0.0
H2402 H 0.67494 1.0058 0.29423 0.0
H2403 H 0.6599 0.96652 0.28327 0.0
H2404 H 0.59237 0.95947 0.24501 0.0
H2405 H 0.58857 1.00208 0.24247 0.0
C2406 C 0.61914 0.03345 0.26229 0.0
C2407 C 0.63638 0.0479 0.27401 0.0
C2408 C 0.62181 0.00905 0.26218 0.0
C2409 C 0.6564 0.03754 0.28556 0.0
C2410 C 0.6593 0.01328 0.28524 0.0
C2411 C 0.64462 0.97442 0.27386 0.0
C2412 C 0.62662 0.96009 0.26385 0.0
C2413 C 0.64214 0.99886 0.27358 0.0
C2414 C 0.60654 0.97032 0.25249 0.0
C2415 C 0.6043 0.99462 0.25125 0.0
H2416 H 0.7205 0.90981 1.01402 0.0
H2417 H 0.71335 0.83654 0.03308 0.0
H2418 H 0.75589 0.83204 0.03305 0.0
H2419 H 0.79491 0.84894 0.02787 0.0
H2420 H 0.80244 0.92187 1.00667 0.0
H2421 H 0.75992 0.92639 1.00653 0.0
C2422 C 0.72837 0.89297 1.01851 0.0
C2423 C 0.714 0.87361 1.02411 0.0
C2424 C 0.7528 0.89038 1.01756 0.0
C2425 C 0.7242 0.8517 0.02905 0.0
C2426 C 0.74846 0.84911 0.02888 0.0
C2427 C 0.7873 0.86581 1.02299 0.0
C2428 C 0.80188 0.88505 1.01738 0.0
C2429 C 0.76291 0.86831 1.02309 0.0
C2430 C 0.79165 0.90672 1.0109 0.0
C2431 C 0.76733 0.90938 1.01107 0.0
H2432 H 0.65444 0.54123 0.79778 0.0
H2433 H 0.59926 0.54927 0.7381 0.0
H2434 H 0.59341 0.5069 0.73741 0.0
H2435 H 0.6038 0.46774 0.75401 0.0
H2436 H 0.65852 0.45988 0.81442 0.0
H2437 H 0.66444 0.50215 0.81486 0.0
C2438 C 0.64133 0.53371 0.78434 0.0
C2439 C 0.62748 0.54836 0.76776 0.0
C2440 C 0.63773 0.50943 0.78451 0.0
C2441 C 0.61023 0.53836 0.75094 0.0
C2442 C 0.60681 0.51416 0.75063 0.0
C2443 C 0.61688 0.47524 0.76751 0.0
C2444 C 0.63063 0.46059 0.78425 0.0
C2445 C 0.62035 0.49955 0.76748 0.0
C2446 C 0.64762 0.47069 0.8014 0.0
C2447 C 0.65111 0.49487 0.80157 0.0
H2448 H 0.79562 0.40349 1.01347 0.0
H2449 H 0.80166 0.33811 0.05684 0.0
H2450 H 0.75898 0.33399 0.05733 0.0
H2451 H 0.72022 0.34863 0.04443 0.0
H2452 H 0.71427 0.41297 0.99844 0.0
H2453 H 0.7567 0.41758 0.9993 0.0
C2454 C 0.78745 0.38862 1.02347 0.0
C2455 C 0.80147 0.37141 0.03577 0.0
C2456 C 0.76304 0.38594 1.02262 0.0
C2457 C 0.79099 0.35173 0.04777 0.0
C2458 C 0.76668 0.34931 0.04782 0.0
C2459 C 0.72816 0.36359 0.0344 0.0
C2460 C 0.71399 0.38041 1.02138 0.0
C2461 C 0.75256 0.36619 0.03504 0.0
C2462 C 0.72468 0.39968 1.00851 0.0
C2463 C 0.74896 0.40244 1.00917 0.0
H2464 H 0.85465 0.54443 0.26362 0.0
H2465 H 0.92729 0.55311 0.28474 0.0
H2466 H 0.93263 0.5106 0.28501 0.0
H2467 H 0.91643 0.47115 0.27975 0.0
H2468 H 0.84421 0.4625 0.25605 0.0
H2469 H 0.83903 0.50489 0.25558 0.0
C2470 C 0.87155 0.53691 0.2686 0.0
C2471 C 0.89045 0.55165 0.2748 0.0
C2472 C 0.87462 0.51257 0.26779 0.0
C2473 C 0.91247 0.54194 0.2803 0.0
C2474 C 0.91553 0.51771 0.28032 0.0
C2475 C 0.89959 0.47851 0.27427 0.0
C2476 C 0.88071 0.46364 0.26808 0.0
C2477 C 0.89672 0.50287 0.27408 0.0
C2478 C 0.85908 0.47351 0.26078 0.0
C2479 C 0.85603 0.49776 0.26074 0.0
H2480 H 0.71669 0.66268 0.51978 0.0
H2481 H 0.70967 0.59104 0.54653 0.0
H2482 H 0.75219 0.58673 0.54671 0.0
H2483 H 0.79146 0.60316 0.53818 0.0
H2484 H 0.79821 0.67537 0.51405 0.0
H2485 H 0.75563 0.67955 0.51338 0.0
C2486 C 0.72444 0.64616 0.52584 0.0
C2487 C 0.71002 0.62721 0.53307 0.0
C2488 C 0.74883 0.64381 0.52591 0.0
C2489 C 0.72037 0.60597 0.54106 0.0
C2490 C 0.74468 0.60342 0.54093 0.0
C2491 C 0.78349 0.61967 0.53246 0.0
C2492 C 0.79772 0.63883 0.52567 0.0
C2493 C 0.75906 0.62214 0.53307 0.0
C2494 C 0.78743 0.66037 0.51906 0.0
C2495 C 0.76316 0.66278 0.51881 0.0
H2496 H 0.35089 0.545 0.28544 0.0
H2497 H 0.42019 0.55346 0.25212 0.0
H2498 H 0.42565 0.51101 0.2519 0.0
H2499 H 0.41123 0.47194 0.26265 0.0
H2500 H 0.34255 0.46318 0.29814 0.0
H2501 H 0.33652 0.50547 0.29674 0.0
C2502 C 0.36694 0.53741 0.27759 0.0
C2503 C 0.38497 0.55206 0.26826 0.0
C2504 C 0.37025 0.51311 0.27857 0.0
C2505 C 0.40603 0.54231 0.259 0.0
C2506 C 0.40919 0.51814 0.2591 0.0
C2507 C 0.39495 0.47921 0.27024 0.0
C2508 C 0.37739 0.46437 0.28052 0.0
C2509 C 0.39155 0.50343 0.26921 0.0
C2510 C 0.35645 0.47419 0.2903 0.0
C2511 C 0.35289 0.49836 0.28929 0.0
H2512 H 0.29337 0.60521 1.00541 0.0
H2513 H 0.30249 0.66338 0.06085 0.0
H2514 H 0.26021 0.66929 0.06223 0.0
H2515 H 0.221 0.65827 0.04745 0.0
H2516 H 0.21151 0.6003 0.99177 0.0
H2517 H 0.25382 0.5942 0.99044 0.0
C2518 C 0.2861 0.61899 1.0181 0.0
C2519 C 0.30104 0.63371 0.03323 0.0
C2520 C 0.26182 0.62254 1.01843 0.0
C2521 C 0.29137 0.65176 0.04911 0.0
C2522 C 0.26721 0.65521 0.04982 0.0
C2523 C 0.22809 0.64438 0.0348 0.0
C2524 C 0.21303 0.62982 1.01962 0.0
C2525 C 0.25232 0.64082 0.0344 0.0
C2526 C 0.22266 0.61182 1.00358 0.0
C2527 C 0.24685 0.60826 1.00291 0.0
H2528 H 0.0954 0.46798 0.77841 0.0
H2529 H 0.16691 0.4617 0.75093 0.0
H2530 H 0.1709 0.5042 0.75097 0.0
H2531 H 0.15462 0.54317 0.7609 0.0
H2532 H 0.08261 0.54957 0.78578 0.0
H2533 H 0.07832 0.50693 0.78519 0.0
C2534 C 0.11179 0.47589 0.77215 0.0
C2535 C 0.13085 0.46164 0.76482 0.0
C2536 C 0.114 0.50033 0.7723 0.0
C2537 C 0.15191 0.47222 0.75655 0.0
C2538 C 0.15429 0.49653 0.75681 0.0
C2539 C 0.1381 0.53511 0.76648 0.0
C2540 C 0.11909 0.54923 0.77403 0.0
C2541 C 0.1356 0.51072 0.76515 0.0
C2542 C 0.09752 0.53886 0.78031 0.0
C2543 C 0.09506 0.51456 0.77983 0.0
H2544 H 0.21879 0.4089 0.5236 0.0
H2545 H 0.21308 0.33526 0.54128 0.0
H2546 H 0.25571 0.33144 0.53997 0.0
H2547 H 0.29436 0.34896 0.53341 0.0
H2548 H 0.30024 0.42224 0.51317 0.0
H2549 H 0.25769 0.42618 0.51516 0.0
C2550 C 0.22698 0.39213 0.5276 0.0
C2551 C 0.213 0.37246 0.53317 0.0
C2552 C 0.25141 0.38993 0.5258 0.0
C2553 C 0.22362 0.35065 0.53738 0.0
C2554 C 0.24792 0.34845 0.53644 0.0
C2555 C 0.28637 0.3658 0.52926 0.0
C2556 C 0.30052 0.38528 0.5232 0.0
C2557 C 0.26196 0.36794 0.5305 0.0
C2558 C 0.2898 0.4069 0.51769 0.0
C2559 C 0.26547 0.40923 0.51907 0.0
H2560 H 0.10605 0.11615 0.11001 0.0
H2561 H 0.15958 0.16914 0.10425 0.0
H2562 H 0.16104 0.17199 0.15414 0.0
H2563 H 0.14853 0.15822 0.19972 0.0
H2564 H 0.09397 0.10632 0.20565 0.0
H2565 H 0.09145 0.10447 0.1557 0.0
C2566 C 0.11791 0.12844 0.11966 0.0
C2567 C 0.13274 0.14231 0.10325 0.0
C2568 C 0.11854 0.13021 0.14854 0.0
C2569 C 0.14788 0.15826 0.11622 0.0
C2570 C 0.14882 0.15988 0.14485 0.0
C2571 C 0.13594 0.14664 0.19011 0.0
C2572 C 0.12155 0.13238 0.20656 0.0
C2573 C 0.13443 0.14576 0.16125 0.0
C2574 C 0.10525 0.11759 0.19363 0.0
C2575 C 0.10384 0.11642 0.16498 0.0
H2576 H 0.09734 0.88779 0.45032 0.0
H2577 H 0.16567 0.8567 0.45821 0.0
H2578 H 0.1697 0.85538 0.40833 0.0
H2579 H 0.15467 0.86485 0.36226 0.0
H2580 H 0.08496 0.89236 0.35363 0.0
H2581 H 0.08042 0.89309 0.40369 0.0
C2582 C 0.11296 0.88053 0.44102 0.0
C2583 C 0.1312 0.87242 0.45791 0.0
C2584 C 0.11491 0.87919 0.41215 0.0
C2585 C 0.15131 0.86289 0.44565 0.0
C2586 C 0.15368 0.86223 0.41711 0.0
C2587 C 0.13839 0.87072 0.37139 0.0
C2588 C 0.12021 0.87861 0.35434 0.0
C2589 C 0.13572 0.87055 0.40014 0.0
C2590 C 0.09914 0.88603 0.36636 0.0
C2591 C 0.0966 0.8866 0.39499 0.0
H2592 H 0.41467 0.89299 0.69486 0.0
H2593 H 0.35927 0.84305 0.70795 0.0
H2594 H 0.3554 0.8375 0.65845 0.0
H2595 H 0.36545 0.84916 0.61119 0.0
H2596 H 0.41885 0.90125 0.59803 0.0
H2597 H 0.42585 0.90349 0.64743 0.0
C2598 C 0.40207 0.88057 0.68688 0.0
C2599 C 0.38736 0.8684 0.70517 0.0
C2600 C 0.3994 0.87799 0.65821 0.0
C2601 C 0.37082 0.85267 0.6944 0.0
C2602 C 0.36854 0.84951 0.66603 0.0
C2603 C 0.37888 0.86073 0.61909 0.0
C2604 C 0.39161 0.87498 0.60081 0.0
C2605 C 0.3824 0.86242 0.64769 0.0
C2606 C 0.40872 0.89011 0.61154 0.0
C2607 C 0.41274 0.89143 0.63986 0.0
H2608 H 0.36728 0.15769 0.85602 0.0
H2609 H 0.41744 0.10157 0.85043 0.0
H2610 H 0.41991 0.09974 0.90043 0.0
H2611 H 0.40639 0.11276 0.94605 0.0
H2612 H 0.35794 0.17037 0.95162 0.0
H2613 H 0.35637 0.17297 0.90162 0.0
C2614 C 0.37891 0.14522 0.86574 0.0
C2615 C 0.39208 0.12976 0.84939 0.0
C2616 C 0.38051 0.14444 0.89463 0.0
C2617 C 0.40719 0.11379 0.8624 0.0
C2618 C 0.40853 0.11263 0.89107 0.0
C2619 C 0.39564 0.126 0.93632 0.0
C2620 C 0.38224 0.14127 0.95266 0.0
C2621 C 0.39507 0.12767 0.90743 0.0
C2622 C 0.36854 0.15844 0.93964 0.0
C2623 C 0.36753 0.1599 0.91098 0.0
H2624 H 0.9135 0.89442 0.86125 0.0
H2625 H 0.8585 0.84373 0.84982 0.0
H2626 H 0.85495 0.83896 0.89947 0.0
H2627 H 0.86551 0.85112 0.94632 0.0
H2628 H 0.91874 0.90367 0.95777 0.0
H2629 H 0.92498 0.90563 0.90822 0.0
C2630 C 0.901 0.88205 0.86961 0.0
C2631 C 0.88635 0.8694 0.85174 0.0
C2632 C 0.89859 0.87983 0.89832 0.0
C2633 C 0.87 0.85372 0.86302 0.0
C2634 C 0.86792 0.85099 0.89147 0.0
C2635 C 0.8787 0.86277 0.93802 0.0
C2636 C 0.89164 0.8772 0.95586 0.0
C2637 C 0.88184 0.86424 0.90936 0.0
C2638 C 0.90847 0.8924 0.94461 0.0
C2639 C 0.91206 0.89355 0.91621 0.0
H2640 H 0.86704 0.15659 0.69781 0.0
H2641 H 0.91686 0.10014 0.70328 0.0
H2642 H 0.91967 0.09869 0.65334 0.0
H2643 H 0.90651 0.11203 0.60779 0.0
H2644 H 0.85848 0.16996 0.60207 0.0
H2645 H 0.85663 0.17235 0.65211 0.0
C2646 C 0.87866 0.14412 0.68806 0.0
C2647 C 0.89163 0.12844 0.70439 0.0
C2648 C 0.88051 0.14359 0.65916 0.0
C2649 C 0.90674 0.11252 0.69135 0.0
C2650 C 0.9083 0.11158 0.66271 0.0
C2651 C 0.89581 0.12532 0.61748 0.0
C2652 C 0.88259 0.14072 0.60109 0.0
C2653 C 0.89506 0.12683 0.64637 0.0
C2654 C 0.86895 0.15795 0.61408 0.0
C2655 C 0.86777 0.15926 0.64277 0.0
H2656 H 0.60518 0.11579 0.44379 0.0
H2657 H 0.65911 0.16826 0.45017 0.0
H2658 H 0.66194 0.17023 0.40021 0.0
H2659 H 0.65052 0.15563 0.35437 0.0
H2660 H 0.59528 0.1045 0.34815 0.0
H2661 H 0.59157 0.10356 0.398 0.0
C2662 C 0.6174 0.12782 0.43427 0.0
C2663 C 0.63194 0.14178 0.45088 0.0
C2664 C 0.61882 0.12906 0.40537 0.0
C2665 C 0.64758 0.15736 0.43804 0.0
C2666 C 0.64932 0.15843 0.40938 0.0
C2667 C 0.63756 0.14441 0.36391 0.0
C2668 C 0.6233 0.1301 0.34736 0.0
C2669 C 0.63525 0.14415 0.39279 0.0
C2670 C 0.60648 0.1158 0.36021 0.0
C2671 C 0.60437 0.11516 0.38882 0.0
H2672 H 0.60731 0.89938 0.1047 0.0
H2673 H 0.65647 0.84234 0.09963 0.0
H2674 H 0.6566 0.83879 0.14958 0.0
H2675 H 0.64407 0.85295 0.19508 0.0
H2676 H 0.59316 0.90842 0.20012 0.0
H2677 H 0.59227 0.91134 0.15011 0.0
C2678 C 0.61793 0.88609 0.11454 0.0
C2679 C 0.63193 0.87124 0.09837 0.0
C2680 C 0.61763 0.88383 0.14338 0.0
C2681 C 0.64543 0.85396 0.11149 0.0
C2682 C 0.6456 0.85195 0.14012 0.0
C2683 C 0.63262 0.86552 0.18522 0.0
C2684 C 0.61875 0.88046 0.20142 0.0
C2685 C 0.63195 0.86693 0.15632 0.0
C2686 C 0.60391 0.89656 0.18824 0.0
C2687 C 0.60348 0.89836 0.15958 0.0
H2688 H 0.5975 0.61716 0.69169 0.0
H2689 H 0.65616 0.66357 0.70299 0.0
H2690 H 0.65871 0.66969 0.65346 0.0
H2691 H 0.64651 0.65927 0.60658 0.0
H2692 H 0.58989 0.61042 0.59512 0.0
H2693 H 0.58421 0.60802 0.64475 0.0
C2694 C 0.61056 0.62894 0.68333 0.0
C2695 C 0.62657 0.63993 0.70108 0.0
C2696 C 0.61242 0.63182 0.65465 0.0
C2697 C 0.64364 0.65485 0.68983 0.0
C2698 C 0.64514 0.65834 0.66146 0.0
C2699 C 0.63266 0.64843 0.61492 0.0
C2700 C 0.61862 0.6351 0.59709 0.0
C2701 C 0.62995 0.64655 0.64361 0.0
C2702 C 0.60098 0.62085 0.60833 0.0
C2703 C 0.59774 0.61943 0.63676 0.0
H2704 H 0.59989 0.39513 0.86084 0.0
H2705 H 0.65237 0.34193 0.84897 0.0
H2706 H 0.65552 0.33657 0.89857 0.0
H2707 H 0.64568 0.34906 0.94565 0.0
H2708 H 0.595 0.40398 0.9575 0.0
H2709 H 0.58879 0.40642 0.90798 0.0
C2710 C 0.61173 0.38208 0.86908 0.0
C2711 C 0.62582 0.36893 0.85105 0.0
C2712 C 0.61394 0.3795 0.89782 0.0
C2713 C 0.64131 0.35234 0.86225 0.0
C2714 C 0.64317 0.34928 0.89069 0.0
C2715 C 0.633 0.3613 0.93744 0.0
C2716 C 0.62082 0.37628 0.95544 0.0
C2717 C 0.62991 0.36306 0.90874 0.0
C2718 C 0.60468 0.39225 0.94426 0.0
C2719 C 0.60112 0.3937 0.91586 0.0
H2720 H 0.90939 0.3942 0.10659 0.0
H2721 H 0.8591 0.33803 0.10367 0.0
H2722 H 0.85782 0.33685 0.15378 0.0
H2723 H 0.86934 0.35329 0.19866 0.0
H2724 H 0.9209 0.40836 0.20133 0.0
H2725 H 0.92334 0.40833 0.15137 0.0
C2726 C 0.89832 0.38154 0.1169 0.0
C2727 C 0.8843 0.3663 0.10128 0.0
C2728 C 0.89778 0.38081 0.14581 0.0
C2729 C 0.87018 0.34991 0.11508 0.0
C2730 C 0.86932 0.3493 0.1438 0.0
C2731 C 0.88125 0.36515 0.18832 0.0
C2732 C 0.89482 0.38087 0.20386 0.0
C2733 C 0.8828 0.36489 0.15941 0.0
C2734 C 0.91028 0.39599 0.19003 0.0
C2735 C 0.91164 0.39607 0.16137 0.0
H2736 H 0.86023 0.65823 0.35483 0.0
H2737 H 0.91806 0.61014 0.34821 0.0
H2738 H 0.92062 0.60769 0.39814 0.0
H2739 H 0.90536 0.61786 0.44405 0.0
H2740 H 0.84947 0.66812 0.45077 0.0
H2741 H 0.84729 0.67109 0.40079 0.0
C2742 C 0.87352 0.64739 0.36433 0.0
C2743 C 0.88888 0.63437 0.3477 0.0
C2744 C 0.87521 0.64635 0.39321 0.0
C2745 C 0.9061 0.62051 0.36042 0.0
C2746 C 0.90751 0.61897 0.38905 0.0
C2747 C 0.89283 0.62957 0.43455 0.0
C2748 C 0.87755 0.64267 0.45117 0.0
C2749 C 0.892 0.6316 0.40569 0.0
C2750 C 0.86154 0.65793 0.43851 0.0
C2751 C 0.8602 0.65957 0.40988 0.0
H2752 H 0.36654 0.35706 0.35624 0.0
H2753 H 0.41925 0.41094 0.3518 0.0
H2754 H 0.42146 0.41212 0.40178 0.0
H2755 H 0.40726 0.39915 0.44708 0.0
H2756 H 0.3556 0.34427 0.45161 0.0
H2757 H 0.35432 0.34216 0.4016 0.0
C2758 C 0.37863 0.36894 0.36618 0.0
C2759 C 0.39263 0.38393 0.35011 0.0
C2760 C 0.38 0.36943 0.39511 0.0
C2761 C 0.40829 0.39911 0.36349 0.0
C2762 C 0.40953 0.39989 0.39217 0.0
C2763 C 0.39584 0.3866 0.43715 0.0
C2764 C 0.3815 0.37197 0.45326 0.0
C2765 C 0.39529 0.38531 0.40823 0.0
C2766 C 0.36692 0.35573 0.4399 0.0
C2767 C 0.36609 0.35455 0.4112 0.0
H2768 H 0.37389 0.66437 0.19463 0.0
H2769 H 0.40549 0.59651 0.20502 0.0
H2770 H 0.40769 0.59157 0.1553 0.0
H2771 H 0.3992 0.60578 0.10857 0.0
H2772 H 0.37117 0.67509 0.09759 0.0
H2773 H 0.36926 0.68036 0.14744 0.0
C2774 C 0.3814 0.64862 0.18592 0.0
C2775 C 0.38943 0.6308 0.20349 0.0
C2776 C 0.3833 0.64617 0.15712 0.0
C2777 C 0.39932 0.61055 0.19195 0.0
C2778 C 0.40051 0.60766 0.16349 0.0
C2779 C 0.39296 0.62214 0.11713 0.0
C2780 C 0.38532 0.63999 0.0994 0.0
C2781 C 0.3924 0.62525 0.14584 0.0
C2782 C 0.37737 0.66115 0.11078 0.0
C2783 C 0.37611 0.66411 0.13932 0.0
H2784 H 0.14829 0.65593 0.85456 0.0
H2785 H 0.08805 0.61058 0.85155 0.0
H2786 H 0.08569 0.61084 0.90166 0.0
H2787 H 0.1021 0.62221 0.9466 0.0
H2788 H 0.16129 0.66898 0.94928 0.0
H2789 H 0.16256 0.66997 0.89922 0.0
C2790 C 0.13451 0.64626 0.86484 0.0
C2791 C 0.11845 0.63315 0.84925 0.0
C2792 C 0.1331 0.64667 0.8937 0.0
C2793 C 0.1006 0.6209 0.86297 0.0
C2794 C 0.0993 0.62094 0.89168 0.0
C2795 C 0.11514 0.63279 0.93623 0.0
C2796 C 0.13164 0.64541 0.95177 0.0
C2797 C 0.11565 0.63351 0.9073 0.0
C2798 C 0.1483 0.65916 0.93793 0.0
C2799 C 0.14913 0.65966 0.90924 0.0
H2800 H 0.1021 0.39879 0.69559 0.0
H2801 H 0.15066 0.34197 0.70733 0.0
H2802 H 0.1532 0.33636 0.65768 0.0
H2803 H 0.14399 0.34948 0.61066 0.0
H2804 H 0.09773 0.40822 0.59901 0.0
H2805 H 0.09184 0.41105 0.64858 0.0
C2806 C 0.11293 0.38492 0.6873 0.0
C2807 C 0.12609 0.37077 0.70525 0.0
C2808 C 0.11487 0.38223 0.6586 0.0
C2809 C 0.14034 0.35314 0.69405 0.0
C2810 C 0.14185 0.34993 0.66561 0.0
C2811 C 0.13233 0.36266 0.61893 0.0
C2812 C 0.12128 0.37857 0.60103 0.0
C2813 C 0.12953 0.36464 0.64763 0.0
C2814 C 0.10651 0.39576 0.61223 0.0
C2815 C 0.10314 0.39742 0.64064 0.0
loop_
_geom_bond_atom_site_label_1
_geom_bond_atom_site_label_2
_geom_bond_distance
_geom_bond_site_symmetry_2
_ccdc_geom_bond_type
Eu0 C9 2.828 . S
Eu0 O11 2.392 . S
Eu0 O13 2.418 . S
Eu0 O18 2.373 . S
Eu0 O21 2.488 . S
Eu0 O22 2.471 . S
Eu0 O23 2.349 . S
Eu1 O10 2.373 . S
Eu1 O14 2.488 . S
Eu1 O15 2.471 . S
Eu1 O16 2.349 . S
Eu1 O19 2.392 . S
Eu1 O20 2.418 . S
Eu1 C30 2.828 . S
C2 O20 1.244 . S
C2 O23 1.265 . S
C3 C4 1.379 . S
C3 C7 1.373 . S
C3 C9 1.505 . S
C4 C3 1.379 . S
C4 C6 1.369 . S
C4 H32 0.930 . S
C5 C7 1.383 . S
C5 C8 1.382 . S
C5 H33 0.930 . S
C6 C4 1.369 . S
C6 C8 1.392 . S
C6 H34 0.930 . S
C7 C3 1.373 . S
C7 C5 1.383 . S
C7 H35 0.931 . S
C8 C5 1.382 . S
C8 C6 1.392 . S
C9 Eu0 2.828 . S
C9 C3 1.505 . S
C9 O21 1.249 . S
C9 O22 1.244 . S
O10 Eu1 2.373 . S
O10 C12 1.258 . S
O11 Eu0 2.392 . S
O11 C12 1.242 . S
C12 O10 1.258 . S
C12 O11 1.242 . S
O13 Eu0 2.418 . S
O13 C17 1.244 . S
O14 Eu1 2.488 . S
O14 C30 1.249 . S
O15 Eu1 2.471 . S
O15 C30 1.244 . S
O16 Eu1 2.349 . S
O16 C17 1.265 . S
C17 O13 1.244 . S
C17 O16 1.265 . S
O18 Eu0 2.373 . S
O18 C31 1.258 . S
O19 Eu1 2.392 . S
O19 C31 1.242 . S
O20 Eu1 2.418 . S
O20 C2 1.244 . S
O21 Eu0 2.488 . S
O21 C9 1.249 . S
O22 Eu0 2.471 . S
O22 C9 1.244 . S
O23 Eu0 2.349 . S
O23 C2 1.265 . S
C24 C25 1.379 . S
C24 C28 1.373 . S
C24 C30 1.505 . S
C25 C24 1.379 . S
C25 C27 1.369 . S
C25 H36 0.930 . S
C26 C28 1.383 . S
C26 C29 1.382 . S
C26 H37 0.930 1_455 S
C27 C25 1.369 . S
C27 C29 1.392 . S
C27 H38 0.930 . S
C28 C24 1.373 . S
C28 C26 1.383 . S
C28 H39 0.931 . S
C29 C26 1.382 . S
C29 C27 1.392 . S
C30 Eu1 2.828 . S
C30 O14 1.249 . S
C30 O15 1.244 . S
C30 C24 1.505 . S
C31 O18 1.258 . S
C31 O19 1.242 . S
H32 C4 0.930 . S
H33 C5 0.930 . S
H34 C6 0.930 . S
H35 C7 0.931 . S
H36 C25 0.930 . S
H37 C26 0.930 1_655 S
H38 C27 0.930 . S
H39 C28 0.931 . S
Eu40 C49 2.828 . S
Eu40 O51 2.392 . S
Eu40 O53 2.418 . S
Eu40 O58 2.373 . S
Eu40 O61 2.488 . S
Eu40 O62 2.471 . S
Eu40 O63 2.349 . S
Eu41 O50 2.373 . S
Eu41 O54 2.488 . S
Eu41 O55 2.471 . S
Eu41 O56 2.349 . S
Eu41 O59 2.392 . S
Eu41 O60 2.418 . S
Eu41 C70 2.828 . S
C42 O60 1.244 . S
C42 O63 1.265 . S
C43 C44 1.379 . S
C43 C47 1.373 . S
C43 C49 1.505 . S
C44 C43 1.379 . S
C44 C46 1.369 . S
C44 H72 0.930 . S
C45 C47 1.383 . S
C45 C48 1.382 . S
C45 H73 0.930 1_565 S
C46 C44 1.369 . S
C46 C48 1.392 . S
C46 H74 0.930 . S
C47 C43 1.373 . S
C47 C45 1.383 . S
C47 H75 0.931 . S
C48 C45 1.382 . S
C48 C46 1.392 . S
C49 Eu40 2.828 . S
C49 C43 1.505 . S
C49 O61 1.249 . S
C49 O62 1.244 . S
O50 Eu41 2.373 . S
O50 C52 1.258 . S
O51 Eu40 2.392 . S
O51 C52 1.242 . S
C52 O50 1.258 . S
C52 O51 1.242 . S
O53 Eu40 2.418 . S
O53 C57 1.244 . S
O54 Eu41 2.488 . S
O54 C70 1.249 . S
O55 Eu41 2.471 . S
O55 C70 1.244 . S
O56 Eu41 2.349 . S
O56 C57 1.265 . S
C57 O53 1.244 . S
C57 O56 1.265 . S
O58 Eu40 2.373 . S
O58 C71 1.258 . S
O59 Eu41 2.392 . S
O59 C71 1.242 . S
O60 Eu41 2.418 . S
O60 C42 1.244 . S
O61 Eu40 2.488 . S
O61 C49 1.249 . S
O62 Eu40 2.471 . S
O62 C49 1.244 . S
O63 Eu40 2.349 . S
O63 C42 1.265 . S
C64 C65 1.379 . S
C64 C68 1.373 . S
C64 C70 1.505 . S
C65 C64 1.379 . S
C65 C67 1.369 . S
C65 H76 0.930 . S
C66 C68 1.383 . S
C66 C69 1.382 . S
C66 H77 0.930 . S
C67 C65 1.369 . S
C67 C69 1.392 . S
C67 H78 0.930 . S
C68 C64 1.373 . S
C68 C66 1.383 . S
C68 H79 0.931 . S
C69 C66 1.382 . S
C69 C67 1.392 . S
C70 Eu41 2.828 . S
C70 O54 1.249 . S
C70 O55 1.244 . S
C70 C64 1.505 . S
C71 O58 1.258 . S
C71 O59 1.242 . S
H72 C44 0.930 . S
H73 C45 0.930 1_545 S
H74 C46 0.930 . S
H75 C47 0.931 . S
H76 C65 0.930 . S
H77 C66 0.930 . S
H78 C67 0.930 . S
H79 C68 0.931 . S
Eu80 C89 2.828 . S
Eu80 O91 2.392 . S
Eu80 O93 2.418 . S
Eu80 O98 2.373 . S
Eu80 O101 2.488 . S
Eu80 O102 2.471 . S
Eu80 O103 2.349 . S
Eu81 O90 2.373 . S
Eu81 O94 2.488 . S
Eu81 O95 2.471 . S
Eu81 O96 2.349 . S
Eu81 O99 2.392 . S
Eu81 O100 2.418 . S
Eu81 C110 2.828 . S
C82 O100 1.244 . S
C82 O103 1.265 . S
C83 C84 1.379 . S
C83 C87 1.373 . S
C83 C89 1.505 . S
C84 C83 1.379 . S
C84 C86 1.369 . S
C84 H112 0.930 . S
C85 C87 1.383 . S
C85 C88 1.382 . S
C85 H113 0.930 . S
C86 C84 1.369 . S
C86 C88 1.392 . S
C86 H114 0.930 . S
C87 C83 1.373 . S
C87 C85 1.383 . S
C87 H115 0.931 . S
C88 C85 1.382 . S
C88 C86 1.392 . S
C89 Eu80 2.828 . S
C89 C83 1.505 . S
C89 O101 1.249 . S
C89 O102 1.244 . S
O90 Eu81 2.373 . S
O90 C92 1.258 . S
O91 Eu80 2.392 . S
O91 C92 1.242 . S
C92 O90 1.258 . S
C92 O91 1.242 . S
O93 Eu80 2.418 . S
O93 C97 1.244 . S
O94 Eu81 2.488 . S
O94 C110 1.249 . S
O95 Eu81 2.471 . S
O95 C110 1.244 . S
O96 Eu81 2.349 . S
O96 C97 1.265 . S
C97 O93 1.244 . S
C97 O96 1.265 . S
O98 Eu80 2.373 . S
O98 C111 1.258 . S
O99 Eu81 2.392 . S
O99 C111 1.242 . S
O100 Eu81 2.418 . S
O100 C82 1.244 . S
O101 Eu80 2.488 . S
O101 C89 1.249 . S
O102 Eu80 2.471 . S
O102 C89 1.244 . S
O103 Eu80 2.349 . S
O103 C82 1.265 . S
C104 C105 1.379 . S
C104 C108 1.373 . S
C104 C110 1.505 . S
C105 C104 1.379 . S
C105 C107 1.369 . S
C105 H116 0.930 . S
C106 C108 1.383 . S
C106 C109 1.382 . S
C106 H117 0.930 . S
C107 C105 1.369 . S
C107 C109 1.392 . S
C107 H118 0.930 . S
C108 C104 1.373 . S
C108 C106 1.383 . S
C108 H119 0.931 . S
C109 C106 1.382 . S
C109 C107 1.392 . S
C110 Eu81 2.828 . S
C110 O94 1.249 . S
C110 O95 1.244 . S
C110 C104 1.505 . S
C111 O98 1.258 . S
C111 O99 1.242 . S
H112 C84 0.930 . S
H113 C85 0.930 . S
H114 C86 0.930 . S
H115 C87 0.931 . S
H116 C105 0.930 . S
H117 C106 0.930 . S
H118 C107 0.930 . S
H119 C108 0.931 . S
Eu120 C129 2.828 1_554 S
Eu120 O131 2.392 . S
Eu120 O133 2.418 . S
Eu120 O138 2.373 1_554 S
Eu120 O141 2.505 . S
Eu120 O142 2.471 1_554 S
Eu120 O143 2.349 . S
Eu121 O130 2.373 . S
Eu121 O134 2.488 . S
Eu121 O135 2.471 . S
Eu121 O136 2.349 . S
Eu121 O139 2.392 1_554 S
Eu121 O140 2.418 . S
Eu121 C150 2.828 . S
C122 O140 1.244 . S
C122 O143 1.265 . S
C123 C124 1.379 . S
C123 C127 1.373 . S
C123 C129 1.505 . S
C124 C123 1.379 . S
C124 C126 1.369 . S
C124 H152 0.930 . S
C125 C127 1.383 . S
C125 C128 1.382 . S
C125 H153 0.930 1_545 S
C126 C124 1.369 . S
C126 C128 1.392 . S
C126 H154 0.930 . S
C127 C123 1.373 . S
C127 C125 1.383 . S
C127 H155 0.931 . S
C128 C125 1.382 . S
C128 C126 1.392 . S
C129 Eu120 2.828 1_556 S
C129 C123 1.505 . S
C129 O141 1.225 1_556 S
C129 O142 1.244 . S
O130 Eu121 2.373 . S
O130 C132 1.258 . S
O131 Eu120 2.392 . S
O131 C132 1.242 . S
C132 O130 1.258 . S
C132 O131 1.242 . S
O133 Eu120 2.418 . S
O133 C137 1.244 . S
O134 Eu121 2.488 . S
O134 C150 1.249 . S
O135 Eu121 2.471 . S
O135 C150 1.244 . S
O136 Eu121 2.349 . S
O136 C137 1.265 . S
C137 O133 1.244 . S
C137 O136 1.265 . S
O138 Eu120 2.373 1_556 S
O138 C151 1.258 . S
O139 Eu121 2.392 1_556 S
O139 C151 1.242 . S
O140 Eu121 2.418 . S
O140 C122 1.244 . S
O141 Eu120 2.505 . S
O141 C129 1.225 1_554 S
O142 Eu120 2.471 1_556 S
O142 C129 1.244 . S
O143 Eu120 2.349 . S
O143 C122 1.265 . S
C144 C145 1.379 . S
C144 C148 1.373 . S
C144 C150 1.505 . S
C145 C144 1.379 . S
C145 C147 1.369 . S
C145 H156 0.930 . S
C146 C148 1.383 . S
C146 C149 1.382 . S
C146 H157 0.930 . S
C147 C145 1.369 . S
C147 C149 1.392 . S
C147 H158 0.930 . S
C148 C144 1.373 . S
C148 C146 1.383 . S
C148 H159 0.931 . S
C149 C146 1.382 . S
C149 C147 1.392 . S
C150 Eu121 2.828 . S
C150 O134 1.249 . S
C150 O135 1.244 . S
C150 C144 1.505 . S
C151 O138 1.258 . S
C151 O139 1.242 . S
H152 C124 0.930 . S
H153 C125 0.930 1_565 S
H154 C126 0.930 . S
H155 C127 0.931 . S
H156 C145 0.930 . S
H157 C146 0.930 . S
H158 C147 0.930 . S
H159 C148 0.931 . S
Eu160 C169 2.828 . S
Eu160 O171 2.392 . S
Eu160 O173 2.418 . S
Eu160 O178 2.373 . S
Eu160 O181 2.488 . S
Eu160 O182 2.471 . S
Eu160 O183 2.349 . S
Eu161 O170 2.373 . S
Eu161 O174 2.488 . S
Eu161 O175 2.471 . S
Eu161 O176 2.349 . S
Eu161 O179 2.392 . S
Eu161 O180 2.418 . S
Eu161 C190 2.828 . S
C162 O180 1.244 . S
C162 O183 1.265 . S
C163 C164 1.379 . S
C163 C167 1.373 . S
C163 C169 1.505 . S
C164 C163 1.379 . S
C164 C166 1.369 . S
C164 H192 0.930 . S
C165 C167 1.383 . S
C165 C168 1.382 . S
C165 H193 0.930 . S
C166 C164 1.369 . S
C166 C168 1.392 . S
C166 H194 0.930 . S
C167 C163 1.373 . S
C167 C165 1.383 . S
C167 H195 0.931 . S
C168 C165 1.382 . S
C168 C166 1.392 . S
C169 Eu160 2.828 . S
C169 C163 1.505 . S
C169 O181 1.249 . S
C169 O182 1.244 . S
O170 Eu161 2.373 . S
O170 C172 1.258 . S
O171 Eu160 2.392 . S
O171 C172 1.242 . S
C172 O170 1.258 . S
C172 O171 1.242 . S
O173 Eu160 2.418 . S
O173 C177 1.244 . S
O174 Eu161 2.488 . S
O174 C190 1.249 . S
O175 Eu161 2.471 . S
O175 C190 1.244 . S
O176 Eu161 2.349 . S
O176 C177 1.265 . S
C177 O173 1.244 . S
C177 O176 1.265 . S
O178 Eu160 2.373 . S
O178 C191 1.258 . S
O179 Eu161 2.392 . S
O179 C191 1.242 . S
O180 Eu161 2.418 . S
O180 C162 1.244 . S
O181 Eu160 2.488 . S
O181 C169 1.249 . S
O182 Eu160 2.471 . S
O182 C169 1.244 . S
O183 Eu160 2.349 . S
O183 C162 1.265 . S
C184 C185 1.379 . S
C184 C188 1.373 . S
C184 C190 1.505 . S
C185 C184 1.379 . S
C185 C187 1.369 . S
C185 H196 0.930 . S
C186 C188 1.383 . S
C186 C189 1.382 . S
C186 H197 0.930 1_455 S
C187 C185 1.369 . S
C187 C189 1.392 . S
C187 H198 0.930 . S
C188 C184 1.373 . S
C188 C186 1.383 . S
C188 H199 0.931 . S
C189 C186 1.382 . S
C189 C187 1.392 . S
C190 Eu161 2.828 . S
C190 O174 1.249 . S
C190 O175 1.244 . S
C190 C184 1.505 . S
C191 O178 1.258 . S
C191 O179 1.242 . S
H192 C164 0.930 . S
H193 C165 0.930 . S
H194 C166 0.930 . S
H195 C167 0.931 . S
H196 C185 0.930 . S
H197 C186 0.930 1_655 S
H198 C187 0.930 . S
H199 C188 0.931 . S
Eu200 C209 2.828 . S
Eu200 O211 2.392 . S
Eu200 O213 2.418 . S
Eu200 O218 2.373 . S
Eu200 O221 2.488 . S
Eu200 O222 2.471 . S
Eu200 O223 2.349 . S
Eu201 O210 2.373 . S
Eu201 O214 2.488 . S
Eu201 O215 2.471 . S
Eu201 O216 2.349 . S
Eu201 O219 2.392 . S
Eu201 O220 2.418 . S
Eu201 C230 2.828 . S
C202 O220 1.244 . S
C202 O223 1.265 . S
C203 C204 1.379 . S
C203 C207 1.373 . S
C203 C209 1.505 . S
C204 C203 1.379 . S
C204 C206 1.369 . S
C204 H232 0.930 . S
C205 C207 1.383 . S
C205 C208 1.382 . S
C205 H233 0.930 1_565 S
C206 C204 1.369 . S
C206 C208 1.392 . S
C206 H234 0.930 . S
C207 C203 1.373 . S
C207 C205 1.383 . S
C207 H235 0.931 . S
C208 C205 1.382 . S
C208 C206 1.392 . S
C209 Eu200 2.828 . S
C209 C203 1.505 . S
C209 O221 1.249 . S
C209 O222 1.244 . S
O210 Eu201 2.373 . S
O210 C212 1.258 . S
O211 Eu200 2.392 . S
O211 C212 1.242 . S
C212 O210 1.258 . S
C212 O211 1.242 . S
O213 Eu200 2.418 . S
O213 C217 1.244 . S
O214 Eu201 2.488 . S
O214 C230 1.249 . S
O215 Eu201 2.471 . S
O215 C230 1.244 . S
O216 Eu201 2.349 . S
O216 C217 1.265 . S
C217 O213 1.244 . S
C217 O216 1.265 . S
O218 Eu200 2.373 . S
O218 C231 1.258 . S
O219 Eu201 2.392 . S
O219 C231 1.242 . S
O220 Eu201 2.418 . S
O220 C202 1.244 . S
O221 Eu200 2.488 . S
O221 C209 1.249 . S
O222 Eu200 2.471 . S
O222 C209 1.244 . S
O223 Eu200 2.349 . S
O223 C202 1.265 . S
C224 C225 1.379 . S
C224 C228 1.373 . S
C224 C230 1.505 . S
C225 C224 1.379 . S
C225 C227 1.369 . S
C225 H236 0.930 . S
C226 C228 1.383 . S
C226 C229 1.382 . S
C226 H237 0.930 . S
C227 C225 1.369 . S
C227 C229 1.392 . S
C227 H238 0.930 . S
C228 C224 1.373 . S
C228 C226 1.383 . S
C228 H239 0.931 . S
C229 C226 1.382 . S
C229 C227 1.392 . S
C230 Eu201 2.828 . S
C230 O214 1.249 . S
C230 O215 1.244 . S
C230 C224 1.505 . S
C231 O218 1.258 . S
C231 O219 1.242 . S
H232 C204 0.930 . S
H233 C205 0.930 1_545 S
H234 C206 0.930 . S
H235 C207 0.931 . S
H236 C225 0.930 . S
H237 C226 0.930 . S
H238 C227 0.930 . S
H239 C228 0.931 . S
Eu240 C249 2.828 . S
Eu240 O251 2.392 . S
Eu240 O253 2.418 . S
Eu240 O258 2.373 . S
Eu240 O261 2.488 . S
Eu240 O262 2.471 . S
Eu240 O263 2.349 . S
Eu241 O250 2.373 . S
Eu241 O254 2.488 . S
Eu241 O255 2.471 . S
Eu241 O256 2.349 . S
Eu241 O259 2.392 . S
Eu241 O260 2.418 . S
Eu241 C270 2.828 . S
C242 O260 1.244 . S
C242 O263 1.265 . S
C243 C244 1.379 . S
C243 C247 1.373 . S
C243 C249 1.505 . S
C244 C243 1.379 . S
C244 C246 1.369 . S
C244 H272 0.930 . S
C245 C247 1.383 . S
C245 C248 1.382 . S
C245 H273 0.930 . S
C246 C244 1.369 . S
C246 C248 1.392 . S
C246 H274 0.930 . S
C247 C243 1.373 . S
C247 C245 1.383 . S
C247 H275 0.931 . S
C248 C245 1.382 . S
C248 C246 1.392 . S
C249 Eu240 2.828 . S
C249 C243 1.505 . S
C249 O261 1.249 . S
C249 O262 1.244 . S
O250 Eu241 2.373 . S
O250 C252 1.258 . S
O251 Eu240 2.392 . S
O251 C252 1.242 . S
C252 O250 1.258 . S
C252 O251 1.242 . S
O253 Eu240 2.418 . S
O253 C257 1.244 . S
O254 Eu241 2.488 . S
O254 C270 1.249 . S
O255 Eu241 2.471 . S
O255 C270 1.244 . S
O256 Eu241 2.349 . S
O256 C257 1.265 . S
C257 O253 1.244 . S
C257 O256 1.265 . S
O258 Eu240 2.373 . S
O258 C271 1.258 . S
O259 Eu241 2.392 . S
O259 C271 1.242 . S
O260 Eu241 2.418 . S
O260 C242 1.244 . S
O261 Eu240 2.488 . S
O261 C249 1.249 . S
O262 Eu240 2.471 . S
O262 C249 1.244 . S
O263 Eu240 2.349 . S
O263 C242 1.265 . S
C264 C265 1.379 . S
C264 C268 1.373 . S
C264 C270 1.505 . S
C265 C264 1.379 . S
C265 C267 1.369 . S
C265 H276 0.930 . S
C266 C268 1.383 . S
C266 C269 1.382 . S
C266 H277 0.930 . S
C267 C265 1.369 . S
C267 C269 1.392 . S
C267 H278 0.930 . S
C268 C264 1.373 . S
C268 C266 1.383 . S
C268 H279 0.931 . S
C269 C266 1.382 . S
C269 C267 1.392 . S
C270 Eu241 2.828 . S
C270 O254 1.249 . S
C270 O255 1.244 . S
C270 C264 1.505 . S
C271 O258 1.258 . S
C271 O259 1.242 . S
H272 C244 0.930 . S
H273 C245 0.930 . S
H274 C246 0.930 . S
H275 C247 0.931 . S
H276 C265 0.930 . S
H277 C266 0.930 . S
H278 C267 0.930 . S
H279 C268 0.931 . S
Eu280 C289 2.828 1_556 S
Eu280 O291 2.392 . S
Eu280 O293 2.418 . S
Eu280 O298 2.373 1_556 S
Eu280 O301 2.505 . S
Eu280 O302 2.471 1_556 S
Eu280 O303 2.349 . S
Eu281 O290 2.373 . S
Eu281 O294 2.488 . S
Eu281 O295 2.471 . S
Eu281 O296 2.349 . S
Eu281 O299 2.392 1_556 S
Eu281 O300 2.418 . S
Eu281 C310 2.828 . S
C282 O300 1.244 . S
C282 O303 1.265 . S
C283 C284 1.379 . S
C283 C287 1.373 . S
C283 C289 1.505 . S
C284 C283 1.379 . S
C284 C286 1.369 . S
C284 H312 0.930 . S
C285 C287 1.383 . S
C285 C288 1.382 . S
C285 H313 0.930 1_545 S
C286 C284 1.369 . S
C286 C288 1.392 . S
C286 H314 0.930 . S
C287 C283 1.373 . S
C287 C285 1.383 . S
C287 H315 0.931 . S
C288 C285 1.382 . S
C288 C286 1.392 . S
C289 Eu280 2.828 1_554 S
C289 C283 1.505 . S
C289 O301 1.225 1_554 S
C289 O302 1.244 . S
O290 Eu281 2.373 . S
O290 C292 1.258 . S
O291 Eu280 2.392 . S
O291 C292 1.242 . S
C292 O290 1.258 . S
C292 O291 1.242 . S
O293 Eu280 2.418 . S
O293 C297 1.244 . S
O294 Eu281 2.488 . S
O294 C310 1.249 . S
O295 Eu281 2.471 . S
O295 C310 1.244 . S
O296 Eu281 2.349 . S
O296 C297 1.265 . S
C297 O293 1.244 . S
C297 O296 1.265 . S
O298 Eu280 2.373 1_554 S
O298 C311 1.258 . S
O299 Eu281 2.392 1_554 S
O299 C311 1.242 . S
O300 Eu281 2.418 . S
O300 C282 1.244 . S
O301 Eu280 2.505 . S
O301 C289 1.225 1_556 S
O302 Eu280 2.471 1_554 S
O302 C289 1.244 . S
O303 Eu280 2.349 . S
O303 C282 1.265 . S
C304 C305 1.379 . S
C304 C308 1.373 . S
C304 C310 1.505 . S
C305 C304 1.379 . S
C305 C307 1.369 . S
C305 H316 0.930 . S
C306 C308 1.383 . S
C306 C309 1.382 . S
C306 H317 0.930 . S
C307 C305 1.369 . S
C307 C309 1.392 . S
C307 H318 0.930 . S
C308 C304 1.373 . S
C308 C306 1.383 . S
C308 H319 0.931 . S
C309 C306 1.382 . S
C309 C307 1.392 . S
C310 Eu281 2.828 . S
C310 O294 1.249 . S
C310 O295 1.244 . S
C310 C304 1.505 . S
C311 O298 1.258 . S
C311 O299 1.242 . S
H312 C284 0.930 . S
H313 C285 0.930 1_565 S
H314 C286 0.930 . S
H315 C287 0.931 . S
H316 C305 0.930 . S
H317 C306 0.930 . S
H318 C307 0.930 . S
H319 C308 0.931 . S
Eu320 C329 2.828 . S
Eu320 O331 2.392 . S
Eu320 O333 2.418 . S
Eu320 O338 2.373 . S
Eu320 O341 2.488 . S
Eu320 O342 2.471 . S
Eu320 O343 2.349 . S
Eu321 O330 2.373 . S
Eu321 O334 2.488 . S
Eu321 O335 2.471 . S
Eu321 O336 2.349 . S
Eu321 O339 2.392 . S
Eu321 O340 2.418 . S
Eu321 C350 2.828 . S
C322 O340 1.244 . S
C322 O343 1.265 . S
C323 C324 1.379 . S
C323 C327 1.373 . S
C323 C329 1.505 . S
C324 C323 1.379 . S
C324 C326 1.369 . S
C324 H352 0.930 . S
C325 C327 1.383 . S
C325 C328 1.382 . S
C325 H353 0.930 1_655 S
C326 C324 1.369 . S
C326 C328 1.392 . S
C326 H354 0.930 . S
C327 C323 1.373 . S
C327 C325 1.383 . S
C327 H355 0.931 . S
C328 C325 1.382 . S
C328 C326 1.392 . S
C329 Eu320 2.828 . S
C329 C323 1.505 . S
C329 O341 1.249 . S
C329 O342 1.244 . S
O330 Eu321 2.373 . S
O330 C332 1.258 . S
O331 Eu320 2.392 . S
O331 C332 1.242 . S
C332 O330 1.258 . S
C332 O331 1.242 . S
O333 Eu320 2.418 . S
O333 C337 1.244 . S
O334 Eu321 2.488 . S
O334 C350 1.249 . S
O335 Eu321 2.471 . S
O335 C350 1.244 . S
O336 Eu321 2.349 . S
O336 C337 1.265 . S
C337 O333 1.244 . S
C337 O336 1.265 . S
O338 Eu320 2.373 . S
O338 C351 1.258 . S
O339 Eu321 2.392 . S
O339 C351 1.242 . S
O340 Eu321 2.418 . S
O340 C322 1.244 . S
O341 Eu320 2.488 . S
O341 C329 1.249 . S
O342 Eu320 2.471 . S
O342 C329 1.244 . S
O343 Eu320 2.349 . S
O343 C322 1.265 . S
C344 C345 1.379 . S
C344 C348 1.373 . S
C344 C350 1.505 . S
C345 C344 1.379 . S
C345 C347 1.369 . S
C345 H356 0.930 . S
C346 C348 1.383 . S
C346 C349 1.382 . S
C346 H357 0.930 . S
C347 C345 1.369 . S
C347 C349 1.392 . S
C347 H358 0.930 . S
C348 C344 1.373 . S
C348 C346 1.383 . S
C348 H359 0.931 . S
C349 C346 1.382 . S
C349 C347 1.392 . S
C350 Eu321 2.828 . S
C350 O334 1.249 . S
C350 O335 1.244 . S
C350 C344 1.505 . S
C351 O338 1.258 . S
C351 O339 1.242 . S
H352 C324 0.930 . S
H353 C325 0.930 1_455 S
H354 C326 0.930 . S
H355 C327 0.931 . S
H356 C345 0.930 . S
H357 C346 0.930 . S
H358 C347 0.930 . S
H359 C348 0.931 . S
Eu360 C369 2.828 . S
Eu360 O371 2.392 . S
Eu360 O373 2.418 . S
Eu360 O378 2.373 . S
Eu360 O381 2.488 . S
Eu360 O382 2.471 . S
Eu360 O383 2.349 . S
Eu361 O370 2.373 . S
Eu361 O374 2.488 . S
Eu361 O375 2.471 . S
Eu361 O376 2.349 . S
Eu361 O379 2.392 . S
Eu361 O380 2.418 . S
Eu361 C390 2.828 . S
C362 O380 1.244 . S
C362 O383 1.265 . S
C363 C364 1.379 . S
C363 C367 1.373 . S
C363 C369 1.505 . S
C364 C363 1.379 . S
C364 C366 1.369 . S
C364 H392 0.930 . S
C365 C367 1.383 . S
C365 C368 1.382 . S
C365 H393 0.930 . S
C366 C364 1.369 . S
C366 C368 1.392 . S
C366 H394 0.930 . S
C367 C363 1.373 . S
C367 C365 1.383 . S
C367 H395 0.931 . S
C368 C365 1.382 . S
C368 C366 1.392 . S
C369 Eu360 2.828 . S
C369 C363 1.505 . S
C369 O381 1.249 . S
C369 O382 1.244 . S
O370 Eu361 2.373 . S
O370 C372 1.258 . S
O371 Eu360 2.392 . S
O371 C372 1.242 . S
C372 O370 1.258 . S
C372 O371 1.242 . S
O373 Eu360 2.418 . S
O373 C377 1.244 . S
O374 Eu361 2.488 . S
O374 C390 1.249 . S
O375 Eu361 2.471 . S
O375 C390 1.244 . S
O376 Eu361 2.349 . S
O376 C377 1.265 . S
C377 O373 1.244 . S
C377 O376 1.265 . S
O378 Eu360 2.373 . S
O378 C391 1.258 . S
O379 Eu361 2.392 . S
O379 C391 1.242 . S
O380 Eu361 2.418 . S
O380 C362 1.244 . S
O381 Eu360 2.488 . S
O381 C369 1.249 . S
O382 Eu360 2.471 . S
O382 C369 1.244 . S
O383 Eu360 2.349 . S
O383 C362 1.265 . S
C384 C385 1.379 . S
C384 C388 1.373 . S
C384 C390 1.505 . S
C385 C384 1.379 . S
C385 C387 1.369 . S
C385 H396 0.930 . S
C386 C388 1.383 . S
C386 C389 1.382 . S
C386 H397 0.930 1_545 S
C387 C385 1.369 . S
C387 C389 1.392 . S
C387 H398 0.930 . S
C388 C384 1.373 . S
C388 C386 1.383 . S
C388 H399 0.931 . S
C389 C386 1.382 . S
C389 C387 1.392 . S
C390 Eu361 2.828 . S
C390 O374 1.249 . S
C390 O375 1.244 . S
C390 C384 1.505 . S
C391 O378 1.258 . S
C391 O379 1.242 . S
H392 C364 0.930 . S
H393 C365 0.930 . S
H394 C366 0.930 . S
H395 C367 0.931 . S
H396 C385 0.930 . S
H397 C386 0.930 1_565 S
H398 C387 0.930 . S
H399 C388 0.931 . S
Eu400 C409 2.828 . S
Eu400 O411 2.392 . S
Eu400 O413 2.418 . S
Eu400 O418 2.373 . S
Eu400 O421 2.488 . S
Eu400 O422 2.471 . S
Eu400 O423 2.349 . S
Eu401 O410 2.373 . S
Eu401 O414 2.488 . S
Eu401 O415 2.471 . S
Eu401 O416 2.349 . S
Eu401 O419 2.392 . S
Eu401 O420 2.418 . S
Eu401 C430 2.828 . S
C402 O420 1.244 . S
C402 O423 1.265 . S
C403 C404 1.379 . S
C403 C407 1.373 . S
C403 C409 1.505 . S
C404 C403 1.379 . S
C404 C406 1.369 . S
C404 H432 0.930 . S
C405 C407 1.383 . S
C405 C408 1.382 . S
C405 H433 0.930 . S
C406 C404 1.369 . S
C406 C408 1.392 . S
C406 H434 0.930 . S
C407 C403 1.373 . S
C407 C405 1.383 . S
C407 H435 0.931 . S
C408 C405 1.382 . S
C408 C406 1.392 . S
C409 Eu400 2.828 . S
C409 C403 1.505 . S
C409 O421 1.249 . S
C409 O422 1.244 . S
O410 Eu401 2.373 . S
O410 C412 1.258 . S
O411 Eu400 2.392 . S
O411 C412 1.242 . S
C412 O410 1.258 . S
C412 O411 1.242 . S
O413 Eu400 2.418 . S
O413 C417 1.244 . S
O414 Eu401 2.488 . S
O414 C430 1.249 . S
O415 Eu401 2.471 . S
O415 C430 1.244 . S
O416 Eu401 2.349 . S
O416 C417 1.265 . S
C417 O413 1.244 . S
C417 O416 1.265 . S
O418 Eu400 2.373 . S
O418 C431 1.258 . S
O419 Eu401 2.392 . S
O419 C431 1.242 . S
O420 Eu401 2.418 . S
O420 C402 1.244 . S
O421 Eu400 2.488 . S
O421 C409 1.249 . S
O422 Eu400 2.471 . S
O422 C409 1.244 . S
O423 Eu400 2.349 . S
O423 C402 1.265 . S
C424 C425 1.379 . S
C424 C428 1.373 . S
C424 C430 1.505 . S
C425 C424 1.379 . S
C425 C427 1.369 . S
C425 H436 0.930 . S
C426 C428 1.383 . S
C426 C429 1.382 . S
C426 H437 0.930 . S
C427 C425 1.369 . S
C427 C429 1.392 . S
C427 H438 0.930 . S
C428 C424 1.373 . S
C428 C426 1.383 . S
C428 H439 0.931 . S
C429 C426 1.382 . S
C429 C427 1.392 . S
C430 Eu401 2.828 . S
C430 O414 1.249 . S
C430 O415 1.244 . S
C430 C424 1.505 . S
C431 O418 1.258 . S
C431 O419 1.242 . S
H432 C404 0.930 . S
H433 C405 0.930 . S
H434 C406 0.930 . S
H435 C407 0.931 . S
H436 C425 0.930 . S
H437 C426 0.930 . S
H438 C427 0.930 . S
H439 C428 0.931 . S
Eu440 C449 2.828 . S
Eu440 O451 2.392 1_556 S
Eu440 O453 2.418 . S
Eu440 O458 2.373 . S
Eu440 O461 2.488 . S
Eu440 O462 2.471 . S
Eu440 O463 2.349 . S
Eu441 O450 2.373 1_556 S
Eu441 O454 2.505 . S
Eu441 O455 2.471 1_556 S
Eu441 O456 2.349 . S
Eu441 O459 2.392 . S
Eu441 O460 2.418 . S
Eu441 C470 2.828 1_556 S
C442 O460 1.244 . S
C442 O463 1.265 . S
C443 C444 1.379 . S
C443 C447 1.373 . S
C443 C449 1.505 . S
C444 C443 1.379 . S
C444 C446 1.369 . S
C444 H472 0.930 . S
C445 C447 1.383 . S
C445 C448 1.382 . S
C445 H473 0.930 . S
C446 C444 1.369 . S
C446 C448 1.392 . S
C446 H474 0.930 . S
C447 C443 1.373 . S
C447 C445 1.383 . S
C447 H475 0.931 . S
C448 C445 1.382 . S
C448 C446 1.392 . S
C449 Eu440 2.828 . S
C449 C443 1.505 . S
C449 O461 1.249 . S
C449 O462 1.244 . S
O450 Eu441 2.373 1_554 S
O450 C452 1.258 . S
O451 Eu440 2.392 1_554 S
O451 C452 1.242 . S
C452 O450 1.258 . S
C452 O451 1.242 . S
O453 Eu440 2.418 . S
O453 C457 1.244 . S
O454 Eu441 2.505 . S
O454 C470 1.225 1_556 S
O455 Eu441 2.471 1_554 S
O455 C470 1.244 . S
O456 Eu441 2.349 . S
O456 C457 1.265 . S
C457 O453 1.244 . S
C457 O456 1.265 . S
O458 Eu440 2.373 . S
O458 C471 1.258 . S
O459 Eu441 2.392 . S
O459 C471 1.242 . S
O460 Eu441 2.418 . S
O460 C442 1.244 . S
O461 Eu440 2.488 . S
O461 C449 1.249 . S
O462 Eu440 2.471 . S
O462 C449 1.244 . S
O463 Eu440 2.349 . S
O463 C442 1.265 . S
C464 C465 1.379 . S
C464 C468 1.373 . S
C464 C470 1.505 . S
C465 C464 1.379 . S
C465 C467 1.369 . S
C465 H476 0.930 . S
C466 C468 1.383 . S
C466 C469 1.382 . S
C466 H477 0.930 1_565 S
C467 C465 1.369 . S
C467 C469 1.392 . S
C467 H478 0.930 . S
C468 C464 1.373 . S
C468 C466 1.383 . S
C468 H479 0.931 . S
C469 C466 1.382 . S
C469 C467 1.392 . S
C470 Eu441 2.828 1_554 S
C470 O454 1.225 1_554 S
C470 O455 1.244 . S
C470 C464 1.505 . S
C471 O458 1.258 . S
C471 O459 1.242 . S
H472 C444 0.930 . S
H473 C445 0.930 . S
H474 C446 0.930 . S
H475 C447 0.931 . S
H476 C465 0.930 . S
H477 C466 0.930 1_545 S
H478 C467 0.930 . S
H479 C468 0.931 . S
Eu480 C489 2.828 . S
Eu480 O491 2.392 . S
Eu480 O493 2.418 . S
Eu480 O498 2.373 . S
Eu480 O501 2.488 . S
Eu480 O502 2.471 . S
Eu480 O503 2.349 . S
Eu481 O490 2.373 . S
Eu481 O494 2.488 . S
Eu481 O495 2.471 . S
Eu481 O496 2.349 . S
Eu481 O499 2.392 . S
Eu481 O500 2.418 . S
Eu481 C510 2.828 . S
C482 O500 1.244 . S
C482 O503 1.265 . S
C483 C484 1.379 . S
C483 C487 1.373 . S
C483 C489 1.505 . S
C484 C483 1.379 . S
C484 C486 1.369 . S
C484 H512 0.930 . S
C485 C487 1.383 . S
C485 C488 1.382 . S
C485 H513 0.930 1_655 S
C486 C484 1.369 . S
C486 C488 1.392 . S
C486 H514 0.930 . S
C487 C483 1.373 . S
C487 C485 1.383 . S
C487 H515 0.931 . S
C488 C485 1.382 . S
C488 C486 1.392 . S
C489 Eu480 2.828 . S
C489 C483 1.505 . S
C489 O501 1.249 . S
C489 O502 1.244 . S
O490 Eu481 2.373 . S
O490 C492 1.258 . S
O491 Eu480 2.392 . S
O491 C492 1.242 . S
C492 O490 1.258 . S
C492 O491 1.242 . S
O493 Eu480 2.418 . S
O493 C497 1.244 . S
O494 Eu481 2.488 . S
O494 C510 1.249 . S
O495 Eu481 2.471 . S
O495 C510 1.244 . S
O496 Eu481 2.349 . S
O496 C497 1.265 . S
C497 O493 1.244 . S
C497 O496 1.265 . S
O498 Eu480 2.373 . S
O498 C511 1.258 . S
O499 Eu481 2.392 . S
O499 C511 1.242 . S
O500 Eu481 2.418 . S
O500 C482 1.244 . S
O501 Eu480 2.488 . S
O501 C489 1.249 . S
O502 Eu480 2.471 . S
O502 C489 1.244 . S
O503 Eu480 2.349 . S
O503 C482 1.265 . S
C504 C505 1.379 . S
C504 C508 1.373 . S
C504 C510 1.505 . S
C505 C504 1.379 . S
C505 C507 1.369 . S
C505 H516 0.930 . S
C506 C508 1.383 . S
C506 C509 1.382 . S
C506 H517 0.930 . S
C507 C505 1.369 . S
C507 C509 1.392 . S
C507 H518 0.930 . S
C508 C504 1.373 . S
C508 C506 1.383 . S
C508 H519 0.931 . S
C509 C506 1.382 . S
C509 C507 1.392 . S
C510 Eu481 2.828 . S
C510 O494 1.249 . S
C510 O495 1.244 . S
C510 C504 1.505 . S
C511 O498 1.258 . S
C511 O499 1.242 . S
H512 C484 0.930 . S
H513 C485 0.930 1_455 S
H514 C486 0.930 . S
H515 C487 0.931 . S
H516 C505 0.930 . S
H517 C506 0.930 . S
H518 C507 0.930 . S
H519 C508 0.931 . S
Eu520 C529 2.828 . S
Eu520 O531 2.392 . S
Eu520 O533 2.418 . S
Eu520 O538 2.373 . S
Eu520 O541 2.488 . S
Eu520 O542 2.471 . S
Eu520 O543 2.349 . S
Eu521 O530 2.373 . S
Eu521 O534 2.488 . S
Eu521 O535 2.471 . S
Eu521 O536 2.349 . S
Eu521 O539 2.392 . S
Eu521 O540 2.418 . S
Eu521 C550 2.828 . S
C522 O540 1.244 . S
C522 O543 1.265 . S
C523 C524 1.379 . S
C523 C527 1.373 . S
C523 C529 1.505 . S
C524 C523 1.379 . S
C524 C526 1.369 . S
C524 H552 0.930 . S
C525 C527 1.383 . S
C525 C528 1.382 . S
C525 H553 0.930 . S
C526 C524 1.369 . S
C526 C528 1.392 . S
C526 H554 0.930 . S
C527 C523 1.373 . S
C527 C525 1.383 . S
C527 H555 0.931 . S
C528 C525 1.382 . S
C528 C526 1.392 . S
C529 Eu520 2.828 . S
C529 C523 1.505 . S
C529 O541 1.249 . S
C529 O542 1.244 . S
O530 Eu521 2.373 . S
O530 C532 1.258 . S
O531 Eu520 2.392 . S
O531 C532 1.242 . S
C532 O530 1.258 . S
C532 O531 1.242 . S
O533 Eu520 2.418 . S
O533 C537 1.244 . S
O534 Eu521 2.488 . S
O534 C550 1.249 . S
O535 Eu521 2.471 . S
O535 C550 1.244 . S
O536 Eu521 2.349 . S
O536 C537 1.265 . S
C537 O533 1.244 . S
C537 O536 1.265 . S
O538 Eu520 2.373 . S
O538 C551 1.258 . S
O539 Eu521 2.392 . S
O539 C551 1.242 . S
O540 Eu521 2.418 . S
O540 C522 1.244 . S
O541 Eu520 2.488 . S
O541 C529 1.249 . S
O542 Eu520 2.471 . S
O542 C529 1.244 . S
O543 Eu520 2.349 . S
O543 C522 1.265 . S
C544 C545 1.379 . S
C544 C548 1.373 . S
C544 C550 1.505 . S
C545 C544 1.379 . S
C545 C547 1.369 . S
C545 H556 0.930 . S
C546 C548 1.383 . S
C546 C549 1.382 . S
C546 H557 0.930 1_545 S
C547 C545 1.369 . S
C547 C549 1.392 . S
C547 H558 0.930 . S
C548 C544 1.373 . S
C548 C546 1.383 . S
C548 H559 0.931 . S
C549 C546 1.382 . S
C549 C547 1.392 . S
C550 Eu521 2.828 . S
C550 O534 1.249 . S
C550 O535 1.244 . S
C550 C544 1.505 . S
C551 O538 1.258 . S
C551 O539 1.242 . S
H552 C524 0.930 . S
H553 C525 0.930 . S
H554 C526 0.930 . S
H555 C527 0.931 . S
H556 C545 0.930 . S
H557 C546 0.930 1_565 S
H558 C547 0.930 . S
H559 C548 0.931 . S
Eu560 C569 2.828 . S
Eu560 O571 2.392 . S
Eu560 O573 2.418 . S
Eu560 O578 2.373 . S
Eu560 O581 2.488 . S
Eu560 O582 2.471 . S
Eu560 O583 2.349 . S
Eu561 O570 2.373 . S
Eu561 O574 2.488 . S
Eu561 O575 2.471 . S
Eu561 O576 2.349 . S
Eu561 O579 2.392 . S
Eu561 O580 2.418 . S
Eu561 C590 2.828 . S
C562 O580 1.244 . S
C562 O583 1.265 . S
C563 C564 1.379 . S
C563 C567 1.373 . S
C563 C569 1.505 . S
C564 C563 1.379 . S
C564 C566 1.369 . S
C564 H592 0.930 . S
C565 C567 1.383 . S
C565 C568 1.382 . S
C565 H593 0.930 . S
C566 C564 1.369 . S
C566 C568 1.392 . S
C566 H594 0.930 . S
C567 C563 1.373 . S
C567 C565 1.383 . S
C567 H595 0.931 . S
C568 C565 1.382 . S
C568 C566 1.392 . S
C569 Eu560 2.828 . S
C569 C563 1.505 . S
C569 O581 1.249 . S
C569 O582 1.244 . S
O570 Eu561 2.373 . S
O570 C572 1.258 . S
O571 Eu560 2.392 . S
O571 C572 1.242 . S
C572 O570 1.258 . S
C572 O571 1.242 . S
O573 Eu560 2.418 . S
O573 C577 1.244 . S
O574 Eu561 2.488 . S
O574 C590 1.249 . S
O575 Eu561 2.471 . S
O575 C590 1.244 . S
O576 Eu561 2.349 . S
O576 C577 1.265 . S
C577 O573 1.244 . S
C577 O576 1.265 . S
O578 Eu560 2.373 . S
O578 C591 1.258 . S
O579 Eu561 2.392 . S
O579 C591 1.242 . S
O580 Eu561 2.418 . S
O580 C562 1.244 . S
O581 Eu560 2.488 . S
O581 C569 1.249 . S
O582 Eu560 2.471 . S
O582 C569 1.244 . S
O583 Eu560 2.349 . S
O583 C562 1.265 . S
C584 C585 1.379 . S
C584 C588 1.373 . S
C584 C590 1.505 . S
C585 C584 1.379 . S
C585 C587 1.369 . S
C585 H596 0.930 . S
C586 C588 1.383 . S
C586 C589 1.382 . S
C586 H597 0.930 . S
C587 C585 1.369 . S
C587 C589 1.392 . S
C587 H598 0.930 . S
C588 C584 1.373 . S
C588 C586 1.383 . S
C588 H599 0.931 . S
C589 C586 1.382 . S
C589 C587 1.392 . S
C590 Eu561 2.828 . S
C590 O574 1.249 . S
C590 O575 1.244 . S
C590 C584 1.505 . S
C591 O578 1.258 . S
C591 O579 1.242 . S
H592 C564 0.930 . S
H593 C565 0.930 . S
H594 C566 0.930 . S
H595 C567 0.931 . S
H596 C585 0.930 . S
H597 C586 0.930 . S
H598 C587 0.930 . S
H599 C588 0.931 . S
Eu600 C609 2.828 . S
Eu600 O611 2.392 1_554 S
Eu600 O613 2.418 . S
Eu600 O618 2.373 . S
Eu600 O621 2.488 . S
Eu600 O622 2.471 . S
Eu600 O623 2.349 . S
Eu601 O610 2.373 1_554 S
Eu601 O614 2.505 . S
Eu601 O615 2.471 1_554 S
Eu601 O616 2.349 . S
Eu601 O619 2.392 . S
Eu601 O620 2.418 . S
Eu601 C630 2.828 1_554 S
C602 O620 1.244 . S
C602 O623 1.265 . S
C603 C604 1.379 . S
C603 C607 1.373 . S
C603 C609 1.505 . S
C604 C603 1.379 . S
C604 C606 1.369 . S
C604 H632 0.930 . S
C605 C607 1.383 . S
C605 C608 1.382 . S
C605 H633 0.930 . S
C606 C604 1.369 . S
C606 C608 1.392 . S
C606 H634 0.930 . S
C607 C603 1.373 . S
C607 C605 1.383 . S
C607 H635 0.931 . S
C608 C605 1.382 . S
C608 C606 1.392 . S
C609 Eu600 2.828 . S
C609 C603 1.505 . S
C609 O621 1.249 . S
C609 O622 1.244 . S
O610 Eu601 2.373 1_556 S
O610 C612 1.258 . S
O611 Eu600 2.392 1_556 S
O611 C612 1.242 . S
C612 O610 1.258 . S
C612 O611 1.242 . S
O613 Eu600 2.418 . S
O613 C617 1.244 . S
O614 Eu601 2.505 . S
O614 C630 1.225 1_554 S
O615 Eu601 2.471 1_556 S
O615 C630 1.244 . S
O616 Eu601 2.349 . S
O616 C617 1.265 . S
C617 O613 1.244 . S
C617 O616 1.265 . S
O618 Eu600 2.373 . S
O618 C631 1.258 . S
O619 Eu601 2.392 . S
O619 C631 1.242 . S
O620 Eu601 2.418 . S
O620 C602 1.244 . S
O621 Eu600 2.488 . S
O621 C609 1.249 . S
O622 Eu600 2.471 . S
O622 C609 1.244 . S
O623 Eu600 2.349 . S
O623 C602 1.265 . S
C624 C625 1.379 . S
C624 C628 1.373 . S
C624 C630 1.505 . S
C625 C624 1.379 . S
C625 C627 1.369 . S
C625 H636 0.930 . S
C626 C628 1.383 . S
C626 C629 1.382 . S
C626 H637 0.930 1_565 S
C627 C625 1.369 . S
C627 C629 1.392 . S
C627 H638 0.930 . S
C628 C624 1.373 . S
C628 C626 1.383 . S
C628 H639 0.931 . S
C629 C626 1.382 . S
C629 C627 1.392 . S
C630 Eu601 2.828 1_556 S
C630 O614 1.225 1_556 S
C630 O615 1.244 . S
C630 C624 1.505 . S
C631 O618 1.258 . S
C631 O619 1.242 . S
H632 C604 0.930 . S
H633 C605 0.930 . S
H634 C606 0.930 . S
H635 C607 0.931 . S
H636 C625 0.930 . S
H637 C626 0.930 1_545 S
H638 C627 0.930 . S
H639 C628 0.931 . S
Eu640 C649 2.828 . S
Eu640 O651 2.392 . S
Eu640 O653 2.418 . S
Eu640 O658 2.373 . S
Eu640 O661 2.488 . S
Eu640 O662 2.471 . S
Eu640 O663 2.349 . S
Eu641 O650 2.373 . S
Eu641 O654 2.488 . S
Eu641 O655 2.471 . S
Eu641 O656 2.349 . S
Eu641 O659 2.392 . S
Eu641 O660 2.418 . S
Eu641 C670 2.828 . S
C642 O660 1.244 . S
C642 O663 1.265 . S
C643 C644 1.379 . S
C643 C647 1.373 . S
C643 C649 1.505 . S
C644 C643 1.379 . S
C644 C646 1.369 . S
C644 H672 0.930 . S
C645 C647 1.383 . S
C645 C648 1.382 . S
C645 H673 0.930 . S
C646 C644 1.369 . S
C646 C648 1.392 . S
C646 H674 0.930 . S
C647 C643 1.373 . S
C647 C645 1.383 . S
C647 H675 0.931 . S
C648 C645 1.382 . S
C648 C646 1.392 . S
C649 Eu640 2.828 . S
C649 C643 1.505 . S
C649 O661 1.249 . S
C649 O662 1.244 . S
O650 Eu641 2.373 . S
O650 C652 1.258 . S
O651 Eu640 2.392 . S
O651 C652 1.242 . S
C652 O650 1.258 . S
C652 O651 1.242 . S
O653 Eu640 2.418 . S
O653 C657 1.244 . S
O654 Eu641 2.488 . S
O654 C670 1.249 . S
O655 Eu641 2.471 . S
O655 C670 1.244 . S
O656 Eu641 2.349 . S
O656 C657 1.265 . S
C657 O653 1.244 . S
C657 O656 1.265 . S
O658 Eu640 2.373 . S
O658 C671 1.258 . S
O659 Eu641 2.392 . S
O659 C671 1.242 . S
O660 Eu641 2.418 . S
O660 C642 1.244 . S
O661 Eu640 2.488 . S
O661 C649 1.249 . S
O662 Eu640 2.471 . S
O662 C649 1.244 . S
O663 Eu640 2.349 . S
O663 C642 1.265 . S
C664 C665 1.379 . S
C664 C668 1.373 . S
C664 C670 1.505 . S
C665 C664 1.379 . S
C665 C667 1.369 . S
C665 H676 0.930 . S
C666 C668 1.383 . S
C666 C669 1.382 . S
C666 H677 0.930 . S
C667 C665 1.369 . S
C667 C669 1.392 . S
C667 H678 0.930 . S
C668 C664 1.373 . S
C668 C666 1.383 . S
C668 H679 0.931 . S
C669 C666 1.382 . S
C669 C667 1.392 . S
C670 Eu641 2.828 . S
C670 O654 1.249 . S
C670 O655 1.244 . S
C670 C664 1.505 . S
C671 O658 1.258 . S
C671 O659 1.242 . S
H672 C644 0.930 . S
H673 C645 0.930 . S
H674 C646 0.930 . S
H675 C647 0.931 . S
H676 C665 0.930 . S
H677 C666 0.930 . S
H678 C667 0.930 . S
H679 C668 0.931 . S
Eu680 C689 2.828 1_554 S
Eu680 O691 2.392 . S
Eu680 O693 2.418 . S
Eu680 O698 2.373 1_554 S
Eu680 O701 2.505 . S
Eu680 O702 2.471 1_554 S
Eu680 O703 2.349 . S
Eu681 O690 2.373 . S
Eu681 O694 2.488 . S
Eu681 O695 2.471 . S
Eu681 O696 2.349 . S
Eu681 O699 2.392 1_554 S
Eu681 O700 2.418 . S
Eu681 C710 2.828 . S
C682 O700 1.244 . S
C682 O703 1.265 . S
C683 C684 1.379 . S
C683 C687 1.373 . S
C683 C689 1.505 . S
C684 C683 1.379 . S
C684 C686 1.369 . S
C684 H712 0.930 . S
C685 C687 1.383 . S
C685 C688 1.382 . S
C685 H713 0.930 . S
C686 C684 1.369 . S
C686 C688 1.392 . S
C686 H714 0.930 . S
C687 C683 1.373 . S
C687 C685 1.383 . S
C687 H715 0.931 . S
C688 C685 1.382 . S
C688 C686 1.392 . S
C689 Eu680 2.828 1_556 S
C689 C683 1.505 . S
C689 O701 1.225 1_556 S
C689 O702 1.244 . S
O690 Eu681 2.373 . S
O690 C692 1.258 . S
O691 Eu680 2.392 . S
O691 C692 1.242 . S
C692 O690 1.258 . S
C692 O691 1.242 . S
O693 Eu680 2.418 . S
O693 C697 1.244 . S
O694 Eu681 2.488 . S
O694 C710 1.249 . S
O695 Eu681 2.471 . S
O695 C710 1.244 . S
O696 Eu681 2.349 . S
O696 C697 1.265 . S
C697 O693 1.244 . S
C697 O696 1.265 . S
O698 Eu680 2.373 1_556 S
O698 C711 1.258 . S
O699 Eu681 2.392 1_556 S
O699 C711 1.242 . S
O700 Eu681 2.418 . S
O700 C682 1.244 . S
O701 Eu680 2.505 . S
O701 C689 1.225 1_554 S
O702 Eu680 2.471 1_556 S
O702 C689 1.244 . S
O703 Eu680 2.349 . S
O703 C682 1.265 . S
C704 C705 1.379 . S
C704 C708 1.373 . S
C704 C710 1.505 . S
C705 C704 1.379 . S
C705 C707 1.369 . S
C705 H716 0.930 . S
C706 C708 1.383 . S
C706 C709 1.382 . S
C706 H717 0.930 . S
C707 C705 1.369 . S
C707 C709 1.392 . S
C707 H718 0.930 . S
C708 C704 1.373 . S
C708 C706 1.383 . S
C708 H719 0.931 . S
C709 C706 1.382 . S
C709 C707 1.392 . S
C710 Eu681 2.828 . S
C710 O694 1.249 . S
C710 O695 1.244 . S
C710 C704 1.505 . S
C711 O698 1.258 . S
C711 O699 1.242 . S
H712 C684 0.930 . S
H713 C685 0.930 . S
H714 C686 0.930 . S
H715 C687 0.931 . S
H716 C705 0.930 . S
H717 C706 0.930 . S
H718 C707 0.930 . S
H719 C708 0.931 . S
Eu720 C729 2.828 . S
Eu720 O731 2.392 . S
Eu720 O733 2.418 . S
Eu720 O738 2.373 . S
Eu720 O741 2.488 . S
Eu720 O742 2.471 . S
Eu720 O743 2.349 . S
Eu721 O730 2.373 . S
Eu721 O734 2.488 . S
Eu721 O735 2.471 . S
Eu721 O736 2.349 . S
Eu721 O739 2.392 . S
Eu721 O740 2.418 . S
Eu721 C750 2.828 . S
C722 O740 1.244 . S
C722 O743 1.265 . S
C723 C724 1.379 . S
C723 C727 1.373 . S
C723 C729 1.505 . S
C724 C723 1.379 . S
C724 C726 1.369 . S
C724 H752 0.930 . S
C725 C727 1.383 . S
C725 C728 1.382 . S
C725 H753 0.930 . S
C726 C724 1.369 . S
C726 C728 1.392 . S
C726 H754 0.930 . S
C727 C723 1.373 . S
C727 C725 1.383 . S
C727 H755 0.931 . S
C728 C725 1.382 . S
C728 C726 1.392 . S
C729 Eu720 2.828 . S
C729 C723 1.505 . S
C729 O741 1.249 . S
C729 O742 1.244 . S
O730 Eu721 2.373 . S
O730 C732 1.258 . S
O731 Eu720 2.392 . S
O731 C732 1.242 . S
C732 O730 1.258 . S
C732 O731 1.242 . S
O733 Eu720 2.418 . S
O733 C737 1.244 . S
O734 Eu721 2.488 . S
O734 C750 1.249 . S
O735 Eu721 2.471 . S
O735 C750 1.244 . S
O736 Eu721 2.349 . S
O736 C737 1.265 . S
C737 O733 1.244 . S
C737 O736 1.265 . S
O738 Eu720 2.373 . S
O738 C751 1.258 . S
O739 Eu721 2.392 . S
O739 C751 1.242 . S
O740 Eu721 2.418 . S
O740 C722 1.244 . S
O741 Eu720 2.488 . S
O741 C729 1.249 . S
O742 Eu720 2.471 . S
O742 C729 1.244 . S
O743 Eu720 2.349 . S
O743 C722 1.265 . S
C744 C745 1.379 . S
C744 C748 1.373 . S
C744 C750 1.505 . S
C745 C744 1.379 . S
C745 C747 1.369 . S
C745 H756 0.930 . S
C746 C748 1.383 . S
C746 C749 1.382 . S
C746 H757 0.930 1_655 S
C747 C745 1.369 . S
C747 C749 1.392 . S
C747 H758 0.930 . S
C748 C744 1.373 . S
C748 C746 1.383 . S
C748 H759 0.931 . S
C749 C746 1.382 . S
C749 C747 1.392 . S
C750 Eu721 2.828 . S
C750 O734 1.249 . S
C750 O735 1.244 . S
C750 C744 1.505 . S
C751 O738 1.258 . S
C751 O739 1.242 . S
H752 C724 0.930 . S
H753 C725 0.930 . S
H754 C726 0.930 . S
H755 C727 0.931 . S
H756 C745 0.930 . S
H757 C746 0.930 1_455 S
H758 C747 0.930 . S
H759 C748 0.931 . S
Eu760 C769 2.828 . S
Eu760 O771 2.392 . S
Eu760 O773 2.418 . S
Eu760 O778 2.373 . S
Eu760 O781 2.488 . S
Eu760 O782 2.471 . S
Eu760 O783 2.349 . S
Eu761 O770 2.373 . S
Eu761 O774 2.488 . S
Eu761 O775 2.471 . S
Eu761 O776 2.349 . S
Eu761 O779 2.392 . S
Eu761 O780 2.418 . S
Eu761 C790 2.828 . S
C762 O780 1.244 . S
C762 O783 1.265 . S
C763 C764 1.379 . S
C763 C767 1.373 . S
C763 C769 1.505 . S
C764 C763 1.379 . S
C764 C766 1.369 . S
C764 H792 0.930 . S
C765 C767 1.383 . S
C765 C768 1.382 . S
C765 H793 0.930 . S
C766 C764 1.369 . S
C766 C768 1.392 . S
C766 H794 0.930 . S
C767 C763 1.373 . S
C767 C765 1.383 . S
C767 H795 0.931 . S
C768 C765 1.382 . S
C768 C766 1.392 . S
C769 Eu760 2.828 . S
C769 C763 1.505 . S
C769 O781 1.249 . S
C769 O782 1.244 . S
O770 Eu761 2.373 . S
O770 C772 1.258 . S
O771 Eu760 2.392 . S
O771 C772 1.242 . S
C772 O770 1.258 . S
C772 O771 1.242 . S
O773 Eu760 2.418 . S
O773 C777 1.244 . S
O774 Eu761 2.488 . S
O774 C790 1.249 . S
O775 Eu761 2.471 . S
O775 C790 1.244 . S
O776 Eu761 2.349 . S
O776 C777 1.265 . S
C777 O773 1.244 . S
C777 O776 1.265 . S
O778 Eu760 2.373 . S
O778 C791 1.258 . S
O779 Eu761 2.392 . S
O779 C791 1.242 . S
O780 Eu761 2.418 . S
O780 C762 1.244 . S
O781 Eu760 2.488 . S
O781 C769 1.249 . S
O782 Eu760 2.471 . S
O782 C769 1.244 . S
O783 Eu760 2.349 . S
O783 C762 1.265 . S
C784 C785 1.379 . S
C784 C788 1.373 . S
C784 C790 1.505 . S
C785 C784 1.379 . S
C785 C787 1.369 . S
C785 H796 0.930 . S
C786 C788 1.383 . S
C786 C789 1.382 . S
C786 H797 0.930 . S
C787 C785 1.369 . S
C787 C789 1.392 . S
C787 H798 0.930 . S
C788 C784 1.373 . S
C788 C786 1.383 . S
C788 H799 0.931 . S
C789 C786 1.382 . S
C789 C787 1.392 . S
C790 Eu761 2.828 . S
C790 O774 1.249 . S
C790 O775 1.244 . S
C790 C784 1.505 . S
C791 O778 1.258 . S
C791 O779 1.242 . S
H792 C764 0.930 . S
H793 C765 0.930 . S
H794 C766 0.930 . S
H795 C767 0.931 . S
H796 C785 0.930 . S
H797 C786 0.930 . S
H798 C787 0.930 . S
H799 C788 0.931 . S
Eu800 C809 2.828 . S
Eu800 O811 2.392 . S
Eu800 O813 2.418 . S
Eu800 O818 2.373 . S
Eu800 O821 2.488 . S
Eu800 O822 2.471 . S
Eu800 O823 2.349 . S
Eu801 O810 2.373 . S
Eu801 O814 2.488 . S
Eu801 O815 2.471 . S
Eu801 O816 2.349 . S
Eu801 O819 2.392 . S
Eu801 O820 2.418 . S
Eu801 C830 2.828 . S
C802 O820 1.244 . S
C802 O823 1.265 . S
C803 C804 1.379 . S
C803 C807 1.373 . S
C803 C809 1.505 . S
C804 C803 1.379 . S
C804 C806 1.369 . S
C804 H832 0.930 . S
C805 C807 1.383 . S
C805 C808 1.382 . S
C805 H833 0.930 . S
C806 C804 1.369 . S
C806 C808 1.392 . S
C806 H834 0.930 . S
C807 C803 1.373 . S
C807 C805 1.383 . S
C807 H835 0.931 . S
C808 C805 1.382 . S
C808 C806 1.392 . S
C809 Eu800 2.828 . S
C809 C803 1.505 . S
C809 O821 1.249 . S
C809 O822 1.244 . S
O810 Eu801 2.373 . S
O810 C812 1.258 . S
O811 Eu800 2.392 . S
O811 C812 1.242 . S
C812 O810 1.258 . S
C812 O811 1.242 . S
O813 Eu800 2.418 . S
O813 C817 1.244 . S
O814 Eu801 2.488 . S
O814 C830 1.249 . S
O815 Eu801 2.471 . S
O815 C830 1.244 . S
O816 Eu801 2.349 . S
O816 C817 1.265 . S
C817 O813 1.244 . S
C817 O816 1.265 . S
O818 Eu800 2.373 . S
O818 C831 1.258 . S
O819 Eu801 2.392 . S
O819 C831 1.242 . S
O820 Eu801 2.418 . S
O820 C802 1.244 . S
O821 Eu800 2.488 . S
O821 C809 1.249 . S
O822 Eu800 2.471 . S
O822 C809 1.244 . S
O823 Eu800 2.349 . S
O823 C802 1.265 . S
C824 C825 1.379 . S
C824 C828 1.373 . S
C824 C830 1.505 . S
C825 C824 1.379 . S
C825 C827 1.369 . S
C825 H836 0.930 . S
C826 C828 1.383 . S
C826 C829 1.382 . S
C826 H837 0.930 . S
C827 C825 1.369 . S
C827 C829 1.392 . S
C827 H838 0.930 . S
C828 C824 1.373 . S
C828 C826 1.383 . S
C828 H839 0.931 . S
C829 C826 1.382 . S
C829 C827 1.392 . S
C830 Eu801 2.828 . S
C830 O814 1.249 . S
C830 O815 1.244 . S
C830 C824 1.505 . S
C831 O818 1.258 . S
C831 O819 1.242 . S
H832 C804 0.930 . S
H833 C805 0.930 . S
H834 C806 0.930 . S
H835 C807 0.931 . S
H836 C825 0.930 . S
H837 C826 0.930 . S
H838 C827 0.930 . S
H839 C828 0.931 . S
Eu840 C849 2.828 1_556 S
Eu840 O851 2.392 . S
Eu840 O853 2.418 . S
Eu840 O858 2.373 1_556 S
Eu840 O861 2.505 . S
Eu840 O862 2.471 1_556 S
Eu840 O863 2.349 . S
Eu841 O850 2.373 . S
Eu841 O854 2.488 . S
Eu841 O855 2.471 . S
Eu841 O856 2.349 . S
Eu841 O859 2.392 1_556 S
Eu841 O860 2.418 . S
Eu841 C870 2.828 . S
C842 O860 1.244 . S
C842 O863 1.265 . S
C843 C844 1.379 . S
C843 C847 1.373 . S
C843 C849 1.505 . S
C844 C843 1.379 . S
C844 C846 1.369 . S
C844 H872 0.930 . S
C845 C847 1.383 . S
C845 C848 1.382 . S
C845 H873 0.930 . S
C846 C844 1.369 . S
C846 C848 1.392 . S
C846 H874 0.930 . S
C847 C843 1.373 . S
C847 C845 1.383 . S
C847 H875 0.931 . S
C848 C845 1.382 . S
C848 C846 1.392 . S
C849 Eu840 2.828 1_554 S
C849 C843 1.505 . S
C849 O861 1.225 1_554 S
C849 O862 1.244 . S
O850 Eu841 2.373 . S
O850 C852 1.258 . S
O851 Eu840 2.392 . S
O851 C852 1.242 . S
C852 O850 1.258 . S
C852 O851 1.242 . S
O853 Eu840 2.418 . S
O853 C857 1.244 . S
O854 Eu841 2.488 . S
O854 C870 1.249 . S
O855 Eu841 2.471 . S
O855 C870 1.244 . S
O856 Eu841 2.349 . S
O856 C857 1.265 . S
C857 O853 1.244 . S
C857 O856 1.265 . S
O858 Eu840 2.373 1_554 S
O858 C871 1.258 . S
O859 Eu841 2.392 1_554 S
O859 C871 1.242 . S
O860 Eu841 2.418 . S
O860 C842 1.244 . S
O861 Eu840 2.505 . S
O861 C849 1.225 1_556 S
O862 Eu840 2.471 1_554 S
O862 C849 1.244 . S
O863 Eu840 2.349 . S
O863 C842 1.265 . S
C864 C865 1.379 . S
C864 C868 1.373 . S
C864 C870 1.505 . S
C865 C864 1.379 . S
C865 C867 1.369 . S
C865 H876 0.930 . S
C866 C868 1.383 . S
C866 C869 1.382 . S
C866 H877 0.930 . S
C867 C865 1.369 . S
C867 C869 1.392 . S
C867 H878 0.930 . S
C868 C864 1.373 . S
C868 C866 1.383 . S
C868 H879 0.931 . S
C869 C866 1.382 . S
C869 C867 1.392 . S
C870 Eu841 2.828 . S
C870 O854 1.249 . S
C870 O855 1.244 . S
C870 C864 1.505 . S
C871 O858 1.258 . S
C871 O859 1.242 . S
H872 C844 0.930 . S
H873 C845 0.930 . S
H874 C846 0.930 . S
H875 C847 0.931 . S
H876 C865 0.930 . S
H877 C866 0.930 . S
H878 C867 0.930 . S
H879 C868 0.931 . S
Eu880 C889 2.828 . S
Eu880 O891 2.392 . S
Eu880 O893 2.418 . S
Eu880 O898 2.373 . S
Eu880 O901 2.488 . S
Eu880 O902 2.471 . S
Eu880 O903 2.349 . S
Eu881 O890 2.373 . S
Eu881 O894 2.488 . S
Eu881 O895 2.471 . S
Eu881 O896 2.349 . S
Eu881 O899 2.392 . S
Eu881 O900 2.418 . S
Eu881 C910 2.828 . S
C882 O900 1.244 . S
C882 O903 1.265 . S
C883 C884 1.379 . S
C883 C887 1.373 . S
C883 C889 1.505 . S
C884 C883 1.379 . S
C884 C886 1.369 . S
C884 H912 0.930 . S
C885 C887 1.383 . S
C885 C888 1.382 . S
C885 H913 0.930 . S
C886 C884 1.369 . S
C886 C888 1.392 . S
C886 H914 0.930 . S
C887 C883 1.373 . S
C887 C885 1.383 . S
C887 H915 0.931 . S
C888 C885 1.382 . S
C888 C886 1.392 . S
C889 Eu880 2.828 . S
C889 C883 1.505 . S
C889 O901 1.249 . S
C889 O902 1.244 . S
O890 Eu881 2.373 . S
O890 C892 1.258 . S
O891 Eu880 2.392 . S
O891 C892 1.242 . S
C892 O890 1.258 . S
C892 O891 1.242 . S
O893 Eu880 2.418 . S
O893 C897 1.244 . S
O894 Eu881 2.488 . S
O894 C910 1.249 . S
O895 Eu881 2.471 . S
O895 C910 1.244 . S
O896 Eu881 2.349 . S
O896 C897 1.265 . S
C897 O893 1.244 . S
C897 O896 1.265 . S
O898 Eu880 2.373 . S
O898 C911 1.258 . S
O899 Eu881 2.392 . S
O899 C911 1.242 . S
O900 Eu881 2.418 . S
O900 C882 1.244 . S
O901 Eu880 2.488 . S
O901 C889 1.249 . S
O902 Eu880 2.471 . S
O902 C889 1.244 . S
O903 Eu880 2.349 . S
O903 C882 1.265 . S
C904 C905 1.379 . S
C904 C908 1.373 . S
C904 C910 1.505 . S
C905 C904 1.379 . S
C905 C907 1.369 . S
C905 H916 0.930 . S
C906 C908 1.383 . S
C906 C909 1.382 . S
C906 H917 0.930 1_655 S
C907 C905 1.369 . S
C907 C909 1.392 . S
C907 H918 0.930 . S
C908 C904 1.373 . S
C908 C906 1.383 . S
C908 H919 0.931 . S
C909 C906 1.382 . S
C909 C907 1.392 . S
C910 Eu881 2.828 . S
C910 O894 1.249 . S
C910 O895 1.244 . S
C910 C904 1.505 . S
C911 O898 1.258 . S
C911 O899 1.242 . S
H912 C884 0.930 . S
H913 C885 0.930 . S
H914 C886 0.930 . S
H915 C887 0.931 . S
H916 C905 0.930 . S
H917 C906 0.930 1_455 S
H918 C907 0.930 . S
H919 C908 0.931 . S
Eu920 C929 2.828 . S
Eu920 O931 2.392 . S
Eu920 O933 2.418 . S
Eu920 O938 2.373 . S
Eu920 O941 2.488 . S
Eu920 O942 2.471 . S
Eu920 O943 2.349 . S
Eu921 O930 2.373 . S
Eu921 O934 2.488 . S
Eu921 O935 2.471 . S
Eu921 O936 2.349 . S
Eu921 O939 2.392 . S
Eu921 O940 2.418 . S
Eu921 C950 2.828 . S
C922 O940 1.244 . S
C922 O943 1.265 . S
C923 C924 1.379 . S
C923 C927 1.373 . S
C923 C929 1.505 . S
C924 C923 1.379 . S
C924 C926 1.369 . S
C924 H952 0.930 . S
C925 C927 1.383 . S
C925 C928 1.382 . S
C925 H953 0.930 . S
C926 C924 1.369 . S
C926 C928 1.392 . S
C926 H954 0.930 . S
C927 C923 1.373 . S
C927 C925 1.383 . S
C927 H955 0.931 . S
C928 C925 1.382 . S
C928 C926 1.392 . S
C929 Eu920 2.828 . S
C929 C923 1.505 . S
C929 O941 1.249 . S
C929 O942 1.244 . S
O930 Eu921 2.373 . S
O930 C932 1.258 . S
O931 Eu920 2.392 . S
O931 C932 1.242 . S
C932 O930 1.258 . S
C932 O931 1.242 . S
O933 Eu920 2.418 . S
O933 C937 1.244 . S
O934 Eu921 2.488 . S
O934 C950 1.249 . S
O935 Eu921 2.471 . S
O935 C950 1.244 . S
O936 Eu921 2.349 . S
O936 C937 1.265 . S
C937 O933 1.244 . S
C937 O936 1.265 . S
O938 Eu920 2.373 . S
O938 C951 1.258 . S
O939 Eu921 2.392 . S
O939 C951 1.242 . S
O940 Eu921 2.418 . S
O940 C922 1.244 . S
O941 Eu920 2.488 . S
O941 C929 1.249 . S
O942 Eu920 2.471 . S
O942 C929 1.244 . S
O943 Eu920 2.349 . S
O943 C922 1.265 . S
C944 C945 1.379 . S
C944 C948 1.373 . S
C944 C950 1.505 . S
C945 C944 1.379 . S
C945 C947 1.369 . S
C945 H956 0.930 . S
C946 C948 1.383 . S
C946 C949 1.382 . S
C946 H957 0.930 . S
C947 C945 1.369 . S
C947 C949 1.392 . S
C947 H958 0.930 . S
C948 C944 1.373 . S
C948 C946 1.383 . S
C948 H959 0.931 . S
C949 C946 1.382 . S
C949 C947 1.392 . S
C950 Eu921 2.828 . S
C950 O934 1.249 . S
C950 O935 1.244 . S
C950 C944 1.505 . S
C951 O938 1.258 . S
C951 O939 1.242 . S
H952 C924 0.930 . S
H953 C925 0.930 . S
H954 C926 0.930 . S
H955 C927 0.931 . S
H956 C945 0.930 . S
H957 C946 0.930 . S
H958 C947 0.930 . S
H959 C948 0.931 . S
Eu960 C969 2.828 . S
Eu960 O971 2.392 . S
Eu960 O973 2.418 . S
Eu960 O978 2.373 . S
Eu960 O981 2.488 . S
Eu960 O982 2.471 . S
Eu960 O983 2.349 . S
Eu961 O970 2.373 . S
Eu961 O974 2.488 . S
Eu961 O975 2.471 . S
Eu961 O976 2.349 . S
Eu961 O979 2.392 . S
Eu961 O980 2.418 . S
Eu961 C990 2.828 . S
C962 O980 1.244 . S
C962 O983 1.265 . S
C963 C964 1.379 . S
C963 C967 1.373 . S
C963 C969 1.505 . S
C964 C963 1.379 . S
C964 C966 1.369 . S
C964 H992 0.930 . S
C965 C967 1.383 . S
C965 C968 1.382 . S
C965 H993 0.930 . S
C966 C964 1.369 . S
C966 C968 1.392 . S
C966 H994 0.930 . S
C967 C963 1.373 . S
C967 C965 1.383 . S
C967 H995 0.931 . S
C968 C965 1.382 . S
C968 C966 1.392 . S
C969 Eu960 2.828 . S
C969 C963 1.505 . S
C969 O981 1.249 . S
C969 O982 1.244 . S
O970 Eu961 2.373 . S
O970 C972 1.258 . S
O971 Eu960 2.392 . S
O971 C972 1.242 . S
C972 O970 1.258 . S
C972 O971 1.242 . S
O973 Eu960 2.418 . S
O973 C977 1.244 . S
O974 Eu961 2.488 . S
O974 C990 1.249 . S
O975 Eu961 2.471 . S
O975 C990 1.244 . S
O976 Eu961 2.349 . S
O976 C977 1.265 . S
C977 O973 1.244 . S
C977 O976 1.265 . S
O978 Eu960 2.373 . S
O978 C991 1.258 . S
O979 Eu961 2.392 . S
O979 C991 1.242 . S
O980 Eu961 2.418 . S
O980 C962 1.244 . S
O981 Eu960 2.488 . S
O981 C969 1.249 . S
O982 Eu960 2.471 . S
O982 C969 1.244 . S
O983 Eu960 2.349 . S
O983 C962 1.265 . S
C984 C985 1.379 . S
C984 C988 1.373 . S
C984 C990 1.505 . S
C985 C984 1.379 . S
C985 C987 1.369 . S
C985 H996 0.930 . S
C986 C988 1.383 . S
C986 C989 1.382 . S
C986 H997 0.930 . S
C987 C985 1.369 . S
C987 C989 1.392 . S
C987 H998 0.930 . S
C988 C984 1.373 . S
C988 C986 1.383 . S
C988 H999 0.931 . S
C989 C986 1.382 . S
C989 C987 1.392 . S
C990 Eu961 2.828 . S
C990 O974 1.249 . S
C990 O975 1.244 . S
C990 C984 1.505 . S
C991 O978 1.258 . S
C991 O979 1.242 . S
H992 C964 0.930 . S
H993 C965 0.930 . S
H994 C966 0.930 . S
H995 C967 0.931 . S
H996 C985 0.930 . S
H997 C986 0.930 . S
H998 C987 0.930 . S
H999 C988 0.931 . S
Eu1000 C1009 2.828 . S
Eu1000 O1011 2.392 1_556 S
Eu1000 O1013 2.418 . S
Eu1000 O1018 2.373 . S
Eu1000 O1021 2.488 . S
Eu1000 O1022 2.471 . S
Eu1000 O1023 2.349 . S
Eu1001 O1010 2.373 1_556 S
Eu1001 O1014 2.505 . S
Eu1001 O1015 2.471 1_556 S
Eu1001 O1016 2.349 . S
Eu1001 O1019 2.392 . S
Eu1001 O1020 2.418 . S
Eu1001 C1030 2.828 1_556 S
C1002 O1020 1.244 . S
C1002 O1023 1.265 . S
C1003 C1004 1.379 . S
C1003 C1007 1.373 . S
C1003 C1009 1.505 . S
C1004 C1003 1.379 . S
C1004 C1006 1.369 . S
C1004 H1032 0.930 . S
C1005 C1007 1.383 . S
C1005 C1008 1.382 . S
C1005 H1033 0.930 . S
C1006 C1004 1.369 . S
C1006 C1008 1.392 . S
C1006 H1034 0.930 . S
C1007 C1003 1.373 . S
C1007 C1005 1.383 . S
C1007 H1035 0.931 . S
C1008 C1005 1.382 . S
C1008 C1006 1.392 . S
C1009 Eu1000 2.828 . S
C1009 C1003 1.505 . S
C1009 O1021 1.249 . S
C1009 O1022 1.244 . S
O1010 Eu1001 2.373 1_554 S
O1010 C1012 1.258 . S
O1011 Eu1000 2.392 1_554 S
O1011 C1012 1.242 . S
C1012 O1010 1.258 . S
C1012 O1011 1.242 . S
O1013 Eu1000 2.418 . S
O1013 C1017 1.244 . S
O1014 Eu1001 2.505 . S
O1014 C1030 1.225 1_556 S
O1015 Eu1001 2.471 1_554 S
O1015 C1030 1.244 . S
O1016 Eu1001 2.349 . S
O1016 C1017 1.265 . S
C1017 O1013 1.244 . S
C1017 O1016 1.265 . S
O1018 Eu1000 2.373 . S
O1018 C1031 1.258 . S
O1019 Eu1001 2.392 . S
O1019 C1031 1.242 . S
O1020 Eu1001 2.418 . S
O1020 C1002 1.244 . S
O1021 Eu1000 2.488 . S
O1021 C1009 1.249 . S
O1022 Eu1000 2.471 . S
O1022 C1009 1.244 . S
O1023 Eu1000 2.349 . S
O1023 C1002 1.265 . S
C1024 C1025 1.379 . S
C1024 C1028 1.373 . S
C1024 C1030 1.505 . S
C1025 C1024 1.379 . S
C1025 C1027 1.369 . S
C1025 H1036 0.930 . S
C1026 C1028 1.383 . S
C1026 C1029 1.382 . S
C1026 H1037 0.930 . S
C1027 C1025 1.369 . S
C1027 C1029 1.392 . S
C1027 H1038 0.930 . S
C1028 C1024 1.373 . S
C1028 C1026 1.383 . S
C1028 H1039 0.931 . S
C1029 C1026 1.382 . S
C1029 C1027 1.392 . S
C1030 Eu1001 2.828 1_554 S
C1030 O1014 1.225 1_554 S
C1030 O1015 1.244 . S
C1030 C1024 1.505 . S
C1031 O1018 1.258 . S
C1031 O1019 1.242 . S
H1032 C1004 0.930 . S
H1033 C1005 0.930 . S
H1034 C1006 0.930 . S
H1035 C1007 0.931 . S
H1036 C1025 0.930 . S
H1037 C1026 0.930 . S
H1038 C1027 0.930 . S
H1039 C1028 0.931 . S
Eu1040 C1049 2.828 . S
Eu1040 O1051 2.392 . S
Eu1040 O1053 2.418 . S
Eu1040 O1058 2.373 . S
Eu1040 O1061 2.488 . S
Eu1040 O1062 2.471 . S
Eu1040 O1063 2.349 . S
Eu1041 O1050 2.373 . S
Eu1041 O1054 2.488 . S
Eu1041 O1055 2.471 . S
Eu1041 O1056 2.349 . S
Eu1041 O1059 2.392 . S
Eu1041 O1060 2.418 . S
Eu1041 C1070 2.828 . S
C1042 O1060 1.244 . S
C1042 O1063 1.265 . S
C1043 C1044 1.379 . S
C1043 C1047 1.373 . S
C1043 C1049 1.505 . S
C1044 C1043 1.379 . S
C1044 C1046 1.369 . S
C1044 H1072 0.930 . S
C1045 C1047 1.383 . S
C1045 C1048 1.382 . S
C1045 H1073 0.930 1_455 S
C1046 C1044 1.369 . S
C1046 C1048 1.392 . S
C1046 H1074 0.930 . S
C1047 C1043 1.373 . S
C1047 C1045 1.383 . S
C1047 H1075 0.931 . S
C1048 C1045 1.382 . S
C1048 C1046 1.392 . S
C1049 Eu1040 2.828 . S
C1049 C1043 1.505 . S
C1049 O1061 1.249 . S
C1049 O1062 1.244 . S
O1050 Eu1041 2.373 . S
O1050 C1052 1.258 . S
O1051 Eu1040 2.392 . S
O1051 C1052 1.242 . S
C1052 O1050 1.258 . S
C1052 O1051 1.242 . S
O1053 Eu1040 2.418 . S
O1053 C1057 1.244 . S
O1054 Eu1041 2.488 . S
O1054 C1070 1.249 . S
O1055 Eu1041 2.471 . S
O1055 C1070 1.244 . S
O1056 Eu1041 2.349 . S
O1056 C1057 1.265 . S
C1057 O1053 1.244 . S
C1057 O1056 1.265 . S
O1058 Eu1040 2.373 . S
O1058 C1071 1.258 . S
O1059 Eu1041 2.392 . S
O1059 C1071 1.242 . S
O1060 Eu1041 2.418 . S
O1060 C1042 1.244 . S
O1061 Eu1040 2.488 . S
O1061 C1049 1.249 . S
O1062 Eu1040 2.471 . S
O1062 C1049 1.244 . S
O1063 Eu1040 2.349 . S
O1063 C1042 1.265 . S
C1064 C1065 1.379 . S
C1064 C1068 1.373 . S
C1064 C1070 1.505 . S
C1065 C1064 1.379 . S
C1065 C1067 1.369 . S
C1065 H1076 0.930 . S
C1066 C1068 1.383 . S
C1066 C1069 1.382 . S
C1066 H1077 0.930 . S
C1067 C1065 1.369 . S
C1067 C1069 1.392 . S
C1067 H1078 0.930 . S
C1068 C1064 1.373 . S
C1068 C1066 1.383 . S
C1068 H1079 0.931 . S
C1069 C1066 1.382 . S
C1069 C1067 1.392 . S
C1070 Eu1041 2.828 . S
C1070 O1054 1.249 . S
C1070 O1055 1.244 . S
C1070 C1064 1.505 . S
C1071 O1058 1.258 . S
C1071 O1059 1.242 . S
H1072 C1044 0.930 . S
H1073 C1045 0.930 1_655 S
H1074 C1046 0.930 . S
H1075 C1047 0.931 . S
H1076 C1065 0.930 . S
H1077 C1066 0.930 . S
H1078 C1067 0.930 . S
H1079 C1068 0.931 . S
Eu1080 C1089 2.828 . S
Eu1080 O1091 2.392 . S
Eu1080 O1093 2.418 . S
Eu1080 O1098 2.373 . S
Eu1080 O1101 2.488 . S
Eu1080 O1102 2.471 . S
Eu1080 O1103 2.349 . S
Eu1081 O1090 2.373 . S
Eu1081 O1094 2.488 . S
Eu1081 O1095 2.471 . S
Eu1081 O1096 2.349 . S
Eu1081 O1099 2.392 . S
Eu1081 O1100 2.418 . S
Eu1081 C1110 2.828 . S
C1082 O1100 1.244 . S
C1082 O1103 1.265 . S
C1083 C1084 1.379 . S
C1083 C1087 1.373 . S
C1083 C1089 1.505 . S
C1084 C1083 1.379 . S
C1084 C1086 1.369 . S
C1084 H1112 0.930 . S
C1085 C1087 1.383 . S
C1085 C1088 1.382 . S
C1085 H1113 0.930 . S
C1086 C1084 1.369 . S
C1086 C1088 1.392 . S
C1086 H1114 0.930 . S
C1087 C1083 1.373 . S
C1087 C1085 1.383 . S
C1087 H1115 0.931 . S
C1088 C1085 1.382 . S
C1088 C1086 1.392 . S
C1089 Eu1080 2.828 . S
C1089 C1083 1.505 . S
C1089 O1101 1.249 . S
C1089 O1102 1.244 . S
O1090 Eu1081 2.373 . S
O1090 C1092 1.258 . S
O1091 Eu1080 2.392 . S
O1091 C1092 1.242 . S
C1092 O1090 1.258 . S
C1092 O1091 1.242 . S
O1093 Eu1080 2.418 . S
O1093 C1097 1.244 . S
O1094 Eu1081 2.488 . S
O1094 C1110 1.249 . S
O1095 Eu1081 2.471 . S
O1095 C1110 1.244 . S
O1096 Eu1081 2.349 . S
O1096 C1097 1.265 . S
C1097 O1093 1.244 . S
C1097 O1096 1.265 . S
O1098 Eu1080 2.373 . S
O1098 C1111 1.258 . S
O1099 Eu1081 2.392 . S
O1099 C1111 1.242 . S
O1100 Eu1081 2.418 . S
O1100 C1082 1.244 . S
O1101 Eu1080 2.488 . S
O1101 C1089 1.249 . S
O1102 Eu1080 2.471 . S
O1102 C1089 1.244 . S
O1103 Eu1080 2.349 . S
O1103 C1082 1.265 . S
C1104 C1105 1.379 . S
C1104 C1108 1.373 . S
C1104 C1110 1.505 . S
C1105 C1104 1.379 . S
C1105 C1107 1.369 . S
C1105 H1116 0.930 . S
C1106 C1108 1.383 . S
C1106 C1109 1.382 . S
C1106 H1117 0.930 . S
C1107 C1105 1.369 . S
C1107 C1109 1.392 . S
C1107 H1118 0.930 . S
C1108 C1104 1.373 . S
C1108 C1106 1.383 . S
C1108 H1119 0.931 . S
C1109 C1106 1.382 . S
C1109 C1107 1.392 . S
C1110 Eu1081 2.828 . S
C1110 O1094 1.249 . S
C1110 O1095 1.244 . S
C1110 C1104 1.505 . S
C1111 O1098 1.258 . S
C1111 O1099 1.242 . S
H1112 C1084 0.930 . S
H1113 C1085 0.930 . S
H1114 C1086 0.930 . S
H1115 C1087 0.931 . S
H1116 C1105 0.930 . S
H1117 C1106 0.930 . S
H1118 C1107 0.930 . S
H1119 C1108 0.931 . S
Eu1120 C1129 2.828 . S
Eu1120 O1131 2.392 . S
Eu1120 O1133 2.418 . S
Eu1120 O1138 2.373 . S
Eu1120 O1141 2.488 . S
Eu1120 O1142 2.471 . S
Eu1120 O1143 2.349 . S
Eu1121 O1130 2.373 . S
Eu1121 O1134 2.488 . S
Eu1121 O1135 2.471 . S
Eu1121 O1136 2.349 . S
Eu1121 O1139 2.392 . S
Eu1121 O1140 2.418 . S
Eu1121 C1150 2.828 . S
C1122 O1140 1.244 . S
C1122 O1143 1.265 . S
C1123 C1124 1.379 . S
C1123 C1127 1.373 . S
C1123 C1129 1.505 . S
C1124 C1123 1.379 . S
C1124 C1126 1.369 . S
C1124 H1152 0.930 . S
C1125 C1127 1.383 . S
C1125 C1128 1.382 . S
C1125 H1153 0.930 . S
C1126 C1124 1.369 . S
C1126 C1128 1.392 . S
C1126 H1154 0.930 . S
C1127 C1123 1.373 . S
C1127 C1125 1.383 . S
C1127 H1155 0.931 . S
C1128 C1125 1.382 . S
C1128 C1126 1.392 . S
C1129 Eu1120 2.828 . S
C1129 C1123 1.505 . S
C1129 O1141 1.249 . S
C1129 O1142 1.244 . S
O1130 Eu1121 2.373 . S
O1130 C1132 1.258 . S
O1131 Eu1120 2.392 . S
O1131 C1132 1.242 . S
C1132 O1130 1.258 . S
C1132 O1131 1.242 . S
O1133 Eu1120 2.418 . S
O1133 C1137 1.244 . S
O1134 Eu1121 2.488 . S
O1134 C1150 1.249 . S
O1135 Eu1121 2.471 . S
O1135 C1150 1.244 . S
O1136 Eu1121 2.349 . S
O1136 C1137 1.265 . S
C1137 O1133 1.244 . S
C1137 O1136 1.265 . S
O1138 Eu1120 2.373 . S
O1138 C1151 1.258 . S
O1139 Eu1121 2.392 . S
O1139 C1151 1.242 . S
O1140 Eu1121 2.418 . S
O1140 C1122 1.244 . S
O1141 Eu1120 2.488 . S
O1141 C1129 1.249 . S
O1142 Eu1120 2.471 . S
O1142 C1129 1.244 . S
O1143 Eu1120 2.349 . S
O1143 C1122 1.265 . S
C1144 C1145 1.379 . S
C1144 C1148 1.373 . S
C1144 C1150 1.505 . S
C1145 C1144 1.379 . S
C1145 C1147 1.369 . S
C1145 H1156 0.930 . S
C1146 C1148 1.383 . S
C1146 C1149 1.382 . S
C1146 H1157 0.930 . S
C1147 C1145 1.369 . S
C1147 C1149 1.392 . S
C1147 H1158 0.930 . S
C1148 C1144 1.373 . S
C1148 C1146 1.383 . S
C1148 H1159 0.931 . S
C1149 C1146 1.382 . S
C1149 C1147 1.392 . S
C1150 Eu1121 2.828 . S
C1150 O1134 1.249 . S
C1150 O1135 1.244 . S
C1150 C1144 1.505 . S
C1151 O1138 1.258 . S
C1151 O1139 1.242 . S
H1152 C1124 0.930 . S
H1153 C1125 0.930 . S
H1154 C1126 0.930 . S
H1155 C1127 0.931 . S
H1156 C1145 0.930 . S
H1157 C1146 0.930 . S
H1158 C1147 0.930 . S
H1159 C1148 0.931 . S
Eu1160 C1169 2.828 . S
Eu1160 O1171 2.392 1_554 S
Eu1160 O1173 2.418 . S
Eu1160 O1178 2.373 . S
Eu1160 O1181 2.488 . S
Eu1160 O1182 2.471 . S
Eu1160 O1183 2.349 . S
Eu1161 O1170 2.373 1_554 S
Eu1161 O1174 2.505 . S
Eu1161 O1175 2.471 1_554 S
Eu1161 O1176 2.349 . S
Eu1161 O1179 2.392 . S
Eu1161 O1180 2.418 . S
Eu1161 C1190 2.828 1_554 S
C1162 O1180 1.244 . S
C1162 O1183 1.265 . S
C1163 C1164 1.379 . S
C1163 C1167 1.373 . S
C1163 C1169 1.505 . S
C1164 C1163 1.379 . S
C1164 C1166 1.369 . S
C1164 H1192 0.930 . S
C1165 C1167 1.383 . S
C1165 C1168 1.382 . S
C1165 H1193 0.930 . S
C1166 C1164 1.369 . S
C1166 C1168 1.392 . S
C1166 H1194 0.930 . S
C1167 C1163 1.373 . S
C1167 C1165 1.383 . S
C1167 H1195 0.931 . S
C1168 C1165 1.382 . S
C1168 C1166 1.392 . S
C1169 Eu1160 2.828 . S
C1169 C1163 1.505 . S
C1169 O1181 1.249 . S
C1169 O1182 1.244 . S
O1170 Eu1161 2.373 1_556 S
O1170 C1172 1.258 . S
O1171 Eu1160 2.392 1_556 S
O1171 C1172 1.242 . S
C1172 O1170 1.258 . S
C1172 O1171 1.242 . S
O1173 Eu1160 2.418 . S
O1173 C1177 1.244 . S
O1174 Eu1161 2.505 . S
O1174 C1190 1.225 1_554 S
O1175 Eu1161 2.471 1_556 S
O1175 C1190 1.244 . S
O1176 Eu1161 2.349 . S
O1176 C1177 1.265 . S
C1177 O1173 1.244 . S
C1177 O1176 1.265 . S
O1178 Eu1160 2.373 . S
O1178 C1191 1.258 . S
O1179 Eu1161 2.392 . S
O1179 C1191 1.242 . S
O1180 Eu1161 2.418 . S
O1180 C1162 1.244 . S
O1181 Eu1160 2.488 . S
O1181 C1169 1.249 . S
O1182 Eu1160 2.471 . S
O1182 C1169 1.244 . S
O1183 Eu1160 2.349 . S
O1183 C1162 1.265 . S
C1184 C1185 1.379 . S
C1184 C1188 1.373 . S
C1184 C1190 1.505 . S
C1185 C1184 1.379 . S
C1185 C1187 1.369 . S
C1185 H1196 0.930 . S
C1186 C1188 1.383 . S
C1186 C1189 1.382 . S
C1186 H1197 0.930 . S
C1187 C1185 1.369 . S
C1187 C1189 1.392 . S
C1187 H1198 0.930 . S
C1188 C1184 1.373 . S
C1188 C1186 1.383 . S
C1188 H1199 0.931 . S
C1189 C1186 1.382 . S
C1189 C1187 1.392 . S
C1190 Eu1161 2.828 1_556 S
C1190 O1174 1.225 1_556 S
C1190 O1175 1.244 . S
C1190 C1184 1.505 . S
C1191 O1178 1.258 . S
C1191 O1179 1.242 . S
H1192 C1164 0.930 . S
H1193 C1165 0.930 . S
H1194 C1166 0.930 . S
H1195 C1167 0.931 . S
H1196 C1185 0.930 . S
H1197 C1186 0.930 . S
H1198 C1187 0.930 . S
H1199 C1188 0.931 . S
Eu1200 C1209 2.828 . S
Eu1200 O1211 2.392 . S
Eu1200 O1213 2.418 . S
Eu1200 O1218 2.373 . S
Eu1200 O1221 2.488 . S
Eu1200 O1222 2.471 . S
Eu1200 O1223 2.349 . S
Eu1201 O1210 2.373 . S
Eu1201 O1214 2.488 . S
Eu1201 O1215 2.471 . S
Eu1201 O1216 2.349 . S
Eu1201 O1219 2.392 . S
Eu1201 O1220 2.418 . S
Eu1201 C1230 2.828 . S
C1202 O1220 1.244 . S
C1202 O1223 1.265 . S
C1203 C1204 1.379 . S
C1203 C1207 1.373 . S
C1203 C1209 1.505 . S
C1204 C1203 1.379 . S
C1204 C1206 1.369 . S
C1204 H1232 0.930 . S
C1205 C1207 1.383 . S
C1205 C1208 1.382 . S
C1205 H1233 0.930 1_455 S
C1206 C1204 1.369 . S
C1206 C1208 1.392 . S
C1206 H1234 0.930 . S
C1207 C1203 1.373 . S
C1207 C1205 1.383 . S
C1207 H1235 0.931 . S
C1208 C1205 1.382 . S
C1208 C1206 1.392 . S
C1209 Eu1200 2.828 . S
C1209 C1203 1.505 . S
C1209 O1221 1.249 . S
C1209 O1222 1.244 . S
O1210 Eu1201 2.373 . S
O1210 C1212 1.258 . S
O1211 Eu1200 2.392 . S
O1211 C1212 1.242 . S
C1212 O1210 1.258 . S
C1212 O1211 1.242 . S
O1213 Eu1200 2.418 . S
O1213 C1217 1.244 . S
O1214 Eu1201 2.488 . S
O1214 C1230 1.249 . S
O1215 Eu1201 2.471 . S
O1215 C1230 1.244 . S
O1216 Eu1201 2.349 . S
O1216 C1217 1.265 . S
C1217 O1213 1.244 . S
C1217 O1216 1.265 . S
O1218 Eu1200 2.373 . S
O1218 C1231 1.258 . S
O1219 Eu1201 2.392 . S
O1219 C1231 1.242 . S
O1220 Eu1201 2.418 . S
O1220 C1202 1.244 . S
O1221 Eu1200 2.488 . S
O1221 C1209 1.249 . S
O1222 Eu1200 2.471 . S
O1222 C1209 1.244 . S
O1223 Eu1200 2.349 . S
O1223 C1202 1.265 . S
C1224 C1225 1.379 . S
C1224 C1228 1.373 . S
C1224 C1230 1.505 . S
C1225 C1224 1.379 . S
C1225 C1227 1.369 . S
C1225 H1236 0.930 . S
C1226 C1228 1.383 . S
C1226 C1229 1.382 . S
C1226 H1237 0.930 . S
C1227 C1225 1.369 . S
C1227 C1229 1.392 . S
C1227 H1238 0.930 . S
C1228 C1224 1.373 . S
C1228 C1226 1.383 . S
C1228 H1239 0.931 . S
C1229 C1226 1.382 . S
C1229 C1227 1.392 . S
C1230 Eu1201 2.828 . S
C1230 O1214 1.249 . S
C1230 O1215 1.244 . S
C1230 C1224 1.505 . S
C1231 O1218 1.258 . S
C1231 O1219 1.242 . S
H1232 C1204 0.930 . S
H1233 C1205 0.930 1_655 S
H1234 C1206 0.930 . S
H1235 C1207 0.931 . S
H1236 C1225 0.930 . S
H1237 C1226 0.930 . S
H1238 C1227 0.930 . S
H1239 C1228 0.931 . S
Eu1240 C1249 2.828 . S
Eu1240 O1251 2.392 . S
Eu1240 O1253 2.418 . S
Eu1240 O1258 2.373 . S
Eu1240 O1261 2.488 . S
Eu1240 O1262 2.471 . S
Eu1240 O1263 2.349 . S
Eu1241 O1250 2.373 . S
Eu1241 O1254 2.488 . S
Eu1241 O1255 2.471 . S
Eu1241 O1256 2.349 . S
Eu1241 O1259 2.392 . S
Eu1241 O1260 2.418 . S
Eu1241 C1270 2.828 . S
C1242 O1260 1.244 . S
C1242 O1263 1.265 . S
C1243 C1244 1.379 . S
C1243 C1247 1.373 . S
C1243 C1249 1.505 . S
C1244 C1243 1.379 . S
C1244 C1246 1.369 . S
C1244 H1272 0.930 . S
C1245 C1247 1.383 . S
C1245 C1248 1.382 . S
C1245 H1273 0.930 . S
C1246 C1244 1.369 . S
C1246 C1248 1.392 . S
C1246 H1274 0.930 . S
C1247 C1243 1.373 . S
C1247 C1245 1.383 . S
C1247 H1275 0.931 . S
C1248 C1245 1.382 . S
C1248 C1246 1.392 . S
C1249 Eu1240 2.828 . S
C1249 C1243 1.505 . S
C1249 O1261 1.249 . S
C1249 O1262 1.244 . S
O1250 Eu1241 2.373 . S
O1250 C1252 1.258 . S
O1251 Eu1240 2.392 . S
O1251 C1252 1.242 . S
C1252 O1250 1.258 . S
C1252 O1251 1.242 . S
O1253 Eu1240 2.418 . S
O1253 C1257 1.244 . S
O1254 Eu1241 2.488 . S
O1254 C1270 1.249 . S
O1255 Eu1241 2.471 . S
O1255 C1270 1.244 . S
O1256 Eu1241 2.349 . S
O1256 C1257 1.265 . S
C1257 O1253 1.244 . S
C1257 O1256 1.265 . S
O1258 Eu1240 2.373 . S
O1258 C1271 1.258 . S
O1259 Eu1241 2.392 . S
O1259 C1271 1.242 . S
O1260 Eu1241 2.418 . S
O1260 C1242 1.244 . S
O1261 Eu1240 2.488 . S
O1261 C1249 1.249 . S
O1262 Eu1240 2.471 . S
O1262 C1249 1.244 . S
O1263 Eu1240 2.349 . S
O1263 C1242 1.265 . S
C1264 C1265 1.379 . S
C1264 C1268 1.373 . S
C1264 C1270 1.505 . S
C1265 C1264 1.379 . S
C1265 C1267 1.369 . S
C1265 H1276 0.930 . S
C1266 C1268 1.383 . S
C1266 C1269 1.382 . S
C1266 H1277 0.930 . S
C1267 C1265 1.369 . S
C1267 C1269 1.392 . S
C1267 H1278 0.930 . S
C1268 C1264 1.373 . S
C1268 C1266 1.383 . S
C1268 H1279 0.931 . S
C1269 C1266 1.382 . S
C1269 C1267 1.392 . S
C1270 Eu1241 2.828 . S
C1270 O1254 1.249 . S
C1270 O1255 1.244 . S
C1270 C1264 1.505 . S
C1271 O1258 1.258 . S
C1271 O1259 1.242 . S
H1272 C1244 0.930 . S
H1273 C1245 0.930 . S
H1274 C1246 0.930 . S
H1275 C1247 0.931 . S
H1276 C1265 0.930 . S
H1277 C1266 0.930 . S
H1278 C1267 0.930 . S
H1279 C1268 0.931 . S
H1280 C1286 0.930 . S
H1281 C1289 0.930 . S
H1282 C1290 0.930 . S
H1283 C1291 0.930 . S
H1284 C1294 0.930 . S
H1285 C1295 0.930 . S
C1286 H1280 0.930 . S
C1286 C1287 1.355 . S
C1286 C1288 1.415 . S
C1287 C1286 1.355 . S
C1287 C1289 1.419 . S
C1288 C1286 1.415 . S
C1288 C1293 1.425 . S
C1288 C1295 1.409 . S
C1289 H1281 0.930 . S
C1289 C1287 1.419 . S
C1289 C1290 1.362 . S
C1290 H1282 0.930 . S
C1290 C1289 1.362 . S
C1290 C1293 1.409 . S
C1291 H1283 0.930 . S
C1291 C1292 1.355 . S
C1291 C1293 1.415 . S
C1292 C1291 1.355 . S
C1292 C1294 1.419 . S
C1293 C1288 1.425 . S
C1293 C1290 1.409 . S
C1293 C1291 1.415 . S
C1294 H1284 0.930 . S
C1294 C1292 1.419 . S
C1294 C1295 1.362 . S
C1295 H1285 0.930 . S
C1295 C1288 1.409 . S
C1295 C1294 1.362 . S
H1296 C1302 0.930 . S
H1297 C1305 0.930 . S
H1298 C1306 0.930 . S
H1299 C1307 0.930 . S
H1300 C1310 0.930 1_565 S
H1301 C1311 0.930 . S
C1302 H1296 0.930 . S
C1302 C1303 1.355 . S
C1302 C1304 1.415 . S
C1303 C1302 1.355 . S
C1303 C1305 1.419 . S
C1304 C1302 1.415 . S
C1304 C1309 1.425 . S
C1304 C1311 1.409 . S
C1305 H1297 0.930 . S
C1305 C1303 1.419 . S
C1305 C1306 1.362 . S
C1306 H1298 0.930 . S
C1306 C1305 1.362 . S
C1306 C1309 1.409 . S
C1307 H1299 0.930 . S
C1307 C1308 1.355 . S
C1307 C1309 1.415 . S
C1308 C1307 1.355 . S
C1308 C1310 1.419 . S
C1309 C1304 1.425 . S
C1309 C1306 1.409 . S
C1309 C1307 1.415 . S
C1310 H1300 0.930 1_545 S
C1310 C1308 1.419 . S
C1310 C1311 1.362 . S
C1311 H1301 0.930 . S
C1311 C1304 1.409 . S
C1311 C1310 1.362 . S
H1312 C1318 0.930 . S
H1313 C1321 0.930 . S
H1314 C1322 0.930 . S
H1315 C1323 0.930 . S
H1316 C1326 0.930 . S
H1317 C1327 0.930 . S
C1318 H1312 0.930 . S
C1318 C1319 1.355 . S
C1318 C1320 1.415 . S
C1319 C1318 1.355 . S
C1319 C1321 1.419 . S
C1320 C1318 1.415 . S
C1320 C1325 1.425 . S
C1320 C1327 1.409 . S
C1321 H1313 0.930 . S
C1321 C1319 1.419 . S
C1321 C1322 1.362 . S
C1322 H1314 0.930 . S
C1322 C1321 1.362 . S
C1322 C1325 1.409 . S
C1323 H1315 0.930 . S
C1323 C1324 1.355 . S
C1323 C1325 1.415 . S
C1324 C1323 1.355 . S
C1324 C1326 1.419 . S
C1325 C1320 1.425 . S
C1325 C1322 1.409 . S
C1325 C1323 1.415 . S
C1326 H1316 0.930 . S
C1326 C1324 1.419 . S
C1326 C1327 1.362 . S
C1327 H1317 0.930 . S
C1327 C1320 1.409 . S
C1327 C1326 1.362 . S
H1328 C1334 0.930 . S
H1329 C1337 0.930 . S
H1330 C1338 0.930 . S
H1331 C1339 0.930 . S
H1332 C1342 0.899 1_545 S
H1333 C1343 0.930 . S
C1334 H1328 0.930 . S
C1334 C1335 1.355 . S
C1334 C1336 1.415 . S
C1335 C1334 1.355 . S
C1335 C1337 1.419 . S
C1336 C1334 1.415 . S
C1336 C1341 1.425 . S
C1336 C1343 1.409 . S
C1337 H1329 0.930 . S
C1337 C1335 1.419 . S
C1337 C1338 1.362 . S
C1338 H1330 0.930 . S
C1338 C1337 1.362 . S
C1338 C1341 1.409 . S
C1339 H1331 0.930 . S
C1339 C1340 1.355 . S
C1339 C1341 1.415 . S
C1340 C1339 1.355 . S
C1340 C1342 1.419 . S
C1341 C1336 1.425 . S
C1341 C1338 1.409 . S
C1341 C1339 1.415 . S
C1342 H1332 0.899 1_565 S
C1342 C1340 1.419 . S
C1342 C1343 1.362 . S
C1343 H1333 0.930 . S
C1343 C1336 1.409 . S
C1343 C1342 1.362 . S
H1344 C1350 0.930 . S
H1345 C1353 0.930 . S
H1346 C1354 0.930 . S
H1347 C1355 0.930 . S
H1348 C1358 0.930 . S
H1349 C1359 0.930 . S
C1350 H1344 0.930 . S
C1350 C1351 1.355 . S
C1350 C1352 1.415 . S
C1351 C1350 1.355 . S
C1351 C1353 1.419 . S
C1352 C1350 1.415 . S
C1352 C1357 1.425 . S
C1352 C1359 1.409 . S
C1353 H1345 0.930 . S
C1353 C1351 1.419 . S
C1353 C1354 1.362 . S
C1354 H1346 0.930 . S
C1354 C1353 1.362 . S
C1354 C1357 1.409 . S
C1355 H1347 0.930 . S
C1355 C1356 1.355 . S
C1355 C1357 1.415 . S
C1356 C1355 1.355 . S
C1356 C1358 1.419 . S
C1357 C1352 1.425 . S
C1357 C1354 1.409 . S
C1357 C1355 1.415 . S
C1358 H1348 0.930 . S
C1358 C1356 1.419 . S
C1358 C1359 1.362 . S
C1359 H1349 0.930 . S
C1359 C1352 1.409 . S
C1359 C1358 1.362 . S
H1360 C1366 0.930 . S
H1361 C1369 0.930 . S
H1362 C1370 0.930 . S
H1363 C1371 0.930 . S
H1364 C1374 0.930 . S
H1365 C1375 0.930 . S
C1366 H1360 0.930 . S
C1366 C1367 1.355 . S
C1366 C1368 1.415 . S
C1367 C1366 1.355 . S
C1367 C1369 1.419 . S
C1368 C1366 1.415 . S
C1368 C1373 1.425 . S
C1368 C1375 1.409 . S
C1369 H1361 0.930 . S
C1369 C1367 1.419 . S
C1369 C1370 1.362 . S
C1370 H1362 0.930 . S
C1370 C1369 1.362 . S
C1370 C1373 1.409 . S
C1371 H1363 0.930 . S
C1371 C1372 1.355 . S
C1371 C1373 1.415 . S
C1372 C1371 1.355 . S
C1372 C1374 1.419 . S
C1373 C1368 1.425 . S
C1373 C1370 1.409 . S
C1373 C1371 1.415 . S
C1374 H1364 0.930 . S
C1374 C1372 1.419 . S
C1374 C1375 1.362 . S
C1375 H1365 0.930 . S
C1375 C1368 1.409 . S
C1375 C1374 1.362 . S
H1376 C1382 0.930 . S
H1377 C1385 0.930 . S
H1378 C1386 0.930 . S
H1379 C1387 0.930 . S
H1380 C1390 0.930 . S
H1381 C1391 0.930 . S
C1382 H1376 0.930 . S
C1382 C1383 1.355 . S
C1382 C1384 1.415 . S
C1383 C1382 1.355 . S
C1383 C1385 1.419 . S
C1384 C1382 1.415 . S
C1384 C1389 1.425 . S
C1384 C1391 1.409 . S
C1385 H1377 0.930 . S
C1385 C1383 1.419 . S
C1385 C1386 1.362 . S
C1386 H1378 0.930 . S
C1386 C1385 1.362 . S
C1386 C1389 1.409 . S
C1387 H1379 0.930 . S
C1387 C1388 1.355 . S
C1387 C1389 1.415 . S
C1388 C1387 1.355 . S
C1388 C1390 1.419 . S
C1389 C1384 1.425 . S
C1389 C1386 1.409 . S
C1389 C1387 1.415 . S
C1390 H1380 0.930 . S
C1390 C1388 1.419 . S
C1390 C1391 1.362 . S
C1391 H1381 0.930 . S
C1391 C1384 1.409 . S
C1391 C1390 1.362 . S
H1392 C1398 0.930 . S
H1393 C1401 0.930 . S
H1394 C1402 0.930 . S
H1395 C1403 0.930 . S
H1396 C1406 0.930 . S
H1397 C1407 0.930 . S
C1398 H1392 0.930 . S
C1398 C1399 1.355 . S
C1398 C1400 1.415 . S
C1399 C1398 1.355 . S
C1399 C1401 1.419 . S
C1400 C1398 1.415 . S
C1400 C1405 1.425 . S
C1400 C1407 1.409 . S
C1401 H1393 0.930 . S
C1401 C1399 1.419 . S
C1401 C1402 1.362 . S
C1402 H1394 0.930 . S
C1402 C1401 1.362 . S
C1402 C1405 1.409 . S
C1403 H1395 0.930 . S
C1403 C1404 1.355 . S
C1403 C1405 1.415 . S
C1404 C1403 1.355 . S
C1404 C1406 1.419 . S
C1405 C1400 1.425 . S
C1405 C1402 1.409 . S
C1405 C1403 1.415 . S
C1406 H1396 0.930 . S
C1406 C1404 1.419 . S
C1406 C1407 1.362 . S
C1407 H1397 0.930 . S
C1407 C1400 1.409 . S
C1407 C1406 1.362 . S
H1408 C1414 0.930 . S
H1409 C1417 0.930 . S
H1410 C1418 0.930 . S
H1411 C1419 0.930 . S
H1412 C1422 0.930 . S
H1413 C1423 0.930 . S
C1414 H1408 0.930 . S
C1414 C1415 1.355 . S
C1414 C1416 1.415 . S
C1415 C1414 1.355 . S
C1415 C1417 1.419 . S
C1416 C1414 1.415 . S
C1416 C1421 1.425 . S
C1416 C1423 1.409 . S
C1417 H1409 0.930 . S
C1417 C1415 1.419 . S
C1417 C1418 1.362 . S
C1418 H1410 0.930 . S
C1418 C1417 1.362 . S
C1418 C1421 1.409 . S
C1419 H1411 0.930 . S
C1419 C1420 1.355 . S
C1419 C1421 1.415 . S
C1420 C1419 1.355 . S
C1420 C1422 1.419 . S
C1421 C1416 1.425 . S
C1421 C1418 1.409 . S
C1421 C1419 1.415 . S
C1422 H1412 0.930 . S
C1422 C1420 1.419 . S
C1422 C1423 1.362 . S
C1423 H1413 0.930 . S
C1423 C1416 1.409 . S
C1423 C1422 1.362 . S
H1424 C1430 0.930 . S
H1425 C1433 0.930 . S
H1426 C1434 0.930 . S
H1427 C1435 0.930 . S
H1428 C1438 0.930 . S
H1429 C1439 0.930 . S
C1430 H1424 0.930 . S
C1430 C1431 1.355 . S
C1430 C1432 1.415 . S
C1431 C1430 1.355 . S
C1431 C1433 1.419 . S
C1432 C1430 1.415 . S
C1432 C1437 1.425 . S
C1432 C1439 1.409 . S
C1433 H1425 0.930 . S
C1433 C1431 1.419 . S
C1433 C1434 1.362 . S
C1434 H1426 0.930 . S
C1434 C1433 1.362 . S
C1434 C1437 1.409 . S
C1435 H1427 0.930 . S
C1435 C1436 1.355 . S
C1435 C1437 1.415 . S
C1436 C1435 1.355 . S
C1436 C1438 1.419 . S
C1437 C1432 1.425 . S
C1437 C1434 1.409 . S
C1437 C1435 1.415 . S
C1438 H1428 0.930 . S
C1438 C1436 1.419 . S
C1438 C1439 1.362 . S
C1439 H1429 0.930 . S
C1439 C1432 1.409 . S
C1439 C1438 1.362 . S
H1440 C1446 0.930 . S
H1441 C1449 0.930 . S
H1442 C1450 0.930 . S
H1443 C1451 0.930 . S
H1444 C1454 0.930 . S
H1445 C1455 0.930 . S
C1446 H1440 0.930 . S
C1446 C1447 1.355 . S
C1446 C1448 1.415 . S
C1447 C1446 1.355 . S
C1447 C1449 1.419 . S
C1448 C1446 1.415 . S
C1448 C1453 1.425 . S
C1448 C1455 1.409 . S
C1449 H1441 0.930 . S
C1449 C1447 1.419 . S
C1449 C1450 1.362 . S
C1450 H1442 0.930 . S
C1450 C1449 1.362 . S
C1450 C1453 1.409 . S
C1451 H1443 0.930 . S
C1451 C1452 1.355 . S
C1451 C1453 1.415 . S
C1452 C1451 1.355 . S
C1452 C1454 1.419 . S
C1453 C1448 1.425 . S
C1453 C1450 1.409 . S
C1453 C1451 1.415 . S
C1454 H1444 0.930 . S
C1454 C1452 1.419 . S
C1454 C1455 1.362 . S
C1455 H1445 0.930 . S
C1455 C1448 1.409 . S
C1455 C1454 1.362 . S
H1456 C1462 0.930 . S
H1457 C1465 0.930 1_565 S
H1458 C1466 0.930 . S
H1459 C1467 0.930 . S
H1460 C1470 0.930 . S
H1461 C1471 0.930 . S
C1462 H1456 0.930 . S
C1462 C1463 1.355 . S
C1462 C1464 1.415 . S
C1463 C1462 1.355 . S
C1463 C1465 1.419 . S
C1464 C1462 1.415 . S
C1464 C1469 1.425 . S
C1464 C1471 1.409 . S
C1465 H1457 0.930 1_545 S
C1465 C1463 1.419 . S
C1465 C1466 1.362 . S
C1466 H1458 0.930 . S
C1466 C1465 1.362 . S
C1466 C1469 1.409 . S
C1467 H1459 0.930 . S
C1467 C1468 1.355 . S
C1467 C1469 1.415 . S
C1468 C1467 1.355 . S
C1468 C1470 1.419 . S
C1469 C1464 1.425 . S
C1469 C1466 1.409 . S
C1469 C1467 1.415 . S
C1470 H1460 0.930 . S
C1470 C1468 1.419 . S
C1470 C1471 1.362 . S
C1471 H1461 0.930 . S
C1471 C1464 1.409 . S
C1471 C1470 1.362 . S
H1472 C1478 0.930 . S
H1473 C1481 0.930 . S
H1474 C1482 0.930 . S
H1475 C1483 0.930 . S
H1476 C1486 0.930 . S
H1477 C1487 0.930 . S
C1478 H1472 0.930 . S
C1478 C1479 1.355 . S
C1478 C1480 1.415 . S
C1479 C1478 1.355 . S
C1479 C1481 1.419 . S
C1480 C1478 1.415 . S
C1480 C1485 1.425 . S
C1480 C1487 1.409 . S
C1481 H1473 0.930 . S
C1481 C1479 1.419 . S
C1481 C1482 1.362 . S
C1482 H1474 0.930 . S
C1482 C1481 1.362 . S
C1482 C1485 1.409 . S
C1483 H1475 0.930 . S
C1483 C1484 1.355 . S
C1483 C1485 1.415 . S
C1484 C1483 1.355 . S
C1484 C1486 1.419 . S
C1485 C1480 1.425 . S
C1485 C1482 1.409 . S
C1485 C1483 1.415 . S
C1486 H1476 0.930 . S
C1486 C1484 1.419 . S
C1486 C1487 1.362 . S
C1487 H1477 0.930 . S
C1487 C1480 1.409 . S
C1487 C1486 1.362 . S
H1488 C1494 0.930 . S
H1489 C1497 0.930 . S
H1490 C1498 0.930 . S
H1491 C1499 0.930 . S
H1492 C1502 0.930 . S
H1493 C1503 0.930 . S
C1494 H1488 0.930 . S
C1494 C1495 1.355 . S
C1494 C1496 1.415 . S
C1495 C1494 1.355 . S
C1495 C1497 1.419 . S
C1496 C1494 1.415 . S
C1496 C1501 1.425 . S
C1496 C1503 1.409 . S
C1497 H1489 0.930 . S
C1497 C1495 1.419 . S
C1497 C1498 1.362 . S
C1498 H1490 0.930 . S
C1498 C1497 1.362 . S
C1498 C1501 1.409 . S
C1499 H1491 0.930 . S
C1499 C1500 1.355 . S
C1499 C1501 1.415 . S
C1500 C1499 1.355 . S
C1500 C1502 1.419 . S
C1501 C1496 1.425 . S
C1501 C1498 1.409 . S
C1501 C1499 1.415 . S
C1502 H1492 0.930 . S
C1502 C1500 1.419 . S
C1502 C1503 1.362 . S
C1503 H1493 0.930 . S
C1503 C1496 1.409 . S
C1503 C1502 1.362 . S
H1504 C1510 0.930 . S
H1505 C1513 0.930 . S
H1506 C1514 0.930 . S
H1507 C1515 0.930 . S
H1508 C1518 0.930 . S
H1509 C1519 0.930 . S
C1510 H1504 0.930 . S
C1510 C1511 1.355 . S
C1510 C1512 1.415 . S
C1511 C1510 1.355 . S
C1511 C1513 1.419 . S
C1512 C1510 1.415 . S
C1512 C1517 1.425 . S
C1512 C1519 1.409 . S
C1513 H1505 0.930 . S
C1513 C1511 1.419 . S
C1513 C1514 1.362 . S
C1514 H1506 0.930 . S
C1514 C1513 1.362 . S
C1514 C1517 1.409 . S
C1515 H1507 0.930 . S
C1515 C1516 1.355 . S
C1515 C1517 1.415 . S
C1516 C1515 1.355 . S
C1516 C1518 1.419 . S
C1517 C1512 1.425 . S
C1517 C1514 1.409 . S
C1517 C1515 1.415 . S
C1518 H1508 0.930 . S
C1518 C1516 1.419 . S
C1518 C1519 1.362 . S
C1519 H1509 0.930 . S
C1519 C1512 1.409 . S
C1519 C1518 1.362 . S
H1520 C1526 0.930 . S
H1521 C1529 0.930 . S
H1522 C1530 0.930 . S
H1523 C1531 0.930 . S
H1524 C1534 0.930 . S
H1525 C1535 0.930 . S
C1526 H1520 0.930 . S
C1526 C1527 1.355 . S
C1526 C1528 1.415 . S
C1527 C1526 1.355 . S
C1527 C1529 1.419 . S
C1528 C1526 1.415 . S
C1528 C1533 1.425 . S
C1528 C1535 1.409 . S
C1529 H1521 0.930 . S
C1529 C1527 1.419 . S
C1529 C1530 1.362 . S
C1530 H1522 0.930 . S
C1530 C1529 1.362 . S
C1530 C1533 1.409 . S
C1531 H1523 0.930 . S
C1531 C1532 1.355 . S
C1531 C1533 1.415 . S
C1532 C1531 1.355 . S
C1532 C1534 1.419 . S
C1533 C1528 1.425 . S
C1533 C1530 1.409 . S
C1533 C1531 1.415 . S
C1534 H1524 0.930 . S
C1534 C1532 1.419 . S
C1534 C1535 1.362 . S
C1535 H1525 0.930 . S
C1535 C1528 1.409 . S
C1535 C1534 1.362 . S
H1536 C1542 0.930 . S
H1537 C1545 0.930 . S
H1538 C1546 0.930 . S
H1539 C1547 0.930 . S
H1540 C1550 0.930 . S
H1541 C1551 0.930 . S
C1542 H1536 0.930 . S
C1542 C1543 1.355 . S
C1542 C1544 1.415 . S
C1543 C1542 1.355 . S
C1543 C1545 1.419 . S
C1544 C1542 1.415 . S
C1544 C1549 1.425 . S
C1544 C1551 1.409 . S
C1545 H1537 0.930 . S
C1545 C1543 1.419 . S
C1545 C1546 1.362 . S
C1546 H1538 0.930 . S
C1546 C1545 1.362 . S
C1546 C1549 1.409 . S
C1547 H1539 0.930 . S
C1547 C1548 1.355 . S
C1547 C1549 1.415 . S
C1548 C1547 1.355 . S
C1548 C1550 1.419 . S
C1549 C1544 1.425 . S
C1549 C1546 1.409 . S
C1549 C1547 1.415 . S
C1550 H1540 0.930 . S
C1550 C1548 1.419 . S
C1550 C1551 1.362 . S
C1551 H1541 0.930 . S
C1551 C1544 1.409 . S
C1551 C1550 1.362 . S
H1552 C1558 0.930 . S
H1553 C1561 0.930 . S
H1554 C1562 0.930 . S
H1555 C1563 0.930 . S
H1556 C1566 0.930 . S
H1557 C1567 0.930 . S
C1558 H1552 0.930 . S
C1558 C1559 1.355 . S
C1558 C1560 1.415 . S
C1559 C1558 1.355 . S
C1559 C1561 1.419 . S
C1560 C1558 1.415 . S
C1560 C1565 1.425 . S
C1560 C1567 1.409 . S
C1561 H1553 0.930 . S
C1561 C1559 1.419 . S
C1561 C1562 1.362 . S
C1562 H1554 0.930 . S
C1562 C1561 1.362 . S
C1562 C1565 1.409 . S
C1563 H1555 0.930 . S
C1563 C1564 1.355 . S
C1563 C1565 1.415 . S
C1564 C1563 1.355 . S
C1564 C1566 1.419 . S
C1565 C1560 1.425 . S
C1565 C1562 1.409 . S
C1565 C1563 1.415 . S
C1566 H1556 0.930 . S
C1566 C1564 1.419 . S
C1566 C1567 1.362 . S
C1567 H1557 0.930 . S
C1567 C1560 1.409 . S
C1567 C1566 1.362 . S
H1568 C1574 0.930 . S
H1569 C1577 0.930 . S
H1570 C1578 0.930 . S
H1571 C1579 0.930 . S
H1572 C1582 0.930 . S
H1573 C1583 0.930 . S
C1574 H1568 0.930 . S
C1574 C1575 1.355 . S
C1574 C1576 1.415 . S
C1575 C1574 1.355 . S
C1575 C1577 1.419 . S
C1576 C1574 1.415 . S
C1576 C1581 1.425 . S
C1576 C1583 1.409 . S
C1577 H1569 0.930 . S
C1577 C1575 1.419 . S
C1577 C1578 1.362 . S
C1578 H1570 0.930 . S
C1578 C1577 1.362 . S
C1578 C1581 1.409 . S
C1579 H1571 0.930 . S
C1579 C1580 1.355 . S
C1579 C1581 1.415 . S
C1580 C1579 1.355 . S
C1580 C1582 1.419 . S
C1581 C1576 1.425 . S
C1581 C1578 1.409 . S
C1581 C1579 1.415 . S
C1582 H1572 0.930 . S
C1582 C1580 1.419 . S
C1582 C1583 1.362 . S
C1583 H1573 0.930 . S
C1583 C1576 1.409 . S
C1583 C1582 1.362 . S
H1584 C1590 0.930 . S
H1585 C1593 0.930 . S
H1586 C1594 0.930 . S
H1587 C1595 0.930 . S
H1588 C1598 0.930 . S
H1589 C1599 0.930 . S
C1590 H1584 0.930 . S
C1590 C1591 1.355 . S
C1590 C1592 1.415 . S
C1591 C1590 1.355 . S
C1591 C1593 1.419 . S
C1592 C1590 1.415 . S
C1592 C1597 1.425 . S
C1592 C1599 1.409 . S
C1593 H1585 0.930 . S
C1593 C1591 1.419 . S
C1593 C1594 1.362 . S
C1594 H1586 0.930 . S
C1594 C1593 1.362 . S
C1594 C1597 1.409 . S
C1595 H1587 0.930 . S
C1595 C1596 1.355 . S
C1595 C1597 1.415 . S
C1596 C1595 1.355 . S
C1596 C1598 1.419 . S
C1597 C1592 1.425 . S
C1597 C1594 1.409 . S
C1597 C1595 1.415 . S
C1598 H1588 0.930 . S
C1598 C1596 1.419 . S
C1598 C1599 1.362 . S
C1599 H1589 0.930 . S
C1599 C1592 1.409 . S
C1599 C1598 1.362 . S
H1600 C1606 0.930 . S
H1601 C1609 0.930 . S
H1602 C1610 0.930 . S
H1603 C1611 0.930 . S
H1604 C1614 0.930 . S
H1605 C1615 0.930 . S
C1606 H1600 0.930 . S
C1606 C1607 1.355 . S
C1606 C1608 1.415 . S
C1607 C1606 1.355 . S
C1607 C1609 1.419 . S
C1608 C1606 1.415 . S
C1608 C1613 1.425 . S
C1608 C1615 1.409 . S
C1609 H1601 0.930 . S
C1609 C1607 1.419 . S
C1609 C1610 1.362 . S
C1610 H1602 0.930 . S
C1610 C1609 1.362 . S
C1610 C1613 1.409 . S
C1611 H1603 0.930 . S
C1611 C1612 1.355 . S
C1611 C1613 1.415 . S
C1612 C1611 1.355 . S
C1612 C1614 1.419 . S
C1613 C1608 1.425 . S
C1613 C1610 1.409 . S
C1613 C1611 1.415 . S
C1614 H1604 0.930 . S
C1614 C1612 1.419 . S
C1614 C1615 1.362 . S
C1615 H1605 0.930 . S
C1615 C1608 1.409 . S
C1615 C1614 1.362 . S
H1616 C1622 0.930 . S
H1617 C1625 0.930 . S
H1618 C1626 0.930 . S
H1619 C1627 0.930 . S
H1620 C1630 0.930 . S
H1621 C1631 0.930 . S
C1622 H1616 0.930 . S
C1622 C1623 1.355 . S
C1622 C1624 1.415 . S
C1623 C1622 1.355 . S
C1623 C1625 1.419 . S
C1624 C1622 1.415 . S
C1624 C1629 1.425 . S
C1624 C1631 1.409 . S
C1625 H1617 0.930 . S
C1625 C1623 1.419 . S
C1625 C1626 1.362 . S
C1626 H1618 0.930 . S
C1626 C1625 1.362 . S
C1626 C1629 1.409 . S
C1627 H1619 0.930 . S
C1627 C1628 1.355 . S
C1627 C1629 1.415 . S
C1628 C1627 1.355 . S
C1628 C1630 1.419 . S
C1629 C1624 1.425 . S
C1629 C1626 1.409 . S
C1629 C1627 1.415 . S
C1630 H1620 0.930 . S
C1630 C1628 1.419 . S
C1630 C1631 1.362 . S
C1631 H1621 0.930 . S
C1631 C1624 1.409 . S
C1631 C1630 1.362 . S
H1632 C1638 0.930 . S
H1633 C1641 0.930 . S
H1634 C1642 0.930 . S
H1635 C1643 0.930 . S
H1636 C1646 0.930 . S
H1637 C1647 0.930 . S
C1638 H1632 0.930 . S
C1638 C1639 1.355 . S
C1638 C1640 1.415 . S
C1639 C1638 1.355 . S
C1639 C1641 1.419 . S
C1640 C1638 1.415 . S
C1640 C1645 1.425 . S
C1640 C1647 1.409 . S
C1641 H1633 0.930 . S
C1641 C1639 1.419 . S
C1641 C1642 1.362 . S
C1642 H1634 0.930 . S
C1642 C1641 1.362 . S
C1642 C1645 1.409 . S
C1643 H1635 0.930 . S
C1643 C1644 1.355 . S
C1643 C1645 1.415 . S
C1644 C1643 1.355 . S
C1644 C1646 1.419 . S
C1645 C1640 1.425 . S
C1645 C1642 1.409 . S
C1645 C1643 1.415 . S
C1646 H1636 0.930 . S
C1646 C1644 1.419 . S
C1646 C1647 1.362 . S
C1647 H1637 0.930 . S
C1647 C1640 1.409 . S
C1647 C1646 1.362 . S
H1648 C1654 0.930 . S
H1649 C1657 0.930 . S
H1650 C1658 0.930 . S
H1651 C1659 0.930 . S
H1652 C1662 0.930 . S
H1653 C1663 0.930 . S
C1654 H1648 0.930 . S
C1654 C1655 1.355 . S
C1654 C1656 1.415 . S
C1655 C1654 1.355 . S
C1655 C1657 1.419 . S
C1656 C1654 1.415 . S
C1656 C1661 1.425 . S
C1656 C1663 1.409 . S
C1657 H1649 0.930 . S
C1657 C1655 1.419 . S
C1657 C1658 1.362 . S
C1658 H1650 0.930 . S
C1658 C1657 1.362 . S
C1658 C1661 1.409 . S
C1659 H1651 0.930 . S
C1659 C1660 1.355 . S
C1659 C1661 1.415 . S
C1660 C1659 1.355 . S
C1660 C1662 1.419 . S
C1661 C1656 1.425 . S
C1661 C1658 1.409 . S
C1661 C1659 1.415 . S
C1662 H1652 0.930 . S
C1662 C1660 1.419 . S
C1662 C1663 1.362 . S
C1663 H1653 0.930 . S
C1663 C1656 1.409 . S
C1663 C1662 1.362 . S
H1664 C1670 0.930 . S
H1665 C1673 0.930 . S
H1666 C1674 0.930 . S
H1667 C1675 0.930 . S
H1668 C1678 0.930 . S
H1669 C1679 0.930 . S
C1670 H1664 0.930 . S
C1670 C1671 1.355 . S
C1670 C1672 1.415 . S
C1671 C1670 1.355 . S
C1671 C1673 1.419 . S
C1672 C1670 1.415 . S
C1672 C1677 1.425 . S
C1672 C1679 1.409 . S
C1673 H1665 0.930 . S
C1673 C1671 1.419 . S
C1673 C1674 1.362 . S
C1674 H1666 0.930 . S
C1674 C1673 1.362 . S
C1674 C1677 1.409 . S
C1675 H1667 0.930 . S
C1675 C1676 1.355 . S
C1675 C1677 1.415 . S
C1676 C1675 1.355 . S
C1676 C1678 1.419 . S
C1677 C1672 1.425 . S
C1677 C1674 1.409 . S
C1677 C1675 1.415 . S
C1678 H1668 0.930 . S
C1678 C1676 1.419 . S
C1678 C1679 1.362 . S
C1679 H1669 0.930 . S
C1679 C1672 1.409 . S
C1679 C1678 1.362 . S
H1680 C1686 0.930 . S
H1681 C1689 0.930 . S
H1682 C1690 0.930 . S
H1683 C1691 0.930 . S
H1684 C1694 0.930 . S
H1685 C1695 0.930 . S
C1686 H1680 0.930 . S
C1686 C1687 1.355 . S
C1686 C1688 1.415 . S
C1687 C1686 1.355 . S
C1687 C1689 1.419 . S
C1688 C1686 1.415 . S
C1688 C1693 1.425 . S
C1688 C1695 1.409 . S
C1689 H1681 0.930 . S
C1689 C1687 1.419 . S
C1689 C1690 1.362 . S
C1690 H1682 0.930 . S
C1690 C1689 1.362 . S
C1690 C1693 1.409 . S
C1691 H1683 0.930 . S
C1691 C1692 1.355 . S
C1691 C1693 1.415 . S
C1692 C1691 1.355 . S
C1692 C1694 1.419 . S
C1693 C1688 1.425 . S
C1693 C1690 1.409 . S
C1693 C1691 1.415 . S
C1694 H1684 0.930 . S
C1694 C1692 1.419 . S
C1694 C1695 1.362 . S
C1695 H1685 0.930 . S
C1695 C1688 1.409 . S
C1695 C1694 1.362 . S
H1696 C1702 0.930 . S
H1697 C1705 0.930 . S
H1698 C1706 0.930 . S
H1699 C1707 0.930 . S
H1700 C1710 0.930 . S
H1701 C1711 0.930 . S
C1702 H1696 0.930 . S
C1702 C1703 1.355 . S
C1702 C1704 1.415 . S
C1703 C1702 1.355 . S
C1703 C1705 1.419 . S
C1704 C1702 1.415 . S
C1704 C1709 1.425 . S
C1704 C1711 1.409 . S
C1705 H1697 0.930 . S
C1705 C1703 1.419 . S
C1705 C1706 1.362 . S
C1706 H1698 0.930 . S
C1706 C1705 1.362 . S
C1706 C1709 1.409 . S
C1707 H1699 0.930 . S
C1707 C1708 1.355 . S
C1707 C1709 1.415 . S
C1708 C1707 1.355 . S
C1708 C1710 1.419 . S
C1709 C1704 1.425 . S
C1709 C1706 1.409 . S
C1709 C1707 1.415 . S
C1710 H1700 0.930 . S
C1710 C1708 1.419 . S
C1710 C1711 1.362 . S
C1711 H1701 0.930 . S
C1711 C1704 1.409 . S
C1711 C1710 1.362 . S
H1712 C1718 0.930 . S
H1713 C1721 0.930 . S
H1714 C1722 0.930 . S
H1715 C1723 0.930 . S
H1716 C1726 0.930 . S
H1717 C1727 0.930 . S
C1718 H1712 0.930 . S
C1718 C1719 1.355 . S
C1718 C1720 1.415 . S
C1719 C1718 1.355 . S
C1719 C1721 1.419 . S
C1720 C1718 1.415 . S
C1720 C1725 1.425 . S
C1720 C1727 1.409 . S
C1721 H1713 0.930 . S
C1721 C1719 1.419 . S
C1721 C1722 1.362 . S
C1722 H1714 0.930 . S
C1722 C1721 1.362 . S
C1722 C1725 1.409 . S
C1723 H1715 0.930 . S
C1723 C1724 1.355 . S
C1723 C1725 1.415 . S
C1724 C1723 1.355 . S
C1724 C1726 1.419 . S
C1725 C1720 1.425 . S
C1725 C1722 1.409 . S
C1725 C1723 1.415 . S
C1726 H1716 0.930 . S
C1726 C1724 1.419 . S
C1726 C1727 1.362 . S
C1727 H1717 0.930 . S
C1727 C1720 1.409 . S
C1727 C1726 1.362 . S
H1728 C1734 0.930 . S
H1729 C1737 0.930 . S
H1730 C1738 0.930 . S
H1731 C1739 0.930 . S
H1732 C1742 0.930 . S
H1733 C1743 0.930 . S
C1734 H1728 0.930 . S
C1734 C1735 1.355 . S
C1734 C1736 1.415 . S
C1735 C1734 1.355 . S
C1735 C1737 1.419 . S
C1736 C1734 1.415 . S
C1736 C1741 1.425 . S
C1736 C1743 1.409 . S
C1737 H1729 0.930 . S
C1737 C1735 1.419 . S
C1737 C1738 1.362 . S
C1738 H1730 0.930 . S
C1738 C1737 1.362 . S
C1738 C1741 1.409 . S
C1739 H1731 0.930 . S
C1739 C1740 1.355 . S
C1739 C1741 1.415 . S
C1740 C1739 1.355 . S
C1740 C1742 1.419 . S
C1741 C1736 1.425 . S
C1741 C1738 1.409 . S
C1741 C1739 1.415 . S
C1742 H1732 0.930 . S
C1742 C1740 1.419 . S
C1742 C1743 1.362 . S
C1743 H1733 0.930 . S
C1743 C1736 1.409 . S
C1743 C1742 1.362 . S
H1744 C1750 0.930 . S
H1745 C1753 0.930 . S
H1746 C1754 0.930 . S
H1747 C1755 0.930 . S
H1748 C1758 0.930 . S
H1749 C1759 0.930 . S
C1750 H1744 0.930 . S
C1750 C1751 1.355 . S
C1750 C1752 1.415 . S
C1751 C1750 1.355 . S
C1751 C1753 1.419 . S
C1752 C1750 1.415 . S
C1752 C1757 1.425 . S
C1752 C1759 1.409 . S
C1753 H1745 0.930 . S
C1753 C1751 1.419 . S
C1753 C1754 1.362 . S
C1754 H1746 0.930 . S
C1754 C1753 1.362 . S
C1754 C1757 1.409 . S
C1755 H1747 0.930 . S
C1755 C1756 1.355 . S
C1755 C1757 1.415 . S
C1756 C1755 1.355 . S
C1756 C1758 1.419 . S
C1757 C1752 1.425 . S
C1757 C1754 1.409 . S
C1757 C1755 1.415 . S
C1758 H1748 0.930 . S
C1758 C1756 1.419 . S
C1758 C1759 1.362 . S
C1759 H1749 0.930 . S
C1759 C1752 1.409 . S
C1759 C1758 1.362 . S
H1760 C1766 0.930 . S
H1761 C1769 0.930 . S
H1762 C1770 0.930 . S
H1763 C1771 0.930 . S
H1764 C1774 0.930 . S
H1765 C1775 0.930 . S
C1766 H1760 0.930 . S
C1766 C1767 1.355 . S
C1766 C1768 1.415 . S
C1767 C1766 1.355 . S
C1767 C1769 1.419 . S
C1768 C1766 1.415 . S
C1768 C1773 1.425 . S
C1768 C1775 1.409 . S
C1769 H1761 0.930 . S
C1769 C1767 1.419 . S
C1769 C1770 1.362 . S
C1770 H1762 0.930 . S
C1770 C1769 1.362 . S
C1770 C1773 1.409 . S
C1771 H1763 0.930 . S
C1771 C1772 1.355 . S
C1771 C1773 1.415 . S
C1772 C1771 1.355 . S
C1772 C1774 1.419 . S
C1773 C1768 1.425 . S
C1773 C1770 1.409 . S
C1773 C1771 1.415 . S
C1774 H1764 0.930 . S
C1774 C1772 1.419 . S
C1774 C1775 1.362 . S
C1775 H1765 0.930 . S
C1775 C1768 1.409 . S
C1775 C1774 1.362 . S
H1776 C1782 0.930 . S
H1777 C1785 0.930 . S
H1778 C1786 0.930 . S
H1779 C1787 0.930 . S
H1780 C1790 0.930 . S
H1781 C1791 0.930 . S
C1782 H1776 0.930 . S
C1782 C1783 1.355 . S
C1782 C1784 1.415 . S
C1783 C1782 1.355 . S
C1783 C1785 1.419 . S
C1784 C1782 1.415 . S
C1784 C1789 1.425 . S
C1784 C1791 1.409 . S
C1785 H1777 0.930 . S
C1785 C1783 1.419 . S
C1785 C1786 1.362 . S
C1786 H1778 0.930 . S
C1786 C1785 1.362 . S
C1786 C1789 1.409 . S
C1787 H1779 0.930 . S
C1787 C1788 1.355 . S
C1787 C1789 1.415 . S
C1788 C1787 1.355 . S
C1788 C1790 1.419 . S
C1789 C1784 1.425 . S
C1789 C1786 1.409 . S
C1789 C1787 1.415 . S
C1790 H1780 0.930 . S
C1790 C1788 1.419 . S
C1790 C1791 1.362 . S
C1791 H1781 0.930 . S
C1791 C1784 1.409 . S
C1791 C1790 1.362 . S
H1792 C1798 0.930 . S
H1793 C1801 0.930 . S
H1794 C1802 0.930 . S
H1795 C1803 0.930 . S
H1796 C1806 0.930 . S
H1797 C1807 0.930 . S
C1798 H1792 0.930 . S
C1798 C1799 1.355 . S
C1798 C1800 1.415 . S
C1799 C1798 1.355 . S
C1799 C1801 1.419 . S
C1800 C1798 1.415 . S
C1800 C1805 1.425 . S
C1800 C1807 1.409 . S
C1801 H1793 0.930 . S
C1801 C1799 1.419 . S
C1801 C1802 1.362 . S
C1802 H1794 0.930 . S
C1802 C1801 1.362 . S
C1802 C1805 1.409 . S
C1803 H1795 0.930 . S
C1803 C1804 1.355 . S
C1803 C1805 1.415 . S
C1804 C1803 1.355 . S
C1804 C1806 1.419 . S
C1805 C1800 1.425 . S
C1805 C1802 1.409 . S
C1805 C1803 1.415 . S
C1806 H1796 0.930 . S
C1806 C1804 1.419 . S
C1806 C1807 1.362 . S
C1807 H1797 0.930 . S
C1807 C1800 1.409 . S
C1807 C1806 1.362 . S
H1808 C1814 0.930 . S
H1809 C1817 0.930 . S
H1810 C1818 0.930 . S
H1811 C1819 0.930 . S
H1812 C1822 0.930 . S
H1813 C1823 0.930 . S
C1814 H1808 0.930 . S
C1814 C1815 1.355 . S
C1814 C1816 1.415 . S
C1815 C1814 1.355 . S
C1815 C1817 1.419 . S
C1816 C1814 1.415 . S
C1816 C1821 1.425 . S
C1816 C1823 1.409 . S
C1817 H1809 0.930 . S
C1817 C1815 1.419 . S
C1817 C1818 1.362 . S
C1818 H1810 0.930 . S
C1818 C1817 1.362 . S
C1818 C1821 1.409 . S
C1819 H1811 0.930 . S
C1819 C1820 1.355 . S
C1819 C1821 1.415 . S
C1820 C1819 1.355 . S
C1820 C1822 1.419 . S
C1821 C1816 1.425 . S
C1821 C1818 1.409 . S
C1821 C1819 1.415 . S
C1822 H1812 0.930 . S
C1822 C1820 1.419 . S
C1822 C1823 1.362 . S
C1823 H1813 0.930 . S
C1823 C1816 1.409 . S
C1823 C1822 1.362 . S
H1824 C1830 0.930 . S
H1825 C1833 0.930 . S
H1826 C1834 0.930 . S
H1827 C1835 0.930 . S
H1828 C1838 0.930 . S
H1829 C1839 0.930 . S
C1830 H1824 0.930 . S
C1830 C1831 1.355 . S
C1830 C1832 1.415 . S
C1831 C1830 1.355 . S
C1831 C1833 1.419 . S
C1832 C1830 1.415 . S
C1832 C1837 1.425 . S
C1832 C1839 1.409 . S
C1833 H1825 0.930 . S
C1833 C1831 1.419 . S
C1833 C1834 1.362 . S
C1834 H1826 0.930 . S
C1834 C1833 1.362 . S
C1834 C1837 1.409 . S
C1835 H1827 0.930 . S
C1835 C1836 1.355 . S
C1835 C1837 1.415 . S
C1836 C1835 1.355 . S
C1836 C1838 1.419 . S
C1837 C1832 1.425 . S
C1837 C1834 1.409 . S
C1837 C1835 1.415 . S
C1838 H1828 0.930 . S
C1838 C1836 1.419 . S
C1838 C1839 1.362 . S
C1839 H1829 0.930 . S
C1839 C1832 1.409 . S
C1839 C1838 1.362 . S
H1840 C1846 0.930 . S
H1841 C1849 0.930 . S
H1842 C1850 0.930 . S
H1843 C1851 0.930 . S
H1844 C1854 0.930 . S
H1845 C1855 0.930 . S
C1846 H1840 0.930 . S
C1846 C1847 1.355 . S
C1846 C1848 1.415 . S
C1847 C1846 1.355 . S
C1847 C1849 1.419 . S
C1848 C1846 1.415 . S
C1848 C1853 1.425 . S
C1848 C1855 1.409 . S
C1849 H1841 0.930 . S
C1849 C1847 1.419 . S
C1849 C1850 1.362 . S
C1850 H1842 0.930 . S
C1850 C1849 1.362 . S
C1850 C1853 1.409 . S
C1851 H1843 0.930 . S
C1851 C1852 1.355 . S
C1851 C1853 1.415 . S
C1852 C1851 1.355 . S
C1852 C1854 1.419 . S
C1853 C1848 1.425 . S
C1853 C1850 1.409 . S
C1853 C1851 1.415 . S
C1854 H1844 0.930 . S
C1854 C1852 1.419 . S
C1854 C1855 1.362 . S
C1855 H1845 0.930 . S
C1855 C1848 1.409 . S
C1855 C1854 1.362 . S
H1856 C1862 0.930 . S
H1857 C1865 0.930 . S
H1858 C1866 0.930 . S
H1859 C1867 0.930 . S
H1860 C1870 0.930 . S
H1861 C1871 0.930 . S
C1862 H1856 0.930 . S
C1862 C1863 1.355 . S
C1862 C1864 1.415 . S
C1863 C1862 1.355 . S
C1863 C1865 1.419 . S
C1864 C1862 1.415 . S
C1864 C1869 1.425 . S
C1864 C1871 1.409 . S
C1865 H1857 0.930 . S
C1865 C1863 1.419 . S
C1865 C1866 1.362 . S
C1866 H1858 0.930 . S
C1866 C1865 1.362 . S
C1866 C1869 1.409 . S
C1867 H1859 0.930 . S
C1867 C1868 1.355 . S
C1867 C1869 1.415 . S
C1868 C1867 1.355 . S
C1868 C1870 1.419 . S
C1869 C1864 1.425 . S
C1869 C1866 1.409 . S
C1869 C1867 1.415 . S
C1870 H1860 0.930 . S
C1870 C1868 1.419 . S
C1870 C1871 1.362 . S
C1871 H1861 0.930 . S
C1871 C1864 1.409 . S
C1871 C1870 1.362 . S
H1872 C1878 0.930 . S
H1873 C1881 0.930 . S
H1874 C1882 0.930 . S
H1875 C1883 0.930 . S
H1876 C1886 0.930 . S
H1877 C1887 0.930 . S
C1878 H1872 0.930 . S
C1878 C1879 1.355 . S
C1878 C1880 1.415 . S
C1879 C1878 1.355 . S
C1879 C1881 1.419 . S
C1880 C1878 1.415 . S
C1880 C1885 1.425 . S
C1880 C1887 1.409 . S
C1881 H1873 0.930 . S
C1881 C1879 1.419 . S
C1881 C1882 1.362 . S
C1882 H1874 0.930 . S
C1882 C1881 1.362 . S
C1882 C1885 1.409 . S
C1883 H1875 0.930 . S
C1883 C1884 1.355 . S
C1883 C1885 1.415 . S
C1884 C1883 1.355 . S
C1884 C1886 1.419 . S
C1885 C1880 1.425 . S
C1885 C1882 1.409 . S
C1885 C1883 1.415 . S
C1886 H1876 0.930 . S
C1886 C1884 1.419 . S
C1886 C1887 1.362 . S
C1887 H1877 0.930 . S
C1887 C1880 1.409 . S
C1887 C1886 1.362 . S
H1888 C1894 0.930 . S
H1889 C1897 0.930 . S
H1890 C1898 0.930 . S
H1891 C1899 0.930 . S
H1892 C1902 0.930 . S
H1893 C1903 0.930 . S
C1894 H1888 0.930 . S
C1894 C1895 1.355 . S
C1894 C1896 1.415 . S
C1895 C1894 1.355 . S
C1895 C1897 1.419 . S
C1896 C1894 1.415 . S
C1896 C1901 1.425 . S
C1896 C1903 1.409 . S
C1897 H1889 0.930 . S
C1897 C1895 1.419 . S
C1897 C1898 1.362 . S
C1898 H1890 0.930 . S
C1898 C1897 1.362 . S
C1898 C1901 1.409 . S
C1899 H1891 0.930 . S
C1899 C1900 1.355 . S
C1899 C1901 1.415 . S
C1900 C1899 1.355 . S
C1900 C1902 1.419 . S
C1901 C1896 1.425 . S
C1901 C1898 1.409 . S
C1901 C1899 1.415 . S
C1902 H1892 0.930 . S
C1902 C1900 1.419 . S
C1902 C1903 1.362 . S
C1903 H1893 0.930 . S
C1903 C1896 1.409 . S
C1903 C1902 1.362 . S
H1904 C1910 0.930 . S
H1905 C1913 0.930 . S
H1906 C1914 0.930 . S
H1907 C1915 0.930 . S
H1908 C1918 0.930 . S
H1909 C1919 0.930 . S
C1910 H1904 0.930 . S
C1910 C1911 1.355 . S
C1910 C1912 1.415 . S
C1911 C1910 1.355 . S
C1911 C1913 1.419 . S
C1912 C1910 1.415 . S
C1912 C1917 1.425 . S
C1912 C1919 1.409 . S
C1913 H1905 0.930 . S
C1913 C1911 1.419 . S
C1913 C1914 1.362 . S
C1914 H1906 0.930 . S
C1914 C1913 1.362 . S
C1914 C1917 1.409 . S
C1915 H1907 0.930 . S
C1915 C1916 1.355 . S
C1915 C1917 1.415 . S
C1916 C1915 1.355 . S
C1916 C1918 1.419 . S
C1917 C1912 1.425 . S
C1917 C1914 1.409 . S
C1917 C1915 1.415 . S
C1918 H1908 0.930 . S
C1918 C1916 1.419 . S
C1918 C1919 1.362 . S
C1919 H1909 0.930 . S
C1919 C1912 1.409 . S
C1919 C1918 1.362 . S
H1920 C1926 0.930 . S
H1921 C1929 0.930 . S
H1922 C1930 0.930 . S
H1923 C1931 0.930 . S
H1924 C1934 0.930 . S
H1925 C1935 0.930 . S
C1926 H1920 0.930 . S
C1926 C1927 1.355 . S
C1926 C1928 1.415 . S
C1927 C1926 1.355 . S
C1927 C1929 1.419 . S
C1928 C1926 1.415 . S
C1928 C1933 1.425 . S
C1928 C1935 1.409 . S
C1929 H1921 0.930 . S
C1929 C1927 1.419 . S
C1929 C1930 1.362 . S
C1930 H1922 0.930 . S
C1930 C1929 1.362 . S
C1930 C1933 1.409 . S
C1931 H1923 0.930 . S
C1931 C1932 1.355 . S
C1931 C1933 1.415 . S
C1932 C1931 1.355 . S
C1932 C1934 1.419 . S
C1933 C1928 1.425 . S
C1933 C1930 1.409 . S
C1933 C1931 1.415 . S
C1934 H1924 0.930 . S
C1934 C1932 1.419 . S
C1934 C1935 1.362 . S
C1935 H1925 0.930 . S
C1935 C1928 1.409 . S
C1935 C1934 1.362 . S
H1936 C1942 0.930 . S
H1937 C1945 0.930 1_455 S
H1938 C1946 0.930 . S
H1939 C1947 0.930 . S
H1940 C1950 0.930 . S
H1941 C1951 0.930 . S
C1942 H1936 0.930 . S
C1942 C1943 1.355 . S
C1942 C1944 1.415 . S
C1943 C1942 1.355 . S
C1943 C1945 1.419 . S
C1944 C1942 1.415 . S
C1944 C1949 1.425 . S
C1944 C1951 1.409 . S
C1945 H1937 0.930 1_655 S
C1945 C1943 1.419 . S
C1945 C1946 1.362 . S
C1946 H1938 0.930 . S
C1946 C1945 1.362 . S
C1946 C1949 1.409 . S
C1947 H1939 0.930 . S
C1947 C1948 1.355 . S
C1947 C1949 1.415 . S
C1948 C1947 1.355 . S
C1948 C1950 1.419 . S
C1949 C1944 1.425 . S
C1949 C1946 1.409 . S
C1949 C1947 1.415 . S
C1950 H1940 0.930 . S
C1950 C1948 1.419 . S
C1950 C1951 1.362 . S
C1951 H1941 0.930 . S
C1951 C1944 1.409 . S
C1951 C1950 1.362 . S
H1952 C1958 0.930 . S
H1953 C1961 0.930 . S
H1954 C1962 0.930 . S
H1955 C1963 0.930 . S
H1956 C1966 0.930 . S
H1957 C1967 0.930 . S
C1958 H1952 0.930 . S
C1958 C1959 1.355 . S
C1958 C1960 1.415 . S
C1959 C1958 1.355 . S
C1959 C1961 1.419 . S
C1960 C1958 1.415 . S
C1960 C1965 1.425 . S
C1960 C1967 1.409 . S
C1961 H1953 0.930 . S
C1961 C1959 1.419 . S
C1961 C1962 1.362 . S
C1962 H1954 0.930 . S
C1962 C1961 1.362 . S
C1962 C1965 1.409 . S
C1963 H1955 0.930 . S
C1963 C1964 1.355 . S
C1963 C1965 1.415 . S
C1964 C1963 1.355 . S
C1964 C1966 1.419 . S
C1965 C1960 1.425 . S
C1965 C1962 1.409 . S
C1965 C1963 1.415 . S
C1966 H1956 0.930 . S
C1966 C1964 1.419 . S
C1966 C1967 1.362 . S
C1967 H1957 0.930 . S
C1967 C1960 1.409 . S
C1967 C1966 1.362 . S
H1968 C1974 0.930 . S
H1969 C1977 0.930 . S
H1970 C1978 0.930 . S
H1971 C1979 0.930 . S
H1972 C1982 0.930 . S
H1973 C1983 0.930 . S
C1974 H1968 0.930 . S
C1974 C1975 1.355 . S
C1974 C1976 1.415 . S
C1975 C1974 1.355 . S
C1975 C1977 1.419 . S
C1976 C1974 1.415 . S
C1976 C1981 1.425 . S
C1976 C1983 1.409 . S
C1977 H1969 0.930 . S
C1977 C1975 1.419 . S
C1977 C1978 1.362 . S
C1978 H1970 0.930 . S
C1978 C1977 1.362 . S
C1978 C1981 1.409 . S
C1979 H1971 0.930 . S
C1979 C1980 1.355 . S
C1979 C1981 1.415 . S
C1980 C1979 1.355 . S
C1980 C1982 1.419 . S
C1981 C1976 1.425 . S
C1981 C1978 1.409 . S
C1981 C1979 1.415 . S
C1982 H1972 0.930 . S
C1982 C1980 1.419 . S
C1982 C1983 1.362 . S
C1983 H1973 0.930 . S
C1983 C1976 1.409 . S
C1983 C1982 1.362 . S
H1984 C1990 0.930 . S
H1985 C1993 0.930 . S
H1986 C1994 0.930 . S
H1987 C1995 0.930 . S
H1988 C1998 0.930 . S
H1989 C1999 0.930 . S
C1990 H1984 0.930 . S
C1990 C1991 1.355 . S
C1990 C1992 1.415 . S
C1991 C1990 1.355 . S
C1991 C1993 1.419 . S
C1992 C1990 1.415 . S
C1992 C1997 1.425 . S
C1992 C1999 1.409 . S
C1993 H1985 0.930 . S
C1993 C1991 1.419 . S
C1993 C1994 1.362 . S
C1994 H1986 0.930 . S
C1994 C1993 1.362 . S
C1994 C1997 1.409 . S
C1995 H1987 0.930 . S
C1995 C1996 1.355 . S
C1995 C1997 1.415 . S
C1996 C1995 1.355 . S
C1996 C1998 1.419 . S
C1997 C1992 1.425 . S
C1997 C1994 1.409 . S
C1997 C1995 1.415 . S
C1998 H1988 0.930 . S
C1998 C1996 1.419 . S
C1998 C1999 1.362 . S
C1999 H1989 0.930 . S
C1999 C1992 1.409 . S
C1999 C1998 1.362 . S
H2000 C2006 0.930 . S
H2001 C2009 0.930 . S
H2002 C2010 0.930 . S
H2003 C2011 0.930 . S
H2004 C2014 0.930 . S
H2005 C2015 0.930 . S
C2006 H2000 0.930 . S
C2006 C2007 1.355 . S
C2006 C2008 1.415 . S
C2007 C2006 1.355 . S
C2007 C2009 1.419 . S
C2008 C2006 1.415 . S
C2008 C2013 1.425 . S
C2008 C2015 1.409 . S
C2009 H2001 0.930 . S
C2009 C2007 1.419 . S
C2009 C2010 1.362 . S
C2010 H2002 0.930 . S
C2010 C2009 1.362 . S
C2010 C2013 1.409 . S
C2011 H2003 0.930 . S
C2011 C2012 1.355 . S
C2011 C2013 1.415 . S
C2012 C2011 1.355 . S
C2012 C2014 1.419 . S
C2013 C2008 1.425 . S
C2013 C2010 1.409 . S
C2013 C2011 1.415 . S
C2014 H2004 0.930 . S
C2014 C2012 1.419 . S
C2014 C2015 1.362 . S
C2015 H2005 0.930 . S
C2015 C2008 1.409 . S
C2015 C2014 1.362 . S
H2016 C2022 0.930 . S
H2017 C2025 0.930 . S
H2018 C2026 0.930 . S
H2019 C2027 0.930 . S
H2020 C2030 0.930 . S
H2021 C2031 0.930 . S
C2022 H2016 0.930 . S
C2022 C2023 1.355 . S
C2022 C2024 1.415 . S
C2023 C2022 1.355 . S
C2023 C2025 1.419 . S
C2024 C2022 1.415 . S
C2024 C2029 1.425 . S
C2024 C2031 1.409 . S
C2025 H2017 0.930 . S
C2025 C2023 1.419 . S
C2025 C2026 1.362 . S
C2026 H2018 0.930 . S
C2026 C2025 1.362 . S
C2026 C2029 1.409 . S
C2027 H2019 0.930 . S
C2027 C2028 1.355 . S
C2027 C2029 1.415 . S
C2028 C2027 1.355 . S
C2028 C2030 1.419 . S
C2029 C2024 1.425 . S
C2029 C2026 1.409 . S
C2029 C2027 1.415 . S
C2030 H2020 0.930 . S
C2030 C2028 1.419 . S
C2030 C2031 1.362 . S
C2031 H2021 0.930 . S
C2031 C2024 1.409 . S
C2031 C2030 1.362 . S
H2032 C2038 0.930 . S
H2033 C2041 0.930 . S
H2034 C2042 0.930 . S
H2035 C2043 0.930 . S
H2036 C2046 0.930 . S
H2037 C2047 0.930 . S
C2038 H2032 0.930 . S
C2038 C2039 1.355 . S
C2038 C2040 1.415 . S
C2039 C2038 1.355 . S
C2039 C2041 1.419 . S
C2040 C2038 1.415 . S
C2040 C2045 1.425 . S
C2040 C2047 1.409 . S
C2041 H2033 0.930 . S
C2041 C2039 1.419 . S
C2041 C2042 1.362 . S
C2042 H2034 0.930 . S
C2042 C2041 1.362 . S
C2042 C2045 1.409 . S
C2043 H2035 0.930 . S
C2043 C2044 1.355 . S
C2043 C2045 1.415 . S
C2044 C2043 1.355 . S
C2044 C2046 1.419 . S
C2045 C2040 1.425 . S
C2045 C2042 1.409 . S
C2045 C2043 1.415 . S
C2046 H2036 0.930 . S
C2046 C2044 1.419 . S
C2046 C2047 1.362 . S
C2047 H2037 0.930 . S
C2047 C2040 1.409 . S
C2047 C2046 1.362 . S
H2048 C2054 0.930 . S
H2049 C2057 0.930 . S
H2050 C2058 0.930 . S
H2051 C2059 0.930 . S
H2052 C2062 0.930 . S
H2053 C2063 0.930 . S
C2054 H2048 0.930 . S
C2054 C2055 1.355 . S
C2054 C2056 1.415 . S
C2055 C2054 1.355 . S
C2055 C2057 1.419 . S
C2056 C2054 1.415 . S
C2056 C2061 1.425 . S
C2056 C2063 1.409 . S
C2057 H2049 0.930 . S
C2057 C2055 1.419 . S
C2057 C2058 1.362 . S
C2058 H2050 0.930 . S
C2058 C2057 1.362 . S
C2058 C2061 1.409 . S
C2059 H2051 0.930 . S
C2059 C2060 1.355 . S
C2059 C2061 1.415 . S
C2060 C2059 1.355 . S
C2060 C2062 1.419 . S
C2061 C2056 1.425 . S
C2061 C2058 1.409 . S
C2061 C2059 1.415 . S
C2062 H2052 0.930 . S
C2062 C2060 1.419 . S
C2062 C2063 1.362 . S
C2063 H2053 0.930 . S
C2063 C2056 1.409 . S
C2063 C2062 1.362 . S
H2064 C2070 0.930 . S
H2065 C2073 0.930 . S
H2066 C2074 0.930 . S
H2067 C2075 0.930 . S
H2068 C2078 0.930 . S
H2069 C2079 0.930 . S
C2070 H2064 0.930 . S
C2070 C2071 1.355 . S
C2070 C2072 1.415 . S
C2071 C2070 1.355 . S
C2071 C2073 1.419 . S
C2072 C2070 1.415 . S
C2072 C2077 1.425 . S
C2072 C2079 1.409 . S
C2073 H2065 0.930 . S
C2073 C2071 1.419 . S
C2073 C2074 1.362 . S
C2074 H2066 0.930 . S
C2074 C2073 1.362 . S
C2074 C2077 1.409 . S
C2075 H2067 0.930 . S
C2075 C2076 1.355 . S
C2075 C2077 1.415 . S
C2076 C2075 1.355 . S
C2076 C2078 1.419 . S
C2077 C2072 1.425 . S
C2077 C2074 1.409 . S
C2077 C2075 1.415 . S
C2078 H2068 0.930 . S
C2078 C2076 1.419 . S
C2078 C2079 1.362 . S
C2079 H2069 0.930 . S
C2079 C2072 1.409 . S
C2079 C2078 1.362 . S
H2080 C2086 0.930 . S
H2081 C2089 0.930 . S
H2082 C2090 0.930 . S
H2083 C2091 0.930 . S
H2084 C2094 0.930 . S
H2085 C2095 0.930 . S
C2086 H2080 0.930 . S
C2086 C2087 1.355 . S
C2086 C2088 1.415 . S
C2087 C2086 1.355 . S
C2087 C2089 1.419 . S
C2088 C2086 1.415 . S
C2088 C2093 1.425 . S
C2088 C2095 1.409 . S
C2089 H2081 0.930 . S
C2089 C2087 1.419 . S
C2089 C2090 1.362 . S
C2090 H2082 0.930 . S
C2090 C2089 1.362 . S
C2090 C2093 1.409 . S
C2091 H2083 0.930 . S
C2091 C2092 1.355 . S
C2091 C2093 1.415 . S
C2092 C2091 1.355 . S
C2092 C2094 1.419 . S
C2093 C2088 1.425 . S
C2093 C2090 1.409 . S
C2093 C2091 1.415 . S
C2094 H2084 0.930 . S
C2094 C2092 1.419 . S
C2094 C2095 1.362 . S
C2095 H2085 0.930 . S
C2095 C2088 1.409 . S
C2095 C2094 1.362 . S
H2096 C2102 0.930 . S
H2097 C2105 0.930 . S
H2098 C2106 0.930 . S
H2099 C2107 0.930 . S
H2100 C2110 0.930 . S
H2101 C2111 0.930 . S
C2102 H2096 0.930 . S
C2102 C2103 1.355 . S
C2102 C2104 1.415 . S
C2103 C2102 1.355 . S
C2103 C2105 1.419 . S
C2104 C2102 1.415 . S
C2104 C2109 1.425 . S
C2104 C2111 1.409 . S
C2105 H2097 0.930 . S
C2105 C2103 1.419 . S
C2105 C2106 1.362 . S
C2106 H2098 0.930 . S
C2106 C2105 1.362 . S
C2106 C2109 1.409 . S
C2107 H2099 0.930 . S
C2107 C2108 1.355 . S
C2107 C2109 1.415 . S
C2108 C2107 1.355 . S
C2108 C2110 1.419 . S
C2109 C2104 1.425 . S
C2109 C2106 1.409 . S
C2109 C2107 1.415 . S
C2110 H2100 0.930 . S
C2110 C2108 1.419 . S
C2110 C2111 1.362 . S
C2111 H2101 0.930 . S
C2111 C2104 1.409 . S
C2111 C2110 1.362 . S
H2112 C2118 0.930 . S
H2113 C2121 0.930 . S
H2114 C2122 0.930 . S
H2115 C2123 0.930 . S
H2116 C2126 0.930 . S
H2117 C2127 0.930 . S
C2118 H2112 0.930 . S
C2118 C2119 1.355 . S
C2118 C2120 1.415 . S
C2119 C2118 1.355 . S
C2119 C2121 1.419 . S
C2120 C2118 1.415 . S
C2120 C2125 1.425 . S
C2120 C2127 1.409 . S
C2121 H2113 0.930 . S
C2121 C2119 1.419 . S
C2121 C2122 1.362 . S
C2122 H2114 0.930 . S
C2122 C2121 1.362 . S
C2122 C2125 1.409 . S
C2123 H2115 0.930 . S
C2123 C2124 1.355 . S
C2123 C2125 1.415 . S
C2124 C2123 1.355 . S
C2124 C2126 1.419 . S
C2125 C2120 1.425 . S
C2125 C2122 1.409 . S
C2125 C2123 1.415 . S
C2126 H2116 0.930 . S
C2126 C2124 1.419 . S
C2126 C2127 1.362 . S
C2127 H2117 0.930 . S
C2127 C2120 1.409 . S
C2127 C2126 1.362 . S
H2128 C2134 0.930 . S
H2129 C2137 0.930 . S
H2130 C2138 0.930 . S
H2131 C2139 0.930 . S
H2132 C2142 0.930 1_455 S
H2133 C2143 0.930 . S
C2134 H2128 0.930 . S
C2134 C2135 1.355 . S
C2134 C2136 1.415 . S
C2135 C2134 1.355 . S
C2135 C2137 1.419 . S
C2136 C2134 1.415 . S
C2136 C2141 1.425 . S
C2136 C2143 1.409 . S
C2137 H2129 0.930 . S
C2137 C2135 1.419 . S
C2137 C2138 1.362 . S
C2138 H2130 0.930 . S
C2138 C2137 1.362 . S
C2138 C2141 1.409 . S
C2139 H2131 0.930 . S
C2139 C2140 1.355 . S
C2139 C2141 1.415 . S
C2140 C2139 1.355 . S
C2140 C2142 1.419 . S
C2141 C2136 1.425 . S
C2141 C2138 1.409 . S
C2141 C2139 1.415 . S
C2142 H2132 0.930 1_655 S
C2142 C2140 1.419 . S
C2142 C2143 1.362 . S
C2143 H2133 0.930 . S
C2143 C2136 1.409 . S
C2143 C2142 1.362 . S
H2144 C2150 0.930 . S
H2145 C2153 0.930 . S
H2146 C2154 0.930 . S
H2147 C2155 0.930 . S
H2148 C2158 0.930 . S
H2149 C2159 0.930 . S
C2150 H2144 0.930 . S
C2150 C2151 1.355 . S
C2150 C2152 1.415 . S
C2151 C2150 1.355 . S
C2151 C2153 1.419 . S
C2152 C2150 1.415 . S
C2152 C2157 1.425 . S
C2152 C2159 1.409 . S
C2153 H2145 0.930 . S
C2153 C2151 1.419 . S
C2153 C2154 1.362 . S
C2154 H2146 0.930 . S
C2154 C2153 1.362 . S
C2154 C2157 1.409 . S
C2155 H2147 0.930 . S
C2155 C2156 1.355 . S
C2155 C2157 1.415 . S
C2156 C2155 1.355 . S
C2156 C2158 1.419 . S
C2157 C2152 1.425 . S
C2157 C2154 1.409 . S
C2157 C2155 1.415 . S
C2158 H2148 0.930 . S
C2158 C2156 1.419 . S
C2158 C2159 1.362 . S
C2159 H2149 0.930 . S
C2159 C2152 1.409 . S
C2159 C2158 1.362 . S
H2160 C2166 0.930 . S
H2161 C2169 0.930 . S
H2162 C2170 0.930 . S
H2163 C2171 0.930 . S
H2164 C2174 0.930 . S
H2165 C2175 0.930 . S
C2166 H2160 0.930 . S
C2166 C2167 1.355 . S
C2166 C2168 1.415 . S
C2167 C2166 1.355 . S
C2167 C2169 1.419 . S
C2168 C2166 1.415 . S
C2168 C2173 1.425 . S
C2168 C2175 1.409 . S
C2169 H2161 0.930 . S
C2169 C2167 1.419 . S
C2169 C2170 1.362 . S
C2170 H2162 0.930 . S
C2170 C2169 1.362 . S
C2170 C2173 1.409 . S
C2171 H2163 0.930 . S
C2171 C2172 1.355 . S
C2171 C2173 1.415 . S
C2172 C2171 1.355 . S
C2172 C2174 1.419 . S
C2173 C2168 1.425 . S
C2173 C2170 1.409 . S
C2173 C2171 1.415 . S
C2174 H2164 0.930 . S
C2174 C2172 1.419 . S
C2174 C2175 1.362 . S
C2175 H2165 0.930 . S
C2175 C2168 1.409 . S
C2175 C2174 1.362 . S
H2176 C2182 0.930 . S
H2177 C2185 0.930 . S
H2178 C2186 0.930 . S
H2179 C2187 0.930 . S
H2180 C2190 0.930 . S
H2181 C2191 0.930 . S
C2182 H2176 0.930 . S
C2182 C2183 1.355 . S
C2182 C2184 1.415 . S
C2183 C2182 1.355 . S
C2183 C2185 1.419 . S
C2184 C2182 1.415 . S
C2184 C2189 1.425 . S
C2184 C2191 1.409 . S
C2185 H2177 0.930 . S
C2185 C2183 1.419 . S
C2185 C2186 1.362 . S
C2186 H2178 0.930 . S
C2186 C2185 1.362 . S
C2186 C2189 1.409 . S
C2187 H2179 0.930 . S
C2187 C2188 1.355 . S
C2187 C2189 1.415 . S
C2188 C2187 1.355 . S
C2188 C2190 1.419 . S
C2189 C2184 1.425 . S
C2189 C2186 1.409 . S
C2189 C2187 1.415 . S
C2190 H2180 0.930 . S
C2190 C2188 1.419 . S
C2190 C2191 1.362 . S
C2191 H2181 0.930 . S
C2191 C2184 1.409 . S
C2191 C2190 1.362 . S
H2192 C2198 0.930 . S
H2193 C2201 0.930 . S
H2194 C2202 0.930 . S
H2195 C2203 0.930 . S
H2196 C2206 0.930 . S
H2197 C2207 0.930 . S
C2198 H2192 0.930 . S
C2198 C2199 1.355 . S
C2198 C2200 1.415 . S
C2199 C2198 1.355 . S
C2199 C2201 1.419 . S
C2200 C2198 1.415 . S
C2200 C2205 1.425 . S
C2200 C2207 1.409 . S
C2201 H2193 0.930 . S
C2201 C2199 1.419 . S
C2201 C2202 1.362 . S
C2202 H2194 0.930 . S
C2202 C2201 1.362 . S
C2202 C2205 1.409 . S
C2203 H2195 0.930 . S
C2203 C2204 1.355 . S
C2203 C2205 1.415 . S
C2204 C2203 1.355 . S
C2204 C2206 1.419 . S
C2205 C2200 1.425 . S
C2205 C2202 1.409 . S
C2205 C2203 1.415 . S
C2206 H2196 0.930 . S
C2206 C2204 1.419 . S
C2206 C2207 1.362 . S
C2207 H2197 0.930 . S
C2207 C2200 1.409 . S
C2207 C2206 1.362 . S
H2208 C2214 0.930 . S
H2209 C2217 0.930 . S
H2210 C2218 0.930 . S
H2211 C2219 0.930 . S
H2212 C2222 0.930 . S
H2213 C2223 0.930 . S
C2214 H2208 0.930 . S
C2214 C2215 1.355 . S
C2214 C2216 1.415 . S
C2215 C2214 1.355 . S
C2215 C2217 1.419 . S
C2216 C2214 1.415 . S
C2216 C2221 1.425 . S
C2216 C2223 1.409 . S
C2217 H2209 0.930 . S
C2217 C2215 1.419 . S
C2217 C2218 1.362 . S
C2218 H2210 0.930 . S
C2218 C2217 1.362 . S
C2218 C2221 1.409 . S
C2219 H2211 0.930 . S
C2219 C2220 1.355 . S
C2219 C2221 1.415 . S
C2220 C2219 1.355 . S
C2220 C2222 1.419 . S
C2221 C2216 1.425 . S
C2221 C2218 1.409 . S
C2221 C2219 1.415 . S
C2222 H2212 0.930 . S
C2222 C2220 1.419 . S
C2222 C2223 1.362 . S
C2223 H2213 0.930 . S
C2223 C2216 1.409 . S
C2223 C2222 1.362 . S
H2224 C2230 0.930 . S
H2225 C2233 0.946 . S
H2226 C2234 0.930 . S
H2227 C2235 0.930 . S
H2228 C2238 0.930 . S
H2229 C2239 0.930 . S
C2230 H2224 0.930 . S
C2230 C2231 1.355 . S
C2230 C2232 1.415 . S
C2231 C2230 1.355 . S
C2231 C2233 1.419 . S
C2232 C2230 1.415 . S
C2232 C2237 1.425 . S
C2232 C2239 1.409 . S
C2233 H2225 0.946 . S
C2233 C2231 1.419 . S
C2233 C2234 1.362 . S
C2234 H2226 0.930 . S
C2234 C2233 1.362 . S
C2234 C2237 1.409 . S
C2235 H2227 0.930 . S
C2235 C2236 1.355 . S
C2235 C2237 1.415 . S
C2236 C2235 1.355 . S
C2236 C2238 1.419 . S
C2237 C2232 1.425 . S
C2237 C2234 1.409 . S
C2237 C2235 1.415 . S
C2238 H2228 0.930 . S
C2238 C2236 1.419 . S
C2238 C2239 1.362 . S
C2239 H2229 0.930 . S
C2239 C2232 1.409 . S
C2239 C2238 1.362 . S
H2240 C2246 0.930 . S
H2241 C2249 0.930 . S
H2242 C2250 0.930 . S
H2243 C2251 0.930 . S
H2244 C2254 0.930 . S
H2245 C2255 0.930 . S
C2246 H2240 0.930 . S
C2246 C2247 1.355 . S
C2246 C2248 1.415 . S
C2247 C2246 1.355 . S
C2247 C2249 1.419 . S
C2248 C2246 1.415 . S
C2248 C2253 1.425 . S
C2248 C2255 1.409 . S
C2249 H2241 0.930 . S
C2249 C2247 1.419 . S
C2249 C2250 1.362 . S
C2250 H2242 0.930 . S
C2250 C2249 1.362 . S
C2250 C2253 1.409 . S
C2251 H2243 0.930 . S
C2251 C2252 1.355 . S
C2251 C2253 1.415 . S
C2252 C2251 1.355 . S
C2252 C2254 1.419 . S
C2253 C2248 1.425 . S
C2253 C2250 1.409 . S
C2253 C2251 1.415 . S
C2254 H2244 0.930 . S
C2254 C2252 1.419 . S
C2254 C2255 1.362 . S
C2255 H2245 0.930 . S
C2255 C2248 1.409 . S
C2255 C2254 1.362 . S
H2256 C2262 0.930 . S
H2257 C2265 0.930 . S
H2258 C2266 0.930 . S
H2259 C2267 0.930 . S
H2260 C2270 0.930 . S
H2261 C2271 0.930 . S
C2262 H2256 0.930 . S
C2262 C2263 1.355 . S
C2262 C2264 1.415 . S
C2263 C2262 1.355 . S
C2263 C2265 1.419 . S
C2264 C2262 1.415 . S
C2264 C2269 1.425 . S
C2264 C2271 1.409 . S
C2265 H2257 0.930 . S
C2265 C2263 1.419 . S
C2265 C2266 1.362 . S
C2266 H2258 0.930 . S
C2266 C2265 1.362 . S
C2266 C2269 1.409 . S
C2267 H2259 0.930 . S
C2267 C2268 1.355 . S
C2267 C2269 1.415 . S
C2268 C2267 1.355 . S
C2268 C2270 1.419 . S
C2269 C2264 1.425 . S
C2269 C2266 1.409 . S
C2269 C2267 1.415 . S
C2270 H2260 0.930 . S
C2270 C2268 1.419 . S
C2270 C2271 1.362 . S
C2271 H2261 0.930 . S
C2271 C2264 1.409 . S
C2271 C2270 1.362 . S
H2272 C2278 0.930 . S
H2273 C2281 0.930 . S
H2274 C2282 0.930 . S
H2275 C2283 0.930 . S
H2276 C2286 0.930 . S
H2277 C2287 0.930 . S
C2278 H2272 0.930 . S
C2278 C2279 1.355 . S
C2278 C2280 1.415 . S
C2279 C2278 1.355 . S
C2279 C2281 1.419 . S
C2280 C2278 1.415 . S
C2280 C2285 1.425 . S
C2280 C2287 1.409 . S
C2281 H2273 0.930 . S
C2281 C2279 1.419 . S
C2281 C2282 1.362 . S
C2282 H2274 0.930 . S
C2282 C2281 1.362 . S
C2282 C2285 1.409 . S
C2283 H2275 0.930 . S
C2283 C2284 1.355 . S
C2283 C2285 1.415 . S
C2284 C2283 1.355 . S
C2284 C2286 1.419 . S
C2285 C2280 1.425 . S
C2285 C2282 1.409 . S
C2285 C2283 1.415 . S
C2286 H2276 0.930 . S
C2286 C2284 1.419 . S
C2286 C2287 1.362 . S
C2287 H2277 0.930 . S
C2287 C2280 1.409 . S
C2287 C2286 1.362 . S
H2288 C2294 0.930 . S
H2289 C2297 0.930 . S
H2290 C2298 0.930 . S
H2291 C2299 0.930 . S
H2292 C2302 0.930 . S
H2293 C2303 0.930 . S
C2294 H2288 0.930 . S
C2294 C2295 1.355 . S
C2294 C2296 1.415 . S
C2295 C2294 1.355 . S
C2295 C2297 1.419 . S
C2296 C2294 1.415 . S
C2296 C2301 1.425 . S
C2296 C2303 1.409 . S
C2297 H2289 0.930 . S
C2297 C2295 1.419 . S
C2297 C2298 1.362 . S
C2298 H2290 0.930 . S
C2298 C2297 1.362 . S
C2298 C2301 1.409 . S
C2299 H2291 0.930 . S
C2299 C2300 1.355 . S
C2299 C2301 1.415 . S
C2300 C2299 1.355 . S
C2300 C2302 1.419 . S
C2301 C2296 1.425 . S
C2301 C2298 1.409 . S
C2301 C2299 1.415 . S
C2302 H2292 0.930 . S
C2302 C2300 1.419 . S
C2302 C2303 1.362 . S
C2303 H2293 0.930 . S
C2303 C2296 1.409 . S
C2303 C2302 1.362 . S
H2304 C2310 0.930 . S
H2305 C2313 0.930 . S
H2306 C2314 0.930 . S
H2307 C2315 0.930 . S
H2308 C2318 0.930 . S
H2309 C2319 0.930 . S
C2310 H2304 0.930 . S
C2310 C2311 1.355 . S
C2310 C2312 1.415 . S
C2311 C2310 1.355 . S
C2311 C2313 1.419 . S
C2312 C2310 1.415 . S
C2312 C2317 1.425 1_545 S
C2312 C2319 1.409 1_545 S
C2313 H2305 0.930 . S
C2313 C2311 1.419 . S
C2313 C2314 1.362 . S
C2314 H2306 0.930 . S
C2314 C2313 1.362 . S
C2314 C2317 1.409 1_545 S
C2315 H2307 0.930 . S
C2315 C2316 1.355 . S
C2315 C2317 1.415 . S
C2316 C2315 1.355 . S
C2316 C2318 1.419 . S
C2317 C2312 1.425 1_565 S
C2317 C2314 1.409 1_565 S
C2317 C2315 1.415 . S
C2318 H2308 0.930 . S
C2318 C2316 1.419 . S
C2318 C2319 1.362 . S
C2319 H2309 0.930 . S
C2319 C2312 1.409 1_565 S
C2319 C2318 1.362 . S
H2320 C2326 0.930 . S
H2321 C2329 0.930 . S
H2322 C2330 0.930 . S
H2323 C2331 0.930 . S
H2324 C2334 0.930 . S
H2325 C2335 0.930 . S
C2326 H2320 0.930 . S
C2326 C2327 1.355 . S
C2326 C2328 1.415 . S
C2327 C2326 1.355 . S
C2327 C2329 1.419 . S
C2328 C2326 1.415 . S
C2328 C2333 1.425 . S
C2328 C2335 1.409 . S
C2329 H2321 0.930 . S
C2329 C2327 1.419 . S
C2329 C2330 1.362 . S
C2330 H2322 0.930 . S
C2330 C2329 1.362 . S
C2330 C2333 1.409 . S
C2331 H2323 0.930 . S
C2331 C2332 1.355 . S
C2331 C2333 1.415 . S
C2332 C2331 1.355 . S
C2332 C2334 1.419 . S
C2333 C2328 1.425 . S
C2333 C2330 1.409 . S
C2333 C2331 1.415 . S
C2334 H2324 0.930 . S
C2334 C2332 1.419 . S
C2334 C2335 1.362 . S
C2335 H2325 0.930 . S
C2335 C2328 1.409 . S
C2335 C2334 1.362 . S
H2336 C2342 0.930 . S
H2337 C2345 0.930 . S
H2338 C2346 0.930 . S
H2339 C2347 0.930 . S
H2340 C2350 0.930 . S
H2341 C2351 0.930 . S
C2342 H2336 0.930 . S
C2342 C2343 1.355 . S
C2342 C2344 1.415 . S
C2343 C2342 1.355 . S
C2343 C2345 1.419 . S
C2344 C2342 1.415 . S
C2344 C2349 1.425 1_565 S
C2344 C2351 1.409 1_565 S
C2345 H2337 0.930 . S
C2345 C2343 1.419 . S
C2345 C2346 1.362 . S
C2346 H2338 0.930 . S
C2346 C2345 1.362 . S
C2346 C2349 1.409 1_565 S
C2347 H2339 0.930 . S
C2347 C2348 1.355 . S
C2347 C2349 1.415 . S
C2348 C2347 1.355 . S
C2348 C2350 1.419 . S
C2349 C2344 1.425 1_545 S
C2349 C2346 1.409 1_545 S
C2349 C2347 1.415 . S
C2350 H2340 0.930 . S
C2350 C2348 1.419 . S
C2350 C2351 1.362 . S
C2351 H2341 0.930 . S
C2351 C2344 1.409 1_545 S
C2351 C2350 1.362 . S
H2352 C2358 0.930 . S
H2353 C2361 0.930 . S
H2354 C2362 0.930 . S
H2355 C2363 0.930 . S
H2356 C2366 0.930 . S
H2357 C2367 0.930 . S
C2358 H2352 0.930 . S
C2358 C2359 1.355 1_556 S
C2358 C2360 1.415 . S
C2359 C2358 1.355 1_554 S
C2359 C2361 1.419 . S
C2360 C2358 1.415 . S
C2360 C2365 1.425 1_556 S
C2360 C2367 1.409 . S
C2361 H2353 0.930 . S
C2361 C2359 1.419 . S
C2361 C2362 1.362 . S
C2362 H2354 0.930 . S
C2362 C2361 1.362 . S
C2362 C2365 1.409 . S
C2363 H2355 0.930 . S
C2363 C2364 1.355 1_554 S
C2363 C2365 1.415 . S
C2364 C2363 1.355 1_556 S
C2364 C2366 1.419 . S
C2365 C2360 1.425 1_554 S
C2365 C2362 1.409 . S
C2365 C2363 1.415 . S
C2366 H2356 0.930 . S
C2366 C2364 1.419 . S
C2366 C2367 1.362 . S
C2367 H2357 0.930 . S
C2367 C2360 1.409 . S
C2367 C2366 1.362 . S
H2368 C2374 0.930 . S
H2369 C2377 0.930 . S
H2370 C2378 0.930 . S
H2371 C2379 0.930 . S
H2372 C2382 0.930 . S
H2373 C2383 0.930 . S
C2374 H2368 0.930 . S
C2374 C2375 1.355 . S
C2374 C2376 1.415 . S
C2375 C2374 1.355 . S
C2375 C2377 1.419 . S
C2376 C2374 1.415 . S
C2376 C2381 1.425 1_545 S
C2376 C2383 1.409 1_545 S
C2377 H2369 0.930 . S
C2377 C2375 1.419 . S
C2377 C2378 1.362 . S
C2378 H2370 0.930 . S
C2378 C2377 1.362 . S
C2378 C2381 1.409 1_545 S
C2379 H2371 0.930 . S
C2379 C2380 1.355 . S
C2379 C2381 1.415 . S
C2380 C2379 1.355 . S
C2380 C2382 1.419 . S
C2381 C2376 1.425 1_565 S
C2381 C2378 1.409 1_565 S
C2381 C2379 1.415 . S
C2382 H2372 0.930 . S
C2382 C2380 1.419 . S
C2382 C2383 1.362 . S
C2383 H2373 0.930 . S
C2383 C2376 1.409 1_565 S
C2383 C2382 1.362 . S
H2384 C2390 0.930 . S
H2385 C2393 0.930 . S
H2386 C2394 0.930 . S
H2387 C2395 0.930 . S
H2388 C2398 0.930 . S
H2389 C2399 0.930 . S
C2390 H2384 0.930 . S
C2390 C2391 1.355 . S
C2390 C2392 1.415 . S
C2391 C2390 1.355 . S
C2391 C2393 1.419 . S
C2392 C2390 1.415 . S
C2392 C2397 1.425 . S
C2392 C2399 1.409 . S
C2393 H2385 0.930 . S
C2393 C2391 1.419 . S
C2393 C2394 1.362 . S
C2394 H2386 0.930 . S
C2394 C2393 1.362 . S
C2394 C2397 1.409 . S
C2395 H2387 0.930 . S
C2395 C2396 1.355 . S
C2395 C2397 1.415 . S
C2396 C2395 1.355 . S
C2396 C2398 1.419 . S
C2397 C2392 1.425 . S
C2397 C2394 1.409 . S
C2397 C2395 1.415 . S
C2398 H2388 0.930 . S
C2398 C2396 1.419 . S
C2398 C2399 1.362 . S
C2399 H2389 0.930 . S
C2399 C2392 1.409 . S
C2399 C2398 1.362 . S
H2400 C2406 0.930 . S
H2401 C2409 0.930 . S
H2402 C2410 0.930 . S
H2403 C2411 0.930 . S
H2404 C2414 0.930 . S
H2405 C2415 0.930 . S
C2406 H2400 0.930 . S
C2406 C2407 1.355 . S
C2406 C2408 1.415 . S
C2407 C2406 1.355 . S
C2407 C2409 1.419 . S
C2408 C2406 1.415 . S
C2408 C2413 1.425 1_545 S
C2408 C2415 1.409 1_545 S
C2409 H2401 0.930 . S
C2409 C2407 1.419 . S
C2409 C2410 1.362 . S
C2410 H2402 0.930 . S
C2410 C2409 1.362 . S
C2410 C2413 1.409 1_545 S
C2411 H2403 0.930 . S
C2411 C2412 1.355 . S
C2411 C2413 1.415 . S
C2412 C2411 1.355 . S
C2412 C2414 1.419 . S
C2413 C2408 1.425 1_565 S
C2413 C2410 1.409 1_565 S
C2413 C2411 1.415 . S
C2414 H2404 0.930 . S
C2414 C2412 1.419 . S
C2414 C2415 1.362 . S
C2415 H2405 0.930 . S
C2415 C2408 1.409 1_565 S
C2415 C2414 1.362 . S
H2416 C2422 0.930 . S
H2417 C2425 0.930 . S
H2418 C2426 0.930 . S
H2419 C2427 0.930 . S
H2420 C2430 0.930 . S
H2421 C2431 0.930 . S
C2422 H2416 0.930 . S
C2422 C2423 1.346 1_554 S
C2422 C2424 1.415 . S
C2423 C2422 1.346 1_556 S
C2423 C2425 1.431 . S
C2424 C2422 1.415 . S
C2424 C2429 1.425 1_554 S
C2424 C2431 1.409 . S
C2425 H2417 0.930 . S
C2425 C2423 1.431 . S
C2425 C2426 1.362 . S
C2426 H2418 0.930 . S
C2426 C2425 1.362 . S
C2426 C2429 1.409 . S
C2427 H2419 0.930 . S
C2427 C2428 1.346 1_556 S
C2427 C2429 1.415 . S
C2428 C2427 1.346 1_554 S
C2428 C2430 1.431 . S
C2429 C2424 1.425 1_556 S
C2429 C2426 1.409 . S
C2429 C2427 1.415 . S
C2430 H2420 0.930 . S
C2430 C2428 1.431 . S
C2430 C2431 1.362 . S
C2431 H2421 0.930 . S
C2431 C2424 1.409 . S
C2431 C2430 1.362 . S
H2432 C2438 0.930 . S
H2433 C2441 0.930 . S
H2434 C2442 0.930 . S
H2435 C2443 0.930 . S
H2436 C2446 0.930 . S
H2437 C2447 0.930 . S
C2438 H2432 0.930 . S
C2438 C2439 1.355 . S
C2438 C2440 1.415 . S
C2439 C2438 1.355 . S
C2439 C2441 1.419 . S
C2440 C2438 1.415 . S
C2440 C2445 1.425 . S
C2440 C2447 1.409 . S
C2441 H2433 0.930 . S
C2441 C2439 1.419 . S
C2441 C2442 1.362 . S
C2442 H2434 0.930 . S
C2442 C2441 1.362 . S
C2442 C2445 1.409 . S
C2443 H2435 0.930 . S
C2443 C2444 1.355 . S
C2443 C2445 1.415 . S
C2444 C2443 1.355 . S
C2444 C2446 1.419 . S
C2445 C2440 1.425 . S
C2445 C2442 1.409 . S
C2445 C2443 1.415 . S
C2446 H2436 0.930 . S
C2446 C2444 1.419 . S
C2446 C2447 1.362 . S
C2447 H2437 0.930 . S
C2447 C2440 1.409 . S
C2447 C2446 1.362 . S
H2448 C2454 0.930 . S
H2449 C2457 0.930 . S
H2450 C2458 0.930 . S
H2451 C2459 0.930 . S
H2452 C2462 0.930 . S
H2453 C2463 0.930 . S
C2454 H2448 0.930 . S
C2454 C2455 1.355 1_556 S
C2454 C2456 1.415 . S
C2455 C2454 1.355 1_554 S
C2455 C2457 1.419 . S
C2456 C2454 1.415 . S
C2456 C2461 1.425 1_556 S
C2456 C2463 1.409 . S
C2457 H2449 0.930 . S
C2457 C2455 1.419 . S
C2457 C2458 1.362 . S
C2458 H2450 0.930 . S
C2458 C2457 1.362 . S
C2458 C2461 1.409 . S
C2459 H2451 0.930 . S
C2459 C2460 1.355 1_554 S
C2459 C2461 1.415 . S
C2460 C2459 1.355 1_556 S
C2460 C2462 1.419 . S
C2461 C2456 1.425 1_554 S
C2461 C2458 1.409 . S
C2461 C2459 1.415 . S
C2462 H2452 0.930 . S
C2462 C2460 1.419 . S
C2462 C2463 1.362 . S
C2463 H2453 0.930 . S
C2463 C2456 1.409 . S
C2463 C2462 1.362 . S
H2464 C2470 0.930 . S
H2465 C2473 0.930 . S
H2466 C2474 0.930 . S
H2467 C2475 0.930 . S
H2468 C2478 0.930 . S
H2469 C2479 0.930 . S
C2470 H2464 0.930 . S
C2470 C2471 1.355 . S
C2470 C2472 1.415 . S
C2471 C2470 1.355 . S
C2471 C2473 1.419 . S
C2472 C2470 1.415 . S
C2472 C2477 1.425 . S
C2472 C2479 1.409 . S
C2473 H2465 0.930 . S
C2473 C2471 1.419 . S
C2473 C2474 1.362 . S
C2474 H2466 0.930 . S
C2474 C2473 1.362 . S
C2474 C2477 1.409 . S
C2475 H2467 0.930 . S
C2475 C2476 1.355 . S
C2475 C2477 1.415 . S
C2476 C2475 1.355 . S
C2476 C2478 1.419 . S
C2477 C2472 1.425 . S
C2477 C2474 1.409 . S
C2477 C2475 1.415 . S
C2478 H2468 0.930 . S
C2478 C2476 1.419 . S
C2478 C2479 1.362 . S
C2479 H2469 0.930 . S
C2479 C2472 1.409 . S
C2479 C2478 1.362 . S
H2480 C2486 0.930 . S
H2481 C2489 0.930 . S
H2482 C2490 0.930 . S
H2483 C2491 0.930 . S
H2484 C2494 0.930 . S
H2485 C2495 0.930 . S
C2486 H2480 0.930 . S
C2486 C2487 1.355 . S
C2486 C2488 1.415 . S
C2487 C2486 1.355 . S
C2487 C2489 1.419 . S
C2488 C2486 1.415 . S
C2488 C2493 1.425 . S
C2488 C2495 1.409 . S
C2489 H2481 0.930 . S
C2489 C2487 1.419 . S
C2489 C2490 1.362 . S
C2490 H2482 0.930 . S
C2490 C2489 1.362 . S
C2490 C2493 1.409 . S
C2491 H2483 0.930 . S
C2491 C2492 1.355 . S
C2491 C2493 1.415 . S
C2492 C2491 1.355 . S
C2492 C2494 1.419 . S
C2493 C2488 1.425 . S
C2493 C2490 1.409 . S
C2493 C2491 1.415 . S
C2494 H2484 0.930 . S
C2494 C2492 1.419 . S
C2494 C2495 1.362 . S
C2495 H2485 0.930 . S
C2495 C2488 1.409 . S
C2495 C2494 1.362 . S
H2496 C2502 0.930 . S
H2497 C2505 0.930 . S
H2498 C2506 0.930 . S
H2499 C2507 0.930 . S
H2500 C2510 0.930 . S
H2501 C2511 0.930 . S
C2502 H2496 0.930 . S
C2502 C2503 1.355 . S
C2502 C2504 1.415 . S
C2503 C2502 1.355 . S
C2503 C2505 1.419 . S
C2504 C2502 1.415 . S
C2504 C2509 1.425 . S
C2504 C2511 1.409 . S
C2505 H2497 0.930 . S
C2505 C2503 1.419 . S
C2505 C2506 1.362 . S
C2506 H2498 0.930 . S
C2506 C2505 1.362 . S
C2506 C2509 1.409 . S
C2507 H2499 0.930 . S
C2507 C2508 1.355 . S
C2507 C2509 1.415 . S
C2508 C2507 1.355 . S
C2508 C2510 1.419 . S
C2509 C2504 1.425 . S
C2509 C2506 1.409 . S
C2509 C2507 1.415 . S
C2510 H2500 0.930 . S
C2510 C2508 1.419 . S
C2510 C2511 1.362 . S
C2511 H2501 0.930 . S
C2511 C2504 1.409 . S
C2511 C2510 1.362 . S
H2512 C2518 0.930 . S
H2513 C2521 0.930 . S
H2514 C2522 0.930 . S
H2515 C2523 0.930 . S
H2516 C2526 0.930 . S
H2517 C2527 0.930 . S
C2518 H2512 0.930 . S
C2518 C2519 1.355 1_556 S
C2518 C2520 1.415 . S
C2519 C2518 1.355 1_554 S
C2519 C2521 1.419 . S
C2520 C2518 1.415 . S
C2520 C2525 1.425 1_556 S
C2520 C2527 1.409 . S
C2521 H2513 0.930 . S
C2521 C2519 1.419 . S
C2521 C2522 1.362 . S
C2522 H2514 0.930 . S
C2522 C2521 1.362 . S
C2522 C2525 1.409 . S
C2523 H2515 0.930 . S
C2523 C2524 1.355 1_554 S
C2523 C2525 1.415 . S
C2524 C2523 1.355 1_556 S
C2524 C2526 1.419 . S
C2525 C2520 1.425 1_554 S
C2525 C2522 1.409 . S
C2525 C2523 1.415 . S
C2526 H2516 0.930 . S
C2526 C2524 1.419 . S
C2526 C2527 1.362 . S
C2527 H2517 0.930 . S
C2527 C2520 1.409 . S
C2527 C2526 1.362 . S
H2528 C2534 0.930 . S
H2529 C2537 0.930 . S
H2530 C2538 0.930 . S
H2531 C2539 0.930 . S
H2532 C2542 0.930 . S
H2533 C2543 0.930 . S
C2534 H2528 0.930 . S
C2534 C2535 1.355 . S
C2534 C2536 1.415 . S
C2535 C2534 1.355 . S
C2535 C2537 1.419 . S
C2536 C2534 1.415 . S
C2536 C2541 1.425 . S
C2536 C2543 1.409 . S
C2537 H2529 0.930 . S
C2537 C2535 1.419 . S
C2537 C2538 1.362 . S
C2538 H2530 0.930 . S
C2538 C2537 1.362 . S
C2538 C2541 1.409 . S
C2539 H2531 0.930 . S
C2539 C2540 1.355 . S
C2539 C2541 1.415 . S
C2540 C2539 1.355 . S
C2540 C2542 1.419 . S
C2541 C2536 1.425 . S
C2541 C2538 1.409 . S
C2541 C2539 1.415 . S
C2542 H2532 0.930 . S
C2542 C2540 1.419 . S
C2542 C2543 1.362 . S
C2543 H2533 0.930 . S
C2543 C2536 1.409 . S
C2543 C2542 1.362 . S
H2544 C2550 0.930 . S
H2545 C2553 0.930 . S
H2546 C2554 0.930 . S
H2547 C2555 0.930 . S
H2548 C2558 0.930 . S
H2549 C2559 0.930 . S
C2550 H2544 0.930 . S
C2550 C2551 1.355 . S
C2550 C2552 1.415 . S
C2551 C2550 1.355 . S
C2551 C2553 1.419 . S
C2552 C2550 1.415 . S
C2552 C2557 1.425 . S
C2552 C2559 1.409 . S
C2553 H2545 0.930 . S
C2553 C2551 1.419 . S
C2553 C2554 1.362 . S
C2554 H2546 0.930 . S
C2554 C2553 1.362 . S
C2554 C2557 1.409 . S
C2555 H2547 0.930 . S
C2555 C2556 1.355 . S
C2555 C2557 1.415 . S
C2556 C2555 1.355 . S
C2556 C2558 1.419 . S
C2557 C2552 1.425 . S
C2557 C2554 1.409 . S
C2557 C2555 1.415 . S
C2558 H2548 0.930 . S
C2558 C2556 1.419 . S
C2558 C2559 1.362 . S
C2559 H2549 0.930 . S
C2559 C2552 1.409 . S
C2559 C2558 1.362 . S
H2560 C2566 0.930 . S
H2561 C2569 0.930 . S
H2562 C2570 0.930 . S
H2563 C2571 0.930 . S
H2564 C2574 0.930 . S
H2565 C2575 0.930 . S
C2566 H2560 0.930 . S
C2566 C2567 1.355 . S
C2566 C2568 1.415 . S
C2567 C2566 1.355 . S
C2567 C2569 1.419 . S
C2568 C2566 1.415 . S
C2568 C2573 1.425 . S
C2568 C2575 1.409 . S
C2569 H2561 0.930 . S
C2569 C2567 1.419 . S
C2569 C2570 1.362 . S
C2570 H2562 0.930 . S
C2570 C2569 1.362 . S
C2570 C2573 1.409 . S
C2571 H2563 0.930 . S
C2571 C2572 1.355 . S
C2571 C2573 1.415 . S
C2572 C2571 1.355 . S
C2572 C2574 1.419 . S
C2573 C2568 1.425 . S
C2573 C2570 1.409 . S
C2573 C2571 1.415 . S
C2574 H2564 0.930 . S
C2574 C2572 1.419 . S
C2574 C2575 1.362 . S
C2575 H2565 0.930 . S
C2575 C2568 1.409 . S
C2575 C2574 1.362 . S
H2576 C2582 0.930 . S
H2577 C2585 0.930 . S
H2578 C2586 0.930 . S
H2579 C2587 0.930 . S
H2580 C2590 0.930 . S
H2581 C2591 0.930 . S
C2582 H2576 0.930 . S
C2582 C2583 1.355 . S
C2582 C2584 1.415 . S
C2583 C2582 1.355 . S
C2583 C2585 1.419 . S
C2584 C2582 1.415 . S
C2584 C2589 1.425 . S
C2584 C2591 1.409 . S
C2585 H2577 0.930 . S
C2585 C2583 1.419 . S
C2585 C2586 1.362 . S
C2586 H2578 0.930 . S
C2586 C2585 1.362 . S
C2586 C2589 1.409 . S
C2587 H2579 0.930 . S
C2587 C2588 1.355 . S
C2587 C2589 1.415 . S
C2588 C2587 1.355 . S
C2588 C2590 1.419 . S
C2589 C2584 1.425 . S
C2589 C2586 1.409 . S
C2589 C2587 1.415 . S
C2590 H2580 0.930 . S
C2590 C2588 1.419 . S
C2590 C2591 1.362 . S
C2591 H2581 0.930 . S
C2591 C2584 1.409 . S
C2591 C2590 1.362 . S
H2592 C2598 0.930 . S
H2593 C2601 0.930 . S
H2594 C2602 0.930 . S
H2595 C2603 0.930 . S
H2596 C2606 0.930 . S
H2597 C2607 0.930 . S
C2598 H2592 0.930 . S
C2598 C2599 1.355 . S
C2598 C2600 1.415 . S
C2599 C2598 1.355 . S
C2599 C2601 1.419 . S
C2600 C2598 1.415 . S
C2600 C2605 1.425 . S
C2600 C2607 1.409 . S
C2601 H2593 0.930 . S
C2601 C2599 1.419 . S
C2601 C2602 1.362 . S
C2602 H2594 0.930 . S
C2602 C2601 1.362 . S
C2602 C2605 1.409 . S
C2603 H2595 0.930 . S
C2603 C2604 1.355 . S
C2603 C2605 1.415 . S
C2604 C2603 1.355 . S
C2604 C2606 1.419 . S
C2605 C2600 1.425 . S
C2605 C2602 1.409 . S
C2605 C2603 1.415 . S
C2606 H2596 0.930 . S
C2606 C2604 1.419 . S
C2606 C2607 1.362 . S
C2607 H2597 0.930 . S
C2607 C2600 1.409 . S
C2607 C2606 1.362 . S
H2608 C2614 0.930 . S
H2609 C2617 0.930 . S
H2610 C2618 0.930 . S
H2611 C2619 0.930 . S
H2612 C2622 0.930 . S
H2613 C2623 0.930 . S
C2614 H2608 0.930 . S
C2614 C2615 1.355 . S
C2614 C2616 1.415 . S
C2615 C2614 1.355 . S
C2615 C2617 1.419 . S
C2616 C2614 1.415 . S
C2616 C2621 1.425 . S
C2616 C2623 1.409 . S
C2617 H2609 0.930 . S
C2617 C2615 1.419 . S
C2617 C2618 1.362 . S
C2618 H2610 0.930 . S
C2618 C2617 1.362 . S
C2618 C2621 1.409 . S
C2619 H2611 0.930 . S
C2619 C2620 1.355 . S
C2619 C2621 1.415 . S
C2620 C2619 1.355 . S
C2620 C2622 1.419 . S
C2621 C2616 1.425 . S
C2621 C2618 1.409 . S
C2621 C2619 1.415 . S
C2622 H2612 0.930 . S
C2622 C2620 1.419 . S
C2622 C2623 1.362 . S
C2623 H2613 0.930 . S
C2623 C2616 1.409 . S
C2623 C2622 1.362 . S
H2624 C2630 0.930 . S
H2625 C2633 0.930 . S
H2626 C2634 0.930 . S
H2627 C2635 0.930 . S
H2628 C2638 0.930 . S
H2629 C2639 0.930 . S
C2630 H2624 0.930 . S
C2630 C2631 1.355 . S
C2630 C2632 1.415 . S
C2631 C2630 1.355 . S
C2631 C2633 1.419 . S
C2632 C2630 1.415 . S
C2632 C2637 1.425 . S
C2632 C2639 1.409 . S
C2633 H2625 0.930 . S
C2633 C2631 1.419 . S
C2633 C2634 1.362 . S
C2634 H2626 0.930 . S
C2634 C2633 1.362 . S
C2634 C2637 1.409 . S
C2635 H2627 0.930 . S
C2635 C2636 1.355 . S
C2635 C2637 1.415 . S
C2636 C2635 1.355 . S
C2636 C2638 1.419 . S
C2637 C2632 1.425 . S
C2637 C2634 1.409 . S
C2637 C2635 1.415 . S
C2638 H2628 0.930 . S
C2638 C2636 1.419 . S
C2638 C2639 1.362 . S
C2639 H2629 0.930 . S
C2639 C2632 1.409 . S
C2639 C2638 1.362 . S
H2640 C2646 0.930 . S
H2641 C2649 0.930 . S
H2642 C2650 0.930 . S
H2643 C2651 0.930 . S
H2644 C2654 0.930 . S
H2645 C2655 0.930 . S
C2646 H2640 0.930 . S
C2646 C2647 1.355 . S
C2646 C2648 1.415 . S
C2647 C2646 1.355 . S
C2647 C2649 1.419 . S
C2648 C2646 1.415 . S
C2648 C2653 1.425 . S
C2648 C2655 1.409 . S
C2649 H2641 0.930 . S
C2649 C2647 1.419 . S
C2649 C2650 1.362 . S
C2650 H2642 0.930 . S
C2650 C2649 1.362 . S
C2650 C2653 1.409 . S
C2651 H2643 0.930 . S
C2651 C2652 1.355 . S
C2651 C2653 1.415 . S
C2652 C2651 1.355 . S
C2652 C2654 1.419 . S
C2653 C2648 1.425 . S
C2653 C2650 1.409 . S
C2653 C2651 1.415 . S
C2654 H2644 0.930 . S
C2654 C2652 1.419 . S
C2654 C2655 1.362 . S
C2655 H2645 0.930 . S
C2655 C2648 1.409 . S
C2655 C2654 1.362 . S
H2656 C2662 0.930 . S
H2657 C2665 0.930 . S
H2658 C2666 0.930 . S
H2659 C2667 0.930 . S
H2660 C2670 0.930 . S
H2661 C2671 0.930 . S
C2662 H2656 0.930 . S
C2662 C2663 1.355 . S
C2662 C2664 1.415 . S
C2663 C2662 1.355 . S
C2663 C2665 1.419 . S
C2664 C2662 1.415 . S
C2664 C2669 1.425 . S
C2664 C2671 1.409 . S
C2665 H2657 0.930 . S
C2665 C2663 1.419 . S
C2665 C2666 1.362 . S
C2666 H2658 0.930 . S
C2666 C2665 1.362 . S
C2666 C2669 1.409 . S
C2667 H2659 0.930 . S
C2667 C2668 1.355 . S
C2667 C2669 1.415 . S
C2668 C2667 1.355 . S
C2668 C2670 1.419 . S
C2669 C2664 1.425 . S
C2669 C2666 1.409 . S
C2669 C2667 1.415 . S
C2670 H2660 0.930 . S
C2670 C2668 1.419 . S
C2670 C2671 1.362 . S
C2671 H2661 0.930 . S
C2671 C2664 1.409 . S
C2671 C2670 1.362 . S
H2672 C2678 0.930 . S
H2673 C2681 0.930 . S
H2674 C2682 0.930 . S
H2675 C2683 0.930 . S
H2676 C2686 0.930 . S
H2677 C2687 0.930 . S
C2678 H2672 0.930 . S
C2678 C2679 1.355 . S
C2678 C2680 1.415 . S
C2679 C2678 1.355 . S
C2679 C2681 1.419 . S
C2680 C2678 1.415 . S
C2680 C2685 1.425 . S
C2680 C2687 1.409 . S
C2681 H2673 0.930 . S
C2681 C2679 1.419 . S
C2681 C2682 1.362 . S
C2682 H2674 0.930 . S
C2682 C2681 1.362 . S
C2682 C2685 1.409 . S
C2683 H2675 0.930 . S
C2683 C2684 1.355 . S
C2683 C2685 1.415 . S
C2684 C2683 1.355 . S
C2684 C2686 1.419 . S
C2685 C2680 1.425 . S
C2685 C2682 1.409 . S
C2685 C2683 1.415 . S
C2686 H2676 0.930 . S
C2686 C2684 1.419 . S
C2686 C2687 1.362 . S
C2687 H2677 0.930 . S
C2687 C2680 1.409 . S
C2687 C2686 1.362 . S
H2688 C2694 0.930 . S
H2689 C2697 0.930 . S
H2690 C2698 0.930 . S
H2691 C2699 0.930 . S
H2692 C2702 0.930 . S
H2693 C2703 0.930 . S
C2694 H2688 0.930 . S
C2694 C2695 1.355 . S
C2694 C2696 1.415 . S
C2695 C2694 1.355 . S
C2695 C2697 1.419 . S
C2696 C2694 1.415 . S
C2696 C2701 1.425 . S
C2696 C2703 1.409 . S
C2697 H2689 0.930 . S
C2697 C2695 1.419 . S
C2697 C2698 1.362 . S
C2698 H2690 0.930 . S
C2698 C2697 1.362 . S
C2698 C2701 1.409 . S
C2699 H2691 0.930 . S
C2699 C2700 1.355 . S
C2699 C2701 1.415 . S
C2700 C2699 1.355 . S
C2700 C2702 1.419 . S
C2701 C2696 1.425 . S
C2701 C2698 1.409 . S
C2701 C2699 1.415 . S
C2702 H2692 0.930 . S
C2702 C2700 1.419 . S
C2702 C2703 1.362 . S
C2703 H2693 0.930 . S
C2703 C2696 1.409 . S
C2703 C2702 1.362 . S
H2704 C2710 0.930 . S
H2705 C2713 0.930 . S
H2706 C2714 0.930 . S
H2707 C2715 0.930 . S
H2708 C2718 0.930 . S
H2709 C2719 0.930 . S
C2710 H2704 0.930 . S
C2710 C2711 1.355 . S
C2710 C2712 1.415 . S
C2711 C2710 1.355 . S
C2711 C2713 1.419 . S
C2712 C2710 1.415 . S
C2712 C2717 1.425 . S
C2712 C2719 1.409 . S
C2713 H2705 0.930 . S
C2713 C2711 1.419 . S
C2713 C2714 1.362 . S
C2714 H2706 0.930 . S
C2714 C2713 1.362 . S
C2714 C2717 1.409 . S
C2715 H2707 0.930 . S
C2715 C2716 1.355 . S
C2715 C2717 1.415 . S
C2716 C2715 1.355 . S
C2716 C2718 1.419 . S
C2717 C2712 1.425 . S
C2717 C2714 1.409 . S
C2717 C2715 1.415 . S
C2718 H2708 0.930 . S
C2718 C2716 1.419 . S
C2718 C2719 1.362 . S
C2719 H2709 0.930 . S
C2719 C2712 1.409 . S
C2719 C2718 1.362 . S
H2720 C2726 0.930 . S
H2721 C2729 0.930 . S
H2722 C2730 0.930 . S
H2723 C2731 0.930 . S
H2724 C2734 0.930 . S
H2725 C2735 0.930 . S
C2726 H2720 0.930 . S
C2726 C2727 1.355 . S
C2726 C2728 1.415 . S
C2727 C2726 1.355 . S
C2727 C2729 1.419 . S
C2728 C2726 1.415 . S
C2728 C2733 1.425 . S
C2728 C2735 1.409 . S
C2729 H2721 0.930 . S
C2729 C2727 1.419 . S
C2729 C2730 1.362 . S
C2730 H2722 0.930 . S
C2730 C2729 1.362 . S
C2730 C2733 1.409 . S
C2731 H2723 0.930 . S
C2731 C2732 1.355 . S
C2731 C2733 1.415 . S
C2732 C2731 1.355 . S
C2732 C2734 1.419 . S
C2733 C2728 1.425 . S
C2733 C2730 1.409 . S
C2733 C2731 1.415 . S
C2734 H2724 0.930 . S
C2734 C2732 1.419 . S
C2734 C2735 1.362 . S
C2735 H2725 0.930 . S
C2735 C2728 1.409 . S
C2735 C2734 1.362 . S
H2736 C2742 0.930 . S
H2737 C2745 0.930 . S
H2738 C2746 0.930 . S
H2739 C2747 0.930 . S
H2740 C2750 0.930 . S
H2741 C2751 0.930 . S
C2742 H2736 0.930 . S
C2742 C2743 1.355 . S
C2742 C2744 1.415 . S
C2743 C2742 1.355 . S
C2743 C2745 1.419 . S
C2744 C2742 1.415 . S
C2744 C2749 1.425 . S
C2744 C2751 1.409 . S
C2745 H2737 0.930 . S
C2745 C2743 1.419 . S
C2745 C2746 1.362 . S
C2746 H2738 0.930 . S
C2746 C2745 1.362 . S
C2746 C2749 1.409 . S
C2747 H2739 0.930 . S
C2747 C2748 1.355 . S
C2747 C2749 1.415 . S
C2748 C2747 1.355 . S
C2748 C2750 1.419 . S
C2749 C2744 1.425 . S
C2749 C2746 1.409 . S
C2749 C2747 1.415 . S
C2750 H2740 0.930 . S
C2750 C2748 1.419 . S
C2750 C2751 1.362 . S
C2751 H2741 0.930 . S
C2751 C2744 1.409 . S
C2751 C2750 1.362 . S
H2752 C2758 0.930 . S
H2753 C2761 0.930 . S
H2754 C2762 0.930 . S
H2755 C2763 0.930 . S
H2756 C2766 0.930 . S
H2757 C2767 0.930 . S
C2758 H2752 0.930 . S
C2758 C2759 1.355 . S
C2758 C2760 1.415 . S
C2759 C2758 1.355 . S
C2759 C2761 1.419 . S
C2760 C2758 1.415 . S
C2760 C2765 1.425 . S
C2760 C2767 1.409 . S
C2761 H2753 0.930 . S
C2761 C2759 1.419 . S
C2761 C2762 1.362 . S
C2762 H2754 0.930 . S
C2762 C2761 1.362 . S
C2762 C2765 1.409 . S
C2763 H2755 0.930 . S
C2763 C2764 1.355 . S
C2763 C2765 1.415 . S
C2764 C2763 1.355 . S
C2764 C2766 1.419 . S
C2765 C2760 1.425 . S
C2765 C2762 1.409 . S
C2765 C2763 1.415 . S
C2766 H2756 0.930 . S
C2766 C2764 1.419 . S
C2766 C2767 1.362 . S
C2767 H2757 0.930 . S
C2767 C2760 1.409 . S
C2767 C2766 1.362 . S
H2768 C2774 0.930 . S
H2769 C2777 0.930 . S
H2770 C2778 0.930 . S
H2771 C2779 0.930 . S
H2772 C2782 0.930 . S
H2773 C2783 0.930 . S
C2774 H2768 0.930 . S
C2774 C2775 1.355 . S
C2774 C2776 1.415 . S
C2775 C2774 1.355 . S
C2775 C2777 1.419 . S
C2776 C2774 1.415 . S
C2776 C2781 1.425 . S
C2776 C2783 1.409 . S
C2777 H2769 0.930 . S
C2777 C2775 1.419 . S
C2777 C2778 1.362 . S
C2778 H2770 0.930 . S
C2778 C2777 1.362 . S
C2778 C2781 1.409 . S
C2779 H2771 0.930 . S
C2779 C2780 1.355 . S
C2779 C2781 1.415 . S
C2780 C2779 1.355 . S
C2780 C2782 1.419 . S
C2781 C2776 1.425 . S
C2781 C2778 1.409 . S
C2781 C2779 1.415 . S
C2782 H2772 0.930 . S
C2782 C2780 1.419 . S
C2782 C2783 1.362 . S
C2783 H2773 0.930 . S
C2783 C2776 1.409 . S
C2783 C2782 1.362 . S
H2784 C2790 0.930 . S
H2785 C2793 0.930 . S
H2786 C2794 0.930 . S
H2787 C2795 0.930 . S
H2788 C2798 0.930 . S
H2789 C2799 0.930 . S
C2790 H2784 0.930 . S
C2790 C2791 1.355 . S
C2790 C2792 1.415 . S
C2791 C2790 1.355 . S
C2791 C2793 1.419 . S
C2792 C2790 1.415 . S
C2792 C2797 1.425 . S
C2792 C2799 1.409 . S
C2793 H2785 0.930 . S
C2793 C2791 1.419 . S
C2793 C2794 1.362 . S
C2794 H2786 0.930 . S
C2794 C2793 1.362 . S
C2794 C2797 1.409 . S
C2795 H2787 0.930 . S
C2795 C2796 1.355 . S
C2795 C2797 1.415 . S
C2796 C2795 1.355 . S
C2796 C2798 1.419 . S
C2797 C2792 1.425 . S
C2797 C2794 1.409 . S
C2797 C2795 1.415 . S
C2798 H2788 0.930 . S
C2798 C2796 1.419 . S
C2798 C2799 1.362 . S
C2799 H2789 0.930 . S
C2799 C2792 1.409 . S
C2799 C2798 1.362 . S
H2800 C2806 0.930 . S
H2801 C2809 0.930 . S
H2802 C2810 0.930 . S
H2803 C2811 0.930 . S
H2804 C2814 0.930 . S
H2805 C2815 0.930 . S
C2806 H2800 0.930 . S
C2806 C2807 1.355 . S
C2806 C2808 1.415 . S
C2807 C2806 1.355 . S
C2807 C2809 1.419 . S
C2808 C2806 1.415 . S
C2808 C2813 1.425 . S
C2808 C2815 1.409 . S
C2809 H2801 0.930 . S
C2809 C2807 1.419 . S
C2809 C2810 1.362 . S
C2810 H2802 0.930 . S
C2810 C2809 1.362 . S
C2810 C2813 1.409 . S
C2811 H2803 0.930 . S
C2811 C2812 1.355 . S
C2811 C2813 1.415 . S
C2812 C2811 1.355 . S
C2812 C2814 1.419 . S
C2813 C2808 1.425 . S
C2813 C2810 1.409 . S
C2813 C2811 1.415 . S
C2814 H2804 0.930 . S
C2814 C2812 1.419 . S
C2814 C2815 1.362 . S
C2815 H2805 0.930 . S
C2815 C2808 1.409 . S
C2815 C2814 1.362 . S
C1287 C8 1.098 . S
C1292 C132 1.047 . S
C1303 C12 1.097 . S
C1308 C48 1.105 1_545 S
C1319 C88 1.111 . S
C1324 C52 1.113 . S
C1335 C92 1.108 . S
C1340 C128 1.116 1_565 S
C1351 C212 1.124 . S
C1356 C168 1.118 . S
C1367 C208 1.095 1_545 S
C1372 C252 1.048 . S
C1383 C292 1.117 . S
C1388 C248 1.118 . S
C1399 C172 1.068 . S
C1404 C288 1.098 1_565 S
C1415 C349 1.116 . S
C1420 C471 1.104 . S
C1431 C389 1.107 1_565 S
C1436 C351 1.071 . S
C1447 C429 1.096 . S
C1452 C391 1.046 . S
C1463 C469 1.117 1_545 S
C1468 C431 1.110 . S
C1479 C509 1.108 . S
C1484 C551 1.104 . S
C1495 C549 1.096 1_565 S
C1500 C591 1.059 . S
C1511 C631 1.123 . S
C1516 C589 1.115 . S
C1527 C511 1.047 . S
C1532 C629 1.095 1_545 S
C1543 C648 1.097 . S
C1548 C772 1.047 . S
C1559 C652 1.110 . S
C1564 C688 1.110 . S
C1575 C692 1.046 . S
C1580 C728 1.097 . S
C1591 C768 1.110 . S
C1596 C732 1.084 . S
C1607 C808 1.114 . S
C1612 C852 1.119 . S
C1623 C892 1.125 . S
C1628 C848 1.117 . S
C1639 C888 1.107 . S
C1644 C932 1.103 . S
C1655 C812 1.047 . S
C1660 C928 1.095 . S
C1671 C1111 1.108 . S
C1676 C989 1.109 . S
C1687 C991 1.060 . S
C1692 C1029 1.103 . S
C1703 C1069 1.096 . S
C1708 C1031 1.046 . S
C1719 C1071 1.124 . S
C1724 C1109 1.116 . S
C1735 C1191 1.107 . S
C1740 C1149 1.109 . S
C1751 C1231 1.048 . S
C1756 C1189 1.098 . S
C1767 C1271 1.107 . S
C1772 C1229 1.109 . S
C1783 C1269 1.096 . S
C1788 C1151 1.058 . S
C1799 C1088 1.610 . S
C1804 C17 1.578 . S
C1815 C57 1.518 . S
C1820 C328 1.567 1_455 S
C1831 C97 1.528 . S
C1836 C1008 1.594 . S
C1847 C137 1.579 . S
C1852 C408 1.582 . S
C1863 C177 1.537 . S
C1868 C1168 1.561 . S
C1879 C568 1.595 . S
C1884 C217 1.529 . S
C1895 C1248 1.592 . S
C1900 C257 1.526 . S
C1911 C297 1.581 . S
C1916 C488 1.584 1_455 S
C1927 C322 1.586 . S
C1932 C789 1.593 . S
C1943 C29 1.593 1_655 S
C1948 C362 1.527 . S
C1959 C709 1.607 . S
C1964 C402 1.551 . S
C1975 C109 1.570 . S
C1980 C442 1.564 . S
C1991 C869 1.561 . S
C1996 C482 1.532 . S
C2007 C269 1.595 . S
C2012 C522 1.529 . S
C2023 C562 1.580 . S
C2028 C949 1.610 . S
C2039 C602 1.549 . S
C2044 C189 1.564 1_655 S
C2055 C657 1.580 . S
C2060 C448 1.609 . S
C2071 C697 1.516 . S
C2076 C968 1.576 . S
C2087 C737 1.584 . S
C2092 C368 1.607 . S
C2103 C777 1.583 . S
C2108 C1048 1.587 1_655 S
C2119 C817 1.545 . S
C2124 C528 1.605 . S
C2135 C857 1.534 . S
C2140 C1208 1.599 1_655 S
C2151 C608 1.566 . S
C2156 C897 1.518 . S
C2167 C937 1.558 . S
C2172 C1128 1.567 . S
C2183 C149 1.611 . S
C2188 C962 1.576 . S
C2199 C669 1.571 . S
C2204 C1002 1.565 . S
C2215 C69 1.574 . S
C2220 C1042 1.570 . S
C2231 C749 1.567 1_455 S
C2236 C1082 1.518 . S
C2247 C229 1.561 . S
C2252 C1122 1.533 . S
C2263 C1162 1.577 . S
C2268 C909 1.580 1_455 S
C2279 C1202 1.520 . S
C2284 C309 1.565 . S
C2295 C829 1.582 . S
C2300 C1242 1.579 . S
C2311 C2 1.075 . S
C2316 C162 1.020 . S
C2327 C42 1.077 . S
C2332 C202 1.045 . S
C2343 C82 1.001 . S
C2348 C242 1.067 . S
C2359 C282 1.077 1_554 S
C2364 C122 1.026 1_556 S
C2375 C497 1.072 . S
C2380 C337 1.010 . S
C2391 C537 1.076 . S
C2396 C377 1.050 . S
C2407 C417 1.044 . S
C2412 C577 0.978 . S
C2423 C457 0.973 . S
C2428 C617 1.011 . S
C2439 C642 0.970 . S
C2444 C802 1.023 . S
C2455 C842 1.037 1_554 S
C2460 C682 1.078 1_556 S
C2471 C882 0.977 . S
C2476 C722 1.042 . S
C2487 C922 0.973 . S
C2492 C762 0.994 . S
C2503 C1137 0.982 . S
C2508 C977 1.050 . S
C2519 C1017 0.984 1_554 S
C2524 C1177 1.052 1_556 S
C2535 C1217 1.074 . S
C2540 C1057 1.016 . S
C2551 C1097 0.975 . S
C2556 C1257 0.990 . S
C2567 C311 2.575 . S
C2572 C31 2.592 . S
C2583 C71 2.575 . S
C2588 C191 2.591 . S
C2599 C111 2.596 . S
C2604 C231 2.607 . S
C2615 C271 2.586 . S
C2620 C151 2.605 . S
C2631 C332 2.607 . S
C2636 C612 2.590 . S
C2647 C492 2.576 . S
C2652 C372 2.583 . S
C2663 C532 2.595 . S
C2668 C412 2.608 . S
C2679 C452 2.581 . S
C2684 C572 2.577 . S
C2695 C671 2.599 . S
C2700 C951 2.607 . S
C2711 C831 2.602 . S
C2716 C711 2.606 . S
C2727 C871 2.581 . S
C2732 C751 2.601 . S
C2743 C911 2.575 . S
C2748 C791 2.585 . S
C2759 C972 2.591 . S
C2764 C1252 2.575 . S
C2775 C1132 2.586 . S
C2780 C1012 2.605 . S
C2791 C1052 2.590 . S
C2796 C1172 2.607 . S
C2807 C1212 2.604 . S
C2812 C1092 2.604 . S
