# Generated by pormake.
# Topology ukj, (4)-cn, num edge types: 1
# Building blocks:
#     Node 0, Type 0, BuildingBlock: ESEHIV_clean_sbu_0, # of connection points: 4
#     Node 1, Type 0, BuildingBlock: ESEHIV_clean_sbu_0, # of connection points: 4
#     Node 2, Type 0, BuildingBlock: ESEHIV_clean_sbu_0, # of connection points: 4
#     Node 3, Type 0, BuildingBlock: ESEHIV_clean_sbu_0, # of connection points: 4
#     Node 4, Type 0, BuildingBlock: ESEHIV_clean_sbu_0, # of connection points: 4
#     Node 5, Type 0, BuildingBlock: ESEHIV_clean_sbu_0, # of connection points: 4
#     Node 6, Type 0, BuildingBlock: ESEHIV_clean_sbu_0, # of connection points: 4
#     Node 7, Type 0, BuildingBlock: ESEHIV_clean_sbu_0, # of connection points: 4
#     Node 8, Type 0, BuildingBlock: ESEHIV_clean_sbu_0, # of connection points: 4
#     Node 9, Type 0, BuildingBlock: ESEHIV_clean_sbu_0, # of connection points: 4
#     Node 10, Type 0, BuildingBlock: ESEHIV_clean_sbu_0, # of connection points: 4
#     Node 11, Type 0, BuildingBlock: ESEHIV_clean_sbu_0, # of connection points: 4
#     Node 12, Type 0, BuildingBlock: ESEHIV_clean_sbu_0, # of connection points: 4
#     Node 13, Type 0, BuildingBlock: ESEHIV_clean_sbu_0, # of connection points: 4
#     Node 14, Type 0, BuildingBlock: ESEHIV_clean_sbu_0, # of connection points: 4
#     Node 15, Type 0, BuildingBlock: ESEHIV_clean_sbu_0, # of connection points: 4
#     Node 16, Type 0, BuildingBlock: ESEHIV_clean_sbu_0, # of connection points: 4
#     Node 17, Type 0, BuildingBlock: ESEHIV_clean_sbu_0, # of connection points: 4
#     Node 18, Type 0, BuildingBlock: ESEHIV_clean_sbu_0, # of connection points: 4
#     Node 19, Type 0, BuildingBlock: ESEHIV_clean_sbu_0, # of connection points: 4
#     Node 20, Type 0, BuildingBlock: ESEHIV_clean_sbu_0, # of connection points: 4
#     Node 21, Type 0, BuildingBlock: ESEHIV_clean_sbu_0, # of connection points: 4
#     Node 22, Type 0, BuildingBlock: ESEHIV_clean_sbu_0, # of connection points: 4
#     Node 23, Type 0, BuildingBlock: ESEHIV_clean_sbu_0, # of connection points: 4
#     Node 24, Type 0, BuildingBlock: ESEHIV_clean_sbu_0, # of connection points: 4
#     Node 25, Type 0, BuildingBlock: ESEHIV_clean_sbu_0, # of connection points: 4
#     Node 26, Type 0, BuildingBlock: ESEHIV_clean_sbu_0, # of connection points: 4
#     Node 27, Type 0, BuildingBlock: ESEHIV_clean_sbu_0, # of connection points: 4
#     Node 28, Type 0, BuildingBlock: ESEHIV_clean_sbu_0, # of connection points: 4
#     Node 29, Type 0, BuildingBlock: ESEHIV_clean_sbu_0, # of connection points: 4
#     Node 30, Type 0, BuildingBlock: ESEHIV_clean_sbu_0, # of connection points: 4
#     Node 31, Type 0, BuildingBlock: ESEHIV_clean_sbu_0, # of connection points: 4
#     Edge 32, Type (0, 0), BuildingBlock: XIVTED_clean_linker_0, # of connection points: 2
#     Edge 33, Type (0, 0), BuildingBlock: XIVTED_clean_linker_0, # of connection points: 2
#     Edge 34, Type (0, 0), BuildingBlock: XIVTED_clean_linker_0, # of connection points: 2
#     Edge 35, Type (0, 0), BuildingBlock: XIVTED_clean_linker_0, # of connection points: 2
#     Edge 36, Type (0, 0), BuildingBlock: XIVTED_clean_linker_0, # of connection points: 2
#     Edge 37, Type (0, 0), BuildingBlock: XIVTED_clean_linker_0, # of connection points: 2
#     Edge 38, Type (0, 0), BuildingBlock: XIVTED_clean_linker_0, # of connection points: 2
#     Edge 39, Type (0, 0), BuildingBlock: XIVTED_clean_linker_0, # of connection points: 2
#     Edge 40, Type (0, 0), BuildingBlock: XIVTED_clean_linker_0, # of connection points: 2
#     Edge 41, Type (0, 0), BuildingBlock: XIVTED_clean_linker_0, # of connection points: 2
#     Edge 42, Type (0, 0), BuildingBlock: XIVTED_clean_linker_0, # of connection points: 2
#     Edge 43, Type (0, 0), BuildingBlock: XIVTED_clean_linker_0, # of connection points: 2
#     Edge 44, Type (0, 0), BuildingBlock: XIVTED_clean_linker_0, # of connection points: 2
#     Edge 45, Type (0, 0), BuildingBlock: XIVTED_clean_linker_0, # of connection points: 2
#     Edge 46, Type (0, 0), BuildingBlock: XIVTED_clean_linker_0, # of connection points: 2
#     Edge 47, Type (0, 0), BuildingBlock: XIVTED_clean_linker_0, # of connection points: 2
#     Edge 48, Type (0, 0), BuildingBlock: XIVTED_clean_linker_0, # of connection points: 2
#     Edge 49, Type (0, 0), BuildingBlock: XIVTED_clean_linker_0, # of connection points: 2
#     Edge 50, Type (0, 0), BuildingBlock: XIVTED_clean_linker_0, # of connection points: 2
#     Edge 51, Type (0, 0), BuildingBlock: XIVTED_clean_linker_0, # of connection points: 2
#     Edge 52, Type (0, 0), BuildingBlock: XIVTED_clean_linker_0, # of connection points: 2
#     Edge 53, Type (0, 0), BuildingBlock: XIVTED_clean_linker_0, # of connection points: 2
#     Edge 54, Type (0, 0), BuildingBlock: XIVTED_clean_linker_0, # of connection points: 2
#     Edge 55, Type (0, 0), BuildingBlock: XIVTED_clean_linker_0, # of connection points: 2
#     Edge 56, Type (0, 0), BuildingBlock: XIVTED_clean_linker_0, # of connection points: 2
#     Edge 57, Type (0, 0), BuildingBlock: XIVTED_clean_linker_0, # of connection points: 2
#     Edge 58, Type (0, 0), BuildingBlock: XIVTED_clean_linker_0, # of connection points: 2
#     Edge 59, Type (0, 0), BuildingBlock: XIVTED_clean_linker_0, # of connection points: 2
#     Edge 60, Type (0, 0), BuildingBlock: XIVTED_clean_linker_0, # of connection points: 2
#     Edge 61, Type (0, 0), BuildingBlock: XIVTED_clean_linker_0, # of connection points: 2
#     Edge 62, Type (0, 0), BuildingBlock: XIVTED_clean_linker_0, # of connection points: 2
#     Edge 63, Type (0, 0), BuildingBlock: XIVTED_clean_linker_0, # of connection points: 2
#     Edge 64, Type (0, 0), BuildingBlock: XIVTED_clean_linker_0, # of connection points: 2
#     Edge 65, Type (0, 0), BuildingBlock: XIVTED_clean_linker_0, # of connection points: 2
#     Edge 66, Type (0, 0), BuildingBlock: XIVTED_clean_linker_0, # of connection points: 2
#     Edge 67, Type (0, 0), BuildingBlock: XIVTED_clean_linker_0, # of connection points: 2
#     Edge 68, Type (0, 0), BuildingBlock: XIVTED_clean_linker_0, # of connection points: 2
#     Edge 69, Type (0, 0), BuildingBlock: XIVTED_clean_linker_0, # of connection points: 2
#     Edge 70, Type (0, 0), BuildingBlock: XIVTED_clean_linker_0, # of connection points: 2
#     Edge 71, Type (0, 0), BuildingBlock: XIVTED_clean_linker_0, # of connection points: 2
#     Edge 72, Type (0, 0), BuildingBlock: XIVTED_clean_linker_0, # of connection points: 2
#     Edge 73, Type (0, 0), BuildingBlock: XIVTED_clean_linker_0, # of connection points: 2
#     Edge 74, Type (0, 0), BuildingBlock: XIVTED_clean_linker_0, # of connection points: 2
#     Edge 75, Type (0, 0), BuildingBlock: XIVTED_clean_linker_0, # of connection points: 2
#     Edge 76, Type (0, 0), BuildingBlock: XIVTED_clean_linker_0, # of connection points: 2
#     Edge 77, Type (0, 0), BuildingBlock: XIVTED_clean_linker_0, # of connection points: 2
#     Edge 78, Type (0, 0), BuildingBlock: XIVTED_clean_linker_0, # of connection points: 2
#     Edge 79, Type (0, 0), BuildingBlock: XIVTED_clean_linker_0, # of connection points: 2
#     Edge 80, Type (0, 0), BuildingBlock: XIVTED_clean_linker_0, # of connection points: 2
#     Edge 81, Type (0, 0), BuildingBlock: XIVTED_clean_linker_0, # of connection points: 2
#     Edge 82, Type (0, 0), BuildingBlock: XIVTED_clean_linker_0, # of connection points: 2
#     Edge 83, Type (0, 0), BuildingBlock: XIVTED_clean_linker_0, # of connection points: 2
#     Edge 84, Type (0, 0), BuildingBlock: XIVTED_clean_linker_0, # of connection points: 2
#     Edge 85, Type (0, 0), BuildingBlock: XIVTED_clean_linker_0, # of connection points: 2
#     Edge 86, Type (0, 0), BuildingBlock: XIVTED_clean_linker_0, # of connection points: 2
#     Edge 87, Type (0, 0), BuildingBlock: XIVTED_clean_linker_0, # of connection points: 2
#     Edge 88, Type (0, 0), BuildingBlock: XIVTED_clean_linker_0, # of connection points: 2
#     Edge 89, Type (0, 0), BuildingBlock: XIVTED_clean_linker_0, # of connection points: 2
#     Edge 90, Type (0, 0), BuildingBlock: XIVTED_clean_linker_0, # of connection points: 2
#     Edge 91, Type (0, 0), BuildingBlock: XIVTED_clean_linker_0, # of connection points: 2
#     Edge 92, Type (0, 0), BuildingBlock: XIVTED_clean_linker_0, # of connection points: 2
#     Edge 93, Type (0, 0), BuildingBlock: XIVTED_clean_linker_0, # of connection points: 2
#     Edge 94, Type (0, 0), BuildingBlock: XIVTED_clean_linker_0, # of connection points: 2
#     Edge 95, Type (0, 0), BuildingBlock: XIVTED_clean_linker_0, # of connection points: 2
# Relax obj value: 0.004
# Max RMSD: 0.095
# Mean RMSD: 0.095
data_MOF--net-ukj--node1-ESEHIV_clean_sbu_0--edge1-XIVTED_clean_linker_0
_symmetry_space_group_name_H-M    P1
_symmetry_Int_Tables_number       1
_symmetry_cell_setting            triclinic
loop_
_symmetry_equiv_pos_as_xyz
'x, y, z'
_cell_length_a     39.671169
_cell_length_b     70.541264
_cell_length_c     55.69113
_cell_angle_alpha  90.079041
_cell_angle_beta   89.953718
_cell_angle_gamma 90.010727
loop_
_atom_site_label
_atom_site_type_symbol
_atom_site_fract_x
_atom_site_fract_y
_atom_site_fract_z
_atom_type_partial_charge
Cu0 Cu 0.19625 0.33173 0.26781 0.0
N1 N 0.24295 0.32858 0.26621 0.0
N2 N 0.29741 0.33653 0.26382 0.0
C3 C 0.26666 0.34144 0.27223 0.0
C4 C 0.29288 0.31994 0.2522 0.0
C5 C 0.25931 0.31511 0.25364 0.0
O6 O 0.18473 0.34414 0.29792 0.0
C7 C 0.15606 0.35072 0.23112 0.0
O8 O 0.12995 0.34968 0.24556 0.0
H9 H 0.26103 0.35486 0.2808 0.0
H10 H 0.24728 0.30332 0.24465 0.0
N11 N 0.1747 0.3081 0.26812 0.0
N12 N 0.13358 0.28631 0.26827 0.0
C13 C 0.14154 0.30476 0.26492 0.0
C14 C 0.18817 0.2912 0.27386 0.0
C15 C 0.16297 0.27774 0.27386 0.0
C16 C 0.18694 0.36166 0.30306 0.0
O17 O 0.19622 0.37377 0.28642 0.0
H18 H 0.12339 0.31578 0.26122 0.0
H19 H 0.21433 0.28888 0.27841 0.0
O20 O 0.18474 0.34503 0.23831 0.0
H21 H 0.31214 0.31234 0.24233 0.0
H22 H 0.1661 0.26285 0.27789 0.0
Cu23 Cu 0.09401 0.93137 0.26652 0.0
N24 N 0.04721 0.93338 0.26429 0.0
N25 N 0.99347 0.92393 0.2631 0.0
C26 C 0.02437 0.92076 0.27242 0.0
C27 C 0.99698 0.93913 0.24864 0.0
C28 C 0.03014 0.94491 0.2494 0.0
O29 O 0.10522 0.92056 0.29758 0.0
C30 C 0.13615 0.91152 0.23154 0.0
O31 O 0.1617 0.91312 0.24638 0.0
H32 H 0.03085 0.90857 0.28327 0.0
H33 H 0.0415 0.95587 0.23851 0.0
N34 N 0.11405 0.95537 0.26532 0.0
N35 N 0.1539 0.97784 0.26434 0.0
C36 C 0.1472 0.95909 0.2629 0.0
C37 C 0.09923 0.97234 0.26853 0.0
C38 C 0.12369 0.98622 0.26787 0.0
C39 C 0.10862 0.90321 0.30319 0.0
O40 O 0.10605 0.89011 0.2865 0.0
H41 H 0.16617 0.94819 0.26101 0.0
H42 H 0.07259 0.97446 0.27165 0.0
O43 O 0.10711 0.91722 0.23799 0.0
H44 H 0.97736 0.94502 0.2374 0.0
H45 H 0.1195 1.00129 0.26994 0.0
Cu46 Cu 0.18706 0.9268 1.01445 0.0
N47 N 0.23386 0.929 0.01715 0.0
N48 N 0.28845 0.92107 0.01658 0.0
C49 C 0.25703 0.91652 1.0092 0.0
C50 C 0.28486 0.9372 0.02942 0.0
C51 C 0.25117 0.942 0.02982 0.0
O52 O 0.17662 0.91478 0.98392 0.0
C53 C 0.1873 0.90369 0.05655 0.0
O54 O 0.21735 0.89849 0.04918 0.0
H55 H 0.25075 0.90399 0.99893 0.0
H56 H 0.2399 0.95368 0.03953 0.0
N57 N 0.16747 0.95082 1.01318 0.0
N58 N 0.12764 0.97327 1.01272 0.0
C59 C 0.13466 0.95479 0.01678 0.0
C60 C 0.18182 0.96728 1.00658 0.0
C61 C 0.15735 0.98117 1.00634 0.0
C62 C 0.18072 0.89747 0.97823 0.0
O63 O 0.19059 0.8853 0.99462 0.0
H64 H 0.11614 0.94414 0.02143 0.0
H65 H 0.20805 0.96898 1.00176 0.0
O66 O 0.16938 0.91431 0.04315 0.0
H67 H 0.30484 0.94448 0.03891 0.0
H68 H 0.16119 0.99589 1.00167 0.0
Cu69 Cu 0.08931 0.33505 1.0147 0.0
N70 N 0.04316 0.33046 0.01729 0.0
N71 N 0.98805 0.33669 0.01971 0.0
C72 C 1.01831 0.34266 1.01157 0.0
C73 C 0.99411 0.32007 0.03088 0.0
C74 C 0.02813 0.31627 0.02935 0.0
O75 O 0.09528 0.35089 0.98643 0.0
C76 C 0.12979 0.3522 0.05296 0.0
O77 O 0.15576 0.35242 0.03833 0.0
H78 H 0.0227 0.35627 1.00318 0.0
H79 H 0.04128 0.30454 0.03763 0.0
N80 N 0.11208 0.31206 1.01018 0.0
N81 N 0.15303 0.29022 1.00805 0.0
C82 C 0.14483 0.30817 1.01436 0.0
C83 C 0.09906 0.29605 1.00091 0.0
C84 C 0.12412 0.28257 0.99964 0.0
C85 C 0.12253 0.35261 0.97454 0.0
O86 O 0.15054 0.34534 0.98306 0.0
H87 H 0.16242 0.31848 0.02131 0.0
H88 H 0.07316 0.29436 0.99525 0.0
O89 O 0.10135 0.34636 0.04547 0.0
H90 H 0.97548 0.31166 0.04028 0.0
H91 H 0.12105 0.26823 0.99309 0.0
Cu92 Cu 0.85038 0.6777 0.76223 0.0
N93 N 0.80355 0.6809 0.76235 0.0
N94 N 0.7488 0.67337 0.76271 0.0
C95 C 0.77979 0.66863 0.75464 0.0
C96 C 0.75314 0.68928 0.77578 0.0
C97 C 0.78687 0.69388 0.77552 0.0
O98 O 0.86447 0.66323 0.73423 0.0
C99 C 0.88904 0.65964 0.80009 0.0
O100 O 0.91433 0.65846 0.78492 0.0
H101 H 0.78529 0.65568 0.74504 0.0
H102 H 0.79877 0.70511 0.78568 0.0
N103 N 0.87147 0.70133 0.76025 0.0
N104 N 0.91189 0.72346 0.75937 0.0
C105 C 0.90445 0.70505 0.76356 0.0
C106 C 0.85752 0.7179 0.75367 0.0
C107 C 0.88231 0.73158 0.75319 0.0
C108 C 0.85646 0.64615 0.72966 0.0
O109 O 0.83934 0.63634 0.74556 0.0
H110 H 0.92276 0.69431 0.76819 0.0
H111 H 0.83126 0.71985 0.74912 0.0
O112 O 0.86104 0.66644 0.7931 0.0
H113 H 0.73362 0.69647 0.78588 0.0
H114 H 0.87872 0.74634 0.74859 0.0
Cu115 Cu 0.93632 0.08782 0.76471 0.0
N116 N 0.983 0.08541 0.7674 0.0
N117 N 0.03756 0.09339 0.76669 0.0
C118 C 1.00586 0.0984 0.76049 0.0
C119 C 0.03438 0.07642 0.7777 0.0
C120 C 1.00068 0.07157 0.77815 0.0
O121 O 0.9279 0.10384 0.737 0.0
C122 C 0.93541 0.10795 0.80912 0.0
O123 O 0.96493 0.11431 0.80213 0.0
H124 H 0.99911 0.11148 0.75158 0.0
H125 H 0.98972 0.05913 0.78639 0.0
N126 N 0.9171 0.0641 0.75902 0.0
N127 N 0.87895 0.04078 0.75712 0.0
C128 C 0.88579 0.05848 0.7651 0.0
C129 C 0.9307 0.04949 0.74689 0.0
C130 C 0.90726 0.03508 0.7457 0.0
C131 C 0.9001 0.10438 0.72564 0.0
O132 O 0.87381 0.09535 0.73429 0.0
H133 H 0.86808 0.0675 0.7745 0.0
H134 H 0.95573 0.04944 0.73919 0.0
O135 O 0.9183 0.09752 0.79494 0.0
H136 H 0.0547 0.06843 0.78576 0.0
H137 H 0.91088 0.02149 0.73705 0.0
Cu138 Cu 0.84126 0.08064 0.01976 0.0
N139 N 0.79428 0.07904 0.01879 0.0
N140 N 0.74039 0.08844 0.01869 0.0
C141 C 0.77251 0.09304 0.02433 0.0
C142 C 0.74214 0.07081 1.00928 0.0
C143 C 0.77539 0.06513 1.00919 0.0
O144 O 0.85432 0.09296 0.04954 0.0
C145 C 0.88299 0.09978 0.98435 0.0
O146 O 0.90748 0.09998 1.00021 0.0
H147 H 0.78029 0.10652 0.03172 0.0
H148 H 0.78523 0.05215 1.00159 0.0
N149 N 0.86066 0.0565 0.02037 0.0
N150 N 0.9003 0.0339 0.02038 0.0
C151 C 0.89319 0.0523 0.01586 0.0
C152 C 0.84667 0.04025 0.02811 0.0
C153 C 0.87095 0.02628 0.02801 0.0
C154 C 0.8522 0.11047 0.05476 0.0
O155 O 0.8426 0.12262 0.03827 0.0
H156 H 0.9116 0.06277 1.01046 0.0
H157 H 0.82093 0.03879 0.03421 0.0
O158 O 0.85432 0.09317 0.99016 0.0
H159 H 0.7212 0.06293 1.00183 0.0
H160 H 0.86729 0.01172 0.03352 0.0
Cu161 Cu 0.93981 0.67983 0.01695 0.0
N162 N 0.9866 0.68178 1.01381 0.0
N163 N 0.04113 0.67373 1.01365 0.0
C164 C 1.00976 0.66903 0.021 0.0
C165 C 0.03751 0.69022 1.00163 0.0
C166 C 1.00387 0.6951 1.00168 0.0
O167 O 0.92952 0.66808 0.04762 0.0
C168 C 0.93858 0.65583 0.9756 0.0
O169 O 0.96817 0.65006 0.98318 0.0
H170 H 1.0035 0.65626 0.03075 0.0
H171 H 0.99258 0.70711 0.99272 0.0
N172 N 0.92076 0.70399 0.01809 0.0
N173 N 0.88184 0.72691 0.01737 0.0
C174 C 0.88862 0.70848 1.0128 0.0
C175 C 0.93488 0.72008 0.02628 0.0
C176 C 0.91096 0.73425 0.02582 0.0
C177 C 0.9327 0.65069 0.05316 0.0
O178 O 0.94164 0.63839 0.03662 0.0
H179 H 0.8703 0.69822 1.00659 0.0
H180 H 0.96053 0.7213 0.03266 0.0
O181 O 0.92148 0.66719 0.9886 0.0
H182 H 0.05746 0.69776 0.99243 0.0
H183 H 0.91473 0.74879 0.03143 0.0
Cu184 Cu 0.1946 0.83441 0.76569 0.0
N185 N 0.24102 0.83243 0.7607 0.0
N186 N 0.29504 0.84099 0.75757 0.0
C187 C 0.26521 0.84438 0.76846 0.0
C188 C 0.28949 0.82622 0.74268 0.0
C189 C 0.25617 0.82096 0.74468 0.0
O190 O 0.18596 0.84539 0.79712 0.0
C191 C 0.19165 0.85925 0.72535 0.0
O192 O 0.22146 0.8649 0.73265 0.0
H193 H 0.26038 0.8563 0.78025 0.0
H194 H 0.24335 0.8103 0.73411 0.0
N195 N 0.1755 0.81027 0.76616 0.0
N196 N 0.13633 0.78746 0.76564 0.0
C197 C 0.14271 0.80615 0.76277 0.0
C198 C 0.1905 0.79368 0.77135 0.0
C199 C 0.16641 0.77957 0.77102 0.0
C200 C 0.1872 0.86278 0.80305 0.0
O201 O 0.19367 0.87563 0.78662 0.0
H202 H 0.1238 0.81679 0.75901 0.0
H203 H 0.21698 0.79202 0.77544 0.0
O204 O 0.1749 0.84772 0.73832 0.0
H205 H 0.30783 0.82021 0.73045 0.0
H206 H 0.17079 0.76469 0.7745 0.0
Cu207 Cu 0.10364 0.42499 0.77002 0.0
N208 N 0.05688 0.42802 0.77312 0.0
N209 N 1.00215 0.42027 0.77318 0.0
C210 C 0.03362 0.41509 0.76663 0.0
C211 C 1.00567 0.43742 0.78364 0.0
C212 C 0.0394 0.44217 0.78356 0.0
O213 O 0.11908 0.40833 0.79575 0.0
C214 C 0.13974 0.41117 0.72826 0.0
O215 O 0.16682 0.41086 0.74181 0.0
H216 H 0.0398 0.40196 0.75759 0.0
H217 H 0.0503 0.45485 0.79116 0.0
N218 N 0.12571 0.44809 0.77512 0.0
N219 N 0.1656 0.47057 0.77464 0.0
C220 C 0.15263 0.45521 0.76335 0.0
C221 C 0.12173 0.45924 0.79452 0.0
C222 C 0.14598 0.47317 0.79418 0.0
C223 C 0.10351 0.39349 0.8025 0.0
O224 O 0.07857 0.38698 0.7894 0.0
H225 H 0.16328 0.4488 0.74742 0.0
H226 H 0.1039 0.45666 0.80884 0.0
O227 O 0.11162 0.41597 0.73742 0.0
H228 H 0.98555 0.44561 0.79172 0.0
H229 H 0.15021 0.48357 0.80815 0.0
Cu230 Cu 0.19363 0.4321 0.50979 0.0
N231 N 0.24064 0.43324 0.5081 0.0
N232 N 0.29394 0.42293 0.50662 0.0
C233 C 0.26104 0.41814 0.50534 0.0
C234 C 0.29425 0.44185 0.51033 0.0
C235 C 0.26133 0.44814 0.51142 0.0
O236 O 0.17812 0.41908 0.48104 0.0
C237 C 0.1552 0.415 0.54885 0.0
O238 O 0.12836 0.41576 0.53509 0.0
H239 H 0.25184 0.40385 0.50282 0.0
H240 H 0.25317 0.46245 0.51522 0.0
N241 N 0.17461 0.45638 0.50878 0.0
N242 N 0.13536 0.4792 0.51001 0.0
C243 C 0.14371 0.46137 0.51665 0.0
C244 C 0.18616 0.47153 0.49665 0.0
C245 C 0.16219 0.48566 0.49754 0.0
C246 C 0.18067 0.40152 0.47619 0.0
O247 O 0.19138 0.38975 0.49277 0.0
H248 H 0.12727 0.45189 0.52637 0.0
H249 H 0.20956 0.47193 0.4867 0.0
O250 O 0.18358 0.42028 0.54057 0.0
H251 H 0.31657 0.4504 0.51306 0.0
H252 H 0.16367 0.4992 0.4885 0.0
Cu253 Cu 0.10228 0.83808 0.5132 0.0
N254 N 0.05548 0.83567 0.51482 0.0
N255 N 1.00145 0.84451 0.51645 0.0
C256 C 0.03234 0.84843 0.50755 0.0
C257 C 1.00524 0.82867 0.5297 0.0
C258 C 0.03857 0.82327 0.52868 0.0
O259 O 0.11459 0.8506 0.48337 0.0
C260 C 0.14349 0.85674 0.54958 0.0
O261 O 0.16879 0.85657 0.53436 0.0
H262 H 0.03847 0.86116 0.49766 0.0
H263 H 0.05013 0.81191 0.53875 0.0
N264 N 0.12244 0.81414 0.51255 0.0
N265 N 0.16231 0.79169 0.51216 0.0
C266 C 0.15549 0.81032 0.51523 0.0
C267 C 0.10779 0.79741 0.5075 0.0
C268 C 0.13226 0.78354 0.50732 0.0
C269 C 0.11 0.86791 0.47792 0.0
O270 O 0.09811 0.87966 0.49417 0.0
H271 H 0.17429 0.8211 0.51852 0.0
H272 H 0.08129 0.79547 0.50369 0.0
O273 O 0.11478 0.85067 0.54297 0.0
H274 H 0.98568 0.82206 0.54035 0.0
H275 H 0.12815 0.76863 0.5038 0.0
Cu276 Cu 0.8436 0.18086 0.26324 0.0
N277 N 0.79685 0.18336 0.26548 0.0
N278 N 0.74301 0.17435 0.26863 0.0
C279 C 0.77378 0.17006 0.25976 0.0
C280 C 0.74685 0.19099 0.28026 0.0
C281 C 0.78007 0.19649 0.27832 0.0
O282 O 0.85484 0.16889 0.23285 0.0
C283 C 0.88513 0.16088 0.29825 0.0
O284 O 0.91016 0.1612 0.2828 0.0
H285 H 0.77996 0.15678 0.25105 0.0
H286 H 0.79165 0.2085 0.28714 0.0
N287 N 0.86443 0.20465 0.26324 0.0
N288 N 0.90516 0.22665 0.2636 0.0
C289 C 0.89746 0.20814 0.26676 0.0
C290 C 0.85072 0.2215 0.25755 0.0
C291 C 0.8757 0.23509 0.25785 0.0
C292 C 0.85239 0.15143 0.22746 0.0
O293 O 0.84333 0.13918 0.244 0.0
H294 H 0.91569 0.19718 0.2706 0.0
H295 H 0.82455 0.22368 0.25288 0.0
O296 O 0.85651 0.16743 0.29223 0.0
H297 H 0.72741 0.1982 0.29042 0.0
H298 H 0.87238 0.24999 0.25391 0.0
Cu299 Cu 0.94097 0.58636 0.26484 0.0
N300 N 0.98737 0.58397 0.26965 0.0
N301 N 0.04165 0.59213 0.27218 0.0
C302 C 1.01188 0.59542 0.26122 0.0
C303 C 0.03572 0.57796 0.28787 0.0
C304 C 1.00225 0.57293 0.28623 0.0
O305 O 0.93255 0.59759 0.23359 0.0
C306 C 0.93895 0.61093 0.30553 0.0
O307 O 0.96897 0.61632 0.29832 0.0
H308 H 1.00737 0.60698 0.24886 0.0
H309 H 0.98914 0.5628 0.29742 0.0
N310 N 0.92093 0.56246 0.26429 0.0
N311 N 0.88085 0.54015 0.26482 0.0
C312 C 0.88779 0.55885 0.26681 0.0
C313 C 0.93559 0.54553 0.26052 0.0
C314 C 0.91095 0.53173 0.26091 0.0
C315 C 0.93516 0.61497 0.22788 0.0
O316 O 0.94284 0.62753 0.24443 0.0
H317 H 0.86923 0.56979 0.2701 0.0
H318 H 0.96223 0.5434 0.25738 0.0
O319 O 0.9218 0.59972 0.29235 0.0
H320 H 0.05393 0.57226 0.3004 0.0
H321 H 0.91488 0.51673 0.25796 0.0
Cu322 Cu 0.84654 0.58643 0.51775 0.0
N323 N 0.8005 0.58186 0.51485 0.0
N324 N 0.74558 0.58844 0.5123 0.0
C325 C 0.77585 0.59417 0.5206 0.0
C326 C 0.75139 0.57183 0.50097 0.0
C327 C 0.78534 0.56779 0.50261 0.0
O328 O 0.85178 0.60223 0.54611 0.0
C329 C 0.88731 0.60483 0.4807 0.0
O330 O 0.91207 0.60633 0.49623 0.0
H331 H 0.78044 0.60774 0.52911 0.0
H332 H 0.79837 0.55601 0.4943 0.0
N333 N 0.86936 0.56356 0.52242 0.0
N334 N 0.9102 0.54171 0.52403 0.0
C335 C 0.90158 0.55937 0.51683 0.0
C336 C 0.85716 0.5481 0.53351 0.0
C337 C 0.88219 0.5346 0.53448 0.0
C338 C 0.8787 0.60389 0.55834 0.0
O339 O 0.90692 0.5966 0.55017 0.0
H340 H 0.91833 0.56911 0.50779 0.0
H341 H 0.83196 0.54689 0.54078 0.0
O342 O 0.85933 0.5977 0.48723 0.0
H343 H 0.73268 0.5636 0.49139 0.0
H344 H 0.88013 0.52082 0.54288 0.0
Cu345 Cu 0.93671 0.17141 0.51761 0.0
N346 N 0.98338 0.1743 0.5155 0.0
N347 N 0.03804 0.16652 0.5164 0.0
C348 C 1.00632 0.16132 0.5223 0.0
C349 C 0.03482 0.18363 0.50574 0.0
C350 C 1.00106 0.18836 0.50516 0.0
O351 O 0.92832 0.15498 0.54497 0.0
C352 C 0.93747 0.15131 0.47316 0.0
O353 O 0.96673 0.14495 0.48066 0.0
H354 H 0.99958 0.14808 0.53083 0.0
H355 H 0.99006 0.20083 0.49706 0.0
N356 N 0.91635 0.19484 0.52338 0.0
N357 N 0.87685 0.21745 0.52521 0.0
C358 C 0.88494 0.19999 0.51697 0.0
C359 C 0.92876 0.20953 0.53599 0.0
C360 C 0.90449 0.2235 0.53715 0.0
C361 C 0.90093 0.15467 0.55688 0.0
O362 O 0.8748 0.16425 0.54903 0.0
H363 H 0.868 0.19076 0.5072 0.0
H364 H 0.95352 0.2099 0.5441 0.0
O365 O 0.91986 0.16173 0.48704 0.0
H366 H 0.05516 0.19179 0.49794 0.0
H367 H 0.90705 0.23703 0.54615 0.0
Cu368 Cu 0.69417 0.33388 0.76611 0.0
N369 N 0.74099 0.33128 0.76678 0.0
N370 N 0.79535 0.33975 0.76758 0.0
C371 C 0.76325 0.34505 0.77222 0.0
C372 C 0.79306 0.32189 0.75895 0.0
C373 C 0.75954 0.31678 0.75831 0.0
O374 O 0.67998 0.34679 0.79523 0.0
C375 C 0.65628 0.35203 0.72764 0.0
O376 O 0.62947 0.35155 0.74147 0.0
H377 H 0.75587 0.35888 0.77871 0.0
H378 H 0.74934 0.3038 0.75097 0.0
N379 N 0.67335 0.31009 0.76678 0.0
N380 N 0.6324 0.28823 0.76674 0.0
C381 C 0.64091 0.30631 0.76145 0.0
C382 C 0.68578 0.29388 0.77589 0.0
C383 C 0.66071 0.28035 0.77573 0.0
C384 C 0.68375 0.36416 0.8007 0.0
O385 O 0.69594 0.376 0.78471 0.0
H386 H 0.62368 0.31677 0.75445 0.0
H387 H 0.71084 0.29225 0.78322 0.0
O388 O 0.68444 0.3463 0.73574 0.0
H389 H 0.81388 0.31347 0.75231 0.0
H390 H 0.66279 0.26613 0.78282 0.0
Cu391 Cu 0.60071 0.92598 0.76439 0.0
N392 N 0.55463 0.92934 0.75941 0.0
N393 N 0.49986 0.92242 0.75648 0.0
C394 C 0.52971 0.91757 0.76634 0.0
C395 C 0.50622 0.93793 0.74306 0.0
C396 C 0.54003 0.9422 0.74496 0.0
O397 O 0.60642 0.91 0.79247 0.0
C398 C 0.60394 0.90479 0.72102 0.0
O399 O 0.57451 0.89824 0.72794 0.0
H400 H 0.53386 0.90493 0.77694 0.0
H401 H 0.5534 0.95328 0.73552 0.0
N402 N 0.62077 0.94941 0.7705 0.0
N403 N 0.65954 0.97236 0.77284 0.0
C404 C 0.65244 0.95468 0.7649 0.0
C405 C 0.60722 0.96421 0.78226 0.0
C406 C 0.63105 0.97839 0.78375 0.0
C407 C 0.63413 0.90857 0.80381 0.0
O408 O 0.66129 0.91668 0.79504 0.0
H409 H 0.67014 0.94548 0.75578 0.0
H410 H 0.58188 0.96457 0.78944 0.0
O411 O 0.62029 0.91576 0.735 0.0
H412 H 0.48797 0.94526 0.732 0.0
H413 H 0.62754 0.99209 0.79214 0.0
Cu414 Cu 0.69858 0.92976 0.50944 0.0
N415 N 0.74456 0.93444 0.51245 0.0
N416 N 0.79957 0.92797 0.51422 0.0
C417 C 0.76936 0.92266 0.50537 0.0
C418 C 0.79358 0.94373 0.5273 0.0
C419 C 0.75957 0.94772 0.52612 0.0
O420 O 0.69358 0.91377 0.48125 0.0
C421 C 0.65759 0.91093 0.5458 0.0
O422 O 0.63383 0.90873 0.52962 0.0
H423 H 0.76493 0.90965 0.49553 0.0
H424 H 0.74639 0.95881 0.53573 0.0
N425 N 0.67542 0.95251 0.50475 0.0
N426 N 0.63381 0.97388 0.50298 0.0
C427 C 0.6428 0.95616 0.50966 0.0
C428 C 0.6876 0.96842 0.49473 0.0
C429 C 0.66205 0.98163 0.49362 0.0
C430 C 0.66682 0.91186 0.4689 0.0
O431 O 0.63844 0.9192 0.4767 0.0
H432 H 0.62583 0.94583 0.51737 0.0
H433 H 0.71321 0.97021 0.48845 0.0
O434 O 0.6854 0.91859 0.5399 0.0
H435 H 0.81219 0.95131 0.53779 0.0
H436 H 0.66423 0.99585 0.48653 0.0
Cu437 Cu 0.5958 0.32997 0.51101 0.0
N438 N 0.54882 0.32836 0.50947 0.0
N439 N 0.49496 0.33782 0.50767 0.0
C440 C 0.52767 0.34297 0.50557 0.0
C441 C 0.49575 0.31916 0.51314 0.0
C442 C 0.52891 0.31343 0.51439 0.0
O443 O 0.6112 0.34292 0.48228 0.0
C444 C 0.63397 0.34784 0.5495 0.0
O445 O 0.66077 0.3469 0.53569 0.0
H446 H 0.53625 0.35728 0.50233 0.0
H447 H 0.53781 0.29949 0.51935 0.0
N448 N 0.61523 0.30579 0.51008 0.0
N449 N 0.65449 0.28297 0.51067 0.0
C450 C 0.6465 0.30088 0.51726 0.0
C451 C 0.6031 0.2905 0.4985 0.0
C452 C 0.62706 0.27639 0.49898 0.0
C453 C 0.60822 0.36043 0.47735 0.0
O454 O 0.59663 0.37215 0.49374 0.0
H455 H 0.66373 0.31059 0.52589 0.0
H456 H 0.57914 0.28994 0.48929 0.0
O457 O 0.60566 0.34221 0.54152 0.0
H458 H 0.47402 0.31026 0.51641 0.0
H459 H 0.62471 0.26255 0.49076 0.0
Cu460 Cu 0.34758 0.67709 0.26115 0.0
N461 N 0.30109 0.68069 0.26259 0.0
N462 N 0.24637 0.67337 0.26419 0.0
C463 C 0.2773 0.66779 0.25697 0.0
C464 C 0.25085 0.69044 0.27467 0.0
C465 C 0.28465 0.69493 0.27361 0.0
O466 O 0.35643 0.66049 0.23392 0.0
C467 C 0.3875 0.65981 0.29916 0.0
O468 O 0.41205 0.65757 0.28357 0.0
H469 H 0.2829 0.65402 0.24933 0.0
H470 H 0.29668 0.7072 0.28151 0.0
N471 N 0.36902 0.7004 0.25635 0.0
N472 N 0.40872 0.72294 0.25499 0.0
C473 C 0.40071 0.70527 0.26252 0.0
C474 C 0.35642 0.71548 0.24469 0.0
C475 C 0.38076 0.7294 0.24384 0.0
C476 C 0.38393 0.66035 0.22211 0.0
O477 O 0.40969 0.67025 0.22996 0.0
H478 H 0.41786 0.69577 0.27159 0.0
H479 H 0.33141 0.71618 0.23703 0.0
O480 O 0.35971 0.66702 0.29241 0.0
H481 H 0.23129 0.69873 0.28327 0.0
H482 H 0.37796 0.74318 0.23558 0.0
Cu483 Cu 0.44077 0.08659 0.26639 0.0
N484 N 0.4867 0.08319 0.27217 0.0
N485 N 0.54135 0.09052 0.27479 0.0
C486 C 0.51182 0.09418 0.26372 0.0
C487 C 0.53461 0.07658 0.29065 0.0
C488 C 0.50086 0.07204 0.28894 0.0
O489 O 0.43676 0.10084 0.23673 0.0
C490 C 0.43786 0.10948 0.30837 0.0
O491 O 0.46752 0.11551 0.30119 0.0
H492 H 0.50792 0.10567 0.25115 0.0
H493 H 0.48717 0.06216 0.30013 0.0
N494 N 0.41977 0.06315 0.26216 0.0
N495 N 0.37933 0.04106 0.26017 0.0
C496 C 0.3867 0.05941 0.26491 0.0
C497 C 0.43397 0.04666 0.2555 0.0
C498 C 0.40913 0.03301 0.25425 0.0
C499 C 0.40934 0.10463 0.22592 0.0
O500 O 0.38044 0.10056 0.23622 0.0
H501 H 0.36842 0.07009 0.26992 0.0
H502 H 0.46052 0.04473 0.2518 0.0
O503 O 0.42106 0.09841 0.2948 0.0
H504 H 0.55246 0.07066 0.30328 0.0
H505 H 0.4129 0.01828 0.24958 0.0
Cu506 Cu 0.3462 0.07949 0.51928 0.0
N507 N 0.29925 0.07748 0.51924 0.0
N508 N 0.24504 0.08626 0.52006 0.0
C509 C 0.27725 0.09144 0.52451 0.0
C510 C 0.24698 0.06831 0.51169 0.0
C511 C 0.2804 0.06301 0.51104 0.0
O512 O 0.35986 0.09179 0.54893 0.0
C513 C 0.38609 0.09911 0.48316 0.0
O514 O 0.41126 0.09931 0.49848 0.0
H515 H 0.28488 0.10527 0.53089 0.0
H516 H 0.29032 0.04983 0.50406 0.0
N517 N 0.36611 0.05546 0.5195 0.0
N518 N 0.40594 0.03299 0.51832 0.0
C519 C 0.39808 0.05122 0.51331 0.0
C520 C 0.35329 0.03942 0.52881 0.0
C521 C 0.37768 0.02552 0.52799 0.0
C522 C 0.35742 0.10925 0.55429 0.0
O523 O 0.34716 0.12139 0.53799 0.0
H524 H 0.4157 0.06156 0.5064 0.0
H525 H 0.32839 0.03809 0.53653 0.0
O526 O 0.35781 0.09226 0.48951 0.0
H527 H 0.22597 0.05992 0.50533 0.0
H528 H 0.3749 0.01115 0.53446 0.0
Cu529 Cu 0.44405 0.68014 0.51465 0.0
N530 N 0.49049 0.68159 0.50957 0.0
N531 N 0.54409 0.67217 0.50697 0.0
C532 C 0.51419 0.6697 0.51812 0.0
C533 C 0.53911 0.68628 0.49103 0.0
C534 C 0.50603 0.69209 0.49272 0.0
O535 O 0.43536 0.66895 0.54587 0.0
C536 C 0.44008 0.65536 0.47427 0.0
O537 O 0.46967 0.64931 0.48152 0.0
H538 H 0.50892 0.65841 0.53072 0.0
H539 H 0.49358 0.70237 0.48139 0.0
N540 N 0.42546 0.70439 0.51537 0.0
N541 N 0.38647 0.72729 0.5153 0.0
C542 C 0.39255 0.70853 0.51282 0.0
C543 C 0.4409 0.72103 0.51963 0.0
C544 C 0.41691 0.7352 0.51959 0.0
C545 C 0.43698 0.65148 0.55131 0.0
O546 O 0.44353 0.63892 0.5345 0.0
H547 H 0.37338 0.69787 0.50984 0.0
H548 H 0.46763 0.7227 0.5228 0.0
O549 O 0.42385 0.66711 0.48729 0.0
H550 H 0.55764 0.69141 0.47832 0.0
H551 H 0.42159 0.75014 0.52244 0.0
Cu552 Cu 0.6929 0.83308 0.26763 0.0
N553 N 0.73983 0.83025 0.26748 0.0
N554 N 0.79445 0.83809 0.2665 0.0
C555 C 0.76334 0.84307 0.27407 0.0
C556 C 0.79045 0.82145 0.25489 0.0
C557 C 0.7568 0.81666 0.25555 0.0
O558 O 0.67857 0.84774 0.29537 0.0
C559 C 0.65369 0.85129 0.23032 0.0
O560 O 0.62906 0.85288 0.24598 0.0
H561 H 0.75758 0.85647 0.28255 0.0
H562 H 0.74515 0.80476 0.24653 0.0
N563 N 0.67231 0.80932 0.27007 0.0
N564 N 0.63256 0.78681 0.27059 0.0
C565 C 0.63998 0.805 0.26505 0.0
C566 C 0.68583 0.79337 0.27909 0.0
C567 C 0.66144 0.77946 0.27938 0.0
C568 C 0.68585 0.865 0.29941 0.0
O569 O 0.70245 0.87476 0.28318 0.0
H570 H 0.622 0.81519 0.25827 0.0
H571 H 0.71145 0.79206 0.2855 0.0
O572 O 0.68161 0.84408 0.23677 0.0
H573 H 0.81018 0.81379 0.24558 0.0
H574 H 0.66477 0.76508 0.2857 0.0
Cu575 Cu 0.60091 0.42758 0.2674 0.0
N576 N 0.55468 0.42829 0.26133 0.0
N577 N 0.50109 0.41889 0.25823 0.0
C578 C 0.53093 0.41619 0.26938 0.0
C579 C 0.50627 0.43327 0.24271 0.0
C580 C 0.53932 0.43905 0.24469 0.0
O581 O 0.60933 0.41601 0.29845 0.0
C582 C 0.61066 0.40273 0.22707 0.0
O583 O 0.58388 0.39356 0.23464 0.0
H584 H 0.53598 0.40484 0.28193 0.0
H585 H 0.55179 0.4497 0.23391 0.0
N586 N 0.61852 0.45203 0.26926 0.0
N587 N 0.65732 0.47503 0.27037 0.0
C588 C 0.65154 0.45625 0.26799 0.0
C589 C 0.60263 0.46867 0.27258 0.0
C590 C 0.62653 0.48291 0.2732 0.0
C591 C 0.61002 0.39849 0.30368 0.0
O592 O 0.60589 0.38579 0.28665 0.0
H593 H 0.67087 0.44565 0.26518 0.0
H594 H 0.57567 0.4703 0.27462 0.0
O595 O 0.62294 0.41604 0.23982 0.0
H596 H 0.48776 0.43879 0.23027 0.0
H597 H 0.62158 0.49784 0.27599 0.0
Cu598 Cu 0.68364 0.42806 1.01283 0.0
N599 N 0.72947 0.42765 0.02025 0.0
N600 N 0.78229 0.41726 0.02449 0.0
C601 C 0.75302 0.41534 1.01236 0.0
C602 C 0.777 0.43135 0.04046 0.0
C603 C 0.74442 0.43775 0.03775 0.0
O604 O 0.67612 0.4172 0.9812 0.0
C605 C 0.67052 0.40326 0.05254 0.0
O606 O 0.6977 0.39401 0.04586 0.0
H607 H 0.74814 0.40442 0.99913 0.0
H608 H 0.73194 0.44841 0.04855 0.0
N609 N 0.66828 0.45298 1.01134 0.0
N610 N 0.63213 0.47729 1.01177 0.0
C611 C 0.63637 0.45854 0.01556 0.0
C612 C 0.68498 0.4687 1.00467 0.0
C613 C 0.66271 0.48375 1.00489 0.0
C614 C 0.67599 0.39977 0.9754 0.0
O615 O 0.67987 0.38681 0.99209 0.0
H616 H 0.61645 0.44884 0.02059 0.0
H617 H 0.71132 0.46912 0.99967 0.0
O618 O 0.65923 0.41657 0.03939 0.0
H619 H 0.79509 0.43628 0.0536 0.0
H620 H 0.66861 0.49829 1.00033 0.0
Cu621 Cu 0.60129 0.83993 1.01104 0.0
N622 N 0.55469 0.83711 1.01377 0.0
N623 N 0.50005 0.84489 1.01384 0.0
C624 C 0.53163 0.85031 1.00791 0.0
C625 C 0.50344 0.82745 0.02354 0.0
C626 C 0.53721 0.82272 0.02353 0.0
O627 O 0.60923 0.85625 0.98354 0.0
C628 C 0.60213 0.86055 0.0551 0.0
O629 O 0.57329 0.86748 0.04761 0.0
H630 H 0.53816 0.86382 0.99998 0.0
H631 H 0.54834 0.80997 0.0308 0.0
N632 N 0.62142 0.81646 1.00526 0.0
N633 N 0.66063 0.79368 1.00361 0.0
C634 C 0.65296 0.81134 1.01137 0.0
C635 C 0.6085 0.80157 0.99331 0.0
C636 C 0.63258 0.78749 0.99228 0.0
C637 C 0.63684 0.85694 0.97194 0.0
O638 O 0.66325 0.8478 0.98016 0.0
H639 H 0.6702 0.82068 0.02068 0.0
H640 H 0.58346 0.80109 0.98567 0.0
O641 O 0.61892 0.84963 0.04133 0.0
H642 H 0.4832 0.81904 0.03105 0.0
H643 H 0.62954 0.77378 0.98382 0.0
Cu644 Cu 0.34567 0.18044 0.76152 0.0
N645 N 0.29874 0.18238 0.76191 0.0
N646 N 0.24452 0.17363 0.76146 0.0
C647 C 0.27672 0.16832 0.75721 0.0
C648 C 0.24651 0.19178 0.76911 0.0
C649 C 0.27994 0.19707 0.76951 0.0
O650 O 0.35914 0.16771 0.7321 0.0
C651 C 0.38759 0.16268 0.79751 0.0
O652 O 0.41188 0.16269 0.78146 0.0
H653 H 0.28431 0.15436 0.75128 0.0
H654 H 0.2899 0.21044 0.77583 0.0
N655 N 0.36548 0.20448 0.76022 0.0
N656 N 0.4059 0.22663 0.75987 0.0
C657 C 0.39762 0.20868 0.76589 0.0
C658 C 0.35292 0.22032 0.7502 0.0
C659 C 0.37769 0.23405 0.75012 0.0
C660 C 0.35657 0.15023 0.72686 0.0
O661 O 0.34609 0.13818 0.74321 0.0
H662 H 0.41488 0.19857 0.77366 0.0
H663 H 0.32806 0.22153 0.74241 0.0
O664 O 0.35838 0.16842 0.7916 0.0
H665 H 0.2255 0.20036 0.77507 0.0
H666 H 0.37555 0.24804 0.74232 0.0
Cu667 Cu 0.44933 0.58096 0.75916 0.0
N668 N 0.49611 0.57851 0.76081 0.0
N669 N 0.55015 0.58736 0.76189 0.0
C670 C 0.51917 0.59116 0.75312 0.0
C671 C 0.54648 0.57171 0.77551 0.0
C672 C 0.51314 0.56629 0.77482 0.0
O673 O 0.43735 0.59328 0.72923 0.0
C674 C 0.40786 0.60076 0.79423 0.0
O675 O 0.38335 0.60081 0.77839 0.0
H676 H 0.51291 0.60377 0.74302 0.0
H677 H 0.50166 0.55505 0.78518 0.0
N678 N 0.42874 0.55714 0.75883 0.0
N679 N 0.38813 0.53509 0.75874 0.0
C680 C 0.39551 0.5537 0.76123 0.0
C681 C 0.44296 0.54016 0.75454 0.0
C682 C 0.41803 0.52653 0.75455 0.0
C683 C 0.44072 0.61071 0.72401 0.0
O684 O 0.45128 0.62265 0.7405 0.0
H685 H 0.37705 0.56476 0.764 0.0
H686 H 0.4695 0.53787 0.75122 0.0
O687 O 0.43647 0.59401 0.78851 0.0
H688 H 0.56615 0.56524 0.78619 0.0
H689 H 0.42175 0.5115 0.75171 0.0
Cu690 Cu 0.3542 0.59249 1.01409 0.0
N691 N 0.30755 0.58988 1.01126 0.0
N692 N 0.25292 0.5977 1.01174 0.0
C693 C 0.28457 0.60297 0.01769 0.0
C694 C 0.25621 0.58046 1.00139 0.0
C695 C 0.28996 0.57571 1.00105 0.0
O696 O 0.362 0.60878 0.04173 0.0
C697 C 0.3552 0.61199 0.96925 0.0
O698 O 0.32548 0.61827 0.97593 0.0
H699 H 0.29118 0.6163 0.02611 0.0
H700 H 0.30101 0.56308 0.99332 0.0
N701 N 0.37372 0.5689 0.02011 0.0
N702 N 0.41239 0.5459 0.02285 0.0
C703 C 0.4056 0.56365 0.01507 0.0
C704 C 0.35969 0.554 0.03133 0.0
C705 C 0.38342 0.53979 0.03302 0.0
C706 C 0.38947 0.60945 0.05349 0.0
O707 O 0.41608 0.60046 0.04525 0.0
H708 H 0.42366 0.57295 1.00653 0.0
H709 H 0.33412 0.5536 0.03806 0.0
O710 O 0.37237 0.60193 0.98378 0.0
H711 H 0.2359 0.5722 0.99372 0.0
H712 H 0.37949 0.52605 0.04114 0.0
Cu713 Cu 0.43258 0.17674 0.02171 0.0
N714 N 0.4797 0.17827 0.02477 0.0
N715 N 0.53386 0.16925 0.02502 0.0
C716 C 0.50185 0.1644 0.01944 0.0
C717 C 0.53181 0.18707 0.03375 0.0
C718 C 0.49847 0.19259 0.03353 0.0
O719 O 0.41576 0.16102 0.0479 0.0
C720 C 0.43895 0.17384 0.9721 0.0
O721 O 0.46288 0.18622 0.97657 0.0
H722 H 0.49457 0.15102 1.01151 0.0
H723 H 0.48875 0.20605 0.03965 0.0
N724 N 0.41253 0.20045 0.02631 0.0
N725 N 0.37351 0.22342 0.02564 0.0
C726 C 0.38531 0.20749 0.0149 0.0
C727 C 0.41799 0.21217 0.04496 0.0
C728 C 0.39428 0.22639 0.04448 0.0
C729 C 0.42813 0.14504 0.05371 0.0
O730 O 0.45045 0.13701 0.03959 0.0
H731 H 0.37357 0.20053 0.99974 0.0
H732 H 0.4364 0.20982 0.05893 0.0
O733 O 0.42155 0.16744 0.98957 0.0
H734 H 0.55271 0.19535 0.04052 0.0
H735 H 0.39128 0.23729 0.058 0.0
H736 H 0.0971 0.35703 0.20642 0.0
H737 H 0.18846 0.35901 0.07788 0.0
H738 H 0.20506 0.35547 0.19691 0.0
H739 H 0.08071 0.35491 0.08745 0.0
H740 H 0.19486 0.36232 0.12142 0.0
H741 H 0.09056 0.36095 0.16301 0.0
C742 C 0.11946 0.35778 0.19529 0.0
C743 C 0.15167 0.35574 0.20539 0.0
C744 C 0.16979 0.36087 0.11396 0.0
C745 C 0.14434 0.36008 0.15555 0.0
C746 C 0.16611 0.35904 0.08907 0.0
C747 C 0.13402 0.3565 0.07893 0.0
C748 C 0.14119 0.3602 0.12888 0.0
C749 C 0.10599 0.35667 0.09441 0.0
C750 C 0.1157 0.35993 0.17045 0.0
C751 C 0.1797 0.35682 0.18996 0.0
N752 N 0.11025 0.35834 0.11855 0.0
N753 N 0.17537 0.35876 0.16586 0.0
H754 H 0.22483 0.88759 0.09243 0.0
H755 H 0.08965 0.91044 0.19523 0.0
H756 H 0.12707 0.91212 0.07865 0.0
H757 H 0.19494 0.89996 0.20956 0.0
H758 H 0.10004 0.9051 0.15257 0.0
H759 H 0.21101 0.88607 0.13516 0.0
C760 C 0.20024 0.8924 0.09829 0.0
C761 C 0.17717 0.90014 0.08185 0.0
C762 C 0.12082 0.9038 0.16506 0.0
C763 C 0.16129 0.89848 0.13092 0.0
C764 C 0.11492 0.90678 0.1895 0.0
C765 C 0.14155 0.90583 0.20611 0.0
C766 C 0.15356 0.89972 0.15703 0.0
C767 C 0.17368 0.90096 0.19746 0.0
C768 C 0.19247 0.89161 0.12275 0.0
C769 C 0.14572 0.90614 0.09063 0.0
N770 N 0.17883 0.8982 0.17352 0.0
N771 N 0.1388 0.90528 0.11455 0.0
H772 H 0.84308 0.66333 0.8365 0.0
H773 H 0.97427 0.63735 0.94051 0.0
H774 H 0.94572 0.64603 0.82283 0.0
H775 H 0.87958 0.66585 0.95307 0.0
H776 H 0.96046 0.6352 0.89784 0.0
H777 H 0.85264 0.65915 0.87943 0.0
C778 C 0.86758 0.65847 0.84247 0.0
C779 C 0.89375 0.6552 0.82594 0.0
C780 C 0.94256 0.64175 0.90997 0.0
C781 C 0.90482 0.6504 0.87531 0.0
C782 C 0.95033 0.64291 0.9344 0.0
C783 C 0.92817 0.65195 0.95046 0.0
C784 C 0.91232 0.64958 0.90146 0.0
C785 C 0.89753 0.65887 0.94139 0.0
C786 C 0.87301 0.65614 0.86705 0.0
C787 C 0.92486 0.64884 0.83486 0.0
N788 N 0.89063 0.65764 0.9175 0.0
N789 N 0.92959 0.64676 0.85894 0.0
H790 H 0.9416 0.11308 0.96384 0.0
H791 H 0.87518 0.09791 0.8299 0.0
H792 H 0.83901 0.09787 0.94659 0.0
H793 H 0.97136 0.12344 0.84629 0.0
H794 H 0.86085 0.09887 0.87259 0.0
H795 H 0.95262 0.11807 0.92101 0.0
C796 C 0.9213 0.11098 0.95112 0.0
C797 C 0.88941 0.10491 0.95889 0.0
C798 C 0.88496 0.10445 0.86683 0.0
C799 C 0.90193 0.11041 0.90978 0.0
C800 C 0.89315 0.10391 0.84242 0.0
C801 C 0.9246 0.11051 0.83445 0.0
C802 C 0.90852 0.11143 0.8835 0.0
C803 C 0.94684 0.11816 0.85157 0.0
C804 C 0.92761 0.11382 0.92665 0.0
C805 C 0.86407 0.10244 0.94151 0.0
N806 N 0.93853 0.11821 0.87527 0.0
N807 N 0.87097 0.10502 0.91783 0.0
H808 H 0.13154 0.85021 0.70359 0.0
H809 H 0.20138 0.86953 0.57158 0.0
H810 H 0.22745 0.87699 0.68979 0.0
H811 H 0.09807 0.85429 0.58652 0.0
H812 H 0.21092 0.87354 0.61474 0.0
H813 H 0.11796 0.85284 0.66089 0.0
C814 C 0.14956 0.85689 0.69167 0.0
C815 C 0.18078 0.86328 0.70035 0.0
C816 C 0.18607 0.86952 0.60853 0.0
C817 C 0.1656 0.86606 0.65126 0.0
C818 C 0.1806 0.86723 0.58386 0.0
C819 C 0.14895 0.86143 0.57533 0.0
C820 C 0.1598 0.8658 0.62484 0.0
C821 C 0.12297 0.85869 0.59218 0.0
C822 C 0.14181 0.85836 0.66725 0.0
C823 C 0.20311 0.87181 0.68397 0.0
N824 N 0.12907 0.86069 0.61607 0.0
N825 N 0.19527 0.87273 0.66022 0.0
H826 H 0.09758 0.40946 0.5755 0.0
H827 H 0.19666 0.40547 0.701 0.0
H828 H 0.20602 0.41047 0.58166 0.0
H829 H 0.08846 0.40992 0.69526 0.0
H830 H 0.20028 0.40336 0.65721 0.0
H831 H 0.09353 0.40563 0.61911 0.0
C832 C 0.12056 0.40865 0.58594 0.0
C833 C 0.15218 0.41044 0.57483 0.0
C834 C 0.17572 0.40466 0.66554 0.0
C835 C 0.14772 0.40617 0.62488 0.0
C836 C 0.17363 0.40581 0.69058 0.0
C837 C 0.14223 0.40801 0.70191 0.0
C838 C 0.14621 0.40569 0.65162 0.0
C839 C 0.11325 0.40837 0.68738 0.0
C840 C 0.11822 0.40654 0.61089 0.0
C841 C 0.18106 0.4093 0.58939 0.0
N842 N 0.11596 0.40733 0.66305 0.0
N843 N 0.17812 0.40736 0.6136 0.0
H844 H 0.83947 0.16115 0.33511 0.0
H845 H 0.97466 0.13567 0.43667 0.0
H846 H 0.94369 0.14838 0.31962 0.0
H847 H 0.87798 0.16129 0.45132 0.0
H848 H 0.96066 0.13491 0.39393 0.0
H849 H 0.85035 0.15581 0.37764 0.0
C850 C 0.86462 0.15702 0.34058 0.0
C851 C 0.8908 0.15539 0.32367 0.0
C852 C 0.94241 0.14055 0.40652 0.0
C853 C 0.9034 0.14929 0.37262 0.0
C854 C 0.95029 0.14092 0.43098 0.0
C855 C 0.92755 0.14868 0.44767 0.0
C856 C 0.91144 0.14786 0.39864 0.0
C857 C 0.89638 0.15527 0.43914 0.0
C858 C 0.8708 0.15404 0.36494 0.0
C859 C 0.92278 0.14991 0.33197 0.0
N860 N 0.88933 0.15478 0.41523 0.0
N861 N 0.92822 0.14716 0.35586 0.0
H862 H 0.9747 0.62867 0.34118 0.0
H863 H 0.842 0.6015 0.44389 0.0
H864 H 0.87928 0.6013 0.32749 0.0
H865 H 0.94439 0.61872 0.45858 0.0
H866 H 0.85211 0.60634 0.40115 0.0
H867 H 0.9605 0.63024 0.38386 0.0
C868 C 0.95051 0.62326 0.34705 0.0
C869 C 0.92826 0.61469 0.33066 0.0
C870 C 0.87232 0.60919 0.41371 0.0
C871 C 0.91199 0.61636 0.37966 0.0
C872 C 0.86658 0.60647 0.43819 0.0
C873 C 0.8925 0.60954 0.45496 0.0
C874 C 0.9042 0.6151 0.40576 0.0
C875 C 0.92371 0.61606 0.44636 0.0
C876 C 0.94253 0.62407 0.37148 0.0
C877 C 0.89731 0.60793 0.33942 0.0
N878 N 0.92875 0.61851 0.42236 0.0
N879 N 0.89021 0.60879 0.36331 0.0
H880 H 0.58307 0.35326 0.58206 0.0
H881 H 0.70717 0.35634 0.69483 0.0
H882 H 0.69152 0.35418 0.57588 0.0
H883 H 0.59871 0.35728 0.70094 0.0
H884 H 0.70192 0.35901 0.65131 0.0
H885 H 0.58829 0.3581 0.62529 0.0
C886 C 0.60803 0.35467 0.58973 0.0
C887 C 0.63693 0.35312 0.57525 0.0
C888 C 0.67924 0.35884 0.66215 0.0
C889 C 0.64307 0.35855 0.62499 0.0
C890 C 0.6822 0.35734 0.68707 0.0
C891 C 0.6533 0.3564 0.70164 0.0
C892 C 0.64714 0.35929 0.65158 0.0
C893 C 0.62169 0.35788 0.69047 0.0
C894 C 0.61097 0.35743 0.61448 0.0
C895 C 0.66854 0.3552 0.58628 0.0
N896 N 0.61945 0.35903 0.66612 0.0
N897 N 0.67076 0.35761 0.6105 0.0
H898 H 0.66371 0.91572 0.70035 0.0
H899 H 0.60043 0.89588 0.56644 0.0
H900 H 0.56959 0.88782 0.68411 0.0
H901 H 0.70032 0.91593 0.58384 0.0
H902 H 0.58939 0.89143 0.60936 0.0
H903 H 0.67857 0.91445 0.65778 0.0
C904 C 0.64633 0.90913 0.6879 0.0
C905 C 0.61526 0.90197 0.69586 0.0
C906 C 0.61382 0.89664 0.60375 0.0
C907 C 0.63193 0.90069 0.64693 0.0
C908 C 0.62014 0.89918 0.57922 0.0
C909 C 0.65126 0.90642 0.57145 0.0
C910 C 0.63871 0.9015 0.62065 0.0
C911 C 0.67586 0.91041 0.58891 0.0
C912 C 0.6548 0.90843 0.66355 0.0
C913 C 0.59378 0.89356 0.67883 0.0
N914 N 0.66896 0.90806 0.61262 0.0
N915 N 0.60235 0.89334 0.65517 0.0
H916 H 0.34289 0.665 0.33611 0.0
H917 H 0.47425 0.63633 0.43887 0.0
H918 H 0.44385 0.64526 0.32141 0.0
H919 H 0.38109 0.66615 0.45235 0.0
H920 H 0.45966 0.63454 0.3963 0.0
H921 H 0.35302 0.6607 0.37893 0.0
C922 C 0.36715 0.65961 0.34183 0.0
C923 C 0.39268 0.65564 0.32504 0.0
C924 C 0.44226 0.6413 0.40861 0.0
C925 C 0.40441 0.65069 0.37431 0.0
C926 C 0.45046 0.64225 0.43299 0.0
C927 C 0.42899 0.65155 0.44927 0.0
C928 C 0.41228 0.64963 0.40039 0.0
C929 C 0.39852 0.65894 0.44049 0.0
C930 C 0.37291 0.65719 0.36635 0.0
C931 C 0.4235 0.64861 0.33366 0.0
N932 N 0.39121 0.65793 0.41665 0.0
N933 N 0.42856 0.64646 0.35769 0.0
H934 H 0.3404 0.09755 0.44638 0.0
H935 H 0.47355 0.12638 0.34469 0.0
H936 H 0.44351 0.11302 0.46159 0.0
H937 H 0.37837 0.09908 0.33 0.0
H938 H 0.4593 0.12698 0.3874 0.0
H939 H 0.35061 0.10338 0.40384 0.0
C940 C 0.36515 0.10236 0.44085 0.0
C941 C 0.39125 0.10463 0.45768 0.0
C942 C 0.4414 0.12103 0.3748 0.0
C943 C 0.40306 0.11132 0.40873 0.0
C944 C 0.44941 0.12077 0.35035 0.0
C945 C 0.42723 0.11252 0.33366 0.0
C946 C 0.41088 0.11311 0.38269 0.0
C947 C 0.39634 0.10548 0.34217 0.0
C948 C 0.37095 0.10564 0.41648 0.0
C949 C 0.42269 0.11098 0.4493 0.0
N950 N 0.38919 0.10583 0.36608 0.0
N951 N 0.42777 0.114 0.42541 0.0
H952 H 0.69849 0.84753 0.19324 0.0
H953 H 0.56664 0.87762 0.09144 0.0
H954 H 0.59684 0.86574 0.20865 0.0
H955 H 0.66054 0.84885 0.07698 0.0
H956 H 0.58069 0.87808 0.13418 0.0
H957 H 0.68813 0.85263 0.15059 0.0
C958 C 0.67403 0.85275 0.18771 0.0
C959 C 0.64838 0.85606 0.20464 0.0
C960 C 0.59834 0.87182 0.12163 0.0
C961 C 0.63638 0.86191 0.15558 0.0
C962 C 0.59043 0.87161 0.09718 0.0
C963 C 0.61234 0.86306 0.08054 0.0
C964 C 0.62848 0.8635 0.12956 0.0
C965 C 0.64279 0.85551 0.08912 0.0
C966 C 0.66813 0.85562 0.16329 0.0
C967 C 0.61729 0.8629 0.19629 0.0
N968 N 0.64986 0.85583 0.11301 0.0
N969 N 0.6121 0.86551 0.17234 0.0
H970 H 0.63624 0.42949 0.07898 0.0
H971 H 0.60513 0.37153 0.19753 0.0
H972 H 0.67669 0.37278 0.0831 0.0
H973 H 0.6406 0.42936 0.19887 0.0
H974 H 0.61861 0.37004 0.15429 0.0
H975 H 0.62259 0.42801 0.12174 0.0
C976 C 0.64167 0.41657 0.08874 0.0
C977 C 0.65772 0.40122 0.07743 0.0
C978 C 0.62363 0.38294 0.16424 0.0
C979 C 0.64194 0.39951 0.12637 0.0
C980 C 0.61603 0.38381 0.18882 0.0
C981 C 0.62195 0.40055 0.20184 0.0
C982 C 0.63608 0.39913 0.1526 0.0
C983 C 0.63591 0.4161 0.18964 0.0
C984 C 0.63414 0.41583 0.11318 0.0
C985 C 0.66441 0.38493 0.09115 0.0
N986 N 0.64198 0.4151 0.16566 0.0
N987 N 0.65637 0.38444 0.11496 0.0
H988 H 0.34288 0.15808 0.83467 0.0
H989 H 0.48215 0.17608 0.93431 0.0
H990 H 0.44945 0.15999 0.81924 0.0
H991 H 0.38091 0.15889 0.95236 0.0
H992 H 0.47042 0.16956 0.89216 0.0
H993 H 0.35577 0.15734 0.87763 0.0
C994 C 0.36902 0.15808 0.84028 0.0
C995 C 0.39513 0.15925 0.82326 0.0
C996 C 0.45081 0.16701 0.9053 0.0
C997 C 0.41 0.15867 0.87251 0.0
C998 C 0.45744 0.17081 0.92941 0.0
C999 C 0.43239 0.16815 0.94689 0.0
C1000 C 0.41863 0.16079 0.89839 0.0
C1001 C 0.40095 0.16113 0.93947 0.0
C1002 C 0.37633 0.15765 0.86484 0.0
C1003 C 0.42849 0.15913 0.83164 0.0
N1004 N 0.3948 0.15793 0.91571 0.0
N1005 N 0.43492 0.15912 0.85564 0.0
H1006 H 0.34948 0.6147 0.81442 0.0
H1007 H 0.41548 0.60153 0.94882 0.0
H1008 H 0.45172 0.59911 0.83211 0.0
H1009 H 0.31948 0.62689 0.93164 0.0
H1010 H 0.42994 0.60169 0.90613 0.0
H1011 H 0.33848 0.6204 0.85712 0.0
C1012 C 0.36972 0.61266 0.82721 0.0
C1013 C 0.40151 0.60628 0.8196 0.0
C1014 C 0.40584 0.6074 0.91171 0.0
C1015 C 0.38899 0.61261 0.86857 0.0
C1016 C 0.39758 0.60733 0.93612 0.0
C1017 C 0.36613 0.61411 0.94388 0.0
C1018 C 0.38236 0.61411 0.89483 0.0
C1019 C 0.34399 0.62147 0.92654 0.0
C1020 C 0.36341 0.61591 0.85161 0.0
C1021 C 0.42675 0.60392 0.83706 0.0
N1022 N 0.35237 0.62109 0.90285 0.0
N1023 N 0.41986 0.6069 0.86068 0.0
H1024 H 0.95995 0.21408 0.2883 0.0
H1025 H 0.07867 0.29905 0.24383 0.0
H1026 H 0.92624 0.25905 0.24164 0.0
H1027 H 0.11231 0.25407 0.2905 0.0
H1028 H 0.02264 0.28474 0.24301 0.0
H1029 H 1.01586 0.22851 0.28931 0.0
C1030 C 0.96425 0.22693 0.27817 0.0
C1031 C 0.93817 0.23529 0.26481 0.0
C1032 C 0.04229 0.27799 0.25343 0.0
C1033 C 1.00234 0.25204 0.26607 0.0
C1034 C 0.07433 0.28622 0.254 0.0
C1035 C 0.10043 0.27781 0.26729 0.0
C1036 C 0.03615 0.26119 0.26624 0.0
C1037 C 0.09324 0.26098 0.27978 0.0
C1038 C 0.99622 0.23523 0.27886 0.0
C1039 C 0.9453 0.25217 0.2524 0.0
N1040 N 0.06183 0.25327 0.27897 0.0
N1041 N 0.97666 0.25994 0.2533 0.0
H1042 H 0.21054 0.96481 0.24225 0.0
H1043 H 0.32353 0.05285 0.2846 0.0
H1044 H 0.17226 0.01158 0.28419 0.0
H1045 H 0.35972 0.00853 0.23766 0.0
H1046 H 0.26839 0.03761 0.28534 0.0
H1047 H 0.26579 0.98011 0.24133 0.0
C1048 C 0.21372 0.97825 0.25136 0.0
C1049 C 0.18657 0.98688 0.26334 0.0
C1050 C 0.2884 0.03122 0.27486 0.0
C1051 C 0.24991 1.00459 0.26221 0.0
C1052 C 0.31997 0.03999 0.27432 0.0
C1053 C 0.34657 0.03206 0.26099 0.0
C1054 C 0.28321 0.01432 0.26203 0.0
C1055 C 0.34029 0.01512 0.24842 0.0
C1056 C 0.24529 0.98704 0.25071 0.0
C1057 C 0.19223 1.00447 0.2745 0.0
N1058 N 0.30933 0.00684 0.24924 0.0
N1059 N 0.22322 0.0127 0.27372 0.0
H1060 H 0.10735 1.005 0.98898 0.0
H1061 H 0.92112 1.00246 0.04454 0.0
H1062 H 0.073 0.96237 0.03884 0.0
H1063 H 0.95441 0.04437 0.99333 0.0
H1064 H 0.9765 0.98759 0.04257 0.0
H1065 H 0.05185 0.01987 0.99073 0.0
C1066 C 0.08828 0.99881 1.00043 0.0
C1067 C 0.09503 0.98236 1.01379 0.0
C1068 C 0.9717 1.00004 0.03174 0.0
C1069 C 0.03105 0.99926 0.01566 0.0
C1070 C 0.9399 0.00849 0.03273 0.0
C1071 C 0.93286 0.02475 0.01906 0.0
C1072 C 0.99683 0.00783 0.01698 0.0
C1073 C 0.95866 0.03204 1.00441 0.0
C1074 C 0.05645 0.00726 1.0013 0.0
C1075 C 0.06895 0.97486 0.028 0.0
N1076 N 0.98943 0.02354 1.00377 0.0
N1077 N 0.0382 0.98337 0.02857 0.0
H1078 H 0.31881 0.21111 1.00015 0.0
H1079 H 0.2071 0.30129 0.03494 0.0
H1080 H 0.3573 0.25934 0.03934 0.0
H1081 H 0.17451 0.25837 0.98464 0.0
H1082 H 0.26184 0.28578 0.03732 0.0
H1083 H 0.2657 0.22794 0.99447 0.0
C1084 C 0.31639 0.22528 1.00738 0.0
C1085 C 0.34276 0.23367 0.02047 0.0
C1086 C 0.24272 0.2798 0.0257 0.0
C1087 C 0.28146 0.25296 1.01431 0.0
C1088 C 0.21134 0.28871 0.02424 0.0
C1089 C 0.18577 0.28121 1.00957 0.0
C1090 C 0.24873 0.26314 1.01252 0.0
C1091 C 0.19301 0.26462 0.99648 0.0
C1092 C 0.28586 0.23486 1.00422 0.0
C1093 C 0.33763 0.25207 0.02956 0.0
N1094 N 0.22369 0.25614 0.99833 0.0
N1095 N 0.3076 0.261 0.02644 0.0
H1096 H 0.96684 0.712 0.78479 0.0
H1097 H 0.08119 0.79887 0.74054 0.0
H1098 H 0.9322 0.75549 0.73626 0.0
H1099 H 0.11725 0.7546 0.78736 0.0
H1100 H 0.02635 0.78324 0.73902 0.0
H1101 H 0.02206 0.72729 0.78596 0.0
C1102 C 0.9708 0.72469 0.77428 0.0
C1103 C 0.94463 0.73242 0.7604 0.0
C1104 C 0.04627 0.77692 0.74961 0.0
C1105 C 1.00793 0.75015 0.76187 0.0
C1106 C 0.0776 0.78591 0.7506 0.0
C1107 C 0.10399 0.77811 0.76416 0.0
C1108 C 0.04111 0.75997 0.76232 0.0
C1109 C 0.09787 0.76106 0.77646 0.0
C1110 C 1.00236 0.73348 0.77506 0.0
C1111 C 0.9513 0.7491 0.74747 0.0
N1112 N 0.06708 0.75261 0.7753 0.0
N1113 N 0.98222 0.75738 0.74851 0.0
H1114 H 0.68283 1.00079 0.80147 0.0
H1115 H 0.85575 0.01226 0.72856 0.0
H1116 H 0.70893 0.96697 0.73955 0.0
H1117 H 0.82999 0.04576 0.79084 0.0
H1118 H 0.80238 0.99537 0.73249 0.0
H1119 H 0.73641 0.01751 0.79773 0.0
C1120 C 0.69966 0.99693 0.78699 0.0
C1121 C 0.69116 0.98241 0.77078 0.0
C1122 C 0.80841 0.00641 0.74532 0.0
C1123 C 0.75299 1.00145 0.76655 0.0
C1124 C 0.83906 0.01602 0.74317 0.0
C1125 C 0.84757 0.03052 0.7594 0.0
C1126 C 0.78595 0.01128 0.76384 0.0
C1127 C 0.82445 0.03489 0.77773 0.0
C1128 C 0.73042 0.00643 0.78495 0.0
C1129 C 0.71445 0.97787 0.75263 0.0
N1130 N 0.79478 0.02533 0.77944 0.0
N1131 N 0.74422 0.98736 0.751 0.0
H1132 H 0.71003 0.80039 0.03651 0.0
H1133 H 0.83055 0.71801 0.987 0.0
H1134 H 0.68451 0.76443 0.97641 0.0
H1135 H 0.85956 0.75762 0.04236 0.0
H1136 H 0.77609 0.73402 0.98381 0.0
H1137 H 0.76414 0.78423 0.03971 0.0
C1138 C 0.71575 0.78918 0.02389 0.0
C1139 C 0.69247 0.78388 1.00609 0.0
C1140 C 0.7944 0.73923 0.99663 0.0
C1141 C 0.75459 0.76507 1.00988 0.0
C1142 C 0.82547 0.73002 0.99855 0.0
C1143 C 0.84979 0.73644 0.01498 0.0
C1144 C 0.78742 0.75495 1.01133 0.0
C1145 C 0.84186 0.75228 0.02924 0.0
C1146 C 0.7467 0.77987 0.02581 0.0
C1147 C 0.70131 0.76893 0.99058 0.0
N1148 N 0.81139 0.76094 0.02712 0.0
N1149 N 0.73162 0.76009 0.99283 0.0
H1150 H 0.33176 0.54878 0.78062 0.0
H1151 H 0.22014 0.45739 0.74984 0.0
H1152 H 0.36876 0.50129 0.73933 0.0
H1153 H 0.18231 0.50649 0.78752 0.0
H1154 H 0.274 0.47362 0.74434 0.0
H1155 H 0.27647 0.53381 0.78226 0.0
C1156 C 0.32831 0.53528 0.77173 0.0
C1157 C 0.3552 0.52634 0.75981 0.0
C1158 C 0.25384 0.48088 0.7537 0.0
C1159 C 0.29166 0.50892 0.76188 0.0
C1160 C 0.22292 0.47166 0.75671 0.0
C1161 C 0.19658 0.48051 0.76934 0.0
C1162 C 0.25854 0.49909 0.7634 0.0
C1163 C 0.20201 0.49896 0.77805 0.0
C1164 C 0.29665 0.52667 0.77278 0.0
C1165 C 0.34907 0.50865 0.749 0.0
N1166 N 0.23235 0.50757 0.77503 0.0
N1167 N 0.31801 0.50052 0.75033 0.0
H1168 H 0.92332 0.50387 0.52423 0.0
H1169 H 0.12294 0.51713 0.50989 0.0
H1170 H 0.97173 0.55852 0.51905 0.0
H1171 H 0.07393 0.46279 0.51693 0.0
H1172 H 0.06801 0.53262 0.51324 0.0
H1173 H 0.9784 0.48868 0.5217 0.0
C1174 C 0.94549 0.51272 0.52267 0.0
C1175 C 0.94269 0.53257 0.52192 0.0
C1176 C 0.06931 0.5173 0.51412 0.0
C1177 C 1.00616 0.51515 0.51877 0.0
C1178 C 0.10069 0.50843 0.51212 0.0
C1179 C 0.10324 0.48858 0.5131 0.0
C1180 C 0.04011 0.50628 0.51706 0.0
C1181 C 0.07345 0.4781 0.51636 0.0
C1182 C 0.97701 0.504 0.52112 0.0
C1183 C 0.97246 0.54321 0.51944 0.0
N1184 N 0.04321 0.48706 0.51814 0.0
N1185 N 1.0029 0.53438 0.51799 0.0
H1186 H 0.33001 0.71538 0.49208 0.0
H1187 H 0.21869 0.80382 0.53542 0.0
H1188 H 0.36872 0.76076 0.53621 0.0
H1189 H 0.18093 0.75872 0.49042 0.0
H1190 H 0.27381 0.78841 0.53585 0.0
H1191 H 0.27523 0.73106 0.49142 0.0
C1192 C 0.32702 0.72859 0.50173 0.0
C1193 C 0.35415 0.73669 0.5143 0.0
C1194 C 0.25345 0.78189 0.52588 0.0
C1195 C 0.29128 0.75488 0.51343 0.0
C1196 C 0.22194 0.79074 0.52553 0.0
C1197 C 0.19495 0.78261 0.51285 0.0
C1198 C 0.25814 0.76475 0.51345 0.0
C1199 C 0.20072 0.76543 0.5007 0.0
C1200 C 0.2957 0.73761 0.50124 0.0
C1201 C 0.34875 0.75405 0.5261 0.0
N1202 N 0.23162 0.75712 0.50129 0.0
N1203 N 0.31796 0.76253 0.52542 0.0
H1204 H 0.81953 0.55611 0.25607 0.0
H1205 H 0.71854 0.4598 0.28097 0.0
H1206 H 0.86708 0.50349 0.27633 0.0
H1207 H 0.67042 0.51197 0.25955 0.0
H1208 H 0.77297 0.47575 0.2798 0.0
H1209 H 0.76468 0.5405 0.25807 0.0
C1210 C 0.81852 0.54132 0.2611 0.0
C1211 C 0.84816 0.53114 0.26605 0.0
C1212 C 0.75052 0.48374 0.27535 0.0
C1213 C 0.78519 0.51307 0.26812 0.0
C1214 C 0.71934 0.47458 0.27587 0.0
C1215 C 0.68966 0.48448 0.27021 0.0
C1216 C 0.75227 0.50299 0.26912 0.0
C1217 C 0.69246 0.50377 0.26424 0.0
C1218 C 0.78712 0.53237 0.2621 0.0
C1219 C 0.84509 0.51188 0.27207 0.0
N1220 N 0.72318 0.51237 0.2638 0.0
N1221 N 0.81423 0.5035 0.27294 0.0
H1222 H 0.7026 0.28975 0.54447 0.0
H1223 H 0.82919 0.21185 0.49081 0.0
H1224 H 0.68034 0.25469 0.48291 0.0
H1225 H 0.85109 0.24526 0.55389 0.0
H1226 H 0.77479 0.22771 0.48753 0.0
H1227 H 0.7574 0.27408 0.548 0.0
C1228 C 0.70919 0.27881 0.53166 0.0
C1229 C 0.68663 0.27356 0.51338 0.0
C1230 C 0.7915 0.23159 0.5021 0.0
C1231 C 0.74939 0.25545 0.5174 0.0
C1232 C 0.82259 0.22245 0.50406 0.0
C1233 C 0.84492 0.22713 0.52272 0.0
C1234 C 0.78246 0.24557 0.51891 0.0
C1235 C 0.835 0.24129 0.53906 0.0
C1236 C 0.74046 0.2698 0.53375 0.0
C1237 C 0.69652 0.25908 0.4975 0.0
N1238 N 0.80454 0.24996 0.5368 0.0
N1239 N 0.72709 0.2506 0.49986 0.0
H1240 H 0.46697 0.20901 0.76116 0.0
H1241 H 0.57139 0.30605 0.76615 0.0
H1242 H 0.42041 0.26432 0.76159 0.0
H1243 H 0.61753 0.25065 0.7639 0.0
H1244 H 0.51602 0.29112 0.76439 0.0
H1245 H 0.52217 0.22406 0.7628 0.0
C1246 C 0.46823 0.22432 0.76182 0.0
C1247 C 0.43878 0.23538 0.76131 0.0
C1248 C 0.53826 0.28222 0.76425 0.0
C1249 C 0.50234 0.25278 0.76284 0.0
C1250 C 0.57001 0.29076 0.76508 0.0
C1251 C 0.5994 0.27963 0.76515 0.0
C1252 C 0.53571 0.26238 0.76348 0.0
C1253 C 0.59571 0.25983 0.76418 0.0
C1254 C 0.4999 0.23292 0.76257 0.0
C1255 C 0.44232 0.2552 0.76171 0.0
N1256 N 0.56451 0.25186 0.7634 0.0
N1257 N 0.47347 0.26325 0.76246 0.0
H1258 H 0.43009 1.00281 0.54343 0.0
H1259 H 0.60881 1.00308 0.47646 0.0
H1260 H 0.4565 0.04241 0.48747 0.0
H1261 H 0.58298 0.96445 0.53364 0.0
H1262 H 0.55308 0.01743 0.4799 0.0
H1263 H 0.48541 0.98812 0.53936 0.0
C1264 C 0.44734 0.00836 0.53014 0.0
C1265 C 0.43842 0.02392 0.51576 0.0
C1266 C 0.5596 1.00581 0.4917 0.0
C1267 C 0.50231 0.00721 0.51122 0.0
C1268 C 0.59158 0.99765 0.48985 0.0
C1269 C 0.60084 0.9825 0.50481 0.0
C1270 C 0.53653 0.99881 0.50865 0.0
C1271 C 0.57699 0.97592 0.52153 0.0
C1272 C 0.47911 1.00001 0.52794 0.0
C1273 C 0.46229 0.03062 0.49914 0.0
N1274 N 0.54603 0.98412 0.523 0.0
N1275 N 0.49308 0.02223 0.49733 0.0
H1276 H 0.60968 0.75681 0.2966 0.0
H1277 H 0.43282 0.75199 0.22768 0.0
H1278 H 0.58128 0.79535 0.24002 0.0
H1279 H 0.45856 0.71588 0.28746 0.0
H1280 H 0.48717 0.76777 0.23166 0.0
H1281 H 0.55504 0.74119 0.29289 0.0
C1282 C 0.59209 0.76194 0.28328 0.0
C1283 C 0.60027 0.77744 0.26856 0.0
C1284 C 0.48092 0.75641 0.24393 0.0
C1285 C 0.53726 0.75966 0.26437 0.0
C1286 C 0.44969 0.74742 0.24177 0.0
C1287 C 0.44082 0.73252 0.25728 0.0
C1288 C 0.50367 0.75049 0.26171 0.0
C1289 C 0.46428 0.7271 0.27489 0.0
C1290 C 0.56074 0.75307 0.28128 0.0
C1291 C 0.57605 0.78362 0.25192 0.0
N1292 N 0.49455 0.73606 0.27661 0.0
N1293 N 0.54573 0.77469 0.25025 0.0
H1294 H 0.61473 0.50941 0.98776 0.0
H1295 H 0.43323 0.51619 0.05033 0.0
H1296 H 0.5783 0.46937 0.04022 0.0
H1297 H 0.46487 0.55269 0.99235 0.0
H1298 H 0.48703 0.49967 0.04786 0.0
H1299 H 0.56125 0.52652 0.99063 0.0
C1300 C 0.59562 0.50428 1.00001 0.0
C1301 C 0.60107 0.48786 1.01371 0.0
C1302 C 0.4822 0.51129 0.03566 0.0
C1303 C 0.53957 0.50732 0.01695 0.0
C1304 C 0.45129 0.52071 0.03696 0.0
C1305 C 0.4442 0.53592 0.02149 0.0
C1306 C 0.50645 0.5171 0.01882 0.0
C1307 C 0.46915 0.54124 1.00485 0.0
C1308 C 0.56497 0.51399 1.00152 0.0
C1309 C 0.57512 0.48177 0.02905 0.0
N1310 N 0.49909 0.53186 1.00397 0.0
N1311 N 0.54557 0.49149 0.03026 0.0
H1312 H 0.18279 0.36513 0.4584 0.0
H1313 H 0.1854 0.39801 0.32103 0.0
H1314 H 0.16888 0.42323 0.43629 0.0
H1315 H 0.17676 0.3395 0.34278 0.0
H1316 H 0.17995 0.4076 0.36316 0.0
H1317 H 0.1809 0.35539 0.4162 0.0
C1318 C 0.17902 0.37582 0.44473 0.0
C1319 C 0.17609 0.39504 0.45099 0.0
C1320 C 0.17902 0.39266 0.35867 0.0
C1321 C 0.17435 0.38401 0.40253 0.0
C1322 C 0.18218 0.38718 0.33461 0.0
C1323 C 0.18164 0.36792 0.32828 0.0
C1324 C 0.17565 0.37878 0.37663 0.0
C1325 C 0.17735 0.35452 0.34673 0.0
C1326 C 0.17797 0.37026 0.42061 0.0
C1327 C 0.17127 0.40825 0.4324 0.0
N1328 N 0.17478 0.36019 0.37001 0.0
N1329 N 0.17086 0.40252 0.40907 0.0
H1330 H 0.1212 0.86802 0.32256 0.0
H1331 H 0.10045 0.90337 0.45859 0.0
H1332 H 0.10575 0.92654 0.34247 0.0
H1333 H 0.12932 0.84634 0.43929 0.0
H1334 H 0.10333 0.91226 0.41618 0.0
H1335 H 0.12518 0.85983 0.36521 0.0
C1336 C 0.11878 0.87916 0.33586 0.0
C1337 C 0.113 0.89799 0.32885 0.0
C1338 C 0.10927 0.89783 0.42125 0.0
C1339 C 0.1173 0.88869 0.37777 0.0
C1340 C 0.10767 0.89275 0.4455 0.0
C1341 C 0.11451 0.87405 0.4526 0.0
C1342 C 0.11756 0.8841 0.40387 0.0
C1343 C 0.12372 0.86092 0.43473 0.0
C1344 C 0.12109 0.87448 0.36022 0.0
C1345 C 0.1102 0.91182 0.34695 0.0
N1346 N 0.12474 0.86615 0.41125 0.0
N1347 N 0.11215 0.90689 0.3705 0.0
H1348 H 0.18406 0.89853 0.82273 0.0
H1349 H 0.18613 0.86174 0.95872 0.0
H1350 H 0.18153 0.8393 0.84198 0.0
H1351 H 0.16925 0.92017 0.9392 0.0
H1352 H 0.18535 0.8532 0.91608 0.0
H1353 H 0.17973 0.90682 0.86534 0.0
C1354 C 0.18248 0.88727 0.83587 0.0
C1355 C 0.18322 0.86819 0.82869 0.0
C1356 C 0.1816 0.86787 0.92115 0.0
C1357 C 0.17846 0.87757 0.87759 0.0
C1358 C 0.18203 0.87275 0.94552 0.0
C1359 C 0.17781 0.89171 0.95263 0.0
C1360 C 0.17724 0.88206 0.90371 0.0
C1361 C 0.17262 0.90537 0.93464 0.0
C1362 C 0.17995 0.892 0.86022 0.0
C1363 C 0.18104 0.8542 0.84661 0.0
N1364 N 0.17271 0.9003 0.91107 0.0
N1365 N 0.17896 0.85917 0.87017 0.0
H1366 H 0.06277 0.36951 0.82778 0.0
H1367 H 0.1754 0.36381 0.94584 0.0
H1368 H 0.15641 0.40039 0.83334 0.0
H1369 H 0.0671 0.35786 0.94622 0.0
H1370 H 0.17269 0.37325 0.90339 0.0
H1371 H 0.06837 0.3601 0.86974 0.0
C1372 C 0.08479 0.37411 0.83769 0.0
C1373 C 0.10913 0.38581 0.82697 0.0
C1374 C 0.14958 0.36997 0.91289 0.0
C1375 C 0.11556 0.37509 0.87519 0.0
C1376 C 0.15107 0.36462 0.93708 0.0
C1377 C 0.12143 0.36008 0.94965 0.0
C1378 C 0.11832 0.37037 0.90109 0.0
C1379 C 0.0906 0.36132 0.93735 0.0
C1380 C 0.08778 0.36886 0.86174 0.0
C1381 C 0.137 0.39139 0.84088 0.0
N1382 N 0.08991 0.36615 0.91375 0.0
N1383 N 0.13951 0.38596 0.86429 0.0
H1384 H 0.82135 0.61823 0.70651 0.0
H1385 H 0.9301 0.61763 0.5865 0.0
H1386 H 0.90446 0.65698 0.69702 0.0
H1387 H 0.82316 0.60641 0.58713 0.0
H1388 H 0.92645 0.62744 0.62885 0.0
H1389 H 0.82759 0.60822 0.66458 0.0
C1390 C 0.84123 0.62442 0.69573 0.0
C1391 C 0.86239 0.63848 0.70525 0.0
C1392 C 0.90384 0.62291 0.61958 0.0
C1393 C 0.86966 0.62706 0.65736 0.0
C1394 C 0.90588 0.61734 0.59548 0.0
C1395 C 0.87687 0.6113 0.58323 0.0
C1396 C 0.87277 0.62193 0.63163 0.0
C1397 C 0.84612 0.61112 0.59578 0.0
C1398 C 0.84456 0.61883 0.67177 0.0
C1399 C 0.88754 0.64615 0.69034 0.0
N1400 N 0.84496 0.61615 0.61933 0.0
N1401 N 0.89058 0.64029 0.66714 0.0
H1402 H 0.84459 0.1106 0.69723 0.0
H1403 H 0.95377 0.13997 0.5824 0.0
H1404 H 0.95276 0.11721 0.69832 0.0
H1405 H 0.84642 0.14946 0.58665 0.0
H1406 H 0.953 0.12819 0.62359 0.0
H1407 H 0.84397 0.12221 0.65576 0.0
C1408 C 0.86817 0.11461 0.68884 0.0
C1409 C 0.89877 0.11293 0.70133 0.0
C1410 C 0.92959 0.1328 0.6155 0.0
C1411 C 0.89826 0.12591 0.65376 0.0
C1412 C 0.92995 0.13941 0.59189 0.0
C1413 C 0.9001 0.14577 0.581 0.0
C1414 C 0.89913 0.13235 0.62836 0.0
C1415 C 0.87004 0.14475 0.59431 0.0
C1416 C 0.86778 0.12121 0.66516 0.0
C1417 C 0.92855 0.11831 0.68948 0.0
N1418 N 0.87031 0.13818 0.61729 0.0
N1419 N 0.92755 0.12442 0.66635 0.0
H1420 H 0.86265 0.17398 0.18813 0.0
H1421 H 0.86407 0.08813 0.09403 0.0
H1422 H 0.85198 0.11531 0.20872 0.0
H1423 H 0.85102 0.14664 0.07339 0.0
H1424 H 0.86743 0.09797 0.13599 0.0
H1425 H 0.86607 0.16423 0.14612 0.0
C1426 C 0.86127 0.15901 0.18388 0.0
C1427 C 0.85686 0.14544 0.20208 0.0
C1428 C 0.86399 0.10867 0.12229 0.0
C1429 C 0.86079 0.1342 0.15381 0.0
C1430 C 0.86219 0.10309 0.09826 0.0
C1431 C 0.85708 0.11658 0.08006 0.0
C1432 C 0.8609 0.12791 0.12829 0.0
C1433 C 0.85484 0.13573 0.08676 0.0
C1434 C 0.86312 0.15348 0.15983 0.0
C1435 C 0.85525 0.12627 0.19535 0.0
N1436 N 0.8567 0.14082 0.11033 0.0
N1437 N 0.85716 0.12123 0.17177 0.0
H1438 H 0.93542 0.61478 0.07226 0.0
H1439 H 0.93505 0.65087 0.20866 0.0
H1440 H 0.92293 0.67347 0.09243 0.0
H1441 H 0.9276 0.59187 0.18867 0.0
H1442 H 0.93179 0.65948 0.16614 0.0
H1443 H 0.9336 0.60605 0.11479 0.0
C1444 C 0.93209 0.62582 0.08558 0.0
C1445 C 0.92939 0.64489 0.07869 0.0
C1446 C 0.93069 0.64465 0.17108 0.0
C1447 C 0.92761 0.63502 0.12748 0.0
C1448 C 0.93259 0.63973 0.19538 0.0
C1449 C 0.93165 0.62061 0.20232 0.0
C1450 C 0.92815 0.63036 0.15354 0.0
C1451 C 0.92842 0.6068 0.18423 0.0
C1452 C 0.93105 0.62083 0.10988 0.0
C1453 C 0.92512 0.65858 0.09683 0.0
N1454 N 0.92699 0.61193 0.16073 0.0
N1455 N 0.92459 0.6534 0.12033 0.0
H1456 H 0.67099 0.36408 0.95577 0.0
H1457 H 0.68934 0.39997 0.82004 0.0
H1458 H 0.67574 0.42322 0.93621 0.0
H1459 H 0.66588 0.34215 0.83914 0.0
H1460 H 0.68467 0.40885 0.86245 0.0
H1461 H 0.66962 0.35573 0.9131 0.0
C1462 C 0.6716 0.37531 0.94254 0.0
C1463 C 0.67355 0.39438 0.94966 0.0
C1464 C 0.6803 0.39425 0.85731 0.0
C1465 C 0.6722 0.38491 0.9007 0.0
C1466 C 0.68294 0.38917 0.83308 0.0
C1467 C 0.67811 0.37027 0.82594 0.0
C1468 C 0.67309 0.38031 0.87461 0.0
C1469 C 0.66988 0.3569 0.84372 0.0
C1470 C 0.67077 0.37054 0.91816 0.0
C1471 C 0.67424 0.40832 0.93164 0.0
N1472 N 0.66789 0.36214 0.86718 0.0
N1473 N 0.67377 0.40331 0.90805 0.0
H1474 H 0.69173 0.86276 0.94275 0.0
H1475 H 0.58064 0.89614 0.83066 0.0
H1476 H 0.58397 0.87097 0.94582 0.0
H1477 H 0.68903 0.90143 0.83242 0.0
H1478 H 0.58177 0.88419 0.87178 0.0
H1479 H 0.69166 0.8749 0.90156 0.0
C1480 C 0.6681 0.86724 0.93486 0.0
C1481 C 0.63781 0.86583 0.94782 0.0
C1482 C 0.60532 0.88793 0.86317 0.0
C1483 C 0.63752 0.87947 0.90055 0.0
C1484 C 0.60474 0.89465 0.8396 0.0
C1485 C 0.63481 0.89984 0.82803 0.0
C1486 C 0.63622 0.88622 0.87529 0.0
C1487 C 0.66523 0.89764 0.84063 0.0
C1488 C 0.66808 0.87414 0.91133 0.0
C1489 C 0.60795 0.87183 0.9366 0.0
N1490 N 0.66516 0.89099 0.86356 0.0
N1491 N 0.60854 0.87825 0.9136 0.0
H1492 H 0.72292 0.90832 0.44087 0.0
H1493 H 0.63756 0.85461 0.332 0.0
H1494 H 0.61574 0.8978 0.44066 0.0
H1495 H 0.72078 0.8932 0.32208 0.0
H1496 H 0.63157 0.86597 0.37351 0.0
H1497 H 0.72578 0.89777 0.39909 0.0
C1498 C 0.70002 0.90359 0.43213 0.0
C1499 C 0.669 0.90393 0.4443 0.0
C1500 C 0.65091 0.87203 0.36213 0.0
C1501 C 0.67224 0.89181 0.39647 0.0
C1502 C 0.65437 0.86558 0.3385 0.0
C1503 C 0.67966 0.87303 0.32357 0.0
C1504 C 0.67348 0.88563 0.37104 0.0
C1505 C 0.7008 0.88718 0.3329 0.0
C1506 C 0.70167 0.89774 0.40823 0.0
C1507 C 0.64013 0.89779 0.43194 0.0
N1508 N 0.69754 0.89284 0.35615 0.0
N1509 N 0.64246 0.89184 0.40871 0.0
H1510 H 0.6033 0.39655 0.4591 0.0
H1511 H 0.61584 0.36249 0.32219 0.0
H1512 H 0.62467 0.33884 0.43813 0.0
H1513 H 0.61203 0.42133 0.34346 0.0
H1514 H 0.61907 0.35351 0.36458 0.0
H1515 H 0.60678 0.406 0.41689 0.0
C1516 C 0.60904 0.38589 0.44569 0.0
C1517 C 0.61357 0.36686 0.45224 0.0
C1518 C 0.61772 0.3684 0.35995 0.0
C1519 C 0.6172 0.37754 0.40379 0.0
C1520 C 0.61582 0.37353 0.33573 0.0
C1521 C 0.61356 0.39269 0.32918 0.0
C1522 C 0.61708 0.38251 0.37782 0.0
C1523 C 0.61371 0.40637 0.34759 0.0
C1524 C 0.61097 0.39129 0.42156 0.0
C1525 C 0.62092 0.35368 0.43399 0.0
N1526 N 0.61521 0.40101 0.371 0.0
N1527 N 0.62223 0.35924 0.41064 0.0
H1528 H 0.33176 0.6453 0.19609 0.0
H1529 H 0.44411 0.61602 0.08262 0.0
H1530 H 0.43909 0.65512 0.19302 0.0
H1531 H 0.33588 0.62204 0.08013 0.0
H1532 H 0.44349 0.62769 0.12409 0.0
H1533 H 0.33359 0.6333 0.15494 0.0
C1534 C 0.35579 0.64476 0.18687 0.0
C1535 C 0.38532 0.65128 0.19806 0.0
C1536 C 0.41993 0.62655 0.11439 0.0
C1537 C 0.38752 0.63764 0.15078 0.0
C1538 C 0.42025 0.61992 0.0907 0.0
C1539 C 0.39001 0.61807 0.07781 0.0
C1540 C 0.3891 0.63111 0.1254 0.0
C1541 C 0.35985 0.62329 0.08928 0.0
C1542 C 0.35677 0.63803 0.16329 0.0
C1543 C 0.41569 0.65029 0.18511 0.0
N1544 N 0.36015 0.62944 0.11243 0.0
N1545 N 0.41601 0.64361 0.16216 0.0
H1546 H 0.35796 0.11983 0.19887 0.0
H1547 H 0.46391 0.11758 0.07706 0.0
H1548 H 0.46308 0.10429 0.19524 0.0
H1549 H 0.37897 0.15516 0.0862 0.0
H1550 H 0.45813 0.10776 0.11888 0.0
H1551 H 0.36023 0.12889 0.15627 0.0
C1552 C 0.38151 0.1184 0.18919 0.0
C1553 C 0.4104 0.11135 0.20069 0.0
C1554 C 0.44063 0.11807 0.11169 0.0
C1555 C 0.4129 0.12126 0.15199 0.0
C1556 C 0.44371 0.12358 0.08773 0.0
C1557 C 0.42196 0.13728 0.07808 0.0
C1558 C 0.41532 0.1261 0.12611 0.0
C1559 C 0.39638 0.14461 0.09292 0.0
C1560 C 0.38275 0.12355 0.16492 0.0
C1561 C 0.44022 0.10975 0.18722 0.0
N1562 N 0.39374 0.13893 0.11622 0.0
N1563 N 0.44061 0.11451 0.16359 0.0
H1564 H 0.36946 0.17253 0.6877 0.0
H1565 H 0.36913 0.08679 0.59349 0.0
H1566 H 0.35541 0.11405 0.7082 0.0
H1567 H 0.35691 0.14539 0.57301 0.0
H1568 H 0.37267 0.09654 0.63549 0.0
H1569 H 0.37344 0.1627 0.64576 0.0
C1570 C 0.3675 0.15758 0.68345 0.0
C1571 C 0.3619 0.1441 0.7016 0.0
C1572 C 0.36939 0.10727 0.62181 0.0
C1573 C 0.36646 0.13278 0.65339 0.0
C1574 C 0.36749 0.10174 0.59776 0.0
C1575 C 0.36253 0.11529 0.5796 0.0
C1576 C 0.36659 0.12652 0.62786 0.0
C1577 C 0.36059 0.13444 0.58636 0.0
C1578 C 0.36965 0.15201 0.65943 0.0
C1579 C 0.35959 0.12495 0.69486 0.0
N1580 N 0.36256 0.13948 0.60993 0.0
N1581 N 0.36181 0.11987 0.67131 0.0
H1582 H 0.42622 0.58868 0.68485 0.0
H1583 H 0.43174 0.67438 0.59091 0.0
H1584 H 0.44463 0.64679 0.70544 0.0
H1585 H 0.43533 0.61544 0.57007 0.0
H1586 H 0.42964 0.66478 0.63299 0.0
H1587 H 0.42251 0.59858 0.64298 0.0
C1588 C 0.42924 0.60356 0.68063 0.0
C1589 C 0.43591 0.61691 0.69878 0.0
C1590 C 0.43078 0.65394 0.61922 0.0
C1591 C 0.43171 0.62834 0.65065 0.0
C1592 C 0.43188 0.6594 0.59513 0.0
C1593 C 0.43384 0.64569 0.57684 0.0
C1594 C 0.43141 0.63462 0.62516 0.0
C1595 C 0.43396 0.62651 0.58352 0.0
C1596 C 0.42723 0.60919 0.65665 0.0
C1597 C 0.43957 0.63599 0.69209 0.0
N1598 N 0.43279 0.62155 0.60712 0.0
N1599 N 0.43748 0.64112 0.66858 0.0
H1600 H 0.34109 0.34089 0.227 0.0
H1601 H 0.47462 0.40313 0.29844 0.0
H1602 H 0.32156 0.35874 0.29972 0.0
H1603 H 0.46025 0.40786 0.22199 0.0
H1604 H 0.42415 0.38282 0.3007 0.0
H1605 H 0.39109 0.3612 0.22619 0.0
C1606 C 0.34757 0.34896 0.24288 0.0
C1607 C 0.3273 0.34812 0.2635 0.0
C1608 C 0.43206 0.3884 0.28349 0.0
C1609 C 0.38449 0.37132 0.26273 0.0
C1610 C 0.46082 0.39986 0.28218 0.0
C1611 C 0.4714 0.40723 0.26002 0.0
C1612 C 0.4144 0.38392 0.26238 0.0
C1613 C 0.45268 0.40266 0.23945 0.0
C1614 C 0.37591 0.36065 0.24235 0.0
C1615 C 0.33654 0.3591 0.28348 0.0
N1616 N 0.42529 0.39117 0.24109 0.0
N1617 N 0.36467 0.37017 0.2827 0.0
H1618 H 0.83915 0.84277 0.23035 0.0
H1619 H 0.96905 0.90649 0.30279 0.0
H1620 H 0.81713 0.86031 0.30283 0.0
H1621 H 0.95253 0.91318 0.22683 0.0
H1622 H 0.91995 0.88506 0.30464 0.0
H1623 H 0.88822 0.86385 0.23013 0.0
C1624 C 0.84493 0.8509 0.24632 0.0
C1625 C 0.8242 0.84979 0.26668 0.0
C1626 C 0.92711 0.89131 0.28763 0.0
C1627 C 0.88027 0.87384 0.26658 0.0
C1628 C 0.95504 0.90342 0.28657 0.0
C1629 C 0.96456 0.91166 0.26468 0.0
C1630 C 0.90931 0.88705 0.26651 0.0
C1631 C 0.94571 0.90729 0.24409 0.0
C1632 C 0.87271 0.86303 0.24612 0.0
C1633 C 0.83251 0.86087 0.28679 0.0
N1634 N 0.9192 0.89515 0.24546 0.0
N1635 N 0.86011 0.87237 0.28633 0.0
H1636 H 0.29327 0.88291 1.00992 0.0
H1637 H 0.495 0.88335 1.0133 0.0
H1638 H 0.35314 0.93367 0.01722 0.0
H1639 H 0.43541 0.83219 1.011 0.0
H1640 H 0.44339 0.90203 1.01189 0.0
H1641 H 0.34495 0.86425 1.00736 0.0
C1642 C 0.31724 0.8902 1.01072 0.0
C1643 C 0.31877 0.90995 1.01383 0.0
C1644 C 0.44157 0.88672 1.01161 0.0
C1645 C 0.37822 0.88855 1.01121 0.0
C1646 C 0.47112 0.876 1.01224 0.0
C1647 C 0.46967 0.8561 1.01225 0.0
C1648 C 0.41018 0.87754 1.01095 0.0
C1649 C 0.43779 0.84746 1.01131 0.0
C1650 C 0.3468 0.87948 1.00943 0.0
C1651 C 0.3507 0.91849 0.01513 0.0
N1652 N 0.40934 0.85822 1.01072 0.0
N1653 N 0.37911 0.90775 1.01385 0.0
H1654 H 0.94207 0.33872 0.05552 0.0
H1655 H 0.81039 0.40254 0.9842 0.0
H1656 H 0.96362 0.35903 0.98419 0.0
H1657 H 0.82059 0.40451 0.06118 0.0
H1658 H 0.86063 0.38206 0.98211 0.0
H1659 H 0.89084 0.35809 0.05616 0.0
C1660 C 0.93576 0.3471 0.03989 0.0
C1661 C 0.95703 0.34729 0.01975 0.0
C1662 C 0.85181 0.38704 0.99942 0.0
C1663 C 0.89852 0.36942 0.02034 0.0
C1664 C 0.82319 0.3986 1.00061 0.0
C1665 C 0.81158 0.40528 0.02287 0.0
C1666 C 0.86832 0.38178 0.0207 0.0
C1667 C 0.82902 0.39985 0.04366 0.0
C1668 C 0.90672 0.35825 0.04033 0.0
C1669 C 0.94793 0.35862 1.00008 0.0
N1670 N 0.85635 0.38831 0.0421 0.0
N1671 N 0.91921 0.36918 1.00079 0.0
H1672 H 0.70485 0.66689 0.79885 0.0
H1673 H 0.57372 0.60651 0.72321 0.0
H1674 H 0.72538 0.65302 0.72488 0.0
H1675 H 0.5923 0.59619 0.79828 0.0
H1676 H 0.62271 0.62805 0.72236 0.0
H1677 H 0.65597 0.64571 0.79795 0.0
C1678 C 0.69876 0.65956 0.78233 0.0
C1679 C 0.71902 0.66172 0.76187 0.0
C1680 C 0.61605 0.62096 0.73894 0.0
C1681 C 0.66321 0.63754 0.76071 0.0
C1682 C 0.58819 0.60878 0.73944 0.0
C1683 C 0.57926 0.59951 0.76079 0.0
C1684 C 0.63436 0.62423 0.76011 0.0
C1685 C 0.59867 0.60288 0.7814 0.0
C1686 C 0.6711 0.64737 0.78189 0.0
C1687 C 0.71035 0.65164 0.74101 0.0
N1688 N 0.62509 0.61511 0.78062 0.0
N1689 N 0.68288 0.64005 0.74088 0.0
H1690 H 0.10245 0.08081 0.76603 0.0
H1691 H 0.1798 0.18546 0.75585 0.0
H1692 H 0.04233 0.13169 0.76151 0.0
H1693 H 0.24048 0.1351 0.76411 0.0
H1694 H 0.12927 0.16573 0.75573 0.0
H1695 H 0.15338 0.1002 0.76328 0.0
C1696 C 0.09988 0.09603 0.76448 0.0
C1697 C 0.06788 0.10456 0.76406 0.0
C1698 C 0.15365 0.15898 0.75749 0.0
C1699 C 0.12625 0.12688 0.76071 0.0
C1700 C 0.18257 0.17027 0.75768 0.0
C1701 C 0.21458 0.16201 0.76013 0.0
C1702 C 0.15662 0.13922 0.75981 0.0
C1703 C 0.21648 0.14215 0.76196 0.0
C1704 C 0.12902 0.1071 0.7628 0.0
C1705 C 0.06627 0.12438 0.76163 0.0
N1706 N 0.18793 0.13147 0.76187 0.0
N1707 N 0.09497 0.13483 0.76014 0.0
H1708 H 0.53649 0.13069 0.02481 0.0
H1709 H 0.73812 0.12706 0.01952 0.0
H1710 H 0.59936 0.18059 0.0222 0.0
H1711 H 0.67488 0.07728 0.02124 0.0
H1712 H 0.68779 0.14689 0.02107 0.0
H1713 H 0.58688 0.11097 0.02332 0.0
C1714 C 0.56082 0.13755 0.0237 0.0
C1715 C 0.56352 0.15741 0.02356 0.0
C1716 C 0.68491 0.13162 0.02114 0.0
C1717 C 0.62165 0.13478 0.02223 0.0
C1718 C 0.71373 0.12025 0.02043 0.0
C1719 C 0.71088 0.10039 0.02026 0.0
C1720 C 0.65289 0.12313 0.02171 0.0
C1721 C 0.67839 0.09248 0.02104 0.0
C1722 C 0.58969 0.12624 0.02304 0.0
C1723 C 0.59596 0.16539 0.0226 0.0
N1724 N 0.65073 0.10386 0.02173 0.0
N1725 N 0.6237 0.15406 0.02197 0.0
H1726 H 0.24777 0.63611 1.01404 0.0
H1727 H 0.04604 0.63543 0.01855 0.0
H1728 H 0.18834 0.58486 1.01445 0.0
H1729 H 0.10581 0.68638 1.01335 0.0
H1730 H 0.09778 0.61673 0.01999 0.0
H1731 H 0.19612 0.65469 0.01663 0.0
C1732 C 0.22391 0.62872 0.01492 0.0
C1733 C 0.22253 0.60883 1.01403 0.0
C1734 C 0.09959 0.63201 0.01863 0.0
C1735 C 0.16298 0.63015 0.01669 0.0
C1736 C 0.07 0.64274 0.01798 0.0
C1737 C 0.07148 0.66256 0.01577 0.0
C1738 C 0.13099 0.64114 0.01712 0.0
C1739 C 0.10339 0.67115 1.01473 0.0
C1740 C 0.19434 0.63938 0.01623 0.0
C1741 C 0.19067 0.60013 0.0148 0.0
N1742 N 0.13182 0.6604 0.01538 0.0
N1743 N 0.1622 0.61084 0.01606 0.0
H1744 H 0.45588 0.91685 0.72006 0.0
H1745 H 0.32189 0.85839 0.79655 0.0
H1746 H 0.47407 0.90307 0.79431 0.0
H1747 H 0.33527 0.85067 0.72037 0.0
H1748 H 0.37203 0.87901 0.79714 0.0
H1749 H 0.40518 0.89707 0.72088 0.0
C1750 C 0.44894 0.90983 0.73662 0.0
C1751 C 0.46911 0.91159 0.75717 0.0
C1752 C 0.36398 0.87271 0.78036 0.0
C1753 C 0.41122 0.88897 0.75823 0.0
C1754 C 0.33543 0.86105 0.78001 0.0
C1755 C 0.3247 0.85273 0.75843 0.0
C1756 C 0.38129 0.87641 0.75885 0.0
C1757 C 0.34302 0.85658 0.73743 0.0
C1758 C 0.42021 0.89843 0.73702 0.0
C1759 C 0.45924 0.90195 0.77807 0.0
N1760 N 0.37024 0.86825 0.73812 0.0
N1761 N 0.43083 0.89111 0.77814 0.0
H1762 H 0.86021 0.3277 0.77141 0.0
H1763 H 0.93732 0.43273 0.77174 0.0
H1764 H 0.79947 0.37835 0.76712 0.0
H1765 H 0.99763 0.38183 0.7717 0.0
H1766 H 0.8864 0.41316 0.7709 0.0
H1767 H 0.91076 0.34739 0.77234 0.0
C1768 C 0.85743 0.34294 0.7706 0.0
C1769 C 0.82537 0.3513 0.76913 0.0
C1770 C 0.9108 0.40628 0.771 0.0
C1771 C 0.88336 0.37403 0.77038 0.0
C1772 C 0.93989 0.41746 0.77156 0.0
C1773 C 0.97189 0.40896 0.77171 0.0
C1774 C 0.91367 0.38643 0.77072 0.0
C1775 C 0.97362 0.38906 0.77122 0.0
C1776 C 0.88636 0.3542 0.77122 0.0
C1777 C 0.82347 0.3712 0.76855 0.0
N1778 N 0.94497 0.37851 0.77081 0.0
N1779 N 0.85202 0.38186 0.76913 0.0
H1780 H 0.29552 0.38577 0.51933 0.0
H1781 H 0.49055 0.37263 0.48655 0.0
H1782 H 0.35787 0.43113 0.4924 0.0
H1783 H 0.43186 0.3311 0.52528 0.0
H1784 H 0.44144 0.39342 0.48568 0.0
H1785 H 0.34423 0.36469 0.51842 0.0
C1786 C 0.31938 0.39128 0.51303 0.0
C1787 C 0.32253 0.41029 0.50588 0.0
C1788 C 0.43936 0.37974 0.49435 0.0
C1789 C 0.37869 0.38618 0.505 0.0
C1790 C 0.4675 0.36784 0.49496 0.0
C1791 C 0.46569 0.35 0.50615 0.0
C1792 C 0.40899 0.37379 0.50486 0.0
C1793 C 0.43466 0.34455 0.51626 0.0
C1794 C 0.34729 0.37925 0.51268 0.0
C1795 C 0.35434 0.41666 0.49829 0.0
N1796 N 0.40765 0.35639 0.51538 0.0
N1797 N 0.38116 0.40464 0.498 0.0
H1798 H 0.9594 0.85273 0.55318 0.0
H1799 H 0.82496 0.90887 0.47611 0.0
H1800 H 0.9775 0.86408 0.47827 0.0
H1801 H 0.84343 0.92191 0.55055 0.0
H1802 H 0.87558 0.88866 0.47585 0.0
H1803 H 0.91072 0.87408 0.5521 0.0
C1804 C 0.95286 0.8596 0.53645 0.0
C1805 C 0.97228 0.85662 0.51574 0.0
C1806 C 0.86862 0.89609 0.49215 0.0
C1807 C 0.91672 0.88095 0.51435 0.0
C1808 C 0.83982 0.90752 0.49232 0.0
C1809 C 0.83024 0.91709 0.51334 0.0
C1810 C 0.88733 0.89385 0.51334 0.0
C1811 C 0.85023 0.91494 0.53392 0.0
C1812 C 0.92534 0.87188 0.53589 0.0
C1813 C 0.96311 0.86609 0.49459 0.0
N1814 N 0.87761 0.90336 0.5335 0.0
N1815 N 0.93572 0.87773 0.49434 0.0
H1816 H 0.56881 0.10558 0.23456 0.0
H1817 H 0.70034 0.16899 0.30588 0.0
H1818 H 0.58285 0.1009 0.31104 0.0
H1819 H 0.71964 0.15178 0.23288 0.0
H1820 H 0.65164 0.14768 0.30702 0.0
H1821 H 0.61922 0.12587 0.23236 0.0
C1822 C 0.58263 0.10878 0.25083 0.0
C1823 C 0.57185 0.10152 0.27299 0.0
C1824 C 0.66652 0.14856 0.29075 0.0
C1825 C 0.62881 0.12486 0.2707 0.0
C1826 C 0.69409 0.16083 0.29002 0.0
C1827 C 0.71387 0.16217 0.26921 0.0
C1828 C 0.65824 0.13781 0.27036 0.0
C1829 C 0.70501 0.15106 0.24926 0.0
C1830 C 0.61134 0.12026 0.24956 0.0
C1831 C 0.59057 0.10603 0.29358 0.0
N1832 N 0.67761 0.13944 0.25023 0.0
N1833 N 0.61792 0.11757 0.29198 0.0
H1834 H 0.08114 0.60355 0.30894 0.0
H1835 H 0.22403 0.65021 0.22878 0.0
H1836 H 0.06997 0.60703 0.23212 0.0
H1837 H 0.20016 0.67066 0.29973 0.0
H1838 H 0.17316 0.63017 0.22991 0.0
H1839 H 0.13109 0.62387 0.30638 0.0
C1840 C 0.08947 0.60846 0.29151 0.0
C1841 C 0.0716 0.60358 0.27068 0.0
C1842 C 0.17905 0.63915 0.24513 0.0
C1843 C 0.12866 0.62673 0.26761 0.0
C1844 C 0.208 0.65047 0.24453 0.0
C1845 C 0.21608 0.66213 0.26414 0.0
C1846 C 0.15865 0.63915 0.26574 0.0
C1847 C 0.19457 0.66204 0.28415 0.0
C1848 C 0.11774 0.62016 0.29008 0.0
C1849 C 0.08311 0.61056 0.24855 0.0
N1850 N 0.16704 0.65058 0.28455 0.0
N1851 N 0.11115 0.62168 0.24753 0.0
H1852 H 0.70033 0.59134 0.47616 0.0
H1853 H 0.57073 0.65682 0.54725 0.0
H1854 H 0.72137 0.61067 0.54804 0.0
H1855 H 0.58315 0.65962 0.47047 0.0
H1856 H 0.61978 0.63548 0.54945 0.0
H1857 H 0.65025 0.61167 0.47533 0.0
C1858 C 0.69411 0.59968 0.49187 0.0
C1859 C 0.71492 0.59935 0.51221 0.0
C1860 C 0.61175 0.64085 0.53217 0.0
C1861 C 0.65781 0.62257 0.51141 0.0
C1862 C 0.58384 0.65293 0.53091 0.0
C1863 C 0.57319 0.66007 0.50869 0.0
C1864 C 0.62847 0.63554 0.51096 0.0
C1865 C 0.5909 0.65464 0.48798 0.0
C1866 C 0.66576 0.61138 0.49132 0.0
C1867 C 0.70601 0.61065 0.532 0.0
N1868 N 0.6175 0.64257 0.48958 0.0
N1869 N 0.67798 0.62176 0.53117 0.0
H1870 H 0.10292 0.17916 0.51747 0.0
H1871 H 0.18028 0.07439 0.52521 0.0
H1872 H 0.04293 0.12816 0.52068 0.0
H1873 H 0.24112 0.12484 0.51859 0.0
H1874 H 0.12979 0.09412 0.52573 0.0
H1875 H 0.15391 0.15978 0.51988 0.0
C1876 C 0.10039 0.16392 0.51867 0.0
C1877 C 0.0684 0.15535 0.51884 0.0
C1878 C 0.15419 0.1009 0.52425 0.0
C1879 C 0.12682 0.13303 0.52179 0.0
C1880 C 0.18308 0.0896 0.52384 0.0
C1881 C 0.21513 0.09789 0.52172 0.0
C1882 C 0.1572 0.12069 0.52248 0.0
C1883 C 0.21709 0.11777 0.52046 0.0
C1884 C 0.12955 0.15285 0.52016 0.0
C1885 C 0.06684 0.1355 0.52079 0.0
N1886 N 0.18855 0.12846 0.52075 0.0
N1887 N 0.09556 0.12506 0.52211 0.0
loop_
_geom_bond_atom_site_label_1
_geom_bond_atom_site_label_2
_geom_bond_distance
_geom_bond_site_symmetry_2
_ccdc_geom_bond_type
Cu0 N1 1.999 . S
Cu0 O6 1.974 . S
Cu0 N11 1.985 . S
Cu0 O20 1.959 . S
N1 Cu0 1.999 . S
N1 C3 1.263 . S
N1 C5 1.389 . S
N2 C3 1.358 . S
N2 C4 1.400 . S
C3 N1 1.263 . S
C3 N2 1.358 . S
C3 H9 0.930 . S
C4 N2 1.400 . S
C4 C5 1.351 . S
C4 H21 0.930 . S
C5 N1 1.389 . S
C5 C4 1.351 . S
C5 H10 0.930 . S
O6 Cu0 1.974 . S
O6 C16 1.282 . S
C7 O8 1.261 . S
C7 O20 1.251 . S
O8 C7 1.261 . S
H9 C3 0.930 . S
H10 C5 0.930 . S
N11 Cu0 1.985 . S
N11 C13 1.335 . S
N11 C14 1.390 . S
N12 C13 1.345 . S
N12 C15 1.336 . S
C13 N11 1.335 . S
C13 N12 1.345 . S
C13 H18 0.930 . S
C14 N11 1.390 . S
C14 C15 1.346 . S
C14 H19 0.930 . S
C15 N12 1.336 . S
C15 C14 1.346 . S
C15 H22 0.929 . S
C16 O6 1.282 . S
C16 O17 1.216 . S
O17 C16 1.216 . S
H18 C13 0.930 . S
H19 C14 0.930 . S
O20 Cu0 1.959 . S
O20 C7 1.251 . S
H21 C4 0.930 . S
H22 C15 0.929 . S
Cu23 N24 1.999 . S
Cu23 O29 1.974 . S
Cu23 N34 1.985 . S
Cu23 O43 1.959 . S
N24 Cu23 1.999 . S
N24 C26 1.263 . S
N24 C28 1.389 . S
N25 C26 1.358 1_655 S
N25 C27 1.400 . S
C26 N24 1.263 . S
C26 N25 1.358 1_455 S
C26 H32 0.930 . S
C27 N25 1.400 . S
C27 C28 1.351 1_655 S
C27 H44 0.930 . S
C28 N24 1.389 . S
C28 C27 1.351 1_455 S
C28 H33 0.930 . S
O29 Cu23 1.974 . S
O29 C39 1.282 . S
C30 O31 1.261 . S
C30 O43 1.251 . S
O31 C30 1.261 . S
H32 C26 0.930 . S
H33 C28 0.930 . S
N34 Cu23 1.985 . S
N34 C36 1.335 . S
N34 C37 1.390 . S
N35 C36 1.345 . S
N35 C38 1.336 . S
C36 N34 1.335 . S
C36 N35 1.345 . S
C36 H41 0.930 . S
C37 N34 1.390 . S
C37 C38 1.346 . S
C37 H42 0.930 . S
C38 N35 1.336 . S
C38 C37 1.346 . S
C38 H45 0.929 . S
C39 O29 1.282 . S
C39 O40 1.216 . S
O40 C39 1.216 . S
H41 C36 0.930 . S
H42 C37 0.930 . S
O43 Cu23 1.959 . S
O43 C30 1.251 . S
H44 C27 0.930 . S
H45 C38 0.929 . S
Cu46 N47 1.991 1_556 S
Cu46 O52 1.974 . S
Cu46 N57 1.985 . S
Cu46 O66 1.959 1_556 S
N47 Cu46 1.991 1_554 S
N47 C49 1.241 1_554 S
N47 C51 1.423 . S
N48 C49 1.358 . S
N48 C50 1.400 1_556 S
C49 N47 1.241 1_556 S
C49 N48 1.358 . S
C49 H55 0.930 . S
C50 N48 1.400 1_554 S
C50 C51 1.351 . S
C50 H67 0.930 . S
C51 N47 1.423 . S
C51 C50 1.351 . S
C51 H56 0.930 . S
O52 Cu46 1.974 . S
O52 C62 1.282 . S
C53 O54 1.261 . S
C53 O66 1.251 . S
O54 C53 1.261 . S
H55 C49 0.930 . S
H56 C51 0.930 . S
N57 Cu46 1.985 . S
N57 C59 1.335 1_556 S
N57 C60 1.390 . S
N58 C59 1.345 1_556 S
N58 C61 1.336 . S
C59 N57 1.335 1_554 S
C59 N58 1.345 1_554 S
C59 H64 0.930 . S
C60 N57 1.390 . S
C60 C61 1.346 . S
C60 H65 0.930 . S
C61 N58 1.336 . S
C61 C60 1.346 . S
C61 H68 0.929 . S
C62 O52 1.282 . S
C62 O63 1.216 . S
O63 C62 1.216 . S
H64 C59 0.930 . S
H65 C60 0.930 . S
O66 Cu46 1.959 1_554 S
O66 C53 1.251 . S
H67 C50 0.930 . S
H68 C61 0.929 . S
Cu69 N70 1.991 1_556 S
Cu69 O75 1.974 . S
Cu69 N80 1.985 . S
Cu69 O89 1.959 1_556 S
N70 Cu69 1.991 1_554 S
N70 C72 1.241 1_554 S
N70 C74 1.423 . S
N71 C72 1.358 1_655 S
N71 C73 1.400 1_556 S
C72 N70 1.241 1_556 S
C72 N71 1.358 1_455 S
C72 H78 0.930 . S
C73 N71 1.400 1_554 S
C73 C74 1.351 1_655 S
C73 H90 0.930 . S
C74 N70 1.423 . S
C74 C73 1.351 1_455 S
C74 H79 0.930 . S
O75 Cu69 1.974 . S
O75 C85 1.282 . S
C76 O77 1.261 . S
C76 O89 1.251 . S
O77 C76 1.261 . S
H78 C72 0.930 . S
H79 C74 0.930 . S
N80 Cu69 1.985 . S
N80 C82 1.335 1_556 S
N80 C83 1.390 . S
N81 C82 1.345 1_556 S
N81 C84 1.336 . S
C82 N80 1.335 1_554 S
C82 N81 1.345 1_554 S
C82 H87 0.930 . S
C83 N80 1.390 . S
C83 C84 1.346 . S
C83 H88 0.930 . S
C84 N81 1.336 . S
C84 C83 1.346 . S
C84 H91 0.929 . S
C85 O75 1.282 . S
C85 O86 1.216 . S
O86 C85 1.216 . S
H87 C82 0.930 . S
H88 C83 0.930 . S
O89 Cu69 1.959 1_554 S
O89 C76 1.251 . S
H90 C73 0.930 . S
H91 C84 0.929 . S
Cu92 N93 1.999 . S
Cu92 O98 1.974 . S
Cu92 N103 1.985 . S
Cu92 O112 1.959 . S
N93 Cu92 1.999 . S
N93 C95 1.263 . S
N93 C97 1.389 . S
N94 C95 1.358 . S
N94 C96 1.400 . S
C95 N93 1.263 . S
C95 N94 1.358 . S
C95 H101 0.930 . S
C96 N94 1.400 . S
C96 C97 1.351 . S
C96 H113 0.930 . S
C97 N93 1.389 . S
C97 C96 1.351 . S
C97 H102 0.930 . S
O98 Cu92 1.974 . S
O98 C108 1.282 . S
C99 O100 1.261 . S
C99 O112 1.251 . S
O100 C99 1.261 . S
H101 C95 0.930 . S
H102 C97 0.930 . S
N103 Cu92 1.985 . S
N103 C105 1.335 . S
N103 C106 1.390 . S
N104 C105 1.345 . S
N104 C107 1.336 . S
C105 N103 1.335 . S
C105 N104 1.345 . S
C105 H110 0.930 . S
C106 N103 1.390 . S
C106 C107 1.346 . S
C106 H111 0.930 . S
C107 N104 1.336 . S
C107 C106 1.346 . S
C107 H114 0.929 . S
C108 O98 1.282 . S
C108 O109 1.216 . S
O109 C108 1.216 . S
H110 C105 0.930 . S
H111 C106 0.930 . S
O112 Cu92 1.959 . S
O112 C99 1.251 . S
H113 C96 0.930 . S
H114 C107 0.929 . S
Cu115 N116 1.999 . S
Cu115 O121 1.974 . S
Cu115 N126 1.985 . S
Cu115 O135 1.959 . S
N116 Cu115 1.999 . S
N116 C118 1.263 . S
N116 C120 1.389 . S
N117 C118 1.358 1_455 S
N117 C119 1.400 . S
C118 N116 1.263 . S
C118 N117 1.358 1_655 S
C118 H124 0.930 . S
C119 N117 1.400 . S
C119 C120 1.351 1_455 S
C119 H136 0.930 . S
C120 N116 1.389 . S
C120 C119 1.351 1_655 S
C120 H125 0.930 . S
O121 Cu115 1.974 . S
O121 C131 1.282 . S
C122 O123 1.261 . S
C122 O135 1.251 . S
O123 C122 1.261 . S
H124 C118 0.930 . S
H125 C120 0.930 . S
N126 Cu115 1.985 . S
N126 C128 1.335 . S
N126 C129 1.390 . S
N127 C128 1.345 . S
N127 C130 1.336 . S
C128 N126 1.335 . S
C128 N127 1.345 . S
C128 H133 0.930 . S
C129 N126 1.390 . S
C129 C130 1.346 . S
C129 H134 0.930 . S
C130 N127 1.336 . S
C130 C129 1.346 . S
C130 H137 0.929 . S
C131 O121 1.282 . S
C131 O132 1.216 . S
O132 C131 1.216 . S
H133 C128 0.930 . S
H134 C129 0.930 . S
O135 Cu115 1.959 . S
O135 C122 1.251 . S
H136 C119 0.930 . S
H137 C130 0.929 . S
Cu138 N139 1.991 1_554 S
Cu138 O144 1.974 . S
Cu138 N149 1.985 . S
Cu138 O158 1.959 1_554 S
N139 Cu138 1.991 1_556 S
N139 C141 1.241 1_556 S
N139 C143 1.423 . S
N140 C141 1.358 . S
N140 C142 1.400 1_554 S
C141 N139 1.241 1_554 S
C141 N140 1.358 . S
C141 H147 0.930 . S
C142 N140 1.400 1_556 S
C142 C143 1.351 . S
C142 H159 0.930 . S
C143 N139 1.423 . S
C143 C142 1.351 . S
C143 H148 0.930 . S
O144 Cu138 1.974 . S
O144 C154 1.282 . S
C145 O146 1.261 . S
C145 O158 1.251 . S
O146 C145 1.261 . S
H147 C141 0.930 . S
H148 C143 0.930 . S
N149 Cu138 1.985 . S
N149 C151 1.335 1_554 S
N149 C152 1.390 . S
N150 C151 1.345 1_554 S
N150 C153 1.336 . S
C151 N149 1.335 1_556 S
C151 N150 1.345 1_556 S
C151 H156 0.930 . S
C152 N149 1.390 . S
C152 C153 1.346 . S
C152 H157 0.930 . S
C153 N150 1.336 . S
C153 C152 1.346 . S
C153 H160 0.929 . S
C154 O144 1.282 . S
C154 O155 1.216 . S
O155 C154 1.216 . S
H156 C151 0.930 . S
H157 C152 0.930 . S
O158 Cu138 1.959 1_556 S
O158 C145 1.251 . S
H159 C142 0.930 . S
H160 C153 0.929 . S
Cu161 N162 1.991 1_554 S
Cu161 O167 1.974 . S
Cu161 N172 1.985 . S
Cu161 O181 1.959 1_554 S
N162 Cu161 1.991 1_556 S
N162 C164 1.241 1_556 S
N162 C166 1.423 . S
N163 C164 1.358 1_455 S
N163 C165 1.400 1_554 S
C164 N162 1.241 1_554 S
C164 N163 1.358 1_655 S
C164 H170 0.930 . S
C165 N163 1.400 1_556 S
C165 C166 1.351 1_455 S
C165 H182 0.930 . S
C166 N162 1.423 . S
C166 C165 1.351 1_655 S
C166 H171 0.930 . S
O167 Cu161 1.974 . S
O167 C177 1.282 . S
C168 O169 1.261 . S
C168 O181 1.251 . S
O169 C168 1.261 . S
H170 C164 0.930 . S
H171 C166 0.930 . S
N172 Cu161 1.985 . S
N172 C174 1.335 1_554 S
N172 C175 1.390 . S
N173 C174 1.345 1_554 S
N173 C176 1.336 . S
C174 N172 1.335 1_556 S
C174 N173 1.345 1_556 S
C174 H179 0.930 . S
C175 N172 1.390 . S
C175 C176 1.346 . S
C175 H180 0.930 . S
C176 N173 1.336 . S
C176 C175 1.346 . S
C176 H183 0.929 . S
C177 O167 1.282 . S
C177 O178 1.216 . S
O178 C177 1.216 . S
H179 C174 0.930 . S
H180 C175 0.930 . S
O181 Cu161 1.959 1_556 S
O181 C168 1.251 . S
H182 C165 0.930 . S
H183 C176 0.929 . S
Cu184 N185 1.999 . S
Cu184 O190 1.974 . S
Cu184 N195 1.985 . S
Cu184 O204 1.959 . S
N185 Cu184 1.999 . S
N185 C187 1.263 . S
N185 C189 1.389 . S
N186 C187 1.358 . S
N186 C188 1.400 . S
C187 N185 1.263 . S
C187 N186 1.358 . S
C187 H193 0.930 . S
C188 N186 1.400 . S
C188 C189 1.351 . S
C188 H205 0.930 . S
C189 N185 1.389 . S
C189 C188 1.351 . S
C189 H194 0.930 . S
O190 Cu184 1.974 . S
O190 C200 1.282 . S
C191 O192 1.261 . S
C191 O204 1.251 . S
O192 C191 1.261 . S
H193 C187 0.930 . S
H194 C189 0.930 . S
N195 Cu184 1.985 . S
N195 C197 1.335 . S
N195 C198 1.390 . S
N196 C197 1.345 . S
N196 C199 1.336 . S
C197 N195 1.335 . S
C197 N196 1.345 . S
C197 H202 0.930 . S
C198 N195 1.390 . S
C198 C199 1.346 . S
C198 H203 0.930 . S
C199 N196 1.336 . S
C199 C198 1.346 . S
C199 H206 0.929 . S
C200 O190 1.282 . S
C200 O201 1.216 . S
O201 C200 1.216 . S
H202 C197 0.930 . S
H203 C198 0.930 . S
O204 Cu184 1.959 . S
O204 C191 1.251 . S
H205 C188 0.930 . S
H206 C199 0.929 . S
Cu207 N208 1.999 . S
Cu207 O213 1.974 . S
Cu207 N218 1.985 . S
Cu207 O227 1.959 . S
N208 Cu207 1.999 . S
N208 C210 1.263 . S
N208 C212 1.389 . S
N209 C210 1.358 1_655 S
N209 C211 1.400 . S
C210 N208 1.263 . S
C210 N209 1.358 1_455 S
C210 H216 0.930 . S
C211 N209 1.400 . S
C211 C212 1.351 1_655 S
C211 H228 0.930 . S
C212 N208 1.389 . S
C212 C211 1.351 1_455 S
C212 H217 0.930 . S
O213 Cu207 1.974 . S
O213 C223 1.282 . S
C214 O215 1.261 . S
C214 O227 1.251 . S
O215 C214 1.261 . S
H216 C210 0.930 . S
H217 C212 0.930 . S
N218 Cu207 1.985 . S
N218 C220 1.335 . S
N218 C221 1.390 . S
N219 C220 1.345 . S
N219 C222 1.336 . S
C220 N218 1.335 . S
C220 N219 1.345 . S
C220 H225 0.930 . S
C221 N218 1.390 . S
C221 C222 1.346 . S
C221 H226 0.930 . S
C222 N219 1.336 . S
C222 C221 1.346 . S
C222 H229 0.929 . S
C223 O213 1.282 . S
C223 O224 1.216 . S
O224 C223 1.216 . S
H225 C220 0.930 . S
H226 C221 0.930 . S
O227 Cu207 1.959 . S
O227 C214 1.251 . S
H228 C211 0.930 . S
H229 C222 0.929 . S
Cu230 N231 1.999 . S
Cu230 O236 1.974 . S
Cu230 N241 1.985 . S
Cu230 O250 1.959 . S
N231 Cu230 1.999 . S
N231 C233 1.263 . S
N231 C235 1.389 . S
N232 C233 1.358 . S
N232 C234 1.400 . S
C233 N231 1.263 . S
C233 N232 1.358 . S
C233 H239 0.930 . S
C234 N232 1.400 . S
C234 C235 1.351 . S
C234 H251 0.930 . S
C235 N231 1.389 . S
C235 C234 1.351 . S
C235 H240 0.930 . S
O236 Cu230 1.974 . S
O236 C246 1.282 . S
C237 O238 1.261 . S
C237 O250 1.251 . S
O238 C237 1.261 . S
H239 C233 0.930 . S
H240 C235 0.930 . S
N241 Cu230 1.985 . S
N241 C243 1.335 . S
N241 C244 1.390 . S
N242 C243 1.345 . S
N242 C245 1.336 . S
C243 N241 1.335 . S
C243 N242 1.345 . S
C243 H248 0.930 . S
C244 N241 1.390 . S
C244 C245 1.346 . S
C244 H249 0.930 . S
C245 N242 1.336 . S
C245 C244 1.346 . S
C245 H252 0.929 . S
C246 O236 1.282 . S
C246 O247 1.216 . S
O247 C246 1.216 . S
H248 C243 0.930 . S
H249 C244 0.930 . S
O250 Cu230 1.959 . S
O250 C237 1.251 . S
H251 C234 0.930 . S
H252 C245 0.929 . S
Cu253 N254 1.999 . S
Cu253 O259 1.974 . S
Cu253 N264 1.985 . S
Cu253 O273 1.959 . S
N254 Cu253 1.999 . S
N254 C256 1.263 . S
N254 C258 1.389 . S
N255 C256 1.358 1_655 S
N255 C257 1.400 . S
C256 N254 1.263 . S
C256 N255 1.358 1_455 S
C256 H262 0.930 . S
C257 N255 1.400 . S
C257 C258 1.351 1_655 S
C257 H274 0.930 . S
C258 N254 1.389 . S
C258 C257 1.351 1_455 S
C258 H263 0.930 . S
O259 Cu253 1.974 . S
O259 C269 1.282 . S
C260 O261 1.261 . S
C260 O273 1.251 . S
O261 C260 1.261 . S
H262 C256 0.930 . S
H263 C258 0.930 . S
N264 Cu253 1.985 . S
N264 C266 1.335 . S
N264 C267 1.390 . S
N265 C266 1.345 . S
N265 C268 1.336 . S
C266 N264 1.335 . S
C266 N265 1.345 . S
C266 H271 0.930 . S
C267 N264 1.390 . S
C267 C268 1.346 . S
C267 H272 0.930 . S
C268 N265 1.336 . S
C268 C267 1.346 . S
C268 H275 0.929 . S
C269 O259 1.282 . S
C269 O270 1.216 . S
O270 C269 1.216 . S
H271 C266 0.930 . S
H272 C267 0.930 . S
O273 Cu253 1.959 . S
O273 C260 1.251 . S
H274 C257 0.930 . S
H275 C268 0.929 . S
Cu276 N277 1.999 . S
Cu276 O282 1.974 . S
Cu276 N287 1.985 . S
Cu276 O296 1.959 . S
N277 Cu276 1.999 . S
N277 C279 1.263 . S
N277 C281 1.389 . S
N278 C279 1.358 . S
N278 C280 1.400 . S
C279 N277 1.263 . S
C279 N278 1.358 . S
C279 H285 0.930 . S
C280 N278 1.400 . S
C280 C281 1.351 . S
C280 H297 0.930 . S
C281 N277 1.389 . S
C281 C280 1.351 . S
C281 H286 0.930 . S
O282 Cu276 1.974 . S
O282 C292 1.282 . S
C283 O284 1.261 . S
C283 O296 1.251 . S
O284 C283 1.261 . S
H285 C279 0.930 . S
H286 C281 0.930 . S
N287 Cu276 1.985 . S
N287 C289 1.335 . S
N287 C290 1.390 . S
N288 C289 1.345 . S
N288 C291 1.336 . S
C289 N287 1.335 . S
C289 N288 1.345 . S
C289 H294 0.930 . S
C290 N287 1.390 . S
C290 C291 1.346 . S
C290 H295 0.930 . S
C291 N288 1.336 . S
C291 C290 1.346 . S
C291 H298 0.929 . S
C292 O282 1.282 . S
C292 O293 1.216 . S
O293 C292 1.216 . S
H294 C289 0.930 . S
H295 C290 0.930 . S
O296 Cu276 1.959 . S
O296 C283 1.251 . S
H297 C280 0.930 . S
H298 C291 0.929 . S
Cu299 N300 1.999 . S
Cu299 O305 1.974 . S
Cu299 N310 1.985 . S
Cu299 O319 1.959 . S
N300 Cu299 1.999 . S
N300 C302 1.263 . S
N300 C304 1.389 . S
N301 C302 1.358 1_455 S
N301 C303 1.400 . S
C302 N300 1.263 . S
C302 N301 1.358 1_655 S
C302 H308 0.930 . S
C303 N301 1.400 . S
C303 C304 1.351 1_455 S
C303 H320 0.930 . S
C304 N300 1.389 . S
C304 C303 1.351 1_655 S
C304 H309 0.930 . S
O305 Cu299 1.974 . S
O305 C315 1.282 . S
C306 O307 1.261 . S
C306 O319 1.251 . S
O307 C306 1.261 . S
H308 C302 0.930 . S
H309 C304 0.930 . S
N310 Cu299 1.985 . S
N310 C312 1.335 . S
N310 C313 1.390 . S
N311 C312 1.345 . S
N311 C314 1.336 . S
C312 N310 1.335 . S
C312 N311 1.345 . S
C312 H317 0.930 . S
C313 N310 1.390 . S
C313 C314 1.346 . S
C313 H318 0.930 . S
C314 N311 1.336 . S
C314 C313 1.346 . S
C314 H321 0.929 . S
C315 O305 1.282 . S
C315 O316 1.216 . S
O316 C315 1.216 . S
H317 C312 0.930 . S
H318 C313 0.930 . S
O319 Cu299 1.959 . S
O319 C306 1.251 . S
H320 C303 0.930 . S
H321 C314 0.929 . S
Cu322 N323 1.999 . S
Cu322 O328 1.974 . S
Cu322 N333 1.985 . S
Cu322 O342 1.959 . S
N323 Cu322 1.999 . S
N323 C325 1.263 . S
N323 C327 1.389 . S
N324 C325 1.358 . S
N324 C326 1.400 . S
C325 N323 1.263 . S
C325 N324 1.358 . S
C325 H331 0.930 . S
C326 N324 1.400 . S
C326 C327 1.351 . S
C326 H343 0.930 . S
C327 N323 1.389 . S
C327 C326 1.351 . S
C327 H332 0.930 . S
O328 Cu322 1.974 . S
O328 C338 1.282 . S
C329 O330 1.261 . S
C329 O342 1.251 . S
O330 C329 1.261 . S
H331 C325 0.930 . S
H332 C327 0.930 . S
N333 Cu322 1.985 . S
N333 C335 1.335 . S
N333 C336 1.390 . S
N334 C335 1.345 . S
N334 C337 1.336 . S
C335 N333 1.335 . S
C335 N334 1.345 . S
C335 H340 0.930 . S
C336 N333 1.390 . S
C336 C337 1.346 . S
C336 H341 0.930 . S
C337 N334 1.336 . S
C337 C336 1.346 . S
C337 H344 0.929 . S
C338 O328 1.282 . S
C338 O339 1.216 . S
O339 C338 1.216 . S
H340 C335 0.930 . S
H341 C336 0.930 . S
O342 Cu322 1.959 . S
O342 C329 1.251 . S
H343 C326 0.930 . S
H344 C337 0.929 . S
Cu345 N346 1.999 . S
Cu345 O351 1.974 . S
Cu345 N356 1.985 . S
Cu345 O365 1.959 . S
N346 Cu345 1.999 . S
N346 C348 1.263 . S
N346 C350 1.389 . S
N347 C348 1.358 1_455 S
N347 C349 1.400 . S
C348 N346 1.263 . S
C348 N347 1.358 1_655 S
C348 H354 0.930 . S
C349 N347 1.400 . S
C349 C350 1.351 1_455 S
C349 H366 0.930 . S
C350 N346 1.389 . S
C350 C349 1.351 1_655 S
C350 H355 0.930 . S
O351 Cu345 1.974 . S
O351 C361 1.282 . S
C352 O353 1.261 . S
C352 O365 1.251 . S
O353 C352 1.261 . S
H354 C348 0.930 . S
H355 C350 0.930 . S
N356 Cu345 1.985 . S
N356 C358 1.335 . S
N356 C359 1.390 . S
N357 C358 1.345 . S
N357 C360 1.336 . S
C358 N356 1.335 . S
C358 N357 1.345 . S
C358 H363 0.930 . S
C359 N356 1.390 . S
C359 C360 1.346 . S
C359 H364 0.930 . S
C360 N357 1.336 . S
C360 C359 1.346 . S
C360 H367 0.929 . S
C361 O351 1.282 . S
C361 O362 1.216 . S
O362 C361 1.216 . S
H363 C358 0.930 . S
H364 C359 0.930 . S
O365 Cu345 1.959 . S
O365 C352 1.251 . S
H366 C349 0.930 . S
H367 C360 0.929 . S
Cu368 N369 1.999 . S
Cu368 O374 1.974 . S
Cu368 N379 1.985 . S
Cu368 O388 1.959 . S
N369 Cu368 1.999 . S
N369 C371 1.263 . S
N369 C373 1.389 . S
N370 C371 1.358 . S
N370 C372 1.400 . S
C371 N369 1.263 . S
C371 N370 1.358 . S
C371 H377 0.930 . S
C372 N370 1.400 . S
C372 C373 1.351 . S
C372 H389 0.930 . S
C373 N369 1.389 . S
C373 C372 1.351 . S
C373 H378 0.930 . S
O374 Cu368 1.974 . S
O374 C384 1.282 . S
C375 O376 1.261 . S
C375 O388 1.251 . S
O376 C375 1.261 . S
H377 C371 0.930 . S
H378 C373 0.930 . S
N379 Cu368 1.985 . S
N379 C381 1.335 . S
N379 C382 1.390 . S
N380 C381 1.345 . S
N380 C383 1.336 . S
C381 N379 1.335 . S
C381 N380 1.345 . S
C381 H386 0.930 . S
C382 N379 1.390 . S
C382 C383 1.346 . S
C382 H387 0.930 . S
C383 N380 1.336 . S
C383 C382 1.346 . S
C383 H390 0.929 . S
C384 O374 1.282 . S
C384 O385 1.216 . S
O385 C384 1.216 . S
H386 C381 0.930 . S
H387 C382 0.930 . S
O388 Cu368 1.959 . S
O388 C375 1.251 . S
H389 C372 0.930 . S
H390 C383 0.929 . S
Cu391 N392 1.999 . S
Cu391 O397 1.974 . S
Cu391 N402 1.985 . S
Cu391 O411 1.959 . S
N392 Cu391 1.999 . S
N392 C394 1.263 . S
N392 C396 1.389 . S
N393 C394 1.358 . S
N393 C395 1.400 . S
C394 N392 1.263 . S
C394 N393 1.358 . S
C394 H400 0.930 . S
C395 N393 1.400 . S
C395 C396 1.351 . S
C395 H412 0.930 . S
C396 N392 1.389 . S
C396 C395 1.351 . S
C396 H401 0.930 . S
O397 Cu391 1.974 . S
O397 C407 1.282 . S
C398 O399 1.261 . S
C398 O411 1.251 . S
O399 C398 1.261 . S
H400 C394 0.930 . S
H401 C396 0.930 . S
N402 Cu391 1.985 . S
N402 C404 1.335 . S
N402 C405 1.390 . S
N403 C404 1.345 . S
N403 C406 1.336 . S
C404 N402 1.335 . S
C404 N403 1.345 . S
C404 H409 0.930 . S
C405 N402 1.390 . S
C405 C406 1.346 . S
C405 H410 0.930 . S
C406 N403 1.336 . S
C406 C405 1.346 . S
C406 H413 0.929 . S
C407 O397 1.282 . S
C407 O408 1.216 . S
O408 C407 1.216 . S
H409 C404 0.930 . S
H410 C405 0.930 . S
O411 Cu391 1.959 . S
O411 C398 1.251 . S
H412 C395 0.930 . S
H413 C406 0.929 . S
Cu414 N415 1.999 . S
Cu414 O420 1.974 . S
Cu414 N425 1.985 . S
Cu414 O434 1.959 . S
N415 Cu414 1.999 . S
N415 C417 1.263 . S
N415 C419 1.389 . S
N416 C417 1.358 . S
N416 C418 1.400 . S
C417 N415 1.263 . S
C417 N416 1.358 . S
C417 H423 0.930 . S
C418 N416 1.400 . S
C418 C419 1.351 . S
C418 H435 0.930 . S
C419 N415 1.389 . S
C419 C418 1.351 . S
C419 H424 0.930 . S
O420 Cu414 1.974 . S
O420 C430 1.282 . S
C421 O422 1.261 . S
C421 O434 1.251 . S
O422 C421 1.261 . S
H423 C417 0.930 . S
H424 C419 0.930 . S
N425 Cu414 1.985 . S
N425 C427 1.335 . S
N425 C428 1.390 . S
N426 C427 1.345 . S
N426 C429 1.336 . S
C427 N425 1.335 . S
C427 N426 1.345 . S
C427 H432 0.930 . S
C428 N425 1.390 . S
C428 C429 1.346 . S
C428 H433 0.930 . S
C429 N426 1.336 . S
C429 C428 1.346 . S
C429 H436 0.929 . S
C430 O420 1.282 . S
C430 O431 1.216 . S
O431 C430 1.216 . S
H432 C427 0.930 . S
H433 C428 0.930 . S
O434 Cu414 1.959 . S
O434 C421 1.251 . S
H435 C418 0.930 . S
H436 C429 0.929 . S
Cu437 N438 1.999 . S
Cu437 O443 1.974 . S
Cu437 N448 1.985 . S
Cu437 O457 1.959 . S
N438 Cu437 1.999 . S
N438 C440 1.263 . S
N438 C442 1.389 . S
N439 C440 1.358 . S
N439 C441 1.400 . S
C440 N438 1.263 . S
C440 N439 1.358 . S
C440 H446 0.930 . S
C441 N439 1.400 . S
C441 C442 1.351 . S
C441 H458 0.930 . S
C442 N438 1.389 . S
C442 C441 1.351 . S
C442 H447 0.930 . S
O443 Cu437 1.974 . S
O443 C453 1.282 . S
C444 O445 1.261 . S
C444 O457 1.251 . S
O445 C444 1.261 . S
H446 C440 0.930 . S
H447 C442 0.930 . S
N448 Cu437 1.985 . S
N448 C450 1.335 . S
N448 C451 1.390 . S
N449 C450 1.345 . S
N449 C452 1.336 . S
C450 N448 1.335 . S
C450 N449 1.345 . S
C450 H455 0.930 . S
C451 N448 1.390 . S
C451 C452 1.346 . S
C451 H456 0.930 . S
C452 N449 1.336 . S
C452 C451 1.346 . S
C452 H459 0.929 . S
C453 O443 1.282 . S
C453 O454 1.216 . S
O454 C453 1.216 . S
H455 C450 0.930 . S
H456 C451 0.930 . S
O457 Cu437 1.959 . S
O457 C444 1.251 . S
H458 C441 0.930 . S
H459 C452 0.929 . S
Cu460 N461 1.999 . S
Cu460 O466 1.974 . S
Cu460 N471 1.985 . S
Cu460 O480 1.959 . S
N461 Cu460 1.999 . S
N461 C463 1.263 . S
N461 C465 1.389 . S
N462 C463 1.358 . S
N462 C464 1.400 . S
C463 N461 1.263 . S
C463 N462 1.358 . S
C463 H469 0.930 . S
C464 N462 1.400 . S
C464 C465 1.351 . S
C464 H481 0.930 . S
C465 N461 1.389 . S
C465 C464 1.351 . S
C465 H470 0.930 . S
O466 Cu460 1.974 . S
O466 C476 1.282 . S
C467 O468 1.261 . S
C467 O480 1.251 . S
O468 C467 1.261 . S
H469 C463 0.930 . S
H470 C465 0.930 . S
N471 Cu460 1.985 . S
N471 C473 1.335 . S
N471 C474 1.390 . S
N472 C473 1.345 . S
N472 C475 1.336 . S
C473 N471 1.335 . S
C473 N472 1.345 . S
C473 H478 0.930 . S
C474 N471 1.390 . S
C474 C475 1.346 . S
C474 H479 0.930 . S
C475 N472 1.336 . S
C475 C474 1.346 . S
C475 H482 0.929 . S
C476 O466 1.282 . S
C476 O477 1.216 . S
O477 C476 1.216 . S
H478 C473 0.930 . S
H479 C474 0.930 . S
O480 Cu460 1.959 . S
O480 C467 1.251 . S
H481 C464 0.930 . S
H482 C475 0.929 . S
Cu483 N484 1.999 . S
Cu483 O489 1.974 . S
Cu483 N494 1.985 . S
Cu483 O503 1.959 . S
N484 Cu483 1.999 . S
N484 C486 1.263 . S
N484 C488 1.389 . S
N485 C486 1.358 . S
N485 C487 1.400 . S
C486 N484 1.263 . S
C486 N485 1.358 . S
C486 H492 0.930 . S
C487 N485 1.400 . S
C487 C488 1.351 . S
C487 H504 0.930 . S
C488 N484 1.389 . S
C488 C487 1.351 . S
C488 H493 0.930 . S
O489 Cu483 1.974 . S
O489 C499 1.282 . S
C490 O491 1.261 . S
C490 O503 1.251 . S
O491 C490 1.261 . S
H492 C486 0.930 . S
H493 C488 0.930 . S
N494 Cu483 1.985 . S
N494 C496 1.335 . S
N494 C497 1.390 . S
N495 C496 1.345 . S
N495 C498 1.336 . S
C496 N494 1.335 . S
C496 N495 1.345 . S
C496 H501 0.930 . S
C497 N494 1.390 . S
C497 C498 1.346 . S
C497 H502 0.930 . S
C498 N495 1.336 . S
C498 C497 1.346 . S
C498 H505 0.929 . S
C499 O489 1.282 . S
C499 O500 1.216 . S
O500 C499 1.216 . S
H501 C496 0.930 . S
H502 C497 0.930 . S
O503 Cu483 1.959 . S
O503 C490 1.251 . S
H504 C487 0.930 . S
H505 C498 0.929 . S
Cu506 N507 1.999 . S
Cu506 O512 1.974 . S
Cu506 N517 1.985 . S
Cu506 O526 1.959 . S
N507 Cu506 1.999 . S
N507 C509 1.263 . S
N507 C511 1.389 . S
N508 C509 1.358 . S
N508 C510 1.400 . S
C509 N507 1.263 . S
C509 N508 1.358 . S
C509 H515 0.930 . S
C510 N508 1.400 . S
C510 C511 1.351 . S
C510 H527 0.930 . S
C511 N507 1.389 . S
C511 C510 1.351 . S
C511 H516 0.930 . S
O512 Cu506 1.974 . S
O512 C522 1.282 . S
C513 O514 1.261 . S
C513 O526 1.251 . S
O514 C513 1.261 . S
H515 C509 0.930 . S
H516 C511 0.930 . S
N517 Cu506 1.985 . S
N517 C519 1.335 . S
N517 C520 1.390 . S
N518 C519 1.345 . S
N518 C521 1.336 . S
C519 N517 1.335 . S
C519 N518 1.345 . S
C519 H524 0.930 . S
C520 N517 1.390 . S
C520 C521 1.346 . S
C520 H525 0.930 . S
C521 N518 1.336 . S
C521 C520 1.346 . S
C521 H528 0.929 . S
C522 O512 1.282 . S
C522 O523 1.216 . S
O523 C522 1.216 . S
H524 C519 0.930 . S
H525 C520 0.930 . S
O526 Cu506 1.959 . S
O526 C513 1.251 . S
H527 C510 0.930 . S
H528 C521 0.929 . S
Cu529 N530 1.999 . S
Cu529 O535 1.974 . S
Cu529 N540 1.985 . S
Cu529 O549 1.959 . S
N530 Cu529 1.999 . S
N530 C532 1.263 . S
N530 C534 1.389 . S
N531 C532 1.358 . S
N531 C533 1.400 . S
C532 N530 1.263 . S
C532 N531 1.358 . S
C532 H538 0.930 . S
C533 N531 1.400 . S
C533 C534 1.351 . S
C533 H550 0.930 . S
C534 N530 1.389 . S
C534 C533 1.351 . S
C534 H539 0.930 . S
O535 Cu529 1.974 . S
O535 C545 1.282 . S
C536 O537 1.261 . S
C536 O549 1.251 . S
O537 C536 1.261 . S
H538 C532 0.930 . S
H539 C534 0.930 . S
N540 Cu529 1.985 . S
N540 C542 1.335 . S
N540 C543 1.390 . S
N541 C542 1.345 . S
N541 C544 1.336 . S
C542 N540 1.335 . S
C542 N541 1.345 . S
C542 H547 0.930 . S
C543 N540 1.390 . S
C543 C544 1.346 . S
C543 H548 0.930 . S
C544 N541 1.336 . S
C544 C543 1.346 . S
C544 H551 0.929 . S
C545 O535 1.282 . S
C545 O546 1.216 . S
O546 C545 1.216 . S
H547 C542 0.930 . S
H548 C543 0.930 . S
O549 Cu529 1.959 . S
O549 C536 1.251 . S
H550 C533 0.930 . S
H551 C544 0.929 . S
Cu552 N553 1.999 . S
Cu552 O558 1.974 . S
Cu552 N563 1.985 . S
Cu552 O572 1.959 . S
N553 Cu552 1.999 . S
N553 C555 1.263 . S
N553 C557 1.389 . S
N554 C555 1.358 . S
N554 C556 1.400 . S
C555 N553 1.263 . S
C555 N554 1.358 . S
C555 H561 0.930 . S
C556 N554 1.400 . S
C556 C557 1.351 . S
C556 H573 0.930 . S
C557 N553 1.389 . S
C557 C556 1.351 . S
C557 H562 0.930 . S
O558 Cu552 1.974 . S
O558 C568 1.282 . S
C559 O560 1.261 . S
C559 O572 1.251 . S
O560 C559 1.261 . S
H561 C555 0.930 . S
H562 C557 0.930 . S
N563 Cu552 1.985 . S
N563 C565 1.335 . S
N563 C566 1.390 . S
N564 C565 1.345 . S
N564 C567 1.336 . S
C565 N563 1.335 . S
C565 N564 1.345 . S
C565 H570 0.930 . S
C566 N563 1.390 . S
C566 C567 1.346 . S
C566 H571 0.930 . S
C567 N564 1.336 . S
C567 C566 1.346 . S
C567 H574 0.929 . S
C568 O558 1.282 . S
C568 O569 1.216 . S
O569 C568 1.216 . S
H570 C565 0.930 . S
H571 C566 0.930 . S
O572 Cu552 1.959 . S
O572 C559 1.251 . S
H573 C556 0.930 . S
H574 C567 0.929 . S
Cu575 N576 1.999 . S
Cu575 O581 1.974 . S
Cu575 N586 1.985 . S
Cu575 O595 1.959 . S
N576 Cu575 1.999 . S
N576 C578 1.263 . S
N576 C580 1.389 . S
N577 C578 1.358 . S
N577 C579 1.400 . S
C578 N576 1.263 . S
C578 N577 1.358 . S
C578 H584 0.930 . S
C579 N577 1.400 . S
C579 C580 1.351 . S
C579 H596 0.930 . S
C580 N576 1.389 . S
C580 C579 1.351 . S
C580 H585 0.930 . S
O581 Cu575 1.974 . S
O581 C591 1.282 . S
C582 O583 1.261 . S
C582 O595 1.251 . S
O583 C582 1.261 . S
H584 C578 0.930 . S
H585 C580 0.930 . S
N586 Cu575 1.985 . S
N586 C588 1.335 . S
N586 C589 1.390 . S
N587 C588 1.345 . S
N587 C590 1.336 . S
C588 N586 1.335 . S
C588 N587 1.345 . S
C588 H593 0.930 . S
C589 N586 1.390 . S
C589 C590 1.346 . S
C589 H594 0.930 . S
C590 N587 1.336 . S
C590 C589 1.346 . S
C590 H597 0.929 . S
C591 O581 1.282 . S
C591 O592 1.216 . S
O592 C591 1.216 . S
H593 C588 0.930 . S
H594 C589 0.930 . S
O595 Cu575 1.959 . S
O595 C582 1.251 . S
H596 C579 0.930 . S
H597 C590 0.929 . S
Cu598 N599 1.991 1_556 S
Cu598 O604 1.974 . S
Cu598 N609 1.985 . S
Cu598 O618 1.959 1_556 S
N599 Cu598 1.991 1_554 S
N599 C601 1.241 1_554 S
N599 C603 1.423 . S
N600 C601 1.358 . S
N600 C602 1.400 1_556 S
C601 N599 1.241 1_556 S
C601 N600 1.358 . S
C601 H607 0.930 . S
C602 N600 1.400 1_554 S
C602 C603 1.351 . S
C602 H619 0.930 . S
C603 N599 1.423 . S
C603 C602 1.351 . S
C603 H608 0.930 . S
O604 Cu598 1.974 . S
O604 C614 1.282 . S
C605 O606 1.261 . S
C605 O618 1.251 . S
O606 C605 1.261 . S
H607 C601 0.930 . S
H608 C603 0.930 . S
N609 Cu598 1.985 . S
N609 C611 1.335 1_556 S
N609 C612 1.390 . S
N610 C611 1.345 1_556 S
N610 C613 1.336 . S
C611 N609 1.335 1_554 S
C611 N610 1.345 1_554 S
C611 H616 0.930 . S
C612 N609 1.390 . S
C612 C613 1.346 . S
C612 H617 0.930 . S
C613 N610 1.336 . S
C613 C612 1.346 . S
C613 H620 0.929 . S
C614 O604 1.282 . S
C614 O615 1.216 . S
O615 C614 1.216 . S
H616 C611 0.930 . S
H617 C612 0.930 . S
O618 Cu598 1.959 1_554 S
O618 C605 1.251 . S
H619 C602 0.930 . S
H620 C613 0.929 . S
Cu621 N622 1.991 1_556 S
Cu621 O627 1.974 . S
Cu621 N632 1.985 . S
Cu621 O641 1.959 1_556 S
N622 Cu621 1.991 1_554 S
N622 C624 1.241 1_554 S
N622 C626 1.423 . S
N623 C624 1.358 . S
N623 C625 1.400 1_556 S
C624 N622 1.241 1_556 S
C624 N623 1.358 . S
C624 H630 0.930 . S
C625 N623 1.400 1_554 S
C625 C626 1.351 . S
C625 H642 0.930 . S
C626 N622 1.423 . S
C626 C625 1.351 . S
C626 H631 0.930 . S
O627 Cu621 1.974 . S
O627 C637 1.282 . S
C628 O629 1.261 . S
C628 O641 1.251 . S
O629 C628 1.261 . S
H630 C624 0.930 . S
H631 C626 0.930 . S
N632 Cu621 1.985 . S
N632 C634 1.335 1_556 S
N632 C635 1.390 . S
N633 C634 1.345 1_556 S
N633 C636 1.336 . S
C634 N632 1.335 1_554 S
C634 N633 1.345 1_554 S
C634 H639 0.930 . S
C635 N632 1.390 . S
C635 C636 1.346 . S
C635 H640 0.930 . S
C636 N633 1.336 . S
C636 C635 1.346 . S
C636 H643 0.929 . S
C637 O627 1.282 . S
C637 O638 1.216 . S
O638 C637 1.216 . S
H639 C634 0.930 . S
H640 C635 0.930 . S
O641 Cu621 1.959 1_554 S
O641 C628 1.251 . S
H642 C625 0.930 . S
H643 C636 0.929 . S
Cu644 N645 1.999 . S
Cu644 O650 1.974 . S
Cu644 N655 1.985 . S
Cu644 O664 1.959 . S
N645 Cu644 1.999 . S
N645 C647 1.263 . S
N645 C649 1.389 . S
N646 C647 1.358 . S
N646 C648 1.400 . S
C647 N645 1.263 . S
C647 N646 1.358 . S
C647 H653 0.930 . S
C648 N646 1.400 . S
C648 C649 1.351 . S
C648 H665 0.930 . S
C649 N645 1.389 . S
C649 C648 1.351 . S
C649 H654 0.930 . S
O650 Cu644 1.974 . S
O650 C660 1.282 . S
C651 O652 1.261 . S
C651 O664 1.251 . S
O652 C651 1.261 . S
H653 C647 0.930 . S
H654 C649 0.930 . S
N655 Cu644 1.985 . S
N655 C657 1.335 . S
N655 C658 1.390 . S
N656 C657 1.345 . S
N656 C659 1.336 . S
C657 N655 1.335 . S
C657 N656 1.345 . S
C657 H662 0.930 . S
C658 N655 1.390 . S
C658 C659 1.346 . S
C658 H663 0.930 . S
C659 N656 1.336 . S
C659 C658 1.346 . S
C659 H666 0.929 . S
C660 O650 1.282 . S
C660 O661 1.216 . S
O661 C660 1.216 . S
H662 C657 0.930 . S
H663 C658 0.930 . S
O664 Cu644 1.959 . S
O664 C651 1.251 . S
H665 C648 0.930 . S
H666 C659 0.929 . S
Cu667 N668 1.999 . S
Cu667 O673 1.974 . S
Cu667 N678 1.985 . S
Cu667 O687 1.959 . S
N668 Cu667 1.999 . S
N668 C670 1.263 . S
N668 C672 1.389 . S
N669 C670 1.358 . S
N669 C671 1.400 . S
C670 N668 1.263 . S
C670 N669 1.358 . S
C670 H676 0.930 . S
C671 N669 1.400 . S
C671 C672 1.351 . S
C671 H688 0.930 . S
C672 N668 1.389 . S
C672 C671 1.351 . S
C672 H677 0.930 . S
O673 Cu667 1.974 . S
O673 C683 1.282 . S
C674 O675 1.261 . S
C674 O687 1.251 . S
O675 C674 1.261 . S
H676 C670 0.930 . S
H677 C672 0.930 . S
N678 Cu667 1.985 . S
N678 C680 1.335 . S
N678 C681 1.390 . S
N679 C680 1.345 . S
N679 C682 1.336 . S
C680 N678 1.335 . S
C680 N679 1.345 . S
C680 H685 0.930 . S
C681 N678 1.390 . S
C681 C682 1.346 . S
C681 H686 0.930 . S
C682 N679 1.336 . S
C682 C681 1.346 . S
C682 H689 0.929 . S
C683 O673 1.282 . S
C683 O684 1.216 . S
O684 C683 1.216 . S
H685 C680 0.930 . S
H686 C681 0.930 . S
O687 Cu667 1.959 . S
O687 C674 1.251 . S
H688 C671 0.930 . S
H689 C682 0.929 . S
Cu690 N691 1.991 1_554 S
Cu690 O696 1.974 . S
Cu690 N701 1.985 . S
Cu690 O710 1.959 1_554 S
N691 Cu690 1.991 1_556 S
N691 C693 1.241 1_556 S
N691 C695 1.423 . S
N692 C693 1.358 . S
N692 C694 1.400 1_554 S
C693 N691 1.241 1_554 S
C693 N692 1.358 . S
C693 H699 0.930 . S
C694 N692 1.400 1_556 S
C694 C695 1.351 . S
C694 H711 0.930 . S
C695 N691 1.423 . S
C695 C694 1.351 . S
C695 H700 0.930 . S
O696 Cu690 1.974 . S
O696 C706 1.282 . S
C697 O698 1.261 . S
C697 O710 1.251 . S
O698 C697 1.261 . S
H699 C693 0.930 . S
H700 C695 0.930 . S
N701 Cu690 1.985 . S
N701 C703 1.335 1_554 S
N701 C704 1.390 . S
N702 C703 1.345 1_554 S
N702 C705 1.336 . S
C703 N701 1.335 1_556 S
C703 N702 1.345 1_556 S
C703 H708 0.930 . S
C704 N701 1.390 . S
C704 C705 1.346 . S
C704 H709 0.930 . S
C705 N702 1.336 . S
C705 C704 1.346 . S
C705 H712 0.929 . S
C706 O696 1.282 . S
C706 O707 1.216 . S
O707 C706 1.216 . S
H708 C703 0.930 . S
H709 C704 0.930 . S
O710 Cu690 1.959 1_556 S
O710 C697 1.251 . S
H711 C694 0.930 . S
H712 C705 0.929 . S
Cu713 N714 1.991 1_554 S
Cu713 O719 1.974 . S
Cu713 N724 1.985 . S
Cu713 O733 1.959 1_554 S
N714 Cu713 1.991 1_556 S
N714 C716 1.241 1_556 S
N714 C718 1.423 . S
N715 C716 1.358 . S
N715 C717 1.400 1_554 S
C716 N714 1.241 1_554 S
C716 N715 1.358 . S
C716 H722 0.930 . S
C717 N715 1.400 1_556 S
C717 C718 1.351 . S
C717 H734 0.930 . S
C718 N714 1.423 . S
C718 C717 1.351 . S
C718 H723 0.930 . S
O719 Cu713 1.974 . S
O719 C729 1.282 . S
C720 O721 1.261 . S
C720 O733 1.251 . S
O721 C720 1.261 . S
H722 C716 0.930 . S
H723 C718 0.930 . S
N724 Cu713 1.985 . S
N724 C726 1.335 1_554 S
N724 C727 1.390 . S
N725 C726 1.345 1_554 S
N725 C728 1.336 . S
C726 N724 1.335 1_556 S
C726 N725 1.345 1_556 S
C726 H731 0.930 . S
C727 N724 1.390 . S
C727 C728 1.346 . S
C727 H732 0.930 . S
C728 N725 1.336 . S
C728 C727 1.346 . S
C728 H735 0.929 . S
C729 O719 1.282 . S
C729 O730 1.216 . S
O730 C729 1.216 . S
H731 C726 0.930 . S
H732 C727 0.930 . S
O733 Cu713 1.959 1_556 S
O733 C720 1.251 . S
H734 C717 0.930 . S
H735 C728 0.929 . S
H736 C742 0.930 . S
H737 C746 0.930 . S
H738 C751 0.929 . S
H739 C749 0.929 . S
H740 C744 0.929 . S
H741 C750 0.929 . S
C742 H736 0.930 . S
C742 C743 1.367 . S
C742 C750 1.378 . S
C743 C742 1.367 . S
C743 C751 1.433 . S
C744 H740 0.929 . S
C744 C746 1.378 . S
C744 C748 1.350 . S
C745 C748 1.463 . S
C745 C750 1.350 . S
C745 N753 1.427 . S
C746 H737 0.930 . S
C746 C744 1.378 . S
C746 C747 1.367 . S
C747 C746 1.367 . S
C747 C749 1.433 . S
C748 C744 1.350 . S
C748 C745 1.463 . S
C748 N752 1.427 . S
C749 H739 0.929 . S
C749 C747 1.433 . S
C749 N752 1.384 . S
C750 H741 0.929 . S
C750 C742 1.378 . S
C750 C745 1.350 . S
C751 H738 0.929 . S
C751 C743 1.433 . S
C751 N753 1.384 . S
N752 C748 1.427 . S
N752 C749 1.384 . S
N753 C745 1.427 . S
N753 C751 1.384 . S
H754 C760 0.930 . S
H755 C764 0.930 . S
H756 C769 0.929 . S
H757 C767 0.929 . S
H758 C762 0.929 . S
H759 C768 0.929 . S
C760 H754 0.930 . S
C760 C761 1.367 . S
C760 C768 1.378 . S
C761 C760 1.367 . S
C761 C769 1.433 . S
C762 H758 0.929 . S
C762 C764 1.378 . S
C762 C766 1.350 . S
C763 C766 1.463 . S
C763 C768 1.350 . S
C763 N771 1.427 . S
C764 H755 0.930 . S
C764 C762 1.378 . S
C764 C765 1.367 . S
C765 C764 1.367 . S
C765 C767 1.433 . S
C766 C762 1.350 . S
C766 C763 1.463 . S
C766 N770 1.427 . S
C767 H757 0.929 . S
C767 C765 1.433 . S
C767 N770 1.384 . S
C768 H759 0.929 . S
C768 C760 1.378 . S
C768 C763 1.350 . S
C769 H756 0.929 . S
C769 C761 1.433 . S
C769 N771 1.384 . S
N770 C766 1.427 . S
N770 C767 1.384 . S
N771 C763 1.427 . S
N771 C769 1.384 . S
H772 C778 0.930 . S
H773 C782 0.930 . S
H774 C787 0.929 . S
H775 C785 0.929 . S
H776 C780 0.929 . S
H777 C786 0.929 . S
C778 H772 0.930 . S
C778 C779 1.367 . S
C778 C786 1.378 . S
C779 C778 1.367 . S
C779 C787 1.433 . S
C780 H776 0.929 . S
C780 C782 1.378 . S
C780 C784 1.350 . S
C781 C784 1.463 . S
C781 C786 1.350 . S
C781 N789 1.427 . S
C782 H773 0.930 . S
C782 C780 1.378 . S
C782 C783 1.367 . S
C783 C782 1.367 . S
C783 C785 1.433 . S
C784 C780 1.350 . S
C784 C781 1.463 . S
C784 N788 1.427 . S
C785 H775 0.929 . S
C785 C783 1.433 . S
C785 N788 1.384 . S
C786 H777 0.929 . S
C786 C778 1.378 . S
C786 C781 1.350 . S
C787 H774 0.929 . S
C787 C779 1.433 . S
C787 N789 1.384 . S
N788 C784 1.427 . S
N788 C785 1.384 . S
N789 C781 1.427 . S
N789 C787 1.384 . S
H790 C796 0.930 . S
H791 C800 0.930 . S
H792 C805 0.929 . S
H793 C803 0.929 . S
H794 C798 0.929 . S
H795 C804 0.929 . S
C796 H790 0.930 . S
C796 C797 1.367 . S
C796 C804 1.378 . S
C797 C796 1.367 . S
C797 C805 1.433 . S
C798 H794 0.929 . S
C798 C800 1.378 . S
C798 C802 1.350 . S
C799 C802 1.463 . S
C799 C804 1.350 . S
C799 N807 1.427 . S
C800 H791 0.930 . S
C800 C798 1.378 . S
C800 C801 1.367 . S
C801 C800 1.367 . S
C801 C803 1.433 . S
C802 C798 1.350 . S
C802 C799 1.463 . S
C802 N806 1.427 . S
C803 H793 0.929 . S
C803 C801 1.433 . S
C803 N806 1.384 . S
C804 H795 0.929 . S
C804 C796 1.378 . S
C804 C799 1.350 . S
C805 H792 0.929 . S
C805 C797 1.433 . S
C805 N807 1.384 . S
N806 C802 1.427 . S
N806 C803 1.384 . S
N807 C799 1.427 . S
N807 C805 1.384 . S
H808 C814 0.930 . S
H809 C818 0.930 . S
H810 C823 0.929 . S
H811 C821 0.929 . S
H812 C816 0.929 . S
H813 C822 0.929 . S
C814 H808 0.930 . S
C814 C815 1.367 . S
C814 C822 1.378 . S
C815 C814 1.367 . S
C815 C823 1.433 . S
C816 H812 0.929 . S
C816 C818 1.378 . S
C816 C820 1.350 . S
C817 C820 1.463 . S
C817 C822 1.350 . S
C817 N825 1.427 . S
C818 H809 0.930 . S
C818 C816 1.378 . S
C818 C819 1.367 . S
C819 C818 1.367 . S
C819 C821 1.433 . S
C820 C816 1.350 . S
C820 C817 1.463 . S
C820 N824 1.427 . S
C821 H811 0.929 . S
C821 C819 1.433 . S
C821 N824 1.384 . S
C822 H813 0.929 . S
C822 C814 1.378 . S
C822 C817 1.350 . S
C823 H810 0.929 . S
C823 C815 1.433 . S
C823 N825 1.384 . S
N824 C820 1.427 . S
N824 C821 1.384 . S
N825 C817 1.427 . S
N825 C823 1.384 . S
H826 C832 0.930 . S
H827 C836 0.930 . S
H828 C841 0.929 . S
H829 C839 0.929 . S
H830 C834 0.929 . S
H831 C840 0.929 . S
C832 H826 0.930 . S
C832 C833 1.367 . S
C832 C840 1.378 . S
C833 C832 1.367 . S
C833 C841 1.433 . S
C834 H830 0.929 . S
C834 C836 1.378 . S
C834 C838 1.350 . S
C835 C838 1.463 . S
C835 C840 1.350 . S
C835 N843 1.427 . S
C836 H827 0.930 . S
C836 C834 1.378 . S
C836 C837 1.367 . S
C837 C836 1.367 . S
C837 C839 1.433 . S
C838 C834 1.350 . S
C838 C835 1.463 . S
C838 N842 1.427 . S
C839 H829 0.929 . S
C839 C837 1.433 . S
C839 N842 1.384 . S
C840 H831 0.929 . S
C840 C832 1.378 . S
C840 C835 1.350 . S
C841 H828 0.929 . S
C841 C833 1.433 . S
C841 N843 1.384 . S
N842 C838 1.427 . S
N842 C839 1.384 . S
N843 C835 1.427 . S
N843 C841 1.384 . S
H844 C850 0.930 . S
H845 C854 0.930 . S
H846 C859 0.929 . S
H847 C857 0.929 . S
H848 C852 0.929 . S
H849 C858 0.929 . S
C850 H844 0.930 . S
C850 C851 1.367 . S
C850 C858 1.378 . S
C851 C850 1.367 . S
C851 C859 1.433 . S
C852 H848 0.929 . S
C852 C854 1.378 . S
C852 C856 1.350 . S
C853 C856 1.463 . S
C853 C858 1.350 . S
C853 N861 1.427 . S
C854 H845 0.930 . S
C854 C852 1.378 . S
C854 C855 1.367 . S
C855 C854 1.367 . S
C855 C857 1.433 . S
C856 C852 1.350 . S
C856 C853 1.463 . S
C856 N860 1.427 . S
C857 H847 0.929 . S
C857 C855 1.433 . S
C857 N860 1.384 . S
C858 H849 0.929 . S
C858 C850 1.378 . S
C858 C853 1.350 . S
C859 H846 0.929 . S
C859 C851 1.433 . S
C859 N861 1.384 . S
N860 C856 1.427 . S
N860 C857 1.384 . S
N861 C853 1.427 . S
N861 C859 1.384 . S
H862 C868 0.930 . S
H863 C872 0.930 . S
H864 C877 0.929 . S
H865 C875 0.929 . S
H866 C870 0.929 . S
H867 C876 0.929 . S
C868 H862 0.930 . S
C868 C869 1.367 . S
C868 C876 1.378 . S
C869 C868 1.367 . S
C869 C877 1.433 . S
C870 H866 0.929 . S
C870 C872 1.378 . S
C870 C874 1.350 . S
C871 C874 1.463 . S
C871 C876 1.350 . S
C871 N879 1.427 . S
C872 H863 0.930 . S
C872 C870 1.378 . S
C872 C873 1.367 . S
C873 C872 1.367 . S
C873 C875 1.433 . S
C874 C870 1.350 . S
C874 C871 1.463 . S
C874 N878 1.427 . S
C875 H865 0.929 . S
C875 C873 1.433 . S
C875 N878 1.384 . S
C876 H867 0.929 . S
C876 C868 1.378 . S
C876 C871 1.350 . S
C877 H864 0.929 . S
C877 C869 1.433 . S
C877 N879 1.384 . S
N878 C874 1.427 . S
N878 C875 1.384 . S
N879 C871 1.427 . S
N879 C877 1.384 . S
H880 C886 0.930 . S
H881 C890 0.930 . S
H882 C895 0.929 . S
H883 C893 0.929 . S
H884 C888 0.929 . S
H885 C894 0.929 . S
C886 H880 0.930 . S
C886 C887 1.367 . S
C886 C894 1.378 . S
C887 C886 1.367 . S
C887 C895 1.433 . S
C888 H884 0.929 . S
C888 C890 1.378 . S
C888 C892 1.350 . S
C889 C892 1.463 . S
C889 C894 1.350 . S
C889 N897 1.427 . S
C890 H881 0.930 . S
C890 C888 1.378 . S
C890 C891 1.367 . S
C891 C890 1.367 . S
C891 C893 1.433 . S
C892 C888 1.350 . S
C892 C889 1.463 . S
C892 N896 1.427 . S
C893 H883 0.929 . S
C893 C891 1.433 . S
C893 N896 1.384 . S
C894 H885 0.929 . S
C894 C886 1.378 . S
C894 C889 1.350 . S
C895 H882 0.929 . S
C895 C887 1.433 . S
C895 N897 1.384 . S
N896 C892 1.427 . S
N896 C893 1.384 . S
N897 C889 1.427 . S
N897 C895 1.384 . S
H898 C904 0.930 . S
H899 C908 0.930 . S
H900 C913 0.929 . S
H901 C911 0.929 . S
H902 C906 0.929 . S
H903 C912 0.929 . S
C904 H898 0.930 . S
C904 C905 1.367 . S
C904 C912 1.378 . S
C905 C904 1.367 . S
C905 C913 1.433 . S
C906 H902 0.929 . S
C906 C908 1.378 . S
C906 C910 1.350 . S
C907 C910 1.463 . S
C907 C912 1.350 . S
C907 N915 1.427 . S
C908 H899 0.930 . S
C908 C906 1.378 . S
C908 C909 1.367 . S
C909 C908 1.367 . S
C909 C911 1.433 . S
C910 C906 1.350 . S
C910 C907 1.463 . S
C910 N914 1.427 . S
C911 H901 0.929 . S
C911 C909 1.433 . S
C911 N914 1.384 . S
C912 H903 0.929 . S
C912 C904 1.378 . S
C912 C907 1.350 . S
C913 H900 0.929 . S
C913 C905 1.433 . S
C913 N915 1.384 . S
N914 C910 1.427 . S
N914 C911 1.384 . S
N915 C907 1.427 . S
N915 C913 1.384 . S
H916 C922 0.930 . S
H917 C926 0.930 . S
H918 C931 0.929 . S
H919 C929 0.929 . S
H920 C924 0.929 . S
H921 C930 0.929 . S
C922 H916 0.930 . S
C922 C923 1.367 . S
C922 C930 1.378 . S
C923 C922 1.367 . S
C923 C931 1.433 . S
C924 H920 0.929 . S
C924 C926 1.378 . S
C924 C928 1.350 . S
C925 C928 1.463 . S
C925 C930 1.350 . S
C925 N933 1.427 . S
C926 H917 0.930 . S
C926 C924 1.378 . S
C926 C927 1.367 . S
C927 C926 1.367 . S
C927 C929 1.433 . S
C928 C924 1.350 . S
C928 C925 1.463 . S
C928 N932 1.427 . S
C929 H919 0.929 . S
C929 C927 1.433 . S
C929 N932 1.384 . S
C930 H921 0.929 . S
C930 C922 1.378 . S
C930 C925 1.350 . S
C931 H918 0.929 . S
C931 C923 1.433 . S
C931 N933 1.384 . S
N932 C928 1.427 . S
N932 C929 1.384 . S
N933 C925 1.427 . S
N933 C931 1.384 . S
H934 C940 0.930 . S
H935 C944 0.930 . S
H936 C949 0.929 . S
H937 C947 0.929 . S
H938 C942 0.929 . S
H939 C948 0.929 . S
C940 H934 0.930 . S
C940 C941 1.367 . S
C940 C948 1.378 . S
C941 C940 1.367 . S
C941 C949 1.433 . S
C942 H938 0.929 . S
C942 C944 1.378 . S
C942 C946 1.350 . S
C943 C946 1.463 . S
C943 C948 1.350 . S
C943 N951 1.427 . S
C944 H935 0.930 . S
C944 C942 1.378 . S
C944 C945 1.367 . S
C945 C944 1.367 . S
C945 C947 1.433 . S
C946 C942 1.350 . S
C946 C943 1.463 . S
C946 N950 1.427 . S
C947 H937 0.929 . S
C947 C945 1.433 . S
C947 N950 1.384 . S
C948 H939 0.929 . S
C948 C940 1.378 . S
C948 C943 1.350 . S
C949 H936 0.929 . S
C949 C941 1.433 . S
C949 N951 1.384 . S
N950 C946 1.427 . S
N950 C947 1.384 . S
N951 C943 1.427 . S
N951 C949 1.384 . S
H952 C958 0.930 . S
H953 C962 0.930 . S
H954 C967 0.929 . S
H955 C965 0.929 . S
H956 C960 0.929 . S
H957 C966 0.929 . S
C958 H952 0.930 . S
C958 C959 1.367 . S
C958 C966 1.378 . S
C959 C958 1.367 . S
C959 C967 1.433 . S
C960 H956 0.929 . S
C960 C962 1.378 . S
C960 C964 1.350 . S
C961 C964 1.463 . S
C961 C966 1.350 . S
C961 N969 1.427 . S
C962 H953 0.930 . S
C962 C960 1.378 . S
C962 C963 1.367 . S
C963 C962 1.367 . S
C963 C965 1.433 . S
C964 C960 1.350 . S
C964 C961 1.463 . S
C964 N968 1.427 . S
C965 H955 0.929 . S
C965 C963 1.433 . S
C965 N968 1.384 . S
C966 H957 0.929 . S
C966 C958 1.378 . S
C966 C961 1.350 . S
C967 H954 0.929 . S
C967 C959 1.433 . S
C967 N969 1.384 . S
N968 C964 1.427 . S
N968 C965 1.384 . S
N969 C961 1.427 . S
N969 C967 1.384 . S
H970 C976 0.930 . S
H971 C980 0.930 . S
H972 C985 0.929 . S
H973 C983 0.929 . S
H974 C978 0.929 . S
H975 C984 0.929 . S
C976 H970 0.930 . S
C976 C977 1.367 . S
C976 C984 1.378 . S
C977 C976 1.367 . S
C977 C985 1.433 . S
C978 H974 0.929 . S
C978 C980 1.378 . S
C978 C982 1.350 . S
C979 C982 1.463 . S
C979 C984 1.350 . S
C979 N987 1.427 . S
C980 H971 0.930 . S
C980 C978 1.378 . S
C980 C981 1.367 . S
C981 C980 1.367 . S
C981 C983 1.433 . S
C982 C978 1.350 . S
C982 C979 1.463 . S
C982 N986 1.427 . S
C983 H973 0.929 . S
C983 C981 1.433 . S
C983 N986 1.384 . S
C984 H975 0.929 . S
C984 C976 1.378 . S
C984 C979 1.350 . S
C985 H972 0.929 . S
C985 C977 1.433 . S
C985 N987 1.384 . S
N986 C982 1.427 . S
N986 C983 1.384 . S
N987 C979 1.427 . S
N987 C985 1.384 . S
H988 C994 0.930 . S
H989 C998 0.930 . S
H990 C1003 0.929 . S
H991 C1001 0.929 . S
H992 C996 0.929 . S
H993 C1002 0.929 . S
C994 H988 0.930 . S
C994 C995 1.367 . S
C994 C1002 1.378 . S
C995 C994 1.367 . S
C995 C1003 1.433 . S
C996 H992 0.929 . S
C996 C998 1.378 . S
C996 C1000 1.350 . S
C997 C1000 1.463 . S
C997 C1002 1.350 . S
C997 N1005 1.427 . S
C998 H989 0.930 . S
C998 C996 1.378 . S
C998 C999 1.367 . S
C999 C998 1.367 . S
C999 C1001 1.433 . S
C1000 C996 1.350 . S
C1000 C997 1.463 . S
C1000 N1004 1.427 . S
C1001 H991 0.929 . S
C1001 C999 1.433 . S
C1001 N1004 1.384 . S
C1002 H993 0.929 . S
C1002 C994 1.378 . S
C1002 C997 1.350 . S
C1003 H990 0.929 . S
C1003 C995 1.433 . S
C1003 N1005 1.384 . S
N1004 C1000 1.427 . S
N1004 C1001 1.384 . S
N1005 C997 1.427 . S
N1005 C1003 1.384 . S
H1006 C1012 0.930 . S
H1007 C1016 0.930 . S
H1008 C1021 0.929 . S
H1009 C1019 0.929 . S
H1010 C1014 0.929 . S
H1011 C1020 0.929 . S
C1012 H1006 0.930 . S
C1012 C1013 1.367 . S
C1012 C1020 1.378 . S
C1013 C1012 1.367 . S
C1013 C1021 1.433 . S
C1014 H1010 0.929 . S
C1014 C1016 1.378 . S
C1014 C1018 1.350 . S
C1015 C1018 1.463 . S
C1015 C1020 1.350 . S
C1015 N1023 1.427 . S
C1016 H1007 0.930 . S
C1016 C1014 1.378 . S
C1016 C1017 1.367 . S
C1017 C1016 1.367 . S
C1017 C1019 1.433 . S
C1018 C1014 1.350 . S
C1018 C1015 1.463 . S
C1018 N1022 1.427 . S
C1019 H1009 0.929 . S
C1019 C1017 1.433 . S
C1019 N1022 1.384 . S
C1020 H1011 0.929 . S
C1020 C1012 1.378 . S
C1020 C1015 1.350 . S
C1021 H1008 0.929 . S
C1021 C1013 1.433 . S
C1021 N1023 1.384 . S
N1022 C1018 1.427 . S
N1022 C1019 1.384 . S
N1023 C1015 1.427 . S
N1023 C1021 1.384 . S
H1024 C1030 0.930 . S
H1025 C1034 0.930 . S
H1026 C1039 0.929 . S
H1027 C1037 0.929 . S
H1028 C1032 0.929 1_655 S
H1029 C1038 0.929 1_455 S
C1030 H1024 0.930 . S
C1030 C1031 1.367 . S
C1030 C1038 1.378 . S
C1031 C1030 1.367 . S
C1031 C1039 1.433 . S
C1032 H1028 0.929 1_455 S
C1032 C1034 1.378 . S
C1032 C1036 1.350 . S
C1033 C1036 1.463 1_655 S
C1033 C1038 1.350 . S
C1033 N1041 1.427 . S
C1034 H1025 0.930 . S
C1034 C1032 1.378 . S
C1034 C1035 1.367 . S
C1035 C1034 1.367 . S
C1035 C1037 1.433 . S
C1036 C1032 1.350 . S
C1036 C1033 1.463 1_455 S
C1036 N1040 1.427 . S
C1037 H1027 0.929 . S
C1037 C1035 1.433 . S
C1037 N1040 1.384 . S
C1038 H1029 0.929 1_655 S
C1038 C1030 1.378 . S
C1038 C1033 1.350 . S
C1039 H1026 0.929 . S
C1039 C1031 1.433 . S
C1039 N1041 1.384 . S
N1040 C1036 1.427 . S
N1040 C1037 1.384 . S
N1041 C1033 1.427 . S
N1041 C1039 1.384 . S
H1042 C1048 0.930 . S
H1043 C1052 0.930 . S
H1044 C1057 0.929 . S
H1045 C1055 0.929 . S
H1046 C1050 0.929 . S
H1047 C1056 0.929 . S
C1048 H1042 0.930 . S
C1048 C1049 1.367 . S
C1048 C1056 1.378 . S
C1049 C1048 1.367 . S
C1049 C1057 1.433 . S
C1050 H1046 0.929 . S
C1050 C1052 1.378 . S
C1050 C1054 1.350 . S
C1051 C1054 1.463 1_565 S
C1051 C1056 1.350 . S
C1051 N1059 1.427 . S
C1052 H1043 0.930 . S
C1052 C1050 1.378 . S
C1052 C1053 1.367 . S
C1053 C1052 1.367 . S
C1053 C1055 1.433 . S
C1054 C1050 1.350 . S
C1054 C1051 1.463 1_545 S
C1054 N1058 1.427 . S
C1055 H1045 0.929 . S
C1055 C1053 1.433 . S
C1055 N1058 1.384 . S
C1056 H1047 0.929 . S
C1056 C1048 1.378 . S
C1056 C1051 1.350 . S
C1057 H1044 0.929 . S
C1057 C1049 1.433 . S
C1057 N1059 1.384 . S
N1058 C1054 1.427 . S
N1058 C1055 1.384 . S
N1059 C1051 1.427 . S
N1059 C1057 1.384 . S
H1060 C1066 0.930 . S
H1061 C1070 0.930 . S
H1062 C1075 0.929 . S
H1063 C1073 0.929 . S
H1064 C1068 0.929 1_565 S
H1065 C1074 0.929 1_545 S
C1066 H1060 0.930 . S
C1066 C1067 1.367 . S
C1066 C1074 1.378 . S
C1067 C1066 1.367 . S
C1067 C1075 1.433 1_556 S
C1068 H1064 0.929 1_545 S
C1068 C1070 1.378 . S
C1068 C1072 1.382 . S
C1069 C1072 1.458 1_466 S
C1069 C1074 1.382 . S
C1069 N1077 1.397 1_556 S
C1070 H1061 0.930 . S
C1070 C1068 1.378 . S
C1070 C1071 1.367 . S
C1071 C1070 1.367 . S
C1071 C1073 1.433 1_554 S
C1072 C1068 1.382 . S
C1072 C1069 1.458 1_644 S
C1072 N1076 1.397 1_554 S
C1073 H1063 0.929 . S
C1073 C1071 1.433 1_556 S
C1073 N1076 1.384 . S
C1074 H1065 0.929 1_565 S
C1074 C1066 1.378 . S
C1074 C1069 1.382 . S
C1075 H1062 0.929 . S
C1075 C1067 1.433 1_554 S
C1075 N1077 1.384 . S
N1076 C1072 1.397 1_556 S
N1076 C1073 1.384 . S
N1077 C1069 1.397 1_554 S
N1077 C1075 1.384 . S
H1078 C1084 0.930 . S
H1079 C1088 0.930 . S
H1080 C1093 0.929 . S
H1081 C1091 0.929 . S
H1082 C1086 0.929 . S
H1083 C1092 0.929 . S
C1084 H1078 0.930 . S
C1084 C1085 1.367 1_556 S
C1084 C1092 1.378 . S
C1085 C1084 1.367 1_554 S
C1085 C1093 1.433 . S
C1086 H1082 0.929 . S
C1086 C1088 1.378 . S
C1086 C1090 1.357 . S
C1087 C1090 1.462 1_556 S
C1087 C1092 1.357 . S
C1087 N1095 1.420 1_556 S
C1088 H1079 0.930 . S
C1088 C1086 1.378 . S
C1088 C1089 1.367 1_554 S
C1089 C1088 1.367 1_556 S
C1089 C1091 1.433 . S
C1090 C1086 1.357 . S
C1090 C1087 1.462 1_554 S
C1090 N1094 1.420 1_554 S
C1091 H1081 0.929 . S
C1091 C1089 1.433 . S
C1091 N1094 1.384 . S
C1092 H1083 0.929 . S
C1092 C1084 1.378 . S
C1092 C1087 1.357 . S
C1093 H1080 0.929 . S
C1093 C1085 1.433 . S
C1093 N1095 1.384 . S
N1094 C1090 1.420 1_556 S
N1094 C1091 1.384 . S
N1095 C1087 1.420 1_554 S
N1095 C1093 1.384 . S
H1096 C1102 0.930 . S
H1097 C1106 0.930 . S
H1098 C1111 0.929 . S
H1099 C1109 0.929 . S
H1100 C1104 0.929 . S
H1101 C1110 0.929 . S
C1102 H1096 0.930 . S
C1102 C1103 1.367 . S
C1102 C1110 1.378 . S
C1103 C1102 1.367 . S
C1103 C1111 1.433 . S
C1104 H1100 0.929 . S
C1104 C1106 1.378 . S
C1104 C1108 1.350 . S
C1105 C1108 1.463 1_655 S
C1105 C1110 1.350 . S
C1105 N1113 1.427 . S
C1106 H1097 0.930 . S
C1106 C1104 1.378 . S
C1106 C1107 1.367 . S
C1107 C1106 1.367 . S
C1107 C1109 1.433 . S
C1108 C1104 1.350 . S
C1108 C1105 1.463 1_455 S
C1108 N1112 1.427 . S
C1109 H1099 0.929 . S
C1109 C1107 1.433 . S
C1109 N1112 1.384 . S
C1110 H1101 0.929 . S
C1110 C1102 1.378 . S
C1110 C1105 1.350 . S
C1111 H1098 0.929 . S
C1111 C1103 1.433 . S
C1111 N1113 1.384 . S
N1112 C1108 1.427 . S
N1112 C1109 1.384 . S
N1113 C1105 1.427 . S
N1113 C1111 1.384 . S
H1114 C1120 0.930 . S
H1115 C1124 0.930 . S
H1116 C1129 0.929 . S
H1117 C1127 0.929 . S
H1118 C1122 0.929 . S
H1119 C1128 0.929 . S
C1120 H1114 0.930 . S
C1120 C1121 1.367 . S
C1120 C1128 1.378 . S
C1121 C1120 1.367 . S
C1121 C1129 1.433 . S
C1122 H1118 0.929 . S
C1122 C1124 1.378 . S
C1122 C1126 1.350 . S
C1123 C1126 1.463 1_565 S
C1123 C1128 1.350 . S
C1123 N1131 1.428 1_565 S
C1124 H1115 0.930 . S
C1124 C1122 1.378 . S
C1124 C1125 1.367 . S
C1125 C1124 1.367 . S
C1125 C1127 1.433 . S
C1126 C1122 1.350 . S
C1126 C1123 1.463 1_545 S
C1126 N1130 1.428 1_545 S
C1127 H1117 0.929 . S
C1127 C1125 1.433 . S
C1127 N1130 1.385 1_545 S
C1128 H1119 0.929 . S
C1128 C1120 1.378 . S
C1128 C1123 1.350 . S
C1129 H1116 0.929 . S
C1129 C1121 1.433 . S
C1129 N1131 1.385 1_565 S
N1130 C1126 1.428 1_565 S
N1130 C1127 1.385 1_565 S
N1131 C1123 1.428 1_545 S
N1131 C1129 1.385 1_545 S
H1132 C1138 0.930 . S
H1133 C1142 0.930 . S
H1134 C1147 0.929 . S
H1135 C1145 0.929 . S
H1136 C1140 0.929 . S
H1137 C1146 0.929 . S
C1138 H1132 0.930 . S
C1138 C1139 1.367 1_554 S
C1138 C1146 1.378 . S
C1139 C1138 1.367 1_556 S
C1139 C1147 1.433 . S
C1140 H1136 0.929 . S
C1140 C1142 1.378 . S
C1140 C1144 1.350 . S
C1141 C1144 1.463 1_554 S
C1141 C1146 1.350 . S
C1141 N1149 1.427 1_554 S
C1142 H1133 0.930 . S
C1142 C1140 1.378 . S
C1142 C1143 1.367 1_556 S
C1143 C1142 1.367 1_554 S
C1143 C1145 1.433 . S
C1144 C1140 1.350 . S
C1144 C1141 1.463 1_556 S
C1144 N1148 1.427 1_556 S
C1145 H1135 0.929 . S
C1145 C1143 1.433 . S
C1145 N1148 1.384 . S
C1146 H1137 0.929 . S
C1146 C1138 1.378 . S
C1146 C1141 1.350 . S
C1147 H1134 0.929 . S
C1147 C1139 1.433 . S
C1147 N1149 1.384 . S
N1148 C1144 1.427 1_554 S
N1148 C1145 1.384 . S
N1149 C1141 1.427 1_556 S
N1149 C1147 1.384 . S
H1150 C1156 0.930 . S
H1151 C1160 0.930 . S
H1152 C1165 0.929 . S
H1153 C1163 0.929 . S
H1154 C1158 0.929 . S
H1155 C1164 0.929 . S
C1156 H1150 0.930 . S
C1156 C1157 1.367 . S
C1156 C1164 1.378 . S
C1157 C1156 1.367 . S
C1157 C1165 1.433 . S
C1158 H1154 0.929 . S
C1158 C1160 1.378 . S
C1158 C1162 1.350 . S
C1159 C1162 1.463 . S
C1159 C1164 1.350 . S
C1159 N1167 1.427 . S
C1160 H1151 0.930 . S
C1160 C1158 1.378 . S
C1160 C1161 1.367 . S
C1161 C1160 1.367 . S
C1161 C1163 1.433 . S
C1162 C1158 1.350 . S
C1162 C1159 1.463 . S
C1162 N1166 1.427 . S
C1163 H1153 0.929 . S
C1163 C1161 1.433 . S
C1163 N1166 1.384 . S
C1164 H1155 0.929 . S
C1164 C1156 1.378 . S
C1164 C1159 1.350 . S
C1165 H1152 0.929 . S
C1165 C1157 1.433 . S
C1165 N1167 1.384 . S
N1166 C1162 1.427 . S
N1166 C1163 1.384 . S
N1167 C1159 1.427 . S
N1167 C1165 1.384 . S
H1168 C1174 0.930 . S
H1169 C1178 0.930 . S
H1170 C1183 0.929 . S
H1171 C1181 0.929 . S
H1172 C1176 0.929 . S
H1173 C1182 0.929 . S
C1174 H1168 0.930 . S
C1174 C1175 1.367 . S
C1174 C1182 1.378 . S
C1175 C1174 1.367 . S
C1175 C1183 1.433 . S
C1176 H1172 0.929 . S
C1176 C1178 1.378 . S
C1176 C1180 1.350 . S
C1177 C1180 1.463 1_655 S
C1177 C1182 1.350 . S
C1177 N1185 1.427 . S
C1178 H1169 0.930 . S
C1178 C1176 1.378 . S
C1178 C1179 1.367 . S
C1179 C1178 1.367 . S
C1179 C1181 1.433 . S
C1180 C1176 1.350 . S
C1180 C1177 1.463 1_455 S
C1180 N1184 1.427 . S
C1181 H1171 0.929 . S
C1181 C1179 1.433 . S
C1181 N1184 1.384 . S
C1182 H1173 0.929 . S
C1182 C1174 1.378 . S
C1182 C1177 1.350 . S
C1183 H1170 0.929 . S
C1183 C1175 1.433 . S
C1183 N1185 1.384 . S
N1184 C1180 1.427 . S
N1184 C1181 1.384 . S
N1185 C1177 1.427 . S
N1185 C1183 1.384 . S
H1186 C1192 0.930 . S
H1187 C1196 0.930 . S
H1188 C1201 0.929 . S
H1189 C1199 0.929 . S
H1190 C1194 0.929 . S
H1191 C1200 0.929 . S
C1192 H1186 0.930 . S
C1192 C1193 1.367 . S
C1192 C1200 1.378 . S
C1193 C1192 1.367 . S
C1193 C1201 1.433 . S
C1194 H1190 0.929 . S
C1194 C1196 1.378 . S
C1194 C1198 1.350 . S
C1195 C1198 1.463 . S
C1195 C1200 1.350 . S
C1195 N1203 1.427 . S
C1196 H1187 0.930 . S
C1196 C1194 1.378 . S
C1196 C1197 1.367 . S
C1197 C1196 1.367 . S
C1197 C1199 1.433 . S
C1198 C1194 1.350 . S
C1198 C1195 1.463 . S
C1198 N1202 1.427 . S
C1199 H1189 0.929 . S
C1199 C1197 1.433 . S
C1199 N1202 1.384 . S
C1200 H1191 0.929 . S
C1200 C1192 1.378 . S
C1200 C1195 1.350 . S
C1201 H1188 0.929 . S
C1201 C1193 1.433 . S
C1201 N1203 1.384 . S
N1202 C1198 1.427 . S
N1202 C1199 1.384 . S
N1203 C1195 1.427 . S
N1203 C1201 1.384 . S
H1204 C1210 0.930 . S
H1205 C1214 0.930 . S
H1206 C1219 0.929 . S
H1207 C1217 0.929 . S
H1208 C1212 0.929 . S
H1209 C1218 0.929 . S
C1210 H1204 0.930 . S
C1210 C1211 1.367 . S
C1210 C1218 1.378 . S
C1211 C1210 1.367 . S
C1211 C1219 1.433 . S
C1212 H1208 0.929 . S
C1212 C1214 1.378 . S
C1212 C1216 1.350 . S
C1213 C1216 1.463 . S
C1213 C1218 1.350 . S
C1213 N1221 1.427 . S
C1214 H1205 0.930 . S
C1214 C1212 1.378 . S
C1214 C1215 1.367 . S
C1215 C1214 1.367 . S
C1215 C1217 1.433 . S
C1216 C1212 1.350 . S
C1216 C1213 1.463 . S
C1216 N1220 1.427 . S
C1217 H1207 0.929 . S
C1217 C1215 1.433 . S
C1217 N1220 1.384 . S
C1218 H1209 0.929 . S
C1218 C1210 1.378 . S
C1218 C1213 1.350 . S
C1219 H1206 0.929 . S
C1219 C1211 1.433 . S
C1219 N1221 1.384 . S
N1220 C1216 1.427 . S
N1220 C1217 1.384 . S
N1221 C1213 1.427 . S
N1221 C1219 1.384 . S
H1222 C1228 0.930 . S
H1223 C1232 0.930 . S
H1224 C1237 0.929 . S
H1225 C1235 0.929 . S
H1226 C1230 0.929 . S
H1227 C1236 0.929 . S
C1228 H1222 0.930 . S
C1228 C1229 1.367 . S
C1228 C1236 1.378 . S
C1229 C1228 1.367 . S
C1229 C1237 1.433 . S
C1230 H1226 0.929 . S
C1230 C1232 1.378 . S
C1230 C1234 1.350 . S
C1231 C1234 1.463 . S
C1231 C1236 1.350 . S
C1231 N1239 1.427 . S
C1232 H1223 0.930 . S
C1232 C1230 1.378 . S
C1232 C1233 1.367 . S
C1233 C1232 1.367 . S
C1233 C1235 1.433 . S
C1234 C1230 1.350 . S
C1234 C1231 1.463 . S
C1234 N1238 1.427 . S
C1235 H1225 0.929 . S
C1235 C1233 1.433 . S
C1235 N1238 1.384 . S
C1236 H1227 0.929 . S
C1236 C1228 1.378 . S
C1236 C1231 1.350 . S
C1237 H1224 0.929 . S
C1237 C1229 1.433 . S
C1237 N1239 1.384 . S
N1238 C1234 1.427 . S
N1238 C1235 1.384 . S
N1239 C1231 1.427 . S
N1239 C1237 1.384 . S
H1240 C1246 0.930 . S
H1241 C1250 0.930 . S
H1242 C1255 0.929 . S
H1243 C1253 0.929 . S
H1244 C1248 0.929 . S
H1245 C1254 0.929 . S
C1246 H1240 0.930 . S
C1246 C1247 1.367 . S
C1246 C1254 1.378 . S
C1247 C1246 1.367 . S
C1247 C1255 1.433 . S
C1248 H1244 0.929 . S
C1248 C1250 1.378 . S
C1248 C1252 1.350 . S
C1249 C1252 1.463 . S
C1249 C1254 1.350 . S
C1249 N1257 1.427 . S
C1250 H1241 0.930 . S
C1250 C1248 1.378 . S
C1250 C1251 1.367 . S
C1251 C1250 1.367 . S
C1251 C1253 1.433 . S
C1252 C1248 1.350 . S
C1252 C1249 1.463 . S
C1252 N1256 1.427 . S
C1253 H1243 0.929 . S
C1253 C1251 1.433 . S
C1253 N1256 1.384 . S
C1254 H1245 0.929 . S
C1254 C1246 1.378 . S
C1254 C1249 1.350 . S
C1255 H1242 0.929 . S
C1255 C1247 1.433 . S
C1255 N1257 1.384 . S
N1256 C1252 1.427 . S
N1256 C1253 1.384 . S
N1257 C1249 1.427 . S
N1257 C1255 1.384 . S
H1258 C1264 0.930 . S
H1259 C1268 0.930 . S
H1260 C1273 0.929 . S
H1261 C1271 0.929 . S
H1262 C1266 0.929 1_545 S
H1263 C1272 0.929 1_565 S
C1264 H1258 0.930 . S
C1264 C1265 1.367 . S
C1264 C1272 1.378 . S
C1265 C1264 1.367 . S
C1265 C1273 1.433 . S
C1266 H1262 0.929 1_565 S
C1266 C1268 1.378 . S
C1266 C1270 1.350 . S
C1267 C1270 1.463 1_545 S
C1267 C1272 1.350 . S
C1267 N1275 1.427 . S
C1268 H1259 0.930 . S
C1268 C1266 1.378 . S
C1268 C1269 1.367 . S
C1269 C1268 1.367 . S
C1269 C1271 1.433 . S
C1270 C1266 1.350 . S
C1270 C1267 1.463 1_565 S
C1270 N1274 1.427 . S
C1271 H1261 0.929 . S
C1271 C1269 1.433 . S
C1271 N1274 1.384 . S
C1272 H1263 0.929 1_545 S
C1272 C1264 1.378 . S
C1272 C1267 1.350 . S
C1273 H1260 0.929 . S
C1273 C1265 1.433 . S
C1273 N1275 1.384 . S
N1274 C1270 1.427 . S
N1274 C1271 1.384 . S
N1275 C1267 1.427 . S
N1275 C1273 1.384 . S
H1276 C1282 0.930 . S
H1277 C1286 0.930 . S
H1278 C1291 0.929 . S
H1279 C1289 0.929 . S
H1280 C1284 0.929 . S
H1281 C1290 0.929 . S
C1282 H1276 0.930 . S
C1282 C1283 1.367 . S
C1282 C1290 1.378 . S
C1283 C1282 1.367 . S
C1283 C1291 1.433 . S
C1284 H1280 0.929 . S
C1284 C1286 1.378 . S
C1284 C1288 1.350 . S
C1285 C1288 1.463 . S
C1285 C1290 1.350 . S
C1285 N1293 1.427 . S
C1286 H1277 0.930 . S
C1286 C1284 1.378 . S
C1286 C1287 1.367 . S
C1287 C1286 1.367 . S
C1287 C1289 1.433 . S
C1288 C1284 1.350 . S
C1288 C1285 1.463 . S
C1288 N1292 1.427 . S
C1289 H1279 0.929 . S
C1289 C1287 1.433 . S
C1289 N1292 1.384 . S
C1290 H1281 0.929 . S
C1290 C1282 1.378 . S
C1290 C1285 1.350 . S
C1291 H1278 0.929 . S
C1291 C1283 1.433 . S
C1291 N1293 1.384 . S
N1292 C1288 1.427 . S
N1292 C1289 1.384 . S
N1293 C1285 1.427 . S
N1293 C1291 1.384 . S
H1294 C1300 0.930 . S
H1295 C1304 0.930 . S
H1296 C1309 0.929 . S
H1297 C1307 0.929 . S
H1298 C1302 0.929 . S
H1299 C1308 0.929 . S
C1300 H1294 0.930 . S
C1300 C1301 1.367 . S
C1300 C1308 1.378 . S
C1301 C1300 1.367 . S
C1301 C1309 1.433 1_556 S
C1302 H1298 0.929 . S
C1302 C1304 1.378 . S
C1302 C1306 1.350 . S
C1303 C1306 1.463 1_556 S
C1303 C1308 1.350 . S
C1303 N1311 1.427 1_556 S
C1304 H1295 0.930 . S
C1304 C1302 1.378 . S
C1304 C1305 1.367 . S
C1305 C1304 1.367 . S
C1305 C1307 1.433 1_554 S
C1306 C1302 1.350 . S
C1306 C1303 1.463 1_554 S
C1306 N1310 1.427 1_554 S
C1307 H1297 0.929 . S
C1307 C1305 1.433 1_556 S
C1307 N1310 1.384 . S
C1308 H1299 0.929 . S
C1308 C1300 1.378 . S
C1308 C1303 1.350 . S
C1309 H1296 0.929 . S
C1309 C1301 1.433 1_554 S
C1309 N1311 1.384 . S
N1310 C1306 1.427 1_556 S
N1310 C1307 1.384 . S
N1311 C1303 1.427 1_554 S
N1311 C1309 1.384 . S
H1312 C1318 0.930 . S
H1313 C1322 0.930 . S
H1314 C1327 0.929 . S
H1315 C1325 0.929 . S
H1316 C1320 0.929 . S
H1317 C1326 0.929 . S
C1318 H1312 0.930 . S
C1318 C1319 1.367 . S
C1318 C1326 1.378 . S
C1319 C1318 1.367 . S
C1319 C1327 1.433 . S
C1320 H1316 0.929 . S
C1320 C1322 1.378 . S
C1320 C1324 1.350 . S
C1321 C1324 1.463 . S
C1321 C1326 1.350 . S
C1321 N1329 1.427 . S
C1322 H1313 0.930 . S
C1322 C1320 1.378 . S
C1322 C1323 1.367 . S
C1323 C1322 1.367 . S
C1323 C1325 1.433 . S
C1324 C1320 1.350 . S
C1324 C1321 1.463 . S
C1324 N1328 1.427 . S
C1325 H1315 0.929 . S
C1325 C1323 1.433 . S
C1325 N1328 1.384 . S
C1326 H1317 0.929 . S
C1326 C1318 1.378 . S
C1326 C1321 1.350 . S
C1327 H1314 0.929 . S
C1327 C1319 1.433 . S
C1327 N1329 1.384 . S
N1328 C1324 1.427 . S
N1328 C1325 1.384 . S
N1329 C1321 1.427 . S
N1329 C1327 1.384 . S
H1330 C1336 0.930 . S
H1331 C1340 0.930 . S
H1332 C1345 0.929 . S
H1333 C1343 0.929 . S
H1334 C1338 0.929 . S
H1335 C1344 0.929 . S
C1336 H1330 0.930 . S
C1336 C1337 1.367 . S
C1336 C1344 1.378 . S
C1337 C1336 1.367 . S
C1337 C1345 1.433 . S
C1338 H1334 0.929 . S
C1338 C1340 1.378 . S
C1338 C1342 1.350 . S
C1339 C1342 1.463 . S
C1339 C1344 1.350 . S
C1339 N1347 1.427 . S
C1340 H1331 0.930 . S
C1340 C1338 1.378 . S
C1340 C1341 1.367 . S
C1341 C1340 1.367 . S
C1341 C1343 1.433 . S
C1342 C1338 1.350 . S
C1342 C1339 1.463 . S
C1342 N1346 1.427 . S
C1343 H1333 0.929 . S
C1343 C1341 1.433 . S
C1343 N1346 1.384 . S
C1344 H1335 0.929 . S
C1344 C1336 1.378 . S
C1344 C1339 1.350 . S
C1345 H1332 0.929 . S
C1345 C1337 1.433 . S
C1345 N1347 1.384 . S
N1346 C1342 1.427 . S
N1346 C1343 1.384 . S
N1347 C1339 1.427 . S
N1347 C1345 1.384 . S
H1348 C1354 0.930 . S
H1349 C1358 0.930 . S
H1350 C1363 0.929 . S
H1351 C1361 0.929 . S
H1352 C1356 0.929 . S
H1353 C1362 0.929 . S
C1354 H1348 0.930 . S
C1354 C1355 1.367 . S
C1354 C1362 1.378 . S
C1355 C1354 1.367 . S
C1355 C1363 1.433 . S
C1356 H1352 0.929 . S
C1356 C1358 1.378 . S
C1356 C1360 1.350 . S
C1357 C1360 1.463 . S
C1357 C1362 1.350 . S
C1357 N1365 1.427 . S
C1358 H1349 0.930 . S
C1358 C1356 1.378 . S
C1358 C1359 1.367 . S
C1359 C1358 1.367 . S
C1359 C1361 1.433 . S
C1360 C1356 1.350 . S
C1360 C1357 1.463 . S
C1360 N1364 1.427 . S
C1361 H1351 0.929 . S
C1361 C1359 1.433 . S
C1361 N1364 1.384 . S
C1362 H1353 0.929 . S
C1362 C1354 1.378 . S
C1362 C1357 1.350 . S
C1363 H1350 0.929 . S
C1363 C1355 1.433 . S
C1363 N1365 1.384 . S
N1364 C1360 1.427 . S
N1364 C1361 1.384 . S
N1365 C1357 1.427 . S
N1365 C1363 1.384 . S
H1366 C1372 0.930 . S
H1367 C1376 0.930 . S
H1368 C1381 0.929 . S
H1369 C1379 0.929 . S
H1370 C1374 0.929 . S
H1371 C1380 0.929 . S
C1372 H1366 0.930 . S
C1372 C1373 1.367 . S
C1372 C1380 1.378 . S
C1373 C1372 1.367 . S
C1373 C1381 1.433 . S
C1374 H1370 0.929 . S
C1374 C1376 1.378 . S
C1374 C1378 1.350 . S
C1375 C1378 1.463 . S
C1375 C1380 1.350 . S
C1375 N1383 1.427 . S
C1376 H1367 0.930 . S
C1376 C1374 1.378 . S
C1376 C1377 1.367 . S
C1377 C1376 1.367 . S
C1377 C1379 1.433 . S
C1378 C1374 1.350 . S
C1378 C1375 1.463 . S
C1378 N1382 1.427 . S
C1379 H1369 0.929 . S
C1379 C1377 1.433 . S
C1379 N1382 1.384 . S
C1380 H1371 0.929 . S
C1380 C1372 1.378 . S
C1380 C1375 1.350 . S
C1381 H1368 0.929 . S
C1381 C1373 1.433 . S
C1381 N1383 1.384 . S
N1382 C1378 1.427 . S
N1382 C1379 1.384 . S
N1383 C1375 1.427 . S
N1383 C1381 1.384 . S
H1384 C1390 0.930 . S
H1385 C1394 0.930 . S
H1386 C1399 0.929 . S
H1387 C1397 0.929 . S
H1388 C1392 0.929 . S
H1389 C1398 0.929 . S
C1390 H1384 0.930 . S
C1390 C1391 1.367 . S
C1390 C1398 1.378 . S
C1391 C1390 1.367 . S
C1391 C1399 1.433 . S
C1392 H1388 0.929 . S
C1392 C1394 1.378 . S
C1392 C1396 1.350 . S
C1393 C1396 1.463 . S
C1393 C1398 1.350 . S
C1393 N1401 1.427 . S
C1394 H1385 0.930 . S
C1394 C1392 1.378 . S
C1394 C1395 1.367 . S
C1395 C1394 1.367 . S
C1395 C1397 1.433 . S
C1396 C1392 1.350 . S
C1396 C1393 1.463 . S
C1396 N1400 1.427 . S
C1397 H1387 0.929 . S
C1397 C1395 1.433 . S
C1397 N1400 1.384 . S
C1398 H1389 0.929 . S
C1398 C1390 1.378 . S
C1398 C1393 1.350 . S
C1399 H1386 0.929 . S
C1399 C1391 1.433 . S
C1399 N1401 1.384 . S
N1400 C1396 1.427 . S
N1400 C1397 1.384 . S
N1401 C1393 1.427 . S
N1401 C1399 1.384 . S
H1402 C1408 0.930 . S
H1403 C1412 0.930 . S
H1404 C1417 0.929 . S
H1405 C1415 0.929 . S
H1406 C1410 0.929 . S
H1407 C1416 0.929 . S
C1408 H1402 0.930 . S
C1408 C1409 1.367 . S
C1408 C1416 1.378 . S
C1409 C1408 1.367 . S
C1409 C1417 1.433 . S
C1410 H1406 0.929 . S
C1410 C1412 1.378 . S
C1410 C1414 1.350 . S
C1411 C1414 1.463 . S
C1411 C1416 1.350 . S
C1411 N1419 1.427 . S
C1412 H1403 0.930 . S
C1412 C1410 1.378 . S
C1412 C1413 1.367 . S
C1413 C1412 1.367 . S
C1413 C1415 1.433 . S
C1414 C1410 1.350 . S
C1414 C1411 1.463 . S
C1414 N1418 1.427 . S
C1415 H1405 0.929 . S
C1415 C1413 1.433 . S
C1415 N1418 1.384 . S
C1416 H1407 0.929 . S
C1416 C1408 1.378 . S
C1416 C1411 1.350 . S
C1417 H1404 0.929 . S
C1417 C1409 1.433 . S
C1417 N1419 1.384 . S
N1418 C1414 1.427 . S
N1418 C1415 1.384 . S
N1419 C1411 1.427 . S
N1419 C1417 1.384 . S
H1420 C1426 0.930 . S
H1421 C1430 0.930 . S
H1422 C1435 0.929 . S
H1423 C1433 0.929 . S
H1424 C1428 0.929 . S
H1425 C1434 0.929 . S
C1426 H1420 0.930 . S
C1426 C1427 1.367 . S
C1426 C1434 1.378 . S
C1427 C1426 1.367 . S
C1427 C1435 1.433 . S
C1428 H1424 0.929 . S
C1428 C1430 1.378 . S
C1428 C1432 1.350 . S
C1429 C1432 1.463 . S
C1429 C1434 1.350 . S
C1429 N1437 1.427 . S
C1430 H1421 0.930 . S
C1430 C1428 1.378 . S
C1430 C1431 1.367 . S
C1431 C1430 1.367 . S
C1431 C1433 1.433 . S
C1432 C1428 1.350 . S
C1432 C1429 1.463 . S
C1432 N1436 1.427 . S
C1433 H1423 0.929 . S
C1433 C1431 1.433 . S
C1433 N1436 1.384 . S
C1434 H1425 0.929 . S
C1434 C1426 1.378 . S
C1434 C1429 1.350 . S
C1435 H1422 0.929 . S
C1435 C1427 1.433 . S
C1435 N1437 1.384 . S
N1436 C1432 1.427 . S
N1436 C1433 1.384 . S
N1437 C1429 1.427 . S
N1437 C1435 1.384 . S
H1438 C1444 0.930 . S
H1439 C1448 0.930 . S
H1440 C1453 0.929 . S
H1441 C1451 0.929 . S
H1442 C1446 0.929 . S
H1443 C1452 0.929 . S
C1444 H1438 0.930 . S
C1444 C1445 1.367 . S
C1444 C1452 1.378 . S
C1445 C1444 1.367 . S
C1445 C1453 1.433 . S
C1446 H1442 0.929 . S
C1446 C1448 1.378 . S
C1446 C1450 1.350 . S
C1447 C1450 1.463 . S
C1447 C1452 1.350 . S
C1447 N1455 1.427 . S
C1448 H1439 0.930 . S
C1448 C1446 1.378 . S
C1448 C1449 1.367 . S
C1449 C1448 1.367 . S
C1449 C1451 1.433 . S
C1450 C1446 1.350 . S
C1450 C1447 1.463 . S
C1450 N1454 1.427 . S
C1451 H1441 0.929 . S
C1451 C1449 1.433 . S
C1451 N1454 1.384 . S
C1452 H1443 0.929 . S
C1452 C1444 1.378 . S
C1452 C1447 1.350 . S
C1453 H1440 0.929 . S
C1453 C1445 1.433 . S
C1453 N1455 1.384 . S
N1454 C1450 1.427 . S
N1454 C1451 1.384 . S
N1455 C1447 1.427 . S
N1455 C1453 1.384 . S
H1456 C1462 0.930 . S
H1457 C1466 0.930 . S
H1458 C1471 0.929 . S
H1459 C1469 0.929 . S
H1460 C1464 0.929 . S
H1461 C1470 0.929 . S
C1462 H1456 0.930 . S
C1462 C1463 1.367 . S
C1462 C1470 1.378 . S
C1463 C1462 1.367 . S
C1463 C1471 1.433 . S
C1464 H1460 0.929 . S
C1464 C1466 1.378 . S
C1464 C1468 1.350 . S
C1465 C1468 1.463 . S
C1465 C1470 1.350 . S
C1465 N1473 1.427 . S
C1466 H1457 0.930 . S
C1466 C1464 1.378 . S
C1466 C1467 1.367 . S
C1467 C1466 1.367 . S
C1467 C1469 1.433 . S
C1468 C1464 1.350 . S
C1468 C1465 1.463 . S
C1468 N1472 1.427 . S
C1469 H1459 0.929 . S
C1469 C1467 1.433 . S
C1469 N1472 1.384 . S
C1470 H1461 0.929 . S
C1470 C1462 1.378 . S
C1470 C1465 1.350 . S
C1471 H1458 0.929 . S
C1471 C1463 1.433 . S
C1471 N1473 1.384 . S
N1472 C1468 1.427 . S
N1472 C1469 1.384 . S
N1473 C1465 1.427 . S
N1473 C1471 1.384 . S
H1474 C1480 0.930 . S
H1475 C1484 0.930 . S
H1476 C1489 0.929 . S
H1477 C1487 0.929 . S
H1478 C1482 0.929 . S
H1479 C1488 0.929 . S
C1480 H1474 0.930 . S
C1480 C1481 1.367 . S
C1480 C1488 1.378 . S
C1481 C1480 1.367 . S
C1481 C1489 1.433 . S
C1482 H1478 0.929 . S
C1482 C1484 1.378 . S
C1482 C1486 1.350 . S
C1483 C1486 1.463 . S
C1483 C1488 1.350 . S
C1483 N1491 1.427 . S
C1484 H1475 0.930 . S
C1484 C1482 1.378 . S
C1484 C1485 1.367 . S
C1485 C1484 1.367 . S
C1485 C1487 1.433 . S
C1486 C1482 1.350 . S
C1486 C1483 1.463 . S
C1486 N1490 1.427 . S
C1487 H1477 0.929 . S
C1487 C1485 1.433 . S
C1487 N1490 1.384 . S
C1488 H1479 0.929 . S
C1488 C1480 1.378 . S
C1488 C1483 1.350 . S
C1489 H1476 0.929 . S
C1489 C1481 1.433 . S
C1489 N1491 1.384 . S
N1490 C1486 1.427 . S
N1490 C1487 1.384 . S
N1491 C1483 1.427 . S
N1491 C1489 1.384 . S
H1492 C1498 0.930 . S
H1493 C1502 0.930 . S
H1494 C1507 0.929 . S
H1495 C1505 0.929 . S
H1496 C1500 0.929 . S
H1497 C1506 0.929 . S
C1498 H1492 0.930 . S
C1498 C1499 1.367 . S
C1498 C1506 1.378 . S
C1499 C1498 1.367 . S
C1499 C1507 1.433 . S
C1500 H1496 0.929 . S
C1500 C1502 1.378 . S
C1500 C1504 1.350 . S
C1501 C1504 1.463 . S
C1501 C1506 1.350 . S
C1501 N1509 1.427 . S
C1502 H1493 0.930 . S
C1502 C1500 1.378 . S
C1502 C1503 1.367 . S
C1503 C1502 1.367 . S
C1503 C1505 1.433 . S
C1504 C1500 1.350 . S
C1504 C1501 1.463 . S
C1504 N1508 1.427 . S
C1505 H1495 0.929 . S
C1505 C1503 1.433 . S
C1505 N1508 1.384 . S
C1506 H1497 0.929 . S
C1506 C1498 1.378 . S
C1506 C1501 1.350 . S
C1507 H1494 0.929 . S
C1507 C1499 1.433 . S
C1507 N1509 1.384 . S
N1508 C1504 1.427 . S
N1508 C1505 1.384 . S
N1509 C1501 1.427 . S
N1509 C1507 1.384 . S
H1510 C1516 0.930 . S
H1511 C1520 0.930 . S
H1512 C1525 0.929 . S
H1513 C1523 0.929 . S
H1514 C1518 0.929 . S
H1515 C1524 0.929 . S
C1516 H1510 0.930 . S
C1516 C1517 1.367 . S
C1516 C1524 1.378 . S
C1517 C1516 1.367 . S
C1517 C1525 1.433 . S
C1518 H1514 0.929 . S
C1518 C1520 1.378 . S
C1518 C1522 1.350 . S
C1519 C1522 1.463 . S
C1519 C1524 1.350 . S
C1519 N1527 1.427 . S
C1520 H1511 0.930 . S
C1520 C1518 1.378 . S
C1520 C1521 1.367 . S
C1521 C1520 1.367 . S
C1521 C1523 1.433 . S
C1522 C1518 1.350 . S
C1522 C1519 1.463 . S
C1522 N1526 1.427 . S
C1523 H1513 0.929 . S
C1523 C1521 1.433 . S
C1523 N1526 1.384 . S
C1524 H1515 0.929 . S
C1524 C1516 1.378 . S
C1524 C1519 1.350 . S
C1525 H1512 0.929 . S
C1525 C1517 1.433 . S
C1525 N1527 1.384 . S
N1526 C1522 1.427 . S
N1526 C1523 1.384 . S
N1527 C1519 1.427 . S
N1527 C1525 1.384 . S
H1528 C1534 0.930 . S
H1529 C1538 0.930 . S
H1530 C1543 0.929 . S
H1531 C1541 0.929 . S
H1532 C1536 0.929 . S
H1533 C1542 0.929 . S
C1534 H1528 0.930 . S
C1534 C1535 1.367 . S
C1534 C1542 1.378 . S
C1535 C1534 1.367 . S
C1535 C1543 1.433 . S
C1536 H1532 0.929 . S
C1536 C1538 1.378 . S
C1536 C1540 1.350 . S
C1537 C1540 1.463 . S
C1537 C1542 1.350 . S
C1537 N1545 1.427 . S
C1538 H1529 0.930 . S
C1538 C1536 1.378 . S
C1538 C1539 1.367 . S
C1539 C1538 1.367 . S
C1539 C1541 1.433 . S
C1540 C1536 1.350 . S
C1540 C1537 1.463 . S
C1540 N1544 1.427 . S
C1541 H1531 0.929 . S
C1541 C1539 1.433 . S
C1541 N1544 1.384 . S
C1542 H1533 0.929 . S
C1542 C1534 1.378 . S
C1542 C1537 1.350 . S
C1543 H1530 0.929 . S
C1543 C1535 1.433 . S
C1543 N1545 1.384 . S
N1544 C1540 1.427 . S
N1544 C1541 1.384 . S
N1545 C1537 1.427 . S
N1545 C1543 1.384 . S
H1546 C1552 0.930 . S
H1547 C1556 0.930 . S
H1548 C1561 0.929 . S
H1549 C1559 0.929 . S
H1550 C1554 0.929 . S
H1551 C1560 0.929 . S
C1552 H1546 0.930 . S
C1552 C1553 1.367 . S
C1552 C1560 1.378 . S
C1553 C1552 1.367 . S
C1553 C1561 1.433 . S
C1554 H1550 0.929 . S
C1554 C1556 1.378 . S
C1554 C1558 1.350 . S
C1555 C1558 1.463 . S
C1555 C1560 1.350 . S
C1555 N1563 1.427 . S
C1556 H1547 0.930 . S
C1556 C1554 1.378 . S
C1556 C1557 1.367 . S
C1557 C1556 1.367 . S
C1557 C1559 1.433 . S
C1558 C1554 1.350 . S
C1558 C1555 1.463 . S
C1558 N1562 1.427 . S
C1559 H1549 0.929 . S
C1559 C1557 1.433 . S
C1559 N1562 1.384 . S
C1560 H1551 0.929 . S
C1560 C1552 1.378 . S
C1560 C1555 1.350 . S
C1561 H1548 0.929 . S
C1561 C1553 1.433 . S
C1561 N1563 1.384 . S
N1562 C1558 1.427 . S
N1562 C1559 1.384 . S
N1563 C1555 1.427 . S
N1563 C1561 1.384 . S
H1564 C1570 0.930 . S
H1565 C1574 0.930 . S
H1566 C1579 0.929 . S
H1567 C1577 0.929 . S
H1568 C1572 0.929 . S
H1569 C1578 0.929 . S
C1570 H1564 0.930 . S
C1570 C1571 1.367 . S
C1570 C1578 1.378 . S
C1571 C1570 1.367 . S
C1571 C1579 1.433 . S
C1572 H1568 0.929 . S
C1572 C1574 1.378 . S
C1572 C1576 1.350 . S
C1573 C1576 1.463 . S
C1573 C1578 1.350 . S
C1573 N1581 1.427 . S
C1574 H1565 0.930 . S
C1574 C1572 1.378 . S
C1574 C1575 1.367 . S
C1575 C1574 1.367 . S
C1575 C1577 1.433 . S
C1576 C1572 1.350 . S
C1576 C1573 1.463 . S
C1576 N1580 1.427 . S
C1577 H1567 0.929 . S
C1577 C1575 1.433 . S
C1577 N1580 1.384 . S
C1578 H1569 0.929 . S
C1578 C1570 1.378 . S
C1578 C1573 1.350 . S
C1579 H1566 0.929 . S
C1579 C1571 1.433 . S
C1579 N1581 1.384 . S
N1580 C1576 1.427 . S
N1580 C1577 1.384 . S
N1581 C1573 1.427 . S
N1581 C1579 1.384 . S
H1582 C1588 0.930 . S
H1583 C1592 0.930 . S
H1584 C1597 0.929 . S
H1585 C1595 0.929 . S
H1586 C1590 0.929 . S
H1587 C1596 0.929 . S
C1588 H1582 0.930 . S
C1588 C1589 1.367 . S
C1588 C1596 1.378 . S
C1589 C1588 1.367 . S
C1589 C1597 1.433 . S
C1590 H1586 0.929 . S
C1590 C1592 1.378 . S
C1590 C1594 1.350 . S
C1591 C1594 1.463 . S
C1591 C1596 1.350 . S
C1591 N1599 1.427 . S
C1592 H1583 0.930 . S
C1592 C1590 1.378 . S
C1592 C1593 1.367 . S
C1593 C1592 1.367 . S
C1593 C1595 1.433 . S
C1594 C1590 1.350 . S
C1594 C1591 1.463 . S
C1594 N1598 1.427 . S
C1595 H1585 0.929 . S
C1595 C1593 1.433 . S
C1595 N1598 1.384 . S
C1596 H1587 0.929 . S
C1596 C1588 1.378 . S
C1596 C1591 1.350 . S
C1597 H1584 0.929 . S
C1597 C1589 1.433 . S
C1597 N1599 1.384 . S
N1598 C1594 1.427 . S
N1598 C1595 1.384 . S
N1599 C1591 1.427 . S
N1599 C1597 1.384 . S
H1600 C1606 0.930 . S
H1601 C1610 0.930 . S
H1602 C1615 0.929 . S
H1603 C1613 0.929 . S
H1604 C1608 0.929 . S
H1605 C1614 0.929 . S
C1606 H1600 0.930 . S
C1606 C1607 1.367 . S
C1606 C1614 1.378 . S
C1607 C1606 1.367 . S
C1607 C1615 1.433 . S
C1608 H1604 0.929 . S
C1608 C1610 1.378 . S
C1608 C1612 1.350 . S
C1609 C1612 1.463 . S
C1609 C1614 1.350 . S
C1609 N1617 1.427 . S
C1610 H1601 0.930 . S
C1610 C1608 1.378 . S
C1610 C1611 1.367 . S
C1611 C1610 1.367 . S
C1611 C1613 1.433 . S
C1612 C1608 1.350 . S
C1612 C1609 1.463 . S
C1612 N1616 1.427 . S
C1613 H1603 0.929 . S
C1613 C1611 1.433 . S
C1613 N1616 1.384 . S
C1614 H1605 0.929 . S
C1614 C1606 1.378 . S
C1614 C1609 1.350 . S
C1615 H1602 0.929 . S
C1615 C1607 1.433 . S
C1615 N1617 1.384 . S
N1616 C1612 1.427 . S
N1616 C1613 1.384 . S
N1617 C1609 1.427 . S
N1617 C1615 1.384 . S
H1618 C1624 0.930 . S
H1619 C1628 0.930 . S
H1620 C1633 0.929 . S
H1621 C1631 0.929 . S
H1622 C1626 0.929 . S
H1623 C1632 0.929 . S
C1624 H1618 0.930 . S
C1624 C1625 1.367 . S
C1624 C1632 1.378 . S
C1625 C1624 1.367 . S
C1625 C1633 1.433 . S
C1626 H1622 0.929 . S
C1626 C1628 1.378 . S
C1626 C1630 1.350 . S
C1627 C1630 1.463 . S
C1627 C1632 1.350 . S
C1627 N1635 1.427 . S
C1628 H1619 0.930 . S
C1628 C1626 1.378 . S
C1628 C1629 1.367 . S
C1629 C1628 1.367 . S
C1629 C1631 1.433 . S
C1630 C1626 1.350 . S
C1630 C1627 1.463 . S
C1630 N1634 1.427 . S
C1631 H1621 0.929 . S
C1631 C1629 1.433 . S
C1631 N1634 1.384 . S
C1632 H1623 0.929 . S
C1632 C1624 1.378 . S
C1632 C1627 1.350 . S
C1633 H1620 0.929 . S
C1633 C1625 1.433 . S
C1633 N1635 1.384 . S
N1634 C1630 1.427 . S
N1634 C1631 1.384 . S
N1635 C1627 1.427 . S
N1635 C1633 1.384 . S
H1636 C1642 0.930 . S
H1637 C1646 0.930 . S
H1638 C1651 0.929 . S
H1639 C1649 0.929 . S
H1640 C1644 0.929 . S
H1641 C1650 0.929 . S
C1642 H1636 0.930 . S
C1642 C1643 1.367 . S
C1642 C1650 1.378 . S
C1643 C1642 1.367 . S
C1643 C1651 1.433 1_556 S
C1644 H1640 0.929 . S
C1644 C1646 1.378 . S
C1644 C1648 1.350 1_554 S
C1645 C1648 1.463 . S
C1645 C1650 1.350 . S
C1645 N1653 1.427 1_556 S
C1646 H1637 0.930 . S
C1646 C1644 1.378 . S
C1646 C1647 1.367 1_554 S
C1647 C1646 1.367 1_556 S
C1647 C1649 1.433 . S
C1648 C1644 1.350 1_556 S
C1648 C1645 1.463 . S
C1648 N1652 1.427 . S
C1649 H1639 0.929 . S
C1649 C1647 1.433 . S
C1649 N1652 1.384 . S
C1650 H1641 0.929 . S
C1650 C1642 1.378 . S
C1650 C1645 1.350 . S
C1651 H1638 0.929 . S
C1651 C1643 1.433 1_554 S
C1651 N1653 1.384 . S
N1652 C1648 1.427 . S
N1652 C1649 1.384 . S
N1653 C1645 1.427 1_554 S
N1653 C1651 1.384 . S
H1654 C1660 0.930 . S
H1655 C1664 0.930 . S
H1656 C1669 0.929 . S
H1657 C1667 0.929 . S
H1658 C1662 0.929 . S
H1659 C1668 0.929 . S
C1660 H1654 0.930 . S
C1660 C1661 1.367 1_554 S
C1660 C1668 1.378 . S
C1661 C1660 1.367 1_556 S
C1661 C1669 1.433 . S
C1662 H1658 0.929 . S
C1662 C1664 1.378 . S
C1662 C1666 1.350 . S
C1663 C1666 1.463 . S
C1663 C1668 1.350 1_556 S
C1663 N1671 1.427 . S
C1664 H1655 0.930 . S
C1664 C1662 1.378 . S
C1664 C1665 1.367 . S
C1665 C1664 1.367 . S
C1665 C1667 1.433 1_556 S
C1666 C1662 1.350 . S
C1666 C1663 1.463 . S
C1666 N1670 1.427 1_556 S
C1667 H1657 0.929 . S
C1667 C1665 1.433 1_554 S
C1667 N1670 1.384 . S
C1668 H1659 0.929 . S
C1668 C1660 1.378 . S
C1668 C1663 1.350 1_554 S
C1669 H1656 0.929 . S
C1669 C1661 1.433 . S
C1669 N1671 1.384 . S
N1670 C1666 1.427 1_554 S
N1670 C1667 1.384 . S
N1671 C1663 1.427 . S
N1671 C1669 1.384 . S
H1672 C1678 0.930 . S
H1673 C1682 0.930 . S
H1674 C1687 0.929 . S
H1675 C1685 0.929 . S
H1676 C1680 0.929 . S
H1677 C1686 0.929 . S
C1678 H1672 0.930 . S
C1678 C1679 1.367 . S
C1678 C1686 1.378 . S
C1679 C1678 1.367 . S
C1679 C1687 1.433 . S
C1680 H1676 0.929 . S
C1680 C1682 1.378 . S
C1680 C1684 1.350 . S
C1681 C1684 1.463 . S
C1681 C1686 1.350 . S
C1681 N1689 1.427 . S
C1682 H1673 0.930 . S
C1682 C1680 1.378 . S
C1682 C1683 1.367 . S
C1683 C1682 1.367 . S
C1683 C1685 1.433 . S
C1684 C1680 1.350 . S
C1684 C1681 1.463 . S
C1684 N1688 1.427 . S
C1685 H1675 0.929 . S
C1685 C1683 1.433 . S
C1685 N1688 1.384 . S
C1686 H1677 0.929 . S
C1686 C1678 1.378 . S
C1686 C1681 1.350 . S
C1687 H1674 0.929 . S
C1687 C1679 1.433 . S
C1687 N1689 1.384 . S
N1688 C1684 1.427 . S
N1688 C1685 1.384 . S
N1689 C1681 1.427 . S
N1689 C1687 1.384 . S
H1690 C1696 0.930 . S
H1691 C1700 0.930 . S
H1692 C1705 0.929 . S
H1693 C1703 0.929 . S
H1694 C1698 0.929 . S
H1695 C1704 0.929 . S
C1696 H1690 0.930 . S
C1696 C1697 1.367 . S
C1696 C1704 1.378 . S
C1697 C1696 1.367 . S
C1697 C1705 1.433 . S
C1698 H1694 0.929 . S
C1698 C1700 1.378 . S
C1698 C1702 1.350 . S
C1699 C1702 1.463 . S
C1699 C1704 1.350 . S
C1699 N1707 1.427 . S
C1700 H1691 0.930 . S
C1700 C1698 1.378 . S
C1700 C1701 1.367 . S
C1701 C1700 1.367 . S
C1701 C1703 1.433 . S
C1702 C1698 1.350 . S
C1702 C1699 1.463 . S
C1702 N1706 1.427 . S
C1703 H1693 0.929 . S
C1703 C1701 1.433 . S
C1703 N1706 1.384 . S
C1704 H1695 0.929 . S
C1704 C1696 1.378 . S
C1704 C1699 1.350 . S
C1705 H1692 0.929 . S
C1705 C1697 1.433 . S
C1705 N1707 1.384 . S
N1706 C1702 1.427 . S
N1706 C1703 1.384 . S
N1707 C1699 1.427 . S
N1707 C1705 1.384 . S
H1708 C1714 0.930 . S
H1709 C1718 0.930 . S
H1710 C1723 0.929 . S
H1711 C1721 0.929 . S
H1712 C1716 0.929 . S
H1713 C1722 0.929 . S
C1714 H1708 0.930 . S
C1714 C1715 1.367 1_556 S
C1714 C1722 1.378 . S
C1715 C1714 1.367 1_554 S
C1715 C1723 1.433 . S
C1716 H1712 0.929 . S
C1716 C1718 1.378 . S
C1716 C1720 1.350 . S
C1717 C1720 1.463 . S
C1717 C1722 1.350 1_554 S
C1717 N1725 1.427 . S
C1718 H1709 0.930 . S
C1718 C1716 1.378 . S
C1718 C1719 1.367 . S
C1719 C1718 1.367 . S
C1719 C1721 1.433 1_554 S
C1720 C1716 1.350 . S
C1720 C1717 1.463 . S
C1720 N1724 1.427 1_554 S
C1721 H1711 0.929 . S
C1721 C1719 1.433 1_556 S
C1721 N1724 1.384 . S
C1722 H1713 0.929 . S
C1722 C1714 1.378 . S
C1722 C1717 1.350 1_556 S
C1723 H1710 0.929 . S
C1723 C1715 1.433 . S
C1723 N1725 1.384 . S
N1724 C1720 1.427 1_556 S
N1724 C1721 1.384 . S
N1725 C1717 1.427 . S
N1725 C1723 1.384 . S
H1726 C1732 0.930 . S
H1727 C1736 0.930 . S
H1728 C1741 0.929 . S
H1729 C1739 0.929 . S
H1730 C1734 0.929 . S
H1731 C1740 0.929 . S
C1732 H1726 0.930 . S
C1732 C1733 1.367 . S
C1732 C1740 1.378 . S
C1733 C1732 1.367 . S
C1733 C1741 1.433 1_554 S
C1734 H1730 0.929 . S
C1734 C1736 1.378 . S
C1734 C1738 1.350 1_556 S
C1735 C1738 1.463 . S
C1735 C1740 1.350 . S
C1735 N1743 1.427 1_554 S
C1736 H1727 0.930 . S
C1736 C1734 1.378 . S
C1736 C1737 1.367 1_556 S
C1737 C1736 1.367 1_554 S
C1737 C1739 1.433 . S
C1738 C1734 1.350 1_554 S
C1738 C1735 1.463 . S
C1738 N1742 1.427 . S
C1739 H1729 0.929 . S
C1739 C1737 1.433 . S
C1739 N1742 1.384 . S
C1740 H1731 0.929 . S
C1740 C1732 1.378 . S
C1740 C1735 1.350 . S
C1741 H1728 0.929 . S
C1741 C1733 1.433 1_556 S
C1741 N1743 1.384 . S
N1742 C1738 1.427 . S
N1742 C1739 1.384 . S
N1743 C1735 1.427 1_556 S
N1743 C1741 1.384 . S
H1744 C1750 0.930 . S
H1745 C1754 0.930 . S
H1746 C1759 0.929 . S
H1747 C1757 0.929 . S
H1748 C1752 0.929 . S
H1749 C1758 0.929 . S
C1750 H1744 0.930 . S
C1750 C1751 1.367 . S
C1750 C1758 1.378 . S
C1751 C1750 1.367 . S
C1751 C1759 1.433 . S
C1752 H1748 0.929 . S
C1752 C1754 1.378 . S
C1752 C1756 1.350 . S
C1753 C1756 1.463 . S
C1753 C1758 1.350 . S
C1753 N1761 1.427 . S
C1754 H1745 0.930 . S
C1754 C1752 1.378 . S
C1754 C1755 1.367 . S
C1755 C1754 1.367 . S
C1755 C1757 1.433 . S
C1756 C1752 1.350 . S
C1756 C1753 1.463 . S
C1756 N1760 1.427 . S
C1757 H1747 0.929 . S
C1757 C1755 1.433 . S
C1757 N1760 1.384 . S
C1758 H1749 0.929 . S
C1758 C1750 1.378 . S
C1758 C1753 1.350 . S
C1759 H1746 0.929 . S
C1759 C1751 1.433 . S
C1759 N1761 1.384 . S
N1760 C1756 1.427 . S
N1760 C1757 1.384 . S
N1761 C1753 1.427 . S
N1761 C1759 1.384 . S
H1762 C1768 0.930 . S
H1763 C1772 0.930 . S
H1764 C1777 0.929 . S
H1765 C1775 0.929 . S
H1766 C1770 0.929 . S
H1767 C1776 0.929 . S
C1768 H1762 0.930 . S
C1768 C1769 1.367 . S
C1768 C1776 1.378 . S
C1769 C1768 1.367 . S
C1769 C1777 1.433 . S
C1770 H1766 0.929 . S
C1770 C1772 1.378 . S
C1770 C1774 1.350 . S
C1771 C1774 1.463 . S
C1771 C1776 1.350 . S
C1771 N1779 1.427 . S
C1772 H1763 0.930 . S
C1772 C1770 1.378 . S
C1772 C1773 1.367 . S
C1773 C1772 1.367 . S
C1773 C1775 1.433 . S
C1774 C1770 1.350 . S
C1774 C1771 1.463 . S
C1774 N1778 1.427 . S
C1775 H1765 0.929 . S
C1775 C1773 1.433 . S
C1775 N1778 1.384 . S
C1776 H1767 0.929 . S
C1776 C1768 1.378 . S
C1776 C1771 1.350 . S
C1777 H1764 0.929 . S
C1777 C1769 1.433 . S
C1777 N1779 1.384 . S
N1778 C1774 1.427 . S
N1778 C1775 1.384 . S
N1779 C1771 1.427 . S
N1779 C1777 1.384 . S
H1780 C1786 0.930 . S
H1781 C1790 0.930 . S
H1782 C1795 0.929 . S
H1783 C1793 0.929 . S
H1784 C1788 0.929 . S
H1785 C1794 0.929 . S
C1786 H1780 0.930 . S
C1786 C1787 1.367 . S
C1786 C1794 1.378 . S
C1787 C1786 1.367 . S
C1787 C1795 1.433 . S
C1788 H1784 0.929 . S
C1788 C1790 1.378 . S
C1788 C1792 1.350 . S
C1789 C1792 1.463 . S
C1789 C1794 1.350 . S
C1789 N1797 1.427 . S
C1790 H1781 0.930 . S
C1790 C1788 1.378 . S
C1790 C1791 1.367 . S
C1791 C1790 1.367 . S
C1791 C1793 1.433 . S
C1792 C1788 1.350 . S
C1792 C1789 1.463 . S
C1792 N1796 1.427 . S
C1793 H1783 0.929 . S
C1793 C1791 1.433 . S
C1793 N1796 1.384 . S
C1794 H1785 0.929 . S
C1794 C1786 1.378 . S
C1794 C1789 1.350 . S
C1795 H1782 0.929 . S
C1795 C1787 1.433 . S
C1795 N1797 1.384 . S
N1796 C1792 1.427 . S
N1796 C1793 1.384 . S
N1797 C1789 1.427 . S
N1797 C1795 1.384 . S
H1798 C1804 0.930 . S
H1799 C1808 0.930 . S
H1800 C1813 0.929 . S
H1801 C1811 0.929 . S
H1802 C1806 0.929 . S
H1803 C1812 0.929 . S
C1804 H1798 0.930 . S
C1804 C1805 1.367 . S
C1804 C1812 1.378 . S
C1805 C1804 1.367 . S
C1805 C1813 1.433 . S
C1806 H1802 0.929 . S
C1806 C1808 1.378 . S
C1806 C1810 1.350 . S
C1807 C1810 1.463 . S
C1807 C1812 1.350 . S
C1807 N1815 1.427 . S
C1808 H1799 0.930 . S
C1808 C1806 1.378 . S
C1808 C1809 1.367 . S
C1809 C1808 1.367 . S
C1809 C1811 1.433 . S
C1810 C1806 1.350 . S
C1810 C1807 1.463 . S
C1810 N1814 1.427 . S
C1811 H1801 0.929 . S
C1811 C1809 1.433 . S
C1811 N1814 1.384 . S
C1812 H1803 0.929 . S
C1812 C1804 1.378 . S
C1812 C1807 1.350 . S
C1813 H1800 0.929 . S
C1813 C1805 1.433 . S
C1813 N1815 1.384 . S
N1814 C1810 1.427 . S
N1814 C1811 1.384 . S
N1815 C1807 1.427 . S
N1815 C1813 1.384 . S
H1816 C1822 0.930 . S
H1817 C1826 0.930 . S
H1818 C1831 0.929 . S
H1819 C1829 0.929 . S
H1820 C1824 0.929 . S
H1821 C1830 0.929 . S
C1822 H1816 0.930 . S
C1822 C1823 1.367 . S
C1822 C1830 1.378 . S
C1823 C1822 1.367 . S
C1823 C1831 1.433 . S
C1824 H1820 0.929 . S
C1824 C1826 1.378 . S
C1824 C1828 1.350 . S
C1825 C1828 1.463 . S
C1825 C1830 1.350 . S
C1825 N1833 1.427 . S
C1826 H1817 0.930 . S
C1826 C1824 1.378 . S
C1826 C1827 1.367 . S
C1827 C1826 1.367 . S
C1827 C1829 1.433 . S
C1828 C1824 1.350 . S
C1828 C1825 1.463 . S
C1828 N1832 1.427 . S
C1829 H1819 0.929 . S
C1829 C1827 1.433 . S
C1829 N1832 1.384 . S
C1830 H1821 0.929 . S
C1830 C1822 1.378 . S
C1830 C1825 1.350 . S
C1831 H1818 0.929 . S
C1831 C1823 1.433 . S
C1831 N1833 1.384 . S
N1832 C1828 1.427 . S
N1832 C1829 1.384 . S
N1833 C1825 1.427 . S
N1833 C1831 1.384 . S
H1834 C1840 0.930 . S
H1835 C1844 0.930 . S
H1836 C1849 0.929 . S
H1837 C1847 0.929 . S
H1838 C1842 0.929 . S
H1839 C1848 0.929 . S
C1840 H1834 0.930 . S
C1840 C1841 1.367 . S
C1840 C1848 1.378 . S
C1841 C1840 1.367 . S
C1841 C1849 1.433 . S
C1842 H1838 0.929 . S
C1842 C1844 1.378 . S
C1842 C1846 1.350 . S
C1843 C1846 1.463 . S
C1843 C1848 1.350 . S
C1843 N1851 1.427 . S
C1844 H1835 0.930 . S
C1844 C1842 1.378 . S
C1844 C1845 1.367 . S
C1845 C1844 1.367 . S
C1845 C1847 1.433 . S
C1846 C1842 1.350 . S
C1846 C1843 1.463 . S
C1846 N1850 1.427 . S
C1847 H1837 0.929 . S
C1847 C1845 1.433 . S
C1847 N1850 1.384 . S
C1848 H1839 0.929 . S
C1848 C1840 1.378 . S
C1848 C1843 1.350 . S
C1849 H1836 0.929 . S
C1849 C1841 1.433 . S
C1849 N1851 1.384 . S
N1850 C1846 1.427 . S
N1850 C1847 1.384 . S
N1851 C1843 1.427 . S
N1851 C1849 1.384 . S
H1852 C1858 0.930 . S
H1853 C1862 0.930 . S
H1854 C1867 0.929 . S
H1855 C1865 0.929 . S
H1856 C1860 0.929 . S
H1857 C1866 0.929 . S
C1858 H1852 0.930 . S
C1858 C1859 1.367 . S
C1858 C1866 1.378 . S
C1859 C1858 1.367 . S
C1859 C1867 1.433 . S
C1860 H1856 0.929 . S
C1860 C1862 1.378 . S
C1860 C1864 1.350 . S
C1861 C1864 1.463 . S
C1861 C1866 1.350 . S
C1861 N1869 1.427 . S
C1862 H1853 0.930 . S
C1862 C1860 1.378 . S
C1862 C1863 1.367 . S
C1863 C1862 1.367 . S
C1863 C1865 1.433 . S
C1864 C1860 1.350 . S
C1864 C1861 1.463 . S
C1864 N1868 1.427 . S
C1865 H1855 0.929 . S
C1865 C1863 1.433 . S
C1865 N1868 1.384 . S
C1866 H1857 0.929 . S
C1866 C1858 1.378 . S
C1866 C1861 1.350 . S
C1867 H1854 0.929 . S
C1867 C1859 1.433 . S
C1867 N1869 1.384 . S
N1868 C1864 1.427 . S
N1868 C1865 1.384 . S
N1869 C1861 1.427 . S
N1869 C1867 1.384 . S
H1870 C1876 0.930 . S
H1871 C1880 0.930 . S
H1872 C1885 0.929 . S
H1873 C1883 0.929 . S
H1874 C1878 0.929 . S
H1875 C1884 0.929 . S
C1876 H1870 0.930 . S
C1876 C1877 1.367 . S
C1876 C1884 1.378 . S
C1877 C1876 1.367 . S
C1877 C1885 1.433 . S
C1878 H1874 0.929 . S
C1878 C1880 1.378 . S
C1878 C1882 1.350 . S
C1879 C1882 1.463 . S
C1879 C1884 1.350 . S
C1879 N1887 1.427 . S
C1880 H1871 0.930 . S
C1880 C1878 1.378 . S
C1880 C1881 1.367 . S
C1881 C1880 1.367 . S
C1881 C1883 1.433 . S
C1882 C1878 1.350 . S
C1882 C1879 1.463 . S
C1882 N1886 1.427 . S
C1883 H1873 0.929 . S
C1883 C1881 1.433 . S
C1883 N1886 1.384 . S
C1884 H1875 0.929 . S
C1884 C1876 1.378 . S
C1884 C1879 1.350 . S
C1885 H1872 0.929 . S
C1885 C1877 1.433 . S
C1885 N1887 1.384 . S
N1886 C1882 1.427 . S
N1886 C1883 1.384 . S
N1887 C1879 1.427 . S
N1887 C1885 1.384 . S
C743 C7 1.659 . S
C747 C76 1.661 . S
C761 C53 1.659 . S
C765 C30 1.665 . S
C779 C99 1.665 . S
C783 C168 1.659 . S
C797 C145 1.659 . S
C801 C122 1.663 . S
C815 C191 1.664 . S
C819 C260 1.658 . S
C833 C237 1.660 . S
C837 C214 1.661 . S
C851 C283 1.665 . S
C855 C352 1.660 . S
C869 C306 1.660 . S
C873 C329 1.665 . S
C887 C444 1.662 . S
C891 C375 1.664 . S
C905 C398 1.664 . S
C909 C421 1.658 . S
C923 C467 1.665 . S
C927 C536 1.660 . S
C941 C513 1.665 . S
C945 C490 1.659 . S
C959 C559 1.665 . S
C963 C628 1.660 . S
C977 C605 1.665 . S
C981 C582 1.658 . S
C995 C651 1.665 . S
C999 C720 1.660 . S
C1013 C674 1.658 . S
C1017 C697 1.663 . S
C1031 N288 1.475 . S
C1035 N12 1.475 . S
C1049 N35 1.476 . S
C1053 N495 1.476 . S
C1067 N58 1.470 . S
C1071 N150 1.470 . S
C1085 N725 1.478 . S
C1089 N81 1.478 . S
C1103 N104 1.478 . S
C1107 N196 1.478 . S
C1121 N403 1.470 . S
C1125 N127 1.470 . S
C1139 N633 1.476 . S
C1143 N173 1.476 . S
C1157 N679 1.477 . S
C1161 N219 1.477 . S
C1175 N334 1.473 . S
C1179 N242 1.473 . S
C1193 N541 1.478 . S
C1197 N265 1.478 . S
C1211 N311 1.471 . S
C1215 N587 1.471 . S
C1229 N449 1.477 . S
C1233 N357 1.477 . S
C1247 N656 1.473 . S
C1251 N380 1.473 . S
C1265 N518 1.470 . S
C1269 N426 1.470 . S
C1283 N564 1.468 . S
C1287 N472 1.468 . S
C1301 N610 1.468 . S
C1305 N702 1.468 . S
C1319 C246 1.688 . S
C1323 C16 1.690 . S
C1337 C39 1.687 . S
C1341 C269 1.693 . S
C1355 C200 1.687 . S
C1359 C62 1.691 . S
C1373 C223 1.695 . S
C1377 C85 1.688 . S
C1391 C108 1.693 . S
C1395 C338 1.687 . S
C1409 C131 1.690 . S
C1413 C361 1.698 . S
C1427 C292 1.700 . S
C1431 C154 1.696 . S
C1445 C177 1.688 . S
C1449 C315 1.689 . S
C1463 C614 1.690 . S
C1467 C384 1.688 . S
C1481 C637 1.690 . S
C1485 C407 1.698 . S
C1499 C430 1.700 . S
C1503 C568 1.694 . S
C1517 C453 1.690 . S
C1521 C591 1.688 . S
C1535 C476 1.697 . S
C1539 C706 1.689 . S
C1553 C499 1.689 . S
C1557 C729 1.697 . S
C1571 C660 1.696 . S
C1575 C522 1.700 . S
C1589 C683 1.695 . S
C1593 C545 1.700 . S
C1607 N2 1.469 . S
C1611 N577 1.476 . S
C1625 N554 1.470 . S
C1629 N25 1.478 . S
C1643 N48 1.483 . S
C1647 N623 1.477 . S
C1661 N71 1.475 . S
C1665 N600 1.482 . S
C1679 N94 1.470 . S
C1683 N669 1.477 . S
C1697 N117 1.469 . S
C1701 N646 1.468 . S
C1715 N715 1.479 . S
C1719 N140 1.484 . S
C1733 N692 1.484 . S
C1737 N163 1.479 . S
C1751 N393 1.474 . S
C1755 N186 1.481 . S
C1769 N370 1.474 . S
C1773 N209 1.468 . S
C1787 N232 1.481 . S
C1791 N439 1.483 . S
C1805 N255 1.475 . S
C1809 N416 1.482 . S
C1823 N485 1.482 . S
C1827 N278 1.475 . S
C1841 N301 1.471 . S
C1845 N462 1.478 . S
C1859 N324 1.469 . S
C1863 N531 1.476 . S
C1877 N347 1.468 . S
C1881 N508 1.472 . S
