# Generated by pormake.
# Topology vbn, (6)-cn, num edge types: 1
# Building blocks:
#     Node 0, Type 0, BuildingBlock: MIDCAF_clean_sbu_0, # of connection points: 6
#     Node 1, Type 0, BuildingBlock: MIDCAF_clean_sbu_0, # of connection points: 6
#     Node 2, Type 0, BuildingBlock: MIDCAF_clean_sbu_0, # of connection points: 6
#     Node 3, Type 0, BuildingBlock: MIDCAF_clean_sbu_0, # of connection points: 6
#     Node 4, Type 0, BuildingBlock: MIDCAF_clean_sbu_0, # of connection points: 6
#     Node 5, Type 0, BuildingBlock: MIDCAF_clean_sbu_0, # of connection points: 6
#     Node 6, Type 0, BuildingBlock: MIDCAF_clean_sbu_0, # of connection points: 6
#     Node 7, Type 0, BuildingBlock: MIDCAF_clean_sbu_0, # of connection points: 6
#     Edge 8, Type (0, 0), BuildingBlock: XIVTED_clean_linker_0, # of connection points: 2
#     Edge 9, Type (0, 0), BuildingBlock: XIVTED_clean_linker_0, # of connection points: 2
#     Edge 10, Type (0, 0), BuildingBlock: XIVTED_clean_linker_0, # of connection points: 2
#     Edge 11, Type (0, 0), BuildingBlock: XIVTED_clean_linker_0, # of connection points: 2
#     Edge 12, Type (0, 0), BuildingBlock: XIVTED_clean_linker_0, # of connection points: 2
#     Edge 13, Type (0, 0), BuildingBlock: XIVTED_clean_linker_0, # of connection points: 2
#     Edge 14, Type (0, 0), BuildingBlock: XIVTED_clean_linker_0, # of connection points: 2
#     Edge 15, Type (0, 0), BuildingBlock: XIVTED_clean_linker_0, # of connection points: 2
#     Edge 16, Type (0, 0), BuildingBlock: XIVTED_clean_linker_0, # of connection points: 2
#     Edge 17, Type (0, 0), BuildingBlock: XIVTED_clean_linker_0, # of connection points: 2
#     Edge 18, Type (0, 0), BuildingBlock: XIVTED_clean_linker_0, # of connection points: 2
#     Edge 19, Type (0, 0), BuildingBlock: XIVTED_clean_linker_0, # of connection points: 2
#     Edge 20, Type (0, 0), BuildingBlock: XIVTED_clean_linker_0, # of connection points: 2
#     Edge 21, Type (0, 0), BuildingBlock: XIVTED_clean_linker_0, # of connection points: 2
#     Edge 22, Type (0, 0), BuildingBlock: XIVTED_clean_linker_0, # of connection points: 2
#     Edge 23, Type (0, 0), BuildingBlock: XIVTED_clean_linker_0, # of connection points: 2
#     Edge 24, Type (0, 0), BuildingBlock: XIVTED_clean_linker_0, # of connection points: 2
#     Edge 25, Type (0, 0), BuildingBlock: XIVTED_clean_linker_0, # of connection points: 2
#     Edge 26, Type (0, 0), BuildingBlock: XIVTED_clean_linker_0, # of connection points: 2
#     Edge 27, Type (0, 0), BuildingBlock: XIVTED_clean_linker_0, # of connection points: 2
#     Edge 28, Type (0, 0), BuildingBlock: XIVTED_clean_linker_0, # of connection points: 2
#     Edge 29, Type (0, 0), BuildingBlock: XIVTED_clean_linker_0, # of connection points: 2
#     Edge 30, Type (0, 0), BuildingBlock: XIVTED_clean_linker_0, # of connection points: 2
#     Edge 31, Type (0, 0), BuildingBlock: XIVTED_clean_linker_0, # of connection points: 2
# Relax obj value: 0.265
# Max RMSD: 0.222
# Mean RMSD: 0.222
data_MOF--net-vbn--node1-MIDCAF_clean_sbu_0--edge1-XIVTED_clean_linker_0
_symmetry_space_group_name_H-M    P1
_symmetry_Int_Tables_number       1
_symmetry_cell_setting            triclinic
loop_
_symmetry_equiv_pos_as_xyz
'x, y, z'
_cell_length_a     25.280241
_cell_length_b     26.570982
_cell_length_c     45.784963
_cell_angle_alpha  89.983755
_cell_angle_beta   89.984104
_cell_angle_gamma 89.753699
loop_
_atom_site_label
_atom_site_type_symbol
_atom_site_fract_x
_atom_site_fract_y
_atom_site_fract_z
_atom_type_partial_charge
Zn0 Zn 0.38435 0.34394 0.44851 0.0
Zn1 Zn 0.42431 0.22411 0.37928 0.0
Zn2 Zn 0.38301 0.29743 0.40519 0.0
C3 C 0.30753 0.22804 0.37623 0.0
C4 C 0.46121 0.30784 0.35045 0.0
O5 O 0.43272 0.36391 0.39952 0.0
O6 O 0.45925 0.36758 0.44536 0.0
C7 C 0.34272 0.2595 0.46968 0.0
O8 O 0.31036 0.27338 0.38566 0.0
O9 O 0.34876 0.2007 0.37478 0.0
O10 O 0.45782 0.26095 0.34649 0.0
O11 O 0.43853 0.32828 0.37255 0.0
O12 O 0.35206 0.30267 0.47995 0.0
O13 O 0.36266 0.24805 0.44446 0.0
O14 O 0.30628 0.33032 0.3986 0.0
O15 O 0.32968 0.38857 0.43025 0.0
C16 C 0.29835 0.37314 0.41069 0.0
O17 O 0.42811 0.25919 0.43952 0.0
O18 O 0.4749 0.20804 0.41208 0.0
C19 C 0.46307 0.38268 0.4192 0.0
C20 C 0.46814 0.22996 0.4363 0.0
Zn21 Zn 0.03527 0.24524 0.89264 0.0
Zn22 Zn 0.19211 0.14248 0.93178 0.0
Zn23 Zn 0.11703 0.18874 0.91348 0.0
C24 C 0.15271 0.08154 0.88976 0.0
C25 C 0.23833 0.22723 0.9194 0.0
O26 O 0.05203 0.18683 0.9457 0.0
O27 O 0.98716 0.23197 0.92612 0.0
C28 C 0.05737 0.16827 0.85207 0.0
O29 O 0.13023 0.1237 0.88329 0.0
O30 O 0.17924 0.0776 0.91291 0.0
O31 O 0.25344 0.18202 0.91826 0.0
O32 O 0.18832 0.2372 0.91963 0.0
O33 O 0.02581 0.2042 0.85708 0.0
O34 O 0.09463 0.15737 0.87027 0.0
O35 O 0.14417 0.26611 0.9095 0.0
O36 O 0.0768 0.30953 0.89108 0.0
C37 C 0.12378 0.30771 0.90045 0.0
O38 O 0.09598 0.15795 0.95635 0.0
O39 O 0.17563 0.14335 0.97415 0.0
C40 C 0.00494 0.20543 0.94681 0.0
C41 C 0.12617 0.14481 0.97775 0.0
Zn42 Zn 0.95414 0.24782 0.6082 0.0
Zn43 Zn 0.763 0.10254 0.60844 0.0
Zn44 Zn 0.893 0.1758 0.59465 0.0
C45 C 0.84907 0.09689 0.64066 0.0
C46 C 0.76419 0.19981 0.57403 0.0
O47 O 0.96102 0.1796 0.56311 0.0
O48 O 0.99283 0.25507 0.57099 0.0
C49 C 0.9686 0.17436 0.65028 0.0
O50 O 0.88871 0.10907 0.62451 0.0
O51 O 0.81064 0.12732 0.64107 0.0
O52 O 0.74121 0.16174 0.58486 0.0
O53 O 0.81452 0.20852 0.57756 0.0
O54 O 0.99245 0.21247 0.6405 0.0
O55 O 0.92765 0.15803 0.637 0.0
O56 O 0.84238 0.24225 0.6029 0.0
O57 O 0.89943 0.29776 0.61943 0.0
C58 C 0.85218 0.28555 0.61418 0.0
O59 O 0.85514 0.11033 0.58187 0.0
O60 O 0.79612 0.05136 0.57954 0.0
C61 C 0.99388 0.2146 0.55656 0.0
C62 C 0.84052 0.06846 0.57133 0.0
Zn63 Zn 0.53582 0.26398 0.112 0.0
Zn64 Zn 0.68547 0.37051 0.06964 0.0
Zn65 Zn 0.6157 0.32058 0.09137 0.0
C66 C 0.64647 0.42853 0.11409 0.0
C67 C 0.73783 0.28704 0.08256 0.0
O68 O 0.54955 0.32005 0.05963 0.0
O69 O 0.48484 0.27609 0.07981 0.0
C70 C 0.55755 0.33911 0.15381 0.0
O71 O 0.62696 0.38556 0.12113 0.0
O72 O 0.67044 0.43369 0.09017 0.0
O73 O 0.74976 0.33294 0.08083 0.0
O74 O 0.68879 0.27437 0.08485 0.0
O75 O 0.52645 0.30314 0.14862 0.0
O76 O 0.59371 0.35116 0.1352 0.0
O77 O 0.64839 0.24445 0.09773 0.0
O78 O 0.57923 0.20036 0.11251 0.0
C79 C 0.62781 0.20254 0.106 0.0
O80 O 0.59008 0.35081 0.04791 0.0
O81 O 0.66625 0.37121 0.02774 0.0
C82 C 0.50244 0.30176 0.05879 0.0
C83 C 0.61679 0.36652 0.02566 0.0
Zn84 Zn 0.67003 0.6336 0.5579 0.0
Zn85 Zn 0.54463 0.74466 0.60531 0.0
Zn86 Zn 0.60868 0.68516 0.58112 0.0
C87 C 0.64307 0.7903 0.61033 0.0
C88 C 0.54294 0.65697 0.6383 0.0
O89 O 0.57821 0.66451 0.53697 0.0
O90 O 0.6548 0.64762 0.51635 0.0
C91 C 0.73282 0.70499 0.5704 0.0
O92 O 0.65383 0.75473 0.59213 0.0
O93 O 0.59743 0.79283 0.62148 0.0
O94 O 0.51392 0.69465 0.63289 0.0
O95 O 0.58404 0.64822 0.62241 0.0
O96 O 0.73964 0.65802 0.57166 0.0
O97 O 0.68556 0.72307 0.57298 0.0
O98 O 0.61876 0.61421 0.60724 0.0
O99 O 0.64715 0.56664 0.57118 0.0
C100 C 0.63081 0.57039 0.59705 0.0
O101 O 0.54079 0.69843 0.55066 0.0
O102 O 0.50239 0.76486 0.57066 0.0
C103 C 0.60548 0.65327 0.514 0.0
C104 C 0.50577 0.73384 0.54989 0.0
Zn105 Zn 0.89958 0.82745 0.04444 0.0
Zn106 Zn 0.96417 0.74461 0.12333 0.0
Zn107 Zn 0.91021 0.79435 0.08986 0.0
C108 C 0.85829 0.7061 0.12296 0.0
C109 C 0.95139 0.84455 0.14689 0.0
O110 O 0.94009 0.87041 0.09308 0.0
O111 O 0.97281 0.86125 0.04881 0.0
C112 C 0.83624 0.75034 0.0457 0.0
O113 O 0.85072 0.74342 0.10574 0.0
O114 O 0.90455 0.69645 0.13211 0.0
O115 O 0.97358 0.80239 0.1511 0.0
O116 O 0.92365 0.85219 0.12365 0.0
O117 O 0.87633 0.75901 0.02973 0.0
O118 O 0.83704 0.76565 0.07228 0.0
O119 O 0.8807 0.87185 0.0996 0.0
O120 O 0.83715 0.87069 0.05812 0.0
C121 C 0.84235 0.88858 0.08358 0.0
O122 O 0.97488 0.76824 0.06266 0.0
O123 O 0.02387 0.72936 0.09509 0.0
C124 C 0.97395 0.88304 0.07349 0.0
C125 C 0.01754 0.7452 0.06925 0.0
Zn126 Zn 0.19434 0.91973 0.4498 0.0
Zn127 Zn 0.03196 0.75328 0.36155 0.0
Zn128 Zn 0.09867 0.80943 0.38951 0.0
C129 C 0.13232 0.70178 0.3704 0.0
C130 C 0.04763 0.84612 0.33073 0.0
O131 O 0.05854 0.83158 0.42859 0.0
O132 O 0.12908 0.87356 0.4399 0.0
C133 C 0.20161 0.80826 0.41941 0.0
O134 O 0.14498 0.74118 0.38508 0.0
O135 O 0.08865 0.69991 0.35687 0.0
O136 O 0.01958 0.80688 0.33172 0.0
O137 O 0.08392 0.85367 0.34987 0.0
O138 O 0.18022 0.85109 0.42509 0.0
O139 O 0.17557 0.77852 0.40273 0.0
O140 O 0.11459 0.88341 0.36944 0.0
O141 O 0.15525 0.89571 0.41078 0.0
C142 C 0.13861 0.91382 0.38657 0.0
O143 O 0.02965 0.79335 0.41692 0.0
O144 O 0.97601 0.74334 0.39237 0.0
C145 C 0.08087 0.86313 0.44556 0.0
C146 C 0.98726 0.76687 0.41549 0.0
Zn147 Zn 0.42414 0.67124 0.953 0.0
Zn148 Zn 0.46778 0.76809 0.86856 0.0
Zn149 Zn 0.41174 0.70255 0.89712 0.0
C150 C 0.35752 0.79576 0.86674 0.0
C151 C 0.46939 0.67545 0.83772 0.0
O152 O 0.42967 0.62574 0.88921 0.0
O153 O 0.48332 0.63781 0.92654 0.0
C154 C 0.3369 0.73956 0.93964 0.0
O155 O 0.35196 0.7552 0.88152 0.0
O156 O 0.40334 0.81005 0.85932 0.0
O157 O 0.49211 0.71767 0.83901 0.0
O158 O 0.43482 0.66345 0.8569 0.0
O159 O 0.38005 0.73826 0.95405 0.0
O160 O 0.33657 0.72283 0.91342 0.0
O161 O 0.36291 0.6382 0.90987 0.0
O162 O 0.36933 0.61796 0.95646 0.0
C163 C 0.34872 0.61094 0.9316 0.0
O164 O 0.47467 0.73172 0.92502 0.0
O165 O 0.51958 0.78686 0.89963 0.0
C166 C 0.46943 0.61152 0.90461 0.0
C167 C 0.51334 0.76211 0.92293 0.0
H168 H 0.14836 0.96117 0.33332 0.0
H169 H 0.21937 0.22206 0.41065 0.0
H170 H 0.14035 0.98987 0.42591 0.0
H171 H 0.28345 0.17412 0.32802 0.0
H172 H 0.15842 0.15028 0.40949 0.0
H173 H 0.16843 0.0508 0.32527 0.0
C174 C 0.15002 0.98647 0.35184 0.0
C175 C 0.14422 0.96806 0.38035 0.0
C176 C 0.1846 0.15654 0.39113 0.0
C177 C 0.1657 0.0701 0.37137 0.0
C178 C 0.21888 0.19779 0.39165 0.0
C179 C 0.25699 0.20316 0.36969 0.0
C180 C 0.18839 0.12121 0.3683 0.0
C181 C 0.25483 0.17076 0.34552 0.0
C182 C 0.16131 0.03747 0.34728 0.0
C183 C 0.14613 0.00236 0.40363 0.0
N184 N 0.22192 0.13051 0.3457 0.0
N185 N 0.1571 0.05159 0.39867 0.0
H186 H 0.16607 0.36687 0.85775 0.0
H187 H 0.30658 0.54874 0.97302 0.0
H188 H 0.14675 0.35471 0.95091 0.0
H189 H 0.306 0.5775 0.88018 0.0
H190 H 0.24906 0.47666 0.96506 0.0
H191 H 0.21829 0.44382 0.86498 0.0
C192 C 0.17297 0.38064 0.87968 0.0
C193 C 0.15345 0.35447 0.90387 0.0
C194 C 0.26118 0.49892 0.94642 0.0
C195 C 0.21232 0.44163 0.91238 0.0
C196 C 0.29407 0.54011 0.95096 0.0
C197 C 0.31115 0.5692 0.92723 0.0
C198 C 0.24542 0.48646 0.91792 0.0
C199 C 0.29368 0.55617 0.89912 0.0
C200 C 0.2026 0.42434 0.88384 0.0
C201 C 0.16249 0.37359 0.93185 0.0
N202 N 0.26198 0.51555 0.89522 0.0
N203 N 0.19163 0.41588 0.9354 0.0
H204 H 0.69036 0.56334 0.64612 0.0
H205 H 0.74408 0.27179 0.61512 0.0
H206 H 0.59343 0.47608 0.5879 0.0
H207 H 0.86361 0.38352 0.63089 0.0
H208 H 0.67555 0.33703 0.6215 0.0
H209 H 0.73816 0.4864 0.65981 0.0
C210 C 0.67708 0.52756 0.63753 0.0
C211 C 0.63829 0.52591 0.61572 0.0
C212 C 0.71687 0.34688 0.62379 0.0
C213 C 0.69334 0.4384 0.63059 0.0
C214 C 0.75586 0.30998 0.61947 0.0
C215 C 0.8096 0.32259 0.62079 0.0
C216 C 0.73195 0.39632 0.6306 0.0
C217 C 0.82274 0.37205 0.62886 0.0
C218 C 0.70498 0.48382 0.64492 0.0
C219 C 0.62331 0.47871 0.60477 0.0
N220 N 0.78429 0.40706 0.63325 0.0
N221 N 0.65162 0.43683 0.61184 0.0
H222 H 0.73277 0.19072 0.12055 0.0
H223 H 0.7447 0.91014 0.06318 0.0
H224 H 0.59481 0.10783 0.09382 0.0
H225 H 0.86257 0.96483 0.12331 0.0
H226 H 0.69199 0.98535 0.07198 0.0
H227 H 0.78469 0.11211 0.11913 0.0
C228 C 0.71358 0.15606 0.11423 0.0
C229 C 0.65977 0.15584 0.10666 0.0
C230 C 0.7292 0.98095 0.08345 0.0
C231 C 0.71826 0.06619 0.10554 0.0
C232 C 0.75942 0.93802 0.07839 0.0
C233 C 0.8085 0.9316 0.09219 0.0
C234 C 0.74839 0.01853 0.10208 0.0
C235 C 0.82525 0.96868 0.11195 0.0
C236 C 0.74297 0.11124 0.11381 0.0
C237 C 0.63628 0.10974 0.09959 0.0
N238 N 0.79558 0.01116 0.11598 0.0
N239 N 0.66576 0.06696 0.09888 0.0
H240 H 0.89589 0.01148 0.61656 0.0
H241 H 0.64297 0.8471 0.65976 0.0
H242 H 0.77259 0.05892 0.67571 0.0
H243 H 0.73408 0.8204 0.58177 0.0
H244 H 0.70474 0.91296 0.67367 0.0
H245 H 0.85273 0.92902 0.61238 0.0
C246 C 0.86063 0.00422 0.62928 0.0
C247 C 0.83643 0.04292 0.64549 0.0
C248 C 0.71173 0.89229 0.65364 0.0
C249 C 0.78784 0.94864 0.64138 0.0
C250 C 0.67629 0.85474 0.64557 0.0
C251 C 0.68322 0.82799 0.61938 0.0
C252 C 0.75465 0.90373 0.63539 0.0
C253 C 0.72762 0.83936 0.60221 0.0
C254 C 0.83585 0.95725 0.62671 0.0
C255 C 0.7917 0.03076 0.6622 0.0
N256 N 0.76144 0.8767 0.61034 0.0
N257 N 0.76847 0.9851 0.65937 0.0
H258 H 0.75274 0.71397 0.10902 0.0
H259 H 0.70169 0.43751 0.16454 0.0
H260 H 0.86273 0.62413 0.15896 0.0
H261 H 0.59859 0.51844 0.10617 0.0
H262 H 0.74391 0.51687 0.17794 0.0
H263 H 0.68283 0.65377 0.12066 0.0
C264 C 0.76216 0.68175 0.12247 0.0
C265 C 0.81407 0.67321 0.13209 0.0
C266 C 0.71064 0.51767 0.16305 0.0
C267 C 0.73416 0.60469 0.14613 0.0
C268 C 0.68584 0.47241 0.15588 0.0
C269 C 0.64738 0.47168 0.13392 0.0
C270 C 0.69682 0.56187 0.14784 0.0
C271 C 0.62861 0.51772 0.12304 0.0
C272 C 0.72213 0.64765 0.12941 0.0
C273 C 0.8236 0.63167 0.15039 0.0
N274 N 0.65462 0.56092 0.1294 0.0
N275 N 0.78428 0.59864 0.15643 0.0
H276 H 0.27606 0.40425 0.35489 0.0
H277 H 0.17212 0.66316 0.42038 0.0
H278 H 0.23274 0.42666 0.44499 0.0
H279 H 0.1537 0.63049 0.3288 0.0
H280 H 0.2049 0.57778 0.42824 0.0
H281 H 0.23467 0.48581 0.34278 0.0
C282 C 0.25577 0.42526 0.37183 0.0
C283 C 0.25748 0.40887 0.40094 0.0
C284 C 0.19437 0.58934 0.4063 0.0
C285 C 0.21289 0.50245 0.38767 0.0
C286 C 0.17707 0.63855 0.40172 0.0
C287 C 0.16205 0.65434 0.37378 0.0
C288 C 0.19653 0.55544 0.38275 0.0
C289 C 0.16595 0.61983 0.3506 0.0
C290 C 0.23306 0.47211 0.36504 0.0
C291 C 0.23206 0.43806 0.42227 0.0
N292 N 0.18302 0.57188 0.35556 0.0
N293 N 0.21169 0.48375 0.41532 0.0
H294 H 0.20155 0.07063 0.83723 0.0
H295 H 0.25533 0.79075 0.88744 0.0
H296 H 0.10826 0.99154 0.90092 0.0
H297 H 0.35508 0.87563 0.82922 0.0
H298 H 0.18558 0.85401 0.88108 0.0
H299 H 0.2392 0.99022 0.8211 0.0
C300 C 0.18681 0.03601 0.84667 0.0
C301 C 0.1522 0.03745 0.87052 0.0
C302 C 0.22241 0.85831 0.86927 0.0
C303 C 0.19672 0.94589 0.85339 0.0
C304 C 0.26229 0.82219 0.873 0.0
C305 C 0.31167 0.82855 0.85958 0.0
C306 C 0.23207 0.9011 0.85198 0.0
C307 C 0.31813 0.86974 0.84064 0.0
C308 C 0.209 0.99012 0.83788 0.0
C309 C 0.13506 0.99174 0.88246 0.0
N310 N 0.2792 0.90477 0.83778 0.0
N311 N 0.15853 0.94787 0.87434 0.0
H312 H 0.56767 0.40286 0.4264 0.0
H313 H 0.65175 0.63948 0.46063 0.0
H314 H 0.41803 0.47082 0.4042 0.0
H315 H 0.50362 0.62245 0.50611 0.0
H316 H 0.61973 0.58227 0.42266 0.0
H317 H 0.60339 0.48674 0.43642 0.0
C318 C 0.54327 0.43573 0.42228 0.0
C319 C 0.49026 0.43041 0.4142 0.0
C320 C 0.59357 0.59304 0.44035 0.0
C321 C 0.52956 0.52548 0.42693 0.0
C322 C 0.61157 0.62566 0.46201 0.0
C323 C 0.58022 0.63558 0.48677 0.0
C324 C 0.54364 0.57105 0.44331 0.0
C325 C 0.52856 0.61677 0.48728 0.0
C326 C 0.56348 0.48348 0.42802 0.0
C327 C 0.45944 0.47383 0.41 0.0
N328 N 0.5121 0.58467 0.46609 0.0
N329 N 0.4789 0.5196 0.41758 0.0
H330 H 0.07692 0.89538 0.05867 0.0
H331 H 0.02517 0.1138 0.98702 0.0
H332 H 0.94244 0.97301 0.09526 0.0
H333 H 0.17756 0.12361 0.02901 0.0
H334 H 0.99247 0.06561 0.02805 0.0
H335 H 0.12023 0.97659 0.05092 0.0
C336 C 0.05747 0.92954 0.06601 0.0
C337 C 0.00595 0.92819 0.07705 0.0
C338 C 0.03242 0.08019 0.02889 0.0
C339 C 0.05396 0.0201 0.06756 0.0
C340 C 0.05099 0.1083 0.00554 0.0
C341 C 0.10367 0.12421 0.00488 0.0
C342 C 0.06779 0.06481 0.05068 0.0
C343 C 0.13651 0.11218 0.0287 0.0
C344 C 0.08224 0.97565 0.06188 0.0
C345 C 0.98209 0.97302 0.08641 0.0
N346 N 0.11859 0.08141 0.05021 0.0
N347 N 0.00541 0.01768 0.0803 0.0
H348 H 0.81722 0.98346 0.54091 0.0
H349 H 0.11397 0.92807 0.4889 0.0
H350 H 0.94668 0.08182 0.56283 0.0
H351 H 0.97414 0.86606 0.44888 0.0
H352 H 0.05653 0.97789 0.52157 0.0
H353 H 0.87812 0.93121 0.51278 0.0
C354 C 0.85843 0.99425 0.53961 0.0
C355 C 0.87679 0.03755 0.55367 0.0
C356 C 0.0388 0.95269 0.50581 0.0
C357 C 0.94682 0.97782 0.52177 0.0
C358 C 0.07143 0.92428 0.48731 0.0
C359 C 0.04881 0.8917 0.46675 0.0
C360 C 0.98354 0.94803 0.50358 0.0
C361 C 0.99351 0.88886 0.46515 0.0
C362 C 0.89321 0.96443 0.5236 0.0
C363 C 0.93076 0.04941 0.55166 0.0
N364 N 0.96291 0.91642 0.48334 0.0
N365 N 0.96405 0.01967 0.53593 0.0
H366 H 0.41172 0.52599 0.90847 0.0
H367 H 0.65947 0.37515 0.97111 0.0
H368 H 0.57162 0.58015 0.90209 0.0
H369 H 0.51566 0.40221 0.01946 0.0
H370 H 0.6211 0.42009 0.92931 0.0
H371 H 0.44496 0.44842 0.93114 0.0
C372 C 0.45399 0.52039 0.91035 0.0
C373 C 0.48909 0.55952 0.90379 0.0
C374 C 0.59745 0.4144 0.94876 0.0
C375 C 0.52705 0.47143 0.92931 0.0
C376 C 0.61922 0.38906 0.97263 0.0
C377 C 0.59041 0.38439 -0.00126 0.0
C378 C 0.54633 0.43457 0.9509 0.0
C379 C 0.53869 0.40363 -0.00043 0.0
C380 C 0.47281 0.47641 0.92353 0.0
C381 C 0.54346 0.55071 0.90695 0.0
N382 N 0.51833 0.4281 0.97602 0.0
N383 N 0.56086 0.50778 0.91995 0.0
H384 H 0.4696 0.38001 0.17802 0.0
H385 H 0.5599 0.293 0.32901 0.0
H386 H 0.63428 0.35053 0.19523 0.0
H387 H 0.42227 0.3876 0.31943 0.0
H388 H 0.59336 0.32398 0.28227 0.0
H389 H 0.45516 0.39486 0.2301 0.0
C390 C 0.50311 0.37845 0.19276 0.0
C391 C 0.55312 0.36393 0.18248 0.0
C392 C 0.55667 0.33932 0.29072 0.0
C393 C 0.53656 0.37861 0.24224 0.0
C394 C 0.53766 0.3217 0.31744 0.0
C395 C 0.48833 0.3378 0.32793 0.0
C396 C 0.5251 0.37183 0.27386 0.0
C397 C 0.46065 0.37453 0.31206 0.0
C398 C 0.49487 0.38677 0.22251 0.0
C399 C 0.59517 0.36184 0.20239 0.0
N400 N 0.4787 0.3893 0.28537 0.0
N401 N 0.58566 0.36762 0.2315 0.0
H402 H 0.13394 0.1457 0.81188 0.0
H403 H 0.91191 0.11757 0.68937 0.0
H404 H 0.96683 0.1328 0.82866 0.0
H405 H 0.06706 0.17948 0.67436 0.0
H406 H 0.93964 0.09282 0.7385 0.0
H407 H 0.11736 0.12691 0.76007 0.0
C408 C 0.09412 0.13696 0.80483 0.0
C409 C 0.05151 0.14143 0.82422 0.0
C410 C 0.96791 0.1109 0.72419 0.0
C411 C 0.03223 0.12055 0.76553 0.0
C412 C 0.95214 0.12487 0.69609 0.0
C413 C 0.98691 0.15142 0.67793 0.0
C414 C 0.01881 0.12342 0.7341 0.0
C415 C 0.03864 0.15998 0.68791 0.0
C416 C 0.08458 0.12671 0.77531 0.0
C417 C 1.00057 0.13024 0.81414 0.0
N418 N 0.05284 0.14662 0.71545 0.0
N419 N 0.99219 0.12099 0.78539 0.0
H420 H 0.56634 0.65324 0.81605 0.0
H421 H 0.44698 0.63354 0.66117 0.0
H422 H 0.40053 0.62646 0.80147 0.0
H423 H 0.61413 0.61811 0.67746 0.0
H424 H 0.42918 0.61235 0.71206 0.0
H425 H 0.58566 0.62239 0.76699 0.0
C426 C 0.53415 0.63932 0.80272 0.0
C427 C 0.48175 0.64284 0.81257 0.0
C428 C 0.46974 0.61212 0.70445 0.0
C429 C 0.50322 0.60918 0.75596 0.0
C430 C 0.4799 0.6241 0.67533 0.0
C431 C 0.53213 0.62837 0.66529 0.0
C432 C 0.5122 0.60579 0.72389 0.0
C433 C 0.57329 0.61551 0.68442 0.0
C434 C 0.54515 0.62179 0.77466 0.0
C435 C 0.44146 0.62437 0.79458 0.0
N436 N 0.56254 0.6062 0.71306 0.0
N437 N 0.45287 0.60959 0.76679 0.0
H438 H 0.88245 0.89401 0.18271 0.0
H439 H 0.11754 0.89044 0.29289 0.0
H440 H 0.04709 0.88322 0.15945 0.0
H441 H 0.95215 0.88254 0.31497 0.0
H442 H 0.0934 0.92588 0.24514 0.0
H443 H 0.90788 0.92933 0.2301 0.0
C444 C 0.92381 0.9014 0.1871 0.0
C445 C 0.96291 0.88486 0.16773 0.0
C446 C 0.06243 0.91803 0.26082 0.0
C447 C 0.99246 0.923 0.22187 0.0
C448 C 0.07632 0.89805 0.28808 0.0
C449 C 0.03659 0.88243 0.30728 0.0
C450 C 0.00861 0.9218 0.25301 0.0
C451 C 0.98378 0.89307 0.30025 0.0
C452 C 0.93848 0.92107 0.21423 0.0
C453 C 0.01597 0.89486 0.17428 0.0
N454 N 0.97121 0.91109 0.27343 0.0
N455 N 0.02938 0.91203 0.20116 0.0
H456 H 0.5646 0.18422 0.43112 0.0
H457 H 0.67147 0.24607 0.58787 0.0
H458 H 0.47243 0.27466 0.49087 0.0
H459 H 0.77537 0.21454 0.51555 0.0
H460 H 0.59899 0.26051 0.55381 0.0
H461 H 0.64084 0.19257 0.46319 0.0
C462 C 0.55999 0.20528 0.45122 0.0
C463 C 0.5115 0.22841 0.45832 0.0
C464 C 0.63799 0.25219 0.54524 0.0
C465 C 0.59981 0.23874 0.49515 0.0
C466 C 0.67992 0.24506 0.5647 0.0
C467 C 0.73024 0.2304 0.55457 0.0
C468 C 0.64575 0.24275 0.51543 0.0
C469 C 0.73771 0.22695 0.52428 0.0
C470 C 0.604 0.21064 0.46933 0.0
C471 C 0.50868 0.25571 0.48459 0.0
N472 N 0.69564 0.23175 0.50583 0.0
N473 N 0.55211 0.25986 0.50214 0.0
H474 H 0.02921 0.22497 0.00366 0.0
H475 H 0.72724 0.2015 0.05014 0.0
H476 H 0.90416 0.17098 0.94814 0.0
H477 H 0.84267 0.29076 0.09584 0.0
H478 H 0.79873 0.16226 0.02205 0.0
H479 H 0.96801 0.22348 0.04535 0.0
C480 C 0.98909 0.21187 0.00048 0.0
C481 C 0.97133 0.19816 0.97264 0.0
C482 C 0.80855 0.18933 0.03885 0.0
C483 C 0.90133 0.19678 0.01978 0.0
C484 C 0.7678 0.21128 0.05514 0.0
C485 C 0.77916 0.2501 0.07486 0.0
C486 C 0.86066 0.20658 0.0424 0.0
C487 C 0.83234 0.2615 0.08043 0.0
C488 C 0.95427 0.21097 0.02417 0.0
C489 C 0.91904 0.18196 0.96937 0.0
N490 N 0.87112 0.24065 0.06381 0.0
N491 N 0.88569 0.18209 0.99263 0.0
H492 H 0.04385 0.126 0.53822 0.0
H493 H 0.28236 0.18198 0.44645 0.0
H494 H 0.05023 0.28758 0.52961 0.0
H495 H 0.30258 0.27072 0.52448 0.0
H496 H 0.19331 0.15795 0.46391 0.0
H497 H 0.13298 0.12064 0.51566 0.0
C498 C 0.06301 0.1601 0.53083 0.0
C499 C 0.03941 0.20742 0.53607 0.0
C500 C 0.21816 0.18142 0.47746 0.0
C501 C 0.14125 0.20147 0.51131 0.0
C502 C 0.26908 0.19497 0.46764 0.0
C503 C 0.29991 0.22928 0.48372 0.0
C504 C 0.19824 0.20273 0.50335 0.0
C505 C 0.2803 0.24485 0.51103 0.0
C506 C 0.11395 0.15697 0.51821 0.0
C507 C 0.06673 0.25032 0.5264 0.0
N508 N 0.23041 0.23275 0.51947 0.0
N509 N 0.11631 0.24636 0.51523 0.0
H510 H 0.52637 0.28451 0.00152 0.0
H511 H 0.22388 0.30196 0.95881 0.0
H512 H 0.40113 0.33524 0.05829 0.0
H513 H 0.3426 0.23322 0.90422 0.0
H514 H 0.29316 0.3409 0.98773 0.0
H515 H 0.46497 0.2884 0.95998 0.0
C516 C 0.48613 0.29732 0.00503 0.0
C517 C 0.46843 0.30951 0.03316 0.0
C518 C 0.30426 0.3187 0.96885 0.0
C519 C 0.39813 0.31353 0.98619 0.0
C520 C 0.26447 0.29752 0.9518 0.0
C521 C 0.27742 0.26478 0.9289 0.0
C522 C 0.35732 0.30585 0.96338 0.0
C523 C 0.33102 0.25813 0.92184 0.0
C524 C 0.45117 0.29959 0.98142 0.0
C525 C 0.416 0.32537 0.03685 0.0
N526 N 0.36912 0.27746 0.93946 0.0
N527 N 0.38256 0.32656 0.01367 0.0
H528 H 0.49224 0.81803 0.51768 0.0
H529 H 0.24588 0.71396 0.42613 0.0
H530 H 0.43489 0.66656 0.52714 0.0
H531 H 0.27501 0.87092 0.44309 0.0
H532 H 0.32591 0.69231 0.45395 0.0
H533 H 0.42379 0.83423 0.48104 0.0
C534 C 0.4659 0.78781 0.51144 0.0
C535 C 0.46995 0.7405 0.52477 0.0
C536 C 0.31478 0.73147 0.45139 0.0
C537 C 0.39086 0.7589 0.48335 0.0
C538 C 0.26917 0.74382 0.4355 0.0
C539 C 0.25296 0.7942 0.43284 0.0
C540 C 0.34489 0.76996 0.46415 0.0
C541 C 0.28524 0.8315 0.44508 0.0
C542 C 0.42674 0.79709 0.49066 0.0
C543 C 0.43434 0.70284 0.51642 0.0
N544 N 0.32944 0.81865 0.46022 0.0
N545 N 0.39603 0.71287 0.49627 0.0
H546 H 0.12097 0.72501 0.08134 0.0
H547 H 0.23425 0.72507 0.92093 0.0
H548 H 0.01697 0.76159 0.00958 0.0
H549 H 0.32493 0.77518 0.99524 0.0
H550 H 0.1538 0.7288 0.95097 0.0
H551 H 0.19633 0.72967 0.04827 0.0
C552 C 0.11379 0.73338 0.05853 0.0
C553 C 0.06235 0.74277 0.04826 0.0
C554 C 0.19128 0.73978 0.96043 0.0
C555 C 0.14906 0.74831 0.01018 0.0
C556 C 0.23719 0.73821 0.94324 0.0
C557 C 0.28664 0.75031 0.95542 0.0
C558 C 0.19512 0.75218 0.99015 0.0
C559 C 0.28792 0.76551 0.9848 0.0
C560 C 0.15701 0.73655 0.03972 0.0
C561 C 0.05589 0.75397 0.01843 0.0
N562 N 0.24313 0.76526 0.00121 0.0
N563 N 0.09877 0.75613 0.00033 0.0
H564 H 0.01614 0.76227 0.47255 0.0
H565 H 0.71913 0.77815 0.52989 0.0
H566 H 0.87937 0.76845 0.41637 0.0
H567 H 0.84009 0.69563 0.57626 0.0
H568 H 0.78492 0.80341 0.49373 0.0
H569 H 0.95748 0.76235 0.5153 0.0
C570 C 0.9737 0.76363 0.4693 0.0
C571 C 0.95222 0.76484 0.44105 0.0
C572 C 0.79727 0.78094 0.51229 0.0
C573 C 0.88562 0.76633 0.4895 0.0
C574 C 0.76002 0.76712 0.53316 0.0
C575 C 0.77433 0.73465 0.55604 0.0
C576 C 0.84904 0.76227 0.51442 0.0
C577 C 0.82763 0.7207 0.55891 0.0
C578 C 0.94049 0.76395 0.4936 0.0
C579 C 0.89723 0.76683 0.43784 0.0
N580 N 0.86313 0.73406 0.53804 0.0
N581 N 0.86568 0.7677 0.46185 0.0
H582 H 0.82229 0.71353 0.99064 0.0
H583 H 0.51055 0.72738 0.97981 0.0
H584 H 0.73486 0.76007 0.06707 0.0
H585 H 0.61502 0.79223 0.91551 0.0
H586 H 0.58717 0.71584 0.01265 0.0
H587 H 0.7399 0.71382 0.96277 0.0
C588 C 0.78564 0.7223 0.00185 0.0
C589 C 0.78568 0.73681 0.03132 0.0
C590 C 0.59278 0.73286 0.99138 0.0
C591 C 0.69136 0.73719 -0.00058 0.0
C592 C 0.54928 0.73972 0.97275 0.0
C593 C 0.5563 0.76117 0.94494 0.0
C594 C 0.6435 0.74597 0.9816 0.0
C595 C 0.60747 0.776 0.93679 0.0
C596 C 0.73877 0.7228 0.98584 0.0
C597 C 0.73672 0.74782 0.04459 0.0
N598 N 0.64909 0.76746 0.95483 0.0
N599 N 0.69141 0.7482 0.02846 0.0
loop_
_geom_bond_atom_site_label_1
_geom_bond_atom_site_label_2
_geom_bond_distance
_geom_bond_site_symmetry_2
_ccdc_geom_bond_type
Zn0 O6 1.920 . S
Zn0 O12 1.898 . S
Zn0 O15 1.905 . S
Zn1 O9 1.905 . S
Zn1 O10 1.898 . S
Zn1 O18 1.920 . S
Zn2 O5 2.080 . S
Zn2 O8 2.114 . S
Zn2 O11 2.120 . S
Zn2 O13 2.120 . S
Zn2 O14 2.114 . S
Zn2 O17 2.080 . S
C3 O8 1.166 . S
C3 O9 1.182 . S
C4 O10 1.167 . S
C4 O11 1.299 . S
O5 Zn2 2.080 . S
O5 C19 1.305 . S
O6 Zn0 1.920 . S
O6 C19 1.234 . S
C7 O12 1.167 . S
C7 O13 1.299 . S
O8 Zn2 2.114 . S
O8 C3 1.166 . S
O9 Zn1 1.905 . S
O9 C3 1.182 . S
O10 Zn1 1.898 . S
O10 C4 1.167 . S
O11 Zn2 2.120 . S
O11 C4 1.299 . S
O12 Zn0 1.898 . S
O12 C7 1.167 . S
O13 Zn2 2.120 . S
O13 C7 1.299 . S
O14 Zn2 2.114 . S
O14 C16 1.166 . S
O15 Zn0 1.905 . S
O15 C16 1.182 . S
C16 O14 1.166 . S
C16 O15 1.182 . S
O17 Zn2 2.080 . S
O17 C20 1.305 . S
O18 Zn1 1.920 . S
O18 C20 1.234 . S
C19 O5 1.305 . S
C19 O6 1.234 . S
C20 O17 1.305 . S
C20 O18 1.234 . S
Zn21 O27 1.920 . S
Zn21 O33 1.898 . S
Zn21 O36 1.905 . S
Zn22 O30 1.905 . S
Zn22 O31 1.898 . S
Zn22 O39 1.920 . S
Zn23 O26 2.080 . S
Zn23 O29 2.114 . S
Zn23 O32 2.120 . S
Zn23 O34 2.120 . S
Zn23 O35 2.114 . S
Zn23 O38 2.080 . S
C24 O29 1.166 . S
C24 O30 1.182 . S
C25 O31 1.167 . S
C25 O32 1.299 . S
O26 Zn23 2.080 . S
O26 C40 1.305 . S
O27 Zn21 1.920 . S
O27 C40 1.234 . S
C28 O33 1.167 . S
C28 O34 1.299 . S
O29 Zn23 2.114 . S
O29 C24 1.166 . S
O30 Zn22 1.905 . S
O30 C24 1.182 . S
O31 Zn22 1.898 . S
O31 C25 1.167 . S
O32 Zn23 2.120 . S
O32 C25 1.299 . S
O33 Zn21 1.898 . S
O33 C28 1.167 . S
O34 Zn23 2.120 . S
O34 C28 1.299 . S
O35 Zn23 2.114 . S
O35 C37 1.166 . S
O36 Zn21 1.905 . S
O36 C37 1.182 . S
C37 O35 1.166 . S
C37 O36 1.182 . S
O38 Zn23 2.080 . S
O38 C41 1.305 . S
O39 Zn22 1.920 . S
O39 C41 1.234 . S
C40 O26 1.305 . S
C40 O27 1.234 . S
C41 O38 1.305 . S
C41 O39 1.234 . S
Zn42 O48 1.920 . S
Zn42 O54 1.898 . S
Zn42 O57 1.905 . S
Zn43 O51 1.905 . S
Zn43 O52 1.898 . S
Zn43 O60 1.920 . S
Zn44 O47 2.080 . S
Zn44 O50 2.114 . S
Zn44 O53 2.120 . S
Zn44 O55 2.120 . S
Zn44 O56 2.114 . S
Zn44 O59 2.080 . S
C45 O50 1.166 . S
C45 O51 1.182 . S
C46 O52 1.167 . S
C46 O53 1.299 . S
O47 Zn44 2.080 . S
O47 C61 1.305 . S
O48 Zn42 1.920 . S
O48 C61 1.234 . S
C49 O54 1.167 . S
C49 O55 1.299 . S
O50 Zn44 2.114 . S
O50 C45 1.166 . S
O51 Zn43 1.905 . S
O51 C45 1.182 . S
O52 Zn43 1.898 . S
O52 C46 1.167 . S
O53 Zn44 2.120 . S
O53 C46 1.299 . S
O54 Zn42 1.898 . S
O54 C49 1.167 . S
O55 Zn44 2.120 . S
O55 C49 1.299 . S
O56 Zn44 2.114 . S
O56 C58 1.166 . S
O57 Zn42 1.905 . S
O57 C58 1.182 . S
C58 O56 1.166 . S
C58 O57 1.182 . S
O59 Zn44 2.080 . S
O59 C62 1.305 . S
O60 Zn43 1.920 . S
O60 C62 1.234 . S
C61 O47 1.305 . S
C61 O48 1.234 . S
C62 O59 1.305 . S
C62 O60 1.234 . S
Zn63 O69 1.920 . S
Zn63 O75 1.898 . S
Zn63 O78 1.905 . S
Zn64 O72 1.905 . S
Zn64 O73 1.898 . S
Zn64 O81 1.920 . S
Zn65 O68 2.080 . S
Zn65 O71 2.114 . S
Zn65 O74 2.120 . S
Zn65 O76 2.120 . S
Zn65 O77 2.114 . S
Zn65 O80 2.080 . S
C66 O71 1.166 . S
C66 O72 1.182 . S
C67 O73 1.167 . S
C67 O74 1.299 . S
O68 Zn65 2.080 . S
O68 C82 1.305 . S
O69 Zn63 1.920 . S
O69 C82 1.234 . S
C70 O75 1.167 . S
C70 O76 1.299 . S
O71 Zn65 2.114 . S
O71 C66 1.166 . S
O72 Zn64 1.905 . S
O72 C66 1.182 . S
O73 Zn64 1.898 . S
O73 C67 1.167 . S
O74 Zn65 2.120 . S
O74 C67 1.299 . S
O75 Zn63 1.898 . S
O75 C70 1.167 . S
O76 Zn65 2.120 . S
O76 C70 1.299 . S
O77 Zn65 2.114 . S
O77 C79 1.166 . S
O78 Zn63 1.905 . S
O78 C79 1.182 . S
C79 O77 1.166 . S
C79 O78 1.182 . S
O80 Zn65 2.080 . S
O80 C83 1.305 . S
O81 Zn64 1.920 . S
O81 C83 1.234 . S
C82 O68 1.305 . S
C82 O69 1.234 . S
C83 O80 1.305 . S
C83 O81 1.234 . S
Zn84 O90 1.920 . S
Zn84 O96 1.898 . S
Zn84 O99 1.905 . S
Zn85 O93 1.905 . S
Zn85 O94 1.898 . S
Zn85 O102 1.920 . S
Zn86 O89 2.080 . S
Zn86 O92 2.114 . S
Zn86 O95 2.120 . S
Zn86 O97 2.120 . S
Zn86 O98 2.114 . S
Zn86 O101 2.080 . S
C87 O92 1.166 . S
C87 O93 1.182 . S
C88 O94 1.167 . S
C88 O95 1.299 . S
O89 Zn86 2.080 . S
O89 C103 1.305 . S
O90 Zn84 1.920 . S
O90 C103 1.234 . S
C91 O96 1.167 . S
C91 O97 1.299 . S
O92 Zn86 2.114 . S
O92 C87 1.166 . S
O93 Zn85 1.905 . S
O93 C87 1.182 . S
O94 Zn85 1.898 . S
O94 C88 1.167 . S
O95 Zn86 2.120 . S
O95 C88 1.299 . S
O96 Zn84 1.898 . S
O96 C91 1.167 . S
O97 Zn86 2.120 . S
O97 C91 1.299 . S
O98 Zn86 2.114 . S
O98 C100 1.166 . S
O99 Zn84 1.905 . S
O99 C100 1.182 . S
C100 O98 1.166 . S
C100 O99 1.182 . S
O101 Zn86 2.080 . S
O101 C104 1.305 . S
O102 Zn85 1.920 . S
O102 C104 1.234 . S
C103 O89 1.305 . S
C103 O90 1.234 . S
C104 O101 1.305 . S
C104 O102 1.234 . S
Zn105 O111 1.920 . S
Zn105 O117 1.898 . S
Zn105 O120 1.905 . S
Zn106 O114 1.905 . S
Zn106 O115 1.898 . S
Zn106 O123 1.920 . S
Zn107 O110 2.080 . S
Zn107 O113 2.114 . S
Zn107 O116 2.120 . S
Zn107 O118 2.120 . S
Zn107 O119 2.114 . S
Zn107 O122 2.080 . S
C108 O113 1.166 . S
C108 O114 1.182 . S
C109 O115 1.167 . S
C109 O116 1.299 . S
O110 Zn107 2.080 . S
O110 C124 1.305 . S
O111 Zn105 1.920 . S
O111 C124 1.234 . S
C112 O117 1.167 . S
C112 O118 1.299 . S
O113 Zn107 2.114 . S
O113 C108 1.166 . S
O114 Zn106 1.905 . S
O114 C108 1.182 . S
O115 Zn106 1.898 . S
O115 C109 1.167 . S
O116 Zn107 2.120 . S
O116 C109 1.299 . S
O117 Zn105 1.898 . S
O117 C112 1.167 . S
O118 Zn107 2.120 . S
O118 C112 1.299 . S
O119 Zn107 2.114 . S
O119 C121 1.166 . S
O120 Zn105 1.905 . S
O120 C121 1.182 . S
C121 O119 1.166 . S
C121 O120 1.182 . S
O122 Zn107 2.080 . S
O122 C125 1.305 . S
O123 Zn106 1.920 . S
O123 C125 1.234 . S
C124 O110 1.305 . S
C124 O111 1.234 . S
C125 O122 1.305 . S
C125 O123 1.234 . S
Zn126 O132 1.920 . S
Zn126 O138 1.898 . S
Zn126 O141 1.905 . S
Zn127 O135 1.905 . S
Zn127 O136 1.898 . S
Zn127 O144 1.920 . S
Zn128 O131 2.080 . S
Zn128 O134 2.114 . S
Zn128 O137 2.120 . S
Zn128 O139 2.120 . S
Zn128 O140 2.114 . S
Zn128 O143 2.080 . S
C129 O134 1.166 . S
C129 O135 1.182 . S
C130 O136 1.167 . S
C130 O137 1.299 . S
O131 Zn128 2.080 . S
O131 C145 1.305 . S
O132 Zn126 1.920 . S
O132 C145 1.234 . S
C133 O138 1.167 . S
C133 O139 1.299 . S
O134 Zn128 2.114 . S
O134 C129 1.166 . S
O135 Zn127 1.905 . S
O135 C129 1.182 . S
O136 Zn127 1.898 . S
O136 C130 1.167 . S
O137 Zn128 2.120 . S
O137 C130 1.299 . S
O138 Zn126 1.898 . S
O138 C133 1.167 . S
O139 Zn128 2.120 . S
O139 C133 1.299 . S
O140 Zn128 2.114 . S
O140 C142 1.166 . S
O141 Zn126 1.905 . S
O141 C142 1.182 . S
C142 O140 1.166 . S
C142 O141 1.182 . S
O143 Zn128 2.080 . S
O143 C146 1.305 . S
O144 Zn127 1.920 . S
O144 C146 1.234 . S
C145 O131 1.305 . S
C145 O132 1.234 . S
C146 O143 1.305 . S
C146 O144 1.234 . S
Zn147 O153 1.920 . S
Zn147 O159 1.898 . S
Zn147 O162 1.905 . S
Zn148 O156 1.905 . S
Zn148 O157 1.898 . S
Zn148 O165 1.920 . S
Zn149 O152 2.080 . S
Zn149 O155 2.114 . S
Zn149 O158 2.120 . S
Zn149 O160 2.120 . S
Zn149 O161 2.114 . S
Zn149 O164 2.080 . S
C150 O155 1.166 . S
C150 O156 1.182 . S
C151 O157 1.167 . S
C151 O158 1.299 . S
O152 Zn149 2.080 . S
O152 C166 1.305 . S
O153 Zn147 1.920 . S
O153 C166 1.234 . S
C154 O159 1.167 . S
C154 O160 1.299 . S
O155 Zn149 2.114 . S
O155 C150 1.166 . S
O156 Zn148 1.905 . S
O156 C150 1.182 . S
O157 Zn148 1.898 . S
O157 C151 1.167 . S
O158 Zn149 2.120 . S
O158 C151 1.299 . S
O159 Zn147 1.898 . S
O159 C154 1.167 . S
O160 Zn149 2.120 . S
O160 C154 1.299 . S
O161 Zn149 2.114 . S
O161 C163 1.166 . S
O162 Zn147 1.905 . S
O162 C163 1.182 . S
C163 O161 1.166 . S
C163 O162 1.182 . S
O164 Zn149 2.080 . S
O164 C167 1.305 . S
O165 Zn148 1.920 . S
O165 C167 1.234 . S
C166 O152 1.305 . S
C166 O153 1.234 . S
C167 O164 1.305 . S
C167 O165 1.234 . S
H168 C174 0.930 . S
H169 C178 0.930 . S
H170 C183 0.929 . S
H171 C181 0.929 . S
H172 C176 0.929 . S
H173 C182 0.929 . S
C174 H168 0.930 . S
C174 C175 1.367 . S
C174 C182 1.378 1_565 S
C175 C174 1.367 . S
C175 C183 1.433 . S
C176 H172 0.929 . S
C176 C178 1.378 . S
C176 C180 1.350 . S
C177 C180 1.463 . S
C177 C182 1.350 . S
C177 N185 1.427 . S
C178 H169 0.930 . S
C178 C176 1.378 . S
C178 C179 1.367 . S
C179 C178 1.367 . S
C179 C181 1.433 . S
C180 C176 1.350 . S
C180 C177 1.463 . S
C180 N184 1.427 . S
C181 H171 0.929 . S
C181 C179 1.433 . S
C181 N184 1.384 . S
C182 H173 0.929 . S
C182 C174 1.378 1_545 S
C182 C177 1.350 . S
C183 H170 0.929 . S
C183 C175 1.433 . S
C183 N185 1.384 1_565 S
N184 C180 1.427 . S
N184 C181 1.384 . S
N185 C177 1.427 . S
N185 C183 1.384 1_545 S
H186 C192 0.930 . S
H187 C196 0.930 . S
H188 C201 0.929 . S
H189 C199 0.929 . S
H190 C194 0.929 . S
H191 C200 0.929 . S
C192 H186 0.930 . S
C192 C193 1.367 . S
C192 C200 1.378 . S
C193 C192 1.367 . S
C193 C201 1.433 . S
C194 H190 0.929 . S
C194 C196 1.378 . S
C194 C198 1.350 . S
C195 C198 1.463 . S
C195 C200 1.350 . S
C195 N203 1.427 . S
C196 H187 0.930 . S
C196 C194 1.378 . S
C196 C197 1.367 . S
C197 C196 1.367 . S
C197 C199 1.433 . S
C198 C194 1.350 . S
C198 C195 1.463 . S
C198 N202 1.427 . S
C199 H189 0.929 . S
C199 C197 1.433 . S
C199 N202 1.384 . S
C200 H191 0.929 . S
C200 C192 1.378 . S
C200 C195 1.350 . S
C201 H188 0.929 . S
C201 C193 1.433 . S
C201 N203 1.384 . S
N202 C198 1.427 . S
N202 C199 1.384 . S
N203 C195 1.427 . S
N203 C201 1.384 . S
H204 C210 0.930 . S
H205 C214 0.930 . S
H206 C219 0.929 . S
H207 C217 0.929 . S
H208 C212 0.929 . S
H209 C218 0.929 . S
C210 H204 0.930 . S
C210 C211 1.367 . S
C210 C218 1.378 . S
C211 C210 1.367 . S
C211 C219 1.433 . S
C212 H208 0.929 . S
C212 C214 1.378 . S
C212 C216 1.350 . S
C213 C216 1.463 . S
C213 C218 1.350 . S
C213 N221 1.427 . S
C214 H205 0.930 . S
C214 C212 1.378 . S
C214 C215 1.367 . S
C215 C214 1.367 . S
C215 C217 1.433 . S
C216 C212 1.350 . S
C216 C213 1.463 . S
C216 N220 1.427 . S
C217 H207 0.929 . S
C217 C215 1.433 . S
C217 N220 1.384 . S
C218 H209 0.929 . S
C218 C210 1.378 . S
C218 C213 1.350 . S
C219 H206 0.929 . S
C219 C211 1.433 . S
C219 N221 1.384 . S
N220 C216 1.427 . S
N220 C217 1.384 . S
N221 C213 1.427 . S
N221 C219 1.384 . S
H222 C228 0.930 . S
H223 C232 0.930 . S
H224 C237 0.929 . S
H225 C235 0.929 . S
H226 C230 0.929 . S
H227 C236 0.929 . S
C228 H222 0.930 . S
C228 C229 1.367 . S
C228 C236 1.378 . S
C229 C228 1.367 . S
C229 C237 1.433 . S
C230 H226 0.929 . S
C230 C232 1.378 1_545 S
C230 C234 1.350 . S
C231 C234 1.463 . S
C231 C236 1.350 . S
C231 N239 1.427 . S
C232 H223 0.930 . S
C232 C230 1.378 1_565 S
C232 C233 1.367 . S
C233 C232 1.367 . S
C233 C235 1.433 . S
C234 C230 1.350 . S
C234 C231 1.463 . S
C234 N238 1.427 . S
C235 H225 0.929 . S
C235 C233 1.433 . S
C235 N238 1.384 1_565 S
C236 H227 0.929 . S
C236 C228 1.378 . S
C236 C231 1.350 . S
C237 H224 0.929 . S
C237 C229 1.433 . S
C237 N239 1.384 . S
N238 C234 1.427 . S
N238 C235 1.384 1_545 S
N239 C231 1.427 . S
N239 C237 1.384 . S
H240 C246 0.930 . S
H241 C250 0.930 . S
H242 C255 0.929 . S
H243 C253 0.929 . S
H244 C248 0.929 . S
H245 C254 0.929 . S
C246 H240 0.930 . S
C246 C247 1.367 . S
C246 C254 1.378 1_545 S
C247 C246 1.367 . S
C247 C255 1.433 . S
C248 H244 0.929 . S
C248 C250 1.378 . S
C248 C252 1.350 . S
C249 C252 1.463 . S
C249 C254 1.350 . S
C249 N257 1.427 . S
C250 H241 0.930 . S
C250 C248 1.378 . S
C250 C251 1.367 . S
C251 C250 1.367 . S
C251 C253 1.433 . S
C252 C248 1.350 . S
C252 C249 1.463 . S
C252 N256 1.427 . S
C253 H243 0.929 . S
C253 C251 1.433 . S
C253 N256 1.384 . S
C254 H245 0.929 . S
C254 C246 1.378 1_565 S
C254 C249 1.350 . S
C255 H242 0.929 . S
C255 C247 1.433 . S
C255 N257 1.384 1_545 S
N256 C252 1.427 . S
N256 C253 1.384 . S
N257 C249 1.427 . S
N257 C255 1.384 1_565 S
H258 C264 0.930 . S
H259 C268 0.930 . S
H260 C273 0.929 . S
H261 C271 0.929 . S
H262 C266 0.929 . S
H263 C272 0.929 . S
C264 H258 0.930 . S
C264 C265 1.367 . S
C264 C272 1.378 . S
C265 C264 1.367 . S
C265 C273 1.433 . S
C266 H262 0.929 . S
C266 C268 1.378 . S
C266 C270 1.350 . S
C267 C270 1.463 . S
C267 C272 1.350 . S
C267 N275 1.427 . S
C268 H259 0.930 . S
C268 C266 1.378 . S
C268 C269 1.367 . S
C269 C268 1.367 . S
C269 C271 1.433 . S
C270 C266 1.350 . S
C270 C267 1.463 . S
C270 N274 1.427 . S
C271 H261 0.929 . S
C271 C269 1.433 . S
C271 N274 1.384 . S
C272 H263 0.929 . S
C272 C264 1.378 . S
C272 C267 1.350 . S
C273 H260 0.929 . S
C273 C265 1.433 . S
C273 N275 1.384 . S
N274 C270 1.427 . S
N274 C271 1.384 . S
N275 C267 1.427 . S
N275 C273 1.384 . S
H276 C282 0.930 . S
H277 C286 0.930 . S
H278 C291 0.929 . S
H279 C289 0.929 . S
H280 C284 0.929 . S
H281 C290 0.929 . S
C282 H276 0.930 . S
C282 C283 1.367 . S
C282 C290 1.378 . S
C283 C282 1.367 . S
C283 C291 1.433 . S
C284 H280 0.929 . S
C284 C286 1.378 . S
C284 C288 1.350 . S
C285 C288 1.463 . S
C285 C290 1.350 . S
C285 N293 1.427 . S
C286 H277 0.930 . S
C286 C284 1.378 . S
C286 C287 1.367 . S
C287 C286 1.367 . S
C287 C289 1.433 . S
C288 C284 1.350 . S
C288 C285 1.463 . S
C288 N292 1.427 . S
C289 H279 0.929 . S
C289 C287 1.433 . S
C289 N292 1.384 . S
C290 H281 0.929 . S
C290 C282 1.378 . S
C290 C285 1.350 . S
C291 H278 0.929 . S
C291 C283 1.433 . S
C291 N293 1.384 . S
N292 C288 1.427 . S
N292 C289 1.384 . S
N293 C285 1.427 . S
N293 C291 1.384 . S
H294 C300 0.930 . S
H295 C304 0.930 . S
H296 C309 0.929 . S
H297 C307 0.929 . S
H298 C302 0.929 . S
H299 C308 0.929 . S
C300 H294 0.930 . S
C300 C301 1.367 . S
C300 C308 1.378 1_545 S
C301 C300 1.367 . S
C301 C309 1.433 . S
C302 H298 0.929 . S
C302 C304 1.378 . S
C302 C306 1.350 . S
C303 C306 1.463 . S
C303 C308 1.350 . S
C303 N311 1.427 . S
C304 H295 0.930 . S
C304 C302 1.378 . S
C304 C305 1.367 . S
C305 C304 1.367 . S
C305 C307 1.433 . S
C306 C302 1.350 . S
C306 C303 1.463 . S
C306 N310 1.427 . S
C307 H297 0.929 . S
C307 C305 1.433 . S
C307 N310 1.384 . S
C308 H299 0.929 . S
C308 C300 1.378 1_565 S
C308 C303 1.350 . S
C309 H296 0.929 . S
C309 C301 1.433 . S
C309 N311 1.384 1_545 S
N310 C306 1.427 . S
N310 C307 1.384 . S
N311 C303 1.427 . S
N311 C309 1.384 1_565 S
H312 C318 0.930 . S
H313 C322 0.930 . S
H314 C327 0.929 . S
H315 C325 0.929 . S
H316 C320 0.929 . S
H317 C326 0.929 . S
C318 H312 0.930 . S
C318 C319 1.367 . S
C318 C326 1.378 . S
C319 C318 1.367 . S
C319 C327 1.433 . S
C320 H316 0.929 . S
C320 C322 1.378 . S
C320 C324 1.350 . S
C321 C324 1.463 . S
C321 C326 1.350 . S
C321 N329 1.427 . S
C322 H313 0.930 . S
C322 C320 1.378 . S
C322 C323 1.367 . S
C323 C322 1.367 . S
C323 C325 1.433 . S
C324 C320 1.350 . S
C324 C321 1.463 . S
C324 N328 1.427 . S
C325 H315 0.929 . S
C325 C323 1.433 . S
C325 N328 1.384 . S
C326 H317 0.929 . S
C326 C318 1.378 . S
C326 C321 1.350 . S
C327 H314 0.929 . S
C327 C319 1.433 . S
C327 N329 1.384 . S
N328 C324 1.427 . S
N328 C325 1.384 . S
N329 C321 1.427 . S
N329 C327 1.384 . S
H330 C336 0.930 1_455 S
H331 C340 0.930 1_655 S
H332 C345 0.929 . S
H333 C343 0.929 . S
H334 C338 0.929 . S
H335 C344 0.929 . S
C336 H330 0.930 1_655 S
C336 C337 1.367 . S
C336 C344 1.378 1_655 S
C337 C336 1.367 . S
C337 C345 1.433 . S
C338 H334 0.929 . S
C338 C340 1.378 1_655 S
C338 C342 1.350 1_655 S
C339 C342 1.463 1_664 S
C339 C344 1.350 1_655 S
C339 N347 1.427 . S
C340 H331 0.930 1_455 S
C340 C338 1.378 1_455 S
C340 C341 1.367 . S
C341 C340 1.367 . S
C341 C343 1.433 . S
C342 C338 1.350 1_455 S
C342 C339 1.463 1_446 S
C342 N346 1.427 . S
C343 H333 0.929 . S
C343 C341 1.433 . S
C343 N346 1.384 . S
C344 H335 0.929 . S
C344 C336 1.378 1_455 S
C344 C339 1.350 1_455 S
C345 H332 0.929 . S
C345 C337 1.433 . S
C345 N347 1.384 . S
N346 C342 1.427 . S
N346 C343 1.384 . S
N347 C339 1.427 . S
N347 C345 1.384 . S
H348 C354 0.930 . S
H349 C358 0.930 . S
H350 C363 0.918 1_455 S
H351 C361 0.918 1_655 S
H352 C356 0.929 . S
H353 C362 0.929 . S
C354 H348 0.930 . S
C354 C355 1.367 . S
C354 C362 1.378 . S
C355 C354 1.367 . S
C355 C363 1.453 . S
C356 H352 0.929 . S
C356 C358 1.378 . S
C356 C360 1.350 . S
C357 C360 1.463 1_645 S
C357 C362 1.350 . S
C357 N365 1.427 1_655 S
C358 H349 0.930 . S
C358 C356 1.378 . S
C358 C359 1.367 . S
C359 C358 1.367 . S
C359 C361 1.453 . S
C360 C356 1.350 . S
C360 C357 1.463 1_465 S
C360 N364 1.427 1_455 S
C361 H351 0.918 1_455 S
C361 C359 1.453 . S
C361 N364 1.376 1_455 S
C362 H353 0.929 . S
C362 C354 1.378 . S
C362 C357 1.350 . S
C363 H350 0.918 1_655 S
C363 C355 1.453 . S
C363 N365 1.376 1_655 S
N364 C360 1.427 1_655 S
N364 C361 1.376 1_655 S
N365 C357 1.427 1_455 S
N365 C363 1.376 1_455 S
H366 C372 0.930 . S
H367 C376 0.930 . S
H368 C381 0.929 . S
H369 C379 0.929 . S
H370 C374 0.929 . S
H371 C380 0.929 . S
C372 H366 0.930 . S
C372 C373 1.367 . S
C372 C380 1.378 . S
C373 C372 1.367 . S
C373 C381 1.433 . S
C374 H370 0.929 . S
C374 C376 1.378 . S
C374 C378 1.350 . S
C375 C378 1.463 1_556 S
C375 C380 1.350 . S
C375 N383 1.427 . S
C376 H367 0.930 . S
C376 C374 1.378 . S
C376 C377 1.367 . S
C377 C376 1.367 . S
C377 C379 1.433 . S
C378 C374 1.350 . S
C378 C375 1.463 1_554 S
C378 N382 1.427 . S
C379 H369 0.929 . S
C379 C377 1.433 . S
C379 N382 1.384 . S
C380 H371 0.929 . S
C380 C372 1.378 . S
C380 C375 1.350 . S
C381 H368 0.929 . S
C381 C373 1.433 . S
C381 N383 1.384 . S
N382 C378 1.427 . S
N382 C379 1.384 . S
N383 C375 1.427 . S
N383 C381 1.384 . S
H384 C390 0.930 . S
H385 C394 0.930 . S
H386 C399 0.929 . S
H387 C397 0.929 . S
H388 C392 0.929 . S
H389 C398 0.929 . S
C390 H384 0.930 . S
C390 C391 1.367 . S
C390 C398 1.378 . S
C391 C390 1.367 . S
C391 C399 1.433 . S
C392 H388 0.929 . S
C392 C394 1.378 . S
C392 C396 1.350 . S
C393 C396 1.463 . S
C393 C398 1.350 . S
C393 N401 1.427 . S
C394 H385 0.930 . S
C394 C392 1.378 . S
C394 C395 1.367 . S
C395 C394 1.367 . S
C395 C397 1.433 . S
C396 C392 1.350 . S
C396 C393 1.463 . S
C396 N400 1.427 . S
C397 H387 0.929 . S
C397 C395 1.433 . S
C397 N400 1.384 . S
C398 H389 0.929 . S
C398 C390 1.378 . S
C398 C393 1.350 . S
C399 H386 0.929 . S
C399 C391 1.433 . S
C399 N401 1.384 . S
N400 C396 1.427 . S
N400 C397 1.384 . S
N401 C393 1.427 . S
N401 C399 1.384 . S
H402 C408 0.930 . S
H403 C412 0.930 . S
H404 C417 0.929 . S
H405 C415 0.929 . S
H406 C410 0.929 . S
H407 C416 0.929 . S
C408 H402 0.930 . S
C408 C409 1.367 . S
C408 C416 1.378 . S
C409 C408 1.367 . S
C409 C417 1.433 . S
C410 H406 0.929 . S
C410 C412 1.378 . S
C410 C414 1.350 . S
C411 C414 1.463 1_455 S
C411 C416 1.350 . S
C411 N419 1.427 . S
C412 H403 0.930 . S
C412 C410 1.378 . S
C412 C413 1.367 . S
C413 C412 1.367 . S
C413 C415 1.433 . S
C414 C410 1.350 . S
C414 C411 1.463 1_655 S
C414 N418 1.427 . S
C415 H405 0.929 . S
C415 C413 1.433 . S
C415 N418 1.384 . S
C416 H407 0.929 . S
C416 C408 1.378 . S
C416 C411 1.350 . S
C417 H404 0.929 . S
C417 C409 1.433 . S
C417 N419 1.384 . S
N418 C414 1.427 . S
N418 C415 1.384 . S
N419 C411 1.427 . S
N419 C417 1.384 . S
H420 C426 0.930 . S
H421 C430 0.930 . S
H422 C435 0.929 . S
H423 C433 0.929 . S
H424 C428 0.929 . S
H425 C434 0.929 . S
C426 H420 0.930 . S
C426 C427 1.367 . S
C426 C434 1.378 . S
C427 C426 1.367 . S
C427 C435 1.433 . S
C428 H424 0.929 . S
C428 C430 1.378 . S
C428 C432 1.350 . S
C429 C432 1.463 . S
C429 C434 1.350 . S
C429 N437 1.427 . S
C430 H421 0.930 . S
C430 C428 1.378 . S
C430 C431 1.367 . S
C431 C430 1.367 . S
C431 C433 1.433 . S
C432 C428 1.350 . S
C432 C429 1.463 . S
C432 N436 1.427 . S
C433 H423 0.929 . S
C433 C431 1.433 . S
C433 N436 1.384 . S
C434 H425 0.929 . S
C434 C426 1.378 . S
C434 C429 1.350 . S
C435 H422 0.929 . S
C435 C427 1.433 . S
C435 N437 1.384 . S
N436 C432 1.427 . S
N436 C433 1.384 . S
N437 C429 1.427 . S
N437 C435 1.384 . S
H438 C444 0.930 . S
H439 C448 0.930 . S
H440 C453 0.929 . S
H441 C451 0.929 . S
H442 C446 0.929 . S
H443 C452 0.929 . S
C444 H438 0.930 . S
C444 C445 1.367 . S
C444 C452 1.378 . S
C445 C444 1.367 . S
C445 C453 1.433 . S
C446 H442 0.929 . S
C446 C448 1.378 . S
C446 C450 1.350 . S
C447 C450 1.463 1_655 S
C447 C452 1.350 . S
C447 N455 1.427 . S
C448 H439 0.930 . S
C448 C446 1.378 . S
C448 C449 1.367 . S
C449 C448 1.367 . S
C449 C451 1.433 . S
C450 C446 1.350 . S
C450 C447 1.463 1_455 S
C450 N454 1.427 . S
C451 H441 0.929 . S
C451 C449 1.433 . S
C451 N454 1.384 . S
C452 H443 0.929 . S
C452 C444 1.378 . S
C452 C447 1.350 . S
C453 H440 0.929 . S
C453 C445 1.433 . S
C453 N455 1.384 . S
N454 C450 1.427 . S
N454 C451 1.384 . S
N455 C447 1.427 . S
N455 C453 1.384 . S
H456 C462 0.930 . S
H457 C466 0.930 . S
H458 C471 0.929 . S
H459 C469 0.929 . S
H460 C464 0.929 . S
H461 C470 0.929 . S
C462 H456 0.930 . S
C462 C463 1.367 . S
C462 C470 1.378 . S
C463 C462 1.367 . S
C463 C471 1.433 . S
C464 H460 0.929 . S
C464 C466 1.378 . S
C464 C468 1.350 . S
C465 C468 1.463 . S
C465 C470 1.350 . S
C465 N473 1.427 . S
C466 H457 0.930 . S
C466 C464 1.378 . S
C466 C467 1.367 . S
C467 C466 1.367 . S
C467 C469 1.433 . S
C468 C464 1.350 . S
C468 C465 1.463 . S
C468 N472 1.427 . S
C469 H459 0.929 . S
C469 C467 1.433 . S
C469 N472 1.384 . S
C470 H461 0.929 . S
C470 C462 1.378 . S
C470 C465 1.350 . S
C471 H458 0.929 . S
C471 C463 1.433 . S
C471 N473 1.384 . S
N472 C468 1.427 . S
N472 C469 1.384 . S
N473 C465 1.427 . S
N473 C471 1.384 . S
H474 C480 0.930 . S
H475 C484 0.930 1_556 S
H476 C489 0.929 . S
H477 C487 0.929 . S
H478 C482 0.929 . S
H479 C488 0.929 1_554 S
C480 H474 0.930 . S
C480 C481 1.367 . S
C480 C488 1.378 . S
C481 C480 1.367 . S
C481 C489 1.433 . S
C482 H478 0.929 . S
C482 C484 1.378 1_556 S
C482 C486 1.350 . S
C483 C486 1.463 . S
C483 C488 1.350 . S
C483 N491 1.427 . S
C484 H475 0.930 1_554 S
C484 C482 1.378 1_554 S
C484 C485 1.367 . S
C485 C484 1.367 . S
C485 C487 1.433 . S
C486 C482 1.350 . S
C486 C483 1.463 . S
C486 N490 1.427 1_556 S
C487 H477 0.929 . S
C487 C485 1.433 . S
C487 N490 1.384 . S
C488 H479 0.929 1_556 S
C488 C480 1.378 . S
C488 C483 1.350 . S
C489 H476 0.929 . S
C489 C481 1.433 . S
C489 N491 1.384 . S
N490 C486 1.427 1_554 S
N490 C487 1.384 . S
N491 C483 1.427 . S
N491 C489 1.384 . S
H492 C498 0.930 . S
H493 C502 0.930 . S
H494 C507 0.929 1_655 S
H495 C505 0.929 . S
H496 C500 0.929 . S
H497 C506 0.929 . S
C498 H492 0.930 . S
C498 C499 1.367 . S
C498 C506 1.378 . S
C499 C498 1.367 . S
C499 C507 1.433 . S
C500 H496 0.929 . S
C500 C502 1.378 . S
C500 C504 1.350 . S
C501 C504 1.463 . S
C501 C506 1.350 . S
C501 N509 1.427 . S
C502 H493 0.930 . S
C502 C500 1.378 . S
C502 C503 1.367 . S
C503 C502 1.367 . S
C503 C505 1.433 . S
C504 C500 1.350 . S
C504 C501 1.463 . S
C504 N508 1.427 . S
C505 H495 0.929 . S
C505 C503 1.433 . S
C505 N508 1.384 . S
C506 H497 0.929 . S
C506 C498 1.378 . S
C506 C501 1.350 . S
C507 H494 0.929 1_455 S
C507 C499 1.433 . S
C507 N509 1.384 . S
N508 C504 1.427 . S
N508 C505 1.384 . S
N509 C501 1.427 . S
N509 C507 1.384 . S
H510 C516 0.930 . S
H511 C520 0.930 . S
H512 C525 0.929 . S
H513 C523 0.929 . S
H514 C518 0.929 . S
H515 C524 0.929 . S
C516 H510 0.930 . S
C516 C517 1.367 . S
C516 C524 1.378 . S
C517 C516 1.367 . S
C517 C525 1.433 . S
C518 H514 0.929 . S
C518 C520 1.378 1_554 S
C518 C522 1.350 . S
C519 C522 1.463 . S
C519 C524 1.350 . S
C519 N527 1.427 . S
C520 H511 0.930 . S
C520 C518 1.378 1_556 S
C520 C521 1.367 . S
C521 C520 1.367 . S
C521 C523 1.433 . S
C522 C518 1.350 . S
C522 C519 1.463 . S
C522 N526 1.427 1_554 S
C523 H513 0.929 . S
C523 C521 1.433 . S
C523 N526 1.384 . S
C524 H515 0.929 . S
C524 C516 1.378 . S
C524 C519 1.350 . S
C525 H512 0.929 . S
C525 C517 1.433 . S
C525 N527 1.384 . S
N526 C522 1.427 1_556 S
N526 C523 1.384 . S
N527 C519 1.427 . S
N527 C525 1.384 . S
H528 C534 0.930 . S
H529 C538 0.930 . S
H530 C543 0.929 . S
H531 C541 0.929 . S
H532 C536 0.929 . S
H533 C542 0.929 . S
C534 H528 0.930 . S
C534 C535 1.367 . S
C534 C542 1.378 . S
C535 C534 1.367 . S
C535 C543 1.433 . S
C536 H532 0.929 . S
C536 C538 1.378 . S
C536 C540 1.350 . S
C537 C540 1.463 . S
C537 C542 1.350 . S
C537 N545 1.427 . S
C538 H529 0.930 . S
C538 C536 1.378 . S
C538 C539 1.367 . S
C539 C538 1.367 . S
C539 C541 1.433 . S
C540 C536 1.350 . S
C540 C537 1.463 . S
C540 N544 1.427 . S
C541 H531 0.929 . S
C541 C539 1.433 . S
C541 N544 1.384 . S
C542 H533 0.929 . S
C542 C534 1.378 . S
C542 C537 1.350 . S
C543 H530 0.929 . S
C543 C535 1.433 . S
C543 N545 1.384 . S
N544 C540 1.427 . S
N544 C541 1.384 . S
N545 C537 1.427 . S
N545 C543 1.384 . S
H546 C552 0.930 . S
H547 C556 0.930 . S
H548 C561 0.929 . S
H549 C559 0.929 . S
H550 C554 0.929 . S
H551 C560 0.929 . S
C552 H546 0.930 . S
C552 C553 1.367 . S
C552 C560 1.378 . S
C553 C552 1.367 . S
C553 C561 1.433 . S
C554 H550 0.929 . S
C554 C556 1.378 . S
C554 C558 1.350 1_556 S
C555 C558 1.463 . S
C555 C560 1.350 . S
C555 N563 1.427 . S
C556 H547 0.930 . S
C556 C554 1.378 . S
C556 C557 1.367 . S
C557 C556 1.367 . S
C557 C559 1.433 . S
C558 C554 1.350 1_554 S
C558 C555 1.463 . S
C558 N562 1.427 1_554 S
C559 H549 0.929 . S
C559 C557 1.433 . S
C559 N562 1.384 . S
C560 H551 0.929 . S
C560 C552 1.378 . S
C560 C555 1.350 . S
C561 H548 0.929 . S
C561 C553 1.433 . S
C561 N563 1.384 . S
N562 C558 1.427 1_556 S
N562 C559 1.384 . S
N563 C555 1.427 . S
N563 C561 1.384 . S
H564 C570 0.930 1_455 S
H565 C574 0.930 . S
H566 C579 0.929 . S
H567 C577 0.929 . S
H568 C572 0.929 . S
H569 C578 0.929 . S
C570 H564 0.930 1_655 S
C570 C571 1.367 . S
C570 C578 1.378 . S
C571 C570 1.367 . S
C571 C579 1.433 . S
C572 H568 0.929 . S
C572 C574 1.378 . S
C572 C576 1.350 . S
C573 C576 1.463 . S
C573 C578 1.350 . S
C573 N581 1.427 . S
C574 H565 0.930 . S
C574 C572 1.378 . S
C574 C575 1.367 . S
C575 C574 1.367 . S
C575 C577 1.433 . S
C576 C572 1.350 . S
C576 C573 1.463 . S
C576 N580 1.427 . S
C577 H567 0.929 . S
C577 C575 1.433 . S
C577 N580 1.384 . S
C578 H569 0.929 . S
C578 C570 1.378 . S
C578 C573 1.350 . S
C579 H566 0.929 . S
C579 C571 1.433 . S
C579 N581 1.384 . S
N580 C576 1.427 . S
N580 C577 1.384 . S
N581 C573 1.427 . S
N581 C579 1.384 . S
H582 C588 0.930 . S
H583 C592 0.930 . S
H584 C597 0.929 . S
H585 C595 0.929 . S
H586 C590 0.929 . S
H587 C596 0.929 . S
C588 H582 0.930 . S
C588 C589 1.367 . S
C588 C596 1.378 1_554 S
C589 C588 1.367 . S
C589 C597 1.433 . S
C590 H586 0.929 . S
C590 C592 1.378 . S
C590 C594 1.350 . S
C591 C594 1.463 . S
C591 C596 1.350 . S
C591 N599 1.427 1_556 S
C592 H583 0.930 . S
C592 C590 1.378 . S
C592 C593 1.367 . S
C593 C592 1.367 . S
C593 C595 1.433 . S
C594 C590 1.350 . S
C594 C591 1.463 . S
C594 N598 1.427 . S
C595 H585 0.929 . S
C595 C593 1.433 . S
C595 N598 1.384 . S
C596 H587 0.929 . S
C596 C588 1.378 1_556 S
C596 C591 1.350 . S
C597 H584 0.929 . S
C597 C589 1.433 . S
C597 N599 1.384 . S
N598 C594 1.427 . S
N598 C595 1.384 . S
N599 C591 1.427 1_554 S
N599 C597 1.384 . S
C175 C142 1.166 . S
C179 C3 1.373 . S
C193 C37 1.378 . S
C197 C163 1.139 . S
C211 C100 1.141 . S
C215 C58 1.380 . S
C229 C79 1.390 . S
C233 C121 1.164 . S
C247 C45 1.157 . S
C251 C87 1.369 . S
C265 C108 1.378 . S
C269 C66 1.139 . S
C283 C16 1.173 . S
C287 C129 1.379 . S
C301 C24 1.168 . S
C305 C150 1.389 . S
C319 C19 0.640 . S
C323 C103 0.640 . S
C337 C124 0.670 . S
C341 C41 0.670 . S
C355 C62 0.623 . S
C359 C145 0.623 . S
C373 C166 0.623 . S
C377 C83 0.623 . S
C391 C70 1.257 . S
C395 C4 1.234 . S
C409 C28 1.238 . S
C413 C49 1.262 . S
C427 C151 1.238 . S
C431 C88 1.249 . S
C445 C109 1.262 . S
C449 C130 1.237 . S
C463 C20 1.686 . S
C467 C46 1.623 . S
C481 C40 1.698 1_655 S
C485 C67 1.613 . S
C499 C61 1.688 1_455 S
C503 C7 1.619 . S
C517 C82 1.697 . S
C521 C25 1.610 . S
C535 C104 1.686 . S
C539 C133 1.628 . S
C553 C125 1.695 1_455 S
C557 C154 1.610 . S
C571 C146 1.694 1_655 S
C575 C91 1.624 . S
C589 C112 1.611 . S
C593 C167 1.698 . S
