# Generated by pormake.
# Topology ana, (4)-cn, num edge types: 1
# Building blocks:
#     Node 0, Type 0, BuildingBlock: QUQFOY_clean_sbu_3, # of connection points: 4
#     Node 1, Type 0, BuildingBlock: QUQFOY_clean_sbu_3, # of connection points: 4
#     Node 2, Type 0, BuildingBlock: QUQFOY_clean_sbu_3, # of connection points: 4
#     Node 3, Type 0, BuildingBlock: QUQFOY_clean_sbu_3, # of connection points: 4
#     Node 4, Type 0, BuildingBlock: QUQFOY_clean_sbu_3, # of connection points: 4
#     Node 5, Type 0, BuildingBlock: QUQFOY_clean_sbu_3, # of connection points: 4
#     Node 6, Type 0, BuildingBlock: QUQFOY_clean_sbu_3, # of connection points: 4
#     Node 7, Type 0, BuildingBlock: QUQFOY_clean_sbu_3, # of connection points: 4
#     Node 8, Type 0, BuildingBlock: QUQFOY_clean_sbu_3, # of connection points: 4
#     Node 9, Type 0, BuildingBlock: QUQFOY_clean_sbu_3, # of connection points: 4
#     Node 10, Type 0, BuildingBlock: QUQFOY_clean_sbu_3, # of connection points: 4
#     Node 11, Type 0, BuildingBlock: QUQFOY_clean_sbu_3, # of connection points: 4
#     Node 12, Type 0, BuildingBlock: QUQFOY_clean_sbu_3, # of connection points: 4
#     Node 13, Type 0, BuildingBlock: QUQFOY_clean_sbu_3, # of connection points: 4
#     Node 14, Type 0, BuildingBlock: QUQFOY_clean_sbu_3, # of connection points: 4
#     Node 15, Type 0, BuildingBlock: QUQFOY_clean_sbu_3, # of connection points: 4
#     Node 16, Type 0, BuildingBlock: QUQFOY_clean_sbu_3, # of connection points: 4
#     Node 17, Type 0, BuildingBlock: QUQFOY_clean_sbu_3, # of connection points: 4
#     Node 18, Type 0, BuildingBlock: QUQFOY_clean_sbu_3, # of connection points: 4
#     Node 19, Type 0, BuildingBlock: QUQFOY_clean_sbu_3, # of connection points: 4
#     Node 20, Type 0, BuildingBlock: QUQFOY_clean_sbu_3, # of connection points: 4
#     Node 21, Type 0, BuildingBlock: QUQFOY_clean_sbu_3, # of connection points: 4
#     Node 22, Type 0, BuildingBlock: QUQFOY_clean_sbu_3, # of connection points: 4
#     Node 23, Type 0, BuildingBlock: QUQFOY_clean_sbu_3, # of connection points: 4
#     Node 24, Type 0, BuildingBlock: QUQFOY_clean_sbu_3, # of connection points: 4
#     Node 25, Type 0, BuildingBlock: QUQFOY_clean_sbu_3, # of connection points: 4
#     Node 26, Type 0, BuildingBlock: QUQFOY_clean_sbu_3, # of connection points: 4
#     Node 27, Type 0, BuildingBlock: QUQFOY_clean_sbu_3, # of connection points: 4
#     Node 28, Type 0, BuildingBlock: QUQFOY_clean_sbu_3, # of connection points: 4
#     Node 29, Type 0, BuildingBlock: QUQFOY_clean_sbu_3, # of connection points: 4
#     Node 30, Type 0, BuildingBlock: QUQFOY_clean_sbu_3, # of connection points: 4
#     Node 31, Type 0, BuildingBlock: QUQFOY_clean_sbu_3, # of connection points: 4
#     Node 32, Type 0, BuildingBlock: QUQFOY_clean_sbu_3, # of connection points: 4
#     Node 33, Type 0, BuildingBlock: QUQFOY_clean_sbu_3, # of connection points: 4
#     Node 34, Type 0, BuildingBlock: QUQFOY_clean_sbu_3, # of connection points: 4
#     Node 35, Type 0, BuildingBlock: QUQFOY_clean_sbu_3, # of connection points: 4
#     Node 36, Type 0, BuildingBlock: QUQFOY_clean_sbu_3, # of connection points: 4
#     Node 37, Type 0, BuildingBlock: QUQFOY_clean_sbu_3, # of connection points: 4
#     Node 38, Type 0, BuildingBlock: QUQFOY_clean_sbu_3, # of connection points: 4
#     Node 39, Type 0, BuildingBlock: QUQFOY_clean_sbu_3, # of connection points: 4
#     Node 40, Type 0, BuildingBlock: QUQFOY_clean_sbu_3, # of connection points: 4
#     Node 41, Type 0, BuildingBlock: QUQFOY_clean_sbu_3, # of connection points: 4
#     Node 42, Type 0, BuildingBlock: QUQFOY_clean_sbu_3, # of connection points: 4
#     Node 43, Type 0, BuildingBlock: QUQFOY_clean_sbu_3, # of connection points: 4
#     Node 44, Type 0, BuildingBlock: QUQFOY_clean_sbu_3, # of connection points: 4
#     Node 45, Type 0, BuildingBlock: QUQFOY_clean_sbu_3, # of connection points: 4
#     Node 46, Type 0, BuildingBlock: QUQFOY_clean_sbu_3, # of connection points: 4
#     Node 47, Type 0, BuildingBlock: QUQFOY_clean_sbu_3, # of connection points: 4
#     Edge 48, Type (0, 0), BuildingBlock: MIFKUJ_clean_linker_0, # of connection points: 2
#     Edge 49, Type (0, 0), BuildingBlock: MIFKUJ_clean_linker_0, # of connection points: 2
#     Edge 50, Type (0, 0), BuildingBlock: MIFKUJ_clean_linker_0, # of connection points: 2
#     Edge 51, Type (0, 0), BuildingBlock: MIFKUJ_clean_linker_0, # of connection points: 2
#     Edge 52, Type (0, 0), BuildingBlock: MIFKUJ_clean_linker_0, # of connection points: 2
#     Edge 53, Type (0, 0), BuildingBlock: MIFKUJ_clean_linker_0, # of connection points: 2
#     Edge 54, Type (0, 0), BuildingBlock: MIFKUJ_clean_linker_0, # of connection points: 2
#     Edge 55, Type (0, 0), BuildingBlock: MIFKUJ_clean_linker_0, # of connection points: 2
#     Edge 56, Type (0, 0), BuildingBlock: MIFKUJ_clean_linker_0, # of connection points: 2
#     Edge 57, Type (0, 0), BuildingBlock: MIFKUJ_clean_linker_0, # of connection points: 2
#     Edge 58, Type (0, 0), BuildingBlock: MIFKUJ_clean_linker_0, # of connection points: 2
#     Edge 59, Type (0, 0), BuildingBlock: MIFKUJ_clean_linker_0, # of connection points: 2
#     Edge 60, Type (0, 0), BuildingBlock: MIFKUJ_clean_linker_0, # of connection points: 2
#     Edge 61, Type (0, 0), BuildingBlock: MIFKUJ_clean_linker_0, # of connection points: 2
#     Edge 62, Type (0, 0), BuildingBlock: MIFKUJ_clean_linker_0, # of connection points: 2
#     Edge 63, Type (0, 0), BuildingBlock: MIFKUJ_clean_linker_0, # of connection points: 2
#     Edge 64, Type (0, 0), BuildingBlock: MIFKUJ_clean_linker_0, # of connection points: 2
#     Edge 65, Type (0, 0), BuildingBlock: MIFKUJ_clean_linker_0, # of connection points: 2
#     Edge 66, Type (0, 0), BuildingBlock: MIFKUJ_clean_linker_0, # of connection points: 2
#     Edge 67, Type (0, 0), BuildingBlock: MIFKUJ_clean_linker_0, # of connection points: 2
#     Edge 68, Type (0, 0), BuildingBlock: MIFKUJ_clean_linker_0, # of connection points: 2
#     Edge 69, Type (0, 0), BuildingBlock: MIFKUJ_clean_linker_0, # of connection points: 2
#     Edge 70, Type (0, 0), BuildingBlock: MIFKUJ_clean_linker_0, # of connection points: 2
#     Edge 71, Type (0, 0), BuildingBlock: MIFKUJ_clean_linker_0, # of connection points: 2
#     Edge 72, Type (0, 0), BuildingBlock: MIFKUJ_clean_linker_0, # of connection points: 2
#     Edge 73, Type (0, 0), BuildingBlock: MIFKUJ_clean_linker_0, # of connection points: 2
#     Edge 74, Type (0, 0), BuildingBlock: MIFKUJ_clean_linker_0, # of connection points: 2
#     Edge 75, Type (0, 0), BuildingBlock: MIFKUJ_clean_linker_0, # of connection points: 2
#     Edge 76, Type (0, 0), BuildingBlock: MIFKUJ_clean_linker_0, # of connection points: 2
#     Edge 77, Type (0, 0), BuildingBlock: MIFKUJ_clean_linker_0, # of connection points: 2
#     Edge 78, Type (0, 0), BuildingBlock: MIFKUJ_clean_linker_0, # of connection points: 2
#     Edge 79, Type (0, 0), BuildingBlock: MIFKUJ_clean_linker_0, # of connection points: 2
#     Edge 80, Type (0, 0), BuildingBlock: MIFKUJ_clean_linker_0, # of connection points: 2
#     Edge 81, Type (0, 0), BuildingBlock: MIFKUJ_clean_linker_0, # of connection points: 2
#     Edge 82, Type (0, 0), BuildingBlock: MIFKUJ_clean_linker_0, # of connection points: 2
#     Edge 83, Type (0, 0), BuildingBlock: MIFKUJ_clean_linker_0, # of connection points: 2
#     Edge 84, Type (0, 0), BuildingBlock: MIFKUJ_clean_linker_0, # of connection points: 2
#     Edge 85, Type (0, 0), BuildingBlock: MIFKUJ_clean_linker_0, # of connection points: 2
#     Edge 86, Type (0, 0), BuildingBlock: MIFKUJ_clean_linker_0, # of connection points: 2
#     Edge 87, Type (0, 0), BuildingBlock: MIFKUJ_clean_linker_0, # of connection points: 2
#     Edge 88, Type (0, 0), BuildingBlock: MIFKUJ_clean_linker_0, # of connection points: 2
#     Edge 89, Type (0, 0), BuildingBlock: MIFKUJ_clean_linker_0, # of connection points: 2
#     Edge 90, Type (0, 0), BuildingBlock: MIFKUJ_clean_linker_0, # of connection points: 2
#     Edge 91, Type (0, 0), BuildingBlock: MIFKUJ_clean_linker_0, # of connection points: 2
#     Edge 92, Type (0, 0), BuildingBlock: MIFKUJ_clean_linker_0, # of connection points: 2
#     Edge 93, Type (0, 0), BuildingBlock: MIFKUJ_clean_linker_0, # of connection points: 2
#     Edge 94, Type (0, 0), BuildingBlock: MIFKUJ_clean_linker_0, # of connection points: 2
#     Edge 95, Type (0, 0), BuildingBlock: MIFKUJ_clean_linker_0, # of connection points: 2
#     Edge 96, Type (0, 0), BuildingBlock: MIFKUJ_clean_linker_0, # of connection points: 2
#     Edge 97, Type (0, 0), BuildingBlock: MIFKUJ_clean_linker_0, # of connection points: 2
#     Edge 98, Type (0, 0), BuildingBlock: MIFKUJ_clean_linker_0, # of connection points: 2
#     Edge 99, Type (0, 0), BuildingBlock: MIFKUJ_clean_linker_0, # of connection points: 2
#     Edge 100, Type (0, 0), BuildingBlock: MIFKUJ_clean_linker_0, # of connection points: 2
#     Edge 101, Type (0, 0), BuildingBlock: MIFKUJ_clean_linker_0, # of connection points: 2
#     Edge 102, Type (0, 0), BuildingBlock: MIFKUJ_clean_linker_0, # of connection points: 2
#     Edge 103, Type (0, 0), BuildingBlock: MIFKUJ_clean_linker_0, # of connection points: 2
#     Edge 104, Type (0, 0), BuildingBlock: MIFKUJ_clean_linker_0, # of connection points: 2
#     Edge 105, Type (0, 0), BuildingBlock: MIFKUJ_clean_linker_0, # of connection points: 2
#     Edge 106, Type (0, 0), BuildingBlock: MIFKUJ_clean_linker_0, # of connection points: 2
#     Edge 107, Type (0, 0), BuildingBlock: MIFKUJ_clean_linker_0, # of connection points: 2
#     Edge 108, Type (0, 0), BuildingBlock: MIFKUJ_clean_linker_0, # of connection points: 2
#     Edge 109, Type (0, 0), BuildingBlock: MIFKUJ_clean_linker_0, # of connection points: 2
#     Edge 110, Type (0, 0), BuildingBlock: MIFKUJ_clean_linker_0, # of connection points: 2
#     Edge 111, Type (0, 0), BuildingBlock: MIFKUJ_clean_linker_0, # of connection points: 2
#     Edge 112, Type (0, 0), BuildingBlock: MIFKUJ_clean_linker_0, # of connection points: 2
#     Edge 113, Type (0, 0), BuildingBlock: MIFKUJ_clean_linker_0, # of connection points: 2
#     Edge 114, Type (0, 0), BuildingBlock: MIFKUJ_clean_linker_0, # of connection points: 2
#     Edge 115, Type (0, 0), BuildingBlock: MIFKUJ_clean_linker_0, # of connection points: 2
#     Edge 116, Type (0, 0), BuildingBlock: MIFKUJ_clean_linker_0, # of connection points: 2
#     Edge 117, Type (0, 0), BuildingBlock: MIFKUJ_clean_linker_0, # of connection points: 2
#     Edge 118, Type (0, 0), BuildingBlock: MIFKUJ_clean_linker_0, # of connection points: 2
#     Edge 119, Type (0, 0), BuildingBlock: MIFKUJ_clean_linker_0, # of connection points: 2
#     Edge 120, Type (0, 0), BuildingBlock: MIFKUJ_clean_linker_0, # of connection points: 2
#     Edge 121, Type (0, 0), BuildingBlock: MIFKUJ_clean_linker_0, # of connection points: 2
#     Edge 122, Type (0, 0), BuildingBlock: MIFKUJ_clean_linker_0, # of connection points: 2
#     Edge 123, Type (0, 0), BuildingBlock: MIFKUJ_clean_linker_0, # of connection points: 2
#     Edge 124, Type (0, 0), BuildingBlock: MIFKUJ_clean_linker_0, # of connection points: 2
#     Edge 125, Type (0, 0), BuildingBlock: MIFKUJ_clean_linker_0, # of connection points: 2
#     Edge 126, Type (0, 0), BuildingBlock: MIFKUJ_clean_linker_0, # of connection points: 2
#     Edge 127, Type (0, 0), BuildingBlock: MIFKUJ_clean_linker_0, # of connection points: 2
#     Edge 128, Type (0, 0), BuildingBlock: MIFKUJ_clean_linker_0, # of connection points: 2
#     Edge 129, Type (0, 0), BuildingBlock: MIFKUJ_clean_linker_0, # of connection points: 2
#     Edge 130, Type (0, 0), BuildingBlock: MIFKUJ_clean_linker_0, # of connection points: 2
#     Edge 131, Type (0, 0), BuildingBlock: MIFKUJ_clean_linker_0, # of connection points: 2
#     Edge 132, Type (0, 0), BuildingBlock: MIFKUJ_clean_linker_0, # of connection points: 2
#     Edge 133, Type (0, 0), BuildingBlock: MIFKUJ_clean_linker_0, # of connection points: 2
#     Edge 134, Type (0, 0), BuildingBlock: MIFKUJ_clean_linker_0, # of connection points: 2
#     Edge 135, Type (0, 0), BuildingBlock: MIFKUJ_clean_linker_0, # of connection points: 2
#     Edge 136, Type (0, 0), BuildingBlock: MIFKUJ_clean_linker_0, # of connection points: 2
#     Edge 137, Type (0, 0), BuildingBlock: MIFKUJ_clean_linker_0, # of connection points: 2
#     Edge 138, Type (0, 0), BuildingBlock: MIFKUJ_clean_linker_0, # of connection points: 2
#     Edge 139, Type (0, 0), BuildingBlock: MIFKUJ_clean_linker_0, # of connection points: 2
#     Edge 140, Type (0, 0), BuildingBlock: MIFKUJ_clean_linker_0, # of connection points: 2
#     Edge 141, Type (0, 0), BuildingBlock: MIFKUJ_clean_linker_0, # of connection points: 2
#     Edge 142, Type (0, 0), BuildingBlock: MIFKUJ_clean_linker_0, # of connection points: 2
#     Edge 143, Type (0, 0), BuildingBlock: MIFKUJ_clean_linker_0, # of connection points: 2
# Relax obj value: 0.102
# Max RMSD: 0.126
# Mean RMSD: 0.114
data_MOF--net-ana--node1-QUQFOY_clean_sbu_3--edge1-MIFKUJ_clean_linker_0
_symmetry_space_group_name_H-M    P1
_symmetry_Int_Tables_number       1
_symmetry_cell_setting            triclinic
loop_
_symmetry_equiv_pos_as_xyz
'x, y, z'
_cell_length_a     84.139764
_cell_length_b     85.512746
_cell_length_c     85.370934
_cell_angle_alpha  90.17446
_cell_angle_beta   90.334301
_cell_angle_gamma 90.879968
loop_
_atom_site_label
_atom_site_type_symbol
_atom_site_fract_x
_atom_site_fract_y
_atom_site_fract_z
_atom_type_partial_charge
C0 C 0.13732 0.12613 0.38122 0.0
O1 O 0.12613 0.11605 0.38213 0.0
Cd2 Cd 0.10045 0.12239 0.39271 0.0
O3 O 0.13525 0.14007 0.38593 0.0
Cd4 Cd 0.11446 0.15612 0.3975 0.0
C5 C 0.11031 0.13395 0.42984 0.0
O6 O 0.09167 0.14685 0.38186 0.0
O7 O 0.08662 0.16101 0.40217 0.0
O8 O 0.12413 0.17845 0.38247 0.0
C9 C 0.08151 0.154 0.39003 0.0
O10 O 0.10281 0.12403 0.42131 0.0
C11 C 0.12613 0.18732 0.3943 0.0
O12 O 0.11692 0.14593 0.42377 0.0
O13 O 0.12276 0.1816 0.4076 0.0
C14 C 0.08613 0.89028 0.67975 0.0
O15 O 0.07287 0.8962 0.67609 0.0
Cd16 Cd 0.05975 0.89233 0.65144 0.0
O17 O 0.09373 0.88202 0.66993 0.0
Cd18 Cd 0.09055 0.87298 0.64239 0.0
C19 C 0.08754 0.90955 0.62773 0.0
O20 O 0.06308 0.86511 0.6463 0.0
O21 O 0.07146 0.86291 0.62263 0.0
O22 O 0.10595 0.8508 0.65119 0.0
C23 C 0.06041 0.86059 0.6324 0.0
O24 O 0.07352 0.90964 0.63325 0.0
C25 C 0.11403 0.84964 0.63874 0.0
O26 O 0.09664 0.89807 0.63024 0.0
O27 O 0.11158 0.85974 0.62817 0.0
C28 C 0.34624 0.87333 0.87545 0.0
O29 O 0.35627 0.88438 0.87759 0.0
Cd30 Cd 0.38264 0.87957 0.88796 0.0
O31 O 0.34955 0.85944 0.87939 0.0
Cd32 Cd 0.37104 0.84533 0.89188 0.0
C33 C 0.37361 0.86749 0.92459 0.0
O34 O 0.39406 0.85587 0.87752 0.0
O35 O 0.39862 0.84229 0.89837 0.0
O36 O 0.36436 0.82142 0.87729 0.0
C37 C 0.40407 0.84938 0.88652 0.0
O38 O 0.38085 0.8778 0.91647 0.0
C39 C 0.36129 0.81342 0.88945 0.0
O40 O 0.36744 0.85544 0.9181 0.0
O41 O 0.36286 0.8203 0.90257 0.0
C42 C 0.39438 0.10735 0.17924 0.0
O43 O 0.40765 0.10082 0.1771 0.0
Cd44 Cd 0.42351 0.10307 0.15414 0.0
O45 O 0.38802 0.11555 0.16851 0.0
Cd46 Cd 0.39394 0.12341 0.14113 0.0
C47 C 0.39692 0.08615 0.12826 0.0
O48 O 0.42118 0.12978 0.14752 0.0
O49 O 0.41556 0.13134 0.12302 0.0
O50 O 0.38011 0.14708 0.14803 0.0
C51 C 0.42575 0.13318 0.13388 0.0
O52 O 0.41042 0.08617 0.13506 0.0
C53 C 0.37291 0.14848 0.13502 0.0
O54 O 0.38769 0.09776 0.12954 0.0
O55 O 0.37492 0.13774 0.12496 0.0
C56 C 0.10501 0.87877 0.11898 0.0
O57 O 0.11583 0.87732 0.12927 0.0
Cd58 Cd 0.13886 0.8616 0.12489 0.0
O59 O 0.10622 0.87206 0.10572 0.0
Cd60 Cd 0.12481 0.85541 0.09151 0.0
C61 C 0.12157 0.82598 0.11752 0.0
O62 O 0.15 0.86767 0.09958 0.0
O63 O 0.15119 0.845 0.08842 0.0
O64 O 0.11968 0.86868 0.06677 0.0
C65 C 0.15846 0.85696 0.09377 0.0
O66 O 0.13019 0.83414 0.12685 0.0
C67 C 0.11515 0.85638 0.05953 0.0
O68 O 0.11707 0.83149 0.10444 0.0
O69 O 0.1149 0.84375 0.06729 0.0
C70 C 0.44027 0.87583 0.33951 0.0
O71 O 0.43928 0.87064 0.32557 0.0
Cd72 Cd 0.41536 0.86527 0.31173 0.0
O73 O 0.42781 0.87931 0.34717 0.0
Cd74 Cd 0.39836 0.88056 0.34334 0.0
C75 C 0.39763 0.8412 0.33972 0.0
O76 O 0.40135 0.88842 0.3168 0.0
O77 O 0.37711 0.88386 0.32315 0.0
O78 O 0.4024 0.90446 0.35804 0.0
C79 C 0.38692 0.88811 0.31273 0.0
O80 O 0.4045 0.84332 0.32662 0.0
C81 C 0.38934 0.9038 0.36538 0.0
O82 O 0.39412 0.8527 0.34853 0.0
O83 O 0.38051 0.89182 0.36296 0.0
C84 C 0.39074 0.12537 0.61979 0.0
O85 O 0.38004 0.12295 0.63001 0.0
Cd86 Cd 0.3521 0.12755 0.62522 0.0
O87 O 0.38721 0.12919 0.60581 0.0
Cd88 Cd 0.3648 0.13361 0.58811 0.0
C89 C 0.35461 0.16508 0.61063 0.0
O90 O 0.34728 0.11503 0.60056 0.0
O91 O 0.33767 0.12662 0.58036 0.0
O92 O 0.37969 0.12168 0.56682 0.0
C93 C 0.33542 0.1174 0.59173 0.0
O94 O 0.35093 0.15609 0.62198 0.0
C95 C 0.37753 0.13304 0.55749 0.0
O96 O 0.35988 0.15967 0.5978 0.0
O97 O 0.36977 0.14458 0.56264 0.0
C98 C 0.05803 0.12092 0.83433 0.0
O99 O 0.06106 0.12441 0.8202 0.0
Cd100 Cd 0.08656 0.12383 0.80857 0.0
O101 O 0.06898 0.11634 0.84359 0.0
Cd102 Cd 0.09796 0.11053 0.84306 0.0
C103 C 0.1057 0.14856 0.83513 0.0
O104 O 0.09547 0.09938 0.81763 0.0
O105 O 0.11967 0.10211 0.82514 0.0
O106 O 0.08984 0.08984 0.86068 0.0
C107 C 0.10996 0.09734 0.81471 0.0
O108 O 0.1005 0.14572 0.82134 0.0
C109 C 0.10261 0.0898 0.86864 0.0
O110 O 0.10548 0.13802 0.84565 0.0
O111 O 0.11318 0.09996 0.86513 0.0
C112 C 0.19147 0.40764 0.10897 0.0
O113 O 0.18933 0.4192 0.09993 0.0
Cd114 Cd 0.16458 0.43181 0.09621 0.0
O115 O 0.17997 0.40172 0.11675 0.0
Cd116 Cd 0.1512 0.4061 0.12145 0.0
C117 C 0.1411 0.4007 0.08345 0.0
O118 O 0.15613 0.43363 0.12257 0.0
O119 O 0.13142 0.42747 0.12457 0.0
O120 O 0.1586 0.39652 0.14705 0.0
C121 C 0.14208 0.43811 0.1245 0.0
O122 O 0.14774 0.41392 0.08088 0.0
C123 C 0.1458 0.3889 0.14949 0.0
O124 O 0.14146 0.39456 0.09701 0.0
O125 O 0.13536 0.38907 0.13869 0.0
C126 C 0.68073 0.09029 0.87913 0.0
O127 O 0.67811 0.07667 0.88454 0.0
Cd128 Cd 0.65334 0.06296 0.88159 0.0
O129 O 0.67002 0.0974 0.87145 0.0
Cd130 Cd 0.64244 0.09316 0.86199 0.0
C131 C 0.62981 0.09035 0.8993 0.0
O132 O 0.6469 0.0665 0.85464 0.0
O133 O 0.62242 0.07321 0.85363 0.0
O134 O 0.65185 0.10764 0.83952 0.0
C135 C 0.63271 0.06284 0.85114 0.0
O136 O 0.6357 0.07671 0.89938 0.0
C137 C 0.63921 0.1153 0.83751 0.0
O138 O 0.63131 0.09921 0.88743 0.0
O139 O 0.62812 0.11307 0.84733 0.0
C140 C 0.81907 0.90171 0.36227 0.0
O141 O 0.82103 0.91623 0.36485 0.0
Cd142 Cd 0.8464 0.92657 0.37154 0.0
O143 O 0.83096 0.89269 0.36128 0.0
Cd144 Cd 0.86053 0.89348 0.36053 0.0
C145 C 0.85721 0.89828 0.39906 0.0
O146 O 0.86259 0.91925 0.35014 0.0
O147 O 0.88391 0.91156 0.36148 0.0
O148 O 0.85558 0.87862 0.33707 0.0
C149 C 0.877 0.92196 0.35352 0.0
O150 O 0.85249 0.91195 0.39558 0.0
C151 C 0.86775 0.87012 0.33803 0.0
O152 O 0.86089 0.88852 0.38842 0.0
O153 O 0.87665 0.87204 0.35 0.0
C154 C 0.84064 0.05199 0.12852 0.0
O155 O 0.82683 0.05417 0.13398 0.0
Cd156 Cd 0.81253 0.07783 0.1337 0.0
O157 O 0.84857 0.06323 0.12236 0.0
Cd158 Cd 0.8446 0.09165 0.11679 0.0
C159 C 0.83898 0.10109 0.15476 0.0
O160 O 0.81789 0.08668 0.1081 0.0
O161 O 0.82383 0.11104 0.10987 0.0
O162 O 0.86063 0.0868 0.09371 0.0
C163 C 0.81361 0.1006 0.1062 0.0
O164 O 0.82532 0.09462 0.15325 0.0
C165 C 0.86754 0.1001 0.09372 0.0
O166 O 0.84907 0.1007 0.1437 0.0
O167 O 0.86437 0.10926 0.10497 0.0
C168 C 0.33869 0.54824 0.62862 0.0
O169 O 0.32583 0.55091 0.6358 0.0
Cd170 Cd 0.31318 0.57542 0.63819 0.0
O171 O 0.34646 0.55932 0.62201 0.0
Cd172 Cd 0.3434 0.58809 0.61825 0.0
C173 C 0.34292 0.59631 0.657 0.0
O174 O 0.31558 0.58525 0.6124 0.0
O175 O 0.32341 0.6091 0.6147 0.0
O176 O 0.35597 0.5845 0.59291 0.0
C177 C 0.31218 0.59953 0.6116 0.0
O178 O 0.32878 0.59077 0.65702 0.0
C179 C 0.36479 0.59665 0.59383 0.0
O180 O 0.35144 0.59569 0.64475 0.0
O181 O 0.36404 0.60459 0.60639 0.0
C182 C 0.15056 0.56594 0.37237 0.0
O183 O 0.16531 0.56828 0.37007 0.0
Cd184 Cd 0.17782 0.59333 0.37046 0.0
O185 O 0.14145 0.57716 0.376 0.0
Cd186 Cd 0.14315 0.60562 0.38208 0.0
C187 C 0.1524 0.61185 0.34443 0.0
O188 O 0.16856 0.60345 0.39446 0.0
O189 O 0.16152 0.62713 0.39058 0.0
O190 O 0.12481 0.59791 0.40235 0.0
C191 C 0.17161 0.61783 0.39626 0.0
O192 O 0.16598 0.60638 0.34789 0.0
C193 C 0.11744 0.61073 0.4028 0.0
O194 O 0.14137 0.6124 0.35456 0.0
O195 O 0.12139 0.62105 0.39281 0.0
C196 C 0.3072 0.40555 0.86671 0.0
O197 O 0.30847 0.41988 0.87052 0.0
Cd198 Cd 0.33319 0.43317 0.87419 0.0
O199 O 0.31942 0.39757 0.86333 0.0
Cd200 Cd 0.34864 0.4004 0.85955 0.0
C201 C 0.35108 0.40568 0.89861 0.0
O202 O 0.34649 0.42662 0.85087 0.0
O203 O 0.37057 0.41957 0.8546 0.0
O204 O 0.34214 0.38521 0.83656 0.0
C205 C 0.36109 0.43022 0.85055 0.0
O206 O 0.34451 0.41882 0.89626 0.0
C207 C 0.35473 0.37725 0.83651 0.0
O208 O 0.35387 0.39634 0.88732 0.0
O209 O 0.36455 0.37962 0.84768 0.0
C210 C 0.84769 0.85724 0.60933 0.0
O211 O 0.8601 0.86585 0.60864 0.0
Cd212 Cd 0.88414 0.85758 0.59631 0.0
O213 O 0.84761 0.84348 0.60358 0.0
Cd214 Cd 0.86553 0.82536 0.59014 0.0
C215 C 0.86909 0.84987 0.55951 0.0
O216 O 0.88936 0.83168 0.6052 0.0
O217 O 0.8929 0.81821 0.58414 0.0
O218 O 0.8538 0.80511 0.60636 0.0
C219 C 0.89877 0.8242 0.59651 0.0
O220 O 0.87856 0.85787 0.56817 0.0
C221 C 0.85123 0.7954 0.59533 0.0
O222 O 0.86158 0.83802 0.56488 0.0
O223 O 0.85501 0.79976 0.58161 0.0
C224 C 0.8622 0.14202 0.37613 0.0
O225 O 0.86502 0.13219 0.38687 0.0
Cd226 Cd 0.88018 0.10895 0.38225 0.0
O227 O 0.86698 0.13964 0.36223 0.0
Cd228 Cd 0.88134 0.12024 0.3469 0.0
C229 C 0.91461 0.12564 0.36865 0.0
O230 O 0.87108 0.09599 0.35867 0.0
O231 O 0.89135 0.09434 0.34333 0.0
O232 O 0.8635 0.12383 0.32469 0.0
C233 C 0.88099 0.08743 0.35161 0.0
O234 O 0.9077 0.11811 0.37958 0.0
C235 C 0.87445 0.12737 0.31508 0.0
O236 O 0.90735 0.12877 0.35596 0.0
O237 O 0.88857 0.12787 0.3204 0.0
C238 C 0.64716 0.1313 0.10136 0.0
O239 O 0.63626 0.12102 0.10297 0.0
Cd240 Cd 0.60924 0.12683 0.09543 0.0
O241 O 0.64387 0.14488 0.09646 0.0
Cd242 Cd 0.62223 0.16167 0.08841 0.0
C243 C 0.61546 0.13827 0.05719 0.0
O244 O 0.60165 0.15178 0.10594 0.0
O245 O 0.59427 0.16709 0.0872 0.0
O246 O 0.63501 0.18114 0.10488 0.0
C247 C 0.59053 0.15905 0.0991 0.0
O248 O 0.60995 0.12828 0.06688 0.0
C249 C 0.63602 0.19164 0.09445 0.0
O250 O 0.62151 0.15122 0.06189 0.0
O251 O 0.63044 0.18826 0.08096 0.0
C252 C 0.62661 0.84565 0.87979 0.0
O253 O 0.62414 0.8563 0.88982 0.0
Cd254 Cd 0.60888 0.87893 0.88287 0.0
O255 O 0.62121 0.84691 0.86592 0.0
Cd256 Cd 0.60604 0.86509 0.84983 0.0
C257 C 0.57329 0.86266 0.87197 0.0
O258 O 0.61762 0.89022 0.8583 0.0
O259 O 0.59549 0.8908 0.84529 0.0
O260 O 0.62259 0.86012 0.82709 0.0
C261 C 0.6072 0.89821 0.85123 0.0
O262 O 0.58074 0.8711 0.88199 0.0
C263 C 0.61127 0.85505 0.81848 0.0
O264 O 0.5802 0.85783 0.85972 0.0
O265 O 0.59754 0.85452 0.82456 0.0
C266 C 0.89603 0.14156 0.87839 0.0
O267 O 0.88519 0.14114 0.86799 0.0
Cd268 Cd 0.85915 0.15107 0.87261 0.0
O269 O 0.89323 0.14679 0.89206 0.0
Cd270 Cd 0.87154 0.15716 0.90807 0.0
C271 C 0.86967 0.18859 0.88435 0.0
O272 O 0.85036 0.14084 0.89717 0.0
O273 O 0.8431 0.1599 0.91204 0.0
O274 O 0.88117 0.13995 0.92828 0.0
C275 C 0.83921 0.148 0.90391 0.0
O276 O 0.86352 0.1793 0.87423 0.0
C277 C 0.88214 0.15022 0.93901 0.0
O278 O 0.87436 0.1836 0.89763 0.0
O279 O 0.87831 0.16407 0.93533 0.0
C280 C 0.61608 0.10012 0.62932 0.0
O281 O 0.62854 0.10866 0.62927 0.0
Cd282 Cd 0.62815 0.13569 0.63766 0.0
O283 O 0.60295 0.10564 0.63385 0.0
Cd284 Cd 0.59255 0.13017 0.64376 0.0
C285 C 0.61643 0.13103 0.67538 0.0
O286 O 0.60581 0.1495 0.62665 0.0
O287 O 0.59416 0.15788 0.6475 0.0
O288 O 0.56789 0.12312 0.63019 0.0
C289 C 0.60129 0.16101 0.63485 0.0
O290 O 0.62746 0.13584 0.66635 0.0
C291 C 0.55915 0.12551 0.64201 0.0
O292 O 0.60301 0.12671 0.66983 0.0
O293 O 0.56596 0.13016 0.65451 0.0
C294 C 0.60101 0.87179 0.38674 0.0
O295 O 0.61006 0.8709 0.37493 0.0
Cd296 Cd 0.6354 0.85865 0.37551 0.0
O297 O 0.6055 0.86672 0.40003 0.0
Cd298 Cd 0.62916 0.85496 0.41217 0.0
C299 C 0.62403 0.82261 0.39013 0.0
O300 O 0.64966 0.86881 0.39764 0.0
O301 O 0.65726 0.84864 0.41069 0.0
O302 O 0.62692 0.87267 0.43413 0.0
C303 C 0.66095 0.86031 0.40227 0.0
O304 O 0.62917 0.83082 0.37875 0.0
C305 C 0.62617 0.8621 0.44451 0.0
O306 O 0.62207 0.82865 0.40361 0.0
O307 O 0.62658 0.848 0.43981 0.0
C308 C 0.88192 0.89105 0.13459 0.0
O309 O 0.87074 0.88092 0.13556 0.0
Cd310 Cd 0.87461 0.85351 0.14167 0.0
O311 O 0.89624 0.88735 0.1374 0.0
Cd312 Cd 0.91213 0.86508 0.14542 0.0
C313 C 0.89069 0.85602 0.1784 0.0
O314 O 0.89861 0.8462 0.1287 0.0
O315 O 0.91806 0.83748 0.1425 0.0
O316 O 0.93508 0.87555 0.13138 0.0
C317 C 0.90668 0.83459 0.13309 0.0
O318 O 0.87891 0.85169 0.16992 0.0
C319 C 0.9436 0.87728 0.14364 0.0
O320 O 0.90321 0.86184 0.1723 0.0
O321 O 0.93747 0.87312 0.15655 0.0
C322 C 0.86792 0.61537 0.84688 0.0
O323 O 0.8797 0.61471 0.85624 0.0
Cd324 Cd 0.87727 0.60911 0.8839 0.0
O325 O 0.85387 0.61264 0.85165 0.0
Cd326 Cd 0.83952 0.60536 0.87536 0.0
C327 C 0.86088 0.57232 0.88207 0.0
O328 O 0.85435 0.62277 0.89287 0.0
O329 O 0.83598 0.60844 0.90338 0.0
O330 O 0.81708 0.62041 0.86598 0.0
C331 C 0.84702 0.61855 0.90512 0.0
O332 O 0.87275 0.58098 0.88585 0.0
C333 C 0.80733 0.60891 0.86596 0.0
O334 O 0.84801 0.57826 0.87713 0.0
O335 O 0.8126 0.5958 0.8704 0.0
C336 C 0.37987 0.86807 0.08989 0.0
O337 O 0.3781 0.85622 0.09864 0.0
Cd338 Cd 0.36321 0.85815 0.12258 0.0
O339 O 0.37406 0.88113 0.0938 0.0
Cd340 Cd 0.35876 0.8926 0.11501 0.0
C341 C 0.32751 0.86889 0.10765 0.0
O342 O 0.37086 0.88083 0.13824 0.0
O343 O 0.34789 0.89153 0.14106 0.0
O344 O 0.37448 0.9166 0.11325 0.0
C345 C 0.36005 0.88559 0.14735 0.0
O346 O 0.33518 0.85823 0.11466 0.0
C347 C 0.36273 0.92539 0.11063 0.0
O348 O 0.33389 0.88221 0.1052 0.0
O349 O 0.34908 0.91888 0.11004 0.0
C350 C 0.11685 0.12476 0.59515 0.0
O351 O 0.12045 0.1356 0.60477 0.0
Cd352 Cd 0.13368 0.12968 0.62938 0.0
O353 O 0.12095 0.11081 0.59784 0.0
Cd354 Cd 0.13625 0.09677 0.61726 0.0
C355 C 0.16916 0.11889 0.6155 0.0
O356 O 0.12431 0.10584 0.64181 0.0
O357 O 0.14683 0.094 0.64335 0.0
O358 O 0.11997 0.07355 0.61213 0.0
C359 C 0.13489 0.09953 0.65029 0.0
O360 O 0.16224 0.12809 0.62491 0.0
C361 C 0.13152 0.06492 0.60847 0.0
O362 O 0.16161 0.10755 0.6091 0.0
O363 O 0.14531 0.07114 0.6089 0.0
C364 C 0.1293 0.87405 0.89678 0.0
O365 O 0.13013 0.86364 0.8862 0.0
Cd366 Cd 0.14029 0.86997 0.86047 0.0
O367 O 0.13363 0.88806 0.89394 0.0
Cd368 Cd 0.14385 0.90478 0.87302 0.0
C369 C 0.17762 0.88426 0.86891 0.0
O370 O 0.12778 0.89358 0.85161 0.0
O371 O 0.1457 0.91083 0.84541 0.0
O372 O 0.12698 0.92497 0.88372 0.0
C373 C 0.13438 0.90185 0.84109 0.0
O374 O 0.16916 0.87346 0.86259 0.0
C375 C 0.13798 0.93522 0.88508 0.0
O376 O 0.17121 0.89638 0.8746 0.0
O377 O 0.1518 0.93129 0.8808 0.0
C378 C 0.63705 0.38499 0.39679 0.0
O379 O 0.63507 0.37448 0.38641 0.0
Cd380 Cd 0.64466 0.37858 0.36026 0.0
O381 O 0.64266 0.39842 0.39326 0.0
Cd382 Cd 0.65056 0.41386 0.37022 0.0
C383 C 0.68308 0.39201 0.36683 0.0
O384 O 0.63255 0.40201 0.35086 0.0
O385 O 0.65181 0.41624 0.34188 0.0
O386 O 0.63511 0.43485 0.38168 0.0
C387 C 0.63929 0.40826 0.33915 0.0
O388 O 0.67386 0.38112 0.3618 0.0
C389 C 0.64566 0.4454 0.37956 0.0
O390 O 0.67753 0.40494 0.37151 0.0
O391 O 0.65853 0.44124 0.3732 0.0
C392 C 0.8805 0.36862 0.64573 0.0
O393 O 0.89314 0.37074 0.63792 0.0
Cd394 Cd 0.89282 0.38136 0.61167 0.0
O395 O 0.86711 0.37226 0.63998 0.0
Cd396 Cd 0.85613 0.38382 0.61635 0.0
C397 C 0.87806 0.41728 0.61944 0.0
O398 O 0.87136 0.37011 0.59612 0.0
O399 O 0.85637 0.38916 0.58884 0.0
O400 O 0.83178 0.36807 0.61801 0.0
C401 C 0.86547 0.37813 0.58505 0.0
O402 O 0.89002 0.40957 0.61491 0.0
C403 C 0.82284 0.37974 0.62002 0.0
O404 O 0.86476 0.41047 0.62179 0.0
O405 O 0.82947 0.39316 0.62037 0.0
C406 C 0.61845 0.6155 0.08471 0.0
O407 O 0.62025 0.62791 0.09276 0.0
Cd408 Cd 0.6325 0.62743 0.11833 0.0
O409 O 0.62257 0.60239 0.09026 0.0
Cd410 Cd 0.63391 0.59116 0.11404 0.0
C411 C 0.66809 0.61109 0.10883 0.0
O412 O 0.62162 0.6069 0.13455 0.0
O413 O 0.64206 0.59321 0.14103 0.0
O414 O 0.61494 0.56949 0.11262 0.0
C415 C 0.63085 0.60198 0.14524 0.0
O416 O 0.66065 0.62311 0.11342 0.0
C417 C 0.62537 0.55895 0.11171 0.0
O418 O 0.66094 0.59798 0.10704 0.0
O419 O 0.63983 0.56344 0.1119 0.0
C420 C 0.64212 0.62837 0.86788 0.0
O421 O 0.63163 0.61756 0.86838 0.0
Cd422 Cd 0.60647 0.62138 0.88143 0.0
O423 O 0.63988 0.64134 0.87476 0.0
Cd424 Cd 0.62009 0.65402 0.89097 0.0
C425 C 0.61859 0.62635 0.91905 0.0
O426 O 0.596 0.64707 0.87596 0.0
O427 O 0.59296 0.65739 0.89888 0.0
O428 O 0.62795 0.67944 0.88037 0.0
C429 C 0.5867 0.65254 0.88622 0.0
O430 O 0.61039 0.61789 0.90963 0.0
C431 C 0.63125 0.68549 0.89363 0.0
O432 O 0.62479 0.6392 0.91453 0.0
O433 O 0.62937 0.67686 0.90556 0.0
C434 C 0.58829 0.37367 0.18201 0.0
O435 O 0.57366 0.37556 0.17893 0.0
Cd436 Cd 0.56176 0.3727 0.15372 0.0
O437 O 0.59796 0.36933 0.17143 0.0
Cd438 Cd 0.59721 0.3614 0.14329 0.0
C439 C 0.58651 0.39792 0.13319 0.0
O440 O 0.57195 0.34833 0.14565 0.0
O441 O 0.58001 0.35047 0.12198 0.0
O442 O 0.61643 0.34195 0.15096 0.0
C443 C 0.56953 0.34536 0.13134 0.0
O444 O 0.57279 0.39456 0.13859 0.0
C445 C 0.6245 0.3428 0.13847 0.0
O446 O 0.59781 0.38823 0.13411 0.0
O447 O 0.62033 0.35293 0.12846 0.0
C448 C 0.85026 0.36497 0.37494 0.0
O449 O 0.86105 0.37552 0.37575 0.0
Cd450 Cd 0.88868 0.37089 0.38247 0.0
O451 O 0.8533 0.35084 0.37832 0.0
Cd452 Cd 0.87543 0.33526 0.3878 0.0
C453 C 0.88352 0.35856 0.41976 0.0
O454 O 0.89523 0.34651 0.37029 0.0
O455 O 0.90334 0.32858 0.38604 0.0
O456 O 0.8636 0.31164 0.37605 0.0
C457 C 0.9066 0.33833 0.37537 0.0
O458 O 0.88997 0.36887 0.41103 0.0
C459 C 0.86324 0.30418 0.38892 0.0
O460 O 0.8768 0.34646 0.41391 0.0
O461 O 0.8685 0.31127 0.401 0.0
C462 C 0.8998 0.61116 0.68356 0.0
O463 O 0.91395 0.60673 0.68128 0.0
Cd464 Cd 0.9276 0.60691 0.65712 0.0
O465 O 0.8912 0.61601 0.67224 0.0
Cd466 Cd 0.8935 0.62026 0.64334 0.0
C467 C 0.90181 0.58219 0.6368 0.0
O468 O 0.91929 0.63129 0.64755 0.0
O469 O 0.91324 0.62924 0.62324 0.0
O470 O 0.87508 0.64101 0.64913 0.0
C471 C 0.92322 0.6337 0.63355 0.0
O472 O 0.91544 0.58525 0.64271 0.0
C473 C 0.86826 0.64086 0.63583 0.0
O474 O 0.89106 0.59253 0.63634 0.0
O475 O 0.87265 0.63053 0.62612 0.0
C476 C 0.59541 0.37457 0.62068 0.0
O477 O 0.60517 0.37322 0.63197 0.0
Cd478 Cd 0.63089 0.36169 0.62905 0.0
O479 O 0.59914 0.37014 0.60696 0.0
Cd480 Cd 0.62196 0.35871 0.59358 0.0
C481 C 0.62014 0.3257 0.61484 0.0
O482 O 0.64406 0.37288 0.60663 0.0
O483 O 0.64975 0.35259 0.59278 0.0
O484 O 0.6157 0.3738 0.57 0.0
C485 C 0.65461 0.36423 0.60073 0.0
O486 O 0.62649 0.33339 0.6261 0.0
C487 C 0.61645 0.36203 0.56092 0.0
O488 O 0.61614 0.33249 0.60223 0.0
O489 O 0.61944 0.34894 0.56712 0.0
C490 C 0.93007 0.38099 0.83383 0.0
O491 O 0.92875 0.37585 0.81991 0.0
Cd492 Cd 0.90407 0.37148 0.807 0.0
O493 O 0.91785 0.38485 0.84166 0.0
Cd494 Cd 0.8885 0.38729 0.83842 0.0
C495 C 0.88596 0.34814 0.83536 0.0
O496 O 0.89144 0.39549 0.81203 0.0
O497 O 0.86736 0.38977 0.81791 0.0
O498 O 0.89454 0.41029 0.85376 0.0
C499 C 0.87709 0.39475 0.80773 0.0
O500 O 0.89193 0.34988 0.82177 0.0
C501 C 0.88119 0.41106 0.86049 0.0
O502 O 0.884 0.35982 0.84442 0.0
O503 O 0.87101 0.40036 0.85732 0.0
C504 C 0.89405 0.62248 0.12691 0.0
O505 O 0.88388 0.62394 0.13772 0.0
Cd506 Cd 0.85817 0.63519 0.13273 0.0
O507 O 0.89101 0.62721 0.11313 0.0
Cd508 Cd 0.86958 0.6401 0.09911 0.0
C509 C 0.86963 0.67179 0.12258 0.0
O510 O 0.84698 0.62444 0.10873 0.0
O511 O 0.84167 0.64566 0.09624 0.0
O512 O 0.87771 0.62678 0.07508 0.0
C513 C 0.83668 0.63303 0.10228 0.0
O514 O 0.86151 0.66378 0.1323 0.0
C515 C 0.87777 0.63915 0.06687 0.0
O516 O 0.87526 0.66543 0.1104 0.0
O517 O 0.87437 0.6518 0.07378 0.0
C518 C 0.54761 0.63192 0.3339 0.0
O519 O 0.54899 0.6401 0.32157 0.0
Cd520 Cd 0.57339 0.64793 0.30968 0.0
O521 O 0.55983 0.62684 0.34108 0.0
Cd522 Cd 0.58927 0.62644 0.33869 0.0
C523 C 0.59193 0.66589 0.34173 0.0
O524 O 0.58743 0.62449 0.31112 0.0
O525 O 0.61158 0.62619 0.31939 0.0
O526 O 0.58665 0.59925 0.34511 0.0
C527 C 0.60203 0.62498 0.30788 0.0
O528 O 0.58568 0.66624 0.32811 0.0
C529 C 0.59694 0.59918 0.35601 0.0
O530 O 0.5939 0.65299 0.34891 0.0
O531 O 0.60365 0.61219 0.35944 0.0
C532 C 0.693 0.91647 0.63525 0.0
O533 O 0.69079 0.9302 0.63012 0.0
Cd534 Cd 0.66554 0.94155 0.62581 0.0
O535 O 0.68131 0.90774 0.63936 0.0
Cd536 Cd 0.65187 0.90885 0.64232 0.0
C537 C 0.64842 0.9118 0.60309 0.0
O538 O 0.65225 0.93573 0.64938 0.0
O539 O 0.62882 0.92674 0.64465 0.0
O540 O 0.65642 0.89556 0.6668 0.0
C541 C 0.63757 0.93836 0.64843 0.0
O542 O 0.65382 0.92575 0.60457 0.0
C543 C 0.64495 0.88583 0.66534 0.0
O544 O 0.64722 0.90275 0.61487 0.0
O545 O 0.63662 0.88665 0.65291 0.0
C546 C 0.35244 0.36577 0.10978 0.0
O547 O 0.36396 0.37549 0.10905 0.0
Cd548 Cd 0.38837 0.36839 0.09623 0.0
O549 O 0.35349 0.35231 0.10358 0.0
Cd550 Cd 0.37208 0.33631 0.08899 0.0
C551 C 0.3743 0.36161 0.05912 0.0
O552 O 0.39654 0.3425 0.10348 0.0
O553 O 0.39898 0.33075 0.08115 0.0
O554 O 0.36254 0.31508 0.10507 0.0
C555 C 0.40544 0.33571 0.09369 0.0
O556 O 0.38339 0.36968 0.0681 0.0
C557 C 0.3594 0.30569 0.09392 0.0
O558 O 0.36715 0.34939 0.06414 0.0
O559 O 0.36193 0.31063 0.08011 0.0
C560 C 0.36477 0.65113 0.87184 0.0
O561 O 0.36664 0.64188 0.88328 0.0
Cd562 Cd 0.38286 0.61912 0.88104 0.0
O563 O 0.37101 0.64813 0.85866 0.0
Cd564 Cd 0.38703 0.62758 0.84665 0.0
C565 C 0.41816 0.63565 0.86998 0.0
O566 O 0.37559 0.60377 0.85823 0.0
O567 O 0.39878 0.60196 0.84764 0.0
O568 O 0.37129 0.6289 0.82268 0.0
C569 C 0.38673 0.59515 0.85347 0.0
O570 O 0.41064 0.62825 0.8806 0.0
C571 C 0.38309 0.6312 0.81374 0.0
O572 O 0.41173 0.63816 0.85674 0.0
O573 O 0.3967 0.63211 0.82018 0.0
C574 C 0.14657 0.63457 0.60697 0.0
O575 O 0.13592 0.62401 0.60841 0.0
Cd576 Cd 0.10862 0.6289 0.60088 0.0
O577 O 0.14298 0.64803 0.60195 0.0
Cd578 Cd 0.12047 0.66341 0.59343 0.0
C579 C 0.11327 0.63999 0.56244 0.0
O580 O 0.09931 0.65356 0.61059 0.0
O581 O 0.09257 0.66745 0.5905 0.0
O582 O 0.13064 0.68407 0.61013 0.0
C583 C 0.08839 0.6601 0.60271 0.0
O584 O 0.10795 0.63016 0.57238 0.0
C585 C 0.13198 0.69427 0.59944 0.0
O586 O 0.11983 0.65281 0.56689 0.0
O587 O 0.12794 0.69011 0.58565 0.0
C588 C 0.12451 0.34956 0.37075 0.0
O589 O 0.12154 0.35909 0.38175 0.0
Cd590 Cd 0.10862 0.38371 0.37701 0.0
O591 O 0.12042 0.35261 0.35674 0.0
Cd592 Cd 0.10696 0.37284 0.34176 0.0
C593 C 0.0732 0.37012 0.36259 0.0
O594 O 0.1197 0.39556 0.35397 0.0
O595 O 0.09936 0.40006 0.33918 0.0
O596 O 0.12479 0.36817 0.32 0.0
C597 C 0.11083 0.40545 0.34735 0.0
O598 O 0.08024 0.37824 0.37314 0.0
C599 C 0.11384 0.36556 0.30999 0.0
O600 O 0.08063 0.3652 0.35066 0.0
O601 O 0.09962 0.36614 0.31483 0.0
C602 C 0.38883 0.62995 0.38079 0.0
O603 O 0.37736 0.63132 0.3712 0.0
Cd604 Cd 0.35376 0.64529 0.37836 0.0
O605 O 0.38816 0.63604 0.39437 0.0
Cd606 Cd 0.37044 0.65123 0.41089 0.0
C607 C 0.37021 0.68149 0.38583 0.0
O608 O 0.34535 0.63812 0.40429 0.0
O609 O 0.34392 0.66022 0.41657 0.0
O610 O 0.37841 0.63467 0.43234 0.0
C611 C 0.33686 0.64815 0.41116 0.0
O612 O 0.36083 0.67306 0.37748 0.0
C613 C 0.3827 0.64567 0.4415 0.0
O614 O 0.3767 0.67601 0.39812 0.0
O615 O 0.38149 0.65954 0.43634 0.0
C616 C 0.11868 0.60273 0.1317 0.0
O617 O 0.13044 0.61217 0.1312 0.0
Cd618 Cd 0.12899 0.63776 0.14308 0.0
O619 O 0.10573 0.60689 0.1379 0.0
Cd620 Cd 0.09401 0.62966 0.15043 0.0
C621 C 0.11961 0.62782 0.18063 0.0
O622 O 0.10526 0.65144 0.13525 0.0
O623 O 0.09444 0.65692 0.15751 0.0
O624 O 0.06947 0.62508 0.13596 0.0
C625 C 0.10059 0.66175 0.14488 0.0
O626 O 0.13002 0.63359 0.17144 0.0
C627 C 0.06088 0.62319 0.14801 0.0
O628 O 0.10574 0.62429 0.17565 0.0
O629 O 0.06774 0.62442 0.16125 0.0
C630 C 0.08972 0.35934 0.87605 0.0
O631 O 0.09902 0.35983 0.8644 0.0
Cd632 Cd 0.12509 0.34891 0.86496 0.0
O633 O 0.09415 0.35321 0.88889 0.0
Cd634 Cd 0.11768 0.34104 0.90064 0.0
C635 C 0.11656 0.31083 0.87524 0.0
O636 O 0.13783 0.3577 0.88863 0.0
O637 O 0.14624 0.33701 0.90034 0.0
O638 O 0.11278 0.35628 0.92391 0.0
C639 C 0.14948 0.34962 0.89318 0.0
O640 O 0.12154 0.3205 0.86499 0.0
C641 C 0.11213 0.3448 0.93327 0.0
O642 O 0.11322 0.31537 0.88904 0.0
O643 O 0.114 0.33127 0.92742 0.0
C644 C 0.36939 0.38544 0.63052 0.0
O645 O 0.35758 0.37611 0.63183 0.0
Cd646 Cd 0.36001 0.34905 0.63949 0.0
O647 O 0.38338 0.38093 0.63367 0.0
Cd648 Cd 0.3971 0.35767 0.64293 0.0
C649 C 0.37544 0.35318 0.67627 0.0
O650 O 0.38296 0.33854 0.62663 0.0
O651 O 0.39917 0.32951 0.64399 0.0
O652 O 0.42094 0.3645 0.62807 0.0
C653 C 0.38942 0.32678 0.63292 0.0
O654 O 0.36359 0.34868 0.66797 0.0
C655 C 0.42966 0.36642 0.64016 0.0
O656 O 0.38826 0.35791 0.66989 0.0
O657 O 0.42323 0.36397 0.65335 0.0
C658 C 0.3609 0.10365 0.34226 0.0
O659 O 0.37328 0.10363 0.35087 0.0
Cd660 Cd 0.3737 0.09872 0.3787 0.0
O661 O 0.34723 0.10092 0.34805 0.0
Cd662 Cd 0.33478 0.09485 0.37329 0.0
C663 C 0.35665 0.06199 0.37946 0.0
O664 O 0.35146 0.11233 0.38876 0.0
O665 O 0.33437 0.09857 0.40163 0.0
O666 O 0.31108 0.10951 0.36643 0.0
C667 C 0.34575 0.10844 0.4019 0.0
O668 O 0.3689 0.07065 0.38186 0.0
C669 C 0.3017 0.09775 0.36731 0.0
O670 O 0.34344 0.06788 0.37542 0.0
O671 O 0.30778 0.08475 0.37097 0.0
H672 H 0.12727 0.33506 0.39922 0.0
H673 H 0.13385 0.30765 0.40374 0.0
H674 H 0.14377 0.30188 0.35456 0.0
H675 H 0.13704 0.3291 0.34991 0.0
H676 H 0.12135 0.2818 0.36446 0.0
H677 H 0.17312 0.29861 0.3818 0.0
H678 H 0.19248 0.31402 0.39746 0.0
H679 H 0.17352 0.29436 0.43976 0.0
H680 H 0.15387 0.27899 0.42436 0.0
H681 H 0.13658 0.20191 0.36783 0.0
H682 H 0.14229 0.22979 0.36443 0.0
H683 H 0.13275 0.23785 0.41337 0.0
H684 H 0.12738 0.20991 0.41696 0.0
H685 H 0.15694 0.25668 0.40316 0.0
H686 H 0.10378 0.24261 0.38686 0.0
H687 H 0.08338 0.22761 0.37208 0.0
H688 H 0.1039 0.24299 0.32874 0.0
H689 H 0.12458 0.25791 0.34328 0.0
C690 C 0.13124 0.32805 0.38945 0.0
C691 C 0.13138 0.33415 0.37417 0.0
C692 C 0.13506 0.31241 0.39206 0.0
C693 C 0.13924 0.30274 0.37946 0.0
C694 C 0.14049 0.30914 0.36442 0.0
C695 C 0.13661 0.32469 0.36179 0.0
C696 C 0.14005 0.2856 0.38148 0.0
C697 C 0.1294 0.2763 0.37268 0.0
C698 C 0.15012 0.27851 0.39263 0.0
C699 C 0.16192 0.28774 0.40192 0.0
C700 C 0.17298 0.29767 0.39445 0.0
C701 C 0.18403 0.30638 0.40328 0.0
C702 C 0.18421 0.3052 0.4196 0.0
C703 C 0.17336 0.29527 0.42712 0.0
C704 C 0.16227 0.28655 0.41834 0.0
C705 C 0.13592 0.20958 0.37791 0.0
C706 C 0.1313 0.20379 0.3926 0.0
C707 C 0.1392 0.22549 0.37596 0.0
C708 C 0.13767 0.23589 0.3886 0.0
C709 C 0.13397 0.23001 0.40347 0.0
C710 C 0.13082 0.21407 0.40547 0.0
C711 C 0.13838 0.25298 0.38599 0.0
C712 C 0.14913 0.26224 0.39476 0.0
C713 C 0.12827 0.26014 0.37493 0.0
C714 C 0.11582 0.25122 0.36616 0.0
C715 C 0.10401 0.24269 0.37418 0.0
C716 C 0.09239 0.23422 0.36584 0.0
C717 C 0.09237 0.23431 0.34948 0.0
C718 C 0.10395 0.24291 0.34141 0.0
C719 C 0.11562 0.25138 0.3497 0.0
H720 H 0.08336 0.22775 0.34304 0.0
H721 H 0.19277 0.31195 0.42641 0.0
H722 H 0.05125 0.84919 0.60367 0.0
H723 H 0.02482 0.83939 0.59595 0.0
H724 H 0.00776 0.8481 0.64271 0.0
H725 H 0.03411 0.85754 0.65056 0.0
H726 H -0.00344 0.82093 0.63224 0.0
H727 H 0.00091 0.87362 0.61247 0.0
H728 H 0.01298 0.89511 0.59719 0.0
H729 H 0.00648 0.86847 0.55485 0.0
H730 H 0.99456 0.84672 0.56993 0.0
H731 H 0.91408 0.83307 0.62335 0.0
H732 H 0.94275 0.83535 0.62777 0.0
H733 H 0.9512 0.81872 0.58085 0.0
H734 H 0.92247 0.81626 0.57635 0.0
H735 H 0.96777 0.84662 0.5887 0.0
H736 H 0.95966 0.79525 0.60933 0.0
H737 H 0.94667 0.77496 0.62547 0.0
H738 H 0.95933 0.80046 0.66724 0.0
H739 H 0.9722 0.82102 0.65133 0.0
C740 C 0.04187 0.84894 0.6123 0.0
C741 C 0.04471 0.85421 0.62769 0.0
C742 C 0.02678 0.84338 0.60788 0.0
C743 C 0.01429 0.84317 0.61872 0.0
C744 C 0.01723 0.84813 0.63416 0.0
C745 C 0.03229 0.85358 0.63861 0.0
C746 C -0.00201 0.83827 0.61403 0.0
C747 C 0.99024 0.82659 0.62277 0.0
C748 C 0.98989 0.84542 0.60142 0.0
C749 C -0.00297 0.85848 0.59235 0.0
C750 C 0.00218 0.8723 0.59992 0.0
C751 C 0.00897 0.88453 0.59129 0.0
C752 C 0.01054 0.88313 0.57506 0.0
C753 C 0.00529 0.86952 0.56743 0.0
C754 C -0.00149 0.85724 0.576 0.0
C755 C 0.92204 0.82975 0.61402 0.0
C756 C 0.91606 0.82452 0.5995 0.0
C757 C 0.93839 0.831 0.61659 0.0
C758 C 0.94903 0.82712 0.60466 0.0
C759 C 0.94313 0.82172 0.5902 0.0
C760 C 0.92675 0.82029 0.58768 0.0
C761 C 0.96629 0.82953 0.60713 0.0
C762 C 0.9742 0.84077 0.59799 0.0
C763 C 0.97447 0.82212 0.61949 0.0
C764 C 0.9668 0.80974 0.62911 0.0
C765 C 0.95957 0.79659 0.62195 0.0
C766 C 0.95225 0.78503 0.63106 0.0
C767 C 0.95215 0.78643 0.64737 0.0
C768 C 0.95941 0.79939 0.6546 0.0
C769 C 0.96674 0.81099 0.64554 0.0
H770 H 0.94647 0.77747 0.6544 0.0
H771 H 0.0158 0.89262 0.5684 0.0
H772 H 0.35685 0.79556 0.86313 0.0
H773 H 0.35099 0.76747 0.86184 0.0
H774 H 0.34919 0.76561 0.9123 0.0
H775 H 0.35514 0.79362 0.9137 0.0
H776 H 0.36886 0.74418 0.9003 0.0
H777 H 0.31567 0.76044 0.89115 0.0
H778 H 0.29436 0.7754 0.87849 0.0
H779 H 0.3047 0.75379 0.83432 0.0
H780 H 0.32627 0.73888 0.84666 0.0
H781 H 0.35427 0.66372 0.89937 0.0
H782 H 0.34683 0.69087 0.90389 0.0
H783 H 0.35065 0.70018 0.85442 0.0
H784 H 0.35792 0.67308 0.84974 0.0
H785 H 0.32685 0.71754 0.86854 0.0
H786 H 0.38236 0.70548 0.87626 0.0
H787 H 0.40463 0.69101 0.88787 0.0
H788 H 0.3905 0.70548 0.93388 0.0
H789 H 0.36799 0.71987 0.92253 0.0
C790 C 0.35502 0.7892 0.87394 0.0
C791 C 0.35657 0.79676 0.88851 0.0
C792 C 0.35157 0.77318 0.87318 0.0
C793 C 0.34954 0.76451 0.88698 0.0
C794 C 0.35067 0.77212 0.90152 0.0
C795 C 0.35409 0.78811 0.90229 0.0
C796 C 0.34777 0.74729 0.88627 0.0
C797 C 0.35943 0.73835 0.89367 0.0
C798 C 0.33571 0.73975 0.87728 0.0
C799 C 0.32268 0.74862 0.86982 0.0
C800 C 0.31349 0.75896 0.87871 0.0
C801 C 0.30135 0.76742 0.87159 0.0
C802 C 0.2982 0.76557 0.85561 0.0
C803 C 0.30716 0.75522 0.8467 0.0
C804 C 0.31934 0.74675 0.85376 0.0
C805 C 0.35311 0.67142 0.8894 0.0
C806 C 0.35702 0.66633 0.87424 0.0
C807 C 0.34885 0.68692 0.89201 0.0
C808 C 0.34848 0.69755 0.87952 0.0
C809 C 0.35092 0.69215 0.86421 0.0
C810 C 0.35519 0.67667 0.86159 0.0
C811 C 0.34795 0.71455 0.88254 0.0
C812 C 0.336 0.72342 0.87547 0.0
C813 C 0.35982 0.72213 0.89173 0.0
C814 C 0.37339 0.71357 0.89857 0.0
C815 C 0.38394 0.70547 0.88886 0.0
C816 C 0.39661 0.6973 0.89539 0.0
C817 C 0.39895 0.69728 0.91161 0.0
C818 C 0.38865 0.70547 0.92132 0.0
C819 C 0.37593 0.71364 0.91485 0.0
H820 H 0.40877 0.69095 0.91664 0.0
H821 H 0.28879 0.77213 0.85012 0.0
H822 H 0.43891 0.14351 0.10652 0.0
H823 H 0.46713 0.1483 0.10122 0.0
H824 H 0.47882 0.1348 0.14854 0.0
H825 H 0.45069 0.13055 0.15405 0.0
H826 H 0.49588 0.15903 0.14102 0.0
H827 H 0.48382 0.10978 0.11689 0.0
H828 H 0.46925 0.09111 0.09982 0.0
H829 H 0.48151 0.11854 0.05949 0.0
H830 H 0.49598 0.1375 0.07635 0.0
H831 H 0.57864 0.14534 0.12561 0.0
H832 H 0.55055 0.14123 0.13228 0.0
H833 H 0.53662 0.16355 0.0892 0.0
H834 H 0.5645 0.16786 0.08254 0.0
H835 H 0.52123 0.13417 0.0951 0.0
H836 H 0.53345 0.18351 0.12084 0.0
H837 H 0.54875 0.20072 0.1388 0.0
H838 H 0.53696 0.17072 0.17741 0.0
H839 H 0.52177 0.1532 0.15962 0.0
C840 C 0.44752 0.14164 0.11579 0.0
C841 C 0.44263 0.13661 0.13066 0.0
C842 C 0.46362 0.14429 0.11274 0.0
C843 C 0.47511 0.14165 0.12442 0.0
C844 C 0.47019 0.1369 0.13936 0.0
C845 C 0.4541 0.13445 0.14247 0.0
C846 C 0.49226 0.14376 0.12111 0.0
C847 C 0.50144 0.15342 0.13109 0.0
C848 C 0.49952 0.13654 0.10809 0.0
C849 C 0.49085 0.12515 0.0979 0.0
C850 C 0.48331 0.1119 0.10439 0.0
C851 C 0.47508 0.10125 0.09476 0.0
C852 C 0.47442 0.10366 0.07859 0.0
C853 C 0.48202 0.1167 0.07202 0.0
C854 C 0.49024 0.12739 0.08161 0.0
C855 C 0.56958 0.14943 0.11762 0.0
C856 C 0.57374 0.15694 0.10358 0.0
C857 C 0.55358 0.14709 0.12144 0.0
C858 C 0.5416 0.15211 0.1112 0.0
C859 C 0.54574 0.15958 0.0972 0.0
C860 C 0.56167 0.16209 0.09347 0.0
C861 C 0.52468 0.14948 0.11493 0.0
C862 C 0.51559 0.13971 0.10504 0.0
C863 C 0.51758 0.15637 0.12816 0.0
C864 C 0.52662 0.16696 0.13887 0.0
C865 C 0.53423 0.18051 0.13313 0.0
C866 C 0.54287 0.19034 0.14329 0.0
C867 C 0.54387 0.18679 0.15923 0.0
C868 C 0.5362 0.17344 0.16505 0.0
C869 C 0.52757 0.16356 0.15494 0.0
H870 H 0.55056 0.19442 0.16707 0.0
H871 H 0.46805 0.0954 0.07114 0.0
H872 H 0.09994 0.68511 0.16644 0.0
H873 H 0.1032 0.7131 0.16202 0.0
H874 H 0.10907 0.70463 0.11252 0.0
H875 H 0.10649 0.67641 0.11702 0.0
H876 H 0.12931 0.72593 0.12156 0.0
H877 H 0.07349 0.71838 0.12838 0.0
H878 H 0.04896 0.70914 0.1413 0.0
H879 H 0.06016 0.73751 0.18157 0.0
H880 H 0.08488 0.74676 0.16898 0.0
H881 H 0.11189 0.80317 0.09716 0.0
H882 H 0.10795 0.77538 0.10257 0.0
H883 H 0.11861 0.78351 0.1514 0.0
H884 H 0.12293 0.81146 0.14607 0.0
H885 H 0.0898 0.76289 0.1427 0.0
H886 H 0.1464 0.77 0.13432 0.0
H887 H 0.16971 0.77954 0.11959 0.0
H888 H 0.15507 0.75197 0.07978 0.0
H889 H 0.13151 0.74247 0.09421 0.0
C890 C 0.10194 0.6892 0.15461 0.0
C891 C 0.10286 0.67861 0.14204 0.0
C892 C 0.1037 0.70522 0.15208 0.0
C893 C 0.10602 0.711 0.13689 0.0
C894 C 0.10722 0.70043 0.12434 0.0
C895 C 0.10572 0.68433 0.1269 0.0
C896 C 0.10732 0.72809 0.1342 0.0
C897 C 0.12054 0.73395 0.12602 0.0
C898 C 0.096 0.73863 0.14019 0.0
C899 C 0.08111 0.73315 0.14779 0.0
C900 C 0.07078 0.72256 0.14004 0.0
C901 C 0.05683 0.71734 0.14729 0.0
C902 C 0.05302 0.72271 0.16226 0.0
C903 C 0.06313 0.73335 0.16999 0.0
C904 C 0.07711 0.7386 0.16279 0.0
C905 C 0.11324 0.79912 0.1091 0.0
C906 C 0.11778 0.80949 0.1212 0.0
C907 C 0.11102 0.78324 0.11213 0.0
C908 C 0.11309 0.77749 0.12733 0.0
C909 C 0.11699 0.78783 0.13959 0.0
C910 C 0.11949 0.80373 0.13652 0.0
C911 C 0.11175 0.76054 0.13019 0.0
C912 C 0.09852 0.75477 0.13832 0.0
C913 C 0.12288 0.75006 0.12393 0.0
C914 C 0.13711 0.75566 0.11529 0.0
C915 C 0.14807 0.76609 0.12238 0.0
C916 C 0.16134 0.77147 0.11409 0.0
C917 C 0.16384 0.7664 0.09874 0.0
C918 C 0.1531 0.75591 0.09166 0.0
C919 C 0.1398 0.75051 0.09989 0.0
H920 H 0.17413 0.77057 0.09235 0.0
H921 H 0.04222 0.71865 0.16786 0.0
H922 H 0.44771 0.88465 0.36973 0.0
H923 H 0.47431 0.88673 0.38156 0.0
H924 H 0.49514 0.87364 0.33745 0.0
H925 H 0.46887 0.87135 0.32566 0.0
H926 H 0.50676 0.85676 0.36108 0.0
H927 H 0.49614 0.91128 0.35043 0.0
H928 H 0.48104 0.93566 0.35268 0.0
H929 H 0.48798 0.93562 0.40255 0.0
H930 H 0.50296 0.91109 0.40061 0.0
H931 H 0.58587 0.87859 0.35932 0.0
H932 H 0.5575 0.88266 0.3555 0.0
H933 H 0.55032 0.88132 0.40542 0.0
H934 H 0.57879 0.87703 0.40946 0.0
H935 H 0.53078 0.90507 0.38407 0.0
H936 H 0.5428 0.8506 0.39389 0.0
H937 H 0.55886 0.82696 0.39043 0.0
H938 H 0.5494 0.82754 0.34096 0.0
H939 H 0.53351 0.85136 0.3441 0.0
C940 C 0.45798 0.88228 0.36256 0.0
C941 C 0.45616 0.87774 0.34678 0.0
C942 C 0.47314 0.88352 0.36932 0.0
C943 C 0.48666 0.88033 0.36036 0.0
C944 C 0.48484 0.87606 0.34459 0.0
C945 C 0.46979 0.87477 0.33786 0.0
C946 C 0.50279 0.88084 0.36729 0.0
C947 C 0.51196 0.86734 0.36612 0.0
C948 C 0.50946 0.89452 0.37423 0.0
C949 C 0.50048 0.90925 0.37539 0.0
C950 C 0.49432 0.91639 0.36189 0.0
C951 C 0.48581 0.93025 0.36311 0.0
C952 C 0.48351 0.93716 0.37776 0.0
C953 C 0.48975 0.93024 0.39122 0.0
C954 C 0.49825 0.91636 0.39006 0.0
C955 C 0.57838 0.87952 0.36954 0.0
C956 C 0.58454 0.87722 0.38468 0.0
C957 C 0.56218 0.8819 0.36732 0.0
C958 C 0.55193 0.88218 0.38019 0.0
C959 C 0.55814 0.88117 0.39539 0.0
C960 C 0.57437 0.87862 0.39764 0.0
C961 C 0.53466 0.88114 0.3774 0.0
C962 C 0.52536 0.89446 0.37936 0.0
C963 C 0.52779 0.86731 0.37111 0.0
C964 C 0.5371 0.85283 0.36922 0.0
C965 C 0.54426 0.84576 0.38226 0.0
C966 C 0.55331 0.83232 0.38036 0.0
C967 C 0.55518 0.82577 0.36548 0.0
C968 C 0.54796 0.83263 0.35247 0.0
C969 C 0.53892 0.8461 0.35431 0.0
H970 H 0.5622 0.81537 0.36403 0.0
H971 H 0.47692 0.94789 0.37868 0.0
H972 H 0.34972 0.18668 0.58787 0.0
H973 H 0.3516 0.21511 0.59042 0.0
H974 H 0.36043 0.21041 0.64004 0.0
H975 H 0.35774 0.18198 0.63765 0.0
H976 H 0.34374 0.23509 0.63548 0.0
H977 H 0.39113 0.21472 0.61237 0.0
H978 H 0.40673 0.2 0.59308 0.0
H979 H 0.38962 0.22945 0.5562 0.0
H980 H 0.37374 0.24424 0.57526 0.0
H981 H 0.39397 0.30078 0.6505 0.0
H982 H 0.38423 0.27424 0.64519 0.0
H983 H 0.36336 0.28963 0.60175 0.0
H984 H 0.3728 0.31647 0.60715 0.0
H985 H 0.38363 0.26095 0.6012 0.0
H986 H 0.33866 0.28334 0.6271 0.0
H987 H 0.32557 0.29805 0.64817 0.0
H988 H 0.34123 0.26443 0.68194 0.0
H989 H 0.35463 0.24965 0.66111 0.0
C990 C 0.35182 0.19175 0.59936 0.0
C991 C 0.35377 0.18217 0.61255 0.0
C992 C 0.35296 0.20798 0.60079 0.0
C993 C 0.3566 0.21488 0.61534 0.0
C994 C 0.3577 0.20535 0.62867 0.0
C995 C 0.35619 0.18911 0.62731 0.0
C996 C 0.36022 0.23187 0.61654 0.0
C997 C 0.35251 0.24071 0.62802 0.0
C998 C 0.37153 0.23929 0.60667 0.0
C999 C 0.38111 0.23046 0.5952 0.0
C1000 C 0.39061 0.21799 0.60013 0.0
C1001 C 0.39951 0.20964 0.58924 0.0
C1002 C 0.39913 0.21376 0.57342 0.0
C1003 C 0.38987 0.22626 0.56845 0.0
C1004 C 0.38093 0.23463 0.57929 0.0
C1005 C 0.38735 0.29854 0.63979 0.0
C1006 C 0.38414 0.31067 0.62922 0.0
C1007 C 0.38174 0.2834 0.63683 0.0
C1008 C 0.373 0.2801 0.62317 0.0
C1009 C 0.37004 0.29207 0.61239 0.0
C1010 C 0.37543 0.30732 0.61548 0.0
C1011 C 0.36726 0.26399 0.62018 0.0
C1012 C 0.37465 0.25534 0.60843 0.0
C1013 C 0.35596 0.25668 0.63002 0.0
C1014 C 0.34776 0.26546 0.64255 0.0
C1015 C 0.33943 0.27915 0.63904 0.0
C1016 C 0.33193 0.28749 0.65094 0.0
C1017 C 0.3326 0.28219 0.66639 0.0
C1018 C 0.34073 0.26852 0.66997 0.0
C1019 C 0.34826 0.26015 0.65812 0.0
H1020 H 0.32679 0.28867 0.67558 0.0
H1021 H 0.40603 0.20728 0.56501 0.0
H1022 H 0.03157 0.12662 0.81687 0.0
H1023 H 0.00433 0.12882 0.82585 0.0
H1024 H 0.01957 0.12023 0.87335 0.0
H1025 H 0.04704 0.11766 0.86438 0.0
H1026 H 0.99252 0.10431 0.86657 0.0
H1027 H 0.011 0.15693 0.862 0.0
H1028 H 0.02376 0.1798 0.84949 0.0
H1029 H 0.98858 0.17852 0.81286 0.0
H1030 H 0.97573 0.15549 0.82502 0.0
H1031 H 0.92035 0.13536 0.89864 0.0
H1032 H 0.94797 0.12988 0.89208 0.0
H1033 H 0.93624 0.13175 0.84288 0.0
H1034 H 0.90855 0.13711 0.8493 0.0
H1035 H 0.96197 0.15146 0.85242 0.0
H1036 H 0.94397 0.0979 0.85778 0.0
H1037 H 0.93146 0.07561 0.87149 0.0
H1038 H 0.96605 0.0798 0.9085 0.0
H1039 H 0.97865 0.10228 0.89511 0.0
C1040 C 0.0292 0.12521 0.82924 0.0
C1041 C 0.04151 0.12209 0.83994 0.0
C1042 C 0.0136 0.12651 0.83436 0.0
C1043 C 0.00999 0.12495 0.8503 0.0
C1044 C 0.02216 0.12154 0.86101 0.0
C1045 C 0.03782 0.12012 0.85587 0.0
C1046 C 0.99346 0.12699 0.85562 0.0
C1047 C 0.9859 0.11472 0.86371 0.0
C1048 C 0.98481 0.14051 0.85172 0.0
C1049 C 0.99248 0.15439 0.84436 0.0
C1050 C 0.00606 0.16145 0.85121 0.0
C1051 C 0.01329 0.17445 0.84419 0.0
C1052 C 0.00701 0.18059 0.83037 0.0
C1053 C 0.99345 0.17374 0.82356 0.0
C1054 C 0.98617 0.16072 0.83052 0.0
C1055 C 0.9236 0.13442 0.88642 0.0
C1056 C 0.91231 0.13675 0.87447 0.0
C1057 C 0.93936 0.13123 0.88271 0.0
C1058 C 0.94406 0.13042 0.86702 0.0
C1059 C 0.93276 0.13234 0.85507 0.0
C1060 C 0.91697 0.13535 0.85876 0.0
C1061 C 0.96098 0.12867 0.86305 0.0
C1062 C 0.96862 0.14107 0.8553 0.0
C1063 C 0.96971 0.11539 0.86747 0.0
C1064 C 0.96215 0.10188 0.87553 0.0
C1065 C 0.94882 0.09417 0.86892 0.0
C1066 C 0.94173 0.08147 0.87661 0.0
C1067 C 0.94793 0.07632 0.89088 0.0
C1068 C 0.96125 0.08382 0.89746 0.0
C1069 C 0.96838 0.09653 0.88982 0.0
H1070 H 0.94243 0.06649 0.89682 0.0
H1071 H 0.01262 0.19066 0.82496 0.0
H1072 H 0.37194 0.1265 0.19173 0.0
H1073 H 0.36256 0.12677 0.21885 0.0
H1074 H 0.39075 0.08629 0.22901 0.0
H1075 H 0.40021 0.08596 0.20204 0.0
H1076 H 0.36089 0.08518 0.24308 0.0
H1077 H 0.40598 0.12067 0.23692 0.0
H1078 H 0.42023 0.14307 0.22508 0.0
H1079 H 0.38308 0.17375 0.23945 0.0
H1080 H 0.36849 0.15147 0.2512 0.0
H1081 H 0.38801 0.10919 0.32546 0.0
H1082 H 0.39044 0.11124 0.29703 0.0
H1083 H 0.33959 0.10611 0.29203 0.0
H1084 H 0.33701 0.10389 0.32041 0.0
H1085 H 0.3784 0.13108 0.27487 0.0
H1086 H 0.33269 0.08269 0.25982 0.0
H1087 H 0.32019 0.05945 0.27198 0.0
H1088 H 0.36169 0.05312 0.30065 0.0
H1089 H 0.37449 0.07619 0.28852 0.0
C1090 C 0.3759 0.11749 0.19967 0.0
C1091 C 0.38693 0.1063 0.19482 0.0
C1092 C 0.37057 0.11769 0.21514 0.0
C1093 C 0.3761 0.10663 0.2259 0.0
C1094 C 0.38636 0.09492 0.22085 0.0
C1095 C 0.39182 0.0948 0.20547 0.0
C1096 C 0.37231 0.10789 0.24272 0.0
C1097 C 0.36453 0.09529 0.25001 0.0
C1098 C 0.37727 0.121 0.25174 0.0
C1099 C 0.38606 0.13439 0.24476 0.0
C1100 C 0.40079 0.13218 0.23744 0.0
C1101 C 0.40893 0.14485 0.23076 0.0
C1102 C 0.40254 0.15982 0.23147 0.0
C1103 C 0.388 0.16215 0.23889 0.0
C1104 C 0.37979 0.1495 0.24556 0.0
C1105 C 0.37732 0.10862 0.31834 0.0
C1106 C 0.36234 0.1062 0.3252 0.0
C1107 C 0.37873 0.10987 0.30211 0.0
C1108 C 0.36521 0.10867 0.29247 0.0
C1109 C 0.35018 0.10689 0.29929 0.0
C1110 C 0.34875 0.10563 0.31551 0.0
C1111 C 0.367 0.10836 0.27526 0.0
C1112 C 0.37443 0.12112 0.2679 0.0
C1113 C 0.36191 0.0953 0.2662 0.0
C1114 C 0.35446 0.08126 0.27339 0.0
C1115 C 0.33916 0.0763 0.26869 0.0
C1116 C 0.33202 0.06317 0.27557 0.0
C1117 C 0.34012 0.05485 0.28712 0.0
C1118 C 0.3554 0.05961 0.29175 0.0
C1119 C 0.3626 0.07272 0.28489 0.0
H1120 H 0.33456 0.0447 0.29245 0.0
H1121 H 0.40886 0.16961 0.2263 0.0
H1122 H 0.09742 0.11012 0.44731 0.0
H1123 H 0.09515 0.109 0.47587 0.0
H1124 H 0.1205 0.15306 0.47987 0.0
H1125 H 0.12281 0.15434 0.45146 0.0
H1126 H 0.11807 0.10918 0.49922 0.0
H1127 H 0.10333 0.17435 0.50908 0.0
H1128 H 0.09039 0.19589 0.49499 0.0
H1129 H 0.06212 0.16272 0.46869 0.0
H1130 H 0.07471 0.14099 0.48278 0.0
H1131 H 0.12087 0.15125 0.57776 0.0
H1132 H 0.11588 0.15353 0.54956 0.0
H1133 H 0.09232 0.10836 0.54954 0.0
H1134 H 0.09775 0.1058 0.57754 0.0
H1135 H 0.09188 0.15218 0.52799 0.0
H1136 H 0.10608 0.08696 0.51956 0.0
H1137 H 0.11967 0.06579 0.53366 0.0
H1138 H 0.15009 0.09958 0.55668 0.0
H1139 H 0.13683 0.1209 0.54255 0.0
C1140 C 0.10262 0.11951 0.45427 0.0
C1141 C 0.11022 0.13236 0.44709 0.0
C1142 C 0.1013 0.11885 0.47057 0.0
C1143 C 0.10741 0.13108 0.47991 0.0
C1144 C 0.11545 0.14364 0.47282 0.0
C1145 C 0.11684 0.14429 0.45657 0.0
C1146 C 0.10543 0.13077 0.4971 0.0
C1147 C 0.1121 0.11842 0.5055 0.0
C1148 C 0.09794 0.14305 0.50526 0.0
C1149 C 0.09009 0.15604 0.4969 0.0
C1150 C 0.0943 0.17166 0.50034 0.0
C1151 C 0.08703 0.1839 0.49235 0.0
C1152 C 0.07548 0.18067 0.48092 0.0
C1153 C 0.07112 0.1652 0.4775 0.0
C1154 C 0.07833 0.15292 0.48548 0.0
C1155 C 0.11418 0.14206 0.57182 0.0
C1156 C 0.10992 0.12824 0.57971 0.0
C1157 C 0.11136 0.14335 0.55572 0.0
C1158 C 0.10413 0.13091 0.54743 0.0
C1159 C 0.09826 0.11791 0.55568 0.0
C1160 C 0.1013 0.1165 0.57166 0.0
C1161 C 0.10455 0.1306 0.5301 0.0
C1162 C 0.09769 0.14285 0.52169 0.0
C1163 C 0.11197 0.11828 0.52189 0.0
C1164 C 0.12034 0.10552 0.53012 0.0
C1165 C 0.11572 0.08985 0.52757 0.0
C1166 C 0.12336 0.07783 0.53557 0.0
C1167 C 0.1357 0.08134 0.5461 0.0
C1168 C 0.14049 0.09688 0.54856 0.0
C1169 C 0.13292 0.10893 0.54057 0.0
H1170 H 0.14156 0.07203 0.55232 0.0
H1171 H 0.06988 0.19017 0.47473 0.0
H1172 H 0.14343 0.92115 0.81737 0.0
H1173 H 0.13555 0.91958 0.78985 0.0
H1174 H 0.10705 0.87839 0.79958 0.0
H1175 H 0.11453 0.88018 0.82729 0.0
H1176 H 0.14009 0.89885 0.76806 0.0
H1177 H 0.07509 0.87702 0.77544 0.0
H1178 H 0.05332 0.87878 0.79458 0.0
H1179 H 0.07274 0.9223 0.81182 0.0
H1180 H 0.0945 0.9209 0.79266 0.0
H1181 H 0.1089 0.87322 0.69462 0.0
H1182 H 0.11765 0.87559 0.72188 0.0
H1183 H 0.0865 0.9147 0.72835 0.0
H1184 H 0.0773 0.91204 0.7013 0.0
H1185 H 0.08344 0.89606 0.75176 0.0
H1186 H 0.12788 0.91907 0.72507 0.0
H1187 H 0.1496 0.92041 0.70583 0.0
H1188 H 0.17122 0.88039 0.72688 0.0
H1189 H 0.1495 0.87869 0.74612 0.0
C1190 C 0.13544 0.91178 0.81367 0.0
C1191 C 0.12951 0.90083 0.82449 0.0
C1192 C 0.131 0.91086 0.79792 0.0
C1193 C 0.12062 0.89895 0.79267 0.0
C1194 C 0.11486 0.88785 0.80342 0.0
C1195 C 0.11916 0.88886 0.81923 0.0
C1196 C 0.11581 0.89825 0.77595 0.0
C1197 C 0.1277 0.89822 0.76449 0.0
C1198 C 0.09965 0.8977 0.77128 0.0
C1199 C 0.08651 0.89876 0.78273 0.0
C1200 C 0.07468 0.88699 0.78329 0.0
C1201 C 0.06235 0.88792 0.79414 0.0
C1202 C 0.06168 0.90062 0.80445 0.0
C1203 C 0.07331 0.91244 0.80388 0.0
C1204 C 0.08565 0.91157 0.79304 0.0
C1205 C 0.10403 0.88241 0.70182 0.0
C1206 C 0.0924 0.89243 0.69583 0.0
C1207 C 0.10907 0.88378 0.71739 0.0
C1208 C 0.10283 0.8954 0.72715 0.0
C1209 C 0.09144 0.9056 0.72107 0.0
C1210 C 0.08623 0.9041 0.70559 0.0
C1211 C 0.10772 0.89665 0.74383 0.0
C1212 C 0.09583 0.89668 0.7553 0.0
C1213 C 0.12388 0.89765 0.74848 0.0
C1214 C 0.13698 0.89867 0.73694 0.0
C1215 C 0.1372 0.91049 0.72552 0.0
C1216 C 0.14952 0.91132 0.71463 0.0
C1217 C 0.16176 0.90047 0.71511 0.0
C1218 C 0.16172 0.88878 0.72651 0.0
C1219 C 0.14941 0.88788 0.73742 0.0
H1220 H 0.17129 0.90113 0.70667 0.0
H1221 H 0.05213 0.90131 0.81285 0.0
H1222 H 0.38581 0.89118 0.94301 0.0
H1223 H 0.38934 0.89097 0.97146 0.0
H1224 H 0.36651 0.8455 0.9736 0.0
H1225 H 0.36252 0.84579 0.94535 0.0
H1226 H 0.35712 0.86269 -0.00305 0.0
H1227 H 0.40748 0.8501 0.97449 0.0
H1228 H 0.43079 0.85408 0.95751 0.0
H1229 H 0.44247 0.89683 0.98177 0.0
H1230 H 0.41908 0.89322 -0.00124 0.0
H1231 H 0.38074 0.84159 0.07204 0.0
H1232 H 0.38354 0.84067 0.04355 0.0
H1233 H 0.3956 0.88985 0.04309 0.0
H1234 H 0.39265 0.89094 0.07154 0.0
H1235 H 0.4114 0.87035 0.01913 0.0
H1236 H 0.35958 0.88304 0.04038 0.0
H1237 H 0.33677 0.87803 0.05777 0.0
H1238 H 0.32837 0.83354 0.03551 0.0
H1239 H 0.35135 0.83818 0.01818 0.0
C1240 C 0.38134 0.88124 0.94956 0.0
C1241 C 0.37398 0.86846 0.94189 0.0
C1242 C 0.38349 0.88108 0.9658 0.0
C1243 C 0.37851 0.86806 0.97459 0.0
C1244 C 0.37053 0.85563 0.96704 0.0
C1245 C 0.36825 0.85583 0.95086 0.0
C1246 C 0.38179 0.86719 0.99163 0.0
C1247 C 0.36903 0.86417 0.00173 0.0
C1248 C 0.39731 0.8693 -0.00208 0.0
C1249 C 0.41144 0.87146 0.98779 0.0
C1250 C 0.41495 0.86041 0.97613 0.0
C1251 C 0.42819 0.86259 0.96651 0.0
C1252 C 0.43809 0.87572 0.96853 0.0
C1253 C 0.43478 0.88668 0.98021 0.0
C1254 C 0.42154 0.88456 0.98984 0.0
C1255 C 0.38459 0.85207 0.06595 0.0
C1256 C 0.38622 0.8664 0.07393 0.0
C1257 C 0.38615 0.85152 0.04969 0.0
C1258 C 0.38953 0.86525 0.0413 0.0
C1259 C 0.39295 0.87916 0.04941 0.0
C1260 C 0.39119 0.87977 0.06564 0.0
C1261 C 0.38677 0.86575 0.02424 0.0
C1262 C 0.39956 0.86878 0.01422 0.0
C1263 C 0.37131 0.86352 0.01796 0.0
C1264 C 0.35728 0.86088 0.02812 0.0
C1265 C 0.35294 0.87214 0.03928 0.0
C1266 C 0.33998 0.86937 0.04912 0.0
C1267 C 0.33115 0.85545 0.04777 0.0
C1268 C 0.33524 0.8443 0.03655 0.0
C1269 C 0.34823 0.84699 0.02672 0.0
H1270 H 0.32112 0.85333 0.0554 0.0
H1271 H 0.44833 0.87739 0.96108 0.0
H1272 H 0.35701 0.88689 0.29973 0.0
H1273 H 0.3502 0.88738 0.27175 0.0
H1274 H 0.39994 0.89245 0.2604 0.0
H1275 H 0.40673 0.89244 0.28812 0.0
H1276 H 0.38337 0.91053 0.24239 0.0
H1277 H 0.37984 0.85665 0.25871 0.0
H1278 H 0.37003 0.83455 0.27463 0.0
H1279 H 0.32233 0.84288 0.25895 0.0
H1280 H 0.33184 0.86518 0.24309 0.0
H1281 H 0.38707 0.88171 0.16467 0.0
H1282 H 0.38957 0.8826 0.19329 0.0
H1283 H 0.33889 0.88813 0.19728 0.0
H1284 H 0.3363 0.88751 0.16872 0.0
H1285 H 0.35338 0.86577 0.2189 0.0
H1286 H 0.35838 0.91899 0.2009 0.0
H1287 H 0.36947 0.9401 0.18445 0.0
H1288 H 0.41609 0.93174 0.20303 0.0
H1289 H 0.40531 0.9104 0.21942 0.0
C1290 C 0.36644 0.88826 0.29124 0.0
C1291 C 0.38239 0.88953 0.29609 0.0
C1292 C 0.36256 0.88846 0.27528 0.0
C1293 C 0.3746 0.88972 0.26399 0.0
C1294 C 0.39046 0.89146 0.26889 0.0
C1295 C 0.39432 0.89141 0.28476 0.0
C1296 C 0.37094 0.88881 0.24703 0.0
C1297 C 0.37689 0.90069 0.23727 0.0
C1298 C 0.36226 0.8761 0.24036 0.0
C1299 C 0.35653 0.86269 0.24987 0.0
C1300 C 0.36724 0.85384 0.25876 0.0
C1301 C 0.36174 0.84127 0.26775 0.0
C1302 C 0.34556 0.83734 0.26784 0.0
C1303 C 0.33485 0.84596 0.2589 0.0
C1304 C 0.34029 0.85856 0.2499 0.0
C1305 C 0.37646 0.88294 0.17166 0.0
C1306 C 0.36152 0.88464 0.16451 0.0
C1307 C 0.3779 0.88349 0.18796 0.0
C1308 C 0.36441 0.88554 0.19728 0.0
C1309 C 0.34941 0.88656 0.19022 0.0
C1310 C 0.34798 0.88626 0.17393 0.0
C1311 C 0.36608 0.88731 0.2144 0.0
C1312 C 0.35972 0.87565 0.22411 0.0
C1313 C 0.37457 0.9001 0.22103 0.0
C1314 C 0.38106 0.913 0.21127 0.0
C1315 C 0.37102 0.92156 0.20138 0.0
C1316 C 0.37725 0.93359 0.19208 0.0
C1317 C 0.39348 0.93723 0.19266 0.0
C1318 C 0.40352 0.92889 0.20258 0.0
C1319 C 0.39736 0.91684 0.21188 0.0
H1320 H 0.39828 0.94655 0.18546 0.0
H1321 H 0.34132 0.8276 0.27481 0.0
H1322 H 0.39738 0.11207 0.54361 0.0
H1323 H 0.40223 0.10898 0.51552 0.0
H1324 H 0.37261 0.14874 0.50615 0.0
H1325 H 0.3685 0.15231 0.53399 0.0
H1326 H 0.38242 0.10064 0.49556 0.0
H1327 H 0.37762 0.1655 0.47273 0.0
H1328 H 0.3889 0.19141 0.47955 0.0
H1329 H 0.4278 0.16973 0.5034 0.0
H1330 H 0.41692 0.14366 0.49653 0.0
H1331 H 0.33425 0.1045 0.43127 0.0
H1332 H 0.34823 0.10895 0.45598 0.0
H1333 H 0.38953 0.12568 0.43099 0.0
H1334 H 0.37537 0.12161 0.40607 0.0
H1335 H 0.3852 0.14299 0.45604 0.0
H1336 H 0.39004 0.08938 0.44692 0.0
H1337 H 0.3822 0.06246 0.43945 0.0
H1338 H 0.35004 0.06014 0.47826 0.0
H1339 H 0.35749 0.08712 0.48584 0.0
C1340 C 0.39229 0.12038 0.53553 0.0
C1341 C 0.38247 0.13236 0.54096 0.0
C1342 C 0.39506 0.11861 0.51949 0.0
C1343 C 0.38791 0.12869 0.50864 0.0
C1344 C 0.37868 0.14106 0.5142 0.0
C1345 C 0.37617 0.14299 0.53018 0.0
C1346 C 0.38787 0.12504 0.49162 0.0
C1347 C 0.38332 0.10987 0.48692 0.0
C1348 C 0.3897 0.13687 0.48014 0.0
C1349 C 0.39641 0.15258 0.48412 0.0
C1350 C 0.38866 0.16623 0.47931 0.0
C1351 C 0.39496 0.18096 0.48322 0.0
C1352 C 0.40905 0.18222 0.49192 0.0
C1353 C 0.41687 0.16874 0.4967 0.0
C1354 C 0.41063 0.15398 0.49281 0.0
C1355 C 0.34627 0.10923 0.43102 0.0
C1356 C 0.35376 0.11262 0.41676 0.0
C1357 C 0.3543 0.11165 0.44514 0.0
C1358 C 0.37008 0.11723 0.44529 0.0
C1359 C 0.37742 0.12121 0.4311 0.0
C1360 C 0.3693 0.11892 0.41691 0.0
C1361 C 0.37859 0.11899 0.46044 0.0
C1362 C 0.3848 0.13373 0.46468 0.0
C1363 C 0.37889 0.10662 0.47139 0.0
C1364 C 0.37432 0.09033 0.46694 0.0
C1365 C 0.38123 0.08317 0.45382 0.0
C1366 C 0.37685 0.06789 0.44956 0.0
C1367 C 0.36563 0.0596 0.45837 0.0
C1368 C 0.35875 0.06657 0.47146 0.0
C1369 C 0.36307 0.08185 0.47576 0.0
H1370 H 0.36227 0.04778 0.45507 0.0
H1371 H 0.4139 0.19363 0.49494 0.0
H1372 H 0.1402 0.09737 0.8027 0.0
H1373 H 0.14743 0.09505 0.775 0.0
H1374 H 0.09804 0.08751 0.7628 0.0
H1375 H 0.09086 0.08927 0.79025 0.0
H1376 H 0.11536 0.07014 0.74504 0.0
H1377 H 0.11629 0.12419 0.76145 0.0
H1378 H 0.12502 0.14674 0.77758 0.0
H1379 H 0.17314 0.14051 0.76257 0.0
H1380 H 0.16471 0.11776 0.74651 0.0
H1381 H 0.10831 0.10189 0.6683 0.0
H1382 H 0.10673 0.09944 0.6969 0.0
H1383 H 0.15754 0.09401 0.69952 0.0
H1384 H 0.1592 0.09609 0.67099 0.0
H1385 H 0.14278 0.11636 0.72199 0.0
H1386 H 0.13948 0.06314 0.70293 0.0
H1387 H 0.12864 0.04198 0.68614 0.0
H1388 H 0.08228 0.04845 0.70567 0.0
H1389 H 0.09281 0.06984 0.72241 0.0
C1390 C 0.13096 0.09491 0.79411 0.0
C1391 C 0.11495 0.09371 0.7986 0.0
C1392 C 0.13508 0.09367 0.77831 0.0
C1393 C 0.12322 0.09142 0.76682 0.0
C1394 C 0.10739 0.08929 0.77144 0.0
C1395 C 0.10329 0.09038 0.78716 0.0
C1396 C 0.1269 0.09233 0.7499 0.0
C1397 C 0.12134 0.08026 0.74002 0.0
C1398 C 0.13483 0.10548 0.74335 0.0
C1399 C 0.13991 0.11917 0.75295 0.0
C1400 C 0.12875 0.12756 0.76169 0.0
C1401 C 0.13364 0.14039 0.7708 0.0
C1402 C 0.14964 0.14502 0.77114 0.0
C1403 C 0.16076 0.13687 0.76233 0.0
C1404 C 0.15594 0.12402 0.75322 0.0
C1405 C 0.11913 0.10027 0.675 0.0
C1406 C 0.13385 0.0991 0.66748 0.0
C1407 C 0.11821 0.09884 0.69127 0.0
C1408 C 0.13202 0.09647 0.70019 0.0
C1409 C 0.14678 0.09581 0.69276 0.0
C1410 C 0.14768 0.09694 0.6765 0.0
C1411 C 0.13099 0.09433 0.71726 0.0
C1412 C 0.13704 0.10615 0.7271 0.0
C1413 C 0.12324 0.08113 0.72376 0.0
C1414 C 0.11691 0.06818 0.71381 0.0
C1415 C 0.12695 0.06015 0.70354 0.0
C1416 C 0.12087 0.04809 0.69405 0.0
C1417 C 0.10478 0.0439 0.69481 0.0
C1418 C 0.09474 0.05172 0.70508 0.0
C1419 C 0.10076 0.0638 0.71458 0.0
H1420 H 0.10009 0.03456 0.68745 0.0
H1421 H 0.1534 0.15496 0.7782 0.0
H1422 H 0.11543 0.88151 0.03993 0.0
H1423 H 0.11178 0.88135 0.01156 0.0
H1424 H 0.10249 0.83159 0.01253 0.0
H1425 H 0.10634 0.83163 0.04096 0.0
H1426 H 0.12463 0.83899 0.99142 0.0
H1427 H 0.07275 0.85658 0.00319 0.0
H1428 H 0.05256 0.87267 0.01609 0.0
H1429 H 0.07221 0.91396 0.99469 0.0
H1430 H 0.09267 0.89816 0.98182 0.0
H1431 H 0.11923 0.84545 0.908 0.0
H1432 H 0.11092 0.83928 0.9348 0.0
H1433 H 0.11833 0.88757 0.9481 0.0
H1434 H 0.12628 0.89387 0.92154 0.0
H1435 H 0.09192 0.87616 0.96112 0.0
H1436 H 0.14669 0.85957 0.95472 0.0
H1437 H 0.16792 0.84418 0.94257 0.0
H1438 H 0.14324 0.80158 0.95454 0.0
H1439 H 0.12176 0.81675 0.96661 0.0
C1440 C 0.11238 0.87057 0.03415 0.0
C1441 C 0.11125 0.85657 0.04266 0.0
C1442 C 0.11019 0.87051 0.01794 0.0
C1443 C 0.10671 0.85647 0.00996 0.0
C1444 C 0.10512 0.84255 0.01848 0.0
C1445 C 0.10731 0.8426 0.03471 0.0
C1446 C 0.10625 0.85624 0.99262 0.0
C1447 C 0.11716 0.84682 0.98475 0.0
C1448 C 0.09668 0.86661 0.98397 0.0
C1449 C 0.0843 0.87617 0.99158 0.0
C1450 C 0.07284 0.86911 0.0013 0.0
C1451 C 0.06133 0.87817 0.0086 0.0
C1452 C 0.06111 0.89433 0.00622 0.0
C1453 C 0.07239 0.90144 -0.00349 0.0
C1454 C 0.08393 0.89243 0.98919 0.0
C1455 C 0.11896 0.85476 0.91662 0.0
C1456 C 0.12355 0.87012 0.91265 0.0
C1457 C 0.11423 0.85121 0.93192 0.0
C1458 C 0.11413 0.86295 0.94346 0.0
C1459 C 0.11826 0.87834 0.93938 0.0
C1460 C 0.12291 0.88189 0.92417 0.0
C1461 C 0.11068 0.85934 0.96006 0.0
C1462 C 0.09904 0.86802 0.96778 0.0
C1463 C 0.11965 0.84838 0.96862 0.0
C1464 C 0.13254 0.83928 0.96136 0.0
C1465 C 0.14574 0.84692 0.95465 0.0
C1466 C 0.15782 0.83824 0.9478 0.0
C1467 C 0.1569 0.82191 0.94773 0.0
C1468 C 0.14392 0.81423 0.95456 0.0
C1469 C 0.13179 0.82286 0.96141 0.0
H1470 H 0.16628 0.81521 0.94243 0.0
H1471 H 0.0522 0.90133 0.01189 0.0
H1472 H 0.33063 0.34686 0.12382 0.0
H1473 H 0.30306 0.35308 0.12973 0.0
H1474 H 0.31168 0.40086 0.11556 0.0
H1475 H 0.33949 0.39483 0.11031 0.0
H1476 H 0.29016 0.39991 0.13818 0.0
H1477 H 0.29832 0.37255 0.08928 0.0
H1478 H 0.30775 0.35083 0.07287 0.0
H1479 H 0.27775 0.31859 0.09794 0.0
H1480 H 0.2683 0.34011 0.11465 0.0
H1481 H 0.21923 0.42218 0.1009 0.0
H1482 H 0.24622 0.41376 0.10651 0.0
H1483 H 0.22782 0.3719 0.12835 0.0
H1484 H 0.20057 0.38035 0.12299 0.0
H1485 H 0.253 0.36759 0.10577 0.0
H1486 H 0.2417 0.39724 0.15175 0.0
H1487 H 0.23223 0.42001 0.16659 0.0
H1488 H 0.26796 0.44915 0.14523 0.0
H1489 H 0.2775 0.42659 0.13006 0.0
C1490 C 0.32673 0.35879 0.12237 0.0
C1491 C 0.33707 0.37033 0.1164 0.0
C1492 C 0.31098 0.36231 0.1257 0.0
C1493 C 0.30521 0.37731 0.12263 0.0
C1494 C 0.31586 0.38918 0.11791 0.0
C1495 C 0.33174 0.38573 0.1149 0.0
C1496 C 0.28789 0.38018 0.12254 0.0
C1497 C 0.28204 0.39287 0.13108 0.0
C1498 C 0.27724 0.37081 0.11347 0.0
C1499 C 0.28275 0.3579 0.10332 0.0
C1500 C 0.29381 0.36081 0.09134 0.0
C1501 C 0.29915 0.34854 0.08199 0.0
C1502 C 0.29339 0.33333 0.08439 0.0
C1503 C 0.28222 0.33037 0.09612 0.0
C1504 C 0.27687 0.3426 0.10553 0.0
C1505 C 0.22087 0.41113 0.10683 0.0
C1506 C 0.20776 0.40191 0.11149 0.0
C1507 C 0.2363 0.40642 0.11013 0.0
C1508 C 0.23893 0.39234 0.11801 0.0
C1509 C 0.22595 0.38287 0.12235 0.0
C1510 C 0.21044 0.3877 0.11926 0.0
C1511 C 0.25537 0.38744 0.12119 0.0
C1512 C 0.26106 0.37441 0.11315 0.0
C1513 C 0.26588 0.39663 0.13052 0.0
C1514 C 0.26024 0.41023 0.13968 0.0
C1515 C 0.24746 0.40852 0.15012 0.0
C1516 C 0.24209 0.42139 0.15861 0.0
C1517 C 0.24947 0.43602 0.15683 0.0
C1518 C 0.26225 0.43781 0.14659 0.0
C1519 C 0.26766 0.42498 0.13805 0.0
H1520 H 0.24529 0.44597 0.16342 0.0
H1521 H 0.29754 0.32384 0.07714 0.0
H1522 H 0.70555 0.07953 0.89659 0.0
H1523 H 0.73151 0.09202 0.90065 0.0
H1524 H 0.71745 0.13073 0.87168 0.0
H1525 H 0.69141 0.11827 0.86743 0.0
H1526 H 0.74693 0.12059 0.86437 0.0
H1527 H 0.71905 0.13585 0.91011 0.0
H1528 H 0.7024 0.13216 0.93352 0.0
H1529 H 0.73774 0.10259 0.95383 0.0
H1530 H 0.75451 0.10592 0.93043 0.0
H1531 H 0.81294 0.16283 0.91473 0.0
H1532 H 0.7851 0.15568 0.90992 0.0
H1533 H 0.79969 0.1158 0.88277 0.0
H1534 H 0.82754 0.12304 0.88726 0.0
H1535 H 0.76841 0.13056 0.91781 0.0
H1536 H 0.77335 0.10889 0.85341 0.0
H1537 H 0.78916 0.11469 0.82982 0.0
H1538 H 0.79821 0.16141 0.84653 0.0
H1539 H 0.78227 0.15597 0.87009 0.0
C1540 C 0.70793 0.09071 0.89109 0.0
C1541 C 0.6964 0.09792 0.88171 0.0
C1542 C 0.72276 0.09785 0.89348 0.0
C1543 C 0.7263 0.11235 0.88658 0.0
C1544 C 0.71489 0.11954 0.87712 0.0
C1545 C 0.70002 0.11243 0.87475 0.0
C1546 C 0.74206 0.1198 0.8891 0.0
C1547 C 0.75164 0.12284 0.87604 0.0
C1548 C 0.74799 0.12304 0.90432 0.0
C1549 C 0.73798 0.12105 0.91845 0.0
C1550 C 0.72322 0.12847 0.91952 0.0
C1551 C 0.71377 0.12646 0.93279 0.0
C1552 C 0.719 0.11712 0.94514 0.0
C1553 C 0.7337 0.10981 0.94425 0.0
C1554 C 0.74319 0.11177 0.93099 0.0
C1555 C 0.81022 0.15256 0.90771 0.0
C1556 C 0.82241 0.14351 0.90133 0.0
C1557 C 0.79431 0.14848 0.90499 0.0
C1558 C 0.79034 0.13533 0.89583 0.0
C1559 C 0.8025 0.12617 0.88962 0.0
C1560 C 0.8184 0.13027 0.89227 0.0
C1561 C 0.77349 0.13093 0.89309 0.0
C1562 C 0.7637 0.12844 0.90612 0.0
C1563 C 0.76726 0.12851 0.87782 0.0
C1564 C 0.77673 0.13196 0.86359 0.0
C1565 C 0.77865 0.12042 0.85201 0.0
C1566 C 0.78765 0.12364 0.83865 0.0
C1567 C 0.79472 0.13839 0.8367 0.0
C1568 C 0.79277 0.14997 0.84808 0.0
C1569 C 0.78378 0.14682 0.86145 0.0
H1570 H 0.80168 0.14086 0.82635 0.0
H1571 H 0.71166 0.11558 0.95541 0.0
H1572 H 0.16315 0.46226 0.1221 0.0
H1573 H 0.15768 0.49008 0.12164 0.0
H1574 H 0.10754 0.48015 0.12659 0.0
H1575 H 0.11292 0.45198 0.12682 0.0
H1576 H 0.11365 0.50276 0.10439 0.0
H1577 H 0.12815 0.4931 0.15758 0.0
H1578 H 0.14451 0.48281 0.17915 0.0
H1579 H 0.18398 0.5115 0.16447 0.0
H1580 H 0.16793 0.5218 0.14266 0.0
H1581 H 0.09517 0.58061 0.12859 0.0
H1582 H 0.09832 0.55257 0.12474 0.0
H1583 H 0.14893 0.55942 0.11974 0.0
H1584 H 0.14593 0.58756 0.12375 0.0
H1585 H 0.14139 0.53812 0.14217 0.0
H1586 H 0.12631 0.54784 0.0888 0.0
H1587 H 0.10948 0.55802 0.06753 0.0
H1588 H 0.07034 0.52941 0.08317 0.0
H1589 H 0.08688 0.51921 0.10468 0.0
C1590 C 0.15093 0.46593 0.12314 0.0
C1591 C 0.13845 0.45493 0.12459 0.0
C1592 C 0.14784 0.48186 0.1229 0.0
C1593 C 0.13224 0.48716 0.12428 0.0
C1594 C 0.11967 0.47625 0.12556 0.0
C1595 C 0.12276 0.46021 0.12576 0.0
C1596 C 0.12928 0.50416 0.12444 0.0
C1597 C 0.11949 0.51051 0.11279 0.0
C1598 C 0.13718 0.51422 0.13523 0.0
C1599 C 0.14687 0.50812 0.1484 0.0
C1600 C 0.14036 0.49713 0.15888 0.0
C1601 C 0.14957 0.49131 0.17116 0.0
C1602 C 0.16529 0.49647 0.17316 0.0
C1603 C 0.17181 0.5075 0.1629 0.0
C1604 C 0.16265 0.51335 0.15058 0.0
C1605 C 0.10696 0.57621 0.12638 0.0
C1606 C 0.12034 0.58629 0.12664 0.0
C1607 C 0.10871 0.56018 0.1241 0.0
C1608 C 0.12385 0.55394 0.12197 0.0
C1609 C 0.13714 0.56404 0.1214 0.0
C1610 C 0.1354 0.58012 0.12363 0.0
C1611 C 0.12596 0.5368 0.12196 0.0
C1612 C 0.13554 0.53041 0.13374 0.0
C1613 C 0.11777 0.52675 0.11137 0.0
C1614 C 0.1078 0.53287 0.09845 0.0
C1615 C 0.11407 0.54382 0.08779 0.0
C1616 C 0.10459 0.54958 0.07567 0.0
C1617 C 0.08884 0.5444 0.07402 0.0
C1618 C 0.08254 0.53342 0.08447 0.0
C1619 C 0.09197 0.52764 0.09662 0.0
H1620 H 0.08152 0.54887 0.06463 0.0
H1621 H 0.1724 0.49195 0.18268 0.0
H1622 H 0.67275 0.88563 0.38665 0.0
H1623 H 0.69973 0.88963 0.37695 0.0
H1624 H 0.71285 0.84441 0.3948 0.0
H1625 H 0.68598 0.84056 0.40499 0.0
H1626 H 0.73486 0.865 0.40177 0.0
H1627 H 0.70705 0.85084 0.35499 0.0
H1628 H 0.68581 0.85178 0.33501 0.0
H1629 H 0.69873 0.89934 0.32442 0.0
H1630 H 0.71991 0.89877 0.3445 0.0
H1631 H 0.80996 0.87107 0.36536 0.0
H1632 H 0.78286 0.86087 0.36868 0.0
H1633 H 0.76441 0.90708 0.36141 0.0
H1634 H 0.79141 0.91742 0.35816 0.0
H1635 H 0.74573 0.88239 0.34739 0.0
H1636 H 0.77087 0.89695 0.39695 0.0
H1637 H 0.79238 0.89574 0.41664 0.0
H1638 H 0.78447 0.84625 0.42136 0.0
H1639 H 0.76303 0.84715 0.40151 0.0
C1640 C 0.68138 0.87654 0.3885 0.0
C1641 C 0.67728 0.86278 0.39656 0.0
C1642 C 0.69676 0.87878 0.38284 0.0
C1643 C 0.70822 0.86718 0.38488 0.0
C1644 C 0.70417 0.85347 0.39302 0.0
C1645 C 0.68883 0.8513 0.39885 0.0
C1646 C 0.7246 0.86969 0.37908 0.0
C1647 C 0.73724 0.86847 0.38978 0.0
C1648 C 0.7277 0.87441 0.36348 0.0
C1649 C 0.71501 0.87479 0.35134 0.0
C1650 C 0.70529 0.86154 0.34848 0.0
C1651 C 0.69327 0.862 0.33712 0.0
C1652 C 0.69091 0.87562 0.32847 0.0
C1653 C 0.70058 0.8888 0.33113 0.0
C1654 C 0.71261 0.88841 0.34249 0.0
C1655 C 0.80012 0.879 0.36414 0.0
C1656 C 0.8028 0.89508 0.36172 0.0
C1657 C 0.78467 0.87316 0.36605 0.0
C1658 C 0.77174 0.88329 0.36543 0.0
C1659 C 0.77429 0.89912 0.36192 0.0
C1660 C 0.78972 0.905 0.36016 0.0
C1661 C 0.75577 0.87787 0.37013 0.0
C1662 C 0.74327 0.87861 0.35927 0.0
C1663 C 0.75278 0.8726 0.38553 0.0
C1664 C 0.76549 0.87209 0.39763 0.0
C1665 C 0.7738 0.88579 0.40211 0.0
C1666 C 0.78596 0.88517 0.41331 0.0
C1667 C 0.78982 0.87092 0.42022 0.0
C1668 C 0.78148 0.85728 0.41598 0.0
C1669 C 0.76932 0.85784 0.40476 0.0
H1670 H 0.79924 0.87047 0.42889 0.0
H1671 H 0.68159 0.87595 0.31968 0.0
H1672 H 0.85316 0.90557 0.13529 0.0
H1673 H 0.8481 0.93331 0.13117 0.0
H1674 H 0.8977 0.94133 0.12078 0.0
H1675 H 0.90292 0.91373 0.12536 0.0
H1676 H 0.88855 0.96233 0.1403 0.0
H1677 H 0.8683 0.94297 0.09189 0.0
H1678 H 0.85259 0.92605 0.07399 0.0
H1679 H 0.80939 0.94205 0.09474 0.0
H1680 H 0.82484 0.95891 0.11292 0.0
H1681 H 0.87002 0.04213 0.11893 0.0
H1682 H 0.87919 0.01505 0.1173 0.0
H1683 H 0.83442 -0.00139 0.13586 0.0
H1684 H 0.82522 0.02536 0.13763 0.0
H1685 H 0.84386 0.98276 0.10866 0.0
H1686 H 0.86565 -7e-05 0.15896 0.0
H1687 H 0.88208 0.01712 0.17597 0.0
H1688 H 0.92363 0.00548 0.14965 0.0
H1689 H 0.90738 0.98837 0.13235 0.0
C1690 C 0.86294 0.9132 0.13194 0.0
C1691 C 0.87844 0.90748 0.13072 0.0
C1692 C 0.86003 0.92906 0.12951 0.0
C1693 C 0.8725 0.93939 0.12551 0.0
C1694 C 0.8879 0.93359 0.12388 0.0
C1695 C 0.89085 0.9178 0.12649 0.0
C1696 C 0.86965 0.9564 0.12404 0.0
C1697 C 0.87898 0.96681 0.13311 0.0
C1698 C 0.85711 0.96228 0.11475 0.0
C1699 C 0.84775 0.95213 0.10385 0.0
C1700 C 0.85545 0.94279 0.09272 0.0
C1701 C 0.8466 0.93323 0.08251 0.0
C1702 C 0.83001 0.93295 0.08325 0.0
C1703 C 0.82224 0.94227 0.09418 0.0
C1704 C 0.83105 0.95185 0.10443 0.0
C1705 C 0.86219 0.03274 0.12277 0.0
C1706 C 0.84689 0.03592 0.1284 0.0
C1707 C 0.86744 0.01731 0.12181 0.0
C1708 C 0.85742 0.00489 0.1264 0.0
C1709 C 0.84227 0.00805 0.13216 0.0
C1710 C 0.83708 0.02339 0.13325 0.0
C1711 C 0.86249 0.98847 0.1252 0.0
C1712 C 0.85359 0.97822 0.11561 0.0
C1713 C 0.87553 0.98278 0.13383 0.0
C1714 C 0.88527 0.99303 0.14425 0.0
C1715 C 0.87826 0.00115 0.15672 0.0
C1716 C 0.88755 0.01085 0.16643 0.0
C1717 C 0.90388 0.01244 0.16386 0.0
C1718 C 0.91097 0.00427 0.1516 0.0
C1719 C 0.90173 0.99457 0.14185 0.0
H1720 H 0.91105 0.01995 0.17139 0.0
H1721 H 0.82317 0.92554 0.07533 0.0
H1722 H 0.16082 0.60608 0.60975 0.0
H1723 H 0.18931 0.6012 0.61237 0.0
H1724 H 0.19875 0.65091 0.61471 0.0
H1725 H 0.17046 0.65586 0.6117 0.0
H1726 H 0.21755 0.63822 0.59438 0.0
H1727 H 0.20281 0.62701 0.64712 0.0
H1728 H 0.18759 0.61457 0.66843 0.0
H1729 H 0.20286 0.56932 0.65328 0.0
H1730 H 0.21801 0.58148 0.63174 0.0
H1731 H 0.30019 0.62912 0.61397 0.0
H1732 H 0.27206 0.63627 0.61452 0.0
H1733 H 0.25842 0.58788 0.60767 0.0
H1734 H 0.28631 0.58065 0.60718 0.0
H1735 H 0.24229 0.60142 0.63174 0.0
H1736 H 0.25584 0.61327 0.57801 0.0
H1737 H 0.27138 0.62625 0.55724 0.0
H1738 H 0.25856 0.67122 0.57532 0.0
H1739 H 0.2431 0.65849 0.59633 0.0
C1740 C 0.16896 0.61594 0.61106 0.0
C1741 C 0.16342 0.63134 0.61041 0.0
C1742 C 0.18523 0.61315 0.6126 0.0
C1743 C 0.19616 0.62571 0.61378 0.0
C1744 C 0.19055 0.64106 0.61372 0.0
C1745 C 0.17436 0.64385 0.61202 0.0
C1746 C 0.2135 0.62293 0.61407 0.0
C1747 C 0.22299 0.63037 0.60274 0.0
C1748 C 0.22056 0.61252 0.6248 0.0
C1749 C 0.21143 0.60516 0.63772 0.0
C1750 C 0.20282 0.6144 0.64825 0.0
C1751 C 0.19422 0.6074 0.66039 0.0
C1752 C 0.19423 0.59117 0.66218 0.0
C1753 C 0.20285 0.5819 0.65186 0.0
C1754 C 0.21146 0.58884 0.6397 0.0
C1755 C 0.29118 0.62005 0.61243 0.0
C1756 C 0.29544 0.60433 0.61057 0.0
C1757 C 0.27515 0.62414 0.61276 0.0
C1758 C 0.26321 0.61257 0.61117 0.0
C1759 C 0.26747 0.59695 0.60902 0.0
C1760 C 0.28342 0.59287 0.60867 0.0
C1761 C 0.2462 0.61657 0.61198 0.0
C1762 C 0.23681 0.60936 0.6235 0.0
C1763 C 0.23924 0.62728 0.60152 0.0
C1764 C 0.24846 0.63493 0.58884 0.0
C1765 C 0.25644 0.62593 0.57763 0.0
C1766 C 0.26522 0.63324 0.5658 0.0
C1767 C 0.266 0.64955 0.56499 0.0
C1768 C 0.25797 0.65858 0.57598 0.0
C1769 C 0.24919 0.65133 0.58784 0.0
H1770 H 0.2728 0.65519 0.55582 0.0
H1771 H 0.18757 0.58577 0.67159 0.0
H1772 H 0.13543 0.42029 0.36236 0.0
H1773 H 0.1386 0.44825 0.36747 0.0
H1774 H 0.09381 0.45677 0.34436 0.0
H1775 H 0.09077 0.42879 0.33881 0.0
H1776 H 0.11503 0.47778 0.33565 0.0
H1777 H 0.09693 0.45838 0.3844 0.0
H1778 H 0.0958 0.44104 0.40739 0.0
H1779 H 0.14321 0.45529 0.4205 0.0
H1780 H 0.14472 0.47255 0.39745 0.0
H1781 H 0.11984 0.55695 0.36603 0.0
H1782 H 0.10952 0.53011 0.36266 0.0
H1783 H 0.15614 0.51217 0.37249 0.0
H1784 H 0.1666 0.53881 0.37554 0.0
H1785 H 0.12912 0.4971 0.38891 0.0
H1786 H 0.14722 0.51389 0.33721 0.0
H1787 H 0.14704 0.5318 0.31462 0.0
H1788 H 0.09708 0.52293 0.30795 0.0
H1789 H 0.09693 0.50515 0.33069 0.0
C1790 C 0.12625 0.42811 0.35837 0.0
C1791 C 0.11283 0.42236 0.35025 0.0
C1792 C 0.12802 0.44407 0.36138 0.0
C1793 C 0.11629 0.45455 0.35655 0.0
C1794 C 0.10296 0.44887 0.34825 0.0
C1795 C 0.10125 0.43289 0.34511 0.0
C1796 C 0.11822 0.47146 0.35991 0.0
C1797 C 0.11778 0.48203 0.34736 0.0
C1798 C 0.12181 0.47703 0.37519 0.0
C1799 C 0.12097 0.46669 0.38912 0.0
C1800 C 0.10716 0.45774 0.39212 0.0
C1801 C 0.10644 0.44793 0.40518 0.0
C1802 C 0.11943 0.44704 0.41539 0.0
C1803 C 0.13315 0.45598 0.41258 0.0
C1804 C 0.13394 0.4658 0.39953 0.0
C1805 C 0.12784 0.54726 0.36755 0.0
C1806 C 0.14403 0.54992 0.37096 0.0
C1807 C 0.12194 0.532 0.36562 0.0
C1808 C 0.13212 0.51928 0.36735 0.0
C1809 C 0.14815 0.5219 0.37117 0.0
C1810 C 0.1541 0.5371 0.3728 0.0
C1811 C 0.12636 0.50315 0.36462 0.0
C1812 C 0.12607 0.4928 0.37729 0.0
C1813 C 0.12187 0.49783 0.34953 0.0
C1814 C 0.12202 0.50836 0.33576 0.0
C1815 C 0.13617 0.51587 0.33102 0.0
C1816 C 0.13613 0.52598 0.31817 0.0
C1817 C 0.12204 0.52855 0.30989 0.0
C1818 C 0.10797 0.52096 0.3144 0.0
C1819 C 0.10794 0.51087 0.32726 0.0
H1820 H 0.12204 0.53638 0.29995 0.0
H1821 H 0.11886 0.43944 0.42549 0.0
H1822 H 0.4112 0.57486 0.85108 0.0
H1823 H 0.40977 0.54632 0.85167 0.0
H1824 H 0.35905 0.54818 0.85861 0.0
H1825 H 0.36052 0.57676 0.85864 0.0
H1826 H 0.37101 0.5263 0.87612 0.0
H1827 H 0.3763 0.54128 0.82186 0.0
H1828 H 0.38907 0.55431 0.79937 0.0
H1829 H 0.43132 0.52775 0.80689 0.0
H1830 H 0.41886 0.51469 0.82955 0.0
H1831 H 0.34221 0.45535 0.84663 0.0
H1832 H 0.34998 0.48287 0.84774 0.0
H1833 H 0.39917 0.47023 0.85268 0.0
H1834 H 0.39146 0.44239 0.85175 0.0
H1835 H 0.39157 0.49647 0.83075 0.0
H1836 H 0.38412 0.47954 0.88383 0.0
H1837 H 0.36974 0.46597 0.90503 0.0
H1838 H 0.32993 0.49614 0.89851 0.0
H1839 H 0.34397 0.50973 0.87709 0.0
C1840 C 0.39976 0.56917 0.85283 0.0
C1841 C 0.38594 0.57799 0.85471 0.0
C1842 C 0.39896 0.55287 0.8531 0.0
C1843 C 0.38427 0.54512 0.85487 0.0
C1844 C 0.37051 0.55393 0.85719 0.0
C1845 C 0.37135 0.57024 0.85718 0.0
C1846 C 0.3831 0.52785 0.85397 0.0
C1847 C 0.37544 0.51981 0.86616 0.0
C1848 C 0.38924 0.51933 0.84115 0.0
C1849 C 0.39671 0.52714 0.8275 0.0
C1850 C 0.38835 0.5383 0.81878 0.0
C1851 C 0.39553 0.54568 0.806 0.0
C1852 C 0.41102 0.5419 0.80173 0.0
C1853 C 0.41934 0.53069 0.81022 0.0
C1854 C 0.41222 0.52329 0.82303 0.0
C1855 C 0.35471 0.45836 0.84778 0.0
C1856 C 0.36623 0.44672 0.84927 0.0
C1857 C 0.35911 0.47409 0.84843 0.0
C1858 C 0.37509 0.47847 0.85049 0.0
C1859 C 0.38676 0.46697 0.85115 0.0
C1860 C 0.38235 0.45113 0.85063 0.0
C1861 C 0.37923 0.49513 0.85271 0.0
C1862 C 0.38741 0.503 0.84081 0.0
C1863 C 0.37343 0.50354 0.8657 0.0
C1864 C 0.36506 0.49558 0.87878 0.0
C1865 C 0.37225 0.48321 0.88684 0.0
C1866 C 0.36417 0.47552 0.89891 0.0
C1867 C 0.34892 0.48017 0.9031 0.0
C1868 C 0.34174 0.49255 0.89525 0.0
C1869 C 0.34977 0.50026 0.88316 0.0
H1870 H 0.34268 0.4742 0.91244 0.0
H1871 H 0.41656 0.54761 0.79183 0.0
H1872 H 0.86055 0.65025 0.60624 0.0
H1873 H 0.8497 0.67564 0.59904 0.0
H1874 H 0.84113 0.68574 0.64777 0.0
H1875 H 0.8524 0.66062 0.65507 0.0
H1876 H 0.82373 0.69494 0.60285 0.0
H1877 H 0.85779 0.72072 0.65606 0.0
H1878 H 0.87993 0.71383 0.67372 0.0
H1879 H 0.9003 0.6857 0.63748 0.0
H1880 H 0.87843 0.69261 0.61955 0.0
H1881 H 0.84092 0.78384 0.62323 0.0
H1882 H 0.83574 0.7565 0.62984 0.0
H1883 H 0.84376 0.74321 0.58178 0.0
H1884 H 0.8488 0.77062 0.57501 0.0
H1885 H 0.85887 0.73549 0.62714 0.0
H1886 H 0.82469 0.70762 0.57472 0.0
H1887 H 0.80381 0.71465 0.55573 0.0
H1888 H 0.78514 0.74783 0.5884 0.0
H1889 H 0.80576 0.74084 0.60767 0.0
C1890 C 0.85587 0.65766 0.61537 0.0
C1891 C 0.85763 0.65365 0.63124 0.0
C1892 C 0.84963 0.67215 0.61123 0.0
C1893 C 0.84498 0.68269 0.62291 0.0
C1894 C 0.84493 0.67786 0.63861 0.0
C1895 C 0.85137 0.66351 0.64277 0.0
C1896 C 0.84298 0.69942 0.61906 0.0
C1897 C 0.83139 0.70385 0.6081 0.0
C1898 C 0.85299 0.71101 0.62596 0.0
C1899 C 0.86637 0.70702 0.63655 0.0
C1900 C 0.86703 0.71311 0.65186 0.0
C1901 C 0.87953 0.7092 0.66191 0.0
C1902 C 0.89148 0.69929 0.65674 0.0
C1903 C 0.89101 0.69333 0.64149 0.0
C1904 C 0.87856 0.69723 0.63138 0.0
C1905 C 0.84124 0.77515 0.61398 0.0
C1906 C 0.84546 0.77935 0.59864 0.0
C1907 C 0.83825 0.75954 0.61778 0.0
C1908 C 0.83938 0.74783 0.60632 0.0
C1909 C 0.84264 0.75207 0.59077 0.0
C1910 C 0.8456 0.76774 0.58694 0.0
C1911 C 0.83944 0.73118 0.61106 0.0
C1912 C 0.8509 0.72671 0.62208 0.0
C1913 C 0.82947 0.71964 0.60402 0.0
C1914 C 0.81688 0.72379 0.59259 0.0
C1915 C 0.81609 0.71637 0.57788 0.0
C1916 C 0.8043 0.72035 0.56706 0.0
C1917 C 0.79318 0.73171 0.57084 0.0
C1918 C 0.7938 0.73908 0.58547 0.0
C1919 C 0.80555 0.73512 0.59633 0.0
H1920 H 0.78407 0.73479 0.56244 0.0
H1921 H 0.90112 0.69625 0.66455 0.0
H1922 H 0.93185 0.12876 0.39573 0.0
H1923 H 0.96026 0.13512 0.39827 0.0
H1924 H 0.964 0.13842 0.34804 0.0
H1925 H 0.93559 0.13238 0.34536 0.0
H1926 H 0.98736 0.11844 0.36474 0.0
H1927 H 0.96468 0.17021 0.36502 0.0
H1928 H 0.9459 0.18978 0.3748 0.0
H1929 H 0.96619 0.18634 0.4209 0.0
H1930 H 0.9849 0.16651 0.41146 0.0
H1931 H 0.06687 0.14595 0.36246 0.0
H1932 H 0.03828 0.14281 0.35764 0.0
H1933 H 0.02902 0.15482 0.40587 0.0
H1934 H 0.05742 0.15877 0.41046 0.0
H1935 H 0.0079 0.16753 0.38913 0.0
H1936 H 0.02879 0.11587 0.39149 0.0
H1937 H 0.04632 0.09409 0.38456 0.0
H1938 H 0.02878 0.09486 0.33724 0.0
H1939 H 0.01128 0.11679 0.34385 0.0
C1940 C 0.93871 0.13093 0.38524 0.0
C1941 C 0.93152 0.13011 0.37035 0.0
C1942 C 0.95489 0.13456 0.38671 0.0
C1943 C 0.9641 0.13721 0.37333 0.0
C1944 C 0.957 0.13639 0.35847 0.0
C1945 C 0.94079 0.13303 0.35699 0.0
C1946 C 0.98126 0.14062 0.37484 0.0
C1947 C 0.99194 0.12926 0.36984 0.0
C1948 C 0.98702 0.15451 0.38198 0.0
C1949 C 0.9761 0.16677 0.38756 0.0
C1950 C 0.96507 0.17354 0.37727 0.0
C1951 C 0.95444 0.18469 0.38275 0.0
C1952 C 0.95483 0.18927 0.39847 0.0
C1953 C 0.96589 0.18276 0.40873 0.0
C1954 C 0.97652 0.17158 0.40331 0.0
C1955 C 0.05869 0.148 0.37197 0.0
C1956 C 0.06433 0.15253 0.38683 0.0
C1957 C 0.04237 0.14613 0.36925 0.0
C1958 C 0.03149 0.14829 0.38147 0.0
C1959 C 0.03715 0.15309 0.39624 0.0
C1960 C 0.0534 0.1553 0.39887 0.0
C1961 C 0.01423 0.14531 0.37905 0.0
C1962 C 0.00346 0.15673 0.38391 0.0
C1963 C 0.00834 0.13126 0.37215 0.0
C1964 C 0.01886 0.11808 0.36812 0.0
C1965 C 0.02876 0.11147 0.37958 0.0
C1966 C 0.03868 0.09909 0.37571 0.0
C1967 C 0.0387 0.09313 0.36046 0.0
C1968 C 0.02877 0.09951 0.34904 0.0
C1969 C 0.01884 0.11191 0.35285 0.0
H1970 H 0.04638 0.08354 0.35749 0.0
H1971 H 0.94656 0.19788 0.40269 0.0
H1972 H 0.65093 0.20079 0.12141 0.0
H1973 H 0.6584 0.22737 0.12926 0.0
H1974 H 0.64341 0.24451 0.08415 0.0
H1975 H 0.63605 0.21784 0.07609 0.0
H1976 H 0.67037 0.26101 0.09691 0.0
H1977 H 0.61727 0.24389 0.1118 0.0
H1978 H 0.59793 0.22595 0.12424 0.0
H1979 H 0.62131 0.23263 0.16866 0.0
H1980 H 0.64094 0.25045 0.15641 0.0
H1981 H 0.63473 0.33408 0.10959 0.0
H1982 H 0.64676 0.30922 0.10305 0.0
H1983 H 0.65291 0.29929 0.15225 0.0
H1984 H 0.64016 0.3239 0.15884 0.0
H1985 H 0.63511 0.27829 0.13977 0.0
H1986 H 0.68498 0.30029 0.1254 0.0
H1987 H 0.70378 0.31852 0.11264 0.0
H1988 H 0.68675 0.30362 0.06741 0.0
H1989 H 0.66767 0.28546 0.07989 0.0
C1990 C 0.64949 0.21016 0.11304 0.0
C1991 C 0.64262 0.20729 0.09823 0.0
C1992 C 0.65385 0.22532 0.11752 0.0
C1993 C 0.65127 0.23788 0.10735 0.0
C1994 C 0.64551 0.23494 0.09215 0.0
C1995 C 0.6412 0.21972 0.08761 0.0
C1996 C 0.65229 0.2541 0.11332 0.0
C1997 C 0.6627 0.2649 0.10627 0.0
C1998 C 0.64252 0.25897 0.12577 0.0
C1999 C 0.63068 0.24833 0.13316 0.0
C2000 C 0.61836 0.24143 0.12419 0.0
C2001 C 0.60734 0.2313 0.13121 0.0
C2002 C 0.60842 0.22811 0.14723 0.0
C2003 C 0.62051 0.23508 0.15626 0.0
C2004 C 0.63158 0.24519 0.14928 0.0
C2005 C 0.63919 0.32688 0.11901 0.0
C2006 C 0.63622 0.33074 0.13472 0.0
C2007 C 0.64619 0.31266 0.11525 0.0
C2008 C 0.65065 0.30228 0.12716 0.0
C2009 C 0.64943 0.30705 0.14286 0.0
C2010 C 0.64215 0.32112 0.14662 0.0
C2011 C 0.6532 0.28556 0.12337 0.0
C2012 C 0.64324 0.27453 0.13073 0.0
C2013 C 0.66337 0.28062 0.1112 0.0
C2014 C 0.67481 0.29155 0.10361 0.0
C2015 C 0.68515 0.30098 0.11274 0.0
C2016 C 0.69588 0.31129 0.10555 0.0
C2017 C 0.69645 0.31224 0.08923 0.0
C2018 C 0.6863 0.30287 0.08006 0.0
C2019 C 0.67554 0.29254 0.08718 0.0
H2020 H 0.70477 0.32023 0.08369 0.0
H2021 H 0.59987 0.22027 0.15264 0.0
H2022 H 0.42021 0.85577 0.85946 0.0
H2023 H 0.44922 0.85794 0.85633 0.0
H2024 H 0.45558 0.84979 0.90578 0.0
H2025 H 0.42683 0.84721 0.90894 0.0
H2026 H 0.47348 0.87674 0.89154 0.0
H2027 H 0.46177 0.821 0.88576 0.0
H2028 H 0.44791 0.7984 0.87356 0.0
H2029 H 0.46668 0.8113 0.82866 0.0
H2030 H 0.48046 0.83412 0.84058 0.0
H2031 H 0.55559 0.8641 0.89872 0.0
H2032 H 0.5267 0.86137 0.90086 0.0
H2033 H 0.52327 0.85289 0.85106 0.0
H2034 H 0.55208 0.8548 0.84901 0.0
H2035 H 0.50326 0.83505 0.86445 0.0
H2036 H 0.51558 0.88963 0.8685 0.0
H2037 H 0.52887 0.91343 0.87886 0.0
H2038 H 0.5085 0.90497 0.92411 0.0
H2039 H 0.49526 0.88099 0.91407 0.0
C2040 C 0.42783 0.85449 0.86963 0.0
C2041 C 0.42134 0.85124 0.88441 0.0
C2042 C 0.44432 0.85571 0.86783 0.0
C2043 C 0.45441 0.854 0.88085 0.0
C2044 C 0.44792 0.85115 0.89564 0.0
C2045 C 0.43153 0.8496 0.89738 0.0
C2046 C 0.47181 0.85484 0.87912 0.0
C2047 C 0.48007 0.8676 0.88573 0.0
C2048 C 0.4802 0.84311 0.87116 0.0
C2049 C 0.47198 0.82936 0.86403 0.0
C2050 C 0.46281 0.8191 0.87326 0.0
C2051 C 0.455 0.80624 0.8664 0.0
C2052 C 0.45637 0.80345 0.85034 0.0
C2053 C 0.4656 0.81349 0.8411 0.0
C2054 C 0.47342 0.82639 0.8479 0.0
C2055 C 0.54866 0.86149 0.88828 0.0
C2056 C 0.55608 0.85973 0.8737 0.0
C2057 C 0.53215 0.86005 0.88948 0.0
C2058 C 0.52276 0.8573 0.87605 0.0
C2059 C 0.53023 0.85505 0.86158 0.0
C2060 C 0.54672 0.85616 0.86043 0.0
C2061 C 0.50516 0.85698 0.87695 0.0
C2062 C 0.49678 0.8443 0.8702 0.0
C2063 C 0.49664 0.869 0.88449 0.0
C2064 C 0.50456 0.88343 0.89057 0.0
C2065 C 0.51403 0.89278 0.88069 0.0
C2066 C 0.52154 0.90631 0.8865 0.0
C2067 C 0.51956 0.91069 0.90214 0.0
C2068 C 0.51004 0.90156 0.912 0.0
C2069 C 0.50252 0.888 0.90626 0.0
H2070 H 0.52539 0.92117 0.90661 0.0
H2071 H 0.45032 0.79348 0.84505 0.0
H2072 H 0.86871 0.20172 0.85536 0.0
H2073 H 0.87144 0.22936 0.84868 0.0
H2074 H 0.87706 0.24109 0.89758 0.0
H2075 H 0.87453 0.2133 0.90443 0.0
H2076 H 0.85451 0.25996 0.87988 0.0
H2077 H 0.90844 0.24251 0.87794 0.0
H2078 H 0.93004 0.22504 0.87005 0.0
H2079 H 0.92085 0.23525 0.82165 0.0
H2080 H 0.89902 0.2526 0.82924 0.0
H2081 H 0.87973 0.3388 0.86539 0.0
H2082 H 0.87634 0.31204 0.87488 0.0
H2083 H 0.88038 0.29461 0.8276 0.0
H2084 H 0.88416 0.32127 0.81807 0.0
H2085 H 0.89879 0.27877 0.84637 0.0
H2086 H 0.84449 0.2949 0.84733 0.0
H2087 H 0.82201 0.3117 0.85424 0.0
H2088 H 0.83077 0.30353 0.90312 0.0
H2089 H 0.85344 0.28683 0.8965 0.0
C2090 C 0.87052 0.21015 0.86473 0.0
C2091 C 0.87143 0.20534 0.88044 0.0
C2092 C 0.87212 0.22592 0.86087 0.0
C2093 C 0.8745 0.23718 0.87264 0.0
C2094 C 0.87523 0.2325 0.88836 0.0
C2095 C 0.87386 0.21666 0.89223 0.0
C2096 C 0.87624 0.25383 0.86836 0.0
C2097 C 0.86432 0.2642 0.87279 0.0
C2098 C 0.88883 0.25913 0.85876 0.0
C2099 C 0.90199 0.24874 0.85416 0.0
C2100 C 0.91093 0.24092 0.8656 0.0
C2101 C 0.92324 0.23106 0.86119 0.0
C2102 C 0.92679 0.22901 0.84536 0.0
C2103 C 0.91807 0.23684 0.83391 0.0
C2104 C 0.90574 0.2467 0.83826 0.0
C2105 C 0.8797 0.32929 0.85699 0.0
C2106 C 0.88228 0.33216 0.84098 0.0
C2107 C 0.87772 0.31399 0.86243 0.0
C2108 C 0.87804 0.30132 0.85194 0.0
C2109 C 0.88017 0.3042 0.83591 0.0
C2110 C 0.88229 0.31946 0.83048 0.0
C2111 C 0.87692 0.285 0.85769 0.0
C2112 C 0.889 0.27464 0.85355 0.0
C2113 C 0.86438 0.2797 0.8674 0.0
C2114 C 0.85077 0.28976 0.87142 0.0
C2115 C 0.84171 0.29679 0.85956 0.0
C2116 C 0.82892 0.30628 0.86342 0.0
C2117 C 0.825 0.30872 0.87911 0.0
C2118 C 0.83384 0.30165 0.89097 0.0
C2119 C 0.84665 0.29217 0.88717 0.0
H2120 H 0.81508 0.31606 0.88208 0.0
H2121 H 0.93633 0.22137 0.84196 0.0
H2122 H 0.40505 0.1041 0.63893 0.0
H2123 H 0.43367 0.10178 0.64402 0.0
H2124 H 0.44258 0.14295 0.61598 0.0
H2125 H 0.41431 0.14458 0.61011 0.0
H2126 H 0.46238 0.12323 0.60822 0.0
H2127 H 0.44439 0.14187 0.65815 0.0
H2128 H 0.42839 0.14157 0.68227 0.0
H2129 H 0.44754 0.09701 0.69474 0.0
H2130 H 0.46352 0.09696 0.67059 0.0
H2131 H 0.53702 0.14005 0.65962 0.0
H2132 H 0.50814 0.13783 0.6571 0.0
H2133 H 0.51341 0.10292 0.62089 0.0
H2134 H 0.54233 0.10589 0.62272 0.0
H2135 H 0.48651 0.11736 0.66096 0.0
H2136 H 0.48448 0.10506 0.59422 0.0
H2137 H 0.5005 0.11028 0.57062 0.0
H2138 H 0.52124 0.15098 0.59268 0.0
H2139 H 0.50521 0.14611 0.61632 0.0
C2140 C 0.4132 0.11264 0.63396 0.0
C2141 C 0.40761 0.12444 0.62407 0.0
C2142 C 0.42951 0.11137 0.63691 0.0
C2143 C 0.44032 0.12224 0.63044 0.0
C2144 C 0.43455 0.13431 0.62096 0.0
C2145 C 0.41839 0.13528 0.61766 0.0
C2146 C 0.45771 0.12094 0.63293 0.0
C2147 C 0.46761 0.12193 0.61978 0.0
C2148 C 0.46462 0.11935 0.64799 0.0
C2149 C 0.455 0.11933 0.66248 0.0
C2150 C 0.44509 0.13195 0.66598 0.0
C2151 C 0.43604 0.13185 0.67967 0.0
C2152 C 0.43691 0.11926 0.69001 0.0
C2153 C 0.44685 0.10675 0.6867 0.0
C2154 C 0.45591 0.10678 0.67303 0.0
C2155 C 0.53198 0.1319 0.65114 0.0
C2156 C 0.54182 0.12331 0.64119 0.0
C2157 C 0.51549 0.13056 0.64977 0.0
C2158 C 0.50858 0.12039 0.63863 0.0
C2159 C 0.51845 0.11116 0.62928 0.0
C2160 C 0.53495 0.11282 0.63035 0.0
C2161 C 0.4911 0.12013 0.63629 0.0
C2162 C 0.48121 0.11862 0.64942 0.0
C2163 C 0.48417 0.12201 0.62129 0.0
C2164 C 0.49379 0.1251 0.60709 0.0
C2165 C 0.49244 0.11514 0.59401 0.0
C2166 C 0.50152 0.11804 0.58063 0.0
C2167 C 0.51193 0.13092 0.58018 0.0
C2168 C 0.51323 0.14097 0.59307 0.0
C2169 C 0.50416 0.13814 0.60646 0.0
H2170 H 0.51896 0.13314 0.56982 0.0
H2171 H 0.4299 0.11921 0.7006 0.0
H2172 H 0.61923 0.79987 0.41225 0.0
H2173 H 0.61336 0.77204 0.40768 0.0
H2174 H 0.61443 0.77979 0.3578 0.0
H2175 H 0.62039 0.80747 0.36219 0.0
H2176 H 0.58772 0.76246 0.36825 0.0
H2177 H 0.64528 0.76419 0.37463 0.0
H2178 H 0.67003 0.77006 0.38924 0.0
H2179 H 0.65474 0.73982 0.42647 0.0
H2180 H 0.62977 0.73394 0.41215 0.0
H2181 H 0.59647 0.69387 0.32743 0.0
H2182 H 0.60159 0.71919 0.3396 0.0
H2183 H 0.60255 0.69759 0.38519 0.0
H2184 H 0.59768 0.67188 0.37296 0.0
H2185 H 0.62562 0.72071 0.38213 0.0
H2186 H 0.56982 0.71603 0.37441 0.0
H2187 H 0.54497 0.70993 0.36006 0.0
H2188 H 0.55607 0.74564 0.32642 0.0
H2189 H 0.58111 0.7518 0.34044 0.0
C2190 C 0.61819 0.79564 0.40031 0.0
C2191 C 0.62029 0.80586 0.38757 0.0
C2192 C 0.61489 0.77976 0.39774 0.0
C2193 C 0.61352 0.77393 0.38242 0.0
C2194 C 0.61544 0.78412 0.36971 0.0
C2195 C 0.6189 0.79991 0.37225 0.0
C2196 C 0.61001 0.75722 0.37939 0.0
C2197 C 0.596 0.75332 0.37124 0.0
C2198 C 0.62056 0.74529 0.38387 0.0
C2199 C 0.63558 0.74878 0.39242 0.0
C2200 C 0.64713 0.75891 0.386 0.0
C2201 C 0.66121 0.76222 0.39421 0.0
C2202 C 0.66394 0.75536 0.4088 0.0
C2203 C 0.6526 0.74515 0.41519 0.0
C2204 C 0.63849 0.74182 0.40702 0.0
C2205 C 0.59784 0.69442 0.34005 0.0
C2206 C 0.59644 0.6809 0.34927 0.0
C2207 C 0.60073 0.70893 0.34698 0.0
C2208 C 0.60205 0.7103 0.36331 0.0
C2209 C 0.60142 0.69676 0.37257 0.0
C2210 C 0.59864 0.68212 0.36558 0.0
C2211 C 0.60359 0.72604 0.37044 0.0
C2212 C 0.61716 0.72977 0.37941 0.0
C2213 C 0.59255 0.73785 0.36685 0.0
C2214 C 0.57739 0.73433 0.35845 0.0
C2215 C 0.56701 0.72253 0.36391 0.0
C2216 C 0.55288 0.71906 0.35583 0.0
C2217 C 0.54895 0.72738 0.34233 0.0
C2218 C 0.55913 0.73921 0.33689 0.0
C2219 C 0.57328 0.74271 0.34491 0.0
H2220 H 0.53801 0.72467 0.33609 0.0
H2221 H 0.67485 0.75794 0.41514 0.0
H2222 H 0.09577 0.89016 0.14751 0.0
H2223 H 0.06901 0.89823 0.15474 0.0
H2224 H 0.05376 0.89315 0.10664 0.0
H2225 H 0.0804 0.88534 0.09927 0.0
H2226 H 0.03811 0.91691 0.12153 0.0
H2227 H 0.05156 0.86235 0.13078 0.0
H2228 H 0.06748 0.84143 0.14265 0.0
H2229 H 0.05654 0.85861 0.1886 0.0
H2230 H 0.04072 0.87977 0.17697 0.0
H2231 H 0.96103 0.88403 0.11757 0.0
H2232 H 0.98896 0.89209 0.11654 0.0
H2233 H 0.99113 0.89293 0.16706 0.0
H2234 H 0.96328 0.88452 0.16817 0.0
H2235 H 0.0141 0.87623 0.15574 0.0
H2236 H 0.99475 0.92701 0.14554 0.0
H2237 H 0.97829 0.94703 0.13292 0.0
H2238 H -0.00056 0.93681 0.08847 0.0
H2239 H 0.01587 0.91656 0.10076 0.0
C2240 C 0.08683 0.89118 0.1384 0.0
C2241 C 0.0901 0.88677 0.12288 0.0
C2242 C 0.07157 0.8958 0.14256 0.0
C2243 C 0.05938 0.89599 0.13127 0.0
C2244 C 0.06299 0.89303 0.11554 0.0
C2245 C 0.07822 0.88843 0.11137 0.0
C2246 C 0.04252 0.89681 0.13595 0.0
C2247 C 0.0328 0.9081 0.12906 0.0
C2248 C 0.03573 0.88548 0.14603 0.0
C2249 C 0.04516 0.87274 0.15302 0.0
C2250 C 0.05266 0.86172 0.14341 0.0
C2251 C 0.06164 0.84982 0.15009 0.0
C2252 C 0.06306 0.84873 0.16637 0.0
C2253 C 0.05546 0.8595 0.176 0.0
C2254 C 0.04649 0.87145 0.16937 0.0
C2255 C 0.9674 0.88613 0.12845 0.0
C2256 C 0.96003 0.88349 0.14294 0.0
C2257 C 0.98332 0.89088 0.12785 0.0
C2258 C 0.99209 0.89328 0.14173 0.0
C2259 C 0.98457 0.89119 0.15622 0.0
C2260 C 0.96868 0.88634 0.15682 0.0
C2261 C 0.00947 0.89614 0.14105 0.0
C2262 C 0.01934 0.88543 0.14863 0.0
C2263 C 0.01631 0.90796 0.13155 0.0
C2264 C 0.0065 0.9202 0.12408 0.0
C2265 C 0.99582 0.92895 0.13305 0.0
C2266 C 0.9865 0.94036 0.12596 0.0
C2267 C 0.9878 0.94318 0.1099 0.0
C2268 C -0.00155 0.93462 0.10091 0.0
C2269 C 0.00779 0.92319 0.10794 0.0
H2270 H 0.98057 0.95201 0.10443 0.0
H2271 H 0.07002 0.8395 0.17152 0.0
H2272 H 0.66329 0.87854 0.69048 0.0
H2273 H 0.65521 0.86419 0.71376 0.0
H2274 H 0.60938 0.85432 0.6927 0.0
H2275 H 0.61743 0.86882 0.66923 0.0
H2276 H 0.607 0.86879 0.72061 0.0
H2277 H 0.63337 0.82414 0.70183 0.0
H2278 H 0.65489 0.80904 0.68986 0.0
H2279 H 0.68617 0.82181 0.72785 0.0
H2280 H 0.66493 0.83718 0.73995 0.0
H2281 H 0.58923 0.844 0.79738 0.0
H2282 H 0.59275 0.8405 0.76917 0.0
H2283 H 0.64226 0.85363 0.77388 0.0
H2284 H 0.63893 0.85688 0.80207 0.0
H2285 H 0.63797 0.83088 0.75179 0.0
H2286 H 0.61475 0.8809 0.76548 0.0
H2287 H 0.59443 0.89765 0.77733 0.0
H2288 H 0.55839 0.87586 0.74847 0.0
H2289 H 0.57851 0.85885 0.73658 0.0
C2290 C 0.65161 0.87303 0.69064 0.0
C2291 C 0.64092 0.87494 0.67813 0.0
C2292 C 0.64706 0.86469 0.70391 0.0
C2293 C 0.63173 0.85809 0.70492 0.0
C2294 C 0.6213 0.85926 0.6921 0.0
C2295 C 0.62591 0.86754 0.67872 0.0
C2296 C 0.62605 0.85222 0.72022 0.0
C2297 C 0.61344 0.8601 0.72725 0.0
C2298 C 0.63468 0.84115 0.72897 0.0
C2299 C 0.64753 0.83187 0.72179 0.0
C2300 C 0.64487 0.82382 0.70759 0.0
C2301 C 0.65702 0.81519 0.70079 0.0
C2302 C 0.67189 0.81447 0.70809 0.0
C2303 C 0.67464 0.82236 0.72222 0.0
C2304 C 0.66253 0.83101 0.72908 0.0
C2305 C 0.60093 0.84587 0.79244 0.0
C2306 C 0.61376 0.85094 0.80189 0.0
C2307 C 0.60291 0.84385 0.77633 0.0
C2308 C 0.61771 0.84701 0.76943 0.0
C2309 C 0.63075 0.85111 0.77899 0.0
C2310 C 0.6288 0.85307 0.79508 0.0
C2311 C 0.61934 0.84784 0.75221 0.0
C2312 C 0.63119 0.8391 0.74491 0.0
C2313 C 0.61015 0.85825 0.74319 0.0
C2314 C 0.59807 0.86847 0.75031 0.0
C2315 C 0.60247 0.8796 0.76176 0.0
C2316 C 0.591 0.88916 0.76846 0.0
C2317 C 0.57512 0.88778 0.7637 0.0
C2318 C 0.57069 0.87688 0.75218 0.0
C2319 C 0.58212 0.86728 0.74546 0.0
H2320 H 0.56625 0.89519 0.7689 0.0
H2321 H 0.68128 0.80779 0.7028 0.0
H2322 H 0.88947 0.86677 0.54134 0.0
H2323 H 0.88568 0.87482 0.51423 0.0
H2324 H 0.83944 0.85221 0.5135 0.0
H2325 H 0.84356 0.84345 0.54047 0.0
H2326 H 0.85252 0.84697 0.48739 0.0
H2327 H 0.84456 0.89318 0.51688 0.0
H2328 H 0.85027 0.91379 0.53647 0.0
H2329 H 0.89258 0.92715 0.51168 0.0
H2330 H 0.88724 0.90648 0.49204 0.0
H2331 H 0.84286 0.91244 0.42378 0.0
H2332 H 0.84256 0.90401 0.45104 0.0
H2333 H 0.87255 0.86522 0.43932 0.0
H2334 H 0.8724 0.87327 0.41188 0.0
H2335 H 0.86389 0.90192 0.4721 0.0
H2336 H 0.86509 0.83434 0.46239 0.0
H2337 H 0.85488 0.81486 0.44332 0.0
H2338 H 0.818 0.84618 0.42947 0.0
H2339 H 0.82783 0.86576 0.4486 0.0
C2340 C 0.8785 0.86351 0.5354 0.0
C2341 C 0.86677 0.85456 0.54304 0.0
C2342 C 0.8763 0.8682 0.51992 0.0
C2343 C 0.86212 0.86443 0.51189 0.0
C2344 C 0.85046 0.85531 0.51945 0.0
C2345 C 0.85281 0.85032 0.53486 0.0
C2346 C 0.8596 0.86992 0.49559 0.0
C2347 C 0.85496 0.859 0.48406 0.0
C2348 C 0.86228 0.88572 0.49127 0.0
C2349 C 0.86556 0.89819 0.50305 0.0
C2350 C 0.85514 0.90044 0.51566 0.0
C2351 C 0.8583 0.91214 0.52677 0.0
C2352 C 0.8718 0.92175 0.52534 0.0
C2353 C 0.88214 0.91969 0.51278 0.0
C2354 C 0.87904 0.90799 0.50164 0.0
C2355 C 0.84941 0.90211 0.427 0.0
C2356 C 0.85764 0.8935 0.41567 0.0
C2357 C 0.84922 0.89731 0.4426 0.0
C2358 C 0.85736 0.88387 0.44722 0.0
C2359 C 0.86587 0.87542 0.43598 0.0
C2360 C 0.86587 0.8801 0.42032 0.0
C2361 C 0.85722 0.87888 0.46385 0.0
C2362 C 0.86137 0.88991 0.47544 0.0
C2363 C 0.85341 0.86334 0.4683 0.0
C2364 C 0.84731 0.85157 0.45684 0.0
C2365 C 0.85477 0.83704 0.45533 0.0
C2366 C 0.84905 0.82599 0.44449 0.0
C2367 C 0.83583 0.82931 0.43516 0.0
C2368 C 0.82827 0.84366 0.43667 0.0
C2369 C 0.83392 0.85474 0.44749 0.0
H2370 H 0.83143 0.82074 0.42678 0.0
H2371 H 0.87422 0.93081 0.53394 0.0
H2372 H 0.86868 0.10923 0.16588 0.0
H2373 H 0.87555 0.11794 0.19252 0.0
H2374 H 0.82579 0.1184 0.20435 0.0
H2375 H 0.81886 0.1095 0.17802 0.0
H2376 H 0.86769 0.1429 0.21252 0.0
H2377 H 0.82107 0.10017 0.2388 0.0
H2378 H 0.80752 0.07525 0.23196 0.0
H2379 H 0.84692 0.06247 0.20311 0.0
H2380 H 0.86078 0.08719 0.20995 0.0
H2381 H 0.84541 0.12813 0.30078 0.0
H2382 H 0.83989 0.12849 0.27267 0.0
H2383 H 0.89017 0.1316 0.26326 0.0
H2384 H 0.89578 0.13154 0.29139 0.0
H2385 H 0.84908 0.10589 0.2534 0.0
H2386 H 0.89569 0.14828 0.22674 0.0
H2387 H 0.9099 0.17284 0.23356 0.0
H2388 H 0.8716 0.18595 0.26366 0.0
H2389 H 0.85706 0.16159 0.25686 0.0
C2390 C 0.85921 0.11142 0.1741 0.0
C2391 C 0.84325 0.10839 0.16996 0.0
C2392 C 0.86315 0.11645 0.18927 0.0
C2393 C 0.85118 0.11854 0.20043 0.0
C2394 C 0.83521 0.11659 0.19596 0.0
C2395 C 0.83128 0.11147 0.18091 0.0
C2396 C 0.85524 0.12123 0.2171 0.0
C2397 C 0.8638 0.13477 0.22149 0.0
C2398 C 0.85 0.11064 0.22875 0.0
C2399 C 0.84188 0.09561 0.22477 0.0
C2400 C 0.82686 0.09201 0.23105 0.0
C2401 C 0.81912 0.07792 0.22717 0.0
C2402 C 0.82633 0.06731 0.21707 0.0
C2403 C 0.84132 0.07073 0.21088 0.0
C2404 C 0.84911 0.08478 0.21474 0.0
C2405 C 0.85528 0.12918 0.29274 0.0
C2406 C 0.87103 0.12966 0.29827 0.0
C2407 C 0.85211 0.12939 0.27669 0.0
C2408 C 0.86461 0.13008 0.26589 0.0
C2409 C 0.88033 0.13127 0.27139 0.0
C2410 C 0.88352 0.13115 0.28747 0.0
C2411 C 0.86124 0.12779 0.24899 0.0
C2412 C 0.85291 0.11415 0.24451 0.0
C2413 C 0.86682 0.13824 0.23735 0.0
C2414 C 0.87537 0.15302 0.24141 0.0
C2415 C 0.89028 0.15643 0.23477 0.0
C2416 C 0.89839 0.17031 0.23864 0.0
C2417 C 0.89168 0.18092 0.24908 0.0
C2418 C 0.87682 0.1777 0.25563 0.0
C2419 C 0.86865 0.16383 0.25179 0.0
H2420 H 0.89799 0.19166 0.25206 0.0
H2421 H 0.82031 0.05642 0.21406 0.0
H2422 H 0.62088 0.07387 0.92522 0.0
H2423 H 0.61379 0.08448 0.95076 0.0
H2424 H 0.61611 0.13126 0.93207 0.0
H2425 H 0.62322 0.12076 0.90641 0.0
H2426 H 0.63546 0.12698 0.9579 0.0
H2427 H 0.58117 0.11706 0.94367 0.0
H2428 H 0.55843 0.10139 0.93368 0.0
H2429 H 0.56454 0.06839 0.97096 0.0
H2430 H 0.58746 0.08374 0.98105 0.0
H2431 H 0.61893 0.15867 0.03279 0.0
H2432 H 0.61739 0.15269 0.0048 0.0
H2433 H 0.60905 0.10393 0.01539 0.0
H2434 H 0.61002 0.1099 0.04334 0.0
H2435 H 0.59047 0.11213 0.99236 0.0
H2436 H 0.64617 0.11856 0.00426 0.0
H2437 H 0.67022 0.13224 0.01419 0.0
H2438 H 0.6629 0.16946 0.98139 0.0
H2439 H 0.63869 0.15607 0.97139 0.0
C2440 C 0.61956 0.0864 0.92644 0.0
C2441 C 0.62277 0.09649 0.91384 0.0
C2442 C 0.61542 0.09243 0.94102 0.0
C2443 C 0.61443 0.10864 0.94326 0.0
C2444 C 0.61681 0.11871 0.93052 0.0
C2445 C 0.62083 0.11268 0.91588 0.0
C2446 C 0.61279 0.11503 0.95926 0.0
C2447 C 0.62544 0.12406 0.96535 0.0
C2448 C 0.59996 0.11074 0.96904 0.0
C2449 C 0.58611 0.10152 0.96306 0.0
C2450 C 0.57774 0.1064 0.94968 0.0
C2451 C 0.5648 0.09759 0.94401 0.0
C2452 C 0.56006 0.08389 0.95166 0.0
C2453 C 0.56822 0.079 0.96503 0.0
C2454 C 0.58118 0.08777 0.97075 0.0
C2455 C 0.61677 0.14668 0.02915 0.0
C2456 C 0.61469 0.13474 0.04026 0.0
C2457 C 0.61591 0.14327 0.01315 0.0
C2458 C 0.61329 0.12783 0.008 0.0
C2459 C 0.61103 0.11594 0.01909 0.0
C2460 C 0.61167 0.11936 0.03506 0.0
C2461 C 0.61326 0.12391 0.99108 0.0
C2462 C 0.60034 0.1153 0.98484 0.0
C2463 C 0.62599 0.12833 0.98119 0.0
C2464 C 0.64052 0.13641 0.98722 0.0
C2465 C 0.64962 0.12973 -0.00074 0.0
C2466 C 0.66329 0.13741 0.00488 0.0
C2467 C 0.66805 0.15174 -0.00154 0.0
C2468 C 0.65918 0.15838 0.98637 0.0
C2469 C 0.64548 0.15075 0.98072 0.0
H2470 H 0.67865 0.15767 0.00283 0.0
H2471 H 0.55004 0.07708 0.94725 0.0
H2472 H 0.61116 0.12553 0.82543 0.0
H2473 H 0.60659 0.1339 0.79845 0.0
H2474 H 0.65706 0.13385 0.79001 0.0
H2475 H 0.66176 0.12535 0.81693 0.0
H2476 H 0.63866 0.15759 0.77244 0.0
H2477 H 0.64058 0.10175 0.78409 0.0
H2478 H 0.63233 0.07842 0.79909 0.0
H2479 H 0.58381 0.08522 0.78514 0.0
H2480 H 0.59177 0.10878 0.77029 0.0
H2481 H 0.64386 0.1375 0.69183 0.0
H2482 H 0.64706 0.13914 0.72029 0.0
H2483 H 0.5973 0.12776 0.72608 0.0
H2484 H 0.59408 0.12568 0.69779 0.0
H2485 H 0.61415 0.11156 0.74553 0.0
H2486 H 0.61206 0.16542 0.73117 0.0
H2487 H 0.61962 0.18923 0.71662 0.0
H2488 H 0.66696 0.18713 0.73548 0.0
H2489 H 0.65975 0.16316 0.74998 0.0
C2490 C 0.62132 0.12785 0.81802 0.0
C2491 C 0.63679 0.12448 0.82314 0.0
C2492 C 0.61869 0.13265 0.80262 0.0
C2493 C 0.63149 0.13425 0.79227 0.0
C2494 C 0.64706 0.13265 0.79788 0.0
C2495 C 0.6497 0.1277 0.81321 0.0
C2496 C 0.62858 0.1345 0.77523 0.0
C2497 C 0.63337 0.14756 0.76648 0.0
C2498 C 0.62148 0.12144 0.7676 0.0
C2499 C 0.61674 0.1071 0.77624 0.0
C2500 C 0.62814 0.09833 0.78432 0.0
C2501 C 0.62352 0.08507 0.79279 0.0
C2502 C 0.60755 0.08037 0.79311 0.0
C2503 C 0.59617 0.08889 0.78491 0.0
C2504 C 0.60073 0.1022 0.77647 0.0
C2505 C 0.63362 0.13529 0.69917 0.0
C2506 C 0.61873 0.13143 0.69254 0.0
C2507 C 0.63543 0.13637 0.71542 0.0
C2508 C 0.62235 0.13382 0.72528 0.0
C2509 C 0.60754 0.12981 0.71868 0.0
C2510 C 0.60574 0.1286 0.70249 0.0
C2511 C 0.62415 0.13473 0.74252 0.0
C2512 C 0.61926 0.12176 0.75138 0.0
C2513 C 0.63103 0.14794 0.75017 0.0
C2514 C 0.6354 0.1624 0.74155 0.0
C2515 C 0.62412 0.16996 0.73212 0.0
C2516 C 0.62834 0.1835 0.7239 0.0
C2517 C 0.64377 0.18967 0.72509 0.0
C2518 C 0.65501 0.18233 0.73455 0.0
C2519 C 0.65086 0.16877 0.74279 0.0
H2520 H 0.64701 0.20015 0.71871 0.0
H2521 H 0.60399 0.0701 0.79967 0.0
H2522 H 0.62802 0.89116 0.45749 0.0
H2523 H 0.62982 0.89785 0.48525 0.0
H2524 H 0.62516 0.84908 0.49735 0.0
H2525 H 0.62339 0.8422 0.46946 0.0
H2526 H 0.60732 0.87024 0.51689 0.0
H2527 H 0.66018 0.86275 0.49788 0.0
H2528 H 0.68251 0.8664 0.4796 0.0
H2529 H 0.68323 0.91574 0.48909 0.0
H2530 H 0.66072 0.91242 0.50725 0.0
H2531 H 0.63834 0.88225 0.59477 0.0
H2532 H 0.63247 0.87245 0.56839 0.0
H2533 H 0.64235 0.91828 0.54947 0.0
H2534 H 0.64843 0.92813 0.57567 0.0
H2535 H 0.65777 0.89614 0.53382 0.0
H2536 H 0.60446 0.90398 0.5521 0.0
H2537 H 0.58176 0.90066 0.56998 0.0
H2538 H 0.58163 0.85108 0.56189 0.0
H2539 H 0.60448 0.85408 0.54411 0.0
C2540 C 0.6272 0.88185 0.46603 0.0
C2541 C 0.62571 0.86614 0.46131 0.0
C2542 C 0.62824 0.8857 0.48187 0.0
C2543 C 0.62778 0.87393 0.49326 0.0
C2544 C 0.62555 0.85829 0.48867 0.0
C2545 C 0.62461 0.8544 0.47277 0.0
C2546 C 0.63064 0.87803 0.50984 0.0
C2547 C 0.61842 0.87568 0.52071 0.0
C2548 C 0.64506 0.88532 0.51465 0.0
C2549 C 0.65867 0.88735 0.50382 0.0
C2550 C 0.66501 0.8744 0.49597 0.0
C2551 C 0.67771 0.8764 0.48565 0.0
C2552 C 0.68426 0.8913 0.48316 0.0
C2553 C 0.67814 0.90421 0.49102 0.0
C2554 C 0.66542 0.90228 0.50134 0.0
C2555 C 0.63915 0.89027 0.58501 0.0
C2556 C 0.64393 0.90596 0.58733 0.0
C2557 C 0.63573 0.88466 0.56996 0.0
C2558 C 0.63692 0.89467 0.55701 0.0
C2559 C 0.6414 0.91037 0.55932 0.0
C2560 C 0.64485 0.91597 0.57432 0.0
C2561 C 0.63431 0.8887 0.5409 0.0
C2562 C 0.64667 0.89063 0.53009 0.0
C2563 C 0.62001 0.88106 0.5362 0.0
C2564 C 0.6063 0.87923 0.54692 0.0
C2565 C 0.59969 0.89235 0.55425 0.0
C2566 C 0.58677 0.89053 0.56434 0.0
C2567 C 0.58029 0.87566 0.56711 0.0
C2568 C 0.58668 0.86259 0.55976 0.0
C2569 C 0.59961 0.86434 0.54966 0.0
H2570 H 0.57028 0.87428 0.57492 0.0
H2571 H 0.69409 0.89283 0.47517 0.0
H2572 H 0.84805 0.85757 0.31596 0.0
H2573 H 0.85571 0.84786 0.29028 0.0
H2574 H 0.90515 0.85132 0.30372 0.0
H2575 H 0.89749 0.86103 0.32962 0.0
H2576 H 0.8975 0.86968 0.2787 0.0
H2577 H 0.89012 0.81636 0.29274 0.0
H2578 H 0.87646 0.79345 0.30422 0.0
H2579 H 0.83753 0.79886 0.27206 0.0
H2580 H 0.85083 0.82195 0.26053 0.0
H2581 H 0.91554 0.85726 0.19906 0.0
H2582 H 0.91477 0.85352 0.22736 0.0
H2583 H 0.86398 0.84602 0.22491 0.0
H2584 H 0.86472 0.84925 0.19647 0.0
H2585 H 0.87676 0.82635 0.24527 0.0
H2586 H 0.8805 0.88174 0.23541 0.0
H2587 H 0.89219 0.9059 0.22437 0.0
H2588 H 0.93575 0.89778 0.2493 0.0
H2589 H 0.92436 0.87346 0.26034 0.0
C2590 C 0.86053 0.85573 0.31365 0.0
C2591 C 0.8722 0.86021 0.32467 0.0
C2592 C 0.86489 0.85008 0.29899 0.0
C2593 C 0.881 0.84891 0.29509 0.0
C2594 C 0.89265 0.85211 0.30655 0.0
C2595 C 0.88827 0.8576 0.32134 0.0
C2596 C 0.88542 0.84728 0.27842 0.0
C2597 C 0.8934 0.85997 0.27145 0.0
C2598 C 0.87952 0.83489 0.26894 0.0
C2599 C 0.87146 0.82096 0.27581 0.0
C2600 C 0.87859 0.81275 0.28819 0.0
C2601 C 0.87092 0.79971 0.29469 0.0
C2602 C 0.85613 0.79471 0.28888 0.0
C2603 C 0.84899 0.80274 0.27654 0.0
C2604 C 0.85661 0.81579 0.26999 0.0
C2605 C 0.90419 0.85481 0.20453 0.0
C2606 C 0.89015 0.85374 0.19554 0.0
C2607 C 0.90378 0.85265 0.22071 0.0
C2608 C 0.88929 0.8497 0.22827 0.0
C2609 C 0.8753 0.84827 0.2193 0.0
C2610 C 0.87572 0.85022 0.20307 0.0
C2611 C 0.88857 0.84888 0.24559 0.0
C2612 C 0.88123 0.83583 0.25261 0.0
C2613 C 0.89479 0.86108 0.25516 0.0
C2614 C 0.90166 0.87569 0.24853 0.0
C2615 C 0.89261 0.88505 0.23843 0.0
C2616 C 0.89918 0.89878 0.23219 0.0
C2617 C 0.91472 0.90334 0.23609 0.0
C2618 C 0.92372 0.89421 0.24627 0.0
C2619 C 0.91722 0.88045 0.25252 0.0
H2620 H 0.91978 0.91398 0.23125 0.0
H2621 H 0.85021 0.78461 0.29394 0.0
H2622 H 0.88302 0.16893 0.96516 0.0
H2623 H 0.88705 0.1606 0.99232 0.0
H2624 H 0.89512 0.11346 0.97648 0.0
H2625 H 0.89105 0.12161 0.94943 0.0
H2626 H 0.87167 0.11515 -0.00191 0.0
H2627 H 0.92511 0.1346 0.99232 0.0
H2628 H 0.9458 0.15423 0.98588 0.0
H2629 H 0.9281 0.18487 0.02147 0.0
H2630 H 0.90715 0.1655 0.02798 0.0
H2631 H 0.88059 0.08203 0.07097 0.0
H2632 H 0.89007 0.09089 0.04546 0.0
H2633 H 0.88413 0.13887 0.05974 0.0
H2634 H 0.87516 0.1301 0.08549 0.0
H2635 H 0.90838 0.13642 0.03887 0.0
H2636 H 0.85374 0.11956 0.04259 0.0
H2637 H 0.83183 0.10125 0.04908 0.0
H2638 H 0.85036 0.06742 0.01699 0.0
H2639 H 0.87252 0.08547 0.01049 0.0
C2640 C 0.88593 0.15685 0.96746 0.0
C2641 C 0.88655 0.14589 0.95518 0.0
C2642 C 0.88831 0.15214 0.98296 0.0
C2643 C 0.8914 0.13642 0.98638 0.0
C2644 C 0.89273 0.12563 0.97408 0.0
C2645 C 0.89038 0.13032 0.95862 0.0
C2646 C 0.89144 0.1308 0.00277 0.0
C2647 C 0.87993 0.11957 0.00692 0.0
C2648 C 0.90184 0.13701 0.01438 0.0
C2649 C 0.91447 0.14865 0.01054 0.0
C2650 C 0.92554 0.14557 -0.00131 0.0
C2651 C 0.93734 0.15664 0.99504 0.0
C2652 C 0.93824 0.1708 0.00324 0.0
C2653 C 0.92738 0.1739 0.01513 0.0
C2654 C 0.91555 0.16287 0.01881 0.0
C2655 C 0.88178 0.09447 0.06885 0.0
C2656 C 0.87687 0.10537 0.08009 0.0
C2657 C 0.88718 0.09952 0.05426 0.0
C2658 C 0.88737 0.11552 0.05058 0.0
C2659 C 0.88397 0.12647 0.06231 0.0
C2660 C 0.87881 0.12143 0.07701 0.0
C2661 C 0.88876 0.12061 0.03406 0.0
C2662 C 0.90034 0.13184 0.02994 0.0
C2663 C 0.87826 0.1146 0.02241 0.0
C2664 C 0.86487 0.10379 0.02619 0.0
C2665 C 0.85319 0.10817 0.037 0.0
C2666 C 0.84073 0.09785 0.04068 0.0
C2667 C 0.83973 0.08317 0.03349 0.0
C2668 C 0.85117 0.07879 0.02257 0.0
C2669 C 0.86368 0.08906 0.01889 0.0
H2670 H 0.83007 0.07519 0.03634 0.0
H2671 H 0.94738 0.17936 0.0004 0.0
H2672 H 0.78448 0.58607 0.86298 0.0
H2673 H 0.75619 0.58947 0.85755 0.0
H2674 H 0.76388 0.63927 0.85332 0.0
H2675 H 0.7922 0.63599 0.85878 0.0
H2676 H 0.74051 0.63172 0.87393 0.0
H2677 H 0.75451 0.61818 0.82152 0.0
H2678 H 0.76663 0.6023 0.80076 0.0
H2679 H 0.73633 0.56335 0.81277 0.0
H2680 H 0.72418 0.57892 0.83379 0.0
H2681 H 0.66292 0.65032 0.85707 0.0
H2682 H 0.69082 0.64661 0.8507 0.0
H2683 H 0.68484 0.5968 0.85665 0.0
H2684 H 0.65668 0.6004 0.86275 0.0
H2685 H 0.7074 0.60485 0.83341 0.0
H2686 H 0.69563 0.6172 0.88722 0.0
H2687 H 0.68349 0.63261 0.90835 0.0
H2688 H 0.71014 0.67328 0.89403 0.0
H2689 H 0.72226 0.65815 0.87265 0.0
C2690 C 0.78018 0.59772 0.86072 0.0
C2691 C 0.79052 0.61078 0.86144 0.0
C2692 C 0.76404 0.59963 0.8575 0.0
C2693 C 0.758 0.6146 0.85495 0.0
C2694 C 0.76836 0.62761 0.85523 0.0
C2695 C 0.78451 0.62571 0.85836 0.0
C2696 C 0.74067 0.61685 0.85352 0.0
C2697 C 0.73333 0.6261 0.86487 0.0
C2698 C 0.73128 0.60909 0.84199 0.0
C2699 C 0.73853 0.59968 0.82934 0.0
C2700 C 0.75052 0.60618 0.81984 0.0
C2701 C 0.75738 0.59724 0.808 0.0
C2702 C 0.75228 0.58181 0.80547 0.0
C2703 C 0.74028 0.5753 0.81476 0.0
C2704 C 0.73339 0.58418 0.82662 0.0
C2705 C 0.66743 0.63853 0.85663 0.0
C2706 C 0.65773 0.62566 0.8607 0.0
C2707 C 0.68336 0.63644 0.85296 0.0
C2708 C 0.68992 0.62148 0.85356 0.0
C2709 C 0.67997 0.60844 0.85619 0.0
C2710 C 0.66391 0.61052 0.85971 0.0
C2711 C 0.70738 0.61982 0.85373 0.0
C2712 C 0.71467 0.6106 0.8423 0.0
C2713 C 0.71682 0.62752 0.86526 0.0
C2714 C 0.70972 0.63659 0.87824 0.0
C2715 C 0.69881 0.62945 0.88851 0.0
C2716 C 0.69195 0.63813 0.90054 0.0
C2717 C 0.69601 0.65392 0.9025 0.0
C2718 C 0.70699 0.66106 0.89248 0.0
C2719 C 0.71386 0.65243 0.88041 0.0
H2720 H 0.69067 0.66063 0.91182 0.0
H2721 H 0.75761 0.57491 0.7963 0.0
H2722 H 0.3061 0.89098 0.09942 0.0
H2723 H 0.27753 0.88745 0.09566 0.0
H2724 H 0.28191 0.83779 0.10262 0.0
H2725 H 0.31066 0.84119 0.10671 0.0
H2726 H 0.26044 0.84948 0.07594 0.0
H2727 H 0.27076 0.85352 0.13173 0.0
H2728 H 0.28296 0.86579 0.15514 0.0
H2729 H 0.25891 0.9086 0.1452 0.0
H2730 H 0.24677 0.89664 0.12157 0.0
H2731 H 0.17896 0.83307 0.08936 0.0
H2732 H 0.20792 0.8342 0.09054 0.0
H2733 H 0.20644 0.88379 0.09994 0.0
H2734 H 0.17737 0.8826 0.09939 0.0
H2735 H 0.22703 0.87111 0.11833 0.0
H2736 H 0.21659 0.86841 0.0632 0.0
H2737 H 0.20487 0.85775 0.0388 0.0
H2738 H 0.22919 0.81455 0.04598 0.0
H2739 H 0.24089 0.82489 0.07055 0.0
C2740 C 0.30108 0.87925 0.09995 0.0
C2741 C 0.31062 0.86636 0.10351 0.0
C2742 C 0.28476 0.87729 0.0978 0.0
C2743 C 0.27772 0.86241 0.09898 0.0
C2744 C 0.28724 0.84937 0.10169 0.0
C2745 C 0.3036 0.85134 0.10407 0.0
C2746 C 0.26029 0.86078 0.09848 0.0
C2747 C 0.25306 0.85396 0.08527 0.0
C2748 C 0.25084 0.86708 0.1105 0.0
C2749 C 0.258 0.87424 0.12479 0.0
C2750 C 0.2682 0.86559 0.13445 0.0
C2751 C 0.27507 0.87248 0.14778 0.0
C2752 C 0.27175 0.88798 0.15164 0.0
C2753 C 0.2615 0.8966 0.14219 0.0
C2754 C 0.2546 0.88977 0.12884 0.0
C2755 C 0.18481 0.84423 0.09164 0.0
C2756 C 0.17594 0.85777 0.09424 0.0
C2757 C 0.20137 0.84487 0.09223 0.0
C2758 C 0.20936 0.85913 0.09506 0.0
C2759 C 0.20051 0.87267 0.09771 0.0
C2760 C 0.18392 0.87199 0.09736 0.0
C2761 C 0.22695 0.85985 0.09568 0.0
C2762 C 0.23428 0.86653 0.10895 0.0
C2763 C 0.23646 0.85361 0.08359 0.0
C2764 C 0.22949 0.84737 0.06879 0.0
C2765 C 0.21934 0.8566 0.05964 0.0
C2766 C 0.21272 0.85062 0.04577 0.0
C2767 C 0.21625 0.83546 0.04086 0.0
C2768 C 0.22645 0.82627 0.0498 0.0
C2769 C 0.23309 0.83219 0.06369 0.0
H2770 H 0.21111 0.83085 0.03012 0.0
H2771 H 0.27708 0.89329 0.16196 0.0
H2772 H 0.83753 0.5502 0.87689 0.0
H2773 H 0.83994 0.52178 0.87823 0.0
H2774 H 0.88922 0.52712 0.89169 0.0
H2775 H 0.88699 0.55551 0.8903 0.0
H2776 H 0.88489 0.50696 0.86738 0.0
H2777 H 0.86212 0.51523 0.91813 0.0
H2778 H 0.84235 0.52514 0.93675 0.0
H2779 H 0.80579 0.49756 0.91411 0.0
H2780 H 0.82531 0.48765 0.89521 0.0
H2781 H 0.90167 0.42944 0.87719 0.0
H2782 H 0.89674 0.45587 0.88669 0.0
H2783 H 0.84733 0.45091 0.87354 0.0
H2784 H 0.8521 0.42415 0.86451 0.0
H2785 H 0.8515 0.47074 0.89902 0.0
H2786 H 0.87276 0.46442 0.84725 0.0
H2787 H 0.89169 0.45451 0.82777 0.0
H2788 H 0.92997 0.47897 0.85118 0.0
H2789 H 0.91129 0.48883 0.87095 0.0
C2790 C 0.84886 0.54534 0.88022 0.0
C2791 C 0.8621 0.55513 0.88341 0.0
C2792 C 0.85018 0.5291 0.8811 0.0
C2793 C 0.86472 0.52238 0.88519 0.0
C2794 C 0.87788 0.53211 0.88856 0.0
C2795 C 0.87658 0.54833 0.88774 0.0
C2796 C 0.86657 0.50521 0.88483 0.0
C2797 C 0.87778 0.49907 0.87452 0.0
C2798 C 0.85691 0.49493 0.89376 0.0
C2799 C 0.84516 0.50081 0.90516 0.0
C2800 C 0.84984 0.51138 0.91704 0.0
C2801 C 0.83868 0.51697 0.92766 0.0
C2802 C 0.82281 0.51201 0.92659 0.0
C2803 C 0.81808 0.50141 0.91492 0.0
C2804 C 0.82919 0.49578 0.90426 0.0
C2805 C 0.88965 0.4338 0.87682 0.0
C2806 C 0.87731 0.42492 0.8699 0.0
C2807 C 0.88685 0.44889 0.88224 0.0
C2808 C 0.87178 0.45546 0.88039 0.0
C2809 C 0.85907 0.44605 0.87497 0.0
C2810 C 0.86181 0.43079 0.8698 0.0
C2811 C 0.86997 0.4726 0.88175 0.0
C2812 C 0.8587 0.47869 0.89205 0.0
C2813 C 0.87944 0.48293 0.87267 0.0
C2814 C 0.89066 0.47723 0.86066 0.0
C2815 C 0.88523 0.4676 0.84829 0.0
C2816 C 0.89591 0.462 0.8372 0.0
C2817 C 0.91203 0.46607 0.83826 0.0
C2818 C 0.91749 0.4758 0.85039 0.0
C2819 C 0.90686 0.48141 0.86154 0.0
H2820 H 0.92028 0.46172 0.82966 0.0
H2821 H 0.81419 0.51636 0.93482 0.0
H2822 H 0.19119 0.12986 0.6364 0.0
H2823 H 0.22003 0.12781 0.63453 0.0
H2824 H 0.21497 0.10866 0.58786 0.0
H2825 H 0.18608 0.10989 0.59007 0.0
H2826 H 0.23444 0.09191 0.603 0.0
H2827 H 0.22927 0.14741 0.59634 0.0
H2828 H 0.22079 0.17406 0.6031 0.0
H2829 H 0.24732 0.17214 0.64615 0.0
H2830 H 0.25581 0.14539 0.63974 0.0
H2831 H 0.3108 0.11153 0.57197 0.0
H2832 H 0.28273 0.10876 0.5789 0.0
H2833 H 0.29518 0.11102 0.62794 0.0
H2834 H 0.32343 0.11332 0.62107 0.0
H2835 H 0.2729 0.13486 0.61505 0.0
H2836 H 0.28039 0.07956 0.61863 0.0
H2837 H 0.28945 0.05381 0.60958 0.0
H2838 H 0.25889 0.05666 0.56926 0.0
H2839 H 0.24982 0.08255 0.57795 0.0
C2840 C 0.19627 0.12549 0.62564 0.0
C2841 C 0.18646 0.12007 0.61335 0.0
C2842 C 0.21276 0.12432 0.62457 0.0
C2843 C 0.21971 0.11817 0.61101 0.0
C2844 C 0.20989 0.11334 0.59849 0.0
C2845 C 0.19341 0.11415 0.5997 0.0
C2846 C 0.23714 0.11607 0.61006 0.0
C2847 C 0.24281 0.10138 0.60549 0.0
C2848 C 0.24813 0.12826 0.61376 0.0
C2849 C 0.24302 0.14433 0.61764 0.0
C2850 C 0.23319 0.15262 0.60731 0.0
C2851 C 0.2284 0.16775 0.61107 0.0
C2852 C 0.23347 0.17477 0.62507 0.0
C2853 C 0.24338 0.16668 0.63532 0.0
C2854 C 0.24819 0.15154 0.63163 0.0
C2855 C 0.30757 0.11099 0.58423 0.0
C2856 C 0.31918 0.11266 0.596 0.0
C2857 C 0.29159 0.1094 0.58816 0.0
C2858 C 0.287 0.10973 0.60391 0.0
C2859 C 0.29861 0.11069 0.61574 0.0
C2860 C 0.31468 0.11192 0.6118 0.0
C2861 C 0.27001 0.11089 0.6077 0.0
C2862 C 0.26445 0.1254 0.61278 0.0
C2863 C 0.25913 0.09867 0.60415 0.0
C2864 C 0.26452 0.08307 0.5989 0.0
C2865 C 0.27571 0.07477 0.60777 0.0
C2866 C 0.28082 0.06012 0.60271 0.0
C2867 C 0.27477 0.05361 0.58884 0.0
C2868 C 0.26357 0.06172 0.58 0.0
C2869 C 0.25843 0.07637 0.585 0.0
H2870 H 0.27874 0.04228 0.58495 0.0
H2871 H 0.22975 0.18649 0.62795 0.0
H2872 H 0.1101 0.94615 0.89665 0.0
H2873 H 0.10355 0.97331 0.90232 0.0
H2874 H 0.15154 0.98768 0.89125 0.0
H2875 H 0.15829 0.96048 0.88582 0.0
H2876 H 0.13873 0.00546 0.91545 0.0
H2877 H 0.12453 0.98794 0.86317 0.0
H2878 H 0.11142 0.9704 0.84391 0.0
H2879 H 0.06594 0.98042 0.86385 0.0
H2880 H 0.07884 -0.00214 0.88338 0.0
H2881 H 0.13144 0.07932 0.87846 0.0
H2882 H 0.13655 0.05388 0.89014 0.0
H2883 H 0.08609 0.04586 0.89548 0.0
H2884 H 0.08093 0.07106 0.88325 0.0
H2885 H 0.09802 0.02439 0.87809 0.0
H2886 H 0.11262 0.04635 0.92749 0.0
H2887 H 0.12643 0.0643 0.94587 0.0
H2888 H 0.17152 0.04695 0.93096 0.0
H2889 H 0.15801 0.02905 0.91232 0.0
C2890 C 0.11935 0.95504 0.89569 0.0
C2891 C 0.13464 0.95124 0.89052 0.0
C2892 C 0.11559 0.97054 0.89899 0.0
C2893 C 0.12701 0.98249 0.89699 0.0
C2894 C 0.14257 0.97861 0.89287 0.0
C2895 C 0.14637 0.96308 0.88966 0.0
C2896 C 0.12222 -0.00094 0.89709 0.0
C2897 C 0.12985 0.00969 0.90731 0.0
C2898 C 0.11044 0.00444 0.88663 0.0
C2899 C 0.10266 0.99404 0.87485 0.0
C2900 C 0.11175 0.9863 0.86352 0.0
C2901 C 0.10436 0.9764 0.85255 0.0
C2902 C 0.08786 0.97426 0.85269 0.0
C2903 C 0.07872 0.98206 0.86378 0.0
C2904 C 0.08606 0.99195 0.8748 0.0
C2905 C 0.12146 0.07238 0.88264 0.0
C2906 C 0.10578 0.07701 0.87971 0.0
C2907 C 0.1244 0.05784 0.8894 0.0
C2908 C 0.11169 0.04789 0.89362 0.0
C2909 C 0.09607 0.05329 0.89222 0.0
C2910 C 0.09313 0.06769 0.88523 0.0
C2911 C 0.11449 0.03105 0.89649 0.0
C2912 C 0.10659 0.02027 0.88662 0.0
C2913 C 0.12608 0.02567 0.9072 0.0
C2914 C 0.13428 0.03641 0.91842 0.0
C2915 C 0.12549 0.04644 0.92803 0.0
C2916 C 0.13326 0.05659 0.93852 0.0
C2917 C 0.14984 0.05678 0.93957 0.0
C2918 C 0.15868 0.04679 0.93014 0.0
C2919 C 0.15097 0.03662 0.91963 0.0
H2920 H 0.15584 0.06465 0.94769 0.0
H2921 H 0.08216 0.96658 0.84418 0.0
H2922 H 0.83727 0.39417 0.37334 0.0
H2923 H 0.80916 0.40039 0.36967 0.0
H2924 H 0.7978 0.3513 0.36425 0.0
H2925 H 0.82573 0.34499 0.3678 0.0
H2926 H 0.78129 0.36955 0.34345 0.0
H2927 H 0.7933 0.36828 0.39897 0.0
H2928 H 0.80791 0.37628 0.42289 0.0
H2929 H 0.7936 0.42379 0.41614 0.0
H2930 H 0.77908 0.41609 0.39205 0.0
H2931 H 0.69943 0.36508 0.36144 0.0
H2932 H 0.72825 0.36194 0.36094 0.0
H2933 H 0.73488 0.4111 0.37106 0.0
H2934 H 0.70615 0.41425 0.37201 0.0
H2935 H 0.75427 0.39475 0.38823 0.0
H2936 H 0.74049 0.3959 0.33379 0.0
H2937 H 0.72586 0.38803 0.30985 0.0
H2938 H 0.74344 0.34135 0.31411 0.0
H2939 H 0.758 0.34888 0.33821 0.0
C2940 C 0.82882 0.38473 0.37114 0.0
C2941 C 0.8337 0.36908 0.37102 0.0
C2942 C 0.81278 0.3883 0.3691 0.0
C2943 C 0.80142 0.37627 0.36688 0.0
C2944 C 0.80638 0.36074 0.36598 0.0
C2945 C 0.82235 0.35716 0.36809 0.0
C2946 C 0.78425 0.37966 0.36643 0.0
C2947 C 0.77533 0.37499 0.35325 0.0
C2948 C 0.7766 0.38704 0.37911 0.0
C2949 C 0.78527 0.39165 0.39362 0.0
C2950 C 0.79338 0.38046 0.40252 0.0
C2951 C 0.80162 0.38493 0.41612 0.0
C2952 C 0.80172 0.40054 0.42101 0.0
C2953 C 0.79354 0.41171 0.41233 0.0
C2954 C 0.7853 0.4073 0.39871 0.0
C2955 C 0.70702 0.37522 0.36357 0.0
C2956 C 0.70049 0.38991 0.36675 0.0
C2957 C 0.72349 0.37343 0.36318 0.0
C2958 C 0.73371 0.38635 0.36572 0.0
C2959 C 0.72722 0.40098 0.36904 0.0
C2960 C 0.71078 0.40275 0.36957 0.0
C2961 C 0.7512 0.38456 0.36526 0.0
C2962 C 0.7602 0.38949 0.37831 0.0
C2963 C 0.75891 0.37748 0.35242 0.0
C2964 C 0.75023 0.37293 0.33789 0.0
C2965 C 0.74114 0.38393 0.32969 0.0
C2966 C 0.73288 0.37953 0.31608 0.0
C2967 C 0.73369 0.3642 0.31048 0.0
C2968 C 0.74281 0.35323 0.31847 0.0
C2969 C 0.75108 0.35755 0.33209 0.0
H2970 H 0.72729 0.36082 0.29994 0.0
H2971 H 0.80811 0.40398 0.43154 0.0
H2972 H 0.90517 0.43528 0.62031 0.0
H2973 H 0.90723 0.46373 0.62269 0.0
H2974 H 0.85617 0.46653 0.62515 0.0
H2975 H 0.85396 0.43805 0.62287 0.0
H2976 H 0.87015 0.48813 0.60412 0.0
H2977 H 0.875 0.47254 0.65762 0.0
H2978 H 0.88527 0.45745 0.67995 0.0
H2979 H 0.9325 0.47469 0.67085 0.0
H2980 H 0.92249 0.48993 0.64846 0.0
H2981 H 0.87264 0.56861 0.63066 0.0
H2982 H 0.86692 0.54075 0.62624 0.0
H2983 H 0.91715 0.53137 0.62717 0.0
H2984 H 0.92295 0.55899 0.63174 0.0
H2985 H 0.90109 0.51311 0.64732 0.0
H2986 H 0.89565 0.52887 0.59334 0.0
H2987 H 0.8847 0.54415 0.57145 0.0
H2988 H 0.83781 0.52659 0.58163 0.0
H2989 H 0.84846 0.51135 0.60373 0.0
C2990 C 0.89438 0.44193 0.62141 0.0
C2991 C 0.87941 0.43441 0.62143 0.0
C2992 C 0.89558 0.45816 0.62279 0.0
C2993 C 0.88184 0.46716 0.62413 0.0
C2994 C 0.86688 0.45975 0.6241 0.0
C2995 C 0.86567 0.44348 0.62289 0.0
C2996 C 0.88323 0.48435 0.62551 0.0
C2997 C 0.8767 0.49367 0.61367 0.0
C2998 C 0.89191 0.49144 0.63788 0.0
C2999 C 0.89802 0.48226 0.65128 0.0
C3000 C 0.8876 0.47301 0.66031 0.0
C3001 C 0.89336 0.46446 0.67299 0.0
C3002 C 0.90954 0.46503 0.67676 0.0
C3003 C 0.91998 0.47424 0.6679 0.0
C3004 C 0.91426 0.48288 0.65524 0.0
C3005 C 0.88246 0.56064 0.62963 0.0
C3006 C 0.89823 0.56597 0.63173 0.0
C3007 C 0.87918 0.54474 0.62709 0.0
C3008 C 0.89163 0.53401 0.62646 0.0
C3009 C 0.90738 0.53945 0.62775 0.0
C3010 C 0.91066 0.55526 0.63034 0.0
C3011 C 0.88838 0.51697 0.62571 0.0
C3012 C 0.89449 0.50764 0.63776 0.0
C3013 C 0.87924 0.50993 0.61356 0.0
C3014 C 0.87283 0.51911 0.6003 0.0
C3015 C 0.88298 0.52838 0.59101 0.0
C3016 C 0.87684 0.53701 0.57854 0.0
C3017 C 0.86056 0.53638 0.57518 0.0
C3018 C 0.85041 0.52708 0.58426 0.0
C3019 C 0.8565 0.51844 0.59675 0.0
H3020 H 0.85583 0.54306 0.56552 0.0
H3021 H 0.91399 0.45838 0.68658 0.0
H3022 H 0.59545 0.54622 0.1112 0.0
H3023 H 0.58801 0.51849 0.11138 0.0
H3024 H 0.63753 0.50617 0.11064 0.0
H3025 H 0.64509 0.53391 0.11028 0.0
H3026 H 0.61927 0.4872 0.09138 0.0
H3027 H 0.61827 0.50612 0.14452 0.0
H3028 H 0.61037 0.52378 0.1659 0.0
H3029 H 0.56132 0.51135 0.15807 0.0
H3030 H 0.56892 0.49378 0.13648 0.0
H3031 H 0.61502 0.41075 0.12421 0.0
H3032 H 0.62046 0.43784 0.1168 0.0
H3033 H 0.57052 0.44797 0.12025 0.0
H3034 H 0.56499 0.42098 0.12793 0.0
H3035 H 0.58796 0.46822 0.13678 0.0
H3036 H 0.58941 0.44747 0.08471 0.0
H3037 H 0.59773 0.42967 0.06363 0.0
H3038 H 0.6462 0.44509 0.06962 0.0
H3039 H 0.6382 0.46284 0.0909 0.0
C3040 C 0.60476 0.53761 0.11096 0.0
C3041 C 0.62086 0.54223 0.11088 0.0
C3042 C 0.60049 0.52179 0.11107 0.0
C3043 C 0.61223 0.51032 0.1112 0.0
C3044 C 0.6283 0.51487 0.11054 0.0
C3045 C 0.63259 0.53071 0.11042 0.0
C3046 C 0.60778 0.49363 0.11288 0.0
C3047 C 0.61254 0.48298 0.10135 0.0
C3048 C 0.59874 0.48826 0.12576 0.0
C3049 C 0.59415 0.49877 0.13877 0.0
C3050 C 0.60579 0.50725 0.14727 0.0
C3051 C 0.60137 0.51723 0.15944 0.0
C3052 C 0.58535 0.51872 0.16331 0.0
C3053 C 0.57372 0.51021 0.15504 0.0
C3054 C 0.57808 0.50023 0.14284 0.0
C3055 C 0.60515 0.41866 0.12316 0.0
C3056 C 0.58959 0.41373 0.12681 0.0
C3057 C 0.60827 0.43414 0.11884 0.0
C3058 C 0.59588 0.4449 0.11791 0.0
C3059 C 0.58026 0.43985 0.12092 0.0
C3060 C 0.57712 0.42441 0.12531 0.0
C3061 C 0.59938 0.46169 0.11524 0.0
C3062 C 0.59453 0.47239 0.12668 0.0
C3063 C 0.60837 0.46705 0.10231 0.0
C3064 C 0.61322 0.45639 0.08951 0.0
C3065 C 0.60186 0.44698 0.08163 0.0
C3066 C 0.60652 0.43691 0.06962 0.0
C3067 C 0.62249 0.43622 0.06532 0.0
C3068 C 0.63383 0.44563 0.07298 0.0
C3069 C 0.62924 0.4557 0.08501 0.0
H3070 H 0.62606 0.42842 0.05602 0.0
H3071 H 0.58195 0.52644 0.17274 0.0
H3072 H 0.63843 0.70599 0.87019 0.0
H3073 H 0.64485 0.73382 0.87274 0.0
H3074 H 0.64221 0.73017 0.92305 0.0
H3075 H 0.63573 0.70227 0.92061 0.0
H3076 H 0.62389 0.75334 0.91154 0.0
H3077 H 0.6775 0.73783 0.90671 0.0
H3078 H 0.70011 0.72369 0.89554 0.0
H3079 H 0.69415 0.74786 0.85194 0.0
H3080 H 0.67134 0.76198 0.86275 0.0
H3081 H 0.63355 0.83527 0.90941 0.0
H3082 H 0.64187 0.80891 0.91666 0.0
H3083 H 0.64525 0.79658 0.86776 0.0
H3084 H 0.63724 0.82279 0.86045 0.0
H3085 H 0.66777 0.78193 0.88492 0.0
H3086 H 0.61074 0.79101 0.8872 0.0
H3087 H 0.58691 0.80438 0.89684 0.0
H3088 H 0.59864 0.79143 0.94403 0.0
H3089 H 0.62267 0.77815 0.93466 0.0
C3090 C 0.63942 0.71105 0.88181 0.0
C3091 C 0.63648 0.70198 0.89519 0.0
C3092 C 0.64321 0.72693 0.88326 0.0
C3093 C 0.64416 0.734 0.8981 0.0
C3094 C 0.64162 0.72489 0.91151 0.0
C3095 C 0.63791 0.70897 0.91008 0.0
C3096 C 0.64612 0.75118 0.89938 0.0
C3097 C 0.63374 0.7596 0.90614 0.0
C3098 C 0.65883 0.7593 0.8921 0.0
C3099 C 0.67264 0.75093 0.88554 0.0
C3100 C 0.68094 0.74007 0.8947 0.0
C3101 C 0.6938 0.73206 0.88844 0.0
C3102 C 0.69856 0.73486 0.87303 0.0
C3103 C 0.69047 0.7457 0.86387 0.0
C3104 C 0.67758 0.75373 0.87007 0.0
C3105 C 0.63647 0.82706 0.90022 0.0
C3106 C 0.63444 0.83099 0.88436 0.0
C3107 C 0.6412 0.81201 0.90438 0.0
C3108 C 0.64391 0.80074 0.89273 0.0
C3109 C 0.64319 0.80508 0.87693 0.0
C3110 C 0.63847 0.82005 0.87278 0.0
C3111 C 0.64531 0.78398 0.89666 0.0
C3112 C 0.65825 0.77564 0.89082 0.0
C3113 C 0.63303 0.77587 0.90465 0.0
C3114 C 0.61859 0.78379 0.91027 0.0
C3115 C 0.60829 0.79112 0.89964 0.0
C3116 C 0.59475 0.79867 0.90505 0.0
C3117 C 0.59129 0.7988 0.92104 0.0
C3118 C 0.60135 0.79135 0.93165 0.0
C3119 C 0.61493 0.78382 0.9263 0.0
H3120 H 0.5808 0.80464 0.92521 0.0
H3121 H 0.70852 0.72865 0.8682 0.0
H3122 H 0.5596 0.34001 0.10112 0.0
H3123 H 0.53238 0.33417 0.09225 0.0
H3124 H 0.51673 0.33305 0.14031 0.0
H3125 H 0.5438 0.33834 0.1492 0.0
H3126 H 0.50116 0.31169 0.12424 0.0
H3127 H 0.51434 0.36639 0.11758 0.0
H3128 H 0.52991 0.38883 0.10752 0.0
H3129 H 0.51937 0.37452 0.06028 0.0
H3130 H 0.50391 0.35185 0.07009 0.0
H3131 H 0.4218 0.33923 0.1212 0.0
H3132 H 0.45054 0.33703 0.12528 0.0
H3133 H 0.45669 0.32741 0.07609 0.0
H3134 H 0.42798 0.3293 0.07194 0.0
H3135 H 0.47738 0.35155 0.08948 0.0
H3136 H 0.46011 0.29852 0.09817 0.0
H3137 H 0.44353 0.27777 0.11009 0.0
H3138 H 0.46083 0.29087 0.15576 0.0
H3139 H 0.47727 0.31192 0.14415 0.0
C3140 C 0.55038 0.33824 0.10977 0.0
C3141 C 0.55377 0.33984 0.12584 0.0
C3142 C 0.53485 0.33497 0.1047 0.0
C3143 C 0.52249 0.33348 0.11562 0.0
C3144 C 0.52606 0.33418 0.13167 0.0
C3145 C 0.54155 0.33729 0.13673 0.0
C3146 C 0.50566 0.3324 0.11052 0.0
C3147 C 0.49596 0.32042 0.11666 0.0
C3148 C 0.4989 0.34369 0.10047 0.0
C3149 C 0.50815 0.35732 0.09456 0.0
C3150 C 0.51545 0.36796 0.10505 0.0
C3151 C 0.52424 0.38073 0.0994 0.0
C3152 C 0.52567 0.38307 0.08327 0.0
C3153 C 0.51828 0.37267 0.07277 0.0
C3154 C 0.50951 0.35986 0.07836 0.0
C3155 C 0.42928 0.33661 0.11128 0.0
C3156 C 0.42269 0.33442 0.09627 0.0
C3157 C 0.44564 0.3353 0.11363 0.0
C3158 C 0.45562 0.33197 0.10098 0.0
C3159 C 0.44911 0.32993 0.08597 0.0
C3160 C 0.43274 0.33099 0.08365 0.0
C3161 C 0.47294 0.33104 0.10343 0.0
C3162 C 0.48267 0.34266 0.09681 0.0
C3163 C 0.47964 0.31962 0.11328 0.0
C3164 C 0.46984 0.30689 0.12029 0.0
C3165 C 0.46027 0.29708 0.11077 0.0
C3166 C 0.45092 0.28525 0.11747 0.0
C3167 C 0.45112 0.28302 0.13367 0.0
C3168 C 0.46068 0.29262 0.14321 0.0
C3169 C 0.47003 0.30449 0.13657 0.0
H3170 H 0.4439 0.27383 0.13884 0.0
H3171 H 0.53248 0.39297 0.07891 0.0
H3172 H 0.8507 0.16358 0.35573 0.0
H3173 H 0.8446 0.19077 0.36148 0.0
H3174 H 0.85168 0.18229 0.4108 0.0
H3175 H 0.85794 0.155 0.40514 0.0
H3176 H 0.82428 0.20804 0.3797 0.0
H3177 H 0.87574 0.2124 0.42431 0.0
H3178 H 0.90058 0.19895 0.43116 0.0
H3179 H 0.90502 0.18308 0.38364 0.0
H3180 H 0.88033 0.19659 0.37649 0.0
H3181 H 0.86148 0.2859 0.41493 0.0
H3182 H 0.85486 0.25804 0.41617 0.0
H3183 H 0.84614 0.25738 0.36632 0.0
H3184 H 0.85262 0.28533 0.36498 0.0
H3185 H 0.87162 0.23591 0.40157 0.0
H3186 H 0.81918 0.22836 0.35755 0.0
H3187 H 0.79546 0.24272 0.34902 0.0
H3188 H 0.79401 0.2663 0.39346 0.0
H3189 H 0.81757 0.25192 0.40234 0.0
C3190 C 0.85061 0.16738 0.36785 0.0
C3191 C 0.8551 0.15723 0.37996 0.0
C3192 C 0.84702 0.18291 0.37111 0.0
C3193 C 0.84795 0.18855 0.38652 0.0
C3194 C 0.85107 0.17814 0.3988 0.0
C3195 C 0.85461 0.16256 0.39555 0.0
C3196 C 0.84782 0.20561 0.38933 0.0
C3197 C 0.83459 0.21419 0.38451 0.0
C3198 C 0.86124 0.21353 0.39576 0.0
C3199 C 0.87607 0.2053 0.39994 0.0
C3200 C 0.88202 0.20603 0.41534 0.0
C3201 C 0.89608 0.19841 0.41927 0.0
C3202 C 0.90434 0.19011 0.40786 0.0
C3203 C 0.89857 0.18944 0.39249 0.0
C3204 C 0.88453 0.19706 0.3885 0.0
C3205 C 0.85793 0.27989 0.40425 0.0
C3206 C 0.85769 0.28776 0.38982 0.0
C3207 C 0.85413 0.26398 0.40501 0.0
C3208 C 0.84993 0.25569 0.39138 0.0
C3209 C 0.84911 0.26363 0.37703 0.0
C3210 C 0.85292 0.27957 0.37626 0.0
C3211 C 0.84811 0.23847 0.39185 0.0
C3212 C 0.86109 0.22982 0.39718 0.0
C3213 C 0.83454 0.23057 0.38572 0.0
C3214 C 0.82023 0.23913 0.38056 0.0
C3215 C 0.81375 0.23655 0.36553 0.0
C3216 C 0.80034 0.2447 0.36063 0.0
C3217 C 0.79326 0.25544 0.37068 0.0
C3218 C 0.79954 0.25802 0.38566 0.0
C3219 C 0.81294 0.24988 0.39063 0.0
H3220 H 0.78289 0.26175 0.36686 0.0
H3221 H 0.91522 0.18423 0.41092 0.0
H3222 H 0.94758 0.63834 0.65403 0.0
H3223 H 0.97528 0.64393 0.64819 0.0
H3224 H 0.96415 0.64528 0.59879 0.0
H3225 H 0.9362 0.63911 0.60458 0.0
H3226 H 0.98976 0.62866 0.60371 0.0
H3227 H 0.97297 0.67905 0.61991 0.0
H3228 H 0.96015 0.69851 0.63683 0.0
H3229 H 0.99238 0.68771 0.6743 0.0
H3230 H 0.00526 0.66801 0.65768 0.0
H3231 H 0.06347 0.66476 0.5831 0.0
H3232 H 0.03528 0.66061 0.58843 0.0
H3233 H 0.04652 0.64644 0.63559 0.0
H3234 H 0.07501 0.65027 0.63025 0.0
H3235 H 0.02101 0.67025 0.63115 0.0
H3236 H 0.03717 0.61911 0.61397 0.0
H3237 H 0.04996 0.6006 0.59599 0.0
H3238 H 0.01858 0.61442 0.55886 0.0
H3239 H 0.00576 0.63322 0.57657 0.0
C3240 C 0.95094 0.63995 0.64191 0.0
C3241 C 0.93971 0.63829 0.62974 0.0
C3242 C 0.96681 0.64324 0.6386 0.0
C3243 C 0.97175 0.64527 0.62308 0.0
C3244 C 0.96055 0.64381 0.61087 0.0
C3245 C 0.94461 0.64034 0.61418 0.0
C3246 C 0.98879 0.64816 0.61973 0.0
C3247 C -0.00349 0.63793 0.60951 0.0
C3248 C -0.00232 0.66007 0.62755 0.0
C3249 C 0.99 0.67196 0.63758 0.0
C3250 C 0.97725 0.68074 0.63179 0.0
C3251 C 0.96998 0.69183 0.64133 0.0
C3252 C 0.97542 0.69432 0.65664 0.0
C3253 C 0.98817 0.68576 0.66244 0.0
C3254 C 0.99548 0.67464 0.65296 0.0
C3255 C 0.05998 0.66079 0.59463 0.0
C3256 C 0.07142 0.65784 0.60629 0.0
C3257 C 0.04389 0.65839 0.59762 0.0
C3258 C 0.03893 0.65319 0.61235 0.0
C3259 C 0.05023 0.65045 0.62414 0.0
C3260 C 0.06643 0.6526 0.62107 0.0
C3261 C 0.02185 0.65069 0.6153 0.0
C3262 C 0.01416 0.66102 0.62538 0.0
C3263 C 0.01297 0.63903 0.60721 0.0
C3264 C 0.02062 0.6277 0.59655 0.0
C3265 C 0.0331 0.61832 0.60193 0.0
C3266 C 0.04033 0.60775 0.5918 0.0
C3267 C 0.03512 0.60637 0.57628 0.0
C3268 C 0.02262 0.61553 0.57088 0.0
C3269 C 0.01536 0.62613 0.58096 0.0
H3270 H 0.04073 0.59817 0.56845 0.0
H3271 H 0.96978 0.70291 0.664 0.0
H3272 H 0.61563 0.30514 0.59076 0.0
H3273 H 0.61421 0.2767 0.59207 0.0
H3274 H 0.61888 0.27894 0.64241 0.0
H3275 H 0.62096 0.30748 0.64112 0.0
H3276 H 0.63699 0.25715 0.63162 0.0
H3277 H 0.58252 0.27107 0.62315 0.0
H3278 H 0.5601 0.28372 0.60975 0.0
H3279 H 0.56975 0.25778 0.56782 0.0
H3280 H 0.59237 0.24511 0.58091 0.0
H3281 H 0.60217 0.1857 0.65472 0.0
H3282 H 0.60784 0.213 0.64859 0.0
H3283 H 0.61486 0.20083 0.60008 0.0
H3284 H 0.60941 0.17314 0.60622 0.0
H3285 H 0.59289 0.22664 0.60684 0.0
H3286 H 0.64603 0.21046 0.61792 0.0
H3287 H 0.66689 0.19736 0.63319 0.0
H3288 H 0.65788 0.22736 0.67247 0.0
H3289 H 0.6368 0.2405 0.65751 0.0
C3290 C 0.61623 0.2996 0.60214 0.0
C3291 C 0.61832 0.30855 0.61587 0.0
C3292 C 0.61539 0.28333 0.60286 0.0
C3293 C 0.61623 0.27569 0.61735 0.0
C3294 C 0.61822 0.2846 0.63109 0.0
C3295 C 0.61933 0.30089 0.63036 0.0
C3296 C 0.61528 0.2584 0.61816 0.0
C3297 C 0.62727 0.25051 0.6263 0.0
C3298 C 0.60283 0.24968 0.61086 0.0
C3299 C 0.58925 0.25729 0.60296 0.0
C3300 C 0.57994 0.26816 0.61103 0.0
C3301 C 0.56718 0.27531 0.6035 0.0
C3302 C 0.56353 0.27159 0.58793 0.0
C3303 C 0.57261 0.26067 0.57987 0.0
C3304 C 0.58539 0.2535 0.58734 0.0
C3305 C 0.60499 0.18877 0.64274 0.0
C3306 C 0.60531 0.17733 0.63091 0.0
C3307 C 0.6083 0.20436 0.6393 0.0
C3308 C 0.61184 0.20883 0.62394 0.0
C3309 C 0.61221 0.1975 0.61203 0.0
C3310 C 0.60914 0.18176 0.61553 0.0
C3311 C 0.61441 0.22555 0.62049 0.0
C3312 C 0.60272 0.23332 0.6119 0.0
C3313 C 0.62696 0.23418 0.62762 0.0
C3314 C 0.63975 0.2264 0.63661 0.0
C3315 C 0.64841 0.21419 0.62985 0.0
C3316 C 0.6603 0.20677 0.63844 0.0
C3317 C 0.66369 0.21151 0.65379 0.0
C3318 C 0.65524 0.2237 0.66057 0.0
C3319 C 0.64333 0.23116 0.65203 0.0
H3320 H 0.67289 0.20574 0.66043 0.0
H3321 H 0.55365 0.27714 0.58212 0.0
H3322 H 0.07521 0.37077 0.84985 0.0
H3323 H 0.0478 0.37921 0.84718 0.0
H3324 H 0.04009 0.3707 0.89637 0.0
H3325 H 0.06746 0.36192 0.8991 0.0
H3326 H 0.01732 0.35757 0.87969 0.0
H3327 H 0.04054 0.40819 0.88193 0.0
H3328 H 0.05942 0.42962 0.87584 0.0
H3329 H 0.04369 0.42923 0.8279 0.0
H3330 H 0.02488 0.40763 0.83363 0.0
H3331 H 0.93789 0.38352 0.86496 0.0
H3332 H 0.9647 0.38445 0.87644 0.0
H3333 H 0.98494 0.38318 0.83016 0.0
H3334 H 0.95836 0.38209 0.81863 0.0
H3335 H 0.00024 0.40487 0.851 0.0
H3336 H 0.9814 0.35051 0.84882 0.0
H3337 H 0.96256 0.32912 0.85522 0.0
H3338 H 0.97026 0.33748 0.90433 0.0
H3339 H 0.98899 0.35908 0.89819 0.0
C3340 C 0.06776 0.37085 0.86015 0.0
C3341 C 0.07349 0.36558 0.87466 0.0
C3342 C 0.05211 0.3758 0.85863 0.0
C3343 C 0.04195 0.37577 0.87163 0.0
C3344 C 0.04775 0.37086 0.88622 0.0
C3345 C 0.06339 0.36584 0.88773 0.0
C3346 C 0.02495 0.3795 0.86955 0.0
C3347 C 0.01357 0.36813 0.8738 0.0
C3348 C 0.02004 0.3932 0.86176 0.0
C3349 C 0.03134 0.40621 0.85821 0.0
C3350 C 0.04118 0.41259 0.87006 0.0
C3351 C 0.05186 0.42479 0.86667 0.0
C3352 C 0.05276 0.43077 0.85149 0.0
C3353 C 0.04297 0.42458 0.83966 0.0
C3354 C 0.03228 0.41238 0.84298 0.0
C3355 C 0.94807 0.38359 0.85725 0.0
C3356 C 0.94605 0.38257 0.84091 0.0
C3357 C 0.96333 0.38414 0.86381 0.0
C3358 C 0.97672 0.38386 0.85411 0.0
C3359 C 0.97472 0.38347 0.83781 0.0
C3360 C 0.95953 0.38271 0.83126 0.0
C3361 C 0.99289 0.38275 0.86073 0.0
C3362 C 0.00405 0.39457 0.85731 0.0
C3363 C -0.00239 0.36953 0.86938 0.0
C3364 C 0.98641 0.35653 0.87305 0.0
C3365 C 0.97896 0.34788 0.86098 0.0
C3366 C 0.96833 0.3357 0.86455 0.0
C3367 C 0.96517 0.33198 0.88017 0.0
C3368 C 0.97268 0.3404 0.89224 0.0
C3369 C 0.98331 0.35261 0.88872 0.0
H3370 H 0.95694 0.32254 0.88292 0.0
H3371 H 0.06104 0.44021 0.84889 0.0
H3372 H 0.85446 0.69109 0.14325 0.0
H3373 H 0.85693 0.71966 0.14503 0.0
H3374 H 0.89248 0.71935 0.10882 0.0
H3375 H 0.88991 0.69105 0.10676 0.0
H3376 H 0.88065 0.73902 0.1523 0.0
H3377 H 0.88906 0.75011 0.08531 0.0
H3378 H 0.87965 0.73878 0.06026 0.0
H3379 H 0.83831 0.71982 0.08303 0.0
H3380 H 0.84733 0.73123 0.10817 0.0
H3381 H 0.92274 0.80809 0.13975 0.0
H3382 H 0.91286 0.78119 0.138 0.0
H3383 H 0.86865 0.7973 0.11844 0.0
H3384 H 0.87859 0.82438 0.11995 0.0
H3385 H 0.87816 0.77115 0.10402 0.0
H3386 H 0.86994 0.78748 0.1562 0.0
H3387 H 0.87672 0.79951 0.18171 0.0
H3388 H 0.91216 0.76476 0.18954 0.0
H3389 H 0.9058 0.75267 0.16395 0.0
C3390 C 0.86285 0.69713 0.13574 0.0
C3391 C 0.87189 0.68883 0.12478 0.0
C3392 C 0.86422 0.71343 0.13674 0.0
C3393 C 0.87463 0.72164 0.12681 0.0
C3394 C 0.88406 0.7133 0.1163 0.0
C3395 C 0.88264 0.69709 0.11521 0.0
C3396 C 0.87596 0.73891 0.12747 0.0
C3397 C 0.87999 0.74606 0.14177 0.0
C3398 C 0.87458 0.74817 0.11381 0.0
C3399 C 0.86895 0.74145 0.09866 0.0
C3400 C 0.87792 0.74361 0.08496 0.0
C3401 C 0.87266 0.73715 0.07075 0.0
C3402 C 0.85841 0.72856 0.07007 0.0
C3403 C 0.84937 0.72644 0.08359 0.0
C3404 C 0.85456 0.73288 0.09782 0.0
C3405 C 0.91098 0.80592 0.13492 0.0
C3406 C 0.90139 0.81833 0.1301 0.0
C3407 C 0.90531 0.79055 0.13402 0.0
C3408 C 0.88989 0.78731 0.12844 0.0
C3409 C 0.88054 0.79959 0.1229 0.0
C3410 C 0.88625 0.81503 0.12374 0.0
C3411 C 0.88362 0.77106 0.12868 0.0
C3412 C 0.8786 0.76413 0.11457 0.0
C3413 C 0.88365 0.7621 0.1426 0.0
C3414 C 0.88745 0.76922 0.1581 0.0
C3415 C 0.87925 0.78246 0.16331 0.0
C3416 C 0.88302 0.78929 0.17779 0.0
C3417 C 0.89488 0.78291 0.18723 0.0
C3418 C 0.90298 0.76968 0.18222 0.0
C3419 C 0.89928 0.76282 0.16773 0.0
H3420 H 0.89777 0.78822 0.19844 0.0
H3421 H 0.85437 0.72355 0.05905 0.0
H3422 H 0.41073 0.61602 0.39941 0.0
H3423 H 0.43788 0.60932 0.39233 0.0
H3424 H 0.42821 0.62181 0.34431 0.0
H3425 H 0.40082 0.62796 0.35122 0.0
H3426 H 0.44946 0.59868 0.34565 0.0
H3427 H 0.44245 0.64905 0.37058 0.0
H3428 H 0.4337 0.66654 0.39178 0.0
H3429 H 0.46417 0.64309 0.42437 0.0
H3430 H 0.47294 0.62532 0.40338 0.0
H3431 H 0.51945 0.63527 0.31843 0.0
H3432 H 0.49289 0.62844 0.32766 0.0
H3433 H 0.51266 0.6123 0.37134 0.0
H3434 H 0.53945 0.61904 0.36216 0.0
H3435 H 0.48758 0.63301 0.37475 0.0
H3436 H 0.49824 0.58585 0.34724 0.0
H3437 H 0.50706 0.56977 0.325 0.0
H3438 H 0.47006 0.58852 0.29611 0.0
H3439 H 0.46115 0.6049 0.31811 0.0
C3440 C 0.41428 0.61693 0.38726 0.0
C3441 C 0.4038 0.62276 0.37589 0.0
C3442 C 0.42978 0.61312 0.38325 0.0
C3443 C 0.43516 0.6155 0.3679 0.0
C3444 C 0.42431 0.61998 0.35625 0.0
C3445 C 0.40868 0.62352 0.36021 0.0
C3446 C 0.45237 0.61537 0.36443 0.0
C3447 C 0.45781 0.60617 0.35198 0.0
C3448 C 0.4633 0.62497 0.3729 0.0
C3449 C 0.4582 0.63576 0.38547 0.0
C3450 C 0.44721 0.64758 0.38229 0.0
C3451 C 0.44225 0.65754 0.39426 0.0
C3452 C 0.44834 0.6559 0.40942 0.0
C3453 C 0.45944 0.64432 0.41263 0.0
C3454 C 0.46441 0.63431 0.4007 0.0
C3455 C 0.5182 0.63023 0.33 0.0
C3456 C 0.53156 0.62775 0.3396 0.0
C3457 C 0.50302 0.62621 0.33519 0.0
C3458 C 0.50088 0.61969 0.35008 0.0
C3459 C 0.51413 0.61721 0.35975 0.0
C3460 C 0.52939 0.62109 0.35449 0.0
C3461 C 0.48463 0.61652 0.35582 0.0
C3462 C 0.47934 0.62519 0.36865 0.0
C3463 C 0.47386 0.6066 0.34757 0.0
C3464 C 0.47909 0.59668 0.33432 0.0
C3465 C 0.49205 0.58664 0.33611 0.0
C3466 C 0.49706 0.57745 0.32356 0.0
C3467 C 0.48914 0.57814 0.30915 0.0
C3468 C 0.47618 0.58799 0.30728 0.0
C3469 C 0.47113 0.59722 0.3198 0.0
H3470 H 0.49304 0.57102 0.29944 0.0
H3471 H 0.44449 0.66361 0.41868 0.0
H3472 H 0.84608 0.62537 0.82563 0.0
H3473 H 0.84935 0.62792 0.79735 0.0
H3474 H 0.89834 0.61426 0.80181 0.0
H3475 H 0.8953 0.61224 0.83019 0.0
H3476 H 0.89577 0.63639 0.7807 0.0
H3477 H 0.86757 0.5878 0.79166 0.0
H3478 H 0.8457 0.5718 0.80264 0.0
H3479 H 0.81192 0.59673 0.77473 0.0
H3480 H 0.83359 0.613 0.76371 0.0
H3481 H 0.91514 0.60167 0.70995 0.0
H3482 H 0.90703 0.60527 0.73698 0.0
H3483 H 0.86315 0.62569 0.72143 0.0
H3484 H 0.8712 0.62218 0.69406 0.0
H3485 H 0.8602 0.60375 0.74693 0.0
H3486 H 0.8897 0.64989 0.73335 0.0
H3487 H 0.91219 0.66473 0.72206 0.0
H3488 H 0.94415 0.64347 0.75479 0.0
H3489 H 0.92187 0.6283 0.76612 0.0
C3490 C 0.8576 0.62307 0.8206 0.0
C3491 C 0.87041 0.61844 0.83008 0.0
C3492 C 0.85943 0.62448 0.80444 0.0
C3493 C 0.87398 0.62093 0.79744 0.0
C3494 C 0.88698 0.61699 0.80696 0.0
C3495 C 0.88523 0.61582 0.82317 0.0
C3496 C 0.87556 0.62062 0.78017 0.0
C3497 C 0.88804 0.6292 0.77334 0.0
C3498 C 0.86517 0.61159 0.77049 0.0
C3499 C 0.85217 0.60172 0.777 0.0
C3500 C 0.85546 0.58992 0.78794 0.0
C3501 C 0.84311 0.5808 0.79416 0.0
C3502 C 0.82743 0.58328 0.78942 0.0
C3503 C 0.82407 0.59485 0.77841 0.0
C3504 C 0.83638 0.60401 0.77217 0.0
C3505 C 0.90369 0.60682 0.71218 0.0
C3506 C 0.89388 0.61179 0.69982 0.0
C3507 C 0.89911 0.6089 0.72766 0.0
C3508 C 0.88465 0.61599 0.73113 0.0
C3509 C 0.87442 0.6203 0.71891 0.0
C3510 C 0.87904 0.61827 0.70332 0.0
C3511 C 0.88065 0.61917 0.74763 0.0
C3512 C 0.86774 0.61115 0.75429 0.0
C3513 C 0.8907 0.62863 0.75717 0.0
C3514 C 0.90411 0.63788 0.75052 0.0
C3515 C 0.90153 0.64829 0.73807 0.0
C3516 C 0.91424 0.65678 0.73167 0.0
C3517 C 0.92959 0.65503 0.73769 0.0
C3518 C 0.93225 0.64481 0.75014 0.0
C3519 C 0.91958 0.63628 0.75657 0.0
H3520 H 0.93942 0.6616 0.73271 0.0
H3521 H 0.81788 0.57621 0.79426 0.0
H3522 H 0.60678 0.5917 0.06652 0.0
H3523 H 0.60335 0.59176 0.03809 0.0
H3524 H 0.61612 0.64081 0.03697 0.0
H3525 H 0.61907 0.64096 0.06546 0.0
H3526 H 0.59435 0.6345 0.01535 0.0
H3527 H 0.64403 0.61224 0.03147 0.0
H3528 H 0.66112 0.59398 0.04591 0.0
H3529 H 0.63846 0.55506 0.02245 0.0
H3530 H 0.62109 0.5731 0.00802 0.0
H3531 H 0.63112 0.64417 0.94272 0.0
H3532 H 0.62833 0.63992 0.97076 0.0
H3533 H 0.6047 0.59566 0.9619 0.0
H3534 H 0.6072 0.59987 0.9336 0.0
H3535 H 0.62929 0.59721 0.9878 0.0
H3536 H 0.58146 0.62157 0.96935 0.0
H3537 H 0.56655 0.6413 0.95453 0.0
H3538 H 0.58813 0.67792 0.98228 0.0
H3539 H 0.60338 0.65841 -0.00291 0.0
C3540 C 0.60852 0.60258 0.06024 0.0
C3541 C 0.61341 0.61628 0.06816 0.0
C3542 C 0.60663 0.60257 0.044 0.0
C3543 C 0.60991 0.61618 0.0354 0.0
C3544 C 0.61363 0.63015 0.04339 0.0
C3545 C 0.61531 0.63022 0.05967 0.0
C3546 C 0.61078 0.61561 0.01809 0.0
C3547 C 0.60201 0.62637 0.00934 0.0
C3548 C 0.62065 0.60486 0.01023 0.0
C3549 C 0.63115 0.594 0.01881 0.0
C3550 C 0.64262 0.59978 0.02947 0.0
C3551 C 0.65236 0.58947 0.03765 0.0
C3552 C 0.65084 0.57336 0.03514 0.0
C3553 C 0.6396 0.56753 0.02441 0.0
C3554 C 0.62981 0.57779 0.01622 0.0
C3555 C 0.62554 0.63339 0.94665 0.0
C3556 C 0.61924 0.62241 0.93589 0.0
C3557 C 0.62392 0.63103 0.9627 0.0
C3558 C 0.61612 0.61761 0.96829 0.0
C3559 C 0.61068 0.60613 0.95771 0.0
C3560 C 0.61213 0.60856 0.94158 0.0
C3561 C 0.61299 0.61616 0.9852 0.0
C3562 C 0.6214 0.60509 0.99383 0.0
C3563 C 0.603 0.62678 0.99297 0.0
C3564 C 0.59366 0.63853 0.98425 0.0
C3565 C 0.58312 0.63384 0.97221 0.0
C3566 C 0.57459 0.64498 0.96383 0.0
C3567 C 0.57641 0.66086 0.96744 0.0
C3568 C 0.58674 0.66561 0.97949 0.0
C3569 C 0.59531 0.65452 0.98789 0.0
H3570 H 0.56981 0.66947 0.96094 0.0
H3571 H 0.65839 0.5654 0.04147 0.0
H3572 H 0.6186 0.38073 0.19173 0.0
H3573 H 0.62762 0.38636 0.21848 0.0
H3574 H 0.58003 0.37782 0.23543 0.0
H3575 H 0.57085 0.37292 0.20871 0.0
H3576 H 0.59101 0.40245 0.24864 0.0
H3577 H 0.6116 0.3512 0.24034 0.0
H3578 H 0.62658 0.33065 0.22681 0.0
H3579 H 0.6698 0.35741 0.23281 0.0
H3580 H 0.65503 0.37822 0.2462 0.0
H3581 H 0.61129 0.39462 0.32964 0.0
H3582 H 0.6029 0.38856 0.30273 0.0
H3583 H 0.64703 0.40788 0.28539 0.0
H3584 H 0.65544 0.41414 0.31218 0.0
H3585 H 0.6382 0.37783 0.27272 0.0
H3586 H 0.61623 0.42898 0.28155 0.0
H3587 H 0.60046 0.44832 0.29595 0.0
H3588 H 0.55855 0.41961 0.28987 0.0
H3589 H 0.57413 0.39998 0.27562 0.0
C3590 C 0.61011 0.38 0.20119 0.0
C3591 C 0.59403 0.37642 0.19815 0.0
C3592 C 0.61528 0.38313 0.21648 0.0
C3593 C 0.60454 0.38233 0.22902 0.0
C3594 C 0.58852 0.37857 0.22597 0.0
C3595 C 0.5833 0.37575 0.21068 0.0
C3596 C 0.60979 0.38589 0.24528 0.0
C3597 C 0.6012 0.39687 0.25394 0.0
C3598 C 0.62326 0.37885 0.25216 0.0
C3599 C 0.63218 0.36634 0.24413 0.0
C3600 C 0.62428 0.35276 0.23867 0.0
C3601 C 0.63273 0.34105 0.23104 0.0
C3602 C 0.64912 0.34275 0.22891 0.0
C3603 C 0.6571 0.35613 0.23445 0.0
C3604 C 0.6487 0.36788 0.24207 0.0
C3605 C 0.61917 0.39762 0.32008 0.0
C3606 C 0.63399 0.40489 0.32298 0.0
C3607 C 0.61437 0.39416 0.30476 0.0
C3608 C 0.62437 0.39781 0.29215 0.0
C3609 C 0.6392 0.40496 0.29501 0.0
C3610 C 0.64392 0.4086 0.3103 0.0
C3611 C 0.61933 0.39423 0.27593 0.0
C3612 C 0.62799 0.38331 0.26733 0.0
C3613 C 0.60578 0.40111 0.26918 0.0
C3614 C 0.59638 0.41295 0.27766 0.0
C3615 C 0.60368 0.42673 0.2834 0.0
C3616 C 0.59477 0.43776 0.29151 0.0
C3617 C 0.57852 0.43517 0.29386 0.0
C3618 C 0.57114 0.42158 0.28807 0.0
C3619 C 0.58 0.41051 0.27996 0.0
H3620 H 0.57164 0.44372 0.30015 0.0
H3621 H 0.65565 0.33367 0.22301 0.0
H3622 H 0.84951 0.3889 0.55977 0.0
H3623 H 0.85559 0.38492 0.53224 0.0
H3624 H 0.8962 0.35739 0.54513 0.0
H3625 H 0.88979 0.36094 0.57291 0.0
H3626 H 0.87949 0.39358 0.51549 0.0
H3627 H 0.9027 0.33054 0.51593 0.0
H3628 H 0.8998 0.30622 0.53122 0.0
H3629 H 0.85308 0.31974 0.54541 0.0
H3630 H 0.85565 0.34403 0.53006 0.0
H3631 H 0.90352 0.37712 0.43747 0.0
H3632 H 0.904 0.37971 0.46605 0.0
H3633 H 0.86442 0.34717 0.46924 0.0
H3634 H 0.86431 0.34407 0.44089 0.0
H3635 H 0.88429 0.34108 0.4913 0.0
H3636 H 0.86023 0.38808 0.4715 0.0
H3637 H 0.85904 0.41222 0.45581 0.0
H3638 H 0.90038 0.43048 0.47975 0.0
H3639 H 0.9019 0.40636 0.49546 0.0
C3640 C 0.85971 0.38194 0.55677 0.0
C3641 C 0.86917 0.3752 0.56847 0.0
C3642 C 0.86322 0.37974 0.54102 0.0
C3643 C 0.87635 0.37086 0.5366 0.0
C3644 C 0.8859 0.36413 0.54826 0.0
C3645 C 0.88224 0.36617 0.56411 0.0
C3646 C 0.87977 0.36874 0.51973 0.0
C3647 C 0.88066 0.38209 0.51022 0.0
C3648 C 0.88119 0.35378 0.51283 0.0
C3649 C 0.87947 0.33918 0.52202 0.0
C3650 C 0.89181 0.3283 0.5223 0.0
C3651 C 0.89022 0.31452 0.53097 0.0
C3652 C 0.87629 0.31147 0.53933 0.0
C3653 C 0.8639 0.32215 0.53899 0.0
C3654 C 0.86542 0.33593 0.53032 0.0
C3655 C 0.89494 0.37053 0.4443 0.0
C3656 C 0.88383 0.36045 0.43695 0.0
C3657 C 0.89522 0.37202 0.46061 0.0
C3658 C 0.88414 0.36374 0.46979 0.0
C3659 C 0.87314 0.3536 0.46243 0.0
C3660 C 0.87304 0.35191 0.4462 0.0
C3661 C 0.88353 0.3659 0.48701 0.0
C3662 C 0.88335 0.35257 0.4966 0.0
C3663 C 0.88218 0.38087 0.49394 0.0
C3664 C 0.88129 0.39536 0.48451 0.0
C3665 C 0.86913 0.3972 0.47333 0.0
C3666 C 0.86839 0.41089 0.46445 0.0
C3667 C 0.87966 0.42286 0.46675 0.0
C3668 C 0.89168 0.42119 0.47796 0.0
C3669 C 0.89248 0.40752 0.48686 0.0
H3670 H 0.87906 0.43344 0.45986 0.0
H3671 H 0.87509 0.3008 0.54604 0.0
H3672 H 0.85187 0.38028 0.79284 0.0
H3673 H 0.84989 0.3746 0.76472 0.0
H3674 H 0.89234 0.40231 0.75667 0.0
H3675 H 0.89425 0.40816 0.78457 0.0
H3676 H 0.87186 0.40513 0.73276 0.0
H3677 H 0.89486 0.3639 0.76324 0.0
H3678 H 0.89518 0.3445 0.78454 0.0
H3679 H 0.8544 0.3211 0.76439 0.0
H3680 H 0.85365 0.34057 0.74311 0.0
H3681 H 0.90519 0.37393 0.66596 0.0
H3682 H 0.90312 0.37549 0.69448 0.0
H3683 H 0.85536 0.35663 0.69201 0.0
H3684 H 0.85721 0.35526 0.66345 0.0
H3685 H 0.87638 0.34845 0.72086 0.0
H3686 H 0.85437 0.39127 0.68993 0.0
H3687 H 0.85663 0.41026 0.66833 0.0
H3688 H 0.89861 0.43031 0.68962 0.0
H3689 H 0.89672 0.41126 0.71123 0.0
C3690 C 0.86046 0.38555 0.78499 0.0
C3691 C 0.87335 0.39447 0.79086 0.0
C3692 C 0.85939 0.38221 0.76897 0.0
C3693 C 0.87118 0.38776 0.75871 0.0
C3694 C 0.88318 0.39784 0.7644 0.0
C3695 C 0.88428 0.40114 0.78035 0.0
C3696 C 0.87215 0.38188 0.74244 0.0
C3697 C 0.87282 0.39274 0.73019 0.0
C3698 C 0.87347 0.3657 0.73909 0.0
C3699 C 0.87408 0.35379 0.75169 0.0
C3700 C 0.88589 0.35468 0.76341 0.0
C3701 C 0.88616 0.34367 0.77548 0.0
C3702 C 0.87479 0.3316 0.77584 0.0
C3703 C 0.86317 0.33048 0.7641 0.0
C3704 C 0.86282 0.3415 0.75204 0.0
C3705 C 0.89449 0.3695 0.67152 0.0
C3706 C 0.88126 0.36471 0.66251 0.0
C3707 C 0.89333 0.37042 0.6878 0.0
C3708 C 0.87902 0.36636 0.69521 0.0
C3709 C 0.86648 0.35981 0.68643 0.0
C3710 C 0.86755 0.3591 0.67014 0.0
C3711 C 0.87613 0.37172 0.71135 0.0
C3712 C 0.87515 0.36079 0.7235 0.0
C3713 C 0.87475 0.38785 0.71468 0.0
C3714 C 0.87548 0.39977 0.70211 0.0
C3715 C 0.86411 0.3997 0.68997 0.0
C3716 C 0.86533 0.41047 0.67772 0.0
C3717 C 0.87778 0.42147 0.67758 0.0
C3718 C 0.88897 0.42179 0.68974 0.0
C3719 C 0.88783 0.41102 0.702 0.0
H3720 H 0.87873 0.42974 0.66804 0.0
H3721 H 0.875 0.32309 0.7852 0.0
H3722 H 0.8296 0.61815 0.93169 0.0
H3723 H 0.83889 0.62345 0.95832 0.0
H3724 H 0.88591 0.63405 0.94091 0.0
H3725 H 0.87643 0.62939 0.91408 0.0
H3726 H 0.85913 0.6082 0.97431 0.0
H3727 H 0.90562 0.658 0.96731 0.0
H3728 H 0.91103 0.68071 0.95026 0.0
H3729 H 0.86121 0.68416 0.93988 0.0
H3730 H 0.8555 0.66161 0.95701 0.0
H3731 H 0.89165 0.61619 0.04952 0.0
H3732 H 0.89214 0.61412 0.02091 0.0
H3733 H 0.86889 0.65865 0.0173 0.0
H3734 H 0.86922 0.66115 0.04571 0.0
H3735 H 0.88731 0.65589 0.99367 0.0
H3736 H 0.84786 0.62229 0.01835 0.0
H3737 H 0.83872 0.60127 0.03603 0.0
H3738 H 0.86784 0.56837 0.01177 0.0
H3739 H 0.87728 0.58926 0.99406 0.0
C3740 C 0.84188 0.62186 0.93353 0.0
C3741 C 0.85233 0.62337 0.92087 0.0
C3742 C 0.84718 0.6248 0.94874 0.0
C3743 C 0.8631 0.6291 0.95164 0.0
C3744 C 0.87352 0.63096 0.93895 0.0
C3745 C 0.86812 0.62828 0.92363 0.0
C3746 C 0.86876 0.63082 0.96803 0.0
C3747 C 0.86535 0.61862 0.9785 0.0
C3748 C 0.8769 0.64438 0.97353 0.0
C3749 C 0.88017 0.658 0.96327 0.0
C3750 C 0.89583 0.66363 0.9614 0.0
C3751 C 0.89894 0.67647 0.95173 0.0
C3752 C 0.88647 0.68383 0.94394 0.0
C3753 C 0.87086 0.6784 0.94586 0.0
C3754 C 0.86768 0.66558 0.95553 0.0
C3755 C 0.88696 0.62566 0.04257 0.0
C3756 C 0.88018 0.63871 0.0498 0.0
C3757 C 0.88721 0.62446 0.02625 0.0
C3758 C 0.88018 0.63604 0.01696 0.0
C3759 C 0.87436 0.64954 0.02419 0.0
C3760 C 0.87447 0.65092 0.04046 0.0
C3761 C 0.87721 0.63348 -0.0 0.0
C3762 C 0.88127 0.64541 0.98939 0.0
C3763 C 0.86911 0.61991 0.99443 0.0
C3764 C 0.86341 0.60735 0.00502 0.0
C3765 C 0.85238 0.61059 0.01686 0.0
C3766 C 0.84714 0.5987 0.02687 0.0
C3767 C 0.85273 0.5835 0.02506 0.0
C3768 C 0.86354 0.58015 0.01319 0.0
C3769 C 0.86884 0.592 0.00316 0.0
H3770 H 0.84866 0.57432 0.03282 0.0
H3771 H 0.88891 0.69376 0.93645 0.0
H3772 H 0.5844 0.63329 0.2828 0.0
H3773 H 0.59149 0.63162 0.25529 0.0
H3774 H 0.63815 0.61551 0.26806 0.0
H3775 H 0.63121 0.61765 0.29594 0.0
H3776 H 0.63913 0.63516 0.24275 0.0
H3777 H 0.61002 0.5893 0.25773 0.0
H3778 H 0.58803 0.57428 0.26974 0.0
H3779 H 0.55487 0.59511 0.23789 0.0
H3780 H 0.57664 0.61043 0.22584 0.0
H3781 H 0.65188 0.59727 0.16902 0.0
H3782 H 0.6487 0.60377 0.19667 0.0
H3783 H 0.60294 0.62358 0.18658 0.0
H3784 H 0.60605 0.61715 0.15878 0.0
H3785 H 0.60269 0.60168 0.21074 0.0
H3786 H 0.63296 0.64729 0.1955 0.0
H3787 H 0.65563 0.66141 0.18365 0.0
H3788 H 0.68759 0.63953 0.21595 0.0
H3789 H 0.66513 0.62509 0.22785 0.0
C3790 C 0.59624 0.62953 0.2798 0.0
C3791 C 0.6072 0.62536 0.29146 0.0
C3792 C 0.60026 0.62858 0.26406 0.0
C3793 C 0.61519 0.62308 0.25966 0.0
C3794 C 0.62652 0.61967 0.27127 0.0
C3795 C 0.62255 0.62086 0.28713 0.0
C3796 C 0.61841 0.62006 0.24293 0.0
C3797 C 0.63132 0.62768 0.23577 0.0
C3798 C 0.60807 0.61041 0.23384 0.0
C3799 C 0.59495 0.60111 0.24097 0.0
C3800 C 0.59802 0.59076 0.25336 0.0
C3801 C 0.5856 0.58218 0.26016 0.0
C3802 C 0.57006 0.58376 0.2546 0.0
C3803 C 0.56692 0.5939 0.2422 0.0
C3804 C 0.5793 0.60252 0.23536 0.0
C3805 C 0.64118 0.60311 0.17265 0.0
C3806 C 0.62916 0.60664 0.16177 0.0
C3807 C 0.63945 0.60691 0.18843 0.0
C3808 C 0.62565 0.61424 0.19359 0.0
C3809 C 0.6137 0.61796 0.18275 0.0
C3810 C 0.61549 0.61429 0.16691 0.0
C3811 C 0.62322 0.617 0.21048 0.0
C3812 C 0.61049 0.6092 0.2177 0.0
C3813 C 0.63385 0.62629 0.21959 0.0
C3814 C 0.64737 0.63499 0.21246 0.0
C3815 C 0.64483 0.64538 0.19999 0.0
C3816 C 0.65765 0.65346 0.19328 0.0
C3817 C 0.67305 0.65134 0.19902 0.0
C3818 C 0.67566 0.64115 0.2115 0.0
C3819 C 0.66289 0.63302 0.21824 0.0
H3820 H 0.68295 0.65761 0.19381 0.0
H3821 H 0.56046 0.57712 0.25989 0.0
H3822 H 0.6297 0.3435 0.539 0.0
H3823 H 0.62973 0.34716 0.51074 0.0
H3824 H 0.59907 0.3869 0.51583 0.0
H3825 H 0.59999 0.38388 0.54436 0.0
H3826 H 0.61081 0.3462 0.48824 0.0
H3827 H 0.60611 0.41351 0.48798 0.0
H3828 H 0.61235 0.43615 0.50506 0.0
H3829 H 0.6492 0.41023 0.52775 0.0
H3830 H 0.64328 0.38751 0.51069 0.0
H3831 H 0.61141 0.36862 0.40786 0.0
H3832 H 0.60414 0.3647 0.43536 0.0
H3833 H 0.64695 0.38945 0.44984 0.0
H3834 H 0.65349 0.39436 0.42249 0.0
H3835 H 0.62567 0.39836 0.46725 0.0
H3836 H 0.6411 0.34703 0.45038 0.0
H3837 H 0.64019 0.32322 0.43398 0.0
H3838 H 0.59142 0.31516 0.44659 0.0
H3839 H 0.59201 0.33903 0.46293 0.0
C3840 C 0.62291 0.35298 0.53408 0.0
C3841 C 0.615 0.36353 0.54382 0.0
C3842 C 0.62286 0.35502 0.5179 0.0
C3843 C 0.61461 0.36746 0.5111 0.0
C3844 C 0.60589 0.37747 0.5208 0.0
C3845 C 0.60635 0.37571 0.53707 0.0
C3846 C 0.61601 0.37031 0.49401 0.0
C3847 C 0.61401 0.35763 0.48364 0.0
C3848 C 0.62039 0.38515 0.48796 0.0
C3849 C 0.6241 0.39877 0.49821 0.0
C3850 C 0.61555 0.41267 0.4966 0.0
C3851 C 0.61903 0.42551 0.50628 0.0
C3852 C 0.63112 0.42461 0.51752 0.0
C3853 C 0.63979 0.41089 0.51908 0.0
C3854 C 0.63637 0.39803 0.50942 0.0
C3855 C 0.61922 0.37317 0.41699 0.0
C3856 C 0.63299 0.38176 0.41318 0.0
C3857 C 0.61512 0.37087 0.43268 0.0
C3858 C 0.62508 0.37661 0.44475 0.0
C3859 C 0.63897 0.38501 0.44081 0.0
C3860 C 0.64276 0.38774 0.42519 0.0
C3861 C 0.62116 0.37411 0.46152 0.0
C3862 C 0.62241 0.38693 0.4718 0.0
C3863 C 0.61694 0.35922 0.46757 0.0
C3864 C 0.61654 0.34491 0.45771 0.0
C3865 C 0.63015 0.34024 0.44955 0.0
C3866 C 0.6297 0.32673 0.44029 0.0
C3867 C 0.61574 0.31771 0.43921 0.0
C3868 C 0.60222 0.32217 0.44742 0.0
C3869 C 0.6026 0.33568 0.45669 0.0
H3870 H 0.61542 0.30725 0.43203 0.0
H3871 H 0.63379 0.43455 0.52501 0.0
H3872 H 0.72058 0.93354 0.6349 0.0
H3873 H 0.74765 0.92381 0.63429 0.0
H3874 H 0.72962 0.87636 0.63648 0.0
H3875 H 0.70241 0.88606 0.6376 0.0
H3876 H 0.75611 0.8795 0.65365 0.0
H3877 H 0.73997 0.89294 0.60147 0.0
H3878 H 0.72939 0.90995 0.58073 0.0
H3879 H 0.76768 0.94287 0.58858 0.0
H3880 H 0.77838 0.92614 0.60952 0.0
H3881 H 0.82032 0.8411 0.61603 0.0
H3882 H 0.79504 0.85181 0.6245 0.0
H3883 H 0.81617 0.89806 0.62614 0.0
H3884 H 0.84156 0.88747 0.61764 0.0
H3885 H 0.78881 0.89628 0.60834 0.0
H3886 H 0.80601 0.88065 0.65949 0.0
H3887 H 0.81629 0.86246 0.67933 0.0
H3888 H 0.77574 0.83213 0.67224 0.0
H3889 H 0.76531 0.85003 0.65218 0.0
C3890 C 0.72236 0.92103 0.63537 0.0
C3891 C 0.70936 0.91054 0.63609 0.0
C3892 C 0.73784 0.91549 0.635 0.0
C3893 C 0.74062 0.89936 0.63501 0.0
C3894 C 0.72772 0.88886 0.63641 0.0
C3895 C 0.71219 0.89441 0.63699 0.0
C3896 C 0.7569 0.89348 0.63271 0.0
C3897 C 0.76322 0.88305 0.64368 0.0
C3898 C 0.76625 0.89831 0.61981 0.0
C3899 C 0.75988 0.90836 0.60717 0.0
C3900 C 0.74607 0.90386 0.59885 0.0
C3901 C 0.74006 0.91344 0.58705 0.0
C3902 C 0.74783 0.9275 0.58337 0.0
C3903 C 0.76166 0.93198 0.59146 0.0
C3904 C 0.76771 0.92245 0.60329 0.0
C3905 C 0.81967 0.85353 0.61838 0.0
C3906 C 0.83292 0.86346 0.61605 0.0
C3907 C 0.80524 0.8596 0.62332 0.0
C3908 C 0.80379 0.8757 0.626 0.0
C3909 C 0.8171 0.88559 0.62416 0.0
C3910 C 0.83158 0.87951 0.61932 0.0
C3911 C 0.78805 0.88235 0.6293 0.0
C3912 C 0.78178 0.89287 0.61843 0.0
C3913 C 0.77872 0.87741 0.64215 0.0
C3914 C 0.78495 0.86663 0.65423 0.0
C3915 C 0.79935 0.87004 0.66206 0.0
C3916 C 0.80519 0.85979 0.67337 0.0
C3917 C 0.79669 0.84613 0.67702 0.0
C3918 C 0.78231 0.84271 0.66939 0.0
C3919 C 0.77642 0.85291 0.65807 0.0
H3920 H 0.80123 0.83821 0.68578 0.0
H3921 H 0.74316 0.9349 0.57423 0.0
H3922 H 0.19631 0.59965 0.40478 0.0
H3923 H 0.22337 0.60793 0.41088 0.0
H3924 H 0.21008 0.65627 0.40625 0.0
H3925 H 0.18282 0.64796 0.39959 0.0
H3926 H 0.23599 0.65104 0.39041 0.0
H3927 H 0.22006 0.64055 0.44247 0.0
H3928 H 0.20769 0.62597 0.4642 0.0
H3929 H 0.24046 0.58855 0.4576 0.0
H3930 H 0.25289 0.6028 0.43567 0.0
H3931 H 0.31545 0.67112 0.41643 0.0
H3932 H 0.28642 0.66853 0.41674 0.0
H3933 H 0.28997 0.61905 0.40779 0.0
H3934 H 0.31902 0.62157 0.40711 0.0
H3935 H 0.26844 0.62886 0.43344 0.0
H3936 H 0.28123 0.63864 0.37881 0.0
H3937 H 0.29341 0.65374 0.35732 0.0
H3938 H 0.26606 0.69378 0.37 0.0
H3939 H 0.25389 0.67896 0.39173 0.0
C3940 C 0.19904 0.61207 0.40525 0.0
C3941 C 0.18746 0.62317 0.40164 0.0
C3942 C 0.21453 0.61679 0.40887 0.0
C3943 C 0.21871 0.63273 0.40925 0.0
C3944 C 0.20707 0.6439 0.40608 0.0
C3945 C 0.19153 0.63916 0.40231 0.0
C3946 C 0.23556 0.63743 0.41165 0.0
C3947 C 0.24298 0.64652 0.40005 0.0
C3948 C 0.24475 0.63135 0.42411 0.0
C3949 C 0.23736 0.62273 0.43736 0.0
C3950 C 0.22457 0.62917 0.44558 0.0
C3951 C 0.21755 0.62097 0.45795 0.0
C3952 C 0.22327 0.60634 0.46226 0.0
C3953 C 0.23604 0.59989 0.45424 0.0
C3954 C 0.2431 0.60804 0.44186 0.0
C3955 C 0.31004 0.65968 0.41457 0.0
C3956 C 0.31944 0.64653 0.41172 0.0
C3957 C 0.2935 0.65824 0.41474 0.0
C3958 C 0.28618 0.64362 0.41229 0.0
C3959 C 0.29551 0.63042 0.40974 0.0
C3960 C 0.31204 0.63189 0.40928 0.0
C3961 C 0.26873 0.64208 0.41204 0.0
C3962 C 0.26128 0.63362 0.42403 0.0
C3963 C 0.25949 0.64886 0.40006 0.0
C3964 C 0.26682 0.65776 0.38702 0.0
C3965 C 0.27795 0.65071 0.37712 0.0
C3966 C 0.28482 0.65921 0.36487 0.0
C3967 C 0.28056 0.67473 0.36233 0.0
C3968 C 0.26938 0.68177 0.37201 0.0
C3969 C 0.26249 0.67333 0.38429 0.0
H3970 H 0.28588 0.68128 0.35283 0.0
H3971 H 0.21782 0.6 0.47184 0.0
H3972 H 0.64234 0.08175 0.62924 0.0
H3973 H 0.64278 0.05327 0.62816 0.0
H3974 H 0.59207 0.05185 0.6201 0.0
H3975 H 0.59149 0.08035 0.62174 0.0
H3976 H 0.5986 0.03334 0.64264 0.0
H3977 H 0.61914 0.03955 0.59165 0.0
H3978 H 0.63605 0.05006 0.57055 0.0
H3979 H 0.67753 0.03235 0.59356 0.0
H3980 H 0.66091 0.02193 0.61493 0.0
H3981 H 0.6082 0.94852 0.63892 0.0
H3982 H 0.60115 0.97549 0.63225 0.0
H3983 H 0.64771 0.99152 0.64709 0.0
H3984 H 0.65478 0.96488 0.65385 0.0
H3985 H 0.639 0.00091 0.61646 0.0
H3986 H 0.61713 -0.00139 0.66938 0.0
H3987 H 0.59929 0.98777 0.68958 0.0
H3988 H 0.55876 -0.00242 0.66063 0.0
H3989 H 0.5764 0.0083 0.64017 0.0
C3990 C 0.63135 0.0754 0.62687 0.0
C3991 C 0.61687 0.08326 0.62571 0.0
C3992 C 0.63161 0.05909 0.62618 0.0
C3993 C 0.61745 0.05039 0.62397 0.0
C3994 C 0.60312 0.0583 0.62188 0.0
C3995 C 0.60282 0.07459 0.62279 0.0
C3996 C 0.61745 0.03312 0.62558 0.0
C3997 C 0.60719 0.02621 0.6366 0.0
C3998 C 0.62866 0.02376 0.61777 0.0
C3999 C 0.63876 0.03002 0.60495 0.0
C4000 C 0.63188 0.03799 0.59228 0.0
C4001 C 0.64142 0.04392 0.58025 0.0
C4002 C 0.65786 0.04189 0.58073 0.0
C4003 C 0.6648 0.03391 0.59321 0.0
C4004 C 0.65532 0.02796 0.60527 0.0
C4005 C 0.6168 0.95786 0.64102 0.0
C4006 C 0.63208 0.95459 0.64679 0.0
C4007 C 0.61278 0.9732 0.63715 0.0
C4008 C 0.62401 0.98539 0.63901 0.0
C4009 C 0.63897 0.98221 0.64541 0.0
C4010 C 0.64295 0.96699 0.64935 0.0
C4011 C 0.62062 0.00147 0.63388 0.0
C4012 C 0.63021 0.00808 0.62217 0.0
C4013 C 0.60865 0.01048 0.64086 0.0
C4014 C 0.59809 0.00406 0.65318 0.0
C4015 C 0.60443 -0.00169 0.66727 0.0
C4016 C 0.59435 0.99223 0.67877 0.0
C4017 C 0.5779 0.99193 0.67637 0.0
C4018 C 0.5715 -0.00222 0.66247 0.0
C4019 C 0.58153 0.00387 0.65092 0.0
H4020 H 0.57012 0.98722 0.68529 0.0
H4021 H 0.66522 0.04649 0.57141 0.0
H4022 H 0.17565 0.33127 0.89474 0.0
H4023 H 0.2029 0.3384 0.88768 0.0
H4024 H 0.18777 0.3849 0.87571 0.0
H4025 H 0.16038 0.37764 0.8822 0.0
H4026 H 0.20782 0.37498 0.85475 0.0
H4027 H 0.20663 0.37644 0.91112 0.0
H4028 H 0.2019 0.36595 0.93759 0.0
H4029 H 0.23542 0.32955 0.92923 0.0
H4030 H 0.24021 0.33971 0.90261 0.0
H4031 H 0.27852 0.41983 0.86555 0.0
H4032 H 0.25221 0.40752 0.86707 0.0
H4033 H 0.27355 0.36204 0.86926 0.0
H4034 H 0.30004 0.37426 0.86758 0.0
H4035 H 0.25144 0.36851 0.89345 0.0
H4036 H 0.25466 0.37012 0.83758 0.0
H4037 H 0.25956 0.38231 0.81189 0.0
H4038 H 0.22224 0.41494 0.82024 0.0
H4039 H 0.21727 0.4031 0.84609 0.0
C4040 C 0.17814 0.34302 0.89061 0.0
C4041 C 0.16594 0.35395 0.88911 0.0
C4042 C 0.19372 0.34708 0.88661 0.0
C4043 C 0.1974 0.36224 0.88138 0.0
C4044 C 0.18518 0.37312 0.87971 0.0
C4045 C 0.16957 0.36899 0.88349 0.0
C4046 C 0.214 0.36691 0.87786 0.0
C4047 C 0.21733 0.37367 0.86325 0.0
C4048 C 0.22649 0.36484 0.88882 0.0
C4049 C 0.22364 0.35873 0.90482 0.0
C4050 C 0.2129 0.36613 0.91488 0.0
C4051 C 0.21023 0.36025 0.92992 0.0
C4052 C 0.21832 0.34706 0.93507 0.0
C4053 C 0.22914 0.33974 0.92521 0.0
C4054 C 0.23185 0.34556 0.91015 0.0
C4055 C 0.27763 0.4072 0.86621 0.0
C4056 C 0.29133 0.398 0.86652 0.0
C4057 C 0.2626 0.4002 0.86698 0.0
C4058 C 0.26101 0.38391 0.86819 0.0
C4059 C 0.27461 0.37464 0.86827 0.0
C4060 C 0.28969 0.38163 0.86728 0.0
C4061 C 0.24513 0.37678 0.87048 0.0
C4062 C 0.24195 0.36959 0.88487 0.0
C4063 C 0.23276 0.37867 0.85942 0.0
C4064 C 0.23567 0.38579 0.84384 0.0
C4065 C 0.24758 0.37998 0.834 0.0
C4066 C 0.25036 0.38681 0.81939 0.0
C4067 C 0.24124 0.39941 0.81445 0.0
C4068 C 0.2293 0.40518 0.82409 0.0
C4069 C 0.22649 0.3984 0.83871 0.0
H4070 H 0.24341 0.40468 0.80313 0.0
H4071 H 0.21623 0.34254 0.94672 0.0
H4072 H 0.39154 0.40623 0.6196 0.0
H4073 H 0.38831 0.4342 0.61512 0.0
H4074 H 0.33886 0.43006 0.62784 0.0
H4075 H 0.34188 0.40196 0.63181 0.0
H4076 H 0.34212 0.44994 0.60463 0.0
H4077 H 0.36848 0.442 0.65445 0.0
H4078 H 0.38963 0.43217 0.67179 0.0
H4079 H 0.42456 0.45876 0.64631 0.0
H4080 H 0.40363 0.46861 0.62869 0.0
H4081 H 0.32243 0.52193 0.63723 0.0
H4082 H 0.33006 0.49487 0.63351 0.0
H4083 H 0.37433 0.51007 0.61295 0.0
H4084 H 0.36673 0.53748 0.61652 0.0
H4085 H 0.37672 0.48567 0.63618 0.0
H4086 H 0.34842 0.49671 0.58893 0.0
H4087 H 0.3263 0.50688 0.5731 0.0
H4088 H 0.29394 0.47467 0.59525 0.0
H4089 H 0.31583 0.46446 0.6114 0.0
C4090 C 0.37993 0.41125 0.62127 0.0
C4091 C 0.36699 0.40195 0.62623 0.0
C4092 C 0.37812 0.42724 0.61876 0.0
C4093 C 0.36344 0.43428 0.62149 0.0
C4094 C 0.35032 0.42488 0.62572 0.0
C4095 C 0.35206 0.40883 0.62801 0.0
C4096 C 0.36186 0.4515 0.62078 0.0
C4097 C 0.34965 0.45774 0.61157 0.0
C4098 C 0.37196 0.46172 0.62952 0.0
C4099 C 0.38453 0.45589 0.64015 0.0
C4100 C 0.38069 0.44566 0.65249 0.0
C4101 C 0.39263 0.4401 0.66237 0.0
C4102 C 0.40843 0.4448 0.66012 0.0
C4103 C 0.41232 0.45511 0.64802 0.0
C4104 C 0.40042 0.46069 0.63808 0.0
C4105 C 0.33384 0.51961 0.63197 0.0
C4106 C 0.34396 0.53189 0.62713 0.0
C4107 C 0.33813 0.50411 0.62978 0.0
C4108 C 0.35263 0.50053 0.62276 0.0
C4109 C 0.36303 0.51268 0.61829 0.0
C4110 C 0.35867 0.52828 0.62034 0.0
C4111 C 0.35676 0.48398 0.62036 0.0
C4112 C 0.36942 0.47788 0.62899 0.0
C4113 C 0.34697 0.47387 0.61124 0.0
C4114 C 0.33377 0.47988 0.60145 0.0
C4115 C 0.33657 0.49187 0.59051 0.0
C4116 C 0.32407 0.49763 0.58147 0.0
C4117 C 0.30872 0.49144 0.58319 0.0
C4118 C 0.30584 0.47945 0.59393 0.0
C4119 C 0.3183 0.47365 0.60302 0.0
H4120 H 0.29905 0.49593 0.57617 0.0
H4121 H 0.41766 0.44048 0.66779 0.0
H4122 H 0.78926 0.07979 0.102 0.0
H4123 H 0.76096 0.08512 0.10132 0.0
H4124 H 0.7711 0.13466 0.10445 0.0
H4125 H 0.79965 0.12936 0.10556 0.0
H4126 H 0.74883 0.12611 0.12491 0.0
H4127 H 0.75746 0.11774 0.07021 0.0
H4128 H 0.76698 0.10382 0.04682 0.0
H4129 H 0.73671 0.0645 0.05767 0.0
H4130 H 0.72716 0.0781 0.08126 0.0
H4131 H 0.67193 0.15186 0.10451 0.0
H4132 H 0.70008 0.146 0.10635 0.0
H4133 H 0.68889 0.0966 0.10662 0.0
H4134 H 0.66047 0.10237 0.10464 0.0
H4135 H 0.71151 0.10472 0.08476 0.0
H4136 H 0.70252 0.1138 0.13937 0.0
H4137 H 0.693 0.12823 0.16244 0.0
H4138 H 0.72394 0.16695 0.15124 0.0
H4139 H 0.7335 0.15284 0.12797 0.0
C4140 C 0.78552 0.09185 0.10236 0.0
C4141 C 0.79668 0.10418 0.10388 0.0
C4142 C 0.76931 0.09487 0.1019 0.0
C4143 C 0.76393 0.11029 0.10271 0.0
C4144 C 0.77504 0.12267 0.10382 0.0
C4145 C 0.79132 0.11965 0.10437 0.0
C4146 C 0.74667 0.11331 0.1032 0.0
C4147 C 0.74069 0.12165 0.116 0.0
C4148 C 0.73603 0.10708 0.09181 0.0
C4149 C 0.74169 0.09889 0.07758 0.0
C4150 C 0.75292 0.10608 0.06768 0.0
C4151 C 0.75831 0.09825 0.05437 0.0
C4152 C 0.75248 0.08327 0.05079 0.0
C4153 C 0.74122 0.0761 0.06047 0.0
C4154 C 0.7358 0.08387 0.0738 0.0
C4155 C 0.6754 0.13973 0.10514 0.0
C4156 C 0.66398 0.12756 0.10434 0.0
C4157 C 0.6915 0.13641 0.10628 0.0
C4158 C 0.69653 0.12088 0.10669 0.0
C4159 C 0.68518 0.10867 0.10633 0.0
C4160 C 0.66899 0.11198 0.10527 0.0
C4161 C 0.7137 0.11752 0.10645 0.0
C4162 C 0.71966 0.10913 0.09368 0.0
C4163 C 0.72432 0.1238 0.11781 0.0
C4164 C 0.71863 0.1323 0.13184 0.0
C4165 C 0.70721 0.12544 0.14175 0.0
C4166 C 0.70182 0.13355 0.15488 0.0
C4167 C 0.70783 0.14851 0.15829 0.0
C4168 C 0.71928 0.15537 0.14859 0.0
C4169 C 0.7247 0.14731 0.13543 0.0
H4170 H 0.70365 0.15477 0.16846 0.0
H4171 H 0.75667 0.07723 0.04048 0.0
H4172 H 0.60281 0.05013 0.84732 0.0
H4173 H 0.59586 0.02235 0.84418 0.0
H4174 H 0.64566 0.01105 0.84368 0.0
H4175 H 0.65267 0.03864 0.84651 0.0
H4176 H 0.62959 0.99334 0.82314 0.0
H4177 H 0.62421 0.00893 0.87726 0.0
H4178 H 0.61369 0.02474 0.89896 0.0
H4179 H 0.56619 0.00949 0.88734 0.0
H4180 H 0.57643 0.99376 0.86541 0.0
H4181 H 0.63363 0.91677 0.85492 0.0
H4182 H 0.63542 0.94527 0.8521 0.0
H4183 H 0.58504 0.94681 0.84281 0.0
H4184 H 0.58319 0.91832 0.84526 0.0
H4185 H 0.59811 0.96942 0.86611 0.0
H4186 H 0.605 0.95113 0.81341 0.0
H4187 H 0.61679 0.93483 0.79278 0.0
H4188 H 0.66289 0.95474 0.80292 0.0
H4189 H 0.6514 0.97099 0.82381 0.0
C4190 C 0.61225 0.04173 0.8463 0.0
C4191 C 0.62828 0.04651 0.84737 0.0
C4192 C 0.60827 0.02588 0.84456 0.0
C4193 C 0.62026 0.01465 0.84395 0.0
C4194 C 0.63623 0.01952 0.84416 0.0
C4195 C 0.64021 0.0353 0.84585 0.0
C4196 C 0.61637 -0.00227 0.84421 0.0
C4197 C 0.62273 0.98811 0.83255 0.0
C4198 C 0.60722 0.99095 0.85638 0.0
C4199 C 0.60106 0.00033 0.86959 0.0
C4200 C 0.61151 0.00905 0.87926 0.0
C4201 C 0.6056 0.01798 0.89161 0.0
C4202 C 0.58927 0.01816 0.89449 0.0
C4203 C 0.57883 0.00937 0.88506 0.0
C4204 C 0.58468 0.00044 0.87268 0.0
C4205 C 0.62295 0.9232 0.85233 0.0
C4206 C 0.60829 0.91538 0.85026 0.0
C4207 C 0.62399 0.93942 0.85068 0.0
C4208 C 0.61036 0.94802 0.84717 0.0
C4209 C 0.59566 0.9403 0.84548 0.0
C4210 C 0.59465 0.92406 0.84684 0.0
C4211 C 0.61156 0.96511 0.84521 0.0
C4212 C 0.60472 0.97471 0.85657 0.0
C4213 C 0.62042 0.97185 0.83288 0.0
C4214 C 0.62736 0.96217 0.82028 0.0
C4215 C 0.61768 0.95193 0.81135 0.0
C4216 C 0.6243 0.94272 0.79958 0.0
C4217 C 0.64058 0.94372 0.79657 0.0
C4218 C 0.65027 0.95397 0.80528 0.0
C4219 C 0.64371 0.96319 0.81708 0.0
H4220 H 0.64569 0.93658 0.78745 0.0
H4221 H 0.58472 0.02507 0.90406 0.0
H4222 H 0.86254 0.06923 0.37093 0.0
H4223 H 0.86393 0.04081 0.37446 0.0
H4224 H 0.90138 0.03881 0.34021 0.0
H4225 H 0.90026 0.06701 0.33685 0.0
H4226 H 0.85867 0.01754 0.3547 0.0
H4227 H 0.92763 0.01136 0.34933 0.0
H4228 H 0.95182 0.02619 0.35701 0.0
H4229 H 0.92606 0.04917 0.3935 0.0
H4230 H 0.90179 0.03431 0.38621 0.0
H4231 H 0.87243 0.94267 0.33022 0.0
H4232 H 0.87602 0.97103 0.33193 0.0
H4233 H 0.89722 0.96622 0.37779 0.0
H4234 H 0.8943 0.93771 0.37577 0.0
H4235 H 0.90992 0.99071 0.36321 0.0
H4236 H 0.85776 0.97211 0.37429 0.0
H4237 H 0.83307 0.95685 0.36963 0.0
H4238 H 0.82394 0.98335 0.32798 0.0
H4239 H 0.84872 -0.0014 0.33224 0.0
C4240 C 0.87108 0.0627 0.3642 0.0
C4241 C 0.88132 0.07033 0.35366 0.0
C4242 C 0.87187 0.04651 0.36623 0.0
C4243 C 0.88295 0.03777 0.3578 0.0
C4244 C 0.893 0.04537 0.34712 0.0
C4245 C 0.89226 0.06149 0.34513 0.0
C4246 C 0.88369 0.02059 0.35951 0.0
C4247 C 0.86985 0.01168 0.35667 0.0
C4248 C 0.8982 0.01295 0.36254 0.0
C4249 C 0.91285 0.02179 0.36713 0.0
C4250 C 0.92714 0.01951 0.35905 0.0
C4251 C 0.94087 0.02794 0.36333 0.0
C4252 C 0.94047 0.03864 0.37571 0.0
C4253 C 0.92635 0.04091 0.38388 0.0
C4254 C 0.9126 0.0325 0.37966 0.0
C4255 C 0.87836 0.94766 0.34041 0.0
C4256 C 0.88301 0.93813 0.3529 0.0
C4257 C 0.88028 0.96383 0.34145 0.0
C4258 C 0.88639 0.97071 0.35521 0.0
C4259 C 0.89234 0.96112 0.36714 0.0
C4260 C 0.89073 0.94487 0.36595 0.0
C4261 C 0.88506 0.98777 0.35766 0.0
C4262 C 0.89874 -0.0034 0.36137 0.0
C4263 C 0.87029 0.99534 0.35597 0.0
C4264 C 0.85516 0.98644 0.35354 0.0
C4265 C 0.85052 0.97465 0.3641 0.0
C4266 C 0.83651 0.96599 0.36153 0.0
C4267 C 0.82695 0.96912 0.34851 0.0
C4268 C 0.83136 0.98094 0.33806 0.0
C4269 C 0.84538 0.98961 0.34056 0.0
H4270 H 0.81612 0.96239 0.34653 0.0
H4271 H 0.95111 0.04517 0.37899 0.0
H4272 H 0.35231 0.293 0.12222 0.0
H4273 H 0.34858 0.26537 0.12833 0.0
H4274 H 0.35152 0.25377 0.07925 0.0
H4275 H 0.35529 0.28156 0.07295 0.0
H4276 H 0.32868 0.23465 0.09785 0.0
H4277 H 0.38357 0.25153 0.09674 0.0
H4278 H 0.4061 0.26921 0.10326 0.0
H4279 H 0.39917 0.26034 0.15224 0.0
H4280 H 0.37642 0.24279 0.14601 0.0
H4281 H 0.36124 0.15749 0.1065 0.0
H4282 H 0.35261 0.1837 0.09928 0.0
H4283 H 0.35684 0.19838 0.14754 0.0
H4284 H 0.36563 0.17232 0.15481 0.0
H4285 H 0.37494 0.21593 0.12847 0.0
H4286 H 0.32097 0.19726 0.12926 0.0
H4287 H 0.2984 0.17978 0.12243 0.0
H4288 H 0.30367 0.19147 0.07384 0.0
H4289 H 0.32645 0.20886 0.08035 0.0
C4290 C 0.35185 0.28464 0.11266 0.0
C4291 C 0.35437 0.28941 0.09712 0.0
C4292 C 0.34965 0.26887 0.11618 0.0
C4293 C 0.34996 0.25759 0.10425 0.0
C4294 C 0.35123 0.26236 0.0886 0.0
C4295 C 0.35346 0.27821 0.08504 0.0
C4296 C 0.35118 0.24092 0.10844 0.0
C4297 C 0.33884 0.23044 0.10439 0.0
C4298 C 0.36437 0.2356 0.11713 0.0
C4299 C 0.37818 0.24598 0.12091 0.0
C4300 C 0.38677 0.25345 0.1089 0.0
C4301 C 0.39959 0.26343 0.11254 0.0
C4302 C 0.40403 0.26594 0.12815 0.0
C4303 C 0.3957 0.25841 0.14015 0.0
C4304 C 0.38285 0.24844 0.13658 0.0
C4305 C 0.35991 0.16618 0.11564 0.0
C4306 C 0.36433 0.16293 0.13119 0.0
C4307 C 0.35492 0.18114 0.1115 0.0
C4308 C 0.35418 0.19299 0.12287 0.0
C4309 C 0.35742 0.1894 0.13858 0.0
C4310 C 0.36243 0.1745 0.14271 0.0
C4311 C 0.35228 0.20951 0.11818 0.0
C4312 C 0.36467 0.22003 0.12201 0.0
C4313 C 0.33918 0.21474 0.10924 0.0
C4314 C 0.32553 0.20425 0.10528 0.0
C4315 C 0.31743 0.19599 0.1171 0.0
C4316 C 0.30457 0.18612 0.11329 0.0
C4317 C 0.29963 0.18448 0.09771 0.0
C4318 C 0.30752 0.19274 0.08591 0.0
C4319 C 0.3204 0.20262 0.08965 0.0
H4320 H 0.28967 0.17684 0.09479 0.0
H4321 H 0.41393 0.27369 0.13095 0.0
H4322 H 0.56461 0.65546 0.90905 0.0
H4323 H 0.53573 0.65397 0.90628 0.0
H4324 H 0.54043 0.6472 0.85645 0.0
H4325 H 0.56953 0.64838 0.85915 0.0
H4326 H 0.51697 0.67099 0.86761 0.0
H4327 H 0.53234 0.61705 0.87417 0.0
H4328 H 0.5462 0.59561 0.88752 0.0
H4329 H 0.52013 0.60464 0.9296 0.0
H4330 H 0.50629 0.6263 0.91656 0.0
H4331 H 0.43952 0.64488 0.84789 0.0
H4332 H 0.46789 0.64965 0.85133 0.0
H4333 H 0.46337 0.64185 0.90106 0.0
H4334 H 0.43492 0.63644 0.89759 0.0
H4335 H 0.48708 0.62623 0.8906 0.0
H4336 H 0.47088 0.67901 0.88514 0.0
H4337 H 0.4572 0.7014 0.8733 0.0
H4338 H 0.48462 0.69628 0.83139 0.0
H4339 H 0.49831 0.67371 0.84288 0.0
C4340 C 0.55953 0.6537 0.89748 0.0
C4341 C 0.56929 0.65201 0.88429 0.0
C4342 C 0.54305 0.65284 0.89594 0.0
C4343 C 0.53606 0.65045 0.88119 0.0
C4344 C 0.54571 0.64907 0.86793 0.0
C4345 C 0.56226 0.64968 0.86949 0.0
C4346 C 0.51864 0.64908 0.87978 0.0
C4347 C 0.51037 0.66113 0.87242 0.0
C4348 C 0.51017 0.63649 0.88662 0.0
C4349 C 0.51841 0.6234 0.89444 0.0
C4350 C 0.52967 0.61456 0.88632 0.0
C4351 C 0.5375 0.60235 0.89381 0.0
C4352 C 0.53408 0.59879 0.90941 0.0
C4353 C 0.52279 0.60742 0.91753 0.0
C4354 C 0.51494 0.61965 0.91008 0.0
C4355 C 0.44449 0.64438 0.85961 0.0
C4356 C 0.43497 0.64025 0.87248 0.0
C4357 C 0.46073 0.6472 0.86157 0.0
C4358 C 0.46775 0.64629 0.87648 0.0
C4359 C 0.4582 0.64261 0.88944 0.0
C4360 C 0.44195 0.63957 0.88745 0.0
C4361 C 0.4852 0.64815 0.87832 0.0
C4362 C 0.49355 0.63618 0.8858 0.0
C4363 C 0.49371 0.66096 0.87179 0.0
C4364 C 0.48553 0.67457 0.86483 0.0
C4365 C 0.47391 0.68258 0.87335 0.0
C4366 C 0.46617 0.69532 0.86671 0.0
C4367 C 0.47001 0.70024 0.85159 0.0
C4368 C 0.48164 0.69245 0.84309 0.0
C4369 C 0.48941 0.67969 0.84967 0.0
H4370 H 0.46401 0.71011 0.84647 0.0
H4371 H 0.54015 0.58933 0.9152 0.0
H4372 H 0.14244 0.70545 0.6276 0.0
H4373 H 0.14698 0.73274 0.63501 0.0
H4374 H 0.13735 0.74702 0.58753 0.0
H4375 H 0.13286 0.71964 0.57993 0.0
H4376 H 0.16179 0.76537 0.60318 0.0
H4377 H 0.1078 0.74646 0.61096 0.0
H4378 H 0.08749 0.72812 0.62118 0.0
H4379 H 0.10351 0.73744 0.66819 0.0
H4380 H 0.12408 0.75567 0.65821 0.0
H4381 H 0.12548 0.83934 0.61081 0.0
H4382 H 0.13648 0.81368 0.60547 0.0
H4383 H 0.13663 0.80348 0.65497 0.0
H4384 H 0.12506 0.82896 0.66031 0.0
H4385 H 0.12021 0.78255 0.64015 0.0
H4386 H 0.17162 0.805 0.63253 0.0
H4387 H 0.19177 0.8234 0.62218 0.0
H4388 H 0.18104 0.80813 0.57529 0.0
H4389 H 0.16065 0.78979 0.58533 0.0
C4390 C 0.14156 0.71435 0.61864 0.0
C4391 C 0.13702 0.71045 0.60323 0.0
C4392 C 0.14423 0.72992 0.6229 0.0
C4393 C 0.14231 0.74184 0.61185 0.0
C4394 C 0.1389 0.73794 0.5962 0.0
C4395 C 0.13624 0.72232 0.59191 0.0
C4396 C 0.14169 0.7583 0.61707 0.0
C4397 C 0.1527 0.76924 0.61121 0.0
C4398 C 0.13002 0.76314 0.62781 0.0
C4399 C 0.11759 0.75227 0.63383 0.0
C4400 C 0.10707 0.74449 0.62347 0.0
C4401 C 0.0955 0.73414 0.62921 0.0
C4402 C 0.09424 0.73158 0.64532 0.0
C4403 C 0.10452 0.73941 0.65571 0.0
C4404 C 0.11613 0.74975 0.65002 0.0
C4405 C 0.12829 0.83182 0.6206 0.0
C4406 C 0.12418 0.83602 0.63596 0.0
C4407 C 0.13469 0.81716 0.61753 0.0
C4408 C 0.13737 0.80661 0.62982 0.0
C4409 C 0.13458 0.8114 0.6453 0.0
C4410 C 0.12797 0.82595 0.64834 0.0
C4411 C 0.14036 0.78992 0.62633 0.0
C4412 C 0.12961 0.77882 0.6324 0.0
C4413 C 0.15227 0.78504 0.61581 0.0
C4414 C 0.16451 0.79608 0.60969 0.0
C4415 C 0.17346 0.80565 0.62 0.0
C4416 C 0.18495 0.81605 0.61419 0.0
C4417 C 0.18767 0.81695 0.59809 0.0
C4418 C 0.17892 0.80743 0.58776 0.0
C4419 C 0.16741 0.797 0.59351 0.0
H4420 H 0.19657 0.82502 0.59361 0.0
H4421 H 0.08528 0.72356 0.64975 0.0
H4422 H 0.05082 0.38885 0.37527 0.0
H4423 H 0.0221 0.38427 0.37576 0.0
H4424 H 0.0283 0.33925 0.35372 0.0
H4425 H 0.05693 0.34433 0.35227 0.0
H4426 H 0.00454 0.35142 0.34116 0.0
H4427 H 0.02002 0.34493 0.39484 0.0
H4428 H 0.03253 0.3521 0.42011 0.0
H4429 H 0.00246 0.39205 0.42366 0.0
H4430 H 0.98989 0.38523 0.39831 0.0
H4431 H 0.93158 0.31874 0.37798 0.0
H4432 H 0.9597 0.32506 0.37353 0.0
H4433 H 0.94731 0.37167 0.35932 0.0
H4434 H 0.91908 0.3653 0.36326 0.0
H4435 H 0.97322 0.3595 0.38949 0.0
H4436 H 0.95936 0.36462 0.33301 0.0
H4437 H 0.9467 0.35409 0.30898 0.0
H4438 H 0.97414 0.31233 0.31292 0.0
H4439 H 0.98676 0.32255 0.33713 0.0
C4440 C 0.04602 0.37795 0.37063 0.0
C4441 C 0.05603 0.36689 0.36381 0.0
C4442 C 0.02961 0.3753 0.37097 0.0
C4443 C 0.023 0.36128 0.36504 0.0
C4444 C 0.03308 0.35017 0.35834 0.0
C4445 C 0.04943 0.35303 0.35759 0.0
C4446 C 0.00558 0.35827 0.36554 0.0
C4447 C -0.00222 0.35315 0.35179 0.0
C4448 C -0.00339 0.36054 0.37935 0.0
C4449 C 0.00413 0.36466 0.3946 0.0
C4450 C 0.01615 0.35531 0.40096 0.0
C4451 C 0.02324 0.3593 0.41531 0.0
C4452 C 0.01833 0.37255 0.42346 0.0
C4453 C 0.00627 0.38181 0.41731 0.0
C4454 C -0.00085 0.37788 0.40297 0.0
C4455 C 0.93484 0.33025 0.37361 0.0
C4456 C 0.9232 0.34155 0.37094 0.0
C4457 C 0.95085 0.3338 0.37108 0.0
C4458 C 0.95544 0.34875 0.36602 0.0
C4459 C 0.94387 0.35999 0.36304 0.0
C4460 C 0.9278 0.35635 0.36527 0.0
C4461 C 0.97245 0.35289 0.36517 0.0
C4462 C 0.98011 0.35805 0.37889 0.0
C4463 C 0.98134 0.35033 0.3515 0.0
C4464 C 0.97382 0.34425 0.33696 0.0
C4465 C 0.96253 0.35312 0.32885 0.0
C4466 C 0.95541 0.34723 0.31517 0.0
C4467 C 0.95957 0.33253 0.30945 0.0
C4468 C 0.9709 0.3237 0.31738 0.0
C4469 C 0.97804 0.32954 0.33106 0.0
H4470 H 0.95404 0.32799 0.29886 0.0
H4471 H 0.02383 0.37562 0.43456 0.0
H4472 H 0.3748 0.83065 0.36007 0.0
H4473 H 0.36983 0.80356 0.36824 0.0
H4474 H 0.4092 0.78851 0.33998 0.0
H4475 H 0.4136 0.81526 0.3312 0.0
H4476 H 0.38699 0.76907 0.33605 0.0
H4477 H 0.41076 0.79265 0.38176 0.0
H4478 H 0.41359 0.81193 0.40319 0.0
H4479 H 0.36754 0.79865 0.42055 0.0
H4480 H 0.36435 0.77943 0.3991 0.0
H4481 H 0.39325 0.70152 0.39719 0.0
H4482 H 0.39812 0.72873 0.38962 0.0
H4483 H 0.3585 0.72602 0.35734 0.0
H4484 H 0.35388 0.69875 0.36446 0.0
H4485 H 0.38151 0.75414 0.39188 0.0
H4486 H 0.36528 0.74844 0.32582 0.0
H4487 H 0.3663 0.72876 0.30466 0.0
H4488 H 0.40432 0.70558 0.32847 0.0
H4489 H 0.40367 0.72522 0.34966 0.0
C4490 C 0.38235 0.82151 0.35562 0.0
C4491 C 0.39454 0.82503 0.34497 0.0
C4492 C 0.37957 0.80606 0.36036 0.0
C4493 C 0.38927 0.79398 0.35489 0.0
C4494 C 0.40149 0.79757 0.34432 0.0
C4495 C 0.40401 0.81289 0.33932 0.0
C4496 C 0.38666 0.77751 0.35987 0.0
C4497 C 0.38579 0.76584 0.34827 0.0
C4498 C 0.38535 0.77319 0.37583 0.0
C4499 C 0.38726 0.78472 0.38874 0.0
C4500 C 0.40119 0.79392 0.39009 0.0
C4501 C 0.40287 0.80483 0.40224 0.0
C4502 C 0.39074 0.80654 0.4132 0.0
C4503 C 0.37692 0.79733 0.41204 0.0
C4504 C 0.37518 0.78642 0.3999 0.0
C4505 C 0.38562 0.70671 0.38844 0.0
C4506 C 0.37327 0.69794 0.38133 0.0
C4507 C 0.38837 0.72228 0.38417 0.0
C4508 C 0.37879 0.72936 0.37279 0.0
C4509 C 0.36626 0.72071 0.36591 0.0
C4510 C 0.36362 0.70512 0.37002 0.0
C4511 C 0.3819 0.74579 0.36805 0.0
C4512 C 0.38274 0.75742 0.37967 0.0
C4513 C 0.38375 0.75004 0.35215 0.0
C4514 C 0.3843 0.73821 0.33941 0.0
C4515 C 0.37389 0.73917 0.32652 0.0
C4516 C 0.3744 0.72802 0.31452 0.0
C4517 C 0.38533 0.7159 0.31525 0.0
C4518 C 0.39582 0.71493 0.32795 0.0
C4519 C 0.39537 0.72606 0.33997 0.0
H4520 H 0.3857 0.70728 0.30596 0.0
H4521 H 0.39206 0.81499 0.4226 0.0
H4522 H 0.03964 0.61834 0.17169 0.0
H4523 H 0.01086 0.61433 0.16928 0.0
H4524 H 0.01455 0.61664 0.11895 0.0
H4525 H 0.04324 0.62078 0.12124 0.0
H4526 H 0.99216 0.63585 0.13014 0.0
H4527 H 0.00698 0.58227 0.13677 0.0
H4528 H 0.01982 0.56009 0.14986 0.0
H4529 H 0.99143 0.56749 0.19078 0.0
H4530 H 0.97857 0.58987 0.178 0.0
H4531 H 0.91672 0.61424 0.106 0.0
H4532 H 0.94481 0.61017 0.11136 0.0
H4533 H 0.93625 0.61405 0.16096 0.0
H4534 H 0.90792 0.61812 0.15573 0.0
H4535 H 0.96065 0.59142 0.15173 0.0
H4536 H 0.94635 0.64536 0.14513 0.0
H4537 H 0.93325 0.66721 0.13173 0.0
H4538 H 0.96105 0.65895 0.09058 0.0
H4539 H 0.97412 0.63685 0.10367 0.0
C4540 C 0.03432 0.61788 0.16011 0.0
C4541 C 0.04366 0.61996 0.14665 0.0
C4542 C 0.01791 0.6155 0.15876 0.0
C4543 C 0.01063 0.61511 0.14394 0.0
C4544 C 0.01997 0.6169 0.13049 0.0
C4545 C 0.03635 0.61926 0.13182 0.0
C4546 C 0.99315 0.61389 0.1424 0.0
C4547 C 0.98532 0.62603 0.1347 0.0
C4548 C 0.98421 0.6013 0.14878 0.0
C4549 C 0.99194 0.58786 0.15649 0.0
C4550 C 0.00358 0.57927 0.14861 0.0
C4551 C 0.01084 0.56663 0.15597 0.0
C4552 C 0.00648 0.56241 0.17116 0.0
C4553 C 0.99482 0.57079 0.17902 0.0
C4554 C 0.98753 0.58344 0.17172 0.0
C4555 C 0.9207 0.6139 0.11808 0.0
C4556 C 0.91016 0.61682 0.13044 0.0
C4557 C 0.93674 0.61152 0.12111 0.0
C4558 C 0.94255 0.61208 0.13652 0.0
C4559 C 0.93191 0.61362 0.14899 0.0
C4560 C 0.91577 0.61599 0.14597 0.0
C4561 C 0.95985 0.61323 0.13925 0.0
C4562 C 0.96758 0.6012 0.14723 0.0
C4563 C 0.96878 0.62593 0.13316 0.0
C4564 C 0.9611 0.63935 0.12533 0.0
C4565 C 0.94958 0.64812 0.13318 0.0
C4566 C 0.94217 0.66056 0.12565 0.0
C4567 C 0.94629 0.66444 0.1103 0.0
C4568 C 0.95786 0.65591 0.10247 0.0
C4569 C 0.96528 0.64343 0.10994 0.0
H4570 H 0.94054 0.67408 0.10448 0.0
H4571 H 0.01211 0.55262 0.17683 0.0
H4572 H 0.11823 0.29746 0.84621 0.0
H4573 H 0.11762 0.26961 0.83975 0.0
H4574 H 0.11195 0.25831 0.88862 0.0
H4575 H 0.11251 0.28618 0.89524 0.0
H4576 H 0.13545 0.24078 0.8735 0.0
H4577 H 0.08091 0.25496 0.86601 0.0
H4578 H 0.05897 0.27062 0.85543 0.0
H4579 H 0.07254 0.25862 0.80855 0.0
H4580 H 0.09472 0.24306 0.81885 0.0
H4581 H 0.11114 0.16085 0.86436 0.0
H4582 H 0.11505 0.1884 0.87118 0.0
H4583 H 0.11506 0.20046 0.82214 0.0
H4584 H 0.11085 0.173 0.81522 0.0
H4585 H 0.09475 0.21778 0.83761 0.0
H4586 H 0.149 0.20328 0.84471 0.0
H4587 H 0.17125 0.18786 0.85496 0.0
H4588 H 0.15883 0.20048 0.902 0.0
H4589 H 0.13635 0.21582 0.89203 0.0
C4590 C 0.11678 0.28907 0.85559 0.0
C4591 C 0.11538 0.29403 0.87124 0.0
C4592 C 0.11641 0.27318 0.85187 0.0
C4593 C 0.1147 0.26196 0.86372 0.0
C4594 C 0.1133 0.26683 0.87934 0.0
C4595 C 0.11352 0.28274 0.88307 0.0
C4596 C 0.11445 0.24514 0.85975 0.0
C4597 C 0.12645 0.23565 0.86582 0.0
C4598 C 0.10292 0.23865 0.84943 0.0
C4599 C 0.08958 0.24798 0.8432 0.0
C4600 C 0.07931 0.25578 0.85344 0.0
C4601 C 0.06681 0.26461 0.8475 0.0
C4602 C 0.06439 0.26565 0.83133 0.0
C4603 C 0.07444 0.25782 0.82107 0.0
C4604 C 0.08697 0.24898 0.82696 0.0
C4605 C 0.11227 0.16932 0.85501 0.0
C4606 C 0.11054 0.16475 0.83925 0.0
C4607 C 0.11455 0.18507 0.85894 0.0
C4608 C 0.11535 0.19648 0.84716 0.0
C4609 C 0.11439 0.19185 0.83141 0.0
C4610 C 0.11201 0.17614 0.82748 0.0
C4611 C 0.11584 0.21332 0.85126 0.0
C4612 C 0.10382 0.22284 0.84525 0.0
C4613 C 0.1274 0.21982 0.86158 0.0
C4614 C 0.14089 0.21058 0.86762 0.0
C4615 C 0.15092 0.20266 0.85724 0.0
C4616 C 0.1636 0.19395 0.863 0.0
C4617 C 0.16643 0.19316 0.87912 0.0
C4618 C 0.15661 0.2011 0.88951 0.0
C4619 C 0.14391 0.20981 0.88381 0.0
H4620 H 0.17626 0.18641 0.88356 0.0
H4621 H 0.05471 0.27249 0.82675 0.0
H4622 H 0.57152 0.37828 0.59931 0.0
H4623 H 0.5436 0.38284 0.60462 0.0
H4624 H 0.55416 0.38755 0.65395 0.0
H4625 H 0.58221 0.38269 0.64877 0.0
H4626 H 0.53154 0.3663 0.6489 0.0
H4627 H 0.54059 0.41877 0.6326 0.0
H4628 H 0.55042 0.44005 0.61563 0.0
H4629 H 0.52031 0.42349 0.57814 0.0
H4630 H 0.51046 0.40197 0.5948 0.0
H4631 H 0.44976 0.37453 0.66407 0.0
H4632 H 0.47797 0.38141 0.66238 0.0
H4633 H 0.47593 0.3759 0.61214 0.0
H4634 H 0.44757 0.36935 0.6137 0.0
H4635 H 0.49439 0.40092 0.62059 0.0
H4636 H 0.48898 0.3465 0.63529 0.0
H4637 H 0.47948 0.32461 0.65168 0.0
H4638 H 0.50334 0.34469 0.69172 0.0
H4639 H 0.51282 0.36681 0.67559 0.0
C4640 C 0.568 0.38059 0.61127 0.0
C4641 C 0.57907 0.37993 0.62365 0.0
C4642 C 0.55201 0.38332 0.61427 0.0
C4643 C 0.54681 0.38561 0.62967 0.0
C4644 C 0.55795 0.38582 0.64197 0.0
C4645 C 0.57397 0.38305 0.63898 0.0
C4646 C 0.52957 0.38574 0.63302 0.0
C4647 C 0.52346 0.37416 0.64302 0.0
C4648 C 0.51901 0.39571 0.62501 0.0
C4649 C 0.52485 0.40868 0.61495 0.0
C4650 C 0.53614 0.41959 0.6207 0.0
C4651 C 0.5417 0.43172 0.61114 0.0
C4652 C 0.53601 0.43311 0.59581 0.0
C4653 C 0.52471 0.4224 0.59002 0.0
C4654 C 0.51911 0.41025 0.59953 0.0
C4655 C 0.45529 0.37487 0.65264 0.0
C4656 C 0.44652 0.37121 0.63902 0.0
C4657 C 0.4714 0.37881 0.65171 0.0
C4658 C 0.47906 0.37896 0.63716 0.0
C4659 C 0.47022 0.37585 0.62348 0.0
C4660 C 0.45406 0.37202 0.6244 0.0
C4661 C 0.49648 0.38137 0.63626 0.0
C4662 C 0.50256 0.39334 0.6267 0.0
C4663 C 0.50707 0.37172 0.64461 0.0
C4664 C 0.50144 0.35839 0.65429 0.0
C4665 C 0.4921 0.3463 0.64762 0.0
C4666 C 0.48673 0.33385 0.65685 0.0
C4667 C 0.49076 0.33328 0.67274 0.0
C4668 C 0.5002 0.34516 0.67942 0.0
C4669 C 0.50558 0.35765 0.67024 0.0
H4670 H 0.4866 0.32363 0.67987 0.0
H4671 H 0.54033 0.4425 0.58843 0.0
H4672 H 0.09292 0.35968 0.28596 0.0
H4673 H 0.0989 0.35865 0.25795 0.0
H4674 H 0.14886 0.36468 0.26832 0.0
H4675 H 0.14302 0.36577 0.29628 0.0
H4676 H 0.13763 0.38638 0.24784 0.0
H4677 H 0.13526 0.33062 0.25389 0.0
H4678 H 0.12321 0.30537 0.26166 0.0
H4679 H 0.08408 0.31286 0.23019 0.0
H4680 H 0.09579 0.33827 0.2224 0.0
H4681 H 0.16743 0.38337 0.17252 0.0
H4682 H 0.16213 0.37442 0.19911 0.0
H4683 H 0.11239 0.36853 0.18767 0.0
H4684 H 0.11766 0.37723 0.16083 0.0
H4685 H 0.12319 0.34572 0.20843 0.0
H4686 H 0.1239 0.40158 0.2037 0.0
H4687 H 0.13491 0.42728 0.19592 0.0
H4688 H 0.17573 0.42017 0.22533 0.0
H4689 H 0.16506 0.3943 0.2331 0.0
C4690 C 0.1052 0.36053 0.28228 0.0
C4691 C 0.11749 0.36296 0.2933 0.0
C4692 C 0.1086 0.35985 0.26629 0.0
C4693 C 0.12432 0.36156 0.2611 0.0
C4694 C 0.13665 0.36333 0.27212 0.0
C4695 C 0.13328 0.36395 0.28808 0.0
C4696 C 0.12776 0.36325 0.24423 0.0
C4697 C 0.13474 0.37736 0.23927 0.0
C4698 C 0.1234 0.35171 0.23302 0.0
C4699 C 0.11633 0.33643 0.23768 0.0
C4700 C 0.12402 0.32695 0.24873 0.0
C4701 C 0.11726 0.3126 0.25312 0.0
C4702 C 0.10287 0.30753 0.24645 0.0
C4703 C 0.09522 0.3168 0.23536 0.0
C4704 C 0.10192 0.33118 0.23094 0.0
C4705 C 0.1554 0.37991 0.17556 0.0
C4706 C 0.1429 0.38124 0.16469 0.0
C4707 C 0.15241 0.37478 0.19075 0.0
C4708 C 0.13683 0.37111 0.1954 0.0
C4709 C 0.12448 0.37137 0.18429 0.0
C4710 C 0.1275 0.37639 0.169 0.0
C4711 C 0.13331 0.36872 0.21218 0.0
C4712 C 0.12619 0.35463 0.21707 0.0
C4713 C 0.13736 0.38034 0.2234 0.0
C4714 C 0.14376 0.39594 0.21885 0.0
C4715 C 0.13528 0.40545 0.20841 0.0
C4716 C 0.14145 0.42005 0.20402 0.0
C4717 C 0.15603 0.42533 0.21009 0.0
C4718 C 0.16445 0.41604 0.22061 0.0
C4719 C 0.15835 0.40142 0.22502 0.0
H4720 H 0.16079 0.43664 0.20668 0.0
H4721 H 0.09766 0.29641 0.24986 0.0
H4722 H 0.33805 0.41695 0.92534 0.0
H4723 H 0.34352 0.40903 0.95217 0.0
H4724 H 0.37831 0.37639 0.9356 0.0
H4725 H 0.37231 0.38379 0.90852 0.0
H4726 H 0.36214 0.36324 0.95738 0.0
H4727 H 0.38902 0.41234 0.9532 0.0
H4728 H 0.39227 0.44032 0.94685 0.0
H4729 H 0.35652 0.45186 0.98046 0.0
H4730 H 0.35289 0.42393 0.98686 0.0
H4731 H 0.39393 0.38075 0.04235 0.0
H4732 H 0.39179 0.38759 0.01471 0.0
H4733 H 0.34833 0.36029 0.01094 0.0
H4734 H 0.35079 0.35286 0.03847 0.0
H4735 H 0.37207 0.40311 -0.00122 0.0
H4736 H 0.34357 0.34531 0.97488 0.0
H4737 H 0.34388 0.31707 0.98066 0.0
H4738 H 0.38986 0.32239 0.00228 0.0
H4739 H 0.38992 0.35062 -0.00355 0.0
C4740 C 0.34693 0.40813 0.92739 0.0
C4741 C 0.35484 0.40106 0.91484 0.0
C4742 C 0.35009 0.40366 0.94276 0.0
C4743 C 0.36157 0.39234 0.94595 0.0
C4744 C 0.36944 0.38518 0.93342 0.0
C4745 C 0.36605 0.38945 0.91798 0.0
C4746 C 0.36507 0.38785 0.96237 0.0
C4747 C 0.36439 0.37196 0.96642 0.0
C4748 C 0.36837 0.39917 0.97413 0.0
C4749 C 0.37061 0.41602 0.97042 0.0
C4750 C 0.38179 0.42084 0.95917 0.0
C4751 C 0.3837 0.43669 0.95557 0.0
C4752 C 0.37459 0.44786 0.96322 0.0
C4753 C 0.36357 0.4432 0.97453 0.0
C4754 C 0.36159 0.42736 0.97817 0.0
C4755 C 0.38391 0.3762 0.03563 0.0
C4756 C 0.37256 0.36621 0.04255 0.0
C4757 C 0.3827 0.38013 0.01983 0.0
C4758 C 0.37003 0.37429 0.01067 0.0
C4759 C 0.35844 0.36463 0.01767 0.0
C4760 C 0.3598 0.36046 0.03342 0.0
C4761 C 0.36886 0.37852 0.99386 0.0
C4762 C 0.36994 0.39438 0.98974 0.0
C4763 C 0.36651 0.36712 0.98197 0.0
C4764 C 0.36667 0.35011 0.98535 0.0
C4765 C 0.35377 0.34044 0.98081 0.0
C4766 C 0.35388 0.32444 0.98411 0.0
C4767 C 0.36686 0.31795 0.99187 0.0
C4768 C 0.37979 0.32744 -0.00369 0.0
C4769 C 0.37975 0.34345 0.99303 0.0
H4770 H 0.36691 0.30556 0.99443 0.0
H4771 H 0.37608 0.46012 0.96041 0.0
H4772 H 0.32645 0.60574 0.68261 0.0
H4773 H 0.33711 0.61622 0.70715 0.0
H4774 H 0.38473 0.61328 0.68907 0.0
H4775 H 0.37412 0.60279 0.66428 0.0
H4776 H 0.38096 0.59965 0.71849 0.0
H4777 H 0.37052 0.64822 0.69415 0.0
H4778 H 0.35517 0.6676 0.67932 0.0
H4779 H 0.31977 0.66791 0.71533 0.0
H4780 H 0.33478 0.64836 0.73029 0.0
H4781 H 0.40644 0.63174 0.79163 0.0
H4782 H 0.40306 0.6301 0.76317 0.0
H4783 H 0.35213 0.63036 0.76865 0.0
H4784 H 0.35538 0.63202 0.79706 0.0
H4785 H 0.36244 0.64848 0.74359 0.0
H4786 H 0.37014 0.59663 0.76487 0.0
H4787 H 0.38466 0.57665 0.77971 0.0
H4788 H 0.4247 0.58224 0.74916 0.0
H4789 H 0.41046 0.60244 0.73426 0.0
C4790 C 0.33919 0.60741 0.68377 0.0
C4791 C 0.34945 0.60338 0.67153 0.0
C4792 C 0.34525 0.61351 0.69777 0.0
C4793 C 0.36168 0.61565 0.69983 0.0
C4794 C 0.372 0.61178 0.68762 0.0
C4795 C 0.36592 0.60582 0.67349 0.0
C4796 C 0.36792 0.6209 0.71523 0.0
C4797 C 0.37728 0.61053 0.72384 0.0
C4798 C 0.36285 0.63495 0.72225 0.0
C4799 C 0.35375 0.64674 0.71331 0.0
C4800 C 0.3594 0.65233 0.69886 0.0
C4801 C 0.35077 0.66336 0.69044 0.0
C4802 C 0.33649 0.66897 0.69637 0.0
C4803 C 0.33083 0.66356 0.71075 0.0
C4804 C 0.33941 0.65252 0.71922 0.0
C4805 C 0.39453 0.63167 0.78676 0.0
C4806 C 0.38116 0.63187 0.79657 0.0
C4807 C 0.39263 0.63071 0.77052 0.0
C4808 C 0.37735 0.62998 0.76386 0.0
C4809 C 0.36402 0.63094 0.77358 0.0
C4810 C 0.3659 0.6318 0.78981 0.0
C4811 C 0.37511 0.62706 0.74692 0.0
C4812 C 0.36646 0.63782 0.73806 0.0
C4813 C 0.38078 0.61334 0.73968 0.0
C4814 C 0.38933 0.60119 0.74859 0.0
C4815 C 0.38209 0.5937 0.76141 0.0
C4816 C 0.39026 0.58231 0.76981 0.0
C4817 C 0.40562 0.57821 0.76542 0.0
C4818 C 0.41282 0.58546 0.75257 0.0
C4819 C 0.40471 0.59687 0.74415 0.0
H4820 H 0.41192 0.56939 0.77193 0.0
H4821 H 0.32983 0.67751 0.68983 0.0
H4822 H 0.1012 0.61335 0.54892 0.0
H4823 H 0.09607 0.60843 0.52118 0.0
H4824 H 0.11445 0.65438 0.50994 0.0
H4825 H 0.11955 0.6595 0.53776 0.0
H4826 H 0.08616 0.64665 0.49383 0.0
H4827 H 0.13739 0.62408 0.50465 0.0
H4828 H 0.15608 0.60715 0.51878 0.0
H4829 H 0.12763 0.56674 0.50666 0.0
H4830 H 0.10864 0.58347 0.49263 0.0
H4831 H 0.1119 0.63937 0.41539 0.0
H4832 H 0.1039 0.64421 0.44231 0.0
H4833 H 0.0923 0.59519 0.44786 0.0
H4834 H 0.10101 0.59021 0.42109 0.0
H4835 H 0.11388 0.60311 0.46762 0.0
H4836 H 0.06436 0.62524 0.4536 0.0
H4837 H 0.04577 0.64211 0.43929 0.0
H4838 H 0.07024 0.68299 0.4569 0.0
H4839 H 0.08912 0.66639 0.47115 0.0
C4840 C 0.1042 0.62242 0.54058 0.0
C4841 C 0.11089 0.63679 0.54556 0.0
C4842 C 0.10122 0.61959 0.52474 0.0
C4843 C 0.10491 0.63104 0.51356 0.0
C4844 C 0.11146 0.64543 0.51844 0.0
C4845 C 0.1145 0.64827 0.53431 0.0
C4846 C 0.10249 0.62773 0.49671 0.0
C4847 C 0.09226 0.63721 0.48799 0.0
C4848 C 0.11009 0.6151 0.48932 0.0
C4849 C 0.12151 0.60504 0.49775 0.0
C4850 C 0.13505 0.6116 0.50512 0.0
C4851 C 0.14571 0.60203 0.51308 0.0
C4852 C 0.14302 0.58588 0.51366 0.0
C4853 C 0.12968 0.57925 0.50623 0.0
C4854 C 0.11897 0.58877 0.49826 0.0
C4855 C 0.107 0.62974 0.42212 0.0
C4856 C 0.10732 0.61437 0.41629 0.0
C4857 C 0.10237 0.63252 0.43755 0.0
C4858 C 0.09764 0.62003 0.4472 0.0
C4859 C 0.09607 0.60498 0.44068 0.0
C4860 C 0.10099 0.60215 0.42538 0.0
C4861 C 0.09751 0.62207 0.46447 0.0
C4862 C 0.10742 0.61238 0.47336 0.0
C4863 C 0.08956 0.63448 0.47194 0.0
C4864 C 0.07823 0.64454 0.46337 0.0
C4865 C 0.06586 0.63783 0.45433 0.0
C4866 C 0.05525 0.64735 0.44624 0.0
C4867 C 0.05684 0.66361 0.44716 0.0
C4868 C 0.06902 0.67039 0.4562 0.0
C4869 C 0.07967 0.66093 0.4643 0.0
H4870 H 0.04861 0.67096 0.44089 0.0
H4871 H 0.15129 0.5785 0.51983 0.0
H4872 H 0.09871 0.62279 0.20443 0.0
H4873 H 0.10464 0.62112 0.23241 0.0
H4874 H 0.15466 0.62682 0.22291 0.0
H4875 H 0.14887 0.62869 0.19481 0.0
H4876 H 0.14608 0.60192 0.24455 0.0
H4877 H 0.13709 0.65691 0.23551 0.0
H4878 H 0.12175 0.67926 0.22578 0.0
H4879 H 0.08299 0.66653 0.2559 0.0
H4880 H 0.09802 0.64396 0.26564 0.0
H4881 H 0.17381 0.61546 0.32079 0.0
H4882 H 0.16814 0.61937 0.29306 0.0
H4883 H 0.11801 0.62165 0.30299 0.0
H4884 H 0.12358 0.61801 0.33089 0.0
H4885 H 0.12637 0.64254 0.28098 0.0
H4886 H 0.13321 0.58804 0.28972 0.0
H4887 H 0.14645 0.56436 0.29932 0.0
H4888 H 0.18656 0.57432 0.26991 0.0
H4889 H 0.17362 0.59818 0.26027 0.0
C4890 C 0.11099 0.6236 0.20825 0.0
C4891 C 0.12333 0.62592 0.19742 0.0
C4892 C 0.11433 0.6227 0.22423 0.0
C4893 C 0.13005 0.62398 0.22964 0.0
C4894 C 0.14245 0.62586 0.21888 0.0
C4895 C 0.13911 0.62695 0.20288 0.0
C4896 C 0.13348 0.62354 0.24658 0.0
C4897 C 0.14201 0.61091 0.25251 0.0
C4898 C 0.12761 0.635 0.25693 0.0
C4899 C 0.11863 0.64866 0.25119 0.0
C4900 C 0.12525 0.6588 0.23997 0.0
C4901 C 0.11662 0.67152 0.23447 0.0
C4902 C 0.10139 0.67429 0.24019 0.0
C4903 C 0.09478 0.66436 0.25147 0.0
C4904 C 0.10336 0.65161 0.25699 0.0
C4905 C 0.16158 0.61697 0.31713 0.0
C4906 C 0.14912 0.61624 0.32802 0.0
C4907 C 0.15837 0.61915 0.30126 0.0
C4908 C 0.14264 0.62045 0.29596 0.0
C4909 C 0.13023 0.62057 0.30687 0.0
C4910 C 0.13344 0.61849 0.32279 0.0
C4911 C 0.13915 0.62099 0.27898 0.0
C4912 C 0.13053 0.63358 0.27304 0.0
C4913 C 0.14467 0.60932 0.26864 0.0
C4914 C 0.15251 0.59499 0.27439 0.0
C4915 C 0.14491 0.58525 0.2854 0.0
C4916 C 0.15234 0.57179 0.29082 0.0
C4917 C 0.16736 0.56787 0.28526 0.0
C4918 C 0.17494 0.57739 0.27422 0.0
C4919 C 0.16755 0.59087 0.26876 0.0
H4920 H 0.17309 0.55744 0.28948 0.0
H4921 H 0.09473 0.68414 0.23592 0.0
H4922 H 0.13141 0.36992 0.08219 0.0
H4923 H 0.12032 0.35581 0.05947 0.0
H4924 H 0.12202 0.39837 0.03249 0.0
H4925 H 0.13303 0.41249 0.05497 0.0
H4926 H 0.09421 0.38084 0.0274 0.0
H4927 H 0.15189 0.37324 0.03042 0.0
H4928 H 0.17622 0.3641 0.04356 0.0
H4929 H 0.15637 0.31761 0.04602 0.0
H4930 H 0.13183 0.32655 0.03305 0.0
H4931 H 0.10901 0.37257 0.94838 0.0
H4932 H 0.10765 0.37716 0.97642 0.0
H4933 H 0.10867 0.32743 0.98479 0.0
H4934 H 0.11045 0.32273 0.9565 0.0
H4935 H 0.12953 0.34199 0.00278 0.0
H4936 H 0.07484 0.34861 0.99296 0.0
H4937 H 0.05082 0.35777 0.97935 0.0
H4938 H 0.0641 0.40541 0.98958 0.0
H4939 H 0.08833 0.39657 0.00306 0.0
C4940 C 0.12923 0.37629 0.07146 0.0
C4941 C 0.13325 0.39228 0.07031 0.0
C4942 C 0.1229 0.36822 0.05852 0.0
C4943 C 0.12043 0.37606 0.04432 0.0
C4944 C 0.12379 0.39213 0.04338 0.0
C4945 C 0.13021 0.40015 0.05621 0.0
C4946 C 0.11556 0.36754 0.02994 0.0
C4947 C 0.10184 0.37227 0.02199 0.0
C4948 C 0.12523 0.35594 0.02325 0.0
C4949 C 0.13998 0.35059 0.03098 0.0
C4950 C 0.15268 0.3611 0.03389 0.0
C4951 C 0.16651 0.35595 0.04128 0.0
C4952 C 0.16782 0.3403 0.04568 0.0
C4953 C 0.15532 0.32974 0.04265 0.0
C4954 C 0.14146 0.33484 0.03528 0.0
C4955 C 0.10875 0.36257 0.95614 0.0
C4956 C 0.1099 0.34728 0.95023 0.0
C4957 C 0.10781 0.36521 0.9722 0.0
C4958 C 0.10777 0.35263 0.98272 0.0
C4959 C 0.10856 0.3373 0.97687 0.0
C4960 C 0.10958 0.33464 0.96072 0.0
C4961 C 0.10852 0.35583 -0.00021 0.0
C4962 C 0.12149 0.3501 0.0083 0.0
C4963 C 0.09809 0.36647 0.00701 0.0
C4964 C 0.08345 0.3719 -0.00099 0.0
C4965 C 0.07269 0.36105 0.99224 0.0
C4966 C 0.05903 0.36618 0.98455 0.0
C4967 C 0.05594 0.38216 0.9836 0.0
C4968 C 0.0665 0.39303 0.99035 0.0
C4969 C 0.08019 0.38796 -0.00195 0.0
H4970 H 0.04536 0.38611 0.97763 0.0
H4971 H 0.17853 0.33633 0.05139 0.0
H4972 H 0.33399 0.36517 0.81503 0.0
H4973 H 0.34051 0.35457 0.78936 0.0
H4974 H 0.39042 0.35689 0.80118 0.0
H4975 H 0.38393 0.3675 0.82703 0.0
H4976 H 0.38272 0.3742 0.77541 0.0
H4977 H 0.37381 0.32206 0.79273 0.0
H4978 H 0.35966 0.30032 0.80579 0.0
H4979 H 0.32021 0.30524 0.77414 0.0
H4980 H 0.33402 0.32717 0.76103 0.0
H4981 H 0.40015 0.35506 0.69703 0.0
H4982 H 0.39904 0.3537 0.72552 0.0
H4983 H 0.348 0.34827 0.72318 0.0
H4984 H 0.34906 0.34912 0.69455 0.0
H4985 H 0.35993 0.32958 0.74507 0.0
H4986 H 0.36605 0.38393 0.73119 0.0
H4987 H 0.37881 0.40667 0.71843 0.0
H4988 H 0.42191 0.39859 0.74415 0.0
H4989 H 0.40946 0.37566 0.75692 0.0
C4990 C 0.34633 0.36296 0.81235 0.0
C4991 C 0.35847 0.36731 0.82292 0.0
C4992 C 0.35004 0.35682 0.7977 0.0
C4993 C 0.36595 0.35498 0.79337 0.0
C4994 C 0.37806 0.3582 0.80435 0.0
C4995 C 0.37434 0.36421 0.81911 0.0
C4996 C 0.36981 0.35229 0.7767 0.0
C4997 C 0.37812 0.36421 0.76884 0.0
C4998 C 0.36331 0.33954 0.7681 0.0
C4999 C 0.35494 0.32634 0.77595 0.0
C5000 C 0.36207 0.3186 0.78863 0.0
C5001 C 0.35411 0.30622 0.79602 0.0
C5002 C 0.33904 0.30142 0.79081 0.0
C5003 C 0.33189 0.30897 0.77817 0.0
C5004 C 0.33979 0.32136 0.77073 0.0
C5005 C 0.38867 0.35358 0.70255 0.0
C5006 C 0.37465 0.35238 0.69354 0.0
C5007 C 0.38807 0.35279 0.71885 0.0
C5008 C 0.37342 0.35111 0.72648 0.0
C5009 C 0.35944 0.34957 0.71752 0.0
C5010 C 0.36004 0.35016 0.70118 0.0
C5011 C 0.37262 0.35161 0.74381 0.0
C5012 C 0.36482 0.33936 0.75173 0.0
C5013 C 0.3794 0.36418 0.7525 0.0
C5014 C 0.38689 0.37798 0.74486 0.0
C5015 C 0.37829 0.38693 0.73403 0.0
C5016 C 0.38546 0.39986 0.72681 0.0
C5017 C 0.40118 0.40404 0.73044 0.0
C5018 C 0.40974 0.39532 0.74132 0.0
C5019 C 0.40264 0.38236 0.74856 0.0
H5020 H 0.4067 0.41406 0.72484 0.0
H5021 H 0.3329 0.29183 0.79655 0.0
H5022 H 0.39133 0.66667 0.46446 0.0
H5023 H 0.39689 0.66096 0.49205 0.0
H5024 H 0.39068 0.61162 0.48264 0.0
H5025 H 0.38553 0.61718 0.45519 0.0
H5026 H 0.37653 0.64855 0.51157 0.0
H5027 H 0.41013 0.58935 0.50754 0.0
H5028 H 0.43103 0.57755 0.49144 0.0
H5029 H 0.44904 0.62323 0.47962 0.0
H5030 H 0.4284 0.63533 0.49584 0.0
H5031 H 0.37003 0.58109 0.56647 0.0
H5032 H 0.38127 0.59187 0.54245 0.0
H5033 H 0.39186 0.63534 0.56636 0.0
H5034 H 0.38056 0.62464 0.5905 0.0
H5035 H 0.40974 0.60584 0.53245 0.0
H5036 H 0.37931 0.66441 0.5413 0.0
H5037 H 0.35758 0.67597 0.5566 0.0
H5038 H 0.33311 0.63154 0.55739 0.0
H5039 H 0.35457 0.6198 0.54193 0.0
C5040 C 0.39149 0.6546 0.46824 0.0
C5041 C 0.3879 0.64238 0.45769 0.0
C5042 C 0.39467 0.65136 0.48399 0.0
C5043 C 0.39438 0.63586 0.4894 0.0
C5044 C 0.39136 0.62365 0.47872 0.0
C5045 C 0.38825 0.62686 0.46302 0.0
C5046 C 0.39522 0.63239 0.50639 0.0
C5047 C 0.38417 0.63956 0.51623 0.0
C5048 C 0.40499 0.62047 0.51245 0.0
C5049 C 0.41764 0.61326 0.50288 0.0
C5050 C 0.41861 0.59689 0.50161 0.0
C5051 C 0.4304 0.59015 0.49243 0.0
C5052 C 0.44134 0.59963 0.48449 0.0
C5053 C 0.44053 0.6159 0.48574 0.0
C5054 C 0.42877 0.6227 0.49491 0.0
C5055 C 0.37506 0.59283 0.56673 0.0
C5056 C 0.3742 0.6021 0.5803 0.0
C5057 C 0.38157 0.59894 0.55301 0.0
C5058 C 0.38721 0.61445 0.5526 0.0
C5059 C 0.38744 0.62337 0.56643 0.0
C5060 C 0.38099 0.61723 0.5802 0.0
C5061 C 0.3908 0.62173 0.53731 0.0
C5062 C 0.40257 0.61522 0.52784 0.0
C5063 C 0.3817 0.63426 0.53153 0.0
C5064 C 0.36865 0.6412 0.54068 0.0
C5065 C 0.36927 0.65713 0.54473 0.0
C5066 C 0.35701 0.66371 0.55342 0.0
C5067 C 0.34401 0.65448 0.55802 0.0
C5068 C 0.34321 0.63866 0.55388 0.0
C5069 C 0.35543 0.63204 0.54517 0.0
H5070 H 0.33454 0.65959 0.56475 0.0
H5071 H 0.45045 0.59439 0.47738 0.0
H5072 H 0.14777 0.09681 0.37371 0.0
H5073 H 0.17479 0.08952 0.36645 0.0
H5074 H 0.18954 0.13803 0.36835 0.0
H5075 H 0.16267 0.14543 0.37541 0.0
H5076 H 0.20321 0.12267 0.34384 0.0
H5077 H 0.19489 0.11482 0.39958 0.0
H5078 H 0.18128 0.10341 0.42247 0.0
H5079 H 0.19163 0.0572 0.406 0.0
H5080 H 0.20513 0.06835 0.38289 0.0
H5081 H 0.28479 0.12448 0.36345 0.0
H5082 H 0.25599 0.12679 0.36109 0.0
H5083 H 0.2508 0.07653 0.36253 0.0
H5084 H 0.27959 0.07416 0.36533 0.0
H5085 H 0.23128 0.0893 0.38219 0.0
H5086 H 0.2436 0.09754 0.32848 0.0
H5087 H 0.25754 0.10918 0.30592 0.0
H5088 H 0.24007 0.15447 0.31821 0.0
H5089 H 0.2262 0.14315 0.34099 0.0
C5090 C 0.15672 0.10594 0.37237 0.0
C5091 C 0.15312 0.12167 0.37533 0.0
C5092 C 0.17214 0.10175 0.36824 0.0
C5093 C 0.18418 0.11323 0.36704 0.0
C5094 C 0.18042 0.129 0.36922 0.0
C5095 C 0.16506 0.13318 0.37336 0.0
C5096 C 0.20097 0.1089 0.3648 0.0
C5097 C 0.2094 0.1154 0.3522 0.0
C5098 C 0.20889 0.0991 0.37552 0.0
C5099 C 0.20083 0.0924 0.38943 0.0
C5100 C 0.19415 0.10222 0.40078 0.0
C5101 C 0.18647 0.09581 0.4138 0.0
C5102 C 0.18554 0.07959 0.41566 0.0
C5103 C 0.19233 0.06976 0.40452 0.0
C5104 C 0.2 0.07612 0.39147 0.0
C5105 C 0.27753 0.11392 0.3631 0.0
C5106 C 0.28443 0.09915 0.36465 0.0
C5107 C 0.26107 0.11524 0.36163 0.0
C5108 C 0.25124 0.10182 0.36145 0.0
C5109 C 0.25816 0.08704 0.36262 0.0
C5110 C 0.2746 0.08571 0.36422 0.0
C5111 C 0.23371 0.10329 0.36134 0.0
C5112 C 0.22511 0.09629 0.37356 0.0
C5113 C 0.22568 0.11263 0.35025 0.0
C5114 C 0.23394 0.1195 0.33651 0.0
C5115 C 0.24282 0.11 0.32644 0.0
C5116 C 0.25069 0.11654 0.3136 0.0
C5117 C 0.24971 0.13256 0.31065 0.0
C5118 C 0.24082 0.14207 0.32051 0.0
C5119 C 0.23293 0.13559 0.33338 0.0
H5120 H 0.25582 0.1376 0.3007 0.0
H5121 H 0.1796 0.07464 0.42575 0.0
H5122 H 0.80492 0.35338 0.61463 0.0
H5123 H 0.7759 0.35125 0.61375 0.0
H5124 H 0.77246 0.3998 0.62696 0.0
H5125 H 0.80148 0.40208 0.62782 0.0
H5126 H 0.74968 0.3792 0.64183 0.0
H5127 H 0.7697 0.39246 0.59055 0.0
H5128 H 0.78694 0.38895 0.56758 0.0
H5129 H 0.76695 0.34303 0.55997 0.0
H5130 H 0.74976 0.34618 0.58305 0.0
H5131 H 0.66946 0.38913 0.61529 0.0
H5132 H 0.69801 0.39241 0.62061 0.0
H5133 H 0.7065 0.34725 0.59979 0.0
H5134 H 0.67829 0.34414 0.59406 0.0
H5135 H 0.72694 0.36757 0.58923 0.0
H5136 H 0.70719 0.35339 0.64004 0.0
H5137 H 0.69031 0.35573 0.66342 0.0
H5138 H 0.70966 0.40165 0.67246 0.0
H5139 H 0.72651 0.39967 0.649 0.0
C5140 C 0.79799 0.36354 0.61756 0.0
C5141 C 0.80544 0.37794 0.62112 0.0
C5142 C 0.78145 0.3623 0.61705 0.0
C5143 C 0.77214 0.37541 0.62016 0.0
C5144 C 0.7795 0.38957 0.62453 0.0
C5145 C 0.79605 0.39086 0.62492 0.0
C5146 C 0.7548 0.37466 0.61758 0.0
C5147 C 0.74464 0.37683 0.63033 0.0
C5148 C 0.74836 0.37134 0.6026 0.0
C5149 C 0.75856 0.3695 0.58861 0.0
C5150 C 0.76907 0.38157 0.58405 0.0
C5151 C 0.77882 0.37965 0.571 0.0
C5152 C 0.77807 0.36576 0.56234 0.0
C5153 C 0.76754 0.35377 0.5667 0.0
C5154 C 0.75778 0.35562 0.57975 0.0
C5155 C 0.67746 0.37994 0.61187 0.0
C5156 C 0.67168 0.36642 0.60422 0.0
C5157 C 0.69372 0.38177 0.615 0.0
C5158 C 0.70435 0.37 0.61071 0.0
C5159 C 0.69852 0.3565 0.60316 0.0
C5160 C 0.68238 0.35474 0.5999 0.0
C5161 C 0.72165 0.37181 0.61355 0.0
C5162 C 0.73188 0.36994 0.60078 0.0
C5163 C 0.72809 0.37524 0.62855 0.0
C5164 C 0.71798 0.37645 0.64266 0.0
C5165 C 0.70775 0.36404 0.64694 0.0
C5166 C 0.6982 0.36529 0.66022 0.0
C5167 C 0.69887 0.37885 0.66939 0.0
C5168 C 0.70913 0.39117 0.66533 0.0
C5169 C 0.71869 0.38999 0.65204 0.0
H5170 H 0.69148 0.37979 0.67967 0.0
H5171 H 0.78563 0.36429 0.55225 0.0
H5172 H 0.35898 0.91069 0.37396 0.0
H5173 H 0.34967 0.9362 0.3829 0.0
H5174 H 0.39815 0.95312 0.38591 0.0
H5175 H 0.40752 0.92776 0.37696 0.0
H5176 H 0.37797 0.96628 0.40897 0.0
H5177 H 0.37998 0.95662 0.35254 0.0
H5178 H 0.37285 0.9418 0.32861 0.0
H5179 H 0.32334 0.94956 0.33718 0.0
H5180 H 0.3302 0.96423 0.36131 0.0
H5181 H 0.38301 0.04514 0.38686 0.0
H5182 H 0.3848 0.01691 0.39008 0.0
H5183 H 0.33456 0.01182 0.3806 0.0
H5184 H 0.33269 0.04008 0.37705 0.0
H5185 H 0.35073 0.99147 0.36413 0.0
H5186 H 0.34916 0.00611 0.41764 0.0
H5187 H 0.35639 0.0214 0.4412 0.0
H5188 H 0.40423 0.00484 0.43865 0.0
H5189 H 0.39733 0.98959 0.41493 0.0
C5190 C 0.36767 0.91968 0.37704 0.0
C5191 C 0.38396 0.91736 0.37452 0.0
C5192 C 0.36233 0.93423 0.38213 0.0
C5193 C 0.37323 0.94656 0.38483 0.0
C5194 C 0.38956 0.94374 0.38387 0.0
C5195 C 0.39489 0.92928 0.37866 0.0
C5196 C 0.3678 0.96288 0.386 0.0
C5197 C 0.37196 0.97183 0.39924 0.0
C5198 C 0.35969 0.96998 0.37338 0.0
C5199 C 0.35558 0.96132 0.35881 0.0
C5200 C 0.36757 0.95505 0.34938 0.0
C5201 C 0.36358 0.9467 0.33577 0.0
C5202 C 0.34765 0.9447 0.3314 0.0
C5203 C 0.33568 0.95109 0.3406 0.0
C5204 C 0.3396 0.95941 0.35424 0.0
C5205 C 0.37231 0.03805 0.38552 0.0
C5206 C 0.35772 0.04488 0.38165 0.0
C5207 C 0.37333 0.02191 0.38751 0.0
C5208 C 0.35975 0.01228 0.38583 0.0
C5209 C 0.34515 0.01905 0.38203 0.0
C5210 C 0.34413 0.0352 0.37998 0.0
C5211 C 0.36111 0.99507 0.38703 0.0
C5212 C 0.3563 0.98593 0.37413 0.0
C5213 C 0.36855 0.98785 0.4 0.0
C5214 C 0.37274 -0.00323 0.41443 0.0
C5215 C 0.36125 0.00579 0.42204 0.0
C5216 C 0.36529 0.01445 0.43544 0.0
C5217 C 0.38078 0.01413 0.4414 0.0
C5218 C 0.39224 0.00508 0.43401 0.0
C5219 C 0.38826 -0.0036 0.42061 0.0
H5220 H 0.38389 0.02087 0.45175 0.0
H5221 H 0.34458 0.93823 0.32086 0.0
H5222 H 0.81235 0.65214 0.09475 0.0
H5223 H 0.78392 0.64627 0.09586 0.0
H5224 H 0.79371 0.59949 0.11157 0.0
H5225 H 0.82238 0.60533 0.11067 0.0
H5226 H 0.76972 0.60252 0.08633 0.0
H5227 H 0.78255 0.62194 0.13789 0.0
H5228 H 0.79459 0.64055 0.15679 0.0
H5229 H 0.76564 0.67728 0.13859 0.0
H5230 H 0.75359 0.65894 0.1194 0.0
H5231 H 0.68921 0.58719 0.1081 0.0
H5232 H 0.71813 0.58925 0.1066 0.0
H5233 H 0.715 0.63941 0.10238 0.0
H5234 H 0.68611 0.63747 0.10448 0.0
H5235 H 0.73636 0.63266 0.12306 0.0
H5236 H 0.72442 0.61471 0.07085 0.0
H5237 H 0.71261 0.59714 0.05084 0.0
H5238 H 0.73978 0.55895 0.0687 0.0
H5239 H 0.75159 0.57624 0.08897 0.0
C5240 C 0.80849 0.64059 0.09842 0.0
C5241 C 0.81956 0.62921 0.10271 0.0
C5242 C 0.79227 0.63727 0.09905 0.0
C5243 C 0.78682 0.6225 0.10387 0.0
C5244 C 0.79778 0.61096 0.10783 0.0
C5245 C 0.81409 0.61433 0.10738 0.0
C5246 C 0.76959 0.61943 0.10505 0.0
C5247 C 0.76239 0.60886 0.09452 0.0
C5248 C 0.76014 0.62806 0.11549 0.0
C5249 C 0.76726 0.63909 0.12712 0.0
C5250 C 0.77884 0.63402 0.13783 0.0
C5251 C 0.78565 0.64451 0.14861 0.0
C5252 C 0.78091 0.6601 0.14887 0.0
C5253 C 0.76931 0.66521 0.13837 0.0
C5254 C 0.76247 0.65476 0.12755 0.0
C5255 C 0.69468 0.59864 0.10667 0.0
C5256 C 0.68541 0.61218 0.10643 0.0
C5257 C 0.71121 0.5998 0.10577 0.0
C5258 C 0.71872 0.61448 0.10425 0.0
C5259 C 0.70945 0.62797 0.10361 0.0
C5260 C 0.69295 0.62685 0.10476 0.0
C5261 C 0.73628 0.61592 0.1041 0.0
C5262 C 0.7436 0.62619 0.11489 0.0
C5263 C 0.74579 0.60714 0.09376 0.0
C5264 C 0.73876 0.59674 0.08153 0.0
C5265 C 0.72778 0.60254 0.07059 0.0
C5266 C 0.72111 0.59263 0.05919 0.0
C5267 C 0.72541 0.57693 0.05853 0.0
C5268 C 0.73644 0.57111 0.06924 0.0
C5269 C 0.74314 0.58096 0.08068 0.0
H5270 H 0.72023 0.56928 0.04969 0.0
H5271 H 0.7862 0.66821 0.15722 0.0
H5272 H 0.61314 0.59472 0.38372 0.0
H5273 H 0.62119 0.5696 0.39498 0.0
H5274 H 0.59968 0.54539 0.35555 0.0
H5275 H 0.59099 0.57007 0.34489 0.0
H5276 H 0.59362 0.5296 0.37948 0.0
H5277 H 0.64172 0.55498 0.35959 0.0
H5278 H 0.66221 0.5759 0.35859 0.0
H5279 H 0.67305 0.56877 0.40724 0.0
H5280 H 0.65249 0.5479 0.40855 0.0
H5281 H 0.65981 0.47106 0.36676 0.0
H5282 H 0.65196 0.49822 0.36983 0.0
H5283 H 0.6174 0.4843 0.40451 0.0
H5284 H 0.6246 0.45692 0.40072 0.0
H5285 H 0.65066 0.52009 0.39006 0.0
H5286 H 0.58469 0.50598 0.40116 0.0
H5287 H 0.56502 0.48462 0.39696 0.0
H5288 H 0.59125 0.46858 0.35717 0.0
H5289 H 0.61096 0.48993 0.36106 0.0
C5290 C 0.61003 0.58398 0.37761 0.0
C5291 C 0.60145 0.58433 0.36345 0.0
C5292 C 0.61468 0.56965 0.38399 0.0
C5293 C 0.61118 0.55556 0.37606 0.0
C5294 C 0.60243 0.55602 0.36202 0.0
C5295 C 0.59751 0.57019 0.35588 0.0
C5296 C 0.61693 0.54022 0.38171 0.0
C5297 C 0.60608 0.52758 0.38198 0.0
C5298 C 0.63317 0.53749 0.38499 0.0
C5299 C 0.64545 0.55005 0.38422 0.0
C5300 C 0.6484 0.55796 0.37009 0.0
C5301 C 0.66003 0.56979 0.36947 0.0
C5302 C 0.66888 0.5737 0.38286 0.0
C5303 C 0.66615 0.56576 0.39689 0.0
C5304 C 0.65452 0.55393 0.39758 0.0
C5305 C 0.65067 0.47382 0.37518 0.0
C5306 C 0.6426 0.4619 0.38329 0.0
C5307 C 0.64624 0.48937 0.377 0.0
C5308 C 0.63386 0.49331 0.38718 0.0
C5309 C 0.6267 0.48152 0.39628 0.0
C5310 C 0.63084 0.46589 0.39414 0.0
C5311 C 0.62749 0.50942 0.38689 0.0
C5312 C 0.63816 0.52218 0.3879 0.0
C5313 C 0.61118 0.51222 0.38403 0.0
C5314 C 0.59938 0.49939 0.38155 0.0
C5315 C 0.58623 0.49789 0.39152 0.0
C5316 C 0.57508 0.48579 0.38919 0.0
C5317 C 0.57692 0.47521 0.37685 0.0
C5318 C 0.58988 0.47674 0.36677 0.0
C5319 C 0.60104 0.48882 0.36903 0.0
H5320 H 0.56829 0.46585 0.37507 0.0
H5321 H 0.67789 0.58286 0.38235 0.0
H5322 H 0.19936 0.90587 0.87972 0.0
H5323 H 0.22828 0.90463 0.8784 0.0
H5324 H 0.22457 0.85915 0.85658 0.0
H5325 H 0.19559 0.86018 0.85797 0.0
H5326 H 0.24699 0.86018 0.87961 0.0
H5327 H 0.23298 0.89086 0.83475 0.0
H5328 H 0.22004 0.91249 0.82084 0.0
H5329 H 0.24698 0.94589 0.84816 0.0
H5330 H 0.25993 0.92445 0.8624 0.0
H5331 H 0.32642 0.85351 0.85961 0.0
H5332 H 0.29792 0.8565 0.85533 0.0
H5333 H 0.30059 0.9028 0.87551 0.0
H5334 H 0.32931 0.90008 0.87929 0.0
H5335 H 0.27858 0.90132 0.85245 0.0
H5336 H 0.29149 0.87107 0.89818 0.0
H5337 H 0.30451 0.84969 0.91245 0.0
H5338 H 0.27942 0.81579 0.88407 0.0
H5339 H 0.26641 0.83698 0.86949 0.0
C5340 C 0.20466 0.89555 0.8747 0.0
C5341 C 0.19514 0.88314 0.8689 0.0
C5342 C 0.2212 0.89492 0.87386 0.0
C5343 C 0.22852 0.88191 0.86717 0.0
C5344 C 0.21911 0.86933 0.86172 0.0
C5345 C 0.20256 0.86995 0.86252 0.0
C5346 C 0.24604 0.88133 0.86605 0.0
C5347 C 0.25388 0.86904 0.87347 0.0
C5348 C 0.25502 0.89312 0.85835 0.0
C5349 C 0.24732 0.90604 0.84974 0.0
C5350 C 0.23606 0.90281 0.83788 0.0
C5351 C 0.22873 0.91504 0.82992 0.0
C5352 C 0.23265 0.93056 0.83364 0.0
C5353 C 0.24394 0.93387 0.8453 0.0
C5354 C 0.25129 0.92168 0.85331 0.0
C5355 C 0.32099 0.86448 0.86278 0.0
C5356 C 0.32998 0.87649 0.86997 0.0
C5357 C 0.30471 0.86614 0.86039 0.0
C5358 C 0.29709 0.87968 0.86554 0.0
C5359 C 0.30624 0.8922 0.87158 0.0
C5360 C 0.32263 0.89065 0.87372 0.0
C5361 C 0.27951 0.88014 0.86598 0.0
C5362 C 0.27167 0.89242 0.85851 0.0
C5363 C 0.2705 0.86838 0.87371 0.0
C5364 C 0.27809 0.85561 0.88266 0.0
C5365 C 0.28881 0.85905 0.89493 0.0
C5366 C 0.29619 0.84697 0.90308 0.0
C5367 C 0.29282 0.83139 0.89914 0.0
C5368 C 0.28203 0.82786 0.88709 0.0
C5369 C 0.27464 0.8399 0.87889 0.0
H5370 H 0.29855 0.82205 0.90545 0.0
H5371 H 0.22697 0.94001 0.82746 0.0
H5372 H 0.33971 0.94723 0.10613 0.0
H5373 H 0.3433 0.97568 0.1051 0.0
H5374 H 0.394 0.97045 0.10998 0.0
H5375 H 0.39053 0.9421 0.11118 0.0
H5376 H 0.38235 0.99075 0.13096 0.0
H5377 H 0.37741 0.98127 0.07537 0.0
H5378 H 0.36419 0.97137 0.05139 0.0
H5379 H 0.32422 0.00068 0.06023 0.0
H5380 H 0.33712 0.01061 0.0844 0.0
H5381 H 0.41533 0.06279 0.11731 0.0
H5382 H 0.40659 0.03653 0.1098 0.0
H5383 H 0.35766 0.05012 0.11391 0.0
H5384 H 0.36632 0.07666 0.12144 0.0
H5385 H 0.36522 0.02652 0.08859 0.0
H5386 H 0.37015 0.03599 0.14406 0.0
H5387 H 0.38362 0.04627 0.16776 0.0
H5388 H 0.42337 0.01662 0.15911 0.0
H5389 H 0.41025 0.00638 0.13518 0.0
C5390 C 0.35164 0.95215 0.10683 0.0
C5391 C 0.36485 0.94245 0.10885 0.0
C5392 C 0.35366 0.96839 0.10616 0.0
C5393 C 0.36891 0.97514 0.10742 0.0
C5394 C 0.38213 0.96545 0.10901 0.0
C5395 C 0.38012 0.94926 0.1097 0.0
C5396 C 0.37116 0.99231 0.10826 0.0
C5397 C 0.37871 -0.00148 0.12162 0.0
C5398 C 0.3659 0.00249 0.09631 0.0
C5399 C 0.35815 -0.00345 0.08179 0.0
C5400 C 0.36574 0.9855 0.07228 0.0
C5401 C 0.35831 0.97991 0.05864 0.0
C5402 C 0.34335 0.98535 0.05432 0.0
C5403 C 0.3358 -0.00355 0.06361 0.0
C5404 C 0.34316 0.00207 0.07727 0.0
C5405 C 0.40269 0.06035 0.11625 0.0
C5406 C 0.3915 0.07168 0.12028 0.0
C5407 C 0.39774 0.04536 0.11188 0.0
C5408 C 0.38152 0.0414 0.11155 0.0
C5409 C 0.37023 0.05302 0.11411 0.0
C5410 C 0.37521 0.06814 0.11845 0.0
C5411 C 0.37676 0.02473 0.11107 0.0
C5412 C 0.3687 0.01868 0.09792 0.0
C5413 C 0.38146 0.01459 0.12324 0.0
C5414 C 0.38928 0.02053 0.13776 0.0
C5415 C 0.38182 0.03176 0.14715 0.0
C5416 C 0.38938 0.03756 0.16063 0.0
C5417 C 0.40436 0.03212 0.16492 0.0
C5418 C 0.41178 0.02083 0.15576 0.0
C5419 C 0.40428 0.01502 0.14224 0.0
H5420 H 0.4102 0.03663 0.17536 0.0
H5421 H 0.33762 0.98101 0.04375 0.0
H5422 H 0.11755 0.91483 0.61631 0.0
H5423 H 0.12829 0.93933 0.60571 0.0
H5424 H 0.08219 0.9603 0.6099 0.0
H5425 H 0.07131 0.9359 0.62021 0.0
H5426 H 0.09744 0.97041 0.58375 0.0
H5427 H 0.10952 0.96346 0.63934 0.0
H5428 H 0.12134 0.94959 0.66177 0.0
H5429 H 0.16742 0.95327 0.6406 0.0
H5430 H 0.15581 0.967 0.61795 0.0
H5431 H 0.10338 0.04886 0.60634 0.0
H5432 H 0.09943 0.02083 0.60234 0.0
H5433 H 0.15006 0.01516 0.59769 0.0
H5434 H 0.15414 0.04328 0.60189 0.0
H5435 H 0.13785 0.9954 0.61865 0.0
H5436 H 0.12581 0.00881 0.56626 0.0
H5437 H 0.11345 0.02361 0.54479 0.0
H5438 H 0.06714 0.00859 0.55999 0.0
H5439 H 0.07918 0.99391 0.58172 0.0
C5440 C 0.10963 0.92457 0.61471 0.0
C5441 C 0.09363 0.9235 0.61935 0.0
C5442 C 0.11579 0.93855 0.60865 0.0
C5443 C 0.10607 0.95167 0.60724 0.0
C5444 C 0.08989 0.9503 0.6109 0.0
C5445 C 0.08372 0.93636 0.6169 0.0
C5446 C 0.11289 0.96729 0.60366 0.0
C5447 C 0.10632 0.97591 0.59131 0.0
C5448 C 0.12481 0.97426 0.61327 0.0
C5449 C 0.13178 0.96605 0.62688 0.0
C5450 C 0.12215 0.9612 0.63943 0.0
C5451 C 0.12882 0.95339 0.65218 0.0
C5452 C 0.14512 0.9505 0.65258 0.0
C5453 C 0.15479 0.95547 0.64025 0.0
C5454 C 0.14818 0.96327 0.62746 0.0
C5455 C 0.11367 0.0417 0.60426 0.0
C5456 C 0.12908 0.04824 0.60454 0.0
C5457 C 0.11138 0.02569 0.60184 0.0
C5458 C 0.12444 0.01594 0.59954 0.0
C5459 C 0.13982 0.02251 0.59936 0.0
C5460 C 0.14213 0.03855 0.60177 0.0
C5461 C 0.12199 -0.00123 0.59907 0.0
C5462 C 0.12936 0.98984 0.6107 0.0
C5463 C 0.11077 0.99159 0.58884 0.0
C5464 C 0.10342 0.00028 0.57568 0.0
C5465 C 0.11298 0.00873 0.56509 0.0
C5466 C 0.10603 0.01709 0.55286 0.0
C5467 C 0.08952 0.01704 0.55103 0.0
C5468 C 0.07993 0.00861 0.56141 0.0
C5469 C 0.08682 0.00023 0.57368 0.0
H5470 H 0.08416 0.02353 0.54156 0.0
H5471 H 0.15025 0.94445 0.66246 0.0
loop_
_geom_bond_atom_site_label_1
_geom_bond_atom_site_label_2
_geom_bond_distance
_geom_bond_site_symmetry_2
_ccdc_geom_bond_type
C0 O1 1.306 . S
C0 O3 1.160 . S
O1 C0 1.306 . S
O1 Cd2 2.228 . S
Cd2 O1 2.228 . S
Cd2 O6 2.273 . S
Cd2 O10 2.277 . S
O3 C0 1.160 . S
O3 Cd4 2.203 . S
Cd4 O3 2.203 . S
Cd4 O6 2.411 . S
Cd4 O7 2.333 . S
Cd4 O8 2.352 . S
Cd4 O12 2.277 . S
Cd4 O13 2.356 . S
C5 O10 1.209 . S
C5 O12 1.226 . S
O6 Cd2 2.273 . S
O6 Cd4 2.411 . S
O6 C9 1.320 . S
O7 Cd4 2.333 . S
O7 C9 1.214 . S
O8 Cd4 2.352 . S
O8 C11 1.258 . S
C9 O6 1.320 . S
C9 O7 1.214 . S
O10 Cd2 2.277 . S
O10 C5 1.209 . S
C11 O8 1.258 . S
C11 O13 1.282 . S
O12 Cd4 2.277 . S
O12 C5 1.226 . S
O13 Cd4 2.356 . S
O13 C11 1.282 . S
C14 O15 1.306 . S
C14 O17 1.160 . S
O15 C14 1.306 . S
O15 Cd16 2.228 . S
Cd16 O15 2.228 . S
Cd16 O20 2.273 . S
Cd16 O24 2.277 . S
O17 C14 1.160 . S
O17 Cd18 2.203 . S
Cd18 O17 2.203 . S
Cd18 O20 2.411 . S
Cd18 O21 2.333 . S
Cd18 O22 2.352 . S
Cd18 O26 2.277 . S
Cd18 O27 2.356 . S
C19 O24 1.209 . S
C19 O26 1.226 . S
O20 Cd16 2.273 . S
O20 Cd18 2.411 . S
O20 C23 1.320 . S
O21 Cd18 2.333 . S
O21 C23 1.214 . S
O22 Cd18 2.352 . S
O22 C25 1.258 . S
C23 O20 1.320 . S
C23 O21 1.214 . S
O24 Cd16 2.277 . S
O24 C19 1.209 . S
C25 O22 1.258 . S
C25 O27 1.282 . S
O26 Cd18 2.277 . S
O26 C19 1.226 . S
O27 Cd18 2.356 . S
O27 C25 1.282 . S
C28 O29 1.306 . S
C28 O31 1.160 . S
O29 C28 1.306 . S
O29 Cd30 2.228 . S
Cd30 O29 2.228 . S
Cd30 O34 2.273 . S
Cd30 O38 2.277 . S
O31 C28 1.160 . S
O31 Cd32 2.203 . S
Cd32 O31 2.203 . S
Cd32 O34 2.411 . S
Cd32 O35 2.333 . S
Cd32 O36 2.352 . S
Cd32 O40 2.277 . S
Cd32 O41 2.356 . S
C33 O38 1.209 . S
C33 O40 1.226 . S
O34 Cd30 2.273 . S
O34 Cd32 2.411 . S
O34 C37 1.320 . S
O35 Cd32 2.333 . S
O35 C37 1.214 . S
O36 Cd32 2.352 . S
O36 C39 1.258 . S
C37 O34 1.320 . S
C37 O35 1.214 . S
O38 Cd30 2.277 . S
O38 C33 1.209 . S
C39 O36 1.258 . S
C39 O41 1.282 . S
O40 Cd32 2.277 . S
O40 C33 1.226 . S
O41 Cd32 2.356 . S
O41 C39 1.282 . S
C42 O43 1.306 . S
C42 O45 1.160 . S
O43 C42 1.306 . S
O43 Cd44 2.228 . S
Cd44 O43 2.228 . S
Cd44 O48 2.273 . S
Cd44 O52 2.277 . S
O45 C42 1.160 . S
O45 Cd46 2.203 . S
Cd46 O45 2.203 . S
Cd46 O48 2.411 . S
Cd46 O49 2.333 . S
Cd46 O50 2.352 . S
Cd46 O54 2.277 . S
Cd46 O55 2.356 . S
C47 O52 1.209 . S
C47 O54 1.226 . S
O48 Cd44 2.273 . S
O48 Cd46 2.411 . S
O48 C51 1.320 . S
O49 Cd46 2.333 . S
O49 C51 1.214 . S
O50 Cd46 2.352 . S
O50 C53 1.258 . S
C51 O48 1.320 . S
C51 O49 1.214 . S
O52 Cd44 2.277 . S
O52 C47 1.209 . S
C53 O50 1.258 . S
C53 O55 1.282 . S
O54 Cd46 2.277 . S
O54 C47 1.226 . S
O55 Cd46 2.356 . S
O55 C53 1.282 . S
C56 O57 1.306 . S
C56 O59 1.160 . S
O57 C56 1.306 . S
O57 Cd58 2.228 . S
Cd58 O57 2.228 . S
Cd58 O62 2.273 . S
Cd58 O66 2.277 . S
O59 C56 1.160 . S
O59 Cd60 2.203 . S
Cd60 O59 2.203 . S
Cd60 O62 2.411 . S
Cd60 O63 2.333 . S
Cd60 O64 2.352 . S
Cd60 O68 2.277 . S
Cd60 O69 2.356 . S
C61 O66 1.209 . S
C61 O68 1.226 . S
O62 Cd58 2.273 . S
O62 Cd60 2.411 . S
O62 C65 1.320 . S
O63 Cd60 2.333 . S
O63 C65 1.214 . S
O64 Cd60 2.352 . S
O64 C67 1.258 . S
C65 O62 1.320 . S
C65 O63 1.214 . S
O66 Cd58 2.277 . S
O66 C61 1.209 . S
C67 O64 1.258 . S
C67 O69 1.282 . S
O68 Cd60 2.277 . S
O68 C61 1.226 . S
O69 Cd60 2.356 . S
O69 C67 1.282 . S
C70 O71 1.306 . S
C70 O73 1.160 . S
O71 C70 1.306 . S
O71 Cd72 2.228 . S
Cd72 O71 2.228 . S
Cd72 O76 2.273 . S
Cd72 O80 2.277 . S
O73 C70 1.160 . S
O73 Cd74 2.203 . S
Cd74 O73 2.203 . S
Cd74 O76 2.411 . S
Cd74 O77 2.333 . S
Cd74 O78 2.352 . S
Cd74 O82 2.277 . S
Cd74 O83 2.356 . S
C75 O80 1.209 . S
C75 O82 1.226 . S
O76 Cd72 2.273 . S
O76 Cd74 2.411 . S
O76 C79 1.320 . S
O77 Cd74 2.333 . S
O77 C79 1.214 . S
O78 Cd74 2.352 . S
O78 C81 1.258 . S
C79 O76 1.320 . S
C79 O77 1.214 . S
O80 Cd72 2.277 . S
O80 C75 1.209 . S
C81 O78 1.258 . S
C81 O83 1.282 . S
O82 Cd74 2.277 . S
O82 C75 1.226 . S
O83 Cd74 2.356 . S
O83 C81 1.282 . S
C84 O85 1.306 . S
C84 O87 1.160 . S
O85 C84 1.306 . S
O85 Cd86 2.228 . S
Cd86 O85 2.228 . S
Cd86 O90 2.273 . S
Cd86 O94 2.277 . S
O87 C84 1.160 . S
O87 Cd88 2.203 . S
Cd88 O87 2.203 . S
Cd88 O90 2.411 . S
Cd88 O91 2.333 . S
Cd88 O92 2.352 . S
Cd88 O96 2.277 . S
Cd88 O97 2.356 . S
C89 O94 1.209 . S
C89 O96 1.226 . S
O90 Cd86 2.273 . S
O90 Cd88 2.411 . S
O90 C93 1.320 . S
O91 Cd88 2.333 . S
O91 C93 1.214 . S
O92 Cd88 2.352 . S
O92 C95 1.258 . S
C93 O90 1.320 . S
C93 O91 1.214 . S
O94 Cd86 2.277 . S
O94 C89 1.209 . S
C95 O92 1.258 . S
C95 O97 1.282 . S
O96 Cd88 2.277 . S
O96 C89 1.226 . S
O97 Cd88 2.356 . S
O97 C95 1.282 . S
C98 O99 1.306 . S
C98 O101 1.160 . S
O99 C98 1.306 . S
O99 Cd100 2.228 . S
Cd100 O99 2.228 . S
Cd100 O104 2.273 . S
Cd100 O108 2.277 . S
O101 C98 1.160 . S
O101 Cd102 2.203 . S
Cd102 O101 2.203 . S
Cd102 O104 2.411 . S
Cd102 O105 2.333 . S
Cd102 O106 2.352 . S
Cd102 O110 2.277 . S
Cd102 O111 2.356 . S
C103 O108 1.209 . S
C103 O110 1.226 . S
O104 Cd100 2.273 . S
O104 Cd102 2.411 . S
O104 C107 1.320 . S
O105 Cd102 2.333 . S
O105 C107 1.214 . S
O106 Cd102 2.352 . S
O106 C109 1.258 . S
C107 O104 1.320 . S
C107 O105 1.214 . S
O108 Cd100 2.277 . S
O108 C103 1.209 . S
C109 O106 1.258 . S
C109 O111 1.282 . S
O110 Cd102 2.277 . S
O110 C103 1.226 . S
O111 Cd102 2.356 . S
O111 C109 1.282 . S
C112 O113 1.306 . S
C112 O115 1.160 . S
O113 C112 1.306 . S
O113 Cd114 2.228 . S
Cd114 O113 2.228 . S
Cd114 O118 2.273 . S
Cd114 O122 2.277 . S
O115 C112 1.160 . S
O115 Cd116 2.203 . S
Cd116 O115 2.203 . S
Cd116 O118 2.411 . S
Cd116 O119 2.333 . S
Cd116 O120 2.352 . S
Cd116 O124 2.277 . S
Cd116 O125 2.356 . S
C117 O122 1.209 . S
C117 O124 1.226 . S
O118 Cd114 2.273 . S
O118 Cd116 2.411 . S
O118 C121 1.320 . S
O119 Cd116 2.333 . S
O119 C121 1.214 . S
O120 Cd116 2.352 . S
O120 C123 1.258 . S
C121 O118 1.320 . S
C121 O119 1.214 . S
O122 Cd114 2.277 . S
O122 C117 1.209 . S
C123 O120 1.258 . S
C123 O125 1.282 . S
O124 Cd116 2.277 . S
O124 C117 1.226 . S
O125 Cd116 2.356 . S
O125 C123 1.282 . S
C126 O127 1.306 . S
C126 O129 1.160 . S
O127 C126 1.306 . S
O127 Cd128 2.228 . S
Cd128 O127 2.228 . S
Cd128 O132 2.273 . S
Cd128 O136 2.277 . S
O129 C126 1.160 . S
O129 Cd130 2.203 . S
Cd130 O129 2.203 . S
Cd130 O132 2.411 . S
Cd130 O133 2.333 . S
Cd130 O134 2.352 . S
Cd130 O138 2.277 . S
Cd130 O139 2.356 . S
C131 O136 1.209 . S
C131 O138 1.226 . S
O132 Cd128 2.273 . S
O132 Cd130 2.411 . S
O132 C135 1.320 . S
O133 Cd130 2.333 . S
O133 C135 1.214 . S
O134 Cd130 2.352 . S
O134 C137 1.258 . S
C135 O132 1.320 . S
C135 O133 1.214 . S
O136 Cd128 2.277 . S
O136 C131 1.209 . S
C137 O134 1.258 . S
C137 O139 1.282 . S
O138 Cd130 2.277 . S
O138 C131 1.226 . S
O139 Cd130 2.356 . S
O139 C137 1.282 . S
C140 O141 1.306 . S
C140 O143 1.160 . S
O141 C140 1.306 . S
O141 Cd142 2.228 . S
Cd142 O141 2.228 . S
Cd142 O146 2.273 . S
Cd142 O150 2.277 . S
O143 C140 1.160 . S
O143 Cd144 2.203 . S
Cd144 O143 2.203 . S
Cd144 O146 2.411 . S
Cd144 O147 2.333 . S
Cd144 O148 2.352 . S
Cd144 O152 2.277 . S
Cd144 O153 2.356 . S
C145 O150 1.209 . S
C145 O152 1.226 . S
O146 Cd142 2.273 . S
O146 Cd144 2.411 . S
O146 C149 1.320 . S
O147 Cd144 2.333 . S
O147 C149 1.214 . S
O148 Cd144 2.352 . S
O148 C151 1.258 . S
C149 O146 1.320 . S
C149 O147 1.214 . S
O150 Cd142 2.277 . S
O150 C145 1.209 . S
C151 O148 1.258 . S
C151 O153 1.282 . S
O152 Cd144 2.277 . S
O152 C145 1.226 . S
O153 Cd144 2.356 . S
O153 C151 1.282 . S
C154 O155 1.306 . S
C154 O157 1.160 . S
O155 C154 1.306 . S
O155 Cd156 2.228 . S
Cd156 O155 2.228 . S
Cd156 O160 2.273 . S
Cd156 O164 2.277 . S
O157 C154 1.160 . S
O157 Cd158 2.203 . S
Cd158 O157 2.203 . S
Cd158 O160 2.411 . S
Cd158 O161 2.333 . S
Cd158 O162 2.352 . S
Cd158 O166 2.277 . S
Cd158 O167 2.356 . S
C159 O164 1.209 . S
C159 O166 1.226 . S
O160 Cd156 2.273 . S
O160 Cd158 2.411 . S
O160 C163 1.320 . S
O161 Cd158 2.333 . S
O161 C163 1.214 . S
O162 Cd158 2.352 . S
O162 C165 1.258 . S
C163 O160 1.320 . S
C163 O161 1.214 . S
O164 Cd156 2.277 . S
O164 C159 1.209 . S
C165 O162 1.258 . S
C165 O167 1.282 . S
O166 Cd158 2.277 . S
O166 C159 1.226 . S
O167 Cd158 2.356 . S
O167 C165 1.282 . S
C168 O169 1.306 . S
C168 O171 1.160 . S
O169 C168 1.306 . S
O169 Cd170 2.228 . S
Cd170 O169 2.228 . S
Cd170 O174 2.273 . S
Cd170 O178 2.277 . S
O171 C168 1.160 . S
O171 Cd172 2.203 . S
Cd172 O171 2.203 . S
Cd172 O174 2.411 . S
Cd172 O175 2.333 . S
Cd172 O176 2.352 . S
Cd172 O180 2.277 . S
Cd172 O181 2.356 . S
C173 O178 1.209 . S
C173 O180 1.226 . S
O174 Cd170 2.273 . S
O174 Cd172 2.411 . S
O174 C177 1.320 . S
O175 Cd172 2.333 . S
O175 C177 1.214 . S
O176 Cd172 2.352 . S
O176 C179 1.258 . S
C177 O174 1.320 . S
C177 O175 1.214 . S
O178 Cd170 2.277 . S
O178 C173 1.209 . S
C179 O176 1.258 . S
C179 O181 1.282 . S
O180 Cd172 2.277 . S
O180 C173 1.226 . S
O181 Cd172 2.356 . S
O181 C179 1.282 . S
C182 O183 1.306 . S
C182 O185 1.160 . S
O183 C182 1.306 . S
O183 Cd184 2.228 . S
Cd184 O183 2.228 . S
Cd184 O188 2.273 . S
Cd184 O192 2.277 . S
O185 C182 1.160 . S
O185 Cd186 2.203 . S
Cd186 O185 2.203 . S
Cd186 O188 2.411 . S
Cd186 O189 2.333 . S
Cd186 O190 2.352 . S
Cd186 O194 2.277 . S
Cd186 O195 2.356 . S
C187 O192 1.209 . S
C187 O194 1.226 . S
O188 Cd184 2.273 . S
O188 Cd186 2.411 . S
O188 C191 1.320 . S
O189 Cd186 2.333 . S
O189 C191 1.214 . S
O190 Cd186 2.352 . S
O190 C193 1.258 . S
C191 O188 1.320 . S
C191 O189 1.214 . S
O192 Cd184 2.277 . S
O192 C187 1.209 . S
C193 O190 1.258 . S
C193 O195 1.282 . S
O194 Cd186 2.277 . S
O194 C187 1.226 . S
O195 Cd186 2.356 . S
O195 C193 1.282 . S
C196 O197 1.306 . S
C196 O199 1.160 . S
O197 C196 1.306 . S
O197 Cd198 2.228 . S
Cd198 O197 2.228 . S
Cd198 O202 2.273 . S
Cd198 O206 2.277 . S
O199 C196 1.160 . S
O199 Cd200 2.203 . S
Cd200 O199 2.203 . S
Cd200 O202 2.411 . S
Cd200 O203 2.333 . S
Cd200 O204 2.352 . S
Cd200 O208 2.277 . S
Cd200 O209 2.356 . S
C201 O206 1.209 . S
C201 O208 1.226 . S
O202 Cd198 2.273 . S
O202 Cd200 2.411 . S
O202 C205 1.320 . S
O203 Cd200 2.333 . S
O203 C205 1.214 . S
O204 Cd200 2.352 . S
O204 C207 1.258 . S
C205 O202 1.320 . S
C205 O203 1.214 . S
O206 Cd198 2.277 . S
O206 C201 1.209 . S
C207 O204 1.258 . S
C207 O209 1.282 . S
O208 Cd200 2.277 . S
O208 C201 1.226 . S
O209 Cd200 2.356 . S
O209 C207 1.282 . S
C210 O211 1.306 . S
C210 O213 1.160 . S
O211 C210 1.306 . S
O211 Cd212 2.228 . S
Cd212 O211 2.228 . S
Cd212 O216 2.273 . S
Cd212 O220 2.277 . S
O213 C210 1.160 . S
O213 Cd214 2.203 . S
Cd214 O213 2.203 . S
Cd214 O216 2.411 . S
Cd214 O217 2.333 . S
Cd214 O218 2.352 . S
Cd214 O222 2.277 . S
Cd214 O223 2.356 . S
C215 O220 1.209 . S
C215 O222 1.226 . S
O216 Cd212 2.273 . S
O216 Cd214 2.411 . S
O216 C219 1.320 . S
O217 Cd214 2.333 . S
O217 C219 1.214 . S
O218 Cd214 2.352 . S
O218 C221 1.258 . S
C219 O216 1.320 . S
C219 O217 1.214 . S
O220 Cd212 2.277 . S
O220 C215 1.209 . S
C221 O218 1.258 . S
C221 O223 1.282 . S
O222 Cd214 2.277 . S
O222 C215 1.226 . S
O223 Cd214 2.356 . S
O223 C221 1.282 . S
C224 O225 1.306 . S
C224 O227 1.160 . S
O225 C224 1.306 . S
O225 Cd226 2.228 . S
Cd226 O225 2.228 . S
Cd226 O230 2.273 . S
Cd226 O234 2.277 . S
O227 C224 1.160 . S
O227 Cd228 2.203 . S
Cd228 O227 2.203 . S
Cd228 O230 2.411 . S
Cd228 O231 2.333 . S
Cd228 O232 2.352 . S
Cd228 O236 2.277 . S
Cd228 O237 2.356 . S
C229 O234 1.209 . S
C229 O236 1.226 . S
O230 Cd226 2.273 . S
O230 Cd228 2.411 . S
O230 C233 1.320 . S
O231 Cd228 2.333 . S
O231 C233 1.214 . S
O232 Cd228 2.352 . S
O232 C235 1.258 . S
C233 O230 1.320 . S
C233 O231 1.214 . S
O234 Cd226 2.277 . S
O234 C229 1.209 . S
C235 O232 1.258 . S
C235 O237 1.282 . S
O236 Cd228 2.277 . S
O236 C229 1.226 . S
O237 Cd228 2.356 . S
O237 C235 1.282 . S
C238 O239 1.306 . S
C238 O241 1.160 . S
O239 C238 1.306 . S
O239 Cd240 2.228 . S
Cd240 O239 2.228 . S
Cd240 O244 2.273 . S
Cd240 O248 2.277 . S
O241 C238 1.160 . S
O241 Cd242 2.203 . S
Cd242 O241 2.203 . S
Cd242 O244 2.411 . S
Cd242 O245 2.333 . S
Cd242 O246 2.352 . S
Cd242 O250 2.277 . S
Cd242 O251 2.356 . S
C243 O248 1.209 . S
C243 O250 1.226 . S
O244 Cd240 2.273 . S
O244 Cd242 2.411 . S
O244 C247 1.320 . S
O245 Cd242 2.333 . S
O245 C247 1.214 . S
O246 Cd242 2.352 . S
O246 C249 1.258 . S
C247 O244 1.320 . S
C247 O245 1.214 . S
O248 Cd240 2.277 . S
O248 C243 1.209 . S
C249 O246 1.258 . S
C249 O251 1.282 . S
O250 Cd242 2.277 . S
O250 C243 1.226 . S
O251 Cd242 2.356 . S
O251 C249 1.282 . S
C252 O253 1.306 . S
C252 O255 1.160 . S
O253 C252 1.306 . S
O253 Cd254 2.228 . S
Cd254 O253 2.228 . S
Cd254 O258 2.273 . S
Cd254 O262 2.277 . S
O255 C252 1.160 . S
O255 Cd256 2.203 . S
Cd256 O255 2.203 . S
Cd256 O258 2.411 . S
Cd256 O259 2.333 . S
Cd256 O260 2.352 . S
Cd256 O264 2.277 . S
Cd256 O265 2.356 . S
C257 O262 1.209 . S
C257 O264 1.226 . S
O258 Cd254 2.273 . S
O258 Cd256 2.411 . S
O258 C261 1.320 . S
O259 Cd256 2.333 . S
O259 C261 1.214 . S
O260 Cd256 2.352 . S
O260 C263 1.258 . S
C261 O258 1.320 . S
C261 O259 1.214 . S
O262 Cd254 2.277 . S
O262 C257 1.209 . S
C263 O260 1.258 . S
C263 O265 1.282 . S
O264 Cd256 2.277 . S
O264 C257 1.226 . S
O265 Cd256 2.356 . S
O265 C263 1.282 . S
C266 O267 1.306 . S
C266 O269 1.160 . S
O267 C266 1.306 . S
O267 Cd268 2.228 . S
Cd268 O267 2.228 . S
Cd268 O272 2.273 . S
Cd268 O276 2.277 . S
O269 C266 1.160 . S
O269 Cd270 2.203 . S
Cd270 O269 2.203 . S
Cd270 O272 2.411 . S
Cd270 O273 2.333 . S
Cd270 O274 2.352 . S
Cd270 O278 2.277 . S
Cd270 O279 2.356 . S
C271 O276 1.209 . S
C271 O278 1.226 . S
O272 Cd268 2.273 . S
O272 Cd270 2.411 . S
O272 C275 1.320 . S
O273 Cd270 2.333 . S
O273 C275 1.214 . S
O274 Cd270 2.352 . S
O274 C277 1.258 . S
C275 O272 1.320 . S
C275 O273 1.214 . S
O276 Cd268 2.277 . S
O276 C271 1.209 . S
C277 O274 1.258 . S
C277 O279 1.282 . S
O278 Cd270 2.277 . S
O278 C271 1.226 . S
O279 Cd270 2.356 . S
O279 C277 1.282 . S
C280 O281 1.306 . S
C280 O283 1.160 . S
O281 C280 1.306 . S
O281 Cd282 2.228 . S
Cd282 O281 2.228 . S
Cd282 O286 2.273 . S
Cd282 O290 2.277 . S
O283 C280 1.160 . S
O283 Cd284 2.203 . S
Cd284 O283 2.203 . S
Cd284 O286 2.411 . S
Cd284 O287 2.333 . S
Cd284 O288 2.352 . S
Cd284 O292 2.277 . S
Cd284 O293 2.356 . S
C285 O290 1.209 . S
C285 O292 1.226 . S
O286 Cd282 2.273 . S
O286 Cd284 2.411 . S
O286 C289 1.320 . S
O287 Cd284 2.333 . S
O287 C289 1.214 . S
O288 Cd284 2.352 . S
O288 C291 1.258 . S
C289 O286 1.320 . S
C289 O287 1.214 . S
O290 Cd282 2.277 . S
O290 C285 1.209 . S
C291 O288 1.258 . S
C291 O293 1.282 . S
O292 Cd284 2.277 . S
O292 C285 1.226 . S
O293 Cd284 2.356 . S
O293 C291 1.282 . S
C294 O295 1.306 . S
C294 O297 1.160 . S
O295 C294 1.306 . S
O295 Cd296 2.228 . S
Cd296 O295 2.228 . S
Cd296 O300 2.273 . S
Cd296 O304 2.277 . S
O297 C294 1.160 . S
O297 Cd298 2.203 . S
Cd298 O297 2.203 . S
Cd298 O300 2.411 . S
Cd298 O301 2.333 . S
Cd298 O302 2.352 . S
Cd298 O306 2.277 . S
Cd298 O307 2.356 . S
C299 O304 1.209 . S
C299 O306 1.226 . S
O300 Cd296 2.273 . S
O300 Cd298 2.411 . S
O300 C303 1.320 . S
O301 Cd298 2.333 . S
O301 C303 1.214 . S
O302 Cd298 2.352 . S
O302 C305 1.258 . S
C303 O300 1.320 . S
C303 O301 1.214 . S
O304 Cd296 2.277 . S
O304 C299 1.209 . S
C305 O302 1.258 . S
C305 O307 1.282 . S
O306 Cd298 2.277 . S
O306 C299 1.226 . S
O307 Cd298 2.356 . S
O307 C305 1.282 . S
C308 O309 1.306 . S
C308 O311 1.160 . S
O309 C308 1.306 . S
O309 Cd310 2.228 . S
Cd310 O309 2.228 . S
Cd310 O314 2.273 . S
Cd310 O318 2.277 . S
O311 C308 1.160 . S
O311 Cd312 2.203 . S
Cd312 O311 2.203 . S
Cd312 O314 2.411 . S
Cd312 O315 2.333 . S
Cd312 O316 2.352 . S
Cd312 O320 2.277 . S
Cd312 O321 2.356 . S
C313 O318 1.209 . S
C313 O320 1.226 . S
O314 Cd310 2.273 . S
O314 Cd312 2.411 . S
O314 C317 1.320 . S
O315 Cd312 2.333 . S
O315 C317 1.214 . S
O316 Cd312 2.352 . S
O316 C319 1.258 . S
C317 O314 1.320 . S
C317 O315 1.214 . S
O318 Cd310 2.277 . S
O318 C313 1.209 . S
C319 O316 1.258 . S
C319 O321 1.282 . S
O320 Cd312 2.277 . S
O320 C313 1.226 . S
O321 Cd312 2.356 . S
O321 C319 1.282 . S
C322 O323 1.306 . S
C322 O325 1.160 . S
O323 C322 1.306 . S
O323 Cd324 2.228 . S
Cd324 O323 2.228 . S
Cd324 O328 2.273 . S
Cd324 O332 2.277 . S
O325 C322 1.160 . S
O325 Cd326 2.203 . S
Cd326 O325 2.203 . S
Cd326 O328 2.411 . S
Cd326 O329 2.333 . S
Cd326 O330 2.352 . S
Cd326 O334 2.277 . S
Cd326 O335 2.356 . S
C327 O332 1.209 . S
C327 O334 1.226 . S
O328 Cd324 2.273 . S
O328 Cd326 2.411 . S
O328 C331 1.320 . S
O329 Cd326 2.333 . S
O329 C331 1.214 . S
O330 Cd326 2.352 . S
O330 C333 1.258 . S
C331 O328 1.320 . S
C331 O329 1.214 . S
O332 Cd324 2.277 . S
O332 C327 1.209 . S
C333 O330 1.258 . S
C333 O335 1.282 . S
O334 Cd326 2.277 . S
O334 C327 1.226 . S
O335 Cd326 2.356 . S
O335 C333 1.282 . S
C336 O337 1.306 . S
C336 O339 1.160 . S
O337 C336 1.306 . S
O337 Cd338 2.228 . S
Cd338 O337 2.228 . S
Cd338 O342 2.273 . S
Cd338 O346 2.277 . S
O339 C336 1.160 . S
O339 Cd340 2.203 . S
Cd340 O339 2.203 . S
Cd340 O342 2.411 . S
Cd340 O343 2.333 . S
Cd340 O344 2.352 . S
Cd340 O348 2.277 . S
Cd340 O349 2.356 . S
C341 O346 1.209 . S
C341 O348 1.226 . S
O342 Cd338 2.273 . S
O342 Cd340 2.411 . S
O342 C345 1.320 . S
O343 Cd340 2.333 . S
O343 C345 1.214 . S
O344 Cd340 2.352 . S
O344 C347 1.258 . S
C345 O342 1.320 . S
C345 O343 1.214 . S
O346 Cd338 2.277 . S
O346 C341 1.209 . S
C347 O344 1.258 . S
C347 O349 1.282 . S
O348 Cd340 2.277 . S
O348 C341 1.226 . S
O349 Cd340 2.356 . S
O349 C347 1.282 . S
C350 O351 1.306 . S
C350 O353 1.160 . S
O351 C350 1.306 . S
O351 Cd352 2.228 . S
Cd352 O351 2.228 . S
Cd352 O356 2.273 . S
Cd352 O360 2.277 . S
O353 C350 1.160 . S
O353 Cd354 2.203 . S
Cd354 O353 2.203 . S
Cd354 O356 2.411 . S
Cd354 O357 2.333 . S
Cd354 O358 2.352 . S
Cd354 O362 2.277 . S
Cd354 O363 2.356 . S
C355 O360 1.209 . S
C355 O362 1.226 . S
O356 Cd352 2.273 . S
O356 Cd354 2.411 . S
O356 C359 1.320 . S
O357 Cd354 2.333 . S
O357 C359 1.214 . S
O358 Cd354 2.352 . S
O358 C361 1.258 . S
C359 O356 1.320 . S
C359 O357 1.214 . S
O360 Cd352 2.277 . S
O360 C355 1.209 . S
C361 O358 1.258 . S
C361 O363 1.282 . S
O362 Cd354 2.277 . S
O362 C355 1.226 . S
O363 Cd354 2.356 . S
O363 C361 1.282 . S
C364 O365 1.306 . S
C364 O367 1.160 . S
O365 C364 1.306 . S
O365 Cd366 2.228 . S
Cd366 O365 2.228 . S
Cd366 O370 2.273 . S
Cd366 O374 2.277 . S
O367 C364 1.160 . S
O367 Cd368 2.203 . S
Cd368 O367 2.203 . S
Cd368 O370 2.411 . S
Cd368 O371 2.333 . S
Cd368 O372 2.352 . S
Cd368 O376 2.277 . S
Cd368 O377 2.356 . S
C369 O374 1.209 . S
C369 O376 1.226 . S
O370 Cd366 2.273 . S
O370 Cd368 2.411 . S
O370 C373 1.320 . S
O371 Cd368 2.333 . S
O371 C373 1.214 . S
O372 Cd368 2.352 . S
O372 C375 1.258 . S
C373 O370 1.320 . S
C373 O371 1.214 . S
O374 Cd366 2.277 . S
O374 C369 1.209 . S
C375 O372 1.258 . S
C375 O377 1.282 . S
O376 Cd368 2.277 . S
O376 C369 1.226 . S
O377 Cd368 2.356 . S
O377 C375 1.282 . S
C378 O379 1.306 . S
C378 O381 1.160 . S
O379 C378 1.306 . S
O379 Cd380 2.228 . S
Cd380 O379 2.228 . S
Cd380 O384 2.273 . S
Cd380 O388 2.277 . S
O381 C378 1.160 . S
O381 Cd382 2.203 . S
Cd382 O381 2.203 . S
Cd382 O384 2.411 . S
Cd382 O385 2.333 . S
Cd382 O386 2.352 . S
Cd382 O390 2.277 . S
Cd382 O391 2.356 . S
C383 O388 1.209 . S
C383 O390 1.226 . S
O384 Cd380 2.273 . S
O384 Cd382 2.411 . S
O384 C387 1.320 . S
O385 Cd382 2.333 . S
O385 C387 1.214 . S
O386 Cd382 2.352 . S
O386 C389 1.258 . S
C387 O384 1.320 . S
C387 O385 1.214 . S
O388 Cd380 2.277 . S
O388 C383 1.209 . S
C389 O386 1.258 . S
C389 O391 1.282 . S
O390 Cd382 2.277 . S
O390 C383 1.226 . S
O391 Cd382 2.356 . S
O391 C389 1.282 . S
C392 O393 1.306 . S
C392 O395 1.160 . S
O393 C392 1.306 . S
O393 Cd394 2.228 . S
Cd394 O393 2.228 . S
Cd394 O398 2.273 . S
Cd394 O402 2.277 . S
O395 C392 1.160 . S
O395 Cd396 2.203 . S
Cd396 O395 2.203 . S
Cd396 O398 2.411 . S
Cd396 O399 2.333 . S
Cd396 O400 2.352 . S
Cd396 O404 2.277 . S
Cd396 O405 2.356 . S
C397 O402 1.209 . S
C397 O404 1.226 . S
O398 Cd394 2.273 . S
O398 Cd396 2.411 . S
O398 C401 1.320 . S
O399 Cd396 2.333 . S
O399 C401 1.214 . S
O400 Cd396 2.352 . S
O400 C403 1.258 . S
C401 O398 1.320 . S
C401 O399 1.214 . S
O402 Cd394 2.277 . S
O402 C397 1.209 . S
C403 O400 1.258 . S
C403 O405 1.282 . S
O404 Cd396 2.277 . S
O404 C397 1.226 . S
O405 Cd396 2.356 . S
O405 C403 1.282 . S
C406 O407 1.306 . S
C406 O409 1.160 . S
O407 C406 1.306 . S
O407 Cd408 2.228 . S
Cd408 O407 2.228 . S
Cd408 O412 2.273 . S
Cd408 O416 2.277 . S
O409 C406 1.160 . S
O409 Cd410 2.203 . S
Cd410 O409 2.203 . S
Cd410 O412 2.411 . S
Cd410 O413 2.333 . S
Cd410 O414 2.352 . S
Cd410 O418 2.277 . S
Cd410 O419 2.356 . S
C411 O416 1.209 . S
C411 O418 1.226 . S
O412 Cd408 2.273 . S
O412 Cd410 2.411 . S
O412 C415 1.320 . S
O413 Cd410 2.333 . S
O413 C415 1.214 . S
O414 Cd410 2.352 . S
O414 C417 1.258 . S
C415 O412 1.320 . S
C415 O413 1.214 . S
O416 Cd408 2.277 . S
O416 C411 1.209 . S
C417 O414 1.258 . S
C417 O419 1.282 . S
O418 Cd410 2.277 . S
O418 C411 1.226 . S
O419 Cd410 2.356 . S
O419 C417 1.282 . S
C420 O421 1.306 . S
C420 O423 1.160 . S
O421 C420 1.306 . S
O421 Cd422 2.228 . S
Cd422 O421 2.228 . S
Cd422 O426 2.273 . S
Cd422 O430 2.277 . S
O423 C420 1.160 . S
O423 Cd424 2.203 . S
Cd424 O423 2.203 . S
Cd424 O426 2.411 . S
Cd424 O427 2.333 . S
Cd424 O428 2.352 . S
Cd424 O432 2.277 . S
Cd424 O433 2.356 . S
C425 O430 1.209 . S
C425 O432 1.226 . S
O426 Cd422 2.273 . S
O426 Cd424 2.411 . S
O426 C429 1.320 . S
O427 Cd424 2.333 . S
O427 C429 1.214 . S
O428 Cd424 2.352 . S
O428 C431 1.258 . S
C429 O426 1.320 . S
C429 O427 1.214 . S
O430 Cd422 2.277 . S
O430 C425 1.209 . S
C431 O428 1.258 . S
C431 O433 1.282 . S
O432 Cd424 2.277 . S
O432 C425 1.226 . S
O433 Cd424 2.356 . S
O433 C431 1.282 . S
C434 O435 1.306 . S
C434 O437 1.160 . S
O435 C434 1.306 . S
O435 Cd436 2.228 . S
Cd436 O435 2.228 . S
Cd436 O440 2.273 . S
Cd436 O444 2.277 . S
O437 C434 1.160 . S
O437 Cd438 2.203 . S
Cd438 O437 2.203 . S
Cd438 O440 2.411 . S
Cd438 O441 2.333 . S
Cd438 O442 2.352 . S
Cd438 O446 2.277 . S
Cd438 O447 2.356 . S
C439 O444 1.209 . S
C439 O446 1.226 . S
O440 Cd436 2.273 . S
O440 Cd438 2.411 . S
O440 C443 1.320 . S
O441 Cd438 2.333 . S
O441 C443 1.214 . S
O442 Cd438 2.352 . S
O442 C445 1.258 . S
C443 O440 1.320 . S
C443 O441 1.214 . S
O444 Cd436 2.277 . S
O444 C439 1.209 . S
C445 O442 1.258 . S
C445 O447 1.282 . S
O446 Cd438 2.277 . S
O446 C439 1.226 . S
O447 Cd438 2.356 . S
O447 C445 1.282 . S
C448 O449 1.306 . S
C448 O451 1.160 . S
O449 C448 1.306 . S
O449 Cd450 2.228 . S
Cd450 O449 2.228 . S
Cd450 O454 2.273 . S
Cd450 O458 2.277 . S
O451 C448 1.160 . S
O451 Cd452 2.203 . S
Cd452 O451 2.203 . S
Cd452 O454 2.411 . S
Cd452 O455 2.333 . S
Cd452 O456 2.352 . S
Cd452 O460 2.277 . S
Cd452 O461 2.356 . S
C453 O458 1.209 . S
C453 O460 1.226 . S
O454 Cd450 2.273 . S
O454 Cd452 2.411 . S
O454 C457 1.320 . S
O455 Cd452 2.333 . S
O455 C457 1.214 . S
O456 Cd452 2.352 . S
O456 C459 1.258 . S
C457 O454 1.320 . S
C457 O455 1.214 . S
O458 Cd450 2.277 . S
O458 C453 1.209 . S
C459 O456 1.258 . S
C459 O461 1.282 . S
O460 Cd452 2.277 . S
O460 C453 1.226 . S
O461 Cd452 2.356 . S
O461 C459 1.282 . S
C462 O463 1.306 . S
C462 O465 1.160 . S
O463 C462 1.306 . S
O463 Cd464 2.228 . S
Cd464 O463 2.228 . S
Cd464 O468 2.273 . S
Cd464 O472 2.277 . S
O465 C462 1.160 . S
O465 Cd466 2.203 . S
Cd466 O465 2.203 . S
Cd466 O468 2.411 . S
Cd466 O469 2.333 . S
Cd466 O470 2.352 . S
Cd466 O474 2.277 . S
Cd466 O475 2.356 . S
C467 O472 1.209 . S
C467 O474 1.226 . S
O468 Cd464 2.273 . S
O468 Cd466 2.411 . S
O468 C471 1.320 . S
O469 Cd466 2.333 . S
O469 C471 1.214 . S
O470 Cd466 2.352 . S
O470 C473 1.258 . S
C471 O468 1.320 . S
C471 O469 1.214 . S
O472 Cd464 2.277 . S
O472 C467 1.209 . S
C473 O470 1.258 . S
C473 O475 1.282 . S
O474 Cd466 2.277 . S
O474 C467 1.226 . S
O475 Cd466 2.356 . S
O475 C473 1.282 . S
C476 O477 1.306 . S
C476 O479 1.160 . S
O477 C476 1.306 . S
O477 Cd478 2.228 . S
Cd478 O477 2.228 . S
Cd478 O482 2.273 . S
Cd478 O486 2.277 . S
O479 C476 1.160 . S
O479 Cd480 2.203 . S
Cd480 O479 2.203 . S
Cd480 O482 2.411 . S
Cd480 O483 2.333 . S
Cd480 O484 2.352 . S
Cd480 O488 2.277 . S
Cd480 O489 2.356 . S
C481 O486 1.209 . S
C481 O488 1.226 . S
O482 Cd478 2.273 . S
O482 Cd480 2.411 . S
O482 C485 1.320 . S
O483 Cd480 2.333 . S
O483 C485 1.214 . S
O484 Cd480 2.352 . S
O484 C487 1.258 . S
C485 O482 1.320 . S
C485 O483 1.214 . S
O486 Cd478 2.277 . S
O486 C481 1.209 . S
C487 O484 1.258 . S
C487 O489 1.282 . S
O488 Cd480 2.277 . S
O488 C481 1.226 . S
O489 Cd480 2.356 . S
O489 C487 1.282 . S
C490 O491 1.306 . S
C490 O493 1.160 . S
O491 C490 1.306 . S
O491 Cd492 2.228 . S
Cd492 O491 2.228 . S
Cd492 O496 2.273 . S
Cd492 O500 2.277 . S
O493 C490 1.160 . S
O493 Cd494 2.203 . S
Cd494 O493 2.203 . S
Cd494 O496 2.411 . S
Cd494 O497 2.333 . S
Cd494 O498 2.352 . S
Cd494 O502 2.277 . S
Cd494 O503 2.356 . S
C495 O500 1.209 . S
C495 O502 1.226 . S
O496 Cd492 2.273 . S
O496 Cd494 2.411 . S
O496 C499 1.320 . S
O497 Cd494 2.333 . S
O497 C499 1.214 . S
O498 Cd494 2.352 . S
O498 C501 1.258 . S
C499 O496 1.320 . S
C499 O497 1.214 . S
O500 Cd492 2.277 . S
O500 C495 1.209 . S
C501 O498 1.258 . S
C501 O503 1.282 . S
O502 Cd494 2.277 . S
O502 C495 1.226 . S
O503 Cd494 2.356 . S
O503 C501 1.282 . S
C504 O505 1.306 . S
C504 O507 1.160 . S
O505 C504 1.306 . S
O505 Cd506 2.228 . S
Cd506 O505 2.228 . S
Cd506 O510 2.273 . S
Cd506 O514 2.277 . S
O507 C504 1.160 . S
O507 Cd508 2.203 . S
Cd508 O507 2.203 . S
Cd508 O510 2.411 . S
Cd508 O511 2.333 . S
Cd508 O512 2.352 . S
Cd508 O516 2.277 . S
Cd508 O517 2.356 . S
C509 O514 1.209 . S
C509 O516 1.226 . S
O510 Cd506 2.273 . S
O510 Cd508 2.411 . S
O510 C513 1.320 . S
O511 Cd508 2.333 . S
O511 C513 1.214 . S
O512 Cd508 2.352 . S
O512 C515 1.258 . S
C513 O510 1.320 . S
C513 O511 1.214 . S
O514 Cd506 2.277 . S
O514 C509 1.209 . S
C515 O512 1.258 . S
C515 O517 1.282 . S
O516 Cd508 2.277 . S
O516 C509 1.226 . S
O517 Cd508 2.356 . S
O517 C515 1.282 . S
C518 O519 1.306 . S
C518 O521 1.160 . S
O519 C518 1.306 . S
O519 Cd520 2.228 . S
Cd520 O519 2.228 . S
Cd520 O524 2.273 . S
Cd520 O528 2.277 . S
O521 C518 1.160 . S
O521 Cd522 2.203 . S
Cd522 O521 2.203 . S
Cd522 O524 2.411 . S
Cd522 O525 2.333 . S
Cd522 O526 2.352 . S
Cd522 O530 2.277 . S
Cd522 O531 2.356 . S
C523 O528 1.209 . S
C523 O530 1.226 . S
O524 Cd520 2.273 . S
O524 Cd522 2.411 . S
O524 C527 1.320 . S
O525 Cd522 2.333 . S
O525 C527 1.214 . S
O526 Cd522 2.352 . S
O526 C529 1.258 . S
C527 O524 1.320 . S
C527 O525 1.214 . S
O528 Cd520 2.277 . S
O528 C523 1.209 . S
C529 O526 1.258 . S
C529 O531 1.282 . S
O530 Cd522 2.277 . S
O530 C523 1.226 . S
O531 Cd522 2.356 . S
O531 C529 1.282 . S
C532 O533 1.306 . S
C532 O535 1.160 . S
O533 C532 1.306 . S
O533 Cd534 2.228 . S
Cd534 O533 2.228 . S
Cd534 O538 2.273 . S
Cd534 O542 2.277 . S
O535 C532 1.160 . S
O535 Cd536 2.203 . S
Cd536 O535 2.203 . S
Cd536 O538 2.411 . S
Cd536 O539 2.333 . S
Cd536 O540 2.352 . S
Cd536 O544 2.277 . S
Cd536 O545 2.356 . S
C537 O542 1.209 . S
C537 O544 1.226 . S
O538 Cd534 2.273 . S
O538 Cd536 2.411 . S
O538 C541 1.320 . S
O539 Cd536 2.333 . S
O539 C541 1.214 . S
O540 Cd536 2.352 . S
O540 C543 1.258 . S
C541 O538 1.320 . S
C541 O539 1.214 . S
O542 Cd534 2.277 . S
O542 C537 1.209 . S
C543 O540 1.258 . S
C543 O545 1.282 . S
O544 Cd536 2.277 . S
O544 C537 1.226 . S
O545 Cd536 2.356 . S
O545 C543 1.282 . S
C546 O547 1.306 . S
C546 O549 1.160 . S
O547 C546 1.306 . S
O547 Cd548 2.228 . S
Cd548 O547 2.228 . S
Cd548 O552 2.273 . S
Cd548 O556 2.277 . S
O549 C546 1.160 . S
O549 Cd550 2.203 . S
Cd550 O549 2.203 . S
Cd550 O552 2.411 . S
Cd550 O553 2.333 . S
Cd550 O554 2.352 . S
Cd550 O558 2.277 . S
Cd550 O559 2.356 . S
C551 O556 1.209 . S
C551 O558 1.226 . S
O552 Cd548 2.273 . S
O552 Cd550 2.411 . S
O552 C555 1.320 . S
O553 Cd550 2.333 . S
O553 C555 1.214 . S
O554 Cd550 2.352 . S
O554 C557 1.258 . S
C555 O552 1.320 . S
C555 O553 1.214 . S
O556 Cd548 2.277 . S
O556 C551 1.209 . S
C557 O554 1.258 . S
C557 O559 1.282 . S
O558 Cd550 2.277 . S
O558 C551 1.226 . S
O559 Cd550 2.356 . S
O559 C557 1.282 . S
C560 O561 1.306 . S
C560 O563 1.160 . S
O561 C560 1.306 . S
O561 Cd562 2.228 . S
Cd562 O561 2.228 . S
Cd562 O566 2.273 . S
Cd562 O570 2.277 . S
O563 C560 1.160 . S
O563 Cd564 2.203 . S
Cd564 O563 2.203 . S
Cd564 O566 2.411 . S
Cd564 O567 2.333 . S
Cd564 O568 2.352 . S
Cd564 O572 2.277 . S
Cd564 O573 2.356 . S
C565 O570 1.209 . S
C565 O572 1.226 . S
O566 Cd562 2.273 . S
O566 Cd564 2.411 . S
O566 C569 1.320 . S
O567 Cd564 2.333 . S
O567 C569 1.214 . S
O568 Cd564 2.352 . S
O568 C571 1.258 . S
C569 O566 1.320 . S
C569 O567 1.214 . S
O570 Cd562 2.277 . S
O570 C565 1.209 . S
C571 O568 1.258 . S
C571 O573 1.282 . S
O572 Cd564 2.277 . S
O572 C565 1.226 . S
O573 Cd564 2.356 . S
O573 C571 1.282 . S
C574 O575 1.306 . S
C574 O577 1.160 . S
O575 C574 1.306 . S
O575 Cd576 2.228 . S
Cd576 O575 2.228 . S
Cd576 O580 2.273 . S
Cd576 O584 2.277 . S
O577 C574 1.160 . S
O577 Cd578 2.203 . S
Cd578 O577 2.203 . S
Cd578 O580 2.411 . S
Cd578 O581 2.333 . S
Cd578 O582 2.352 . S
Cd578 O586 2.277 . S
Cd578 O587 2.356 . S
C579 O584 1.209 . S
C579 O586 1.226 . S
O580 Cd576 2.273 . S
O580 Cd578 2.411 . S
O580 C583 1.320 . S
O581 Cd578 2.333 . S
O581 C583 1.214 . S
O582 Cd578 2.352 . S
O582 C585 1.258 . S
C583 O580 1.320 . S
C583 O581 1.214 . S
O584 Cd576 2.277 . S
O584 C579 1.209 . S
C585 O582 1.258 . S
C585 O587 1.282 . S
O586 Cd578 2.277 . S
O586 C579 1.226 . S
O587 Cd578 2.356 . S
O587 C585 1.282 . S
C588 O589 1.306 . S
C588 O591 1.160 . S
O589 C588 1.306 . S
O589 Cd590 2.228 . S
Cd590 O589 2.228 . S
Cd590 O594 2.273 . S
Cd590 O598 2.277 . S
O591 C588 1.160 . S
O591 Cd592 2.203 . S
Cd592 O591 2.203 . S
Cd592 O594 2.411 . S
Cd592 O595 2.333 . S
Cd592 O596 2.352 . S
Cd592 O600 2.277 . S
Cd592 O601 2.356 . S
C593 O598 1.209 . S
C593 O600 1.226 . S
O594 Cd590 2.273 . S
O594 Cd592 2.411 . S
O594 C597 1.320 . S
O595 Cd592 2.333 . S
O595 C597 1.214 . S
O596 Cd592 2.352 . S
O596 C599 1.258 . S
C597 O594 1.320 . S
C597 O595 1.214 . S
O598 Cd590 2.277 . S
O598 C593 1.209 . S
C599 O596 1.258 . S
C599 O601 1.282 . S
O600 Cd592 2.277 . S
O600 C593 1.226 . S
O601 Cd592 2.356 . S
O601 C599 1.282 . S
C602 O603 1.306 . S
C602 O605 1.160 . S
O603 C602 1.306 . S
O603 Cd604 2.228 . S
Cd604 O603 2.228 . S
Cd604 O608 2.273 . S
Cd604 O612 2.277 . S
O605 C602 1.160 . S
O605 Cd606 2.203 . S
Cd606 O605 2.203 . S
Cd606 O608 2.411 . S
Cd606 O609 2.333 . S
Cd606 O610 2.352 . S
Cd606 O614 2.277 . S
Cd606 O615 2.356 . S
C607 O612 1.209 . S
C607 O614 1.226 . S
O608 Cd604 2.273 . S
O608 Cd606 2.411 . S
O608 C611 1.320 . S
O609 Cd606 2.333 . S
O609 C611 1.214 . S
O610 Cd606 2.352 . S
O610 C613 1.258 . S
C611 O608 1.320 . S
C611 O609 1.214 . S
O612 Cd604 2.277 . S
O612 C607 1.209 . S
C613 O610 1.258 . S
C613 O615 1.282 . S
O614 Cd606 2.277 . S
O614 C607 1.226 . S
O615 Cd606 2.356 . S
O615 C613 1.282 . S
C616 O617 1.306 . S
C616 O619 1.160 . S
O617 C616 1.306 . S
O617 Cd618 2.228 . S
Cd618 O617 2.228 . S
Cd618 O622 2.273 . S
Cd618 O626 2.277 . S
O619 C616 1.160 . S
O619 Cd620 2.203 . S
Cd620 O619 2.203 . S
Cd620 O622 2.411 . S
Cd620 O623 2.333 . S
Cd620 O624 2.352 . S
Cd620 O628 2.277 . S
Cd620 O629 2.356 . S
C621 O626 1.209 . S
C621 O628 1.226 . S
O622 Cd618 2.273 . S
O622 Cd620 2.411 . S
O622 C625 1.320 . S
O623 Cd620 2.333 . S
O623 C625 1.214 . S
O624 Cd620 2.352 . S
O624 C627 1.258 . S
C625 O622 1.320 . S
C625 O623 1.214 . S
O626 Cd618 2.277 . S
O626 C621 1.209 . S
C627 O624 1.258 . S
C627 O629 1.282 . S
O628 Cd620 2.277 . S
O628 C621 1.226 . S
O629 Cd620 2.356 . S
O629 C627 1.282 . S
C630 O631 1.306 . S
C630 O633 1.160 . S
O631 C630 1.306 . S
O631 Cd632 2.228 . S
Cd632 O631 2.228 . S
Cd632 O636 2.273 . S
Cd632 O640 2.277 . S
O633 C630 1.160 . S
O633 Cd634 2.203 . S
Cd634 O633 2.203 . S
Cd634 O636 2.411 . S
Cd634 O637 2.333 . S
Cd634 O638 2.352 . S
Cd634 O642 2.277 . S
Cd634 O643 2.356 . S
C635 O640 1.209 . S
C635 O642 1.226 . S
O636 Cd632 2.273 . S
O636 Cd634 2.411 . S
O636 C639 1.320 . S
O637 Cd634 2.333 . S
O637 C639 1.214 . S
O638 Cd634 2.352 . S
O638 C641 1.258 . S
C639 O636 1.320 . S
C639 O637 1.214 . S
O640 Cd632 2.277 . S
O640 C635 1.209 . S
C641 O638 1.258 . S
C641 O643 1.282 . S
O642 Cd634 2.277 . S
O642 C635 1.226 . S
O643 Cd634 2.356 . S
O643 C641 1.282 . S
C644 O645 1.306 . S
C644 O647 1.160 . S
O645 C644 1.306 . S
O645 Cd646 2.228 . S
Cd646 O645 2.228 . S
Cd646 O650 2.273 . S
Cd646 O654 2.277 . S
O647 C644 1.160 . S
O647 Cd648 2.203 . S
Cd648 O647 2.203 . S
Cd648 O650 2.411 . S
Cd648 O651 2.333 . S
Cd648 O652 2.352 . S
Cd648 O656 2.277 . S
Cd648 O657 2.356 . S
C649 O654 1.209 . S
C649 O656 1.226 . S
O650 Cd646 2.273 . S
O650 Cd648 2.411 . S
O650 C653 1.320 . S
O651 Cd648 2.333 . S
O651 C653 1.214 . S
O652 Cd648 2.352 . S
O652 C655 1.258 . S
C653 O650 1.320 . S
C653 O651 1.214 . S
O654 Cd646 2.277 . S
O654 C649 1.209 . S
C655 O652 1.258 . S
C655 O657 1.282 . S
O656 Cd648 2.277 . S
O656 C649 1.226 . S
O657 Cd648 2.356 . S
O657 C655 1.282 . S
C658 O659 1.306 . S
C658 O661 1.160 . S
O659 C658 1.306 . S
O659 Cd660 2.228 . S
Cd660 O659 2.228 . S
Cd660 O664 2.273 . S
Cd660 O668 2.277 . S
O661 C658 1.160 . S
O661 Cd662 2.203 . S
Cd662 O661 2.203 . S
Cd662 O664 2.411 . S
Cd662 O665 2.333 . S
Cd662 O666 2.352 . S
Cd662 O670 2.277 . S
Cd662 O671 2.356 . S
C663 O668 1.209 . S
C663 O670 1.226 . S
O664 Cd660 2.273 . S
O664 Cd662 2.411 . S
O664 C667 1.320 . S
O665 Cd662 2.333 . S
O665 C667 1.214 . S
O666 Cd662 2.352 . S
O666 C669 1.258 . S
C667 O664 1.320 . S
C667 O665 1.214 . S
O668 Cd660 2.277 . S
O668 C663 1.209 . S
C669 O666 1.258 . S
C669 O671 1.282 . S
O670 Cd662 2.277 . S
O670 C663 1.226 . S
O671 Cd662 2.356 . S
O671 C669 1.282 . S
H672 C690 0.951 . S
H673 C692 0.951 . S
H674 C694 0.950 . S
H675 C695 0.950 . S
H676 C697 0.950 . S
H677 C700 0.950 . S
H678 C701 0.950 . S
H679 C703 0.950 . S
H680 C704 0.950 . S
H681 C705 0.951 . S
H682 C707 0.951 . S
H683 C709 0.950 . S
H684 C710 0.950 . S
H685 C712 0.950 . S
H686 C715 0.950 . S
H687 C716 0.950 . S
H688 C718 0.950 . S
H689 C719 0.950 . S
C690 H672 0.951 . S
C690 C691 1.366 . S
C690 C692 1.388 . S
C691 C690 1.366 . S
C691 C695 1.385 . S
C692 H673 0.951 . S
C692 C690 1.388 . S
C692 C693 1.366 . S
C693 C692 1.366 . S
C693 C694 1.414 . S
C693 C696 1.499 . S
C694 H674 0.950 . S
C694 C693 1.414 . S
C694 C695 1.374 . S
C695 H675 0.950 . S
C695 C691 1.385 . S
C695 C694 1.374 . S
C696 C693 1.499 . S
C696 C697 1.373 . S
C696 C698 1.389 . S
C697 H676 0.950 . S
C697 C696 1.373 . S
C697 C713 1.377 . S
C698 C696 1.389 . S
C698 C699 1.524 . S
C698 C712 1.377 . S
C699 C698 1.524 . S
C699 C700 1.397 . S
C699 C704 1.363 . S
C700 H677 0.950 . S
C700 C699 1.397 . S
C700 C701 1.334 . S
C701 H678 0.950 . S
C701 C700 1.334 . S
C701 C702 1.287 . S
C702 C701 1.287 . S
C702 C703 1.524 . S
C702 H721 0.913 . S
C703 H679 0.950 . S
C703 C702 1.524 . S
C703 C704 1.415 . S
C704 H680 0.950 . S
C704 C699 1.363 . S
C704 C703 1.415 . S
C705 H681 0.951 . S
C705 C706 1.366 . S
C705 C707 1.388 . S
C706 C705 1.366 . S
C706 C710 1.385 . S
C707 H682 0.951 . S
C707 C705 1.388 . S
C707 C708 1.366 . S
C708 C707 1.366 . S
C708 C709 1.414 . S
C708 C711 1.499 . S
C709 H683 0.950 . S
C709 C708 1.414 . S
C709 C710 1.374 . S
C710 H684 0.950 . S
C710 C706 1.385 . S
C710 C709 1.374 . S
C711 C708 1.499 . S
C711 C712 1.373 . S
C711 C713 1.389 . S
C712 H685 0.950 . S
C712 C698 1.377 . S
C712 C711 1.373 . S
C713 C697 1.377 . S
C713 C711 1.389 . S
C713 C714 1.524 . S
C714 C713 1.524 . S
C714 C715 1.397 . S
C714 C719 1.363 . S
C715 H686 0.950 . S
C715 C714 1.397 . S
C715 C716 1.334 . S
C716 H687 0.950 . S
C716 C715 1.334 . S
C716 C717 1.287 . S
C717 C716 1.287 . S
C717 C718 1.524 . S
C717 H720 0.999 . S
C718 H688 0.950 . S
C718 C717 1.524 . S
C718 C719 1.415 . S
C719 H689 0.950 . S
C719 C714 1.363 . S
C719 C718 1.415 . S
H720 C717 0.999 . S
H721 C702 0.913 . S
H722 C740 0.951 . S
H723 C742 0.951 . S
H724 C744 0.950 . S
H725 C745 0.950 . S
H726 C747 0.950 . S
H727 C750 0.950 . S
H728 C751 0.950 . S
H729 C753 0.950 . S
H730 C754 0.950 1_655 S
H731 C755 0.951 . S
H732 C757 0.951 . S
H733 C759 0.950 . S
H734 C760 0.950 . S
H735 C762 0.950 . S
H736 C765 0.950 . S
H737 C766 0.950 . S
H738 C768 0.950 . S
H739 C769 0.950 . S
C740 H722 0.951 . S
C740 C741 1.366 . S
C740 C742 1.388 . S
C741 C740 1.366 . S
C741 C745 1.385 . S
C742 H723 0.951 . S
C742 C740 1.388 . S
C742 C743 1.366 . S
C743 C742 1.366 . S
C743 C744 1.414 . S
C743 C746 1.567 . S
C744 H724 0.950 . S
C744 C743 1.414 . S
C744 C745 1.374 . S
C745 H725 0.950 . S
C745 C741 1.385 . S
C745 C744 1.374 . S
C746 C743 1.567 . S
C746 C747 1.337 1_455 S
C746 C748 1.360 1_455 S
C747 H726 0.950 . S
C747 C746 1.337 1_655 S
C747 C763 1.377 . S
C748 C746 1.360 1_655 S
C748 C749 1.524 1_655 S
C748 C762 1.377 . S
C749 C748 1.524 1_455 S
C749 C750 1.397 . S
C749 C754 1.363 . S
C750 H727 0.950 . S
C750 C749 1.397 . S
C750 C751 1.334 . S
C751 H728 0.950 . S
C751 C750 1.334 . S
C751 C752 1.287 . S
C752 C751 1.287 . S
C752 C753 1.524 . S
C752 H771 0.913 . S
C753 H729 0.950 . S
C753 C752 1.524 . S
C753 C754 1.415 . S
C754 H730 0.950 1_455 S
C754 C749 1.363 . S
C754 C753 1.415 . S
C755 H731 0.951 . S
C755 C756 1.366 . S
C755 C757 1.388 . S
C756 C755 1.366 . S
C756 C760 1.385 . S
C757 H732 0.951 . S
C757 C755 1.388 . S
C757 C758 1.366 . S
C758 C757 1.366 . S
C758 C759 1.414 . S
C758 C761 1.499 . S
C759 H733 0.950 . S
C759 C758 1.414 . S
C759 C760 1.374 . S
C760 H734 0.950 . S
C760 C756 1.385 . S
C760 C759 1.374 . S
C761 C758 1.499 . S
C761 C762 1.373 . S
C761 C763 1.389 . S
C762 H735 0.950 . S
C762 C748 1.377 . S
C762 C761 1.373 . S
C763 C747 1.377 . S
C763 C761 1.389 . S
C763 C764 1.524 . S
C764 C763 1.524 . S
C764 C765 1.397 . S
C764 C769 1.363 . S
C765 H736 0.950 . S
C765 C764 1.397 . S
C765 C766 1.334 . S
C766 H737 0.950 . S
C766 C765 1.334 . S
C766 C767 1.287 . S
C767 C766 1.287 . S
C767 C768 1.524 . S
C767 H770 0.999 . S
C768 H738 0.950 . S
C768 C767 1.524 . S
C768 C769 1.415 . S
C769 H739 0.950 . S
C769 C764 1.363 . S
C769 C768 1.415 . S
H770 C767 0.999 . S
H771 C752 0.913 . S
H772 C790 0.951 . S
H773 C792 0.951 . S
H774 C794 0.950 . S
H775 C795 0.950 . S
H776 C797 0.950 . S
H777 C800 0.950 . S
H778 C801 0.950 . S
H779 C803 0.950 . S
H780 C804 0.950 . S
H781 C805 0.951 . S
H782 C807 0.951 . S
H783 C809 0.950 . S
H784 C810 0.950 . S
H785 C812 0.950 . S
H786 C815 0.950 . S
H787 C816 0.950 . S
H788 C818 0.950 . S
H789 C819 0.950 . S
C790 H772 0.951 . S
C790 C791 1.366 . S
C790 C792 1.388 . S
C791 C790 1.366 . S
C791 C795 1.385 . S
C792 H773 0.951 . S
C792 C790 1.388 . S
C792 C793 1.366 . S
C793 C792 1.366 . S
C793 C794 1.414 . S
C793 C796 1.499 . S
C794 H774 0.950 . S
C794 C793 1.414 . S
C794 C795 1.374 . S
C795 H775 0.950 . S
C795 C791 1.385 . S
C795 C794 1.374 . S
C796 C793 1.499 . S
C796 C797 1.373 . S
C796 C798 1.389 . S
C797 H776 0.950 . S
C797 C796 1.373 . S
C797 C813 1.377 . S
C798 C796 1.389 . S
C798 C799 1.524 . S
C798 C812 1.377 . S
C799 C798 1.524 . S
C799 C800 1.397 . S
C799 C804 1.363 . S
C800 H777 0.950 . S
C800 C799 1.397 . S
C800 C801 1.334 . S
C801 H778 0.950 . S
C801 C800 1.334 . S
C801 C802 1.287 . S
C802 C801 1.287 . S
C802 C803 1.524 . S
C802 H821 0.913 . S
C803 H779 0.950 . S
C803 C802 1.524 . S
C803 C804 1.415 . S
C804 H780 0.950 . S
C804 C799 1.363 . S
C804 C803 1.415 . S
C805 H781 0.951 . S
C805 C806 1.366 . S
C805 C807 1.388 . S
C806 C805 1.366 . S
C806 C810 1.385 . S
C807 H782 0.951 . S
C807 C805 1.388 . S
C807 C808 1.366 . S
C808 C807 1.366 . S
C808 C809 1.414 . S
C808 C811 1.499 . S
C809 H783 0.950 . S
C809 C808 1.414 . S
C809 C810 1.374 . S
C810 H784 0.950 . S
C810 C806 1.385 . S
C810 C809 1.374 . S
C811 C808 1.499 . S
C811 C812 1.373 . S
C811 C813 1.389 . S
C812 H785 0.950 . S
C812 C798 1.377 . S
C812 C811 1.373 . S
C813 C797 1.377 . S
C813 C811 1.389 . S
C813 C814 1.524 . S
C814 C813 1.524 . S
C814 C815 1.397 . S
C814 C819 1.363 . S
C815 H786 0.950 . S
C815 C814 1.397 . S
C815 C816 1.334 . S
C816 H787 0.950 . S
C816 C815 1.334 . S
C816 C817 1.287 . S
C817 C816 1.287 . S
C817 C818 1.524 . S
C817 H820 0.999 . S
C818 H788 0.950 . S
C818 C817 1.524 . S
C818 C819 1.415 . S
C819 H789 0.950 . S
C819 C814 1.363 . S
C819 C818 1.415 . S
H820 C817 0.999 . S
H821 C802 0.913 . S
H822 C840 0.951 . S
H823 C842 0.951 . S
H824 C844 0.950 . S
H825 C845 0.950 . S
H826 C847 0.950 . S
H827 C850 0.950 . S
H828 C851 0.950 . S
H829 C853 0.950 . S
H830 C854 0.950 . S
H831 C855 0.951 . S
H832 C857 0.951 . S
H833 C859 0.950 . S
H834 C860 0.950 . S
H835 C862 0.950 . S
H836 C865 0.950 . S
H837 C866 0.950 . S
H838 C868 0.950 . S
H839 C869 0.950 . S
C840 H822 0.951 . S
C840 C841 1.366 . S
C840 C842 1.388 . S
C841 C840 1.366 . S
C841 C845 1.385 . S
C842 H823 0.951 . S
C842 C840 1.388 . S
C842 C843 1.366 . S
C843 C842 1.366 . S
C843 C844 1.414 . S
C843 C846 1.499 . S
C844 H824 0.950 . S
C844 C843 1.414 . S
C844 C845 1.374 . S
C845 H825 0.950 . S
C845 C841 1.385 . S
C845 C844 1.374 . S
C846 C843 1.499 . S
C846 C847 1.373 . S
C846 C848 1.389 . S
C847 H826 0.950 . S
C847 C846 1.373 . S
C847 C863 1.377 . S
C848 C846 1.389 . S
C848 C849 1.524 . S
C848 C862 1.377 . S
C849 C848 1.524 . S
C849 C850 1.397 . S
C849 C854 1.363 . S
C850 H827 0.950 . S
C850 C849 1.397 . S
C850 C851 1.334 . S
C851 H828 0.950 . S
C851 C850 1.334 . S
C851 C852 1.287 . S
C852 C851 1.287 . S
C852 C853 1.524 . S
C852 H871 0.913 . S
C853 H829 0.950 . S
C853 C852 1.524 . S
C853 C854 1.415 . S
C854 H830 0.950 . S
C854 C849 1.363 . S
C854 C853 1.415 . S
C855 H831 0.951 . S
C855 C856 1.366 . S
C855 C857 1.388 . S
C856 C855 1.366 . S
C856 C860 1.385 . S
C857 H832 0.951 . S
C857 C855 1.388 . S
C857 C858 1.366 . S
C858 C857 1.366 . S
C858 C859 1.414 . S
C858 C861 1.499 . S
C859 H833 0.950 . S
C859 C858 1.414 . S
C859 C860 1.374 . S
C860 H834 0.950 . S
C860 C856 1.385 . S
C860 C859 1.374 . S
C861 C858 1.499 . S
C861 C862 1.373 . S
C861 C863 1.389 . S
C862 H835 0.950 . S
C862 C848 1.377 . S
C862 C861 1.373 . S
C863 C847 1.377 . S
C863 C861 1.389 . S
C863 C864 1.524 . S
C864 C863 1.524 . S
C864 C865 1.397 . S
C864 C869 1.363 . S
C865 H836 0.950 . S
C865 C864 1.397 . S
C865 C866 1.334 . S
C866 H837 0.950 . S
C866 C865 1.334 . S
C866 C867 1.287 . S
C867 C866 1.287 . S
C867 C868 1.524 . S
C867 H870 0.999 . S
C868 H838 0.950 . S
C868 C867 1.524 . S
C868 C869 1.415 . S
C869 H839 0.950 . S
C869 C864 1.363 . S
C869 C868 1.415 . S
H870 C867 0.999 . S
H871 C852 0.913 . S
H872 C890 0.951 . S
H873 C892 0.951 . S
H874 C894 0.950 . S
H875 C895 0.950 . S
H876 C897 0.950 . S
H877 C900 0.950 . S
H878 C901 0.950 . S
H879 C903 0.950 . S
H880 C904 0.950 . S
H881 C905 0.951 . S
H882 C907 0.951 . S
H883 C909 0.950 . S
H884 C910 0.950 . S
H885 C912 0.950 . S
H886 C915 0.950 . S
H887 C916 0.950 . S
H888 C918 0.950 . S
H889 C919 0.950 . S
C890 H872 0.951 . S
C890 C891 1.366 . S
C890 C892 1.388 . S
C891 C890 1.366 . S
C891 C895 1.385 . S
C892 H873 0.951 . S
C892 C890 1.388 . S
C892 C893 1.366 . S
C893 C892 1.366 . S
C893 C894 1.414 . S
C893 C896 1.499 . S
C894 H874 0.950 . S
C894 C893 1.414 . S
C894 C895 1.374 . S
C895 H875 0.950 . S
C895 C891 1.385 . S
C895 C894 1.374 . S
C896 C893 1.499 . S
C896 C897 1.373 . S
C896 C898 1.389 . S
C897 H876 0.950 . S
C897 C896 1.373 . S
C897 C913 1.377 . S
C898 C896 1.389 . S
C898 C899 1.524 . S
C898 C912 1.377 . S
C899 C898 1.524 . S
C899 C900 1.397 . S
C899 C904 1.363 . S
C900 H877 0.950 . S
C900 C899 1.397 . S
C900 C901 1.334 . S
C901 H878 0.950 . S
C901 C900 1.334 . S
C901 C902 1.287 . S
C902 C901 1.287 . S
C902 C903 1.524 . S
C902 H921 0.913 . S
C903 H879 0.950 . S
C903 C902 1.524 . S
C903 C904 1.415 . S
C904 H880 0.950 . S
C904 C899 1.363 . S
C904 C903 1.415 . S
C905 H881 0.951 . S
C905 C906 1.366 . S
C905 C907 1.388 . S
C906 C905 1.366 . S
C906 C910 1.385 . S
C907 H882 0.951 . S
C907 C905 1.388 . S
C907 C908 1.366 . S
C908 C907 1.366 . S
C908 C909 1.414 . S
C908 C911 1.499 . S
C909 H883 0.950 . S
C909 C908 1.414 . S
C909 C910 1.374 . S
C910 H884 0.950 . S
C910 C906 1.385 . S
C910 C909 1.374 . S
C911 C908 1.499 . S
C911 C912 1.373 . S
C911 C913 1.389 . S
C912 H885 0.950 . S
C912 C898 1.377 . S
C912 C911 1.373 . S
C913 C897 1.377 . S
C913 C911 1.389 . S
C913 C914 1.524 . S
C914 C913 1.524 . S
C914 C915 1.397 . S
C914 C919 1.363 . S
C915 H886 0.950 . S
C915 C914 1.397 . S
C915 C916 1.334 . S
C916 H887 0.950 . S
C916 C915 1.334 . S
C916 C917 1.287 . S
C917 C916 1.287 . S
C917 C918 1.524 . S
C917 H920 0.999 . S
C918 H888 0.950 . S
C918 C917 1.524 . S
C918 C919 1.415 . S
C919 H889 0.950 . S
C919 C914 1.363 . S
C919 C918 1.415 . S
H920 C917 0.999 . S
H921 C902 0.913 . S
H922 C940 0.951 . S
H923 C942 0.951 . S
H924 C944 0.950 . S
H925 C945 0.950 . S
H926 C947 0.950 . S
H927 C950 0.950 . S
H928 C951 0.950 . S
H929 C953 0.950 . S
H930 C954 0.950 . S
H931 C955 0.951 . S
H932 C957 0.951 . S
H933 C959 0.950 . S
H934 C960 0.950 . S
H935 C962 0.950 . S
H936 C965 0.950 . S
H937 C966 0.950 . S
H938 C968 0.950 . S
H939 C969 0.950 . S
C940 H922 0.951 . S
C940 C941 1.366 . S
C940 C942 1.388 . S
C941 C940 1.366 . S
C941 C945 1.385 . S
C942 H923 0.951 . S
C942 C940 1.388 . S
C942 C943 1.366 . S
C943 C942 1.366 . S
C943 C944 1.414 . S
C943 C946 1.499 . S
C944 H924 0.950 . S
C944 C943 1.414 . S
C944 C945 1.374 . S
C945 H925 0.950 . S
C945 C941 1.385 . S
C945 C944 1.374 . S
C946 C943 1.499 . S
C946 C947 1.373 . S
C946 C948 1.389 . S
C947 H926 0.950 . S
C947 C946 1.373 . S
C947 C963 1.377 . S
C948 C946 1.389 . S
C948 C949 1.524 . S
C948 C962 1.377 . S
C949 C948 1.524 . S
C949 C950 1.397 . S
C949 C954 1.363 . S
C950 H927 0.950 . S
C950 C949 1.397 . S
C950 C951 1.334 . S
C951 H928 0.950 . S
C951 C950 1.334 . S
C951 C952 1.287 . S
C952 C951 1.287 . S
C952 C953 1.524 . S
C952 H971 0.913 . S
C953 H929 0.950 . S
C953 C952 1.524 . S
C953 C954 1.415 . S
C954 H930 0.950 . S
C954 C949 1.363 . S
C954 C953 1.415 . S
C955 H931 0.951 . S
C955 C956 1.366 . S
C955 C957 1.388 . S
C956 C955 1.366 . S
C956 C960 1.385 . S
C957 H932 0.951 . S
C957 C955 1.388 . S
C957 C958 1.366 . S
C958 C957 1.366 . S
C958 C959 1.414 . S
C958 C961 1.499 . S
C959 H933 0.950 . S
C959 C958 1.414 . S
C959 C960 1.374 . S
C960 H934 0.950 . S
C960 C956 1.385 . S
C960 C959 1.374 . S
C961 C958 1.499 . S
C961 C962 1.373 . S
C961 C963 1.389 . S
C962 H935 0.950 . S
C962 C948 1.377 . S
C962 C961 1.373 . S
C963 C947 1.377 . S
C963 C961 1.389 . S
C963 C964 1.524 . S
C964 C963 1.524 . S
C964 C965 1.397 . S
C964 C969 1.363 . S
C965 H936 0.950 . S
C965 C964 1.397 . S
C965 C966 1.334 . S
C966 H937 0.950 . S
C966 C965 1.334 . S
C966 C967 1.287 . S
C967 C966 1.287 . S
C967 C968 1.524 . S
C967 H970 0.999 . S
C968 H938 0.950 . S
C968 C967 1.524 . S
C968 C969 1.415 . S
C969 H939 0.950 . S
C969 C964 1.363 . S
C969 C968 1.415 . S
H970 C967 0.999 . S
H971 C952 0.913 . S
H972 C990 0.951 . S
H973 C992 0.951 . S
H974 C994 0.950 . S
H975 C995 0.950 . S
H976 C997 0.950 . S
H977 C1000 0.950 . S
H978 C1001 0.950 . S
H979 C1003 0.950 . S
H980 C1004 0.950 . S
H981 C1005 0.951 . S
H982 C1007 0.951 . S
H983 C1009 0.950 . S
H984 C1010 0.950 . S
H985 C1012 0.950 . S
H986 C1015 0.950 . S
H987 C1016 0.950 . S
H988 C1018 0.950 . S
H989 C1019 0.950 . S
C990 H972 0.951 . S
C990 C991 1.366 . S
C990 C992 1.388 . S
C991 C990 1.366 . S
C991 C995 1.385 . S
C992 H973 0.951 . S
C992 C990 1.388 . S
C992 C993 1.366 . S
C993 C992 1.366 . S
C993 C994 1.414 . S
C993 C996 1.499 . S
C994 H974 0.950 . S
C994 C993 1.414 . S
C994 C995 1.374 . S
C995 H975 0.950 . S
C995 C991 1.385 . S
C995 C994 1.374 . S
C996 C993 1.499 . S
C996 C997 1.373 . S
C996 C998 1.389 . S
C997 H976 0.950 . S
C997 C996 1.373 . S
C997 C1013 1.377 . S
C998 C996 1.389 . S
C998 C999 1.524 . S
C998 C1012 1.377 . S
C999 C998 1.524 . S
C999 C1000 1.397 . S
C999 C1004 1.363 . S
C1000 H977 0.950 . S
C1000 C999 1.397 . S
C1000 C1001 1.334 . S
C1001 H978 0.950 . S
C1001 C1000 1.334 . S
C1001 C1002 1.287 . S
C1002 C1001 1.287 . S
C1002 C1003 1.524 . S
C1002 H1021 0.913 . S
C1003 H979 0.950 . S
C1003 C1002 1.524 . S
C1003 C1004 1.415 . S
C1004 H980 0.950 . S
C1004 C999 1.363 . S
C1004 C1003 1.415 . S
C1005 H981 0.951 . S
C1005 C1006 1.366 . S
C1005 C1007 1.388 . S
C1006 C1005 1.366 . S
C1006 C1010 1.385 . S
C1007 H982 0.951 . S
C1007 C1005 1.388 . S
C1007 C1008 1.366 . S
C1008 C1007 1.366 . S
C1008 C1009 1.414 . S
C1008 C1011 1.499 . S
C1009 H983 0.950 . S
C1009 C1008 1.414 . S
C1009 C1010 1.374 . S
C1010 H984 0.950 . S
C1010 C1006 1.385 . S
C1010 C1009 1.374 . S
C1011 C1008 1.499 . S
C1011 C1012 1.373 . S
C1011 C1013 1.389 . S
C1012 H985 0.950 . S
C1012 C998 1.377 . S
C1012 C1011 1.373 . S
C1013 C997 1.377 . S
C1013 C1011 1.389 . S
C1013 C1014 1.524 . S
C1014 C1013 1.524 . S
C1014 C1015 1.397 . S
C1014 C1019 1.363 . S
C1015 H986 0.950 . S
C1015 C1014 1.397 . S
C1015 C1016 1.334 . S
C1016 H987 0.950 . S
C1016 C1015 1.334 . S
C1016 C1017 1.287 . S
C1017 C1016 1.287 . S
C1017 C1018 1.524 . S
C1017 H1020 0.999 . S
C1018 H988 0.950 . S
C1018 C1017 1.524 . S
C1018 C1019 1.415 . S
C1019 H989 0.950 . S
C1019 C1014 1.363 . S
C1019 C1018 1.415 . S
H1020 C1017 0.999 . S
H1021 C1002 0.913 . S
H1022 C1040 0.951 . S
H1023 C1042 0.951 . S
H1024 C1044 0.950 . S
H1025 C1045 0.950 . S
H1026 C1047 0.950 1_455 S
H1027 C1050 0.950 . S
H1028 C1051 0.950 . S
H1029 C1053 0.950 . S
H1030 C1054 0.950 . S
H1031 C1055 0.951 . S
H1032 C1057 0.951 . S
H1033 C1059 0.950 . S
H1034 C1060 0.950 . S
H1035 C1062 0.950 . S
H1036 C1065 0.950 . S
H1037 C1066 0.950 . S
H1038 C1068 0.950 . S
H1039 C1069 0.950 . S
C1040 H1022 0.951 . S
C1040 C1041 1.366 . S
C1040 C1042 1.388 . S
C1041 C1040 1.366 . S
C1041 C1045 1.385 . S
C1042 H1023 0.951 . S
C1042 C1040 1.388 . S
C1042 C1043 1.366 . S
C1043 C1042 1.366 . S
C1043 C1044 1.414 . S
C1043 C1046 1.499 . S
C1044 H1024 0.950 . S
C1044 C1043 1.414 . S
C1044 C1045 1.374 . S
C1045 H1025 0.950 . S
C1045 C1041 1.385 . S
C1045 C1044 1.374 . S
C1046 C1043 1.499 . S
C1046 C1047 1.373 1_455 S
C1046 C1048 1.389 1_455 S
C1047 H1026 0.950 1_655 S
C1047 C1046 1.373 1_655 S
C1047 C1063 1.377 . S
C1048 C1046 1.389 1_655 S
C1048 C1049 1.524 . S
C1048 C1062 1.377 . S
C1049 C1048 1.524 . S
C1049 C1050 1.397 1_655 S
C1049 C1054 1.363 . S
C1050 H1027 0.950 . S
C1050 C1049 1.397 1_455 S
C1050 C1051 1.334 . S
C1051 H1028 0.950 . S
C1051 C1050 1.334 . S
C1051 C1052 1.287 . S
C1052 C1051 1.287 . S
C1052 C1053 1.524 1_455 S
C1052 H1071 0.913 . S
C1053 H1029 0.950 . S
C1053 C1052 1.524 1_655 S
C1053 C1054 1.415 . S
C1054 H1030 0.950 . S
C1054 C1049 1.363 . S
C1054 C1053 1.415 . S
C1055 H1031 0.951 . S
C1055 C1056 1.366 . S
C1055 C1057 1.388 . S
C1056 C1055 1.366 . S
C1056 C1060 1.385 . S
C1057 H1032 0.951 . S
C1057 C1055 1.388 . S
C1057 C1058 1.366 . S
C1058 C1057 1.366 . S
C1058 C1059 1.414 . S
C1058 C1061 1.499 . S
C1059 H1033 0.950 . S
C1059 C1058 1.414 . S
C1059 C1060 1.374 . S
C1060 H1034 0.950 . S
C1060 C1056 1.385 . S
C1060 C1059 1.374 . S
C1061 C1058 1.499 . S
C1061 C1062 1.373 . S
C1061 C1063 1.389 . S
C1062 H1035 0.950 . S
C1062 C1048 1.377 . S
C1062 C1061 1.373 . S
C1063 C1047 1.377 . S
C1063 C1061 1.389 . S
C1063 C1064 1.524 . S
C1064 C1063 1.524 . S
C1064 C1065 1.397 . S
C1064 C1069 1.363 . S
C1065 H1036 0.950 . S
C1065 C1064 1.397 . S
C1065 C1066 1.334 . S
C1066 H1037 0.950 . S
C1066 C1065 1.334 . S
C1066 C1067 1.287 . S
C1067 C1066 1.287 . S
C1067 C1068 1.524 . S
C1067 H1070 0.999 . S
C1068 H1038 0.950 . S
C1068 C1067 1.524 . S
C1068 C1069 1.415 . S
C1069 H1039 0.950 . S
C1069 C1064 1.363 . S
C1069 C1068 1.415 . S
H1070 C1067 0.999 . S
H1071 C1052 0.913 . S
H1072 C1090 0.951 . S
H1073 C1092 0.951 . S
H1074 C1094 0.950 . S
H1075 C1095 0.950 . S
H1076 C1097 0.950 . S
H1077 C1100 0.950 . S
H1078 C1101 0.950 . S
H1079 C1103 0.950 . S
H1080 C1104 0.950 . S
H1081 C1105 0.951 . S
H1082 C1107 0.951 . S
H1083 C1109 0.950 . S
H1084 C1110 0.950 . S
H1085 C1112 0.950 . S
H1086 C1115 0.950 . S
H1087 C1116 0.950 . S
H1088 C1118 0.950 . S
H1089 C1119 0.950 . S
C1090 H1072 0.951 . S
C1090 C1091 1.366 . S
C1090 C1092 1.388 . S
C1091 C1090 1.366 . S
C1091 C1095 1.385 . S
C1092 H1073 0.951 . S
C1092 C1090 1.388 . S
C1092 C1093 1.366 . S
C1093 C1092 1.366 . S
C1093 C1094 1.414 . S
C1093 C1096 1.499 . S
C1094 H1074 0.950 . S
C1094 C1093 1.414 . S
C1094 C1095 1.374 . S
C1095 H1075 0.950 . S
C1095 C1091 1.385 . S
C1095 C1094 1.374 . S
C1096 C1093 1.499 . S
C1096 C1097 1.373 . S
C1096 C1098 1.389 . S
C1097 H1076 0.950 . S
C1097 C1096 1.373 . S
C1097 C1113 1.377 . S
C1098 C1096 1.389 . S
C1098 C1099 1.524 . S
C1098 C1112 1.377 . S
C1099 C1098 1.524 . S
C1099 C1100 1.397 . S
C1099 C1104 1.363 . S
C1100 H1077 0.950 . S
C1100 C1099 1.397 . S
C1100 C1101 1.334 . S
C1101 H1078 0.950 . S
C1101 C1100 1.334 . S
C1101 C1102 1.287 . S
C1102 C1101 1.287 . S
C1102 C1103 1.524 . S
C1102 H1121 0.913 . S
C1103 H1079 0.950 . S
C1103 C1102 1.524 . S
C1103 C1104 1.415 . S
C1104 H1080 0.950 . S
C1104 C1099 1.363 . S
C1104 C1103 1.415 . S
C1105 H1081 0.951 . S
C1105 C1106 1.366 . S
C1105 C1107 1.388 . S
C1106 C1105 1.366 . S
C1106 C1110 1.385 . S
C1107 H1082 0.951 . S
C1107 C1105 1.388 . S
C1107 C1108 1.366 . S
C1108 C1107 1.366 . S
C1108 C1109 1.414 . S
C1108 C1111 1.499 . S
C1109 H1083 0.950 . S
C1109 C1108 1.414 . S
C1109 C1110 1.374 . S
C1110 H1084 0.950 . S
C1110 C1106 1.385 . S
C1110 C1109 1.374 . S
C1111 C1108 1.499 . S
C1111 C1112 1.373 . S
C1111 C1113 1.389 . S
C1112 H1085 0.950 . S
C1112 C1098 1.377 . S
C1112 C1111 1.373 . S
C1113 C1097 1.377 . S
C1113 C1111 1.389 . S
C1113 C1114 1.524 . S
C1114 C1113 1.524 . S
C1114 C1115 1.397 . S
C1114 C1119 1.363 . S
C1115 H1086 0.950 . S
C1115 C1114 1.397 . S
C1115 C1116 1.334 . S
C1116 H1087 0.950 . S
C1116 C1115 1.334 . S
C1116 C1117 1.287 . S
C1117 C1116 1.287 . S
C1117 C1118 1.524 . S
C1117 H1120 0.999 . S
C1118 H1088 0.950 . S
C1118 C1117 1.524 . S
C1118 C1119 1.415 . S
C1119 H1089 0.950 . S
C1119 C1114 1.363 . S
C1119 C1118 1.415 . S
H1120 C1117 0.999 . S
H1121 C1102 0.913 . S
H1122 C1140 0.951 . S
H1123 C1142 0.951 . S
H1124 C1144 0.950 . S
H1125 C1145 0.950 . S
H1126 C1147 0.950 . S
H1127 C1150 0.950 . S
H1128 C1151 0.950 . S
H1129 C1153 0.950 . S
H1130 C1154 0.950 . S
H1131 C1155 0.951 . S
H1132 C1157 0.951 . S
H1133 C1159 0.950 . S
H1134 C1160 0.950 . S
H1135 C1162 0.950 . S
H1136 C1165 0.950 . S
H1137 C1166 0.950 . S
H1138 C1168 0.950 . S
H1139 C1169 0.950 . S
C1140 H1122 0.951 . S
C1140 C1141 1.366 . S
C1140 C1142 1.388 . S
C1141 C1140 1.366 . S
C1141 C1145 1.385 . S
C1142 H1123 0.951 . S
C1142 C1140 1.388 . S
C1142 C1143 1.366 . S
C1143 C1142 1.366 . S
C1143 C1144 1.414 . S
C1143 C1146 1.499 . S
C1144 H1124 0.950 . S
C1144 C1143 1.414 . S
C1144 C1145 1.374 . S
C1145 H1125 0.950 . S
C1145 C1141 1.385 . S
C1145 C1144 1.374 . S
C1146 C1143 1.499 . S
C1146 C1147 1.373 . S
C1146 C1148 1.389 . S
C1147 H1126 0.950 . S
C1147 C1146 1.373 . S
C1147 C1163 1.377 . S
C1148 C1146 1.389 . S
C1148 C1149 1.524 . S
C1148 C1162 1.377 . S
C1149 C1148 1.524 . S
C1149 C1150 1.397 . S
C1149 C1154 1.363 . S
C1150 H1127 0.950 . S
C1150 C1149 1.397 . S
C1150 C1151 1.334 . S
C1151 H1128 0.950 . S
C1151 C1150 1.334 . S
C1151 C1152 1.287 . S
C1152 C1151 1.287 . S
C1152 C1153 1.524 . S
C1152 H1171 0.913 . S
C1153 H1129 0.950 . S
C1153 C1152 1.524 . S
C1153 C1154 1.415 . S
C1154 H1130 0.950 . S
C1154 C1149 1.363 . S
C1154 C1153 1.415 . S
C1155 H1131 0.951 . S
C1155 C1156 1.366 . S
C1155 C1157 1.388 . S
C1156 C1155 1.366 . S
C1156 C1160 1.385 . S
C1157 H1132 0.951 . S
C1157 C1155 1.388 . S
C1157 C1158 1.366 . S
C1158 C1157 1.366 . S
C1158 C1159 1.414 . S
C1158 C1161 1.499 . S
C1159 H1133 0.950 . S
C1159 C1158 1.414 . S
C1159 C1160 1.374 . S
C1160 H1134 0.950 . S
C1160 C1156 1.385 . S
C1160 C1159 1.374 . S
C1161 C1158 1.499 . S
C1161 C1162 1.373 . S
C1161 C1163 1.389 . S
C1162 H1135 0.950 . S
C1162 C1148 1.377 . S
C1162 C1161 1.373 . S
C1163 C1147 1.377 . S
C1163 C1161 1.389 . S
C1163 C1164 1.524 . S
C1164 C1163 1.524 . S
C1164 C1165 1.397 . S
C1164 C1169 1.363 . S
C1165 H1136 0.950 . S
C1165 C1164 1.397 . S
C1165 C1166 1.334 . S
C1166 H1137 0.950 . S
C1166 C1165 1.334 . S
C1166 C1167 1.287 . S
C1167 C1166 1.287 . S
C1167 C1168 1.524 . S
C1167 H1170 0.999 . S
C1168 H1138 0.950 . S
C1168 C1167 1.524 . S
C1168 C1169 1.415 . S
C1169 H1139 0.950 . S
C1169 C1164 1.363 . S
C1169 C1168 1.415 . S
H1170 C1167 0.999 . S
H1171 C1152 0.913 . S
H1172 C1190 0.951 . S
H1173 C1192 0.951 . S
H1174 C1194 0.950 . S
H1175 C1195 0.950 . S
H1176 C1197 0.950 . S
H1177 C1200 0.950 . S
H1178 C1201 0.950 . S
H1179 C1203 0.950 . S
H1180 C1204 0.950 . S
H1181 C1205 0.951 . S
H1182 C1207 0.951 . S
H1183 C1209 0.950 . S
H1184 C1210 0.950 . S
H1185 C1212 0.950 . S
H1186 C1215 0.950 . S
H1187 C1216 0.950 . S
H1188 C1218 0.950 . S
H1189 C1219 0.950 . S
C1190 H1172 0.951 . S
C1190 C1191 1.366 . S
C1190 C1192 1.388 . S
C1191 C1190 1.366 . S
C1191 C1195 1.385 . S
C1192 H1173 0.951 . S
C1192 C1190 1.388 . S
C1192 C1193 1.366 . S
C1193 C1192 1.366 . S
C1193 C1194 1.414 . S
C1193 C1196 1.499 . S
C1194 H1174 0.950 . S
C1194 C1193 1.414 . S
C1194 C1195 1.374 . S
C1195 H1175 0.950 . S
C1195 C1191 1.385 . S
C1195 C1194 1.374 . S
C1196 C1193 1.499 . S
C1196 C1197 1.373 . S
C1196 C1198 1.389 . S
C1197 H1176 0.950 . S
C1197 C1196 1.373 . S
C1197 C1213 1.377 . S
C1198 C1196 1.389 . S
C1198 C1199 1.524 . S
C1198 C1212 1.377 . S
C1199 C1198 1.524 . S
C1199 C1200 1.397 . S
C1199 C1204 1.363 . S
C1200 H1177 0.950 . S
C1200 C1199 1.397 . S
C1200 C1201 1.334 . S
C1201 H1178 0.950 . S
C1201 C1200 1.334 . S
C1201 C1202 1.287 . S
C1202 C1201 1.287 . S
C1202 C1203 1.524 . S
C1202 H1221 0.913 . S
C1203 H1179 0.950 . S
C1203 C1202 1.524 . S
C1203 C1204 1.415 . S
C1204 H1180 0.950 . S
C1204 C1199 1.363 . S
C1204 C1203 1.415 . S
C1205 H1181 0.951 . S
C1205 C1206 1.366 . S
C1205 C1207 1.388 . S
C1206 C1205 1.366 . S
C1206 C1210 1.385 . S
C1207 H1182 0.951 . S
C1207 C1205 1.388 . S
C1207 C1208 1.366 . S
C1208 C1207 1.366 . S
C1208 C1209 1.414 . S
C1208 C1211 1.499 . S
C1209 H1183 0.950 . S
C1209 C1208 1.414 . S
C1209 C1210 1.374 . S
C1210 H1184 0.950 . S
C1210 C1206 1.385 . S
C1210 C1209 1.374 . S
C1211 C1208 1.499 . S
C1211 C1212 1.373 . S
C1211 C1213 1.389 . S
C1212 H1185 0.950 . S
C1212 C1198 1.377 . S
C1212 C1211 1.373 . S
C1213 C1197 1.377 . S
C1213 C1211 1.389 . S
C1213 C1214 1.524 . S
C1214 C1213 1.524 . S
C1214 C1215 1.397 . S
C1214 C1219 1.363 . S
C1215 H1186 0.950 . S
C1215 C1214 1.397 . S
C1215 C1216 1.334 . S
C1216 H1187 0.950 . S
C1216 C1215 1.334 . S
C1216 C1217 1.287 . S
C1217 C1216 1.287 . S
C1217 C1218 1.524 . S
C1217 H1220 0.999 . S
C1218 H1188 0.950 . S
C1218 C1217 1.524 . S
C1218 C1219 1.415 . S
C1219 H1189 0.950 . S
C1219 C1214 1.363 . S
C1219 C1218 1.415 . S
H1220 C1217 0.999 . S
H1221 C1202 0.913 . S
H1222 C1240 0.951 . S
H1223 C1242 0.951 . S
H1224 C1244 0.950 . S
H1225 C1245 0.950 . S
H1226 C1247 0.950 . S
H1227 C1250 0.950 . S
H1228 C1251 0.950 . S
H1229 C1253 0.950 . S
H1230 C1254 0.950 . S
H1231 C1255 0.951 . S
H1232 C1257 0.951 . S
H1233 C1259 0.950 . S
H1234 C1260 0.950 . S
H1235 C1262 0.950 . S
H1236 C1265 0.950 . S
H1237 C1266 0.950 . S
H1238 C1268 0.950 . S
H1239 C1269 0.950 . S
C1240 H1222 0.951 . S
C1240 C1241 1.366 . S
C1240 C1242 1.388 . S
C1241 C1240 1.366 . S
C1241 C1245 1.385 . S
C1242 H1223 0.951 . S
C1242 C1240 1.388 . S
C1242 C1243 1.366 . S
C1243 C1242 1.366 . S
C1243 C1244 1.414 . S
C1243 C1246 1.499 1_556 S
C1244 H1224 0.950 . S
C1244 C1243 1.414 . S
C1244 C1245 1.374 . S
C1245 H1225 0.950 . S
C1245 C1241 1.385 . S
C1245 C1244 1.374 . S
C1246 C1243 1.499 1_554 S
C1246 C1247 1.373 . S
C1246 C1248 1.389 . S
C1247 H1226 0.950 . S
C1247 C1246 1.373 . S
C1247 C1263 1.377 . S
C1248 C1246 1.389 . S
C1248 C1249 1.524 . S
C1248 C1262 1.377 . S
C1249 C1248 1.524 . S
C1249 C1250 1.397 1_554 S
C1249 C1254 1.363 . S
C1250 H1227 0.950 . S
C1250 C1249 1.397 1_556 S
C1250 C1251 1.334 . S
C1251 H1228 0.950 . S
C1251 C1250 1.334 . S
C1251 C1252 1.287 . S
C1252 C1251 1.287 . S
C1252 C1253 1.524 1_556 S
C1252 H1271 0.913 . S
C1253 H1229 0.950 . S
C1253 C1252 1.524 1_554 S
C1253 C1254 1.415 . S
C1254 H1230 0.950 . S
C1254 C1249 1.363 . S
C1254 C1253 1.415 . S
C1255 H1231 0.951 . S
C1255 C1256 1.366 . S
C1255 C1257 1.388 . S
C1256 C1255 1.366 . S
C1256 C1260 1.385 . S
C1257 H1232 0.951 . S
C1257 C1255 1.388 . S
C1257 C1258 1.366 . S
C1258 C1257 1.366 . S
C1258 C1259 1.414 . S
C1258 C1261 1.499 . S
C1259 H1233 0.950 . S
C1259 C1258 1.414 . S
C1259 C1260 1.374 . S
C1260 H1234 0.950 . S
C1260 C1256 1.385 . S
C1260 C1259 1.374 . S
C1261 C1258 1.499 . S
C1261 C1262 1.373 . S
C1261 C1263 1.389 . S
C1262 H1235 0.950 . S
C1262 C1248 1.377 . S
C1262 C1261 1.373 . S
C1263 C1247 1.377 . S
C1263 C1261 1.389 . S
C1263 C1264 1.524 . S
C1264 C1263 1.524 . S
C1264 C1265 1.397 . S
C1264 C1269 1.363 . S
C1265 H1236 0.950 . S
C1265 C1264 1.397 . S
C1265 C1266 1.334 . S
C1266 H1237 0.950 . S
C1266 C1265 1.334 . S
C1266 C1267 1.287 . S
C1267 C1266 1.287 . S
C1267 C1268 1.524 . S
C1267 H1270 0.999 . S
C1268 H1238 0.950 . S
C1268 C1267 1.524 . S
C1268 C1269 1.415 . S
C1269 H1239 0.950 . S
C1269 C1264 1.363 . S
C1269 C1268 1.415 . S
H1270 C1267 0.999 . S
H1271 C1252 0.913 . S
H1272 C1290 0.951 . S
H1273 C1292 0.951 . S
H1274 C1294 0.950 . S
H1275 C1295 0.950 . S
H1276 C1297 0.950 . S
H1277 C1300 0.950 . S
H1278 C1301 0.950 . S
H1279 C1303 0.950 . S
H1280 C1304 0.950 . S
H1281 C1305 0.951 . S
H1282 C1307 0.951 . S
H1283 C1309 0.950 . S
H1284 C1310 0.950 . S
H1285 C1312 0.950 . S
H1286 C1315 0.950 . S
H1287 C1316 0.950 . S
H1288 C1318 0.950 . S
H1289 C1319 0.950 . S
C1290 H1272 0.951 . S
C1290 C1291 1.366 . S
C1290 C1292 1.388 . S
C1291 C1290 1.366 . S
C1291 C1295 1.385 . S
C1292 H1273 0.951 . S
C1292 C1290 1.388 . S
C1292 C1293 1.366 . S
C1293 C1292 1.366 . S
C1293 C1294 1.414 . S
C1293 C1296 1.499 . S
C1294 H1274 0.950 . S
C1294 C1293 1.414 . S
C1294 C1295 1.374 . S
C1295 H1275 0.950 . S
C1295 C1291 1.385 . S
C1295 C1294 1.374 . S
C1296 C1293 1.499 . S
C1296 C1297 1.373 . S
C1296 C1298 1.389 . S
C1297 H1276 0.950 . S
C1297 C1296 1.373 . S
C1297 C1313 1.377 . S
C1298 C1296 1.389 . S
C1298 C1299 1.524 . S
C1298 C1312 1.377 . S
C1299 C1298 1.524 . S
C1299 C1300 1.397 . S
C1299 C1304 1.363 . S
C1300 H1277 0.950 . S
C1300 C1299 1.397 . S
C1300 C1301 1.334 . S
C1301 H1278 0.950 . S
C1301 C1300 1.334 . S
C1301 C1302 1.287 . S
C1302 C1301 1.287 . S
C1302 C1303 1.524 . S
C1302 H1321 0.913 . S
C1303 H1279 0.950 . S
C1303 C1302 1.524 . S
C1303 C1304 1.415 . S
C1304 H1280 0.950 . S
C1304 C1299 1.363 . S
C1304 C1303 1.415 . S
C1305 H1281 0.951 . S
C1305 C1306 1.366 . S
C1305 C1307 1.388 . S
C1306 C1305 1.366 . S
C1306 C1310 1.385 . S
C1307 H1282 0.951 . S
C1307 C1305 1.388 . S
C1307 C1308 1.366 . S
C1308 C1307 1.366 . S
C1308 C1309 1.414 . S
C1308 C1311 1.499 . S
C1309 H1283 0.950 . S
C1309 C1308 1.414 . S
C1309 C1310 1.374 . S
C1310 H1284 0.950 . S
C1310 C1306 1.385 . S
C1310 C1309 1.374 . S
C1311 C1308 1.499 . S
C1311 C1312 1.373 . S
C1311 C1313 1.389 . S
C1312 H1285 0.950 . S
C1312 C1298 1.377 . S
C1312 C1311 1.373 . S
C1313 C1297 1.377 . S
C1313 C1311 1.389 . S
C1313 C1314 1.524 . S
C1314 C1313 1.524 . S
C1314 C1315 1.397 . S
C1314 C1319 1.363 . S
C1315 H1286 0.950 . S
C1315 C1314 1.397 . S
C1315 C1316 1.334 . S
C1316 H1287 0.950 . S
C1316 C1315 1.334 . S
C1316 C1317 1.287 . S
C1317 C1316 1.287 . S
C1317 C1318 1.524 . S
C1317 H1320 0.999 . S
C1318 H1288 0.950 . S
C1318 C1317 1.524 . S
C1318 C1319 1.415 . S
C1319 H1289 0.950 . S
C1319 C1314 1.363 . S
C1319 C1318 1.415 . S
H1320 C1317 0.999 . S
H1321 C1302 0.913 . S
H1322 C1340 0.951 . S
H1323 C1342 0.951 . S
H1324 C1344 0.950 . S
H1325 C1345 0.950 . S
H1326 C1347 0.950 . S
H1327 C1350 0.950 . S
H1328 C1351 0.950 . S
H1329 C1353 0.950 . S
H1330 C1354 0.950 . S
H1331 C1355 0.951 . S
H1332 C1357 0.951 . S
H1333 C1359 0.950 . S
H1334 C1360 0.950 . S
H1335 C1362 0.950 . S
H1336 C1365 0.950 . S
H1337 C1366 0.950 . S
H1338 C1368 0.950 . S
H1339 C1369 0.950 . S
C1340 H1322 0.951 . S
C1340 C1341 1.366 . S
C1340 C1342 1.388 . S
C1341 C1340 1.366 . S
C1341 C1345 1.385 . S
C1342 H1323 0.951 . S
C1342 C1340 1.388 . S
C1342 C1343 1.366 . S
C1343 C1342 1.366 . S
C1343 C1344 1.414 . S
C1343 C1346 1.499 . S
C1344 H1324 0.950 . S
C1344 C1343 1.414 . S
C1344 C1345 1.374 . S
C1345 H1325 0.950 . S
C1345 C1341 1.385 . S
C1345 C1344 1.374 . S
C1346 C1343 1.499 . S
C1346 C1347 1.373 . S
C1346 C1348 1.389 . S
C1347 H1326 0.950 . S
C1347 C1346 1.373 . S
C1347 C1363 1.377 . S
C1348 C1346 1.389 . S
C1348 C1349 1.524 . S
C1348 C1362 1.377 . S
C1349 C1348 1.524 . S
C1349 C1350 1.397 . S
C1349 C1354 1.363 . S
C1350 H1327 0.950 . S
C1350 C1349 1.397 . S
C1350 C1351 1.334 . S
C1351 H1328 0.950 . S
C1351 C1350 1.334 . S
C1351 C1352 1.287 . S
C1352 C1351 1.287 . S
C1352 C1353 1.524 . S
C1352 H1371 0.913 . S
C1353 H1329 0.950 . S
C1353 C1352 1.524 . S
C1353 C1354 1.415 . S
C1354 H1330 0.950 . S
C1354 C1349 1.363 . S
C1354 C1353 1.415 . S
C1355 H1331 0.951 . S
C1355 C1356 1.366 . S
C1355 C1357 1.388 . S
C1356 C1355 1.366 . S
C1356 C1360 1.385 . S
C1357 H1332 0.951 . S
C1357 C1355 1.388 . S
C1357 C1358 1.366 . S
C1358 C1357 1.366 . S
C1358 C1359 1.414 . S
C1358 C1361 1.499 . S
C1359 H1333 0.950 . S
C1359 C1358 1.414 . S
C1359 C1360 1.374 . S
C1360 H1334 0.950 . S
C1360 C1356 1.385 . S
C1360 C1359 1.374 . S
C1361 C1358 1.499 . S
C1361 C1362 1.373 . S
C1361 C1363 1.389 . S
C1362 H1335 0.950 . S
C1362 C1348 1.377 . S
C1362 C1361 1.373 . S
C1363 C1347 1.377 . S
C1363 C1361 1.389 . S
C1363 C1364 1.524 . S
C1364 C1363 1.524 . S
C1364 C1365 1.397 . S
C1364 C1369 1.363 . S
C1365 H1336 0.950 . S
C1365 C1364 1.397 . S
C1365 C1366 1.334 . S
C1366 H1337 0.950 . S
C1366 C1365 1.334 . S
C1366 C1367 1.287 . S
C1367 C1366 1.287 . S
C1367 C1368 1.524 . S
C1367 H1370 0.999 . S
C1368 H1338 0.950 . S
C1368 C1367 1.524 . S
C1368 C1369 1.415 . S
C1369 H1339 0.950 . S
C1369 C1364 1.363 . S
C1369 C1368 1.415 . S
H1370 C1367 0.999 . S
H1371 C1352 0.913 . S
H1372 C1390 0.951 . S
H1373 C1392 0.951 . S
H1374 C1394 0.950 . S
H1375 C1395 0.950 . S
H1376 C1397 0.950 . S
H1377 C1400 0.950 . S
H1378 C1401 0.950 . S
H1379 C1403 0.950 . S
H1380 C1404 0.950 . S
H1381 C1405 0.951 . S
H1382 C1407 0.951 . S
H1383 C1409 0.950 . S
H1384 C1410 0.950 . S
H1385 C1412 0.950 . S
H1386 C1415 0.950 . S
H1387 C1416 0.950 . S
H1388 C1418 0.950 . S
H1389 C1419 0.950 . S
C1390 H1372 0.951 . S
C1390 C1391 1.366 . S
C1390 C1392 1.388 . S
C1391 C1390 1.366 . S
C1391 C1395 1.385 . S
C1392 H1373 0.951 . S
C1392 C1390 1.388 . S
C1392 C1393 1.366 . S
C1393 C1392 1.366 . S
C1393 C1394 1.414 . S
C1393 C1396 1.499 . S
C1394 H1374 0.950 . S
C1394 C1393 1.414 . S
C1394 C1395 1.374 . S
C1395 H1375 0.950 . S
C1395 C1391 1.385 . S
C1395 C1394 1.374 . S
C1396 C1393 1.499 . S
C1396 C1397 1.373 . S
C1396 C1398 1.389 . S
C1397 H1376 0.950 . S
C1397 C1396 1.373 . S
C1397 C1413 1.377 . S
C1398 C1396 1.389 . S
C1398 C1399 1.524 . S
C1398 C1412 1.377 . S
C1399 C1398 1.524 . S
C1399 C1400 1.397 . S
C1399 C1404 1.363 . S
C1400 H1377 0.950 . S
C1400 C1399 1.397 . S
C1400 C1401 1.334 . S
C1401 H1378 0.950 . S
C1401 C1400 1.334 . S
C1401 C1402 1.287 . S
C1402 C1401 1.287 . S
C1402 C1403 1.524 . S
C1402 H1421 0.913 . S
C1403 H1379 0.950 . S
C1403 C1402 1.524 . S
C1403 C1404 1.415 . S
C1404 H1380 0.950 . S
C1404 C1399 1.363 . S
C1404 C1403 1.415 . S
C1405 H1381 0.951 . S
C1405 C1406 1.366 . S
C1405 C1407 1.388 . S
C1406 C1405 1.366 . S
C1406 C1410 1.385 . S
C1407 H1382 0.951 . S
C1407 C1405 1.388 . S
C1407 C1408 1.366 . S
C1408 C1407 1.366 . S
C1408 C1409 1.414 . S
C1408 C1411 1.499 . S
C1409 H1383 0.950 . S
C1409 C1408 1.414 . S
C1409 C1410 1.374 . S
C1410 H1384 0.950 . S
C1410 C1406 1.385 . S
C1410 C1409 1.374 . S
C1411 C1408 1.499 . S
C1411 C1412 1.373 . S
C1411 C1413 1.389 . S
C1412 H1385 0.950 . S
C1412 C1398 1.377 . S
C1412 C1411 1.373 . S
C1413 C1397 1.377 . S
C1413 C1411 1.389 . S
C1413 C1414 1.524 . S
C1414 C1413 1.524 . S
C1414 C1415 1.397 . S
C1414 C1419 1.363 . S
C1415 H1386 0.950 . S
C1415 C1414 1.397 . S
C1415 C1416 1.334 . S
C1416 H1387 0.950 . S
C1416 C1415 1.334 . S
C1416 C1417 1.287 . S
C1417 C1416 1.287 . S
C1417 C1418 1.524 . S
C1417 H1420 0.999 . S
C1418 H1388 0.950 . S
C1418 C1417 1.524 . S
C1418 C1419 1.415 . S
C1419 H1389 0.950 . S
C1419 C1414 1.363 . S
C1419 C1418 1.415 . S
H1420 C1417 0.999 . S
H1421 C1402 0.913 . S
H1422 C1440 0.951 . S
H1423 C1442 0.951 . S
H1424 C1444 0.950 . S
H1425 C1445 0.950 . S
H1426 C1447 0.950 . S
H1427 C1450 0.950 . S
H1428 C1451 0.950 . S
H1429 C1453 0.950 . S
H1430 C1454 0.950 1_556 S
H1431 C1455 0.951 . S
H1432 C1457 0.951 . S
H1433 C1459 0.950 . S
H1434 C1460 0.950 . S
H1435 C1462 0.950 . S
H1436 C1465 0.950 . S
H1437 C1466 0.950 . S
H1438 C1468 0.950 . S
H1439 C1469 0.950 . S
C1440 H1422 0.951 . S
C1440 C1441 1.366 . S
C1440 C1442 1.388 . S
C1441 C1440 1.366 . S
C1441 C1445 1.385 . S
C1442 H1423 0.951 . S
C1442 C1440 1.388 . S
C1442 C1443 1.366 . S
C1443 C1442 1.366 . S
C1443 C1444 1.414 . S
C1443 C1446 1.499 1_554 S
C1444 H1424 0.950 . S
C1444 C1443 1.414 . S
C1444 C1445 1.374 . S
C1445 H1425 0.950 . S
C1445 C1441 1.385 . S
C1445 C1444 1.374 . S
C1446 C1443 1.499 1_556 S
C1446 C1447 1.373 . S
C1446 C1448 1.389 . S
C1447 H1426 0.950 . S
C1447 C1446 1.373 . S
C1447 C1463 1.377 . S
C1448 C1446 1.389 . S
C1448 C1449 1.524 1_556 S
C1448 C1462 1.377 . S
C1449 C1448 1.524 1_554 S
C1449 C1450 1.397 . S
C1449 C1454 1.363 . S
C1450 H1427 0.950 . S
C1450 C1449 1.397 . S
C1450 C1451 1.334 . S
C1451 H1428 0.950 . S
C1451 C1450 1.334 . S
C1451 C1452 1.287 . S
C1452 C1451 1.287 . S
C1452 C1453 1.524 . S
C1452 H1471 0.913 . S
C1453 H1429 0.950 . S
C1453 C1452 1.524 . S
C1453 C1454 1.415 . S
C1454 H1430 0.950 1_554 S
C1454 C1449 1.363 . S
C1454 C1453 1.415 . S
C1455 H1431 0.951 . S
C1455 C1456 1.366 . S
C1455 C1457 1.388 . S
C1456 C1455 1.366 . S
C1456 C1460 1.385 . S
C1457 H1432 0.951 . S
C1457 C1455 1.388 . S
C1457 C1458 1.366 . S
C1458 C1457 1.366 . S
C1458 C1459 1.414 . S
C1458 C1461 1.499 . S
C1459 H1433 0.950 . S
C1459 C1458 1.414 . S
C1459 C1460 1.374 . S
C1460 H1434 0.950 . S
C1460 C1456 1.385 . S
C1460 C1459 1.374 . S
C1461 C1458 1.499 . S
C1461 C1462 1.373 . S
C1461 C1463 1.389 . S
C1462 H1435 0.950 . S
C1462 C1448 1.377 . S
C1462 C1461 1.373 . S
C1463 C1447 1.377 . S
C1463 C1461 1.389 . S
C1463 C1464 1.524 . S
C1464 C1463 1.524 . S
C1464 C1465 1.397 . S
C1464 C1469 1.363 . S
C1465 H1436 0.950 . S
C1465 C1464 1.397 . S
C1465 C1466 1.334 . S
C1466 H1437 0.950 . S
C1466 C1465 1.334 . S
C1466 C1467 1.287 . S
C1467 C1466 1.287 . S
C1467 C1468 1.524 . S
C1467 H1470 0.999 . S
C1468 H1438 0.950 . S
C1468 C1467 1.524 . S
C1468 C1469 1.415 . S
C1469 H1439 0.950 . S
C1469 C1464 1.363 . S
C1469 C1468 1.415 . S
H1470 C1467 0.999 . S
H1471 C1452 0.913 . S
H1472 C1490 0.951 . S
H1473 C1492 0.951 . S
H1474 C1494 0.950 . S
H1475 C1495 0.950 . S
H1476 C1497 0.950 . S
H1477 C1500 0.950 . S
H1478 C1501 0.950 . S
H1479 C1503 0.950 . S
H1480 C1504 0.950 . S
H1481 C1505 0.951 . S
H1482 C1507 0.951 . S
H1483 C1509 0.950 . S
H1484 C1510 0.950 . S
H1485 C1512 0.950 . S
H1486 C1515 0.950 . S
H1487 C1516 0.950 . S
H1488 C1518 0.950 . S
H1489 C1519 0.950 . S
C1490 H1472 0.951 . S
C1490 C1491 1.366 . S
C1490 C1492 1.388 . S
C1491 C1490 1.366 . S
C1491 C1495 1.385 . S
C1492 H1473 0.951 . S
C1492 C1490 1.388 . S
C1492 C1493 1.366 . S
C1493 C1492 1.366 . S
C1493 C1494 1.414 . S
C1493 C1496 1.499 . S
C1494 H1474 0.950 . S
C1494 C1493 1.414 . S
C1494 C1495 1.374 . S
C1495 H1475 0.950 . S
C1495 C1491 1.385 . S
C1495 C1494 1.374 . S
C1496 C1493 1.499 . S
C1496 C1497 1.373 . S
C1496 C1498 1.389 . S
C1497 H1476 0.950 . S
C1497 C1496 1.373 . S
C1497 C1513 1.377 . S
C1498 C1496 1.389 . S
C1498 C1499 1.524 . S
C1498 C1512 1.377 . S
C1499 C1498 1.524 . S
C1499 C1500 1.397 . S
C1499 C1504 1.363 . S
C1500 H1477 0.950 . S
C1500 C1499 1.397 . S
C1500 C1501 1.334 . S
C1501 H1478 0.950 . S
C1501 C1500 1.334 . S
C1501 C1502 1.287 . S
C1502 C1501 1.287 . S
C1502 C1503 1.524 . S
C1502 H1521 0.913 . S
C1503 H1479 0.950 . S
C1503 C1502 1.524 . S
C1503 C1504 1.415 . S
C1504 H1480 0.950 . S
C1504 C1499 1.363 . S
C1504 C1503 1.415 . S
C1505 H1481 0.951 . S
C1505 C1506 1.366 . S
C1505 C1507 1.388 . S
C1506 C1505 1.366 . S
C1506 C1510 1.385 . S
C1507 H1482 0.951 . S
C1507 C1505 1.388 . S
C1507 C1508 1.366 . S
C1508 C1507 1.366 . S
C1508 C1509 1.414 . S
C1508 C1511 1.499 . S
C1509 H1483 0.950 . S
C1509 C1508 1.414 . S
C1509 C1510 1.374 . S
C1510 H1484 0.950 . S
C1510 C1506 1.385 . S
C1510 C1509 1.374 . S
C1511 C1508 1.499 . S
C1511 C1512 1.373 . S
C1511 C1513 1.389 . S
C1512 H1485 0.950 . S
C1512 C1498 1.377 . S
C1512 C1511 1.373 . S
C1513 C1497 1.377 . S
C1513 C1511 1.389 . S
C1513 C1514 1.524 . S
C1514 C1513 1.524 . S
C1514 C1515 1.397 . S
C1514 C1519 1.363 . S
C1515 H1486 0.950 . S
C1515 C1514 1.397 . S
C1515 C1516 1.334 . S
C1516 H1487 0.950 . S
C1516 C1515 1.334 . S
C1516 C1517 1.287 . S
C1517 C1516 1.287 . S
C1517 C1518 1.524 . S
C1517 H1520 0.999 . S
C1518 H1488 0.950 . S
C1518 C1517 1.524 . S
C1518 C1519 1.415 . S
C1519 H1489 0.950 . S
C1519 C1514 1.363 . S
C1519 C1518 1.415 . S
H1520 C1517 0.999 . S
H1521 C1502 0.913 . S
H1522 C1540 0.951 . S
H1523 C1542 0.951 . S
H1524 C1544 0.950 . S
H1525 C1545 0.950 . S
H1526 C1547 0.950 . S
H1527 C1550 0.950 . S
H1528 C1551 0.950 . S
H1529 C1553 0.950 . S
H1530 C1554 0.950 . S
H1531 C1555 0.951 . S
H1532 C1557 0.951 . S
H1533 C1559 0.950 . S
H1534 C1560 0.950 . S
H1535 C1562 0.950 . S
H1536 C1565 0.950 . S
H1537 C1566 0.950 . S
H1538 C1568 0.950 . S
H1539 C1569 0.950 . S
C1540 H1522 0.951 . S
C1540 C1541 1.366 . S
C1540 C1542 1.388 . S
C1541 C1540 1.366 . S
C1541 C1545 1.385 . S
C1542 H1523 0.951 . S
C1542 C1540 1.388 . S
C1542 C1543 1.366 . S
C1543 C1542 1.366 . S
C1543 C1544 1.414 . S
C1543 C1546 1.499 . S
C1544 H1524 0.950 . S
C1544 C1543 1.414 . S
C1544 C1545 1.374 . S
C1545 H1525 0.950 . S
C1545 C1541 1.385 . S
C1545 C1544 1.374 . S
C1546 C1543 1.499 . S
C1546 C1547 1.373 . S
C1546 C1548 1.389 . S
C1547 H1526 0.950 . S
C1547 C1546 1.373 . S
C1547 C1563 1.377 . S
C1548 C1546 1.389 . S
C1548 C1549 1.524 . S
C1548 C1562 1.377 . S
C1549 C1548 1.524 . S
C1549 C1550 1.397 . S
C1549 C1554 1.363 . S
C1550 H1527 0.950 . S
C1550 C1549 1.397 . S
C1550 C1551 1.334 . S
C1551 H1528 0.950 . S
C1551 C1550 1.334 . S
C1551 C1552 1.287 . S
C1552 C1551 1.287 . S
C1552 C1553 1.524 . S
C1552 H1571 0.913 . S
C1553 H1529 0.950 . S
C1553 C1552 1.524 . S
C1553 C1554 1.415 . S
C1554 H1530 0.950 . S
C1554 C1549 1.363 . S
C1554 C1553 1.415 . S
C1555 H1531 0.951 . S
C1555 C1556 1.366 . S
C1555 C1557 1.388 . S
C1556 C1555 1.366 . S
C1556 C1560 1.385 . S
C1557 H1532 0.951 . S
C1557 C1555 1.388 . S
C1557 C1558 1.366 . S
C1558 C1557 1.366 . S
C1558 C1559 1.414 . S
C1558 C1561 1.499 . S
C1559 H1533 0.950 . S
C1559 C1558 1.414 . S
C1559 C1560 1.374 . S
C1560 H1534 0.950 . S
C1560 C1556 1.385 . S
C1560 C1559 1.374 . S
C1561 C1558 1.499 . S
C1561 C1562 1.373 . S
C1561 C1563 1.389 . S
C1562 H1535 0.950 . S
C1562 C1548 1.377 . S
C1562 C1561 1.373 . S
C1563 C1547 1.377 . S
C1563 C1561 1.389 . S
C1563 C1564 1.524 . S
C1564 C1563 1.524 . S
C1564 C1565 1.397 . S
C1564 C1569 1.363 . S
C1565 H1536 0.950 . S
C1565 C1564 1.397 . S
C1565 C1566 1.334 . S
C1566 H1537 0.950 . S
C1566 C1565 1.334 . S
C1566 C1567 1.287 . S
C1567 C1566 1.287 . S
C1567 C1568 1.524 . S
C1567 H1570 0.999 . S
C1568 H1538 0.950 . S
C1568 C1567 1.524 . S
C1568 C1569 1.415 . S
C1569 H1539 0.950 . S
C1569 C1564 1.363 . S
C1569 C1568 1.415 . S
H1570 C1567 0.999 . S
H1571 C1552 0.913 . S
H1572 C1590 0.951 . S
H1573 C1592 0.951 . S
H1574 C1594 0.950 . S
H1575 C1595 0.950 . S
H1576 C1597 0.950 . S
H1577 C1600 0.950 . S
H1578 C1601 0.950 . S
H1579 C1603 0.950 . S
H1580 C1604 0.950 . S
H1581 C1605 0.951 . S
H1582 C1607 0.951 . S
H1583 C1609 0.950 . S
H1584 C1610 0.950 . S
H1585 C1612 0.950 . S
H1586 C1615 0.950 . S
H1587 C1616 0.950 . S
H1588 C1618 0.950 . S
H1589 C1619 0.950 . S
C1590 H1572 0.951 . S
C1590 C1591 1.366 . S
C1590 C1592 1.388 . S
C1591 C1590 1.366 . S
C1591 C1595 1.385 . S
C1592 H1573 0.951 . S
C1592 C1590 1.388 . S
C1592 C1593 1.366 . S
C1593 C1592 1.366 . S
C1593 C1594 1.414 . S
C1593 C1596 1.499 . S
C1594 H1574 0.950 . S
C1594 C1593 1.414 . S
C1594 C1595 1.374 . S
C1595 H1575 0.950 . S
C1595 C1591 1.385 . S
C1595 C1594 1.374 . S
C1596 C1593 1.499 . S
C1596 C1597 1.373 . S
C1596 C1598 1.389 . S
C1597 H1576 0.950 . S
C1597 C1596 1.373 . S
C1597 C1613 1.377 . S
C1598 C1596 1.389 . S
C1598 C1599 1.524 . S
C1598 C1612 1.377 . S
C1599 C1598 1.524 . S
C1599 C1600 1.397 . S
C1599 C1604 1.363 . S
C1600 H1577 0.950 . S
C1600 C1599 1.397 . S
C1600 C1601 1.334 . S
C1601 H1578 0.950 . S
C1601 C1600 1.334 . S
C1601 C1602 1.287 . S
C1602 C1601 1.287 . S
C1602 C1603 1.524 . S
C1602 H1621 0.913 . S
C1603 H1579 0.950 . S
C1603 C1602 1.524 . S
C1603 C1604 1.415 . S
C1604 H1580 0.950 . S
C1604 C1599 1.363 . S
C1604 C1603 1.415 . S
C1605 H1581 0.951 . S
C1605 C1606 1.366 . S
C1605 C1607 1.388 . S
C1606 C1605 1.366 . S
C1606 C1610 1.385 . S
C1607 H1582 0.951 . S
C1607 C1605 1.388 . S
C1607 C1608 1.366 . S
C1608 C1607 1.366 . S
C1608 C1609 1.414 . S
C1608 C1611 1.499 . S
C1609 H1583 0.950 . S
C1609 C1608 1.414 . S
C1609 C1610 1.374 . S
C1610 H1584 0.950 . S
C1610 C1606 1.385 . S
C1610 C1609 1.374 . S
C1611 C1608 1.499 . S
C1611 C1612 1.373 . S
C1611 C1613 1.389 . S
C1612 H1585 0.950 . S
C1612 C1598 1.377 . S
C1612 C1611 1.373 . S
C1613 C1597 1.377 . S
C1613 C1611 1.389 . S
C1613 C1614 1.524 . S
C1614 C1613 1.524 . S
C1614 C1615 1.397 . S
C1614 C1619 1.363 . S
C1615 H1586 0.950 . S
C1615 C1614 1.397 . S
C1615 C1616 1.334 . S
C1616 H1587 0.950 . S
C1616 C1615 1.334 . S
C1616 C1617 1.287 . S
C1617 C1616 1.287 . S
C1617 C1618 1.524 . S
C1617 H1620 0.999 . S
C1618 H1588 0.950 . S
C1618 C1617 1.524 . S
C1618 C1619 1.415 . S
C1619 H1589 0.950 . S
C1619 C1614 1.363 . S
C1619 C1618 1.415 . S
H1620 C1617 0.999 . S
H1621 C1602 0.913 . S
H1622 C1640 0.951 . S
H1623 C1642 0.951 . S
H1624 C1644 0.950 . S
H1625 C1645 0.950 . S
H1626 C1647 0.950 . S
H1627 C1650 0.950 . S
H1628 C1651 0.950 . S
H1629 C1653 0.950 . S
H1630 C1654 0.950 . S
H1631 C1655 0.951 . S
H1632 C1657 0.951 . S
H1633 C1659 0.950 . S
H1634 C1660 0.950 . S
H1635 C1662 0.950 . S
H1636 C1665 0.950 . S
H1637 C1666 0.950 . S
H1638 C1668 0.950 . S
H1639 C1669 0.950 . S
C1640 H1622 0.951 . S
C1640 C1641 1.366 . S
C1640 C1642 1.388 . S
C1641 C1640 1.366 . S
C1641 C1645 1.385 . S
C1642 H1623 0.951 . S
C1642 C1640 1.388 . S
C1642 C1643 1.366 . S
C1643 C1642 1.366 . S
C1643 C1644 1.414 . S
C1643 C1646 1.499 . S
C1644 H1624 0.950 . S
C1644 C1643 1.414 . S
C1644 C1645 1.374 . S
C1645 H1625 0.950 . S
C1645 C1641 1.385 . S
C1645 C1644 1.374 . S
C1646 C1643 1.499 . S
C1646 C1647 1.373 . S
C1646 C1648 1.389 . S
C1647 H1626 0.950 . S
C1647 C1646 1.373 . S
C1647 C1663 1.377 . S
C1648 C1646 1.389 . S
C1648 C1649 1.524 . S
C1648 C1662 1.377 . S
C1649 C1648 1.524 . S
C1649 C1650 1.397 . S
C1649 C1654 1.363 . S
C1650 H1627 0.950 . S
C1650 C1649 1.397 . S
C1650 C1651 1.334 . S
C1651 H1628 0.950 . S
C1651 C1650 1.334 . S
C1651 C1652 1.287 . S
C1652 C1651 1.287 . S
C1652 C1653 1.524 . S
C1652 H1671 0.913 . S
C1653 H1629 0.950 . S
C1653 C1652 1.524 . S
C1653 C1654 1.415 . S
C1654 H1630 0.950 . S
C1654 C1649 1.363 . S
C1654 C1653 1.415 . S
C1655 H1631 0.951 . S
C1655 C1656 1.366 . S
C1655 C1657 1.388 . S
C1656 C1655 1.366 . S
C1656 C1660 1.385 . S
C1657 H1632 0.951 . S
C1657 C1655 1.388 . S
C1657 C1658 1.366 . S
C1658 C1657 1.366 . S
C1658 C1659 1.414 . S
C1658 C1661 1.499 . S
C1659 H1633 0.950 . S
C1659 C1658 1.414 . S
C1659 C1660 1.374 . S
C1660 H1634 0.950 . S
C1660 C1656 1.385 . S
C1660 C1659 1.374 . S
C1661 C1658 1.499 . S
C1661 C1662 1.373 . S
C1661 C1663 1.389 . S
C1662 H1635 0.950 . S
C1662 C1648 1.377 . S
C1662 C1661 1.373 . S
C1663 C1647 1.377 . S
C1663 C1661 1.389 . S
C1663 C1664 1.524 . S
C1664 C1663 1.524 . S
C1664 C1665 1.397 . S
C1664 C1669 1.363 . S
C1665 H1636 0.950 . S
C1665 C1664 1.397 . S
C1665 C1666 1.334 . S
C1666 H1637 0.950 . S
C1666 C1665 1.334 . S
C1666 C1667 1.287 . S
C1667 C1666 1.287 . S
C1667 C1668 1.524 . S
C1667 H1670 0.999 . S
C1668 H1638 0.950 . S
C1668 C1667 1.524 . S
C1668 C1669 1.415 . S
C1669 H1639 0.950 . S
C1669 C1664 1.363 . S
C1669 C1668 1.415 . S
H1670 C1667 0.999 . S
H1671 C1652 0.913 . S
H1672 C1690 0.951 . S
H1673 C1692 0.951 . S
H1674 C1694 0.950 . S
H1675 C1695 0.950 . S
H1676 C1697 0.950 . S
H1677 C1700 0.950 . S
H1678 C1701 0.950 . S
H1679 C1703 0.950 . S
H1680 C1704 0.950 . S
H1681 C1705 0.951 . S
H1682 C1707 0.951 . S
H1683 C1709 0.950 . S
H1684 C1710 0.950 . S
H1685 C1712 0.950 . S
H1686 C1715 0.950 . S
H1687 C1716 0.950 . S
H1688 C1718 0.950 . S
H1689 C1719 0.950 1_565 S
C1690 H1672 0.951 . S
C1690 C1691 1.366 . S
C1690 C1692 1.388 . S
C1691 C1690 1.366 . S
C1691 C1695 1.385 . S
C1692 H1673 0.951 . S
C1692 C1690 1.388 . S
C1692 C1693 1.366 . S
C1693 C1692 1.366 . S
C1693 C1694 1.414 . S
C1693 C1696 1.499 . S
C1694 H1674 0.950 . S
C1694 C1693 1.414 . S
C1694 C1695 1.374 . S
C1695 H1675 0.950 . S
C1695 C1691 1.385 . S
C1695 C1694 1.374 . S
C1696 C1693 1.499 . S
C1696 C1697 1.373 . S
C1696 C1698 1.389 . S
C1697 H1676 0.950 . S
C1697 C1696 1.373 . S
C1697 C1713 1.377 . S
C1698 C1696 1.389 . S
C1698 C1699 1.524 . S
C1698 C1712 1.377 . S
C1699 C1698 1.524 . S
C1699 C1700 1.397 . S
C1699 C1704 1.363 . S
C1700 H1677 0.950 . S
C1700 C1699 1.397 . S
C1700 C1701 1.334 . S
C1701 H1678 0.950 . S
C1701 C1700 1.334 . S
C1701 C1702 1.287 . S
C1702 C1701 1.287 . S
C1702 C1703 1.524 . S
C1702 H1721 0.913 . S
C1703 H1679 0.950 . S
C1703 C1702 1.524 . S
C1703 C1704 1.415 . S
C1704 H1680 0.950 . S
C1704 C1699 1.363 . S
C1704 C1703 1.415 . S
C1705 H1681 0.951 . S
C1705 C1706 1.366 . S
C1705 C1707 1.388 . S
C1706 C1705 1.366 . S
C1706 C1710 1.385 . S
C1707 H1682 0.951 . S
C1707 C1705 1.388 . S
C1707 C1708 1.366 . S
C1708 C1707 1.366 . S
C1708 C1709 1.414 . S
C1708 C1711 1.499 1_545 S
C1709 H1683 0.950 . S
C1709 C1708 1.414 . S
C1709 C1710 1.374 . S
C1710 H1684 0.950 . S
C1710 C1706 1.385 . S
C1710 C1709 1.374 . S
C1711 C1708 1.499 1_565 S
C1711 C1712 1.373 . S
C1711 C1713 1.389 . S
C1712 H1685 0.950 . S
C1712 C1698 1.377 . S
C1712 C1711 1.373 . S
C1713 C1697 1.377 . S
C1713 C1711 1.389 . S
C1713 C1714 1.524 1_565 S
C1714 C1713 1.524 1_545 S
C1714 C1715 1.397 . S
C1714 C1719 1.363 . S
C1715 H1686 0.950 . S
C1715 C1714 1.397 . S
C1715 C1716 1.334 . S
C1716 H1687 0.950 . S
C1716 C1715 1.334 . S
C1716 C1717 1.287 . S
C1717 C1716 1.287 . S
C1717 C1718 1.524 . S
C1717 H1720 0.999 . S
C1718 H1688 0.950 . S
C1718 C1717 1.524 . S
C1718 C1719 1.415 . S
C1719 H1689 0.950 1_545 S
C1719 C1714 1.363 . S
C1719 C1718 1.415 . S
H1720 C1717 0.999 . S
H1721 C1702 0.913 . S
H1722 C1740 0.951 . S
H1723 C1742 0.951 . S
H1724 C1744 0.950 . S
H1725 C1745 0.950 . S
H1726 C1747 0.950 . S
H1727 C1750 0.950 . S
H1728 C1751 0.950 . S
H1729 C1753 0.950 . S
H1730 C1754 0.950 . S
H1731 C1755 0.951 . S
H1732 C1757 0.951 . S
H1733 C1759 0.950 . S
H1734 C1760 0.950 . S
H1735 C1762 0.950 . S
H1736 C1765 0.950 . S
H1737 C1766 0.950 . S
H1738 C1768 0.950 . S
H1739 C1769 0.950 . S
C1740 H1722 0.951 . S
C1740 C1741 1.366 . S
C1740 C1742 1.388 . S
C1741 C1740 1.366 . S
C1741 C1745 1.385 . S
C1742 H1723 0.951 . S
C1742 C1740 1.388 . S
C1742 C1743 1.366 . S
C1743 C1742 1.366 . S
C1743 C1744 1.414 . S
C1743 C1746 1.499 . S
C1744 H1724 0.950 . S
C1744 C1743 1.414 . S
C1744 C1745 1.374 . S
C1745 H1725 0.950 . S
C1745 C1741 1.385 . S
C1745 C1744 1.374 . S
C1746 C1743 1.499 . S
C1746 C1747 1.373 . S
C1746 C1748 1.389 . S
C1747 H1726 0.950 . S
C1747 C1746 1.373 . S
C1747 C1763 1.377 . S
C1748 C1746 1.389 . S
C1748 C1749 1.524 . S
C1748 C1762 1.377 . S
C1749 C1748 1.524 . S
C1749 C1750 1.397 . S
C1749 C1754 1.363 . S
C1750 H1727 0.950 . S
C1750 C1749 1.397 . S
C1750 C1751 1.334 . S
C1751 H1728 0.950 . S
C1751 C1750 1.334 . S
C1751 C1752 1.287 . S
C1752 C1751 1.287 . S
C1752 C1753 1.524 . S
C1752 H1771 0.913 . S
C1753 H1729 0.950 . S
C1753 C1752 1.524 . S
C1753 C1754 1.415 . S
C1754 H1730 0.950 . S
C1754 C1749 1.363 . S
C1754 C1753 1.415 . S
C1755 H1731 0.951 . S
C1755 C1756 1.366 . S
C1755 C1757 1.388 . S
C1756 C1755 1.366 . S
C1756 C1760 1.385 . S
C1757 H1732 0.951 . S
C1757 C1755 1.388 . S
C1757 C1758 1.366 . S
C1758 C1757 1.366 . S
C1758 C1759 1.414 . S
C1758 C1761 1.499 . S
C1759 H1733 0.950 . S
C1759 C1758 1.414 . S
C1759 C1760 1.374 . S
C1760 H1734 0.950 . S
C1760 C1756 1.385 . S
C1760 C1759 1.374 . S
C1761 C1758 1.499 . S
C1761 C1762 1.373 . S
C1761 C1763 1.389 . S
C1762 H1735 0.950 . S
C1762 C1748 1.377 . S
C1762 C1761 1.373 . S
C1763 C1747 1.377 . S
C1763 C1761 1.389 . S
C1763 C1764 1.524 . S
C1764 C1763 1.524 . S
C1764 C1765 1.397 . S
C1764 C1769 1.363 . S
C1765 H1736 0.950 . S
C1765 C1764 1.397 . S
C1765 C1766 1.334 . S
C1766 H1737 0.950 . S
C1766 C1765 1.334 . S
C1766 C1767 1.287 . S
C1767 C1766 1.287 . S
C1767 C1768 1.524 . S
C1767 H1770 0.999 . S
C1768 H1738 0.950 . S
C1768 C1767 1.524 . S
C1768 C1769 1.415 . S
C1769 H1739 0.950 . S
C1769 C1764 1.363 . S
C1769 C1768 1.415 . S
H1770 C1767 0.999 . S
H1771 C1752 0.913 . S
H1772 C1790 0.951 . S
H1773 C1792 0.951 . S
H1774 C1794 0.950 . S
H1775 C1795 0.950 . S
H1776 C1797 0.950 . S
H1777 C1800 0.950 . S
H1778 C1801 0.950 . S
H1779 C1803 0.950 . S
H1780 C1804 0.950 . S
H1781 C1805 0.951 . S
H1782 C1807 0.951 . S
H1783 C1809 0.950 . S
H1784 C1810 0.950 . S
H1785 C1812 0.950 . S
H1786 C1815 0.950 . S
H1787 C1816 0.950 . S
H1788 C1818 0.950 . S
H1789 C1819 0.950 . S
C1790 H1772 0.951 . S
C1790 C1791 1.366 . S
C1790 C1792 1.388 . S
C1791 C1790 1.366 . S
C1791 C1795 1.385 . S
C1792 H1773 0.951 . S
C1792 C1790 1.388 . S
C1792 C1793 1.366 . S
C1793 C1792 1.366 . S
C1793 C1794 1.414 . S
C1793 C1796 1.499 . S
C1794 H1774 0.950 . S
C1794 C1793 1.414 . S
C1794 C1795 1.374 . S
C1795 H1775 0.950 . S
C1795 C1791 1.385 . S
C1795 C1794 1.374 . S
C1796 C1793 1.499 . S
C1796 C1797 1.373 . S
C1796 C1798 1.389 . S
C1797 H1776 0.950 . S
C1797 C1796 1.373 . S
C1797 C1813 1.377 . S
C1798 C1796 1.389 . S
C1798 C1799 1.524 . S
C1798 C1812 1.377 . S
C1799 C1798 1.524 . S
C1799 C1800 1.397 . S
C1799 C1804 1.363 . S
C1800 H1777 0.950 . S
C1800 C1799 1.397 . S
C1800 C1801 1.334 . S
C1801 H1778 0.950 . S
C1801 C1800 1.334 . S
C1801 C1802 1.287 . S
C1802 C1801 1.287 . S
C1802 C1803 1.524 . S
C1802 H1821 0.913 . S
C1803 H1779 0.950 . S
C1803 C1802 1.524 . S
C1803 C1804 1.415 . S
C1804 H1780 0.950 . S
C1804 C1799 1.363 . S
C1804 C1803 1.415 . S
C1805 H1781 0.951 . S
C1805 C1806 1.366 . S
C1805 C1807 1.388 . S
C1806 C1805 1.366 . S
C1806 C1810 1.385 . S
C1807 H1782 0.951 . S
C1807 C1805 1.388 . S
C1807 C1808 1.366 . S
C1808 C1807 1.366 . S
C1808 C1809 1.414 . S
C1808 C1811 1.499 . S
C1809 H1783 0.950 . S
C1809 C1808 1.414 . S
C1809 C1810 1.374 . S
C1810 H1784 0.950 . S
C1810 C1806 1.385 . S
C1810 C1809 1.374 . S
C1811 C1808 1.499 . S
C1811 C1812 1.373 . S
C1811 C1813 1.389 . S
C1812 H1785 0.950 . S
C1812 C1798 1.377 . S
C1812 C1811 1.373 . S
C1813 C1797 1.377 . S
C1813 C1811 1.389 . S
C1813 C1814 1.524 . S
C1814 C1813 1.524 . S
C1814 C1815 1.397 . S
C1814 C1819 1.363 . S
C1815 H1786 0.950 . S
C1815 C1814 1.397 . S
C1815 C1816 1.334 . S
C1816 H1787 0.950 . S
C1816 C1815 1.334 . S
C1816 C1817 1.287 . S
C1817 C1816 1.287 . S
C1817 C1818 1.524 . S
C1817 H1820 0.999 . S
C1818 H1788 0.950 . S
C1818 C1817 1.524 . S
C1818 C1819 1.415 . S
C1819 H1789 0.950 . S
C1819 C1814 1.363 . S
C1819 C1818 1.415 . S
H1820 C1817 0.999 . S
H1821 C1802 0.913 . S
H1822 C1840 0.951 . S
H1823 C1842 0.951 . S
H1824 C1844 0.950 . S
H1825 C1845 0.950 . S
H1826 C1847 0.950 . S
H1827 C1850 0.950 . S
H1828 C1851 0.950 . S
H1829 C1853 0.950 . S
H1830 C1854 0.950 . S
H1831 C1855 0.951 . S
H1832 C1857 0.951 . S
H1833 C1859 0.950 . S
H1834 C1860 0.950 . S
H1835 C1862 0.950 . S
H1836 C1865 0.950 . S
H1837 C1866 0.950 . S
H1838 C1868 0.950 . S
H1839 C1869 0.950 . S
C1840 H1822 0.951 . S
C1840 C1841 1.366 . S
C1840 C1842 1.388 . S
C1841 C1840 1.366 . S
C1841 C1845 1.385 . S
C1842 H1823 0.951 . S
C1842 C1840 1.388 . S
C1842 C1843 1.366 . S
C1843 C1842 1.366 . S
C1843 C1844 1.414 . S
C1843 C1846 1.499 . S
C1844 H1824 0.950 . S
C1844 C1843 1.414 . S
C1844 C1845 1.374 . S
C1845 H1825 0.950 . S
C1845 C1841 1.385 . S
C1845 C1844 1.374 . S
C1846 C1843 1.499 . S
C1846 C1847 1.373 . S
C1846 C1848 1.389 . S
C1847 H1826 0.950 . S
C1847 C1846 1.373 . S
C1847 C1863 1.377 . S
C1848 C1846 1.389 . S
C1848 C1849 1.524 . S
C1848 C1862 1.377 . S
C1849 C1848 1.524 . S
C1849 C1850 1.397 . S
C1849 C1854 1.363 . S
C1850 H1827 0.950 . S
C1850 C1849 1.397 . S
C1850 C1851 1.334 . S
C1851 H1828 0.950 . S
C1851 C1850 1.334 . S
C1851 C1852 1.287 . S
C1852 C1851 1.287 . S
C1852 C1853 1.524 . S
C1852 H1871 0.913 . S
C1853 H1829 0.950 . S
C1853 C1852 1.524 . S
C1853 C1854 1.415 . S
C1854 H1830 0.950 . S
C1854 C1849 1.363 . S
C1854 C1853 1.415 . S
C1855 H1831 0.951 . S
C1855 C1856 1.366 . S
C1855 C1857 1.388 . S
C1856 C1855 1.366 . S
C1856 C1860 1.385 . S
C1857 H1832 0.951 . S
C1857 C1855 1.388 . S
C1857 C1858 1.366 . S
C1858 C1857 1.366 . S
C1858 C1859 1.414 . S
C1858 C1861 1.499 . S
C1859 H1833 0.950 . S
C1859 C1858 1.414 . S
C1859 C1860 1.374 . S
C1860 H1834 0.950 . S
C1860 C1856 1.385 . S
C1860 C1859 1.374 . S
C1861 C1858 1.499 . S
C1861 C1862 1.373 . S
C1861 C1863 1.389 . S
C1862 H1835 0.950 . S
C1862 C1848 1.377 . S
C1862 C1861 1.373 . S
C1863 C1847 1.377 . S
C1863 C1861 1.389 . S
C1863 C1864 1.524 . S
C1864 C1863 1.524 . S
C1864 C1865 1.397 . S
C1864 C1869 1.363 . S
C1865 H1836 0.950 . S
C1865 C1864 1.397 . S
C1865 C1866 1.334 . S
C1866 H1837 0.950 . S
C1866 C1865 1.334 . S
C1866 C1867 1.287 . S
C1867 C1866 1.287 . S
C1867 C1868 1.524 . S
C1867 H1870 0.999 . S
C1868 H1838 0.950 . S
C1868 C1867 1.524 . S
C1868 C1869 1.415 . S
C1869 H1839 0.950 . S
C1869 C1864 1.363 . S
C1869 C1868 1.415 . S
H1870 C1867 0.999 . S
H1871 C1852 0.913 . S
H1872 C1890 0.951 . S
H1873 C1892 0.951 . S
H1874 C1894 0.950 . S
H1875 C1895 0.950 . S
H1876 C1897 0.950 . S
H1877 C1900 0.950 . S
H1878 C1901 0.950 . S
H1879 C1903 0.950 . S
H1880 C1904 0.950 . S
H1881 C1905 0.951 . S
H1882 C1907 0.951 . S
H1883 C1909 0.950 . S
H1884 C1910 0.950 . S
H1885 C1912 0.950 . S
H1886 C1915 0.950 . S
H1887 C1916 0.950 . S
H1888 C1918 0.950 . S
H1889 C1919 0.950 . S
C1890 H1872 0.951 . S
C1890 C1891 1.366 . S
C1890 C1892 1.388 . S
C1891 C1890 1.366 . S
C1891 C1895 1.385 . S
C1892 H1873 0.951 . S
C1892 C1890 1.388 . S
C1892 C1893 1.366 . S
C1893 C1892 1.366 . S
C1893 C1894 1.414 . S
C1893 C1896 1.499 . S
C1894 H1874 0.950 . S
C1894 C1893 1.414 . S
C1894 C1895 1.374 . S
C1895 H1875 0.950 . S
C1895 C1891 1.385 . S
C1895 C1894 1.374 . S
C1896 C1893 1.499 . S
C1896 C1897 1.373 . S
C1896 C1898 1.389 . S
C1897 H1876 0.950 . S
C1897 C1896 1.373 . S
C1897 C1913 1.377 . S
C1898 C1896 1.389 . S
C1898 C1899 1.524 . S
C1898 C1912 1.377 . S
C1899 C1898 1.524 . S
C1899 C1900 1.397 . S
C1899 C1904 1.363 . S
C1900 H1877 0.950 . S
C1900 C1899 1.397 . S
C1900 C1901 1.334 . S
C1901 H1878 0.950 . S
C1901 C1900 1.334 . S
C1901 C1902 1.287 . S
C1902 C1901 1.287 . S
C1902 C1903 1.524 . S
C1902 H1921 0.913 . S
C1903 H1879 0.950 . S
C1903 C1902 1.524 . S
C1903 C1904 1.415 . S
C1904 H1880 0.950 . S
C1904 C1899 1.363 . S
C1904 C1903 1.415 . S
C1905 H1881 0.951 . S
C1905 C1906 1.366 . S
C1905 C1907 1.388 . S
C1906 C1905 1.366 . S
C1906 C1910 1.385 . S
C1907 H1882 0.951 . S
C1907 C1905 1.388 . S
C1907 C1908 1.366 . S
C1908 C1907 1.366 . S
C1908 C1909 1.414 . S
C1908 C1911 1.499 . S
C1909 H1883 0.950 . S
C1909 C1908 1.414 . S
C1909 C1910 1.374 . S
C1910 H1884 0.950 . S
C1910 C1906 1.385 . S
C1910 C1909 1.374 . S
C1911 C1908 1.499 . S
C1911 C1912 1.373 . S
C1911 C1913 1.389 . S
C1912 H1885 0.950 . S
C1912 C1898 1.377 . S
C1912 C1911 1.373 . S
C1913 C1897 1.377 . S
C1913 C1911 1.389 . S
C1913 C1914 1.524 . S
C1914 C1913 1.524 . S
C1914 C1915 1.397 . S
C1914 C1919 1.363 . S
C1915 H1886 0.950 . S
C1915 C1914 1.397 . S
C1915 C1916 1.334 . S
C1916 H1887 0.950 . S
C1916 C1915 1.334 . S
C1916 C1917 1.287 . S
C1917 C1916 1.287 . S
C1917 C1918 1.524 . S
C1917 H1920 0.999 . S
C1918 H1888 0.950 . S
C1918 C1917 1.524 . S
C1918 C1919 1.415 . S
C1919 H1889 0.950 . S
C1919 C1914 1.363 . S
C1919 C1918 1.415 . S
H1920 C1917 0.999 . S
H1921 C1902 0.913 . S
H1922 C1940 0.951 . S
H1923 C1942 0.951 . S
H1924 C1944 0.950 . S
H1925 C1945 0.950 . S
H1926 C1947 0.950 . S
H1927 C1950 0.950 . S
H1928 C1951 0.950 . S
H1929 C1953 0.950 . S
H1930 C1954 0.950 . S
H1931 C1955 0.951 . S
H1932 C1957 0.951 . S
H1933 C1959 0.950 . S
H1934 C1960 0.950 . S
H1935 C1962 0.950 . S
H1936 C1965 0.950 . S
H1937 C1966 0.950 . S
H1938 C1968 0.950 . S
H1939 C1969 0.950 . S
C1940 H1922 0.951 . S
C1940 C1941 1.366 . S
C1940 C1942 1.388 . S
C1941 C1940 1.366 . S
C1941 C1945 1.385 . S
C1942 H1923 0.951 . S
C1942 C1940 1.388 . S
C1942 C1943 1.366 . S
C1943 C1942 1.366 . S
C1943 C1944 1.414 . S
C1943 C1946 1.499 . S
C1944 H1924 0.950 . S
C1944 C1943 1.414 . S
C1944 C1945 1.374 . S
C1945 H1925 0.950 . S
C1945 C1941 1.385 . S
C1945 C1944 1.374 . S
C1946 C1943 1.499 . S
C1946 C1947 1.373 1_655 S
C1946 C1948 1.389 1_655 S
C1947 H1926 0.950 . S
C1947 C1946 1.373 1_455 S
C1947 C1963 1.377 . S
C1948 C1946 1.389 1_455 S
C1948 C1949 1.524 1_455 S
C1948 C1962 1.377 . S
C1949 C1948 1.524 1_655 S
C1949 C1950 1.397 . S
C1949 C1954 1.363 . S
C1950 H1927 0.950 . S
C1950 C1949 1.397 . S
C1950 C1951 1.334 . S
C1951 H1928 0.950 . S
C1951 C1950 1.334 . S
C1951 C1952 1.287 . S
C1952 C1951 1.287 . S
C1952 C1953 1.524 . S
C1952 H1971 0.913 . S
C1953 H1929 0.950 . S
C1953 C1952 1.524 . S
C1953 C1954 1.415 . S
C1954 H1930 0.950 . S
C1954 C1949 1.363 . S
C1954 C1953 1.415 . S
C1955 H1931 0.951 . S
C1955 C1956 1.366 . S
C1955 C1957 1.388 . S
C1956 C1955 1.366 . S
C1956 C1960 1.385 . S
C1957 H1932 0.951 . S
C1957 C1955 1.388 . S
C1957 C1958 1.366 . S
C1958 C1957 1.366 . S
C1958 C1959 1.414 . S
C1958 C1961 1.499 . S
C1959 H1933 0.950 . S
C1959 C1958 1.414 . S
C1959 C1960 1.374 . S
C1960 H1934 0.950 . S
C1960 C1956 1.385 . S
C1960 C1959 1.374 . S
C1961 C1958 1.499 . S
C1961 C1962 1.373 . S
C1961 C1963 1.389 . S
C1962 H1935 0.950 . S
C1962 C1948 1.377 . S
C1962 C1961 1.373 . S
C1963 C1947 1.377 . S
C1963 C1961 1.389 . S
C1963 C1964 1.524 . S
C1964 C1963 1.524 . S
C1964 C1965 1.397 . S
C1964 C1969 1.363 . S
C1965 H1936 0.950 . S
C1965 C1964 1.397 . S
C1965 C1966 1.334 . S
C1966 H1937 0.950 . S
C1966 C1965 1.334 . S
C1966 C1967 1.287 . S
C1967 C1966 1.287 . S
C1967 C1968 1.524 . S
C1967 H1970 0.999 . S
C1968 H1938 0.950 . S
C1968 C1967 1.524 . S
C1968 C1969 1.415 . S
C1969 H1939 0.950 . S
C1969 C1964 1.363 . S
C1969 C1968 1.415 . S
H1970 C1967 0.999 . S
H1971 C1952 0.913 . S
H1972 C1990 0.951 . S
H1973 C1992 0.951 . S
H1974 C1994 0.950 . S
H1975 C1995 0.950 . S
H1976 C1997 0.950 . S
H1977 C2000 0.950 . S
H1978 C2001 0.950 . S
H1979 C2003 0.950 . S
H1980 C2004 0.950 . S
H1981 C2005 0.951 . S
H1982 C2007 0.951 . S
H1983 C2009 0.950 . S
H1984 C2010 0.950 . S
H1985 C2012 0.950 . S
H1986 C2015 0.950 . S
H1987 C2016 0.950 . S
H1988 C2018 0.950 . S
H1989 C2019 0.950 . S
C1990 H1972 0.951 . S
C1990 C1991 1.366 . S
C1990 C1992 1.388 . S
C1991 C1990 1.366 . S
C1991 C1995 1.385 . S
C1992 H1973 0.951 . S
C1992 C1990 1.388 . S
C1992 C1993 1.366 . S
C1993 C1992 1.366 . S
C1993 C1994 1.414 . S
C1993 C1996 1.499 . S
C1994 H1974 0.950 . S
C1994 C1993 1.414 . S
C1994 C1995 1.374 . S
C1995 H1975 0.950 . S
C1995 C1991 1.385 . S
C1995 C1994 1.374 . S
C1996 C1993 1.499 . S
C1996 C1997 1.373 . S
C1996 C1998 1.389 . S
C1997 H1976 0.950 . S
C1997 C1996 1.373 . S
C1997 C2013 1.377 . S
C1998 C1996 1.389 . S
C1998 C1999 1.524 . S
C1998 C2012 1.377 . S
C1999 C1998 1.524 . S
C1999 C2000 1.397 . S
C1999 C2004 1.363 . S
C2000 H1977 0.950 . S
C2000 C1999 1.397 . S
C2000 C2001 1.334 . S
C2001 H1978 0.950 . S
C2001 C2000 1.334 . S
C2001 C2002 1.287 . S
C2002 C2001 1.287 . S
C2002 C2003 1.524 . S
C2002 H2021 0.913 . S
C2003 H1979 0.950 . S
C2003 C2002 1.524 . S
C2003 C2004 1.415 . S
C2004 H1980 0.950 . S
C2004 C1999 1.363 . S
C2004 C2003 1.415 . S
C2005 H1981 0.951 . S
C2005 C2006 1.366 . S
C2005 C2007 1.388 . S
C2006 C2005 1.366 . S
C2006 C2010 1.385 . S
C2007 H1982 0.951 . S
C2007 C2005 1.388 . S
C2007 C2008 1.366 . S
C2008 C2007 1.366 . S
C2008 C2009 1.414 . S
C2008 C2011 1.499 . S
C2009 H1983 0.950 . S
C2009 C2008 1.414 . S
C2009 C2010 1.374 . S
C2010 H1984 0.950 . S
C2010 C2006 1.385 . S
C2010 C2009 1.374 . S
C2011 C2008 1.499 . S
C2011 C2012 1.373 . S
C2011 C2013 1.389 . S
C2012 H1985 0.950 . S
C2012 C1998 1.377 . S
C2012 C2011 1.373 . S
C2013 C1997 1.377 . S
C2013 C2011 1.389 . S
C2013 C2014 1.524 . S
C2014 C2013 1.524 . S
C2014 C2015 1.397 . S
C2014 C2019 1.363 . S
C2015 H1986 0.950 . S
C2015 C2014 1.397 . S
C2015 C2016 1.334 . S
C2016 H1987 0.950 . S
C2016 C2015 1.334 . S
C2016 C2017 1.287 . S
C2017 C2016 1.287 . S
C2017 C2018 1.524 . S
C2017 H2020 0.999 . S
C2018 H1988 0.950 . S
C2018 C2017 1.524 . S
C2018 C2019 1.415 . S
C2019 H1989 0.950 . S
C2019 C2014 1.363 . S
C2019 C2018 1.415 . S
H2020 C2017 0.999 . S
H2021 C2002 0.913 . S
H2022 C2040 0.951 . S
H2023 C2042 0.951 . S
H2024 C2044 0.950 . S
H2025 C2045 0.950 . S
H2026 C2047 0.950 . S
H2027 C2050 0.950 . S
H2028 C2051 0.950 . S
H2029 C2053 0.950 . S
H2030 C2054 0.950 . S
H2031 C2055 0.951 . S
H2032 C2057 0.951 . S
H2033 C2059 0.950 . S
H2034 C2060 0.950 . S
H2035 C2062 0.950 . S
H2036 C2065 0.950 . S
H2037 C2066 0.950 . S
H2038 C2068 0.950 . S
H2039 C2069 0.950 . S
C2040 H2022 0.951 . S
C2040 C2041 1.366 . S
C2040 C2042 1.388 . S
C2041 C2040 1.366 . S
C2041 C2045 1.385 . S
C2042 H2023 0.951 . S
C2042 C2040 1.388 . S
C2042 C2043 1.366 . S
C2043 C2042 1.366 . S
C2043 C2044 1.414 . S
C2043 C2046 1.499 . S
C2044 H2024 0.950 . S
C2044 C2043 1.414 . S
C2044 C2045 1.374 . S
C2045 H2025 0.950 . S
C2045 C2041 1.385 . S
C2045 C2044 1.374 . S
C2046 C2043 1.499 . S
C2046 C2047 1.373 . S
C2046 C2048 1.389 . S
C2047 H2026 0.950 . S
C2047 C2046 1.373 . S
C2047 C2063 1.377 . S
C2048 C2046 1.389 . S
C2048 C2049 1.524 . S
C2048 C2062 1.377 . S
C2049 C2048 1.524 . S
C2049 C2050 1.397 . S
C2049 C2054 1.363 . S
C2050 H2027 0.950 . S
C2050 C2049 1.397 . S
C2050 C2051 1.334 . S
C2051 H2028 0.950 . S
C2051 C2050 1.334 . S
C2051 C2052 1.287 . S
C2052 C2051 1.287 . S
C2052 C2053 1.524 . S
C2052 H2071 0.913 . S
C2053 H2029 0.950 . S
C2053 C2052 1.524 . S
C2053 C2054 1.415 . S
C2054 H2030 0.950 . S
C2054 C2049 1.363 . S
C2054 C2053 1.415 . S
C2055 H2031 0.951 . S
C2055 C2056 1.366 . S
C2055 C2057 1.388 . S
C2056 C2055 1.366 . S
C2056 C2060 1.385 . S
C2057 H2032 0.951 . S
C2057 C2055 1.388 . S
C2057 C2058 1.366 . S
C2058 C2057 1.366 . S
C2058 C2059 1.414 . S
C2058 C2061 1.499 . S
C2059 H2033 0.950 . S
C2059 C2058 1.414 . S
C2059 C2060 1.374 . S
C2060 H2034 0.950 . S
C2060 C2056 1.385 . S
C2060 C2059 1.374 . S
C2061 C2058 1.499 . S
C2061 C2062 1.373 . S
C2061 C2063 1.389 . S
C2062 H2035 0.950 . S
C2062 C2048 1.377 . S
C2062 C2061 1.373 . S
C2063 C2047 1.377 . S
C2063 C2061 1.389 . S
C2063 C2064 1.524 . S
C2064 C2063 1.524 . S
C2064 C2065 1.397 . S
C2064 C2069 1.363 . S
C2065 H2036 0.950 . S
C2065 C2064 1.397 . S
C2065 C2066 1.334 . S
C2066 H2037 0.950 . S
C2066 C2065 1.334 . S
C2066 C2067 1.287 . S
C2067 C2066 1.287 . S
C2067 C2068 1.524 . S
C2067 H2070 0.999 . S
C2068 H2038 0.950 . S
C2068 C2067 1.524 . S
C2068 C2069 1.415 . S
C2069 H2039 0.950 . S
C2069 C2064 1.363 . S
C2069 C2068 1.415 . S
H2070 C2067 0.999 . S
H2071 C2052 0.913 . S
H2072 C2090 0.951 . S
H2073 C2092 0.951 . S
H2074 C2094 0.950 . S
H2075 C2095 0.950 . S
H2076 C2097 0.950 . S
H2077 C2100 0.950 . S
H2078 C2101 0.950 . S
H2079 C2103 0.950 . S
H2080 C2104 0.950 . S
H2081 C2105 0.951 . S
H2082 C2107 0.951 . S
H2083 C2109 0.950 . S
H2084 C2110 0.950 . S
H2085 C2112 0.950 . S
H2086 C2115 0.950 . S
H2087 C2116 0.950 . S
H2088 C2118 0.950 . S
H2089 C2119 0.950 . S
C2090 H2072 0.951 . S
C2090 C2091 1.366 . S
C2090 C2092 1.388 . S
C2091 C2090 1.366 . S
C2091 C2095 1.385 . S
C2092 H2073 0.951 . S
C2092 C2090 1.388 . S
C2092 C2093 1.366 . S
C2093 C2092 1.366 . S
C2093 C2094 1.414 . S
C2093 C2096 1.499 . S
C2094 H2074 0.950 . S
C2094 C2093 1.414 . S
C2094 C2095 1.374 . S
C2095 H2075 0.950 . S
C2095 C2091 1.385 . S
C2095 C2094 1.374 . S
C2096 C2093 1.499 . S
C2096 C2097 1.373 . S
C2096 C2098 1.389 . S
C2097 H2076 0.950 . S
C2097 C2096 1.373 . S
C2097 C2113 1.377 . S
C2098 C2096 1.389 . S
C2098 C2099 1.524 . S
C2098 C2112 1.377 . S
C2099 C2098 1.524 . S
C2099 C2100 1.397 . S
C2099 C2104 1.363 . S
C2100 H2077 0.950 . S
C2100 C2099 1.397 . S
C2100 C2101 1.334 . S
C2101 H2078 0.950 . S
C2101 C2100 1.334 . S
C2101 C2102 1.287 . S
C2102 C2101 1.287 . S
C2102 C2103 1.524 . S
C2102 H2121 0.913 . S
C2103 H2079 0.950 . S
C2103 C2102 1.524 . S
C2103 C2104 1.415 . S
C2104 H2080 0.950 . S
C2104 C2099 1.363 . S
C2104 C2103 1.415 . S
C2105 H2081 0.951 . S
C2105 C2106 1.366 . S
C2105 C2107 1.388 . S
C2106 C2105 1.366 . S
C2106 C2110 1.385 . S
C2107 H2082 0.951 . S
C2107 C2105 1.388 . S
C2107 C2108 1.366 . S
C2108 C2107 1.366 . S
C2108 C2109 1.414 . S
C2108 C2111 1.499 . S
C2109 H2083 0.950 . S
C2109 C2108 1.414 . S
C2109 C2110 1.374 . S
C2110 H2084 0.950 . S
C2110 C2106 1.385 . S
C2110 C2109 1.374 . S
C2111 C2108 1.499 . S
C2111 C2112 1.373 . S
C2111 C2113 1.389 . S
C2112 H2085 0.950 . S
C2112 C2098 1.377 . S
C2112 C2111 1.373 . S
C2113 C2097 1.377 . S
C2113 C2111 1.389 . S
C2113 C2114 1.524 . S
C2114 C2113 1.524 . S
C2114 C2115 1.397 . S
C2114 C2119 1.363 . S
C2115 H2086 0.950 . S
C2115 C2114 1.397 . S
C2115 C2116 1.334 . S
C2116 H2087 0.950 . S
C2116 C2115 1.334 . S
C2116 C2117 1.287 . S
C2117 C2116 1.287 . S
C2117 C2118 1.524 . S
C2117 H2120 0.999 . S
C2118 H2088 0.950 . S
C2118 C2117 1.524 . S
C2118 C2119 1.415 . S
C2119 H2089 0.950 . S
C2119 C2114 1.363 . S
C2119 C2118 1.415 . S
H2120 C2117 0.999 . S
H2121 C2102 0.913 . S
H2122 C2140 0.951 . S
H2123 C2142 0.951 . S
H2124 C2144 0.950 . S
H2125 C2145 0.950 . S
H2126 C2147 0.950 . S
H2127 C2150 0.950 . S
H2128 C2151 0.950 . S
H2129 C2153 0.950 . S
H2130 C2154 0.950 . S
H2131 C2155 0.951 . S
H2132 C2157 0.951 . S
H2133 C2159 0.950 . S
H2134 C2160 0.950 . S
H2135 C2162 0.950 . S
H2136 C2165 0.950 . S
H2137 C2166 0.950 . S
H2138 C2168 0.950 . S
H2139 C2169 0.950 . S
C2140 H2122 0.951 . S
C2140 C2141 1.366 . S
C2140 C2142 1.388 . S
C2141 C2140 1.366 . S
C2141 C2145 1.385 . S
C2142 H2123 0.951 . S
C2142 C2140 1.388 . S
C2142 C2143 1.366 . S
C2143 C2142 1.366 . S
C2143 C2144 1.414 . S
C2143 C2146 1.499 . S
C2144 H2124 0.950 . S
C2144 C2143 1.414 . S
C2144 C2145 1.374 . S
C2145 H2125 0.950 . S
C2145 C2141 1.385 . S
C2145 C2144 1.374 . S
C2146 C2143 1.499 . S
C2146 C2147 1.373 . S
C2146 C2148 1.389 . S
C2147 H2126 0.950 . S
C2147 C2146 1.373 . S
C2147 C2163 1.377 . S
C2148 C2146 1.389 . S
C2148 C2149 1.524 . S
C2148 C2162 1.377 . S
C2149 C2148 1.524 . S
C2149 C2150 1.397 . S
C2149 C2154 1.363 . S
C2150 H2127 0.950 . S
C2150 C2149 1.397 . S
C2150 C2151 1.334 . S
C2151 H2128 0.950 . S
C2151 C2150 1.334 . S
C2151 C2152 1.287 . S
C2152 C2151 1.287 . S
C2152 C2153 1.524 . S
C2152 H2171 0.913 . S
C2153 H2129 0.950 . S
C2153 C2152 1.524 . S
C2153 C2154 1.415 . S
C2154 H2130 0.950 . S
C2154 C2149 1.363 . S
C2154 C2153 1.415 . S
C2155 H2131 0.951 . S
C2155 C2156 1.366 . S
C2155 C2157 1.388 . S
C2156 C2155 1.366 . S
C2156 C2160 1.385 . S
C2157 H2132 0.951 . S
C2157 C2155 1.388 . S
C2157 C2158 1.366 . S
C2158 C2157 1.366 . S
C2158 C2159 1.414 . S
C2158 C2161 1.499 . S
C2159 H2133 0.950 . S
C2159 C2158 1.414 . S
C2159 C2160 1.374 . S
C2160 H2134 0.950 . S
C2160 C2156 1.385 . S
C2160 C2159 1.374 . S
C2161 C2158 1.499 . S
C2161 C2162 1.373 . S
C2161 C2163 1.389 . S
C2162 H2135 0.950 . S
C2162 C2148 1.377 . S
C2162 C2161 1.373 . S
C2163 C2147 1.377 . S
C2163 C2161 1.389 . S
C2163 C2164 1.524 . S
C2164 C2163 1.524 . S
C2164 C2165 1.397 . S
C2164 C2169 1.363 . S
C2165 H2136 0.950 . S
C2165 C2164 1.397 . S
C2165 C2166 1.334 . S
C2166 H2137 0.950 . S
C2166 C2165 1.334 . S
C2166 C2167 1.287 . S
C2167 C2166 1.287 . S
C2167 C2168 1.524 . S
C2167 H2170 0.999 . S
C2168 H2138 0.950 . S
C2168 C2167 1.524 . S
C2168 C2169 1.415 . S
C2169 H2139 0.950 . S
C2169 C2164 1.363 . S
C2169 C2168 1.415 . S
H2170 C2167 0.999 . S
H2171 C2152 0.913 . S
H2172 C2190 0.951 . S
H2173 C2192 0.951 . S
H2174 C2194 0.950 . S
H2175 C2195 0.950 . S
H2176 C2197 0.950 . S
H2177 C2200 0.950 . S
H2178 C2201 0.950 . S
H2179 C2203 0.950 . S
H2180 C2204 0.950 . S
H2181 C2205 0.951 . S
H2182 C2207 0.951 . S
H2183 C2209 0.950 . S
H2184 C2210 0.950 . S
H2185 C2212 0.950 . S
H2186 C2215 0.950 . S
H2187 C2216 0.950 . S
H2188 C2218 0.950 . S
H2189 C2219 0.950 . S
C2190 H2172 0.951 . S
C2190 C2191 1.366 . S
C2190 C2192 1.388 . S
C2191 C2190 1.366 . S
C2191 C2195 1.385 . S
C2192 H2173 0.951 . S
C2192 C2190 1.388 . S
C2192 C2193 1.366 . S
C2193 C2192 1.366 . S
C2193 C2194 1.414 . S
C2193 C2196 1.499 . S
C2194 H2174 0.950 . S
C2194 C2193 1.414 . S
C2194 C2195 1.374 . S
C2195 H2175 0.950 . S
C2195 C2191 1.385 . S
C2195 C2194 1.374 . S
C2196 C2193 1.499 . S
C2196 C2197 1.373 . S
C2196 C2198 1.389 . S
C2197 H2176 0.950 . S
C2197 C2196 1.373 . S
C2197 C2213 1.377 . S
C2198 C2196 1.389 . S
C2198 C2199 1.524 . S
C2198 C2212 1.377 . S
C2199 C2198 1.524 . S
C2199 C2200 1.397 . S
C2199 C2204 1.363 . S
C2200 H2177 0.950 . S
C2200 C2199 1.397 . S
C2200 C2201 1.334 . S
C2201 H2178 0.950 . S
C2201 C2200 1.334 . S
C2201 C2202 1.287 . S
C2202 C2201 1.287 . S
C2202 C2203 1.524 . S
C2202 H2221 0.913 . S
C2203 H2179 0.950 . S
C2203 C2202 1.524 . S
C2203 C2204 1.415 . S
C2204 H2180 0.950 . S
C2204 C2199 1.363 . S
C2204 C2203 1.415 . S
C2205 H2181 0.951 . S
C2205 C2206 1.366 . S
C2205 C2207 1.388 . S
C2206 C2205 1.366 . S
C2206 C2210 1.385 . S
C2207 H2182 0.951 . S
C2207 C2205 1.388 . S
C2207 C2208 1.366 . S
C2208 C2207 1.366 . S
C2208 C2209 1.414 . S
C2208 C2211 1.499 . S
C2209 H2183 0.950 . S
C2209 C2208 1.414 . S
C2209 C2210 1.374 . S
C2210 H2184 0.950 . S
C2210 C2206 1.385 . S
C2210 C2209 1.374 . S
C2211 C2208 1.499 . S
C2211 C2212 1.373 . S
C2211 C2213 1.389 . S
C2212 H2185 0.950 . S
C2212 C2198 1.377 . S
C2212 C2211 1.373 . S
C2213 C2197 1.377 . S
C2213 C2211 1.389 . S
C2213 C2214 1.524 . S
C2214 C2213 1.524 . S
C2214 C2215 1.397 . S
C2214 C2219 1.363 . S
C2215 H2186 0.950 . S
C2215 C2214 1.397 . S
C2215 C2216 1.334 . S
C2216 H2187 0.950 . S
C2216 C2215 1.334 . S
C2216 C2217 1.287 . S
C2217 C2216 1.287 . S
C2217 C2218 1.524 . S
C2217 H2220 0.999 . S
C2218 H2188 0.950 . S
C2218 C2217 1.524 . S
C2218 C2219 1.415 . S
C2219 H2189 0.950 . S
C2219 C2214 1.363 . S
C2219 C2218 1.415 . S
H2220 C2217 0.999 . S
H2221 C2202 0.913 . S
H2222 C2240 0.951 . S
H2223 C2242 0.951 . S
H2224 C2244 0.950 . S
H2225 C2245 0.950 . S
H2226 C2247 0.950 . S
H2227 C2250 0.950 . S
H2228 C2251 0.950 . S
H2229 C2253 0.950 . S
H2230 C2254 0.950 . S
H2231 C2255 0.951 . S
H2232 C2257 0.951 . S
H2233 C2259 0.950 . S
H2234 C2260 0.950 . S
H2235 C2262 0.950 . S
H2236 C2265 0.950 . S
H2237 C2266 0.950 . S
H2238 C2268 0.950 . S
H2239 C2269 0.971 . S
C2240 H2222 0.951 . S
C2240 C2241 1.366 . S
C2240 C2242 1.388 . S
C2241 C2240 1.366 . S
C2241 C2245 1.385 . S
C2242 H2223 0.951 . S
C2242 C2240 1.388 . S
C2242 C2243 1.366 . S
C2243 C2242 1.366 . S
C2243 C2244 1.414 . S
C2243 C2246 1.499 . S
C2244 H2224 0.950 . S
C2244 C2243 1.414 . S
C2244 C2245 1.374 . S
C2245 H2225 0.950 . S
C2245 C2241 1.385 . S
C2245 C2244 1.374 . S
C2246 C2243 1.499 . S
C2246 C2247 1.373 . S
C2246 C2248 1.389 . S
C2247 H2226 0.950 . S
C2247 C2246 1.373 . S
C2247 C2263 1.377 . S
C2248 C2246 1.389 . S
C2248 C2249 1.524 . S
C2248 C2262 1.377 . S
C2249 C2248 1.524 . S
C2249 C2250 1.397 . S
C2249 C2254 1.363 . S
C2250 H2227 0.950 . S
C2250 C2249 1.397 . S
C2250 C2251 1.334 . S
C2251 H2228 0.950 . S
C2251 C2250 1.334 . S
C2251 C2252 1.287 . S
C2252 C2251 1.287 . S
C2252 C2253 1.524 . S
C2252 H2271 0.913 . S
C2253 H2229 0.950 . S
C2253 C2252 1.524 . S
C2253 C2254 1.415 . S
C2254 H2230 0.950 . S
C2254 C2249 1.363 . S
C2254 C2253 1.415 . S
C2255 H2231 0.951 . S
C2255 C2256 1.366 . S
C2255 C2257 1.388 . S
C2256 C2255 1.366 . S
C2256 C2260 1.385 . S
C2257 H2232 0.951 . S
C2257 C2255 1.388 . S
C2257 C2258 1.366 . S
C2258 C2257 1.366 . S
C2258 C2259 1.414 . S
C2258 C2261 1.499 1_655 S
C2259 H2233 0.950 . S
C2259 C2258 1.414 . S
C2259 C2260 1.374 . S
C2260 H2234 0.950 . S
C2260 C2256 1.385 . S
C2260 C2259 1.374 . S
C2261 C2258 1.499 1_455 S
C2261 C2262 1.373 . S
C2261 C2263 1.389 . S
C2262 H2235 0.950 . S
C2262 C2248 1.377 . S
C2262 C2261 1.373 . S
C2263 C2247 1.377 . S
C2263 C2261 1.389 . S
C2263 C2264 1.560 . S
C2264 C2263 1.560 . S
C2264 C2265 1.368 1_455 S
C2264 C2269 1.363 . S
C2265 H2236 0.950 . S
C2265 C2264 1.368 1_655 S
C2265 C2266 1.334 . S
C2266 H2237 0.950 . S
C2266 C2265 1.334 . S
C2266 C2267 1.287 . S
C2267 C2266 1.287 . S
C2267 C2268 1.524 . S
C2267 H2270 0.999 . S
C2268 H2238 0.950 . S
C2268 C2267 1.524 . S
C2268 C2269 1.395 1_655 S
C2269 H2239 0.971 . S
C2269 C2264 1.363 . S
C2269 C2268 1.395 1_455 S
H2270 C2267 0.999 . S
H2271 C2252 0.913 . S
H2272 C2290 0.951 . S
H2273 C2292 0.951 . S
H2274 C2294 0.950 . S
H2275 C2295 0.950 . S
H2276 C2297 0.950 . S
H2277 C2300 0.950 . S
H2278 C2301 0.950 . S
H2279 C2303 0.950 . S
H2280 C2304 0.950 . S
H2281 C2305 0.951 . S
H2282 C2307 0.951 . S
H2283 C2309 0.950 . S
H2284 C2310 0.950 . S
H2285 C2312 0.950 . S
H2286 C2315 0.950 . S
H2287 C2316 0.950 . S
H2288 C2318 0.950 . S
H2289 C2319 0.950 . S
C2290 H2272 0.951 . S
C2290 C2291 1.366 . S
C2290 C2292 1.388 . S
C2291 C2290 1.366 . S
C2291 C2295 1.385 . S
C2292 H2273 0.951 . S
C2292 C2290 1.388 . S
C2292 C2293 1.366 . S
C2293 C2292 1.366 . S
C2293 C2294 1.414 . S
C2293 C2296 1.499 . S
C2294 H2274 0.950 . S
C2294 C2293 1.414 . S
C2294 C2295 1.374 . S
C2295 H2275 0.950 . S
C2295 C2291 1.385 . S
C2295 C2294 1.374 . S
C2296 C2293 1.499 . S
C2296 C2297 1.373 . S
C2296 C2298 1.389 . S
C2297 H2276 0.950 . S
C2297 C2296 1.373 . S
C2297 C2313 1.377 . S
C2298 C2296 1.389 . S
C2298 C2299 1.524 . S
C2298 C2312 1.377 . S
C2299 C2298 1.524 . S
C2299 C2300 1.397 . S
C2299 C2304 1.363 . S
C2300 H2277 0.950 . S
C2300 C2299 1.397 . S
C2300 C2301 1.334 . S
C2301 H2278 0.950 . S
C2301 C2300 1.334 . S
C2301 C2302 1.287 . S
C2302 C2301 1.287 . S
C2302 C2303 1.524 . S
C2302 H2321 0.913 . S
C2303 H2279 0.950 . S
C2303 C2302 1.524 . S
C2303 C2304 1.415 . S
C2304 H2280 0.950 . S
C2304 C2299 1.363 . S
C2304 C2303 1.415 . S
C2305 H2281 0.951 . S
C2305 C2306 1.366 . S
C2305 C2307 1.388 . S
C2306 C2305 1.366 . S
C2306 C2310 1.385 . S
C2307 H2282 0.951 . S
C2307 C2305 1.388 . S
C2307 C2308 1.366 . S
C2308 C2307 1.366 . S
C2308 C2309 1.414 . S
C2308 C2311 1.499 . S
C2309 H2283 0.950 . S
C2309 C2308 1.414 . S
C2309 C2310 1.374 . S
C2310 H2284 0.950 . S
C2310 C2306 1.385 . S
C2310 C2309 1.374 . S
C2311 C2308 1.499 . S
C2311 C2312 1.373 . S
C2311 C2313 1.389 . S
C2312 H2285 0.950 . S
C2312 C2298 1.377 . S
C2312 C2311 1.373 . S
C2313 C2297 1.377 . S
C2313 C2311 1.389 . S
C2313 C2314 1.524 . S
C2314 C2313 1.524 . S
C2314 C2315 1.397 . S
C2314 C2319 1.363 . S
C2315 H2286 0.950 . S
C2315 C2314 1.397 . S
C2315 C2316 1.334 . S
C2316 H2287 0.950 . S
C2316 C2315 1.334 . S
C2316 C2317 1.287 . S
C2317 C2316 1.287 . S
C2317 C2318 1.524 . S
C2317 H2320 0.999 . S
C2318 H2288 0.950 . S
C2318 C2317 1.524 . S
C2318 C2319 1.415 . S
C2319 H2289 0.950 . S
C2319 C2314 1.363 . S
C2319 C2318 1.415 . S
H2320 C2317 0.999 . S
H2321 C2302 0.913 . S
H2322 C2340 0.951 . S
H2323 C2342 0.951 . S
H2324 C2344 0.950 . S
H2325 C2345 0.950 . S
H2326 C2347 0.950 . S
H2327 C2350 0.950 . S
H2328 C2351 0.950 . S
H2329 C2353 0.950 . S
H2330 C2354 0.950 . S
H2331 C2355 0.951 . S
H2332 C2357 0.951 . S
H2333 C2359 0.950 . S
H2334 C2360 0.950 . S
H2335 C2362 0.950 . S
H2336 C2365 0.950 . S
H2337 C2366 0.950 . S
H2338 C2368 0.950 . S
H2339 C2369 0.950 . S
C2340 H2322 0.951 . S
C2340 C2341 1.366 . S
C2340 C2342 1.388 . S
C2341 C2340 1.366 . S
C2341 C2345 1.385 . S
C2342 H2323 0.951 . S
C2342 C2340 1.388 . S
C2342 C2343 1.366 . S
C2343 C2342 1.366 . S
C2343 C2344 1.414 . S
C2343 C2346 1.499 . S
C2344 H2324 0.950 . S
C2344 C2343 1.414 . S
C2344 C2345 1.374 . S
C2345 H2325 0.950 . S
C2345 C2341 1.385 . S
C2345 C2344 1.374 . S
C2346 C2343 1.499 . S
C2346 C2347 1.373 . S
C2346 C2348 1.389 . S
C2347 H2326 0.950 . S
C2347 C2346 1.373 . S
C2347 C2363 1.377 . S
C2348 C2346 1.389 . S
C2348 C2349 1.524 . S
C2348 C2362 1.377 . S
C2349 C2348 1.524 . S
C2349 C2350 1.397 . S
C2349 C2354 1.363 . S
C2350 H2327 0.950 . S
C2350 C2349 1.397 . S
C2350 C2351 1.334 . S
C2351 H2328 0.950 . S
C2351 C2350 1.334 . S
C2351 C2352 1.287 . S
C2352 C2351 1.287 . S
C2352 C2353 1.524 . S
C2352 H2371 0.913 . S
C2353 H2329 0.950 . S
C2353 C2352 1.524 . S
C2353 C2354 1.415 . S
C2354 H2330 0.950 . S
C2354 C2349 1.363 . S
C2354 C2353 1.415 . S
C2355 H2331 0.951 . S
C2355 C2356 1.366 . S
C2355 C2357 1.388 . S
C2356 C2355 1.366 . S
C2356 C2360 1.385 . S
C2357 H2332 0.951 . S
C2357 C2355 1.388 . S
C2357 C2358 1.366 . S
C2358 C2357 1.366 . S
C2358 C2359 1.414 . S
C2358 C2361 1.499 . S
C2359 H2333 0.950 . S
C2359 C2358 1.414 . S
C2359 C2360 1.374 . S
C2360 H2334 0.950 . S
C2360 C2356 1.385 . S
C2360 C2359 1.374 . S
C2361 C2358 1.499 . S
C2361 C2362 1.373 . S
C2361 C2363 1.389 . S
C2362 H2335 0.950 . S
C2362 C2348 1.377 . S
C2362 C2361 1.373 . S
C2363 C2347 1.377 . S
C2363 C2361 1.389 . S
C2363 C2364 1.524 . S
C2364 C2363 1.524 . S
C2364 C2365 1.397 . S
C2364 C2369 1.363 . S
C2365 H2336 0.950 . S
C2365 C2364 1.397 . S
C2365 C2366 1.334 . S
C2366 H2337 0.950 . S
C2366 C2365 1.334 . S
C2366 C2367 1.287 . S
C2367 C2366 1.287 . S
C2367 C2368 1.524 . S
C2367 H2370 0.999 . S
C2368 H2338 0.950 . S
C2368 C2367 1.524 . S
C2368 C2369 1.415 . S
C2369 H2339 0.950 . S
C2369 C2364 1.363 . S
C2369 C2368 1.415 . S
H2370 C2367 0.999 . S
H2371 C2352 0.913 . S
H2372 C2390 0.951 . S
H2373 C2392 0.951 . S
H2374 C2394 0.950 . S
H2375 C2395 0.950 . S
H2376 C2397 0.950 . S
H2377 C2400 0.950 . S
H2378 C2401 0.950 . S
H2379 C2403 0.950 . S
H2380 C2404 0.950 . S
H2381 C2405 0.951 . S
H2382 C2407 0.951 . S
H2383 C2409 0.950 . S
H2384 C2410 0.950 . S
H2385 C2412 0.950 . S
H2386 C2415 0.950 . S
H2387 C2416 0.950 . S
H2388 C2418 0.950 . S
H2389 C2419 0.950 . S
C2390 H2372 0.951 . S
C2390 C2391 1.366 . S
C2390 C2392 1.388 . S
C2391 C2390 1.366 . S
C2391 C2395 1.385 . S
C2392 H2373 0.951 . S
C2392 C2390 1.388 . S
C2392 C2393 1.366 . S
C2393 C2392 1.366 . S
C2393 C2394 1.414 . S
C2393 C2396 1.499 . S
C2394 H2374 0.950 . S
C2394 C2393 1.414 . S
C2394 C2395 1.374 . S
C2395 H2375 0.950 . S
C2395 C2391 1.385 . S
C2395 C2394 1.374 . S
C2396 C2393 1.499 . S
C2396 C2397 1.373 . S
C2396 C2398 1.389 . S
C2397 H2376 0.950 . S
C2397 C2396 1.373 . S
C2397 C2413 1.377 . S
C2398 C2396 1.389 . S
C2398 C2399 1.524 . S
C2398 C2412 1.377 . S
C2399 C2398 1.524 . S
C2399 C2400 1.397 . S
C2399 C2404 1.363 . S
C2400 H2377 0.950 . S
C2400 C2399 1.397 . S
C2400 C2401 1.334 . S
C2401 H2378 0.950 . S
C2401 C2400 1.334 . S
C2401 C2402 1.287 . S
C2402 C2401 1.287 . S
C2402 C2403 1.524 . S
C2402 H2421 0.913 . S
C2403 H2379 0.950 . S
C2403 C2402 1.524 . S
C2403 C2404 1.415 . S
C2404 H2380 0.950 . S
C2404 C2399 1.363 . S
C2404 C2403 1.415 . S
C2405 H2381 0.951 . S
C2405 C2406 1.366 . S
C2405 C2407 1.388 . S
C2406 C2405 1.366 . S
C2406 C2410 1.385 . S
C2407 H2382 0.951 . S
C2407 C2405 1.388 . S
C2407 C2408 1.366 . S
C2408 C2407 1.366 . S
C2408 C2409 1.414 . S
C2408 C2411 1.499 . S
C2409 H2383 0.950 . S
C2409 C2408 1.414 . S
C2409 C2410 1.374 . S
C2410 H2384 0.950 . S
C2410 C2406 1.385 . S
C2410 C2409 1.374 . S
C2411 C2408 1.499 . S
C2411 C2412 1.373 . S
C2411 C2413 1.389 . S
C2412 H2385 0.950 . S
C2412 C2398 1.377 . S
C2412 C2411 1.373 . S
C2413 C2397 1.377 . S
C2413 C2411 1.389 . S
C2413 C2414 1.524 . S
C2414 C2413 1.524 . S
C2414 C2415 1.397 . S
C2414 C2419 1.363 . S
C2415 H2386 0.950 . S
C2415 C2414 1.397 . S
C2415 C2416 1.334 . S
C2416 H2387 0.950 . S
C2416 C2415 1.334 . S
C2416 C2417 1.287 . S
C2417 C2416 1.287 . S
C2417 C2418 1.524 . S
C2417 H2420 0.999 . S
C2418 H2388 0.950 . S
C2418 C2417 1.524 . S
C2418 C2419 1.415 . S
C2419 H2389 0.950 . S
C2419 C2414 1.363 . S
C2419 C2418 1.415 . S
H2420 C2417 0.999 . S
H2421 C2402 0.913 . S
H2422 C2440 0.951 . S
H2423 C2442 0.951 . S
H2424 C2444 0.950 . S
H2425 C2445 0.950 . S
H2426 C2447 0.950 . S
H2427 C2450 0.950 . S
H2428 C2451 0.950 . S
H2429 C2453 0.950 . S
H2430 C2454 0.950 . S
H2431 C2455 0.951 . S
H2432 C2457 0.951 . S
H2433 C2459 0.950 . S
H2434 C2460 0.950 . S
H2435 C2462 0.950 1_554 S
H2436 C2465 0.950 . S
H2437 C2466 0.950 . S
H2438 C2468 0.950 . S
H2439 C2469 0.950 . S
C2440 H2422 0.951 . S
C2440 C2441 1.366 . S
C2440 C2442 1.388 . S
C2441 C2440 1.366 . S
C2441 C2445 1.385 . S
C2442 H2423 0.951 . S
C2442 C2440 1.388 . S
C2442 C2443 1.366 . S
C2443 C2442 1.366 . S
C2443 C2444 1.414 . S
C2443 C2446 1.499 . S
C2444 H2424 0.950 . S
C2444 C2443 1.414 . S
C2444 C2445 1.374 . S
C2445 H2425 0.950 . S
C2445 C2441 1.385 . S
C2445 C2444 1.374 . S
C2446 C2443 1.499 . S
C2446 C2447 1.373 . S
C2446 C2448 1.389 . S
C2447 H2426 0.950 . S
C2447 C2446 1.373 . S
C2447 C2463 1.377 . S
C2448 C2446 1.389 . S
C2448 C2449 1.524 . S
C2448 C2462 1.377 . S
C2449 C2448 1.524 . S
C2449 C2450 1.397 . S
C2449 C2454 1.363 . S
C2450 H2427 0.950 . S
C2450 C2449 1.397 . S
C2450 C2451 1.334 . S
C2451 H2428 0.950 . S
C2451 C2450 1.334 . S
C2451 C2452 1.287 . S
C2452 C2451 1.287 . S
C2452 C2453 1.524 . S
C2452 H2471 0.913 . S
C2453 H2429 0.950 . S
C2453 C2452 1.524 . S
C2453 C2454 1.415 . S
C2454 H2430 0.950 . S
C2454 C2449 1.363 . S
C2454 C2453 1.415 . S
C2455 H2431 0.951 . S
C2455 C2456 1.366 . S
C2455 C2457 1.388 . S
C2456 C2455 1.366 . S
C2456 C2460 1.385 . S
C2457 H2432 0.951 . S
C2457 C2455 1.388 . S
C2457 C2458 1.366 . S
C2458 C2457 1.366 . S
C2458 C2459 1.414 . S
C2458 C2461 1.499 . S
C2459 H2433 0.950 . S
C2459 C2458 1.414 . S
C2459 C2460 1.374 . S
C2460 H2434 0.950 . S
C2460 C2456 1.385 . S
C2460 C2459 1.374 . S
C2461 C2458 1.499 . S
C2461 C2462 1.373 1_554 S
C2461 C2463 1.389 1_554 S
C2462 H2435 0.950 1_556 S
C2462 C2448 1.377 . S
C2462 C2461 1.373 1_556 S
C2463 C2447 1.377 . S
C2463 C2461 1.389 1_556 S
C2463 C2464 1.524 . S
C2464 C2463 1.524 . S
C2464 C2465 1.397 1_556 S
C2464 C2469 1.363 . S
C2465 H2436 0.950 . S
C2465 C2464 1.397 1_554 S
C2465 C2466 1.334 . S
C2466 H2437 0.950 . S
C2466 C2465 1.334 . S
C2466 C2467 1.287 . S
C2467 C2466 1.287 . S
C2467 C2468 1.524 1_554 S
C2467 H2470 0.999 . S
C2468 H2438 0.950 . S
C2468 C2467 1.524 1_556 S
C2468 C2469 1.415 . S
C2469 H2439 0.950 . S
C2469 C2464 1.363 . S
C2469 C2468 1.415 . S
H2470 C2467 0.999 . S
H2471 C2452 0.913 . S
H2472 C2490 0.951 . S
H2473 C2492 0.951 . S
H2474 C2494 0.950 . S
H2475 C2495 0.950 . S
H2476 C2497 0.950 . S
H2477 C2500 0.950 . S
H2478 C2501 0.950 . S
H2479 C2503 0.950 . S
H2480 C2504 0.950 . S
H2481 C2505 0.951 . S
H2482 C2507 0.951 . S
H2483 C2509 0.950 . S
H2484 C2510 0.950 . S
H2485 C2512 0.950 . S
H2486 C2515 0.950 . S
H2487 C2516 0.950 . S
H2488 C2518 0.950 . S
H2489 C2519 0.950 . S
C2490 H2472 0.951 . S
C2490 C2491 1.366 . S
C2490 C2492 1.388 . S
C2491 C2490 1.366 . S
C2491 C2495 1.385 . S
C2492 H2473 0.951 . S
C2492 C2490 1.388 . S
C2492 C2493 1.366 . S
C2493 C2492 1.366 . S
C2493 C2494 1.414 . S
C2493 C2496 1.499 . S
C2494 H2474 0.950 . S
C2494 C2493 1.414 . S
C2494 C2495 1.374 . S
C2495 H2475 0.950 . S
C2495 C2491 1.385 . S
C2495 C2494 1.374 . S
C2496 C2493 1.499 . S
C2496 C2497 1.373 . S
C2496 C2498 1.389 . S
C2497 H2476 0.950 . S
C2497 C2496 1.373 . S
C2497 C2513 1.377 . S
C2498 C2496 1.389 . S
C2498 C2499 1.524 . S
C2498 C2512 1.377 . S
C2499 C2498 1.524 . S
C2499 C2500 1.397 . S
C2499 C2504 1.363 . S
C2500 H2477 0.950 . S
C2500 C2499 1.397 . S
C2500 C2501 1.334 . S
C2501 H2478 0.950 . S
C2501 C2500 1.334 . S
C2501 C2502 1.287 . S
C2502 C2501 1.287 . S
C2502 C2503 1.524 . S
C2502 H2521 0.913 . S
C2503 H2479 0.950 . S
C2503 C2502 1.524 . S
C2503 C2504 1.415 . S
C2504 H2480 0.950 . S
C2504 C2499 1.363 . S
C2504 C2503 1.415 . S
C2505 H2481 0.951 . S
C2505 C2506 1.366 . S
C2505 C2507 1.388 . S
C2506 C2505 1.366 . S
C2506 C2510 1.385 . S
C2507 H2482 0.951 . S
C2507 C2505 1.388 . S
C2507 C2508 1.366 . S
C2508 C2507 1.366 . S
C2508 C2509 1.414 . S
C2508 C2511 1.499 . S
C2509 H2483 0.950 . S
C2509 C2508 1.414 . S
C2509 C2510 1.374 . S
C2510 H2484 0.950 . S
C2510 C2506 1.385 . S
C2510 C2509 1.374 . S
C2511 C2508 1.499 . S
C2511 C2512 1.373 . S
C2511 C2513 1.389 . S
C2512 H2485 0.950 . S
C2512 C2498 1.377 . S
C2512 C2511 1.373 . S
C2513 C2497 1.377 . S
C2513 C2511 1.389 . S
C2513 C2514 1.524 . S
C2514 C2513 1.524 . S
C2514 C2515 1.397 . S
C2514 C2519 1.363 . S
C2515 H2486 0.950 . S
C2515 C2514 1.397 . S
C2515 C2516 1.334 . S
C2516 H2487 0.950 . S
C2516 C2515 1.334 . S
C2516 C2517 1.287 . S
C2517 C2516 1.287 . S
C2517 C2518 1.524 . S
C2517 H2520 0.999 . S
C2518 H2488 0.950 . S
C2518 C2517 1.524 . S
C2518 C2519 1.415 . S
C2519 H2489 0.950 . S
C2519 C2514 1.363 . S
C2519 C2518 1.415 . S
H2520 C2517 0.999 . S
H2521 C2502 0.913 . S
H2522 C2540 0.951 . S
H2523 C2542 0.951 . S
H2524 C2544 0.950 . S
H2525 C2545 0.950 . S
H2526 C2547 0.950 . S
H2527 C2550 0.950 . S
H2528 C2551 0.950 . S
H2529 C2553 0.950 . S
H2530 C2554 0.950 . S
H2531 C2555 0.951 . S
H2532 C2557 0.951 . S
H2533 C2559 0.950 . S
H2534 C2560 0.950 . S
H2535 C2562 0.950 . S
H2536 C2565 0.950 . S
H2537 C2566 0.950 . S
H2538 C2568 0.950 . S
H2539 C2569 0.950 . S
C2540 H2522 0.951 . S
C2540 C2541 1.366 . S
C2540 C2542 1.388 . S
C2541 C2540 1.366 . S
C2541 C2545 1.385 . S
C2542 H2523 0.951 . S
C2542 C2540 1.388 . S
C2542 C2543 1.366 . S
C2543 C2542 1.366 . S
C2543 C2544 1.414 . S
C2543 C2546 1.499 . S
C2544 H2524 0.950 . S
C2544 C2543 1.414 . S
C2544 C2545 1.374 . S
C2545 H2525 0.950 . S
C2545 C2541 1.385 . S
C2545 C2544 1.374 . S
C2546 C2543 1.499 . S
C2546 C2547 1.373 . S
C2546 C2548 1.389 . S
C2547 H2526 0.950 . S
C2547 C2546 1.373 . S
C2547 C2563 1.377 . S
C2548 C2546 1.389 . S
C2548 C2549 1.524 . S
C2548 C2562 1.377 . S
C2549 C2548 1.524 . S
C2549 C2550 1.397 . S
C2549 C2554 1.363 . S
C2550 H2527 0.950 . S
C2550 C2549 1.397 . S
C2550 C2551 1.334 . S
C2551 H2528 0.950 . S
C2551 C2550 1.334 . S
C2551 C2552 1.287 . S
C2552 C2551 1.287 . S
C2552 C2553 1.524 . S
C2552 H2571 0.913 . S
C2553 H2529 0.950 . S
C2553 C2552 1.524 . S
C2553 C2554 1.415 . S
C2554 H2530 0.950 . S
C2554 C2549 1.363 . S
C2554 C2553 1.415 . S
C2555 H2531 0.951 . S
C2555 C2556 1.366 . S
C2555 C2557 1.388 . S
C2556 C2555 1.366 . S
C2556 C2560 1.385 . S
C2557 H2532 0.951 . S
C2557 C2555 1.388 . S
C2557 C2558 1.366 . S
C2558 C2557 1.366 . S
C2558 C2559 1.414 . S
C2558 C2561 1.499 . S
C2559 H2533 0.950 . S
C2559 C2558 1.414 . S
C2559 C2560 1.374 . S
C2560 H2534 0.950 . S
C2560 C2556 1.385 . S
C2560 C2559 1.374 . S
C2561 C2558 1.499 . S
C2561 C2562 1.373 . S
C2561 C2563 1.389 . S
C2562 H2535 0.950 . S
C2562 C2548 1.377 . S
C2562 C2561 1.373 . S
C2563 C2547 1.377 . S
C2563 C2561 1.389 . S
C2563 C2564 1.524 . S
C2564 C2563 1.524 . S
C2564 C2565 1.397 . S
C2564 C2569 1.363 . S
C2565 H2536 0.950 . S
C2565 C2564 1.397 . S
C2565 C2566 1.334 . S
C2566 H2537 0.950 . S
C2566 C2565 1.334 . S
C2566 C2567 1.287 . S
C2567 C2566 1.287 . S
C2567 C2568 1.524 . S
C2567 H2570 0.999 . S
C2568 H2538 0.950 . S
C2568 C2567 1.524 . S
C2568 C2569 1.415 . S
C2569 H2539 0.950 . S
C2569 C2564 1.363 . S
C2569 C2568 1.415 . S
H2570 C2567 0.999 . S
H2571 C2552 0.913 . S
H2572 C2590 0.951 . S
H2573 C2592 0.951 . S
H2574 C2594 0.950 . S
H2575 C2595 0.950 . S
H2576 C2597 0.950 . S
H2577 C2600 0.950 . S
H2578 C2601 0.950 . S
H2579 C2603 0.950 . S
H2580 C2604 0.950 . S
H2581 C2605 0.951 . S
H2582 C2607 0.951 . S
H2583 C2609 0.950 . S
H2584 C2610 0.950 . S
H2585 C2612 0.950 . S
H2586 C2615 0.950 . S
H2587 C2616 0.950 . S
H2588 C2618 0.950 . S
H2589 C2619 0.950 . S
C2590 H2572 0.951 . S
C2590 C2591 1.366 . S
C2590 C2592 1.388 . S
C2591 C2590 1.366 . S
C2591 C2595 1.385 . S
C2592 H2573 0.951 . S
C2592 C2590 1.388 . S
C2592 C2593 1.366 . S
C2593 C2592 1.366 . S
C2593 C2594 1.414 . S
C2593 C2596 1.499 . S
C2594 H2574 0.950 . S
C2594 C2593 1.414 . S
C2594 C2595 1.374 . S
C2595 H2575 0.950 . S
C2595 C2591 1.385 . S
C2595 C2594 1.374 . S
C2596 C2593 1.499 . S
C2596 C2597 1.373 . S
C2596 C2598 1.389 . S
C2597 H2576 0.950 . S
C2597 C2596 1.373 . S
C2597 C2613 1.377 . S
C2598 C2596 1.389 . S
C2598 C2599 1.524 . S
C2598 C2612 1.377 . S
C2599 C2598 1.524 . S
C2599 C2600 1.397 . S
C2599 C2604 1.363 . S
C2600 H2577 0.950 . S
C2600 C2599 1.397 . S
C2600 C2601 1.334 . S
C2601 H2578 0.950 . S
C2601 C2600 1.334 . S
C2601 C2602 1.287 . S
C2602 C2601 1.287 . S
C2602 C2603 1.524 . S
C2602 H2621 0.913 . S
C2603 H2579 0.950 . S
C2603 C2602 1.524 . S
C2603 C2604 1.415 . S
C2604 H2580 0.950 . S
C2604 C2599 1.363 . S
C2604 C2603 1.415 . S
C2605 H2581 0.951 . S
C2605 C2606 1.366 . S
C2605 C2607 1.388 . S
C2606 C2605 1.366 . S
C2606 C2610 1.385 . S
C2607 H2582 0.951 . S
C2607 C2605 1.388 . S
C2607 C2608 1.366 . S
C2608 C2607 1.366 . S
C2608 C2609 1.414 . S
C2608 C2611 1.499 . S
C2609 H2583 0.950 . S
C2609 C2608 1.414 . S
C2609 C2610 1.374 . S
C2610 H2584 0.950 . S
C2610 C2606 1.385 . S
C2610 C2609 1.374 . S
C2611 C2608 1.499 . S
C2611 C2612 1.373 . S
C2611 C2613 1.389 . S
C2612 H2585 0.950 . S
C2612 C2598 1.377 . S
C2612 C2611 1.373 . S
C2613 C2597 1.377 . S
C2613 C2611 1.389 . S
C2613 C2614 1.524 . S
C2614 C2613 1.524 . S
C2614 C2615 1.397 . S
C2614 C2619 1.363 . S
C2615 H2586 0.950 . S
C2615 C2614 1.397 . S
C2615 C2616 1.334 . S
C2616 H2587 0.950 . S
C2616 C2615 1.334 . S
C2616 C2617 1.287 . S
C2617 C2616 1.287 . S
C2617 C2618 1.524 . S
C2617 H2620 0.999 . S
C2618 H2588 0.950 . S
C2618 C2617 1.524 . S
C2618 C2619 1.415 . S
C2619 H2589 0.950 . S
C2619 C2614 1.363 . S
C2619 C2618 1.415 . S
H2620 C2617 0.999 . S
H2621 C2602 0.913 . S
H2622 C2640 0.951 . S
H2623 C2642 0.951 . S
H2624 C2644 0.950 . S
H2625 C2645 0.950 . S
H2626 C2647 0.950 1_556 S
H2627 C2650 0.951 . S
H2628 C2651 0.950 . S
H2629 C2653 0.950 . S
H2630 C2654 0.950 . S
H2631 C2655 0.951 . S
H2632 C2657 0.951 . S
H2633 C2659 0.950 . S
H2634 C2660 0.950 . S
H2635 C2662 0.950 . S
H2636 C2665 0.950 . S
H2637 C2666 0.950 . S
H2638 C2668 0.950 . S
H2639 C2669 0.950 . S
C2640 H2622 0.951 . S
C2640 C2641 1.366 . S
C2640 C2642 1.388 . S
C2641 C2640 1.366 . S
C2641 C2645 1.385 . S
C2642 H2623 0.951 . S
C2642 C2640 1.388 . S
C2642 C2643 1.366 . S
C2643 C2642 1.366 . S
C2643 C2644 1.414 . S
C2643 C2646 1.499 . S
C2644 H2624 0.950 . S
C2644 C2643 1.414 . S
C2644 C2645 1.374 . S
C2645 H2625 0.950 . S
C2645 C2641 1.385 . S
C2645 C2644 1.374 . S
C2646 C2643 1.499 . S
C2646 C2647 1.373 1_556 S
C2646 C2648 1.389 1_556 S
C2647 H2626 0.950 1_554 S
C2647 C2646 1.373 1_554 S
C2647 C2663 1.377 . S
C2648 C2646 1.389 1_554 S
C2648 C2649 1.524 . S
C2648 C2662 1.377 . S
C2649 C2648 1.524 . S
C2649 C2650 1.394 1_554 S
C2649 C2654 1.363 . S
C2650 H2627 0.951 . S
C2650 C2649 1.394 1_556 S
C2650 C2651 1.335 . S
C2651 H2628 0.950 . S
C2651 C2650 1.335 . S
C2651 C2652 1.287 1_556 S
C2652 C2651 1.287 1_554 S
C2652 C2653 1.524 . S
C2652 H2671 0.913 1_554 S
C2653 H2629 0.950 . S
C2653 C2652 1.524 . S
C2653 C2654 1.415 . S
C2654 H2630 0.950 . S
C2654 C2649 1.363 . S
C2654 C2653 1.415 . S
C2655 H2631 0.951 . S
C2655 C2656 1.366 . S
C2655 C2657 1.388 . S
C2656 C2655 1.366 . S
C2656 C2660 1.385 . S
C2657 H2632 0.951 . S
C2657 C2655 1.388 . S
C2657 C2658 1.366 . S
C2658 C2657 1.366 . S
C2658 C2659 1.414 . S
C2658 C2661 1.499 . S
C2659 H2633 0.950 . S
C2659 C2658 1.414 . S
C2659 C2660 1.374 . S
C2660 H2634 0.950 . S
C2660 C2656 1.385 . S
C2660 C2659 1.374 . S
C2661 C2658 1.499 . S
C2661 C2662 1.373 . S
C2661 C2663 1.389 . S
C2662 H2635 0.950 . S
C2662 C2648 1.377 . S
C2662 C2661 1.373 . S
C2663 C2647 1.377 . S
C2663 C2661 1.389 . S
C2663 C2664 1.524 . S
C2664 C2663 1.524 . S
C2664 C2665 1.397 . S
C2664 C2669 1.363 . S
C2665 H2636 0.950 . S
C2665 C2664 1.397 . S
C2665 C2666 1.334 . S
C2666 H2637 0.950 . S
C2666 C2665 1.334 . S
C2666 C2667 1.287 . S
C2667 C2666 1.287 . S
C2667 C2668 1.524 . S
C2667 H2670 0.999 . S
C2668 H2638 0.950 . S
C2668 C2667 1.524 . S
C2668 C2669 1.415 . S
C2669 H2639 0.950 . S
C2669 C2664 1.363 . S
C2669 C2668 1.415 . S
H2670 C2667 0.999 . S
H2671 C2652 0.913 1_556 S
H2672 C2690 0.951 . S
H2673 C2692 0.951 . S
H2674 C2694 0.950 . S
H2675 C2695 0.950 . S
H2676 C2697 0.950 . S
H2677 C2700 0.950 . S
H2678 C2701 0.950 . S
H2679 C2703 0.950 . S
H2680 C2704 0.950 . S
H2681 C2705 0.951 . S
H2682 C2707 0.951 . S
H2683 C2709 0.950 . S
H2684 C2710 0.950 . S
H2685 C2712 0.950 . S
H2686 C2715 0.950 . S
H2687 C2716 0.950 . S
H2688 C2718 0.950 . S
H2689 C2719 0.950 . S
C2690 H2672 0.951 . S
C2690 C2691 1.366 . S
C2690 C2692 1.388 . S
C2691 C2690 1.366 . S
C2691 C2695 1.385 . S
C2692 H2673 0.951 . S
C2692 C2690 1.388 . S
C2692 C2693 1.366 . S
C2693 C2692 1.366 . S
C2693 C2694 1.414 . S
C2693 C2696 1.499 . S
C2694 H2674 0.950 . S
C2694 C2693 1.414 . S
C2694 C2695 1.374 . S
C2695 H2675 0.950 . S
C2695 C2691 1.385 . S
C2695 C2694 1.374 . S
C2696 C2693 1.499 . S
C2696 C2697 1.373 . S
C2696 C2698 1.389 . S
C2697 H2676 0.950 . S
C2697 C2696 1.373 . S
C2697 C2713 1.377 . S
C2698 C2696 1.389 . S
C2698 C2699 1.524 . S
C2698 C2712 1.377 . S
C2699 C2698 1.524 . S
C2699 C2700 1.397 . S
C2699 C2704 1.363 . S
C2700 H2677 0.950 . S
C2700 C2699 1.397 . S
C2700 C2701 1.334 . S
C2701 H2678 0.950 . S
C2701 C2700 1.334 . S
C2701 C2702 1.287 . S
C2702 C2701 1.287 . S
C2702 C2703 1.524 . S
C2702 H2721 0.913 . S
C2703 H2679 0.950 . S
C2703 C2702 1.524 . S
C2703 C2704 1.415 . S
C2704 H2680 0.950 . S
C2704 C2699 1.363 . S
C2704 C2703 1.415 . S
C2705 H2681 0.951 . S
C2705 C2706 1.366 . S
C2705 C2707 1.388 . S
C2706 C2705 1.366 . S
C2706 C2710 1.385 . S
C2707 H2682 0.951 . S
C2707 C2705 1.388 . S
C2707 C2708 1.366 . S
C2708 C2707 1.366 . S
C2708 C2709 1.414 . S
C2708 C2711 1.499 . S
C2709 H2683 0.950 . S
C2709 C2708 1.414 . S
C2709 C2710 1.374 . S
C2710 H2684 0.950 . S
C2710 C2706 1.385 . S
C2710 C2709 1.374 . S
C2711 C2708 1.499 . S
C2711 C2712 1.373 . S
C2711 C2713 1.389 . S
C2712 H2685 0.950 . S
C2712 C2698 1.377 . S
C2712 C2711 1.373 . S
C2713 C2697 1.377 . S
C2713 C2711 1.389 . S
C2713 C2714 1.524 . S
C2714 C2713 1.524 . S
C2714 C2715 1.397 . S
C2714 C2719 1.363 . S
C2715 H2686 0.950 . S
C2715 C2714 1.397 . S
C2715 C2716 1.334 . S
C2716 H2687 0.950 . S
C2716 C2715 1.334 . S
C2716 C2717 1.287 . S
C2717 C2716 1.287 . S
C2717 C2718 1.524 . S
C2717 H2720 0.999 . S
C2718 H2688 0.950 . S
C2718 C2717 1.524 . S
C2718 C2719 1.415 . S
C2719 H2689 0.950 . S
C2719 C2714 1.363 . S
C2719 C2718 1.415 . S
H2720 C2717 0.999 . S
H2721 C2702 0.913 . S
H2722 C2740 0.951 . S
H2723 C2742 0.951 . S
H2724 C2744 0.950 . S
H2725 C2745 0.950 . S
H2726 C2747 0.950 . S
H2727 C2750 0.950 . S
H2728 C2751 0.950 . S
H2729 C2753 0.950 . S
H2730 C2754 0.950 . S
H2731 C2755 0.951 . S
H2732 C2757 0.951 . S
H2733 C2759 0.950 . S
H2734 C2760 0.950 . S
H2735 C2762 0.950 . S
H2736 C2765 0.950 . S
H2737 C2766 0.950 . S
H2738 C2768 0.950 . S
H2739 C2769 0.950 . S
C2740 H2722 0.951 . S
C2740 C2741 1.366 . S
C2740 C2742 1.388 . S
C2741 C2740 1.366 . S
C2741 C2745 1.385 . S
C2742 H2723 0.951 . S
C2742 C2740 1.388 . S
C2742 C2743 1.366 . S
C2743 C2742 1.366 . S
C2743 C2744 1.414 . S
C2743 C2746 1.499 . S
C2744 H2724 0.950 . S
C2744 C2743 1.414 . S
C2744 C2745 1.374 . S
C2745 H2725 0.950 . S
C2745 C2741 1.385 . S
C2745 C2744 1.374 . S
C2746 C2743 1.499 . S
C2746 C2747 1.373 . S
C2746 C2748 1.389 . S
C2747 H2726 0.950 . S
C2747 C2746 1.373 . S
C2747 C2763 1.377 . S
C2748 C2746 1.389 . S
C2748 C2749 1.524 . S
C2748 C2762 1.377 . S
C2749 C2748 1.524 . S
C2749 C2750 1.397 . S
C2749 C2754 1.363 . S
C2750 H2727 0.950 . S
C2750 C2749 1.397 . S
C2750 C2751 1.334 . S
C2751 H2728 0.950 . S
C2751 C2750 1.334 . S
C2751 C2752 1.287 . S
C2752 C2751 1.287 . S
C2752 C2753 1.524 . S
C2752 H2771 0.913 . S
C2753 H2729 0.950 . S
C2753 C2752 1.524 . S
C2753 C2754 1.415 . S
C2754 H2730 0.950 . S
C2754 C2749 1.363 . S
C2754 C2753 1.415 . S
C2755 H2731 0.951 . S
C2755 C2756 1.366 . S
C2755 C2757 1.388 . S
C2756 C2755 1.366 . S
C2756 C2760 1.385 . S
C2757 H2732 0.951 . S
C2757 C2755 1.388 . S
C2757 C2758 1.366 . S
C2758 C2757 1.366 . S
C2758 C2759 1.414 . S
C2758 C2761 1.499 . S
C2759 H2733 0.950 . S
C2759 C2758 1.414 . S
C2759 C2760 1.374 . S
C2760 H2734 0.950 . S
C2760 C2756 1.385 . S
C2760 C2759 1.374 . S
C2761 C2758 1.499 . S
C2761 C2762 1.373 . S
C2761 C2763 1.389 . S
C2762 H2735 0.950 . S
C2762 C2748 1.377 . S
C2762 C2761 1.373 . S
C2763 C2747 1.377 . S
C2763 C2761 1.389 . S
C2763 C2764 1.524 . S
C2764 C2763 1.524 . S
C2764 C2765 1.397 . S
C2764 C2769 1.363 . S
C2765 H2736 0.950 . S
C2765 C2764 1.397 . S
C2765 C2766 1.334 . S
C2766 H2737 0.950 . S
C2766 C2765 1.334 . S
C2766 C2767 1.287 . S
C2767 C2766 1.287 . S
C2767 C2768 1.524 . S
C2767 H2770 0.999 . S
C2768 H2738 0.950 . S
C2768 C2767 1.524 . S
C2768 C2769 1.415 . S
C2769 H2739 0.950 . S
C2769 C2764 1.363 . S
C2769 C2768 1.415 . S
H2770 C2767 0.999 . S
H2771 C2752 0.913 . S
H2772 C2790 0.951 . S
H2773 C2792 0.951 . S
H2774 C2794 0.950 . S
H2775 C2795 0.950 . S
H2776 C2797 0.950 . S
H2777 C2800 0.950 . S
H2778 C2801 0.950 . S
H2779 C2803 0.950 . S
H2780 C2804 0.950 . S
H2781 C2805 0.951 . S
H2782 C2807 0.951 . S
H2783 C2809 0.950 . S
H2784 C2810 0.950 . S
H2785 C2812 0.950 . S
H2786 C2815 0.950 . S
H2787 C2816 0.950 . S
H2788 C2818 0.950 . S
H2789 C2819 0.950 . S
C2790 H2772 0.951 . S
C2790 C2791 1.366 . S
C2790 C2792 1.388 . S
C2791 C2790 1.366 . S
C2791 C2795 1.385 . S
C2792 H2773 0.951 . S
C2792 C2790 1.388 . S
C2792 C2793 1.366 . S
C2793 C2792 1.366 . S
C2793 C2794 1.414 . S
C2793 C2796 1.499 . S
C2794 H2774 0.950 . S
C2794 C2793 1.414 . S
C2794 C2795 1.374 . S
C2795 H2775 0.950 . S
C2795 C2791 1.385 . S
C2795 C2794 1.374 . S
C2796 C2793 1.499 . S
C2796 C2797 1.373 . S
C2796 C2798 1.389 . S
C2797 H2776 0.950 . S
C2797 C2796 1.373 . S
C2797 C2813 1.377 . S
C2798 C2796 1.389 . S
C2798 C2799 1.524 . S
C2798 C2812 1.377 . S
C2799 C2798 1.524 . S
C2799 C2800 1.397 . S
C2799 C2804 1.363 . S
C2800 H2777 0.950 . S
C2800 C2799 1.397 . S
C2800 C2801 1.334 . S
C2801 H2778 0.950 . S
C2801 C2800 1.334 . S
C2801 C2802 1.287 . S
C2802 C2801 1.287 . S
C2802 C2803 1.524 . S
C2802 H2821 0.913 . S
C2803 H2779 0.950 . S
C2803 C2802 1.524 . S
C2803 C2804 1.415 . S
C2804 H2780 0.950 . S
C2804 C2799 1.363 . S
C2804 C2803 1.415 . S
C2805 H2781 0.951 . S
C2805 C2806 1.366 . S
C2805 C2807 1.388 . S
C2806 C2805 1.366 . S
C2806 C2810 1.385 . S
C2807 H2782 0.951 . S
C2807 C2805 1.388 . S
C2807 C2808 1.366 . S
C2808 C2807 1.366 . S
C2808 C2809 1.414 . S
C2808 C2811 1.499 . S
C2809 H2783 0.950 . S
C2809 C2808 1.414 . S
C2809 C2810 1.374 . S
C2810 H2784 0.950 . S
C2810 C2806 1.385 . S
C2810 C2809 1.374 . S
C2811 C2808 1.499 . S
C2811 C2812 1.373 . S
C2811 C2813 1.389 . S
C2812 H2785 0.950 . S
C2812 C2798 1.377 . S
C2812 C2811 1.373 . S
C2813 C2797 1.377 . S
C2813 C2811 1.389 . S
C2813 C2814 1.524 . S
C2814 C2813 1.524 . S
C2814 C2815 1.397 . S
C2814 C2819 1.363 . S
C2815 H2786 0.950 . S
C2815 C2814 1.397 . S
C2815 C2816 1.334 . S
C2816 H2787 0.950 . S
C2816 C2815 1.334 . S
C2816 C2817 1.287 . S
C2817 C2816 1.287 . S
C2817 C2818 1.524 . S
C2817 H2820 0.999 . S
C2818 H2788 0.950 . S
C2818 C2817 1.524 . S
C2818 C2819 1.415 . S
C2819 H2789 0.950 . S
C2819 C2814 1.363 . S
C2819 C2818 1.415 . S
H2820 C2817 0.999 . S
H2821 C2802 0.913 . S
H2822 C2840 0.951 . S
H2823 C2842 0.951 . S
H2824 C2844 0.950 . S
H2825 C2845 0.950 . S
H2826 C2847 0.950 . S
H2827 C2850 0.950 . S
H2828 C2851 0.950 . S
H2829 C2853 0.950 . S
H2830 C2854 0.950 . S
H2831 C2855 0.951 . S
H2832 C2857 0.951 . S
H2833 C2859 0.950 . S
H2834 C2860 0.950 . S
H2835 C2862 0.950 . S
H2836 C2865 0.950 . S
H2837 C2866 0.950 . S
H2838 C2868 0.950 . S
H2839 C2869 0.950 . S
C2840 H2822 0.951 . S
C2840 C2841 1.366 . S
C2840 C2842 1.388 . S
C2841 C2840 1.366 . S
C2841 C2845 1.385 . S
C2842 H2823 0.951 . S
C2842 C2840 1.388 . S
C2842 C2843 1.366 . S
C2843 C2842 1.366 . S
C2843 C2844 1.414 . S
C2843 C2846 1.499 . S
C2844 H2824 0.950 . S
C2844 C2843 1.414 . S
C2844 C2845 1.374 . S
C2845 H2825 0.950 . S
C2845 C2841 1.385 . S
C2845 C2844 1.374 . S
C2846 C2843 1.499 . S
C2846 C2847 1.373 . S
C2846 C2848 1.389 . S
C2847 H2826 0.950 . S
C2847 C2846 1.373 . S
C2847 C2863 1.377 . S
C2848 C2846 1.389 . S
C2848 C2849 1.524 . S
C2848 C2862 1.377 . S
C2849 C2848 1.524 . S
C2849 C2850 1.397 . S
C2849 C2854 1.363 . S
C2850 H2827 0.950 . S
C2850 C2849 1.397 . S
C2850 C2851 1.334 . S
C2851 H2828 0.950 . S
C2851 C2850 1.334 . S
C2851 C2852 1.287 . S
C2852 C2851 1.287 . S
C2852 C2853 1.524 . S
C2852 H2871 0.913 . S
C2853 H2829 0.950 . S
C2853 C2852 1.524 . S
C2853 C2854 1.415 . S
C2854 H2830 0.950 . S
C2854 C2849 1.363 . S
C2854 C2853 1.415 . S
C2855 H2831 0.951 . S
C2855 C2856 1.366 . S
C2855 C2857 1.388 . S
C2856 C2855 1.366 . S
C2856 C2860 1.385 . S
C2857 H2832 0.951 . S
C2857 C2855 1.388 . S
C2857 C2858 1.366 . S
C2858 C2857 1.366 . S
C2858 C2859 1.414 . S
C2858 C2861 1.499 . S
C2859 H2833 0.950 . S
C2859 C2858 1.414 . S
C2859 C2860 1.374 . S
C2860 H2834 0.950 . S
C2860 C2856 1.385 . S
C2860 C2859 1.374 . S
C2861 C2858 1.499 . S
C2861 C2862 1.373 . S
C2861 C2863 1.389 . S
C2862 H2835 0.950 . S
C2862 C2848 1.377 . S
C2862 C2861 1.373 . S
C2863 C2847 1.377 . S
C2863 C2861 1.389 . S
C2863 C2864 1.524 . S
C2864 C2863 1.524 . S
C2864 C2865 1.397 . S
C2864 C2869 1.363 . S
C2865 H2836 0.950 . S
C2865 C2864 1.397 . S
C2865 C2866 1.334 . S
C2866 H2837 0.950 . S
C2866 C2865 1.334 . S
C2866 C2867 1.287 . S
C2867 C2866 1.287 . S
C2867 C2868 1.524 . S
C2867 H2870 0.999 . S
C2868 H2838 0.950 . S
C2868 C2867 1.524 . S
C2868 C2869 1.415 . S
C2869 H2839 0.950 . S
C2869 C2864 1.363 . S
C2869 C2868 1.415 . S
H2870 C2867 0.999 . S
H2871 C2852 0.913 . S
H2872 C2890 0.951 . S
H2873 C2892 0.951 . S
H2874 C2894 0.950 . S
H2875 C2895 0.950 . S
H2876 C2897 0.950 . S
H2877 C2900 0.950 . S
H2878 C2901 0.950 . S
H2879 C2903 0.950 . S
H2880 C2904 0.947 1_545 S
H2881 C2905 0.951 . S
H2882 C2907 0.951 . S
H2883 C2909 0.950 . S
H2884 C2910 0.950 . S
H2885 C2912 0.950 . S
H2886 C2915 0.950 . S
H2887 C2916 0.950 . S
H2888 C2918 0.950 . S
H2889 C2919 0.950 . S
C2890 H2872 0.951 . S
C2890 C2891 1.366 . S
C2890 C2892 1.388 . S
C2891 C2890 1.366 . S
C2891 C2895 1.385 . S
C2892 H2873 0.951 . S
C2892 C2890 1.388 . S
C2892 C2893 1.366 . S
C2893 C2892 1.366 . S
C2893 C2894 1.414 . S
C2893 C2896 1.499 1_565 S
C2894 H2874 0.950 . S
C2894 C2893 1.414 . S
C2894 C2895 1.374 . S
C2895 H2875 0.950 . S
C2895 C2891 1.385 . S
C2895 C2894 1.374 . S
C2896 C2893 1.499 1_545 S
C2896 C2897 1.373 . S
C2896 C2898 1.389 . S
C2897 H2876 0.950 . S
C2897 C2896 1.373 . S
C2897 C2913 1.377 . S
C2898 C2896 1.389 . S
C2898 C2899 1.524 . S
C2898 C2912 1.377 . S
C2899 C2898 1.524 . S
C2899 C2900 1.397 1_545 S
C2899 C2904 1.363 1_545 S
C2900 H2877 0.950 . S
C2900 C2899 1.397 1_565 S
C2900 C2901 1.334 . S
C2901 H2878 0.950 . S
C2901 C2900 1.334 . S
C2901 C2902 1.287 . S
C2902 C2901 1.287 . S
C2902 C2903 1.524 . S
C2902 H2921 0.913 . S
C2903 H2879 0.950 . S
C2903 C2902 1.524 . S
C2903 C2904 1.419 . S
C2904 H2880 0.947 1_565 S
C2904 C2899 1.363 1_565 S
C2904 C2903 1.419 . S
C2905 H2881 0.951 . S
C2905 C2906 1.366 . S
C2905 C2907 1.388 . S
C2906 C2905 1.366 . S
C2906 C2910 1.385 . S
C2907 H2882 0.951 . S
C2907 C2905 1.388 . S
C2907 C2908 1.366 . S
C2908 C2907 1.366 . S
C2908 C2909 1.414 . S
C2908 C2911 1.499 . S
C2909 H2883 0.950 . S
C2909 C2908 1.414 . S
C2909 C2910 1.374 . S
C2910 H2884 0.950 . S
C2910 C2906 1.385 . S
C2910 C2909 1.374 . S
C2911 C2908 1.499 . S
C2911 C2912 1.373 . S
C2911 C2913 1.389 . S
C2912 H2885 0.950 . S
C2912 C2898 1.377 . S
C2912 C2911 1.373 . S
C2913 C2897 1.377 . S
C2913 C2911 1.389 . S
C2913 C2914 1.524 . S
C2914 C2913 1.524 . S
C2914 C2915 1.397 . S
C2914 C2919 1.363 . S
C2915 H2886 0.950 . S
C2915 C2914 1.397 . S
C2915 C2916 1.334 . S
C2916 H2887 0.950 . S
C2916 C2915 1.334 . S
C2916 C2917 1.287 . S
C2917 C2916 1.287 . S
C2917 C2918 1.524 . S
C2917 H2920 0.999 . S
C2918 H2888 0.950 . S
C2918 C2917 1.524 . S
C2918 C2919 1.415 . S
C2919 H2889 0.950 . S
C2919 C2914 1.363 . S
C2919 C2918 1.415 . S
H2920 C2917 0.999 . S
H2921 C2902 0.913 . S
H2922 C2940 0.951 . S
H2923 C2942 0.951 . S
H2924 C2944 0.950 . S
H2925 C2945 0.950 . S
H2926 C2947 0.950 . S
H2927 C2950 0.950 . S
H2928 C2951 0.950 . S
H2929 C2953 0.950 . S
H2930 C2954 0.950 . S
H2931 C2955 0.951 . S
H2932 C2957 0.951 . S
H2933 C2959 0.950 . S
H2934 C2960 0.950 . S
H2935 C2962 0.950 . S
H2936 C2965 0.950 . S
H2937 C2966 0.950 . S
H2938 C2968 0.950 . S
H2939 C2969 0.950 . S
C2940 H2922 0.951 . S
C2940 C2941 1.366 . S
C2940 C2942 1.388 . S
C2941 C2940 1.366 . S
C2941 C2945 1.385 . S
C2942 H2923 0.951 . S
C2942 C2940 1.388 . S
C2942 C2943 1.366 . S
C2943 C2942 1.366 . S
C2943 C2944 1.414 . S
C2943 C2946 1.499 . S
C2944 H2924 0.950 . S
C2944 C2943 1.414 . S
C2944 C2945 1.374 . S
C2945 H2925 0.950 . S
C2945 C2941 1.385 . S
C2945 C2944 1.374 . S
C2946 C2943 1.499 . S
C2946 C2947 1.373 . S
C2946 C2948 1.389 . S
C2947 H2926 0.950 . S
C2947 C2946 1.373 . S
C2947 C2963 1.377 . S
C2948 C2946 1.389 . S
C2948 C2949 1.524 . S
C2948 C2962 1.377 . S
C2949 C2948 1.524 . S
C2949 C2950 1.397 . S
C2949 C2954 1.363 . S
C2950 H2927 0.950 . S
C2950 C2949 1.397 . S
C2950 C2951 1.334 . S
C2951 H2928 0.950 . S
C2951 C2950 1.334 . S
C2951 C2952 1.287 . S
C2952 C2951 1.287 . S
C2952 C2953 1.524 . S
C2952 H2971 0.913 . S
C2953 H2929 0.950 . S
C2953 C2952 1.524 . S
C2953 C2954 1.415 . S
C2954 H2930 0.950 . S
C2954 C2949 1.363 . S
C2954 C2953 1.415 . S
C2955 H2931 0.951 . S
C2955 C2956 1.366 . S
C2955 C2957 1.388 . S
C2956 C2955 1.366 . S
C2956 C2960 1.385 . S
C2957 H2932 0.951 . S
C2957 C2955 1.388 . S
C2957 C2958 1.366 . S
C2958 C2957 1.366 . S
C2958 C2959 1.414 . S
C2958 C2961 1.499 . S
C2959 H2933 0.950 . S
C2959 C2958 1.414 . S
C2959 C2960 1.374 . S
C2960 H2934 0.950 . S
C2960 C2956 1.385 . S
C2960 C2959 1.374 . S
C2961 C2958 1.499 . S
C2961 C2962 1.373 . S
C2961 C2963 1.389 . S
C2962 H2935 0.950 . S
C2962 C2948 1.377 . S
C2962 C2961 1.373 . S
C2963 C2947 1.377 . S
C2963 C2961 1.389 . S
C2963 C2964 1.524 . S
C2964 C2963 1.524 . S
C2964 C2965 1.397 . S
C2964 C2969 1.363 . S
C2965 H2936 0.950 . S
C2965 C2964 1.397 . S
C2965 C2966 1.334 . S
C2966 H2937 0.950 . S
C2966 C2965 1.334 . S
C2966 C2967 1.287 . S
C2967 C2966 1.287 . S
C2967 C2968 1.524 . S
C2967 H2970 0.999 . S
C2968 H2938 0.950 . S
C2968 C2967 1.524 . S
C2968 C2969 1.415 . S
C2969 H2939 0.950 . S
C2969 C2964 1.363 . S
C2969 C2968 1.415 . S
H2970 C2967 0.999 . S
H2971 C2952 0.913 . S
H2972 C2990 0.951 . S
H2973 C2992 0.951 . S
H2974 C2994 0.950 . S
H2975 C2995 0.950 . S
H2976 C2997 0.950 . S
H2977 C3000 0.950 . S
H2978 C3001 0.950 . S
H2979 C3003 0.950 . S
H2980 C3004 0.950 . S
H2981 C3005 0.951 . S
H2982 C3007 0.951 . S
H2983 C3009 0.950 . S
H2984 C3010 0.950 . S
H2985 C3012 0.950 . S
H2986 C3015 0.950 . S
H2987 C3016 0.950 . S
H2988 C3018 0.950 . S
H2989 C3019 0.950 . S
C2990 H2972 0.951 . S
C2990 C2991 1.366 . S
C2990 C2992 1.388 . S
C2991 C2990 1.366 . S
C2991 C2995 1.385 . S
C2992 H2973 0.951 . S
C2992 C2990 1.388 . S
C2992 C2993 1.366 . S
C2993 C2992 1.366 . S
C2993 C2994 1.414 . S
C2993 C2996 1.499 . S
C2994 H2974 0.950 . S
C2994 C2993 1.414 . S
C2994 C2995 1.374 . S
C2995 H2975 0.950 . S
C2995 C2991 1.385 . S
C2995 C2994 1.374 . S
C2996 C2993 1.499 . S
C2996 C2997 1.373 . S
C2996 C2998 1.389 . S
C2997 H2976 0.950 . S
C2997 C2996 1.373 . S
C2997 C3013 1.377 . S
C2998 C2996 1.389 . S
C2998 C2999 1.524 . S
C2998 C3012 1.377 . S
C2999 C2998 1.524 . S
C2999 C3000 1.397 . S
C2999 C3004 1.363 . S
C3000 H2977 0.950 . S
C3000 C2999 1.397 . S
C3000 C3001 1.334 . S
C3001 H2978 0.950 . S
C3001 C3000 1.334 . S
C3001 C3002 1.287 . S
C3002 C3001 1.287 . S
C3002 C3003 1.524 . S
C3002 H3021 0.913 . S
C3003 H2979 0.950 . S
C3003 C3002 1.524 . S
C3003 C3004 1.415 . S
C3004 H2980 0.950 . S
C3004 C2999 1.363 . S
C3004 C3003 1.415 . S
C3005 H2981 0.951 . S
C3005 C3006 1.366 . S
C3005 C3007 1.388 . S
C3006 C3005 1.366 . S
C3006 C3010 1.385 . S
C3007 H2982 0.951 . S
C3007 C3005 1.388 . S
C3007 C3008 1.366 . S
C3008 C3007 1.366 . S
C3008 C3009 1.414 . S
C3008 C3011 1.499 . S
C3009 H2983 0.950 . S
C3009 C3008 1.414 . S
C3009 C3010 1.374 . S
C3010 H2984 0.950 . S
C3010 C3006 1.385 . S
C3010 C3009 1.374 . S
C3011 C3008 1.499 . S
C3011 C3012 1.373 . S
C3011 C3013 1.389 . S
C3012 H2985 0.950 . S
C3012 C2998 1.377 . S
C3012 C3011 1.373 . S
C3013 C2997 1.377 . S
C3013 C3011 1.389 . S
C3013 C3014 1.524 . S
C3014 C3013 1.524 . S
C3014 C3015 1.397 . S
C3014 C3019 1.363 . S
C3015 H2986 0.950 . S
C3015 C3014 1.397 . S
C3015 C3016 1.334 . S
C3016 H2987 0.950 . S
C3016 C3015 1.334 . S
C3016 C3017 1.287 . S
C3017 C3016 1.287 . S
C3017 C3018 1.524 . S
C3017 H3020 0.999 . S
C3018 H2988 0.950 . S
C3018 C3017 1.524 . S
C3018 C3019 1.415 . S
C3019 H2989 0.950 . S
C3019 C3014 1.363 . S
C3019 C3018 1.415 . S
H3020 C3017 0.999 . S
H3021 C3002 0.913 . S
H3022 C3040 0.951 . S
H3023 C3042 0.951 . S
H3024 C3044 0.950 . S
H3025 C3045 0.950 . S
H3026 C3047 0.950 . S
H3027 C3050 0.950 . S
H3028 C3051 0.950 . S
H3029 C3053 0.950 . S
H3030 C3054 0.950 . S
H3031 C3055 0.951 . S
H3032 C3057 0.951 . S
H3033 C3059 0.950 . S
H3034 C3060 0.950 . S
H3035 C3062 0.950 . S
H3036 C3065 0.950 . S
H3037 C3066 0.950 . S
H3038 C3068 0.950 . S
H3039 C3069 0.950 . S
C3040 H3022 0.951 . S
C3040 C3041 1.366 . S
C3040 C3042 1.388 . S
C3041 C3040 1.366 . S
C3041 C3045 1.385 . S
C3042 H3023 0.951 . S
C3042 C3040 1.388 . S
C3042 C3043 1.366 . S
C3043 C3042 1.366 . S
C3043 C3044 1.414 . S
C3043 C3046 1.499 . S
C3044 H3024 0.950 . S
C3044 C3043 1.414 . S
C3044 C3045 1.374 . S
C3045 H3025 0.950 . S
C3045 C3041 1.385 . S
C3045 C3044 1.374 . S
C3046 C3043 1.499 . S
C3046 C3047 1.373 . S
C3046 C3048 1.389 . S
C3047 H3026 0.950 . S
C3047 C3046 1.373 . S
C3047 C3063 1.377 . S
C3048 C3046 1.389 . S
C3048 C3049 1.524 . S
C3048 C3062 1.377 . S
C3049 C3048 1.524 . S
C3049 C3050 1.397 . S
C3049 C3054 1.363 . S
C3050 H3027 0.950 . S
C3050 C3049 1.397 . S
C3050 C3051 1.334 . S
C3051 H3028 0.950 . S
C3051 C3050 1.334 . S
C3051 C3052 1.287 . S
C3052 C3051 1.287 . S
C3052 C3053 1.524 . S
C3052 H3071 0.913 . S
C3053 H3029 0.950 . S
C3053 C3052 1.524 . S
C3053 C3054 1.415 . S
C3054 H3030 0.950 . S
C3054 C3049 1.363 . S
C3054 C3053 1.415 . S
C3055 H3031 0.951 . S
C3055 C3056 1.366 . S
C3055 C3057 1.388 . S
C3056 C3055 1.366 . S
C3056 C3060 1.385 . S
C3057 H3032 0.951 . S
C3057 C3055 1.388 . S
C3057 C3058 1.366 . S
C3058 C3057 1.366 . S
C3058 C3059 1.414 . S
C3058 C3061 1.499 . S
C3059 H3033 0.950 . S
C3059 C3058 1.414 . S
C3059 C3060 1.374 . S
C3060 H3034 0.950 . S
C3060 C3056 1.385 . S
C3060 C3059 1.374 . S
C3061 C3058 1.499 . S
C3061 C3062 1.373 . S
C3061 C3063 1.389 . S
C3062 H3035 0.950 . S
C3062 C3048 1.377 . S
C3062 C3061 1.373 . S
C3063 C3047 1.377 . S
C3063 C3061 1.389 . S
C3063 C3064 1.524 . S
C3064 C3063 1.524 . S
C3064 C3065 1.397 . S
C3064 C3069 1.363 . S
C3065 H3036 0.950 . S
C3065 C3064 1.397 . S
C3065 C3066 1.334 . S
C3066 H3037 0.950 . S
C3066 C3065 1.334 . S
C3066 C3067 1.287 . S
C3067 C3066 1.287 . S
C3067 C3068 1.524 . S
C3067 H3070 0.999 . S
C3068 H3038 0.950 . S
C3068 C3067 1.524 . S
C3068 C3069 1.415 . S
C3069 H3039 0.950 . S
C3069 C3064 1.363 . S
C3069 C3068 1.415 . S
H3070 C3067 0.999 . S
H3071 C3052 0.913 . S
H3072 C3090 0.951 . S
H3073 C3092 0.951 . S
H3074 C3094 0.950 . S
H3075 C3095 0.950 . S
H3076 C3097 0.950 . S
H3077 C3100 0.950 . S
H3078 C3101 0.950 . S
H3079 C3103 0.950 . S
H3080 C3104 0.950 . S
H3081 C3105 0.951 . S
H3082 C3107 0.951 . S
H3083 C3109 0.950 . S
H3084 C3110 0.950 . S
H3085 C3112 0.950 . S
H3086 C3115 0.950 . S
H3087 C3116 0.950 . S
H3088 C3118 0.950 . S
H3089 C3119 0.950 . S
C3090 H3072 0.951 . S
C3090 C3091 1.366 . S
C3090 C3092 1.388 . S
C3091 C3090 1.366 . S
C3091 C3095 1.385 . S
C3092 H3073 0.951 . S
C3092 C3090 1.388 . S
C3092 C3093 1.366 . S
C3093 C3092 1.366 . S
C3093 C3094 1.414 . S
C3093 C3096 1.499 . S
C3094 H3074 0.950 . S
C3094 C3093 1.414 . S
C3094 C3095 1.374 . S
C3095 H3075 0.950 . S
C3095 C3091 1.385 . S
C3095 C3094 1.374 . S
C3096 C3093 1.499 . S
C3096 C3097 1.373 . S
C3096 C3098 1.389 . S
C3097 H3076 0.950 . S
C3097 C3096 1.373 . S
C3097 C3113 1.377 . S
C3098 C3096 1.389 . S
C3098 C3099 1.524 . S
C3098 C3112 1.377 . S
C3099 C3098 1.524 . S
C3099 C3100 1.397 . S
C3099 C3104 1.363 . S
C3100 H3077 0.950 . S
C3100 C3099 1.397 . S
C3100 C3101 1.334 . S
C3101 H3078 0.950 . S
C3101 C3100 1.334 . S
C3101 C3102 1.287 . S
C3102 C3101 1.287 . S
C3102 C3103 1.524 . S
C3102 H3121 0.913 . S
C3103 H3079 0.950 . S
C3103 C3102 1.524 . S
C3103 C3104 1.415 . S
C3104 H3080 0.950 . S
C3104 C3099 1.363 . S
C3104 C3103 1.415 . S
C3105 H3081 0.951 . S
C3105 C3106 1.366 . S
C3105 C3107 1.388 . S
C3106 C3105 1.366 . S
C3106 C3110 1.385 . S
C3107 H3082 0.951 . S
C3107 C3105 1.388 . S
C3107 C3108 1.366 . S
C3108 C3107 1.366 . S
C3108 C3109 1.414 . S
C3108 C3111 1.499 . S
C3109 H3083 0.950 . S
C3109 C3108 1.414 . S
C3109 C3110 1.374 . S
C3110 H3084 0.950 . S
C3110 C3106 1.385 . S
C3110 C3109 1.374 . S
C3111 C3108 1.499 . S
C3111 C3112 1.373 . S
C3111 C3113 1.389 . S
C3112 H3085 0.950 . S
C3112 C3098 1.377 . S
C3112 C3111 1.373 . S
C3113 C3097 1.377 . S
C3113 C3111 1.389 . S
C3113 C3114 1.524 . S
C3114 C3113 1.524 . S
C3114 C3115 1.397 . S
C3114 C3119 1.363 . S
C3115 H3086 0.950 . S
C3115 C3114 1.397 . S
C3115 C3116 1.334 . S
C3116 H3087 0.950 . S
C3116 C3115 1.334 . S
C3116 C3117 1.287 . S
C3117 C3116 1.287 . S
C3117 C3118 1.524 . S
C3117 H3120 0.999 . S
C3118 H3088 0.950 . S
C3118 C3117 1.524 . S
C3118 C3119 1.415 . S
C3119 H3089 0.950 . S
C3119 C3114 1.363 . S
C3119 C3118 1.415 . S
H3120 C3117 0.999 . S
H3121 C3102 0.913 . S
H3122 C3140 0.951 . S
H3123 C3142 0.951 . S
H3124 C3144 0.950 . S
H3125 C3145 0.950 . S
H3126 C3147 0.950 . S
H3127 C3150 0.950 . S
H3128 C3151 0.950 . S
H3129 C3153 0.950 . S
H3130 C3154 0.950 . S
H3131 C3155 0.951 . S
H3132 C3157 0.951 . S
H3133 C3159 0.950 . S
H3134 C3160 0.950 . S
H3135 C3162 0.950 . S
H3136 C3165 0.950 . S
H3137 C3166 0.950 . S
H3138 C3168 0.950 . S
H3139 C3169 0.950 . S
C3140 H3122 0.951 . S
C3140 C3141 1.366 . S
C3140 C3142 1.388 . S
C3141 C3140 1.366 . S
C3141 C3145 1.385 . S
C3142 H3123 0.951 . S
C3142 C3140 1.388 . S
C3142 C3143 1.366 . S
C3143 C3142 1.366 . S
C3143 C3144 1.414 . S
C3143 C3146 1.499 . S
C3144 H3124 0.950 . S
C3144 C3143 1.414 . S
C3144 C3145 1.374 . S
C3145 H3125 0.950 . S
C3145 C3141 1.385 . S
C3145 C3144 1.374 . S
C3146 C3143 1.499 . S
C3146 C3147 1.373 . S
C3146 C3148 1.389 . S
C3147 H3126 0.950 . S
C3147 C3146 1.373 . S
C3147 C3163 1.377 . S
C3148 C3146 1.389 . S
C3148 C3149 1.524 . S
C3148 C3162 1.377 . S
C3149 C3148 1.524 . S
C3149 C3150 1.397 . S
C3149 C3154 1.363 . S
C3150 H3127 0.950 . S
C3150 C3149 1.397 . S
C3150 C3151 1.334 . S
C3151 H3128 0.950 . S
C3151 C3150 1.334 . S
C3151 C3152 1.287 . S
C3152 C3151 1.287 . S
C3152 C3153 1.524 . S
C3152 H3171 0.913 . S
C3153 H3129 0.950 . S
C3153 C3152 1.524 . S
C3153 C3154 1.415 . S
C3154 H3130 0.950 . S
C3154 C3149 1.363 . S
C3154 C3153 1.415 . S
C3155 H3131 0.951 . S
C3155 C3156 1.366 . S
C3155 C3157 1.388 . S
C3156 C3155 1.366 . S
C3156 C3160 1.385 . S
C3157 H3132 0.951 . S
C3157 C3155 1.388 . S
C3157 C3158 1.366 . S
C3158 C3157 1.366 . S
C3158 C3159 1.414 . S
C3158 C3161 1.499 . S
C3159 H3133 0.950 . S
C3159 C3158 1.414 . S
C3159 C3160 1.374 . S
C3160 H3134 0.950 . S
C3160 C3156 1.385 . S
C3160 C3159 1.374 . S
C3161 C3158 1.499 . S
C3161 C3162 1.373 . S
C3161 C3163 1.389 . S
C3162 H3135 0.950 . S
C3162 C3148 1.377 . S
C3162 C3161 1.373 . S
C3163 C3147 1.377 . S
C3163 C3161 1.389 . S
C3163 C3164 1.524 . S
C3164 C3163 1.524 . S
C3164 C3165 1.397 . S
C3164 C3169 1.363 . S
C3165 H3136 0.950 . S
C3165 C3164 1.397 . S
C3165 C3166 1.334 . S
C3166 H3137 0.950 . S
C3166 C3165 1.334 . S
C3166 C3167 1.287 . S
C3167 C3166 1.287 . S
C3167 C3168 1.524 . S
C3167 H3170 0.999 . S
C3168 H3138 0.950 . S
C3168 C3167 1.524 . S
C3168 C3169 1.415 . S
C3169 H3139 0.950 . S
C3169 C3164 1.363 . S
C3169 C3168 1.415 . S
H3170 C3167 0.999 . S
H3171 C3152 0.913 . S
H3172 C3190 0.951 . S
H3173 C3192 0.951 . S
H3174 C3194 0.950 . S
H3175 C3195 0.950 . S
H3176 C3197 0.950 . S
H3177 C3200 0.950 . S
H3178 C3201 0.950 . S
H3179 C3203 0.950 . S
H3180 C3204 0.950 . S
H3181 C3205 0.951 . S
H3182 C3207 0.951 . S
H3183 C3209 0.950 . S
H3184 C3210 0.950 . S
H3185 C3212 0.950 . S
H3186 C3215 0.950 . S
H3187 C3216 0.950 . S
H3188 C3218 0.950 . S
H3189 C3219 0.950 . S
C3190 H3172 0.951 . S
C3190 C3191 1.366 . S
C3190 C3192 1.388 . S
C3191 C3190 1.366 . S
C3191 C3195 1.385 . S
C3192 H3173 0.951 . S
C3192 C3190 1.388 . S
C3192 C3193 1.366 . S
C3193 C3192 1.366 . S
C3193 C3194 1.414 . S
C3193 C3196 1.499 . S
C3194 H3174 0.950 . S
C3194 C3193 1.414 . S
C3194 C3195 1.374 . S
C3195 H3175 0.950 . S
C3195 C3191 1.385 . S
C3195 C3194 1.374 . S
C3196 C3193 1.499 . S
C3196 C3197 1.373 . S
C3196 C3198 1.389 . S
C3197 H3176 0.950 . S
C3197 C3196 1.373 . S
C3197 C3213 1.377 . S
C3198 C3196 1.389 . S
C3198 C3199 1.524 . S
C3198 C3212 1.377 . S
C3199 C3198 1.524 . S
C3199 C3200 1.397 . S
C3199 C3204 1.363 . S
C3200 H3177 0.950 . S
C3200 C3199 1.397 . S
C3200 C3201 1.334 . S
C3201 H3178 0.950 . S
C3201 C3200 1.334 . S
C3201 C3202 1.287 . S
C3202 C3201 1.287 . S
C3202 C3203 1.524 . S
C3202 H3221 0.913 . S
C3203 H3179 0.950 . S
C3203 C3202 1.524 . S
C3203 C3204 1.415 . S
C3204 H3180 0.950 . S
C3204 C3199 1.363 . S
C3204 C3203 1.415 . S
C3205 H3181 0.951 . S
C3205 C3206 1.366 . S
C3205 C3207 1.388 . S
C3206 C3205 1.366 . S
C3206 C3210 1.385 . S
C3207 H3182 0.951 . S
C3207 C3205 1.388 . S
C3207 C3208 1.366 . S
C3208 C3207 1.366 . S
C3208 C3209 1.414 . S
C3208 C3211 1.499 . S
C3209 H3183 0.950 . S
C3209 C3208 1.414 . S
C3209 C3210 1.374 . S
C3210 H3184 0.950 . S
C3210 C3206 1.385 . S
C3210 C3209 1.374 . S
C3211 C3208 1.499 . S
C3211 C3212 1.373 . S
C3211 C3213 1.389 . S
C3212 H3185 0.950 . S
C3212 C3198 1.377 . S
C3212 C3211 1.373 . S
C3213 C3197 1.377 . S
C3213 C3211 1.389 . S
C3213 C3214 1.524 . S
C3214 C3213 1.524 . S
C3214 C3215 1.397 . S
C3214 C3219 1.363 . S
C3215 H3186 0.950 . S
C3215 C3214 1.397 . S
C3215 C3216 1.334 . S
C3216 H3187 0.950 . S
C3216 C3215 1.334 . S
C3216 C3217 1.287 . S
C3217 C3216 1.287 . S
C3217 C3218 1.524 . S
C3217 H3220 0.999 . S
C3218 H3188 0.950 . S
C3218 C3217 1.524 . S
C3218 C3219 1.415 . S
C3219 H3189 0.950 . S
C3219 C3214 1.363 . S
C3219 C3218 1.415 . S
H3220 C3217 0.999 . S
H3221 C3202 0.913 . S
H3222 C3240 0.951 . S
H3223 C3242 0.951 . S
H3224 C3244 0.950 . S
H3225 C3245 0.950 . S
H3226 C3247 0.950 . S
H3227 C3250 0.950 . S
H3228 C3251 0.950 . S
H3229 C3253 0.950 . S
H3230 C3254 0.950 . S
H3231 C3255 0.951 . S
H3232 C3257 0.951 . S
H3233 C3259 0.950 . S
H3234 C3260 0.950 . S
H3235 C3262 0.950 . S
H3236 C3265 0.950 . S
H3237 C3266 0.950 . S
H3238 C3268 0.950 . S
H3239 C3269 0.950 . S
C3240 H3222 0.951 . S
C3240 C3241 1.366 . S
C3240 C3242 1.388 . S
C3241 C3240 1.366 . S
C3241 C3245 1.385 . S
C3242 H3223 0.951 . S
C3242 C3240 1.388 . S
C3242 C3243 1.366 . S
C3243 C3242 1.366 . S
C3243 C3244 1.414 . S
C3243 C3246 1.503 1_655 S
C3244 H3224 0.950 . S
C3244 C3243 1.414 . S
C3244 C3245 1.374 . S
C3245 H3225 0.950 . S
C3245 C3241 1.385 . S
C3245 C3244 1.374 . S
C3246 C3243 1.503 1_455 S
C3246 C3247 1.371 . S
C3246 C3248 1.387 . S
C3247 H3226 0.950 . S
C3247 C3246 1.371 . S
C3247 C3263 1.377 . S
C3248 C3246 1.387 . S
C3248 C3249 1.524 . S
C3248 C3262 1.377 . S
C3249 C3248 1.524 . S
C3249 C3250 1.397 1_455 S
C3249 C3254 1.363 . S
C3250 H3227 0.950 . S
C3250 C3249 1.397 1_655 S
C3250 C3251 1.334 . S
C3251 H3228 0.950 . S
C3251 C3250 1.334 . S
C3251 C3252 1.287 . S
C3252 C3251 1.287 . S
C3252 C3253 1.524 1_655 S
C3252 H3271 0.913 . S
C3253 H3229 0.950 . S
C3253 C3252 1.524 1_455 S
C3253 C3254 1.415 . S
C3254 H3230 0.950 . S
C3254 C3249 1.363 . S
C3254 C3253 1.415 . S
C3255 H3231 0.951 . S
C3255 C3256 1.366 . S
C3255 C3257 1.388 . S
C3256 C3255 1.366 . S
C3256 C3260 1.385 . S
C3257 H3232 0.951 . S
C3257 C3255 1.388 . S
C3257 C3258 1.366 . S
C3258 C3257 1.366 . S
C3258 C3259 1.414 . S
C3258 C3261 1.499 . S
C3259 H3233 0.950 . S
C3259 C3258 1.414 . S
C3259 C3260 1.374 . S
C3260 H3234 0.950 . S
C3260 C3256 1.385 . S
C3260 C3259 1.374 . S
C3261 C3258 1.499 . S
C3261 C3262 1.373 . S
C3261 C3263 1.389 . S
C3262 H3235 0.950 . S
C3262 C3248 1.377 . S
C3262 C3261 1.373 . S
C3263 C3247 1.377 . S
C3263 C3261 1.389 . S
C3263 C3264 1.524 . S
C3264 C3263 1.524 . S
C3264 C3265 1.397 . S
C3264 C3269 1.363 . S
C3265 H3236 0.950 . S
C3265 C3264 1.397 . S
C3265 C3266 1.334 . S
C3266 H3237 0.950 . S
C3266 C3265 1.334 . S
C3266 C3267 1.287 . S
C3267 C3266 1.287 . S
C3267 C3268 1.524 . S
C3267 H3270 0.999 . S
C3268 H3238 0.950 . S
C3268 C3267 1.524 . S
C3268 C3269 1.415 . S
C3269 H3239 0.950 . S
C3269 C3264 1.363 . S
C3269 C3268 1.415 . S
H3270 C3267 0.999 . S
H3271 C3252 0.913 . S
H3272 C3290 0.951 . S
H3273 C3292 0.951 . S
H3274 C3294 0.950 . S
H3275 C3295 0.950 . S
H3276 C3297 0.950 . S
H3277 C3300 0.950 . S
H3278 C3301 0.950 . S
H3279 C3303 0.950 . S
H3280 C3304 0.950 . S
H3281 C3305 0.951 . S
H3282 C3307 0.951 . S
H3283 C3309 0.950 . S
H3284 C3310 0.950 . S
H3285 C3312 0.950 . S
H3286 C3315 0.950 . S
H3287 C3316 0.950 . S
H3288 C3318 0.950 . S
H3289 C3319 0.950 . S
C3290 H3272 0.951 . S
C3290 C3291 1.366 . S
C3290 C3292 1.388 . S
C3291 C3290 1.366 . S
C3291 C3295 1.385 . S
C3292 H3273 0.951 . S
C3292 C3290 1.388 . S
C3292 C3293 1.366 . S
C3293 C3292 1.366 . S
C3293 C3294 1.414 . S
C3293 C3296 1.499 . S
C3294 H3274 0.950 . S
C3294 C3293 1.414 . S
C3294 C3295 1.374 . S
C3295 H3275 0.950 . S
C3295 C3291 1.385 . S
C3295 C3294 1.374 . S
C3296 C3293 1.499 . S
C3296 C3297 1.373 . S
C3296 C3298 1.389 . S
C3297 H3276 0.950 . S
C3297 C3296 1.373 . S
C3297 C3313 1.377 . S
C3298 C3296 1.389 . S
C3298 C3299 1.524 . S
C3298 C3312 1.377 . S
C3299 C3298 1.524 . S
C3299 C3300 1.397 . S
C3299 C3304 1.363 . S
C3300 H3277 0.950 . S
C3300 C3299 1.397 . S
C3300 C3301 1.334 . S
C3301 H3278 0.950 . S
C3301 C3300 1.334 . S
C3301 C3302 1.287 . S
C3302 C3301 1.287 . S
C3302 C3303 1.524 . S
C3302 H3321 0.913 . S
C3303 H3279 0.950 . S
C3303 C3302 1.524 . S
C3303 C3304 1.415 . S
C3304 H3280 0.950 . S
C3304 C3299 1.363 . S
C3304 C3303 1.415 . S
C3305 H3281 0.951 . S
C3305 C3306 1.366 . S
C3305 C3307 1.388 . S
C3306 C3305 1.366 . S
C3306 C3310 1.385 . S
C3307 H3282 0.951 . S
C3307 C3305 1.388 . S
C3307 C3308 1.366 . S
C3308 C3307 1.366 . S
C3308 C3309 1.414 . S
C3308 C3311 1.499 . S
C3309 H3283 0.950 . S
C3309 C3308 1.414 . S
C3309 C3310 1.374 . S
C3310 H3284 0.950 . S
C3310 C3306 1.385 . S
C3310 C3309 1.374 . S
C3311 C3308 1.499 . S
C3311 C3312 1.373 . S
C3311 C3313 1.389 . S
C3312 H3285 0.950 . S
C3312 C3298 1.377 . S
C3312 C3311 1.373 . S
C3313 C3297 1.377 . S
C3313 C3311 1.389 . S
C3313 C3314 1.524 . S
C3314 C3313 1.524 . S
C3314 C3315 1.397 . S
C3314 C3319 1.363 . S
C3315 H3286 0.950 . S
C3315 C3314 1.397 . S
C3315 C3316 1.334 . S
C3316 H3287 0.950 . S
C3316 C3315 1.334 . S
C3316 C3317 1.287 . S
C3317 C3316 1.287 . S
C3317 C3318 1.524 . S
C3317 H3320 0.999 . S
C3318 H3288 0.950 . S
C3318 C3317 1.524 . S
C3318 C3319 1.415 . S
C3319 H3289 0.950 . S
C3319 C3314 1.363 . S
C3319 C3318 1.415 . S
H3320 C3317 0.999 . S
H3321 C3302 0.913 . S
H3322 C3340 0.951 . S
H3323 C3342 0.951 . S
H3324 C3344 0.950 . S
H3325 C3345 0.950 . S
H3326 C3347 0.950 . S
H3327 C3350 0.950 . S
H3328 C3351 0.950 . S
H3329 C3353 0.950 . S
H3330 C3354 0.950 . S
H3331 C3355 0.951 . S
H3332 C3357 0.951 . S
H3333 C3359 0.950 . S
H3334 C3360 0.950 . S
H3335 C3362 0.950 . S
H3336 C3365 0.950 . S
H3337 C3366 0.950 . S
H3338 C3368 0.950 . S
H3339 C3369 0.950 . S
C3340 H3322 0.951 . S
C3340 C3341 1.366 . S
C3340 C3342 1.388 . S
C3341 C3340 1.366 . S
C3341 C3345 1.385 . S
C3342 H3323 0.951 . S
C3342 C3340 1.388 . S
C3342 C3343 1.366 . S
C3343 C3342 1.366 . S
C3343 C3344 1.414 . S
C3343 C3346 1.499 . S
C3344 H3324 0.950 . S
C3344 C3343 1.414 . S
C3344 C3345 1.374 . S
C3345 H3325 0.950 . S
C3345 C3341 1.385 . S
C3345 C3344 1.374 . S
C3346 C3343 1.499 . S
C3346 C3347 1.373 . S
C3346 C3348 1.389 . S
C3347 H3326 0.950 . S
C3347 C3346 1.373 . S
C3347 C3363 1.377 . S
C3348 C3346 1.389 . S
C3348 C3349 1.524 . S
C3348 C3362 1.377 . S
C3349 C3348 1.524 . S
C3349 C3350 1.397 . S
C3349 C3354 1.363 . S
C3350 H3327 0.950 . S
C3350 C3349 1.397 . S
C3350 C3351 1.334 . S
C3351 H3328 0.950 . S
C3351 C3350 1.334 . S
C3351 C3352 1.287 . S
C3352 C3351 1.287 . S
C3352 C3353 1.524 . S
C3352 H3371 0.913 . S
C3353 H3329 0.950 . S
C3353 C3352 1.524 . S
C3353 C3354 1.415 . S
C3354 H3330 0.950 . S
C3354 C3349 1.363 . S
C3354 C3353 1.415 . S
C3355 H3331 0.951 . S
C3355 C3356 1.366 . S
C3355 C3357 1.388 . S
C3356 C3355 1.366 . S
C3356 C3360 1.385 . S
C3357 H3332 0.951 . S
C3357 C3355 1.388 . S
C3357 C3358 1.366 . S
C3358 C3357 1.366 . S
C3358 C3359 1.414 . S
C3358 C3361 1.499 1_655 S
C3359 H3333 0.950 . S
C3359 C3358 1.414 . S
C3359 C3360 1.374 . S
C3360 H3334 0.950 . S
C3360 C3356 1.385 . S
C3360 C3359 1.374 . S
C3361 C3358 1.499 1_455 S
C3361 C3362 1.373 . S
C3361 C3363 1.389 . S
C3362 H3335 0.950 . S
C3362 C3348 1.377 . S
C3362 C3361 1.373 . S
C3363 C3347 1.377 . S
C3363 C3361 1.389 . S
C3363 C3364 1.524 . S
C3364 C3363 1.524 . S
C3364 C3365 1.397 1_455 S
C3364 C3369 1.363 . S
C3365 H3336 0.950 . S
C3365 C3364 1.397 1_655 S
C3365 C3366 1.334 . S
C3366 H3337 0.950 . S
C3366 C3365 1.334 . S
C3366 C3367 1.287 . S
C3367 C3366 1.287 . S
C3367 C3368 1.524 1_655 S
C3367 H3370 0.999 . S
C3368 H3338 0.950 . S
C3368 C3367 1.524 1_455 S
C3368 C3369 1.415 . S
C3369 H3339 0.950 . S
C3369 C3364 1.363 . S
C3369 C3368 1.415 . S
H3370 C3367 0.999 . S
H3371 C3352 0.913 . S
H3372 C3390 0.951 . S
H3373 C3392 0.951 . S
H3374 C3394 0.950 . S
H3375 C3395 0.950 . S
H3376 C3397 0.950 . S
H3377 C3400 0.950 . S
H3378 C3401 0.950 . S
H3379 C3403 0.950 . S
H3380 C3404 0.950 . S
H3381 C3405 0.951 . S
H3382 C3407 0.951 . S
H3383 C3409 0.950 . S
H3384 C3410 0.950 . S
H3385 C3412 0.950 . S
H3386 C3415 0.950 . S
H3387 C3416 0.950 . S
H3388 C3418 0.950 . S
H3389 C3419 0.950 . S
C3390 H3372 0.951 . S
C3390 C3391 1.366 . S
C3390 C3392 1.388 . S
C3391 C3390 1.366 . S
C3391 C3395 1.385 . S
C3392 H3373 0.951 . S
C3392 C3390 1.388 . S
C3392 C3393 1.366 . S
C3393 C3392 1.366 . S
C3393 C3394 1.414 . S
C3393 C3396 1.499 . S
C3394 H3374 0.950 . S
C3394 C3393 1.414 . S
C3394 C3395 1.374 . S
C3395 H3375 0.950 . S
C3395 C3391 1.385 . S
C3395 C3394 1.374 . S
C3396 C3393 1.499 . S
C3396 C3397 1.373 . S
C3396 C3398 1.389 . S
C3397 H3376 0.950 . S
C3397 C3396 1.373 . S
C3397 C3413 1.377 . S
C3398 C3396 1.389 . S
C3398 C3399 1.524 . S
C3398 C3412 1.377 . S
C3399 C3398 1.524 . S
C3399 C3400 1.397 . S
C3399 C3404 1.363 . S
C3400 H3377 0.950 . S
C3400 C3399 1.397 . S
C3400 C3401 1.334 . S
C3401 H3378 0.950 . S
C3401 C3400 1.334 . S
C3401 C3402 1.287 . S
C3402 C3401 1.287 . S
C3402 C3403 1.524 . S
C3402 H3421 0.913 . S
C3403 H3379 0.950 . S
C3403 C3402 1.524 . S
C3403 C3404 1.415 . S
C3404 H3380 0.950 . S
C3404 C3399 1.363 . S
C3404 C3403 1.415 . S
C3405 H3381 0.951 . S
C3405 C3406 1.366 . S
C3405 C3407 1.388 . S
C3406 C3405 1.366 . S
C3406 C3410 1.385 . S
C3407 H3382 0.951 . S
C3407 C3405 1.388 . S
C3407 C3408 1.366 . S
C3408 C3407 1.366 . S
C3408 C3409 1.414 . S
C3408 C3411 1.499 . S
C3409 H3383 0.950 . S
C3409 C3408 1.414 . S
C3409 C3410 1.374 . S
C3410 H3384 0.950 . S
C3410 C3406 1.385 . S
C3410 C3409 1.374 . S
C3411 C3408 1.499 . S
C3411 C3412 1.373 . S
C3411 C3413 1.389 . S
C3412 H3385 0.950 . S
C3412 C3398 1.377 . S
C3412 C3411 1.373 . S
C3413 C3397 1.377 . S
C3413 C3411 1.389 . S
C3413 C3414 1.524 . S
C3414 C3413 1.524 . S
C3414 C3415 1.397 . S
C3414 C3419 1.363 . S
C3415 H3386 0.950 . S
C3415 C3414 1.397 . S
C3415 C3416 1.334 . S
C3416 H3387 0.950 . S
C3416 C3415 1.334 . S
C3416 C3417 1.287 . S
C3417 C3416 1.287 . S
C3417 C3418 1.524 . S
C3417 H3420 0.999 . S
C3418 H3388 0.950 . S
C3418 C3417 1.524 . S
C3418 C3419 1.415 . S
C3419 H3389 0.950 . S
C3419 C3414 1.363 . S
C3419 C3418 1.415 . S
H3420 C3417 0.999 . S
H3421 C3402 0.913 . S
H3422 C3440 0.951 . S
H3423 C3442 0.951 . S
H3424 C3444 0.950 . S
H3425 C3445 0.950 . S
H3426 C3447 0.950 . S
H3427 C3450 0.950 . S
H3428 C3451 0.950 . S
H3429 C3453 0.950 . S
H3430 C3454 0.950 . S
H3431 C3455 0.951 . S
H3432 C3457 0.951 . S
H3433 C3459 0.950 . S
H3434 C3460 0.950 . S
H3435 C3462 0.950 . S
H3436 C3465 0.950 . S
H3437 C3466 0.950 . S
H3438 C3468 0.950 . S
H3439 C3469 0.950 . S
C3440 H3422 0.951 . S
C3440 C3441 1.366 . S
C3440 C3442 1.388 . S
C3441 C3440 1.366 . S
C3441 C3445 1.385 . S
C3442 H3423 0.951 . S
C3442 C3440 1.388 . S
C3442 C3443 1.366 . S
C3443 C3442 1.366 . S
C3443 C3444 1.414 . S
C3443 C3446 1.499 . S
C3444 H3424 0.950 . S
C3444 C3443 1.414 . S
C3444 C3445 1.374 . S
C3445 H3425 0.950 . S
C3445 C3441 1.385 . S
C3445 C3444 1.374 . S
C3446 C3443 1.499 . S
C3446 C3447 1.373 . S
C3446 C3448 1.389 . S
C3447 H3426 0.950 . S
C3447 C3446 1.373 . S
C3447 C3463 1.377 . S
C3448 C3446 1.389 . S
C3448 C3449 1.524 . S
C3448 C3462 1.377 . S
C3449 C3448 1.524 . S
C3449 C3450 1.397 . S
C3449 C3454 1.363 . S
C3450 H3427 0.950 . S
C3450 C3449 1.397 . S
C3450 C3451 1.334 . S
C3451 H3428 0.950 . S
C3451 C3450 1.334 . S
C3451 C3452 1.287 . S
C3452 C3451 1.287 . S
C3452 C3453 1.524 . S
C3452 H3471 0.913 . S
C3453 H3429 0.950 . S
C3453 C3452 1.524 . S
C3453 C3454 1.415 . S
C3454 H3430 0.950 . S
C3454 C3449 1.363 . S
C3454 C3453 1.415 . S
C3455 H3431 0.951 . S
C3455 C3456 1.366 . S
C3455 C3457 1.388 . S
C3456 C3455 1.366 . S
C3456 C3460 1.385 . S
C3457 H3432 0.951 . S
C3457 C3455 1.388 . S
C3457 C3458 1.366 . S
C3458 C3457 1.366 . S
C3458 C3459 1.414 . S
C3458 C3461 1.499 . S
C3459 H3433 0.950 . S
C3459 C3458 1.414 . S
C3459 C3460 1.374 . S
C3460 H3434 0.950 . S
C3460 C3456 1.385 . S
C3460 C3459 1.374 . S
C3461 C3458 1.499 . S
C3461 C3462 1.373 . S
C3461 C3463 1.389 . S
C3462 H3435 0.950 . S
C3462 C3448 1.377 . S
C3462 C3461 1.373 . S
C3463 C3447 1.377 . S
C3463 C3461 1.389 . S
C3463 C3464 1.524 . S
C3464 C3463 1.524 . S
C3464 C3465 1.397 . S
C3464 C3469 1.363 . S
C3465 H3436 0.950 . S
C3465 C3464 1.397 . S
C3465 C3466 1.334 . S
C3466 H3437 0.950 . S
C3466 C3465 1.334 . S
C3466 C3467 1.287 . S
C3467 C3466 1.287 . S
C3467 C3468 1.524 . S
C3467 H3470 0.999 . S
C3468 H3438 0.950 . S
C3468 C3467 1.524 . S
C3468 C3469 1.415 . S
C3469 H3439 0.950 . S
C3469 C3464 1.363 . S
C3469 C3468 1.415 . S
H3470 C3467 0.999 . S
H3471 C3452 0.913 . S
H3472 C3490 0.951 . S
H3473 C3492 0.951 . S
H3474 C3494 0.950 . S
H3475 C3495 0.950 . S
H3476 C3497 0.950 . S
H3477 C3500 0.950 . S
H3478 C3501 0.950 . S
H3479 C3503 0.950 . S
H3480 C3504 0.950 . S
H3481 C3505 0.951 . S
H3482 C3507 0.951 . S
H3483 C3509 0.950 . S
H3484 C3510 0.950 . S
H3485 C3512 0.950 . S
H3486 C3515 0.950 . S
H3487 C3516 0.950 . S
H3488 C3518 0.950 . S
H3489 C3519 0.950 . S
C3490 H3472 0.951 . S
C3490 C3491 1.366 . S
C3490 C3492 1.388 . S
C3491 C3490 1.366 . S
C3491 C3495 1.385 . S
C3492 H3473 0.951 . S
C3492 C3490 1.388 . S
C3492 C3493 1.366 . S
C3493 C3492 1.366 . S
C3493 C3494 1.414 . S
C3493 C3496 1.499 . S
C3494 H3474 0.950 . S
C3494 C3493 1.414 . S
C3494 C3495 1.374 . S
C3495 H3475 0.950 . S
C3495 C3491 1.385 . S
C3495 C3494 1.374 . S
C3496 C3493 1.499 . S
C3496 C3497 1.373 . S
C3496 C3498 1.389 . S
C3497 H3476 0.950 . S
C3497 C3496 1.373 . S
C3497 C3513 1.377 . S
C3498 C3496 1.389 . S
C3498 C3499 1.524 . S
C3498 C3512 1.377 . S
C3499 C3498 1.524 . S
C3499 C3500 1.397 . S
C3499 C3504 1.363 . S
C3500 H3477 0.950 . S
C3500 C3499 1.397 . S
C3500 C3501 1.334 . S
C3501 H3478 0.950 . S
C3501 C3500 1.334 . S
C3501 C3502 1.287 . S
C3502 C3501 1.287 . S
C3502 C3503 1.524 . S
C3502 H3521 0.913 . S
C3503 H3479 0.950 . S
C3503 C3502 1.524 . S
C3503 C3504 1.415 . S
C3504 H3480 0.950 . S
C3504 C3499 1.363 . S
C3504 C3503 1.415 . S
C3505 H3481 0.951 . S
C3505 C3506 1.366 . S
C3505 C3507 1.388 . S
C3506 C3505 1.366 . S
C3506 C3510 1.385 . S
C3507 H3482 0.951 . S
C3507 C3505 1.388 . S
C3507 C3508 1.366 . S
C3508 C3507 1.366 . S
C3508 C3509 1.414 . S
C3508 C3511 1.499 . S
C3509 H3483 0.950 . S
C3509 C3508 1.414 . S
C3509 C3510 1.374 . S
C3510 H3484 0.950 . S
C3510 C3506 1.385 . S
C3510 C3509 1.374 . S
C3511 C3508 1.499 . S
C3511 C3512 1.373 . S
C3511 C3513 1.389 . S
C3512 H3485 0.950 . S
C3512 C3498 1.377 . S
C3512 C3511 1.373 . S
C3513 C3497 1.377 . S
C3513 C3511 1.389 . S
C3513 C3514 1.524 . S
C3514 C3513 1.524 . S
C3514 C3515 1.397 . S
C3514 C3519 1.363 . S
C3515 H3486 0.950 . S
C3515 C3514 1.397 . S
C3515 C3516 1.334 . S
C3516 H3487 0.950 . S
C3516 C3515 1.334 . S
C3516 C3517 1.287 . S
C3517 C3516 1.287 . S
C3517 C3518 1.524 . S
C3517 H3520 0.999 . S
C3518 H3488 0.950 . S
C3518 C3517 1.524 . S
C3518 C3519 1.415 . S
C3519 H3489 0.950 . S
C3519 C3514 1.363 . S
C3519 C3518 1.415 . S
H3520 C3517 0.999 . S
H3521 C3502 0.913 . S
H3522 C3540 0.951 . S
H3523 C3542 0.951 . S
H3524 C3544 0.950 . S
H3525 C3545 0.950 . S
H3526 C3547 0.950 . S
H3527 C3550 0.950 . S
H3528 C3551 0.950 . S
H3529 C3553 0.950 . S
H3530 C3554 0.950 . S
H3531 C3555 0.951 . S
H3532 C3557 0.951 . S
H3533 C3559 0.950 . S
H3534 C3560 0.950 . S
H3535 C3562 0.950 1_556 S
H3536 C3565 0.950 1_556 S
H3537 C3566 0.941 1_556 S
H3538 C3568 0.950 . S
H3539 C3569 0.950 . S
C3540 H3522 0.951 . S
C3540 C3541 1.366 . S
C3540 C3542 1.388 . S
C3541 C3540 1.366 . S
C3541 C3545 1.385 . S
C3542 H3523 0.951 . S
C3542 C3540 1.388 . S
C3542 C3543 1.366 . S
C3543 C3542 1.366 . S
C3543 C3544 1.414 . S
C3543 C3546 1.499 . S
C3544 H3524 0.950 . S
C3544 C3543 1.414 . S
C3544 C3545 1.374 . S
C3545 H3525 0.950 . S
C3545 C3541 1.385 . S
C3545 C3544 1.374 . S
C3546 C3543 1.499 . S
C3546 C3547 1.373 . S
C3546 C3548 1.389 . S
C3547 H3526 0.950 . S
C3547 C3546 1.373 . S
C3547 C3563 1.377 . S
C3548 C3546 1.389 . S
C3548 C3549 1.524 . S
C3548 C3562 1.377 . S
C3549 C3548 1.524 . S
C3549 C3550 1.397 . S
C3549 C3554 1.363 . S
C3550 H3527 0.950 . S
C3550 C3549 1.397 . S
C3550 C3551 1.334 . S
C3551 H3528 0.950 . S
C3551 C3550 1.334 . S
C3551 C3552 1.287 . S
C3552 C3551 1.287 . S
C3552 C3553 1.524 . S
C3552 H3571 0.913 . S
C3553 H3529 0.950 . S
C3553 C3552 1.524 . S
C3553 C3554 1.415 . S
C3554 H3530 0.950 . S
C3554 C3549 1.363 . S
C3554 C3553 1.415 . S
C3555 H3531 0.951 . S
C3555 C3556 1.366 . S
C3555 C3557 1.388 . S
C3556 C3555 1.366 . S
C3556 C3560 1.385 . S
C3557 H3532 0.951 . S
C3557 C3555 1.388 . S
C3557 C3558 1.366 . S
C3558 C3557 1.366 . S
C3558 C3559 1.414 . S
C3558 C3561 1.499 1_556 S
C3559 H3533 0.950 . S
C3559 C3558 1.414 . S
C3559 C3560 1.374 . S
C3560 H3534 0.950 . S
C3560 C3556 1.385 . S
C3560 C3559 1.374 . S
C3561 C3558 1.499 1_554 S
C3561 C3562 1.373 . S
C3561 C3563 1.389 . S
C3562 H3535 0.950 1_554 S
C3562 C3548 1.377 . S
C3562 C3561 1.373 . S
C3563 C3547 1.377 . S
C3563 C3561 1.389 . S
C3563 C3564 1.524 . S
C3564 C3563 1.524 . S
C3564 C3565 1.397 . S
C3564 C3569 1.363 . S
C3565 H3536 0.950 1_554 S
C3565 C3564 1.397 . S
C3565 C3566 1.337 . S
C3566 H3537 0.941 1_554 S
C3566 C3565 1.337 . S
C3566 C3567 1.293 . S
C3567 C3566 1.293 . S
C3567 C3568 1.524 . S
C3567 H3570 0.999 . S
C3568 H3538 0.950 . S
C3568 C3567 1.524 . S
C3568 C3569 1.415 . S
C3569 H3539 0.950 . S
C3569 C3564 1.363 . S
C3569 C3568 1.415 . S
H3570 C3567 0.999 . S
H3571 C3552 0.913 . S
H3572 C3590 0.951 . S
H3573 C3592 0.951 . S
H3574 C3594 0.950 . S
H3575 C3595 0.950 . S
H3576 C3597 0.950 . S
H3577 C3600 0.950 . S
H3578 C3601 0.950 . S
H3579 C3603 0.950 . S
H3580 C3604 0.950 . S
H3581 C3605 0.951 . S
H3582 C3607 0.951 . S
H3583 C3609 0.950 . S
H3584 C3610 0.950 . S
H3585 C3612 0.950 . S
H3586 C3615 0.950 . S
H3587 C3616 0.950 . S
H3588 C3618 0.950 . S
H3589 C3619 0.950 . S
C3590 H3572 0.951 . S
C3590 C3591 1.366 . S
C3590 C3592 1.388 . S
C3591 C3590 1.366 . S
C3591 C3595 1.385 . S
C3592 H3573 0.951 . S
C3592 C3590 1.388 . S
C3592 C3593 1.366 . S
C3593 C3592 1.366 . S
C3593 C3594 1.414 . S
C3593 C3596 1.499 . S
C3594 H3574 0.950 . S
C3594 C3593 1.414 . S
C3594 C3595 1.374 . S
C3595 H3575 0.950 . S
C3595 C3591 1.385 . S
C3595 C3594 1.374 . S
C3596 C3593 1.499 . S
C3596 C3597 1.373 . S
C3596 C3598 1.389 . S
C3597 H3576 0.950 . S
C3597 C3596 1.373 . S
C3597 C3613 1.377 . S
C3598 C3596 1.389 . S
C3598 C3599 1.524 . S
C3598 C3612 1.377 . S
C3599 C3598 1.524 . S
C3599 C3600 1.397 . S
C3599 C3604 1.363 . S
C3600 H3577 0.950 . S
C3600 C3599 1.397 . S
C3600 C3601 1.334 . S
C3601 H3578 0.950 . S
C3601 C3600 1.334 . S
C3601 C3602 1.287 . S
C3602 C3601 1.287 . S
C3602 C3603 1.524 . S
C3602 H3621 0.913 . S
C3603 H3579 0.950 . S
C3603 C3602 1.524 . S
C3603 C3604 1.415 . S
C3604 H3580 0.950 . S
C3604 C3599 1.363 . S
C3604 C3603 1.415 . S
C3605 H3581 0.951 . S
C3605 C3606 1.366 . S
C3605 C3607 1.388 . S
C3606 C3605 1.366 . S
C3606 C3610 1.385 . S
C3607 H3582 0.951 . S
C3607 C3605 1.388 . S
C3607 C3608 1.366 . S
C3608 C3607 1.366 . S
C3608 C3609 1.414 . S
C3608 C3611 1.499 . S
C3609 H3583 0.950 . S
C3609 C3608 1.414 . S
C3609 C3610 1.374 . S
C3610 H3584 0.950 . S
C3610 C3606 1.385 . S
C3610 C3609 1.374 . S
C3611 C3608 1.499 . S
C3611 C3612 1.373 . S
C3611 C3613 1.389 . S
C3612 H3585 0.950 . S
C3612 C3598 1.377 . S
C3612 C3611 1.373 . S
C3613 C3597 1.377 . S
C3613 C3611 1.389 . S
C3613 C3614 1.524 . S
C3614 C3613 1.524 . S
C3614 C3615 1.397 . S
C3614 C3619 1.363 . S
C3615 H3586 0.950 . S
C3615 C3614 1.397 . S
C3615 C3616 1.334 . S
C3616 H3587 0.950 . S
C3616 C3615 1.334 . S
C3616 C3617 1.287 . S
C3617 C3616 1.287 . S
C3617 C3618 1.524 . S
C3617 H3620 0.999 . S
C3618 H3588 0.950 . S
C3618 C3617 1.524 . S
C3618 C3619 1.415 . S
C3619 H3589 0.950 . S
C3619 C3614 1.363 . S
C3619 C3618 1.415 . S
H3620 C3617 0.999 . S
H3621 C3602 0.913 . S
H3622 C3640 0.951 . S
H3623 C3642 0.951 . S
H3624 C3644 0.950 . S
H3625 C3645 0.950 . S
H3626 C3647 0.950 . S
H3627 C3650 0.950 . S
H3628 C3651 0.950 . S
H3629 C3653 0.950 . S
H3630 C3654 0.950 . S
H3631 C3655 0.951 . S
H3632 C3657 0.951 . S
H3633 C3659 0.950 . S
H3634 C3660 0.950 . S
H3635 C3662 0.950 . S
H3636 C3665 0.950 . S
H3637 C3666 0.950 . S
H3638 C3668 0.950 . S
H3639 C3669 0.950 . S
C3640 H3622 0.951 . S
C3640 C3641 1.366 . S
C3640 C3642 1.388 . S
C3641 C3640 1.366 . S
C3641 C3645 1.385 . S
C3642 H3623 0.951 . S
C3642 C3640 1.388 . S
C3642 C3643 1.366 . S
C3643 C3642 1.366 . S
C3643 C3644 1.414 . S
C3643 C3646 1.499 . S
C3644 H3624 0.950 . S
C3644 C3643 1.414 . S
C3644 C3645 1.374 . S
C3645 H3625 0.950 . S
C3645 C3641 1.385 . S
C3645 C3644 1.374 . S
C3646 C3643 1.499 . S
C3646 C3647 1.373 . S
C3646 C3648 1.389 . S
C3647 H3626 0.950 . S
C3647 C3646 1.373 . S
C3647 C3663 1.377 . S
C3648 C3646 1.389 . S
C3648 C3649 1.524 . S
C3648 C3662 1.377 . S
C3649 C3648 1.524 . S
C3649 C3650 1.397 . S
C3649 C3654 1.363 . S
C3650 H3627 0.950 . S
C3650 C3649 1.397 . S
C3650 C3651 1.334 . S
C3651 H3628 0.950 . S
C3651 C3650 1.334 . S
C3651 C3652 1.287 . S
C3652 C3651 1.287 . S
C3652 C3653 1.524 . S
C3652 H3671 0.913 . S
C3653 H3629 0.950 . S
C3653 C3652 1.524 . S
C3653 C3654 1.415 . S
C3654 H3630 0.950 . S
C3654 C3649 1.363 . S
C3654 C3653 1.415 . S
C3655 H3631 0.951 . S
C3655 C3656 1.366 . S
C3655 C3657 1.388 . S
C3656 C3655 1.366 . S
C3656 C3660 1.385 . S
C3657 H3632 0.951 . S
C3657 C3655 1.388 . S
C3657 C3658 1.366 . S
C3658 C3657 1.366 . S
C3658 C3659 1.414 . S
C3658 C3661 1.499 . S
C3659 H3633 0.950 . S
C3659 C3658 1.414 . S
C3659 C3660 1.374 . S
C3660 H3634 0.950 . S
C3660 C3656 1.385 . S
C3660 C3659 1.374 . S
C3661 C3658 1.499 . S
C3661 C3662 1.373 . S
C3661 C3663 1.389 . S
C3662 H3635 0.950 . S
C3662 C3648 1.377 . S
C3662 C3661 1.373 . S
C3663 C3647 1.377 . S
C3663 C3661 1.389 . S
C3663 C3664 1.524 . S
C3664 C3663 1.524 . S
C3664 C3665 1.397 . S
C3664 C3669 1.363 . S
C3665 H3636 0.950 . S
C3665 C3664 1.397 . S
C3665 C3666 1.334 . S
C3666 H3637 0.950 . S
C3666 C3665 1.334 . S
C3666 C3667 1.287 . S
C3667 C3666 1.287 . S
C3667 C3668 1.524 . S
C3667 H3670 0.999 . S
C3668 H3638 0.950 . S
C3668 C3667 1.524 . S
C3668 C3669 1.415 . S
C3669 H3639 0.950 . S
C3669 C3664 1.363 . S
C3669 C3668 1.415 . S
H3670 C3667 0.999 . S
H3671 C3652 0.913 . S
H3672 C3690 0.951 . S
H3673 C3692 0.951 . S
H3674 C3694 0.950 . S
H3675 C3695 0.950 . S
H3676 C3697 0.950 . S
H3677 C3700 0.950 . S
H3678 C3701 0.950 . S
H3679 C3703 0.950 . S
H3680 C3704 0.950 . S
H3681 C3705 0.951 . S
H3682 C3707 0.951 . S
H3683 C3709 0.950 . S
H3684 C3710 0.950 . S
H3685 C3712 0.950 . S
H3686 C3715 0.950 . S
H3687 C3716 0.950 . S
H3688 C3718 0.950 . S
H3689 C3719 0.950 . S
C3690 H3672 0.951 . S
C3690 C3691 1.366 . S
C3690 C3692 1.388 . S
C3691 C3690 1.366 . S
C3691 C3695 1.385 . S
C3692 H3673 0.951 . S
C3692 C3690 1.388 . S
C3692 C3693 1.366 . S
C3693 C3692 1.366 . S
C3693 C3694 1.414 . S
C3693 C3696 1.499 . S
C3694 H3674 0.950 . S
C3694 C3693 1.414 . S
C3694 C3695 1.374 . S
C3695 H3675 0.950 . S
C3695 C3691 1.385 . S
C3695 C3694 1.374 . S
C3696 C3693 1.499 . S
C3696 C3697 1.373 . S
C3696 C3698 1.389 . S
C3697 H3676 0.950 . S
C3697 C3696 1.373 . S
C3697 C3713 1.377 . S
C3698 C3696 1.389 . S
C3698 C3699 1.524 . S
C3698 C3712 1.377 . S
C3699 C3698 1.524 . S
C3699 C3700 1.397 . S
C3699 C3704 1.363 . S
C3700 H3677 0.950 . S
C3700 C3699 1.397 . S
C3700 C3701 1.334 . S
C3701 H3678 0.950 . S
C3701 C3700 1.334 . S
C3701 C3702 1.287 . S
C3702 C3701 1.287 . S
C3702 C3703 1.524 . S
C3702 H3721 0.913 . S
C3703 H3679 0.950 . S
C3703 C3702 1.524 . S
C3703 C3704 1.415 . S
C3704 H3680 0.950 . S
C3704 C3699 1.363 . S
C3704 C3703 1.415 . S
C3705 H3681 0.951 . S
C3705 C3706 1.366 . S
C3705 C3707 1.388 . S
C3706 C3705 1.366 . S
C3706 C3710 1.385 . S
C3707 H3682 0.951 . S
C3707 C3705 1.388 . S
C3707 C3708 1.366 . S
C3708 C3707 1.366 . S
C3708 C3709 1.414 . S
C3708 C3711 1.499 . S
C3709 H3683 0.950 . S
C3709 C3708 1.414 . S
C3709 C3710 1.374 . S
C3710 H3684 0.950 . S
C3710 C3706 1.385 . S
C3710 C3709 1.374 . S
C3711 C3708 1.499 . S
C3711 C3712 1.373 . S
C3711 C3713 1.389 . S
C3712 H3685 0.950 . S
C3712 C3698 1.377 . S
C3712 C3711 1.373 . S
C3713 C3697 1.377 . S
C3713 C3711 1.389 . S
C3713 C3714 1.524 . S
C3714 C3713 1.524 . S
C3714 C3715 1.397 . S
C3714 C3719 1.363 . S
C3715 H3686 0.950 . S
C3715 C3714 1.397 . S
C3715 C3716 1.334 . S
C3716 H3687 0.950 . S
C3716 C3715 1.334 . S
C3716 C3717 1.287 . S
C3717 C3716 1.287 . S
C3717 C3718 1.524 . S
C3717 H3720 0.999 . S
C3718 H3688 0.950 . S
C3718 C3717 1.524 . S
C3718 C3719 1.415 . S
C3719 H3689 0.950 . S
C3719 C3714 1.363 . S
C3719 C3718 1.415 . S
H3720 C3717 0.999 . S
H3721 C3702 0.913 . S
H3722 C3740 0.951 . S
H3723 C3742 0.951 . S
H3724 C3744 0.950 . S
H3725 C3745 0.950 . S
H3726 C3747 0.950 . S
H3727 C3750 0.950 . S
H3728 C3751 0.950 . S
H3729 C3753 0.950 . S
H3730 C3754 0.950 . S
H3731 C3755 0.951 . S
H3732 C3757 0.951 . S
H3733 C3759 0.950 . S
H3734 C3760 0.950 . S
H3735 C3762 0.950 . S
H3736 C3765 0.950 . S
H3737 C3766 0.950 . S
H3738 C3768 0.953 . S
H3739 C3769 0.950 . S
C3740 H3722 0.951 . S
C3740 C3741 1.366 . S
C3740 C3742 1.388 . S
C3741 C3740 1.366 . S
C3741 C3745 1.385 . S
C3742 H3723 0.951 . S
C3742 C3740 1.388 . S
C3742 C3743 1.366 . S
C3743 C3742 1.366 . S
C3743 C3744 1.414 . S
C3743 C3746 1.499 . S
C3744 H3724 0.950 . S
C3744 C3743 1.414 . S
C3744 C3745 1.374 . S
C3745 H3725 0.950 . S
C3745 C3741 1.385 . S
C3745 C3744 1.374 . S
C3746 C3743 1.499 . S
C3746 C3747 1.373 . S
C3746 C3748 1.389 . S
C3747 H3726 0.950 . S
C3747 C3746 1.373 . S
C3747 C3763 1.377 . S
C3748 C3746 1.389 . S
C3748 C3749 1.524 . S
C3748 C3762 1.377 . S
C3749 C3748 1.524 . S
C3749 C3750 1.397 . S
C3749 C3754 1.363 . S
C3750 H3727 0.950 . S
C3750 C3749 1.397 . S
C3750 C3751 1.334 . S
C3751 H3728 0.950 . S
C3751 C3750 1.334 . S
C3751 C3752 1.287 . S
C3752 C3751 1.287 . S
C3752 C3753 1.524 . S
C3752 H3771 0.913 . S
C3753 H3729 0.950 . S
C3753 C3752 1.524 . S
C3753 C3754 1.415 . S
C3754 H3730 0.950 . S
C3754 C3749 1.363 . S
C3754 C3753 1.415 . S
C3755 H3731 0.951 . S
C3755 C3756 1.366 . S
C3755 C3757 1.388 . S
C3756 C3755 1.366 . S
C3756 C3760 1.385 . S
C3757 H3732 0.951 . S
C3757 C3755 1.388 . S
C3757 C3758 1.366 . S
C3758 C3757 1.366 . S
C3758 C3759 1.414 . S
C3758 C3761 1.499 1_554 S
C3759 H3733 0.950 . S
C3759 C3758 1.414 . S
C3759 C3760 1.374 . S
C3760 H3734 0.950 . S
C3760 C3756 1.385 . S
C3760 C3759 1.374 . S
C3761 C3758 1.499 1_556 S
C3761 C3762 1.373 . S
C3761 C3763 1.389 . S
C3762 H3735 0.950 . S
C3762 C3748 1.377 . S
C3762 C3761 1.373 . S
C3763 C3747 1.377 . S
C3763 C3761 1.389 . S
C3763 C3764 1.524 . S
C3764 C3763 1.524 . S
C3764 C3765 1.397 1_556 S
C3764 C3769 1.363 . S
C3765 H3736 0.950 . S
C3765 C3764 1.397 1_554 S
C3765 C3766 1.334 . S
C3766 H3737 0.950 . S
C3766 C3765 1.334 . S
C3766 C3767 1.287 . S
C3767 C3766 1.287 . S
C3767 C3768 1.524 . S
C3767 H3770 0.999 . S
C3768 H3738 0.953 . S
C3768 C3767 1.524 . S
C3768 C3769 1.415 1_554 S
C3769 H3739 0.950 . S
C3769 C3764 1.363 . S
C3769 C3768 1.415 1_556 S
H3770 C3767 0.999 . S
H3771 C3752 0.913 . S
H3772 C3790 0.951 . S
H3773 C3792 0.951 . S
H3774 C3794 0.950 . S
H3775 C3795 0.950 . S
H3776 C3797 0.950 . S
H3777 C3800 0.950 . S
H3778 C3801 0.950 . S
H3779 C3803 0.950 . S
H3780 C3804 0.950 . S
H3781 C3805 0.951 . S
H3782 C3807 0.951 . S
H3783 C3809 0.950 . S
H3784 C3810 0.950 . S
H3785 C3812 0.950 . S
H3786 C3815 0.950 . S
H3787 C3816 0.950 . S
H3788 C3818 0.950 . S
H3789 C3819 0.950 . S
C3790 H3772 0.951 . S
C3790 C3791 1.366 . S
C3790 C3792 1.388 . S
C3791 C3790 1.366 . S
C3791 C3795 1.385 . S
C3792 H3773 0.951 . S
C3792 C3790 1.388 . S
C3792 C3793 1.366 . S
C3793 C3792 1.366 . S
C3793 C3794 1.414 . S
C3793 C3796 1.499 . S
C3794 H3774 0.950 . S
C3794 C3793 1.414 . S
C3794 C3795 1.374 . S
C3795 H3775 0.950 . S
C3795 C3791 1.385 . S
C3795 C3794 1.374 . S
C3796 C3793 1.499 . S
C3796 C3797 1.373 . S
C3796 C3798 1.389 . S
C3797 H3776 0.950 . S
C3797 C3796 1.373 . S
C3797 C3813 1.377 . S
C3798 C3796 1.389 . S
C3798 C3799 1.524 . S
C3798 C3812 1.377 . S
C3799 C3798 1.524 . S
C3799 C3800 1.397 . S
C3799 C3804 1.363 . S
C3800 H3777 0.950 . S
C3800 C3799 1.397 . S
C3800 C3801 1.334 . S
C3801 H3778 0.950 . S
C3801 C3800 1.334 . S
C3801 C3802 1.287 . S
C3802 C3801 1.287 . S
C3802 C3803 1.524 . S
C3802 H3821 0.913 . S
C3803 H3779 0.950 . S
C3803 C3802 1.524 . S
C3803 C3804 1.415 . S
C3804 H3780 0.950 . S
C3804 C3799 1.363 . S
C3804 C3803 1.415 . S
C3805 H3781 0.951 . S
C3805 C3806 1.366 . S
C3805 C3807 1.388 . S
C3806 C3805 1.366 . S
C3806 C3810 1.385 . S
C3807 H3782 0.951 . S
C3807 C3805 1.388 . S
C3807 C3808 1.366 . S
C3808 C3807 1.366 . S
C3808 C3809 1.414 . S
C3808 C3811 1.499 . S
C3809 H3783 0.950 . S
C3809 C3808 1.414 . S
C3809 C3810 1.374 . S
C3810 H3784 0.950 . S
C3810 C3806 1.385 . S
C3810 C3809 1.374 . S
C3811 C3808 1.499 . S
C3811 C3812 1.373 . S
C3811 C3813 1.389 . S
C3812 H3785 0.950 . S
C3812 C3798 1.377 . S
C3812 C3811 1.373 . S
C3813 C3797 1.377 . S
C3813 C3811 1.389 . S
C3813 C3814 1.524 . S
C3814 C3813 1.524 . S
C3814 C3815 1.397 . S
C3814 C3819 1.363 . S
C3815 H3786 0.950 . S
C3815 C3814 1.397 . S
C3815 C3816 1.334 . S
C3816 H3787 0.950 . S
C3816 C3815 1.334 . S
C3816 C3817 1.287 . S
C3817 C3816 1.287 . S
C3817 C3818 1.524 . S
C3817 H3820 0.999 . S
C3818 H3788 0.950 . S
C3818 C3817 1.524 . S
C3818 C3819 1.415 . S
C3819 H3789 0.950 . S
C3819 C3814 1.363 . S
C3819 C3818 1.415 . S
H3820 C3817 0.999 . S
H3821 C3802 0.913 . S
H3822 C3840 0.951 . S
H3823 C3842 0.951 . S
H3824 C3844 0.950 . S
H3825 C3845 0.950 . S
H3826 C3847 0.950 . S
H3827 C3850 0.950 . S
H3828 C3851 0.950 . S
H3829 C3853 0.950 . S
H3830 C3854 0.950 . S
H3831 C3855 0.951 . S
H3832 C3857 0.951 . S
H3833 C3859 0.950 . S
H3834 C3860 0.950 . S
H3835 C3862 0.950 . S
H3836 C3865 0.950 . S
H3837 C3866 0.950 . S
H3838 C3868 0.950 . S
H3839 C3869 0.950 . S
C3840 H3822 0.951 . S
C3840 C3841 1.366 . S
C3840 C3842 1.388 . S
C3841 C3840 1.366 . S
C3841 C3845 1.385 . S
C3842 H3823 0.951 . S
C3842 C3840 1.388 . S
C3842 C3843 1.366 . S
C3843 C3842 1.366 . S
C3843 C3844 1.414 . S
C3843 C3846 1.499 . S
C3844 H3824 0.950 . S
C3844 C3843 1.414 . S
C3844 C3845 1.374 . S
C3845 H3825 0.950 . S
C3845 C3841 1.385 . S
C3845 C3844 1.374 . S
C3846 C3843 1.499 . S
C3846 C3847 1.373 . S
C3846 C3848 1.389 . S
C3847 H3826 0.950 . S
C3847 C3846 1.373 . S
C3847 C3863 1.377 . S
C3848 C3846 1.389 . S
C3848 C3849 1.524 . S
C3848 C3862 1.377 . S
C3849 C3848 1.524 . S
C3849 C3850 1.397 . S
C3849 C3854 1.363 . S
C3850 H3827 0.950 . S
C3850 C3849 1.397 . S
C3850 C3851 1.334 . S
C3851 H3828 0.950 . S
C3851 C3850 1.334 . S
C3851 C3852 1.287 . S
C3852 C3851 1.287 . S
C3852 C3853 1.524 . S
C3852 H3871 0.913 . S
C3853 H3829 0.950 . S
C3853 C3852 1.524 . S
C3853 C3854 1.415 . S
C3854 H3830 0.950 . S
C3854 C3849 1.363 . S
C3854 C3853 1.415 . S
C3855 H3831 0.951 . S
C3855 C3856 1.366 . S
C3855 C3857 1.388 . S
C3856 C3855 1.366 . S
C3856 C3860 1.385 . S
C3857 H3832 0.951 . S
C3857 C3855 1.388 . S
C3857 C3858 1.366 . S
C3858 C3857 1.366 . S
C3858 C3859 1.414 . S
C3858 C3861 1.499 . S
C3859 H3833 0.950 . S
C3859 C3858 1.414 . S
C3859 C3860 1.374 . S
C3860 H3834 0.950 . S
C3860 C3856 1.385 . S
C3860 C3859 1.374 . S
C3861 C3858 1.499 . S
C3861 C3862 1.373 . S
C3861 C3863 1.389 . S
C3862 H3835 0.950 . S
C3862 C3848 1.377 . S
C3862 C3861 1.373 . S
C3863 C3847 1.377 . S
C3863 C3861 1.389 . S
C3863 C3864 1.524 . S
C3864 C3863 1.524 . S
C3864 C3865 1.397 . S
C3864 C3869 1.363 . S
C3865 H3836 0.950 . S
C3865 C3864 1.397 . S
C3865 C3866 1.334 . S
C3866 H3837 0.950 . S
C3866 C3865 1.334 . S
C3866 C3867 1.287 . S
C3867 C3866 1.287 . S
C3867 C3868 1.524 . S
C3867 H3870 0.999 . S
C3868 H3838 0.950 . S
C3868 C3867 1.524 . S
C3868 C3869 1.415 . S
C3869 H3839 0.950 . S
C3869 C3864 1.363 . S
C3869 C3868 1.415 . S
H3870 C3867 0.999 . S
H3871 C3852 0.913 . S
H3872 C3890 0.951 . S
H3873 C3892 0.951 . S
H3874 C3894 0.950 . S
H3875 C3895 0.950 . S
H3876 C3897 0.950 . S
H3877 C3900 0.950 . S
H3878 C3901 0.950 . S
H3879 C3903 0.950 . S
H3880 C3904 0.950 . S
H3881 C3905 0.951 . S
H3882 C3907 0.951 . S
H3883 C3909 0.950 . S
H3884 C3910 0.950 . S
H3885 C3912 0.950 . S
H3886 C3915 0.950 . S
H3887 C3916 0.950 . S
H3888 C3918 0.950 . S
H3889 C3919 0.950 . S
C3890 H3872 0.951 . S
C3890 C3891 1.366 . S
C3890 C3892 1.388 . S
C3891 C3890 1.366 . S
C3891 C3895 1.385 . S
C3892 H3873 0.951 . S
C3892 C3890 1.388 . S
C3892 C3893 1.366 . S
C3893 C3892 1.366 . S
C3893 C3894 1.414 . S
C3893 C3896 1.499 . S
C3894 H3874 0.950 . S
C3894 C3893 1.414 . S
C3894 C3895 1.374 . S
C3895 H3875 0.950 . S
C3895 C3891 1.385 . S
C3895 C3894 1.374 . S
C3896 C3893 1.499 . S
C3896 C3897 1.373 . S
C3896 C3898 1.389 . S
C3897 H3876 0.950 . S
C3897 C3896 1.373 . S
C3897 C3913 1.377 . S
C3898 C3896 1.389 . S
C3898 C3899 1.524 . S
C3898 C3912 1.377 . S
C3899 C3898 1.524 . S
C3899 C3900 1.397 . S
C3899 C3904 1.363 . S
C3900 H3877 0.950 . S
C3900 C3899 1.397 . S
C3900 C3901 1.334 . S
C3901 H3878 0.950 . S
C3901 C3900 1.334 . S
C3901 C3902 1.287 . S
C3902 C3901 1.287 . S
C3902 C3903 1.524 . S
C3902 H3921 0.913 . S
C3903 H3879 0.950 . S
C3903 C3902 1.524 . S
C3903 C3904 1.415 . S
C3904 H3880 0.950 . S
C3904 C3899 1.363 . S
C3904 C3903 1.415 . S
C3905 H3881 0.951 . S
C3905 C3906 1.366 . S
C3905 C3907 1.388 . S
C3906 C3905 1.366 . S
C3906 C3910 1.385 . S
C3907 H3882 0.951 . S
C3907 C3905 1.388 . S
C3907 C3908 1.366 . S
C3908 C3907 1.366 . S
C3908 C3909 1.414 . S
C3908 C3911 1.499 . S
C3909 H3883 0.950 . S
C3909 C3908 1.414 . S
C3909 C3910 1.374 . S
C3910 H3884 0.950 . S
C3910 C3906 1.385 . S
C3910 C3909 1.374 . S
C3911 C3908 1.499 . S
C3911 C3912 1.373 . S
C3911 C3913 1.389 . S
C3912 H3885 0.950 . S
C3912 C3898 1.377 . S
C3912 C3911 1.373 . S
C3913 C3897 1.377 . S
C3913 C3911 1.389 . S
C3913 C3914 1.524 . S
C3914 C3913 1.524 . S
C3914 C3915 1.397 . S
C3914 C3919 1.363 . S
C3915 H3886 0.950 . S
C3915 C3914 1.397 . S
C3915 C3916 1.334 . S
C3916 H3887 0.950 . S
C3916 C3915 1.334 . S
C3916 C3917 1.287 . S
C3917 C3916 1.287 . S
C3917 C3918 1.524 . S
C3917 H3920 0.999 . S
C3918 H3888 0.950 . S
C3918 C3917 1.524 . S
C3918 C3919 1.415 . S
C3919 H3889 0.950 . S
C3919 C3914 1.363 . S
C3919 C3918 1.415 . S
H3920 C3917 0.999 . S
H3921 C3902 0.913 . S
H3922 C3940 0.951 . S
H3923 C3942 0.951 . S
H3924 C3944 0.950 . S
H3925 C3945 0.950 . S
H3926 C3947 0.950 . S
H3927 C3950 0.950 . S
H3928 C3951 0.950 . S
H3929 C3953 0.950 . S
H3930 C3954 0.950 . S
H3931 C3955 0.951 . S
H3932 C3957 0.951 . S
H3933 C3959 0.950 . S
H3934 C3960 0.950 . S
H3935 C3962 0.950 . S
H3936 C3965 0.950 . S
H3937 C3966 0.950 . S
H3938 C3968 0.950 . S
H3939 C3969 0.950 . S
C3940 H3922 0.951 . S
C3940 C3941 1.366 . S
C3940 C3942 1.388 . S
C3941 C3940 1.366 . S
C3941 C3945 1.385 . S
C3942 H3923 0.951 . S
C3942 C3940 1.388 . S
C3942 C3943 1.366 . S
C3943 C3942 1.366 . S
C3943 C3944 1.414 . S
C3943 C3946 1.499 . S
C3944 H3924 0.950 . S
C3944 C3943 1.414 . S
C3944 C3945 1.374 . S
C3945 H3925 0.950 . S
C3945 C3941 1.385 . S
C3945 C3944 1.374 . S
C3946 C3943 1.499 . S
C3946 C3947 1.373 . S
C3946 C3948 1.389 . S
C3947 H3926 0.950 . S
C3947 C3946 1.373 . S
C3947 C3963 1.377 . S
C3948 C3946 1.389 . S
C3948 C3949 1.524 . S
C3948 C3962 1.377 . S
C3949 C3948 1.524 . S
C3949 C3950 1.397 . S
C3949 C3954 1.363 . S
C3950 H3927 0.950 . S
C3950 C3949 1.397 . S
C3950 C3951 1.334 . S
C3951 H3928 0.950 . S
C3951 C3950 1.334 . S
C3951 C3952 1.287 . S
C3952 C3951 1.287 . S
C3952 C3953 1.524 . S
C3952 H3971 0.913 . S
C3953 H3929 0.950 . S
C3953 C3952 1.524 . S
C3953 C3954 1.415 . S
C3954 H3930 0.950 . S
C3954 C3949 1.363 . S
C3954 C3953 1.415 . S
C3955 H3931 0.951 . S
C3955 C3956 1.366 . S
C3955 C3957 1.388 . S
C3956 C3955 1.366 . S
C3956 C3960 1.385 . S
C3957 H3932 0.951 . S
C3957 C3955 1.388 . S
C3957 C3958 1.366 . S
C3958 C3957 1.366 . S
C3958 C3959 1.414 . S
C3958 C3961 1.499 . S
C3959 H3933 0.950 . S
C3959 C3958 1.414 . S
C3959 C3960 1.374 . S
C3960 H3934 0.950 . S
C3960 C3956 1.385 . S
C3960 C3959 1.374 . S
C3961 C3958 1.499 . S
C3961 C3962 1.373 . S
C3961 C3963 1.389 . S
C3962 H3935 0.950 . S
C3962 C3948 1.377 . S
C3962 C3961 1.373 . S
C3963 C3947 1.377 . S
C3963 C3961 1.389 . S
C3963 C3964 1.524 . S
C3964 C3963 1.524 . S
C3964 C3965 1.397 . S
C3964 C3969 1.363 . S
C3965 H3936 0.950 . S
C3965 C3964 1.397 . S
C3965 C3966 1.334 . S
C3966 H3937 0.950 . S
C3966 C3965 1.334 . S
C3966 C3967 1.287 . S
C3967 C3966 1.287 . S
C3967 C3968 1.524 . S
C3967 H3970 0.999 . S
C3968 H3938 0.950 . S
C3968 C3967 1.524 . S
C3968 C3969 1.415 . S
C3969 H3939 0.950 . S
C3969 C3964 1.363 . S
C3969 C3968 1.415 . S
H3970 C3967 0.999 . S
H3971 C3952 0.913 . S
H3972 C3990 0.951 . S
H3973 C3992 0.951 . S
H3974 C3994 0.950 . S
H3975 C3995 0.950 . S
H3976 C3997 0.950 . S
H3977 C4000 0.950 . S
H3978 C4001 0.950 . S
H3979 C4003 0.950 . S
H3980 C4004 0.950 . S
H3981 C4005 0.951 . S
H3982 C4007 0.951 . S
H3983 C4009 0.950 . S
H3984 C4010 0.950 . S
H3985 C4012 0.950 . S
H3986 C4015 0.950 . S
H3987 C4016 0.950 . S
H3988 C4018 0.950 . S
H3989 C4019 0.950 1_545 S
C3990 H3972 0.951 . S
C3990 C3991 1.366 . S
C3990 C3992 1.388 . S
C3991 C3990 1.366 . S
C3991 C3995 1.385 . S
C3992 H3973 0.951 . S
C3992 C3990 1.388 . S
C3992 C3993 1.366 . S
C3993 C3992 1.366 . S
C3993 C3994 1.414 . S
C3993 C3996 1.499 . S
C3994 H3974 0.950 . S
C3994 C3993 1.414 . S
C3994 C3995 1.374 . S
C3995 H3975 0.950 . S
C3995 C3991 1.385 . S
C3995 C3994 1.374 . S
C3996 C3993 1.499 . S
C3996 C3997 1.373 . S
C3996 C3998 1.389 . S
C3997 H3976 0.950 . S
C3997 C3996 1.373 . S
C3997 C4013 1.377 . S
C3998 C3996 1.389 . S
C3998 C3999 1.524 . S
C3998 C4012 1.377 . S
C3999 C3998 1.524 . S
C3999 C4000 1.397 . S
C3999 C4004 1.363 . S
C4000 H3977 0.950 . S
C4000 C3999 1.397 . S
C4000 C4001 1.334 . S
C4001 H3978 0.950 . S
C4001 C4000 1.334 . S
C4001 C4002 1.287 . S
C4002 C4001 1.287 . S
C4002 C4003 1.524 . S
C4002 H4021 0.913 . S
C4003 H3979 0.950 . S
C4003 C4002 1.524 . S
C4003 C4004 1.415 . S
C4004 H3980 0.950 . S
C4004 C3999 1.363 . S
C4004 C4003 1.415 . S
C4005 H3981 0.951 . S
C4005 C4006 1.366 . S
C4005 C4007 1.388 . S
C4006 C4005 1.366 . S
C4006 C4010 1.385 . S
C4007 H3982 0.951 . S
C4007 C4005 1.388 . S
C4007 C4008 1.366 . S
C4008 C4007 1.366 . S
C4008 C4009 1.414 . S
C4008 C4011 1.499 1_565 S
C4009 H3983 0.950 . S
C4009 C4008 1.414 . S
C4009 C4010 1.374 . S
C4010 H3984 0.950 . S
C4010 C4006 1.385 . S
C4010 C4009 1.374 . S
C4011 C4008 1.499 1_545 S
C4011 C4012 1.373 . S
C4011 C4013 1.389 . S
C4012 H3985 0.950 . S
C4012 C3998 1.377 . S
C4012 C4011 1.373 . S
C4013 C3997 1.377 . S
C4013 C4011 1.389 . S
C4013 C4014 1.524 1_545 S
C4014 C4013 1.524 1_565 S
C4014 C4015 1.397 . S
C4014 C4019 1.363 . S
C4015 H3986 0.950 . S
C4015 C4014 1.397 . S
C4015 C4016 1.334 . S
C4016 H3987 0.950 . S
C4016 C4015 1.334 . S
C4016 C4017 1.287 . S
C4017 C4016 1.287 . S
C4017 C4018 1.524 . S
C4017 H4020 0.999 . S
C4018 H3988 0.950 . S
C4018 C4017 1.524 . S
C4018 C4019 1.415 . S
C4019 H3989 0.950 1_565 S
C4019 C4014 1.363 . S
C4019 C4018 1.415 . S
H4020 C4017 0.999 . S
H4021 C4002 0.913 . S
H4022 C4040 0.951 . S
H4023 C4042 0.951 . S
H4024 C4044 0.950 . S
H4025 C4045 0.950 . S
H4026 C4047 0.950 . S
H4027 C4050 0.950 . S
H4028 C4051 0.950 . S
H4029 C4053 0.950 . S
H4030 C4054 0.950 . S
H4031 C4055 0.951 . S
H4032 C4057 0.951 . S
H4033 C4059 0.950 . S
H4034 C4060 0.950 . S
H4035 C4062 0.950 . S
H4036 C4065 0.950 . S
H4037 C4066 0.950 . S
H4038 C4068 0.950 . S
H4039 C4069 0.950 . S
C4040 H4022 0.951 . S
C4040 C4041 1.366 . S
C4040 C4042 1.388 . S
C4041 C4040 1.366 . S
C4041 C4045 1.385 . S
C4042 H4023 0.951 . S
C4042 C4040 1.388 . S
C4042 C4043 1.366 . S
C4043 C4042 1.366 . S
C4043 C4044 1.414 . S
C4043 C4046 1.499 . S
C4044 H4024 0.950 . S
C4044 C4043 1.414 . S
C4044 C4045 1.374 . S
C4045 H4025 0.950 . S
C4045 C4041 1.385 . S
C4045 C4044 1.374 . S
C4046 C4043 1.499 . S
C4046 C4047 1.373 . S
C4046 C4048 1.389 . S
C4047 H4026 0.950 . S
C4047 C4046 1.373 . S
C4047 C4063 1.377 . S
C4048 C4046 1.389 . S
C4048 C4049 1.524 . S
C4048 C4062 1.377 . S
C4049 C4048 1.524 . S
C4049 C4050 1.397 . S
C4049 C4054 1.363 . S
C4050 H4027 0.950 . S
C4050 C4049 1.397 . S
C4050 C4051 1.334 . S
C4051 H4028 0.950 . S
C4051 C4050 1.334 . S
C4051 C4052 1.287 . S
C4052 C4051 1.287 . S
C4052 C4053 1.524 . S
C4052 H4071 0.913 . S
C4053 H4029 0.950 . S
C4053 C4052 1.524 . S
C4053 C4054 1.415 . S
C4054 H4030 0.950 . S
C4054 C4049 1.363 . S
C4054 C4053 1.415 . S
C4055 H4031 0.951 . S
C4055 C4056 1.366 . S
C4055 C4057 1.388 . S
C4056 C4055 1.366 . S
C4056 C4060 1.385 . S
C4057 H4032 0.951 . S
C4057 C4055 1.388 . S
C4057 C4058 1.366 . S
C4058 C4057 1.366 . S
C4058 C4059 1.414 . S
C4058 C4061 1.499 . S
C4059 H4033 0.950 . S
C4059 C4058 1.414 . S
C4059 C4060 1.374 . S
C4060 H4034 0.950 . S
C4060 C4056 1.385 . S
C4060 C4059 1.374 . S
C4061 C4058 1.499 . S
C4061 C4062 1.373 . S
C4061 C4063 1.389 . S
C4062 H4035 0.950 . S
C4062 C4048 1.377 . S
C4062 C4061 1.373 . S
C4063 C4047 1.377 . S
C4063 C4061 1.389 . S
C4063 C4064 1.524 . S
C4064 C4063 1.524 . S
C4064 C4065 1.397 . S
C4064 C4069 1.363 . S
C4065 H4036 0.950 . S
C4065 C4064 1.397 . S
C4065 C4066 1.334 . S
C4066 H4037 0.950 . S
C4066 C4065 1.334 . S
C4066 C4067 1.287 . S
C4067 C4066 1.287 . S
C4067 C4068 1.524 . S
C4067 H4070 0.999 . S
C4068 H4038 0.950 . S
C4068 C4067 1.524 . S
C4068 C4069 1.415 . S
C4069 H4039 0.950 . S
C4069 C4064 1.363 . S
C4069 C4068 1.415 . S
H4070 C4067 0.999 . S
H4071 C4052 0.913 . S
H4072 C4090 0.951 . S
H4073 C4092 0.951 . S
H4074 C4094 0.950 . S
H4075 C4095 0.950 . S
H4076 C4097 0.950 . S
H4077 C4100 0.950 . S
H4078 C4101 0.950 . S
H4079 C4103 0.950 . S
H4080 C4104 0.950 . S
H4081 C4105 0.951 . S
H4082 C4107 0.951 . S
H4083 C4109 0.950 . S
H4084 C4110 0.950 . S
H4085 C4112 0.950 . S
H4086 C4115 0.950 . S
H4087 C4116 0.950 . S
H4088 C4118 0.950 . S
H4089 C4119 0.950 . S
C4090 H4072 0.951 . S
C4090 C4091 1.366 . S
C4090 C4092 1.388 . S
C4091 C4090 1.366 . S
C4091 C4095 1.385 . S
C4092 H4073 0.951 . S
C4092 C4090 1.388 . S
C4092 C4093 1.366 . S
C4093 C4092 1.366 . S
C4093 C4094 1.414 . S
C4093 C4096 1.499 . S
C4094 H4074 0.950 . S
C4094 C4093 1.414 . S
C4094 C4095 1.374 . S
C4095 H4075 0.950 . S
C4095 C4091 1.385 . S
C4095 C4094 1.374 . S
C4096 C4093 1.499 . S
C4096 C4097 1.373 . S
C4096 C4098 1.389 . S
C4097 H4076 0.950 . S
C4097 C4096 1.373 . S
C4097 C4113 1.377 . S
C4098 C4096 1.389 . S
C4098 C4099 1.524 . S
C4098 C4112 1.377 . S
C4099 C4098 1.524 . S
C4099 C4100 1.397 . S
C4099 C4104 1.363 . S
C4100 H4077 0.950 . S
C4100 C4099 1.397 . S
C4100 C4101 1.334 . S
C4101 H4078 0.950 . S
C4101 C4100 1.334 . S
C4101 C4102 1.287 . S
C4102 C4101 1.287 . S
C4102 C4103 1.524 . S
C4102 H4121 0.913 . S
C4103 H4079 0.950 . S
C4103 C4102 1.524 . S
C4103 C4104 1.415 . S
C4104 H4080 0.950 . S
C4104 C4099 1.363 . S
C4104 C4103 1.415 . S
C4105 H4081 0.951 . S
C4105 C4106 1.366 . S
C4105 C4107 1.388 . S
C4106 C4105 1.366 . S
C4106 C4110 1.385 . S
C4107 H4082 0.951 . S
C4107 C4105 1.388 . S
C4107 C4108 1.366 . S
C4108 C4107 1.366 . S
C4108 C4109 1.414 . S
C4108 C4111 1.499 . S
C4109 H4083 0.950 . S
C4109 C4108 1.414 . S
C4109 C4110 1.374 . S
C4110 H4084 0.950 . S
C4110 C4106 1.385 . S
C4110 C4109 1.374 . S
C4111 C4108 1.499 . S
C4111 C4112 1.373 . S
C4111 C4113 1.389 . S
C4112 H4085 0.950 . S
C4112 C4098 1.377 . S
C4112 C4111 1.373 . S
C4113 C4097 1.377 . S
C4113 C4111 1.389 . S
C4113 C4114 1.524 . S
C4114 C4113 1.524 . S
C4114 C4115 1.397 . S
C4114 C4119 1.363 . S
C4115 H4086 0.950 . S
C4115 C4114 1.397 . S
C4115 C4116 1.334 . S
C4116 H4087 0.950 . S
C4116 C4115 1.334 . S
C4116 C4117 1.287 . S
C4117 C4116 1.287 . S
C4117 C4118 1.524 . S
C4117 H4120 0.999 . S
C4118 H4088 0.950 . S
C4118 C4117 1.524 . S
C4118 C4119 1.415 . S
C4119 H4089 0.950 . S
C4119 C4114 1.363 . S
C4119 C4118 1.415 . S
H4120 C4117 0.999 . S
H4121 C4102 0.913 . S
H4122 C4140 0.951 . S
H4123 C4142 0.951 . S
H4124 C4144 0.950 . S
H4125 C4145 0.950 . S
H4126 C4147 0.950 . S
H4127 C4150 0.950 . S
H4128 C4151 0.950 . S
H4129 C4153 0.950 . S
H4130 C4154 0.950 . S
H4131 C4155 0.951 . S
H4132 C4157 0.951 . S
H4133 C4159 0.950 . S
H4134 C4160 0.950 . S
H4135 C4162 0.950 . S
H4136 C4165 0.950 . S
H4137 C4166 0.950 . S
H4138 C4168 0.950 . S
H4139 C4169 0.950 . S
C4140 H4122 0.951 . S
C4140 C4141 1.366 . S
C4140 C4142 1.388 . S
C4141 C4140 1.366 . S
C4141 C4145 1.385 . S
C4142 H4123 0.951 . S
C4142 C4140 1.388 . S
C4142 C4143 1.366 . S
C4143 C4142 1.366 . S
C4143 C4144 1.414 . S
C4143 C4146 1.499 . S
C4144 H4124 0.950 . S
C4144 C4143 1.414 . S
C4144 C4145 1.374 . S
C4145 H4125 0.950 . S
C4145 C4141 1.385 . S
C4145 C4144 1.374 . S
C4146 C4143 1.499 . S
C4146 C4147 1.373 . S
C4146 C4148 1.389 . S
C4147 H4126 0.950 . S
C4147 C4146 1.373 . S
C4147 C4163 1.377 . S
C4148 C4146 1.389 . S
C4148 C4149 1.524 . S
C4148 C4162 1.377 . S
C4149 C4148 1.524 . S
C4149 C4150 1.397 . S
C4149 C4154 1.363 . S
C4150 H4127 0.950 . S
C4150 C4149 1.397 . S
C4150 C4151 1.334 . S
C4151 H4128 0.950 . S
C4151 C4150 1.334 . S
C4151 C4152 1.287 . S
C4152 C4151 1.287 . S
C4152 C4153 1.524 . S
C4152 H4171 0.913 . S
C4153 H4129 0.950 . S
C4153 C4152 1.524 . S
C4153 C4154 1.415 . S
C4154 H4130 0.950 . S
C4154 C4149 1.363 . S
C4154 C4153 1.415 . S
C4155 H4131 0.951 . S
C4155 C4156 1.366 . S
C4155 C4157 1.388 . S
C4156 C4155 1.366 . S
C4156 C4160 1.385 . S
C4157 H4132 0.951 . S
C4157 C4155 1.388 . S
C4157 C4158 1.366 . S
C4158 C4157 1.366 . S
C4158 C4159 1.414 . S
C4158 C4161 1.499 . S
C4159 H4133 0.950 . S
C4159 C4158 1.414 . S
C4159 C4160 1.374 . S
C4160 H4134 0.950 . S
C4160 C4156 1.385 . S
C4160 C4159 1.374 . S
C4161 C4158 1.499 . S
C4161 C4162 1.373 . S
C4161 C4163 1.389 . S
C4162 H4135 0.950 . S
C4162 C4148 1.377 . S
C4162 C4161 1.373 . S
C4163 C4147 1.377 . S
C4163 C4161 1.389 . S
C4163 C4164 1.524 . S
C4164 C4163 1.524 . S
C4164 C4165 1.397 . S
C4164 C4169 1.363 . S
C4165 H4136 0.950 . S
C4165 C4164 1.397 . S
C4165 C4166 1.334 . S
C4166 H4137 0.950 . S
C4166 C4165 1.334 . S
C4166 C4167 1.287 . S
C4167 C4166 1.287 . S
C4167 C4168 1.524 . S
C4167 H4170 0.999 . S
C4168 H4138 0.950 . S
C4168 C4167 1.524 . S
C4168 C4169 1.415 . S
C4169 H4139 0.950 . S
C4169 C4164 1.363 . S
C4169 C4168 1.415 . S
H4170 C4167 0.999 . S
H4171 C4152 0.913 . S
H4172 C4190 0.951 . S
H4173 C4192 0.951 . S
H4174 C4194 0.950 . S
H4175 C4195 0.950 . S
H4176 C4197 0.950 1_545 S
H4177 C4200 0.950 . S
H4178 C4201 0.950 . S
H4179 C4203 0.950 . S
H4180 C4204 0.950 1_565 S
H4181 C4205 0.951 . S
H4182 C4207 0.951 . S
H4183 C4209 0.950 . S
H4184 C4210 0.950 . S
H4185 C4212 0.950 . S
H4186 C4215 0.950 . S
H4187 C4216 0.950 . S
H4188 C4218 0.950 . S
H4189 C4219 0.950 . S
C4190 H4172 0.951 . S
C4190 C4191 1.366 . S
C4190 C4192 1.388 . S
C4191 C4190 1.366 . S
C4191 C4195 1.385 . S
C4192 H4173 0.951 . S
C4192 C4190 1.388 . S
C4192 C4193 1.366 . S
C4193 C4192 1.366 . S
C4193 C4194 1.414 . S
C4193 C4196 1.499 . S
C4194 H4174 0.950 . S
C4194 C4193 1.414 . S
C4194 C4195 1.374 . S
C4195 H4175 0.950 . S
C4195 C4191 1.385 . S
C4195 C4194 1.374 . S
C4196 C4193 1.499 . S
C4196 C4197 1.373 1_545 S
C4196 C4198 1.389 1_545 S
C4197 H4176 0.950 1_565 S
C4197 C4196 1.373 1_565 S
C4197 C4213 1.377 . S
C4198 C4196 1.389 1_565 S
C4198 C4199 1.524 1_565 S
C4198 C4212 1.377 . S
C4199 C4198 1.524 1_545 S
C4199 C4200 1.397 . S
C4199 C4204 1.363 . S
C4200 H4177 0.950 . S
C4200 C4199 1.397 . S
C4200 C4201 1.334 . S
C4201 H4178 0.950 . S
C4201 C4200 1.334 . S
C4201 C4202 1.287 . S
C4202 C4201 1.287 . S
C4202 C4203 1.524 . S
C4202 H4221 0.913 . S
C4203 H4179 0.950 . S
C4203 C4202 1.524 . S
C4203 C4204 1.415 . S
C4204 H4180 0.950 1_545 S
C4204 C4199 1.363 . S
C4204 C4203 1.415 . S
C4205 H4181 0.951 . S
C4205 C4206 1.366 . S
C4205 C4207 1.388 . S
C4206 C4205 1.366 . S
C4206 C4210 1.385 . S
C4207 H4182 0.951 . S
C4207 C4205 1.388 . S
C4207 C4208 1.366 . S
C4208 C4207 1.366 . S
C4208 C4209 1.414 . S
C4208 C4211 1.499 . S
C4209 H4183 0.950 . S
C4209 C4208 1.414 . S
C4209 C4210 1.374 . S
C4210 H4184 0.950 . S
C4210 C4206 1.385 . S
C4210 C4209 1.374 . S
C4211 C4208 1.499 . S
C4211 C4212 1.373 . S
C4211 C4213 1.389 . S
C4212 H4185 0.950 . S
C4212 C4198 1.377 . S
C4212 C4211 1.373 . S
C4213 C4197 1.377 . S
C4213 C4211 1.389 . S
C4213 C4214 1.524 . S
C4214 C4213 1.524 . S
C4214 C4215 1.397 . S
C4214 C4219 1.363 . S
C4215 H4186 0.950 . S
C4215 C4214 1.397 . S
C4215 C4216 1.334 . S
C4216 H4187 0.950 . S
C4216 C4215 1.334 . S
C4216 C4217 1.287 . S
C4217 C4216 1.287 . S
C4217 C4218 1.524 . S
C4217 H4220 0.999 . S
C4218 H4188 0.950 . S
C4218 C4217 1.524 . S
C4218 C4219 1.415 . S
C4219 H4189 0.950 . S
C4219 C4214 1.363 . S
C4219 C4218 1.415 . S
H4220 C4217 0.999 . S
H4221 C4202 0.913 . S
H4222 C4240 0.951 . S
H4223 C4242 0.951 . S
H4224 C4244 0.950 . S
H4225 C4245 0.950 . S
H4226 C4247 0.950 . S
H4227 C4250 0.950 . S
H4228 C4251 0.950 . S
H4229 C4253 0.950 . S
H4230 C4254 0.950 . S
H4231 C4255 0.951 . S
H4232 C4257 0.951 . S
H4233 C4259 0.950 . S
H4234 C4260 0.950 . S
H4235 C4262 0.950 . S
H4236 C4265 0.950 . S
H4237 C4266 0.950 . S
H4238 C4268 0.950 . S
H4239 C4269 0.950 . S
C4240 H4222 0.951 . S
C4240 C4241 1.366 . S
C4240 C4242 1.388 . S
C4241 C4240 1.366 . S
C4241 C4245 1.385 . S
C4242 H4223 0.951 . S
C4242 C4240 1.388 . S
C4242 C4243 1.366 . S
C4243 C4242 1.366 . S
C4243 C4244 1.414 . S
C4243 C4246 1.499 . S
C4244 H4224 0.950 . S
C4244 C4243 1.414 . S
C4244 C4245 1.374 . S
C4245 H4225 0.950 . S
C4245 C4241 1.385 . S
C4245 C4244 1.374 . S
C4246 C4243 1.499 . S
C4246 C4247 1.373 . S
C4246 C4248 1.389 . S
C4247 H4226 0.950 . S
C4247 C4246 1.373 . S
C4247 C4263 1.377 . S
C4248 C4246 1.389 . S
C4248 C4249 1.524 . S
C4248 C4262 1.377 . S
C4249 C4248 1.524 . S
C4249 C4250 1.397 . S
C4249 C4254 1.363 . S
C4250 H4227 0.950 . S
C4250 C4249 1.397 . S
C4250 C4251 1.334 . S
C4251 H4228 0.950 . S
C4251 C4250 1.334 . S
C4251 C4252 1.287 . S
C4252 C4251 1.287 . S
C4252 C4253 1.524 . S
C4252 H4271 0.913 . S
C4253 H4229 0.950 . S
C4253 C4252 1.524 . S
C4253 C4254 1.415 . S
C4254 H4230 0.950 . S
C4254 C4249 1.363 . S
C4254 C4253 1.415 . S
C4255 H4231 0.951 . S
C4255 C4256 1.366 . S
C4255 C4257 1.388 . S
C4256 C4255 1.366 . S
C4256 C4260 1.385 . S
C4257 H4232 0.951 . S
C4257 C4255 1.388 . S
C4257 C4258 1.366 . S
C4258 C4257 1.366 . S
C4258 C4259 1.414 . S
C4258 C4261 1.524 . S
C4259 H4233 0.950 . S
C4259 C4258 1.414 . S
C4259 C4260 1.374 . S
C4260 H4234 0.950 . S
C4260 C4256 1.385 . S
C4260 C4259 1.374 . S
C4261 C4258 1.524 . S
C4261 C4262 1.361 1_565 S
C4261 C4263 1.377 1_565 S
C4262 H4235 0.950 . S
C4262 C4248 1.377 . S
C4262 C4261 1.361 1_545 S
C4263 C4247 1.377 . S
C4263 C4261 1.377 1_545 S
C4263 C4264 1.545 . S
C4264 C4263 1.545 . S
C4264 C4265 1.378 1_545 S
C4264 C4269 1.368 . S
C4265 H4236 0.950 . S
C4265 C4264 1.378 1_565 S
C4265 C4266 1.334 . S
C4266 H4237 0.950 . S
C4266 C4265 1.334 . S
C4266 C4267 1.287 . S
C4267 C4266 1.287 . S
C4267 C4268 1.524 . S
C4267 H4270 0.999 . S
C4268 H4238 0.950 . S
C4268 C4267 1.524 . S
C4268 C4269 1.415 1_565 S
C4269 H4239 0.950 . S
C4269 C4264 1.368 . S
C4269 C4268 1.415 1_545 S
H4270 C4267 0.999 . S
H4271 C4252 0.913 . S
H4272 C4290 0.951 . S
H4273 C4292 0.951 . S
H4274 C4294 0.950 . S
H4275 C4295 0.950 . S
H4276 C4297 0.950 . S
H4277 C4300 0.950 . S
H4278 C4301 0.950 . S
H4279 C4303 0.950 . S
H4280 C4304 0.950 . S
H4281 C4305 0.951 . S
H4282 C4307 0.951 . S
H4283 C4309 0.950 . S
H4284 C4310 0.950 . S
H4285 C4312 0.950 . S
H4286 C4315 0.950 . S
H4287 C4316 0.950 . S
H4288 C4318 0.950 . S
H4289 C4319 0.950 . S
C4290 H4272 0.951 . S
C4290 C4291 1.366 . S
C4290 C4292 1.388 . S
C4291 C4290 1.366 . S
C4291 C4295 1.385 . S
C4292 H4273 0.951 . S
C4292 C4290 1.388 . S
C4292 C4293 1.366 . S
C4293 C4292 1.366 . S
C4293 C4294 1.414 . S
C4293 C4296 1.499 . S
C4294 H4274 0.950 . S
C4294 C4293 1.414 . S
C4294 C4295 1.374 . S
C4295 H4275 0.950 . S
C4295 C4291 1.385 . S
C4295 C4294 1.374 . S
C4296 C4293 1.499 . S
C4296 C4297 1.373 . S
C4296 C4298 1.389 . S
C4297 H4276 0.950 . S
C4297 C4296 1.373 . S
C4297 C4313 1.377 . S
C4298 C4296 1.389 . S
C4298 C4299 1.524 . S
C4298 C4312 1.377 . S
C4299 C4298 1.524 . S
C4299 C4300 1.397 . S
C4299 C4304 1.363 . S
C4300 H4277 0.950 . S
C4300 C4299 1.397 . S
C4300 C4301 1.334 . S
C4301 H4278 0.950 . S
C4301 C4300 1.334 . S
C4301 C4302 1.287 . S
C4302 C4301 1.287 . S
C4302 C4303 1.524 . S
C4302 H4321 0.913 . S
C4303 H4279 0.950 . S
C4303 C4302 1.524 . S
C4303 C4304 1.415 . S
C4304 H4280 0.950 . S
C4304 C4299 1.363 . S
C4304 C4303 1.415 . S
C4305 H4281 0.951 . S
C4305 C4306 1.366 . S
C4305 C4307 1.388 . S
C4306 C4305 1.366 . S
C4306 C4310 1.385 . S
C4307 H4282 0.951 . S
C4307 C4305 1.388 . S
C4307 C4308 1.366 . S
C4308 C4307 1.366 . S
C4308 C4309 1.414 . S
C4308 C4311 1.499 . S
C4309 H4283 0.950 . S
C4309 C4308 1.414 . S
C4309 C4310 1.374 . S
C4310 H4284 0.950 . S
C4310 C4306 1.385 . S
C4310 C4309 1.374 . S
C4311 C4308 1.499 . S
C4311 C4312 1.373 . S
C4311 C4313 1.389 . S
C4312 H4285 0.950 . S
C4312 C4298 1.377 . S
C4312 C4311 1.373 . S
C4313 C4297 1.377 . S
C4313 C4311 1.389 . S
C4313 C4314 1.524 . S
C4314 C4313 1.524 . S
C4314 C4315 1.397 . S
C4314 C4319 1.363 . S
C4315 H4286 0.950 . S
C4315 C4314 1.397 . S
C4315 C4316 1.334 . S
C4316 H4287 0.950 . S
C4316 C4315 1.334 . S
C4316 C4317 1.287 . S
C4317 C4316 1.287 . S
C4317 C4318 1.524 . S
C4317 H4320 0.999 . S
C4318 H4288 0.950 . S
C4318 C4317 1.524 . S
C4318 C4319 1.415 . S
C4319 H4289 0.950 . S
C4319 C4314 1.363 . S
C4319 C4318 1.415 . S
H4320 C4317 0.999 . S
H4321 C4302 0.913 . S
H4322 C4340 0.951 . S
H4323 C4342 0.951 . S
H4324 C4344 0.950 . S
H4325 C4345 0.950 . S
H4326 C4347 0.950 . S
H4327 C4350 0.950 . S
H4328 C4351 0.950 . S
H4329 C4353 0.950 . S
H4330 C4354 0.950 . S
H4331 C4355 0.951 . S
H4332 C4357 0.951 . S
H4333 C4359 0.950 . S
H4334 C4360 0.950 . S
H4335 C4362 0.950 . S
H4336 C4365 0.950 . S
H4337 C4366 0.950 . S
H4338 C4368 0.950 . S
H4339 C4369 0.950 . S
C4340 H4322 0.951 . S
C4340 C4341 1.366 . S
C4340 C4342 1.388 . S
C4341 C4340 1.366 . S
C4341 C4345 1.385 . S
C4342 H4323 0.951 . S
C4342 C4340 1.388 . S
C4342 C4343 1.366 . S
C4343 C4342 1.366 . S
C4343 C4344 1.414 . S
C4343 C4346 1.499 . S
C4344 H4324 0.950 . S
C4344 C4343 1.414 . S
C4344 C4345 1.374 . S
C4345 H4325 0.950 . S
C4345 C4341 1.385 . S
C4345 C4344 1.374 . S
C4346 C4343 1.499 . S
C4346 C4347 1.373 . S
C4346 C4348 1.389 . S
C4347 H4326 0.950 . S
C4347 C4346 1.373 . S
C4347 C4363 1.377 . S
C4348 C4346 1.389 . S
C4348 C4349 1.524 . S
C4348 C4362 1.377 . S
C4349 C4348 1.524 . S
C4349 C4350 1.397 . S
C4349 C4354 1.363 . S
C4350 H4327 0.950 . S
C4350 C4349 1.397 . S
C4350 C4351 1.334 . S
C4351 H4328 0.950 . S
C4351 C4350 1.334 . S
C4351 C4352 1.287 . S
C4352 C4351 1.287 . S
C4352 C4353 1.524 . S
C4352 H4371 0.913 . S
C4353 H4329 0.950 . S
C4353 C4352 1.524 . S
C4353 C4354 1.415 . S
C4354 H4330 0.950 . S
C4354 C4349 1.363 . S
C4354 C4353 1.415 . S
C4355 H4331 0.951 . S
C4355 C4356 1.366 . S
C4355 C4357 1.388 . S
C4356 C4355 1.366 . S
C4356 C4360 1.385 . S
C4357 H4332 0.951 . S
C4357 C4355 1.388 . S
C4357 C4358 1.366 . S
C4358 C4357 1.366 . S
C4358 C4359 1.414 . S
C4358 C4361 1.499 . S
C4359 H4333 0.950 . S
C4359 C4358 1.414 . S
C4359 C4360 1.374 . S
C4360 H4334 0.950 . S
C4360 C4356 1.385 . S
C4360 C4359 1.374 . S
C4361 C4358 1.499 . S
C4361 C4362 1.373 . S
C4361 C4363 1.389 . S
C4362 H4335 0.950 . S
C4362 C4348 1.377 . S
C4362 C4361 1.373 . S
C4363 C4347 1.377 . S
C4363 C4361 1.389 . S
C4363 C4364 1.524 . S
C4364 C4363 1.524 . S
C4364 C4365 1.397 . S
C4364 C4369 1.363 . S
C4365 H4336 0.950 . S
C4365 C4364 1.397 . S
C4365 C4366 1.334 . S
C4366 H4337 0.950 . S
C4366 C4365 1.334 . S
C4366 C4367 1.287 . S
C4367 C4366 1.287 . S
C4367 C4368 1.524 . S
C4367 H4370 0.999 . S
C4368 H4338 0.950 . S
C4368 C4367 1.524 . S
C4368 C4369 1.415 . S
C4369 H4339 0.950 . S
C4369 C4364 1.363 . S
C4369 C4368 1.415 . S
H4370 C4367 0.999 . S
H4371 C4352 0.913 . S
H4372 C4390 0.951 . S
H4373 C4392 0.951 . S
H4374 C4394 0.950 . S
H4375 C4395 0.950 . S
H4376 C4397 0.950 . S
H4377 C4400 0.950 . S
H4378 C4401 0.950 . S
H4379 C4403 0.950 . S
H4380 C4404 0.950 . S
H4381 C4405 0.951 . S
H4382 C4407 0.951 . S
H4383 C4409 0.950 . S
H4384 C4410 0.950 . S
H4385 C4412 0.950 . S
H4386 C4415 0.950 . S
H4387 C4416 0.950 . S
H4388 C4418 0.950 . S
H4389 C4419 0.950 . S
C4390 H4372 0.951 . S
C4390 C4391 1.366 . S
C4390 C4392 1.388 . S
C4391 C4390 1.366 . S
C4391 C4395 1.385 . S
C4392 H4373 0.951 . S
C4392 C4390 1.388 . S
C4392 C4393 1.366 . S
C4393 C4392 1.366 . S
C4393 C4394 1.414 . S
C4393 C4396 1.499 . S
C4394 H4374 0.950 . S
C4394 C4393 1.414 . S
C4394 C4395 1.374 . S
C4395 H4375 0.950 . S
C4395 C4391 1.385 . S
C4395 C4394 1.374 . S
C4396 C4393 1.499 . S
C4396 C4397 1.373 . S
C4396 C4398 1.389 . S
C4397 H4376 0.950 . S
C4397 C4396 1.373 . S
C4397 C4413 1.377 . S
C4398 C4396 1.389 . S
C4398 C4399 1.524 . S
C4398 C4412 1.377 . S
C4399 C4398 1.524 . S
C4399 C4400 1.397 . S
C4399 C4404 1.363 . S
C4400 H4377 0.950 . S
C4400 C4399 1.397 . S
C4400 C4401 1.334 . S
C4401 H4378 0.950 . S
C4401 C4400 1.334 . S
C4401 C4402 1.287 . S
C4402 C4401 1.287 . S
C4402 C4403 1.524 . S
C4402 H4421 0.913 . S
C4403 H4379 0.950 . S
C4403 C4402 1.524 . S
C4403 C4404 1.415 . S
C4404 H4380 0.950 . S
C4404 C4399 1.363 . S
C4404 C4403 1.415 . S
C4405 H4381 0.951 . S
C4405 C4406 1.366 . S
C4405 C4407 1.388 . S
C4406 C4405 1.366 . S
C4406 C4410 1.385 . S
C4407 H4382 0.951 . S
C4407 C4405 1.388 . S
C4407 C4408 1.366 . S
C4408 C4407 1.366 . S
C4408 C4409 1.414 . S
C4408 C4411 1.499 . S
C4409 H4383 0.950 . S
C4409 C4408 1.414 . S
C4409 C4410 1.374 . S
C4410 H4384 0.950 . S
C4410 C4406 1.385 . S
C4410 C4409 1.374 . S
C4411 C4408 1.499 . S
C4411 C4412 1.373 . S
C4411 C4413 1.389 . S
C4412 H4385 0.950 . S
C4412 C4398 1.377 . S
C4412 C4411 1.373 . S
C4413 C4397 1.377 . S
C4413 C4411 1.389 . S
C4413 C4414 1.524 . S
C4414 C4413 1.524 . S
C4414 C4415 1.397 . S
C4414 C4419 1.363 . S
C4415 H4386 0.950 . S
C4415 C4414 1.397 . S
C4415 C4416 1.334 . S
C4416 H4387 0.950 . S
C4416 C4415 1.334 . S
C4416 C4417 1.287 . S
C4417 C4416 1.287 . S
C4417 C4418 1.524 . S
C4417 H4420 0.999 . S
C4418 H4388 0.950 . S
C4418 C4417 1.524 . S
C4418 C4419 1.415 . S
C4419 H4389 0.950 . S
C4419 C4414 1.363 . S
C4419 C4418 1.415 . S
H4420 C4417 0.999 . S
H4421 C4402 0.913 . S
H4422 C4440 0.951 . S
H4423 C4442 0.951 . S
H4424 C4444 0.950 . S
H4425 C4445 0.950 . S
H4426 C4447 0.950 . S
H4427 C4450 0.950 . S
H4428 C4451 0.950 . S
H4429 C4453 0.959 . S
H4430 C4454 0.950 . S
H4431 C4455 0.951 . S
H4432 C4457 0.951 . S
H4433 C4459 0.950 . S
H4434 C4460 0.950 . S
H4435 C4462 0.950 . S
H4436 C4465 0.950 . S
H4437 C4466 0.950 . S
H4438 C4468 0.950 . S
H4439 C4469 0.950 . S
C4440 H4422 0.951 . S
C4440 C4441 1.366 . S
C4440 C4442 1.388 . S
C4441 C4440 1.366 . S
C4441 C4445 1.385 . S
C4442 H4423 0.951 . S
C4442 C4440 1.388 . S
C4442 C4443 1.366 . S
C4443 C4442 1.366 . S
C4443 C4444 1.414 . S
C4443 C4446 1.506 1_455 S
C4444 H4424 0.950 . S
C4444 C4443 1.414 . S
C4444 C4445 1.374 . S
C4445 H4425 0.950 . S
C4445 C4441 1.385 . S
C4445 C4444 1.374 . S
C4446 C4443 1.506 1_655 S
C4446 C4447 1.369 . S
C4446 C4448 1.385 . S
C4447 H4426 0.950 . S
C4447 C4446 1.369 . S
C4447 C4463 1.377 . S
C4448 C4446 1.385 . S
C4448 C4449 1.524 1_655 S
C4448 C4462 1.377 . S
C4449 C4448 1.524 1_455 S
C4449 C4450 1.397 . S
C4449 C4454 1.363 1_455 S
C4450 H4427 0.950 . S
C4450 C4449 1.397 . S
C4450 C4451 1.334 . S
C4451 H4428 0.950 . S
C4451 C4450 1.334 . S
C4451 C4452 1.287 . S
C4452 C4451 1.287 . S
C4452 C4453 1.524 . S
C4452 H4471 0.913 . S
C4453 H4429 0.959 . S
C4453 C4452 1.524 . S
C4453 C4454 1.415 1_455 S
C4454 H4430 0.950 . S
C4454 C4449 1.363 1_655 S
C4454 C4453 1.415 1_655 S
C4455 H4431 0.951 . S
C4455 C4456 1.366 . S
C4455 C4457 1.388 . S
C4456 C4455 1.366 . S
C4456 C4460 1.385 . S
C4457 H4432 0.951 . S
C4457 C4455 1.388 . S
C4457 C4458 1.366 . S
C4458 C4457 1.366 . S
C4458 C4459 1.414 . S
C4458 C4461 1.499 . S
C4459 H4433 0.950 . S
C4459 C4458 1.414 . S
C4459 C4460 1.374 . S
C4460 H4434 0.950 . S
C4460 C4456 1.385 . S
C4460 C4459 1.374 . S
C4461 C4458 1.499 . S
C4461 C4462 1.373 . S
C4461 C4463 1.389 . S
C4462 H4435 0.950 . S
C4462 C4448 1.377 . S
C4462 C4461 1.373 . S
C4463 C4447 1.377 . S
C4463 C4461 1.389 . S
C4463 C4464 1.524 . S
C4464 C4463 1.524 . S
C4464 C4465 1.397 . S
C4464 C4469 1.363 . S
C4465 H4436 0.950 . S
C4465 C4464 1.397 . S
C4465 C4466 1.334 . S
C4466 H4437 0.950 . S
C4466 C4465 1.334 . S
C4466 C4467 1.287 . S
C4467 C4466 1.287 . S
C4467 C4468 1.524 . S
C4467 H4470 0.999 . S
C4468 H4438 0.950 . S
C4468 C4467 1.524 . S
C4468 C4469 1.415 . S
C4469 H4439 0.950 . S
C4469 C4464 1.363 . S
C4469 C4468 1.415 . S
H4470 C4467 0.999 . S
H4471 C4452 0.913 . S
H4472 C4490 0.951 . S
H4473 C4492 0.951 . S
H4474 C4494 0.950 . S
H4475 C4495 0.950 . S
H4476 C4497 0.950 . S
H4477 C4500 0.950 . S
H4478 C4501 0.950 . S
H4479 C4503 0.950 . S
H4480 C4504 0.950 . S
H4481 C4505 0.951 . S
H4482 C4507 0.951 . S
H4483 C4509 0.950 . S
H4484 C4510 0.950 . S
H4485 C4512 0.950 . S
H4486 C4515 0.950 . S
H4487 C4516 0.950 . S
H4488 C4518 0.950 . S
H4489 C4519 0.950 . S
C4490 H4472 0.951 . S
C4490 C4491 1.366 . S
C4490 C4492 1.388 . S
C4491 C4490 1.366 . S
C4491 C4495 1.385 . S
C4492 H4473 0.951 . S
C4492 C4490 1.388 . S
C4492 C4493 1.366 . S
C4493 C4492 1.366 . S
C4493 C4494 1.414 . S
C4493 C4496 1.499 . S
C4494 H4474 0.950 . S
C4494 C4493 1.414 . S
C4494 C4495 1.374 . S
C4495 H4475 0.950 . S
C4495 C4491 1.385 . S
C4495 C4494 1.374 . S
C4496 C4493 1.499 . S
C4496 C4497 1.373 . S
C4496 C4498 1.389 . S
C4497 H4476 0.950 . S
C4497 C4496 1.373 . S
C4497 C4513 1.377 . S
C4498 C4496 1.389 . S
C4498 C4499 1.524 . S
C4498 C4512 1.377 . S
C4499 C4498 1.524 . S
C4499 C4500 1.397 . S
C4499 C4504 1.363 . S
C4500 H4477 0.950 . S
C4500 C4499 1.397 . S
C4500 C4501 1.334 . S
C4501 H4478 0.950 . S
C4501 C4500 1.334 . S
C4501 C4502 1.287 . S
C4502 C4501 1.287 . S
C4502 C4503 1.524 . S
C4502 H4521 0.913 . S
C4503 H4479 0.950 . S
C4503 C4502 1.524 . S
C4503 C4504 1.415 . S
C4504 H4480 0.950 . S
C4504 C4499 1.363 . S
C4504 C4503 1.415 . S
C4505 H4481 0.951 . S
C4505 C4506 1.366 . S
C4505 C4507 1.388 . S
C4506 C4505 1.366 . S
C4506 C4510 1.385 . S
C4507 H4482 0.951 . S
C4507 C4505 1.388 . S
C4507 C4508 1.366 . S
C4508 C4507 1.366 . S
C4508 C4509 1.414 . S
C4508 C4511 1.499 . S
C4509 H4483 0.950 . S
C4509 C4508 1.414 . S
C4509 C4510 1.374 . S
C4510 H4484 0.950 . S
C4510 C4506 1.385 . S
C4510 C4509 1.374 . S
C4511 C4508 1.499 . S
C4511 C4512 1.373 . S
C4511 C4513 1.389 . S
C4512 H4485 0.950 . S
C4512 C4498 1.377 . S
C4512 C4511 1.373 . S
C4513 C4497 1.377 . S
C4513 C4511 1.389 . S
C4513 C4514 1.524 . S
C4514 C4513 1.524 . S
C4514 C4515 1.397 . S
C4514 C4519 1.363 . S
C4515 H4486 0.950 . S
C4515 C4514 1.397 . S
C4515 C4516 1.334 . S
C4516 H4487 0.950 . S
C4516 C4515 1.334 . S
C4516 C4517 1.287 . S
C4517 C4516 1.287 . S
C4517 C4518 1.524 . S
C4517 H4520 0.999 . S
C4518 H4488 0.950 . S
C4518 C4517 1.524 . S
C4518 C4519 1.415 . S
C4519 H4489 0.950 . S
C4519 C4514 1.363 . S
C4519 C4518 1.415 . S
H4520 C4517 0.999 . S
H4521 C4502 0.913 . S
H4522 C4540 0.951 . S
H4523 C4542 0.951 . S
H4524 C4544 0.950 . S
H4525 C4545 0.950 . S
H4526 C4547 0.966 . S
H4527 C4550 0.950 . S
H4528 C4551 0.950 . S
H4529 C4553 0.950 . S
H4530 C4554 0.950 . S
H4531 C4555 0.951 . S
H4532 C4557 0.951 . S
H4533 C4559 0.950 . S
H4534 C4560 0.950 . S
H4535 C4562 0.950 . S
H4536 C4565 0.950 . S
H4537 C4566 0.950 . S
H4538 C4568 0.950 . S
H4539 C4569 0.950 . S
C4540 H4522 0.951 . S
C4540 C4541 1.366 . S
C4540 C4542 1.388 . S
C4541 C4540 1.366 . S
C4541 C4545 1.385 . S
C4542 H4523 0.951 . S
C4542 C4540 1.388 . S
C4542 C4543 1.366 . S
C4543 C4542 1.366 . S
C4543 C4544 1.414 . S
C4543 C4546 1.462 1_455 S
C4544 H4524 0.950 . S
C4544 C4543 1.414 . S
C4544 C4545 1.374 . S
C4545 H4525 0.950 . S
C4545 C4541 1.385 . S
C4545 C4544 1.374 . S
C4546 C4543 1.462 1_655 S
C4546 C4547 1.389 . S
C4546 C4548 1.412 . S
C4547 H4526 0.966 . S
C4547 C4546 1.389 . S
C4547 C4563 1.377 . S
C4548 C4546 1.412 . S
C4548 C4549 1.524 . S
C4548 C4562 1.377 . S
C4549 C4548 1.524 . S
C4549 C4550 1.397 1_655 S
C4549 C4554 1.363 . S
C4550 H4527 0.950 . S
C4550 C4549 1.397 1_455 S
C4550 C4551 1.334 . S
C4551 H4528 0.950 . S
C4551 C4550 1.334 . S
C4551 C4552 1.287 . S
C4552 C4551 1.287 . S
C4552 C4553 1.524 1_455 S
C4552 H4571 0.913 . S
C4553 H4529 0.950 . S
C4553 C4552 1.524 1_655 S
C4553 C4554 1.415 . S
C4554 H4530 0.950 . S
C4554 C4549 1.363 . S
C4554 C4553 1.415 . S
C4555 H4531 0.951 . S
C4555 C4556 1.366 . S
C4555 C4557 1.388 . S
C4556 C4555 1.366 . S
C4556 C4560 1.385 . S
C4557 H4532 0.951 . S
C4557 C4555 1.388 . S
C4557 C4558 1.366 . S
C4558 C4557 1.366 . S
C4558 C4559 1.414 . S
C4558 C4561 1.499 . S
C4559 H4533 0.950 . S
C4559 C4558 1.414 . S
C4559 C4560 1.374 . S
C4560 H4534 0.950 . S
C4560 C4556 1.385 . S
C4560 C4559 1.374 . S
C4561 C4558 1.499 . S
C4561 C4562 1.373 . S
C4561 C4563 1.389 . S
C4562 H4535 0.950 . S
C4562 C4548 1.377 . S
C4562 C4561 1.373 . S
C4563 C4547 1.377 . S
C4563 C4561 1.389 . S
C4563 C4564 1.524 . S
C4564 C4563 1.524 . S
C4564 C4565 1.397 . S
C4564 C4569 1.363 . S
C4565 H4536 0.950 . S
C4565 C4564 1.397 . S
C4565 C4566 1.334 . S
C4566 H4537 0.950 . S
C4566 C4565 1.334 . S
C4566 C4567 1.287 . S
C4567 C4566 1.287 . S
C4567 C4568 1.524 . S
C4567 H4570 0.999 . S
C4568 H4538 0.950 . S
C4568 C4567 1.524 . S
C4568 C4569 1.415 . S
C4569 H4539 0.950 . S
C4569 C4564 1.363 . S
C4569 C4568 1.415 . S
H4570 C4567 0.999 . S
H4571 C4552 0.913 . S
H4572 C4590 0.951 . S
H4573 C4592 0.951 . S
H4574 C4594 0.950 . S
H4575 C4595 0.950 . S
H4576 C4597 0.950 . S
H4577 C4600 0.950 . S
H4578 C4601 0.950 . S
H4579 C4603 0.950 . S
H4580 C4604 0.950 . S
H4581 C4605 0.951 . S
H4582 C4607 0.951 . S
H4583 C4609 0.950 . S
H4584 C4610 0.950 . S
H4585 C4612 0.950 . S
H4586 C4615 0.950 . S
H4587 C4616 0.950 . S
H4588 C4618 0.950 . S
H4589 C4619 0.950 . S
C4590 H4572 0.951 . S
C4590 C4591 1.366 . S
C4590 C4592 1.388 . S
C4591 C4590 1.366 . S
C4591 C4595 1.385 . S
C4592 H4573 0.951 . S
C4592 C4590 1.388 . S
C4592 C4593 1.366 . S
C4593 C4592 1.366 . S
C4593 C4594 1.414 . S
C4593 C4596 1.499 . S
C4594 H4574 0.950 . S
C4594 C4593 1.414 . S
C4594 C4595 1.374 . S
C4595 H4575 0.950 . S
C4595 C4591 1.385 . S
C4595 C4594 1.374 . S
C4596 C4593 1.499 . S
C4596 C4597 1.373 . S
C4596 C4598 1.389 . S
C4597 H4576 0.950 . S
C4597 C4596 1.373 . S
C4597 C4613 1.377 . S
C4598 C4596 1.389 . S
C4598 C4599 1.524 . S
C4598 C4612 1.377 . S
C4599 C4598 1.524 . S
C4599 C4600 1.397 . S
C4599 C4604 1.363 . S
C4600 H4577 0.950 . S
C4600 C4599 1.397 . S
C4600 C4601 1.334 . S
C4601 H4578 0.950 . S
C4601 C4600 1.334 . S
C4601 C4602 1.287 . S
C4602 C4601 1.287 . S
C4602 C4603 1.524 . S
C4602 H4621 0.913 . S
C4603 H4579 0.950 . S
C4603 C4602 1.524 . S
C4603 C4604 1.415 . S
C4604 H4580 0.950 . S
C4604 C4599 1.363 . S
C4604 C4603 1.415 . S
C4605 H4581 0.951 . S
C4605 C4606 1.366 . S
C4605 C4607 1.388 . S
C4606 C4605 1.366 . S
C4606 C4610 1.385 . S
C4607 H4582 0.951 . S
C4607 C4605 1.388 . S
C4607 C4608 1.366 . S
C4608 C4607 1.366 . S
C4608 C4609 1.414 . S
C4608 C4611 1.499 . S
C4609 H4583 0.950 . S
C4609 C4608 1.414 . S
C4609 C4610 1.374 . S
C4610 H4584 0.950 . S
C4610 C4606 1.385 . S
C4610 C4609 1.374 . S
C4611 C4608 1.499 . S
C4611 C4612 1.373 . S
C4611 C4613 1.389 . S
C4612 H4585 0.950 . S
C4612 C4598 1.377 . S
C4612 C4611 1.373 . S
C4613 C4597 1.377 . S
C4613 C4611 1.389 . S
C4613 C4614 1.524 . S
C4614 C4613 1.524 . S
C4614 C4615 1.397 . S
C4614 C4619 1.363 . S
C4615 H4586 0.950 . S
C4615 C4614 1.397 . S
C4615 C4616 1.334 . S
C4616 H4587 0.950 . S
C4616 C4615 1.334 . S
C4616 C4617 1.287 . S
C4617 C4616 1.287 . S
C4617 C4618 1.524 . S
C4617 H4620 0.999 . S
C4618 H4588 0.950 . S
C4618 C4617 1.524 . S
C4618 C4619 1.415 . S
C4619 H4589 0.950 . S
C4619 C4614 1.363 . S
C4619 C4618 1.415 . S
H4620 C4617 0.999 . S
H4621 C4602 0.913 . S
H4622 C4640 0.951 . S
H4623 C4642 0.951 . S
H4624 C4644 0.950 . S
H4625 C4645 0.950 . S
H4626 C4647 0.950 . S
H4627 C4650 0.950 . S
H4628 C4651 0.950 . S
H4629 C4653 0.950 . S
H4630 C4654 0.950 . S
H4631 C4655 0.951 . S
H4632 C4657 0.951 . S
H4633 C4659 0.950 . S
H4634 C4660 0.950 . S
H4635 C4662 0.950 . S
H4636 C4665 0.950 . S
H4637 C4666 0.950 . S
H4638 C4668 0.950 . S
H4639 C4669 0.950 . S
C4640 H4622 0.951 . S
C4640 C4641 1.366 . S
C4640 C4642 1.388 . S
C4641 C4640 1.366 . S
C4641 C4645 1.385 . S
C4642 H4623 0.951 . S
C4642 C4640 1.388 . S
C4642 C4643 1.366 . S
C4643 C4642 1.366 . S
C4643 C4644 1.414 . S
C4643 C4646 1.499 . S
C4644 H4624 0.950 . S
C4644 C4643 1.414 . S
C4644 C4645 1.374 . S
C4645 H4625 0.950 . S
C4645 C4641 1.385 . S
C4645 C4644 1.374 . S
C4646 C4643 1.499 . S
C4646 C4647 1.373 . S
C4646 C4648 1.389 . S
C4647 H4626 0.950 . S
C4647 C4646 1.373 . S
C4647 C4663 1.377 . S
C4648 C4646 1.389 . S
C4648 C4649 1.524 . S
C4648 C4662 1.377 . S
C4649 C4648 1.524 . S
C4649 C4650 1.397 . S
C4649 C4654 1.363 . S
C4650 H4627 0.950 . S
C4650 C4649 1.397 . S
C4650 C4651 1.334 . S
C4651 H4628 0.950 . S
C4651 C4650 1.334 . S
C4651 C4652 1.287 . S
C4652 C4651 1.287 . S
C4652 C4653 1.524 . S
C4652 H4671 0.913 . S
C4653 H4629 0.950 . S
C4653 C4652 1.524 . S
C4653 C4654 1.415 . S
C4654 H4630 0.950 . S
C4654 C4649 1.363 . S
C4654 C4653 1.415 . S
C4655 H4631 0.951 . S
C4655 C4656 1.366 . S
C4655 C4657 1.388 . S
C4656 C4655 1.366 . S
C4656 C4660 1.385 . S
C4657 H4632 0.951 . S
C4657 C4655 1.388 . S
C4657 C4658 1.366 . S
C4658 C4657 1.366 . S
C4658 C4659 1.414 . S
C4658 C4661 1.499 . S
C4659 H4633 0.950 . S
C4659 C4658 1.414 . S
C4659 C4660 1.374 . S
C4660 H4634 0.950 . S
C4660 C4656 1.385 . S
C4660 C4659 1.374 . S
C4661 C4658 1.499 . S
C4661 C4662 1.373 . S
C4661 C4663 1.389 . S
C4662 H4635 0.950 . S
C4662 C4648 1.377 . S
C4662 C4661 1.373 . S
C4663 C4647 1.377 . S
C4663 C4661 1.389 . S
C4663 C4664 1.524 . S
C4664 C4663 1.524 . S
C4664 C4665 1.397 . S
C4664 C4669 1.363 . S
C4665 H4636 0.950 . S
C4665 C4664 1.397 . S
C4665 C4666 1.334 . S
C4666 H4637 0.950 . S
C4666 C4665 1.334 . S
C4666 C4667 1.287 . S
C4667 C4666 1.287 . S
C4667 C4668 1.524 . S
C4667 H4670 0.999 . S
C4668 H4638 0.950 . S
C4668 C4667 1.524 . S
C4668 C4669 1.415 . S
C4669 H4639 0.950 . S
C4669 C4664 1.363 . S
C4669 C4668 1.415 . S
H4670 C4667 0.999 . S
H4671 C4652 0.913 . S
H4672 C4690 0.951 . S
H4673 C4692 0.951 . S
H4674 C4694 0.950 . S
H4675 C4695 0.950 . S
H4676 C4697 0.950 . S
H4677 C4700 0.950 . S
H4678 C4701 0.950 . S
H4679 C4703 0.950 . S
H4680 C4704 0.950 . S
H4681 C4705 0.951 . S
H4682 C4707 0.951 . S
H4683 C4709 0.950 . S
H4684 C4710 0.950 . S
H4685 C4712 0.950 . S
H4686 C4715 0.950 . S
H4687 C4716 0.950 . S
H4688 C4718 0.950 . S
H4689 C4719 0.950 . S
C4690 H4672 0.951 . S
C4690 C4691 1.366 . S
C4690 C4692 1.388 . S
C4691 C4690 1.366 . S
C4691 C4695 1.385 . S
C4692 H4673 0.951 . S
C4692 C4690 1.388 . S
C4692 C4693 1.366 . S
C4693 C4692 1.366 . S
C4693 C4694 1.414 . S
C4693 C4696 1.499 . S
C4694 H4674 0.950 . S
C4694 C4693 1.414 . S
C4694 C4695 1.374 . S
C4695 H4675 0.950 . S
C4695 C4691 1.385 . S
C4695 C4694 1.374 . S
C4696 C4693 1.499 . S
C4696 C4697 1.373 . S
C4696 C4698 1.389 . S
C4697 H4676 0.950 . S
C4697 C4696 1.373 . S
C4697 C4713 1.377 . S
C4698 C4696 1.389 . S
C4698 C4699 1.524 . S
C4698 C4712 1.377 . S
C4699 C4698 1.524 . S
C4699 C4700 1.397 . S
C4699 C4704 1.363 . S
C4700 H4677 0.950 . S
C4700 C4699 1.397 . S
C4700 C4701 1.334 . S
C4701 H4678 0.950 . S
C4701 C4700 1.334 . S
C4701 C4702 1.287 . S
C4702 C4701 1.287 . S
C4702 C4703 1.524 . S
C4702 H4721 0.913 . S
C4703 H4679 0.950 . S
C4703 C4702 1.524 . S
C4703 C4704 1.415 . S
C4704 H4680 0.950 . S
C4704 C4699 1.363 . S
C4704 C4703 1.415 . S
C4705 H4681 0.951 . S
C4705 C4706 1.366 . S
C4705 C4707 1.388 . S
C4706 C4705 1.366 . S
C4706 C4710 1.385 . S
C4707 H4682 0.951 . S
C4707 C4705 1.388 . S
C4707 C4708 1.366 . S
C4708 C4707 1.366 . S
C4708 C4709 1.414 . S
C4708 C4711 1.499 . S
C4709 H4683 0.950 . S
C4709 C4708 1.414 . S
C4709 C4710 1.374 . S
C4710 H4684 0.950 . S
C4710 C4706 1.385 . S
C4710 C4709 1.374 . S
C4711 C4708 1.499 . S
C4711 C4712 1.373 . S
C4711 C4713 1.389 . S
C4712 H4685 0.950 . S
C4712 C4698 1.377 . S
C4712 C4711 1.373 . S
C4713 C4697 1.377 . S
C4713 C4711 1.389 . S
C4713 C4714 1.524 . S
C4714 C4713 1.524 . S
C4714 C4715 1.397 . S
C4714 C4719 1.363 . S
C4715 H4686 0.950 . S
C4715 C4714 1.397 . S
C4715 C4716 1.334 . S
C4716 H4687 0.950 . S
C4716 C4715 1.334 . S
C4716 C4717 1.287 . S
C4717 C4716 1.287 . S
C4717 C4718 1.524 . S
C4717 H4720 0.999 . S
C4718 H4688 0.950 . S
C4718 C4717 1.524 . S
C4718 C4719 1.415 . S
C4719 H4689 0.950 . S
C4719 C4714 1.363 . S
C4719 C4718 1.415 . S
H4720 C4717 0.999 . S
H4721 C4702 0.913 . S
H4722 C4740 0.951 . S
H4723 C4742 0.951 . S
H4724 C4744 0.950 . S
H4725 C4745 0.950 . S
H4726 C4747 0.950 . S
H4727 C4750 0.950 . S
H4728 C4751 0.950 . S
H4729 C4753 0.950 . S
H4730 C4754 0.950 . S
H4731 C4755 0.951 . S
H4732 C4757 0.951 . S
H4733 C4759 0.950 . S
H4734 C4760 0.950 . S
H4735 C4762 0.950 1_554 S
H4736 C4765 0.950 . S
H4737 C4766 0.950 . S
H4738 C4768 0.950 . S
H4739 C4769 0.950 . S
C4740 H4722 0.951 . S
C4740 C4741 1.366 . S
C4740 C4742 1.388 . S
C4741 C4740 1.366 . S
C4741 C4745 1.385 . S
C4742 H4723 0.951 . S
C4742 C4740 1.388 . S
C4742 C4743 1.366 . S
C4743 C4742 1.366 . S
C4743 C4744 1.414 . S
C4743 C4746 1.499 . S
C4744 H4724 0.950 . S
C4744 C4743 1.414 . S
C4744 C4745 1.374 . S
C4745 H4725 0.950 . S
C4745 C4741 1.385 . S
C4745 C4744 1.374 . S
C4746 C4743 1.499 . S
C4746 C4747 1.373 . S
C4746 C4748 1.389 . S
C4747 H4726 0.950 . S
C4747 C4746 1.373 . S
C4747 C4763 1.377 . S
C4748 C4746 1.389 . S
C4748 C4749 1.524 . S
C4748 C4762 1.377 . S
C4749 C4748 1.524 . S
C4749 C4750 1.397 . S
C4749 C4754 1.363 . S
C4750 H4727 0.950 . S
C4750 C4749 1.397 . S
C4750 C4751 1.334 . S
C4751 H4728 0.950 . S
C4751 C4750 1.334 . S
C4751 C4752 1.287 . S
C4752 C4751 1.287 . S
C4752 C4753 1.524 . S
C4752 H4771 0.913 . S
C4753 H4729 0.950 . S
C4753 C4752 1.524 . S
C4753 C4754 1.415 . S
C4754 H4730 0.950 . S
C4754 C4749 1.363 . S
C4754 C4753 1.415 . S
C4755 H4731 0.951 . S
C4755 C4756 1.366 . S
C4755 C4757 1.388 . S
C4756 C4755 1.366 . S
C4756 C4760 1.385 . S
C4757 H4732 0.951 . S
C4757 C4755 1.388 . S
C4757 C4758 1.366 . S
C4758 C4757 1.366 . S
C4758 C4759 1.414 . S
C4758 C4761 1.529 . S
C4759 H4733 0.950 . S
C4759 C4758 1.414 . S
C4759 C4760 1.374 . S
C4760 H4734 0.950 . S
C4760 C4756 1.385 . S
C4760 C4759 1.374 . S
C4761 C4758 1.529 . S
C4761 C4762 1.365 1_554 S
C4761 C4763 1.367 1_554 S
C4762 H4735 0.950 1_556 S
C4762 C4748 1.377 . S
C4762 C4761 1.365 1_556 S
C4763 C4747 1.377 . S
C4763 C4761 1.367 1_556 S
C4763 C4764 1.524 . S
C4764 C4763 1.524 . S
C4764 C4765 1.397 1_556 S
C4764 C4769 1.363 . S
C4765 H4736 0.950 . S
C4765 C4764 1.397 1_554 S
C4765 C4766 1.334 . S
C4766 H4737 0.950 . S
C4766 C4765 1.334 . S
C4766 C4767 1.287 1_554 S
C4767 C4766 1.287 1_556 S
C4767 C4768 1.524 . S
C4767 H4770 0.993 1_556 S
C4768 H4738 0.950 . S
C4768 C4767 1.524 . S
C4768 C4769 1.415 . S
C4769 H4739 0.950 . S
C4769 C4764 1.363 . S
C4769 C4768 1.415 . S
H4770 C4767 0.993 1_554 S
H4771 C4752 0.913 . S
H4772 C4790 0.951 . S
H4773 C4792 0.951 . S
H4774 C4794 0.950 . S
H4775 C4795 0.950 . S
H4776 C4797 0.950 . S
H4777 C4800 0.950 . S
H4778 C4801 0.950 . S
H4779 C4803 0.950 . S
H4780 C4804 0.950 . S
H4781 C4805 0.951 . S
H4782 C4807 0.951 . S
H4783 C4809 0.950 . S
H4784 C4810 0.950 . S
H4785 C4812 0.950 . S
H4786 C4815 0.950 . S
H4787 C4816 0.950 . S
H4788 C4818 0.950 . S
H4789 C4819 0.950 . S
C4790 H4772 0.951 . S
C4790 C4791 1.366 . S
C4790 C4792 1.388 . S
C4791 C4790 1.366 . S
C4791 C4795 1.385 . S
C4792 H4773 0.951 . S
C4792 C4790 1.388 . S
C4792 C4793 1.366 . S
C4793 C4792 1.366 . S
C4793 C4794 1.414 . S
C4793 C4796 1.499 . S
C4794 H4774 0.950 . S
C4794 C4793 1.414 . S
C4794 C4795 1.374 . S
C4795 H4775 0.950 . S
C4795 C4791 1.385 . S
C4795 C4794 1.374 . S
C4796 C4793 1.499 . S
C4796 C4797 1.373 . S
C4796 C4798 1.389 . S
C4797 H4776 0.950 . S
C4797 C4796 1.373 . S
C4797 C4813 1.377 . S
C4798 C4796 1.389 . S
C4798 C4799 1.524 . S
C4798 C4812 1.377 . S
C4799 C4798 1.524 . S
C4799 C4800 1.397 . S
C4799 C4804 1.363 . S
C4800 H4777 0.950 . S
C4800 C4799 1.397 . S
C4800 C4801 1.334 . S
C4801 H4778 0.950 . S
C4801 C4800 1.334 . S
C4801 C4802 1.287 . S
C4802 C4801 1.287 . S
C4802 C4803 1.524 . S
C4802 H4821 0.913 . S
C4803 H4779 0.950 . S
C4803 C4802 1.524 . S
C4803 C4804 1.415 . S
C4804 H4780 0.950 . S
C4804 C4799 1.363 . S
C4804 C4803 1.415 . S
C4805 H4781 0.951 . S
C4805 C4806 1.366 . S
C4805 C4807 1.388 . S
C4806 C4805 1.366 . S
C4806 C4810 1.385 . S
C4807 H4782 0.951 . S
C4807 C4805 1.388 . S
C4807 C4808 1.366 . S
C4808 C4807 1.366 . S
C4808 C4809 1.414 . S
C4808 C4811 1.499 . S
C4809 H4783 0.950 . S
C4809 C4808 1.414 . S
C4809 C4810 1.374 . S
C4810 H4784 0.950 . S
C4810 C4806 1.385 . S
C4810 C4809 1.374 . S
C4811 C4808 1.499 . S
C4811 C4812 1.373 . S
C4811 C4813 1.389 . S
C4812 H4785 0.950 . S
C4812 C4798 1.377 . S
C4812 C4811 1.373 . S
C4813 C4797 1.377 . S
C4813 C4811 1.389 . S
C4813 C4814 1.524 . S
C4814 C4813 1.524 . S
C4814 C4815 1.397 . S
C4814 C4819 1.363 . S
C4815 H4786 0.950 . S
C4815 C4814 1.397 . S
C4815 C4816 1.334 . S
C4816 H4787 0.950 . S
C4816 C4815 1.334 . S
C4816 C4817 1.287 . S
C4817 C4816 1.287 . S
C4817 C4818 1.524 . S
C4817 H4820 0.999 . S
C4818 H4788 0.950 . S
C4818 C4817 1.524 . S
C4818 C4819 1.415 . S
C4819 H4789 0.950 . S
C4819 C4814 1.363 . S
C4819 C4818 1.415 . S
H4820 C4817 0.999 . S
H4821 C4802 0.913 . S
H4822 C4840 0.951 . S
H4823 C4842 0.951 . S
H4824 C4844 0.950 . S
H4825 C4845 0.950 . S
H4826 C4847 0.950 . S
H4827 C4850 0.950 . S
H4828 C4851 0.950 . S
H4829 C4853 0.950 . S
H4830 C4854 0.950 . S
H4831 C4855 0.951 . S
H4832 C4857 0.951 . S
H4833 C4859 0.950 . S
H4834 C4860 0.950 . S
H4835 C4862 0.950 . S
H4836 C4865 0.950 . S
H4837 C4866 0.950 . S
H4838 C4868 0.950 . S
H4839 C4869 0.950 . S
C4840 H4822 0.951 . S
C4840 C4841 1.366 . S
C4840 C4842 1.388 . S
C4841 C4840 1.366 . S
C4841 C4845 1.385 . S
C4842 H4823 0.951 . S
C4842 C4840 1.388 . S
C4842 C4843 1.366 . S
C4843 C4842 1.366 . S
C4843 C4844 1.414 . S
C4843 C4846 1.499 . S
C4844 H4824 0.950 . S
C4844 C4843 1.414 . S
C4844 C4845 1.374 . S
C4845 H4825 0.950 . S
C4845 C4841 1.385 . S
C4845 C4844 1.374 . S
C4846 C4843 1.499 . S
C4846 C4847 1.373 . S
C4846 C4848 1.389 . S
C4847 H4826 0.950 . S
C4847 C4846 1.373 . S
C4847 C4863 1.377 . S
C4848 C4846 1.389 . S
C4848 C4849 1.524 . S
C4848 C4862 1.377 . S
C4849 C4848 1.524 . S
C4849 C4850 1.397 . S
C4849 C4854 1.363 . S
C4850 H4827 0.950 . S
C4850 C4849 1.397 . S
C4850 C4851 1.334 . S
C4851 H4828 0.950 . S
C4851 C4850 1.334 . S
C4851 C4852 1.287 . S
C4852 C4851 1.287 . S
C4852 C4853 1.524 . S
C4852 H4871 0.913 . S
C4853 H4829 0.950 . S
C4853 C4852 1.524 . S
C4853 C4854 1.415 . S
C4854 H4830 0.950 . S
C4854 C4849 1.363 . S
C4854 C4853 1.415 . S
C4855 H4831 0.951 . S
C4855 C4856 1.366 . S
C4855 C4857 1.388 . S
C4856 C4855 1.366 . S
C4856 C4860 1.385 . S
C4857 H4832 0.951 . S
C4857 C4855 1.388 . S
C4857 C4858 1.366 . S
C4858 C4857 1.366 . S
C4858 C4859 1.414 . S
C4858 C4861 1.499 . S
C4859 H4833 0.950 . S
C4859 C4858 1.414 . S
C4859 C4860 1.374 . S
C4860 H4834 0.950 . S
C4860 C4856 1.385 . S
C4860 C4859 1.374 . S
C4861 C4858 1.499 . S
C4861 C4862 1.373 . S
C4861 C4863 1.389 . S
C4862 H4835 0.950 . S
C4862 C4848 1.377 . S
C4862 C4861 1.373 . S
C4863 C4847 1.377 . S
C4863 C4861 1.389 . S
C4863 C4864 1.524 . S
C4864 C4863 1.524 . S
C4864 C4865 1.397 . S
C4864 C4869 1.363 . S
C4865 H4836 0.950 . S
C4865 C4864 1.397 . S
C4865 C4866 1.334 . S
C4866 H4837 0.950 . S
C4866 C4865 1.334 . S
C4866 C4867 1.287 . S
C4867 C4866 1.287 . S
C4867 C4868 1.524 . S
C4867 H4870 0.999 . S
C4868 H4838 0.950 . S
C4868 C4867 1.524 . S
C4868 C4869 1.415 . S
C4869 H4839 0.950 . S
C4869 C4864 1.363 . S
C4869 C4868 1.415 . S
H4870 C4867 0.999 . S
H4871 C4852 0.913 . S
H4872 C4890 0.951 . S
H4873 C4892 0.951 . S
H4874 C4894 0.950 . S
H4875 C4895 0.950 . S
H4876 C4897 0.950 . S
H4877 C4900 0.950 . S
H4878 C4901 0.950 . S
H4879 C4903 0.950 . S
H4880 C4904 0.950 . S
H4881 C4905 0.951 . S
H4882 C4907 0.951 . S
H4883 C4909 0.950 . S
H4884 C4910 0.950 . S
H4885 C4912 0.950 . S
H4886 C4915 0.950 . S
H4887 C4916 0.950 . S
H4888 C4918 0.950 . S
H4889 C4919 0.950 . S
C4890 H4872 0.951 . S
C4890 C4891 1.366 . S
C4890 C4892 1.388 . S
C4891 C4890 1.366 . S
C4891 C4895 1.385 . S
C4892 H4873 0.951 . S
C4892 C4890 1.388 . S
C4892 C4893 1.366 . S
C4893 C4892 1.366 . S
C4893 C4894 1.414 . S
C4893 C4896 1.499 . S
C4894 H4874 0.950 . S
C4894 C4893 1.414 . S
C4894 C4895 1.374 . S
C4895 H4875 0.950 . S
C4895 C4891 1.385 . S
C4895 C4894 1.374 . S
C4896 C4893 1.499 . S
C4896 C4897 1.373 . S
C4896 C4898 1.389 . S
C4897 H4876 0.950 . S
C4897 C4896 1.373 . S
C4897 C4913 1.377 . S
C4898 C4896 1.389 . S
C4898 C4899 1.524 . S
C4898 C4912 1.377 . S
C4899 C4898 1.524 . S
C4899 C4900 1.397 . S
C4899 C4904 1.363 . S
C4900 H4877 0.950 . S
C4900 C4899 1.397 . S
C4900 C4901 1.334 . S
C4901 H4878 0.950 . S
C4901 C4900 1.334 . S
C4901 C4902 1.287 . S
C4902 C4901 1.287 . S
C4902 C4903 1.524 . S
C4902 H4921 0.913 . S
C4903 H4879 0.950 . S
C4903 C4902 1.524 . S
C4903 C4904 1.415 . S
C4904 H4880 0.950 . S
C4904 C4899 1.363 . S
C4904 C4903 1.415 . S
C4905 H4881 0.951 . S
C4905 C4906 1.366 . S
C4905 C4907 1.388 . S
C4906 C4905 1.366 . S
C4906 C4910 1.385 . S
C4907 H4882 0.951 . S
C4907 C4905 1.388 . S
C4907 C4908 1.366 . S
C4908 C4907 1.366 . S
C4908 C4909 1.414 . S
C4908 C4911 1.499 . S
C4909 H4883 0.950 . S
C4909 C4908 1.414 . S
C4909 C4910 1.374 . S
C4910 H4884 0.950 . S
C4910 C4906 1.385 . S
C4910 C4909 1.374 . S
C4911 C4908 1.499 . S
C4911 C4912 1.373 . S
C4911 C4913 1.389 . S
C4912 H4885 0.950 . S
C4912 C4898 1.377 . S
C4912 C4911 1.373 . S
C4913 C4897 1.377 . S
C4913 C4911 1.389 . S
C4913 C4914 1.524 . S
C4914 C4913 1.524 . S
C4914 C4915 1.397 . S
C4914 C4919 1.363 . S
C4915 H4886 0.950 . S
C4915 C4914 1.397 . S
C4915 C4916 1.334 . S
C4916 H4887 0.950 . S
C4916 C4915 1.334 . S
C4916 C4917 1.287 . S
C4917 C4916 1.287 . S
C4917 C4918 1.524 . S
C4917 H4920 0.999 . S
C4918 H4888 0.950 . S
C4918 C4917 1.524 . S
C4918 C4919 1.415 . S
C4919 H4889 0.950 . S
C4919 C4914 1.363 . S
C4919 C4918 1.415 . S
H4920 C4917 0.999 . S
H4921 C4902 0.913 . S
H4922 C4940 0.951 . S
H4923 C4942 0.951 . S
H4924 C4944 0.950 . S
H4925 C4945 0.950 . S
H4926 C4947 0.950 . S
H4927 C4950 0.950 . S
H4928 C4951 0.950 . S
H4929 C4953 0.950 . S
H4930 C4954 0.950 . S
H4931 C4955 0.951 . S
H4932 C4957 0.951 . S
H4933 C4959 0.950 . S
H4934 C4960 0.950 . S
H4935 C4962 0.950 . S
H4936 C4965 0.950 . S
H4937 C4966 0.950 . S
H4938 C4968 0.950 . S
H4939 C4969 0.950 1_554 S
C4940 H4922 0.951 . S
C4940 C4941 1.366 . S
C4940 C4942 1.388 . S
C4941 C4940 1.366 . S
C4941 C4945 1.385 . S
C4942 H4923 0.951 . S
C4942 C4940 1.388 . S
C4942 C4943 1.366 . S
C4943 C4942 1.366 . S
C4943 C4944 1.414 . S
C4943 C4946 1.499 . S
C4944 H4924 0.950 . S
C4944 C4943 1.414 . S
C4944 C4945 1.374 . S
C4945 H4925 0.950 . S
C4945 C4941 1.385 . S
C4945 C4944 1.374 . S
C4946 C4943 1.499 . S
C4946 C4947 1.373 . S
C4946 C4948 1.389 . S
C4947 H4926 0.950 . S
C4947 C4946 1.373 . S
C4947 C4963 1.377 . S
C4948 C4946 1.389 . S
C4948 C4949 1.524 . S
C4948 C4962 1.377 . S
C4949 C4948 1.524 . S
C4949 C4950 1.397 . S
C4949 C4954 1.363 . S
C4950 H4927 0.950 . S
C4950 C4949 1.397 . S
C4950 C4951 1.334 . S
C4951 H4928 0.950 . S
C4951 C4950 1.334 . S
C4951 C4952 1.287 . S
C4952 C4951 1.287 . S
C4952 C4953 1.524 . S
C4952 H4971 0.913 . S
C4953 H4929 0.950 . S
C4953 C4952 1.524 . S
C4953 C4954 1.415 . S
C4954 H4930 0.950 . S
C4954 C4949 1.363 . S
C4954 C4953 1.415 . S
C4955 H4931 0.951 . S
C4955 C4956 1.366 . S
C4955 C4957 1.388 . S
C4956 C4955 1.366 . S
C4956 C4960 1.385 . S
C4957 H4932 0.951 . S
C4957 C4955 1.388 . S
C4957 C4958 1.366 . S
C4958 C4957 1.366 . S
C4958 C4959 1.414 . S
C4958 C4961 1.442 1_556 S
C4959 H4933 0.950 . S
C4959 C4958 1.414 . S
C4959 C4960 1.374 . S
C4960 H4934 0.950 . S
C4960 C4956 1.385 . S
C4960 C4959 1.374 . S
C4961 C4958 1.442 1_554 S
C4961 C4962 1.412 . S
C4961 C4963 1.409 . S
C4962 H4935 0.950 . S
C4962 C4948 1.377 . S
C4962 C4961 1.412 . S
C4963 C4947 1.377 . S
C4963 C4961 1.409 . S
C4963 C4964 1.524 1_554 S
C4964 C4963 1.524 1_556 S
C4964 C4965 1.397 . S
C4964 C4969 1.363 . S
C4965 H4936 0.950 . S
C4965 C4964 1.397 . S
C4965 C4966 1.334 . S
C4966 H4937 0.950 . S
C4966 C4965 1.334 . S
C4966 C4967 1.287 . S
C4967 C4966 1.287 . S
C4967 C4968 1.524 . S
C4967 H4970 0.999 . S
C4968 H4938 0.950 . S
C4968 C4967 1.524 . S
C4968 C4969 1.415 . S
C4969 H4939 0.950 1_556 S
C4969 C4964 1.363 . S
C4969 C4968 1.415 . S
H4970 C4967 0.999 . S
H4971 C4952 0.913 . S
H4972 C4990 0.951 . S
H4973 C4992 0.951 . S
H4974 C4994 0.950 . S
H4975 C4995 0.950 . S
H4976 C4997 0.950 . S
H4977 C5000 0.950 . S
H4978 C5001 0.950 . S
H4979 C5003 0.950 . S
H4980 C5004 0.950 . S
H4981 C5005 0.951 . S
H4982 C5007 0.951 . S
H4983 C5009 0.950 . S
H4984 C5010 0.950 . S
H4985 C5012 0.950 . S
H4986 C5015 0.950 . S
H4987 C5016 0.950 . S
H4988 C5018 0.950 . S
H4989 C5019 0.950 . S
C4990 H4972 0.951 . S
C4990 C4991 1.366 . S
C4990 C4992 1.388 . S
C4991 C4990 1.366 . S
C4991 C4995 1.385 . S
C4992 H4973 0.951 . S
C4992 C4990 1.388 . S
C4992 C4993 1.366 . S
C4993 C4992 1.366 . S
C4993 C4994 1.414 . S
C4993 C4996 1.499 . S
C4994 H4974 0.950 . S
C4994 C4993 1.414 . S
C4994 C4995 1.374 . S
C4995 H4975 0.950 . S
C4995 C4991 1.385 . S
C4995 C4994 1.374 . S
C4996 C4993 1.499 . S
C4996 C4997 1.373 . S
C4996 C4998 1.389 . S
C4997 H4976 0.950 . S
C4997 C4996 1.373 . S
C4997 C5013 1.377 . S
C4998 C4996 1.389 . S
C4998 C4999 1.524 . S
C4998 C5012 1.377 . S
C4999 C4998 1.524 . S
C4999 C5000 1.397 . S
C4999 C5004 1.363 . S
C5000 H4977 0.950 . S
C5000 C4999 1.397 . S
C5000 C5001 1.334 . S
C5001 H4978 0.950 . S
C5001 C5000 1.334 . S
C5001 C5002 1.287 . S
C5002 C5001 1.287 . S
C5002 C5003 1.524 . S
C5002 H5021 0.913 . S
C5003 H4979 0.950 . S
C5003 C5002 1.524 . S
C5003 C5004 1.415 . S
C5004 H4980 0.950 . S
C5004 C4999 1.363 . S
C5004 C5003 1.415 . S
C5005 H4981 0.951 . S
C5005 C5006 1.366 . S
C5005 C5007 1.388 . S
C5006 C5005 1.366 . S
C5006 C5010 1.385 . S
C5007 H4982 0.951 . S
C5007 C5005 1.388 . S
C5007 C5008 1.366 . S
C5008 C5007 1.366 . S
C5008 C5009 1.414 . S
C5008 C5011 1.499 . S
C5009 H4983 0.950 . S
C5009 C5008 1.414 . S
C5009 C5010 1.374 . S
C5010 H4984 0.950 . S
C5010 C5006 1.385 . S
C5010 C5009 1.374 . S
C5011 C5008 1.499 . S
C5011 C5012 1.373 . S
C5011 C5013 1.389 . S
C5012 H4985 0.950 . S
C5012 C4998 1.377 . S
C5012 C5011 1.373 . S
C5013 C4997 1.377 . S
C5013 C5011 1.389 . S
C5013 C5014 1.524 . S
C5014 C5013 1.524 . S
C5014 C5015 1.397 . S
C5014 C5019 1.363 . S
C5015 H4986 0.950 . S
C5015 C5014 1.397 . S
C5015 C5016 1.334 . S
C5016 H4987 0.950 . S
C5016 C5015 1.334 . S
C5016 C5017 1.287 . S
C5017 C5016 1.287 . S
C5017 C5018 1.524 . S
C5017 H5020 0.999 . S
C5018 H4988 0.950 . S
C5018 C5017 1.524 . S
C5018 C5019 1.415 . S
C5019 H4989 0.950 . S
C5019 C5014 1.363 . S
C5019 C5018 1.415 . S
H5020 C5017 0.999 . S
H5021 C5002 0.913 . S
H5022 C5040 0.951 . S
H5023 C5042 0.951 . S
H5024 C5044 0.950 . S
H5025 C5045 0.950 . S
H5026 C5047 0.950 . S
H5027 C5050 0.950 . S
H5028 C5051 0.950 . S
H5029 C5053 0.950 . S
H5030 C5054 0.950 . S
H5031 C5055 0.951 . S
H5032 C5057 0.951 . S
H5033 C5059 0.950 . S
H5034 C5060 0.950 . S
H5035 C5062 0.950 . S
H5036 C5065 0.950 . S
H5037 C5066 0.950 . S
H5038 C5068 0.950 . S
H5039 C5069 0.950 . S
C5040 H5022 0.951 . S
C5040 C5041 1.366 . S
C5040 C5042 1.388 . S
C5041 C5040 1.366 . S
C5041 C5045 1.385 . S
C5042 H5023 0.951 . S
C5042 C5040 1.388 . S
C5042 C5043 1.366 . S
C5043 C5042 1.366 . S
C5043 C5044 1.414 . S
C5043 C5046 1.499 . S
C5044 H5024 0.950 . S
C5044 C5043 1.414 . S
C5044 C5045 1.374 . S
C5045 H5025 0.950 . S
C5045 C5041 1.385 . S
C5045 C5044 1.374 . S
C5046 C5043 1.499 . S
C5046 C5047 1.373 . S
C5046 C5048 1.389 . S
C5047 H5026 0.950 . S
C5047 C5046 1.373 . S
C5047 C5063 1.377 . S
C5048 C5046 1.389 . S
C5048 C5049 1.524 . S
C5048 C5062 1.377 . S
C5049 C5048 1.524 . S
C5049 C5050 1.397 . S
C5049 C5054 1.363 . S
C5050 H5027 0.950 . S
C5050 C5049 1.397 . S
C5050 C5051 1.334 . S
C5051 H5028 0.950 . S
C5051 C5050 1.334 . S
C5051 C5052 1.287 . S
C5052 C5051 1.287 . S
C5052 C5053 1.524 . S
C5052 H5071 0.913 . S
C5053 H5029 0.950 . S
C5053 C5052 1.524 . S
C5053 C5054 1.415 . S
C5054 H5030 0.950 . S
C5054 C5049 1.363 . S
C5054 C5053 1.415 . S
C5055 H5031 0.951 . S
C5055 C5056 1.366 . S
C5055 C5057 1.388 . S
C5056 C5055 1.366 . S
C5056 C5060 1.385 . S
C5057 H5032 0.951 . S
C5057 C5055 1.388 . S
C5057 C5058 1.366 . S
C5058 C5057 1.366 . S
C5058 C5059 1.414 . S
C5058 C5061 1.499 . S
C5059 H5033 0.950 . S
C5059 C5058 1.414 . S
C5059 C5060 1.374 . S
C5060 H5034 0.950 . S
C5060 C5056 1.385 . S
C5060 C5059 1.374 . S
C5061 C5058 1.499 . S
C5061 C5062 1.373 . S
C5061 C5063 1.389 . S
C5062 H5035 0.950 . S
C5062 C5048 1.377 . S
C5062 C5061 1.373 . S
C5063 C5047 1.377 . S
C5063 C5061 1.389 . S
C5063 C5064 1.524 . S
C5064 C5063 1.524 . S
C5064 C5065 1.397 . S
C5064 C5069 1.363 . S
C5065 H5036 0.950 . S
C5065 C5064 1.397 . S
C5065 C5066 1.334 . S
C5066 H5037 0.950 . S
C5066 C5065 1.334 . S
C5066 C5067 1.287 . S
C5067 C5066 1.287 . S
C5067 C5068 1.524 . S
C5067 H5070 0.999 . S
C5068 H5038 0.950 . S
C5068 C5067 1.524 . S
C5068 C5069 1.415 . S
C5069 H5039 0.950 . S
C5069 C5064 1.363 . S
C5069 C5068 1.415 . S
H5070 C5067 0.999 . S
H5071 C5052 0.913 . S
H5072 C5090 0.951 . S
H5073 C5092 0.951 . S
H5074 C5094 0.950 . S
H5075 C5095 0.950 . S
H5076 C5097 0.950 . S
H5077 C5100 0.950 . S
H5078 C5101 0.950 . S
H5079 C5103 0.950 . S
H5080 C5104 0.950 . S
H5081 C5105 0.951 . S
H5082 C5107 0.951 . S
H5083 C5109 0.950 . S
H5084 C5110 0.950 . S
H5085 C5112 0.950 . S
H5086 C5115 0.950 . S
H5087 C5116 0.950 . S
H5088 C5118 0.950 . S
H5089 C5119 0.950 . S
C5090 H5072 0.951 . S
C5090 C5091 1.366 . S
C5090 C5092 1.388 . S
C5091 C5090 1.366 . S
C5091 C5095 1.385 . S
C5092 H5073 0.951 . S
C5092 C5090 1.388 . S
C5092 C5093 1.366 . S
C5093 C5092 1.366 . S
C5093 C5094 1.414 . S
C5093 C5096 1.499 . S
C5094 H5074 0.950 . S
C5094 C5093 1.414 . S
C5094 C5095 1.374 . S
C5095 H5075 0.950 . S
C5095 C5091 1.385 . S
C5095 C5094 1.374 . S
C5096 C5093 1.499 . S
C5096 C5097 1.373 . S
C5096 C5098 1.389 . S
C5097 H5076 0.950 . S
C5097 C5096 1.373 . S
C5097 C5113 1.377 . S
C5098 C5096 1.389 . S
C5098 C5099 1.524 . S
C5098 C5112 1.377 . S
C5099 C5098 1.524 . S
C5099 C5100 1.397 . S
C5099 C5104 1.363 . S
C5100 H5077 0.950 . S
C5100 C5099 1.397 . S
C5100 C5101 1.334 . S
C5101 H5078 0.950 . S
C5101 C5100 1.334 . S
C5101 C5102 1.287 . S
C5102 C5101 1.287 . S
C5102 C5103 1.524 . S
C5102 H5121 0.913 . S
C5103 H5079 0.950 . S
C5103 C5102 1.524 . S
C5103 C5104 1.415 . S
C5104 H5080 0.950 . S
C5104 C5099 1.363 . S
C5104 C5103 1.415 . S
C5105 H5081 0.951 . S
C5105 C5106 1.366 . S
C5105 C5107 1.388 . S
C5106 C5105 1.366 . S
C5106 C5110 1.385 . S
C5107 H5082 0.951 . S
C5107 C5105 1.388 . S
C5107 C5108 1.366 . S
C5108 C5107 1.366 . S
C5108 C5109 1.414 . S
C5108 C5111 1.499 . S
C5109 H5083 0.950 . S
C5109 C5108 1.414 . S
C5109 C5110 1.374 . S
C5110 H5084 0.950 . S
C5110 C5106 1.385 . S
C5110 C5109 1.374 . S
C5111 C5108 1.499 . S
C5111 C5112 1.373 . S
C5111 C5113 1.389 . S
C5112 H5085 0.950 . S
C5112 C5098 1.377 . S
C5112 C5111 1.373 . S
C5113 C5097 1.377 . S
C5113 C5111 1.389 . S
C5113 C5114 1.524 . S
C5114 C5113 1.524 . S
C5114 C5115 1.397 . S
C5114 C5119 1.363 . S
C5115 H5086 0.950 . S
C5115 C5114 1.397 . S
C5115 C5116 1.334 . S
C5116 H5087 0.950 . S
C5116 C5115 1.334 . S
C5116 C5117 1.287 . S
C5117 C5116 1.287 . S
C5117 C5118 1.524 . S
C5117 H5120 0.999 . S
C5118 H5088 0.950 . S
C5118 C5117 1.524 . S
C5118 C5119 1.415 . S
C5119 H5089 0.950 . S
C5119 C5114 1.363 . S
C5119 C5118 1.415 . S
H5120 C5117 0.999 . S
H5121 C5102 0.913 . S
H5122 C5140 0.951 . S
H5123 C5142 0.951 . S
H5124 C5144 0.950 . S
H5125 C5145 0.950 . S
H5126 C5147 0.950 . S
H5127 C5150 0.950 . S
H5128 C5151 0.950 . S
H5129 C5153 0.950 . S
H5130 C5154 0.950 . S
H5131 C5155 0.951 . S
H5132 C5157 0.951 . S
H5133 C5159 0.950 . S
H5134 C5160 0.950 . S
H5135 C5162 0.950 . S
H5136 C5165 0.950 . S
H5137 C5166 0.950 . S
H5138 C5168 0.950 . S
H5139 C5169 0.950 . S
C5140 H5122 0.951 . S
C5140 C5141 1.366 . S
C5140 C5142 1.388 . S
C5141 C5140 1.366 . S
C5141 C5145 1.385 . S
C5142 H5123 0.951 . S
C5142 C5140 1.388 . S
C5142 C5143 1.366 . S
C5143 C5142 1.366 . S
C5143 C5144 1.414 . S
C5143 C5146 1.499 . S
C5144 H5124 0.950 . S
C5144 C5143 1.414 . S
C5144 C5145 1.374 . S
C5145 H5125 0.950 . S
C5145 C5141 1.385 . S
C5145 C5144 1.374 . S
C5146 C5143 1.499 . S
C5146 C5147 1.373 . S
C5146 C5148 1.389 . S
C5147 H5126 0.950 . S
C5147 C5146 1.373 . S
C5147 C5163 1.377 . S
C5148 C5146 1.389 . S
C5148 C5149 1.524 . S
C5148 C5162 1.377 . S
C5149 C5148 1.524 . S
C5149 C5150 1.397 . S
C5149 C5154 1.363 . S
C5150 H5127 0.950 . S
C5150 C5149 1.397 . S
C5150 C5151 1.334 . S
C5151 H5128 0.950 . S
C5151 C5150 1.334 . S
C5151 C5152 1.287 . S
C5152 C5151 1.287 . S
C5152 C5153 1.524 . S
C5152 H5171 0.913 . S
C5153 H5129 0.950 . S
C5153 C5152 1.524 . S
C5153 C5154 1.415 . S
C5154 H5130 0.950 . S
C5154 C5149 1.363 . S
C5154 C5153 1.415 . S
C5155 H5131 0.951 . S
C5155 C5156 1.366 . S
C5155 C5157 1.388 . S
C5156 C5155 1.366 . S
C5156 C5160 1.385 . S
C5157 H5132 0.951 . S
C5157 C5155 1.388 . S
C5157 C5158 1.366 . S
C5158 C5157 1.366 . S
C5158 C5159 1.414 . S
C5158 C5161 1.499 . S
C5159 H5133 0.950 . S
C5159 C5158 1.414 . S
C5159 C5160 1.374 . S
C5160 H5134 0.950 . S
C5160 C5156 1.385 . S
C5160 C5159 1.374 . S
C5161 C5158 1.499 . S
C5161 C5162 1.373 . S
C5161 C5163 1.389 . S
C5162 H5135 0.950 . S
C5162 C5148 1.377 . S
C5162 C5161 1.373 . S
C5163 C5147 1.377 . S
C5163 C5161 1.389 . S
C5163 C5164 1.524 . S
C5164 C5163 1.524 . S
C5164 C5165 1.397 . S
C5164 C5169 1.363 . S
C5165 H5136 0.950 . S
C5165 C5164 1.397 . S
C5165 C5166 1.334 . S
C5166 H5137 0.950 . S
C5166 C5165 1.334 . S
C5166 C5167 1.287 . S
C5167 C5166 1.287 . S
C5167 C5168 1.524 . S
C5167 H5170 0.999 . S
C5168 H5138 0.950 . S
C5168 C5167 1.524 . S
C5168 C5169 1.415 . S
C5169 H5139 0.950 . S
C5169 C5164 1.363 . S
C5169 C5168 1.415 . S
H5170 C5167 0.999 . S
H5171 C5152 0.913 . S
H5172 C5190 0.951 . S
H5173 C5192 0.951 . S
H5174 C5194 0.950 . S
H5175 C5195 0.950 . S
H5176 C5197 0.950 . S
H5177 C5200 0.950 . S
H5178 C5201 0.950 . S
H5179 C5203 0.950 . S
H5180 C5204 0.950 . S
H5181 C5205 0.951 . S
H5182 C5207 0.951 . S
H5183 C5209 0.950 . S
H5184 C5210 0.950 . S
H5185 C5212 0.950 1_545 S
H5186 C5215 0.950 . S
H5187 C5216 0.950 . S
H5188 C5218 0.950 . S
H5189 C5219 0.950 . S
C5190 H5172 0.951 . S
C5190 C5191 1.366 . S
C5190 C5192 1.388 . S
C5191 C5190 1.366 . S
C5191 C5195 1.385 . S
C5192 H5173 0.951 . S
C5192 C5190 1.388 . S
C5192 C5193 1.366 . S
C5193 C5192 1.366 . S
C5193 C5194 1.414 . S
C5193 C5196 1.499 . S
C5194 H5174 0.950 . S
C5194 C5193 1.414 . S
C5194 C5195 1.374 . S
C5195 H5175 0.950 . S
C5195 C5191 1.385 . S
C5195 C5194 1.374 . S
C5196 C5193 1.499 . S
C5196 C5197 1.373 . S
C5196 C5198 1.389 . S
C5197 H5176 0.950 . S
C5197 C5196 1.373 . S
C5197 C5213 1.377 . S
C5198 C5196 1.389 . S
C5198 C5199 1.524 . S
C5198 C5212 1.377 . S
C5199 C5198 1.524 . S
C5199 C5200 1.397 . S
C5199 C5204 1.363 . S
C5200 H5177 0.950 . S
C5200 C5199 1.397 . S
C5200 C5201 1.334 . S
C5201 H5178 0.950 . S
C5201 C5200 1.334 . S
C5201 C5202 1.287 . S
C5202 C5201 1.287 . S
C5202 C5203 1.524 . S
C5202 H5221 0.913 . S
C5203 H5179 0.950 . S
C5203 C5202 1.524 . S
C5203 C5204 1.415 . S
C5204 H5180 0.950 . S
C5204 C5199 1.363 . S
C5204 C5203 1.415 . S
C5205 H5181 0.951 . S
C5205 C5206 1.366 . S
C5205 C5207 1.388 . S
C5206 C5205 1.366 . S
C5206 C5210 1.385 . S
C5207 H5182 0.951 . S
C5207 C5205 1.388 . S
C5207 C5208 1.366 . S
C5208 C5207 1.366 . S
C5208 C5209 1.414 . S
C5208 C5211 1.499 . S
C5209 H5183 0.950 . S
C5209 C5208 1.414 . S
C5209 C5210 1.374 . S
C5210 H5184 0.950 . S
C5210 C5206 1.385 . S
C5210 C5209 1.374 . S
C5211 C5208 1.499 . S
C5211 C5212 1.373 1_545 S
C5211 C5213 1.389 1_545 S
C5212 H5185 0.950 1_565 S
C5212 C5198 1.377 . S
C5212 C5211 1.373 1_565 S
C5213 C5197 1.377 . S
C5213 C5211 1.389 1_565 S
C5213 C5214 1.549 . S
C5214 C5213 1.549 . S
C5214 C5215 1.372 1_565 S
C5214 C5219 1.374 . S
C5215 H5186 0.950 . S
C5215 C5214 1.372 1_545 S
C5215 C5216 1.334 . S
C5216 H5187 0.950 . S
C5216 C5215 1.334 . S
C5216 C5217 1.287 . S
C5217 C5216 1.287 . S
C5217 C5218 1.524 . S
C5217 H5220 0.999 . S
C5218 H5188 0.950 . S
C5218 C5217 1.524 . S
C5218 C5219 1.415 1_545 S
C5219 H5189 0.950 . S
C5219 C5214 1.374 . S
C5219 C5218 1.415 1_565 S
H5220 C5217 0.999 . S
H5221 C5202 0.913 . S
H5222 C5240 0.951 . S
H5223 C5242 0.951 . S
H5224 C5244 0.950 . S
H5225 C5245 0.950 . S
H5226 C5247 0.950 . S
H5227 C5250 0.950 . S
H5228 C5251 0.950 . S
H5229 C5253 0.950 . S
H5230 C5254 0.950 . S
H5231 C5255 0.951 . S
H5232 C5257 0.951 . S
H5233 C5259 0.950 . S
H5234 C5260 0.950 . S
H5235 C5262 0.950 . S
H5236 C5265 0.950 . S
H5237 C5266 0.950 . S
H5238 C5268 0.950 . S
H5239 C5269 0.950 . S
C5240 H5222 0.951 . S
C5240 C5241 1.366 . S
C5240 C5242 1.388 . S
C5241 C5240 1.366 . S
C5241 C5245 1.385 . S
C5242 H5223 0.951 . S
C5242 C5240 1.388 . S
C5242 C5243 1.366 . S
C5243 C5242 1.366 . S
C5243 C5244 1.414 . S
C5243 C5246 1.499 . S
C5244 H5224 0.950 . S
C5244 C5243 1.414 . S
C5244 C5245 1.374 . S
C5245 H5225 0.950 . S
C5245 C5241 1.385 . S
C5245 C5244 1.374 . S
C5246 C5243 1.499 . S
C5246 C5247 1.373 . S
C5246 C5248 1.389 . S
C5247 H5226 0.950 . S
C5247 C5246 1.373 . S
C5247 C5263 1.377 . S
C5248 C5246 1.389 . S
C5248 C5249 1.524 . S
C5248 C5262 1.377 . S
C5249 C5248 1.524 . S
C5249 C5250 1.397 . S
C5249 C5254 1.363 . S
C5250 H5227 0.950 . S
C5250 C5249 1.397 . S
C5250 C5251 1.334 . S
C5251 H5228 0.950 . S
C5251 C5250 1.334 . S
C5251 C5252 1.287 . S
C5252 C5251 1.287 . S
C5252 C5253 1.524 . S
C5252 H5271 0.913 . S
C5253 H5229 0.950 . S
C5253 C5252 1.524 . S
C5253 C5254 1.415 . S
C5254 H5230 0.950 . S
C5254 C5249 1.363 . S
C5254 C5253 1.415 . S
C5255 H5231 0.951 . S
C5255 C5256 1.366 . S
C5255 C5257 1.388 . S
C5256 C5255 1.366 . S
C5256 C5260 1.385 . S
C5257 H5232 0.951 . S
C5257 C5255 1.388 . S
C5257 C5258 1.366 . S
C5258 C5257 1.366 . S
C5258 C5259 1.414 . S
C5258 C5261 1.499 . S
C5259 H5233 0.950 . S
C5259 C5258 1.414 . S
C5259 C5260 1.374 . S
C5260 H5234 0.950 . S
C5260 C5256 1.385 . S
C5260 C5259 1.374 . S
C5261 C5258 1.499 . S
C5261 C5262 1.373 . S
C5261 C5263 1.389 . S
C5262 H5235 0.950 . S
C5262 C5248 1.377 . S
C5262 C5261 1.373 . S
C5263 C5247 1.377 . S
C5263 C5261 1.389 . S
C5263 C5264 1.524 . S
C5264 C5263 1.524 . S
C5264 C5265 1.397 . S
C5264 C5269 1.363 . S
C5265 H5236 0.950 . S
C5265 C5264 1.397 . S
C5265 C5266 1.334 . S
C5266 H5237 0.950 . S
C5266 C5265 1.334 . S
C5266 C5267 1.287 . S
C5267 C5266 1.287 . S
C5267 C5268 1.524 . S
C5267 H5270 0.999 . S
C5268 H5238 0.950 . S
C5268 C5267 1.524 . S
C5268 C5269 1.415 . S
C5269 H5239 0.950 . S
C5269 C5264 1.363 . S
C5269 C5268 1.415 . S
H5270 C5267 0.999 . S
H5271 C5252 0.913 . S
H5272 C5290 0.951 . S
H5273 C5292 0.951 . S
H5274 C5294 0.950 . S
H5275 C5295 0.950 . S
H5276 C5297 0.950 . S
H5277 C5300 0.950 . S
H5278 C5301 0.950 . S
H5279 C5303 0.950 . S
H5280 C5304 0.950 . S
H5281 C5305 0.951 . S
H5282 C5307 0.951 . S
H5283 C5309 0.950 . S
H5284 C5310 0.950 . S
H5285 C5312 0.950 . S
H5286 C5315 0.950 . S
H5287 C5316 0.950 . S
H5288 C5318 0.950 . S
H5289 C5319 0.950 . S
C5290 H5272 0.951 . S
C5290 C5291 1.366 . S
C5290 C5292 1.388 . S
C5291 C5290 1.366 . S
C5291 C5295 1.385 . S
C5292 H5273 0.951 . S
C5292 C5290 1.388 . S
C5292 C5293 1.366 . S
C5293 C5292 1.366 . S
C5293 C5294 1.414 . S
C5293 C5296 1.499 . S
C5294 H5274 0.950 . S
C5294 C5293 1.414 . S
C5294 C5295 1.374 . S
C5295 H5275 0.950 . S
C5295 C5291 1.385 . S
C5295 C5294 1.374 . S
C5296 C5293 1.499 . S
C5296 C5297 1.373 . S
C5296 C5298 1.389 . S
C5297 H5276 0.950 . S
C5297 C5296 1.373 . S
C5297 C5313 1.377 . S
C5298 C5296 1.389 . S
C5298 C5299 1.524 . S
C5298 C5312 1.377 . S
C5299 C5298 1.524 . S
C5299 C5300 1.397 . S
C5299 C5304 1.363 . S
C5300 H5277 0.950 . S
C5300 C5299 1.397 . S
C5300 C5301 1.334 . S
C5301 H5278 0.950 . S
C5301 C5300 1.334 . S
C5301 C5302 1.287 . S
C5302 C5301 1.287 . S
C5302 C5303 1.524 . S
C5302 H5321 0.913 . S
C5303 H5279 0.950 . S
C5303 C5302 1.524 . S
C5303 C5304 1.415 . S
C5304 H5280 0.950 . S
C5304 C5299 1.363 . S
C5304 C5303 1.415 . S
C5305 H5281 0.951 . S
C5305 C5306 1.366 . S
C5305 C5307 1.388 . S
C5306 C5305 1.366 . S
C5306 C5310 1.385 . S
C5307 H5282 0.951 . S
C5307 C5305 1.388 . S
C5307 C5308 1.366 . S
C5308 C5307 1.366 . S
C5308 C5309 1.414 . S
C5308 C5311 1.499 . S
C5309 H5283 0.950 . S
C5309 C5308 1.414 . S
C5309 C5310 1.374 . S
C5310 H5284 0.950 . S
C5310 C5306 1.385 . S
C5310 C5309 1.374 . S
C5311 C5308 1.499 . S
C5311 C5312 1.373 . S
C5311 C5313 1.389 . S
C5312 H5285 0.950 . S
C5312 C5298 1.377 . S
C5312 C5311 1.373 . S
C5313 C5297 1.377 . S
C5313 C5311 1.389 . S
C5313 C5314 1.524 . S
C5314 C5313 1.524 . S
C5314 C5315 1.397 . S
C5314 C5319 1.363 . S
C5315 H5286 0.950 . S
C5315 C5314 1.397 . S
C5315 C5316 1.334 . S
C5316 H5287 0.950 . S
C5316 C5315 1.334 . S
C5316 C5317 1.287 . S
C5317 C5316 1.287 . S
C5317 C5318 1.524 . S
C5317 H5320 0.999 . S
C5318 H5288 0.950 . S
C5318 C5317 1.524 . S
C5318 C5319 1.415 . S
C5319 H5289 0.950 . S
C5319 C5314 1.363 . S
C5319 C5318 1.415 . S
H5320 C5317 0.999 . S
H5321 C5302 0.913 . S
H5322 C5340 0.951 . S
H5323 C5342 0.951 . S
H5324 C5344 0.950 . S
H5325 C5345 0.950 . S
H5326 C5347 0.950 . S
H5327 C5350 0.950 . S
H5328 C5351 0.950 . S
H5329 C5353 0.950 . S
H5330 C5354 0.950 . S
H5331 C5355 0.951 . S
H5332 C5357 0.951 . S
H5333 C5359 0.950 . S
H5334 C5360 0.950 . S
H5335 C5362 0.950 . S
H5336 C5365 0.950 . S
H5337 C5366 0.950 . S
H5338 C5368 0.950 . S
H5339 C5369 0.950 . S
C5340 H5322 0.951 . S
C5340 C5341 1.366 . S
C5340 C5342 1.388 . S
C5341 C5340 1.366 . S
C5341 C5345 1.385 . S
C5342 H5323 0.951 . S
C5342 C5340 1.388 . S
C5342 C5343 1.366 . S
C5343 C5342 1.366 . S
C5343 C5344 1.414 . S
C5343 C5346 1.499 . S
C5344 H5324 0.950 . S
C5344 C5343 1.414 . S
C5344 C5345 1.374 . S
C5345 H5325 0.950 . S
C5345 C5341 1.385 . S
C5345 C5344 1.374 . S
C5346 C5343 1.499 . S
C5346 C5347 1.373 . S
C5346 C5348 1.389 . S
C5347 H5326 0.950 . S
C5347 C5346 1.373 . S
C5347 C5363 1.377 . S
C5348 C5346 1.389 . S
C5348 C5349 1.524 . S
C5348 C5362 1.377 . S
C5349 C5348 1.524 . S
C5349 C5350 1.397 . S
C5349 C5354 1.363 . S
C5350 H5327 0.950 . S
C5350 C5349 1.397 . S
C5350 C5351 1.334 . S
C5351 H5328 0.950 . S
C5351 C5350 1.334 . S
C5351 C5352 1.287 . S
C5352 C5351 1.287 . S
C5352 C5353 1.524 . S
C5352 H5371 0.913 . S
C5353 H5329 0.950 . S
C5353 C5352 1.524 . S
C5353 C5354 1.415 . S
C5354 H5330 0.950 . S
C5354 C5349 1.363 . S
C5354 C5353 1.415 . S
C5355 H5331 0.951 . S
C5355 C5356 1.366 . S
C5355 C5357 1.388 . S
C5356 C5355 1.366 . S
C5356 C5360 1.385 . S
C5357 H5332 0.951 . S
C5357 C5355 1.388 . S
C5357 C5358 1.366 . S
C5358 C5357 1.366 . S
C5358 C5359 1.414 . S
C5358 C5361 1.499 . S
C5359 H5333 0.950 . S
C5359 C5358 1.414 . S
C5359 C5360 1.374 . S
C5360 H5334 0.950 . S
C5360 C5356 1.385 . S
C5360 C5359 1.374 . S
C5361 C5358 1.499 . S
C5361 C5362 1.373 . S
C5361 C5363 1.389 . S
C5362 H5335 0.950 . S
C5362 C5348 1.377 . S
C5362 C5361 1.373 . S
C5363 C5347 1.377 . S
C5363 C5361 1.389 . S
C5363 C5364 1.524 . S
C5364 C5363 1.524 . S
C5364 C5365 1.397 . S
C5364 C5369 1.363 . S
C5365 H5336 0.950 . S
C5365 C5364 1.397 . S
C5365 C5366 1.334 . S
C5366 H5337 0.950 . S
C5366 C5365 1.334 . S
C5366 C5367 1.287 . S
C5367 C5366 1.287 . S
C5367 C5368 1.524 . S
C5367 H5370 0.999 . S
C5368 H5338 0.950 . S
C5368 C5367 1.524 . S
C5368 C5369 1.415 . S
C5369 H5339 0.950 . S
C5369 C5364 1.363 . S
C5369 C5368 1.415 . S
H5370 C5367 0.999 . S
H5371 C5352 0.913 . S
H5372 C5390 0.951 . S
H5373 C5392 0.951 . S
H5374 C5394 0.950 . S
H5375 C5395 0.950 . S
H5376 C5397 0.950 1_565 S
H5377 C5400 0.950 . S
H5378 C5401 0.950 . S
H5379 C5403 0.950 . S
H5380 C5404 0.950 . S
H5381 C5405 0.951 . S
H5382 C5407 0.951 . S
H5383 C5409 0.950 . S
H5384 C5410 0.950 . S
H5385 C5412 0.950 . S
H5386 C5415 0.950 . S
H5387 C5416 0.950 . S
H5388 C5418 0.950 . S
H5389 C5419 0.950 . S
C5390 H5372 0.951 . S
C5390 C5391 1.366 . S
C5390 C5392 1.388 . S
C5391 C5390 1.366 . S
C5391 C5395 1.385 . S
C5392 H5373 0.951 . S
C5392 C5390 1.388 . S
C5392 C5393 1.366 . S
C5393 C5392 1.366 . S
C5393 C5394 1.414 . S
C5393 C5396 1.503 . S
C5394 H5374 0.950 . S
C5394 C5393 1.414 . S
C5394 C5395 1.374 . S
C5395 H5375 0.950 . S
C5395 C5391 1.385 . S
C5395 C5394 1.374 . S
C5396 C5393 1.503 . S
C5396 C5397 1.372 1_565 S
C5396 C5398 1.386 1_565 S
C5397 H5376 0.950 1_545 S
C5397 C5396 1.372 1_545 S
C5397 C5413 1.377 . S
C5398 C5396 1.386 1_545 S
C5398 C5399 1.524 . S
C5398 C5412 1.377 . S
C5399 C5398 1.524 . S
C5399 C5400 1.397 1_545 S
C5399 C5404 1.363 . S
C5400 H5377 0.950 . S
C5400 C5399 1.397 1_565 S
C5400 C5401 1.334 . S
C5401 H5378 0.950 . S
C5401 C5400 1.334 . S
C5401 C5402 1.287 . S
C5402 C5401 1.287 . S
C5402 C5403 1.524 1_565 S
C5402 H5421 0.913 . S
C5403 H5379 0.950 . S
C5403 C5402 1.524 1_545 S
C5403 C5404 1.415 . S
C5404 H5380 0.950 . S
C5404 C5399 1.363 . S
C5404 C5403 1.415 . S
C5405 H5381 0.951 . S
C5405 C5406 1.366 . S
C5405 C5407 1.388 . S
C5406 C5405 1.366 . S
C5406 C5410 1.385 . S
C5407 H5382 0.951 . S
C5407 C5405 1.388 . S
C5407 C5408 1.366 . S
C5408 C5407 1.366 . S
C5408 C5409 1.414 . S
C5408 C5411 1.499 . S
C5409 H5383 0.950 . S
C5409 C5408 1.414 . S
C5409 C5410 1.374 . S
C5410 H5384 0.950 . S
C5410 C5406 1.385 . S
C5410 C5409 1.374 . S
C5411 C5408 1.499 . S
C5411 C5412 1.373 . S
C5411 C5413 1.389 . S
C5412 H5385 0.950 . S
C5412 C5398 1.377 . S
C5412 C5411 1.373 . S
C5413 C5397 1.377 . S
C5413 C5411 1.389 . S
C5413 C5414 1.524 . S
C5414 C5413 1.524 . S
C5414 C5415 1.397 . S
C5414 C5419 1.363 . S
C5415 H5386 0.950 . S
C5415 C5414 1.397 . S
C5415 C5416 1.334 . S
C5416 H5387 0.950 . S
C5416 C5415 1.334 . S
C5416 C5417 1.287 . S
C5417 C5416 1.287 . S
C5417 C5418 1.524 . S
C5417 H5420 0.999 . S
C5418 H5388 0.950 . S
C5418 C5417 1.524 . S
C5418 C5419 1.415 . S
C5419 H5389 0.950 . S
C5419 C5414 1.363 . S
C5419 C5418 1.415 . S
H5420 C5417 0.999 . S
H5421 C5402 0.913 . S
H5422 C5440 0.951 . S
H5423 C5442 0.951 . S
H5424 C5444 0.950 . S
H5425 C5445 0.950 . S
H5426 C5447 0.950 . S
H5427 C5450 0.950 . S
H5428 C5451 0.950 . S
H5429 C5453 0.950 . S
H5430 C5454 0.950 . S
H5431 C5455 0.951 . S
H5432 C5457 0.951 . S
H5433 C5459 0.950 . S
H5434 C5460 0.950 . S
H5435 C5462 0.950 . S
H5436 C5465 0.950 . S
H5437 C5466 0.950 . S
H5438 C5468 0.950 . S
H5439 C5469 0.926 1_565 S
C5440 H5422 0.951 . S
C5440 C5441 1.366 . S
C5440 C5442 1.388 . S
C5441 C5440 1.366 . S
C5441 C5445 1.385 . S
C5442 H5423 0.951 . S
C5442 C5440 1.388 . S
C5442 C5443 1.366 . S
C5443 C5442 1.366 . S
C5443 C5444 1.414 . S
C5443 C5446 1.499 . S
C5444 H5424 0.950 . S
C5444 C5443 1.414 . S
C5444 C5445 1.374 . S
C5445 H5425 0.950 . S
C5445 C5441 1.385 . S
C5445 C5444 1.374 . S
C5446 C5443 1.499 . S
C5446 C5447 1.373 . S
C5446 C5448 1.389 . S
C5447 H5426 0.950 . S
C5447 C5446 1.373 . S
C5447 C5463 1.377 . S
C5448 C5446 1.389 . S
C5448 C5449 1.524 . S
C5448 C5462 1.377 . S
C5449 C5448 1.524 . S
C5449 C5450 1.397 . S
C5449 C5454 1.363 . S
C5450 H5427 0.950 . S
C5450 C5449 1.397 . S
C5450 C5451 1.334 . S
C5451 H5428 0.950 . S
C5451 C5450 1.334 . S
C5451 C5452 1.287 . S
C5452 C5451 1.287 . S
C5452 C5453 1.524 . S
C5452 H5471 0.913 . S
C5453 H5429 0.950 . S
C5453 C5452 1.524 . S
C5453 C5454 1.415 . S
C5454 H5430 0.950 . S
C5454 C5449 1.363 . S
C5454 C5453 1.415 . S
C5455 H5431 0.951 . S
C5455 C5456 1.366 . S
C5455 C5457 1.388 . S
C5456 C5455 1.366 . S
C5456 C5460 1.385 . S
C5457 H5432 0.951 . S
C5457 C5455 1.388 . S
C5457 C5458 1.366 . S
C5458 C5457 1.366 . S
C5458 C5459 1.414 . S
C5458 C5461 1.499 . S
C5459 H5433 0.950 . S
C5459 C5458 1.414 . S
C5459 C5460 1.374 . S
C5460 H5434 0.950 . S
C5460 C5456 1.385 . S
C5460 C5459 1.374 . S
C5461 C5458 1.499 . S
C5461 C5462 1.373 1_545 S
C5461 C5463 1.389 1_545 S
C5462 H5435 0.950 . S
C5462 C5448 1.377 . S
C5462 C5461 1.373 1_565 S
C5463 C5447 1.377 . S
C5463 C5461 1.389 1_565 S
C5463 C5464 1.524 1_565 S
C5464 C5463 1.524 1_545 S
C5464 C5465 1.397 . S
C5464 C5469 1.363 . S
C5465 H5436 0.950 . S
C5465 C5464 1.397 . S
C5465 C5466 1.334 . S
C5466 H5437 0.950 . S
C5466 C5465 1.334 . S
C5466 C5467 1.287 . S
C5467 C5466 1.287 . S
C5467 C5468 1.524 . S
C5467 H5470 0.999 . S
C5468 H5438 0.950 . S
C5468 C5467 1.524 . S
C5468 C5469 1.415 . S
C5469 H5439 0.926 1_545 S
C5469 C5464 1.363 . S
C5469 C5468 1.415 . S
H5470 C5467 0.999 . S
H5471 C5452 0.913 . S
C691 C588 1.273 . S
C706 C11 1.276 . S
C741 C23 1.356 . S
C756 C219 1.333 . S
C791 C39 1.303 . S
C806 C560 1.302 . S
C841 C51 1.333 . S
C856 C247 1.309 . S
C891 C625 1.332 . S
C906 C61 1.356 . S
C941 C70 1.339 . S
C956 C294 1.341 . S
C991 C89 1.363 . S
C1006 C653 1.338 . S
C1041 C98 1.322 . S
C1056 C266 1.322 . S
C1091 C42 1.350 . S
C1106 C658 1.349 . S
C1141 C5 1.363 . S
C1156 C350 1.353 . S
C1191 C373 1.320 . S
C1206 C14 1.333 . S
C1241 C33 1.350 . S
C1256 C336 1.338 . S
C1291 C79 1.302 . S
C1306 C345 1.280 . S
C1341 C95 1.288 . S
C1356 C667 1.271 . S
C1391 C107 1.325 . S
C1406 C359 1.307 . S
C1441 C67 1.287 . S
C1456 C364 1.282 . S
C1491 C546 1.299 . S
C1506 C112 1.298 . S
C1541 C126 1.368 . S
C1556 C275 1.350 . S
C1591 C121 1.307 . S
C1606 C616 1.302 . S
C1641 C303 1.315 . S
C1656 C140 1.330 . S
C1691 C308 1.334 . S
C1706 C154 1.333 . S
C1741 C574 1.299 . S
C1756 C177 1.309 . S
C1791 C597 1.291 . S
C1806 C182 1.308 . S
C1841 C569 1.292 . S
C1856 C205 1.313 . S
C1891 C473 1.355 . S
C1906 C221 1.348 . S
C1941 C229 1.310 . S
C1956 C9 1.293 . S
C1991 C249 1.307 . S
C2006 C445 1.314 . S
C2041 C37 1.321 . S
C2056 C257 1.337 . S
C2091 C271 1.375 . S
C2106 C495 1.368 . S
C2141 C84 1.254 . S
C2156 C291 1.251 . S
C2191 C299 1.357 . S
C2206 C523 1.350 . S
C2241 C56 1.272 . S
C2256 C319 1.270 . S
C2291 C543 1.251 . S
C2306 C263 1.247 . S
C2341 C215 1.403 . S
C2356 C145 1.398 . S
C2391 C159 1.320 . S
C2406 C235 1.317 . S
C2441 C131 1.441 . S
C2456 C243 1.448 . S
C2491 C137 1.353 . S
C2506 C285 1.356 . S
C2541 C305 1.305 . S
C2556 C537 1.306 . S
C2591 C151 1.307 . S
C2606 C313 1.310 . S
C2641 C277 1.245 . S
C2656 C165 1.249 . S
C2691 C333 1.245 . S
C2706 C420 1.247 . S
C2741 C341 1.294 . S
C2756 C65 1.273 . S
C2791 C327 1.289 . S
C2806 C501 1.286 . S
C2841 C355 1.337 . S
C2856 C93 1.317 . S
C2891 C375 1.254 . S
C2906 C109 1.259 . S
C2941 C448 1.328 . S
C2956 C383 1.335 . S
C2991 C397 1.400 . S
C3006 C467 1.392 . S
C3041 C417 1.332 . S
C3056 C439 1.335 . S
C3091 C431 1.279 . S
C3106 C252 1.278 . S
C3141 C443 1.347 . S
C3156 C555 1.323 . S
C3191 C224 1.330 . S
C3206 C459 1.331 . S
C3241 C471 1.328 . S
C3256 C583 1.305 . S
C3291 C481 1.331 . S
C3306 C289 1.306 . S
C3341 C630 1.299 . S
C3356 C490 1.297 . S
C3391 C509 1.361 . S
C3406 C317 1.337 . S
C3441 C602 1.332 . S
C3456 C518 1.331 . S
C3491 C322 1.346 . S
C3506 C462 1.348 . S
C3541 C406 1.347 . S
C3556 C425 1.356 . S
C3591 C434 1.332 . S
C3606 C387 1.321 . S
C3641 C401 1.355 . S
C3656 C453 1.384 . S
C3691 C499 1.307 . S
C3706 C392 1.300 . S
C3741 C331 1.279 . S
C3756 C515 1.296 . S
C3791 C527 1.320 . S
C3806 C415 1.302 . S
C3841 C487 1.263 . S
C3856 C378 1.259 . S
C3891 C532 1.317 . S
C3906 C210 1.318 . S
C3941 C191 1.357 . S
C3956 C611 1.329 . S
C3991 C280 1.316 . S
C4006 C541 1.323 . S
C4041 C639 1.293 . S
C4056 C196 1.305 . S
C4091 C644 1.333 . S
C4106 C168 1.331 . S
C4141 C163 1.304 . S
C4156 C238 1.297 . S
C4191 C135 1.345 . S
C4206 C261 1.320 . S
C4241 C233 1.300 . S
C4256 C149 1.323 . S
C4291 C557 1.315 . S
C4306 C53 1.321 . S
C4341 C429 1.309 . S
C4356 C565 1.327 . S
C4391 C585 1.285 . S
C4406 C25 1.293 . S
C4441 C593 1.304 . S
C4456 C457 1.286 . S
C4491 C75 1.357 . S
C4506 C607 1.363 . S
C4541 C627 1.297 . S
C4556 C504 1.300 . S
C4591 C635 1.363 . S
C4606 C103 1.356 . S
C4641 C476 1.236 . S
C4656 C655 1.235 . S
C4691 C599 1.204 . S
C4706 C123 1.208 . S
C4741 C201 1.394 . S
C4756 C551 1.401 . S
C4791 C173 1.323 . S
C4806 C571 1.321 . S
C4841 C579 1.365 . S
C4856 C193 1.363 . S
C4891 C621 1.417 . S
C4906 C187 1.409 . S
C4941 C117 1.298 . S
C4956 C641 1.295 . S
C4991 C207 1.301 . S
C5006 C649 1.304 . S
C5041 C613 1.301 . S
C5056 C179 1.306 . S
C5091 C0 1.240 . S
C5106 C669 1.237 . S
C5141 C403 1.227 . S
C5156 C485 1.216 . S
C5191 C81 1.312 . S
C5206 C663 1.315 . S
C5241 C513 1.332 . S
C5256 C411 1.352 . S
C5291 C529 1.250 . S
C5306 C389 1.245 . S
C5341 C369 1.312 . S
C5356 C28 1.304 . S
C5391 C347 1.296 . S
C5406 C47 1.298 . S
C5441 C19 1.340 . S
C5456 C361 1.336 . S
