# Generated by pormake.
# Topology qtz-e, (6)-cn, num edge types: 1
# Building blocks:
#     Node 0, Type 0, BuildingBlock: BETDIP_clean_sbu_0, # of connection points: 6
#     Node 1, Type 0, BuildingBlock: BETDIP_clean_sbu_0, # of connection points: 6
#     Node 2, Type 0, BuildingBlock: BETDIP_clean_sbu_0, # of connection points: 6
#     Node 3, Type 0, BuildingBlock: BETDIP_clean_sbu_0, # of connection points: 6
#     Node 4, Type 0, BuildingBlock: BETDIP_clean_sbu_0, # of connection points: 6
#     Node 5, Type 0, BuildingBlock: BETDIP_clean_sbu_0, # of connection points: 6
#     Edge 6, Type (0, 0), BuildingBlock: MIFKUJ_clean_linker_0, # of connection points: 2
#     Edge 7, Type (0, 0), BuildingBlock: MIFKUJ_clean_linker_0, # of connection points: 2
#     Edge 8, Type (0, 0), BuildingBlock: MIFKUJ_clean_linker_0, # of connection points: 2
#     Edge 9, Type (0, 0), BuildingBlock: MIFKUJ_clean_linker_0, # of connection points: 2
#     Edge 10, Type (0, 0), BuildingBlock: MIFKUJ_clean_linker_0, # of connection points: 2
#     Edge 11, Type (0, 0), BuildingBlock: MIFKUJ_clean_linker_0, # of connection points: 2
#     Edge 12, Type (0, 0), BuildingBlock: MIFKUJ_clean_linker_0, # of connection points: 2
#     Edge 13, Type (0, 0), BuildingBlock: MIFKUJ_clean_linker_0, # of connection points: 2
#     Edge 14, Type (0, 0), BuildingBlock: MIFKUJ_clean_linker_0, # of connection points: 2
#     Edge 15, Type (0, 0), BuildingBlock: MIFKUJ_clean_linker_0, # of connection points: 2
#     Edge 16, Type (0, 0), BuildingBlock: MIFKUJ_clean_linker_0, # of connection points: 2
#     Edge 17, Type (0, 0), BuildingBlock: MIFKUJ_clean_linker_0, # of connection points: 2
#     Edge 18, Type (0, 0), BuildingBlock: MIFKUJ_clean_linker_0, # of connection points: 2
#     Edge 19, Type (0, 0), BuildingBlock: MIFKUJ_clean_linker_0, # of connection points: 2
#     Edge 20, Type (0, 0), BuildingBlock: MIFKUJ_clean_linker_0, # of connection points: 2
#     Edge 21, Type (0, 0), BuildingBlock: MIFKUJ_clean_linker_0, # of connection points: 2
#     Edge 22, Type (0, 0), BuildingBlock: MIFKUJ_clean_linker_0, # of connection points: 2
#     Edge 23, Type (0, 0), BuildingBlock: MIFKUJ_clean_linker_0, # of connection points: 2
# Relax obj value: 0.132
# Max RMSD: 0.191
# Mean RMSD: 0.191
data_MOF--net-qtz-e--node1-BETDIP_clean_sbu_0--edge1-MIFKUJ_clean_linker_0
_symmetry_space_group_name_H-M    P1
_symmetry_Int_Tables_number       1
_symmetry_cell_setting            triclinic
loop_
_symmetry_equiv_pos_as_xyz
'x, y, z'
_cell_length_a     31.797071
_cell_length_b     31.912153
_cell_length_c     63.169716
_cell_angle_alpha  89.965517
_cell_angle_beta   90.015839
_cell_angle_gamma 119.96289
loop_
_atom_site_label
_atom_site_type_symbol
_atom_site_fract_x
_atom_site_fract_y
_atom_site_fract_z
_atom_type_partial_charge
Tb0 Tb 0.19647 0.44806 0.05781 0.0
Tb1 Tb 0.21461 0.36635 0.04702 0.0
C2 C 0.16814 0.50635 0.06618 0.0
C3 C 0.1612 0.52285 0.08732 0.0
C4 C 0.11883 0.49452 0.09926 0.0
C5 C 0.11517 0.5069 0.1202 0.0
C6 C 0.15372 0.54796 0.1298 0.0
C7 C 0.19533 0.57717 0.11757 0.0
C8 C 0.19892 0.5649 0.09663 0.0
C9 C 0.26726 0.44798 0.07978 0.0
C10 C 0.16036 0.35951 0.0884 0.0
C11 C 0.25262 0.31915 0.03316 0.0
C12 C 0.26315 0.31171 1.01112 0.0
C13 C 0.30502 0.30944 1.00631 0.0
C14 C 0.31512 0.30297 0.98534 0.0
C15 C 0.28347 0.29861 0.96877 0.0
C16 C 0.24195 0.30168 0.97371 0.0
C17 C 0.23203 0.30834 0.99459 0.0
C18 C 0.12869 0.35228 0.03676 0.0
C19 C 0.24495 0.45224 1.01349 0.0
O20 O 0.13825 0.46079 0.06136 0.0
O21 O 0.21319 0.52021 0.06087 0.0
O22 O 0.25704 0.43659 0.06065 0.0
O23 O 0.23895 0.4629 0.08673 0.0
O24 O 0.14883 0.38934 0.07889 0.0
O25 O 0.19377 0.35074 0.08036 0.0
O26 O 0.27793 0.36327 0.04041 0.0
O27 O 0.20669 0.29953 0.03809 0.0
O28 O 0.16818 0.39101 0.03545 0.0
O29 O 0.13577 0.31787 0.04331 0.0
O30 O 0.23785 0.40844 0.01766 0.0
O31 O 0.23231 0.47571 0.0271 0.0
H32 H 0.08883 0.46201 0.09263 0.0
H33 H 0.08215 0.48402 0.12891 0.0
H34 H 0.22603 0.60879 0.12437 0.0
H35 H 0.23207 0.58763 0.08795 0.0
H36 H 0.32991 0.31272 0.01877 0.0
H37 H 0.34786 0.30162 0.98211 0.0
H38 H 0.21638 0.29795 0.96151 0.0
H39 H 0.19979 0.31067 0.99781 0.0
Tb40 Tb 0.74777 0.22937 0.39134 0.0
Tb41 Tb 0.82418 0.20527 0.37736 0.0
C42 C 0.67171 0.22324 0.40626 0.0
C43 C 0.65389 0.222 0.42804 0.0
C44 C 0.60829 0.18396 0.4342 0.0
C45 C 0.59115 0.18179 0.45482 0.0
C46 C 0.61913 0.21789 0.46976 0.0
C47 C 0.66492 0.25591 0.4635 0.0
C48 C 0.68221 0.2578 0.44296 0.0
C49 C 0.83763 0.29347 0.40214 0.0
C50 C 0.77797 0.16693 0.42174 0.0
C51 C 0.90039 0.21303 0.36182 0.0
C52 C 0.92062 0.22487 0.34018 0.0
C53 C 0.97097 0.2493 0.33707 0.0
C54 C 0.99037 0.26126 0.31659 0.0
C55 C 0.95975 0.2488 0.29875 0.0
C56 C 0.90919 0.22472 0.30205 0.0
C57 C 0.88989 0.21315 0.32252 0.0
C58 C 0.73426 0.1417 0.36773 0.0
C59 C 0.79282 0.26651 0.34689 0.0
O60 O 0.67499 0.18551 0.40055 0.0
O61 O 0.70916 0.26401 0.40002 0.0
O62 O 0.81903 0.24843 0.40178 0.0
O63 O 0.80379 0.3035 0.39793 0.0
O64 O 0.74623 0.18077 0.41658 0.0
O65 O 0.81615 0.17755 0.40963 0.0
O66 O 0.89923 0.24815 0.37205 0.0
O67 O 0.86007 0.17162 0.36404 0.0
O68 O 0.75367 0.18665 0.36746 0.0
O69 O 0.76662 0.12969 0.37221 0.0
O70 O 0.8266 0.2559 0.35268 0.0
O71 O 0.75339 0.25265 0.35853 0.0
H72 H 0.58597 0.15568 0.42305 0.0
H73 H 0.55613 0.15148 0.45909 0.0
H74 H 0.6873 0.28479 0.47436 0.0
H75 H 0.71774 0.28745 0.43878 0.0
H76 H -0.00467 0.25931 0.35049 0.0
H77 H 0.02946 0.2807 0.3148 0.0
H78 H 0.8843 0.21397 0.28882 0.0
H79 H 0.85085 0.19479 0.32453 0.0
Tb80 Tb 0.54437 0.74139 0.72299 0.0
Tb81 Tb 0.64536 0.81192 0.70572 0.0
C82 C 0.46782 0.67096 0.73698 0.0
C83 C 0.44904 0.65455 0.7589 0.0
C84 C 0.46461 0.62759 0.77088 0.0
C85 C 0.44728 0.61208 0.79141 0.0
C86 C 0.41452 0.62392 0.80079 0.0
C87 C 0.39917 0.6513 0.78901 0.0
C88 C 0.41585 0.66603 0.76823 0.0
C89 C 0.5768 0.83368 0.73062 0.0
C90 C 0.63389 0.78768 0.75398 0.0
C91 C 0.71705 0.87894 0.68696 0.0
C92 C 0.72472 0.90774 0.66757 0.0
C93 C 0.68932 0.91816 0.66008 0.0
C94 C 0.69666 0.94374 0.64111 0.0
C95 C 0.73927 0.95886 0.62919 0.0
C96 C 0.77465 0.94852 0.63686 0.0
C97 C 0.76745 0.92332 0.65587 0.0
C98 C 0.62534 0.72223 0.71174 0.0
C99 C 0.55319 0.76928 0.67451 0.0
O100 O 0.50619 0.66821 0.73146 0.0
O101 O 0.4702 0.71109 0.73028 0.0
O102 O 0.58258 0.81592 0.7139 0.0
O103 O 0.54967 0.79881 0.74338 0.0
O104 O 0.5915 0.74937 0.74941 0.0
O105 O 0.65966 0.82155 0.73977 0.0
O106 O 0.69447 0.88621 0.70272 0.0
O107 O 0.70206 0.83298 0.68391 0.0
O108 O 0.59766 0.73638 0.70474 0.0
O109 O 0.66742 0.75948 0.71576 0.0
O110 O 0.60058 0.79779 0.67734 0.0
O111 O 0.52368 0.74306 0.69009 0.0
H112 H 0.49065 0.61873 0.7645 0.0
H113 H 0.4603 0.59155 0.80012 0.0
H114 H 0.37372 0.66078 0.79577 0.0
H115 H 0.40294 0.68665 0.75953 0.0
H116 H 0.65576 0.90599 0.66873 0.0
H117 H 0.66846 0.95059 0.6355 0.0
H118 H 0.808 0.96 0.62815 0.0
H119 H 0.79511 0.91549 0.66133 0.0
Tb120 Tb 0.77447 0.53067 0.05604 0.0
Tb121 Tb 0.81935 0.63258 0.0384 0.0
C122 C 0.75486 0.44884 0.06899 0.0
C123 C 0.76276 0.43488 0.09041 0.0
C124 C 0.80489 0.46605 0.10188 0.0
C125 C 0.81206 0.45451 0.12239 0.0
C126 C 0.77726 0.41135 0.1321 0.0
C127 C 0.7353 0.37967 0.12052 0.0
C128 C 0.72803 0.39148 0.09991 0.0
C129 C 0.74227 0.58509 0.0729 0.0
C130 C 0.85469 0.61822 0.082 0.0
C131 C 0.83456 0.70979 0.02096 0.0
C132 C 0.81525 0.72092 1.0019 0.0
C133 C 0.7684 0.68874 0.99436 0.0
C134 C 0.75309 0.69678 0.97476 0.0
C135 C 0.78434 0.73719 0.96238 0.0
C136 C 0.83061 0.77013 0.97039 0.0
C137 C 0.84591 0.76196 0.98992 0.0
C138 C 0.86715 0.58633 0.03206 0.0
C139 C 0.73795 0.54371 1.01125 0.0
O140 O 0.79448 0.47752 0.05833 0.0
O141 O 0.72211 0.46235 0.06764 0.0
O142 O 0.75264 0.58414 0.05375 0.0
O143 O 0.74802 0.55311 0.08303 0.0
O144 O 0.83869 0.57321 0.07568 0.0
O145 O 0.84522 0.64795 0.07104 0.0
O146 O 0.80475 0.6899 0.03694 0.0
O147 O 0.86027 0.689 0.01722 0.0
O148 O 0.82243 0.56965 0.03127 0.0
O149 O 0.88858 0.63208 0.03657 0.0
O150 O 0.76899 0.59081 1.01292 0.0
O151 O 0.7331 0.51258 0.02637 0.0
H152 H 0.83262 0.49944 0.09496 0.0
H153 H 0.84519 0.4794 0.13059 0.0
H154 H 0.70753 0.3463 0.12757 0.0
H155 H 0.69518 0.3669 0.09147 0.0
H156 H 0.74411 0.65669 1.0033 0.0
H157 H 0.71741 0.67046 0.96901 0.0
H158 H 0.85526 0.80205 0.96145 0.0
H159 H 0.88225 0.78711 0.99544 0.0
Tb160 Tb 0.22654 0.74656 0.38949 0.0
Tb161 Tb 0.14058 0.7567 0.37852 0.0
C162 C 0.30706 0.75917 0.4024 0.0
C163 C 0.3265 0.76 0.42371 0.0
C164 C 0.30383 0.76505 0.44181 0.0
C165 C 0.32215 0.7655 0.46201 0.0
C166 C 0.36295 0.75964 0.46465 0.0
C167 C 0.3849 0.75361 0.44637 0.0
C168 C 0.36699 0.75407 0.42614 0.0
C169 C 0.14272 0.67635 0.40419 0.0
C170 C 0.19333 0.80581 0.42008 0.0
C171 C 0.06007 0.73919 0.36415 0.0
C172 C 0.04408 0.73061 0.34181 0.0
C173 C -0.00386 0.69648 0.33648 0.0
C174 C 0.98227 0.68615 0.31517 0.0
C175 C 0.01614 0.70985 0.29877 0.0
C176 C 0.06413 0.74417 0.30432 0.0
C177 C 0.07797 0.7541 0.32553 0.0
C178 C 0.22465 0.82702 0.36517 0.0
C179 C 0.17588 0.70131 0.3468 0.0
O180 O 0.29901 0.79462 0.39791 0.0
O181 O 0.27126 0.71731 0.39637 0.0
O182 O 0.1558 0.7204 0.40318 0.0
O183 O 0.17854 0.67135 0.39788 0.0
O184 O 0.22877 0.79904 0.41292 0.0
O185 O 0.1504 0.78537 0.41057 0.0
O186 O 0.06725 0.70588 0.37272 0.0
O187 O 0.0951 0.78296 0.36861 0.0
O188 O 0.21078 0.7829 0.36566 0.0
O189 O 0.18938 0.83356 0.37104 0.0
O190 O 0.13974 0.70631 0.35432 0.0
O191 O 0.21833 0.72164 0.35668 0.0
H192 H 0.27184 0.76855 0.44033 0.0
H193 H 0.30447 0.77093 0.47551 0.0
H194 H 0.41561 0.7479 0.44761 0.0
H195 H 0.3846 0.74941 0.41239 0.0
H196 H 0.96963 0.67727 0.34878 0.0
H197 H 0.94522 0.65891 0.3116 0.0
H198 H 0.09117 0.76381 0.29228 0.0
H199 H 0.11548 0.78 0.32918 0.0
Tb200 Tb 0.42788 0.25043 0.72374 0.0
Tb201 Tb 0.33087 0.17306 0.70565 0.0
C202 C 0.50012 0.32546 0.73753 0.0
C203 C 0.51872 0.34131 0.7592 0.0
C204 C 0.54393 0.39067 0.76405 0.0
C205 C 0.55904 0.40614 0.78481 0.0
C206 C 0.54944 0.37276 0.80127 0.0
C207 C 0.52432 0.3231 0.79623 0.0
C208 C 0.50891 0.30756 0.77546 0.0
C209 C 0.40524 0.16046 0.73123 0.0
C210 C 0.33779 0.19476 0.75394 0.0
C211 C 0.26539 0.10486 0.68463 0.0
C212 C 0.26263 0.0822 0.66371 0.0
C213 C 0.28353 0.05299 0.66015 0.0
C214 C 0.28011 0.03205 0.64022 0.0
C215 C 0.25582 0.03988 0.62334 0.0
C216 C 0.23541 0.06953 0.62697 0.0
C217 C 0.23851 0.09007 0.64687 0.0
C218 C 0.34151 0.25939 0.71185 0.0
C219 C 0.42454 0.2243 0.67545 0.0
O220 O 0.45826 0.32252 0.73353 0.0
O221 O 0.50259 0.28832 0.7301 0.0
O222 O 0.39718 0.17645 0.71446 0.0
O223 O 0.42918 0.19616 0.74411 0.0
O224 O 0.37761 0.2362 0.74974 0.0
O225 O 0.31558 0.16017 0.73957 0.0
O226 O 0.28958 0.09824 0.69992 0.0
O227 O 0.27365 0.14938 0.68401 0.0
O228 O 0.37242 0.24948 0.70488 0.0
O229 O 0.30149 0.21948 0.71567 0.0
O230 O 0.37783 0.19235 0.67782 0.0
O231 O 0.4517 0.25207 0.69119 0.0
H232 H 0.55121 0.41729 0.75183 0.0
H233 H 0.57746 0.44432 0.78801 0.0
H234 H 0.51673 0.29608 0.80827 0.0
H235 H 0.489 0.26914 0.77215 0.0
H236 H 0.30236 0.04605 0.67276 0.0
H237 H 0.29578 0.00901 0.63818 0.0
H238 H 0.21724 0.07731 0.61437 0.0
H239 H 0.22205 0.11241 0.64907 0.0
H240 H 0.09387 0.65753 0.32237 0.0
H241 H 0.0849 0.62511 0.28667 0.0
H242 H 0.23559 0.66324 0.28677 0.0
H243 H 0.24455 0.69477 0.32279 0.0
H244 H 0.12192 0.6649 0.25095 0.0
H245 H 0.25574 0.59203 0.25576 0.0
H246 H 0.28527 0.55602 0.28232 0.0
H247 H 0.15127 0.50043 0.31659 0.0
H248 H 0.12098 0.5361 0.29023 0.0
H249 H 0.18868 0.63757 0.148 0.0
H250 H 0.18807 0.65698 0.18525 0.0
H251 H 0.11097 0.50501 0.20067 0.0
H252 H 0.11368 0.48525 0.16346 0.0
H253 H 0.17858 0.5518 0.22935 0.0
H254 H 0.04842 0.57143 0.2019 0.0
H255 H 0.01147 0.60033 0.17547 0.0
H256 H 0.12222 0.7471 0.18737 0.0
H257 H 0.1596 0.71907 0.21402 0.0
C258 C 0.12507 0.6585 0.31496 0.0
C259 C 0.16995 0.67855 0.32561 0.0
C260 C 0.11988 0.64009 0.29442 0.0
C261 C 0.15935 0.64111 0.28395 0.0
C262 C 0.2042 0.66096 0.29457 0.0
C263 C 0.20937 0.67919 0.3152 0.0
C264 C 0.15395 0.6229 0.26172 0.0
C265 C 0.13427 0.64009 0.24634 0.0
C266 C 0.16886 0.5896 0.25551 0.0
C267 C 0.18633 0.5671 0.27114 0.0
C268 C 0.23255 0.572 0.26893 0.0
C269 C 0.2495 0.55185 0.284 0.0
C270 C 0.22027 0.52619 0.30119 0.0
C271 C 0.17397 0.52053 0.30333 0.0
C272 C 0.15697 0.54084 0.28837 0.0
C273 C 0.17189 0.60814 0.15927 0.0
C274 C 0.15119 0.55976 0.15255 0.0
C275 C 0.17102 0.61933 0.18062 0.0
C276 C 0.14878 0.58251 0.19586 0.0
C277 C 0.12815 0.53415 0.18927 0.0
C278 C 0.12927 0.52289 0.16789 0.0
C279 C 0.14774 0.59478 0.21862 0.0
C280 C 0.1661 0.57645 0.23406 0.0
C281 C 0.13036 0.62592 0.22503 0.0
C282 C 0.10691 0.64317 0.2098 0.0
C283 C 0.06484 0.60987 0.19887 0.0
C284 C 0.04384 0.62606 0.18388 0.0
C285 C 0.06481 0.67545 0.17963 0.0
C286 C 0.10626 0.70884 0.19062 0.0
C287 C 0.12719 0.69285 0.20576 0.0
H288 H 0.04895 0.68781 0.16782 0.0
H289 H 0.2334 0.51049 0.3128 0.0
H290 H 0.52149 0.26741 0.66551 0.0
H291 H 0.5574 0.2656 0.6315 0.0
H292 H 0.41433 0.18509 0.60408 0.0
H293 H 0.37829 0.18536 0.63807 0.0
H294 H 0.46483 0.14653 0.59194 0.0
H295 H 0.49475 0.30993 0.59443 0.0
H296 H 0.52567 0.39119 0.60975 0.0
H297 H 0.67071 0.4141 0.60907 0.0
H298 H 0.64055 0.33269 0.59398 0.0
H299 H 0.52534 0.18765 0.48224 0.0
H300 H 0.49548 0.18687 0.51793 0.0
H301 H 0.64048 0.24548 0.54263 0.0
H302 H 0.67059 0.24478 0.50712 0.0
H303 H 0.59351 0.29434 0.55693 0.0
H304 H 0.56153 0.13156 0.55045 0.0
H305 H 0.52813 0.05112 0.53396 0.0
H306 H 0.38361 0.027 0.54158 0.0
H307 H 0.41599 0.10782 0.55742 0.0
C308 C 0.49771 0.24971 0.65218 0.0
C309 C 0.44701 0.22674 0.65454 0.0
C310 C 0.5183 0.24876 0.6327 0.0
C311 C 0.48867 0.22561 0.61506 0.0
C312 C 0.43807 0.20308 0.61739 0.0
C313 C 0.41749 0.20351 0.63687 0.0
C314 C 0.50997 0.22397 0.59424 0.0
C315 C 0.49255 0.17898 0.58419 0.0
C316 C 0.5471 0.26605 0.58428 0.0
C317 C 0.56532 0.31504 0.59329 0.0
C318 C 0.53319 0.33217 0.59769 0.0
C319 C 0.55058 0.37827 0.60631 0.0
C320 C 0.6001 0.40773 0.61043 0.0
C321 C 0.63235 0.3912 0.60589 0.0
C322 C 0.61514 0.34511 0.5973 0.0
C323 C 0.5509 0.1996 0.49525 0.0
C324 C 0.60053 0.21633 0.49165 0.0
C325 C 0.53372 0.19935 0.51567 0.0
C326 C 0.56573 0.216 0.53296 0.0
C327 C 0.61518 0.23267 0.5295 0.0
C328 C 0.63235 0.23249 0.50912 0.0
C329 C 0.5477 0.2171 0.55454 0.0
C330 C 0.56588 0.26193 0.56474 0.0
C331 C 0.51089 0.17492 0.56451 0.0
C332 C 0.49132 0.12617 0.5549 0.0
C333 C 0.52265 0.10941 0.54835 0.0
C334 C 0.50387 0.06368 0.53913 0.0
C335 C 0.45379 0.03408 0.53664 0.0
C336 C 0.42237 0.05007 0.5434 0.0
C337 C 0.44093 0.09588 0.55247 0.0
H338 H 0.43931 -0.0013 0.52951 0.0
H339 H 0.6135 0.44341 0.61711 0.0
H340 H 0.24869 0.40423 0.97854 0.0
H341 H 0.27811 0.43603 0.94336 0.0
H342 H 0.3143 0.57881 0.96436 0.0
H343 H 0.28292 0.54645 0.9998 0.0
H344 H 0.27415 0.5623 0.92641 0.0
H345 H 0.41086 0.55061 0.95378 0.0
H346 H 0.4473 0.50842 0.97238 0.0
H347 H 0.38003 0.39058 0.92842 0.0
H348 H 0.34406 0.4326 0.9092 0.0
H349 H 0.41096 0.67808 0.83367 0.0
H350 H 0.3845 0.65214 0.87013 0.0
H351 H 0.35016 0.50713 0.854 0.0
H352 H 0.37874 0.53352 0.81781 0.0
H353 H 0.3921 0.52763 0.89037 0.0
H354 H 0.2614 0.54368 0.86096 0.0
H355 H 0.22371 0.5853 0.84294 0.0
H356 H 0.27521 0.693 0.89188 0.0
H357 H 0.31376 0.65235 0.91005 0.0
C358 C 0.26315 0.44251 0.97583 0.0
C359 C 0.26373 0.47284 0.99214 0.0
C360 C 0.28034 0.46079 0.95562 0.0
C361 C 0.29973 0.51019 0.95118 0.0
C362 C 0.29991 0.54062 0.96736 0.0
C363 C 0.28204 0.52213 0.98764 0.0
C364 C 0.31869 0.5294 0.92953 0.0
C365 C 0.30063 0.55552 0.91867 0.0
C366 C 0.35223 0.51952 0.91909 0.0
C367 C 0.37489 0.49474 0.93008 0.0
C368 C 0.40402 0.51577 0.94804 0.0
C369 C 0.42458 0.49191 0.95867 0.0
C370 C 0.41574 0.44672 0.95164 0.0
C371 C 0.38681 0.42558 0.9338 0.0
C372 C 0.3667 0.44959 0.92292 0.0
C373 C 0.39754 0.64061 0.83791 0.0
C374 C 0.39682 0.60784 0.82283 0.0
C375 C 0.38225 0.6257 0.85877 0.0
C376 C 0.36465 0.57734 0.86493 0.0
C377 C 0.36385 0.54463 0.84981 0.0
C378 C 0.38 0.55972 0.82907 0.0
C379 C 0.34761 0.56079 0.8871 0.0
C380 C 0.36592 0.53491 0.89808 0.0
C381 C 0.31418 0.57087 0.89761 0.0
C382 C 0.29088 0.59525 0.88674 0.0
C383 C 0.26498 0.57643 0.86779 0.0
C384 C 0.24342 0.59982 0.85757 0.0
C385 C 0.24718 0.64184 0.86623 0.0
C386 C 0.27239 0.66049 0.88517 0.0
C387 C 0.29407 0.63728 0.89545 0.0
H388 H 0.23046 0.65989 0.85828 0.0
H389 H 0.43136 0.42811 0.95999 0.0
H390 H 0.87359 0.31598 0.32199 0.0
H391 H 0.87832 0.34851 0.28643 0.0
H392 H 0.72386 0.29446 0.28757 0.0
H393 H 0.71957 0.26443 0.32345 0.0
H394 H 0.84796 0.31362 0.25096 0.0
H395 H 0.68935 0.35675 0.25662 0.0
H396 H 0.65401 0.38728 0.28299 0.0
H397 H 0.78775 0.45319 0.3179 0.0
H398 H 0.82409 0.42362 0.29162 0.0
H399 H 0.7584 0.3241 0.14899 0.0
H400 H 0.76984 0.30667 0.18567 0.0
H401 H 0.82536 0.45631 0.20202 0.0
H402 H 0.81298 0.47381 0.1657 0.0
H403 H 0.76126 0.40047 0.23043 0.0
H404 H 0.90117 0.41378 0.19994 0.0
H405 H 0.95532 0.40191 0.17589 0.0
H406 H 0.88591 0.25184 0.1932 0.0
H407 H 0.8307 0.26258 0.21709 0.0
C408 C 0.84078 0.31173 0.31476 0.0
C409 C 0.79632 0.2882 0.32569 0.0
C410 C 0.84345 0.3301 0.29434 0.0
C411 C 0.8016 0.32479 0.28423 0.0
C412 C 0.75706 0.30057 0.29509 0.0
C413 C 0.75457 0.28314 0.31566 0.0
C414 C 0.80405 0.3431 0.26217 0.0
C415 C 0.82889 0.33255 0.24653 0.0
C416 C 0.78092 0.36959 0.25632 0.0
C417 C 0.75926 0.38747 0.27224 0.0
C418 C 0.71127 0.37786 0.26989 0.0
C419 C 0.69105 0.395 0.28483 0.0
C420 C 0.71856 0.42201 0.30214 0.0
C421 C 0.7664 0.43207 0.30453 0.0
C422 C 0.78678 0.41504 0.28964 0.0
C423 C 0.77278 0.35325 0.16043 0.0
C424 C 0.78462 0.40034 0.15434 0.0
C425 C 0.77981 0.34334 0.18136 0.0
C426 C 0.79864 0.38023 0.19667 0.0
C427 C 0.81066 0.42723 0.19059 0.0
C428 C 0.80386 0.43722 0.16971 0.0
C429 C 0.80354 0.36935 0.21922 0.0
C430 C 0.78008 0.38132 0.23491 0.0
C431 C 0.82992 0.34631 0.22527 0.0
C432 C 0.86124 0.33885 0.21009 0.0
C433 C 0.89684 0.37803 0.19835 0.0
C434 C 0.9279 0.37156 0.18481 0.0
C435 C 0.92396 0.32613 0.18295 0.0
C436 C 0.8888 0.28699 0.19457 0.0
C437 C 0.85761 0.29325 0.20813 0.0
H438 H 0.94833 0.32137 0.17257 0.0
H439 H 0.70284 0.43524 0.31369 0.0
H440 H 0.45747 0.72937 0.66266 0.0
H441 H 0.42529 0.72864 0.62741 0.0
H442 H 0.57092 0.80428 0.60232 0.0
H443 H 0.60333 0.80675 0.63759 0.0
H444 H 0.52271 0.84013 0.58483 0.0
H445 H 0.49009 0.67762 0.59558 0.0
H446 H 0.45792 0.59966 0.61426 0.0
H447 H 0.31341 0.57737 0.60965 0.0
H448 H 0.34482 0.65552 0.59117 0.0
H449 H 0.45798 0.7938 0.47662 0.0
H450 H 0.48918 0.79235 0.5116 0.0
H451 H 0.34459 0.72774 0.53742 0.0
H452 H 0.31227 0.72509 0.50209 0.0
H453 H 0.39257 0.68668 0.55414 0.0
H454 H 0.43131 0.85855 0.55109 0.0
H455 H 0.46191 0.93384 0.53033 0.0
H456 H 0.59358 0.93229 0.51714 0.0
H457 H 0.56428 0.8578 0.53843 0.0
C458 C 0.48267 0.74573 0.64964 0.0
C459 C 0.53301 0.76772 0.65303 0.0
C460 C 0.46419 0.74515 0.6294 0.0
C461 C 0.49551 0.76563 0.61195 0.0
C462 C 0.54581 0.78811 0.61539 0.0
C463 C 0.56433 0.78926 0.63564 0.0
C464 C 0.47605 0.76353 0.59014 0.0
C465 C 0.49466 0.80635 0.57813 0.0
C466 C 0.4389 0.7198 0.58121 0.0
C467 C 0.41987 0.67263 0.59217 0.0
C468 C 0.45149 0.65623 0.59867 0.0
C469 C 0.43339 0.61199 0.60921 0.0
C470 C 0.38367 0.58364 0.61319 0.0
C471 C 0.35192 0.5994 0.60658 0.0
C472 C 0.36985 0.64364 0.59606 0.0
C473 C 0.43247 0.77854 0.48959 0.0
C474 C 0.38238 0.75973 0.48629 0.0
C475 C 0.45064 0.77864 0.50978 0.0
C476 C 0.41953 0.76124 0.52738 0.0
C477 C 0.3695 0.74187 0.52418 0.0
C478 C 0.35113 0.74096 0.50391 0.0
C479 C 0.43913 0.76306 0.54906 0.0
C480 C 0.42058 0.7203 0.56098 0.0
C481 C 0.47655 0.80656 0.55785 0.0
C482 C 0.49577 0.85297 0.54638 0.0
C483 C 0.46701 0.87468 0.54395 0.0
C484 C 0.48414 0.91719 0.53213 0.0
C485 C 0.52971 0.9379 0.52245 0.0
C486 C 0.55833 0.91625 0.52467 0.0
C487 C 0.54176 0.87425 0.53683 0.0
H488 H 0.54284 0.97072 0.51326 0.0
H489 H 0.36972 0.54941 0.62136 0.0
H490 H 0.66044 0.45359 1.00195 0.0
H491 H 0.62138 0.42398 0.96748 0.0
H492 H 0.71873 0.56295 0.93962 0.0
H493 H 0.75602 0.59319 0.97398 0.0
H494 H 0.63816 0.53283 0.92176 0.0
H495 H 0.7342 0.45939 0.9359 0.0
H496 H 0.76311 0.41249 0.95608 0.0
H497 H 0.62109 0.28673 0.95273 0.0
H498 H 0.59114 0.33314 0.93279 0.0
H499 H 0.63186 0.45506 0.81468 0.0
H500 H 0.65659 0.48348 0.85086 0.0
H501 H 0.52955 0.35736 0.87483 0.0
H502 H 0.50308 0.3295 0.83865 0.0
H503 H 0.6197 0.37858 0.89478 0.0
H504 H 0.53165 0.45911 0.87448 0.0
H505 H 0.51401 0.51114 0.85167 0.0
H506 H 0.65653 0.63119 0.86347 0.0
H507 H 0.67543 0.57963 0.88603 0.0
C508 C 0.67318 0.47792 0.98851 0.0
C509 C 0.7116 0.52569 0.99081 0.0
C510 C 0.65102 0.46087 0.96872 0.0
C511 C 0.66763 0.49079 0.95066 0.0
C512 C 0.70502 0.53891 0.95315 0.0
C513 C 0.72652 0.55617 0.97292 0.0
C514 C 0.64754 0.47195 0.92907 0.0
C515 C 0.63457 0.49928 0.91587 0.0
C516 C 0.64242 0.42801 0.92117 0.0
C517 C 0.66029 0.39989 0.93308 0.0
C518 C 0.70905 0.42183 0.9396 0.0
C519 C 0.72563 0.39533 0.95098 0.0
C520 C 0.69391 0.3467 0.95574 0.0
C521 C 0.64558 0.32444 0.94907 0.0
C522 C 0.62878 0.35081 0.93773 0.0
C523 C 0.60856 0.43355 0.82753 0.0
C524 C 0.56524 0.38981 0.82351 0.0
C525 C 0.62303 0.44983 0.84828 0.0
C526 C 0.59489 0.42263 0.86556 0.0
C527 C 0.55196 0.37883 0.86173 0.0
C528 C 0.53707 0.3628 0.84096 0.0
C529 C 0.61072 0.43956 0.88763 0.0
C530 C 0.62296 0.41189 0.90084 0.0
C531 C 0.61676 0.484 0.89521 0.0
C532 C 0.60505 0.51528 0.88189 0.0
C533 C 0.55933 0.4965 0.87215 0.0
C534 C 0.54908 0.52595 0.85927 0.0
C535 C 0.58407 0.57446 0.85617 0.0
C536 C 0.62942 0.59362 0.86593 0.0
C537 C 0.63991 0.56427 0.87876 0.0
H538 H 0.57612 0.59716 0.84615 0.0
H539 H 0.70682 0.32624 0.96455 0.0
H540 H 0.31888 0.52938 0.10319 0.0
H541 H 0.40689 0.57289 0.10808 0.0
H542 H 0.41423 0.45312 0.08033 0.0
H543 H 0.32648 0.41054 0.07451 0.0
H544 H 0.48062 0.56638 0.12484 0.0
H545 H 0.49403 0.49081 0.04267 0.0
H546 H 0.4418 0.45768 1.01111 0.0
H547 H 0.37389 0.54171 0.02514 0.0
H548 H 0.42626 0.57601 0.05654 0.0
H549 H 0.69062 0.55911 0.10933 0.0
H550 H 0.61656 0.56073 0.11595 0.0
H551 H 0.64098 0.64678 0.05957 0.0
H552 H 0.71354 0.64148 0.05195 0.0
H553 H 0.56015 0.57644 0.05595 0.0
H554 H 0.62711 0.68415 0.11256 0.0
H555 H 0.67526 0.72258 0.14462 0.0
H556 H 0.58461 0.59435 0.1806 0.0
H557 H 0.53633 0.55479 0.14873 0.0
C558 C 0.33919 0.51184 0.09866 0.0
C559 C 0.31652 0.46725 0.08797 0.0
C560 C 0.38939 0.53671 0.10151 0.0
C561 C 0.41699 0.51678 0.09396 0.0
C562 C 0.39347 0.46957 0.08572 0.0
C563 C 0.34352 0.44527 0.0824 0.0
C564 C 0.47011 0.54723 0.09185 0.0
C565 C 0.49842 0.56901 0.10985 0.0
C566 C 0.49273 0.5533 0.07193 0.0
C567 C 0.46397 0.5358 0.05205 0.0
C568 C 0.46845 0.50274 0.03886 0.0
C569 C 0.43866 0.4836 0.02105 0.0
C570 C 0.4044 0.49741 1.0162 0.0
C571 C 0.40035 0.53094 0.02896 0.0
C572 C 0.43011 0.55028 0.04674 0.0
C573 C 0.681 0.57956 0.09864 0.0
C574 C 0.70713 0.59929 0.07989 0.0
C575 C 0.63874 0.58107 0.1026 0.0
C576 C 0.62281 0.60389 0.08827 0.0
C577 C 0.65219 0.62853 0.07077 0.0
C578 C 0.69382 0.62577 0.06647 0.0
C579 C 0.57182 0.59337 0.08936 0.0
C580 C 0.54326 0.57537 0.07101 0.0
C581 C 0.5493 0.59285 0.10881 0.0
C582 C 0.57805 0.61645 0.12817 0.0
C583 C 0.61756 0.66401 0.12727 0.0
C584 C 0.64488 0.68602 0.14543 0.0
C585 C 0.633 0.66093 0.16463 0.0
C586 C 0.59372 0.61378 0.16572 0.0
C587 C 0.56627 0.59158 0.14761 0.0
H588 H 0.65423 0.67802 0.17866 0.0
H589 H 0.38097 0.48215 1.00256 0.0
H590 H 0.04494 0.62092 0.40456 0.0
H591 H -0.00328 0.55827 0.43038 0.0
H592 H 0.1247 0.60249 0.46876 0.0
H593 H 0.17309 0.66441 0.44238 0.0
H594 H 0.09054 0.51502 0.46011 0.0
H595 H 0.01746 0.58807 0.49346 0.0
H596 H 0.98254 0.64045 0.50028 0.0
H597 H 0.86231 0.55233 0.45949 0.0
H598 H 0.89674 0.4999 0.45207 0.0
H599 H 0.82559 0.29205 0.44439 0.0
H600 H 0.88353 0.34956 0.47019 0.0
H601 H 0.98913 0.41676 0.42014 0.0
H602 H 0.93133 0.35953 0.39461 0.0
H603 H 0.91256 0.44208 0.46798 0.0
H604 H 0.09738 0.46426 0.43465 0.0
H605 H 0.13163 0.41096 0.4292 0.0
H606 H 0.02939 0.30848 0.47338 0.0
H607 H -0.00503 0.36155 0.47949 0.0
C608 C 0.0622 0.61804 0.41885 0.0
C609 C 0.11231 0.64627 0.4215 0.0
C610 C 0.03468 0.58276 0.43382 0.0
C611 C 0.05701 0.57572 0.45171 0.0
C612 C 0.10667 0.60725 0.45519 0.0
C613 C 0.13422 0.64224 0.4401 0.0
C614 C 0.03105 0.52902 0.46313 0.0
C615 C 0.05175 0.49908 0.46238 0.0
C616 C 0.98128 0.50848 0.46807 0.0
C617 C 0.95964 0.5396 0.47239 0.0
C618 C 0.98361 0.57984 0.48589 0.0
C619 C 0.96389 0.60961 0.48985 0.0
C620 C 0.92015 0.59962 0.48038 0.0
C621 C 0.89607 0.55987 0.46691 0.0
C622 C 0.91561 0.52996 0.46289 0.0
C623 C 0.86182 0.31849 0.43921 0.0
C624 C 0.87457 0.32226 0.41773 0.0
C625 C 0.89477 0.35093 0.4539 0.0
C626 C 0.94081 0.38699 0.44719 0.0
C627 C 0.95426 0.38847 0.42583 0.0
C628 C 0.92124 0.35631 0.41117 0.0
C629 C 0.97131 0.42917 0.46072 0.0
C630 C 0.95161 0.45809 0.46681 0.0
C631 C 0.02208 0.44874 0.4611 0.0
C632 C 0.04378 0.41732 0.45771 0.0
C633 C 0.08259 0.4308 0.44351 0.0
C634 C 0.10193 0.40045 0.44021 0.0
C635 C 0.0828 0.35643 0.45098 0.0
C636 C 0.04424 0.34263 0.46507 0.0
C637 C 0.02478 0.37284 0.46845 0.0
H638 H 0.09779 0.33297 0.44836 0.0
H639 H 0.90497 0.62275 0.48346 0.0
H640 H 0.39873 0.10254 0.69831 0.0
H641 H 0.42792 0.04457 0.69837 0.0
H642 H 0.45248 0.06416 0.76574 0.0
H643 H 0.42382 0.12239 0.76576 0.0
H644 H 0.52457 0.07648 0.71134 0.0
H645 H 0.43933 0.95756 0.78556 0.0
H646 H 0.36201 0.91988 0.80526 0.0
H647 H 0.28557 0.91583 0.74856 0.0
H648 H 0.36227 0.95282 0.72846 0.0
H649 H 0.57459 0.88131 0.76554 0.0
H650 H 0.55282 0.94474 0.76655 0.0
H651 H 0.55457 0.9494 0.69818 0.0
H652 H 0.57901 0.88828 0.69723 0.0
H653 H 0.46943 0.92624 0.753 0.0
H654 H 0.55766 0.04848 0.67931 0.0
H655 H 0.63589 0.08706 0.66032 0.0
H656 H 0.70942 0.08731 0.71738 0.0
H657 H 0.63176 0.04931 0.73678 0.0
C658 C 0.409 0.09332 0.71321 0.0
C659 C 0.40984 0.11716 0.73201 0.0
C660 C 0.42587 0.06055 0.71319 0.0
C661 C 0.44267 0.05072 0.73201 0.0
C662 C 0.4395 0.07136 0.75109 0.0
C663 C 0.42316 0.10448 0.75108 0.0
C664 C 0.46858 0.0234 0.73148 0.0
C665 C 0.51233 0.04316 0.72015 0.0
C666 C 0.45318 0.98122 0.74367 0.0
C667 C 0.40668 0.95843 0.75556 0.0
C668 C 0.40599 0.94847 0.77728 0.0
C669 C 0.36228 0.92725 0.78852 0.0
C670 C 0.31893 0.91562 0.77818 0.0
C671 C 0.3192 0.92505 0.75657 0.0
C672 C 0.3628 0.94623 0.74525 0.0
C673 C 0.57225 0.8975 0.75082 0.0
C674 C 0.57775 0.87986 0.73133 0.0
C675 C 0.5596 0.93341 0.75138 0.0
C676 C 0.55156 0.95141 0.73245 0.0
C677 C 0.56121 0.93662 0.713 0.0
C678 C 0.57499 0.90152 0.71246 0.0
C679 C 0.52602 0.97934 0.73294 0.0
C680 C 0.48213 0.95968 0.74424 0.0
C681 C 0.54163 0.02192 0.72088 0.0
C682 C 0.58875 0.04565 0.70946 0.0
C683 C 0.59055 0.057 0.68784 0.0
C684 C 0.63479 0.07871 0.67699 0.0
C685 C 0.67758 0.08949 0.68763 0.0
C686 C 0.67623 0.07876 0.70915 0.0
C687 C 0.63209 0.05707 0.72007 0.0
H688 H 0.71178 0.10624 0.67919 0.0
H689 H 0.28513 0.89922 0.78692 0.0
H690 H 0.63539 0.69571 0.75195 0.0
H691 H 0.57769 0.61793 0.76831 0.0
H692 H 0.5169 0.5616 0.7067 0.0
H693 H 0.57103 0.63994 0.69084 0.0
H694 H 0.44893 0.55607 0.73387 0.0
H695 H 0.58954 0.52064 0.73932 0.0
H696 H 0.6689 0.54354 0.75555 0.0
H697 H 0.61152 0.5433 0.8171 0.0
H698 H 0.53187 0.5205 0.80119 0.0
H699 H 0.40251 0.34506 0.69454 0.0
H700 H 0.43941 0.424 0.71171 0.0
H701 H 0.35196 0.35937 0.76737 0.0
H702 H 0.31341 0.27974 0.74972 0.0
H703 H 0.47551 0.43062 0.76721 0.0
H704 H 0.32634 0.42702 0.76063 0.0
H705 H 0.24699 0.40521 0.74492 0.0
H706 H 0.31788 0.48559 0.68883 0.0
H707 H 0.39757 0.50723 0.70402 0.0
C708 C 0.61049 0.66612 0.74194 0.0
C709 C 0.60659 0.67354 0.72026 0.0
C710 C 0.5777 0.62178 0.75129 0.0
C711 C 0.54238 0.5844 0.73877 0.0
C712 C 0.54311 0.59039 0.71672 0.0
C713 C 0.57443 0.63482 0.70759 0.0
C714 C 0.50127 0.54043 0.74799 0.0
C715 C 0.45438 0.52877 0.74159 0.0
C716 C 0.50769 0.50632 0.75962 0.0
C717 C 0.55498 0.51879 0.7691 0.0
C718 C 0.59396 0.52544 0.75631 0.0
C719 C 0.63892 0.53843 0.76545 0.0
C720 C 0.64518 0.54479 0.78735 0.0
C721 C 0.60656 0.53838 0.80016 0.0
C722 C 0.5615 0.52527 0.7911 0.0
C723 C 0.39025 0.34791 0.71021 0.0
C724 C 0.35528 0.30675 0.72087 0.0
C725 C 0.4116 0.39272 0.72007 0.0
C726 C 0.39874 0.39705 0.74085 0.0
C727 C 0.36243 0.35636 0.75138 0.0
C728 C 0.34021 0.31127 0.74125 0.0
C729 C 0.42477 0.44519 0.75067 0.0
C730 C 0.4691 0.45845 0.76076 0.0
C731 C 0.41576 0.48134 0.74288 0.0
C732 C 0.36801 0.46884 0.73354 0.0
C733 C 0.325 0.43985 0.7449 0.0
C734 C 0.27995 0.42753 0.73609 0.0
C735 C 0.2774 0.44405 0.7159 0.0
C736 C 0.31992 0.47293 0.70449 0.0
C737 C 0.36507 0.48534 0.71323 0.0
H738 H 0.24248 0.43445 0.7091 0.0
H739 H 0.67996 0.55475 0.7944 0.0
H740 H 0.10093 0.35796 0.99714 0.0
H741 H 0.03921 0.37937 0.9879 0.0
H742 H -0.00242 0.36644 0.05374 0.0
H743 H 0.05636 0.34122 0.06251 0.0
H744 H 0.92394 0.34922 0.03123 0.0
H745 H 0.09711 0.48225 0.03038 0.0
H746 H 0.18103 0.52008 0.01655 0.0
H747 H 0.1276 0.50937 0.95321 0.0
H748 H 0.04357 0.47169 0.96679 0.0
H749 H 0.95807 0.60453 0.04294 0.0
H750 H 0.99136 0.55052 0.0371 0.0
H751 H 0.86013 0.44965 1.00433 0.0
H752 H 0.82643 0.50226 1.01075 0.0
H753 H 0.01142 0.51617 1.00232 0.0
H754 H 0.83161 0.34871 1.01118 0.0
H755 H 0.75427 0.31317 0.03098 0.0
H756 H 0.82976 0.39717 0.08563 0.0
H757 H 0.90692 0.43473 0.06581 0.0
C758 C 0.07662 0.35728 1.00934 0.0
C759 C 0.08279 0.34805 0.03047 0.0
C760 C 0.04199 0.37017 1.00414 0.0
C761 C 0.0151 0.37625 0.02023 0.0
C762 C 0.01808 0.36223 0.04104 0.0
C763 C 0.05159 0.34779 0.0461 0.0
C764 C 0.98974 0.40376 0.01642 0.0
C765 C 0.94275 0.38536 0.02452 0.0
C766 C 0.0142 0.45108 1.00775 0.0
C767 C 0.0644 0.47367 0.99956 0.0
C768 C 0.10351 0.48773 1.01353 0.0
C769 C 0.15096 0.50913 1.00574 0.0
C770 C 0.1596 0.51674 0.984 0.0
C771 C 0.12083 0.50327 0.97003 0.0
C772 C 0.07334 0.48202 0.97776 0.0
C773 C 0.93669 0.57091 0.03444 0.0
C774 C 0.88976 0.55713 0.02747 0.0
C775 C 0.95554 0.54016 0.0311 0.0
C776 C 0.92771 0.4957 0.02063 0.0
C777 C 0.88161 0.48308 1.01294 0.0
C778 C 0.86262 0.51333 0.0165 0.0
C779 C 0.94669 0.46226 0.018 0.0
C780 C -0.0079 0.47949 1.00843 0.0
C781 C 0.92126 0.41426 0.02568 0.0
C782 C 0.87462 0.39473 0.03701 0.0
C783 C 0.83138 0.36001 0.02733 0.0
C784 C 0.78761 0.33975 0.03851 0.0
C785 C 0.78698 0.35328 0.05949 0.0
C786 C 0.83006 0.38742 0.06927 0.0
C787 C 0.87373 0.40851 0.05802 0.0
H788 H 0.75318 0.33704 0.06821 0.0
H789 H 0.19632 0.53336 0.97798 0.0
H790 H 0.29887 0.81372 0.3539 0.0
H791 H 0.38508 0.87373 0.35408 0.0
H792 H 0.35143 0.98532 0.36959 0.0
H793 H 0.26433 0.92458 0.37041 0.0
H794 H 0.42889 0.98957 0.33107 0.0
H795 H 0.38682 0.97913 0.40575 0.0
H796 H 0.34708 0.9351 0.43848 0.0
H797 H 0.42789 0.86048 0.43589 0.0
H798 H 0.46648 0.90239 0.40256 0.0
H799 H 0.66909 0.16685 0.35499 0.0
H800 H 0.58139 0.11624 0.35366 0.0
H801 H 0.59333 0.99257 0.37264 0.0
H802 H 0.68206 0.04417 0.37487 0.0
H803 H 0.52451 -0.00173 0.39475 0.0
H804 H 0.56679 0.0065 0.32137 0.0
H805 H 0.60674 0.04697 0.28802 0.0
H806 H 0.52711 0.12301 0.28765 0.0
H807 H 0.48714 0.08346 0.32116 0.0
C808 C 0.30973 0.85104 0.3573 0.0
C809 C 0.27533 0.86464 0.36251 0.0
C810 C 0.35883 0.88511 0.35738 0.0
C811 C 0.37403 0.93333 0.36219 0.0
C812 C 0.33982 0.94786 0.3661 0.0
C813 C 0.29043 0.9134 0.36648 0.0
C814 C 0.42612 0.96765 0.36348 0.0
C815 C 0.44996 0.9926 0.34509 0.0
C816 C 0.45294 0.96945 0.38161 0.0
C817 C 0.42894 0.94335 0.40142 0.0
C818 C 0.39534 0.95257 0.41188 0.0
C819 C 0.37311 0.92808 0.43059 0.0
C820 C 0.38479 0.89486 0.43922 0.0
C821 C 0.41859 0.88593 0.4291 0.0
C822 C 0.44055 0.90994 0.41026 0.0
C823 C 0.65313 0.12883 0.35881 0.0
C824 C 0.68205 0.10925 0.36514 0.0
C825 C 0.60303 0.09993 0.35791 0.0
C826 C 0.58104 0.05066 0.36282 0.0
C827 C 0.60987 0.03064 0.36878 0.0
C828 C 0.6603 0.05987 0.36991 0.0
C829 C 0.52775 0.02068 0.36229 0.0
C830 C 0.50365 -0.00396 0.38077 0.0
C831 C 0.50067 0.01888 0.34417 0.0
C832 C 0.52428 0.04231 0.32388 0.0
C833 C 0.55803 0.03209 0.31425 0.0
C834 C 0.58065 0.05483 0.29531 0.0
C835 C 0.56956 0.08763 0.28575 0.0
C836 C 0.5357 0.09763 0.29508 0.0
C837 C 0.513 0.07501 0.31404 0.0
H838 H 0.58714 0.10522 0.27109 0.0
H839 H 0.36782 0.87625 0.45379 0.0
H840 H 0.3751 0.17458 0.78816 0.0
H841 H 0.36043 0.1858 0.82535 0.0
H842 H 0.25007 0.21858 0.80587 0.0
H843 H 0.26325 0.20521 0.76868 0.0
H844 H 0.34283 0.29343 0.83206 0.0
H845 H 0.20488 0.12988 0.8301 0.0
H846 H 0.16629 0.0422 0.82349 0.0
H847 H 0.26198 0.03181 0.86845 0.0
H848 H 0.30166 0.11962 0.87509 0.0
H849 H 0.26762 0.33455 0.9319 0.0
H850 H 0.27543 0.31321 0.89561 0.0
H851 H 0.32909 0.2214 0.91872 0.0
H852 H 0.31931 0.24088 0.9551 0.0
H853 H 0.26467 0.17471 0.89018 0.0
H854 H 0.40467 0.33073 0.89265 0.0
H855 H 0.45582 0.41862 0.89812 0.0
H856 H 0.37174 0.44475 0.85235 0.0
H857 H 0.31958 0.35699 0.84682 0.0
C858 C 0.34629 0.18211 0.79196 0.0
C859 C 0.31967 0.18827 0.77574 0.0
C860 C 0.33825 0.18892 0.81312 0.0
C861 C 0.30428 0.2031 0.81828 0.0
C862 C 0.2763 0.20745 0.80215 0.0
C863 C 0.28359 0.19953 0.781 0.0
C864 C 0.30169 0.21803 0.84022 0.0
C865 C 0.32494 0.26762 0.84477 0.0
C866 C 0.28056 0.1842 0.85682 0.0
C867 C 0.25659 0.13141 0.85291 0.0
C868 C 0.21804 0.109 0.83841 0.0
C869 C 0.19588 0.05925 0.8347 0.0
C870 C 0.21177 0.03147 0.8455 0.0
C871 C 0.24976 0.05337 0.86008 0.0
C872 C 0.27206 0.10312 0.86383 0.0
C873 C 0.28086 0.3096 0.92931 0.0
C874 C 0.29249 0.2892 0.94654 0.0
C875 C 0.28596 0.29793 0.90847 0.0
C876 C 0.30312 0.26583 0.90432 0.0
C877 C 0.31574 0.24623 0.92146 0.0
C878 C 0.31057 0.25781 0.9423 0.0
C879 C 0.30526 0.25059 0.88221 0.0
C880 C 0.28228 0.20086 0.87757 0.0
C881 C 0.32789 0.28442 0.86558 0.0
C882 C 0.35778 0.33719 0.86954 0.0
C883 C 0.39667 0.35518 0.88395 0.0
C884 C 0.42603 0.40502 0.88696 0.0
C885 C 0.41691 0.43728 0.87567 0.0
C886 C 0.37855 0.41976 0.86123 0.0
C887 C 0.34911 0.36996 0.85811 0.0
H888 H 0.43952 0.47584 0.87811 0.0
H889 H 0.19456 0.99296 0.84261 0.0
H890 H 0.03992 0.2471 0.28359 0.0
H891 H 0.07302 0.26444 0.24778 0.0
H892 H 0.95884 0.29111 0.22788 0.0
H893 H 0.92629 0.27569 0.2639 0.0
H894 H 0.97306 0.22926 0.20031 0.0
H895 H 0.06631 0.38553 0.23215 0.0
H896 H 0.11829 0.4444 0.25925 0.0
H897 H 0.22761 0.40507 0.24898 0.0
H898 H 0.17618 0.34582 0.2219 0.0
H899 H 0.07489 0.34849 0.10277 0.0
H900 H 0.03991 0.32434 0.13803 0.0
H901 H 0.15736 0.3012 0.15643 0.0
H902 H 0.19276 0.32524 0.12081 0.0
H903 H 0.14119 0.35957 0.18475 0.0
H904 H 0.04889 0.20703 0.15041 0.0
H905 H -0.00313 0.15055 0.1227 0.0
H906 H 0.88446 0.18319 0.13733 0.0
H907 H 0.93607 0.24033 0.16493 0.0
C908 C 0.02216 0.25748 0.27178 0.0
C909 C 0.98034 0.26002 0.27683 0.0
C910 C 0.04105 0.26708 0.25122 0.0
C911 C 0.01845 0.27913 0.23516 0.0
C912 C 0.97667 0.28158 0.24001 0.0
C913 C 0.958 0.27249 0.26064 0.0
C914 C 0.03832 0.28852 0.21327 0.0
C915 C 0.0096 0.2581 0.19683 0.0
C916 C 0.08632 0.32551 0.20884 0.0
C917 C 0.11718 0.36086 0.22519 0.0
C918 C 0.10126 0.38916 0.23581 0.0
C919 C 0.13067 0.42269 0.25111 0.0
C920 C 0.17609 0.42825 0.25589 0.0
C921 C 0.19235 0.4006 0.24529 0.0
C922 C 0.16315 0.36712 0.22993 0.0
C923 C 0.09302 0.33754 0.11417 0.0
C924 C 0.13662 0.33868 0.10896 0.0
C925 C 0.07283 0.32364 0.13434 0.0
C926 C 0.09588 0.3108 0.14986 0.0
C927 C 0.13893 0.31089 0.14465 0.0
C928 C 0.15893 0.32428 0.12428 0.0
C929 C 0.07614 0.30004 0.17176 0.0
C930 C 0.10478 0.33045 0.18822 0.0
C931 C 0.02797 0.26314 0.17615 0.0
C932 C -0.00333 0.22855 0.15959 0.0
C933 C 0.01328 0.20257 0.14758 0.0
C934 C 0.98381 0.17031 0.13192 0.0
C935 C 0.93746 0.16341 0.1282 0.0
C936 C 0.92042 0.18864 0.14019 0.0
C937 C 0.94978 0.22096 0.15586 0.0
H938 H 0.91468 0.13842 0.11606 0.0
H939 H 0.19873 0.45398 0.26778 0.0
H940 H 0.72234 0.03299 0.61946 0.0
H941 H 0.73169 0.07219 0.58501 0.0
H942 H 0.7806 0.98008 0.55772 0.0
H943 H 0.7721 0.94144 0.59211 0.0
H944 H 0.83415 0.07314 0.54372 0.0
H945 H 0.66364 0.95828 0.55657 0.0
H946 H 0.58913 0.92918 0.57771 0.0
H947 H 0.5869 0.05987 0.56426 0.0
H948 H 0.66291 0.09106 0.54399 0.0
H949 H 0.81212 0.1073 0.43475 0.0
H950 H 0.80495 0.07229 0.47001 0.0
H951 H 0.72869 0.1442 0.49203 0.0
H952 H 0.73321 0.1766 0.45663 0.0
H953 H 0.68911 0.06375 0.50968 0.0
H954 H 0.85503 0.18519 0.50275 0.0
H955 H 0.93624 0.22924 0.48642 0.0
H956 H 0.95076 0.1029 0.49182 0.0
H957 H 0.86933 0.0579 0.50795 0.0
C958 C 0.73511 0.02116 0.60611 0.0
C959 C 0.74623 0.98392 0.6085 0.0
C960 C 0.74059 0.04368 0.58644 0.0
C961 C 0.75626 0.02868 0.56867 0.0
C962 C 0.76849 0.99233 0.57117 0.0
C963 C 0.76357 0.97023 0.59085 0.0
C964 C 0.75813 0.04911 0.54724 0.0
C965 C 0.80232 0.07065 0.53617 0.0
C966 C 0.71697 0.0476 0.53772 0.0
C967 C 0.66959 0.02737 0.54893 0.0
C968 C 0.64772 0.98118 0.55831 0.0
C969 C 0.60527 0.96438 0.57025 0.0
C970 C 0.58322 0.9926 0.57229 0.0
C971 C 0.60388 0.03793 0.56258 0.0
C972 C 0.64686 0.05534 0.55098 0.0
C973 C 0.79366 0.11537 0.44712 0.0
C974 C 0.77333 0.14473 0.44289 0.0
C975 C 0.78983 0.09564 0.46736 0.0
C976 C 0.76711 0.10625 0.48401 0.0
C977 C 0.74633 0.13519 0.47962 0.0
C978 C 0.74907 0.15386 0.45931 0.0
C979 C 0.76529 0.08774 0.50598 0.0
C980 C 0.72106 0.06641 0.51717 0.0
C981 C 0.8068 0.09109 0.516 0.0
C982 C 0.85587 0.11803 0.50637 0.0
C983 C 0.87541 0.16671 0.50033 0.0
C984 C 0.92149 0.19186 0.49112 0.0
C985 C 0.94859 0.16884 0.48803 0.0
C986 C 0.9297 0.12066 0.4942 0.0
C987 C 0.8836 0.09532 0.50339 0.0
H988 H 0.98425 0.18837 0.4809 0.0
H989 H 0.55007 0.97928 0.58134 0.0
H990 H 0.72833 0.82689 0.76719 0.0
H991 H 0.75629 0.82256 0.80305 0.0
H992 H 0.6084 0.75155 0.8254 0.0
H993 H 0.5803 0.75466 0.78973 0.0
H994 H 0.67945 0.82722 0.85297 0.0
H995 H 0.64825 0.68426 0.81469 0.0
H996 H 0.65796 0.64215 0.78408 0.0
H997 H 0.8101 0.70586 0.79738 0.0
H998 H 0.8018 0.75031 0.82755 0.0
H999 H 0.69543 0.7227 0.94968 0.0
H1000 H 0.67157 0.73426 0.91429 0.0
H1001 H 0.81581 0.77995 0.89124 0.0
H1002 H 0.83946 0.76696 0.92636 0.0
H1003 H 0.74851 0.71948 0.86369 0.0
H1004 H 0.7805 0.86235 0.90194 0.0
H1005 H 0.77237 0.90859 0.93135 0.0
H1006 H 0.62016 0.8457 0.91822 0.0
H1007 H 0.62725 0.79854 0.8889 0.0
C1008 C 0.70202 0.81109 0.77986 0.0
C1009 C 0.65223 0.791 0.77573 0.0
C1010 C 0.71793 0.80848 0.80026 0.0
C1011 C 0.6843 0.7866 0.8168 0.0
C1012 C 0.63487 0.76865 0.81286 0.0
C1013 C 0.61892 0.7703 0.79247 0.0
C1014 C 0.69996 0.77958 0.83795 0.0
C1015 C 0.69427 0.80345 0.85538 0.0
C1016 C 0.71974 0.74895 0.84096 0.0
C1017 C 0.72455 0.72124 0.82319 0.0
C1018 C 0.68392 0.68983 0.81094 0.0
C1019 C 0.68915 0.66552 0.79366 0.0
C1020 C 0.73458 0.67128 0.78878 0.0
C1021 C 0.77493 0.7015 0.80115 0.0
C1022 C 0.77004 0.72645 0.8183 0.0
C1023 C 0.72197 0.73484 0.93705 0.0
C1024 C 0.7695 0.74429 0.94092 0.0
C1025 C 0.70839 0.74181 0.91686 0.0
C1026 C 0.7421 0.7586 0.90017 0.0
C1027 C 0.78927 0.76722 0.90389 0.0
C1028 C 0.80286 0.76025 0.92405 0.0
C1029 C 0.72835 0.76741 0.87884 0.0
C1030 C 0.73409 0.7436 0.86133 0.0
C1031 C 0.70869 0.7982 0.87576 0.0
C1032 C 0.70432 0.82656 0.89336 0.0
C1033 C 0.74521 0.85808 0.90543 0.0
C1034 C 0.74081 0.88451 0.92207 0.0
C1035 C 0.69575 0.87999 0.92669 0.0
C1036 C 0.65502 0.84912 0.91464 0.0
C1037 C 0.65922 0.82256 0.898 0.0
H1038 H 0.69242 0.9005 0.93957 0.0
H1039 H 0.73846 0.65222 0.77543 0.0
H1040 H 0.92929 0.68858 0.2802 0.0
H1041 H 0.90708 0.67328 0.24276 0.0
H1042 H 0.04837 0.69398 0.22801 0.0
H1043 H 0.07035 0.70679 0.26543 0.0
H1044 H 0.01143 0.74889 0.20155 0.0
H1045 H 0.97537 0.58926 0.22331 0.0
H1046 H 0.93983 0.51978 0.24781 0.0
H1047 H 0.79839 0.50245 0.23794 0.0
H1048 H 0.83318 0.57177 0.21319 0.0
H1049 H 0.89978 0.57726 0.10334 0.0
H1050 H 0.93203 0.59456 0.13931 0.0
H1051 H 0.89871 0.70976 0.14385 0.0
H1052 H 0.8663 0.69254 0.10772 0.0
H1053 H 0.88736 0.58706 0.17535 0.0
H1054 H 0.98088 0.79729 0.17892 0.0
H1055 H 0.02374 0.86765 0.15521 0.0
H1056 H 0.06118 0.78464 0.11382 0.0
H1057 H 0.01914 0.71403 0.13734 0.0
C1058 C 0.95552 0.68915 0.26911 0.0
C1059 C 0.00183 0.69929 0.27599 0.0
C1060 C 0.94285 0.68084 0.24767 0.0
C1061 C 0.97634 0.68305 0.23262 0.0
C1062 C 0.02235 0.69283 0.23934 0.0
C1063 C 0.03484 0.70038 0.26079 0.0
C1064 C 0.96295 0.6746 0.20989 0.0
C1065 C 0.98413 0.71367 0.19574 0.0
C1066 C 0.92832 0.62842 0.20235 0.0
C1067 C 0.90688 0.58576 0.21653 0.0
C1068 C 0.93669 0.5706 0.22636 0.0
C1069 C 0.91671 0.53126 0.24025 0.0
C1070 C 0.86695 0.50691 0.24449 0.0
C1071 C 0.83697 0.52154 0.23468 0.0
C1072 C 0.85675 0.56063 0.22061 0.0
C1073 C 0.89944 0.60642 0.11193 0.0
C1074 C 0.88009 0.63328 0.10269 0.0
C1075 C 0.91791 0.61626 0.13254 0.0
C1076 C 0.91777 0.65339 0.14438 0.0
C1077 C 0.89972 0.68123 0.13499 0.0
C1078 C 0.8813 0.67145 0.11429 0.0
C1079 C 0.93509 0.66175 0.16675 0.0
C1080 C 0.9145 0.62255 0.18096 0.0
C1081 C 0.97092 0.70786 0.17422 0.0
C1082 C -0.00361 0.75015 0.15986 0.0
C1083 C -0.00163 0.79406 0.16479 0.0
C1084 C 0.02252 0.83401 0.15137 0.0
C1085 C 0.04504 0.83057 0.13299 0.0
C1086 C 0.04357 0.78721 0.12802 0.0
C1087 C 0.01951 0.74718 0.14139 0.0
H1088 H 0.06372 0.86154 0.12262 0.0
H1089 H 0.8517 0.47671 0.25535 0.0
H1090 H 0.17807 0.00368 0.5961 0.0
H1091 H 0.17024 0.96735 0.56141 0.0
H1092 H 0.31292 0.98424 0.56796 0.0
H1093 H 0.32237 0.02359 0.60225 0.0
H1094 H 0.30193 0.00578 0.52904 0.0
H1095 H 0.20617 0.8727 0.57507 0.0
H1096 H 0.14357 0.82607 0.60186 0.0
H1097 H 0.03347 0.82076 0.56073 0.0
H1098 H 0.09553 0.86795 0.53379 0.0
H1099 H 0.27357 0.84424 0.44554 0.0
H1100 H 0.28552 0.88478 0.47942 0.0
H1101 H 0.14427 0.87194 0.47402 0.0
H1102 H 0.13125 0.82932 0.4403 0.0
H1103 H 0.15597 0.84836 0.51243 0.0
H1104 H 0.25684 0.98498 0.46663 0.0
H1105 H 0.32192 0.02943 0.44045 0.0
H1106 H 0.42535 0.02286 0.48204 0.0
H1107 H 0.36062 0.97752 0.50823 0.0
C1108 C 0.20823 0.00044 0.59012 0.0
C1109 C 0.25092 0.01676 0.60216 0.0
C1110 C 0.20337 0.97892 0.57031 0.0
C1111 C 0.24061 0.97215 0.56209 0.0
C1112 C 0.28352 0.9888 0.57392 0.0
C1113 C 0.28863 0.01083 0.5937 0.0
C1114 C 0.23462 0.94777 0.5412 0.0
C1115 C 0.27038 0.97098 0.52557 0.0
C1116 C 0.19302 0.90273 0.53635 0.0
C1117 C 0.15558 0.87425 0.55249 0.0
C1118 C 0.16866 0.8619 0.5718 0.0
C1119 C 0.13326 0.83531 0.587 0.0
C1120 C 0.08459 0.82057 0.58302 0.0
C1121 C 0.07119 0.83226 0.5638 0.0
C1122 C 0.10646 0.85889 0.54855 0.0
C1123 C 0.24496 0.85001 0.45147 0.0
C1124 C 0.20132 0.83324 0.44013 0.0
C1125 C 0.25208 0.87373 0.47086 0.0
C1126 C 0.21616 0.88227 0.47927 0.0
C1127 C 0.17265 0.86595 0.4679 0.0
C1128 C 0.16528 0.84168 0.44856 0.0
C1129 C 0.22314 0.90648 0.50025 0.0
C1130 C 0.18757 0.88315 0.51593 0.0
C1131 C 0.26526 0.95099 0.50523 0.0
C1132 C 0.30401 0.97811 0.48942 0.0
C1133 C 0.29345 0.99293 0.47014 0.0
C1134 C 0.33025 0.01825 0.4553 0.0
C1135 C 0.37778 0.02916 0.45961 0.0
C1136 C 0.38858 0.01461 0.47875 0.0
C1137 C 0.35189 0.98921 0.49361 0.0
H1138 H 0.40618 0.04865 0.44808 0.0
H1139 H 0.05724 0.79998 0.59481 0.0
loop_
_geom_bond_atom_site_label_1
_geom_bond_atom_site_label_2
_geom_bond_distance
_geom_bond_site_symmetry_2
_ccdc_geom_bond_type
Tb0 C2 2.809 . S
Tb0 O20 2.484 . S
Tb0 O21 2.440 . S
Tb0 O22 2.658 . S
Tb0 O23 2.409 . S
Tb0 O24 2.378 . S
Tb0 O28 2.325 . S
Tb0 O31 2.341 . S
Tb1 C11 2.809 1_554 S
Tb1 O22 2.325 . S
Tb1 O25 2.341 . S
Tb1 O26 2.484 1_554 S
Tb1 O27 2.440 1_554 S
Tb1 O28 2.658 . S
Tb1 O29 2.409 . S
Tb1 O30 2.388 . S
C2 Tb0 2.809 . S
C2 C3 1.514 . S
C2 O20 1.248 . S
C2 O21 1.266 . S
C3 C2 1.514 . S
C3 C4 1.359 . S
C3 C8 1.348 . S
C4 C3 1.359 . S
C4 C5 1.380 . S
C4 H32 0.929 . S
C5 C4 1.380 . S
C5 C6 1.347 . S
C5 H33 0.931 . S
C6 C5 1.347 . S
C6 C7 1.369 . S
C7 C6 1.369 . S
C7 C8 1.408 . S
C7 H34 0.930 . S
C8 C3 1.348 . S
C8 C7 1.408 . S
C8 H35 0.930 . S
C9 O22 1.281 . S
C9 O23 1.254 . S
C10 O24 1.236 . S
C10 O25 1.266 . S
C11 Tb1 2.809 1_556 S
C11 C12 1.514 . S
C11 O26 1.248 . S
C11 O27 1.266 . S
C12 C11 1.514 . S
C12 C13 1.359 . S
C12 C17 1.348 . S
C13 C12 1.359 . S
C13 C14 1.380 . S
C13 H36 0.929 . S
C14 C13 1.380 . S
C14 C15 1.347 . S
C14 H37 0.931 . S
C15 C14 1.347 . S
C15 C16 1.369 . S
C16 C15 1.369 . S
C16 C17 1.408 . S
C16 H38 0.930 . S
C17 C12 1.348 . S
C17 C16 1.408 . S
C17 H39 0.930 . S
C18 O28 1.281 . S
C18 O29 1.254 . S
C19 O30 1.236 . S
C19 O31 1.309 . S
O20 Tb0 2.484 . S
O20 C2 1.248 . S
O21 Tb0 2.440 . S
O21 C2 1.266 . S
O22 Tb0 2.658 . S
O22 Tb1 2.325 . S
O22 C9 1.281 . S
O23 Tb0 2.409 . S
O23 C9 1.254 . S
O24 Tb0 2.378 . S
O24 C10 1.236 . S
O25 Tb1 2.341 . S
O25 C10 1.266 . S
O26 Tb1 2.484 1_556 S
O26 C11 1.248 . S
O27 Tb1 2.440 1_556 S
O27 C11 1.266 . S
O28 Tb0 2.325 . S
O28 Tb1 2.658 . S
O28 C18 1.281 . S
O29 Tb1 2.409 . S
O29 C18 1.254 . S
O30 Tb1 2.388 . S
O30 C19 1.236 . S
O31 Tb0 2.341 . S
O31 C19 1.309 . S
H32 C4 0.929 . S
H33 C5 0.931 . S
H34 C7 0.930 . S
H35 C8 0.930 . S
H36 C13 0.929 . S
H37 C14 0.931 . S
H38 C16 0.930 . S
H39 C17 0.930 . S
Tb40 C42 2.809 . S
Tb40 O60 2.484 . S
Tb40 O61 2.440 . S
Tb40 O62 2.658 . S
Tb40 O63 2.409 . S
Tb40 O64 2.378 . S
Tb40 O68 2.325 . S
Tb40 O71 2.341 . S
Tb41 C51 2.809 . S
Tb41 O62 2.325 . S
Tb41 O65 2.341 . S
Tb41 O66 2.484 . S
Tb41 O67 2.440 . S
Tb41 O68 2.658 . S
Tb41 O69 2.409 . S
Tb41 O70 2.378 . S
C42 Tb40 2.809 . S
C42 C43 1.514 . S
C42 O60 1.248 . S
C42 O61 1.266 . S
C43 C42 1.514 . S
C43 C44 1.359 . S
C43 C48 1.348 . S
C44 C43 1.359 . S
C44 C45 1.380 . S
C44 H72 0.929 . S
C45 C44 1.380 . S
C45 C46 1.347 . S
C45 H73 0.931 . S
C46 C45 1.347 . S
C46 C47 1.369 . S
C47 C46 1.369 . S
C47 C48 1.408 . S
C47 H74 0.930 . S
C48 C43 1.348 . S
C48 C47 1.408 . S
C48 H75 0.930 . S
C49 O62 1.281 . S
C49 O63 1.254 . S
C50 O64 1.236 . S
C50 O65 1.266 . S
C51 Tb41 2.809 . S
C51 C52 1.514 . S
C51 O66 1.248 . S
C51 O67 1.266 . S
C52 C51 1.514 . S
C52 C53 1.359 . S
C52 C57 1.348 . S
C53 C52 1.359 . S
C53 C54 1.380 . S
C53 H76 0.929 . S
C54 C53 1.380 . S
C54 C55 1.347 . S
C54 H77 0.931 . S
C55 C54 1.347 . S
C55 C56 1.369 . S
C56 C55 1.369 . S
C56 C57 1.408 . S
C56 H78 0.930 . S
C57 C52 1.348 . S
C57 C56 1.408 . S
C57 H79 0.930 . S
C58 O68 1.281 . S
C58 O69 1.254 . S
C59 O70 1.236 . S
C59 O71 1.266 . S
O60 Tb40 2.484 . S
O60 C42 1.248 . S
O61 Tb40 2.440 . S
O61 C42 1.266 . S
O62 Tb40 2.658 . S
O62 Tb41 2.325 . S
O62 C49 1.281 . S
O63 Tb40 2.409 . S
O63 C49 1.254 . S
O64 Tb40 2.378 . S
O64 C50 1.236 . S
O65 Tb41 2.341 . S
O65 C50 1.266 . S
O66 Tb41 2.484 . S
O66 C51 1.248 . S
O67 Tb41 2.440 . S
O67 C51 1.266 . S
O68 Tb40 2.325 . S
O68 Tb41 2.658 . S
O68 C58 1.281 . S
O69 Tb41 2.409 . S
O69 C58 1.254 . S
O70 Tb41 2.378 . S
O70 C59 1.236 . S
O71 Tb40 2.341 . S
O71 C59 1.266 . S
H72 C44 0.929 . S
H73 C45 0.931 . S
H74 C47 0.930 . S
H75 C48 0.930 . S
H76 C53 0.929 . S
H77 C54 0.931 . S
H78 C56 0.930 . S
H79 C57 0.930 . S
Tb80 C82 2.809 . S
Tb80 O100 2.484 . S
Tb80 O101 2.440 . S
Tb80 O102 2.658 . S
Tb80 O103 2.409 . S
Tb80 O104 2.378 . S
Tb80 O108 2.325 . S
Tb80 O111 2.341 . S
Tb81 C91 2.809 . S
Tb81 O102 2.325 . S
Tb81 O105 2.341 . S
Tb81 O106 2.484 . S
Tb81 O107 2.440 . S
Tb81 O108 2.658 . S
Tb81 O109 2.409 . S
Tb81 O110 2.378 . S
C82 Tb80 2.809 . S
C82 C83 1.514 . S
C82 O100 1.248 . S
C82 O101 1.266 . S
C83 C82 1.514 . S
C83 C84 1.359 . S
C83 C88 1.348 . S
C84 C83 1.359 . S
C84 C85 1.380 . S
C84 H112 0.929 . S
C85 C84 1.380 . S
C85 C86 1.347 . S
C85 H113 0.931 . S
C86 C85 1.347 . S
C86 C87 1.369 . S
C87 C86 1.369 . S
C87 C88 1.408 . S
C87 H114 0.930 . S
C88 C83 1.348 . S
C88 C87 1.408 . S
C88 H115 0.930 . S
C89 O102 1.281 . S
C89 O103 1.254 . S
C90 O104 1.236 . S
C90 O105 1.266 . S
C91 Tb81 2.809 . S
C91 C92 1.514 . S
C91 O106 1.248 . S
C91 O107 1.266 . S
C92 C91 1.514 . S
C92 C93 1.359 . S
C92 C97 1.348 . S
C93 C92 1.359 . S
C93 C94 1.380 . S
C93 H116 0.929 . S
C94 C93 1.380 . S
C94 C95 1.347 . S
C94 H117 0.931 . S
C95 C94 1.347 . S
C95 C96 1.369 . S
C96 C95 1.369 . S
C96 C97 1.408 . S
C96 H118 0.930 . S
C97 C92 1.348 . S
C97 C96 1.408 . S
C97 H119 0.930 . S
C98 O108 1.281 . S
C98 O109 1.254 . S
C99 O110 1.236 . S
C99 O111 1.266 . S
O100 Tb80 2.484 . S
O100 C82 1.248 . S
O101 Tb80 2.440 . S
O101 C82 1.266 . S
O102 Tb80 2.658 . S
O102 Tb81 2.325 . S
O102 C89 1.281 . S
O103 Tb80 2.409 . S
O103 C89 1.254 . S
O104 Tb80 2.378 . S
O104 C90 1.236 . S
O105 Tb81 2.341 . S
O105 C90 1.266 . S
O106 Tb81 2.484 . S
O106 C91 1.248 . S
O107 Tb81 2.440 . S
O107 C91 1.266 . S
O108 Tb80 2.325 . S
O108 Tb81 2.658 . S
O108 C98 1.281 . S
O109 Tb81 2.409 . S
O109 C98 1.254 . S
O110 Tb81 2.378 . S
O110 C99 1.236 . S
O111 Tb80 2.341 . S
O111 C99 1.266 . S
H112 C84 0.929 . S
H113 C85 0.931 . S
H114 C87 0.930 . S
H115 C88 0.930 . S
H116 C93 0.929 . S
H117 C94 0.931 . S
H118 C96 0.930 . S
H119 C97 0.930 . S
Tb120 C122 2.809 . S
Tb120 O140 2.484 . S
Tb120 O141 2.440 . S
Tb120 O142 2.658 . S
Tb120 O143 2.409 . S
Tb120 O144 2.378 . S
Tb120 O148 2.325 . S
Tb120 O151 2.341 . S
Tb121 C131 2.809 1_554 S
Tb121 O142 2.325 . S
Tb121 O145 2.341 . S
Tb121 O146 2.484 1_554 S
Tb121 O147 2.440 1_554 S
Tb121 O148 2.658 . S
Tb121 O149 2.409 . S
Tb121 O150 2.388 . S
C122 Tb120 2.809 . S
C122 C123 1.514 . S
C122 O140 1.248 . S
C122 O141 1.266 . S
C123 C122 1.514 . S
C123 C124 1.359 . S
C123 C128 1.348 . S
C124 C123 1.359 . S
C124 C125 1.380 . S
C124 H152 0.929 . S
C125 C124 1.380 . S
C125 C126 1.347 . S
C125 H153 0.931 . S
C126 C125 1.347 . S
C126 C127 1.369 . S
C127 C126 1.369 . S
C127 C128 1.408 . S
C127 H154 0.930 . S
C128 C123 1.348 . S
C128 C127 1.408 . S
C128 H155 0.930 . S
C129 O142 1.281 . S
C129 O143 1.254 . S
C130 O144 1.236 . S
C130 O145 1.266 . S
C131 Tb121 2.809 1_556 S
C131 C132 1.514 . S
C131 O146 1.248 . S
C131 O147 1.266 . S
C132 C131 1.514 . S
C132 C133 1.359 . S
C132 C137 1.348 . S
C133 C132 1.359 . S
C133 C134 1.380 . S
C133 H156 0.929 . S
C134 C133 1.380 . S
C134 C135 1.347 . S
C134 H157 0.931 . S
C135 C134 1.347 . S
C135 C136 1.369 . S
C136 C135 1.369 . S
C136 C137 1.408 . S
C136 H158 0.930 . S
C137 C132 1.348 . S
C137 C136 1.408 . S
C137 H159 0.930 . S
C138 O148 1.281 . S
C138 O149 1.254 . S
C139 O150 1.236 . S
C139 O151 1.309 . S
O140 Tb120 2.484 . S
O140 C122 1.248 . S
O141 Tb120 2.440 . S
O141 C122 1.266 . S
O142 Tb120 2.658 . S
O142 Tb121 2.325 . S
O142 C129 1.281 . S
O143 Tb120 2.409 . S
O143 C129 1.254 . S
O144 Tb120 2.378 . S
O144 C130 1.236 . S
O145 Tb121 2.341 . S
O145 C130 1.266 . S
O146 Tb121 2.484 1_556 S
O146 C131 1.248 . S
O147 Tb121 2.440 1_556 S
O147 C131 1.266 . S
O148 Tb120 2.325 . S
O148 Tb121 2.658 . S
O148 C138 1.281 . S
O149 Tb121 2.409 . S
O149 C138 1.254 . S
O150 Tb121 2.388 . S
O150 C139 1.236 . S
O151 Tb120 2.341 . S
O151 C139 1.309 . S
H152 C124 0.929 . S
H153 C125 0.931 . S
H154 C127 0.930 . S
H155 C128 0.930 . S
H156 C133 0.929 . S
H157 C134 0.931 . S
H158 C136 0.930 . S
H159 C137 0.930 . S
Tb160 C162 2.809 . S
Tb160 O180 2.484 . S
Tb160 O181 2.440 . S
Tb160 O182 2.658 . S
Tb160 O183 2.409 . S
Tb160 O184 2.378 . S
Tb160 O188 2.325 . S
Tb160 O191 2.341 . S
Tb161 C171 2.809 . S
Tb161 O182 2.325 . S
Tb161 O185 2.341 . S
Tb161 O186 2.484 . S
Tb161 O187 2.440 . S
Tb161 O188 2.658 . S
Tb161 O189 2.409 . S
Tb161 O190 2.378 . S
C162 Tb160 2.809 . S
C162 C163 1.514 . S
C162 O180 1.248 . S
C162 O181 1.266 . S
C163 C162 1.514 . S
C163 C164 1.359 . S
C163 C168 1.348 . S
C164 C163 1.359 . S
C164 C165 1.380 . S
C164 H192 0.929 . S
C165 C164 1.380 . S
C165 C166 1.347 . S
C165 H193 0.931 . S
C166 C165 1.347 . S
C166 C167 1.369 . S
C167 C166 1.369 . S
C167 C168 1.408 . S
C167 H194 0.930 . S
C168 C163 1.348 . S
C168 C167 1.408 . S
C168 H195 0.930 . S
C169 O182 1.281 . S
C169 O183 1.254 . S
C170 O184 1.236 . S
C170 O185 1.266 . S
C171 Tb161 2.809 . S
C171 C172 1.514 . S
C171 O186 1.248 . S
C171 O187 1.266 . S
C172 C171 1.514 . S
C172 C173 1.359 . S
C172 C177 1.348 . S
C173 C172 1.359 . S
C173 C174 1.380 . S
C173 H196 0.929 . S
C174 C173 1.380 . S
C174 C175 1.347 . S
C174 H197 0.931 . S
C175 C174 1.347 . S
C175 C176 1.369 . S
C176 C175 1.369 . S
C176 C177 1.408 . S
C176 H198 0.930 . S
C177 C172 1.348 . S
C177 C176 1.408 . S
C177 H199 0.930 . S
C178 O188 1.281 . S
C178 O189 1.254 . S
C179 O190 1.236 . S
C179 O191 1.266 . S
O180 Tb160 2.484 . S
O180 C162 1.248 . S
O181 Tb160 2.440 . S
O181 C162 1.266 . S
O182 Tb160 2.658 . S
O182 Tb161 2.325 . S
O182 C169 1.281 . S
O183 Tb160 2.409 . S
O183 C169 1.254 . S
O184 Tb160 2.378 . S
O184 C170 1.236 . S
O185 Tb161 2.341 . S
O185 C170 1.266 . S
O186 Tb161 2.484 . S
O186 C171 1.248 . S
O187 Tb161 2.440 . S
O187 C171 1.266 . S
O188 Tb160 2.325 . S
O188 Tb161 2.658 . S
O188 C178 1.281 . S
O189 Tb161 2.409 . S
O189 C178 1.254 . S
O190 Tb161 2.378 . S
O190 C179 1.236 . S
O191 Tb160 2.341 . S
O191 C179 1.266 . S
H192 C164 0.929 . S
H193 C165 0.931 . S
H194 C167 0.930 . S
H195 C168 0.930 . S
H196 C173 0.929 . S
H197 C174 0.931 . S
H198 C176 0.930 . S
H199 C177 0.930 . S
Tb200 C202 2.809 . S
Tb200 O220 2.484 . S
Tb200 O221 2.440 . S
Tb200 O222 2.658 . S
Tb200 O223 2.409 . S
Tb200 O224 2.378 . S
Tb200 O228 2.325 . S
Tb200 O231 2.341 . S
Tb201 C211 2.809 . S
Tb201 O222 2.325 . S
Tb201 O225 2.341 . S
Tb201 O226 2.484 . S
Tb201 O227 2.440 . S
Tb201 O228 2.658 . S
Tb201 O229 2.409 . S
Tb201 O230 2.378 . S
C202 Tb200 2.809 . S
C202 C203 1.514 . S
C202 O220 1.248 . S
C202 O221 1.266 . S
C203 C202 1.514 . S
C203 C204 1.359 . S
C203 C208 1.348 . S
C204 C203 1.359 . S
C204 C205 1.380 . S
C204 H232 0.929 . S
C205 C204 1.380 . S
C205 C206 1.347 . S
C205 H233 0.931 . S
C206 C205 1.347 . S
C206 C207 1.369 . S
C207 C206 1.369 . S
C207 C208 1.408 . S
C207 H234 0.930 . S
C208 C203 1.348 . S
C208 C207 1.408 . S
C208 H235 0.930 . S
C209 O222 1.281 . S
C209 O223 1.254 . S
C210 O224 1.236 . S
C210 O225 1.266 . S
C211 Tb201 2.809 . S
C211 C212 1.514 . S
C211 O226 1.248 . S
C211 O227 1.266 . S
C212 C211 1.514 . S
C212 C213 1.359 . S
C212 C217 1.348 . S
C213 C212 1.359 . S
C213 C214 1.380 . S
C213 H236 0.929 . S
C214 C213 1.380 . S
C214 C215 1.347 . S
C214 H237 0.931 . S
C215 C214 1.347 . S
C215 C216 1.369 . S
C216 C215 1.369 . S
C216 C217 1.408 . S
C216 H238 0.930 . S
C217 C212 1.348 . S
C217 C216 1.408 . S
C217 H239 0.930 . S
C218 O228 1.281 . S
C218 O229 1.254 . S
C219 O230 1.236 . S
C219 O231 1.266 . S
O220 Tb200 2.484 . S
O220 C202 1.248 . S
O221 Tb200 2.440 . S
O221 C202 1.266 . S
O222 Tb200 2.658 . S
O222 Tb201 2.325 . S
O222 C209 1.281 . S
O223 Tb200 2.409 . S
O223 C209 1.254 . S
O224 Tb200 2.378 . S
O224 C210 1.236 . S
O225 Tb201 2.341 . S
O225 C210 1.266 . S
O226 Tb201 2.484 . S
O226 C211 1.248 . S
O227 Tb201 2.440 . S
O227 C211 1.266 . S
O228 Tb200 2.325 . S
O228 Tb201 2.658 . S
O228 C218 1.281 . S
O229 Tb201 2.409 . S
O229 C218 1.254 . S
O230 Tb201 2.378 . S
O230 C219 1.236 . S
O231 Tb200 2.341 . S
O231 C219 1.266 . S
H232 C204 0.929 . S
H233 C205 0.931 . S
H234 C207 0.930 . S
H235 C208 0.930 . S
H236 C213 0.929 . S
H237 C214 0.931 . S
H238 C216 0.930 . S
H239 C217 0.930 . S
H240 C258 0.951 . S
H241 C260 0.951 . S
H242 C262 0.950 . S
H243 C263 0.950 . S
H244 C265 0.950 . S
H245 C268 0.950 . S
H246 C269 0.950 . S
H247 C271 0.950 . S
H248 C272 0.950 . S
H249 C273 0.951 . S
H250 C275 0.951 . S
H251 C277 0.950 . S
H252 C278 0.950 . S
H253 C280 0.950 . S
H254 C283 0.950 . S
H255 C284 0.950 . S
H256 C286 0.950 . S
H257 C287 0.950 . S
C258 H240 0.951 . S
C258 C259 1.366 . S
C258 C260 1.388 . S
C259 C258 1.366 . S
C259 C263 1.385 . S
C260 H241 0.951 . S
C260 C258 1.388 . S
C260 C261 1.366 . S
C261 C260 1.366 . S
C261 C262 1.414 . S
C261 C264 1.499 . S
C262 H242 0.950 . S
C262 C261 1.414 . S
C262 C263 1.374 . S
C263 H243 0.950 . S
C263 C259 1.385 . S
C263 C262 1.374 . S
C264 C261 1.499 . S
C264 C265 1.373 . S
C264 C266 1.389 . S
C265 H244 0.950 . S
C265 C264 1.373 . S
C265 C281 1.377 . S
C266 C264 1.389 . S
C266 C267 1.524 . S
C266 C280 1.377 . S
C267 C266 1.524 . S
C267 C268 1.397 . S
C267 C272 1.363 . S
C268 H245 0.950 . S
C268 C267 1.397 . S
C268 C269 1.334 . S
C269 H246 0.950 . S
C269 C268 1.334 . S
C269 C270 1.287 . S
C270 C269 1.287 . S
C270 C271 1.524 . S
C270 H289 0.913 . S
C271 H247 0.950 . S
C271 C270 1.524 . S
C271 C272 1.415 . S
C272 H248 0.950 . S
C272 C267 1.363 . S
C272 C271 1.415 . S
C273 H249 0.951 . S
C273 C274 1.366 . S
C273 C275 1.388 . S
C274 C273 1.366 . S
C274 C278 1.385 . S
C275 H250 0.951 . S
C275 C273 1.388 . S
C275 C276 1.366 . S
C276 C275 1.366 . S
C276 C277 1.414 . S
C276 C279 1.499 . S
C277 H251 0.950 . S
C277 C276 1.414 . S
C277 C278 1.374 . S
C278 H252 0.950 . S
C278 C274 1.385 . S
C278 C277 1.374 . S
C279 C276 1.499 . S
C279 C280 1.373 . S
C279 C281 1.389 . S
C280 H253 0.950 . S
C280 C266 1.377 . S
C280 C279 1.373 . S
C281 C265 1.377 . S
C281 C279 1.389 . S
C281 C282 1.524 . S
C282 C281 1.524 . S
C282 C283 1.397 . S
C282 C287 1.363 . S
C283 H254 0.950 . S
C283 C282 1.397 . S
C283 C284 1.334 . S
C284 H255 0.950 . S
C284 C283 1.334 . S
C284 C285 1.287 . S
C285 C284 1.287 . S
C285 C286 1.524 . S
C285 H288 0.999 . S
C286 H256 0.950 . S
C286 C285 1.524 . S
C286 C287 1.415 . S
C287 H257 0.950 . S
C287 C282 1.363 . S
C287 C286 1.415 . S
H288 C285 0.999 . S
H289 C270 0.913 . S
H290 C308 0.951 . S
H291 C310 0.951 . S
H292 C312 0.950 . S
H293 C313 0.950 . S
H294 C315 0.950 . S
H295 C318 0.950 . S
H296 C319 0.950 . S
H297 C321 0.950 . S
H298 C322 0.950 . S
H299 C323 0.951 . S
H300 C325 0.951 . S
H301 C327 0.950 . S
H302 C328 0.950 . S
H303 C330 0.950 . S
H304 C333 0.950 . S
H305 C334 0.950 . S
H306 C336 0.950 . S
H307 C337 0.950 . S
C308 H290 0.951 . S
C308 C309 1.366 . S
C308 C310 1.388 . S
C309 C308 1.366 . S
C309 C313 1.385 . S
C310 H291 0.951 . S
C310 C308 1.388 . S
C310 C311 1.366 . S
C311 C310 1.366 . S
C311 C312 1.414 . S
C311 C314 1.499 . S
C312 H292 0.950 . S
C312 C311 1.414 . S
C312 C313 1.374 . S
C313 H293 0.950 . S
C313 C309 1.385 . S
C313 C312 1.374 . S
C314 C311 1.499 . S
C314 C315 1.373 . S
C314 C316 1.389 . S
C315 H294 0.950 . S
C315 C314 1.373 . S
C315 C331 1.377 . S
C316 C314 1.389 . S
C316 C317 1.524 . S
C316 C330 1.377 . S
C317 C316 1.524 . S
C317 C318 1.397 . S
C317 C322 1.363 . S
C318 H295 0.950 . S
C318 C317 1.397 . S
C318 C319 1.334 . S
C319 H296 0.950 . S
C319 C318 1.334 . S
C319 C320 1.287 . S
C320 C319 1.287 . S
C320 C321 1.524 . S
C320 H339 0.913 . S
C321 H297 0.950 . S
C321 C320 1.524 . S
C321 C322 1.415 . S
C322 H298 0.950 . S
C322 C317 1.363 . S
C322 C321 1.415 . S
C323 H299 0.951 . S
C323 C324 1.366 . S
C323 C325 1.388 . S
C324 C323 1.366 . S
C324 C328 1.385 . S
C325 H300 0.951 . S
C325 C323 1.388 . S
C325 C326 1.366 . S
C326 C325 1.366 . S
C326 C327 1.414 . S
C326 C329 1.499 . S
C327 H301 0.950 . S
C327 C326 1.414 . S
C327 C328 1.374 . S
C328 H302 0.950 . S
C328 C324 1.385 . S
C328 C327 1.374 . S
C329 C326 1.499 . S
C329 C330 1.373 . S
C329 C331 1.389 . S
C330 H303 0.950 . S
C330 C316 1.377 . S
C330 C329 1.373 . S
C331 C315 1.377 . S
C331 C329 1.389 . S
C331 C332 1.524 . S
C332 C331 1.524 . S
C332 C333 1.397 . S
C332 C337 1.363 . S
C333 H304 0.950 . S
C333 C332 1.397 . S
C333 C334 1.334 . S
C334 H305 0.950 . S
C334 C333 1.334 . S
C334 C335 1.287 . S
C335 C334 1.287 . S
C335 C336 1.524 . S
C335 H338 0.987 1_545 S
C336 H306 0.950 . S
C336 C335 1.524 . S
C336 C337 1.415 . S
C337 H307 0.950 . S
C337 C332 1.363 . S
C337 C336 1.415 . S
H338 C335 0.987 1_565 S
H339 C320 0.913 . S
H340 C358 0.951 . S
H341 C360 0.951 . S
H342 C362 0.950 . S
H343 C363 0.950 . S
H344 C365 0.950 . S
H345 C368 0.950 . S
H346 C369 0.950 . S
H347 C371 0.950 . S
H348 C372 0.950 . S
H349 C373 0.951 . S
H350 C375 0.951 . S
H351 C377 0.950 . S
H352 C378 0.950 . S
H353 C380 0.950 . S
H354 C383 0.950 . S
H355 C384 0.950 . S
H356 C386 0.950 . S
H357 C387 0.950 . S
C358 H340 0.951 . S
C358 C359 1.366 . S
C358 C360 1.388 . S
C359 C358 1.366 . S
C359 C363 1.385 . S
C360 H341 0.951 . S
C360 C358 1.388 . S
C360 C361 1.366 . S
C361 C360 1.366 . S
C361 C362 1.414 . S
C361 C364 1.499 . S
C362 H342 0.950 . S
C362 C361 1.414 . S
C362 C363 1.374 . S
C363 H343 0.950 . S
C363 C359 1.385 . S
C363 C362 1.374 . S
C364 C361 1.499 . S
C364 C365 1.373 . S
C364 C366 1.389 . S
C365 H344 0.950 . S
C365 C364 1.373 . S
C365 C381 1.377 . S
C366 C364 1.389 . S
C366 C367 1.524 . S
C366 C380 1.377 . S
C367 C366 1.524 . S
C367 C368 1.397 . S
C367 C372 1.363 . S
C368 H345 0.950 . S
C368 C367 1.397 . S
C368 C369 1.334 . S
C369 H346 0.950 . S
C369 C368 1.334 . S
C369 C370 1.287 . S
C370 C369 1.287 . S
C370 C371 1.524 . S
C370 H389 0.913 . S
C371 H347 0.950 . S
C371 C370 1.524 . S
C371 C372 1.415 . S
C372 H348 0.950 . S
C372 C367 1.363 . S
C372 C371 1.415 . S
C373 H349 0.951 . S
C373 C374 1.366 . S
C373 C375 1.388 . S
C374 C373 1.366 . S
C374 C378 1.385 . S
C375 H350 0.951 . S
C375 C373 1.388 . S
C375 C376 1.366 . S
C376 C375 1.366 . S
C376 C377 1.414 . S
C376 C379 1.499 . S
C377 H351 0.950 . S
C377 C376 1.414 . S
C377 C378 1.374 . S
C378 H352 0.950 . S
C378 C374 1.385 . S
C378 C377 1.374 . S
C379 C376 1.499 . S
C379 C380 1.373 . S
C379 C381 1.389 . S
C380 H353 0.950 . S
C380 C366 1.377 . S
C380 C379 1.373 . S
C381 C365 1.377 . S
C381 C379 1.389 . S
C381 C382 1.524 . S
C382 C381 1.524 . S
C382 C383 1.397 . S
C382 C387 1.363 . S
C383 H354 0.950 . S
C383 C382 1.397 . S
C383 C384 1.334 . S
C384 H355 0.950 . S
C384 C383 1.334 . S
C384 C385 1.287 . S
C385 C384 1.287 . S
C385 C386 1.524 . S
C385 H388 0.999 . S
C386 H356 0.950 . S
C386 C385 1.524 . S
C386 C387 1.415 . S
C387 H357 0.950 . S
C387 C382 1.363 . S
C387 C386 1.415 . S
H388 C385 0.999 . S
H389 C370 0.913 . S
H390 C408 0.951 . S
H391 C410 0.951 . S
H392 C412 0.950 . S
H393 C413 0.950 . S
H394 C415 0.950 . S
H395 C418 0.950 . S
H396 C419 0.950 . S
H397 C421 0.950 . S
H398 C422 0.950 . S
H399 C423 0.951 . S
H400 C425 0.951 . S
H401 C427 0.950 . S
H402 C428 0.950 . S
H403 C430 0.950 . S
H404 C433 0.950 . S
H405 C434 0.950 . S
H406 C436 0.950 . S
H407 C437 0.950 . S
C408 H390 0.951 . S
C408 C409 1.366 . S
C408 C410 1.388 . S
C409 C408 1.366 . S
C409 C413 1.385 . S
C410 H391 0.951 . S
C410 C408 1.388 . S
C410 C411 1.366 . S
C411 C410 1.366 . S
C411 C412 1.414 . S
C411 C414 1.499 . S
C412 H392 0.950 . S
C412 C411 1.414 . S
C412 C413 1.374 . S
C413 H393 0.950 . S
C413 C409 1.385 . S
C413 C412 1.374 . S
C414 C411 1.499 . S
C414 C415 1.373 . S
C414 C416 1.389 . S
C415 H394 0.950 . S
C415 C414 1.373 . S
C415 C431 1.377 . S
C416 C414 1.389 . S
C416 C417 1.524 . S
C416 C430 1.377 . S
C417 C416 1.524 . S
C417 C418 1.397 . S
C417 C422 1.363 . S
C418 H395 0.950 . S
C418 C417 1.397 . S
C418 C419 1.334 . S
C419 H396 0.950 . S
C419 C418 1.334 . S
C419 C420 1.287 . S
C420 C419 1.287 . S
C420 C421 1.524 . S
C420 H439 0.913 . S
C421 H397 0.950 . S
C421 C420 1.524 . S
C421 C422 1.415 . S
C422 H398 0.950 . S
C422 C417 1.363 . S
C422 C421 1.415 . S
C423 H399 0.951 . S
C423 C424 1.366 . S
C423 C425 1.388 . S
C424 C423 1.366 . S
C424 C428 1.385 . S
C425 H400 0.951 . S
C425 C423 1.388 . S
C425 C426 1.366 . S
C426 C425 1.366 . S
C426 C427 1.414 . S
C426 C429 1.499 . S
C427 H401 0.950 . S
C427 C426 1.414 . S
C427 C428 1.374 . S
C428 H402 0.950 . S
C428 C424 1.385 . S
C428 C427 1.374 . S
C429 C426 1.499 . S
C429 C430 1.373 . S
C429 C431 1.389 . S
C430 H403 0.950 . S
C430 C416 1.377 . S
C430 C429 1.373 . S
C431 C415 1.377 . S
C431 C429 1.389 . S
C431 C432 1.524 . S
C432 C431 1.524 . S
C432 C433 1.397 . S
C432 C437 1.363 . S
C433 H404 0.950 . S
C433 C432 1.397 . S
C433 C434 1.334 . S
C434 H405 0.950 . S
C434 C433 1.334 . S
C434 C435 1.287 . S
C435 C434 1.287 . S
C435 C436 1.524 . S
C435 H438 0.999 . S
C436 H406 0.950 . S
C436 C435 1.524 . S
C436 C437 1.415 . S
C437 H407 0.950 . S
C437 C432 1.363 . S
C437 C436 1.415 . S
H438 C435 0.999 . S
H439 C420 0.913 . S
H440 C458 0.951 . S
H441 C460 0.951 . S
H442 C462 0.950 . S
H443 C463 0.950 . S
H444 C465 0.950 . S
H445 C468 0.950 . S
H446 C469 0.950 . S
H447 C471 0.950 . S
H448 C472 0.950 . S
H449 C473 0.951 . S
H450 C475 0.951 . S
H451 C477 0.950 . S
H452 C478 0.950 . S
H453 C480 0.950 . S
H454 C483 0.950 . S
H455 C484 0.950 . S
H456 C486 0.950 . S
H457 C487 0.950 . S
C458 H440 0.951 . S
C458 C459 1.366 . S
C458 C460 1.388 . S
C459 C458 1.366 . S
C459 C463 1.385 . S
C460 H441 0.951 . S
C460 C458 1.388 . S
C460 C461 1.366 . S
C461 C460 1.366 . S
C461 C462 1.414 . S
C461 C464 1.499 . S
C462 H442 0.950 . S
C462 C461 1.414 . S
C462 C463 1.374 . S
C463 H443 0.950 . S
C463 C459 1.385 . S
C463 C462 1.374 . S
C464 C461 1.499 . S
C464 C465 1.373 . S
C464 C466 1.389 . S
C465 H444 0.950 . S
C465 C464 1.373 . S
C465 C481 1.377 . S
C466 C464 1.389 . S
C466 C467 1.524 . S
C466 C480 1.377 . S
C467 C466 1.524 . S
C467 C468 1.397 . S
C467 C472 1.363 . S
C468 H445 0.950 . S
C468 C467 1.397 . S
C468 C469 1.334 . S
C469 H446 0.950 . S
C469 C468 1.334 . S
C469 C470 1.287 . S
C470 C469 1.287 . S
C470 C471 1.524 . S
C470 H489 0.913 . S
C471 H447 0.950 . S
C471 C470 1.524 . S
C471 C472 1.415 . S
C472 H448 0.950 . S
C472 C467 1.363 . S
C472 C471 1.415 . S
C473 H449 0.951 . S
C473 C474 1.366 . S
C473 C475 1.388 . S
C474 C473 1.366 . S
C474 C478 1.385 . S
C475 H450 0.951 . S
C475 C473 1.388 . S
C475 C476 1.366 . S
C476 C475 1.366 . S
C476 C477 1.414 . S
C476 C479 1.499 . S
C477 H451 0.950 . S
C477 C476 1.414 . S
C477 C478 1.374 . S
C478 H452 0.950 . S
C478 C474 1.385 . S
C478 C477 1.374 . S
C479 C476 1.499 . S
C479 C480 1.373 . S
C479 C481 1.389 . S
C480 H453 0.950 . S
C480 C466 1.377 . S
C480 C479 1.373 . S
C481 C465 1.377 . S
C481 C479 1.389 . S
C481 C482 1.524 . S
C482 C481 1.524 . S
C482 C483 1.397 . S
C482 C487 1.363 . S
C483 H454 0.950 . S
C483 C482 1.397 . S
C483 C484 1.334 . S
C484 H455 0.950 . S
C484 C483 1.334 . S
C484 C485 1.287 . S
C485 C484 1.287 . S
C485 C486 1.524 . S
C485 H488 0.999 . S
C486 H456 0.950 . S
C486 C485 1.524 . S
C486 C487 1.415 . S
C487 H457 0.950 . S
C487 C482 1.363 . S
C487 C486 1.415 . S
H488 C485 0.999 . S
H489 C470 0.913 . S
H490 C508 0.951 . S
H491 C510 0.951 . S
H492 C512 0.950 . S
H493 C513 0.950 . S
H494 C515 0.950 . S
H495 C518 0.950 . S
H496 C519 0.950 . S
H497 C521 0.950 . S
H498 C522 0.950 . S
H499 C523 0.951 . S
H500 C525 0.951 . S
H501 C527 0.950 . S
H502 C528 0.950 . S
H503 C530 0.950 . S
H504 C533 0.950 . S
H505 C534 0.950 . S
H506 C536 0.950 . S
H507 C537 0.950 . S
C508 H490 0.951 . S
C508 C509 1.366 . S
C508 C510 1.388 . S
C509 C508 1.366 . S
C509 C513 1.385 . S
C510 H491 0.951 . S
C510 C508 1.388 . S
C510 C511 1.366 . S
C511 C510 1.366 . S
C511 C512 1.414 . S
C511 C514 1.499 . S
C512 H492 0.950 . S
C512 C511 1.414 . S
C512 C513 1.374 . S
C513 H493 0.950 . S
C513 C509 1.385 . S
C513 C512 1.374 . S
C514 C511 1.499 . S
C514 C515 1.373 . S
C514 C516 1.389 . S
C515 H494 0.950 . S
C515 C514 1.373 . S
C515 C531 1.377 . S
C516 C514 1.389 . S
C516 C517 1.524 . S
C516 C530 1.377 . S
C517 C516 1.524 . S
C517 C518 1.397 . S
C517 C522 1.363 . S
C518 H495 0.950 . S
C518 C517 1.397 . S
C518 C519 1.334 . S
C519 H496 0.950 . S
C519 C518 1.334 . S
C519 C520 1.287 . S
C520 C519 1.287 . S
C520 C521 1.524 . S
C520 H539 0.913 . S
C521 H497 0.950 . S
C521 C520 1.524 . S
C521 C522 1.415 . S
C522 H498 0.950 . S
C522 C517 1.363 . S
C522 C521 1.415 . S
C523 H499 0.951 . S
C523 C524 1.366 . S
C523 C525 1.388 . S
C524 C523 1.366 . S
C524 C528 1.385 . S
C525 H500 0.951 . S
C525 C523 1.388 . S
C525 C526 1.366 . S
C526 C525 1.366 . S
C526 C527 1.414 . S
C526 C529 1.499 . S
C527 H501 0.950 . S
C527 C526 1.414 . S
C527 C528 1.374 . S
C528 H502 0.950 . S
C528 C524 1.385 . S
C528 C527 1.374 . S
C529 C526 1.499 . S
C529 C530 1.373 . S
C529 C531 1.389 . S
C530 H503 0.950 . S
C530 C516 1.377 . S
C530 C529 1.373 . S
C531 C515 1.377 . S
C531 C529 1.389 . S
C531 C532 1.524 . S
C532 C531 1.524 . S
C532 C533 1.397 . S
C532 C537 1.363 . S
C533 H504 0.950 . S
C533 C532 1.397 . S
C533 C534 1.334 . S
C534 H505 0.950 . S
C534 C533 1.334 . S
C534 C535 1.287 . S
C535 C534 1.287 . S
C535 C536 1.524 . S
C535 H538 0.999 . S
C536 H506 0.950 . S
C536 C535 1.524 . S
C536 C537 1.415 . S
C537 H507 0.950 . S
C537 C532 1.363 . S
C537 C536 1.415 . S
H538 C535 0.999 . S
H539 C520 0.913 . S
H540 C558 0.951 . S
H541 C560 0.951 . S
H542 C562 0.950 . S
H543 C563 0.950 . S
H544 C565 0.950 . S
H545 C568 0.940 1_554 S
H546 C569 0.950 . S
H547 C571 0.950 . S
H548 C572 0.950 . S
H549 C573 0.951 . S
H550 C575 0.951 . S
H551 C577 0.950 . S
H552 C578 0.950 . S
H553 C580 0.950 . S
H554 C583 0.950 . S
H555 C584 0.950 . S
H556 C586 0.950 . S
H557 C587 0.950 . S
C558 H540 0.951 . S
C558 C559 1.366 . S
C558 C560 1.388 . S
C559 C558 1.366 . S
C559 C563 1.385 . S
C560 H541 0.951 . S
C560 C558 1.388 . S
C560 C561 1.366 . S
C561 C560 1.366 . S
C561 C562 1.414 . S
C561 C564 1.499 . S
C562 H542 0.950 . S
C562 C561 1.414 . S
C562 C563 1.374 . S
C563 H543 0.950 . S
C563 C559 1.385 . S
C563 C562 1.374 . S
C564 C561 1.499 . S
C564 C565 1.373 . S
C564 C566 1.389 . S
C565 H544 0.950 . S
C565 C564 1.373 . S
C565 C581 1.377 . S
C566 C564 1.389 . S
C566 C567 1.524 . S
C566 C580 1.377 . S
C567 C566 1.524 . S
C567 C568 1.377 1_554 S
C567 C572 1.363 . S
C568 H545 0.940 1_556 S
C568 C567 1.377 1_556 S
C568 C569 1.364 . S
C569 H546 0.950 . S
C569 C568 1.364 . S
C569 C570 1.287 . S
C570 C569 1.287 . S
C570 C571 1.524 . S
C570 H589 0.913 . S
C571 H547 0.950 . S
C571 C570 1.524 . S
C571 C572 1.415 1_556 S
C572 H548 0.950 . S
C572 C567 1.363 . S
C572 C571 1.415 1_554 S
C573 H549 0.951 . S
C573 C574 1.366 . S
C573 C575 1.388 . S
C574 C573 1.366 . S
C574 C578 1.385 . S
C575 H550 0.951 . S
C575 C573 1.388 . S
C575 C576 1.366 . S
C576 C575 1.366 . S
C576 C577 1.414 . S
C576 C579 1.499 . S
C577 H551 0.950 . S
C577 C576 1.414 . S
C577 C578 1.374 . S
C578 H552 0.950 . S
C578 C574 1.385 . S
C578 C577 1.374 . S
C579 C576 1.499 . S
C579 C580 1.373 . S
C579 C581 1.389 . S
C580 H553 0.950 . S
C580 C566 1.377 . S
C580 C579 1.373 . S
C581 C565 1.377 . S
C581 C579 1.389 . S
C581 C582 1.524 . S
C582 C581 1.524 . S
C582 C583 1.397 . S
C582 C587 1.363 . S
C583 H554 0.950 . S
C583 C582 1.397 . S
C583 C584 1.334 . S
C584 H555 0.950 . S
C584 C583 1.334 . S
C584 C585 1.287 . S
C585 C584 1.287 . S
C585 C586 1.524 . S
C585 H588 0.999 . S
C586 H556 0.950 . S
C586 C585 1.524 . S
C586 C587 1.415 . S
C587 H557 0.950 . S
C587 C582 1.363 . S
C587 C586 1.415 . S
H588 C585 0.999 . S
H589 C570 0.913 . S
H590 C608 0.951 . S
H591 C610 0.951 . S
H592 C612 0.950 . S
H593 C613 0.950 . S
H594 C615 0.950 . S
H595 C618 0.950 . S
H596 C619 0.950 . S
H597 C621 0.950 . S
H598 C622 0.950 . S
H599 C623 0.951 . S
H600 C625 0.951 . S
H601 C627 0.950 . S
H602 C628 0.950 . S
H603 C630 0.950 . S
H604 C633 0.950 . S
H605 C634 0.950 . S
H606 C636 0.950 . S
H607 C637 0.950 . S
C608 H590 0.951 . S
C608 C609 1.366 . S
C608 C610 1.388 . S
C609 C608 1.366 . S
C609 C613 1.385 . S
C610 H591 0.951 . S
C610 C608 1.388 . S
C610 C611 1.366 . S
C611 C610 1.366 . S
C611 C612 1.414 . S
C611 C614 1.499 . S
C612 H592 0.950 . S
C612 C611 1.414 . S
C612 C613 1.374 . S
C613 H593 0.950 . S
C613 C609 1.385 . S
C613 C612 1.374 . S
C614 C611 1.499 . S
C614 C615 1.373 . S
C614 C616 1.389 1_455 S
C615 H594 0.950 . S
C615 C614 1.373 . S
C615 C631 1.377 . S
C616 C614 1.389 1_655 S
C616 C617 1.524 . S
C616 C630 1.377 . S
C617 C616 1.524 . S
C617 C618 1.397 . S
C617 C622 1.363 . S
C618 H595 0.950 . S
C618 C617 1.397 . S
C618 C619 1.334 . S
C619 H596 0.950 . S
C619 C618 1.334 . S
C619 C620 1.287 . S
C620 C619 1.287 . S
C620 C621 1.524 . S
C620 H639 0.913 . S
C621 H597 0.950 . S
C621 C620 1.524 . S
C621 C622 1.415 . S
C622 H598 0.950 . S
C622 C617 1.363 . S
C622 C621 1.415 . S
C623 H599 0.951 . S
C623 C624 1.366 . S
C623 C625 1.388 . S
C624 C623 1.366 . S
C624 C628 1.385 . S
C625 H600 0.951 . S
C625 C623 1.388 . S
C625 C626 1.366 . S
C626 C625 1.366 . S
C626 C627 1.414 . S
C626 C629 1.499 . S
C627 H601 0.950 . S
C627 C626 1.414 . S
C627 C628 1.374 . S
C628 H602 0.950 . S
C628 C624 1.385 . S
C628 C627 1.374 . S
C629 C626 1.499 . S
C629 C630 1.373 . S
C629 C631 1.389 1_655 S
C630 H603 0.950 . S
C630 C616 1.377 . S
C630 C629 1.373 . S
C631 C615 1.377 . S
C631 C629 1.389 1_455 S
C631 C632 1.524 . S
C632 C631 1.524 . S
C632 C633 1.397 . S
C632 C637 1.363 . S
C633 H604 0.950 . S
C633 C632 1.397 . S
C633 C634 1.334 . S
C634 H605 0.950 . S
C634 C633 1.334 . S
C634 C635 1.287 . S
C635 C634 1.287 . S
C635 C636 1.524 . S
C635 H638 0.999 . S
C636 H606 0.950 . S
C636 C635 1.524 . S
C636 C637 1.415 . S
C637 H607 0.950 . S
C637 C632 1.363 . S
C637 C636 1.415 . S
H638 C635 0.999 . S
H639 C620 0.913 . S
H640 C658 0.951 . S
H641 C660 0.951 1_565 S
H642 C662 0.950 . S
H643 C663 0.950 . S
H644 C665 0.950 . S
H645 C668 0.950 . S
H646 C669 0.950 1_545 S
H647 C671 0.950 . S
H648 C672 0.950 . S
H649 C673 0.951 . S
H650 C675 0.951 1_545 S
H651 C677 0.950 . S
H652 C678 0.950 . S
H653 C680 0.950 . S
H654 C683 0.950 . S
H655 C684 0.950 1_565 S
H656 C686 0.950 . S
H657 C687 0.950 . S
C658 H640 0.951 . S
C658 C659 1.366 . S
C658 C660 1.388 . S
C659 C658 1.366 . S
C659 C663 1.385 . S
C660 H641 0.951 1_545 S
C660 C658 1.388 . S
C660 C661 1.366 . S
C661 C660 1.366 . S
C661 C662 1.414 . S
C661 C664 1.499 . S
C662 H642 0.950 . S
C662 C661 1.414 . S
C662 C663 1.374 . S
C663 H643 0.950 . S
C663 C659 1.385 . S
C663 C662 1.374 . S
C664 C661 1.499 . S
C664 C665 1.373 . S
C664 C666 1.389 1_545 S
C665 H644 0.950 . S
C665 C664 1.373 . S
C665 C681 1.377 . S
C666 C664 1.389 1_565 S
C666 C667 1.524 . S
C666 C680 1.377 . S
C667 C666 1.524 . S
C667 C668 1.397 1_565 S
C667 C672 1.363 . S
C668 H645 0.950 . S
C668 C667 1.397 1_545 S
C668 C669 1.334 1_545 S
C669 H646 0.950 1_565 S
C669 C668 1.334 1_565 S
C669 C670 1.287 . S
C670 C669 1.287 . S
C670 C671 1.524 . S
C670 H689 0.913 . S
C671 H647 0.950 . S
C671 C670 1.524 . S
C671 C672 1.415 . S
C672 H648 0.950 . S
C672 C667 1.363 . S
C672 C671 1.415 . S
C673 H649 0.951 . S
C673 C674 1.366 . S
C673 C675 1.388 . S
C674 C673 1.366 . S
C674 C678 1.385 . S
C675 H650 0.951 1_565 S
C675 C673 1.388 . S
C675 C676 1.366 . S
C676 C675 1.366 . S
C676 C677 1.414 . S
C676 C679 1.499 . S
C677 H651 0.950 . S
C677 C676 1.414 . S
C677 C678 1.374 . S
C678 H652 0.950 . S
C678 C674 1.385 . S
C678 C677 1.374 . S
C679 C676 1.499 . S
C679 C680 1.373 . S
C679 C681 1.389 1_565 S
C680 H653 0.950 . S
C680 C666 1.377 . S
C680 C679 1.373 . S
C681 C665 1.377 . S
C681 C679 1.389 1_545 S
C681 C682 1.524 . S
C682 C681 1.524 . S
C682 C683 1.397 1_545 S
C682 C687 1.363 . S
C683 H654 0.950 . S
C683 C682 1.397 1_565 S
C683 C684 1.334 1_565 S
C684 H655 0.950 1_545 S
C684 C683 1.334 1_545 S
C684 C685 1.287 . S
C685 C684 1.287 . S
C685 C686 1.524 . S
C685 H688 0.999 . S
C686 H656 0.950 . S
C686 C685 1.524 . S
C686 C687 1.415 . S
C687 H657 0.950 . S
C687 C682 1.363 . S
C687 C686 1.415 . S
H688 C685 0.999 . S
H689 C670 0.913 . S
H690 C708 0.951 . S
H691 C710 0.951 . S
H692 C712 0.950 . S
H693 C713 0.950 . S
H694 C715 0.950 . S
H695 C718 0.950 . S
H696 C719 0.950 . S
H697 C721 0.950 . S
H698 C722 0.950 . S
H699 C723 0.951 . S
H700 C725 0.951 . S
H701 C727 0.950 . S
H702 C728 0.950 . S
H703 C730 0.950 . S
H704 C733 0.950 . S
H705 C734 0.950 . S
H706 C736 0.950 . S
H707 C737 0.950 . S
C708 H690 0.951 . S
C708 C709 1.366 . S
C708 C710 1.388 . S
C709 C708 1.366 . S
C709 C713 1.385 . S
C710 H691 0.951 . S
C710 C708 1.388 . S
C710 C711 1.366 . S
C711 C710 1.366 . S
C711 C712 1.414 . S
C711 C714 1.499 . S
C712 H692 0.950 . S
C712 C711 1.414 . S
C712 C713 1.374 . S
C713 H693 0.950 . S
C713 C709 1.385 . S
C713 C712 1.374 . S
C714 C711 1.499 . S
C714 C715 1.373 . S
C714 C716 1.389 . S
C715 H694 0.950 . S
C715 C714 1.373 . S
C715 C731 1.377 . S
C716 C714 1.389 . S
C716 C717 1.524 . S
C716 C730 1.377 . S
C717 C716 1.524 . S
C717 C718 1.397 . S
C717 C722 1.363 . S
C718 H695 0.950 . S
C718 C717 1.397 . S
C718 C719 1.334 . S
C719 H696 0.950 . S
C719 C718 1.334 . S
C719 C720 1.287 . S
C720 C719 1.287 . S
C720 C721 1.524 . S
C720 H739 0.913 . S
C721 H697 0.950 . S
C721 C720 1.524 . S
C721 C722 1.415 . S
C722 H698 0.950 . S
C722 C717 1.363 . S
C722 C721 1.415 . S
C723 H699 0.951 . S
C723 C724 1.366 . S
C723 C725 1.388 . S
C724 C723 1.366 . S
C724 C728 1.385 . S
C725 H700 0.951 . S
C725 C723 1.388 . S
C725 C726 1.366 . S
C726 C725 1.366 . S
C726 C727 1.414 . S
C726 C729 1.499 . S
C727 H701 0.950 . S
C727 C726 1.414 . S
C727 C728 1.374 . S
C728 H702 0.950 . S
C728 C724 1.385 . S
C728 C727 1.374 . S
C729 C726 1.499 . S
C729 C730 1.373 . S
C729 C731 1.389 . S
C730 H703 0.950 . S
C730 C716 1.377 . S
C730 C729 1.373 . S
C731 C715 1.377 . S
C731 C729 1.389 . S
C731 C732 1.524 . S
C732 C731 1.524 . S
C732 C733 1.397 . S
C732 C737 1.363 . S
C733 H704 0.950 . S
C733 C732 1.397 . S
C733 C734 1.334 . S
C734 H705 0.950 . S
C734 C733 1.334 . S
C734 C735 1.287 . S
C735 C734 1.287 . S
C735 C736 1.524 . S
C735 H738 0.999 . S
C736 H706 0.950 . S
C736 C735 1.524 . S
C736 C737 1.415 . S
C737 H707 0.950 . S
C737 C732 1.363 . S
C737 C736 1.415 . S
H738 C735 0.999 . S
H739 C720 0.913 . S
H740 C758 0.954 1_556 S
H741 C760 0.943 1_556 S
H742 C762 0.950 . S
H743 C763 0.950 . S
H744 C765 0.950 . S
H745 C768 0.950 . S
H746 C769 0.950 . S
H747 C771 0.950 . S
H748 C772 0.950 . S
H749 C773 0.951 . S
H750 C775 0.951 . S
H751 C777 0.922 1_556 S
H752 C778 0.938 1_556 S
H753 C780 0.950 . S
H754 C783 0.950 . S
H755 C784 0.950 . S
H756 C786 0.950 . S
H757 C787 0.950 . S
C758 H740 0.954 1_554 S
C758 C759 1.366 . S
C758 C760 1.388 . S
C759 C758 1.366 . S
C759 C763 1.385 . S
C760 H741 0.943 1_554 S
C760 C758 1.388 . S
C760 C761 1.366 . S
C761 C760 1.366 . S
C761 C762 1.414 . S
C761 C764 1.499 . S
C762 H742 0.950 . S
C762 C761 1.414 . S
C762 C763 1.374 . S
C763 H743 0.950 . S
C763 C759 1.385 . S
C763 C762 1.374 . S
C764 C761 1.499 . S
C764 C765 1.373 1_455 S
C764 C766 1.389 . S
C765 H744 0.950 . S
C765 C764 1.373 1_655 S
C765 C781 1.377 . S
C766 C764 1.389 . S
C766 C767 1.524 1_554 S
C766 C780 1.377 . S
C767 C766 1.524 1_556 S
C767 C768 1.397 1_556 S
C767 C772 1.363 . S
C768 H745 0.950 . S
C768 C767 1.397 1_554 S
C768 C769 1.334 1_554 S
C769 H746 0.950 . S
C769 C768 1.334 1_556 S
C769 C770 1.287 . S
C770 C769 1.287 . S
C770 C771 1.524 . S
C770 H789 0.913 . S
C771 H747 0.950 . S
C771 C770 1.524 . S
C771 C772 1.415 . S
C772 H748 0.950 . S
C772 C767 1.363 . S
C772 C771 1.415 . S
C773 H749 0.951 . S
C773 C774 1.366 . S
C773 C775 1.388 . S
C774 C773 1.366 . S
C774 C778 1.385 . S
C775 H750 0.951 . S
C775 C773 1.388 . S
C775 C776 1.366 . S
C776 C775 1.366 . S
C776 C777 1.414 . S
C776 C779 1.499 . S
C777 H751 0.922 1_554 S
C777 C776 1.414 . S
C777 C778 1.374 . S
C778 H752 0.938 1_554 S
C778 C774 1.385 . S
C778 C777 1.374 . S
C779 C776 1.499 . S
C779 C780 1.373 1_655 S
C779 C781 1.389 . S
C780 H753 0.950 . S
C780 C766 1.377 . S
C780 C779 1.373 1_455 S
C781 C765 1.377 . S
C781 C779 1.389 . S
C781 C782 1.524 . S
C782 C781 1.524 . S
C782 C783 1.397 . S
C782 C787 1.363 . S
C783 H754 0.950 . S
C783 C782 1.397 . S
C783 C784 1.334 . S
C784 H755 0.950 . S
C784 C783 1.334 . S
C784 C785 1.287 . S
C785 C784 1.287 . S
C785 C786 1.524 . S
C785 H788 0.999 . S
C786 H756 0.950 . S
C786 C785 1.524 . S
C786 C787 1.415 . S
C787 H757 0.950 . S
C787 C782 1.363 . S
C787 C786 1.415 . S
H788 C785 0.999 . S
H789 C770 0.913 . S
H790 C808 0.951 . S
H791 C810 0.951 . S
H792 C812 0.950 . S
H793 C813 0.950 . S
H794 C815 0.950 . S
H795 C818 0.950 . S
H796 C819 0.950 . S
H797 C821 0.950 . S
H798 C822 0.950 . S
H799 C823 0.951 . S
H800 C825 0.951 . S
H801 C827 0.950 . S
H802 C828 0.950 . S
H803 C830 0.950 . S
H804 C833 0.950 . S
H805 C834 0.950 . S
H806 C836 0.950 . S
H807 C837 0.950 . S
C808 H790 0.951 . S
C808 C809 1.366 . S
C808 C810 1.388 . S
C809 C808 1.366 . S
C809 C813 1.385 . S
C810 H791 0.951 . S
C810 C808 1.388 . S
C810 C811 1.366 . S
C811 C810 1.366 . S
C811 C812 1.414 . S
C811 C814 1.499 . S
C812 H792 0.950 . S
C812 C811 1.414 . S
C812 C813 1.374 . S
C813 H793 0.950 . S
C813 C809 1.385 . S
C813 C812 1.374 . S
C814 C811 1.499 . S
C814 C815 1.373 1_565 S
C814 C816 1.389 . S
C815 H794 0.950 . S
C815 C814 1.373 1_545 S
C815 C831 1.377 . S
C816 C814 1.389 . S
C816 C817 1.524 . S
C816 C830 1.377 . S
C817 C816 1.524 . S
C817 C818 1.397 . S
C817 C822 1.363 . S
C818 H795 0.950 . S
C818 C817 1.397 . S
C818 C819 1.334 . S
C819 H796 0.950 . S
C819 C818 1.334 . S
C819 C820 1.287 . S
C820 C819 1.287 . S
C820 C821 1.524 . S
C820 H839 0.913 . S
C821 H797 0.950 . S
C821 C820 1.524 . S
C821 C822 1.415 . S
C822 H798 0.950 . S
C822 C817 1.363 . S
C822 C821 1.415 . S
C823 H799 0.951 . S
C823 C824 1.366 . S
C823 C825 1.388 . S
C824 C823 1.366 . S
C824 C828 1.385 . S
C825 H800 0.951 . S
C825 C823 1.388 . S
C825 C826 1.366 . S
C826 C825 1.366 . S
C826 C827 1.414 . S
C826 C829 1.499 . S
C827 H801 0.950 . S
C827 C826 1.414 . S
C827 C828 1.374 . S
C828 H802 0.950 . S
C828 C824 1.385 . S
C828 C827 1.374 . S
C829 C826 1.499 . S
C829 C830 1.373 1_545 S
C829 C831 1.389 . S
C830 H803 0.950 . S
C830 C816 1.377 . S
C830 C829 1.373 1_565 S
C831 C815 1.377 . S
C831 C829 1.389 . S
C831 C832 1.524 . S
C832 C831 1.524 . S
C832 C833 1.397 . S
C832 C837 1.363 . S
C833 H804 0.950 . S
C833 C832 1.397 . S
C833 C834 1.334 . S
C834 H805 0.950 . S
C834 C833 1.334 . S
C834 C835 1.287 . S
C835 C834 1.287 . S
C835 C836 1.524 . S
C835 H838 0.999 . S
C836 H806 0.950 . S
C836 C835 1.524 . S
C836 C837 1.415 . S
C837 H807 0.950 . S
C837 C832 1.363 . S
C837 C836 1.415 . S
H838 C835 0.999 . S
H839 C820 0.913 . S
H840 C858 0.951 . S
H841 C860 0.951 . S
H842 C862 0.950 . S
H843 C863 0.950 . S
H844 C865 0.950 . S
H845 C868 0.950 . S
H846 C869 0.950 . S
H847 C871 0.950 . S
H848 C872 0.950 . S
H849 C873 0.951 . S
H850 C875 0.951 . S
H851 C877 0.950 . S
H852 C878 0.950 . S
H853 C880 0.950 . S
H854 C883 0.950 . S
H855 C884 0.950 . S
H856 C886 0.950 . S
H857 C887 0.950 . S
C858 H840 0.951 . S
C858 C859 1.366 . S
C858 C860 1.388 . S
C859 C858 1.366 . S
C859 C863 1.385 . S
C860 H841 0.951 . S
C860 C858 1.388 . S
C860 C861 1.366 . S
C861 C860 1.366 . S
C861 C862 1.414 . S
C861 C864 1.499 . S
C862 H842 0.950 . S
C862 C861 1.414 . S
C862 C863 1.374 . S
C863 H843 0.950 . S
C863 C859 1.385 . S
C863 C862 1.374 . S
C864 C861 1.499 . S
C864 C865 1.373 . S
C864 C866 1.389 . S
C865 H844 0.950 . S
C865 C864 1.373 . S
C865 C881 1.377 . S
C866 C864 1.389 . S
C866 C867 1.524 . S
C866 C880 1.377 . S
C867 C866 1.524 . S
C867 C868 1.397 . S
C867 C872 1.363 . S
C868 H845 0.950 . S
C868 C867 1.397 . S
C868 C869 1.334 . S
C869 H846 0.950 . S
C869 C868 1.334 . S
C869 C870 1.287 . S
C870 C869 1.287 . S
C870 C871 1.524 . S
C870 H889 0.913 . S
C871 H847 0.950 . S
C871 C870 1.524 . S
C871 C872 1.415 . S
C872 H848 0.950 . S
C872 C867 1.363 . S
C872 C871 1.415 . S
C873 H849 0.951 . S
C873 C874 1.366 . S
C873 C875 1.388 . S
C874 C873 1.366 . S
C874 C878 1.385 . S
C875 H850 0.951 . S
C875 C873 1.388 . S
C875 C876 1.366 . S
C876 C875 1.366 . S
C876 C877 1.414 . S
C876 C879 1.499 . S
C877 H851 0.950 . S
C877 C876 1.414 . S
C877 C878 1.374 . S
C878 H852 0.950 . S
C878 C874 1.385 . S
C878 C877 1.374 . S
C879 C876 1.499 . S
C879 C880 1.373 . S
C879 C881 1.389 . S
C880 H853 0.950 . S
C880 C866 1.377 . S
C880 C879 1.373 . S
C881 C865 1.377 . S
C881 C879 1.389 . S
C881 C882 1.524 . S
C882 C881 1.524 . S
C882 C883 1.397 . S
C882 C887 1.363 . S
C883 H854 0.950 . S
C883 C882 1.397 . S
C883 C884 1.334 . S
C884 H855 0.950 . S
C884 C883 1.334 . S
C884 C885 1.287 . S
C885 C884 1.287 . S
C885 C886 1.524 . S
C885 H888 0.999 . S
C886 H856 0.950 . S
C886 C885 1.524 . S
C886 C887 1.415 . S
C887 H857 0.950 . S
C887 C882 1.363 . S
C887 C886 1.415 . S
H888 C885 0.999 . S
H889 C870 0.913 . S
H890 C908 0.951 . S
H891 C910 0.951 . S
H892 C912 0.950 . S
H893 C913 0.950 . S
H894 C915 0.950 1_655 S
H895 C918 0.950 . S
H896 C919 0.950 . S
H897 C921 0.950 . S
H898 C922 0.950 . S
H899 C923 0.951 . S
H900 C925 0.951 . S
H901 C927 0.950 . S
H902 C928 0.950 . S
H903 C930 0.950 . S
H904 C933 0.950 . S
H905 C934 0.950 . S
H906 C936 0.950 . S
H907 C937 0.950 . S
C908 H890 0.951 . S
C908 C909 1.366 1_455 S
C908 C910 1.388 . S
C909 C908 1.366 1_655 S
C909 C913 1.385 . S
C910 H891 0.951 . S
C910 C908 1.388 . S
C910 C911 1.366 . S
C911 C910 1.366 . S
C911 C912 1.414 1_455 S
C911 C914 1.499 . S
C912 H892 0.950 . S
C912 C911 1.414 1_655 S
C912 C913 1.374 . S
C913 H893 0.950 . S
C913 C909 1.385 . S
C913 C912 1.374 . S
C914 C911 1.499 . S
C914 C915 1.373 . S
C914 C916 1.389 . S
C915 H894 0.950 1_455 S
C915 C914 1.373 . S
C915 C931 1.377 . S
C916 C914 1.389 . S
C916 C917 1.524 . S
C916 C930 1.377 . S
C917 C916 1.524 . S
C917 C918 1.397 . S
C917 C922 1.363 . S
C918 H895 0.950 . S
C918 C917 1.397 . S
C918 C919 1.334 . S
C919 H896 0.950 . S
C919 C918 1.334 . S
C919 C920 1.287 . S
C920 C919 1.287 . S
C920 C921 1.524 . S
C920 H939 0.913 . S
C921 H897 0.950 . S
C921 C920 1.524 . S
C921 C922 1.415 . S
C922 H898 0.950 . S
C922 C917 1.363 . S
C922 C921 1.415 . S
C923 H899 0.951 . S
C923 C924 1.366 . S
C923 C925 1.388 . S
C924 C923 1.366 . S
C924 C928 1.385 . S
C925 H900 0.951 . S
C925 C923 1.388 . S
C925 C926 1.366 . S
C926 C925 1.366 . S
C926 C927 1.414 . S
C926 C929 1.499 . S
C927 H901 0.950 . S
C927 C926 1.414 . S
C927 C928 1.374 . S
C928 H902 0.950 . S
C928 C924 1.385 . S
C928 C927 1.374 . S
C929 C926 1.499 . S
C929 C930 1.373 . S
C929 C931 1.389 . S
C930 H903 0.950 . S
C930 C916 1.377 . S
C930 C929 1.373 . S
C931 C915 1.377 . S
C931 C929 1.389 . S
C931 C932 1.524 . S
C932 C931 1.524 . S
C932 C933 1.397 . S
C932 C937 1.363 1_455 S
C933 H904 0.950 . S
C933 C932 1.397 . S
C933 C934 1.334 . S
C934 H905 0.950 . S
C934 C933 1.334 . S
C934 C935 1.287 1_455 S
C935 C934 1.287 1_655 S
C935 C936 1.524 . S
C935 H938 0.999 . S
C936 H906 0.950 . S
C936 C935 1.524 . S
C936 C937 1.415 . S
C937 H907 0.950 . S
C937 C932 1.363 1_655 S
C937 C936 1.415 . S
H938 C935 0.999 . S
H939 C920 0.913 . S
H940 C958 0.951 . S
H941 C960 0.951 . S
H942 C962 0.950 . S
H943 C963 0.950 . S
H944 C965 0.950 . S
H945 C968 0.950 . S
H946 C969 0.950 . S
H947 C971 0.950 . S
H948 C972 0.950 . S
H949 C973 0.951 . S
H950 C975 0.951 . S
H951 C977 0.950 . S
H952 C978 0.950 . S
H953 C980 0.950 . S
H954 C983 0.950 . S
H955 C984 0.950 . S
H956 C986 0.950 . S
H957 C987 0.950 . S
C958 H940 0.951 . S
C958 C959 1.366 . S
C958 C960 1.388 1_565 S
C959 C958 1.366 . S
C959 C963 1.385 . S
C960 H941 0.951 . S
C960 C958 1.388 1_545 S
C960 C961 1.366 . S
C961 C960 1.366 . S
C961 C962 1.414 1_545 S
C961 C964 1.499 . S
C962 H942 0.950 . S
C962 C961 1.414 1_565 S
C962 C963 1.374 . S
C963 H943 0.950 . S
C963 C959 1.385 . S
C963 C962 1.374 . S
C964 C961 1.499 . S
C964 C965 1.373 . S
C964 C966 1.389 . S
C965 H944 0.950 . S
C965 C964 1.373 . S
C965 C981 1.377 . S
C966 C964 1.389 . S
C966 C967 1.524 . S
C966 C980 1.377 . S
C967 C966 1.524 . S
C967 C968 1.397 1_545 S
C967 C972 1.363 . S
C968 H945 0.950 . S
C968 C967 1.397 1_565 S
C968 C969 1.334 . S
C969 H946 0.950 . S
C969 C968 1.334 . S
C969 C970 1.287 . S
C970 C969 1.287 . S
C970 C971 1.524 1_565 S
C970 H989 0.913 . S
C971 H947 0.950 . S
C971 C970 1.524 1_545 S
C971 C972 1.415 . S
C972 H948 0.950 . S
C972 C967 1.363 . S
C972 C971 1.415 . S
C973 H949 0.951 . S
C973 C974 1.366 . S
C973 C975 1.388 . S
C974 C973 1.366 . S
C974 C978 1.385 . S
C975 H950 0.951 . S
C975 C973 1.388 . S
C975 C976 1.366 . S
C976 C975 1.366 . S
C976 C977 1.414 . S
C976 C979 1.499 . S
C977 H951 0.950 . S
C977 C976 1.414 . S
C977 C978 1.374 . S
C978 H952 0.950 . S
C978 C974 1.385 . S
C978 C977 1.374 . S
C979 C976 1.499 . S
C979 C980 1.373 . S
C979 C981 1.389 . S
C980 H953 0.950 . S
C980 C966 1.377 . S
C980 C979 1.373 . S
C981 C965 1.377 . S
C981 C979 1.389 . S
C981 C982 1.524 . S
C982 C981 1.524 . S
C982 C983 1.397 . S
C982 C987 1.363 . S
C983 H954 0.950 . S
C983 C982 1.397 . S
C983 C984 1.334 . S
C984 H955 0.950 . S
C984 C983 1.334 . S
C984 C985 1.287 . S
C985 C984 1.287 . S
C985 C986 1.524 . S
C985 H988 0.999 1_655 S
C986 H956 0.950 . S
C986 C985 1.524 . S
C986 C987 1.415 . S
C987 H957 0.950 . S
C987 C982 1.363 . S
C987 C986 1.415 . S
H988 C985 0.999 1_455 S
H989 C970 0.913 . S
H990 C1008 0.951 . S
H991 C1010 0.951 . S
H992 C1012 0.950 . S
H993 C1013 0.950 . S
H994 C1015 0.950 . S
H995 C1018 0.950 . S
H996 C1019 0.950 . S
H997 C1021 0.950 . S
H998 C1022 0.950 . S
H999 C1023 0.951 . S
H1000 C1025 0.951 . S
H1001 C1027 0.950 . S
H1002 C1028 0.950 . S
H1003 C1030 0.950 . S
H1004 C1033 0.950 . S
H1005 C1034 0.950 . S
H1006 C1036 0.950 . S
H1007 C1037 0.950 . S
C1008 H990 0.951 . S
C1008 C1009 1.366 . S
C1008 C1010 1.388 . S
C1009 C1008 1.366 . S
C1009 C1013 1.385 . S
C1010 H991 0.951 . S
C1010 C1008 1.388 . S
C1010 C1011 1.366 . S
C1011 C1010 1.366 . S
C1011 C1012 1.414 . S
C1011 C1014 1.499 . S
C1012 H992 0.950 . S
C1012 C1011 1.414 . S
C1012 C1013 1.374 . S
C1013 H993 0.950 . S
C1013 C1009 1.385 . S
C1013 C1012 1.374 . S
C1014 C1011 1.499 . S
C1014 C1015 1.373 . S
C1014 C1016 1.389 . S
C1015 H994 0.950 . S
C1015 C1014 1.373 . S
C1015 C1031 1.377 . S
C1016 C1014 1.389 . S
C1016 C1017 1.524 . S
C1016 C1030 1.377 . S
C1017 C1016 1.524 . S
C1017 C1018 1.397 . S
C1017 C1022 1.363 . S
C1018 H995 0.950 . S
C1018 C1017 1.397 . S
C1018 C1019 1.334 . S
C1019 H996 0.950 . S
C1019 C1018 1.334 . S
C1019 C1020 1.287 . S
C1020 C1019 1.287 . S
C1020 C1021 1.524 . S
C1020 H1039 0.913 . S
C1021 H997 0.950 . S
C1021 C1020 1.524 . S
C1021 C1022 1.415 . S
C1022 H998 0.950 . S
C1022 C1017 1.363 . S
C1022 C1021 1.415 . S
C1023 H999 0.951 . S
C1023 C1024 1.366 . S
C1023 C1025 1.388 . S
C1024 C1023 1.366 . S
C1024 C1028 1.385 . S
C1025 H1000 0.951 . S
C1025 C1023 1.388 . S
C1025 C1026 1.366 . S
C1026 C1025 1.366 . S
C1026 C1027 1.414 . S
C1026 C1029 1.499 . S
C1027 H1001 0.950 . S
C1027 C1026 1.414 . S
C1027 C1028 1.374 . S
C1028 H1002 0.950 . S
C1028 C1024 1.385 . S
C1028 C1027 1.374 . S
C1029 C1026 1.499 . S
C1029 C1030 1.373 . S
C1029 C1031 1.389 . S
C1030 H1003 0.950 . S
C1030 C1016 1.377 . S
C1030 C1029 1.373 . S
C1031 C1015 1.377 . S
C1031 C1029 1.389 . S
C1031 C1032 1.524 . S
C1032 C1031 1.524 . S
C1032 C1033 1.397 . S
C1032 C1037 1.363 . S
C1033 H1004 0.950 . S
C1033 C1032 1.397 . S
C1033 C1034 1.334 . S
C1034 H1005 0.950 . S
C1034 C1033 1.334 . S
C1034 C1035 1.287 . S
C1035 C1034 1.287 . S
C1035 C1036 1.524 . S
C1035 H1038 0.999 . S
C1036 H1006 0.950 . S
C1036 C1035 1.524 . S
C1036 C1037 1.415 . S
C1037 H1007 0.950 . S
C1037 C1032 1.363 . S
C1037 C1036 1.415 . S
H1038 C1035 0.999 . S
H1039 C1020 0.913 . S
H1040 C1058 0.951 . S
H1041 C1060 0.951 . S
H1042 C1062 0.950 . S
H1043 C1063 0.950 . S
H1044 C1065 0.950 1_455 S
H1045 C1068 0.950 . S
H1046 C1069 0.950 . S
H1047 C1071 0.950 . S
H1048 C1072 0.950 . S
H1049 C1073 0.951 . S
H1050 C1075 0.951 . S
H1051 C1077 0.950 . S
H1052 C1078 0.950 . S
H1053 C1080 0.950 . S
H1054 C1083 0.950 . S
H1055 C1084 0.950 1_655 S
H1056 C1086 0.950 . S
H1057 C1087 0.950 . S
C1058 H1040 0.951 . S
C1058 C1059 1.366 1_655 S
C1058 C1060 1.388 . S
C1059 C1058 1.366 1_455 S
C1059 C1063 1.385 . S
C1060 H1041 0.951 . S
C1060 C1058 1.388 . S
C1060 C1061 1.366 . S
C1061 C1060 1.366 . S
C1061 C1062 1.414 1_655 S
C1061 C1064 1.499 . S
C1062 H1042 0.950 . S
C1062 C1061 1.414 1_455 S
C1062 C1063 1.374 . S
C1063 H1043 0.950 . S
C1063 C1059 1.385 . S
C1063 C1062 1.374 . S
C1064 C1061 1.499 . S
C1064 C1065 1.373 . S
C1064 C1066 1.389 . S
C1065 H1044 0.950 1_655 S
C1065 C1064 1.373 . S
C1065 C1081 1.377 . S
C1066 C1064 1.389 . S
C1066 C1067 1.524 . S
C1066 C1080 1.377 . S
C1067 C1066 1.524 . S
C1067 C1068 1.397 . S
C1067 C1072 1.363 . S
C1068 H1045 0.950 . S
C1068 C1067 1.397 . S
C1068 C1069 1.334 . S
C1069 H1046 0.950 . S
C1069 C1068 1.334 . S
C1069 C1070 1.287 . S
C1070 C1069 1.287 . S
C1070 C1071 1.524 . S
C1070 H1089 0.913 . S
C1071 H1047 0.950 . S
C1071 C1070 1.524 . S
C1071 C1072 1.415 . S
C1072 H1048 0.950 . S
C1072 C1067 1.363 . S
C1072 C1071 1.415 . S
C1073 H1049 0.951 . S
C1073 C1074 1.366 . S
C1073 C1075 1.388 . S
C1074 C1073 1.366 . S
C1074 C1078 1.385 . S
C1075 H1050 0.951 . S
C1075 C1073 1.388 . S
C1075 C1076 1.366 . S
C1076 C1075 1.366 . S
C1076 C1077 1.414 . S
C1076 C1079 1.499 . S
C1077 H1051 0.950 . S
C1077 C1076 1.414 . S
C1077 C1078 1.374 . S
C1078 H1052 0.950 . S
C1078 C1074 1.385 . S
C1078 C1077 1.374 . S
C1079 C1076 1.499 . S
C1079 C1080 1.373 . S
C1079 C1081 1.389 . S
C1080 H1053 0.950 . S
C1080 C1066 1.377 . S
C1080 C1079 1.373 . S
C1081 C1065 1.377 . S
C1081 C1079 1.389 . S
C1081 C1082 1.527 . S
C1082 C1081 1.527 . S
C1082 C1083 1.402 . S
C1082 C1087 1.356 1_655 S
C1083 H1054 0.950 . S
C1083 C1082 1.402 . S
C1083 C1084 1.334 1_655 S
C1084 H1055 0.950 1_455 S
C1084 C1083 1.334 1_455 S
C1084 C1085 1.287 . S
C1085 C1084 1.287 . S
C1085 C1086 1.524 . S
C1085 H1088 0.999 . S
C1086 H1056 0.950 . S
C1086 C1085 1.524 . S
C1086 C1087 1.415 . S
C1087 H1057 0.950 . S
C1087 C1082 1.356 1_455 S
C1087 C1086 1.415 . S
H1088 C1085 0.999 . S
H1089 C1070 0.913 . S
H1090 C1108 0.951 . S
H1091 C1110 0.951 . S
H1092 C1112 0.950 . S
H1093 C1113 0.950 . S
H1094 C1115 0.950 1_545 S
H1095 C1118 0.950 . S
H1096 C1119 0.950 . S
H1097 C1121 0.950 . S
H1098 C1122 0.950 . S
H1099 C1123 0.951 . S
H1100 C1125 0.951 . S
H1101 C1127 0.950 . S
H1102 C1128 0.950 . S
H1103 C1130 0.950 . S
H1104 C1133 0.950 1_565 S
H1105 C1134 0.950 . S
H1106 C1136 0.950 . S
H1107 C1137 0.950 . S
C1108 H1090 0.951 . S
C1108 C1109 1.366 . S
C1108 C1110 1.388 1_545 S
C1109 C1108 1.366 . S
C1109 C1113 1.385 . S
C1110 H1091 0.951 . S
C1110 C1108 1.388 1_565 S
C1110 C1111 1.366 . S
C1111 C1110 1.366 . S
C1111 C1112 1.414 1_565 S
C1111 C1114 1.499 . S
C1112 H1092 0.950 . S
C1112 C1111 1.414 1_545 S
C1112 C1113 1.374 . S
C1113 H1093 0.950 . S
C1113 C1109 1.385 . S
C1113 C1112 1.374 . S
C1114 C1111 1.499 . S
C1114 C1115 1.373 . S
C1114 C1116 1.389 . S
C1115 H1094 0.950 1_565 S
C1115 C1114 1.373 . S
C1115 C1131 1.377 . S
C1116 C1114 1.389 . S
C1116 C1117 1.524 . S
C1116 C1130 1.377 . S
C1117 C1116 1.524 . S
C1117 C1118 1.397 . S
C1117 C1122 1.363 . S
C1118 H1095 0.950 . S
C1118 C1117 1.397 . S
C1118 C1119 1.334 . S
C1119 H1096 0.950 . S
C1119 C1118 1.334 . S
C1119 C1120 1.287 . S
C1120 C1119 1.287 . S
C1120 C1121 1.524 . S
C1120 H1139 0.913 . S
C1121 H1097 0.950 . S
C1121 C1120 1.524 . S
C1121 C1122 1.415 . S
C1122 H1098 0.950 . S
C1122 C1117 1.363 . S
C1122 C1121 1.415 . S
C1123 H1099 0.951 . S
C1123 C1124 1.366 . S
C1123 C1125 1.388 . S
C1124 C1123 1.366 . S
C1124 C1128 1.385 . S
C1125 H1100 0.951 . S
C1125 C1123 1.388 . S
C1125 C1126 1.366 . S
C1126 C1125 1.366 . S
C1126 C1127 1.414 . S
C1126 C1129 1.499 . S
C1127 H1101 0.950 . S
C1127 C1126 1.414 . S
C1127 C1128 1.374 . S
C1128 H1102 0.950 . S
C1128 C1124 1.385 . S
C1128 C1127 1.374 . S
C1129 C1126 1.499 . S
C1129 C1130 1.373 . S
C1129 C1131 1.389 . S
C1130 H1103 0.950 . S
C1130 C1116 1.377 . S
C1130 C1129 1.373 . S
C1131 C1115 1.377 . S
C1131 C1129 1.389 . S
C1131 C1132 1.520 1_565 S
C1132 C1131 1.520 1_545 S
C1132 C1133 1.404 . S
C1132 C1137 1.362 . S
C1133 H1104 0.950 1_545 S
C1133 C1132 1.404 . S
C1133 C1134 1.334 . S
C1134 H1105 0.950 . S
C1134 C1133 1.334 . S
C1134 C1135 1.287 . S
C1135 C1134 1.287 . S
C1135 C1136 1.524 . S
C1135 H1138 0.999 . S
C1136 H1106 0.950 . S
C1136 C1135 1.524 . S
C1136 C1137 1.415 . S
C1137 H1107 0.950 . S
C1137 C1132 1.362 . S
C1137 C1136 1.415 . S
H1138 C1135 0.999 . S
H1139 C1120 0.913 . S
C259 C179 1.160 . S
C274 C6 1.163 . S
C309 C219 1.160 . S
C324 C46 1.163 . S
C359 C19 1.114 1_556 S
C374 C86 1.163 . S
C409 C59 1.160 . S
C424 C126 1.163 . S
C459 C99 1.160 . S
C474 C166 1.163 . S
C509 C139 1.115 1_556 S
C524 C206 1.163 . S
C559 C9 0.634 . S
C574 C129 0.634 . S
C609 C169 0.632 . S
C624 C49 0.632 . S
C659 C209 0.633 . S
C674 C89 0.633 . S
C709 C98 0.484 . S
C724 C218 0.484 . S
C759 C18 0.483 . S
C774 C138 0.483 . S
C809 C178 0.484 . S
C824 C58 0.484 . S
C859 C210 1.192 . S
C874 C15 1.180 . S
C909 C55 1.181 . S
C924 C10 1.192 . S
C959 C95 1.181 . S
C974 C50 1.192 . S
C1009 C90 1.192 . S
C1024 C135 1.180 . S
C1059 C175 1.181 . S
C1074 C130 1.192 . S
C1109 C215 1.180 . S
C1124 C170 1.192 . S
