# Generated by pormake.
# Topology sst, (4)-cn, num edge types: 1
# Building blocks:
#     Node 0, Type 0, BuildingBlock: NAWXER_clean_sbu_0, # of connection points: 4
#     Node 1, Type 0, BuildingBlock: NAWXER_clean_sbu_0, # of connection points: 4
#     Node 2, Type 0, BuildingBlock: NAWXER_clean_sbu_0, # of connection points: 4
#     Node 3, Type 0, BuildingBlock: NAWXER_clean_sbu_0, # of connection points: 4
#     Node 4, Type 0, BuildingBlock: NAWXER_clean_sbu_0, # of connection points: 4
#     Node 5, Type 0, BuildingBlock: NAWXER_clean_sbu_0, # of connection points: 4
#     Node 6, Type 0, BuildingBlock: NAWXER_clean_sbu_0, # of connection points: 4
#     Node 7, Type 0, BuildingBlock: NAWXER_clean_sbu_0, # of connection points: 4
#     Node 8, Type 0, BuildingBlock: NAWXER_clean_sbu_0, # of connection points: 4
#     Node 9, Type 0, BuildingBlock: NAWXER_clean_sbu_0, # of connection points: 4
#     Node 10, Type 0, BuildingBlock: NAWXER_clean_sbu_0, # of connection points: 4
#     Node 11, Type 0, BuildingBlock: NAWXER_clean_sbu_0, # of connection points: 4
#     Node 12, Type 0, BuildingBlock: NAWXER_clean_sbu_0, # of connection points: 4
#     Node 13, Type 0, BuildingBlock: NAWXER_clean_sbu_0, # of connection points: 4
#     Node 14, Type 0, BuildingBlock: NAWXER_clean_sbu_0, # of connection points: 4
#     Node 15, Type 0, BuildingBlock: NAWXER_clean_sbu_0, # of connection points: 4
#     Node 16, Type 0, BuildingBlock: NAWXER_clean_sbu_0, # of connection points: 4
#     Node 17, Type 0, BuildingBlock: NAWXER_clean_sbu_0, # of connection points: 4
#     Node 18, Type 0, BuildingBlock: NAWXER_clean_sbu_0, # of connection points: 4
#     Node 19, Type 0, BuildingBlock: NAWXER_clean_sbu_0, # of connection points: 4
#     Node 20, Type 0, BuildingBlock: NAWXER_clean_sbu_0, # of connection points: 4
#     Node 21, Type 0, BuildingBlock: NAWXER_clean_sbu_0, # of connection points: 4
#     Node 22, Type 0, BuildingBlock: NAWXER_clean_sbu_0, # of connection points: 4
#     Node 23, Type 0, BuildingBlock: NAWXER_clean_sbu_0, # of connection points: 4
#     Node 24, Type 0, BuildingBlock: NAWXER_clean_sbu_0, # of connection points: 4
#     Node 25, Type 0, BuildingBlock: NAWXER_clean_sbu_0, # of connection points: 4
#     Node 26, Type 0, BuildingBlock: NAWXER_clean_sbu_0, # of connection points: 4
#     Node 27, Type 0, BuildingBlock: NAWXER_clean_sbu_0, # of connection points: 4
#     Node 28, Type 0, BuildingBlock: NAWXER_clean_sbu_0, # of connection points: 4
#     Node 29, Type 0, BuildingBlock: NAWXER_clean_sbu_0, # of connection points: 4
#     Node 30, Type 0, BuildingBlock: NAWXER_clean_sbu_0, # of connection points: 4
#     Node 31, Type 0, BuildingBlock: NAWXER_clean_sbu_0, # of connection points: 4
#     Node 32, Type 0, BuildingBlock: NAWXER_clean_sbu_0, # of connection points: 4
#     Node 33, Type 0, BuildingBlock: NAWXER_clean_sbu_0, # of connection points: 4
#     Node 34, Type 0, BuildingBlock: NAWXER_clean_sbu_0, # of connection points: 4
#     Node 35, Type 0, BuildingBlock: NAWXER_clean_sbu_0, # of connection points: 4
#     Node 36, Type 0, BuildingBlock: NAWXER_clean_sbu_0, # of connection points: 4
#     Node 37, Type 0, BuildingBlock: NAWXER_clean_sbu_0, # of connection points: 4
#     Node 38, Type 0, BuildingBlock: NAWXER_clean_sbu_0, # of connection points: 4
#     Node 39, Type 0, BuildingBlock: NAWXER_clean_sbu_0, # of connection points: 4
#     Node 40, Type 0, BuildingBlock: NAWXER_clean_sbu_0, # of connection points: 4
#     Node 41, Type 0, BuildingBlock: NAWXER_clean_sbu_0, # of connection points: 4
#     Node 42, Type 0, BuildingBlock: NAWXER_clean_sbu_0, # of connection points: 4
#     Node 43, Type 0, BuildingBlock: NAWXER_clean_sbu_0, # of connection points: 4
#     Node 44, Type 0, BuildingBlock: NAWXER_clean_sbu_0, # of connection points: 4
#     Node 45, Type 0, BuildingBlock: NAWXER_clean_sbu_0, # of connection points: 4
#     Node 46, Type 0, BuildingBlock: NAWXER_clean_sbu_0, # of connection points: 4
#     Node 47, Type 0, BuildingBlock: NAWXER_clean_sbu_0, # of connection points: 4
#     Edge 48, Type (0, 0), BuildingBlock: ZUJKAS_clean_linker_0, # of connection points: 2
#     Edge 49, Type (0, 0), BuildingBlock: ZUJKAS_clean_linker_0, # of connection points: 2
#     Edge 50, Type (0, 0), BuildingBlock: ZUJKAS_clean_linker_0, # of connection points: 2
#     Edge 51, Type (0, 0), BuildingBlock: ZUJKAS_clean_linker_0, # of connection points: 2
#     Edge 52, Type (0, 0), BuildingBlock: ZUJKAS_clean_linker_0, # of connection points: 2
#     Edge 53, Type (0, 0), BuildingBlock: ZUJKAS_clean_linker_0, # of connection points: 2
#     Edge 54, Type (0, 0), BuildingBlock: ZUJKAS_clean_linker_0, # of connection points: 2
#     Edge 55, Type (0, 0), BuildingBlock: ZUJKAS_clean_linker_0, # of connection points: 2
#     Edge 56, Type (0, 0), BuildingBlock: ZUJKAS_clean_linker_0, # of connection points: 2
#     Edge 57, Type (0, 0), BuildingBlock: ZUJKAS_clean_linker_0, # of connection points: 2
#     Edge 58, Type (0, 0), BuildingBlock: ZUJKAS_clean_linker_0, # of connection points: 2
#     Edge 59, Type (0, 0), BuildingBlock: ZUJKAS_clean_linker_0, # of connection points: 2
#     Edge 60, Type (0, 0), BuildingBlock: ZUJKAS_clean_linker_0, # of connection points: 2
#     Edge 61, Type (0, 0), BuildingBlock: ZUJKAS_clean_linker_0, # of connection points: 2
#     Edge 62, Type (0, 0), BuildingBlock: ZUJKAS_clean_linker_0, # of connection points: 2
#     Edge 63, Type (0, 0), BuildingBlock: ZUJKAS_clean_linker_0, # of connection points: 2
#     Edge 64, Type (0, 0), BuildingBlock: ZUJKAS_clean_linker_0, # of connection points: 2
#     Edge 65, Type (0, 0), BuildingBlock: ZUJKAS_clean_linker_0, # of connection points: 2
#     Edge 66, Type (0, 0), BuildingBlock: ZUJKAS_clean_linker_0, # of connection points: 2
#     Edge 67, Type (0, 0), BuildingBlock: ZUJKAS_clean_linker_0, # of connection points: 2
#     Edge 68, Type (0, 0), BuildingBlock: ZUJKAS_clean_linker_0, # of connection points: 2
#     Edge 69, Type (0, 0), BuildingBlock: ZUJKAS_clean_linker_0, # of connection points: 2
#     Edge 70, Type (0, 0), BuildingBlock: ZUJKAS_clean_linker_0, # of connection points: 2
#     Edge 71, Type (0, 0), BuildingBlock: ZUJKAS_clean_linker_0, # of connection points: 2
#     Edge 72, Type (0, 0), BuildingBlock: ZUJKAS_clean_linker_0, # of connection points: 2
#     Edge 73, Type (0, 0), BuildingBlock: ZUJKAS_clean_linker_0, # of connection points: 2
#     Edge 74, Type (0, 0), BuildingBlock: ZUJKAS_clean_linker_0, # of connection points: 2
#     Edge 75, Type (0, 0), BuildingBlock: ZUJKAS_clean_linker_0, # of connection points: 2
#     Edge 76, Type (0, 0), BuildingBlock: ZUJKAS_clean_linker_0, # of connection points: 2
#     Edge 77, Type (0, 0), BuildingBlock: ZUJKAS_clean_linker_0, # of connection points: 2
#     Edge 78, Type (0, 0), BuildingBlock: ZUJKAS_clean_linker_0, # of connection points: 2
#     Edge 79, Type (0, 0), BuildingBlock: ZUJKAS_clean_linker_0, # of connection points: 2
#     Edge 80, Type (0, 0), BuildingBlock: ZUJKAS_clean_linker_0, # of connection points: 2
#     Edge 81, Type (0, 0), BuildingBlock: ZUJKAS_clean_linker_0, # of connection points: 2
#     Edge 82, Type (0, 0), BuildingBlock: ZUJKAS_clean_linker_0, # of connection points: 2
#     Edge 83, Type (0, 0), BuildingBlock: ZUJKAS_clean_linker_0, # of connection points: 2
#     Edge 84, Type (0, 0), BuildingBlock: ZUJKAS_clean_linker_0, # of connection points: 2
#     Edge 85, Type (0, 0), BuildingBlock: ZUJKAS_clean_linker_0, # of connection points: 2
#     Edge 86, Type (0, 0), BuildingBlock: ZUJKAS_clean_linker_0, # of connection points: 2
#     Edge 87, Type (0, 0), BuildingBlock: ZUJKAS_clean_linker_0, # of connection points: 2
#     Edge 88, Type (0, 0), BuildingBlock: ZUJKAS_clean_linker_0, # of connection points: 2
#     Edge 89, Type (0, 0), BuildingBlock: ZUJKAS_clean_linker_0, # of connection points: 2
#     Edge 90, Type (0, 0), BuildingBlock: ZUJKAS_clean_linker_0, # of connection points: 2
#     Edge 91, Type (0, 0), BuildingBlock: ZUJKAS_clean_linker_0, # of connection points: 2
#     Edge 92, Type (0, 0), BuildingBlock: ZUJKAS_clean_linker_0, # of connection points: 2
#     Edge 93, Type (0, 0), BuildingBlock: ZUJKAS_clean_linker_0, # of connection points: 2
#     Edge 94, Type (0, 0), BuildingBlock: ZUJKAS_clean_linker_0, # of connection points: 2
#     Edge 95, Type (0, 0), BuildingBlock: ZUJKAS_clean_linker_0, # of connection points: 2
#     Edge 96, Type (0, 0), BuildingBlock: ZUJKAS_clean_linker_0, # of connection points: 2
#     Edge 97, Type (0, 0), BuildingBlock: ZUJKAS_clean_linker_0, # of connection points: 2
#     Edge 98, Type (0, 0), BuildingBlock: ZUJKAS_clean_linker_0, # of connection points: 2
#     Edge 99, Type (0, 0), BuildingBlock: ZUJKAS_clean_linker_0, # of connection points: 2
#     Edge 100, Type (0, 0), BuildingBlock: ZUJKAS_clean_linker_0, # of connection points: 2
#     Edge 101, Type (0, 0), BuildingBlock: ZUJKAS_clean_linker_0, # of connection points: 2
#     Edge 102, Type (0, 0), BuildingBlock: ZUJKAS_clean_linker_0, # of connection points: 2
#     Edge 103, Type (0, 0), BuildingBlock: ZUJKAS_clean_linker_0, # of connection points: 2
#     Edge 104, Type (0, 0), BuildingBlock: ZUJKAS_clean_linker_0, # of connection points: 2
#     Edge 105, Type (0, 0), BuildingBlock: ZUJKAS_clean_linker_0, # of connection points: 2
#     Edge 106, Type (0, 0), BuildingBlock: ZUJKAS_clean_linker_0, # of connection points: 2
#     Edge 107, Type (0, 0), BuildingBlock: ZUJKAS_clean_linker_0, # of connection points: 2
#     Edge 108, Type (0, 0), BuildingBlock: ZUJKAS_clean_linker_0, # of connection points: 2
#     Edge 109, Type (0, 0), BuildingBlock: ZUJKAS_clean_linker_0, # of connection points: 2
#     Edge 110, Type (0, 0), BuildingBlock: ZUJKAS_clean_linker_0, # of connection points: 2
#     Edge 111, Type (0, 0), BuildingBlock: ZUJKAS_clean_linker_0, # of connection points: 2
#     Edge 112, Type (0, 0), BuildingBlock: ZUJKAS_clean_linker_0, # of connection points: 2
#     Edge 113, Type (0, 0), BuildingBlock: ZUJKAS_clean_linker_0, # of connection points: 2
#     Edge 114, Type (0, 0), BuildingBlock: ZUJKAS_clean_linker_0, # of connection points: 2
#     Edge 115, Type (0, 0), BuildingBlock: ZUJKAS_clean_linker_0, # of connection points: 2
#     Edge 116, Type (0, 0), BuildingBlock: ZUJKAS_clean_linker_0, # of connection points: 2
#     Edge 117, Type (0, 0), BuildingBlock: ZUJKAS_clean_linker_0, # of connection points: 2
#     Edge 118, Type (0, 0), BuildingBlock: ZUJKAS_clean_linker_0, # of connection points: 2
#     Edge 119, Type (0, 0), BuildingBlock: ZUJKAS_clean_linker_0, # of connection points: 2
#     Edge 120, Type (0, 0), BuildingBlock: ZUJKAS_clean_linker_0, # of connection points: 2
#     Edge 121, Type (0, 0), BuildingBlock: ZUJKAS_clean_linker_0, # of connection points: 2
#     Edge 122, Type (0, 0), BuildingBlock: ZUJKAS_clean_linker_0, # of connection points: 2
#     Edge 123, Type (0, 0), BuildingBlock: ZUJKAS_clean_linker_0, # of connection points: 2
#     Edge 124, Type (0, 0), BuildingBlock: ZUJKAS_clean_linker_0, # of connection points: 2
#     Edge 125, Type (0, 0), BuildingBlock: ZUJKAS_clean_linker_0, # of connection points: 2
#     Edge 126, Type (0, 0), BuildingBlock: ZUJKAS_clean_linker_0, # of connection points: 2
#     Edge 127, Type (0, 0), BuildingBlock: ZUJKAS_clean_linker_0, # of connection points: 2
#     Edge 128, Type (0, 0), BuildingBlock: ZUJKAS_clean_linker_0, # of connection points: 2
#     Edge 129, Type (0, 0), BuildingBlock: ZUJKAS_clean_linker_0, # of connection points: 2
#     Edge 130, Type (0, 0), BuildingBlock: ZUJKAS_clean_linker_0, # of connection points: 2
#     Edge 131, Type (0, 0), BuildingBlock: ZUJKAS_clean_linker_0, # of connection points: 2
#     Edge 132, Type (0, 0), BuildingBlock: ZUJKAS_clean_linker_0, # of connection points: 2
#     Edge 133, Type (0, 0), BuildingBlock: ZUJKAS_clean_linker_0, # of connection points: 2
#     Edge 134, Type (0, 0), BuildingBlock: ZUJKAS_clean_linker_0, # of connection points: 2
#     Edge 135, Type (0, 0), BuildingBlock: ZUJKAS_clean_linker_0, # of connection points: 2
#     Edge 136, Type (0, 0), BuildingBlock: ZUJKAS_clean_linker_0, # of connection points: 2
#     Edge 137, Type (0, 0), BuildingBlock: ZUJKAS_clean_linker_0, # of connection points: 2
#     Edge 138, Type (0, 0), BuildingBlock: ZUJKAS_clean_linker_0, # of connection points: 2
#     Edge 139, Type (0, 0), BuildingBlock: ZUJKAS_clean_linker_0, # of connection points: 2
#     Edge 140, Type (0, 0), BuildingBlock: ZUJKAS_clean_linker_0, # of connection points: 2
#     Edge 141, Type (0, 0), BuildingBlock: ZUJKAS_clean_linker_0, # of connection points: 2
#     Edge 142, Type (0, 0), BuildingBlock: ZUJKAS_clean_linker_0, # of connection points: 2
#     Edge 143, Type (0, 0), BuildingBlock: ZUJKAS_clean_linker_0, # of connection points: 2
# Relax obj value: 0.000
# Max RMSD: 0.000
# Mean RMSD: 0.000
data_MOF--net-sst--node1-NAWXER_clean_sbu_0--edge1-ZUJKAS_clean_linker_0
_symmetry_space_group_name_H-M    P1
_symmetry_Int_Tables_number       1
_symmetry_cell_setting            triclinic
loop_
_symmetry_equiv_pos_as_xyz
'x, y, z'
_cell_length_a     76.554306
_cell_length_b     76.50897
_cell_length_c     76.530593
_cell_angle_alpha  97.252888
_cell_angle_beta   97.279832
_cell_angle_gamma 97.302
loop_
_atom_site_label
_atom_site_type_symbol
_atom_site_fract_x
_atom_site_fract_y
_atom_site_fract_z
_atom_type_partial_charge
C0 C 0.14812 0.1616 0.36245 0.0
C1 C 0.14849 0.10016 0.37562 0.0
O2 O 0.14838 0.14798 0.35105 0.0
Zn3 Zn 0.14763 0.13064 0.3678 0.0
O4 O 0.1474 0.1597 0.37876 0.0
Zn5 Zn 0.14698 0.13932 0.3956 0.0
O6 O 0.16945 0.14751 0.41166 0.0
O7 O 0.17284 0.13989 0.38361 0.0
O8 O 0.1479 0.11156 0.38924 0.0
O9 O 0.14855 0.10535 0.36047 0.0
O10 O 0.12156 0.131 0.37487 0.0
O11 O 0.12388 0.14002 0.40371 0.0
C12 C 0.17957 0.14612 0.39971 0.0
C13 C 0.11417 0.13484 0.38871 0.0
C14 C 0.89839 0.16417 0.40208 0.0
C15 C 0.89126 0.09866 0.39527 0.0
O16 O 0.89582 0.15618 0.38604 0.0
Zn17 Zn 0.89169 0.13028 0.37131 0.0
O18 O 0.89906 0.15505 0.41492 0.0
Zn19 Zn 0.89507 0.13152 0.40016 0.0
O20 O 0.91891 0.13215 0.38871 0.0
O21 O 0.91311 0.13053 0.35953 0.0
O22 O 0.89417 0.10907 0.41003 0.0
O23 O 0.89012 0.10524 0.38066 0.0
O24 O 0.86761 0.12962 0.3586 0.0
O25 O 0.8684 0.13025 0.38762 0.0
C26 C 0.92438 0.13175 0.37356 0.0
C27 C 0.8595 0.12969 0.37216 0.0
C28 C 0.88728 0.90846 0.37838 0.0
C29 C 0.88838 0.84373 0.37129 0.0
O30 O 0.88402 0.89796 0.36367 0.0
Zn31 Zn 0.88682 0.87592 0.37353 0.0
O32 O 0.89091 0.90215 0.39293 0.0
Zn33 Zn 0.89367 0.8774 0.40214 0.0
O34 O 0.91883 0.88108 0.41249 0.0
O35 O 0.91453 0.88006 0.38328 0.0
O36 O 0.89172 0.85169 0.38734 0.0
O37 O 0.88432 0.85256 0.35869 0.0
O38 O 0.86478 0.87324 0.3878 0.0
O39 O 0.87426 0.87459 0.41644 0.0
C40 C 0.92516 0.88167 0.39791 0.0
C41 C 0.86142 0.87296 0.40374 0.0
C42 C 0.14866 0.91496 0.39539 0.0
C43 C 0.14522 0.85085 0.40065 0.0
O44 O 0.14437 0.90435 0.3807 0.0
Zn45 Zn 0.1395 0.87673 0.37087 0.0
O46 O 0.15134 0.90853 0.4099 0.0
Zn47 Zn 0.14676 0.88312 0.39964 0.0
O48 O 0.16821 0.88045 0.38481 0.0
O49 O 0.15835 0.87437 0.35599 0.0
O50 O 0.14858 0.86344 0.41376 0.0
O51 O 0.14167 0.85452 0.38483 0.0
O52 O 0.11413 0.87326 0.36117 0.0
O53 O 0.11912 0.87936 0.39047 0.0
C54 C 0.17126 0.87703 0.36875 0.0
C55 C 0.10819 0.87575 0.37596 0.0
C56 C 0.12868 0.90525 0.60817 0.0
C57 C 0.12573 0.84307 0.61712 0.0
O58 O 0.12412 0.89142 0.59663 0.0
Zn59 Zn 0.12656 0.87415 0.61269 0.0
O60 O 0.13282 0.90356 0.6246 0.0
Zn61 Zn 0.13461 0.88207 0.6403 0.0
O62 O 0.15948 0.88578 0.65043 0.0
O63 O 0.15488 0.87794 0.62128 0.0
O64 O 0.13025 0.85376 0.63177 0.0
O65 O 0.12213 0.8493 0.60268 0.0
O66 O 0.10513 0.87729 0.62806 0.0
O67 O 0.11714 0.88533 0.65612 0.0
C68 C 0.16563 0.88218 0.63594 0.0
C69 C 0.10336 0.8816 0.64444 0.0
C70 C 0.13555 0.15297 0.59656 0.0
C71 C 0.1321 0.08805 0.59198 0.0
O72 O 0.13512 0.14204 0.58247 0.0
Zn73 Zn 0.13433 0.12045 0.59351 0.0
O74 O 0.13572 0.14718 0.61157 0.0
Zn75 Zn 0.13476 0.12238 0.62175 0.0
O76 O 0.15718 0.12452 0.63724 0.0
O77 O 0.16021 0.12274 0.60879 0.0
O78 O 0.13283 0.09604 0.60787 0.0
O79 O 0.13242 0.09713 0.57916 0.0
O80 O 0.1089 0.11918 0.60243 0.0
O81 O 0.11271 0.12132 0.63174 0.0
C82 C 0.16714 0.12397 0.62514 0.0
C83 C 0.10236 0.1197 0.61706 0.0
C84 C 0.8966 0.16669 0.64718 0.0
C85 C 0.88388 0.10164 0.64468 0.0
O86 O 0.89251 0.15798 0.63142 0.0
Zn87 Zn 0.88516 0.13117 0.61834 0.0
O88 O 0.89687 0.15829 0.66054 0.0
Zn89 Zn 0.88991 0.13443 0.64705 0.0
O90 O 0.91254 0.13127 0.63409 0.0
O91 O 0.90484 0.12826 0.60495 0.0
O92 O 0.88765 0.11307 0.65871 0.0
O93 O 0.88253 0.10697 0.62943 0.0
O94 O 0.86125 0.13157 0.60635 0.0
O95 O 0.86337 0.13592 0.63567 0.0
C96 C 0.91674 0.12903 0.61837 0.0
C97 C 0.85409 0.1348 0.62031 0.0
C98 C 0.88618 0.913 0.63953 0.0
C99 C 0.88082 0.84771 0.63295 0.0
O100 O 0.88376 0.90228 0.62501 0.0
Zn101 Zn 0.88432 0.88027 0.63532 0.0
O102 O 0.88803 0.90682 0.65436 0.0
Zn103 Zn 0.88813 0.88173 0.66384 0.0
O104 O 0.91231 0.88349 0.67634 0.0
O105 O 0.9113 0.88236 0.6473 0.0
O106 O 0.88359 0.8554 0.64914 0.0
O107 O 0.88064 0.85711 0.62035 0.0
O108 O 0.86065 0.87862 0.64742 0.0
O109 O 0.86756 0.88092 0.67661 0.0
C110 C 0.92036 0.88344 0.66278 0.0
C111 C 0.85582 0.87891 0.66287 0.0
C112 C 0.39407 0.17836 0.15242 0.0
C113 C 0.4028 0.11571 0.14465 0.0
O114 O 0.40868 0.17206 0.15307 0.0
Zn115 Zn 0.39882 0.14705 0.14894 0.0
O116 O 0.37936 0.16765 0.14981 0.0
Zn117 Zn 0.37079 0.13935 0.1456 0.0
O118 O 0.35905 0.13528 0.16604 0.0
O119 O 0.38807 0.14318 0.17295 0.0
O120 O 0.38637 0.11785 0.14359 0.0
O121 O 0.41478 0.1293 0.14773 0.0
O122 O 0.38548 0.14343 0.12195 0.0
O123 O 0.35676 0.13565 0.12218 0.0
C124 C 0.37287 0.13861 0.17771 0.0
C125 C 0.36961 0.13908 0.11353 0.0
C126 C 0.91361 0.40112 0.13281 0.0
C127 C 0.84868 0.39218 0.12432 0.0
O128 O 0.90711 0.38466 0.13187 0.0
Zn129 Zn 0.88098 0.36897 0.12803 0.0
O130 O 0.90322 0.41273 0.13159 0.0
Zn131 Zn 0.88117 0.39665 0.12884 0.0
O132 O 0.88133 0.38725 0.1544 0.0
O133 O 0.88116 0.35821 0.14963 0.0
O134 O 0.85929 0.4067 0.1263 0.0
O135 O 0.85501 0.37745 0.1247 0.0
O136 O 0.88063 0.35375 0.10559 0.0
O137 O 0.88079 0.38205 0.10269 0.0
C138 C 0.88128 0.37231 0.16041 0.0
C139 C 0.88063 0.36588 0.09567 0.0
C140 C 0.61911 0.92444 0.14573 0.0
C141 C 0.62755 0.86245 0.14752 0.0
O142 O 0.63551 0.92259 0.14969 0.0
Zn143 Zn 0.65094 0.90139 0.1534 0.0
O144 O 0.60724 0.9108 0.14306 0.0
Zn145 Zn 0.6231 0.89339 0.14676 0.0
O146 O 0.6328 0.89918 0.17485 0.0
O147 O 0.66182 0.90745 0.17791 0.0
O148 O 0.61305 0.86858 0.1439 0.0
O149 O 0.64225 0.87318 0.1512 0.0
O150 O 0.66602 0.90294 0.13504 0.0
O151 O 0.63761 0.89441 0.12453 0.0
C152 C 0.64776 0.90436 0.18491 0.0
C153 C 0.65376 0.89826 0.12182 0.0
C154 C 0.16408 0.6434 0.12932 0.0
C155 C 0.10032 0.64635 0.12587 0.0
O156 O 0.15459 0.62802 0.12737 0.0
Zn157 Zn 0.12707 0.61699 0.12495 0.0
O158 O 0.15653 0.65728 0.13046 0.0
Zn159 Zn 0.13224 0.64531 0.1277 0.0
O160 O 0.13117 0.63457 0.15221 0.0
O161 O 0.12635 0.60527 0.14606 0.0
O162 O 0.11286 0.6593 0.12743 0.0
O163 O 0.10399 0.63038 0.12479 0.0
O164 O 0.12315 0.60291 0.10138 0.0
O165 O 0.12848 0.63183 0.10083 0.0
C166 C 0.12883 0.61929 0.15747 0.0
C167 C 0.1252 0.61585 0.09254 0.0
C168 C 0.40998 0.92674 0.89525 0.0
C169 C 0.40731 0.86208 0.89077 0.0
O170 O 0.42288 0.91807 0.89829 0.0
Zn171 Zn 0.40908 0.8945 0.89291 0.0
O172 O 0.39415 0.9183 0.8906 0.0
Zn173 Zn 0.38097 0.89124 0.88555 0.0
O174 O 0.36531 0.8907 0.90358 0.0
O175 O 0.39379 0.89385 0.91453 0.0
O176 O 0.392 0.86695 0.88709 0.0
O177 O 0.42107 0.8738 0.8946 0.0
O178 O 0.40016 0.89283 0.86491 0.0
O179 O 0.3708 0.88898 0.86075 0.0
C180 C 0.37741 0.89229 0.91693 0.0
C181 C 0.38538 0.89086 0.8544 0.0
C182 C 0.16278 0.36663 0.86956 0.0
C183 C 0.09819 0.36777 0.86356 0.0
O184 O 0.15081 0.35304 0.86741 0.0
Zn185 Zn 0.13041 0.36611 0.86648 0.0
O186 O 0.15823 0.38224 0.87079 0.0
Zn187 Zn 0.13488 0.39485 0.87006 0.0
O188 O 0.13757 0.40792 0.89411 0.0
O189 O 0.13292 0.37875 0.89326 0.0
O190 O 0.10762 0.38319 0.86609 0.0
O191 O 0.1059 0.35395 0.86261 0.0
O192 O 0.1326 0.37778 0.84279 0.0
O193 O 0.13669 0.40708 0.84934 0.0
C194 C 0.13553 0.39441 0.9022 0.0
C195 C 0.13514 0.39319 0.83785 0.0
C196 C 0.62384 0.16827 0.88302 0.0
C197 C 0.61627 0.10382 0.88331 0.0
O198 O 0.63867 0.16205 0.88436 0.0
Zn199 Zn 0.64767 0.13659 0.88454 0.0
O200 O 0.60935 0.15761 0.88107 0.0
Zn201 Zn 0.61957 0.13576 0.88203 0.0
O202 O 0.63341 0.13955 0.90892 0.0
O203 O 0.66211 0.13974 0.90784 0.0
O204 O 0.60403 0.11353 0.88156 0.0
O205 O 0.63258 0.11084 0.88436 0.0
O206 O 0.65886 0.13338 0.86311 0.0
O207 O 0.62972 0.13151 0.85718 0.0
C208 C 0.64938 0.1407 0.91695 0.0
C209 C 0.64483 0.13088 0.85174 0.0
C210 C 0.91832 0.65393 0.87842 0.0
C211 C 0.8533 0.64736 0.86607 0.0
O212 O 0.91095 0.63769 0.87391 0.0
Zn213 Zn 0.88465 0.62297 0.86624 0.0
O214 O 0.90863 0.66625 0.87923 0.0
Zn215 Zn 0.88591 0.651 0.87211 0.0
O216 O 0.88384 0.63656 0.89436 0.0
O217 O 0.88294 0.60801 0.88465 0.0
O218 O 0.86424 0.66165 0.87058 0.0
O219 O 0.85925 0.6324 0.86397 0.0
O220 O 0.88589 0.61195 0.8424 0.0
O221 O 0.88755 0.64117 0.84487 0.0
C222 C 0.88281 0.62037 0.89738 0.0
C223 C 0.88757 0.62612 0.83534 0.0
C224 C 0.16309 0.41068 0.12991 0.0
C225 C 0.10025 0.41888 0.12491 0.0
O226 O 0.15227 0.39616 0.12489 0.0
Zn227 Zn 0.12415 0.38757 0.11898 0.0
O228 O 0.15697 0.42529 0.13295 0.0
Zn229 Zn 0.13182 0.41554 0.12756 0.0
O230 O 0.12809 0.39978 0.1483 0.0
O231 O 0.11985 0.37167 0.13644 0.0
O232 O 0.1136 0.43089 0.13032 0.0
O233 O 0.10262 0.40277 0.12027 0.0
O234 O 0.12131 0.37825 0.0939 0.0
O235 O 0.12885 0.40744 0.09935 0.0
C236 C 0.12342 0.38351 0.15014 0.0
C237 C 0.12498 0.39302 0.08823 0.0
C238 C 0.16416 0.64108 0.87711 0.0
C239 C 0.10261 0.65001 0.88168 0.0
O240 O 0.15346 0.62636 0.87441 0.0
Zn241 Zn 0.12549 0.61787 0.87404 0.0
O242 O 0.15812 0.65563 0.8807 0.0
Zn243 Zn 0.13333 0.64583 0.87951 0.0
O244 O 0.13296 0.63241 0.90262 0.0
O245 O 0.12489 0.60371 0.89335 0.0
O246 O 0.11612 0.66195 0.88332 0.0
O247 O 0.1045 0.63355 0.87828 0.0
O248 O 0.1178 0.60626 0.84977 0.0
O249 O 0.12542 0.6353 0.85176 0.0
C250 C 0.12941 0.61648 0.90611 0.0
C251 C 0.11971 0.62013 0.84223 0.0
C252 C 0.40427 0.17689 0.90921 0.0
C253 C 0.40836 0.11337 0.89937 0.0
O254 O 0.4183 0.16959 0.91057 0.0
Zn255 Zn 0.40662 0.14526 0.90405 0.0
O256 O 0.38905 0.16719 0.90452 0.0
Zn257 Zn 0.37852 0.13948 0.89722 0.0
O258 O 0.36339 0.1356 0.91518 0.0
O259 O 0.392 0.14131 0.92586 0.0
O260 O 0.39228 0.11661 0.89644 0.0
O261 O 0.42099 0.12626 0.90394 0.0
O262 O 0.39692 0.1447 0.87637 0.0
O263 O 0.36765 0.13865 0.8728 0.0
C264 C 0.37574 0.13774 0.92837 0.0
C265 C 0.38189 0.14221 0.86622 0.0
C266 C 0.91262 0.3715 0.87637 0.0
C267 C 0.85057 0.38112 0.87747 0.0
O268 O 0.9017 0.35699 0.8745 0.0
Zn269 Zn 0.8737 0.3488 0.87372 0.0
O270 O 0.90679 0.38635 0.87863 0.0
Zn271 Zn 0.8818 0.37707 0.87752 0.0
O272 O 0.88105 0.36553 0.90157 0.0
O273 O 0.87267 0.33657 0.89457 0.0
O274 O 0.86402 0.39314 0.87899 0.0
O275 O 0.85276 0.36469 0.87566 0.0
O276 O 0.86657 0.33599 0.8495 0.0
O277 O 0.87497 0.3648 0.85045 0.0
C278 C 0.87738 0.3502 0.90641 0.0
C279 C 0.8693 0.34941 0.84141 0.0
C280 C 0.61809 0.92306 0.90438 0.0
C281 C 0.62586 0.86026 0.89999 0.0
O282 O 0.63444 0.92064 0.90516 0.0
Zn283 Zn 0.64964 0.89882 0.90438 0.0
O284 O 0.60603 0.90969 0.90296 0.0
Zn285 Zn 0.6216 0.89161 0.90222 0.0
O286 O 0.63586 0.89573 0.92881 0.0
O287 O 0.66437 0.90344 0.92737 0.0
O288 O 0.61134 0.86673 0.89915 0.0
O289 O 0.64065 0.87076 0.90185 0.0
O290 O 0.66081 0.90096 0.88328 0.0
O291 O 0.63156 0.89419 0.8776 0.0
C292 C 0.65198 0.90011 0.93659 0.0
C293 C 0.64658 0.89785 0.87215 0.0
C294 C 0.91332 0.64565 0.12089 0.0
C295 C 0.84864 0.64245 0.11226 0.0
O296 O 0.90526 0.62959 0.11847 0.0
Zn297 Zn 0.87837 0.61609 0.11386 0.0
O298 O 0.90424 0.65844 0.12094 0.0
Zn299 Zn 0.8809 0.64426 0.11656 0.0
O300 O 0.87888 0.63304 0.14081 0.0
O301 O 0.87706 0.60387 0.13432 0.0
O302 O 0.86022 0.65631 0.1145 0.0
O303 O 0.8537 0.62705 0.1118 0.0
O304 O 0.87698 0.60206 0.09072 0.0
O305 O 0.87961 0.63097 0.08988 0.0
C306 C 0.87742 0.61756 0.14572 0.0
C307 C 0.87811 0.61499 0.08181 0.0
C308 C 0.40965 0.93052 0.13435 0.0
C309 C 0.40544 0.86638 0.13606 0.0
O310 O 0.42235 0.92129 0.13506 0.0
Zn311 Zn 0.40795 0.89849 0.13492 0.0
O312 O 0.39365 0.92285 0.13384 0.0
Zn313 Zn 0.37984 0.89656 0.13386 0.0
O314 O 0.3693 0.89931 0.15556 0.0
O315 O 0.39864 0.90219 0.16021 0.0
O316 O 0.39026 0.87192 0.13506 0.0
O317 O 0.41941 0.87739 0.13628 0.0
O318 O 0.39298 0.89359 0.10861 0.0
O319 O 0.36448 0.89228 0.1112 0.0
C320 C 0.38379 0.90218 0.16631 0.0
C321 C 0.37664 0.89159 0.10138 0.0
C322 C 0.61992 0.1703 0.13433 0.0
C323 C 0.61421 0.10532 0.12602 0.0
O324 O 0.63503 0.16462 0.13621 0.0
Zn325 Zn 0.64489 0.13942 0.13496 0.0
O326 O 0.6057 0.15918 0.13054 0.0
Zn327 Zn 0.61674 0.13779 0.1296 0.0
O328 O 0.6274 0.1383 0.15702 0.0
O329 O 0.65658 0.13982 0.15912 0.0
O330 O 0.60176 0.11479 0.12447 0.0
O331 O 0.63042 0.11295 0.12964 0.0
O332 O 0.65902 0.14002 0.11567 0.0
O333 O 0.6303 0.13871 0.10666 0.0
C334 C 0.64258 0.13895 0.16653 0.0
C335 C 0.64631 0.13955 0.10312 0.0
C336 C 0.63442 0.67245 0.89259 0.0
C337 C 0.63549 0.60931 0.89645 0.0
O338 O 0.63285 0.66294 0.87725 0.0
Zn339 Zn 0.63228 0.63535 0.86659 0.0
O340 O 0.63642 0.66507 0.90655 0.0
Zn341 Zn 0.63524 0.64102 0.89472 0.0
O342 O 0.65979 0.64227 0.88369 0.0
O343 O 0.65308 0.63593 0.85451 0.0
O344 O 0.63661 0.62204 0.90911 0.0
O345 O 0.63385 0.6126 0.88033 0.0
O346 O 0.60883 0.62987 0.85252 0.0
O347 O 0.60819 0.63568 0.88138 0.0
C348 C 0.66477 0.64007 0.86827 0.0
C349 C 0.59993 0.63173 0.86541 0.0
C350 C 0.39434 0.67428 0.89511 0.0
C351 C 0.38577 0.61044 0.89868 0.0
O352 O 0.38959 0.66466 0.87984 0.0
Zn353 Zn 0.38295 0.63686 0.86914 0.0
O354 O 0.39596 0.66679 0.90903 0.0
Zn355 Zn 0.38962 0.64245 0.8973 0.0
O356 O 0.41157 0.63918 0.88284 0.0
O357 O 0.4013 0.63351 0.85414 0.0
O358 O 0.39002 0.6232 0.91148 0.0
O359 O 0.3828 0.6139 0.88269 0.0
O360 O 0.35833 0.63501 0.85829 0.0
O361 O 0.36181 0.64106 0.88756 0.0
C362 C 0.41437 0.63583 0.86666 0.0
C363 C 0.35161 0.63816 0.87252 0.0
C364 C 0.38756 0.424 0.90077 0.0
C365 C 0.39295 0.36127 0.90163 0.0
O366 O 0.38448 0.415 0.8851 0.0
Zn367 Zn 0.38362 0.38783 0.87327 0.0
O368 O 0.39131 0.41612 0.91409 0.0
Zn369 Zn 0.38988 0.3924 0.90133 0.0
O370 O 0.4124 0.39423 0.88693 0.0
O371 O 0.40207 0.3894 0.85823 0.0
O372 O 0.39454 0.37347 0.91488 0.0
O373 O 0.38892 0.36489 0.88581 0.0
O374 O 0.35916 0.38122 0.86206 0.0
O375 O 0.362 0.38481 0.89138 0.0
C376 C 0.41523 0.39268 0.87066 0.0
C377 C 0.35209 0.3809 0.87619 0.0
C378 C 0.63698 0.42362 0.89737 0.0
C379 C 0.63097 0.35844 0.89086 0.0
O380 O 0.63528 0.41611 0.88117 0.0
Zn381 Zn 0.6321 0.38985 0.86647 0.0
O382 O 0.63706 0.41404 0.90981 0.0
Zn383 Zn 0.63422 0.39111 0.8947 0.0
O384 O 0.65899 0.39207 0.8843 0.0
O385 O 0.65342 0.39071 0.85513 0.0
O386 O 0.63314 0.36928 0.90526 0.0
O387 O 0.6304 0.36451 0.87594 0.0
O388 O 0.60899 0.38841 0.85215 0.0
O389 O 0.60772 0.38946 0.8809 0.0
C390 C 0.66459 0.39189 0.86918 0.0
C391 C 0.59984 0.38859 0.86492 0.0
C392 C 0.63247 0.42454 0.14493 0.0
C393 C 0.62686 0.35974 0.14164 0.0
O394 O 0.63069 0.41638 0.12896 0.0
Zn395 Zn 0.62743 0.38955 0.11547 0.0
O396 O 0.63268 0.41559 0.15786 0.0
Zn397 Zn 0.62976 0.39222 0.14377 0.0
O398 O 0.65448 0.39249 0.13315 0.0
O399 O 0.64852 0.38942 0.10386 0.0
O400 O 0.62861 0.37117 0.15556 0.0
O401 O 0.6263 0.36499 0.12634 0.0
O402 O 0.60411 0.38732 0.10122 0.0
O403 O 0.60318 0.38996 0.1301 0.0
C404 C 0.65985 0.39131 0.11789 0.0
C405 C 0.59512 0.38821 0.1141 0.0
C406 C 0.63205 0.67409 0.13937 0.0
C407 C 0.63204 0.61061 0.14167 0.0
O408 O 0.63023 0.66492 0.12384 0.0
Zn409 Zn 0.62905 0.63747 0.11252 0.0
O410 O 0.63385 0.66629 0.15306 0.0
Zn411 Zn 0.63212 0.64239 0.14065 0.0
O412 O 0.65656 0.64317 0.12942 0.0
O413 O 0.64953 0.63823 0.10018 0.0
O414 O 0.63317 0.6231 0.15457 0.0
O415 O 0.63048 0.61424 0.12567 0.0
O416 O 0.60571 0.63249 0.09848 0.0
O417 O 0.60506 0.63762 0.12739 0.0
C418 C 0.66133 0.64144 0.11388 0.0
C419 C 0.59682 0.63409 0.11139 0.0
C420 C 0.39461 0.67909 0.146 0.0
C421 C 0.38694 0.61564 0.15182 0.0
O422 O 0.3891 0.66896 0.13112 0.0
Zn423 Zn 0.38234 0.64093 0.12143 0.0
O424 O 0.3973 0.67214 0.16018 0.0
Zn425 Zn 0.39048 0.64752 0.14936 0.0
O426 O 0.41142 0.64366 0.13371 0.0
O427 O 0.39961 0.63703 0.10543 0.0
O428 O 0.39174 0.62876 0.16418 0.0
O429 O 0.38309 0.61857 0.13574 0.0
O430 O 0.3575 0.63883 0.11165 0.0
O431 O 0.36243 0.64624 0.14084 0.0
C432 C 0.41325 0.63974 0.11731 0.0
C433 C 0.35159 0.64285 0.12621 0.0
C434 C 0.38919 0.42978 0.15408 0.0
C435 C 0.3841 0.36509 0.15197 0.0
O436 O 0.38482 0.42131 0.13823 0.0
Zn437 Zn 0.37979 0.39417 0.12524 0.0
O438 O 0.39186 0.42109 0.16703 0.0
Zn439 Zn 0.38658 0.39746 0.15328 0.0
O440 O 0.40863 0.39645 0.13844 0.0
O441 O 0.39804 0.39336 0.10989 0.0
O442 O 0.38792 0.37699 0.16558 0.0
O443 O 0.38069 0.36976 0.13651 0.0
O444 O 0.35526 0.39233 0.11447 0.0
O445 O 0.35854 0.39565 0.14381 0.0
C446 C 0.41124 0.39479 0.12212 0.0
C447 C 0.34843 0.3939 0.12879 0.0
C448 C 0.86774 0.65721 0.61674 0.0
C449 C 0.86629 0.59267 0.61629 0.0
O450 O 0.88306 0.65201 0.61773 0.0
Zn451 Zn 0.89454 0.62807 0.61839 0.0
O452 O 0.85388 0.64586 0.61603 0.0
Zn453 Zn 0.86593 0.62483 0.61643 0.0
O454 O 0.88003 0.62916 0.6428 0.0
O455 O 0.90894 0.63189 0.64183 0.0
O456 O 0.85284 0.60093 0.61541 0.0
O457 O 0.88189 0.60142 0.61724 0.0
O458 O 0.90548 0.62691 0.59679 0.0
O459 O 0.87611 0.62319 0.59164 0.0
C460 C 0.89606 0.63151 0.65085 0.0
C461 C 0.89113 0.62424 0.58581 0.0
C462 C 0.41466 0.86836 0.63233 0.0
C463 C 0.35123 0.8736 0.62773 0.0
O464 O 0.40163 0.85579 0.62854 0.0
Zn465 Zn 0.38277 0.87049 0.62966 0.0
O466 O 0.41161 0.8845 0.63529 0.0
Zn467 Zn 0.38927 0.89872 0.63596 0.0
O468 O 0.39258 0.91002 0.66058 0.0
O469 O 0.38579 0.88079 0.65741 0.0
O470 O 0.36133 0.88868 0.63142 0.0
O471 O 0.35812 0.85936 0.62551 0.0
O472 O 0.38489 0.88449 0.60721 0.0
O473 O 0.39176 0.91322 0.61715 0.0
C474 C 0.38939 0.89588 0.66748 0.0
C475 C 0.3884 0.90059 0.60416 0.0
C476 C 0.12346 0.40389 0.61534 0.0
C477 C 0.12482 0.33974 0.61326 0.0
O478 O 0.13911 0.39957 0.6181 0.0
Zn479 Zn 0.15183 0.37642 0.6198 0.0
O480 O 0.10992 0.39182 0.61259 0.0
Zn481 Zn 0.12309 0.37184 0.61466 0.0
O482 O 0.13422 0.37735 0.64205 0.0
O483 O 0.16355 0.38081 0.64452 0.0
O484 O 0.11101 0.34739 0.61153 0.0
O485 O 0.14024 0.34919 0.61643 0.0
O486 O 0.16526 0.37698 0.59969 0.0
O487 O 0.13613 0.37198 0.59173 0.0
C488 C 0.14948 0.38067 0.65179 0.0
C489 C 0.15184 0.37407 0.58749 0.0
C490 C 0.66834 0.13129 0.62811 0.0
C491 C 0.60434 0.12541 0.63091 0.0
O492 O 0.66091 0.11527 0.62795 0.0
Zn493 Zn 0.63531 0.10087 0.62865 0.0
O494 O 0.65908 0.14397 0.62937 0.0
Zn495 Zn 0.63649 0.12926 0.62986 0.0
O496 O 0.64085 0.12015 0.65509 0.0
O497 O 0.63872 0.09087 0.65098 0.0
O498 O 0.61483 0.1398 0.63129 0.0
O499 O 0.6105 0.11055 0.62984 0.0
O500 O 0.63141 0.0859 0.6054 0.0
O501 O 0.63166 0.1145 0.60361 0.0
C502 C 0.64132 0.10552 0.66152 0.0
C503 C 0.63021 0.09838 0.59596 0.0
C504 C 0.90932 0.41291 0.38759 0.0
C505 C 0.90646 0.3492 0.39005 0.0
O506 O 0.92198 0.40418 0.39144 0.0
Zn507 Zn 0.90788 0.38094 0.38837 0.0
O508 O 0.89333 0.40467 0.38377 0.0
Zn509 Zn 0.88002 0.37765 0.38142 0.0
O510 O 0.86449 0.37896 0.39953 0.0
O511 O 0.89294 0.38253 0.41057 0.0
O512 O 0.89104 0.35361 0.38568 0.0
O513 O 0.92014 0.361 0.39247 0.0
O514 O 0.89859 0.37602 0.35999 0.0
O515 O 0.8693 0.373 0.3567 0.0
C516 C 0.87656 0.38136 0.41298 0.0
C517 C 0.88355 0.37336 0.34977 0.0
C518 C 0.6751 0.87479 0.40589 0.0
C519 C 0.61046 0.87375 0.39689 0.0
O520 O 0.66304 0.86131 0.4032 0.0
Zn521 Zn 0.64272 0.87403 0.40106 0.0
O522 O 0.67062 0.89043 0.40641 0.0
Zn523 Zn 0.64647 0.9022 0.40407 0.0
O524 O 0.648 0.91628 0.42714 0.0
O525 O 0.64374 0.88732 0.42778 0.0
O526 O 0.61909 0.8896 0.39942 0.0
O527 O 0.61901 0.86055 0.39661 0.0
O528 O 0.64456 0.88529 0.37678 0.0
O529 O 0.64838 0.91452 0.3838 0.0
C530 C 0.64577 0.90334 0.43591 0.0
C531 C 0.64673 0.90086 0.37208 0.0
C532 C 0.14257 0.66183 0.38957 0.0
C533 C 0.14941 0.59863 0.38241 0.0
O534 O 0.15676 0.65489 0.39173 0.0
Zn535 Zn 0.14609 0.63014 0.38541 0.0
O536 O 0.1277 0.65169 0.38406 0.0
Zn537 Zn 0.11857 0.62353 0.37664 0.0
O538 O 0.10178 0.61931 0.39299 0.0
O539 O 0.12964 0.62608 0.40606 0.0
O540 O 0.13325 0.60109 0.3779 0.0
O541 O 0.16133 0.61204 0.38781 0.0
O542 O 0.1386 0.62714 0.35688 0.0
O543 O 0.10933 0.6213 0.35163 0.0
C544 C 0.11304 0.62203 0.40711 0.0
C545 C 0.12412 0.62378 0.3458 0.0
C546 C 0.43122 0.16691 0.39862 0.0
C547 C 0.3677 0.16702 0.40341 0.0
O548 O 0.42228 0.15137 0.39756 0.0
Zn549 Zn 0.39564 0.13936 0.39813 0.0
O550 O 0.42333 0.18055 0.40067 0.0
Zn551 Zn 0.39945 0.16798 0.4007 0.0
O552 O 0.40219 0.15716 0.42517 0.0
O553 O 0.3979 0.1278 0.41934 0.0
O554 O 0.37905 0.18072 0.40334 0.0
O555 O 0.37251 0.15154 0.40144 0.0
O556 O 0.38908 0.12543 0.37456 0.0
O557 O 0.39265 0.15442 0.37403 0.0
C558 C 0.40116 0.14195 0.43064 0.0
C559 C 0.389 0.13846 0.36574 0.0
C560 C 0.66687 0.8751 0.65063 0.0
C561 C 0.60195 0.87006 0.64387 0.0
O562 O 0.65569 0.86093 0.64636 0.0
Zn563 Zn 0.63444 0.87221 0.64649 0.0
O564 O 0.66127 0.89021 0.65289 0.0
Zn565 Zn 0.6363 0.9004 0.65201 0.0
O566 O 0.63797 0.91231 0.67608 0.0
O567 O 0.63678 0.88311 0.67414 0.0
O568 O 0.60972 0.88623 0.64747 0.0
O569 O 0.61128 0.85752 0.64204 0.0
O570 O 0.63462 0.88578 0.62364 0.0
O571 O 0.63675 0.91458 0.63282 0.0
C572 C 0.63809 0.89842 0.68363 0.0
C573 C 0.63559 0.90182 0.62018 0.0
C574 C 0.67624 0.1413 0.38912 0.0
C575 C 0.61388 0.1497 0.38977 0.0
O576 O 0.66545 0.12666 0.38501 0.0
Zn577 Zn 0.63722 0.11799 0.38215 0.0
O578 O 0.67018 0.1557 0.39349 0.0
Zn579 Zn 0.64519 0.14567 0.39028 0.0
O580 O 0.64326 0.13009 0.41178 0.0
O581 O 0.63488 0.10208 0.39976 0.0
O582 O 0.62761 0.16145 0.39373 0.0
O583 O 0.61577 0.13337 0.3853 0.0
O584 O 0.63238 0.10812 0.35713 0.0
O585 O 0.64024 0.13727 0.36192 0.0
C586 C 0.6391 0.11369 0.41357 0.0
C587 C 0.63567 0.12273 0.35106 0.0
C588 C 0.90528 0.65823 0.36478 0.0
C589 C 0.91286 0.59588 0.36843 0.0
O590 O 0.91999 0.6521 0.36682 0.0
Zn591 Zn 0.91009 0.62731 0.36716 0.0
O592 O 0.89068 0.64774 0.3641 0.0
Zn593 Zn 0.88169 0.6204 0.36497 0.0
O594 O 0.87072 0.62096 0.38656 0.0
O595 O 0.89988 0.62842 0.39186 0.0
O596 O 0.89665 0.59878 0.3668 0.0
O597 O 0.92532 0.60881 0.36926 0.0
O598 O 0.89619 0.61954 0.34066 0.0
O599 O 0.86736 0.6135 0.34171 0.0
C600 C 0.88492 0.62566 0.39762 0.0
C601 C 0.88021 0.61469 0.33268 0.0
C602 C 0.42238 0.87433 0.38723 0.0
C603 C 0.35818 0.87609 0.37756 0.0
O604 O 0.4099 0.86122 0.38446 0.0
Zn605 Zn 0.39005 0.87476 0.38335 0.0
O606 O 0.41848 0.89022 0.38837 0.0
Zn607 Zn 0.39516 0.90309 0.38674 0.0
O608 O 0.39676 0.91652 0.41026 0.0
O609 O 0.39138 0.88752 0.41017 0.0
O610 O 0.36757 0.89158 0.38053 0.0
O611 O 0.36581 0.86233 0.37841 0.0
O612 O 0.39189 0.8865 0.3594 0.0
O613 O 0.39765 0.91574 0.36665 0.0
C614 C 0.39395 0.9034 0.41869 0.0
C615 C 0.39466 0.90206 0.35478 0.0
C616 C 0.16648 0.41345 0.37053 0.0
C617 C 0.16578 0.34844 0.36215 0.0
O618 O 0.17975 0.40528 0.36861 0.0
Zn619 Zn 0.16716 0.38105 0.36651 0.0
O620 O 0.15112 0.40444 0.37032 0.0
Zn621 Zn 0.139 0.37728 0.36743 0.0
O622 O 0.13048 0.3759 0.39011 0.0
O623 O 0.15979 0.38002 0.39248 0.0
O624 O 0.15063 0.35343 0.36367 0.0
O625 O 0.1794 0.36015 0.36309 0.0
O626 O 0.15055 0.37845 0.34144 0.0
O627 O 0.12236 0.37468 0.34546 0.0
C628 C 0.14562 0.37798 0.39976 0.0
C629 C 0.13399 0.37601 0.33502 0.0
C630 C 0.41942 0.12221 0.64923 0.0
C631 C 0.35457 0.11919 0.6436 0.0
O632 O 0.40813 0.10813 0.64732 0.0
Zn633 Zn 0.38691 0.11973 0.64667 0.0
O634 O 0.41401 0.13744 0.65021 0.0
Zn635 Zn 0.38968 0.14836 0.64916 0.0
O636 O 0.39144 0.16215 0.67273 0.0
O637 O 0.38921 0.13316 0.67315 0.0
O638 O 0.36305 0.13501 0.64541 0.0
O639 O 0.36318 0.106 0.64362 0.0
O640 O 0.38706 0.13053 0.62228 0.0
O641 O 0.39019 0.15986 0.62789 0.0
C642 C 0.39069 0.14903 0.68145 0.0
C643 C 0.38847 0.1457 0.61674 0.0
C644 C 0.87225 0.40898 0.63462 0.0
C645 C 0.88588 0.34801 0.63328 0.0
O646 O 0.88745 0.40408 0.63787 0.0
Zn647 Zn 0.87963 0.37866 0.6338 0.0
O648 O 0.85835 0.39717 0.63049 0.0
Zn649 Zn 0.85201 0.36859 0.62643 0.0
O650 O 0.83729 0.36379 0.6448 0.0
O651 O 0.86524 0.37461 0.65555 0.0
O652 O 0.86929 0.34883 0.62903 0.0
O653 O 0.89692 0.36232 0.63687 0.0
O654 O 0.87051 0.3741 0.60568 0.0
O655 O 0.84185 0.36371 0.60134 0.0
C656 C 0.84947 0.3687 0.6581 0.0
C657 C 0.85598 0.36859 0.59501 0.0
C658 C 0.1226 0.65648 0.62556 0.0
C659 C 0.11901 0.59176 0.6212 0.0
O660 O 0.13559 0.64761 0.62596 0.0
Zn661 Zn 0.12165 0.6242 0.62369 0.0
O662 O 0.10666 0.64832 0.62397 0.0
Zn663 Zn 0.09306 0.62171 0.62109 0.0
O664 O 0.08165 0.62167 0.64255 0.0
O665 O 0.11095 0.62469 0.64813 0.0
O666 O 0.10384 0.59727 0.62023 0.0
O667 O 0.13315 0.60298 0.62325 0.0
O668 O 0.10826 0.6212 0.59714 0.0
O669 O 0.07928 0.61912 0.59724 0.0
C670 C 0.09582 0.62351 0.65372 0.0
C671 C 0.09248 0.61943 0.58862 0.0
H672 H 0.1525 0.94262 0.42333 0.0
H673 H 0.15272 0.97451 0.42122 0.0
H674 H 0.14832 0.96308 0.36409 0.0
H675 H 0.14788 0.93157 0.36599 0.0
H676 H 0.17564 0.99856 0.40594 0.0
H677 H 0.10658 0.9903 0.37081 0.0
H678 H 0.1152 0.97314 0.38204 0.0
H679 H 0.12018 0.97604 0.36014 0.0
C680 C 0.15162 0.94694 0.41034 0.0
C681 C 0.14997 0.93446 0.39484 0.0
C682 C 0.15173 0.96515 0.40915 0.0
C683 C 0.15012 0.97114 0.39245 0.0
C684 C 0.14909 0.95876 0.37708 0.0
H685 H 0.14775 0.07126 0.34991 0.0
H686 H 0.14869 0.04013 0.35436 0.0
C687 C 0.14894 0.94069 0.37823 0.0
C688 C 0.14958 0.99026 0.39081 0.0
H689 H 0.12455 0.01813 0.37074 0.0
C690 C 0.1644 1.00289 0.39841 0.0
C691 C 0.13493 0.9959 0.38091 0.0
C692 C 0.11825 0.98317 0.37315 0.0
C693 C 0.16517 0.02088 0.39592 0.0
C694 C 0.15064 0.02643 0.38577 0.0
C695 C 0.13575 0.01385 0.37837 0.0
C696 C 0.15043 0.04533 0.38304 0.0
C697 C 0.18174 0.03371 0.40379 0.0
C698 C 0.15087 0.05855 0.39762 0.0
C699 C 0.15028 0.07626 0.39512 0.0
C700 C 0.14918 0.08122 0.37794 0.0
C701 C 0.14866 0.06794 0.3633 0.0
C702 C 0.14918 0.05015 0.36583 0.0
H703 H 0.19326 0.02666 0.40721 0.0
H704 H 0.18532 0.04309 0.39443 0.0
H705 H 0.17928 0.04162 0.41619 0.0
H706 H 0.15146 0.05512 0.41097 0.0
H707 H 0.15065 0.08607 0.40672 0.0
H708 H 0.09318 0.14316 0.4144 0.0
H709 H 0.06073 0.14233 0.41022 0.0
H710 H 0.05836 0.12388 0.35424 0.0
H711 H 0.0905 0.12438 0.35828 0.0
H712 H 0.04039 0.16103 0.38832 0.0
H713 H 0.02043 0.08823 0.36826 0.0
H714 H 0.04268 0.09784 0.37855 0.0
H715 H 0.03582 0.09819 0.35525 0.0
C716 C 0.08572 0.13875 0.40124 0.0
C717 C 0.09448 0.13376 0.38672 0.0
C718 C 0.06719 0.13832 0.39886 0.0
C719 C 0.05707 0.13279 0.38195 0.0
C720 C 0.06579 0.12781 0.36747 0.0
H721 H 0.94215 0.12569 0.34452 0.0
H722 H 0.97452 0.12671 0.34499 0.0
C723 C 0.08424 0.12821 0.36982 0.0
C724 C 0.0375 0.13287 0.37926 0.0
H725 H 0.99752 0.10627 0.36512 0.0
C726 C 0.03103 0.14905 0.38329 0.0
C727 C 0.02527 0.11725 0.3725 0.0
C728 C 0.03135 0.09936 0.36853 0.0
C729 C 0.0127 0.15004 0.38078 0.0
C730 C 1.00048 0.1344 0.37428 0.0
C731 C 1.00692 0.11827 0.36995 0.0
C732 C 0.98098 0.13423 0.37354 0.0
C733 C 1.00655 0.16785 0.38508 0.0
C734 C 0.97394 0.13794 0.38938 0.0
C735 C 0.95564 0.1373 0.38916 0.0
C736 C 0.94383 0.13287 0.37307 0.0
C737 C 0.95087 0.12922 0.35711 0.0
C738 C 0.96933 0.12976 0.35737 0.0
H739 H 0.01728 0.17905 0.38494 0.0
H740 H 0.99482 0.16923 0.37548 0.0
H741 H 1.00263 0.16898 0.3986 0.0
H742 H 0.98262 0.14111 0.40203 0.0
H743 H 0.95077 0.14021 0.40174 0.0
H744 H 0.87967 0.92779 0.35092 0.0
H745 H 0.87927 0.96008 0.35333 0.0
H746 H 0.89395 0.96524 0.41023 0.0
H747 H 0.89416 0.9333 0.40804 0.0
H748 H 0.86622 0.98365 0.4005 0.0
H749 H 0.92277 0.99911 0.36334 0.0
H750 H 0.90501 0.98254 0.35158 0.0
H751 H 0.91807 0.97801 0.37127 0.0
C752 C 0.88285 0.93583 0.36392 0.0
C753 C 0.887 0.92792 0.37926 0.0
C754 C 0.88269 0.95428 0.36528 0.0
C755 C 0.88679 0.96509 0.38196 0.0
C756 C 0.89078 0.95718 0.39723 0.0
H757 H 0.89668 0.07875 0.42266 0.0
H758 H 0.89513 0.0462 0.42003 0.0
C759 C 0.89092 0.93886 0.39591 0.0
C760 C 0.88683 0.98466 0.38378 0.0
H761 H 0.90773 0.02297 0.37266 0.0
C762 C 0.87529 0.99227 0.39441 0.0
C763 C 0.89875 0.99587 0.37592 0.0
C764 C 0.91198 0.98855 0.36501 0.0
C765 C 0.87517 0.01076 0.3972 0.0
C766 C 0.88711 0.02196 0.38937 0.0
C767 C 0.89862 0.01435 0.3787 0.0
C768 C 0.88745 0.04157 0.39141 0.0
C769 C 0.86202 0.01812 0.40818 0.0
C770 C 0.88381 0.04974 0.37625 0.0
C771 C 0.88478 0.06819 0.3777 0.0
C772 C 0.88948 0.079 0.39438 0.0
C773 C 0.89293 0.07081 0.40965 0.0
C774 C 0.89199 0.05222 0.40816 0.0
H775 H 0.85115 1.0076 0.40977 0.0
H776 H 0.86902 0.02399 0.42163 0.0
H777 H 0.85603 0.02877 0.40201 0.0
H778 H 0.88029 0.0418 0.36321 0.0
H779 H 0.88196 0.07397 0.36563 0.0
H780 H 0.94172 0.88723 0.36933 0.0
H781 H 0.97279 0.88627 0.36621 0.0
H782 H 0.98396 0.87862 0.42116 0.0
H783 H 0.95247 0.87918 0.42436 0.0
H784 H 1.00362 0.90665 0.38312 0.0
H785 H 1.00221 0.83632 0.39487 0.0
H786 H 0.98223 0.84636 0.39107 0.0
H787 H 0.99585 0.85088 0.41251 0.0
C788 C 0.95073 0.8854 0.38085 0.0
C789 C 0.94453 0.88308 0.39708 0.0
C790 C 0.96854 0.8849 0.37901 0.0
C791 C 0.98063 0.88203 0.39332 0.0
C792 C 0.97474 0.88045 0.40981 0.0
H793 H 0.0922 0.87344 0.40542 0.0
H794 H 0.06112 0.87457 0.40852 0.0
C795 C 0.9568 0.88094 0.41168 0.0
C796 C 0.99926 0.88042 0.39062 0.0
H797 H 0.02994 0.85166 0.39089 0.0
C798 C 1.00937 0.89462 0.38479 0.0
C799 C 1.00668 0.86464 0.39263 0.0
C800 C 0.99617 0.8486 0.39796 0.0
C801 C 0.0268 0.89359 0.38124 0.0
C802 C 0.03423 0.87786 0.38336 0.0
C803 C 0.02414 0.86366 0.38918 0.0
C804 C 0.05288 0.87633 0.3808 0.0
C805 C 0.0373 0.90948 0.37565 0.0
C806 C 0.05852 0.87657 0.36403 0.0
C807 C 0.07644 0.87586 0.36215 0.0
C808 C 0.08892 0.87499 0.37705 0.0
C809 C 0.08301 0.87426 0.39367 0.0
C810 C 0.06521 0.87486 0.3955 0.0
H811 H 0.03088 0.92166 0.37783 0.0
H812 H 0.05101 0.91219 0.38311 0.0
H813 H 0.03833 0.90662 0.36127 0.0
H814 H 0.04912 0.87744 0.35246 0.0
H815 H 0.08057 0.87642 0.34919 0.0
H816 H 0.12037 0.91407 0.5747 0.0
H817 H 0.12183 0.94401 0.56618 0.0
H818 H 0.13969 0.96695 0.62093 0.0
H819 H 0.13844 0.93726 0.62954 0.0
H820 H 0.10386 0.97216 0.57825 0.0
H821 H 0.17685 0.99142 0.59446 0.0
H822 H 0.16628 0.96857 0.59194 0.0
H823 H 0.1672 0.98315 0.61254 0.0
C824 C 0.12468 0.92549 0.58492 0.0
C825 C 0.12938 0.92325 0.6028 0.0
C826 C 0.1255 0.94258 0.58001 0.0
C827 C 0.13119 0.95768 0.59287 0.0
C828 C 0.13566 0.95547 0.61073 0.0
H829 H 0.13325 0.06633 0.61742 0.0
H830 H 0.13297 0.03429 0.6137 0.0
C831 C 0.13483 0.93846 0.61564 0.0
C832 C 0.13194 0.97586 0.58794 0.0
H833 H 0.15944 0.01549 0.59296 0.0
C834 C 0.11608 0.98155 0.58104 0.0
C835 C 0.14793 0.98804 0.59146 0.0
C836 C 0.16556 0.98244 0.59784 0.0
C837 C 0.11558 0.99945 0.57882 0.0
C838 C 0.13133 0.01182 0.58353 0.0
C839 C 0.14737 1.00592 0.58939 0.0
C840 C 0.13099 0.03122 0.58503 0.0
C841 C 0.09808 1.00533 0.57254 0.0
C842 C 0.12994 0.04011 0.57004 0.0
C843 C 0.13015 0.05864 0.5721 0.0
C844 C 0.13138 0.06843 0.58918 0.0
C845 C 0.13227 0.0593 0.60406 0.0
C846 C 0.13214 0.04094 0.60199 0.0
H847 H 0.08698 0.99405 0.56942 0.0
H848 H 0.09482 0.01538 0.58296 0.0
H849 H 0.09918 0.01177 0.56043 0.0
H850 H 0.12912 0.03275 0.55684 0.0
H851 H 0.12945 0.06527 0.56039 0.0
H852 H 0.93179 0.12397 0.58753 0.0
H853 H 0.96295 0.12044 0.58521 0.0
H854 H 0.97481 0.1265 0.64243 0.0
H855 H 0.94409 0.12989 0.64492 0.0
H856 H 0.99441 0.14493 0.60087 0.0
H857 H 0.99347 0.07995 0.6259 0.0
H858 H 0.9734 0.08836 0.6179 0.0
H859 H 0.98486 0.09634 0.64002 0.0
C860 C 0.94105 0.12449 0.59958 0.0
C861 C 0.93541 0.12711 0.61639 0.0
C862 C 0.9588 0.12246 0.59824 0.0
C863 C 0.97104 0.12287 0.61366 0.0
C864 C 0.96547 0.12574 0.63037 0.0
H865 H 0.08325 0.12254 0.64513 0.0
H866 H 0.05109 0.12294 0.6436 0.0
C867 C 0.94788 0.12778 0.63174 0.0
C868 C 0.98985 0.12093 0.6126 0.0
H869 H 0.02213 0.09633 0.6255 0.0
C870 C 1.00046 0.13418 0.606 0.0
C871 C 0.99766 0.10695 0.61946 0.0
C872 C 0.98673 0.09199 0.62607 0.0
C873 C 0.01886 0.13417 0.60666 0.0
C874 C 0.02672 0.12038 0.61385 0.0
C875 C 0.01605 0.10694 0.62013 0.0
C876 C 0.046 0.11961 0.61482 0.0
C877 C 0.02983 0.14921 0.6002 0.0
C878 C 0.05362 0.11722 0.59915 0.0
C879 C 0.07188 0.11697 0.59998 0.0
C880 C 0.08289 0.11903 0.61651 0.0
C881 C 0.07515 0.12097 0.63222 0.0
C882 C 0.05681 0.1212 0.63136 0.0
H883 H 0.02256 0.16078 0.59903 0.0
H884 H 0.04253 0.15373 0.60933 0.0
H885 H 0.03311 0.14448 0.58686 0.0
H886 H 0.04544 0.11561 0.58627 0.0
H887 H 0.07736 0.11532 0.58759 0.0
H888 H 0.87337 0.07477 0.617 0.0
H889 H 0.87324 0.04294 0.61709 0.0
H890 H 0.89083 0.05224 0.6737 0.0
H891 H 0.89091 0.08437 0.67379 0.0
H892 H 0.903 0.02678 0.62749 0.0
H893 H 0.84884 0.01135 0.66759 0.0
H894 H 0.85169 0.03157 0.65773 0.0
H895 H 0.86595 0.02941 0.67762 0.0
C896 C 0.87704 0.07011 0.62957 0.0
C897 C 0.88218 0.08219 0.64542 0.0
C898 C 0.87697 0.05187 0.62956 0.0
C899 C 0.88194 0.04518 0.64538 0.0
C900 C 0.8867 0.05709 0.66135 0.0
H901 H 0.89357 0.93889 0.66844 0.0
H902 H 0.893 0.97076 0.66939 0.0
C903 C 0.88677 0.07545 0.66139 0.0
C904 C 0.88292 0.02585 0.64481 0.0
H905 H 0.86501 0.98804 0.65929 0.0
C906 C 0.89468 0.01828 0.63442 0.0
C907 C 0.87207 0.01481 0.65387 0.0
C908 C 0.8588 0.0221 0.66473 0.0
C909 C 0.89603 1.00003 0.63301 0.0
C910 C 0.88507 0.98894 0.64194 0.0
C911 C 0.87337 0.99653 0.6524 0.0
C912 C 0.88579 0.96951 0.64097 0.0
C913 C 0.90949 0.99287 0.62229 0.0
C914 C 0.8819 0.9581 0.62462 0.0
C915 C 0.8823 0.93976 0.62399 0.0
C916 C 0.88643 0.93247 0.63973 0.0
C917 C 0.89033 0.94398 0.65604 0.0
C918 C 0.88998 0.96225 0.65664 0.0
H919 H 0.9199 1.00365 0.62028 0.0
H920 H 0.91605 0.98281 0.6289 0.0
H921 H 0.90261 0.98637 0.60899 0.0
H922 H 0.87829 0.96334 0.61238 0.0
H923 H 0.87911 0.93127 0.61124 0.0
H924 H 0.09404 0.88746 0.67801 0.0
H925 H 0.06416 0.88933 0.68589 0.0
H926 H 0.04222 0.87973 0.63025 0.0
H927 H 0.07186 0.8778 0.62223 0.0
H928 H 0.03236 0.91082 0.6526 0.0
H929 H 0.02147 0.84674 0.67989 0.0
H930 H 0.04217 0.86136 0.68732 0.0
H931 H 0.03735 0.85054 0.66472 0.0
C932 C 0.08284 0.88568 0.66745 0.0
C933 C 0.08536 0.88246 0.64948 0.0
C934 C 0.06579 0.88669 0.67199 0.0
C935 C 0.051 0.88455 0.65865 0.0
C936 C 0.05348 0.88137 0.64074 0.0
H937 H 0.94043 0.88379 0.63591 0.0
H938 H 0.97252 0.88548 0.63775 0.0
C939 C 0.07044 0.88025 0.6362 0.0
C940 C 0.03291 0.88606 0.66308 0.0
H941 H 0.99759 0.86328 0.67775 0.0
C942 C 0.02481 0.90054 0.6583 0.0
C943 C 0.0232 0.87273 0.6707 0.0
C944 C 0.03136 0.85687 0.67593 0.0
C945 C 1.00704 0.90177 0.66037 0.0
C946 C 0.99697 0.88791 0.66701 0.0
C947 C 1.00532 0.87385 0.67262 0.0
C948 C 0.9774 0.8869 0.66639 0.0
C949 C 0.99912 0.91776 0.65514 0.0
C950 C 0.96933 0.88661 0.68188 0.0
C951 C 0.95077 0.88554 0.68089 0.0
C952 C 0.94002 0.88459 0.66435 0.0
C953 C 0.94823 0.88464 0.6489 0.0
C954 C 0.96665 0.88571 0.64992 0.0
H955 H 1.00956 0.92947 0.65602 0.0
H956 H 0.99246 0.91462 0.64114 0.0
H957 H 0.98909 0.92141 0.66372 0.0
H958 H 0.9774 0.88734 0.69472 0.0
H959 H 0.94487 0.88545 0.69302 0.0
H960 H 0.39474 0.14365 0.09169 0.0
H961 H 0.39039 0.14105 0.05934 0.0
H962 H 0.33367 0.12888 0.0581 0.0
H963 H 0.33786 0.13149 0.09076 0.0
H964 H 0.37239 0.10952 0.03485 0.0
H965 H 0.34122 0.17073 0.02759 0.0
H966 H 0.35414 0.16787 0.04822 0.0
H967 H 0.33229 0.15551 0.04148 0.0
C968 C 0.3813 0.14049 0.08463 0.0
C969 C 0.36664 0.1378 0.09386 0.0
C970 C 0.37886 0.13898 0.06611 0.0
C971 C 0.36173 0.13488 0.05636 0.0
C972 C 0.34699 0.13224 0.06543 0.0
H973 H 0.34296 0.13213 0.93957 0.0
H974 H 0.33688 0.12953 0.96998 0.0
C975 C 0.34942 0.13368 0.08406 0.0
C976 C 0.35966 0.13307 0.03669 0.0
H977 H 0.34825 0.15493 1.00164 0.0
C978 C 0.36687 0.11929 0.02753 0.0
C979 C 0.35234 0.14576 0.0272 0.0
C980 C 0.34459 0.16089 0.03653 0.0
C981 C 0.3676 0.11826 0.00922 0.0
C982 C 0.36126 0.13156 0.99991 0.0
C983 C 0.35316 0.1448 0.00885 0.0
C984 C 0.36462 0.13294 0.98145 0.0
C985 C 0.37552 0.10314 1.00007 0.0
C986 C 0.3822 0.136 0.97793 0.0
C987 C 0.38571 0.13752 0.96071 0.0
C988 C 0.3717 0.1361 0.94658 0.0
C989 C 0.35405 0.13321 0.95014 0.0
C990 C 0.35054 0.13173 0.96748 0.0
H991 H 0.37456 0.09144 1.00734 0.0
H992 H 0.36878 0.09892 0.98617 0.0
H993 H 0.38982 0.10759 0.99969 0.0
H994 H 0.39326 0.13734 0.98858 0.0
H995 H 0.39946 0.13984 0.95851 0.0
H996 H 0.871 0.32017 0.92256 0.0
H997 H 0.87221 0.31876 0.95458 0.0
H998 H 0.88668 0.3758 0.96579 0.0
H999 H 0.88584 0.3773 0.93413 0.0
H1000 H 0.90748 0.35846 0.98761 0.0
H1001 H 0.8358 0.33322 0.9862 0.0
H1002 H 0.8475 0.31992 0.97193 0.0
H1003 H 0.84423 0.34188 0.96754 0.0
C1004 C 0.87444 0.3324 0.93186 0.0
C1005 C 0.87827 0.34885 0.92572 0.0
C1006 C 0.87501 0.33158 0.95016 0.0
C1007 C 0.8793 0.34721 0.96261 0.0
C1008 C 0.88331 0.36356 0.95647 0.0
H1009 H 0.88453 0.38932 0.07187 0.0
H1010 H 0.88477 0.38274 0.03987 0.0
C1011 C 0.88279 0.36439 0.9383 0.0
C1012 C 0.87986 0.34685 0.98209 0.0
H1013 H 0.85386 0.33859 0.01419 0.0
C1014 C 0.89578 0.35398 0.99339 0.0
C1015 C 0.86462 0.34094 0.98967 0.0
C1016 C 0.84701 0.33368 0.97827 0.0
C1017 C 0.89675 0.35577 0.01199 0.0
C1018 C 0.88136 0.35045 0.01957 0.0
C1019 C 0.86563 0.34266 0.00833 0.0
C1020 C 0.88107 0.35414 0.03906 0.0
C1021 C 0.91419 0.36356 0.02344 0.0
C1022 C 0.87859 0.34021 0.04922 0.0
C1023 C 0.8785 0.34393 0.06765 0.0
C1024 C 0.88065 0.36165 0.07616 0.0
C1025 C 0.88287 0.37552 0.06582 0.0
C1026 C 0.88309 0.37179 0.0475 0.0
H1027 H 0.92562 0.36265 0.01592 0.0
H1028 H 0.91393 0.37784 0.02814 0.0
H1029 H 0.91637 0.35669 0.03531 0.0
H1030 H 0.87691 0.32648 0.04293 0.0
H1031 H 0.87669 0.33293 0.07519 0.0
H1032 H 0.68418 0.90999 0.95829 0.0
H1033 H 0.69032 0.90932 0.9905 0.0
H1034 H 0.63492 0.89036 0.99098 0.0
H1035 H 0.62864 0.89099 0.95909 0.0
H1036 H 0.67299 0.92721 0.01885 0.0
H1037 H 0.66295 0.85366 0.01426 0.0
H1038 H 0.66765 0.865 0.99568 0.0
H1039 H 0.64551 0.86219 1.00141 0.0
C1040 C 0.67332 0.90571 0.96528 0.0
C1041 C 0.65593 0.90048 0.9561 0.0
C1042 C 0.67686 0.90533 0.98365 0.0
C1043 C 0.66312 0.89952 0.99299 0.0
C1044 C 0.64576 0.8946 0.98392 0.0
H1045 H 0.63058 0.88726 0.09123 0.0
H1046 H 0.63636 0.8876 0.0607 0.0
C1047 C 0.64219 0.89506 0.96568 0.0
C1048 C 0.66653 0.89875 0.01232 0.0
H1049 H 0.66101 0.87013 0.04259 0.0
C1050 C 0.67079 0.91474 0.02414 0.0
C1051 C 0.66368 0.88242 0.01907 0.0
C1052 C 0.65986 0.86481 1.00696 0.0
C1053 C 0.67102 0.91492 0.04256 0.0
C1054 C 0.66715 0.89864 0.04921 0.0
C1055 C 0.66392 0.88259 0.03744 0.0
C1056 C 0.66431 0.89808 0.06792 0.0
C1057 C 0.67429 0.93255 0.05463 0.0
C1058 C 0.6782 0.90366 0.08213 0.0
C1059 C 0.67494 0.90349 0.09973 0.0
C1060 C 0.65773 0.89773 0.10333 0.0
C1061 C 0.64398 0.89184 0.08898 0.0
C1062 C 0.64725 0.89199 0.07149 0.0
H1063 H 0.67454 0.94402 0.04704 0.0
H1064 H 0.66383 0.93331 0.0634 0.0
H1065 H 0.68731 0.93381 0.06326 0.0
H1066 H 0.69152 0.90817 0.07962 0.0
H1067 H 0.68583 0.90806 0.11048 0.0
H1068 H 0.12199 0.58475 0.91905 0.0
H1069 H 0.1199 0.58057 0.95007 0.0
H1070 H 0.13469 0.63706 0.96658 0.0
H1071 H 0.13685 0.64139 0.93586 0.0
H1072 H 0.14701 0.5922 0.98275 0.0
H1073 H 0.08554 0.62345 0.98408 0.0
H1074 H 0.09293 0.61489 0.9636 0.0
H1075 H 0.10319 0.63616 0.97566 0.0
C1076 C 0.12493 0.59626 0.92931 0.0
C1077 C 0.12948 0.61342 0.92491 0.0
C1078 C 0.12373 0.59383 0.94701 0.0
C1079 C 0.12689 0.60854 0.96055 0.0
C1080 C 0.13195 0.62556 0.95628 0.0
H1081 H 0.12894 0.64104 0.07059 0.0
H1082 H 0.12843 0.63669 0.03847 0.0
C1083 C 0.13324 0.62799 0.93868 0.0
C1084 C 0.12461 0.60641 0.97917 0.0
H1085 H 0.10098 0.61977 0.01212 0.0
C1086 C 0.13679 0.59795 0.98916 0.0
C1087 C 0.11122 0.61388 0.98742 0.0
C1088 C 0.09735 0.62248 0.97713 0.0
C1089 C 0.13654 0.59768 1.00749 0.0
C1090 C 0.12358 0.60582 0.0159 0.0
C1091 C 0.11094 0.61358 1.00568 0.0
C1092 C 0.12379 0.60792 0.03551 0.0
C1093 C 0.1507 0.58952 0.01788 0.0
C1094 C 0.12118 0.59316 0.0446 0.0
C1095 C 0.12148 0.5956 0.06314 0.0
C1096 C 0.12433 0.61286 0.07286 0.0
C1097 C 0.12672 0.62755 0.06361 0.0
C1098 C 0.12643 0.6251 0.04519 0.0
H1099 H 0.1616 0.58677 0.01011 0.0
H1100 H 0.15649 0.59844 0.03042 0.0
H1101 H 0.14463 0.57674 0.02147 0.0
H1102 H 0.11881 0.57977 0.03737 0.0
H1103 H 0.11954 0.584 0.06983 0.0
H1104 H 0.34423 0.8911 0.08098 0.0
H1105 H 0.33795 0.88831 0.04838 0.0
H1106 H 0.39306 0.88397 0.04495 0.0
H1107 H 0.39942 0.8866 0.07723 0.0
H1108 H 0.35382 0.91099 0.0264 0.0
H1109 H 0.36647 0.8418 0.00906 0.0
H1110 H 0.36245 0.85052 0.03103 0.0
H1111 H 0.38425 0.85491 0.02464 0.0
C1112 C 0.35495 0.88934 0.07325 0.0
C1113 C 0.37232 0.88902 0.08171 0.0
C1114 C 0.35134 0.88778 0.05465 0.0
C1115 C 0.36498 0.88565 0.04426 0.0
C1116 C 0.38225 0.88522 0.05269 0.0
H1117 H 0.40055 0.89375 0.94731 0.0
H1118 H 0.39375 0.89141 0.97721 0.0
C1119 C 0.38588 0.88684 0.07119 0.0
C1120 C 0.3617 0.88486 0.02465 0.0
H1121 H 0.36927 0.86085 0.98635 0.0
C1122 C 0.35674 0.89986 0.01754 0.0
C1123 C 0.36542 0.87027 0.01313 0.0
C1124 C 0.36976 0.85339 0.01983 0.0
C1125 C 0.35673 0.90117 0.99938 0.0
C1126 C 0.36171 0.8871 0.98815 0.0
C1127 C 0.36555 0.87166 0.99505 0.0
C1128 C 0.36525 0.88901 0.96988 0.0
C1129 C 0.35255 0.91801 0.99248 0.0
C1130 C 0.3514 0.8885 0.95584 0.0
C1131 C 0.35524 0.88981 0.93857 0.0
C1132 C 0.37298 0.89166 0.93516 0.0
C1133 C 0.38674 0.89235 0.94939 0.0
C1134 C 0.3829 0.89098 0.96652 0.0
H1135 H 0.34985 0.92813 1.00316 0.0
H1136 H 0.36386 0.92384 0.98627 0.0
H1137 H 0.3407 0.91484 0.98205 0.0
H1138 H 0.33767 0.88687 0.9582 0.0
H1139 H 0.34434 0.88919 0.92789 0.0
H1140 H 0.13219 0.36762 0.92227 0.0
H1141 H 0.13101 0.36976 0.95402 0.0
H1142 H 0.13807 0.42706 0.95862 0.0
H1143 H 0.13899 0.42506 0.92644 0.0
H1144 H 0.15628 0.38611 0.98231 0.0
H1145 H 0.09346 0.41557 0.98215 0.0
H1146 H 0.10053 0.40581 0.96197 0.0
H1147 H 0.1108 0.42758 0.9727 0.0
C1148 C 0.13349 0.38075 0.92994 0.0
C1149 C 0.1356 0.3962 0.92174 0.0
C1150 C 0.13283 0.38191 0.94815 0.0
C1151 C 0.13422 0.39853 0.95866 0.0
C1152 C 0.13665 0.41407 0.95067 0.0
H1153 H 0.12992 0.42276 0.07214 0.0
H1154 H 0.13238 0.42441 0.04088 0.0
C1155 C 0.13729 0.41292 0.93232 0.0
C1156 C 0.13318 0.39925 0.97795 0.0
H1157 H 0.10755 0.41043 0.0099 0.0
C1158 C 0.14566 0.39149 0.98836 0.0
C1159 C 0.11929 0.40624 0.9858 0.0
C1160 C 0.10514 0.41416 0.9751 0.0
C1161 C 0.1446 0.39044 1.00638 0.0
C1162 C 0.13052 0.39711 0.01413 0.0
C1163 C 0.11825 0.40523 1.00385 0.0
C1164 C 0.12841 0.39589 0.03294 0.0
C1165 C 0.15862 0.38232 0.01702 0.0
C1166 C 0.12501 0.37927 0.03877 0.0
C1167 C 0.12355 0.37824 0.05668 0.0
C1168 C 0.12546 0.39384 0.06904 0.0
C1169 C 0.12846 0.41046 0.06301 0.0
C1170 C 0.12985 0.41146 0.04514 0.0
H1171 H 0.1707 0.38178 0.01041 0.0
H1172 H 0.16257 0.38998 0.03058 0.0
H1173 H 0.15316 0.36851 0.01841 0.0
H1174 H 0.12355 0.36708 0.02947 0.0
H1175 H 0.12117 0.36525 0.06086 0.0
H1176 H 0.6221 0.14085 0.07409 0.0
H1177 H 0.62742 0.14251 0.04355 0.0
H1178 H 0.6834 0.14176 0.05917 0.0
H1179 H 0.67821 0.14003 0.08996 0.0
H1180 H 0.6511 0.16968 0.03176 0.0
H1181 H 0.66861 0.10159 0.0155 0.0
H1182 H 0.65698 0.10749 0.03401 0.0
H1183 H 0.68033 0.11515 0.0355 0.0
C1184 C 0.63556 0.14096 0.0711 0.0
C1185 C 0.64973 0.14026 0.08452 0.0
C1186 C 0.63857 0.14194 0.0536 0.0
C1187 C 0.65576 0.14212 0.04906 0.0
C1188 C 0.66998 0.14141 0.06236 0.0
H1189 H 0.68058 0.1401 0.93912 0.0
H1190 H 0.68477 0.14201 0.97173 0.0
C1191 C 0.667 0.14049 0.07995 0.0
C1192 C 0.65858 0.14341 0.0304 0.0
H1193 H 0.66725 0.11932 0.99254 0.0
C1194 C 0.65481 0.15874 0.02323 0.0
C1195 C 0.66359 0.1292 0.01934 0.0
C1196 C 0.66754 0.11234 0.02635 0.0
C1197 C 0.6554 0.16005 1.00517 0.0
C1198 C 0.65949 0.14548 0.99388 0.0
C1199 C 0.66407 0.13046 1.00121 0.0
C1200 C 0.65741 0.14493 0.97424 0.0
C1201 C 0.65139 0.17696 0.9983 0.0
C1202 C 0.64065 0.14576 0.96484 0.0
C1203 C 0.63823 0.14467 0.94633 0.0
C1204 C 0.6525 0.14261 0.9367 0.0
C1205 C 0.66934 0.14179 0.94613 0.0
C1206 C 0.67174 0.14284 0.96474 0.0
H1207 H 0.65423 0.18852 0.00912 0.0
H1208 H 0.65927 0.17992 0.98753 0.0
H1209 H 0.63705 0.17542 0.99286 0.0
H1210 H 0.62931 0.14698 0.97182 0.0
H1211 H 0.62505 0.14526 0.93957 0.0
H1212 H 0.88195 0.58797 0.90955 0.0
H1213 H 0.87912 0.58183 0.9399 0.0
H1214 H 0.87762 0.63752 0.95661 0.0
H1215 H 0.88034 0.64377 0.92658 0.0
H1216 H 0.90197 0.59728 0.9726 0.0
H1217 H 0.83297 0.61188 0.97286 0.0
H1218 H 0.84242 0.60736 0.95257 0.0
H1219 H 0.84728 0.62914 0.9656 0.0
C1220 C 0.88096 0.59888 0.91969 0.0
C1221 C 0.88128 0.61635 0.91561 0.0
C1222 C 0.87936 0.59535 0.93699 0.0
C1223 C 0.87786 0.60918 0.95038 0.0
C1224 C 0.8784 0.6266 0.94638 0.0
H1225 H 0.87843 0.63989 0.05936 0.0
H1226 H 0.87767 0.6353 0.02719 0.0
C1227 C 0.88006 0.63015 0.92919 0.0
C1228 C 0.87619 0.60577 0.96876 0.0
H1229 H 0.85034 0.61266 1.00145 0.0
C1230 C 0.89055 0.60026 0.97887 0.0
C1231 C 0.86121 0.60959 0.97681 0.0
C1232 C 0.84501 0.61465 0.96636 0.0
C1233 C 0.89082 0.59965 0.99718 0.0
C1234 C 0.87627 0.60448 1.00542 0.0
C1235 C 0.86152 0.60905 0.99509 0.0
C1236 C 0.87684 0.60674 0.02499 0.0
C1237 C 0.90705 0.59485 0.00781 0.0
C1238 C 0.87654 0.59214 0.03441 0.0
C1239 C 0.87694 0.59471 0.05293 0.0
C1240 C 0.87766 0.61192 0.06225 0.0
C1241 C 0.87792 0.62646 0.05266 0.0
C1242 C 0.87746 0.62387 0.03425 0.0
H1243 H 0.91808 0.59356 0.99981 0.0
H1244 H 0.91185 0.60508 0.01965 0.0
H1245 H 0.9035 0.58196 0.01262 0.0
H1246 H 0.87585 0.57878 0.02744 0.0
H1247 H 0.87669 0.58324 0.05992 0.0
H1248 H 0.08675 0.43756 0.15158 0.0
H1249 H 0.05509 0.43754 0.1542 0.0
H1250 H 0.04085 0.40897 0.1009 0.0
H1251 H 0.07233 0.40799 0.09876 0.0
H1252 H 0.02662 0.4484 0.13854 0.0
H1253 H 0.01581 0.37482 0.12758 0.0
H1254 H 0.03769 0.38755 0.13027 0.0
H1255 H 0.02378 0.38341 0.10889 0.0
C1256 C 0.07682 0.4316 0.14034 0.0
C1257 C 0.08187 0.42266 0.12502 0.0
C1258 C 0.05874 0.43151 0.14186 0.0
C1259 C 0.04553 0.4227 0.12797 0.0
C1260 C 0.05073 0.41523 0.11206 0.0
H1261 H 0.93168 0.42807 0.11911 0.0
H1262 H 0.96383 0.43435 0.11913 0.0
C1263 C 0.06871 0.41487 0.11074 0.0
C1264 C 0.02641 0.42037 0.13042 0.0
H1265 H 0.98976 0.38884 0.12618 0.0
C1266 C 0.01857 0.43536 0.13597 0.0
C1267 C 0.01597 0.40331 0.12759 0.0
C1268 C 0.0238 0.38636 0.12346 0.0
C1269 C 1.00051 0.43382 0.1383 0.0
C1270 C 0.9898 0.41688 0.13429 0.0
C1271 C 0.9978 0.40188 0.12909 0.0
C1272 C 0.97033 0.41414 0.13534 0.0
C1273 C 0.99332 0.45032 0.14545 0.0
C1274 C 0.96305 0.4004 0.14403 0.0
C1275 C 0.94464 0.39638 0.14345 0.0
C1276 C 0.93309 0.40628 0.13451 0.0
C1277 C 0.94032 0.4204 0.12631 0.0
C1278 C 0.95874 0.4241 0.12646 0.0
H1279 H 1.00404 0.46027 0.15363 0.0
H1280 H 0.98764 0.4566 0.13415 0.0
H1281 H 0.98276 0.44716 0.15373 0.0
H1282 H 0.97162 0.39249 0.15099 0.0
H1283 H 0.93942 0.38545 0.14991 0.0
H1284 H 0.09199 0.68323 0.88514 0.0
H1285 H 0.06199 0.69025 0.88843 0.0
H1286 H 0.043 0.63439 0.88623 0.0
H1287 H 0.07261 0.62727 0.88298 0.0
H1288 H 0.02923 0.67649 0.86424 0.0
H1289 H 0.02644 0.65835 0.93169 0.0
H1290 H 0.04714 0.66321 0.92304 0.0
H1291 H 0.03387 0.64162 0.91693 0.0
C1292 C 0.08143 0.67247 0.88546 0.0
C1293 C 0.08472 0.65469 0.88384 0.0
C1294 C 0.06432 0.67651 0.88732 0.0
C1295 C 0.05038 0.66285 0.88786 0.0
C1296 C 0.05365 0.64515 0.88619 0.0
H1297 H 0.94183 0.63023 0.88109 0.0
H1298 H 0.97419 0.63619 0.88511 0.0
C1299 C 0.0706 0.64111 0.88422 0.0
C1300 C 0.03209 0.66666 0.88942 0.0
H1301 H 0.99826 0.6582 0.91361 0.0
C1302 C 0.02251 0.67294 0.87522 0.0
C1303 C 0.02343 0.66207 0.9038 0.0
C1304 C 0.03329 0.6561 0.91982 0.0
C1305 C 1.00412 0.67343 0.87439 0.0
C1306 C 0.99524 0.66771 0.88825 0.0
C1307 C 1.00508 0.66252 0.90297 0.0
C1308 C 0.97555 0.66476 0.88664 0.0
C1309 C 0.9941 0.67891 0.85817 0.0
C1310 C 0.96555 0.67892 0.88645 0.0
C1311 C 0.94689 0.67555 0.88416 0.0
C1312 C 0.93801 0.65797 0.882 0.0
C1313 C 0.94818 0.64393 0.88262 0.0
C1314 C 0.96671 0.6473 0.88496 0.0
H1315 H 1.0026 0.68087 0.84764 0.0
H1316 H 0.98244 0.66869 0.85254 0.0
H1317 H 0.98906 0.6916 0.86204 0.0
H1318 H 0.97215 0.69252 0.88795 0.0
H1319 H 0.93945 0.68666 0.88377 0.0
H1320 H 0.38509 0.94832 0.88817 0.0
H1321 H 0.38968 0.98042 0.88841 0.0
H1322 H 0.44596 0.98215 0.90468 0.0
H1323 H 0.44151 0.94973 0.90452 0.0
H1324 H 0.42898 1.00909 0.92416 0.0
H1325 H 0.41369 1.00604 0.851 0.0
H1326 H 0.39732 0.99261 0.86036 0.0
H1327 H 0.4196 0.98726 0.8614 0.0
C1328 C 0.39848 0.95544 0.89183 0.0
C1329 C 0.41296 0.9464 0.89624 0.0
C1330 C 0.40107 0.97381 0.89186 0.0
C1331 C 0.41818 0.98358 0.89624 0.0
C1332 C 0.43266 0.97477 0.9011 0.0
H1333 H 0.44032 0.10108 0.90683 0.0
H1334 H 0.44542 0.06996 0.90576 0.0
C1335 C 0.43009 0.95628 0.90102 0.0
C1336 C 0.42061 1.00305 0.89588 0.0
H1337 H 0.41231 0.03392 0.86856 0.0
C1338 C 0.42569 0.0146 0.91199 0.0
C1339 C 0.41633 0.01014 0.87995 0.0
C1340 C 0.41159 0.99839 0.86216 0.0
C1341 C 0.42552 0.03304 0.91273 0.0
C1342 C 0.4204 0.04002 0.8969 0.0
C1343 C 0.41616 0.02852 0.88069 0.0
C1344 C 0.41778 0.0589 0.89705 0.0
C1345 C 0.42986 0.04477 0.93055 0.0
C1346 C 0.40066 0.06295 0.89207 0.0
C1347 C 0.39771 0.08062 0.89258 0.0
C1348 C 0.41187 0.09467 0.89802 0.0
C1349 C 0.42912 0.09058 0.90264 0.0
C1350 C 0.43205 0.07282 0.90214 0.0
H1351 H 0.43059 0.0369 0.9418 0.0
H1352 H 0.44294 0.05317 0.9313 0.0
H1353 H 0.41971 0.05378 0.9322 0.0
H1354 H 0.38948 0.0524 0.88805 0.0
H1355 H 0.38427 0.08325 0.88888 0.0
H1356 H 0.07338 0.338 0.86248 0.0
H1357 H 0.04126 0.33709 0.86321 0.0
H1358 H 0.04684 0.394 0.86419 0.0
H1359 H 0.07857 0.39503 0.86321 0.0
H1360 H 0.02488 0.3545 0.88962 0.0
H1361 H 1.00513 0.37676 0.82482 0.0
H1362 H 0.0262 0.36907 0.83035 0.0
H1363 H 0.02328 0.39149 0.83838 0.0
C1364 C 0.0677 0.35026 0.86259 0.0
C1365 C 0.07857 0.36656 0.86271 0.0
C1366 C 0.04936 0.34974 0.86306 0.0
C1367 C 0.04159 0.36545 0.86348 0.0
C1368 C 0.05242 0.38166 0.86346 0.0
H1369 H 0.93949 0.39915 0.87682 0.0
H1370 H 0.97081 0.39722 0.87412 0.0
C1371 C 0.07064 0.38221 0.86301 0.0
C1372 C 0.02238 0.36525 0.8649 0.0
H1373 H 0.98422 0.37801 0.84549 0.0
C1374 C 0.01592 0.35943 0.87987 0.0
C1375 C 0.01073 0.3718 0.85222 0.0
C1376 C 0.01663 0.37748 0.83545 0.0
C1377 C 0.99829 0.36048 0.88277 0.0
C1378 C 0.98675 0.36732 0.87024 0.0
C1379 C 0.99313 0.37291 0.85516 0.0
C1380 C 0.9679 0.36853 0.87239 0.0
C1381 C 0.9923 0.35476 0.89948 0.0
C1382 C 0.95588 0.35305 0.8722 0.0
C1383 C 0.93803 0.3541 0.87372 0.0
C1384 C 0.93177 0.37067 0.8754 0.0
C1385 C 0.94386 0.3862 0.87562 0.0
C1386 C 0.96175 0.38511 0.87404 0.0
H1387 H 1.00376 0.35404 0.90971 0.0
H1388 H 0.98385 0.36407 0.90528 0.0
H1389 H 0.98428 0.34133 0.89617 0.0
H1390 H 0.96025 0.34009 0.87062 0.0
H1391 H 0.9291 0.34185 0.87342 0.0
H1392 H 0.58344 0.08344 0.88126 0.0
H1393 H 0.57749 0.05212 0.88596 0.0
H1394 H 0.63387 0.04995 0.89424 0.0
H1395 H 0.63996 0.08087 0.88953 0.0
H1396 H 0.59175 0.02018 0.86684 0.0
H1397 H 0.61308 0.03444 0.93986 0.0
H1398 H 0.60576 0.05102 0.92687 0.0
H1399 H 0.62787 0.04546 0.92688 0.0
C1400 C 0.59454 0.07624 0.88399 0.0
C1401 C 0.61217 0.08471 0.88509 0.0
C1402 C 0.59111 0.05839 0.88667 0.0
C1403 C 0.60527 0.04887 0.89067 0.0
C1404 C 0.62279 0.05717 0.89139 0.0
H1405 H 0.64109 0.95408 0.90993 0.0
H1406 H 0.6343 0.98395 0.90728 0.0
C1407 C 0.62622 0.07486 0.88862 0.0
C1408 C 0.60214 0.03024 0.89419 0.0
H1409 H 0.61246 1.00444 0.92617 0.0
C1410 C 0.59584 0.01665 0.87987 0.0
C1411 C 0.6075 0.02578 0.91122 0.0
C1412 C 0.6138 0.03993 0.92716 0.0
C1413 C 0.59598 0.99864 0.88189 0.0
C1414 C 0.60234 0.99424 0.89874 0.0
C1415 C 0.60762 1.00784 0.91327 0.0
C1416 C 0.60582 0.97599 0.90108 0.0
C1417 C 0.59045 0.98456 0.86578 0.0
C1418 C 0.59199 0.9616 0.89879 0.0
C1419 C 0.59583 0.94437 0.90032 0.0
C1420 C 0.61357 0.94131 0.90416 0.0
C1421 C 0.62728 0.95589 0.9069 0.0
C1422 C 0.62344 0.97302 0.90541 0.0
H1423 H 0.58822 0.99041 0.85326 0.0
H1424 H 0.60075 0.97565 0.8646 0.0
H1425 H 0.57789 0.97628 0.86729 0.0
H1426 H 0.57827 0.96367 0.8957 0.0
H1427 H 0.58496 0.93343 0.89816 0.0
H1428 H 0.08687 0.67816 0.12749 0.0
H1429 H 0.0558 0.68268 0.1287 0.0
H1430 H 0.04051 0.62604 0.12551 0.0
H1431 H 0.07124 0.62137 0.12434 0.0
H1432 H 0.02413 0.66713 0.10344 0.0
H1433 H 0.02142 0.6478 0.17053 0.0
H1434 H 0.04213 0.65414 0.16242 0.0
H1435 H 0.03008 0.63205 0.15573 0.0
C1436 C 0.07687 0.66668 0.12703 0.0
C1437 C 0.08158 0.64941 0.12592 0.0
C1438 C 0.05916 0.66929 0.12772 0.0
C1439 C 0.04595 0.65471 0.1275 0.0
C1440 C 0.05057 0.63749 0.12604 0.0
H1441 H 0.93611 0.6211 0.12253 0.0
H1442 H 0.96847 0.62611 0.12507 0.0
C1443 C 0.06816 0.63486 0.12528 0.0
C1444 C 0.02721 0.65717 0.12855 0.0
H1445 H 0.99341 0.64754 0.15248 0.0
C1446 C 0.01743 0.66319 0.1143 0.0
C1447 C 0.01858 0.65206 0.14277 0.0
C1448 C 0.02862 0.64631 0.15883 0.0
C1449 C 0.99896 0.66317 0.11338 0.0
C1450 C 0.99019 0.65721 0.12721 0.0
C1451 C 1.00016 0.65202 0.14186 0.0
C1452 C 0.97053 0.65468 0.12601 0.0
C1453 C 0.98882 0.66857 0.09719 0.0
C1454 C 0.96094 0.66914 0.12592 0.0
C1455 C 0.94232 0.66633 0.12447 0.0
C1456 C 0.93304 0.64899 0.12311 0.0
C1457 C 0.94279 0.63461 0.1235 0.0
C1458 C 0.96131 0.63745 0.12497 0.0
H1459 H 0.99711 0.66999 0.08639 0.0
H1460 H 0.97684 0.65863 0.09194 0.0
H1461 H 0.9843 0.68156 0.10096 0.0
H1462 H 0.96783 0.68258 0.12699 0.0
H1463 H 0.93523 0.67769 0.12427 0.0
H1464 H 0.43601 0.10517 0.14913 0.0
H1465 H 0.44296 0.07452 0.14553 0.0
H1466 H 0.38704 0.05444 0.13149 0.0
H1467 H 0.38 0.0847 0.13493 0.0
H1468 H 0.43025 0.04599 0.16383 0.0
H1469 H 0.40966 0.02946 0.09104 0.0
H1470 H 0.41436 0.05212 0.10232 0.0
H1471 H 0.39309 0.03898 0.10219 0.0
C1472 C 0.42522 0.09421 0.14516 0.0
C1473 C 0.40745 0.0974 0.14227 0.0
C1474 C 0.42922 0.07673 0.14313 0.0
C1475 C 0.41553 0.06225 0.13795 0.0
C1476 C 0.39784 0.06544 0.13512 0.0
H1477 H 0.38491 0.95273 0.12967 0.0
H1478 H 0.38983 0.98486 0.13011 0.0
C1479 C 0.39383 0.08278 0.13722 0.0
C1480 C 0.41934 0.04363 0.13616 0.0
H1481 H 0.41032 1.00461 0.10746 0.0
C1482 C 0.42632 0.03698 0.15143 0.0
C1483 C 0.41425 0.03195 0.11994 0.0
C1484 C 0.40759 0.03852 0.10289 0.0
C1485 C 0.42711 0.01869 0.15118 0.0
C1486 C 0.42094 1.00688 0.13521 0.0
C1487 C 0.41497 0.0137 0.11971 0.0
C1488 C 0.41854 0.98729 0.13476 0.0
C1489 C 0.43347 0.01194 0.16822 0.0
C1490 C 0.43312 0.97795 0.13709 0.0
C1491 C 0.43036 0.95943 0.13681 0.0
C1492 C 0.41297 0.95003 0.13424 0.0
C1493 C 0.39848 0.9595 0.13175 0.0
C1494 C 0.40125 0.9779 0.13196 0.0
H1495 H 0.43596 0.02262 0.17989 0.0
H1496 H 0.4235 1.00104 0.17077 0.0
H1497 H 0.44604 1.00642 0.16691 0.0
H1498 H 0.44658 0.98497 0.13909 0.0
H1499 H 0.4418 0.95252 0.13874 0.0
H1500 H 0.58175 0.08445 0.12417 0.0
H1501 H 0.57644 0.05243 0.12624 0.0
H1502 H 0.63258 0.0501 0.12817 0.0
H1503 H 0.63805 0.08181 0.12609 0.0
H1504 H 0.59525 0.02025 0.10262 0.0
H1505 H 0.60916 0.0344 0.17663 0.0
H1506 H 0.59913 0.04945 0.16336 0.0
H1507 H 0.62238 0.04793 0.16408 0.0
C1508 C 0.59291 0.07705 0.12475 0.0
C1509 C 0.61034 0.08572 0.12508 0.0
C1510 C 0.58984 0.0588 0.12594 0.0
C1511 C 0.60415 0.04904 0.12743 0.0
C1512 C 0.6214 0.05748 0.12705 0.0
H1513 H 0.64134 0.95601 0.15257 0.0
H1514 H 0.63432 0.98543 0.14804 0.0
C1515 C 0.62448 0.07562 0.12588 0.0
C1516 C 0.6016 0.03028 0.13054 0.0
H1517 H 0.60906 1.00472 0.16339 0.0
C1518 C 0.59784 0.01672 0.11589 0.0
C1519 C 0.60512 0.0259 0.14789 0.0
C1520 C 0.60911 0.04012 0.16398 0.0
C1521 C 0.59843 0.99883 0.11812 0.0
C1522 C 0.60276 0.99452 0.13545 0.0
C1523 C 0.6057 1.00806 0.15014 0.0
C1524 C 0.6064 0.9765 0.13849 0.0
C1525 C 0.59549 0.9848 0.10189 0.0
C1526 C 0.59294 0.96171 0.13482 0.0
C1527 C 0.59691 0.94475 0.13743 0.0
C1528 C 0.61441 0.94236 0.14374 0.0
C1529 C 0.62774 0.95731 0.14766 0.0
C1530 C 0.62375 0.97417 0.1451 0.0
H1531 H 0.59468 0.99069 0.08932 0.0
H1532 H 0.60644 0.97656 0.10231 0.0
H1533 H 0.58286 0.97585 0.10174 0.0
H1534 H 0.5794 0.96328 0.12993 0.0
H1535 H 0.58634 0.93352 0.13431 0.0
H1536 H 0.64005 0.44703 0.87362 0.0
H1537 H 0.64195 0.47926 0.87898 0.0
H1538 H 0.63946 0.47749 0.9347 0.0
H1539 H 0.63742 0.44484 0.92943 0.0
H1540 H 0.61603 0.49909 0.91827 0.0
H1541 H 0.68478 0.51554 0.90396 0.0
H1542 H 0.67129 0.49947 0.88686 0.0
H1543 H 0.6762 0.49389 0.90894 0.0
C1544 C 0.64 0.4534 0.88708 0.0
C1545 C 0.63864 0.44331 0.90112 0.0
C1546 C 0.6412 0.47189 0.89012 0.0
C1547 C 0.64115 0.4808 0.90728 0.0
C1548 C 0.63968 0.47085 0.92138 0.0
H1549 H 0.63733 0.59674 0.92868 0.0
H1550 H 0.6393 0.56607 0.93418 0.0
C1551 C 0.63855 0.45223 0.91835 0.0
C1552 C 0.64195 0.50044 0.90999 0.0
H1553 H 0.666 0.53835 0.90145 0.0
C1554 C 0.6271 0.50778 0.915 0.0
C1555 C 0.65645 0.51173 0.90576 0.0
C1556 C 0.67316 0.50479 0.90125 0.0
C1557 C 0.62589 0.52594 0.91471 0.0
C1558 C 0.63995 0.53697 0.90943 0.0
C1559 C 0.65518 0.52981 0.90536 0.0
C1560 C 0.6385 0.55554 0.90645 0.0
C1561 C 0.60919 0.533 0.91904 0.0
C1562 C 0.63757 0.55976 0.88909 0.0
C1563 C 0.63644 0.57717 0.8859 0.0
C1564 C 0.63635 0.59081 0.90005 0.0
C1565 C 0.63733 0.58656 0.91749 0.0
C1566 C 0.63839 0.56904 0.92066 0.0
H1567 H 0.59862 0.52223 0.92072 0.0
H1568 H 0.61234 0.54252 0.9316 0.0
H1569 H 0.60394 0.54032 0.90835 0.0
H1570 H 0.63767 0.54953 0.87796 0.0
H1571 H 0.63575 0.57994 0.87232 0.0
H1572 H 0.57748 0.62472 0.83344 0.0
H1573 H 0.54512 0.62487 0.82873 0.0
H1574 H 0.54568 0.63598 0.88544 0.0
H1575 H 0.57773 0.63588 0.8903 0.0
H1576 H 0.51655 0.604 0.84417 0.0
H1577 H 0.52291 0.67706 0.86391 0.0
H1578 H 0.54107 0.66618 0.85711 0.0
H1579 H 0.53565 0.66594 0.87926 0.0
C1580 C 0.57068 0.62707 0.8449 0.0
C1581 C 0.58024 0.63041 0.86224 0.0
C1582 C 0.55222 0.62715 0.84218 0.0
C1583 C 0.5431 0.6307 0.85674 0.0
C1584 C 0.55253 0.63348 0.87402 0.0
H1585 H 0.44455 0.64117 0.8908 0.0
H1586 H 0.47497 0.6396 0.88533 0.0
C1587 C 0.57087 0.63335 0.87676 0.0
C1588 C 0.5238 0.6319 0.85416 0.0
H1589 H 0.49429 0.66036 0.86369 0.0
C1590 C 0.5116 0.61636 0.84809 0.0
C1591 C 0.51744 0.64807 0.85922 0.0
C1592 C 0.52993 0.66532 0.86509 0.0
C1593 C 0.4932 0.61637 0.84803 0.0
C1594 C 0.48695 0.63239 0.85399 0.0
C1595 C 0.49912 0.64809 0.85919 0.0
C1596 C 0.46818 0.63289 0.85676 0.0
C1597 C 0.48069 0.59911 0.84255 0.0
C1598 C 0.45419 0.62969 0.84245 0.0
C1599 C 0.43662 0.6306 0.84553 0.0
C1600 C 0.4328 0.63474 0.86297 0.0
C1601 C 0.44692 0.63793 0.87719 0.0
C1602 C 0.46437 0.63706 0.87411 0.0
H1603 H 0.48791 0.58746 0.84066 0.0
H1604 H 0.47178 0.59704 0.85272 0.0
H1605 H 0.47221 0.59971 0.82982 0.0
H1606 H 0.45689 0.62669 0.82893 0.0
H1607 H 0.42606 0.62811 0.83429 0.0
H1608 H 0.39516 0.44783 0.93168 0.0
H1609 H 0.39365 0.47991 0.93515 0.0
H1610 H 0.37676 0.47607 0.87871 0.0
H1611 H 0.37812 0.44416 0.8751 0.0
H1612 H 0.4122 0.5063 0.91832 0.0
H1613 H 0.33911 0.50186 0.90104 0.0
H1614 H 0.34969 0.48327 0.90717 0.0
H1615 H 0.3491 0.48877 0.88495 0.0
C1616 C 0.39104 0.45381 0.92002 0.0
C1617 C 0.38668 0.4434 0.90312 0.0
C1618 C 0.3902 0.47212 0.92203 0.0
C1619 C 0.38482 0.48029 0.90723 0.0
C1620 C 0.3806 0.46997 0.89036 0.0
H1621 H 0.37611 0.58067 0.87403 0.0
H1622 H 0.37576 0.54969 0.87857 0.0
C1623 C 0.38149 0.45172 0.88832 0.0
C1624 C 0.38409 0.49971 0.90914 0.0
H1625 H 0.35634 0.53005 0.90026 0.0
C1626 C 0.39996 0.51156 0.91466 0.0
C1627 C 0.36808 0.50649 0.90441 0.0
C1628 C 0.35048 0.49446 0.89922 0.0
C1629 C 0.40041 0.52999 0.91462 0.0
C1630 C 0.3845 0.53669 0.90919 0.0
C1631 C 0.36852 0.52488 0.90436 0.0
C1632 C 0.38438 0.55566 0.90697 0.0
C1633 C 0.41804 0.54202 0.91951 0.0
C1634 C 0.38909 0.56935 0.92151 0.0
C1635 C 0.38933 0.5872 0.91896 0.0
C1636 C 0.38479 0.59162 0.90183 0.0
C1637 C 0.37973 0.5778 0.8874 0.0
C1638 C 0.3795 0.56004 0.88997 0.0
H1639 H 0.42946 0.53438 0.92018 0.0
H1640 H 0.4197 0.55142 0.90971 0.0
H1641 H 0.41844 0.54997 0.93276 0.0
H1642 H 0.39262 0.56623 0.93481 0.0
H1643 H 0.39322 0.59752 0.93036 0.0
H1644 H 0.42672 0.38919 0.8379 0.0
H1645 H 0.4573 0.38769 0.83183 0.0
H1646 H 0.47599 0.396 0.8882 0.0
H1647 H 0.44573 0.39759 0.89442 0.0
H1648 H 0.49141 0.41457 0.84671 0.0
H1649 H 0.49062 0.3468 0.86571 0.0
H1650 H 0.47052 0.35573 0.85878 0.0
H1651 H 0.48236 0.36259 0.88089 0.0
C1652 C 0.43737 0.39088 0.84899 0.0
C1653 C 0.43374 0.39341 0.86665 0.0
C1654 C 0.45481 0.39002 0.84549 0.0
C1655 C 0.46879 0.39153 0.85958 0.0
C1656 C 0.4653 0.39463 0.87716 0.0
H1657 H 0.57729 0.38833 0.88968 0.0
H1658 H 0.54527 0.38832 0.88523 0.0
C1659 C 0.44798 0.39558 0.88067 0.0
C1660 C 0.48707 0.38934 0.85624 0.0
H1661 H 0.51897 0.36278 0.8639 0.0
C1662 C 0.49742 0.40313 0.85012 0.0
C1663 C 0.49475 0.37435 0.86068 0.0
C1664 C 0.48399 0.35892 0.86675 0.0
C1665 C 0.51565 0.4028 0.84937 0.0
C1666 C 0.52353 0.38817 0.85464 0.0
C1667 C 0.5129 0.37399 0.85989 0.0
C1668 C 0.54306 0.38814 0.85675 0.0
C1669 C 0.52655 0.41853 0.84395 0.0
C1670 C 0.55249 0.38791 0.84215 0.0
C1671 C 0.57098 0.38793 0.84465 0.0
C1672 C 0.58025 0.38814 0.86179 0.0
C1673 C 0.57064 0.38819 0.87629 0.0
C1674 C 0.55229 0.38816 0.87378 0.0
H1675 H 0.51901 0.42994 0.84295 0.0
H1676 H 0.53886 0.423 0.85365 0.0
H1677 H 0.53056 0.41454 0.83076 0.0
H1678 H 0.54557 0.38761 0.82884 0.0
H1679 H 0.57797 0.38784 0.8332 0.0
H1680 H 0.63374 0.59746 0.17357 0.0
H1681 H 0.63582 0.56667 0.17856 0.0
H1682 H 0.63427 0.55104 0.12219 0.0
H1683 H 0.63225 0.58158 0.11706 0.0
H1684 H 0.61162 0.53465 0.16323 0.0
H1685 H 0.67931 0.53306 0.14517 0.0
H1686 H 0.67062 0.55359 0.1508 0.0
H1687 H 0.66443 0.541 0.12891 0.0
C1688 C 0.63386 0.58747 0.16224 0.0
C1689 C 0.63291 0.59202 0.14492 0.0
C1690 C 0.63504 0.5699 0.16513 0.0
C1691 C 0.63549 0.55667 0.15078 0.0
C1692 C 0.63428 0.56113 0.13349 0.0
H1693 H 0.63365 0.44686 0.11994 0.0
H1694 H 0.63522 0.47911 0.12423 0.0
C1695 C 0.63303 0.5786 0.13058 0.0
C1696 C 0.63688 0.53806 0.1536 0.0
H1697 H 0.66188 0.50485 0.14547 0.0
C1698 C 0.62273 0.52816 0.15967 0.0
C1699 C 0.65145 0.52971 0.14902 0.0
C1700 C 0.66741 0.53992 0.14327 0.0
C1701 C 0.62227 0.5098 0.16022 0.0
C1702 C 0.63646 0.50128 0.15481 0.0
C1703 C 0.65098 0.5114 0.14956 0.0
C1704 C 0.63574 0.48167 0.15277 0.0
C1705 C 0.6062 0.49948 0.16564 0.0
C1706 C 0.63569 0.47236 0.16746 0.0
C1707 C 0.63477 0.45377 0.16506 0.0
C1708 C 0.63394 0.44424 0.14792 0.0
C1709 C 0.63423 0.45371 0.13333 0.0
C1710 C 0.63516 0.47219 0.13574 0.0
H1711 H 0.59515 0.5075 0.16667 0.0
H1712 H 0.6013 0.48725 0.15594 0.0
H1713 H 0.60996 0.49534 0.17883 0.0
H1714 H 0.63639 0.47947 0.18075 0.0
H1715 H 0.63463 0.44689 0.17658 0.0
H1716 H 0.57449 0.62691 0.07941 0.0
H1717 H 0.54215 0.62712 0.07461 0.0
H1718 H 0.54263 0.63889 0.13126 0.0
H1719 H 0.57466 0.63867 0.13623 0.0
H1720 H 0.51351 0.60628 0.09183 0.0
H1721 H 0.5203 0.67989 0.10738 0.0
H1722 H 0.53804 0.66847 0.10031 0.0
H1723 H 0.53365 0.66945 0.1229 0.0
C1724 C 0.56767 0.62942 0.09085 0.0
C1725 C 0.57719 0.63288 0.10821 0.0
C1726 C 0.54923 0.62952 0.08806 0.0
C1727 C 0.54013 0.63323 0.10257 0.0
C1728 C 0.5495 0.63619 0.11988 0.0
H1729 H 0.4445 0.6459 0.13989 0.0
H1730 H 0.47432 0.64392 0.13275 0.0
C1731 C 0.56782 0.63601 0.12269 0.0
C1732 C 0.5209 0.63449 0.09996 0.0
H1733 H 0.4918 0.66362 0.10855 0.0
C1734 C 0.50864 0.61882 0.09508 0.0
C1735 C 0.51471 0.65092 0.10416 0.0
C1736 C 0.52733 0.66819 0.10884 0.0
C1737 C 0.49035 0.61904 0.09548 0.0
C1738 C 0.48431 0.63536 0.10072 0.0
C1739 C 0.49649 0.65113 0.10458 0.0
C1740 C 0.46591 0.63614 0.10447 0.0
C1741 C 0.47777 0.60173 0.09141 0.0
C1742 C 0.45125 0.63246 0.09087 0.0
C1743 C 0.43403 0.6336 0.09491 0.0
C1744 C 0.43128 0.63844 0.11261 0.0
C1745 C 0.44607 0.64212 0.12611 0.0
C1746 C 0.46317 0.64102 0.12207 0.0
H1747 H 0.48488 0.59 0.0895 0.0
H1748 H 0.4697 0.60026 0.10237 0.0
H1749 H 0.46846 0.60177 0.07907 0.0
H1750 H 0.45315 0.62888 0.07716 0.0
H1751 H 0.42292 0.63072 0.08421 0.0
H1752 H 0.38258 0.45145 0.12911 0.0
H1753 H 0.38255 0.48354 0.13373 0.0
H1754 H 0.39776 0.48506 0.19016 0.0
H1755 H 0.39784 0.4527 0.18568 0.0
H1756 H 0.36087 0.50177 0.1572 0.0
H1757 H 0.43377 0.52487 0.17491 0.0
H1758 H 0.42507 0.50296 0.16298 0.0
H1759 H 0.42374 0.50783 0.18627 0.0
C1760 C 0.38606 0.45854 0.14253 0.0
C1761 C 0.39022 0.44945 0.15704 0.0
C1762 C 0.386 0.47692 0.14513 0.0
C1763 C 0.39022 0.48667 0.16225 0.0
C1764 C 0.39463 0.47777 0.1768 0.0
H1765 H 0.39708 0.60374 0.18356 0.0
H1766 H 0.39706 0.5727 0.18878 0.0
C1767 C 0.39463 0.45929 0.17422 0.0
C1768 C 0.38933 0.50605 0.16465 0.0
H1769 H 0.41513 0.54685 0.17212 0.0
C1770 C 0.37271 0.51165 0.16067 0.0
C1771 C 0.40476 0.51889 0.16935 0.0
C1772 C 0.42291 0.51347 0.17357 0.0
C1773 C 0.37117 0.52973 0.16068 0.0
C1774 C 0.38671 0.54252 0.16439 0.0
C1775 C 0.40324 0.53701 0.16923 0.0
C1776 C 0.38622 0.56133 0.16165 0.0
C1777 C 0.35291 0.53494 0.15645 0.0
C1778 C 0.38029 0.56521 0.14467 0.0
C1779 C 0.38027 0.58282 0.14165 0.0
C1780 C 0.38631 0.59701 0.15554 0.0
C1781 C 0.39225 0.59312 0.1726 0.0
C1782 C 0.39229 0.57542 0.1756 0.0
H1783 H 0.3424 0.52492 0.15965 0.0
H1784 H 0.352 0.54814 0.1639 0.0
H1785 H 0.35016 0.53569 0.14199 0.0
H1786 H 0.37591 0.55459 0.13361 0.0
H1787 H 0.37569 0.58527 0.12832 0.0
H1788 H 0.57293 0.3867 0.08241 0.0
H1789 H 0.54047 0.38614 0.07824 0.0
H1790 H 0.5407 0.38774 0.13478 0.0
H1791 H 0.57278 0.38814 0.13906 0.0
H1792 H 0.51433 0.36152 0.11342 0.0
H1793 H 0.51376 0.42864 0.09246 0.0
H1794 H 0.52554 0.4133 0.08047 0.0
H1795 H 0.53368 0.42198 0.10333 0.0
C1796 C 0.56604 0.38691 0.09393 0.0
C1797 C 0.57549 0.38752 0.11107 0.0
C1798 C 0.54752 0.38669 0.09153 0.0
C1799 C 0.53822 0.38708 0.10623 0.0
C1800 C 0.54762 0.38746 0.12326 0.0
H1801 H 0.4414 0.39514 0.14535 0.0
H1802 H 0.47124 0.39223 0.13858 0.0
C1803 C 0.56601 0.38772 0.12567 0.0
C1804 C 0.51868 0.38697 0.10425 0.0
H1805 H 0.4864 0.41331 0.09686 0.0
C1806 C 0.50818 0.37272 0.10955 0.0
C1807 C 0.51067 0.40157 0.09911 0.0
C1808 C 0.52143 0.41734 0.0936 0.0
C1809 C 0.49004 0.373 0.11053 0.0
C1810 C 0.48225 0.38802 0.10634 0.0
C1811 C 0.49247 0.40185 0.10011 0.0
C1812 C 0.46408 0.3903 0.11007 0.0
C1813 C 0.47944 0.3574 0.1165 0.0
C1814 C 0.45023 0.39065 0.09628 0.0
C1815 C 0.43302 0.39231 0.1001 0.0
C1816 C 0.42949 0.39384 0.11781 0.0
C1817 C 0.44357 0.39393 0.13156 0.0
C1818 C 0.46066 0.39218 0.12773 0.0
H1819 H 0.48576 0.34515 0.11443 0.0
H1820 H 0.47871 0.36053 0.13092 0.0
H1821 H 0.46565 0.35469 0.10923 0.0
H1822 H 0.45267 0.38933 0.08257 0.0
H1823 H 0.42249 0.39224 0.08921 0.0
H1824 H 0.85669 0.61695 0.41542 0.0
H1825 H 0.85754 0.61734 0.44765 0.0
H1826 H 0.91365 0.63733 0.45583 0.0
H1827 H 0.91292 0.63724 0.42394 0.0
H1828 H 0.87831 0.59839 0.46912 0.0
H1829 H 0.89491 0.67099 0.49223 0.0
H1830 H 0.88667 0.66194 0.46929 0.0
H1831 H 0.90972 0.66247 0.47798 0.0
C1832 C 0.86913 0.62168 0.42412 0.0
C1833 C 0.88472 0.62709 0.41709 0.0
C1834 C 0.86961 0.62185 0.44251 0.0
C1835 C 0.88562 0.62758 0.45414 0.0
C1836 C 0.90109 0.6332 0.44716 0.0
H1837 H 0.91964 0.63176 0.56803 0.0
H1838 H 0.91887 0.63164 0.53582 0.0
C1839 C 0.90064 0.63303 0.42886 0.0
C1840 C 0.88651 0.62676 0.47348 0.0
H1841 H 0.89794 0.65197 0.51446 0.0
C1842 C 0.88247 0.61012 0.47904 0.0
C1843 C 0.89209 0.64207 0.48638 0.0
C1844 C 0.89594 0.66041 0.4812 0.0
C1845 C 0.88412 0.60831 0.49718 0.0
C1846 C 0.88973 0.62361 0.51007 0.0
C1847 C 0.89379 0.64026 0.50452 0.0
C1848 C 0.89053 0.62277 0.52938 0.0
C1849 C 0.88012 0.59002 0.50242 0.0
C1850 C 0.87487 0.61785 0.53635 0.0
C1851 C 0.87525 0.61794 0.55462 0.0
C1852 C 0.89132 0.62301 0.56636 0.0
C1853 C 0.90708 0.6277 0.55934 0.0
C1854 C 0.90666 0.62769 0.54097 0.0
H1855 H 0.88067 0.57935 0.4913 0.0
H1856 H 0.88963 0.58835 0.5141 0.0
H1857 H 0.86651 0.58826 0.5061 0.0
H1858 H 0.86224 0.61431 0.52768 0.0
H1859 H 0.86284 0.61427 0.55955 0.0
H1860 H 0.38106 0.87631 0.57399 0.0
H1861 H 0.38185 0.88155 0.54335 0.0
H1862 H 0.39684 0.93785 0.56114 0.0
H1863 H 0.39626 0.93271 0.59211 0.0
H1864 H 0.36195 0.90329 0.52398 0.0
H1865 H 0.43496 0.92512 0.52982 0.0
H1866 H 0.42517 0.91377 0.54632 0.0
H1867 H 0.42322 0.93678 0.54542 0.0
C1868 C 0.38456 0.88984 0.57148 0.0
C1869 C 0.38866 0.90409 0.58556 0.0
C1870 C 0.38498 0.8928 0.55391 0.0
C1871 C 0.38958 0.91005 0.54998 0.0
C1872 C 0.39352 0.92439 0.56392 0.0
H1873 H 0.40053 0.93487 0.44185 0.0
H1874 H 0.39893 0.93886 0.47395 0.0
C1875 C 0.39309 0.92144 0.58159 0.0
C1876 C 0.38999 0.91272 0.53116 0.0
H1877 H 0.41818 0.92273 0.50143 0.0
C1878 C 0.37421 0.90773 0.51908 0.0
C1879 C 0.40598 0.91861 0.52481 0.0
C1880 C 0.42336 0.92379 0.53718 0.0
C1881 C 0.37409 0.90793 0.50076 0.0
C1882 C 0.39021 0.913 0.49432 0.0
C1883 C 0.40585 0.9188 0.50644 0.0
C1884 C 0.39133 0.91084 0.47498 0.0
C1885 C 0.35673 0.9024 0.4884 0.0
C1886 C 0.3879 0.89376 0.46506 0.0
C1887 C 0.38885 0.89143 0.44684 0.0
C1888 C 0.39332 0.90614 0.43812 0.0
C1889 C 0.39699 0.92327 0.44814 0.0
C1890 C 0.39609 0.92558 0.46647 0.0
H1891 H 0.34512 0.9039 0.49554 0.0
H1892 H 0.35598 0.91037 0.47723 0.0
H1893 H 0.35573 0.88817 0.48271 0.0
H1894 H 0.38452 0.88218 0.47144 0.0
H1895 H 0.38602 0.87804 0.4396 0.0
H1896 H 0.17602 0.38454 0.42381 0.0
H1897 H 0.17908 0.3833 0.45574 0.0
H1898 H 0.12217 0.36997 0.45202 0.0
H1899 H 0.11893 0.37106 0.4199 0.0
H1900 H 0.16388 0.40299 0.48243 0.0
H1901 H 0.14227 0.33017 0.47678 0.0
H1902 H 0.14876 0.34071 0.45829 0.0
H1903 H 0.12706 0.34188 0.4646 0.0
C1904 C 0.16411 0.38133 0.42972 0.0
C1905 C 0.14721 0.37779 0.41924 0.0
C1906 C 0.16592 0.38066 0.44801 0.0
C1907 C 0.1509 0.3763 0.45619 0.0
C1908 C 0.13397 0.37306 0.44588 0.0
H1909 H 0.12533 0.3658 0.55939 0.0
H1910 H 0.12729 0.36631 0.52807 0.0
C1911 C 0.13212 0.37378 0.42755 0.0
C1912 C 0.15301 0.37525 0.47553 0.0
H1913 H 0.14566 0.34683 0.50566 0.0
C1914 C 0.16004 0.3907 0.48755 0.0
C1915 C 0.14814 0.35915 0.48212 0.0
C1916 C 0.14128 0.34197 0.46981 0.0
C1917 C 0.16161 0.39065 0.50605 0.0
C1918 C 0.15633 0.37463 0.51264 0.0
C1919 C 0.14975 0.35908 0.50058 0.0
C1920 C 0.15583 0.37403 0.53187 0.0
C1921 C 0.16819 0.40788 0.51836 0.0
C1922 C 0.17133 0.37798 0.5445 0.0
C1923 C 0.17028 0.37776 0.56266 0.0
C1924 C 0.1537 0.37352 0.56838 0.0
C1925 C 0.13834 0.36921 0.55556 0.0
C1926 C 0.13941 0.36945 0.53757 0.0
H1927 H 0.16848 0.4196 0.51113 0.0
H1928 H 0.15963 0.40968 0.52894 0.0
H1929 H 0.18191 0.40752 0.52489 0.0
H1930 H 0.1842 0.38126 0.54034 0.0
H1931 H 0.18235 0.38108 0.57219 0.0
H1932 H 0.63866 0.06985 0.57454 0.0
H1933 H 0.63933 0.06708 0.54223 0.0
H1934 H 0.61855 0.11674 0.54078 0.0
H1935 H 0.61791 0.11964 0.57279 0.0
H1936 H 0.60286 0.08737 0.51175 0.0
H1937 H 0.67694 0.10185 0.52183 0.0
H1938 H 0.66667 0.08448 0.53264 0.0
H1939 H 0.66411 0.10719 0.53951 0.0
C1940 C 0.63395 0.07999 0.56725 0.0
C1941 C 0.62834 0.09502 0.57624 0.0
C1942 C 0.63444 0.07845 0.54884 0.0
C1943 C 0.62916 0.09181 0.53917 0.0
C1944 C 0.62273 0.10631 0.54799 0.0
H1945 H 0.64962 0.13495 0.44562 0.0
H1946 H 0.64733 0.1272 0.47533 0.0
C1947 C 0.62241 0.10795 0.56631 0.0
C1948 C 0.63116 0.09148 0.52009 0.0
H1949 H 0.6622 0.09988 0.49266 0.0
C1950 C 0.61582 0.08979 0.50748 0.0
C1951 C 0.6481 0.0949 0.51465 0.0
C1952 C 0.66497 0.09732 0.5278 0.0
C1953 C 0.61696 0.09184 0.48963 0.0
C1954 C 0.6339 0.09561 0.48426 0.0
C1955 C 0.64925 0.09688 0.4968 0.0
C1956 C 0.63592 0.09975 0.4661 0.0
C1957 C 0.60005 0.09078 0.47682 0.0
C1958 C 0.63053 0.08679 0.45102 0.0
C1959 C 0.63187 0.09117 0.43394 0.0
C1960 C 0.6386 0.10861 0.43164 0.0
C1961 C 0.64432 0.12142 0.44685 0.0
C1962 C 0.64306 0.11701 0.46387 0.0
H1963 H 0.58812 0.09065 0.48372 0.0
H1964 H 0.60078 0.10222 0.4692 0.0
H1965 H 0.59832 0.07838 0.46714 0.0
H1966 H 0.62519 0.07333 0.45245 0.0
H1967 H 0.62737 0.08096 0.42254 0.0
H1968 H 0.89933 0.38808 0.44433 0.0
H1969 H 0.89222 0.38619 0.4743 0.0
H1970 H 0.83641 0.37325 0.45339 0.0
H1971 H 0.84342 0.375 0.42319 0.0
H1972 H 0.86968 0.40518 0.49388 0.0
H1973 H 0.84631 0.33218 0.48193 0.0
H1974 H 0.85898 0.34321 0.46707 0.0
H1975 H 0.83584 0.34519 0.4668 0.0
C1976 C 0.88551 0.38492 0.44605 0.0
C1977 C 0.87195 0.38161 0.43129 0.0
C1978 C 0.88148 0.38384 0.46322 0.0
C1979 C 0.86382 0.37931 0.46606 0.0
C1980 C 0.85017 0.37646 0.45147 0.0
H1981 H 0.82735 0.36105 0.5681 0.0
H1982 H 0.8275 0.36388 0.53647 0.0
C1983 C 0.85419 0.3776 0.43423 0.0
C1984 C 0.85994 0.37754 0.48436 0.0
H1985 H 0.84618 0.34715 0.51075 0.0
C1986 C 0.86442 0.39252 0.49754 0.0
C1987 C 0.85298 0.36103 0.48911 0.0
C1988 C 0.84833 0.34441 0.47557 0.0
C1989 C 0.86243 0.39139 0.51538 0.0
C1990 C 0.85613 0.37474 0.52026 0.0
C1991 C 0.85105 0.35988 0.50699 0.0
C1992 C 0.85589 0.37234 0.53922 0.0
C1993 C 0.86717 0.40805 0.52886 0.0
C1994 C 0.87184 0.37566 0.55113 0.0
C1995 C 0.87182 0.37405 0.56909 0.0
C1996 C 0.85583 0.36894 0.57561 0.0
C1997 C 0.83989 0.36505 0.56355 0.0
C1998 C 0.83994 0.36668 0.54548 0.0
H1999 H 0.86654 0.42024 0.52243 0.0
H2000 H 0.85815 0.40813 0.53913 0.0
H2001 H 0.88099 0.40865 0.53561 0.0
H2002 H 0.88437 0.37962 0.54653 0.0
H2003 H 0.88438 0.37702 0.57792 0.0
H2004 H 0.64065 0.93402 0.60772 0.0
H2005 H 0.64112 0.93899 0.57668 0.0
H2006 H 0.63123 0.88227 0.55969 0.0
H2007 H 0.63064 0.87716 0.5904 0.0
H2008 H 0.66406 0.92575 0.55274 0.0
H2009 H 0.59298 0.90144 0.52744 0.0
H2010 H 0.60123 0.90775 0.55087 0.0
H2011 H 0.60353 0.88618 0.53972 0.0
C2012 C 0.63845 0.92262 0.59734 0.0
C2013 C 0.63554 0.90519 0.60153 0.0
C2014 C 0.63875 0.92549 0.57965 0.0
C2015 C 0.63593 0.911 0.5659 0.0
C2016 C 0.63308 0.89364 0.57008 0.0
H2017 H 0.64039 0.87832 0.45778 0.0
H2018 H 0.63809 0.88305 0.48944 0.0
C2019 C 0.63285 0.89076 0.58767 0.0
C2020 C 0.63659 0.91371 0.54716 0.0
H2021 H 0.61282 0.90242 0.50554 0.0
C2022 C 0.65278 0.92101 0.54241 0.0
C2023 C 0.62182 0.90756 0.53378 0.0
C2024 C 0.60385 0.90045 0.5382 0.0
C2025 C 0.65491 0.92124 0.52446 0.0
C2026 C 0.64039 0.91417 0.51105 0.0
C2027 C 0.62396 0.90773 0.51588 0.0
C2028 C 0.64233 0.9118 0.49193 0.0
C2029 C 0.67288 0.9281 0.5199 0.0
C2030 C 0.6455 0.92645 0.48284 0.0
C2031 C 0.64683 0.9238 0.46463 0.0
C2032 C 0.64498 0.90645 0.45527 0.0
C2033 C 0.64191 0.89186 0.46453 0.0
C2034 C 0.64055 0.89453 0.48264 0.0
H2035 H 0.68337 0.9308 0.53174 0.0
H2036 H 0.6769 0.91835 0.50969 0.0
H2037 H 0.6721 0.94068 0.51423 0.0
H2038 H 0.64669 0.9399 0.48976 0.0
H2039 H 0.64914 0.93531 0.45788 0.0
H2040 H 0.06179 0.61851 0.56486 0.0
H2041 H 0.05931 0.61634 0.53219 0.0
H2042 H 0.11573 0.6149 0.53552 0.0
H2043 H 0.11834 0.61691 0.56763 0.0
H2044 H 0.07782 0.63988 0.51172 0.0
H2045 H 0.09406 0.57151 0.4985 0.0
H2046 H 0.08694 0.58009 0.51912 0.0
H2047 H 0.10978 0.58521 0.51575 0.0
C2048 C 0.07361 0.6176 0.55857 0.0
C2049 C 0.09024 0.61781 0.56889 0.0
C2050 C 0.07218 0.61639 0.53994 0.0
C2051 C 0.08729 0.61514 0.53142 0.0
C2052 C 0.10383 0.61545 0.54175 0.0
H2053 H 0.13401 0.62342 0.43901 0.0
H2054 H 0.12463 0.62097 0.46805 0.0
C2055 C 0.10529 0.61672 0.5602 0.0
C2056 C 0.08637 0.61416 0.51183 0.0
H2057 H 0.0995 0.59041 0.47617 0.0
C2058 C 0.08211 0.62888 0.50379 0.0
C2059 C 0.09196 0.59978 0.50151 0.0
C2060 C 0.09577 0.58317 0.50912 0.0
C2061 C 0.08449 0.63012 0.48603 0.0
C2062 C 0.0912 0.61624 0.47613 0.0
C2063 C 0.09449 0.60109 0.48386 0.0
C2064 C 0.09647 0.61787 0.45836 0.0
C2065 C 0.08084 0.64667 0.47825 0.0
C2066 C 0.08369 0.61682 0.44326 0.0
C2067 C 0.08901 0.61812 0.42654 0.0
C2068 C 0.1072 0.62055 0.4247 0.0
C2069 C 0.1199 0.6216 0.43992 0.0
C2070 C 0.11458 0.62018 0.45654 0.0
H2071 H 0.07711 0.6569 0.48818 0.0
H2072 H 0.09277 0.65251 0.47296 0.0
H2073 H 0.0698 0.64313 0.46696 0.0
H2074 H 0.06964 0.61487 0.44439 0.0
H2075 H 0.07888 0.61726 0.4151 0.0
H2076 H 0.38108 0.11767 0.59 0.0
H2077 H 0.38391 0.11762 0.55867 0.0
H2078 H 0.39947 0.17457 0.56817 0.0
H2079 H 0.39684 0.17477 0.59987 0.0
H2080 H 0.36675 0.13567 0.53323 0.0
H2081 H 0.44018 0.15557 0.5442 0.0
H2082 H 0.42817 0.14782 0.56125 0.0
H2083 H 0.42778 0.17011 0.55633 0.0
C2084 C 0.38506 0.13025 0.5855 0.0
C2085 C 0.38887 0.14624 0.5975 0.0
C2086 C 0.38664 0.13017 0.56754 0.0
C2087 C 0.39216 0.14602 0.56116 0.0
C2088 C 0.39549 0.16213 0.57293 0.0
H2089 H 0.41109 0.16975 0.45745 0.0
H2090 H 0.40931 0.16992 0.48901 0.0
C2091 C 0.39386 0.16224 0.59098 0.0
C2092 C 0.39448 0.14546 0.54217 0.0
H2093 H 0.42566 0.1522 0.51457 0.0
C2094 C 0.37962 0.13927 0.52913 0.0
C2095 C 0.41131 0.15007 0.53689 0.0
C2096 C 0.42784 0.15613 0.55035 0.0
C2097 C 0.38108 0.13784 0.51091 0.0
C2098 C 0.39793 0.14238 0.50563 0.0
C2099 C 0.41278 0.14861 0.51867 0.0
C2100 C 0.40023 0.14166 0.48661 0.0
C2101 C 0.36449 0.1319 0.4975 0.0
C2102 C 0.39624 0.12558 0.47482 0.0
C2103 C 0.39723 0.12541 0.45664 0.0
C2104 C 0.40227 0.14134 0.45001 0.0
C2105 C 0.40704 0.15725 0.46205 0.0
C2106 C 0.40605 0.15739 0.48014 0.0
H2107 H 0.3522 0.13291 0.50365 0.0
H2108 H 0.36433 0.13999 0.48642 0.0
H2109 H 0.36422 0.11778 0.49179 0.0
H2110 H 0.39206 0.11322 0.47963 0.0
H2111 H 0.39352 0.11294 0.44774 0.0
H2112 H 0.44477 0.89254 0.64152 0.0
H2113 H 0.47557 0.88722 0.64321 0.0
H2114 H 0.45811 0.83096 0.62746 0.0
H2115 H 0.42694 0.83617 0.62559 0.0
H2116 H 0.49265 0.86464 0.66494 0.0
H2117 H 0.49355 0.84456 0.5925 0.0
H2118 H 0.47644 0.85624 0.60059 0.0
H2119 H 0.47631 0.83313 0.60261 0.0
C2120 C 0.44737 0.879 0.63836 0.0
C2121 C 0.43333 0.86478 0.63337 0.0
C2122 C 0.46503 0.876 0.63936 0.0
C2123 C 0.46912 0.85874 0.63533 0.0
C2124 C 0.45521 0.84443 0.6304 0.0
H2125 H 0.58021 0.83773 0.63486 0.0
H2126 H 0.54764 0.83212 0.6331 0.0
C2127 C 0.43743 0.84742 0.62942 0.0
C2128 C 0.48807 0.85607 0.63663 0.0
H2129 H 0.52077 0.8478 0.61151 0.0
C2130 C 0.49876 0.8607 0.65329 0.0
C2131 C 0.49597 0.85083 0.62144 0.0
C2132 C 0.48508 0.84597 0.60321 0.0
C2133 C 0.51725 0.86094 0.65507 0.0
C2134 C 0.52529 0.85668 0.63974 0.0
C2135 C 0.51453 0.8511 0.62321 0.0
C2136 C 0.54489 0.85977 0.64042 0.0
C2137 C 0.52811 0.86618 0.67329 0.0
C2138 C 0.55401 0.87717 0.64476 0.0
C2139 C 0.57247 0.88042 0.64571 0.0
C2140 C 0.58227 0.86632 0.6423 0.0
C2141 C 0.57307 0.84887 0.63765 0.0
C2142 C 0.55449 0.84564 0.63662 0.0
H2143 H 0.51988 0.86403 0.684 0.0
H2144 H 0.53945 0.85852 0.67485 0.0
H2145 H 0.53355 0.88055 0.67505 0.0
H2146 H 0.54681 0.8883 0.64744 0.0
H2147 H 0.57906 0.89404 0.64925 0.0
H2148 H 0.45613 0.19725 0.40363 0.0
H2149 H 0.48807 0.19895 0.40131 0.0
H2150 H 0.48171 0.14181 0.38828 0.0
H2151 H 0.45014 0.13995 0.39053 0.0
H2152 H 0.51433 0.18089 0.42086 0.0
H2153 H 0.50674 0.16067 0.34788 0.0
H2154 H 0.48933 0.16909 0.35887 0.0
H2155 H 0.49281 0.14629 0.3589 0.0
C2156 C 0.46155 0.18508 0.4002 0.0
C2157 C 0.45053 0.16848 0.39722 0.0
C2158 C 0.47978 0.18607 0.39891 0.0
C2159 C 0.48719 0.17051 0.39437 0.0
C2160 C 0.47622 0.154 0.3915 0.0
H2161 H 0.58222 0.12747 0.38238 0.0
H2162 H 0.55237 0.13505 0.38361 0.0
C2163 C 0.45815 0.15298 0.39289 0.0
C2164 C 0.50643 0.17114 0.393 0.0
H2165 H 0.53471 0.15796 0.36449 0.0
C2166 C 0.51889 0.17622 0.40849 0.0
C2167 C 0.51231 0.16502 0.37684 0.0
C2168 C 0.49963 0.16011 0.35963 0.0
C2169 C 0.53694 0.17431 0.40846 0.0
C2170 C 0.54267 0.16743 0.39243 0.0
C2171 C 0.53031 0.16314 0.37679 0.0
C2172 C 0.56105 0.16325 0.39181 0.0
C2173 C 0.54954 0.17876 0.42575 0.0
C2174 C 0.57593 0.17662 0.39587 0.0
C2175 C 0.59313 0.17231 0.39521 0.0
C2176 C 0.59575 0.15455 0.39039 0.0
C2177 C 0.58076 0.14127 0.38617 0.0
C2178 C 0.56364 0.14558 0.38685 0.0
H2179 H 0.54236 0.18059 0.43744 0.0
H2180 H 0.55794 0.16811 0.42743 0.0
H2181 H 0.55848 0.19134 0.42561 0.0
H2182 H 0.57424 0.19039 0.39943 0.0
H2183 H 0.60436 0.18288 0.39846 0.0
H2184 H 0.94498 0.58419 0.37786 0.0
H2185 H 0.94985 0.55339 0.38069 0.0
H2186 H 0.89375 0.53543 0.36454 0.0
H2187 H 0.88879 0.56572 0.36164 0.0
H2188 H 0.93293 0.53014 0.40295 0.0
H2189 H 0.91777 0.50208 0.33153 0.0
H2190 H 0.92354 0.5257 0.33912 0.0
H2191 H 0.90121 0.51482 0.33881 0.0
C2192 C 0.93375 0.57362 0.37476 0.0
C2193 C 0.91651 0.57743 0.36949 0.0
C2194 C 0.93654 0.55607 0.37642 0.0
C2195 C 0.92219 0.54211 0.37258 0.0
C2196 C 0.90506 0.54593 0.36726 0.0
H2197 H 0.88534 0.43481 0.37816 0.0
H2198 H 0.89126 0.46631 0.37518 0.0
C2199 C 0.90225 0.56333 0.36571 0.0
C2200 C 0.92456 0.52352 0.3747 0.0
H2201 H 0.91488 0.48116 0.35234 0.0
C2202 C 0.92939 0.51942 0.39186 0.0
C2203 C 0.91994 0.50959 0.36019 0.0
C2204 C 0.91549 0.51326 0.34134 0.0
C2205 C 0.92857 0.50163 0.39504 0.0
C2206 C 0.92295 0.48771 0.38065 0.0
C2207 C 0.91904 0.49187 0.36337 0.0
C2208 C 0.91968 0.46877 0.3833 0.0
C2209 C 0.93274 0.49782 0.41386 0.0
C2210 C 0.93372 0.45969 0.38891 0.0
C2211 C 0.93038 0.44159 0.39062 0.0
C2212 C 0.91294 0.43228 0.38672 0.0
C2213 C 0.89892 0.44153 0.3813 0.0
C2214 C 0.90228 0.45955 0.37956 0.0
H2215 H 0.93442 0.51005 0.42379 0.0
H2216 H 0.92199 0.48802 0.41696 0.0
H2217 H 0.94527 0.49192 0.41527 0.0
H2218 H 0.94727 0.46652 0.39166 0.0
H2219 H 0.94149 0.43486 0.39477 0.0
H2220 H 0.43624 0.84275 0.38376 0.0
H2221 H 0.4678 0.83891 0.38604 0.0
H2222 H 0.48279 0.89591 0.39618 0.0
H2223 H 0.45158 0.89988 0.3941 0.0
H2224 H 0.49384 0.85214 0.36572 0.0
H2225 H 0.5126 0.87884 0.43726 0.0
H2226 H 0.48974 0.87201 0.42709 0.0
H2227 H 0.50117 0.89353 0.42498 0.0
C2228 C 0.44627 0.85445 0.38659 0.0
C2229 C 0.44135 0.87162 0.38885 0.0
C2230 C 0.46428 0.85223 0.38786 0.0
C2231 C 0.47765 0.86712 0.39157 0.0
C2232 C 0.47274 0.88422 0.39368 0.0
H2233 H 0.58878 0.89942 0.39815 0.0
H2234 H 0.55647 0.89553 0.39648 0.0
C2235 C 0.45483 0.88645 0.3924 0.0
C2236 C 0.49678 0.86507 0.39281 0.0
H2237 H 0.53655 0.87752 0.41999 0.0
C2238 C 0.50318 0.8574 0.37766 0.0
C2239 C 0.50891 0.87188 0.40843 0.0
C2240 C 0.50275 0.87937 0.42542 0.0
C2241 C 0.52152 0.85728 0.37744 0.0
C2242 C 0.53368 0.86485 0.39282 0.0
C2243 C 0.5272 0.87184 0.40817 0.0
C2244 C 0.55325 0.86676 0.39299 0.0
C2245 C 0.52783 0.84984 0.36053 0.0
C2246 C 0.5622 0.85183 0.39155 0.0
C2247 C 0.58078 0.854 0.39253 0.0
C2248 C 0.59071 0.87115 0.39499 0.0
C2249 C 0.58161 0.88602 0.39623 0.0
C2250 C 0.56311 0.88384 0.39531 0.0
H2251 H 0.51699 0.84715 0.349 0.0
H2252 H 0.53891 0.85921 0.35737 0.0
H2253 H 0.53292 0.83715 0.36238 0.0
H2254 H 0.55485 0.83853 0.39 0.0
H2255 H 0.58737 0.84227 0.39158 0.0
H2256 H 0.12792 0.56755 0.36789 0.0
H2257 H 0.13511 0.53722 0.36648 0.0
H2258 H 0.18826 0.55751 0.39292 0.0
H2259 H 0.18121 0.58802 0.39439 0.0
H2260 H 0.16444 0.52267 0.35062 0.0
H2261 H 0.1672 0.5198 0.42328 0.0
H2262 H 0.15612 0.5359 0.41249 0.0
H2263 H 0.17996 0.53866 0.41668 0.0
C2264 C 0.14116 0.56562 0.37341 0.0
C2265 C 0.15396 0.58025 0.38133 0.0
C2266 C 0.14525 0.54826 0.37254 0.0
C2267 C 0.16217 0.54512 0.3797 0.0
C2268 C 0.17507 0.55965 0.38746 0.0
H2269 H 0.19455 0.43763 0.36511 0.0
H2270 H 0.19606 0.4702 0.36768 0.0
C2271 C 0.17103 0.57707 0.38824 0.0
C2272 C 0.16607 0.52655 0.37915 0.0
H2273 H 0.17166 0.49398 0.40521 0.0
C2274 C 0.16626 0.51643 0.36256 0.0
C2275 C 0.16832 0.51846 0.39476 0.0
C2276 C 0.16781 0.52865 0.41285 0.0
C2277 C 0.16829 0.49832 0.36113 0.0
C2278 C 0.1702 0.49014 0.3767 0.0
C2279 C 0.17037 0.50035 0.39332 0.0
C2280 C 0.17003 0.47062 0.37581 0.0
C2281 C 0.16761 0.48781 0.34294 0.0
C2282 C 0.15507 0.46016 0.3798 0.0
C2283 C 0.15414 0.44169 0.37826 0.0
C2284 C 0.16824 0.4332 0.37286 0.0
C2285 C 0.18347 0.44374 0.36929 0.0
C2286 C 0.18432 0.46232 0.37069 0.0
H2287 H 0.16412 0.49565 0.33207 0.0
H2288 H 0.18081 0.48363 0.34164 0.0
H2289 H 0.15771 0.47556 0.34123 0.0
H2290 H 0.14392 0.4663 0.38379 0.0
H2291 H 0.14225 0.43404 0.38124 0.0
H2292 H 0.44625 0.15017 0.6553 0.0
H2293 H 0.47751 0.14975 0.65252 0.0
H2294 H 0.46786 0.09246 0.6405 0.0
H2295 H 0.43623 0.09273 0.64297 0.0
H2296 H 0.5033 0.13371 0.67043 0.0
H2297 H 0.49095 0.10745 0.59817 0.0
H2298 H 0.47397 0.11577 0.60987 0.0
H2299 H 0.47953 0.09394 0.61197 0.0
C2300 C 0.45071 0.13742 0.65214 0.0
C2301 C 0.43867 0.12147 0.64921 0.0
C2302 C 0.46863 0.13723 0.65058 0.0
C2303 C 0.47495 0.12112 0.646 0.0
C2304 C 0.46316 0.10508 0.64369 0.0
H2305 H 0.57869 0.09658 0.62748 0.0
H2306 H 0.5475 0.09609 0.63121 0.0
C2307 C 0.44513 0.10524 0.64525 0.0
C2308 C 0.49385 0.12137 0.64344 0.0
H2309 H 0.52078 0.11167 0.61231 0.0
C2310 C 0.50714 0.12889 0.65773 0.0
C2311 C 0.4988 0.1152 0.62681 0.0
C2312 C 0.4851 0.10777 0.61075 0.0
C2313 C 0.52526 0.13019 0.65591 0.0
C2314 C 0.53019 0.12403 0.63929 0.0
C2315 C 0.51693 0.11644 0.62502 0.0
C2316 C 0.54908 0.12471 0.6366 0.0
C2317 C 0.539 0.13783 0.67187 0.0
C2318 C 0.56027 0.14104 0.63809 0.0
C2319 C 0.57821 0.14141 0.63593 0.0
C2320 C 0.58521 0.12544 0.63225 0.0
C2321 C 0.5738 0.10916 0.6304 0.0
C2322 C 0.55593 0.10881 0.6325 0.0
H2323 H 0.5332 0.13835 0.68449 0.0
H2324 H 0.55013 0.12984 0.67283 0.0
H2325 H 0.54456 0.1516 0.67043 0.0
H2326 H 0.55513 0.15348 0.64096 0.0
H2327 H 0.58662 0.15416 0.63738 0.0
H2328 H 0.89878 0.43722 0.63681 0.0
H2329 H 0.89537 0.46818 0.63385 0.0
H2330 H 0.83836 0.45478 0.6287 0.0
H2331 H 0.84159 0.42386 0.63163 0.0
H2332 H 0.87457 0.4787 0.60306 0.0
H2333 H 0.85077 0.50029 0.667 0.0
H2334 H 0.86261 0.4814 0.66391 0.0
H2335 H 0.83967 0.47953 0.65439 0.0
C2336 C 0.88553 0.4409 0.6353 0.0
C2337 C 0.87046 0.42805 0.63446 0.0
C2338 C 0.88361 0.45858 0.63356 0.0
C2339 C 0.86662 0.46378 0.63119 0.0
C2340 C 0.85159 0.4511 0.63075 0.0
H2341 H 0.83609 0.56905 0.61734 0.0
H2342 H 0.83441 0.5371 0.61967 0.0
C2343 C 0.85348 0.43341 0.63236 0.0
C2344 C 0.8646 0.48222 0.62813 0.0
H2345 H 0.85185 0.52083 0.64644 0.0
C2346 C 0.86959 0.48791 0.61253 0.0
C2347 C 0.85782 0.49409 0.64038 0.0
C2348 C 0.85249 0.48865 0.65744 0.0
C2349 C 0.86818 0.50525 0.60891 0.0
C2350 C 0.862 0.51737 0.62144 0.0
C2351 C 0.85655 0.51153 0.63684 0.0
C2352 C 0.86258 0.5365 0.6195 0.0
C2353 C 0.87328 0.51041 0.59164 0.0
C2354 C 0.87894 0.54674 0.61881 0.0
C2355 C 0.87992 0.56481 0.61744 0.0
C2356 C 0.86457 0.57321 0.61688 0.0
C2357 C 0.84813 0.56297 0.61762 0.0
C2358 C 0.84716 0.54475 0.619 0.0
H2359 H 0.87202 0.49856 0.5813 0.0
H2360 H 0.8649 0.51998 0.58648 0.0
H2361 H 0.88739 0.51679 0.59392 0.0
H2362 H 0.89107 0.54079 0.61961 0.0
H2363 H 0.89285 0.57224 0.61702 0.0
H2364 H 0.09084 0.56514 0.61528 0.0
H2365 H 0.09129 0.53327 0.61424 0.0
H2366 H 0.14868 0.54227 0.62327 0.0
H2367 H 0.14841 0.57446 0.62453 0.0
H2368 H 0.10687 0.51028 0.59134 0.0
H2369 H 0.13528 0.51254 0.66225 0.0
H2370 H 0.12619 0.53105 0.65394 0.0
H2371 H 0.14801 0.52677 0.65003 0.0
C2372 C 0.10362 0.56043 0.61708 0.0
C2373 C 0.11962 0.57239 0.6201 0.0
C2374 C 0.10381 0.54217 0.61644 0.0
C2375 C 0.11998 0.53545 0.6189 0.0
C2376 C 0.13604 0.54726 0.62164 0.0
H2377 H 0.1503 0.4317 0.62033 0.0
H2378 H 0.14819 0.46316 0.62083 0.0
C2379 C 0.13587 0.56561 0.62226 0.0
C2380 C 0.11988 0.51605 0.61849 0.0
H2381 H 0.13158 0.48462 0.64387 0.0
C2382 C 0.11222 0.50463 0.60282 0.0
C2383 C 0.12673 0.50877 0.63356 0.0
C2384 C 0.13439 0.52036 0.65097 0.0
C2385 C 0.11165 0.4861 0.60167 0.0
C2386 C 0.11866 0.47884 0.61668 0.0
C2387 C 0.12616 0.49026 0.6324 0.0
C2388 C 0.11943 0.45954 0.61608 0.0
C2389 C 0.10403 0.47449 0.58426 0.0
C2390 C 0.10388 0.447 0.61331 0.0
C2391 C 0.10501 0.42881 0.61297 0.0
C2392 C 0.12172 0.42297 0.61549 0.0
C2393 C 0.13719 0.43566 0.61833 0.0
C2394 C 0.13604 0.45371 0.61865 0.0
H2395 H 0.10257 0.48236 0.57305 0.0
H2396 H 0.1126 0.4642 0.58104 0.0
H2397 H 0.09067 0.46756 0.5854 0.0
H2398 H 0.0909 0.45129 0.61157 0.0
H2399 H 0.09286 0.41939 0.61083 0.0
H2400 H 0.14003 0.19102 0.38154 0.0
H2401 H 0.14637 0.22185 0.37671 0.0
H2402 H 0.16721 0.20508 0.32855 0.0
H2403 H 0.16069 0.17379 0.33325 0.0
H2404 H 0.18063 0.23954 0.37495 0.0
H2405 H 0.13295 0.24034 0.3138 0.0
H2406 H 0.13052 0.22283 0.32745 0.0
H2407 H 0.14744 0.22356 0.31324 0.0
C2408 C 0.14576 0.19378 0.36977 0.0
C2409 C 0.14989 0.17991 0.35779 0.0
C2410 C 0.14943 0.21146 0.36707 0.0
C2411 C 0.15731 0.2158 0.35233 0.0
C2412 C 0.16098 0.20202 0.33995 0.0
H2413 H 0.19509 0.33151 0.35753 0.0
H2414 H 0.19583 0.29921 0.35278 0.0
C2415 C 0.15722 0.18416 0.34262 0.0
C2416 C 0.16212 0.23489 0.35065 0.0
H2417 H 0.14949 0.26766 0.32752 0.0
C2418 C 0.17408 0.24569 0.36442 0.0
C2419 C 0.1535 0.24284 0.33692 0.0
C2420 C 0.1403 0.2319 0.32202 0.0
C2421 C 0.17694 0.26432 0.36536 0.0
C2422 C 0.16781 0.27235 0.35198 0.0
C2423 C 0.15654 0.26146 0.33771 0.0
C2424 C 0.16776 0.29192 0.35386 0.0
C2425 C 0.1888 0.2753 0.38125 0.0
C2426 C 0.15174 0.29852 0.35571 0.0
C2427 C 0.15127 0.3168 0.35835 0.0
C2428 C 0.16683 0.32905 0.35918 0.0
C2429 C 0.1829 0.32246 0.35708 0.0
C2430 C 0.18335 0.30402 0.3544 0.0
H2431 H 0.19259 0.26715 0.39178 0.0
H2432 H 0.20117 0.28143 0.37695 0.0
H2433 H 0.18209 0.2862 0.38709 0.0
H2434 H 0.13957 0.28948 0.35541 0.0
H2435 H 0.13862 0.3213 0.35985 0.0
H2436 H 0.83824 0.11953 0.39586 0.0
H2437 H 0.80703 0.12252 0.39623 0.0
H2438 H 0.8053 0.14375 0.34653 0.0
H2439 H 0.83677 0.14039 0.34589 0.0
H2440 H 0.79313 0.15334 0.39802 0.0
H2441 H 0.76041 0.10717 0.33748 0.0
H2442 H 0.78319 0.10707 0.34705 0.0
H2443 H 0.77768 0.12401 0.33393 0.0
C2444 C 0.83121 0.12464 0.38485 0.0
C2445 C 0.84001 0.12976 0.37085 0.0
C2446 C 0.81334 0.12638 0.38512 0.0
C2447 C 0.80376 0.13334 0.37143 0.0
C2448 C 0.81233 0.13808 0.35712 0.0
H2449 H 0.70189 0.16999 0.38946 0.0
H2450 H 0.7328 0.16946 0.38437 0.0
C2451 C 0.83031 0.13618 0.35677 0.0
C2452 C 0.78512 0.1363 0.3729 0.0
H2453 H 0.74189 0.12334 0.35361 0.0
C2454 C 0.78192 0.14686 0.38826 0.0
C2455 C 0.77049 0.12775 0.36022 0.0
C2456 C 0.77301 0.11574 0.3438 0.0
C2457 C 0.76456 0.14874 0.39152 0.0
C2458 C 0.74992 0.14018 0.37885 0.0
C2459 C 0.75311 0.12995 0.36329 0.0
C2460 C 0.73118 0.14078 0.38197 0.0
C2461 C 0.76208 0.15924 0.40888 0.0
C2462 C 0.71986 0.12485 0.38203 0.0
C2463 C 0.70218 0.12511 0.38476 0.0
C2464 C 0.69538 0.14132 0.38753 0.0
C2465 C 0.70676 0.1573 0.3876 0.0
C2466 C 0.72445 0.15701 0.38472 0.0
H2467 H 0.77424 0.16106 0.41891 0.0
H2468 H 0.75915 0.17264 0.40648 0.0
H2469 H 0.75079 0.15257 0.41453 0.0
H2470 H 0.72472 0.11216 0.37997 0.0
H2471 H 0.6938 0.11254 0.38457 0.0
H2472 H 0.90221 0.82414 0.39528 0.0
H2473 H 0.90562 0.79291 0.39101 0.0
H2474 H 0.88229 0.78802 0.33597 0.0
H2475 H 0.87911 0.81986 0.34006 0.0
H2476 H 0.87926 0.76498 0.38185 0.0
H2477 H 0.92699 0.76392 0.33282 0.0
H2478 H 0.92286 0.78434 0.34517 0.0
H2479 H 0.90707 0.77317 0.32649 0.0
C2480 C 0.8978 0.81655 0.38219 0.0
C2481 C 0.89027 0.82456 0.36801 0.0
C2482 C 0.89982 0.79863 0.37978 0.0
C2483 C 0.89435 0.78811 0.36317 0.0
C2484 C 0.88689 0.79596 0.34885 0.0
H2485 H 0.87592 0.67299 0.35431 0.0
H2486 H 0.87368 0.70418 0.35258 0.0
C2487 C 0.88496 0.81411 0.35123 0.0
C2488 C 0.89579 0.7688 0.36149 0.0
H2489 H 0.91632 0.73624 0.34131 0.0
C2490 C 0.88731 0.7587 0.37292 0.0
C2491 C 0.90652 0.76068 0.35004 0.0
C2492 C 0.91653 0.77106 0.33801 0.0
C2493 C 0.88933 0.74079 0.37334 0.0
C2494 C 0.89977 0.73255 0.36166 0.0
C2495 C 0.90827 0.74258 0.35018 0.0
C2496 C 0.9017 0.71343 0.36117 0.0
C2497 C 0.88059 0.731 0.38663 0.0
C2498 C 0.91837 0.70814 0.36593 0.0
C2499 C 0.91976 0.69014 0.36684 0.0
C2500 C 0.90448 0.67721 0.36301 0.0
C2501 C 0.88795 0.68258 0.35764 0.0
C2502 C 0.8866 0.70045 0.35663 0.0
H2503 H 0.87727 0.74033 0.39765 0.0
H2504 H 0.86802 0.72276 0.37981 0.0
H2505 H 0.88934 0.72203 0.39241 0.0
H2506 H 0.93021 0.71797 0.36941 0.0
H2507 H 0.93269 0.68643 0.37091 0.0
H2508 H 0.19897 0.87482 0.39371 0.0
H2509 H 0.22985 0.87383 0.39012 0.0
H2510 H 0.21718 0.87507 0.33381 0.0
H2511 H 0.18566 0.87584 0.33725 0.0
H2512 H 0.24142 0.85009 0.34368 0.0
H2513 H 0.2626 0.91784 0.3811 0.0
H2514 H 0.24926 0.90368 0.39284 0.0
H2515 H 0.23968 0.90953 0.37205 0.0
C2516 C 0.20261 0.87492 0.3805 0.0
C2517 C 0.18984 0.87571 0.36578 0.0
C2518 C 0.22034 0.87434 0.3785 0.0
C2519 C 0.22587 0.87473 0.36179 0.0
C2520 C 0.21316 0.87489 0.34686 0.0
H2521 H 0.34 0.90041 0.36343 0.0
H2522 H 0.3079 0.89919 0.35633 0.0
C2523 C 0.19521 0.87537 0.34884 0.0
C2524 C 0.24508 0.87545 0.36046 0.0
H2525 H 0.28535 0.89931 0.37865 0.0
C2526 C 0.25108 0.86096 0.35105 0.0
C2527 C 0.25762 0.88975 0.3699 0.0
C2528 C 0.25197 0.90617 0.3794 0.0
C2529 C 0.26939 0.86005 0.35153 0.0
C2530 C 0.28192 0.87382 0.36202 0.0
C2531 C 0.27582 0.88863 0.37076 0.0
C2532 C 0.30144 0.8733 0.36441 0.0
C2533 C 0.27507 0.8444 0.34079 0.0
C2534 C 0.30863 0.85906 0.37116 0.0
C2535 C 0.32711 0.85962 0.37502 0.0
C2536 C 0.33867 0.87464 0.37261 0.0
C2537 C 0.33144 0.88873 0.36564 0.0
C2538 C 0.31307 0.88803 0.3615 0.0
H2539 H 0.26471 0.83847 0.32934 0.0
H2540 H 0.28773 0.8483 0.33569 0.0
H2541 H 0.27708 0.83395 0.34937 0.0
H2542 H 0.29997 0.84775 0.37399 0.0
H2543 H 0.33231 0.84861 0.38045 0.0
H2544 H 0.12677 0.82511 0.64573 0.0
H2545 H 0.12838 0.79351 0.64609 0.0
H2546 H 0.12707 0.78572 0.58909 0.0
H2547 H 0.12488 0.81731 0.58855 0.0
H2548 H 0.10578 0.75995 0.59899 0.0
H2549 H 0.1709 0.76838 0.64189 0.0
H2550 H 0.15538 0.78021 0.65243 0.0
H2551 H 0.16249 0.78656 0.63228 0.0
C2552 C 0.1268 0.81668 0.63325 0.0
C2553 C 0.12576 0.82373 0.61711 0.0
C2554 C 0.12792 0.79864 0.63351 0.0
C2555 C 0.12836 0.78733 0.61769 0.0
C2556 C 0.12694 0.79424 0.60149 0.0
H2557 H 0.1518 0.67771 0.61832 0.0
H2558 H 0.1543 0.70955 0.61557 0.0
C2559 C 0.12562 0.81228 0.6012 0.0
C2560 C 0.12958 0.76816 0.61801 0.0
H2561 H 0.15311 0.73957 0.63866 0.0
C2562 C 0.11624 0.75551 0.60752 0.0
C2563 C 0.14345 0.76229 0.62885 0.0
C2564 C 0.15896 0.77508 0.63934 0.0
C2565 C 0.11596 0.73723 0.60813 0.0
C2566 C 0.12908 0.73147 0.61996 0.0
C2567 C 0.14288 0.74403 0.62985 0.0
C2568 C 0.12824 0.71254 0.62267 0.0
C2569 C 0.1016 0.72429 0.59605 0.0
C2570 C 0.11309 0.70388 0.62821 0.0
C2571 C 0.11159 0.68579 0.62966 0.0
C2572 C 0.12535 0.67601 0.6259 0.0
C2573 C 0.14098 0.68489 0.62129 0.0
C2574 C 0.14239 0.70305 0.61966 0.0
H2575 H 0.0965 0.73007 0.58413 0.0
H2576 H 0.10655 0.71169 0.59154 0.0
H2577 H 0.09026 0.72112 0.60337 0.0
H2578 H 0.10226 0.71107 0.63116 0.0
H2579 H 0.09948 0.6794 0.63349 0.0
H2580 H 0.18568 0.11838 0.65663 0.0
H2581 H 0.21717 0.11473 0.66236 0.0
H2582 H 0.22359 0.12458 0.60911 0.0
H2583 H 0.19223 0.12786 0.60317 0.0
H2584 H 0.23786 0.09509 0.61775 0.0
H2585 H 0.26062 0.15303 0.67095 0.0
H2586 H 0.24254 0.13742 0.67505 0.0
H2587 H 0.23928 0.15022 0.65709 0.0
C2588 C 0.19387 0.11999 0.64624 0.0
C2589 C 0.18646 0.12345 0.62946 0.0
C2590 C 0.21186 0.1179 0.64953 0.0
C2591 C 0.22275 0.11948 0.63619 0.0
C2592 C 0.21542 0.12324 0.61958 0.0
H2593 H 0.33318 0.14375 0.63624 0.0
H2594 H 0.30113 0.14141 0.63547 0.0
C2595 C 0.19749 0.12519 0.61624 0.0
C2596 C 0.24174 0.11698 0.63918 0.0
H2597 H 0.28211 0.13536 0.66285 0.0
C2598 C 0.24755 0.10379 0.62772 0.0
C2599 C 0.25432 0.12837 0.65217 0.0
C2600 C 0.24898 0.14316 0.66445 0.0
C2601 C 0.26567 0.10209 0.62844 0.0
C2602 C 0.27827 0.1137 0.64121 0.0
C2603 C 0.27239 0.12643 0.65312 0.0
C2604 C 0.29771 0.11431 0.64119 0.0
C2605 C 0.27126 0.08852 0.61497 0.0
C2606 C 0.30647 0.09972 0.64446 0.0
C2607 C 0.32496 0.10095 0.64475 0.0
C2608 C 0.33491 0.11688 0.642 0.0
C2609 C 0.32597 0.13131 0.63853 0.0
C2610 C 0.30762 0.13003 0.63812 0.0
H2611 H 0.26025 0.08292 0.60403 0.0
H2612 H 0.28273 0.09454 0.60911 0.0
H2613 H 0.27547 0.07739 0.62168 0.0
H2614 H 0.29909 0.08753 0.64709 0.0
H2615 H 0.33149 0.08966 0.64759 0.0
H2616 H 0.9029 0.19096 0.67807 0.0
H2617 H 0.90672 0.22362 0.68038 0.0
H2618 H 0.90203 0.2194 0.6232 0.0
H2619 H 0.89864 0.18718 0.62079 0.0
H2620 H 0.92831 0.24627 0.63989 0.0
H2621 H 0.86502 0.2503 0.66793 0.0
H2622 H 0.88157 0.24023 0.68033 0.0
H2623 H 0.87103 0.22941 0.65869 0.0
C2624 C 0.90286 0.19703 0.66603 0.0
C2625 C 0.90027 0.18642 0.64925 0.0
C2626 C 0.90496 0.21568 0.66736 0.0
C2627 C 0.90441 0.22395 0.65193 0.0
C2628 C 0.9025 0.21335 0.63528 0.0
H2629 H 0.86697 0.31539 0.62063 0.0
H2630 H 0.87408 0.28649 0.62696 0.0
C2631 C 0.90046 0.19486 0.63395 0.0
C2632 C 0.90478 0.24349 0.6526 0.0
H2633 H 0.87952 0.27655 0.66049 0.0
C2634 C 0.91781 0.25301 0.64465 0.0
C2635 C 0.89098 0.25219 0.65869 0.0
C2636 C 0.87625 0.24255 0.66678 0.0
C2637 C 0.91695 0.27072 0.64187 0.0
C2638 C 0.90283 0.27921 0.64746 0.0
C2639 C 0.89032 0.26998 0.6562 0.0
C2640 C 0.8996 0.29691 0.6428 0.0
C2641 C 0.93053 0.27984 0.63206 0.0
C2642 C 0.91178 0.31241 0.64929 0.0
C2643 C 0.9078 0.32907 0.64552 0.0
C2644 C 0.8915 0.33046 0.63537 0.0
C2645 C 0.87962 0.31483 0.62853 0.0
C2646 C 0.88363 0.29828 0.63219 0.0
H2647 H 0.93859 0.27037 0.62583 0.0
H2648 H 0.92392 0.28652 0.62153 0.0
H2649 H 0.9397 0.29018 0.64155 0.0
H2650 H 0.92408 0.3117 0.65769 0.0
H2651 H 0.91715 0.34088 0.65112 0.0
H2652 H 0.69338 0.90271 0.66334 0.0
H2653 H 0.72537 0.90217 0.66773 0.0
H2654 H 0.71663 0.8458 0.64881 0.0
H2655 H 0.68434 0.84611 0.64461 0.0
H2656 H 0.74298 0.85628 0.67955 0.0
H2657 H 0.75426 0.89759 0.62628 0.0
H2658 H 0.74253 0.90744 0.64295 0.0
H2659 H 0.73242 0.88716 0.62883 0.0
C2660 C 0.69818 0.89016 0.66007 0.0
C2661 C 0.68628 0.87447 0.65342 0.0
C2662 C 0.71651 0.8899 0.66259 0.0
C2663 C 0.72337 0.87402 0.65834 0.0
C2664 C 0.71157 0.85822 0.65211 0.0
H2665 H 0.82894 0.86577 0.6361 0.0
H2666 H 0.7971 0.86371 0.63667 0.0
C2667 C 0.69315 0.85843 0.64965 0.0
C2668 C 0.74288 0.87413 0.65994 0.0
H2669 H 0.77989 0.89215 0.64434 0.0
C2670 C 0.75109 0.86407 0.67185 0.0
C2671 C 0.75336 0.88422 0.64976 0.0
C2672 C 0.74521 0.89459 0.63611 0.0
C2673 C 0.7696 0.86393 0.67391 0.0
C2674 C 0.78009 0.87431 0.66397 0.0
C2675 C 0.77183 0.88433 0.65208 0.0
C2676 C 0.79952 0.87415 0.66462 0.0
C2677 C 0.7777 0.85238 0.68635 0.0
C2678 C 0.81154 0.88049 0.68027 0.0
C2679 C 0.82996 0.88162 0.68003 0.0
C2680 C 0.83653 0.87664 0.66407 0.0
C2681 C 0.82437 0.86992 0.64859 0.0
C2682 C 0.80612 0.86868 0.64888 0.0
H2683 H 0.76747 0.84241 0.69005 0.0
H2684 H 0.78769 0.84528 0.6802 0.0
H2685 H 0.7846 0.86091 0.69873 0.0
H2686 H 0.80673 0.88506 0.69251 0.0
H2687 H 0.83901 0.88689 0.69214 0.0
H2688 H 0.34412 0.12472 0.19243 0.0
H2689 H 0.34331 0.1208 0.22366 0.0
H2690 H 0.39837 0.14455 0.23687 0.0
H2691 H 0.39942 0.14818 0.20584 0.0
H2692 H 0.39134 0.1139 0.25147 0.0
H2693 H 0.34195 0.15942 0.26513 0.0
H2694 H 0.33483 0.1417 0.24687 0.0
H2695 H 0.35268 0.15889 0.24544 0.0
C2696 C 0.35601 0.1292 0.20202 0.0
C2697 C 0.37182 0.13682 0.19663 0.0
C2698 C 0.35552 0.12699 0.21987 0.0
C2699 C 0.37075 0.13253 0.23264 0.0
C2700 C 0.38647 0.14015 0.22725 0.0
H2701 H 0.39026 0.16381 0.34382 0.0
H2702 H 0.38407 0.15979 0.31151 0.0
C2703 C 0.38702 0.14226 0.20948 0.0
C2704 C 0.37061 0.13045 0.25166 0.0
H2705 H 0.35348 0.14553 0.28886 0.0
C2706 C 0.38294 0.12065 0.25963 0.0
C2707 C 0.35968 0.13934 0.26227 0.0
C2708 C 0.34662 0.15056 0.25459 0.0
C2709 C 0.38511 0.12005 0.27804 0.0
C2710 C 0.37439 0.1292 0.28871 0.0
C2711 C 0.3616 0.13844 0.28063 0.0
C2712 C 0.37761 0.13111 0.30846 0.0
C2713 C 0.39948 0.11041 0.28602 0.0
C2714 C 0.37594 0.11629 0.31759 0.0
C2715 C 0.37963 0.11853 0.33624 0.0
C2716 C 0.38489 0.13565 0.34603 0.0
C2717 C 0.38626 0.15042 0.33678 0.0
C2718 C 0.38266 0.14816 0.31825 0.0
H2719 H 0.40878 0.10703 0.2765 0.0
H2720 H 0.40728 0.11861 0.29818 0.0
H2721 H 0.39326 0.09782 0.28986 0.0
H2722 H 0.37177 0.10302 0.31032 0.0
H2723 H 0.37833 0.1069 0.34296 0.0
H2724 H 0.911 0.36948 0.33054 0.0
H2725 H 0.91037 0.36814 0.29838 0.0
H2726 H 0.85437 0.37244 0.29228 0.0
H2727 H 0.85478 0.37327 0.32441 0.0
H2728 H 0.86153 0.34823 0.26651 0.0
H2729 H 0.90926 0.41011 0.27166 0.0
H2730 H 0.9182 0.39369 0.28351 0.0
H2731 H 0.89955 0.40343 0.29049 0.0
C2732 C 0.89852 0.37009 0.32237 0.0
C2733 C 0.88296 0.37161 0.33012 0.0
C2734 C 0.89822 0.36945 0.30396 0.0
C2735 C 0.88242 0.37062 0.2929 0.0
C2736 C 0.86676 0.37164 0.30053 0.0
H2737 H 0.87674 0.39901 0.18605 0.0
H2738 H 0.87645 0.39797 0.21778 0.0
C2739 C 0.86701 0.37212 0.31893 0.0
C2740 C 0.88222 0.37082 0.2734 0.0
H2741 H 0.90164 0.39284 0.24301 0.0
C2742 C 0.87027 0.35802 0.26137 0.0
C2743 C 0.89341 0.38376 0.26664 0.0
C2744 C 0.90569 0.39864 0.27873 0.0
C2745 C 0.86936 0.35766 0.24284 0.0
C2746 C 0.88103 0.37018 0.23608 0.0
C2747 C 0.89282 0.3831 0.24812 0.0
C2748 C 0.88093 0.3705 0.21661 0.0
C2749 C 0.85556 0.34414 0.23072 0.0
C2750 C 0.88371 0.35547 0.20528 0.0
C2751 C 0.88372 0.35597 0.18703 0.0
C2752 C 0.88123 0.37163 0.17975 0.0
C2753 C 0.87871 0.38673 0.19117 0.0
C2754 C 0.87854 0.38616 0.20936 0.0
H2755 H 0.84452 0.33923 0.23779 0.0
H2756 H 0.84987 0.34982 0.21899 0.0
H2757 H 0.86187 0.33252 0.2259 0.0
H2758 H 0.88607 0.34337 0.21057 0.0
H2759 H 0.88586 0.34415 0.17867 0.0
H2760 H 0.67662 0.91685 0.21057 0.0
H2761 H 0.67778 0.91862 0.24289 0.0
H2762 H 0.62201 0.8973 0.23582 0.0
H2763 H 0.62063 0.89584 0.20365 0.0
H2764 H 0.63079 0.9254 0.26271 0.0
H2765 H 0.67772 0.87617 0.26998 0.0
H2766 H 0.68574 0.89489 0.25974 0.0
H2767 H 0.66674 0.87944 0.2486 0.0
C2768 C 0.6646 0.91258 0.21591 0.0
C2769 C 0.64855 0.90611 0.20451 0.0
C2770 C 0.66531 0.91351 0.23437 0.0
C2771 C 0.65005 0.90781 0.24174 0.0
C2772 C 0.63396 0.90171 0.23042 0.0
H2773 H 0.6404 0.87444 0.34357 0.0
H2774 H 0.64157 0.87734 0.31233 0.0
C2775 C 0.63321 0.90087 0.212 0.0
C2776 C 0.65071 0.90799 0.26122 0.0
H2777 H 0.66949 0.89007 0.29643 0.0
C2778 C 0.6393 0.91774 0.27012 0.0
C2779 C 0.66167 0.8978 0.27079 0.0
C2780 C 0.67355 0.88634 0.2618 0.0
C2781 C 0.63842 0.91746 0.28831 0.0
C2782 C 0.64954 0.90745 0.29792 0.0
C2783 C 0.66107 0.89783 0.28906 0.0
C2784 C 0.64879 0.90599 0.31698 0.0
C2785 C 0.62514 0.92737 0.29688 0.0
C2786 C 0.65258 0.92114 0.33001 0.0
C2787 C 0.65179 0.91954 0.34793 0.0
C2788 C 0.64741 0.90273 0.35313 0.0
C2789 C 0.64382 0.88759 0.34004 0.0
C2790 C 0.6445 0.88921 0.32216 0.0
H2791 H 0.61469 0.93058 0.28682 0.0
H2792 H 0.61859 0.91949 0.3061 0.0
H2793 H 0.63217 0.94009 0.30467 0.0
H2794 H 0.65629 0.93418 0.32636 0.0
H2795 H 0.65477 0.93145 0.35769 0.0
H2796 H 0.12606 0.64624 0.18334 0.0
H2797 H 0.12576 0.64523 0.21497 0.0
H2798 H 0.1312 0.58947 0.20717 0.0
H2799 H 0.1309 0.59024 0.17515 0.0
H2800 H 0.10733 0.59564 0.229 0.0
H2801 H 0.1677 0.64499 0.25178 0.0
H2802 H 0.15134 0.65398 0.23807 0.0
H2803 H 0.16122 0.63544 0.22873 0.0
C2804 C 0.12729 0.63375 0.18831 0.0
C2805 C 0.12869 0.61835 0.17671 0.0
C2806 C 0.12723 0.63323 0.20648 0.0
C2807 C 0.12894 0.6174 0.2136 0.0
C2808 C 0.13003 0.60189 0.20203 0.0
H2809 H 0.15293 0.62004 0.32866 0.0
H2810 H 0.15402 0.61697 0.29667 0.0
C2811 C 0.12988 0.60234 0.18373 0.0
C2812 C 0.12919 0.61711 0.23306 0.0
H2813 H 0.14911 0.63884 0.27384 0.0
C2814 C 0.11658 0.60496 0.23882 0.0
C2815 C 0.14147 0.62904 0.24593 0.0
C2816 C 0.15631 0.64145 0.24082 0.0
C2817 C 0.11555 0.6048 0.25703 0.0
C2818 C 0.1271 0.6175 0.26985 0.0
C2819 C 0.14005 0.62927 0.26408 0.0
C2820 C 0.12613 0.61882 0.2893 0.0
C2821 C 0.10227 0.59081 0.26228 0.0
C2822 C 0.11014 0.62108 0.29595 0.0
C2823 C 0.10942 0.6226 0.31427 0.0
C2824 C 0.12479 0.62231 0.32638 0.0
C2825 C 0.14085 0.62038 0.31972 0.0
C2826 C 0.14149 0.6186 0.3014 0.0
H2827 H 0.09885 0.57895 0.25184 0.0
H2828 H 0.10743 0.58644 0.27499 0.0
H2829 H 0.08981 0.59641 0.26399 0.0
H2830 H 0.09822 0.62188 0.287 0.0
H2831 H 0.09688 0.62424 0.31897 0.0
H2832 H 0.41424 0.89918 0.83793 0.0
H2833 H 0.41486 0.90158 0.80657 0.0
H2834 H 0.35789 0.88644 0.79572 0.0
H2835 H 0.35708 0.88445 0.82733 0.0
H2836 H 0.40559 0.87672 0.77799 0.0
H2837 H 0.36426 0.93074 0.772 0.0
H2838 H 0.37291 0.92496 0.79323 0.0
H2839 H 0.35332 0.9119 0.78014 0.0
C2840 C 0.4018 0.89638 0.82892 0.0
C2841 C 0.38559 0.89166 0.83517 0.0
C2842 C 0.40219 0.89779 0.81097 0.0
C2843 C 0.38641 0.89449 0.79882 0.0
C2844 C 0.3702 0.88949 0.80492 0.0
H2845 H 0.37961 0.86828 0.68509 0.0
H2846 H 0.37927 0.86879 0.7169 0.0
C2847 C 0.36977 0.8882 0.82296 0.0
C2848 C 0.38715 0.8957 0.7797 0.0
H2849 H 0.37113 0.91595 0.74493 0.0
C2850 C 0.39811 0.88536 0.7708 0.0
C2851 C 0.37764 0.90722 0.77038 0.0
C2852 C 0.36651 0.91948 0.77945 0.0
C2853 C 0.39956 0.88594 0.75279 0.0
C2854 C 0.38942 0.89683 0.74326 0.0
C2855 C 0.37876 0.90749 0.75222 0.0
C2856 C 0.38932 0.89687 0.72386 0.0
C2857 C 0.41211 0.87502 0.7442 0.0
C2858 C 0.39455 0.91265 0.71708 0.0
C2859 C 0.39461 0.91247 0.69875 0.0
C2860 C 0.3894 0.89648 0.68692 0.0
C2861 C 0.38392 0.8808 0.6938 0.0
C2862 C 0.38378 0.88103 0.71203 0.0
H2863 H 0.42263 0.87192 0.75426 0.0
H2864 H 0.40452 0.86221 0.73718 0.0
H2865 H 0.4186 0.88205 0.73436 0.0
H2866 H 0.39875 0.92506 0.726 0.0
H2867 H 0.39881 0.92478 0.69387 0.0
H2868 H 0.13825 0.42293 0.82077 0.0
H2869 H 0.14167 0.42379 0.78932 0.0
H2870 H 0.14087 0.36688 0.78133 0.0
H2871 H 0.1371 0.36581 0.81222 0.0
H2872 H 0.16787 0.41263 0.76924 0.0
H2873 H 0.10163 0.37389 0.74295 0.0
H2874 H 0.10771 0.38356 0.76602 0.0
H2875 H 0.11455 0.36271 0.75801 0.0
C2876 C 0.1387 0.41062 0.81225 0.0
C2877 C 0.13714 0.39428 0.81897 0.0
C2878 C 0.14073 0.41114 0.79433 0.0
C2879 C 0.14121 0.39535 0.78292 0.0
C2880 C 0.14011 0.37917 0.78976 0.0
H2881 H 0.17589 0.37703 0.67861 0.0
H2882 H 0.17494 0.38226 0.71083 0.0
C2883 C 0.13798 0.37861 0.8075 0.0
C2884 C 0.14267 0.39546 0.76378 0.0
H2885 H 0.12236 0.37636 0.72231 0.0
C2886 C 0.15785 0.40488 0.75892 0.0
C2887 C 0.1295 0.38549 0.75034 0.0
C2888 C 0.11235 0.37599 0.75456 0.0
C2889 C 0.16042 0.4042 0.74096 0.0
C2890 C 0.14763 0.39349 0.7276 0.0
C2891 C 0.13229 0.38442 0.73252 0.0
C2892 C 0.14937 0.39176 0.70833 0.0
C2893 C 0.17665 0.41511 0.73649 0.0
C2894 C 0.13531 0.39516 0.6962 0.0
C2895 C 0.13565 0.39177 0.67794 0.0
C2896 C 0.15015 0.38507 0.67129 0.0
C2897 C 0.16458 0.38225 0.68337 0.0
C2898 C 0.1641 0.38538 0.70178 0.0
H2899 H 0.18217 0.42629 0.74729 0.0
H2900 H 0.18711 0.4065 0.73481 0.0
H2901 H 0.17353 0.42063 0.72391 0.0
H2902 H 0.12383 0.40012 0.70087 0.0
H2903 H 0.12441 0.39431 0.66898 0.0
H2904 H 0.65554 0.13417 0.68618 0.0
H2905 H 0.65811 0.13665 0.71846 0.0
H2906 H 0.63581 0.08131 0.71395 0.0
H2907 H 0.63364 0.0786 0.68139 0.0
H2908 H 0.63143 0.13282 0.73722 0.0
H2909 H 0.67718 0.08456 0.75332 0.0
H2910 H 0.67416 0.09195 0.73179 0.0
H2911 H 0.65804 0.07508 0.73732 0.0
C2912 C 0.65139 0.12241 0.69201 0.0
C2913 C 0.64434 0.10617 0.68117 0.0
C2914 C 0.65287 0.12387 0.71052 0.0
C2915 C 0.64728 0.10917 0.71874 0.0
C2916 C 0.64057 0.09277 0.70799 0.0
H2917 H 0.61697 0.12092 0.82482 0.0
H2918 H 0.6179 0.11503 0.79291 0.0
C2919 C 0.63925 0.09125 0.68936 0.0
C2920 C 0.64733 0.11158 0.73839 0.0
H2921 H 0.66288 0.09677 0.77694 0.0
C2922 C 0.63837 0.12494 0.74588 0.0
C2923 C 0.65653 0.10148 0.74977 0.0
C2924 C 0.66717 0.08758 0.7427 0.0
C2925 C 0.63825 0.12843 0.76432 0.0
C2926 C 0.64694 0.11795 0.77566 0.0
C2927 C 0.65608 0.10469 0.76824 0.0
C2928 C 0.64659 0.12059 0.79523 0.0
C2929 C 0.62911 0.1436 0.77148 0.0
C2930 C 0.66246 0.12507 0.80729 0.0
C2931 C 0.66199 0.1283 0.82568 0.0
C2932 C 0.64563 0.1271 0.83234 0.0
C2933 C 0.62981 0.12221 0.8202 0.0
C2934 C 0.6303 0.11888 0.8019 0.0
H2935 H 0.62777 0.15335 0.76198 0.0
H2936 H 0.61553 0.13823 0.77369 0.0
H2937 H 0.63651 0.15071 0.78436 0.0
H2938 H 0.6752 0.12637 0.80246 0.0
H2939 H 0.67443 0.13194 0.83464 0.0
H2940 H 0.89326 0.59758 0.81227 0.0
H2941 H 0.8991 0.59738 0.7815 0.0
H2942 H 0.89366 0.65309 0.78497 0.0
H2943 H 0.88822 0.65352 0.81571 0.0
H2944 H 0.87835 0.60402 0.75294 0.0
H2945 H 0.93994 0.65273 0.76506 0.0
H2946 H 0.93081 0.64284 0.78276 0.0
H2947 H 0.92226 0.66168 0.77476 0.0
C2948 C 0.89335 0.6098 0.80649 0.0
C2949 C 0.89035 0.62559 0.81648 0.0
C2950 C 0.89676 0.60968 0.78893 0.0
C2951 C 0.89726 0.62533 0.78107 0.0
C2952 C 0.89391 0.64099 0.79092 0.0
H2953 H 0.87264 0.63931 0.6734 0.0
H2954 H 0.87511 0.63711 0.70504 0.0
C2955 C 0.89061 0.64116 0.80846 0.0
C2956 C 0.9002 0.62515 0.76225 0.0
H2957 H 0.92413 0.64752 0.73505 0.0
C2958 C 0.88854 0.61335 0.74907 0.0
C2959 C 0.91372 0.63708 0.75716 0.0
C2960 C 0.92751 0.64915 0.77071 0.0
C2961 C 0.88938 0.61384 0.73094 0.0
C2962 C 0.90196 0.62674 0.72585 0.0
C2963 C 0.91431 0.63784 0.73899 0.0
C2964 C 0.90153 0.62962 0.70703 0.0
C2965 C 0.87656 0.6007 0.71737 0.0
C2966 C 0.91599 0.6271 0.69784 0.0
C2967 C 0.9147 0.62854 0.67964 0.0
C2968 C 0.89891 0.63252 0.67046 0.0
C2969 C 0.88489 0.63597 0.68001 0.0
C2970 C 0.88623 0.63463 0.69809 0.0
H2971 H 0.87186 0.58858 0.72304 0.0
H2972 H 0.86475 0.60698 0.71308 0.0
H2973 H 0.88279 0.59665 0.70544 0.0
H2974 H 0.928 0.62342 0.7046 0.0
H2975 H 0.92571 0.62581 0.67263 0.0
H2976 H 0.17993 0.38175 0.13295 0.0
H2977 H 0.21152 0.37985 0.13339 0.0
H2978 H 0.22177 0.43594 0.12974 0.0
H2979 H 0.19009 0.43806 0.12991 0.0
H2980 H 0.23146 0.38524 0.10841 0.0
H2981 H 0.26016 0.43232 0.1694 0.0
H2982 H 0.23661 0.42458 0.16387 0.0
H2983 H 0.24688 0.44219 0.15339 0.0
C2984 C 0.18892 0.39376 0.13245 0.0
C2985 C 0.1825 0.41008 0.13144 0.0
C2986 C 0.207 0.39263 0.13267 0.0
C2987 C 0.21912 0.40776 0.13176 0.0
C2988 C 0.21279 0.42415 0.13087 0.0
H2989 H 0.32447 0.3992 0.10085 0.0
H2990 H 0.29318 0.40278 0.10107 0.0
C2991 C 0.19466 0.42534 0.1309 0.0
C2992 C 0.23816 0.40601 0.13095 0.0
H2993 H 0.28062 0.42162 0.15126 0.0
C2994 C 0.2422 0.39318 0.11782 0.0
C2995 C 0.2522 0.41621 0.14333 0.0
C2996 C 0.24878 0.42947 0.1584 0.0
C2997 C 0.25979 0.39021 0.11674 0.0
C2998 C 0.27387 0.40076 0.1288 0.0
C2999 C 0.26985 0.41362 0.14192 0.0
C3000 C 0.29283 0.39835 0.12843 0.0
C3001 C 0.26301 0.37541 0.10304 0.0
C3002 C 0.30322 0.39507 0.14383 0.0
C3003 C 0.32117 0.39331 0.14382 0.0
C3004 C 0.32913 0.39471 0.12837 0.0
C3005 C 0.31868 0.39782 0.1129 0.0
C3006 C 0.30076 0.3998 0.11299 0.0
H3007 H 0.25088 0.36544 0.09862 0.0
H3008 H 0.26675 0.38111 0.09117 0.0
H3009 H 0.27397 0.36846 0.10834 0.0
H3010 H 0.29743 0.39391 0.15591 0.0
H3011 H 0.32883 0.39094 0.15597 0.0
H3012 H 0.19131 0.66928 0.88457 0.0
H3013 H 0.22292 0.66871 0.88263 0.0
H3014 H 0.21202 0.61218 0.86456 0.0
H3015 H 0.18054 0.61254 0.86682 0.0
H3016 H 0.2405 0.62052 0.89018 0.0
H3017 H 0.24739 0.66476 0.83866 0.0
H3018 H 0.2388 0.67474 0.85767 0.0
H3019 H 0.22602 0.65552 0.84367 0.0
C3020 C 0.19562 0.65673 0.88012 0.0
C3021 C 0.18335 0.64096 0.87582 0.0
C3022 C 0.21369 0.65646 0.87889 0.0
C3023 C 0.21983 0.64045 0.87315 0.0
C3024 C 0.20761 0.6247 0.86894 0.0
H3025 H 0.32528 0.63035 0.84353 0.0
H3026 H 0.29321 0.63042 0.84329 0.0
C3027 C 0.18959 0.62494 0.87024 0.0
C3028 C 0.23905 0.63992 0.87216 0.0
H3029 H 0.2743 0.65756 0.85347 0.0
C3030 C 0.24786 0.62857 0.88208 0.0
C3031 C 0.24861 0.65021 0.86138 0.0
C3032 C 0.2397 0.66186 0.8496 0.0
C3033 C 0.266 0.62747 0.88182 0.0
C3034 C 0.27575 0.63832 0.87165 0.0
C3035 C 0.26687 0.64939 0.86141 0.0
C3036 C 0.2952 0.63852 0.87169 0.0
C3037 C 0.27449 0.61451 0.89227 0.0
C3038 C 0.307 0.64334 0.88766 0.0
C3039 C 0.32526 0.64323 0.88786 0.0
C3040 C 0.3322 0.63847 0.87204 0.0
C3041 C 0.32039 0.63401 0.85596 0.0
C3042 C 0.30206 0.63407 0.8558 0.0
H3043 H 0.2644 0.60374 0.8949 0.0
H3044 H 0.28443 0.60835 0.88511 0.0
H3045 H 0.28139 0.62169 0.90531 0.0
H3046 H 0.30209 0.64724 0.90003 0.0
H3047 H 0.33395 0.64692 0.90046 0.0
H3048 H 0.37781 0.19582 0.91693 0.0
H3049 H 0.37789 0.22786 0.91824 0.0
H3050 H 0.43249 0.23432 0.90859 0.0
H3051 H 0.43268 0.20217 0.90782 0.0
H3052 H 0.42582 0.26158 0.9329 0.0
H3053 H 0.37471 0.25011 0.87292 0.0
H3054 H 0.36761 0.23908 0.89068 0.0
H3055 H 0.38613 0.23259 0.88038 0.0
C3056 C 0.38991 0.20407 0.91526 0.0
C3057 C 0.40518 0.19647 0.91204 0.0
C3058 C 0.3899 0.22237 0.91593 0.0
C3059 C 0.40503 0.23339 0.91302 0.0
C3060 C 0.42062 0.226 0.91072 0.0
H3061 H 0.39931 0.33521 0.87663 0.0
H3062 H 0.40383 0.30484 0.88027 0.0
C3063 C 0.42072 0.20766 0.91029 0.0
C3064 C 0.40421 0.25241 0.91152 0.0
H3065 H 0.38115 0.27959 0.88843 0.0
C3066 C 0.41613 0.26556 0.92313 0.0
C3067 C 0.39176 0.25755 0.89854 0.0
C3068 C 0.37946 0.2441 0.8848 0.0
C3069 C 0.41569 0.28377 0.92234 0.0
C3070 C 0.4027 0.28889 0.90986 0.0
C3071 C 0.39098 0.27568 0.89811 0.0
C3072 C 0.4012 0.3078 0.90828 0.0
C3073 C 0.42937 0.29728 0.93458 0.0
C3074 C 0.39825 0.31965 0.92284 0.0
C3075 C 0.39586 0.33717 0.92084 0.0
C3076 C 0.39601 0.34299 0.90415 0.0
C3077 C 0.39898 0.3311 0.88963 0.0
C3078 C 0.40161 0.31373 0.8917 0.0
H3079 H 0.44126 0.29132 0.93938 0.0
H3080 H 0.43374 0.30876 0.92784 0.0
H3081 H 0.42345 0.30233 0.94639 0.0
H3082 H 0.39741 0.31526 0.93566 0.0
H3083 H 0.39349 0.346 0.93223 0.0
H3084 H 0.83832 0.4125 0.87139 0.0
H3085 H 0.80721 0.41802 0.86804 0.0
H3086 H 0.79054 0.36515 0.87942 0.0
H3087 H 0.82124 0.35945 0.88238 0.0
H3088 H 0.7709 0.37238 0.84975 0.0
H3089 H 0.77508 0.4274 0.90573 0.0
H3090 H 0.79013 0.43109 0.88992 0.0
H3091 H 0.79259 0.41389 0.9036 0.0
C3092 C 0.82802 0.40217 0.87339 0.0
C3093 C 0.83225 0.38553 0.8771 0.0
C3094 C 0.81026 0.40534 0.87151 0.0
C3095 C 0.79654 0.39201 0.87356 0.0
C3096 C 0.80087 0.3756 0.87769 0.0
H3097 H 0.69078 0.39006 0.89622 0.0
H3098 H 0.72263 0.39168 0.8954 0.0
C3099 C 0.81847 0.37239 0.87941 0.0
C3100 C 0.77752 0.39458 0.87087 0.0
H3101 H 0.74704 0.4179 0.88834 0.0
C3102 C 0.76568 0.38243 0.85808 0.0
C3103 C 0.77075 0.40766 0.88179 0.0
C3104 C 0.78273 0.42069 0.89614 0.0
C3105 C 0.74722 0.38254 0.85636 0.0
C3106 C 0.74041 0.39548 0.86744 0.0
C3107 C 0.7523 0.40804 0.8798 0.0
C3108 C 0.72098 0.39514 0.86764 0.0
C3109 C 0.73516 0.36821 0.84335 0.0
C3110 C 0.70937 0.39666 0.8523 0.0
C3111 C 0.691 0.39552 0.85267 0.0
C3112 C 0.68396 0.39308 0.86844 0.0
C3113 C 0.6957 0.39192 0.88382 0.0
C3114 C 0.71396 0.39292 0.88341 0.0
H3115 H 0.74225 0.35705 0.83883 0.0
H3116 H 0.72357 0.36275 0.84939 0.0
H3117 H 0.73008 0.37399 0.83146 0.0
H3118 H 0.71451 0.39873 0.84007 0.0
H3119 H 0.68235 0.39664 0.84064 0.0
H3120 H 0.62499 0.69087 0.86546 0.0
H3121 H 0.62301 0.72258 0.86717 0.0
H3122 H 0.63973 0.72969 0.92389 0.0
H3123 H 0.64131 0.69774 0.92238 0.0
H3124 H 0.61193 0.74746 0.91512 0.0
H3125 H 0.66431 0.7623 0.87319 0.0
H3126 H 0.64682 0.74509 0.86224 0.0
H3127 H 0.66076 0.74146 0.88183 0.0
C3128 C 0.62834 0.69915 0.87831 0.0
C3129 C 0.63346 0.69178 0.89377 0.0
C3130 C 0.62727 0.71732 0.87924 0.0
C3131 C 0.63157 0.72859 0.89559 0.0
C3132 C 0.63646 0.72126 0.91111 0.0
H3133 H 0.65465 0.84337 0.90704 0.0
H3134 H 0.65532 0.81156 0.90653 0.0
C3135 C 0.63739 0.70301 0.91022 0.0
C3136 C 0.63076 0.74796 0.89647 0.0
H3137 H 0.64661 0.78505 0.87955 0.0
C3138 C 0.61957 0.75572 0.90742 0.0
C3139 C 0.6409 0.75877 0.88658 0.0
C3140 C 0.65401 0.75153 0.87544 0.0
C3141 C 0.61808 0.77394 0.90857 0.0
C3142 C 0.62773 0.78459 0.89815 0.0
C3143 C 0.63905 0.77685 0.88737 0.0
C3144 C 0.62692 0.80396 0.89874 0.0
C3145 C 0.60652 0.78165 0.92123 0.0
C3146 C 0.61072 0.81033 0.89441 0.0
C3147 C 0.61026 0.82863 0.89485 0.0
C3148 C 0.62604 0.84084 0.89935 0.0
C3149 C 0.64224 0.83436 0.90346 0.0
C3150 C 0.64266 0.81615 0.90318 0.0
H3151 H 0.60409 0.77306 0.9316 0.0
H3152 H 0.61267 0.79516 0.9279 0.0
H3153 H 0.59343 0.78272 0.91367 0.0
H3154 H 0.59845 0.80116 0.89052 0.0
H3155 H 0.59759 0.83319 0.8915 0.0
H3156 H 0.83215 0.67143 0.10627 0.0
H3157 H 0.80023 0.67333 0.10406 0.0
H3158 H 0.78999 0.61868 0.11312 0.0
H3159 H 0.82161 0.6165 0.11471 0.0
H3160 H 0.76636 0.62507 0.08698 0.0
H3161 H 0.77206 0.67814 0.14489 0.0
H3162 H 0.78452 0.6843 0.12771 0.0
H3163 H 0.79049 0.66681 0.13992 0.0
C3164 C 0.82307 0.65984 0.10778 0.0
C3165 C 0.82942 0.64384 0.11072 0.0
C3166 C 0.80485 0.66097 0.10662 0.0
C3167 C 0.79274 0.64623 0.10873 0.0
C3168 C 0.79907 0.63023 0.11147 0.0
H3169 H 0.68898 0.64088 0.13987 0.0
H3170 H 0.72054 0.64275 0.13717 0.0
C3171 C 0.81718 0.62902 0.1124 0.0
C3172 C 0.77343 0.64724 0.1081 0.0
H3173 H 0.74337 0.6685 0.12873 0.0
C3174 C 0.76132 0.63461 0.09606 0.0
C3175 C 0.76688 0.65959 0.12008 0.0
C3176 C 0.77913 0.67288 0.134 0.0
C3177 C 0.74287 0.6337 0.09592 0.0
C3178 C 0.73631 0.64616 0.10779 0.0
C3179 C 0.74841 0.65904 0.11956 0.0
C3180 C 0.71705 0.6453 0.10914 0.0
C3181 C 0.73067 0.61891 0.08362 0.0
C3182 C 0.70454 0.64626 0.0943 0.0
C3183 C 0.68639 0.64492 0.09575 0.0
C3184 C 0.68048 0.64295 0.11215 0.0
C3185 C 0.69308 0.6424 0.12705 0.0
C3186 C 0.71115 0.64351 0.12553 0.0
H3187 H 0.73792 0.60794 0.07891 0.0
H3188 H 0.71964 0.61329 0.0903 0.0
H3189 H 0.72482 0.62427 0.07175 0.0
H3190 H 0.70881 0.64809 0.08161 0.0
H3191 H 0.67702 0.64558 0.08407 0.0
H3192 H 0.40921 0.70494 0.17422 0.0
H3193 H 0.41403 0.73726 0.17431 0.0
H3194 H 0.39148 0.72978 0.11885 0.0
H3195 H 0.387 0.69763 0.11852 0.0
H3196 H 0.42181 0.75389 0.12589 0.0
H3197 H 0.37581 0.76955 0.17441 0.0
H3198 H 0.39326 0.75763 0.18229 0.0
H3199 H 0.37646 0.74712 0.16415 0.0
C3200 C 0.40526 0.71019 0.16206 0.0
C3201 C 0.39764 0.69868 0.14639 0.0
C3202 C 0.40795 0.72868 0.16215 0.0
C3203 C 0.40289 0.73597 0.14665 0.0
C3204 C 0.39548 0.72448 0.13098 0.0
H3205 H 0.37779 0.83929 0.13182 0.0
H3206 H 0.37891 0.80813 0.13493 0.0
C3207 C 0.39288 0.70606 0.13084 0.0
C3208 C 0.40516 0.75553 0.14653 0.0
H3209 H 0.39131 0.79385 0.16399 0.0
C3210 C 0.41523 0.76266 0.1343 0.0
C3211 C 0.39643 0.76692 0.15738 0.0
C3212 C 0.38475 0.75996 0.1702 0.0
C3213 C 0.41655 0.78079 0.13237 0.0
C3214 C 0.40784 0.79218 0.14325 0.0
C3215 C 0.39806 0.78511 0.15573 0.0
C3216 C 0.40761 0.81119 0.14109 0.0
C3217 C 0.42662 0.7874 0.1182 0.0
C3218 C 0.4234 0.82335 0.14348 0.0
C3219 C 0.42282 0.84126 0.14155 0.0
C3220 C 0.40641 0.84734 0.13739 0.0
C3221 C 0.39066 0.8351 0.13504 0.0
C3222 C 0.39126 0.81725 0.13686 0.0
H3223 H 0.42889 0.77628 0.10832 0.0
H3224 H 0.41935 0.79666 0.11104 0.0
H3225 H 0.4398 0.79471 0.12455 0.0
H3226 H 0.43614 0.81906 0.14709 0.0
H3227 H 0.43517 0.85037 0.14359 0.0
H3228 H 0.62009 0.34244 0.16999 0.0
H3229 H 0.61701 0.31027 0.17092 0.0
H3230 H 0.62791 0.30143 0.11681 0.0
H3231 H 0.63041 0.33329 0.1156 0.0
H3232 H 0.6003 0.27853 0.12138 0.0
H3233 H 0.65583 0.27961 0.17592 0.0
H3234 H 0.63912 0.29277 0.18192 0.0
H3235 H 0.65244 0.29889 0.1653 0.0
C3236 C 0.6219 0.33362 0.15834 0.0
C3237 C 0.62551 0.34043 0.14274 0.0
C3238 C 0.62023 0.31524 0.15892 0.0
C3239 C 0.62246 0.30342 0.14401 0.0
C3240 C 0.62611 0.31026 0.12848 0.0
H3241 H 0.64751 0.19694 0.13561 0.0
H3242 H 0.64672 0.22894 0.13866 0.0
C3243 C 0.62757 0.32851 0.12782 0.0
C3244 C 0.62074 0.28387 0.14423 0.0
H3245 H 0.63856 0.25169 0.16471 0.0
C3246 C 0.60863 0.27266 0.13089 0.0
C3247 C 0.63172 0.27621 0.15656 0.0
C3248 C 0.64563 0.28746 0.17064 0.0
C3249 C 0.60745 0.25404 0.12928 0.0
C3250 C 0.61831 0.24637 0.1417 0.0
C3251 C 0.63016 0.25758 0.15527 0.0
C3252 C 0.6185 0.22683 0.14016 0.0
C3253 C 0.59515 0.24285 0.1138 0.0
C3254 C 0.60291 0.21492 0.14014 0.0
C3255 C 0.60328 0.19652 0.13813 0.0
C3256 C 0.6193 0.18973 0.13645 0.0
C3257 C 0.63494 0.20171 0.13688 0.0
C3258 C 0.63452 0.22004 0.13866 0.0
H3259 H 0.59142 0.2508 0.10308 0.0
H3260 H 0.60139 0.23154 0.10804 0.0
H3261 H 0.58274 0.23736 0.11849 0.0
H3262 H 0.59048 0.21985 0.14172 0.0
H3263 H 0.59105 0.18765 0.13805 0.0
H3264 H 0.89391 0.68244 0.61109 0.0
H3265 H 0.89352 0.71428 0.61204 0.0
H3266 H 0.83923 0.70776 0.62254 0.0
H3267 H 0.83937 0.67546 0.62129 0.0
H3268 H 0.84635 0.732 0.59783 0.0
H3269 H 0.89586 0.74703 0.65912 0.0
H3270 H 0.90314 0.73345 0.64136 0.0
H3271 H 0.88418 0.72492 0.65104 0.0
C3272 C 0.88182 0.68768 0.61358 0.0
C3273 C 0.86672 0.6764 0.61638 0.0
C3274 C 0.88165 0.70594 0.61413 0.0
C3275 C 0.86649 0.71344 0.61772 0.0
C3276 C 0.85112 0.70222 0.61986 0.0
H3277 H 0.87211 0.82529 0.6563 0.0
H3278 H 0.86697 0.79292 0.65151 0.0
C3279 C 0.85122 0.6838 0.61918 0.0
C3280 C 0.86715 0.73309 0.61984 0.0
H3281 H 0.89023 0.77146 0.644 0.0
C3282 C 0.85583 0.74067 0.60799 0.0
C3283 C 0.87941 0.74436 0.63324 0.0
C3284 C 0.89122 0.73705 0.64703 0.0
C3285 C 0.85672 0.75928 0.60896 0.0
C3286 C 0.86949 0.77053 0.62193 0.0
C3287 C 0.88057 0.76287 0.63393 0.0
C3288 C 0.87127 0.79031 0.62395 0.0
C3289 C 0.84379 0.76668 0.59632 0.0
C3290 C 0.87531 0.79975 0.61 0.0
C3291 C 0.87814 0.81845 0.61267 0.0
C3292 C 0.87728 0.82797 0.62943 0.0
C3293 C 0.87307 0.81842 0.64326 0.0
C3294 C 0.87007 0.79986 0.64054 0.0
H3295 H 0.832 0.75663 0.59065 0.0
H3296 H 0.83918 0.7786 0.60307 0.0
H3297 H 0.85052 0.77068 0.58512 0.0
H3298 H 0.87671 0.79269 0.59719 0.0
H3299 H 0.88141 0.82542 0.60178 0.0
H3300 H 0.19129 0.88072 0.66395 0.0
H3301 H 0.22276 0.87836 0.66291 0.0
H3302 H 0.21503 0.88131 0.60658 0.0
H3303 H 0.18352 0.88301 0.60742 0.0
H3304 H 0.23359 0.85542 0.61331 0.0
H3305 H 0.26285 0.91649 0.66006 0.0
H3306 H 0.24845 0.90127 0.66972 0.0
H3307 H 0.23944 0.91173 0.65149 0.0
C3308 C 0.19636 0.88106 0.65139 0.0
C3309 C 0.18494 0.88211 0.63578 0.0
C3310 C 0.21437 0.87977 0.65082 0.0
C3311 C 0.22136 0.87991 0.6347 0.0
C3312 C 0.20997 0.88118 0.61917 0.0
H3313 H 0.33218 0.90066 0.62268 0.0
H3314 H 0.30052 0.90099 0.62376 0.0
C3315 C 0.19196 0.8822 0.61968 0.0
C3316 C 0.24037 0.87823 0.63378 0.0
H3317 H 0.2829 0.8972 0.6508 0.0
C3318 C 0.24438 0.86459 0.62148 0.0
C3319 C 0.25445 0.89028 0.64431 0.0
C3320 C 0.25112 0.90587 0.65701 0.0
C3321 C 0.26204 0.86273 0.61934 0.0
C3322 C 0.27613 0.87452 0.63018 0.0
C3323 C 0.27211 0.88808 0.64257 0.0
C3324 C 0.29514 0.87364 0.62845 0.0
C3325 C 0.26536 0.84852 0.60508 0.0
C3326 C 0.30269 0.85807 0.63052 0.0
C3327 C 0.32082 0.85775 0.62959 0.0
C3328 C 0.33176 0.87312 0.62697 0.0
C3329 C 0.32412 0.88861 0.62477 0.0
C3330 C 0.30601 0.88883 0.62543 0.0
H3331 H 0.25345 0.84417 0.59481 0.0
H3332 H 0.27674 0.85331 0.5984 0.0
H3333 H 0.26853 0.83672 0.61123 0.0
H3334 H 0.29469 0.8463 0.63328 0.0
H3335 H 0.32637 0.8457 0.63156 0.0
H3336 H 0.15158 0.32036 0.62047 0.0
H3337 H 0.15069 0.28825 0.61447 0.0
H3338 H 0.09476 0.28211 0.59412 0.0
H3339 H 0.09546 0.31453 0.60036 0.0
H3340 H 0.1029 0.2574 0.61615 0.0
H3341 H 0.14849 0.25939 0.56566 0.0
H3342 H 0.15795 0.27341 0.58611 0.0
H3343 H 0.13824 0.27837 0.57333 0.0
C3344 C 0.13904 0.31225 0.61474 0.0
C3345 C 0.1236 0.32006 0.61076 0.0
C3346 C 0.1386 0.29386 0.61118 0.0
C3347 C 0.12279 0.28282 0.60339 0.0
C3348 C 0.10717 0.29043 0.59993 0.0
H3349 H 0.12745 0.16953 0.56725 0.0
H3350 H 0.12266 0.20067 0.56716 0.0
C3351 C 0.10757 0.30894 0.60356 0.0
C3352 C 0.12273 0.26331 0.59933 0.0
H3353 H 0.14477 0.23237 0.57874 0.0
C3354 C 0.11186 0.25189 0.60777 0.0
C3355 C 0.13416 0.25605 0.58809 0.0
C3356 C 0.14523 0.26743 0.57763 0.0
C3357 C 0.11286 0.23356 0.60609 0.0
C3358 C 0.12533 0.22655 0.596 0.0
C3359 C 0.13544 0.23779 0.58671 0.0
C3360 C 0.12876 0.20785 0.59577 0.0
C3361 C 0.10066 0.22192 0.6153 0.0
C3362 C 0.13438 0.20175 0.61178 0.0
C3363 C 0.13711 0.18408 0.61187 0.0
C3364 C 0.13448 0.1721 0.59591 0.0
C3365 C 0.1296 0.17841 0.57976 0.0
C3366 C 0.12678 0.19616 0.5797 0.0
H3367 H 0.08842 0.22783 0.61735 0.0
H3368 H 0.09674 0.20839 0.60755 0.0
H3369 H 0.10765 0.22061 0.62858 0.0
H3370 H 0.13654 0.21065 0.62428 0.0
H3371 H 0.14106 0.17975 0.62454 0.0
H3372 H 0.68963 0.10622 0.62128 0.0
H3373 H 0.7212 0.11059 0.61902 0.0
H3374 H 0.72247 0.16752 0.62864 0.0
H3375 H 0.69041 0.16329 0.63075 0.0
H3376 H 0.74184 0.15438 0.6002 0.0
H3377 H 0.75947 0.12757 0.66308 0.0
H3378 H 0.74237 0.11317 0.64774 0.0
H3379 H 0.73819 0.13472 0.65719 0.0
C3380 C 0.69652 0.11973 0.62295 0.0
C3381 C 0.6875 0.13443 0.62643 0.0
C3382 C 0.7146 0.12217 0.62164 0.0
C3383 C 0.72419 0.13934 0.62393 0.0
C3384 C 0.71526 0.15414 0.62692 0.0
H3385 H 0.83904 0.1524 0.64609 0.0
H3386 H 0.8079 0.15597 0.64595 0.0
C3387 C 0.697 0.15171 0.62818 0.0
C3388 C 0.74363 0.14149 0.62367 0.0
H3389 H 0.78168 0.12959 0.64398 0.0
C3390 C 0.75065 0.14919 0.60987 0.0
C3391 C 0.75507 0.13484 0.6364 0.0
C3392 C 0.74845 0.12726 0.65204 0.0
C3393 C 0.76881 0.14988 0.60817 0.0
C3394 C 0.78005 0.14239 0.62042 0.0
C3395 C 0.77305 0.13518 0.63449 0.0
C3396 C 0.79921 0.14197 0.61927 0.0
C3397 C 0.77577 0.1587 0.59339 0.0
C3398 C 0.8048 0.13312 0.60416 0.0
C3399 C 0.82278 0.1312 0.60413 0.0
C3400 C 0.83531 0.13779 0.61933 0.0
C3401 C 0.82968 0.14697 0.63423 0.0
C3402 C 0.81187 0.14909 0.63416 0.0
H3403 H 0.76696 0.1681 0.58857 0.0
H3404 H 0.7894 0.16606 0.59781 0.0
H3405 H 0.77631 0.14835 0.58201 0.0
H3406 H 0.79521 0.12717 0.59265 0.0
H3407 H 0.82674 0.12402 0.5925 0.0
H3408 H 0.93596 0.33623 0.40459 0.0
H3409 H 0.93775 0.30607 0.41156 0.0
H3410 H 0.88231 0.29033 0.39005 0.0
H3411 H 0.8803 0.32044 0.38341 0.0
H3412 H 0.89113 0.27861 0.42232 0.0
H3413 H 0.939 0.26227 0.37589 0.0
H3414 H 0.94624 0.28183 0.39205 0.0
H3415 H 0.92759 0.28145 0.37512 0.0
C3416 C 0.92418 0.3263 0.40121 0.0
C3417 C 0.90801 0.33073 0.39332 0.0
C3418 C 0.92524 0.30907 0.4052 0.0
C3419 C 0.9102 0.29589 0.40118 0.0
C3420 C 0.89407 0.30029 0.3933 0.0
H3421 H 0.89188 0.1854 0.37699 0.0
H3422 H 0.89647 0.21761 0.38017 0.0
C3423 C 0.89297 0.3175 0.38942 0.0
C3424 C 0.91111 0.27743 0.40493 0.0
H3425 H 0.92906 0.24002 0.3923 0.0
C3426 C 0.89958 0.2702 0.41594 0.0
C3427 C 0.92214 0.2665 0.39658 0.0
C3428 C 0.93436 0.2733 0.38413 0.0
C3429 C 0.89825 0.25215 0.41822 0.0
C3430 C 0.9089 0.24114 0.40945 0.0
C3431 C 0.92101 0.24857 0.39911 0.0
C3432 C 0.90581 0.22148 0.40845 0.0
C3433 C 0.88477 0.24475 0.42915 0.0
C3434 C 0.90936 0.21285 0.42341 0.0
C3435 C 0.90667 0.19414 0.42166 0.0
C3436 C 0.90051 0.18391 0.4049 0.0
C3437 C 0.89678 0.19276 0.3901 0.0
C3438 C 0.89941 0.21125 0.39187 0.0
H3439 H 0.8761 0.25462 0.43337 0.0
H3440 H 0.87624 0.23272 0.42144 0.0
H3441 H 0.89181 0.24072 0.44126 0.0
H3442 H 0.91446 0.22054 0.43633 0.0
H3443 H 0.90971 0.18773 0.43328 0.0
H3444 H 0.83262 0.87505 0.37989 0.0
H3445 H 0.80161 0.87284 0.3842 0.0
H3446 H 0.81584 0.86441 0.43855 0.0
H3447 H 0.84738 0.86715 0.43445 0.0
H3448 H 0.77979 0.84575 0.39213 0.0
H3449 H 0.78609 0.9043 0.44476 0.0
H3450 H 0.8039 0.90001 0.43222 0.0
H3451 H 0.79949 0.88748 0.44992 0.0
C3452 C 0.82928 0.87275 0.39282 0.0
C3453 C 0.84256 0.87132 0.40685 0.0
C3454 C 0.81145 0.87145 0.39525 0.0
C3455 C 0.80633 0.86861 0.41173 0.0
C3456 C 0.81948 0.86695 0.42579 0.0
H3457 H 0.69011 0.84488 0.41176 0.0
H3458 H 0.72181 0.84184 0.41536 0.0
C3459 C 0.83749 0.86842 0.42342 0.0
C3460 C 0.78715 0.86741 0.41373 0.0
H3461 H 0.75735 0.88865 0.43486 0.0
C3462 C 0.77487 0.85502 0.4016 0.0
C3463 C 0.78074 0.87961 0.42599 0.0
C3464 C 0.79318 0.89372 0.43889 0.0
C3465 C 0.75643 0.85493 0.40086 0.0
C3466 C 0.75001 0.86723 0.41301 0.0
C3467 C 0.76227 0.87918 0.42561 0.0
C3468 C 0.73077 0.86901 0.41185 0.0
C3469 C 0.7441 0.84231 0.38641 0.0
C3470 C 0.72525 0.88543 0.4093 0.0
C3471 C 0.70721 0.88727 0.40753 0.0
C3472 C 0.69423 0.8727 0.40818 0.0
C3473 C 0.69976 0.85631 0.41099 0.0
C3474 C 0.71788 0.85453 0.41298 0.0
H3475 H 0.75127 0.83696 0.37565 0.0
H3476 H 0.73797 0.83088 0.39223 0.0
H3477 H 0.73326 0.84901 0.3804 0.0
H3478 H 0.7349 0.89681 0.40838 0.0
H3479 H 0.70345 0.9001 0.40539 0.0
H3480 H 0.17119 0.68814 0.39276 0.0
H3481 H 0.17134 0.72037 0.39838 0.0
H3482 H 0.11516 0.71193 0.4019 0.0
H3483 H 0.11479 0.67979 0.3955 0.0
H3484 H 0.12117 0.73605 0.38227 0.0
H3485 H 0.17137 0.7538 0.44255 0.0
H3486 H 0.18036 0.74235 0.42463 0.0
H3487 H 0.16228 0.73101 0.43377 0.0
C3488 C 0.1589 0.69316 0.39486 0.0
C3489 C 0.14297 0.68139 0.39363 0.0
C3490 C 0.15903 0.71163 0.39827 0.0
C3491 C 0.14334 0.7187 0.40097 0.0
C3492 C 0.12748 0.70689 0.39995 0.0
H3493 H 0.14213 0.83448 0.43066 0.0
H3494 H 0.14097 0.80239 0.43249 0.0
C3495 C 0.12728 0.68848 0.39625 0.0
C3496 C 0.14308 0.73834 0.40349 0.0
H3497 H 0.16454 0.77804 0.42678 0.0
C3498 C 0.13053 0.74515 0.39219 0.0
C3499 C 0.15503 0.75036 0.41664 0.0
C3500 C 0.16787 0.74398 0.43021 0.0
C3501 C 0.13004 0.76352 0.39315 0.0
C3502 C 0.14284 0.77558 0.40537 0.0
C3503 C 0.1549 0.76883 0.41723 0.0
C3504 C 0.14455 0.79514 0.40502 0.0
C3505 C 0.11576 0.76979 0.38099 0.0
C3506 C 0.14753 0.80177 0.38924 0.0
C3507 C 0.14799 0.81985 0.38814 0.0
C3508 C 0.14582 0.83193 0.40289 0.0
C3509 C 0.14374 0.82549 0.41904 0.0
C3510 C 0.14307 0.80719 0.42009 0.0
H3511 H 0.10385 0.75943 0.37718 0.0
H3512 H 0.11158 0.78215 0.38735 0.0
H3513 H 0.12098 0.77256 0.36859 0.0
H3514 H 0.14928 0.79287 0.37761 0.0
H3515 H 0.15 0.82436 0.37557 0.0
H3516 H 0.34391 0.14127 0.41197 0.0
H3517 H 0.31259 0.14178 0.41421 0.0
H3518 H 0.31733 0.19589 0.40309 0.0
H3519 H 0.34917 0.19561 0.40098 0.0
H3520 H 0.29519 0.18707 0.43145 0.0
H3521 H 0.27722 0.14085 0.36785 0.0
H3522 H 0.29269 0.1335 0.38403 0.0
H3523 H 0.29918 0.15336 0.37474 0.0
C3524 C 0.33841 0.15337 0.41005 0.0
C3525 C 0.34901 0.16833 0.40599 0.0
C3526 C 0.32047 0.15363 0.4114 0.0
C3527 C 0.3126 0.16876 0.40858 0.0
C3528 C 0.3232 0.18405 0.40528 0.0
H3529 H 0.19961 0.16063 0.37731 0.0
H3530 H 0.23177 0.16866 0.38114 0.0
C3531 C 0.34133 0.18386 0.40402 0.0
C3532 C 0.29305 0.16787 0.40788 0.0
H3533 H 0.254 0.1451 0.38497 0.0
C3534 C 0.28611 0.17805 0.42122 0.0
C3535 C 0.28129 0.15615 0.39446 0.0
C3536 C 0.28792 0.14545 0.37935 0.0
C3537 C 0.26763 0.17652 0.42164 0.0
C3538 C 0.25592 0.16431 0.40854 0.0
C3539 C 0.26295 0.15438 0.3951 0.0
C3540 C 0.23624 0.1619 0.4078 0.0
C3541 C 0.26081 0.18811 0.43593 0.0
C3542 C 0.22788 0.15584 0.42174 0.0
C3543 C 0.20926 0.1514 0.41964 0.0
C3544 C 0.19889 0.15262 0.40345 0.0
C3545 C 0.20728 0.15929 0.38986 0.0
C3546 C 0.22569 0.16395 0.39204 0.0
H3547 H 0.27086 0.19977 0.44201 0.0
H3548 H 0.24845 0.19296 0.43051 0.0
H3549 H 0.25767 0.18019 0.44661 0.0
H3550 H 0.23575 0.15383 0.4339 0.0
H3551 H 0.20311 0.14624 0.43029 0.0
H3552 H 0.64681 0.87292 0.70349 0.0
H3553 H 0.64961 0.87427 0.73571 0.0
H3554 H 0.63659 0.92773 0.7405 0.0
H3555 H 0.63425 0.92668 0.70809 0.0
H3556 H 0.66392 0.92406 0.76607 0.0
H3557 H 0.6077 0.8699 0.76279 0.0
H3558 H 0.62462 0.86321 0.75028 0.0
H3559 H 0.61224 0.88038 0.7437 0.0
C3560 C 0.64449 0.88498 0.71136 0.0
C3561 C 0.64008 0.89963 0.70322 0.0
C3562 C 0.64605 0.8857 0.72979 0.0
C3563 C 0.6429 0.90093 0.74046 0.0
C3564 C 0.63895 0.91579 0.73247 0.0
H3565 H 0.61867 0.90046 0.84739 0.0
H3566 H 0.61872 0.90246 0.81591 0.0
C3567 C 0.63758 0.91516 0.71397 0.0
C3568 C 0.64354 0.90116 0.75992 0.0
H3569 H 0.62591 0.87872 0.79088 0.0
C3570 C 0.65555 0.91423 0.77154 0.0
C3571 C 0.63243 0.88846 0.767 0.0
C3572 C 0.61839 0.87481 0.7553 0.0
C3573 C 0.65694 0.91476 0.7901 0.0
C3574 C 0.64632 0.90161 0.79714 0.0
C3575 C 0.63419 0.88868 0.78548 0.0
C3576 C 0.64689 0.90131 0.81655 0.0
C3577 C 0.66946 0.92963 0.80194 0.0
C3578 C 0.66275 0.89999 0.82745 0.0
C3579 C 0.66281 0.89904 0.84562 0.0
C3580 C 0.64694 0.89904 0.85306 0.0
C3581 C 0.63111 0.90029 0.84207 0.0
C3582 C 0.63111 0.90147 0.82405 0.0
H3583 H 0.67273 0.94114 0.79482 0.0
H3584 H 0.66366 0.93434 0.81396 0.0
H3585 H 0.68208 0.92469 0.80633 0.0
H3586 H 0.67501 0.8994 0.82187 0.0
H3587 H 0.67519 0.898 0.85375 0.0
H3588 H 0.10488 0.59087 0.81772 0.0
H3589 H 0.09726 0.58968 0.78545 0.0
H3590 H 0.11672 0.64574 0.79019 0.0
H3591 H 0.12406 0.64714 0.82233 0.0
H3592 H 0.08451 0.63619 0.7681 0.0
H3593 H 0.13289 0.59098 0.75014 0.0
H3594 H 0.11724 0.58265 0.76379 0.0
H3595 H 0.13343 0.60189 0.77256 0.0
C3596 C 0.10757 0.60294 0.81188 0.0
C3597 C 0.11518 0.61908 0.82263 0.0
C3598 C 0.10325 0.60222 0.79343 0.0
C3599 C 0.1066 0.61759 0.78537 0.0
C3600 C 0.11401 0.63372 0.7961 0.0
H3601 H 0.12374 0.63238 0.68041 0.0
H3602 H 0.12412 0.63033 0.7119 0.0
C3603 C 0.11826 0.63447 0.8145 0.0
C3604 C 0.10269 0.61701 0.76575 0.0
H3605 H 0.11496 0.59987 0.7265 0.0
C3606 C 0.09105 0.62815 0.75896 0.0
C3607 C 0.11134 0.60661 0.75388 0.0
C3608 C 0.12454 0.59496 0.7604 0.0
C3609 C 0.08813 0.62944 0.74068 0.0
C3610 C 0.09689 0.61913 0.72884 0.0
C3611 C 0.10818 0.60768 0.73559 0.0
C3612 C 0.09591 0.62115 0.70969 0.0
C3613 C 0.07632 0.64239 0.73428 0.0
C3614 C 0.07983 0.61687 0.69791 0.0
C3615 C 0.07953 0.61814 0.67972 0.0
C3616 C 0.09534 0.62354 0.67305 0.0
C3617 C 0.11131 0.62809 0.68502 0.0
C3618 C 0.11158 0.6269 0.70307 0.0
H3619 H 0.07336 0.65177 0.74547 0.0
H3620 H 0.08262 0.6502 0.72487 0.0
H3621 H 0.06352 0.63488 0.72714 0.0
H3622 H 0.06761 0.61217 0.70268 0.0
H3623 H 0.06704 0.61443 0.67085 0.0
H3624 H 0.40984 0.14482 0.84742 0.0
H3625 H 0.40946 0.14913 0.81638 0.0
H3626 H 0.35266 0.14903 0.81076 0.0
H3627 H 0.35286 0.14422 0.84185 0.0
H3628 H 0.36157 0.12914 0.78314 0.0
H3629 H 0.40547 0.19384 0.79467 0.0
H3630 H 0.41599 0.17743 0.80514 0.0
H3631 H 0.3961 0.18429 0.81242 0.0
C3632 C 0.39724 0.14575 0.83963 0.0
C3633 C 0.38138 0.14424 0.84716 0.0
C3634 C 0.39708 0.1484 0.8219 0.0
C3635 C 0.38112 0.14992 0.81134 0.0
C3636 C 0.36518 0.14812 0.81871 0.0
H3637 H 0.38312 0.17796 0.70296 0.0
H3638 H 0.37948 0.17971 0.7346 0.0
C3639 C 0.3653 0.1453 0.83646 0.0
C3640 C 0.38105 0.15243 0.79239 0.0
H3641 H 0.40217 0.17733 0.76509 0.0
C3642 C 0.37026 0.13983 0.77922 0.0
C3643 C 0.39209 0.1666 0.7872 0.0
C3644 C 0.40291 0.18141 0.80062 0.0
C3645 C 0.37094 0.14044 0.76107 0.0
C3646 C 0.38307 0.15375 0.75594 0.0
C3647 C 0.39312 0.16695 0.76904 0.0
C3648 C 0.38624 0.15343 0.73718 0.0
C3649 C 0.35873 0.1267 0.74756 0.0
C3650 C 0.3919 0.13842 0.72839 0.0
C3651 C 0.3939 0.13737 0.71046 0.0
C3652 C 0.39053 0.15144 0.70092 0.0
C3653 C 0.38579 0.16692 0.70995 0.0
C3654 C 0.38365 0.1679 0.72798 0.0
H3655 H 0.34663 0.12154 0.75302 0.0
H3656 H 0.35455 0.13228 0.73524 0.0
H3657 H 0.36581 0.11527 0.744 0.0
H3658 H 0.39453 0.12734 0.73535 0.0
H3659 H 0.39782 0.12536 0.70398 0.0
H3660 H 0.82406 0.34515 0.66871 0.0
H3661 H 0.82216 0.33889 0.69925 0.0
H3662 H 0.86617 0.38053 0.71921 0.0
H3663 H 0.8683 0.38669 0.68897 0.0
H3664 H 0.85469 0.33051 0.72348 0.0
H3665 H 0.82477 0.3887 0.75056 0.0
H3666 H 0.82161 0.38012 0.72708 0.0
H3667 H 0.84217 0.39355 0.73739 0.0
C3668 C 0.83308 0.35318 0.67967 0.0
C3669 C 0.84631 0.36643 0.67644 0.0
C3670 C 0.83205 0.34951 0.69706 0.0
C3671 C 0.844 0.35929 0.71145 0.0
C3672 C 0.85676 0.37292 0.7083 0.0
H3673 H 0.88118 0.37351 0.82091 0.0
H3674 H 0.87307 0.37327 0.78911 0.0
C3675 C 0.85796 0.37641 0.69099 0.0
C3676 C 0.84407 0.35488 0.72978 0.0
H3677 H 0.83949 0.3731 0.77168 0.0
C3678 C 0.85103 0.33958 0.73403 0.0
C3679 C 0.83935 0.36679 0.74343 0.0
C3680 C 0.83142 0.38317 0.73945 0.0
C3681 C 0.85445 0.33647 0.75181 0.0
C3682 C 0.85047 0.34885 0.76559 0.0
C3683 C 0.84261 0.36364 0.76114 0.0
C3684 C 0.85597 0.34787 0.78476 0.0
C3685 C 0.86328 0.32059 0.75578 0.0
C3686 C 0.8493 0.33348 0.79296 0.0
C3687 C 0.8541 0.33348 0.81131 0.0
C3688 C 0.86545 0.348 0.82173 0.0
C3689 C 0.87233 0.36215 0.81334 0.0
C3690 C 0.86767 0.36207 0.79512 0.0
H3691 H 0.86849 0.31426 0.74401 0.0
H3692 H 0.87443 0.32451 0.76693 0.0
H3693 H 0.85343 0.3105 0.75982 0.0
H3694 H 0.84005 0.32248 0.78529 0.0
H3695 H 0.84847 0.32246 0.81741 0.0
H3696 H 0.63528 0.15172 0.33378 0.0
H3697 H 0.63683 0.15312 0.30234 0.0
H3698 H 0.6378 0.09648 0.29317 0.0
H3699 H 0.6357 0.09488 0.32463 0.0
H3700 H 0.6627 0.14559 0.28355 0.0
H3701 H 0.59989 0.10179 0.25351 0.0
H3702 H 0.60489 0.10987 0.27703 0.0
H3703 H 0.61461 0.0913 0.26761 0.0
C3704 C 0.63561 0.1395 0.32505 0.0
C3705 C 0.63528 0.12316 0.3317 0.0
C3706 C 0.63655 0.14034 0.30707 0.0
C3707 C 0.63728 0.1249 0.29531 0.0
C3708 C 0.63686 0.10852 0.30187 0.0
H3709 H 0.67004 0.13108 0.18966 0.0
H3710 H 0.66982 0.12713 0.22095 0.0
C3711 C 0.63571 0.10763 0.31988 0.0
C3712 C 0.63903 0.12623 0.27636 0.0
H3713 H 0.61909 0.11153 0.23363 0.0
C3714 C 0.65316 0.13813 0.27262 0.0
C3715 C 0.62652 0.1166 0.26211 0.0
C3716 C 0.61053 0.1043 0.26522 0.0
C3717 C 0.65501 0.14085 0.25509 0.0
C3718 C 0.64264 0.13104 0.24083 0.0
C3719 C 0.62864 0.11896 0.24456 0.0
C3720 C 0.64327 0.13379 0.222 0.0
C3721 C 0.66982 0.15468 0.2521 0.0
C3722 C 0.62837 0.13858 0.21209 0.0
C3723 C 0.62838 0.14059 0.19422 0.0
C3724 C 0.64334 0.13794 0.18582 0.0
C3725 C 0.65839 0.13341 0.1958 0.0
C3726 C 0.6583 0.1312 0.21371 0.0
H3727 H 0.6751 0.16415 0.26442 0.0
H3728 H 0.68093 0.14794 0.24791 0.0
H3729 H 0.6652 0.16236 0.24147 0.0
H3730 H 0.61663 0.14069 0.21818 0.0
H3731 H 0.61656 0.14413 0.18695 0.0
H3732 H 0.90413 0.6063 0.31088 0.0
H3733 H 0.90088 0.60471 0.2786 0.0
H3734 H 0.84655 0.61455 0.27751 0.0
H3735 H 0.84959 0.61578 0.31004 0.0
H3736 H 0.85167 0.58916 0.2489 0.0
H3737 H 0.90045 0.65067 0.25657 0.0
H3738 H 0.90896 0.63345 0.2675 0.0
H3739 H 0.89055 0.6432 0.275 0.0
C3740 C 0.8914 0.60795 0.30379 0.0
C3741 C 0.87717 0.61142 0.31301 0.0
C3742 C 0.8896 0.60708 0.28534 0.0
C3743 C 0.87363 0.60996 0.27574 0.0
C3744 C 0.85903 0.61243 0.28473 0.0
H3745 H 0.87106 0.64311 0.17134 0.0
H3746 H 0.86827 0.64062 0.20234 0.0
C3747 C 0.86077 0.61312 0.30327 0.0
C3748 C 0.8727 0.61136 0.25652 0.0
H3749 H 0.89279 0.63447 0.22739 0.0
C3750 C 0.86054 0.59912 0.24415 0.0
C3751 C 0.88409 0.62458 0.2504 0.0
C3752 C 0.89662 0.63884 0.26306 0.0
C3753 C 0.85985 0.59946 0.22574 0.0
C3754 C 0.87188 0.61214 0.21962 0.0
C3755 C 0.8837 0.62462 0.23205 0.0
C3756 C 0.87241 0.61301 0.20041 0.0
C3757 C 0.84608 0.58641 0.21308 0.0
C3758 C 0.87572 0.59832 0.18897 0.0
C3759 C 0.87719 0.59967 0.17112 0.0
C3760 C 0.87568 0.61583 0.1645 0.0
C3761 C 0.8724 0.6305 0.17602 0.0
C3762 C 0.87075 0.62908 0.19375 0.0
H3763 H 0.83479 0.58142 0.21978 0.0
H3764 H 0.84079 0.59256 0.2015 0.0
H3765 H 0.85229 0.5748 0.20806 0.0
H3766 H 0.87752 0.58593 0.1939 0.0
H3767 H 0.8798 0.58816 0.1626 0.0
H3768 H 0.4121 0.9151 0.19188 0.0
H3769 H 0.41318 0.9174 0.22407 0.0
H3770 H 0.35706 0.89766 0.21727 0.0
H3771 H 0.35575 0.89565 0.18485 0.0
H3772 H 0.36808 0.92573 0.24572 0.0
H3773 H 0.41133 0.87291 0.24857 0.0
H3774 H 0.42015 0.89125 0.23825 0.0
H3775 H 0.39978 0.87738 0.22793 0.0
C3776 C 0.39993 0.91133 0.19719 0.0
C3777 C 0.38387 0.90496 0.1858 0.0
C3778 C 0.4006 0.91262 0.2156 0.0
C3779 C 0.3853 0.90733 0.22302 0.0
C3780 C 0.36905 0.9017 0.21177 0.0
H3781 H 0.38436 0.87557 0.32675 0.0
H3782 H 0.38154 0.87795 0.29515 0.0
C3783 C 0.36833 0.90054 0.19328 0.0
C3784 C 0.38653 0.90697 0.24243 0.0
H3785 H 0.4072 0.88846 0.27618 0.0
C3786 C 0.37659 0.91757 0.25242 0.0
C3787 C 0.39747 0.89611 0.25106 0.0
C3788 C 0.40766 0.88363 0.2409 0.0
C3789 C 0.37747 0.91776 0.27091 0.0
C3790 C 0.38884 0.90731 0.27959 0.0
C3791 C 0.39865 0.89662 0.26954 0.0
C3792 C 0.39013 0.9064 0.29894 0.0
C3793 C 0.36592 0.92879 0.28089 0.0
C3794 C 0.39603 0.92162 0.31164 0.0
C3795 C 0.39759 0.92033 0.32986 0.0
C3796 C 0.39347 0.90375 0.33562 0.0
C3797 C 0.38772 0.88855 0.32282 0.0
C3798 C 0.38606 0.88988 0.30471 0.0
H3799 H 0.35488 0.93241 0.27179 0.0
H3800 H 0.36015 0.92155 0.291 0.0
H3801 H 0.37414 0.9413 0.28789 0.0
H3802 H 0.39962 0.93445 0.30748 0.0
H3803 H 0.4021 0.93227 0.33939 0.0
H3804 H 0.15608 0.38169 0.31057 0.0
H3805 H 0.14869 0.37826 0.2784 0.0
H3806 H 0.09336 0.36272 0.28249 0.0
H3807 H 0.10066 0.3664 0.31511 0.0
H3808 H 0.13305 0.34785 0.25486 0.0
H3809 H 0.09236 0.40311 0.25176 0.0
H3810 H 0.10647 0.40073 0.27181 0.0
H3811 H 0.08579 0.38616 0.26488 0.0
C3812 C 0.14229 0.37759 0.30473 0.0
C3813 C 0.12894 0.37437 0.31546 0.0
C3814 C 0.13811 0.37557 0.28628 0.0
C3815 C 0.12049 0.37028 0.27803 0.0
C3816 C 0.10703 0.36701 0.28861 0.0
H3817 H 0.10906 0.35179 0.15978 0.0
H3818 H 0.1053 0.34574 0.18999 0.0
C3819 C 0.11122 0.3691 0.30722 0.0
C3820 C 0.11664 0.36851 0.25835 0.0
H3821 H 0.09896 0.38926 0.22478 0.0
C3822 C 0.12533 0.35666 0.24819 0.0
C3823 C 0.1066 0.38007 0.24975 0.0
C3824 C 0.09732 0.39334 0.26004 0.0
C3825 C 0.12511 0.35677 0.22983 0.0
C3826 C 0.11569 0.36887 0.22137 0.0
C3827 C 0.10614 0.37998 0.23133 0.0
C3828 C 0.11758 0.37202 0.20292 0.0
C3829 C 0.13592 0.34481 0.21988 0.0
C3830 C 0.12558 0.38878 0.20018 0.0
C3831 C 0.12765 0.39227 0.18308 0.0
C3832 C 0.12178 0.37908 0.16823 0.0
C3833 C 0.11385 0.36219 0.17095 0.0
C3834 C 0.1117 0.35871 0.18818 0.0
H3835 H 0.14463 0.33827 0.22898 0.0
H3836 H 0.1268 0.33425 0.2106 0.0
H3837 H 0.14436 0.3525 0.21188 0.0
H3838 H 0.13031 0.39921 0.21135 0.0
H3839 H 0.13385 0.40542 0.18153 0.0
H3840 H 0.69263 0.65143 0.89495 0.0
H3841 H 0.72438 0.65408 0.89297 0.0
H3842 H 0.7126 0.63568 0.83654 0.0
H3843 H 0.68066 0.63329 0.83833 0.0
H3844 H 0.74315 0.6278 0.88285 0.0
H3845 H 0.74922 0.67965 0.83853 0.0
H3846 H 0.72982 0.67494 0.84926 0.0
H3847 H 0.73272 0.66074 0.82957 0.0
C3848 C 0.69673 0.64806 0.88206 0.0
C3849 C 0.68406 0.64215 0.86678 0.0
C3850 C 0.71493 0.64959 0.88096 0.0
C3851 C 0.72091 0.6453 0.86458 0.0
C3852 C 0.70832 0.63944 0.84927 0.0
H3853 H 0.82674 0.61939 0.8544 0.0
H3854 H 0.79471 0.61924 0.85326 0.0
C3855 C 0.69005 0.63797 0.85033 0.0
C3856 C 0.74031 0.64611 0.86385 0.0
H3857 H 0.77461 0.66527 0.84484 0.0
C3858 C 0.75002 0.63602 0.87455 0.0
C3859 C 0.74932 0.65702 0.8532 0.0
C3860 C 0.7398 0.66884 0.84211 0.0
C3861 C 0.76842 0.63638 0.87478 0.0
C3862 C 0.77735 0.64683 0.86371 0.0
C3863 C 0.76771 0.65712 0.85317 0.0
C3864 C 0.79672 0.6473 0.86309 0.0
C3865 C 0.7782 0.62581 0.88716 0.0
C3866 C 0.80847 0.6633 0.8683 0.0
C3867 C 0.82686 0.66348 0.86883 0.0
C3868 C 0.8338 0.64765 0.86412 0.0
C3869 C 0.8219 0.6318 0.85829 0.0
C3870 C 0.80356 0.63165 0.8577 0.0
H3871 H 0.77052 0.62249 0.89799 0.0
H3872 H 0.7803 0.61312 0.87951 0.0
H3873 H 0.79142 0.63325 0.89326 0.0
H3874 H 0.80346 0.67556 0.87241 0.0
H3875 H 0.83564 0.67592 0.87335 0.0
H3876 H 0.67617 0.38368 0.08838 0.0
H3877 H 0.70806 0.38327 0.08754 0.0
H3878 H 0.71895 0.40039 0.14422 0.0
H3879 H 0.68727 0.40043 0.14526 0.0
H3880 H 0.73713 0.40921 0.0968 0.0
H3881 H 0.74282 0.35619 0.1393 0.0
H3882 H 0.72161 0.36141 0.12988 0.0
H3883 H 0.73385 0.37466 0.14983 0.0
C3884 C 0.68537 0.38735 0.10066 0.0
C3885 C 0.67914 0.39189 0.11691 0.0
C3886 C 0.70358 0.38712 0.10016 0.0
C3887 C 0.71586 0.39142 0.11588 0.0
C3888 C 0.7097 0.39654 0.13199 0.0
H3889 H 0.83052 0.42073 0.12853 0.0
H3890 H 0.79827 0.42033 0.12527 0.0
C3891 C 0.69155 0.39665 0.13253 0.0
C3892 C 0.73511 0.3906 0.11559 0.0
H3893 H 0.7701 0.37258 0.13465 0.0
C3894 C 0.74433 0.40109 0.10496 0.0
C3895 C 0.74445 0.37977 0.126 0.0
C3896 C 0.73514 0.36723 0.13675 0.0
C3897 C 0.76274 0.40147 0.10487 0.0
C3898 C 0.77224 0.39137 0.11603 0.0
C3899 C 0.76289 0.3805 0.12626 0.0
C3900 C 0.79185 0.39181 0.11737 0.0
C3901 C 0.77174 0.41249 0.09264 0.0
C3902 C 0.79906 0.37588 0.11449 0.0
C3903 C 0.81749 0.37603 0.11666 0.0
C3904 C 0.82914 0.39215 0.12171 0.0
C3905 C 0.82192 0.40811 0.12448 0.0
C3906 C 0.80346 0.40792 0.12248 0.0
H3907 H 0.7621 0.41473 0.0813 0.0
H3908 H 0.77767 0.4257 0.10018 0.0
H3909 H 0.78251 0.40601 0.08728 0.0
H3910 H 0.79039 0.36326 0.11063 0.0
H3911 H 0.82259 0.3635 0.11438 0.0
H3912 H 0.62528 0.69386 0.11267 0.0
H3913 H 0.62459 0.72584 0.11525 0.0
H3914 H 0.63755 0.73059 0.17231 0.0
H3915 H 0.63794 0.69839 0.16991 0.0
H3916 H 0.61049 0.74942 0.16193 0.0
H3917 H 0.66753 0.76457 0.12567 0.0
H3918 H 0.65041 0.74783 0.11317 0.0
H3919 H 0.66254 0.74348 0.13351 0.0
C3920 C 0.62806 0.70167 0.1258 0.0
C3921 C 0.6318 0.69356 0.14109 0.0
C3922 C 0.62774 0.72 0.12722 0.0
C3923 C 0.63134 0.73066 0.14394 0.0
C3924 C 0.63484 0.72261 0.15927 0.0
H3925 H 0.65566 0.8459 0.15851 0.0
H3926 H 0.65614 0.81409 0.15861 0.0
C3927 C 0.63509 0.70422 0.15787 0.0
C3928 C 0.6312 0.75015 0.14534 0.0
H3929 H 0.64987 0.78765 0.1309 0.0
C3930 C 0.61916 0.75782 0.15525 0.0
C3931 C 0.6427 0.76112 0.1368 0.0
C3932 C 0.65665 0.75388 0.12684 0.0
C3933 C 0.61805 0.77612 0.15653 0.0
C3934 C 0.62903 0.78695 0.14736 0.0
C3935 C 0.64131 0.77931 0.13776 0.0
C3936 C 0.62832 0.8063 0.1478 0.0
C3937 C 0.60533 0.78372 0.16792 0.0
C3938 C 0.61252 0.81252 0.14159 0.0
C3939 C 0.61216 0.83078 0.14162 0.0
C3940 C 0.62767 0.84311 0.14764 0.0
C3941 C 0.64348 0.83679 0.15375 0.0
C3942 C 0.64379 0.81859 0.15382 0.0
H3943 H 0.60173 0.77494 0.17782 0.0
H3944 H 0.61112 0.79713 0.17512 0.0
H3945 H 0.5929 0.78498 0.15929 0.0
H3946 H 0.60053 0.80326 0.13648 0.0
H3947 H 0.5998 0.83519 0.13672 0.0
H3948 H 0.18326 0.61601 0.12417 0.0
H3949 H 0.21524 0.61761 0.12421 0.0
H3950 H 0.2214 0.6749 0.13545 0.0
H3951 H 0.18914 0.67346 0.13509 0.0
H3952 H 0.2404 0.66307 0.10907 0.0
H3953 H 0.25345 0.62814 0.16746 0.0
H3954 H 0.23658 0.61555 0.15053 0.0
H3955 H 0.23274 0.63648 0.16189 0.0
C3956 C 0.19137 0.62898 0.12676 0.0
C3957 C 0.18362 0.64462 0.12976 0.0
C3958 C 0.2097 0.62986 0.12686 0.0
C3959 C 0.22075 0.64634 0.13017 0.0
C3960 C 0.2131 0.66202 0.13299 0.0
H3961 H 0.33583 0.65533 0.15436 0.0
H3962 H 0.30437 0.65735 0.15501 0.0
C3963 C 0.19468 0.66118 0.13282 0.0
C3964 C 0.24024 0.64709 0.1303 0.0
H3965 H 0.27664 0.6313 0.14948 0.0
C3966 C 0.24838 0.65626 0.118 0.0
C3967 C 0.25067 0.63838 0.14211 0.0
C3968 C 0.24296 0.62924 0.15636 0.0
C3969 C 0.2666 0.65655 0.11688 0.0
C3970 C 0.27684 0.64711 0.12812 0.0
C3971 C 0.26876 0.63834 0.14071 0.0
C3972 C 0.29601 0.64635 0.1273 0.0
C3973 C 0.27473 0.66716 0.10384 0.0
C3974 C 0.30181 0.63936 0.11152 0.0
C3975 C 0.31987 0.63828 0.11106 0.0
C3976 C 0.33243 0.64395 0.12646 0.0
C3977 C 0.32653 0.6508 0.14226 0.0
C3978 C 0.30854 0.65199 0.14266 0.0
H3979 H 0.26662 0.67754 0.10012 0.0
H3980 H 0.28844 0.67371 0.1094 0.0
H3981 H 0.2754 0.65809 0.09151 0.0
H3982 H 0.29234 0.63451 0.09962 0.0
H3983 H 0.32396 0.63284 0.09872 0.0
H3984 H 0.36499 0.1956 0.14871 0.0
H3985 H 0.36432 0.22754 0.15025 0.0
H3986 H 0.4216 0.23745 0.16195 0.0
H3987 H 0.42244 0.20536 0.16004 0.0
H3988 H 0.3758 0.25504 0.17716 0.0
H3989 H 0.41213 0.26391 0.11979 0.0
H3990 H 0.40368 0.24224 0.12471 0.0
H3991 H 0.42402 0.25445 0.13715 0.0
C3992 C 0.37748 0.20453 0.15162 0.0
C3993 C 0.39379 0.19787 0.15413 0.0
C3994 C 0.37706 0.22282 0.15252 0.0
C3995 C 0.39291 0.2349 0.15595 0.0
C3996 C 0.40922 0.22836 0.1589 0.0
H3997 H 0.39577 0.35052 0.18155 0.0
H3998 H 0.39816 0.31917 0.18341 0.0
C3999 C 0.40966 0.21001 0.1579 0.0
C4000 C 0.39221 0.25428 0.15629 0.0
H4001 H 0.40517 0.28997 0.13585 0.0
C4002 C 0.38226 0.2627 0.16816 0.0
C4003 C 0.40045 0.26421 0.14438 0.0
C4004 C 0.41054 0.25574 0.13066 0.0
C4005 C 0.38026 0.28075 0.16841 0.0
C4006 C 0.38874 0.29075 0.15671 0.0
C4007 C 0.39876 0.28233 0.1449 0.0
C4008 C 0.38686 0.30976 0.15594 0.0
C4009 C 0.36861 0.28875 0.18081 0.0
C4010 C 0.37997 0.31497 0.13983 0.0
C4011 C 0.37876 0.33288 0.13868 0.0
C4012 C 0.38441 0.346 0.15363 0.0
C4013 C 0.39114 0.34074 0.16983 0.0
C4014 C 0.39246 0.3228 0.17093 0.0
H4015 H 0.35949 0.27834 0.18537 0.0
H4016 H 0.37715 0.29659 0.19274 0.0
H4017 H 0.36053 0.29782 0.17427 0.0
H4018 H 0.37559 0.30517 0.12807 0.0
H4019 H 0.37352 0.33643 0.12599 0.0
H4020 H 0.32612 0.37971 0.8477 0.0
H4021 H 0.29382 0.37383 0.84718 0.0
H4022 H 0.30175 0.36484 0.90195 0.0
H4023 H 0.33394 0.37128 0.90276 0.0
H4024 H 0.27077 0.34554 0.85283 0.0
H4025 H 0.27068 0.40346 0.90436 0.0
H4026 H 0.29002 0.39992 0.89393 0.0
H4027 H 0.28454 0.38779 0.91165 0.0
C4028 C 0.32097 0.37645 0.85962 0.0
C4029 C 0.33259 0.37624 0.87535 0.0
C4030 C 0.30252 0.37304 0.85929 0.0
C4031 C 0.29534 0.36925 0.87464 0.0
C4032 C 0.30695 0.36821 0.89009 0.0
H4033 H 0.1797 0.33726 0.87387 0.0
H4034 H 0.21182 0.33592 0.87551 0.0
C4035 C 0.32536 0.37185 0.89051 0.0
C4036 C 0.27577 0.36707 0.87466 0.0
H4037 H 0.24336 0.38466 0.89487 0.0
C4038 C 0.26474 0.35405 0.86203 0.0
C4039 C 0.26793 0.3783 0.8866 0.0
C4040 C 0.27887 0.39326 0.89979 0.0
C4041 C 0.24608 0.35211 0.86088 0.0
C4042 C 0.23829 0.36325 0.87292 0.0
C4043 C 0.24936 0.37602 0.88575 0.0
C4044 C 0.21875 0.36331 0.87145 0.0
C4045 C 0.23488 0.33866 0.84635 0.0
C4046 C 0.21201 0.37914 0.86888 0.0
C4047 C 0.1939 0.38 0.86823 0.0
C4048 C 0.18193 0.36501 0.87004 0.0
C4049 C 0.18857 0.34901 0.87237 0.0
C4050 C 0.20689 0.34821 0.8732 0.0
H4051 H 0.24276 0.33388 0.83595 0.0
H4052 H 0.22939 0.32698 0.85223 0.0
H4053 H 0.22354 0.34441 0.83992 0.0
H4054 H 0.22085 0.39095 0.86743 0.0
H4055 H 0.18929 0.39252 0.86625 0.0
H4056 H 0.65243 0.19444 0.89241 0.0
H4057 H 0.65277 0.22658 0.8951 0.0
H4058 H 0.59595 0.21869 0.87887 0.0
H4059 H 0.59541 0.18638 0.87663 0.0
H4060 H 0.64417 0.24666 0.87049 0.0
H4061 H 0.60077 0.25515 0.92275 0.0
H4062 H 0.60957 0.23469 0.9172 0.0
H4063 H 0.59035 0.23959 0.90362 0.0
C4064 C 0.63996 0.19949 0.88947 0.0
C4065 C 0.62387 0.1878 0.88434 0.0
C4066 C 0.64018 0.21791 0.89103 0.0
C4067 C 0.62436 0.22512 0.88748 0.0
C4068 C 0.60828 0.2135 0.88214 0.0
H4069 H 0.62102 0.33216 0.86247 0.0
H4070 H 0.61911 0.30008 0.86218 0.0
C4071 C 0.60801 0.19501 0.88072 0.0
C4072 C 0.62496 0.24477 0.8887 0.0
H4073 H 0.60812 0.28038 0.90833 0.0
C4074 C 0.63632 0.25402 0.87883 0.0
C4075 C 0.61496 0.25446 0.89979 0.0
C4076 C 0.60336 0.24551 0.91158 0.0
C4077 C 0.63777 0.27258 0.87953 0.0
C4078 C 0.6272 0.28217 0.89001 0.0
C4079 C 0.61606 0.273 0.90014 0.0
C4080 C 0.62748 0.3017 0.89049 0.0
C4081 C 0.6509 0.28174 0.86926 0.0
C4082 C 0.6321 0.31333 0.90664 0.0
C4083 C 0.63299 0.33178 0.9069 0.0
C4084 C 0.62929 0.33892 0.891 0.0
C4085 C 0.6242 0.32717 0.87494 0.0
C4086 C 0.62318 0.30878 0.87472 0.0
H4087 H 0.66151 0.27357 0.86649 0.0
H4088 H 0.64382 0.28383 0.85629 0.0
H4089 H 0.65727 0.29491 0.87663 0.0
H4090 H 0.63535 0.30815 0.919 0.0
H4091 H 0.63689 0.34045 0.91949 0.0
H4092 H 0.39099 0.69393 0.86783 0.0
H4093 H 0.39672 0.72618 0.86937 0.0
H4094 H 0.41184 0.73163 0.92624 0.0
H4095 H 0.40585 0.69918 0.92488 0.0
H4096 H 0.38893 0.75455 0.91667 0.0
H4097 H 0.44404 0.75863 0.87642 0.0
H4098 H 0.42481 0.74379 0.86503 0.0
H4099 H 0.43649 0.73866 0.88525 0.0
C4100 C 0.39563 0.70192 0.88069 0.0
C4101 C 0.39801 0.69393 0.89624 0.0
C4102 C 0.39905 0.72039 0.88151 0.0
C4103 C 0.40509 0.73131 0.89786 0.0
C4104 C 0.40736 0.72343 0.91345 0.0
H4105 H 0.43663 0.84677 0.90189 0.0
H4106 H 0.43752 0.81535 0.90508 0.0
C4107 C 0.40391 0.70489 0.91265 0.0
C4108 C 0.40804 0.75097 0.89864 0.0
H4109 H 0.42922 0.7845 0.88006 0.0
C4110 C 0.39792 0.76113 0.90886 0.0
C4111 C 0.41998 0.75961 0.88867 0.0
C4112 C 0.43209 0.74963 0.87838 0.0
C4113 C 0.39877 0.77954 0.90868 0.0
C4114 C 0.40978 0.78796 0.89774 0.0
C4115 C 0.42058 0.77798 0.88823 0.0
C4116 C 0.40955 0.80687 0.89534 0.0
C4117 C 0.38774 0.78979 0.92014 0.0
C4118 C 0.39367 0.8124 0.88833 0.0
C4119 C 0.39312 0.83025 0.88649 0.0
C4120 C 0.40849 0.84298 0.89149 0.0
C4121 C 0.42456 0.83731 0.89795 0.0
C4122 C 0.42508 0.81939 0.89981 0.0
H4123 H 0.38453 0.78285 0.93149 0.0
H4124 H 0.39475 0.8034 0.92544 0.0
H4125 H 0.375 0.79099 0.912 0.0
H4126 H 0.38164 0.8029 0.88435 0.0
H4127 H 0.38055 0.83407 0.88133 0.0
loop_
_geom_bond_atom_site_label_1
_geom_bond_atom_site_label_2
_geom_bond_distance
_geom_bond_site_symmetry_2
_ccdc_geom_bond_type
C0 O2 1.247 . S
C0 O4 1.258 . S
C1 O8 1.247 . S
C1 O9 1.258 . S
O2 C0 1.247 . S
O2 Zn3 2.028 . S
Zn3 O2 2.028 . S
Zn3 O7 2.035 . S
Zn3 O9 2.035 . S
Zn3 O10 2.028 . S
O4 C0 1.258 . S
O4 Zn5 2.035 . S
Zn5 O4 2.035 . S
Zn5 O6 2.028 . S
Zn5 O8 2.028 . S
Zn5 O11 2.035 . S
O6 Zn5 2.028 . S
O6 C12 1.247 . S
O7 Zn3 2.035 . S
O7 C12 1.258 . S
O8 C1 1.247 . S
O8 Zn5 2.028 . S
O9 C1 1.258 . S
O9 Zn3 2.035 . S
O10 Zn3 2.028 . S
O10 C13 1.247 . S
O11 Zn5 2.035 . S
O11 C13 1.258 . S
C12 O6 1.247 . S
C12 O7 1.258 . S
C13 O10 1.247 . S
C13 O11 1.258 . S
C14 O16 1.247 . S
C14 O18 1.258 . S
C15 O22 1.247 . S
C15 O23 1.258 . S
O16 C14 1.247 . S
O16 Zn17 2.028 . S
Zn17 O16 2.028 . S
Zn17 O21 2.035 . S
Zn17 O23 2.035 . S
Zn17 O24 2.028 . S
O18 C14 1.258 . S
O18 Zn19 2.035 . S
Zn19 O18 2.035 . S
Zn19 O20 2.028 . S
Zn19 O22 2.028 . S
Zn19 O25 2.035 . S
O20 Zn19 2.028 . S
O20 C26 1.247 . S
O21 Zn17 2.035 . S
O21 C26 1.258 . S
O22 C15 1.247 . S
O22 Zn19 2.028 . S
O23 C15 1.258 . S
O23 Zn17 2.035 . S
O24 Zn17 2.028 . S
O24 C27 1.247 . S
O25 Zn19 2.035 . S
O25 C27 1.258 . S
C26 O20 1.247 . S
C26 O21 1.258 . S
C27 O24 1.247 . S
C27 O25 1.258 . S
C28 O30 1.247 . S
C28 O32 1.258 . S
C29 O36 1.247 . S
C29 O37 1.258 . S
O30 C28 1.247 . S
O30 Zn31 2.028 . S
Zn31 O30 2.028 . S
Zn31 O35 2.035 . S
Zn31 O37 2.035 . S
Zn31 O38 2.028 . S
O32 C28 1.258 . S
O32 Zn33 2.035 . S
Zn33 O32 2.035 . S
Zn33 O34 2.028 . S
Zn33 O36 2.028 . S
Zn33 O39 2.035 . S
O34 Zn33 2.028 . S
O34 C40 1.247 . S
O35 Zn31 2.035 . S
O35 C40 1.258 . S
O36 C29 1.247 . S
O36 Zn33 2.028 . S
O37 C29 1.258 . S
O37 Zn31 2.035 . S
O38 Zn31 2.028 . S
O38 C41 1.247 . S
O39 Zn33 2.035 . S
O39 C41 1.258 . S
C40 O34 1.247 . S
C40 O35 1.258 . S
C41 O38 1.247 . S
C41 O39 1.258 . S
C42 O44 1.247 . S
C42 O46 1.258 . S
C43 O50 1.247 . S
C43 O51 1.258 . S
O44 C42 1.247 . S
O44 Zn45 2.028 . S
Zn45 O44 2.028 . S
Zn45 O49 2.035 . S
Zn45 O51 2.035 . S
Zn45 O52 2.028 . S
O46 C42 1.258 . S
O46 Zn47 2.035 . S
Zn47 O46 2.035 . S
Zn47 O48 2.028 . S
Zn47 O50 2.028 . S
Zn47 O53 2.035 . S
O48 Zn47 2.028 . S
O48 C54 1.247 . S
O49 Zn45 2.035 . S
O49 C54 1.258 . S
O50 C43 1.247 . S
O50 Zn47 2.028 . S
O51 C43 1.258 . S
O51 Zn45 2.035 . S
O52 Zn45 2.028 . S
O52 C55 1.247 . S
O53 Zn47 2.035 . S
O53 C55 1.258 . S
C54 O48 1.247 . S
C54 O49 1.258 . S
C55 O52 1.247 . S
C55 O53 1.258 . S
C56 O58 1.247 . S
C56 O60 1.258 . S
C57 O64 1.247 . S
C57 O65 1.258 . S
O58 C56 1.247 . S
O58 Zn59 2.028 . S
Zn59 O58 2.028 . S
Zn59 O63 2.035 . S
Zn59 O65 2.035 . S
Zn59 O66 2.028 . S
O60 C56 1.258 . S
O60 Zn61 2.035 . S
Zn61 O60 2.035 . S
Zn61 O62 2.028 . S
Zn61 O64 2.028 . S
Zn61 O67 2.035 . S
O62 Zn61 2.028 . S
O62 C68 1.247 . S
O63 Zn59 2.035 . S
O63 C68 1.258 . S
O64 C57 1.247 . S
O64 Zn61 2.028 . S
O65 C57 1.258 . S
O65 Zn59 2.035 . S
O66 Zn59 2.028 . S
O66 C69 1.247 . S
O67 Zn61 2.035 . S
O67 C69 1.258 . S
C68 O62 1.247 . S
C68 O63 1.258 . S
C69 O66 1.247 . S
C69 O67 1.258 . S
C70 O72 1.247 . S
C70 O74 1.258 . S
C71 O78 1.247 . S
C71 O79 1.258 . S
O72 C70 1.247 . S
O72 Zn73 2.028 . S
Zn73 O72 2.028 . S
Zn73 O77 2.035 . S
Zn73 O79 2.035 . S
Zn73 O80 2.028 . S
O74 C70 1.258 . S
O74 Zn75 2.035 . S
Zn75 O74 2.035 . S
Zn75 O76 2.028 . S
Zn75 O78 2.028 . S
Zn75 O81 2.035 . S
O76 Zn75 2.028 . S
O76 C82 1.247 . S
O77 Zn73 2.035 . S
O77 C82 1.258 . S
O78 C71 1.247 . S
O78 Zn75 2.028 . S
O79 C71 1.258 . S
O79 Zn73 2.035 . S
O80 Zn73 2.028 . S
O80 C83 1.247 . S
O81 Zn75 2.035 . S
O81 C83 1.258 . S
C82 O76 1.247 . S
C82 O77 1.258 . S
C83 O80 1.247 . S
C83 O81 1.258 . S
C84 O86 1.247 . S
C84 O88 1.258 . S
C85 O92 1.247 . S
C85 O93 1.258 . S
O86 C84 1.247 . S
O86 Zn87 2.028 . S
Zn87 O86 2.028 . S
Zn87 O91 2.035 . S
Zn87 O93 2.035 . S
Zn87 O94 2.028 . S
O88 C84 1.258 . S
O88 Zn89 2.035 . S
Zn89 O88 2.035 . S
Zn89 O90 2.028 . S
Zn89 O92 2.028 . S
Zn89 O95 2.035 . S
O90 Zn89 2.028 . S
O90 C96 1.247 . S
O91 Zn87 2.035 . S
O91 C96 1.258 . S
O92 C85 1.247 . S
O92 Zn89 2.028 . S
O93 C85 1.258 . S
O93 Zn87 2.035 . S
O94 Zn87 2.028 . S
O94 C97 1.247 . S
O95 Zn89 2.035 . S
O95 C97 1.258 . S
C96 O90 1.247 . S
C96 O91 1.258 . S
C97 O94 1.247 . S
C97 O95 1.258 . S
C98 O100 1.247 . S
C98 O102 1.258 . S
C99 O106 1.247 . S
C99 O107 1.258 . S
O100 C98 1.247 . S
O100 Zn101 2.028 . S
Zn101 O100 2.028 . S
Zn101 O105 2.035 . S
Zn101 O107 2.035 . S
Zn101 O108 2.028 . S
O102 C98 1.258 . S
O102 Zn103 2.035 . S
Zn103 O102 2.035 . S
Zn103 O104 2.028 . S
Zn103 O106 2.028 . S
Zn103 O109 2.035 . S
O104 Zn103 2.028 . S
O104 C110 1.247 . S
O105 Zn101 2.035 . S
O105 C110 1.258 . S
O106 C99 1.247 . S
O106 Zn103 2.028 . S
O107 C99 1.258 . S
O107 Zn101 2.035 . S
O108 Zn101 2.028 . S
O108 C111 1.247 . S
O109 Zn103 2.035 . S
O109 C111 1.258 . S
C110 O104 1.247 . S
C110 O105 1.258 . S
C111 O108 1.247 . S
C111 O109 1.258 . S
C112 O114 1.247 . S
C112 O116 1.258 . S
C113 O120 1.247 . S
C113 O121 1.258 . S
O114 C112 1.247 . S
O114 Zn115 2.028 . S
Zn115 O114 2.028 . S
Zn115 O119 2.035 . S
Zn115 O121 2.035 . S
Zn115 O122 2.028 . S
O116 C112 1.258 . S
O116 Zn117 2.035 . S
Zn117 O116 2.035 . S
Zn117 O118 2.028 . S
Zn117 O120 2.028 . S
Zn117 O123 2.035 . S
O118 Zn117 2.028 . S
O118 C124 1.247 . S
O119 Zn115 2.035 . S
O119 C124 1.258 . S
O120 C113 1.247 . S
O120 Zn117 2.028 . S
O121 C113 1.258 . S
O121 Zn115 2.035 . S
O122 Zn115 2.028 . S
O122 C125 1.247 . S
O123 Zn117 2.035 . S
O123 C125 1.258 . S
C124 O118 1.247 . S
C124 O119 1.258 . S
C125 O122 1.247 . S
C125 O123 1.258 . S
C126 O128 1.247 . S
C126 O130 1.258 . S
C127 O134 1.247 . S
C127 O135 1.258 . S
O128 C126 1.247 . S
O128 Zn129 2.028 . S
Zn129 O128 2.028 . S
Zn129 O133 2.035 . S
Zn129 O135 2.035 . S
Zn129 O136 2.028 . S
O130 C126 1.258 . S
O130 Zn131 2.035 . S
Zn131 O130 2.035 . S
Zn131 O132 2.028 . S
Zn131 O134 2.028 . S
Zn131 O137 2.035 . S
O132 Zn131 2.028 . S
O132 C138 1.247 . S
O133 Zn129 2.035 . S
O133 C138 1.258 . S
O134 C127 1.247 . S
O134 Zn131 2.028 . S
O135 C127 1.258 . S
O135 Zn129 2.035 . S
O136 Zn129 2.028 . S
O136 C139 1.247 . S
O137 Zn131 2.035 . S
O137 C139 1.258 . S
C138 O132 1.247 . S
C138 O133 1.258 . S
C139 O136 1.247 . S
C139 O137 1.258 . S
C140 O142 1.247 . S
C140 O144 1.258 . S
C141 O148 1.247 . S
C141 O149 1.258 . S
O142 C140 1.247 . S
O142 Zn143 2.028 . S
Zn143 O142 2.028 . S
Zn143 O147 2.035 . S
Zn143 O149 2.035 . S
Zn143 O150 2.028 . S
O144 C140 1.258 . S
O144 Zn145 2.035 . S
Zn145 O144 2.035 . S
Zn145 O146 2.028 . S
Zn145 O148 2.028 . S
Zn145 O151 2.035 . S
O146 Zn145 2.028 . S
O146 C152 1.247 . S
O147 Zn143 2.035 . S
O147 C152 1.258 . S
O148 C141 1.247 . S
O148 Zn145 2.028 . S
O149 C141 1.258 . S
O149 Zn143 2.035 . S
O150 Zn143 2.028 . S
O150 C153 1.247 . S
O151 Zn145 2.035 . S
O151 C153 1.258 . S
C152 O146 1.247 . S
C152 O147 1.258 . S
C153 O150 1.247 . S
C153 O151 1.258 . S
C154 O156 1.247 . S
C154 O158 1.258 . S
C155 O162 1.247 . S
C155 O163 1.258 . S
O156 C154 1.247 . S
O156 Zn157 2.028 . S
Zn157 O156 2.028 . S
Zn157 O161 2.035 . S
Zn157 O163 2.035 . S
Zn157 O164 2.028 . S
O158 C154 1.258 . S
O158 Zn159 2.035 . S
Zn159 O158 2.035 . S
Zn159 O160 2.028 . S
Zn159 O162 2.028 . S
Zn159 O165 2.035 . S
O160 Zn159 2.028 . S
O160 C166 1.247 . S
O161 Zn157 2.035 . S
O161 C166 1.258 . S
O162 C155 1.247 . S
O162 Zn159 2.028 . S
O163 C155 1.258 . S
O163 Zn157 2.035 . S
O164 Zn157 2.028 . S
O164 C167 1.247 . S
O165 Zn159 2.035 . S
O165 C167 1.258 . S
C166 O160 1.247 . S
C166 O161 1.258 . S
C167 O164 1.247 . S
C167 O165 1.258 . S
C168 O170 1.247 . S
C168 O172 1.258 . S
C169 O176 1.247 . S
C169 O177 1.258 . S
O170 C168 1.247 . S
O170 Zn171 2.028 . S
Zn171 O170 2.028 . S
Zn171 O175 2.035 . S
Zn171 O177 2.035 . S
Zn171 O178 2.028 . S
O172 C168 1.258 . S
O172 Zn173 2.035 . S
Zn173 O172 2.035 . S
Zn173 O174 2.028 . S
Zn173 O176 2.028 . S
Zn173 O179 2.035 . S
O174 Zn173 2.028 . S
O174 C180 1.247 . S
O175 Zn171 2.035 . S
O175 C180 1.258 . S
O176 C169 1.247 . S
O176 Zn173 2.028 . S
O177 C169 1.258 . S
O177 Zn171 2.035 . S
O178 Zn171 2.028 . S
O178 C181 1.247 . S
O179 Zn173 2.035 . S
O179 C181 1.258 . S
C180 O174 1.247 . S
C180 O175 1.258 . S
C181 O178 1.247 . S
C181 O179 1.258 . S
C182 O184 1.247 . S
C182 O186 1.258 . S
C183 O190 1.247 . S
C183 O191 1.258 . S
O184 C182 1.247 . S
O184 Zn185 2.028 . S
Zn185 O184 2.028 . S
Zn185 O189 2.035 . S
Zn185 O191 2.035 . S
Zn185 O192 2.028 . S
O186 C182 1.258 . S
O186 Zn187 2.035 . S
Zn187 O186 2.035 . S
Zn187 O188 2.028 . S
Zn187 O190 2.028 . S
Zn187 O193 2.035 . S
O188 Zn187 2.028 . S
O188 C194 1.247 . S
O189 Zn185 2.035 . S
O189 C194 1.258 . S
O190 C183 1.247 . S
O190 Zn187 2.028 . S
O191 C183 1.258 . S
O191 Zn185 2.035 . S
O192 Zn185 2.028 . S
O192 C195 1.247 . S
O193 Zn187 2.035 . S
O193 C195 1.258 . S
C194 O188 1.247 . S
C194 O189 1.258 . S
C195 O192 1.247 . S
C195 O193 1.258 . S
C196 O198 1.247 . S
C196 O200 1.258 . S
C197 O204 1.247 . S
C197 O205 1.258 . S
O198 C196 1.247 . S
O198 Zn199 2.028 . S
Zn199 O198 2.028 . S
Zn199 O203 2.035 . S
Zn199 O205 2.035 . S
Zn199 O206 2.028 . S
O200 C196 1.258 . S
O200 Zn201 2.035 . S
Zn201 O200 2.035 . S
Zn201 O202 2.028 . S
Zn201 O204 2.028 . S
Zn201 O207 2.035 . S
O202 Zn201 2.028 . S
O202 C208 1.247 . S
O203 Zn199 2.035 . S
O203 C208 1.258 . S
O204 C197 1.247 . S
O204 Zn201 2.028 . S
O205 C197 1.258 . S
O205 Zn199 2.035 . S
O206 Zn199 2.028 . S
O206 C209 1.247 . S
O207 Zn201 2.035 . S
O207 C209 1.258 . S
C208 O202 1.247 . S
C208 O203 1.258 . S
C209 O206 1.247 . S
C209 O207 1.258 . S
C210 O212 1.247 . S
C210 O214 1.258 . S
C211 O218 1.247 . S
C211 O219 1.258 . S
O212 C210 1.247 . S
O212 Zn213 2.028 . S
Zn213 O212 2.028 . S
Zn213 O217 2.035 . S
Zn213 O219 2.035 . S
Zn213 O220 2.028 . S
O214 C210 1.258 . S
O214 Zn215 2.035 . S
Zn215 O214 2.035 . S
Zn215 O216 2.028 . S
Zn215 O218 2.028 . S
Zn215 O221 2.035 . S
O216 Zn215 2.028 . S
O216 C222 1.247 . S
O217 Zn213 2.035 . S
O217 C222 1.258 . S
O218 C211 1.247 . S
O218 Zn215 2.028 . S
O219 C211 1.258 . S
O219 Zn213 2.035 . S
O220 Zn213 2.028 . S
O220 C223 1.247 . S
O221 Zn215 2.035 . S
O221 C223 1.258 . S
C222 O216 1.247 . S
C222 O217 1.258 . S
C223 O220 1.247 . S
C223 O221 1.258 . S
C224 O226 1.247 . S
C224 O228 1.258 . S
C225 O232 1.247 . S
C225 O233 1.258 . S
O226 C224 1.247 . S
O226 Zn227 2.028 . S
Zn227 O226 2.028 . S
Zn227 O231 2.035 . S
Zn227 O233 2.035 . S
Zn227 O234 2.028 . S
O228 C224 1.258 . S
O228 Zn229 2.035 . S
Zn229 O228 2.035 . S
Zn229 O230 2.028 . S
Zn229 O232 2.028 . S
Zn229 O235 2.035 . S
O230 Zn229 2.028 . S
O230 C236 1.247 . S
O231 Zn227 2.035 . S
O231 C236 1.258 . S
O232 C225 1.247 . S
O232 Zn229 2.028 . S
O233 C225 1.258 . S
O233 Zn227 2.035 . S
O234 Zn227 2.028 . S
O234 C237 1.247 . S
O235 Zn229 2.035 . S
O235 C237 1.258 . S
C236 O230 1.247 . S
C236 O231 1.258 . S
C237 O234 1.247 . S
C237 O235 1.258 . S
C238 O240 1.247 . S
C238 O242 1.258 . S
C239 O246 1.247 . S
C239 O247 1.258 . S
O240 C238 1.247 . S
O240 Zn241 2.028 . S
Zn241 O240 2.028 . S
Zn241 O245 2.035 . S
Zn241 O247 2.035 . S
Zn241 O248 2.028 . S
O242 C238 1.258 . S
O242 Zn243 2.035 . S
Zn243 O242 2.035 . S
Zn243 O244 2.028 . S
Zn243 O246 2.028 . S
Zn243 O249 2.035 . S
O244 Zn243 2.028 . S
O244 C250 1.247 . S
O245 Zn241 2.035 . S
O245 C250 1.258 . S
O246 C239 1.247 . S
O246 Zn243 2.028 . S
O247 C239 1.258 . S
O247 Zn241 2.035 . S
O248 Zn241 2.028 . S
O248 C251 1.247 . S
O249 Zn243 2.035 . S
O249 C251 1.258 . S
C250 O244 1.247 . S
C250 O245 1.258 . S
C251 O248 1.247 . S
C251 O249 1.258 . S
C252 O254 1.247 . S
C252 O256 1.258 . S
C253 O260 1.247 . S
C253 O261 1.258 . S
O254 C252 1.247 . S
O254 Zn255 2.028 . S
Zn255 O254 2.028 . S
Zn255 O259 2.035 . S
Zn255 O261 2.035 . S
Zn255 O262 2.028 . S
O256 C252 1.258 . S
O256 Zn257 2.035 . S
Zn257 O256 2.035 . S
Zn257 O258 2.028 . S
Zn257 O260 2.028 . S
Zn257 O263 2.035 . S
O258 Zn257 2.028 . S
O258 C264 1.247 . S
O259 Zn255 2.035 . S
O259 C264 1.258 . S
O260 C253 1.247 . S
O260 Zn257 2.028 . S
O261 C253 1.258 . S
O261 Zn255 2.035 . S
O262 Zn255 2.028 . S
O262 C265 1.247 . S
O263 Zn257 2.035 . S
O263 C265 1.258 . S
C264 O258 1.247 . S
C264 O259 1.258 . S
C265 O262 1.247 . S
C265 O263 1.258 . S
C266 O268 1.247 . S
C266 O270 1.258 . S
C267 O274 1.247 . S
C267 O275 1.258 . S
O268 C266 1.247 . S
O268 Zn269 2.028 . S
Zn269 O268 2.028 . S
Zn269 O273 2.035 . S
Zn269 O275 2.035 . S
Zn269 O276 2.028 . S
O270 C266 1.258 . S
O270 Zn271 2.035 . S
Zn271 O270 2.035 . S
Zn271 O272 2.028 . S
Zn271 O274 2.028 . S
Zn271 O277 2.035 . S
O272 Zn271 2.028 . S
O272 C278 1.247 . S
O273 Zn269 2.035 . S
O273 C278 1.258 . S
O274 C267 1.247 . S
O274 Zn271 2.028 . S
O275 C267 1.258 . S
O275 Zn269 2.035 . S
O276 Zn269 2.028 . S
O276 C279 1.247 . S
O277 Zn271 2.035 . S
O277 C279 1.258 . S
C278 O272 1.247 . S
C278 O273 1.258 . S
C279 O276 1.247 . S
C279 O277 1.258 . S
C280 O282 1.247 . S
C280 O284 1.258 . S
C281 O288 1.247 . S
C281 O289 1.258 . S
O282 C280 1.247 . S
O282 Zn283 2.028 . S
Zn283 O282 2.028 . S
Zn283 O287 2.035 . S
Zn283 O289 2.035 . S
Zn283 O290 2.028 . S
O284 C280 1.258 . S
O284 Zn285 2.035 . S
Zn285 O284 2.035 . S
Zn285 O286 2.028 . S
Zn285 O288 2.028 . S
Zn285 O291 2.035 . S
O286 Zn285 2.028 . S
O286 C292 1.247 . S
O287 Zn283 2.035 . S
O287 C292 1.258 . S
O288 C281 1.247 . S
O288 Zn285 2.028 . S
O289 C281 1.258 . S
O289 Zn283 2.035 . S
O290 Zn283 2.028 . S
O290 C293 1.247 . S
O291 Zn285 2.035 . S
O291 C293 1.258 . S
C292 O286 1.247 . S
C292 O287 1.258 . S
C293 O290 1.247 . S
C293 O291 1.258 . S
C294 O296 1.247 . S
C294 O298 1.258 . S
C295 O302 1.247 . S
C295 O303 1.258 . S
O296 C294 1.247 . S
O296 Zn297 2.028 . S
Zn297 O296 2.028 . S
Zn297 O301 2.035 . S
Zn297 O303 2.035 . S
Zn297 O304 2.028 . S
O298 C294 1.258 . S
O298 Zn299 2.035 . S
Zn299 O298 2.035 . S
Zn299 O300 2.028 . S
Zn299 O302 2.028 . S
Zn299 O305 2.035 . S
O300 Zn299 2.028 . S
O300 C306 1.247 . S
O301 Zn297 2.035 . S
O301 C306 1.258 . S
O302 C295 1.247 . S
O302 Zn299 2.028 . S
O303 C295 1.258 . S
O303 Zn297 2.035 . S
O304 Zn297 2.028 . S
O304 C307 1.247 . S
O305 Zn299 2.035 . S
O305 C307 1.258 . S
C306 O300 1.247 . S
C306 O301 1.258 . S
C307 O304 1.247 . S
C307 O305 1.258 . S
C308 O310 1.247 . S
C308 O312 1.258 . S
C309 O316 1.247 . S
C309 O317 1.258 . S
O310 C308 1.247 . S
O310 Zn311 2.028 . S
Zn311 O310 2.028 . S
Zn311 O315 2.035 . S
Zn311 O317 2.035 . S
Zn311 O318 2.028 . S
O312 C308 1.258 . S
O312 Zn313 2.035 . S
Zn313 O312 2.035 . S
Zn313 O314 2.028 . S
Zn313 O316 2.028 . S
Zn313 O319 2.035 . S
O314 Zn313 2.028 . S
O314 C320 1.247 . S
O315 Zn311 2.035 . S
O315 C320 1.258 . S
O316 C309 1.247 . S
O316 Zn313 2.028 . S
O317 C309 1.258 . S
O317 Zn311 2.035 . S
O318 Zn311 2.028 . S
O318 C321 1.247 . S
O319 Zn313 2.035 . S
O319 C321 1.258 . S
C320 O314 1.247 . S
C320 O315 1.258 . S
C321 O318 1.247 . S
C321 O319 1.258 . S
C322 O324 1.247 . S
C322 O326 1.258 . S
C323 O330 1.247 . S
C323 O331 1.258 . S
O324 C322 1.247 . S
O324 Zn325 2.028 . S
Zn325 O324 2.028 . S
Zn325 O329 2.035 . S
Zn325 O331 2.035 . S
Zn325 O332 2.028 . S
O326 C322 1.258 . S
O326 Zn327 2.035 . S
Zn327 O326 2.035 . S
Zn327 O328 2.028 . S
Zn327 O330 2.028 . S
Zn327 O333 2.035 . S
O328 Zn327 2.028 . S
O328 C334 1.247 . S
O329 Zn325 2.035 . S
O329 C334 1.258 . S
O330 C323 1.247 . S
O330 Zn327 2.028 . S
O331 C323 1.258 . S
O331 Zn325 2.035 . S
O332 Zn325 2.028 . S
O332 C335 1.247 . S
O333 Zn327 2.035 . S
O333 C335 1.258 . S
C334 O328 1.247 . S
C334 O329 1.258 . S
C335 O332 1.247 . S
C335 O333 1.258 . S
C336 O338 1.247 . S
C336 O340 1.258 . S
C337 O344 1.247 . S
C337 O345 1.258 . S
O338 C336 1.247 . S
O338 Zn339 2.028 . S
Zn339 O338 2.028 . S
Zn339 O343 2.035 . S
Zn339 O345 2.035 . S
Zn339 O346 2.028 . S
O340 C336 1.258 . S
O340 Zn341 2.035 . S
Zn341 O340 2.035 . S
Zn341 O342 2.028 . S
Zn341 O344 2.028 . S
Zn341 O347 2.035 . S
O342 Zn341 2.028 . S
O342 C348 1.247 . S
O343 Zn339 2.035 . S
O343 C348 1.258 . S
O344 C337 1.247 . S
O344 Zn341 2.028 . S
O345 C337 1.258 . S
O345 Zn339 2.035 . S
O346 Zn339 2.028 . S
O346 C349 1.247 . S
O347 Zn341 2.035 . S
O347 C349 1.258 . S
C348 O342 1.247 . S
C348 O343 1.258 . S
C349 O346 1.247 . S
C349 O347 1.258 . S
C350 O352 1.247 . S
C350 O354 1.258 . S
C351 O358 1.247 . S
C351 O359 1.258 . S
O352 C350 1.247 . S
O352 Zn353 2.028 . S
Zn353 O352 2.028 . S
Zn353 O357 2.035 . S
Zn353 O359 2.035 . S
Zn353 O360 2.028 . S
O354 C350 1.258 . S
O354 Zn355 2.035 . S
Zn355 O354 2.035 . S
Zn355 O356 2.028 . S
Zn355 O358 2.028 . S
Zn355 O361 2.035 . S
O356 Zn355 2.028 . S
O356 C362 1.247 . S
O357 Zn353 2.035 . S
O357 C362 1.258 . S
O358 C351 1.247 . S
O358 Zn355 2.028 . S
O359 C351 1.258 . S
O359 Zn353 2.035 . S
O360 Zn353 2.028 . S
O360 C363 1.247 . S
O361 Zn355 2.035 . S
O361 C363 1.258 . S
C362 O356 1.247 . S
C362 O357 1.258 . S
C363 O360 1.247 . S
C363 O361 1.258 . S
C364 O366 1.247 . S
C364 O368 1.258 . S
C365 O372 1.247 . S
C365 O373 1.258 . S
O366 C364 1.247 . S
O366 Zn367 2.028 . S
Zn367 O366 2.028 . S
Zn367 O371 2.035 . S
Zn367 O373 2.035 . S
Zn367 O374 2.028 . S
O368 C364 1.258 . S
O368 Zn369 2.035 . S
Zn369 O368 2.035 . S
Zn369 O370 2.028 . S
Zn369 O372 2.028 . S
Zn369 O375 2.035 . S
O370 Zn369 2.028 . S
O370 C376 1.247 . S
O371 Zn367 2.035 . S
O371 C376 1.258 . S
O372 C365 1.247 . S
O372 Zn369 2.028 . S
O373 C365 1.258 . S
O373 Zn367 2.035 . S
O374 Zn367 2.028 . S
O374 C377 1.247 . S
O375 Zn369 2.035 . S
O375 C377 1.258 . S
C376 O370 1.247 . S
C376 O371 1.258 . S
C377 O374 1.247 . S
C377 O375 1.258 . S
C378 O380 1.247 . S
C378 O382 1.258 . S
C379 O386 1.247 . S
C379 O387 1.258 . S
O380 C378 1.247 . S
O380 Zn381 2.028 . S
Zn381 O380 2.028 . S
Zn381 O385 2.035 . S
Zn381 O387 2.035 . S
Zn381 O388 2.028 . S
O382 C378 1.258 . S
O382 Zn383 2.035 . S
Zn383 O382 2.035 . S
Zn383 O384 2.028 . S
Zn383 O386 2.028 . S
Zn383 O389 2.035 . S
O384 Zn383 2.028 . S
O384 C390 1.247 . S
O385 Zn381 2.035 . S
O385 C390 1.258 . S
O386 C379 1.247 . S
O386 Zn383 2.028 . S
O387 C379 1.258 . S
O387 Zn381 2.035 . S
O388 Zn381 2.028 . S
O388 C391 1.247 . S
O389 Zn383 2.035 . S
O389 C391 1.258 . S
C390 O384 1.247 . S
C390 O385 1.258 . S
C391 O388 1.247 . S
C391 O389 1.258 . S
C392 O394 1.247 . S
C392 O396 1.258 . S
C393 O400 1.247 . S
C393 O401 1.258 . S
O394 C392 1.247 . S
O394 Zn395 2.028 . S
Zn395 O394 2.028 . S
Zn395 O399 2.035 . S
Zn395 O401 2.035 . S
Zn395 O402 2.028 . S
O396 C392 1.258 . S
O396 Zn397 2.035 . S
Zn397 O396 2.035 . S
Zn397 O398 2.028 . S
Zn397 O400 2.028 . S
Zn397 O403 2.035 . S
O398 Zn397 2.028 . S
O398 C404 1.247 . S
O399 Zn395 2.035 . S
O399 C404 1.258 . S
O400 C393 1.247 . S
O400 Zn397 2.028 . S
O401 C393 1.258 . S
O401 Zn395 2.035 . S
O402 Zn395 2.028 . S
O402 C405 1.247 . S
O403 Zn397 2.035 . S
O403 C405 1.258 . S
C404 O398 1.247 . S
C404 O399 1.258 . S
C405 O402 1.247 . S
C405 O403 1.258 . S
C406 O408 1.247 . S
C406 O410 1.258 . S
C407 O414 1.247 . S
C407 O415 1.258 . S
O408 C406 1.247 . S
O408 Zn409 2.028 . S
Zn409 O408 2.028 . S
Zn409 O413 2.035 . S
Zn409 O415 2.035 . S
Zn409 O416 2.028 . S
O410 C406 1.258 . S
O410 Zn411 2.035 . S
Zn411 O410 2.035 . S
Zn411 O412 2.028 . S
Zn411 O414 2.028 . S
Zn411 O417 2.035 . S
O412 Zn411 2.028 . S
O412 C418 1.247 . S
O413 Zn409 2.035 . S
O413 C418 1.258 . S
O414 C407 1.247 . S
O414 Zn411 2.028 . S
O415 C407 1.258 . S
O415 Zn409 2.035 . S
O416 Zn409 2.028 . S
O416 C419 1.247 . S
O417 Zn411 2.035 . S
O417 C419 1.258 . S
C418 O412 1.247 . S
C418 O413 1.258 . S
C419 O416 1.247 . S
C419 O417 1.258 . S
C420 O422 1.247 . S
C420 O424 1.258 . S
C421 O428 1.247 . S
C421 O429 1.258 . S
O422 C420 1.247 . S
O422 Zn423 2.028 . S
Zn423 O422 2.028 . S
Zn423 O427 2.035 . S
Zn423 O429 2.035 . S
Zn423 O430 2.028 . S
O424 C420 1.258 . S
O424 Zn425 2.035 . S
Zn425 O424 2.035 . S
Zn425 O426 2.028 . S
Zn425 O428 2.028 . S
Zn425 O431 2.035 . S
O426 Zn425 2.028 . S
O426 C432 1.247 . S
O427 Zn423 2.035 . S
O427 C432 1.258 . S
O428 C421 1.247 . S
O428 Zn425 2.028 . S
O429 C421 1.258 . S
O429 Zn423 2.035 . S
O430 Zn423 2.028 . S
O430 C433 1.247 . S
O431 Zn425 2.035 . S
O431 C433 1.258 . S
C432 O426 1.247 . S
C432 O427 1.258 . S
C433 O430 1.247 . S
C433 O431 1.258 . S
C434 O436 1.247 . S
C434 O438 1.258 . S
C435 O442 1.247 . S
C435 O443 1.258 . S
O436 C434 1.247 . S
O436 Zn437 2.028 . S
Zn437 O436 2.028 . S
Zn437 O441 2.035 . S
Zn437 O443 2.035 . S
Zn437 O444 2.028 . S
O438 C434 1.258 . S
O438 Zn439 2.035 . S
Zn439 O438 2.035 . S
Zn439 O440 2.028 . S
Zn439 O442 2.028 . S
Zn439 O445 2.035 . S
O440 Zn439 2.028 . S
O440 C446 1.247 . S
O441 Zn437 2.035 . S
O441 C446 1.258 . S
O442 C435 1.247 . S
O442 Zn439 2.028 . S
O443 C435 1.258 . S
O443 Zn437 2.035 . S
O444 Zn437 2.028 . S
O444 C447 1.247 . S
O445 Zn439 2.035 . S
O445 C447 1.258 . S
C446 O440 1.247 . S
C446 O441 1.258 . S
C447 O444 1.247 . S
C447 O445 1.258 . S
C448 O450 1.247 . S
C448 O452 1.258 . S
C449 O456 1.247 . S
C449 O457 1.258 . S
O450 C448 1.247 . S
O450 Zn451 2.028 . S
Zn451 O450 2.028 . S
Zn451 O455 2.035 . S
Zn451 O457 2.035 . S
Zn451 O458 2.028 . S
O452 C448 1.258 . S
O452 Zn453 2.035 . S
Zn453 O452 2.035 . S
Zn453 O454 2.028 . S
Zn453 O456 2.028 . S
Zn453 O459 2.035 . S
O454 Zn453 2.028 . S
O454 C460 1.247 . S
O455 Zn451 2.035 . S
O455 C460 1.258 . S
O456 C449 1.247 . S
O456 Zn453 2.028 . S
O457 C449 1.258 . S
O457 Zn451 2.035 . S
O458 Zn451 2.028 . S
O458 C461 1.247 . S
O459 Zn453 2.035 . S
O459 C461 1.258 . S
C460 O454 1.247 . S
C460 O455 1.258 . S
C461 O458 1.247 . S
C461 O459 1.258 . S
C462 O464 1.247 . S
C462 O466 1.258 . S
C463 O470 1.247 . S
C463 O471 1.258 . S
O464 C462 1.247 . S
O464 Zn465 2.028 . S
Zn465 O464 2.028 . S
Zn465 O469 2.035 . S
Zn465 O471 2.035 . S
Zn465 O472 2.028 . S
O466 C462 1.258 . S
O466 Zn467 2.035 . S
Zn467 O466 2.035 . S
Zn467 O468 2.028 . S
Zn467 O470 2.028 . S
Zn467 O473 2.035 . S
O468 Zn467 2.028 . S
O468 C474 1.247 . S
O469 Zn465 2.035 . S
O469 C474 1.258 . S
O470 C463 1.247 . S
O470 Zn467 2.028 . S
O471 C463 1.258 . S
O471 Zn465 2.035 . S
O472 Zn465 2.028 . S
O472 C475 1.247 . S
O473 Zn467 2.035 . S
O473 C475 1.258 . S
C474 O468 1.247 . S
C474 O469 1.258 . S
C475 O472 1.247 . S
C475 O473 1.258 . S
C476 O478 1.247 . S
C476 O480 1.258 . S
C477 O484 1.247 . S
C477 O485 1.258 . S
O478 C476 1.247 . S
O478 Zn479 2.028 . S
Zn479 O478 2.028 . S
Zn479 O483 2.035 . S
Zn479 O485 2.035 . S
Zn479 O486 2.028 . S
O480 C476 1.258 . S
O480 Zn481 2.035 . S
Zn481 O480 2.035 . S
Zn481 O482 2.028 . S
Zn481 O484 2.028 . S
Zn481 O487 2.035 . S
O482 Zn481 2.028 . S
O482 C488 1.247 . S
O483 Zn479 2.035 . S
O483 C488 1.258 . S
O484 C477 1.247 . S
O484 Zn481 2.028 . S
O485 C477 1.258 . S
O485 Zn479 2.035 . S
O486 Zn479 2.028 . S
O486 C489 1.247 . S
O487 Zn481 2.035 . S
O487 C489 1.258 . S
C488 O482 1.247 . S
C488 O483 1.258 . S
C489 O486 1.247 . S
C489 O487 1.258 . S
C490 O492 1.247 . S
C490 O494 1.258 . S
C491 O498 1.247 . S
C491 O499 1.258 . S
O492 C490 1.247 . S
O492 Zn493 2.028 . S
Zn493 O492 2.028 . S
Zn493 O497 2.035 . S
Zn493 O499 2.035 . S
Zn493 O500 2.028 . S
O494 C490 1.258 . S
O494 Zn495 2.035 . S
Zn495 O494 2.035 . S
Zn495 O496 2.028 . S
Zn495 O498 2.028 . S
Zn495 O501 2.035 . S
O496 Zn495 2.028 . S
O496 C502 1.247 . S
O497 Zn493 2.035 . S
O497 C502 1.258 . S
O498 C491 1.247 . S
O498 Zn495 2.028 . S
O499 C491 1.258 . S
O499 Zn493 2.035 . S
O500 Zn493 2.028 . S
O500 C503 1.247 . S
O501 Zn495 2.035 . S
O501 C503 1.258 . S
C502 O496 1.247 . S
C502 O497 1.258 . S
C503 O500 1.247 . S
C503 O501 1.258 . S
C504 O506 1.247 . S
C504 O508 1.258 . S
C505 O512 1.247 . S
C505 O513 1.258 . S
O506 C504 1.247 . S
O506 Zn507 2.028 . S
Zn507 O506 2.028 . S
Zn507 O511 2.035 . S
Zn507 O513 2.035 . S
Zn507 O514 2.028 . S
O508 C504 1.258 . S
O508 Zn509 2.035 . S
Zn509 O508 2.035 . S
Zn509 O510 2.028 . S
Zn509 O512 2.028 . S
Zn509 O515 2.035 . S
O510 Zn509 2.028 . S
O510 C516 1.247 . S
O511 Zn507 2.035 . S
O511 C516 1.258 . S
O512 C505 1.247 . S
O512 Zn509 2.028 . S
O513 C505 1.258 . S
O513 Zn507 2.035 . S
O514 Zn507 2.028 . S
O514 C517 1.247 . S
O515 Zn509 2.035 . S
O515 C517 1.258 . S
C516 O510 1.247 . S
C516 O511 1.258 . S
C517 O514 1.247 . S
C517 O515 1.258 . S
C518 O520 1.247 . S
C518 O522 1.258 . S
C519 O526 1.247 . S
C519 O527 1.258 . S
O520 C518 1.247 . S
O520 Zn521 2.028 . S
Zn521 O520 2.028 . S
Zn521 O525 2.035 . S
Zn521 O527 2.035 . S
Zn521 O528 2.028 . S
O522 C518 1.258 . S
O522 Zn523 2.035 . S
Zn523 O522 2.035 . S
Zn523 O524 2.028 . S
Zn523 O526 2.028 . S
Zn523 O529 2.035 . S
O524 Zn523 2.028 . S
O524 C530 1.247 . S
O525 Zn521 2.035 . S
O525 C530 1.258 . S
O526 C519 1.247 . S
O526 Zn523 2.028 . S
O527 C519 1.258 . S
O527 Zn521 2.035 . S
O528 Zn521 2.028 . S
O528 C531 1.247 . S
O529 Zn523 2.035 . S
O529 C531 1.258 . S
C530 O524 1.247 . S
C530 O525 1.258 . S
C531 O528 1.247 . S
C531 O529 1.258 . S
C532 O534 1.247 . S
C532 O536 1.258 . S
C533 O540 1.247 . S
C533 O541 1.258 . S
O534 C532 1.247 . S
O534 Zn535 2.028 . S
Zn535 O534 2.028 . S
Zn535 O539 2.035 . S
Zn535 O541 2.035 . S
Zn535 O542 2.028 . S
O536 C532 1.258 . S
O536 Zn537 2.035 . S
Zn537 O536 2.035 . S
Zn537 O538 2.028 . S
Zn537 O540 2.028 . S
Zn537 O543 2.035 . S
O538 Zn537 2.028 . S
O538 C544 1.247 . S
O539 Zn535 2.035 . S
O539 C544 1.258 . S
O540 C533 1.247 . S
O540 Zn537 2.028 . S
O541 C533 1.258 . S
O541 Zn535 2.035 . S
O542 Zn535 2.028 . S
O542 C545 1.247 . S
O543 Zn537 2.035 . S
O543 C545 1.258 . S
C544 O538 1.247 . S
C544 O539 1.258 . S
C545 O542 1.247 . S
C545 O543 1.258 . S
C546 O548 1.247 . S
C546 O550 1.258 . S
C547 O554 1.247 . S
C547 O555 1.258 . S
O548 C546 1.247 . S
O548 Zn549 2.028 . S
Zn549 O548 2.028 . S
Zn549 O553 2.035 . S
Zn549 O555 2.035 . S
Zn549 O556 2.028 . S
O550 C546 1.258 . S
O550 Zn551 2.035 . S
Zn551 O550 2.035 . S
Zn551 O552 2.028 . S
Zn551 O554 2.028 . S
Zn551 O557 2.035 . S
O552 Zn551 2.028 . S
O552 C558 1.247 . S
O553 Zn549 2.035 . S
O553 C558 1.258 . S
O554 C547 1.247 . S
O554 Zn551 2.028 . S
O555 C547 1.258 . S
O555 Zn549 2.035 . S
O556 Zn549 2.028 . S
O556 C559 1.247 . S
O557 Zn551 2.035 . S
O557 C559 1.258 . S
C558 O552 1.247 . S
C558 O553 1.258 . S
C559 O556 1.247 . S
C559 O557 1.258 . S
C560 O562 1.247 . S
C560 O564 1.258 . S
C561 O568 1.247 . S
C561 O569 1.258 . S
O562 C560 1.247 . S
O562 Zn563 2.028 . S
Zn563 O562 2.028 . S
Zn563 O567 2.035 . S
Zn563 O569 2.035 . S
Zn563 O570 2.028 . S
O564 C560 1.258 . S
O564 Zn565 2.035 . S
Zn565 O564 2.035 . S
Zn565 O566 2.028 . S
Zn565 O568 2.028 . S
Zn565 O571 2.035 . S
O566 Zn565 2.028 . S
O566 C572 1.247 . S
O567 Zn563 2.035 . S
O567 C572 1.258 . S
O568 C561 1.247 . S
O568 Zn565 2.028 . S
O569 C561 1.258 . S
O569 Zn563 2.035 . S
O570 Zn563 2.028 . S
O570 C573 1.247 . S
O571 Zn565 2.035 . S
O571 C573 1.258 . S
C572 O566 1.247 . S
C572 O567 1.258 . S
C573 O570 1.247 . S
C573 O571 1.258 . S
C574 O576 1.247 . S
C574 O578 1.258 . S
C575 O582 1.247 . S
C575 O583 1.258 . S
O576 C574 1.247 . S
O576 Zn577 2.028 . S
Zn577 O576 2.028 . S
Zn577 O581 2.035 . S
Zn577 O583 2.035 . S
Zn577 O584 2.028 . S
O578 C574 1.258 . S
O578 Zn579 2.035 . S
Zn579 O578 2.035 . S
Zn579 O580 2.028 . S
Zn579 O582 2.028 . S
Zn579 O585 2.035 . S
O580 Zn579 2.028 . S
O580 C586 1.247 . S
O581 Zn577 2.035 . S
O581 C586 1.258 . S
O582 C575 1.247 . S
O582 Zn579 2.028 . S
O583 C575 1.258 . S
O583 Zn577 2.035 . S
O584 Zn577 2.028 . S
O584 C587 1.247 . S
O585 Zn579 2.035 . S
O585 C587 1.258 . S
C586 O580 1.247 . S
C586 O581 1.258 . S
C587 O584 1.247 . S
C587 O585 1.258 . S
C588 O590 1.247 . S
C588 O592 1.258 . S
C589 O596 1.247 . S
C589 O597 1.258 . S
O590 C588 1.247 . S
O590 Zn591 2.028 . S
Zn591 O590 2.028 . S
Zn591 O595 2.035 . S
Zn591 O597 2.035 . S
Zn591 O598 2.028 . S
O592 C588 1.258 . S
O592 Zn593 2.035 . S
Zn593 O592 2.035 . S
Zn593 O594 2.028 . S
Zn593 O596 2.028 . S
Zn593 O599 2.035 . S
O594 Zn593 2.028 . S
O594 C600 1.247 . S
O595 Zn591 2.035 . S
O595 C600 1.258 . S
O596 C589 1.247 . S
O596 Zn593 2.028 . S
O597 C589 1.258 . S
O597 Zn591 2.035 . S
O598 Zn591 2.028 . S
O598 C601 1.247 . S
O599 Zn593 2.035 . S
O599 C601 1.258 . S
C600 O594 1.247 . S
C600 O595 1.258 . S
C601 O598 1.247 . S
C601 O599 1.258 . S
C602 O604 1.247 . S
C602 O606 1.258 . S
C603 O610 1.247 . S
C603 O611 1.258 . S
O604 C602 1.247 . S
O604 Zn605 2.028 . S
Zn605 O604 2.028 . S
Zn605 O609 2.035 . S
Zn605 O611 2.035 . S
Zn605 O612 2.028 . S
O606 C602 1.258 . S
O606 Zn607 2.035 . S
Zn607 O606 2.035 . S
Zn607 O608 2.028 . S
Zn607 O610 2.028 . S
Zn607 O613 2.035 . S
O608 Zn607 2.028 . S
O608 C614 1.247 . S
O609 Zn605 2.035 . S
O609 C614 1.258 . S
O610 C603 1.247 . S
O610 Zn607 2.028 . S
O611 C603 1.258 . S
O611 Zn605 2.035 . S
O612 Zn605 2.028 . S
O612 C615 1.247 . S
O613 Zn607 2.035 . S
O613 C615 1.258 . S
C614 O608 1.247 . S
C614 O609 1.258 . S
C615 O612 1.247 . S
C615 O613 1.258 . S
C616 O618 1.247 . S
C616 O620 1.258 . S
C617 O624 1.247 . S
C617 O625 1.258 . S
O618 C616 1.247 . S
O618 Zn619 2.028 . S
Zn619 O618 2.028 . S
Zn619 O623 2.035 . S
Zn619 O625 2.035 . S
Zn619 O626 2.028 . S
O620 C616 1.258 . S
O620 Zn621 2.035 . S
Zn621 O620 2.035 . S
Zn621 O622 2.028 . S
Zn621 O624 2.028 . S
Zn621 O627 2.035 . S
O622 Zn621 2.028 . S
O622 C628 1.247 . S
O623 Zn619 2.035 . S
O623 C628 1.258 . S
O624 C617 1.247 . S
O624 Zn621 2.028 . S
O625 C617 1.258 . S
O625 Zn619 2.035 . S
O626 Zn619 2.028 . S
O626 C629 1.247 . S
O627 Zn621 2.035 . S
O627 C629 1.258 . S
C628 O622 1.247 . S
C628 O623 1.258 . S
C629 O626 1.247 . S
C629 O627 1.258 . S
C630 O632 1.247 . S
C630 O634 1.258 . S
C631 O638 1.247 . S
C631 O639 1.258 . S
O632 C630 1.247 . S
O632 Zn633 2.028 . S
Zn633 O632 2.028 . S
Zn633 O637 2.035 . S
Zn633 O639 2.035 . S
Zn633 O640 2.028 . S
O634 C630 1.258 . S
O634 Zn635 2.035 . S
Zn635 O634 2.035 . S
Zn635 O636 2.028 . S
Zn635 O638 2.028 . S
Zn635 O641 2.035 . S
O636 Zn635 2.028 . S
O636 C642 1.247 . S
O637 Zn633 2.035 . S
O637 C642 1.258 . S
O638 C631 1.247 . S
O638 Zn635 2.028 . S
O639 C631 1.258 . S
O639 Zn633 2.035 . S
O640 Zn633 2.028 . S
O640 C643 1.247 . S
O641 Zn635 2.035 . S
O641 C643 1.258 . S
C642 O636 1.247 . S
C642 O637 1.258 . S
C643 O640 1.247 . S
C643 O641 1.258 . S
C644 O646 1.247 . S
C644 O648 1.258 . S
C645 O652 1.247 . S
C645 O653 1.258 . S
O646 C644 1.247 . S
O646 Zn647 2.028 . S
Zn647 O646 2.028 . S
Zn647 O651 2.035 . S
Zn647 O653 2.035 . S
Zn647 O654 2.028 . S
O648 C644 1.258 . S
O648 Zn649 2.035 . S
Zn649 O648 2.035 . S
Zn649 O650 2.028 . S
Zn649 O652 2.028 . S
Zn649 O655 2.035 . S
O650 Zn649 2.028 . S
O650 C656 1.247 . S
O651 Zn647 2.035 . S
O651 C656 1.258 . S
O652 C645 1.247 . S
O652 Zn649 2.028 . S
O653 C645 1.258 . S
O653 Zn647 2.035 . S
O654 Zn647 2.028 . S
O654 C657 1.247 . S
O655 Zn649 2.035 . S
O655 C657 1.258 . S
C656 O650 1.247 . S
C656 O651 1.258 . S
C657 O654 1.247 . S
C657 O655 1.258 . S
C658 O660 1.247 . S
C658 O662 1.258 . S
C659 O666 1.247 . S
C659 O667 1.258 . S
O660 C658 1.247 . S
O660 Zn661 2.028 . S
Zn661 O660 2.028 . S
Zn661 O665 2.035 . S
Zn661 O667 2.035 . S
Zn661 O668 2.028 . S
O662 C658 1.258 . S
O662 Zn663 2.035 . S
Zn663 O662 2.035 . S
Zn663 O664 2.028 . S
Zn663 O666 2.028 . S
Zn663 O669 2.035 . S
O664 Zn663 2.028 . S
O664 C670 1.247 . S
O665 Zn661 2.035 . S
O665 C670 1.258 . S
O666 C659 1.247 . S
O666 Zn663 2.028 . S
O667 C659 1.258 . S
O667 Zn661 2.035 . S
O668 Zn661 2.028 . S
O668 C671 1.247 . S
O669 Zn663 2.035 . S
O669 C671 1.258 . S
C670 O664 1.247 . S
C670 O665 1.258 . S
C671 O668 1.247 . S
C671 O669 1.258 . S
H672 C680 0.929 . S
H673 C682 0.930 . S
H674 C684 0.930 . S
H675 C687 0.929 . S
H676 C690 0.930 . S
H677 C692 0.960 . S
H678 C692 0.960 . S
H679 C692 0.960 . S
C680 H672 0.929 . S
C680 C681 1.377 . S
C680 C682 1.384 . S
C681 C680 1.377 . S
C681 C687 1.390 . S
C682 H673 0.930 . S
C682 C680 1.384 . S
C682 C683 1.372 . S
C683 C682 1.372 . S
C683 C684 1.400 . S
C683 C688 1.490 . S
C684 H674 0.930 . S
C684 C683 1.400 . S
C684 C687 1.386 . S
H685 C701 0.930 . S
H686 C702 0.931 . S
C687 H675 0.929 . S
C687 C681 1.390 . S
C687 C684 1.386 . S
C688 C683 1.490 . S
C688 C690 1.395 . S
C688 C691 1.403 . S
H689 C695 0.930 . S
C690 H676 0.930 . S
C690 C688 1.395 . S
C690 C693 1.403 1_565 S
C691 C688 1.403 . S
C691 C692 1.524 . S
C691 C695 1.400 1_565 S
C692 H677 0.960 . S
C692 H678 0.960 . S
C692 H679 0.960 . S
C692 C691 1.524 . S
C693 C690 1.403 1_545 S
C693 C694 1.392 . S
C693 C697 1.495 . S
C694 C693 1.392 . S
C694 C695 1.385 . S
C694 C696 1.478 . S
C695 H689 0.930 . S
C695 C691 1.400 1_545 S
C695 C694 1.385 . S
C696 C694 1.478 . S
C696 C698 1.381 . S
C696 C702 1.383 . S
C697 C693 1.495 . S
C697 H703 0.959 . S
C697 H704 0.961 . S
C697 H705 0.960 . S
C698 C696 1.381 . S
C698 C699 1.394 . S
C698 H706 0.930 . S
C699 C698 1.394 . S
C699 C700 1.383 . S
C699 H707 0.929 . S
C700 C699 1.383 . S
C700 C701 1.377 . S
C701 H685 0.930 . S
C701 C700 1.377 . S
C701 C702 1.379 . S
C702 H686 0.931 . S
C702 C696 1.383 . S
C702 C701 1.379 . S
H703 C697 0.959 . S
H704 C697 0.961 . S
H705 C697 0.960 . S
H706 C698 0.930 . S
H707 C699 0.929 . S
H708 C716 0.929 . S
H709 C718 0.930 . S
H710 C720 0.930 . S
H711 C723 0.929 . S
H712 C726 0.930 . S
H713 C728 0.960 . S
H714 C728 0.960 . S
H715 C728 0.960 . S
C716 H708 0.929 . S
C716 C717 1.377 . S
C716 C718 1.384 . S
C717 C716 1.377 . S
C717 C723 1.390 . S
C718 H709 0.930 . S
C718 C716 1.384 . S
C718 C719 1.372 . S
C719 C718 1.372 . S
C719 C720 1.400 . S
C719 C724 1.490 . S
C720 H710 0.930 . S
C720 C719 1.400 . S
C720 C723 1.386 . S
H721 C737 0.930 . S
H722 C738 0.931 . S
C723 H711 0.929 . S
C723 C717 1.390 . S
C723 C720 1.386 . S
C724 C719 1.490 . S
C724 C726 1.395 . S
C724 C727 1.403 . S
H725 C731 0.930 . S
C726 H712 0.930 . S
C726 C724 1.395 . S
C726 C729 1.403 1_455 S
C727 C724 1.403 . S
C727 C728 1.524 . S
C727 C731 1.400 1_455 S
C728 H713 0.960 . S
C728 H714 0.960 . S
C728 H715 0.960 . S
C728 C727 1.524 . S
C729 C726 1.403 1_655 S
C729 C730 1.392 . S
C729 C733 1.495 . S
C730 C729 1.392 . S
C730 C731 1.385 . S
C730 C732 1.478 . S
C731 H725 0.930 . S
C731 C727 1.400 1_655 S
C731 C730 1.385 . S
C732 C730 1.478 . S
C732 C734 1.381 . S
C732 C738 1.383 . S
C733 C729 1.495 . S
C733 H739 0.959 . S
C733 H740 0.961 . S
C733 H741 0.960 . S
C734 C732 1.381 . S
C734 C735 1.394 . S
C734 H742 0.930 . S
C735 C734 1.394 . S
C735 C736 1.383 . S
C735 H743 0.929 . S
C736 C735 1.383 . S
C736 C737 1.377 . S
C737 H721 0.930 . S
C737 C736 1.377 . S
C737 C738 1.379 . S
C738 H722 0.931 . S
C738 C732 1.383 . S
C738 C737 1.379 . S
H739 C733 0.959 . S
H740 C733 0.961 . S
H741 C733 0.960 . S
H742 C734 0.930 . S
H743 C735 0.929 . S
H744 C752 0.929 . S
H745 C754 0.930 . S
H746 C756 0.930 . S
H747 C759 0.929 . S
H748 C762 0.930 . S
H749 C764 0.960 . S
H750 C764 0.960 . S
H751 C764 0.960 . S
C752 H744 0.929 . S
C752 C753 1.377 . S
C752 C754 1.384 . S
C753 C752 1.377 . S
C753 C759 1.390 . S
C754 H745 0.930 . S
C754 C752 1.384 . S
C754 C755 1.372 . S
C755 C754 1.372 . S
C755 C756 1.400 . S
C755 C760 1.490 . S
C756 H746 0.930 . S
C756 C755 1.400 . S
C756 C759 1.386 . S
H757 C773 0.930 . S
H758 C774 0.931 . S
C759 H747 0.929 . S
C759 C753 1.390 . S
C759 C756 1.386 . S
C760 C755 1.490 . S
C760 C762 1.395 . S
C760 C763 1.403 . S
H761 C767 0.930 . S
C762 H748 0.930 . S
C762 C760 1.395 . S
C762 C765 1.403 1_565 S
C763 C760 1.403 . S
C763 C764 1.524 . S
C763 C767 1.400 1_565 S
C764 H749 0.960 . S
C764 H750 0.960 . S
C764 H751 0.960 . S
C764 C763 1.524 . S
C765 C762 1.403 1_545 S
C765 C766 1.392 . S
C765 C769 1.495 . S
C766 C765 1.392 . S
C766 C767 1.385 . S
C766 C768 1.478 . S
C767 H761 0.930 . S
C767 C763 1.400 1_545 S
C767 C766 1.385 . S
C768 C766 1.478 . S
C768 C770 1.381 . S
C768 C774 1.383 . S
C769 C765 1.495 . S
C769 H775 0.959 . S
C769 H776 0.961 . S
C769 H777 0.960 . S
C770 C768 1.381 . S
C770 C771 1.394 . S
C770 H778 0.930 . S
C771 C770 1.394 . S
C771 C772 1.383 . S
C771 H779 0.929 . S
C772 C771 1.383 . S
C772 C773 1.377 . S
C773 H757 0.930 . S
C773 C772 1.377 . S
C773 C774 1.379 . S
C774 H758 0.931 . S
C774 C768 1.383 . S
C774 C773 1.379 . S
H775 C769 0.959 . S
H776 C769 0.961 . S
H777 C769 0.960 . S
H778 C770 0.930 . S
H779 C771 0.929 . S
H780 C788 0.929 . S
H781 C790 0.930 . S
H782 C792 0.930 . S
H783 C795 0.929 . S
H784 C798 0.930 . S
H785 C800 0.929 1_455 S
H786 C800 0.960 . S
H787 C800 0.960 . S
C788 H780 0.929 . S
C788 C789 1.377 . S
C788 C790 1.384 . S
C789 C788 1.377 . S
C789 C795 1.390 . S
C790 H781 0.930 . S
C790 C788 1.384 . S
C790 C791 1.372 . S
C791 C790 1.372 . S
C791 C792 1.400 . S
C791 C796 1.490 . S
C792 H782 0.930 . S
C792 C791 1.400 . S
C792 C795 1.386 . S
H793 C809 0.930 . S
H794 C810 0.931 . S
C795 H783 0.929 . S
C795 C789 1.390 . S
C795 C792 1.386 . S
C796 C791 1.490 . S
C796 C798 1.395 . S
C796 C799 1.403 . S
H797 C803 0.930 . S
C798 H784 0.930 . S
C798 C796 1.395 . S
C798 C801 1.403 1_655 S
C799 C796 1.403 . S
C799 C800 1.524 . S
C799 C803 1.400 1_655 S
C800 H785 0.929 1_655 S
C800 H786 0.960 . S
C800 H787 0.960 . S
C800 C799 1.524 . S
C801 C798 1.403 1_455 S
C801 C802 1.392 . S
C801 C805 1.495 . S
C802 C801 1.392 . S
C802 C803 1.385 . S
C802 C804 1.478 . S
C803 H797 0.930 . S
C803 C799 1.400 1_455 S
C803 C802 1.385 . S
C804 C802 1.478 . S
C804 C806 1.381 . S
C804 C810 1.383 . S
C805 C801 1.495 . S
C805 H811 0.920 1_455 S
C805 H812 0.961 . S
C805 H813 0.960 . S
C806 C804 1.381 . S
C806 C807 1.394 . S
C806 H814 0.930 . S
C807 C806 1.394 . S
C807 C808 1.383 . S
C807 H815 0.929 . S
C808 C807 1.383 . S
C808 C809 1.377 . S
C809 H793 0.930 . S
C809 C808 1.377 . S
C809 C810 1.379 . S
C810 H794 0.931 . S
C810 C804 1.383 . S
C810 C809 1.379 . S
H811 C805 0.920 1_655 S
H812 C805 0.961 . S
H813 C805 0.960 . S
H814 C806 0.930 . S
H815 C807 0.929 . S
H816 C824 0.929 . S
H817 C826 0.930 . S
H818 C828 0.930 . S
H819 C831 0.929 . S
H820 C834 0.930 . S
H821 C836 0.931 1_545 S
H822 C836 0.960 . S
H823 C836 0.960 . S
C824 H816 0.929 . S
C824 C825 1.377 . S
C824 C826 1.384 . S
C825 C824 1.377 . S
C825 C831 1.390 . S
C826 H817 0.930 . S
C826 C824 1.384 . S
C826 C827 1.372 . S
C827 C826 1.372 . S
C827 C828 1.400 . S
C827 C832 1.490 . S
C828 H818 0.930 . S
C828 C827 1.400 . S
C828 C831 1.386 . S
H829 C845 0.930 . S
H830 C846 0.931 . S
C831 H819 0.929 . S
C831 C825 1.390 . S
C831 C828 1.386 . S
C832 C827 1.490 . S
C832 C834 1.395 . S
C832 C835 1.403 . S
H833 C839 0.930 . S
C834 H820 0.930 . S
C834 C832 1.395 . S
C834 C837 1.403 1_565 S
C835 C832 1.403 . S
C835 C836 1.524 . S
C835 C839 1.400 1_565 S
C836 H821 0.931 1_565 S
C836 H822 0.960 . S
C836 H823 0.960 . S
C836 C835 1.524 . S
C837 C834 1.403 1_545 S
C837 C838 1.392 . S
C837 C841 1.495 . S
C838 C837 1.392 . S
C838 C839 1.385 . S
C838 C840 1.478 . S
C839 H833 0.930 . S
C839 C835 1.400 1_545 S
C839 C838 1.385 . S
C840 C838 1.478 . S
C840 C842 1.381 . S
C840 C846 1.383 . S
C841 C837 1.495 . S
C841 H847 0.948 1_545 S
C841 H848 0.961 . S
C841 H849 0.960 . S
C842 C840 1.381 . S
C842 C843 1.394 . S
C842 H850 0.930 . S
C843 C842 1.394 . S
C843 C844 1.383 . S
C843 H851 0.929 . S
C844 C843 1.383 . S
C844 C845 1.377 . S
C845 H829 0.930 . S
C845 C844 1.377 . S
C845 C846 1.379 . S
C846 H830 0.931 . S
C846 C840 1.383 . S
C846 C845 1.379 . S
H847 C841 0.948 1_565 S
H848 C841 0.961 . S
H849 C841 0.960 . S
H850 C842 0.930 . S
H851 C843 0.929 . S
H852 C860 0.929 . S
H853 C862 0.930 . S
H854 C864 0.930 . S
H855 C867 0.929 . S
H856 C870 0.930 . S
H857 C872 0.960 . S
H858 C872 0.960 . S
H859 C872 0.960 . S
C860 H852 0.929 . S
C860 C861 1.377 . S
C860 C862 1.384 . S
C861 C860 1.377 . S
C861 C867 1.390 . S
C862 H853 0.930 . S
C862 C860 1.384 . S
C862 C863 1.372 . S
C863 C862 1.372 . S
C863 C864 1.400 . S
C863 C868 1.490 . S
C864 H854 0.930 . S
C864 C863 1.400 . S
C864 C867 1.386 . S
H865 C881 0.930 . S
H866 C882 0.931 . S
C867 H855 0.929 . S
C867 C861 1.390 . S
C867 C864 1.386 . S
C868 C863 1.490 . S
C868 C870 1.395 . S
C868 C871 1.403 . S
H869 C875 0.930 . S
C870 H856 0.930 . S
C870 C868 1.395 . S
C870 C873 1.403 1_655 S
C871 C868 1.403 . S
C871 C872 1.524 . S
C871 C875 1.400 1_655 S
C872 H857 0.960 . S
C872 H858 0.960 . S
C872 H859 0.960 . S
C872 C871 1.524 . S
C873 C870 1.403 1_455 S
C873 C874 1.392 . S
C873 C877 1.495 . S
C874 C873 1.392 . S
C874 C875 1.385 . S
C874 C876 1.478 . S
C875 H869 0.930 . S
C875 C871 1.400 1_455 S
C875 C874 1.385 . S
C876 C874 1.478 . S
C876 C878 1.381 . S
C876 C882 1.383 . S
C877 C873 1.495 . S
C877 H883 0.959 . S
C877 H884 0.961 . S
C877 H885 0.960 . S
C878 C876 1.381 . S
C878 C879 1.394 . S
C878 H886 0.930 . S
C879 C878 1.394 . S
C879 C880 1.383 . S
C879 H887 0.929 . S
C880 C879 1.383 . S
C880 C881 1.377 . S
C881 H865 0.930 . S
C881 C880 1.377 . S
C881 C882 1.379 . S
C882 H866 0.931 . S
C882 C876 1.383 . S
C882 C881 1.379 . S
H883 C877 0.959 . S
H884 C877 0.961 . S
H885 C877 0.960 . S
H886 C878 0.930 . S
H887 C879 0.929 . S
H888 C896 0.929 . S
H889 C898 0.930 . S
H890 C900 0.930 . S
H891 C903 0.929 . S
H892 C906 0.930 . S
H893 C908 0.960 1_565 S
H894 C908 0.960 . S
H895 C908 0.960 . S
C896 H888 0.929 . S
C896 C897 1.377 . S
C896 C898 1.384 . S
C897 C896 1.377 . S
C897 C903 1.390 . S
C898 H889 0.930 . S
C898 C896 1.384 . S
C898 C899 1.372 . S
C899 C898 1.372 . S
C899 C900 1.400 . S
C899 C904 1.490 . S
C900 H890 0.930 . S
C900 C899 1.400 . S
C900 C903 1.386 . S
H901 C917 0.930 . S
H902 C918 0.931 . S
C903 H891 0.929 . S
C903 C897 1.390 . S
C903 C900 1.386 . S
C904 C899 1.490 . S
C904 C906 1.395 . S
C904 C907 1.403 . S
H905 C911 0.930 . S
C906 H892 0.930 . S
C906 C904 1.395 . S
C906 C909 1.403 1_545 S
C907 C904 1.403 . S
C907 C908 1.524 . S
C907 C911 1.400 1_545 S
C908 H893 0.960 1_545 S
C908 H894 0.960 . S
C908 H895 0.960 . S
C908 C907 1.524 . S
C909 C906 1.403 1_565 S
C909 C910 1.392 . S
C909 C913 1.495 . S
C910 C909 1.392 . S
C910 C911 1.385 . S
C910 C912 1.478 . S
C911 H905 0.930 . S
C911 C907 1.400 1_565 S
C911 C910 1.385 . S
C912 C910 1.478 . S
C912 C914 1.381 . S
C912 C918 1.383 . S
C913 C909 1.495 . S
C913 H919 0.920 1_565 S
C913 H920 0.961 . S
C913 H921 0.960 . S
C914 C912 1.381 . S
C914 C915 1.394 . S
C914 H922 0.930 . S
C915 C914 1.394 . S
C915 C916 1.383 . S
C915 H923 0.929 . S
C916 C915 1.383 . S
C916 C917 1.377 . S
C917 H901 0.930 . S
C917 C916 1.377 . S
C917 C918 1.379 . S
C918 H902 0.931 . S
C918 C912 1.383 . S
C918 C917 1.379 . S
H919 C913 0.920 1_545 S
H920 C913 0.961 . S
H921 C913 0.960 . S
H922 C914 0.930 . S
H923 C915 0.929 . S
H924 C932 0.929 . S
H925 C934 0.930 . S
H926 C936 0.930 . S
H927 C939 0.929 . S
H928 C942 0.930 . S
H929 C944 0.960 . S
H930 C944 0.960 . S
H931 C944 0.960 . S
C932 H924 0.929 . S
C932 C933 1.377 . S
C932 C934 1.384 . S
C933 C932 1.377 . S
C933 C939 1.390 . S
C934 H925 0.930 . S
C934 C932 1.384 . S
C934 C935 1.372 . S
C935 C934 1.372 . S
C935 C936 1.400 . S
C935 C940 1.490 . S
C936 H926 0.930 . S
C936 C935 1.400 . S
C936 C939 1.386 . S
H937 C953 0.930 . S
H938 C954 0.931 . S
C939 H927 0.929 . S
C939 C933 1.390 . S
C939 C936 1.386 . S
C940 C935 1.490 . S
C940 C942 1.395 . S
C940 C943 1.403 . S
H941 C947 0.930 . S
C942 H928 0.930 . S
C942 C940 1.395 . S
C942 C945 1.403 1_455 S
C943 C940 1.403 . S
C943 C944 1.524 . S
C943 C947 1.400 1_455 S
C944 H929 0.960 . S
C944 H930 0.960 . S
C944 H931 0.960 . S
C944 C943 1.524 . S
C945 C942 1.403 1_655 S
C945 C946 1.392 . S
C945 C949 1.495 . S
C946 C945 1.392 . S
C946 C947 1.385 . S
C946 C948 1.478 . S
C947 H941 0.930 . S
C947 C943 1.400 1_655 S
C947 C946 1.385 . S
C948 C946 1.478 . S
C948 C950 1.381 . S
C948 C954 1.383 . S
C949 C945 1.495 . S
C949 H955 0.959 . S
C949 H956 0.961 . S
C949 H957 0.960 . S
C950 C948 1.381 . S
C950 C951 1.394 . S
C950 H958 0.930 . S
C951 C950 1.394 . S
C951 C952 1.383 . S
C951 H959 0.929 . S
C952 C951 1.383 . S
C952 C953 1.377 . S
C953 H937 0.930 . S
C953 C952 1.377 . S
C953 C954 1.379 . S
C954 H938 0.931 . S
C954 C948 1.383 . S
C954 C953 1.379 . S
H955 C949 0.959 . S
H956 C949 0.961 . S
H957 C949 0.960 . S
H958 C950 0.930 . S
H959 C951 0.929 . S
H960 C968 0.929 . S
H961 C970 0.930 . S
H962 C972 0.930 . S
H963 C975 0.929 . S
H964 C978 0.930 . S
H965 C980 0.960 . S
H966 C980 0.960 . S
H967 C980 0.960 . S
C968 H960 0.929 . S
C968 C969 1.377 . S
C968 C970 1.384 . S
C969 C968 1.377 . S
C969 C975 1.390 . S
C970 H961 0.930 . S
C970 C968 1.384 . S
C970 C971 1.372 . S
C971 C970 1.372 . S
C971 C972 1.400 . S
C971 C976 1.490 . S
C972 H962 0.930 . S
C972 C971 1.400 . S
C972 C975 1.386 . S
H973 C989 0.930 . S
H974 C990 0.931 . S
C975 H963 0.929 . S
C975 C969 1.390 . S
C975 C972 1.386 . S
C976 C971 1.490 . S
C976 C978 1.395 . S
C976 C979 1.403 . S
H977 C983 0.930 . S
C978 H964 0.930 . S
C978 C976 1.395 . S
C978 C981 1.403 1_554 S
C979 C976 1.403 . S
C979 C980 1.524 . S
C979 C983 1.400 1_554 S
C980 H965 0.960 . S
C980 H966 0.960 . S
C980 H967 0.960 . S
C980 C979 1.524 . S
C981 C978 1.403 1_556 S
C981 C982 1.392 . S
C981 C985 1.495 . S
C982 C981 1.392 . S
C982 C983 1.385 . S
C982 C984 1.478 . S
C983 H977 0.930 . S
C983 C979 1.400 1_556 S
C983 C982 1.385 . S
C984 C982 1.478 . S
C984 C986 1.381 . S
C984 C990 1.383 . S
C985 C981 1.495 . S
C985 H991 0.959 . S
C985 H992 0.961 . S
C985 H993 0.960 . S
C986 C984 1.381 . S
C986 C987 1.394 . S
C986 H994 0.930 . S
C987 C986 1.394 . S
C987 C988 1.383 . S
C987 H995 0.929 . S
C988 C987 1.383 . S
C988 C989 1.377 . S
C989 H973 0.930 . S
C989 C988 1.377 . S
C989 C990 1.379 . S
C990 H974 0.931 . S
C990 C984 1.383 . S
C990 C989 1.379 . S
H991 C985 0.959 . S
H992 C985 0.961 . S
H993 C985 0.960 . S
H994 C986 0.930 . S
H995 C987 0.929 . S
H996 C1004 0.929 . S
H997 C1006 0.930 . S
H998 C1008 0.930 . S
H999 C1011 0.929 . S
H1000 C1014 0.930 . S
H1001 C1016 0.960 . S
H1002 C1016 0.960 . S
H1003 C1016 0.960 . S
C1004 H996 0.929 . S
C1004 C1005 1.377 . S
C1004 C1006 1.384 . S
C1005 C1004 1.377 . S
C1005 C1011 1.390 . S
C1006 H997 0.930 . S
C1006 C1004 1.384 . S
C1006 C1007 1.372 . S
C1007 C1006 1.372 . S
C1007 C1008 1.400 . S
C1007 C1012 1.490 . S
C1008 H998 0.930 . S
C1008 C1007 1.400 . S
C1008 C1011 1.386 . S
H1009 C1025 0.930 . S
H1010 C1026 0.931 . S
C1011 H999 0.929 . S
C1011 C1005 1.390 . S
C1011 C1008 1.386 . S
C1012 C1007 1.490 . S
C1012 C1014 1.395 . S
C1012 C1015 1.403 . S
H1013 C1019 0.930 . S
C1014 H1000 0.930 . S
C1014 C1012 1.395 . S
C1014 C1017 1.403 1_556 S
C1015 C1012 1.403 . S
C1015 C1016 1.524 . S
C1015 C1019 1.400 1_556 S
C1016 H1001 0.960 . S
C1016 H1002 0.960 . S
C1016 H1003 0.960 . S
C1016 C1015 1.524 . S
C1017 C1014 1.403 1_554 S
C1017 C1018 1.392 . S
C1017 C1021 1.495 . S
C1018 C1017 1.392 . S
C1018 C1019 1.385 . S
C1018 C1020 1.478 . S
C1019 H1013 0.930 . S
C1019 C1015 1.400 1_554 S
C1019 C1018 1.385 . S
C1020 C1018 1.478 . S
C1020 C1022 1.381 . S
C1020 C1026 1.383 . S
C1021 C1017 1.495 . S
C1021 H1027 0.959 . S
C1021 H1028 0.961 . S
C1021 H1029 0.960 . S
C1022 C1020 1.381 . S
C1022 C1023 1.394 . S
C1022 H1030 0.930 . S
C1023 C1022 1.394 . S
C1023 C1024 1.383 . S
C1023 H1031 0.929 . S
C1024 C1023 1.383 . S
C1024 C1025 1.377 . S
C1025 H1009 0.930 . S
C1025 C1024 1.377 . S
C1025 C1026 1.379 . S
C1026 H1010 0.931 . S
C1026 C1020 1.383 . S
C1026 C1025 1.379 . S
H1027 C1021 0.959 . S
H1028 C1021 0.961 . S
H1029 C1021 0.960 . S
H1030 C1022 0.930 . S
H1031 C1023 0.929 . S
H1032 C1040 0.929 . S
H1033 C1042 0.930 . S
H1034 C1044 0.930 . S
H1035 C1047 0.929 . S
H1036 C1050 0.930 . S
H1037 C1052 0.960 . S
H1038 C1052 0.960 . S
H1039 C1052 0.960 . S
C1040 H1032 0.929 . S
C1040 C1041 1.377 . S
C1040 C1042 1.384 . S
C1041 C1040 1.377 . S
C1041 C1047 1.390 . S
C1042 H1033 0.930 . S
C1042 C1040 1.384 . S
C1042 C1043 1.372 . S
C1043 C1042 1.372 . S
C1043 C1044 1.400 . S
C1043 C1048 1.490 . S
C1044 H1034 0.930 . S
C1044 C1043 1.400 . S
C1044 C1047 1.386 . S
H1045 C1061 0.930 . S
H1046 C1062 0.931 . S
C1047 H1035 0.929 . S
C1047 C1041 1.390 . S
C1047 C1044 1.386 . S
C1048 C1043 1.490 . S
C1048 C1050 1.395 . S
C1048 C1051 1.403 . S
H1049 C1055 0.930 . S
C1050 H1036 0.930 . S
C1050 C1048 1.395 . S
C1050 C1053 1.403 1_556 S
C1051 C1048 1.403 . S
C1051 C1052 1.524 . S
C1051 C1055 1.400 1_556 S
C1052 H1037 0.960 . S
C1052 H1038 0.960 . S
C1052 H1039 0.960 . S
C1052 C1051 1.524 . S
C1053 C1050 1.403 1_554 S
C1053 C1054 1.392 . S
C1053 C1057 1.495 . S
C1054 C1053 1.392 . S
C1054 C1055 1.385 . S
C1054 C1056 1.478 . S
C1055 H1049 0.930 . S
C1055 C1051 1.400 1_554 S
C1055 C1054 1.385 . S
C1056 C1054 1.478 . S
C1056 C1058 1.381 . S
C1056 C1062 1.383 . S
C1057 C1053 1.495 . S
C1057 H1063 0.959 . S
C1057 H1064 0.961 . S
C1057 H1065 0.960 . S
C1058 C1056 1.381 . S
C1058 C1059 1.394 . S
C1058 H1066 0.930 . S
C1059 C1058 1.394 . S
C1059 C1060 1.383 . S
C1059 H1067 0.929 . S
C1060 C1059 1.383 . S
C1060 C1061 1.377 . S
C1061 H1045 0.930 . S
C1061 C1060 1.377 . S
C1061 C1062 1.379 . S
C1062 H1046 0.931 . S
C1062 C1056 1.383 . S
C1062 C1061 1.379 . S
H1063 C1057 0.959 . S
H1064 C1057 0.961 . S
H1065 C1057 0.960 . S
H1066 C1058 0.930 . S
H1067 C1059 0.929 . S
H1068 C1076 0.929 . S
H1069 C1078 0.930 . S
H1070 C1080 0.930 . S
H1071 C1083 0.929 . S
H1072 C1086 0.930 . S
H1073 C1088 0.960 . S
H1074 C1088 0.960 . S
H1075 C1088 0.960 . S
C1076 H1068 0.929 . S
C1076 C1077 1.377 . S
C1076 C1078 1.384 . S
C1077 C1076 1.377 . S
C1077 C1083 1.390 . S
C1078 H1069 0.930 . S
C1078 C1076 1.384 . S
C1078 C1079 1.372 . S
C1079 C1078 1.372 . S
C1079 C1080 1.400 . S
C1079 C1084 1.490 . S
C1080 H1070 0.930 . S
C1080 C1079 1.400 . S
C1080 C1083 1.386 . S
H1081 C1097 0.930 . S
H1082 C1098 0.931 . S
C1083 H1071 0.929 . S
C1083 C1077 1.390 . S
C1083 C1080 1.386 . S
C1084 C1079 1.490 . S
C1084 C1086 1.395 . S
C1084 C1087 1.403 . S
H1085 C1091 0.930 . S
C1086 H1072 0.930 . S
C1086 C1084 1.395 . S
C1086 C1089 1.403 1_556 S
C1087 C1084 1.403 . S
C1087 C1088 1.524 . S
C1087 C1091 1.400 1_556 S
C1088 H1073 0.960 . S
C1088 H1074 0.960 . S
C1088 H1075 0.960 . S
C1088 C1087 1.524 . S
C1089 C1086 1.403 1_554 S
C1089 C1090 1.392 . S
C1089 C1093 1.495 . S
C1090 C1089 1.392 . S
C1090 C1091 1.385 . S
C1090 C1092 1.478 . S
C1091 H1085 0.930 . S
C1091 C1087 1.400 1_554 S
C1091 C1090 1.385 . S
C1092 C1090 1.478 . S
C1092 C1094 1.381 . S
C1092 C1098 1.383 . S
C1093 C1089 1.495 . S
C1093 H1099 0.959 . S
C1093 H1100 0.961 . S
C1093 H1101 0.960 . S
C1094 C1092 1.381 . S
C1094 C1095 1.394 . S
C1094 H1102 0.930 . S
C1095 C1094 1.394 . S
C1095 C1096 1.383 . S
C1095 H1103 0.929 . S
C1096 C1095 1.383 . S
C1096 C1097 1.377 . S
C1097 H1081 0.930 . S
C1097 C1096 1.377 . S
C1097 C1098 1.379 . S
C1098 H1082 0.931 . S
C1098 C1092 1.383 . S
C1098 C1097 1.379 . S
H1099 C1093 0.959 . S
H1100 C1093 0.961 . S
H1101 C1093 0.960 . S
H1102 C1094 0.930 . S
H1103 C1095 0.929 . S
H1104 C1112 0.929 . S
H1105 C1114 0.930 . S
H1106 C1116 0.930 . S
H1107 C1119 0.929 . S
H1108 C1122 0.930 . S
H1109 C1124 0.960 . S
H1110 C1124 0.960 . S
H1111 C1124 0.960 . S
C1112 H1104 0.929 . S
C1112 C1113 1.377 . S
C1112 C1114 1.384 . S
C1113 C1112 1.377 . S
C1113 C1119 1.390 . S
C1114 H1105 0.930 . S
C1114 C1112 1.384 . S
C1114 C1115 1.372 . S
C1115 C1114 1.372 . S
C1115 C1116 1.400 . S
C1115 C1120 1.490 . S
C1116 H1106 0.930 . S
C1116 C1115 1.400 . S
C1116 C1119 1.386 . S
H1117 C1133 0.930 . S
H1118 C1134 0.931 . S
C1119 H1107 0.929 . S
C1119 C1113 1.390 . S
C1119 C1116 1.386 . S
C1120 C1115 1.490 . S
C1120 C1122 1.395 . S
C1120 C1123 1.403 . S
H1121 C1127 0.930 . S
C1122 H1108 0.930 . S
C1122 C1120 1.395 . S
C1122 C1125 1.403 1_554 S
C1123 C1120 1.403 . S
C1123 C1124 1.524 . S
C1123 C1127 1.400 1_554 S
C1124 H1109 0.960 . S
C1124 H1110 0.960 . S
C1124 H1111 0.960 . S
C1124 C1123 1.524 . S
C1125 C1122 1.403 1_556 S
C1125 C1126 1.392 . S
C1125 C1129 1.495 . S
C1126 C1125 1.392 . S
C1126 C1127 1.385 . S
C1126 C1128 1.478 . S
C1127 H1121 0.930 . S
C1127 C1123 1.400 1_556 S
C1127 C1126 1.385 . S
C1128 C1126 1.478 . S
C1128 C1130 1.381 . S
C1128 C1134 1.383 . S
C1129 C1125 1.495 . S
C1129 H1135 0.959 . S
C1129 H1136 0.961 . S
C1129 H1137 0.960 . S
C1130 C1128 1.381 . S
C1130 C1131 1.394 . S
C1130 H1138 0.930 . S
C1131 C1130 1.394 . S
C1131 C1132 1.383 . S
C1131 H1139 0.929 . S
C1132 C1131 1.383 . S
C1132 C1133 1.377 . S
C1133 H1117 0.930 . S
C1133 C1132 1.377 . S
C1133 C1134 1.379 . S
C1134 H1118 0.931 . S
C1134 C1128 1.383 . S
C1134 C1133 1.379 . S
H1135 C1129 0.959 . S
H1136 C1129 0.961 . S
H1137 C1129 0.960 . S
H1138 C1130 0.930 . S
H1139 C1131 0.929 . S
H1140 C1148 0.929 . S
H1141 C1150 0.930 . S
H1142 C1152 0.930 . S
H1143 C1155 0.929 . S
H1144 C1158 0.930 . S
H1145 C1160 0.927 1_554 S
H1146 C1160 0.960 . S
H1147 C1160 0.960 . S
C1148 H1140 0.929 . S
C1148 C1149 1.377 . S
C1148 C1150 1.384 . S
C1149 C1148 1.377 . S
C1149 C1155 1.390 . S
C1150 H1141 0.930 . S
C1150 C1148 1.384 . S
C1150 C1151 1.372 . S
C1151 C1150 1.372 . S
C1151 C1152 1.400 . S
C1151 C1156 1.490 . S
C1152 H1142 0.930 . S
C1152 C1151 1.400 . S
C1152 C1155 1.386 . S
H1153 C1169 0.930 . S
H1154 C1170 0.931 . S
C1155 H1143 0.929 . S
C1155 C1149 1.390 . S
C1155 C1152 1.386 . S
C1156 C1151 1.490 . S
C1156 C1158 1.395 . S
C1156 C1159 1.403 . S
H1157 C1163 0.930 . S
C1158 H1144 0.930 . S
C1158 C1156 1.395 . S
C1158 C1161 1.403 1_556 S
C1159 C1156 1.403 . S
C1159 C1160 1.524 . S
C1159 C1163 1.400 1_556 S
C1160 H1145 0.927 1_556 S
C1160 H1146 0.960 . S
C1160 H1147 0.960 . S
C1160 C1159 1.524 . S
C1161 C1158 1.403 1_554 S
C1161 C1162 1.392 . S
C1161 C1165 1.495 . S
C1162 C1161 1.392 . S
C1162 C1163 1.385 . S
C1162 C1164 1.478 . S
C1163 H1157 0.930 . S
C1163 C1159 1.400 1_554 S
C1163 C1162 1.385 . S
C1164 C1162 1.478 . S
C1164 C1166 1.381 . S
C1164 C1170 1.383 . S
C1165 C1161 1.495 . S
C1165 H1171 0.917 1_554 S
C1165 H1172 0.961 . S
C1165 H1173 0.960 . S
C1166 C1164 1.381 . S
C1166 C1167 1.394 . S
C1166 H1174 0.930 . S
C1167 C1166 1.394 . S
C1167 C1168 1.383 . S
C1167 H1175 0.929 . S
C1168 C1167 1.383 . S
C1168 C1169 1.377 . S
C1169 H1153 0.930 . S
C1169 C1168 1.377 . S
C1169 C1170 1.379 . S
C1170 H1154 0.931 . S
C1170 C1164 1.383 . S
C1170 C1169 1.379 . S
H1171 C1165 0.917 1_556 S
H1172 C1165 0.961 . S
H1173 C1165 0.960 . S
H1174 C1166 0.930 . S
H1175 C1167 0.929 . S
H1176 C1184 0.929 . S
H1177 C1186 0.930 . S
H1178 C1188 0.930 . S
H1179 C1191 0.929 . S
H1180 C1194 0.930 . S
H1181 C1196 0.960 . S
H1182 C1196 0.960 . S
H1183 C1196 0.960 . S
C1184 H1176 0.929 . S
C1184 C1185 1.377 . S
C1184 C1186 1.384 . S
C1185 C1184 1.377 . S
C1185 C1191 1.390 . S
C1186 H1177 0.930 . S
C1186 C1184 1.384 . S
C1186 C1187 1.372 . S
C1187 C1186 1.372 . S
C1187 C1188 1.400 . S
C1187 C1192 1.490 . S
C1188 H1178 0.930 . S
C1188 C1187 1.400 . S
C1188 C1191 1.386 . S
H1189 C1205 0.930 . S
H1190 C1206 0.931 . S
C1191 H1179 0.929 . S
C1191 C1185 1.390 . S
C1191 C1188 1.386 . S
C1192 C1187 1.490 . S
C1192 C1194 1.395 . S
C1192 C1195 1.403 . S
H1193 C1199 0.930 . S
C1194 H1180 0.930 . S
C1194 C1192 1.395 . S
C1194 C1197 1.403 1_554 S
C1195 C1192 1.403 . S
C1195 C1196 1.524 . S
C1195 C1199 1.400 1_554 S
C1196 H1181 0.960 . S
C1196 H1182 0.960 . S
C1196 H1183 0.960 . S
C1196 C1195 1.524 . S
C1197 C1194 1.403 1_556 S
C1197 C1198 1.392 . S
C1197 C1201 1.495 . S
C1198 C1197 1.392 . S
C1198 C1199 1.385 . S
C1198 C1200 1.478 . S
C1199 H1193 0.930 . S
C1199 C1195 1.400 1_556 S
C1199 C1198 1.385 . S
C1200 C1198 1.478 . S
C1200 C1202 1.381 . S
C1200 C1206 1.383 . S
C1201 C1197 1.495 . S
C1201 H1207 0.959 . S
C1201 H1208 0.961 . S
C1201 H1209 0.960 . S
C1202 C1200 1.381 . S
C1202 C1203 1.394 . S
C1202 H1210 0.930 . S
C1203 C1202 1.394 . S
C1203 C1204 1.383 . S
C1203 H1211 0.929 . S
C1204 C1203 1.383 . S
C1204 C1205 1.377 . S
C1205 H1189 0.930 . S
C1205 C1204 1.377 . S
C1205 C1206 1.379 . S
C1206 H1190 0.931 . S
C1206 C1200 1.383 . S
C1206 C1205 1.379 . S
H1207 C1201 0.959 . S
H1208 C1201 0.961 . S
H1209 C1201 0.960 . S
H1210 C1202 0.930 . S
H1211 C1203 0.929 . S
H1212 C1220 0.929 . S
H1213 C1222 0.930 . S
H1214 C1224 0.930 . S
H1215 C1227 0.929 . S
H1216 C1230 0.930 . S
H1217 C1232 0.960 . S
H1218 C1232 0.960 . S
H1219 C1232 0.960 . S
C1220 H1212 0.929 . S
C1220 C1221 1.377 . S
C1220 C1222 1.384 . S
C1221 C1220 1.377 . S
C1221 C1227 1.390 . S
C1222 H1213 0.930 . S
C1222 C1220 1.384 . S
C1222 C1223 1.372 . S
C1223 C1222 1.372 . S
C1223 C1224 1.400 . S
C1223 C1228 1.490 . S
C1224 H1214 0.930 . S
C1224 C1223 1.400 . S
C1224 C1227 1.386 . S
H1225 C1241 0.930 . S
H1226 C1242 0.931 . S
C1227 H1215 0.929 . S
C1227 C1221 1.390 . S
C1227 C1224 1.386 . S
C1228 C1223 1.490 . S
C1228 C1230 1.395 . S
C1228 C1231 1.403 . S
H1229 C1235 0.930 . S
C1230 H1216 0.930 . S
C1230 C1228 1.395 . S
C1230 C1233 1.403 1_556 S
C1231 C1228 1.403 . S
C1231 C1232 1.524 . S
C1231 C1235 1.400 1_556 S
C1232 H1217 0.960 . S
C1232 H1218 0.960 . S
C1232 H1219 0.960 . S
C1232 C1231 1.524 . S
C1233 C1230 1.403 1_554 S
C1233 C1234 1.392 . S
C1233 C1237 1.495 . S
C1234 C1233 1.392 . S
C1234 C1235 1.385 . S
C1234 C1236 1.478 . S
C1235 H1229 0.930 . S
C1235 C1231 1.400 1_554 S
C1235 C1234 1.385 . S
C1236 C1234 1.478 . S
C1236 C1238 1.381 . S
C1236 C1242 1.383 . S
C1237 C1233 1.495 . S
C1237 H1243 0.959 . S
C1237 H1244 0.961 . S
C1237 H1245 0.960 . S
C1238 C1236 1.381 . S
C1238 C1239 1.394 . S
C1238 H1246 0.930 . S
C1239 C1238 1.394 . S
C1239 C1240 1.383 . S
C1239 H1247 0.929 . S
C1240 C1239 1.383 . S
C1240 C1241 1.377 . S
C1241 H1225 0.930 . S
C1241 C1240 1.377 . S
C1241 C1242 1.379 . S
C1242 H1226 0.931 . S
C1242 C1236 1.383 . S
C1242 C1241 1.379 . S
H1243 C1237 0.959 . S
H1244 C1237 0.961 . S
H1245 C1237 0.960 . S
H1246 C1238 0.930 . S
H1247 C1239 0.929 . S
H1248 C1256 0.929 . S
H1249 C1258 0.930 . S
H1250 C1260 0.930 . S
H1251 C1263 0.929 . S
H1252 C1266 0.930 . S
H1253 C1268 0.960 1_655 S
H1254 C1268 0.960 . S
H1255 C1268 0.960 . S
C1256 H1248 0.929 . S
C1256 C1257 1.377 . S
C1256 C1258 1.384 . S
C1257 C1256 1.377 . S
C1257 C1263 1.390 . S
C1258 H1249 0.930 . S
C1258 C1256 1.384 . S
C1258 C1259 1.372 . S
C1259 C1258 1.372 . S
C1259 C1260 1.400 . S
C1259 C1264 1.490 . S
C1260 H1250 0.930 . S
C1260 C1259 1.400 . S
C1260 C1263 1.386 . S
H1261 C1277 0.930 . S
H1262 C1278 0.931 . S
C1263 H1251 0.929 . S
C1263 C1257 1.390 . S
C1263 C1260 1.386 . S
C1264 C1259 1.490 . S
C1264 C1266 1.395 . S
C1264 C1267 1.403 . S
H1265 C1271 0.930 . S
C1266 H1252 0.930 . S
C1266 C1264 1.395 . S
C1266 C1269 1.403 1_455 S
C1267 C1264 1.403 . S
C1267 C1268 1.524 . S
C1267 C1271 1.400 1_455 S
C1268 H1253 0.960 1_455 S
C1268 H1254 0.960 . S
C1268 H1255 0.960 . S
C1268 C1267 1.524 . S
C1269 C1266 1.403 1_655 S
C1269 C1270 1.392 . S
C1269 C1273 1.495 . S
C1270 C1269 1.392 . S
C1270 C1271 1.385 . S
C1270 C1272 1.478 . S
C1271 H1265 0.930 . S
C1271 C1267 1.400 1_655 S
C1271 C1270 1.385 . S
C1272 C1270 1.478 . S
C1272 C1274 1.381 . S
C1272 C1278 1.383 . S
C1273 C1269 1.495 . S
C1273 H1279 0.959 1_655 S
C1273 H1280 0.961 . S
C1273 H1281 0.960 . S
C1274 C1272 1.381 . S
C1274 C1275 1.394 . S
C1274 H1282 0.930 . S
C1275 C1274 1.394 . S
C1275 C1276 1.383 . S
C1275 H1283 0.929 . S
C1276 C1275 1.383 . S
C1276 C1277 1.377 . S
C1277 H1261 0.930 . S
C1277 C1276 1.377 . S
C1277 C1278 1.379 . S
C1278 H1262 0.931 . S
C1278 C1272 1.383 . S
C1278 C1277 1.379 . S
H1279 C1273 0.959 1_455 S
H1280 C1273 0.961 . S
H1281 C1273 0.960 . S
H1282 C1274 0.930 . S
H1283 C1275 0.929 . S
H1284 C1292 0.929 . S
H1285 C1294 0.930 . S
H1286 C1296 0.930 . S
H1287 C1299 0.929 . S
H1288 C1302 0.930 . S
H1289 C1304 0.940 1_655 S
H1290 C1304 0.960 . S
H1291 C1304 0.960 . S
C1292 H1284 0.929 . S
C1292 C1293 1.377 . S
C1292 C1294 1.384 . S
C1293 C1292 1.377 . S
C1293 C1299 1.390 . S
C1294 H1285 0.930 . S
C1294 C1292 1.384 . S
C1294 C1295 1.372 . S
C1295 C1294 1.372 . S
C1295 C1296 1.400 . S
C1295 C1300 1.490 . S
C1296 H1286 0.930 . S
C1296 C1295 1.400 . S
C1296 C1299 1.386 . S
H1297 C1313 0.930 . S
H1298 C1314 0.931 . S
C1299 H1287 0.929 . S
C1299 C1293 1.390 . S
C1299 C1296 1.386 . S
C1300 C1295 1.490 . S
C1300 C1302 1.395 . S
C1300 C1303 1.403 . S
H1301 C1307 0.930 . S
C1302 H1288 0.930 . S
C1302 C1300 1.395 . S
C1302 C1305 1.403 1_455 S
C1303 C1300 1.403 . S
C1303 C1304 1.524 . S
C1303 C1307 1.400 1_455 S
C1304 H1289 0.940 1_455 S
C1304 H1290 0.960 . S
C1304 H1291 0.960 . S
C1304 C1303 1.524 . S
C1305 C1302 1.403 1_655 S
C1305 C1306 1.392 . S
C1305 C1309 1.495 . S
C1306 C1305 1.392 . S
C1306 C1307 1.385 . S
C1306 C1308 1.478 . S
C1307 H1301 0.930 . S
C1307 C1303 1.400 1_655 S
C1307 C1306 1.385 . S
C1308 C1306 1.478 . S
C1308 C1310 1.381 . S
C1308 C1314 1.383 . S
C1309 C1305 1.495 . S
C1309 H1315 0.930 1_655 S
C1309 H1316 0.961 . S
C1309 H1317 0.960 . S
C1310 C1308 1.381 . S
C1310 C1311 1.394 . S
C1310 H1318 0.930 . S
C1311 C1310 1.394 . S
C1311 C1312 1.383 . S
C1311 H1319 0.929 . S
C1312 C1311 1.383 . S
C1312 C1313 1.377 . S
C1313 H1297 0.930 . S
C1313 C1312 1.377 . S
C1313 C1314 1.379 . S
C1314 H1298 0.931 . S
C1314 C1308 1.383 . S
C1314 C1313 1.379 . S
H1315 C1309 0.930 1_455 S
H1316 C1309 0.961 . S
H1317 C1309 0.960 . S
H1318 C1310 0.930 . S
H1319 C1311 0.929 . S
H1320 C1328 0.929 . S
H1321 C1330 0.930 . S
H1322 C1332 0.930 . S
H1323 C1335 0.929 . S
H1324 C1338 0.930 . S
H1325 C1340 0.960 . S
H1326 C1340 0.960 . S
H1327 C1340 0.960 . S
C1328 H1320 0.929 . S
C1328 C1329 1.377 . S
C1328 C1330 1.384 . S
C1329 C1328 1.377 . S
C1329 C1335 1.390 . S
C1330 H1321 0.930 . S
C1330 C1328 1.384 . S
C1330 C1331 1.372 . S
C1331 C1330 1.372 . S
C1331 C1332 1.400 . S
C1331 C1336 1.490 . S
C1332 H1322 0.930 . S
C1332 C1331 1.400 . S
C1332 C1335 1.386 . S
H1333 C1349 0.930 . S
H1334 C1350 0.931 . S
C1335 H1323 0.929 . S
C1335 C1329 1.390 . S
C1335 C1332 1.386 . S
C1336 C1331 1.490 . S
C1336 C1338 1.395 . S
C1336 C1339 1.403 . S
H1337 C1343 0.930 . S
C1338 H1324 0.930 . S
C1338 C1336 1.395 . S
C1338 C1341 1.403 1_565 S
C1339 C1336 1.403 . S
C1339 C1340 1.524 . S
C1339 C1343 1.400 1_565 S
C1340 H1325 0.960 . S
C1340 H1326 0.960 . S
C1340 H1327 0.960 . S
C1340 C1339 1.524 . S
C1341 C1338 1.403 1_545 S
C1341 C1342 1.392 . S
C1341 C1345 1.495 . S
C1342 C1341 1.392 . S
C1342 C1343 1.385 . S
C1342 C1344 1.478 . S
C1343 H1337 0.930 . S
C1343 C1339 1.400 1_545 S
C1343 C1342 1.385 . S
C1344 C1342 1.478 . S
C1344 C1346 1.381 . S
C1344 C1350 1.383 . S
C1345 C1341 1.495 . S
C1345 H1351 0.959 . S
C1345 H1352 0.961 . S
C1345 H1353 0.960 . S
C1346 C1344 1.381 . S
C1346 C1347 1.394 . S
C1346 H1354 0.930 . S
C1347 C1346 1.394 . S
C1347 C1348 1.383 . S
C1347 H1355 0.929 . S
C1348 C1347 1.383 . S
C1348 C1349 1.377 . S
C1349 H1333 0.930 . S
C1349 C1348 1.377 . S
C1349 C1350 1.379 . S
C1350 H1334 0.931 . S
C1350 C1344 1.383 . S
C1350 C1349 1.379 . S
H1351 C1345 0.959 . S
H1352 C1345 0.961 . S
H1353 C1345 0.960 . S
H1354 C1346 0.930 . S
H1355 C1347 0.929 . S
H1356 C1364 0.929 . S
H1357 C1366 0.930 . S
H1358 C1368 0.930 . S
H1359 C1371 0.929 . S
H1360 C1374 0.930 . S
H1361 C1376 0.960 . S
H1362 C1376 0.960 . S
H1363 C1376 0.960 . S
C1364 H1356 0.929 . S
C1364 C1365 1.377 . S
C1364 C1366 1.384 . S
C1365 C1364 1.377 . S
C1365 C1371 1.390 . S
C1366 H1357 0.930 . S
C1366 C1364 1.384 . S
C1366 C1367 1.372 . S
C1367 C1366 1.372 . S
C1367 C1368 1.400 . S
C1367 C1372 1.490 . S
C1368 H1358 0.930 . S
C1368 C1367 1.400 . S
C1368 C1371 1.386 . S
H1369 C1385 0.930 . S
H1370 C1386 0.931 . S
C1371 H1359 0.929 . S
C1371 C1365 1.390 . S
C1371 C1368 1.386 . S
C1372 C1367 1.490 . S
C1372 C1374 1.395 . S
C1372 C1375 1.403 . S
H1373 C1379 0.930 . S
C1374 H1360 0.930 . S
C1374 C1372 1.395 . S
C1374 C1377 1.403 1_455 S
C1375 C1372 1.403 . S
C1375 C1376 1.524 . S
C1375 C1379 1.400 1_455 S
C1376 H1361 0.960 . S
C1376 H1362 0.960 . S
C1376 H1363 0.960 . S
C1376 C1375 1.524 . S
C1377 C1374 1.403 1_655 S
C1377 C1378 1.392 . S
C1377 C1381 1.495 . S
C1378 C1377 1.392 . S
C1378 C1379 1.385 . S
C1378 C1380 1.478 . S
C1379 H1373 0.930 . S
C1379 C1375 1.400 1_655 S
C1379 C1378 1.385 . S
C1380 C1378 1.478 . S
C1380 C1382 1.381 . S
C1380 C1386 1.383 . S
C1381 C1377 1.495 . S
C1381 H1387 0.959 . S
C1381 H1388 0.961 . S
C1381 H1389 0.960 . S
C1382 C1380 1.381 . S
C1382 C1383 1.394 . S
C1382 H1390 0.930 . S
C1383 C1382 1.394 . S
C1383 C1384 1.383 . S
C1383 H1391 0.929 . S
C1384 C1383 1.383 . S
C1384 C1385 1.377 . S
C1385 H1369 0.930 . S
C1385 C1384 1.377 . S
C1385 C1386 1.379 . S
C1386 H1370 0.931 . S
C1386 C1380 1.383 . S
C1386 C1385 1.379 . S
H1387 C1381 0.959 . S
H1388 C1381 0.961 . S
H1389 C1381 0.960 . S
H1390 C1382 0.930 . S
H1391 C1383 0.929 . S
H1392 C1400 0.929 . S
H1393 C1402 0.930 . S
H1394 C1404 0.930 . S
H1395 C1407 0.929 . S
H1396 C1410 0.930 . S
H1397 C1412 0.960 . S
H1398 C1412 0.960 . S
H1399 C1412 0.960 . S
C1400 H1392 0.929 . S
C1400 C1401 1.377 . S
C1400 C1402 1.384 . S
C1401 C1400 1.377 . S
C1401 C1407 1.390 . S
C1402 H1393 0.930 . S
C1402 C1400 1.384 . S
C1402 C1403 1.372 . S
C1403 C1402 1.372 . S
C1403 C1404 1.400 . S
C1403 C1408 1.490 . S
C1404 H1394 0.930 . S
C1404 C1403 1.400 . S
C1404 C1407 1.386 . S
H1405 C1421 0.930 . S
H1406 C1422 0.931 . S
C1407 H1395 0.929 . S
C1407 C1401 1.390 . S
C1407 C1404 1.386 . S
C1408 C1403 1.490 . S
C1408 C1410 1.395 . S
C1408 C1411 1.403 . S
H1409 C1415 0.930 . S
C1410 H1396 0.930 . S
C1410 C1408 1.395 . S
C1410 C1413 1.403 1_545 S
C1411 C1408 1.403 . S
C1411 C1412 1.524 . S
C1411 C1415 1.400 1_545 S
C1412 H1397 0.960 . S
C1412 H1398 0.960 . S
C1412 H1399 0.960 . S
C1412 C1411 1.524 . S
C1413 C1410 1.403 1_565 S
C1413 C1414 1.392 . S
C1413 C1417 1.495 . S
C1414 C1413 1.392 . S
C1414 C1415 1.385 . S
C1414 C1416 1.478 . S
C1415 H1409 0.930 . S
C1415 C1411 1.400 1_565 S
C1415 C1414 1.385 . S
C1416 C1414 1.478 . S
C1416 C1418 1.381 . S
C1416 C1422 1.383 . S
C1417 C1413 1.495 . S
C1417 H1423 0.959 . S
C1417 H1424 0.961 . S
C1417 H1425 0.960 . S
C1418 C1416 1.381 . S
C1418 C1419 1.394 . S
C1418 H1426 0.930 . S
C1419 C1418 1.394 . S
C1419 C1420 1.383 . S
C1419 H1427 0.929 . S
C1420 C1419 1.383 . S
C1420 C1421 1.377 . S
C1421 H1405 0.930 . S
C1421 C1420 1.377 . S
C1421 C1422 1.379 . S
C1422 H1406 0.931 . S
C1422 C1416 1.383 . S
C1422 C1421 1.379 . S
H1423 C1417 0.959 . S
H1424 C1417 0.961 . S
H1425 C1417 0.960 . S
H1426 C1418 0.930 . S
H1427 C1419 0.929 . S
H1428 C1436 0.929 . S
H1429 C1438 0.930 . S
H1430 C1440 0.930 . S
H1431 C1443 0.929 . S
H1432 C1446 0.930 . S
H1433 C1448 0.960 . S
H1434 C1448 0.960 . S
H1435 C1448 0.960 . S
C1436 H1428 0.929 . S
C1436 C1437 1.377 . S
C1436 C1438 1.384 . S
C1437 C1436 1.377 . S
C1437 C1443 1.390 . S
C1438 H1429 0.930 . S
C1438 C1436 1.384 . S
C1438 C1439 1.372 . S
C1439 C1438 1.372 . S
C1439 C1440 1.400 . S
C1439 C1444 1.490 . S
C1440 H1430 0.930 . S
C1440 C1439 1.400 . S
C1440 C1443 1.386 . S
H1441 C1457 0.930 . S
H1442 C1458 0.931 . S
C1443 H1431 0.929 . S
C1443 C1437 1.390 . S
C1443 C1440 1.386 . S
C1444 C1439 1.490 . S
C1444 C1446 1.395 . S
C1444 C1447 1.403 . S
H1445 C1451 0.930 . S
C1446 H1432 0.930 . S
C1446 C1444 1.395 . S
C1446 C1449 1.403 1_455 S
C1447 C1444 1.403 . S
C1447 C1448 1.524 . S
C1447 C1451 1.400 1_455 S
C1448 H1433 0.960 . S
C1448 H1434 0.960 . S
C1448 H1435 0.960 . S
C1448 C1447 1.524 . S
C1449 C1446 1.403 1_655 S
C1449 C1450 1.392 . S
C1449 C1453 1.495 . S
C1450 C1449 1.392 . S
C1450 C1451 1.385 . S
C1450 C1452 1.478 . S
C1451 H1445 0.930 . S
C1451 C1447 1.400 1_655 S
C1451 C1450 1.385 . S
C1452 C1450 1.478 . S
C1452 C1454 1.381 . S
C1452 C1458 1.383 . S
C1453 C1449 1.495 . S
C1453 H1459 0.959 . S
C1453 H1460 0.961 . S
C1453 H1461 0.960 . S
C1454 C1452 1.381 . S
C1454 C1455 1.394 . S
C1454 H1462 0.930 . S
C1455 C1454 1.394 . S
C1455 C1456 1.383 . S
C1455 H1463 0.929 . S
C1456 C1455 1.383 . S
C1456 C1457 1.377 . S
C1457 H1441 0.930 . S
C1457 C1456 1.377 . S
C1457 C1458 1.379 . S
C1458 H1442 0.931 . S
C1458 C1452 1.383 . S
C1458 C1457 1.379 . S
H1459 C1453 0.959 . S
H1460 C1453 0.961 . S
H1461 C1453 0.960 . S
H1462 C1454 0.930 . S
H1463 C1455 0.929 . S
H1464 C1472 0.929 . S
H1465 C1474 0.930 . S
H1466 C1476 0.930 . S
H1467 C1479 0.929 . S
H1468 C1482 0.930 . S
H1469 C1484 0.960 1_565 S
H1470 C1484 0.960 . S
H1471 C1484 0.960 . S
C1472 H1464 0.929 . S
C1472 C1473 1.377 . S
C1472 C1474 1.384 . S
C1473 C1472 1.377 . S
C1473 C1479 1.390 . S
C1474 H1465 0.930 . S
C1474 C1472 1.384 . S
C1474 C1475 1.372 . S
C1475 C1474 1.372 . S
C1475 C1476 1.400 . S
C1475 C1480 1.490 . S
C1476 H1466 0.930 . S
C1476 C1475 1.400 . S
C1476 C1479 1.386 . S
H1477 C1493 0.930 . S
H1478 C1494 0.931 . S
C1479 H1467 0.929 . S
C1479 C1473 1.390 . S
C1479 C1476 1.386 . S
C1480 C1475 1.490 . S
C1480 C1482 1.395 . S
C1480 C1483 1.403 . S
H1481 C1487 0.930 . S
C1482 H1468 0.930 . S
C1482 C1480 1.395 . S
C1482 C1485 1.403 1_545 S
C1483 C1480 1.403 . S
C1483 C1484 1.524 . S
C1483 C1487 1.400 1_545 S
C1484 H1469 0.960 1_545 S
C1484 H1470 0.960 . S
C1484 H1471 0.960 . S
C1484 C1483 1.524 . S
C1485 C1482 1.403 1_565 S
C1485 C1486 1.392 . S
C1485 C1489 1.495 . S
C1486 C1485 1.392 . S
C1486 C1487 1.385 . S
C1486 C1488 1.478 . S
C1487 H1481 0.930 . S
C1487 C1483 1.400 1_565 S
C1487 C1486 1.385 . S
C1488 C1486 1.478 . S
C1488 C1490 1.381 . S
C1488 C1494 1.383 . S
C1489 C1485 1.495 . S
C1489 H1495 0.959 1_565 S
C1489 H1496 0.961 . S
C1489 H1497 0.960 . S
C1490 C1488 1.381 . S
C1490 C1491 1.394 . S
C1490 H1498 0.930 . S
C1491 C1490 1.394 . S
C1491 C1492 1.383 . S
C1491 H1499 0.929 . S
C1492 C1491 1.383 . S
C1492 C1493 1.377 . S
C1493 H1477 0.930 . S
C1493 C1492 1.377 . S
C1493 C1494 1.379 . S
C1494 H1478 0.931 . S
C1494 C1488 1.383 . S
C1494 C1493 1.379 . S
H1495 C1489 0.959 1_545 S
H1496 C1489 0.961 . S
H1497 C1489 0.960 . S
H1498 C1490 0.930 . S
H1499 C1491 0.929 . S
H1500 C1508 0.929 . S
H1501 C1510 0.930 . S
H1502 C1512 0.930 . S
H1503 C1515 0.929 . S
H1504 C1518 0.930 . S
H1505 C1520 0.960 . S
H1506 C1520 0.960 . S
H1507 C1520 0.960 . S
C1508 H1500 0.929 . S
C1508 C1509 1.377 . S
C1508 C1510 1.384 . S
C1509 C1508 1.377 . S
C1509 C1515 1.390 . S
C1510 H1501 0.930 . S
C1510 C1508 1.384 . S
C1510 C1511 1.372 . S
C1511 C1510 1.372 . S
C1511 C1512 1.400 . S
C1511 C1516 1.490 . S
C1512 H1502 0.930 . S
C1512 C1511 1.400 . S
C1512 C1515 1.386 . S
H1513 C1529 0.930 . S
H1514 C1530 0.931 . S
C1515 H1503 0.929 . S
C1515 C1509 1.390 . S
C1515 C1512 1.386 . S
C1516 C1511 1.490 . S
C1516 C1518 1.395 . S
C1516 C1519 1.403 . S
H1517 C1523 0.930 . S
C1518 H1504 0.930 . S
C1518 C1516 1.395 . S
C1518 C1521 1.403 1_545 S
C1519 C1516 1.403 . S
C1519 C1520 1.524 . S
C1519 C1523 1.400 1_545 S
C1520 H1505 0.960 . S
C1520 H1506 0.960 . S
C1520 H1507 0.960 . S
C1520 C1519 1.524 . S
C1521 C1518 1.403 1_565 S
C1521 C1522 1.392 . S
C1521 C1525 1.495 . S
C1522 C1521 1.392 . S
C1522 C1523 1.385 . S
C1522 C1524 1.478 . S
C1523 H1517 0.930 . S
C1523 C1519 1.400 1_565 S
C1523 C1522 1.385 . S
C1524 C1522 1.478 . S
C1524 C1526 1.381 . S
C1524 C1530 1.383 . S
C1525 C1521 1.495 . S
C1525 H1531 0.959 . S
C1525 H1532 0.961 . S
C1525 H1533 0.960 . S
C1526 C1524 1.381 . S
C1526 C1527 1.394 . S
C1526 H1534 0.930 . S
C1527 C1526 1.394 . S
C1527 C1528 1.383 . S
C1527 H1535 0.929 . S
C1528 C1527 1.383 . S
C1528 C1529 1.377 . S
C1529 H1513 0.930 . S
C1529 C1528 1.377 . S
C1529 C1530 1.379 . S
C1530 H1514 0.931 . S
C1530 C1524 1.383 . S
C1530 C1529 1.379 . S
H1531 C1525 0.959 . S
H1532 C1525 0.961 . S
H1533 C1525 0.960 . S
H1534 C1526 0.930 . S
H1535 C1527 0.929 . S
H1536 C1544 0.929 . S
H1537 C1546 0.930 . S
H1538 C1548 0.930 . S
H1539 C1551 0.929 . S
H1540 C1554 0.930 . S
H1541 C1556 0.960 . S
H1542 C1556 0.960 . S
H1543 C1556 0.960 . S
C1544 H1536 0.929 . S
C1544 C1545 1.377 . S
C1544 C1546 1.384 . S
C1545 C1544 1.377 . S
C1545 C1551 1.390 . S
C1546 H1537 0.930 . S
C1546 C1544 1.384 . S
C1546 C1547 1.372 . S
C1547 C1546 1.372 . S
C1547 C1548 1.400 . S
C1547 C1552 1.490 . S
C1548 H1538 0.930 . S
C1548 C1547 1.400 . S
C1548 C1551 1.386 . S
H1549 C1565 0.930 . S
H1550 C1566 0.931 . S
C1551 H1539 0.929 . S
C1551 C1545 1.390 . S
C1551 C1548 1.386 . S
C1552 C1547 1.490 . S
C1552 C1554 1.395 . S
C1552 C1555 1.403 . S
H1553 C1559 0.930 . S
C1554 H1540 0.930 . S
C1554 C1552 1.395 . S
C1554 C1557 1.403 . S
C1555 C1552 1.403 . S
C1555 C1556 1.524 . S
C1555 C1559 1.400 . S
C1556 H1541 0.960 . S
C1556 H1542 0.960 . S
C1556 H1543 0.960 . S
C1556 C1555 1.524 . S
C1557 C1554 1.403 . S
C1557 C1558 1.392 . S
C1557 C1561 1.495 . S
C1558 C1557 1.392 . S
C1558 C1559 1.385 . S
C1558 C1560 1.478 . S
C1559 H1553 0.930 . S
C1559 C1555 1.400 . S
C1559 C1558 1.385 . S
C1560 C1558 1.478 . S
C1560 C1562 1.381 . S
C1560 C1566 1.383 . S
C1561 C1557 1.495 . S
C1561 H1567 0.959 . S
C1561 H1568 0.961 . S
C1561 H1569 0.960 . S
C1562 C1560 1.381 . S
C1562 C1563 1.394 . S
C1562 H1570 0.930 . S
C1563 C1562 1.394 . S
C1563 C1564 1.383 . S
C1563 H1571 0.929 . S
C1564 C1563 1.383 . S
C1564 C1565 1.377 . S
C1565 H1549 0.930 . S
C1565 C1564 1.377 . S
C1565 C1566 1.379 . S
C1566 H1550 0.931 . S
C1566 C1560 1.383 . S
C1566 C1565 1.379 . S
H1567 C1561 0.959 . S
H1568 C1561 0.961 . S
H1569 C1561 0.960 . S
H1570 C1562 0.930 . S
H1571 C1563 0.929 . S
H1572 C1580 0.929 . S
H1573 C1582 0.930 . S
H1574 C1584 0.930 . S
H1575 C1587 0.929 . S
H1576 C1590 0.930 . S
H1577 C1592 0.960 . S
H1578 C1592 0.960 . S
H1579 C1592 0.960 . S
C1580 H1572 0.929 . S
C1580 C1581 1.377 . S
C1580 C1582 1.384 . S
C1581 C1580 1.377 . S
C1581 C1587 1.390 . S
C1582 H1573 0.930 . S
C1582 C1580 1.384 . S
C1582 C1583 1.372 . S
C1583 C1582 1.372 . S
C1583 C1584 1.400 . S
C1583 C1588 1.490 . S
C1584 H1574 0.930 . S
C1584 C1583 1.400 . S
C1584 C1587 1.386 . S
H1585 C1601 0.930 . S
H1586 C1602 0.931 . S
C1587 H1575 0.929 . S
C1587 C1581 1.390 . S
C1587 C1584 1.386 . S
C1588 C1583 1.490 . S
C1588 C1590 1.395 . S
C1588 C1591 1.403 . S
H1589 C1595 0.930 . S
C1590 H1576 0.930 . S
C1590 C1588 1.395 . S
C1590 C1593 1.403 . S
C1591 C1588 1.403 . S
C1591 C1592 1.524 . S
C1591 C1595 1.400 . S
C1592 H1577 0.960 . S
C1592 H1578 0.960 . S
C1592 H1579 0.960 . S
C1592 C1591 1.524 . S
C1593 C1590 1.403 . S
C1593 C1594 1.392 . S
C1593 C1597 1.495 . S
C1594 C1593 1.392 . S
C1594 C1595 1.385 . S
C1594 C1596 1.478 . S
C1595 H1589 0.930 . S
C1595 C1591 1.400 . S
C1595 C1594 1.385 . S
C1596 C1594 1.478 . S
C1596 C1598 1.381 . S
C1596 C1602 1.383 . S
C1597 C1593 1.495 . S
C1597 H1603 0.959 . S
C1597 H1604 0.961 . S
C1597 H1605 0.960 . S
C1598 C1596 1.381 . S
C1598 C1599 1.394 . S
C1598 H1606 0.930 . S
C1599 C1598 1.394 . S
C1599 C1600 1.383 . S
C1599 H1607 0.929 . S
C1600 C1599 1.383 . S
C1600 C1601 1.377 . S
C1601 H1585 0.930 . S
C1601 C1600 1.377 . S
C1601 C1602 1.379 . S
C1602 H1586 0.931 . S
C1602 C1596 1.383 . S
C1602 C1601 1.379 . S
H1603 C1597 0.959 . S
H1604 C1597 0.961 . S
H1605 C1597 0.960 . S
H1606 C1598 0.930 . S
H1607 C1599 0.929 . S
H1608 C1616 0.929 . S
H1609 C1618 0.930 . S
H1610 C1620 0.930 . S
H1611 C1623 0.929 . S
H1612 C1626 0.930 . S
H1613 C1628 0.960 . S
H1614 C1628 0.960 . S
H1615 C1628 0.960 . S
C1616 H1608 0.929 . S
C1616 C1617 1.377 . S
C1616 C1618 1.384 . S
C1617 C1616 1.377 . S
C1617 C1623 1.390 . S
C1618 H1609 0.930 . S
C1618 C1616 1.384 . S
C1618 C1619 1.372 . S
C1619 C1618 1.372 . S
C1619 C1620 1.400 . S
C1619 C1624 1.490 . S
C1620 H1610 0.930 . S
C1620 C1619 1.400 . S
C1620 C1623 1.386 . S
H1621 C1637 0.930 . S
H1622 C1638 0.931 . S
C1623 H1611 0.929 . S
C1623 C1617 1.390 . S
C1623 C1620 1.386 . S
C1624 C1619 1.490 . S
C1624 C1626 1.395 . S
C1624 C1627 1.403 . S
H1625 C1631 0.930 . S
C1626 H1612 0.930 . S
C1626 C1624 1.395 . S
C1626 C1629 1.403 . S
C1627 C1624 1.403 . S
C1627 C1628 1.524 . S
C1627 C1631 1.400 . S
C1628 H1613 0.960 . S
C1628 H1614 0.960 . S
C1628 H1615 0.960 . S
C1628 C1627 1.524 . S
C1629 C1626 1.403 . S
C1629 C1630 1.392 . S
C1629 C1633 1.495 . S
C1630 C1629 1.392 . S
C1630 C1631 1.385 . S
C1630 C1632 1.478 . S
C1631 H1625 0.930 . S
C1631 C1627 1.400 . S
C1631 C1630 1.385 . S
C1632 C1630 1.478 . S
C1632 C1634 1.381 . S
C1632 C1638 1.383 . S
C1633 C1629 1.495 . S
C1633 H1639 0.959 . S
C1633 H1640 0.961 . S
C1633 H1641 0.960 . S
C1634 C1632 1.381 . S
C1634 C1635 1.394 . S
C1634 H1642 0.930 . S
C1635 C1634 1.394 . S
C1635 C1636 1.383 . S
C1635 H1643 0.929 . S
C1636 C1635 1.383 . S
C1636 C1637 1.377 . S
C1637 H1621 0.930 . S
C1637 C1636 1.377 . S
C1637 C1638 1.379 . S
C1638 H1622 0.931 . S
C1638 C1632 1.383 . S
C1638 C1637 1.379 . S
H1639 C1633 0.959 . S
H1640 C1633 0.961 . S
H1641 C1633 0.960 . S
H1642 C1634 0.930 . S
H1643 C1635 0.929 . S
H1644 C1652 0.929 . S
H1645 C1654 0.930 . S
H1646 C1656 0.930 . S
H1647 C1659 0.929 . S
H1648 C1662 0.930 . S
H1649 C1664 0.960 . S
H1650 C1664 0.960 . S
H1651 C1664 0.960 . S
C1652 H1644 0.929 . S
C1652 C1653 1.377 . S
C1652 C1654 1.384 . S
C1653 C1652 1.377 . S
C1653 C1659 1.390 . S
C1654 H1645 0.930 . S
C1654 C1652 1.384 . S
C1654 C1655 1.372 . S
C1655 C1654 1.372 . S
C1655 C1656 1.400 . S
C1655 C1660 1.490 . S
C1656 H1646 0.930 . S
C1656 C1655 1.400 . S
C1656 C1659 1.386 . S
H1657 C1673 0.930 . S
H1658 C1674 0.931 . S
C1659 H1647 0.929 . S
C1659 C1653 1.390 . S
C1659 C1656 1.386 . S
C1660 C1655 1.490 . S
C1660 C1662 1.395 . S
C1660 C1663 1.403 . S
H1661 C1667 0.930 . S
C1662 H1648 0.930 . S
C1662 C1660 1.395 . S
C1662 C1665 1.403 . S
C1663 C1660 1.403 . S
C1663 C1664 1.524 . S
C1663 C1667 1.400 . S
C1664 H1649 0.960 . S
C1664 H1650 0.960 . S
C1664 H1651 0.960 . S
C1664 C1663 1.524 . S
C1665 C1662 1.403 . S
C1665 C1666 1.392 . S
C1665 C1669 1.495 . S
C1666 C1665 1.392 . S
C1666 C1667 1.385 . S
C1666 C1668 1.478 . S
C1667 H1661 0.930 . S
C1667 C1663 1.400 . S
C1667 C1666 1.385 . S
C1668 C1666 1.478 . S
C1668 C1670 1.381 . S
C1668 C1674 1.383 . S
C1669 C1665 1.495 . S
C1669 H1675 0.959 . S
C1669 H1676 0.961 . S
C1669 H1677 0.960 . S
C1670 C1668 1.381 . S
C1670 C1671 1.394 . S
C1670 H1678 0.930 . S
C1671 C1670 1.394 . S
C1671 C1672 1.383 . S
C1671 H1679 0.929 . S
C1672 C1671 1.383 . S
C1672 C1673 1.377 . S
C1673 H1657 0.930 . S
C1673 C1672 1.377 . S
C1673 C1674 1.379 . S
C1674 H1658 0.931 . S
C1674 C1668 1.383 . S
C1674 C1673 1.379 . S
H1675 C1669 0.959 . S
H1676 C1669 0.961 . S
H1677 C1669 0.960 . S
H1678 C1670 0.930 . S
H1679 C1671 0.929 . S
H1680 C1688 0.929 . S
H1681 C1690 0.930 . S
H1682 C1692 0.930 . S
H1683 C1695 0.929 . S
H1684 C1698 0.930 . S
H1685 C1700 0.960 . S
H1686 C1700 0.960 . S
H1687 C1700 0.960 . S
C1688 H1680 0.929 . S
C1688 C1689 1.377 . S
C1688 C1690 1.384 . S
C1689 C1688 1.377 . S
C1689 C1695 1.390 . S
C1690 H1681 0.930 . S
C1690 C1688 1.384 . S
C1690 C1691 1.372 . S
C1691 C1690 1.372 . S
C1691 C1692 1.400 . S
C1691 C1696 1.490 . S
C1692 H1682 0.930 . S
C1692 C1691 1.400 . S
C1692 C1695 1.386 . S
H1693 C1709 0.930 . S
H1694 C1710 0.931 . S
C1695 H1683 0.929 . S
C1695 C1689 1.390 . S
C1695 C1692 1.386 . S
C1696 C1691 1.490 . S
C1696 C1698 1.395 . S
C1696 C1699 1.403 . S
H1697 C1703 0.930 . S
C1698 H1684 0.930 . S
C1698 C1696 1.395 . S
C1698 C1701 1.403 . S
C1699 C1696 1.403 . S
C1699 C1700 1.524 . S
C1699 C1703 1.400 . S
C1700 H1685 0.960 . S
C1700 H1686 0.960 . S
C1700 H1687 0.960 . S
C1700 C1699 1.524 . S
C1701 C1698 1.403 . S
C1701 C1702 1.392 . S
C1701 C1705 1.495 . S
C1702 C1701 1.392 . S
C1702 C1703 1.385 . S
C1702 C1704 1.478 . S
C1703 H1697 0.930 . S
C1703 C1699 1.400 . S
C1703 C1702 1.385 . S
C1704 C1702 1.478 . S
C1704 C1706 1.381 . S
C1704 C1710 1.383 . S
C1705 C1701 1.495 . S
C1705 H1711 0.959 . S
C1705 H1712 0.961 . S
C1705 H1713 0.960 . S
C1706 C1704 1.381 . S
C1706 C1707 1.394 . S
C1706 H1714 0.930 . S
C1707 C1706 1.394 . S
C1707 C1708 1.383 . S
C1707 H1715 0.929 . S
C1708 C1707 1.383 . S
C1708 C1709 1.377 . S
C1709 H1693 0.930 . S
C1709 C1708 1.377 . S
C1709 C1710 1.379 . S
C1710 H1694 0.931 . S
C1710 C1704 1.383 . S
C1710 C1709 1.379 . S
H1711 C1705 0.959 . S
H1712 C1705 0.961 . S
H1713 C1705 0.960 . S
H1714 C1706 0.930 . S
H1715 C1707 0.929 . S
H1716 C1724 0.929 . S
H1717 C1726 0.930 . S
H1718 C1728 0.930 . S
H1719 C1731 0.929 . S
H1720 C1734 0.930 . S
H1721 C1736 0.960 . S
H1722 C1736 0.960 . S
H1723 C1736 0.960 . S
C1724 H1716 0.929 . S
C1724 C1725 1.377 . S
C1724 C1726 1.384 . S
C1725 C1724 1.377 . S
C1725 C1731 1.390 . S
C1726 H1717 0.930 . S
C1726 C1724 1.384 . S
C1726 C1727 1.372 . S
C1727 C1726 1.372 . S
C1727 C1728 1.400 . S
C1727 C1732 1.490 . S
C1728 H1718 0.930 . S
C1728 C1727 1.400 . S
C1728 C1731 1.386 . S
H1729 C1745 0.930 . S
H1730 C1746 0.931 . S
C1731 H1719 0.929 . S
C1731 C1725 1.390 . S
C1731 C1728 1.386 . S
C1732 C1727 1.490 . S
C1732 C1734 1.395 . S
C1732 C1735 1.403 . S
H1733 C1739 0.930 . S
C1734 H1720 0.930 . S
C1734 C1732 1.395 . S
C1734 C1737 1.403 . S
C1735 C1732 1.403 . S
C1735 C1736 1.524 . S
C1735 C1739 1.400 . S
C1736 H1721 0.960 . S
C1736 H1722 0.960 . S
C1736 H1723 0.960 . S
C1736 C1735 1.524 . S
C1737 C1734 1.403 . S
C1737 C1738 1.392 . S
C1737 C1741 1.495 . S
C1738 C1737 1.392 . S
C1738 C1739 1.385 . S
C1738 C1740 1.478 . S
C1739 H1733 0.930 . S
C1739 C1735 1.400 . S
C1739 C1738 1.385 . S
C1740 C1738 1.478 . S
C1740 C1742 1.381 . S
C1740 C1746 1.383 . S
C1741 C1737 1.495 . S
C1741 H1747 0.959 . S
C1741 H1748 0.961 . S
C1741 H1749 0.960 . S
C1742 C1740 1.381 . S
C1742 C1743 1.394 . S
C1742 H1750 0.930 . S
C1743 C1742 1.394 . S
C1743 C1744 1.383 . S
C1743 H1751 0.929 . S
C1744 C1743 1.383 . S
C1744 C1745 1.377 . S
C1745 H1729 0.930 . S
C1745 C1744 1.377 . S
C1745 C1746 1.379 . S
C1746 H1730 0.931 . S
C1746 C1740 1.383 . S
C1746 C1745 1.379 . S
H1747 C1741 0.959 . S
H1748 C1741 0.961 . S
H1749 C1741 0.960 . S
H1750 C1742 0.930 . S
H1751 C1743 0.929 . S
H1752 C1760 0.929 . S
H1753 C1762 0.930 . S
H1754 C1764 0.930 . S
H1755 C1767 0.929 . S
H1756 C1770 0.930 . S
H1757 C1772 0.960 . S
H1758 C1772 0.960 . S
H1759 C1772 0.960 . S
C1760 H1752 0.929 . S
C1760 C1761 1.377 . S
C1760 C1762 1.384 . S
C1761 C1760 1.377 . S
C1761 C1767 1.390 . S
C1762 H1753 0.930 . S
C1762 C1760 1.384 . S
C1762 C1763 1.372 . S
C1763 C1762 1.372 . S
C1763 C1764 1.400 . S
C1763 C1768 1.490 . S
C1764 H1754 0.930 . S
C1764 C1763 1.400 . S
C1764 C1767 1.386 . S
H1765 C1781 0.930 . S
H1766 C1782 0.931 . S
C1767 H1755 0.929 . S
C1767 C1761 1.390 . S
C1767 C1764 1.386 . S
C1768 C1763 1.490 . S
C1768 C1770 1.395 . S
C1768 C1771 1.403 . S
H1769 C1775 0.930 . S
C1770 H1756 0.930 . S
C1770 C1768 1.395 . S
C1770 C1773 1.403 . S
C1771 C1768 1.403 . S
C1771 C1772 1.524 . S
C1771 C1775 1.400 . S
C1772 H1757 0.960 . S
C1772 H1758 0.960 . S
C1772 H1759 0.960 . S
C1772 C1771 1.524 . S
C1773 C1770 1.403 . S
C1773 C1774 1.392 . S
C1773 C1777 1.495 . S
C1774 C1773 1.392 . S
C1774 C1775 1.385 . S
C1774 C1776 1.478 . S
C1775 H1769 0.930 . S
C1775 C1771 1.400 . S
C1775 C1774 1.385 . S
C1776 C1774 1.478 . S
C1776 C1778 1.381 . S
C1776 C1782 1.383 . S
C1777 C1773 1.495 . S
C1777 H1783 0.959 . S
C1777 H1784 0.961 . S
C1777 H1785 0.960 . S
C1778 C1776 1.381 . S
C1778 C1779 1.394 . S
C1778 H1786 0.930 . S
C1779 C1778 1.394 . S
C1779 C1780 1.383 . S
C1779 H1787 0.929 . S
C1780 C1779 1.383 . S
C1780 C1781 1.377 . S
C1781 H1765 0.930 . S
C1781 C1780 1.377 . S
C1781 C1782 1.379 . S
C1782 H1766 0.931 . S
C1782 C1776 1.383 . S
C1782 C1781 1.379 . S
H1783 C1777 0.959 . S
H1784 C1777 0.961 . S
H1785 C1777 0.960 . S
H1786 C1778 0.930 . S
H1787 C1779 0.929 . S
H1788 C1796 0.929 . S
H1789 C1798 0.930 . S
H1790 C1800 0.930 . S
H1791 C1803 0.929 . S
H1792 C1806 0.930 . S
H1793 C1808 0.960 . S
H1794 C1808 0.960 . S
H1795 C1808 0.960 . S
C1796 H1788 0.929 . S
C1796 C1797 1.377 . S
C1796 C1798 1.384 . S
C1797 C1796 1.377 . S
C1797 C1803 1.390 . S
C1798 H1789 0.930 . S
C1798 C1796 1.384 . S
C1798 C1799 1.372 . S
C1799 C1798 1.372 . S
C1799 C1800 1.400 . S
C1799 C1804 1.490 . S
C1800 H1790 0.930 . S
C1800 C1799 1.400 . S
C1800 C1803 1.386 . S
H1801 C1817 0.930 . S
H1802 C1818 0.931 . S
C1803 H1791 0.929 . S
C1803 C1797 1.390 . S
C1803 C1800 1.386 . S
C1804 C1799 1.490 . S
C1804 C1806 1.395 . S
C1804 C1807 1.403 . S
H1805 C1811 0.930 . S
C1806 H1792 0.930 . S
C1806 C1804 1.395 . S
C1806 C1809 1.403 . S
C1807 C1804 1.403 . S
C1807 C1808 1.524 . S
C1807 C1811 1.400 . S
C1808 H1793 0.960 . S
C1808 H1794 0.960 . S
C1808 H1795 0.960 . S
C1808 C1807 1.524 . S
C1809 C1806 1.403 . S
C1809 C1810 1.392 . S
C1809 C1813 1.495 . S
C1810 C1809 1.392 . S
C1810 C1811 1.385 . S
C1810 C1812 1.478 . S
C1811 H1805 0.930 . S
C1811 C1807 1.400 . S
C1811 C1810 1.385 . S
C1812 C1810 1.478 . S
C1812 C1814 1.381 . S
C1812 C1818 1.383 . S
C1813 C1809 1.495 . S
C1813 H1819 0.959 . S
C1813 H1820 0.961 . S
C1813 H1821 0.960 . S
C1814 C1812 1.381 . S
C1814 C1815 1.394 . S
C1814 H1822 0.930 . S
C1815 C1814 1.394 . S
C1815 C1816 1.383 . S
C1815 H1823 0.929 . S
C1816 C1815 1.383 . S
C1816 C1817 1.377 . S
C1817 H1801 0.930 . S
C1817 C1816 1.377 . S
C1817 C1818 1.379 . S
C1818 H1802 0.931 . S
C1818 C1812 1.383 . S
C1818 C1817 1.379 . S
H1819 C1813 0.959 . S
H1820 C1813 0.961 . S
H1821 C1813 0.960 . S
H1822 C1814 0.930 . S
H1823 C1815 0.929 . S
H1824 C1832 0.929 . S
H1825 C1834 0.930 . S
H1826 C1836 0.930 . S
H1827 C1839 0.929 . S
H1828 C1842 0.930 . S
H1829 C1844 0.960 . S
H1830 C1844 0.960 . S
H1831 C1844 0.960 . S
C1832 H1824 0.929 . S
C1832 C1833 1.377 . S
C1832 C1834 1.384 . S
C1833 C1832 1.377 . S
C1833 C1839 1.390 . S
C1834 H1825 0.930 . S
C1834 C1832 1.384 . S
C1834 C1835 1.372 . S
C1835 C1834 1.372 . S
C1835 C1836 1.400 . S
C1835 C1840 1.490 . S
C1836 H1826 0.930 . S
C1836 C1835 1.400 . S
C1836 C1839 1.386 . S
H1837 C1853 0.930 . S
H1838 C1854 0.931 . S
C1839 H1827 0.929 . S
C1839 C1833 1.390 . S
C1839 C1836 1.386 . S
C1840 C1835 1.490 . S
C1840 C1842 1.395 . S
C1840 C1843 1.403 . S
H1841 C1847 0.930 . S
C1842 H1828 0.930 . S
C1842 C1840 1.395 . S
C1842 C1845 1.403 . S
C1843 C1840 1.403 . S
C1843 C1844 1.524 . S
C1843 C1847 1.400 . S
C1844 H1829 0.960 . S
C1844 H1830 0.960 . S
C1844 H1831 0.960 . S
C1844 C1843 1.524 . S
C1845 C1842 1.403 . S
C1845 C1846 1.392 . S
C1845 C1849 1.495 . S
C1846 C1845 1.392 . S
C1846 C1847 1.385 . S
C1846 C1848 1.478 . S
C1847 H1841 0.930 . S
C1847 C1843 1.400 . S
C1847 C1846 1.385 . S
C1848 C1846 1.478 . S
C1848 C1850 1.381 . S
C1848 C1854 1.383 . S
C1849 C1845 1.495 . S
C1849 H1855 0.959 . S
C1849 H1856 0.961 . S
C1849 H1857 0.960 . S
C1850 C1848 1.381 . S
C1850 C1851 1.394 . S
C1850 H1858 0.930 . S
C1851 C1850 1.394 . S
C1851 C1852 1.383 . S
C1851 H1859 0.929 . S
C1852 C1851 1.383 . S
C1852 C1853 1.377 . S
C1853 H1837 0.930 . S
C1853 C1852 1.377 . S
C1853 C1854 1.379 . S
C1854 H1838 0.931 . S
C1854 C1848 1.383 . S
C1854 C1853 1.379 . S
H1855 C1849 0.959 . S
H1856 C1849 0.961 . S
H1857 C1849 0.960 . S
H1858 C1850 0.930 . S
H1859 C1851 0.929 . S
H1860 C1868 0.929 . S
H1861 C1870 0.930 . S
H1862 C1872 0.930 . S
H1863 C1875 0.929 . S
H1864 C1878 0.930 . S
H1865 C1880 0.960 . S
H1866 C1880 0.960 . S
H1867 C1880 0.960 . S
C1868 H1860 0.929 . S
C1868 C1869 1.377 . S
C1868 C1870 1.384 . S
C1869 C1868 1.377 . S
C1869 C1875 1.390 . S
C1870 H1861 0.930 . S
C1870 C1868 1.384 . S
C1870 C1871 1.372 . S
C1871 C1870 1.372 . S
C1871 C1872 1.400 . S
C1871 C1876 1.490 . S
C1872 H1862 0.930 . S
C1872 C1871 1.400 . S
C1872 C1875 1.386 . S
H1873 C1889 0.930 . S
H1874 C1890 0.931 . S
C1875 H1863 0.929 . S
C1875 C1869 1.390 . S
C1875 C1872 1.386 . S
C1876 C1871 1.490 . S
C1876 C1878 1.395 . S
C1876 C1879 1.403 . S
H1877 C1883 0.930 . S
C1878 H1864 0.930 . S
C1878 C1876 1.395 . S
C1878 C1881 1.403 . S
C1879 C1876 1.403 . S
C1879 C1880 1.524 . S
C1879 C1883 1.400 . S
C1880 H1865 0.960 . S
C1880 H1866 0.960 . S
C1880 H1867 0.960 . S
C1880 C1879 1.524 . S
C1881 C1878 1.403 . S
C1881 C1882 1.392 . S
C1881 C1885 1.495 . S
C1882 C1881 1.392 . S
C1882 C1883 1.385 . S
C1882 C1884 1.478 . S
C1883 H1877 0.930 . S
C1883 C1879 1.400 . S
C1883 C1882 1.385 . S
C1884 C1882 1.478 . S
C1884 C1886 1.381 . S
C1884 C1890 1.383 . S
C1885 C1881 1.495 . S
C1885 H1891 0.959 . S
C1885 H1892 0.961 . S
C1885 H1893 0.960 . S
C1886 C1884 1.381 . S
C1886 C1887 1.394 . S
C1886 H1894 0.930 . S
C1887 C1886 1.394 . S
C1887 C1888 1.383 . S
C1887 H1895 0.929 . S
C1888 C1887 1.383 . S
C1888 C1889 1.377 . S
C1889 H1873 0.930 . S
C1889 C1888 1.377 . S
C1889 C1890 1.379 . S
C1890 H1874 0.931 . S
C1890 C1884 1.383 . S
C1890 C1889 1.379 . S
H1891 C1885 0.959 . S
H1892 C1885 0.961 . S
H1893 C1885 0.960 . S
H1894 C1886 0.930 . S
H1895 C1887 0.929 . S
H1896 C1904 0.929 . S
H1897 C1906 0.930 . S
H1898 C1908 0.930 . S
H1899 C1911 0.929 . S
H1900 C1914 0.930 . S
H1901 C1916 0.960 . S
H1902 C1916 0.960 . S
H1903 C1916 0.960 . S
C1904 H1896 0.929 . S
C1904 C1905 1.377 . S
C1904 C1906 1.384 . S
C1905 C1904 1.377 . S
C1905 C1911 1.390 . S
C1906 H1897 0.930 . S
C1906 C1904 1.384 . S
C1906 C1907 1.372 . S
C1907 C1906 1.372 . S
C1907 C1908 1.400 . S
C1907 C1912 1.490 . S
C1908 H1898 0.930 . S
C1908 C1907 1.400 . S
C1908 C1911 1.386 . S
H1909 C1925 0.930 . S
H1910 C1926 0.931 . S
C1911 H1899 0.929 . S
C1911 C1905 1.390 . S
C1911 C1908 1.386 . S
C1912 C1907 1.490 . S
C1912 C1914 1.395 . S
C1912 C1915 1.403 . S
H1913 C1919 0.930 . S
C1914 H1900 0.930 . S
C1914 C1912 1.395 . S
C1914 C1917 1.403 . S
C1915 C1912 1.403 . S
C1915 C1916 1.524 . S
C1915 C1919 1.400 . S
C1916 H1901 0.960 . S
C1916 H1902 0.960 . S
C1916 H1903 0.960 . S
C1916 C1915 1.524 . S
C1917 C1914 1.403 . S
C1917 C1918 1.392 . S
C1917 C1921 1.495 . S
C1918 C1917 1.392 . S
C1918 C1919 1.385 . S
C1918 C1920 1.478 . S
C1919 H1913 0.930 . S
C1919 C1915 1.400 . S
C1919 C1918 1.385 . S
C1920 C1918 1.478 . S
C1920 C1922 1.381 . S
C1920 C1926 1.383 . S
C1921 C1917 1.495 . S
C1921 H1927 0.959 . S
C1921 H1928 0.961 . S
C1921 H1929 0.960 . S
C1922 C1920 1.381 . S
C1922 C1923 1.394 . S
C1922 H1930 0.930 . S
C1923 C1922 1.394 . S
C1923 C1924 1.383 . S
C1923 H1931 0.929 . S
C1924 C1923 1.383 . S
C1924 C1925 1.377 . S
C1925 H1909 0.930 . S
C1925 C1924 1.377 . S
C1925 C1926 1.379 . S
C1926 H1910 0.931 . S
C1926 C1920 1.383 . S
C1926 C1925 1.379 . S
H1927 C1921 0.959 . S
H1928 C1921 0.961 . S
H1929 C1921 0.960 . S
H1930 C1922 0.930 . S
H1931 C1923 0.929 . S
H1932 C1940 0.929 . S
H1933 C1942 0.930 . S
H1934 C1944 0.930 . S
H1935 C1947 0.929 . S
H1936 C1950 0.930 . S
H1937 C1952 0.960 . S
H1938 C1952 0.960 . S
H1939 C1952 0.960 . S
C1940 H1932 0.929 . S
C1940 C1941 1.377 . S
C1940 C1942 1.384 . S
C1941 C1940 1.377 . S
C1941 C1947 1.390 . S
C1942 H1933 0.930 . S
C1942 C1940 1.384 . S
C1942 C1943 1.372 . S
C1943 C1942 1.372 . S
C1943 C1944 1.400 . S
C1943 C1948 1.490 . S
C1944 H1934 0.930 . S
C1944 C1943 1.400 . S
C1944 C1947 1.386 . S
H1945 C1961 0.930 . S
H1946 C1962 0.931 . S
C1947 H1935 0.929 . S
C1947 C1941 1.390 . S
C1947 C1944 1.386 . S
C1948 C1943 1.490 . S
C1948 C1950 1.395 . S
C1948 C1951 1.403 . S
H1949 C1955 0.930 . S
C1950 H1936 0.930 . S
C1950 C1948 1.395 . S
C1950 C1953 1.403 . S
C1951 C1948 1.403 . S
C1951 C1952 1.524 . S
C1951 C1955 1.400 . S
C1952 H1937 0.960 . S
C1952 H1938 0.960 . S
C1952 H1939 0.960 . S
C1952 C1951 1.524 . S
C1953 C1950 1.403 . S
C1953 C1954 1.392 . S
C1953 C1957 1.495 . S
C1954 C1953 1.392 . S
C1954 C1955 1.385 . S
C1954 C1956 1.478 . S
C1955 H1949 0.930 . S
C1955 C1951 1.400 . S
C1955 C1954 1.385 . S
C1956 C1954 1.478 . S
C1956 C1958 1.381 . S
C1956 C1962 1.383 . S
C1957 C1953 1.495 . S
C1957 H1963 0.959 . S
C1957 H1964 0.961 . S
C1957 H1965 0.960 . S
C1958 C1956 1.381 . S
C1958 C1959 1.394 . S
C1958 H1966 0.930 . S
C1959 C1958 1.394 . S
C1959 C1960 1.383 . S
C1959 H1967 0.929 . S
C1960 C1959 1.383 . S
C1960 C1961 1.377 . S
C1961 H1945 0.930 . S
C1961 C1960 1.377 . S
C1961 C1962 1.379 . S
C1962 H1946 0.931 . S
C1962 C1956 1.383 . S
C1962 C1961 1.379 . S
H1963 C1957 0.959 . S
H1964 C1957 0.961 . S
H1965 C1957 0.960 . S
H1966 C1958 0.930 . S
H1967 C1959 0.929 . S
H1968 C1976 0.929 . S
H1969 C1978 0.930 . S
H1970 C1980 0.930 . S
H1971 C1983 0.929 . S
H1972 C1986 0.930 . S
H1973 C1988 0.960 . S
H1974 C1988 0.960 . S
H1975 C1988 0.960 . S
C1976 H1968 0.929 . S
C1976 C1977 1.377 . S
C1976 C1978 1.384 . S
C1977 C1976 1.377 . S
C1977 C1983 1.390 . S
C1978 H1969 0.930 . S
C1978 C1976 1.384 . S
C1978 C1979 1.372 . S
C1979 C1978 1.372 . S
C1979 C1980 1.400 . S
C1979 C1984 1.490 . S
C1980 H1970 0.930 . S
C1980 C1979 1.400 . S
C1980 C1983 1.386 . S
H1981 C1997 0.930 . S
H1982 C1998 0.931 . S
C1983 H1971 0.929 . S
C1983 C1977 1.390 . S
C1983 C1980 1.386 . S
C1984 C1979 1.490 . S
C1984 C1986 1.395 . S
C1984 C1987 1.403 . S
H1985 C1991 0.930 . S
C1986 H1972 0.930 . S
C1986 C1984 1.395 . S
C1986 C1989 1.403 . S
C1987 C1984 1.403 . S
C1987 C1988 1.524 . S
C1987 C1991 1.400 . S
C1988 H1973 0.960 . S
C1988 H1974 0.960 . S
C1988 H1975 0.960 . S
C1988 C1987 1.524 . S
C1989 C1986 1.403 . S
C1989 C1990 1.392 . S
C1989 C1993 1.495 . S
C1990 C1989 1.392 . S
C1990 C1991 1.385 . S
C1990 C1992 1.478 . S
C1991 H1985 0.930 . S
C1991 C1987 1.400 . S
C1991 C1990 1.385 . S
C1992 C1990 1.478 . S
C1992 C1994 1.381 . S
C1992 C1998 1.383 . S
C1993 C1989 1.495 . S
C1993 H1999 0.959 . S
C1993 H2000 0.961 . S
C1993 H2001 0.960 . S
C1994 C1992 1.381 . S
C1994 C1995 1.394 . S
C1994 H2002 0.930 . S
C1995 C1994 1.394 . S
C1995 C1996 1.383 . S
C1995 H2003 0.929 . S
C1996 C1995 1.383 . S
C1996 C1997 1.377 . S
C1997 H1981 0.930 . S
C1997 C1996 1.377 . S
C1997 C1998 1.379 . S
C1998 H1982 0.931 . S
C1998 C1992 1.383 . S
C1998 C1997 1.379 . S
H1999 C1993 0.959 . S
H2000 C1993 0.961 . S
H2001 C1993 0.960 . S
H2002 C1994 0.930 . S
H2003 C1995 0.929 . S
H2004 C2012 0.929 . S
H2005 C2014 0.930 . S
H2006 C2016 0.930 . S
H2007 C2019 0.929 . S
H2008 C2022 0.930 . S
H2009 C2024 0.960 . S
H2010 C2024 0.960 . S
H2011 C2024 0.960 . S
C2012 H2004 0.929 . S
C2012 C2013 1.377 . S
C2012 C2014 1.384 . S
C2013 C2012 1.377 . S
C2013 C2019 1.390 . S
C2014 H2005 0.930 . S
C2014 C2012 1.384 . S
C2014 C2015 1.372 . S
C2015 C2014 1.372 . S
C2015 C2016 1.400 . S
C2015 C2020 1.490 . S
C2016 H2006 0.930 . S
C2016 C2015 1.400 . S
C2016 C2019 1.386 . S
H2017 C2033 0.930 . S
H2018 C2034 0.931 . S
C2019 H2007 0.929 . S
C2019 C2013 1.390 . S
C2019 C2016 1.386 . S
C2020 C2015 1.490 . S
C2020 C2022 1.395 . S
C2020 C2023 1.403 . S
H2021 C2027 0.930 . S
C2022 H2008 0.930 . S
C2022 C2020 1.395 . S
C2022 C2025 1.403 . S
C2023 C2020 1.403 . S
C2023 C2024 1.524 . S
C2023 C2027 1.400 . S
C2024 H2009 0.960 . S
C2024 H2010 0.960 . S
C2024 H2011 0.960 . S
C2024 C2023 1.524 . S
C2025 C2022 1.403 . S
C2025 C2026 1.392 . S
C2025 C2029 1.495 . S
C2026 C2025 1.392 . S
C2026 C2027 1.385 . S
C2026 C2028 1.478 . S
C2027 H2021 0.930 . S
C2027 C2023 1.400 . S
C2027 C2026 1.385 . S
C2028 C2026 1.478 . S
C2028 C2030 1.381 . S
C2028 C2034 1.383 . S
C2029 C2025 1.495 . S
C2029 H2035 0.959 . S
C2029 H2036 0.961 . S
C2029 H2037 0.960 . S
C2030 C2028 1.381 . S
C2030 C2031 1.394 . S
C2030 H2038 0.930 . S
C2031 C2030 1.394 . S
C2031 C2032 1.383 . S
C2031 H2039 0.929 . S
C2032 C2031 1.383 . S
C2032 C2033 1.377 . S
C2033 H2017 0.930 . S
C2033 C2032 1.377 . S
C2033 C2034 1.379 . S
C2034 H2018 0.931 . S
C2034 C2028 1.383 . S
C2034 C2033 1.379 . S
H2035 C2029 0.959 . S
H2036 C2029 0.961 . S
H2037 C2029 0.960 . S
H2038 C2030 0.930 . S
H2039 C2031 0.929 . S
H2040 C2048 0.929 . S
H2041 C2050 0.930 . S
H2042 C2052 0.930 . S
H2043 C2055 0.929 . S
H2044 C2058 0.930 . S
H2045 C2060 0.960 . S
H2046 C2060 0.960 . S
H2047 C2060 0.960 . S
C2048 H2040 0.929 . S
C2048 C2049 1.377 . S
C2048 C2050 1.384 . S
C2049 C2048 1.377 . S
C2049 C2055 1.390 . S
C2050 H2041 0.930 . S
C2050 C2048 1.384 . S
C2050 C2051 1.372 . S
C2051 C2050 1.372 . S
C2051 C2052 1.400 . S
C2051 C2056 1.490 . S
C2052 H2042 0.930 . S
C2052 C2051 1.400 . S
C2052 C2055 1.386 . S
H2053 C2069 0.930 . S
H2054 C2070 0.931 . S
C2055 H2043 0.929 . S
C2055 C2049 1.390 . S
C2055 C2052 1.386 . S
C2056 C2051 1.490 . S
C2056 C2058 1.395 . S
C2056 C2059 1.403 . S
H2057 C2063 0.930 . S
C2058 H2044 0.930 . S
C2058 C2056 1.395 . S
C2058 C2061 1.403 . S
C2059 C2056 1.403 . S
C2059 C2060 1.524 . S
C2059 C2063 1.400 . S
C2060 H2045 0.960 . S
C2060 H2046 0.960 . S
C2060 H2047 0.960 . S
C2060 C2059 1.524 . S
C2061 C2058 1.403 . S
C2061 C2062 1.392 . S
C2061 C2065 1.495 . S
C2062 C2061 1.392 . S
C2062 C2063 1.385 . S
C2062 C2064 1.478 . S
C2063 H2057 0.930 . S
C2063 C2059 1.400 . S
C2063 C2062 1.385 . S
C2064 C2062 1.478 . S
C2064 C2066 1.381 . S
C2064 C2070 1.383 . S
C2065 C2061 1.495 . S
C2065 H2071 0.959 . S
C2065 H2072 0.961 . S
C2065 H2073 0.960 . S
C2066 C2064 1.381 . S
C2066 C2067 1.394 . S
C2066 H2074 0.930 . S
C2067 C2066 1.394 . S
C2067 C2068 1.383 . S
C2067 H2075 0.929 . S
C2068 C2067 1.383 . S
C2068 C2069 1.377 . S
C2069 H2053 0.930 . S
C2069 C2068 1.377 . S
C2069 C2070 1.379 . S
C2070 H2054 0.931 . S
C2070 C2064 1.383 . S
C2070 C2069 1.379 . S
H2071 C2065 0.959 . S
H2072 C2065 0.961 . S
H2073 C2065 0.960 . S
H2074 C2066 0.930 . S
H2075 C2067 0.929 . S
H2076 C2084 0.929 . S
H2077 C2086 0.930 . S
H2078 C2088 0.930 . S
H2079 C2091 0.929 . S
H2080 C2094 0.930 . S
H2081 C2096 0.960 . S
H2082 C2096 0.960 . S
H2083 C2096 0.960 . S
C2084 H2076 0.929 . S
C2084 C2085 1.377 . S
C2084 C2086 1.384 . S
C2085 C2084 1.377 . S
C2085 C2091 1.390 . S
C2086 H2077 0.930 . S
C2086 C2084 1.384 . S
C2086 C2087 1.372 . S
C2087 C2086 1.372 . S
C2087 C2088 1.400 . S
C2087 C2092 1.490 . S
C2088 H2078 0.930 . S
C2088 C2087 1.400 . S
C2088 C2091 1.386 . S
H2089 C2105 0.930 . S
H2090 C2106 0.931 . S
C2091 H2079 0.929 . S
C2091 C2085 1.390 . S
C2091 C2088 1.386 . S
C2092 C2087 1.490 . S
C2092 C2094 1.395 . S
C2092 C2095 1.403 . S
H2093 C2099 0.930 . S
C2094 H2080 0.930 . S
C2094 C2092 1.395 . S
C2094 C2097 1.403 . S
C2095 C2092 1.403 . S
C2095 C2096 1.524 . S
C2095 C2099 1.400 . S
C2096 H2081 0.960 . S
C2096 H2082 0.960 . S
C2096 H2083 0.960 . S
C2096 C2095 1.524 . S
C2097 C2094 1.403 . S
C2097 C2098 1.392 . S
C2097 C2101 1.495 . S
C2098 C2097 1.392 . S
C2098 C2099 1.385 . S
C2098 C2100 1.478 . S
C2099 H2093 0.930 . S
C2099 C2095 1.400 . S
C2099 C2098 1.385 . S
C2100 C2098 1.478 . S
C2100 C2102 1.381 . S
C2100 C2106 1.383 . S
C2101 C2097 1.495 . S
C2101 H2107 0.959 . S
C2101 H2108 0.961 . S
C2101 H2109 0.960 . S
C2102 C2100 1.381 . S
C2102 C2103 1.394 . S
C2102 H2110 0.930 . S
C2103 C2102 1.394 . S
C2103 C2104 1.383 . S
C2103 H2111 0.929 . S
C2104 C2103 1.383 . S
C2104 C2105 1.377 . S
C2105 H2089 0.930 . S
C2105 C2104 1.377 . S
C2105 C2106 1.379 . S
C2106 H2090 0.931 . S
C2106 C2100 1.383 . S
C2106 C2105 1.379 . S
H2107 C2101 0.959 . S
H2108 C2101 0.961 . S
H2109 C2101 0.960 . S
H2110 C2102 0.930 . S
H2111 C2103 0.929 . S
H2112 C2120 0.929 . S
H2113 C2122 0.930 . S
H2114 C2124 0.930 . S
H2115 C2127 0.929 . S
H2116 C2130 0.930 . S
H2117 C2132 0.960 . S
H2118 C2132 0.960 . S
H2119 C2132 0.960 . S
C2120 H2112 0.929 . S
C2120 C2121 1.377 . S
C2120 C2122 1.384 . S
C2121 C2120 1.377 . S
C2121 C2127 1.390 . S
C2122 H2113 0.930 . S
C2122 C2120 1.384 . S
C2122 C2123 1.372 . S
C2123 C2122 1.372 . S
C2123 C2124 1.400 . S
C2123 C2128 1.490 . S
C2124 H2114 0.930 . S
C2124 C2123 1.400 . S
C2124 C2127 1.386 . S
H2125 C2141 0.930 . S
H2126 C2142 0.931 . S
C2127 H2115 0.929 . S
C2127 C2121 1.390 . S
C2127 C2124 1.386 . S
C2128 C2123 1.490 . S
C2128 C2130 1.395 . S
C2128 C2131 1.403 . S
H2129 C2135 0.930 . S
C2130 H2116 0.930 . S
C2130 C2128 1.395 . S
C2130 C2133 1.403 . S
C2131 C2128 1.403 . S
C2131 C2132 1.524 . S
C2131 C2135 1.400 . S
C2132 H2117 0.960 . S
C2132 H2118 0.960 . S
C2132 H2119 0.960 . S
C2132 C2131 1.524 . S
C2133 C2130 1.403 . S
C2133 C2134 1.392 . S
C2133 C2137 1.495 . S
C2134 C2133 1.392 . S
C2134 C2135 1.385 . S
C2134 C2136 1.478 . S
C2135 H2129 0.930 . S
C2135 C2131 1.400 . S
C2135 C2134 1.385 . S
C2136 C2134 1.478 . S
C2136 C2138 1.381 . S
C2136 C2142 1.383 . S
C2137 C2133 1.495 . S
C2137 H2143 0.959 . S
C2137 H2144 0.961 . S
C2137 H2145 0.960 . S
C2138 C2136 1.381 . S
C2138 C2139 1.394 . S
C2138 H2146 0.930 . S
C2139 C2138 1.394 . S
C2139 C2140 1.383 . S
C2139 H2147 0.929 . S
C2140 C2139 1.383 . S
C2140 C2141 1.377 . S
C2141 H2125 0.930 . S
C2141 C2140 1.377 . S
C2141 C2142 1.379 . S
C2142 H2126 0.931 . S
C2142 C2136 1.383 . S
C2142 C2141 1.379 . S
H2143 C2137 0.959 . S
H2144 C2137 0.961 . S
H2145 C2137 0.960 . S
H2146 C2138 0.930 . S
H2147 C2139 0.929 . S
H2148 C2156 0.929 . S
H2149 C2158 0.930 . S
H2150 C2160 0.930 . S
H2151 C2163 0.929 . S
H2152 C2166 0.930 . S
H2153 C2168 0.960 . S
H2154 C2168 0.960 . S
H2155 C2168 0.960 . S
C2156 H2148 0.929 . S
C2156 C2157 1.377 . S
C2156 C2158 1.384 . S
C2157 C2156 1.377 . S
C2157 C2163 1.390 . S
C2158 H2149 0.930 . S
C2158 C2156 1.384 . S
C2158 C2159 1.372 . S
C2159 C2158 1.372 . S
C2159 C2160 1.400 . S
C2159 C2164 1.490 . S
C2160 H2150 0.930 . S
C2160 C2159 1.400 . S
C2160 C2163 1.386 . S
H2161 C2177 0.930 . S
H2162 C2178 0.931 . S
C2163 H2151 0.929 . S
C2163 C2157 1.390 . S
C2163 C2160 1.386 . S
C2164 C2159 1.490 . S
C2164 C2166 1.395 . S
C2164 C2167 1.403 . S
H2165 C2171 0.930 . S
C2166 H2152 0.930 . S
C2166 C2164 1.395 . S
C2166 C2169 1.403 . S
C2167 C2164 1.403 . S
C2167 C2168 1.524 . S
C2167 C2171 1.400 . S
C2168 H2153 0.960 . S
C2168 H2154 0.960 . S
C2168 H2155 0.960 . S
C2168 C2167 1.524 . S
C2169 C2166 1.403 . S
C2169 C2170 1.392 . S
C2169 C2173 1.495 . S
C2170 C2169 1.392 . S
C2170 C2171 1.385 . S
C2170 C2172 1.478 . S
C2171 H2165 0.930 . S
C2171 C2167 1.400 . S
C2171 C2170 1.385 . S
C2172 C2170 1.478 . S
C2172 C2174 1.381 . S
C2172 C2178 1.383 . S
C2173 C2169 1.495 . S
C2173 H2179 0.959 . S
C2173 H2180 0.961 . S
C2173 H2181 0.960 . S
C2174 C2172 1.381 . S
C2174 C2175 1.394 . S
C2174 H2182 0.930 . S
C2175 C2174 1.394 . S
C2175 C2176 1.383 . S
C2175 H2183 0.929 . S
C2176 C2175 1.383 . S
C2176 C2177 1.377 . S
C2177 H2161 0.930 . S
C2177 C2176 1.377 . S
C2177 C2178 1.379 . S
C2178 H2162 0.931 . S
C2178 C2172 1.383 . S
C2178 C2177 1.379 . S
H2179 C2173 0.959 . S
H2180 C2173 0.961 . S
H2181 C2173 0.960 . S
H2182 C2174 0.930 . S
H2183 C2175 0.929 . S
H2184 C2192 0.929 . S
H2185 C2194 0.930 . S
H2186 C2196 0.930 . S
H2187 C2199 0.929 . S
H2188 C2202 0.930 . S
H2189 C2204 0.960 . S
H2190 C2204 0.960 . S
H2191 C2204 0.960 . S
C2192 H2184 0.929 . S
C2192 C2193 1.377 . S
C2192 C2194 1.384 . S
C2193 C2192 1.377 . S
C2193 C2199 1.390 . S
C2194 H2185 0.930 . S
C2194 C2192 1.384 . S
C2194 C2195 1.372 . S
C2195 C2194 1.372 . S
C2195 C2196 1.400 . S
C2195 C2200 1.490 . S
C2196 H2186 0.930 . S
C2196 C2195 1.400 . S
C2196 C2199 1.386 . S
H2197 C2213 0.930 . S
H2198 C2214 0.931 . S
C2199 H2187 0.929 . S
C2199 C2193 1.390 . S
C2199 C2196 1.386 . S
C2200 C2195 1.490 . S
C2200 C2202 1.395 . S
C2200 C2203 1.403 . S
H2201 C2207 0.930 . S
C2202 H2188 0.930 . S
C2202 C2200 1.395 . S
C2202 C2205 1.403 . S
C2203 C2200 1.403 . S
C2203 C2204 1.524 . S
C2203 C2207 1.400 . S
C2204 H2189 0.960 . S
C2204 H2190 0.960 . S
C2204 H2191 0.960 . S
C2204 C2203 1.524 . S
C2205 C2202 1.403 . S
C2205 C2206 1.392 . S
C2205 C2209 1.495 . S
C2206 C2205 1.392 . S
C2206 C2207 1.385 . S
C2206 C2208 1.478 . S
C2207 H2201 0.930 . S
C2207 C2203 1.400 . S
C2207 C2206 1.385 . S
C2208 C2206 1.478 . S
C2208 C2210 1.381 . S
C2208 C2214 1.383 . S
C2209 C2205 1.495 . S
C2209 H2215 0.959 . S
C2209 H2216 0.961 . S
C2209 H2217 0.960 . S
C2210 C2208 1.381 . S
C2210 C2211 1.394 . S
C2210 H2218 0.930 . S
C2211 C2210 1.394 . S
C2211 C2212 1.383 . S
C2211 H2219 0.929 . S
C2212 C2211 1.383 . S
C2212 C2213 1.377 . S
C2213 H2197 0.930 . S
C2213 C2212 1.377 . S
C2213 C2214 1.379 . S
C2214 H2198 0.931 . S
C2214 C2208 1.383 . S
C2214 C2213 1.379 . S
H2215 C2209 0.959 . S
H2216 C2209 0.961 . S
H2217 C2209 0.960 . S
H2218 C2210 0.930 . S
H2219 C2211 0.929 . S
H2220 C2228 0.929 . S
H2221 C2230 0.930 . S
H2222 C2232 0.930 . S
H2223 C2235 0.929 . S
H2224 C2238 0.930 . S
H2225 C2240 0.960 . S
H2226 C2240 0.960 . S
H2227 C2240 0.960 . S
C2228 H2220 0.929 . S
C2228 C2229 1.377 . S
C2228 C2230 1.384 . S
C2229 C2228 1.377 . S
C2229 C2235 1.390 . S
C2230 H2221 0.930 . S
C2230 C2228 1.384 . S
C2230 C2231 1.372 . S
C2231 C2230 1.372 . S
C2231 C2232 1.400 . S
C2231 C2236 1.490 . S
C2232 H2222 0.930 . S
C2232 C2231 1.400 . S
C2232 C2235 1.386 . S
H2233 C2249 0.930 . S
H2234 C2250 0.931 . S
C2235 H2223 0.929 . S
C2235 C2229 1.390 . S
C2235 C2232 1.386 . S
C2236 C2231 1.490 . S
C2236 C2238 1.395 . S
C2236 C2239 1.403 . S
H2237 C2243 0.930 . S
C2238 H2224 0.930 . S
C2238 C2236 1.395 . S
C2238 C2241 1.403 . S
C2239 C2236 1.403 . S
C2239 C2240 1.524 . S
C2239 C2243 1.400 . S
C2240 H2225 0.960 . S
C2240 H2226 0.960 . S
C2240 H2227 0.960 . S
C2240 C2239 1.524 . S
C2241 C2238 1.403 . S
C2241 C2242 1.392 . S
C2241 C2245 1.495 . S
C2242 C2241 1.392 . S
C2242 C2243 1.385 . S
C2242 C2244 1.478 . S
C2243 H2237 0.930 . S
C2243 C2239 1.400 . S
C2243 C2242 1.385 . S
C2244 C2242 1.478 . S
C2244 C2246 1.381 . S
C2244 C2250 1.383 . S
C2245 C2241 1.495 . S
C2245 H2251 0.959 . S
C2245 H2252 0.961 . S
C2245 H2253 0.960 . S
C2246 C2244 1.381 . S
C2246 C2247 1.394 . S
C2246 H2254 0.930 . S
C2247 C2246 1.394 . S
C2247 C2248 1.383 . S
C2247 H2255 0.929 . S
C2248 C2247 1.383 . S
C2248 C2249 1.377 . S
C2249 H2233 0.930 . S
C2249 C2248 1.377 . S
C2249 C2250 1.379 . S
C2250 H2234 0.931 . S
C2250 C2244 1.383 . S
C2250 C2249 1.379 . S
H2251 C2245 0.959 . S
H2252 C2245 0.961 . S
H2253 C2245 0.960 . S
H2254 C2246 0.930 . S
H2255 C2247 0.929 . S
H2256 C2264 0.929 . S
H2257 C2266 0.930 . S
H2258 C2268 0.930 . S
H2259 C2271 0.929 . S
H2260 C2274 0.930 . S
H2261 C2276 0.960 . S
H2262 C2276 0.960 . S
H2263 C2276 0.960 . S
C2264 H2256 0.929 . S
C2264 C2265 1.377 . S
C2264 C2266 1.384 . S
C2265 C2264 1.377 . S
C2265 C2271 1.390 . S
C2266 H2257 0.930 . S
C2266 C2264 1.384 . S
C2266 C2267 1.372 . S
C2267 C2266 1.372 . S
C2267 C2268 1.400 . S
C2267 C2272 1.490 . S
C2268 H2258 0.930 . S
C2268 C2267 1.400 . S
C2268 C2271 1.386 . S
H2269 C2285 0.930 . S
H2270 C2286 0.931 . S
C2271 H2259 0.929 . S
C2271 C2265 1.390 . S
C2271 C2268 1.386 . S
C2272 C2267 1.490 . S
C2272 C2274 1.395 . S
C2272 C2275 1.403 . S
H2273 C2279 0.930 . S
C2274 H2260 0.930 . S
C2274 C2272 1.395 . S
C2274 C2277 1.403 . S
C2275 C2272 1.403 . S
C2275 C2276 1.524 . S
C2275 C2279 1.400 . S
C2276 H2261 0.960 . S
C2276 H2262 0.960 . S
C2276 H2263 0.960 . S
C2276 C2275 1.524 . S
C2277 C2274 1.403 . S
C2277 C2278 1.392 . S
C2277 C2281 1.495 . S
C2278 C2277 1.392 . S
C2278 C2279 1.385 . S
C2278 C2280 1.478 . S
C2279 H2273 0.930 . S
C2279 C2275 1.400 . S
C2279 C2278 1.385 . S
C2280 C2278 1.478 . S
C2280 C2282 1.381 . S
C2280 C2286 1.383 . S
C2281 C2277 1.495 . S
C2281 H2287 0.959 . S
C2281 H2288 0.961 . S
C2281 H2289 0.960 . S
C2282 C2280 1.381 . S
C2282 C2283 1.394 . S
C2282 H2290 0.930 . S
C2283 C2282 1.394 . S
C2283 C2284 1.383 . S
C2283 H2291 0.929 . S
C2284 C2283 1.383 . S
C2284 C2285 1.377 . S
C2285 H2269 0.930 . S
C2285 C2284 1.377 . S
C2285 C2286 1.379 . S
C2286 H2270 0.931 . S
C2286 C2280 1.383 . S
C2286 C2285 1.379 . S
H2287 C2281 0.959 . S
H2288 C2281 0.961 . S
H2289 C2281 0.960 . S
H2290 C2282 0.930 . S
H2291 C2283 0.929 . S
H2292 C2300 0.929 . S
H2293 C2302 0.930 . S
H2294 C2304 0.930 . S
H2295 C2307 0.929 . S
H2296 C2310 0.930 . S
H2297 C2312 0.960 . S
H2298 C2312 0.960 . S
H2299 C2312 0.960 . S
C2300 H2292 0.929 . S
C2300 C2301 1.377 . S
C2300 C2302 1.384 . S
C2301 C2300 1.377 . S
C2301 C2307 1.390 . S
C2302 H2293 0.930 . S
C2302 C2300 1.384 . S
C2302 C2303 1.372 . S
C2303 C2302 1.372 . S
C2303 C2304 1.400 . S
C2303 C2308 1.490 . S
C2304 H2294 0.930 . S
C2304 C2303 1.400 . S
C2304 C2307 1.386 . S
H2305 C2321 0.930 . S
H2306 C2322 0.931 . S
C2307 H2295 0.929 . S
C2307 C2301 1.390 . S
C2307 C2304 1.386 . S
C2308 C2303 1.490 . S
C2308 C2310 1.395 . S
C2308 C2311 1.403 . S
H2309 C2315 0.930 . S
C2310 H2296 0.930 . S
C2310 C2308 1.395 . S
C2310 C2313 1.403 . S
C2311 C2308 1.403 . S
C2311 C2312 1.524 . S
C2311 C2315 1.400 . S
C2312 H2297 0.960 . S
C2312 H2298 0.960 . S
C2312 H2299 0.960 . S
C2312 C2311 1.524 . S
C2313 C2310 1.403 . S
C2313 C2314 1.392 . S
C2313 C2317 1.495 . S
C2314 C2313 1.392 . S
C2314 C2315 1.385 . S
C2314 C2316 1.478 . S
C2315 H2309 0.930 . S
C2315 C2311 1.400 . S
C2315 C2314 1.385 . S
C2316 C2314 1.478 . S
C2316 C2318 1.381 . S
C2316 C2322 1.383 . S
C2317 C2313 1.495 . S
C2317 H2323 0.959 . S
C2317 H2324 0.961 . S
C2317 H2325 0.960 . S
C2318 C2316 1.381 . S
C2318 C2319 1.394 . S
C2318 H2326 0.930 . S
C2319 C2318 1.394 . S
C2319 C2320 1.383 . S
C2319 H2327 0.929 . S
C2320 C2319 1.383 . S
C2320 C2321 1.377 . S
C2321 H2305 0.930 . S
C2321 C2320 1.377 . S
C2321 C2322 1.379 . S
C2322 H2306 0.931 . S
C2322 C2316 1.383 . S
C2322 C2321 1.379 . S
H2323 C2317 0.959 . S
H2324 C2317 0.961 . S
H2325 C2317 0.960 . S
H2326 C2318 0.930 . S
H2327 C2319 0.929 . S
H2328 C2336 0.929 . S
H2329 C2338 0.930 . S
H2330 C2340 0.930 . S
H2331 C2343 0.929 . S
H2332 C2346 0.930 . S
H2333 C2348 0.960 . S
H2334 C2348 0.960 . S
H2335 C2348 0.960 . S
C2336 H2328 0.929 . S
C2336 C2337 1.377 . S
C2336 C2338 1.384 . S
C2337 C2336 1.377 . S
C2337 C2343 1.390 . S
C2338 H2329 0.930 . S
C2338 C2336 1.384 . S
C2338 C2339 1.372 . S
C2339 C2338 1.372 . S
C2339 C2340 1.400 . S
C2339 C2344 1.490 . S
C2340 H2330 0.930 . S
C2340 C2339 1.400 . S
C2340 C2343 1.386 . S
H2341 C2357 0.930 . S
H2342 C2358 0.931 . S
C2343 H2331 0.929 . S
C2343 C2337 1.390 . S
C2343 C2340 1.386 . S
C2344 C2339 1.490 . S
C2344 C2346 1.395 . S
C2344 C2347 1.403 . S
H2345 C2351 0.930 . S
C2346 H2332 0.930 . S
C2346 C2344 1.395 . S
C2346 C2349 1.403 . S
C2347 C2344 1.403 . S
C2347 C2348 1.524 . S
C2347 C2351 1.400 . S
C2348 H2333 0.960 . S
C2348 H2334 0.960 . S
C2348 H2335 0.960 . S
C2348 C2347 1.524 . S
C2349 C2346 1.403 . S
C2349 C2350 1.392 . S
C2349 C2353 1.495 . S
C2350 C2349 1.392 . S
C2350 C2351 1.385 . S
C2350 C2352 1.478 . S
C2351 H2345 0.930 . S
C2351 C2347 1.400 . S
C2351 C2350 1.385 . S
C2352 C2350 1.478 . S
C2352 C2354 1.381 . S
C2352 C2358 1.383 . S
C2353 C2349 1.495 . S
C2353 H2359 0.959 . S
C2353 H2360 0.961 . S
C2353 H2361 0.960 . S
C2354 C2352 1.381 . S
C2354 C2355 1.394 . S
C2354 H2362 0.930 . S
C2355 C2354 1.394 . S
C2355 C2356 1.383 . S
C2355 H2363 0.929 . S
C2356 C2355 1.383 . S
C2356 C2357 1.377 . S
C2357 H2341 0.930 . S
C2357 C2356 1.377 . S
C2357 C2358 1.379 . S
C2358 H2342 0.931 . S
C2358 C2352 1.383 . S
C2358 C2357 1.379 . S
H2359 C2353 0.959 . S
H2360 C2353 0.961 . S
H2361 C2353 0.960 . S
H2362 C2354 0.930 . S
H2363 C2355 0.929 . S
H2364 C2372 0.929 . S
H2365 C2374 0.930 . S
H2366 C2376 0.930 . S
H2367 C2379 0.929 . S
H2368 C2382 0.930 . S
H2369 C2384 0.960 . S
H2370 C2384 0.960 . S
H2371 C2384 0.960 . S
C2372 H2364 0.929 . S
C2372 C2373 1.377 . S
C2372 C2374 1.384 . S
C2373 C2372 1.377 . S
C2373 C2379 1.390 . S
C2374 H2365 0.930 . S
C2374 C2372 1.384 . S
C2374 C2375 1.372 . S
C2375 C2374 1.372 . S
C2375 C2376 1.400 . S
C2375 C2380 1.490 . S
C2376 H2366 0.930 . S
C2376 C2375 1.400 . S
C2376 C2379 1.386 . S
H2377 C2393 0.930 . S
H2378 C2394 0.931 . S
C2379 H2367 0.929 . S
C2379 C2373 1.390 . S
C2379 C2376 1.386 . S
C2380 C2375 1.490 . S
C2380 C2382 1.395 . S
C2380 C2383 1.403 . S
H2381 C2387 0.930 . S
C2382 H2368 0.930 . S
C2382 C2380 1.395 . S
C2382 C2385 1.403 . S
C2383 C2380 1.403 . S
C2383 C2384 1.524 . S
C2383 C2387 1.400 . S
C2384 H2369 0.960 . S
C2384 H2370 0.960 . S
C2384 H2371 0.960 . S
C2384 C2383 1.524 . S
C2385 C2382 1.403 . S
C2385 C2386 1.392 . S
C2385 C2389 1.495 . S
C2386 C2385 1.392 . S
C2386 C2387 1.385 . S
C2386 C2388 1.478 . S
C2387 H2381 0.930 . S
C2387 C2383 1.400 . S
C2387 C2386 1.385 . S
C2388 C2386 1.478 . S
C2388 C2390 1.381 . S
C2388 C2394 1.383 . S
C2389 C2385 1.495 . S
C2389 H2395 0.959 . S
C2389 H2396 0.961 . S
C2389 H2397 0.960 . S
C2390 C2388 1.381 . S
C2390 C2391 1.394 . S
C2390 H2398 0.930 . S
C2391 C2390 1.394 . S
C2391 C2392 1.383 . S
C2391 H2399 0.929 . S
C2392 C2391 1.383 . S
C2392 C2393 1.377 . S
C2393 H2377 0.930 . S
C2393 C2392 1.377 . S
C2393 C2394 1.379 . S
C2394 H2378 0.931 . S
C2394 C2388 1.383 . S
C2394 C2393 1.379 . S
H2395 C2389 0.959 . S
H2396 C2389 0.961 . S
H2397 C2389 0.960 . S
H2398 C2390 0.930 . S
H2399 C2391 0.929 . S
H2400 C2408 0.929 . S
H2401 C2410 0.930 . S
H2402 C2412 0.930 . S
H2403 C2415 0.929 . S
H2404 C2418 0.930 . S
H2405 C2420 0.960 . S
H2406 C2420 0.960 . S
H2407 C2420 0.960 . S
C2408 H2400 0.929 . S
C2408 C2409 1.377 . S
C2408 C2410 1.384 . S
C2409 C2408 1.377 . S
C2409 C2415 1.390 . S
C2410 H2401 0.930 . S
C2410 C2408 1.384 . S
C2410 C2411 1.372 . S
C2411 C2410 1.372 . S
C2411 C2412 1.400 . S
C2411 C2416 1.490 . S
C2412 H2402 0.930 . S
C2412 C2411 1.400 . S
C2412 C2415 1.386 . S
H2413 C2429 0.930 . S
H2414 C2430 0.931 . S
C2415 H2403 0.929 . S
C2415 C2409 1.390 . S
C2415 C2412 1.386 . S
C2416 C2411 1.490 . S
C2416 C2418 1.395 . S
C2416 C2419 1.403 . S
H2417 C2423 0.930 . S
C2418 H2404 0.930 . S
C2418 C2416 1.395 . S
C2418 C2421 1.403 . S
C2419 C2416 1.403 . S
C2419 C2420 1.524 . S
C2419 C2423 1.400 . S
C2420 H2405 0.960 . S
C2420 H2406 0.960 . S
C2420 H2407 0.960 . S
C2420 C2419 1.524 . S
C2421 C2418 1.403 . S
C2421 C2422 1.392 . S
C2421 C2425 1.495 . S
C2422 C2421 1.392 . S
C2422 C2423 1.385 . S
C2422 C2424 1.478 . S
C2423 H2417 0.930 . S
C2423 C2419 1.400 . S
C2423 C2422 1.385 . S
C2424 C2422 1.478 . S
C2424 C2426 1.381 . S
C2424 C2430 1.383 . S
C2425 C2421 1.495 . S
C2425 H2431 0.959 . S
C2425 H2432 0.961 . S
C2425 H2433 0.960 . S
C2426 C2424 1.381 . S
C2426 C2427 1.394 . S
C2426 H2434 0.930 . S
C2427 C2426 1.394 . S
C2427 C2428 1.383 . S
C2427 H2435 0.929 . S
C2428 C2427 1.383 . S
C2428 C2429 1.377 . S
C2429 H2413 0.930 . S
C2429 C2428 1.377 . S
C2429 C2430 1.379 . S
C2430 H2414 0.931 . S
C2430 C2424 1.383 . S
C2430 C2429 1.379 . S
H2431 C2425 0.959 . S
H2432 C2425 0.961 . S
H2433 C2425 0.960 . S
H2434 C2426 0.930 . S
H2435 C2427 0.929 . S
H2436 C2444 0.929 . S
H2437 C2446 0.930 . S
H2438 C2448 0.930 . S
H2439 C2451 0.929 . S
H2440 C2454 0.930 . S
H2441 C2456 0.960 . S
H2442 C2456 0.960 . S
H2443 C2456 0.960 . S
C2444 H2436 0.929 . S
C2444 C2445 1.377 . S
C2444 C2446 1.384 . S
C2445 C2444 1.377 . S
C2445 C2451 1.390 . S
C2446 H2437 0.930 . S
C2446 C2444 1.384 . S
C2446 C2447 1.372 . S
C2447 C2446 1.372 . S
C2447 C2448 1.400 . S
C2447 C2452 1.490 . S
C2448 H2438 0.930 . S
C2448 C2447 1.400 . S
C2448 C2451 1.386 . S
H2449 C2465 0.930 . S
H2450 C2466 0.931 . S
C2451 H2439 0.929 . S
C2451 C2445 1.390 . S
C2451 C2448 1.386 . S
C2452 C2447 1.490 . S
C2452 C2454 1.395 . S
C2452 C2455 1.403 . S
H2453 C2459 0.930 . S
C2454 H2440 0.930 . S
C2454 C2452 1.395 . S
C2454 C2457 1.403 . S
C2455 C2452 1.403 . S
C2455 C2456 1.524 . S
C2455 C2459 1.400 . S
C2456 H2441 0.960 . S
C2456 H2442 0.960 . S
C2456 H2443 0.960 . S
C2456 C2455 1.524 . S
C2457 C2454 1.403 . S
C2457 C2458 1.392 . S
C2457 C2461 1.495 . S
C2458 C2457 1.392 . S
C2458 C2459 1.385 . S
C2458 C2460 1.478 . S
C2459 H2453 0.930 . S
C2459 C2455 1.400 . S
C2459 C2458 1.385 . S
C2460 C2458 1.478 . S
C2460 C2462 1.381 . S
C2460 C2466 1.383 . S
C2461 C2457 1.495 . S
C2461 H2467 0.959 . S
C2461 H2468 0.961 . S
C2461 H2469 0.960 . S
C2462 C2460 1.381 . S
C2462 C2463 1.394 . S
C2462 H2470 0.930 . S
C2463 C2462 1.394 . S
C2463 C2464 1.383 . S
C2463 H2471 0.929 . S
C2464 C2463 1.383 . S
C2464 C2465 1.377 . S
C2465 H2449 0.930 . S
C2465 C2464 1.377 . S
C2465 C2466 1.379 . S
C2466 H2450 0.931 . S
C2466 C2460 1.383 . S
C2466 C2465 1.379 . S
H2467 C2461 0.959 . S
H2468 C2461 0.961 . S
H2469 C2461 0.960 . S
H2470 C2462 0.930 . S
H2471 C2463 0.929 . S
H2472 C2480 0.929 . S
H2473 C2482 0.930 . S
H2474 C2484 0.930 . S
H2475 C2487 0.929 . S
H2476 C2490 0.930 . S
H2477 C2492 0.960 . S
H2478 C2492 0.960 . S
H2479 C2492 0.960 . S
C2480 H2472 0.929 . S
C2480 C2481 1.377 . S
C2480 C2482 1.384 . S
C2481 C2480 1.377 . S
C2481 C2487 1.390 . S
C2482 H2473 0.930 . S
C2482 C2480 1.384 . S
C2482 C2483 1.372 . S
C2483 C2482 1.372 . S
C2483 C2484 1.400 . S
C2483 C2488 1.490 . S
C2484 H2474 0.930 . S
C2484 C2483 1.400 . S
C2484 C2487 1.386 . S
H2485 C2501 0.930 . S
H2486 C2502 0.931 . S
C2487 H2475 0.929 . S
C2487 C2481 1.390 . S
C2487 C2484 1.386 . S
C2488 C2483 1.490 . S
C2488 C2490 1.395 . S
C2488 C2491 1.403 . S
H2489 C2495 0.930 . S
C2490 H2476 0.930 . S
C2490 C2488 1.395 . S
C2490 C2493 1.403 . S
C2491 C2488 1.403 . S
C2491 C2492 1.524 . S
C2491 C2495 1.400 . S
C2492 H2477 0.960 . S
C2492 H2478 0.960 . S
C2492 H2479 0.960 . S
C2492 C2491 1.524 . S
C2493 C2490 1.403 . S
C2493 C2494 1.392 . S
C2493 C2497 1.495 . S
C2494 C2493 1.392 . S
C2494 C2495 1.385 . S
C2494 C2496 1.478 . S
C2495 H2489 0.930 . S
C2495 C2491 1.400 . S
C2495 C2494 1.385 . S
C2496 C2494 1.478 . S
C2496 C2498 1.381 . S
C2496 C2502 1.383 . S
C2497 C2493 1.495 . S
C2497 H2503 0.959 . S
C2497 H2504 0.961 . S
C2497 H2505 0.960 . S
C2498 C2496 1.381 . S
C2498 C2499 1.394 . S
C2498 H2506 0.930 . S
C2499 C2498 1.394 . S
C2499 C2500 1.383 . S
C2499 H2507 0.929 . S
C2500 C2499 1.383 . S
C2500 C2501 1.377 . S
C2501 H2485 0.930 . S
C2501 C2500 1.377 . S
C2501 C2502 1.379 . S
C2502 H2486 0.931 . S
C2502 C2496 1.383 . S
C2502 C2501 1.379 . S
H2503 C2497 0.959 . S
H2504 C2497 0.961 . S
H2505 C2497 0.960 . S
H2506 C2498 0.930 . S
H2507 C2499 0.929 . S
H2508 C2516 0.929 . S
H2509 C2518 0.930 . S
H2510 C2520 0.930 . S
H2511 C2523 0.929 . S
H2512 C2526 0.930 . S
H2513 C2528 0.960 . S
H2514 C2528 0.960 . S
H2515 C2528 0.960 . S
C2516 H2508 0.929 . S
C2516 C2517 1.377 . S
C2516 C2518 1.384 . S
C2517 C2516 1.377 . S
C2517 C2523 1.390 . S
C2518 H2509 0.930 . S
C2518 C2516 1.384 . S
C2518 C2519 1.372 . S
C2519 C2518 1.372 . S
C2519 C2520 1.400 . S
C2519 C2524 1.490 . S
C2520 H2510 0.930 . S
C2520 C2519 1.400 . S
C2520 C2523 1.386 . S
H2521 C2537 0.930 . S
H2522 C2538 0.931 . S
C2523 H2511 0.929 . S
C2523 C2517 1.390 . S
C2523 C2520 1.386 . S
C2524 C2519 1.490 . S
C2524 C2526 1.395 . S
C2524 C2527 1.403 . S
H2525 C2531 0.930 . S
C2526 H2512 0.930 . S
C2526 C2524 1.395 . S
C2526 C2529 1.403 . S
C2527 C2524 1.403 . S
C2527 C2528 1.524 . S
C2527 C2531 1.400 . S
C2528 H2513 0.960 . S
C2528 H2514 0.960 . S
C2528 H2515 0.960 . S
C2528 C2527 1.524 . S
C2529 C2526 1.403 . S
C2529 C2530 1.392 . S
C2529 C2533 1.495 . S
C2530 C2529 1.392 . S
C2530 C2531 1.385 . S
C2530 C2532 1.478 . S
C2531 H2525 0.930 . S
C2531 C2527 1.400 . S
C2531 C2530 1.385 . S
C2532 C2530 1.478 . S
C2532 C2534 1.381 . S
C2532 C2538 1.383 . S
C2533 C2529 1.495 . S
C2533 H2539 0.959 . S
C2533 H2540 0.961 . S
C2533 H2541 0.960 . S
C2534 C2532 1.381 . S
C2534 C2535 1.394 . S
C2534 H2542 0.930 . S
C2535 C2534 1.394 . S
C2535 C2536 1.383 . S
C2535 H2543 0.929 . S
C2536 C2535 1.383 . S
C2536 C2537 1.377 . S
C2537 H2521 0.930 . S
C2537 C2536 1.377 . S
C2537 C2538 1.379 . S
C2538 H2522 0.931 . S
C2538 C2532 1.383 . S
C2538 C2537 1.379 . S
H2539 C2533 0.959 . S
H2540 C2533 0.961 . S
H2541 C2533 0.960 . S
H2542 C2534 0.930 . S
H2543 C2535 0.929 . S
H2544 C2552 0.929 . S
H2545 C2554 0.930 . S
H2546 C2556 0.930 . S
H2547 C2559 0.929 . S
H2548 C2562 0.930 . S
H2549 C2564 0.960 . S
H2550 C2564 0.960 . S
H2551 C2564 0.960 . S
C2552 H2544 0.929 . S
C2552 C2553 1.377 . S
C2552 C2554 1.384 . S
C2553 C2552 1.377 . S
C2553 C2559 1.390 . S
C2554 H2545 0.930 . S
C2554 C2552 1.384 . S
C2554 C2555 1.372 . S
C2555 C2554 1.372 . S
C2555 C2556 1.400 . S
C2555 C2560 1.490 . S
C2556 H2546 0.930 . S
C2556 C2555 1.400 . S
C2556 C2559 1.386 . S
H2557 C2573 0.930 . S
H2558 C2574 0.931 . S
C2559 H2547 0.929 . S
C2559 C2553 1.390 . S
C2559 C2556 1.386 . S
C2560 C2555 1.490 . S
C2560 C2562 1.395 . S
C2560 C2563 1.403 . S
H2561 C2567 0.930 . S
C2562 H2548 0.930 . S
C2562 C2560 1.395 . S
C2562 C2565 1.403 . S
C2563 C2560 1.403 . S
C2563 C2564 1.524 . S
C2563 C2567 1.400 . S
C2564 H2549 0.960 . S
C2564 H2550 0.960 . S
C2564 H2551 0.960 . S
C2564 C2563 1.524 . S
C2565 C2562 1.403 . S
C2565 C2566 1.392 . S
C2565 C2569 1.495 . S
C2566 C2565 1.392 . S
C2566 C2567 1.385 . S
C2566 C2568 1.478 . S
C2567 H2561 0.930 . S
C2567 C2563 1.400 . S
C2567 C2566 1.385 . S
C2568 C2566 1.478 . S
C2568 C2570 1.381 . S
C2568 C2574 1.383 . S
C2569 C2565 1.495 . S
C2569 H2575 0.959 . S
C2569 H2576 0.961 . S
C2569 H2577 0.960 . S
C2570 C2568 1.381 . S
C2570 C2571 1.394 . S
C2570 H2578 0.930 . S
C2571 C2570 1.394 . S
C2571 C2572 1.383 . S
C2571 H2579 0.929 . S
C2572 C2571 1.383 . S
C2572 C2573 1.377 . S
C2573 H2557 0.930 . S
C2573 C2572 1.377 . S
C2573 C2574 1.379 . S
C2574 H2558 0.931 . S
C2574 C2568 1.383 . S
C2574 C2573 1.379 . S
H2575 C2569 0.959 . S
H2576 C2569 0.961 . S
H2577 C2569 0.960 . S
H2578 C2570 0.930 . S
H2579 C2571 0.929 . S
H2580 C2588 0.929 . S
H2581 C2590 0.930 . S
H2582 C2592 0.930 . S
H2583 C2595 0.929 . S
H2584 C2598 0.930 . S
H2585 C2600 0.960 . S
H2586 C2600 0.960 . S
H2587 C2600 0.960 . S
C2588 H2580 0.929 . S
C2588 C2589 1.377 . S
C2588 C2590 1.384 . S
C2589 C2588 1.377 . S
C2589 C2595 1.390 . S
C2590 H2581 0.930 . S
C2590 C2588 1.384 . S
C2590 C2591 1.372 . S
C2591 C2590 1.372 . S
C2591 C2592 1.400 . S
C2591 C2596 1.490 . S
C2592 H2582 0.930 . S
C2592 C2591 1.400 . S
C2592 C2595 1.386 . S
H2593 C2609 0.930 . S
H2594 C2610 0.931 . S
C2595 H2583 0.929 . S
C2595 C2589 1.390 . S
C2595 C2592 1.386 . S
C2596 C2591 1.490 . S
C2596 C2598 1.395 . S
C2596 C2599 1.403 . S
H2597 C2603 0.930 . S
C2598 H2584 0.930 . S
C2598 C2596 1.395 . S
C2598 C2601 1.403 . S
C2599 C2596 1.403 . S
C2599 C2600 1.524 . S
C2599 C2603 1.400 . S
C2600 H2585 0.960 . S
C2600 H2586 0.960 . S
C2600 H2587 0.960 . S
C2600 C2599 1.524 . S
C2601 C2598 1.403 . S
C2601 C2602 1.392 . S
C2601 C2605 1.495 . S
C2602 C2601 1.392 . S
C2602 C2603 1.385 . S
C2602 C2604 1.478 . S
C2603 H2597 0.930 . S
C2603 C2599 1.400 . S
C2603 C2602 1.385 . S
C2604 C2602 1.478 . S
C2604 C2606 1.381 . S
C2604 C2610 1.383 . S
C2605 C2601 1.495 . S
C2605 H2611 0.959 . S
C2605 H2612 0.961 . S
C2605 H2613 0.960 . S
C2606 C2604 1.381 . S
C2606 C2607 1.394 . S
C2606 H2614 0.930 . S
C2607 C2606 1.394 . S
C2607 C2608 1.383 . S
C2607 H2615 0.929 . S
C2608 C2607 1.383 . S
C2608 C2609 1.377 . S
C2609 H2593 0.930 . S
C2609 C2608 1.377 . S
C2609 C2610 1.379 . S
C2610 H2594 0.931 . S
C2610 C2604 1.383 . S
C2610 C2609 1.379 . S
H2611 C2605 0.959 . S
H2612 C2605 0.961 . S
H2613 C2605 0.960 . S
H2614 C2606 0.930 . S
H2615 C2607 0.929 . S
H2616 C2624 0.929 . S
H2617 C2626 0.930 . S
H2618 C2628 0.930 . S
H2619 C2631 0.929 . S
H2620 C2634 0.930 . S
H2621 C2636 0.960 . S
H2622 C2636 0.960 . S
H2623 C2636 0.960 . S
C2624 H2616 0.929 . S
C2624 C2625 1.377 . S
C2624 C2626 1.384 . S
C2625 C2624 1.377 . S
C2625 C2631 1.390 . S
C2626 H2617 0.930 . S
C2626 C2624 1.384 . S
C2626 C2627 1.372 . S
C2627 C2626 1.372 . S
C2627 C2628 1.400 . S
C2627 C2632 1.490 . S
C2628 H2618 0.930 . S
C2628 C2627 1.400 . S
C2628 C2631 1.386 . S
H2629 C2645 0.930 . S
H2630 C2646 0.931 . S
C2631 H2619 0.929 . S
C2631 C2625 1.390 . S
C2631 C2628 1.386 . S
C2632 C2627 1.490 . S
C2632 C2634 1.395 . S
C2632 C2635 1.403 . S
H2633 C2639 0.930 . S
C2634 H2620 0.930 . S
C2634 C2632 1.395 . S
C2634 C2637 1.403 . S
C2635 C2632 1.403 . S
C2635 C2636 1.524 . S
C2635 C2639 1.400 . S
C2636 H2621 0.960 . S
C2636 H2622 0.960 . S
C2636 H2623 0.960 . S
C2636 C2635 1.524 . S
C2637 C2634 1.403 . S
C2637 C2638 1.392 . S
C2637 C2641 1.495 . S
C2638 C2637 1.392 . S
C2638 C2639 1.385 . S
C2638 C2640 1.478 . S
C2639 H2633 0.930 . S
C2639 C2635 1.400 . S
C2639 C2638 1.385 . S
C2640 C2638 1.478 . S
C2640 C2642 1.381 . S
C2640 C2646 1.383 . S
C2641 C2637 1.495 . S
C2641 H2647 0.959 . S
C2641 H2648 0.961 . S
C2641 H2649 0.960 . S
C2642 C2640 1.381 . S
C2642 C2643 1.394 . S
C2642 H2650 0.930 . S
C2643 C2642 1.394 . S
C2643 C2644 1.383 . S
C2643 H2651 0.929 . S
C2644 C2643 1.383 . S
C2644 C2645 1.377 . S
C2645 H2629 0.930 . S
C2645 C2644 1.377 . S
C2645 C2646 1.379 . S
C2646 H2630 0.931 . S
C2646 C2640 1.383 . S
C2646 C2645 1.379 . S
H2647 C2641 0.959 . S
H2648 C2641 0.961 . S
H2649 C2641 0.960 . S
H2650 C2642 0.930 . S
H2651 C2643 0.929 . S
H2652 C2660 0.929 . S
H2653 C2662 0.930 . S
H2654 C2664 0.930 . S
H2655 C2667 0.929 . S
H2656 C2670 0.930 . S
H2657 C2672 0.960 . S
H2658 C2672 0.960 . S
H2659 C2672 0.960 . S
C2660 H2652 0.929 . S
C2660 C2661 1.377 . S
C2660 C2662 1.384 . S
C2661 C2660 1.377 . S
C2661 C2667 1.390 . S
C2662 H2653 0.930 . S
C2662 C2660 1.384 . S
C2662 C2663 1.372 . S
C2663 C2662 1.372 . S
C2663 C2664 1.400 . S
C2663 C2668 1.490 . S
C2664 H2654 0.930 . S
C2664 C2663 1.400 . S
C2664 C2667 1.386 . S
H2665 C2681 0.930 . S
H2666 C2682 0.931 . S
C2667 H2655 0.929 . S
C2667 C2661 1.390 . S
C2667 C2664 1.386 . S
C2668 C2663 1.490 . S
C2668 C2670 1.395 . S
C2668 C2671 1.403 . S
H2669 C2675 0.930 . S
C2670 H2656 0.930 . S
C2670 C2668 1.395 . S
C2670 C2673 1.403 . S
C2671 C2668 1.403 . S
C2671 C2672 1.524 . S
C2671 C2675 1.400 . S
C2672 H2657 0.960 . S
C2672 H2658 0.960 . S
C2672 H2659 0.960 . S
C2672 C2671 1.524 . S
C2673 C2670 1.403 . S
C2673 C2674 1.392 . S
C2673 C2677 1.495 . S
C2674 C2673 1.392 . S
C2674 C2675 1.385 . S
C2674 C2676 1.478 . S
C2675 H2669 0.930 . S
C2675 C2671 1.400 . S
C2675 C2674 1.385 . S
C2676 C2674 1.478 . S
C2676 C2678 1.381 . S
C2676 C2682 1.383 . S
C2677 C2673 1.495 . S
C2677 H2683 0.959 . S
C2677 H2684 0.961 . S
C2677 H2685 0.960 . S
C2678 C2676 1.381 . S
C2678 C2679 1.394 . S
C2678 H2686 0.930 . S
C2679 C2678 1.394 . S
C2679 C2680 1.383 . S
C2679 H2687 0.929 . S
C2680 C2679 1.383 . S
C2680 C2681 1.377 . S
C2681 H2665 0.930 . S
C2681 C2680 1.377 . S
C2681 C2682 1.379 . S
C2682 H2666 0.931 . S
C2682 C2676 1.383 . S
C2682 C2681 1.379 . S
H2683 C2677 0.959 . S
H2684 C2677 0.961 . S
H2685 C2677 0.960 . S
H2686 C2678 0.930 . S
H2687 C2679 0.929 . S
H2688 C2696 0.929 . S
H2689 C2698 0.930 . S
H2690 C2700 0.930 . S
H2691 C2703 0.929 . S
H2692 C2706 0.930 . S
H2693 C2708 0.960 . S
H2694 C2708 0.960 . S
H2695 C2708 0.960 . S
C2696 H2688 0.929 . S
C2696 C2697 1.377 . S
C2696 C2698 1.384 . S
C2697 C2696 1.377 . S
C2697 C2703 1.390 . S
C2698 H2689 0.930 . S
C2698 C2696 1.384 . S
C2698 C2699 1.372 . S
C2699 C2698 1.372 . S
C2699 C2700 1.400 . S
C2699 C2704 1.490 . S
C2700 H2690 0.930 . S
C2700 C2699 1.400 . S
C2700 C2703 1.386 . S
H2701 C2717 0.930 . S
H2702 C2718 0.931 . S
C2703 H2691 0.929 . S
C2703 C2697 1.390 . S
C2703 C2700 1.386 . S
C2704 C2699 1.490 . S
C2704 C2706 1.395 . S
C2704 C2707 1.403 . S
H2705 C2711 0.930 . S
C2706 H2692 0.930 . S
C2706 C2704 1.395 . S
C2706 C2709 1.403 . S
C2707 C2704 1.403 . S
C2707 C2708 1.524 . S
C2707 C2711 1.400 . S
C2708 H2693 0.960 . S
C2708 H2694 0.960 . S
C2708 H2695 0.960 . S
C2708 C2707 1.524 . S
C2709 C2706 1.403 . S
C2709 C2710 1.392 . S
C2709 C2713 1.495 . S
C2710 C2709 1.392 . S
C2710 C2711 1.385 . S
C2710 C2712 1.478 . S
C2711 H2705 0.930 . S
C2711 C2707 1.400 . S
C2711 C2710 1.385 . S
C2712 C2710 1.478 . S
C2712 C2714 1.381 . S
C2712 C2718 1.383 . S
C2713 C2709 1.495 . S
C2713 H2719 0.959 . S
C2713 H2720 0.961 . S
C2713 H2721 0.960 . S
C2714 C2712 1.381 . S
C2714 C2715 1.394 . S
C2714 H2722 0.930 . S
C2715 C2714 1.394 . S
C2715 C2716 1.383 . S
C2715 H2723 0.929 . S
C2716 C2715 1.383 . S
C2716 C2717 1.377 . S
C2717 H2701 0.930 . S
C2717 C2716 1.377 . S
C2717 C2718 1.379 . S
C2718 H2702 0.931 . S
C2718 C2712 1.383 . S
C2718 C2717 1.379 . S
H2719 C2713 0.959 . S
H2720 C2713 0.961 . S
H2721 C2713 0.960 . S
H2722 C2714 0.930 . S
H2723 C2715 0.929 . S
H2724 C2732 0.929 . S
H2725 C2734 0.930 . S
H2726 C2736 0.930 . S
H2727 C2739 0.929 . S
H2728 C2742 0.930 . S
H2729 C2744 0.960 . S
H2730 C2744 0.960 . S
H2731 C2744 0.960 . S
C2732 H2724 0.929 . S
C2732 C2733 1.377 . S
C2732 C2734 1.384 . S
C2733 C2732 1.377 . S
C2733 C2739 1.390 . S
C2734 H2725 0.930 . S
C2734 C2732 1.384 . S
C2734 C2735 1.372 . S
C2735 C2734 1.372 . S
C2735 C2736 1.400 . S
C2735 C2740 1.490 . S
C2736 H2726 0.930 . S
C2736 C2735 1.400 . S
C2736 C2739 1.386 . S
H2737 C2753 0.930 . S
H2738 C2754 0.931 . S
C2739 H2727 0.929 . S
C2739 C2733 1.390 . S
C2739 C2736 1.386 . S
C2740 C2735 1.490 . S
C2740 C2742 1.395 . S
C2740 C2743 1.403 . S
H2741 C2747 0.930 . S
C2742 H2728 0.930 . S
C2742 C2740 1.395 . S
C2742 C2745 1.403 . S
C2743 C2740 1.403 . S
C2743 C2744 1.524 . S
C2743 C2747 1.400 . S
C2744 H2729 0.960 . S
C2744 H2730 0.960 . S
C2744 H2731 0.960 . S
C2744 C2743 1.524 . S
C2745 C2742 1.403 . S
C2745 C2746 1.392 . S
C2745 C2749 1.495 . S
C2746 C2745 1.392 . S
C2746 C2747 1.385 . S
C2746 C2748 1.478 . S
C2747 H2741 0.930 . S
C2747 C2743 1.400 . S
C2747 C2746 1.385 . S
C2748 C2746 1.478 . S
C2748 C2750 1.381 . S
C2748 C2754 1.383 . S
C2749 C2745 1.495 . S
C2749 H2755 0.959 . S
C2749 H2756 0.961 . S
C2749 H2757 0.960 . S
C2750 C2748 1.381 . S
C2750 C2751 1.394 . S
C2750 H2758 0.930 . S
C2751 C2750 1.394 . S
C2751 C2752 1.383 . S
C2751 H2759 0.929 . S
C2752 C2751 1.383 . S
C2752 C2753 1.377 . S
C2753 H2737 0.930 . S
C2753 C2752 1.377 . S
C2753 C2754 1.379 . S
C2754 H2738 0.931 . S
C2754 C2748 1.383 . S
C2754 C2753 1.379 . S
H2755 C2749 0.959 . S
H2756 C2749 0.961 . S
H2757 C2749 0.960 . S
H2758 C2750 0.930 . S
H2759 C2751 0.929 . S
H2760 C2768 0.929 . S
H2761 C2770 0.930 . S
H2762 C2772 0.930 . S
H2763 C2775 0.929 . S
H2764 C2778 0.930 . S
H2765 C2780 0.960 . S
H2766 C2780 0.960 . S
H2767 C2780 0.960 . S
C2768 H2760 0.929 . S
C2768 C2769 1.377 . S
C2768 C2770 1.384 . S
C2769 C2768 1.377 . S
C2769 C2775 1.390 . S
C2770 H2761 0.930 . S
C2770 C2768 1.384 . S
C2770 C2771 1.372 . S
C2771 C2770 1.372 . S
C2771 C2772 1.400 . S
C2771 C2776 1.490 . S
C2772 H2762 0.930 . S
C2772 C2771 1.400 . S
C2772 C2775 1.386 . S
H2773 C2789 0.930 . S
H2774 C2790 0.931 . S
C2775 H2763 0.929 . S
C2775 C2769 1.390 . S
C2775 C2772 1.386 . S
C2776 C2771 1.490 . S
C2776 C2778 1.395 . S
C2776 C2779 1.403 . S
H2777 C2783 0.930 . S
C2778 H2764 0.930 . S
C2778 C2776 1.395 . S
C2778 C2781 1.403 . S
C2779 C2776 1.403 . S
C2779 C2780 1.524 . S
C2779 C2783 1.400 . S
C2780 H2765 0.960 . S
C2780 H2766 0.960 . S
C2780 H2767 0.960 . S
C2780 C2779 1.524 . S
C2781 C2778 1.403 . S
C2781 C2782 1.392 . S
C2781 C2785 1.495 . S
C2782 C2781 1.392 . S
C2782 C2783 1.385 . S
C2782 C2784 1.478 . S
C2783 H2777 0.930 . S
C2783 C2779 1.400 . S
C2783 C2782 1.385 . S
C2784 C2782 1.478 . S
C2784 C2786 1.381 . S
C2784 C2790 1.383 . S
C2785 C2781 1.495 . S
C2785 H2791 0.959 . S
C2785 H2792 0.961 . S
C2785 H2793 0.960 . S
C2786 C2784 1.381 . S
C2786 C2787 1.394 . S
C2786 H2794 0.930 . S
C2787 C2786 1.394 . S
C2787 C2788 1.383 . S
C2787 H2795 0.929 . S
C2788 C2787 1.383 . S
C2788 C2789 1.377 . S
C2789 H2773 0.930 . S
C2789 C2788 1.377 . S
C2789 C2790 1.379 . S
C2790 H2774 0.931 . S
C2790 C2784 1.383 . S
C2790 C2789 1.379 . S
H2791 C2785 0.959 . S
H2792 C2785 0.961 . S
H2793 C2785 0.960 . S
H2794 C2786 0.930 . S
H2795 C2787 0.929 . S
H2796 C2804 0.929 . S
H2797 C2806 0.930 . S
H2798 C2808 0.930 . S
H2799 C2811 0.929 . S
H2800 C2814 0.930 . S
H2801 C2816 0.960 . S
H2802 C2816 0.960 . S
H2803 C2816 0.960 . S
C2804 H2796 0.929 . S
C2804 C2805 1.377 . S
C2804 C2806 1.384 . S
C2805 C2804 1.377 . S
C2805 C2811 1.390 . S
C2806 H2797 0.930 . S
C2806 C2804 1.384 . S
C2806 C2807 1.372 . S
C2807 C2806 1.372 . S
C2807 C2808 1.400 . S
C2807 C2812 1.490 . S
C2808 H2798 0.930 . S
C2808 C2807 1.400 . S
C2808 C2811 1.386 . S
H2809 C2825 0.930 . S
H2810 C2826 0.931 . S
C2811 H2799 0.929 . S
C2811 C2805 1.390 . S
C2811 C2808 1.386 . S
C2812 C2807 1.490 . S
C2812 C2814 1.395 . S
C2812 C2815 1.403 . S
H2813 C2819 0.930 . S
C2814 H2800 0.930 . S
C2814 C2812 1.395 . S
C2814 C2817 1.403 . S
C2815 C2812 1.403 . S
C2815 C2816 1.524 . S
C2815 C2819 1.400 . S
C2816 H2801 0.960 . S
C2816 H2802 0.960 . S
C2816 H2803 0.960 . S
C2816 C2815 1.524 . S
C2817 C2814 1.403 . S
C2817 C2818 1.392 . S
C2817 C2821 1.495 . S
C2818 C2817 1.392 . S
C2818 C2819 1.385 . S
C2818 C2820 1.478 . S
C2819 H2813 0.930 . S
C2819 C2815 1.400 . S
C2819 C2818 1.385 . S
C2820 C2818 1.478 . S
C2820 C2822 1.381 . S
C2820 C2826 1.383 . S
C2821 C2817 1.495 . S
C2821 H2827 0.959 . S
C2821 H2828 0.961 . S
C2821 H2829 0.960 . S
C2822 C2820 1.381 . S
C2822 C2823 1.394 . S
C2822 H2830 0.930 . S
C2823 C2822 1.394 . S
C2823 C2824 1.383 . S
C2823 H2831 0.929 . S
C2824 C2823 1.383 . S
C2824 C2825 1.377 . S
C2825 H2809 0.930 . S
C2825 C2824 1.377 . S
C2825 C2826 1.379 . S
C2826 H2810 0.931 . S
C2826 C2820 1.383 . S
C2826 C2825 1.379 . S
H2827 C2821 0.959 . S
H2828 C2821 0.961 . S
H2829 C2821 0.960 . S
H2830 C2822 0.930 . S
H2831 C2823 0.929 . S
H2832 C2840 0.929 . S
H2833 C2842 0.930 . S
H2834 C2844 0.930 . S
H2835 C2847 0.929 . S
H2836 C2850 0.930 . S
H2837 C2852 0.960 . S
H2838 C2852 0.960 . S
H2839 C2852 0.960 . S
C2840 H2832 0.929 . S
C2840 C2841 1.377 . S
C2840 C2842 1.384 . S
C2841 C2840 1.377 . S
C2841 C2847 1.390 . S
C2842 H2833 0.930 . S
C2842 C2840 1.384 . S
C2842 C2843 1.372 . S
C2843 C2842 1.372 . S
C2843 C2844 1.400 . S
C2843 C2848 1.490 . S
C2844 H2834 0.930 . S
C2844 C2843 1.400 . S
C2844 C2847 1.386 . S
H2845 C2861 0.930 . S
H2846 C2862 0.931 . S
C2847 H2835 0.929 . S
C2847 C2841 1.390 . S
C2847 C2844 1.386 . S
C2848 C2843 1.490 . S
C2848 C2850 1.395 . S
C2848 C2851 1.403 . S
H2849 C2855 0.930 . S
C2850 H2836 0.930 . S
C2850 C2848 1.395 . S
C2850 C2853 1.403 . S
C2851 C2848 1.403 . S
C2851 C2852 1.524 . S
C2851 C2855 1.400 . S
C2852 H2837 0.960 . S
C2852 H2838 0.960 . S
C2852 H2839 0.960 . S
C2852 C2851 1.524 . S
C2853 C2850 1.403 . S
C2853 C2854 1.392 . S
C2853 C2857 1.495 . S
C2854 C2853 1.392 . S
C2854 C2855 1.385 . S
C2854 C2856 1.478 . S
C2855 H2849 0.930 . S
C2855 C2851 1.400 . S
C2855 C2854 1.385 . S
C2856 C2854 1.478 . S
C2856 C2858 1.381 . S
C2856 C2862 1.383 . S
C2857 C2853 1.495 . S
C2857 H2863 0.959 . S
C2857 H2864 0.961 . S
C2857 H2865 0.960 . S
C2858 C2856 1.381 . S
C2858 C2859 1.394 . S
C2858 H2866 0.930 . S
C2859 C2858 1.394 . S
C2859 C2860 1.383 . S
C2859 H2867 0.929 . S
C2860 C2859 1.383 . S
C2860 C2861 1.377 . S
C2861 H2845 0.930 . S
C2861 C2860 1.377 . S
C2861 C2862 1.379 . S
C2862 H2846 0.931 . S
C2862 C2856 1.383 . S
C2862 C2861 1.379 . S
H2863 C2857 0.959 . S
H2864 C2857 0.961 . S
H2865 C2857 0.960 . S
H2866 C2858 0.930 . S
H2867 C2859 0.929 . S
H2868 C2876 0.929 . S
H2869 C2878 0.930 . S
H2870 C2880 0.930 . S
H2871 C2883 0.929 . S
H2872 C2886 0.930 . S
H2873 C2888 0.960 . S
H2874 C2888 0.960 . S
H2875 C2888 0.960 . S
C2876 H2868 0.929 . S
C2876 C2877 1.377 . S
C2876 C2878 1.384 . S
C2877 C2876 1.377 . S
C2877 C2883 1.390 . S
C2878 H2869 0.930 . S
C2878 C2876 1.384 . S
C2878 C2879 1.372 . S
C2879 C2878 1.372 . S
C2879 C2880 1.400 . S
C2879 C2884 1.490 . S
C2880 H2870 0.930 . S
C2880 C2879 1.400 . S
C2880 C2883 1.386 . S
H2881 C2897 0.930 . S
H2882 C2898 0.931 . S
C2883 H2871 0.929 . S
C2883 C2877 1.390 . S
C2883 C2880 1.386 . S
C2884 C2879 1.490 . S
C2884 C2886 1.395 . S
C2884 C2887 1.403 . S
H2885 C2891 0.930 . S
C2886 H2872 0.930 . S
C2886 C2884 1.395 . S
C2886 C2889 1.403 . S
C2887 C2884 1.403 . S
C2887 C2888 1.524 . S
C2887 C2891 1.400 . S
C2888 H2873 0.960 . S
C2888 H2874 0.960 . S
C2888 H2875 0.960 . S
C2888 C2887 1.524 . S
C2889 C2886 1.403 . S
C2889 C2890 1.392 . S
C2889 C2893 1.495 . S
C2890 C2889 1.392 . S
C2890 C2891 1.385 . S
C2890 C2892 1.478 . S
C2891 H2885 0.930 . S
C2891 C2887 1.400 . S
C2891 C2890 1.385 . S
C2892 C2890 1.478 . S
C2892 C2894 1.381 . S
C2892 C2898 1.383 . S
C2893 C2889 1.495 . S
C2893 H2899 0.959 . S
C2893 H2900 0.961 . S
C2893 H2901 0.960 . S
C2894 C2892 1.381 . S
C2894 C2895 1.394 . S
C2894 H2902 0.930 . S
C2895 C2894 1.394 . S
C2895 C2896 1.383 . S
C2895 H2903 0.929 . S
C2896 C2895 1.383 . S
C2896 C2897 1.377 . S
C2897 H2881 0.930 . S
C2897 C2896 1.377 . S
C2897 C2898 1.379 . S
C2898 H2882 0.931 . S
C2898 C2892 1.383 . S
C2898 C2897 1.379 . S
H2899 C2893 0.959 . S
H2900 C2893 0.961 . S
H2901 C2893 0.960 . S
H2902 C2894 0.930 . S
H2903 C2895 0.929 . S
H2904 C2912 0.929 . S
H2905 C2914 0.930 . S
H2906 C2916 0.930 . S
H2907 C2919 0.929 . S
H2908 C2922 0.930 . S
H2909 C2924 0.960 . S
H2910 C2924 0.960 . S
H2911 C2924 0.960 . S
C2912 H2904 0.929 . S
C2912 C2913 1.377 . S
C2912 C2914 1.384 . S
C2913 C2912 1.377 . S
C2913 C2919 1.390 . S
C2914 H2905 0.930 . S
C2914 C2912 1.384 . S
C2914 C2915 1.372 . S
C2915 C2914 1.372 . S
C2915 C2916 1.400 . S
C2915 C2920 1.490 . S
C2916 H2906 0.930 . S
C2916 C2915 1.400 . S
C2916 C2919 1.386 . S
H2917 C2933 0.930 . S
H2918 C2934 0.931 . S
C2919 H2907 0.929 . S
C2919 C2913 1.390 . S
C2919 C2916 1.386 . S
C2920 C2915 1.490 . S
C2920 C2922 1.395 . S
C2920 C2923 1.403 . S
H2921 C2927 0.930 . S
C2922 H2908 0.930 . S
C2922 C2920 1.395 . S
C2922 C2925 1.403 . S
C2923 C2920 1.403 . S
C2923 C2924 1.524 . S
C2923 C2927 1.400 . S
C2924 H2909 0.960 . S
C2924 H2910 0.960 . S
C2924 H2911 0.960 . S
C2924 C2923 1.524 . S
C2925 C2922 1.403 . S
C2925 C2926 1.392 . S
C2925 C2929 1.495 . S
C2926 C2925 1.392 . S
C2926 C2927 1.385 . S
C2926 C2928 1.478 . S
C2927 H2921 0.930 . S
C2927 C2923 1.400 . S
C2927 C2926 1.385 . S
C2928 C2926 1.478 . S
C2928 C2930 1.381 . S
C2928 C2934 1.383 . S
C2929 C2925 1.495 . S
C2929 H2935 0.959 . S
C2929 H2936 0.961 . S
C2929 H2937 0.960 . S
C2930 C2928 1.381 . S
C2930 C2931 1.394 . S
C2930 H2938 0.930 . S
C2931 C2930 1.394 . S
C2931 C2932 1.383 . S
C2931 H2939 0.929 . S
C2932 C2931 1.383 . S
C2932 C2933 1.377 . S
C2933 H2917 0.930 . S
C2933 C2932 1.377 . S
C2933 C2934 1.379 . S
C2934 H2918 0.931 . S
C2934 C2928 1.383 . S
C2934 C2933 1.379 . S
H2935 C2929 0.959 . S
H2936 C2929 0.961 . S
H2937 C2929 0.960 . S
H2938 C2930 0.930 . S
H2939 C2931 0.929 . S
H2940 C2948 0.929 . S
H2941 C2950 0.930 . S
H2942 C2952 0.930 . S
H2943 C2955 0.929 . S
H2944 C2958 0.930 . S
H2945 C2960 0.960 . S
H2946 C2960 0.960 . S
H2947 C2960 0.960 . S
C2948 H2940 0.929 . S
C2948 C2949 1.377 . S
C2948 C2950 1.384 . S
C2949 C2948 1.377 . S
C2949 C2955 1.390 . S
C2950 H2941 0.930 . S
C2950 C2948 1.384 . S
C2950 C2951 1.372 . S
C2951 C2950 1.372 . S
C2951 C2952 1.400 . S
C2951 C2956 1.490 . S
C2952 H2942 0.930 . S
C2952 C2951 1.400 . S
C2952 C2955 1.386 . S
H2953 C2969 0.930 . S
H2954 C2970 0.931 . S
C2955 H2943 0.929 . S
C2955 C2949 1.390 . S
C2955 C2952 1.386 . S
C2956 C2951 1.490 . S
C2956 C2958 1.395 . S
C2956 C2959 1.403 . S
H2957 C2963 0.930 . S
C2958 H2944 0.930 . S
C2958 C2956 1.395 . S
C2958 C2961 1.403 . S
C2959 C2956 1.403 . S
C2959 C2960 1.524 . S
C2959 C2963 1.400 . S
C2960 H2945 0.960 . S
C2960 H2946 0.960 . S
C2960 H2947 0.960 . S
C2960 C2959 1.524 . S
C2961 C2958 1.403 . S
C2961 C2962 1.392 . S
C2961 C2965 1.495 . S
C2962 C2961 1.392 . S
C2962 C2963 1.385 . S
C2962 C2964 1.478 . S
C2963 H2957 0.930 . S
C2963 C2959 1.400 . S
C2963 C2962 1.385 . S
C2964 C2962 1.478 . S
C2964 C2966 1.381 . S
C2964 C2970 1.383 . S
C2965 C2961 1.495 . S
C2965 H2971 0.959 . S
C2965 H2972 0.961 . S
C2965 H2973 0.960 . S
C2966 C2964 1.381 . S
C2966 C2967 1.394 . S
C2966 H2974 0.930 . S
C2967 C2966 1.394 . S
C2967 C2968 1.383 . S
C2967 H2975 0.929 . S
C2968 C2967 1.383 . S
C2968 C2969 1.377 . S
C2969 H2953 0.930 . S
C2969 C2968 1.377 . S
C2969 C2970 1.379 . S
C2970 H2954 0.931 . S
C2970 C2964 1.383 . S
C2970 C2969 1.379 . S
H2971 C2965 0.959 . S
H2972 C2965 0.961 . S
H2973 C2965 0.960 . S
H2974 C2966 0.930 . S
H2975 C2967 0.929 . S
H2976 C2984 0.929 . S
H2977 C2986 0.930 . S
H2978 C2988 0.930 . S
H2979 C2991 0.929 . S
H2980 C2994 0.930 . S
H2981 C2996 0.960 . S
H2982 C2996 0.960 . S
H2983 C2996 0.960 . S
C2984 H2976 0.929 . S
C2984 C2985 1.377 . S
C2984 C2986 1.384 . S
C2985 C2984 1.377 . S
C2985 C2991 1.390 . S
C2986 H2977 0.930 . S
C2986 C2984 1.384 . S
C2986 C2987 1.372 . S
C2987 C2986 1.372 . S
C2987 C2988 1.400 . S
C2987 C2992 1.490 . S
C2988 H2978 0.930 . S
C2988 C2987 1.400 . S
C2988 C2991 1.386 . S
H2989 C3005 0.930 . S
H2990 C3006 0.931 . S
C2991 H2979 0.929 . S
C2991 C2985 1.390 . S
C2991 C2988 1.386 . S
C2992 C2987 1.490 . S
C2992 C2994 1.395 . S
C2992 C2995 1.403 . S
H2993 C2999 0.930 . S
C2994 H2980 0.930 . S
C2994 C2992 1.395 . S
C2994 C2997 1.403 . S
C2995 C2992 1.403 . S
C2995 C2996 1.524 . S
C2995 C2999 1.400 . S
C2996 H2981 0.960 . S
C2996 H2982 0.960 . S
C2996 H2983 0.960 . S
C2996 C2995 1.524 . S
C2997 C2994 1.403 . S
C2997 C2998 1.392 . S
C2997 C3001 1.495 . S
C2998 C2997 1.392 . S
C2998 C2999 1.385 . S
C2998 C3000 1.478 . S
C2999 H2993 0.930 . S
C2999 C2995 1.400 . S
C2999 C2998 1.385 . S
C3000 C2998 1.478 . S
C3000 C3002 1.381 . S
C3000 C3006 1.383 . S
C3001 C2997 1.495 . S
C3001 H3007 0.959 . S
C3001 H3008 0.961 . S
C3001 H3009 0.960 . S
C3002 C3000 1.381 . S
C3002 C3003 1.394 . S
C3002 H3010 0.930 . S
C3003 C3002 1.394 . S
C3003 C3004 1.383 . S
C3003 H3011 0.929 . S
C3004 C3003 1.383 . S
C3004 C3005 1.377 . S
C3005 H2989 0.930 . S
C3005 C3004 1.377 . S
C3005 C3006 1.379 . S
C3006 H2990 0.931 . S
C3006 C3000 1.383 . S
C3006 C3005 1.379 . S
H3007 C3001 0.959 . S
H3008 C3001 0.961 . S
H3009 C3001 0.960 . S
H3010 C3002 0.930 . S
H3011 C3003 0.929 . S
H3012 C3020 0.929 . S
H3013 C3022 0.930 . S
H3014 C3024 0.930 . S
H3015 C3027 0.929 . S
H3016 C3030 0.930 . S
H3017 C3032 0.960 . S
H3018 C3032 0.960 . S
H3019 C3032 0.960 . S
C3020 H3012 0.929 . S
C3020 C3021 1.377 . S
C3020 C3022 1.384 . S
C3021 C3020 1.377 . S
C3021 C3027 1.390 . S
C3022 H3013 0.930 . S
C3022 C3020 1.384 . S
C3022 C3023 1.372 . S
C3023 C3022 1.372 . S
C3023 C3024 1.400 . S
C3023 C3028 1.490 . S
C3024 H3014 0.930 . S
C3024 C3023 1.400 . S
C3024 C3027 1.386 . S
H3025 C3041 0.930 . S
H3026 C3042 0.931 . S
C3027 H3015 0.929 . S
C3027 C3021 1.390 . S
C3027 C3024 1.386 . S
C3028 C3023 1.490 . S
C3028 C3030 1.395 . S
C3028 C3031 1.403 . S
H3029 C3035 0.930 . S
C3030 H3016 0.930 . S
C3030 C3028 1.395 . S
C3030 C3033 1.403 . S
C3031 C3028 1.403 . S
C3031 C3032 1.524 . S
C3031 C3035 1.400 . S
C3032 H3017 0.960 . S
C3032 H3018 0.960 . S
C3032 H3019 0.960 . S
C3032 C3031 1.524 . S
C3033 C3030 1.403 . S
C3033 C3034 1.392 . S
C3033 C3037 1.495 . S
C3034 C3033 1.392 . S
C3034 C3035 1.385 . S
C3034 C3036 1.478 . S
C3035 H3029 0.930 . S
C3035 C3031 1.400 . S
C3035 C3034 1.385 . S
C3036 C3034 1.478 . S
C3036 C3038 1.381 . S
C3036 C3042 1.383 . S
C3037 C3033 1.495 . S
C3037 H3043 0.959 . S
C3037 H3044 0.961 . S
C3037 H3045 0.960 . S
C3038 C3036 1.381 . S
C3038 C3039 1.394 . S
C3038 H3046 0.930 . S
C3039 C3038 1.394 . S
C3039 C3040 1.383 . S
C3039 H3047 0.929 . S
C3040 C3039 1.383 . S
C3040 C3041 1.377 . S
C3041 H3025 0.930 . S
C3041 C3040 1.377 . S
C3041 C3042 1.379 . S
C3042 H3026 0.931 . S
C3042 C3036 1.383 . S
C3042 C3041 1.379 . S
H3043 C3037 0.959 . S
H3044 C3037 0.961 . S
H3045 C3037 0.960 . S
H3046 C3038 0.930 . S
H3047 C3039 0.929 . S
H3048 C3056 0.929 . S
H3049 C3058 0.930 . S
H3050 C3060 0.930 . S
H3051 C3063 0.929 . S
H3052 C3066 0.930 . S
H3053 C3068 0.960 . S
H3054 C3068 0.960 . S
H3055 C3068 0.960 . S
C3056 H3048 0.929 . S
C3056 C3057 1.377 . S
C3056 C3058 1.384 . S
C3057 C3056 1.377 . S
C3057 C3063 1.390 . S
C3058 H3049 0.930 . S
C3058 C3056 1.384 . S
C3058 C3059 1.372 . S
C3059 C3058 1.372 . S
C3059 C3060 1.400 . S
C3059 C3064 1.490 . S
C3060 H3050 0.930 . S
C3060 C3059 1.400 . S
C3060 C3063 1.386 . S
H3061 C3077 0.930 . S
H3062 C3078 0.931 . S
C3063 H3051 0.929 . S
C3063 C3057 1.390 . S
C3063 C3060 1.386 . S
C3064 C3059 1.490 . S
C3064 C3066 1.395 . S
C3064 C3067 1.403 . S
H3065 C3071 0.930 . S
C3066 H3052 0.930 . S
C3066 C3064 1.395 . S
C3066 C3069 1.403 . S
C3067 C3064 1.403 . S
C3067 C3068 1.524 . S
C3067 C3071 1.400 . S
C3068 H3053 0.960 . S
C3068 H3054 0.960 . S
C3068 H3055 0.960 . S
C3068 C3067 1.524 . S
C3069 C3066 1.403 . S
C3069 C3070 1.392 . S
C3069 C3073 1.495 . S
C3070 C3069 1.392 . S
C3070 C3071 1.385 . S
C3070 C3072 1.478 . S
C3071 H3065 0.930 . S
C3071 C3067 1.400 . S
C3071 C3070 1.385 . S
C3072 C3070 1.478 . S
C3072 C3074 1.381 . S
C3072 C3078 1.383 . S
C3073 C3069 1.495 . S
C3073 H3079 0.959 . S
C3073 H3080 0.961 . S
C3073 H3081 0.960 . S
C3074 C3072 1.381 . S
C3074 C3075 1.394 . S
C3074 H3082 0.930 . S
C3075 C3074 1.394 . S
C3075 C3076 1.383 . S
C3075 H3083 0.929 . S
C3076 C3075 1.383 . S
C3076 C3077 1.377 . S
C3077 H3061 0.930 . S
C3077 C3076 1.377 . S
C3077 C3078 1.379 . S
C3078 H3062 0.931 . S
C3078 C3072 1.383 . S
C3078 C3077 1.379 . S
H3079 C3073 0.959 . S
H3080 C3073 0.961 . S
H3081 C3073 0.960 . S
H3082 C3074 0.930 . S
H3083 C3075 0.929 . S
H3084 C3092 0.929 . S
H3085 C3094 0.930 . S
H3086 C3096 0.930 . S
H3087 C3099 0.929 . S
H3088 C3102 0.930 . S
H3089 C3104 0.960 . S
H3090 C3104 0.960 . S
H3091 C3104 0.960 . S
C3092 H3084 0.929 . S
C3092 C3093 1.377 . S
C3092 C3094 1.384 . S
C3093 C3092 1.377 . S
C3093 C3099 1.390 . S
C3094 H3085 0.930 . S
C3094 C3092 1.384 . S
C3094 C3095 1.372 . S
C3095 C3094 1.372 . S
C3095 C3096 1.400 . S
C3095 C3100 1.490 . S
C3096 H3086 0.930 . S
C3096 C3095 1.400 . S
C3096 C3099 1.386 . S
H3097 C3113 0.930 . S
H3098 C3114 0.931 . S
C3099 H3087 0.929 . S
C3099 C3093 1.390 . S
C3099 C3096 1.386 . S
C3100 C3095 1.490 . S
C3100 C3102 1.395 . S
C3100 C3103 1.403 . S
H3101 C3107 0.930 . S
C3102 H3088 0.930 . S
C3102 C3100 1.395 . S
C3102 C3105 1.403 . S
C3103 C3100 1.403 . S
C3103 C3104 1.524 . S
C3103 C3107 1.400 . S
C3104 H3089 0.960 . S
C3104 H3090 0.960 . S
C3104 H3091 0.960 . S
C3104 C3103 1.524 . S
C3105 C3102 1.403 . S
C3105 C3106 1.392 . S
C3105 C3109 1.495 . S
C3106 C3105 1.392 . S
C3106 C3107 1.385 . S
C3106 C3108 1.478 . S
C3107 H3101 0.930 . S
C3107 C3103 1.400 . S
C3107 C3106 1.385 . S
C3108 C3106 1.478 . S
C3108 C3110 1.381 . S
C3108 C3114 1.383 . S
C3109 C3105 1.495 . S
C3109 H3115 0.959 . S
C3109 H3116 0.961 . S
C3109 H3117 0.960 . S
C3110 C3108 1.381 . S
C3110 C3111 1.394 . S
C3110 H3118 0.930 . S
C3111 C3110 1.394 . S
C3111 C3112 1.383 . S
C3111 H3119 0.929 . S
C3112 C3111 1.383 . S
C3112 C3113 1.377 . S
C3113 H3097 0.930 . S
C3113 C3112 1.377 . S
C3113 C3114 1.379 . S
C3114 H3098 0.931 . S
C3114 C3108 1.383 . S
C3114 C3113 1.379 . S
H3115 C3109 0.959 . S
H3116 C3109 0.961 . S
H3117 C3109 0.960 . S
H3118 C3110 0.930 . S
H3119 C3111 0.929 . S
H3120 C3128 0.929 . S
H3121 C3130 0.930 . S
H3122 C3132 0.930 . S
H3123 C3135 0.929 . S
H3124 C3138 0.930 . S
H3125 C3140 0.960 . S
H3126 C3140 0.960 . S
H3127 C3140 0.960 . S
C3128 H3120 0.929 . S
C3128 C3129 1.377 . S
C3128 C3130 1.384 . S
C3129 C3128 1.377 . S
C3129 C3135 1.390 . S
C3130 H3121 0.930 . S
C3130 C3128 1.384 . S
C3130 C3131 1.372 . S
C3131 C3130 1.372 . S
C3131 C3132 1.400 . S
C3131 C3136 1.490 . S
C3132 H3122 0.930 . S
C3132 C3131 1.400 . S
C3132 C3135 1.386 . S
H3133 C3149 0.930 . S
H3134 C3150 0.931 . S
C3135 H3123 0.929 . S
C3135 C3129 1.390 . S
C3135 C3132 1.386 . S
C3136 C3131 1.490 . S
C3136 C3138 1.395 . S
C3136 C3139 1.403 . S
H3137 C3143 0.930 . S
C3138 H3124 0.930 . S
C3138 C3136 1.395 . S
C3138 C3141 1.403 . S
C3139 C3136 1.403 . S
C3139 C3140 1.524 . S
C3139 C3143 1.400 . S
C3140 H3125 0.960 . S
C3140 H3126 0.960 . S
C3140 H3127 0.960 . S
C3140 C3139 1.524 . S
C3141 C3138 1.403 . S
C3141 C3142 1.392 . S
C3141 C3145 1.495 . S
C3142 C3141 1.392 . S
C3142 C3143 1.385 . S
C3142 C3144 1.478 . S
C3143 H3137 0.930 . S
C3143 C3139 1.400 . S
C3143 C3142 1.385 . S
C3144 C3142 1.478 . S
C3144 C3146 1.381 . S
C3144 C3150 1.383 . S
C3145 C3141 1.495 . S
C3145 H3151 0.959 . S
C3145 H3152 0.961 . S
C3145 H3153 0.960 . S
C3146 C3144 1.381 . S
C3146 C3147 1.394 . S
C3146 H3154 0.930 . S
C3147 C3146 1.394 . S
C3147 C3148 1.383 . S
C3147 H3155 0.929 . S
C3148 C3147 1.383 . S
C3148 C3149 1.377 . S
C3149 H3133 0.930 . S
C3149 C3148 1.377 . S
C3149 C3150 1.379 . S
C3150 H3134 0.931 . S
C3150 C3144 1.383 . S
C3150 C3149 1.379 . S
H3151 C3145 0.959 . S
H3152 C3145 0.961 . S
H3153 C3145 0.960 . S
H3154 C3146 0.930 . S
H3155 C3147 0.929 . S
H3156 C3164 0.929 . S
H3157 C3166 0.930 . S
H3158 C3168 0.930 . S
H3159 C3171 0.929 . S
H3160 C3174 0.930 . S
H3161 C3176 0.960 . S
H3162 C3176 0.960 . S
H3163 C3176 0.960 . S
C3164 H3156 0.929 . S
C3164 C3165 1.377 . S
C3164 C3166 1.384 . S
C3165 C3164 1.377 . S
C3165 C3171 1.390 . S
C3166 H3157 0.930 . S
C3166 C3164 1.384 . S
C3166 C3167 1.372 . S
C3167 C3166 1.372 . S
C3167 C3168 1.400 . S
C3167 C3172 1.490 . S
C3168 H3158 0.930 . S
C3168 C3167 1.400 . S
C3168 C3171 1.386 . S
H3169 C3185 0.930 . S
H3170 C3186 0.931 . S
C3171 H3159 0.929 . S
C3171 C3165 1.390 . S
C3171 C3168 1.386 . S
C3172 C3167 1.490 . S
C3172 C3174 1.395 . S
C3172 C3175 1.403 . S
H3173 C3179 0.930 . S
C3174 H3160 0.930 . S
C3174 C3172 1.395 . S
C3174 C3177 1.403 . S
C3175 C3172 1.403 . S
C3175 C3176 1.524 . S
C3175 C3179 1.400 . S
C3176 H3161 0.960 . S
C3176 H3162 0.960 . S
C3176 H3163 0.960 . S
C3176 C3175 1.524 . S
C3177 C3174 1.403 . S
C3177 C3178 1.392 . S
C3177 C3181 1.495 . S
C3178 C3177 1.392 . S
C3178 C3179 1.385 . S
C3178 C3180 1.478 . S
C3179 H3173 0.930 . S
C3179 C3175 1.400 . S
C3179 C3178 1.385 . S
C3180 C3178 1.478 . S
C3180 C3182 1.381 . S
C3180 C3186 1.383 . S
C3181 C3177 1.495 . S
C3181 H3187 0.959 . S
C3181 H3188 0.961 . S
C3181 H3189 0.960 . S
C3182 C3180 1.381 . S
C3182 C3183 1.394 . S
C3182 H3190 0.930 . S
C3183 C3182 1.394 . S
C3183 C3184 1.383 . S
C3183 H3191 0.929 . S
C3184 C3183 1.383 . S
C3184 C3185 1.377 . S
C3185 H3169 0.930 . S
C3185 C3184 1.377 . S
C3185 C3186 1.379 . S
C3186 H3170 0.931 . S
C3186 C3180 1.383 . S
C3186 C3185 1.379 . S
H3187 C3181 0.959 . S
H3188 C3181 0.961 . S
H3189 C3181 0.960 . S
H3190 C3182 0.930 . S
H3191 C3183 0.929 . S
H3192 C3200 0.929 . S
H3193 C3202 0.930 . S
H3194 C3204 0.930 . S
H3195 C3207 0.929 . S
H3196 C3210 0.930 . S
H3197 C3212 0.960 . S
H3198 C3212 0.960 . S
H3199 C3212 0.960 . S
C3200 H3192 0.929 . S
C3200 C3201 1.377 . S
C3200 C3202 1.384 . S
C3201 C3200 1.377 . S
C3201 C3207 1.390 . S
C3202 H3193 0.930 . S
C3202 C3200 1.384 . S
C3202 C3203 1.372 . S
C3203 C3202 1.372 . S
C3203 C3204 1.400 . S
C3203 C3208 1.490 . S
C3204 H3194 0.930 . S
C3204 C3203 1.400 . S
C3204 C3207 1.386 . S
H3205 C3221 0.930 . S
H3206 C3222 0.931 . S
C3207 H3195 0.929 . S
C3207 C3201 1.390 . S
C3207 C3204 1.386 . S
C3208 C3203 1.490 . S
C3208 C3210 1.395 . S
C3208 C3211 1.403 . S
H3209 C3215 0.930 . S
C3210 H3196 0.930 . S
C3210 C3208 1.395 . S
C3210 C3213 1.403 . S
C3211 C3208 1.403 . S
C3211 C3212 1.524 . S
C3211 C3215 1.400 . S
C3212 H3197 0.960 . S
C3212 H3198 0.960 . S
C3212 H3199 0.960 . S
C3212 C3211 1.524 . S
C3213 C3210 1.403 . S
C3213 C3214 1.392 . S
C3213 C3217 1.495 . S
C3214 C3213 1.392 . S
C3214 C3215 1.385 . S
C3214 C3216 1.478 . S
C3215 H3209 0.930 . S
C3215 C3211 1.400 . S
C3215 C3214 1.385 . S
C3216 C3214 1.478 . S
C3216 C3218 1.381 . S
C3216 C3222 1.383 . S
C3217 C3213 1.495 . S
C3217 H3223 0.959 . S
C3217 H3224 0.961 . S
C3217 H3225 0.960 . S
C3218 C3216 1.381 . S
C3218 C3219 1.394 . S
C3218 H3226 0.930 . S
C3219 C3218 1.394 . S
C3219 C3220 1.383 . S
C3219 H3227 0.929 . S
C3220 C3219 1.383 . S
C3220 C3221 1.377 . S
C3221 H3205 0.930 . S
C3221 C3220 1.377 . S
C3221 C3222 1.379 . S
C3222 H3206 0.931 . S
C3222 C3216 1.383 . S
C3222 C3221 1.379 . S
H3223 C3217 0.959 . S
H3224 C3217 0.961 . S
H3225 C3217 0.960 . S
H3226 C3218 0.930 . S
H3227 C3219 0.929 . S
H3228 C3236 0.929 . S
H3229 C3238 0.930 . S
H3230 C3240 0.930 . S
H3231 C3243 0.929 . S
H3232 C3246 0.930 . S
H3233 C3248 0.960 . S
H3234 C3248 0.960 . S
H3235 C3248 0.960 . S
C3236 H3228 0.929 . S
C3236 C3237 1.377 . S
C3236 C3238 1.384 . S
C3237 C3236 1.377 . S
C3237 C3243 1.390 . S
C3238 H3229 0.930 . S
C3238 C3236 1.384 . S
C3238 C3239 1.372 . S
C3239 C3238 1.372 . S
C3239 C3240 1.400 . S
C3239 C3244 1.490 . S
C3240 H3230 0.930 . S
C3240 C3239 1.400 . S
C3240 C3243 1.386 . S
H3241 C3257 0.930 . S
H3242 C3258 0.931 . S
C3243 H3231 0.929 . S
C3243 C3237 1.390 . S
C3243 C3240 1.386 . S
C3244 C3239 1.490 . S
C3244 C3246 1.395 . S
C3244 C3247 1.403 . S
H3245 C3251 0.930 . S
C3246 H3232 0.930 . S
C3246 C3244 1.395 . S
C3246 C3249 1.403 . S
C3247 C3244 1.403 . S
C3247 C3248 1.524 . S
C3247 C3251 1.400 . S
C3248 H3233 0.960 . S
C3248 H3234 0.960 . S
C3248 H3235 0.960 . S
C3248 C3247 1.524 . S
C3249 C3246 1.403 . S
C3249 C3250 1.392 . S
C3249 C3253 1.495 . S
C3250 C3249 1.392 . S
C3250 C3251 1.385 . S
C3250 C3252 1.478 . S
C3251 H3245 0.930 . S
C3251 C3247 1.400 . S
C3251 C3250 1.385 . S
C3252 C3250 1.478 . S
C3252 C3254 1.381 . S
C3252 C3258 1.383 . S
C3253 C3249 1.495 . S
C3253 H3259 0.959 . S
C3253 H3260 0.961 . S
C3253 H3261 0.960 . S
C3254 C3252 1.381 . S
C3254 C3255 1.394 . S
C3254 H3262 0.930 . S
C3255 C3254 1.394 . S
C3255 C3256 1.383 . S
C3255 H3263 0.929 . S
C3256 C3255 1.383 . S
C3256 C3257 1.377 . S
C3257 H3241 0.930 . S
C3257 C3256 1.377 . S
C3257 C3258 1.379 . S
C3258 H3242 0.931 . S
C3258 C3252 1.383 . S
C3258 C3257 1.379 . S
H3259 C3253 0.959 . S
H3260 C3253 0.961 . S
H3261 C3253 0.960 . S
H3262 C3254 0.930 . S
H3263 C3255 0.929 . S
H3264 C3272 0.929 . S
H3265 C3274 0.930 . S
H3266 C3276 0.930 . S
H3267 C3279 0.929 . S
H3268 C3282 0.930 . S
H3269 C3284 0.960 . S
H3270 C3284 0.960 . S
H3271 C3284 0.960 . S
C3272 H3264 0.929 . S
C3272 C3273 1.377 . S
C3272 C3274 1.384 . S
C3273 C3272 1.377 . S
C3273 C3279 1.390 . S
C3274 H3265 0.930 . S
C3274 C3272 1.384 . S
C3274 C3275 1.372 . S
C3275 C3274 1.372 . S
C3275 C3276 1.400 . S
C3275 C3280 1.490 . S
C3276 H3266 0.930 . S
C3276 C3275 1.400 . S
C3276 C3279 1.386 . S
H3277 C3293 0.930 . S
H3278 C3294 0.931 . S
C3279 H3267 0.929 . S
C3279 C3273 1.390 . S
C3279 C3276 1.386 . S
C3280 C3275 1.490 . S
C3280 C3282 1.395 . S
C3280 C3283 1.403 . S
H3281 C3287 0.930 . S
C3282 H3268 0.930 . S
C3282 C3280 1.395 . S
C3282 C3285 1.403 . S
C3283 C3280 1.403 . S
C3283 C3284 1.524 . S
C3283 C3287 1.400 . S
C3284 H3269 0.960 . S
C3284 H3270 0.960 . S
C3284 H3271 0.960 . S
C3284 C3283 1.524 . S
C3285 C3282 1.403 . S
C3285 C3286 1.392 . S
C3285 C3289 1.495 . S
C3286 C3285 1.392 . S
C3286 C3287 1.385 . S
C3286 C3288 1.478 . S
C3287 H3281 0.930 . S
C3287 C3283 1.400 . S
C3287 C3286 1.385 . S
C3288 C3286 1.478 . S
C3288 C3290 1.381 . S
C3288 C3294 1.383 . S
C3289 C3285 1.495 . S
C3289 H3295 0.959 . S
C3289 H3296 0.961 . S
C3289 H3297 0.960 . S
C3290 C3288 1.381 . S
C3290 C3291 1.394 . S
C3290 H3298 0.930 . S
C3291 C3290 1.394 . S
C3291 C3292 1.383 . S
C3291 H3299 0.929 . S
C3292 C3291 1.383 . S
C3292 C3293 1.377 . S
C3293 H3277 0.930 . S
C3293 C3292 1.377 . S
C3293 C3294 1.379 . S
C3294 H3278 0.931 . S
C3294 C3288 1.383 . S
C3294 C3293 1.379 . S
H3295 C3289 0.959 . S
H3296 C3289 0.961 . S
H3297 C3289 0.960 . S
H3298 C3290 0.930 . S
H3299 C3291 0.929 . S
H3300 C3308 0.929 . S
H3301 C3310 0.930 . S
H3302 C3312 0.930 . S
H3303 C3315 0.929 . S
H3304 C3318 0.930 . S
H3305 C3320 0.960 . S
H3306 C3320 0.960 . S
H3307 C3320 0.960 . S
C3308 H3300 0.929 . S
C3308 C3309 1.377 . S
C3308 C3310 1.384 . S
C3309 C3308 1.377 . S
C3309 C3315 1.390 . S
C3310 H3301 0.930 . S
C3310 C3308 1.384 . S
C3310 C3311 1.372 . S
C3311 C3310 1.372 . S
C3311 C3312 1.400 . S
C3311 C3316 1.490 . S
C3312 H3302 0.930 . S
C3312 C3311 1.400 . S
C3312 C3315 1.386 . S
H3313 C3329 0.930 . S
H3314 C3330 0.931 . S
C3315 H3303 0.929 . S
C3315 C3309 1.390 . S
C3315 C3312 1.386 . S
C3316 C3311 1.490 . S
C3316 C3318 1.395 . S
C3316 C3319 1.403 . S
H3317 C3323 0.930 . S
C3318 H3304 0.930 . S
C3318 C3316 1.395 . S
C3318 C3321 1.403 . S
C3319 C3316 1.403 . S
C3319 C3320 1.524 . S
C3319 C3323 1.400 . S
C3320 H3305 0.960 . S
C3320 H3306 0.960 . S
C3320 H3307 0.960 . S
C3320 C3319 1.524 . S
C3321 C3318 1.403 . S
C3321 C3322 1.392 . S
C3321 C3325 1.495 . S
C3322 C3321 1.392 . S
C3322 C3323 1.385 . S
C3322 C3324 1.478 . S
C3323 H3317 0.930 . S
C3323 C3319 1.400 . S
C3323 C3322 1.385 . S
C3324 C3322 1.478 . S
C3324 C3326 1.381 . S
C3324 C3330 1.383 . S
C3325 C3321 1.495 . S
C3325 H3331 0.959 . S
C3325 H3332 0.961 . S
C3325 H3333 0.960 . S
C3326 C3324 1.381 . S
C3326 C3327 1.394 . S
C3326 H3334 0.930 . S
C3327 C3326 1.394 . S
C3327 C3328 1.383 . S
C3327 H3335 0.929 . S
C3328 C3327 1.383 . S
C3328 C3329 1.377 . S
C3329 H3313 0.930 . S
C3329 C3328 1.377 . S
C3329 C3330 1.379 . S
C3330 H3314 0.931 . S
C3330 C3324 1.383 . S
C3330 C3329 1.379 . S
H3331 C3325 0.959 . S
H3332 C3325 0.961 . S
H3333 C3325 0.960 . S
H3334 C3326 0.930 . S
H3335 C3327 0.929 . S
H3336 C3344 0.929 . S
H3337 C3346 0.930 . S
H3338 C3348 0.930 . S
H3339 C3351 0.929 . S
H3340 C3354 0.930 . S
H3341 C3356 0.960 . S
H3342 C3356 0.960 . S
H3343 C3356 0.960 . S
C3344 H3336 0.929 . S
C3344 C3345 1.377 . S
C3344 C3346 1.384 . S
C3345 C3344 1.377 . S
C3345 C3351 1.390 . S
C3346 H3337 0.930 . S
C3346 C3344 1.384 . S
C3346 C3347 1.372 . S
C3347 C3346 1.372 . S
C3347 C3348 1.400 . S
C3347 C3352 1.490 . S
C3348 H3338 0.930 . S
C3348 C3347 1.400 . S
C3348 C3351 1.386 . S
H3349 C3365 0.930 . S
H3350 C3366 0.931 . S
C3351 H3339 0.929 . S
C3351 C3345 1.390 . S
C3351 C3348 1.386 . S
C3352 C3347 1.490 . S
C3352 C3354 1.395 . S
C3352 C3355 1.403 . S
H3353 C3359 0.930 . S
C3354 H3340 0.930 . S
C3354 C3352 1.395 . S
C3354 C3357 1.403 . S
C3355 C3352 1.403 . S
C3355 C3356 1.524 . S
C3355 C3359 1.400 . S
C3356 H3341 0.960 . S
C3356 H3342 0.960 . S
C3356 H3343 0.960 . S
C3356 C3355 1.524 . S
C3357 C3354 1.403 . S
C3357 C3358 1.392 . S
C3357 C3361 1.495 . S
C3358 C3357 1.392 . S
C3358 C3359 1.385 . S
C3358 C3360 1.478 . S
C3359 H3353 0.930 . S
C3359 C3355 1.400 . S
C3359 C3358 1.385 . S
C3360 C3358 1.478 . S
C3360 C3362 1.381 . S
C3360 C3366 1.383 . S
C3361 C3357 1.495 . S
C3361 H3367 0.959 . S
C3361 H3368 0.961 . S
C3361 H3369 0.960 . S
C3362 C3360 1.381 . S
C3362 C3363 1.394 . S
C3362 H3370 0.930 . S
C3363 C3362 1.394 . S
C3363 C3364 1.383 . S
C3363 H3371 0.929 . S
C3364 C3363 1.383 . S
C3364 C3365 1.377 . S
C3365 H3349 0.930 . S
C3365 C3364 1.377 . S
C3365 C3366 1.379 . S
C3366 H3350 0.931 . S
C3366 C3360 1.383 . S
C3366 C3365 1.379 . S
H3367 C3361 0.959 . S
H3368 C3361 0.961 . S
H3369 C3361 0.960 . S
H3370 C3362 0.930 . S
H3371 C3363 0.929 . S
H3372 C3380 0.929 . S
H3373 C3382 0.930 . S
H3374 C3384 0.930 . S
H3375 C3387 0.929 . S
H3376 C3390 0.930 . S
H3377 C3392 0.960 . S
H3378 C3392 0.960 . S
H3379 C3392 0.960 . S
C3380 H3372 0.929 . S
C3380 C3381 1.377 . S
C3380 C3382 1.384 . S
C3381 C3380 1.377 . S
C3381 C3387 1.390 . S
C3382 H3373 0.930 . S
C3382 C3380 1.384 . S
C3382 C3383 1.372 . S
C3383 C3382 1.372 . S
C3383 C3384 1.400 . S
C3383 C3388 1.490 . S
C3384 H3374 0.930 . S
C3384 C3383 1.400 . S
C3384 C3387 1.386 . S
H3385 C3401 0.930 . S
H3386 C3402 0.931 . S
C3387 H3375 0.929 . S
C3387 C3381 1.390 . S
C3387 C3384 1.386 . S
C3388 C3383 1.490 . S
C3388 C3390 1.395 . S
C3388 C3391 1.403 . S
H3389 C3395 0.930 . S
C3390 H3376 0.930 . S
C3390 C3388 1.395 . S
C3390 C3393 1.403 . S
C3391 C3388 1.403 . S
C3391 C3392 1.524 . S
C3391 C3395 1.400 . S
C3392 H3377 0.960 . S
C3392 H3378 0.960 . S
C3392 H3379 0.960 . S
C3392 C3391 1.524 . S
C3393 C3390 1.403 . S
C3393 C3394 1.392 . S
C3393 C3397 1.495 . S
C3394 C3393 1.392 . S
C3394 C3395 1.385 . S
C3394 C3396 1.478 . S
C3395 H3389 0.930 . S
C3395 C3391 1.400 . S
C3395 C3394 1.385 . S
C3396 C3394 1.478 . S
C3396 C3398 1.381 . S
C3396 C3402 1.383 . S
C3397 C3393 1.495 . S
C3397 H3403 0.959 . S
C3397 H3404 0.961 . S
C3397 H3405 0.960 . S
C3398 C3396 1.381 . S
C3398 C3399 1.394 . S
C3398 H3406 0.930 . S
C3399 C3398 1.394 . S
C3399 C3400 1.383 . S
C3399 H3407 0.929 . S
C3400 C3399 1.383 . S
C3400 C3401 1.377 . S
C3401 H3385 0.930 . S
C3401 C3400 1.377 . S
C3401 C3402 1.379 . S
C3402 H3386 0.931 . S
C3402 C3396 1.383 . S
C3402 C3401 1.379 . S
H3403 C3397 0.959 . S
H3404 C3397 0.961 . S
H3405 C3397 0.960 . S
H3406 C3398 0.930 . S
H3407 C3399 0.929 . S
H3408 C3416 0.929 . S
H3409 C3418 0.930 . S
H3410 C3420 0.930 . S
H3411 C3423 0.929 . S
H3412 C3426 0.930 . S
H3413 C3428 0.960 . S
H3414 C3428 0.960 . S
H3415 C3428 0.960 . S
C3416 H3408 0.929 . S
C3416 C3417 1.377 . S
C3416 C3418 1.384 . S
C3417 C3416 1.377 . S
C3417 C3423 1.390 . S
C3418 H3409 0.930 . S
C3418 C3416 1.384 . S
C3418 C3419 1.372 . S
C3419 C3418 1.372 . S
C3419 C3420 1.400 . S
C3419 C3424 1.490 . S
C3420 H3410 0.930 . S
C3420 C3419 1.400 . S
C3420 C3423 1.386 . S
H3421 C3437 0.930 . S
H3422 C3438 0.931 . S
C3423 H3411 0.929 . S
C3423 C3417 1.390 . S
C3423 C3420 1.386 . S
C3424 C3419 1.490 . S
C3424 C3426 1.395 . S
C3424 C3427 1.403 . S
H3425 C3431 0.930 . S
C3426 H3412 0.930 . S
C3426 C3424 1.395 . S
C3426 C3429 1.403 . S
C3427 C3424 1.403 . S
C3427 C3428 1.524 . S
C3427 C3431 1.400 . S
C3428 H3413 0.960 . S
C3428 H3414 0.960 . S
C3428 H3415 0.960 . S
C3428 C3427 1.524 . S
C3429 C3426 1.403 . S
C3429 C3430 1.392 . S
C3429 C3433 1.495 . S
C3430 C3429 1.392 . S
C3430 C3431 1.385 . S
C3430 C3432 1.478 . S
C3431 H3425 0.930 . S
C3431 C3427 1.400 . S
C3431 C3430 1.385 . S
C3432 C3430 1.478 . S
C3432 C3434 1.381 . S
C3432 C3438 1.383 . S
C3433 C3429 1.495 . S
C3433 H3439 0.959 . S
C3433 H3440 0.961 . S
C3433 H3441 0.960 . S
C3434 C3432 1.381 . S
C3434 C3435 1.394 . S
C3434 H3442 0.930 . S
C3435 C3434 1.394 . S
C3435 C3436 1.383 . S
C3435 H3443 0.929 . S
C3436 C3435 1.383 . S
C3436 C3437 1.377 . S
C3437 H3421 0.930 . S
C3437 C3436 1.377 . S
C3437 C3438 1.379 . S
C3438 H3422 0.931 . S
C3438 C3432 1.383 . S
C3438 C3437 1.379 . S
H3439 C3433 0.959 . S
H3440 C3433 0.961 . S
H3441 C3433 0.960 . S
H3442 C3434 0.930 . S
H3443 C3435 0.929 . S
H3444 C3452 0.929 . S
H3445 C3454 0.930 . S
H3446 C3456 0.930 . S
H3447 C3459 0.929 . S
H3448 C3462 0.930 . S
H3449 C3464 0.960 . S
H3450 C3464 0.960 . S
H3451 C3464 0.960 . S
C3452 H3444 0.929 . S
C3452 C3453 1.377 . S
C3452 C3454 1.384 . S
C3453 C3452 1.377 . S
C3453 C3459 1.390 . S
C3454 H3445 0.930 . S
C3454 C3452 1.384 . S
C3454 C3455 1.372 . S
C3455 C3454 1.372 . S
C3455 C3456 1.400 . S
C3455 C3460 1.490 . S
C3456 H3446 0.930 . S
C3456 C3455 1.400 . S
C3456 C3459 1.386 . S
H3457 C3473 0.930 . S
H3458 C3474 0.931 . S
C3459 H3447 0.929 . S
C3459 C3453 1.390 . S
C3459 C3456 1.386 . S
C3460 C3455 1.490 . S
C3460 C3462 1.395 . S
C3460 C3463 1.403 . S
H3461 C3467 0.930 . S
C3462 H3448 0.930 . S
C3462 C3460 1.395 . S
C3462 C3465 1.403 . S
C3463 C3460 1.403 . S
C3463 C3464 1.524 . S
C3463 C3467 1.400 . S
C3464 H3449 0.960 . S
C3464 H3450 0.960 . S
C3464 H3451 0.960 . S
C3464 C3463 1.524 . S
C3465 C3462 1.403 . S
C3465 C3466 1.392 . S
C3465 C3469 1.495 . S
C3466 C3465 1.392 . S
C3466 C3467 1.385 . S
C3466 C3468 1.478 . S
C3467 H3461 0.930 . S
C3467 C3463 1.400 . S
C3467 C3466 1.385 . S
C3468 C3466 1.478 . S
C3468 C3470 1.381 . S
C3468 C3474 1.383 . S
C3469 C3465 1.495 . S
C3469 H3475 0.959 . S
C3469 H3476 0.961 . S
C3469 H3477 0.960 . S
C3470 C3468 1.381 . S
C3470 C3471 1.394 . S
C3470 H3478 0.930 . S
C3471 C3470 1.394 . S
C3471 C3472 1.383 . S
C3471 H3479 0.929 . S
C3472 C3471 1.383 . S
C3472 C3473 1.377 . S
C3473 H3457 0.930 . S
C3473 C3472 1.377 . S
C3473 C3474 1.379 . S
C3474 H3458 0.931 . S
C3474 C3468 1.383 . S
C3474 C3473 1.379 . S
H3475 C3469 0.959 . S
H3476 C3469 0.961 . S
H3477 C3469 0.960 . S
H3478 C3470 0.930 . S
H3479 C3471 0.929 . S
H3480 C3488 0.929 . S
H3481 C3490 0.930 . S
H3482 C3492 0.930 . S
H3483 C3495 0.929 . S
H3484 C3498 0.930 . S
H3485 C3500 0.960 . S
H3486 C3500 0.960 . S
H3487 C3500 0.960 . S
C3488 H3480 0.929 . S
C3488 C3489 1.377 . S
C3488 C3490 1.384 . S
C3489 C3488 1.377 . S
C3489 C3495 1.390 . S
C3490 H3481 0.930 . S
C3490 C3488 1.384 . S
C3490 C3491 1.372 . S
C3491 C3490 1.372 . S
C3491 C3492 1.400 . S
C3491 C3496 1.490 . S
C3492 H3482 0.930 . S
C3492 C3491 1.400 . S
C3492 C3495 1.386 . S
H3493 C3509 0.930 . S
H3494 C3510 0.931 . S
C3495 H3483 0.929 . S
C3495 C3489 1.390 . S
C3495 C3492 1.386 . S
C3496 C3491 1.490 . S
C3496 C3498 1.395 . S
C3496 C3499 1.403 . S
H3497 C3503 0.930 . S
C3498 H3484 0.930 . S
C3498 C3496 1.395 . S
C3498 C3501 1.403 . S
C3499 C3496 1.403 . S
C3499 C3500 1.524 . S
C3499 C3503 1.400 . S
C3500 H3485 0.960 . S
C3500 H3486 0.960 . S
C3500 H3487 0.960 . S
C3500 C3499 1.524 . S
C3501 C3498 1.403 . S
C3501 C3502 1.392 . S
C3501 C3505 1.495 . S
C3502 C3501 1.392 . S
C3502 C3503 1.385 . S
C3502 C3504 1.478 . S
C3503 H3497 0.930 . S
C3503 C3499 1.400 . S
C3503 C3502 1.385 . S
C3504 C3502 1.478 . S
C3504 C3506 1.381 . S
C3504 C3510 1.383 . S
C3505 C3501 1.495 . S
C3505 H3511 0.959 . S
C3505 H3512 0.961 . S
C3505 H3513 0.960 . S
C3506 C3504 1.381 . S
C3506 C3507 1.394 . S
C3506 H3514 0.930 . S
C3507 C3506 1.394 . S
C3507 C3508 1.383 . S
C3507 H3515 0.929 . S
C3508 C3507 1.383 . S
C3508 C3509 1.377 . S
C3509 H3493 0.930 . S
C3509 C3508 1.377 . S
C3509 C3510 1.379 . S
C3510 H3494 0.931 . S
C3510 C3504 1.383 . S
C3510 C3509 1.379 . S
H3511 C3505 0.959 . S
H3512 C3505 0.961 . S
H3513 C3505 0.960 . S
H3514 C3506 0.930 . S
H3515 C3507 0.929 . S
H3516 C3524 0.929 . S
H3517 C3526 0.930 . S
H3518 C3528 0.930 . S
H3519 C3531 0.929 . S
H3520 C3534 0.930 . S
H3521 C3536 0.960 . S
H3522 C3536 0.960 . S
H3523 C3536 0.960 . S
C3524 H3516 0.929 . S
C3524 C3525 1.377 . S
C3524 C3526 1.384 . S
C3525 C3524 1.377 . S
C3525 C3531 1.390 . S
C3526 H3517 0.930 . S
C3526 C3524 1.384 . S
C3526 C3527 1.372 . S
C3527 C3526 1.372 . S
C3527 C3528 1.400 . S
C3527 C3532 1.490 . S
C3528 H3518 0.930 . S
C3528 C3527 1.400 . S
C3528 C3531 1.386 . S
H3529 C3545 0.930 . S
H3530 C3546 0.931 . S
C3531 H3519 0.929 . S
C3531 C3525 1.390 . S
C3531 C3528 1.386 . S
C3532 C3527 1.490 . S
C3532 C3534 1.395 . S
C3532 C3535 1.403 . S
H3533 C3539 0.930 . S
C3534 H3520 0.930 . S
C3534 C3532 1.395 . S
C3534 C3537 1.403 . S
C3535 C3532 1.403 . S
C3535 C3536 1.524 . S
C3535 C3539 1.400 . S
C3536 H3521 0.960 . S
C3536 H3522 0.960 . S
C3536 H3523 0.960 . S
C3536 C3535 1.524 . S
C3537 C3534 1.403 . S
C3537 C3538 1.392 . S
C3537 C3541 1.495 . S
C3538 C3537 1.392 . S
C3538 C3539 1.385 . S
C3538 C3540 1.478 . S
C3539 H3533 0.930 . S
C3539 C3535 1.400 . S
C3539 C3538 1.385 . S
C3540 C3538 1.478 . S
C3540 C3542 1.381 . S
C3540 C3546 1.383 . S
C3541 C3537 1.495 . S
C3541 H3547 0.959 . S
C3541 H3548 0.961 . S
C3541 H3549 0.960 . S
C3542 C3540 1.381 . S
C3542 C3543 1.394 . S
C3542 H3550 0.930 . S
C3543 C3542 1.394 . S
C3543 C3544 1.383 . S
C3543 H3551 0.929 . S
C3544 C3543 1.383 . S
C3544 C3545 1.377 . S
C3545 H3529 0.930 . S
C3545 C3544 1.377 . S
C3545 C3546 1.379 . S
C3546 H3530 0.931 . S
C3546 C3540 1.383 . S
C3546 C3545 1.379 . S
H3547 C3541 0.959 . S
H3548 C3541 0.961 . S
H3549 C3541 0.960 . S
H3550 C3542 0.930 . S
H3551 C3543 0.929 . S
H3552 C3560 0.929 . S
H3553 C3562 0.930 . S
H3554 C3564 0.930 . S
H3555 C3567 0.929 . S
H3556 C3570 0.930 . S
H3557 C3572 0.960 . S
H3558 C3572 0.960 . S
H3559 C3572 0.960 . S
C3560 H3552 0.929 . S
C3560 C3561 1.377 . S
C3560 C3562 1.384 . S
C3561 C3560 1.377 . S
C3561 C3567 1.390 . S
C3562 H3553 0.930 . S
C3562 C3560 1.384 . S
C3562 C3563 1.372 . S
C3563 C3562 1.372 . S
C3563 C3564 1.400 . S
C3563 C3568 1.490 . S
C3564 H3554 0.930 . S
C3564 C3563 1.400 . S
C3564 C3567 1.386 . S
H3565 C3581 0.930 . S
H3566 C3582 0.931 . S
C3567 H3555 0.929 . S
C3567 C3561 1.390 . S
C3567 C3564 1.386 . S
C3568 C3563 1.490 . S
C3568 C3570 1.395 . S
C3568 C3571 1.403 . S
H3569 C3575 0.930 . S
C3570 H3556 0.930 . S
C3570 C3568 1.395 . S
C3570 C3573 1.403 . S
C3571 C3568 1.403 . S
C3571 C3572 1.524 . S
C3571 C3575 1.400 . S
C3572 H3557 0.960 . S
C3572 H3558 0.960 . S
C3572 H3559 0.960 . S
C3572 C3571 1.524 . S
C3573 C3570 1.403 . S
C3573 C3574 1.392 . S
C3573 C3577 1.495 . S
C3574 C3573 1.392 . S
C3574 C3575 1.385 . S
C3574 C3576 1.478 . S
C3575 H3569 0.930 . S
C3575 C3571 1.400 . S
C3575 C3574 1.385 . S
C3576 C3574 1.478 . S
C3576 C3578 1.381 . S
C3576 C3582 1.383 . S
C3577 C3573 1.495 . S
C3577 H3583 0.959 . S
C3577 H3584 0.961 . S
C3577 H3585 0.960 . S
C3578 C3576 1.381 . S
C3578 C3579 1.394 . S
C3578 H3586 0.930 . S
C3579 C3578 1.394 . S
C3579 C3580 1.383 . S
C3579 H3587 0.929 . S
C3580 C3579 1.383 . S
C3580 C3581 1.377 . S
C3581 H3565 0.930 . S
C3581 C3580 1.377 . S
C3581 C3582 1.379 . S
C3582 H3566 0.931 . S
C3582 C3576 1.383 . S
C3582 C3581 1.379 . S
H3583 C3577 0.959 . S
H3584 C3577 0.961 . S
H3585 C3577 0.960 . S
H3586 C3578 0.930 . S
H3587 C3579 0.929 . S
H3588 C3596 0.929 . S
H3589 C3598 0.930 . S
H3590 C3600 0.930 . S
H3591 C3603 0.929 . S
H3592 C3606 0.930 . S
H3593 C3608 0.960 . S
H3594 C3608 0.960 . S
H3595 C3608 0.960 . S
C3596 H3588 0.929 . S
C3596 C3597 1.377 . S
C3596 C3598 1.384 . S
C3597 C3596 1.377 . S
C3597 C3603 1.390 . S
C3598 H3589 0.930 . S
C3598 C3596 1.384 . S
C3598 C3599 1.372 . S
C3599 C3598 1.372 . S
C3599 C3600 1.400 . S
C3599 C3604 1.490 . S
C3600 H3590 0.930 . S
C3600 C3599 1.400 . S
C3600 C3603 1.386 . S
H3601 C3617 0.930 . S
H3602 C3618 0.931 . S
C3603 H3591 0.929 . S
C3603 C3597 1.390 . S
C3603 C3600 1.386 . S
C3604 C3599 1.490 . S
C3604 C3606 1.395 . S
C3604 C3607 1.403 . S
H3605 C3611 0.930 . S
C3606 H3592 0.930 . S
C3606 C3604 1.395 . S
C3606 C3609 1.403 . S
C3607 C3604 1.403 . S
C3607 C3608 1.524 . S
C3607 C3611 1.400 . S
C3608 H3593 0.960 . S
C3608 H3594 0.960 . S
C3608 H3595 0.960 . S
C3608 C3607 1.524 . S
C3609 C3606 1.403 . S
C3609 C3610 1.392 . S
C3609 C3613 1.495 . S
C3610 C3609 1.392 . S
C3610 C3611 1.385 . S
C3610 C3612 1.478 . S
C3611 H3605 0.930 . S
C3611 C3607 1.400 . S
C3611 C3610 1.385 . S
C3612 C3610 1.478 . S
C3612 C3614 1.381 . S
C3612 C3618 1.383 . S
C3613 C3609 1.495 . S
C3613 H3619 0.959 . S
C3613 H3620 0.961 . S
C3613 H3621 0.960 . S
C3614 C3612 1.381 . S
C3614 C3615 1.394 . S
C3614 H3622 0.930 . S
C3615 C3614 1.394 . S
C3615 C3616 1.383 . S
C3615 H3623 0.929 . S
C3616 C3615 1.383 . S
C3616 C3617 1.377 . S
C3617 H3601 0.930 . S
C3617 C3616 1.377 . S
C3617 C3618 1.379 . S
C3618 H3602 0.931 . S
C3618 C3612 1.383 . S
C3618 C3617 1.379 . S
H3619 C3613 0.959 . S
H3620 C3613 0.961 . S
H3621 C3613 0.960 . S
H3622 C3614 0.930 . S
H3623 C3615 0.929 . S
H3624 C3632 0.929 . S
H3625 C3634 0.930 . S
H3626 C3636 0.930 . S
H3627 C3639 0.929 . S
H3628 C3642 0.930 . S
H3629 C3644 0.960 . S
H3630 C3644 0.960 . S
H3631 C3644 0.960 . S
C3632 H3624 0.929 . S
C3632 C3633 1.377 . S
C3632 C3634 1.384 . S
C3633 C3632 1.377 . S
C3633 C3639 1.390 . S
C3634 H3625 0.930 . S
C3634 C3632 1.384 . S
C3634 C3635 1.372 . S
C3635 C3634 1.372 . S
C3635 C3636 1.400 . S
C3635 C3640 1.490 . S
C3636 H3626 0.930 . S
C3636 C3635 1.400 . S
C3636 C3639 1.386 . S
H3637 C3653 0.930 . S
H3638 C3654 0.931 . S
C3639 H3627 0.929 . S
C3639 C3633 1.390 . S
C3639 C3636 1.386 . S
C3640 C3635 1.490 . S
C3640 C3642 1.395 . S
C3640 C3643 1.403 . S
H3641 C3647 0.930 . S
C3642 H3628 0.930 . S
C3642 C3640 1.395 . S
C3642 C3645 1.403 . S
C3643 C3640 1.403 . S
C3643 C3644 1.524 . S
C3643 C3647 1.400 . S
C3644 H3629 0.960 . S
C3644 H3630 0.960 . S
C3644 H3631 0.960 . S
C3644 C3643 1.524 . S
C3645 C3642 1.403 . S
C3645 C3646 1.392 . S
C3645 C3649 1.495 . S
C3646 C3645 1.392 . S
C3646 C3647 1.385 . S
C3646 C3648 1.478 . S
C3647 H3641 0.930 . S
C3647 C3643 1.400 . S
C3647 C3646 1.385 . S
C3648 C3646 1.478 . S
C3648 C3650 1.381 . S
C3648 C3654 1.383 . S
C3649 C3645 1.495 . S
C3649 H3655 0.959 . S
C3649 H3656 0.961 . S
C3649 H3657 0.960 . S
C3650 C3648 1.381 . S
C3650 C3651 1.394 . S
C3650 H3658 0.930 . S
C3651 C3650 1.394 . S
C3651 C3652 1.383 . S
C3651 H3659 0.929 . S
C3652 C3651 1.383 . S
C3652 C3653 1.377 . S
C3653 H3637 0.930 . S
C3653 C3652 1.377 . S
C3653 C3654 1.379 . S
C3654 H3638 0.931 . S
C3654 C3648 1.383 . S
C3654 C3653 1.379 . S
H3655 C3649 0.959 . S
H3656 C3649 0.961 . S
H3657 C3649 0.960 . S
H3658 C3650 0.930 . S
H3659 C3651 0.929 . S
H3660 C3668 0.929 . S
H3661 C3670 0.930 . S
H3662 C3672 0.930 . S
H3663 C3675 0.929 . S
H3664 C3678 0.930 . S
H3665 C3680 0.960 . S
H3666 C3680 0.960 . S
H3667 C3680 0.960 . S
C3668 H3660 0.929 . S
C3668 C3669 1.377 . S
C3668 C3670 1.384 . S
C3669 C3668 1.377 . S
C3669 C3675 1.390 . S
C3670 H3661 0.930 . S
C3670 C3668 1.384 . S
C3670 C3671 1.372 . S
C3671 C3670 1.372 . S
C3671 C3672 1.400 . S
C3671 C3676 1.490 . S
C3672 H3662 0.930 . S
C3672 C3671 1.400 . S
C3672 C3675 1.386 . S
H3673 C3689 0.930 . S
H3674 C3690 0.931 . S
C3675 H3663 0.929 . S
C3675 C3669 1.390 . S
C3675 C3672 1.386 . S
C3676 C3671 1.490 . S
C3676 C3678 1.395 . S
C3676 C3679 1.403 . S
H3677 C3683 0.930 . S
C3678 H3664 0.930 . S
C3678 C3676 1.395 . S
C3678 C3681 1.403 . S
C3679 C3676 1.403 . S
C3679 C3680 1.524 . S
C3679 C3683 1.400 . S
C3680 H3665 0.960 . S
C3680 H3666 0.960 . S
C3680 H3667 0.960 . S
C3680 C3679 1.524 . S
C3681 C3678 1.403 . S
C3681 C3682 1.392 . S
C3681 C3685 1.495 . S
C3682 C3681 1.392 . S
C3682 C3683 1.385 . S
C3682 C3684 1.478 . S
C3683 H3677 0.930 . S
C3683 C3679 1.400 . S
C3683 C3682 1.385 . S
C3684 C3682 1.478 . S
C3684 C3686 1.381 . S
C3684 C3690 1.383 . S
C3685 C3681 1.495 . S
C3685 H3691 0.959 . S
C3685 H3692 0.961 . S
C3685 H3693 0.960 . S
C3686 C3684 1.381 . S
C3686 C3687 1.394 . S
C3686 H3694 0.930 . S
C3687 C3686 1.394 . S
C3687 C3688 1.383 . S
C3687 H3695 0.929 . S
C3688 C3687 1.383 . S
C3688 C3689 1.377 . S
C3689 H3673 0.930 . S
C3689 C3688 1.377 . S
C3689 C3690 1.379 . S
C3690 H3674 0.931 . S
C3690 C3684 1.383 . S
C3690 C3689 1.379 . S
H3691 C3685 0.959 . S
H3692 C3685 0.961 . S
H3693 C3685 0.960 . S
H3694 C3686 0.930 . S
H3695 C3687 0.929 . S
H3696 C3704 0.929 . S
H3697 C3706 0.930 . S
H3698 C3708 0.930 . S
H3699 C3711 0.929 . S
H3700 C3714 0.930 . S
H3701 C3716 0.960 . S
H3702 C3716 0.960 . S
H3703 C3716 0.960 . S
C3704 H3696 0.929 . S
C3704 C3705 1.377 . S
C3704 C3706 1.384 . S
C3705 C3704 1.377 . S
C3705 C3711 1.390 . S
C3706 H3697 0.930 . S
C3706 C3704 1.384 . S
C3706 C3707 1.372 . S
C3707 C3706 1.372 . S
C3707 C3708 1.400 . S
C3707 C3712 1.490 . S
C3708 H3698 0.930 . S
C3708 C3707 1.400 . S
C3708 C3711 1.386 . S
H3709 C3725 0.930 . S
H3710 C3726 0.931 . S
C3711 H3699 0.929 . S
C3711 C3705 1.390 . S
C3711 C3708 1.386 . S
C3712 C3707 1.490 . S
C3712 C3714 1.395 . S
C3712 C3715 1.403 . S
H3713 C3719 0.930 . S
C3714 H3700 0.930 . S
C3714 C3712 1.395 . S
C3714 C3717 1.403 . S
C3715 C3712 1.403 . S
C3715 C3716 1.524 . S
C3715 C3719 1.400 . S
C3716 H3701 0.960 . S
C3716 H3702 0.960 . S
C3716 H3703 0.960 . S
C3716 C3715 1.524 . S
C3717 C3714 1.403 . S
C3717 C3718 1.392 . S
C3717 C3721 1.495 . S
C3718 C3717 1.392 . S
C3718 C3719 1.385 . S
C3718 C3720 1.478 . S
C3719 H3713 0.930 . S
C3719 C3715 1.400 . S
C3719 C3718 1.385 . S
C3720 C3718 1.478 . S
C3720 C3722 1.381 . S
C3720 C3726 1.383 . S
C3721 C3717 1.495 . S
C3721 H3727 0.959 . S
C3721 H3728 0.961 . S
C3721 H3729 0.960 . S
C3722 C3720 1.381 . S
C3722 C3723 1.394 . S
C3722 H3730 0.930 . S
C3723 C3722 1.394 . S
C3723 C3724 1.383 . S
C3723 H3731 0.929 . S
C3724 C3723 1.383 . S
C3724 C3725 1.377 . S
C3725 H3709 0.930 . S
C3725 C3724 1.377 . S
C3725 C3726 1.379 . S
C3726 H3710 0.931 . S
C3726 C3720 1.383 . S
C3726 C3725 1.379 . S
H3727 C3721 0.959 . S
H3728 C3721 0.961 . S
H3729 C3721 0.960 . S
H3730 C3722 0.930 . S
H3731 C3723 0.929 . S
H3732 C3740 0.929 . S
H3733 C3742 0.930 . S
H3734 C3744 0.930 . S
H3735 C3747 0.929 . S
H3736 C3750 0.930 . S
H3737 C3752 0.960 . S
H3738 C3752 0.960 . S
H3739 C3752 0.960 . S
C3740 H3732 0.929 . S
C3740 C3741 1.377 . S
C3740 C3742 1.384 . S
C3741 C3740 1.377 . S
C3741 C3747 1.390 . S
C3742 H3733 0.930 . S
C3742 C3740 1.384 . S
C3742 C3743 1.372 . S
C3743 C3742 1.372 . S
C3743 C3744 1.400 . S
C3743 C3748 1.490 . S
C3744 H3734 0.930 . S
C3744 C3743 1.400 . S
C3744 C3747 1.386 . S
H3745 C3761 0.930 . S
H3746 C3762 0.931 . S
C3747 H3735 0.929 . S
C3747 C3741 1.390 . S
C3747 C3744 1.386 . S
C3748 C3743 1.490 . S
C3748 C3750 1.395 . S
C3748 C3751 1.403 . S
H3749 C3755 0.930 . S
C3750 H3736 0.930 . S
C3750 C3748 1.395 . S
C3750 C3753 1.403 . S
C3751 C3748 1.403 . S
C3751 C3752 1.524 . S
C3751 C3755 1.400 . S
C3752 H3737 0.960 . S
C3752 H3738 0.960 . S
C3752 H3739 0.960 . S
C3752 C3751 1.524 . S
C3753 C3750 1.403 . S
C3753 C3754 1.392 . S
C3753 C3757 1.495 . S
C3754 C3753 1.392 . S
C3754 C3755 1.385 . S
C3754 C3756 1.478 . S
C3755 H3749 0.930 . S
C3755 C3751 1.400 . S
C3755 C3754 1.385 . S
C3756 C3754 1.478 . S
C3756 C3758 1.381 . S
C3756 C3762 1.383 . S
C3757 C3753 1.495 . S
C3757 H3763 0.959 . S
C3757 H3764 0.961 . S
C3757 H3765 0.960 . S
C3758 C3756 1.381 . S
C3758 C3759 1.394 . S
C3758 H3766 0.930 . S
C3759 C3758 1.394 . S
C3759 C3760 1.383 . S
C3759 H3767 0.929 . S
C3760 C3759 1.383 . S
C3760 C3761 1.377 . S
C3761 H3745 0.930 . S
C3761 C3760 1.377 . S
C3761 C3762 1.379 . S
C3762 H3746 0.931 . S
C3762 C3756 1.383 . S
C3762 C3761 1.379 . S
H3763 C3757 0.959 . S
H3764 C3757 0.961 . S
H3765 C3757 0.960 . S
H3766 C3758 0.930 . S
H3767 C3759 0.929 . S
H3768 C3776 0.929 . S
H3769 C3778 0.930 . S
H3770 C3780 0.930 . S
H3771 C3783 0.929 . S
H3772 C3786 0.930 . S
H3773 C3788 0.960 . S
H3774 C3788 0.960 . S
H3775 C3788 0.960 . S
C3776 H3768 0.929 . S
C3776 C3777 1.377 . S
C3776 C3778 1.384 . S
C3777 C3776 1.377 . S
C3777 C3783 1.390 . S
C3778 H3769 0.930 . S
C3778 C3776 1.384 . S
C3778 C3779 1.372 . S
C3779 C3778 1.372 . S
C3779 C3780 1.400 . S
C3779 C3784 1.490 . S
C3780 H3770 0.930 . S
C3780 C3779 1.400 . S
C3780 C3783 1.386 . S
H3781 C3797 0.930 . S
H3782 C3798 0.931 . S
C3783 H3771 0.929 . S
C3783 C3777 1.390 . S
C3783 C3780 1.386 . S
C3784 C3779 1.490 . S
C3784 C3786 1.395 . S
C3784 C3787 1.403 . S
H3785 C3791 0.930 . S
C3786 H3772 0.930 . S
C3786 C3784 1.395 . S
C3786 C3789 1.403 . S
C3787 C3784 1.403 . S
C3787 C3788 1.524 . S
C3787 C3791 1.400 . S
C3788 H3773 0.960 . S
C3788 H3774 0.960 . S
C3788 H3775 0.960 . S
C3788 C3787 1.524 . S
C3789 C3786 1.403 . S
C3789 C3790 1.392 . S
C3789 C3793 1.495 . S
C3790 C3789 1.392 . S
C3790 C3791 1.385 . S
C3790 C3792 1.478 . S
C3791 H3785 0.930 . S
C3791 C3787 1.400 . S
C3791 C3790 1.385 . S
C3792 C3790 1.478 . S
C3792 C3794 1.381 . S
C3792 C3798 1.383 . S
C3793 C3789 1.495 . S
C3793 H3799 0.959 . S
C3793 H3800 0.961 . S
C3793 H3801 0.960 . S
C3794 C3792 1.381 . S
C3794 C3795 1.394 . S
C3794 H3802 0.930 . S
C3795 C3794 1.394 . S
C3795 C3796 1.383 . S
C3795 H3803 0.929 . S
C3796 C3795 1.383 . S
C3796 C3797 1.377 . S
C3797 H3781 0.930 . S
C3797 C3796 1.377 . S
C3797 C3798 1.379 . S
C3798 H3782 0.931 . S
C3798 C3792 1.383 . S
C3798 C3797 1.379 . S
H3799 C3793 0.959 . S
H3800 C3793 0.961 . S
H3801 C3793 0.960 . S
H3802 C3794 0.930 . S
H3803 C3795 0.929 . S
H3804 C3812 0.929 . S
H3805 C3814 0.930 . S
H3806 C3816 0.930 . S
H3807 C3819 0.929 . S
H3808 C3822 0.930 . S
H3809 C3824 0.960 . S
H3810 C3824 0.960 . S
H3811 C3824 0.960 . S
C3812 H3804 0.929 . S
C3812 C3813 1.377 . S
C3812 C3814 1.384 . S
C3813 C3812 1.377 . S
C3813 C3819 1.390 . S
C3814 H3805 0.930 . S
C3814 C3812 1.384 . S
C3814 C3815 1.372 . S
C3815 C3814 1.372 . S
C3815 C3816 1.400 . S
C3815 C3820 1.490 . S
C3816 H3806 0.930 . S
C3816 C3815 1.400 . S
C3816 C3819 1.386 . S
H3817 C3833 0.930 . S
H3818 C3834 0.931 . S
C3819 H3807 0.929 . S
C3819 C3813 1.390 . S
C3819 C3816 1.386 . S
C3820 C3815 1.490 . S
C3820 C3822 1.395 . S
C3820 C3823 1.403 . S
H3821 C3827 0.930 . S
C3822 H3808 0.930 . S
C3822 C3820 1.395 . S
C3822 C3825 1.403 . S
C3823 C3820 1.403 . S
C3823 C3824 1.524 . S
C3823 C3827 1.400 . S
C3824 H3809 0.960 . S
C3824 H3810 0.960 . S
C3824 H3811 0.960 . S
C3824 C3823 1.524 . S
C3825 C3822 1.403 . S
C3825 C3826 1.392 . S
C3825 C3829 1.495 . S
C3826 C3825 1.392 . S
C3826 C3827 1.385 . S
C3826 C3828 1.478 . S
C3827 H3821 0.930 . S
C3827 C3823 1.400 . S
C3827 C3826 1.385 . S
C3828 C3826 1.478 . S
C3828 C3830 1.381 . S
C3828 C3834 1.383 . S
C3829 C3825 1.495 . S
C3829 H3835 0.959 . S
C3829 H3836 0.961 . S
C3829 H3837 0.960 . S
C3830 C3828 1.381 . S
C3830 C3831 1.394 . S
C3830 H3838 0.930 . S
C3831 C3830 1.394 . S
C3831 C3832 1.383 . S
C3831 H3839 0.929 . S
C3832 C3831 1.383 . S
C3832 C3833 1.377 . S
C3833 H3817 0.930 . S
C3833 C3832 1.377 . S
C3833 C3834 1.379 . S
C3834 H3818 0.931 . S
C3834 C3828 1.383 . S
C3834 C3833 1.379 . S
H3835 C3829 0.959 . S
H3836 C3829 0.961 . S
H3837 C3829 0.960 . S
H3838 C3830 0.930 . S
H3839 C3831 0.929 . S
H3840 C3848 0.929 . S
H3841 C3850 0.930 . S
H3842 C3852 0.930 . S
H3843 C3855 0.929 . S
H3844 C3858 0.930 . S
H3845 C3860 0.960 . S
H3846 C3860 0.960 . S
H3847 C3860 0.960 . S
C3848 H3840 0.929 . S
C3848 C3849 1.377 . S
C3848 C3850 1.384 . S
C3849 C3848 1.377 . S
C3849 C3855 1.390 . S
C3850 H3841 0.930 . S
C3850 C3848 1.384 . S
C3850 C3851 1.372 . S
C3851 C3850 1.372 . S
C3851 C3852 1.400 . S
C3851 C3856 1.490 . S
C3852 H3842 0.930 . S
C3852 C3851 1.400 . S
C3852 C3855 1.386 . S
H3853 C3869 0.930 . S
H3854 C3870 0.931 . S
C3855 H3843 0.929 . S
C3855 C3849 1.390 . S
C3855 C3852 1.386 . S
C3856 C3851 1.490 . S
C3856 C3858 1.395 . S
C3856 C3859 1.403 . S
H3857 C3863 0.930 . S
C3858 H3844 0.930 . S
C3858 C3856 1.395 . S
C3858 C3861 1.403 . S
C3859 C3856 1.403 . S
C3859 C3860 1.524 . S
C3859 C3863 1.400 . S
C3860 H3845 0.960 . S
C3860 H3846 0.960 . S
C3860 H3847 0.960 . S
C3860 C3859 1.524 . S
C3861 C3858 1.403 . S
C3861 C3862 1.392 . S
C3861 C3865 1.495 . S
C3862 C3861 1.392 . S
C3862 C3863 1.385 . S
C3862 C3864 1.478 . S
C3863 H3857 0.930 . S
C3863 C3859 1.400 . S
C3863 C3862 1.385 . S
C3864 C3862 1.478 . S
C3864 C3866 1.381 . S
C3864 C3870 1.383 . S
C3865 C3861 1.495 . S
C3865 H3871 0.959 . S
C3865 H3872 0.961 . S
C3865 H3873 0.960 . S
C3866 C3864 1.381 . S
C3866 C3867 1.394 . S
C3866 H3874 0.930 . S
C3867 C3866 1.394 . S
C3867 C3868 1.383 . S
C3867 H3875 0.929 . S
C3868 C3867 1.383 . S
C3868 C3869 1.377 . S
C3869 H3853 0.930 . S
C3869 C3868 1.377 . S
C3869 C3870 1.379 . S
C3870 H3854 0.931 . S
C3870 C3864 1.383 . S
C3870 C3869 1.379 . S
H3871 C3865 0.959 . S
H3872 C3865 0.961 . S
H3873 C3865 0.960 . S
H3874 C3866 0.930 . S
H3875 C3867 0.929 . S
H3876 C3884 0.929 . S
H3877 C3886 0.930 . S
H3878 C3888 0.930 . S
H3879 C3891 0.929 . S
H3880 C3894 0.930 . S
H3881 C3896 0.960 . S
H3882 C3896 0.960 . S
H3883 C3896 0.960 . S
C3884 H3876 0.929 . S
C3884 C3885 1.377 . S
C3884 C3886 1.384 . S
C3885 C3884 1.377 . S
C3885 C3891 1.390 . S
C3886 H3877 0.930 . S
C3886 C3884 1.384 . S
C3886 C3887 1.372 . S
C3887 C3886 1.372 . S
C3887 C3888 1.400 . S
C3887 C3892 1.490 . S
C3888 H3878 0.930 . S
C3888 C3887 1.400 . S
C3888 C3891 1.386 . S
H3889 C3905 0.930 . S
H3890 C3906 0.931 . S
C3891 H3879 0.929 . S
C3891 C3885 1.390 . S
C3891 C3888 1.386 . S
C3892 C3887 1.490 . S
C3892 C3894 1.395 . S
C3892 C3895 1.403 . S
H3893 C3899 0.930 . S
C3894 H3880 0.930 . S
C3894 C3892 1.395 . S
C3894 C3897 1.403 . S
C3895 C3892 1.403 . S
C3895 C3896 1.524 . S
C3895 C3899 1.400 . S
C3896 H3881 0.960 . S
C3896 H3882 0.960 . S
C3896 H3883 0.960 . S
C3896 C3895 1.524 . S
C3897 C3894 1.403 . S
C3897 C3898 1.392 . S
C3897 C3901 1.495 . S
C3898 C3897 1.392 . S
C3898 C3899 1.385 . S
C3898 C3900 1.478 . S
C3899 H3893 0.930 . S
C3899 C3895 1.400 . S
C3899 C3898 1.385 . S
C3900 C3898 1.478 . S
C3900 C3902 1.381 . S
C3900 C3906 1.383 . S
C3901 C3897 1.495 . S
C3901 H3907 0.959 . S
C3901 H3908 0.961 . S
C3901 H3909 0.960 . S
C3902 C3900 1.381 . S
C3902 C3903 1.394 . S
C3902 H3910 0.930 . S
C3903 C3902 1.394 . S
C3903 C3904 1.383 . S
C3903 H3911 0.929 . S
C3904 C3903 1.383 . S
C3904 C3905 1.377 . S
C3905 H3889 0.930 . S
C3905 C3904 1.377 . S
C3905 C3906 1.379 . S
C3906 H3890 0.931 . S
C3906 C3900 1.383 . S
C3906 C3905 1.379 . S
H3907 C3901 0.959 . S
H3908 C3901 0.961 . S
H3909 C3901 0.960 . S
H3910 C3902 0.930 . S
H3911 C3903 0.929 . S
H3912 C3920 0.929 . S
H3913 C3922 0.930 . S
H3914 C3924 0.930 . S
H3915 C3927 0.929 . S
H3916 C3930 0.930 . S
H3917 C3932 0.960 . S
H3918 C3932 0.960 . S
H3919 C3932 0.960 . S
C3920 H3912 0.929 . S
C3920 C3921 1.377 . S
C3920 C3922 1.384 . S
C3921 C3920 1.377 . S
C3921 C3927 1.390 . S
C3922 H3913 0.930 . S
C3922 C3920 1.384 . S
C3922 C3923 1.372 . S
C3923 C3922 1.372 . S
C3923 C3924 1.400 . S
C3923 C3928 1.490 . S
C3924 H3914 0.930 . S
C3924 C3923 1.400 . S
C3924 C3927 1.386 . S
H3925 C3941 0.930 . S
H3926 C3942 0.931 . S
C3927 H3915 0.929 . S
C3927 C3921 1.390 . S
C3927 C3924 1.386 . S
C3928 C3923 1.490 . S
C3928 C3930 1.395 . S
C3928 C3931 1.403 . S
H3929 C3935 0.930 . S
C3930 H3916 0.930 . S
C3930 C3928 1.395 . S
C3930 C3933 1.403 . S
C3931 C3928 1.403 . S
C3931 C3932 1.524 . S
C3931 C3935 1.400 . S
C3932 H3917 0.960 . S
C3932 H3918 0.960 . S
C3932 H3919 0.960 . S
C3932 C3931 1.524 . S
C3933 C3930 1.403 . S
C3933 C3934 1.392 . S
C3933 C3937 1.495 . S
C3934 C3933 1.392 . S
C3934 C3935 1.385 . S
C3934 C3936 1.478 . S
C3935 H3929 0.930 . S
C3935 C3931 1.400 . S
C3935 C3934 1.385 . S
C3936 C3934 1.478 . S
C3936 C3938 1.381 . S
C3936 C3942 1.383 . S
C3937 C3933 1.495 . S
C3937 H3943 0.959 . S
C3937 H3944 0.961 . S
C3937 H3945 0.960 . S
C3938 C3936 1.381 . S
C3938 C3939 1.394 . S
C3938 H3946 0.930 . S
C3939 C3938 1.394 . S
C3939 C3940 1.383 . S
C3939 H3947 0.929 . S
C3940 C3939 1.383 . S
C3940 C3941 1.377 . S
C3941 H3925 0.930 . S
C3941 C3940 1.377 . S
C3941 C3942 1.379 . S
C3942 H3926 0.931 . S
C3942 C3936 1.383 . S
C3942 C3941 1.379 . S
H3943 C3937 0.959 . S
H3944 C3937 0.961 . S
H3945 C3937 0.960 . S
H3946 C3938 0.930 . S
H3947 C3939 0.929 . S
H3948 C3956 0.929 . S
H3949 C3958 0.930 . S
H3950 C3960 0.930 . S
H3951 C3963 0.929 . S
H3952 C3966 0.930 . S
H3953 C3968 0.960 . S
H3954 C3968 0.960 . S
H3955 C3968 0.960 . S
C3956 H3948 0.929 . S
C3956 C3957 1.377 . S
C3956 C3958 1.384 . S
C3957 C3956 1.377 . S
C3957 C3963 1.390 . S
C3958 H3949 0.930 . S
C3958 C3956 1.384 . S
C3958 C3959 1.372 . S
C3959 C3958 1.372 . S
C3959 C3960 1.400 . S
C3959 C3964 1.490 . S
C3960 H3950 0.930 . S
C3960 C3959 1.400 . S
C3960 C3963 1.386 . S
H3961 C3977 0.930 . S
H3962 C3978 0.931 . S
C3963 H3951 0.929 . S
C3963 C3957 1.390 . S
C3963 C3960 1.386 . S
C3964 C3959 1.490 . S
C3964 C3966 1.395 . S
C3964 C3967 1.403 . S
H3965 C3971 0.930 . S
C3966 H3952 0.930 . S
C3966 C3964 1.395 . S
C3966 C3969 1.403 . S
C3967 C3964 1.403 . S
C3967 C3968 1.524 . S
C3967 C3971 1.400 . S
C3968 H3953 0.960 . S
C3968 H3954 0.960 . S
C3968 H3955 0.960 . S
C3968 C3967 1.524 . S
C3969 C3966 1.403 . S
C3969 C3970 1.392 . S
C3969 C3973 1.495 . S
C3970 C3969 1.392 . S
C3970 C3971 1.385 . S
C3970 C3972 1.478 . S
C3971 H3965 0.930 . S
C3971 C3967 1.400 . S
C3971 C3970 1.385 . S
C3972 C3970 1.478 . S
C3972 C3974 1.381 . S
C3972 C3978 1.383 . S
C3973 C3969 1.495 . S
C3973 H3979 0.959 . S
C3973 H3980 0.961 . S
C3973 H3981 0.960 . S
C3974 C3972 1.381 . S
C3974 C3975 1.394 . S
C3974 H3982 0.930 . S
C3975 C3974 1.394 . S
C3975 C3976 1.383 . S
C3975 H3983 0.929 . S
C3976 C3975 1.383 . S
C3976 C3977 1.377 . S
C3977 H3961 0.930 . S
C3977 C3976 1.377 . S
C3977 C3978 1.379 . S
C3978 H3962 0.931 . S
C3978 C3972 1.383 . S
C3978 C3977 1.379 . S
H3979 C3973 0.959 . S
H3980 C3973 0.961 . S
H3981 C3973 0.960 . S
H3982 C3974 0.930 . S
H3983 C3975 0.929 . S
H3984 C3992 0.929 . S
H3985 C3994 0.930 . S
H3986 C3996 0.930 . S
H3987 C3999 0.929 . S
H3988 C4002 0.930 . S
H3989 C4004 0.960 . S
H3990 C4004 0.960 . S
H3991 C4004 0.960 . S
C3992 H3984 0.929 . S
C3992 C3993 1.377 . S
C3992 C3994 1.384 . S
C3993 C3992 1.377 . S
C3993 C3999 1.390 . S
C3994 H3985 0.930 . S
C3994 C3992 1.384 . S
C3994 C3995 1.372 . S
C3995 C3994 1.372 . S
C3995 C3996 1.400 . S
C3995 C4000 1.490 . S
C3996 H3986 0.930 . S
C3996 C3995 1.400 . S
C3996 C3999 1.386 . S
H3997 C4013 0.930 . S
H3998 C4014 0.931 . S
C3999 H3987 0.929 . S
C3999 C3993 1.390 . S
C3999 C3996 1.386 . S
C4000 C3995 1.490 . S
C4000 C4002 1.395 . S
C4000 C4003 1.403 . S
H4001 C4007 0.930 . S
C4002 H3988 0.930 . S
C4002 C4000 1.395 . S
C4002 C4005 1.403 . S
C4003 C4000 1.403 . S
C4003 C4004 1.524 . S
C4003 C4007 1.400 . S
C4004 H3989 0.960 . S
C4004 H3990 0.960 . S
C4004 H3991 0.960 . S
C4004 C4003 1.524 . S
C4005 C4002 1.403 . S
C4005 C4006 1.392 . S
C4005 C4009 1.495 . S
C4006 C4005 1.392 . S
C4006 C4007 1.385 . S
C4006 C4008 1.478 . S
C4007 H4001 0.930 . S
C4007 C4003 1.400 . S
C4007 C4006 1.385 . S
C4008 C4006 1.478 . S
C4008 C4010 1.381 . S
C4008 C4014 1.383 . S
C4009 C4005 1.495 . S
C4009 H4015 0.959 . S
C4009 H4016 0.961 . S
C4009 H4017 0.960 . S
C4010 C4008 1.381 . S
C4010 C4011 1.394 . S
C4010 H4018 0.930 . S
C4011 C4010 1.394 . S
C4011 C4012 1.383 . S
C4011 H4019 0.929 . S
C4012 C4011 1.383 . S
C4012 C4013 1.377 . S
C4013 H3997 0.930 . S
C4013 C4012 1.377 . S
C4013 C4014 1.379 . S
C4014 H3998 0.931 . S
C4014 C4008 1.383 . S
C4014 C4013 1.379 . S
H4015 C4009 0.959 . S
H4016 C4009 0.961 . S
H4017 C4009 0.960 . S
H4018 C4010 0.930 . S
H4019 C4011 0.929 . S
H4020 C4028 0.929 . S
H4021 C4030 0.930 . S
H4022 C4032 0.930 . S
H4023 C4035 0.929 . S
H4024 C4038 0.930 . S
H4025 C4040 0.960 . S
H4026 C4040 0.960 . S
H4027 C4040 0.960 . S
C4028 H4020 0.929 . S
C4028 C4029 1.377 . S
C4028 C4030 1.384 . S
C4029 C4028 1.377 . S
C4029 C4035 1.390 . S
C4030 H4021 0.930 . S
C4030 C4028 1.384 . S
C4030 C4031 1.372 . S
C4031 C4030 1.372 . S
C4031 C4032 1.400 . S
C4031 C4036 1.490 . S
C4032 H4022 0.930 . S
C4032 C4031 1.400 . S
C4032 C4035 1.386 . S
H4033 C4049 0.930 . S
H4034 C4050 0.931 . S
C4035 H4023 0.929 . S
C4035 C4029 1.390 . S
C4035 C4032 1.386 . S
C4036 C4031 1.490 . S
C4036 C4038 1.395 . S
C4036 C4039 1.403 . S
H4037 C4043 0.930 . S
C4038 H4024 0.930 . S
C4038 C4036 1.395 . S
C4038 C4041 1.403 . S
C4039 C4036 1.403 . S
C4039 C4040 1.524 . S
C4039 C4043 1.400 . S
C4040 H4025 0.960 . S
C4040 H4026 0.960 . S
C4040 H4027 0.960 . S
C4040 C4039 1.524 . S
C4041 C4038 1.403 . S
C4041 C4042 1.392 . S
C4041 C4045 1.495 . S
C4042 C4041 1.392 . S
C4042 C4043 1.385 . S
C4042 C4044 1.478 . S
C4043 H4037 0.930 . S
C4043 C4039 1.400 . S
C4043 C4042 1.385 . S
C4044 C4042 1.478 . S
C4044 C4046 1.381 . S
C4044 C4050 1.383 . S
C4045 C4041 1.495 . S
C4045 H4051 0.959 . S
C4045 H4052 0.961 . S
C4045 H4053 0.960 . S
C4046 C4044 1.381 . S
C4046 C4047 1.394 . S
C4046 H4054 0.930 . S
C4047 C4046 1.394 . S
C4047 C4048 1.383 . S
C4047 H4055 0.929 . S
C4048 C4047 1.383 . S
C4048 C4049 1.377 . S
C4049 H4033 0.930 . S
C4049 C4048 1.377 . S
C4049 C4050 1.379 . S
C4050 H4034 0.931 . S
C4050 C4044 1.383 . S
C4050 C4049 1.379 . S
H4051 C4045 0.959 . S
H4052 C4045 0.961 . S
H4053 C4045 0.960 . S
H4054 C4046 0.930 . S
H4055 C4047 0.929 . S
H4056 C4064 0.929 . S
H4057 C4066 0.930 . S
H4058 C4068 0.930 . S
H4059 C4071 0.929 . S
H4060 C4074 0.930 . S
H4061 C4076 0.960 . S
H4062 C4076 0.960 . S
H4063 C4076 0.960 . S
C4064 H4056 0.929 . S
C4064 C4065 1.377 . S
C4064 C4066 1.384 . S
C4065 C4064 1.377 . S
C4065 C4071 1.390 . S
C4066 H4057 0.930 . S
C4066 C4064 1.384 . S
C4066 C4067 1.372 . S
C4067 C4066 1.372 . S
C4067 C4068 1.400 . S
C4067 C4072 1.490 . S
C4068 H4058 0.930 . S
C4068 C4067 1.400 . S
C4068 C4071 1.386 . S
H4069 C4085 0.930 . S
H4070 C4086 0.931 . S
C4071 H4059 0.929 . S
C4071 C4065 1.390 . S
C4071 C4068 1.386 . S
C4072 C4067 1.490 . S
C4072 C4074 1.395 . S
C4072 C4075 1.403 . S
H4073 C4079 0.930 . S
C4074 H4060 0.930 . S
C4074 C4072 1.395 . S
C4074 C4077 1.403 . S
C4075 C4072 1.403 . S
C4075 C4076 1.524 . S
C4075 C4079 1.400 . S
C4076 H4061 0.960 . S
C4076 H4062 0.960 . S
C4076 H4063 0.960 . S
C4076 C4075 1.524 . S
C4077 C4074 1.403 . S
C4077 C4078 1.392 . S
C4077 C4081 1.495 . S
C4078 C4077 1.392 . S
C4078 C4079 1.385 . S
C4078 C4080 1.478 . S
C4079 H4073 0.930 . S
C4079 C4075 1.400 . S
C4079 C4078 1.385 . S
C4080 C4078 1.478 . S
C4080 C4082 1.381 . S
C4080 C4086 1.383 . S
C4081 C4077 1.495 . S
C4081 H4087 0.959 . S
C4081 H4088 0.961 . S
C4081 H4089 0.960 . S
C4082 C4080 1.381 . S
C4082 C4083 1.394 . S
C4082 H4090 0.930 . S
C4083 C4082 1.394 . S
C4083 C4084 1.383 . S
C4083 H4091 0.929 . S
C4084 C4083 1.383 . S
C4084 C4085 1.377 . S
C4085 H4069 0.930 . S
C4085 C4084 1.377 . S
C4085 C4086 1.379 . S
C4086 H4070 0.931 . S
C4086 C4080 1.383 . S
C4086 C4085 1.379 . S
H4087 C4081 0.959 . S
H4088 C4081 0.961 . S
H4089 C4081 0.960 . S
H4090 C4082 0.930 . S
H4091 C4083 0.929 . S
H4092 C4100 0.929 . S
H4093 C4102 0.930 . S
H4094 C4104 0.930 . S
H4095 C4107 0.929 . S
H4096 C4110 0.930 . S
H4097 C4112 0.960 . S
H4098 C4112 0.960 . S
H4099 C4112 0.960 . S
C4100 H4092 0.929 . S
C4100 C4101 1.377 . S
C4100 C4102 1.384 . S
C4101 C4100 1.377 . S
C4101 C4107 1.390 . S
C4102 H4093 0.930 . S
C4102 C4100 1.384 . S
C4102 C4103 1.372 . S
C4103 C4102 1.372 . S
C4103 C4104 1.400 . S
C4103 C4108 1.490 . S
C4104 H4094 0.930 . S
C4104 C4103 1.400 . S
C4104 C4107 1.386 . S
H4105 C4121 0.930 . S
H4106 C4122 0.931 . S
C4107 H4095 0.929 . S
C4107 C4101 1.390 . S
C4107 C4104 1.386 . S
C4108 C4103 1.490 . S
C4108 C4110 1.395 . S
C4108 C4111 1.403 . S
H4109 C4115 0.930 . S
C4110 H4096 0.930 . S
C4110 C4108 1.395 . S
C4110 C4113 1.403 . S
C4111 C4108 1.403 . S
C4111 C4112 1.524 . S
C4111 C4115 1.400 . S
C4112 H4097 0.960 . S
C4112 H4098 0.960 . S
C4112 H4099 0.960 . S
C4112 C4111 1.524 . S
C4113 C4110 1.403 . S
C4113 C4114 1.392 . S
C4113 C4117 1.495 . S
C4114 C4113 1.392 . S
C4114 C4115 1.385 . S
C4114 C4116 1.478 . S
C4115 H4109 0.930 . S
C4115 C4111 1.400 . S
C4115 C4114 1.385 . S
C4116 C4114 1.478 . S
C4116 C4118 1.381 . S
C4116 C4122 1.383 . S
C4117 C4113 1.495 . S
C4117 H4123 0.959 . S
C4117 H4124 0.961 . S
C4117 H4125 0.960 . S
C4118 C4116 1.381 . S
C4118 C4119 1.394 . S
C4118 H4126 0.930 . S
C4119 C4118 1.394 . S
C4119 C4120 1.383 . S
C4119 H4127 0.929 . S
C4120 C4119 1.383 . S
C4120 C4121 1.377 . S
C4121 H4105 0.930 . S
C4121 C4120 1.377 . S
C4121 C4122 1.379 . S
C4122 H4106 0.931 . S
C4122 C4116 1.383 . S
C4122 C4121 1.379 . S
H4123 C4117 0.959 . S
H4124 C4117 0.961 . S
H4125 C4117 0.960 . S
H4126 C4118 0.930 . S
H4127 C4119 0.929 . S
C681 C42 1.499 . S
C700 C1 1.499 . S
C717 C13 1.499 . S
C736 C26 1.491 . S
C753 C28 1.499 . S
C772 C15 1.492 . S
C789 C40 1.499 . S
C808 C55 1.494 . S
C825 C56 1.498 . S
C844 C71 1.494 . S
C861 C96 1.498 . S
C880 C83 1.499 . S
C897 C85 1.499 . S
C916 C98 1.491 . S
C933 C69 1.499 . S
C952 C110 1.492 . S
C969 C125 1.499 . S
C988 C264 1.499 . S
C1005 C278 1.498 . S
C1024 C139 1.499 . S
C1041 C292 1.499 . S
C1060 C153 1.495 . S
C1077 C250 1.499 . S
C1096 C167 1.498 . S
C1113 C321 1.498 . S
C1132 C180 1.495 . S
C1149 C194 1.499 . S
C1168 C237 1.494 . S
C1185 C335 1.498 . S
C1204 C208 1.491 . S
C1221 C222 1.499 . S
C1240 C307 1.496 . S
C1257 C225 1.499 . S
C1276 C126 1.494 . S
C1293 C239 1.499 . S
C1312 C210 1.495 . S
C1329 C168 1.498 . S
C1348 C253 1.499 . S
C1365 C183 1.498 . S
C1384 C266 1.492 . S
C1401 C197 1.499 . S
C1420 C280 1.500 . S
C1437 C155 1.499 . S
C1456 C294 1.500 . S
C1473 C113 1.498 . S
C1492 C308 1.492 . S
C1509 C323 1.499 . S
C1528 C140 1.500 . S
C1545 C378 1.499 . S
C1564 C337 1.493 . S
C1581 C349 1.499 . S
C1600 C362 1.494 . S
C1617 C364 1.499 . S
C1636 C351 1.498 . S
C1653 C376 1.499 . S
C1672 C391 1.495 . S
C1689 C407 1.499 . S
C1708 C392 1.497 . S
C1725 C419 1.499 . S
C1744 C432 1.498 . S
C1761 C434 1.498 . S
C1780 C421 1.494 . S
C1797 C405 1.498 . S
C1816 C446 1.497 . S
C1833 C600 1.498 . S
C1852 C461 1.491 . S
C1869 C475 1.499 . S
C1888 C614 1.499 . S
C1905 C628 1.499 . S
C1924 C489 1.498 . S
C1941 C503 1.499 . S
C1960 C586 1.497 . S
C1977 C516 1.498 . S
C1996 C657 1.499 . S
C2013 C573 1.498 . S
C2032 C530 1.491 . S
C2049 C671 1.498 . S
C2068 C544 1.491 . S
C2085 C643 1.499 . S
C2104 C558 1.494 . S
C2121 C462 1.499 . S
C2140 C561 1.500 . S
C2157 C546 1.499 . S
C2176 C575 1.496 . S
C2193 C589 1.498 . S
C2212 C504 1.495 . S
C2229 C602 1.498 . S
C2248 C519 1.495 . S
C2265 C533 1.498 . S
C2284 C616 1.499 . S
C2301 C630 1.499 . S
C2320 C491 1.496 . S
C2337 C644 1.498 . S
C2356 C449 1.491 . S
C2373 C659 1.498 . S
C2392 C476 1.499 . S
C2409 C0 1.499 . S
C2428 C617 1.500 . S
C2445 C27 1.497 . S
C2464 C574 1.492 . S
C2481 C29 1.499 . S
C2500 C588 1.491 . S
C2517 C54 1.499 . S
C2536 C603 1.492 . S
C2553 C57 1.499 . S
C2572 C658 1.496 . S
C2589 C82 1.498 . S
C2608 C631 1.494 . S
C2625 C84 1.498 . S
C2644 C645 1.493 . S
C2661 C560 1.498 . S
C2680 C111 1.492 . S
C2697 C124 1.498 . S
C2716 C559 1.496 . S
C2733 C517 1.499 . S
C2752 C138 1.495 . S
C2769 C152 1.499 . S
C2788 C531 1.495 . S
C2805 C166 1.498 . S
C2824 C545 1.497 . S
C2841 C181 1.499 . S
C2860 C474 1.490 . S
C2877 C195 1.497 . S
C2896 C488 1.491 . S
C2913 C502 1.498 . S
C2932 C209 1.500 . S
C2949 C223 1.499 . S
C2968 C460 1.500 . S
C2985 C224 1.497 . S
C3004 C447 1.492 . S
C3021 C238 1.499 . S
C3040 C363 1.496 . S
C3057 C252 1.499 . S
C3076 C365 1.496 . S
C3093 C267 1.498 . S
C3112 C390 1.499 . S
C3129 C336 1.498 . S
C3148 C281 1.498 . S
C3165 C295 1.499 . S
C3184 C418 1.497 . S
C3201 C420 1.498 . S
C3220 C309 1.492 . S
C3237 C393 1.498 . S
C3256 C322 1.499 . S
C3273 C448 1.498 . S
C3292 C99 1.496 . S
C3309 C68 1.499 . S
C3328 C463 1.492 . S
C3345 C477 1.499 . S
C3364 C70 1.499 . S
C3381 C490 1.498 . S
C3400 C97 1.496 . S
C3417 C505 1.498 . S
C3436 C14 1.498 . S
C3453 C41 1.499 . S
C3472 C518 1.500 . S
C3489 C532 1.499 . S
C3508 C43 1.492 . S
C3525 C547 1.499 . S
C3544 C12 1.493 . S
C3561 C572 1.499 . S
C3580 C293 1.494 . S
C3597 C251 1.499 . S
C3616 C670 1.495 . S
C3633 C265 1.499 . S
C3652 C642 1.493 . S
C3669 C656 1.498 . S
C3688 C279 1.496 . S
C3705 C587 1.497 . S
C3724 C334 1.490 . S
C3741 C601 1.498 . S
C3760 C306 1.498 . S
C3777 C320 1.498 . S
C3796 C615 1.491 . S
C3813 C629 1.499 . S
C3832 C236 1.491 . S
C3849 C348 1.498 . S
C3868 C211 1.499 . S
C3885 C404 1.499 . S
C3904 C127 1.491 . S
C3921 C406 1.499 . S
C3940 C141 1.499 . S
C3957 C154 1.498 . S
C3976 C433 1.494 . S
C3993 C112 1.499 . S
C4012 C435 1.492 . S
C4029 C377 1.499 . S
C4048 C182 1.498 . S
C4065 C196 1.498 . S
C4084 C379 1.499 . S
C4101 C350 1.498 . S
C4120 C169 1.497 . S
