# Generated by pormake.
# Topology wip, (6)-cn, num edge types: 1
# Building blocks:
#     Node 0, Type 0, BuildingBlock: BETGAK_clean_sbu_0, # of connection points: 6
#     Node 1, Type 0, BuildingBlock: BETGAK_clean_sbu_0, # of connection points: 6
#     Node 2, Type 0, BuildingBlock: BETGAK_clean_sbu_0, # of connection points: 6
#     Node 3, Type 0, BuildingBlock: BETGAK_clean_sbu_0, # of connection points: 6
#     Node 4, Type 0, BuildingBlock: BETGAK_clean_sbu_0, # of connection points: 6
#     Node 5, Type 0, BuildingBlock: BETGAK_clean_sbu_0, # of connection points: 6
#     Node 6, Type 0, BuildingBlock: BETGAK_clean_sbu_0, # of connection points: 6
#     Node 7, Type 0, BuildingBlock: BETGAK_clean_sbu_0, # of connection points: 6
#     Node 8, Type 0, BuildingBlock: BETGAK_clean_sbu_0, # of connection points: 6
#     Node 9, Type 0, BuildingBlock: BETGAK_clean_sbu_0, # of connection points: 6
#     Node 10, Type 0, BuildingBlock: BETGAK_clean_sbu_0, # of connection points: 6
#     Node 11, Type 0, BuildingBlock: BETGAK_clean_sbu_0, # of connection points: 6
#     Node 12, Type 0, BuildingBlock: BETGAK_clean_sbu_0, # of connection points: 6
#     Node 13, Type 0, BuildingBlock: BETGAK_clean_sbu_0, # of connection points: 6
#     Node 14, Type 0, BuildingBlock: BETGAK_clean_sbu_0, # of connection points: 6
#     Node 15, Type 0, BuildingBlock: BETGAK_clean_sbu_0, # of connection points: 6
#     Node 16, Type 0, BuildingBlock: BETGAK_clean_sbu_0, # of connection points: 6
#     Node 17, Type 0, BuildingBlock: BETGAK_clean_sbu_0, # of connection points: 6
#     Node 18, Type 0, BuildingBlock: BETGAK_clean_sbu_0, # of connection points: 6
#     Node 19, Type 0, BuildingBlock: BETGAK_clean_sbu_0, # of connection points: 6
#     Node 20, Type 0, BuildingBlock: BETGAK_clean_sbu_0, # of connection points: 6
#     Node 21, Type 0, BuildingBlock: BETGAK_clean_sbu_0, # of connection points: 6
#     Node 22, Type 0, BuildingBlock: BETGAK_clean_sbu_0, # of connection points: 6
#     Node 23, Type 0, BuildingBlock: BETGAK_clean_sbu_0, # of connection points: 6
#     Node 24, Type 0, BuildingBlock: BETGAK_clean_sbu_0, # of connection points: 6
#     Node 25, Type 0, BuildingBlock: BETGAK_clean_sbu_0, # of connection points: 6
#     Node 26, Type 0, BuildingBlock: BETGAK_clean_sbu_0, # of connection points: 6
#     Node 27, Type 0, BuildingBlock: BETGAK_clean_sbu_0, # of connection points: 6
#     Node 28, Type 0, BuildingBlock: BETGAK_clean_sbu_0, # of connection points: 6
#     Node 29, Type 0, BuildingBlock: BETGAK_clean_sbu_0, # of connection points: 6
#     Node 30, Type 0, BuildingBlock: BETGAK_clean_sbu_0, # of connection points: 6
#     Node 31, Type 0, BuildingBlock: BETGAK_clean_sbu_0, # of connection points: 6
#     Edge 32, Type (0, 0), BuildingBlock: OJICUG_clean_linker_0, # of connection points: 2
#     Edge 33, Type (0, 0), BuildingBlock: OJICUG_clean_linker_0, # of connection points: 2
#     Edge 34, Type (0, 0), BuildingBlock: OJICUG_clean_linker_0, # of connection points: 2
#     Edge 35, Type (0, 0), BuildingBlock: OJICUG_clean_linker_0, # of connection points: 2
#     Edge 36, Type (0, 0), BuildingBlock: OJICUG_clean_linker_0, # of connection points: 2
#     Edge 37, Type (0, 0), BuildingBlock: OJICUG_clean_linker_0, # of connection points: 2
#     Edge 38, Type (0, 0), BuildingBlock: OJICUG_clean_linker_0, # of connection points: 2
#     Edge 39, Type (0, 0), BuildingBlock: OJICUG_clean_linker_0, # of connection points: 2
#     Edge 40, Type (0, 0), BuildingBlock: OJICUG_clean_linker_0, # of connection points: 2
#     Edge 41, Type (0, 0), BuildingBlock: OJICUG_clean_linker_0, # of connection points: 2
#     Edge 42, Type (0, 0), BuildingBlock: OJICUG_clean_linker_0, # of connection points: 2
#     Edge 43, Type (0, 0), BuildingBlock: OJICUG_clean_linker_0, # of connection points: 2
#     Edge 44, Type (0, 0), BuildingBlock: OJICUG_clean_linker_0, # of connection points: 2
#     Edge 45, Type (0, 0), BuildingBlock: OJICUG_clean_linker_0, # of connection points: 2
#     Edge 46, Type (0, 0), BuildingBlock: OJICUG_clean_linker_0, # of connection points: 2
#     Edge 47, Type (0, 0), BuildingBlock: OJICUG_clean_linker_0, # of connection points: 2
#     Edge 48, Type (0, 0), BuildingBlock: OJICUG_clean_linker_0, # of connection points: 2
#     Edge 49, Type (0, 0), BuildingBlock: OJICUG_clean_linker_0, # of connection points: 2
#     Edge 50, Type (0, 0), BuildingBlock: OJICUG_clean_linker_0, # of connection points: 2
#     Edge 51, Type (0, 0), BuildingBlock: OJICUG_clean_linker_0, # of connection points: 2
#     Edge 52, Type (0, 0), BuildingBlock: OJICUG_clean_linker_0, # of connection points: 2
#     Edge 53, Type (0, 0), BuildingBlock: OJICUG_clean_linker_0, # of connection points: 2
#     Edge 54, Type (0, 0), BuildingBlock: OJICUG_clean_linker_0, # of connection points: 2
#     Edge 55, Type (0, 0), BuildingBlock: OJICUG_clean_linker_0, # of connection points: 2
#     Edge 56, Type (0, 0), BuildingBlock: OJICUG_clean_linker_0, # of connection points: 2
#     Edge 57, Type (0, 0), BuildingBlock: OJICUG_clean_linker_0, # of connection points: 2
#     Edge 58, Type (0, 0), BuildingBlock: OJICUG_clean_linker_0, # of connection points: 2
#     Edge 59, Type (0, 0), BuildingBlock: OJICUG_clean_linker_0, # of connection points: 2
#     Edge 60, Type (0, 0), BuildingBlock: OJICUG_clean_linker_0, # of connection points: 2
#     Edge 61, Type (0, 0), BuildingBlock: OJICUG_clean_linker_0, # of connection points: 2
#     Edge 62, Type (0, 0), BuildingBlock: OJICUG_clean_linker_0, # of connection points: 2
#     Edge 63, Type (0, 0), BuildingBlock: OJICUG_clean_linker_0, # of connection points: 2
#     Edge 64, Type (0, 0), BuildingBlock: OJICUG_clean_linker_0, # of connection points: 2
#     Edge 65, Type (0, 0), BuildingBlock: OJICUG_clean_linker_0, # of connection points: 2
#     Edge 66, Type (0, 0), BuildingBlock: OJICUG_clean_linker_0, # of connection points: 2
#     Edge 67, Type (0, 0), BuildingBlock: OJICUG_clean_linker_0, # of connection points: 2
#     Edge 68, Type (0, 0), BuildingBlock: OJICUG_clean_linker_0, # of connection points: 2
#     Edge 69, Type (0, 0), BuildingBlock: OJICUG_clean_linker_0, # of connection points: 2
#     Edge 70, Type (0, 0), BuildingBlock: OJICUG_clean_linker_0, # of connection points: 2
#     Edge 71, Type (0, 0), BuildingBlock: OJICUG_clean_linker_0, # of connection points: 2
#     Edge 72, Type (0, 0), BuildingBlock: OJICUG_clean_linker_0, # of connection points: 2
#     Edge 73, Type (0, 0), BuildingBlock: OJICUG_clean_linker_0, # of connection points: 2
#     Edge 74, Type (0, 0), BuildingBlock: OJICUG_clean_linker_0, # of connection points: 2
#     Edge 75, Type (0, 0), BuildingBlock: OJICUG_clean_linker_0, # of connection points: 2
#     Edge 76, Type (0, 0), BuildingBlock: OJICUG_clean_linker_0, # of connection points: 2
#     Edge 77, Type (0, 0), BuildingBlock: OJICUG_clean_linker_0, # of connection points: 2
#     Edge 78, Type (0, 0), BuildingBlock: OJICUG_clean_linker_0, # of connection points: 2
#     Edge 79, Type (0, 0), BuildingBlock: OJICUG_clean_linker_0, # of connection points: 2
#     Edge 80, Type (0, 0), BuildingBlock: OJICUG_clean_linker_0, # of connection points: 2
#     Edge 81, Type (0, 0), BuildingBlock: OJICUG_clean_linker_0, # of connection points: 2
#     Edge 82, Type (0, 0), BuildingBlock: OJICUG_clean_linker_0, # of connection points: 2
#     Edge 83, Type (0, 0), BuildingBlock: OJICUG_clean_linker_0, # of connection points: 2
#     Edge 84, Type (0, 0), BuildingBlock: OJICUG_clean_linker_0, # of connection points: 2
#     Edge 85, Type (0, 0), BuildingBlock: OJICUG_clean_linker_0, # of connection points: 2
#     Edge 86, Type (0, 0), BuildingBlock: OJICUG_clean_linker_0, # of connection points: 2
#     Edge 87, Type (0, 0), BuildingBlock: OJICUG_clean_linker_0, # of connection points: 2
#     Edge 88, Type (0, 0), BuildingBlock: OJICUG_clean_linker_0, # of connection points: 2
#     Edge 89, Type (0, 0), BuildingBlock: OJICUG_clean_linker_0, # of connection points: 2
#     Edge 90, Type (0, 0), BuildingBlock: OJICUG_clean_linker_0, # of connection points: 2
#     Edge 91, Type (0, 0), BuildingBlock: OJICUG_clean_linker_0, # of connection points: 2
#     Edge 92, Type (0, 0), BuildingBlock: OJICUG_clean_linker_0, # of connection points: 2
#     Edge 93, Type (0, 0), BuildingBlock: OJICUG_clean_linker_0, # of connection points: 2
#     Edge 94, Type (0, 0), BuildingBlock: OJICUG_clean_linker_0, # of connection points: 2
#     Edge 95, Type (0, 0), BuildingBlock: OJICUG_clean_linker_0, # of connection points: 2
#     Edge 96, Type (0, 0), BuildingBlock: OJICUG_clean_linker_0, # of connection points: 2
#     Edge 97, Type (0, 0), BuildingBlock: OJICUG_clean_linker_0, # of connection points: 2
#     Edge 98, Type (0, 0), BuildingBlock: OJICUG_clean_linker_0, # of connection points: 2
#     Edge 99, Type (0, 0), BuildingBlock: OJICUG_clean_linker_0, # of connection points: 2
#     Edge 100, Type (0, 0), BuildingBlock: OJICUG_clean_linker_0, # of connection points: 2
#     Edge 101, Type (0, 0), BuildingBlock: OJICUG_clean_linker_0, # of connection points: 2
#     Edge 102, Type (0, 0), BuildingBlock: OJICUG_clean_linker_0, # of connection points: 2
#     Edge 103, Type (0, 0), BuildingBlock: OJICUG_clean_linker_0, # of connection points: 2
#     Edge 104, Type (0, 0), BuildingBlock: OJICUG_clean_linker_0, # of connection points: 2
#     Edge 105, Type (0, 0), BuildingBlock: OJICUG_clean_linker_0, # of connection points: 2
#     Edge 106, Type (0, 0), BuildingBlock: OJICUG_clean_linker_0, # of connection points: 2
#     Edge 107, Type (0, 0), BuildingBlock: OJICUG_clean_linker_0, # of connection points: 2
#     Edge 108, Type (0, 0), BuildingBlock: OJICUG_clean_linker_0, # of connection points: 2
#     Edge 109, Type (0, 0), BuildingBlock: OJICUG_clean_linker_0, # of connection points: 2
#     Edge 110, Type (0, 0), BuildingBlock: OJICUG_clean_linker_0, # of connection points: 2
#     Edge 111, Type (0, 0), BuildingBlock: OJICUG_clean_linker_0, # of connection points: 2
#     Edge 112, Type (0, 0), BuildingBlock: OJICUG_clean_linker_0, # of connection points: 2
#     Edge 113, Type (0, 0), BuildingBlock: OJICUG_clean_linker_0, # of connection points: 2
#     Edge 114, Type (0, 0), BuildingBlock: OJICUG_clean_linker_0, # of connection points: 2
#     Edge 115, Type (0, 0), BuildingBlock: OJICUG_clean_linker_0, # of connection points: 2
#     Edge 116, Type (0, 0), BuildingBlock: OJICUG_clean_linker_0, # of connection points: 2
#     Edge 117, Type (0, 0), BuildingBlock: OJICUG_clean_linker_0, # of connection points: 2
#     Edge 118, Type (0, 0), BuildingBlock: OJICUG_clean_linker_0, # of connection points: 2
#     Edge 119, Type (0, 0), BuildingBlock: OJICUG_clean_linker_0, # of connection points: 2
#     Edge 120, Type (0, 0), BuildingBlock: OJICUG_clean_linker_0, # of connection points: 2
#     Edge 121, Type (0, 0), BuildingBlock: OJICUG_clean_linker_0, # of connection points: 2
#     Edge 122, Type (0, 0), BuildingBlock: OJICUG_clean_linker_0, # of connection points: 2
#     Edge 123, Type (0, 0), BuildingBlock: OJICUG_clean_linker_0, # of connection points: 2
#     Edge 124, Type (0, 0), BuildingBlock: OJICUG_clean_linker_0, # of connection points: 2
#     Edge 125, Type (0, 0), BuildingBlock: OJICUG_clean_linker_0, # of connection points: 2
#     Edge 126, Type (0, 0), BuildingBlock: OJICUG_clean_linker_0, # of connection points: 2
#     Edge 127, Type (0, 0), BuildingBlock: OJICUG_clean_linker_0, # of connection points: 2
# Relax obj value: 0.418
# Max RMSD: 0.349
# Mean RMSD: 0.265
data_MOF--net-wip--node1-BETGAK_clean_sbu_0--edge1-OJICUG_clean_linker_0
_symmetry_space_group_name_H-M    P1
_symmetry_Int_Tables_number       1
_symmetry_cell_setting            triclinic
loop_
_symmetry_equiv_pos_as_xyz
'x, y, z'
_cell_length_a     47.898126
_cell_length_b     45.358803
_cell_length_c     27.407024
_cell_angle_alpha  95.995574
_cell_angle_beta   84.63188
_cell_angle_gamma 88.781464
loop_
_atom_site_label
_atom_site_type_symbol
_atom_site_fract_x
_atom_site_fract_y
_atom_site_fract_z
_atom_type_partial_charge
La0 La 0.04987 0.40229 0.14089 0.0
La1 La 0.09229 0.43361 0.08156 0.0
C2 C 0.02623 0.36877 0.19863 0.0
C3 C 0.03089 0.35844 0.24603 0.0
C4 C 0.01183 0.33924 0.26677 0.0
C5 C 0.01218 0.33429 0.31609 0.0
C6 C 0.03164 0.34855 0.34512 0.0
C7 C 0.05217 0.36587 0.32303 0.0
C8 C 0.05161 0.37096 0.27383 0.0
C9 C 0.02924 0.45418 0.12368 0.0
C10 C 0.09073 0.44995 0.1924 0.0
C11 C 0.11828 0.45924 1.01297 0.0
C12 C 0.11304 0.47104 0.96489 0.0
C13 C 0.13568 0.47398 0.92921 0.0
C14 C 0.13181 0.48597 0.88464 0.0
C15 C 0.10504 0.49564 0.8738 0.0
C16 C 0.08227 0.49232 0.90955 0.0
C17 C 0.08619 0.48025 0.95419 0.0
C18 C 0.11373 0.39062 0.13168 0.0
C19 C 0.03944 0.40574 1.03075 0.0
O20 O 0.02067 0.39723 0.20058 0.0
O21 O 0.04397 0.3591 0.16074 0.0
O22 O 0.01575 0.4297 0.1224 0.0
O23 O 0.05457 0.44777 0.12903 0.0
O24 O 0.07399 0.42693 0.19649 0.0
O25 O 0.09754 0.46021 0.14953 0.0
O26 O 0.11838 0.43037 1.01429 0.0
O27 O 0.10586 0.47319 0.05393 0.0
O28 O 0.12659 0.41366 0.11777 0.0
O29 O 0.09121 0.3901 0.10937 0.0
O30 O 0.06041 0.42392 1.03046 0.0
O31 O 0.03337 0.39059 0.06897 0.0
H32 H 0.99563 0.3295 0.24574 0.0
H33 H 0.9963 0.32064 0.33229 0.0
H34 H 0.0673 0.37725 0.34463 0.0
H35 H 0.06633 0.38593 0.25824 0.0
H36 H 0.15667 0.46726 0.93608 0.0
H37 H 0.15009 0.48824 0.85911 0.0
H38 H 0.06119 0.49884 0.90299 0.0
H39 H 0.06816 0.47825 0.98048 0.0
La40 La 0.8408 0.80014 0.39595 0.0
La41 La 0.80485 0.8423 0.35015 0.0
C42 C 0.87374 0.77625 0.44852 0.0
C43 C 0.87483 0.77227 0.50129 0.0
C44 C 0.87302 0.74358 0.51599 0.0
C45 C 0.87396 0.73889 0.56537 0.0
C46 C 0.87701 0.76276 0.60131 0.0
C47 C 0.87916 0.79152 0.5866 0.0
C48 C 0.87797 0.79627 0.53708 0.0
C49 C 0.79093 0.77863 0.38189 0.0
C50 C 0.79869 0.84858 0.4628 0.0
C51 C 0.77388 0.86715 0.29438 0.0
C52 C 0.76259 0.86353 0.24465 0.0
C53 C 0.76275 0.88774 0.21637 0.0
C54 C 0.75058 0.88613 0.17129 0.0
C55 C 0.73766 0.86019 0.15263 0.0
C56 C 0.73787 0.83575 0.18083 0.0
C57 C 0.7501 0.83739 0.22604 0.0
C58 C 0.85193 0.86403 0.38434 0.0
C59 C 0.83916 0.78987 0.28441 0.0
O60 O 0.85407 0.76229 0.42662 0.0
O61 O 0.8766 0.80289 0.43511 0.0
O62 O 0.81466 0.76412 0.37213 0.0
O63 O 0.79626 0.80551 0.39391 0.0
O64 O 0.82041 0.82939 0.45937 0.0
O65 O 0.7861 0.85465 0.42399 0.0
O66 O 0.80074 0.8716 0.2958 0.0
O67 O 0.76454 0.85013 0.32781 0.0
O68 O 0.82853 0.87888 0.38391 0.0
O69 O 0.84885 0.83877 0.36115 0.0
O70 O 0.81644 0.80704 0.29205 0.0
O71 O 0.85586 0.78686 0.31935 0.0
H72 H 0.87087 0.72467 0.48914 0.0
H73 H 0.87266 0.71643 0.57533 0.0
H74 H 0.88135 0.81039 0.61349 0.0
H75 H 0.87944 0.81867 0.52696 0.0
H76 H 0.77191 0.90832 0.22968 0.0
H77 H 0.75073 0.90565 0.1517 0.0
H78 H 0.72869 0.81512 0.16792 0.0
H79 H 0.74953 0.81824 0.24659 0.0
La80 La 0.44741 0.58949 0.69231 0.0
La81 La 0.40792 0.55457 0.63342 0.0
C82 C 0.4676 0.6248 0.75588 0.0
C83 C 0.46173 0.63533 0.80823 0.0
C84 C 0.47716 0.6586 0.82854 0.0
C85 C 0.47635 0.66484 0.87961 0.0
C86 C 0.45994 0.64796 0.91085 0.0
C87 C 0.44275 0.62624 0.89029 0.0
C88 C 0.44391 0.61977 0.83923 0.0
C89 C 0.47268 0.54038 0.6478 0.0
C90 C 0.41165 0.53656 0.73632 0.0
C91 C 0.3846 0.52707 0.56247 0.0
C92 C 0.39069 0.51588 0.50817 0.0
C93 C 0.36867 0.51381 0.47737 0.0
C94 C 0.37319 0.50202 0.42722 0.0
C95 C 0.40003 0.49164 0.40539 0.0
C96 C 0.42219 0.49411 0.43638 0.0
C97 C 0.41763 0.50597 0.48665 0.0
C98 C 0.38251 0.5937 0.70879 0.0
C99 C 0.45836 0.58781 0.57728 0.0
O100 O 0.47492 0.59668 0.74666 0.0
O101 O 0.44997 0.63318 0.7258 0.0
O102 O 0.48419 0.56591 0.65414 0.0
O103 O 0.44693 0.54411 0.66304 0.0
O104 O 0.42573 0.56144 0.74487 0.0
O105 O 0.40626 0.52605 0.69139 0.0
O106 O 0.38207 0.55586 0.57482 0.0
O107 O 0.39787 0.51405 0.59459 0.0
O108 O 0.37199 0.56977 0.68857 0.0
O109 O 0.40476 0.5973 0.67976 0.0
O110 O 0.43864 0.56814 0.57641 0.0
O111 O 0.46324 0.60303 0.61953 0.0
H112 H 0.49115 0.67072 0.80504 0.0
H113 H 0.48975 0.68172 0.89475 0.0
H114 H 0.43012 0.61274 0.9136 0.0
H115 H 0.43209 0.60158 0.82401 0.0
H116 H 0.3476 0.52099 0.49237 0.0
H117 H 0.35527 0.50044 0.4059 0.0
H118 H 0.44333 0.48707 0.42179 0.0
H119 H 0.43524 0.50722 0.50878 0.0
La120 La 0.67539 0.18839 0.86061 0.0
La121 La 0.71688 0.1424 0.88651 0.0
C122 C 0.65007 0.22862 0.82474 0.0
C123 C 0.65662 0.24327 0.78021 0.0
C124 C 0.63484 0.25186 0.75354 0.0
C125 C 0.64096 0.26226 0.7077 0.0
C126 C 0.66897 0.26411 0.68807 0.0
C127 C 0.69074 0.25608 0.71547 0.0
C128 C 0.68462 0.24568 0.76118 0.0
C129 C 0.65087 0.14241 0.89453 0.0
C130 C 0.7203 0.15498 0.77456 0.0
C131 C 0.73952 0.09655 0.91298 0.0
C132 C 0.74726 0.08399 0.95745 0.0
C133 C 0.77562 0.07709 0.96142 0.0
C134 C 0.78393 0.06694 1.00435 0.0
C135 C 0.76398 0.0635 1.04413 0.0
C136 C 0.73541 0.06889 1.03896 0.0
C137 C 0.72713 0.07888 0.99595 0.0
C138 C 0.73686 0.19692 0.88118 0.0
C139 C 0.68349 0.18721 0.97494 0.0
O140 O 0.64469 0.20042 0.81626 0.0
O141 O 0.66689 0.23379 0.85958 0.0
O142 O 0.63953 0.16846 0.89537 0.0
O143 O 0.67436 0.14124 0.86745 0.0
O144 O 0.70416 0.17885 0.79111 0.0
O145 O 0.72447 0.13452 0.8047 0.0
O146 O 0.75326 0.11972 0.9011 0.0
O147 O 0.71286 0.09908 0.90661 0.0
O148 O 0.75204 0.1725 0.8728 0.0
O149 O 0.71283 0.18887 0.89341 0.0
O150 O 0.69974 0.16257 0.9621 0.0
O151 O 0.67379 0.20255 0.94057 0.0
H152 H 0.61314 0.24982 0.76759 0.0
H153 H 0.62383 0.26869 0.6875 0.0
H154 H 0.7125 0.25703 0.70095 0.0
H155 H 0.70174 0.23878 0.781 0.0
H156 H 0.79147 0.08026 0.93168 0.0
H157 H 0.80604 0.06261 1.00695 0.0
H158 H 0.71948 0.06683 0.06906 0.0
H159 H 0.70507 0.08324 0.99359 0.0
La160 La 0.04903 0.58666 0.62722 0.0
La161 La 0.0862 0.53853 0.57152 0.0
C162 C 0.01679 0.62256 0.68365 0.0
C163 C 0.00536 0.62553 0.73536 0.0
C164 C 0.99214 0.65232 0.75652 0.0
C165 C 0.9836 0.65642 0.80701 0.0
C166 C 0.98863 0.63387 0.83675 0.0
C167 C 1.00078 0.6066 0.81497 0.0
C168 C 0.0089 0.60238 0.76449 0.0
C169 C 0.09075 0.60401 0.56523 0.0
C170 C 0.08705 0.5473 0.68803 0.0
C171 C 0.12567 0.51207 0.5163 0.0
C172 C 0.13634 0.51187 0.46492 0.0
C173 C 0.15295 0.48758 0.44254 0.0
C174 C 0.15503 0.48123 0.39154 0.0
C175 C 0.14028 0.49912 0.36319 0.0
C176 C 0.12738 0.5259 0.38514 0.0
C177 C 0.12516 0.53212 0.43614 0.0
C178 C 0.04435 0.51791 0.62497 0.0
C179 C 0.03576 0.56853 0.51931 0.0
O180 O 0.04395 0.62559 0.67603 0.0
O181 O 0.00808 0.60006 0.6558 0.0
O182 O 0.06609 0.61649 0.57444 0.0
O183 O 0.09172 0.58372 0.5933 0.0
O184 O 0.0652 0.56583 0.68874 0.0
O185 O 0.10118 0.53677 0.64543 0.0
O186 O 0.10045 0.50159 0.52302 0.0
O187 O 0.12867 0.53667 0.54457 0.0
O188 O 0.06826 0.50395 0.6128 0.0
O189 O 0.0435 0.54102 0.60285 0.0
O190 O 0.06066 0.55377 0.51276 0.0
O191 O 0.02514 0.57954 0.56388 0.0
H192 H 0.98916 0.67032 0.73428 0.0
H193 H 0.97434 0.67763 0.82315 0.0
H194 H 0.00457 0.5888 0.83724 0.0
H195 H 0.01858 0.58138 0.74844 0.0
H196 H 0.16173 0.47185 0.46457 0.0
H197 H 0.16512 0.46049 0.37497 0.0
H198 H 0.11576 0.53988 0.36385 0.0
H199 H 0.11212 0.55085 0.45316 0.0
La200 La 0.65656 0.80632 0.88614 0.0
La201 La 0.70285 0.83649 0.84926 0.0
C202 C 0.61978 0.78272 0.93994 0.0
C203 C 0.62041 0.77353 0.98987 0.0
C204 C 0.59548 0.77205 1.0206 0.0
C205 C 0.59633 0.76476 0.06892 0.0
C206 C 0.62217 0.75912 0.08739 0.0
C207 C 0.64705 0.76047 0.05623 0.0
C208 C 0.64618 0.76755 1.008 0.0
C209 C 0.64241 0.83993 0.81478 0.0
C210 C 0.68795 0.84817 0.96255 0.0
C211 C 0.7349 0.86969 0.80391 0.0
C212 C 0.73799 0.87998 0.75542 0.0
C213 C 0.76011 0.89841 0.74376 0.0
C214 C 0.76729 0.9031 0.69487 0.0
C215 C 0.75242 0.88919 0.65758 0.0
C216 C 0.72832 0.87346 0.67022 0.0
C217 C 0.72122 0.86872 0.71908 0.0
C218 C 0.72065 0.79559 0.9041 0.0
C219 C 0.68101 0.78075 0.78513 0.0
O220 O 0.62075 0.81134 0.93724 0.0
O221 O 0.6368 0.76779 0.90551 0.0
O222 O 0.63179 0.8152 0.82511 0.0
O223 O 0.65874 0.8472 0.84865 0.0
O224 O 0.67198 0.82528 0.95528 0.0
O225 O 0.69903 0.86039 0.92395 0.0
O226 O 0.73993 0.84126 0.8046 0.0
O227 O 0.71225 0.87926 0.83189 0.0
O228 O 0.73171 0.82086 0.89876 0.0
O229 O 0.70081 0.79269 0.87607 0.0
O230 O 0.69319 0.80672 0.78401 0.0
O231 O 0.6695 0.7727 0.82692 0.0
H232 H 0.57542 0.77692 1.00745 0.0
H233 H 0.57682 0.76425 0.0922 0.0
H234 H 0.66726 0.756 0.06911 0.0
H235 H 0.66572 0.76869 0.98501 0.0
H236 H 0.77301 0.90739 0.77185 0.0
H237 H 0.78585 0.91543 0.68576 0.0
H238 H 0.71667 0.86233 0.64203 0.0
H239 H 0.70404 0.85444 0.72792 0.0
La240 La 0.45974 0.4026 0.10787 0.0
La241 La 0.42418 0.4504 0.08117 0.0
C242 C 0.48768 0.366 0.1479 0.0
C243 C 0.49472 0.36324 0.1983 0.0
C244 C 0.49302 0.33552 0.21641 0.0
C245 C 0.49803 0.33254 0.26505 0.0
C246 C 0.50503 0.35727 0.29646 0.0
C247 C 0.50689 0.38506 0.27795 0.0
C248 C 0.50161 0.38806 0.22941 0.0
C249 C 0.42122 0.38521 1.04686 0.0
C250 C 0.42041 0.4409 0.19463 0.0
C251 C 0.38635 0.47766 1.04517 0.0
C252 C 0.37484 0.47476 0.99786 0.0
C253 C 0.38837 0.45586 0.95872 0.0
C254 C 0.3829 0.4592 0.91073 0.0
C255 C 0.36472 0.48227 0.90193 0.0
C256 C 0.34791 0.49782 0.94149 0.0
C257 C 0.35316 0.49419 0.98964 0.0
C258 C 0.46337 0.47183 0.13326 0.0
C259 C 0.47615 0.42125 1.00368 0.0
O260 O 0.46109 0.3632 0.14138 0.0
O261 O 0.49891 0.38782 0.12579 0.0
O262 O 0.44601 0.37342 1.04587 0.0
O263 O 0.41806 0.40466 0.08387 0.0
O264 O 0.44228 0.42245 0.18202 0.0
O265 O 0.40713 0.45183 0.15972 0.0
O266 O 0.41248 0.48586 1.04378 0.0
O267 O 0.38161 0.45567 0.0717 0.0
O268 O 0.43926 0.48477 0.13142 0.0
O269 O 0.46643 0.449 0.10188 0.0
O270 O 0.45176 0.43694 1.0105 0.0
O271 O 0.48571 0.40867 1.04052 0.0
H272 H 0.48736 0.31621 0.19311 0.0
H273 H 0.49588 0.31094 0.27823 0.0
H274 H 0.51256 0.40451 0.30084 0.0
H275 H 0.50272 0.40979 0.21639 0.0
H276 H 0.4051 0.44065 0.96475 0.0
H277 H 0.39608 0.44696 0.88074 0.0
H278 H 0.33369 0.51563 0.93514 0.0
H279 H 0.34237 0.50864 1.01986 0.0
La280 La 0.82961 0.17874 0.49915 0.0
La281 La 0.78398 0.14158 0.4548 0.0
C282 C 0.85565 0.21148 0.55889 0.0
C283 C 0.84952 0.22595 0.61077 0.0
C284 C 0.87102 0.22828 0.6424 0.0
C285 C 0.86597 0.24195 0.6911 0.0
C286 C 0.83917 0.25386 0.71004 0.0
C287 C 0.81761 0.25151 0.67814 0.0
C288 C 0.82267 0.23771 0.62935 0.0
C289 C 0.85007 0.13601 0.42647 0.0
C290 C 0.78099 0.1494 0.5708 0.0
C291 C 0.76169 0.10264 0.4006 0.0
C292 C 0.76758 0.09186 0.34813 0.0
C293 C 0.77304 0.11206 0.31327 0.0
C294 C 0.77855 0.10208 0.26358 0.0
C295 C 0.77853 0.07166 0.24745 0.0
C296 C 0.77359 0.0513 0.28239 0.0
C297 C 0.7683 0.06137 0.33254 0.0
C298 C 0.76672 0.19711 0.49047 0.0
C299 C 0.81878 0.18753 0.39144 0.0
O300 O 0.85843 0.18234 0.55305 0.0
O301 O 0.84144 0.22153 0.52493 0.0
O302 O 0.86322 0.15891 0.44411 0.0
O303 O 0.82841 0.13468 0.45846 0.0
O304 O 0.80041 0.16942 0.56402 0.0
O305 O 0.774 0.13173 0.5323 0.0
O306 O 0.75201 0.13007 0.41016 0.0
O307 O 0.78114 0.09652 0.42896 0.0
O308 O 0.75055 0.17437 0.48683 0.0
O309 O 0.79043 0.18661 0.47412 0.0
O310 O 0.80317 0.16344 0.3918 0.0
O311 O 0.8281 0.20079 0.43235 0.0
H312 H 0.89193 0.21956 0.62933 0.0
H313 H 0.88333 0.24352 0.71376 0.0
H314 H 0.7966 0.25991 0.69107 0.0
H315 H 0.80553 0.23618 0.60618 0.0
H316 H 0.7725 0.13569 0.32422 0.0
H317 H 0.78167 0.11841 0.23757 0.0
H318 H 0.77345 0.02773 0.27087 0.0
H319 H 0.76441 0.04544 0.35902 0.0
La320 La 0.91182 0.56329 0.31152 0.0
La321 La 0.95345 0.59594 0.25244 0.0
C322 C 0.88659 0.53629 0.3791 0.0
C323 C 0.89194 0.52426 0.42689 0.0
C324 C 0.86927 0.52062 0.46212 0.0
C325 C 0.87322 0.50851 0.50652 0.0
C326 C 0.90011 0.49943 0.51763 0.0
C327 C 0.92291 0.50338 0.48228 0.0
C328 C 0.91891 0.51558 0.43779 0.0
C329 C 0.88921 0.60647 0.26347 0.0
C330 C 0.96468 0.5915 0.36223 0.0
C331 C 0.97639 0.63016 0.1951 0.0
C332 C 0.97164 0.64068 0.14781 0.0
C333 C 0.99109 0.65937 0.12672 0.0
C334 C 0.99092 0.66407 0.07726 0.0
C335 C 0.97119 0.65016 1.04845 0.0
C336 C 0.95022 0.6335 0.07084 0.0
C337 C 0.95065 0.62856 0.12019 0.0
C338 C 0.97468 0.54385 0.26794 0.0
C339 C 0.91277 0.54835 0.20034 0.0
O340 O 0.88571 0.56522 0.37858 0.0
O341 O 0.89947 0.523 0.33799 0.0
O342 O 0.87681 0.58312 0.27716 0.0
O343 O 0.91205 0.6072 0.28494 0.0
O344 O 0.94379 0.57318 0.36249 0.0
O345 O 0.97038 0.60704 0.32431 0.0
O346 O 0.98235 0.60177 0.19269 0.0
O347 O 0.9586 0.63939 0.23316 0.0
O348 O 0.988 0.56844 0.26949 0.0
O349 O 0.94934 0.55028 0.26289 0.0
O350 O 0.92914 0.57169 0.19668 0.0
O351 O 0.90648 0.53744 0.24283 0.0
H352 H 0.84819 0.5269 0.45505 0.0
H353 H 0.85492 0.5057 0.53171 0.0
H354 H 0.94406 0.4973 0.48908 0.0
H355 H 0.93695 0.51812 0.41181 0.0
H356 H 0.00755 0.66874 0.14753 0.0
H357 H 0.00721 0.6771 0.06071 0.0
H358 H 0.93492 0.62236 1.04932 0.0
H359 H 0.93572 0.61385 0.13593 0.0
La360 La 0.19315 0.1611 1.0445 0.0
La361 La 0.15028 0.20004 0.9977 0.0
C362 C 0.22481 0.13839 0.10139 0.0
C363 C 0.23764 0.14296 0.14986 0.0
C364 C 0.22128 0.14431 0.1957 0.0
C365 C 0.23391 0.14457 0.24035 0.0
C366 C 0.26339 0.14343 0.241 0.0
C367 C 0.27965 0.14264 0.19508 0.0
C368 C 0.26703 0.1423 0.15049 0.0
C369 C 0.14897 0.1344 1.00723 0.0
C370 C 0.15654 0.21272 0.10974 0.0
C371 C 0.10999 0.21316 0.94986 0.0
C372 C 0.10777 0.22377 0.90092 0.0
C373 C 0.12 0.25012 0.88798 0.0
C374 C 0.11923 0.25838 0.84019 0.0
C375 C 0.10644 0.24038 0.80405 0.0
C376 C 0.09395 0.2142 0.8175 0.0
C377 C 0.09452 0.20611 0.8653 0.0
C378 C 0.19812 0.22745 0.99623 0.0
C379 C 0.20008 0.16006 0.93253 0.0
O380 O 0.19763 0.1349 0.10247 0.0
O381 O 0.23414 0.15334 0.06491 0.0
O382 O 0.17376 0.1224 1.00733 0.0
O383 O 0.14933 0.1599 1.03114 0.0
O384 O 0.1793 0.19551 0.10261 0.0
O385 O 0.13916 0.2154 0.07546 0.0
O386 O 0.11931 0.23134 0.98467 0.0
O387 O 0.1211 0.18655 0.94839 0.0
O388 O 0.17525 0.23748 0.9816 0.0
O389 O 0.19306 0.20303 1.01387 0.0
O390 O 0.17511 0.17403 0.93551 0.0
O391 O 0.21353 0.15586 0.97131 0.0
H392 H 0.19861 0.14463 0.19716 0.0
H393 H 0.22042 0.14572 0.27451 0.0
H394 H 0.30232 0.14139 0.19322 0.0
H395 H 0.2804 0.14069 0.11613 0.0
H396 H 0.13049 0.26418 0.9145 0.0
H397 H 0.12871 0.27891 0.83163 0.0
H398 H 0.08432 0.19943 0.79076 0.0
H399 H 0.08511 0.18556 0.87415 0.0
La400 La 0.59452 0.44243 0.75581 0.0
La401 La 0.56148 0.39476 0.70203 0.0
C402 C 0.61544 0.47121 0.82796 0.0
C403 C 0.60845 0.48382 0.88172 0.0
C404 C 0.61365 0.46711 0.92085 0.0
C405 C 0.60983 0.47958 0.97076 0.0
C406 C 0.60075 0.50949 0.98414 0.0
C407 C 0.59535 0.52611 0.94484 0.0
C408 C 0.59921 0.51362 0.8949 0.0
C409 C 0.62506 0.40547 0.68337 0.0
C410 C 0.54802 0.40721 0.81547 0.0
C411 C 0.55134 0.34948 0.64559 0.0
C412 C 0.54156 0.34591 0.5959 0.0
C413 C 0.51531 0.35747 0.58687 0.0
C414 C 0.50809 0.35733 0.53862 0.0
C415 C 0.52708 0.34596 0.4984 0.0
C416 C 0.55293 0.33348 0.50776 0.0
C417 C 0.55997 0.33328 0.556 0.0
C418 C 0.52799 0.44211 0.72033 0.0
C419 C 0.58364 0.45336 0.65234 0.0
O420 O 0.61765 0.44215 0.81768 0.0
O421 O 0.60405 0.48383 0.79301 0.0
O422 O 0.63059 0.4325 0.6991 0.0
O423 O 0.60471 0.39864 0.71456 0.0
O424 O 0.56003 0.43252 0.80936 0.0
O425 O 0.55123 0.38508 0.7794 0.0
O426 O 0.53367 0.36104 0.68218 0.0
O427 O 0.57593 0.36088 0.64766 0.0
O428 O 0.52148 0.41682 0.69873 0.0
O429 O 0.55279 0.4393 0.73305 0.0
O430 O 0.57504 0.4253 0.64634 0.0
O431 O 0.58863 0.46711 0.69567 0.0
H432 H 0.62114 0.44426 0.91295 0.0
H433 H 0.61394 0.46549 0.99896 0.0
H434 H 0.58877 0.54923 0.95236 0.0
H435 H 0.59544 0.52764 0.8664 0.0
H436 H 0.50063 0.36736 0.61686 0.0
H437 H 0.48777 0.36655 0.53285 0.0
H438 H 0.56825 0.32487 0.47782 0.0
H439 H 0.58034 0.32426 0.56204 0.0
La440 La 0.28789 0.8525 0.50383 0.0
La441 La 0.33008 0.80875 0.5326 0.0
C442 C 0.26441 0.89629 0.47251 0.0
C443 C 0.26407 0.9097 0.42621 0.0
C444 C 0.24714 0.93509 0.42442 0.0
C445 C 0.24447 0.94636 0.37942 0.0
C446 C 0.2591 0.93256 0.33594 0.0
C447 C 0.2767 0.90766 0.33829 0.0
C448 C 0.27888 0.89614 0.38295 0.0
C449 C 0.26916 0.79797 0.51145 0.0
C450 C 0.32419 0.80862 0.41791 0.0
C451 C 0.35658 0.76956 0.56897 0.0
C452 C 0.35124 0.75485 0.61368 0.0
C453 C 0.37379 0.74718 0.63938 0.0
C454 C 0.36881 0.73591 0.68474 0.0
C455 C 0.34119 0.73215 0.70473 0.0
C456 C 0.31866 0.7395 0.67851 0.0
C457 C 0.32364 0.75089 0.63337 0.0
C458 C 0.35356 0.85531 0.49831 0.0
C459 C 0.28324 0.8412 0.61673 0.0
O460 O 0.25383 0.87 0.47241 0.0
O461 O 0.28776 0.89787 0.49378 0.0
O462 O 0.25369 0.82217 0.52112 0.0
O463 O 0.29308 0.80601 0.49806 0.0
O464 O 0.3081 0.83333 0.4298 0.0
O465 O 0.33301 0.79341 0.45304 0.0
O466 O 0.36125 0.79795 0.57692 0.0
O467 O 0.33939 0.76365 0.53492 0.0
O468 O 0.36556 0.82965 0.49829 0.0
O469 O 0.32989 0.85573 0.52447 0.0
O470 O 0.30105 0.81839 0.60181 0.0
O471 O 0.27768 0.86049 0.58526 0.0
H472 H 0.23532 0.94563 0.45752 0.0
H473 H 0.23061 0.96542 0.37838 0.0
H474 H 0.28767 0.89614 0.30514 0.0
H475 H 0.29136 0.87608 0.38326 0.0
H476 H 0.39519 0.75045 0.62481 0.0
H477 H 0.38649 0.73016 0.70419 0.0
H478 H 0.29717 0.73712 0.69348 0.0
H479 H 0.30594 0.75715 0.61438 0.0
La480 La 0.91871 0.4577 0.81987 0.0
La481 La 0.95629 0.40974 0.76557 0.0
C482 C 0.87911 0.48416 0.87481 0.0
C483 C 0.86884 0.48486 0.92646 0.0
C484 C 0.88066 0.46529 0.95565 0.0
C485 C 0.87853 0.47196 1.00656 0.0
C486 C 0.86495 0.49851 1.02811 0.0
C487 C 0.84972 0.5157 0.99936 0.0
C488 C 0.85179 0.50892 0.94842 0.0
C489 C 0.96039 0.47854 0.76641 0.0
C490 C 0.96934 0.42885 0.87295 0.0
C491 C 0.98859 0.37359 0.70987 0.0
C492 C 0.99986 0.37069 0.65814 0.0
C493 C 0.01245 0.34371 0.63644 0.0
C494 C 0.0206 0.33973 0.58584 0.0
C495 C 0.01589 0.36263 0.55666 0.0
C496 C 0.00436 0.39003 0.57888 0.0
C497 C 0.9966 0.39412 0.62945 0.0
C498 C 0.91463 0.39253 0.82776 0.0
C499 C 0.91814 0.44816 0.70356 0.0
O500 O 0.90411 0.495 0.86721 0.0
O501 O 0.87634 0.45915 0.84747 0.0
O502 O 0.93628 0.49217 0.77804 0.0
O503 O 0.96154 0.45559 0.7889 0.0
O504 O 0.94428 0.44324 0.87911 0.0
O505 O 0.98016 0.41778 0.82858 0.0
O506 O 0.96146 0.37046 0.7176 0.0
O507 O 0.99726 0.39619 0.73753 0.0
O508 O 0.93955 0.38057 0.81987 0.0
O509 O 0.91355 0.41232 0.79879 0.0
O510 O 0.94024 0.43003 0.70339 0.0
O511 O 0.90372 0.45863 0.74589 0.0
H512 H 0.894 0.44673 0.93893 0.0
H513 H 0.89052 0.45846 1.02803 0.0
H514 H 0.83897 0.53616 1.01558 0.0
H515 H 0.84249 0.52411 0.92606 0.0
H516 H 0.01515 0.32546 0.6583 0.0
H517 H 0.02924 0.31839 0.56918 0.0
H518 H 1.00072 0.408 0.55686 0.0
H519 H 0.98736 0.41524 0.6459 0.0
La520 La 0.29864 0.16019 0.54467 0.0
La521 La 0.34417 0.19184 0.50808 0.0
C522 C 0.26794 0.12623 0.59095 0.0
C523 C 0.26518 0.11784 0.64076 0.0
C524 C 0.24277 0.10049 0.65532 0.0
C525 C 0.23516 0.09904 0.70524 0.0
C526 C 0.24984 0.11521 0.74063 0.0
C527 C 0.27431 0.12965 0.72558 0.0
C528 C 0.28188 0.13107 0.6757 0.0
C529 C 0.27958 0.20101 0.49122 0.0
C530 C 0.3194 0.21657 0.60928 0.0
C531 C 0.38053 0.21643 0.45484 0.0
C532 C 0.38021 0.22554 0.4048 0.0
C533 C 0.40539 0.22811 0.37526 0.0
C534 C 0.40496 0.23542 0.32687 0.0
C535 C 0.37929 0.23998 0.30711 0.0
C536 C 0.35414 0.23755 0.33709 0.0
C537 C 0.35459 0.23047 0.38542 0.0
C538 C 0.35905 0.15823 0.57878 0.0
C539 C 0.31311 0.15005 0.43093 0.0
O540 O 0.26139 0.15408 0.58782 0.0
O541 O 0.29117 0.11736 0.56406 0.0
O542 O 0.26916 0.17535 0.49595 0.0
O543 O 0.29959 0.20425 0.51887 0.0
O544 O 0.30759 0.19038 0.61 0.0
O545 O 0.33077 0.22499 0.56767 0.0
O546 O 0.38025 0.18778 0.45754 0.0
O547 O 0.36289 0.23093 0.48877 0.0
O548 O 0.36909 0.18331 0.56902 0.0
O549 O 0.34296 0.15067 0.54464 0.0
O550 O 0.32898 0.17296 0.43878 0.0
O551 O 0.30215 0.13729 0.46913 0.0
H552 H 0.22985 0.09008 0.62841 0.0
H553 H 0.21642 0.08747 0.71622 0.0
H554 H 0.2859 0.1424 0.75215 0.0
H555 H 0.29925 0.14458 0.6647 0.0
H556 H 0.42535 0.2241 0.3894 0.0
H557 H 0.42468 0.23679 0.30453 0.0
H558 H 0.33404 0.24117 0.3232 0.0
H559 H 0.33487 0.22855 0.40751 0.0
La560 La 0.58221 0.5485 0.3081 0.0
La561 La 0.54212 0.59369 0.28476 0.0
C562 C 0.62201 0.52231 0.34073 0.0
C563 C 0.63142 0.52209 0.38936 0.0
C564 C 0.64767 0.4978 0.39902 0.0
C565 C 0.64704 0.49023 0.44699 0.0
C566 C 0.62996 0.50693 0.48489 0.0
C567 C 0.61744 0.53385 0.47609 0.0
C568 C 0.61799 0.54128 0.42822 0.0
C569 C 0.54316 0.52458 0.25799 0.0
C570 C 0.52981 0.57252 0.38821 0.0
C571 C 0.50802 0.62808 0.25222 0.0
C572 C 0.49679 0.63063 0.20496 0.0
C573 C 0.48196 0.65655 0.19768 0.0
C574 C 0.4733 0.66023 0.15132 0.0
C575 C 0.47984 0.63819 0.11182 0.0
C576 C 0.49384 0.61184 0.11969 0.0
C577 C 0.50201 0.60796 0.16614 0.0
C578 C 0.58122 0.61384 0.3432 0.0
C579 C 0.58272 0.5595 0.19547 0.0
O580 O 0.59717 0.51121 0.33714 0.0
O581 O 0.62466 0.54719 0.32085 0.0
O582 O 0.56831 0.51358 0.2571 0.0
O583 O 0.53946 0.54689 0.29022 0.0
O584 O 0.55583 0.5603 0.38097 0.0
O585 O 0.51826 0.58293 0.35136 0.0
O586 O 0.53486 0.6329 0.25297 0.0
O587 O 0.50059 0.60476 0.27407 0.0
O588 O 0.55556 0.62358 0.34632 0.0
O589 O 0.58461 0.59479 0.30572 0.0
O590 O 0.55957 0.57589 0.20947 0.0
O591 O 0.59772 0.54974 0.22931 0.0
H592 H 0.65811 0.48285 0.36911 0.0
H593 H 0.65721 0.46962 0.45349 0.0
H594 H 0.60415 0.54707 0.50477 0.0
H595 H 0.60503 0.55987 0.42111 0.0
H596 H 0.47771 0.67418 0.22748 0.0
H597 H 0.46259 0.68072 0.14578 0.0
H598 H 0.49888 0.5945 0.08964 0.0
H599 H 0.51293 0.58759 0.17145 0.0
La600 La 0.21959 0.85516 0.93681 0.0
La601 La 0.17448 0.8176 0.89292 0.0
C602 C 0.24375 0.89515 0.98641 0.0
C603 C 0.24053 0.91007 1.03671 0.0
C604 C 0.22391 0.89789 0.07379 0.0
C605 C 0.22351 0.90996 0.1227 0.0
C606 C 0.24012 0.93423 0.13541 0.0
C607 C 0.2558 0.94728 0.09782 0.0
C608 C 0.25592 0.93529 1.04868 0.0
C609 C 0.23771 0.79982 0.90138 0.0
C610 C 0.18555 0.80938 1.0009 0.0
C611 C 0.14816 0.78472 0.83371 0.0
C612 C 0.15378 0.77032 0.78163 0.0
C613 C 0.13229 0.76939 0.74992 0.0
C614 C 0.13683 0.75574 0.70111 0.0
C615 C 0.16307 0.7424 0.68216 0.0
C616 C 0.18464 0.74342 0.71409 0.0
C617 C 0.18011 0.75723 0.76294 0.0
C618 C 0.15341 0.86019 0.96547 0.0
C619 C 0.22255 0.84672 0.82052 0.0
O620 O 0.25098 0.86695 0.98258 0.0
O621 O 0.22394 0.90057 0.95835 0.0
O622 O 0.25331 0.82298 0.9041 0.0
O623 O 0.21379 0.8097 0.91796 0.0
O624 O 0.20078 0.83374 1.00041 0.0
O625 O 0.17632 0.79591 0.96004 0.0
O626 O 0.14525 0.81384 0.83971 0.0
O627 O 0.16275 0.77472 0.86721 0.0
O628 O 0.14073 0.83691 0.94807 0.0
O629 O 0.17502 0.86183 0.93345 0.0
O630 O 0.20334 0.82657 0.82754 0.0
O631 O 0.22941 0.86452 0.8589 0.0
H632 H 0.21213 0.87832 0.06511 0.0
H633 H 0.21158 0.89906 0.15082 0.0
H634 H 0.26878 0.966 0.10665 0.0
H635 H 0.26891 0.94494 1.02034 0.0
H636 H 0.11178 0.77917 0.76303 0.0
H637 H 0.11949 0.75528 0.67841 0.0
H638 H 0.20527 0.73392 0.70114 0.0
H639 H 0.19727 0.75768 0.78607 0.0
La640 La 0.55082 0.90304 0.64084 0.0
La641 La 0.5921 0.93576 0.58156 0.0
C642 C 0.52817 0.86871 0.69827 0.0
C643 C 0.53313 0.85803 0.74534 0.0
C644 C 0.51405 0.83882 0.76603 0.0
C645 C 0.51438 0.83381 0.81532 0.0
C646 C 0.53389 0.84793 0.84437 0.0
C647 C 0.55452 0.86515 0.82232 0.0
C648 C 0.55394 0.87039 0.77314 0.0
C649 C 0.52902 0.95479 0.62538 0.0
C650 C 0.59133 0.95092 0.69257 0.0
C651 C 0.6172 0.96265 0.51365 0.0
C652 C 0.61175 0.97458 0.4658 0.0
C653 C 0.63436 0.97813 0.43038 0.0
C654 C 0.63032 0.99018 0.38596 0.0
C655 C 0.60341 -0.00071 0.37499 0.0
C656 C 0.58067 0.99541 0.41052 0.0
C657 C 0.58476 0.98327 0.45503 0.0
C658 C 0.6149 0.89257 0.62951 0.0
C659 C 0.5395 0.90707 0.53107 0.0
O660 O 0.52219 0.89711 0.70091 0.0
O661 O 0.54582 0.85956 0.65997 0.0
O662 O 0.51599 0.93003 0.62382 0.0
O663 O 0.55452 0.94885 0.63022 0.0
O664 O 0.57515 0.92746 0.69638 0.0
O665 O 0.59743 0.96182 0.65002 0.0
O666 O 0.6181 0.93374 0.51434 0.0
O667 O 0.60438 0.97599 0.55475 0.0
O668 O 0.62717 0.91605 0.61607 0.0
O669 O 0.59211 0.89186 0.60797 0.0
O670 O 0.56015 0.92565 0.53076 0.0
O671 O 0.53393 0.89159 0.56907 0.0
H672 H 0.49775 0.82925 0.74505 0.0
H673 H 0.49835 0.82034 0.83158 0.0
H674 H 0.56965 0.87645 0.84403 0.0
H675 H 0.56861 0.88547 0.75769 0.0
H676 H 0.65545 0.97183 0.43734 0.0
H677 H 0.64857 0.99293 0.36063 0.0
H678 H 0.5595 0.00151 0.40385 0.0
H679 H 0.56677 0.9808 0.48114 0.0
La680 La 0.34016 0.29959 0.89817 0.0
La681 La 0.30262 0.3412 0.85293 0.0
C682 C 0.37412 0.2767 0.95012 0.0
C683 C 0.37525 0.27277 1.0029 0.0
C684 C 0.37491 0.24398 1.01735 0.0
C685 C 0.37557 0.23937 0.06683 0.0
C686 C 0.37687 0.26346 0.10314 0.0
C687 C 0.37767 0.29234 0.08869 0.0
C688 C 0.37675 0.29699 1.03906 0.0
C689 C 0.28989 0.27801 0.88764 0.0
C690 C 0.2989 0.34846 0.9656 0.0
C691 C 0.27027 0.36527 0.79845 0.0
C692 C 0.25855 0.36193 0.74903 0.0
C693 C 0.25927 0.38603 0.72047 0.0
C694 C 0.24667 0.38483 0.67583 0.0
C695 C 0.23272 0.35942 0.65787 0.0
C696 C 0.23235 0.33506 0.68633 0.0
C697 C 0.245 0.33631 0.73112 0.0
C698 C 0.35024 0.36368 0.88349 0.0
C699 C 0.33653 0.28839 0.78713 0.0
O700 O 0.35501 0.262 0.92787 0.0
O701 O 0.37596 0.30348 0.93708 0.0
O702 O 0.3134 0.26303 0.87929 0.0
O703 O 0.29552 0.30494 0.89814 0.0
O704 O 0.32096 0.32969 0.96129 0.0
O705 O 0.28507 0.35379 0.92775 0.0
O706 O 0.29699 0.37061 0.79936 0.0
O707 O 0.26182 0.34765 0.83155 0.0
O708 O 0.32672 0.37834 0.88325 0.0
O709 O 0.34698 0.33799 0.86178 0.0
O710 O 0.31381 0.30556 0.79529 0.0
O711 O 0.35393 0.2858 0.82119 0.0
H712 H 0.37403 0.22492 0.99023 0.0
H713 H 0.37535 0.21684 0.07662 0.0
H714 H 0.3785 0.31136 0.11586 0.0
H715 H 0.37705 0.31949 1.02916 0.0
H716 H 0.26921 0.40626 0.73326 0.0
H717 H 0.24731 0.40429 0.65607 0.0
H718 H 0.22238 0.31481 0.67396 0.0
H719 H 0.24392 0.31726 0.7519 0.0
La720 La 0.94272 0.08751 0.19204 0.0
La721 La 0.90371 0.0529 0.13321 0.0
C722 C 0.96374 0.12196 0.25586 0.0
C723 C 0.95815 0.13235 0.30831 0.0
C724 C 0.97327 0.15598 0.32829 0.0
C725 C 0.97271 0.16229 0.37932 0.0
C726 C 0.95684 0.14512 0.41085 0.0
C727 C 0.93997 0.12297 0.39067 0.0
C728 C 0.9409 0.11641 0.33966 0.0
C729 C 0.96829 0.03841 0.1484 0.0
C730 C 0.90612 0.03528 0.23645 0.0
C731 C 0.88094 0.02537 0.06154 0.0
C732 C 0.88765 0.0143 1.00727 0.0
C733 C 0.86589 0.01117 0.97598 0.0
C734 C 0.87107 -0.00049 0.92583 0.0
C735 C 0.89833 0.99031 0.90445 0.0
C736 C 0.9202 0.99385 0.93594 0.0
C737 C 0.91498 0.00558 0.98621 0.0
C738 C 0.87801 0.09256 0.20763 0.0
C739 C 0.95381 0.08652 0.07732 0.0
O740 O 0.97048 0.09374 0.24618 0.0
O741 O 0.94626 0.13094 0.22605 0.0
O742 O 0.97908 0.06436 0.15207 0.0
O743 O 0.94248 0.0418 0.16369 0.0
O744 O 0.92043 0.06 0.24486 0.0
O745 O 0.90091 0.02467 0.19151 0.0
O746 O 0.87823 0.05413 0.07404 0.0
O747 O 0.89394 0.01238 0.09401 0.0
O748 O 0.86755 0.06852 0.18765 0.0
O749 O 0.90039 0.0959 0.17884 0.0
O750 O 0.93452 0.06641 0.07634 0.0
O751 O 0.95842 0.1017 0.11971 0.0
H752 H 0.98682 0.16838 0.30453 0.0
H753 H 0.98586 0.1795 0.39417 0.0
H754 H 0.92777 0.10925 0.41421 0.0
H755 H 0.92932 0.09794 0.32473 0.0
H756 H 0.84455 0.01741 0.9906 0.0
H757 H 0.85335 0.99709 0.90414 0.0
H758 H 0.94162 0.98776 0.92174 0.0
H759 H 0.9324 0.00767 1.0087 0.0
La760 La 0.17681 0.6877 0.3613 0.0
La761 La 0.21873 0.64384 0.39034 0.0
C762 C 0.15034 0.72707 0.32512 0.0
C763 C 0.15315 0.73889 0.27733 0.0
C764 C 0.16389 0.72077 0.23477 0.0
C765 C 0.16755 0.73234 0.18965 0.0
C766 C 0.16047 0.76219 0.18633 0.0
C767 C 0.14936 0.78021 0.22889 0.0
C768 C 0.14576 0.7686 0.27418 0.0
C769 C 0.15309 0.64142 0.39574 0.0
C770 C 0.22337 0.65461 0.27708 0.0
C771 C 0.24214 0.60001 0.42163 0.0
C772 C 0.2427 0.5865 0.46776 0.0
C773 C 0.26021 0.56152 0.46936 0.0
C774 C 0.26316 0.55021 0.51422 0.0
C775 C 0.24824 0.56356 0.55775 0.0
C776 C 0.23004 0.58801 0.55559 0.0
C777 C 0.22756 0.59958 0.51105 0.0
C778 C 0.23741 0.69849 0.38347 0.0
C779 C 0.18238 0.68777 0.47611 0.0
O780 O 0.14287 0.6994 0.32397 0.0
O781 O 0.17084 0.73282 0.35285 0.0
O782 O 0.14138 0.66728 0.3963 0.0
O783 O 0.17675 0.64061 0.36934 0.0
O784 O 0.20506 0.67703 0.29147 0.0
O785 O 0.2294 0.63578 0.30901 0.0
O786 O 0.25278 0.62628 0.42169 0.0
O787 O 0.21869 0.59851 0.40067 0.0
O788 O 0.25292 0.67434 0.37358 0.0
O789 O 0.21353 0.69027 0.39658 0.0
O790 O 0.19828 0.66289 0.46434 0.0
O791 O 0.17399 0.70316 0.44084 0.0
H792 H 0.16967 0.69772 0.23635 0.0
H793 H 0.17655 0.71808 0.15761 0.0
H794 H 0.14352 0.80325 0.22716 0.0
H795 H 0.13742 0.78282 0.30674 0.0
H796 H 0.27227 0.55136 0.43622 0.0
H797 H 0.27748 0.5315 0.51512 0.0
H798 H 0.21883 0.59917 0.58881 0.0
H799 H 0.21462 0.61934 0.51087 0.0
La800 La 0.54649 0.089 0.12768 0.0
La801 La 0.58423 0.04123 0.07276 0.0
C802 C 0.51399 0.12469 0.18399 0.0
C803 C 0.50245 0.12724 0.23563 0.0
C804 C 0.48935 0.15395 0.25746 0.0
C805 C 0.48067 0.15755 0.30791 0.0
C806 C 0.4854 0.13455 0.33695 0.0
C807 C 0.49741 0.10737 0.31447 0.0
C808 C 0.5057 0.10367 0.26404 0.0
C809 C 0.58793 0.10658 0.0653 0.0
C810 C 0.58494 0.05055 0.18915 0.0
C811 C 0.62396 0.01515 1.01768 0.0
C812 C 0.63445 0.01489 0.9662 0.0
C813 C 0.62237 0.03432 0.93706 0.0
C814 C 0.62479 0.02782 0.8861 0.0
C815 C 0.63891 0.00159 0.86447 0.0
C816 C 0.65442 0.98468 0.89323 0.0
C817 C 0.65206 0.99128 0.94421 0.0
C818 C 0.54276 0.02016 0.12651 0.0
C819 C 0.53329 0.07001 1.02019 0.0
O820 O 0.54114 0.12788 0.17663 0.0
O821 O 0.50544 0.10229 0.15571 0.0
O822 O 0.56305 0.1186 0.07396 0.0
O823 O 0.58917 0.08661 0.09389 0.0
O824 O 0.5628 0.06864 0.18955 0.0
O825 O 0.5993 0.04015 0.1467 0.0
O826 O 0.59894 0.00426 1.02474 0.0
O827 O 0.62665 0.03997 1.04559 0.0
O828 O 0.56687 0.00657 0.11448 0.0
O829 O 0.54151 0.04312 0.1041 0.0
O830 O 0.5584 0.05567 1.01381 0.0
O831 O 0.52255 0.08104 0.06465 0.0
H832 H 0.4866 0.17227 0.23579 0.0
H833 H 0.47154 0.1787 0.3246 0.0
H834 H 0.50099 0.08925 0.33618 0.0
H835 H 0.51529 0.08273 0.24749 0.0
H836 H 0.60862 0.05254 0.9538 0.0
H837 H 0.6126 0.04111 0.86463 0.0
H838 H 0.66559 0.96447 0.87695 0.0
H839 H 0.66158 0.97623 0.96654 0.0
La840 La 0.15062 0.30624 0.39286 0.0
La841 La 0.19771 0.33456 0.35699 0.0
C842 C 0.11271 0.28493 0.44772 0.0
C843 C 0.11146 0.27783 0.49932 0.0
C844 C 0.08608 0.2814 0.52952 0.0
C845 C 0.08496 0.27621 0.57919 0.0
C846 C 0.10924 0.26715 0.59973 0.0
C847 C 0.13466 0.26354 0.56906 0.0
C848 C 0.13577 0.26895 0.51956 0.0
C849 C 0.13778 0.33973 0.32049 0.0
C850 C 0.18159 0.34851 0.46914 0.0
C851 C 0.23372 0.36413 0.31261 0.0
C852 C 0.2433 0.37141 0.26337 0.0
C853 C 0.2695 0.35983 0.24269 0.0
C854 C 0.27877 0.36379 0.19468 0.0
C855 C 0.26242 0.38029 0.16651 0.0
C856 C 0.23671 0.39335 0.18816 0.0
C857 C 0.22713 0.38886 0.23646 0.0
C858 C 0.21369 0.2937 0.41333 0.0
C859 C 0.1743 0.28014 0.29147 0.0
O860 O 0.1141 0.31315 0.44194 0.0
O861 O 0.13027 0.26874 0.41576 0.0
O862 O 0.12647 0.31539 0.33124 0.0
O863 O 0.15408 0.34688 0.35455 0.0
O864 O 0.16588 0.32541 0.46206 0.0
O865 O 0.19279 0.36028 0.43019 0.0
O866 O 0.23728 0.33626 0.31941 0.0
O867 O 0.20961 0.37547 0.33333 0.0
O868 O 0.22442 0.31924 0.40981 0.0
O869 O 0.19445 0.29084 0.384 0.0
O870 O 0.1879 0.30534 0.29129 0.0
O871 O 0.16179 0.27242 0.33282 0.0
H872 H 0.06715 0.28851 0.51475 0.0
H873 H 0.0651 0.27974 0.60164 0.0
H874 H 0.15374 0.25623 0.58306 0.0
H875 H 0.15573 0.26633 0.49716 0.0
H876 H 0.28243 0.34661 0.26313 0.0
H877 H 0.29825 0.35253 0.1792 0.0
H878 H 0.22378 0.4064 0.16756 0.0
H879 H 0.20701 0.39851 0.25219 0.0
La880 La 0.96225 0.90404 0.60618 0.0
La881 La 0.92296 0.94955 0.57972 0.0
C882 C 0.99571 0.86971 0.64032 0.0
C883 C 0.00685 0.86738 0.68769 0.0
C884 C 0.0221 0.84174 0.69499 0.0
C885 C 0.03092 0.8383 0.74131 0.0
C886 C 0.02412 0.86031 0.78079 0.0
C887 C 0.00966 0.88638 0.7729 0.0
C888 C 0.00132 0.89002 0.72647 0.0
C889 C 0.9232 0.8839 0.54768 0.0
C890 C 0.92145 0.94028 0.69346 0.0
C891 C 0.883 0.97431 0.54529 0.0
C892 C 0.87124 0.97134 0.49817 0.0
C893 C 0.88497 0.95295 0.45856 0.0
C894 C 0.87963 0.95692 0.4107 0.0
C895 C 0.86122 0.97997 0.40253 0.0
C896 C 0.84425 0.99495 0.44244 0.0
C897 C 0.84944 0.99077 0.49042 0.0
C898 C 0.96222 0.97332 0.62978 0.0
C899 C 0.97558 0.9238 0.50174 0.0
O900 O 0.9688 0.86528 0.63959 0.0
O901 O 0.00355 0.89268 0.61785 0.0
O902 O 0.94864 0.87358 0.54538 0.0
O903 O 0.92001 0.90354 0.58427 0.0
O904 O 0.94428 0.92311 0.68068 0.0
O905 O 0.90715 0.95012 0.65875 0.0
O906 O 0.90846 0.98447 0.54389 0.0
O907 O 0.88008 0.95157 0.57072 0.0
O908 O 0.93757 0.98528 0.62882 0.0
O909 O 0.96538 0.95047 0.59871 0.0
O910 O 0.94963 0.93617 0.5078 0.0
O911 O 0.9867 0.91381 0.53941 0.0
H912 H 0.02661 0.82414 0.6652 0.0
H913 H 0.04198 0.81801 0.74683 0.0
H914 H 0.00444 0.90372 0.8029 0.0
H915 H 0.99009 0.91019 0.72109 0.0
H916 H 0.90182 0.93778 0.46421 0.0
H917 H 0.89292 0.94507 0.38047 0.0
H918 H 0.82981 0.01269 0.43663 0.0
H919 H 0.83854 0.00486 0.52096 0.0
La920 La 0.33154 0.67941 1.00026 0.0
La921 La 0.28664 0.64067 0.95732 0.0
C922 C 0.35755 0.7127 0.05937 0.0
C923 C 0.35204 0.72686 0.11164 0.0
C924 C 0.37364 0.72771 0.14313 0.0
C925 C 0.36923 0.74116 0.19209 0.0
C926 C 0.343 0.75437 0.21145 0.0
C927 C 0.32131 0.75341 0.17975 0.0
C928 C 0.32572 0.73981 0.13075 0.0
C929 C 0.35291 0.63739 0.92726 0.0
C930 C 0.28419 0.64934 0.07336 0.0
C931 C 0.26327 0.60015 0.90758 0.0
C932 C 0.26676 0.58569 0.85698 0.0
C933 C 0.28264 0.59883 0.82003 0.0
C934 C 0.28327 0.58694 0.77099 0.0
C935 C 0.26763 0.56193 0.75802 0.0
C936 C 0.25269 0.54803 0.7954 0.0
C937 C 0.25236 0.55981 0.84467 0.0
C938 C 0.26794 0.69588 0.99294 0.0
C939 C 0.31908 0.68726 0.89264 0.0
O940 O 0.36102 0.68362 0.05301 0.0
O941 O 0.34253 0.72251 1.02624 0.0
O942 O 0.36528 0.66089 0.94461 0.0
O943 O 0.33151 0.63512 0.95953 0.0
O944 O 0.30308 0.66982 0.06598 0.0
O945 O 0.27742 0.63129 1.03522 0.0
O946 O 0.25518 0.62813 0.91214 0.0
O947 O 0.28336 0.59516 0.93532 0.0
O948 O 0.25251 0.67256 0.98989 0.0
O949 O 0.29184 0.68605 0.97633 0.0
O950 O 0.30427 0.66265 0.89372 0.0
O951 O 0.32885 0.70086 0.93295 0.0
H952 H 0.39416 0.71803 0.12972 0.0
H953 H 0.38666 0.74157 0.21459 0.0
H954 H 0.30069 0.76282 0.19299 0.0
H955 H 0.30847 0.73941 0.10783 0.0
H956 H 0.29369 0.61892 0.82884 0.0
H957 H 0.29459 0.59847 0.743 0.0
H958 H 0.24045 0.52876 0.78631 0.0
H959 H 0.23996 0.54944 0.87288 0.0
La960 La 0.40971 0.06299 0.81217 0.0
La961 La 0.45104 0.09576 0.75295 0.0
C962 C 0.38452 0.03618 0.88003 0.0
C963 C 0.38993 0.02438 0.92794 0.0
C964 C 0.3673 0.0207 0.96322 0.0
C965 C 0.37135 0.00876 1.00773 0.0
C966 C 0.3983 -9e-05 1.01885 0.0
C967 C 0.42106 0.00394 0.98347 0.0
C968 C 0.41696 0.01597 0.93889 0.0
C969 C 0.38686 0.106 0.76412 0.0
C970 C 0.46225 0.0918 0.86279 0.0
C971 C 0.47368 0.13004 0.69542 0.0
C972 C 0.46882 0.14043 0.6481 0.0
C973 C 0.48825 0.15904 0.62676 0.0
C974 C 0.48795 0.16365 0.57729 0.0
C975 C 0.46812 0.14975 0.54873 0.0
C976 C 0.44717 0.13316 0.57135 0.0
C977 C 0.44773 0.12829 0.62073 0.0
C978 C 0.47274 0.04395 0.76884 0.0
C979 C 0.41067 0.04773 0.70114 0.0
O980 O 0.3836 0.06509 0.87924 0.0
O981 O 0.39742 0.02279 0.83904 0.0
O982 O 0.37463 0.08252 0.77762 0.0
O983 O 0.40968 0.10688 0.7856 0.0
O984 O 0.44161 0.07319 0.86307 0.0
O985 O 0.4678 0.1073 0.82478 0.0
O986 O 0.47986 0.1017 0.69314 0.0
O987 O 0.45584 0.13919 0.73345 0.0
O988 O 0.48581 0.0687 0.77029 0.0
O989 O 0.44734 0.05004 0.76363 0.0
O990 O 0.42684 0.0712 0.69735 0.0
O991 O 0.4045 0.03687 0.74371 0.0
H992 H 0.34618 0.0268 0.95611 0.0
H993 H 0.3531 0.00589 1.03299 0.0
H994 H 0.44225 0.99805 0.99031 0.0
H995 H 0.43497 0.01857 0.91288 0.0
H996 H 0.50478 0.16842 0.64738 0.0
H997 H 0.50424 0.17662 0.56054 0.0
H998 H 0.4318 0.12203 0.55 0.0
H999 H 0.4328 0.11365 0.63667 0.0
La1000 La 0.69916 0.65599 0.54165 0.0
La1001 La 0.66306 0.69817 0.49599 0.0
C1002 C 0.73023 0.63126 0.5974 0.0
C1003 C 0.74148 0.63488 0.64718 0.0
C1004 C 0.74121 0.61072 0.67556 0.0
C1005 C 0.75336 0.61231 0.72066 0.0
C1006 C 0.76639 0.6382 0.73925 0.0
C1007 C 0.76629 0.6626 0.71096 0.0
C1008 C 0.75409 0.66097 0.66574 0.0
C1009 C 0.65236 0.63402 0.50685 0.0
C1010 C 0.66462 0.70827 0.6076 0.0
C1011 C 0.63007 0.72204 0.44354 0.0
C1012 C 0.62884 0.72593 0.39079 0.0
C1013 C 0.63018 0.75465 0.37612 0.0
C1014 C 0.62922 0.75929 0.32672 0.0
C1015 C 0.62663 0.73532 0.29074 0.0
C1016 C 0.62491 0.70652 0.30542 0.0
C1017 C 0.62613 0.70184 0.35497 0.0
C1018 C 0.71294 0.71974 0.5106 0.0
C1019 C 0.70547 0.65007 0.429 0.0
O1020 O 0.70341 0.62663 0.59587 0.0
O1021 O 0.73949 0.64838 0.56405 0.0
O1022 O 0.67583 0.61931 0.50747 0.0
O1023 O 0.65516 0.6593 0.53023 0.0
O1024 O 0.68731 0.69106 0.59999 0.0
O1025 O 0.64797 0.71138 0.5726 0.0
O1026 O 0.64986 0.73596 0.46512 0.0
O1027 O 0.62713 0.69545 0.45716 0.0
O1028 O 0.68918 0.73422 0.52024 0.0
O1029 O 0.70753 0.69294 0.49823 0.0
O1030 O 0.68365 0.66914 0.43247 0.0
O1031 O 0.71806 0.64398 0.46782 0.0
H1032 H 0.73197 0.59016 0.6623 0.0
H1033 H 0.75312 0.59281 0.74031 0.0
H1034 H 0.77556 0.6832 0.72381 0.0
H1035 H 0.75475 0.68009 0.64512 0.0
H1036 H 0.632 0.77363 0.403 0.0
H1037 H 0.63018 0.78176 0.31677 0.0
H1038 H 0.62307 0.68759 0.27849 0.0
H1039 H 0.62504 0.67941 0.36508 0.0
La1040 La 0.09791 0.94309 0.25826 0.0
La1041 La 0.05933 0.90739 0.19956 0.0
C1042 C 0.12026 0.97141 0.32964 0.0
C1043 C 0.11361 0.9824 0.38393 0.0
C1044 C 0.13545 0.98576 0.41501 0.0
C1045 C 0.13033 0.99734 0.46519 0.0
C1046 C 0.10305 0.00619 0.48682 0.0
C1047 C 0.08109 0.00243 0.45556 0.0
C1048 C 0.08625 0.99079 0.40525 0.0
C1049 C 0.12417 0.90393 0.1839 0.0
C1050 C 0.0484 0.90866 0.31439 0.0
C1051 C 0.03904 0.87204 0.13612 0.0
C1052 C 0.04456 0.86178 0.08363 0.0
C1053 C 0.02874 0.83885 0.06329 0.0
C1054 C 0.02913 0.83301 1.01223 0.0
C1055 C 0.0455 0.84996 0.98103 0.0
C1056 C 0.06308 0.87128 1.00153 0.0
C1057 C 0.06236 0.87737 0.05261 0.0
C1058 C 0.03318 0.95634 0.24324 0.0
C1059 C 0.09476 0.96034 0.15479 0.0
O1060 O 0.12365 0.94269 0.31718 0.0
O1061 O 0.10676 0.98399 0.29732 0.0
O1062 O 0.13428 0.92815 0.20393 0.0
O1063 O 0.10188 0.90008 0.21263 0.0
O1064 O 0.06748 0.92902 0.31527 0.0
O1065 O 0.04394 0.89328 0.27208 0.0
O1066 O 0.03144 0.90005 0.14584 0.0
O1067 O 0.05707 0.86377 0.16557 0.0
O1068 O 0.02261 0.93026 0.23928 0.0
O1069 O 0.05894 0.95305 0.22769 0.0
O1070 O 0.08082 0.93534 0.14653 0.0
O1071 O 0.1 0.97112 0.19966 0.0
H1072 H 0.15682 0.97977 0.40019 0.0
H1073 H 0.14811 -5e-05 0.48672 0.0
H1074 H 0.05965 0.00827 0.46998 0.0
H1075 H 0.06876 0.9885 0.38292 0.0
H1076 H 0.01477 0.82673 0.08681 0.0
H1077 H 0.01544 0.81643 0.99711 0.0
H1078 H 0.07569 0.88481 0.97824 0.0
H1079 H 0.07445 0.89531 0.06787 0.0
La1080 La 0.78542 0.35246 1.00466 0.0
La1081 La 0.82787 0.30831 1.03039 0.0
C1082 C 0.7607 0.39664 0.9769 0.0
C1083 C 0.74857 0.40377 0.93246 0.0
C1084 C 0.7414 0.43329 0.92706 0.0
C1085 C 0.72993 0.44032 0.88452 0.0
C1086 C 0.72534 0.4178 0.84716 0.0
C1087 C 0.73229 0.38818 0.85321 0.0
C1088 C 0.74388 0.38123 0.89549 0.0
C1089 C 0.76664 0.29734 1.0094 0.0
C1090 C 0.81939 0.30804 0.91621 0.0
C1091 C 0.85531 0.26978 0.06686 0.0
C1092 C 0.8523 0.25785 0.11465 0.0
C1093 C 0.84062 0.27565 0.1569 0.0
C1094 C 0.8367 0.26403 0.20194 0.0
C1095 C 0.84464 0.23445 0.20572 0.0
C1096 C 0.85676 0.21676 0.16348 0.0
C1097 C 0.86049 0.2284 0.11818 0.0
C1098 C 0.85067 0.35471 0.99488 0.0
C1099 C 0.78361 0.3418 0.11665 0.0
O1100 O 0.74799 0.3763 1.00016 0.0
O1101 O 0.78793 0.39276 0.9732 0.0
O1102 O 0.75106 0.32142 1.0178 0.0
O1103 O 0.79049 0.30589 0.99725 0.0
O1104 O 0.80242 0.33215 0.92893 0.0
O1105 O 0.82951 0.29322 0.9508 0.0
O1106 O 0.86187 0.29776 0.06848 0.0
O1107 O 0.83539 0.2633 1.03814 0.0
O1108 O 0.86228 0.32866 0.99228 0.0
O1109 O 0.8278 0.35562 1.02369 0.0
O1110 O 0.79949 0.31783 0.1001 0.0
O1111 O 0.77946 0.36202 0.08623 0.0
H1112 H 0.74489 0.45088 0.95554 0.0
H1113 H 0.72487 0.46329 0.88062 0.0
H1114 H 0.72965 0.37043 0.82451 0.0
H1115 H 0.74942 0.35832 0.89914 0.0
H1116 H 0.83434 0.29854 0.1552 0.0
H1117 H 0.82689 0.27808 0.23356 0.0
H1118 H 0.86336 0.19396 0.16544 0.0
H1119 H 0.8696 0.21441 0.08591 0.0
La1120 La 0.41797 0.95801 0.32089 0.0
La1121 La 0.45593 0.91044 0.26535 0.0
C1122 C 0.37815 0.98384 0.37607 0.0
C1123 C 0.36759 0.98396 0.42749 0.0
C1124 C 0.35001 0.00758 0.44954 0.0
C1125 C 0.34763 0.0141 0.50054 0.0
C1126 C 0.36308 0.9971 0.52923 0.0
C1127 C 0.37713 0.97085 0.50754 0.0
C1128 C 0.3796 0.96443 0.45657 0.0
C1129 C 0.45939 0.97938 0.26755 0.0
C1130 C 0.46879 0.929 0.37331 0.0
C1131 C 0.4887 0.87496 0.20916 0.0
C1132 C 0.50009 0.87201 0.15744 0.0
C1133 C 0.51363 0.84537 0.13638 0.0
C1134 C 0.52208 0.84123 0.08587 0.0
C1135 C 0.51663 0.8636 0.05601 0.0
C1136 C 0.50417 0.89075 0.07768 0.0
C1137 C 0.49614 0.895 0.12818 0.0
C1138 C 0.41451 0.89252 0.32741 0.0
C1139 C 0.41719 0.94887 0.20447 0.0
O1140 O 0.40315 0.99481 0.36922 0.0
O1141 O 0.37553 0.9591 0.34792 0.0
O1142 O 0.43526 0.99289 0.27968 0.0
O1143 O 0.46073 0.95626 0.28958 0.0
O1144 O 0.44369 0.94334 0.37973 0.0
O1145 O 0.47963 0.91813 0.3288 0.0
O1146 O 0.46162 0.87143 0.21683 0.0
O1147 O 0.49705 0.89774 0.23684 0.0
O1148 O 0.43933 0.88041 0.31819 0.0
O1149 O 0.4133 0.91268 0.29916 0.0
O1150 O 0.43939 0.93083 0.20381 0.0
O1151 O 0.40288 0.95919 0.247 0.0
H1152 H 0.34056 0.02271 0.42728 0.0
H1153 H 0.33655 0.03435 0.51687 0.0
H1154 H 0.38927 0.9575 0.52901 0.0
H1155 H 0.39333 0.94619 0.4398 0.0
H1156 H 0.51692 0.82748 0.15872 0.0
H1157 H 0.5316 0.82012 0.0698 0.0
H1158 H 0.50006 0.9084 0.05531 0.0
H1159 H 0.4862 0.9159 0.14414 0.0
La1160 La 0.80128 0.66165 1.04266 0.0
La1161 La 0.8475 0.69185 1.00594 0.0
C1162 C 0.76929 0.62837 0.08795 0.0
C1163 C 0.76623 0.61812 0.13646 0.0
C1164 C 0.74414 0.5997 0.14824 0.0
C1165 C 0.73695 0.59512 0.19717 0.0
C1166 C 0.75182 0.60913 0.23439 0.0
C1167 C 0.77591 0.62484 0.22164 0.0
C1168 C 0.78299 0.62949 0.17274 0.0
C1169 C 0.78332 0.70254 0.98788 0.0
C1170 C 0.82286 0.71749 0.10679 0.0
C1171 C 0.88432 0.71536 0.95209 0.0
C1172 C 0.88364 0.7245 0.90213 0.0
C1173 C 0.90852 0.72576 0.8712 0.0
C1174 C 0.90762 0.73301 0.82286 0.0
C1175 C 0.88176 0.73882 0.80457 0.0
C1176 C 0.85692 0.73768 0.83594 0.0
C1177 C 0.85785 0.73064 0.88418 0.0
C1178 C 0.86159 0.65848 0.07759 0.0
C1179 C 0.81613 0.65006 0.92938 0.0
O1180 O 0.76419 0.65679 0.08723 0.0
O1181 O 0.79196 0.61885 0.05999 0.0
O1182 O 0.77232 0.67725 0.99327 0.0
O1183 O 0.80324 0.70547 1.01575 0.0
O1184 O 0.81073 0.69151 0.1079 0.0
O1185 O 0.83443 0.72552 0.06501 0.0
O1186 O 0.88335 0.68675 0.95489 0.0
O1187 O 0.86733 0.73033 0.98653 0.0
O1188 O 0.87216 0.68321 0.06719 0.0
O1189 O 0.84539 0.65102 1.04354 0.0
O1190 O 0.8321 0.67295 0.93673 0.0
O1191 O 0.80508 0.63779 0.96794 0.0
H1192 H 0.73123 0.59065 0.1202 0.0
H1193 H 0.71839 0.58281 0.20638 0.0
H1194 H 0.78754 0.63606 0.24977 0.0
H1195 H 0.80014 0.64379 0.16383 0.0
H1196 H 0.92859 0.72076 0.8842 0.0
H1197 H 0.92709 0.73335 0.79943 0.0
H1198 H 0.8367 0.74229 0.82322 0.0
H1199 H 0.83834 0.72966 0.90732 0.0
La1200 La 0.07937 0.04639 0.81158 0.0
La1201 La 0.0393 0.09141 0.78564 0.0
C1202 C 0.12007 0.02274 0.84562 0.0
C1203 C 0.13141 0.02543 0.89309 0.0
C1204 C 0.11751 0.04386 0.93248 0.0
C1205 C 0.12208 0.0395 0.98053 0.0
C1206 C 0.13989 0.01604 0.98906 0.0
C1207 C 0.15704 0.00088 0.94957 0.0
C1208 C 0.15264 0.00548 0.90141 0.0
C1209 C 0.04027 0.02202 0.76195 0.0
C1210 C 0.02644 0.07116 0.88984 0.0
C1211 C 0.00555 0.12568 0.75206 0.0
C1212 C 0.99457 0.1283 0.70463 0.0
C1213 C 0.97942 0.15404 0.69753 0.0
C1214 C 0.97081 0.15776 0.65115 0.0
C1215 C 0.97773 0.13594 0.61146 0.0
C1216 C 0.99212 0.10977 0.61911 0.0
C1217 C 1.00024 0.10585 0.66557 0.0
C1218 C 0.07826 0.11171 0.8442 0.0
C1219 C 0.08025 0.05576 0.69798 0.0
O1220 O 0.09508 0.01144 0.84593 0.0
O1221 O 0.12216 0.04613 0.82154 0.0
O1222 O 0.0651 0.01039 0.76266 0.0
O1223 O 0.03687 0.04492 0.79293 0.0
O1224 O 0.05251 0.05905 0.88361 0.0
O1225 O 0.01514 0.08112 0.85232 0.0
O1226 O 0.03237 0.13047 0.75327 0.0
O1227 O 0.99793 0.10236 0.77379 0.0
O1228 O 0.05267 0.12163 0.84699 0.0
O1229 O 0.08153 0.09242 0.80718 0.0
O1230 O 0.05724 0.07263 0.71101 0.0
O1231 O 0.09483 0.04609 0.73247 0.0
H1232 H 0.10098 0.05929 0.9264 0.0
H1233 H 0.10862 0.05142 1.01046 0.0
H1234 H 0.17099 0.98278 0.9557 0.0
H1235 H 0.16363 0.99129 0.87107 0.0
H1236 H 0.97483 0.1715 0.72752 0.0
H1237 H 0.95979 0.17811 0.64579 0.0
H1238 H 0.99743 0.09259 0.58891 0.0
H1239 H 0.01141 0.08561 0.67078 0.0
La1240 La 0.7211 0.35749 0.43578 0.0
La1241 La 0.67683 0.31621 0.39324 0.0
C1242 C 0.73888 0.39927 0.49043 0.0
C1243 C 0.73241 0.40718 0.54375 0.0
C1244 C 0.73296 0.385 0.57565 0.0
C1245 C 0.72479 0.39144 0.62557 0.0
C1246 C 0.71633 0.4204 0.64508 0.0
C1247 C 0.71603 0.44289 0.61352 0.0
C1248 C 0.72373 0.43621 0.56289 0.0
C1249 C 0.74147 0.30289 0.4007 0.0
C1250 C 0.69186 0.30753 0.49908 0.0
C1251 C 0.65131 0.28261 0.33389 0.0
C1252 C 0.6569 0.26847 0.28161 0.0
C1253 C 0.63524 0.26738 0.25025 0.0
C1254 C 0.63965 0.25392 0.20131 0.0
C1255 C 0.66594 0.24093 0.18182 0.0
C1256 C 0.68768 0.24204 0.21341 0.0
C1257 C 0.68327 0.25567 0.26242 0.0
C1258 C 0.65564 0.35807 0.46695 0.0
C1259 C 0.72337 0.34793 0.32028 0.0
O1260 O 0.75286 0.37408 0.47739 0.0
O1261 O 0.71788 0.40252 0.46382 0.0
O1262 O 0.75663 0.32636 0.40677 0.0
O1263 O 0.71715 0.31246 0.41513 0.0
O1264 O 0.70576 0.33286 0.49839 0.0
O1265 O 0.68159 0.29414 0.45911 0.0
O1266 O 0.64745 0.31166 0.34035 0.0
O1267 O 0.66646 0.27296 0.367 0.0
O1268 O 0.64375 0.33385 0.45125 0.0
O1269 O 0.67623 0.36048 0.43335 0.0
O1270 O 0.70516 0.32678 0.32801 0.0
O1271 O 0.72966 0.36676 0.35792 0.0
H1272 H 0.7399 0.36258 0.56206 0.0
H1273 H 0.72597 0.37384 0.64924 0.0
H1274 H 0.7098 0.46545 0.62799 0.0
H1275 H 0.72289 0.45358 0.53875 0.0
H1276 H 0.61467 0.27688 0.26374 0.0
H1277 H 0.62217 0.25335 0.17892 0.0
H1278 H 0.70834 0.23276 0.20006 0.0
H1279 H 0.70056 0.25621 0.28528 0.0
C1280 C 0.10134 0.44886 0.27887 0.0
C1281 C 0.10338 0.46315 0.23586 0.0
H1282 H 0.11247 0.44875 0.35222 0.0
C1283 C 0.11912 0.48892 0.23385 0.0
H1284 H 0.08948 0.429 0.28159 0.0
C1285 C 0.13233 0.50036 0.27468 0.0
C1286 C 0.13043 0.48571 0.3173 0.0
H1287 H 0.12107 0.50036 0.20099 0.0
H1288 H 0.14371 0.52069 0.27328 0.0
C1289 C 0.11494 0.45987 0.31902 0.0
C1290 C 0.79315 0.87282 0.59843 0.0
C1291 C 0.76557 0.8846 0.60674 0.0
H1292 H 0.82503 0.85166 0.54633 0.0
C1293 C 0.74963 0.8867 0.5668 0.0
H1294 H 0.80568 0.87042 0.62879 0.0
C1295 C 0.76076 0.87591 0.51933 0.0
C1296 C 0.78774 0.86247 0.51162 0.0
H1297 H 0.72824 0.89553 0.57263 0.0
H1298 H 0.74781 0.87692 0.48916 0.0
C1299 C 0.80407 0.86165 0.55132 0.0
C1300 C 0.39679 0.53769 0.82516 0.0
C1301 C 0.39917 0.52216 0.77803 0.0
H1302 H 0.38239 0.53764 0.90081 0.0
C1303 C 0.38747 0.49403 0.7708 0.0
H1304 H 0.40529 0.55947 0.83182 0.0
C1305 C 0.37428 0.48133 0.81074 0.0
C1306 C 0.37206 0.49705 0.8578 0.0
H1307 H 0.38895 0.48166 0.7346 0.0
H1308 H 0.36659 0.45905 0.80528 0.0
C1309 C 0.38303 0.52546 0.8645 0.0
C1310 C 0.7989 0.07615 0.16146 0.0
C1311 C 0.78038 0.06223 0.19393 0.0
H1312 H 0.80824 0.08747 0.08828 0.0
C1313 C 0.76019 0.04351 0.17465 0.0
H1314 H 0.81487 0.09043 0.17535 0.0
C1315 C 0.75647 0.04158 0.12451 0.0
C1316 C 0.77285 0.05838 0.09302 0.0
H1317 H 0.74565 0.03244 0.1988 0.0
H1318 H 0.73953 0.02857 0.11107 0.0
C1319 C 0.79517 0.07428 0.11143 0.0
C1320 C 0.89997 0.55098 0.11543 0.0
C1321 C 0.90012 0.53531 0.15679 0.0
H1322 H 0.88763 0.55191 1.04301 0.0
C1323 C 0.88672 0.50804 0.15711 0.0
H1324 H 0.9099 0.5721 0.11421 0.0
C1325 C 0.87387 0.49636 0.11602 0.0
C1326 C 0.8738 0.51217 0.07477 0.0
H1327 H 0.88651 0.49552 0.1887 0.0
H1328 H 0.86447 0.47484 0.11603 0.0
C1329 C 0.8867 0.53967 0.07502 0.0
C1330 C 0.24046 0.13581 0.87786 0.0
C1331 C 0.2127 0.14726 0.88397 0.0
H1332 H 0.27403 0.11587 0.82717 0.0
C1333 C 0.19673 0.1456 0.8435 0.0
H1334 H 0.25322 0.13667 0.90856 0.0
C1335 C 0.20849 0.13334 0.79746 0.0
C1336 C 0.23649 0.12274 0.79095 0.0
H1337 H 0.17521 0.15398 0.84714 0.0
H1338 H 0.196 0.13347 0.76649 0.0
C1339 C 0.25233 0.12375 0.83154 0.0
C1340 C 0.60837 0.46452 0.52217 0.0
C1341 C 0.61924 0.49305 0.52846 0.0
H1342 H 0.58749 0.42988 0.55637 0.0
C1343 C 0.61604 0.50941 0.57491 0.0
H1344 H 0.60972 0.45188 0.48618 0.0
C1345 C 0.60278 0.49708 0.61489 0.0
C1346 C 0.5926 0.46818 0.60891 0.0
H1347 H 0.62377 0.53168 0.58022 0.0
H1348 H 0.60116 0.50998 0.65065 0.0
C1349 C 0.59501 0.45222 0.56205 0.0
C1350 C 0.27646 0.94356 0.25135 0.0
C1351 C 0.2539 0.94147 0.28723 0.0
H1352 H 0.28965 0.94333 0.1747 0.0
C1353 C 0.22635 0.94291 0.27383 0.0
H1354 H 0.29788 0.94272 0.26098 0.0
C1355 C 0.22158 0.94326 0.22439 0.0
C1356 C 0.2443 0.9424 0.18784 0.0
H1357 H 0.20859 0.94126 0.30086 0.0
H1358 H 0.20024 0.94222 0.21439 0.0
C1359 C 0.27171 0.94414 0.20204 0.0
C1360 C 0.62981 0.00353 0.77659 0.0
C1361 C 0.63026 0.98771 0.81778 0.0
H1362 H 0.61688 0.00416 0.70408 0.0
C1363 C 0.61782 0.95996 0.81754 0.0
H1364 H 0.63884 0.02522 0.77659 0.0
C1365 C 0.60459 0.94843 0.77722 0.0
C1366 C 0.60401 0.96412 0.73596 0.0
H1367 H 0.61719 0.9477 0.8495 0.0
H1368 H 0.59499 0.92713 0.77845 0.0
C1369 C 0.617 0.99163 0.7356 0.0
C1370 C 0.26057 0.36821 1.029 0.0
C1371 C 0.2892 0.36242 1.01476 0.0
H1372 H 0.22921 0.37792 0.08961 0.0
C1373 C 0.30875 0.36803 1.04912 0.0
H1374 H 0.24514 0.3639 1.00286 0.0
C1375 C 0.29995 0.37845 0.09741 0.0
C1376 C 0.27123 0.38046 0.11351 0.0
H1377 H 0.33083 0.36305 1.03938 0.0
H1378 H 0.31573 0.38233 0.12302 0.0
C1379 C 0.25153 0.37666 0.07849 0.0
C1380 C 0.88326 0.99213 0.27121 0.0
C1381 C 0.89365 0.02088 0.27818 0.0
H1382 H 0.86408 0.95633 0.30596 0.0
C1383 C 0.89036 0.03671 0.32507 0.0
H1384 H 0.88544 0.97953 0.23517 0.0
C1385 C 0.87724 0.02403 0.36456 0.0
C1386 C 0.86779 0.99492 0.35822 0.0
H1387 H 0.8978 0.059 0.33143 0.0
H1388 H 0.876 0.03646 0.40073 0.0
C1389 C 0.87069 0.97904 0.31125 0.0
C1390 C 0.23133 0.55185 0.64216 0.0
C1391 C 0.25375 0.5547 0.60634 0.0
H1392 H 0.21833 0.55144 0.71877 0.0
C1393 C 0.28135 0.55403 0.61968 0.0
H1394 H 0.2099 0.5521 0.63255 0.0
C1395 C 0.28622 0.55369 0.66906 0.0
C1396 C 0.26357 0.55376 0.70558 0.0
H1397 H 0.29899 0.55628 0.59269 0.0
H1398 H 0.30753 0.55535 0.67908 0.0
C1399 C 0.23621 0.55125 0.69141 0.0
C1400 C 0.39799 0.04993 0.61607 0.0
C1401 C 0.39807 0.03448 0.65769 0.0
H1402 H 0.38573 0.0505 0.54353 0.0
C1403 C 0.38465 0.00722 0.65831 0.0
H1404 H 0.40795 0.07103 0.61459 0.0
C1405 C 0.37186 0.99534 0.61729 0.0
C1406 C 0.37184 0.01096 0.57582 0.0
H1407 H 0.38439 0.99487 0.6901 0.0
H1408 H 0.36246 0.97383 0.61751 0.0
C1409 C 0.38476 0.03844 0.57573 0.0
C1410 C 0.71113 0.6258 0.29337 0.0
C1411 C 0.73866 0.61388 0.28518 0.0
H1412 H 0.67928 0.64715 0.34532 0.0
C1413 C 0.75457 0.61182 0.32517 0.0
H1414 H 0.69863 0.62818 0.26295 0.0
C1415 C 0.74343 0.62272 0.37258 0.0
C1416 C 0.71648 0.63624 0.38018 0.0
H1417 H 0.77593 0.6029 0.31941 0.0
H1418 H 0.75634 0.6217 0.40279 0.0
C1419 C 0.70021 0.63709 0.34042 0.0
C1420 C 0.11755 0.00356 0.12017 0.0
C1421 C 0.10673 0.97501 0.11297 0.0
H1422 H 0.13725 0.03921 0.08576 0.0
C1423 C 0.1093 0.95955 0.06578 0.0
H1424 H 0.11588 0.01591 0.1564 0.0
C1425 C 0.12241 0.9723 1.02633 0.0
C1426 C 0.13259 0.00108 1.03308 0.0
H1427 H 0.10145 0.93746 0.05917 0.0
H1428 H 0.12328 0.96014 0.98998 0.0
C1429 C 0.13013 0.0167 0.08021 0.0
C1430 C 0.6947 0.40747 0.72576 0.0
C1431 C 0.711 0.42679 0.69902 0.0
H1432 H 0.68594 0.39002 0.79487 0.0
C1433 C 0.72711 0.44774 0.7242 0.0
H1434 H 0.682 0.39123 0.70704 0.0
C1435 C 0.72969 0.44677 0.77435 0.0
C1436 C 0.71608 0.42492 0.79969 0.0
H1437 H 0.73995 0.46275 0.70426 0.0
H1438 H 0.7444 0.46119 0.79192 0.0
C1439 C 0.69714 0.40661 0.77581 0.0
C1440 C 0.11453 0.33928 0.23907 0.0
C1441 C 0.13219 0.35373 0.27264 0.0
H1442 H 0.09498 0.33832 0.17067 0.0
C1443 C 0.14392 0.38014 0.25808 0.0
H1444 H 0.10503 0.31873 0.24748 0.0
C1445 C 0.13817 0.39134 0.21284 0.0
C1446 C 0.11991 0.37723 0.17991 0.0
H1447 H 0.15757 0.39231 0.2817 0.0
H1448 H 0.14792 0.41168 0.20399 0.0
C1449 C 0.10851 0.35066 0.19427 0.0
C1450 C 0.91579 0.86466 0.45968 0.0
C1451 C 0.90485 0.87911 0.50593 0.0
H1452 H 0.90805 0.84863 0.38533 0.0
C1453 C 0.87661 0.88895 0.51104 0.0
H1454 H 0.93746 0.85675 0.45407 0.0
C1455 C 0.86011 0.88526 0.47096 0.0
C1456 C 0.87077 0.87013 0.42513 0.0
H1457 H 0.8671 0.89932 0.54613 0.0
H1458 H 0.83865 0.89376 0.47636 0.0
C1459 C 0.899 0.86016 0.41998 0.0
C1460 C 0.37736 0.64129 0.83938 0.0
C1461 C 0.35913 0.62551 0.87111 0.0
H1462 H 0.39851 0.64522 0.76684 0.0
C1463 C 0.3485 0.59943 0.84748 0.0
H1464 H 0.38632 0.66159 0.85439 0.0
C1465 C 0.35571 0.58997 0.79585 0.0
C1466 C 0.37446 0.60551 0.76452 0.0
H1467 H 0.33469 0.58602 0.86888 0.0
H1468 H 0.3468 0.56972 0.78053 0.0
C1469 C 0.38469 0.63175 0.78807 0.0
C1470 C 0.65123 0.11447 0.97069 0.0
C1471 C 0.63797 0.12219 0.92974 0.0
H1472 H 0.64616 0.10289 1.04556 0.0
C1473 C 0.60853 0.12073 0.93257 0.0
H1474 H 0.67349 0.11662 0.97134 0.0
C1475 C 0.59278 0.11468 0.97591 0.0
C1476 C 0.6058 0.10857 1.01775 0.0
H1477 H 0.59734 0.12722 0.90261 0.0
H1478 H 0.57013 0.11609 0.97726 0.0
C1479 C 0.63537 0.10724 1.01394 0.0
C1480 C 0.13795 0.60328 0.51213 0.0
C1481 C 0.10837 0.6061 0.51745 0.0
H1482 H 0.17611 0.61094 0.46746 0.0
C1483 C 0.09504 0.61378 0.47685 0.0
H1484 H 0.14899 0.59738 0.54261 0.0
C1485 C 0.1105 0.6204 0.4337 0.0
C1486 C 0.14 0.62069 0.42977 0.0
H1487 H 0.0724 0.61609 0.47915 0.0
H1488 H 0.09913 0.62824 0.40494 0.0
C1489 C 0.1536 0.6107 0.46873 0.0
C1490 C 0.6409 0.89246 0.70878 0.0
C1491 C 0.622 0.87868 0.67675 0.0
H1492 H 0.6617 0.89274 0.77608 0.0
C1493 C 0.61082 0.85201 0.69109 0.0
H1494 H 0.65055 0.91283 0.69982 0.0
C1495 C 0.61761 0.84025 0.73512 0.0
C1496 C 0.63589 0.85439 0.76787 0.0
H1497 H 0.59688 0.83989 0.66804 0.0
H1498 H 0.60824 0.81965 0.74359 0.0
C1499 C 0.64743 0.88089 0.75328 0.0
C1500 C 0.41379 0.3641 0.95971 0.0
C1501 C 0.40336 0.38092 1.0043 0.0
H1502 H 0.40574 0.34567 0.88664 0.0
C1503 C 0.37612 0.39338 1.00694 0.0
H1504 H 0.4348 0.35429 0.95579 0.0
C1505 C 0.35985 0.38919 0.96659 0.0
C1506 C 0.36962 0.37103 0.92311 0.0
H1507 H 0.36699 0.40584 1.04058 0.0
H1508 H 0.33895 0.39923 0.97047 0.0
C1509 C 0.39721 0.35927 0.91974 0.0
C1510 C 0.87518 0.13899 0.33886 0.0
C1511 C 0.85575 0.1243 0.37017 0.0
H1512 H 0.8966 0.14235 0.26646 0.0
C1513 C 0.84316 0.09963 0.34583 0.0
H1514 H 0.88549 0.15832 0.35431 0.0
C1515 C 0.85 0.0902 0.29411 0.0
C1516 C 0.87002 0.10456 0.26326 0.0
H1517 H 0.82833 0.0871 0.36682 0.0
H1518 H 0.83981 0.07087 0.27836 0.0
C1519 C 0.88192 0.12964 0.28737 0.0
C1520 C 0.89332 0.64676 0.20135 0.0
C1521 C 0.88211 0.62018 0.21604 0.0
H1522 H 0.89589 0.6789 0.14848 0.0
C1523 C 0.86317 0.60631 0.18416 0.0
H1524 H 0.90732 0.65893 0.22421 0.0
C1525 C 0.85663 0.6177 0.1395 0.0
C1526 C 0.86818 0.64412 0.1246 0.0
H1527 H 0.8535 0.586 0.19336 0.0
H1528 H 0.84234 0.60578 0.11684 0.0
C1529 C 0.8865 0.65835 0.15719 0.0
C1530 C 0.08456 0.12713 0.93393 0.0
C1531 C 0.09641 0.1159 0.88628 0.0
H1532 H 0.09146 0.14125 1.00938 0.0
C1533 C 0.12538 0.10907 0.87996 0.0
H1534 H 0.0623 0.13249 0.9405 0.0
C1535 C 0.14197 0.11353 0.91987 0.0
C1536 C 0.13034 0.12593 0.96699 0.0
H1537 H 0.13538 0.10078 0.84396 0.0
H1538 H 0.16422 0.10819 0.9133 0.0
C1539 C 0.10121 0.13191 0.97372 0.0
C1540 C 0.65498 0.40013 0.5424 0.0
C1541 C 0.65073 0.37056 0.52293 0.0
H1542 H 0.65032 0.43375 0.60517 0.0
C1543 C 0.63915 0.3522 0.55849 0.0
H1544 H 0.66357 0.41562 0.51795 0.0
C1545 C 0.63241 0.36238 0.60966 0.0
C1546 C 0.63457 0.39239 0.62857 0.0
H1547 H 0.63528 0.32927 0.54672 0.0
H1548 H 0.62538 0.34638 0.63438 0.0
C1549 C 0.64705 0.41065 0.59341 0.0
C1550 C 0.35228 0.88564 0.42496 0.0
C1551 C 0.36624 0.87593 0.46372 0.0
H1552 H 0.3563 0.89868 0.35089 0.0
C1553 C 0.39572 0.87653 0.45932 0.0
H1554 H 0.32978 0.8852 0.42667 0.0
C1555 C 0.41085 0.88313 0.41588 0.0
C1556 C 0.39718 0.89051 0.37546 0.0
H1557 H 0.40735 0.86894 0.48797 0.0
H1558 H 0.43351 0.88101 0.41322 0.0
C1559 C 0.3676 0.89304 0.38123 0.0
C1560 C 0.90861 0.3853 0.91751 0.0
C1561 C 0.89621 0.39044 0.87458 0.0
H1562 H 0.90317 0.37315 0.99102 0.0
C1563 C 0.86675 0.39031 0.87638 0.0
H1564 H 0.9312 0.38485 0.91751 0.0
C1565 C 0.85046 0.3825 0.91869 0.0
C1566 C 0.86311 0.37593 0.96104 0.0
H1567 H 0.8565 0.39374 0.84375 0.0
H1568 H 0.82854 0.3789 0.91582 0.0
C1569 C 0.89235 0.37893 0.96016 0.0
C1570 C 0.38368 0.15827 0.65863 0.0
C1571 C 0.36574 0.1438 0.62561 0.0
H1572 H 0.40425 0.15896 0.72593 0.0
C1573 C 0.35464 0.11704 0.63989 0.0
H1574 H 0.39271 0.17907 0.65037 0.0
C1575 C 0.36119 0.10559 0.68446 0.0
C1576 C 0.37975 0.11973 0.71679 0.0
H1577 H 0.34066 0.10492 0.61685 0.0
H1578 H 0.35185 0.08504 0.69324 0.0
C1579 C 0.39055 0.14661 0.70268 0.0
C1580 C 0.62803 0.60924 0.3797 0.0
C1581 C 0.59967 0.61868 0.38485 0.0
H1582 H 0.66597 0.60461 0.41454 0.0
C1583 C 0.58861 0.63287 0.43124 0.0
H1584 H 0.63768 0.59919 0.3445 0.0
C1585 C 0.60534 0.63749 0.47099 0.0
C1586 C 0.63364 0.6278 0.46588 0.0
H1587 H 0.56686 0.64053 0.43693 0.0
H1588 H 0.59616 0.64885 0.50569 0.0
C1589 C 0.64444 0.61288 0.41994 0.0
C1590 C 0.15813 0.89809 1.04518 0.0
C1591 C 0.14733 0.87208 1.02162 0.0
H1592 H 0.15996 0.92783 0.11207 0.0
C1593 C 0.12905 0.85639 0.0534 0.0
H1594 H 0.17198 0.91142 1.0237 0.0
C1595 C 0.12192 0.8659 0.10474 0.0
C1596 C 0.13228 0.89208 0.12823 0.0
H1597 H 0.11998 0.83615 1.03844 0.0
H1598 H 0.10815 0.85244 0.12605 0.0
C1599 C 0.151 0.90759 0.09681 0.0
C1600 C 0.97298 0.49861 0.20765 0.0
C1601 C 0.98886 0.51884 0.23505 0.0
H1602 H 0.97298 0.46378 0.1487 0.0
C1603 C 0.01806 0.51892 0.22265 0.0
H1604 H 0.95046 0.49807 0.21565 0.0
C1605 C 0.03094 0.49967 0.18345 0.0
C1606 C 0.01507 0.47939 0.15613 0.0
H1607 H 0.03092 0.53451 0.2424 0.0
H1608 H 0.05347 0.50018 0.17548 0.0
C1609 C 0.98586 0.47937 0.16843 0.0
C1610 C 0.75179 0.7802 0.44993 0.0
C1611 C 0.76898 0.76383 0.4117 0.0
H1612 H 0.72175 0.77906 0.51268 0.0
C1613 C 0.76883 0.73264 0.40846 0.0
H1614 H 0.75172 0.80421 0.45419 0.0
C1615 C 0.75214 0.7182 0.44273 0.0
C1616 C 0.73493 0.73457 0.48093 0.0
H1617 H 0.78215 0.71933 0.37995 0.0
H1618 H 0.75223 0.69419 0.43847 0.0
C1619 C 0.73509 0.76576 0.48418 0.0
C1620 C 0.48679 0.46577 0.69071 0.0
C1621 C 0.51328 0.46915 0.70877 0.0
H1622 H 0.45388 0.48496 0.65535 0.0
C1623 C 0.52665 0.49613 0.70553 0.0
H1624 H 0.47583 0.4452 0.69266 0.0
C1625 C 0.51441 0.5186 0.68234 0.0
C1626 C 0.48813 0.51485 0.66327 0.0
H1627 H 0.54669 0.49977 0.71982 0.0
H1628 H 0.52526 0.53922 0.68062 0.0
C1629 C 0.47441 0.48825 0.66826 0.0
C1630 C 0.72716 0.24795 0.92248 0.0
C1631 C 0.74635 0.22388 0.9091 0.0
H1632 H 0.71763 0.28938 0.96661 0.0
C1633 C 0.77136 0.22342 0.93181 0.0
H1634 H 0.70754 0.24872 0.9062 0.0
C1635 C 0.77686 0.24644 0.96736 0.0
C1636 C 0.75754 0.2704 0.98096 0.0
H1637 H 0.78626 0.20488 0.92334 0.0
H1638 H 0.79656 0.2458 0.98354 0.0
C1639 C 0.73258 0.27088 0.95814 0.0
C1640 C 0.97654 0.51348 0.70609 0.0
C1641 C 0.98212 0.48856 0.73069 0.0
H1642 H 0.99181 0.5423 0.65291 0.0
C1643 C 0.00812 0.47345 0.72011 0.0
H1644 H 0.95654 0.52547 0.71341 0.0
C1645 C 0.02821 0.48312 0.68548 0.0
C1646 C 0.02263 0.50803 0.66087 0.0
H1647 H 0.01295 0.45428 0.7386 0.0
H1648 H 0.0482 0.4711 0.67813 0.0
C1649 C 0.99664 0.52316 0.67146 0.0
C1650 C 0.77569 0.75636 0.97071 0.0
C1651 C 0.76778 0.72663 0.96614 0.0
H1652 H 0.76698 0.80102 0.95555 0.0
C1653 C 0.74382 0.71973 0.94097 0.0
H1654 H 0.79383 0.76269 0.98973 0.0
C1655 C 0.72825 0.74175 0.92128 0.0
C1656 C 0.73617 0.77148 0.92585 0.0
H1657 H 0.73697 0.69709 0.93646 0.0
H1658 H 0.71012 0.73542 0.90225 0.0
C1659 C 0.76013 0.77837 0.95102 0.0
C1660 C 0.51114 0.47229 0.16362 0.0
C1661 C 0.48404 0.48461 0.16526 0.0
H1662 H 0.55117 0.47563 0.19194 0.0
C1663 C 0.47619 0.50998 0.1984 0.0
H1664 H 0.51763 0.45275 0.13861 0.0
C1665 C 0.4952 0.52306 0.22902 0.0
C1666 C 0.52238 0.51093 0.22709 0.0
H1667 H 0.45525 0.51986 0.20067 0.0
H1668 H 0.4887 0.54264 0.25393 0.0
C1669 C 0.5302 0.48542 0.19422 0.0
C1670 C 0.73563 0.22665 0.44365 0.0
C1671 C 0.75838 0.22543 0.47239 0.0
H1672 H 0.71372 0.25125 0.39563 0.0
C1673 C 0.77709 0.24894 0.47327 0.0
H1674 H 0.72133 0.20852 0.44063 0.0
C1675 C 0.77305 0.27317 0.44654 0.0
C1676 C 0.75019 0.27446 0.41805 0.0
H1677 H 0.79523 0.24829 0.49398 0.0
H1678 H 0.78734 0.29131 0.44954 0.0
C1679 C 0.73172 0.25075 0.41667 0.0
C1680 C 0.24552 0.28275 0.94405 0.0
C1681 C 0.26655 0.26457 0.91624 0.0
H1682 H 0.20825 0.28497 0.9938 0.0
C1683 C 0.26716 0.23393 0.92154 0.0
H1684 H 0.24474 0.30645 0.94178 0.0
C1685 C 0.24664 0.22169 0.95274 0.0
C1686 C 0.22499 0.23982 0.9788 0.0
H1687 H 0.28344 0.21933 0.90136 0.0
H1688 H 0.24692 0.19797 0.95409 0.0
C1689 C 0.22506 0.27051 0.97487 0.0
C1690 C 0.27267 0.72471 0.43252 0.0
C1691 C 0.24706 0.72523 0.41171 0.0
H1692 H 0.29886 0.74668 0.4829 0.0
C1693 C 0.22772 0.74894 0.42731 0.0
H1694 H 0.28769 0.7064 0.42241 0.0
C1695 C 0.23376 0.77161 0.46299 0.0
C1696 C 0.2594 0.77113 0.48371 0.0
H1697 H 0.20755 0.74963 0.4127 0.0
H1698 H 0.21875 0.78993 0.47307 0.0
C1699 C 0.2787 0.74737 0.46824 0.0
C1700 C 0.2695 0.25505 0.47864 0.0
C1701 C 0.26322 0.22494 0.4708 0.0
H1702 H 0.25864 0.29989 0.46765 0.0
C1703 C 0.23995 0.21752 0.44407 0.0
H1704 H 0.28703 0.26177 0.49905 0.0
C1705 C 0.22349 0.23942 0.42591 0.0
C1706 C 0.22979 0.26955 0.4338 0.0
H1707 H 0.23438 0.19454 0.4371 0.0
H1708 H 0.206 0.23273 0.40541 0.0
C1709 C 0.25303 0.27694 0.46061 0.0
C1710 C 0.27735 0.74705 0.97072 0.0
C1711 C 0.25846 0.72387 0.97479 0.0
H1712 H 0.28654 0.78843 0.94233 0.0
C1713 C 0.23371 0.72507 0.95111 0.0
H1714 H 0.29681 0.74658 0.9878 0.0
C1715 C 0.22816 0.74871 0.9239 0.0
C1716 C 0.24709 0.77186 0.91972 0.0
H1717 H 0.219 0.7073 0.95225 0.0
H1718 H 0.20866 0.74923 0.90689 0.0
C1719 C 0.27182 0.77066 0.94346 0.0
C1720 C 0.47183 -0.00135 0.70831 0.0
C1721 C 0.4873 0.01897 0.73635 0.0
H1722 H 0.47261 0.96384 0.64914 0.0
C1723 C 0.51658 0.01917 0.72501 0.0
H1724 H 0.44926 0.99802 0.7155 0.0
C1725 C 0.52994 -1e-05 0.68614 0.0
C1726 C 0.51446 0.9797 0.65805 0.0
H1727 H 0.52916 0.03481 0.74531 0.0
H1728 H 0.55251 0.00063 0.67895 0.0
C1729 C 0.48518 0.97948 0.66944 0.0
C1730 C 0.02947 0.00114 0.19761 0.0
C1731 C 0.01621 0.97961 0.2242 0.0
H1732 H 0.02516 0.03501 0.14989 0.0
C1733 C 0.98712 0.97632 0.22253 0.0
H1734 H 0.05181 0.0042 0.19754 0.0
C1735 C 0.97185 0.99365 0.19433 0.0
C1736 C 0.98515 0.01512 0.16763 0.0
H1737 H 0.97623 0.95965 0.2419 0.0
H1738 H 0.94949 0.99069 0.19453 0.0
C1739 C 0.01424 0.01838 0.1693 0.0
C1740 C 0.4751 0.01473 0.20762 0.0
C1741 C 0.48097 0.98976 0.23191 0.0
H1742 H 0.49002 0.04395 0.15482 0.0
C1743 C 0.50711 0.97497 0.22116 0.0
H1744 H 0.45499 0.0265 0.21512 0.0
C1745 C 0.52705 0.98499 0.18665 0.0
C1746 C 0.52118 0.00993 0.1623 0.0
H1747 H 0.51217 0.95579 0.23946 0.0
H1748 H 0.54716 0.97321 0.17918 0.0
C1749 C 0.49506 0.02476 0.1731 0.0
C1750 C 0.97465 0.01068 0.69665 0.0
C1751 C 0.98252 0.98553 0.66309 0.0
H1752 H 0.9867 0.04199 0.75458 0.0
C1753 C 0.00926 0.97245 0.6627 0.0
H1754 H 0.95402 0.02114 0.69789 0.0
C1755 C 0.02786 0.98442 0.69527 0.0
C1756 C 0.01999 0.0096 0.72878 0.0
H1757 H 0.01578 0.9531 0.63731 0.0
H1758 H 0.0485 0.97398 0.69404 0.0
C1759 C 0.99324 0.02264 0.72921 0.0
C1760 C 0.03214 0.41059 0.9424 0.0
C1761 C 0.02029 0.40767 0.9905 0.0
H1762 H 0.02584 0.41955 0.86905 0.0
C1763 C 0.991 0.41286 1.00062 0.0
H1764 H 0.05462 0.40772 0.93336 0.0
C1765 C 0.97426 0.42088 0.96361 0.0
C1766 C 0.98631 0.42338 0.91522 0.0
H1767 H 0.98119 0.41193 1.03764 0.0
H1768 H 0.95192 0.42484 0.97279 0.0
C1769 C 0.01552 0.41786 0.9055 0.0
C1770 C 0.83109 0.72251 0.19625 0.0
C1771 C 0.82812 0.73563 0.15266 0.0
H1772 H 0.83868 0.72961 0.27261 0.0
C1773 C 0.83305 0.76597 0.15173 0.0
H1774 H 0.82804 0.69899 0.19759 0.0
C1775 C 0.83943 0.78321 0.19415 0.0
C1776 C 0.84172 0.77035 0.23802 0.0
H1777 H 0.83124 0.77658 0.11848 0.0
H1778 H 0.84131 0.80693 0.19333 0.0
C1779 C 0.838 0.73977 0.23865 0.0
C1780 C 0.52441 0.5815 0.48337 0.0
C1781 C 0.5126 0.57621 0.43798 0.0
H1782 H 0.51688 0.59056 0.5628 0.0
C1783 C 0.48306 0.57726 0.43969 0.0
H1784 H 0.547 0.58136 0.48385 0.0
C1785 C 0.46595 0.5826 0.48452 0.0
C1786 C 0.47745 0.58797 0.52997 0.0
H1787 H 0.47293 0.57349 0.40596 0.0
H1788 H 0.4434 0.58202 0.48361 0.0
C1789 C 0.50708 0.58747 0.52867 0.0
C1790 C 0.66086 0.26337 0.59909 0.0
C1791 C 0.67553 0.27418 0.63895 0.0
H1792 H 0.65486 0.26514 0.52304 0.0
C1793 C 0.69665 0.29464 0.63165 0.0
H1794 H 0.64474 0.24723 0.60366 0.0
C1795 C 0.70258 0.30463 0.58563 0.0
C1796 C 0.68748 0.29447 0.54603 0.0
H1797 H 0.70823 0.30339 0.66179 0.0
H1798 H 0.71883 0.32052 0.58137 0.0
C1799 C 0.66689 0.27333 0.55289 0.0
C1800 C 0.00183 0.63899 0.97042 0.0
C1801 C 0.97551 0.64863 0.99423 0.0
H1802 H 0.02633 0.62656 0.90187 0.0
C1803 C 0.95336 0.65416 0.96592 0.0
H1804 H 0.01911 0.6341 0.99145 0.0
C1805 C 0.95759 0.65002 0.91437 0.0
C1806 C 0.98378 0.63953 0.89085 0.0
H1807 H 0.93287 0.66143 0.98368 0.0
H1808 H 0.9403 0.65425 0.89297 0.0
C1809 C 0.00588 0.63433 0.91928 0.0
C1810 C 0.64453 0.7602 0.21688 0.0
C1811 C 0.62582 0.74062 0.23819 0.0
H1812 H 0.65792 0.78148 0.15297 0.0
C1813 C 0.606 0.72686 0.20935 0.0
H1814 H 0.6602 0.77096 0.23797 0.0
C1815 C 0.60468 0.73292 0.1605 0.0
C1816 C 0.62337 0.75257 0.13928 0.0
H1817 H 0.59118 0.71185 0.22485 0.0
H1818 H 0.58918 0.72202 0.13919 0.0
C1819 C 0.64337 0.76603 0.16802 0.0
C1820 C 0.50644 0.3737 0.43491 0.0
C1821 C 0.52054 0.34831 0.44692 0.0
H1822 H 0.48998 0.39619 0.37859 0.0
C1823 C 0.52917 0.32572 0.40906 0.0
H1824 H 0.49984 0.39177 0.46291 0.0
C1825 C 0.5242 0.32864 0.36037 0.0
C1826 C 0.5102 0.35409 0.34835 0.0
H1827 H 0.5398 0.3057 0.41696 0.0
H1828 H 0.53172 0.31108 0.33206 0.0
C1829 C 0.5012 0.37649 0.38631 0.0
C1830 C 0.84261 0.26986 0.84997 0.0
C1831 C 0.82461 0.29501 0.86308 0.0
H1832 H 0.86094 0.23725 0.79311 0.0
C1833 C 0.81128 0.30658 0.82512 0.0
H1834 H 0.85322 0.26001 0.87778 0.0
C1835 C 0.81576 0.29332 0.77587 0.0
C1836 C 0.8339 0.26817 0.7628 0.0
H1837 H 0.7972 0.32583 0.83344 0.0
H1838 H 0.80524 0.30308 0.74788 0.0
C1839 C 0.8472 0.25677 0.80092 0.0
C1840 C 0.03044 0.57746 0.42904 0.0
C1841 C 0.01857 0.57409 0.47725 0.0
H1842 H 0.02314 0.58696 0.35539 0.0
C1843 C 0.98926 0.57872 0.48703 0.0
H1844 H 0.05286 0.5743 0.41985 0.0
C1845 C 0.97237 0.58585 0.45036 0.0
C1846 C 0.98401 0.58957 0.40239 0.0
H1847 H 0.97907 0.57639 0.52335 0.0
H1848 H 0.94986 0.58801 0.45948 0.0
C1849 C 0.01342 0.58535 0.39226 0.0
C1850 C 0.16764 0.27737 0.20135 0.0
C1851 C 0.16819 0.26332 0.24468 0.0
H1852 H 0.16168 0.27237 0.12417 0.0
C1853 C 0.16026 0.23366 0.24409 0.0
H1854 H 0.17301 0.30044 0.20099 0.0
C1855 C 0.15347 0.21788 0.20049 0.0
C1856 C 0.15369 0.23161 0.15688 0.0
H1857 H 0.16015 0.22235 0.27702 0.0
H1858 H 0.14943 0.19444 0.20019 0.0
C1859 C 0.16033 0.26165 0.1578 0.0
C1860 C 0.51342 0.39271 0.94283 0.0
C1861 C 0.49294 0.41612 0.95352 0.0
H1862 H 0.54611 0.37069 0.8911 0.0
C1863 C 0.48929 0.43438 0.91598 0.0
H1864 H 0.51689 0.37788 0.97032 0.0
C1865 C 0.50633 0.43029 0.87064 0.0
C1866 C 0.5271 0.40725 0.86033 0.0
H1867 H 0.47387 0.45253 0.9222 0.0
H1868 H 0.50366 0.44573 0.84369 0.0
C1869 C 0.53006 0.38822 0.89697 0.0
C1870 C 0.34952 0.73241 0.79346 0.0
C1871 C 0.33574 0.72077 0.753 0.0
H1872 H 0.35478 0.73114 0.86993 0.0
C1873 C 0.31631 0.69846 0.75896 0.0
H1874 H 0.36441 0.74987 0.78975 0.0
C1875 C 0.31074 0.68788 0.80457 0.0
C1876 C 0.32444 0.69947 0.84517 0.0
H1877 H 0.3056 0.68898 0.72818 0.0
H1878 H 0.29565 0.67059 0.80784 0.0
C1879 C 0.34382 0.72191 0.83932 0.0
C1880 C 0.00109 0.35654 0.42392 0.0
C1881 C 0.02776 0.34926 0.39927 0.0
H1882 H 0.97674 0.36677 0.49332 0.0
C1883 C 0.05063 0.34546 0.42681 0.0
H1884 H 0.98321 0.36016 0.40357 0.0
C1885 C 0.04684 0.34906 0.47837 0.0
C1886 C 0.02027 0.3572 0.50265 0.0
H1887 H 0.07137 0.34012 0.40838 0.0
H1888 H 0.06469 0.34636 0.4992 0.0
C1889 C 0.99743 0.36065 0.47512 0.0
C1890 C 0.39598 0.27286 0.18579 0.0
C1891 C 0.37717 0.25821 0.15582 0.0
H1892 H 0.41154 0.2785 0.25701 0.0
C1893 C 0.35894 0.23785 0.17618 0.0
H1894 H 0.41042 0.28851 0.17108 0.0
C1895 C 0.35959 0.23212 0.22519 0.0
C1896 C 0.3786 0.24647 0.25508 0.0
H1897 H 0.34403 0.22639 0.15421 0.0
H1898 H 0.34545 0.21606 0.23948 0.0
C1899 C 0.39681 0.26691 0.23482 0.0
C1900 C 0.49679 0.64248 1.02483 0.0
C1901 C 0.47427 0.64339 0.0615 0.0
H1902 H 0.50972 0.64381 0.94844 0.0
C1903 C 0.44683 0.64822 1.04935 0.0
H1904 H 0.51812 0.63893 1.03364 0.0
C1905 C 0.44194 0.65071 1.00035 0.0
C1906 C 0.46454 0.64916 0.96347 0.0
H1907 H 0.42921 0.649 0.07734 0.0
H1908 H 0.42059 0.65333 0.9911 0.0
C1909 C 0.492 0.64556 0.97632 0.0
C1910 C 0.18473 0.70179 0.61676 0.0
C1911 C 0.16783 0.72788 0.62945 0.0
H1912 H 0.20226 0.66856 0.55966 0.0
C1913 C 0.1554 0.74 0.59101 0.0
H1914 H 0.1945 0.69143 0.64497 0.0
C1915 C 0.15982 0.72678 0.54195 0.0
C1916 C 0.17672 0.70077 0.52923 0.0
H1917 H 0.14258 0.76019 0.59857 0.0
H1918 H 0.15007 0.73723 0.5138 0.0
C1919 C 0.18901 0.68843 0.5676 0.0
C1920 C 0.47392 0.92061 0.46377 0.0
C1921 C 0.48588 0.92364 0.41551 0.0
H1922 H 0.48108 0.91161 0.53772 0.0
C1923 C 0.51519 0.9189 0.40587 0.0
H1924 H 0.4515 0.92388 0.47285 0.0
C1925 C 0.53198 0.91198 0.44276 0.0
C1926 C 0.52025 0.90862 0.49079 0.0
H1927 H 0.52544 0.921 0.36951 0.0
H1928 H 0.5545 0.90974 0.43377 0.0
C1929 C 0.49086 0.91294 0.50078 0.0
C1930 C 0.32988 0.26484 0.65456 0.0
C1931 C 0.32464 0.23454 0.65535 0.0
H1932 H 0.33871 0.30558 0.69621 0.0
C1933 C 0.32748 0.2213 0.69887 0.0
H1934 H 0.32818 0.27556 0.6214 0.0
C1935 C 0.33461 0.23839 0.74129 0.0
C1936 C 0.33876 0.26891 0.74072 0.0
H1937 H 0.32419 0.19782 0.70013 0.0
H1938 H 0.33521 0.22817 0.77521 0.0
C1939 C 0.33653 0.28189 0.69696 0.0
C1940 C 0.96195 0.08148 0.98469 0.0
C1941 C 0.97313 0.08683 1.03041 0.0
H1942 H 0.96947 0.07235 0.9062 0.0
C1943 C 0.00272 0.08634 1.0298 0.0
H1944 H 0.93943 0.08086 0.98332 0.0
C1945 C 0.02034 0.08036 0.98487 0.0
C1946 C 0.00886 0.07509 0.93919 0.0
H1947 H 0.01226 0.0894 0.06419 0.0
H1948 H 0.04289 0.08016 0.98587 0.0
C1949 C 0.97935 0.07615 0.94019 0.0
C1950 C 0.1849 0.81335 0.09228 0.0
C1951 C 0.17889 0.79721 1.04811 0.0
H1952 H 0.18375 0.81491 0.17057 0.0
C1953 C 0.16599 0.76979 1.04976 0.0
H1954 H 0.1946 0.83465 0.09236 0.0
C1955 C 0.15956 0.75858 0.0948 0.0
C1956 C 0.16583 0.77465 0.13887 0.0
H1957 H 0.16099 0.75691 1.01633 0.0
H1958 H 0.14962 0.73736 0.09516 0.0
C1959 C 0.17839 0.80222 0.13722 0.0
C1960 C 0.50252 0.13388 0.41939 0.0
C1961 C 0.48051 0.13967 0.3911 0.0
H1962 H 0.51574 0.133 0.49146 0.0
C1963 C 0.45442 0.15034 0.41481 0.0
H1964 H 0.5229 0.12595 0.40185 0.0
C1965 C 0.45022 0.15418 0.46638 0.0
C1966 C 0.47232 0.14817 0.49452 0.0
H1967 H 0.43719 0.15501 0.39354 0.0
H1968 H 0.42982 0.16167 0.4843 0.0
C1969 C 0.49852 0.13825 0.47055 0.0
C1970 C 0.13073 0.26818 0.68073 0.0
C1971 C 0.10811 0.26127 0.65266 0.0
H1972 H 0.14824 0.26669 0.74948 0.0
C1973 C 0.08458 0.24825 0.67544 0.0
H1974 H 0.14904 0.27866 0.66494 0.0
C1975 C 0.08385 0.242 0.72453 0.0
C1976 C 0.10669 0.24836 0.75231 0.0
H1977 H 0.06684 0.24231 0.65512 0.0
H1978 H 0.06526 0.23215 0.74066 0.0
C1979 C 0.13008 0.26171 0.72971 0.0
C1980 C 0.01294 0.85336 0.91658 0.0
C1981 C 0.04049 0.84922 0.92865 0.0
H1982 H 0.98641 0.86045 0.86006 0.0
C1983 C 0.06282 0.8474 0.89126 0.0
H1984 H 0.99543 0.85532 0.94489 0.0
C1985 C 0.05757 0.85006 0.84248 0.0
C1986 C 0.03005 0.85532 0.83105 0.0
H1987 H 0.08423 0.84436 0.89992 0.0
H1988 H 0.07498 0.84897 0.81406 0.0
C1989 C 0.00779 0.8566 0.86829 0.0
C1990 C 0.31717 0.80797 0.32657 0.0
C1991 C 0.32973 0.79567 0.36471 0.0
H1992 H 0.31137 0.80507 0.24934 0.0
C1993 C 0.34678 0.76979 0.35165 0.0
H1994 H 0.30379 0.82772 0.33473 0.0
C1995 C 0.35109 0.75668 0.3025 0.0
C1996 C 0.33839 0.76877 0.26429 0.0
H1997 H 0.35675 0.75937 0.3796 0.0
H1998 H 0.36404 0.73658 0.29468 0.0
C1999 C 0.32135 0.79472 0.27734 0.0
C2000 C 0.51094 0.08581 0.89277 0.0
C2001 C 0.48156 0.09022 0.90296 0.0
H2002 H 0.55035 0.07481 0.92044 0.0
C2003 C 0.46992 0.08691 0.95107 0.0
H2004 H 0.52064 0.08708 0.85577 0.0
C2005 C 0.4868 0.08002 0.98786 0.0
C2006 C 0.5161 0.07523 0.97805 0.0
H2007 H 0.44742 0.08921 0.9602 0.0
H2008 H 0.47663 0.078 1.02431 0.0
C2009 C 0.52795 0.07815 0.92968 0.0
C2010 C 0.66442 0.71499 0.69787 0.0
C2011 C 0.66208 0.72781 0.65398 0.0
H2012 H 0.67266 0.72166 0.7735 0.0
C2013 C 0.66578 0.7584 0.65331 0.0
H2014 H 0.66256 0.69127 0.69872 0.0
C2015 C 0.67271 0.77569 0.69567 0.0
C2016 C 0.67572 0.7626 0.73927 0.0
H2017 H 0.66505 0.76854 0.61935 0.0
H2018 H 0.67573 0.79921 0.6943 0.0
C2019 C 0.67082 0.73225 0.74025 0.0
C2020 C 0.99952 0.90844 0.36187 0.0
C2021 C 0.02911 0.90821 0.36132 0.0
H2022 H 0.9593 0.91436 0.40569 0.0
C2023 C 0.04023 0.9137 0.40709 0.0
H2024 H 0.99002 0.90526 0.32745 0.0
C2025 C 0.02277 0.91892 0.45156 0.0
C2026 C 0.99325 0.91978 0.45247 0.0
H2027 H 0.06273 0.91451 0.40851 0.0
H2028 H 0.03258 0.92284 0.48559 0.0
C2029 C 0.98185 0.91434 0.40675 0.0
C2030 C 0.84354 0.239 0.29779 0.0
C2031 C 0.83929 0.22198 0.25333 0.0
H2032 H 0.84014 0.24155 0.37653 0.0
C2033 C 0.82877 0.19341 0.25478 0.0
H2034 H 0.85201 0.26095 0.29777 0.0
C2035 C 0.82218 0.1823 0.29975 0.0
C2036 C 0.82587 0.19953 0.34419 0.0
H2037 H 0.82507 0.17983 0.22122 0.0
H2038 H 0.81441 0.16008 0.29952 0.0
C2039 C 0.83688 0.22786 0.34284 0.0
C2040 C 0.50313 0.85797 0.92249 0.0
C2041 C 0.52961 0.84908 0.89854 0.0
H2042 H 0.47854 0.86974 0.99117 0.0
C2043 C 0.55194 0.84407 0.92674 0.0
H2044 H 0.48569 0.86246 0.90157 0.0
C2045 C 0.54776 0.84805 0.97829 0.0
C2046 C 0.5214 0.85786 1.00193 0.0
H2047 H 0.57256 0.83738 0.90886 0.0
H2048 H 0.5652 0.84428 0.9996 0.0
C2049 C 0.49911 0.86247 0.97364 0.0
C2050 C 0.85903 0.73805 0.67535 0.0
C2051 C 0.8779 0.7574 0.65382 0.0
H2052 H 0.84558 0.7169 0.73938 0.0
C2053 C 0.89795 0.77089 0.68244 0.0
H2054 H 0.84318 0.72749 0.65445 0.0
C2055 C 0.89934 0.76481 0.73127 0.0
C2056 C 0.88049 0.74538 0.7527 0.0
H2057 H 0.91292 0.78572 0.6668 0.0
H2058 H 0.91502 0.77552 0.7524 0.0
C2059 C 0.86026 0.73217 0.72417 0.0
C2060 C 0.9943 0.14063 0.52441 0.0
C2061 C 0.97191 0.14111 0.56126 0.0
H2062 H 0.00688 0.14213 0.44793 0.0
C2063 C 0.94434 0.14543 0.54938 0.0
H2064 H 0.01572 0.13748 0.53303 0.0
C2065 C 0.9392 0.14779 0.50046 0.0
C2066 C 0.96167 0.14661 0.46339 0.0
H2067 H 0.92682 0.14588 0.57751 0.0
H2068 H 0.91776 0.14998 0.49142 0.0
C2069 C 0.98925 0.14358 0.47597 0.0
C2070 C 0.69142 0.18761 0.06599 0.0
C2071 C 0.67863 0.20009 1.02826 0.0
H2072 H 0.69763 0.1903 0.14311 0.0
C2073 C 0.6617 0.22601 1.04181 0.0
H2074 H 0.70465 0.16774 0.05738 0.0
C2075 C 0.65768 0.23899 0.09102 0.0
C2076 C 0.67052 0.22671 0.12888 0.0
H2077 H 0.65154 0.23657 1.01422 0.0
H2078 H 0.64477 0.2591 0.09918 0.0
C2079 C 0.68753 0.20076 0.11537 0.0
C2080 C 0.07679 0.54471 0.78059 0.0
C2081 C 0.09318 0.53528 0.73587 0.0
H2082 H 0.0675 0.54038 0.85768 0.0
C2083 C 0.11382 0.51278 0.73726 0.0
H2084 H 0.06064 0.56187 0.78176 0.0
C2085 C 0.11773 0.50015 0.78141 0.0
C2086 C 0.10106 0.50934 0.82609 0.0
H2087 H 0.12674 0.50447 0.70393 0.0
H2088 H 0.13353 0.4826 0.78007 0.0
C2089 C 0.08059 0.53203 0.82458 0.0
C2090 C 0.68744 0.84004 0.05285 0.0
C2091 C 0.6986 0.85465 1.01269 0.0
H2092 H 0.69029 0.83036 0.12724 0.0
C2093 C 0.72224 0.87202 1.01971 0.0
H2094 H 0.66934 0.82635 1.04934 0.0
C2095 C 0.73462 0.87408 0.06477 0.0
C2096 C 0.72389 0.85879 0.10457 0.0
H2097 H 0.73187 0.88325 0.98975 0.0
H2098 H 0.75324 0.887 0.0677 0.0
C2099 C 0.69979 0.84206 0.09776 0.0
C2100 C 0.38846 0.48744 0.31461 0.0
C2101 C 0.40469 0.47816 0.35126 0.0
H2102 H 0.38026 0.48347 0.2381 0.0
C2103 C 0.42538 0.4556 0.33531 0.0
H2104 H 0.37255 0.50491 0.32416 0.0
C2105 C 0.42976 0.44319 0.28545 0.0
C2106 C 0.41371 0.45267 0.24886 0.0
H2107 H 0.43823 0.44715 0.36148 0.0
H2108 H 0.44614 0.42623 0.27555 0.0
C2109 C 0.39291 0.47505 0.26462 0.0
C2110 C 0.75906 0.17691 0.65265 0.0
C2111 C 0.76508 0.14973 0.62261 0.0
H2112 H 0.74018 0.19995 0.7211 0.0
C2113 C 0.75578 0.12392 0.64347 0.0
H2114 H 0.76549 0.19748 0.63882 0.0
C2115 C 0.74184 0.12529 0.69232 0.0
C2116 C 0.73548 0.15264 0.7219 0.0
H2117 H 0.75979 0.10245 0.62239 0.0
H2118 H 0.73565 0.10481 0.70666 0.0
C2119 C 0.74427 0.17837 0.70041 0.0
C2120 C 0.92883 0.45087 0.6111 0.0
C2121 C 0.91207 0.45997 0.65558 0.0
H2122 H 0.93838 0.45544 0.53413 0.0
C2123 C 0.89109 0.48206 0.65391 0.0
H2124 H 0.94528 0.43405 0.6102 0.0
C2125 C 0.88718 0.49463 0.60974 0.0
C2126 C 0.90417 0.48577 0.56531 0.0
H2127 H 0.87789 0.49012 0.68706 0.0
H2128 H 0.8711 0.51187 0.61089 0.0
C2129 C 0.92501 0.46349 0.56707 0.0
C2130 C 0.30255 0.15743 0.29566 0.0
C2131 C 0.2771 0.1431 0.28895 0.0
H2132 H 0.33389 0.17024 0.34411 0.0
C2133 C 0.26493 0.12873 0.3288 0.0
H2134 H 0.31267 0.16911 0.26672 0.0
C2135 C 0.27733 0.12933 0.37378 0.0
C2136 C 0.30234 0.1444 0.38072 0.0
H2137 H 0.24563 0.11702 0.32544 0.0
H2138 H 0.26672 0.11884 0.40375 0.0
C2139 C 0.31484 0.1581 0.34052 0.0
C2140 C 0.57673 0.54596 0.05498 0.0
C2141 C 0.59705 0.52316 1.03824 0.0
H2142 H 0.55664 0.5752 0.1155 0.0
C2143 C 0.61363 0.5136 0.07421 0.0
H2144 H 0.56309 0.55406 1.02968 0.0
C2145 C 0.60978 0.52588 0.1243 0.0
C2146 C 0.58917 0.54833 0.14093 0.0
H2147 H 0.62986 0.49655 0.06376 0.0
H2148 H 0.62273 0.5173 0.15025 0.0
C2149 C 0.57288 0.55818 0.10497 0.0
C2150 C 0.24674 0.87231 0.74708 0.0
C2151 C 0.23839 0.8464 0.76865 0.0
H2152 H 0.26609 0.89146 0.68327 0.0
C2153 C 0.24527 0.81917 0.73925 0.0
H2154 H 0.24202 0.89382 0.76763 0.0
C2155 C 0.26005 0.81776 0.69147 0.0
C2156 C 0.26788 0.84355 0.66926 0.0
H2157 H 0.23955 0.79855 0.75363 0.0
H2158 H 0.26489 0.79614 0.67132 0.0
C2159 C 0.26061 0.87093 0.69817 0.0
C2160 C 0.61617 0.00408 0.28278 0.0
C2161 C 0.59925 0.01293 0.32731 0.0
H2162 H 0.6253 0.00858 0.20541 0.0
C2163 C 0.57839 0.0352 0.32565 0.0
H2164 H 0.63227 0.98684 0.28155 0.0
C2165 C 0.57447 0.04781 0.28164 0.0
C2166 C 0.59114 0.03871 0.23707 0.0
H2167 H 0.56508 0.04326 0.35866 0.0
H2168 H 0.558 0.06462 0.28265 0.0
C2169 C 0.61215 0.01663 0.23863 0.0
C2170 C 0.18119 0.3408 0.55959 0.0
C2171 C 0.1925 0.35502 0.51907 0.0
H2172 H 0.18427 0.3311 0.63391 0.0
C2173 C 0.21663 0.37171 0.52542 0.0
H2174 H 0.16274 0.32759 0.55656 0.0
C2175 C 0.22938 0.37343 0.57011 0.0
C2176 C 0.21852 0.35847 0.61025 0.0
H2177 H 0.2264 0.38258 0.49515 0.0
H2178 H 0.24839 0.38576 0.57245 0.0
C2179 C 0.19389 0.34249 0.60416 0.0
C2180 C 0.8873 0.98541 0.8133 0.0
C2181 C 0.90374 0.97697 0.85027 0.0
H2182 H 0.87954 0.98096 0.73659 0.0
C2183 C 0.92537 0.95539 0.83457 0.0
H2184 H 0.87065 0.00211 0.82263 0.0
C2185 C 0.93043 0.94311 0.78469 0.0
C2186 C 0.9142 0.95179 0.74776 0.0
H2187 H 0.93844 0.94756 0.86098 0.0
H2188 H 0.94742 0.92684 0.77509 0.0
C2189 C 0.89244 0.97318 0.7633 0.0
C2190 C 0.2458 0.6781 0.20181 0.0
C2191 C 0.23876 0.65228 0.22455 0.0
H2192 H 0.26574 0.69746 0.13929 0.0
C2193 C 0.24691 0.62492 0.19622 0.0
H2194 H 0.24026 0.69971 0.22148 0.0
C2195 C 0.26086 0.6236 0.14737 0.0
C2196 C 0.26842 0.64958 0.12529 0.0
H2197 H 0.24209 0.60436 0.21153 0.0
H2198 H 0.26624 0.6021 0.12724 0.0
C2199 C 0.26067 0.67679 0.1541 0.0
C2200 C 0.42741 0.95153 0.11201 0.0
C2201 C 0.41082 0.96065 0.15664 0.0
H2202 H 0.43666 0.95603 1.03498 0.0
C2203 C 0.38974 0.98267 0.15519 0.0
H2204 H 0.4439 0.93473 0.11092 0.0
C2205 C 0.38561 0.99517 0.11105 0.0
C2206 C 0.4025 0.98632 0.06649 0.0
H2207 H 0.37664 0.9907 0.18847 0.0
H2208 H 0.36947 0.01236 0.11229 0.0
C2209 C 0.42339 0.96409 0.06804 0.0
C2210 C 0.81665 0.65823 0.83907 0.0
C2211 C 0.80546 0.64363 0.87923 0.0
H2212 H 0.81382 0.66793 0.76469 0.0
C2213 C 0.78178 0.62632 0.87221 0.0
H2214 H 0.83477 0.67188 0.84259 0.0
C2215 C 0.7694 0.6243 0.82715 0.0
C2216 C 0.78016 0.63957 0.78734 0.0
H2217 H 0.77213 0.61511 0.90216 0.0
H2218 H 0.75075 0.61142 0.82423 0.0
C2219 C 0.8043 0.65625 0.79416 0.0
C2220 C 0.07596 0.04082 0.55699 0.0
C2221 C 0.0977 0.01941 0.54104 0.0
H2222 H 0.05391 0.06915 0.61673 0.0
C2223 C 0.11434 0.01104 0.57778 0.0
H2224 H 0.06274 0.04859 0.53074 0.0
C2225 C 0.10928 0.02317 0.62783 0.0
C2226 C 0.08741 0.04439 0.64363 0.0
H2227 H 0.13109 0.99446 0.56824 0.0
H2228 H 0.12233 0.01545 0.65438 0.0
C2229 C 0.07098 0.053 0.60692 0.0
C2230 C 0.74601 0.32021 0.23939 0.0
C2231 C 0.73906 0.34753 0.26842 0.0
H2232 H 0.76563 0.29698 0.17176 0.0
C2233 C 0.74741 0.37338 0.24672 0.0
H2234 H 0.74035 0.29963 0.25399 0.0
C2235 C 0.76134 0.37185 0.1979 0.0
C2236 C 0.7686 0.34437 0.16931 0.0
H2237 H 0.74267 0.39493 0.2671 0.0
H2238 H 0.76679 0.39231 0.18278 0.0
C2239 C 0.76079 0.31866 0.1917 0.0
loop_
_geom_bond_atom_site_label_1
_geom_bond_atom_site_label_2
_geom_bond_distance
_geom_bond_site_symmetry_2
_ccdc_geom_bond_type
La0 C2 2.928 . S
La0 O20 2.521 . S
La0 O21 2.628 . S
La0 O22 2.554 . S
La0 O23 2.757 . S
La0 O24 2.470 . S
La0 O29 2.482 . S
La0 O31 2.503 . S
La1 C11 2.928 1_554 S
La1 O23 2.482 . S
La1 O25 2.503 . S
La1 O26 2.521 1_554 S
La1 O27 2.628 1_554 S
La1 O28 2.554 . S
La1 O29 2.757 . S
La1 O30 2.470 1_554 S
C2 La0 2.928 . S
C2 C3 1.503 . S
C2 O20 1.261 . S
C2 O21 1.243 . S
C3 C2 1.503 . S
C3 C4 1.394 1_455 S
C3 C8 1.373 . S
C4 C3 1.394 1_655 S
C4 C5 1.380 . S
C4 H32 0.930 . S
C5 C4 1.380 . S
C5 C6 1.376 1_655 S
C5 H33 0.930 . S
C6 C5 1.376 1_455 S
C6 C7 1.370 . S
C7 C6 1.370 . S
C7 C8 1.396 . S
C7 H34 0.929 . S
C8 C3 1.373 . S
C8 C7 1.396 . S
C8 H35 0.929 . S
C9 O22 1.240 . S
C9 O23 1.289 . S
C10 O24 1.258 . S
C10 O25 1.256 . S
C11 La1 2.928 1_556 S
C11 C12 1.503 . S
C11 O26 1.261 . S
C11 O27 1.243 . S
C12 C11 1.503 . S
C12 C13 1.394 . S
C12 C17 1.373 . S
C13 C12 1.394 . S
C13 C14 1.380 . S
C13 H36 0.930 . S
C14 C13 1.380 . S
C14 C15 1.376 . S
C14 H37 0.930 . S
C15 C14 1.376 . S
C15 C16 1.370 . S
C16 C15 1.370 . S
C16 C17 1.396 . S
C16 H38 0.929 . S
C17 C12 1.373 . S
C17 C16 1.396 . S
C17 H39 0.929 . S
C18 O28 1.240 . S
C18 O29 1.289 . S
C19 O30 1.258 . S
C19 O31 1.256 1_556 S
O20 La0 2.521 . S
O20 C2 1.261 . S
O21 La0 2.628 . S
O21 C2 1.243 . S
O22 La0 2.554 . S
O22 C9 1.240 . S
O23 La0 2.757 . S
O23 La1 2.482 . S
O23 C9 1.289 . S
O24 La0 2.470 . S
O24 C10 1.258 . S
O25 La1 2.503 . S
O25 C10 1.256 . S
O26 La1 2.521 1_556 S
O26 C11 1.261 . S
O27 La1 2.628 1_556 S
O27 C11 1.243 . S
O28 La1 2.554 . S
O28 C18 1.240 . S
O29 La0 2.482 . S
O29 La1 2.757 . S
O29 C18 1.289 . S
O30 La1 2.470 1_556 S
O30 C19 1.258 . S
O31 La0 2.503 . S
O31 C19 1.256 1_554 S
H32 C4 0.930 . S
H33 C5 0.930 . S
H34 C7 0.929 . S
H35 C8 0.929 . S
H36 C13 0.930 . S
H37 C14 0.930 . S
H38 C16 0.929 . S
H39 C17 0.929 . S
La40 C42 2.928 . S
La40 O60 2.521 . S
La40 O61 2.628 . S
La40 O62 2.554 . S
La40 O63 2.757 . S
La40 O64 2.470 . S
La40 O69 2.482 . S
La40 O71 2.503 . S
La41 C51 2.928 . S
La41 O63 2.482 . S
La41 O65 2.503 . S
La41 O66 2.521 . S
La41 O67 2.628 . S
La41 O68 2.554 . S
La41 O69 2.757 . S
La41 O70 2.470 . S
C42 La40 2.928 . S
C42 C43 1.503 . S
C42 O60 1.261 . S
C42 O61 1.243 . S
C43 C42 1.503 . S
C43 C44 1.394 . S
C43 C48 1.373 . S
C44 C43 1.394 . S
C44 C45 1.380 . S
C44 H72 0.930 . S
C45 C44 1.380 . S
C45 C46 1.376 . S
C45 H73 0.930 . S
C46 C45 1.376 . S
C46 C47 1.370 . S
C47 C46 1.370 . S
C47 C48 1.396 . S
C47 H74 0.929 . S
C48 C43 1.373 . S
C48 C47 1.396 . S
C48 H75 0.929 . S
C49 O62 1.240 . S
C49 O63 1.289 . S
C50 O64 1.258 . S
C50 O65 1.256 . S
C51 La41 2.928 . S
C51 C52 1.503 . S
C51 O66 1.261 . S
C51 O67 1.243 . S
C52 C51 1.503 . S
C52 C53 1.394 . S
C52 C57 1.373 . S
C53 C52 1.394 . S
C53 C54 1.380 . S
C53 H76 0.930 . S
C54 C53 1.380 . S
C54 C55 1.376 . S
C54 H77 0.930 . S
C55 C54 1.376 . S
C55 C56 1.370 . S
C56 C55 1.370 . S
C56 C57 1.396 . S
C56 H78 0.929 . S
C57 C52 1.373 . S
C57 C56 1.396 . S
C57 H79 0.929 . S
C58 O68 1.240 . S
C58 O69 1.289 . S
C59 O70 1.258 . S
C59 O71 1.256 . S
O60 La40 2.521 . S
O60 C42 1.261 . S
O61 La40 2.628 . S
O61 C42 1.243 . S
O62 La40 2.554 . S
O62 C49 1.240 . S
O63 La40 2.757 . S
O63 La41 2.482 . S
O63 C49 1.289 . S
O64 La40 2.470 . S
O64 C50 1.258 . S
O65 La41 2.503 . S
O65 C50 1.256 . S
O66 La41 2.521 . S
O66 C51 1.261 . S
O67 La41 2.628 . S
O67 C51 1.243 . S
O68 La41 2.554 . S
O68 C58 1.240 . S
O69 La40 2.482 . S
O69 La41 2.757 . S
O69 C58 1.289 . S
O70 La41 2.470 . S
O70 C59 1.258 . S
O71 La40 2.503 . S
O71 C59 1.256 . S
H72 C44 0.930 . S
H73 C45 0.930 . S
H74 C47 0.929 . S
H75 C48 0.929 . S
H76 C53 0.930 . S
H77 C54 0.930 . S
H78 C56 0.929 . S
H79 C57 0.929 . S
La80 C82 2.928 . S
La80 O100 2.521 . S
La80 O101 2.628 . S
La80 O102 2.554 . S
La80 O103 2.757 . S
La80 O104 2.470 . S
La80 O109 2.482 . S
La80 O111 2.503 . S
La81 C91 2.928 . S
La81 O103 2.482 . S
La81 O105 2.503 . S
La81 O106 2.521 . S
La81 O107 2.628 . S
La81 O108 2.554 . S
La81 O109 2.757 . S
La81 O110 2.470 . S
C82 La80 2.928 . S
C82 C83 1.503 . S
C82 O100 1.261 . S
C82 O101 1.243 . S
C83 C82 1.503 . S
C83 C84 1.394 . S
C83 C88 1.373 . S
C84 C83 1.394 . S
C84 C85 1.380 . S
C84 H112 0.930 . S
C85 C84 1.380 . S
C85 C86 1.376 . S
C85 H113 0.930 . S
C86 C85 1.376 . S
C86 C87 1.370 . S
C87 C86 1.370 . S
C87 C88 1.396 . S
C87 H114 0.929 . S
C88 C83 1.373 . S
C88 C87 1.396 . S
C88 H115 0.929 . S
C89 O102 1.240 . S
C89 O103 1.289 . S
C90 O104 1.258 . S
C90 O105 1.256 . S
C91 La81 2.928 . S
C91 C92 1.503 . S
C91 O106 1.261 . S
C91 O107 1.243 . S
C92 C91 1.503 . S
C92 C93 1.394 . S
C92 C97 1.373 . S
C93 C92 1.394 . S
C93 C94 1.380 . S
C93 H116 0.930 . S
C94 C93 1.380 . S
C94 C95 1.376 . S
C94 H117 0.930 . S
C95 C94 1.376 . S
C95 C96 1.370 . S
C96 C95 1.370 . S
C96 C97 1.396 . S
C96 H118 0.929 . S
C97 C92 1.373 . S
C97 C96 1.396 . S
C97 H119 0.929 . S
C98 O108 1.240 . S
C98 O109 1.289 . S
C99 O110 1.258 . S
C99 O111 1.256 . S
O100 La80 2.521 . S
O100 C82 1.261 . S
O101 La80 2.628 . S
O101 C82 1.243 . S
O102 La80 2.554 . S
O102 C89 1.240 . S
O103 La80 2.757 . S
O103 La81 2.482 . S
O103 C89 1.289 . S
O104 La80 2.470 . S
O104 C90 1.258 . S
O105 La81 2.503 . S
O105 C90 1.256 . S
O106 La81 2.521 . S
O106 C91 1.261 . S
O107 La81 2.628 . S
O107 C91 1.243 . S
O108 La81 2.554 . S
O108 C98 1.240 . S
O109 La80 2.482 . S
O109 La81 2.757 . S
O109 C98 1.289 . S
O110 La81 2.470 . S
O110 C99 1.258 . S
O111 La80 2.503 . S
O111 C99 1.256 . S
H112 C84 0.930 . S
H113 C85 0.930 . S
H114 C87 0.929 . S
H115 C88 0.929 . S
H116 C93 0.930 . S
H117 C94 0.930 . S
H118 C96 0.929 . S
H119 C97 0.929 . S
La120 C122 2.928 . S
La120 O140 2.521 . S
La120 O141 2.628 . S
La120 O142 2.554 . S
La120 O143 2.757 . S
La120 O144 2.470 . S
La120 O149 2.482 . S
La120 O151 2.503 . S
La121 C131 2.928 . S
La121 O143 2.482 . S
La121 O145 2.503 . S
La121 O146 2.521 . S
La121 O147 2.628 . S
La121 O148 2.554 . S
La121 O149 2.757 . S
La121 O150 2.470 . S
C122 La120 2.928 . S
C122 C123 1.503 . S
C122 O140 1.261 . S
C122 O141 1.243 . S
C123 C122 1.503 . S
C123 C124 1.394 . S
C123 C128 1.373 . S
C124 C123 1.394 . S
C124 C125 1.380 . S
C124 H152 0.930 . S
C125 C124 1.380 . S
C125 C126 1.376 . S
C125 H153 0.930 . S
C126 C125 1.376 . S
C126 C127 1.370 . S
C127 C126 1.370 . S
C127 C128 1.396 . S
C127 H154 0.929 . S
C128 C123 1.373 . S
C128 C127 1.396 . S
C128 H155 0.929 . S
C129 O142 1.240 . S
C129 O143 1.289 . S
C130 O144 1.258 . S
C130 O145 1.256 . S
C131 La121 2.928 . S
C131 C132 1.500 1_556 S
C131 O146 1.261 . S
C131 O147 1.243 . S
C132 C131 1.500 1_554 S
C132 C133 1.395 . S
C132 C137 1.375 . S
C133 C132 1.395 . S
C133 C134 1.380 . S
C133 H156 0.930 1_554 S
C134 C133 1.380 . S
C134 C135 1.376 . S
C134 H157 0.930 . S
C135 C134 1.376 . S
C135 C136 1.370 . S
C136 C135 1.370 . S
C136 C137 1.396 . S
C136 H158 0.929 . S
C137 C132 1.375 . S
C137 C136 1.396 . S
C137 H159 0.929 . S
C138 O148 1.240 . S
C138 O149 1.289 . S
C139 O150 1.258 . S
C139 O151 1.256 . S
O140 La120 2.521 . S
O140 C122 1.261 . S
O141 La120 2.628 . S
O141 C122 1.243 . S
O142 La120 2.554 . S
O142 C129 1.240 . S
O143 La120 2.757 . S
O143 La121 2.482 . S
O143 C129 1.289 . S
O144 La120 2.470 . S
O144 C130 1.258 . S
O145 La121 2.503 . S
O145 C130 1.256 . S
O146 La121 2.521 . S
O146 C131 1.261 . S
O147 La121 2.628 . S
O147 C131 1.243 . S
O148 La121 2.554 . S
O148 C138 1.240 . S
O149 La120 2.482 . S
O149 La121 2.757 . S
O149 C138 1.289 . S
O150 La121 2.470 . S
O150 C139 1.258 . S
O151 La120 2.503 . S
O151 C139 1.256 . S
H152 C124 0.930 . S
H153 C125 0.930 . S
H154 C127 0.929 . S
H155 C128 0.929 . S
H156 C133 0.930 1_556 S
H157 C134 0.930 . S
H158 C136 0.929 . S
H159 C137 0.929 . S
La160 C162 2.928 . S
La160 O180 2.521 . S
La160 O181 2.628 . S
La160 O182 2.554 . S
La160 O183 2.757 . S
La160 O184 2.470 . S
La160 O189 2.482 . S
La160 O191 2.503 . S
La161 C171 2.928 . S
La161 O183 2.482 . S
La161 O185 2.503 . S
La161 O186 2.521 . S
La161 O187 2.628 . S
La161 O188 2.554 . S
La161 O189 2.757 . S
La161 O190 2.470 . S
C162 La160 2.928 . S
C162 C163 1.503 . S
C162 O180 1.261 . S
C162 O181 1.243 . S
C163 C162 1.503 . S
C163 C164 1.394 . S
C163 C168 1.373 . S
C164 C163 1.394 . S
C164 C165 1.380 . S
C164 H192 0.930 . S
C165 C164 1.380 . S
C165 C166 1.376 . S
C165 H193 0.930 . S
C166 C165 1.376 . S
C166 C167 1.370 . S
C167 C166 1.370 . S
C167 C168 1.396 . S
C167 H194 0.929 . S
C168 C163 1.373 . S
C168 C167 1.396 . S
C168 H195 0.929 . S
C169 O182 1.240 . S
C169 O183 1.289 . S
C170 O184 1.258 . S
C170 O185 1.256 . S
C171 La161 2.928 . S
C171 C172 1.503 . S
C171 O186 1.261 . S
C171 O187 1.243 . S
C172 C171 1.503 . S
C172 C173 1.394 . S
C172 C177 1.373 . S
C173 C172 1.394 . S
C173 C174 1.380 . S
C173 H196 0.930 . S
C174 C173 1.380 . S
C174 C175 1.376 . S
C174 H197 0.930 . S
C175 C174 1.376 . S
C175 C176 1.370 . S
C176 C175 1.370 . S
C176 C177 1.396 . S
C176 H198 0.929 . S
C177 C172 1.373 . S
C177 C176 1.396 . S
C177 H199 0.929 . S
C178 O188 1.240 . S
C178 O189 1.289 . S
C179 O190 1.258 . S
C179 O191 1.256 . S
O180 La160 2.521 . S
O180 C162 1.261 . S
O181 La160 2.628 . S
O181 C162 1.243 . S
O182 La160 2.554 . S
O182 C169 1.240 . S
O183 La160 2.757 . S
O183 La161 2.482 . S
O183 C169 1.289 . S
O184 La160 2.470 . S
O184 C170 1.258 . S
O185 La161 2.503 . S
O185 C170 1.256 . S
O186 La161 2.521 . S
O186 C171 1.261 . S
O187 La161 2.628 . S
O187 C171 1.243 . S
O188 La161 2.554 . S
O188 C178 1.240 . S
O189 La160 2.482 . S
O189 La161 2.757 . S
O189 C178 1.289 . S
O190 La161 2.470 . S
O190 C179 1.258 . S
O191 La160 2.503 . S
O191 C179 1.256 . S
H192 C164 0.930 . S
H193 C165 0.930 . S
H194 C167 0.929 . S
H195 C168 0.929 . S
H196 C173 0.930 . S
H197 C174 0.930 . S
H198 C176 0.929 . S
H199 C177 0.929 . S
La200 C202 2.928 . S
La200 O220 2.521 . S
La200 O221 2.628 . S
La200 O222 2.554 . S
La200 O223 2.757 . S
La200 O224 2.470 . S
La200 O229 2.482 . S
La200 O231 2.503 . S
La201 C211 2.928 . S
La201 O223 2.482 . S
La201 O225 2.503 . S
La201 O226 2.521 . S
La201 O227 2.628 . S
La201 O228 2.554 . S
La201 O229 2.757 . S
La201 O230 2.470 . S
C202 La200 2.928 . S
C202 C203 1.503 . S
C202 O220 1.261 . S
C202 O221 1.243 . S
C203 C202 1.503 . S
C203 C204 1.394 . S
C203 C208 1.373 1_556 S
C204 C203 1.394 . S
C204 C205 1.380 1_556 S
C204 H232 0.930 . S
C205 C204 1.380 1_554 S
C205 C206 1.376 . S
C205 H233 0.930 . S
C206 C205 1.376 . S
C206 C207 1.370 . S
C207 C206 1.370 . S
C207 C208 1.396 . S
C207 H234 0.929 . S
C208 C203 1.373 1_554 S
C208 C207 1.396 . S
C208 H235 0.929 1_554 S
C209 O222 1.240 . S
C209 O223 1.289 . S
C210 O224 1.258 . S
C210 O225 1.256 . S
C211 La201 2.928 . S
C211 C212 1.503 . S
C211 O226 1.261 . S
C211 O227 1.243 . S
C212 C211 1.503 . S
C212 C213 1.394 . S
C212 C217 1.373 . S
C213 C212 1.394 . S
C213 C214 1.380 . S
C213 H236 0.930 . S
C214 C213 1.380 . S
C214 C215 1.376 . S
C214 H237 0.930 . S
C215 C214 1.376 . S
C215 C216 1.370 . S
C216 C215 1.370 . S
C216 C217 1.396 . S
C216 H238 0.929 . S
C217 C212 1.373 . S
C217 C216 1.396 . S
C217 H239 0.929 . S
C218 O228 1.240 . S
C218 O229 1.289 . S
C219 O230 1.258 . S
C219 O231 1.256 . S
O220 La200 2.521 . S
O220 C202 1.261 . S
O221 La200 2.628 . S
O221 C202 1.243 . S
O222 La200 2.554 . S
O222 C209 1.240 . S
O223 La200 2.757 . S
O223 La201 2.482 . S
O223 C209 1.289 . S
O224 La200 2.470 . S
O224 C210 1.258 . S
O225 La201 2.503 . S
O225 C210 1.256 . S
O226 La201 2.521 . S
O226 C211 1.261 . S
O227 La201 2.628 . S
O227 C211 1.243 . S
O228 La201 2.554 . S
O228 C218 1.240 . S
O229 La200 2.482 . S
O229 La201 2.757 . S
O229 C218 1.289 . S
O230 La201 2.470 . S
O230 C219 1.258 . S
O231 La200 2.503 . S
O231 C219 1.256 . S
H232 C204 0.930 . S
H233 C205 0.930 . S
H234 C207 0.929 . S
H235 C208 0.929 1_556 S
H236 C213 0.930 . S
H237 C214 0.930 . S
H238 C216 0.929 . S
H239 C217 0.929 . S
La240 C242 2.928 . S
La240 O260 2.521 . S
La240 O261 2.628 . S
La240 O262 2.554 . S
La240 O263 2.757 . S
La240 O264 2.470 . S
La240 O269 2.482 . S
La240 O271 2.503 1_554 S
La241 C251 2.928 1_554 S
La241 O263 2.482 . S
La241 O265 2.503 . S
La241 O266 2.521 1_554 S
La241 O267 2.628 1_554 S
La241 O268 2.554 . S
La241 O269 2.757 . S
La241 O270 2.470 1_554 S
C242 La240 2.928 . S
C242 C243 1.503 . S
C242 O260 1.261 . S
C242 O261 1.243 . S
C243 C242 1.503 . S
C243 C244 1.394 . S
C243 C248 1.373 . S
C244 C243 1.394 . S
C244 C245 1.380 . S
C244 H272 0.930 . S
C245 C244 1.380 . S
C245 C246 1.376 . S
C245 H273 0.930 . S
C246 C245 1.376 . S
C246 C247 1.370 . S
C247 C246 1.370 . S
C247 C248 1.396 . S
C247 H274 0.929 . S
C248 C243 1.373 . S
C248 C247 1.396 . S
C248 H275 0.929 . S
C249 O262 1.240 . S
C249 O263 1.289 . S
C250 O264 1.258 . S
C250 O265 1.256 . S
C251 La241 2.928 1_556 S
C251 C252 1.503 . S
C251 O266 1.261 . S
C251 O267 1.243 . S
C252 C251 1.503 . S
C252 C253 1.394 . S
C252 C257 1.373 . S
C253 C252 1.394 . S
C253 C254 1.380 . S
C253 H276 0.930 . S
C254 C253 1.380 . S
C254 C255 1.376 . S
C254 H277 0.930 . S
C255 C254 1.376 . S
C255 C256 1.370 . S
C256 C255 1.370 . S
C256 C257 1.396 . S
C256 H278 0.929 . S
C257 C252 1.373 . S
C257 C256 1.396 . S
C257 H279 0.929 . S
C258 O268 1.240 . S
C258 O269 1.289 . S
C259 O270 1.258 . S
C259 O271 1.256 . S
O260 La240 2.521 . S
O260 C242 1.261 . S
O261 La240 2.628 . S
O261 C242 1.243 . S
O262 La240 2.554 . S
O262 C249 1.240 . S
O263 La240 2.757 . S
O263 La241 2.482 . S
O263 C249 1.289 . S
O264 La240 2.470 . S
O264 C250 1.258 . S
O265 La241 2.503 . S
O265 C250 1.256 . S
O266 La241 2.521 1_556 S
O266 C251 1.261 . S
O267 La241 2.628 1_556 S
O267 C251 1.243 . S
O268 La241 2.554 . S
O268 C258 1.240 . S
O269 La240 2.482 . S
O269 La241 2.757 . S
O269 C258 1.289 . S
O270 La241 2.470 1_556 S
O270 C259 1.258 . S
O271 La240 2.503 1_556 S
O271 C259 1.256 . S
H272 C244 0.930 . S
H273 C245 0.930 . S
H274 C247 0.929 . S
H275 C248 0.929 . S
H276 C253 0.930 . S
H277 C254 0.930 . S
H278 C256 0.929 . S
H279 C257 0.929 . S
La280 C282 2.928 . S
La280 O300 2.521 . S
La280 O301 2.628 . S
La280 O302 2.554 . S
La280 O303 2.757 . S
La280 O304 2.470 . S
La280 O309 2.482 . S
La280 O311 2.503 . S
La281 C291 2.928 . S
La281 O303 2.482 . S
La281 O305 2.503 . S
La281 O306 2.521 . S
La281 O307 2.628 . S
La281 O308 2.554 . S
La281 O309 2.757 . S
La281 O310 2.470 . S
C282 La280 2.928 . S
C282 C283 1.503 . S
C282 O300 1.261 . S
C282 O301 1.243 . S
C283 C282 1.503 . S
C283 C284 1.394 . S
C283 C288 1.373 . S
C284 C283 1.394 . S
C284 C285 1.380 . S
C284 H312 0.930 . S
C285 C284 1.380 . S
C285 C286 1.376 . S
C285 H313 0.930 . S
C286 C285 1.376 . S
C286 C287 1.370 . S
C287 C286 1.370 . S
C287 C288 1.396 . S
C287 H314 0.929 . S
C288 C283 1.373 . S
C288 C287 1.396 . S
C288 H315 0.929 . S
C289 O302 1.240 . S
C289 O303 1.289 . S
C290 O304 1.258 . S
C290 O305 1.256 . S
C291 La281 2.928 . S
C291 C292 1.503 . S
C291 O306 1.261 . S
C291 O307 1.243 . S
C292 C291 1.503 . S
C292 C293 1.394 . S
C292 C297 1.373 . S
C293 C292 1.394 . S
C293 C294 1.380 . S
C293 H316 0.930 . S
C294 C293 1.380 . S
C294 C295 1.376 . S
C294 H317 0.930 . S
C295 C294 1.376 . S
C295 C296 1.370 . S
C296 C295 1.370 . S
C296 C297 1.396 . S
C296 H318 0.929 . S
C297 C292 1.373 . S
C297 C296 1.396 . S
C297 H319 0.929 . S
C298 O308 1.240 . S
C298 O309 1.289 . S
C299 O310 1.258 . S
C299 O311 1.256 . S
O300 La280 2.521 . S
O300 C282 1.261 . S
O301 La280 2.628 . S
O301 C282 1.243 . S
O302 La280 2.554 . S
O302 C289 1.240 . S
O303 La280 2.757 . S
O303 La281 2.482 . S
O303 C289 1.289 . S
O304 La280 2.470 . S
O304 C290 1.258 . S
O305 La281 2.503 . S
O305 C290 1.256 . S
O306 La281 2.521 . S
O306 C291 1.261 . S
O307 La281 2.628 . S
O307 C291 1.243 . S
O308 La281 2.554 . S
O308 C298 1.240 . S
O309 La280 2.482 . S
O309 La281 2.757 . S
O309 C298 1.289 . S
O310 La281 2.470 . S
O310 C299 1.258 . S
O311 La280 2.503 . S
O311 C299 1.256 . S
H312 C284 0.930 . S
H313 C285 0.930 . S
H314 C287 0.929 . S
H315 C288 0.929 . S
H316 C293 0.930 . S
H317 C294 0.930 . S
H318 C296 0.929 . S
H319 C297 0.929 . S
La320 C322 2.928 . S
La320 O340 2.521 . S
La320 O341 2.628 . S
La320 O342 2.554 . S
La320 O343 2.757 . S
La320 O344 2.470 . S
La320 O349 2.482 . S
La320 O351 2.503 . S
La321 C331 2.928 . S
La321 O343 2.482 . S
La321 O345 2.503 . S
La321 O346 2.521 . S
La321 O347 2.628 . S
La321 O348 2.554 . S
La321 O349 2.757 . S
La321 O350 2.470 . S
C322 La320 2.928 . S
C322 C323 1.503 . S
C322 O340 1.261 . S
C322 O341 1.243 . S
C323 C322 1.503 . S
C323 C324 1.394 . S
C323 C328 1.373 . S
C324 C323 1.394 . S
C324 C325 1.380 . S
C324 H352 0.930 . S
C325 C324 1.380 . S
C325 C326 1.376 . S
C325 H353 0.930 . S
C326 C325 1.376 . S
C326 C327 1.370 . S
C327 C326 1.370 . S
C327 C328 1.396 . S
C327 H354 0.929 . S
C328 C323 1.373 . S
C328 C327 1.396 . S
C328 H355 0.929 . S
C329 O342 1.240 . S
C329 O343 1.289 . S
C330 O344 1.258 . S
C330 O345 1.256 . S
C331 La321 2.928 . S
C331 C332 1.503 . S
C331 O346 1.261 . S
C331 O347 1.243 . S
C332 C331 1.503 . S
C332 C333 1.394 1_655 S
C332 C337 1.373 . S
C333 C332 1.394 1_455 S
C333 C334 1.380 1_554 S
C333 H356 0.930 . S
C334 C333 1.380 1_556 S
C334 C335 1.376 1_455 S
C334 H357 0.930 . S
C335 C334 1.376 1_655 S
C335 C336 1.370 . S
C336 C335 1.370 . S
C336 C337 1.396 1_556 S
C336 H358 0.929 . S
C337 C332 1.373 . S
C337 C336 1.396 1_554 S
C337 H359 0.929 . S
C338 O348 1.240 . S
C338 O349 1.289 . S
C339 O350 1.258 . S
C339 O351 1.256 . S
O340 La320 2.521 . S
O340 C322 1.261 . S
O341 La320 2.628 . S
O341 C322 1.243 . S
O342 La320 2.554 . S
O342 C329 1.240 . S
O343 La320 2.757 . S
O343 La321 2.482 . S
O343 C329 1.289 . S
O344 La320 2.470 . S
O344 C330 1.258 . S
O345 La321 2.503 . S
O345 C330 1.256 . S
O346 La321 2.521 . S
O346 C331 1.261 . S
O347 La321 2.628 . S
O347 C331 1.243 . S
O348 La321 2.554 . S
O348 C338 1.240 . S
O349 La320 2.482 . S
O349 La321 2.757 . S
O349 C338 1.289 . S
O350 La321 2.470 . S
O350 C339 1.258 . S
O351 La320 2.503 . S
O351 C339 1.256 . S
H352 C324 0.930 . S
H353 C325 0.930 . S
H354 C327 0.929 . S
H355 C328 0.929 . S
H356 C333 0.930 . S
H357 C334 0.930 . S
H358 C336 0.929 . S
H359 C337 0.929 . S
La360 C362 2.928 1_556 S
La360 O380 2.521 1_556 S
La360 O381 2.628 1_556 S
La360 O382 2.554 . S
La360 O383 2.757 . S
La360 O384 2.470 1_556 S
La360 O389 2.482 . S
La360 O391 2.503 . S
La361 C371 2.928 . S
La361 O383 2.482 . S
La361 O385 2.503 1_556 S
La361 O386 2.521 . S
La361 O387 2.628 . S
La361 O388 2.554 . S
La361 O389 2.757 . S
La361 O390 2.470 . S
C362 La360 2.928 1_554 S
C362 C363 1.503 . S
C362 O380 1.261 . S
C362 O381 1.243 . S
C363 C362 1.503 . S
C363 C364 1.394 . S
C363 C368 1.373 . S
C364 C363 1.394 . S
C364 C365 1.380 . S
C364 H392 0.930 . S
C365 C364 1.380 . S
C365 C366 1.376 . S
C365 H393 0.930 . S
C366 C365 1.376 . S
C366 C367 1.370 . S
C367 C366 1.370 . S
C367 C368 1.396 . S
C367 H394 0.929 . S
C368 C363 1.373 . S
C368 C367 1.396 . S
C368 H395 0.929 . S
C369 O382 1.240 . S
C369 O383 1.289 . S
C370 O384 1.258 . S
C370 O385 1.256 . S
C371 La361 2.928 . S
C371 C372 1.503 . S
C371 O386 1.261 . S
C371 O387 1.243 . S
C372 C371 1.503 . S
C372 C373 1.394 . S
C372 C377 1.373 . S
C373 C372 1.394 . S
C373 C374 1.380 . S
C373 H396 0.930 . S
C374 C373 1.380 . S
C374 C375 1.376 . S
C374 H397 0.930 . S
C375 C374 1.376 . S
C375 C376 1.370 . S
C376 C375 1.370 . S
C376 C377 1.396 . S
C376 H398 0.929 . S
C377 C372 1.373 . S
C377 C376 1.396 . S
C377 H399 0.929 . S
C378 O388 1.240 . S
C378 O389 1.289 . S
C379 O390 1.258 . S
C379 O391 1.256 . S
O380 La360 2.521 1_554 S
O380 C362 1.261 . S
O381 La360 2.628 1_554 S
O381 C362 1.243 . S
O382 La360 2.554 . S
O382 C369 1.240 . S
O383 La360 2.757 . S
O383 La361 2.482 . S
O383 C369 1.289 . S
O384 La360 2.470 1_554 S
O384 C370 1.258 . S
O385 La361 2.503 1_554 S
O385 C370 1.256 . S
O386 La361 2.521 . S
O386 C371 1.261 . S
O387 La361 2.628 . S
O387 C371 1.243 . S
O388 La361 2.554 . S
O388 C378 1.240 . S
O389 La360 2.482 . S
O389 La361 2.757 . S
O389 C378 1.289 . S
O390 La361 2.470 . S
O390 C379 1.258 . S
O391 La360 2.503 . S
O391 C379 1.256 . S
H392 C364 0.930 . S
H393 C365 0.930 . S
H394 C367 0.929 . S
H395 C368 0.929 . S
H396 C373 0.930 . S
H397 C374 0.930 . S
H398 C376 0.929 . S
H399 C377 0.929 . S
La400 C402 2.928 . S
La400 O420 2.521 . S
La400 O421 2.628 . S
La400 O422 2.554 . S
La400 O423 2.757 . S
La400 O424 2.470 . S
La400 O429 2.482 . S
La400 O431 2.503 . S
La401 C411 2.928 . S
La401 O423 2.482 . S
La401 O425 2.503 . S
La401 O426 2.521 . S
La401 O427 2.628 . S
La401 O428 2.554 . S
La401 O429 2.757 . S
La401 O430 2.470 . S
C402 La400 2.928 . S
C402 C403 1.503 . S
C402 O420 1.261 . S
C402 O421 1.243 . S
C403 C402 1.503 . S
C403 C404 1.394 . S
C403 C408 1.373 . S
C404 C403 1.394 . S
C404 C405 1.380 . S
C404 H432 0.930 . S
C405 C404 1.380 . S
C405 C406 1.376 . S
C405 H433 0.930 . S
C406 C405 1.376 . S
C406 C407 1.370 . S
C407 C406 1.370 . S
C407 C408 1.396 . S
C407 H434 0.929 . S
C408 C403 1.373 . S
C408 C407 1.396 . S
C408 H435 0.929 . S
C409 O422 1.240 . S
C409 O423 1.289 . S
C410 O424 1.258 . S
C410 O425 1.256 . S
C411 La401 2.928 . S
C411 C412 1.503 . S
C411 O426 1.261 . S
C411 O427 1.243 . S
C412 C411 1.503 . S
C412 C413 1.394 . S
C412 C417 1.373 . S
C413 C412 1.394 . S
C413 C414 1.380 . S
C413 H436 0.930 . S
C414 C413 1.380 . S
C414 C415 1.376 . S
C414 H437 0.930 . S
C415 C414 1.376 . S
C415 C416 1.370 . S
C416 C415 1.370 . S
C416 C417 1.396 . S
C416 H438 0.929 . S
C417 C412 1.373 . S
C417 C416 1.396 . S
C417 H439 0.929 . S
C418 O428 1.240 . S
C418 O429 1.289 . S
C419 O430 1.258 . S
C419 O431 1.256 . S
O420 La400 2.521 . S
O420 C402 1.261 . S
O421 La400 2.628 . S
O421 C402 1.243 . S
O422 La400 2.554 . S
O422 C409 1.240 . S
O423 La400 2.757 . S
O423 La401 2.482 . S
O423 C409 1.289 . S
O424 La400 2.470 . S
O424 C410 1.258 . S
O425 La401 2.503 . S
O425 C410 1.256 . S
O426 La401 2.521 . S
O426 C411 1.261 . S
O427 La401 2.628 . S
O427 C411 1.243 . S
O428 La401 2.554 . S
O428 C418 1.240 . S
O429 La400 2.482 . S
O429 La401 2.757 . S
O429 C418 1.289 . S
O430 La401 2.470 . S
O430 C419 1.258 . S
O431 La400 2.503 . S
O431 C419 1.256 . S
H432 C404 0.930 . S
H433 C405 0.930 . S
H434 C407 0.929 . S
H435 C408 0.929 . S
H436 C413 0.930 . S
H437 C414 0.930 . S
H438 C416 0.929 . S
H439 C417 0.929 . S
La440 C442 2.928 . S
La440 O460 2.521 . S
La440 O461 2.628 . S
La440 O462 2.554 . S
La440 O463 2.757 . S
La440 O464 2.470 . S
La440 O469 2.482 . S
La440 O471 2.503 . S
La441 C451 2.928 . S
La441 O463 2.482 . S
La441 O465 2.503 . S
La441 O466 2.521 . S
La441 O467 2.628 . S
La441 O468 2.554 . S
La441 O469 2.757 . S
La441 O470 2.470 . S
C442 La440 2.928 . S
C442 C443 1.503 . S
C442 O460 1.261 . S
C442 O461 1.243 . S
C443 C442 1.503 . S
C443 C444 1.394 . S
C443 C448 1.373 . S
C444 C443 1.394 . S
C444 C445 1.380 . S
C444 H472 0.930 . S
C445 C444 1.380 . S
C445 C446 1.376 . S
C445 H473 0.930 . S
C446 C445 1.376 . S
C446 C447 1.370 . S
C447 C446 1.370 . S
C447 C448 1.396 . S
C447 H474 0.929 . S
C448 C443 1.373 . S
C448 C447 1.396 . S
C448 H475 0.929 . S
C449 O462 1.240 . S
C449 O463 1.289 . S
C450 O464 1.258 . S
C450 O465 1.256 . S
C451 La441 2.928 . S
C451 C452 1.503 . S
C451 O466 1.261 . S
C451 O467 1.243 . S
C452 C451 1.503 . S
C452 C453 1.394 . S
C452 C457 1.373 . S
C453 C452 1.394 . S
C453 C454 1.380 . S
C453 H476 0.930 . S
C454 C453 1.380 . S
C454 C455 1.376 . S
C454 H477 0.930 . S
C455 C454 1.376 . S
C455 C456 1.370 . S
C456 C455 1.370 . S
C456 C457 1.396 . S
C456 H478 0.929 . S
C457 C452 1.373 . S
C457 C456 1.396 . S
C457 H479 0.929 . S
C458 O468 1.240 . S
C458 O469 1.289 . S
C459 O470 1.258 . S
C459 O471 1.256 . S
O460 La440 2.521 . S
O460 C442 1.261 . S
O461 La440 2.628 . S
O461 C442 1.243 . S
O462 La440 2.554 . S
O462 C449 1.240 . S
O463 La440 2.757 . S
O463 La441 2.482 . S
O463 C449 1.289 . S
O464 La440 2.470 . S
O464 C450 1.258 . S
O465 La441 2.503 . S
O465 C450 1.256 . S
O466 La441 2.521 . S
O466 C451 1.261 . S
O467 La441 2.628 . S
O467 C451 1.243 . S
O468 La441 2.554 . S
O468 C458 1.240 . S
O469 La440 2.482 . S
O469 La441 2.757 . S
O469 C458 1.289 . S
O470 La441 2.470 . S
O470 C459 1.258 . S
O471 La440 2.503 . S
O471 C459 1.256 . S
H472 C444 0.930 . S
H473 C445 0.930 . S
H474 C447 0.929 . S
H475 C448 0.929 . S
H476 C453 0.930 . S
H477 C454 0.930 . S
H478 C456 0.929 . S
H479 C457 0.929 . S
La480 C482 2.928 . S
La480 O500 2.521 . S
La480 O501 2.628 . S
La480 O502 2.554 . S
La480 O503 2.757 . S
La480 O504 2.470 . S
La480 O509 2.482 . S
La480 O511 2.503 . S
La481 C491 2.928 . S
La481 O503 2.482 . S
La481 O505 2.503 . S
La481 O506 2.521 . S
La481 O507 2.628 . S
La481 O508 2.554 . S
La481 O509 2.757 . S
La481 O510 2.470 . S
C482 La480 2.928 . S
C482 C483 1.503 . S
C482 O500 1.261 . S
C482 O501 1.243 . S
C483 C482 1.503 . S
C483 C484 1.394 . S
C483 C488 1.373 . S
C484 C483 1.394 . S
C484 C485 1.380 . S
C484 H512 0.930 . S
C485 C484 1.380 . S
C485 C486 1.376 1_556 S
C485 H513 0.930 1_556 S
C486 C485 1.376 1_554 S
C486 C487 1.370 . S
C487 C486 1.370 . S
C487 C488 1.396 1_554 S
C487 H514 0.929 . S
C488 C483 1.373 . S
C488 C487 1.396 1_556 S
C488 H515 0.929 . S
C489 O502 1.240 . S
C489 O503 1.289 . S
C490 O504 1.258 . S
C490 O505 1.256 . S
C491 La481 2.928 . S
C491 C492 1.503 . S
C491 O506 1.261 . S
C491 O507 1.243 . S
C492 C491 1.503 . S
C492 C493 1.394 . S
C492 C497 1.373 . S
C493 C492 1.394 . S
C493 C494 1.380 . S
C493 H516 0.930 . S
C494 C493 1.380 . S
C494 C495 1.376 . S
C494 H517 0.930 . S
C495 C494 1.376 . S
C495 C496 1.370 . S
C496 C495 1.370 . S
C496 C497 1.396 . S
C496 H518 0.929 . S
C497 C492 1.373 . S
C497 C496 1.396 . S
C497 H519 0.929 . S
C498 O508 1.240 . S
C498 O509 1.289 . S
C499 O510 1.258 . S
C499 O511 1.256 . S
O500 La480 2.521 . S
O500 C482 1.261 . S
O501 La480 2.628 . S
O501 C482 1.243 . S
O502 La480 2.554 . S
O502 C489 1.240 . S
O503 La480 2.757 . S
O503 La481 2.482 . S
O503 C489 1.289 . S
O504 La480 2.470 . S
O504 C490 1.258 . S
O505 La481 2.503 . S
O505 C490 1.256 . S
O506 La481 2.521 . S
O506 C491 1.261 . S
O507 La481 2.628 . S
O507 C491 1.243 . S
O508 La481 2.554 . S
O508 C498 1.240 . S
O509 La480 2.482 . S
O509 La481 2.757 . S
O509 C498 1.289 . S
O510 La481 2.470 . S
O510 C499 1.258 . S
O511 La480 2.503 . S
O511 C499 1.256 . S
H512 C484 0.930 . S
H513 C485 0.930 1_554 S
H514 C487 0.929 . S
H515 C488 0.929 . S
H516 C493 0.930 . S
H517 C494 0.930 . S
H518 C496 0.929 . S
H519 C497 0.929 . S
La520 C522 2.928 . S
La520 O540 2.521 . S
La520 O541 2.628 . S
La520 O542 2.554 . S
La520 O543 2.757 . S
La520 O544 2.470 . S
La520 O549 2.482 . S
La520 O551 2.503 . S
La521 C531 2.928 . S
La521 O543 2.482 . S
La521 O545 2.503 . S
La521 O546 2.521 . S
La521 O547 2.628 . S
La521 O548 2.554 . S
La521 O549 2.757 . S
La521 O550 2.470 . S
C522 La520 2.928 . S
C522 C523 1.503 . S
C522 O540 1.261 . S
C522 O541 1.243 . S
C523 C522 1.503 . S
C523 C524 1.394 . S
C523 C528 1.373 . S
C524 C523 1.394 . S
C524 C525 1.380 . S
C524 H552 0.930 . S
C525 C524 1.380 . S
C525 C526 1.376 . S
C525 H553 0.930 . S
C526 C525 1.376 . S
C526 C527 1.370 . S
C527 C526 1.370 . S
C527 C528 1.396 . S
C527 H554 0.929 . S
C528 C523 1.373 . S
C528 C527 1.396 . S
C528 H555 0.929 . S
C529 O542 1.240 . S
C529 O543 1.289 . S
C530 O544 1.258 . S
C530 O545 1.256 . S
C531 La521 2.928 . S
C531 C532 1.503 . S
C531 O546 1.261 . S
C531 O547 1.243 . S
C532 C531 1.503 . S
C532 C533 1.394 . S
C532 C537 1.373 . S
C533 C532 1.394 . S
C533 C534 1.380 . S
C533 H556 0.930 . S
C534 C533 1.380 . S
C534 C535 1.376 . S
C534 H557 0.930 . S
C535 C534 1.376 . S
C535 C536 1.370 . S
C536 C535 1.370 . S
C536 C537 1.396 . S
C536 H558 0.929 . S
C537 C532 1.373 . S
C537 C536 1.396 . S
C537 H559 0.929 . S
C538 O548 1.240 . S
C538 O549 1.289 . S
C539 O550 1.258 . S
C539 O551 1.256 . S
O540 La520 2.521 . S
O540 C522 1.261 . S
O541 La520 2.628 . S
O541 C522 1.243 . S
O542 La520 2.554 . S
O542 C529 1.240 . S
O543 La520 2.757 . S
O543 La521 2.482 . S
O543 C529 1.289 . S
O544 La520 2.470 . S
O544 C530 1.258 . S
O545 La521 2.503 . S
O545 C530 1.256 . S
O546 La521 2.521 . S
O546 C531 1.261 . S
O547 La521 2.628 . S
O547 C531 1.243 . S
O548 La521 2.554 . S
O548 C538 1.240 . S
O549 La520 2.482 . S
O549 La521 2.757 . S
O549 C538 1.289 . S
O550 La521 2.470 . S
O550 C539 1.258 . S
O551 La520 2.503 . S
O551 C539 1.256 . S
H552 C524 0.930 . S
H553 C525 0.930 . S
H554 C527 0.929 . S
H555 C528 0.929 . S
H556 C533 0.930 . S
H557 C534 0.930 . S
H558 C536 0.929 . S
H559 C537 0.929 . S
La560 C562 2.928 . S
La560 O580 2.521 . S
La560 O581 2.628 . S
La560 O582 2.554 . S
La560 O583 2.757 . S
La560 O584 2.470 . S
La560 O589 2.482 . S
La560 O591 2.503 . S
La561 C571 2.928 . S
La561 O583 2.482 . S
La561 O585 2.503 . S
La561 O586 2.521 . S
La561 O587 2.628 . S
La561 O588 2.554 . S
La561 O589 2.757 . S
La561 O590 2.470 . S
C562 La560 2.928 . S
C562 C563 1.503 . S
C562 O580 1.261 . S
C562 O581 1.243 . S
C563 C562 1.503 . S
C563 C564 1.394 . S
C563 C568 1.373 . S
C564 C563 1.394 . S
C564 C565 1.380 . S
C564 H592 0.930 . S
C565 C564 1.380 . S
C565 C566 1.376 . S
C565 H593 0.930 . S
C566 C565 1.376 . S
C566 C567 1.370 . S
C567 C566 1.370 . S
C567 C568 1.396 . S
C567 H594 0.929 . S
C568 C563 1.373 . S
C568 C567 1.396 . S
C568 H595 0.929 . S
C569 O582 1.240 . S
C569 O583 1.289 . S
C570 O584 1.258 . S
C570 O585 1.256 . S
C571 La561 2.928 . S
C571 C572 1.503 . S
C571 O586 1.261 . S
C571 O587 1.243 . S
C572 C571 1.503 . S
C572 C573 1.394 . S
C572 C577 1.373 . S
C573 C572 1.394 . S
C573 C574 1.380 . S
C573 H596 0.930 . S
C574 C573 1.380 . S
C574 C575 1.376 . S
C574 H597 0.930 . S
C575 C574 1.376 . S
C575 C576 1.370 . S
C576 C575 1.370 . S
C576 C577 1.396 . S
C576 H598 0.929 1_554 S
C577 C572 1.373 . S
C577 C576 1.396 . S
C577 H599 0.929 . S
C578 O588 1.240 . S
C578 O589 1.289 . S
C579 O590 1.258 . S
C579 O591 1.256 . S
O580 La560 2.521 . S
O580 C562 1.261 . S
O581 La560 2.628 . S
O581 C562 1.243 . S
O582 La560 2.554 . S
O582 C569 1.240 . S
O583 La560 2.757 . S
O583 La561 2.482 . S
O583 C569 1.289 . S
O584 La560 2.470 . S
O584 C570 1.258 . S
O585 La561 2.503 . S
O585 C570 1.256 . S
O586 La561 2.521 . S
O586 C571 1.261 . S
O587 La561 2.628 . S
O587 C571 1.243 . S
O588 La561 2.554 . S
O588 C578 1.240 . S
O589 La560 2.482 . S
O589 La561 2.757 . S
O589 C578 1.289 . S
O590 La561 2.470 . S
O590 C579 1.258 . S
O591 La560 2.503 . S
O591 C579 1.256 . S
H592 C564 0.930 . S
H593 C565 0.930 . S
H594 C567 0.929 . S
H595 C568 0.929 . S
H596 C573 0.930 . S
H597 C574 0.930 . S
H598 C576 0.929 1_556 S
H599 C577 0.929 . S
La600 C602 2.948 . S
La600 O620 2.521 . S
La600 O621 2.628 . S
La600 O622 2.554 . S
La600 O623 2.757 . S
La600 O624 2.470 . S
La600 O629 2.482 . S
La600 O631 2.503 . S
La601 C611 2.928 . S
La601 O623 2.482 . S
La601 O625 2.503 . S
La601 O626 2.521 . S
La601 O627 2.628 . S
La601 O628 2.554 . S
La601 O629 2.757 . S
La601 O630 2.470 . S
C602 La600 2.948 . S
C602 C603 1.483 1_556 S
C602 O620 1.273 . S
C602 O621 1.250 . S
C603 C602 1.483 1_554 S
C603 C604 1.394 . S
C603 C608 1.373 . S
C604 C603 1.394 . S
C604 C605 1.380 . S
C604 H632 0.930 . S
C605 C604 1.380 . S
C605 C606 1.376 . S
C605 H633 0.930 . S
C606 C605 1.376 . S
C606 C607 1.370 . S
C607 C606 1.370 . S
C607 C608 1.396 . S
C607 H634 0.929 . S
C608 C603 1.373 . S
C608 C607 1.396 . S
C608 H635 0.929 . S
C609 O622 1.240 . S
C609 O623 1.289 . S
C610 O624 1.258 . S
C610 O625 1.256 . S
C611 La601 2.928 . S
C611 C612 1.503 . S
C611 O626 1.261 . S
C611 O627 1.243 . S
C612 C611 1.503 . S
C612 C613 1.394 . S
C612 C617 1.373 . S
C613 C612 1.394 . S
C613 C614 1.380 . S
C613 H636 0.930 . S
C614 C613 1.380 . S
C614 C615 1.376 . S
C614 H637 0.930 . S
C615 C614 1.376 . S
C615 C616 1.370 . S
C616 C615 1.370 . S
C616 C617 1.396 . S
C616 H638 0.929 . S
C617 C612 1.373 . S
C617 C616 1.396 . S
C617 H639 0.929 . S
C618 O628 1.240 . S
C618 O629 1.289 . S
C619 O630 1.258 . S
C619 O631 1.256 . S
O620 La600 2.521 . S
O620 C602 1.273 . S
O621 La600 2.628 . S
O621 C602 1.250 . S
O622 La600 2.554 . S
O622 C609 1.240 . S
O623 La600 2.757 . S
O623 La601 2.482 . S
O623 C609 1.289 . S
O624 La600 2.470 . S
O624 C610 1.258 . S
O625 La601 2.503 . S
O625 C610 1.256 . S
O626 La601 2.521 . S
O626 C611 1.261 . S
O627 La601 2.628 . S
O627 C611 1.243 . S
O628 La601 2.554 . S
O628 C618 1.240 . S
O629 La600 2.482 . S
O629 La601 2.757 . S
O629 C618 1.289 . S
O630 La601 2.470 . S
O630 C619 1.258 . S
O631 La600 2.503 . S
O631 C619 1.256 . S
H632 C604 0.930 . S
H633 C605 0.930 . S
H634 C607 0.929 . S
H635 C608 0.929 . S
H636 C613 0.930 . S
H637 C614 0.930 . S
H638 C616 0.929 . S
H639 C617 0.929 . S
La640 C642 2.928 . S
La640 O660 2.521 . S
La640 O661 2.628 . S
La640 O662 2.554 . S
La640 O663 2.757 . S
La640 O664 2.470 . S
La640 O669 2.482 . S
La640 O671 2.503 . S
La641 C651 2.928 . S
La641 O663 2.482 . S
La641 O665 2.503 . S
La641 O666 2.521 . S
La641 O667 2.628 . S
La641 O668 2.554 . S
La641 O669 2.757 . S
La641 O670 2.470 . S
C642 La640 2.928 . S
C642 C643 1.503 . S
C642 O660 1.261 . S
C642 O661 1.243 . S
C643 C642 1.503 . S
C643 C644 1.394 . S
C643 C648 1.373 . S
C644 C643 1.394 . S
C644 C645 1.380 . S
C644 H672 0.930 . S
C645 C644 1.380 . S
C645 C646 1.376 . S
C645 H673 0.930 . S
C646 C645 1.376 . S
C646 C647 1.370 . S
C647 C646 1.370 . S
C647 C648 1.396 . S
C647 H674 0.929 . S
C648 C643 1.373 . S
C648 C647 1.396 . S
C648 H675 0.929 . S
C649 O662 1.240 . S
C649 O663 1.289 . S
C650 O664 1.258 . S
C650 O665 1.256 . S
C651 La641 2.928 . S
C651 C652 1.503 . S
C651 O666 1.261 . S
C651 O667 1.243 . S
C652 C651 1.503 . S
C652 C653 1.394 . S
C652 C657 1.373 . S
C653 C652 1.394 . S
C653 C654 1.380 . S
C653 H676 0.930 . S
C654 C653 1.380 . S
C654 C655 1.376 . S
C654 H677 0.930 . S
C655 C654 1.376 . S
C655 C656 1.370 . S
C656 C655 1.370 . S
C656 C657 1.396 . S
C656 H678 0.929 . S
C657 C652 1.373 . S
C657 C656 1.396 . S
C657 H679 0.929 . S
C658 O668 1.240 . S
C658 O669 1.289 . S
C659 O670 1.258 . S
C659 O671 1.256 . S
O660 La640 2.521 . S
O660 C642 1.261 . S
O661 La640 2.628 . S
O661 C642 1.243 . S
O662 La640 2.554 . S
O662 C649 1.240 . S
O663 La640 2.757 . S
O663 La641 2.482 . S
O663 C649 1.289 . S
O664 La640 2.470 . S
O664 C650 1.258 . S
O665 La641 2.503 . S
O665 C650 1.256 . S
O666 La641 2.521 . S
O666 C651 1.261 . S
O667 La641 2.628 . S
O667 C651 1.243 . S
O668 La641 2.554 . S
O668 C658 1.240 . S
O669 La640 2.482 . S
O669 La641 2.757 . S
O669 C658 1.289 . S
O670 La641 2.470 . S
O670 C659 1.258 . S
O671 La640 2.503 . S
O671 C659 1.256 . S
H672 C644 0.930 . S
H673 C645 0.930 . S
H674 C647 0.929 . S
H675 C648 0.929 . S
H676 C653 0.930 . S
H677 C654 0.930 . S
H678 C656 0.929 . S
H679 C657 0.929 . S
La680 C682 2.928 . S
La680 O700 2.521 . S
La680 O701 2.628 . S
La680 O702 2.554 . S
La680 O703 2.757 . S
La680 O704 2.470 . S
La680 O709 2.482 . S
La680 O711 2.503 . S
La681 C691 2.928 . S
La681 O703 2.482 . S
La681 O705 2.503 . S
La681 O706 2.521 . S
La681 O707 2.628 . S
La681 O708 2.554 . S
La681 O709 2.757 . S
La681 O710 2.470 . S
C682 La680 2.928 . S
C682 C683 1.503 1_556 S
C682 O700 1.261 . S
C682 O701 1.243 . S
C683 C682 1.503 1_554 S
C683 C684 1.394 . S
C683 C688 1.373 . S
C684 C683 1.394 . S
C684 C685 1.380 . S
C684 H712 0.930 1_554 S
C685 C684 1.380 . S
C685 C686 1.376 . S
C685 H713 0.930 . S
C686 C685 1.376 . S
C686 C687 1.370 . S
C687 C686 1.370 . S
C687 C688 1.396 . S
C687 H714 0.929 . S
C688 C683 1.373 . S
C688 C687 1.396 . S
C688 H715 0.929 . S
C689 O702 1.240 . S
C689 O703 1.289 . S
C690 O704 1.258 . S
C690 O705 1.256 . S
C691 La681 2.928 . S
C691 C692 1.503 . S
C691 O706 1.261 . S
C691 O707 1.243 . S
C692 C691 1.503 . S
C692 C693 1.394 . S
C692 C697 1.373 . S
C693 C692 1.394 . S
C693 C694 1.380 . S
C693 H716 0.930 . S
C694 C693 1.380 . S
C694 C695 1.376 . S
C694 H717 0.930 . S
C695 C694 1.376 . S
C695 C696 1.370 . S
C696 C695 1.370 . S
C696 C697 1.396 . S
C696 H718 0.929 . S
C697 C692 1.373 . S
C697 C696 1.396 . S
C697 H719 0.929 . S
C698 O708 1.240 . S
C698 O709 1.289 . S
C699 O710 1.258 . S
C699 O711 1.256 . S
O700 La680 2.521 . S
O700 C682 1.261 . S
O701 La680 2.628 . S
O701 C682 1.243 . S
O702 La680 2.554 . S
O702 C689 1.240 . S
O703 La680 2.757 . S
O703 La681 2.482 . S
O703 C689 1.289 . S
O704 La680 2.470 . S
O704 C690 1.258 . S
O705 La681 2.503 . S
O705 C690 1.256 . S
O706 La681 2.521 . S
O706 C691 1.261 . S
O707 La681 2.628 . S
O707 C691 1.243 . S
O708 La681 2.554 . S
O708 C698 1.240 . S
O709 La680 2.482 . S
O709 La681 2.757 . S
O709 C698 1.289 . S
O710 La681 2.470 . S
O710 C699 1.258 . S
O711 La680 2.503 . S
O711 C699 1.256 . S
H712 C684 0.930 1_556 S
H713 C685 0.930 . S
H714 C687 0.929 . S
H715 C688 0.929 . S
H716 C693 0.930 . S
H717 C694 0.930 . S
H718 C696 0.929 . S
H719 C697 0.929 . S
La720 C722 2.928 . S
La720 O740 2.521 1_655 S
La720 O741 2.628 . S
La720 O742 2.554 1_655 S
La720 O743 2.757 . S
La720 O744 2.470 . S
La720 O749 2.482 . S
La720 O751 2.503 . S
La721 C731 2.928 1_554 S
La721 O743 2.482 . S
La721 O745 2.503 . S
La721 O746 2.521 . S
La721 O747 2.628 . S
La721 O748 2.554 . S
La721 O749 2.757 . S
La721 O750 2.470 . S
C722 La720 2.928 . S
C722 C723 1.503 1_655 S
C722 O740 1.261 1_655 S
C722 O741 1.243 . S
C723 C722 1.503 1_455 S
C723 C724 1.394 . S
C723 C728 1.373 1_455 S
C724 C723 1.394 . S
C724 C725 1.380 . S
C724 H752 0.930 . S
C725 C724 1.380 . S
C725 C726 1.376 . S
C725 H753 0.930 . S
C726 C725 1.376 . S
C726 C727 1.370 1_455 S
C727 C726 1.370 1_655 S
C727 C728 1.396 . S
C727 H754 0.929 . S
C728 C723 1.373 1_655 S
C728 C727 1.396 . S
C728 H755 0.929 . S
C729 O742 1.240 1_655 S
C729 O743 1.289 . S
C730 O744 1.258 . S
C730 O745 1.256 . S
C731 La721 2.928 1_556 S
C731 C732 1.503 . S
C731 O746 1.261 1_556 S
C731 O747 1.243 1_556 S
C732 C731 1.503 . S
C732 C733 1.394 . S
C732 C737 1.373 . S
C733 C732 1.394 . S
C733 C734 1.380 . S
C733 H756 0.930 . S
C734 C733 1.380 . S
C734 C735 1.376 . S
C734 H757 0.930 . S
C735 C734 1.376 . S
C735 C736 1.370 . S
C736 C735 1.370 . S
C736 C737 1.396 . S
C736 H758 0.929 . S
C737 C732 1.373 . S
C737 C736 1.396 . S
C737 H759 0.929 . S
C738 O748 1.240 . S
C738 O749 1.289 . S
C739 O750 1.258 . S
C739 O751 1.256 . S
O740 La720 2.521 1_455 S
O740 C722 1.261 1_455 S
O741 La720 2.628 . S
O741 C722 1.243 . S
O742 La720 2.554 1_455 S
O742 C729 1.240 1_455 S
O743 La720 2.757 . S
O743 La721 2.482 . S
O743 C729 1.289 . S
O744 La720 2.470 . S
O744 C730 1.258 . S
O745 La721 2.503 . S
O745 C730 1.256 . S
O746 La721 2.521 . S
O746 C731 1.261 1_554 S
O747 La721 2.628 . S
O747 C731 1.243 1_554 S
O748 La721 2.554 . S
O748 C738 1.240 . S
O749 La720 2.482 . S
O749 La721 2.757 . S
O749 C738 1.289 . S
O750 La721 2.470 . S
O750 C739 1.258 . S
O751 La720 2.503 . S
O751 C739 1.256 . S
H752 C724 0.930 . S
H753 C725 0.930 . S
H754 C727 0.929 . S
H755 C728 0.929 . S
H756 C733 0.930 . S
H757 C734 0.930 . S
H758 C736 0.929 . S
H759 C737 0.929 . S
La760 C762 2.928 . S
La760 O780 2.521 . S
La760 O781 2.628 . S
La760 O782 2.554 . S
La760 O783 2.757 . S
La760 O784 2.470 . S
La760 O789 2.482 . S
La760 O791 2.503 . S
La761 C771 2.928 . S
La761 O783 2.482 . S
La761 O785 2.503 . S
La761 O786 2.521 . S
La761 O787 2.628 . S
La761 O788 2.554 . S
La761 O789 2.757 . S
La761 O790 2.470 . S
C762 La760 2.928 . S
C762 C763 1.503 . S
C762 O780 1.261 . S
C762 O781 1.243 . S
C763 C762 1.503 . S
C763 C764 1.394 . S
C763 C768 1.373 . S
C764 C763 1.394 . S
C764 C765 1.380 . S
C764 H792 0.930 . S
C765 C764 1.380 . S
C765 C766 1.376 . S
C765 H793 0.930 . S
C766 C765 1.376 . S
C766 C767 1.370 . S
C767 C766 1.370 . S
C767 C768 1.396 . S
C767 H794 0.929 . S
C768 C763 1.373 . S
C768 C767 1.396 . S
C768 H795 0.929 . S
C769 O782 1.240 . S
C769 O783 1.289 . S
C770 O784 1.258 . S
C770 O785 1.256 . S
C771 La761 2.928 . S
C771 C772 1.503 . S
C771 O786 1.261 . S
C771 O787 1.243 . S
C772 C771 1.503 . S
C772 C773 1.394 . S
C772 C777 1.373 . S
C773 C772 1.394 . S
C773 C774 1.380 . S
C773 H796 0.930 . S
C774 C773 1.380 . S
C774 C775 1.376 . S
C774 H797 0.930 . S
C775 C774 1.376 . S
C775 C776 1.370 . S
C776 C775 1.370 . S
C776 C777 1.396 . S
C776 H798 0.929 . S
C777 C772 1.373 . S
C777 C776 1.396 . S
C777 H799 0.929 . S
C778 O788 1.240 . S
C778 O789 1.289 . S
C779 O790 1.258 . S
C779 O791 1.256 . S
O780 La760 2.521 . S
O780 C762 1.261 . S
O781 La760 2.628 . S
O781 C762 1.243 . S
O782 La760 2.554 . S
O782 C769 1.240 . S
O783 La760 2.757 . S
O783 La761 2.482 . S
O783 C769 1.289 . S
O784 La760 2.470 . S
O784 C770 1.258 . S
O785 La761 2.503 . S
O785 C770 1.256 . S
O786 La761 2.521 . S
O786 C771 1.261 . S
O787 La761 2.628 . S
O787 C771 1.243 . S
O788 La761 2.554 . S
O788 C778 1.240 . S
O789 La760 2.482 . S
O789 La761 2.757 . S
O789 C778 1.289 . S
O790 La761 2.470 . S
O790 C779 1.258 . S
O791 La760 2.503 . S
O791 C779 1.256 . S
H792 C764 0.930 . S
H793 C765 0.930 . S
H794 C767 0.929 . S
H795 C768 0.929 . S
H796 C773 0.930 . S
H797 C774 0.930 . S
H798 C776 0.929 . S
H799 C777 0.929 . S
La800 C802 2.928 . S
La800 O820 2.521 . S
La800 O821 2.628 . S
La800 O822 2.554 . S
La800 O823 2.757 . S
La800 O824 2.470 . S
La800 O829 2.482 . S
La800 O831 2.503 . S
La801 C811 2.928 1_545 S
La801 O823 2.482 1_556 S
La801 O825 2.503 1_556 S
La801 O826 2.521 1_545 S
La801 O827 2.628 . S
La801 O828 2.554 1_546 S
La801 O829 2.757 1_556 S
La801 O830 2.470 . S
C802 La800 2.928 . S
C802 C803 1.503 . S
C802 O820 1.261 . S
C802 O821 1.243 . S
C803 C802 1.503 . S
C803 C804 1.394 . S
C803 C808 1.373 . S
C804 C803 1.394 . S
C804 C805 1.380 . S
C804 H832 0.930 . S
C805 C804 1.380 . S
C805 C806 1.376 . S
C805 H833 0.930 . S
C806 C805 1.376 . S
C806 C807 1.370 . S
C807 C806 1.370 . S
C807 C808 1.396 . S
C807 H834 0.929 . S
C808 C803 1.373 . S
C808 C807 1.396 . S
C808 H835 0.929 . S
C809 O822 1.240 . S
C809 O823 1.289 . S
C810 O824 1.258 . S
C810 O825 1.256 . S
C811 La801 2.928 1_565 S
C811 C812 1.503 . S
C811 O826 1.261 . S
C811 O827 1.243 1_565 S
C812 C811 1.503 . S
C812 C813 1.394 . S
C812 C817 1.373 . S
C813 C812 1.394 . S
C813 C814 1.380 . S
C813 H836 0.930 . S
C814 C813 1.380 . S
C814 C815 1.376 . S
C814 H837 0.930 . S
C815 C814 1.376 . S
C815 C816 1.370 . S
C816 C815 1.370 . S
C816 C817 1.396 . S
C816 H838 0.929 . S
C817 C812 1.373 . S
C817 C816 1.396 . S
C817 H839 0.929 1_565 S
C818 O828 1.240 1_545 S
C818 O829 1.289 . S
C819 O830 1.258 . S
C819 O831 1.256 1_556 S
O820 La800 2.521 . S
O820 C802 1.261 . S
O821 La800 2.628 . S
O821 C802 1.243 . S
O822 La800 2.554 . S
O822 C809 1.240 . S
O823 La800 2.757 . S
O823 La801 2.482 1_554 S
O823 C809 1.289 . S
O824 La800 2.470 . S
O824 C810 1.258 . S
O825 La801 2.503 1_554 S
O825 C810 1.256 . S
O826 La801 2.521 1_565 S
O826 C811 1.261 . S
O827 La801 2.628 . S
O827 C811 1.243 1_545 S
O828 La801 2.554 1_564 S
O828 C818 1.240 1_565 S
O829 La800 2.482 . S
O829 La801 2.757 1_554 S
O829 C818 1.289 . S
O830 La801 2.470 . S
O830 C819 1.258 . S
O831 La800 2.503 . S
O831 C819 1.256 1_554 S
H832 C804 0.930 . S
H833 C805 0.930 . S
H834 C807 0.929 . S
H835 C808 0.929 . S
H836 C813 0.930 . S
H837 C814 0.930 . S
H838 C816 0.929 . S
H839 C817 0.929 1_545 S
La840 C842 2.928 . S
La840 O860 2.521 . S
La840 O861 2.628 . S
La840 O862 2.554 . S
La840 O863 2.757 . S
La840 O864 2.470 . S
La840 O869 2.482 . S
La840 O871 2.503 . S
La841 C851 2.928 . S
La841 O863 2.482 . S
La841 O865 2.503 . S
La841 O866 2.521 . S
La841 O867 2.628 . S
La841 O868 2.554 . S
La841 O869 2.757 . S
La841 O870 2.470 . S
C842 La840 2.928 . S
C842 C843 1.503 . S
C842 O860 1.261 . S
C842 O861 1.243 . S
C843 C842 1.503 . S
C843 C844 1.394 . S
C843 C848 1.373 . S
C844 C843 1.394 . S
C844 C845 1.380 . S
C844 H872 0.930 . S
C845 C844 1.380 . S
C845 C846 1.376 . S
C845 H873 0.930 . S
C846 C845 1.376 . S
C846 C847 1.370 . S
C847 C846 1.370 . S
C847 C848 1.396 . S
C847 H874 0.929 . S
C848 C843 1.373 . S
C848 C847 1.396 . S
C848 H875 0.929 . S
C849 O862 1.240 . S
C849 O863 1.289 . S
C850 O864 1.258 . S
C850 O865 1.256 . S
C851 La841 2.928 . S
C851 C852 1.503 . S
C851 O866 1.261 . S
C851 O867 1.243 . S
C852 C851 1.503 . S
C852 C853 1.394 . S
C852 C857 1.373 . S
C853 C852 1.394 . S
C853 C854 1.380 . S
C853 H876 0.930 . S
C854 C853 1.380 . S
C854 C855 1.376 . S
C854 H877 0.930 . S
C855 C854 1.376 . S
C855 C856 1.370 . S
C856 C855 1.370 . S
C856 C857 1.396 . S
C856 H878 0.929 . S
C857 C852 1.373 . S
C857 C856 1.396 . S
C857 H879 0.929 . S
C858 O868 1.240 . S
C858 O869 1.289 . S
C859 O870 1.258 . S
C859 O871 1.256 . S
O860 La840 2.521 . S
O860 C842 1.261 . S
O861 La840 2.628 . S
O861 C842 1.243 . S
O862 La840 2.554 . S
O862 C849 1.240 . S
O863 La840 2.757 . S
O863 La841 2.482 . S
O863 C849 1.289 . S
O864 La840 2.470 . S
O864 C850 1.258 . S
O865 La841 2.503 . S
O865 C850 1.256 . S
O866 La841 2.521 . S
O866 C851 1.261 . S
O867 La841 2.628 . S
O867 C851 1.243 . S
O868 La841 2.554 . S
O868 C858 1.240 . S
O869 La840 2.482 . S
O869 La841 2.757 . S
O869 C858 1.289 . S
O870 La841 2.470 . S
O870 C859 1.258 . S
O871 La840 2.503 . S
O871 C859 1.256 . S
H872 C844 0.930 . S
H873 C845 0.930 . S
H874 C847 0.929 . S
H875 C848 0.929 . S
H876 C853 0.930 . S
H877 C854 0.930 . S
H878 C856 0.929 . S
H879 C857 0.929 . S
La880 C882 2.928 . S
La880 O900 2.521 . S
La880 O901 2.628 . S
La880 O902 2.554 . S
La880 O903 2.757 . S
La880 O904 2.470 . S
La880 O909 2.482 . S
La880 O911 2.503 . S
La881 C891 2.928 . S
La881 O903 2.482 1_545 S
La881 O905 2.503 . S
La881 O906 2.521 . S
La881 O907 2.628 1_545 S
La881 O908 2.554 . S
La881 O909 2.757 1_545 S
La881 O910 2.470 1_545 S
C882 La880 2.928 . S
C882 C883 1.503 . S
C882 O900 1.261 . S
C882 O901 1.243 . S
C883 C882 1.503 . S
C883 C884 1.394 . S
C883 C888 1.373 . S
C884 C883 1.394 . S
C884 C885 1.380 . S
C884 H912 0.930 . S
C885 C884 1.380 . S
C885 C886 1.376 . S
C885 H913 0.930 . S
C886 C885 1.376 . S
C886 C887 1.370 . S
C887 C886 1.370 . S
C887 C888 1.396 . S
C887 H914 0.929 . S
C888 C883 1.373 . S
C888 C887 1.396 . S
C888 H915 0.929 . S
C889 O902 1.240 . S
C889 O903 1.289 . S
C890 O904 1.258 . S
C890 O905 1.256 1_565 S
C891 La881 2.928 . S
C891 C892 1.503 . S
C891 O906 1.261 . S
C891 O907 1.214 1_545 S
C892 C891 1.503 . S
C892 C893 1.394 . S
C892 C897 1.373 . S
C893 C892 1.394 . S
C893 C894 1.380 . S
C893 H916 0.930 . S
C894 C893 1.380 . S
C894 C895 1.376 . S
C894 H917 0.930 . S
C895 C894 1.376 . S
C895 C896 1.370 . S
C896 C895 1.370 . S
C896 C897 1.396 . S
C896 H918 0.929 . S
C897 C892 1.373 . S
C897 C896 1.396 . S
C897 H919 0.929 . S
C898 O908 1.240 . S
C898 O909 1.289 1_545 S
C899 O910 1.258 . S
C899 O911 1.256 . S
O900 La880 2.521 . S
O900 C882 1.261 . S
O901 La880 2.628 . S
O901 C882 1.243 . S
O902 La880 2.554 . S
O902 C889 1.240 . S
O903 La880 2.757 . S
O903 La881 2.482 1_565 S
O903 C889 1.289 . S
O904 La880 2.470 . S
O904 C890 1.258 . S
O905 La881 2.503 . S
O905 C890 1.256 1_545 S
O906 La881 2.521 . S
O906 C891 1.261 . S
O907 La881 2.628 1_565 S
O907 C891 1.214 1_565 S
O908 La881 2.554 . S
O908 C898 1.240 . S
O909 La880 2.482 . S
O909 La881 2.757 1_565 S
O909 C898 1.289 1_565 S
O910 La881 2.470 1_565 S
O910 C899 1.258 . S
O911 La880 2.503 . S
O911 C899 1.256 . S
H912 C884 0.930 . S
H913 C885 0.930 . S
H914 C887 0.929 . S
H915 C888 0.929 . S
H916 C893 0.930 . S
H917 C894 0.930 . S
H918 C896 0.929 . S
H919 C897 0.929 . S
La920 C922 2.928 1_556 S
La920 O940 2.521 1_556 S
La920 O941 2.628 1_556 S
La920 O942 2.554 . S
La920 O943 2.757 . S
La920 O944 2.470 . S
La920 O949 2.482 . S
La920 O951 2.503 . S
La921 C931 2.928 . S
La921 O943 2.482 . S
La921 O945 2.503 . S
La921 O946 2.521 . S
La921 O947 2.628 . S
La921 O948 2.554 . S
La921 O949 2.757 . S
La921 O950 2.470 . S
C922 La920 2.928 1_554 S
C922 C923 1.503 . S
C922 O940 1.261 . S
C922 O941 1.243 . S
C923 C922 1.503 . S
C923 C924 1.394 . S
C923 C928 1.373 . S
C924 C923 1.394 . S
C924 C925 1.380 . S
C924 H952 0.930 . S
C925 C924 1.380 . S
C925 C926 1.376 . S
C925 H953 0.930 . S
C926 C925 1.376 . S
C926 C927 1.370 . S
C927 C926 1.370 . S
C927 C928 1.396 . S
C927 H954 0.929 . S
C928 C923 1.373 . S
C928 C927 1.396 . S
C928 H955 0.929 . S
C929 O942 1.240 . S
C929 O943 1.289 . S
C930 O944 1.258 . S
C930 O945 1.256 . S
C931 La921 2.928 . S
C931 C932 1.503 . S
C931 O946 1.261 . S
C931 O947 1.243 . S
C932 C931 1.503 . S
C932 C933 1.394 . S
C932 C937 1.373 . S
C933 C932 1.394 . S
C933 C934 1.380 . S
C933 H956 0.930 . S
C934 C933 1.380 . S
C934 C935 1.376 . S
C934 H957 0.930 . S
C935 C934 1.376 . S
C935 C936 1.370 . S
C936 C935 1.370 . S
C936 C937 1.396 . S
C936 H958 0.929 . S
C937 C932 1.373 . S
C937 C936 1.396 . S
C937 H959 0.929 . S
C938 O948 1.240 . S
C938 O949 1.289 . S
C939 O950 1.258 . S
C939 O951 1.256 . S
O940 La920 2.521 1_554 S
O940 C922 1.261 . S
O941 La920 2.628 1_554 S
O941 C922 1.243 . S
O942 La920 2.554 . S
O942 C929 1.240 . S
O943 La920 2.757 . S
O943 La921 2.482 . S
O943 C929 1.289 . S
O944 La920 2.470 . S
O944 C930 1.258 . S
O945 La921 2.503 . S
O945 C930 1.256 . S
O946 La921 2.521 . S
O946 C931 1.261 . S
O947 La921 2.628 . S
O947 C931 1.243 . S
O948 La921 2.554 . S
O948 C938 1.240 . S
O949 La920 2.482 . S
O949 La921 2.757 . S
O949 C938 1.289 . S
O950 La921 2.470 . S
O950 C939 1.258 . S
O951 La920 2.503 . S
O951 C939 1.256 . S
H952 C924 0.930 . S
H953 C925 0.930 . S
H954 C927 0.929 . S
H955 C928 0.929 . S
H956 C933 0.930 . S
H957 C934 0.930 . S
H958 C936 0.929 . S
H959 C937 0.929 . S
La960 C962 2.928 . S
La960 O980 2.521 . S
La960 O981 2.628 . S
La960 O982 2.554 . S
La960 O983 2.757 . S
La960 O984 2.470 . S
La960 O989 2.482 . S
La960 O991 2.503 . S
La961 C971 2.928 . S
La961 O983 2.482 . S
La961 O985 2.503 . S
La961 O986 2.521 . S
La961 O987 2.628 . S
La961 O988 2.554 . S
La961 O989 2.757 . S
La961 O990 2.470 . S
C962 La960 2.928 . S
C962 C963 1.503 . S
C962 O980 1.261 . S
C962 O981 1.243 . S
C963 C962 1.503 . S
C963 C964 1.394 . S
C963 C968 1.373 . S
C964 C963 1.394 . S
C964 C965 1.380 . S
C964 H992 0.930 . S
C965 C964 1.380 . S
C965 C966 1.376 . S
C965 H993 0.930 . S
C966 C965 1.376 . S
C966 C967 1.370 . S
C967 C966 1.370 . S
C967 C968 1.396 . S
C967 H994 0.929 . S
C968 C963 1.373 . S
C968 C967 1.396 . S
C968 H995 0.929 . S
C969 O982 1.240 . S
C969 O983 1.289 . S
C970 O984 1.258 . S
C970 O985 1.256 . S
C971 La961 2.928 . S
C971 C972 1.503 . S
C971 O986 1.261 . S
C971 O987 1.243 . S
C972 C971 1.503 . S
C972 C973 1.394 . S
C972 C977 1.373 . S
C973 C972 1.394 . S
C973 C974 1.380 . S
C973 H996 0.930 . S
C974 C973 1.380 . S
C974 C975 1.376 . S
C974 H997 0.930 . S
C975 C974 1.376 . S
C975 C976 1.370 . S
C976 C975 1.370 . S
C976 C977 1.396 . S
C976 H998 0.929 . S
C977 C972 1.373 . S
C977 C976 1.396 . S
C977 H999 0.929 . S
C978 O988 1.240 . S
C978 O989 1.289 . S
C979 O990 1.258 . S
C979 O991 1.256 . S
O980 La960 2.521 . S
O980 C962 1.261 . S
O981 La960 2.628 . S
O981 C962 1.243 . S
O982 La960 2.554 . S
O982 C969 1.240 . S
O983 La960 2.757 . S
O983 La961 2.482 . S
O983 C969 1.289 . S
O984 La960 2.470 . S
O984 C970 1.258 . S
O985 La961 2.503 . S
O985 C970 1.256 . S
O986 La961 2.521 . S
O986 C971 1.261 . S
O987 La961 2.628 . S
O987 C971 1.243 . S
O988 La961 2.554 . S
O988 C978 1.240 . S
O989 La960 2.482 . S
O989 La961 2.757 . S
O989 C978 1.289 . S
O990 La961 2.470 . S
O990 C979 1.258 . S
O991 La960 2.503 . S
O991 C979 1.256 . S
H992 C964 0.930 . S
H993 C965 0.930 . S
H994 C967 0.929 . S
H995 C968 0.929 . S
H996 C973 0.930 . S
H997 C974 0.930 . S
H998 C976 0.929 . S
H999 C977 0.929 . S
La1000 C1002 2.928 . S
La1000 O1020 2.521 . S
La1000 O1021 2.628 . S
La1000 O1022 2.554 . S
La1000 O1023 2.757 . S
La1000 O1024 2.470 . S
La1000 O1029 2.482 . S
La1000 O1031 2.503 . S
La1001 C1011 2.928 . S
La1001 O1023 2.482 . S
La1001 O1025 2.503 . S
La1001 O1026 2.521 . S
La1001 O1027 2.628 . S
La1001 O1028 2.554 . S
La1001 O1029 2.757 . S
La1001 O1030 2.470 . S
C1002 La1000 2.928 . S
C1002 C1003 1.503 . S
C1002 O1020 1.261 . S
C1002 O1021 1.243 . S
C1003 C1002 1.503 . S
C1003 C1004 1.394 . S
C1003 C1008 1.373 . S
C1004 C1003 1.394 . S
C1004 C1005 1.380 . S
C1004 H1032 0.930 . S
C1005 C1004 1.380 . S
C1005 C1006 1.376 . S
C1005 H1033 0.930 . S
C1006 C1005 1.376 . S
C1006 C1007 1.370 . S
C1007 C1006 1.370 . S
C1007 C1008 1.396 . S
C1007 H1034 0.929 . S
C1008 C1003 1.373 . S
C1008 C1007 1.396 . S
C1008 H1035 0.929 . S
C1009 O1022 1.240 . S
C1009 O1023 1.289 . S
C1010 O1024 1.258 . S
C1010 O1025 1.256 . S
C1011 La1001 2.928 . S
C1011 C1012 1.503 . S
C1011 O1026 1.261 . S
C1011 O1027 1.243 . S
C1012 C1011 1.503 . S
C1012 C1013 1.394 . S
C1012 C1017 1.373 . S
C1013 C1012 1.394 . S
C1013 C1014 1.380 . S
C1013 H1036 0.930 . S
C1014 C1013 1.380 . S
C1014 C1015 1.376 . S
C1014 H1037 0.930 . S
C1015 C1014 1.376 . S
C1015 C1016 1.370 . S
C1016 C1015 1.370 . S
C1016 C1017 1.396 . S
C1016 H1038 0.929 . S
C1017 C1012 1.373 . S
C1017 C1016 1.396 . S
C1017 H1039 0.929 . S
C1018 O1028 1.240 . S
C1018 O1029 1.289 . S
C1019 O1030 1.258 . S
C1019 O1031 1.256 . S
O1020 La1000 2.521 . S
O1020 C1002 1.261 . S
O1021 La1000 2.628 . S
O1021 C1002 1.243 . S
O1022 La1000 2.554 . S
O1022 C1009 1.240 . S
O1023 La1000 2.757 . S
O1023 La1001 2.482 . S
O1023 C1009 1.289 . S
O1024 La1000 2.470 . S
O1024 C1010 1.258 . S
O1025 La1001 2.503 . S
O1025 C1010 1.256 . S
O1026 La1001 2.521 . S
O1026 C1011 1.261 . S
O1027 La1001 2.628 . S
O1027 C1011 1.243 . S
O1028 La1001 2.554 . S
O1028 C1018 1.240 . S
O1029 La1000 2.482 . S
O1029 La1001 2.757 . S
O1029 C1018 1.289 . S
O1030 La1001 2.470 . S
O1030 C1019 1.258 . S
O1031 La1000 2.503 . S
O1031 C1019 1.256 . S
H1032 C1004 0.930 . S
H1033 C1005 0.930 . S
H1034 C1007 0.929 . S
H1035 C1008 0.929 . S
H1036 C1013 0.930 . S
H1037 C1014 0.930 . S
H1038 C1016 0.929 . S
H1039 C1017 0.929 . S
La1040 C1042 2.928 . S
La1040 O1060 2.521 . S
La1040 O1061 2.628 . S
La1040 O1062 2.554 . S
La1040 O1063 2.757 . S
La1040 O1064 2.470 . S
La1040 O1069 2.482 . S
La1040 O1071 2.503 . S
La1041 C1051 2.928 . S
La1041 O1063 2.482 . S
La1041 O1065 2.503 . S
La1041 O1066 2.521 1_455 S
La1041 O1067 2.628 . S
La1041 O1068 2.554 1_455 S
La1041 O1069 2.757 . S
La1041 O1070 2.470 . S
C1042 La1040 2.928 . S
C1042 C1043 1.503 . S
C1042 O1060 1.261 . S
C1042 O1061 1.243 . S
C1043 C1042 1.503 . S
C1043 C1044 1.394 . S
C1043 C1048 1.373 . S
C1044 C1043 1.394 . S
C1044 C1045 1.380 . S
C1044 H1072 0.930 . S
C1045 C1044 1.380 . S
C1045 C1046 1.376 . S
C1045 H1073 0.930 . S
C1046 C1045 1.376 . S
C1046 C1047 1.370 . S
C1047 C1046 1.370 . S
C1047 C1048 1.396 . S
C1047 H1074 0.929 . S
C1048 C1043 1.373 . S
C1048 C1047 1.396 . S
C1048 H1075 0.929 . S
C1049 O1062 1.240 . S
C1049 O1063 1.289 . S
C1050 O1064 1.258 . S
C1050 O1065 1.256 . S
C1051 La1041 2.928 . S
C1051 C1052 1.503 1_454 S
C1051 O1066 1.261 1_455 S
C1051 O1067 1.243 . S
C1052 C1051 1.503 1_656 S
C1052 C1053 1.394 . S
C1052 C1057 1.373 1_655 S
C1053 C1052 1.394 . S
C1053 C1054 1.380 . S
C1053 H1076 0.930 1_556 S
C1054 C1053 1.380 . S
C1054 C1055 1.376 . S
C1054 H1077 0.930 . S
C1055 C1054 1.376 . S
C1055 C1056 1.370 1_655 S
C1056 C1055 1.370 1_455 S
C1056 C1057 1.396 . S
C1056 H1078 0.929 . S
C1057 C1052 1.373 1_455 S
C1057 C1056 1.396 . S
C1057 H1079 0.929 . S
C1058 O1068 1.240 1_455 S
C1058 O1069 1.289 . S
C1059 O1070 1.258 . S
C1059 O1071 1.256 . S
O1060 La1040 2.521 . S
O1060 C1042 1.261 . S
O1061 La1040 2.628 . S
O1061 C1042 1.243 . S
O1062 La1040 2.554 . S
O1062 C1049 1.240 . S
O1063 La1040 2.757 . S
O1063 La1041 2.482 . S
O1063 C1049 1.289 . S
O1064 La1040 2.470 . S
O1064 C1050 1.258 . S
O1065 La1041 2.503 . S
O1065 C1050 1.256 . S
O1066 La1041 2.521 1_655 S
O1066 C1051 1.261 1_655 S
O1067 La1041 2.628 . S
O1067 C1051 1.243 . S
O1068 La1041 2.554 1_655 S
O1068 C1058 1.240 1_655 S
O1069 La1040 2.482 . S
O1069 La1041 2.757 . S
O1069 C1058 1.289 . S
O1070 La1041 2.470 . S
O1070 C1059 1.258 . S
O1071 La1040 2.503 . S
O1071 C1059 1.256 . S
H1072 C1044 0.930 . S
H1073 C1045 0.930 . S
H1074 C1047 0.929 . S
H1075 C1048 0.929 . S
H1076 C1053 0.930 1_554 S
H1077 C1054 0.930 . S
H1078 C1056 0.929 . S
H1079 C1057 0.929 . S
La1080 C1082 2.928 . S
La1080 O1100 2.521 . S
La1080 O1101 2.628 . S
La1080 O1102 2.554 . S
La1080 O1103 2.757 . S
La1080 O1104 2.470 . S
La1080 O1109 2.482 . S
La1080 O1111 2.503 1_556 S
La1081 C1091 2.928 1_556 S
La1081 O1103 2.482 . S
La1081 O1105 2.503 . S
La1081 O1106 2.521 1_556 S
La1081 O1107 2.628 1_556 S
La1081 O1108 2.554 . S
La1081 O1109 2.757 . S
La1081 O1110 2.470 1_556 S
C1082 La1080 2.928 . S
C1082 C1083 1.503 . S
C1082 O1100 1.261 . S
C1082 O1101 1.243 . S
C1083 C1082 1.503 . S
C1083 C1084 1.394 . S
C1083 C1088 1.373 . S
C1084 C1083 1.394 . S
C1084 C1085 1.380 . S
C1084 H1112 0.930 . S
C1085 C1084 1.380 . S
C1085 C1086 1.376 . S
C1085 H1113 0.930 . S
C1086 C1085 1.376 . S
C1086 C1087 1.370 . S
C1087 C1086 1.370 . S
C1087 C1088 1.396 . S
C1087 H1114 0.929 . S
C1088 C1083 1.373 . S
C1088 C1087 1.396 . S
C1088 H1115 0.929 . S
C1089 O1102 1.240 . S
C1089 O1103 1.289 . S
C1090 O1104 1.258 . S
C1090 O1105 1.256 . S
C1091 La1081 2.928 1_554 S
C1091 C1092 1.503 . S
C1091 O1106 1.261 . S
C1091 O1107 1.243 . S
C1092 C1091 1.503 . S
C1092 C1093 1.394 . S
C1092 C1097 1.373 . S
C1093 C1092 1.394 . S
C1093 C1094 1.380 . S
C1093 H1116 0.930 . S
C1094 C1093 1.380 . S
C1094 C1095 1.376 . S
C1094 H1117 0.930 . S
C1095 C1094 1.376 . S
C1095 C1096 1.370 . S
C1096 C1095 1.370 . S
C1096 C1097 1.396 . S
C1096 H1118 0.929 . S
C1097 C1092 1.373 . S
C1097 C1096 1.396 . S
C1097 H1119 0.929 . S
C1098 O1108 1.240 . S
C1098 O1109 1.289 . S
C1099 O1110 1.258 . S
C1099 O1111 1.256 . S
O1100 La1080 2.521 . S
O1100 C1082 1.261 . S
O1101 La1080 2.628 . S
O1101 C1082 1.243 . S
O1102 La1080 2.554 . S
O1102 C1089 1.240 . S
O1103 La1080 2.757 . S
O1103 La1081 2.482 . S
O1103 C1089 1.289 . S
O1104 La1080 2.470 . S
O1104 C1090 1.258 . S
O1105 La1081 2.503 . S
O1105 C1090 1.256 . S
O1106 La1081 2.521 1_554 S
O1106 C1091 1.261 . S
O1107 La1081 2.628 1_554 S
O1107 C1091 1.243 . S
O1108 La1081 2.554 . S
O1108 C1098 1.240 . S
O1109 La1080 2.482 . S
O1109 La1081 2.757 . S
O1109 C1098 1.289 . S
O1110 La1081 2.470 1_554 S
O1110 C1099 1.258 . S
O1111 La1080 2.503 1_554 S
O1111 C1099 1.256 . S
H1112 C1084 0.930 . S
H1113 C1085 0.930 . S
H1114 C1087 0.929 . S
H1115 C1088 0.929 . S
H1116 C1093 0.930 . S
H1117 C1094 0.930 . S
H1118 C1096 0.929 . S
H1119 C1097 0.929 . S
La1120 C1122 2.928 1_565 S
La1120 O1140 2.521 1_565 S
La1120 O1141 2.628 . S
La1120 O1142 2.554 1_565 S
La1120 O1143 2.757 . S
La1120 O1144 2.470 . S
La1120 O1149 2.482 . S
La1120 O1151 2.503 . S
La1121 C1131 2.928 . S
La1121 O1143 2.482 . S
La1121 O1145 2.503 . S
La1121 O1146 2.521 . S
La1121 O1147 2.628 . S
La1121 O1148 2.554 . S
La1121 O1149 2.757 . S
La1121 O1150 2.470 . S
C1122 La1120 2.928 1_545 S
C1122 C1123 1.503 . S
C1122 O1140 1.261 . S
C1122 O1141 1.243 1_545 S
C1123 C1122 1.503 . S
C1123 C1124 1.394 . S
C1123 C1128 1.373 . S
C1124 C1123 1.394 . S
C1124 C1125 1.380 . S
C1124 H1152 0.930 . S
C1125 C1124 1.380 . S
C1125 C1126 1.376 . S
C1125 H1153 0.930 . S
C1126 C1125 1.376 . S
C1126 C1127 1.370 . S
C1127 C1126 1.370 . S
C1127 C1128 1.396 . S
C1127 H1154 0.929 . S
C1128 C1123 1.373 . S
C1128 C1127 1.396 . S
C1128 H1155 0.929 1_545 S
C1129 O1142 1.240 1_565 S
C1129 O1143 1.289 . S
C1130 O1144 1.258 . S
C1130 O1145 1.256 . S
C1131 La1121 2.928 . S
C1131 C1132 1.503 . S
C1131 O1146 1.261 . S
C1131 O1147 1.243 . S
C1132 C1131 1.503 . S
C1132 C1133 1.394 . S
C1132 C1137 1.373 . S
C1133 C1132 1.394 . S
C1133 C1134 1.380 . S
C1133 H1156 0.930 . S
C1134 C1133 1.380 . S
C1134 C1135 1.376 1_554 S
C1134 H1157 0.930 . S
C1135 C1134 1.376 1_556 S
C1135 C1136 1.370 . S
C1136 C1135 1.370 . S
C1136 C1137 1.396 1_556 S
C1136 H1158 0.929 . S
C1137 C1132 1.373 . S
C1137 C1136 1.396 1_554 S
C1137 H1159 0.929 . S
C1138 O1148 1.240 . S
C1138 O1149 1.289 . S
C1139 O1150 1.258 . S
C1139 O1151 1.256 . S
O1140 La1120 2.521 1_545 S
O1140 C1122 1.261 . S
O1141 La1120 2.628 . S
O1141 C1122 1.243 1_565 S
O1142 La1120 2.554 1_545 S
O1142 C1129 1.240 1_545 S
O1143 La1120 2.757 . S
O1143 La1121 2.482 . S
O1143 C1129 1.289 . S
O1144 La1120 2.470 . S
O1144 C1130 1.258 . S
O1145 La1121 2.503 . S
O1145 C1130 1.256 . S
O1146 La1121 2.521 . S
O1146 C1131 1.261 . S
O1147 La1121 2.628 . S
O1147 C1131 1.243 . S
O1148 La1121 2.554 . S
O1148 C1138 1.240 . S
O1149 La1120 2.482 . S
O1149 La1121 2.757 . S
O1149 C1138 1.289 . S
O1150 La1121 2.470 . S
O1150 C1139 1.258 . S
O1151 La1120 2.503 . S
O1151 C1139 1.256 . S
H1152 C1124 0.930 . S
H1153 C1125 0.930 . S
H1154 C1127 0.929 . S
H1155 C1128 0.929 1_565 S
H1156 C1133 0.930 . S
H1157 C1134 0.930 . S
H1158 C1136 0.929 . S
H1159 C1137 0.929 . S
La1160 C1162 2.928 . S
La1160 O1180 2.521 . S
La1160 O1181 2.628 . S
La1160 O1182 2.554 . S
La1160 O1183 2.757 1_554 S
La1160 O1184 2.470 . S
La1160 O1189 2.482 . S
La1160 O1191 2.503 1_554 S
La1161 C1171 2.928 . S
La1161 O1183 2.482 . S
La1161 O1185 2.503 1_556 S
La1161 O1186 2.521 . S
La1161 O1187 2.628 . S
La1161 O1188 2.554 . S
La1161 O1189 2.757 1_556 S
La1161 O1190 2.470 . S
C1162 La1160 2.928 . S
C1162 C1163 1.503 . S
C1162 O1180 1.261 . S
C1162 O1181 1.243 . S
C1163 C1162 1.503 . S
C1163 C1164 1.394 . S
C1163 C1168 1.373 . S
C1164 C1163 1.394 . S
C1164 C1165 1.380 . S
C1164 H1192 0.930 . S
C1165 C1164 1.380 . S
C1165 C1166 1.376 . S
C1165 H1193 0.930 . S
C1166 C1165 1.376 . S
C1166 C1167 1.370 . S
C1167 C1166 1.370 . S
C1167 C1168 1.396 . S
C1167 H1194 0.929 . S
C1168 C1163 1.373 . S
C1168 C1167 1.396 . S
C1168 H1195 0.929 . S
C1169 O1182 1.240 1_556 S
C1169 O1183 1.289 . S
C1170 O1184 1.258 . S
C1170 O1185 1.256 . S
C1171 La1161 2.928 . S
C1171 C1172 1.503 . S
C1171 O1186 1.261 . S
C1171 O1187 1.243 . S
C1172 C1171 1.503 . S
C1172 C1173 1.394 . S
C1172 C1177 1.373 . S
C1173 C1172 1.394 . S
C1173 C1174 1.380 . S
C1173 H1196 0.930 . S
C1174 C1173 1.380 . S
C1174 C1175 1.376 . S
C1174 H1197 0.930 . S
C1175 C1174 1.376 . S
C1175 C1176 1.370 . S
C1176 C1175 1.370 . S
C1176 C1177 1.396 . S
C1176 H1198 0.929 . S
C1177 C1172 1.373 . S
C1177 C1176 1.396 . S
C1177 H1199 0.929 . S
C1178 O1188 1.240 1_554 S
C1178 O1189 1.289 . S
C1179 O1190 1.258 . S
C1179 O1191 1.256 . S
O1180 La1160 2.521 . S
O1180 C1162 1.261 . S
O1181 La1160 2.628 . S
O1181 C1162 1.243 . S
O1182 La1160 2.554 . S
O1182 C1169 1.240 1_554 S
O1183 La1160 2.757 1_556 S
O1183 La1161 2.482 . S
O1183 C1169 1.289 . S
O1184 La1160 2.470 . S
O1184 C1170 1.258 . S
O1185 La1161 2.503 1_554 S
O1185 C1170 1.256 . S
O1186 La1161 2.521 . S
O1186 C1171 1.261 . S
O1187 La1161 2.628 . S
O1187 C1171 1.243 . S
O1188 La1161 2.554 . S
O1188 C1178 1.240 1_556 S
O1189 La1160 2.482 . S
O1189 La1161 2.757 1_554 S
O1189 C1178 1.289 . S
O1190 La1161 2.470 . S
O1190 C1179 1.258 . S
O1191 La1160 2.503 1_556 S
O1191 C1179 1.256 . S
H1192 C1164 0.930 . S
H1193 C1165 0.930 . S
H1194 C1167 0.929 . S
H1195 C1168 0.929 . S
H1196 C1173 0.930 . S
H1197 C1174 0.930 . S
H1198 C1176 0.929 . S
H1199 C1177 0.929 . S
La1200 C1202 2.928 . S
La1200 O1220 2.521 . S
La1200 O1221 2.628 1_565 S
La1200 O1222 2.554 . S
La1200 O1223 2.757 1_565 S
La1200 O1224 2.470 1_565 S
La1200 O1229 2.482 1_565 S
La1200 O1231 2.503 . S
La1201 C1211 2.928 . S
La1201 O1223 2.482 . S
La1201 O1225 2.503 . S
La1201 O1226 2.521 . S
La1201 O1227 2.628 . S
La1201 O1228 2.554 . S
La1201 O1229 2.757 . S
La1201 O1230 2.470 . S
C1202 La1200 2.928 . S
C1202 C1203 1.503 . S
C1202 O1220 1.261 . S
C1202 O1221 1.217 1_565 S
C1203 C1202 1.503 . S
C1203 C1204 1.394 . S
C1203 C1208 1.373 . S
C1204 C1203 1.394 . S
C1204 C1205 1.380 . S
C1204 H1232 0.930 . S
C1205 C1204 1.380 . S
C1205 C1206 1.376 . S
C1205 H1233 0.930 . S
C1206 C1205 1.376 . S
C1206 C1207 1.370 . S
C1207 C1206 1.370 . S
C1207 C1208 1.396 . S
C1207 H1234 0.929 1_556 S
C1208 C1203 1.373 . S
C1208 C1207 1.396 . S
C1208 H1235 0.931 . S
C1209 O1222 1.240 . S
C1209 O1223 1.289 1_565 S
C1210 O1224 1.258 . S
C1210 O1225 1.256 . S
C1211 La1201 2.928 . S
C1211 C1212 1.503 . S
C1211 O1226 1.261 . S
C1211 O1227 1.243 . S
C1212 C1211 1.503 . S
C1212 C1213 1.394 . S
C1212 C1217 1.373 . S
C1213 C1212 1.394 . S
C1213 C1214 1.380 . S
C1213 H1236 0.930 . S
C1214 C1213 1.380 . S
C1214 C1215 1.376 . S
C1214 H1237 0.930 . S
C1215 C1214 1.376 . S
C1215 C1216 1.370 . S
C1216 C1215 1.370 . S
C1216 C1217 1.396 . S
C1216 H1238 0.929 . S
C1217 C1212 1.373 . S
C1217 C1216 1.396 . S
C1217 H1239 0.929 . S
C1218 O1228 1.240 . S
C1218 O1229 1.289 . S
C1219 O1230 1.258 . S
C1219 O1231 1.256 1_545 S
O1220 La1200 2.521 . S
O1220 C1202 1.261 . S
O1221 La1200 2.628 1_545 S
O1221 C1202 1.217 1_545 S
O1222 La1200 2.554 . S
O1222 C1209 1.240 . S
O1223 La1200 2.757 1_545 S
O1223 La1201 2.482 . S
O1223 C1209 1.289 1_545 S
O1224 La1200 2.470 1_545 S
O1224 C1210 1.258 . S
O1225 La1201 2.503 . S
O1225 C1210 1.256 . S
O1226 La1201 2.521 . S
O1226 C1211 1.261 . S
O1227 La1201 2.628 . S
O1227 C1211 1.243 . S
O1228 La1201 2.554 . S
O1228 C1218 1.240 . S
O1229 La1200 2.482 1_545 S
O1229 La1201 2.757 . S
O1229 C1218 1.289 . S
O1230 La1201 2.470 . S
O1230 C1219 1.258 . S
O1231 La1200 2.503 . S
O1231 C1219 1.256 1_565 S
H1232 C1204 0.930 . S
H1233 C1205 0.930 . S
H1234 C1207 0.929 1_554 S
H1235 C1208 0.931 . S
H1236 C1213 0.930 . S
H1237 C1214 0.930 . S
H1238 C1216 0.929 . S
H1239 C1217 0.929 . S
La1240 C1242 2.928 . S
La1240 O1260 2.521 . S
La1240 O1261 2.628 . S
La1240 O1262 2.554 . S
La1240 O1263 2.757 . S
La1240 O1264 2.470 . S
La1240 O1269 2.482 . S
La1240 O1271 2.503 . S
La1241 C1251 2.928 . S
La1241 O1263 2.482 . S
La1241 O1265 2.503 . S
La1241 O1266 2.521 . S
La1241 O1267 2.628 . S
La1241 O1268 2.554 . S
La1241 O1269 2.757 . S
La1241 O1270 2.470 . S
C1242 La1240 2.928 . S
C1242 C1243 1.503 . S
C1242 O1260 1.261 . S
C1242 O1261 1.243 . S
C1243 C1242 1.503 . S
C1243 C1244 1.394 . S
C1243 C1248 1.373 . S
C1244 C1243 1.394 . S
C1244 C1245 1.380 . S
C1244 H1272 0.930 . S
C1245 C1244 1.380 . S
C1245 C1246 1.376 . S
C1245 H1273 0.930 . S
C1246 C1245 1.376 . S
C1246 C1247 1.370 . S
C1247 C1246 1.370 . S
C1247 C1248 1.396 . S
C1247 H1274 0.929 . S
C1248 C1243 1.373 . S
C1248 C1247 1.396 . S
C1248 H1275 0.929 . S
C1249 O1262 1.240 . S
C1249 O1263 1.289 . S
C1250 O1264 1.258 . S
C1250 O1265 1.256 . S
C1251 La1241 2.928 . S
C1251 C1252 1.503 . S
C1251 O1266 1.261 . S
C1251 O1267 1.243 . S
C1252 C1251 1.503 . S
C1252 C1253 1.394 . S
C1252 C1257 1.373 . S
C1253 C1252 1.394 . S
C1253 C1254 1.380 . S
C1253 H1276 0.930 . S
C1254 C1253 1.380 . S
C1254 C1255 1.376 . S
C1254 H1277 0.930 . S
C1255 C1254 1.376 . S
C1255 C1256 1.370 . S
C1256 C1255 1.370 . S
C1256 C1257 1.396 . S
C1256 H1278 0.929 . S
C1257 C1252 1.373 . S
C1257 C1256 1.396 . S
C1257 H1279 0.929 . S
C1258 O1268 1.240 . S
C1258 O1269 1.289 . S
C1259 O1270 1.258 . S
C1259 O1271 1.256 . S
O1260 La1240 2.521 . S
O1260 C1242 1.261 . S
O1261 La1240 2.628 . S
O1261 C1242 1.243 . S
O1262 La1240 2.554 . S
O1262 C1249 1.240 . S
O1263 La1240 2.757 . S
O1263 La1241 2.482 . S
O1263 C1249 1.289 . S
O1264 La1240 2.470 . S
O1264 C1250 1.258 . S
O1265 La1241 2.503 . S
O1265 C1250 1.256 . S
O1266 La1241 2.521 . S
O1266 C1251 1.261 . S
O1267 La1241 2.628 . S
O1267 C1251 1.243 . S
O1268 La1241 2.554 . S
O1268 C1258 1.240 . S
O1269 La1240 2.482 . S
O1269 La1241 2.757 . S
O1269 C1258 1.289 . S
O1270 La1241 2.470 . S
O1270 C1259 1.258 . S
O1271 La1240 2.503 . S
O1271 C1259 1.256 . S
H1272 C1244 0.930 . S
H1273 C1245 0.930 . S
H1274 C1247 0.929 . S
H1275 C1248 0.929 . S
H1276 C1253 0.930 . S
H1277 C1254 0.930 . S
H1278 C1256 0.929 . S
H1279 C1257 0.929 . S
C1280 C1281 1.387 . S
C1280 H1284 0.950 . S
C1280 C1289 1.390 . S
C1281 C1280 1.387 . S
C1281 C1283 1.387 . S
H1282 C1289 0.950 . S
C1283 C1281 1.387 . S
C1283 C1285 1.390 . S
C1283 H1287 0.950 . S
H1284 C1280 0.950 . S
C1285 C1283 1.390 . S
C1285 C1286 1.387 . S
C1285 H1288 0.950 . S
C1286 C1285 1.387 . S
C1286 C1289 1.387 . S
H1287 C1283 0.950 . S
H1288 C1285 0.950 . S
C1289 C1280 1.390 . S
C1289 H1282 0.950 . S
C1289 C1286 1.387 . S
C1290 C1291 1.387 . S
C1290 H1294 0.950 . S
C1290 C1299 1.390 . S
C1291 C1290 1.387 . S
C1291 C1293 1.387 . S
H1292 C1299 0.950 . S
C1293 C1291 1.387 . S
C1293 C1295 1.390 . S
C1293 H1297 0.950 . S
H1294 C1290 0.950 . S
C1295 C1293 1.390 . S
C1295 C1296 1.387 . S
C1295 H1298 0.950 . S
C1296 C1295 1.387 . S
C1296 C1299 1.387 . S
H1297 C1293 0.950 . S
H1298 C1295 0.950 . S
C1299 C1290 1.390 . S
C1299 H1292 0.950 . S
C1299 C1296 1.387 . S
C1300 C1301 1.387 . S
C1300 H1304 0.950 . S
C1300 C1309 1.390 . S
C1301 C1300 1.387 . S
C1301 C1303 1.387 . S
H1302 C1309 0.950 . S
C1303 C1301 1.387 . S
C1303 C1305 1.390 . S
C1303 H1307 0.950 . S
H1304 C1300 0.950 . S
C1305 C1303 1.390 . S
C1305 C1306 1.387 . S
C1305 H1308 0.950 . S
C1306 C1305 1.387 . S
C1306 C1309 1.387 . S
H1307 C1303 0.950 . S
H1308 C1305 0.950 . S
C1309 C1300 1.390 . S
C1309 H1302 0.950 . S
C1309 C1306 1.387 . S
C1310 C1311 1.387 . S
C1310 H1314 0.950 . S
C1310 C1319 1.390 . S
C1311 C1310 1.387 . S
C1311 C1313 1.387 . S
H1312 C1319 0.950 . S
C1313 C1311 1.387 . S
C1313 C1315 1.390 . S
C1313 H1317 0.950 . S
H1314 C1310 0.950 . S
C1315 C1313 1.390 . S
C1315 C1316 1.387 . S
C1315 H1318 0.950 . S
C1316 C1315 1.387 . S
C1316 C1319 1.387 . S
H1317 C1313 0.950 . S
H1318 C1315 0.950 . S
C1319 C1310 1.390 . S
C1319 H1312 0.950 . S
C1319 C1316 1.387 . S
C1320 C1321 1.387 . S
C1320 H1324 0.950 . S
C1320 C1329 1.390 . S
C1321 C1320 1.387 . S
C1321 C1323 1.387 . S
H1322 C1329 0.950 . S
C1323 C1321 1.387 . S
C1323 C1325 1.390 . S
C1323 H1327 0.950 . S
H1324 C1320 0.950 . S
C1325 C1323 1.390 . S
C1325 C1326 1.387 . S
C1325 H1328 0.950 . S
C1326 C1325 1.387 . S
C1326 C1329 1.387 . S
H1327 C1323 0.950 . S
H1328 C1325 0.950 . S
C1329 C1320 1.390 . S
C1329 H1322 0.950 . S
C1329 C1326 1.387 . S
C1330 C1331 1.387 . S
C1330 H1334 0.950 . S
C1330 C1339 1.390 . S
C1331 C1330 1.387 . S
C1331 C1333 1.387 . S
H1332 C1339 0.950 . S
C1333 C1331 1.387 . S
C1333 C1335 1.390 . S
C1333 H1337 0.950 . S
H1334 C1330 0.950 . S
C1335 C1333 1.390 . S
C1335 C1336 1.387 . S
C1335 H1338 0.950 . S
C1336 C1335 1.387 . S
C1336 C1339 1.387 . S
H1337 C1333 0.950 . S
H1338 C1335 0.950 . S
C1339 C1330 1.390 . S
C1339 H1332 0.950 . S
C1339 C1336 1.387 . S
C1340 C1341 1.387 . S
C1340 H1344 0.950 . S
C1340 C1349 1.390 . S
C1341 C1340 1.387 . S
C1341 C1343 1.387 . S
H1342 C1349 0.950 . S
C1343 C1341 1.387 . S
C1343 C1345 1.390 . S
C1343 H1347 0.950 . S
H1344 C1340 0.950 . S
C1345 C1343 1.390 . S
C1345 C1346 1.387 . S
C1345 H1348 0.950 . S
C1346 C1345 1.387 . S
C1346 C1349 1.387 . S
H1347 C1343 0.950 . S
H1348 C1345 0.950 . S
C1349 C1340 1.390 . S
C1349 H1342 0.950 . S
C1349 C1346 1.387 . S
C1350 C1351 1.387 . S
C1350 H1354 0.950 . S
C1350 C1359 1.390 . S
C1351 C1350 1.387 . S
C1351 C1353 1.387 . S
H1352 C1359 0.950 . S
C1353 C1351 1.387 . S
C1353 C1355 1.390 . S
C1353 H1357 0.950 . S
H1354 C1350 0.950 . S
C1355 C1353 1.390 . S
C1355 C1356 1.387 . S
C1355 H1358 0.950 . S
C1356 C1355 1.387 . S
C1356 C1359 1.387 . S
H1357 C1353 0.950 . S
H1358 C1355 0.950 . S
C1359 C1350 1.390 . S
C1359 H1352 0.950 . S
C1359 C1356 1.387 . S
C1360 C1361 1.387 . S
C1360 H1364 0.950 . S
C1360 C1369 1.390 . S
C1361 C1360 1.387 . S
C1361 C1363 1.387 . S
H1362 C1369 0.950 . S
C1363 C1361 1.387 . S
C1363 C1365 1.390 . S
C1363 H1367 0.950 . S
H1364 C1360 0.950 . S
C1365 C1363 1.390 . S
C1365 C1366 1.387 . S
C1365 H1368 0.950 . S
C1366 C1365 1.387 . S
C1366 C1369 1.387 . S
H1367 C1363 0.950 . S
H1368 C1365 0.950 . S
C1369 C1360 1.390 . S
C1369 H1362 0.950 . S
C1369 C1366 1.387 . S
C1370 C1371 1.387 . S
C1370 H1374 0.950 . S
C1370 C1379 1.390 . S
C1371 C1370 1.387 . S
C1371 C1373 1.387 . S
H1372 C1379 0.950 1_554 S
C1373 C1371 1.387 . S
C1373 C1375 1.390 1_556 S
C1373 H1377 0.950 . S
H1374 C1370 0.950 . S
C1375 C1373 1.390 1_554 S
C1375 C1376 1.387 . S
C1375 H1378 0.950 . S
C1376 C1375 1.387 . S
C1376 C1379 1.387 1_554 S
H1377 C1373 0.950 . S
H1378 C1375 0.950 . S
C1379 C1370 1.390 . S
C1379 H1372 0.950 1_556 S
C1379 C1376 1.387 1_556 S
C1380 C1381 1.387 . S
C1380 H1384 0.950 . S
C1380 C1389 1.390 . S
C1381 C1380 1.387 . S
C1381 C1383 1.387 . S
H1382 C1389 0.950 . S
C1383 C1381 1.387 . S
C1383 C1385 1.390 . S
C1383 H1387 0.950 . S
H1384 C1380 0.950 . S
C1385 C1383 1.390 . S
C1385 C1386 1.387 . S
C1385 H1388 0.950 . S
C1386 C1385 1.387 . S
C1386 C1389 1.387 . S
H1387 C1383 0.950 . S
H1388 C1385 0.950 . S
C1389 C1380 1.390 . S
C1389 H1382 0.950 . S
C1389 C1386 1.387 . S
C1390 C1391 1.387 . S
C1390 H1394 0.950 . S
C1390 C1399 1.390 . S
C1391 C1390 1.387 . S
C1391 C1393 1.387 . S
H1392 C1399 0.950 . S
C1393 C1391 1.387 . S
C1393 C1395 1.390 . S
C1393 H1397 0.950 . S
H1394 C1390 0.950 . S
C1395 C1393 1.390 . S
C1395 C1396 1.387 . S
C1395 H1398 0.950 . S
C1396 C1395 1.387 . S
C1396 C1399 1.387 . S
H1397 C1393 0.950 . S
H1398 C1395 0.950 . S
C1399 C1390 1.390 . S
C1399 H1392 0.950 . S
C1399 C1396 1.387 . S
C1400 C1401 1.387 . S
C1400 H1404 0.950 . S
C1400 C1409 1.390 . S
C1401 C1400 1.387 . S
C1401 C1403 1.387 . S
H1402 C1409 0.950 . S
C1403 C1401 1.387 . S
C1403 C1405 1.390 . S
C1403 H1407 0.950 . S
H1404 C1400 0.950 . S
C1405 C1403 1.390 . S
C1405 C1406 1.387 . S
C1405 H1408 0.950 . S
C1406 C1405 1.387 . S
C1406 C1409 1.387 . S
H1407 C1403 0.950 . S
H1408 C1405 0.950 . S
C1409 C1400 1.390 . S
C1409 H1402 0.950 . S
C1409 C1406 1.387 . S
C1410 C1411 1.387 . S
C1410 H1414 0.950 . S
C1410 C1419 1.390 . S
C1411 C1410 1.387 . S
C1411 C1413 1.387 . S
H1412 C1419 0.950 . S
C1413 C1411 1.387 . S
C1413 C1415 1.390 . S
C1413 H1417 0.950 . S
H1414 C1410 0.950 . S
C1415 C1413 1.390 . S
C1415 C1416 1.387 . S
C1415 H1418 0.950 . S
C1416 C1415 1.387 . S
C1416 C1419 1.387 . S
H1417 C1413 0.950 . S
H1418 C1415 0.950 . S
C1419 C1410 1.390 . S
C1419 H1412 0.950 . S
C1419 C1416 1.387 . S
C1420 C1421 1.387 . S
C1420 H1424 0.950 . S
C1420 C1429 1.390 . S
C1421 C1420 1.387 . S
C1421 C1423 1.387 . S
H1422 C1429 0.950 . S
C1423 C1421 1.387 . S
C1423 C1425 1.390 . S
C1423 H1427 0.950 . S
H1424 C1420 0.950 . S
C1425 C1423 1.390 . S
C1425 C1426 1.387 1_554 S
C1425 H1428 0.950 1_554 S
C1426 C1425 1.387 1_556 S
C1426 C1429 1.387 1_556 S
H1427 C1423 0.950 . S
H1428 C1425 0.950 1_556 S
C1429 C1420 1.390 . S
C1429 H1422 0.950 . S
C1429 C1426 1.387 1_554 S
C1430 C1431 1.387 . S
C1430 H1434 0.950 . S
C1430 C1439 1.390 . S
C1431 C1430 1.387 . S
C1431 C1433 1.387 . S
H1432 C1439 0.950 . S
C1433 C1431 1.387 . S
C1433 C1435 1.390 . S
C1433 H1437 0.950 . S
H1434 C1430 0.950 . S
C1435 C1433 1.390 . S
C1435 C1436 1.387 . S
C1435 H1438 0.950 . S
C1436 C1435 1.387 . S
C1436 C1439 1.387 . S
H1437 C1433 0.950 . S
H1438 C1435 0.950 . S
C1439 C1430 1.390 . S
C1439 H1432 0.950 . S
C1439 C1436 1.387 . S
C1440 C1441 1.387 . S
C1440 H1444 0.950 . S
C1440 C1449 1.390 . S
C1441 C1440 1.387 . S
C1441 C1443 1.387 . S
H1442 C1449 0.950 . S
C1443 C1441 1.387 . S
C1443 C1445 1.390 . S
C1443 H1447 0.950 . S
H1444 C1440 0.950 . S
C1445 C1443 1.390 . S
C1445 C1446 1.387 . S
C1445 H1448 0.950 . S
C1446 C1445 1.387 . S
C1446 C1449 1.387 . S
H1447 C1443 0.950 . S
H1448 C1445 0.950 . S
C1449 C1440 1.390 . S
C1449 H1442 0.950 . S
C1449 C1446 1.387 . S
C1450 C1451 1.387 . S
C1450 H1454 0.950 . S
C1450 C1459 1.390 . S
C1451 C1450 1.387 . S
C1451 C1453 1.387 . S
H1452 C1459 0.950 . S
C1453 C1451 1.387 . S
C1453 C1455 1.390 . S
C1453 H1457 0.950 . S
H1454 C1450 0.950 . S
C1455 C1453 1.390 . S
C1455 C1456 1.387 . S
C1455 H1458 0.950 . S
C1456 C1455 1.387 . S
C1456 C1459 1.387 . S
H1457 C1453 0.950 . S
H1458 C1455 0.950 . S
C1459 C1450 1.390 . S
C1459 H1452 0.950 . S
C1459 C1456 1.387 . S
C1460 C1461 1.387 . S
C1460 H1464 0.950 . S
C1460 C1469 1.390 . S
C1461 C1460 1.387 . S
C1461 C1463 1.387 . S
H1462 C1469 0.950 . S
C1463 C1461 1.387 . S
C1463 C1465 1.390 . S
C1463 H1467 0.950 . S
H1464 C1460 0.950 . S
C1465 C1463 1.390 . S
C1465 C1466 1.387 . S
C1465 H1468 0.950 . S
C1466 C1465 1.387 . S
C1466 C1469 1.387 . S
H1467 C1463 0.950 . S
H1468 C1465 0.950 . S
C1469 C1460 1.390 . S
C1469 H1462 0.950 . S
C1469 C1466 1.387 . S
C1470 C1471 1.387 . S
C1470 H1474 0.950 . S
C1470 C1479 1.390 . S
C1471 C1470 1.387 . S
C1471 C1473 1.387 . S
H1472 C1479 0.950 . S
C1473 C1471 1.387 . S
C1473 C1475 1.390 . S
C1473 H1477 0.950 . S
H1474 C1470 0.950 . S
C1475 C1473 1.390 . S
C1475 C1476 1.387 . S
C1475 H1478 0.950 . S
C1476 C1475 1.387 . S
C1476 C1479 1.387 . S
H1477 C1473 0.950 . S
H1478 C1475 0.950 . S
C1479 C1470 1.390 . S
C1479 H1472 0.950 . S
C1479 C1476 1.387 . S
C1480 C1481 1.387 . S
C1480 H1484 0.950 . S
C1480 C1489 1.390 . S
C1481 C1480 1.387 . S
C1481 C1483 1.387 . S
H1482 C1489 0.950 . S
C1483 C1481 1.387 . S
C1483 C1485 1.390 . S
C1483 H1487 0.950 . S
H1484 C1480 0.950 . S
C1485 C1483 1.390 . S
C1485 C1486 1.387 . S
C1485 H1488 0.950 . S
C1486 C1485 1.387 . S
C1486 C1489 1.387 . S
H1487 C1483 0.950 . S
H1488 C1485 0.950 . S
C1489 C1480 1.390 . S
C1489 H1482 0.950 . S
C1489 C1486 1.387 . S
C1490 C1491 1.387 . S
C1490 H1494 0.950 . S
C1490 C1499 1.390 . S
C1491 C1490 1.387 . S
C1491 C1493 1.387 . S
H1492 C1499 0.950 . S
C1493 C1491 1.387 . S
C1493 C1495 1.390 . S
C1493 H1497 0.950 . S
H1494 C1490 0.950 . S
C1495 C1493 1.390 . S
C1495 C1496 1.387 . S
C1495 H1498 0.950 . S
C1496 C1495 1.387 . S
C1496 C1499 1.387 . S
H1497 C1493 0.950 . S
H1498 C1495 0.950 . S
C1499 C1490 1.390 . S
C1499 H1492 0.950 . S
C1499 C1496 1.387 . S
C1500 C1501 1.387 . S
C1500 H1504 0.950 . S
C1500 C1509 1.390 . S
C1501 C1500 1.387 . S
C1501 C1503 1.387 . S
H1502 C1509 0.950 . S
C1503 C1501 1.387 . S
C1503 C1505 1.390 . S
C1503 H1507 0.950 . S
H1504 C1500 0.950 . S
C1505 C1503 1.390 . S
C1505 C1506 1.387 . S
C1505 H1508 0.950 . S
C1506 C1505 1.387 . S
C1506 C1509 1.387 . S
H1507 C1503 0.950 . S
H1508 C1505 0.950 . S
C1509 C1500 1.390 . S
C1509 H1502 0.950 . S
C1509 C1506 1.387 . S
C1510 C1511 1.387 . S
C1510 H1514 0.950 . S
C1510 C1519 1.390 . S
C1511 C1510 1.387 . S
C1511 C1513 1.387 . S
H1512 C1519 0.950 . S
C1513 C1511 1.387 . S
C1513 C1515 1.390 . S
C1513 H1517 0.950 . S
H1514 C1510 0.950 . S
C1515 C1513 1.390 . S
C1515 C1516 1.387 . S
C1515 H1518 0.950 . S
C1516 C1515 1.387 . S
C1516 C1519 1.387 . S
H1517 C1513 0.950 . S
H1518 C1515 0.950 . S
C1519 C1510 1.390 . S
C1519 H1512 0.950 . S
C1519 C1516 1.387 . S
C1520 C1521 1.387 . S
C1520 H1524 0.950 . S
C1520 C1529 1.390 . S
C1521 C1520 1.387 . S
C1521 C1523 1.387 . S
H1522 C1529 0.950 . S
C1523 C1521 1.387 . S
C1523 C1525 1.390 . S
C1523 H1527 0.950 . S
H1524 C1520 0.950 . S
C1525 C1523 1.390 . S
C1525 C1526 1.387 . S
C1525 H1528 0.950 . S
C1526 C1525 1.387 . S
C1526 C1529 1.387 . S
H1527 C1523 0.950 . S
H1528 C1525 0.950 . S
C1529 C1520 1.390 . S
C1529 H1522 0.950 . S
C1529 C1526 1.387 . S
C1530 C1531 1.387 . S
C1530 H1534 0.950 . S
C1530 C1539 1.390 . S
C1531 C1530 1.387 . S
C1531 C1533 1.387 . S
H1532 C1539 0.950 . S
C1533 C1531 1.387 . S
C1533 C1535 1.390 . S
C1533 H1537 0.950 . S
H1534 C1530 0.950 . S
C1535 C1533 1.390 . S
C1535 C1536 1.387 . S
C1535 H1538 0.950 . S
C1536 C1535 1.387 . S
C1536 C1539 1.387 . S
H1537 C1533 0.950 . S
H1538 C1535 0.950 . S
C1539 C1530 1.390 . S
C1539 H1532 0.950 . S
C1539 C1536 1.387 . S
C1540 C1541 1.387 . S
C1540 H1544 0.950 . S
C1540 C1549 1.390 . S
C1541 C1540 1.387 . S
C1541 C1543 1.387 . S
H1542 C1549 0.950 . S
C1543 C1541 1.387 . S
C1543 C1545 1.390 . S
C1543 H1547 0.950 . S
H1544 C1540 0.950 . S
C1545 C1543 1.390 . S
C1545 C1546 1.387 . S
C1545 H1548 0.950 . S
C1546 C1545 1.387 . S
C1546 C1549 1.387 . S
H1547 C1543 0.950 . S
H1548 C1545 0.950 . S
C1549 C1540 1.390 . S
C1549 H1542 0.950 . S
C1549 C1546 1.387 . S
C1550 C1551 1.387 . S
C1550 H1554 0.950 . S
C1550 C1559 1.390 . S
C1551 C1550 1.387 . S
C1551 C1553 1.387 . S
H1552 C1559 0.950 . S
C1553 C1551 1.387 . S
C1553 C1555 1.390 . S
C1553 H1557 0.950 . S
H1554 C1550 0.950 . S
C1555 C1553 1.390 . S
C1555 C1556 1.387 . S
C1555 H1558 0.950 . S
C1556 C1555 1.387 . S
C1556 C1559 1.387 . S
H1557 C1553 0.950 . S
H1558 C1555 0.950 . S
C1559 C1550 1.390 . S
C1559 H1552 0.950 . S
C1559 C1556 1.387 . S
C1560 C1561 1.387 . S
C1560 H1564 0.950 . S
C1560 C1569 1.390 . S
C1561 C1560 1.387 . S
C1561 C1563 1.387 . S
H1562 C1569 0.950 . S
C1563 C1561 1.387 . S
C1563 C1565 1.390 . S
C1563 H1567 0.950 . S
H1564 C1560 0.950 . S
C1565 C1563 1.390 . S
C1565 C1566 1.387 . S
C1565 H1568 0.950 . S
C1566 C1565 1.387 . S
C1566 C1569 1.387 . S
H1567 C1563 0.950 . S
H1568 C1565 0.950 . S
C1569 C1560 1.390 . S
C1569 H1562 0.950 . S
C1569 C1566 1.387 . S
C1570 C1571 1.387 . S
C1570 H1574 0.950 . S
C1570 C1579 1.390 . S
C1571 C1570 1.387 . S
C1571 C1573 1.387 . S
H1572 C1579 0.950 . S
C1573 C1571 1.387 . S
C1573 C1575 1.390 . S
C1573 H1577 0.950 . S
H1574 C1570 0.950 . S
C1575 C1573 1.390 . S
C1575 C1576 1.387 . S
C1575 H1578 0.950 . S
C1576 C1575 1.387 . S
C1576 C1579 1.387 . S
H1577 C1573 0.950 . S
H1578 C1575 0.950 . S
C1579 C1570 1.390 . S
C1579 H1572 0.950 . S
C1579 C1576 1.387 . S
C1580 C1581 1.387 . S
C1580 H1584 0.950 . S
C1580 C1589 1.390 . S
C1581 C1580 1.387 . S
C1581 C1583 1.387 . S
H1582 C1589 0.950 . S
C1583 C1581 1.387 . S
C1583 C1585 1.390 . S
C1583 H1587 0.950 . S
H1584 C1580 0.950 . S
C1585 C1583 1.390 . S
C1585 C1586 1.387 . S
C1585 H1588 0.950 . S
C1586 C1585 1.387 . S
C1586 C1589 1.387 . S
H1587 C1583 0.950 . S
H1588 C1585 0.950 . S
C1589 C1580 1.390 . S
C1589 H1582 0.950 . S
C1589 C1586 1.387 . S
C1590 C1591 1.387 . S
C1590 H1594 0.950 . S
C1590 C1599 1.390 1_556 S
C1591 C1590 1.387 . S
C1591 C1593 1.387 1_556 S
H1592 C1599 0.950 . S
C1593 C1591 1.387 1_554 S
C1593 C1595 1.390 . S
C1593 H1597 0.950 1_554 S
H1594 C1590 0.950 . S
C1595 C1593 1.390 . S
C1595 C1596 1.387 . S
C1595 H1598 0.950 . S
C1596 C1595 1.387 . S
C1596 C1599 1.387 . S
H1597 C1593 0.950 1_556 S
H1598 C1595 0.950 . S
C1599 C1590 1.390 1_554 S
C1599 H1592 0.950 . S
C1599 C1596 1.387 . S
C1600 C1601 1.387 . S
C1600 H1604 0.950 . S
C1600 C1609 1.390 . S
C1601 C1600 1.387 . S
C1601 C1603 1.387 1_655 S
H1602 C1609 0.950 . S
C1603 C1601 1.387 1_455 S
C1603 C1605 1.390 . S
C1603 H1607 0.950 . S
H1604 C1600 0.950 . S
C1605 C1603 1.390 . S
C1605 C1606 1.387 . S
C1605 H1608 0.950 . S
C1606 C1605 1.387 . S
C1606 C1609 1.387 1_455 S
H1607 C1603 0.950 . S
H1608 C1605 0.950 . S
C1609 C1600 1.390 . S
C1609 H1602 0.950 . S
C1609 C1606 1.387 1_655 S
C1610 C1611 1.387 . S
C1610 H1614 0.950 . S
C1610 C1619 1.390 . S
C1611 C1610 1.387 . S
C1611 C1613 1.387 . S
H1612 C1619 0.950 . S
C1613 C1611 1.387 . S
C1613 C1615 1.390 . S
C1613 H1617 0.950 . S
H1614 C1610 0.950 . S
C1615 C1613 1.390 . S
C1615 C1616 1.387 . S
C1615 H1618 0.950 . S
C1616 C1615 1.387 . S
C1616 C1619 1.387 . S
H1617 C1613 0.950 . S
H1618 C1615 0.950 . S
C1619 C1610 1.390 . S
C1619 H1612 0.950 . S
C1619 C1616 1.387 . S
C1620 C1621 1.387 . S
C1620 H1624 0.950 . S
C1620 C1629 1.390 . S
C1621 C1620 1.387 . S
C1621 C1623 1.387 . S
H1622 C1629 0.950 . S
C1623 C1621 1.387 . S
C1623 C1625 1.390 . S
C1623 H1627 0.950 . S
H1624 C1620 0.950 . S
C1625 C1623 1.390 . S
C1625 C1626 1.387 . S
C1625 H1628 0.950 . S
C1626 C1625 1.387 . S
C1626 C1629 1.387 . S
H1627 C1623 0.950 . S
H1628 C1625 0.950 . S
C1629 C1620 1.390 . S
C1629 H1622 0.950 . S
C1629 C1626 1.387 . S
C1630 C1631 1.387 . S
C1630 H1634 0.950 . S
C1630 C1639 1.390 . S
C1631 C1630 1.387 . S
C1631 C1633 1.387 . S
H1632 C1639 0.950 . S
C1633 C1631 1.387 . S
C1633 C1635 1.390 . S
C1633 H1637 0.950 . S
H1634 C1630 0.950 . S
C1635 C1633 1.390 . S
C1635 C1636 1.387 . S
C1635 H1638 0.950 . S
C1636 C1635 1.387 . S
C1636 C1639 1.387 . S
H1637 C1633 0.950 . S
H1638 C1635 0.950 . S
C1639 C1630 1.390 . S
C1639 H1632 0.950 . S
C1639 C1636 1.387 . S
C1640 C1641 1.387 . S
C1640 H1644 0.950 . S
C1640 C1649 1.390 1_655 S
C1641 C1640 1.387 . S
C1641 C1643 1.387 . S
H1642 C1649 0.950 . S
C1643 C1641 1.387 . S
C1643 C1645 1.390 1_655 S
C1643 H1647 0.950 . S
H1644 C1640 0.950 . S
C1645 C1643 1.390 1_455 S
C1645 C1646 1.387 . S
C1645 H1648 0.950 . S
C1646 C1645 1.387 . S
C1646 C1649 1.387 . S
H1647 C1643 0.950 . S
H1648 C1645 0.950 . S
C1649 C1640 1.390 1_455 S
C1649 H1642 0.950 . S
C1649 C1646 1.387 . S
C1650 C1651 1.387 . S
C1650 H1654 0.950 . S
C1650 C1659 1.390 . S
C1651 C1650 1.387 . S
C1651 C1653 1.387 . S
H1652 C1659 0.950 . S
C1653 C1651 1.387 . S
C1653 C1655 1.390 . S
C1653 H1657 0.950 . S
H1654 C1650 0.950 . S
C1655 C1653 1.390 . S
C1655 C1656 1.387 . S
C1655 H1658 0.950 . S
C1656 C1655 1.387 . S
C1656 C1659 1.387 . S
H1657 C1653 0.950 . S
H1658 C1655 0.950 . S
C1659 C1650 1.390 . S
C1659 H1652 0.950 . S
C1659 C1656 1.387 . S
C1660 C1661 1.387 . S
C1660 H1664 0.950 . S
C1660 C1669 1.390 . S
C1661 C1660 1.387 . S
C1661 C1663 1.387 . S
H1662 C1669 0.950 . S
C1663 C1661 1.387 . S
C1663 C1665 1.390 . S
C1663 H1667 0.950 . S
H1664 C1660 0.950 . S
C1665 C1663 1.390 . S
C1665 C1666 1.387 . S
C1665 H1668 0.950 . S
C1666 C1665 1.387 . S
C1666 C1669 1.387 . S
H1667 C1663 0.950 . S
H1668 C1665 0.950 . S
C1669 C1660 1.390 . S
C1669 H1662 0.950 . S
C1669 C1666 1.387 . S
C1670 C1671 1.387 . S
C1670 H1674 0.950 . S
C1670 C1679 1.390 . S
C1671 C1670 1.387 . S
C1671 C1673 1.387 . S
H1672 C1679 0.950 . S
C1673 C1671 1.387 . S
C1673 C1675 1.390 . S
C1673 H1677 0.950 . S
H1674 C1670 0.950 . S
C1675 C1673 1.390 . S
C1675 C1676 1.387 . S
C1675 H1678 0.950 . S
C1676 C1675 1.387 . S
C1676 C1679 1.387 . S
H1677 C1673 0.950 . S
H1678 C1675 0.950 . S
C1679 C1670 1.390 . S
C1679 H1672 0.950 . S
C1679 C1676 1.387 . S
C1680 C1681 1.387 . S
C1680 H1684 0.950 . S
C1680 C1689 1.390 . S
C1681 C1680 1.387 . S
C1681 C1683 1.387 . S
H1682 C1689 0.950 . S
C1683 C1681 1.387 . S
C1683 C1685 1.390 . S
C1683 H1687 0.950 . S
H1684 C1680 0.950 . S
C1685 C1683 1.390 . S
C1685 C1686 1.387 . S
C1685 H1688 0.950 . S
C1686 C1685 1.387 . S
C1686 C1689 1.387 . S
H1687 C1683 0.950 . S
H1688 C1685 0.950 . S
C1689 C1680 1.390 . S
C1689 H1682 0.950 . S
C1689 C1686 1.387 . S
C1690 C1691 1.387 . S
C1690 H1694 0.950 . S
C1690 C1699 1.390 . S
C1691 C1690 1.387 . S
C1691 C1693 1.387 . S
H1692 C1699 0.950 . S
C1693 C1691 1.387 . S
C1693 C1695 1.390 . S
C1693 H1697 0.950 . S
H1694 C1690 0.950 . S
C1695 C1693 1.390 . S
C1695 C1696 1.387 . S
C1695 H1698 0.950 . S
C1696 C1695 1.387 . S
C1696 C1699 1.387 . S
H1697 C1693 0.950 . S
H1698 C1695 0.950 . S
C1699 C1690 1.390 . S
C1699 H1692 0.950 . S
C1699 C1696 1.387 . S
C1700 C1701 1.387 . S
C1700 H1704 0.950 . S
C1700 C1709 1.390 . S
C1701 C1700 1.387 . S
C1701 C1703 1.387 . S
H1702 C1709 0.950 . S
C1703 C1701 1.387 . S
C1703 C1705 1.390 . S
C1703 H1707 0.950 . S
H1704 C1700 0.950 . S
C1705 C1703 1.390 . S
C1705 C1706 1.387 . S
C1705 H1708 0.950 . S
C1706 C1705 1.387 . S
C1706 C1709 1.387 . S
H1707 C1703 0.950 . S
H1708 C1705 0.950 . S
C1709 C1700 1.390 . S
C1709 H1702 0.950 . S
C1709 C1706 1.387 . S
C1710 C1711 1.387 . S
C1710 H1714 0.950 . S
C1710 C1719 1.390 . S
C1711 C1710 1.387 . S
C1711 C1713 1.387 . S
H1712 C1719 0.950 . S
C1713 C1711 1.387 . S
C1713 C1715 1.390 . S
C1713 H1717 0.950 . S
H1714 C1710 0.950 . S
C1715 C1713 1.390 . S
C1715 C1716 1.387 . S
C1715 H1718 0.950 . S
C1716 C1715 1.387 . S
C1716 C1719 1.387 . S
H1717 C1713 0.950 . S
H1718 C1715 0.950 . S
C1719 C1710 1.390 . S
C1719 H1712 0.950 . S
C1719 C1716 1.387 . S
C1720 C1721 1.387 . S
C1720 H1724 0.950 . S
C1720 C1729 1.390 1_545 S
C1721 C1720 1.387 . S
C1721 C1723 1.387 . S
H1722 C1729 0.950 . S
C1723 C1721 1.387 . S
C1723 C1725 1.390 1_545 S
C1723 H1727 0.950 . S
H1724 C1720 0.950 . S
C1725 C1723 1.390 1_565 S
C1725 C1726 1.387 . S
C1725 H1728 0.950 . S
C1726 C1725 1.387 . S
C1726 C1729 1.387 . S
H1727 C1723 0.950 . S
H1728 C1725 0.950 . S
C1729 C1720 1.390 1_565 S
C1729 H1722 0.950 . S
C1729 C1726 1.387 . S
C1730 C1731 1.387 . S
C1730 H1734 0.950 . S
C1730 C1739 1.390 1_565 S
C1731 C1730 1.387 . S
C1731 C1733 1.387 1_455 S
H1732 C1739 0.950 . S
C1733 C1731 1.387 1_655 S
C1733 C1735 1.390 1_565 S
C1733 H1737 0.950 . S
H1734 C1730 0.950 . S
C1735 C1733 1.390 1_545 S
C1735 C1736 1.387 . S
C1735 H1738 0.950 . S
C1736 C1735 1.387 . S
C1736 C1739 1.387 1_655 S
H1737 C1733 0.950 . S
H1738 C1735 0.950 . S
C1739 C1730 1.390 1_545 S
C1739 H1732 0.950 . S
C1739 C1736 1.387 1_455 S
C1740 C1741 1.355 1_545 S
C1740 H1744 0.950 . S
C1740 C1749 1.390 . S
C1741 C1740 1.355 1_565 S
C1741 C1743 1.415 . S
H1742 C1749 0.950 . S
C1743 C1741 1.415 . S
C1743 C1745 1.390 . S
C1743 H1747 0.950 . S
H1744 C1740 0.950 . S
C1745 C1743 1.390 . S
C1745 C1746 1.352 1_565 S
C1745 H1748 0.950 . S
C1746 C1745 1.352 1_545 S
C1746 C1749 1.418 . S
H1747 C1743 0.950 . S
H1748 C1745 0.950 . S
C1749 C1740 1.390 . S
C1749 H1742 0.950 . S
C1749 C1746 1.418 . S
C1750 C1751 1.387 . S
C1750 H1754 0.950 . S
C1750 C1759 1.390 . S
C1751 C1750 1.387 . S
C1751 C1753 1.387 1_645 S
H1752 C1759 0.950 . S
C1753 C1751 1.387 1_465 S
C1753 C1755 1.390 . S
C1753 H1757 0.950 . S
H1754 C1750 0.950 . S
C1755 C1753 1.390 . S
C1755 C1756 1.387 . S
C1755 H1758 0.950 . S
C1756 C1755 1.387 . S
C1756 C1759 1.387 1_465 S
H1757 C1753 0.950 . S
H1758 C1755 0.950 . S
C1759 C1750 1.390 . S
C1759 H1752 0.950 . S
C1759 C1756 1.387 1_645 S
C1760 C1761 1.387 . S
C1760 H1764 0.950 . S
C1760 C1769 1.390 1_455 S
C1761 C1760 1.387 . S
C1761 C1763 1.387 . S
H1762 C1769 0.950 . S
C1763 C1761 1.387 . S
C1763 C1765 1.390 1_455 S
C1763 H1767 0.950 . S
H1764 C1760 0.950 . S
C1765 C1763 1.390 1_655 S
C1765 C1766 1.387 . S
C1765 H1768 0.950 . S
C1766 C1765 1.387 . S
C1766 C1769 1.387 . S
H1767 C1763 0.950 . S
H1768 C1765 0.950 . S
C1769 C1760 1.390 1_655 S
C1769 H1762 0.950 . S
C1769 C1766 1.387 . S
C1770 C1771 1.387 . S
C1770 H1774 0.950 . S
C1770 C1779 1.390 . S
C1771 C1770 1.387 . S
C1771 C1773 1.387 . S
H1772 C1779 0.950 . S
C1773 C1771 1.387 . S
C1773 C1775 1.390 . S
C1773 H1777 0.950 . S
H1774 C1770 0.950 . S
C1775 C1773 1.390 . S
C1775 C1776 1.387 . S
C1775 H1778 0.950 . S
C1776 C1775 1.387 . S
C1776 C1779 1.387 . S
H1777 C1773 0.950 . S
H1778 C1775 0.950 . S
C1779 C1770 1.390 . S
C1779 H1772 0.950 . S
C1779 C1776 1.387 . S
C1780 C1781 1.387 . S
C1780 H1784 0.950 . S
C1780 C1789 1.390 . S
C1781 C1780 1.387 . S
C1781 C1783 1.387 . S
H1782 C1789 0.950 . S
C1783 C1781 1.387 . S
C1783 C1785 1.390 . S
C1783 H1787 0.950 . S
H1784 C1780 0.950 . S
C1785 C1783 1.390 . S
C1785 C1786 1.387 . S
C1785 H1788 0.950 . S
C1786 C1785 1.387 . S
C1786 C1789 1.387 . S
H1787 C1783 0.950 . S
H1788 C1785 0.950 . S
C1789 C1780 1.390 . S
C1789 H1782 0.950 . S
C1789 C1786 1.387 . S
C1790 C1791 1.387 . S
C1790 H1794 0.950 . S
C1790 C1799 1.390 . S
C1791 C1790 1.387 . S
C1791 C1793 1.387 . S
H1792 C1799 0.950 . S
C1793 C1791 1.387 . S
C1793 C1795 1.390 . S
C1793 H1797 0.950 . S
H1794 C1790 0.950 . S
C1795 C1793 1.390 . S
C1795 C1796 1.387 . S
C1795 H1798 0.950 . S
C1796 C1795 1.387 . S
C1796 C1799 1.387 . S
H1797 C1793 0.950 . S
H1798 C1795 0.950 . S
C1799 C1790 1.390 . S
C1799 H1792 0.950 . S
C1799 C1796 1.387 . S
C1800 C1801 1.387 . S
C1800 H1804 0.950 . S
C1800 C1809 1.390 . S
C1801 C1800 1.387 . S
C1801 C1803 1.387 . S
H1802 C1809 0.950 . S
C1803 C1801 1.387 . S
C1803 C1805 1.390 . S
C1803 H1807 0.950 . S
H1804 C1800 0.950 . S
C1805 C1803 1.390 . S
C1805 C1806 1.387 . S
C1805 H1808 0.950 . S
C1806 C1805 1.387 . S
C1806 C1809 1.387 . S
H1807 C1803 0.950 . S
H1808 C1805 0.950 . S
C1809 C1800 1.390 . S
C1809 H1802 0.950 . S
C1809 C1806 1.387 . S
C1810 C1811 1.387 . S
C1810 H1814 0.950 . S
C1810 C1819 1.390 . S
C1811 C1810 1.387 . S
C1811 C1813 1.387 . S
H1812 C1819 0.950 . S
C1813 C1811 1.387 . S
C1813 C1815 1.390 . S
C1813 H1817 0.950 . S
H1814 C1810 0.950 . S
C1815 C1813 1.390 . S
C1815 C1816 1.387 . S
C1815 H1818 0.950 . S
C1816 C1815 1.387 . S
C1816 C1819 1.387 . S
H1817 C1813 0.950 . S
H1818 C1815 0.950 . S
C1819 C1810 1.390 . S
C1819 H1812 0.950 . S
C1819 C1816 1.387 . S
C1820 C1821 1.387 . S
C1820 H1824 0.950 . S
C1820 C1829 1.390 . S
C1821 C1820 1.387 . S
C1821 C1823 1.387 . S
H1822 C1829 0.950 . S
C1823 C1821 1.387 . S
C1823 C1825 1.390 . S
C1823 H1827 0.950 . S
H1824 C1820 0.950 . S
C1825 C1823 1.390 . S
C1825 C1826 1.387 . S
C1825 H1828 0.950 . S
C1826 C1825 1.387 . S
C1826 C1829 1.387 . S
H1827 C1823 0.950 . S
H1828 C1825 0.950 . S
C1829 C1820 1.390 . S
C1829 H1822 0.950 . S
C1829 C1826 1.387 . S
C1830 C1831 1.387 . S
C1830 H1834 0.950 . S
C1830 C1839 1.390 . S
C1831 C1830 1.387 . S
C1831 C1833 1.387 . S
H1832 C1839 0.950 . S
C1833 C1831 1.387 . S
C1833 C1835 1.390 . S
C1833 H1837 0.950 . S
H1834 C1830 0.950 . S
C1835 C1833 1.390 . S
C1835 C1836 1.387 . S
C1835 H1838 0.950 . S
C1836 C1835 1.387 . S
C1836 C1839 1.387 . S
H1837 C1833 0.950 . S
H1838 C1835 0.950 . S
C1839 C1830 1.390 . S
C1839 H1832 0.950 . S
C1839 C1836 1.387 . S
C1840 C1841 1.387 . S
C1840 H1844 0.950 . S
C1840 C1849 1.390 1_455 S
C1841 C1840 1.387 . S
C1841 C1843 1.387 1_455 S
H1842 C1849 0.949 . S
C1843 C1841 1.387 1_655 S
C1843 C1845 1.390 . S
C1843 H1847 0.950 . S
H1844 C1840 0.950 . S
C1845 C1843 1.390 . S
C1845 C1846 1.387 . S
C1845 H1848 0.950 . S
C1846 C1845 1.387 . S
C1846 C1849 1.387 . S
H1847 C1843 0.950 . S
H1848 C1845 0.950 . S
C1849 C1840 1.390 1_655 S
C1849 H1842 0.949 . S
C1849 C1846 1.387 . S
C1850 C1851 1.387 . S
C1850 H1854 0.950 . S
C1850 C1859 1.390 . S
C1851 C1850 1.387 . S
C1851 C1853 1.387 . S
H1852 C1859 0.950 . S
C1853 C1851 1.387 . S
C1853 C1855 1.390 . S
C1853 H1857 0.950 . S
H1854 C1850 0.950 . S
C1855 C1853 1.390 . S
C1855 C1856 1.387 . S
C1855 H1858 0.950 . S
C1856 C1855 1.387 . S
C1856 C1859 1.387 . S
H1857 C1853 0.950 . S
H1858 C1855 0.950 . S
C1859 C1850 1.390 . S
C1859 H1852 0.950 . S
C1859 C1856 1.387 . S
C1860 C1861 1.387 . S
C1860 H1864 0.950 . S
C1860 C1869 1.390 . S
C1861 C1860 1.387 . S
C1861 C1863 1.387 . S
H1862 C1869 0.950 . S
C1863 C1861 1.387 . S
C1863 C1865 1.390 . S
C1863 H1867 0.950 . S
H1864 C1860 0.950 . S
C1865 C1863 1.390 . S
C1865 C1866 1.387 . S
C1865 H1868 0.950 . S
C1866 C1865 1.387 . S
C1866 C1869 1.387 . S
H1867 C1863 0.950 . S
H1868 C1865 0.950 . S
C1869 C1860 1.390 . S
C1869 H1862 0.950 . S
C1869 C1866 1.387 . S
C1870 C1871 1.387 . S
C1870 H1874 0.950 . S
C1870 C1879 1.390 . S
C1871 C1870 1.387 . S
C1871 C1873 1.387 . S
H1872 C1879 0.950 . S
C1873 C1871 1.387 . S
C1873 C1875 1.390 . S
C1873 H1877 0.950 . S
H1874 C1870 0.950 . S
C1875 C1873 1.390 . S
C1875 C1876 1.387 . S
C1875 H1878 0.950 . S
C1876 C1875 1.387 . S
C1876 C1879 1.387 . S
H1877 C1873 0.950 . S
H1878 C1875 0.950 . S
C1879 C1870 1.390 . S
C1879 H1872 0.950 . S
C1879 C1876 1.387 . S
C1880 C1881 1.387 . S
C1880 H1884 0.950 . S
C1880 C1889 1.390 . S
C1881 C1880 1.387 . S
C1881 C1883 1.387 . S
H1882 C1889 0.950 . S
C1883 C1881 1.387 . S
C1883 C1885 1.390 . S
C1883 H1887 0.950 . S
H1884 C1880 0.950 . S
C1885 C1883 1.390 . S
C1885 C1886 1.387 . S
C1885 H1888 0.950 . S
C1886 C1885 1.387 . S
C1886 C1889 1.387 . S
H1887 C1883 0.950 . S
H1888 C1885 0.950 . S
C1889 C1880 1.390 . S
C1889 H1882 0.950 . S
C1889 C1886 1.387 . S
C1890 C1891 1.387 . S
C1890 H1894 0.950 . S
C1890 C1899 1.390 . S
C1891 C1890 1.387 . S
C1891 C1893 1.387 . S
H1892 C1899 0.950 . S
C1893 C1891 1.387 . S
C1893 C1895 1.390 . S
C1893 H1897 0.950 . S
H1894 C1890 0.950 . S
C1895 C1893 1.390 . S
C1895 C1896 1.387 . S
C1895 H1898 0.950 . S
C1896 C1895 1.387 . S
C1896 C1899 1.387 . S
H1897 C1893 0.950 . S
H1898 C1895 0.950 . S
C1899 C1890 1.390 . S
C1899 H1892 0.950 . S
C1899 C1896 1.387 . S
C1900 C1901 1.387 . S
C1900 H1904 0.950 . S
C1900 C1909 1.390 . S
C1901 C1900 1.387 . S
C1901 C1903 1.387 . S
H1902 C1909 0.950 . S
C1903 C1901 1.387 . S
C1903 C1905 1.390 . S
C1903 H1907 0.950 . S
H1904 C1900 0.950 . S
C1905 C1903 1.390 . S
C1905 C1906 1.387 . S
C1905 H1908 0.950 . S
C1906 C1905 1.387 . S
C1906 C1909 1.387 . S
H1907 C1903 0.950 . S
H1908 C1905 0.950 . S
C1909 C1900 1.390 . S
C1909 H1902 0.950 . S
C1909 C1906 1.387 . S
C1910 C1911 1.387 . S
C1910 H1914 0.950 . S
C1910 C1919 1.390 . S
C1911 C1910 1.387 . S
C1911 C1913 1.387 . S
H1912 C1919 0.950 . S
C1913 C1911 1.387 . S
C1913 C1915 1.390 . S
C1913 H1917 0.950 . S
H1914 C1910 0.950 . S
C1915 C1913 1.390 . S
C1915 C1916 1.387 . S
C1915 H1918 0.950 . S
C1916 C1915 1.387 . S
C1916 C1919 1.387 . S
H1917 C1913 0.950 . S
H1918 C1915 0.950 . S
C1919 C1910 1.390 . S
C1919 H1912 0.950 . S
C1919 C1916 1.387 . S
C1920 C1921 1.387 . S
C1920 H1924 0.950 . S
C1920 C1929 1.390 . S
C1921 C1920 1.387 . S
C1921 C1923 1.387 . S
H1922 C1929 0.950 . S
C1923 C1921 1.387 . S
C1923 C1925 1.390 . S
C1923 H1927 0.950 . S
H1924 C1920 0.950 . S
C1925 C1923 1.390 . S
C1925 C1926 1.387 . S
C1925 H1928 0.950 . S
C1926 C1925 1.387 . S
C1926 C1929 1.387 . S
H1927 C1923 0.950 . S
H1928 C1925 0.950 . S
C1929 C1920 1.390 . S
C1929 H1922 0.950 . S
C1929 C1926 1.387 . S
C1930 C1931 1.387 . S
C1930 H1934 0.950 . S
C1930 C1939 1.390 . S
C1931 C1930 1.387 . S
C1931 C1933 1.387 . S
H1932 C1939 0.950 . S
C1933 C1931 1.387 . S
C1933 C1935 1.390 . S
C1933 H1937 0.950 . S
H1934 C1930 0.950 . S
C1935 C1933 1.390 . S
C1935 C1936 1.387 . S
C1935 H1938 0.950 . S
C1936 C1935 1.387 . S
C1936 C1939 1.387 . S
H1937 C1933 0.950 . S
H1938 C1935 0.950 . S
C1939 C1930 1.390 . S
C1939 H1932 0.950 . S
C1939 C1936 1.387 . S
C1940 C1941 1.387 . S
C1940 H1944 0.950 . S
C1940 C1949 1.390 . S
C1941 C1940 1.387 . S
C1941 C1943 1.387 1_655 S
H1942 C1949 0.950 . S
C1943 C1941 1.387 1_455 S
C1943 C1945 1.390 . S
C1943 H1947 0.950 . S
H1944 C1940 0.950 . S
C1945 C1943 1.390 . S
C1945 C1946 1.387 . S
C1945 H1948 0.950 . S
C1946 C1945 1.387 . S
C1946 C1949 1.387 1_455 S
H1947 C1943 0.950 . S
H1948 C1945 0.950 . S
C1949 C1940 1.390 . S
C1949 H1942 0.950 . S
C1949 C1946 1.387 1_655 S
C1950 C1951 1.387 . S
C1950 H1954 0.950 . S
C1950 C1959 1.390 1_556 S
C1951 C1950 1.387 . S
C1951 C1953 1.387 1_556 S
H1952 C1959 0.950 . S
C1953 C1951 1.387 1_554 S
C1953 C1955 1.390 . S
C1953 H1957 0.950 . S
H1954 C1950 0.950 . S
C1955 C1953 1.390 . S
C1955 C1956 1.387 . S
C1955 H1958 0.950 . S
C1956 C1955 1.387 . S
C1956 C1959 1.387 . S
H1957 C1953 0.950 . S
H1958 C1955 0.950 . S
C1959 C1950 1.390 1_554 S
C1959 H1952 0.950 . S
C1959 C1956 1.387 . S
C1960 C1961 1.387 . S
C1960 H1964 0.950 . S
C1960 C1969 1.390 . S
C1961 C1960 1.387 . S
C1961 C1963 1.387 . S
H1962 C1969 0.950 . S
C1963 C1961 1.387 . S
C1963 C1965 1.390 . S
C1963 H1967 0.950 . S
H1964 C1960 0.950 . S
C1965 C1963 1.390 . S
C1965 C1966 1.387 . S
C1965 H1968 0.950 . S
C1966 C1965 1.387 . S
C1966 C1969 1.387 . S
H1967 C1963 0.950 . S
H1968 C1965 0.950 . S
C1969 C1960 1.390 . S
C1969 H1962 0.950 . S
C1969 C1966 1.387 . S
C1970 C1971 1.387 . S
C1970 H1974 0.950 . S
C1970 C1979 1.390 . S
C1971 C1970 1.387 . S
C1971 C1973 1.387 . S
H1972 C1979 0.950 . S
C1973 C1971 1.387 . S
C1973 C1975 1.390 . S
C1973 H1977 0.950 . S
H1974 C1970 0.950 . S
C1975 C1973 1.390 . S
C1975 C1976 1.387 . S
C1975 H1978 0.950 . S
C1976 C1975 1.387 . S
C1976 C1979 1.387 . S
H1977 C1973 0.950 . S
H1978 C1975 0.950 . S
C1979 C1970 1.390 . S
C1979 H1972 0.950 . S
C1979 C1976 1.387 . S
C1980 C1981 1.387 . S
C1980 H1984 0.950 . S
C1980 C1989 1.390 . S
C1981 C1980 1.387 . S
C1981 C1983 1.387 . S
H1982 C1989 0.950 . S
C1983 C1981 1.387 . S
C1983 C1985 1.390 . S
C1983 H1987 0.950 . S
H1984 C1980 0.950 . S
C1985 C1983 1.390 . S
C1985 C1986 1.387 . S
C1985 H1988 0.950 . S
C1986 C1985 1.387 . S
C1986 C1989 1.387 . S
H1987 C1983 0.950 . S
H1988 C1985 0.950 . S
C1989 C1980 1.390 . S
C1989 H1982 0.950 . S
C1989 C1986 1.387 . S
C1990 C1991 1.387 . S
C1990 H1994 0.950 . S
C1990 C1999 1.390 . S
C1991 C1990 1.387 . S
C1991 C1993 1.387 . S
H1992 C1999 0.950 . S
C1993 C1991 1.387 . S
C1993 C1995 1.390 . S
C1993 H1997 0.950 . S
H1994 C1990 0.950 . S
C1995 C1993 1.390 . S
C1995 C1996 1.387 . S
C1995 H1998 0.950 . S
C1996 C1995 1.387 . S
C1996 C1999 1.387 . S
H1997 C1993 0.950 . S
H1998 C1995 0.950 . S
C1999 C1990 1.390 . S
C1999 H1992 0.950 . S
C1999 C1996 1.387 . S
C2000 C2001 1.387 . S
C2000 H2004 0.950 . S
C2000 C2009 1.390 . S
C2001 C2000 1.387 . S
C2001 C2003 1.387 . S
H2002 C2009 0.950 . S
C2003 C2001 1.387 . S
C2003 C2005 1.390 . S
C2003 H2007 0.950 . S
H2004 C2000 0.950 . S
C2005 C2003 1.390 . S
C2005 C2006 1.387 . S
C2005 H2008 0.950 . S
C2006 C2005 1.387 . S
C2006 C2009 1.387 . S
H2007 C2003 0.950 . S
H2008 C2005 0.950 . S
C2009 C2000 1.390 . S
C2009 H2002 0.950 . S
C2009 C2006 1.387 . S
C2010 C2011 1.387 . S
C2010 H2014 0.950 . S
C2010 C2019 1.390 . S
C2011 C2010 1.387 . S
C2011 C2013 1.387 . S
H2012 C2019 0.950 . S
C2013 C2011 1.387 . S
C2013 C2015 1.390 . S
C2013 H2017 0.950 . S
H2014 C2010 0.950 . S
C2015 C2013 1.390 . S
C2015 C2016 1.387 . S
C2015 H2018 0.950 . S
C2016 C2015 1.387 . S
C2016 C2019 1.387 . S
H2017 C2013 0.950 . S
H2018 C2015 0.950 . S
C2019 C2010 1.390 . S
C2019 H2012 0.950 . S
C2019 C2016 1.387 . S
C2020 C2021 1.387 1_655 S
C2020 H2024 0.950 . S
C2020 C2029 1.390 . S
C2021 C2020 1.387 1_455 S
C2021 C2023 1.387 . S
H2022 C2029 0.950 . S
C2023 C2021 1.387 . S
C2023 C2025 1.390 . S
C2023 H2027 0.950 . S
H2024 C2020 0.950 . S
C2025 C2023 1.390 . S
C2025 C2026 1.387 1_455 S
C2025 H2028 0.950 . S
C2026 C2025 1.387 1_655 S
C2026 C2029 1.387 . S
H2027 C2023 0.950 . S
H2028 C2025 0.950 . S
C2029 C2020 1.390 . S
C2029 H2022 0.950 . S
C2029 C2026 1.387 . S
C2030 C2031 1.387 . S
C2030 H2034 0.950 . S
C2030 C2039 1.390 . S
C2031 C2030 1.387 . S
C2031 C2033 1.387 . S
H2032 C2039 0.950 . S
C2033 C2031 1.387 . S
C2033 C2035 1.390 . S
C2033 H2037 0.950 . S
H2034 C2030 0.950 . S
C2035 C2033 1.390 . S
C2035 C2036 1.387 . S
C2035 H2038 0.950 . S
C2036 C2035 1.387 . S
C2036 C2039 1.387 . S
H2037 C2033 0.950 . S
H2038 C2035 0.950 . S
C2039 C2030 1.390 . S
C2039 H2032 0.950 . S
C2039 C2036 1.387 . S
C2040 C2041 1.387 . S
C2040 H2044 0.950 . S
C2040 C2049 1.390 . S
C2041 C2040 1.387 . S
C2041 C2043 1.387 . S
H2042 C2049 0.950 . S
C2043 C2041 1.387 . S
C2043 C2045 1.390 . S
C2043 H2047 0.950 . S
H2044 C2040 0.950 . S
C2045 C2043 1.390 . S
C2045 C2046 1.387 . S
C2045 H2048 0.950 . S
C2046 C2045 1.387 . S
C2046 C2049 1.387 . S
H2047 C2043 0.950 . S
H2048 C2045 0.950 . S
C2049 C2040 1.390 . S
C2049 H2042 0.950 . S
C2049 C2046 1.387 . S
C2050 C2051 1.387 . S
C2050 H2054 0.950 . S
C2050 C2059 1.390 . S
C2051 C2050 1.387 . S
C2051 C2053 1.387 . S
H2052 C2059 0.950 . S
C2053 C2051 1.387 . S
C2053 C2055 1.390 . S
C2053 H2057 0.950 . S
H2054 C2050 0.950 . S
C2055 C2053 1.390 . S
C2055 C2056 1.387 . S
C2055 H2058 0.950 . S
C2056 C2055 1.387 . S
C2056 C2059 1.387 . S
H2057 C2053 0.950 . S
H2058 C2055 0.950 . S
C2059 C2050 1.390 . S
C2059 H2052 0.950 . S
C2059 C2056 1.387 . S
C2060 C2061 1.387 . S
C2060 H2064 0.950 . S
C2060 C2069 1.390 . S
C2061 C2060 1.387 . S
C2061 C2063 1.387 . S
H2062 C2069 0.950 . S
C2063 C2061 1.387 . S
C2063 C2065 1.390 . S
C2063 H2067 0.950 . S
H2064 C2060 0.950 . S
C2065 C2063 1.390 . S
C2065 C2066 1.387 . S
C2065 H2068 0.950 . S
C2066 C2065 1.387 . S
C2066 C2069 1.387 . S
H2067 C2063 0.950 . S
H2068 C2065 0.950 . S
C2069 C2060 1.390 . S
C2069 H2062 0.950 . S
C2069 C2066 1.387 . S
C2070 C2071 1.387 1_554 S
C2070 H2074 0.950 . S
C2070 C2079 1.390 . S
C2071 C2070 1.387 1_556 S
C2071 C2073 1.387 . S
H2072 C2079 0.950 . S
C2073 C2071 1.387 . S
C2073 C2075 1.390 1_556 S
C2073 H2077 0.950 . S
H2074 C2070 0.950 . S
C2075 C2073 1.390 1_554 S
C2075 C2076 1.387 . S
C2075 H2078 0.950 . S
C2076 C2075 1.387 . S
C2076 C2079 1.387 . S
H2077 C2073 0.950 . S
H2078 C2075 0.950 . S
C2079 C2070 1.390 . S
C2079 H2072 0.950 . S
C2079 C2076 1.387 . S
C2080 C2081 1.387 . S
C2080 H2084 0.950 . S
C2080 C2089 1.390 . S
C2081 C2080 1.387 . S
C2081 C2083 1.387 . S
H2082 C2089 0.950 . S
C2083 C2081 1.387 . S
C2083 C2085 1.390 . S
C2083 H2087 0.950 . S
H2084 C2080 0.950 . S
C2085 C2083 1.390 . S
C2085 C2086 1.387 . S
C2085 H2088 0.950 . S
C2086 C2085 1.387 . S
C2086 C2089 1.387 . S
H2087 C2083 0.950 . S
H2088 C2085 0.950 . S
C2089 C2080 1.390 . S
C2089 H2082 0.950 . S
C2089 C2086 1.387 . S
C2090 C2091 1.387 . S
C2090 H2094 0.950 . S
C2090 C2099 1.390 1_556 S
C2091 C2090 1.387 . S
C2091 C2093 1.387 . S
H2092 C2099 0.950 . S
C2093 C2091 1.387 . S
C2093 C2095 1.390 1_556 S
C2093 H2097 0.950 . S
H2094 C2090 0.950 . S
C2095 C2093 1.390 1_554 S
C2095 C2096 1.387 . S
C2095 H2098 0.950 . S
C2096 C2095 1.387 . S
C2096 C2099 1.387 . S
H2097 C2093 0.950 . S
H2098 C2095 0.950 . S
C2099 C2090 1.390 1_554 S
C2099 H2092 0.950 . S
C2099 C2096 1.387 . S
C2100 C2101 1.387 . S
C2100 H2104 0.950 . S
C2100 C2109 1.390 . S
C2101 C2100 1.387 . S
C2101 C2103 1.387 . S
H2102 C2109 0.950 . S
C2103 C2101 1.387 . S
C2103 C2105 1.390 . S
C2103 H2107 0.950 . S
H2104 C2100 0.950 . S
C2105 C2103 1.390 . S
C2105 C2106 1.387 . S
C2105 H2108 0.950 . S
C2106 C2105 1.387 . S
C2106 C2109 1.387 . S
H2107 C2103 0.950 . S
H2108 C2105 0.950 . S
C2109 C2100 1.390 . S
C2109 H2102 0.950 . S
C2109 C2106 1.387 . S
C2110 C2111 1.387 . S
C2110 H2114 0.950 . S
C2110 C2119 1.390 . S
C2111 C2110 1.387 . S
C2111 C2113 1.387 . S
H2112 C2119 0.950 . S
C2113 C2111 1.387 . S
C2113 C2115 1.390 . S
C2113 H2117 0.950 . S
H2114 C2110 0.950 . S
C2115 C2113 1.390 . S
C2115 C2116 1.387 . S
C2115 H2118 0.950 . S
C2116 C2115 1.387 . S
C2116 C2119 1.387 . S
H2117 C2113 0.950 . S
H2118 C2115 0.950 . S
C2119 C2110 1.390 . S
C2119 H2112 0.950 . S
C2119 C2116 1.387 . S
C2120 C2121 1.387 . S
C2120 H2124 0.950 . S
C2120 C2129 1.390 . S
C2121 C2120 1.387 . S
C2121 C2123 1.387 . S
H2122 C2129 0.950 . S
C2123 C2121 1.387 . S
C2123 C2125 1.390 . S
C2123 H2127 0.950 . S
H2124 C2120 0.950 . S
C2125 C2123 1.390 . S
C2125 C2126 1.387 . S
C2125 H2128 0.950 . S
C2126 C2125 1.387 . S
C2126 C2129 1.387 . S
H2127 C2123 0.950 . S
H2128 C2125 0.950 . S
C2129 C2120 1.390 . S
C2129 H2122 0.950 . S
C2129 C2126 1.387 . S
C2130 C2131 1.387 . S
C2130 H2134 0.950 . S
C2130 C2139 1.390 . S
C2131 C2130 1.387 . S
C2131 C2133 1.387 . S
H2132 C2139 0.950 . S
C2133 C2131 1.387 . S
C2133 C2135 1.390 . S
C2133 H2137 0.950 . S
H2134 C2130 0.950 . S
C2135 C2133 1.390 . S
C2135 C2136 1.387 . S
C2135 H2138 0.950 . S
C2136 C2135 1.387 . S
C2136 C2139 1.387 . S
H2137 C2133 0.950 . S
H2138 C2135 0.950 . S
C2139 C2130 1.390 . S
C2139 H2132 0.950 . S
C2139 C2136 1.387 . S
C2140 C2141 1.387 . S
C2140 H2144 0.950 . S
C2140 C2149 1.390 . S
C2141 C2140 1.387 . S
C2141 C2143 1.387 . S
H2142 C2149 0.950 . S
C2143 C2141 1.387 . S
C2143 C2145 1.390 . S
C2143 H2147 0.950 . S
H2144 C2140 0.950 . S
C2145 C2143 1.390 . S
C2145 C2146 1.387 . S
C2145 H2148 0.950 . S
C2146 C2145 1.387 . S
C2146 C2149 1.387 . S
H2147 C2143 0.950 . S
H2148 C2145 0.950 . S
C2149 C2140 1.390 . S
C2149 H2142 0.950 . S
C2149 C2146 1.387 . S
C2150 C2151 1.387 . S
C2150 H2154 0.950 . S
C2150 C2159 1.390 . S
C2151 C2150 1.387 . S
C2151 C2153 1.387 . S
H2152 C2159 0.950 . S
C2153 C2151 1.387 . S
C2153 C2155 1.390 . S
C2153 H2157 0.950 . S
H2154 C2150 0.950 . S
C2155 C2153 1.390 . S
C2155 C2156 1.387 . S
C2155 H2158 0.950 . S
C2156 C2155 1.387 . S
C2156 C2159 1.387 . S
H2157 C2153 0.950 . S
H2158 C2155 0.950 . S
C2159 C2150 1.390 . S
C2159 H2152 0.950 . S
C2159 C2156 1.387 . S
C2160 C2161 1.387 . S
C2160 H2164 0.950 . S
C2160 C2169 1.390 1_565 S
C2161 C2160 1.387 . S
C2161 C2163 1.387 . S
H2162 C2169 0.950 . S
C2163 C2161 1.387 . S
C2163 C2165 1.390 . S
C2163 H2167 0.950 . S
H2164 C2160 0.950 . S
C2165 C2163 1.390 . S
C2165 C2166 1.387 1_565 S
C2165 H2168 0.950 . S
C2166 C2165 1.387 1_545 S
C2166 C2169 1.387 . S
H2167 C2163 0.950 . S
H2168 C2165 0.950 . S
C2169 C2160 1.390 1_545 S
C2169 H2162 0.950 . S
C2169 C2166 1.387 . S
C2170 C2171 1.387 . S
C2170 H2174 0.950 . S
C2170 C2179 1.390 . S
C2171 C2170 1.387 . S
C2171 C2173 1.387 . S
H2172 C2179 0.950 . S
C2173 C2171 1.387 . S
C2173 C2175 1.390 . S
C2173 H2177 0.950 . S
H2174 C2170 0.950 . S
C2175 C2173 1.390 . S
C2175 C2176 1.387 . S
C2175 H2178 0.950 . S
C2176 C2175 1.387 . S
C2176 C2179 1.387 . S
H2177 C2173 0.950 . S
H2178 C2175 0.950 . S
C2179 C2170 1.390 . S
C2179 H2172 0.950 . S
C2179 C2176 1.387 . S
C2180 C2181 1.387 . S
C2180 H2184 0.950 . S
C2180 C2189 1.390 . S
C2181 C2180 1.387 . S
C2181 C2183 1.387 . S
H2182 C2189 0.950 . S
C2183 C2181 1.387 . S
C2183 C2185 1.390 . S
C2183 H2187 0.950 . S
H2184 C2180 0.950 . S
C2185 C2183 1.390 . S
C2185 C2186 1.387 . S
C2185 H2188 0.950 1_545 S
C2186 C2185 1.387 . S
C2186 C2189 1.387 . S
H2187 C2183 0.950 . S
H2188 C2185 0.950 1_565 S
C2189 C2180 1.390 . S
C2189 H2182 0.950 . S
C2189 C2186 1.387 . S
C2190 C2191 1.387 . S
C2190 H2194 0.950 . S
C2190 C2199 1.390 . S
C2191 C2190 1.387 . S
C2191 C2193 1.387 . S
H2192 C2199 0.950 . S
C2193 C2191 1.387 . S
C2193 C2195 1.390 . S
C2193 H2197 0.950 . S
H2194 C2190 0.950 . S
C2195 C2193 1.390 . S
C2195 C2196 1.387 . S
C2195 H2198 0.950 . S
C2196 C2195 1.387 . S
C2196 C2199 1.387 . S
H2197 C2193 0.950 . S
H2198 C2195 0.950 . S
C2199 C2190 1.390 . S
C2199 H2192 0.950 . S
C2199 C2196 1.387 . S
C2200 C2201 1.387 . S
C2200 H2204 0.950 . S
C2200 C2209 1.390 1_565 S
C2201 C2200 1.387 . S
C2201 C2203 1.387 1_565 S
H2202 C2209 0.950 1_565 S
C2203 C2201 1.387 1_545 S
C2203 C2205 1.390 . S
C2203 H2207 0.950 . S
H2204 C2200 0.950 . S
C2205 C2203 1.390 . S
C2205 C2206 1.387 . S
C2205 H2208 0.950 . S
C2206 C2205 1.387 . S
C2206 C2209 1.387 . S
H2207 C2203 0.950 . S
H2208 C2205 0.950 . S
C2209 C2200 1.390 1_545 S
C2209 H2202 0.950 1_545 S
C2209 C2206 1.387 . S
C2210 C2211 1.387 . S
C2210 H2214 0.950 . S
C2210 C2219 1.390 . S
C2211 C2210 1.387 . S
C2211 C2213 1.387 . S
H2212 C2219 0.950 . S
C2213 C2211 1.387 . S
C2213 C2215 1.390 . S
C2213 H2217 0.950 . S
H2214 C2210 0.950 . S
C2215 C2213 1.390 . S
C2215 C2216 1.387 . S
C2215 H2218 0.950 . S
C2216 C2215 1.387 . S
C2216 C2219 1.387 . S
H2217 C2213 0.950 . S
H2218 C2215 0.950 . S
C2219 C2210 1.390 . S
C2219 H2212 0.950 . S
C2219 C2216 1.387 . S
C2220 C2221 1.387 . S
C2220 H2224 0.950 . S
C2220 C2229 1.390 . S
C2221 C2220 1.387 . S
C2221 C2223 1.387 . S
H2222 C2229 0.950 1_545 S
C2223 C2221 1.387 . S
C2223 C2225 1.390 . S
C2223 H2227 0.950 . S
H2224 C2220 0.950 . S
C2225 C2223 1.390 . S
C2225 C2226 1.387 . S
C2225 H2228 0.950 . S
C2226 C2225 1.387 . S
C2226 C2229 1.387 . S
H2227 C2223 0.950 . S
H2228 C2225 0.950 . S
C2229 C2220 1.390 . S
C2229 H2222 0.950 1_565 S
C2229 C2226 1.387 . S
C2230 C2231 1.387 . S
C2230 H2234 0.950 . S
C2230 C2239 1.390 . S
C2231 C2230 1.387 . S
C2231 C2233 1.387 . S
H2232 C2239 0.950 . S
C2233 C2231 1.387 . S
C2233 C2235 1.390 . S
C2233 H2237 0.950 . S
H2234 C2230 0.950 . S
C2235 C2233 1.390 . S
C2235 C2236 1.387 . S
C2235 H2238 0.950 . S
C2236 C2235 1.387 . S
C2236 C2239 1.387 . S
H2237 C2233 0.950 . S
H2238 C2235 0.950 . S
C2239 C2230 1.390 . S
C2239 H2232 0.950 . S
C2239 C2236 1.387 . S
C1281 C10 0.378 . S
C1286 C175 0.332 . S
C1291 C215 0.400 . S
C1296 C50 0.403 . S
C1301 C90 0.365 . S
C1306 C255 0.494 . S
C1311 C295 0.440 . S
C1316 C135 0.543 . S
C1321 C339 0.383 . S
C1326 C486 0.326 . S
C1331 C379 0.398 . S
C1336 C526 0.405 . S
C1341 C566 0.492 . S
C1346 C419 0.365 . S
C1351 C446 0.543 . S
C1356 C606 0.439 . S
C1361 C815 0.328 . S
C1366 C650 0.383 . S
C1371 C690 0.402 . S
C1376 C855 0.401 . S
C1381 C730 0.365 . S
C1386 C895 0.485 . S
C1391 C775 0.552 . S
C1396 C935 0.451 . S
C1401 C979 0.377 . S
C1406 C1126 0.326 . S
C1411 C1166 0.400 . S
C1416 C1019 0.401 . S
C1421 C1059 0.365 . S
C1426 C1206 0.494 . S
C1431 C1246 0.451 . S
C1436 C1086 0.549 . S
C1441 C849 2.442 . S
C1446 C18 2.370 . S
C1451 C889 1.863 . S
C1456 C58 1.823 . S
C1461 C929 2.625 . S
C1466 C98 2.595 . S
C1471 C129 1.695 . S
C1476 C809 1.707 1_556 S
C1481 C169 1.709 . S
C1486 C769 1.696 . S
C1491 C658 2.370 . S
C1496 C209 2.441 . S
C1501 C249 1.862 1_556 S
C1506 C698 1.822 . S
C1511 C289 2.625 . S
C1516 C738 2.596 . S
C1521 C329 2.371 . S
C1526 C1178 2.442 . S
C1531 C1218 1.864 . S
C1536 C369 1.824 . S
C1541 C1258 2.625 . S
C1546 C409 2.595 . S
C1551 C458 1.692 . S
C1556 C1138 1.707 . S
C1561 C498 1.708 . S
C1566 C1098 1.697 . S
C1571 C538 2.442 . S
C1576 C969 2.371 . S
C1581 C578 1.864 . S
C1586 C1009 1.824 . S
C1591 C618 2.626 . S
C1596 C1049 2.596 . S
C1601 C338 1.628 . S
C1606 C9 1.628 . S
C1611 C49 1.549 . S
C1616 C1018 1.549 . S
C1621 C418 1.453 . S
C1626 C89 1.453 . S
C1631 C138 1.459 . S
C1636 C1089 1.459 . S
C1641 C489 1.479 . S
C1646 C178 1.479 . S
C1651 C1169 1.658 . S
C1656 C218 1.658 . S
C1661 C258 1.636 . S
C1666 C569 1.636 . S
C1671 C298 1.410 . S
C1676 C1249 1.410 . S
C1681 C689 1.550 . S
C1686 C378 1.550 . S
C1691 C778 1.457 . S
C1696 C449 1.457 . S
C1701 C529 1.658 . S
C1706 C858 1.658 . S
C1711 C938 1.412 . S
C1716 C609 1.412 . S
C1721 C978 1.629 . S
C1726 C649 1.629 . S
C1731 C1058 1.459 . S
C1736 C729 1.459 . S
C1741 C1129 1.484 . S
C1746 C818 1.485 . S
C1751 C898 1.640 . S
C1756 C1209 1.640 . S
C1761 C19 2.363 . S
C1766 C490 2.397 . S
C1771 C1170 2.068 . S
C1776 C59 2.032 . S
C1781 C570 2.397 . S
C1786 C99 2.357 . S
C1791 C126 1.351 . S
C1796 C1250 1.424 . S
C1801 C335 0.944 1_455 S
C1806 C166 0.928 . S
C1811 C1015 1.089 . S
C1816 C206 1.074 . S
C1821 C415 0.815 . S
C1826 C246 0.809 . S
C1831 C1090 1.721 . S
C1836 C286 1.647 . S
C1841 C179 2.397 . S
C1846 C330 2.363 . S
C1851 C859 2.068 . S
C1856 C370 2.031 . S
C1861 C259 2.397 . S
C1866 C410 2.357 . S
C1871 C455 1.355 . S
C1876 C939 1.425 . S
C1881 C6 0.947 1_655 S
C1886 C495 0.933 . S
C1891 C686 1.089 . S
C1896 C535 1.074 . S
C1901 C575 0.813 1_556 S
C1906 C86 0.818 . S
C1911 C615 1.648 . S
C1916 C779 1.722 . S
C1921 C1130 2.396 . S
C1926 C659 2.363 . S
C1931 C530 2.067 . S
C1936 C699 2.030 . S
C1941 C739 2.357 1_556 S
C1946 C1210 2.398 . S
C1951 C610 1.424 . S
C1956 C766 1.351 . S
C1961 C806 0.928 . S
C1966 C975 0.944 . S
C1971 C846 1.075 . S
C1976 C375 1.089 . S
C1981 C1055 0.815 . S
C1986 C886 0.809 . S
C1991 C450 1.721 . S
C1996 C926 1.651 . S
C2001 C970 2.362 . S
C2006 C819 2.395 . S
C2011 C1010 2.033 . S
C2016 C219 2.068 . S
C2021 C1050 2.357 . S
C2026 C899 2.398 . S
C2031 C1095 1.352 . S
C2036 C299 1.424 . S
C2041 C646 0.947 . S
C2046 C1135 0.933 . S
C2051 C46 1.091 . S
C2056 C1175 1.078 . S
C2061 C1215 0.813 . S
C2066 C726 0.817 . S
C2071 C139 1.722 . S
C2076 C1255 1.648 . S
C2081 C170 2.330 . S
C2086 C15 2.260 . S
C2091 C210 2.227 . S
C2096 C55 2.195 . S
C2101 C95 2.227 . S
C2106 C250 2.282 . S
C2111 C290 3.152 . S
C2116 C130 3.163 . S
C2121 C499 2.329 . S
C2126 C326 2.261 . S
C2131 C366 2.195 . S
C2136 C539 2.226 . S
C2141 C406 2.228 1_554 S
C2146 C579 2.283 . S
C2151 C619 3.152 . S
C2156 C459 3.163 . S
C2161 C655 2.260 . S
C2166 C810 2.329 . S
C2171 C850 2.227 . S
C2176 C695 2.196 . S
C2181 C735 2.227 . S
C2186 C890 2.282 1_545 S
C2191 C770 3.163 . S
C2196 C930 3.152 1_554 S
C2201 C1139 2.329 . S
C2206 C966 2.261 1_554 S
C2211 C1179 2.226 . S
C2216 C1006 2.195 . S
C2221 C1046 2.228 . S
C2226 C1219 2.282 1_565 S
C2231 C1259 3.151 . S
C2236 C1099 3.162 . S
