# Generated by pormake.
# Topology rac, (4)-cn, num edge types: 1
# Building blocks:
#     Node 0, Type 0, BuildingBlock: TATPOV_clean_sbu_0, # of connection points: 4
#     Node 1, Type 0, BuildingBlock: TATPOV_clean_sbu_0, # of connection points: 4
#     Node 2, Type 0, BuildingBlock: TATPOV_clean_sbu_0, # of connection points: 4
#     Node 3, Type 0, BuildingBlock: TATPOV_clean_sbu_0, # of connection points: 4
#     Node 4, Type 0, BuildingBlock: TATPOV_clean_sbu_0, # of connection points: 4
#     Node 5, Type 0, BuildingBlock: TATPOV_clean_sbu_0, # of connection points: 4
#     Node 6, Type 0, BuildingBlock: TATPOV_clean_sbu_0, # of connection points: 4
#     Node 7, Type 0, BuildingBlock: TATPOV_clean_sbu_0, # of connection points: 4
#     Edge 8, Type (0, 0), BuildingBlock: FUNLAD_clean_linker_1, # of connection points: 2
#     Edge 9, Type (0, 0), BuildingBlock: FUNLAD_clean_linker_1, # of connection points: 2
#     Edge 10, Type (0, 0), BuildingBlock: FUNLAD_clean_linker_1, # of connection points: 2
#     Edge 11, Type (0, 0), BuildingBlock: FUNLAD_clean_linker_1, # of connection points: 2
#     Edge 12, Type (0, 0), BuildingBlock: FUNLAD_clean_linker_1, # of connection points: 2
#     Edge 13, Type (0, 0), BuildingBlock: FUNLAD_clean_linker_1, # of connection points: 2
#     Edge 14, Type (0, 0), BuildingBlock: FUNLAD_clean_linker_1, # of connection points: 2
#     Edge 15, Type (0, 0), BuildingBlock: FUNLAD_clean_linker_1, # of connection points: 2
#     Edge 16, Type (0, 0), BuildingBlock: FUNLAD_clean_linker_1, # of connection points: 2
#     Edge 17, Type (0, 0), BuildingBlock: FUNLAD_clean_linker_1, # of connection points: 2
#     Edge 18, Type (0, 0), BuildingBlock: FUNLAD_clean_linker_1, # of connection points: 2
#     Edge 19, Type (0, 0), BuildingBlock: FUNLAD_clean_linker_1, # of connection points: 2
#     Edge 20, Type (0, 0), BuildingBlock: FUNLAD_clean_linker_1, # of connection points: 2
#     Edge 21, Type (0, 0), BuildingBlock: FUNLAD_clean_linker_1, # of connection points: 2
#     Edge 22, Type (0, 0), BuildingBlock: FUNLAD_clean_linker_1, # of connection points: 2
#     Edge 23, Type (0, 0), BuildingBlock: FUNLAD_clean_linker_1, # of connection points: 2
# Relax obj value: 0.269
# Max RMSD: 0.123
# Mean RMSD: 0.123
data_MOF--net-rac--node1-TATPOV_clean_sbu_0--edge1-FUNLAD_clean_linker_1
_symmetry_space_group_name_H-M    P1
_symmetry_Int_Tables_number       1
_symmetry_cell_setting            triclinic
loop_
_symmetry_equiv_pos_as_xyz
'x, y, z'
_cell_length_a     37.370909
_cell_length_b     21.621789
_cell_length_c     46.023133
_cell_angle_alpha  90.044182
_cell_angle_beta   90.027549
_cell_angle_gamma 90.076088
loop_
_atom_site_label
_atom_site_type_symbol
_atom_site_fract_x
_atom_site_fract_y
_atom_site_fract_z
_atom_type_partial_charge
Zn0 Zn 0.36631 0.26158 0.04861 0.0
Zn1 Zn 0.39726 0.26081 0.09859 0.0
O2 O 0.43495 0.30278 0.07197 0.0
O3 O 0.40596 0.31062 0.03049 0.0
O4 O 0.42007 0.25269 0.13809 0.0
O5 O 0.36086 0.17049 0.04463 0.0
O6 O 0.37473 0.17404 0.091 0.0
C7 C 0.43309 0.32282 0.04595 0.0
C8 C 0.32973 0.33242 0.09229 0.0
O9 O 0.35809 0.32298 0.10677 0.0
O10 O 0.32548 0.3079 0.06753 0.0
C11 C 0.45311 0.24674 0.14402 0.0
O12 O 0.4767 0.24426 0.12294 0.0
C13 C 0.36211 0.14462 0.06924 0.0
Zn14 Zn 0.12675 0.75787 0.02996 0.0
Zn15 Zn 0.0946 0.77467 0.07943 0.0
O16 O 0.05552 0.73487 0.05323 0.0
O17 O 0.08368 0.71894 0.01189 0.0
O18 O 0.07072 0.79691 0.11733 0.0
O19 O 0.14063 0.84601 0.02355 0.0
O20 O 0.12415 0.85343 0.06929 0.0
C21 C 0.05608 0.71265 0.02753 0.0
C22 C 0.15427 0.68403 0.07766 0.0
O23 O 0.12807 0.70653 0.09156 0.0
O24 O 0.1607 0.70103 0.05181 0.0
C25 C 0.05974 0.75432 0.13412 0.0
O26 O 0.06112 0.69652 0.12533 0.0
C27 C 0.13977 0.8761 0.04705 0.0
Zn28 Zn 0.37712 0.25861 0.48032 0.0
Zn29 Zn 0.39229 0.25488 0.42344 0.0
O30 O 0.43626 0.21439 0.44276 0.0
O31 O 0.42309 0.2149 0.48943 0.0
O32 O 0.40252 0.25694 0.38038 0.0
O33 O 0.37084 0.35097 0.48026 0.0
O34 O 0.374 0.34246 0.43267 0.0
C35 C 0.44355 0.19901 0.46883 0.0
C36 C 0.32966 0.18184 0.4461 0.0
O37 O 0.35083 0.19559 0.42548 0.0
O38 O 0.33401 0.20449 0.47124 0.0
C39 C 0.43288 0.25356 0.3681 0.0
O40 O 0.46209 0.24946 0.38388 0.0
C41 C 0.36693 0.37428 0.45528 0.0
Zn42 Zn 0.12214 0.74446 0.46835 0.0
Zn43 Zn 0.09567 0.7343 0.41592 0.0
O44 O 0.05537 0.77286 0.44113 0.0
O45 O 0.07639 0.77399 0.48583 0.0
O46 O 0.07358 0.7175 0.37664 0.0
O47 O 0.14027 0.65789 0.47051 0.0
O48 O 0.12199 0.65227 0.42516 0.0
C49 C 0.05185 0.78696 0.4679 0.0
C50 C 0.15457 0.82538 0.42521 0.0
O51 O 0.13262 0.80064 0.40762 0.0
O52 O 0.15524 0.80922 0.45168 0.0
C53 C 0.06738 0.76095 0.35878 0.0
O54 O 0.07334 0.8185 0.36661 0.0
C55 C 0.13861 0.62885 0.44668 0.0
Zn56 Zn 0.61796 0.76813 0.97495 0.0
Zn57 Zn 0.60275 0.7526 0.91779 0.0
O58 O 0.55643 0.72592 0.93832 0.0
O59 O 0.56793 0.74013 0.98484 0.0
O60 O 0.59348 0.74362 0.8748 0.0
O61 O 0.63429 0.85561 0.96784 0.0
O62 O 0.62489 0.83946 0.92121 0.0
C63 C 0.54733 0.72095 0.96488 0.0
C64 C 0.65879 0.67255 0.94693 0.0
O65 O 0.64036 0.68734 0.92477 0.0
O66 O 0.65502 0.70076 0.97083 0.0
C67 C 0.56348 0.74717 0.86195 0.0
O68 O 0.53426 0.75799 0.87697 0.0
C69 C 0.63677 0.87334 0.9417 0.0
Zn70 Zn 0.87883 0.24222 0.96661 0.0
Zn71 Zn 0.89695 0.23778 0.91171 0.0
O72 O 0.93906 0.28286 0.93228 0.0
O73 O 0.92363 0.28594 0.97843 0.0
O74 O 0.91236 0.22623 0.87014 0.0
O75 O 0.87068 0.15104 0.97086 0.0
O76 O 0.87581 0.15285 0.92327 0.0
C77 C 0.94499 0.30074 0.95827 0.0
C78 C 0.83413 0.31467 0.92742 0.0
O79 O 0.85607 0.2976 0.90798 0.0
O80 O 0.83737 0.29602 0.95342 0.0
C81 C 0.93985 0.19643 0.86192 0.0
O82 O 0.96103 0.17127 0.88135 0.0
C83 C 0.86706 0.12462 0.94654 0.0
Zn84 Zn 0.62796 0.75187 0.53941 0.0
Zn85 Zn 0.60053 0.74381 0.59183 0.0
O86 O 0.56045 0.7798 0.56555 0.0
O87 O 0.5824 0.78 0.52116 0.0
O88 O 0.57868 0.73358 0.63165 0.0
O89 O 0.64559 0.66495 0.53904 0.0
O90 O 0.62674 0.66077 0.58429 0.0
C91 C 0.55733 0.79274 0.53863 0.0
C92 C 0.65956 0.83497 0.58175 0.0
O93 O 0.63724 0.81088 0.59919 0.0
O94 O 0.66093 0.81762 0.55546 0.0
C95 C 0.54552 0.73178 0.63778 0.0
O96 O 0.52167 0.73472 0.61689 0.0
C97 C 0.64361 0.63667 0.56304 0.0
Zn98 Zn 0.87963 0.26471 0.52503 0.0
Zn99 Zn 0.89764 0.26229 0.58088 0.0
O100 O 0.93972 0.21905 0.56015 0.0
O101 O 0.9241 0.21845 0.51399 0.0
O102 O 0.91228 0.26838 0.62293 0.0
O103 O 0.87414 0.35722 0.52389 0.0
O104 O 0.87898 0.3494 0.57136 0.0
C105 C 0.94535 0.20226 0.534 0.0
C106 C 0.83315 0.19098 0.56194 0.0
O107 O 0.8556 0.20411 0.58178 0.0
O108 O 0.83654 0.21283 0.53656 0.0
C109 C 0.92173 0.22074 0.63711 0.0
O110 O 0.92331 0.16695 0.62387 0.0
C111 C 0.87113 0.38095 0.54887 0.0
H112 H 0.3388 0.07068 0.09642 0.0
C113 C 0.34038 0.08851 0.07438 0.0
H114 H 0.31628 0.09037 0.03295 0.0
H115 H 0.22661 0.85033 0.08268 0.0
H116 H 0.28301 0.79518 0.0833 0.0
H117 H 0.33996 0.84995 0.0746 0.0
H118 H 0.34078 0.96046 0.06524 0.0
C119 C 0.31617 0.06996 0.05453 0.0
C120 C 0.2828 0.0372 0.06309 0.0
C121 C 0.28286 0.97297 0.06894 0.0
C122 C 0.24995 0.94148 0.07389 0.0
C123 C 0.25073 0.87686 0.07897 0.0
C124 C 0.28295 0.84453 0.07933 0.0
C125 C 0.31502 0.87537 0.07443 0.0
C126 C 0.31513 0.9388 0.06916 0.0
H127 H 0.17143 0.95359 0.02986 0.0
C128 C 0.16358 0.93008 0.04975 0.0
H129 H 0.17722 0.91234 0.09343 0.0
H130 H 0.27364 0.16213 0.05584 0.0
H131 H 0.21742 0.21788 0.05665 0.0
H132 H 0.16043 0.16305 0.06518 0.0
H133 H 0.15943 0.05195 0.073 0.0
C134 C 0.1827 0.93963 0.0741 0.0
C135 C 0.21708 0.97438 0.07274 0.0
C136 C 0.21723 0.03917 0.06839 0.0
C137 C 0.2501 0.07064 0.06353 0.0
C138 C 0.24945 0.13559 0.0593 0.0
C139 C 0.21736 0.16827 0.05984 0.0
C140 C 0.18528 0.1374 0.06464 0.0
C141 C 0.18505 0.07363 0.06894 0.0
H142 H 0.16195 0.55343 0.42045 0.0
C143 C 0.16269 0.57586 0.44159 0.0
H144 H 0.19249 0.59031 0.47995 0.0
H145 H 0.27938 0.34557 0.43021 0.0
H146 H 0.2245 0.28784 0.43718 0.0
H147 H 0.1684 0.34102 0.45023 0.0
H148 H 0.1669 0.45248 0.45629 0.0
C149 C 0.19036 0.56499 0.4596 0.0
C150 C 0.22312 0.53242 0.44956 0.0
C151 C 0.22342 0.4674 0.44589 0.0
C152 C 0.25587 0.43683 0.4385 0.0
C153 C 0.25556 0.37153 0.43556 0.0
C154 C 0.22421 0.33766 0.43959 0.0
C155 C 0.19262 0.3676 0.44693 0.0
C156 C 0.19211 0.43165 0.45022 0.0
H157 H 0.34124 0.45789 0.47257 0.0
C158 C 0.3452 0.43084 0.4529 0.0
H159 H 0.32429 0.4081 0.41167 0.0
H160 H 0.23104 0.65852 0.45217 0.0
H161 H 0.28569 0.71653 0.44409 0.0
H162 H 0.34195 0.66318 0.4316 0.0
H163 H 0.34379 0.55126 0.42702 0.0
C164 C 0.32231 0.43804 0.43059 0.0
C165 C 0.28798 0.47142 0.43511 0.0
C166 C 0.28735 0.53661 0.4377 0.0
C167 C 0.2549 0.5672 0.44493 0.0
C168 C 0.255 0.63262 0.44711 0.0
C169 C 0.28617 0.66659 0.4424 0.0
C170 C 0.31784 0.63655 0.43536 0.0
C171 C 0.31857 0.57233 0.43295 0.0
H172 H 0.66196 0.94029 0.91176 0.0
C173 C 0.66092 0.92507 0.93425 0.0
H174 H 0.68787 0.9231 0.97452 0.0
H175 H 0.84191 0.94644 0.92375 0.0
H176 H 0.83879 0.83589 0.93281 0.0
H177 H 0.78157 0.78625 0.946 0.0
H178 H 0.7272 0.84668 0.95024 0.0
C179 C 0.68715 0.94202 0.95265 0.0
C180 C 0.7206 0.97178 0.94207 0.0
C181 C 0.75222 0.93571 0.93983 0.0
C182 C 0.78526 0.96423 0.93235 0.0
C183 C 0.81628 0.9271 0.92986 0.0
C184 C 0.81482 0.8636 0.93485 0.0
C185 C 0.7826 0.83566 0.94227 0.0
C186 C 0.7516 0.871 0.94473 0.0
H187 H 0.83897 0.04502 0.96554 0.0
C188 C 0.84401 0.06934 0.94527 0.0
H189 H 0.8247 0.08802 0.90313 0.0
H190 H 0.66473 0.05321 0.94329 0.0
H191 H 0.66753 0.16328 0.93307 0.0
H192 H 0.72475 0.21302 0.9201 0.0
H193 H 0.77946 0.15348 0.9174 0.0
C194 C 0.82159 0.06059 0.92275 0.0
C195 C 0.78668 0.02875 0.92732 0.0
C196 C 0.75473 0.06438 0.9283 0.0
C197 C 0.72166 0.03579 0.93575 0.0
C198 C 0.69043 0.0726 0.93746 0.0
C199 C 0.69169 0.13582 0.93173 0.0
C200 C 0.72391 0.16385 0.92444 0.0
C201 C 0.75515 0.12893 0.92286 0.0
H202 H 0.66761 0.56296 0.59 0.0
C203 C 0.66764 0.58372 0.56849 0.0
H204 H 0.69579 0.59434 0.52907 0.0
H205 H 0.84945 0.55853 0.57713 0.0
H206 H 0.84722 0.67033 0.57205 0.0
H207 H 0.79021 0.72322 0.56151 0.0
H208 H 0.73518 0.66485 0.55591 0.0
C209 C 0.69445 0.57087 0.54992 0.0
C210 C 0.72758 0.53885 0.55951 0.0
C211 C 0.75956 0.57381 0.56273 0.0
C212 C 0.79244 0.5435 0.56881 0.0
C213 C 0.82388 0.5794 0.57211 0.0
C214 C 0.82294 0.64355 0.56939 0.0
C215 C 0.79084 0.67332 0.56345 0.0
C216 C 0.75945 0.63916 0.56016 0.0
H217 H 0.8441 0.46376 0.53206 0.0
C218 C 0.84933 0.43736 0.55171 0.0
H219 H 0.83116 0.41596 0.59392 0.0
H220 H 0.67099 0.4588 0.55585 0.0
H221 H 0.67292 0.34752 0.56254 0.0
H222 H 0.72983 0.29475 0.57349 0.0
H223 H 0.78508 0.35271 0.57777 0.0
C224 C 0.82789 0.44519 0.5749 0.0
C225 C 0.79328 0.47838 0.57168 0.0
C226 C 0.76101 0.44368 0.56988 0.0
C227 C 0.72812 0.47399 0.56366 0.0
C228 C 0.69657 0.43814 0.56093 0.0
C229 C 0.69733 0.3742 0.56462 0.0
C230 C 0.72937 0.34449 0.57078 0.0
C231 C 0.76092 0.37848 0.57326 0.0
H232 H 0.4934 0.23886 0.17918 0.0
C233 C 0.46502 0.24393 0.17461 0.0
H234 H 0.41307 0.25169 0.19231 0.0
H235 H 0.44499 0.13325 0.31358 0.0
H236 H 0.41856 0.04481 0.28908 0.0
H237 H 0.40756 0.04676 0.23622 0.0
H238 H 0.42313 0.13702 0.20752 0.0
C239 C 0.44159 0.24833 0.19667 0.0
C240 C 0.45267 0.24466 0.22766 0.0
C241 C 0.44333 0.19168 0.24411 0.0
C242 C 0.44925 0.19084 0.27462 0.0
C243 C 0.44024 0.13688 0.29045 0.0
C244 C 0.42528 0.08566 0.27663 0.0
C245 C 0.41912 0.08674 0.24687 0.0
C246 C 0.42805 0.13893 0.23067 0.0
H247 H 0.40899 0.25313 0.32443 0.0
C248 C 0.43428 0.25157 0.33611 0.0
H249 H 0.49063 0.2466 0.33201 0.0
H250 H 0.47502 0.35288 0.20243 0.0
H251 H 0.50311 0.43973 0.2268 0.0
H252 H 0.51405 0.43751 0.27966 0.0
H253 H 0.49673 0.34838 0.30851 0.0
C254 C 0.4649 0.24657 0.32101 0.0
C255 C 0.46394 0.24344 0.28869 0.0
C256 C 0.47533 0.29487 0.27202 0.0
C257 C 0.46941 0.29578 0.24146 0.0
C258 C 0.47944 0.34911 0.22557 0.0
C259 C 0.49549 0.39945 0.23932 0.0
C260 C 0.50162 0.39823 0.26909 0.0
C261 C 0.49156 0.3468 0.28538 0.0
H262 H 0.05482 0.697 0.32279 0.0
C263 C 0.05822 0.74549 0.32844 0.0
H264 H 0.06062 0.83715 0.31255 0.0
H265 H 0.10665 0.67619 0.19606 0.0
H266 H 0.15998 0.65001 0.22328 0.0
H267 H 0.16629 0.68054 0.27467 0.0
H268 H 0.11924 0.73681 0.29917 0.0
C269 C 0.05768 0.78839 0.30733 0.0
C270 C 0.05429 0.77081 0.27614 0.0
C271 C 0.08246 0.73862 0.26202 0.0
C272 C 0.07918 0.72224 0.2322 0.0
C273 C 0.10764 0.68987 0.21866 0.0
C274 C 0.13851 0.67466 0.234 0.0
C275 C 0.14204 0.69175 0.26294 0.0
C276 C 0.11458 0.72364 0.27683 0.0
H277 H 0.05344 0.81738 0.17149 0.0
C278 C 0.05154 0.76932 0.16468 0.0
H279 H 0.04609 0.67665 0.17841 0.0
H280 H 0.99583 0.83328 0.29646 0.0
H281 H 0.94291 0.86131 0.26884 0.0
H282 H 0.93742 0.83328 0.21705 0.0
H283 H 0.98486 0.77715 0.19251 0.0
C284 C 0.04633 0.72508 0.18474 0.0
C285 C 0.0483 0.73974 0.2163 0.0
C286 C 0.02029 0.77228 0.23032 0.0
C287 C 0.02335 0.78802 0.26025 0.0
C288 C 0.99493 0.82036 0.27375 0.0
C289 C 0.96439 0.83661 0.25817 0.0
C290 C 0.96131 0.82086 0.229 0.0
C291 C 0.98879 0.78891 0.21514 0.0
H292 H 0.58766 0.73084 0.81908 0.0
C293 C 0.56241 0.73922 0.83016 0.0
H294 H 0.50673 0.75253 0.8249 0.0
H295 H 0.53312 0.84225 0.69442 0.0
H296 H 0.51197 0.93644 0.71718 0.0
H297 H 0.50003 0.9403 0.76986 0.0
H298 H 0.50936 0.84993 0.80013 0.0
C299 C 0.53213 0.74229 0.81449 0.0
C300 C 0.53348 0.73669 0.78223 0.0
C301 C 0.52676 0.7893 0.76471 0.0
C302 C 0.53327 0.78684 0.73426 0.0
C303 C 0.52799 0.84102 0.71753 0.0
C304 C 0.51598 0.89556 0.73034 0.0
C305 C 0.50929 0.89775 0.76 0.0
C306 C 0.51473 0.8455 0.77712 0.0
H307 H 0.5052 0.73056 0.67301 0.0
C308 C 0.53371 0.73009 0.66839 0.0
H309 H 0.58588 0.72853 0.68612 0.0
H310 H 0.54248 0.62453 0.80875 0.0
H311 H 0.56205 0.52922 0.78583 0.0
H312 H 0.57443 0.52539 0.7332 0.0
H313 H 0.56707 0.61673 0.70313 0.0
C314 C 0.55732 0.73044 0.69044 0.0
C315 C 0.54593 0.73137 0.72139 0.0
C316 C 0.5506 0.67779 0.73867 0.0
C317 C 0.54402 0.68024 0.76907 0.0
C318 C 0.54809 0.62562 0.78569 0.0
C319 C 0.55905 0.57052 0.77277 0.0
C320 C 0.56598 0.56835 0.74314 0.0
C321 C 0.56177 0.62115 0.72616 0.0
H322 H 0.92282 0.27032 0.67897 0.0
C323 C 0.92753 0.22573 0.66873 0.0
H324 H 0.93986 0.13156 0.67542 0.0
H325 H 0.98037 0.27989 0.79976 0.0
H326 H 0.02729 0.33053 0.7722 0.0
H327 H 0.03391 0.31165 0.7196 0.0
H328 H 0.99325 0.24269 0.69416 0.0
C329 C 0.9362 0.1768 0.68527 0.0
C330 C 0.93601 0.18133 0.71758 0.0
C331 C 0.96089 0.21984 0.73232 0.0
C332 C 0.95789 0.22894 0.76286 0.0
C333 C 0.98198 0.27 0.77676 0.0
C334 C 0.00899 0.29954 0.76118 0.0
C335 C 0.01265 0.28904 0.73155 0.0
C336 C 0.98899 0.24967 0.71718 0.0
H337 H 0.9708 0.16177 0.82429 0.0
C338 C 0.94732 0.1881 0.83065 0.0
H339 H 0.90106 0.23511 0.8163 0.0
H340 H 0.88539 0.10104 0.6964 0.0
H341 H 0.84056 0.04626 0.72439 0.0
H342 H 0.83667 0.05949 0.77754 0.0
H343 H 0.87753 0.12793 0.80299 0.0
C344 C 0.92531 0.2107 0.81015 0.0
C345 C 0.93073 0.19791 0.7787 0.0
C346 C 0.90704 0.15699 0.76418 0.0
C347 C 0.90964 0.14871 0.7336 0.0
C348 C 0.88501 0.1086 0.71963 0.0
C349 C 0.85905 0.07688 0.73543 0.0
C350 C 0.85683 0.08438 0.76535 0.0
C351 C 0.88042 0.12394 0.77967 0.0
H352 H 0.48073 0.38293 0.05035 0.0
C353 C 0.45895 0.37 0.0359 0.0
H354 H 0.42913 0.39404 0.9986 0.0
H355 H 0.45443 0.67951 0.00801 0.0
H356 H 0.39177 0.67069 0.02137 0.0
H357 H 0.36397 0.5684 0.02887 0.0
H358 H 0.39847 0.47443 0.02306 0.0
C359 C 0.45202 0.40483 0.01229 0.0
C360 C 0.46934 0.46614 0.00779 0.0
C361 C 0.44859 0.52076 0.01112 0.0
C362 C 0.46457 0.57985 0.00696 0.0
C363 C 0.44348 0.63355 0.01081 0.0
C364 C 0.40753 0.62915 0.01852 0.0
C365 C 0.39187 0.57155 0.02272 0.0
C366 C 0.41201 0.51789 0.01919 0.0
H367 H 0.49965 0.66414 0.95505 0.0
C368 C 0.51776 0.67845 0.97229 0.0
H369 H 0.53901 0.6563 0.0135 0.0
H370 H 0.51572 0.37093 0.99712 0.0
H371 H 0.57828 0.38009 0.98356 0.0
H372 H 0.60634 0.48259 0.97741 0.0
H373 H 0.57202 0.57645 0.98444 0.0
C374 C 0.51901 0.64553 0.99709 0.0
C375 C 0.50121 0.58424 0.99959 0.0
C376 C 0.52186 0.52969 0.99584 0.0
C377 C 0.50583 0.47056 0.99975 0.0
C378 C 0.52677 0.41696 0.99501 0.0
C379 C 0.56266 0.42156 0.98709 0.0
C380 C 0.57845 0.47926 0.98359 0.0
C381 C 0.55843 0.53281 0.98781 0.0
H382 H 0.00765 0.65575 0.03429 0.0
C383 C 0.02837 0.66751 0.01865 0.0
H384 H 0.05483 0.64154 0.98004 0.0
H385 H 0.03571 0.35663 0.99505 0.0
H386 H 0.09922 0.36989 0.00416 0.0
H387 H 0.12556 0.47411 0.00848 0.0
H388 H 0.08882 0.56559 0.00357 0.0
C389 C 0.03316 0.63145 0.99506 0.0
C390 C 0.01653 0.56899 0.99276 0.0
C391 C 0.03862 0.51576 0.99539 0.0
C392 C 0.02346 0.45555 0.99305 0.0
C393 C 0.04595 0.40336 0.99634 0.0
C394 C 0.08242 0.4103 1.00168 0.0
C395 C 0.09727 0.46898 0.00408 0.0
C396 C 0.0758 0.5212 1.00107 0.0
H397 H 0.98978 0.36243 0.94596 0.0
C398 C 0.97196 0.34953 0.96361 0.0
H399 H 0.9501 0.37578 0.00409 0.0
H400 H 0.96717 0.66083 0.98492 0.0
H401 H 0.90344 0.64735 0.9768 0.0
H402 H 0.87689 0.54299 0.97399 0.0
H403 H 0.91386 0.45161 0.97865 0.0
C404 C 0.96956 0.38615 0.98723 0.0
C405 C 0.98628 0.44862 0.98822 0.0
C406 C 0.96418 0.50176 0.98564 0.0
C407 C 0.97936 0.56201 0.98769 0.0
C408 C 0.95686 0.61409 0.98416 0.0
C409 C 0.92028 0.60701 0.97934 0.0
C410 C 0.90533 0.54827 0.97769 0.0
C411 C 0.92689 0.49613 0.98059 0.0
H412 H 0.50877 0.84905 0.54527 0.0
C413 C 0.52897 0.83604 0.52942 0.0
H414 H 0.55477 0.86035 0.49023 0.0
H415 H 0.41539 0.04843 0.48155 0.0
H416 H 0.38023 0.9565 0.47148 0.0
H417 H 0.40705 0.85261 0.47538 0.0
H418 H 0.46928 0.84008 0.48957 0.0
C419 C 0.53316 0.8705 0.50529 0.0
C420 C 0.51647 0.9326 0.50278 0.0
C421 C 0.48017 0.93898 0.49459 0.0
C422 C 0.46481 -0.00109 0.49225 0.0
C423 C 0.42844 0.00405 0.48385 0.0
C424 C 0.40796 0.95164 0.47791 0.0
C425 C 0.42306 0.89315 0.48013 0.0
C426 C 0.45875 0.8866 0.48834 0.0
H427 H 0.48903 0.1392 0.45636 0.0
C428 C 0.47105 0.15132 0.47403 0.0
H429 H 0.44893 0.12326 0.51416 0.0
H430 H 0.58714 0.93666 0.51903 0.0
H431 H 0.62229 0.02862 0.52884 0.0
H432 H 0.5955 0.13245 0.52474 0.0
H433 H 0.53327 0.14489 0.51063 0.0
C434 C 0.46872 0.11413 0.4974 0.0
C435 C 0.48589 0.05226 0.498 0.0
C436 C 0.5223 0.04592 0.50586 0.0
C437 C 0.53766 0.98601 0.50823 0.0
C438 C 0.57405 0.98096 0.51663 0.0
C439 C 0.59456 0.03341 0.52243 0.0
C440 C 0.57947 0.09188 0.52011 0.0
C441 C 0.54376 0.09836 0.51197 0.0
H442 H 0.99064 0.14112 0.54539 0.0
C443 C 0.97167 0.15283 0.52835 0.0
H444 H 0.94626 0.12281 0.48983 0.0
H445 H 0.08301 0.93046 0.48586 0.0
H446 H 0.11945 0.02039 0.47524 0.0
H447 H 0.094 0.12545 0.47781 0.0
H448 H 0.0319 0.14118 0.49144 0.0
C449 C 0.96711 0.11398 0.50577 0.0
C450 C 0.98334 0.05129 0.50542 0.0
C451 C 0.01961 0.04302 0.49755 0.0
C452 C 0.03415 0.98237 0.49587 0.0
C453 C 0.0705 0.97539 0.48767 0.0
C454 C 0.09174 0.02666 0.48138 0.0
C455 C 0.07741 0.08581 0.48287 0.0
C456 C 0.04177 0.09419 0.49078 0.0
H457 H 0.00415 0.84482 0.46011 0.0
C458 C 0.02389 0.83178 0.47634 0.0
H459 H 0.04934 0.857 0.51559 0.0
H460 H 0.91303 0.05119 0.52247 0.0
H461 H 0.87675 0.96127 0.53376 0.0
H462 H 0.90204 0.85613 0.53066 0.0
H463 H 0.96389 0.8403 0.51613 0.0
C464 C 0.02814 0.86726 0.50017 0.0
C465 C 0.01225 0.93014 0.50188 0.0
C466 C 0.97609 0.93844 0.51006 0.0
C467 C 0.96159 -0.00089 0.51184 0.0
C468 C 0.92542 0.00618 0.52048 0.0
C469 C 0.9043 0.95495 0.52713 0.0
C470 C 0.91854 0.89574 0.52538 0.0
C471 C 0.95402 0.88729 0.51696 0.0
H472 H 0.16177 0.60623 0.10777 0.0
C473 C 0.17425 0.63242 0.09033 0.0
H474 H 0.21702 0.63869 0.06076 0.0
H475 H 0.26232 0.40682 0.15 0.0
H476 H 0.26036 0.48092 0.18978 0.0
H477 H 0.24096 0.58848 0.18127 0.0
H478 H 0.22255 0.62207 0.13326 0.0
C479 C 0.20496 0.61296 0.07854 0.0
C480 C 0.21839 0.54979 0.08423 0.0
C481 C 0.23057 0.53226 0.1122 0.0
C482 C 0.24373 0.4715 0.11678 0.0
C483 C 0.25371 0.45349 0.1452 0.0
C484 C 0.25246 0.49536 0.1682 0.0
C485 C 0.2414 0.55583 0.16343 0.0
C486 C 0.23065 0.5744 0.13578 0.0
H487 H 0.31475 0.42142 0.11126 0.0
C488 C 0.30409 0.37883 0.10213 0.0
H489 H 0.25926 0.33037 0.08675 0.0
H490 H 0.19163 0.56582 0.02909 0.0
H491 H 0.19426 0.49229 0.98954 0.0
H492 H 0.22153 0.38959 0.99646 0.0
H493 H 0.24582 0.35967 0.0429 0.0
C494 C 0.26931 0.37377 0.09546 0.0
C495 C 0.24702 0.43022 0.09298 0.0
C496 C 0.23315 0.44671 0.06534 0.0
C497 C 0.21841 0.50644 0.06109 0.0
C498 C 0.20408 0.52165 0.03344 0.0
C499 C 0.20526 0.47976 0.01049 0.0
C500 C 0.22053 0.42195 0.0144 0.0
C501 C 0.23441 0.40539 0.04137 0.0
H502 H 0.28356 0.12579 0.45965 0.0
C503 C 0.30103 0.13661 0.44145 0.0
H504 H 0.31581 0.11334 0.39837 0.0
H505 H 0.25941 0.84078 0.42553 0.0
H506 H 0.32342 0.82357 0.42131 0.0
H507 H 0.36486 0.91112 0.41383 0.0
H508 H 0.34252 0.01624 0.41037 0.0
C509 C 0.29766 0.10531 0.41642 0.0
C510 C 0.27246 0.05272 0.41485 0.0
C511 C 0.28605 0.99165 0.41596 0.0
C512 C 0.2623 0.94142 0.42053 0.0
C513 C 0.27642 0.88075 0.42231 0.0
C514 C 0.31307 0.87021 0.41986 0.0
C515 C 0.33639 0.91949 0.41561 0.0
C516 C 0.32321 0.97961 0.41369 0.0
H517 H 0.17698 0.88941 0.39249 0.0
C518 C 0.17866 0.87437 0.41498 0.0
H519 H 0.20424 0.88627 0.45562 0.0
H520 H 0.23793 0.16341 0.40881 0.0
H521 H 0.17396 0.18109 0.41355 0.0
H522 H 0.13271 0.09426 0.42328 0.0
H523 H 0.15505 0.98952 0.42802 0.0
C524 C 0.20165 0.90177 0.43326 0.0
C525 C 0.22522 0.95268 0.42383 0.0
C526 C 0.21139 0.01337 0.42095 0.0
C527 C 0.23513 0.0635 0.41609 0.0
C528 C 0.22096 0.12389 0.41318 0.0
C529 C 0.18434 0.13459 0.41571 0.0
C530 C 0.16112 0.08571 0.42113 0.0
C531 C 0.17432 0.02571 0.42376 0.0
H532 H 0.70153 0.61322 0.96398 0.0
C533 C 0.68442 0.62164 0.94527 0.0
H534 H 0.6687 0.5901 0.90353 0.0
H535 H 0.82991 0.47277 0.93424 0.0
H536 H 0.85156 0.57614 0.92395 0.0
H537 H 0.80953 0.66028 0.91203 0.0
H538 H 0.7455 0.64132 0.91045 0.0
C539 C 0.68653 0.58452 0.922 0.0
C540 C 0.71164 0.5319 0.92241 0.0
C541 C 0.74896 0.54318 0.92185 0.0
C542 C 0.77312 0.4943 0.92772 0.0
C543 C 0.81026 0.5076 0.92887 0.0
C544 C 0.82309 0.56693 0.92322 0.0
C545 C 0.79944 0.61433 0.91656 0.0
C546 C 0.76277 0.60289 0.91588 0.0
H547 H 0.80495 0.37634 0.89764 0.0
C548 C 0.80627 0.35946 0.91987 0.0
H549 H 0.78502 0.36643 0.96237 0.0
H550 H 0.64152 0.49473 0.92257 0.0
H551 H 0.61966 0.39035 0.93083 0.0
H552 H 0.66174 0.3045 0.93977 0.0
H553 H 0.72589 0.32273 0.94078 0.0
C554 C 0.78459 0.38325 0.94013 0.0
C555 C 0.7597 0.43391 0.93295 0.0
C556 C 0.72245 0.42209 0.93207 0.0
C557 C 0.69829 0.4713 0.9267 0.0
C558 C 0.66108 0.4588 0.92646 0.0
C559 C 0.64818 0.39912 0.93113 0.0
C560 C 0.67187 0.35081 0.93618 0.0
C561 C 0.7086 0.36188 0.9367 0.0
H562 H 0.68087 0.90031 0.61439 0.0
C563 C 0.68325 0.8845 0.59204 0.0
H564 H 0.71014 0.89511 0.55192 0.0
H565 H 0.7413 0.17304 0.60051 0.0
H566 H 0.67749 0.19027 0.59405 0.0
H567 H 0.63698 0.10336 0.58246 0.0
H568 H 0.65987 -0.00102 0.57767 0.0
C569 C 0.70677 0.91138 0.5741 0.0
C570 C 0.72994 0.96262 0.58386 0.0
C571 C 0.71578 0.02312 0.58666 0.0
C572 C 0.73913 0.07337 0.59244 0.0
C573 C 0.72464 0.13352 0.59538 0.0
C574 C 0.68811 0.14394 0.59188 0.0
C575 C 0.66531 0.095 0.58543 0.0
C576 C 0.67881 0.0352 0.58282 0.0
H577 H 0.78617 0.13604 0.54969 0.0
C578 C 0.80425 0.14687 0.56753 0.0
H579 H 0.82022 0.12387 0.61033 0.0
H580 H 0.76463 0.85115 0.58242 0.0
H581 H 0.82855 0.83462 0.58794 0.0
H582 H 0.86937 0.9225 0.59676 0.0
H583 H 0.8465 0.02724 0.60033 0.0
C584 C 0.80148 0.11588 0.59266 0.0
C585 C 0.77646 0.06303 0.59441 0.0
C586 C 0.79032 0.00213 0.59336 0.0
C587 C 0.76693 0.95171 0.588 0.0
C588 C 0.78136 0.89125 0.58624 0.0
C589 C 0.81796 0.88111 0.58942 0.0
C590 C 0.84093 0.93056 0.59442 0.0
C591 C 0.82744 0.99048 0.59637 0.0
loop_
_geom_bond_atom_site_label_1
_geom_bond_atom_site_label_2
_geom_bond_distance
_geom_bond_site_symmetry_2
_ccdc_geom_bond_type
Zn0 O3 2.031 . S
Zn0 O5 2.049 . S
Zn0 O10 2.067 . S
Zn1 O2 1.962 . S
Zn1 O4 1.986 . S
Zn1 O6 1.996 . S
Zn1 O9 1.943 . S
O2 Zn1 1.962 . S
O2 C7 1.254 . S
O3 Zn0 2.031 . S
O3 C7 1.269 . S
O4 Zn1 1.986 . S
O4 C11 1.262 . S
O5 Zn0 2.049 . S
O5 C13 1.260 . S
O6 Zn1 1.996 . S
O6 C13 1.257 . S
C7 O2 1.254 . S
C7 O3 1.269 . S
C8 O9 1.249 . S
C8 O10 1.270 . S
O9 Zn1 1.943 . S
O9 C8 1.249 . S
O10 Zn0 2.067 . S
O10 C8 1.270 . S
C11 O4 1.262 . S
C11 O12 1.232 . S
O12 C11 1.232 . S
C13 O5 1.260 . S
C13 O6 1.257 . S
Zn14 O17 2.031 . S
Zn14 O19 2.049 . S
Zn14 O24 2.067 . S
Zn15 O16 1.962 . S
Zn15 O18 1.986 . S
Zn15 O20 1.996 . S
Zn15 O23 1.943 . S
O16 Zn15 1.962 . S
O16 C21 1.254 . S
O17 Zn14 2.031 . S
O17 C21 1.269 . S
O18 Zn15 1.986 . S
O18 C25 1.262 . S
O19 Zn14 2.049 . S
O19 C27 1.260 . S
O20 Zn15 1.996 . S
O20 C27 1.257 . S
C21 O16 1.254 . S
C21 O17 1.269 . S
C22 O23 1.249 . S
C22 O24 1.270 . S
O23 Zn15 1.943 . S
O23 C22 1.249 . S
O24 Zn14 2.067 . S
O24 C22 1.270 . S
C25 O18 1.262 . S
C25 O26 1.232 . S
O26 C25 1.232 . S
C27 O19 1.260 . S
C27 O20 1.257 . S
Zn28 O31 2.031 . S
Zn28 O33 2.049 . S
Zn28 O38 2.067 . S
Zn29 O30 1.962 . S
Zn29 O32 1.986 . S
Zn29 O34 1.996 . S
Zn29 O37 1.943 . S
O30 Zn29 1.962 . S
O30 C35 1.254 . S
O31 Zn28 2.031 . S
O31 C35 1.269 . S
O32 Zn29 1.986 . S
O32 C39 1.262 . S
O33 Zn28 2.049 . S
O33 C41 1.260 . S
O34 Zn29 1.996 . S
O34 C41 1.257 . S
C35 O30 1.254 . S
C35 O31 1.269 . S
C36 O37 1.249 . S
C36 O38 1.270 . S
O37 Zn29 1.943 . S
O37 C36 1.249 . S
O38 Zn28 2.067 . S
O38 C36 1.270 . S
C39 O32 1.262 . S
C39 O40 1.232 . S
O40 C39 1.232 . S
C41 O33 1.260 . S
C41 O34 1.257 . S
Zn42 O45 2.031 . S
Zn42 O47 2.049 . S
Zn42 O52 2.067 . S
Zn43 O44 1.962 . S
Zn43 O46 1.986 . S
Zn43 O48 1.996 . S
Zn43 O51 1.943 . S
O44 Zn43 1.962 . S
O44 C49 1.254 . S
O45 Zn42 2.031 . S
O45 C49 1.269 . S
O46 Zn43 1.986 . S
O46 C53 1.262 . S
O47 Zn42 2.049 . S
O47 C55 1.260 . S
O48 Zn43 1.996 . S
O48 C55 1.257 . S
C49 O44 1.254 . S
C49 O45 1.269 . S
C50 O51 1.249 . S
C50 O52 1.270 . S
O51 Zn43 1.943 . S
O51 C50 1.249 . S
O52 Zn42 2.067 . S
O52 C50 1.270 . S
C53 O46 1.262 . S
C53 O54 1.232 . S
O54 C53 1.232 . S
C55 O47 1.260 . S
C55 O48 1.257 . S
Zn56 O59 2.031 . S
Zn56 O61 2.049 . S
Zn56 O66 2.067 . S
Zn57 O58 1.962 . S
Zn57 O60 1.986 . S
Zn57 O62 1.996 . S
Zn57 O65 1.943 . S
O58 Zn57 1.962 . S
O58 C63 1.254 . S
O59 Zn56 2.031 . S
O59 C63 1.269 . S
O60 Zn57 1.986 . S
O60 C67 1.262 . S
O61 Zn56 2.049 . S
O61 C69 1.260 . S
O62 Zn57 1.996 . S
O62 C69 1.257 . S
C63 O58 1.254 . S
C63 O59 1.269 . S
C64 O65 1.249 . S
C64 O66 1.270 . S
O65 Zn57 1.943 . S
O65 C64 1.249 . S
O66 Zn56 2.067 . S
O66 C64 1.270 . S
C67 O60 1.262 . S
C67 O68 1.232 . S
O68 C67 1.232 . S
C69 O61 1.260 . S
C69 O62 1.257 . S
Zn70 O73 2.031 . S
Zn70 O75 2.049 . S
Zn70 O80 2.067 . S
Zn71 O72 1.962 . S
Zn71 O74 1.986 . S
Zn71 O76 1.996 . S
Zn71 O79 1.943 . S
O72 Zn71 1.962 . S
O72 C77 1.254 . S
O73 Zn70 2.031 . S
O73 C77 1.269 . S
O74 Zn71 1.986 . S
O74 C81 1.262 . S
O75 Zn70 2.049 . S
O75 C83 1.260 . S
O76 Zn71 1.996 . S
O76 C83 1.257 . S
C77 O72 1.254 . S
C77 O73 1.269 . S
C78 O79 1.249 . S
C78 O80 1.270 . S
O79 Zn71 1.943 . S
O79 C78 1.249 . S
O80 Zn70 2.067 . S
O80 C78 1.270 . S
C81 O74 1.262 . S
C81 O82 1.232 . S
O82 C81 1.232 . S
C83 O75 1.260 . S
C83 O76 1.257 . S
Zn84 O87 2.031 . S
Zn84 O89 2.049 . S
Zn84 O94 2.067 . S
Zn85 O86 1.962 . S
Zn85 O88 1.986 . S
Zn85 O90 1.996 . S
Zn85 O93 1.943 . S
O86 Zn85 1.962 . S
O86 C91 1.254 . S
O87 Zn84 2.031 . S
O87 C91 1.269 . S
O88 Zn85 1.986 . S
O88 C95 1.262 . S
O89 Zn84 2.049 . S
O89 C97 1.260 . S
O90 Zn85 1.996 . S
O90 C97 1.257 . S
C91 O86 1.254 . S
C91 O87 1.269 . S
C92 O93 1.249 . S
C92 O94 1.270 . S
O93 Zn85 1.943 . S
O93 C92 1.249 . S
O94 Zn84 2.067 . S
O94 C92 1.270 . S
C95 O88 1.262 . S
C95 O96 1.232 . S
O96 C95 1.232 . S
C97 O89 1.260 . S
C97 O90 1.257 . S
Zn98 O101 2.031 . S
Zn98 O103 2.049 . S
Zn98 O108 2.067 . S
Zn99 O100 1.962 . S
Zn99 O102 1.986 . S
Zn99 O104 1.996 . S
Zn99 O107 1.943 . S
O100 Zn99 1.962 . S
O100 C105 1.254 . S
O101 Zn98 2.031 . S
O101 C105 1.269 . S
O102 Zn99 1.986 . S
O102 C109 1.262 . S
O103 Zn98 2.049 . S
O103 C111 1.260 . S
O104 Zn99 1.996 . S
O104 C111 1.257 . S
C105 O100 1.254 . S
C105 O101 1.269 . S
C106 O107 1.249 . S
C106 O108 1.270 . S
O107 Zn99 1.943 . S
O107 C106 1.249 . S
O108 Zn98 2.067 . S
O108 C106 1.270 . S
C109 O102 1.262 . S
C109 O110 1.232 . S
O110 C109 1.232 . S
C111 O103 1.260 . S
C111 O104 1.257 . S
H112 C113 0.951 . S
C113 H112 0.951 . S
C113 C119 1.265 . S
H114 C119 0.950 . S
H115 C123 0.949 . S
H116 C124 0.950 . S
H117 C125 0.951 . S
H118 C126 0.951 1_545 S
C119 C113 1.265 . S
C119 H114 0.950 . S
C119 C120 1.478 . S
C120 C119 1.478 . S
C120 C121 1.397 1_545 S
C120 C137 1.394 . S
C121 C120 1.397 1_565 S
C121 C122 1.438 . S
C121 C126 1.429 . S
C122 C121 1.438 . S
C122 C123 1.428 . S
C122 C135 1.394 . S
C123 H115 0.949 . S
C123 C122 1.428 . S
C123 C124 1.345 . S
C124 H116 0.950 . S
C124 C123 1.345 . S
C124 C125 1.424 . S
C125 H117 0.951 . S
C125 C124 1.424 . S
C125 C126 1.347 . S
C126 H118 0.951 1_565 S
C126 C121 1.429 . S
C126 C125 1.347 . S
H127 C128 0.951 . S
C128 H127 0.951 . S
C128 C134 1.265 . S
H129 C134 0.950 . S
H130 C138 0.949 . S
H131 C139 0.950 . S
H132 C140 0.951 . S
H133 C141 0.951 1_565 S
C134 C128 1.265 . S
C134 H129 0.950 . S
C134 C135 1.478 . S
C135 C122 1.394 . S
C135 C134 1.478 . S
C135 C136 1.397 1_565 S
C136 C135 1.397 1_545 S
C136 C137 1.438 . S
C136 C141 1.429 . S
C137 C120 1.394 . S
C137 C136 1.438 . S
C137 C138 1.428 . S
C138 H130 0.949 . S
C138 C137 1.428 . S
C138 C139 1.345 1_554 S
C139 H131 0.950 . S
C139 C138 1.345 1_556 S
C139 C140 1.424 . S
C140 H132 0.951 . S
C140 C139 1.424 . S
C140 C141 1.347 1_556 S
C141 H133 0.951 1_545 S
C141 C136 1.429 . S
C141 C140 1.347 1_554 S
H142 C143 0.951 . S
C143 H142 0.951 . S
C143 C149 1.265 . S
H144 C149 0.950 . S
H145 C153 0.949 . S
H146 C154 0.950 . S
H147 C155 0.951 . S
H148 C156 0.951 . S
C149 C143 1.265 . S
C149 H144 0.950 . S
C149 C150 1.478 . S
C150 C149 1.478 . S
C150 C151 1.397 . S
C150 C167 1.394 . S
C151 C150 1.397 . S
C151 C152 1.438 . S
C151 C156 1.429 . S
C152 C151 1.438 . S
C152 C153 1.428 . S
C152 C165 1.394 . S
C153 H145 0.949 . S
C153 C152 1.428 . S
C153 C154 1.345 . S
C154 H146 0.950 . S
C154 C153 1.345 . S
C154 C155 1.424 . S
C155 H147 0.951 . S
C155 C154 1.424 . S
C155 C156 1.347 . S
C156 H148 0.951 . S
C156 C151 1.429 . S
C156 C155 1.347 . S
H157 C158 0.951 . S
C158 H157 0.951 . S
C158 C164 1.265 . S
H159 C164 0.950 . S
H160 C168 0.949 . S
H161 C169 0.950 . S
H162 C170 0.951 . S
H163 C171 0.951 . S
C164 C158 1.265 . S
C164 H159 0.950 . S
C164 C165 1.478 . S
C165 C152 1.394 . S
C165 C164 1.478 . S
C165 C166 1.397 . S
C166 C165 1.397 . S
C166 C167 1.438 . S
C166 C171 1.429 . S
C167 C150 1.394 . S
C167 C166 1.438 . S
C167 C168 1.428 . S
C168 H160 0.949 . S
C168 C167 1.428 . S
C168 C169 1.345 . S
C169 H161 0.950 . S
C169 C168 1.345 . S
C169 C170 1.424 . S
C170 H162 0.951 . S
C170 C169 1.424 . S
C170 C171 1.347 . S
C171 H163 0.951 . S
C171 C166 1.429 . S
C171 C170 1.347 . S
H172 C173 0.951 . S
C173 H172 0.951 . S
C173 C179 1.265 . S
H174 C179 0.950 . S
H175 C183 0.949 1_545 S
H176 C184 0.950 . S
H177 C185 0.951 . S
H178 C186 0.951 . S
C179 C173 1.265 . S
C179 H174 0.950 . S
C179 C180 1.478 . S
C180 C179 1.478 . S
C180 C181 1.397 . S
C180 C197 1.394 1_565 S
C181 C180 1.397 . S
C181 C182 1.438 . S
C181 C186 1.429 . S
C182 C181 1.438 . S
C182 C183 1.428 . S
C182 C195 1.394 1_565 S
C183 H175 0.949 1_565 S
C183 C182 1.428 . S
C183 C184 1.345 . S
C184 H176 0.950 . S
C184 C183 1.345 . S
C184 C185 1.424 . S
C185 H177 0.951 . S
C185 C184 1.424 . S
C185 C186 1.347 . S
C186 H178 0.951 . S
C186 C181 1.429 . S
C186 C185 1.347 . S
H187 C188 0.951 . S
C188 H187 0.951 . S
C188 C194 1.265 . S
H189 C194 0.950 . S
H190 C198 0.949 1_565 S
H191 C199 0.950 . S
H192 C200 0.951 . S
H193 C201 0.951 . S
C194 C188 1.265 . S
C194 H189 0.950 . S
C194 C195 1.478 . S
C195 C182 1.394 1_545 S
C195 C194 1.478 . S
C195 C196 1.397 . S
C196 C195 1.397 . S
C196 C197 1.438 . S
C196 C201 1.429 . S
C197 C180 1.394 1_545 S
C197 C196 1.438 . S
C197 C198 1.428 . S
C198 H190 0.949 1_545 S
C198 C197 1.428 . S
C198 C199 1.345 1_556 S
C199 H191 0.950 . S
C199 C198 1.345 1_554 S
C199 C200 1.424 . S
C200 H192 0.951 . S
C200 C199 1.424 . S
C200 C201 1.347 1_554 S
C201 H193 0.951 . S
C201 C196 1.429 . S
C201 C200 1.347 1_556 S
H202 C203 0.951 . S
C203 H202 0.951 . S
C203 C209 1.265 . S
H204 C209 0.950 . S
H205 C213 0.949 . S
H206 C214 0.950 . S
H207 C215 0.951 . S
H208 C216 0.951 . S
C209 C203 1.265 . S
C209 H204 0.950 . S
C209 C210 1.478 . S
C210 C209 1.478 . S
C210 C211 1.397 . S
C210 C227 1.394 . S
C211 C210 1.397 . S
C211 C212 1.438 . S
C211 C216 1.429 . S
C212 C211 1.438 . S
C212 C213 1.428 . S
C212 C225 1.394 . S
C213 H205 0.949 . S
C213 C212 1.428 . S
C213 C214 1.345 . S
C214 H206 0.950 . S
C214 C213 1.345 . S
C214 C215 1.424 . S
C215 H207 0.951 . S
C215 C214 1.424 . S
C215 C216 1.347 . S
C216 H208 0.951 . S
C216 C211 1.429 . S
C216 C215 1.347 . S
H217 C218 0.951 . S
C218 H217 0.951 . S
C218 C224 1.265 . S
H219 C224 0.950 . S
H220 C228 0.949 . S
H221 C229 0.950 . S
H222 C230 0.951 . S
H223 C231 0.951 . S
C224 C218 1.265 . S
C224 H219 0.950 . S
C224 C225 1.478 . S
C225 C212 1.394 . S
C225 C224 1.478 . S
C225 C226 1.397 . S
C226 C225 1.397 . S
C226 C227 1.438 . S
C226 C231 1.429 . S
C227 C210 1.394 . S
C227 C226 1.438 . S
C227 C228 1.428 . S
C228 H220 0.949 . S
C228 C227 1.428 . S
C228 C229 1.345 . S
C229 H221 0.950 . S
C229 C228 1.345 . S
C229 C230 1.424 . S
C230 H222 0.951 . S
C230 C229 1.424 . S
C230 C231 1.347 . S
C231 H223 0.951 . S
C231 C226 1.429 . S
C231 C230 1.347 . S
H232 C233 0.951 . S
C233 H232 0.951 . S
C233 C239 1.265 . S
H234 C239 0.950 . S
H235 C243 0.949 . S
H236 C244 0.950 . S
H237 C245 0.951 . S
H238 C246 0.951 . S
C239 C233 1.265 . S
C239 H234 0.950 . S
C239 C240 1.478 . S
C240 C239 1.478 . S
C240 C241 1.397 . S
C240 C257 1.394 . S
C241 C240 1.397 . S
C241 C242 1.438 . S
C241 C246 1.429 . S
C242 C241 1.438 . S
C242 C243 1.428 . S
C242 C255 1.394 . S
C243 H235 0.949 . S
C243 C242 1.428 . S
C243 C244 1.345 . S
C244 H236 0.950 . S
C244 C243 1.345 . S
C244 C245 1.424 . S
C245 H237 0.951 . S
C245 C244 1.424 . S
C245 C246 1.347 . S
C246 H238 0.951 . S
C246 C241 1.429 . S
C246 C245 1.347 . S
H247 C248 0.951 . S
C248 H247 0.951 . S
C248 C254 1.265 . S
H249 C254 0.950 . S
H250 C258 0.949 . S
H251 C259 0.950 . S
H252 C260 0.951 . S
H253 C261 0.951 . S
C254 C248 1.265 . S
C254 H249 0.950 . S
C254 C255 1.478 . S
C255 C242 1.394 . S
C255 C254 1.478 . S
C255 C256 1.397 . S
C256 C255 1.397 . S
C256 C257 1.438 . S
C256 C261 1.429 . S
C257 C240 1.394 . S
C257 C256 1.438 . S
C257 C258 1.428 . S
C258 H250 0.949 . S
C258 C257 1.428 . S
C258 C259 1.345 . S
C259 H251 0.950 . S
C259 C258 1.345 . S
C259 C260 1.424 . S
C260 H252 0.951 . S
C260 C259 1.424 . S
C260 C261 1.347 . S
C261 H253 0.951 . S
C261 C256 1.429 . S
C261 C260 1.347 . S
H262 C263 0.951 . S
C263 H262 0.951 . S
C263 C269 1.265 . S
H264 C269 0.950 . S
H265 C273 0.949 . S
H266 C274 0.950 . S
H267 C275 0.951 . S
H268 C276 0.951 . S
C269 C263 1.265 . S
C269 H264 0.950 . S
C269 C270 1.478 . S
C270 C269 1.478 . S
C270 C271 1.397 . S
C270 C287 1.394 . S
C271 C270 1.397 . S
C271 C272 1.438 . S
C271 C276 1.429 . S
C272 C271 1.438 . S
C272 C273 1.428 . S
C272 C285 1.394 . S
C273 H265 0.949 . S
C273 C272 1.428 . S
C273 C274 1.345 . S
C274 H266 0.950 . S
C274 C273 1.345 . S
C274 C275 1.424 . S
C275 H267 0.951 . S
C275 C274 1.424 . S
C275 C276 1.347 . S
C276 H268 0.951 . S
C276 C271 1.429 . S
C276 C275 1.347 . S
H277 C278 0.951 . S
C278 H277 0.951 . S
C278 C284 1.265 . S
H279 C284 0.950 . S
H280 C288 0.949 . S
H281 C289 0.950 . S
H282 C290 0.951 . S
H283 C291 0.951 . S
C284 C278 1.265 . S
C284 H279 0.950 . S
C284 C285 1.478 . S
C285 C272 1.394 . S
C285 C284 1.478 . S
C285 C286 1.397 . S
C286 C285 1.397 . S
C286 C287 1.438 . S
C286 C291 1.429 . S
C287 C270 1.394 . S
C287 C286 1.438 . S
C287 C288 1.428 . S
C288 H280 0.949 . S
C288 C287 1.428 . S
C288 C289 1.345 . S
C289 H281 0.950 . S
C289 C288 1.345 . S
C289 C290 1.424 . S
C290 H282 0.951 . S
C290 C289 1.424 . S
C290 C291 1.347 . S
C291 H283 0.951 . S
C291 C286 1.429 . S
C291 C290 1.347 . S
H292 C293 0.951 . S
C293 H292 0.951 . S
C293 C299 1.265 . S
H294 C299 0.950 . S
H295 C303 0.949 . S
H296 C304 0.950 . S
H297 C305 0.951 . S
H298 C306 0.951 . S
C299 C293 1.265 . S
C299 H294 0.950 . S
C299 C300 1.478 . S
C300 C299 1.478 . S
C300 C301 1.397 . S
C300 C317 1.394 . S
C301 C300 1.397 . S
C301 C302 1.438 . S
C301 C306 1.429 . S
C302 C301 1.438 . S
C302 C303 1.428 . S
C302 C315 1.394 . S
C303 H295 0.949 . S
C303 C302 1.428 . S
C303 C304 1.345 . S
C304 H296 0.950 . S
C304 C303 1.345 . S
C304 C305 1.424 . S
C305 H297 0.951 . S
C305 C304 1.424 . S
C305 C306 1.347 . S
C306 H298 0.951 . S
C306 C301 1.429 . S
C306 C305 1.347 . S
H307 C308 0.951 . S
C308 H307 0.951 . S
C308 C314 1.265 . S
H309 C314 0.950 . S
H310 C318 0.949 . S
H311 C319 0.950 . S
H312 C320 0.951 . S
H313 C321 0.951 . S
C314 C308 1.265 . S
C314 H309 0.950 . S
C314 C315 1.478 . S
C315 C302 1.394 . S
C315 C314 1.478 . S
C315 C316 1.397 . S
C316 C315 1.397 . S
C316 C317 1.438 . S
C316 C321 1.429 . S
C317 C300 1.394 . S
C317 C316 1.438 . S
C317 C318 1.428 . S
C318 H310 0.949 . S
C318 C317 1.428 . S
C318 C319 1.345 . S
C319 H311 0.950 . S
C319 C318 1.345 . S
C319 C320 1.424 . S
C320 H312 0.951 . S
C320 C319 1.424 . S
C320 C321 1.347 . S
C321 H313 0.951 . S
C321 C316 1.429 . S
C321 C320 1.347 . S
H322 C323 0.951 . S
C323 H322 0.951 . S
C323 C329 1.265 . S
H324 C329 0.950 . S
H325 C333 0.949 . S
H326 C334 0.950 . S
H327 C335 0.951 . S
H328 C336 0.951 . S
C329 C323 1.265 . S
C329 H324 0.950 . S
C329 C330 1.478 . S
C330 C329 1.478 . S
C330 C331 1.397 . S
C330 C347 1.394 . S
C331 C330 1.397 . S
C331 C332 1.438 . S
C331 C336 1.429 . S
C332 C331 1.438 . S
C332 C333 1.428 . S
C332 C345 1.394 . S
C333 H325 0.949 . S
C333 C332 1.428 . S
C333 C334 1.345 . S
C334 H326 0.950 . S
C334 C333 1.345 . S
C334 C335 1.424 . S
C335 H327 0.951 . S
C335 C334 1.424 . S
C335 C336 1.347 . S
C336 H328 0.951 . S
C336 C331 1.429 . S
C336 C335 1.347 . S
H337 C338 0.951 . S
C338 H337 0.951 . S
C338 C344 1.265 . S
H339 C344 0.950 . S
H340 C348 0.949 . S
H341 C349 0.950 . S
H342 C350 0.951 . S
H343 C351 0.951 . S
C344 C338 1.265 . S
C344 H339 0.950 . S
C344 C345 1.478 . S
C345 C332 1.394 . S
C345 C344 1.478 . S
C345 C346 1.397 . S
C346 C345 1.397 . S
C346 C347 1.438 . S
C346 C351 1.429 . S
C347 C330 1.394 . S
C347 C346 1.438 . S
C347 C348 1.428 . S
C348 H340 0.949 . S
C348 C347 1.428 . S
C348 C349 1.345 . S
C349 H341 0.950 . S
C349 C348 1.345 . S
C349 C350 1.424 . S
C350 H342 0.951 . S
C350 C349 1.424 . S
C350 C351 1.347 . S
C351 H343 0.951 . S
C351 C346 1.429 . S
C351 C350 1.347 . S
H352 C353 0.951 . S
C353 H352 0.951 . S
C353 C359 1.265 . S
H354 C359 0.950 . S
H355 C363 0.949 . S
H356 C364 0.950 . S
H357 C365 0.951 . S
H358 C366 0.951 . S
C359 C353 1.265 . S
C359 H354 0.950 . S
C359 C360 1.478 . S
C360 C359 1.478 . S
C360 C361 1.397 . S
C360 C377 1.394 1_554 S
C361 C360 1.397 . S
C361 C362 1.438 . S
C361 C366 1.429 . S
C362 C361 1.438 . S
C362 C363 1.428 . S
C362 C375 1.394 1_554 S
C363 H355 0.949 . S
C363 C362 1.428 . S
C363 C364 1.345 . S
C364 H356 0.950 . S
C364 C363 1.345 . S
C364 C365 1.424 . S
C365 H357 0.951 . S
C365 C364 1.424 . S
C365 C366 1.347 . S
C366 H358 0.951 . S
C366 C361 1.429 . S
C366 C365 1.347 . S
H367 C368 0.951 . S
C368 H367 0.951 . S
C368 C374 1.265 . S
H369 C374 0.950 . S
H370 C378 0.949 . S
H371 C379 0.950 . S
H372 C380 0.951 . S
H373 C381 0.951 . S
C374 C368 1.265 . S
C374 H369 0.950 . S
C374 C375 1.478 . S
C375 C362 1.394 1_556 S
C375 C374 1.478 . S
C375 C376 1.397 . S
C376 C375 1.397 . S
C376 C377 1.438 . S
C376 C381 1.429 . S
C377 C360 1.394 1_556 S
C377 C376 1.438 . S
C377 C378 1.428 . S
C378 H370 0.949 . S
C378 C377 1.428 . S
C378 C379 1.345 . S
C379 H371 0.950 . S
C379 C378 1.345 . S
C379 C380 1.424 . S
C380 H372 0.951 . S
C380 C379 1.424 . S
C380 C381 1.347 . S
C381 H373 0.951 . S
C381 C376 1.429 . S
C381 C380 1.347 . S
H382 C383 0.951 . S
C383 H382 0.951 . S
C383 C389 1.265 . S
H384 C389 0.960 . S
H385 C393 0.949 . S
H386 C394 0.950 . S
H387 C395 0.951 . S
H388 C396 0.956 . S
C389 C383 1.265 . S
C389 H384 0.960 . S
C389 C390 1.478 . S
C390 C389 1.478 . S
C390 C391 1.397 1_554 S
C390 C407 1.394 . S
C391 C390 1.397 1_556 S
C391 C392 1.437 1_455 S
C391 C396 1.429 . S
C392 C391 1.437 1_655 S
C392 C393 1.428 . S
C392 C405 1.394 . S
C393 H385 0.949 . S
C393 C392 1.428 . S
C393 C394 1.345 . S
C394 H386 0.950 . S
C394 C393 1.345 . S
C394 C395 1.424 . S
C395 H387 0.951 . S
C395 C394 1.424 . S
C395 C396 1.343 1_655 S
C396 H388 0.956 . S
C396 C391 1.429 . S
C396 C395 1.343 1_455 S
H397 C398 0.951 . S
C398 H397 0.951 . S
C398 C404 1.265 . S
H399 C404 0.960 . S
H400 C408 0.949 . S
H401 C409 0.950 . S
H402 C410 0.951 . S
H403 C411 0.956 . S
C404 C398 1.265 . S
C404 H399 0.960 . S
C404 C405 1.478 . S
C405 C392 1.394 . S
C405 C404 1.478 . S
C405 C406 1.397 1_556 S
C406 C405 1.397 1_554 S
C406 C407 1.437 1_655 S
C406 C411 1.429 . S
C407 C390 1.394 . S
C407 C406 1.437 1_455 S
C407 C408 1.428 . S
C408 H400 0.949 . S
C408 C407 1.428 . S
C408 C409 1.345 . S
C409 H401 0.950 . S
C409 C408 1.345 . S
C409 C410 1.424 . S
C410 H402 0.951 . S
C410 C409 1.424 . S
C410 C411 1.343 1_455 S
C411 H403 0.956 . S
C411 C406 1.429 . S
C411 C410 1.343 1_655 S
H412 C413 0.951 . S
C413 H412 0.951 . S
C413 C419 1.265 . S
H414 C419 0.950 . S
H415 C423 0.949 . S
H416 C424 0.950 . S
H417 C425 0.951 1_565 S
H418 C426 0.951 . S
C419 C413 1.265 . S
C419 H414 0.950 . S
C419 C420 1.478 . S
C420 C419 1.478 . S
C420 C421 1.397 . S
C420 C437 1.394 . S
C421 C420 1.397 . S
C421 C422 1.438 1_565 S
C421 C426 1.429 . S
C422 C421 1.438 1_545 S
C422 C423 1.428 . S
C422 C435 1.394 . S
C423 H415 0.949 . S
C423 C422 1.428 . S
C423 C424 1.345 . S
C424 H416 0.950 . S
C424 C423 1.345 . S
C424 C425 1.424 . S
C425 H417 0.951 1_545 S
C425 C424 1.424 . S
C425 C426 1.347 1_545 S
C426 H418 0.951 . S
C426 C421 1.429 . S
C426 C425 1.347 1_565 S
H427 C428 0.951 . S
C428 H427 0.951 . S
C428 C434 1.265 . S
H429 C434 0.950 . S
H430 C438 0.949 . S
H431 C439 0.950 . S
H432 C440 0.951 1_545 S
H433 C441 0.951 . S
C434 C428 1.265 . S
C434 H429 0.950 . S
C434 C435 1.478 . S
C435 C422 1.394 . S
C435 C434 1.478 . S
C435 C436 1.397 . S
C436 C435 1.397 . S
C436 C437 1.438 1_545 S
C436 C441 1.429 . S
C437 C420 1.394 . S
C437 C436 1.438 1_565 S
C437 C438 1.428 . S
C438 H430 0.949 . S
C438 C437 1.428 . S
C438 C439 1.345 . S
C439 H431 0.950 . S
C439 C438 1.345 . S
C439 C440 1.424 . S
C440 H432 0.951 1_565 S
C440 C439 1.424 . S
C440 C441 1.347 1_565 S
C441 H433 0.951 . S
C441 C436 1.429 . S
C441 C440 1.347 1_545 S
H442 C443 0.951 . S
C443 H442 0.951 . S
C443 C449 1.265 . S
H444 C449 0.950 . S
H445 C453 0.949 . S
H446 C454 0.950 . S
H447 C455 0.951 . S
H448 C456 0.951 . S
C449 C443 1.265 . S
C449 H444 0.950 . S
C449 C450 1.478 . S
C450 C449 1.478 . S
C450 C451 1.397 . S
C450 C467 1.394 . S
C451 C450 1.397 . S
C451 C452 1.438 1_645 S
C451 C456 1.429 . S
C452 C451 1.438 1_465 S
C452 C453 1.428 . S
C452 C465 1.394 . S
C453 H445 0.949 . S
C453 C452 1.428 . S
C453 C454 1.345 1_565 S
C454 H446 0.950 . S
C454 C453 1.345 1_545 S
C454 C455 1.424 . S
C455 H447 0.951 . S
C455 C454 1.424 . S
C455 C456 1.347 1_455 S
C456 H448 0.951 . S
C456 C451 1.429 . S
C456 C455 1.347 1_655 S
H457 C458 0.951 . S
C458 H457 0.951 . S
C458 C464 1.265 . S
H459 C464 0.950 . S
H460 C468 0.949 . S
H461 C469 0.950 . S
H462 C470 0.951 . S
H463 C471 0.951 . S
C464 C458 1.265 . S
C464 H459 0.950 . S
C464 C465 1.478 . S
C465 C452 1.394 . S
C465 C464 1.478 . S
C465 C466 1.397 . S
C466 C465 1.397 . S
C466 C467 1.438 1_465 S
C466 C471 1.429 . S
C467 C450 1.394 . S
C467 C466 1.438 1_645 S
C467 C468 1.428 . S
C468 H460 0.949 . S
C468 C467 1.428 . S
C468 C469 1.345 1_545 S
C469 H461 0.950 . S
C469 C468 1.345 1_565 S
C469 C470 1.424 . S
C470 H462 0.951 . S
C470 C469 1.424 . S
C470 C471 1.347 1_655 S
C471 H463 0.951 . S
C471 C466 1.429 . S
C471 C470 1.347 1_455 S
H472 C473 0.951 . S
C473 H472 0.951 . S
C473 C479 1.265 . S
H474 C479 0.950 . S
H475 C483 0.949 . S
H476 C484 0.950 . S
H477 C485 0.951 . S
H478 C486 0.951 . S
C479 C473 1.265 . S
C479 H474 0.950 . S
C479 C480 1.478 . S
C480 C479 1.478 . S
C480 C481 1.397 . S
C480 C497 1.394 . S
C481 C480 1.397 . S
C481 C482 1.438 . S
C481 C486 1.429 . S
C482 C481 1.438 . S
C482 C483 1.428 . S
C482 C495 1.394 . S
C483 H475 0.949 . S
C483 C482 1.428 . S
C483 C484 1.345 . S
C484 H476 0.950 . S
C484 C483 1.345 . S
C484 C485 1.424 . S
C485 H477 0.951 . S
C485 C484 1.424 . S
C485 C486 1.347 . S
C486 H478 0.951 . S
C486 C481 1.429 . S
C486 C485 1.347 . S
H487 C488 0.951 . S
C488 H487 0.951 . S
C488 C494 1.265 . S
H489 C494 0.950 . S
H490 C498 0.949 . S
H491 C499 0.950 . S
H492 C500 0.951 . S
H493 C501 0.951 . S
C494 C488 1.265 . S
C494 H489 0.950 . S
C494 C495 1.478 . S
C495 C482 1.394 . S
C495 C494 1.478 . S
C495 C496 1.397 . S
C496 C495 1.397 . S
C496 C497 1.438 . S
C496 C501 1.429 . S
C497 C480 1.394 . S
C497 C496 1.438 . S
C497 C498 1.428 . S
C498 H490 0.949 . S
C498 C497 1.428 . S
C498 C499 1.345 1_554 S
C499 H491 0.950 . S
C499 C498 1.345 1_556 S
C499 C500 1.424 . S
C500 H492 0.951 . S
C500 C499 1.424 . S
C500 C501 1.347 1_556 S
C501 H493 0.951 . S
C501 C496 1.429 . S
C501 C500 1.347 1_554 S
H502 C503 0.951 . S
C503 H502 0.951 . S
C503 C509 1.265 . S
H504 C509 0.950 . S
H505 C513 0.949 . S
H506 C514 0.950 . S
H507 C515 0.951 . S
H508 C516 0.951 . S
C509 C503 1.265 . S
C509 H504 0.950 . S
C509 C510 1.478 . S
C510 C509 1.478 . S
C510 C511 1.397 1_545 S
C510 C527 1.394 . S
C511 C510 1.397 1_565 S
C511 C512 1.438 . S
C511 C516 1.429 . S
C512 C511 1.438 . S
C512 C513 1.428 . S
C512 C525 1.394 . S
C513 H505 0.949 . S
C513 C512 1.428 . S
C513 C514 1.345 . S
C514 H506 0.950 . S
C514 C513 1.345 . S
C514 C515 1.424 . S
C515 H507 0.951 . S
C515 C514 1.424 . S
C515 C516 1.347 . S
C516 H508 0.951 . S
C516 C511 1.429 . S
C516 C515 1.347 . S
H517 C518 0.951 . S
C518 H517 0.951 . S
C518 C524 1.265 . S
H519 C524 0.950 . S
H520 C528 0.949 . S
H521 C529 0.950 . S
H522 C530 0.951 . S
H523 C531 0.951 . S
C524 C518 1.265 . S
C524 H519 0.950 . S
C524 C525 1.478 . S
C525 C512 1.394 . S
C525 C524 1.478 . S
C525 C526 1.397 1_565 S
C526 C525 1.397 1_545 S
C526 C527 1.438 . S
C526 C531 1.429 . S
C527 C510 1.394 . S
C527 C526 1.438 . S
C527 C528 1.428 . S
C528 H520 0.949 . S
C528 C527 1.428 . S
C528 C529 1.345 . S
C529 H521 0.950 . S
C529 C528 1.345 . S
C529 C530 1.424 . S
C530 H522 0.951 . S
C530 C529 1.424 . S
C530 C531 1.347 . S
C531 H523 0.951 . S
C531 C526 1.429 . S
C531 C530 1.347 . S
H532 C533 0.951 . S
C533 H532 0.951 . S
C533 C539 1.265 . S
H534 C539 0.950 . S
H535 C543 0.949 . S
H536 C544 0.950 . S
H537 C545 0.951 . S
H538 C546 0.951 . S
C539 C533 1.265 . S
C539 H534 0.950 . S
C539 C540 1.478 . S
C540 C539 1.478 . S
C540 C541 1.397 . S
C540 C557 1.394 . S
C541 C540 1.397 . S
C541 C542 1.438 . S
C541 C546 1.429 . S
C542 C541 1.438 . S
C542 C543 1.428 . S
C542 C555 1.394 . S
C543 H535 0.949 . S
C543 C542 1.428 . S
C543 C544 1.345 . S
C544 H536 0.950 . S
C544 C543 1.345 . S
C544 C545 1.424 . S
C545 H537 0.951 . S
C545 C544 1.424 . S
C545 C546 1.347 . S
C546 H538 0.951 . S
C546 C541 1.429 . S
C546 C545 1.347 . S
H547 C548 0.951 . S
C548 H547 0.951 . S
C548 C554 1.265 . S
H549 C554 0.950 . S
H550 C558 0.949 . S
H551 C559 0.950 . S
H552 C560 0.951 . S
H553 C561 0.951 . S
C554 C548 1.265 . S
C554 H549 0.950 . S
C554 C555 1.478 . S
C555 C542 1.394 . S
C555 C554 1.478 . S
C555 C556 1.397 . S
C556 C555 1.397 . S
C556 C557 1.438 . S
C556 C561 1.429 . S
C557 C540 1.394 . S
C557 C556 1.438 . S
C557 C558 1.428 . S
C558 H550 0.949 . S
C558 C557 1.428 . S
C558 C559 1.345 . S
C559 H551 0.950 . S
C559 C558 1.345 . S
C559 C560 1.424 . S
C560 H552 0.951 . S
C560 C559 1.424 . S
C560 C561 1.347 . S
C561 H553 0.951 . S
C561 C556 1.429 . S
C561 C560 1.347 . S
H562 C563 0.951 . S
C563 H562 0.951 . S
C563 C569 1.265 . S
H564 C569 0.950 . S
H565 C573 0.949 . S
H566 C574 0.950 . S
H567 C575 0.951 . S
H568 C576 0.951 . S
C569 C563 1.265 . S
C569 H564 0.950 . S
C569 C570 1.478 . S
C570 C569 1.478 . S
C570 C571 1.397 1_565 S
C570 C587 1.394 . S
C571 C570 1.397 1_545 S
C571 C572 1.438 . S
C571 C576 1.429 . S
C572 C571 1.438 . S
C572 C573 1.428 . S
C572 C585 1.394 . S
C573 H565 0.949 . S
C573 C572 1.428 . S
C573 C574 1.345 . S
C574 H566 0.950 . S
C574 C573 1.345 . S
C574 C575 1.424 . S
C575 H567 0.951 . S
C575 C574 1.424 . S
C575 C576 1.347 . S
C576 H568 0.951 . S
C576 C571 1.429 . S
C576 C575 1.347 . S
H577 C578 0.951 . S
C578 H577 0.951 . S
C578 C584 1.265 . S
H579 C584 0.950 . S
H580 C588 0.949 . S
H581 C589 0.950 . S
H582 C590 0.951 . S
H583 C591 0.951 . S
C584 C578 1.265 . S
C584 H579 0.950 . S
C584 C585 1.478 . S
C585 C572 1.394 . S
C585 C584 1.478 . S
C585 C586 1.397 1_545 S
C586 C585 1.397 1_565 S
C586 C587 1.438 . S
C586 C591 1.429 . S
C587 C570 1.394 . S
C587 C586 1.438 . S
C587 C588 1.428 . S
C588 H580 0.949 . S
C588 C587 1.428 . S
C588 C589 1.345 . S
C589 H581 0.950 . S
C589 C588 1.345 . S
C589 C590 1.424 . S
C590 H582 0.951 . S
C590 C589 1.424 . S
C590 C591 1.347 . S
C591 H583 0.951 . S
C591 C586 1.429 . S
C591 C590 1.347 . S
C113 C13 1.276 . S
C128 C27 1.273 . S
C143 C55 1.363 . S
C158 C41 1.367 . S
C173 C69 1.377 . S
C188 C83 1.346 . S
C203 C97 1.361 . S
C218 C111 1.369 . S
C233 C11 1.564 . S
C248 C39 1.546 . S
C263 C53 1.564 . S
C278 C25 1.547 . S
C293 C67 1.545 . S
C308 C95 1.563 . S
C323 C109 1.545 . S
C338 C81 1.563 . S
C353 C7 1.454 . S
C368 C63 1.454 . S
C383 C21 1.355 . S
C398 C77 1.355 . S
C413 C91 1.357 . S
C428 C35 1.357 . S
C443 C105 1.437 . S
C458 C49 1.437 . S
C473 C22 0.938 . S
C488 C8 0.945 . S
C503 C36 0.843 . S
C518 C50 0.857 . S
C533 C64 0.923 . S
C548 C78 0.943 . S
C563 C92 0.908 . S
C578 C106 0.874 . S
