# Generated by pormake.
# Topology sxc, (6)-cn, num edge types: 1
# Building blocks:
#     Node 0, Type 0, BuildingBlock: PAMTOO_clean_sbu_0, # of connection points: 6
#     Node 1, Type 0, BuildingBlock: PAMTOO_clean_sbu_0, # of connection points: 6
#     Node 2, Type 0, BuildingBlock: PAMTOO_clean_sbu_0, # of connection points: 6
#     Edge 3, Type (0, 0), BuildingBlock: TEMPAE_clean_linker_10, # of connection points: 2
#     Edge 4, Type (0, 0), BuildingBlock: TEMPAE_clean_linker_10, # of connection points: 2
#     Edge 5, Type (0, 0), BuildingBlock: TEMPAE_clean_linker_10, # of connection points: 2
#     Edge 6, Type (0, 0), BuildingBlock: TEMPAE_clean_linker_10, # of connection points: 2
#     Edge 7, Type (0, 0), BuildingBlock: TEMPAE_clean_linker_10, # of connection points: 2
#     Edge 8, Type (0, 0), BuildingBlock: TEMPAE_clean_linker_10, # of connection points: 2
#     Edge 9, Type (0, 0), BuildingBlock: TEMPAE_clean_linker_10, # of connection points: 2
#     Edge 10, Type (0, 0), BuildingBlock: TEMPAE_clean_linker_10, # of connection points: 2
#     Edge 11, Type (0, 0), BuildingBlock: TEMPAE_clean_linker_10, # of connection points: 2
# Relax obj value: 0.337
# Max RMSD: 0.126
# Mean RMSD: 0.099
data_MOF--net-sxc--node1-PAMTOO_clean_sbu_0--edge1-TEMPAE_clean_linker_10
_symmetry_space_group_name_H-M    P1
_symmetry_Int_Tables_number       1
_symmetry_cell_setting            triclinic
loop_
_symmetry_equiv_pos_as_xyz
'x, y, z'
_cell_length_a     17.438587
_cell_length_b     15.997241
_cell_length_c     46.442027
_cell_angle_alpha  93.876558
_cell_angle_beta   97.903732
_cell_angle_gamma 93.090809
loop_
_atom_site_label
_atom_site_type_symbol
_atom_site_fract_x
_atom_site_fract_y
_atom_site_fract_z
_atom_type_partial_charge
Dy0 Dy 1.09843 0.06733 -0.00249 0.0
Dy1 Dy 0.28413 0.08091 0.00268 0.0
C2 C 0.20212 0.07801 0.06014 0.0
O3 O 0.12759 0.20553 -0.00677 0.0
O4 O 0.25691 0.21626 0.01166 0.0
O5 O 0.98939 1.03552 0.01237 0.0
O6 O 0.99092 0.09038 0.9711 0.0
O7 O 0.23315 0.117 0.95857 0.0
O8 O 0.13269 1.02078 0.95483 0.0
O9 O 0.25267 0.94066 -0.00489 0.0
O10 O 0.12852 0.93476 0.00619 0.0
O11 O 0.38257 1.04473 0.98239 0.0
O12 O 0.39982 0.12378 0.02281 0.0
C13 C 0.19218 0.25179 0.00279 0.0
O14 O 0.13877 0.10165 0.0449 0.0
O15 O 0.26144 0.05454 0.04759 0.0
C16 C 0.89937 0.98016 0.97301 0.0
C17 C 0.80681 0.83711 0.94841 0.0
C18 C 0.88815 0.83664 0.952 0.0
C19 C 0.93388 0.90762 0.96402 0.0
C20 C 0.81857 0.98273 0.96852 0.0
C21 C 0.77241 0.9116 0.95616 0.0
C22 C 0.94901 0.05115 -0.01225 0.0
C23 C 0.17943 0.06821 0.94226 0.0
C24 C 0.19095 0.89694 0.00088 0.0
C25 C 0.47534 0.15649 -0.01322 0.0
C26 C 0.55712 0.27855 0.96016 0.0
C27 C 0.47759 0.2841 0.96165 0.0
C28 C 0.43711 0.2235 0.97474 0.0
C29 C 0.55421 0.14925 -0.01504 0.0
C30 C 0.59503 0.2101 0.97172 0.0
C31 C 0.43116 0.09428 0.00057 0.0
H32 H 0.91678 0.78022 0.94687 0.0
H33 H 0.99639 0.905 0.96717 0.0
H34 H 0.79128 1.03881 0.97511 0.0
H35 H 0.70993 0.91422 0.95335 0.0
H36 H 0.44699 0.33684 0.95358 0.0
H37 H 0.37597 0.22958 0.97583 0.0
H38 H 0.58415 0.09718 -0.00608 0.0
H39 H 0.65621 0.20408 0.97076 0.0
Dy40 Dy 0.23868 1.0434 0.34292 0.0
Dy41 Dy 1.05824 1.02925 0.31724 0.0
C42 C 0.18547 0.04878 0.27599 0.0
O43 O 0.21047 0.17519 0.33128 0.0
O44 O 1.07976 0.16733 0.33217 0.0
O45 O 0.32839 0.10203 0.37571 0.0
O46 O 0.35848 1.01815 0.34095 0.0
O47 O 1.05069 1.00965 0.36419 0.0
O48 O 0.17901 1.04384 0.38243 0.0
O49 O 1.09467 0.89443 0.31631 0.0
O50 O 0.20862 0.90654 0.34788 0.0
O51 O 0.93738 0.05687 0.3123 0.0
O52 O 0.97977 0.97246 0.28039 0.0
C53 C 0.14527 0.21266 0.33238 0.0
O54 O 0.23127 1.01022 0.29473 0.0
O55 O 0.12477 0.08232 0.28419 0.0
C56 C 0.43755 0.14198 0.35402 0.0
C57 C 0.53175 0.25979 0.33006 0.0
C58 C 0.55444 0.17733 0.33383 0.0
C59 C 0.50813 0.11945 0.34586 0.0
C60 C 0.41552 0.22487 0.35132 0.0
C61 C 0.46242 0.2834 0.33955 0.0
C62 C 0.38357 0.07621 0.36173 0.0
C63 C 1.10713 1.02429 0.38621 0.0
C64 C 0.15108 0.85958 0.33236 0.0
C65 C 0.89045 0.06696 0.26279 0.0
C66 C 0.82089 0.17632 0.22305 0.0
C67 C 0.90089 0.1866 0.23359 0.0
C68 C 0.93497 0.13313 0.25358 0.0
C69 C 0.81383 0.04993 0.24987 0.0
C70 C 0.77947 0.10334 0.23009 0.0
C71 C 0.92308 1.01735 0.28639 0.0
H72 H 0.6061 0.15543 0.32603 0.0
H73 H 0.52561 0.05572 0.3474 0.0
H74 H 0.36077 0.24379 0.3573 0.0
H75 H 0.44328 0.34615 0.33714 0.0
H76 H 0.93644 0.23906 0.22814 0.0
H77 H 0.99518 0.14595 0.26286 0.0
H78 H 0.7792 0.99783 0.25623 0.0
H79 H 0.71827 0.09028 0.22268 0.0
Dy80 Dy 1.08122 0.16715 0.66278 0.0
Dy81 Dy 1.06879 0.97508 0.66218 0.0
C82 C 1.06623 0.05852 0.60199 0.0
O83 O 0.94377 0.13916 0.6617 0.0
O84 O 0.93531 0.99737 0.66379 0.0
O85 O 1.05589 0.27813 0.64009 0.0
O86 O 1.10413 0.28996 0.68571 0.0
O87 O 1.04971 1.01825 0.70732 0.0
O88 O 1.12078 0.14115 0.70912 0.0
O89 O 0.20571 1.00396 0.66148 0.0
O90 O 0.21533 0.14656 0.66325 0.0
O91 O 1.10239 0.86569 0.68455 0.0
O92 O 1.0397 0.85143 0.64077 0.0
C93 C 0.89806 0.06885 0.66275 0.0
O94 O 1.09898 0.12583 0.61731 0.0
O95 O 1.0379 0.99649 0.61506 0.0
C96 C 0.15709 0.38028 0.65549 0.0
C97 C 0.30247 0.46215 0.65351 0.0
C98 C 0.28125 0.38469 0.6376 0.0
C99 C 0.20923 0.34422 0.63856 0.0
C100 C 0.17587 0.45978 0.67004 0.0
C101 C 0.24816 0.50078 0.66895 0.0
C102 C 1.0908 0.32819 0.66181 0.0
C103 C 1.08936 0.08179 0.72246 0.0
C104 C 0.25202 0.07494 0.66239 0.0
C105 C 1.00348 0.75803 0.67325 0.0
C106 C 0.86273 0.67115 0.67812 0.0
C107 C 0.88507 0.74703 0.69488 0.0
C108 C 0.95487 0.79034 0.6924 0.0
C109 C 0.98476 0.67859 0.65855 0.0
C110 C 0.91463 0.635 0.66106 0.0
C111 C 1.06319 0.81406 0.66415 0.0
H112 H 0.32201 0.35261 0.62587 0.0
H113 H 0.19628 0.28228 0.62745 0.0
H114 H 0.13646 0.48806 0.68338 0.0
H115 H 0.26273 0.56106 0.6811 0.0
H116 H 0.84605 0.77563 0.70834 0.0
H117 H 0.96791 0.85197 0.70375 0.0
H118 H 1.02139 0.6533 0.64347 0.0
H119 H 0.89823 0.57669 0.64786 0.0
C120 C 0.24627 0.39944 0.02195 0.0
C121 C 0.19224 0.34651 0.00273 0.0
C122 C 0.24618 0.48829 0.02223 0.0
C123 C 0.1925 0.52672 0.00213 0.0
C124 C 0.13875 0.4734 0.98232 0.0
C125 C 0.13849 0.38485 -0.01683 0.0
C126 C 0.30316 0.54121 0.04442 0.0
C127 C 1.08183 0.50993 0.95983 0.0
C128 C 0.14168 0.75696 0.01681 0.0
C129 C 0.19151 0.80227 0.00119 0.0
C130 C 0.14236 0.66846 0.0177 0.0
C131 C 0.19236 0.62212 0.00186 0.0
C132 C 0.24194 0.66748 -0.01433 0.0
C133 C 0.24176 0.75629 -0.0141 0.0
C134 C 1.08991 0.62455 0.03599 0.0
C135 C 0.29471 0.62195 0.96768 0.0
H136 H 0.28798 0.37133 0.03728 0.0
H137 H 1.09686 0.34535 0.96796 0.0
H138 H 0.34255 0.58031 0.03322 0.0
H139 H 0.27163 0.58465 0.05753 0.0
H140 H 0.3388 0.50254 0.0594 0.0
H141 H 1.04654 0.46062 0.94498 0.0
H142 H 1.04205 0.54894 0.97078 0.0
H143 H 1.11333 0.55157 0.9466 0.0
H144 H 1.10281 0.79102 0.0289 0.0
H145 H 0.28023 0.78972 0.97354 0.0
H146 H 0.12461 0.58735 0.05175 0.0
H147 H 1.04753 0.58003 0.02189 0.0
H148 H 1.05746 0.6693 0.04825 0.0
H149 H 0.33679 0.58813 0.98198 0.0
H150 H 0.32749 0.66524 0.95537 0.0
H151 H 0.26014 0.57423 0.95198 0.0
C152 C 0.65663 0.30807 0.31475 0.0
C153 C 0.57686 0.3157 0.31329 0.0
C154 C 0.6955 0.32917 0.29166 0.0
C155 C 0.65428 0.36585 0.26745 0.0
C156 C 0.57929 0.39316 0.26987 0.0
C157 C 0.53999 0.36491 0.29224 0.0
C158 C 0.77721 0.30147 0.29222 0.0
C159 C 0.53787 0.44699 0.24807 0.0
C160 C 0.80526 0.33183 0.22232 0.0
C161 C 0.777 0.24921 0.21223 0.0
C162 C 0.75617 0.38627 0.23485 0.0
C163 C 0.6812 0.35407 0.23831 0.0
C164 C 0.64761 0.28482 0.21906 0.0
C165 C 0.69653 0.23664 0.20411 0.0
C166 C 0.78813 0.47174 0.24816 0.0
C167 C 0.56393 0.25311 0.21761 0.0
H168 H 0.68683 0.27651 0.33248 0.0
H169 H 0.4791 0.37605 0.29171 0.0
H170 H 0.77889 0.25294 0.27425 0.0
H171 H 0.81776 0.35528 0.28983 0.0
H172 H 0.79918 0.27395 0.31287 0.0
H173 H 0.48071 0.41583 0.23855 0.0
H174 H 0.52582 0.50691 0.25961 0.0
H175 H 0.57202 0.46186 0.23039 0.0
H176 H 0.86653 0.35017 0.2247 0.0
H177 H 0.67278 0.17955 0.19138 0.0
H178 H 0.8451 0.46745 0.2618 0.0
H179 H 0.74768 0.50285 0.2613 0.0
H180 H 0.79863 0.51193 0.23035 0.0
H181 H 0.55202 0.23563 0.23936 0.0
H182 H 0.5486 0.19719 0.20193 0.0
H183 H 0.52539 0.3029 0.21056 0.0
C184 C 0.76193 0.55321 0.67757 0.0
C185 C 0.78128 0.63804 0.67476 0.0
C186 C 0.68395 0.52254 0.6736 0.0
C187 C 0.62495 0.57809 0.66626 0.0
C188 C 0.64466 0.66315 0.66262 0.0
C189 C 0.72258 0.69229 0.66724 0.0
C190 C 0.66458 0.43123 0.67745 0.0
C191 C 0.58368 0.72399 0.65426 0.0
C192 C 0.42402 0.49305 0.63213 0.0
C193 C 0.38359 0.49726 0.65624 0.0
C194 C 0.50314 0.51773 0.63517 0.0
C195 C 0.54227 0.54822 0.6629 0.0
C196 C 0.50158 0.55417 0.6872 0.0
C197 C 0.42269 0.52823 0.6836 0.0
C198 C 0.54478 0.51162 0.60873 0.0
C199 C 0.54151 0.58752 0.71701 0.0
H200 H 0.80765 0.51137 0.68318 0.0
H201 H 0.73779 0.75763 0.66447 0.0
H202 H 0.63325 0.42611 0.69656 0.0
H203 H 0.62538 0.40222 0.65811 0.0
H204 H 0.71717 0.39485 0.68078 0.0
H205 H 0.60917 0.78196 0.64648 0.0
H206 H 0.53808 0.69539 0.63684 0.0
H207 H 0.5552 0.74155 0.67354 0.0
H208 H 0.3938 0.46993 0.61088 0.0
H209 H 0.39215 0.53007 0.70242 0.0
H210 H 0.59501 0.47218 0.6128 0.0
H211 H 0.56787 0.57492 0.60449 0.0
H212 H 0.50632 0.48438 0.58888 0.0
H213 H 0.59131 0.54962 0.72392 0.0
H214 H 0.5018 0.58657 0.73377 0.0
H215 H 0.56493 0.65305 0.71617 0.0
C216 C 0.75777 1.014 0.67757 0.0
C217 C 0.80319 0.07031 0.66277 0.0
C218 C 0.67337 1.01603 0.67848 0.0
C219 C 0.62316 0.07277 0.66271 0.0
C220 C 0.66883 0.12837 0.64704 0.0
C221 C 0.75401 0.12798 0.64798 0.0
C222 C 0.63954 0.95631 0.69778 0.0
C223 C 0.62844 0.18984 0.62801 0.0
C224 C 0.38703 1.00379 0.65294 0.0
C225 C 0.34693 0.07444 0.66242 0.0
C226 C 0.47155 1.00304 0.65223 0.0
C227 C 0.52706 0.07367 0.66254 0.0
C228 C 0.48662 0.14503 0.67266 0.0
C229 C 0.40145 0.1449 0.67186 0.0
C230 C 0.49973 0.92344 0.63948 0.0
C231 C 0.53266 0.22458 0.68529 0.0
H232 H 0.78908 0.96791 0.6897 0.0
H233 H 0.78214 0.17328 0.63589 0.0
H234 H 0.58213 0.97367 0.70312 0.0
H235 H 0.63362 0.89219 0.68677 0.0
H236 H 0.67947 0.95397 0.71848 0.0
H237 H 0.65462 0.19352 0.6076 0.0
H238 H 0.5654 0.1732 0.62213 0.0
H239 H 0.6369 0.25323 0.63963 0.0
H240 H 0.35146 0.94705 0.64511 0.0
H241 H 0.37753 0.20202 0.67955 0.0
H242 H 0.50006 0.87594 0.65579 0.0
H243 H 0.55858 0.93215 0.63322 0.0
H244 H 0.45913 0.89791 0.61994 0.0
H245 H 0.50814 0.25163 0.70444 0.0
H246 H 0.52797 0.27171 0.66876 0.0
H247 H 0.59478 0.21476 0.69214 0.0
C248 C 0.69777 0.73625 0.95516 0.0
C249 C 0.75947 0.75716 0.94004 0.0
C250 C 0.66296 0.6547 0.95224 0.0
C251 C 0.69126 0.59244 0.93404 0.0
C252 C 0.74916 0.61455 0.91692 0.0
C253 C 0.78227 0.69704 0.91997 0.0
C254 C 0.60007 0.63378 0.97046 0.0
C255 C 0.78036 0.55001 0.89711 0.0
C256 C 0.67125 0.38183 0.96481 0.0
C257 C 0.60063 0.34867 0.94907 0.0
C258 C 0.70494 0.45859 0.95845 0.0
C259 C 0.6666 0.50324 0.93599 0.0
C260 C 0.59901 0.46664 0.91838 0.0
C261 C 0.56691 0.38938 0.92508 0.0
C262 C 0.77807 0.49509 0.97739 0.0
C263 C 0.5571 0.51192 0.89403 0.0
H264 H 0.68002 0.78188 0.97085 0.0
H265 H 0.82873 0.71336 0.90768 0.0
H266 H 0.55024 0.59778 0.95689 0.0
H267 H 0.623 0.59379 -0.01213 0.0
H268 H 0.57871 0.69091 0.98087 0.0
H269 H 0.81364 0.57975 0.88133 0.0
H270 H 0.81962 0.51072 0.91048 0.0
H271 H 0.73273 0.50764 0.88486 0.0
H272 H 0.69753 0.35091 -0.01658 0.0
H273 H 0.51318 0.36287 0.91242 0.0
H274 H 0.76403 0.54897 -0.00834 0.0
H275 H 0.82071 0.51898 0.96377 0.0
H276 H 0.80564 0.44833 -0.00857 0.0
H277 H 0.52529 0.56286 0.90348 0.0
H278 H 0.51461 0.46912 0.87918 0.0
H279 H 0.5987 0.54138 0.8811 0.0
C280 C 1.08356 0.35183 0.34089 0.0
C281 C 0.14557 0.30759 0.33248 0.0
C282 C 1.08388 0.44078 0.34137 0.0
C283 C 0.14679 0.48823 0.33249 0.0
C284 C 0.209 0.44365 0.32357 0.0
C285 C 0.20809 0.35493 0.32403 0.0
C286 C 1.01687 0.48414 0.35174 0.0
C287 C 0.27651 0.48964 0.31309 0.0
C288 C 1.11149 0.71223 0.30864 0.0
C289 C 0.14998 0.76462 0.33245 0.0
C290 C 1.11093 0.62328 0.30819 0.0
C291 C 0.14758 0.5839 0.33253 0.0
C292 C 0.18531 0.63655 0.35685 0.0
C293 C 0.18713 0.72538 0.35633 0.0
C294 C 1.07174 0.57131 0.28134 0.0
C295 C 0.22315 0.59894 0.38375 0.0
H296 H 1.03488 0.31689 0.34758 0.0
H297 H 0.25629 0.32238 0.31724 0.0
H298 H 1.03872 0.53184 0.3699 0.0
H299 H 0.98638 0.51767 0.33386 0.0
H300 H 0.97429 0.43946 0.3593 0.0
H301 H 0.31941 0.44636 0.30616 0.0
H302 H 0.25512 0.52606 0.29444 0.0
H303 H 0.30646 0.53512 0.33066 0.0
H304 H 1.08286 0.74092 0.28993 0.0
H305 H 0.21654 0.76432 0.37501 0.0
H306 H 1.02274 0.53128 0.28688 0.0
H307 H 1.11325 0.52877 0.273 0.0
H308 H 1.04915 0.61072 0.26367 0.0
H309 H 0.2472 0.6476 0.40134 0.0
H310 H 0.27082 0.56036 0.37823 0.0
H311 H 0.18027 0.55663 0.39217 0.0
C312 C 0.18082 0.12791 0.23138 0.0
C313 C 0.20068 0.05583 0.24558 0.0
C314 C 0.18764 0.13367 0.20177 0.0
C315 C 0.21221 0.06439 0.18553 0.0
C316 C 0.23356 0.9918 0.1999 0.0
C317 C 0.22877 0.98896 0.2299 0.0
C318 C 0.16667 0.21331 0.18771 0.0
C319 C 0.25784 0.91561 0.18331 0.0
C320 C 0.13873 0.05001 0.10398 0.0
C321 C 0.2054 0.07481 0.09217 0.0
C322 C 0.14089 1.044 0.13416 0.0
C323 C 0.21079 0.0663 0.15324 0.0
C324 C 0.27813 0.09261 0.14143 0.0
C325 C 0.27499 0.09497 0.11099 0.0
C326 C 1.06828 1.01331 0.14562 0.0
C327 C 0.35303 0.11992 0.16097 0.0
H328 H 0.15942 0.17996 0.24349 0.0
H329 H 0.24332 0.93281 0.24074 0.0
H330 H 0.21336 0.23527 0.17549 0.0
H331 H 1.11296 0.20095 0.17185 0.0
H332 H 0.15695 0.26446 0.20396 0.0
H333 H 0.27544 0.86543 0.1978 0.0
H334 H 0.20895 0.8899 0.16666 0.0
H335 H 0.30687 0.93313 0.17158 0.0
H336 H 1.08506 1.03338 0.08948 0.0
H337 H 0.32658 0.11457 0.10195 0.0
H338 H 1.04849 0.06385 0.15985 0.0
H339 H 1.08066 0.95963 0.1591 0.0
H340 H 1.02021 0.99318 0.12782 0.0
H341 H 0.34347 0.17328 0.17635 0.0
H342 H 0.39997 0.13951 0.14845 0.0
H343 H 0.37278 0.06807 0.17426 0.0
C344 C 0.15189 1.0032 0.4385 0.0
C345 C 1.09149 1.02027 0.41684 0.0
C346 C 0.14212 1.00606 0.46805 0.0
C347 C 1.07036 1.02779 0.47649 0.0
C348 C 1.00831 1.04311 0.45469 0.0
C349 C 1.0194 1.03847 0.42507 0.0
C350 C 0.2095 0.98769 0.49034 0.0
C351 C 0.93112 0.0672 0.46275 0.0
C352 C 1.03781 0.97592 0.55316 0.0
C353 C 1.06272 0.05185 0.56962 0.0
C354 C 1.03754 0.96785 0.52274 0.0
C355 C 1.0622 1.03749 0.50825 0.0
C356 C 1.08516 0.11497 0.52462 0.0
C357 C 1.08549 0.12109 0.55503 0.0
C358 C 1.01331 0.88391 0.50626 0.0
C359 C 1.11139 0.19105 0.51012 0.0
H360 H 0.2076 0.98814 0.43235 0.0
H361 H 0.9726 0.05219 0.40852 0.0
H362 H 0.22845 1.04479 0.50504 0.0
H363 H 0.19146 0.93807 0.50404 0.0
H364 H 0.25992 0.96697 0.48009 0.0
H365 H 0.88743 0.07244 0.44327 0.0
H366 H 0.90827 1.02023 0.47646 0.0
H367 H 0.93874 0.12844 0.47587 0.0
H368 H 1.01997 0.92197 0.56411 0.0
H369 H 1.10433 0.18025 0.5674 0.0
H370 H 1.06374 0.85824 0.49731 0.0
H371 H 0.96801 0.89127 0.48752 0.0
H372 H 0.99061 0.83758 0.52028 0.0
H373 H 0.16602 0.17916 0.50123 0.0
H374 H 1.12163 0.24823 0.52544 0.0
H375 H 1.06735 0.20332 0.49152 0.0
C376 C 1.03979 0.07277 0.77032 0.0
C377 C 1.10236 0.08369 0.75469 0.0
C378 C 1.05173 0.07333 0.80096 0.0
C379 C 0.12837 0.08078 0.81623 0.0
C380 C 0.19179 0.09038 0.80034 0.0
C381 C 0.17788 0.09364 0.76985 0.0
C382 C 0.98227 0.06659 0.817 0.0
C383 C 0.27446 0.09499 0.81545 0.0
C384 C 0.16716 0.1486 0.8977 0.0
C385 C 0.1678 0.07122 0.91015 0.0
C386 C 0.15271 0.15271 0.86725 0.0
C387 C 0.14222 0.07753 0.84872 0.0
C388 C 0.14493 0.99917 0.86132 0.0
C389 C 0.15578 0.99699 0.89188 0.0
C390 C 0.14706 0.23748 0.85494 0.0
C391 C 0.13734 0.91758 0.84253 0.0
H392 H 0.98135 0.06536 0.75856 0.0
H393 H 0.22632 0.10109 0.75769 0.0
H394 H 0.98189 1.00744 0.82813 0.0
H395 H 0.98569 0.1192 0.83408 0.0
H396 H 0.92665 0.06764 0.80218 0.0
H397 H 0.31724 0.09915 0.79987 0.0
H398 H 0.28523 0.15048 0.83144 0.0
H399 H 0.28454 1.03857 0.82777 0.0
H400 H 0.17559 0.20606 0.91186 0.0
H401 H 0.15667 0.93713 0.90153 0.0
H402 H 1.09047 0.23981 0.84087 0.0
H403 H 0.19312 0.24782 0.84108 0.0
H404 H 0.1527 0.28966 0.87229 0.0
H405 H 1.07913 0.9095 0.82928 0.0
H406 H 0.14577 0.86239 0.85565 0.0
H407 H 0.18072 0.91862 0.82714 0.0
loop_
_geom_bond_atom_site_label_1
_geom_bond_atom_site_label_2
_geom_bond_distance
_geom_bond_site_symmetry_2
_ccdc_geom_bond_type
Dy0 O3 2.307 1_565 S
Dy0 O5 2.395 1_556 S
Dy0 O6 2.379 . S
Dy0 O8 2.339 . S
Dy0 O10 2.298 . S
Dy0 O14 2.275 1_666 S
Dy0 C22 2.738 . S
Dy1 O4 2.298 . S
Dy1 O7 2.275 1_554 S
Dy1 O9 2.307 1_545 S
Dy1 O11 2.395 1_554 S
Dy1 O12 2.379 . S
Dy1 O15 2.339 . S
Dy1 C31 2.738 . S
C2 O14 1.254 . S
C2 O15 1.257 . S
O3 Dy0 2.307 1_545 S
O3 C13 1.266 1_656 S
O4 Dy1 2.298 . S
O4 C13 1.236 . S
O5 Dy0 2.395 1_554 S
O5 C22 1.255 1_554 S
O6 Dy0 2.379 . S
O6 C22 1.249 . S
O7 Dy1 2.275 1_556 S
O7 C23 1.254 . S
O8 Dy0 2.339 . S
O8 C23 1.257 1_665 S
O9 Dy1 2.307 1_565 S
O9 C24 1.266 . S
O10 Dy0 2.298 . S
O10 C24 1.236 1_656 S
O11 Dy1 2.395 1_556 S
O11 C31 1.255 1_556 S
O12 Dy1 2.379 . S
O12 C31 1.249 . S
C13 O3 1.266 1_454 S
C13 O4 1.236 . S
O14 Dy0 2.275 1_444 S
O14 C2 1.254 . S
O15 Dy1 2.339 . S
O15 C2 1.257 . S
C16 C19 1.344 1_556 S
C16 C20 1.328 . S
C16 C22 1.516 . S
C17 C18 1.304 . S
C17 C21 1.323 1_554 S
C18 C17 1.304 . S
C18 C19 1.371 . S
C18 H32 0.930 . S
C19 C16 1.344 1_554 S
C19 C18 1.371 . S
C19 H33 0.931 . S
C20 C16 1.328 . S
C20 C21 1.433 . S
C20 H34 0.931 . S
C21 C17 1.323 1_556 S
C21 C20 1.433 . S
C21 H35 0.933 . S
C22 Dy0 2.738 . S
C22 O5 1.255 1_556 S
C22 O6 1.249 . S
C22 C16 1.516 . S
C23 O7 1.254 . S
C23 O8 1.257 1_445 S
C24 O9 1.266 . S
C24 O10 1.236 1_454 S
C25 C28 1.344 1_554 S
C25 C29 1.328 . S
C25 C31 1.516 . S
C26 C27 1.304 1_554 S
C26 C30 1.323 . S
C27 C26 1.304 1_556 S
C27 C28 1.371 . S
C27 H36 0.930 . S
C28 C25 1.344 1_556 S
C28 C27 1.371 . S
C28 H37 0.931 . S
C29 C25 1.328 . S
C29 C30 1.433 . S
C29 H38 0.931 . S
C30 C26 1.323 . S
C30 C29 1.433 . S
C30 H39 0.933 . S
C31 Dy1 2.738 . S
C31 O11 1.255 1_554 S
C31 O12 1.249 . S
C31 C25 1.516 . S
H32 C18 0.930 . S
H33 C19 0.931 . S
H34 C20 0.931 . S
H35 C21 0.933 . S
H36 C27 0.930 . S
H37 C28 0.931 . S
H38 C29 0.931 . S
H39 C30 0.933 . S
Dy40 O43 2.307 . S
Dy40 O45 2.395 . S
Dy40 O46 2.379 . S
Dy40 O48 2.339 . S
Dy40 O50 2.298 1_545 S
Dy40 O54 2.275 . S
Dy40 C62 2.738 . S
Dy41 O44 2.298 1_565 S
Dy41 O47 2.275 1_565 S
Dy41 O49 2.307 . S
Dy41 O51 2.395 1_565 S
Dy41 O52 2.379 1_565 S
Dy41 O55 2.339 . S
Dy41 C71 2.738 1_565 S
C42 O54 1.254 1_655 S
C42 O55 1.257 1_545 S
O43 Dy40 2.307 . S
O43 C53 1.266 1_455 S
O44 Dy41 2.298 1_545 S
O44 C53 1.236 . S
O45 Dy40 2.395 . S
O45 C62 1.255 . S
O46 Dy40 2.379 . S
O46 C62 1.249 . S
O47 Dy41 2.275 1_545 S
O47 C63 1.254 1_655 S
O48 Dy40 2.339 . S
O48 C63 1.257 . S
O49 Dy41 2.307 . S
O49 C64 1.266 1_655 S
O50 Dy40 2.298 1_565 S
O50 C64 1.236 . S
O51 Dy41 2.395 1_545 S
O51 C71 1.255 . S
O52 Dy41 2.379 1_545 S
O52 C71 1.249 . S
C53 O43 1.266 1_655 S
C53 O44 1.236 . S
O54 Dy40 2.275 . S
O54 C42 1.254 1_455 S
O55 Dy41 2.339 . S
O55 C42 1.257 1_565 S
C56 C59 1.344 . S
C56 C60 1.328 1_565 S
C56 C62 1.516 1_565 S
C57 C58 1.304 . S
C57 C61 1.323 . S
C58 C57 1.304 . S
C58 C59 1.371 . S
C58 H72 0.930 . S
C59 C56 1.344 . S
C59 C58 1.371 . S
C59 H73 0.931 . S
C60 C56 1.328 1_545 S
C60 C61 1.433 1_545 S
C60 H74 0.931 . S
C61 C57 1.323 . S
C61 C60 1.433 1_565 S
C61 H75 0.933 . S
C62 Dy40 2.738 . S
C62 O45 1.255 . S
C62 O46 1.249 . S
C62 C56 1.516 1_545 S
C63 O47 1.254 1_455 S
C63 O48 1.257 . S
C64 O49 1.266 1_455 S
C64 O50 1.236 . S
C65 C68 1.344 . S
C65 C69 1.328 . S
C65 C71 1.516 . S
C66 C67 1.304 . S
C66 C70 1.323 . S
C67 C66 1.304 . S
C67 C68 1.371 . S
C67 H76 0.930 . S
C68 C65 1.344 . S
C68 C67 1.371 . S
C68 H77 0.931 . S
C69 C65 1.328 . S
C69 C70 1.433 . S
C69 H78 0.931 . S
C70 C66 1.323 . S
C70 C69 1.433 . S
C70 H79 0.933 . S
C71 Dy41 2.738 1_545 S
C71 O51 1.255 . S
C71 O52 1.249 . S
C71 C65 1.516 . S
H72 C58 0.930 . S
H73 C59 0.931 . S
H74 C60 0.931 . S
H75 C61 0.933 . S
H76 C67 0.930 . S
H77 C68 0.931 . S
H78 C69 0.931 . S
H79 C70 0.933 . S
Dy80 O83 2.307 1_455 S
Dy80 O85 2.395 . S
Dy80 O86 2.379 . S
Dy80 O88 2.339 . S
Dy80 O90 2.298 . S
Dy80 O94 2.275 . S
Dy80 C102 2.738 . S
Dy81 O84 2.298 1_565 S
Dy81 O87 2.275 1_565 S
Dy81 O89 2.307 1_665 S
Dy81 O91 2.395 . S
Dy81 O92 2.379 . S
Dy81 O95 2.339 . S
Dy81 C111 2.738 . S
C82 O94 1.254 1_655 S
C82 O95 1.257 1_545 S
O83 Dy80 2.307 1_655 S
O83 C93 1.266 . S
O84 Dy81 2.298 1_545 S
O84 C93 1.236 . S
O85 Dy80 2.395 . S
O85 C102 1.255 . S
O86 Dy80 2.379 . S
O86 C102 1.249 . S
O87 Dy81 2.275 1_545 S
O87 C103 1.254 1_655 S
O88 Dy80 2.339 . S
O88 C103 1.257 . S
O89 Dy81 2.307 1_445 S
O89 C104 1.276 . S
O90 Dy80 2.298 . S
O90 C104 1.236 . S
O91 Dy81 2.395 . S
O91 C111 1.255 . S
O92 Dy81 2.379 . S
O92 C111 1.249 . S
C93 O83 1.266 . S
C93 O84 1.236 . S
O94 Dy80 2.275 . S
O94 C82 1.254 1_455 S
O95 Dy81 2.339 . S
O95 C82 1.257 1_565 S
C96 C99 1.344 . S
C96 C100 1.328 . S
C96 C102 1.516 . S
C97 C98 1.304 . S
C97 C101 1.323 . S
C98 C97 1.304 . S
C98 C99 1.371 . S
C98 H112 0.930 . S
C99 C96 1.344 . S
C99 C98 1.371 . S
C99 H113 0.931 . S
C100 C96 1.328 . S
C100 C101 1.433 . S
C100 H114 0.931 . S
C101 C97 1.323 . S
C101 C100 1.433 . S
C101 H115 0.933 . S
C102 Dy80 2.738 . S
C102 O85 1.255 . S
C102 O86 1.249 . S
C102 C96 1.516 . S
C103 O87 1.254 1_455 S
C103 O88 1.257 . S
C104 O89 1.276 . S
C104 O90 1.236 . S
C105 C108 1.344 . S
C105 C109 1.328 . S
C105 C111 1.516 . S
C106 C107 1.304 . S
C106 C110 1.323 . S
C107 C106 1.304 . S
C107 C108 1.371 . S
C107 H116 0.930 . S
C108 C105 1.344 . S
C108 C107 1.371 . S
C108 H117 0.931 . S
C109 C105 1.328 . S
C109 C110 1.433 . S
C109 H118 0.931 . S
C110 C106 1.323 . S
C110 C109 1.433 . S
C110 H119 0.933 . S
C111 Dy81 2.738 . S
C111 O91 1.255 . S
C111 O92 1.249 . S
C111 C105 1.516 . S
H112 C98 0.930 . S
H113 C99 0.931 . S
H114 C100 0.931 . S
H115 C101 0.933 . S
H116 C107 0.930 . S
H117 C108 0.931 . S
H118 C109 0.931 . S
H119 C110 0.933 . S
C120 C121 1.364 1_554 S
C120 C122 1.394 . S
C120 H136 0.931 . S
C121 C120 1.364 1_556 S
C121 C125 1.406 . S
C122 C120 1.394 . S
C122 C123 1.353 1_554 S
C122 C126 1.531 . S
C123 C122 1.353 1_556 S
C123 C124 1.425 . S
C123 C131 1.503 1_556 S
C124 C123 1.425 . S
C124 C125 1.392 . S
C124 C127 1.511 1_455 S
C125 C121 1.406 . S
C125 C124 1.392 . S
C125 H137 0.929 1_455 S
C126 C122 1.531 . S
C126 H138 0.960 . S
C126 H139 0.962 . S
C126 H140 0.960 . S
C127 C124 1.511 1_655 S
C127 H141 0.961 . S
C127 H142 0.961 . S
C127 H143 0.961 1_655 S
C128 C129 1.370 1_655 S
C128 C130 1.363 . S
C128 H144 0.931 . S
C129 C128 1.370 1_455 S
C129 C133 1.408 1_554 S
C130 C128 1.363 . S
C130 C131 1.385 1_655 S
C130 C134 1.524 . S
C131 C123 1.503 1_554 S
C131 C130 1.385 1_455 S
C131 C132 1.389 1_554 S
C132 C131 1.389 1_556 S
C132 C133 1.404 . S
C132 C135 1.539 . S
C133 C129 1.408 1_556 S
C133 C132 1.404 . S
C133 H145 0.930 . S
C134 C130 1.524 . S
C134 H146 0.956 . S
C134 H147 0.961 . S
C134 H148 0.961 . S
C135 C132 1.539 . S
C135 H149 0.958 . S
C135 H150 0.961 . S
C135 H151 0.960 . S
H136 C120 0.931 . S
H137 C125 0.929 1_655 S
H138 C126 0.960 . S
H139 C126 0.962 . S
H140 C126 0.960 . S
H141 C127 0.961 . S
H142 C127 0.961 . S
H143 C127 0.961 1_455 S
H144 C128 0.931 . S
H145 C133 0.930 . S
H146 C134 0.956 . S
H147 C134 0.961 . S
H148 C134 0.961 . S
H149 C135 0.958 . S
H150 C135 0.961 . S
H151 C135 0.960 . S
C152 C153 1.391 . S
C152 C154 1.394 . S
C152 H168 0.931 . S
C153 C152 1.391 . S
C153 C157 1.376 . S
C154 C152 1.394 . S
C154 C155 1.384 . S
C154 C158 1.531 . S
C155 C154 1.384 . S
C155 C156 1.401 1_565 S
C155 C163 1.496 1_565 S
C156 C155 1.401 1_545 S
C156 C157 1.392 1_545 S
C156 C159 1.511 . S
C157 C153 1.376 . S
C157 C156 1.392 1_565 S
C157 H169 0.929 . S
C158 C154 1.531 . S
C158 H170 0.960 . S
C158 H171 0.962 . S
C158 H172 0.960 . S
C159 C156 1.511 . S
C159 H173 0.961 . S
C159 H174 0.961 . S
C159 H175 0.961 . S
C160 C161 1.370 . S
C160 C162 1.363 . S
C160 H176 0.931 . S
C161 C160 1.370 . S
C161 C165 1.408 . S
C162 C160 1.363 . S
C162 C163 1.370 . S
C162 C166 1.524 . S
C163 C155 1.496 1_545 S
C163 C162 1.370 . S
C163 C164 1.403 . S
C164 C163 1.403 . S
C164 C165 1.404 . S
C164 C167 1.539 . S
C165 C161 1.408 . S
C165 C164 1.404 . S
C165 H177 0.930 . S
C166 C162 1.524 . S
C166 H178 0.956 1_545 S
C166 H179 0.961 . S
C166 H180 0.961 . S
C167 C164 1.539 . S
C167 H181 0.958 . S
C167 H182 0.961 . S
C167 H183 0.960 . S
H168 C152 0.931 . S
H169 C157 0.929 . S
H170 C158 0.960 . S
H171 C158 0.962 . S
H172 C158 0.960 . S
H173 C159 0.961 . S
H174 C159 0.961 . S
H175 C159 0.961 . S
H176 C160 0.931 . S
H177 C165 0.930 . S
H178 C166 0.956 1_565 S
H179 C166 0.961 . S
H180 C166 0.961 . S
H181 C167 0.958 . S
H182 C167 0.961 . S
H183 C167 0.960 . S
C184 C185 1.391 . S
C184 C186 1.394 . S
C184 H200 0.931 . S
C185 C184 1.391 . S
C185 C189 1.376 . S
C186 C184 1.394 . S
C186 C187 1.369 . S
C186 C190 1.531 . S
C187 C186 1.369 . S
C187 C188 1.410 . S
C187 C195 1.503 . S
C188 C187 1.410 . S
C188 C189 1.392 . S
C188 C191 1.511 . S
C189 C185 1.376 . S
C189 C188 1.392 . S
C189 H201 0.929 . S
C190 C186 1.531 . S
C190 H202 0.960 . S
C190 H203 0.962 . S
C190 H204 0.960 . S
C191 C188 1.511 . S
C191 H205 0.961 . S
C191 H206 0.961 . S
C191 H207 0.961 . S
C192 C193 1.370 . S
C192 C194 1.363 . S
C192 H208 0.931 . S
C193 C192 1.370 . S
C193 C197 1.408 . S
C194 C192 1.363 . S
C194 C195 1.370 . S
C194 C198 1.524 . S
C195 C187 1.503 . S
C195 C194 1.370 . S
C195 C196 1.403 . S
C196 C195 1.403 . S
C196 C197 1.404 . S
C196 C199 1.539 . S
C197 C193 1.408 . S
C197 C196 1.404 . S
C197 H209 0.930 . S
C198 C194 1.524 . S
C198 H210 0.956 . S
C198 H211 0.961 . S
C198 H212 0.961 . S
C199 C196 1.539 . S
C199 H213 0.958 . S
C199 H214 0.961 . S
C199 H215 0.960 . S
H200 C184 0.931 . S
H201 C189 0.929 . S
H202 C190 0.960 . S
H203 C190 0.962 . S
H204 C190 0.960 . S
H205 C191 0.961 . S
H206 C191 0.961 . S
H207 C191 0.961 . S
H208 C192 0.931 . S
H209 C197 0.930 . S
H210 C198 0.956 . S
H211 C198 0.961 . S
H212 C198 0.961 . S
H213 C199 0.958 . S
H214 C199 0.961 . S
H215 C199 0.960 . S
C216 C217 1.391 . S
C216 C218 1.394 . S
C216 H232 0.931 1_545 S
C217 C216 1.391 . S
C217 C221 1.376 . S
C218 C216 1.394 . S
C218 C219 1.369 . S
C218 C222 1.531 1_545 S
C219 C218 1.369 . S
C219 C220 1.410 . S
C219 C227 1.503 . S
C220 C219 1.410 . S
C220 C221 1.392 . S
C220 C223 1.511 . S
C221 C217 1.376 . S
C221 C220 1.392 . S
C221 H233 0.929 . S
C222 C218 1.531 1_565 S
C222 H234 0.960 . S
C222 H235 0.962 . S
C222 H236 0.960 . S
C223 C220 1.511 . S
C223 H237 0.961 . S
C223 H238 0.961 . S
C223 H239 0.961 . S
C224 C225 1.370 . S
C224 C226 1.363 . S
C224 H240 0.931 . S
C225 C224 1.370 . S
C225 C229 1.408 . S
C226 C224 1.363 . S
C226 C227 1.370 . S
C226 C230 1.524 . S
C227 C219 1.503 . S
C227 C226 1.370 . S
C227 C228 1.403 . S
C228 C227 1.403 . S
C228 C229 1.404 . S
C228 C231 1.539 . S
C229 C225 1.408 . S
C229 C228 1.404 . S
C229 H241 0.930 . S
C230 C226 1.524 . S
C230 H242 0.956 1_545 S
C230 H243 0.961 . S
C230 H244 0.961 . S
C231 C228 1.539 . S
C231 H245 0.958 . S
C231 H246 0.961 . S
C231 H247 0.960 . S
H232 C216 0.931 1_565 S
H233 C221 0.929 . S
H234 C222 0.960 . S
H235 C222 0.962 . S
H236 C222 0.960 . S
H237 C223 0.961 . S
H238 C223 0.961 . S
H239 C223 0.961 . S
H240 C224 0.931 . S
H241 C229 0.930 . S
H242 C230 0.956 1_565 S
H243 C230 0.961 . S
H244 C230 0.961 . S
H245 C231 0.958 . S
H246 C231 0.961 . S
H247 C231 0.960 . S
C248 C249 1.391 . S
C248 C250 1.394 . S
C248 H264 0.931 . S
C249 C248 1.391 . S
C249 C253 1.376 1_556 S
C250 C248 1.394 . S
C250 C251 1.369 . S
C250 C254 1.531 . S
C251 C250 1.369 . S
C251 C252 1.410 1_556 S
C251 C259 1.513 . S
C252 C251 1.410 1_554 S
C252 C253 1.392 . S
C252 C255 1.511 . S
C253 C249 1.376 1_554 S
C253 C252 1.392 . S
C253 H265 0.929 . S
C254 C250 1.531 . S
C254 H266 0.960 . S
C254 H267 0.962 . S
C254 H268 0.960 . S
C255 C252 1.511 . S
C255 H269 0.961 . S
C255 H270 0.961 . S
C255 H271 0.961 . S
C256 C257 1.370 . S
C256 C258 1.363 . S
C256 H272 0.931 . S
C257 C256 1.370 . S
C257 C261 1.408 1_554 S
C258 C256 1.363 . S
C258 C259 1.342 1_554 S
C258 C262 1.524 . S
C259 C251 1.513 . S
C259 C258 1.342 1_556 S
C259 C260 1.423 . S
C260 C259 1.423 . S
C260 C261 1.404 . S
C260 C263 1.539 . S
C261 C257 1.408 1_556 S
C261 C260 1.404 . S
C261 H273 0.930 . S
C262 C258 1.524 . S
C262 H274 0.956 . S
C262 H275 0.961 . S
C262 H276 0.961 . S
C263 C260 1.539 . S
C263 H277 0.958 . S
C263 H278 0.961 . S
C263 H279 0.960 . S
H264 C248 0.931 . S
H265 C253 0.929 . S
H266 C254 0.960 . S
H267 C254 0.962 . S
H268 C254 0.960 . S
H269 C255 0.961 . S
H270 C255 0.961 . S
H271 C255 0.961 . S
H272 C256 0.931 . S
H273 C261 0.930 . S
H274 C262 0.956 . S
H275 C262 0.961 . S
H276 C262 0.961 . S
H277 C263 0.958 . S
H278 C263 0.961 . S
H279 C263 0.960 . S
C280 C281 1.391 . S
C280 C282 1.394 . S
C280 H296 0.931 . S
C281 C280 1.391 . S
C281 C285 1.376 1_655 S
C282 C280 1.394 . S
C282 C283 1.369 1_655 S
C282 C286 1.531 . S
C283 C282 1.369 1_455 S
C283 C284 1.410 . S
C283 C291 1.503 . S
C284 C283 1.410 . S
C284 C285 1.392 . S
C284 C287 1.511 . S
C285 C281 1.376 1_455 S
C285 C284 1.392 . S
C285 H297 0.929 . S
C286 C282 1.531 . S
C286 H298 0.960 . S
C286 H299 0.962 . S
C286 H300 0.960 . S
C287 C284 1.511 . S
C287 H301 0.961 . S
C287 H302 0.961 . S
C287 H303 0.961 . S
C288 C289 1.370 1_655 S
C288 C290 1.363 . S
C288 H304 0.930 . S
C289 C288 1.370 1_455 S
C289 C293 1.408 . S
C290 C288 1.363 . S
C290 C291 1.370 1_655 S
C290 C294 1.524 . S
C291 C283 1.503 . S
C291 C290 1.370 1_455 S
C291 C292 1.403 . S
C292 C291 1.403 . S
C292 C293 1.404 . S
C292 C295 1.539 . S
C293 C289 1.408 . S
C293 C292 1.404 . S
C293 H305 0.930 . S
C294 C290 1.524 . S
C294 H306 0.956 . S
C294 H307 0.961 1_655 S
C294 H308 0.961 . S
C295 C292 1.539 . S
C295 H309 0.958 . S
C295 H310 0.961 . S
C295 H311 0.960 . S
H296 C280 0.931 . S
H297 C285 0.929 . S
H298 C286 0.960 . S
H299 C286 0.962 . S
H300 C286 0.960 . S
H301 C287 0.961 . S
H302 C287 0.961 . S
H303 C287 0.961 . S
H304 C288 0.930 . S
H305 C293 0.930 . S
H306 C294 0.956 . S
H307 C294 0.961 1_455 S
H308 C294 0.961 . S
H309 C295 0.958 . S
H310 C295 0.961 . S
H311 C295 0.960 . S
C312 C313 1.391 1_655 S
C312 C314 1.394 1_655 S
C312 H328 0.931 . S
C313 C312 1.391 1_455 S
C313 C317 1.376 1_545 S
C314 C312 1.394 1_455 S
C314 C315 1.369 . S
C314 C318 1.531 1_455 S
C315 C314 1.369 . S
C315 C316 1.410 1_545 S
C315 C323 1.503 . S
C316 C315 1.410 1_565 S
C316 C317 1.392 . S
C316 C319 1.511 . S
C317 C313 1.376 1_565 S
C317 C316 1.392 . S
C317 H329 0.929 . S
C318 C314 1.531 1_655 S
C318 H330 0.960 1_655 S
C318 H331 0.962 . S
C318 H332 0.960 . S
C319 C316 1.511 . S
C319 H333 0.961 . S
C319 H334 0.961 . S
C319 H335 0.961 . S
C320 C321 1.370 1_665 S
C320 C322 1.363 . S
C320 H336 0.931 . S
C321 C320 1.370 1_445 S
C321 C325 1.408 . S
C322 C320 1.363 . S
C322 C323 1.370 1_665 S
C322 C326 1.524 . S
C323 C315 1.503 . S
C323 C322 1.370 1_445 S
C323 C324 1.403 . S
C324 C323 1.403 . S
C324 C325 1.404 . S
C324 C327 1.539 . S
C325 C321 1.408 . S
C325 C324 1.404 . S
C325 H337 0.930 . S
C326 C322 1.524 . S
C326 H338 0.956 . S
C326 H339 0.961 . S
C326 H340 0.961 . S
C327 C324 1.539 . S
C327 H341 0.958 . S
C327 H342 0.961 . S
C327 H343 0.960 . S
H328 C312 0.931 . S
H329 C317 0.929 . S
H330 C318 0.960 1_455 S
H331 C318 0.962 . S
H332 C318 0.960 . S
H333 C319 0.961 . S
H334 C319 0.961 . S
H335 C319 0.961 . S
H336 C320 0.931 . S
H337 C325 0.930 . S
H338 C326 0.956 . S
H339 C326 0.961 . S
H340 C326 0.961 . S
H341 C327 0.958 . S
H342 C327 0.961 . S
H343 C327 0.960 . S
C344 C345 1.391 . S
C344 C346 1.394 . S
C344 H360 0.931 . S
C345 C344 1.391 . S
C345 C349 1.376 1_455 S
C346 C344 1.394 . S
C346 C347 1.369 . S
C346 C350 1.531 . S
C347 C346 1.369 . S
C347 C348 1.410 1_455 S
C347 C355 1.503 . S
C348 C347 1.410 1_655 S
C348 C349 1.392 . S
C348 C351 1.511 . S
C349 C345 1.376 1_655 S
C349 C348 1.392 . S
C349 H361 0.929 . S
C350 C346 1.531 . S
C350 H362 0.960 . S
C350 H363 0.962 . S
C350 H364 0.960 . S
C351 C348 1.511 . S
C351 H365 0.961 1_545 S
C351 H366 0.961 . S
C351 H367 0.961 . S
C352 C353 1.370 . S
C352 C354 1.363 . S
C352 H368 0.931 1_545 S
C353 C352 1.370 . S
C353 C357 1.408 1_455 S
C354 C352 1.363 . S
C354 C355 1.370 . S
C354 C358 1.524 1_545 S
C355 C347 1.503 . S
C355 C354 1.370 . S
C355 C356 1.403 1_455 S
C356 C355 1.403 1_655 S
C356 C357 1.404 . S
C356 C359 1.539 . S
C357 C353 1.408 1_655 S
C357 C356 1.404 . S
C357 H369 0.930 . S
C358 C354 1.524 1_565 S
C358 H370 0.956 . S
C358 H371 0.961 1_455 S
C358 H372 0.961 . S
C359 C356 1.539 . S
C359 H373 0.958 1_655 S
C359 H374 0.961 . S
C359 H375 0.960 . S
H360 C344 0.931 . S
H361 C349 0.929 . S
H362 C350 0.960 . S
H363 C350 0.962 . S
H364 C350 0.960 . S
H365 C351 0.961 1_565 S
H366 C351 0.961 . S
H367 C351 0.961 . S
H368 C352 0.931 1_565 S
H369 C357 0.930 . S
H370 C358 0.956 . S
H371 C358 0.961 1_655 S
H372 C358 0.961 . S
H373 C359 0.958 1_455 S
H374 C359 0.961 . S
H375 C359 0.960 . S
C376 C377 1.391 1_655 S
C376 C378 1.394 . S
C376 H392 0.931 . S
C377 C376 1.391 1_455 S
C377 C381 1.376 . S
C378 C376 1.394 . S
C378 C379 1.369 1_655 S
C378 C382 1.531 1_545 S
C379 C378 1.369 1_455 S
C379 C380 1.410 . S
C379 C387 1.503 . S
C380 C379 1.410 . S
C380 C381 1.392 . S
C380 C383 1.511 . S
C381 C377 1.376 . S
C381 C380 1.392 . S
C381 H393 0.929 . S
C382 C378 1.531 1_565 S
C382 H394 0.960 . S
C382 H395 0.962 1_565 S
C382 H396 0.960 . S
C383 C380 1.511 . S
C383 H397 0.961 . S
C383 H398 0.961 . S
C383 H399 0.961 . S
C384 C385 1.370 . S
C384 C386 1.363 . S
C384 H400 0.931 . S
C385 C384 1.370 . S
C385 C389 1.408 1_545 S
C386 C384 1.363 . S
C386 C387 1.370 . S
C386 C390 1.524 . S
C387 C379 1.503 . S
C387 C386 1.370 . S
C387 C388 1.403 1_545 S
C388 C387 1.403 1_565 S
C388 C389 1.404 . S
C388 C391 1.539 . S
C389 C385 1.408 1_565 S
C389 C388 1.404 . S
C389 H401 0.930 . S
C390 C386 1.524 . S
C390 H402 0.956 1_455 S
C390 H403 0.961 . S
C390 H404 0.961 . S
C391 C388 1.539 . S
C391 H405 0.958 1_455 S
C391 H406 0.961 . S
C391 H407 0.960 . S
H392 C376 0.931 . S
H393 C381 0.929 . S
H394 C382 0.960 . S
H395 C382 0.962 1_545 S
H396 C382 0.960 . S
H397 C383 0.961 . S
H398 C383 0.961 . S
H399 C383 0.961 . S
H400 C384 0.931 . S
H401 C389 0.930 . S
H402 C390 0.956 1_655 S
H403 C390 0.961 . S
H404 C390 0.961 . S
H405 C391 0.958 1_655 S
H406 C391 0.961 . S
H407 C391 0.960 . S
C121 C13 2.850 1_556 S
C129 C24 2.855 . S
C153 C57 1.014 . S
C161 C66 1.049 . S
C185 C106 0.762 . S
C193 C97 0.778 . S
C217 C93 4.818 . S
C225 C104 4.821 . S
C249 C17 0.451 1_556 S
C257 C26 0.445 . S
C281 C53 2.895 . S
C289 C64 2.896 . S
C313 C42 1.509 1_455 S
C321 C2 1.485 . S
C345 C63 1.487 . S
C353 C82 1.477 1_455 S
C377 C103 1.507 . S
C385 C23 1.489 . S
