# Generated by pormake.
# Topology mmt, (4)-cn, num edge types: 1
# Building blocks:
#     Node 0, Type 0, BuildingBlock: NAHDIM_clean_sbu_0, # of connection points: 4
#     Node 1, Type 0, BuildingBlock: NAHDIM_clean_sbu_0, # of connection points: 4
#     Node 2, Type 0, BuildingBlock: NAHDIM_clean_sbu_0, # of connection points: 4
#     Node 3, Type 0, BuildingBlock: NAHDIM_clean_sbu_0, # of connection points: 4
#     Node 4, Type 0, BuildingBlock: NAHDIM_clean_sbu_0, # of connection points: 4
#     Node 5, Type 0, BuildingBlock: NAHDIM_clean_sbu_0, # of connection points: 4
#     Node 6, Type 0, BuildingBlock: NAHDIM_clean_sbu_0, # of connection points: 4
#     Node 7, Type 0, BuildingBlock: NAHDIM_clean_sbu_0, # of connection points: 4
#     Edge 8, Type (0, 0), BuildingBlock: TEMPAE_clean_linker_10, # of connection points: 2
#     Edge 9, Type (0, 0), BuildingBlock: TEMPAE_clean_linker_10, # of connection points: 2
#     Edge 10, Type (0, 0), BuildingBlock: TEMPAE_clean_linker_10, # of connection points: 2
#     Edge 11, Type (0, 0), BuildingBlock: TEMPAE_clean_linker_10, # of connection points: 2
#     Edge 12, Type (0, 0), BuildingBlock: TEMPAE_clean_linker_10, # of connection points: 2
#     Edge 13, Type (0, 0), BuildingBlock: TEMPAE_clean_linker_10, # of connection points: 2
#     Edge 14, Type (0, 0), BuildingBlock: TEMPAE_clean_linker_10, # of connection points: 2
#     Edge 15, Type (0, 0), BuildingBlock: TEMPAE_clean_linker_10, # of connection points: 2
#     Edge 16, Type (0, 0), BuildingBlock: TEMPAE_clean_linker_10, # of connection points: 2
#     Edge 17, Type (0, 0), BuildingBlock: TEMPAE_clean_linker_10, # of connection points: 2
#     Edge 18, Type (0, 0), BuildingBlock: TEMPAE_clean_linker_10, # of connection points: 2
#     Edge 19, Type (0, 0), BuildingBlock: TEMPAE_clean_linker_10, # of connection points: 2
#     Edge 20, Type (0, 0), BuildingBlock: TEMPAE_clean_linker_10, # of connection points: 2
#     Edge 21, Type (0, 0), BuildingBlock: TEMPAE_clean_linker_10, # of connection points: 2
#     Edge 22, Type (0, 0), BuildingBlock: TEMPAE_clean_linker_10, # of connection points: 2
#     Edge 23, Type (0, 0), BuildingBlock: TEMPAE_clean_linker_10, # of connection points: 2
# Relax obj value: 0.079
# Max RMSD: 0.130
# Mean RMSD: 0.130
data_MOF--net-mmt--node1-NAHDIM_clean_sbu_0--edge1-TEMPAE_clean_linker_10
_symmetry_space_group_name_H-M    P1
_symmetry_Int_Tables_number       1
_symmetry_cell_setting            triclinic
loop_
_symmetry_equiv_pos_as_xyz
'x, y, z'
_cell_length_a     22.231195
_cell_length_b     37.954214
_cell_length_c     44.632918
_cell_angle_alpha  89.953278
_cell_angle_beta   89.92489
_cell_angle_gamma 89.964909
loop_
_atom_site_label
_atom_site_type_symbol
_atom_site_fract_x
_atom_site_fract_y
_atom_site_fract_z
_atom_type_partial_charge
C0 C 0.14656 0.54838 0.41014 0.0
O1 O 0.18543 0.57442 0.41101 0.0
O2 O 0.18812 0.60187 0.34579 0.0
Zn3 Zn 0.16457 0.55081 0.34518 0.0
O4 O 0.09855 0.54401 0.31527 0.0
C5 C 0.28895 0.53181 0.33578 0.0
O6 O 0.29881 0.56153 0.35002 0.0
O7 O 0.13307 0.53468 0.38508 0.0
C8 C 0.10845 0.5446 0.28723 0.0
O9 O 0.16323 0.55084 0.2775 0.0
C10 C 0.1526 0.62598 0.35455 0.0
O11 O 0.09858 0.61739 0.36405 0.0
O12 O 0.23513 0.52145 0.33209 0.0
C13 C 0.41954 0.98465 0.39577 0.0
O14 O 0.43437 0.0007 0.37074 0.0
O15 O 0.32313 0.89233 0.35826 0.0
Zn16 Zn 0.35074 0.94284 0.35502 0.0
O17 O 0.4161 0.94807 0.32396 0.0
C18 C 0.22842 0.96905 0.35195 0.0
O19 O 0.2182 0.9448 0.37236 0.0
O20 O 0.38292 0.95897 0.39477 0.0
C21 C 0.42381 0.92845 0.3012 0.0
O22 O 0.38841 0.90121 0.29713 0.0
C23 C 0.28524 0.87954 0.33993 0.0
O24 O 0.26457 0.89949 0.31818 0.0
O25 O 0.28162 0.97347 0.34224 0.0
C26 C 0.57188 0.44454 0.09505 0.0
O27 O 0.54121 0.42488 0.1139 0.0
O28 O 0.67796 0.38037 0.1341 0.0
Zn29 Zn 0.6598 0.43206 0.1393 0.0
O30 O 0.59848 0.4409 0.17161 0.0
C31 C 0.77708 0.44007 0.1644 0.0
O32 O 0.77001 0.40604 0.16844 0.0
O33 O 0.62658 0.45146 0.10085 0.0
C34 C 0.60609 0.43394 0.19921 0.0
O35 O 0.65603 0.4185 0.20789 0.0
C36 C 0.65017 0.35535 0.147 0.0
O37 O 0.60352 0.36248 0.16404 0.0
O38 O 0.7358 0.4574 0.15131 0.0
C39 C 0.88718 0.03955 0.08518 0.0
O40 O 0.85571 0.06885 0.08453 0.0
O41 O 0.82538 0.08998 0.14428 0.0
Zn42 Zn 0.85832 0.04074 0.1487 0.0
O43 O 0.92274 0.03832 0.18008 0.0
C44 C 0.73696 0.01518 0.15703 0.0
O45 O 0.72331 0.04108 0.1387 0.0
O46 O 0.89295 0.02309 0.10982 0.0
C47 C 0.91264 0.04683 0.20717 0.0
O48 O 0.85966 0.05951 0.21457 0.0
C49 C 0.85107 0.11758 0.15398 0.0
O50 O 0.90349 0.11492 0.16734 0.0
O51 O 0.79183 0.00935 0.16319 0.0
C52 C 0.92333 0.46681 0.59456 0.0
O53 O 0.94762 0.4436 0.61277 0.0
O54 O 0.81307 0.40972 0.63484 0.0
Zn55 Zn 0.83369 0.46124 0.63877 0.0
O56 O 0.8928 0.46885 0.67206 0.0
C57 C 0.70677 0.47477 0.64547 0.0
O58 O 0.70218 0.44462 0.63123 0.0
O59 O 0.87137 0.47886 0.60068 0.0
C60 C 0.88152 0.46085 0.69915 0.0
O61 O 0.82971 0.44618 0.70588 0.0
C62 C 0.84224 0.38476 0.64704 0.0
O63 O 0.891 0.39191 0.66246 0.0
O64 O 0.75861 0.48798 0.64967 0.0
C65 C 0.60134 0.05981 0.59267 0.0
O66 O 0.57452 0.08423 0.60873 0.0
O67 O 0.69895 0.11394 0.63973 0.0
Zn68 Zn 0.67659 0.06271 0.64307 0.0
O69 O 0.60906 0.05508 0.67246 0.0
C70 C 0.74946 0.00731 0.67006 0.0
O71 O 0.69779 0.99105 0.67367 0.0
O72 O 0.64898 0.04564 0.6028 0.0
C73 C 0.61148 0.06318 0.70005 0.0
O74 O 0.66049 0.07786 0.71071 0.0
C75 C 0.66867 0.13954 0.65019 0.0
O76 O 0.61752 0.13333 0.66396 0.0
O77 O 0.75045 0.03704 0.65697 0.0
C78 C 0.3702 0.54448 0.91125 0.0
O79 O 0.35186 0.57738 0.91086 0.0
O80 O 0.30979 0.59649 0.85327 0.0
Zn81 Zn 0.33219 0.54523 0.84908 0.0
O82 O 0.39441 0.5386 0.81691 0.0
C83 C 0.20611 0.52978 0.84267 0.0
O84 O 0.20035 0.55784 0.85965 0.0
O85 O 0.36503 0.52588 0.88772 0.0
C86 C 0.38308 0.54546 0.78961 0.0
O87 O 0.33002 0.55815 0.78239 0.0
C88 C 0.33793 0.62193 0.84118 0.0
O89 O 0.38654 0.61552 0.82534 0.0
O90 O 0.2585 0.51861 0.83634 0.0
C91 C 0.09303 0.95078 0.89815 0.0
O92 O 0.06509 0.92799 0.88094 0.0
O93 O 0.19582 0.89243 0.85464 0.0
Zn94 Zn 0.17455 0.94376 0.85053 0.0
O95 O 0.10863 0.95104 0.82031 0.0
C96 C 0.24861 0.99811 0.82301 0.0
O97 O 0.19704 0.01433 0.8189 0.0
O98 O 0.14435 0.9621 0.89003 0.0
C99 C 0.11088 0.9416 0.79302 0.0
O100 O 0.15924 0.92561 0.7829 0.0
C101 C 0.16398 0.86707 0.84501 0.0
O102 O 0.11217 0.87374 0.83208 0.0
O103 O 0.24927 0.96879 0.83676 0.0
C104 C 0.39605 0.52853 0.31882 0.0
C105 C 0.33899 0.51296 0.32084 0.0
C106 C 0.44163 0.51326 0.30135 0.0
C107 C 0.43 0.48151 0.28579 0.0
C108 C 0.3737 0.46458 0.28917 0.0
C109 C 0.32874 0.4806 0.30656 0.0
C110 C 0.50104 0.53219 0.2982 0.0
C111 C 0.35988 0.43045 0.27324 0.0
C112 C 0.51359 0.46763 0.21271 0.0
C113 C 0.56006 0.44478 0.22134 0.0
C114 C 0.47097 0.47958 0.23349 0.0
C115 C 0.47432 0.46805 0.26361 0.0
C116 C 0.52033 0.44442 0.2724 0.0
C117 C 0.56299 0.43322 0.25116 0.0
C118 C 0.42286 0.50503 0.22327 0.0
C119 C 0.5247 0.43119 0.30423 0.0
H120 H 0.40443 0.55348 0.32985 0.0
H121 H 0.28493 0.46821 0.30823 0.0
H122 H 0.53893 0.51382 0.30238 0.0
H123 H 0.5059 0.54216 0.27494 0.0
H124 H 0.50492 0.55483 0.31384 0.0
H125 H 0.31694 0.41857 0.281 0.0
H126 H 0.35656 0.43534 0.24879 0.0
H127 H 0.39669 0.41114 0.27674 0.0
H128 H 0.51108 0.47679 0.18973 0.0
H129 H 0.59861 0.41542 0.25795 0.0
H130 H 0.42619 0.52992 0.23619 0.0
H131 H 0.37765 0.49379 0.22763 0.0
H132 H 0.42646 0.51135 0.19903 0.0
H133 H 0.53239 0.45364 0.31965 0.0
H134 H 0.56173 0.41183 0.30717 0.0
H135 H 0.48173 0.41861 0.31099 0.0
C136 C 0.00666 0.01718 0.2242 0.0
C137 C 0.95864 0.04002 0.23035 0.0
C138 C 0.04871 0.0085 0.24635 0.0
C139 C 0.04332 0.02354 0.27524 0.0
C140 C 0.99592 0.04738 0.28142 0.0
C141 C 0.9537 0.05509 0.25894 0.0
C142 C 0.09822 0.9826 0.23897 0.0
C143 C 0.98956 0.06445 0.3118 0.0
C144 C 0.12096 0.97076 0.33601 0.0
C145 C 0.17791 0.98656 0.33646 0.0
C146 C 0.07543 0.98365 0.31722 0.0
C147 C 0.08693 0.01342 0.29894 0.0
C148 C 0.14289 0.031 0.30101 0.0
C149 C 0.188 0.01712 0.31952 0.0
C150 C 0.0166 0.9639 0.31537 0.0
C151 C 0.15635 0.0633 0.2824 0.0
H152 H 0.01057 0.00528 0.20221 0.0
H153 H 0.91684 0.07292 0.26376 0.0
H154 H 0.14279 0.99501 0.24254 0.0
H155 H 0.09538 0.95949 0.25415 0.0
H156 H 0.09585 0.97314 0.21545 0.0
H157 H 0.95208 0.0838 0.3125 0.0
H158 H 0.9813 0.044 0.32908 0.0
H159 H 0.03194 0.07808 0.3179 0.0
H160 H 0.113 0.94706 0.34899 0.0
H161 H 0.23184 0.0296 0.32006 0.0
H162 H 0.01309 0.95088 0.29318 0.0
H163 H 0.97808 0.98232 0.31739 0.0
H164 H 0.01256 0.94342 0.33306 0.0
H165 H 0.16161 0.05561 0.25857 0.0
H166 H 0.19826 0.07667 0.28972 0.0
H167 H 0.11856 0.08235 0.28368 0.0
C168 C 0.83435 0.49505 0.17689 0.0
C169 C 0.82967 0.45819 0.17761 0.0
C170 C 0.88112 0.51244 0.19198 0.0
C171 C 0.92395 0.49244 0.20815 0.0
C172 C 0.92082 0.4552 0.2079 0.0
C173 C 0.87379 0.43855 0.19261 0.0
C174 C 0.88329 0.55219 0.19162 0.0
C175 C 0.96575 0.43292 0.22483 0.0
C176 C 0.07219 0.52997 0.23558 0.0
C177 C 0.05982 0.53515 0.2661 0.0
C178 C 0.02758 0.51752 0.21602 0.0
C179 C 0.9694 0.51015 0.2273 0.0
C180 C 0.95594 0.51691 0.25776 0.0
C181 C 0.0013 0.52931 0.27678 0.0
C182 C 0.04345 0.51078 0.18363 0.0
C183 C 0.89431 0.50953 0.27061 0.0
H184 H 0.80055 0.51042 0.16525 0.0
H185 H 0.8708 0.41005 0.19312 0.0
H186 H 0.8731 0.56243 0.21434 0.0
H187 H 0.92906 0.56144 0.18559 0.0
H188 H 0.85049 0.56369 0.1756 0.0
H189 H 0.9593 0.40429 0.22079 0.0
H190 H 0.01228 0.44013 0.21826 0.0
H191 H 0.9613 0.43795 0.24922 0.0
H192 H 0.11722 0.53458 0.22712 0.0
H193 H 0.99118 0.53355 0.30027 0.0
H194 H 0.00938 0.5228 0.16863 0.0
H195 H 0.04336 0.482 0.1793 0.0
H196 H 0.08847 0.52138 0.17766 0.0
H197 H 0.85916 0.52259 0.25691 0.0
H198 H 0.8899 0.51871 0.29414 0.0
H199 H 0.88537 0.48078 0.26999 0.0
C200 C 0.62882 0.00656 0.17081 0.0
C201 C 0.6892 0.99645 0.17383 0.0
C202 C 0.58429 0.99253 0.18967 0.0
C203 C 0.60061 0.96779 0.21199 0.0
C204 C 0.66085 0.95599 0.21399 0.0
C205 C 0.70444 0.97046 0.19489 0.0
C206 C 0.52041 0.00563 0.18677 0.0
C207 C 0.67992 0.92949 0.23739 0.0
C208 C 0.5072 0.96707 0.28307 0.0
C209 C 0.47037 0.93752 0.27874 0.0
C210 C 0.54989 0.977 0.26155 0.0
C211 C 0.55604 0.95689 0.23503 0.0
C212 C 0.51959 0.92679 0.23062 0.0
C213 C 0.47712 0.91744 0.25256 0.0
C214 C 0.58808 0.00926 0.2671 0.0
C215 C 0.52508 0.9047 0.20263 0.0
H216 H 0.61658 0.02648 0.15451 0.0
H217 H 0.75092 0.96229 0.19724 0.0
H218 H 0.48862 0.98314 0.1859 0.0
H219 H 0.50853 0.0216 0.20673 0.0
H220 H 0.51393 0.02211 0.16645 0.0
H221 H 0.7269 0.92031 0.23397 0.0
H222 H 0.67657 0.94157 0.25996 0.0
H223 H 0.6496 0.90629 0.23714 0.0
H224 H 0.50239 0.98274 0.30323 0.0
H225 H 0.44883 0.89458 0.24903 0.0
H226 H 0.58047 0.02893 0.24909 0.0
H227 H 0.63644 0.00207 0.26656 0.0
H228 H 0.57805 0.02184 0.28902 0.0
H229 H 0.51489 0.92102 0.18264 0.0
H230 H 0.49422 0.88169 0.20288 0.0
H231 H 0.57191 0.89502 0.20012 0.0
C232 C 0.42062 0.5505 0.7368 0.0
C233 C 0.42881 0.53844 0.76625 0.0
C234 C 0.46332 0.54322 0.71441 0.0
C235 C 0.51491 0.52307 0.72162 0.0
C236 C 0.52353 0.51103 0.75134 0.0
C237 C 0.48058 0.51903 0.7733 0.0
C238 C 0.45311 0.55686 0.68304 0.0
C239 C 0.57775 0.4892 0.75987 0.0
C240 C 0.60063 0.47039 0.66352 0.0
C241 C 0.65383 0.49001 0.66089 0.0
C242 C 0.55358 0.48176 0.68212 0.0
C243 C 0.55965 0.51371 0.69817 0.0
C244 C 0.61148 0.5348 0.69402 0.0
C245 C 0.65815 0.5226 0.67553 0.0
C246 C 0.49911 0.45845 0.68606 0.0
C247 C 0.61915 0.56931 0.71038 0.0
H248 H 0.38086 0.56567 0.73123 0.0
H249 H 0.48718 0.50953 0.79597 0.0
H250 H 0.49223 0.57283 0.67569 0.0
H251 H 0.44907 0.53445 0.66724 0.0
H252 H 0.41185 0.57326 0.68136 0.0
H253 H 0.57781 0.48197 0.78399 0.0
H254 H 0.5788 0.46465 0.7464 0.0
H255 H 0.61964 0.50395 0.75485 0.0
H256 H 0.59681 0.44522 0.65223 0.0
H257 H 0.6989 0.53808 0.67339 0.0
H258 H 0.45717 0.47395 0.68331 0.0
H259 H 0.49879 0.44741 0.70909 0.0
H260 H 0.4986 0.43624 0.66986 0.0
H261 H 0.57799 0.58567 0.70827 0.0
H262 H 0.65816 0.58461 0.70184 0.0
H263 H 0.62617 0.56411 0.73459 0.0
C264 C 0.85891 0.01251 0.68204 0.0
C265 C 0.8051 0.9933 0.68392 0.0
C266 C 0.91037 0.00183 0.69775 0.0
C267 C 0.90813 0.97109 0.71566 0.0
C268 C 0.85494 0.9506 0.71649 0.0
C269 C 0.80396 0.962 0.70064 0.0
C270 C 0.96622 0.02443 0.69631 0.0
C271 C 0.85104 0.9175 0.73517 0.0
C272 C 0.05664 0.93424 0.74416 0.0
C273 C 0.05888 0.94844 0.77315 0.0
C274 C 0.00732 0.94081 0.72528 0.0
C275 C 0.95954 0.96231 0.7356 0.0
C276 C 0.96149 0.97655 0.76488 0.0
C277 C 0.01096 0.96934 0.78331 0.0
C278 C 0.00647 0.92497 0.69427 0.0
C279 C 0.91163 -0.00017 0.77665 0.0
H280 H 0.8604 0.03663 0.66905 0.0
H281 H 0.76271 0.94688 0.70208 0.0
H282 H 0.97457 0.03645 0.71857 0.0
H283 H 0.00606 0.00811 0.69069 0.0
H284 H 0.96226 0.04589 0.67949 0.0
H285 H 0.80885 0.90264 0.73097 0.0
H286 H 0.88992 0.90001 0.73045 0.0
H287 H 0.85285 0.92447 0.75929 0.0
H288 H 0.09335 0.91792 0.73621 0.0
H289 H 0.0123 0.98046 0.80566 0.0
H290 H 0.00591 0.94624 0.67721 0.0
H291 H 0.96494 0.90922 0.69113 0.0
H292 H 0.04605 0.90779 0.69003 0.0
H293 H 0.9073 0.02361 0.76234 0.0
H294 H 0.91962 0.0084 0.8001 0.0
H295 H 0.86807 0.98563 0.77573 0.0
C296 C 0.15873 0.48352 0.81062 0.0
C297 C 0.15318 0.51466 0.8273 0.0
C298 C 0.11157 0.47166 0.79239 0.0
C299 C 0.05794 0.49166 0.79057 0.0
C300 C 0.05079 0.52199 0.80866 0.0
C301 C 0.09843 0.53302 0.82697 0.0
C302 C 0.12051 0.43886 0.77378 0.0
C303 C 0.99438 0.54412 0.80723 0.0
C304 C 0.9758 0.49003 0.7163 0.0
C305 C 0.92648 0.46828 0.72269 0.0
C306 C 0.01863 0.49787 0.73828 0.0
C307 C 0.01246 0.48324 0.76731 0.0
C308 C 0.96311 0.46098 0.77389 0.0
C309 C 0.92039 0.45393 0.75152 0.0
C310 C 0.07035 0.52201 0.73045 0.0
C311 C 0.95562 0.44459 0.80449 0.0
H312 H 0.20071 0.46898 0.81101 0.0
H313 H 0.09371 0.55707 0.83985 0.0
H314 H 0.08077 0.42132 0.7756 0.0
H315 H 0.12537 0.44627 0.74984 0.0
H316 H 0.1612 0.4239 0.78063 0.0
H317 H 0.99326 0.56465 0.82495 0.0
H318 H 0.99179 0.55732 0.78507 0.0
H319 H 0.95384 0.52731 0.80951 0.0
H320 H 0.98069 0.50134 0.69412 0.0
H321 H 0.8825 0.43695 0.75654 0.0
H322 H 0.11371 0.50805 0.73369 0.0
H323 H 0.07036 0.54518 0.7456 0.0
H324 H 0.06816 0.53154 0.70693 0.0
H325 H 0.99587 0.42859 0.81008 0.0
H326 H 0.91518 0.42748 0.80588 0.0
H327 H 0.95187 0.4655 0.82175 0.0
C328 C 0.30388 0.04297 0.79227 0.0
C329 C 0.30446 0.0116 0.80893 0.0
C330 C 0.355 0.05401 0.7763 0.0
C331 C 0.40775 0.0331 0.7769 0.0
C332 C 0.40937 0.0022 0.79464 0.0
C333 C 0.3578 0.99189 0.8105 0.0
C334 C 0.35177 0.08731 0.75784 0.0
C335 C 0.46471 0.97913 0.7958 0.0
C336 C 0.51119 0.0356 0.7093 0.0
C337 C 0.55921 0.05612 0.71976 0.0
C338 C 0.46156 0.02817 0.72764 0.0
C339 C 0.45953 0.04185 0.75711 0.0
C340 C 0.50745 0.06296 0.76774 0.0
C341 C 0.55695 0.0697 0.74897 0.0
C342 C 0.41159 0.00528 0.71555 0.0
C343 C 0.50653 0.07824 0.79895 0.0
H344 H 0.263 0.05847 0.79105 0.0
H345 H 0.35883 0.96769 0.8234 0.0
H346 H 0.39075 0.10457 0.76281 0.0
H347 H 0.35397 0.08057 0.73368 0.0
H348 H 0.30967 0.10232 0.762 0.0
H349 H 0.46018 0.95739 0.81234 0.0
H350 H 0.47302 0.96746 0.77338 0.0
H351 H 0.50484 0.99503 0.80166 0.0
H352 H 0.5126 0.02493 0.68679 0.0
H353 H 0.59374 0.08573 0.75716 0.0
H354 H 0.3682 0.01967 0.71652 0.0
H355 H 0.40679 0.98134 0.72964 0.0
H356 H 0.4198 0.99698 0.69204 0.0
H357 H 0.46526 0.09425 0.80221 0.0
H358 H 0.54638 0.09505 0.80348 0.0
H359 H 0.50533 0.05668 0.81574 0.0
C360 C 0.07555 0.5078 0.43655 0.0
C361 C 0.11614 0.53608 0.43778 0.0
C362 C 0.04461 0.49652 0.4622 0.0
C363 C 0.05436 0.51394 0.48978 0.0
C364 C 0.09561 0.54229 0.49128 0.0
C365 C 0.12611 0.55301 0.46524 0.0
C366 C 0.00115 0.46607 0.45974 0.0
C367 C 0.10713 0.56148 0.52033 0.0
C368 C 0.93269 0.50531 0.54916 0.0
C369 C 0.95671 0.47906 0.56779 0.0
C370 C 0.96432 0.5172 0.52386 0.0
C371 C 0.02119 0.50242 0.51701 0.0
C372 C 0.04574 0.47602 0.53575 0.0
C373 C 0.01324 0.46469 0.56093 0.0
C374 C 0.93677 0.54546 0.50437 0.0
C375 C 0.10615 0.45954 0.52909 0.0
H376 H 0.06759 0.49451 0.41544 0.0
H377 H 0.1573 0.5749 0.46639 0.0
H378 H 0.01449 0.4447 0.47536 0.0
H379 H 0.95535 0.47476 0.46631 0.0
H380 H -0.00084 0.45511 0.43669 0.0
H381 H 0.14094 0.58281 0.51779 0.0
H382 H 0.06461 0.57315 0.52879 0.0
H383 H 0.12326 0.54269 0.5376 0.0
H384 H 0.88913 0.51662 0.55434 0.0
H385 H 0.03218 0.44441 0.5752 0.0
H386 H 0.93009 0.53522 0.48134 0.0
H387 H 0.96767 0.56832 0.50272 0.0
H388 H 0.89275 0.55476 0.51314 0.0
H389 H 0.10503 0.44652 0.50685 0.0
H390 H 0.11936 0.43971 0.54619 0.0
H391 H 0.14136 0.48021 0.52809 0.0
C392 C 0.48941 0.02275 0.42536 0.0
C393 C 0.44635 0.99575 0.42461 0.0
C394 C 0.51583 0.03325 0.45245 0.0
C395 C 0.49866 0.01641 0.47944 0.0
C396 C 0.45523 0.98917 0.47886 0.0
C397 C 0.42962 0.97914 0.45145 0.0
C398 C 0.56205 0.0624 0.4522 0.0
C399 C 0.43569 0.97069 0.50722 0.0
C400 C 0.60308 0.02215 0.54658 0.0
C401 C 0.57572 0.04884 0.56353 0.0
C402 C 0.57856 0.01136 0.5191 0.0
C403 C 0.5255 0.02767 0.50837 0.0
C404 C 0.49784 0.0547 0.52531 0.0
C405 C 0.52327 0.06495 0.55268 0.0
C406 C 0.6093 0.98244 0.50161 0.0
C407 C 0.44124 0.07273 0.51456 0.0
H408 H 0.50272 0.03567 0.40473 0.0
H409 H 0.39641 0.95825 0.45108 0.0
H410 H 0.54648 0.08458 0.46641 0.0
H411 H 0.60499 0.05275 0.46183 0.0
H412 H 0.57091 0.07255 0.42926 0.0
H413 H 0.40176 0.94983 0.50291 0.0
H414 H 0.47518 0.95853 0.51837 0.0
H415 H 0.41623 0.99005 0.52313 0.0
H416 H 0.6436 0.00956 0.55481 0.0
H417 H 0.50184 0.08561 0.56561 0.0
H418 H 0.6219 0.9922 0.47902 0.0
H419 H 0.57794 0.96003 0.4984 0.0
H420 H 0.65044 0.97259 0.51298 0.0
H421 H 0.44923 0.08505 0.49236 0.0
H422 H 0.42546 0.0934 0.53034 0.0
H423 H 0.40481 0.05306 0.5117 0.0
C424 C 0.57588 0.47789 0.04664 0.0
C425 C 0.54253 0.45896 0.06794 0.0
C426 C 0.54821 0.4919 0.02101 0.0
C427 C 0.4857 0.48699 0.01668 0.0
C428 C 0.4518 0.46795 0.0381 0.0
C429 C 0.48065 0.45408 0.06342 0.0
C430 C 0.58585 0.51192 -0.00146 0.0
C431 C 0.38498 0.46231 0.03431 0.0
C432 C 0.40332 0.54972 0.96463 0.0
C433 C 0.39871 0.52956 0.93841 0.0
C434 C 0.43145 0.53617 0.99031 0.0
C435 C 0.4557 0.50169 0.98969 0.0
C436 C 0.45106 0.48116 0.96335 0.0
C437 C 0.42252 0.49531 0.93804 0.0
C438 C 0.43532 0.55877 0.01807 0.0
C439 C 0.4765 0.44429 0.96185 0.0
H440 H 0.62372 0.48174 0.04995 0.0
H441 H 0.45448 0.43957 0.0798 0.0
H442 H 0.58275 0.49916 0.97624 0.0
H443 H 0.56839 0.53916 0.99608 0.0
H444 H 0.63396 0.51328 0.00515 0.0
H445 H 0.36506 0.44704 0.0531 0.0
H446 H 0.36167 0.48811 0.03282 0.0
H447 H 0.37611 0.44806 0.01308 0.0
H448 H 0.38502 0.57619 0.96513 0.0
H449 H 0.41928 0.47956 0.91786 0.0
H450 H 0.4831 0.56276 0.02434 0.0
H451 H 0.41306 0.54525 0.03714 0.0
H452 H 0.41392 0.58497 0.01493 0.0
H453 H 0.52549 0.44486 0.96655 0.0
H454 H 0.46933 0.43182 0.93963 0.0
H455 H 0.45525 0.42751 0.97926 0.0
C456 C 0.09306 0.98816 0.94446 0.0
C457 C 0.06405 0.96361 0.92598 0.0
C458 C 0.06522 0.00085 0.97057 0.0
C459 C 0.00701 0.98873 0.97833 0.0
C460 C 0.97763 0.96387 0.95983 0.0
C461 C 0.00651 0.9516 0.93391 0.0
C462 C 0.09797 0.0273 0.98982 0.0
C463 C 0.91553 0.95033 0.96736 0.0
C464 C 0.95422 0.9964 0.05898 0.0
C465 C 0.91741 0.02642 0.05777 0.0
C466 C 0.98401 0.984 0.03334 0.0
C467 C 0.97668 0.00199 0.0058 0.0
C468 C 0.93956 0.03226 0.00439 0.0
C469 C 0.91041 0.04414 0.0304 0.0
C470 C 0.02327 0.95163 0.03571 0.0
C471 C 0.9305 0.05203 0.97536 0.0
H472 H 0.13751 0.99757 0.93848 0.0
H473 H 0.98369 0.93265 0.91978 0.0
H474 H 0.0712 0.0519 0.99154 0.0
H475 H 0.10334 0.01678 0.01286 0.0
H476 H 0.14315 0.03392 0.98077 0.0
H477 H 0.89891 0.93098 0.95065 0.0
H478 H 0.91585 0.93759 0.98974 0.0
H479 H 0.88328 0.97262 0.96847 0.0
H480 H 0.96003 0.98258 0.08004 0.0
H481 H 0.88209 0.06736 0.02926 0.0
H482 H 0.06978 0.95797 0.02846 0.0
H483 H 0.00622 0.93076 0.02056 0.0
H484 H 0.02487 0.94095 0.05888 0.0
H485 H 0.97449 0.06111 0.9665 0.0
H486 H 0.90059 0.07527 0.97809 0.0
H487 H 0.91061 0.03427 0.95831 0.0
C488 C 0.13522 0.68989 0.36551 0.0
C489 C 0.17185 0.66329 0.35354 0.0
C490 C 0.1528 0.72539 0.36424 0.0
C491 C 0.20809 0.73445 0.35048 0.0
C492 C 0.24537 0.70771 0.33849 0.0
C493 C 0.22691 0.67246 0.34025 0.0
C494 C 0.11211 0.7532 0.37747 0.0
C495 C 0.3045 0.71638 0.32349 0.0
C496 C 0.22879 0.82734 0.32067 0.0
C497 C 0.26488 0.84258 0.3429 0.0
C498 C 0.20968 0.79222 0.32296 0.0
C499 C 0.2267 0.77196 0.3482 0.0
C500 C 0.26256 0.78728 0.37089 0.0
C501 C 0.28143 0.82239 0.36792 0.0
C502 C 0.17181 0.77668 0.2982 0.0
C503 C 0.28125 0.76653 0.39822 0.0
H504 H 0.09273 0.68301 0.37591 0.0
H505 H 0.25548 0.65208 0.3309 0.0
H506 H 0.13682 0.7686 0.39462 0.0
H507 H 0.09787 0.77193 0.35975 0.0
H508 H 0.07127 0.74173 0.388 0.0
H509 H 0.32846 0.69246 0.3155 0.0
H510 H 0.29663 0.73406 0.30408 0.0
H511 H 0.33418 0.73065 0.33933 0.0
H512 H 0.21585 0.84274 0.30126 0.0
H513 H 0.30908 0.83403 0.38526 0.0
H514 H 0.12865 0.76682 0.30745 0.0
H515 H 0.19546 0.75384 0.28809 0.0
H516 H 0.16185 0.7961 0.28024 0.0
H517 H 0.2409 0.75624 0.40997 0.0
H518 H 0.30782 0.78262 0.41423 0.0
H519 H 0.30869 0.74348 0.39137 0.0
C520 C 0.77058 0.15611 0.13253 0.0
C521 C 0.82078 0.15215 0.15127 0.0
C522 C 0.74048 0.18851 0.13029 0.0
C523 C 0.76064 0.21749 0.14748 0.0
C524 C 0.8113 0.21367 0.16641 0.0
C525 C 0.84101 0.1811 0.16793 0.0
C526 C 0.68713 0.19174 0.10956 0.0
C527 C 0.83377 0.24392 0.18529 0.0
C528 C 0.72119 0.31115 0.12521 0.0
C529 C 0.6745 0.3191 0.14529 0.0
C530 C 0.74845 0.27782 0.12508 0.0
C531 C 0.72892 0.25191 0.14571 0.0
C532 C 0.68073 0.25941 0.16549 0.0
C533 C 0.65387 0.29289 0.16493 0.0
C534 C 0.79921 0.27065 0.1034 0.0
C535 C 0.65887 0.23247 0.1879 0.0
H536 H 0.75485 0.13387 0.11949 0.0
H537 H 0.87955 0.17817 0.18257 0.0
H538 H 0.64647 0.19919 0.12252 0.0
H539 H 0.69525 0.21296 0.09292 0.0
H540 H 0.67776 0.16684 0.09736 0.0
H541 H 0.87343 0.23654 0.19906 0.0
H542 H 0.84633 0.26644 0.17071 0.0
H543 H 0.79747 0.25317 0.20046 0.0
H544 H 0.73718 0.3312 0.10983 0.0
H545 H 0.61792 0.29884 0.18056 0.0
H546 H 0.78983 0.24641 0.09035 0.0
H547 H 0.84153 0.2661 0.11596 0.0
H548 H 0.80644 0.29282 0.08752 0.0
H549 H 0.64659 0.20765 0.17632 0.0
H550 H 0.61927 0.2419 0.20081 0.0
H551 H 0.69553 0.22611 0.20387 0.0
C552 C 0.74162 0.18313 0.62914 0.0
C553 C 0.6926 0.1758 0.64798 0.0
C554 C 0.76641 0.21706 0.62765 0.0
C555 C 0.74203 0.24419 0.64568 0.0
C556 C 0.69222 0.23707 0.66453 0.0
C557 C 0.66784 0.20298 0.66532 0.0
C558 C 0.81901 0.22379 0.60697 0.0
C559 C 0.66536 0.26531 0.68427 0.0
C560 C 0.84139 0.32228 0.66483 0.0
C561 C 0.81879 0.34834 0.64561 0.0
C562 C 0.81693 0.28821 0.66501 0.0
C563 C 0.76929 0.27992 0.64521 0.0
C564 C 0.7472 0.30587 0.62527 0.0
C565 C 0.77198 0.33985 0.62584 0.0
C566 C 0.8413 0.26127 0.68677 0.0
C567 C 0.69701 0.29785 0.60356 0.0
H568 H 0.76078 0.1623 0.61554 0.0
H569 H 0.63012 0.19747 0.68 0.0
H570 H 0.80823 0.24564 0.59135 0.0
H571 H 0.85879 0.23203 0.62021 0.0
H572 H 0.83129 0.20014 0.59364 0.0
H573 H 0.62633 0.25557 0.69745 0.0
H574 H 0.69995 0.27526 0.70004 0.0
H575 H 0.65047 0.28797 0.67043 0.0
H576 H 0.87735 0.3287 0.68027 0.0
H577 H 0.75446 0.35982 0.61082 0.0
H578 H 0.85766 0.23777 0.67445 0.0
H579 H 0.80488 0.25234 0.70201 0.0
H580 H 0.87879 0.27184 0.70052 0.0
H581 H 0.70943 0.27502 0.58931 0.0
H582 H 0.68643 0.32061 0.58881 0.0
H583 H 0.65573 0.29048 0.61606 0.0
C584 C 0.33482 0.68479 0.82449 0.0
C585 C 0.31388 0.65815 0.8436 0.0
C586 C 0.31001 0.71877 0.82546 0.0
C587 C 0.26376 0.72636 0.84632 0.0
C588 C 0.24332 0.69979 0.86611 0.0
C589 C 0.26836 0.66592 0.86438 0.0
C590 C 0.33258 0.74638 0.80381 0.0
C591 C 0.19467 0.70706 0.88893 0.0
C592 C 0.23736 0.82277 0.86456 0.0
C593 C 0.18726 0.83061 0.84666 0.0
C594 C 0.26197 0.78874 0.86515 0.0
C595 C 0.2363 0.76205 0.84713 0.0
C596 C 0.18523 0.76965 0.82934 0.0
C597 C 0.16106 0.80381 0.82947 0.0
C598 C 0.31592 0.78147 0.88474 0.0
C599 C 0.15695 0.7419 0.80964 0.0
H600 H 0.36976 0.67891 0.80828 0.0
H601 H 0.25217 0.64548 0.87933 0.0
H602 H 0.29497 0.75575 0.78954 0.0
H603 H 0.34985 0.76951 0.81629 0.0
H604 H 0.36897 0.73626 0.78906 0.0
H605 H 0.18525 0.68383 0.90335 0.0
H606 H 0.20802 0.72945 0.90345 0.0
H607 H 0.1525 0.71477 0.8774 0.0
H608 H 0.25762 0.84331 0.87805 0.0
H609 H 0.12249 0.80972 0.8155 0.0
H610 H 0.35491 0.77385 0.87062 0.0
H611 H 0.3064 0.75905 0.89999 0.0
H612 H 0.32879 0.80469 0.89844 0.0
H613 H 0.19026 0.73252 0.79291 0.0
H614 H 0.11676 0.7519 0.79755 0.0
H615 H 0.14345 0.7188 0.82332 0.0
loop_
_geom_bond_atom_site_label_1
_geom_bond_atom_site_label_2
_geom_bond_distance
_geom_bond_site_symmetry_2
_ccdc_geom_bond_type
C0 O1 1.160 . S
C0 O7 1.185 . S
O1 C0 1.160 . S
O2 Zn3 1.899 . S
O2 C10 1.284 . S
Zn3 O2 1.899 . S
Zn3 O4 2.032 . S
Zn3 O7 2.086 . S
Zn3 O12 1.977 . S
O4 Zn3 2.032 . S
O4 C8 1.278 . S
C5 O6 1.203 . S
C5 O12 1.267 . S
O6 C5 1.203 . S
O7 C0 1.185 . S
O7 Zn3 2.086 . S
C8 O4 1.278 . S
C8 O9 1.211 . S
O9 C8 1.211 . S
C10 O2 1.284 . S
C10 O11 1.273 . S
O11 C10 1.273 . S
O12 Zn3 1.977 . S
O12 C5 1.267 . S
C13 O14 1.160 . S
C13 O20 1.185 . S
O14 C13 1.160 . S
O15 Zn16 1.899 . S
O15 C23 1.284 . S
Zn16 O15 1.899 . S
Zn16 O17 2.032 . S
Zn16 O20 2.086 . S
Zn16 O25 1.977 . S
O17 Zn16 2.032 . S
O17 C21 1.278 . S
C18 O19 1.203 . S
C18 O25 1.267 . S
O19 C18 1.203 . S
O20 C13 1.185 . S
O20 Zn16 2.086 . S
C21 O17 1.278 . S
C21 O22 1.211 . S
O22 C21 1.211 . S
C23 O15 1.284 . S
C23 O24 1.273 . S
O24 C23 1.273 . S
O25 Zn16 1.977 . S
O25 C18 1.267 . S
C26 O27 1.160 . S
C26 O33 1.185 . S
O27 C26 1.160 . S
O28 Zn29 1.899 . S
O28 C36 1.284 . S
Zn29 O28 1.899 . S
Zn29 O30 2.032 . S
Zn29 O33 2.086 . S
Zn29 O38 1.977 . S
O30 Zn29 2.032 . S
O30 C34 1.278 . S
C31 O32 1.203 . S
C31 O38 1.267 . S
O32 C31 1.203 . S
O33 C26 1.185 . S
O33 Zn29 2.086 . S
C34 O30 1.278 . S
C34 O35 1.211 . S
O35 C34 1.211 . S
C36 O28 1.284 . S
C36 O37 1.273 . S
O37 C36 1.273 . S
O38 Zn29 1.977 . S
O38 C31 1.267 . S
C39 O40 1.160 . S
C39 O46 1.185 . S
O40 C39 1.160 . S
O41 Zn42 1.899 . S
O41 C49 1.284 . S
Zn42 O41 1.899 . S
Zn42 O43 2.032 . S
Zn42 O46 2.086 . S
Zn42 O51 1.977 . S
O43 Zn42 2.032 . S
O43 C47 1.278 . S
C44 O45 1.203 . S
C44 O51 1.267 . S
O45 C44 1.203 . S
O46 C39 1.185 . S
O46 Zn42 2.086 . S
C47 O43 1.278 . S
C47 O48 1.211 . S
O48 C47 1.211 . S
C49 O41 1.284 . S
C49 O50 1.273 . S
O50 C49 1.273 . S
O51 Zn42 1.977 . S
O51 C44 1.267 . S
C52 O53 1.160 . S
C52 O59 1.185 . S
O53 C52 1.160 . S
O54 Zn55 1.899 . S
O54 C62 1.284 . S
Zn55 O54 1.899 . S
Zn55 O56 2.032 . S
Zn55 O59 2.086 . S
Zn55 O64 1.977 . S
O56 Zn55 2.032 . S
O56 C60 1.278 . S
C57 O58 1.203 . S
C57 O64 1.267 . S
O58 C57 1.203 . S
O59 C52 1.185 . S
O59 Zn55 2.086 . S
C60 O56 1.278 . S
C60 O61 1.211 . S
O61 C60 1.211 . S
C62 O54 1.284 . S
C62 O63 1.273 . S
O63 C62 1.273 . S
O64 Zn55 1.977 . S
O64 C57 1.267 . S
C65 O66 1.160 . S
C65 O72 1.185 . S
O66 C65 1.160 . S
O67 Zn68 1.899 . S
O67 C75 1.284 . S
Zn68 O67 1.899 . S
Zn68 O69 2.032 . S
Zn68 O72 2.086 . S
Zn68 O77 1.977 . S
O69 Zn68 2.032 . S
O69 C73 1.278 . S
C70 O71 1.203 . S
C70 O77 1.267 . S
O71 C70 1.203 . S
O72 C65 1.185 . S
O72 Zn68 2.086 . S
C73 O69 1.278 . S
C73 O74 1.211 . S
O74 C73 1.211 . S
C75 O67 1.284 . S
C75 O76 1.273 . S
O76 C75 1.273 . S
O77 Zn68 1.977 . S
O77 C70 1.267 . S
C78 O79 1.160 . S
C78 O85 1.185 . S
O79 C78 1.160 . S
O80 Zn81 1.899 . S
O80 C88 1.284 . S
Zn81 O80 1.899 . S
Zn81 O82 2.032 . S
Zn81 O85 2.086 . S
Zn81 O90 1.977 . S
O82 Zn81 2.032 . S
O82 C86 1.278 . S
C83 O84 1.203 . S
C83 O90 1.267 . S
O84 C83 1.203 . S
O85 C78 1.185 . S
O85 Zn81 2.086 . S
C86 O82 1.278 . S
C86 O87 1.211 . S
O87 C86 1.211 . S
C88 O80 1.284 . S
C88 O89 1.273 . S
O89 C88 1.273 . S
O90 Zn81 1.977 . S
O90 C83 1.267 . S
C91 O92 1.160 . S
C91 O98 1.185 . S
O92 C91 1.160 . S
O93 Zn94 1.899 . S
O93 C101 1.284 . S
Zn94 O93 1.899 . S
Zn94 O95 2.032 . S
Zn94 O98 2.086 . S
Zn94 O103 1.977 . S
O95 Zn94 2.032 . S
O95 C99 1.278 . S
C96 O97 1.203 . S
C96 O103 1.267 . S
O97 C96 1.203 . S
O98 C91 1.185 . S
O98 Zn94 2.086 . S
C99 O95 1.278 . S
C99 O100 1.211 . S
O100 C99 1.211 . S
C101 O93 1.284 . S
C101 O102 1.273 . S
O102 C101 1.273 . S
O103 Zn94 1.977 . S
O103 C96 1.267 . S
C104 C105 1.391 . S
C104 C106 1.394 . S
C104 H120 0.931 . S
C105 C104 1.391 . S
C105 C109 1.376 . S
C106 C104 1.394 . S
C106 C107 1.369 . S
C106 C110 1.531 . S
C107 C106 1.369 . S
C107 C108 1.410 . S
C107 C115 1.503 . S
C108 C107 1.410 . S
C108 C109 1.392 . S
C108 C111 1.511 . S
C109 C105 1.376 . S
C109 C108 1.392 . S
C109 H121 0.929 . S
C110 C106 1.531 . S
C110 H122 0.960 . S
C110 H123 0.962 . S
C110 H124 0.960 . S
C111 C108 1.511 . S
C111 H125 0.961 . S
C111 H126 0.961 . S
C111 H127 0.961 . S
C112 C113 1.370 . S
C112 C114 1.363 . S
C112 H128 0.931 . S
C113 C112 1.370 . S
C113 C117 1.408 . S
C114 C112 1.363 . S
C114 C115 1.370 . S
C114 C118 1.524 . S
C115 C107 1.503 . S
C115 C114 1.370 . S
C115 C116 1.403 . S
C116 C115 1.403 . S
C116 C117 1.404 . S
C116 C119 1.539 . S
C117 C113 1.408 . S
C117 C116 1.404 . S
C117 H129 0.930 . S
C118 C114 1.524 . S
C118 H130 0.956 . S
C118 H131 0.961 . S
C118 H132 0.961 . S
C119 C116 1.539 . S
C119 H133 0.958 . S
C119 H134 0.961 . S
C119 H135 0.960 . S
H120 C104 0.931 . S
H121 C109 0.929 . S
H122 C110 0.960 . S
H123 C110 0.962 . S
H124 C110 0.960 . S
H125 C111 0.961 . S
H126 C111 0.961 . S
H127 C111 0.961 . S
H128 C112 0.931 . S
H129 C117 0.930 . S
H130 C118 0.956 . S
H131 C118 0.961 . S
H132 C118 0.961 . S
H133 C119 0.958 . S
H134 C119 0.961 . S
H135 C119 0.960 . S
C136 C137 1.391 1_455 S
C136 C138 1.394 . S
C136 H152 0.919 1_545 S
C137 C136 1.391 1_655 S
C137 C141 1.376 1_655 S
C138 C136 1.394 . S
C138 C139 1.369 . S
C138 C142 1.531 1_545 S
C139 C138 1.369 . S
C139 C140 1.410 . S
C139 C147 1.503 . S
C140 C139 1.410 . S
C140 C141 1.392 . S
C140 C143 1.511 . S
C141 C137 1.376 1_455 S
C141 C140 1.392 . S
C141 H153 0.929 1_455 S
C142 C138 1.531 1_565 S
C142 H154 0.960 . S
C142 H155 0.962 . S
C142 H156 0.960 . S
C143 C140 1.511 . S
C143 H157 0.961 . S
C143 H158 0.961 . S
C143 H159 0.961 . S
C144 C145 1.370 . S
C144 C146 1.363 . S
C144 H160 0.931 . S
C145 C144 1.370 . S
C145 C149 1.408 1_565 S
C146 C144 1.363 . S
C146 C147 1.370 1_565 S
C146 C150 1.524 . S
C147 C139 1.503 . S
C147 C146 1.370 1_545 S
C147 C148 1.403 . S
C148 C147 1.403 . S
C148 C149 1.404 . S
C148 C151 1.539 . S
C149 C145 1.408 1_545 S
C149 C148 1.404 . S
C149 H161 0.930 . S
C150 C146 1.524 . S
C150 H162 0.956 . S
C150 H163 0.961 . S
C150 H164 0.961 . S
C151 C148 1.539 . S
C151 H165 0.958 . S
C151 H166 0.961 . S
C151 H167 0.960 . S
H152 C136 0.919 1_565 S
H153 C141 0.929 1_655 S
H154 C142 0.960 . S
H155 C142 0.962 . S
H156 C142 0.960 . S
H157 C143 0.961 . S
H158 C143 0.961 . S
H159 C143 0.961 . S
H160 C144 0.931 . S
H161 C149 0.930 . S
H162 C150 0.956 . S
H163 C150 0.961 . S
H164 C150 0.961 . S
H165 C151 0.958 . S
H166 C151 0.961 . S
H167 C151 0.960 . S
C168 C169 1.391 . S
C168 C170 1.394 . S
C168 H184 0.931 . S
C169 C168 1.391 . S
C169 C173 1.376 . S
C170 C168 1.394 . S
C170 C171 1.369 . S
C170 C174 1.531 . S
C171 C170 1.369 . S
C171 C172 1.410 . S
C171 C179 1.503 . S
C172 C171 1.410 . S
C172 C173 1.392 . S
C172 C175 1.511 . S
C173 C169 1.376 . S
C173 C172 1.392 . S
C173 H185 0.929 . S
C174 C170 1.531 . S
C174 H186 0.960 . S
C174 H187 0.962 . S
C174 H188 0.960 . S
C175 C172 1.511 . S
C175 H189 0.961 . S
C175 H190 0.961 . S
C175 H191 0.961 . S
C176 C177 1.370 . S
C176 C178 1.363 1_455 S
C176 H192 0.931 . S
C177 C176 1.370 . S
C177 C181 1.408 1_455 S
C178 C176 1.363 1_655 S
C178 C179 1.370 . S
C178 C182 1.524 . S
C179 C171 1.503 . S
C179 C178 1.370 . S
C179 C180 1.403 . S
C180 C179 1.403 . S
C180 C181 1.404 . S
C180 C183 1.539 . S
C181 C177 1.408 1_655 S
C181 C180 1.404 . S
C181 H193 0.930 . S
C182 C178 1.524 . S
C182 H194 0.956 . S
C182 H195 0.961 . S
C182 H196 0.961 . S
C183 C180 1.539 . S
C183 H197 0.958 . S
C183 H198 0.961 . S
C183 H199 0.960 . S
H184 C168 0.931 . S
H185 C173 0.929 . S
H186 C174 0.960 . S
H187 C174 0.962 . S
H188 C174 0.960 . S
H189 C175 0.961 . S
H190 C175 0.961 . S
H191 C175 0.961 . S
H192 C176 0.931 . S
H193 C181 0.930 . S
H194 C182 0.956 . S
H195 C182 0.961 . S
H196 C182 0.961 . S
H197 C183 0.958 . S
H198 C183 0.961 . S
H199 C183 0.960 . S
C200 C201 1.391 . S
C200 C202 1.394 . S
C200 H216 0.931 . S
C201 C200 1.391 . S
C201 C205 1.376 1_545 S
C202 C200 1.394 . S
C202 C203 1.369 1_545 S
C202 C206 1.531 . S
C203 C202 1.369 1_565 S
C203 C204 1.410 . S
C203 C211 1.503 . S
C204 C203 1.410 . S
C204 C205 1.392 . S
C204 C207 1.511 . S
C205 C201 1.376 1_565 S
C205 C204 1.392 . S
C205 H217 0.929 . S
C206 C202 1.531 . S
C206 H218 0.960 1_545 S
C206 H219 0.962 . S
C206 H220 0.960 . S
C207 C204 1.511 . S
C207 H221 0.961 . S
C207 H222 0.961 . S
C207 H223 0.961 . S
C208 C209 1.370 . S
C208 C210 1.365 . S
C208 H224 0.931 1_565 S
C209 C208 1.370 . S
C209 C213 1.408 . S
C210 C208 1.365 . S
C210 C211 1.374 . S
C210 C214 1.519 1_565 S
C211 C203 1.503 . S
C211 C210 1.374 . S
C211 C212 1.403 . S
C212 C211 1.403 . S
C212 C213 1.404 . S
C212 C215 1.539 . S
C213 C209 1.408 . S
C213 C212 1.404 . S
C213 H225 0.930 . S
C214 C210 1.519 1_545 S
C214 H226 0.956 . S
C214 H227 0.961 . S
C214 H228 0.961 . S
C215 C212 1.539 . S
C215 H229 0.958 . S
C215 H230 0.961 . S
C215 H231 0.960 . S
H216 C200 0.931 . S
H217 C205 0.929 . S
H218 C206 0.960 1_565 S
H219 C206 0.962 . S
H220 C206 0.960 . S
H221 C207 0.961 . S
H222 C207 0.961 . S
H223 C207 0.961 . S
H224 C208 0.931 1_545 S
H225 C213 0.930 . S
H226 C214 0.956 . S
H227 C214 0.961 . S
H228 C214 0.961 . S
H229 C215 0.958 . S
H230 C215 0.961 . S
H231 C215 0.960 . S
C232 C233 1.391 . S
C232 C234 1.394 . S
C232 H248 0.931 . S
C233 C232 1.391 . S
C233 C237 1.376 . S
C234 C232 1.394 . S
C234 C235 1.369 . S
C234 C238 1.531 . S
C235 C234 1.369 . S
C235 C236 1.410 . S
C235 C243 1.503 . S
C236 C235 1.410 . S
C236 C237 1.392 . S
C236 C239 1.511 . S
C237 C233 1.376 . S
C237 C236 1.392 . S
C237 H249 0.929 . S
C238 C234 1.531 . S
C238 H250 0.960 . S
C238 H251 0.962 . S
C238 H252 0.960 . S
C239 C236 1.511 . S
C239 H253 0.961 . S
C239 H254 0.961 . S
C239 H255 0.961 . S
C240 C241 1.370 . S
C240 C242 1.363 . S
C240 H256 0.931 . S
C241 C240 1.370 . S
C241 C245 1.408 . S
C242 C240 1.363 . S
C242 C243 1.370 . S
C242 C246 1.524 . S
C243 C235 1.503 . S
C243 C242 1.370 . S
C243 C244 1.403 . S
C244 C243 1.403 . S
C244 C245 1.404 . S
C244 C247 1.539 . S
C245 C241 1.408 . S
C245 C244 1.404 . S
C245 H257 0.930 . S
C246 C242 1.524 . S
C246 H258 0.956 . S
C246 H259 0.961 . S
C246 H260 0.961 . S
C247 C244 1.539 . S
C247 H261 0.958 . S
C247 H262 0.961 . S
C247 H263 0.960 . S
H248 C232 0.931 . S
H249 C237 0.929 . S
H250 C238 0.960 . S
H251 C238 0.962 . S
H252 C238 0.960 . S
H253 C239 0.961 . S
H254 C239 0.961 . S
H255 C239 0.961 . S
H256 C240 0.931 . S
H257 C245 0.930 . S
H258 C246 0.956 . S
H259 C246 0.961 . S
H260 C246 0.961 . S
H261 C247 0.958 . S
H262 C247 0.961 . S
H263 C247 0.960 . S
C264 C265 1.391 . S
C264 C266 1.394 . S
C264 H280 0.931 . S
C265 C264 1.391 . S
C265 C269 1.376 . S
C266 C264 1.394 . S
C266 C267 1.369 . S
C266 C270 1.531 . S
C267 C266 1.369 . S
C267 C268 1.410 . S
C267 C275 1.503 1_545 S
C268 C267 1.410 . S
C268 C269 1.392 . S
C268 C271 1.511 1_545 S
C269 C265 1.376 . S
C269 C268 1.392 . S
C269 H281 0.929 . S
C270 C266 1.531 . S
C270 H282 0.960 . S
C270 H283 0.962 1_545 S
C270 H284 0.960 . S
C271 C268 1.511 1_565 S
C271 H285 0.961 . S
C271 H286 0.961 . S
C271 H287 0.961 1_565 S
C272 C273 1.370 1_655 S
C272 C274 1.363 . S
C272 H288 0.931 . S
C273 C272 1.370 1_455 S
C273 C277 1.408 1_455 S
C274 C272 1.363 . S
C274 C275 1.370 . S
C274 C278 1.524 . S
C275 C267 1.503 1_565 S
C275 C274 1.370 . S
C275 C276 1.403 1_565 S
C276 C275 1.403 1_545 S
C276 C277 1.404 1_545 S
C276 C279 1.539 . S
C277 C273 1.408 1_655 S
C277 C276 1.404 1_565 S
C277 H289 0.930 1_665 S
C278 C274 1.524 . S
C278 H290 0.956 . S
C278 H291 0.961 . S
C278 H292 0.961 . S
C279 C276 1.539 . S
C279 H293 0.958 . S
C279 H294 0.961 . S
C279 H295 0.960 . S
H280 C264 0.931 . S
H281 C269 0.929 . S
H282 C270 0.960 . S
H283 C270 0.962 1_565 S
H284 C270 0.960 . S
H285 C271 0.961 . S
H286 C271 0.961 . S
H287 C271 0.961 1_545 S
H288 C272 0.931 . S
H289 C277 0.930 1_445 S
H290 C278 0.956 . S
H291 C278 0.961 . S
H292 C278 0.961 . S
H293 C279 0.958 . S
H294 C279 0.961 . S
H295 C279 0.960 . S
C296 C297 1.391 . S
C296 C298 1.394 . S
C296 H312 0.931 . S
C297 C296 1.391 . S
C297 C301 1.376 . S
C298 C296 1.394 . S
C298 C299 1.369 . S
C298 C302 1.531 . S
C299 C298 1.369 . S
C299 C300 1.410 . S
C299 C307 1.503 . S
C300 C299 1.410 . S
C300 C301 1.392 . S
C300 C303 1.511 . S
C301 C297 1.376 . S
C301 C300 1.392 . S
C301 H313 0.929 . S
C302 C298 1.531 . S
C302 H314 0.960 . S
C302 H315 0.962 . S
C302 H316 0.960 . S
C303 C300 1.511 . S
C303 H317 0.961 . S
C303 H318 0.961 . S
C303 H319 0.961 . S
C304 C305 1.370 1_455 S
C304 C306 1.363 . S
C304 H320 0.931 . S
C305 C304 1.370 1_655 S
C305 C309 1.408 1_655 S
C306 C304 1.363 . S
C306 C307 1.370 . S
C306 C310 1.524 . S
C307 C299 1.503 . S
C307 C306 1.370 . S
C307 C308 1.403 . S
C308 C307 1.403 . S
C308 C309 1.404 . S
C308 C311 1.539 . S
C309 C305 1.408 1_455 S
C309 C308 1.404 . S
C309 H321 0.930 1_455 S
C310 C306 1.524 . S
C310 H322 0.956 . S
C310 H323 0.961 . S
C310 H324 0.961 . S
C311 C308 1.539 . S
C311 H325 0.958 . S
C311 H326 0.961 . S
C311 H327 0.960 . S
H312 C296 0.931 . S
H313 C301 0.929 . S
H314 C302 0.960 . S
H315 C302 0.962 . S
H316 C302 0.960 . S
H317 C303 0.961 . S
H318 C303 0.961 . S
H319 C303 0.961 . S
H320 C304 0.931 . S
H321 C309 0.930 1_655 S
H322 C310 0.956 . S
H323 C310 0.961 . S
H324 C310 0.961 . S
H325 C311 0.958 . S
H326 C311 0.961 . S
H327 C311 0.960 . S
C328 C329 1.391 . S
C328 C330 1.394 1_565 S
C328 H344 0.931 . S
C329 C328 1.391 . S
C329 C333 1.376 . S
C330 C328 1.394 1_545 S
C330 C331 1.369 . S
C330 C334 1.531 . S
C331 C330 1.369 . S
C331 C332 1.410 . S
C331 C339 1.503 . S
C332 C331 1.410 . S
C332 C333 1.392 1_545 S
C332 C335 1.511 . S
C333 C329 1.376 . S
C333 C332 1.392 1_565 S
C333 H345 0.929 . S
C334 C330 1.531 . S
C334 H346 0.960 . S
C334 H347 0.962 1_545 S
C334 H348 0.960 . S
C335 C332 1.511 . S
C335 H349 0.961 . S
C335 H350 0.961 . S
C335 H351 0.961 . S
C336 C337 1.370 . S
C336 C338 1.363 1_545 S
C336 H352 0.931 1_545 S
C337 C336 1.370 . S
C337 C341 1.408 . S
C338 C336 1.363 1_565 S
C338 C339 1.370 1_565 S
C338 C342 1.524 . S
C339 C331 1.503 . S
C339 C338 1.370 1_545 S
C339 C340 1.403 . S
C340 C339 1.403 . S
C340 C341 1.404 . S
C340 C343 1.539 . S
C341 C337 1.408 . S
C341 C340 1.404 . S
C341 H353 0.930 . S
C342 C338 1.524 . S
C342 H354 0.956 . S
C342 H355 0.961 . S
C342 H356 0.961 . S
C343 C340 1.539 . S
C343 H357 0.958 . S
C343 H358 0.961 . S
C343 H359 0.960 . S
H344 C328 0.931 . S
H345 C333 0.929 . S
H346 C334 0.960 . S
H347 C334 0.962 1_565 S
H348 C334 0.960 . S
H349 C335 0.961 . S
H350 C335 0.961 . S
H351 C335 0.961 . S
H352 C336 0.931 1_565 S
H353 C341 0.930 . S
H354 C342 0.956 . S
H355 C342 0.961 . S
H356 C342 0.961 . S
H357 C343 0.958 . S
H358 C343 0.961 . S
H359 C343 0.960 . S
C360 C361 1.391 . S
C360 C362 1.394 . S
C360 H376 0.931 . S
C361 C360 1.391 . S
C361 C365 1.376 . S
C362 C360 1.394 . S
C362 C363 1.369 . S
C362 C366 1.531 1_455 S
C363 C362 1.369 . S
C363 C364 1.410 . S
C363 C371 1.503 1_455 S
C364 C363 1.410 . S
C364 C365 1.392 . S
C364 C367 1.511 . S
C365 C361 1.376 . S
C365 C364 1.392 . S
C365 H377 0.929 . S
C366 C362 1.531 1_655 S
C366 H378 0.960 . S
C366 H379 0.962 . S
C366 H380 0.958 1_655 S
C367 C364 1.511 . S
C367 H381 0.961 . S
C367 H382 0.961 . S
C367 H383 0.961 . S
C368 C369 1.370 . S
C368 C370 1.363 . S
C368 H384 0.931 . S
C369 C368 1.370 . S
C369 C373 1.408 . S
C370 C368 1.363 . S
C370 C371 1.370 . S
C370 C374 1.524 . S
C371 C363 1.503 1_655 S
C371 C370 1.370 . S
C371 C372 1.403 1_655 S
C372 C371 1.403 1_455 S
C372 C373 1.404 1_455 S
C372 C375 1.539 . S
C373 C369 1.408 . S
C373 C372 1.404 1_655 S
C373 H385 0.929 . S
C374 C370 1.524 . S
C374 H386 0.956 . S
C374 H387 0.961 . S
C374 H388 0.961 . S
C375 C372 1.539 . S
C375 H389 0.958 . S
C375 H390 0.961 . S
C375 H391 0.960 . S
H376 C360 0.931 . S
H377 C365 0.929 . S
H378 C366 0.960 . S
H379 C366 0.962 . S
H380 C366 0.958 1_455 S
H381 C367 0.961 . S
H382 C367 0.961 . S
H383 C367 0.961 . S
H384 C368 0.931 . S
H385 C373 0.929 . S
H386 C374 0.956 . S
H387 C374 0.961 . S
H388 C374 0.961 . S
H389 C375 0.958 . S
H390 C375 0.961 . S
H391 C375 0.960 . S
C392 C393 1.391 . S
C392 C394 1.394 1_565 S
C392 H408 0.929 1_565 S
C393 C392 1.391 . S
C393 C397 1.376 . S
C394 C392 1.394 1_545 S
C394 C395 1.369 . S
C394 C398 1.531 . S
C395 C394 1.369 . S
C395 C396 1.410 1_545 S
C395 C403 1.503 . S
C396 C395 1.410 1_565 S
C396 C397 1.392 . S
C396 C399 1.511 . S
C397 C393 1.376 . S
C397 C396 1.392 . S
C397 H409 0.929 . S
C398 C394 1.531 . S
C398 H410 0.960 . S
C398 H411 0.962 . S
C398 H412 0.960 . S
C399 C396 1.511 . S
C399 H413 0.961 . S
C399 H414 0.961 . S
C399 H415 0.961 . S
C400 C401 1.370 1_565 S
C400 C402 1.363 . S
C400 H416 0.931 . S
C401 C400 1.370 1_545 S
C401 C405 1.408 . S
C402 C400 1.363 . S
C402 C403 1.370 1_565 S
C402 C406 1.524 . S
C403 C395 1.503 . S
C403 C402 1.370 1_545 S
C403 C404 1.403 . S
C404 C403 1.403 . S
C404 C405 1.404 . S
C404 C407 1.539 . S
C405 C401 1.408 . S
C405 C404 1.404 . S
C405 H417 0.930 . S
C406 C402 1.524 . S
C406 H418 0.956 . S
C406 H419 0.961 . S
C406 H420 0.961 . S
C407 C404 1.539 . S
C407 H421 0.958 . S
C407 H422 0.961 . S
C407 H423 0.960 . S
H408 C392 0.929 1_545 S
H409 C397 0.929 . S
H410 C398 0.960 . S
H411 C398 0.962 . S
H412 C398 0.960 . S
H413 C399 0.961 . S
H414 C399 0.961 . S
H415 C399 0.961 . S
H416 C400 0.931 . S
H417 C405 0.930 . S
H418 C406 0.956 . S
H419 C406 0.961 . S
H420 C406 0.961 . S
H421 C407 0.958 . S
H422 C407 0.961 . S
H423 C407 0.960 . S
C424 C425 1.391 . S
C424 C426 1.394 . S
C424 H440 0.931 . S
C425 C424 1.391 . S
C425 C429 1.376 . S
C426 C424 1.394 . S
C426 C427 1.369 . S
C426 C430 1.531 1_554 S
C427 C426 1.369 . S
C427 C428 1.410 . S
C427 C435 1.503 1_554 S
C428 C427 1.410 . S
C428 C429 1.392 . S
C428 C431 1.511 . S
C429 C425 1.376 . S
C429 C428 1.392 . S
C429 H441 0.929 . S
C430 C426 1.531 1_556 S
C430 H442 0.960 . S
C430 H443 0.962 . S
C430 H444 0.960 . S
C431 C428 1.511 . S
C431 H445 0.961 . S
C431 H446 0.961 . S
C431 H447 0.961 . S
C432 C433 1.370 . S
C432 C434 1.363 . S
C432 H448 0.931 . S
C433 C432 1.370 . S
C433 C437 1.408 . S
C434 C432 1.363 . S
C434 C435 1.370 . S
C434 C438 1.524 1_556 S
C435 C427 1.503 1_556 S
C435 C434 1.370 . S
C435 C436 1.403 . S
C436 C435 1.403 . S
C436 C437 1.404 . S
C436 C439 1.539 . S
C437 C433 1.408 . S
C437 C436 1.404 . S
C437 H449 0.930 . S
C438 C434 1.524 1_554 S
C438 H450 0.956 . S
C438 H451 0.961 . S
C438 H452 0.961 . S
C439 C436 1.539 . S
C439 H453 0.958 . S
C439 H454 0.961 . S
C439 H455 0.960 . S
H440 C424 0.931 . S
H441 C429 0.929 . S
H442 C430 0.960 . S
H443 C430 0.962 . S
H444 C430 0.960 . S
H445 C431 0.961 . S
H446 C431 0.961 . S
H447 C431 0.961 . S
H448 C432 0.931 . S
H449 C437 0.930 . S
H450 C438 0.956 . S
H451 C438 0.961 . S
H452 C438 0.961 . S
H453 C439 0.958 . S
H454 C439 0.961 . S
H455 C439 0.960 . S
C456 C457 1.391 1_545 S
C456 C458 1.394 . S
C456 H472 0.931 . S
C457 C456 1.391 1_565 S
C457 C461 1.376 . S
C458 C456 1.394 . S
C458 C459 1.370 . S
C458 C462 1.531 . S
C459 C458 1.370 . S
C459 C460 1.408 1_445 S
C459 C467 1.504 1_456 S
C460 C459 1.408 1_665 S
C460 C461 1.392 1_655 S
C460 C463 1.511 . S
C461 C457 1.376 . S
C461 C460 1.392 1_455 S
C461 H473 0.929 . S
C462 C458 1.531 . S
C462 H474 0.962 . S
C462 H475 0.962 1_556 S
C462 H476 0.960 . S
C463 C460 1.511 . S
C463 H477 0.961 . S
C463 H478 0.961 . S
C463 H479 0.961 . S
C464 C465 1.370 . S
C464 C466 1.363 1_545 S
C464 H480 0.931 1_545 S
C465 C464 1.370 . S
C465 C469 1.408 . S
C466 C464 1.363 1_565 S
C466 C467 1.370 1_565 S
C466 C470 1.524 1_655 S
C467 C459 1.504 1_654 S
C467 C466 1.370 1_545 S
C467 C468 1.403 . S
C468 C467 1.403 . S
C468 C469 1.404 . S
C468 C471 1.539 1_554 S
C469 C465 1.408 . S
C469 C468 1.404 . S
C469 H481 0.930 . S
C470 C466 1.524 1_455 S
C470 H482 0.956 . S
C470 H483 0.961 . S
C470 H484 0.961 . S
C471 C468 1.539 1_556 S
C471 H485 0.958 . S
C471 H486 0.961 . S
C471 H487 0.960 . S
H472 C456 0.931 . S
H473 C461 0.929 . S
H474 C462 0.962 . S
H475 C462 0.962 1_554 S
H476 C462 0.960 . S
H477 C463 0.961 . S
H478 C463 0.961 . S
H479 C463 0.961 . S
H480 C464 0.931 1_565 S
H481 C469 0.930 . S
H482 C470 0.956 . S
H483 C470 0.961 . S
H484 C470 0.961 . S
H485 C471 0.958 . S
H486 C471 0.961 . S
H487 C471 0.960 . S
C488 C489 1.391 . S
C488 C490 1.394 . S
C488 H504 0.931 . S
C489 C488 1.391 . S
C489 C493 1.376 . S
C490 C488 1.394 . S
C490 C491 1.369 . S
C490 C494 1.531 . S
C491 C490 1.369 . S
C491 C492 1.410 . S
C491 C499 1.503 . S
C492 C491 1.410 . S
C492 C493 1.392 . S
C492 C495 1.511 . S
C493 C489 1.376 . S
C493 C492 1.392 . S
C493 H505 0.929 . S
C494 C490 1.531 . S
C494 H506 0.960 . S
C494 H507 0.962 . S
C494 H508 0.960 . S
C495 C492 1.511 . S
C495 H509 0.961 . S
C495 H510 0.961 . S
C495 H511 0.961 . S
C496 C497 1.370 . S
C496 C498 1.363 . S
C496 H512 0.931 . S
C497 C496 1.370 . S
C497 C501 1.408 . S
C498 C496 1.363 . S
C498 C499 1.370 . S
C498 C502 1.524 . S
C499 C491 1.503 . S
C499 C498 1.370 . S
C499 C500 1.403 . S
C500 C499 1.403 . S
C500 C501 1.404 . S
C500 C503 1.539 . S
C501 C497 1.408 . S
C501 C500 1.404 . S
C501 H513 0.930 . S
C502 C498 1.524 . S
C502 H514 0.956 . S
C502 H515 0.961 . S
C502 H516 0.961 . S
C503 C500 1.539 . S
C503 H517 0.958 . S
C503 H518 0.961 . S
C503 H519 0.960 . S
H504 C488 0.931 . S
H505 C493 0.929 . S
H506 C494 0.960 . S
H507 C494 0.962 . S
H508 C494 0.960 . S
H509 C495 0.961 . S
H510 C495 0.961 . S
H511 C495 0.961 . S
H512 C496 0.931 . S
H513 C501 0.930 . S
H514 C502 0.956 . S
H515 C502 0.961 . S
H516 C502 0.961 . S
H517 C503 0.958 . S
H518 C503 0.961 . S
H519 C503 0.960 . S
C520 C521 1.391 . S
C520 C522 1.394 . S
C520 H536 0.931 . S
C521 C520 1.391 . S
C521 C525 1.376 . S
C522 C520 1.394 . S
C522 C523 1.369 . S
C522 C526 1.531 . S
C523 C522 1.369 . S
C523 C524 1.410 . S
C523 C531 1.503 . S
C524 C523 1.410 . S
C524 C525 1.392 . S
C524 C527 1.511 . S
C525 C521 1.376 . S
C525 C524 1.392 . S
C525 H537 0.929 . S
C526 C522 1.531 . S
C526 H538 0.960 . S
C526 H539 0.962 . S
C526 H540 0.960 . S
C527 C524 1.511 . S
C527 H541 0.961 . S
C527 H542 0.961 . S
C527 H543 0.961 . S
C528 C529 1.370 . S
C528 C530 1.363 . S
C528 H544 0.931 . S
C529 C528 1.370 . S
C529 C533 1.408 . S
C530 C528 1.363 . S
C530 C531 1.370 . S
C530 C534 1.524 . S
C531 C523 1.503 . S
C531 C530 1.370 . S
C531 C532 1.403 . S
C532 C531 1.403 . S
C532 C533 1.404 . S
C532 C535 1.539 . S
C533 C529 1.408 . S
C533 C532 1.404 . S
C533 H545 0.930 . S
C534 C530 1.524 . S
C534 H546 0.956 . S
C534 H547 0.961 . S
C534 H548 0.961 . S
C535 C532 1.539 . S
C535 H549 0.958 . S
C535 H550 0.961 . S
C535 H551 0.960 . S
H536 C520 0.931 . S
H537 C525 0.929 . S
H538 C526 0.960 . S
H539 C526 0.962 . S
H540 C526 0.960 . S
H541 C527 0.961 . S
H542 C527 0.961 . S
H543 C527 0.961 . S
H544 C528 0.931 . S
H545 C533 0.930 . S
H546 C534 0.956 . S
H547 C534 0.961 . S
H548 C534 0.961 . S
H549 C535 0.958 . S
H550 C535 0.961 . S
H551 C535 0.960 . S
C552 C553 1.391 . S
C552 C554 1.394 . S
C552 H568 0.931 . S
C553 C552 1.391 . S
C553 C557 1.376 . S
C554 C552 1.394 . S
C554 C555 1.369 . S
C554 C558 1.531 . S
C555 C554 1.369 . S
C555 C556 1.410 . S
C555 C563 1.503 . S
C556 C555 1.410 . S
C556 C557 1.392 . S
C556 C559 1.511 . S
C557 C553 1.376 . S
C557 C556 1.392 . S
C557 H569 0.929 . S
C558 C554 1.531 . S
C558 H570 0.960 . S
C558 H571 0.962 . S
C558 H572 0.960 . S
C559 C556 1.511 . S
C559 H573 0.961 . S
C559 H574 0.961 . S
C559 H575 0.961 . S
C560 C561 1.370 . S
C560 C562 1.363 . S
C560 H576 0.931 . S
C561 C560 1.370 . S
C561 C565 1.408 . S
C562 C560 1.363 . S
C562 C563 1.370 . S
C562 C566 1.524 . S
C563 C555 1.503 . S
C563 C562 1.370 . S
C563 C564 1.403 . S
C564 C563 1.403 . S
C564 C565 1.404 . S
C564 C567 1.539 . S
C565 C561 1.408 . S
C565 C564 1.404 . S
C565 H577 0.930 . S
C566 C562 1.524 . S
C566 H578 0.956 . S
C566 H579 0.961 . S
C566 H580 0.961 . S
C567 C564 1.539 . S
C567 H581 0.958 . S
C567 H582 0.961 . S
C567 H583 0.960 . S
H568 C552 0.931 . S
H569 C557 0.929 . S
H570 C558 0.960 . S
H571 C558 0.962 . S
H572 C558 0.960 . S
H573 C559 0.961 . S
H574 C559 0.961 . S
H575 C559 0.961 . S
H576 C560 0.931 . S
H577 C565 0.930 . S
H578 C566 0.956 . S
H579 C566 0.961 . S
H580 C566 0.961 . S
H581 C567 0.958 . S
H582 C567 0.961 . S
H583 C567 0.960 . S
C584 C585 1.391 . S
C584 C586 1.394 . S
C584 H600 0.931 . S
C585 C584 1.391 . S
C585 C589 1.376 . S
C586 C584 1.394 . S
C586 C587 1.369 . S
C586 C590 1.531 . S
C587 C586 1.369 . S
C587 C588 1.410 . S
C587 C595 1.503 . S
C588 C587 1.410 . S
C588 C589 1.392 . S
C588 C591 1.511 . S
C589 C585 1.376 . S
C589 C588 1.392 . S
C589 H601 0.929 . S
C590 C586 1.531 . S
C590 H602 0.960 . S
C590 H603 0.962 . S
C590 H604 0.960 . S
C591 C588 1.511 . S
C591 H605 0.961 . S
C591 H606 0.961 . S
C591 H607 0.961 . S
C592 C593 1.370 . S
C592 C594 1.363 . S
C592 H608 0.931 . S
C593 C592 1.370 . S
C593 C597 1.408 . S
C594 C592 1.363 . S
C594 C595 1.370 . S
C594 C598 1.524 . S
C595 C587 1.503 . S
C595 C594 1.370 . S
C595 C596 1.403 . S
C596 C595 1.403 . S
C596 C597 1.404 . S
C596 C599 1.539 . S
C597 C593 1.408 . S
C597 C596 1.404 . S
C597 H609 0.930 . S
C598 C594 1.524 . S
C598 H610 0.956 . S
C598 H611 0.961 . S
C598 H612 0.961 . S
C599 C596 1.539 . S
C599 H613 0.958 . S
C599 H614 0.961 . S
C599 H615 0.960 . S
H600 C584 0.931 . S
H601 C589 0.929 . S
H602 C590 0.960 . S
H603 C590 0.962 . S
H604 C590 0.960 . S
H605 C591 0.961 . S
H606 C591 0.961 . S
H607 C591 0.961 . S
H608 C592 0.931 . S
H609 C597 0.930 . S
H610 C598 0.956 . S
H611 C598 0.961 . S
H612 C598 0.961 . S
H613 C599 0.958 . S
H614 C599 0.961 . S
H615 C599 0.960 . S
C105 C5 1.179 . S
C113 C34 1.145 . S
C137 C47 1.183 . S
C145 C18 1.146 . S
C169 C31 1.167 . S
C177 C8 1.161 . S
C201 C44 1.180 . S
C209 C21 1.152 . S
C233 C86 1.180 . S
C241 C57 1.146 . S
C265 C70 1.105 . S
C273 C99 1.144 . S
C297 C83 1.181 . S
C305 C60 1.145 . S
C329 C96 1.173 . S
C337 C73 1.154 . S
C361 C0 1.510 . S
C369 C52 1.489 . S
C393 C13 1.516 . S
C401 C65 1.485 . S
C425 C26 1.469 . S
C433 C78 1.505 . S
C457 C91 1.502 . S
C465 C39 1.492 . S
C489 C10 1.521 . S
C497 C23 1.519 . S
C521 C49 1.504 . S
C529 C36 1.512 . S
C553 C75 1.520 . S
C561 C62 1.518 . S
C585 C88 1.501 . S
C593 C101 1.512 . S
