# Generated by pormake.
# Topology ure, (4)-cn, num edge types: 1
# Building blocks:
#     Node 0, Type 0, BuildingBlock: QUQFOY_clean_sbu_1, # of connection points: 4
#     Node 1, Type 0, BuildingBlock: QUQFOY_clean_sbu_1, # of connection points: 4
#     Node 2, Type 0, BuildingBlock: QUQFOY_clean_sbu_1, # of connection points: 4
#     Node 3, Type 0, BuildingBlock: QUQFOY_clean_sbu_1, # of connection points: 4
#     Node 4, Type 0, BuildingBlock: QUQFOY_clean_sbu_1, # of connection points: 4
#     Node 5, Type 0, BuildingBlock: QUQFOY_clean_sbu_1, # of connection points: 4
#     Node 6, Type 0, BuildingBlock: QUQFOY_clean_sbu_1, # of connection points: 4
#     Node 7, Type 0, BuildingBlock: QUQFOY_clean_sbu_1, # of connection points: 4
#     Node 8, Type 0, BuildingBlock: QUQFOY_clean_sbu_1, # of connection points: 4
#     Node 9, Type 0, BuildingBlock: QUQFOY_clean_sbu_1, # of connection points: 4
#     Node 10, Type 0, BuildingBlock: QUQFOY_clean_sbu_1, # of connection points: 4
#     Node 11, Type 0, BuildingBlock: QUQFOY_clean_sbu_1, # of connection points: 4
#     Node 12, Type 0, BuildingBlock: QUQFOY_clean_sbu_1, # of connection points: 4
#     Node 13, Type 0, BuildingBlock: QUQFOY_clean_sbu_1, # of connection points: 4
#     Node 14, Type 0, BuildingBlock: QUQFOY_clean_sbu_1, # of connection points: 4
#     Node 15, Type 0, BuildingBlock: QUQFOY_clean_sbu_1, # of connection points: 4
#     Edge 16, Type (0, 0), BuildingBlock: MIFKUJ_clean_linker_0, # of connection points: 2
#     Edge 17, Type (0, 0), BuildingBlock: MIFKUJ_clean_linker_0, # of connection points: 2
#     Edge 18, Type (0, 0), BuildingBlock: MIFKUJ_clean_linker_0, # of connection points: 2
#     Edge 19, Type (0, 0), BuildingBlock: MIFKUJ_clean_linker_0, # of connection points: 2
#     Edge 20, Type (0, 0), BuildingBlock: MIFKUJ_clean_linker_0, # of connection points: 2
#     Edge 21, Type (0, 0), BuildingBlock: MIFKUJ_clean_linker_0, # of connection points: 2
#     Edge 22, Type (0, 0), BuildingBlock: MIFKUJ_clean_linker_0, # of connection points: 2
#     Edge 23, Type (0, 0), BuildingBlock: MIFKUJ_clean_linker_0, # of connection points: 2
#     Edge 24, Type (0, 0), BuildingBlock: MIFKUJ_clean_linker_0, # of connection points: 2
#     Edge 25, Type (0, 0), BuildingBlock: MIFKUJ_clean_linker_0, # of connection points: 2
#     Edge 26, Type (0, 0), BuildingBlock: MIFKUJ_clean_linker_0, # of connection points: 2
#     Edge 27, Type (0, 0), BuildingBlock: MIFKUJ_clean_linker_0, # of connection points: 2
#     Edge 28, Type (0, 0), BuildingBlock: MIFKUJ_clean_linker_0, # of connection points: 2
#     Edge 29, Type (0, 0), BuildingBlock: MIFKUJ_clean_linker_0, # of connection points: 2
#     Edge 30, Type (0, 0), BuildingBlock: MIFKUJ_clean_linker_0, # of connection points: 2
#     Edge 31, Type (0, 0), BuildingBlock: MIFKUJ_clean_linker_0, # of connection points: 2
#     Edge 32, Type (0, 0), BuildingBlock: MIFKUJ_clean_linker_0, # of connection points: 2
#     Edge 33, Type (0, 0), BuildingBlock: MIFKUJ_clean_linker_0, # of connection points: 2
#     Edge 34, Type (0, 0), BuildingBlock: MIFKUJ_clean_linker_0, # of connection points: 2
#     Edge 35, Type (0, 0), BuildingBlock: MIFKUJ_clean_linker_0, # of connection points: 2
#     Edge 36, Type (0, 0), BuildingBlock: MIFKUJ_clean_linker_0, # of connection points: 2
#     Edge 37, Type (0, 0), BuildingBlock: MIFKUJ_clean_linker_0, # of connection points: 2
#     Edge 38, Type (0, 0), BuildingBlock: MIFKUJ_clean_linker_0, # of connection points: 2
#     Edge 39, Type (0, 0), BuildingBlock: MIFKUJ_clean_linker_0, # of connection points: 2
#     Edge 40, Type (0, 0), BuildingBlock: MIFKUJ_clean_linker_0, # of connection points: 2
#     Edge 41, Type (0, 0), BuildingBlock: MIFKUJ_clean_linker_0, # of connection points: 2
#     Edge 42, Type (0, 0), BuildingBlock: MIFKUJ_clean_linker_0, # of connection points: 2
#     Edge 43, Type (0, 0), BuildingBlock: MIFKUJ_clean_linker_0, # of connection points: 2
#     Edge 44, Type (0, 0), BuildingBlock: MIFKUJ_clean_linker_0, # of connection points: 2
#     Edge 45, Type (0, 0), BuildingBlock: MIFKUJ_clean_linker_0, # of connection points: 2
#     Edge 46, Type (0, 0), BuildingBlock: MIFKUJ_clean_linker_0, # of connection points: 2
#     Edge 47, Type (0, 0), BuildingBlock: MIFKUJ_clean_linker_0, # of connection points: 2
# Relax obj value: 0.283
# Max RMSD: 0.316
# Mean RMSD: 0.224
data_MOF--net-ure--node1-QUQFOY_clean_sbu_1--edge1-MIFKUJ_clean_linker_0
_symmetry_space_group_name_H-M    P1
_symmetry_Int_Tables_number       1
_symmetry_cell_setting            triclinic
loop_
_symmetry_equiv_pos_as_xyz
'x, y, z'
_cell_length_a     40.247712
_cell_length_b     44.006642
_cell_length_c     41.630158
_cell_angle_alpha  94.341715
_cell_angle_beta   94.362028
_cell_angle_gamma 97.720717
loop_
_atom_site_label
_atom_site_type_symbol
_atom_site_fract_x
_atom_site_fract_y
_atom_site_fract_z
_atom_type_partial_charge
O0 O 0.32479 0.25381 0.26357 0.0
Cd1 Cd 0.27707 0.24771 0.27952 0.0
Cd2 Cd 0.29853 0.31398 0.29836 0.0
O3 O 0.33973 0.30385 0.27551 0.0
O4 O 0.258 0.20498 0.2614 0.0
O5 O 0.23648 0.24603 0.24719 0.0
C6 C 0.23582 0.21652 0.24399 0.0
C7 C 0.28556 0.36413 0.2943 0.0
C8 C 0.34604 0.278 0.26364 0.0
C9 C 0.28181 0.26995 0.35034 0.0
O10 O 0.29193 0.29671 0.34232 0.0
O11 O 0.27332 0.24743 0.32898 0.0
O12 O 0.31118 0.35875 0.31225 0.0
O13 O 0.26688 0.34088 0.27836 0.0
O14 O 0.0211 0.97437 0.53625 0.0
Cd15 Cd 0.00834 0.97657 0.48757 0.0
Cd16 Cd 0.01827 0.03665 0.50401 0.0
O17 O 0.04073 0.02365 0.54617 0.0
O18 O 0.01923 0.93885 0.46367 0.0
O19 O 0.04554 0.98568 0.45888 0.0
C20 C 0.04225 0.95634 0.45111 0.0
C21 C 0.03846 0.08073 0.48012 0.0
C22 C 0.03595 0.99668 0.55554 0.0
C23 C 0.94774 0.00728 0.48187 0.0
O24 O 0.96661 0.03001 0.4972 0.0
O25 O 0.95975 0.98298 0.47325 0.0
O26 O 0.02809 0.08225 0.50862 0.0
O27 O 0.04036 0.05388 0.46614 0.0
O28 O 0.23846 0.78964 0.76305 0.0
Cd29 Cd 0.29001 0.79593 0.77416 0.0
Cd30 Cd 0.27533 0.73247 0.78511 0.0
O31 O 0.22804 0.73946 0.76682 0.0
O32 O 0.30809 0.83432 0.7549 0.0
O33 O 0.32068 0.78842 0.73913 0.0
C34 C 0.32371 0.81765 0.736 0.0
C35 C 0.29048 0.68269 0.77857 0.0
C36 C 0.21787 0.76481 0.76096 0.0
C37 C 0.30271 0.78037 0.84171 0.0
O38 O 0.29109 0.75306 0.83055 0.0
O39 O 0.30624 0.80183 0.82293 0.0
O40 O 0.26761 0.68908 0.79686 0.0
O41 O 0.304 0.70427 0.76239 0.0
O42 O 0.54111 0.95488 0.9201 0.0
Cd43 Cd 0.48927 0.94829 0.91655 0.0
Cd44 Cd 0.49938 0.9429 0.98318 0.0
O45 O 0.54826 0.95859 0.97352 0.0
O46 O 0.47207 0.97163 0.88113 0.0
O47 O 0.46589 0.98308 0.93294 0.0
C48 C 0.46151 0.98936 0.90316 0.0
C49 C 0.48676 0.95099 0.03702 0.0
C50 C 0.5603 0.95993 0.9462 0.0
C51 C 0.4658 0.8873 0.93635 0.0
O52 O 0.47766 0.89954 0.96417 0.0
O53 O 0.46644 0.90313 0.91208 0.0
O54 O 0.50664 0.93196 0.02845 0.0
O55 O 0.47479 0.96688 0.01522 0.0
O56 O 0.29753 0.70434 0.28541 0.0
Cd57 Cd 0.31147 0.75129 0.28884 0.0
Cd58 Cd 0.32615 0.73921 0.22639 0.0
O59 O 0.30334 0.69535 0.23336 0.0
O60 O 0.28849 0.76901 0.32486 0.0
O61 O 0.27979 0.78007 0.27414 0.0
C62 C 0.27341 0.78393 0.30404 0.0
C63 C 0.31983 0.757 0.17496 0.0
C64 C 0.29531 0.68578 0.26017 0.0
C65 C 0.38316 0.76442 0.27801 0.0
O66 O 0.37358 0.75386 0.24907 0.0
O67 O 0.3619 0.76646 0.29877 0.0
O68 O 0.33718 0.73519 0.18065 0.0
O69 O 0.30453 0.76812 0.19835 0.0
O70 O 0.4974 0.97626 0.39427 0.0
Cd71 Cd 0.52257 0.98135 0.43988 0.0
Cd72 Cd 0.5297 0.04361 0.4291 0.0
O73 O 0.50159 0.02568 0.38676 0.0
O74 O 0.50814 0.94307 0.46102 0.0
O75 O 0.49834 0.98916 0.47966 0.0
C76 C 0.49544 0.95985 0.48233 0.0
C77 C 0.52084 0.09268 0.44983 0.0
C78 C 0.4917 0.9977 0.37667 0.0
C79 C 0.59287 0.0132 0.43816 0.0
O80 O 0.57952 0.03719 0.43333 0.0
O81 O 0.57463 0.98801 0.44199 0.0
O82 O 0.53493 0.0884 0.42349 0.0
O83 O 0.51084 0.06875 0.46453 0.0
O84 O 0.33139 0.35381 0.80544 0.0
Cd85 Cd 0.30804 0.30963 0.80965 0.0
Cd86 Cd 0.2859 0.31031 0.74588 0.0
O87 O 0.31239 0.3541 0.75428 0.0
O88 O 0.33194 0.28853 0.84322 0.0
O89 O 0.32515 0.27184 0.79121 0.0
C90 C 0.33596 0.26799 0.8205 0.0
C91 C 0.28363 0.28846 0.6923 0.0
C92 C 0.32866 0.36775 0.77989 0.0
C93 C 0.23433 0.30391 0.7959 0.0
O94 O 0.2407 0.30321 0.76644 0.0
O95 O 0.25812 0.3067 0.81823 0.0
O96 O 0.26706 0.31044 0.70024 0.0
O97 O 0.30215 0.27857 0.71476 0.0
O98 O 0.00995 0.98557 0.90868 0.0
Cd99 Cd 0.99052 0.988 0.95336 0.0
Cd100 Cd 0.97124 0.92109 0.93396 0.0
O101 O 0.99593 0.93565 0.89527 0.0
O102 O 0.00763 0.03063 0.9732 0.0
O103 O 0.02074 0.989 0.99467 0.0
C104 C 0.02351 0.01867 0.99599 0.0
C105 C 0.97551 0.86967 0.94381 0.0
C106 C 0.00934 0.96204 0.88879 0.0
C107 C 0.91649 0.96096 0.94707 0.0
O108 O 0.92481 0.93472 0.93918 0.0
O109 O 0.93872 0.98443 0.95405 0.0
O110 O 0.95819 0.87664 0.91889 0.0
O111 O 0.99042 0.89203 0.96386 0.0
O112 O 0.8088 0.21835 0.8338 0.0
Cd113 Cd 0.81837 0.26537 0.83144 0.0
Cd114 Cd 0.82613 0.25096 0.76686 0.0
O115 O 0.81252 0.20745 0.78167 0.0
O116 O 0.79698 0.28729 0.86595 0.0
O117 O 0.78164 0.28753 0.81359 0.0
C118 C 0.77805 0.2965 0.84328 0.0
C119 C 0.80985 0.25644 0.71251 0.0
C120 C 0.80727 0.19871 0.80951 0.0
C121 C 0.8855 0.28663 0.81015 0.0
O122 O 0.87308 0.27472 0.78235 0.0
O123 O 0.86782 0.28536 0.8341 0.0
O124 O 0.83326 0.24068 0.7208 0.0
O125 O 0.79494 0.26914 0.73526 0.0
O126 O 0.96949 0.42151 0.92045 0.0
Cd127 Cd 0.99309 0.43471 0.96617 0.0
Cd128 Cd 0.99483 0.49387 0.9423 0.0
O129 O 0.9613 0.46791 0.9077 0.0
O130 O 0.9836 0.39846 0.9917 0.0
O131 O 0.96727 0.44349 0.00465 0.0
C132 C 0.9685 0.41531 0.01089 0.0
C133 C 0.98882 0.54635 0.95013 0.0
C134 C 0.95713 0.4389 0.90112 0.0
C135 C 0.06022 0.46705 0.95505 0.0
O136 O 0.0445 0.48694 0.94236 0.0
O137 O 0.04462 0.44521 0.96866 0.0
O138 O 0.99762 0.53443 0.92352 0.0
O139 O 0.98269 0.52834 0.97267 0.0
O140 O 0.82974 0.83801 0.34113 0.0
Cd141 Cd 0.80941 0.79217 0.33797 0.0
Cd142 Cd 0.79601 0.79996 0.27101 0.0
O143 O 0.81979 0.84307 0.28896 0.0
O144 O 0.82885 0.77082 0.37389 0.0
O145 O 0.83354 0.75769 0.32212 0.0
C146 C 0.83903 0.75255 0.35214 0.0
C147 C 0.79712 0.79023 0.21464 0.0
C148 C 0.83076 0.85453 0.31736 0.0
C149 C 0.73783 0.78238 0.31281 0.0
O150 O 0.74882 0.78635 0.2854 0.0
O151 O 0.75802 0.78423 0.33803 0.0
O152 O 0.78006 0.81002 0.22705 0.0
O153 O 0.81448 0.77584 0.2342 0.0
O154 O 0.04513 0.44474 0.4605 0.0
Cd155 Cd 0.9936 0.43504 0.45303 0.0
Cd156 Cd 0.00176 0.41267 0.51454 0.0
O157 O 0.05114 0.43161 0.51055 0.0
O158 O 0.9803 0.46092 0.41825 0.0
O159 O 0.96519 0.4668 0.46809 0.0
C160 C 0.96515 0.47579 0.43922 0.0
C161 C 0.98385 0.41289 0.56699 0.0
C162 C 0.06378 0.44221 0.4859 0.0
C163 C 0.97416 0.36785 0.45568 0.0
O164 O 0.98335 0.3729 0.48571 0.0
O165 O 0.97516 0.38987 0.43755 0.0
O166 O 0.00544 0.39584 0.55764 0.0
O167 O 0.97258 0.43059 0.54664 0.0
O168 O 0.49075 0.47269 0.04454 0.0
Cd169 Cd 0.48336 0.47586 0.9951 0.0
Cd170 Cd 0.48248 0.53474 0.01489 0.0
O171 O 0.50852 0.52225 0.05537 0.0
O172 O 0.49891 0.43969 0.97241 0.0
O173 O 0.52408 0.48761 0.97136 0.0
C174 C 0.52278 0.45857 0.96286 0.0
C175 C 0.49419 0.58412 0.99795 0.0
C176 C 0.50457 0.4951 0.06425 0.0
C177 C 0.41782 0.4974 0.98667 0.0
O178 O 0.43153 0.51956 0.00667 0.0
O179 O 0.43542 0.47803 0.9752 0.0
O180 O 0.48189 0.57944 0.02507 0.0
O181 O 0.50229 0.56076 0.98114 0.0
O182 O 0.84825 0.76049 0.7872 0.0
Cd183 Cd 0.79909 0.75656 0.79999 0.0
Cd184 Cd 0.82112 0.82311 0.81482 0.0
O185 O 0.86165 0.81115 0.792 0.0
O186 O 0.77749 0.71478 0.78096 0.0
O187 O 0.7612 0.75778 0.76551 0.0
C188 C 0.75791 0.72805 0.76234 0.0
C189 C 0.81201 0.87465 0.81393 0.0
C190 C 0.86894 0.78449 0.78432 0.0
C191 C 0.80162 0.78185 0.86896 0.0
O192 O 0.81392 0.80731 0.85931 0.0
O193 O 0.79183 0.7585 0.84894 0.0
O194 O 0.8372 0.86687 0.83058 0.0
O195 O 0.79207 0.85322 0.79649 0.0
O196 O 0.70847 0.26496 0.28381 0.0
Cd197 Cd 0.75734 0.26445 0.30275 0.0
Cd198 Cd 0.73119 0.20475 0.30785 0.0
O199 O 0.69382 0.21475 0.2754 0.0
O200 O 0.78307 0.30242 0.28885 0.0
O201 O 0.79171 0.25548 0.27196 0.0
C202 C 0.79856 0.28491 0.27075 0.0
C203 C 0.74953 0.15648 0.30415 0.0
C204 C 0.68749 0.24191 0.27201 0.0
C205 C 0.74926 0.24662 0.36892 0.0
O206 O 0.73137 0.22261 0.35495 0.0
O207 O 0.76584 0.26559 0.3525 0.0
O208 O 0.71969 0.15976 0.31163 0.0
O209 O 0.76874 0.18058 0.29711 0.0
O210 O 0.50456 0.51597 0.42511 0.0
Cd211 Cd 0.49309 0.51687 0.47309 0.0
Cd212 Cd 0.48102 0.45294 0.45584 0.0
O213 O 0.50658 0.46607 0.41718 0.0
O214 O 0.51265 0.55847 0.4941 0.0
O215 O 0.52889 0.51538 0.50945 0.0
C216 C 0.53167 0.54508 0.51318 0.0
C217 C 0.48721 0.40386 0.47191 0.0
C218 C 0.51083 0.49285 0.40748 0.0
C219 C 0.4222 0.48678 0.47026 0.0
O220 O 0.43259 0.46316 0.45737 0.0
O221 O 0.44267 0.51041 0.4814 0.0
O222 O 0.47097 0.40769 0.44507 0.0
O223 O 0.50078 0.42818 0.48993 0.0
H224 H 0.19009 0.23352 0.19875 0.0
H225 H 0.15249 0.19987 0.15788 0.0
H226 H 0.18861 0.12035 0.19514 0.0
H227 H 0.2266 0.15377 0.23548 0.0
H228 H 0.18711 0.11565 0.13175 0.0
H229 H 0.10949 0.13961 0.20872 0.0
H230 H 0.08056 0.17346 0.24362 0.0
H231 H 0.04219 0.21389 0.16031 0.0
H232 H 0.07127 0.18055 0.12493 0.0
H233 H 0.06313 0.00127 0.04611 0.0
H234 H 0.09768 0.03473 0.08932 0.0
H235 H 0.06536 0.11453 0.04919 0.0
H236 H 0.03066 0.08134 0.00618 0.0
H237 H 0.06441 0.11894 0.11419 0.0
H238 H 0.1426 0.09537 0.0375 0.0
H239 H 0.17162 0.06158 0.00262 0.0
H240 H 0.20893 0.02036 0.08584 0.0
H241 H 0.17974 0.05364 0.12118 0.0
C242 C 0.18982 0.20886 0.19838 0.0
C243 C 0.21137 0.19637 0.22041 0.0
C244 C 0.16822 0.1896 0.17506 0.0
C245 C 0.16747 0.15747 0.17351 0.0
C246 C 0.18873 0.14502 0.19574 0.0
C247 C 0.21039 0.16421 0.2189 0.0
C248 C 0.14543 0.13678 0.14818 0.0
C249 C 0.16019 0.11609 0.12827 0.0
C250 C 0.11041 0.13776 0.14301 0.0
C251 C 0.09284 0.15779 0.16422 0.0
C252 C 0.0951 0.15589 0.19787 0.0
C253 C 0.07864 0.17495 0.21773 0.0
C254 C 0.05962 0.19587 0.2042 0.0
C255 C 0.05697 0.1977 0.17076 0.0
C256 C 0.07341 0.17871 0.15079 0.0
C257 C 0.06335 0.02594 0.04651 0.0
C258 C 0.04422 0.03861 0.02259 0.0
C259 C 0.0832 0.04505 0.07118 0.0
C260 C 0.08438 0.07721 0.07237 0.0
C261 C 0.06488 0.08983 0.04881 0.0
C262 C 0.04514 0.07078 0.02413 0.0
C263 C 0.10611 0.09778 0.09796 0.0
C264 C 0.09131 0.11847 0.11781 0.0
C265 C 0.14111 0.09679 0.10314 0.0
C266 C 0.15869 0.07677 0.08194 0.0
C267 C 0.15676 0.07892 0.04833 0.0
C268 C 0.17328 0.0599 0.02848 0.0
C269 C 0.19203 0.03878 0.042 0.0
C270 C 0.19436 0.0367 0.0754 0.0
C271 C 0.17785 0.05565 0.09535 0.0
H272 H 0.20481 0.02407 0.02659 0.0
H273 H 0.04689 0.2106 0.21962 0.0
H274 H 0.09631 0.98599 0.4242 0.0
H275 H 0.13589 0.96262 0.39149 0.0
H276 H 0.07964 0.87288 0.39736 0.0
H277 H 0.03993 0.89597 0.42955 0.0
H278 H 0.17686 0.92263 0.40786 0.0
H279 H 0.08421 0.8266 0.33061 0.0
H280 H 0.02646 0.81951 0.30408 0.0
H281 H 0.03214 0.9171 0.29873 0.0
H282 H 0.09008 0.92476 0.3248 0.0
H283 H 0.25429 0.79467 0.36474 0.0
H284 H 0.21614 0.82967 0.38276 0.0
H285 H 0.20114 0.85641 0.28572 0.0
H286 H 0.23914 0.82083 0.26724 0.0
H287 H 0.14258 0.8472 0.31246 0.0
H288 H 0.24997 0.90531 0.34278 0.0
H289 H 0.30878 0.91479 0.36666 0.0
H290 H 0.27568 0.89896 0.46038 0.0
H291 H 0.21664 0.88903 0.43699 0.0
C292 C 0.09217 0.96133 0.41817 0.0
C293 C 0.06498 0.94283 0.42949 0.0
C294 C 0.11485 0.94801 0.39956 0.0
C295 C 0.11057 0.91604 0.39172 0.0
C296 C 0.08315 0.89765 0.4026 0.0
C297 C 0.06054 0.91089 0.42118 0.0
C298 C 0.13571 0.90144 0.37388 0.0
C299 C 0.16942 0.90635 0.38684 0.0
C300 C 0.12617 0.88071 0.34599 0.0
C301 C 0.09145 0.87626 0.32988 0.0
C302 C 0.07322 0.84654 0.32361 0.0
C303 C 0.04043 0.84242 0.30869 0.0
C304 C 0.02561 0.86784 0.2998 0.0
C305 C 0.0436 0.89744 0.30573 0.0
C306 C 0.07641 0.90168 0.32062 0.0
C307 C 0.24295 0.80797 0.34715 0.0
C308 C 0.24986 0.80504 0.31455 0.0
C309 C 0.22126 0.82813 0.35756 0.0
C310 C 0.20622 0.84605 0.33571 0.0
C311 C 0.21263 0.8429 0.30301 0.0
C312 C 0.23436 0.82261 0.29251 0.0
C313 C 0.18335 0.86752 0.34724 0.0
C314 C 0.1501 0.86386 0.33316 0.0
C315 C 0.19344 0.88985 0.37371 0.0
C316 C 0.22887 0.89627 0.38807 0.0
C317 C 0.25523 0.90371 0.36845 0.0
C318 C 0.2886 0.90918 0.38191 0.0
C319 C 0.29596 0.90744 0.415 0.0
C320 C 0.26993 0.90032 0.43474 0.0
C321 C 0.23649 0.89483 0.42141 0.0
H322 H 0.32182 0.91164 0.42533 0.0
H323 H 0.00021 0.8646 0.28827 0.0
H324 H 0.4793 0.89863 0.48956 0.0
H325 H 0.45049 0.87492 0.53288 0.0
H326 H 0.44315 0.9648 0.57845 0.0
H327 H 0.47205 0.98882 0.53502 0.0
H328 H 0.46391 0.92609 0.62212 0.0
H329 H 0.37468 0.92362 0.5394 0.0
H330 H 0.34532 0.91307 0.48476 0.0
H331 H 0.34916 0.81638 0.48882 0.0
H332 H 0.37893 0.82641 0.54344 0.0
H333 H 0.34111 0.87883 0.72937 0.0
H334 H 0.3716 0.9024 0.68694 0.0
H335 H 0.38148 0.81241 0.64323 0.0
H336 H 0.35093 0.78853 0.68579 0.0
H337 H 0.35959 0.85113 0.59876 0.0
H338 H 0.4484 0.85495 0.68334 0.0
H339 H 0.47581 0.86702 0.73869 0.0
H340 H 0.47086 0.96316 0.73146 0.0
H341 H 0.44298 0.95161 0.6762 0.0
C342 C 0.47156 0.91342 0.50876 0.0
C343 C 0.47794 0.94565 0.50878 0.0
C344 C 0.45496 0.89979 0.53346 0.0
C345 C 0.44439 0.91806 0.55878 0.0
C346 C 0.45103 0.95026 0.55912 0.0
C347 C 0.46746 0.96394 0.53424 0.0
C348 C 0.42671 0.90343 0.585 0.0
C349 C 0.44085 0.91002 0.61706 0.0
C350 C 0.39699 0.88197 0.57835 0.0
C351 C 0.37937 0.87581 0.54538 0.0
C352 C 0.36957 0.90013 0.52853 0.0
C353 C 0.35277 0.89424 0.49758 0.0
C354 C 0.34546 0.86408 0.48326 0.0
C355 C 0.35488 0.83974 0.49992 0.0
C356 C 0.37169 0.84551 0.53089 0.0
C357 C 0.34992 0.86399 0.71086 0.0
C358 C 0.34362 0.83177 0.711 0.0
C359 C 0.36745 0.87753 0.68666 0.0
C360 C 0.37901 0.85919 0.66201 0.0
C361 C 0.37281 0.827 0.66205 0.0
C362 C 0.35548 0.8134 0.68645 0.0
C363 C 0.39685 0.87371 0.63584 0.0
C364 C 0.38271 0.86712 0.60379 0.0
C365 C 0.42642 0.89535 0.64254 0.0
C366 C 0.4433 0.90237 0.67573 0.0
C367 C 0.4529 0.87864 0.69364 0.0
C368 C 0.46857 0.88539 0.72498 0.0
C369 C 0.475 0.91583 0.73861 0.0
C370 C 0.46584 0.93959 0.72089 0.0
C371 C 0.45013 0.93295 0.68954 0.0
H372 H 0.48713 0.92101 0.76288 0.0
H373 H 0.33242 0.85956 0.45931 0.0
H374 H 0.44568 0.0063 0.84266 0.0
H375 H 0.4239 0.05312 0.8283 0.0
H376 H 0.42186 0.08198 0.92941 0.0
H377 H 0.44301 0.03478 0.94398 0.0
H378 H 0.36687 0.09386 0.89601 0.0
H379 H 0.48539 0.11232 0.88489 0.0
H380 H 0.53912 0.10131 0.86513 0.0
H381 H 0.49868 0.10431 0.76714 0.0
H382 H 0.44452 0.11494 0.7863 0.0
H383 H 0.35564 0.25136 0.88019 0.0
H384 H 0.37656 0.2038 0.89334 0.0
H385 H 0.37073 0.1735 0.79186 0.0
H386 H 0.3498 0.22119 0.77841 0.0
H387 H 0.42935 0.16228 0.82479 0.0
H388 H 0.31081 0.14472 0.83683 0.0
H389 H 0.25758 0.15617 0.85738 0.0
H390 H 0.29902 0.15219 0.95486 0.0
H391 H 0.3527 0.14115 0.9349 0.0
C392 C 0.44042 0.0225 0.86188 0.0
C393 C 0.44626 0.01685 0.8945 0.0
C394 C 0.42813 0.04938 0.85361 0.0
C395 C 0.4218 0.07141 0.87776 0.0
C396 C 0.42668 0.06541 0.91034 0.0
C397 C 0.43881 0.03841 0.91864 0.0
C398 C 0.41046 0.10081 0.86905 0.0
C399 C 0.3808 0.109 0.8808 0.0
C400 C 0.4282 0.12034 0.84862 0.0
C401 C 0.46079 0.11413 0.83702 0.0
C402 C 0.48787 0.11041 0.85912 0.0
C403 C 0.51842 0.10427 0.84803 0.0
C404 C 0.52229 0.10203 0.8149 0.0
C405 C 0.49564 0.10601 0.79279 0.0
C406 C 0.46502 0.11212 0.80376 0.0
C407 C 0.359 0.23472 0.86059 0.0
C408 C 0.35091 0.24007 0.82822 0.0
C409 C 0.37081 0.20744 0.8682 0.0
C410 C 0.37479 0.18489 0.84362 0.0
C411 C 0.36774 0.19054 0.81122 0.0
C412 C 0.35575 0.2178 0.80358 0.0
C413 C 0.38586 0.15529 0.85183 0.0
C414 C 0.41545 0.14709 0.83999 0.0
C415 C 0.36817 0.13583 0.87231 0.0
C416 C 0.33589 0.14241 0.88438 0.0
C417 C 0.30867 0.14655 0.86266 0.0
C418 C 0.2784 0.15291 0.8742 0.0
C419 C 0.27495 0.15499 0.90741 0.0
C420 C 0.30175 0.15062 0.92914 0.0
C421 C 0.33209 0.14428 0.91773 0.0
H422 H 0.25148 0.15991 0.91629 0.0
H423 H 0.54596 0.09728 0.80636 0.0
H424 H 0.71732 0.2998 0.81059 0.0
H425 H 0.6748 0.33147 0.82671 0.0
H426 H 0.74159 0.37238 0.90938 0.0
H427 H 0.7829 0.3392 0.8945 0.0
H428 H 0.68557 0.36077 0.92909 0.0
H429 H 0.72106 0.41107 0.83758 0.0
H430 H 0.73431 0.41592 0.78117 0.0
H431 H 0.63154 0.38193 0.74761 0.0
H432 H 0.61776 0.37649 0.80382 0.0
H433 H 0.58796 0.48464 0.96033 0.0
H434 H 0.63256 0.46125 0.93477 0.0
H435 H 0.56047 0.38287 0.8971 0.0
H436 H 0.51605 0.40553 0.92343 0.0
H437 H 0.61982 0.41736 0.85417 0.0
H438 H 0.59115 0.36093 0.95024 0.0
H439 H 0.58115 0.36165 0.00803 0.0
H440 H 0.6779 0.41573 0.03341 0.0
H441 H 0.68818 0.41566 0.97566 0.0
C442 C 0.72286 0.31572 0.83209 0.0
C443 C 0.75323 0.317 0.85142 0.0
C444 C 0.69869 0.33403 0.84117 0.0
C445 C 0.705 0.35477 0.86911 0.0
C446 C 0.73587 0.35653 0.88786 0.0
C447 C 0.75953 0.3376 0.87932 0.0
C448 C 0.67886 0.37327 0.88003 0.0
C449 C 0.67172 0.37342 0.91258 0.0
C450 C 0.6603 0.38983 0.85876 0.0
C451 C 0.66846 0.39311 0.82491 0.0
C452 C 0.70134 0.40442 0.81816 0.0
C453 C 0.70893 0.40731 0.78622 0.0
C454 C 0.6838 0.39917 0.76082 0.0
C455 C 0.651 0.3882 0.76731 0.0
C456 C 0.64327 0.38524 0.79921 0.0
C457 C 0.58155 0.46269 0.94612 0.0
C458 C 0.54865 0.44677 0.944 0.0
C459 C 0.60698 0.44941 0.93155 0.0
C460 C 0.59963 0.42044 0.91408 0.0
C461 C 0.56647 0.40533 0.91038 0.0
C462 C 0.54123 0.41821 0.92556 0.0
C463 C 0.62703 0.40438 0.90268 0.0
C464 C 0.63418 0.40474 0.8703 0.0
C465 C 0.64626 0.3889 0.92411 0.0
C466 C 0.64023 0.3886 0.95873 0.0
C467 C 0.61012 0.3732 0.96815 0.0
C468 C 0.60444 0.37344 0.00088 0.0
C469 C 0.62883 0.38882 0.02438 0.0
C470 C 0.659 0.40389 0.01518 0.0
C471 C 0.66477 0.40375 0.98247 0.0
H472 H 0.62439 0.38898 0.0497 0.0
H473 H 0.68974 0.40142 0.73611 0.0
H474 H 0.93913 0.44539 0.05898 0.0
H475 H 0.91363 0.42337 0.1052 0.0
H476 H 0.93767 0.33415 0.07266 0.0
H477 H 0.963 0.35586 0.0265 0.0
H478 H 0.87329 0.33094 0.0888 0.0
H479 H 0.98321 0.3759 0.13623 0.0
H480 H 0.03067 0.41757 0.15025 0.0
H481 H 0.96698 0.47015 0.20306 0.0
H482 H 0.91899 0.42895 0.18896 0.0
H483 H 0.83311 0.2546 0.2271 0.0
H484 H 0.86571 0.27683 0.18512 0.0
H485 H 0.8474 0.36756 0.21941 0.0
H486 H 0.81545 0.34565 0.26173 0.0
H487 H 0.91004 0.36978 0.20269 0.0
H488 H 0.80004 0.32709 0.1542 0.0
H489 H 0.75141 0.28663 0.13983 0.0
H490 H 0.81375 0.2314 0.08848 0.0
H491 H 0.86288 0.27138 0.10293 0.0
C492 C 0.93902 0.4211 0.06171 0.0
C493 C 0.95312 0.4024 0.03906 0.0
C494 C 0.92459 0.40858 0.08821 0.0
C495 C 0.92399 0.37714 0.09252 0.0
C496 C 0.93788 0.35845 0.06984 0.0
C497 C 0.95242 0.37095 0.04349 0.0
C498 C 0.90825 0.36347 0.12023 0.0
C499 C 0.88166 0.33914 0.11372 0.0
C500 C 0.91859 0.37468 0.15272 0.0
C501 C 0.94742 0.39946 0.16126 0.0
C502 C 0.97925 0.39646 0.1506 0.0
C503 C 0.00626 0.41997 0.1586 0.0
C504 C 0.00182 0.44653 0.17746 0.0
C505 C 0.97037 0.44959 0.18841 0.0
C506 C 0.94326 0.42615 0.18045 0.0
C507 C 0.83641 0.27932 0.22598 0.0
C508 C 0.82145 0.29831 0.24763 0.0
C509 C 0.85489 0.29199 0.20185 0.0
C510 C 0.8585 0.32383 0.19873 0.0
C511 C 0.84489 0.34294 0.22124 0.0
C512 C 0.82653 0.33033 0.24541 0.0
C513 C 0.87514 0.33716 0.17125 0.0
C514 C 0.90179 0.36148 0.17778 0.0
C515 C 0.8647 0.32612 0.13871 0.0
C516 C 0.8352 0.30207 0.12995 0.0
C517 C 0.80343 0.30621 0.14006 0.0
C518 C 0.77577 0.28339 0.13187 0.0
C519 C 0.77951 0.25643 0.11334 0.0
C520 C 0.81091 0.25227 0.10289 0.0
C521 C 0.83866 0.27501 0.11105 0.0
H522 H 0.75807 0.23879 0.10701 0.0
H523 H 0.02276 0.46471 0.18364 0.0
H524 H 0.95687 0.49668 0.37947 0.0
H525 H 0.93545 0.54372 0.36551 0.0
H526 H 0.91815 0.56467 0.46525 0.0
H527 H 0.93896 0.51712 0.47934 0.0
H528 H 0.86724 0.57743 0.42625 0.0
H529 H 0.98724 0.60074 0.43226 0.0
H530 H 0.04476 0.59336 0.42005 0.0
H531 H 0.01901 0.60188 0.31944 0.0
H532 H 0.96116 0.60889 0.331 0.0
H533 H 0.85044 0.7344 0.41285 0.0
H534 H 0.87204 0.68771 0.42793 0.0
H535 H 0.88412 0.6623 0.32784 0.0
H536 H 0.86269 0.70919 0.3125 0.0
H537 H 0.93804 0.65241 0.36797 0.0
H538 H 0.8174 0.62896 0.36291 0.0
H539 H 0.7604 0.6371 0.37622 0.0
H540 H 0.78833 0.62993 0.47669 0.0
H541 H 0.84567 0.62217 0.46403 0.0
C542 C 0.94832 0.51116 0.39846 0.0
C543 C 0.94981 0.50321 0.43058 0.0
C544 C 0.93625 0.53818 0.39044 0.0
C545 C 0.9258 0.5581 0.41442 0.0
C546 C 0.92623 0.54975 0.44636 0.0
C547 C 0.93814 0.52257 0.45438 0.0
C548 C 0.91479 0.58773 0.40612 0.0
C549 C 0.88294 0.59401 0.41393 0.0
C550 C 0.93498 0.60919 0.38949 0.0
C551 C 0.96977 0.60504 0.38246 0.0
C552 C 0.99376 0.6008 0.4075 0.0
C553 C 0.02644 0.59672 0.4007 0.0
C554 C 0.03551 0.59707 0.36898 0.0
C555 C 0.01194 0.60157 0.344 0.0
C556 C 0.97921 0.60562 0.35066 0.0
C557 C 0.85792 0.71904 0.39402 0.0
C558 C 0.8547 0.72549 0.36142 0.0
C559 C 0.8701 0.69225 0.40269 0.0
C560 C 0.87921 0.67127 0.37897 0.0
C561 C 0.8771 0.67811 0.34653 0.0
C562 C 0.86483 0.70491 0.3378 0.0
C563 C 0.89049 0.642 0.38798 0.0
C564 C 0.92239 0.63582 0.38033 0.0
C565 C 0.87043 0.62074 0.40492 0.0
C566 C 0.83593 0.62529 0.41256 0.0
C567 C 0.81147 0.62936 0.38788 0.0
C568 C 0.77908 0.63387 0.3953 0.0
C569 C 0.77077 0.63411 0.42729 0.0
C570 C 0.79481 0.62978 0.45192 0.0
C571 C 0.82725 0.6253 0.44464 0.0
H572 H 0.74569 0.6376 0.43299 0.0
H573 H 0.06082 0.59392 0.36376 0.0
H574 H 0.54526 0.6077 0.52379 0.0
H575 H 0.58386 0.63818 0.56593 0.0
H576 H 0.61108 0.55492 0.60242 0.0
H577 H 0.5722 0.52413 0.56028 0.0
H578 H 0.59958 0.5957 0.65106 0.0
H579 H 0.66482 0.5984 0.55978 0.0
H580 H 0.6772 0.60658 0.50372 0.0
H581 H 0.66503 0.70183 0.51981 0.0
H582 H 0.65216 0.69413 0.57588 0.0
H583 H 0.74392 0.66539 0.75253 0.0
H584 H 0.70519 0.63467 0.71067 0.0
H585 H 0.67735 0.71763 0.67401 0.0
H586 H 0.71641 0.74867 0.71582 0.0
H587 H 0.68933 0.67679 0.62546 0.0
H588 H 0.62416 0.67364 0.7172 0.0
H589 H 0.61263 0.66506 0.77338 0.0
H590 H 0.62541 0.57003 0.75639 0.0
H591 H 0.63747 0.57815 0.7002 0.0
C592 C 0.5595 0.5958 0.54069 0.0
C593 C 0.55565 0.56343 0.53858 0.0
C594 C 0.5817 0.61331 0.56473 0.0
C595 C 0.60068 0.5989 0.5872 0.0
C596 C 0.59676 0.56657 0.58532 0.0
C597 C 0.5746 0.549 0.56115 0.0
C598 C 0.62407 0.61764 0.61295 0.0
C599 C 0.61952 0.61312 0.64544 0.0
C600 C 0.64962 0.64091 0.6057 0.0
C601 C 0.65719 0.64561 0.57194 0.0
C602 C 0.66449 0.62103 0.55128 0.0
C603 C 0.67166 0.62559 0.51952 0.0
C604 C 0.67182 0.65469 0.50818 0.0
C605 C 0.66486 0.6793 0.52861 0.0
C606 C 0.65766 0.67485 0.56039 0.0
C607 C 0.72945 0.67718 0.73571 0.0
C608 C 0.73323 0.70955 0.73763 0.0
C609 C 0.7072 0.65953 0.71181 0.0
C610 C 0.68807 0.67378 0.68932 0.0
C611 C 0.69179 0.7061 0.69112 0.0
C612 C 0.71403 0.72382 0.71512 0.0
C613 C 0.66478 0.65491 0.66357 0.0
C614 C 0.66937 0.65939 0.63108 0.0
C615 C 0.63933 0.63155 0.67081 0.0
C616 C 0.63204 0.62659 0.70458 0.0
C617 C 0.62479 0.65098 0.72552 0.0
C618 C 0.6181 0.64618 0.75735 0.0
C619 C 0.61837 0.61704 0.76847 0.0
C620 C 0.62525 0.59261 0.74775 0.0
C621 C 0.63198 0.59728 0.7159 0.0
H622 H 0.61319 0.61337 0.79313 0.0
H623 H 0.6774 0.65818 0.48359 0.0
H624 H 0.25091 0.22023 0.37864 0.0
H625 H 0.24874 0.21469 0.43682 0.0
H626 H 0.30952 0.30338 0.45849 0.0
H627 H 0.3123 0.30879 0.40104 0.0
H628 H 0.29986 0.217 0.48939 0.0
H629 H 0.27099 0.34228 0.51865 0.0
H630 H 0.24178 0.38089 0.49256 0.0
H631 H 0.18308 0.30961 0.42791 0.0
H632 H 0.21072 0.27042 0.45461 0.0
H633 H 0.33381 0.27024 0.65763 0.0
H634 H 0.33083 0.25821 0.59882 0.0
H635 H 0.2246 0.2654 0.59213 0.0
H636 H 0.22812 0.2792 0.65025 0.0
H637 H 0.25065 0.29786 0.55174 0.0
H638 H 0.2591 0.19469 0.57685 0.0
H639 H 0.28346 0.15347 0.60333 0.0
H640 H 0.37535 0.17583 0.55872 0.0
H641 H 0.35171 0.21739 0.53231 0.0
C642 C 0.26395 0.23843 0.39585 0.0
C643 C 0.28108 0.26533 0.38519 0.0
C644 C 0.26283 0.23515 0.42902 0.0
C645 C 0.27866 0.25879 0.45186 0.0
C646 C 0.29674 0.28506 0.44124 0.0
C647 C 0.29799 0.28826 0.40832 0.0
C648 C 0.27504 0.25723 0.48685 0.0
C649 C 0.28889 0.23447 0.50314 0.0
C650 C 0.2603 0.27985 0.50453 0.0
C651 C 0.24335 0.30337 0.48839 0.0
C652 C 0.25175 0.33479 0.49897 0.0
C653 C 0.23543 0.35681 0.48408 0.0
C654 C 0.21092 0.34777 0.4583 0.0
C655 C 0.2023 0.31663 0.44769 0.0
C656 C 0.21821 0.29449 0.46278 0.0
C657 C 0.30978 0.26862 0.64354 0.0
C658 C 0.28124 0.27582 0.65827 0.0
C659 C 0.30801 0.26161 0.60996 0.0
C660 C 0.27743 0.26081 0.59086 0.0
C661 C 0.24855 0.26613 0.60614 0.0
C662 C 0.25053 0.27392 0.63938 0.0
C663 C 0.27592 0.25782 0.55487 0.0
C664 C 0.26128 0.28001 0.53824 0.0
C665 C 0.28941 0.23437 0.53698 0.0
C666 C 0.3037 0.20934 0.55279 0.0
C667 C 0.28458 0.19096 0.57287 0.0
C668 C 0.29825 0.1675 0.58784 0.0
C669 C 0.33095 0.16207 0.58277 0.0
C670 C 0.35003 0.18006 0.56265 0.0
C671 C 0.33649 0.20355 0.54764 0.0
H672 H 0.34148 0.1439 0.59439 0.0
H673 H 0.19846 0.36485 0.44668 0.0
H674 H 0.00354 0.91819 0.83791 0.0
H675 H 0.01869 0.92471 0.78319 0.0
H676 H 0.0592 0.01963 0.81137 0.0
H677 H 0.04303 0.01355 0.86628 0.0
H678 H 0.01922 0.01566 0.75853 0.0
H679 H 0.1109 0.96281 0.79196 0.0
H680 H 0.13726 0.92156 0.81632 0.0
H681 H 0.08102 0.8545 0.74546 0.0
H682 H 0.05404 0.89533 0.72072 0.0
H683 H 0.06889 0.03872 0.60323 0.0
H684 H 0.0754 0.03281 0.66116 0.0
H685 H 0.02823 0.9384 0.64384 0.0
H686 H 0.02219 0.94388 0.58582 0.0
H687 H 0.07803 0.94458 0.69245 0.0
H688 H 0.98211 0.99478 0.66355 0.0
H689 H 0.95272 0.03446 0.63958 0.0
H690 H 0.0145 0.10485 0.70298 0.0
H691 H 0.04458 0.06559 0.72704 0.0
C692 C 0.01612 0.94041 0.83271 0.0
C693 C 0.02203 0.9654 0.85656 0.0
C694 C 0.02501 0.94401 0.80134 0.0
C695 C 0.04057 0.97254 0.79317 0.0
C696 C 0.04734 0.99735 0.81713 0.0
C697 C 0.03813 0.99385 0.84853 0.0
C698 C 0.04693 0.97703 0.75904 0.0
C699 C 0.03285 1.00057 0.74435 0.0
C700 C 0.06374 0.95672 0.74017 0.0
C701 C 0.08032 0.93214 0.75458 0.0
C702 C 0.10404 0.93926 0.78162 0.0
C703 C 0.11911 0.91595 0.79546 0.0
C704 C 0.11077 0.88543 0.78243 0.0
C705 C 0.08744 0.87816 0.75544 0.0
C706 C 0.07232 0.90138 0.74145 0.0
C707 C 0.06041 0.01651 0.61164 0.0
C708 C 0.04458 0.99189 0.58989 0.0
C709 C 0.0641 0.01322 0.6448 0.0
C710 C 0.05171 0.98535 0.65688 0.0
C711 C 0.03787 0.96015 0.63507 0.0
C712 C 0.03433 0.96337 0.60188 0.0
C713 C 0.05041 0.98324 0.6922 0.0
C714 C 0.06511 0.96003 0.70695 0.0
C715 C 0.03396 0.00369 0.71119 0.0
C716 C 0.01586 0.02731 0.69681 0.0
C717 C 0.98961 0.01875 0.67219 0.0
C718 C 0.97279 0.04115 0.65862 0.0
C719 C 0.98181 0.07217 0.66968 0.0
C720 C 0.00759 0.08083 0.69439 0.0
C721 C 0.02453 0.05852 0.70801 0.0
H722 H 0.96875 0.08948 0.65915 0.0
H723 H 0.12241 0.8674 0.79321 0.0
H724 H 0.29256 0.73971 0.88718 0.0
H725 H 0.29586 0.75048 0.94544 0.0
H726 H 0.32993 0.8463 0.93617 0.0
H727 H 0.32625 0.83583 0.87698 0.0
H728 H 0.36586 0.81972 0.98688 0.0
H729 H 0.25479 0.83242 0.95238 0.0
H730 H 0.19883 0.82113 0.92215 0.0
H731 H 0.17829 0.73764 0.96859 0.0
H732 H 0.23442 0.74802 0.99861 0.0
H733 H 0.2828 0.80049 0.15261 0.0
H734 H 0.28206 0.82009 0.09886 0.0
H735 H 0.35414 0.76079 0.07146 0.0
H736 H 0.3551 0.74136 0.12459 0.0
H737 H 0.26267 0.78892 0.04154 0.0
H738 H 0.40498 0.79128 0.02196 0.0
H739 H 0.46043 0.80812 0.05206 0.0
H740 H 0.41639 0.87005 0.11543 0.0
H741 H 0.36089 0.85402 0.08527 0.0
C742 C 0.30099 0.76313 0.89729 0.0
C743 C 0.30886 0.78699 0.87726 0.0
C744 C 0.30267 0.76923 0.93069 0.0
C745 C 0.31243 0.79925 0.94497 0.0
C746 C 0.32195 0.82302 0.92543 0.0
C747 C 0.31992 0.81698 0.8917 0.0
C748 C 0.31242 0.80501 0.98043 0.0
C749 C 0.34328 0.81342 0.99895 0.0
C750 C 0.2827 0.79772 0.99606 0.0
C751 C 0.249 0.79097 0.97767 0.0
C752 C 0.23853 0.81147 0.95591 0.0
C753 C 0.20674 0.80525 0.93883 0.0
C754 C 0.18507 0.77867 0.94342 0.0
C755 C 0.19515 0.75821 0.96505 0.0
C756 C 0.22695 0.76427 0.98212 0.0
C757 C 0.29859 0.79181 0.13513 0.0
C758 C 0.31887 0.76927 0.14281 0.0
C759 C 0.29825 0.8031 0.10452 0.0
C760 C 0.31852 0.79233 0.08135 0.0
C761 C 0.33891 0.77002 0.08916 0.0
C762 C 0.33911 0.75865 0.1195 0.0
C763 C 0.31643 0.80186 0.04792 0.0
C764 C 0.28514 0.79611 0.02968 0.0
C765 C 0.34563 0.81219 0.03265 0.0
C766 C 0.37882 0.82146 0.0513 0.0
C767 C 0.40723 0.80868 0.04214 0.0
C768 C 0.43865 0.81804 0.05926 0.0
C769 C 0.44194 0.84015 0.08566 0.0
C770 C 0.41382 0.8529 0.09502 0.0
C771 C 0.38236 0.84364 0.07794 0.0
H772 H 0.46628 0.8474 0.09887 0.0
H773 H 0.16043 0.774 0.93032 0.0
H774 H 0.47219 0.94051 0.34468 0.0
H775 H 0.45913 0.92847 0.28642 0.0
H776 H 0.4667 0.02534 0.27327 0.0
H777 H 0.47919 0.03764 0.33143 0.0
H778 H 0.417 0.99009 0.23061 0.0
H779 H 0.53603 0.98881 0.26752 0.0
H780 H 0.58077 0.96989 0.30122 0.0
H781 H 0.54425 0.87708 0.2628 0.0
H782 H 0.49945 0.89546 0.22889 0.0
H783 H 0.4691 0.00096 0.07178 0.0
H784 H 0.45923 0.00515 0.12926 0.0
H785 H 0.4723 0.90979 0.13471 0.0
H786 H 0.48389 0.90616 0.07807 0.0
H787 H 0.50654 0.93969 0.18185 0.0
H788 H 0.39337 0.93815 0.13967 0.0
H789 H 0.34594 0.95309 0.10632 0.0
H790 H 0.3652 0.04445 0.15411 0.0
H791 H 0.41306 0.03018 0.18748 0.0
C792 C 0.47031 0.95926 0.32953 0.0
C793 C 0.47733 0.99007 0.3427 0.0
C794 C 0.46291 0.95232 0.29621 0.0
C795 C 0.46264 0.97605 0.27549 0.0
C796 C 0.46694 0.00669 0.28882 0.0
C797 C 0.47422 0.01366 0.32211 0.0
C798 C 0.46184 0.96936 0.23997 0.0
C799 C 0.43657 0.97918 0.21979 0.0
C800 C 0.48685 0.95433 0.22598 0.0
C801 C 0.51431 0.94347 0.24587 0.0
C802 C 0.53758 0.96437 0.26632 0.0
C803 C 0.56298 0.95374 0.28541 0.0
C804 C 0.5654 0.92229 0.28415 0.0
C805 C 0.5425 0.90142 0.2637 0.0
C806 C 0.51715 0.91194 0.24448 0.0
C807 C 0.46954 0.98091 0.08529 0.0
C808 C 0.47763 0.95338 0.07068 0.0
C809 C 0.46364 0.9832 0.11807 0.0
C810 C 0.46475 0.9577 0.13644 0.0
C811 C 0.47151 0.92987 0.12128 0.0
C812 C 0.47815 0.92781 0.08887 0.0
C813 C 0.46165 0.96051 0.17193 0.0
C814 C 0.48647 0.95016 0.19229 0.0
C815 C 0.43576 0.97443 0.18592 0.0
C816 C 0.40701 0.98316 0.1659 0.0
C817 C 0.38767 0.9615 0.14291 0.0
C818 C 0.36067 0.96984 0.12402 0.0
C819 C 0.35261 0.99972 0.12804 0.0
C820 C 0.37149 0.02131 0.15101 0.0
C821 C 0.39854 0.01311 0.16994 0.0
H822 H 0.33169 0.00613 0.1134 0.0
H823 H 0.585 0.91408 0.29901 0.0
H824 H 0.40035 0.32329 0.26672 0.0
H825 H 0.45769 0.3173 0.25487 0.0
H826 H 0.42534 0.22167 0.22267 0.0
H827 H 0.368 0.22728 0.23489 0.0
H828 H 0.47629 0.22842 0.26813 0.0
H829 H 0.45097 0.27608 0.17124 0.0
H830 H 0.43196 0.31625 0.13906 0.0
H831 H 0.51263 0.38238 0.18575 0.0
H832 H 0.53204 0.34268 0.21831 0.0
H833 H 0.63793 0.19861 0.24092 0.0
H834 H 0.57953 0.20509 0.22623 0.0
H835 H 0.60231 0.30197 0.2571 0.0
H836 H 0.66091 0.29588 0.27108 0.0
H837 H 0.55541 0.29242 0.2064 0.0
H838 H 0.57315 0.25171 0.30923 0.0
H839 H 0.59202 0.21556 0.34687 0.0
H840 H 0.52569 0.14102 0.29366 0.0
H841 H 0.50675 0.17671 0.25543 0.0
C842 C 0.40525 0.30108 0.25655 0.0
C843 C 0.37961 0.27564 0.2521 0.0
C844 C 0.43807 0.29778 0.24962 0.0
C845 C 0.44579 0.26906 0.2378 0.0
C846 C 0.41991 0.24404 0.2318 0.0
C847 C 0.38714 0.24728 0.23883 0.0
C848 C 0.4813 0.26417 0.23547 0.0
C849 C 0.49334 0.24194 0.25395 0.0
C850 C 0.50387 0.2827 0.21802 0.0
C851 C 0.4926 0.30646 0.19777 0.0
C852 C 0.46449 0.29925 0.17492 0.0
C853 C 0.4537 0.32193 0.15649 0.0
C854 C 0.47095 0.3519 0.16049 0.0
C855 C 0.49918 0.3592 0.18275 0.0
C856 C 0.5101 0.33659 0.20119 0.0
C857 C 0.63071 0.22143 0.24395 0.0
C858 C 0.65395 0.24663 0.25771 0.0
C859 C 0.5973 0.22508 0.23557 0.0
C860 C 0.58644 0.25388 0.24126 0.0
C861 C 0.61012 0.27951 0.25264 0.0
C862 C 0.64362 0.27595 0.26075 0.0
C863 C 0.55004 0.25663 0.23889 0.0
C864 C 0.53801 0.27855 0.21992 0.0
C865 C 0.52741 0.23833 0.2564 0.0
C866 C 0.53886 0.21679 0.27925 0.0
C867 C 0.56282 0.22756 0.3054 0.0
C868 C 0.57348 0.20717 0.32686 0.0
C869 C 0.56014 0.176 0.3226 0.0
C870 C 0.53606 0.16516 0.29689 0.0
C871 C 0.52534 0.18546 0.27532 0.0
H872 H 0.5684 0.16025 0.33927 0.0
H873 H 0.46253 0.36944 0.14623 0.0
H874 H 0.98559 0.34558 0.39507 0.0
H875 H 0.99149 0.29213 0.3783 0.0
H876 H 0.95592 0.26404 0.46814 0.0
H877 H 0.95036 0.31725 0.48512 0.0
H878 H 0.03738 0.26562 0.41493 0.0
H879 H 0.92336 0.18756 0.45861 0.0
H880 H 0.86184 0.18548 0.45802 0.0
H881 H 0.86103 0.2386 0.3757 0.0
H882 H 0.92252 0.24061 0.37539 0.0
H883 H 0.06039 0.13951 0.50472 0.0
H884 H 0.04938 0.18609 0.47973 0.0
H885 H 0.00902 0.13132 0.39165 0.0
H886 H 0.02096 0.0846 0.41632 0.0
H887 H 0.96344 0.16717 0.42211 0.0
H888 H 0.07258 0.18098 0.38404 0.0
H889 H 0.13436 0.18384 0.38721 0.0
H890 H 0.14434 0.25954 0.46029 0.0
H891 H 0.08266 0.2569 0.4579 0.0
C892 C 0.97774 0.32782 0.41066 0.0
C893 C 0.96785 0.33558 0.44155 0.0
C894 C 0.98126 0.29732 0.40109 0.0
C895 C 0.97423 0.27414 0.42199 0.0
C896 C 0.96117 0.28147 0.45147 0.0
C897 C 0.95813 0.31193 0.46122 0.0
C898 C 0.98626 0.24397 0.41635 0.0
C899 C 0.02114 0.24399 0.41586 0.0
C900 C 0.96495 0.2158 0.41736 0.0
C901 C 0.92775 0.21437 0.41709 0.0
C902 C 0.9101 0.19863 0.4402 0.0
C903 C 0.87519 0.19749 0.44006 0.0
C904 C 0.85754 0.21195 0.41687 0.0
C905 C 0.87476 0.2275 0.39371 0.0
C906 C 0.90967 0.22869 0.39372 0.0
C907 C 0.05052 0.13756 0.47958 0.0
C908 C 0.04163 0.10855 0.4624 0.0
C909 C 0.04416 0.16414 0.46534 0.0
C910 C 0.02827 0.16207 0.4339 0.0
C911 C 0.02143 0.13334 0.41589 0.0
C912 C 0.02853 0.10674 0.42991 0.0
C913 C 0.01457 0.18923 0.4223 0.0
C914 C 0.97948 0.18867 0.41997 0.0
C915 C 0.03566 0.21702 0.41918 0.0
C916 C 0.07289 0.21866 0.42082 0.0
C917 C 0.08792 0.1981 0.40096 0.0
C918 C 0.12296 0.19972 0.40258 0.0
C919 C 0.14329 0.22186 0.42392 0.0
C920 C 0.12861 0.24244 0.4437 0.0
C921 C 0.09359 0.24092 0.44218 0.0
H922 H 0.1704 0.22307 0.42513 0.0
H923 H 0.83052 0.21109 0.41684 0.0
H924 H 0.91668 0.83013 0.76872 0.0
H925 H 0.97479 0.82594 0.75779 0.0
H926 H 0.95669 0.72823 0.76666 0.0
H927 H 0.89849 0.73212 0.77756 0.0
H928 H 0.01233 0.75829 0.80521 0.0
H929 H 0.96655 0.75358 0.69467 0.0
H930 H 0.93539 0.77157 0.64818 0.0
H931 H 0.00522 0.85516 0.65582 0.0
H932 H 0.03656 0.83778 0.70254 0.0
H933 H 0.16615 0.71762 0.76117 0.0
H934 H 0.10604 0.72112 0.75934 0.0
H935 H 0.12619 0.81798 0.74649 0.0
H936 H 0.18649 0.81476 0.74819 0.0
H937 H 0.06955 0.78966 0.70904 0.0
H938 H 0.11375 0.79719 0.81933 0.0
H939 H 0.14385 0.78291 0.86854 0.0
H940 H 0.07651 0.69799 0.86387 0.0
H941 H 0.04635 0.71152 0.81429 0.0
C942 C 0.92488 0.80765 0.76792 0.0
C943 C 0.90293 0.78146 0.77416 0.0
C944 C 0.95808 0.80531 0.76153 0.0
C945 C 0.96998 0.77677 0.76133 0.0
C946 C 0.94793 0.75047 0.76668 0.0
C947 C 0.91465 0.75273 0.7728 0.0
C948 C 0.00603 0.77471 0.75804 0.0
C949 C 0.02472 0.76458 0.78392 0.0
C950 C 0.02237 0.7842 0.73081 0.0
C951 C 0.00369 0.79455 0.70245 0.0
C952 C 0.9751 0.77592 0.68665 0.0
C953 C 0.95743 0.78597 0.66017 0.0
C954 C 0.96824 0.81454 0.64912 0.0
C955 C 0.99682 0.83306 0.66443 0.0
C956 C 0.01457 0.8231 0.69091 0.0
C957 C 0.15786 0.73961 0.75746 0.0
C958 C 0.18125 0.76598 0.75512 0.0
C959 C 0.12346 0.74158 0.75658 0.0
C960 C 0.11172 0.76992 0.75334 0.0
C961 C 0.13474 0.79592 0.74917 0.0
C962 C 0.16922 0.79402 0.75018 0.0
C963 C 0.07566 0.77257 0.75597 0.0
C964 C 0.05707 0.78308 0.73017 0.0
C965 C 0.05937 0.7638 0.78349 0.0
C966 C 0.07806 0.75519 0.81282 0.0
C967 C 0.10563 0.77528 0.82854 0.0
C968 C 0.12264 0.76737 0.85657 0.0
C969 C 0.11216 0.73951 0.86926 0.0
C970 C 0.08465 0.71952 0.85396 0.0
C971 C 0.0676 0.7273 0.82589 0.0
H972 H 0.12528 0.73343 0.89099 0.0
H973 H 0.95452 0.82228 0.62863 0.0
H974 H 0.48775 0.63807 0.03151 0.0
H975 H 0.47741 0.686 0.00951 0.0
H976 H 0.49038 0.64746 0.91367 0.0
H977 H 0.50092 0.59905 0.93565 0.0
H978 H 0.51786 0.70939 0.92544 0.0
H979 H 0.41491 0.64641 0.93694 0.0
H980 H 0.37487 0.61334 0.96542 0.0
H981 H 0.3653 0.69005 0.03254 0.0
H982 H 0.40668 0.72331 0.00545 0.0
H983 H 0.46156 0.84773 0.88127 0.0
H984 H 0.45797 0.79145 0.87914 0.0
H985 H 0.44505 0.79496 0.98117 0.0
H986 H 0.44743 0.85052 0.9833 0.0
H987 H 0.4098 0.7441 0.95117 0.0
H988 H 0.52389 0.79945 0.95199 0.0
H989 H 0.56822 0.83329 0.92888 0.0
H990 H 0.55695 0.772 0.84222 0.0
H991 H 0.51224 0.738 0.86472 0.0
C992 C 0.48898 0.63988 0.00581 0.0
C993 C 0.4948 0.61466 0.98526 0.0
C994 C 0.48287 0.66726 0.99325 0.0
C995 C 0.48212 0.66993 0.95985 0.0
C996 C 0.49035 0.64565 0.93946 0.0
C997 C 0.49655 0.61811 0.95208 0.0
C998 C 0.47116 0.69767 0.94657 0.0
C999 C 0.49389 0.71665 0.93035 0.0
C1000 C 0.43987 0.70715 0.95317 0.0
C1001 C 0.41418 0.68738 0.96913 0.0
C1002 C 0.40454 0.65623 0.9579 0.0
C1003 C 0.38164 0.6374 0.97389 0.0
C1004 C 0.36741 0.6496 0.0007 0.0
C1005 C 0.3763 0.68063 0.01173 0.0
C1006 C 0.39962 0.69946 0.99612 0.0
C1007 C 0.45676 0.83634 0.90296 0.0
C1008 C 0.45535 0.85359 0.93256 0.0
C1009 C 0.45497 0.80422 0.90176 0.0
C1010 C 0.45186 0.78907 0.93016 0.0
C1011 C 0.44739 0.80609 0.95898 0.0
C1012 C 0.44903 0.83796 0.96018 0.0
C1013 C 0.4572 0.75643 0.93152 0.0
C1014 C 0.43332 0.73639 0.94541 0.0
C1015 C 0.48758 0.74612 0.92325 0.0
C1016 C 0.51449 0.76644 0.90983 0.0
C1017 C 0.53074 0.79333 0.92792 0.0
C1018 C 0.55593 0.81251 0.91496 0.0
C1019 C 0.56531 0.80485 0.88406 0.0
C1020 C 0.54959 0.77795 0.86611 0.0
C1021 C 0.52432 0.75872 0.87895 0.0
H1022 H 0.58483 0.81973 0.87406 0.0
H1023 H 0.34951 0.635 0.01292 0.0
H1024 H 0.68845 0.77555 0.26331 0.0
H1025 H 0.62865 0.77703 0.26689 0.0
H1026 H 0.64358 0.78327 0.37099 0.0
H1027 H 0.70398 0.78176 0.36774 0.0
H1028 H 0.58526 0.7431 0.3446 0.0
H1029 H 0.63429 0.84727 0.33935 0.0
H1030 H 0.67091 0.88952 0.31878 0.0
H1031 H 0.6163 0.87084 0.22515 0.0
H1032 H 0.57963 0.82802 0.24503 0.0
H1033 H 0.41495 0.7748 0.33931 0.0
H1034 H 0.47581 0.78312 0.3543 0.0
H1035 H 0.49402 0.78073 0.25341 0.0
H1036 H 0.43364 0.77258 0.23826 0.0
H1037 H 0.5369 0.82579 0.29013 0.0
H1038 H 0.49466 0.71717 0.29303 0.0
H1039 H 0.45884 0.67344 0.31224 0.0
H1040 H 0.50129 0.70014 0.40969 0.0
H1041 H 0.53707 0.74429 0.39106 0.0
C1042 C 0.67913 0.77691 0.28704 0.0
C1043 C 0.70109 0.77884 0.31527 0.0
C1044 C 0.64493 0.77791 0.28901 0.0
C1045 C 0.63195 0.78095 0.3192 0.0
C1046 C 0.65331 0.78121 0.34748 0.0
C1047 C 0.68773 0.78026 0.34555 0.0
C1048 C 0.59611 0.78452 0.32064 0.0
C1049 C 0.5747 0.76158 0.33345 0.0
C1050 C 0.58247 0.80851 0.30578 0.0
C1051 C 0.60429 0.83436 0.29367 0.0
C1052 C 0.63021 0.85204 0.31432 0.0
C1053 C 0.65099 0.87611 0.30277 0.0
C1054 C 0.64602 0.88288 0.27066 0.0
C1055 C 0.62019 0.86556 0.25002 0.0
C1056 C 0.59938 0.84138 0.26142 0.0
C1057 C 0.43196 0.77649 0.32037 0.0
C1058 C 0.41953 0.77274 0.28759 0.0
C1059 C 0.46665 0.78114 0.32898 0.0
C1060 C 0.48931 0.78221 0.30493 0.0
C1061 C 0.47692 0.77995 0.27232 0.0
C1062 C 0.44239 0.77513 0.26371 0.0
C1063 C 0.52591 0.78382 0.31314 0.0
C1064 C 0.5475 0.80777 0.3021 0.0
C1065 C 0.53966 0.76072 0.32955 0.0
C1066 C 0.51817 0.73423 0.34073 0.0
C1067 C 0.49612 0.71386 0.31859 0.0
C1068 C 0.47588 0.68898 0.32936 0.0
C1069 C 0.4777 0.68408 0.36219 0.0
C1070 C 0.49984 0.70401 0.38429 0.0
C1071 C 0.52011 0.72896 0.37364 0.0
H1072 H 0.46202 0.66479 0.37048 0.0
H1073 H 0.66215 0.90155 0.2618 0.0
H1074 H 0.54261 0.14598 0.42429 0.0
H1075 H 0.53755 0.19823 0.44451 0.0
H1076 H 0.48618 0.16399 0.52453 0.0
H1077 H 0.49097 0.11096 0.5041 0.0
H1078 H 0.4548 0.20737 0.49741 0.0
H1079 H 0.56503 0.20116 0.53959 0.0
H1080 H 0.62301 0.1887 0.54112 0.0
H1081 H 0.64593 0.25086 0.46866 0.0
H1082 H 0.58792 0.26339 0.4663 0.0
H1083 H 0.523 0.38631 0.52479 0.0
H1084 H 0.52764 0.33347 0.53813 0.0
H1085 H 0.46208 0.29802 0.4529 0.0
H1086 H 0.45704 0.35009 0.43978 0.0
H1087 H 0.55319 0.28955 0.50513 0.0
H1088 H 0.41485 0.23417 0.46208 0.0
H1089 H 0.35773 0.24808 0.46513 0.0
H1090 H 0.39196 0.3092 0.54994 0.0
H1091 H 0.44924 0.2956 0.54752 0.0
C1092 C 0.53029 0.1494 0.44627 0.0
C1093 C 0.51721 0.12426 0.46262 0.0
C1094 C 0.52766 0.17939 0.45795 0.0
C1095 C 0.51207 0.18508 0.48637 0.0
C1096 C 0.49859 0.16009 0.5027 0.0
C1097 C 0.50131 0.12986 0.491 0.0
C1098 C 0.50871 0.21726 0.49755 0.0
C1099 C 0.47632 0.22533 0.49959 0.0
C1100 C 0.53695 0.24062 0.5016 0.0
C1101 C 0.57198 0.23317 0.50273 0.0
C1102 C 0.58233 0.21204 0.52381 0.0
C1103 C 0.61523 0.20498 0.52485 0.0
C1104 C 0.63813 0.21898 0.50501 0.0
C1105 C 0.62817 0.24007 0.48406 0.0
C1106 C 0.59528 0.24721 0.48291 0.0
C1107 C 0.50936 0.36719 0.50914 0.0
C1108 C 0.48972 0.37239 0.4812 0.0
C1109 C 0.512 0.33706 0.51679 0.0
C1110 C 0.49474 0.31177 0.49683 0.0
C1111 C 0.47497 0.31708 0.46914 0.0
C1112 C 0.47239 0.34698 0.46148 0.0
C1113 C 0.49915 0.27967 0.50284 0.0
C1114 C 0.53174 0.27159 0.50396 0.0
C1115 C 0.47118 0.25633 0.50252 0.0
C1116 C 0.43645 0.26393 0.50452 0.0
C1117 C 0.41017 0.25042 0.48151 0.0
C1118 C 0.37778 0.25836 0.48305 0.0
C1119 C 0.37128 0.27961 0.50764 0.0
C1120 C 0.39709 0.29286 0.53082 0.0
C1121 C 0.42953 0.28511 0.52932 0.0
H1122 H 0.34626 0.28582 0.5088 0.0
H1123 H 0.6636 0.21351 0.50591 0.0
H1124 H 0.17845 0.30028 0.75374 0.0
H1125 H 0.12163 0.30689 0.7661 0.0
H1126 H 0.1531 0.31599 0.86811 0.0
H1127 H 0.21056 0.30949 0.85601 0.0
H1128 H 0.09252 0.27945 0.85376 0.0
H1129 H 0.1409 0.37917 0.83204 0.0
H1130 H 0.17304 0.41793 0.80246 0.0
H1131 H 0.10034 0.39621 0.72018 0.0
H1132 H 0.06802 0.35691 0.74906 0.0
H1133 H 0.9238 0.30729 0.86707 0.0
H1134 H 0.98513 0.32112 0.8744 0.0
H1135 H 0.98982 0.30902 0.77116 0.0
H1136 H 0.92891 0.2954 0.76361 0.0
H1137 H 0.03567 0.35756 0.79952 0.0
H1138 H 0.99783 0.24998 0.81625 0.0
H1139 H 0.96632 0.20912 0.84388 0.0
H1140 H 0.02009 0.24572 0.93461 0.0
H1141 H 0.05162 0.28705 0.90751 0.0
C1142 C 0.17342 0.30352 0.77888 0.0
C1143 C 0.19919 0.30455 0.80389 0.0
C1144 C 0.14092 0.30756 0.78587 0.0
C1145 C 0.13341 0.31281 0.81799 0.0
C1146 C 0.15859 0.31252 0.84316 0.0
C1147 C 0.19132 0.30862 0.83618 0.0
C1148 C 0.09891 0.318 0.82478 0.0
C1149 C 0.08032 0.29707 0.84265 0.0
C1150 C 0.083 0.34092 0.81012 0.0
C1151 C 0.10207 0.36493 0.79275 0.0
C1152 C 0.13182 0.38251 0.80759 0.0
C1153 C 0.15009 0.4046 0.79093 0.0
C1154 C 0.13877 0.4095 0.75944 0.0
C1155 C 0.10909 0.39239 0.74458 0.0
C1156 C 0.09075 0.37022 0.76112 0.0
C1157 C 0.93784 0.30816 0.8459 0.0
C1158 C 0.92155 0.29976 0.81476 0.0
C1159 C 0.97285 0.31605 0.85015 0.0
C1160 C 0.99199 0.31569 0.82333 0.0
C1161 C 0.97551 0.30947 0.79217 0.0
C1162 C 0.94067 0.30151 0.78791 0.0
C1163 C 0.02915 0.31824 0.82732 0.0
C1164 C 0.04822 0.34063 0.81148 0.0
C1165 C 0.04554 0.29665 0.84375 0.0
C1166 C 0.02672 0.27178 0.85997 0.0
C1167 C 0.00272 0.24943 0.84213 0.0
C1168 C 0.9849 0.22617 0.85768 0.0
C1169 C 0.99111 0.22489 0.891 0.0
C1170 C 0.01524 0.2468 0.90882 0.0
C1171 C 0.03309 0.27013 0.89339 0.0
H1172 H 0.9773 0.20686 0.903 0.0
H1173 H 0.15299 0.42658 0.74656 0.0
H1174 H 0.00199 0.84532 0.99745 0.0
H1175 H 0.00464 0.79082 0.00455 0.0
H1176 H 0.9585 0.76616 0.90741 0.0
H1177 H 0.95486 0.82004 0.90062 0.0
H1178 H 0.93037 0.72868 0.94389 0.0
H1179 H 0.04487 0.7648 0.928 0.0
H1180 H 0.10029 0.79714 0.93729 0.0
H1181 H 0.11107 0.77094 0.03442 0.0
H1182 H 0.05556 0.73855 0.02574 0.0
H1183 H 0.98447 0.58515 0.90279 0.0
H1184 H 0.98261 0.64049 0.90875 0.0
H1185 H 0.98752 0.63891 0.01239 0.0
H1186 H 0.98879 0.58297 0.00664 0.0
H1187 H 0.03533 0.68894 0.98034 0.0
H1188 H 0.91854 0.64414 0.98535 0.0
H1189 H 0.86893 0.60703 0.96401 0.0
H1190 H 0.86745 0.64817 0.87372 0.0
H1191 H 0.91763 0.68501 0.89422 0.0
C1192 C 0.99247 0.82822 0.97765 0.0
C1193 C 0.97813 0.83701 0.94853 0.0
C1194 C 0.99414 0.79709 0.98166 0.0
C1195 C 0.98193 0.77427 0.95645 0.0
C1196 C 0.96788 0.78319 0.92733 0.0
C1197 C 0.9659 0.81411 0.92345 0.0
C1198 C 0.98301 0.74102 0.96022 0.0
C1199 C 0.95342 0.72015 0.95186 0.0
C1200 C 0.01292 0.7296 0.97076 0.0
C1201 C 0.04585 0.74966 0.9764 0.0
C1202 C 0.05888 0.76623 0.95147 0.0
C1203 C 0.09036 0.78448 0.95658 0.0
C1204 C 0.10911 0.78623 0.98649 0.0
C1205 C 0.09646 0.76965 0.01131 0.0
C1206 C 0.06501 0.75132 0.0063 0.0
C1207 C 0.98509 0.59648 0.9269 0.0
C1208 C 0.98663 0.57969 0.95427 0.0
C1209 C 0.98412 0.62811 0.93023 0.0
C1210 C 0.98504 0.64369 0.96098 0.0
C1211 C 0.98693 0.62719 0.98847 0.0
C1212 C 0.98737 0.5953 0.98513 0.0
C1213 C 0.98293 0.67709 0.96379 0.0
C1214 C 0.01225 0.69782 0.9732 0.0
C1215 C 0.95315 0.68835 0.953 0.0
C1216 C 0.92203 0.66716 0.94125 0.0
C1217 C 0.90781 0.64511 0.96086 0.0
C1218 C 0.87965 0.62406 0.94887 0.0
C1219 C 0.86518 0.62511 0.91745 0.0
C1220 C 0.87875 0.64732 0.89801 0.0
C1221 C 0.90706 0.66828 0.9098 0.0
H1222 H 0.84332 0.60885 0.90826 0.0
H1223 H 0.13349 0.80034 0.9904 0.0
H1224 H 0.31303 0.41515 0.33334 0.0
H1225 H 0.30581 0.46858 0.3269 0.0
H1226 H 0.23627 0.43941 0.24279 0.0
H1227 H 0.24328 0.38557 0.24919 0.0
H1228 H 0.28762 0.486 0.23244 0.0
H1229 H 0.20619 0.46799 0.31201 0.0
H1230 H 0.18554 0.45367 0.36394 0.0
H1231 H 0.26466 0.51807 0.41572 0.0
H1232 H 0.28578 0.5328 0.36417 0.0
H1233 H 0.26397 0.64127 0.21398 0.0
H1234 H 0.25367 0.58563 0.21848 0.0
H1235 H 0.30068 0.59968 0.31627 0.0
H1236 H 0.30854 0.65504 0.31256 0.0
H1237 H 0.25335 0.55849 0.31659 0.0
H1238 H 0.34045 0.57383 0.24431 0.0
H1239 H 0.3667 0.59106 0.19594 0.0
H1240 H 0.28891 0.53317 0.13476 0.0
H1241 H 0.26199 0.51585 0.1828 0.0
C1242 C 0.29591 0.42001 0.31363 0.0
C1243 C 0.27881 0.39613 0.29166 0.0
C1244 C 0.29165 0.45059 0.31012 0.0
C1245 C 0.27033 0.45797 0.28449 0.0
C1246 C 0.25275 0.43417 0.26281 0.0
C1247 C 0.25672 0.40345 0.26652 0.0
C1248 C 0.26845 0.49068 0.27918 0.0
C1249 C 0.27953 0.50182 0.25054 0.0
C1250 C 0.25922 0.51149 0.30333 0.0
C1251 C 0.24753 0.50146 0.33425 0.0
C1252 C 0.21933 0.47889 0.33447 0.0
C1253 C 0.20746 0.47084 0.36381 0.0
C1254 C 0.22366 0.48519 0.393 0.0
C1255 C 0.25204 0.50721 0.39303 0.0
C1256 C 0.2639 0.51546 0.36379 0.0
C1257 C 0.27165 0.63236 0.23651 0.0
C1258 C 0.28693 0.65242 0.26295 0.0
C1259 C 0.26611 0.60054 0.23899 0.0
C1260 C 0.27701 0.58816 0.26751 0.0
C1261 C 0.29185 0.60842 0.29401 0.0
C1262 C 0.29638 0.64016 0.29188 0.0
C1263 C 0.27342 0.55427 0.27013 0.0
C1264 C 0.26123 0.5428 0.29823 0.0
C1265 C 0.28296 0.53338 0.24603 0.0
C1266 C 0.29899 0.54385 0.21712 0.0
C1267 C 0.32881 0.56496 0.22053 0.0
C1268 C 0.34383 0.57471 0.19319 0.0
C1269 C 0.32941 0.5633 0.1623 0.0
C1270 C 0.3 0.54204 0.1587 0.0
C1271 C 0.28486 0.53224 0.18597 0.0
H1272 H 0.34108 0.57086 0.14115 0.0
H1273 H 0.21421 0.47932 0.41559 0.0
H1274 H 0.78946 0.1516 0.76228 0.0
H1275 H 0.78412 0.09641 0.76803 0.0
H1276 H 0.80628 0.11461 0.87122 0.0
H1277 H 0.81152 0.17011 0.86572 0.0
H1278 H 0.84552 0.07441 0.84366 0.0
H1279 H 0.7295 0.08436 0.84328 0.0
H1280 H 0.67531 0.09991 0.8243 0.0
H1281 H 0.67431 0.04414 0.73494 0.0
H1282 H 0.72882 0.02863 0.75315 0.0
H1283 H 0.82787 0.91645 0.86547 0.0
H1284 H 0.82089 0.97071 0.86948 0.0
H1285 H 0.77807 0.96091 0.7703 0.0
H1286 H 0.78283 0.90577 0.7672 0.0
H1287 H 0.74747 0.99795 0.8004 0.0
H1288 H 0.86631 0.99238 0.79944 0.0
H1289 H 0.92074 0.97712 0.81855 0.0
H1290 H 0.91633 0.0254 0.91134 0.0
H1291 H 0.86151 0.04025 0.89311 0.0
C1292 C 0.79283 0.14392 0.78628 0.0
C1293 C 0.80102 0.16529 0.81354 0.0
C1294 C 0.7896 0.11233 0.78953 0.0
C1295 C 0.79465 0.1014 0.82006 0.0
C1296 C 0.80221 0.1226 0.84744 0.0
C1297 C 0.80508 0.15428 0.84426 0.0
C1298 C 0.7942 0.06793 0.82286 0.0
C1299 C 0.82381 0.05764 0.83493 0.0
C1300 C 0.76616 0.04612 0.8107 0.0
C1301 C 0.7335 0.05562 0.79945 0.0
C1302 C 0.71798 0.07573 0.8194 0.0
C1303 C 0.68714 0.08448 0.80881 0.0
C1304 C 0.67144 0.07312 0.77838 0.0
C1305 C 0.68654 0.05297 0.75848 0.0
C1306 C 0.7174 0.04417 0.76894 0.0
C1307 C 0.81671 0.92589 0.84465 0.0
C1308 C 0.80619 0.9071 0.81595 0.0
C1309 C 0.81293 0.95699 0.84685 0.0
C1310 C 0.79991 0.97037 0.81992 0.0
C1311 C 0.78842 0.95132 0.79143 0.0
C1312 C 0.79122 0.91984 0.78957 0.0
C1313 C 0.79877 0.00417 0.82128 0.0
C1314 C 0.76895 0.0146 0.80979 0.0
C1315 C 0.82665 0.02615 0.83403 0.0
C1316 C 0.85969 0.01725 0.84496 0.0
C1317 C 0.87685 0.99955 0.824 0.0
C1318 C 0.90774 0.99091 0.8347 0.0
C1319 C 0.92189 1.00013 0.8662 0.0
C1320 C 0.90525 0.0181 0.88702 0.0
C1321 C 0.87427 0.02663 0.87653 0.0
H1322 H 0.94579 0.99345 0.87444 0.0
H1323 H 0.64752 0.07986 0.77026 0.0
H1324 H 0.38181 0.46017 0.93661 0.0
H1325 H 0.32138 0.4556 0.92082 0.0
H1326 H 0.31119 0.52269 0.99935 0.0
H1327 H 0.37142 0.52813 0.01445 0.0
H1328 H 0.27044 0.4355 0.9492 0.0
H1329 H 0.24991 0.56255 0.98555 0.0
H1330 H 0.27612 0.61562 0.97977 0.0
H1331 H 0.3278 0.58311 0.90045 0.0
H1332 H 0.30202 0.5298 0.90571 0.0
H1333 H 0.10547 0.43984 0.99146 0.0
H1334 H 0.16621 0.4439 0.98776 0.0
H1335 H 0.15803 0.50131 0.9087 0.0
H1336 H 0.09767 0.49842 0.91323 0.0
H1337 H 0.20799 0.52515 0.94602 0.0
H1338 H 0.173 0.42483 0.89743 0.0
H1339 H 0.14302 0.37177 0.89099 0.0
H1340 H 0.20061 0.34978 0.975 0.0
H1341 H 0.23038 0.40292 0.9825 0.0
C1342 C 0.36667 0.47407 0.95035 0.0
C1343 C 0.38138 0.49448 0.97681 0.0
C1344 C 0.33216 0.47147 0.94129 0.0
C1345 C 0.31174 0.4891 0.9586 0.0
C1346 C 0.32646 0.50942 0.98504 0.0
C1347 C 0.36093 0.5123 0.99386 0.0
C1348 C 0.27474 0.48497 0.95066 0.0
C1349 C 0.25679 0.45509 0.94823 0.0
C1350 C 0.25686 0.5104 0.94819 0.0
C1351 C 0.2741 0.54214 0.94614 0.0
C1352 C 0.26696 0.56669 0.96693 0.0
C1353 C 0.28175 0.59681 0.96374 0.0
C1354 C 0.3035 0.6027 0.93967 0.0
C1355 C 0.31099 0.57844 0.91909 0.0
C1356 C 0.29643 0.54826 0.92228 0.0
C1357 C 0.11666 0.45328 0.97328 0.0
C1358 C 0.09686 0.46894 0.95277 0.0
C1359 C 0.15133 0.45538 0.97098 0.0
C1360 C 0.16669 0.47257 0.94763 0.0
C1361 C 0.14683 0.48797 0.92694 0.0
C1362 C 0.11231 0.48631 0.92959 0.0
C1363 C 0.20369 0.4758 0.94591 0.0
C1364 C 0.22162 0.50551 0.94655 0.0
C1365 C 0.22145 0.45012 0.94517 0.0
C1366 C 0.20378 0.418 0.94068 0.0
C1367 C 0.17912 0.40877 0.9147 0.0
C1368 C 0.16218 0.37866 0.91082 0.0
C1369 C 0.16992 0.35743 0.93255 0.0
C1370 C 0.19464 0.36626 0.95819 0.0
C1371 C 0.21156 0.39638 0.96227 0.0
H1372 H 0.15676 0.33414 0.92953 0.0
H1373 H 0.31456 0.62607 0.93694 0.0
H1374 H 0.71173 0.10067 0.30662 0.0
H1375 H 0.73146 0.05118 0.3129 0.0
H1376 H 0.83415 0.09427 0.31245 0.0
H1377 H 0.81455 0.14406 0.30584 0.0
H1378 H 0.76761 0.0183 0.2736 0.0
H1379 H 0.88168 0.0595 0.36679 0.0
H1380 H 0.89871 0.10094 0.41065 0.0
H1381 H 0.79506 0.10401 0.42659 0.0
H1382 H 0.77744 0.06287 0.38283 0.0
H1383 H 0.85632 0.8948 0.27591 0.0
H1384 H 0.85129 0.94963 0.27797 0.0
H1385 H 0.81378 0.94516 0.3721 0.0
H1386 H 0.82002 0.89062 0.3707 0.0
H1387 H 0.84617 0.00177 0.36642 0.0
H1388 H 0.76353 0.928 0.30266 0.0
H1389 H 0.74143 0.88721 0.25974 0.0
H1390 H 0.77516 0.94628 0.18774 0.0
H1391 H 0.79745 0.98754 0.23038 0.0
C1392 C 0.73852 0.09963 0.30764 0.0
C1393 C 0.7616 0.12626 0.3056 0.0
C1394 C 0.74973 0.07131 0.31131 0.0
C1395 C 0.78425 0.06911 0.31351 0.0
C1396 C 0.8074 0.09557 0.31116 0.0
C1397 C 0.79616 0.12391 0.30709 0.0
C1398 C 0.79586 0.03893 0.31759 0.0
C1399 C 0.78491 0.01468 0.29378 0.0
C1400 C 0.8178 0.03412 0.34435 0.0
C1401 C 0.82826 0.05838 0.37125 0.0
C1402 C 0.86254 0.06905 0.37968 0.0
C1403 C 0.87228 0.09262 0.40441 0.0
C1404 C 0.84794 0.10541 0.42114 0.0
C1405 C 0.81386 0.09444 0.41337 0.0
C1406 C 0.80398 0.07108 0.38852 0.0
C1407 C 0.84829 0.90582 0.29759 0.0
C1408 C 0.83815 0.88839 0.32296 0.0
C1409 C 0.84523 0.9371 0.29867 0.0
C1410 C 0.83106 0.95121 0.3247 0.0
C1411 C 0.82444 0.93469 0.35162 0.0
C1412 C 0.82813 0.90349 0.35084 0.0
C1413 C 0.81871 0.98128 0.32183 0.0
C1414 C 0.82921 0.00542 0.346 0.0
C1415 C 0.79576 0.98584 0.29558 0.0
C1416 C 0.7822 0.96095 0.26987 0.0
C1417 C 0.76614 0.9324 0.27775 0.0
C1418 C 0.75362 0.90914 0.25343 0.0
C1419 C 0.7569 0.91414 0.22101 0.0
C1420 C 0.77262 0.94245 0.21287 0.0
C1421 C 0.78513 0.96581 0.23713 0.0
H1422 H 0.74728 0.89608 0.2022 0.0
H1423 H 0.85551 0.12354 0.44037 0.0
H1424 H 0.88814 0.01083 0.96992 0.0
H1425 H 0.82802 0.01566 0.96886 0.0
H1426 H 0.80306 0.92385 0.92202 0.0
H1427 H 0.86278 0.9185 0.92327 0.0
H1428 H 0.77054 0.98383 0.89623 0.0
H1429 H 0.78668 0.91583 0.98468 0.0
H1430 H 0.81851 0.90549 0.03479 0.0
H1431 H 0.80141 0.99213 0.08053 0.0
H1432 H 0.76974 0.00306 0.03052 0.0
H1433 H 0.59646 0.93741 0.89959 0.0
H1434 H 0.6575 0.94225 0.89953 0.0
H1435 H 0.66854 1.00059 0.98899 0.0
H1436 H 0.60726 0.9939 0.99019 0.0
H1437 H 0.71062 0.96376 0.99402 0.0
H1438 H 0.6859 0.02826 0.90982 0.0
H1439 H 0.65488 0.04051 0.86012 0.0
H1440 H 0.68908 0.96534 0.80631 0.0
H1441 H 0.7205 0.95274 0.85562 0.0
C1442 C 0.86987 0.99165 0.95941 0.0
C1443 C 0.88029 0.96421 0.94686 0.0
C1444 C 0.83562 0.99452 0.95873 0.0
C1445 C 0.81135 0.97016 0.94519 0.0
C1446 C 0.82157 0.94293 0.93239 0.0
C1447 C 0.8557 0.93989 0.93334 0.0
C1448 C 0.77512 0.97241 0.94556 0.0
C1449 C 0.75726 0.97929 0.91745 0.0
C1450 C 0.75823 0.96741 0.97356 0.0
C1451 C 0.77626 0.96041 0.00384 0.0
C1452 C 0.78992 0.93274 0.00537 0.0
C1453 C 0.80791 0.92677 0.03373 0.0
C1454 C 0.81221 0.94827 0.06072 0.0
C1455 C 0.79818 0.97558 0.05955 0.0
C1456 C 0.78019 0.98165 0.03123 0.0
C1457 C 0.61193 0.95156 0.91904 0.0
C1458 C 0.59716 0.96542 0.94481 0.0
C1459 C 0.6469 0.95452 0.91889 0.0
C1460 C 0.6679 0.9724 0.94388 0.0
C1461 C 0.65304 0.98673 0.96938 0.0
C1462 C 0.61803 0.98301 0.97001 0.0
C1463 C 0.70523 0.97468 0.9443 0.0
C1464 C 0.72357 0.96867 0.97269 0.0
C1465 C 0.72258 0.98085 0.91653 0.0
C1466 C 0.70525 0.98939 0.88648 0.0
C1467 C 0.68681 0.01436 0.88737 0.0
C1468 C 0.66917 0.02136 0.85928 0.0
C1469 C 0.66986 0.0036 0.83013 0.0
C1470 C 0.68847 0.979 0.82894 0.0
C1471 C 0.70638 0.97204 0.8569 0.0
H1472 H 0.65607 0.00897 0.80843 0.0
H1473 H 0.82636 0.94374 0.08258 0.0
H1474 H 0.28447 0.6423 0.8246 0.0
H1475 H 0.30211 0.59127 0.82402 0.0
H1476 H 0.33856 0.60197 0.73022 0.0
H1477 H 0.32177 0.65378 0.73103 0.0
H1478 H 0.29065 0.54517 0.73881 0.0
H1479 H 0.39437 0.60481 0.78511 0.0
H1480 H 0.4295 0.64333 0.82388 0.0
H1481 H 0.40048 0.59068 0.90246 0.0
H1482 H 0.36471 0.55202 0.86418 0.0
H1483 H 0.3441 0.40134 0.72929 0.0
H1484 H 0.34857 0.45718 0.72858 0.0
H1485 H 0.3394 0.46595 0.83136 0.0
H1486 H 0.33627 0.41013 0.8324 0.0
H1487 H 0.37799 0.51471 0.81584 0.0
H1488 H 0.26968 0.46131 0.77653 0.0
H1489 H 0.22856 0.42314 0.74269 0.0
H1490 H 0.25938 0.46389 0.65724 0.0
H1491 H 0.30092 0.50214 0.69061 0.0
C1492 C 0.29634 0.63389 0.80386 0.0
C1493 C 0.30157 0.65195 0.77773 0.0
C1494 C 0.3066 0.60481 0.80369 0.0
C1495 C 0.32178 0.593 0.77719 0.0
C1496 C 0.32702 0.61086 0.75097 0.0
C1497 C 0.31742 0.64035 0.75144 0.0
C1498 C 0.3302 0.56122 0.77632 0.0
C1499 C 0.31029 0.53857 0.75508 0.0
C1500 C 0.3548 0.55258 0.79866 0.0
C1501 C 0.37649 0.57569 0.82176 0.0
C1502 C 0.39516 0.60158 0.81067 0.0
C1503 C 0.41528 0.62341 0.83256 0.0
C1504 C 0.41714 0.6195 0.8656 0.0
C1505 C 0.39899 0.59369 0.87684 0.0
C1506 C 0.37881 0.57179 0.85504 0.0
C1507 C 0.344 0.41525 0.7519 0.0
C1508 C 0.33949 0.40133 0.78084 0.0
C1509 C 0.34632 0.44716 0.75143 0.0
C1510 C 0.34326 0.46572 0.77973 0.0
C1511 C 0.34157 0.45213 0.80915 0.0
C1512 C 0.33986 0.42018 0.80973 0.0
C1513 C 0.33857 0.49856 0.77808 0.0
C1514 C 0.35882 0.52134 0.79909 0.0
C1515 C 0.31354 0.50733 0.7562 0.0
C1516 C 0.28868 0.48434 0.73602 0.0
C1517 C 0.26786 0.46197 0.7505 0.0
C1518 C 0.24445 0.44036 0.73142 0.0
C1519 C 0.24146 0.44102 0.69783 0.0
C1520 C 0.26179 0.46336 0.68326 0.0
C1521 C 0.28525 0.48504 0.70224 0.0
H1522 H 0.22331 0.42427 0.68309 0.0
H1523 H 0.43272 0.63646 0.88243 0.0
H1524 H 0.11152 0.44914 0.53765 0.0
H1525 H 0.17285 0.45824 0.53634 0.0
H1526 H 0.16074 0.45988 0.43269 0.0
H1527 H 0.09981 0.4513 0.43376 0.0
H1528 H 0.20738 0.42244 0.4534 0.0
H1529 H 0.18204 0.52553 0.47707 0.0
H1530 H 0.15802 0.56594 0.50823 0.0
H1531 H 0.21975 0.55238 0.59327 0.0
H1532 H 0.24383 0.51158 0.56268 0.0
H1533 H 0.37347 0.47574 0.42066 0.0
H1534 H 0.31252 0.47094 0.42381 0.0
H1535 H 0.32841 0.48882 0.52773 0.0
H1536 H 0.38945 0.49617 0.52407 0.0
H1537 H 0.27923 0.51475 0.50877 0.0
H1538 H 0.30813 0.41295 0.48179 0.0
H1539 H 0.33184 0.37383 0.44838 0.0
H1540 H 0.2624 0.38429 0.36781 0.0
H1541 H 0.23844 0.42349 0.40055 0.0
C1542 C 0.12196 0.45172 0.51462 0.0
C1543 C 0.10077 0.44962 0.48582 0.0
C1544 C 0.15697 0.45691 0.51393 0.0
C1545 C 0.17133 0.4598 0.48443 0.0
C1546 C 0.15024 0.45777 0.45572 0.0
C1547 C 0.11534 0.45301 0.45642 0.0
C1548 C 0.20834 0.46464 0.48325 0.0
C1549 C 0.22321 0.44261 0.4654 0.0
C1550 C 0.22884 0.49077 0.49931 0.0
C1551 C 0.21444 0.51529 0.51769 0.0
C1552 C 0.19027 0.53099 0.50249 0.0
C1553 C 0.17669 0.554 0.52003 0.0
C1554 C 0.18728 0.56166 0.55273 0.0
C1555 C 0.21154 0.54638 0.56795 0.0
C1556 C 0.22517 0.52333 0.55052 0.0
C1557 C 0.36377 0.47904 0.44406 0.0
C1558 C 0.38584 0.48625 0.47215 0.0
C1559 C 0.32899 0.47595 0.44593 0.0
C1560 C 0.31568 0.47846 0.47614 0.0
C1561 C 0.33794 0.48654 0.50415 0.0
C1562 C 0.37276 0.49073 0.50212 0.0
C1563 C 0.2787 0.47252 0.47869 0.0
C1564 C 0.26372 0.49427 0.49702 0.0
C1565 C 0.25808 0.44609 0.46284 0.0
C1566 C 0.27191 0.42169 0.4435 0.0
C1567 C 0.2981 0.40709 0.45687 0.0
C1568 C 0.31152 0.38483 0.43806 0.0
C1569 C 0.29888 0.37688 0.40588 0.0
C1570 C 0.27235 0.39067 0.39265 0.0
C1571 C 0.25881 0.41289 0.41134 0.0
H1572 H 0.30965 0.36011 0.39112 0.0
H1573 H 0.17675 0.57949 0.56627 0.0
H1574 H 0.83888 0.8192 0.91714 0.0
H1575 H 0.83765 0.81694 0.97518 0.0
H1576 H 0.75932 0.73876 0.95916 0.0
H1577 H 0.76157 0.7401 0.90051 0.0
H1578 H 0.79278 0.82539 0.0134 0.0
H1579 H 0.76167 0.69524 0.02378 0.0
H1580 H 0.76756 0.64627 0.99326 0.0
H1581 H 0.85524 0.68996 0.95346 0.0
H1582 H 0.85033 0.73894 0.98428 0.0
H1583 H 0.74945 0.80316 0.17018 0.0
H1584 H 0.74904 0.79771 0.11149 0.0
H1585 H 0.84289 0.76046 0.11967 0.0
H1586 H 0.8427 0.76476 0.17886 0.0
H1587 H 0.8029 0.73125 0.06979 0.0
H1588 H 0.8397 0.83749 0.10756 0.0
H1589 H 0.83472 0.88653 0.13843 0.0
H1590 H 0.74244 0.89251 0.08189 0.0
H1591 H 0.74661 0.84327 0.05097 0.0
C1592 C 0.82141 0.80141 0.92588 0.0
C1593 C 0.80028 0.7798 0.90419 0.0
C1594 C 0.82069 0.8002 0.95917 0.0
C1595 C 0.79857 0.77759 0.97173 0.0
C1596 C 0.77711 0.75609 0.95014 0.0
C1597 C 0.77827 0.75693 0.91663 0.0
C1598 C 0.79801 0.7772 0.00742 0.0
C1599 C 0.795 0.80475 0.02564 0.0
C1600 C 0.80119 0.75043 0.02363 0.0
C1601 C 0.80539 0.72081 0.00606 0.0
C1602 C 0.78237 0.6943 0.00872 0.0
C1603 C 0.78554 0.66655 0.99137 0.0
C1604 C 0.81169 0.665 0.97136 0.0
C1605 C 0.83498 0.69113 0.96893 0.0
C1606 C 0.83203 0.71891 0.98635 0.0
C1607 C 0.76993 0.79361 0.15953 0.0
C1608 C 0.79636 0.78474 0.17911 0.0
C1609 C 0.7697 0.79059 0.12594 0.0
C1610 C 0.79634 0.7794 0.11114 0.0
C1611 C 0.82216 0.76935 0.13057 0.0
C1612 C 0.82209 0.77187 0.16434 0.0
C1613 C 0.79774 0.77939 0.07557 0.0
C1614 C 0.80079 0.75184 0.05744 0.0
C1615 C 0.79519 0.80631 0.05942 0.0
C1616 C 0.79328 0.8365 0.0772 0.0
C1617 C 0.81827 0.84919 0.10181 0.0
C1618 C 0.81556 0.877 0.11935 0.0
C1619 C 0.78811 0.89246 0.11233 0.0
C1620 C 0.76354 0.88036 0.08747 0.0
C1621 C 0.7661 0.85254 0.06988 0.0
H1622 H 0.78603 0.91396 0.12598 0.0
H1623 H 0.81379 0.64354 0.95774 0.0
H1624 H 0.48746 0.53154 0.36605 0.0
H1625 H 0.49216 0.5302 0.30787 0.0
H1626 H 0.55821 0.46086 0.31488 0.0
H1627 H 0.55134 0.46057 0.37275 0.0
H1628 H 0.5341 0.54179 0.2693 0.0
H1629 H 0.55341 0.41407 0.24992 0.0
H1630 H 0.53851 0.36527 0.27456 0.0
H1631 H 0.4507 0.39793 0.30889 0.0
H1632 H 0.46537 0.44708 0.28497 0.0
H1633 H 0.55752 0.5244 0.1047 0.0
H1634 H 0.56691 0.52141 0.16307 0.0
H1635 H 0.47748 0.45447 0.15969 0.0
H1636 H 0.46977 0.45569 0.10105 0.0
H1637 H 0.51625 0.4412 0.20362 0.0
H1638 H 0.48037 0.53695 0.17992 0.0
H1639 H 0.48202 0.58642 0.15548 0.0
H1640 H 0.57914 0.61797 0.20573 0.0
H1641 H 0.57823 0.56851 0.23016 0.0
C1642 C 0.50332 0.51631 0.35519 0.0
C1643 C 0.51891 0.49606 0.3738 0.0
C1644 C 0.50598 0.51548 0.32187 0.0
C1645 C 0.52491 0.49486 0.30657 0.0
C1646 C 0.54245 0.47618 0.32569 0.0
C1647 C 0.53891 0.4763 0.35886 0.0
C1648 C 0.52539 0.49252 0.27066 0.0
C1649 C 0.53025 0.51974 0.25502 0.0
C1650 C 0.5197 0.46385 0.25165 0.0
C1651 C 0.51067 0.43431 0.26593 0.0
C1652 C 0.53093 0.4108 0.26272 0.0
C1653 C 0.52256 0.38312 0.2766 0.0
C1654 C 0.49365 0.37848 0.29319 0.0
C1655 C 0.47312 0.40157 0.29609 0.0
C1656 C 0.48154 0.4294 0.28254 0.0
C1657 C 0.54033 0.50862 0.11644 0.0
C1658 C 0.51281 0.49044 0.09851 0.0
C1659 C 0.54548 0.50711 0.14985 0.0
C1660 C 0.52228 0.4885 0.16618 0.0
C1661 C 0.49573 0.46916 0.1479 0.0
C1662 C 0.49126 0.46988 0.11434 0.0
C1663 C 0.52435 0.49051 0.20225 0.0
C1664 C 0.52025 0.46323 0.21791 0.0
C1665 C 0.52872 0.51917 0.2212 0.0
C1666 C 0.5294 0.54892 0.20655 0.0
C1667 C 0.50217 0.55437 0.18557 0.0
C1668 C 0.50296 0.58241 0.17175 0.0
C1669 C 0.53072 0.60528 0.17897 0.0
C1670 C 0.5577 0.6002 0.2001 0.0
C1671 C 0.55706 0.57218 0.21396 0.0
H1672 H 0.53128 0.62698 0.16824 0.0
H1673 H 0.48717 0.357 0.30381 0.0
H1674 H 0.79665 0.28452 0.40955 0.0
H1675 H 0.8011 0.28937 0.4688 0.0
H1676 H 0.70938 0.22592 0.46769 0.0
H1677 H 0.7052 0.22038 0.40874 0.0
H1678 H 0.76141 0.30737 0.51512 0.0
H1679 H 0.71686 0.18093 0.52902 0.0
H1680 H 0.71106 0.13022 0.49785 0.0
H1681 H 0.79625 0.16132 0.44677 0.0
H1682 H 0.8028 0.21208 0.47792 0.0
H1683 H 0.75651 0.28147 0.68503 0.0
H1684 H 0.74082 0.28324 0.62705 0.0
H1685 H 0.82739 0.24025 0.60433 0.0
H1686 H 0.8428 0.23798 0.66163 0.0
H1687 H 0.7716 0.21204 0.56937 0.0
H1688 H 0.82628 0.31803 0.59553 0.0
H1689 H 0.83341 0.36907 0.6264 0.0
H1690 H 0.73114 0.37889 0.59671 0.0
H1691 H 0.72351 0.32778 0.56606 0.0
C1692 C 0.7773 0.27185 0.42196 0.0
C1693 C 0.75082 0.2518 0.40452 0.0
C1694 C 0.77979 0.27471 0.45578 0.0
C1695 C 0.75579 0.2577 0.47262 0.0
C1696 C 0.72847 0.23885 0.4552 0.0
C1697 C 0.72616 0.23571 0.42149 0.0
C1698 C 0.76054 0.25822 0.50831 0.0
C1699 C 0.76346 0.28651 0.52701 0.0
C1700 C 0.763 0.23099 0.52385 0.0
C1701 C 0.76008 0.20035 0.50558 0.0
C1702 C 0.73446 0.17686 0.51125 0.0
C1703 C 0.731 0.14815 0.49357 0.0
C1704 C 0.75314 0.14262 0.47023 0.0
C1705 C 0.77902 0.16569 0.46475 0.0
C1706 C 0.7826 0.19444 0.4824 0.0
C1707 C 0.77222 0.27256 0.66761 0.0
C1708 C 0.80072 0.25935 0.67789 0.0
C1709 C 0.7633 0.27366 0.63454 0.0
C1710 C 0.78291 0.2618 0.61138 0.0
C1711 C 0.81172 0.24928 0.62174 0.0
C1712 C 0.82051 0.24804 0.65457 0.0
C1713 C 0.77332 0.26129 0.57621 0.0
C1714 C 0.76918 0.23289 0.55756 0.0
C1715 C 0.76983 0.28838 0.56078 0.0
C1716 C 0.77429 0.31904 0.57902 0.0
C1717 C 0.80533 0.33103 0.59598 0.0
C1718 C 0.80945 0.35995 0.61333 0.0
C1719 C 0.78269 0.37715 0.61365 0.0
C1720 C 0.75182 0.36551 0.59652 0.0
C1721 C 0.7476 0.33659 0.57914 0.0
H1722 H 0.78592 0.39954 0.62708 0.0
H1723 H 0.75021 0.12041 0.45649 0.0
H1724 H 0.00338 0.37703 0.61349 0.0
H1725 H 0.98667 0.37585 0.66845 0.0
H1726 H 0.92187 0.44435 0.65045 0.0
H1727 H 0.93892 0.446 0.59521 0.0
H1728 H 0.96207 0.45914 0.70552 0.0
H1729 H 0.88869 0.3677 0.65899 0.0
H1730 H 0.8745 0.31642 0.62901 0.0
H1731 H 0.94291 0.27963 0.69466 0.0
H1732 H 0.95823 0.33084 0.72447 0.0
H1733 H 0.9126 0.46241 0.86061 0.0
H1734 H 0.90383 0.45126 0.80196 0.0
H1735 H 0.96501 0.37817 0.80773 0.0
H1736 H 0.9725 0.38825 0.86651 0.0
H1737 H 0.92043 0.36508 0.75736 0.0
H1738 H 0.0001 0.45249 0.79892 0.0
H1739 H 0.0195 0.50193 0.83113 0.0
H1740 H 0.94755 0.54514 0.77578 0.0
H1741 H 0.92735 0.49578 0.74356 0.0
C1742 C 0.98538 0.39174 0.62107 0.0
C1743 C 0.97257 0.41173 0.59998 0.0
C1744 C 0.97559 0.39079 0.65247 0.0
C1745 C 0.95258 0.40963 0.66345 0.0
C1746 C 0.93947 0.42944 0.64239 0.0
C1747 C 0.94928 0.43041 0.61087 0.0
C1748 C 0.94461 0.4105 0.69772 0.0
C1749 C 0.95213 0.4387 0.71663 0.0
C1750 C 0.93308 0.38358 0.71259 0.0
C1751 C 0.92451 0.35305 0.69402 0.0
C1752 C 0.90086 0.34871 0.66688 0.0
C1753 C 0.89259 0.31968 0.64992 0.0
C1754 C 0.90764 0.29478 0.65997 0.0
C1755 C 0.93118 0.2989 0.68692 0.0
C1756 C 0.93966 0.32791 0.70386 0.0
C1757 C 0.92314 0.44323 0.84947 0.0
C1758 C 0.94368 0.42654 0.86804 0.0
C1759 C 0.9183 0.43701 0.81593 0.0
C1760 C 0.9348 0.41465 0.80037 0.0
C1761 C 0.95232 0.39575 0.81917 0.0
C1762 C 0.95656 0.40153 0.85283 0.0
C1763 C 0.93759 0.41376 0.76495 0.0
C1764 C 0.92956 0.38562 0.746 0.0
C1765 C 0.94957 0.44057 0.75008 0.0
C1766 C 0.96195 0.47039 0.7691 0.0
C1767 C 0.98828 0.4725 0.79376 0.0
C1768 C 0.99942 0.5005 0.81201 0.0
C1769 C 0.98469 0.52664 0.80557 0.0
C1770 C 0.95887 0.52485 0.78078 0.0
C1771 C 0.94757 0.49688 0.76252 0.0
H1772 H 0.99334 0.54829 0.81974 0.0
H1773 H 0.9011 0.27233 0.64682 0.0
H1774 H 0.91902 0.05977 0.48072 0.0
H1775 H 0.86017 0.06459 0.46782 0.0
H1776 H 0.83638 0.96577 0.4513 0.0
H1777 H 0.8958 0.96084 0.46327 0.0
H1778 H 0.80225 0.98966 0.4083 0.0
H1779 H 0.82195 0.01254 0.52546 0.0
H1780 H 0.85067 0.04124 0.57538 0.0
H1781 H 0.82516 0.12586 0.54194 0.0
H1782 H 0.79672 0.09766 0.4917 0.0
H1783 H 0.63021 0.96546 0.43734 0.0
H1784 H 0.69139 0.9686 0.43767 0.0
H1785 H 0.70046 0.06752 0.43951 0.0
H1786 H 0.6394 0.06465 0.43921 0.0
H1787 H 0.7427 0.04987 0.48513 0.0
H1788 H 0.7189 0.02814 0.37137 0.0
H1789 H 0.69111 0.00143 0.32012 0.0
H1790 H 0.72435 0.91705 0.34582 0.0
H1791 H 0.75233 0.94323 0.39706 0.0
C1792 C 0.90127 0.03902 0.47439 0.0
C1793 C 0.91196 0.00986 0.47346 0.0
C1794 C 0.86753 0.04183 0.46698 0.0
C1795 C 0.84356 0.01557 0.45915 0.0
C1796 C 0.85433 0.98642 0.45741 0.0
C1797 C 0.88826 0.98359 0.46437 0.0
C1798 C 0.80726 0.0183 0.45317 0.0
C1799 C 0.78919 0.00251 0.42532 0.0
C1800 C 0.79034 0.03622 0.47458 0.0
C1801 C 0.80738 0.05305 0.50482 0.0
C1802 C 0.82261 0.03728 0.52874 0.0
C1803 C 0.83884 0.05345 0.55708 0.0
C1804 C 0.83978 0.08535 0.56182 0.0
C1805 C 0.82443 0.10115 0.53826 0.0
C1806 C 0.80822 0.08509 0.50988 0.0
C1807 C 0.64519 0.98787 0.43774 0.0
C1808 C 0.6299 0.01479 0.43844 0.0
C1809 C 0.68013 0.98962 0.43758 0.0
C1810 C 0.70042 0.01828 0.43821 0.0
C1811 C 0.68524 0.04517 0.43881 0.0
C1812 C 0.65033 0.04344 0.43872 0.0
C1813 C 0.73759 0.02023 0.44092 0.0
C1814 C 0.75583 0.03711 0.46802 0.0
C1815 C 0.75468 0.0035 0.41875 0.0
C1816 C 0.73741 0.98757 0.38818 0.0
C1817 C 0.72004 0.00383 0.36617 0.0
C1818 C 0.70437 0.98882 0.33705 0.0
C1819 C 0.70588 0.95756 0.32971 0.0
C1820 C 0.72308 0.94125 0.3515 0.0
C1821 C 0.739 0.95619 0.3805 0.0
H1822 H 0.69385 0.94602 0.3071 0.0
H1823 H 0.85236 0.09782 0.58377 0.0
loop_
_geom_bond_atom_site_label_1
_geom_bond_atom_site_label_2
_geom_bond_distance
_geom_bond_site_symmetry_2
_ccdc_geom_bond_type
O0 Cd1 2.223 . S
O0 C8 1.315 . S
Cd1 O0 2.223 . S
Cd1 O4 2.297 . S
Cd1 O5 2.439 . S
Cd1 O11 2.240 . S
Cd2 O3 2.240 . S
Cd2 O10 2.223 . S
Cd2 O12 2.297 . S
Cd2 O13 2.439 . S
O3 Cd2 2.240 . S
O3 C8 1.279 . S
O4 Cd1 2.297 . S
O4 C6 1.247 . S
O5 Cd1 2.439 . S
O5 C6 1.208 . S
C6 O4 1.247 . S
C6 O5 1.208 . S
C7 O12 1.247 . S
C7 O13 1.208 . S
C8 O0 1.315 . S
C8 O3 1.279 . S
C9 O10 1.315 . S
C9 O11 1.279 . S
O10 Cd2 2.223 . S
O10 C9 1.315 . S
O11 Cd1 2.240 . S
O11 C9 1.279 . S
O12 Cd2 2.297 . S
O12 C7 1.247 . S
O13 Cd2 2.439 . S
O13 C7 1.208 . S
O14 Cd15 2.223 . S
O14 C22 1.315 1_565 S
Cd15 O14 2.223 . S
Cd15 O18 2.297 1_655 S
Cd15 O19 2.439 1_665 S
Cd15 O25 2.240 1_565 S
Cd16 O17 2.240 1_655 S
Cd16 O24 2.223 . S
Cd16 O26 2.297 . S
Cd16 O27 2.439 1_655 S
O17 Cd16 2.240 1_455 S
O17 C22 1.279 1_455 S
O18 Cd15 2.297 1_455 S
O18 C20 1.247 . S
O19 Cd15 2.439 1_445 S
O19 C20 1.208 1_545 S
C20 O18 1.247 . S
C20 O19 1.208 1_565 S
C21 O26 1.247 . S
C21 O27 1.208 1_655 S
C22 O14 1.315 1_545 S
C22 O17 1.279 1_655 S
C23 O24 1.315 . S
C23 O25 1.279 . S
O24 Cd16 2.223 . S
O24 C23 1.315 . S
O25 Cd15 2.240 1_545 S
O25 C23 1.279 . S
O26 Cd16 2.297 . S
O26 C21 1.247 . S
O27 Cd16 2.439 1_455 S
O27 C21 1.208 1_455 S
O28 Cd29 2.223 . S
O28 C36 1.315 . S
Cd29 O28 2.223 . S
Cd29 O32 2.297 . S
Cd29 O33 2.439 . S
Cd29 O39 2.240 . S
Cd30 O31 2.240 . S
Cd30 O38 2.223 . S
Cd30 O40 2.297 . S
Cd30 O41 2.439 . S
O31 Cd30 2.240 . S
O31 C36 1.279 . S
O32 Cd29 2.297 . S
O32 C34 1.247 . S
O33 Cd29 2.439 . S
O33 C34 1.208 . S
C34 O32 1.247 . S
C34 O33 1.208 . S
C35 O40 1.247 . S
C35 O41 1.208 . S
C36 O28 1.315 . S
C36 O31 1.279 . S
C37 O38 1.315 . S
C37 O39 1.279 . S
O38 Cd30 2.223 . S
O38 C37 1.315 . S
O39 Cd29 2.240 . S
O39 C37 1.279 . S
O40 Cd30 2.297 . S
O40 C35 1.247 . S
O41 Cd30 2.439 . S
O41 C35 1.208 . S
O42 Cd43 2.223 . S
O42 C50 1.315 . S
Cd43 O42 2.223 . S
Cd43 O46 2.297 . S
Cd43 O47 2.439 . S
Cd43 O53 2.240 . S
Cd44 O45 2.240 1_554 S
Cd44 O52 2.223 . S
Cd44 O54 2.297 . S
Cd44 O55 2.439 . S
O45 Cd44 2.240 1_556 S
O45 C50 1.279 . S
O46 Cd43 2.297 . S
O46 C48 1.261 . S
O47 Cd43 2.439 . S
O47 C48 1.216 . S
C48 O46 1.261 . S
C48 O47 1.216 . S
C49 O54 1.247 . S
C49 O55 1.208 . S
C50 O42 1.315 . S
C50 O45 1.279 . S
C51 O52 1.315 . S
C51 O53 1.279 1_554 S
O52 Cd44 2.223 . S
O52 C51 1.315 . S
O53 Cd43 2.240 . S
O53 C51 1.279 1_556 S
O54 Cd44 2.297 . S
O54 C49 1.247 . S
O55 Cd44 2.439 . S
O55 C49 1.208 . S
O56 Cd57 2.223 . S
O56 C64 1.315 . S
Cd57 O56 2.223 . S
Cd57 O60 2.297 . S
Cd57 O61 2.439 . S
Cd57 O67 2.240 . S
Cd58 O59 2.240 . S
Cd58 O66 2.223 . S
Cd58 O68 2.297 . S
Cd58 O69 2.439 . S
O59 Cd58 2.240 . S
O59 C64 1.279 . S
O60 Cd57 2.297 . S
O60 C62 1.247 . S
O61 Cd57 2.439 . S
O61 C62 1.208 . S
C62 O60 1.247 . S
C62 O61 1.208 . S
C63 O68 1.247 . S
C63 O69 1.208 . S
C64 O56 1.315 . S
C64 O59 1.279 . S
C65 O66 1.315 . S
C65 O67 1.279 . S
O66 Cd58 2.223 . S
O66 C65 1.315 . S
O67 Cd57 2.240 . S
O67 C65 1.279 . S
O68 Cd58 2.297 . S
O68 C63 1.247 . S
O69 Cd58 2.439 . S
O69 C63 1.208 . S
O70 Cd71 2.223 . S
O70 C78 1.315 . S
Cd71 O70 2.223 . S
Cd71 O74 2.297 . S
Cd71 O75 2.439 . S
Cd71 O81 2.240 1_565 S
Cd72 O73 2.240 . S
Cd72 O80 2.223 . S
Cd72 O82 2.297 . S
Cd72 O83 2.439 . S
O73 Cd72 2.240 . S
O73 C78 1.279 1_545 S
O74 Cd71 2.297 . S
O74 C76 1.247 . S
O75 Cd71 2.439 . S
O75 C76 1.208 . S
C76 O74 1.247 . S
C76 O75 1.208 . S
C77 O82 1.247 . S
C77 O83 1.208 . S
C78 O70 1.315 . S
C78 O73 1.279 1_565 S
C79 O80 1.315 . S
C79 O81 1.279 . S
O80 Cd72 2.223 . S
O80 C79 1.315 . S
O81 Cd71 2.240 1_545 S
O81 C79 1.279 . S
O82 Cd72 2.297 . S
O82 C77 1.247 . S
O83 Cd72 2.439 . S
O83 C77 1.208 . S
O84 Cd85 2.223 . S
O84 C92 1.315 . S
Cd85 O84 2.223 . S
Cd85 O88 2.297 . S
Cd85 O89 2.439 . S
Cd85 O95 2.240 . S
Cd86 O87 2.240 . S
Cd86 O94 2.223 . S
Cd86 O96 2.297 . S
Cd86 O97 2.439 . S
O87 Cd86 2.240 . S
O87 C92 1.279 . S
O88 Cd85 2.297 . S
O88 C90 1.247 . S
O89 Cd85 2.439 . S
O89 C90 1.208 . S
C90 O88 1.247 . S
C90 O89 1.208 . S
C91 O96 1.247 . S
C91 O97 1.208 . S
C92 O84 1.315 . S
C92 O87 1.279 . S
C93 O94 1.315 . S
C93 O95 1.279 . S
O94 Cd86 2.223 . S
O94 C93 1.315 . S
O95 Cd85 2.240 . S
O95 C93 1.279 . S
O96 Cd86 2.297 . S
O96 C91 1.247 . S
O97 Cd86 2.439 . S
O97 C91 1.208 . S
O98 Cd99 2.223 1_545 S
O98 C106 1.315 1_545 S
Cd99 O98 2.223 1_565 S
Cd99 O102 2.297 1_665 S
Cd99 O103 2.439 1_655 S
Cd99 O109 2.240 . S
Cd100 O101 2.240 1_655 S
Cd100 O108 2.223 . S
Cd100 O110 2.297 . S
Cd100 O111 2.439 1_655 S
O101 Cd100 2.240 1_455 S
O101 C106 1.279 1_455 S
O102 Cd99 2.297 1_445 S
O102 C104 1.247 . S
O103 Cd99 2.439 1_455 S
O103 C104 1.208 1_565 S
C104 O102 1.247 . S
C104 O103 1.208 1_545 S
C105 O110 1.247 . S
C105 O111 1.208 1_655 S
C106 O98 1.315 1_565 S
C106 O101 1.279 1_655 S
C107 O108 1.315 . S
C107 O109 1.279 . S
O108 Cd100 2.223 . S
O108 C107 1.315 . S
O109 Cd99 2.240 . S
O109 C107 1.279 . S
O110 Cd100 2.297 . S
O110 C105 1.247 . S
O111 Cd100 2.439 1_455 S
O111 C105 1.208 1_455 S
O112 Cd113 2.223 . S
O112 C120 1.315 . S
Cd113 O112 2.223 . S
Cd113 O116 2.297 . S
Cd113 O117 2.439 . S
Cd113 O123 2.240 . S
Cd114 O115 2.240 . S
Cd114 O122 2.223 . S
Cd114 O124 2.297 . S
Cd114 O125 2.439 . S
O115 Cd114 2.240 . S
O115 C120 1.279 . S
O116 Cd113 2.297 . S
O116 C118 1.247 . S
O117 Cd113 2.439 . S
O117 C118 1.208 . S
C118 O116 1.247 . S
C118 O117 1.208 . S
C119 O124 1.247 . S
C119 O125 1.208 . S
C120 O112 1.315 . S
C120 O115 1.279 . S
C121 O122 1.315 . S
C121 O123 1.279 . S
O122 Cd114 2.223 . S
O122 C121 1.315 . S
O123 Cd113 2.240 . S
O123 C121 1.279 . S
O124 Cd114 2.297 . S
O124 C119 1.247 . S
O125 Cd114 2.439 . S
O125 C119 1.208 . S
O126 Cd127 2.223 1_556 S
O126 C134 1.315 1_455 S
Cd127 O126 2.223 1_554 S
Cd127 O130 2.297 1_455 S
Cd127 O131 2.439 1_455 S
Cd127 O137 2.242 . S
Cd128 O129 2.240 1_455 S
Cd128 O136 2.223 . S
Cd128 O138 2.297 . S
Cd128 O139 2.439 1_456 S
O129 Cd128 2.240 1_655 S
O129 C134 1.279 . S
O130 Cd127 2.297 1_655 S
O130 C132 1.247 . S
O131 Cd127 2.439 1_655 S
O131 C132 1.208 . S
C132 O130 1.247 . S
C132 O131 1.208 . S
C133 O138 1.247 1_654 S
C133 O139 1.208 . S
C134 O126 1.315 1_655 S
C134 O129 1.279 . S
C135 O136 1.315 . S
C135 O137 1.271 1_556 S
O136 Cd128 2.223 . S
O136 C135 1.315 . S
O137 Cd127 2.242 . S
O137 C135 1.271 1_554 S
O138 Cd128 2.297 . S
O138 C133 1.247 1_456 S
O139 Cd128 2.439 1_654 S
O139 C133 1.208 . S
O140 Cd141 2.223 . S
O140 C148 1.315 . S
Cd141 O140 2.223 . S
Cd141 O144 2.297 . S
Cd141 O145 2.439 . S
Cd141 O151 2.240 . S
Cd142 O143 2.240 . S
Cd142 O150 2.223 . S
Cd142 O152 2.297 . S
Cd142 O153 2.439 . S
O143 Cd142 2.240 . S
O143 C148 1.279 . S
O144 Cd141 2.297 . S
O144 C146 1.247 . S
O145 Cd141 2.439 . S
O145 C146 1.208 . S
C146 O144 1.247 . S
C146 O145 1.208 . S
C147 O152 1.247 . S
C147 O153 1.208 . S
C148 O140 1.315 . S
C148 O143 1.279 . S
C149 O150 1.315 . S
C149 O151 1.279 . S
O150 Cd142 2.223 . S
O150 C149 1.315 . S
O151 Cd141 2.240 . S
O151 C149 1.279 . S
O152 Cd142 2.297 . S
O152 C147 1.247 . S
O153 Cd142 2.439 . S
O153 C147 1.208 . S
O154 Cd155 2.223 . S
O154 C162 1.315 . S
Cd155 O154 2.223 . S
Cd155 O158 2.297 . S
Cd155 O159 2.439 1_455 S
Cd155 O165 2.240 . S
Cd156 O157 2.240 . S
Cd156 O164 2.223 . S
Cd156 O166 2.297 . S
Cd156 O167 2.439 . S
O157 Cd156 2.240 . S
O157 C162 1.279 . S
O158 Cd155 2.297 . S
O158 C160 1.247 1_455 S
O159 Cd155 2.439 1_655 S
O159 C160 1.208 . S
C160 O158 1.247 1_655 S
C160 O159 1.208 . S
C161 O166 1.247 . S
C161 O167 1.208 . S
C162 O154 1.315 . S
C162 O157 1.279 . S
C163 O164 1.315 . S
C163 O165 1.279 . S
O164 Cd156 2.223 . S
O164 C163 1.315 . S
O165 Cd155 2.240 . S
O165 C163 1.279 . S
O166 Cd156 2.297 . S
O166 C161 1.247 . S
O167 Cd156 2.439 . S
O167 C161 1.208 . S
O168 Cd169 2.223 1_554 S
O168 C176 1.315 . S
Cd169 O168 2.223 1_556 S
Cd169 O172 2.297 . S
Cd169 O173 2.439 . S
Cd169 O179 2.240 . S
Cd170 O171 2.240 . S
Cd170 O178 2.223 . S
Cd170 O180 2.297 . S
Cd170 O181 2.439 1_554 S
O171 Cd170 2.240 . S
O171 C176 1.279 . S
O172 Cd169 2.297 . S
O172 C174 1.247 . S
O173 Cd169 2.439 . S
O173 C174 1.208 . S
C174 O172 1.247 . S
C174 O173 1.208 . S
C175 O180 1.247 1_556 S
C175 O181 1.208 . S
C176 O168 1.315 . S
C176 O171 1.279 . S
C177 O178 1.315 . S
C177 O179 1.279 1_554 S
O178 Cd170 2.223 . S
O178 C177 1.315 . S
O179 Cd169 2.240 . S
O179 C177 1.279 1_556 S
O180 Cd170 2.297 . S
O180 C175 1.247 1_554 S
O181 Cd170 2.439 1_556 S
O181 C175 1.208 . S
O182 Cd183 2.223 . S
O182 C190 1.315 . S
Cd183 O182 2.223 . S
Cd183 O186 2.297 . S
Cd183 O187 2.439 . S
Cd183 O193 2.240 . S
Cd184 O185 2.240 . S
Cd184 O192 2.223 . S
Cd184 O194 2.297 . S
Cd184 O195 2.439 . S
O185 Cd184 2.240 . S
O185 C190 1.279 . S
O186 Cd183 2.297 . S
O186 C188 1.247 . S
O187 Cd183 2.439 . S
O187 C188 1.208 . S
C188 O186 1.247 . S
C188 O187 1.208 . S
C189 O194 1.247 . S
C189 O195 1.208 . S
C190 O182 1.315 . S
C190 O185 1.279 . S
C191 O192 1.315 . S
C191 O193 1.279 . S
O192 Cd184 2.223 . S
O192 C191 1.315 . S
O193 Cd183 2.240 . S
O193 C191 1.279 . S
O194 Cd184 2.297 . S
O194 C189 1.247 . S
O195 Cd184 2.439 . S
O195 C189 1.208 . S
O196 Cd197 2.223 . S
O196 C204 1.315 . S
Cd197 O196 2.223 . S
Cd197 O200 2.297 . S
Cd197 O201 2.439 . S
Cd197 O207 2.240 . S
Cd198 O199 2.240 . S
Cd198 O206 2.223 . S
Cd198 O208 2.297 . S
Cd198 O209 2.439 . S
O199 Cd198 2.240 . S
O199 C204 1.279 . S
O200 Cd197 2.297 . S
O200 C202 1.247 . S
O201 Cd197 2.439 . S
O201 C202 1.208 . S
C202 O200 1.247 . S
C202 O201 1.208 . S
C203 O208 1.247 . S
C203 O209 1.208 . S
C204 O196 1.315 . S
C204 O199 1.279 . S
C205 O206 1.315 . S
C205 O207 1.279 . S
O206 Cd198 2.223 . S
O206 C205 1.315 . S
O207 Cd197 2.240 . S
O207 C205 1.279 . S
O208 Cd198 2.297 . S
O208 C203 1.247 . S
O209 Cd198 2.439 . S
O209 C203 1.208 . S
O210 Cd211 2.223 . S
O210 C218 1.315 . S
Cd211 O210 2.223 . S
Cd211 O214 2.297 . S
Cd211 O215 2.439 . S
Cd211 O221 2.240 . S
Cd212 O213 2.240 . S
Cd212 O220 2.223 . S
Cd212 O222 2.297 . S
Cd212 O223 2.439 . S
O213 Cd212 2.240 . S
O213 C218 1.279 . S
O214 Cd211 2.297 . S
O214 C216 1.247 . S
O215 Cd211 2.439 . S
O215 C216 1.208 . S
C216 O214 1.247 . S
C216 O215 1.208 . S
C217 O222 1.247 . S
C217 O223 1.208 . S
C218 O210 1.315 . S
C218 O213 1.279 . S
C219 O220 1.315 . S
C219 O221 1.279 . S
O220 Cd212 2.223 . S
O220 C219 1.315 . S
O221 Cd211 2.240 . S
O221 C219 1.279 . S
O222 Cd212 2.297 . S
O222 C217 1.247 . S
O223 Cd212 2.439 . S
O223 C217 1.208 . S
H224 C242 0.951 . S
H225 C244 0.951 . S
H226 C246 0.950 . S
H227 C247 0.950 . S
H228 C249 0.950 . S
H229 C252 0.950 . S
H230 C253 0.950 . S
H231 C255 0.950 . S
H232 C256 0.950 . S
H233 C257 0.951 . S
H234 C259 0.951 . S
H235 C261 0.950 . S
H236 C262 0.950 1_556 S
H237 C264 0.950 . S
H238 C267 0.950 . S
H239 C268 0.950 . S
H240 C270 0.950 . S
H241 C271 0.950 . S
C242 H224 0.951 . S
C242 C243 1.366 . S
C242 C244 1.388 . S
C243 C242 1.366 . S
C243 C247 1.385 . S
C244 H225 0.951 . S
C244 C242 1.388 . S
C244 C245 1.366 . S
C245 C244 1.366 . S
C245 C246 1.414 . S
C245 C248 1.499 . S
C246 H226 0.950 . S
C246 C245 1.414 . S
C246 C247 1.374 . S
C247 H227 0.950 . S
C247 C243 1.385 . S
C247 C246 1.374 . S
C248 C245 1.499 . S
C248 C249 1.373 . S
C248 C250 1.389 . S
C249 H228 0.950 . S
C249 C248 1.373 . S
C249 C265 1.377 . S
C250 C248 1.389 . S
C250 C251 1.524 . S
C250 C264 1.377 . S
C251 C250 1.524 . S
C251 C252 1.397 . S
C251 C256 1.363 . S
C252 H229 0.950 . S
C252 C251 1.397 . S
C252 C253 1.334 . S
C253 H230 0.950 . S
C253 C252 1.334 . S
C253 C254 1.287 . S
C254 C253 1.287 . S
C254 C255 1.524 . S
C254 H273 0.913 . S
C255 H231 0.950 . S
C255 C254 1.524 . S
C255 C256 1.415 . S
C256 H232 0.950 . S
C256 C251 1.363 . S
C256 C255 1.415 . S
C257 H233 0.951 . S
C257 C258 1.366 . S
C257 C259 1.388 . S
C258 C257 1.366 . S
C258 C262 1.385 . S
C259 H234 0.951 . S
C259 C257 1.388 . S
C259 C260 1.366 . S
C260 C259 1.366 . S
C260 C261 1.414 . S
C260 C263 1.499 . S
C261 H235 0.950 . S
C261 C260 1.414 . S
C261 C262 1.374 . S
C262 H236 0.950 1_554 S
C262 C258 1.385 . S
C262 C261 1.374 . S
C263 C260 1.499 . S
C263 C264 1.373 . S
C263 C265 1.389 . S
C264 H237 0.950 . S
C264 C250 1.377 . S
C264 C263 1.373 . S
C265 C249 1.377 . S
C265 C263 1.389 . S
C265 C266 1.524 . S
C266 C265 1.524 . S
C266 C267 1.397 . S
C266 C271 1.363 . S
C267 H238 0.950 . S
C267 C266 1.397 . S
C267 C268 1.334 . S
C268 H239 0.950 . S
C268 C267 1.334 . S
C268 C269 1.287 . S
C269 C268 1.287 . S
C269 C270 1.524 . S
C269 H272 0.999 . S
C270 H240 0.950 . S
C270 C269 1.524 . S
C270 C271 1.415 . S
C271 H241 0.950 . S
C271 C266 1.363 . S
C271 C270 1.415 . S
H272 C269 0.999 . S
H273 C254 0.913 . S
H274 C292 0.951 . S
H275 C294 0.951 . S
H276 C296 0.950 . S
H277 C297 0.950 . S
H278 C299 0.950 . S
H279 C302 0.950 . S
H280 C303 0.950 . S
H281 C305 0.950 . S
H282 C306 0.950 . S
H283 C307 0.951 . S
H284 C309 0.951 . S
H285 C311 0.950 . S
H286 C312 0.950 . S
H287 C314 0.950 . S
H288 C317 0.950 . S
H289 C318 0.950 . S
H290 C320 0.950 . S
H291 C321 0.950 . S
C292 H274 0.951 . S
C292 C293 1.366 . S
C292 C294 1.388 . S
C293 C292 1.366 . S
C293 C297 1.385 . S
C294 H275 0.951 . S
C294 C292 1.388 . S
C294 C295 1.366 . S
C295 C294 1.366 . S
C295 C296 1.414 . S
C295 C298 1.499 . S
C296 H276 0.950 . S
C296 C295 1.414 . S
C296 C297 1.374 . S
C297 H277 0.950 . S
C297 C293 1.385 . S
C297 C296 1.374 . S
C298 C295 1.499 . S
C298 C299 1.373 . S
C298 C300 1.389 . S
C299 H278 0.950 . S
C299 C298 1.373 . S
C299 C315 1.377 . S
C300 C298 1.389 . S
C300 C301 1.524 . S
C300 C314 1.377 . S
C301 C300 1.524 . S
C301 C302 1.397 . S
C301 C306 1.363 . S
C302 H279 0.950 . S
C302 C301 1.397 . S
C302 C303 1.334 . S
C303 H280 0.950 . S
C303 C302 1.334 . S
C303 C304 1.287 . S
C304 C303 1.287 . S
C304 C305 1.524 . S
C304 H323 0.885 1_455 S
C305 H281 0.950 . S
C305 C304 1.524 . S
C305 C306 1.415 . S
C306 H282 0.950 . S
C306 C301 1.363 . S
C306 C305 1.415 . S
C307 H283 0.951 . S
C307 C308 1.366 . S
C307 C309 1.388 . S
C308 C307 1.366 . S
C308 C312 1.385 . S
C309 H284 0.951 . S
C309 C307 1.388 . S
C309 C310 1.366 . S
C310 C309 1.366 . S
C310 C311 1.414 . S
C310 C313 1.499 . S
C311 H285 0.950 . S
C311 C310 1.414 . S
C311 C312 1.374 . S
C312 H286 0.950 . S
C312 C308 1.385 . S
C312 C311 1.374 . S
C313 C310 1.499 . S
C313 C314 1.373 . S
C313 C315 1.389 . S
C314 H287 0.950 . S
C314 C300 1.377 . S
C314 C313 1.373 . S
C315 C299 1.377 . S
C315 C313 1.389 . S
C315 C316 1.524 . S
C316 C315 1.524 . S
C316 C317 1.397 . S
C316 C321 1.363 . S
C317 H288 0.950 . S
C317 C316 1.397 . S
C317 C318 1.334 . S
C318 H289 0.950 . S
C318 C317 1.334 . S
C318 C319 1.287 . S
C319 C318 1.287 . S
C319 C320 1.524 . S
C319 H322 0.999 . S
C320 H290 0.950 . S
C320 C319 1.524 . S
C320 C321 1.415 . S
C321 H291 0.950 . S
C321 C316 1.363 . S
C321 C320 1.415 . S
H322 C319 0.999 . S
H323 C304 0.885 1_655 S
H324 C342 0.951 . S
H325 C344 0.951 . S
H326 C346 0.950 . S
H327 C347 0.950 . S
H328 C349 0.950 . S
H329 C352 0.950 . S
H330 C353 0.950 . S
H331 C355 0.950 . S
H332 C356 0.950 . S
H333 C357 0.951 . S
H334 C359 0.951 . S
H335 C361 0.950 . S
H336 C362 0.950 . S
H337 C364 0.950 . S
H338 C367 0.950 . S
H339 C368 0.950 . S
H340 C370 0.950 . S
H341 C371 0.950 . S
C342 H324 0.951 . S
C342 C343 1.366 . S
C342 C344 1.388 . S
C343 C342 1.366 . S
C343 C347 1.385 . S
C344 H325 0.951 . S
C344 C342 1.388 . S
C344 C345 1.366 . S
C345 C344 1.366 . S
C345 C346 1.414 . S
C345 C348 1.499 . S
C346 H326 0.950 . S
C346 C345 1.414 . S
C346 C347 1.374 . S
C347 H327 0.950 . S
C347 C343 1.385 . S
C347 C346 1.374 . S
C348 C345 1.499 . S
C348 C349 1.373 . S
C348 C350 1.389 . S
C349 H328 0.950 . S
C349 C348 1.373 . S
C349 C365 1.377 . S
C350 C348 1.389 . S
C350 C351 1.524 . S
C350 C364 1.377 . S
C351 C350 1.524 . S
C351 C352 1.397 . S
C351 C356 1.363 . S
C352 H329 0.950 . S
C352 C351 1.397 . S
C352 C353 1.334 . S
C353 H330 0.950 . S
C353 C352 1.334 . S
C353 C354 1.287 . S
C354 C353 1.287 . S
C354 C355 1.524 . S
C354 H373 0.913 . S
C355 H331 0.950 . S
C355 C354 1.524 . S
C355 C356 1.415 . S
C356 H332 0.950 . S
C356 C351 1.363 . S
C356 C355 1.415 . S
C357 H333 0.951 . S
C357 C358 1.366 . S
C357 C359 1.388 . S
C358 C357 1.366 . S
C358 C362 1.385 . S
C359 H334 0.951 . S
C359 C357 1.388 . S
C359 C360 1.366 . S
C360 C359 1.366 . S
C360 C361 1.414 . S
C360 C363 1.499 . S
C361 H335 0.950 . S
C361 C360 1.414 . S
C361 C362 1.374 . S
C362 H336 0.950 . S
C362 C358 1.385 . S
C362 C361 1.374 . S
C363 C360 1.499 . S
C363 C364 1.373 . S
C363 C365 1.389 . S
C364 H337 0.950 . S
C364 C350 1.377 . S
C364 C363 1.373 . S
C365 C349 1.377 . S
C365 C363 1.389 . S
C365 C366 1.524 . S
C366 C365 1.524 . S
C366 C367 1.397 . S
C366 C371 1.363 . S
C367 H338 0.950 . S
C367 C366 1.397 . S
C367 C368 1.334 . S
C368 H339 0.950 . S
C368 C367 1.334 . S
C368 C369 1.287 . S
C369 C368 1.287 . S
C369 C370 1.524 . S
C369 H372 0.999 . S
C370 H340 0.950 . S
C370 C369 1.524 . S
C370 C371 1.415 . S
C371 H341 0.950 . S
C371 C366 1.363 . S
C371 C370 1.415 . S
H372 C369 0.999 . S
H373 C354 0.913 . S
H374 C392 0.951 . S
H375 C394 0.951 . S
H376 C396 0.950 . S
H377 C397 0.950 . S
H378 C399 0.950 . S
H379 C402 0.950 . S
H380 C403 0.950 . S
H381 C405 0.950 . S
H382 C406 0.950 . S
H383 C407 0.951 . S
H384 C409 0.951 . S
H385 C411 0.950 . S
H386 C412 0.950 . S
H387 C414 0.950 . S
H388 C417 0.950 . S
H389 C418 0.950 . S
H390 C420 0.950 . S
H391 C421 0.950 . S
C392 H374 0.951 . S
C392 C393 1.366 . S
C392 C394 1.388 . S
C393 C392 1.366 . S
C393 C397 1.385 . S
C394 H375 0.951 . S
C394 C392 1.388 . S
C394 C395 1.366 . S
C395 C394 1.366 . S
C395 C396 1.414 . S
C395 C398 1.499 . S
C396 H376 0.950 . S
C396 C395 1.414 . S
C396 C397 1.374 . S
C397 H377 0.950 . S
C397 C393 1.385 . S
C397 C396 1.374 . S
C398 C395 1.499 . S
C398 C399 1.373 . S
C398 C400 1.389 . S
C399 H378 0.950 . S
C399 C398 1.373 . S
C399 C415 1.377 . S
C400 C398 1.389 . S
C400 C401 1.524 . S
C400 C414 1.377 . S
C401 C400 1.524 . S
C401 C402 1.397 . S
C401 C406 1.363 . S
C402 H379 0.950 . S
C402 C401 1.397 . S
C402 C403 1.334 . S
C403 H380 0.950 . S
C403 C402 1.334 . S
C403 C404 1.287 . S
C404 C403 1.287 . S
C404 C405 1.524 . S
C404 H423 0.913 . S
C405 H381 0.950 . S
C405 C404 1.524 . S
C405 C406 1.415 . S
C406 H382 0.950 . S
C406 C401 1.363 . S
C406 C405 1.415 . S
C407 H383 0.951 . S
C407 C408 1.366 . S
C407 C409 1.388 . S
C408 C407 1.366 . S
C408 C412 1.385 . S
C409 H384 0.951 . S
C409 C407 1.388 . S
C409 C410 1.366 . S
C410 C409 1.366 . S
C410 C411 1.414 . S
C410 C413 1.499 . S
C411 H385 0.950 . S
C411 C410 1.414 . S
C411 C412 1.374 . S
C412 H386 0.950 . S
C412 C408 1.385 . S
C412 C411 1.374 . S
C413 C410 1.499 . S
C413 C414 1.373 . S
C413 C415 1.389 . S
C414 H387 0.950 . S
C414 C400 1.377 . S
C414 C413 1.373 . S
C415 C399 1.377 . S
C415 C413 1.389 . S
C415 C416 1.524 . S
C416 C415 1.524 . S
C416 C417 1.397 . S
C416 C421 1.363 . S
C417 H388 0.950 . S
C417 C416 1.397 . S
C417 C418 1.334 . S
C418 H389 0.950 . S
C418 C417 1.334 . S
C418 C419 1.287 . S
C419 C418 1.287 . S
C419 C420 1.524 . S
C419 H422 0.999 . S
C420 H390 0.950 . S
C420 C419 1.524 . S
C420 C421 1.415 . S
C421 H391 0.950 . S
C421 C416 1.363 . S
C421 C420 1.415 . S
H422 C419 0.999 . S
H423 C404 0.913 . S
H424 C442 0.951 . S
H425 C444 0.951 . S
H426 C446 0.950 . S
H427 C447 0.950 . S
H428 C449 0.950 . S
H429 C452 0.950 . S
H430 C453 0.950 . S
H431 C455 0.950 . S
H432 C456 0.950 . S
H433 C457 0.951 . S
H434 C459 0.951 . S
H435 C461 0.950 . S
H436 C462 0.950 . S
H437 C464 0.950 . S
H438 C467 0.950 . S
H439 C468 0.950 . S
H440 C470 0.950 . S
H441 C471 0.950 . S
C442 H424 0.951 . S
C442 C443 1.366 . S
C442 C444 1.388 . S
C443 C442 1.366 . S
C443 C447 1.385 . S
C444 H425 0.951 . S
C444 C442 1.388 . S
C444 C445 1.366 . S
C445 C444 1.366 . S
C445 C446 1.414 . S
C445 C448 1.499 . S
C446 H426 0.950 . S
C446 C445 1.414 . S
C446 C447 1.374 . S
C447 H427 0.950 . S
C447 C443 1.385 . S
C447 C446 1.374 . S
C448 C445 1.499 . S
C448 C449 1.373 . S
C448 C450 1.389 . S
C449 H428 0.950 . S
C449 C448 1.373 . S
C449 C465 1.377 . S
C450 C448 1.389 . S
C450 C451 1.524 . S
C450 C464 1.377 . S
C451 C450 1.524 . S
C451 C452 1.397 . S
C451 C456 1.363 . S
C452 H429 0.950 . S
C452 C451 1.397 . S
C452 C453 1.334 . S
C453 H430 0.950 . S
C453 C452 1.334 . S
C453 C454 1.287 . S
C454 C453 1.287 . S
C454 C455 1.524 . S
C454 H473 0.913 . S
C455 H431 0.950 . S
C455 C454 1.524 . S
C455 C456 1.415 . S
C456 H432 0.950 . S
C456 C451 1.363 . S
C456 C455 1.415 . S
C457 H433 0.951 . S
C457 C458 1.366 . S
C457 C459 1.388 . S
C458 C457 1.366 . S
C458 C462 1.385 . S
C459 H434 0.951 . S
C459 C457 1.388 . S
C459 C460 1.366 . S
C460 C459 1.366 . S
C460 C461 1.414 . S
C460 C463 1.499 . S
C461 H435 0.950 . S
C461 C460 1.414 . S
C461 C462 1.374 . S
C462 H436 0.950 . S
C462 C458 1.385 . S
C462 C461 1.374 . S
C463 C460 1.499 . S
C463 C464 1.373 . S
C463 C465 1.389 . S
C464 H437 0.950 . S
C464 C450 1.377 . S
C464 C463 1.373 . S
C465 C449 1.377 . S
C465 C463 1.389 . S
C465 C466 1.524 . S
C466 C465 1.524 . S
C466 C467 1.397 . S
C466 C471 1.363 . S
C467 H438 0.950 . S
C467 C466 1.397 . S
C467 C468 1.334 1_556 S
C468 H439 0.950 . S
C468 C467 1.334 1_554 S
C468 C469 1.287 . S
C469 C468 1.287 . S
C469 C470 1.524 . S
C469 H472 0.999 . S
C470 H440 0.950 . S
C470 C469 1.524 . S
C470 C471 1.415 1_554 S
C471 H441 0.950 . S
C471 C466 1.363 . S
C471 C470 1.415 1_556 S
H472 C469 0.999 . S
H473 C454 0.913 . S
H474 C492 0.951 . S
H475 C494 0.951 . S
H476 C496 0.950 . S
H477 C497 0.950 . S
H478 C499 0.950 . S
H479 C502 0.950 . S
H480 C503 0.950 . S
H481 C505 0.950 . S
H482 C506 0.950 . S
H483 C507 0.951 . S
H484 C509 0.951 . S
H485 C511 0.950 . S
H486 C512 0.950 . S
H487 C514 0.950 . S
H488 C517 0.950 . S
H489 C518 0.950 . S
H490 C520 0.950 . S
H491 C521 0.950 . S
C492 H474 0.951 . S
C492 C493 1.366 . S
C492 C494 1.388 . S
C493 C492 1.366 . S
C493 C497 1.385 . S
C494 H475 0.951 . S
C494 C492 1.388 . S
C494 C495 1.366 . S
C495 C494 1.366 . S
C495 C496 1.414 . S
C495 C498 1.499 . S
C496 H476 0.950 . S
C496 C495 1.414 . S
C496 C497 1.374 . S
C497 H477 0.950 . S
C497 C493 1.385 . S
C497 C496 1.374 . S
C498 C495 1.499 . S
C498 C499 1.373 . S
C498 C500 1.389 . S
C499 H478 0.950 . S
C499 C498 1.373 . S
C499 C515 1.377 . S
C500 C498 1.389 . S
C500 C501 1.524 . S
C500 C514 1.377 . S
C501 C500 1.524 . S
C501 C502 1.397 . S
C501 C506 1.363 . S
C502 H479 0.950 . S
C502 C501 1.397 . S
C502 C503 1.334 . S
C503 H480 0.950 . S
C503 C502 1.334 . S
C503 C504 1.287 . S
C504 C503 1.287 . S
C504 C505 1.524 . S
C504 H523 0.913 1_655 S
C505 H481 0.950 . S
C505 C504 1.524 . S
C505 C506 1.415 . S
C506 H482 0.950 . S
C506 C501 1.363 . S
C506 C505 1.415 . S
C507 H483 0.951 . S
C507 C508 1.366 . S
C507 C509 1.388 . S
C508 C507 1.366 . S
C508 C512 1.385 . S
C509 H484 0.951 . S
C509 C507 1.388 . S
C509 C510 1.366 . S
C510 C509 1.366 . S
C510 C511 1.414 . S
C510 C513 1.499 . S
C511 H485 0.950 . S
C511 C510 1.414 . S
C511 C512 1.374 . S
C512 H486 0.950 . S
C512 C508 1.385 . S
C512 C511 1.374 . S
C513 C510 1.499 . S
C513 C514 1.373 . S
C513 C515 1.389 . S
C514 H487 0.950 . S
C514 C500 1.377 . S
C514 C513 1.373 . S
C515 C499 1.377 . S
C515 C513 1.389 . S
C515 C516 1.524 . S
C516 C515 1.524 . S
C516 C517 1.397 . S
C516 C521 1.363 . S
C517 H488 0.950 . S
C517 C516 1.397 . S
C517 C518 1.334 . S
C518 H489 0.950 . S
C518 C517 1.334 . S
C518 C519 1.287 . S
C519 C518 1.287 . S
C519 C520 1.524 . S
C519 H522 0.999 . S
C520 H490 0.950 . S
C520 C519 1.524 . S
C520 C521 1.415 . S
C521 H491 0.950 . S
C521 C516 1.363 . S
C521 C520 1.415 . S
H522 C519 0.999 . S
H523 C504 0.913 1_455 S
H524 C542 0.951 1_455 S
H525 C544 0.951 . S
H526 C546 0.950 . S
H527 C547 0.950 . S
H528 C549 0.950 . S
H529 C552 0.950 . S
H530 C553 0.950 . S
H531 C555 0.950 . S
H532 C556 0.950 . S
H533 C557 0.951 . S
H534 C559 0.951 . S
H535 C561 0.950 . S
H536 C562 0.950 . S
H537 C564 0.950 . S
H538 C567 0.950 . S
H539 C568 0.950 . S
H540 C570 0.950 . S
H541 C571 0.950 . S
C542 H524 0.951 1_655 S
C542 C543 1.366 . S
C542 C544 1.388 . S
C543 C542 1.366 . S
C543 C547 1.385 . S
C544 H525 0.951 . S
C544 C542 1.388 . S
C544 C545 1.366 . S
C545 C544 1.366 . S
C545 C546 1.414 . S
C545 C548 1.499 . S
C546 H526 0.950 . S
C546 C545 1.414 . S
C546 C547 1.374 . S
C547 H527 0.950 . S
C547 C543 1.385 . S
C547 C546 1.374 . S
C548 C545 1.499 . S
C548 C549 1.373 . S
C548 C550 1.389 . S
C549 H528 0.950 . S
C549 C548 1.373 . S
C549 C565 1.377 . S
C550 C548 1.389 . S
C550 C551 1.524 1_655 S
C550 C564 1.377 . S
C551 C550 1.524 1_455 S
C551 C552 1.397 . S
C551 C556 1.363 . S
C552 H529 0.950 . S
C552 C551 1.397 . S
C552 C553 1.334 . S
C553 H530 0.950 . S
C553 C552 1.334 . S
C553 C554 1.287 . S
C554 C553 1.287 . S
C554 C555 1.524 . S
C554 H573 0.913 . S
C555 H531 0.950 . S
C555 C554 1.524 . S
C555 C556 1.415 . S
C556 H532 0.950 . S
C556 C551 1.363 . S
C556 C555 1.415 . S
C557 H533 0.951 . S
C557 C558 1.366 . S
C557 C559 1.388 . S
C558 C557 1.366 . S
C558 C562 1.385 . S
C559 H534 0.951 . S
C559 C557 1.388 . S
C559 C560 1.366 . S
C560 C559 1.366 . S
C560 C561 1.414 . S
C560 C563 1.499 . S
C561 H535 0.950 . S
C561 C560 1.414 . S
C561 C562 1.374 . S
C562 H536 0.950 . S
C562 C558 1.385 . S
C562 C561 1.374 . S
C563 C560 1.499 . S
C563 C564 1.373 . S
C563 C565 1.389 . S
C564 H537 0.950 . S
C564 C550 1.377 . S
C564 C563 1.373 . S
C565 C549 1.377 . S
C565 C563 1.389 . S
C565 C566 1.524 . S
C566 C565 1.524 . S
C566 C567 1.397 . S
C566 C571 1.363 . S
C567 H538 0.950 . S
C567 C566 1.397 . S
C567 C568 1.334 . S
C568 H539 0.950 . S
C568 C567 1.334 . S
C568 C569 1.287 . S
C569 C568 1.287 . S
C569 C570 1.524 . S
C569 H572 0.999 . S
C570 H540 0.950 . S
C570 C569 1.524 . S
C570 C571 1.415 . S
C571 H541 0.950 . S
C571 C566 1.363 . S
C571 C570 1.415 . S
H572 C569 0.999 . S
H573 C554 0.913 . S
H574 C592 0.951 . S
H575 C594 0.951 . S
H576 C596 0.950 . S
H577 C597 0.950 . S
H578 C599 0.950 . S
H579 C602 0.950 . S
H580 C603 0.950 . S
H581 C605 0.950 . S
H582 C606 0.950 . S
H583 C607 0.951 . S
H584 C609 0.951 . S
H585 C611 0.950 . S
H586 C612 0.950 . S
H587 C614 0.950 . S
H588 C617 0.950 . S
H589 C618 0.950 . S
H590 C620 0.950 . S
H591 C621 0.950 . S
C592 H574 0.951 . S
C592 C593 1.366 . S
C592 C594 1.388 . S
C593 C592 1.366 . S
C593 C597 1.385 . S
C594 H575 0.951 . S
C594 C592 1.388 . S
C594 C595 1.366 . S
C595 C594 1.366 . S
C595 C596 1.414 . S
C595 C598 1.499 . S
C596 H576 0.950 . S
C596 C595 1.414 . S
C596 C597 1.374 . S
C597 H577 0.950 . S
C597 C593 1.385 . S
C597 C596 1.374 . S
C598 C595 1.499 . S
C598 C599 1.373 . S
C598 C600 1.389 . S
C599 H578 0.950 . S
C599 C598 1.373 . S
C599 C615 1.377 . S
C600 C598 1.389 . S
C600 C601 1.524 . S
C600 C614 1.377 . S
C601 C600 1.524 . S
C601 C602 1.397 . S
C601 C606 1.363 . S
C602 H579 0.950 . S
C602 C601 1.397 . S
C602 C603 1.334 . S
C603 H580 0.950 . S
C603 C602 1.334 . S
C603 C604 1.287 . S
C604 C603 1.287 . S
C604 C605 1.524 . S
C604 H623 0.913 . S
C605 H581 0.950 . S
C605 C604 1.524 . S
C605 C606 1.415 . S
C606 H582 0.950 . S
C606 C601 1.363 . S
C606 C605 1.415 . S
C607 H583 0.951 . S
C607 C608 1.366 . S
C607 C609 1.388 . S
C608 C607 1.366 . S
C608 C612 1.385 . S
C609 H584 0.951 . S
C609 C607 1.388 . S
C609 C610 1.366 . S
C610 C609 1.366 . S
C610 C611 1.414 . S
C610 C613 1.499 . S
C611 H585 0.950 . S
C611 C610 1.414 . S
C611 C612 1.374 . S
C612 H586 0.950 . S
C612 C608 1.385 . S
C612 C611 1.374 . S
C613 C610 1.499 . S
C613 C614 1.373 . S
C613 C615 1.389 . S
C614 H587 0.950 . S
C614 C600 1.377 . S
C614 C613 1.373 . S
C615 C599 1.377 . S
C615 C613 1.389 . S
C615 C616 1.524 . S
C616 C615 1.524 . S
C616 C617 1.397 . S
C616 C621 1.363 . S
C617 H588 0.950 . S
C617 C616 1.397 . S
C617 C618 1.334 . S
C618 H589 0.950 . S
C618 C617 1.334 . S
C618 C619 1.287 . S
C619 C618 1.287 . S
C619 C620 1.524 . S
C619 H622 0.999 . S
C620 H590 0.950 . S
C620 C619 1.524 . S
C620 C621 1.415 . S
C621 H591 0.950 . S
C621 C616 1.363 . S
C621 C620 1.415 . S
H622 C619 0.999 . S
H623 C604 0.913 . S
H624 C642 0.951 . S
H625 C644 0.951 . S
H626 C646 0.950 . S
H627 C647 0.950 . S
H628 C649 0.950 . S
H629 C652 0.950 . S
H630 C653 0.950 . S
H631 C655 0.950 . S
H632 C656 0.950 . S
H633 C657 0.951 . S
H634 C659 0.951 . S
H635 C661 0.950 . S
H636 C662 0.950 . S
H637 C664 0.950 . S
H638 C667 0.950 . S
H639 C668 0.950 . S
H640 C670 0.950 . S
H641 C671 0.950 . S
C642 H624 0.951 . S
C642 C643 1.366 . S
C642 C644 1.388 . S
C643 C642 1.366 . S
C643 C647 1.385 . S
C644 H625 0.951 . S
C644 C642 1.388 . S
C644 C645 1.366 . S
C645 C644 1.366 . S
C645 C646 1.414 . S
C645 C648 1.499 . S
C646 H626 0.950 . S
C646 C645 1.414 . S
C646 C647 1.374 . S
C647 H627 0.950 . S
C647 C643 1.385 . S
C647 C646 1.374 . S
C648 C645 1.499 . S
C648 C649 1.373 . S
C648 C650 1.389 . S
C649 H628 0.950 . S
C649 C648 1.373 . S
C649 C665 1.377 . S
C650 C648 1.389 . S
C650 C651 1.524 . S
C650 C664 1.377 . S
C651 C650 1.524 . S
C651 C652 1.397 . S
C651 C656 1.363 . S
C652 H629 0.950 . S
C652 C651 1.397 . S
C652 C653 1.334 . S
C653 H630 0.950 . S
C653 C652 1.334 . S
C653 C654 1.287 . S
C654 C653 1.287 . S
C654 C655 1.524 . S
C654 H673 0.913 . S
C655 H631 0.950 . S
C655 C654 1.524 . S
C655 C656 1.415 . S
C656 H632 0.950 . S
C656 C651 1.363 . S
C656 C655 1.415 . S
C657 H633 0.951 . S
C657 C658 1.366 . S
C657 C659 1.388 . S
C658 C657 1.366 . S
C658 C662 1.385 . S
C659 H634 0.951 . S
C659 C657 1.388 . S
C659 C660 1.366 . S
C660 C659 1.366 . S
C660 C661 1.414 . S
C660 C663 1.499 . S
C661 H635 0.950 . S
C661 C660 1.414 . S
C661 C662 1.374 . S
C662 H636 0.950 . S
C662 C658 1.385 . S
C662 C661 1.374 . S
C663 C660 1.499 . S
C663 C664 1.373 . S
C663 C665 1.389 . S
C664 H637 0.950 . S
C664 C650 1.377 . S
C664 C663 1.373 . S
C665 C649 1.377 . S
C665 C663 1.389 . S
C665 C666 1.524 . S
C666 C665 1.524 . S
C666 C667 1.397 . S
C666 C671 1.363 . S
C667 H638 0.950 . S
C667 C666 1.397 . S
C667 C668 1.334 . S
C668 H639 0.950 . S
C668 C667 1.334 . S
C668 C669 1.287 . S
C669 C668 1.287 . S
C669 C670 1.524 . S
C669 H672 0.999 . S
C670 H640 0.950 . S
C670 C669 1.524 . S
C670 C671 1.415 . S
C671 H641 0.950 . S
C671 C666 1.363 . S
C671 C670 1.415 . S
H672 C669 0.999 . S
H673 C654 0.913 . S
H674 C692 0.951 . S
H675 C694 0.951 . S
H676 C696 0.950 . S
H677 C697 0.950 . S
H678 C699 0.950 1_455 S
H679 C702 0.950 . S
H680 C703 0.950 . S
H681 C705 0.950 . S
H682 C706 0.950 . S
H683 C707 0.951 . S
H684 C709 0.951 . S
H685 C711 0.950 . S
H686 C712 0.950 . S
H687 C714 0.950 . S
H688 C717 0.950 . S
H689 C718 0.950 . S
H690 C720 0.950 . S
H691 C721 0.950 . S
C692 H674 0.951 . S
C692 C693 1.366 . S
C692 C694 1.388 . S
C693 C692 1.366 . S
C693 C697 1.385 1_665 S
C694 H675 0.951 . S
C694 C692 1.388 . S
C694 C695 1.366 . S
C695 C694 1.366 . S
C695 C696 1.414 1_665 S
C695 C698 1.499 . S
C696 H676 0.950 . S
C696 C695 1.414 1_445 S
C696 C697 1.374 . S
C697 H677 0.950 . S
C697 C693 1.385 1_445 S
C697 C696 1.374 . S
C698 C695 1.499 . S
C698 C699 1.373 1_565 S
C698 C700 1.389 . S
C699 H678 0.950 1_655 S
C699 C698 1.373 1_545 S
C699 C715 1.377 . S
C700 C698 1.389 . S
C700 C701 1.524 . S
C700 C714 1.377 . S
C701 C700 1.524 . S
C701 C702 1.397 1_655 S
C701 C706 1.363 . S
C702 H679 0.950 . S
C702 C701 1.397 1_455 S
C702 C703 1.334 . S
C703 H680 0.950 . S
C703 C702 1.334 . S
C703 C704 1.287 1_455 S
C704 C703 1.287 1_655 S
C704 C705 1.524 . S
C704 H723 0.913 . S
C705 H681 0.950 . S
C705 C704 1.524 . S
C705 C706 1.415 . S
C706 H682 0.950 . S
C706 C701 1.363 . S
C706 C705 1.415 . S
C707 H683 0.951 . S
C707 C708 1.366 1_455 S
C707 C709 1.388 . S
C708 C707 1.366 1_655 S
C708 C712 1.385 1_545 S
C709 H684 0.951 . S
C709 C707 1.388 . S
C709 C710 1.363 1_445 S
C710 C709 1.363 1_665 S
C710 C711 1.416 . S
C710 C713 1.499 . S
C711 H685 0.950 . S
C711 C710 1.416 . S
C711 C712 1.374 . S
C712 H686 0.950 . S
C712 C708 1.385 1_565 S
C712 C711 1.374 . S
C713 C710 1.499 . S
C713 C714 1.373 . S
C713 C715 1.389 1_565 S
C714 H687 0.950 . S
C714 C700 1.377 . S
C714 C713 1.373 . S
C715 C699 1.377 . S
C715 C713 1.389 1_545 S
C715 C716 1.524 1_655 S
C716 C715 1.524 1_455 S
C716 C717 1.394 1_455 S
C716 C721 1.366 . S
C717 H688 0.950 . S
C717 C716 1.394 1_655 S
C717 C718 1.334 . S
C718 H689 0.950 . S
C718 C717 1.334 . S
C718 C719 1.297 . S
C719 C718 1.297 . S
C719 C720 1.512 1_655 S
C719 H722 0.999 1_655 S
C720 H690 0.950 . S
C720 C719 1.512 1_455 S
C720 C721 1.415 . S
C721 H691 0.950 . S
C721 C716 1.366 . S
C721 C720 1.415 . S
H722 C719 0.999 1_455 S
H723 C704 0.913 . S
H724 C742 0.951 . S
H725 C744 0.951 . S
H726 C746 0.950 . S
H727 C747 0.950 . S
H728 C749 0.950 . S
H729 C752 0.950 . S
H730 C753 0.950 . S
H731 C755 0.950 . S
H732 C756 0.950 1_554 S
H733 C757 0.951 . S
H734 C759 0.951 . S
H735 C761 0.950 . S
H736 C762 0.950 . S
H737 C764 0.950 . S
H738 C767 0.950 . S
H739 C768 0.950 . S
H740 C770 0.950 . S
H741 C771 0.950 . S
C742 H724 0.951 . S
C742 C743 1.366 . S
C742 C744 1.388 . S
C743 C742 1.366 . S
C743 C747 1.385 . S
C744 H725 0.951 . S
C744 C742 1.388 . S
C744 C745 1.366 . S
C745 C744 1.366 . S
C745 C746 1.414 . S
C745 C748 1.499 . S
C746 H726 0.950 . S
C746 C745 1.414 . S
C746 C747 1.374 . S
C747 H727 0.950 . S
C747 C743 1.385 . S
C747 C746 1.374 . S
C748 C745 1.499 . S
C748 C749 1.373 . S
C748 C750 1.389 . S
C749 H728 0.950 . S
C749 C748 1.373 . S
C749 C765 1.377 1_556 S
C750 C748 1.389 . S
C750 C751 1.524 . S
C750 C764 1.377 1_556 S
C751 C750 1.524 . S
C751 C752 1.397 . S
C751 C756 1.363 . S
C752 H729 0.950 . S
C752 C751 1.397 . S
C752 C753 1.334 . S
C753 H730 0.950 . S
C753 C752 1.334 . S
C753 C754 1.287 . S
C754 C753 1.287 . S
C754 C755 1.524 . S
C754 H773 0.913 . S
C755 H731 0.950 . S
C755 C754 1.524 . S
C755 C756 1.415 . S
C756 H732 0.950 1_556 S
C756 C751 1.363 . S
C756 C755 1.415 . S
C757 H733 0.951 . S
C757 C758 1.366 . S
C757 C759 1.388 . S
C758 C757 1.366 . S
C758 C762 1.385 . S
C759 H734 0.951 . S
C759 C757 1.388 . S
C759 C760 1.366 . S
C760 C759 1.366 . S
C760 C761 1.414 . S
C760 C763 1.499 . S
C761 H735 0.950 . S
C761 C760 1.414 . S
C761 C762 1.374 . S
C762 H736 0.950 . S
C762 C758 1.385 . S
C762 C761 1.374 . S
C763 C760 1.499 . S
C763 C764 1.373 . S
C763 C765 1.389 . S
C764 H737 0.950 . S
C764 C750 1.377 1_554 S
C764 C763 1.373 . S
C765 C749 1.377 1_554 S
C765 C763 1.389 . S
C765 C766 1.524 . S
C766 C765 1.524 . S
C766 C767 1.397 . S
C766 C771 1.363 . S
C767 H738 0.950 . S
C767 C766 1.397 . S
C767 C768 1.334 . S
C768 H739 0.950 . S
C768 C767 1.334 . S
C768 C769 1.287 . S
C769 C768 1.287 . S
C769 C770 1.524 . S
C769 H772 0.999 . S
C770 H740 0.950 . S
C770 C769 1.524 . S
C770 C771 1.415 . S
C771 H741 0.950 . S
C771 C766 1.363 . S
C771 C770 1.415 . S
H772 C769 0.999 . S
H773 C754 0.913 . S
H774 C792 0.951 . S
H775 C794 0.951 . S
H776 C796 0.953 1_545 S
H777 C797 0.950 . S
H778 C799 0.950 . S
H779 C802 0.950 . S
H780 C803 0.950 . S
H781 C805 0.950 . S
H782 C806 0.950 . S
H783 C807 0.951 1_545 S
H784 C809 0.951 1_545 S
H785 C811 0.950 . S
H786 C812 0.950 . S
H787 C814 0.950 . S
H788 C817 0.950 . S
H789 C818 0.950 . S
H790 C820 0.950 . S
H791 C821 0.950 . S
C792 H774 0.951 . S
C792 C793 1.366 . S
C792 C794 1.388 . S
C793 C792 1.366 . S
C793 C797 1.385 1_565 S
C794 H775 0.951 . S
C794 C792 1.388 . S
C794 C795 1.366 . S
C795 C794 1.366 . S
C795 C796 1.412 . S
C795 C798 1.499 . S
C796 H776 0.953 1_565 S
C796 C795 1.412 . S
C796 C797 1.374 1_565 S
C797 H777 0.950 . S
C797 C793 1.385 1_545 S
C797 C796 1.374 1_545 S
C798 C795 1.499 . S
C798 C799 1.373 . S
C798 C800 1.389 . S
C799 H778 0.950 . S
C799 C798 1.373 . S
C799 C815 1.377 . S
C800 C798 1.389 . S
C800 C801 1.524 . S
C800 C814 1.377 . S
C801 C800 1.524 . S
C801 C802 1.397 . S
C801 C806 1.363 . S
C802 H779 0.950 . S
C802 C801 1.397 . S
C802 C803 1.334 . S
C803 H780 0.950 . S
C803 C802 1.334 . S
C803 C804 1.287 . S
C804 C803 1.287 . S
C804 C805 1.524 . S
C804 H823 0.913 . S
C805 H781 0.950 . S
C805 C804 1.524 . S
C805 C806 1.415 . S
C806 H782 0.950 . S
C806 C801 1.363 . S
C806 C805 1.415 . S
C807 H783 0.951 1_565 S
C807 C808 1.366 . S
C807 C809 1.388 . S
C808 C807 1.366 . S
C808 C812 1.385 . S
C809 H784 0.951 1_565 S
C809 C807 1.388 . S
C809 C810 1.366 . S
C810 C809 1.366 . S
C810 C811 1.414 . S
C810 C813 1.499 . S
C811 H785 0.950 . S
C811 C810 1.414 . S
C811 C812 1.374 . S
C812 H786 0.950 . S
C812 C808 1.385 . S
C812 C811 1.374 . S
C813 C810 1.499 . S
C813 C814 1.373 . S
C813 C815 1.389 . S
C814 H787 0.950 . S
C814 C800 1.377 . S
C814 C813 1.373 . S
C815 C799 1.377 . S
C815 C813 1.389 . S
C815 C816 1.524 . S
C816 C815 1.524 . S
C816 C817 1.397 . S
C816 C821 1.363 1_565 S
C817 H788 0.950 . S
C817 C816 1.397 . S
C817 C818 1.334 . S
C818 H789 0.950 . S
C818 C817 1.334 . S
C818 C819 1.287 . S
C819 C818 1.287 . S
C819 C820 1.524 1_565 S
C819 H822 0.999 1_565 S
C820 H790 0.950 . S
C820 C819 1.524 1_545 S
C820 C821 1.415 . S
C821 H791 0.950 . S
C821 C816 1.363 1_545 S
C821 C820 1.415 . S
H822 C819 0.999 1_545 S
H823 C804 0.913 . S
H824 C842 0.951 . S
H825 C844 0.951 . S
H826 C846 0.950 . S
H827 C847 0.950 . S
H828 C849 0.950 . S
H829 C852 0.950 . S
H830 C853 0.950 . S
H831 C855 0.950 . S
H832 C856 0.950 . S
H833 C857 0.951 . S
H834 C859 0.951 . S
H835 C861 0.950 . S
H836 C862 0.950 . S
H837 C864 0.950 . S
H838 C867 0.950 . S
H839 C868 0.950 . S
H840 C870 0.950 . S
H841 C871 0.950 . S
C842 H824 0.951 . S
C842 C843 1.366 . S
C842 C844 1.388 . S
C843 C842 1.366 . S
C843 C847 1.385 . S
C844 H825 0.951 . S
C844 C842 1.388 . S
C844 C845 1.366 . S
C845 C844 1.366 . S
C845 C846 1.414 . S
C845 C848 1.499 . S
C846 H826 0.950 . S
C846 C845 1.414 . S
C846 C847 1.374 . S
C847 H827 0.950 . S
C847 C843 1.385 . S
C847 C846 1.374 . S
C848 C845 1.499 . S
C848 C849 1.373 . S
C848 C850 1.389 . S
C849 H828 0.950 . S
C849 C848 1.373 . S
C849 C865 1.377 . S
C850 C848 1.389 . S
C850 C851 1.524 . S
C850 C864 1.377 . S
C851 C850 1.524 . S
C851 C852 1.397 . S
C851 C856 1.363 . S
C852 H829 0.950 . S
C852 C851 1.397 . S
C852 C853 1.334 . S
C853 H830 0.950 . S
C853 C852 1.334 . S
C853 C854 1.287 . S
C854 C853 1.287 . S
C854 C855 1.524 . S
C854 H873 0.913 . S
C855 H831 0.950 . S
C855 C854 1.524 . S
C855 C856 1.415 . S
C856 H832 0.950 . S
C856 C851 1.363 . S
C856 C855 1.415 . S
C857 H833 0.951 . S
C857 C858 1.366 . S
C857 C859 1.388 . S
C858 C857 1.366 . S
C858 C862 1.385 . S
C859 H834 0.951 . S
C859 C857 1.388 . S
C859 C860 1.366 . S
C860 C859 1.366 . S
C860 C861 1.414 . S
C860 C863 1.499 . S
C861 H835 0.950 . S
C861 C860 1.414 . S
C861 C862 1.374 . S
C862 H836 0.950 . S
C862 C858 1.385 . S
C862 C861 1.374 . S
C863 C860 1.499 . S
C863 C864 1.373 . S
C863 C865 1.389 . S
C864 H837 0.950 . S
C864 C850 1.377 . S
C864 C863 1.373 . S
C865 C849 1.377 . S
C865 C863 1.389 . S
C865 C866 1.524 . S
C866 C865 1.524 . S
C866 C867 1.397 . S
C866 C871 1.363 . S
C867 H838 0.950 . S
C867 C866 1.397 . S
C867 C868 1.334 . S
C868 H839 0.950 . S
C868 C867 1.334 . S
C868 C869 1.287 . S
C869 C868 1.287 . S
C869 C870 1.524 . S
C869 H872 0.999 . S
C870 H840 0.950 . S
C870 C869 1.524 . S
C870 C871 1.415 . S
C871 H841 0.950 . S
C871 C866 1.363 . S
C871 C870 1.415 . S
H872 C869 0.999 . S
H873 C854 0.913 . S
H874 C892 0.951 . S
H875 C894 0.951 . S
H876 C896 0.950 . S
H877 C897 0.950 . S
H878 C899 0.950 . S
H879 C902 0.950 . S
H880 C903 0.950 . S
H881 C905 0.950 . S
H882 C906 0.950 . S
H883 C907 0.951 . S
H884 C909 0.951 . S
H885 C911 0.950 . S
H886 C912 0.950 . S
H887 C914 0.950 . S
H888 C917 0.950 . S
H889 C918 0.950 . S
H890 C920 0.950 . S
H891 C921 0.950 . S
C892 H874 0.951 . S
C892 C893 1.366 1_655 S
C892 C894 1.388 . S
C893 C892 1.366 1_455 S
C893 C897 1.385 . S
C894 H875 0.951 . S
C894 C892 1.388 . S
C894 C895 1.366 1_655 S
C895 C894 1.366 1_455 S
C895 C896 1.414 . S
C895 C898 1.499 . S
C896 H876 0.950 . S
C896 C895 1.414 . S
C896 C897 1.374 . S
C897 H877 0.950 . S
C897 C893 1.385 . S
C897 C896 1.374 . S
C898 C895 1.499 . S
C898 C899 1.373 . S
C898 C900 1.389 1_455 S
C899 H878 0.950 . S
C899 C898 1.373 . S
C899 C915 1.377 . S
C900 C898 1.389 1_655 S
C900 C901 1.524 . S
C900 C914 1.377 . S
C901 C900 1.524 . S
C901 C902 1.397 . S
C901 C906 1.363 . S
C902 H879 0.950 . S
C902 C901 1.397 . S
C902 C903 1.334 . S
C903 H880 0.950 . S
C903 C902 1.334 . S
C903 C904 1.287 . S
C904 C903 1.287 . S
C904 C905 1.524 . S
C904 H923 0.913 . S
C905 H881 0.950 . S
C905 C904 1.524 . S
C905 C906 1.415 . S
C906 H882 0.950 . S
C906 C901 1.363 . S
C906 C905 1.415 . S
C907 H883 0.951 . S
C907 C908 1.366 . S
C907 C909 1.388 . S
C908 C907 1.366 . S
C908 C912 1.385 1_455 S
C909 H884 0.951 . S
C909 C907 1.388 . S
C909 C910 1.366 . S
C910 C909 1.366 . S
C910 C911 1.414 1_455 S
C910 C913 1.499 . S
C911 H885 0.950 . S
C911 C910 1.414 1_655 S
C911 C912 1.374 . S
C912 H886 0.950 . S
C912 C908 1.385 1_655 S
C912 C911 1.374 . S
C913 C910 1.499 . S
C913 C914 1.373 1_455 S
C913 C915 1.389 . S
C914 H887 0.950 . S
C914 C900 1.377 . S
C914 C913 1.373 1_655 S
C915 C899 1.377 . S
C915 C913 1.389 . S
C915 C916 1.524 . S
C916 C915 1.524 . S
C916 C917 1.397 . S
C916 C921 1.363 . S
C917 H888 0.950 . S
C917 C916 1.397 . S
C917 C918 1.334 . S
C918 H889 0.950 . S
C918 C917 1.334 . S
C918 C919 1.287 . S
C919 C918 1.287 . S
C919 C920 1.524 . S
C919 H922 0.999 . S
C920 H890 0.950 . S
C920 C919 1.524 . S
C920 C921 1.415 . S
C921 H891 0.950 . S
C921 C916 1.363 . S
C921 C920 1.415 . S
H922 C919 0.999 . S
H923 C904 0.913 . S
H924 C942 0.951 . S
H925 C944 0.951 . S
H926 C946 0.950 . S
H927 C947 0.950 . S
H928 C949 0.950 . S
H929 C952 0.950 . S
H930 C953 0.950 . S
H931 C955 0.950 . S
H932 C956 0.950 1_455 S
H933 C957 0.951 . S
H934 C959 0.951 . S
H935 C961 0.950 . S
H936 C962 0.950 . S
H937 C964 0.950 . S
H938 C967 0.950 . S
H939 C968 0.950 . S
H940 C970 0.950 . S
H941 C971 0.950 . S
C942 H924 0.951 . S
C942 C943 1.366 . S
C942 C944 1.388 . S
C943 C942 1.366 . S
C943 C947 1.385 . S
C944 H925 0.951 . S
C944 C942 1.388 . S
C944 C945 1.366 . S
C945 C944 1.366 . S
C945 C946 1.414 . S
C945 C948 1.499 . S
C946 H926 0.950 . S
C946 C945 1.414 . S
C946 C947 1.374 . S
C947 H927 0.950 . S
C947 C943 1.385 . S
C947 C946 1.374 . S
C948 C945 1.499 . S
C948 C949 1.373 1_655 S
C948 C950 1.389 1_655 S
C949 H928 0.950 . S
C949 C948 1.373 1_455 S
C949 C965 1.377 . S
C950 C948 1.389 1_455 S
C950 C951 1.524 1_455 S
C950 C964 1.377 . S
C951 C950 1.524 1_655 S
C951 C952 1.397 . S
C951 C956 1.363 . S
C952 H929 0.950 . S
C952 C951 1.397 . S
C952 C953 1.334 . S
C953 H930 0.950 . S
C953 C952 1.334 . S
C953 C954 1.287 . S
C954 C953 1.287 . S
C954 C955 1.524 . S
C954 H973 0.913 . S
C955 H931 0.950 . S
C955 C954 1.524 . S
C955 C956 1.415 . S
C956 H932 0.950 1_655 S
C956 C951 1.363 . S
C956 C955 1.415 . S
C957 H933 0.951 . S
C957 C958 1.366 . S
C957 C959 1.388 . S
C958 C957 1.366 . S
C958 C962 1.385 . S
C959 H934 0.951 . S
C959 C957 1.388 . S
C959 C960 1.366 . S
C960 C959 1.366 . S
C960 C961 1.414 . S
C960 C963 1.499 . S
C961 H935 0.950 . S
C961 C960 1.414 . S
C961 C962 1.374 . S
C962 H936 0.950 . S
C962 C958 1.385 . S
C962 C961 1.374 . S
C963 C960 1.499 . S
C963 C964 1.373 . S
C963 C965 1.389 . S
C964 H937 0.950 . S
C964 C950 1.377 . S
C964 C963 1.373 . S
C965 C949 1.377 . S
C965 C963 1.389 . S
C965 C966 1.524 . S
C966 C965 1.524 . S
C966 C967 1.397 . S
C966 C971 1.363 . S
C967 H938 0.950 . S
C967 C966 1.397 . S
C967 C968 1.334 . S
C968 H939 0.950 . S
C968 C967 1.334 . S
C968 C969 1.287 . S
C969 C968 1.287 . S
C969 C970 1.524 . S
C969 H972 0.999 . S
C970 H940 0.950 . S
C970 C969 1.524 . S
C970 C971 1.415 . S
C971 H941 0.950 . S
C971 C966 1.363 . S
C971 C970 1.415 . S
H972 C969 0.999 . S
H973 C954 0.913 . S
H974 C992 0.951 1_554 S
H975 C994 0.952 . S
H976 C996 0.950 . S
H977 C997 0.950 . S
H978 C999 0.950 . S
H979 C1002 0.950 . S
H980 C1003 0.950 . S
H981 C1005 0.950 . S
H982 C1006 0.950 . S
H983 C1007 0.951 . S
H984 C1009 0.951 . S
H985 C1011 0.950 . S
H986 C1012 0.950 . S
H987 C1014 0.950 . S
H988 C1017 0.950 . S
H989 C1018 0.950 . S
H990 C1020 0.950 . S
H991 C1021 0.950 . S
C992 H974 0.951 1_556 S
C992 C993 1.366 . S
C992 C994 1.388 1_556 S
C993 C992 1.366 . S
C993 C997 1.385 . S
C994 H975 0.952 . S
C994 C992 1.388 1_554 S
C994 C995 1.364 1_554 S
C995 C994 1.364 1_556 S
C995 C996 1.414 . S
C995 C998 1.499 . S
C996 H976 0.950 . S
C996 C995 1.414 . S
C996 C997 1.374 . S
C997 H977 0.950 . S
C997 C993 1.385 . S
C997 C996 1.374 . S
C998 C995 1.499 . S
C998 C999 1.373 . S
C998 C1000 1.389 1_556 S
C999 H978 0.950 . S
C999 C998 1.373 . S
C999 C1015 1.377 . S
C1000 C998 1.389 1_554 S
C1000 C1001 1.524 . S
C1000 C1014 1.377 . S
C1001 C1000 1.524 . S
C1001 C1002 1.397 . S
C1001 C1006 1.363 . S
C1002 H979 0.950 . S
C1002 C1001 1.397 . S
C1002 C1003 1.334 . S
C1003 H980 0.950 . S
C1003 C1002 1.334 . S
C1003 C1004 1.287 . S
C1004 C1003 1.287 . S
C1004 C1005 1.524 . S
C1004 H1023 0.913 . S
C1005 H981 0.950 . S
C1005 C1004 1.524 . S
C1005 C1006 1.415 . S
C1006 H982 0.950 . S
C1006 C1001 1.363 . S
C1006 C1005 1.415 . S
C1007 H983 0.951 . S
C1007 C1008 1.366 . S
C1007 C1009 1.388 . S
C1008 C1007 1.366 . S
C1008 C1012 1.385 1_556 S
C1009 H984 0.951 . S
C1009 C1007 1.388 . S
C1009 C1010 1.366 . S
C1010 C1009 1.366 . S
C1010 C1011 1.414 1_556 S
C1010 C1013 1.499 . S
C1011 H985 0.950 . S
C1011 C1010 1.414 1_554 S
C1011 C1012 1.374 . S
C1012 H986 0.950 . S
C1012 C1008 1.385 1_554 S
C1012 C1011 1.374 . S
C1013 C1010 1.499 . S
C1013 C1014 1.373 1_556 S
C1013 C1015 1.389 . S
C1014 H987 0.950 . S
C1014 C1000 1.377 . S
C1014 C1013 1.373 1_554 S
C1015 C999 1.377 . S
C1015 C1013 1.389 . S
C1015 C1016 1.524 . S
C1016 C1015 1.524 . S
C1016 C1017 1.397 . S
C1016 C1021 1.363 . S
C1017 H988 0.950 . S
C1017 C1016 1.397 . S
C1017 C1018 1.334 . S
C1018 H989 0.950 . S
C1018 C1017 1.334 . S
C1018 C1019 1.287 . S
C1019 C1018 1.287 . S
C1019 C1020 1.524 . S
C1019 H1022 0.999 . S
C1020 H990 0.950 . S
C1020 C1019 1.524 . S
C1020 C1021 1.415 . S
C1021 H991 0.950 . S
C1021 C1016 1.363 . S
C1021 C1020 1.415 . S
H1022 C1019 0.999 . S
H1023 C1004 0.913 . S
H1024 C1042 0.951 . S
H1025 C1044 0.951 . S
H1026 C1046 0.950 . S
H1027 C1047 0.950 . S
H1028 C1049 0.950 . S
H1029 C1052 0.950 . S
H1030 C1053 0.950 . S
H1031 C1055 0.950 . S
H1032 C1056 0.950 . S
H1033 C1057 0.951 . S
H1034 C1059 0.951 . S
H1035 C1061 0.950 . S
H1036 C1062 0.950 . S
H1037 C1064 0.950 . S
H1038 C1067 0.950 . S
H1039 C1068 0.950 . S
H1040 C1070 0.950 . S
H1041 C1071 0.950 . S
C1042 H1024 0.951 . S
C1042 C1043 1.366 . S
C1042 C1044 1.388 . S
C1043 C1042 1.366 . S
C1043 C1047 1.385 . S
C1044 H1025 0.951 . S
C1044 C1042 1.388 . S
C1044 C1045 1.366 . S
C1045 C1044 1.366 . S
C1045 C1046 1.414 . S
C1045 C1048 1.499 . S
C1046 H1026 0.950 . S
C1046 C1045 1.414 . S
C1046 C1047 1.374 . S
C1047 H1027 0.950 . S
C1047 C1043 1.385 . S
C1047 C1046 1.374 . S
C1048 C1045 1.499 . S
C1048 C1049 1.373 . S
C1048 C1050 1.389 . S
C1049 H1028 0.950 . S
C1049 C1048 1.373 . S
C1049 C1065 1.377 . S
C1050 C1048 1.389 . S
C1050 C1051 1.524 . S
C1050 C1064 1.377 . S
C1051 C1050 1.524 . S
C1051 C1052 1.397 . S
C1051 C1056 1.363 . S
C1052 H1029 0.950 . S
C1052 C1051 1.397 . S
C1052 C1053 1.334 . S
C1053 H1030 0.950 . S
C1053 C1052 1.334 . S
C1053 C1054 1.287 . S
C1054 C1053 1.287 . S
C1054 C1055 1.524 . S
C1054 H1073 0.913 . S
C1055 H1031 0.950 . S
C1055 C1054 1.524 . S
C1055 C1056 1.415 . S
C1056 H1032 0.950 . S
C1056 C1051 1.363 . S
C1056 C1055 1.415 . S
C1057 H1033 0.951 . S
C1057 C1058 1.366 . S
C1057 C1059 1.388 . S
C1058 C1057 1.366 . S
C1058 C1062 1.385 . S
C1059 H1034 0.951 . S
C1059 C1057 1.388 . S
C1059 C1060 1.366 . S
C1060 C1059 1.366 . S
C1060 C1061 1.414 . S
C1060 C1063 1.499 . S
C1061 H1035 0.950 . S
C1061 C1060 1.414 . S
C1061 C1062 1.374 . S
C1062 H1036 0.950 . S
C1062 C1058 1.385 . S
C1062 C1061 1.374 . S
C1063 C1060 1.499 . S
C1063 C1064 1.373 . S
C1063 C1065 1.389 . S
C1064 H1037 0.950 . S
C1064 C1050 1.377 . S
C1064 C1063 1.373 . S
C1065 C1049 1.377 . S
C1065 C1063 1.389 . S
C1065 C1066 1.524 . S
C1066 C1065 1.524 . S
C1066 C1067 1.397 . S
C1066 C1071 1.363 . S
C1067 H1038 0.950 . S
C1067 C1066 1.397 . S
C1067 C1068 1.334 . S
C1068 H1039 0.950 . S
C1068 C1067 1.334 . S
C1068 C1069 1.287 . S
C1069 C1068 1.287 . S
C1069 C1070 1.524 . S
C1069 H1072 0.999 . S
C1070 H1040 0.950 . S
C1070 C1069 1.524 . S
C1070 C1071 1.415 . S
C1071 H1041 0.950 . S
C1071 C1066 1.363 . S
C1071 C1070 1.415 . S
H1072 C1069 0.999 . S
H1073 C1054 0.913 . S
H1074 C1092 0.951 . S
H1075 C1094 0.951 . S
H1076 C1096 0.950 . S
H1077 C1097 0.950 . S
H1078 C1099 0.950 . S
H1079 C1102 0.950 . S
H1080 C1103 0.950 . S
H1081 C1105 0.950 . S
H1082 C1106 0.950 . S
H1083 C1107 0.951 . S
H1084 C1109 0.951 . S
H1085 C1111 0.950 . S
H1086 C1112 0.950 . S
H1087 C1114 0.950 . S
H1088 C1117 0.950 . S
H1089 C1118 0.950 . S
H1090 C1120 0.950 . S
H1091 C1121 0.950 . S
C1092 H1074 0.951 . S
C1092 C1093 1.366 . S
C1092 C1094 1.388 . S
C1093 C1092 1.366 . S
C1093 C1097 1.385 . S
C1094 H1075 0.951 . S
C1094 C1092 1.388 . S
C1094 C1095 1.366 . S
C1095 C1094 1.366 . S
C1095 C1096 1.414 . S
C1095 C1098 1.499 . S
C1096 H1076 0.950 . S
C1096 C1095 1.414 . S
C1096 C1097 1.374 . S
C1097 H1077 0.950 . S
C1097 C1093 1.385 . S
C1097 C1096 1.374 . S
C1098 C1095 1.499 . S
C1098 C1099 1.373 . S
C1098 C1100 1.389 . S
C1099 H1078 0.950 . S
C1099 C1098 1.373 . S
C1099 C1115 1.377 . S
C1100 C1098 1.389 . S
C1100 C1101 1.524 . S
C1100 C1114 1.377 . S
C1101 C1100 1.524 . S
C1101 C1102 1.397 . S
C1101 C1106 1.363 . S
C1102 H1079 0.950 . S
C1102 C1101 1.397 . S
C1102 C1103 1.334 . S
C1103 H1080 0.950 . S
C1103 C1102 1.334 . S
C1103 C1104 1.287 . S
C1104 C1103 1.287 . S
C1104 C1105 1.524 . S
C1104 H1123 0.913 . S
C1105 H1081 0.950 . S
C1105 C1104 1.524 . S
C1105 C1106 1.415 . S
C1106 H1082 0.950 . S
C1106 C1101 1.363 . S
C1106 C1105 1.415 . S
C1107 H1083 0.951 . S
C1107 C1108 1.366 . S
C1107 C1109 1.388 . S
C1108 C1107 1.366 . S
C1108 C1112 1.385 . S
C1109 H1084 0.951 . S
C1109 C1107 1.388 . S
C1109 C1110 1.366 . S
C1110 C1109 1.366 . S
C1110 C1111 1.414 . S
C1110 C1113 1.499 . S
C1111 H1085 0.950 . S
C1111 C1110 1.414 . S
C1111 C1112 1.374 . S
C1112 H1086 0.950 . S
C1112 C1108 1.385 . S
C1112 C1111 1.374 . S
C1113 C1110 1.499 . S
C1113 C1114 1.373 . S
C1113 C1115 1.389 . S
C1114 H1087 0.950 . S
C1114 C1100 1.377 . S
C1114 C1113 1.373 . S
C1115 C1099 1.377 . S
C1115 C1113 1.389 . S
C1115 C1116 1.524 . S
C1116 C1115 1.524 . S
C1116 C1117 1.397 . S
C1116 C1121 1.363 . S
C1117 H1088 0.950 . S
C1117 C1116 1.397 . S
C1117 C1118 1.334 . S
C1118 H1089 0.950 . S
C1118 C1117 1.334 . S
C1118 C1119 1.287 . S
C1119 C1118 1.287 . S
C1119 C1120 1.524 . S
C1119 H1122 0.999 . S
C1120 H1090 0.950 . S
C1120 C1119 1.524 . S
C1120 C1121 1.415 . S
C1121 H1091 0.950 . S
C1121 C1116 1.363 . S
C1121 C1120 1.415 . S
H1122 C1119 0.999 . S
H1123 C1104 0.913 . S
H1124 C1142 0.951 . S
H1125 C1144 0.951 . S
H1126 C1146 0.950 . S
H1127 C1147 0.950 . S
H1128 C1149 0.950 . S
H1129 C1152 0.950 . S
H1130 C1153 0.950 . S
H1131 C1155 0.950 . S
H1132 C1156 0.950 . S
H1133 C1157 0.951 . S
H1134 C1159 0.951 . S
H1135 C1161 0.950 . S
H1136 C1162 0.950 . S
H1137 C1164 0.950 . S
H1138 C1167 0.950 1_655 S
H1139 C1168 0.950 . S
H1140 C1170 0.950 . S
H1141 C1171 0.950 . S
C1142 H1124 0.951 . S
C1142 C1143 1.366 . S
C1142 C1144 1.388 . S
C1143 C1142 1.366 . S
C1143 C1147 1.385 . S
C1144 H1125 0.951 . S
C1144 C1142 1.388 . S
C1144 C1145 1.366 . S
C1145 C1144 1.366 . S
C1145 C1146 1.414 . S
C1145 C1148 1.499 . S
C1146 H1126 0.950 . S
C1146 C1145 1.414 . S
C1146 C1147 1.374 . S
C1147 H1127 0.950 . S
C1147 C1143 1.385 . S
C1147 C1146 1.374 . S
C1148 C1145 1.499 . S
C1148 C1149 1.373 . S
C1148 C1150 1.389 . S
C1149 H1128 0.950 . S
C1149 C1148 1.373 . S
C1149 C1165 1.377 . S
C1150 C1148 1.389 . S
C1150 C1151 1.524 . S
C1150 C1164 1.377 . S
C1151 C1150 1.524 . S
C1151 C1152 1.397 . S
C1151 C1156 1.363 . S
C1152 H1129 0.950 . S
C1152 C1151 1.397 . S
C1152 C1153 1.334 . S
C1153 H1130 0.950 . S
C1153 C1152 1.334 . S
C1153 C1154 1.287 . S
C1154 C1153 1.287 . S
C1154 C1155 1.524 . S
C1154 H1173 0.913 . S
C1155 H1131 0.950 . S
C1155 C1154 1.524 . S
C1155 C1156 1.415 . S
C1156 H1132 0.950 . S
C1156 C1151 1.363 . S
C1156 C1155 1.415 . S
C1157 H1133 0.951 . S
C1157 C1158 1.366 . S
C1157 C1159 1.388 . S
C1158 C1157 1.366 . S
C1158 C1162 1.385 . S
C1159 H1134 0.951 . S
C1159 C1157 1.388 . S
C1159 C1160 1.366 . S
C1160 C1159 1.366 . S
C1160 C1161 1.414 . S
C1160 C1163 1.499 1_655 S
C1161 H1135 0.950 . S
C1161 C1160 1.414 . S
C1161 C1162 1.374 . S
C1162 H1136 0.950 . S
C1162 C1158 1.385 . S
C1162 C1161 1.374 . S
C1163 C1160 1.499 1_455 S
C1163 C1164 1.373 . S
C1163 C1165 1.389 . S
C1164 H1137 0.950 . S
C1164 C1150 1.377 . S
C1164 C1163 1.373 . S
C1165 C1149 1.377 . S
C1165 C1163 1.389 . S
C1165 C1166 1.524 . S
C1166 C1165 1.524 . S
C1166 C1167 1.397 . S
C1166 C1171 1.363 . S
C1167 H1138 0.950 1_455 S
C1167 C1166 1.397 . S
C1167 C1168 1.334 1_455 S
C1168 H1139 0.950 . S
C1168 C1167 1.334 1_655 S
C1168 C1169 1.276 1_655 S
C1169 C1168 1.276 1_455 S
C1169 C1170 1.542 . S
C1169 H1172 0.991 1_455 S
C1170 H1140 0.950 . S
C1170 C1169 1.542 . S
C1170 C1171 1.415 . S
C1171 H1141 0.950 . S
C1171 C1166 1.363 . S
C1171 C1170 1.415 . S
H1172 C1169 0.991 1_655 S
H1173 C1154 0.913 . S
H1174 C1192 0.951 . S
H1175 C1194 0.951 . S
H1176 C1196 0.950 . S
H1177 C1197 0.950 . S
H1178 C1199 0.950 . S
H1179 C1202 0.950 . S
H1180 C1203 0.950 . S
H1181 C1205 0.950 . S
H1182 C1206 0.950 1_655 S
H1183 C1207 0.951 . S
H1184 C1209 0.951 . S
H1185 C1211 0.950 . S
H1186 C1212 0.950 . S
H1187 C1214 0.950 . S
H1188 C1217 0.950 . S
H1189 C1218 0.950 . S
H1190 C1220 0.950 . S
H1191 C1221 0.972 . S
C1192 H1174 0.951 . S
C1192 C1193 1.366 1_554 S
C1192 C1194 1.388 . S
C1193 C1192 1.366 1_556 S
C1193 C1197 1.385 1_655 S
C1194 H1175 0.951 . S
C1194 C1192 1.388 . S
C1194 C1195 1.382 1_554 S
C1195 C1194 1.382 1_556 S
C1195 C1196 1.403 1_655 S
C1195 C1198 1.498 . S
C1196 H1176 0.950 . S
C1196 C1195 1.403 1_455 S
C1196 C1197 1.374 . S
C1197 H1177 0.950 . S
C1197 C1193 1.385 1_455 S
C1197 C1196 1.374 . S
C1198 C1195 1.498 . S
C1198 C1199 1.377 . S
C1198 C1200 1.385 1_656 S
C1199 H1178 0.950 . S
C1199 C1198 1.377 . S
C1199 C1215 1.377 . S
C1200 C1198 1.385 1_454 S
C1200 C1201 1.524 . S
C1200 C1214 1.377 . S
C1201 C1200 1.524 . S
C1201 C1202 1.397 . S
C1201 C1206 1.363 . S
C1202 H1179 0.950 . S
C1202 C1201 1.397 . S
C1202 C1203 1.334 . S
C1203 H1180 0.950 . S
C1203 C1202 1.334 . S
C1203 C1204 1.287 . S
C1204 C1203 1.287 . S
C1204 C1205 1.524 . S
C1204 H1223 0.913 . S
C1205 H1181 0.950 . S
C1205 C1204 1.524 . S
C1205 C1206 1.415 . S
C1206 H1182 0.950 1_455 S
C1206 C1201 1.363 . S
C1206 C1205 1.415 . S
C1207 H1183 0.951 . S
C1207 C1208 1.366 1_456 S
C1207 C1209 1.388 . S
C1208 C1207 1.366 1_654 S
C1208 C1212 1.385 . S
C1209 H1184 0.951 . S
C1209 C1207 1.388 . S
C1209 C1210 1.366 1_456 S
C1210 C1209 1.366 1_654 S
C1210 C1211 1.414 . S
C1210 C1213 1.499 . S
C1211 H1185 0.950 . S
C1211 C1210 1.414 . S
C1211 C1212 1.374 . S
C1212 H1186 0.950 . S
C1212 C1208 1.385 . S
C1212 C1211 1.374 . S
C1213 C1210 1.499 . S
C1213 C1214 1.373 1_655 S
C1213 C1215 1.389 1_554 S
C1214 H1187 0.950 . S
C1214 C1200 1.377 . S
C1214 C1213 1.373 1_455 S
C1215 C1199 1.377 . S
C1215 C1213 1.389 1_556 S
C1215 C1216 1.524 . S
C1216 C1215 1.524 . S
C1216 C1217 1.397 . S
C1216 C1221 1.363 . S
C1217 H1188 0.950 . S
C1217 C1216 1.397 . S
C1217 C1218 1.334 . S
C1218 H1189 0.950 . S
C1218 C1217 1.334 . S
C1218 C1219 1.287 . S
C1219 C1218 1.287 . S
C1219 C1220 1.524 . S
C1219 H1222 0.999 . S
C1220 H1190 0.950 . S
C1220 C1219 1.524 . S
C1220 C1221 1.415 . S
C1221 H1191 0.972 . S
C1221 C1216 1.363 . S
C1221 C1220 1.415 . S
H1222 C1219 0.999 . S
H1223 C1204 0.913 . S
H1224 C1242 0.951 . S
H1225 C1244 0.951 . S
H1226 C1246 0.950 . S
H1227 C1247 0.950 . S
H1228 C1249 0.950 . S
H1229 C1252 0.950 . S
H1230 C1253 0.950 . S
H1231 C1255 0.950 . S
H1232 C1256 0.950 . S
H1233 C1257 0.951 . S
H1234 C1259 0.951 . S
H1235 C1261 0.950 . S
H1236 C1262 0.950 . S
H1237 C1264 0.950 . S
H1238 C1267 0.950 . S
H1239 C1268 0.950 . S
H1240 C1270 0.950 . S
H1241 C1271 0.950 . S
C1242 H1224 0.951 . S
C1242 C1243 1.366 . S
C1242 C1244 1.388 . S
C1243 C1242 1.366 . S
C1243 C1247 1.385 . S
C1244 H1225 0.951 . S
C1244 C1242 1.388 . S
C1244 C1245 1.366 . S
C1245 C1244 1.366 . S
C1245 C1246 1.414 . S
C1245 C1248 1.499 . S
C1246 H1226 0.950 . S
C1246 C1245 1.414 . S
C1246 C1247 1.374 . S
C1247 H1227 0.950 . S
C1247 C1243 1.385 . S
C1247 C1246 1.374 . S
C1248 C1245 1.499 . S
C1248 C1249 1.373 . S
C1248 C1250 1.389 . S
C1249 H1228 0.950 . S
C1249 C1248 1.373 . S
C1249 C1265 1.377 . S
C1250 C1248 1.389 . S
C1250 C1251 1.524 . S
C1250 C1264 1.377 . S
C1251 C1250 1.524 . S
C1251 C1252 1.397 . S
C1251 C1256 1.363 . S
C1252 H1229 0.950 . S
C1252 C1251 1.397 . S
C1252 C1253 1.334 . S
C1253 H1230 0.950 . S
C1253 C1252 1.334 . S
C1253 C1254 1.287 . S
C1254 C1253 1.287 . S
C1254 C1255 1.524 . S
C1254 H1273 0.913 . S
C1255 H1231 0.950 . S
C1255 C1254 1.524 . S
C1255 C1256 1.415 . S
C1256 H1232 0.950 . S
C1256 C1251 1.363 . S
C1256 C1255 1.415 . S
C1257 H1233 0.951 . S
C1257 C1258 1.366 . S
C1257 C1259 1.388 . S
C1258 C1257 1.366 . S
C1258 C1262 1.385 . S
C1259 H1234 0.951 . S
C1259 C1257 1.388 . S
C1259 C1260 1.366 . S
C1260 C1259 1.366 . S
C1260 C1261 1.414 . S
C1260 C1263 1.499 . S
C1261 H1235 0.950 . S
C1261 C1260 1.414 . S
C1261 C1262 1.374 . S
C1262 H1236 0.950 . S
C1262 C1258 1.385 . S
C1262 C1261 1.374 . S
C1263 C1260 1.499 . S
C1263 C1264 1.373 . S
C1263 C1265 1.389 . S
C1264 H1237 0.950 . S
C1264 C1250 1.377 . S
C1264 C1263 1.373 . S
C1265 C1249 1.377 . S
C1265 C1263 1.389 . S
C1265 C1266 1.524 . S
C1266 C1265 1.524 . S
C1266 C1267 1.397 . S
C1266 C1271 1.363 . S
C1267 H1238 0.950 . S
C1267 C1266 1.397 . S
C1267 C1268 1.334 . S
C1268 H1239 0.950 . S
C1268 C1267 1.334 . S
C1268 C1269 1.287 . S
C1269 C1268 1.287 . S
C1269 C1270 1.524 . S
C1269 H1272 0.999 . S
C1270 H1240 0.950 . S
C1270 C1269 1.524 . S
C1270 C1271 1.415 . S
C1271 H1241 0.950 . S
C1271 C1266 1.363 . S
C1271 C1270 1.415 . S
H1272 C1269 0.999 . S
H1273 C1254 0.913 . S
H1274 C1292 0.951 . S
H1275 C1294 0.951 . S
H1276 C1296 0.950 . S
H1277 C1297 0.950 . S
H1278 C1299 0.950 . S
H1279 C1302 0.950 . S
H1280 C1303 0.950 . S
H1281 C1305 0.950 . S
H1282 C1306 0.950 . S
H1283 C1307 0.951 . S
H1284 C1309 0.951 . S
H1285 C1311 0.950 . S
H1286 C1312 0.950 . S
H1287 C1314 0.950 . S
H1288 C1317 0.950 . S
H1289 C1318 0.950 . S
H1290 C1320 0.950 . S
H1291 C1321 0.950 . S
C1292 H1274 0.951 . S
C1292 C1293 1.366 . S
C1292 C1294 1.388 . S
C1293 C1292 1.366 . S
C1293 C1297 1.385 . S
C1294 H1275 0.951 . S
C1294 C1292 1.388 . S
C1294 C1295 1.366 . S
C1295 C1294 1.366 . S
C1295 C1296 1.414 . S
C1295 C1298 1.499 . S
C1296 H1276 0.950 . S
C1296 C1295 1.414 . S
C1296 C1297 1.374 . S
C1297 H1277 0.950 . S
C1297 C1293 1.385 . S
C1297 C1296 1.374 . S
C1298 C1295 1.499 . S
C1298 C1299 1.373 . S
C1298 C1300 1.389 . S
C1299 H1278 0.950 . S
C1299 C1298 1.373 . S
C1299 C1315 1.377 . S
C1300 C1298 1.389 . S
C1300 C1301 1.524 . S
C1300 C1314 1.377 . S
C1301 C1300 1.524 . S
C1301 C1302 1.397 . S
C1301 C1306 1.363 . S
C1302 H1279 0.950 . S
C1302 C1301 1.397 . S
C1302 C1303 1.334 . S
C1303 H1280 0.950 . S
C1303 C1302 1.334 . S
C1303 C1304 1.287 . S
C1304 C1303 1.287 . S
C1304 C1305 1.524 . S
C1304 H1323 0.913 . S
C1305 H1281 0.950 . S
C1305 C1304 1.524 . S
C1305 C1306 1.415 . S
C1306 H1282 0.950 . S
C1306 C1301 1.363 . S
C1306 C1305 1.415 . S
C1307 H1283 0.951 . S
C1307 C1308 1.366 . S
C1307 C1309 1.388 . S
C1308 C1307 1.366 . S
C1308 C1312 1.385 . S
C1309 H1284 0.951 . S
C1309 C1307 1.388 . S
C1309 C1310 1.366 . S
C1310 C1309 1.366 . S
C1310 C1311 1.414 . S
C1310 C1313 1.499 1_565 S
C1311 H1285 0.950 . S
C1311 C1310 1.414 . S
C1311 C1312 1.374 . S
C1312 H1286 0.950 . S
C1312 C1308 1.385 . S
C1312 C1311 1.374 . S
C1313 C1310 1.499 1_545 S
C1313 C1314 1.373 . S
C1313 C1315 1.389 . S
C1314 H1287 0.950 . S
C1314 C1300 1.377 . S
C1314 C1313 1.373 . S
C1315 C1299 1.377 . S
C1315 C1313 1.389 . S
C1315 C1316 1.524 . S
C1316 C1315 1.524 . S
C1316 C1317 1.397 1_545 S
C1316 C1321 1.363 . S
C1317 H1288 0.950 . S
C1317 C1316 1.397 1_565 S
C1317 C1318 1.334 . S
C1318 H1289 0.950 . S
C1318 C1317 1.334 . S
C1318 C1319 1.287 . S
C1319 C1318 1.287 . S
C1319 C1320 1.524 1_565 S
C1319 H1322 0.999 . S
C1320 H1290 0.950 . S
C1320 C1319 1.524 1_545 S
C1320 C1321 1.415 . S
C1321 H1291 0.950 . S
C1321 C1316 1.363 . S
C1321 C1320 1.415 . S
H1322 C1319 0.999 . S
H1323 C1304 0.913 . S
H1324 C1342 0.951 . S
H1325 C1344 0.951 . S
H1326 C1346 0.950 . S
H1327 C1347 0.950 . S
H1328 C1349 0.950 . S
H1329 C1352 0.950 . S
H1330 C1353 0.950 . S
H1331 C1355 0.950 . S
H1332 C1356 0.950 . S
H1333 C1357 0.951 . S
H1334 C1359 0.951 . S
H1335 C1361 0.950 . S
H1336 C1362 0.950 . S
H1337 C1364 0.950 . S
H1338 C1367 0.950 . S
H1339 C1368 0.950 . S
H1340 C1370 0.950 . S
H1341 C1371 0.950 . S
C1342 H1324 0.951 . S
C1342 C1343 1.366 1_556 S
C1342 C1344 1.388 . S
C1343 C1342 1.366 1_554 S
C1343 C1347 1.385 . S
C1344 H1325 0.951 . S
C1344 C1342 1.388 . S
C1344 C1345 1.366 1_556 S
C1345 C1344 1.366 1_554 S
C1345 C1346 1.414 . S
C1345 C1348 1.499 . S
C1346 H1326 0.950 . S
C1346 C1345 1.414 . S
C1346 C1347 1.374 . S
C1347 H1327 0.950 . S
C1347 C1343 1.385 . S
C1347 C1346 1.374 . S
C1348 C1345 1.499 . S
C1348 C1349 1.373 . S
C1348 C1350 1.389 1_554 S
C1349 H1328 0.950 . S
C1349 C1348 1.373 . S
C1349 C1365 1.377 . S
C1350 C1348 1.389 1_556 S
C1350 C1351 1.524 . S
C1350 C1364 1.377 . S
C1351 C1350 1.524 . S
C1351 C1352 1.397 1_556 S
C1351 C1356 1.363 . S
C1352 H1329 0.950 . S
C1352 C1351 1.397 1_554 S
C1352 C1353 1.334 . S
C1353 H1330 0.950 . S
C1353 C1352 1.334 . S
C1353 C1354 1.287 1_554 S
C1354 C1353 1.287 1_556 S
C1354 C1355 1.524 . S
C1354 H1373 0.913 . S
C1355 H1331 0.950 . S
C1355 C1354 1.524 . S
C1355 C1356 1.415 . S
C1356 H1332 0.950 . S
C1356 C1351 1.363 . S
C1356 C1355 1.415 . S
C1357 H1333 0.951 . S
C1357 C1358 1.366 1_554 S
C1357 C1359 1.388 . S
C1358 C1357 1.366 1_556 S
C1358 C1362 1.385 . S
C1359 H1334 0.951 . S
C1359 C1357 1.388 . S
C1359 C1360 1.366 1_554 S
C1360 C1359 1.366 1_556 S
C1360 C1361 1.414 . S
C1360 C1363 1.499 . S
C1361 H1335 0.950 . S
C1361 C1360 1.414 . S
C1361 C1362 1.374 . S
C1362 H1336 0.950 . S
C1362 C1358 1.385 . S
C1362 C1361 1.374 . S
C1363 C1360 1.499 . S
C1363 C1364 1.373 . S
C1363 C1365 1.389 1_556 S
C1364 H1337 0.950 . S
C1364 C1350 1.377 . S
C1364 C1363 1.373 . S
C1365 C1349 1.377 . S
C1365 C1363 1.389 1_554 S
C1365 C1366 1.524 . S
C1366 C1365 1.524 . S
C1366 C1367 1.397 1_554 S
C1366 C1371 1.363 . S
C1367 H1338 0.950 . S
C1367 C1366 1.397 1_556 S
C1367 C1368 1.334 . S
C1368 H1339 0.950 . S
C1368 C1367 1.334 . S
C1368 C1369 1.287 1_556 S
C1369 C1368 1.287 1_554 S
C1369 C1370 1.524 . S
C1369 H1372 0.999 . S
C1370 H1340 0.950 . S
C1370 C1369 1.524 . S
C1370 C1371 1.415 . S
C1371 H1341 0.950 . S
C1371 C1366 1.363 . S
C1371 C1370 1.415 . S
H1372 C1369 0.999 . S
H1373 C1354 0.913 . S
H1374 C1392 0.951 . S
H1375 C1394 0.951 . S
H1376 C1396 0.950 . S
H1377 C1397 0.950 . S
H1378 C1399 0.950 1_545 S
H1379 C1402 0.950 . S
H1380 C1403 0.950 . S
H1381 C1405 0.950 . S
H1382 C1406 0.966 . S
H1383 C1407 0.951 . S
H1384 C1409 0.951 . S
H1385 C1411 0.950 . S
H1386 C1412 0.950 . S
H1387 C1414 0.950 . S
H1388 C1417 0.950 . S
H1389 C1418 0.950 . S
H1390 C1420 0.950 . S
H1391 C1421 0.950 . S
C1392 H1374 0.951 . S
C1392 C1393 1.366 . S
C1392 C1394 1.388 . S
C1393 C1392 1.366 . S
C1393 C1397 1.385 . S
C1394 H1375 0.951 . S
C1394 C1392 1.388 . S
C1394 C1395 1.366 . S
C1395 C1394 1.366 . S
C1395 C1396 1.414 . S
C1395 C1398 1.499 . S
C1396 H1376 0.950 . S
C1396 C1395 1.414 . S
C1396 C1397 1.374 . S
C1397 H1377 0.950 . S
C1397 C1393 1.385 . S
C1397 C1396 1.374 . S
C1398 C1395 1.499 . S
C1398 C1399 1.373 1_545 S
C1398 C1400 1.389 . S
C1399 H1378 0.950 1_565 S
C1399 C1398 1.373 1_565 S
C1399 C1415 1.377 . S
C1400 C1398 1.389 . S
C1400 C1401 1.524 . S
C1400 C1414 1.377 1_545 S
C1401 C1400 1.524 . S
C1401 C1402 1.397 . S
C1401 C1406 1.363 . S
C1402 H1379 0.950 . S
C1402 C1401 1.397 . S
C1402 C1403 1.334 . S
C1403 H1380 0.950 . S
C1403 C1402 1.334 . S
C1403 C1404 1.287 . S
C1404 C1403 1.287 . S
C1404 C1405 1.524 . S
C1404 H1423 0.913 . S
C1405 H1381 0.950 . S
C1405 C1404 1.524 . S
C1405 C1406 1.415 . S
C1406 H1382 0.966 . S
C1406 C1401 1.363 . S
C1406 C1405 1.415 . S
C1407 H1383 0.951 . S
C1407 C1408 1.366 . S
C1407 C1409 1.388 . S
C1408 C1407 1.366 . S
C1408 C1412 1.385 . S
C1409 H1384 0.951 . S
C1409 C1407 1.388 . S
C1409 C1410 1.366 . S
C1410 C1409 1.366 . S
C1410 C1411 1.414 . S
C1410 C1413 1.499 . S
C1411 H1385 0.950 . S
C1411 C1410 1.414 . S
C1411 C1412 1.374 . S
C1412 H1386 0.950 . S
C1412 C1408 1.385 . S
C1412 C1411 1.374 . S
C1413 C1410 1.499 . S
C1413 C1414 1.373 . S
C1413 C1415 1.389 . S
C1414 H1387 0.950 . S
C1414 C1400 1.377 1_565 S
C1414 C1413 1.373 . S
C1415 C1399 1.377 . S
C1415 C1413 1.389 . S
C1415 C1416 1.524 . S
C1416 C1415 1.524 . S
C1416 C1417 1.397 . S
C1416 C1421 1.363 . S
C1417 H1388 0.950 . S
C1417 C1416 1.397 . S
C1417 C1418 1.334 . S
C1418 H1389 0.950 . S
C1418 C1417 1.334 . S
C1418 C1419 1.287 . S
C1419 C1418 1.287 . S
C1419 C1420 1.524 . S
C1419 H1422 0.999 . S
C1420 H1390 0.950 . S
C1420 C1419 1.524 . S
C1420 C1421 1.415 . S
C1421 H1391 0.950 . S
C1421 C1416 1.363 . S
C1421 C1420 1.415 . S
H1422 C1419 0.999 . S
H1423 C1404 0.913 . S
H1424 C1442 0.951 . S
H1425 C1444 0.970 . S
H1426 C1446 0.950 . S
H1427 C1447 0.950 . S
H1428 C1449 0.950 . S
H1429 C1452 0.950 . S
H1430 C1453 0.950 . S
H1431 C1455 0.950 . S
H1432 C1456 0.950 . S
H1433 C1457 0.951 . S
H1434 C1459 0.951 . S
H1435 C1461 0.950 1_554 S
H1436 C1462 0.950 1_554 S
H1437 C1464 0.950 1_554 S
H1438 C1467 0.950 . S
H1439 C1468 0.950 . S
H1440 C1470 0.950 . S
H1441 C1471 0.950 . S
C1442 H1424 0.951 . S
C1442 C1443 1.366 . S
C1442 C1444 1.388 . S
C1443 C1442 1.366 . S
C1443 C1447 1.385 . S
C1444 H1425 0.970 . S
C1444 C1442 1.388 . S
C1444 C1445 1.366 . S
C1445 C1444 1.366 . S
C1445 C1446 1.414 . S
C1445 C1448 1.499 . S
C1446 H1426 0.950 . S
C1446 C1445 1.414 . S
C1446 C1447 1.374 . S
C1447 H1427 0.950 . S
C1447 C1443 1.385 . S
C1447 C1446 1.374 . S
C1448 C1445 1.499 . S
C1448 C1449 1.373 . S
C1448 C1450 1.389 . S
C1449 H1428 0.950 . S
C1449 C1448 1.373 . S
C1449 C1465 1.377 . S
C1450 C1448 1.389 . S
C1450 C1451 1.524 1_556 S
C1450 C1464 1.377 . S
C1451 C1450 1.524 1_554 S
C1451 C1452 1.397 1_554 S
C1451 C1456 1.363 . S
C1452 H1429 0.950 . S
C1452 C1451 1.397 1_556 S
C1452 C1453 1.334 1_556 S
C1453 H1430 0.950 . S
C1453 C1452 1.334 1_554 S
C1453 C1454 1.287 . S
C1454 C1453 1.287 . S
C1454 C1455 1.524 . S
C1454 H1473 0.913 . S
C1455 H1431 0.950 . S
C1455 C1454 1.524 . S
C1455 C1456 1.415 . S
C1456 H1432 0.950 . S
C1456 C1451 1.363 . S
C1456 C1455 1.415 . S
C1457 H1433 0.951 . S
C1457 C1458 1.366 . S
C1457 C1459 1.388 . S
C1458 C1457 1.366 . S
C1458 C1462 1.385 . S
C1459 H1434 0.951 . S
C1459 C1457 1.388 . S
C1459 C1460 1.366 . S
C1460 C1459 1.366 . S
C1460 C1461 1.414 . S
C1460 C1463 1.499 . S
C1461 H1435 0.950 1_556 S
C1461 C1460 1.414 . S
C1461 C1462 1.374 . S
C1462 H1436 0.950 1_556 S
C1462 C1458 1.385 . S
C1462 C1461 1.374 . S
C1463 C1460 1.499 . S
C1463 C1464 1.373 . S
C1463 C1465 1.389 . S
C1464 H1437 0.950 1_556 S
C1464 C1450 1.377 . S
C1464 C1463 1.373 . S
C1465 C1449 1.377 . S
C1465 C1463 1.389 . S
C1465 C1466 1.524 . S
C1466 C1465 1.524 . S
C1466 C1467 1.397 1_565 S
C1466 C1471 1.363 . S
C1467 H1438 0.950 . S
C1467 C1466 1.397 1_545 S
C1467 C1468 1.334 . S
C1468 H1439 0.950 . S
C1468 C1467 1.334 . S
C1468 C1469 1.287 . S
C1469 C1468 1.287 . S
C1469 C1470 1.524 1_545 S
C1469 H1472 0.999 . S
C1470 H1440 0.950 . S
C1470 C1469 1.524 1_565 S
C1470 C1471 1.415 . S
C1471 H1441 0.950 . S
C1471 C1466 1.363 . S
C1471 C1470 1.415 . S
H1472 C1469 0.999 . S
H1473 C1454 0.913 . S
H1474 C1492 0.951 . S
H1475 C1494 0.951 . S
H1476 C1496 0.950 . S
H1477 C1497 0.950 . S
H1478 C1499 0.950 . S
H1479 C1502 0.950 . S
H1480 C1503 0.950 . S
H1481 C1505 0.950 . S
H1482 C1506 0.950 . S
H1483 C1507 0.951 . S
H1484 C1509 0.951 . S
H1485 C1511 0.950 . S
H1486 C1512 0.950 . S
H1487 C1514 0.950 . S
H1488 C1517 0.950 . S
H1489 C1518 0.950 . S
H1490 C1520 0.950 . S
H1491 C1521 0.950 . S
C1492 H1474 0.951 . S
C1492 C1493 1.366 . S
C1492 C1494 1.388 . S
C1493 C1492 1.366 . S
C1493 C1497 1.385 . S
C1494 H1475 0.951 . S
C1494 C1492 1.388 . S
C1494 C1495 1.366 . S
C1495 C1494 1.366 . S
C1495 C1496 1.414 . S
C1495 C1498 1.499 . S
C1496 H1476 0.950 . S
C1496 C1495 1.414 . S
C1496 C1497 1.374 . S
C1497 H1477 0.950 . S
C1497 C1493 1.385 . S
C1497 C1496 1.374 . S
C1498 C1495 1.499 . S
C1498 C1499 1.373 . S
C1498 C1500 1.389 . S
C1499 H1478 0.950 . S
C1499 C1498 1.373 . S
C1499 C1515 1.377 . S
C1500 C1498 1.389 . S
C1500 C1501 1.524 . S
C1500 C1514 1.377 . S
C1501 C1500 1.524 . S
C1501 C1502 1.397 . S
C1501 C1506 1.363 . S
C1502 H1479 0.950 . S
C1502 C1501 1.397 . S
C1502 C1503 1.334 . S
C1503 H1480 0.950 . S
C1503 C1502 1.334 . S
C1503 C1504 1.287 . S
C1504 C1503 1.287 . S
C1504 C1505 1.524 . S
C1504 H1523 0.913 . S
C1505 H1481 0.950 . S
C1505 C1504 1.524 . S
C1505 C1506 1.415 . S
C1506 H1482 0.950 . S
C1506 C1501 1.363 . S
C1506 C1505 1.415 . S
C1507 H1483 0.951 . S
C1507 C1508 1.366 . S
C1507 C1509 1.388 . S
C1508 C1507 1.366 . S
C1508 C1512 1.385 . S
C1509 H1484 0.951 . S
C1509 C1507 1.388 . S
C1509 C1510 1.366 . S
C1510 C1509 1.366 . S
C1510 C1511 1.414 . S
C1510 C1513 1.499 . S
C1511 H1485 0.950 . S
C1511 C1510 1.414 . S
C1511 C1512 1.374 . S
C1512 H1486 0.950 . S
C1512 C1508 1.385 . S
C1512 C1511 1.374 . S
C1513 C1510 1.499 . S
C1513 C1514 1.373 . S
C1513 C1515 1.389 . S
C1514 H1487 0.950 . S
C1514 C1500 1.377 . S
C1514 C1513 1.373 . S
C1515 C1499 1.377 . S
C1515 C1513 1.389 . S
C1515 C1516 1.524 . S
C1516 C1515 1.524 . S
C1516 C1517 1.397 . S
C1516 C1521 1.363 . S
C1517 H1488 0.950 . S
C1517 C1516 1.397 . S
C1517 C1518 1.334 . S
C1518 H1489 0.950 . S
C1518 C1517 1.334 . S
C1518 C1519 1.287 . S
C1519 C1518 1.287 . S
C1519 C1520 1.524 . S
C1519 H1522 0.999 . S
C1520 H1490 0.950 . S
C1520 C1519 1.524 . S
C1520 C1521 1.415 . S
C1521 H1491 0.950 . S
C1521 C1516 1.363 . S
C1521 C1520 1.415 . S
H1522 C1519 0.999 . S
H1523 C1504 0.913 . S
H1524 C1542 0.951 . S
H1525 C1544 0.951 . S
H1526 C1546 0.950 . S
H1527 C1547 0.950 . S
H1528 C1549 0.950 . S
H1529 C1552 0.950 . S
H1530 C1553 0.950 . S
H1531 C1555 0.950 . S
H1532 C1556 0.950 . S
H1533 C1557 0.951 . S
H1534 C1559 0.951 . S
H1535 C1561 0.950 . S
H1536 C1562 0.950 . S
H1537 C1564 0.950 . S
H1538 C1567 0.950 . S
H1539 C1568 0.950 . S
H1540 C1570 0.950 . S
H1541 C1571 0.950 . S
C1542 H1524 0.951 . S
C1542 C1543 1.366 . S
C1542 C1544 1.388 . S
C1543 C1542 1.366 . S
C1543 C1547 1.385 . S
C1544 H1525 0.951 . S
C1544 C1542 1.388 . S
C1544 C1545 1.366 . S
C1545 C1544 1.366 . S
C1545 C1546 1.414 . S
C1545 C1548 1.499 . S
C1546 H1526 0.950 . S
C1546 C1545 1.414 . S
C1546 C1547 1.374 . S
C1547 H1527 0.950 . S
C1547 C1543 1.385 . S
C1547 C1546 1.374 . S
C1548 C1545 1.499 . S
C1548 C1549 1.373 . S
C1548 C1550 1.389 . S
C1549 H1528 0.950 . S
C1549 C1548 1.373 . S
C1549 C1565 1.377 . S
C1550 C1548 1.389 . S
C1550 C1551 1.524 . S
C1550 C1564 1.377 . S
C1551 C1550 1.524 . S
C1551 C1552 1.397 . S
C1551 C1556 1.363 . S
C1552 H1529 0.950 . S
C1552 C1551 1.397 . S
C1552 C1553 1.334 . S
C1553 H1530 0.950 . S
C1553 C1552 1.334 . S
C1553 C1554 1.287 . S
C1554 C1553 1.287 . S
C1554 C1555 1.524 . S
C1554 H1573 0.913 . S
C1555 H1531 0.950 . S
C1555 C1554 1.524 . S
C1555 C1556 1.415 . S
C1556 H1532 0.950 . S
C1556 C1551 1.363 . S
C1556 C1555 1.415 . S
C1557 H1533 0.951 . S
C1557 C1558 1.366 . S
C1557 C1559 1.388 . S
C1558 C1557 1.366 . S
C1558 C1562 1.385 . S
C1559 H1534 0.951 . S
C1559 C1557 1.388 . S
C1559 C1560 1.366 . S
C1560 C1559 1.366 . S
C1560 C1561 1.414 . S
C1560 C1563 1.499 . S
C1561 H1535 0.950 . S
C1561 C1560 1.414 . S
C1561 C1562 1.374 . S
C1562 H1536 0.950 . S
C1562 C1558 1.385 . S
C1562 C1561 1.374 . S
C1563 C1560 1.499 . S
C1563 C1564 1.373 . S
C1563 C1565 1.389 . S
C1564 H1537 0.950 . S
C1564 C1550 1.377 . S
C1564 C1563 1.373 . S
C1565 C1549 1.377 . S
C1565 C1563 1.389 . S
C1565 C1566 1.524 . S
C1566 C1565 1.524 . S
C1566 C1567 1.397 . S
C1566 C1571 1.363 . S
C1567 H1538 0.950 . S
C1567 C1566 1.397 . S
C1567 C1568 1.334 . S
C1568 H1539 0.950 . S
C1568 C1567 1.334 . S
C1568 C1569 1.287 . S
C1569 C1568 1.287 . S
C1569 C1570 1.524 . S
C1569 H1572 0.999 . S
C1570 H1540 0.950 . S
C1570 C1569 1.524 . S
C1570 C1571 1.415 . S
C1571 H1541 0.950 . S
C1571 C1566 1.363 . S
C1571 C1570 1.415 . S
H1572 C1569 0.999 . S
H1573 C1554 0.913 . S
H1574 C1592 0.951 . S
H1575 C1594 0.951 . S
H1576 C1596 0.950 . S
H1577 C1597 0.950 . S
H1578 C1599 0.950 . S
H1579 C1602 0.950 . S
H1580 C1603 0.950 . S
H1581 C1605 0.950 . S
H1582 C1606 0.950 . S
H1583 C1607 0.951 . S
H1584 C1609 0.951 . S
H1585 C1611 0.950 . S
H1586 C1612 0.950 . S
H1587 C1614 0.950 . S
H1588 C1617 0.950 . S
H1589 C1618 0.950 . S
H1590 C1620 0.950 . S
H1591 C1621 0.950 . S
C1592 H1574 0.951 . S
C1592 C1593 1.366 . S
C1592 C1594 1.388 . S
C1593 C1592 1.366 . S
C1593 C1597 1.385 . S
C1594 H1575 0.951 . S
C1594 C1592 1.388 . S
C1594 C1595 1.366 . S
C1595 C1594 1.366 . S
C1595 C1596 1.414 . S
C1595 C1598 1.499 . S
C1596 H1576 0.950 . S
C1596 C1595 1.414 . S
C1596 C1597 1.374 . S
C1597 H1577 0.950 . S
C1597 C1593 1.385 . S
C1597 C1596 1.374 . S
C1598 C1595 1.499 . S
C1598 C1599 1.373 . S
C1598 C1600 1.389 . S
C1599 H1578 0.950 . S
C1599 C1598 1.373 . S
C1599 C1615 1.377 1_556 S
C1600 C1598 1.389 . S
C1600 C1601 1.524 . S
C1600 C1614 1.377 1_556 S
C1601 C1600 1.524 . S
C1601 C1602 1.397 . S
C1601 C1606 1.363 . S
C1602 H1579 0.950 . S
C1602 C1601 1.397 . S
C1602 C1603 1.334 . S
C1603 H1580 0.950 . S
C1603 C1602 1.334 . S
C1603 C1604 1.287 . S
C1604 C1603 1.287 . S
C1604 C1605 1.524 . S
C1604 H1623 0.913 . S
C1605 H1581 0.950 . S
C1605 C1604 1.524 . S
C1605 C1606 1.415 . S
C1606 H1582 0.950 . S
C1606 C1601 1.363 . S
C1606 C1605 1.415 . S
C1607 H1583 0.951 . S
C1607 C1608 1.366 . S
C1607 C1609 1.388 . S
C1608 C1607 1.366 . S
C1608 C1612 1.385 . S
C1609 H1584 0.951 . S
C1609 C1607 1.388 . S
C1609 C1610 1.366 . S
C1610 C1609 1.366 . S
C1610 C1611 1.414 . S
C1610 C1613 1.499 . S
C1611 H1585 0.950 . S
C1611 C1610 1.414 . S
C1611 C1612 1.374 . S
C1612 H1586 0.950 . S
C1612 C1608 1.385 . S
C1612 C1611 1.374 . S
C1613 C1610 1.499 . S
C1613 C1614 1.373 . S
C1613 C1615 1.389 . S
C1614 H1587 0.950 . S
C1614 C1600 1.377 1_554 S
C1614 C1613 1.373 . S
C1615 C1599 1.377 1_554 S
C1615 C1613 1.389 . S
C1615 C1616 1.524 . S
C1616 C1615 1.524 . S
C1616 C1617 1.397 . S
C1616 C1621 1.363 . S
C1617 H1588 0.950 . S
C1617 C1616 1.397 . S
C1617 C1618 1.334 . S
C1618 H1589 0.950 . S
C1618 C1617 1.334 . S
C1618 C1619 1.287 . S
C1619 C1618 1.287 . S
C1619 C1620 1.524 . S
C1619 H1622 0.999 . S
C1620 H1590 0.950 . S
C1620 C1619 1.524 . S
C1620 C1621 1.415 . S
C1621 H1591 0.950 . S
C1621 C1616 1.363 . S
C1621 C1620 1.415 . S
H1622 C1619 0.999 . S
H1623 C1604 0.913 . S
H1624 C1642 0.951 . S
H1625 C1644 0.951 . S
H1626 C1646 0.950 . S
H1627 C1647 0.950 . S
H1628 C1649 0.950 . S
H1629 C1652 0.950 . S
H1630 C1653 0.950 . S
H1631 C1655 0.950 . S
H1632 C1656 0.950 . S
H1633 C1657 0.951 . S
H1634 C1659 0.951 . S
H1635 C1661 0.950 . S
H1636 C1662 0.950 . S
H1637 C1664 0.950 . S
H1638 C1667 0.950 . S
H1639 C1668 0.950 . S
H1640 C1670 0.950 . S
H1641 C1671 0.950 . S
C1642 H1624 0.951 . S
C1642 C1643 1.366 . S
C1642 C1644 1.388 . S
C1643 C1642 1.366 . S
C1643 C1647 1.385 . S
C1644 H1625 0.951 . S
C1644 C1642 1.388 . S
C1644 C1645 1.366 . S
C1645 C1644 1.366 . S
C1645 C1646 1.414 . S
C1645 C1648 1.499 . S
C1646 H1626 0.950 . S
C1646 C1645 1.414 . S
C1646 C1647 1.374 . S
C1647 H1627 0.950 . S
C1647 C1643 1.385 . S
C1647 C1646 1.374 . S
C1648 C1645 1.499 . S
C1648 C1649 1.373 . S
C1648 C1650 1.389 . S
C1649 H1628 0.950 . S
C1649 C1648 1.373 . S
C1649 C1665 1.377 . S
C1650 C1648 1.389 . S
C1650 C1651 1.524 . S
C1650 C1664 1.377 . S
C1651 C1650 1.524 . S
C1651 C1652 1.397 . S
C1651 C1656 1.363 . S
C1652 H1629 0.950 . S
C1652 C1651 1.397 . S
C1652 C1653 1.334 . S
C1653 H1630 0.950 . S
C1653 C1652 1.334 . S
C1653 C1654 1.287 . S
C1654 C1653 1.287 . S
C1654 C1655 1.524 . S
C1654 H1673 0.913 . S
C1655 H1631 0.950 . S
C1655 C1654 1.524 . S
C1655 C1656 1.415 . S
C1656 H1632 0.950 . S
C1656 C1651 1.363 . S
C1656 C1655 1.415 . S
C1657 H1633 0.951 . S
C1657 C1658 1.366 . S
C1657 C1659 1.388 . S
C1658 C1657 1.366 . S
C1658 C1662 1.385 . S
C1659 H1634 0.951 . S
C1659 C1657 1.388 . S
C1659 C1660 1.366 . S
C1660 C1659 1.366 . S
C1660 C1661 1.414 . S
C1660 C1663 1.499 . S
C1661 H1635 0.950 . S
C1661 C1660 1.414 . S
C1661 C1662 1.374 . S
C1662 H1636 0.950 . S
C1662 C1658 1.385 . S
C1662 C1661 1.374 . S
C1663 C1660 1.499 . S
C1663 C1664 1.373 . S
C1663 C1665 1.389 . S
C1664 H1637 0.950 . S
C1664 C1650 1.377 . S
C1664 C1663 1.373 . S
C1665 C1649 1.377 . S
C1665 C1663 1.389 . S
C1665 C1666 1.524 . S
C1666 C1665 1.524 . S
C1666 C1667 1.397 . S
C1666 C1671 1.363 . S
C1667 H1638 0.950 . S
C1667 C1666 1.397 . S
C1667 C1668 1.334 . S
C1668 H1639 0.950 . S
C1668 C1667 1.334 . S
C1668 C1669 1.287 . S
C1669 C1668 1.287 . S
C1669 C1670 1.524 . S
C1669 H1672 0.999 . S
C1670 H1640 0.950 . S
C1670 C1669 1.524 . S
C1670 C1671 1.415 . S
C1671 H1641 0.950 . S
C1671 C1666 1.363 . S
C1671 C1670 1.415 . S
H1672 C1669 0.999 . S
H1673 C1654 0.913 . S
H1674 C1692 0.951 . S
H1675 C1694 0.951 . S
H1676 C1696 0.950 . S
H1677 C1697 0.950 . S
H1678 C1699 0.950 . S
H1679 C1702 0.950 . S
H1680 C1703 0.950 . S
H1681 C1705 0.950 . S
H1682 C1706 0.950 . S
H1683 C1707 0.951 . S
H1684 C1709 0.951 . S
H1685 C1711 0.950 . S
H1686 C1712 0.950 . S
H1687 C1714 0.950 . S
H1688 C1717 0.950 . S
H1689 C1718 0.950 . S
H1690 C1720 0.950 . S
H1691 C1721 0.950 . S
C1692 H1674 0.951 . S
C1692 C1693 1.366 . S
C1692 C1694 1.388 . S
C1693 C1692 1.366 . S
C1693 C1697 1.385 . S
C1694 H1675 0.951 . S
C1694 C1692 1.388 . S
C1694 C1695 1.366 . S
C1695 C1694 1.366 . S
C1695 C1696 1.414 . S
C1695 C1698 1.499 . S
C1696 H1676 0.950 . S
C1696 C1695 1.414 . S
C1696 C1697 1.374 . S
C1697 H1677 0.950 . S
C1697 C1693 1.385 . S
C1697 C1696 1.374 . S
C1698 C1695 1.499 . S
C1698 C1699 1.373 . S
C1698 C1700 1.389 . S
C1699 H1678 0.950 . S
C1699 C1698 1.373 . S
C1699 C1715 1.377 . S
C1700 C1698 1.389 . S
C1700 C1701 1.524 . S
C1700 C1714 1.377 . S
C1701 C1700 1.524 . S
C1701 C1702 1.397 . S
C1701 C1706 1.363 . S
C1702 H1679 0.950 . S
C1702 C1701 1.397 . S
C1702 C1703 1.334 . S
C1703 H1680 0.950 . S
C1703 C1702 1.334 . S
C1703 C1704 1.287 . S
C1704 C1703 1.287 . S
C1704 C1705 1.524 . S
C1704 H1723 0.913 . S
C1705 H1681 0.950 . S
C1705 C1704 1.524 . S
C1705 C1706 1.415 . S
C1706 H1682 0.950 . S
C1706 C1701 1.363 . S
C1706 C1705 1.415 . S
C1707 H1683 0.951 . S
C1707 C1708 1.366 . S
C1707 C1709 1.388 . S
C1708 C1707 1.366 . S
C1708 C1712 1.385 . S
C1709 H1684 0.951 . S
C1709 C1707 1.388 . S
C1709 C1710 1.366 . S
C1710 C1709 1.366 . S
C1710 C1711 1.414 . S
C1710 C1713 1.499 . S
C1711 H1685 0.950 . S
C1711 C1710 1.414 . S
C1711 C1712 1.374 . S
C1712 H1686 0.950 . S
C1712 C1708 1.385 . S
C1712 C1711 1.374 . S
C1713 C1710 1.499 . S
C1713 C1714 1.373 . S
C1713 C1715 1.389 . S
C1714 H1687 0.950 . S
C1714 C1700 1.377 . S
C1714 C1713 1.373 . S
C1715 C1699 1.377 . S
C1715 C1713 1.389 . S
C1715 C1716 1.524 . S
C1716 C1715 1.524 . S
C1716 C1717 1.397 . S
C1716 C1721 1.363 . S
C1717 H1688 0.950 . S
C1717 C1716 1.397 . S
C1717 C1718 1.334 . S
C1718 H1689 0.950 . S
C1718 C1717 1.334 . S
C1718 C1719 1.287 . S
C1719 C1718 1.287 . S
C1719 C1720 1.524 . S
C1719 H1722 0.999 . S
C1720 H1690 0.950 . S
C1720 C1719 1.524 . S
C1720 C1721 1.415 . S
C1721 H1691 0.950 . S
C1721 C1716 1.363 . S
C1721 C1720 1.415 . S
H1722 C1719 0.999 . S
H1723 C1704 0.913 . S
H1724 C1742 0.951 . S
H1725 C1744 0.951 . S
H1726 C1746 0.950 . S
H1727 C1747 0.950 . S
H1728 C1749 0.950 . S
H1729 C1752 0.950 . S
H1730 C1753 0.950 . S
H1731 C1755 0.950 . S
H1732 C1756 0.950 . S
H1733 C1757 0.951 . S
H1734 C1759 0.951 . S
H1735 C1761 0.950 . S
H1736 C1762 0.950 . S
H1737 C1764 0.950 . S
H1738 C1767 0.950 . S
H1739 C1768 0.950 . S
H1740 C1770 0.950 . S
H1741 C1771 0.950 . S
C1742 H1724 0.951 . S
C1742 C1743 1.366 1_455 S
C1742 C1744 1.388 . S
C1743 C1742 1.366 1_655 S
C1743 C1747 1.385 . S
C1744 H1725 0.951 . S
C1744 C1742 1.388 . S
C1744 C1745 1.366 1_455 S
C1745 C1744 1.366 1_655 S
C1745 C1746 1.414 . S
C1745 C1748 1.499 . S
C1746 H1726 0.950 . S
C1746 C1745 1.414 . S
C1746 C1747 1.374 . S
C1747 H1727 0.950 . S
C1747 C1743 1.385 . S
C1747 C1746 1.374 . S
C1748 C1745 1.499 . S
C1748 C1749 1.373 . S
C1748 C1750 1.389 1_655 S
C1749 H1728 0.950 . S
C1749 C1748 1.373 . S
C1749 C1765 1.377 . S
C1750 C1748 1.389 1_455 S
C1750 C1751 1.524 . S
C1750 C1764 1.377 . S
C1751 C1750 1.524 . S
C1751 C1752 1.397 . S
C1751 C1756 1.363 . S
C1752 H1729 0.950 . S
C1752 C1751 1.397 . S
C1752 C1753 1.334 . S
C1753 H1730 0.950 . S
C1753 C1752 1.334 . S
C1753 C1754 1.287 . S
C1754 C1753 1.287 . S
C1754 C1755 1.524 . S
C1754 H1773 0.913 . S
C1755 H1731 0.950 . S
C1755 C1754 1.524 . S
C1755 C1756 1.415 . S
C1756 H1732 0.950 . S
C1756 C1751 1.363 . S
C1756 C1755 1.415 . S
C1757 H1733 0.951 . S
C1757 C1758 1.366 . S
C1757 C1759 1.388 . S
C1758 C1757 1.366 . S
C1758 C1762 1.385 1_655 S
C1759 H1734 0.951 . S
C1759 C1757 1.388 . S
C1759 C1760 1.366 . S
C1760 C1759 1.366 . S
C1760 C1761 1.414 1_655 S
C1760 C1763 1.499 . S
C1761 H1735 0.950 . S
C1761 C1760 1.414 1_455 S
C1761 C1762 1.374 . S
C1762 H1736 0.950 . S
C1762 C1758 1.385 1_455 S
C1762 C1761 1.374 . S
C1763 C1760 1.499 . S
C1763 C1764 1.373 1_655 S
C1763 C1765 1.389 . S
C1764 H1737 0.950 . S
C1764 C1750 1.377 . S
C1764 C1763 1.373 1_455 S
C1765 C1749 1.377 . S
C1765 C1763 1.389 . S
C1765 C1766 1.524 . S
C1766 C1765 1.524 . S
C1766 C1767 1.397 . S
C1766 C1771 1.363 . S
C1767 H1738 0.950 . S
C1767 C1766 1.397 . S
C1767 C1768 1.334 . S
C1768 H1739 0.950 . S
C1768 C1767 1.334 . S
C1768 C1769 1.287 . S
C1769 C1768 1.287 . S
C1769 C1770 1.524 . S
C1769 H1772 0.999 . S
C1770 H1740 0.950 . S
C1770 C1769 1.524 . S
C1770 C1771 1.415 . S
C1771 H1741 0.950 . S
C1771 C1766 1.363 . S
C1771 C1770 1.415 . S
H1772 C1769 0.999 . S
H1773 C1754 0.913 . S
H1774 C1792 0.951 . S
H1775 C1794 0.951 . S
H1776 C1796 0.950 1_565 S
H1777 C1797 0.950 1_565 S
H1778 C1799 0.950 1_565 S
H1779 C1802 0.950 . S
H1780 C1803 0.950 . S
H1781 C1805 0.950 . S
H1782 C1806 0.950 . S
H1783 C1807 0.951 1_565 S
H1784 C1809 0.951 1_565 S
H1785 C1811 0.950 . S
H1786 C1812 0.950 . S
H1787 C1814 0.950 . S
H1788 C1817 0.950 1_545 S
H1789 C1818 0.950 . S
H1790 C1820 0.950 . S
H1791 C1821 0.950 . S
C1792 H1774 0.951 . S
C1792 C1793 1.366 . S
C1792 C1794 1.388 . S
C1793 C1792 1.366 . S
C1793 C1797 1.385 . S
C1794 H1775 0.951 . S
C1794 C1792 1.388 . S
C1794 C1795 1.366 . S
C1795 C1794 1.366 . S
C1795 C1796 1.414 . S
C1795 C1798 1.499 . S
C1796 H1776 0.950 1_545 S
C1796 C1795 1.414 . S
C1796 C1797 1.374 . S
C1797 H1777 0.950 1_545 S
C1797 C1793 1.385 . S
C1797 C1796 1.374 . S
C1798 C1795 1.499 . S
C1798 C1799 1.373 . S
C1798 C1800 1.389 . S
C1799 H1778 0.950 1_545 S
C1799 C1798 1.373 . S
C1799 C1815 1.377 . S
C1800 C1798 1.389 . S
C1800 C1801 1.524 . S
C1800 C1814 1.377 . S
C1801 C1800 1.524 . S
C1801 C1802 1.397 . S
C1801 C1806 1.363 . S
C1802 H1779 0.950 . S
C1802 C1801 1.397 . S
C1802 C1803 1.334 . S
C1803 H1780 0.950 . S
C1803 C1802 1.334 . S
C1803 C1804 1.287 . S
C1804 C1803 1.287 . S
C1804 C1805 1.524 . S
C1804 H1823 0.913 . S
C1805 H1781 0.950 . S
C1805 C1804 1.524 . S
C1805 C1806 1.415 . S
C1806 H1782 0.950 . S
C1806 C1801 1.363 . S
C1806 C1805 1.415 . S
C1807 H1783 0.951 1_545 S
C1807 C1808 1.366 . S
C1807 C1809 1.388 . S
C1808 C1807 1.366 . S
C1808 C1812 1.385 . S
C1809 H1784 0.951 1_545 S
C1809 C1807 1.388 . S
C1809 C1810 1.366 . S
C1810 C1809 1.366 . S
C1810 C1811 1.414 . S
C1810 C1813 1.499 . S
C1811 H1785 0.950 . S
C1811 C1810 1.414 . S
C1811 C1812 1.374 . S
C1812 H1786 0.950 . S
C1812 C1808 1.385 . S
C1812 C1811 1.374 . S
C1813 C1810 1.499 . S
C1813 C1814 1.373 . S
C1813 C1815 1.389 . S
C1814 H1787 0.950 . S
C1814 C1800 1.377 . S
C1814 C1813 1.373 . S
C1815 C1799 1.377 . S
C1815 C1813 1.389 . S
C1815 C1816 1.524 1_545 S
C1816 C1815 1.524 1_565 S
C1816 C1817 1.397 . S
C1816 C1821 1.363 . S
C1817 H1788 0.950 1_565 S
C1817 C1816 1.397 . S
C1817 C1818 1.334 . S
C1818 H1789 0.950 . S
C1818 C1817 1.334 . S
C1818 C1819 1.287 . S
C1819 C1818 1.287 . S
C1819 C1820 1.524 . S
C1819 H1822 0.999 . S
C1820 H1790 0.950 . S
C1820 C1819 1.524 . S
C1820 C1821 1.415 . S
C1821 H1791 0.950 . S
C1821 C1816 1.363 . S
C1821 C1820 1.415 . S
H1822 C1819 0.999 . S
H1823 C1804 0.913 . S
C243 C6 1.766 . S
C258 C104 1.737 1_554 S
C293 C20 1.941 . S
C308 C62 1.944 . S
C343 C76 1.622 . S
C358 C34 1.672 . S
C393 C48 1.907 1_545 S
C408 C90 1.832 . S
C443 C118 1.944 . S
C458 C174 1.941 . S
C493 C132 1.624 . S
C508 C202 1.673 . S
C543 C160 1.927 . S
C558 C146 1.832 . S
C593 C216 1.737 . S
C608 C188 1.766 . S
C643 C9 0.905 . S
C658 C91 0.863 . S
C693 C106 1.593 . S
C708 C22 1.593 . S
C743 C37 0.906 . S
C758 C63 0.869 . S
C793 C78 1.757 . S
C808 C49 1.662 . S
C843 C8 1.245 . S
C858 C204 1.245 . S
C893 C163 0.558 . S
C908 C21 0.604 1_455 S
C943 C190 1.245 . S
C958 C36 1.245 . S
C993 C175 0.608 . S
C1008 C51 0.557 1_556 S
C1043 C149 2.024 . S
C1058 C65 1.999 . S
C1093 C77 0.771 . S
C1108 C217 0.777 . S
C1143 C93 2.024 . S
C1158 C121 1.999 . S
C1193 C105 0.775 . S
C1208 C133 0.773 . S
C1243 C7 1.481 . S
C1258 C64 1.560 . S
C1293 C120 1.559 . S
C1308 C189 1.481 . S
C1343 C177 1.620 . S
C1358 C135 1.636 . S
C1393 C203 1.052 . S
C1408 C148 1.080 . S
C1443 C107 1.506 . S
C1458 C50 1.516 . S
C1493 C35 1.052 . S
C1508 C92 1.080 . S
C1543 C162 1.516 . S
C1558 C219 1.506 . S
C1593 C191 0.904 . S
C1608 C147 0.866 . S
C1643 C218 1.593 . S
C1658 C176 1.593 . S
C1693 C205 0.906 . S
C1708 C119 0.867 . S
C1743 C161 1.663 1_655 S
C1758 C134 1.757 . S
C1793 C23 1.620 . S
C1808 C79 1.639 . S
