# Generated by pormake.
# Topology qtz-x, (6)-cn, num edge types: 1
# Building blocks:
#     Node 0, Type 0, BuildingBlock: KUMBOL_clean_sbu_0, # of connection points: 6
#     Node 1, Type 0, BuildingBlock: KUMBOL_clean_sbu_0, # of connection points: 6
#     Node 2, Type 0, BuildingBlock: KUMBOL_clean_sbu_0, # of connection points: 6
#     Edge 3, Type (0, 0), BuildingBlock: EYOCIG_clean_linker_4, # of connection points: 2
#     Edge 4, Type (0, 0), BuildingBlock: EYOCIG_clean_linker_4, # of connection points: 2
#     Edge 5, Type (0, 0), BuildingBlock: EYOCIG_clean_linker_4, # of connection points: 2
#     Edge 6, Type (0, 0), BuildingBlock: EYOCIG_clean_linker_4, # of connection points: 2
#     Edge 7, Type (0, 0), BuildingBlock: EYOCIG_clean_linker_4, # of connection points: 2
#     Edge 8, Type (0, 0), BuildingBlock: EYOCIG_clean_linker_4, # of connection points: 2
#     Edge 9, Type (0, 0), BuildingBlock: EYOCIG_clean_linker_4, # of connection points: 2
#     Edge 10, Type (0, 0), BuildingBlock: EYOCIG_clean_linker_4, # of connection points: 2
#     Edge 11, Type (0, 0), BuildingBlock: EYOCIG_clean_linker_4, # of connection points: 2
# Relax obj value: 0.163
# Max RMSD: 0.285
# Mean RMSD: 0.285
data_MOF--net-qtz-x--node1-KUMBOL_clean_sbu_0--edge1-EYOCIG_clean_linker_4
_symmetry_space_group_name_H-M    P1
_symmetry_Int_Tables_number       1
_symmetry_cell_setting            triclinic
loop_
_symmetry_equiv_pos_as_xyz
'x, y, z'
_cell_length_a     12.146667
_cell_length_b     12.144192
_cell_length_c     41.733968
_cell_angle_alpha  90.008031
_cell_angle_beta   89.993516
_cell_angle_gamma 119.96398
loop_
_atom_site_label
_atom_site_type_symbol
_atom_site_fract_x
_atom_site_fract_y
_atom_site_fract_z
_atom_type_partial_charge
Gd0 Gd 0.8609 0.33432 0.16943 0.0
Gd1 Gd 0.15071 0.47905 0.22129 0.0
C2 C 0.54103 0.73197 0.17655 0.0
C3 C 0.6638 0.64821 0.20157 0.0
C4 C 0.43516 0.54257 0.20957 0.0
C5 C 0.4299 0.63538 0.19141 0.0
C6 C 0.55296 0.54964 0.21521 0.0
C7 C 0.65775 0.73768 0.18172 0.0
C8 C 0.53209 0.82076 0.15711 0.0
C9 C 0.41467 0.81259 0.1529 0.0
N10 N 0.31663 0.631 0.18811 0.0
C11 C 0.30785 0.71738 0.16863 0.0
H12 H 0.21888 0.7134 0.16415 0.0
C13 C 0.32855 0.35317 0.2399 0.0
N14 N 0.32593 0.44624 0.22194 0.0
C15 C 0.44361 0.3573 0.24634 0.0
C16 C 0.55631 0.45664 0.23414 0.0
H17 H 0.24364 0.2814 0.25173 0.0
H18 H 0.74371 0.81104 0.17053 0.0
H19 H 0.78843 0.09262 0.22513 0.0
H20 H 0.61501 0.89549 0.14516 0.0
H21 H 0.40634 0.88023 0.13767 0.0
H22 H 0.75372 0.65312 0.20563 0.0
H23 H 0.76297 0.52251 0.13679 0.0
H24 H 0.39212 0.90891 0.24342 0.0
H25 H 0.60036 0.9231 0.25047 0.0
H26 H 0.25369 0.15378 0.18428 0.0
H27 H 0.44547 0.28534 0.26125 0.0
H28 H 0.64521 0.45963 0.23887 0.0
H29 H 0.26402 0.99495 0.2189 0.0
H30 H 0.56064 0.51891 0.12749 0.0
N31 N 0.69236 0.17879 0.20204 0.0
C32 C 0.47543 0.98501 0.23193 0.0
C33 C 0.59261 0.99265 0.23589 0.0
C34 C 0.46709 0.07572 0.21319 0.0
C35 C 0.57876 0.17407 0.19885 0.0
C36 C 0.69998 0.08973 0.22076 0.0
N37 N 0.68239 0.36283 0.16822 0.0
C38 C 0.5733 0.26708 0.18091 0.0
C39 C 0.56306 0.4481 0.14274 0.0
C40 C 0.45092 0.35124 0.15592 0.0
C41 C 0.67813 0.45156 0.1488 0.0
C42 C 0.45492 0.25912 0.17511 0.0
H43 H 0.36184 0.34831 0.15122 0.0
O44 O 0.83729 0.34991 0.11887 0.0
O45 O 0.06952 0.40313 0.17274 0.0
O46 O 0.09521 0.62742 0.20974 0.0
O47 O 0.9001 0.5318 0.18181 0.0
O48 O 0.00863 0.45771 0.13296 0.0
O49 O 0.75909 0.16192 0.14083 0.0
O50 O 0.15937 0.46395 0.27298 0.0
O51 O 0.94509 0.40868 0.21614 0.0
O52 O 0.91538 0.18557 0.18058 0.0
O53 O 0.1083 0.27995 0.20936 0.0
O54 O -0.00198 0.34913 0.256 0.0
O55 O 0.25892 0.64936 0.25165 0.0
C56 C 0.10488 0.45755 0.14586 0.0
C57 C 0.34397 0.15959 0.18849 0.0
C58 C 0.35014 0.06952 0.20804 0.0
C59 C 0.77428 0.22716 0.11469 0.0
C60 C 0.67376 0.17908 0.09053 0.0
C61 C 0.57059 0.20093 0.09164 0.0
C62 C 0.69988 0.13523 0.06233 0.0
C63 C 0.63241 0.12504 0.03452 0.0
C64 C 0.4979 0.18377 0.06409 0.0
C65 C 0.53021 0.14801 0.03531 0.0
C66 C -0.00063 0.63026 0.19527 0.0
C67 C 0.90416 0.34955 0.24174 0.0
C68 C 0.2317 0.58505 0.27841 0.0
C69 C 0.33241 0.62036 0.3037 0.0
C70 C 0.39815 0.55298 0.30526 0.0
C71 C 0.35257 0.70784 0.32894 0.0
C72 C 0.43778 0.72508 0.35451 0.0
C73 C 0.48289 0.57161 0.32985 0.0
C74 C 0.5027 0.65699 0.35426 0.0
C75 C 0.00981 0.18203 0.19551 0.0
H76 H 0.54901 0.23503 0.11313 0.0
H77 H 0.78325 0.12428 0.06105 0.0
H78 H 0.4211 0.20477 0.06462 0.0
H79 H 0.48042 0.14517 1.0135 0.0
H80 H 0.38052 0.48145 0.28823 0.0
H81 H 0.30041 0.75869 0.32913 0.0
H82 H 0.5313 0.51711 0.33037 0.0
H83 H 0.56775 0.66817 0.37344 0.0
Gd84 Gd 0.85951 0.32603 0.50269 0.0
Gd85 Gd 0.71448 0.03619 0.5545 0.0
C86 C 0.57656 0.64558 0.50979 0.0
C87 C 0.37011 0.52314 0.53482 0.0
C88 C 0.49336 0.75181 0.54283 0.0
C89 C 0.59126 0.75683 0.52465 0.0
C90 C 0.38258 0.63412 0.54847 0.0
C91 C 0.46551 0.52897 0.51496 0.0
C92 C 0.67415 0.65429 0.49033 0.0
C93 C 0.7834 0.77161 0.48611 0.0
N94 N 0.70017 0.87 0.52133 0.0
C95 C 0.79515 0.87857 0.50183 0.0
H96 H 0.8801 0.96747 0.49731 0.0
C97 C 0.41097 0.85877 0.57321 0.0
N98 N 0.50647 0.86116 0.55522 0.0
C99 C 0.30002 0.74384 0.57966 0.0
C100 C 0.2864 0.63102 0.56742 0.0
H101 H 0.42428 0.9438 0.58505 0.0
H102 H 0.45279 0.44293 0.50375 0.0
H103 H 0.69041 0.39811 0.55853 0.0
H104 H 0.66584 0.57126 0.47838 0.0
H105 H 0.85925 0.77978 0.47086 0.0
H106 H 0.28507 0.43327 0.53887 0.0
H107 H 0.1455 0.42418 0.46999 0.0
H108 H 0.90241 0.79448 0.57687 0.0
H109 H 0.70866 0.58611 0.58391 0.0
H110 H 0.28555 0.93325 0.5177 0.0
H111 H 0.22634 0.74216 0.59458 0.0
H112 H 0.20044 0.54222 0.57214 0.0
H113 H 0.11642 0.92276 0.55235 0.0
H114 H 0.34397 0.62662 0.46071 0.0
N115 N 0.8724 0.49441 0.53537 0.0
C116 C 0.89529 0.71122 0.56534 0.0
C117 C 0.78593 0.59397 0.5693 0.0
C118 C -0.00569 0.71967 0.54657 0.0
C119 C 0.9811 0.60807 0.53218 0.0
C120 C 0.77579 0.48664 0.55414 0.0
N121 N 0.06629 0.50461 0.50146 0.0
C122 C 0.07951 0.61366 0.51418 0.0
C123 C 0.27074 0.62411 0.47598 0.0
C124 C 0.28589 0.7362 0.4892 0.0
C125 C 0.15928 0.50898 0.48201 0.0
C126 C 0.1898 0.73209 0.50842 0.0
H127 H 0.37195 0.82533 0.48452 0.0
O128 O 0.89892 0.34974 0.45215 0.0
O129 O 0.71977 0.11747 0.50599 0.0
O130 O 0.9182 0.09139 0.54286 0.0
O131 O 0.01767 0.28654 0.51494 0.0
O132 O 0.8347 0.17825 0.46613 0.0
O133 O 0.78891 0.42792 0.4741 0.0
O134 O 0.69082 0.02765 0.60618 0.0
O135 O 0.84998 0.24172 0.54937 0.0
O136 O 0.6564 0.27179 0.51382 0.0
O137 O 0.55784 0.07866 0.54252 0.0
O138 O 0.73743 0.18909 0.58919 0.0
O139 O 0.77668 0.92799 0.58484 0.0
C140 C 0.73855 0.08201 0.47909 0.0
C141 C 0.20114 0.84296 0.52187 0.0
C142 C 0.10493 0.83668 0.54145 0.0
C143 C 0.83894 0.41256 0.44797 0.0
C144 C 0.89053 0.51246 0.42367 0.0
C145 C 0.01562 0.61541 0.42443 0.0
C146 C 0.81958 0.4855 0.39563 0.0
C147 C 0.87591 0.55178 0.36762 0.0
C148 C 0.07018 0.68708 0.39669 0.0
C149 C 0.00112 0.65381 0.36806 0.0
C150 C 0.01683 0.18715 0.52836 0.0
C151 C 0.83209 0.28275 0.575 0.0
C152 C 0.73963 0.95529 0.6116 0.0
C153 C 0.67439 0.85464 0.63689 0.0
C154 C 0.54137 0.78923 0.63856 0.0
C155 C 0.74185 0.83423 0.66204 0.0
C156 C 0.67411 0.74909 0.68763 0.0
C157 C 0.47548 0.70454 0.66318 0.0
C158 C 0.5412 0.68449 0.68749 0.0
C159 C 0.55839 0.17725 0.5287 0.0
H160 H 0.07209 0.63749 0.4458 0.0
H161 H 0.72522 0.4022 0.39462 0.0
H162 H 0.16798 0.76373 0.39693 0.0
H163 H 0.04732 0.70272 0.34609 0.0
H164 H 0.48739 0.80709 0.6216 0.0
H165 H 0.8448 0.88617 0.66215 0.0
H166 H 0.37266 0.65638 0.66378 0.0
H167 H 0.48751 0.6195 0.7067 0.0
Gd168 Gd 0.85181 0.32775 0.83598 0.0
Gd169 Gd 0.70726 0.47277 0.88784 0.0
C170 C 0.45449 0.61079 0.84319 0.0
C171 C 0.53837 0.81723 0.86825 0.0
C172 C 0.64382 0.69391 0.87621 0.0
C173 C 0.55099 0.59601 0.85803 0.0
C174 C 0.63685 0.80471 0.88188 0.0
C175 C 0.44888 0.72187 0.84838 0.0
C176 C 0.36567 0.51324 0.82373 0.0
C177 C 0.37372 0.40391 0.8195 0.0
N178 N 0.55525 0.48702 0.85472 0.0
C179 C 0.46882 0.39204 0.83522 0.0
H180 H 0.47268 0.30698 0.8307 0.0
C181 C 0.83312 0.77628 0.90657 0.0
N182 N 0.74007 0.68078 0.88858 0.0
C183 C 0.82908 0.88726 0.91303 0.0
C184 C 0.72986 0.90088 0.90083 0.0
H185 H 0.90484 0.76296 0.91839 0.0
H186 H 0.3756 0.73465 0.83719 0.0
H187 H 0.09325 0.49697 0.89167 0.0
H188 H 0.29102 0.52165 0.81178 0.0
H189 H 0.30606 0.32808 0.80425 0.0
H190 H 0.53349 0.90227 0.87233 0.0
H191 H 0.66402 0.04194 0.80325 0.0
H192 H 0.27716 0.2844 0.91004 0.0
H193 H 0.26289 0.47851 0.91702 0.0
H194 H 0.03228 0.90094 0.85101 0.0
H195 H 0.90104 0.96094 0.92795 0.0
H196 H 0.72696 0.98685 0.90556 0.0
H197 H 0.19107 0.0701 0.8856 0.0
H198 H 0.66758 0.84307 0.79403 0.0
N199 N 0.00723 0.31472 0.86862 0.0
C200 C 0.20103 0.29159 0.89854 0.0
C201 C 0.19335 0.40116 0.90246 0.0
C202 C 0.11034 0.19251 0.87983 0.0
C203 C 0.01201 0.20584 0.86545 0.0
C204 C 0.09623 0.41143 0.88732 0.0
N205 N 0.82348 0.12087 0.83474 0.0
C206 C 0.9191 0.10741 0.84749 0.0
C207 C 0.7383 0.91627 0.8093 0.0
C208 C 0.83505 0.90088 0.82253 0.0
C209 C 0.73487 0.02795 0.8153 0.0
C210 C 0.92707 -0.00305 0.84174 0.0
H211 H 0.83798 0.81467 0.81786 0.0
O212 O 0.83661 0.28902 0.78539 0.0
O213 O 0.78312 0.46767 0.83927 0.0
O214 O 0.55873 0.26905 0.87621 0.0
O215 O 0.65446 0.16945 0.84834 0.0
O216 O 0.7272 0.35101 0.79968 0.0
O217 O 0.02434 0.39871 0.80743 0.0
O218 O 0.72253 0.49635 0.93953 0.0
O219 O 0.77732 0.33723 0.8827 0.0
O220 O 0.00057 0.53097 0.84705 0.0
O221 O 0.90627 0.62951 0.87588 0.0
O222 O 0.8374 0.44997 0.92248 0.0
O223 O 0.53708 0.41075 0.91824 0.0
C224 C 0.72812 0.44804 0.81245 0.0
C225 C 0.02652 0.98547 0.85517 0.0
C226 C 0.11654 0.0817 0.87472 0.0
C227 C 0.95936 0.34885 0.78126 0.0
C228 C 0.0077 0.29636 0.75717 0.0
C229 C 0.98592 0.17139 0.75834 0.0
C230 C 0.05179 0.3662 0.72897 0.0
C231 C 0.0622 0.30878 0.7012 0.0
C232 C 0.00328 0.11571 0.73084 0.0
C233 C 0.03923 0.18362 0.70205 0.0
C234 C 0.55589 0.17032 0.86174 0.0
C235 C 0.83637 0.35521 0.9083 0.0
C236 C 0.60148 0.44767 0.94499 0.0
C237 C 0.56626 0.51301 0.97033 0.0
C238 C 0.63387 0.64606 0.97199 0.0
C239 C 0.47865 0.44566 0.99553 0.0
C240 C 0.46144 0.51353 1.02115 0.0
C241 C 0.61523 0.71207 0.99661 0.0
C242 C 0.52968 0.64647 1.02097 0.0
C243 C 0.00418 0.629 0.86197 0.0
H244 H 0.95167 0.11583 0.77983 0.0
H245 H 0.06274 0.46052 0.72764 0.0
H246 H 0.98226 0.01792 0.73141 0.0
H247 H 0.04218 0.13653 0.68026 0.0
H248 H 0.7056 0.69995 0.95501 0.0
H249 H 0.42768 0.34269 0.99566 0.0
H250 H 0.66987 0.81492 0.9972 0.0
H251 H 0.51851 0.70027 0.04018 0.0
C252 C 0.00321 0.84788 0.19542 0.0
C253 C 0.00177 0.74851 0.1954 0.0
C254 C 0.00349 0.96324 0.19568 0.0
C255 C 0.0063 0.06326 0.19559 0.0
C256 C 0.34579 0.18328 0.52876 0.0
C257 C 0.44309 0.18066 0.52871 0.0
C258 C 0.2306 0.18332 0.52848 0.0
C259 C 0.13265 0.1847 0.52848 0.0
C260 C 0.22289 0.84153 0.862 0.0
C261 C 0.12292 0.7443 0.86197 0.0
C262 C 0.33822 0.95664 0.86173 0.0
C263 C 0.43758 0.05453 0.86179 0.0
C264 C 0.32137 0.43965 0.0739 0.0
C265 C 0.37848 0.45499 0.04875 0.0
C266 C 0.25789 0.44208 0.10267 0.0
C267 C 0.19492 0.44653 0.12488 0.0
C268 C 0.7743 0.44772 0.31238 0.0
C269 C 0.81757 0.4926 0.33802 0.0
C270 C 0.7712 0.39333 0.28267 0.0
C271 C 0.81765 0.36992 0.26029 0.0
C272 C 0.74502 0.61641 0.76906 0.0
C273 C 0.73997 0.54892 0.7913 0.0
C274 C 0.74796 0.68251 0.7403 0.0
C275 C 0.73277 0.72451 0.71518 0.0
C276 C 0.78983 0.17817 0.94937 0.0
C277 C 0.81445 0.24808 0.92696 0.0
C278 C 0.73498 0.12715 0.97906 0.0
C279 C 0.69044 0.1258 1.00474 0.0
C280 C 0.5039 0.86502 0.40729 0.0
C281 C 0.46214 0.80794 0.38214 0.0
C282 C 0.56988 0.9286 0.43603 0.0
C283 C 0.63741 0.99175 0.45819 0.0
C284 C 0.06029 0.40913 0.64571 0.0
C285 C 0.06152 0.36589 0.67139 0.0
C286 C 0.00927 0.41308 0.61603 0.0
C287 C 0.93927 0.36787 0.59363 0.0
loop_
_geom_bond_atom_site_label_1
_geom_bond_atom_site_label_2
_geom_bond_distance
_geom_bond_site_symmetry_2
_ccdc_geom_bond_type
Gd0 N31 2.661 . S
Gd0 N37 2.601 . S
Gd0 O44 2.545 . S
Gd0 O45 2.606 1_655 S
Gd0 O47 2.429 . S
Gd0 O48 2.545 . S
Gd0 O49 2.412 . S
Gd0 O51 2.362 . S
Gd0 O52 2.324 . S
Gd0 C59 2.828 . S
Gd1 N10 2.661 . S
Gd1 N14 2.601 . S
Gd1 O45 2.362 . S
Gd1 O46 2.324 . S
Gd1 O50 2.545 . S
Gd1 O51 2.606 1_455 S
Gd1 O53 2.429 . S
Gd1 O54 2.545 . S
Gd1 O55 2.412 . S
Gd1 C68 2.828 . S
C2 C5 1.417 . S
C2 C7 1.431 . S
C2 C8 1.412 . S
C3 C6 1.437 . S
C3 C7 1.317 . S
C3 H22 0.929 . S
C4 C5 1.426 . S
C4 C6 1.413 . S
C4 N14 1.359 . S
C5 C2 1.417 . S
C5 C4 1.426 . S
C5 N10 1.350 . S
C6 C3 1.437 . S
C6 C4 1.413 . S
C6 C16 1.391 . S
C7 C2 1.431 . S
C7 C3 1.317 . S
C7 H18 0.930 . S
C8 C2 1.412 . S
C8 C9 1.355 . S
C8 H20 0.930 . S
C9 C8 1.355 . S
C9 C11 1.402 . S
C9 H21 0.930 . S
N10 Gd1 2.661 . S
N10 C5 1.350 . S
N10 C11 1.307 . S
C11 C9 1.402 . S
C11 N10 1.307 . S
C11 H12 0.930 . S
H12 C11 0.930 . S
C13 N14 1.334 . S
C13 C15 1.394 . S
C13 H17 0.930 . S
N14 Gd1 2.601 . S
N14 C4 1.359 . S
N14 C13 1.334 . S
C15 C13 1.394 . S
C15 C16 1.359 . S
C15 H27 0.930 . S
C16 C6 1.391 . S
C16 C15 1.359 . S
C16 H28 0.929 . S
H17 C13 0.930 . S
H18 C7 0.930 . S
H19 C36 0.930 . S
H20 C8 0.930 . S
H21 C9 0.930 . S
H22 C3 0.929 . S
H23 C41 0.930 . S
H24 C32 0.930 . S
H25 C33 0.930 . S
H26 C57 0.929 . S
H27 C15 0.930 . S
H28 C16 0.929 . S
H29 C58 0.930 . S
H30 C39 0.930 . S
N31 Gd0 2.661 . S
N31 C35 1.350 . S
N31 C36 1.307 . S
C32 H24 0.930 . S
C32 C33 1.355 . S
C32 C34 1.412 1_565 S
C33 H25 0.930 . S
C33 C32 1.355 . S
C33 C36 1.402 1_565 S
C34 C32 1.412 1_545 S
C34 C35 1.417 . S
C34 C58 1.431 . S
C35 N31 1.350 . S
C35 C34 1.417 . S
C35 C38 1.426 . S
C36 H19 0.930 . S
C36 N31 1.307 . S
C36 C33 1.402 1_545 S
N37 Gd0 2.601 . S
N37 C38 1.359 . S
N37 C41 1.334 . S
C38 C35 1.426 . S
C38 N37 1.359 . S
C38 C42 1.413 . S
C39 H30 0.930 . S
C39 C40 1.359 . S
C39 C41 1.394 . S
C40 C39 1.359 . S
C40 C42 1.391 . S
C40 H43 0.929 . S
C41 H23 0.930 . S
C41 N37 1.334 . S
C41 C39 1.394 . S
C42 C38 1.413 . S
C42 C40 1.391 . S
C42 C57 1.437 . S
H43 C40 0.929 . S
O44 Gd0 2.545 . S
O44 C59 1.258 . S
O45 Gd0 2.606 1_455 S
O45 Gd1 2.362 . S
O45 C56 1.284 . S
O46 Gd1 2.324 . S
O46 C66 1.254 . S
O47 Gd0 2.429 . S
O47 C66 1.268 1_655 S
O48 Gd0 2.545 . S
O48 C56 1.250 1_655 S
O49 Gd0 2.412 . S
O49 C59 1.252 . S
O50 Gd1 2.545 . S
O50 C68 1.258 . S
O51 Gd0 2.362 . S
O51 Gd1 2.606 1_655 S
O51 C67 1.284 . S
O52 Gd0 2.324 . S
O52 C75 1.254 . S
O53 Gd1 2.429 . S
O53 C75 1.268 1_455 S
O54 Gd1 2.545 . S
O54 C67 1.250 1_455 S
O55 Gd1 2.412 . S
O55 C68 1.252 . S
C56 O45 1.284 . S
C56 O48 1.250 1_455 S
C57 H26 0.929 . S
C57 C42 1.437 . S
C57 C58 1.317 . S
C58 H29 0.930 . S
C58 C34 1.431 . S
C58 C57 1.317 . S
C59 Gd0 2.828 . S
C59 O44 1.258 . S
C59 O49 1.252 . S
C59 C60 1.497 . S
C60 C59 1.497 . S
C60 C61 1.395 . S
C60 C62 1.380 . S
C61 C60 1.395 . S
C61 C64 1.398 . S
C61 H76 0.930 . S
C62 C60 1.380 . S
C62 C63 1.391 . S
C62 H77 0.930 . S
C63 C62 1.391 . S
C63 C65 1.387 . S
C64 C61 1.398 . S
C64 C65 1.380 . S
C64 H78 0.930 . S
C65 C63 1.387 . S
C65 C64 1.380 . S
C65 H79 0.930 1_554 S
C66 O46 1.254 . S
C66 O47 1.268 1_455 S
C67 O51 1.284 . S
C67 O54 1.250 1_655 S
C68 Gd1 2.828 . S
C68 O50 1.258 . S
C68 O55 1.252 . S
C68 C69 1.497 . S
C69 C68 1.497 . S
C69 C70 1.395 . S
C69 C71 1.380 . S
C70 C69 1.395 . S
C70 C73 1.398 . S
C70 H80 0.930 . S
C71 C69 1.380 . S
C71 C72 1.391 . S
C71 H81 0.930 . S
C72 C71 1.391 . S
C72 C74 1.387 . S
C73 C70 1.398 . S
C73 C74 1.380 . S
C73 H82 0.930 . S
C74 C72 1.387 . S
C74 C73 1.380 . S
C74 H83 0.930 . S
C75 O52 1.254 . S
C75 O53 1.268 1_655 S
H76 C61 0.930 . S
H77 C62 0.930 . S
H78 C64 0.930 . S
H79 C65 0.930 1_556 S
H80 C70 0.930 . S
H81 C71 0.930 . S
H82 C73 0.930 . S
H83 C74 0.930 . S
Gd84 N115 2.661 . S
Gd84 N121 2.601 1_655 S
Gd84 O128 2.545 1_655 S
Gd84 O129 2.606 . S
Gd84 O131 2.429 1_655 S
Gd84 O132 2.545 . S
Gd84 O133 2.412 . S
Gd84 O135 2.362 . S
Gd84 O136 2.324 . S
Gd84 C143 2.828 . S
Gd85 N94 2.661 1_545 S
Gd85 N98 2.601 1_545 S
Gd85 O129 2.362 . S
Gd85 O130 2.324 . S
Gd85 O134 2.545 1_545 S
Gd85 O135 2.606 . S
Gd85 O137 2.429 . S
Gd85 O138 2.545 . S
Gd85 O139 2.412 1_545 S
Gd85 C152 2.828 1_545 S
C86 C89 1.417 . S
C86 C91 1.431 . S
C86 C92 1.412 . S
C87 C90 1.437 . S
C87 C91 1.317 . S
C87 H106 0.929 . S
C88 C89 1.426 . S
C88 C90 1.413 . S
C88 N98 1.359 . S
C89 C86 1.417 . S
C89 C88 1.426 . S
C89 N94 1.350 . S
C90 C87 1.437 . S
C90 C88 1.413 . S
C90 C100 1.391 . S
C91 C86 1.431 . S
C91 C87 1.317 . S
C91 H102 0.930 . S
C92 C86 1.412 . S
C92 C93 1.355 . S
C92 H104 0.930 . S
C93 C92 1.355 . S
C93 C95 1.402 . S
C93 H105 0.930 . S
N94 Gd85 2.661 1_565 S
N94 C89 1.350 . S
N94 C95 1.307 . S
C95 C93 1.402 . S
C95 N94 1.307 . S
C95 H96 0.930 . S
H96 C95 0.930 . S
C97 N98 1.334 . S
C97 C99 1.394 . S
C97 H101 0.930 . S
N98 Gd85 2.601 1_565 S
N98 C88 1.359 . S
N98 C97 1.334 . S
C99 C97 1.394 . S
C99 C100 1.359 . S
C99 H111 0.930 . S
C100 C90 1.391 . S
C100 C99 1.359 . S
C100 H112 0.929 . S
H101 C97 0.930 . S
H102 C91 0.930 . S
H103 C120 0.930 . S
H104 C92 0.930 . S
H105 C93 0.930 . S
H106 C87 0.929 . S
H107 C125 0.930 . S
H108 C116 0.930 . S
H109 C117 0.930 . S
H110 C141 0.929 . S
H111 C99 0.930 . S
H112 C100 0.929 . S
H113 C142 0.930 . S
H114 C123 0.930 . S
N115 Gd84 2.661 . S
N115 C119 1.350 1_655 S
N115 C120 1.307 . S
C116 H108 0.930 . S
C116 C117 1.355 . S
C116 C118 1.412 1_655 S
C117 H109 0.930 . S
C117 C116 1.355 . S
C117 C120 1.402 . S
C118 C116 1.412 1_455 S
C118 C119 1.417 . S
C118 C142 1.431 . S
C119 N115 1.350 1_455 S
C119 C118 1.417 . S
C119 C122 1.426 . S
C120 H103 0.930 . S
C120 N115 1.307 . S
C120 C117 1.402 . S
N121 Gd84 2.601 1_455 S
N121 C122 1.359 . S
N121 C125 1.334 . S
C122 C119 1.426 . S
C122 N121 1.359 . S
C122 C126 1.413 . S
C123 H114 0.930 . S
C123 C124 1.359 . S
C123 C125 1.394 . S
C124 C123 1.359 . S
C124 C126 1.391 . S
C124 H127 0.929 . S
C125 H107 0.930 . S
C125 N121 1.334 . S
C125 C123 1.394 . S
C126 C122 1.413 . S
C126 C124 1.391 . S
C126 C141 1.437 . S
H127 C124 0.929 . S
O128 Gd84 2.545 1_455 S
O128 C143 1.258 1_455 S
O129 Gd84 2.606 . S
O129 Gd85 2.362 . S
O129 C140 1.284 . S
O130 Gd85 2.324 . S
O130 C150 1.254 1_655 S
O131 Gd84 2.429 1_455 S
O131 C150 1.268 . S
O132 Gd84 2.545 . S
O132 C140 1.250 . S
O133 Gd84 2.412 . S
O133 C143 1.252 . S
O134 Gd85 2.545 1_565 S
O134 C152 1.258 . S
O135 Gd84 2.362 . S
O135 Gd85 2.606 . S
O135 C151 1.284 . S
O136 Gd84 2.324 . S
O136 C159 1.254 . S
O137 Gd85 2.429 . S
O137 C159 1.268 . S
O138 Gd85 2.545 . S
O138 C151 1.250 . S
O139 Gd85 2.412 1_565 S
O139 C152 1.252 . S
C140 O129 1.284 . S
C140 O132 1.250 . S
C141 H110 0.929 . S
C141 C126 1.437 . S
C141 C142 1.317 . S
C142 H113 0.930 . S
C142 C118 1.431 . S
C142 C141 1.317 . S
C143 Gd84 2.828 . S
C143 O128 1.258 1_655 S
C143 O133 1.252 . S
C143 C144 1.497 . S
C144 C143 1.497 . S
C144 C145 1.395 1_655 S
C144 C146 1.380 . S
C145 C144 1.395 1_455 S
C145 C148 1.398 . S
C145 H160 0.930 . S
C146 C144 1.380 . S
C146 C147 1.391 . S
C146 H161 0.930 . S
C147 C146 1.391 . S
C147 C149 1.387 . S
C148 C145 1.398 . S
C148 C149 1.380 1_455 S
C148 H162 0.930 . S
C149 C147 1.387 . S
C149 C148 1.380 1_655 S
C149 H163 0.930 1_655 S
C150 O130 1.254 1_455 S
C150 O131 1.268 . S
C151 O135 1.284 . S
C151 O138 1.250 . S
C152 Gd85 2.828 1_565 S
C152 O134 1.258 . S
C152 O139 1.252 . S
C152 C153 1.497 . S
C153 C152 1.497 . S
C153 C154 1.395 . S
C153 C155 1.380 . S
C154 C153 1.395 . S
C154 C157 1.398 . S
C154 H164 0.930 . S
C155 C153 1.380 . S
C155 C156 1.391 . S
C155 H165 0.930 . S
C156 C155 1.391 . S
C156 C158 1.387 . S
C157 C154 1.398 . S
C157 C158 1.380 . S
C157 H166 0.930 . S
C158 C156 1.387 . S
C158 C157 1.380 . S
C158 H167 0.930 . S
C159 O136 1.254 . S
C159 O137 1.268 . S
H160 C145 0.930 . S
H161 C146 0.930 . S
H162 C148 0.930 . S
H163 C149 0.930 1_455 S
H164 C154 0.930 . S
H165 C155 0.930 . S
H166 C157 0.930 . S
H167 C158 0.930 . S
Gd168 N199 2.661 1_655 S
Gd168 N205 2.601 . S
Gd168 O212 2.545 . S
Gd168 O213 2.606 . S
Gd168 O215 2.429 . S
Gd168 O216 2.545 . S
Gd168 O217 2.412 1_655 S
Gd168 O219 2.362 . S
Gd168 O220 2.324 1_655 S
Gd168 C227 2.828 . S
Gd169 N178 2.661 . S
Gd169 N182 2.601 . S
Gd169 O213 2.362 . S
Gd169 O214 2.324 . S
Gd169 O218 2.545 . S
Gd169 O219 2.606 . S
Gd169 O221 2.429 . S
Gd169 O222 2.545 . S
Gd169 O223 2.412 . S
Gd169 C236 2.828 . S
C170 C173 1.417 . S
C170 C175 1.431 . S
C170 C176 1.412 . S
C171 C174 1.437 . S
C171 C175 1.317 . S
C171 H190 0.929 . S
C172 C173 1.426 . S
C172 C174 1.413 . S
C172 N182 1.359 . S
C173 C170 1.417 . S
C173 C172 1.426 . S
C173 N178 1.350 . S
C174 C171 1.437 . S
C174 C172 1.413 . S
C174 C184 1.391 . S
C175 C170 1.431 . S
C175 C171 1.317 . S
C175 H186 0.930 . S
C176 C170 1.412 . S
C176 C177 1.355 . S
C176 H188 0.930 . S
C177 C176 1.355 . S
C177 C179 1.402 . S
C177 H189 0.930 . S
N178 Gd169 2.661 . S
N178 C173 1.350 . S
N178 C179 1.307 . S
C179 C177 1.402 . S
C179 N178 1.307 . S
C179 H180 0.930 . S
H180 C179 0.930 . S
C181 N182 1.334 . S
C181 C183 1.394 . S
C181 H185 0.930 . S
N182 Gd169 2.601 . S
N182 C172 1.359 . S
N182 C181 1.334 . S
C183 C181 1.394 . S
C183 C184 1.359 . S
C183 H195 0.930 1_565 S
C184 C174 1.391 . S
C184 C183 1.359 . S
C184 H196 0.929 1_565 S
H185 C181 0.930 . S
H186 C175 0.930 . S
H187 C204 0.930 . S
H188 C176 0.930 . S
H189 C177 0.930 . S
H190 C171 0.929 . S
H191 C209 0.930 . S
H192 C200 0.930 . S
H193 C201 0.930 . S
H194 C225 0.929 . S
H195 C183 0.930 1_545 S
H196 C184 0.929 1_545 S
H197 C226 0.930 . S
H198 C207 0.930 . S
N199 Gd168 2.661 1_455 S
N199 C203 1.350 . S
N199 C204 1.307 . S
C200 H192 0.930 . S
C200 C201 1.355 . S
C200 C202 1.412 . S
C201 H193 0.930 . S
C201 C200 1.355 . S
C201 C204 1.402 . S
C202 C200 1.412 . S
C202 C203 1.417 . S
C202 C226 1.431 . S
C203 N199 1.350 . S
C203 C202 1.417 . S
C203 C206 1.426 1_455 S
C204 H187 0.930 . S
C204 N199 1.307 . S
C204 C201 1.402 . S
N205 Gd168 2.601 . S
N205 C206 1.359 . S
N205 C209 1.334 1_545 S
C206 C203 1.426 1_655 S
C206 N205 1.359 . S
C206 C210 1.413 1_545 S
C207 H198 0.930 . S
C207 C208 1.359 . S
C207 C209 1.394 . S
C208 C207 1.359 . S
C208 C210 1.391 . S
C208 H211 0.929 . S
C209 H191 0.930 . S
C209 N205 1.334 1_565 S
C209 C207 1.394 . S
C210 C206 1.413 1_565 S
C210 C208 1.391 . S
C210 C225 1.437 . S
H211 C208 0.929 . S
O212 Gd168 2.545 . S
O212 C227 1.258 . S
O213 Gd168 2.606 . S
O213 Gd169 2.362 . S
O213 C224 1.284 . S
O214 Gd169 2.324 . S
O214 C234 1.254 . S
O215 Gd168 2.429 . S
O215 C234 1.268 . S
O216 Gd168 2.545 . S
O216 C224 1.250 . S
O217 Gd168 2.412 1_455 S
O217 C227 1.252 1_455 S
O218 Gd169 2.545 . S
O218 C236 1.258 . S
O219 Gd168 2.362 . S
O219 Gd169 2.606 . S
O219 C235 1.284 . S
O220 Gd168 2.324 1_455 S
O220 C243 1.254 . S
O221 Gd169 2.429 . S
O221 C243 1.268 1_655 S
O222 Gd169 2.545 . S
O222 C235 1.250 . S
O223 Gd169 2.412 . S
O223 C236 1.252 . S
C224 O213 1.284 . S
C224 O216 1.250 . S
C225 H194 0.929 . S
C225 C210 1.437 . S
C225 C226 1.317 1_665 S
C226 H197 0.930 . S
C226 C202 1.431 . S
C226 C225 1.317 1_445 S
C227 Gd168 2.828 . S
C227 O212 1.258 . S
C227 O217 1.252 1_655 S
C227 C228 1.497 . S
C228 C227 1.497 . S
C228 C229 1.395 . S
C228 C230 1.380 1_655 S
C229 C228 1.395 . S
C229 C232 1.398 . S
C229 H244 0.930 . S
C230 C228 1.380 1_455 S
C230 C231 1.391 . S
C230 H245 0.930 . S
C231 C230 1.391 . S
C231 C233 1.387 . S
C232 C229 1.398 . S
C232 C233 1.380 1_655 S
C232 H246 0.930 . S
C233 C231 1.387 . S
C233 C232 1.380 1_455 S
C233 H247 0.930 . S
C234 O214 1.254 . S
C234 O215 1.268 . S
C235 O219 1.284 . S
C235 O222 1.250 . S
C236 Gd169 2.828 . S
C236 O218 1.258 . S
C236 O223 1.252 . S
C236 C237 1.497 . S
C237 C236 1.497 . S
C237 C238 1.395 . S
C237 C239 1.380 . S
C238 C237 1.395 . S
C238 C241 1.398 . S
C238 H248 0.930 . S
C239 C237 1.380 . S
C239 C240 1.391 . S
C239 H249 0.930 . S
C240 C239 1.391 . S
C240 C242 1.387 . S
C241 C238 1.398 . S
C241 C242 1.380 . S
C241 H250 0.930 . S
C242 C240 1.387 . S
C242 C241 1.380 . S
C242 H251 0.930 1_556 S
C243 O220 1.254 . S
C243 O221 1.268 1_455 S
H244 C229 0.930 . S
H245 C230 0.930 . S
H246 C232 0.930 . S
H247 C233 0.930 . S
H248 C238 0.930 . S
H249 C239 0.930 . S
H250 C241 0.930 . S
H251 C242 0.930 1_554 S
C252 C253 1.170 1_655 S
C252 C254 1.380 . S
C253 C252 1.170 1_455 S
C254 C252 1.380 . S
C254 C255 1.170 1_565 S
C255 C254 1.170 1_545 S
C256 C257 1.170 . S
C256 C258 1.380 . S
C257 C256 1.170 . S
C258 C256 1.380 . S
C258 C259 1.170 . S
C259 C258 1.170 . S
C260 C261 1.170 . S
C260 C262 1.380 . S
C261 C260 1.170 . S
C262 C260 1.380 . S
C262 C263 1.170 1_565 S
C263 C262 1.170 1_545 S
C264 C265 1.170 . S
C264 C266 1.380 . S
C265 C264 1.170 . S
C266 C264 1.380 . S
C266 C267 1.170 . S
C267 C266 1.170 . S
C268 C269 1.170 . S
C268 C270 1.380 . S
C269 C268 1.170 . S
C270 C268 1.380 . S
C270 C271 1.170 . S
C271 C270 1.170 . S
C272 C273 1.170 . S
C272 C274 1.380 . S
C273 C272 1.170 . S
C274 C272 1.380 . S
C274 C275 1.170 . S
C275 C274 1.170 . S
C276 C277 1.170 . S
C276 C278 1.380 . S
C277 C276 1.170 . S
C278 C276 1.380 . S
C278 C279 1.170 . S
C279 C278 1.170 . S
C280 C281 1.170 . S
C280 C282 1.380 . S
C281 C280 1.170 . S
C282 C280 1.380 . S
C282 C283 1.170 . S
C283 C282 1.170 . S
C284 C285 1.170 . S
C284 C286 1.380 . S
C285 C284 1.170 . S
C286 C284 1.380 . S
C286 C287 1.170 1_455 S
C287 C286 1.170 1_655 S
C253 C66 1.568 . S
C255 C75 1.520 . S
C257 C159 1.543 . S
C259 C150 1.556 . S
C261 C243 1.527 . S
C263 C234 1.542 . S
C265 C240 1.620 1_554 S
C267 C56 1.745 . S
C269 C147 1.444 . S
C271 C67 1.607 . S
C273 C224 1.741 . S
C275 C156 1.631 . S
C277 C235 1.568 . S
C279 C63 1.388 1_556 S
C281 C72 1.615 . S
C283 C140 1.748 1_565 S
C285 C231 1.399 . S
C287 C151 1.576 . S
