# Generated by pormake.
# Topology lll, (7)-cn, num edge types: 1
# Building blocks:
#     Node 0, Type 0, BuildingBlock: NUHQUE_clean_sbu_2, # of connection points: 7
#     Node 1, Type 0, BuildingBlock: NUHQUE_clean_sbu_2, # of connection points: 7
#     Node 2, Type 0, BuildingBlock: NUHQUE_clean_sbu_2, # of connection points: 7
#     Node 3, Type 0, BuildingBlock: NUHQUE_clean_sbu_2, # of connection points: 7
#     Node 4, Type 0, BuildingBlock: NUHQUE_clean_sbu_2, # of connection points: 7
#     Node 5, Type 0, BuildingBlock: NUHQUE_clean_sbu_2, # of connection points: 7
#     Node 6, Type 0, BuildingBlock: NUHQUE_clean_sbu_2, # of connection points: 7
#     Node 7, Type 0, BuildingBlock: NUHQUE_clean_sbu_2, # of connection points: 7
#     Node 8, Type 0, BuildingBlock: NUHQUE_clean_sbu_2, # of connection points: 7
#     Node 9, Type 0, BuildingBlock: NUHQUE_clean_sbu_2, # of connection points: 7
#     Node 10, Type 0, BuildingBlock: NUHQUE_clean_sbu_2, # of connection points: 7
#     Node 11, Type 0, BuildingBlock: NUHQUE_clean_sbu_2, # of connection points: 7
#     Node 12, Type 0, BuildingBlock: NUHQUE_clean_sbu_2, # of connection points: 7
#     Node 13, Type 0, BuildingBlock: NUHQUE_clean_sbu_2, # of connection points: 7
#     Node 14, Type 0, BuildingBlock: NUHQUE_clean_sbu_2, # of connection points: 7
#     Node 15, Type 0, BuildingBlock: NUHQUE_clean_sbu_2, # of connection points: 7
#     Edge 16, Type (0, 0), BuildingBlock: KIFKEQ_clean_linker_1, # of connection points: 2
#     Edge 17, Type (0, 0), BuildingBlock: KIFKEQ_clean_linker_1, # of connection points: 2
#     Edge 18, Type (0, 0), BuildingBlock: KIFKEQ_clean_linker_1, # of connection points: 2
#     Edge 19, Type (0, 0), BuildingBlock: KIFKEQ_clean_linker_1, # of connection points: 2
#     Edge 20, Type (0, 0), BuildingBlock: KIFKEQ_clean_linker_1, # of connection points: 2
#     Edge 21, Type (0, 0), BuildingBlock: KIFKEQ_clean_linker_1, # of connection points: 2
#     Edge 22, Type (0, 0), BuildingBlock: KIFKEQ_clean_linker_1, # of connection points: 2
#     Edge 23, Type (0, 0), BuildingBlock: KIFKEQ_clean_linker_1, # of connection points: 2
#     Edge 24, Type (0, 0), BuildingBlock: KIFKEQ_clean_linker_1, # of connection points: 2
#     Edge 25, Type (0, 0), BuildingBlock: KIFKEQ_clean_linker_1, # of connection points: 2
#     Edge 26, Type (0, 0), BuildingBlock: KIFKEQ_clean_linker_1, # of connection points: 2
#     Edge 27, Type (0, 0), BuildingBlock: KIFKEQ_clean_linker_1, # of connection points: 2
#     Edge 28, Type (0, 0), BuildingBlock: KIFKEQ_clean_linker_1, # of connection points: 2
#     Edge 29, Type (0, 0), BuildingBlock: KIFKEQ_clean_linker_1, # of connection points: 2
#     Edge 30, Type (0, 0), BuildingBlock: KIFKEQ_clean_linker_1, # of connection points: 2
#     Edge 31, Type (0, 0), BuildingBlock: KIFKEQ_clean_linker_1, # of connection points: 2
#     Edge 32, Type (0, 0), BuildingBlock: KIFKEQ_clean_linker_1, # of connection points: 2
#     Edge 33, Type (0, 0), BuildingBlock: KIFKEQ_clean_linker_1, # of connection points: 2
#     Edge 34, Type (0, 0), BuildingBlock: KIFKEQ_clean_linker_1, # of connection points: 2
#     Edge 35, Type (0, 0), BuildingBlock: KIFKEQ_clean_linker_1, # of connection points: 2
#     Edge 36, Type (0, 0), BuildingBlock: KIFKEQ_clean_linker_1, # of connection points: 2
#     Edge 37, Type (0, 0), BuildingBlock: KIFKEQ_clean_linker_1, # of connection points: 2
#     Edge 38, Type (0, 0), BuildingBlock: KIFKEQ_clean_linker_1, # of connection points: 2
#     Edge 39, Type (0, 0), BuildingBlock: KIFKEQ_clean_linker_1, # of connection points: 2
#     Edge 40, Type (0, 0), BuildingBlock: KIFKEQ_clean_linker_1, # of connection points: 2
#     Edge 41, Type (0, 0), BuildingBlock: KIFKEQ_clean_linker_1, # of connection points: 2
#     Edge 42, Type (0, 0), BuildingBlock: KIFKEQ_clean_linker_1, # of connection points: 2
#     Edge 43, Type (0, 0), BuildingBlock: KIFKEQ_clean_linker_1, # of connection points: 2
#     Edge 44, Type (0, 0), BuildingBlock: KIFKEQ_clean_linker_1, # of connection points: 2
#     Edge 45, Type (0, 0), BuildingBlock: KIFKEQ_clean_linker_1, # of connection points: 2
#     Edge 46, Type (0, 0), BuildingBlock: KIFKEQ_clean_linker_1, # of connection points: 2
#     Edge 47, Type (0, 0), BuildingBlock: KIFKEQ_clean_linker_1, # of connection points: 2
#     Edge 48, Type (0, 0), BuildingBlock: KIFKEQ_clean_linker_1, # of connection points: 2
#     Edge 49, Type (0, 0), BuildingBlock: KIFKEQ_clean_linker_1, # of connection points: 2
#     Edge 50, Type (0, 0), BuildingBlock: KIFKEQ_clean_linker_1, # of connection points: 2
#     Edge 51, Type (0, 0), BuildingBlock: KIFKEQ_clean_linker_1, # of connection points: 2
#     Edge 52, Type (0, 0), BuildingBlock: KIFKEQ_clean_linker_1, # of connection points: 2
#     Edge 53, Type (0, 0), BuildingBlock: KIFKEQ_clean_linker_1, # of connection points: 2
#     Edge 54, Type (0, 0), BuildingBlock: KIFKEQ_clean_linker_1, # of connection points: 2
#     Edge 55, Type (0, 0), BuildingBlock: KIFKEQ_clean_linker_1, # of connection points: 2
#     Edge 56, Type (0, 0), BuildingBlock: KIFKEQ_clean_linker_1, # of connection points: 2
#     Edge 57, Type (0, 0), BuildingBlock: KIFKEQ_clean_linker_1, # of connection points: 2
#     Edge 58, Type (0, 0), BuildingBlock: KIFKEQ_clean_linker_1, # of connection points: 2
#     Edge 59, Type (0, 0), BuildingBlock: KIFKEQ_clean_linker_1, # of connection points: 2
#     Edge 60, Type (0, 0), BuildingBlock: KIFKEQ_clean_linker_1, # of connection points: 2
#     Edge 61, Type (0, 0), BuildingBlock: KIFKEQ_clean_linker_1, # of connection points: 2
#     Edge 62, Type (0, 0), BuildingBlock: KIFKEQ_clean_linker_1, # of connection points: 2
#     Edge 63, Type (0, 0), BuildingBlock: KIFKEQ_clean_linker_1, # of connection points: 2
#     Edge 64, Type (0, 0), BuildingBlock: KIFKEQ_clean_linker_1, # of connection points: 2
#     Edge 65, Type (0, 0), BuildingBlock: KIFKEQ_clean_linker_1, # of connection points: 2
#     Edge 66, Type (0, 0), BuildingBlock: KIFKEQ_clean_linker_1, # of connection points: 2
#     Edge 67, Type (0, 0), BuildingBlock: KIFKEQ_clean_linker_1, # of connection points: 2
#     Edge 68, Type (0, 0), BuildingBlock: KIFKEQ_clean_linker_1, # of connection points: 2
#     Edge 69, Type (0, 0), BuildingBlock: KIFKEQ_clean_linker_1, # of connection points: 2
#     Edge 70, Type (0, 0), BuildingBlock: KIFKEQ_clean_linker_1, # of connection points: 2
#     Edge 71, Type (0, 0), BuildingBlock: KIFKEQ_clean_linker_1, # of connection points: 2
# Relax obj value: 0.471
# Max RMSD: 0.287
# Mean RMSD: 0.287
data_MOF--net-lll--node1-NUHQUE_clean_sbu_2--edge1-KIFKEQ_clean_linker_1
_symmetry_space_group_name_H-M    P1
_symmetry_Int_Tables_number       1
_symmetry_cell_setting            triclinic
loop_
_symmetry_equiv_pos_as_xyz
'x, y, z'
_cell_length_a     48.439494
_cell_length_b     48.380962
_cell_length_c     46.729311
_cell_angle_alpha  89.959556
_cell_angle_beta   89.958442
_cell_angle_gamma 90.254223
loop_
_atom_site_label
_atom_site_type_symbol
_atom_site_fract_x
_atom_site_fract_y
_atom_site_fract_z
_atom_type_partial_charge
O0 O 0.7507 0.09965 1.01605 0.0
Tb1 Tb 0.74105 0.12252 0.05495 0.0
Eu2 Eu 0.67198 0.13783 0.09186 0.0
C3 C 0.73341 0.09667 0.99455 0.0
O4 O 0.70734 0.1031 0.99801 0.0
C5 C 0.68915 0.15204 1.02758 0.0
O6 O 0.67292 0.18412 0.09133 0.0
C7 C 0.62666 0.11957 0.11522 0.0
C8 C 0.6963 0.19787 0.09288 0.0
O9 O 0.71957 0.18428 0.09522 0.0
C10 C 0.7263 0.10978 0.11627 0.0
C11 C 0.61407 0.10781 0.14165 0.0
C12 C 0.59499 0.08601 0.13854 0.0
C13 C 0.58027 0.07555 0.16219 0.0
C14 C 0.58493 0.08734 0.18924 0.0
C15 C 0.60417 0.10874 0.1931 0.0
C16 C 0.61889 0.11899 0.16923 0.0
O17 O 0.71569 0.15401 1.03392 0.0
O18 O 0.67194 0.1371 0.04331 0.0
O19 O 0.78588 0.11987 0.05781 0.0
O20 O 0.76533 0.15346 0.07786 0.0
C21 C 0.78907 0.14169 0.07359 0.0
O22 O 0.70771 0.12888 0.1209 0.0
O23 O 0.72724 0.09779 0.09096 0.0
O24 O 0.63421 0.1457 0.11558 0.0
O25 O 0.64323 0.10373 0.10006 0.0
H26 H 0.59149 0.0773 0.11748 0.0
H27 H 0.57326 0.08009 0.2076 0.0
H28 H 0.63345 0.13583 0.17203 0.0
O29 O 0.88313 0.24183 0.25449 0.0
Tb30 Tb 0.87811 0.2113 0.28832 0.0
Eu31 Eu 0.87864 0.15439 0.33385 0.0
C32 C 0.90562 0.24216 0.23869 0.0
O33 O 0.92487 0.22371 0.24364 0.0
C34 C 0.86953 0.15243 0.26312 0.0
O35 O 0.83629 0.1597 0.35165 0.0
C36 C 0.90186 0.11413 0.36113 0.0
C37 C 0.83297 0.17003 0.37733 0.0
O38 O 0.8545 0.17502 0.3936 0.0
C39 C 0.90398 0.21626 0.34761 0.0
C40 C 0.91462 0.10732 0.38897 0.0
C41 C 0.9371 0.08926 0.38875 0.0
C42 C 0.94944 0.08085 0.41433 0.0
C43 C 0.93958 0.09094 0.44044 0.0
C44 C 0.91655 0.10845 0.44139 0.0
C45 C 0.90394 0.1166 0.41548 0.0
O46 O 0.88189 0.1765 0.25916 0.0
O47 O 0.86509 0.1421 0.28895 0.0
O48 O 0.84336 0.23565 0.30372 0.0
O49 O 0.8404 0.19184 0.30451 0.0
C50 C 0.82783 0.21471 0.31056 0.0
O51 O 0.89053 0.19412 0.35609 0.0
O52 O 0.90898 0.22081 0.32038 0.0
O53 O 0.87506 0.11813 0.3609 0.0
O54 O 0.91568 0.13078 0.34385 0.0
H55 H 0.94468 0.08117 0.36858 0.0
H56 H 0.94885 0.08376 0.46021 0.0
H57 H 0.88594 0.12979 0.41601 0.0
O58 O 0.81285 0.39843 0.53392 0.0
Tb59 Tb 0.78486 0.36363 0.5283 0.0
Eu60 Eu 0.84004 0.35162 0.57018 0.0
C61 C 0.81379 0.41896 0.51531 0.0
O62 O 0.82877 0.44091 0.52117 0.0
C63 C 0.83755 0.33943 0.50199 0.0
O64 O 0.84124 0.30613 0.55907 0.0
C65 C 0.8821 0.36935 0.59952 0.0
C66 C 0.84786 0.28536 0.57584 0.0
O67 O 0.85086 0.26079 0.56433 0.0
C68 C 0.77775 0.34709 0.59047 0.0
C69 C 0.89121 0.3834 0.62615 0.0
C70 C 0.91163 0.40402 0.62367 0.0
C71 C 0.92232 0.41717 0.64799 0.0
C72 C 0.9128 0.40932 0.67512 0.0
C73 C 0.89285 0.3884 0.67835 0.0
C74 C 0.88171 0.37564 0.65371 0.0
O75 O 0.81043 0.33749 0.50203 0.0
O76 O 0.85087 0.35288 0.52252 0.0
O77 O 0.75091 0.39287 0.52957 0.0
O78 O 0.75134 0.36261 0.49677 0.0
C79 C 0.73756 0.38322 0.50764 0.0
O80 O 0.80066 0.36106 0.59514 0.0
O81 O 0.77215 0.33871 0.56453 0.0
O82 O 0.87235 0.34402 0.60154 0.0
O83 O 0.86964 0.38442 0.57989 0.0
H84 H 0.91934 0.40981 0.60269 0.0
H85 H 0.92139 0.41924 0.69396 0.0
H86 H 0.86642 0.35937 0.65604 0.0
O87 O 0.58007 0.28333 0.78262 0.0
Tb88 Tb 0.60861 0.24889 0.78278 0.0
Eu89 Eu 0.62311 0.30632 0.81678 0.0
C90 C 0.57037 0.29394 0.7587 0.0
O91 O 0.55602 0.31686 0.75981 0.0
C92 C 0.64891 0.2899 0.75278 0.0
O93 O 0.66099 0.29947 0.84287 0.0
C94 C 0.6008 0.35305 0.83101 0.0
C95 C 0.67925 0.28081 0.83544 0.0
O96 O 0.67851 0.27 0.80968 0.0
C97 C 0.62254 0.24818 0.84641 0.0
C98 C 0.59018 0.3693 0.85539 0.0
C99 C 0.57734 0.39476 0.84967 0.0
C100 C 0.57081 0.41295 0.87205 0.0
C101 C 0.57678 0.40527 0.90028 0.0
C102 C 0.58888 0.37965 0.90655 0.0
C103 C 0.59548 0.36155 0.88397 0.0
O104 O 0.6401 0.26415 0.75398 0.0
O105 O 0.64216 0.30872 0.77208 0.0
O106 O 0.58069 0.21384 0.78934 0.0
O107 O 0.60646 0.21439 0.75285 0.0
C108 C 0.58843 0.19976 0.76703 0.0
O109 O 0.6095 0.27197 0.84702 0.0
O110 O 0.63081 0.23864 0.82163 0.0
O111 O 0.62758 0.34869 0.83084 0.0
O112 O 0.58614 0.33178 0.82182 0.0
H113 H 0.57352 0.40095 0.82772 0.0
H114 H 0.57156 0.41922 0.91761 0.0
H115 H 0.60554 0.34206 0.88852 0.0
O116 O 0.70848 0.38144 0.31622 0.0
Tb117 Tb 0.67716 0.36202 0.28937 0.0
Eu118 Eu 0.62015 0.36175 0.2326 0.0
C119 C 0.70212 0.40193 0.33351 0.0
O120 O 0.67783 0.41366 0.33114 0.0
C121 C 0.61646 0.37364 0.29805 0.0
O122 O 0.61835 0.31792 0.24855 0.0
C123 C 0.58199 0.37289 0.19557 0.0
C124 C 0.62477 0.29613 0.23343 0.0
O125 O 0.62091 0.27146 0.24449 0.0
C126 C 0.68894 0.36976 0.22176 0.0
C127 C 0.57425 0.38641 0.16826 0.0
C128 C 0.55544 0.40843 0.16956 0.0
C129 C 0.54536 0.42106 0.14462 0.0
C130 C 0.55421 0.41095 0.11799 0.0
C131 C 0.57249 0.38855 0.11608 0.0
C132 C 0.58285 0.3765 0.14131 0.0
O133 O 0.63997 0.38569 0.29196 0.0
O134 O 0.60104 0.36715 0.27621 0.0
O135 O 0.67807 0.33129 0.32338 0.0
O136 O 0.66822 0.31829 0.28145 0.0
C137 C 0.67159 0.3101 0.30774 0.0
O138 O 0.66262 0.37385 0.21478 0.0
O139 O 0.6979 0.36389 0.24793 0.0
O140 O 0.5961 0.34964 0.19509 0.0
O141 O 0.58844 0.38932 0.21709 0.0
H142 H 0.54793 0.41514 0.19027 0.0
H143 H 0.54702 0.42058 0.09844 0.0
H144 H 0.59675 0.35906 0.1399 0.0
O145 O 0.56302 0.21747 0.53991 0.0
Tb146 Tb 0.59529 0.24849 0.53579 0.0
Eu147 Eu 0.6025 0.19007 0.50043 0.0
C148 C 0.55492 0.20784 0.56494 0.0
O149 O 0.53792 0.18664 0.56572 0.0
C150 C 0.63181 0.20368 0.56321 0.0
O151 O 0.64321 0.19848 0.48001 0.0
C152 C 0.58322 0.14376 0.48012 0.0
C153 C 0.64493 0.20053 0.45208 0.0
O154 O 0.62266 0.19729 0.43643 0.0
C155 C 0.60093 0.24857 0.47235 0.0
C156 C 0.57267 0.12983 0.4539 0.0
C157 C 0.55309 0.10848 0.45716 0.0
C158 C 0.54482 0.0922 0.43368 0.0
C159 C 0.55652 0.09766 0.4067 0.0
C160 C 0.57585 0.11904 0.40271 0.0
C161 C 0.58375 0.13527 0.42642 0.0
O162 O 0.62821 0.23046 0.56016 0.0
O163 O 0.61909 0.18536 0.5465 0.0
O164 O 0.57134 0.28568 0.52786 0.0
O165 O 0.59952 0.28535 0.56231 0.0
C166 C 0.58279 0.30089 0.54754 0.0
O167 O 0.58646 0.22553 0.47297 0.0
O168 O 0.61501 0.25516 0.4951 0.0
O169 O 0.60958 0.15026 0.48052 0.0
O170 O 0.56744 0.16207 0.49307 0.0
H171 H 0.5446 0.10432 0.4782 0.0
H172 H 0.55089 0.08488 0.38855 0.0
H173 H 0.5992 0.15124 0.42364 0.0
O174 O 0.8061 0.09547 0.77493 0.0
Tb175 Tb 0.77229 0.12432 0.77944 0.0
Eu176 Eu 0.82917 0.14112 0.74593 0.0
C177 C 0.81586 0.08163 0.79696 0.0
O178 O 0.83783 0.06618 0.79362 0.0
C179 C 0.81533 0.15825 0.81329 0.0
O180 O 0.83781 0.18592 0.73838 0.0
C181 C 0.87103 0.11314 0.7262 0.0
C182 C 0.8214 0.20549 0.74769 0.0
O183 O 0.79827 0.19901 0.76078 0.0
C184 C 0.7686 0.14992 0.71927 0.0
C185 C 0.88317 0.09943 0.70077 0.0
C186 C 0.90522 0.08093 0.70494 0.0
C187 C 0.91897 0.06883 0.6815 0.0
C188 C 0.90945 0.07483 0.65376 0.0
C189 C 0.8881 0.09382 0.64902 0.0
C190 C 0.87503 0.10627 0.67266 0.0
O191 O 0.78884 0.15266 0.81064 0.0
O192 O 0.83367 0.15016 0.79397 0.0
O193 O 0.73931 0.09493 0.76992 0.0
O194 O 0.73805 0.11706 0.80905 0.0
C195 C 0.72504 0.09917 0.79308 0.0
O196 O 0.79333 0.13982 0.71401 0.0
O197 O 0.76006 0.15237 0.74573 0.0
O198 O 0.86944 0.14021 0.72551 0.0
O199 O 0.84975 0.10134 0.73889 0.0
H200 H 0.91236 0.07693 0.72652 0.0
H201 H 0.91931 0.06535 0.63542 0.0
H202 H 0.85884 0.12129 0.66919 0.0
O203 O 0.89848 0.33918 1.03532 0.0
Tb204 Tb 0.87715 0.30009 0.04214 0.0
Eu205 Eu 0.85043 0.34228 0.9947 0.0
C206 C 0.91233 0.35161 0.05598 0.0
O207 O 0.92697 0.37377 0.04999 0.0
C208 C 0.82444 0.33287 0.0594 0.0
O209 O 0.81702 0.32012 0.97113 0.0
C210 C 0.86359 0.38728 0.96773 0.0
C211 C 0.80442 0.2983 0.98171 0.0
O212 O 0.80734 0.29175 1.0088 0.0
C213 C 0.86938 0.28211 0.98011 0.0
C214 C 0.87691 0.39694 0.94088 0.0
C215 C 0.89692 0.41794 0.94298 0.0
C216 C 0.91007 0.42829 0.91848 0.0
C217 C 0.90274 0.41799 0.89153 0.0
C218 C 0.88242 0.39743 0.88869 0.0
C219 C 0.8697 0.38656 0.9135 0.0
O220 O 0.83802 0.30951 0.06204 0.0
O221 O 0.82923 0.35016 0.03791 0.0
O222 O 0.91107 0.271 0.04873 0.0
O223 O 0.88458 0.2803 0.08321 0.0
C224 C 0.90583 0.26583 0.07552 0.0
O225 O 0.87595 0.30799 0.97496 0.0
O226 O 0.86327 0.27503 1.00639 0.0
O227 O 0.83908 0.37558 0.96581 0.0
O228 O 0.87975 0.37578 0.98706 0.0
H229 H 0.90249 0.42611 0.96381 0.0
H230 H 0.91269 0.42631 0.87256 0.0
H231 H 0.85407 0.3706 0.91144 0.0
O232 O 0.18268 0.5823 0.54671 0.0
Tb233 Tb 0.2156 0.61239 0.54206 0.0
Eu234 Eu 0.16251 0.62945 0.58184 0.0
C235 C 0.17821 0.56396 0.52645 0.0
O236 O 0.15917 0.54488 0.53008 0.0
C237 C 0.17264 0.65303 0.51531 0.0
O238 O 0.16917 0.66863 0.60577 0.0
C239 C 0.11963 0.6046 0.60332 0.0
C240 C 0.18819 0.68638 0.59774 0.0
O241 O 0.19965 0.68403 0.57238 0.0
C242 C 0.22418 0.6296 0.60409 0.0
C243 C 0.1093 0.59172 0.63015 0.0
C244 C 0.08896 0.57103 0.62788 0.0
C245 C 0.07747 0.55857 0.6524 0.0
C246 C 0.08733 0.56671 0.67943 0.0
C247 C 0.10705 0.5879 0.68241 0.0
C248 C 0.11796 0.60055 0.65759 0.0
O249 O 0.19802 0.64333 0.5142 0.0
O250 O 0.15557 0.64737 0.53682 0.0
O251 O 0.24897 0.58279 0.54714 0.0
O252 O 0.24817 0.60774 0.51001 0.0
C253 C 0.26228 0.58916 0.52389 0.0
O254 O 0.19986 0.61837 0.60889 0.0
O255 O 0.23129 0.63583 0.5779 0.0
O256 O 0.12282 0.63162 0.6033 0.0
O257 O 0.13899 0.59139 0.58897 0.0
H258 H 0.08145 0.56535 0.60683 0.0
H259 H 0.07915 0.55698 0.69854 0.0
H260 H 0.13305 0.61704 0.65962 0.0
O261 O 0.42064 0.70657 0.7805 0.0
Tb262 Tb 0.39056 0.73894 0.78773 0.0
Eu263 Eu 0.38708 0.67943 0.82165 0.0
C264 C 0.42825 0.69835 0.75473 0.0
O265 O 0.44393 0.67639 0.75249 0.0
C266 C 0.35381 0.69511 0.76025 0.0
O267 O 0.35538 0.65739 0.84847 0.0
C268 C 0.42998 0.64778 0.82867 0.0
C269 C 0.35591 0.65822 0.8766 0.0
O270 O 0.37273 0.6753 0.88973 0.0
C271 C 0.37384 0.73792 0.85127 0.0
C272 C 0.44176 0.63307 0.85362 0.0
C273 C 0.45953 0.61054 0.84919 0.0
C274 C 0.46728 0.59335 0.87218 0.0
C275 C 0.45631 0.59872 0.89952 0.0
C276 C 0.43838 0.62098 0.90439 0.0
C277 C 0.43197 0.6386 0.8814 0.0
O278 O 0.35783 0.72192 0.76236 0.0
O279 O 0.3665 0.67701 0.7771 0.0
O280 O 0.41849 0.77289 0.79761 0.0
O281 O 0.39142 0.77652 0.76196 0.0
C282 C 0.41013 0.78924 0.77726 0.0
O283 O 0.38777 0.71483 0.85396 0.0
O284 O 0.36628 0.74626 0.82587 0.0
O285 O 0.40561 0.6387 0.82093 0.0
O286 O 0.43172 0.67494 0.82818 0.0
H287 H 0.46691 0.60621 0.82777 0.0
H288 H 0.46129 0.58507 0.91715 0.0
H289 H 0.4183 0.65579 0.88476 0.0
O290 O 0.31208 0.94193 1.02899 0.0
Tb291 Tb 0.28179 0.90877 1.03245 0.0
Eu292 Eu 0.33269 0.88394 0.08287 0.0
C293 C 0.31556 0.95708 1.00566 0.0
O294 O 0.33465 0.97641 1.00565 0.0
C295 C 0.32454 0.86326 1.01866 0.0
O296 O 0.31547 0.84194 0.09391 0.0
C297 C 0.37789 0.89301 0.11152 0.0
C298 C 0.29059 0.83374 0.08633 0.0
O299 O 0.27482 0.84969 0.07084 0.0
C300 C 0.27201 0.9045 0.09951 0.0
C301 C 0.39059 0.90421 0.1381 0.0
C302 C 0.41213 0.92363 0.1352 0.0
C303 C 0.42768 0.93203 0.15899 0.0
C304 C 0.42134 0.92116 0.18603 0.0
C305 C 0.39959 0.90221 0.18976 0.0
C306 C 0.38405 0.89385 0.16567 0.0
O307 O 0.29817 0.86825 1.02222 0.0
O308 O 0.34282 0.87391 0.03641 0.0
O309 O 0.24179 0.924 1.01746 0.0
O310 O 0.26689 0.90063 0.98952 0.0
C311 C 0.2435 0.91328 0.99196 0.0
O312 O 0.29858 0.90921 0.10321 0.0
O313 O 0.26149 0.90145 0.07365 0.0
O314 O 0.36366 0.86987 0.11318 0.0
O315 O 0.368 0.91061 0.09263 0.0
H316 H 0.4176 0.93137 0.11415 0.0
H317 H 0.43325 0.92782 0.20444 0.0
H318 H 0.36768 0.87873 0.16829 0.0
O319 O 0.08124 0.82456 0.28433 0.0
Tb320 Tb 0.11304 0.79314 0.28564 0.0
Eu321 Eu 0.13754 0.84009 0.33733 0.0
C322 C 0.06558 0.82798 0.26149 0.0
O323 O 0.04515 0.84569 0.26253 0.0
C324 C 0.15781 0.83797 0.2696 0.0
O325 O 0.17251 0.81524 0.35466 0.0
C326 C 0.13017 0.88287 0.36999 0.0
C327 C 0.18493 0.79512 0.34096 0.0
O328 O 0.18095 0.79133 0.31347 0.0
C329 C 0.11824 0.77991 0.35026 0.0
C330 C 0.11942 0.89326 0.39781 0.0
C331 C 0.10025 0.91488 0.39648 0.0
C332 C 0.08957 0.92702 0.42138 0.0
C333 C 0.09851 0.91726 0.44806 0.0
C334 C 0.11825 0.89627 0.45022 0.0
C335 C 0.12871 0.884 0.42496 0.0
O336 O 0.14926 0.81225 0.26681 0.0
O337 O 0.15189 0.85315 0.29241 0.0
O338 O 0.087 0.75731 0.27602 0.0
O339 O 0.11842 0.76881 0.24703 0.0
C340 C 0.09895 0.75093 0.25201 0.0
O341 O 0.1104 0.80556 0.35447 0.0
O342 O 0.12653 0.77267 0.32463 0.0
O343 O 0.15329 0.86875 0.36956 0.0
O344 O 0.1119 0.87447 0.35092 0.0
H345 H 0.09419 0.92278 0.37571 0.0
H346 H 0.09011 0.92604 0.46754 0.0
H347 H 0.14403 0.86783 0.42646 0.0
O348 O 0.20872 0.92722 0.80043 0.0
Tb349 Tb 0.23838 0.89354 0.79869 0.0
Eu350 Eu 0.1804 0.88218 0.75982 0.0
C351 C 0.20425 0.94327 0.82288 0.0
O352 O 0.1837 0.96085 0.82175 0.0
C353 C 0.19203 0.85581 0.82499 0.0
O354 O 0.18721 0.84331 0.73534 0.0
C355 C 0.13635 0.9054 0.73921 0.0
C356 C 0.20395 0.82388 0.7442 0.0
O357 O 0.2136 0.82429 0.77044 0.0
C358 C 0.24021 0.87946 0.73451 0.0
C359 C 0.12348 0.91642 0.71267 0.0
C360 C 0.10166 0.93533 0.7156 0.0
C361 C 0.08726 0.94489 0.69154 0.0
C362 C 0.09456 0.93522 0.66432 0.0
C363 C 0.11581 0.91578 0.66065 0.0
C364 C 0.13062 0.90674 0.68501 0.0
O365 O 0.21862 0.86192 0.82441 0.0
O366 O 0.17438 0.86523 0.80552 0.0
O367 O 0.27609 0.91727 0.79192 0.0
O368 O 0.27282 0.89192 0.8289 0.0
C369 C 0.28904 0.90841 0.81447 0.0
O370 O 0.21746 0.89405 0.73242 0.0
O371 O 0.2478 0.87075 0.75984 0.0
O372 O 0.13981 0.87849 0.74061 0.0
O373 O 0.15652 0.91967 0.75128 0.0
H374 H 0.09566 0.94242 0.73671 0.0
H375 H 0.08319 0.94257 0.64585 0.0
H376 H 0.14685 0.89158 0.68261 0.0
O377 O 0.10665 0.72535 0.05899 0.0
Tb378 Tb 0.13527 0.7136 1.02491 0.0
Eu379 Eu 0.14512 0.64345 0.98913 0.0
C380 C 0.107 0.71509 0.08511 0.0
O381 O 0.12112 0.69259 0.09047 0.0
C382 C 0.16668 0.66147 0.0536 0.0
O383 O 0.18122 0.62361 0.96795 0.0
C384 C 0.10164 0.61749 0.97083 0.0
C385 C 0.19648 0.60481 0.98046 0.0
O386 O 0.19105 0.59707 1.00679 0.0
C387 C 0.13687 0.70142 0.96229 0.0
C388 C 0.08906 0.60897 0.94331 0.0
C389 C 0.06713 0.58993 0.94425 0.0
C390 C 0.05485 0.58003 0.91897 0.0
C391 C 0.06443 0.59019 0.89258 0.0
C392 C 0.08694 0.6085 0.89093 0.0
C393 C 0.09946 0.61781 0.9165 0.0
O394 O 0.16509 0.68858 0.04931 0.0
O395 O 0.15432 0.64285 0.03704 0.0
O396 O 0.12957 0.75759 1.01917 0.0
O397 O 0.16834 0.74 1.00817 0.0
C398 C 0.15357 0.76245 1.00802 0.0
O399 O 0.15397 0.68061 0.96202 0.0
O400 O 0.11881 0.70218 0.98338 0.0
O401 O 0.12467 0.60494 0.97787 0.0
O402 O 0.10154 0.64401 0.97727 0.0
H403 H 0.06033 0.58212 0.96483 0.0
H404 H 0.05485 0.58323 0.87289 0.0
H405 H 0.11706 0.63168 0.91556 0.0
O406 O 0.27669 0.57794 0.31884 0.0
Tb407 Tb 0.28236 0.60349 0.28093 0.0
Eu408 Eu 0.32851 0.63769 0.2176 0.0
C409 C 0.28343 0.58809 0.34403 0.0
O410 O 0.29703 0.61156 0.34512 0.0
C411 C 0.32874 0.64904 0.28611 0.0
O412 O 0.29513 0.65627 0.19102 0.0
C413 C 0.37404 0.63579 0.18792 0.0
C414 C 0.27886 0.67558 0.20097 0.0
O415 O 0.28145 0.68341 0.22773 0.0
C416 C 0.28483 0.58898 0.21859 0.0
C417 C 0.38549 0.6204 0.16293 0.0
C418 C 0.40159 0.59659 0.16767 0.0
C419 C 0.4124 0.58157 0.1446 0.0
C420 C 0.40749 0.5905 0.11661 0.0
C421 C 0.39259 0.61469 0.11127 0.0
C422 C 0.38157 0.62969 0.13445 0.0
O423 O 0.32314 0.62232 0.28917 0.0
O424 O 0.33034 0.66052 0.26033 0.0
O425 O 0.24193 0.61535 0.29642 0.0
O426 O 0.26283 0.64178 0.26729 0.0
C427 C 0.23988 0.63761 0.28116 0.0
O428 O 0.31098 0.59528 0.22207 0.0
O429 O 0.27212 0.58105 0.2419 0.0
O430 O 0.35433 0.65375 0.18299 0.0
O431 O 0.37008 0.62173 0.21169 0.0
H432 H 0.40571 0.58959 0.18928 0.0
H433 H 0.41623 0.57906 0.09883 0.0
H434 H 0.3701 0.64844 0.13025 0.0
O435 O 0.4122 0.7879 0.5399 0.0
Tb436 Tb 0.37946 0.75768 0.53388 0.0
Eu437 Eu 0.3714 0.81732 0.49663 0.0
C438 C 0.42216 0.79463 0.56527 0.0
O439 O 0.4396 0.81541 0.56704 0.0
C440 C 0.34507 0.8048 0.56134 0.0
O441 O 0.33287 0.80826 0.47217 0.0
C442 C 0.39228 0.86345 0.47775 0.0
C443 C 0.31547 0.78881 0.47999 0.0
O444 O 0.31646 0.77873 0.50605 0.0
C445 C 0.37319 0.75811 0.46809 0.0
C446 C 0.40218 0.8789 0.45226 0.0
C447 C 0.41795 0.90301 0.45683 0.0
C448 C 0.4245 0.92079 0.43402 0.0
C449 C 0.4156 0.91397 0.40636 0.0
C450 C 0.40045 0.88971 0.40103 0.0
C451 C 0.39381 0.87202 0.42413 0.0
O452 O 0.34745 0.77778 0.55859 0.0
O453 O 0.35708 0.8223 0.54327 0.0
O454 O 0.40462 0.72044 0.5317 0.0
O455 O 0.37303 0.72289 0.56293 0.0
C456 C 0.3919 0.70699 0.55193 0.0
O457 O 0.3865 0.78193 0.46851 0.0
O458 O 0.36231 0.74867 0.4919 0.0
O459 O 0.36561 0.85841 0.47922 0.0
O460 O 0.40765 0.84336 0.48816 0.0
H461 H 0.42411 0.90859 0.47838 0.0
H462 H 0.42088 0.92755 0.38868 0.0
H463 H 0.3815 0.85362 0.4204 0.0
H464 H 0.7971 0.18466 0.10951 0.0
H465 H 0.83967 0.11777 0.06767 0.0
H466 H 0.84054 0.20361 0.12531 0.0
H467 H 0.88392 0.13629 0.08424 0.0
H468 H 0.92621 0.21898 0.05146 0.0
H469 H 0.90748 0.17467 0.0653 0.0
H470 H 0.8837 0.20832 0.14726 0.0
H471 H 0.89916 0.25346 0.13161 0.0
C472 C 0.8159 0.17374 0.10419 0.0
C473 C 0.81527 0.15057 0.08639 0.0
C474 C 0.84101 0.18425 0.11375 0.0
C475 C 0.86614 0.17178 0.10566 0.0
C476 C 0.86511 0.14674 0.0904 0.0
C477 C 0.83983 0.13628 0.0807 0.0
C478 C 0.91834 0.21661 0.07304 0.0
C479 C 0.91282 0.23985 0.08997 0.0
C480 C 0.90759 0.19095 0.08117 0.0
C481 C 0.89186 0.1887 0.10646 0.0
C482 C 0.89415 0.20998 0.12681 0.0
C483 C 0.90359 0.23592 0.11812 0.0
H484 H 0.68015 0.29096 0.36156 0.0
H485 H 0.6788 0.26549 0.27308 0.0
H486 H 0.71252 0.2541 0.3725 0.0
H487 H 0.71108 0.22869 0.2839 0.0
H488 H 0.78462 0.17994 0.29995 0.0
H489 H 0.73564 0.18994 0.30853 0.0
H490 H 0.75912 0.26446 0.35356 0.0
H491 H 0.80742 0.25468 0.34445 0.0
C492 C 0.68562 0.27653 0.34478 0.0
C493 C 0.67811 0.28166 0.31627 0.0
C494 C 0.70414 0.25539 0.35105 0.0
C495 C 0.71518 0.23926 0.32885 0.0
C496 C 0.70326 0.241 0.30145 0.0
C497 C 0.68474 0.2622 0.29517 0.0
C498 C 0.7791 0.19801 0.31234 0.0
C499 C 0.79943 0.21698 0.32102 0.0
C500 C 0.75119 0.20366 0.31732 0.0
C501 C 0.74348 0.22805 0.33151 0.0
C502 C 0.76424 0.24534 0.34278 0.0
C503 C 0.79194 0.24001 0.33726 0.0
H504 H 0.70285 0.35685 0.47057 0.0
H505 H 0.70534 0.42058 0.5351 0.0
H506 H 0.65323 0.3523 0.47728 0.0
H507 H 0.65561 0.41601 0.54197 0.0
H508 H 0.57238 0.33107 0.49953 0.0
H509 H 0.60357 0.36706 0.48242 0.0
H510 H 0.63956 0.37283 0.56676 0.0
H511 H 0.60889 0.3365 0.58357 0.0
C512 C 0.69258 0.3708 0.4852 0.0
C513 C 0.70795 0.38836 0.503 0.0
C514 C 0.66405 0.36834 0.489 0.0
C515 C 0.65063 0.38334 0.51076 0.0
C516 C 0.66548 0.4039 0.5254 0.0
C517 C 0.69397 0.40648 0.52145 0.0
C518 C 0.58586 0.34113 0.51486 0.0
C519 C 0.58897 0.33037 0.54266 0.0
C520 C 0.60385 0.36168 0.50493 0.0
C521 C 0.62458 0.37214 0.52296 0.0
C522 C 0.62395 0.36508 0.55221 0.0
C523 C 0.6063 0.34421 0.56197 0.0
H524 H 0.57035 0.16397 0.80829 0.0
H525 H 0.60746 0.16688 0.7244 0.0
H526 H 0.59287 0.11995 0.81753 0.0
H527 H 0.63024 0.12346 0.73356 0.0
H528 H 0.68993 0.11529 0.83522 0.0
H529 H 0.64123 0.12373 0.82826 0.0
H530 H 0.64358 0.07821 0.7487 0.0
H531 H 0.69283 0.07037 0.75556 0.0
C532 C 0.58208 0.15448 0.7912 0.0
C533 C 0.5883 0.16933 0.76614 0.0
C534 C 0.59516 0.12929 0.79658 0.0
C535 C 0.61455 0.11888 0.77696 0.0
C536 C 0.61593 0.13098 0.74954 0.0
C537 C 0.60286 0.1561 0.74419 0.0
C538 C 0.6798 0.10598 0.81692 0.0
C539 C 0.69527 0.09322 0.79535 0.0
C540 C 0.65164 0.11064 0.81292 0.0
C541 C 0.63863 0.1026 0.78723 0.0
C542 C 0.65318 0.08541 0.76827 0.0
C543 C 0.6814 0.08086 0.77224 0.0
H544 H 0.41304 0.67013 0.51387 0.0
H545 H 0.36642 0.67563 0.59238 0.0
H546 H 0.393 0.62466 0.50459 0.0
H547 H 0.34668 0.63026 0.5834 0.0
H548 H 0.29572 0.6101 0.48231 0.0
H549 H 0.34266 0.62546 0.49086 0.0
H550 H 0.34411 0.57974 0.57025 0.0
H551 H 0.29707 0.56387 0.56131 0.0
C552 C 0.39969 0.66099 0.52993 0.0
C553 C 0.39053 0.67663 0.5534 0.0
C554 C 0.38819 0.63494 0.52456 0.0
C555 C 0.36774 0.6242 0.54283 0.0
C556 C 0.36233 0.63792 0.5688 0.0
C557 C 0.37355 0.66407 0.57396 0.0
C558 C 0.3066 0.60189 0.50066 0.0
C559 C 0.2925 0.58659 0.52159 0.0
C560 C 0.33365 0.61071 0.50564 0.0
C561 C 0.34674 0.60452 0.53176 0.0
C562 C 0.33431 0.58521 0.55021 0.0
C563 C 0.30735 0.5761 0.54502 0.0
H564 H 0.32572 0.93548 0.78027 0.0
H565 H 0.32053 0.88254 0.85446 0.0
H566 H 0.37277 0.91991 0.77159 0.0
H567 H 0.36723 0.86681 0.8458 0.0
H568 H 0.391 0.82695 0.73911 0.0
H569 H 0.37493 0.87246 0.75249 0.0
H570 H 0.41694 0.86549 0.83372 0.0
H571 H 0.43318 0.81974 0.82007 0.0
C572 C 0.33512 0.92154 0.79554 0.0
C573 C 0.31927 0.90925 0.81732 0.0
C574 C 0.36209 0.91265 0.79056 0.0
C575 C 0.37334 0.89136 0.80729 0.0
C576 C 0.35917 0.88304 0.83223 0.0
C577 C 0.33221 0.89192 0.83718 0.0
C578 C 0.39808 0.83575 0.75914 0.0
C579 C 0.41235 0.81952 0.77901 0.0
C580 C 0.38898 0.86202 0.76687 0.0
C581 C 0.39384 0.87216 0.79469 0.0
C582 C 0.41238 0.85792 0.81242 0.0
C583 C 0.4217 0.83171 0.80454 0.0
H584 H 0.18901 0.91992 1.00398 0.0
H585 H 0.24481 0.89047 0.93893 0.0
H586 H 0.15602 0.88464 0.99086 0.0
H587 H 0.21112 0.85591 0.92457 0.0
H588 H 0.20221 0.77619 0.98261 0.0
H589 H 0.21364 0.81948 0.95918 0.0
H590 H 0.1298 0.84779 0.97148 0.0
H591 H 0.1189 0.80468 0.99611 0.0
C592 C 0.19342 0.90713 0.98553 0.0
C593 C 0.21993 0.90655 0.97365 0.0
C594 C 0.17438 0.88678 0.97781 0.0
C595 C 0.18201 0.86612 0.95811 0.0
C596 C 0.20541 0.87065 0.94094 0.0
C597 C 0.2247 0.89054 0.94911 0.0
C598 C 0.18629 0.79168 0.98019 0.0
C599 C 0.16017 0.78779 0.99225 0.0
C600 C 0.19253 0.81631 0.96611 0.0
C601 C 0.17262 0.83741 0.96364 0.0
C602 C 0.14569 0.83222 0.97342 0.0
C603 C 0.1396 0.80773 0.98787 0.0
H604 H 0.08281 0.7036 0.27846 0.0
H605 H 0.12053 0.73471 0.20123 0.0
H606 H 0.1141 0.66499 0.27831 0.0
H607 H 0.14993 0.69436 0.19909 0.0
H608 H 0.23087 0.68409 0.25018 0.0
H609 H 0.18735 0.69979 0.23073 0.0
H610 H 0.14564 0.62985 0.26965 0.0
H611 H 0.18933 0.61506 0.29021 0.0
C612 C 0.09626 0.70101 0.26013 0.0
C613 C 0.10055 0.72277 0.2408 0.0
C614 C 0.11442 0.67874 0.26003 0.0
C615 C 0.13596 0.6779 0.23982 0.0
C616 C 0.1346 0.69552 0.21594 0.0
C617 C 0.11726 0.71837 0.21674 0.0
C618 C 0.21235 0.67228 0.25469 0.0
C619 C 0.21329 0.64883 0.27212 0.0
C620 C 0.18739 0.68079 0.24298 0.0
C621 C 0.16284 0.66576 0.24815 0.0
C622 C 0.16402 0.64194 0.26527 0.0
C623 C 0.18898 0.6337 0.27735 0.0
H624 H 0.60549 0.25815 0.90181 0.0
H625 H 0.65967 0.20617 0.85221 0.0
H626 H 0.62119 0.23529 0.94575 0.0
H627 H 0.67546 0.18375 0.89589 0.0
H628 H 0.71945 0.17229 0.98252 0.0
H629 H 0.70294 0.19573 0.93957 0.0
H630 H 0.61908 0.18803 0.96982 0.0
H631 H 0.63557 0.16436 1.01288 0.0
C632 C 0.62061 0.2418 0.90022 0.0
C633 C 0.6311 0.23393 0.87335 0.0
C634 C 0.62958 0.22866 0.92541 0.0
C635 C 0.64963 0.20765 0.92442 0.0
C636 C 0.66017 0.19994 0.89755 0.0
C637 C 0.6509 0.2127 0.87241 0.0
C638 C 0.69747 0.17557 0.98012 0.0
C639 C 0.67886 0.1663 1.00127 0.0
C640 C 0.68799 0.18894 0.95536 0.0
C641 C 0.65965 0.1938 0.95115 0.0
C642 C 0.64105 0.18483 0.97243 0.0
C643 C 0.6505 0.17107 0.99704 0.0
H644 H 0.83529 0.1073 0.26447 0.0
H645 H 0.86996 0.1673 0.20583 0.0
H646 H 0.80334 0.09196 0.22752 0.0
H647 H 0.83812 0.15107 0.16852 0.0
H648 H 0.78036 0.09268 0.10739 0.0
H649 H 0.8197 0.09945 0.14014 0.0
H650 H 0.764 0.12874 0.20527 0.0
H651 H 0.7253 0.12369 0.17243 0.0
C652 C 0.83678 0.11673 0.2435 0.0
C653 C 0.8552 0.13885 0.23842 0.0
C654 C 0.81836 0.10785 0.22231 0.0
C655 C 0.81817 0.12036 0.19521 0.0
C656 C 0.83795 0.14094 0.1892 0.0
C657 C 0.85618 0.15023 0.21063 0.0
C658 C 0.77655 0.10055 0.12868 0.0
C659 C 0.7497 0.10824 0.13699 0.0
C660 C 0.79907 0.10441 0.14739 0.0
C661 C 0.79488 0.1148 0.17517 0.0
C662 C 0.76786 0.12076 0.18398 0.0
C663 C 0.74567 0.11779 0.16512 0.0
H664 H 0.81885 0.32951 0.44783 0.0
H665 H 0.89086 0.32045 0.50133 0.0
H666 H 0.84189 0.30418 0.40959 0.0
H667 H 0.91386 0.29457 0.46298 0.0
H668 H 0.89482 0.27131 0.33847 0.0
H669 H 0.88317 0.30559 0.37506 0.0
H670 H 0.90315 0.24673 0.4412 0.0
H671 H 0.91431 0.2124 0.40472 0.0
C672 C 0.83977 0.32242 0.4513 0.0
C673 C 0.85299 0.32697 0.47769 0.0
C674 C 0.85306 0.30805 0.42927 0.0
C675 C 0.87975 0.29738 0.43319 0.0
C676 C 0.8933 0.30253 0.45931 0.0
C677 C 0.88018 0.31744 0.48121 0.0
C678 C 0.89781 0.26606 0.3608 0.0
C679 C 0.90571 0.23918 0.36868 0.0
C680 C 0.89078 0.28559 0.38177 0.0
C681 C 0.89201 0.27882 0.41106 0.0
C682 C 0.90214 0.2527 0.41888 0.0
C683 C 0.90864 0.23304 0.39796 0.0
H684 H 0.69232 0.32579 0.75511 0.0
H685 H 0.6481 0.27253 0.69702 0.0
H686 H 0.7243 0.33841 0.71721 0.0
H687 H 0.67834 0.28684 0.65812 0.0
H688 H 0.7483 0.29931 0.59589 0.0
H689 H 0.71871 0.28479 0.6351 0.0
H690 H 0.73474 0.36259 0.67794 0.0
H691 H 0.76628 0.37563 0.63963 0.0
C692 C 0.68917 0.31717 0.73396 0.0
C693 C 0.66766 0.29821 0.72906 0.0
C694 C 0.70745 0.32459 0.71194 0.0
C695 C 0.70428 0.31398 0.68399 0.0
C696 C 0.6823 0.29519 0.67919 0.0
C697 C 0.66459 0.28709 0.7015 0.0
C698 C 0.74551 0.31321 0.61382 0.0
C699 C 0.75954 0.33867 0.61461 0.0
C700 C 0.72822 0.30502 0.63638 0.0
C701 C 0.72365 0.32243 0.66013 0.0
C702 C 0.73782 0.34807 0.66067 0.0
C703 C 0.75583 0.35582 0.63848 0.0
H704 H 0.64743 0.37472 0.3475 0.0
H705 H 0.57576 0.33585 0.3101 0.0
H706 H 0.64355 0.34456 0.38891 0.0
H707 H 0.57078 0.30675 0.35211 0.0
H708 H 0.58548 0.23759 0.41675 0.0
H709 H 0.58897 0.2684 0.37546 0.0
H710 H 0.61976 0.33351 0.43038 0.0
H711 H 0.61772 0.3023 0.47097 0.0
C712 C 0.63063 0.36004 0.34822 0.0
C713 C 0.61237 0.35753 0.32504 0.0
C714 C 0.62821 0.34272 0.37219 0.0
C715 C 0.60695 0.32277 0.37402 0.0
C716 C 0.58791 0.32118 0.35135 0.0
C717 C 0.59061 0.33822 0.32725 0.0
C718 C 0.59302 0.25847 0.4199 0.0
C719 C 0.60149 0.26735 0.44713 0.0
C720 C 0.59486 0.27631 0.39624 0.0
C721 C 0.60474 0.30367 0.39929 0.0
C722 C 0.61266 0.31255 0.42678 0.0
C723 C 0.61127 0.29462 0.45024 0.0
H724 H 0.65818 0.15347 0.56941 0.0
H725 H 0.64881 0.23305 0.60995 0.0
H726 H 0.69171 0.14024 0.60631 0.0
H727 H 0.68218 0.22004 0.64631 0.0
H728 H 0.71985 0.17764 0.72403 0.0
H729 H 0.68678 0.18909 0.6869 0.0
H730 H 0.73955 0.15167 0.62349 0.0
H731 H 0.77296 0.1399 0.66106 0.0
C732 C 0.66307 0.16806 0.58624 0.0
C733 C 0.65071 0.19434 0.58658 0.0
C734 C 0.68253 0.16059 0.60725 0.0
C735 C 0.68982 0.17907 0.62935 0.0
C736 C 0.67702 0.20512 0.62986 0.0
C737 C 0.65788 0.21265 0.60882 0.0
C738 C 0.72462 0.17185 0.7022 0.0
C739 C 0.74927 0.15784 0.69568 0.0
C740 C 0.70557 0.17856 0.68079 0.0
C741 C 0.71036 0.17138 0.65206 0.0
C742 C 0.735 0.15731 0.6454 0.0
C743 C 0.75429 0.15077 0.66692 0.0
H744 H 0.88225 0.28837 0.92307 0.0
H745 H 0.84417 0.23139 0.98247 0.0
H746 H 0.87012 0.25761 0.88341 0.0
H747 H 0.83205 0.20081 0.94293 0.0
H748 H 0.86602 0.1824 0.82255 0.0
H749 H 0.88039 0.21135 0.86278 0.0
H750 H 0.8002 0.20057 0.90165 0.0
H751 H 0.78589 0.17146 0.86165 0.0
C752 C 0.87162 0.26915 0.92775 0.0
C753 C 0.86436 0.26237 0.95607 0.0
C754 C 0.86467 0.25147 0.90498 0.0
C755 C 0.85002 0.22669 0.90988 0.0
C756 C 0.84309 0.2198 0.93826 0.0
C757 C 0.85031 0.23727 0.96102 0.0
C758 C 0.85151 0.18595 0.83979 0.0
C759 C 0.82478 0.17443 0.83875 0.0
C760 C 0.8597 0.20278 0.86277 0.0
C761 C 0.84149 0.20837 0.88553 0.0
C762 C 0.81491 0.1965 0.88471 0.0
C763 C 0.80665 0.17986 0.86164 0.0
H764 H 0.78698 0.37595 0.06126 0.0
H765 H 0.8163 0.30648 0.11054 0.0
H766 H 0.75489 0.38755 0.10005 0.0
H767 H 0.78433 0.3178 0.14873 0.0
H768 H 0.7446 0.35893 0.2248 0.0
H769 H 0.77694 0.35201 0.18563 0.0
H770 H 0.71282 0.37083 0.12469 0.0
H771 H 0.68036 0.37815 0.16393 0.0
C772 C 0.78661 0.36312 0.08025 0.0
C773 C 0.80434 0.34023 0.08256 0.0
C774 C 0.76809 0.3697 0.10249 0.0
C775 C 0.76703 0.35376 0.12776 0.0
C776 C 0.78477 0.3309 0.12993 0.0
C777 C 0.80303 0.32423 0.10774 0.0
C778 C 0.73734 0.36204 0.20313 0.0
C779 C 0.70964 0.36917 0.19782 0.0
C780 C 0.75594 0.35778 0.18053 0.0
C781 C 0.74756 0.36054 0.15181 0.0
C782 C 0.72017 0.3687 0.14645 0.0
C783 C 0.70148 0.37289 0.16909 0.0
H784 H 0.14011 0.72794 0.34853 0.0
H785 H 0.10805 0.78813 0.40795 0.0
H786 H 0.15198 0.69769 0.38814 0.0
H787 H 0.12017 0.75763 0.44792 0.0
H788 H 0.12415 0.68265 0.51072 0.0
H789 H 0.10954 0.71298 0.47161 0.0
H790 H 0.18537 0.69573 0.42662 0.0
H791 H 0.19973 0.66525 0.46521 0.0
C792 C 0.13534 0.73471 0.37006 0.0
C793 C 0.12306 0.76065 0.37487 0.0
C794 C 0.14242 0.71735 0.3929 0.0
C795 C 0.13731 0.72516 0.42142 0.0
C796 C 0.12429 0.75076 0.42629 0.0
C797 C 0.11734 0.76831 0.40333 0.0
C798 C 0.13766 0.68519 0.49243 0.0
C799 C 0.16312 0.67124 0.49127 0.0
C800 C 0.12935 0.7028 0.47004 0.0
C801 C 0.14615 0.70682 0.44574 0.0
C802 C 0.1716 0.69288 0.44466 0.0
C803 C 0.17994 0.67543 0.46701 0.0
H804 H 0.30894 0.72116 0.73744 0.0
H805 H 0.35584 0.64569 0.73163 0.0
H806 H 0.27713 0.7039 0.70071 0.0
H807 H 0.32444 0.62888 0.69421 0.0
H808 H 0.28026 0.63422 0.60228 0.0
H809 H 0.31151 0.6491 0.64051 0.0
H810 H 0.24216 0.65826 0.69761 0.0
H811 H 0.21087 0.64219 0.65967 0.0
C812 C 0.31255 0.70096 0.72823 0.0
C813 C 0.3349 0.68476 0.73752 0.0
C814 C 0.29424 0.69105 0.70734 0.0
C815 C 0.29827 0.66502 0.69473 0.0
C816 C 0.32085 0.649 0.70363 0.0
C817 C 0.33875 0.65859 0.72507 0.0
C818 C 0.27168 0.6391 0.62309 0.0
C819 C 0.24307 0.63696 0.62798 0.0
C820 C 0.28959 0.64758 0.64495 0.0
C821 C 0.27925 0.65486 0.67198 0.0
C822 C 0.25066 0.65278 0.67694 0.0
C823 C 0.2328 0.64347 0.6553 0.0
H824 H 0.3438 0.78556 0.8522 0.0
H825 H 0.38926 0.73086 0.90783 0.0
H826 H 0.33348 0.81535 0.89257 0.0
H827 H 0.37855 0.76086 0.94865 0.0
H828 H 0.37534 0.8391 1.00842 0.0
H829 H 0.38794 0.80825 0.96881 0.0
H830 H 0.30509 0.81422 0.9355 0.0
H831 H 0.29264 0.84486 0.97449 0.0
C832 C 0.35151 0.77972 0.87309 0.0
C833 C 0.36724 0.75555 0.87663 0.0
C834 C 0.34547 0.79687 0.89636 0.0
C835 C 0.355 0.79053 0.92403 0.0
C836 C 0.37101 0.76651 0.92764 0.0
C837 C 0.37696 0.74918 0.90426 0.0
C838 C 0.35987 0.83384 0.99259 0.0
C839 C 0.33298 0.84459 0.99475 0.0
C840 C 0.36703 0.81599 0.96999 0.0
C841 C 0.34758 0.80875 0.94881 0.0
C842 C 0.32076 0.81955 0.9511 0.0
C843 C 0.31356 0.83708 0.97369 0.0
H844 H 0.16506 0.81632 0.21609 0.0
H845 H 0.18817 0.88674 0.2677 0.0
H846 H 0.19167 0.83465 0.17633 0.0
H847 H 0.21496 0.90532 0.22734 0.0
H848 H 0.28495 0.90992 0.15681 0.0
H849 H 0.25718 0.89581 0.19815 0.0
H850 H 0.19075 0.87219 0.14162 0.0
H851 H 0.21837 0.88609 0.10045 0.0
C852 C 0.17581 0.83578 0.21907 0.0
C853 C 0.17437 0.84995 0.24539 0.0
C854 C 0.19098 0.84645 0.19601 0.0
C855 C 0.20543 0.87163 0.19837 0.0
C856 C 0.20423 0.88581 0.22472 0.0
C857 C 0.18874 0.87521 0.24786 0.0
C858 C 0.26426 0.9021 0.15318 0.0
C859 C 0.25401 0.89926 0.12509 0.0
C860 C 0.24828 0.89404 0.17697 0.0
C861 C 0.22171 0.8826 0.17336 0.0
C862 C 0.21123 0.88051 0.14533 0.0
C863 C 0.22706 0.88877 0.12162 0.0
H864 H 0.22176 0.83282 0.86887 0.0
H865 H 0.13936 0.83472 0.8337 0.0
H866 H 0.2071 0.79834 0.90358 0.0
H867 H 0.1247 0.79979 0.86868 0.0
H868 H 0.10518 0.74815 0.95179 0.0
H869 H 0.11691 0.78775 0.92081 0.0
H870 H 0.19491 0.74973 0.90053 0.0
H871 H 0.1834 0.71079 0.93092 0.0
C872 C 0.20042 0.82606 0.86854 0.0
C873 C 0.18191 0.83655 0.84802 0.0
C874 C 0.19201 0.80609 0.88852 0.0
C875 C 0.16475 0.79585 0.88885 0.0
C876 C 0.14583 0.80719 0.86922 0.0
C877 C 0.15431 0.82718 0.84902 0.0
C878 C 0.1248 0.74832 0.94068 0.0
C879 C 0.14325 0.72611 0.94395 0.0
C880 C 0.1315 0.77097 0.92282 0.0
C881 C 0.15698 0.77214 0.90817 0.0
C882 C 0.17532 0.74995 0.9117 0.0
C883 C 0.16854 0.72736 0.9291 0.0
H884 H 0.18015 0.68848 0.10387 0.0
H885 H 0.19173 0.61099 0.05998 0.0
H886 H 0.20808 0.67143 0.14388 0.0
H887 H 0.22084 0.59467 0.0991 0.0
H888 H 0.29735 0.59069 0.16124 0.0
H889 H 0.26863 0.60804 0.12177 0.0
H890 H 0.20585 0.63191 0.18228 0.0
H891 H 0.23384 0.61346 0.22138 0.0
C892 C 0.18877 0.66791 0.10256 0.0
C893 C 0.18357 0.6512 0.07842 0.0
C894 C 0.20486 0.65813 0.12555 0.0
C895 C 0.21711 0.63176 0.12463 0.0
C896 C 0.21207 0.61518 0.10045 0.0
C897 C 0.19524 0.62457 0.07797 0.0
C898 C 0.27739 0.59957 0.16607 0.0
C899 C 0.268 0.60062 0.19454 0.0
C900 C 0.26087 0.60941 0.14346 0.0
C901 C 0.23484 0.62137 0.14877 0.0
C902 C 0.22575 0.62296 0.17733 0.0
C903 C 0.24184 0.6123 0.19979 0.0
H904 H 0.34798 0.6303 0.3379 0.0
H905 H 0.32902 0.70564 0.29277 0.0
H906 H 0.35917 0.65687 0.38063 0.0
H907 H 0.34026 0.73245 0.33572 0.0
H908 H 0.38639 0.77326 0.41246 0.0
H909 H 0.37666 0.74779 0.36819 0.0
H910 H 0.3373 0.68318 0.41745 0.0
H911 H 0.34734 0.70819 0.46129 0.0
C912 C 0.34592 0.65256 0.33712 0.0
C913 C 0.33711 0.66566 0.31185 0.0
C914 C 0.35239 0.66791 0.36175 0.0
C915 C 0.35042 0.69698 0.36202 0.0
C916 C 0.34228 0.71018 0.33647 0.0
C917 C 0.33575 0.69476 0.31177 0.0
C918 C 0.37585 0.75352 0.41383 0.0
C919 C 0.36801 0.74276 0.44067 0.0
C920 C 0.37003 0.73896 0.38836 0.0
C921 C 0.35634 0.71313 0.38899 0.0
C922 C 0.34836 0.70262 0.41588 0.0
C923 C 0.35405 0.71715 0.44119 0.0
H924 H 0.32944 0.8586 0.57179 0.0
H925 H 0.32394 0.77644 0.60757 0.0
H926 H 0.30356 0.87671 0.61258 0.0
H927 H 0.2979 0.79452 0.6481 0.0
H928 H 0.28141 0.8411 0.73204 0.0
H929 H 0.30552 0.82334 0.69029 0.0
H930 H 0.25733 0.87651 0.63572 0.0
H931 H 0.23299 0.89444 0.67783 0.0
C932 C 0.32271 0.84433 0.58827 0.0
C933 C 0.32898 0.81598 0.58621 0.0
C934 C 0.30764 0.85474 0.61163 0.0
C935 C 0.2986 0.83717 0.63383 0.0
C936 C 0.30477 0.80881 0.6317 0.0
C937 C 0.31963 0.79838 0.60826 0.0
C938 C 0.27593 0.8492 0.71121 0.0
C939 C 0.25527 0.86945 0.70849 0.0
C940 C 0.28968 0.83876 0.68712 0.0
C941 C 0.28347 0.84837 0.65945 0.0
C942 C 0.26291 0.86877 0.65666 0.0
C943 C 0.24888 0.87904 0.68084 0.0
H944 H 0.60032 0.28087 0.18434 0.0
H945 H 0.67544 0.31481 0.21887 0.0
H946 H 0.6231 0.27254 0.13914 0.0
H947 H 0.69851 0.30832 0.17284 0.0
H948 H 0.72907 0.22608 0.12986 0.0
H949 H 0.71474 0.26658 0.156 0.0
H950 H 0.64716 0.27815 0.0967 0.0
H951 H 0.66064 0.23604 0.07182 0.0
C952 C 0.62148 0.28778 0.1816 0.0
C953 C 0.63623 0.29861 0.20467 0.0
C954 C 0.63463 0.28337 0.15552 0.0
C955 C 0.663 0.28936 0.15224 0.0
C956 C 0.67683 0.30306 0.17466 0.0
C957 C 0.66361 0.3072 0.20088 0.0
C958 C 0.71182 0.23791 0.12173 0.0
C959 C 0.69515 0.22742 0.09976 0.0
C960 C 0.70358 0.26143 0.13666 0.0
C961 C 0.67874 0.27483 0.12944 0.0
C962 C 0.66555 0.26745 0.10371 0.0
C963 C 0.67331 0.24344 0.08934 0.0
H964 H 0.6573 0.19747 0.3952 0.0
H965 H 0.69368 0.21073 0.4786 0.0
H966 H 0.70328 0.19536 0.37414 0.0
H967 H 0.73937 0.20813 0.45777 0.0
H968 H 0.81993 0.21241 0.41271 0.0
H969 H 0.77377 0.22709 0.4269 0.0
H970 H 0.73837 0.16084 0.37652 0.0
H971 H 0.78437 0.14713 0.36142 0.0
C972 C 0.67509 0.20037 0.40893 0.0
C973 C 0.67204 0.20369 0.43858 0.0
C974 C 0.70137 0.19906 0.39691 0.0
C975 C 0.72489 0.20132 0.41435 0.0
C976 C 0.72167 0.2066 0.44369 0.0
C977 C 0.69547 0.20781 0.45569 0.0
C978 C 0.80219 0.20104 0.40481 0.0
C979 C 0.80546 0.17839 0.38647 0.0
C980 C 0.77585 0.20949 0.41276 0.0
C981 C 0.7525 0.19505 0.4029 0.0
C982 C 0.75592 0.17267 0.38412 0.0
C983 C 0.78221 0.16455 0.3758 0.0
H984 H 0.8848 0.26047 0.61069 0.0
H985 H 0.81501 0.31466 0.61093 0.0
H986 H 0.88163 0.25603 0.66225 0.0
H987 H 0.81246 0.31241 0.66292 0.0
H988 H 0.78376 0.2401 0.72446 0.0
H989 H 0.79476 0.27462 0.68864 0.0
H990 H 0.88127 0.26905 0.71086 0.0
H991 H 0.87009 0.23308 0.74561 0.0
C992 C 0.86946 0.27247 0.62204 0.0
C993 C 0.85011 0.2882 0.60702 0.0
C994 C 0.86781 0.27033 0.65173 0.0
C995 C 0.84658 0.28375 0.66694 0.0
C996 C 0.82892 0.3016 0.65198 0.0
C997 C 0.83049 0.30336 0.62223 0.0
C998 C 0.80493 0.24724 0.72261 0.0
C999 C 0.82622 0.23349 0.7369 0.0
C1000 C 0.81135 0.26719 0.70207 0.0
C1001 C 0.83915 0.2737 0.69597 0.0
C1002 C 0.8598 0.26363 0.71429 0.0
C1003 C 0.85342 0.24319 0.73429 0.0
H1004 H 0.81402 0.29243 0.92525 0.0
H1005 H 0.76238 0.26197 0.99384 0.0
H1006 H 0.78486 0.26989 0.89054 0.0
H1007 H 0.73241 0.23931 0.95859 0.0
H1008 H 0.72542 0.24887 0.82854 0.0
H1009 H 0.75736 0.23434 0.86629 0.0
H1010 H 0.70328 0.27007 0.92983 0.0
H1011 H 0.67195 0.28439 0.89268 0.0
C1012 C 0.79662 0.28037 0.93291 0.0
C1013 C 0.78956 0.27997 0.96201 0.0
C1014 C 0.78018 0.26689 0.913 0.0
C1015 C 0.75588 0.25343 0.92179 0.0
C1016 C 0.75083 0.24995 0.95126 0.0
C1017 C 0.76771 0.26314 0.97135 0.0
C1018 C 0.72031 0.25315 0.85066 0.0
C1019 C 0.69704 0.26894 0.85767 0.0
C1020 C 0.73831 0.24451 0.87222 0.0
C1021 C 0.73307 0.2515 0.90095 0.0
C1022 C 0.70803 0.26432 0.90798 0.0
C1023 C 0.69037 0.27322 0.88655 0.0
H1024 H 0.20609 0.83053 0.68689 0.0
H1025 H 0.22553 0.77256 0.75426 0.0
H1026 H 0.21523 0.79551 0.65125 0.0
H1027 H 0.23473 0.73702 0.71814 0.0
H1028 H 0.22611 0.72801 0.58993 0.0
H1029 H 0.24375 0.7598 0.62654 0.0
H1030 H 0.19507 0.71731 0.69058 0.0
H1031 H 0.17751 0.68615 0.6546 0.0
C1032 C 0.21277 0.81033 0.69403 0.0
C1033 C 0.21399 0.80375 0.72327 0.0
C1034 C 0.21857 0.79042 0.67356 0.0
C1035 C 0.22521 0.76346 0.68199 0.0
C1036 C 0.2293 0.75767 0.7112 0.0
C1037 C 0.22383 0.77783 0.73179 0.0
C1038 C 0.21941 0.72546 0.6119 0.0
C1039 C 0.19983 0.70518 0.61929 0.0
C1040 C 0.22975 0.74335 0.63282 0.0
C1041 C 0.22085 0.74089 0.66135 0.0
C1042 C 0.20267 0.71946 0.66888 0.0
C1043 C 0.19212 0.70196 0.64806 0.0
H1044 H 0.34578 0.6601 0.93395 0.0
H1045 H 0.32607 0.61413 0.85731 0.0
H1046 H 0.31139 0.6338 0.96032 0.0
H1047 H 0.29241 0.58687 0.88402 0.0
H1048 H 0.20451 0.6004 0.92366 0.0
H1049 H 0.24848 0.60223 0.89932 0.0
H1050 H 0.29068 0.59278 0.9803 0.0
H1051 H 0.24602 0.59159 1.00485 0.0
C1052 C 0.33446 0.64398 0.92288 0.0
C1053 C 0.33778 0.63987 0.89336 0.0
C1054 C 0.31504 0.62853 0.93812 0.0
C1055 C 0.29881 0.60848 0.92415 0.0
C1056 C 0.30415 0.6026 0.89523 0.0
C1057 C 0.32329 0.61832 0.8799 0.0
C1058 C 0.22317 0.59777 0.93615 0.0
C1059 C 0.22206 0.59658 0.96608 0.0
C1060 C 0.24848 0.59856 0.92218 0.0
C1061 C 0.27318 0.59827 0.93795 0.0
C1062 C 0.27196 0.59361 0.96767 0.0
C1063 C 0.24646 0.59271 0.9817 0.0
H1064 H 0.24935 0.72272 0.21142 0.0
H1065 H 0.27493 0.66787 0.14344 0.0
H1066 H 0.24105 0.75897 0.17619 0.0
H1067 H 0.26604 0.70383 0.10854 0.0
H1068 H 0.31926 0.78661 0.09355 0.0
H1069 H 0.303 0.74388 0.11545 0.0
H1070 H 0.22171 0.77892 0.12573 0.0
H1071 H 0.23796 0.8218 0.10281 0.0
C1072 C 0.25197 0.71795 0.18894 0.0
C1073 C 0.26385 0.69288 0.18028 0.0
C1074 C 0.24695 0.73863 0.16875 0.0
C1075 C 0.2537 0.73424 0.13989 0.0
C1076 C 0.26113 0.70771 0.13081 0.0
C1077 C 0.26629 0.68716 0.1509 0.0
C1078 C 0.29779 0.78494 0.09992 0.0
C1079 C 0.27985 0.80728 0.0967 0.0
C1080 C 0.28838 0.76046 0.11213 0.0
C1081 C 0.261 0.75812 0.12188 0.0
C1082 C 0.24276 0.78023 0.11798 0.0
C1083 C 0.25206 0.8046 0.10501 0.0
H1084 H 0.27432 0.75019 0.48692 0.0
H1085 H 0.32042 0.79514 0.42262 0.0
H1086 H 0.24398 0.73181 0.44959 0.0
H1087 H 0.29029 0.77758 0.38593 0.0
H1088 H 0.17701 0.78086 0.39591 0.0
H1089 H 0.21019 0.76064 0.42774 0.0
H1090 H 0.26498 0.74588 0.35622 0.0
H1091 H 0.23083 0.76633 0.32388 0.0
C1092 C 0.27812 0.75591 0.46485 0.0
C1093 C 0.29872 0.77523 0.4578 0.0
C1094 C 0.26103 0.74513 0.44347 0.0
C1095 C 0.26427 0.75372 0.41485 0.0
C1096 C 0.28701 0.77045 0.40765 0.0
C1097 C 0.30393 0.7812 0.4289 0.0
C1098 C 0.19572 0.77245 0.38678 0.0
C1099 C 0.20202 0.77618 0.35775 0.0
C1100 C 0.21471 0.76037 0.40504 0.0
C1101 C 0.24075 0.75259 0.39468 0.0
C1102 C 0.24531 0.75242 0.36487 0.0
C1103 C 0.22593 0.76424 0.3464 0.0
H1104 H 0.83749 0.10527 0.84456 0.0
H1105 H 0.7662 0.06118 0.81338 0.0
H1106 H 0.81677 0.10754 0.89228 0.0
H1107 H 0.74535 0.06291 0.86113 0.0
H1108 H 0.70583 0.09863 0.9434 0.0
H1109 H 0.72538 0.09481 0.89545 0.0
H1110 H 0.80536 0.07756 0.93202 0.0
H1111 H 0.78598 0.08191 0.9799 0.0
C1112 C 0.81728 0.09617 0.84803 0.0
C1113 C 0.80299 0.08371 0.82537 0.0
C1114 C 0.80549 0.09723 0.87534 0.0
C1115 C 0.77936 0.08535 0.88061 0.0
C1116 C 0.76527 0.07264 0.85778 0.0
C1117 C 0.77708 0.07171 0.83045 0.0
C1118 C 0.7275 0.09362 0.94123 0.0
C1119 C 0.74433 0.09061 0.96555 0.0
C1120 C 0.73872 0.09143 0.9137 0.0
C1121 C 0.76702 0.08615 0.90983 0.0
C1122 C 0.78361 0.0822 0.93418 0.0
C1123 C 0.77242 0.08443 0.96167 0.0
H1124 H 0.86923 0.34521 0.09252 0.0
H1125 H 0.95708 0.33452 0.08603 0.0
H1126 H 0.86902 0.3221 0.13875 0.0
H1127 H 0.95788 0.31349 0.13349 0.0
H1128 H 0.94514 0.24277 0.19701 0.0
H1129 H 0.94853 0.27311 0.15599 0.0
H1130 H 0.87753 0.31868 0.18619 0.0
H1131 H 0.87353 0.2872 0.2266 0.0
C1132 C 0.88849 0.33779 0.10116 0.0
C1133 C 0.91287 0.34022 0.08524 0.0
C1134 C 0.88864 0.32512 0.1281 0.0
C1135 C 0.91343 0.31518 0.14009 0.0
C1136 C 0.93818 0.31974 0.12478 0.0
C1137 C 0.93786 0.33204 0.09764 0.0
C1138 C 0.93035 0.25939 0.195 0.0
C1139 C 0.90882 0.26227 0.21489 0.0
C1140 C 0.9325 0.2772 0.17153 0.0
C1141 C 0.91316 0.29851 0.16721 0.0
C1142 C 0.89237 0.30212 0.18801 0.0
C1143 C 0.89012 0.28412 0.2114 0.0
H1144 H 0.77598 0.45615 0.49605 0.0
H1145 H 0.81759 0.38123 0.47269 0.0
H1146 H 0.75033 0.4549 0.45094 0.0
H1147 H 0.79068 0.37815 0.42902 0.0
H1148 H 0.75685 0.38994 0.34071 0.0
H1149 H 0.78469 0.39634 0.38365 0.0
H1150 H 0.71448 0.43244 0.42667 0.0
H1151 H 0.68733 0.42744 0.38324 0.0
C1152 C 0.77923 0.43909 0.48144 0.0
C1153 C 0.79786 0.41801 0.48837 0.0
C1154 C 0.76441 0.4382 0.45567 0.0
C1155 C 0.76807 0.41624 0.4362 0.0
C1156 C 0.78724 0.39551 0.44315 0.0
C1157 C 0.80216 0.39667 0.4687 0.0
C1158 C 0.74755 0.39963 0.35923 0.0
C1159 C 0.71993 0.40825 0.3585 0.0
C1160 C 0.7634 0.40305 0.38404 0.0
C1161 C 0.75187 0.41466 0.40898 0.0
C1162 C 0.72434 0.42383 0.40792 0.0
C1163 C 0.70867 0.42086 0.38295 0.0
H1164 H 0.59295 0.31595 0.71038 0.0
H1165 H 0.55504 0.24213 0.74401 0.0
H1166 H 0.59488 0.29484 0.66272 0.0
H1167 H 0.55696 0.22073 0.69672 0.0
H1168 H 0.57656 0.18221 0.61161 0.0
H1169 H 0.58595 0.2026 0.65862 0.0
H1170 H 0.56082 0.28241 0.6265 0.0
H1171 H 0.55144 0.26174 0.5798 0.0
C1172 C 0.5855 0.29498 0.70758 0.0
C1173 C 0.57454 0.28026 0.73087 0.0
C1174 C 0.58646 0.28293 0.68034 0.0
C1175 C 0.57616 0.25601 0.67583 0.0
C1176 C 0.56566 0.24122 0.69944 0.0
C1177 C 0.56469 0.25333 0.72659 0.0
C1178 C 0.57357 0.2042 0.61462 0.0
C1179 C 0.56395 0.22065 0.59201 0.0
C1180 C 0.57881 0.21587 0.64151 0.0
C1181 C 0.57415 0.24418 0.64642 0.0
C1182 C 0.56521 0.26068 0.62342 0.0
C1183 C 0.56001 0.24896 0.59657 0.0
H1184 H 0.22143 0.53123 0.51182 0.0
H1185 H 0.17084 0.59812 0.48126 0.0
H1186 H 0.24861 0.53296 0.46726 0.0
H1187 H 0.19735 0.59929 0.43642 0.0
H1188 H 0.23271 0.56404 0.34955 0.0
H1189 H 0.20732 0.55582 0.39419 0.0
H1190 H 0.27888 0.58039 0.44284 0.0
H1191 H 0.30402 0.58981 0.39825 0.0
C1192 C 0.2161 0.54613 0.49544 0.0
C1193 C 0.19432 0.56469 0.4998 0.0
C1194 C 0.23156 0.5471 0.47009 0.0
C1195 C 0.22484 0.5661 0.44849 0.0
C1196 C 0.20272 0.58434 0.45274 0.0
C1197 C 0.18771 0.58378 0.47832 0.0
C1198 C 0.24325 0.56704 0.36976 0.0
C1199 C 0.27037 0.57747 0.37047 0.0
C1200 C 0.22866 0.56254 0.39522 0.0
C1201 C 0.2412 0.56764 0.42179 0.0
C1202 C 0.26885 0.57635 0.42257 0.0
C1203 C 0.2832 0.58162 0.39711 0.0
H1204 H 0.40354 0.67682 0.70737 0.0
H1205 H 0.43745 0.75222 0.74154 0.0
H1206 H 0.39636 0.69956 0.66104 0.0
H1207 H 0.4297 0.7754 0.69571 0.0
H1208 H 0.39886 0.81491 0.61385 0.0
H1209 H 0.39495 0.79174 0.66041 0.0
H1210 H 0.42802 0.71719 0.62322 0.0
H1211 H 0.43249 0.74077 0.57712 0.0
C1212 C 0.40876 0.69852 0.70513 0.0
C1213 C 0.4201 0.71314 0.72832 0.0
C1214 C 0.4048 0.71151 0.6786 0.0
C1215 C 0.41228 0.73941 0.67461 0.0
C1216 C 0.42308 0.75412 0.69812 0.0
C1217 C 0.42723 0.741 0.72453 0.0
C1218 C 0.40464 0.79336 0.6156 0.0
C1219 C 0.41505 0.77925 0.59168 0.0
C1220 C 0.40259 0.78014 0.64226 0.0
C1221 C 0.4111 0.75253 0.64563 0.0
C1222 C 0.42073 0.73824 0.62136 0.0
C1223 C 0.423 0.75159 0.5948 0.0
H1224 H 0.25929 0.95332 0.82846 0.0
H1225 H 0.18605 0.93612 0.87736 0.0
H1226 H 0.28678 0.95445 0.8726 0.0
H1227 H 0.21253 0.94063 0.92171 0.0
H1228 H 0.26695 0.98196 0.99268 0.0
H1229 H 0.24021 0.97802 0.94819 0.0
H1230 H 0.30076 0.92151 0.91447 0.0
H1231 H 0.32724 0.9253 0.95918 0.0
C1232 C 0.2494 0.94845 0.84859 0.0
C1233 C 0.22111 0.94229 0.84933 0.0
C1234 C 0.2649 0.94988 0.87394 0.0
C1235 C 0.25201 0.94688 0.90076 0.0
C1236 C 0.22331 0.94224 0.90149 0.0
C1237 C 0.20812 0.93965 0.87609 0.0
C1238 C 0.27428 0.96847 0.97584 0.0
C1239 C 0.29864 0.95328 0.97959 0.0
C1240 C 0.25906 0.96624 0.95038 0.0
C1241 C 0.26826 0.94931 0.92784 0.0
C1242 C 0.29311 0.93471 0.9314 0.0
C1243 C 0.30815 0.93669 0.95701 0.0
H1244 H 0.08497 0.69689 0.13589 0.0
H1245 H 0.10521 0.77119 0.08909 0.0
H1246 H 0.07176 0.72492 0.17735 0.0
H1247 H 0.0935 0.79905 0.13095 0.0
H1248 H 0.10831 0.83179 0.22383 0.0
H1249 H 0.11513 0.80515 0.17974 0.0
H1250 H 0.03864 0.76145 0.19533 0.0
H1251 H 0.03183 0.78844 0.23926 0.0
C1252 C 0.0864 0.7192 0.13442 0.0
C1253 C 0.09605 0.73181 0.10921 0.0
C1254 C 0.07891 0.73527 0.15816 0.0
C1255 C 0.08214 0.76422 0.15769 0.0
C1256 C 0.09117 0.77681 0.1322 0.0
C1257 C 0.09766 0.76083 0.10813 0.0
C1258 C 0.09304 0.81647 0.21775 0.0
C1259 C 0.06987 0.81169 0.23512 0.0
C1260 C 0.09676 0.80138 0.19242 0.0
C1261 C 0.07743 0.78109 0.18402 0.0
C1262 C 0.05402 0.7767 0.20131 0.0
C1263 C 0.05009 0.79213 0.22639 0.0
H1264 H 0.60197 0.08092 0.36977 0.0
H1265 H 0.57606 0.16604 0.3695 0.0
H1266 H 0.61438 0.08436 0.31934 0.0
H1267 H 0.58853 0.16966 0.31859 0.0
H1268 H 0.6456 0.09755 0.23081 0.0
H1269 H 0.64462 0.10484 0.28275 0.0
H1270 H 0.56822 0.14974 0.27421 0.0
H1271 H 0.56944 0.14239 0.22243 0.0
C1272 C 0.59948 0.10059 0.35899 0.0
C1273 C 0.58794 0.12317 0.37358 0.0
C1274 C 0.60675 0.10264 0.33005 0.0
C1275 C 0.6024 0.12727 0.3147 0.0
C1276 C 0.59198 0.15031 0.32965 0.0
C1277 C 0.58503 0.14834 0.35885 0.0
C1278 C 0.62922 0.10987 0.24 0.0
C1279 C 0.60782 0.11976 0.22258 0.0
C1280 C 0.62842 0.11378 0.26979 0.0
C1281 C 0.6062 0.12769 0.28283 0.0
C1282 C 0.5858 0.1392 0.26503 0.0
C1283 C 0.5865 0.13507 0.23531 0.0
H1284 H 0.94239 0.13549 0.48486 0.0
H1285 H 0.86552 0.09574 0.46276 0.0
H1286 H 0.92831 0.13702 0.53504 0.0
H1287 H 0.85134 0.09697 0.5132 0.0
H1288 H 0.86984 0.06033 0.60619 0.0
H1289 H 0.87049 0.07006 0.55487 0.0
H1290 H 0.89497 0.15429 0.57229 0.0
H1291 H 0.89402 0.14444 0.62383 0.0
C1292 C 0.92207 0.1279 0.49068 0.0
C1293 C 0.90499 0.11563 0.46992 0.0
C1294 C 0.91395 0.12878 0.51943 0.0
C1295 C 0.88874 0.11696 0.52823 0.0
C1296 C 0.87095 0.10611 0.50716 0.0
C1297 C 0.87892 0.10564 0.47826 0.0
C1298 C 0.87441 0.08117 0.59904 0.0
C1299 C 0.88172 0.10167 0.61896 0.0
C1300 C 0.87478 0.08678 0.56963 0.0
C1301 C 0.88295 0.11293 0.5594 0.0
C1302 C 0.88873 0.13391 0.57945 0.0
C1303 C 0.88793 0.12837 0.60895 0.0
H1304 H 0.84298 0.39447 0.70543 0.0
H1305 H 0.92588 0.36511 0.71833 0.0
H1306 H 0.83418 0.39064 0.75709 0.0
H1307 H 0.91737 0.36126 0.76963 0.0
H1308 H 0.85424 0.42691 0.84909 0.0
H1309 H 0.85151 0.41811 0.79772 0.0
H1310 H 0.89266 0.33997 0.80992 0.0
H1311 H 0.89535 0.34907 0.86156 0.0
C1312 C 0.85899 0.38637 0.71922 0.0
C1313 C 0.88506 0.37999 0.70792 0.0
C1314 C 0.85409 0.38442 0.74883 0.0
C1315 C 0.87512 0.3758 0.76769 0.0
C1316 C 0.90056 0.36766 0.75591 0.0
C1317 C 0.9055 0.36991 0.72647 0.0
C1318 C 0.86182 0.40743 0.84086 0.0
C1319 C 0.87475 0.38855 0.85929 0.0
C1320 C 0.86026 0.40233 0.81139 0.0
C1321 C 0.872 0.37837 0.7995 0.0
C1322 C 0.8836 0.35873 0.81826 0.0
C1323 C 0.8849 0.36376 0.84786 0.0
H1324 H 0.53712 0.36843 0.0763 0.0
H1325 H 0.62343 0.38544 0.0907 0.0
H1326 H 0.54651 0.35913 1.02595 0.0
H1327 H 0.63304 0.37623 0.03993 0.0
H1328 H 0.56964 0.33531 0.9371 0.0
H1329 H 0.57011 0.32996 0.98936 0.0
H1330 H 0.61998 0.40382 0.99668 0.0
H1331 H 0.61939 0.40904 0.94474 0.0
C1332 C 0.55825 0.36947 0.06873 0.0
C1333 C 0.57954 0.37773 0.08728 0.0
C1334 C 0.56368 0.36401 0.03991 0.0
C1335 C 0.59052 0.36703 1.02883 0.0
C1336 C 0.61212 0.37386 0.04779 0.0
C1337 C 0.6067 0.37897 0.07683 0.0
C1338 C 0.58137 0.34984 0.94991 0.0
C1339 C 0.59435 0.37265 0.93698 0.0
C1340 C 0.5815 0.34693 0.9798 0.0
C1341 C 0.59491 0.36659 0.99723 0.0
C1342 C 0.60966 0.38817 0.98397 0.0
C1343 C 0.60923 0.39126 0.95422 0.0
H1344 H 0.10037 0.63919 0.70622 0.0
H1345 H 0.12821 0.55684 0.72572 0.0
H1346 H 0.10148 0.65079 0.75736 0.0
H1347 H 0.12939 0.56821 0.77658 0.0
H1348 H 0.13698 0.59543 0.86755 0.0
H1349 H 0.14887 0.59547 0.81647 0.0
H1350 H 0.0716 0.63562 0.79741 0.0
H1351 H 0.05994 0.63545 0.84826 0.0
C1352 C 0.10762 0.62388 0.72135 0.0
C1353 C 0.11429 0.59714 0.71196 0.0
C1354 C 0.10798 0.6304 0.75069 0.0
C1355 C 0.11535 0.6104 0.77126 0.0
C1356 C 0.12388 0.58426 0.76151 0.0
C1357 C 0.12318 0.57769 0.73231 0.0
C1358 C 0.12309 0.60519 0.8525 0.0
C1359 C 0.09764 0.61563 0.86191 0.0
C1360 C 0.1297 0.60492 0.82318 0.0
C1361 C 0.1111 0.61533 0.80266 0.0
C1362 C 0.08658 0.62766 0.81246 0.0
C1363 C 0.07987 0.62761 0.84165 0.0
H1364 H 0.42296 0.6544 0.08445 0.0
H1365 H 0.35882 0.5941 0.07002 0.0
H1366 H 0.42903 0.65981 1.03275 0.0
H1367 H 0.36395 0.60004 1.01832 0.0
H1368 H 0.43135 0.66868 0.93602 0.0
H1369 H 0.41371 0.67258 0.9851 0.0
H1370 H 0.39876 0.58448 0.98664 0.0
H1371 H 0.4154 0.58087 0.93786 0.0
C1372 C 0.40933 0.64323 0.07012 0.0
C1373 C 0.39027 0.62404 0.08113 0.0
C1374 C 0.41281 0.64624 0.04045 0.0
C1375 C 0.39731 0.63003 1.02118 0.0
C1376 C 0.3767 0.61244 1.03241 0.0
C1377 C 0.37342 0.60929 0.06203 0.0
C1378 C 0.42386 0.65028 0.94677 0.0
C1379 C 0.42531 0.62438 0.93318 0.0
C1380 C 0.41391 0.65246 0.97498 0.0
C1381 C 0.40489 0.62884 0.99008 0.0
C1382 C 0.40518 0.60324 0.97582 0.0
C1383 C 0.41516 0.60107 0.94785 0.0
H1384 H 0.43585 0.87698 0.22555 0.0
H1385 H 0.35139 0.90428 0.22067 0.0
H1386 H 0.43039 0.86792 0.27658 0.0
H1387 H 0.34572 0.89512 0.27206 0.0
H1388 H 0.41335 0.84499 0.36763 0.0
H1389 H 0.4083 0.84139 0.31546 0.0
H1390 H 0.3645 0.91894 0.31451 0.0
H1391 H 0.36954 0.92231 0.36632 0.0
C1392 C 0.41586 0.88037 0.23533 0.0
C1393 C 0.39408 0.89143 0.21913 0.0
C1394 C 0.41266 0.87505 0.26461 0.0
C1395 C 0.38765 0.88092 0.27862 0.0
C1396 C 0.36534 0.89057 0.26204 0.0
C1397 C 0.36848 0.89561 0.23257 0.0
C1398 C 0.4019 0.86075 0.35629 0.0
C1399 C 0.39185 0.88392 0.37101 0.0
C1400 C 0.39923 0.85887 0.32639 0.0
C1401 C 0.38619 0.88001 0.31064 0.0
C1402 C 0.37443 0.90215 0.32579 0.0
C1403 C 0.37737 0.90415 0.35553 0.0
H1404 H 0.09825 0.85539 0.4848 0.0
H1405 H 0.15656 0.92276 0.48261 0.0
H1406 H 0.10194 0.85363 0.53704 0.0
H1407 H 0.16002 0.9216 0.53475 0.0
H1408 H 0.07803 0.89506 0.62324 0.0
H1409 H 0.08412 0.8839 0.57296 0.0
H1410 H 0.17156 0.90023 0.58041 0.0
H1411 H 0.16515 0.91194 0.63118 0.0
C1412 C 0.11276 0.86904 0.49545 0.0
C1413 C 0.12754 0.88883 0.47958 0.0
C1414 C 0.11455 0.86841 0.52546 0.0
C1415 C 0.13098 0.88777 0.5404 0.0
C1416 C 0.14735 0.90618 0.52422 0.0
C1417 C 0.14552 0.90678 0.49423 0.0
C1418 C 0.09865 0.89592 0.61429 0.0
C1419 C 0.12105 0.90468 0.63123 0.0
C1420 C 0.10223 0.88925 0.58538 0.0
C1421 C 0.12836 0.89118 0.5723 0.0
C1422 C 0.15107 0.89874 0.58958 0.0
C1423 C 0.14749 0.90524 0.61876 0.0
H1424 H 0.56985 0.03262 0.199 0.0
H1425 H 0.54353 0.06668 0.11804 0.0
H1426 H 0.53366 0.99808 0.19627 0.0
H1427 H 0.5085 0.03058 0.11416 0.0
H1428 H 0.42775 0.98313 0.13392 0.0
H1429 H 0.46551 0.01679 0.1327 0.0
H1430 H 0.51875 0.95771 0.17458 0.0
H1431 H 0.48055 0.9249 0.17697 0.0
C1432 C 0.55645 0.03267 0.18046 0.0
C1433 C 0.55955 0.05278 0.15892 0.0
C1434 C 0.53587 0.01245 0.17864 0.0
C1435 C 0.51797 0.01132 0.15494 0.0
C1436 C 0.52154 0.03095 0.13296 0.0
C1437 C 0.54199 0.05146 0.13497 0.0
C1438 C 0.44764 0.97741 0.14265 0.0
C1439 C 0.4512 0.95158 0.1558 0.0
C1440 C 0.46938 0.99662 0.14185 0.0
C1441 C 0.4953 0.99023 0.15381 0.0
C1442 C 0.499 0.96381 0.16586 0.0
C1443 C 0.47717 0.94486 0.16708 0.0
H1444 H 0.94341 0.02809 0.39665 0.0
H1445 H 0.00295 0.08521 0.43163 0.0
H1446 H 0.97734 0.99118 0.39834 0.0
H1447 H 0.03788 0.0489 0.43162 0.0
H1448 H 0.0853 0.97226 0.45662 0.0
H1449 H 0.05162 0.00904 0.45473 0.0
H1450 H 0.0166 0.97309 0.37811 0.0
H1451 H 0.04839 0.93476 0.38179 0.0
C1452 C 0.96406 0.03272 0.40422 0.0
C1453 C 0.97078 0.05929 0.41395 0.0
C1454 C 0.98362 0.01168 0.40501 0.0
C1455 C 0.01056 0.01692 0.41502 0.0
C1456 C 0.01728 0.04384 0.4243 0.0
C1457 C 0.99745 0.06475 0.42409 0.0
C1458 C 0.07007 0.97182 0.43969 0.0
C1459 C 0.06953 0.95024 0.41952 0.0
C1460 C 0.05101 0.99334 0.43826 0.0
C1461 C 0.03125 0.99424 0.41624 0.0
C1462 C 0.0311 0.97296 0.39572 0.0
C1463 C 0.04975 0.95111 0.39753 0.0
H1464 H 0.03319 0.55178 0.68851 0.0
H1465 H 0.06868 0.51885 0.61084 0.0
H1466 H 0.99662 0.51784 0.68619 0.0
H1467 H 0.03032 0.48644 0.60696 0.0
H1468 H 0.97371 0.41194 0.62487 0.0
H1469 H 0.01104 0.44605 0.62488 0.0
H1470 H 0.95626 0.50543 0.66419 0.0
H1471 H 0.91984 0.47055 0.66574 0.0
C1472 C 0.0333 0.5373 0.67086 0.0
C1473 C 0.05435 0.53803 0.65008 0.0
C1474 C 0.01178 0.51807 0.66917 0.0
C1475 C 0.01012 0.49928 0.64625 0.0
C1476 C 0.03094 0.50022 0.62518 0.0
C1477 C 0.05282 0.51919 0.62717 0.0
C1478 C 0.96979 0.43239 0.63332 0.0
C1479 C 0.94406 0.43867 0.64543 0.0
C1480 C 0.99111 0.45207 0.63322 0.0
C1481 C 0.98698 0.47866 0.64478 0.0
C1482 C 0.96068 0.48506 0.65585 0.0
C1483 C 0.93963 0.4652 0.6565 0.0
H1484 H 0.50791 0.57456 0.90776 0.0
H1485 H 0.46814 0.55637 0.82721 0.0
H1486 H 0.53371 0.53198 0.90451 0.0
H1487 H 0.49561 0.51439 0.82285 0.0
H1488 H 0.52231 0.42458 0.84469 0.0
H1489 H 0.49917 0.46934 0.84161 0.0
H1490 H 0.56923 0.50807 0.88293 0.0
H1491 H 0.59133 0.46313 0.88725 0.0
C1492 C 0.50486 0.5616 0.88913 0.0
C1493 C 0.48559 0.56887 0.86795 0.0
C1494 C 0.52008 0.53722 0.88701 0.0
C1495 C 0.51691 0.51945 0.86338 0.0
C1496 C 0.49838 0.52723 0.8416 0.0
C1497 C 0.48288 0.55159 0.84388 0.0
C1498 C 0.53277 0.44282 0.85275 0.0
C1499 C 0.55843 0.44044 0.86643 0.0
C1500 C 0.51961 0.46854 0.85092 0.0
C1501 C 0.53206 0.49252 0.86238 0.0
C1502 C 0.55852 0.49012 0.8746 0.0
C1503 C 0.57137 0.4644 0.87687 0.0
H1504 H 0.50192 0.43227 0.10858 0.0
H1505 H 0.54242 0.46255 0.18486 0.0
H1506 H 0.46993 0.47049 0.11059 0.0
H1507 H 0.5087 0.49934 0.18843 0.0
H1508 H 0.46366 0.58026 0.16801 0.0
H1509 H 0.49546 0.54128 0.16911 0.0
H1510 H 0.43182 0.48868 0.13319 0.0
H1511 H 0.40094 0.52832 0.13055 0.0
C1512 C 0.50406 0.44701 0.12586 0.0
C1513 C 0.52508 0.44423 0.14642 0.0
C1514 C 0.48521 0.46876 0.12737 0.0
C1515 C 0.4864 0.48814 0.14981 0.0
C1516 C 0.5072 0.48516 0.17059 0.0
C1517 C 0.52638 0.46368 0.16879 0.0
C1518 C 0.45653 0.5602 0.16075 0.0
C1519 C 0.42998 0.55711 0.14927 0.0
C1520 C 0.47468 0.53777 0.16142 0.0
C1521 C 0.46646 0.51164 0.15101 0.0
C1522 C 0.43928 0.50851 0.14071 0.0
C1523 C 0.42139 0.53108 0.13951 0.0
H1524 H 0.50381 0.07614 0.39682 0.0
H1525 H 0.54035 0.05492 0.47818 0.0
H1526 H 0.47441 0.03561 0.39954 0.0
H1527 H 0.50939 0.01517 0.48193 0.0
H1528 H 0.47434 0.92812 0.46069 0.0
H1529 H 0.50198 0.97049 0.4631 0.0
H1530 H 0.43631 0.01514 0.42108 0.0
H1531 H 0.40956 0.97255 0.41759 0.0
C1532 C 0.50545 0.06294 0.41547 0.0
C1533 C 0.52478 0.06879 0.43711 0.0
C1534 C 0.48818 0.03979 0.41727 0.0
C1535 C 0.48933 0.02188 0.441 0.0
C1536 C 0.50809 0.02817 0.46311 0.0
C1537 C 0.52562 0.05127 0.46116 0.0
C1538 C 0.46582 0.94712 0.45228 0.0
C1539 C 0.43998 0.94702 0.43869 0.0
C1540 C 0.48158 0.97149 0.45373 0.0
C1541 C 0.47165 0.99639 0.44195 0.0
C1542 C 0.44511 0.99636 0.42966 0.0
C1543 C 0.42962 0.97197 0.42783 0.0
H1544 H 0.08522 0.99847 0.67432 0.0
H1545 H 0.03645 0.93473 0.71453 0.0
H1546 H 0.0457 0.02951 0.67513 0.0
H1547 H 0.99609 0.96494 0.71387 0.0
H1548 H 0.93075 0.03148 0.72476 0.0
H1549 H 0.97212 0.00344 0.73056 0.0
H1550 H 0.00493 0.03722 0.65183 0.0
H1551 H 0.96513 0.06668 0.64748 0.0
C1552 C 0.06592 0.99121 0.68341 0.0
C1553 C 0.06383 0.96434 0.69446 0.0
C1554 C 0.04307 0.00883 0.68359 0.0
C1555 C 0.01726 -0.0002 0.69416 0.0
C1556 C 0.01551 0.97295 0.70585 0.0
C1557 C 0.03859 0.95551 0.70616 0.0
C1558 C 0.947 0.03325 0.70894 0.0
C1559 C 0.9442 0.05131 0.68548 0.0
C1560 C 0.97068 0.01683 0.71205 0.0
C1561 C 0.99218 0.01783 0.69169 0.0
C1562 C 0.9893 0.03601 0.66835 0.0
C1563 C 0.96595 0.05263 0.66549 0.0
H1564 H 0.01342 0.57219 0.95885 0.0
H1565 H 0.04721 0.53721 0.8813 0.0
H1566 H 0.97963 0.53489 0.96094 0.0
H1567 H 0.01197 0.50181 0.88183 0.0
H1568 H 0.96345 0.42529 0.90136 0.0
H1569 H -0.00133 0.46131 0.90352 0.0
H1570 H 0.93922 0.51701 0.9413 0.0
H1571 H 0.90468 0.48005 0.94068 0.0
C1572 C 0.01363 0.5567 0.94215 0.0
C1573 C 0.03317 0.55795 0.91987 0.0
C1574 C 0.99389 0.53545 0.9431 0.0
C1575 C 0.99291 0.5151 0.92159 0.0
C1576 C 0.01225 0.51663 0.89917 0.0
C1577 C 0.03224 0.53747 0.89852 0.0
C1578 C 0.95813 0.44522 0.9103 0.0
C1579 C 0.93149 0.45003 0.92082 0.0
C1580 C 0.97819 0.46603 0.91133 0.0
C1581 C 0.97187 0.49241 0.92225 0.0
C1582 C 0.94512 0.49697 0.9331 0.0
C1583 C 0.92522 0.4759 0.93262 0.0
loop_
_geom_bond_atom_site_label_1
_geom_bond_atom_site_label_2
_geom_bond_distance
_geom_bond_site_symmetry_2
_ccdc_geom_bond_type
O0 Tb1 2.292 1_556 S
O0 C3 1.255 . S
Tb1 O0 2.292 1_554 S
Tb1 O17 2.326 . S
Tb1 O19 2.500 1_554 S
Tb1 O20 2.473 . S
Tb1 O23 2.324 . S
Eu2 O6 2.292 . S
Eu2 C7 2.852 . S
Eu2 O18 2.324 . S
Eu2 O22 2.326 . S
Eu2 O24 2.500 . S
Eu2 O25 2.473 . S
C3 O0 1.255 . S
C3 O4 1.247 . S
O4 C3 1.247 . S
C5 O17 1.242 . S
C5 O18 1.258 . S
O6 Eu2 2.292 . S
O6 C8 1.255 . S
C7 Eu2 2.852 . S
C7 C11 1.503 . S
C7 O24 1.273 . S
C7 O25 1.257 . S
C8 O6 1.255 . S
C8 O9 1.247 . S
O9 C8 1.247 . S
C10 O22 1.242 . S
C10 O23 1.258 . S
C11 C7 1.503 . S
C11 C12 1.379 . S
C11 C16 1.392 . S
C12 C11 1.379 . S
C12 C13 1.404 . S
C12 H26 0.929 . S
C13 C12 1.404 . S
C13 C14 1.389 . S
C14 C13 1.389 . S
C14 C15 1.399 . S
C14 H27 0.931 . S
C15 C14 1.399 . S
C15 C16 1.390 . S
C16 C11 1.392 . S
C16 C15 1.390 . S
C16 H28 0.929 . S
O17 Tb1 2.326 . S
O17 C5 1.242 . S
O18 Eu2 2.324 . S
O18 C5 1.258 . S
O19 Tb1 2.500 1_556 S
O19 C21 1.273 1_556 S
O20 Tb1 2.473 . S
O20 C21 1.257 . S
C21 O19 1.273 1_554 S
C21 O20 1.257 . S
O22 Eu2 2.326 . S
O22 C10 1.242 . S
O23 Tb1 2.324 . S
O23 C10 1.258 . S
O24 Eu2 2.500 . S
O24 C7 1.273 . S
O25 Eu2 2.473 . S
O25 C7 1.257 . S
H26 C12 0.929 . S
H27 C14 0.931 . S
H28 C16 0.929 . S
O29 Tb30 2.292 . S
O29 C32 1.255 . S
Tb30 O29 2.292 . S
Tb30 O46 2.326 . S
Tb30 O48 2.500 . S
Tb30 O49 2.473 . S
Tb30 O52 2.324 . S
Eu31 O35 2.292 . S
Eu31 C36 2.852 . S
Eu31 O47 2.324 . S
Eu31 O51 2.326 . S
Eu31 O53 2.500 . S
Eu31 O54 2.473 . S
C32 O29 1.255 . S
C32 O33 1.247 . S
O33 C32 1.247 . S
C34 O46 1.242 . S
C34 O47 1.258 . S
O35 Eu31 2.292 . S
O35 C37 1.255 . S
C36 Eu31 2.852 . S
C36 C40 1.503 . S
C36 O53 1.273 . S
C36 O54 1.257 . S
C37 O35 1.255 . S
C37 O38 1.247 . S
O38 C37 1.247 . S
C39 O51 1.242 . S
C39 O52 1.258 . S
C40 C36 1.503 . S
C40 C41 1.379 . S
C40 C45 1.392 . S
C41 C40 1.379 . S
C41 C42 1.404 . S
C41 H55 0.929 . S
C42 C41 1.404 . S
C42 C43 1.389 . S
C43 C42 1.389 . S
C43 C44 1.399 . S
C43 H56 0.931 . S
C44 C43 1.399 . S
C44 C45 1.390 . S
C45 C40 1.392 . S
C45 C44 1.390 . S
C45 H57 0.929 . S
O46 Tb30 2.326 . S
O46 C34 1.242 . S
O47 Eu31 2.324 . S
O47 C34 1.258 . S
O48 Tb30 2.500 . S
O48 C50 1.273 . S
O49 Tb30 2.473 . S
O49 C50 1.257 . S
C50 O48 1.273 . S
C50 O49 1.257 . S
O51 Eu31 2.326 . S
O51 C39 1.242 . S
O52 Tb30 2.324 . S
O52 C39 1.258 . S
O53 Eu31 2.500 . S
O53 C36 1.273 . S
O54 Eu31 2.473 . S
O54 C36 1.257 . S
H55 C41 0.929 . S
H56 C43 0.931 . S
H57 C45 0.929 . S
O58 Tb59 2.292 . S
O58 C61 1.255 . S
Tb59 O58 2.292 . S
Tb59 O75 2.326 . S
Tb59 O77 2.500 . S
Tb59 O78 2.473 . S
Tb59 O81 2.324 . S
Eu60 O64 2.292 . S
Eu60 C65 2.852 . S
Eu60 O76 2.324 . S
Eu60 O80 2.326 . S
Eu60 O82 2.500 . S
Eu60 O83 2.473 . S
C61 O58 1.255 . S
C61 O62 1.247 . S
O62 C61 1.247 . S
C63 O75 1.242 . S
C63 O76 1.258 . S
O64 Eu60 2.292 . S
O64 C66 1.255 . S
C65 Eu60 2.852 . S
C65 C69 1.503 . S
C65 O82 1.273 . S
C65 O83 1.257 . S
C66 O64 1.255 . S
C66 O67 1.247 . S
O67 C66 1.247 . S
C68 O80 1.242 . S
C68 O81 1.258 . S
C69 C65 1.503 . S
C69 C70 1.379 . S
C69 C74 1.392 . S
C70 C69 1.379 . S
C70 C71 1.404 . S
C70 H84 0.929 . S
C71 C70 1.404 . S
C71 C72 1.389 . S
C72 C71 1.389 . S
C72 C73 1.399 . S
C72 H85 0.931 . S
C73 C72 1.399 . S
C73 C74 1.390 . S
C74 C69 1.392 . S
C74 C73 1.390 . S
C74 H86 0.929 . S
O75 Tb59 2.326 . S
O75 C63 1.242 . S
O76 Eu60 2.324 . S
O76 C63 1.258 . S
O77 Tb59 2.500 . S
O77 C79 1.273 . S
O78 Tb59 2.473 . S
O78 C79 1.257 . S
C79 O77 1.273 . S
C79 O78 1.257 . S
O80 Eu60 2.326 . S
O80 C68 1.242 . S
O81 Tb59 2.324 . S
O81 C68 1.258 . S
O82 Eu60 2.500 . S
O82 C65 1.273 . S
O83 Eu60 2.473 . S
O83 C65 1.257 . S
H84 C70 0.929 . S
H85 C72 0.931 . S
H86 C74 0.929 . S
O87 Tb88 2.292 . S
O87 C90 1.255 . S
Tb88 O87 2.292 . S
Tb88 O104 2.326 . S
Tb88 O106 2.500 . S
Tb88 O107 2.473 . S
Tb88 O110 2.324 . S
Eu89 O93 2.292 . S
Eu89 C94 2.852 . S
Eu89 O105 2.324 . S
Eu89 O109 2.326 . S
Eu89 O111 2.500 . S
Eu89 O112 2.473 . S
C90 O87 1.255 . S
C90 O91 1.247 . S
O91 C90 1.247 . S
C92 O104 1.242 . S
C92 O105 1.258 . S
O93 Eu89 2.292 . S
O93 C95 1.255 . S
C94 Eu89 2.852 . S
C94 C98 1.503 . S
C94 O111 1.273 . S
C94 O112 1.257 . S
C95 O93 1.255 . S
C95 O96 1.247 . S
O96 C95 1.247 . S
C97 O109 1.242 . S
C97 O110 1.258 . S
C98 C94 1.503 . S
C98 C99 1.379 . S
C98 C103 1.392 . S
C99 C98 1.379 . S
C99 C100 1.404 . S
C99 H113 0.929 . S
C100 C99 1.404 . S
C100 C101 1.389 . S
C101 C100 1.389 . S
C101 C102 1.399 . S
C101 H114 0.931 . S
C102 C101 1.399 . S
C102 C103 1.390 . S
C103 C98 1.392 . S
C103 C102 1.390 . S
C103 H115 0.929 . S
O104 Tb88 2.326 . S
O104 C92 1.242 . S
O105 Eu89 2.324 . S
O105 C92 1.258 . S
O106 Tb88 2.500 . S
O106 C108 1.273 . S
O107 Tb88 2.473 . S
O107 C108 1.257 . S
C108 O106 1.273 . S
C108 O107 1.257 . S
O109 Eu89 2.326 . S
O109 C97 1.242 . S
O110 Tb88 2.324 . S
O110 C97 1.258 . S
O111 Eu89 2.500 . S
O111 C94 1.273 . S
O112 Eu89 2.473 . S
O112 C94 1.257 . S
H113 C99 0.929 . S
H114 C101 0.931 . S
H115 C103 0.929 . S
O116 Tb117 2.292 . S
O116 C119 1.255 . S
Tb117 O116 2.292 . S
Tb117 O133 2.326 . S
Tb117 O135 2.500 . S
Tb117 O136 2.473 . S
Tb117 O139 2.324 . S
Eu118 O122 2.292 . S
Eu118 C123 2.852 . S
Eu118 O134 2.324 . S
Eu118 O138 2.326 . S
Eu118 O140 2.500 . S
Eu118 O141 2.473 . S
C119 O116 1.255 . S
C119 O120 1.247 . S
O120 C119 1.247 . S
C121 O133 1.242 . S
C121 O134 1.258 . S
O122 Eu118 2.292 . S
O122 C124 1.255 . S
C123 Eu118 2.852 . S
C123 C127 1.503 . S
C123 O140 1.273 . S
C123 O141 1.257 . S
C124 O122 1.255 . S
C124 O125 1.247 . S
O125 C124 1.247 . S
C126 O138 1.242 . S
C126 O139 1.258 . S
C127 C123 1.503 . S
C127 C128 1.379 . S
C127 C132 1.392 . S
C128 C127 1.379 . S
C128 C129 1.404 . S
C128 H142 0.929 . S
C129 C128 1.404 . S
C129 C130 1.389 . S
C130 C129 1.389 . S
C130 C131 1.399 . S
C130 H143 0.931 . S
C131 C130 1.399 . S
C131 C132 1.390 . S
C132 C127 1.392 . S
C132 C131 1.390 . S
C132 H144 0.929 . S
O133 Tb117 2.326 . S
O133 C121 1.242 . S
O134 Eu118 2.324 . S
O134 C121 1.258 . S
O135 Tb117 2.500 . S
O135 C137 1.273 . S
O136 Tb117 2.473 . S
O136 C137 1.257 . S
C137 O135 1.273 . S
C137 O136 1.257 . S
O138 Eu118 2.326 . S
O138 C126 1.242 . S
O139 Tb117 2.324 . S
O139 C126 1.258 . S
O140 Eu118 2.500 . S
O140 C123 1.273 . S
O141 Eu118 2.473 . S
O141 C123 1.257 . S
H142 C128 0.929 . S
H143 C130 0.931 . S
H144 C132 0.929 . S
O145 Tb146 2.292 . S
O145 C148 1.255 . S
Tb146 O145 2.292 . S
Tb146 O162 2.326 . S
Tb146 O164 2.500 . S
Tb146 O165 2.473 . S
Tb146 O168 2.324 . S
Eu147 O151 2.292 . S
Eu147 C152 2.852 . S
Eu147 O163 2.324 . S
Eu147 O167 2.326 . S
Eu147 O169 2.500 . S
Eu147 O170 2.473 . S
C148 O145 1.255 . S
C148 O149 1.247 . S
O149 C148 1.247 . S
C150 O162 1.242 . S
C150 O163 1.258 . S
O151 Eu147 2.292 . S
O151 C153 1.255 . S
C152 Eu147 2.852 . S
C152 C156 1.503 . S
C152 O169 1.273 . S
C152 O170 1.257 . S
C153 O151 1.255 . S
C153 O154 1.247 . S
O154 C153 1.247 . S
C155 O167 1.242 . S
C155 O168 1.258 . S
C156 C152 1.503 . S
C156 C157 1.379 . S
C156 C161 1.392 . S
C157 C156 1.379 . S
C157 C158 1.404 . S
C157 H171 0.929 . S
C158 C157 1.404 . S
C158 C159 1.389 . S
C159 C158 1.389 . S
C159 C160 1.399 . S
C159 H172 0.931 . S
C160 C159 1.399 . S
C160 C161 1.390 . S
C161 C156 1.392 . S
C161 C160 1.390 . S
C161 H173 0.929 . S
O162 Tb146 2.326 . S
O162 C150 1.242 . S
O163 Eu147 2.324 . S
O163 C150 1.258 . S
O164 Tb146 2.500 . S
O164 C166 1.273 . S
O165 Tb146 2.473 . S
O165 C166 1.257 . S
C166 O164 1.273 . S
C166 O165 1.257 . S
O167 Eu147 2.326 . S
O167 C155 1.242 . S
O168 Tb146 2.324 . S
O168 C155 1.258 . S
O169 Eu147 2.500 . S
O169 C152 1.273 . S
O170 Eu147 2.473 . S
O170 C152 1.257 . S
H171 C157 0.929 . S
H172 C159 0.931 . S
H173 C161 0.929 . S
O174 Tb175 2.292 . S
O174 C177 1.255 . S
Tb175 O174 2.292 . S
Tb175 O191 2.326 . S
Tb175 O193 2.500 . S
Tb175 O194 2.473 . S
Tb175 O197 2.324 . S
Eu176 O180 2.292 . S
Eu176 C181 2.852 . S
Eu176 O192 2.324 . S
Eu176 O196 2.326 . S
Eu176 O198 2.500 . S
Eu176 O199 2.473 . S
C177 O174 1.255 . S
C177 O178 1.247 . S
O178 C177 1.247 . S
C179 O191 1.242 . S
C179 O192 1.258 . S
O180 Eu176 2.292 . S
O180 C182 1.255 . S
C181 Eu176 2.852 . S
C181 C185 1.503 . S
C181 O198 1.273 . S
C181 O199 1.257 . S
C182 O180 1.255 . S
C182 O183 1.247 . S
O183 C182 1.247 . S
C184 O196 1.242 . S
C184 O197 1.258 . S
C185 C181 1.503 . S
C185 C186 1.379 . S
C185 C190 1.392 . S
C186 C185 1.379 . S
C186 C187 1.404 . S
C186 H200 0.929 . S
C187 C186 1.404 . S
C187 C188 1.389 . S
C188 C187 1.389 . S
C188 C189 1.399 . S
C188 H201 0.931 . S
C189 C188 1.399 . S
C189 C190 1.390 . S
C190 C185 1.392 . S
C190 C189 1.390 . S
C190 H202 0.929 . S
O191 Tb175 2.326 . S
O191 C179 1.242 . S
O192 Eu176 2.324 . S
O192 C179 1.258 . S
O193 Tb175 2.500 . S
O193 C195 1.273 . S
O194 Tb175 2.473 . S
O194 C195 1.257 . S
C195 O193 1.273 . S
C195 O194 1.257 . S
O196 Eu176 2.326 . S
O196 C184 1.242 . S
O197 Tb175 2.324 . S
O197 C184 1.258 . S
O198 Eu176 2.500 . S
O198 C181 1.273 . S
O199 Eu176 2.473 . S
O199 C181 1.257 . S
H200 C186 0.929 . S
H201 C188 0.931 . S
H202 C190 0.929 . S
O203 Tb204 2.292 1_554 S
O203 C206 1.255 . S
Tb204 O203 2.292 1_556 S
Tb204 O220 2.326 . S
Tb204 O222 2.500 1_556 S
Tb204 O223 2.473 . S
Tb204 O226 2.324 . S
Eu205 O209 2.292 . S
Eu205 C210 2.852 . S
Eu205 O221 2.324 . S
Eu205 O225 2.326 . S
Eu205 O227 2.500 . S
Eu205 O228 2.473 . S
C206 O203 1.255 . S
C206 O207 1.247 . S
O207 C206 1.247 . S
C208 O220 1.242 . S
C208 O221 1.258 . S
O209 Eu205 2.292 . S
O209 C211 1.255 . S
C210 Eu205 2.852 . S
C210 C214 1.503 . S
C210 O227 1.273 . S
C210 O228 1.257 . S
C211 O209 1.255 . S
C211 O212 1.247 . S
O212 C211 1.247 . S
C213 O225 1.242 . S
C213 O226 1.258 . S
C214 C210 1.503 . S
C214 C215 1.379 . S
C214 C219 1.392 . S
C215 C214 1.379 . S
C215 C216 1.404 . S
C215 H229 0.929 . S
C216 C215 1.404 . S
C216 C217 1.389 . S
C217 C216 1.389 . S
C217 C218 1.399 . S
C217 H230 0.931 . S
C218 C217 1.399 . S
C218 C219 1.390 . S
C219 C214 1.392 . S
C219 C218 1.390 . S
C219 H231 0.929 . S
O220 Tb204 2.326 . S
O220 C208 1.242 . S
O221 Eu205 2.324 . S
O221 C208 1.258 . S
O222 Tb204 2.500 1_554 S
O222 C224 1.273 1_554 S
O223 Tb204 2.473 . S
O223 C224 1.257 . S
C224 O222 1.273 1_556 S
C224 O223 1.257 . S
O225 Eu205 2.326 . S
O225 C213 1.242 . S
O226 Tb204 2.324 . S
O226 C213 1.258 . S
O227 Eu205 2.500 . S
O227 C210 1.273 . S
O228 Eu205 2.473 . S
O228 C210 1.257 . S
H229 C215 0.929 . S
H230 C217 0.931 . S
H231 C219 0.929 . S
O232 Tb233 2.292 . S
O232 C235 1.255 . S
Tb233 O232 2.292 . S
Tb233 O249 2.326 . S
Tb233 O251 2.500 . S
Tb233 O252 2.473 . S
Tb233 O255 2.324 . S
Eu234 O238 2.292 . S
Eu234 C239 2.852 . S
Eu234 O250 2.324 . S
Eu234 O254 2.326 . S
Eu234 O256 2.500 . S
Eu234 O257 2.473 . S
C235 O232 1.255 . S
C235 O236 1.247 . S
O236 C235 1.247 . S
C237 O249 1.242 . S
C237 O250 1.258 . S
O238 Eu234 2.292 . S
O238 C240 1.255 . S
C239 Eu234 2.852 . S
C239 C243 1.503 . S
C239 O256 1.273 . S
C239 O257 1.257 . S
C240 O238 1.255 . S
C240 O241 1.247 . S
O241 C240 1.247 . S
C242 O254 1.242 . S
C242 O255 1.258 . S
C243 C239 1.503 . S
C243 C244 1.379 . S
C243 C248 1.392 . S
C244 C243 1.379 . S
C244 C245 1.404 . S
C244 H258 0.929 . S
C245 C244 1.404 . S
C245 C246 1.389 . S
C246 C245 1.389 . S
C246 C247 1.399 . S
C246 H259 0.931 . S
C247 C246 1.399 . S
C247 C248 1.390 . S
C248 C243 1.392 . S
C248 C247 1.390 . S
C248 H260 0.929 . S
O249 Tb233 2.326 . S
O249 C237 1.242 . S
O250 Eu234 2.324 . S
O250 C237 1.258 . S
O251 Tb233 2.500 . S
O251 C253 1.273 . S
O252 Tb233 2.473 . S
O252 C253 1.257 . S
C253 O251 1.273 . S
C253 O252 1.257 . S
O254 Eu234 2.326 . S
O254 C242 1.242 . S
O255 Tb233 2.324 . S
O255 C242 1.258 . S
O256 Eu234 2.500 . S
O256 C239 1.273 . S
O257 Eu234 2.473 . S
O257 C239 1.257 . S
H258 C244 0.929 . S
H259 C246 0.931 . S
H260 C248 0.929 . S
O261 Tb262 2.292 . S
O261 C264 1.255 . S
Tb262 O261 2.292 . S
Tb262 O278 2.326 . S
Tb262 O280 2.500 . S
Tb262 O281 2.473 . S
Tb262 O284 2.324 . S
Eu263 O267 2.292 . S
Eu263 C268 2.852 . S
Eu263 O279 2.324 . S
Eu263 O283 2.326 . S
Eu263 O285 2.500 . S
Eu263 O286 2.473 . S
C264 O261 1.255 . S
C264 O265 1.247 . S
O265 C264 1.247 . S
C266 O278 1.242 . S
C266 O279 1.258 . S
O267 Eu263 2.292 . S
O267 C269 1.255 . S
C268 Eu263 2.852 . S
C268 C272 1.503 . S
C268 O285 1.273 . S
C268 O286 1.257 . S
C269 O267 1.255 . S
C269 O270 1.247 . S
O270 C269 1.247 . S
C271 O283 1.242 . S
C271 O284 1.258 . S
C272 C268 1.503 . S
C272 C273 1.379 . S
C272 C277 1.392 . S
C273 C272 1.379 . S
C273 C274 1.404 . S
C273 H287 0.929 . S
C274 C273 1.404 . S
C274 C275 1.389 . S
C275 C274 1.389 . S
C275 C276 1.399 . S
C275 H288 0.931 . S
C276 C275 1.399 . S
C276 C277 1.390 . S
C277 C272 1.392 . S
C277 C276 1.390 . S
C277 H289 0.929 . S
O278 Tb262 2.326 . S
O278 C266 1.242 . S
O279 Eu263 2.324 . S
O279 C266 1.258 . S
O280 Tb262 2.500 . S
O280 C282 1.273 . S
O281 Tb262 2.473 . S
O281 C282 1.257 . S
C282 O280 1.273 . S
C282 O281 1.257 . S
O283 Eu263 2.326 . S
O283 C271 1.242 . S
O284 Tb262 2.324 . S
O284 C271 1.258 . S
O285 Eu263 2.500 . S
O285 C268 1.273 . S
O286 Eu263 2.473 . S
O286 C268 1.257 . S
H287 C273 0.929 . S
H288 C275 0.931 . S
H289 C277 0.929 . S
O290 Tb291 2.292 1_556 S
O290 C293 1.255 . S
Tb291 O290 2.292 1_554 S
Tb291 O307 2.326 . S
Tb291 O309 2.500 1_554 S
Tb291 O310 2.473 . S
Tb291 O313 2.324 . S
Eu292 O296 2.292 . S
Eu292 C297 2.852 . S
Eu292 O308 2.324 . S
Eu292 O312 2.326 . S
Eu292 O314 2.500 . S
Eu292 O315 2.473 . S
C293 O290 1.255 . S
C293 O294 1.247 . S
O294 C293 1.247 . S
C295 O307 1.242 . S
C295 O308 1.258 . S
O296 Eu292 2.292 . S
O296 C298 1.255 . S
C297 Eu292 2.852 . S
C297 C301 1.503 . S
C297 O314 1.273 . S
C297 O315 1.257 . S
C298 O296 1.255 . S
C298 O299 1.247 . S
O299 C298 1.247 . S
C300 O312 1.242 . S
C300 O313 1.258 . S
C301 C297 1.503 . S
C301 C302 1.379 . S
C301 C306 1.392 . S
C302 C301 1.379 . S
C302 C303 1.404 . S
C302 H316 0.929 . S
C303 C302 1.404 . S
C303 C304 1.389 . S
C304 C303 1.389 . S
C304 C305 1.399 . S
C304 H317 0.931 . S
C305 C304 1.399 . S
C305 C306 1.390 . S
C306 C301 1.392 . S
C306 C305 1.390 . S
C306 H318 0.929 . S
O307 Tb291 2.326 . S
O307 C295 1.242 . S
O308 Eu292 2.324 . S
O308 C295 1.258 . S
O309 Tb291 2.500 1_556 S
O309 C311 1.273 1_556 S
O310 Tb291 2.473 . S
O310 C311 1.257 . S
C311 O309 1.273 1_554 S
C311 O310 1.257 . S
O312 Eu292 2.326 . S
O312 C300 1.242 . S
O313 Tb291 2.324 . S
O313 C300 1.258 . S
O314 Eu292 2.500 . S
O314 C297 1.273 . S
O315 Eu292 2.473 . S
O315 C297 1.257 . S
H316 C302 0.929 . S
H317 C304 0.931 . S
H318 C306 0.929 . S
O319 Tb320 2.292 . S
O319 C322 1.255 . S
Tb320 O319 2.292 . S
Tb320 O336 2.326 . S
Tb320 O338 2.500 . S
Tb320 O339 2.473 . S
Tb320 O342 2.324 . S
Eu321 O325 2.292 . S
Eu321 C326 2.852 . S
Eu321 O337 2.324 . S
Eu321 O341 2.326 . S
Eu321 O343 2.500 . S
Eu321 O344 2.473 . S
C322 O319 1.255 . S
C322 O323 1.247 . S
O323 C322 1.247 . S
C324 O336 1.242 . S
C324 O337 1.258 . S
O325 Eu321 2.292 . S
O325 C327 1.255 . S
C326 Eu321 2.852 . S
C326 C330 1.503 . S
C326 O343 1.273 . S
C326 O344 1.257 . S
C327 O325 1.255 . S
C327 O328 1.247 . S
O328 C327 1.247 . S
C329 O341 1.242 . S
C329 O342 1.258 . S
C330 C326 1.503 . S
C330 C331 1.379 . S
C330 C335 1.392 . S
C331 C330 1.379 . S
C331 C332 1.404 . S
C331 H345 0.929 . S
C332 C331 1.404 . S
C332 C333 1.389 . S
C333 C332 1.389 . S
C333 C334 1.399 . S
C333 H346 0.931 . S
C334 C333 1.399 . S
C334 C335 1.390 . S
C335 C330 1.392 . S
C335 C334 1.390 . S
C335 H347 0.929 . S
O336 Tb320 2.326 . S
O336 C324 1.242 . S
O337 Eu321 2.324 . S
O337 C324 1.258 . S
O338 Tb320 2.500 . S
O338 C340 1.273 . S
O339 Tb320 2.473 . S
O339 C340 1.257 . S
C340 O338 1.273 . S
C340 O339 1.257 . S
O341 Eu321 2.326 . S
O341 C329 1.242 . S
O342 Tb320 2.324 . S
O342 C329 1.258 . S
O343 Eu321 2.500 . S
O343 C326 1.273 . S
O344 Eu321 2.473 . S
O344 C326 1.257 . S
H345 C331 0.929 . S
H346 C333 0.931 . S
H347 C335 0.929 . S
O348 Tb349 2.292 . S
O348 C351 1.255 . S
Tb349 O348 2.292 . S
Tb349 O365 2.326 . S
Tb349 O367 2.500 . S
Tb349 O368 2.473 . S
Tb349 O371 2.324 . S
Eu350 O354 2.292 . S
Eu350 C355 2.852 . S
Eu350 O366 2.324 . S
Eu350 O370 2.326 . S
Eu350 O372 2.500 . S
Eu350 O373 2.473 . S
C351 O348 1.255 . S
C351 O352 1.247 . S
O352 C351 1.247 . S
C353 O365 1.242 . S
C353 O366 1.258 . S
O354 Eu350 2.292 . S
O354 C356 1.255 . S
C355 Eu350 2.852 . S
C355 C359 1.503 . S
C355 O372 1.273 . S
C355 O373 1.257 . S
C356 O354 1.255 . S
C356 O357 1.247 . S
O357 C356 1.247 . S
C358 O370 1.242 . S
C358 O371 1.258 . S
C359 C355 1.503 . S
C359 C360 1.379 . S
C359 C364 1.392 . S
C360 C359 1.379 . S
C360 C361 1.404 . S
C360 H374 0.929 . S
C361 C360 1.404 . S
C361 C362 1.389 . S
C362 C361 1.389 . S
C362 C363 1.399 . S
C362 H375 0.931 . S
C363 C362 1.399 . S
C363 C364 1.390 . S
C364 C359 1.392 . S
C364 C363 1.390 . S
C364 H376 0.929 . S
O365 Tb349 2.326 . S
O365 C353 1.242 . S
O366 Eu350 2.324 . S
O366 C353 1.258 . S
O367 Tb349 2.500 . S
O367 C369 1.273 . S
O368 Tb349 2.473 . S
O368 C369 1.257 . S
C369 O367 1.273 . S
C369 O368 1.257 . S
O370 Eu350 2.326 . S
O370 C358 1.242 . S
O371 Tb349 2.324 . S
O371 C358 1.258 . S
O372 Eu350 2.500 . S
O372 C355 1.273 . S
O373 Eu350 2.473 . S
O373 C355 1.257 . S
H374 C360 0.929 . S
H375 C362 0.931 . S
H376 C364 0.929 . S
O377 Tb378 2.292 1_554 S
O377 C380 1.255 . S
Tb378 O377 2.292 1_556 S
Tb378 O394 2.326 . S
Tb378 O396 2.500 1_556 S
Tb378 O397 2.473 . S
Tb378 O400 2.324 . S
Eu379 O383 2.292 . S
Eu379 C384 2.852 . S
Eu379 O395 2.324 . S
Eu379 O399 2.326 . S
Eu379 O401 2.500 . S
Eu379 O402 2.473 . S
C380 O377 1.255 . S
C380 O381 1.247 . S
O381 C380 1.247 . S
C382 O394 1.242 . S
C382 O395 1.258 . S
O383 Eu379 2.292 . S
O383 C385 1.255 . S
C384 Eu379 2.852 . S
C384 C388 1.503 . S
C384 O401 1.273 . S
C384 O402 1.257 . S
C385 O383 1.255 . S
C385 O386 1.247 . S
O386 C385 1.247 . S
C387 O399 1.242 . S
C387 O400 1.258 . S
C388 C384 1.503 . S
C388 C389 1.379 . S
C388 C393 1.392 . S
C389 C388 1.379 . S
C389 C390 1.404 . S
C389 H403 0.929 . S
C390 C389 1.404 . S
C390 C391 1.389 . S
C391 C390 1.389 . S
C391 C392 1.399 . S
C391 H404 0.931 . S
C392 C391 1.399 . S
C392 C393 1.390 . S
C393 C388 1.392 . S
C393 C392 1.390 . S
C393 H405 0.929 . S
O394 Tb378 2.326 . S
O394 C382 1.242 . S
O395 Eu379 2.324 . S
O395 C382 1.258 . S
O396 Tb378 2.500 1_554 S
O396 C398 1.273 1_554 S
O397 Tb378 2.473 . S
O397 C398 1.257 . S
C398 O396 1.273 1_556 S
C398 O397 1.257 . S
O399 Eu379 2.326 . S
O399 C387 1.242 . S
O400 Tb378 2.324 . S
O400 C387 1.258 . S
O401 Eu379 2.500 . S
O401 C384 1.273 . S
O402 Eu379 2.473 . S
O402 C384 1.257 . S
H403 C389 0.929 . S
H404 C391 0.931 . S
H405 C393 0.929 . S
O406 Tb407 2.292 . S
O406 C409 1.255 . S
Tb407 O406 2.292 . S
Tb407 O423 2.326 . S
Tb407 O425 2.500 . S
Tb407 O426 2.473 . S
Tb407 O429 2.324 . S
Eu408 O412 2.292 . S
Eu408 C413 2.852 . S
Eu408 O424 2.324 . S
Eu408 O428 2.326 . S
Eu408 O430 2.500 . S
Eu408 O431 2.473 . S
C409 O406 1.255 . S
C409 O410 1.247 . S
O410 C409 1.247 . S
C411 O423 1.242 . S
C411 O424 1.258 . S
O412 Eu408 2.292 . S
O412 C414 1.255 . S
C413 Eu408 2.852 . S
C413 C417 1.503 . S
C413 O430 1.273 . S
C413 O431 1.257 . S
C414 O412 1.255 . S
C414 O415 1.247 . S
O415 C414 1.247 . S
C416 O428 1.242 . S
C416 O429 1.258 . S
C417 C413 1.503 . S
C417 C418 1.379 . S
C417 C422 1.392 . S
C418 C417 1.379 . S
C418 C419 1.404 . S
C418 H432 0.929 . S
C419 C418 1.404 . S
C419 C420 1.389 . S
C420 C419 1.389 . S
C420 C421 1.399 . S
C420 H433 0.931 . S
C421 C420 1.399 . S
C421 C422 1.390 . S
C422 C417 1.392 . S
C422 C421 1.390 . S
C422 H434 0.929 . S
O423 Tb407 2.326 . S
O423 C411 1.242 . S
O424 Eu408 2.324 . S
O424 C411 1.258 . S
O425 Tb407 2.500 . S
O425 C427 1.273 . S
O426 Tb407 2.473 . S
O426 C427 1.257 . S
C427 O425 1.273 . S
C427 O426 1.257 . S
O428 Eu408 2.326 . S
O428 C416 1.242 . S
O429 Tb407 2.324 . S
O429 C416 1.258 . S
O430 Eu408 2.500 . S
O430 C413 1.273 . S
O431 Eu408 2.473 . S
O431 C413 1.257 . S
H432 C418 0.929 . S
H433 C420 0.931 . S
H434 C422 0.929 . S
O435 Tb436 2.292 . S
O435 C438 1.255 . S
Tb436 O435 2.292 . S
Tb436 O452 2.326 . S
Tb436 O454 2.500 . S
Tb436 O455 2.473 . S
Tb436 O458 2.324 . S
Eu437 O441 2.292 . S
Eu437 C442 2.852 . S
Eu437 O453 2.324 . S
Eu437 O457 2.326 . S
Eu437 O459 2.500 . S
Eu437 O460 2.473 . S
C438 O435 1.255 . S
C438 O439 1.247 . S
O439 C438 1.247 . S
C440 O452 1.242 . S
C440 O453 1.258 . S
O441 Eu437 2.292 . S
O441 C443 1.255 . S
C442 Eu437 2.852 . S
C442 C446 1.503 . S
C442 O459 1.273 . S
C442 O460 1.257 . S
C443 O441 1.255 . S
C443 O444 1.247 . S
O444 C443 1.247 . S
C445 O457 1.242 . S
C445 O458 1.258 . S
C446 C442 1.503 . S
C446 C447 1.379 . S
C446 C451 1.392 . S
C447 C446 1.379 . S
C447 C448 1.404 . S
C447 H461 0.929 . S
C448 C447 1.404 . S
C448 C449 1.389 . S
C449 C448 1.389 . S
C449 C450 1.399 . S
C449 H462 0.931 . S
C450 C449 1.399 . S
C450 C451 1.390 . S
C451 C446 1.392 . S
C451 C450 1.390 . S
C451 H463 0.929 . S
O452 Tb436 2.326 . S
O452 C440 1.242 . S
O453 Eu437 2.324 . S
O453 C440 1.258 . S
O454 Tb436 2.500 . S
O454 C456 1.273 . S
O455 Tb436 2.473 . S
O455 C456 1.257 . S
C456 O454 1.273 . S
C456 O455 1.257 . S
O457 Eu437 2.326 . S
O457 C445 1.242 . S
O458 Tb436 2.324 . S
O458 C445 1.258 . S
O459 Eu437 2.500 . S
O459 C442 1.273 . S
O460 Eu437 2.473 . S
O460 C442 1.257 . S
H461 C447 0.929 . S
H462 C449 0.931 . S
H463 C451 0.929 . S
H464 C472 0.950 . S
H465 C477 0.950 . S
H466 C474 0.950 . S
H467 C476 0.950 . S
H468 C478 0.950 . S
H469 C480 0.950 . S
H470 C482 0.950 . S
H471 C483 0.950 . S
C472 H464 0.950 . S
C472 C473 1.386 . S
C472 C474 1.391 . S
C473 C472 1.386 . S
C473 C477 1.393 1_554 S
C474 H466 0.950 . S
C474 C472 1.391 . S
C474 C475 1.408 . S
C475 C474 1.408 . S
C475 C476 1.391 1_554 S
C475 C481 1.490 1_554 S
C476 H467 0.950 . S
C476 C475 1.391 1_556 S
C476 C477 1.391 . S
C477 H465 0.950 . S
C477 C473 1.393 1_556 S
C477 C476 1.391 . S
C478 H468 0.950 . S
C478 C479 1.386 . S
C478 C480 1.391 . S
C479 C478 1.386 . S
C479 C483 1.393 1_556 S
C480 H469 0.950 . S
C480 C478 1.391 . S
C480 C481 1.408 . S
C481 C475 1.490 1_556 S
C481 C480 1.408 . S
C481 C482 1.391 1_556 S
C482 H470 0.950 . S
C482 C481 1.391 1_554 S
C482 C483 1.391 . S
C483 H471 0.950 . S
C483 C479 1.393 1_554 S
C483 C482 1.391 . S
H484 C492 0.950 . S
H485 C497 0.950 . S
H486 C494 0.950 . S
H487 C496 0.950 . S
H488 C498 0.950 . S
H489 C500 0.950 . S
H490 C502 0.950 . S
H491 C503 0.950 . S
C492 H484 0.950 . S
C492 C493 1.386 . S
C492 C494 1.391 . S
C493 C492 1.386 . S
C493 C497 1.393 . S
C494 H486 0.950 . S
C494 C492 1.391 . S
C494 C495 1.400 . S
C495 C494 1.400 . S
C495 C496 1.398 . S
C495 C501 1.491 . S
C496 H487 0.950 . S
C496 C495 1.398 . S
C496 C497 1.391 . S
C497 H485 0.950 . S
C497 C493 1.393 . S
C497 C496 1.391 . S
C498 H488 0.950 . S
C498 C499 1.386 . S
C498 C500 1.391 . S
C499 C498 1.386 . S
C499 C503 1.393 . S
C500 H489 0.950 . S
C500 C498 1.391 . S
C500 C501 1.400 . S
C501 C495 1.491 . S
C501 C500 1.400 . S
C501 C502 1.398 . S
C502 H490 0.950 . S
C502 C501 1.398 . S
C502 C503 1.391 . S
C503 H491 0.950 . S
C503 C499 1.393 . S
C503 C502 1.391 . S
H504 C512 0.950 . S
H505 C517 0.950 . S
H506 C514 0.950 . S
H507 C516 0.950 . S
H508 C518 0.950 . S
H509 C520 0.950 . S
H510 C522 0.950 . S
H511 C523 0.950 . S
C512 H504 0.950 . S
C512 C513 1.386 . S
C512 C514 1.391 . S
C513 C512 1.386 . S
C513 C517 1.393 . S
C514 H506 0.950 . S
C514 C512 1.391 . S
C514 C515 1.400 . S
C515 C514 1.400 . S
C515 C516 1.398 . S
C515 C521 1.491 . S
C516 H507 0.950 . S
C516 C515 1.398 . S
C516 C517 1.391 . S
C517 H505 0.950 . S
C517 C513 1.393 . S
C517 C516 1.391 . S
C518 H508 0.950 . S
C518 C519 1.386 . S
C518 C520 1.391 . S
C519 C518 1.386 . S
C519 C523 1.393 . S
C520 H509 0.950 . S
C520 C518 1.391 . S
C520 C521 1.400 . S
C521 C515 1.491 . S
C521 C520 1.400 . S
C521 C522 1.398 . S
C522 H510 0.950 . S
C522 C521 1.398 . S
C522 C523 1.391 . S
C523 H511 0.950 . S
C523 C519 1.393 . S
C523 C522 1.391 . S
H524 C532 0.950 . S
H525 C537 0.950 . S
H526 C534 0.950 . S
H527 C536 0.950 . S
H528 C538 0.950 . S
H529 C540 0.950 . S
H530 C542 0.950 . S
H531 C543 0.950 . S
C532 H524 0.950 . S
C532 C533 1.386 . S
C532 C534 1.391 . S
C533 C532 1.386 . S
C533 C537 1.393 . S
C534 H526 0.950 . S
C534 C532 1.391 . S
C534 C535 1.400 . S
C535 C534 1.400 . S
C535 C536 1.398 . S
C535 C541 1.491 . S
C536 H527 0.950 . S
C536 C535 1.398 . S
C536 C537 1.391 . S
C537 H525 0.950 . S
C537 C533 1.393 . S
C537 C536 1.391 . S
C538 H528 0.950 . S
C538 C539 1.386 . S
C538 C540 1.391 . S
C539 C538 1.386 . S
C539 C543 1.393 . S
C540 H529 0.950 . S
C540 C538 1.391 . S
C540 C541 1.400 . S
C541 C535 1.491 . S
C541 C540 1.400 . S
C541 C542 1.398 . S
C542 H530 0.950 . S
C542 C541 1.398 . S
C542 C543 1.391 . S
C543 H531 0.950 . S
C543 C539 1.393 . S
C543 C542 1.391 . S
H544 C552 0.950 . S
H545 C557 0.950 . S
H546 C554 0.950 . S
H547 C556 0.950 . S
H548 C558 0.950 . S
H549 C560 0.950 . S
H550 C562 0.950 . S
H551 C563 0.950 . S
C552 H544 0.950 . S
C552 C553 1.386 . S
C552 C554 1.391 . S
C553 C552 1.386 . S
C553 C557 1.393 . S
C554 H546 0.950 . S
C554 C552 1.391 . S
C554 C555 1.400 . S
C555 C554 1.400 . S
C555 C556 1.398 . S
C555 C561 1.491 . S
C556 H547 0.950 . S
C556 C555 1.398 . S
C556 C557 1.391 . S
C557 H545 0.950 . S
C557 C553 1.393 . S
C557 C556 1.391 . S
C558 H548 0.950 . S
C558 C559 1.386 . S
C558 C560 1.391 . S
C559 C558 1.386 . S
C559 C563 1.393 . S
C560 H549 0.950 . S
C560 C558 1.391 . S
C560 C561 1.400 . S
C561 C555 1.491 . S
C561 C560 1.400 . S
C561 C562 1.398 . S
C562 H550 0.950 . S
C562 C561 1.398 . S
C562 C563 1.391 . S
C563 H551 0.950 . S
C563 C559 1.393 . S
C563 C562 1.391 . S
H564 C572 0.950 . S
H565 C577 0.950 . S
H566 C574 0.950 . S
H567 C576 0.950 . S
H568 C578 0.950 . S
H569 C580 0.950 . S
H570 C582 0.950 . S
H571 C583 0.950 . S
C572 H564 0.950 . S
C572 C573 1.386 . S
C572 C574 1.391 . S
C573 C572 1.386 . S
C573 C577 1.393 . S
C574 H566 0.950 . S
C574 C572 1.391 . S
C574 C575 1.400 . S
C575 C574 1.400 . S
C575 C576 1.398 . S
C575 C581 1.491 . S
C576 H567 0.950 . S
C576 C575 1.398 . S
C576 C577 1.391 . S
C577 H565 0.950 . S
C577 C573 1.393 . S
C577 C576 1.391 . S
C578 H568 0.950 . S
C578 C579 1.386 . S
C578 C580 1.391 . S
C579 C578 1.386 . S
C579 C583 1.393 . S
C580 H569 0.950 . S
C580 C578 1.391 . S
C580 C581 1.400 . S
C581 C575 1.491 . S
C581 C580 1.400 . S
C581 C582 1.398 . S
C582 H570 0.950 . S
C582 C581 1.398 . S
C582 C583 1.391 . S
C583 H571 0.950 . S
C583 C579 1.393 . S
C583 C582 1.391 . S
H584 C592 0.950 . S
H585 C597 0.950 . S
H586 C594 0.950 . S
H587 C596 0.950 . S
H588 C598 0.950 . S
H589 C600 0.950 . S
H590 C602 0.950 . S
H591 C603 0.950 . S
C592 H584 0.950 . S
C592 C593 1.377 1_554 S
C592 C594 1.391 . S
C593 C592 1.377 1_556 S
C593 C597 1.402 . S
C594 H586 0.950 . S
C594 C592 1.391 . S
C594 C595 1.394 1_554 S
C595 C594 1.394 1_556 S
C595 C596 1.405 . S
C595 C601 1.490 1_556 S
C596 H587 0.950 . S
C596 C595 1.405 . S
C596 C597 1.391 . S
C597 H585 0.950 . S
C597 C593 1.402 . S
C597 C596 1.391 . S
C598 H588 0.950 . S
C598 C599 1.377 1_556 S
C598 C600 1.391 . S
C599 C598 1.377 1_554 S
C599 C603 1.402 . S
C600 H589 0.950 . S
C600 C598 1.391 . S
C600 C601 1.394 1_556 S
C601 C595 1.490 1_554 S
C601 C600 1.394 1_554 S
C601 C602 1.405 . S
C602 H590 0.950 . S
C602 C601 1.405 . S
C602 C603 1.391 . S
C603 H591 0.950 . S
C603 C599 1.402 . S
C603 C602 1.391 . S
H604 C612 0.950 . S
H605 C617 0.950 . S
H606 C614 0.950 . S
H607 C616 0.950 . S
H608 C618 0.950 . S
H609 C620 0.950 . S
H610 C622 0.950 . S
H611 C623 0.950 . S
C612 H604 0.950 . S
C612 C613 1.386 . S
C612 C614 1.391 . S
C613 C612 1.386 . S
C613 C617 1.393 . S
C614 H606 0.950 . S
C614 C612 1.391 . S
C614 C615 1.400 . S
C615 C614 1.400 . S
C615 C616 1.398 . S
C615 C621 1.491 . S
C616 H607 0.950 . S
C616 C615 1.398 . S
C616 C617 1.391 . S
C617 H605 0.950 . S
C617 C613 1.393 . S
C617 C616 1.391 . S
C618 H608 0.950 . S
C618 C619 1.386 . S
C618 C620 1.391 . S
C619 C618 1.386 . S
C619 C623 1.393 . S
C620 H609 0.950 . S
C620 C618 1.391 . S
C620 C621 1.400 . S
C621 C615 1.491 . S
C621 C620 1.400 . S
C621 C622 1.398 . S
C622 H610 0.950 . S
C622 C621 1.398 . S
C622 C623 1.391 . S
C623 H611 0.950 . S
C623 C619 1.393 . S
C623 C622 1.391 . S
H624 C632 0.950 . S
H625 C637 0.950 . S
H626 C634 0.950 . S
H627 C636 0.950 . S
H628 C638 0.950 . S
H629 C640 0.950 . S
H630 C642 0.950 . S
H631 C643 0.950 . S
C632 H624 0.950 . S
C632 C633 1.386 . S
C632 C634 1.391 . S
C633 C632 1.386 . S
C633 C637 1.393 . S
C634 H626 0.950 . S
C634 C632 1.391 . S
C634 C635 1.400 . S
C635 C634 1.400 . S
C635 C636 1.398 . S
C635 C641 1.491 . S
C636 H627 0.950 . S
C636 C635 1.398 . S
C636 C637 1.391 . S
C637 H625 0.950 . S
C637 C633 1.393 . S
C637 C636 1.391 . S
C638 H628 0.950 . S
C638 C639 1.386 . S
C638 C640 1.391 . S
C639 C638 1.386 . S
C639 C643 1.393 . S
C640 H629 0.950 . S
C640 C638 1.391 . S
C640 C641 1.400 . S
C641 C635 1.491 . S
C641 C640 1.400 . S
C641 C642 1.398 . S
C642 H630 0.950 . S
C642 C641 1.398 . S
C642 C643 1.391 . S
C643 H631 0.950 . S
C643 C639 1.393 . S
C643 C642 1.391 . S
H644 C652 0.950 . S
H645 C657 0.950 . S
H646 C654 0.950 . S
H647 C656 0.950 . S
H648 C658 0.950 . S
H649 C660 0.950 . S
H650 C662 0.950 . S
H651 C663 0.950 . S
C652 H644 0.950 . S
C652 C653 1.386 . S
C652 C654 1.391 . S
C653 C652 1.386 . S
C653 C657 1.393 . S
C654 H646 0.950 . S
C654 C652 1.391 . S
C654 C655 1.400 . S
C655 C654 1.400 . S
C655 C656 1.398 . S
C655 C661 1.491 . S
C656 H647 0.950 . S
C656 C655 1.398 . S
C656 C657 1.391 . S
C657 H645 0.950 . S
C657 C653 1.393 . S
C657 C656 1.391 . S
C658 H648 0.950 . S
C658 C659 1.386 . S
C658 C660 1.391 . S
C659 C658 1.386 . S
C659 C663 1.393 . S
C660 H649 0.950 . S
C660 C658 1.391 . S
C660 C661 1.400 . S
C661 C655 1.491 . S
C661 C660 1.400 . S
C661 C662 1.398 . S
C662 H650 0.950 . S
C662 C661 1.398 . S
C662 C663 1.391 . S
C663 H651 0.950 . S
C663 C659 1.393 . S
C663 C662 1.391 . S
H664 C672 0.950 . S
H665 C677 0.950 . S
H666 C674 0.950 . S
H667 C676 0.950 . S
H668 C678 0.950 . S
H669 C680 0.950 . S
H670 C682 0.950 . S
H671 C683 0.950 . S
C672 H664 0.950 . S
C672 C673 1.386 . S
C672 C674 1.391 . S
C673 C672 1.386 . S
C673 C677 1.393 . S
C674 H666 0.950 . S
C674 C672 1.391 . S
C674 C675 1.400 . S
C675 C674 1.400 . S
C675 C676 1.398 . S
C675 C681 1.491 . S
C676 H667 0.950 . S
C676 C675 1.398 . S
C676 C677 1.391 . S
C677 H665 0.950 . S
C677 C673 1.393 . S
C677 C676 1.391 . S
C678 H668 0.950 . S
C678 C679 1.386 . S
C678 C680 1.391 . S
C679 C678 1.386 . S
C679 C683 1.393 . S
C680 H669 0.950 . S
C680 C678 1.391 . S
C680 C681 1.400 . S
C681 C675 1.491 . S
C681 C680 1.400 . S
C681 C682 1.398 . S
C682 H670 0.950 . S
C682 C681 1.398 . S
C682 C683 1.391 . S
C683 H671 0.950 . S
C683 C679 1.393 . S
C683 C682 1.391 . S
H684 C692 0.950 . S
H685 C697 0.950 . S
H686 C694 0.950 . S
H687 C696 0.950 . S
H688 C698 0.950 . S
H689 C700 0.950 . S
H690 C702 0.950 . S
H691 C703 0.950 . S
C692 H684 0.950 . S
C692 C693 1.386 . S
C692 C694 1.391 . S
C693 C692 1.386 . S
C693 C697 1.393 . S
C694 H686 0.950 . S
C694 C692 1.391 . S
C694 C695 1.400 . S
C695 C694 1.400 . S
C695 C696 1.398 . S
C695 C701 1.491 . S
C696 H687 0.950 . S
C696 C695 1.398 . S
C696 C697 1.391 . S
C697 H685 0.950 . S
C697 C693 1.393 . S
C697 C696 1.391 . S
C698 H688 0.950 . S
C698 C699 1.386 . S
C698 C700 1.391 . S
C699 C698 1.386 . S
C699 C703 1.393 . S
C700 H689 0.950 . S
C700 C698 1.391 . S
C700 C701 1.400 . S
C701 C695 1.491 . S
C701 C700 1.400 . S
C701 C702 1.398 . S
C702 H690 0.950 . S
C702 C701 1.398 . S
C702 C703 1.391 . S
C703 H691 0.950 . S
C703 C699 1.393 . S
C703 C702 1.391 . S
H704 C712 0.950 . S
H705 C717 0.950 . S
H706 C714 0.950 . S
H707 C716 0.950 . S
H708 C718 0.950 . S
H709 C720 0.950 . S
H710 C722 0.950 . S
H711 C723 0.950 . S
C712 H704 0.950 . S
C712 C713 1.386 . S
C712 C714 1.391 . S
C713 C712 1.386 . S
C713 C717 1.393 . S
C714 H706 0.950 . S
C714 C712 1.391 . S
C714 C715 1.400 . S
C715 C714 1.400 . S
C715 C716 1.398 . S
C715 C721 1.491 . S
C716 H707 0.950 . S
C716 C715 1.398 . S
C716 C717 1.391 . S
C717 H705 0.950 . S
C717 C713 1.393 . S
C717 C716 1.391 . S
C718 H708 0.950 . S
C718 C719 1.386 . S
C718 C720 1.391 . S
C719 C718 1.386 . S
C719 C723 1.393 . S
C720 H709 0.950 . S
C720 C718 1.391 . S
C720 C721 1.400 . S
C721 C715 1.491 . S
C721 C720 1.400 . S
C721 C722 1.398 . S
C722 H710 0.950 . S
C722 C721 1.398 . S
C722 C723 1.391 . S
C723 H711 0.950 . S
C723 C719 1.393 . S
C723 C722 1.391 . S
H724 C732 0.950 . S
H725 C737 0.950 . S
H726 C734 0.950 . S
H727 C736 0.950 . S
H728 C738 0.950 . S
H729 C740 0.950 . S
H730 C742 0.950 . S
H731 C743 0.950 . S
C732 H724 0.950 . S
C732 C733 1.386 . S
C732 C734 1.391 . S
C733 C732 1.386 . S
C733 C737 1.393 . S
C734 H726 0.950 . S
C734 C732 1.391 . S
C734 C735 1.400 . S
C735 C734 1.400 . S
C735 C736 1.398 . S
C735 C741 1.491 . S
C736 H727 0.950 . S
C736 C735 1.398 . S
C736 C737 1.391 . S
C737 H725 0.950 . S
C737 C733 1.393 . S
C737 C736 1.391 . S
C738 H728 0.950 . S
C738 C739 1.386 . S
C738 C740 1.391 . S
C739 C738 1.386 . S
C739 C743 1.393 . S
C740 H729 0.950 . S
C740 C738 1.391 . S
C740 C741 1.400 . S
C741 C735 1.491 . S
C741 C740 1.400 . S
C741 C742 1.398 . S
C742 H730 0.950 . S
C742 C741 1.398 . S
C742 C743 1.391 . S
C743 H731 0.950 . S
C743 C739 1.393 . S
C743 C742 1.391 . S
H744 C752 0.950 . S
H745 C757 0.950 . S
H746 C754 0.950 . S
H747 C756 0.950 . S
H748 C758 0.950 . S
H749 C760 0.950 . S
H750 C762 0.950 . S
H751 C763 0.950 . S
C752 H744 0.950 . S
C752 C753 1.386 . S
C752 C754 1.391 . S
C753 C752 1.386 . S
C753 C757 1.393 . S
C754 H746 0.950 . S
C754 C752 1.391 . S
C754 C755 1.400 . S
C755 C754 1.400 . S
C755 C756 1.398 . S
C755 C761 1.491 . S
C756 H747 0.950 . S
C756 C755 1.398 . S
C756 C757 1.391 . S
C757 H745 0.950 . S
C757 C753 1.393 . S
C757 C756 1.391 . S
C758 H748 0.950 . S
C758 C759 1.386 . S
C758 C760 1.391 . S
C759 C758 1.386 . S
C759 C763 1.393 . S
C760 H749 0.950 . S
C760 C758 1.391 . S
C760 C761 1.400 . S
C761 C755 1.491 . S
C761 C760 1.400 . S
C761 C762 1.398 . S
C762 H750 0.950 . S
C762 C761 1.398 . S
C762 C763 1.391 . S
C763 H751 0.950 . S
C763 C759 1.393 . S
C763 C762 1.391 . S
H764 C772 0.950 . S
H765 C777 0.950 . S
H766 C774 0.950 . S
H767 C776 0.950 . S
H768 C778 0.950 . S
H769 C780 0.950 . S
H770 C782 0.950 . S
H771 C783 0.950 . S
C772 H764 0.950 . S
C772 C773 1.386 . S
C772 C774 1.391 . S
C773 C772 1.386 . S
C773 C777 1.393 . S
C774 H766 0.950 . S
C774 C772 1.391 . S
C774 C775 1.400 . S
C775 C774 1.400 . S
C775 C776 1.398 . S
C775 C781 1.491 . S
C776 H767 0.950 . S
C776 C775 1.398 . S
C776 C777 1.391 . S
C777 H765 0.950 . S
C777 C773 1.393 . S
C777 C776 1.391 . S
C778 H768 0.950 . S
C778 C779 1.386 . S
C778 C780 1.391 . S
C779 C778 1.386 . S
C779 C783 1.393 . S
C780 H769 0.950 . S
C780 C778 1.391 . S
C780 C781 1.400 . S
C781 C775 1.491 . S
C781 C780 1.400 . S
C781 C782 1.398 . S
C782 H770 0.950 . S
C782 C781 1.398 . S
C782 C783 1.391 . S
C783 H771 0.950 . S
C783 C779 1.393 . S
C783 C782 1.391 . S
H784 C792 0.950 . S
H785 C797 0.950 . S
H786 C794 0.950 . S
H787 C796 0.950 . S
H788 C798 0.950 . S
H789 C800 0.950 . S
H790 C802 0.950 . S
H791 C803 0.950 . S
C792 H784 0.950 . S
C792 C793 1.386 . S
C792 C794 1.391 . S
C793 C792 1.386 . S
C793 C797 1.393 . S
C794 H786 0.950 . S
C794 C792 1.391 . S
C794 C795 1.400 . S
C795 C794 1.400 . S
C795 C796 1.398 . S
C795 C801 1.491 . S
C796 H787 0.950 . S
C796 C795 1.398 . S
C796 C797 1.391 . S
C797 H785 0.950 . S
C797 C793 1.393 . S
C797 C796 1.391 . S
C798 H788 0.950 . S
C798 C799 1.386 . S
C798 C800 1.391 . S
C799 C798 1.386 . S
C799 C803 1.393 . S
C800 H789 0.950 . S
C800 C798 1.391 . S
C800 C801 1.400 . S
C801 C795 1.491 . S
C801 C800 1.400 . S
C801 C802 1.398 . S
C802 H790 0.950 . S
C802 C801 1.398 . S
C802 C803 1.391 . S
C803 H791 0.950 . S
C803 C799 1.393 . S
C803 C802 1.391 . S
H804 C812 0.950 . S
H805 C817 0.950 . S
H806 C814 0.950 . S
H807 C816 0.950 . S
H808 C818 0.950 . S
H809 C820 0.950 . S
H810 C822 0.950 . S
H811 C823 0.950 . S
C812 H804 0.950 . S
C812 C813 1.386 . S
C812 C814 1.391 . S
C813 C812 1.386 . S
C813 C817 1.393 . S
C814 H806 0.950 . S
C814 C812 1.391 . S
C814 C815 1.400 . S
C815 C814 1.400 . S
C815 C816 1.398 . S
C815 C821 1.491 . S
C816 H807 0.950 . S
C816 C815 1.398 . S
C816 C817 1.391 . S
C817 H805 0.950 . S
C817 C813 1.393 . S
C817 C816 1.391 . S
C818 H808 0.950 . S
C818 C819 1.386 . S
C818 C820 1.391 . S
C819 C818 1.386 . S
C819 C823 1.393 . S
C820 H809 0.950 . S
C820 C818 1.391 . S
C820 C821 1.400 . S
C821 C815 1.491 . S
C821 C820 1.400 . S
C821 C822 1.398 . S
C822 H810 0.950 . S
C822 C821 1.398 . S
C822 C823 1.391 . S
C823 H811 0.950 . S
C823 C819 1.393 . S
C823 C822 1.391 . S
H824 C832 0.950 . S
H825 C837 0.950 . S
H826 C834 0.950 . S
H827 C836 0.950 . S
H828 C838 0.950 . S
H829 C840 0.950 . S
H830 C842 0.950 . S
H831 C843 0.950 . S
C832 H824 0.950 . S
C832 C833 1.386 . S
C832 C834 1.391 . S
C833 C832 1.386 . S
C833 C837 1.393 . S
C834 H826 0.950 . S
C834 C832 1.391 . S
C834 C835 1.400 . S
C835 C834 1.400 . S
C835 C836 1.398 . S
C835 C841 1.491 . S
C836 H827 0.950 . S
C836 C835 1.398 . S
C836 C837 1.391 . S
C837 H825 0.950 . S
C837 C833 1.393 . S
C837 C836 1.391 . S
C838 H828 0.950 . S
C838 C839 1.386 . S
C838 C840 1.391 . S
C839 C838 1.386 . S
C839 C843 1.393 . S
C840 H829 0.950 . S
C840 C838 1.391 . S
C840 C841 1.400 . S
C841 C835 1.491 . S
C841 C840 1.400 . S
C841 C842 1.398 . S
C842 H830 0.950 . S
C842 C841 1.398 . S
C842 C843 1.391 . S
C843 H831 0.950 . S
C843 C839 1.393 . S
C843 C842 1.391 . S
H844 C852 0.950 . S
H845 C857 0.950 . S
H846 C854 0.950 . S
H847 C856 0.950 . S
H848 C858 0.950 . S
H849 C860 0.950 . S
H850 C862 0.950 . S
H851 C863 0.950 . S
C852 H844 0.950 . S
C852 C853 1.386 . S
C852 C854 1.391 . S
C853 C852 1.386 . S
C853 C857 1.393 . S
C854 H846 0.950 . S
C854 C852 1.391 . S
C854 C855 1.400 . S
C855 C854 1.400 . S
C855 C856 1.398 . S
C855 C861 1.491 . S
C856 H847 0.950 . S
C856 C855 1.398 . S
C856 C857 1.391 . S
C857 H845 0.950 . S
C857 C853 1.393 . S
C857 C856 1.391 . S
C858 H848 0.950 . S
C858 C859 1.386 . S
C858 C860 1.391 . S
C859 C858 1.386 . S
C859 C863 1.393 . S
C860 H849 0.950 . S
C860 C858 1.391 . S
C860 C861 1.400 . S
C861 C855 1.491 . S
C861 C860 1.400 . S
C861 C862 1.398 . S
C862 H850 0.950 . S
C862 C861 1.398 . S
C862 C863 1.391 . S
C863 H851 0.950 . S
C863 C859 1.393 . S
C863 C862 1.391 . S
H864 C872 0.950 . S
H865 C877 0.950 . S
H866 C874 0.950 . S
H867 C876 0.950 . S
H868 C878 0.950 . S
H869 C880 0.950 . S
H870 C882 0.950 . S
H871 C883 0.950 . S
C872 H864 0.950 . S
C872 C873 1.386 . S
C872 C874 1.391 . S
C873 C872 1.386 . S
C873 C877 1.393 . S
C874 H866 0.950 . S
C874 C872 1.391 . S
C874 C875 1.400 . S
C875 C874 1.400 . S
C875 C876 1.398 . S
C875 C881 1.491 . S
C876 H867 0.950 . S
C876 C875 1.398 . S
C876 C877 1.391 . S
C877 H865 0.950 . S
C877 C873 1.393 . S
C877 C876 1.391 . S
C878 H868 0.950 . S
C878 C879 1.386 . S
C878 C880 1.391 . S
C879 C878 1.386 . S
C879 C883 1.393 . S
C880 H869 0.950 . S
C880 C878 1.391 . S
C880 C881 1.400 . S
C881 C875 1.491 . S
C881 C880 1.400 . S
C881 C882 1.398 . S
C882 H870 0.950 . S
C882 C881 1.398 . S
C882 C883 1.391 . S
C883 H871 0.950 . S
C883 C879 1.393 . S
C883 C882 1.391 . S
H884 C892 0.950 . S
H885 C897 0.950 . S
H886 C894 0.950 . S
H887 C896 0.950 . S
H888 C898 0.950 . S
H889 C900 0.950 . S
H890 C902 0.950 . S
H891 C903 0.950 . S
C892 H884 0.950 . S
C892 C893 1.386 . S
C892 C894 1.391 . S
C893 C892 1.386 . S
C893 C897 1.393 . S
C894 H886 0.950 . S
C894 C892 1.391 . S
C894 C895 1.400 . S
C895 C894 1.400 . S
C895 C896 1.398 . S
C895 C901 1.491 . S
C896 H887 0.950 . S
C896 C895 1.398 . S
C896 C897 1.391 . S
C897 H885 0.950 . S
C897 C893 1.393 . S
C897 C896 1.391 . S
C898 H888 0.950 . S
C898 C899 1.386 . S
C898 C900 1.391 . S
C899 C898 1.386 . S
C899 C903 1.393 . S
C900 H889 0.950 . S
C900 C898 1.391 . S
C900 C901 1.400 . S
C901 C895 1.491 . S
C901 C900 1.400 . S
C901 C902 1.398 . S
C902 H890 0.950 . S
C902 C901 1.398 . S
C902 C903 1.391 . S
C903 H891 0.950 . S
C903 C899 1.393 . S
C903 C902 1.391 . S
H904 C912 0.950 . S
H905 C917 0.950 . S
H906 C914 0.950 . S
H907 C916 0.950 . S
H908 C918 0.950 . S
H909 C920 0.950 . S
H910 C922 0.950 . S
H911 C923 0.950 . S
C912 H904 0.950 . S
C912 C913 1.386 . S
C912 C914 1.391 . S
C913 C912 1.386 . S
C913 C917 1.393 . S
C914 H906 0.950 . S
C914 C912 1.391 . S
C914 C915 1.400 . S
C915 C914 1.400 . S
C915 C916 1.398 . S
C915 C921 1.491 . S
C916 H907 0.950 . S
C916 C915 1.398 . S
C916 C917 1.391 . S
C917 H905 0.950 . S
C917 C913 1.393 . S
C917 C916 1.391 . S
C918 H908 0.950 . S
C918 C919 1.386 . S
C918 C920 1.391 . S
C919 C918 1.386 . S
C919 C923 1.393 . S
C920 H909 0.950 . S
C920 C918 1.391 . S
C920 C921 1.400 . S
C921 C915 1.491 . S
C921 C920 1.400 . S
C921 C922 1.398 . S
C922 H910 0.950 . S
C922 C921 1.398 . S
C922 C923 1.391 . S
C923 H911 0.950 . S
C923 C919 1.393 . S
C923 C922 1.391 . S
H924 C932 0.950 . S
H925 C937 0.950 . S
H926 C934 0.950 . S
H927 C936 0.950 . S
H928 C938 0.950 . S
H929 C940 0.950 . S
H930 C942 0.950 . S
H931 C943 0.950 . S
C932 H924 0.950 . S
C932 C933 1.386 . S
C932 C934 1.391 . S
C933 C932 1.386 . S
C933 C937 1.393 . S
C934 H926 0.950 . S
C934 C932 1.391 . S
C934 C935 1.400 . S
C935 C934 1.400 . S
C935 C936 1.398 . S
C935 C941 1.491 . S
C936 H927 0.950 . S
C936 C935 1.398 . S
C936 C937 1.391 . S
C937 H925 0.950 . S
C937 C933 1.393 . S
C937 C936 1.391 . S
C938 H928 0.950 . S
C938 C939 1.386 . S
C938 C940 1.391 . S
C939 C938 1.386 . S
C939 C943 1.393 . S
C940 H929 0.950 . S
C940 C938 1.391 . S
C940 C941 1.400 . S
C941 C935 1.491 . S
C941 C940 1.400 . S
C941 C942 1.398 . S
C942 H930 0.950 . S
C942 C941 1.398 . S
C942 C943 1.391 . S
C943 H931 0.950 . S
C943 C939 1.393 . S
C943 C942 1.391 . S
H944 C952 0.950 . S
H945 C957 0.950 . S
H946 C954 0.950 . S
H947 C956 0.950 . S
H948 C958 0.950 . S
H949 C960 0.950 . S
H950 C962 0.950 . S
H951 C963 0.950 . S
C952 H944 0.950 . S
C952 C953 1.386 . S
C952 C954 1.391 . S
C953 C952 1.386 . S
C953 C957 1.393 . S
C954 H946 0.950 . S
C954 C952 1.391 . S
C954 C955 1.400 . S
C955 C954 1.400 . S
C955 C956 1.398 . S
C955 C961 1.491 . S
C956 H947 0.950 . S
C956 C955 1.398 . S
C956 C957 1.391 . S
C957 H945 0.950 . S
C957 C953 1.393 . S
C957 C956 1.391 . S
C958 H948 0.950 . S
C958 C959 1.386 . S
C958 C960 1.391 . S
C959 C958 1.386 . S
C959 C963 1.393 . S
C960 H949 0.950 . S
C960 C958 1.391 . S
C960 C961 1.400 . S
C961 C955 1.491 . S
C961 C960 1.400 . S
C961 C962 1.398 . S
C962 H950 0.950 . S
C962 C961 1.398 . S
C962 C963 1.391 . S
C963 H951 0.950 . S
C963 C959 1.393 . S
C963 C962 1.391 . S
H964 C972 0.950 . S
H965 C977 0.950 . S
H966 C974 0.950 . S
H967 C976 0.950 . S
H968 C978 0.950 . S
H969 C980 0.950 . S
H970 C982 0.950 . S
H971 C983 0.950 . S
C972 H964 0.950 . S
C972 C973 1.386 . S
C972 C974 1.391 . S
C973 C972 1.386 . S
C973 C977 1.393 . S
C974 H966 0.950 . S
C974 C972 1.391 . S
C974 C975 1.400 . S
C975 C974 1.400 . S
C975 C976 1.398 . S
C975 C981 1.491 . S
C976 H967 0.950 . S
C976 C975 1.398 . S
C976 C977 1.391 . S
C977 H965 0.950 . S
C977 C973 1.393 . S
C977 C976 1.391 . S
C978 H968 0.950 . S
C978 C979 1.386 . S
C978 C980 1.391 . S
C979 C978 1.386 . S
C979 C983 1.393 . S
C980 H969 0.950 . S
C980 C978 1.391 . S
C980 C981 1.400 . S
C981 C975 1.491 . S
C981 C980 1.400 . S
C981 C982 1.398 . S
C982 H970 0.950 . S
C982 C981 1.398 . S
C982 C983 1.391 . S
C983 H971 0.950 . S
C983 C979 1.393 . S
C983 C982 1.391 . S
H984 C992 0.950 . S
H985 C997 0.950 . S
H986 C994 0.950 . S
H987 C996 0.950 . S
H988 C998 0.950 . S
H989 C1000 0.950 . S
H990 C1002 0.950 . S
H991 C1003 0.950 . S
C992 H984 0.950 . S
C992 C993 1.386 . S
C992 C994 1.391 . S
C993 C992 1.386 . S
C993 C997 1.393 . S
C994 H986 0.950 . S
C994 C992 1.391 . S
C994 C995 1.400 . S
C995 C994 1.400 . S
C995 C996 1.398 . S
C995 C1001 1.491 . S
C996 H987 0.950 . S
C996 C995 1.398 . S
C996 C997 1.391 . S
C997 H985 0.950 . S
C997 C993 1.393 . S
C997 C996 1.391 . S
C998 H988 0.950 . S
C998 C999 1.386 . S
C998 C1000 1.391 . S
C999 C998 1.386 . S
C999 C1003 1.393 . S
C1000 H989 0.950 . S
C1000 C998 1.391 . S
C1000 C1001 1.400 . S
C1001 C995 1.491 . S
C1001 C1000 1.400 . S
C1001 C1002 1.398 . S
C1002 H990 0.950 . S
C1002 C1001 1.398 . S
C1002 C1003 1.391 . S
C1003 H991 0.950 . S
C1003 C999 1.393 . S
C1003 C1002 1.391 . S
H1004 C1012 0.950 . S
H1005 C1017 0.950 . S
H1006 C1014 0.950 . S
H1007 C1016 0.950 . S
H1008 C1018 0.950 . S
H1009 C1020 0.950 . S
H1010 C1022 0.950 . S
H1011 C1023 0.950 . S
C1012 H1004 0.950 . S
C1012 C1013 1.386 . S
C1012 C1014 1.391 . S
C1013 C1012 1.386 . S
C1013 C1017 1.393 . S
C1014 H1006 0.950 . S
C1014 C1012 1.391 . S
C1014 C1015 1.400 . S
C1015 C1014 1.400 . S
C1015 C1016 1.398 . S
C1015 C1021 1.491 . S
C1016 H1007 0.950 . S
C1016 C1015 1.398 . S
C1016 C1017 1.391 . S
C1017 H1005 0.950 . S
C1017 C1013 1.393 . S
C1017 C1016 1.391 . S
C1018 H1008 0.950 . S
C1018 C1019 1.386 . S
C1018 C1020 1.391 . S
C1019 C1018 1.386 . S
C1019 C1023 1.393 . S
C1020 H1009 0.950 . S
C1020 C1018 1.391 . S
C1020 C1021 1.400 . S
C1021 C1015 1.491 . S
C1021 C1020 1.400 . S
C1021 C1022 1.398 . S
C1022 H1010 0.950 . S
C1022 C1021 1.398 . S
C1022 C1023 1.391 . S
C1023 H1011 0.950 . S
C1023 C1019 1.393 . S
C1023 C1022 1.391 . S
H1024 C1032 0.950 . S
H1025 C1037 0.950 . S
H1026 C1034 0.950 . S
H1027 C1036 0.950 . S
H1028 C1038 0.950 . S
H1029 C1040 0.950 . S
H1030 C1042 0.950 . S
H1031 C1043 0.950 . S
C1032 H1024 0.950 . S
C1032 C1033 1.386 . S
C1032 C1034 1.391 . S
C1033 C1032 1.386 . S
C1033 C1037 1.393 . S
C1034 H1026 0.950 . S
C1034 C1032 1.391 . S
C1034 C1035 1.400 . S
C1035 C1034 1.400 . S
C1035 C1036 1.398 . S
C1035 C1041 1.491 . S
C1036 H1027 0.950 . S
C1036 C1035 1.398 . S
C1036 C1037 1.391 . S
C1037 H1025 0.950 . S
C1037 C1033 1.393 . S
C1037 C1036 1.391 . S
C1038 H1028 0.950 . S
C1038 C1039 1.386 . S
C1038 C1040 1.391 . S
C1039 C1038 1.386 . S
C1039 C1043 1.393 . S
C1040 H1029 0.950 . S
C1040 C1038 1.391 . S
C1040 C1041 1.400 . S
C1041 C1035 1.491 . S
C1041 C1040 1.400 . S
C1041 C1042 1.398 . S
C1042 H1030 0.950 . S
C1042 C1041 1.398 . S
C1042 C1043 1.391 . S
C1043 H1031 0.950 . S
C1043 C1039 1.393 . S
C1043 C1042 1.391 . S
H1044 C1052 0.950 . S
H1045 C1057 0.950 . S
H1046 C1054 0.950 . S
H1047 C1056 0.950 . S
H1048 C1058 0.950 . S
H1049 C1060 0.950 . S
H1050 C1062 0.950 . S
H1051 C1063 0.950 . S
C1052 H1044 0.950 . S
C1052 C1053 1.386 . S
C1052 C1054 1.391 . S
C1053 C1052 1.386 . S
C1053 C1057 1.393 . S
C1054 H1046 0.950 . S
C1054 C1052 1.391 . S
C1054 C1055 1.400 . S
C1055 C1054 1.400 . S
C1055 C1056 1.398 . S
C1055 C1061 1.491 . S
C1056 H1047 0.950 . S
C1056 C1055 1.398 . S
C1056 C1057 1.391 . S
C1057 H1045 0.950 . S
C1057 C1053 1.393 . S
C1057 C1056 1.391 . S
C1058 H1048 0.950 . S
C1058 C1059 1.386 . S
C1058 C1060 1.391 . S
C1059 C1058 1.386 . S
C1059 C1063 1.393 . S
C1060 H1049 0.950 . S
C1060 C1058 1.391 . S
C1060 C1061 1.400 . S
C1061 C1055 1.491 . S
C1061 C1060 1.400 . S
C1061 C1062 1.398 . S
C1062 H1050 0.950 . S
C1062 C1061 1.398 . S
C1062 C1063 1.391 . S
C1063 H1051 0.950 . S
C1063 C1059 1.393 . S
C1063 C1062 1.391 . S
H1064 C1072 0.950 . S
H1065 C1077 0.950 . S
H1066 C1074 0.950 . S
H1067 C1076 0.950 . S
H1068 C1078 0.950 . S
H1069 C1080 0.950 . S
H1070 C1082 0.950 . S
H1071 C1083 0.950 . S
C1072 H1064 0.950 . S
C1072 C1073 1.386 . S
C1072 C1074 1.391 . S
C1073 C1072 1.386 . S
C1073 C1077 1.393 . S
C1074 H1066 0.950 . S
C1074 C1072 1.391 . S
C1074 C1075 1.400 . S
C1075 C1074 1.400 . S
C1075 C1076 1.398 . S
C1075 C1081 1.491 . S
C1076 H1067 0.950 . S
C1076 C1075 1.398 . S
C1076 C1077 1.391 . S
C1077 H1065 0.950 . S
C1077 C1073 1.393 . S
C1077 C1076 1.391 . S
C1078 H1068 0.950 . S
C1078 C1079 1.386 . S
C1078 C1080 1.391 . S
C1079 C1078 1.386 . S
C1079 C1083 1.393 . S
C1080 H1069 0.950 . S
C1080 C1078 1.391 . S
C1080 C1081 1.400 . S
C1081 C1075 1.491 . S
C1081 C1080 1.400 . S
C1081 C1082 1.398 . S
C1082 H1070 0.950 . S
C1082 C1081 1.398 . S
C1082 C1083 1.391 . S
C1083 H1071 0.950 . S
C1083 C1079 1.393 . S
C1083 C1082 1.391 . S
H1084 C1092 0.950 . S
H1085 C1097 0.950 . S
H1086 C1094 0.950 . S
H1087 C1096 0.950 . S
H1088 C1098 0.950 . S
H1089 C1100 0.950 . S
H1090 C1102 0.950 . S
H1091 C1103 0.950 . S
C1092 H1084 0.950 . S
C1092 C1093 1.386 . S
C1092 C1094 1.391 . S
C1093 C1092 1.386 . S
C1093 C1097 1.393 . S
C1094 H1086 0.950 . S
C1094 C1092 1.391 . S
C1094 C1095 1.400 . S
C1095 C1094 1.400 . S
C1095 C1096 1.398 . S
C1095 C1101 1.491 . S
C1096 H1087 0.950 . S
C1096 C1095 1.398 . S
C1096 C1097 1.391 . S
C1097 H1085 0.950 . S
C1097 C1093 1.393 . S
C1097 C1096 1.391 . S
C1098 H1088 0.950 . S
C1098 C1099 1.386 . S
C1098 C1100 1.391 . S
C1099 C1098 1.386 . S
C1099 C1103 1.393 . S
C1100 H1089 0.950 . S
C1100 C1098 1.391 . S
C1100 C1101 1.400 . S
C1101 C1095 1.491 . S
C1101 C1100 1.400 . S
C1101 C1102 1.398 . S
C1102 H1090 0.950 . S
C1102 C1101 1.398 . S
C1102 C1103 1.391 . S
C1103 H1091 0.950 . S
C1103 C1099 1.393 . S
C1103 C1102 1.391 . S
H1104 C1112 0.950 . S
H1105 C1117 0.950 . S
H1106 C1114 0.950 . S
H1107 C1116 0.950 . S
H1108 C1118 0.950 . S
H1109 C1120 0.950 . S
H1110 C1122 0.950 . S
H1111 C1123 0.950 . S
C1112 H1104 0.950 . S
C1112 C1113 1.386 . S
C1112 C1114 1.391 . S
C1113 C1112 1.386 . S
C1113 C1117 1.393 . S
C1114 H1106 0.950 . S
C1114 C1112 1.391 . S
C1114 C1115 1.400 . S
C1115 C1114 1.400 . S
C1115 C1116 1.398 . S
C1115 C1121 1.491 . S
C1116 H1107 0.950 . S
C1116 C1115 1.398 . S
C1116 C1117 1.391 . S
C1117 H1105 0.950 . S
C1117 C1113 1.393 . S
C1117 C1116 1.391 . S
C1118 H1108 0.950 . S
C1118 C1119 1.386 . S
C1118 C1120 1.391 . S
C1119 C1118 1.386 . S
C1119 C1123 1.393 . S
C1120 H1109 0.950 . S
C1120 C1118 1.391 . S
C1120 C1121 1.400 . S
C1121 C1115 1.491 . S
C1121 C1120 1.400 . S
C1121 C1122 1.398 . S
C1122 H1110 0.950 . S
C1122 C1121 1.398 . S
C1122 C1123 1.391 . S
C1123 H1111 0.950 . S
C1123 C1119 1.393 . S
C1123 C1122 1.391 . S
H1124 C1132 0.950 . S
H1125 C1137 0.950 . S
H1126 C1134 0.950 . S
H1127 C1136 0.950 . S
H1128 C1138 0.950 . S
H1129 C1140 0.950 . S
H1130 C1142 0.950 . S
H1131 C1143 0.950 . S
C1132 H1124 0.950 . S
C1132 C1133 1.386 . S
C1132 C1134 1.391 . S
C1133 C1132 1.386 . S
C1133 C1137 1.393 . S
C1134 H1126 0.950 . S
C1134 C1132 1.391 . S
C1134 C1135 1.400 . S
C1135 C1134 1.400 . S
C1135 C1136 1.398 . S
C1135 C1141 1.491 . S
C1136 H1127 0.950 . S
C1136 C1135 1.398 . S
C1136 C1137 1.391 . S
C1137 H1125 0.950 . S
C1137 C1133 1.393 . S
C1137 C1136 1.391 . S
C1138 H1128 0.950 . S
C1138 C1139 1.386 . S
C1138 C1140 1.391 . S
C1139 C1138 1.386 . S
C1139 C1143 1.393 . S
C1140 H1129 0.950 . S
C1140 C1138 1.391 . S
C1140 C1141 1.400 . S
C1141 C1135 1.491 . S
C1141 C1140 1.400 . S
C1141 C1142 1.398 . S
C1142 H1130 0.950 . S
C1142 C1141 1.398 . S
C1142 C1143 1.391 . S
C1143 H1131 0.950 . S
C1143 C1139 1.393 . S
C1143 C1142 1.391 . S
H1144 C1152 0.950 . S
H1145 C1157 0.950 . S
H1146 C1154 0.950 . S
H1147 C1156 0.950 . S
H1148 C1158 0.950 . S
H1149 C1160 0.950 . S
H1150 C1162 0.950 . S
H1151 C1163 0.950 . S
C1152 H1144 0.950 . S
C1152 C1153 1.386 . S
C1152 C1154 1.391 . S
C1153 C1152 1.386 . S
C1153 C1157 1.393 . S
C1154 H1146 0.950 . S
C1154 C1152 1.391 . S
C1154 C1155 1.400 . S
C1155 C1154 1.400 . S
C1155 C1156 1.398 . S
C1155 C1161 1.491 . S
C1156 H1147 0.950 . S
C1156 C1155 1.398 . S
C1156 C1157 1.391 . S
C1157 H1145 0.950 . S
C1157 C1153 1.393 . S
C1157 C1156 1.391 . S
C1158 H1148 0.950 . S
C1158 C1159 1.386 . S
C1158 C1160 1.391 . S
C1159 C1158 1.386 . S
C1159 C1163 1.393 . S
C1160 H1149 0.950 . S
C1160 C1158 1.391 . S
C1160 C1161 1.400 . S
C1161 C1155 1.491 . S
C1161 C1160 1.400 . S
C1161 C1162 1.398 . S
C1162 H1150 0.950 . S
C1162 C1161 1.398 . S
C1162 C1163 1.391 . S
C1163 H1151 0.950 . S
C1163 C1159 1.393 . S
C1163 C1162 1.391 . S
H1164 C1172 0.950 . S
H1165 C1177 0.950 . S
H1166 C1174 0.950 . S
H1167 C1176 0.950 . S
H1168 C1178 0.950 . S
H1169 C1180 0.950 . S
H1170 C1182 0.950 . S
H1171 C1183 0.950 . S
C1172 H1164 0.950 . S
C1172 C1173 1.386 . S
C1172 C1174 1.391 . S
C1173 C1172 1.386 . S
C1173 C1177 1.393 . S
C1174 H1166 0.950 . S
C1174 C1172 1.391 . S
C1174 C1175 1.400 . S
C1175 C1174 1.400 . S
C1175 C1176 1.398 . S
C1175 C1181 1.491 . S
C1176 H1167 0.950 . S
C1176 C1175 1.398 . S
C1176 C1177 1.391 . S
C1177 H1165 0.950 . S
C1177 C1173 1.393 . S
C1177 C1176 1.391 . S
C1178 H1168 0.950 . S
C1178 C1179 1.386 . S
C1178 C1180 1.391 . S
C1179 C1178 1.386 . S
C1179 C1183 1.393 . S
C1180 H1169 0.950 . S
C1180 C1178 1.391 . S
C1180 C1181 1.400 . S
C1181 C1175 1.491 . S
C1181 C1180 1.400 . S
C1181 C1182 1.398 . S
C1182 H1170 0.950 . S
C1182 C1181 1.398 . S
C1182 C1183 1.391 . S
C1183 H1171 0.950 . S
C1183 C1179 1.393 . S
C1183 C1182 1.391 . S
H1184 C1192 0.950 . S
H1185 C1197 0.950 . S
H1186 C1194 0.950 . S
H1187 C1196 0.950 . S
H1188 C1198 0.950 . S
H1189 C1200 0.950 . S
H1190 C1202 0.950 . S
H1191 C1203 0.950 . S
C1192 H1184 0.950 . S
C1192 C1193 1.386 . S
C1192 C1194 1.391 . S
C1193 C1192 1.386 . S
C1193 C1197 1.393 . S
C1194 H1186 0.950 . S
C1194 C1192 1.391 . S
C1194 C1195 1.400 . S
C1195 C1194 1.400 . S
C1195 C1196 1.398 . S
C1195 C1201 1.491 . S
C1196 H1187 0.950 . S
C1196 C1195 1.398 . S
C1196 C1197 1.391 . S
C1197 H1185 0.950 . S
C1197 C1193 1.393 . S
C1197 C1196 1.391 . S
C1198 H1188 0.950 . S
C1198 C1199 1.386 . S
C1198 C1200 1.391 . S
C1199 C1198 1.386 . S
C1199 C1203 1.393 . S
C1200 H1189 0.950 . S
C1200 C1198 1.391 . S
C1200 C1201 1.400 . S
C1201 C1195 1.491 . S
C1201 C1200 1.400 . S
C1201 C1202 1.398 . S
C1202 H1190 0.950 . S
C1202 C1201 1.398 . S
C1202 C1203 1.391 . S
C1203 H1191 0.950 . S
C1203 C1199 1.393 . S
C1203 C1202 1.391 . S
H1204 C1212 0.950 . S
H1205 C1217 0.950 . S
H1206 C1214 0.950 . S
H1207 C1216 0.950 . S
H1208 C1218 0.950 . S
H1209 C1220 0.950 . S
H1210 C1222 0.950 . S
H1211 C1223 0.950 . S
C1212 H1204 0.950 . S
C1212 C1213 1.386 . S
C1212 C1214 1.391 . S
C1213 C1212 1.386 . S
C1213 C1217 1.393 . S
C1214 H1206 0.950 . S
C1214 C1212 1.391 . S
C1214 C1215 1.400 . S
C1215 C1214 1.400 . S
C1215 C1216 1.398 . S
C1215 C1221 1.491 . S
C1216 H1207 0.950 . S
C1216 C1215 1.398 . S
C1216 C1217 1.391 . S
C1217 H1205 0.950 . S
C1217 C1213 1.393 . S
C1217 C1216 1.391 . S
C1218 H1208 0.950 . S
C1218 C1219 1.386 . S
C1218 C1220 1.391 . S
C1219 C1218 1.386 . S
C1219 C1223 1.393 . S
C1220 H1209 0.950 . S
C1220 C1218 1.391 . S
C1220 C1221 1.400 . S
C1221 C1215 1.491 . S
C1221 C1220 1.400 . S
C1221 C1222 1.398 . S
C1222 H1210 0.950 . S
C1222 C1221 1.398 . S
C1222 C1223 1.391 . S
C1223 H1211 0.950 . S
C1223 C1219 1.393 . S
C1223 C1222 1.391 . S
H1224 C1232 0.950 . S
H1225 C1237 0.950 . S
H1226 C1234 0.950 . S
H1227 C1236 0.950 . S
H1228 C1238 0.950 . S
H1229 C1240 0.950 . S
H1230 C1242 0.950 . S
H1231 C1243 0.950 . S
C1232 H1224 0.950 . S
C1232 C1233 1.386 . S
C1232 C1234 1.391 . S
C1233 C1232 1.386 . S
C1233 C1237 1.393 . S
C1234 H1226 0.950 . S
C1234 C1232 1.391 . S
C1234 C1235 1.400 . S
C1235 C1234 1.400 . S
C1235 C1236 1.398 . S
C1235 C1241 1.491 . S
C1236 H1227 0.950 . S
C1236 C1235 1.398 . S
C1236 C1237 1.391 . S
C1237 H1225 0.950 . S
C1237 C1233 1.393 . S
C1237 C1236 1.391 . S
C1238 H1228 0.950 . S
C1238 C1239 1.386 . S
C1238 C1240 1.391 . S
C1239 C1238 1.386 . S
C1239 C1243 1.393 . S
C1240 H1229 0.950 . S
C1240 C1238 1.391 . S
C1240 C1241 1.400 . S
C1241 C1235 1.491 . S
C1241 C1240 1.400 . S
C1241 C1242 1.398 . S
C1242 H1230 0.950 . S
C1242 C1241 1.398 . S
C1242 C1243 1.391 . S
C1243 H1231 0.950 . S
C1243 C1239 1.393 . S
C1243 C1242 1.391 . S
H1244 C1252 0.950 . S
H1245 C1257 0.950 . S
H1246 C1254 0.950 . S
H1247 C1256 0.950 . S
H1248 C1258 0.950 . S
H1249 C1260 0.950 . S
H1250 C1262 0.950 . S
H1251 C1263 0.950 . S
C1252 H1244 0.950 . S
C1252 C1253 1.386 . S
C1252 C1254 1.391 . S
C1253 C1252 1.386 . S
C1253 C1257 1.393 . S
C1254 H1246 0.950 . S
C1254 C1252 1.391 . S
C1254 C1255 1.400 . S
C1255 C1254 1.400 . S
C1255 C1256 1.398 . S
C1255 C1261 1.491 . S
C1256 H1247 0.950 . S
C1256 C1255 1.398 . S
C1256 C1257 1.391 . S
C1257 H1245 0.950 . S
C1257 C1253 1.393 . S
C1257 C1256 1.391 . S
C1258 H1248 0.950 . S
C1258 C1259 1.386 . S
C1258 C1260 1.391 . S
C1259 C1258 1.386 . S
C1259 C1263 1.393 . S
C1260 H1249 0.950 . S
C1260 C1258 1.391 . S
C1260 C1261 1.400 . S
C1261 C1255 1.491 . S
C1261 C1260 1.400 . S
C1261 C1262 1.398 . S
C1262 H1250 0.950 . S
C1262 C1261 1.398 . S
C1262 C1263 1.391 . S
C1263 H1251 0.950 . S
C1263 C1259 1.393 . S
C1263 C1262 1.391 . S
H1264 C1272 0.950 . S
H1265 C1277 0.950 . S
H1266 C1274 0.950 . S
H1267 C1276 0.950 . S
H1268 C1278 0.950 . S
H1269 C1280 0.950 . S
H1270 C1282 0.950 . S
H1271 C1283 0.950 . S
C1272 H1264 0.950 . S
C1272 C1273 1.386 . S
C1272 C1274 1.391 . S
C1273 C1272 1.386 . S
C1273 C1277 1.393 . S
C1274 H1266 0.950 . S
C1274 C1272 1.391 . S
C1274 C1275 1.400 . S
C1275 C1274 1.400 . S
C1275 C1276 1.398 . S
C1275 C1281 1.491 . S
C1276 H1267 0.950 . S
C1276 C1275 1.398 . S
C1276 C1277 1.391 . S
C1277 H1265 0.950 . S
C1277 C1273 1.393 . S
C1277 C1276 1.391 . S
C1278 H1268 0.950 . S
C1278 C1279 1.386 . S
C1278 C1280 1.391 . S
C1279 C1278 1.386 . S
C1279 C1283 1.393 . S
C1280 H1269 0.950 . S
C1280 C1278 1.391 . S
C1280 C1281 1.400 . S
C1281 C1275 1.491 . S
C1281 C1280 1.400 . S
C1281 C1282 1.398 . S
C1282 H1270 0.950 . S
C1282 C1281 1.398 . S
C1282 C1283 1.391 . S
C1283 H1271 0.950 . S
C1283 C1279 1.393 . S
C1283 C1282 1.391 . S
H1284 C1292 0.950 . S
H1285 C1297 0.950 . S
H1286 C1294 0.950 . S
H1287 C1296 0.950 . S
H1288 C1298 0.950 . S
H1289 C1300 0.950 . S
H1290 C1302 0.950 . S
H1291 C1303 0.950 . S
C1292 H1284 0.950 . S
C1292 C1293 1.386 . S
C1292 C1294 1.391 . S
C1293 C1292 1.386 . S
C1293 C1297 1.393 . S
C1294 H1286 0.950 . S
C1294 C1292 1.391 . S
C1294 C1295 1.400 . S
C1295 C1294 1.400 . S
C1295 C1296 1.398 . S
C1295 C1301 1.491 . S
C1296 H1287 0.950 . S
C1296 C1295 1.398 . S
C1296 C1297 1.391 . S
C1297 H1285 0.950 . S
C1297 C1293 1.393 . S
C1297 C1296 1.391 . S
C1298 H1288 0.950 . S
C1298 C1299 1.386 . S
C1298 C1300 1.391 . S
C1299 C1298 1.386 . S
C1299 C1303 1.393 . S
C1300 H1289 0.950 . S
C1300 C1298 1.391 . S
C1300 C1301 1.400 . S
C1301 C1295 1.491 . S
C1301 C1300 1.400 . S
C1301 C1302 1.398 . S
C1302 H1290 0.950 . S
C1302 C1301 1.398 . S
C1302 C1303 1.391 . S
C1303 H1291 0.950 . S
C1303 C1299 1.393 . S
C1303 C1302 1.391 . S
H1304 C1312 0.950 . S
H1305 C1317 0.950 . S
H1306 C1314 0.950 . S
H1307 C1316 0.950 . S
H1308 C1318 0.950 . S
H1309 C1320 0.950 . S
H1310 C1322 0.950 . S
H1311 C1323 0.950 . S
C1312 H1304 0.950 . S
C1312 C1313 1.386 . S
C1312 C1314 1.391 . S
C1313 C1312 1.386 . S
C1313 C1317 1.393 . S
C1314 H1306 0.950 . S
C1314 C1312 1.391 . S
C1314 C1315 1.400 . S
C1315 C1314 1.400 . S
C1315 C1316 1.398 . S
C1315 C1321 1.491 . S
C1316 H1307 0.950 . S
C1316 C1315 1.398 . S
C1316 C1317 1.391 . S
C1317 H1305 0.950 . S
C1317 C1313 1.393 . S
C1317 C1316 1.391 . S
C1318 H1308 0.950 . S
C1318 C1319 1.386 . S
C1318 C1320 1.391 . S
C1319 C1318 1.386 . S
C1319 C1323 1.393 . S
C1320 H1309 0.950 . S
C1320 C1318 1.391 . S
C1320 C1321 1.400 . S
C1321 C1315 1.491 . S
C1321 C1320 1.400 . S
C1321 C1322 1.398 . S
C1322 H1310 0.950 . S
C1322 C1321 1.398 . S
C1322 C1323 1.391 . S
C1323 H1311 0.950 . S
C1323 C1319 1.393 . S
C1323 C1322 1.391 . S
H1324 C1332 0.950 . S
H1325 C1337 0.950 . S
H1326 C1334 0.950 . S
H1327 C1336 0.950 . S
H1328 C1338 0.950 . S
H1329 C1340 0.950 . S
H1330 C1342 0.950 . S
H1331 C1343 0.950 . S
C1332 H1324 0.950 . S
C1332 C1333 1.386 . S
C1332 C1334 1.391 . S
C1333 C1332 1.386 . S
C1333 C1337 1.393 . S
C1334 H1326 0.950 . S
C1334 C1332 1.391 . S
C1334 C1335 1.400 . S
C1335 C1334 1.400 . S
C1335 C1336 1.398 . S
C1335 C1341 1.491 1_554 S
C1336 H1327 0.950 . S
C1336 C1335 1.398 . S
C1336 C1337 1.391 . S
C1337 H1325 0.950 . S
C1337 C1333 1.393 . S
C1337 C1336 1.391 . S
C1338 H1328 0.950 . S
C1338 C1339 1.386 . S
C1338 C1340 1.391 . S
C1339 C1338 1.386 . S
C1339 C1343 1.393 . S
C1340 H1329 0.950 . S
C1340 C1338 1.391 . S
C1340 C1341 1.400 . S
C1341 C1335 1.491 1_556 S
C1341 C1340 1.400 . S
C1341 C1342 1.398 . S
C1342 H1330 0.950 . S
C1342 C1341 1.398 . S
C1342 C1343 1.391 . S
C1343 H1331 0.950 . S
C1343 C1339 1.393 . S
C1343 C1342 1.391 . S
H1344 C1352 0.950 . S
H1345 C1357 0.950 . S
H1346 C1354 0.950 . S
H1347 C1356 0.950 . S
H1348 C1358 0.950 . S
H1349 C1360 0.950 . S
H1350 C1362 0.950 . S
H1351 C1363 0.950 . S
C1352 H1344 0.950 . S
C1352 C1353 1.386 . S
C1352 C1354 1.391 . S
C1353 C1352 1.386 . S
C1353 C1357 1.393 . S
C1354 H1346 0.950 . S
C1354 C1352 1.391 . S
C1354 C1355 1.400 . S
C1355 C1354 1.400 . S
C1355 C1356 1.398 . S
C1355 C1361 1.491 . S
C1356 H1347 0.950 . S
C1356 C1355 1.398 . S
C1356 C1357 1.391 . S
C1357 H1345 0.950 . S
C1357 C1353 1.393 . S
C1357 C1356 1.391 . S
C1358 H1348 0.950 . S
C1358 C1359 1.386 . S
C1358 C1360 1.391 . S
C1359 C1358 1.386 . S
C1359 C1363 1.393 . S
C1360 H1349 0.950 . S
C1360 C1358 1.391 . S
C1360 C1361 1.400 . S
C1361 C1355 1.491 . S
C1361 C1360 1.400 . S
C1361 C1362 1.398 . S
C1362 H1350 0.950 . S
C1362 C1361 1.398 . S
C1362 C1363 1.391 . S
C1363 H1351 0.950 . S
C1363 C1359 1.393 . S
C1363 C1362 1.391 . S
H1364 C1372 0.950 . S
H1365 C1377 0.950 . S
H1366 C1374 0.950 . S
H1367 C1376 0.950 . S
H1368 C1378 0.950 . S
H1369 C1380 0.950 . S
H1370 C1382 0.950 . S
H1371 C1383 0.950 . S
C1372 H1364 0.950 . S
C1372 C1373 1.386 . S
C1372 C1374 1.391 . S
C1373 C1372 1.386 . S
C1373 C1377 1.393 . S
C1374 H1366 0.950 . S
C1374 C1372 1.391 . S
C1374 C1375 1.400 . S
C1375 C1374 1.400 . S
C1375 C1376 1.398 . S
C1375 C1381 1.491 1_554 S
C1376 H1367 0.950 . S
C1376 C1375 1.398 . S
C1376 C1377 1.391 . S
C1377 H1365 0.950 . S
C1377 C1373 1.393 . S
C1377 C1376 1.391 . S
C1378 H1368 0.950 . S
C1378 C1379 1.386 . S
C1378 C1380 1.391 . S
C1379 C1378 1.386 . S
C1379 C1383 1.393 . S
C1380 H1369 0.950 . S
C1380 C1378 1.391 . S
C1380 C1381 1.400 . S
C1381 C1375 1.491 1_556 S
C1381 C1380 1.400 . S
C1381 C1382 1.398 . S
C1382 H1370 0.950 . S
C1382 C1381 1.398 . S
C1382 C1383 1.391 . S
C1383 H1371 0.950 . S
C1383 C1379 1.393 . S
C1383 C1382 1.391 . S
H1384 C1392 0.950 . S
H1385 C1397 0.950 . S
H1386 C1394 0.950 . S
H1387 C1396 0.950 . S
H1388 C1398 0.950 . S
H1389 C1400 0.950 . S
H1390 C1402 0.950 . S
H1391 C1403 0.950 . S
C1392 H1384 0.950 . S
C1392 C1393 1.386 . S
C1392 C1394 1.391 . S
C1393 C1392 1.386 . S
C1393 C1397 1.393 . S
C1394 H1386 0.950 . S
C1394 C1392 1.391 . S
C1394 C1395 1.400 . S
C1395 C1394 1.400 . S
C1395 C1396 1.398 . S
C1395 C1401 1.491 . S
C1396 H1387 0.950 . S
C1396 C1395 1.398 . S
C1396 C1397 1.391 . S
C1397 H1385 0.950 . S
C1397 C1393 1.393 . S
C1397 C1396 1.391 . S
C1398 H1388 0.950 . S
C1398 C1399 1.386 . S
C1398 C1400 1.391 . S
C1399 C1398 1.386 . S
C1399 C1403 1.393 . S
C1400 H1389 0.950 . S
C1400 C1398 1.391 . S
C1400 C1401 1.400 . S
C1401 C1395 1.491 . S
C1401 C1400 1.400 . S
C1401 C1402 1.398 . S
C1402 H1390 0.950 . S
C1402 C1401 1.398 . S
C1402 C1403 1.391 . S
C1403 H1391 0.950 . S
C1403 C1399 1.393 . S
C1403 C1402 1.391 . S
H1404 C1412 0.950 . S
H1405 C1417 0.950 . S
H1406 C1414 0.950 . S
H1407 C1416 0.950 . S
H1408 C1418 0.950 . S
H1409 C1420 0.950 . S
H1410 C1422 0.950 . S
H1411 C1423 0.950 . S
C1412 H1404 0.950 . S
C1412 C1413 1.386 . S
C1412 C1414 1.391 . S
C1413 C1412 1.386 . S
C1413 C1417 1.393 . S
C1414 H1406 0.950 . S
C1414 C1412 1.391 . S
C1414 C1415 1.400 . S
C1415 C1414 1.400 . S
C1415 C1416 1.398 . S
C1415 C1421 1.491 . S
C1416 H1407 0.950 . S
C1416 C1415 1.398 . S
C1416 C1417 1.391 . S
C1417 H1405 0.950 . S
C1417 C1413 1.393 . S
C1417 C1416 1.391 . S
C1418 H1408 0.950 . S
C1418 C1419 1.386 . S
C1418 C1420 1.391 . S
C1419 C1418 1.386 . S
C1419 C1423 1.393 . S
C1420 H1409 0.950 . S
C1420 C1418 1.391 . S
C1420 C1421 1.400 . S
C1421 C1415 1.491 . S
C1421 C1420 1.400 . S
C1421 C1422 1.398 . S
C1422 H1410 0.950 . S
C1422 C1421 1.398 . S
C1422 C1423 1.391 . S
C1423 H1411 0.950 . S
C1423 C1419 1.393 . S
C1423 C1422 1.391 . S
H1424 C1432 0.950 . S
H1425 C1437 0.950 . S
H1426 C1434 0.950 . S
H1427 C1436 0.950 . S
H1428 C1438 0.950 . S
H1429 C1440 0.950 . S
H1430 C1442 0.950 . S
H1431 C1443 0.950 . S
C1432 H1424 0.950 . S
C1432 C1433 1.386 1_565 S
C1432 C1434 1.391 . S
C1433 C1432 1.386 1_545 S
C1433 C1437 1.393 . S
C1434 H1426 0.950 . S
C1434 C1432 1.391 . S
C1434 C1435 1.400 1_565 S
C1435 C1434 1.400 1_545 S
C1435 C1436 1.398 . S
C1435 C1441 1.491 1_545 S
C1436 H1427 0.950 . S
C1436 C1435 1.398 . S
C1436 C1437 1.391 . S
C1437 H1425 0.950 . S
C1437 C1433 1.393 . S
C1437 C1436 1.391 . S
C1438 H1428 0.950 . S
C1438 C1439 1.386 1_545 S
C1438 C1440 1.391 . S
C1439 C1438 1.386 1_565 S
C1439 C1443 1.393 . S
C1440 H1429 0.950 . S
C1440 C1438 1.391 . S
C1440 C1441 1.400 1_545 S
C1441 C1435 1.491 1_565 S
C1441 C1440 1.400 1_565 S
C1441 C1442 1.398 . S
C1442 H1430 0.950 . S
C1442 C1441 1.398 . S
C1442 C1443 1.391 . S
C1443 H1431 0.950 . S
C1443 C1439 1.393 . S
C1443 C1442 1.391 . S
H1444 C1452 0.950 . S
H1445 C1457 0.950 1_455 S
H1446 C1454 0.950 . S
H1447 C1456 0.950 . S
H1448 C1458 0.950 . S
H1449 C1460 0.950 . S
H1450 C1462 0.950 . S
H1451 C1463 0.950 1_655 S
C1452 H1444 0.950 . S
C1452 C1453 1.386 . S
C1452 C1454 1.391 . S
C1453 C1452 1.386 . S
C1453 C1457 1.392 . S
C1454 H1446 0.950 . S
C1454 C1452 1.391 . S
C1454 C1455 1.400 . S
C1455 C1454 1.400 . S
C1455 C1456 1.398 1_655 S
C1455 C1461 1.491 1_645 S
C1456 H1447 0.950 . S
C1456 C1455 1.398 1_455 S
C1456 C1457 1.391 1_455 S
C1457 H1445 0.950 1_655 S
C1457 C1453 1.392 . S
C1457 C1456 1.391 1_655 S
C1458 H1448 0.950 . S
C1458 C1459 1.386 . S
C1458 C1460 1.391 . S
C1459 C1458 1.386 . S
C1459 C1463 1.392 . S
C1460 H1449 0.950 . S
C1460 C1458 1.391 . S
C1460 C1461 1.400 . S
C1461 C1455 1.491 1_465 S
C1461 C1460 1.400 . S
C1461 C1462 1.398 1_455 S
C1462 H1450 0.950 . S
C1462 C1461 1.398 1_655 S
C1462 C1463 1.391 1_655 S
C1463 H1451 0.950 1_455 S
C1463 C1459 1.392 . S
C1463 C1462 1.391 1_455 S
H1464 C1472 0.950 . S
H1465 C1477 0.950 . S
H1466 C1474 0.950 . S
H1467 C1476 0.950 . S
H1468 C1478 0.950 . S
H1469 C1480 0.950 . S
H1470 C1482 0.950 . S
H1471 C1483 0.950 . S
C1472 H1464 0.950 . S
C1472 C1473 1.386 . S
C1472 C1474 1.391 . S
C1473 C1472 1.386 . S
C1473 C1477 1.393 . S
C1474 H1466 0.950 . S
C1474 C1472 1.391 . S
C1474 C1475 1.400 . S
C1475 C1474 1.400 . S
C1475 C1476 1.398 . S
C1475 C1481 1.491 1_455 S
C1476 H1467 0.950 . S
C1476 C1475 1.398 . S
C1476 C1477 1.391 . S
C1477 H1465 0.950 . S
C1477 C1473 1.393 . S
C1477 C1476 1.391 . S
C1478 H1468 0.950 . S
C1478 C1479 1.386 . S
C1478 C1480 1.391 . S
C1479 C1478 1.386 . S
C1479 C1483 1.393 . S
C1480 H1469 0.950 . S
C1480 C1478 1.391 . S
C1480 C1481 1.400 . S
C1481 C1475 1.491 1_655 S
C1481 C1480 1.400 . S
C1481 C1482 1.398 . S
C1482 H1470 0.950 . S
C1482 C1481 1.398 . S
C1482 C1483 1.391 . S
C1483 H1471 0.950 . S
C1483 C1479 1.393 . S
C1483 C1482 1.391 . S
H1484 C1492 0.950 . S
H1485 C1497 0.950 . S
H1486 C1494 0.950 . S
H1487 C1496 0.950 . S
H1488 C1498 0.950 . S
H1489 C1500 0.950 . S
H1490 C1502 0.950 . S
H1491 C1503 0.950 . S
C1492 H1484 0.950 . S
C1492 C1493 1.386 . S
C1492 C1494 1.391 . S
C1493 C1492 1.386 . S
C1493 C1497 1.393 . S
C1494 H1486 0.950 . S
C1494 C1492 1.391 . S
C1494 C1495 1.400 . S
C1495 C1494 1.400 . S
C1495 C1496 1.398 . S
C1495 C1501 1.491 . S
C1496 H1487 0.950 . S
C1496 C1495 1.398 . S
C1496 C1497 1.391 . S
C1497 H1485 0.950 . S
C1497 C1493 1.393 . S
C1497 C1496 1.391 . S
C1498 H1488 0.950 . S
C1498 C1499 1.386 . S
C1498 C1500 1.391 . S
C1499 C1498 1.386 . S
C1499 C1503 1.393 . S
C1500 H1489 0.950 . S
C1500 C1498 1.391 . S
C1500 C1501 1.400 . S
C1501 C1495 1.491 . S
C1501 C1500 1.400 . S
C1501 C1502 1.398 . S
C1502 H1490 0.950 . S
C1502 C1501 1.398 . S
C1502 C1503 1.391 . S
C1503 H1491 0.950 . S
C1503 C1499 1.393 . S
C1503 C1502 1.391 . S
H1504 C1512 0.950 . S
H1505 C1517 0.950 . S
H1506 C1514 0.950 . S
H1507 C1516 0.950 . S
H1508 C1518 0.950 . S
H1509 C1520 0.950 . S
H1510 C1522 0.950 . S
H1511 C1523 0.950 . S
C1512 H1504 0.950 . S
C1512 C1513 1.386 . S
C1512 C1514 1.391 . S
C1513 C1512 1.386 . S
C1513 C1517 1.393 . S
C1514 H1506 0.950 . S
C1514 C1512 1.391 . S
C1514 C1515 1.400 . S
C1515 C1514 1.400 . S
C1515 C1516 1.398 . S
C1515 C1521 1.491 . S
C1516 H1507 0.950 . S
C1516 C1515 1.398 . S
C1516 C1517 1.391 . S
C1517 H1505 0.950 . S
C1517 C1513 1.393 . S
C1517 C1516 1.391 . S
C1518 H1508 0.950 . S
C1518 C1519 1.386 . S
C1518 C1520 1.391 . S
C1519 C1518 1.386 . S
C1519 C1523 1.393 . S
C1520 H1509 0.950 . S
C1520 C1518 1.391 . S
C1520 C1521 1.400 . S
C1521 C1515 1.491 . S
C1521 C1520 1.400 . S
C1521 C1522 1.398 . S
C1522 H1510 0.950 . S
C1522 C1521 1.398 . S
C1522 C1523 1.391 . S
C1523 H1511 0.950 . S
C1523 C1519 1.393 . S
C1523 C1522 1.391 . S
H1524 C1532 0.950 . S
H1525 C1537 0.950 . S
H1526 C1534 0.950 . S
H1527 C1536 0.950 . S
H1528 C1538 0.950 . S
H1529 C1540 0.950 . S
H1530 C1542 0.950 . S
H1531 C1543 0.950 . S
C1532 H1524 0.950 . S
C1532 C1533 1.386 . S
C1532 C1534 1.391 . S
C1533 C1532 1.386 . S
C1533 C1537 1.393 . S
C1534 H1526 0.950 . S
C1534 C1532 1.391 . S
C1534 C1535 1.400 . S
C1535 C1534 1.400 . S
C1535 C1536 1.398 . S
C1535 C1541 1.491 1_545 S
C1536 H1527 0.950 . S
C1536 C1535 1.398 . S
C1536 C1537 1.391 . S
C1537 H1525 0.950 . S
C1537 C1533 1.393 . S
C1537 C1536 1.391 . S
C1538 H1528 0.950 . S
C1538 C1539 1.386 . S
C1538 C1540 1.391 . S
C1539 C1538 1.386 . S
C1539 C1543 1.393 . S
C1540 H1529 0.950 . S
C1540 C1538 1.391 . S
C1540 C1541 1.400 . S
C1541 C1535 1.491 1_565 S
C1541 C1540 1.400 . S
C1541 C1542 1.398 . S
C1542 H1530 0.950 . S
C1542 C1541 1.398 . S
C1542 C1543 1.391 . S
C1543 H1531 0.950 . S
C1543 C1539 1.393 . S
C1543 C1542 1.391 . S
H1544 C1552 0.950 . S
H1545 C1557 0.950 . S
H1546 C1554 0.950 . S
H1547 C1556 0.950 . S
H1548 C1558 0.950 . S
H1549 C1560 0.950 . S
H1550 C1562 0.950 . S
H1551 C1563 0.950 . S
C1552 H1544 0.950 . S
C1552 C1553 1.386 1_545 S
C1552 C1554 1.391 . S
C1553 C1552 1.386 1_565 S
C1553 C1557 1.393 . S
C1554 H1546 0.950 . S
C1554 C1552 1.391 . S
C1554 C1555 1.400 1_545 S
C1555 C1554 1.400 1_565 S
C1555 C1556 1.398 . S
C1555 C1561 1.491 1_465 S
C1556 H1547 0.950 . S
C1556 C1555 1.398 . S
C1556 C1557 1.391 . S
C1557 H1545 0.950 . S
C1557 C1553 1.393 . S
C1557 C1556 1.391 . S
C1558 H1548 0.950 . S
C1558 C1559 1.386 1_565 S
C1558 C1560 1.391 . S
C1559 C1558 1.386 1_545 S
C1559 C1563 1.393 . S
C1560 H1549 0.950 . S
C1560 C1558 1.391 . S
C1560 C1561 1.400 1_565 S
C1561 C1555 1.491 1_645 S
C1561 C1560 1.400 1_545 S
C1561 C1562 1.398 . S
C1562 H1550 0.950 . S
C1562 C1561 1.398 . S
C1562 C1563 1.391 . S
C1563 H1551 0.950 . S
C1563 C1559 1.393 . S
C1563 C1562 1.391 . S
H1564 C1572 0.950 . S
H1565 C1577 0.950 . S
H1566 C1574 0.950 . S
H1567 C1576 0.950 . S
H1568 C1578 0.950 . S
H1569 C1580 0.950 . S
H1570 C1582 0.950 . S
H1571 C1583 0.950 . S
C1572 H1564 0.950 . S
C1572 C1573 1.386 1_655 S
C1572 C1574 1.391 . S
C1573 C1572 1.386 1_455 S
C1573 C1577 1.393 . S
C1574 H1566 0.950 . S
C1574 C1572 1.391 . S
C1574 C1575 1.400 1_655 S
C1575 C1574 1.400 1_455 S
C1575 C1576 1.398 . S
C1575 C1581 1.491 1_455 S
C1576 H1567 0.950 . S
C1576 C1575 1.398 . S
C1576 C1577 1.391 . S
C1577 H1565 0.950 . S
C1577 C1573 1.393 . S
C1577 C1576 1.391 . S
C1578 H1568 0.950 . S
C1578 C1579 1.386 1_455 S
C1578 C1580 1.391 . S
C1579 C1578 1.386 1_655 S
C1579 C1583 1.393 . S
C1580 H1569 0.950 . S
C1580 C1578 1.391 . S
C1580 C1581 1.400 1_455 S
C1581 C1575 1.491 1_655 S
C1581 C1580 1.400 1_655 S
C1581 C1582 1.398 . S
C1582 H1570 0.950 . S
C1582 C1581 1.398 . S
C1582 C1583 1.391 . S
C1583 H1571 0.950 . S
C1583 C1579 1.393 . S
C1583 C1582 1.391 . S
C473 C21 0.319 . S
C479 C224 0.358 . S
C493 C137 0.412 . S
C499 C50 0.360 . S
C513 C79 0.320 . S
C519 C166 0.378 . S
C533 C108 0.413 . S
C539 C195 0.360 . S
C553 C456 0.374 . S
C559 C253 0.414 . S
C573 C369 0.414 . S
C579 C282 0.370 . S
C593 C311 0.364 1_556 S
C599 C398 0.405 1_554 S
C613 C340 0.374 . S
C619 C427 0.414 . S
C633 C97 2.286 . S
C639 C5 2.265 1_556 S
C653 C34 2.274 . S
C659 C10 2.291 . S
C673 C63 2.272 . S
C679 C39 2.281 . S
C693 C92 2.275 . S
C699 C68 2.291 . S
C713 C121 2.276 . S
C719 C155 2.286 . S
C733 C150 2.258 . S
C739 C184 2.279 . S
C753 C213 2.291 . S
C759 C179 2.274 . S
C773 C208 2.275 1_554 S
C779 C126 2.291 . S
C793 C329 2.278 . S
C799 C237 2.269 . S
C813 C266 2.276 . S
C819 C242 2.290 . S
C833 C271 2.289 . S
C839 C295 2.276 1_556 S
C853 C324 2.259 . S
C859 C300 2.272 . S
C873 C353 2.274 . S
C879 C387 2.283 . S
C893 C382 2.264 1_554 S
C899 C416 2.274 . S
C913 C411 2.257 . S
C919 C445 2.272 . S
C933 C440 2.272 . S
C939 C358 2.290 . S
C953 C124 0.914 . S
C959 C8 0.908 . S
C973 C153 0.859 . S
C979 C37 0.869 . S
C993 C66 0.914 . S
C999 C182 0.907 . S
C1013 C211 0.904 . S
C1019 C95 0.911 . S
C1033 C356 0.919 . S
C1039 C240 0.915 . S
C1053 C269 0.853 . S
C1059 C385 0.861 . S
C1073 C414 0.852 . S
C1079 C298 0.845 . S
C1093 C443 0.841 . S
C1099 C327 0.839 . S
C1113 C177 2.209 . S
C1119 C3 2.217 . S
C1133 C206 2.201 . S
C1139 C32 2.206 . S
C1153 C61 2.208 . S
C1159 C119 2.200 . S
C1173 C90 2.206 . S
C1179 C148 2.216 . S
C1193 C235 2.208 . S
C1199 C409 2.200 . S
C1213 C264 2.203 . S
C1219 C438 2.213 . S
C1233 C351 2.216 . S
C1239 C293 2.206 . S
C1253 C380 2.209 . S
C1259 C322 2.217 . S
C1273 C160 2.285 . S
C1279 C15 2.285 . S
C1293 C44 2.278 . S
C1299 C189 2.284 . S
C1313 C73 2.279 . S
C1319 C218 2.277 . S
C1333 C131 2.283 . S
C1339 C102 2.286 . S
C1353 C247 2.285 . S
C1359 C392 2.278 . S
C1373 C421 2.284 . S
C1379 C276 2.286 . S
C1393 C305 2.284 . S
C1399 C450 2.285 . S
C1413 C334 2.278 . S
C1419 C363 2.278 . S
C1433 C13 1.896 . S
C1439 C303 1.914 . S
C1453 C42 1.931 . S
C1459 C332 1.928 . S
C1473 C245 1.912 . S
C1479 C71 1.896 . S
C1493 C274 1.896 . S
C1499 C100 1.914 . S
C1513 C129 1.907 . S
C1519 C419 1.895 . S
C1533 C158 1.896 . S
C1539 C448 1.914 . S
C1553 C361 1.895 . S
C1559 C187 1.906 . S
C1573 C390 1.917 . S
C1579 C216 1.933 . S
