# Generated by pormake.
# Topology wgs, (5)-cn, num edge types: 1
# Building blocks:
#     Node 0, Type 0, BuildingBlock: XOMCOT_clean_sbu_1, # of connection points: 5
#     Node 1, Type 0, BuildingBlock: XOMCOT_clean_sbu_1, # of connection points: 5
#     Node 2, Type 0, BuildingBlock: XOMCOT_clean_sbu_1, # of connection points: 5
#     Node 3, Type 0, BuildingBlock: XOMCOT_clean_sbu_1, # of connection points: 5
#     Node 4, Type 0, BuildingBlock: XOMCOT_clean_sbu_1, # of connection points: 5
#     Node 5, Type 0, BuildingBlock: XOMCOT_clean_sbu_1, # of connection points: 5
#     Node 6, Type 0, BuildingBlock: XOMCOT_clean_sbu_1, # of connection points: 5
#     Node 7, Type 0, BuildingBlock: XOMCOT_clean_sbu_1, # of connection points: 5
#     Node 8, Type 0, BuildingBlock: XOMCOT_clean_sbu_1, # of connection points: 5
#     Node 9, Type 0, BuildingBlock: XOMCOT_clean_sbu_1, # of connection points: 5
#     Node 10, Type 0, BuildingBlock: XOMCOT_clean_sbu_1, # of connection points: 5
#     Node 11, Type 0, BuildingBlock: XOMCOT_clean_sbu_1, # of connection points: 5
#     Node 12, Type 0, BuildingBlock: XOMCOT_clean_sbu_1, # of connection points: 5
#     Node 13, Type 0, BuildingBlock: XOMCOT_clean_sbu_1, # of connection points: 5
#     Node 14, Type 0, BuildingBlock: XOMCOT_clean_sbu_1, # of connection points: 5
#     Node 15, Type 0, BuildingBlock: XOMCOT_clean_sbu_1, # of connection points: 5
#     Node 16, Type 0, BuildingBlock: XOMCOT_clean_sbu_1, # of connection points: 5
#     Node 17, Type 0, BuildingBlock: XOMCOT_clean_sbu_1, # of connection points: 5
#     Node 18, Type 0, BuildingBlock: XOMCOT_clean_sbu_1, # of connection points: 5
#     Node 19, Type 0, BuildingBlock: XOMCOT_clean_sbu_1, # of connection points: 5
#     Node 20, Type 0, BuildingBlock: XOMCOT_clean_sbu_1, # of connection points: 5
#     Node 21, Type 0, BuildingBlock: XOMCOT_clean_sbu_1, # of connection points: 5
#     Node 22, Type 0, BuildingBlock: XOMCOT_clean_sbu_1, # of connection points: 5
#     Node 23, Type 0, BuildingBlock: XOMCOT_clean_sbu_1, # of connection points: 5
#     Node 24, Type 0, BuildingBlock: XOMCOT_clean_sbu_1, # of connection points: 5
#     Node 25, Type 0, BuildingBlock: XOMCOT_clean_sbu_1, # of connection points: 5
#     Node 26, Type 0, BuildingBlock: XOMCOT_clean_sbu_1, # of connection points: 5
#     Node 27, Type 0, BuildingBlock: XOMCOT_clean_sbu_1, # of connection points: 5
#     Node 28, Type 0, BuildingBlock: XOMCOT_clean_sbu_1, # of connection points: 5
#     Node 29, Type 0, BuildingBlock: XOMCOT_clean_sbu_1, # of connection points: 5
#     Node 30, Type 0, BuildingBlock: XOMCOT_clean_sbu_1, # of connection points: 5
#     Node 31, Type 0, BuildingBlock: XOMCOT_clean_sbu_1, # of connection points: 5
#     Edge 32, Type (0, 0), BuildingBlock: OJICUG_clean_linker_0, # of connection points: 2
#     Edge 33, Type (0, 0), BuildingBlock: OJICUG_clean_linker_0, # of connection points: 2
#     Edge 34, Type (0, 0), BuildingBlock: OJICUG_clean_linker_0, # of connection points: 2
#     Edge 35, Type (0, 0), BuildingBlock: OJICUG_clean_linker_0, # of connection points: 2
#     Edge 36, Type (0, 0), BuildingBlock: OJICUG_clean_linker_0, # of connection points: 2
#     Edge 37, Type (0, 0), BuildingBlock: OJICUG_clean_linker_0, # of connection points: 2
#     Edge 38, Type (0, 0), BuildingBlock: OJICUG_clean_linker_0, # of connection points: 2
#     Edge 39, Type (0, 0), BuildingBlock: OJICUG_clean_linker_0, # of connection points: 2
#     Edge 40, Type (0, 0), BuildingBlock: OJICUG_clean_linker_0, # of connection points: 2
#     Edge 41, Type (0, 0), BuildingBlock: OJICUG_clean_linker_0, # of connection points: 2
#     Edge 42, Type (0, 0), BuildingBlock: OJICUG_clean_linker_0, # of connection points: 2
#     Edge 43, Type (0, 0), BuildingBlock: OJICUG_clean_linker_0, # of connection points: 2
#     Edge 44, Type (0, 0), BuildingBlock: OJICUG_clean_linker_0, # of connection points: 2
#     Edge 45, Type (0, 0), BuildingBlock: OJICUG_clean_linker_0, # of connection points: 2
#     Edge 46, Type (0, 0), BuildingBlock: OJICUG_clean_linker_0, # of connection points: 2
#     Edge 47, Type (0, 0), BuildingBlock: OJICUG_clean_linker_0, # of connection points: 2
#     Edge 48, Type (0, 0), BuildingBlock: OJICUG_clean_linker_0, # of connection points: 2
#     Edge 49, Type (0, 0), BuildingBlock: OJICUG_clean_linker_0, # of connection points: 2
#     Edge 50, Type (0, 0), BuildingBlock: OJICUG_clean_linker_0, # of connection points: 2
#     Edge 51, Type (0, 0), BuildingBlock: OJICUG_clean_linker_0, # of connection points: 2
#     Edge 52, Type (0, 0), BuildingBlock: OJICUG_clean_linker_0, # of connection points: 2
#     Edge 53, Type (0, 0), BuildingBlock: OJICUG_clean_linker_0, # of connection points: 2
#     Edge 54, Type (0, 0), BuildingBlock: OJICUG_clean_linker_0, # of connection points: 2
#     Edge 55, Type (0, 0), BuildingBlock: OJICUG_clean_linker_0, # of connection points: 2
#     Edge 56, Type (0, 0), BuildingBlock: OJICUG_clean_linker_0, # of connection points: 2
#     Edge 57, Type (0, 0), BuildingBlock: OJICUG_clean_linker_0, # of connection points: 2
#     Edge 58, Type (0, 0), BuildingBlock: OJICUG_clean_linker_0, # of connection points: 2
#     Edge 59, Type (0, 0), BuildingBlock: OJICUG_clean_linker_0, # of connection points: 2
#     Edge 60, Type (0, 0), BuildingBlock: OJICUG_clean_linker_0, # of connection points: 2
#     Edge 61, Type (0, 0), BuildingBlock: OJICUG_clean_linker_0, # of connection points: 2
#     Edge 62, Type (0, 0), BuildingBlock: OJICUG_clean_linker_0, # of connection points: 2
#     Edge 63, Type (0, 0), BuildingBlock: OJICUG_clean_linker_0, # of connection points: 2
#     Edge 64, Type (0, 0), BuildingBlock: OJICUG_clean_linker_0, # of connection points: 2
#     Edge 65, Type (0, 0), BuildingBlock: OJICUG_clean_linker_0, # of connection points: 2
#     Edge 66, Type (0, 0), BuildingBlock: OJICUG_clean_linker_0, # of connection points: 2
#     Edge 67, Type (0, 0), BuildingBlock: OJICUG_clean_linker_0, # of connection points: 2
#     Edge 68, Type (0, 0), BuildingBlock: OJICUG_clean_linker_0, # of connection points: 2
#     Edge 69, Type (0, 0), BuildingBlock: OJICUG_clean_linker_0, # of connection points: 2
#     Edge 70, Type (0, 0), BuildingBlock: OJICUG_clean_linker_0, # of connection points: 2
#     Edge 71, Type (0, 0), BuildingBlock: OJICUG_clean_linker_0, # of connection points: 2
#     Edge 72, Type (0, 0), BuildingBlock: OJICUG_clean_linker_0, # of connection points: 2
#     Edge 73, Type (0, 0), BuildingBlock: OJICUG_clean_linker_0, # of connection points: 2
#     Edge 74, Type (0, 0), BuildingBlock: OJICUG_clean_linker_0, # of connection points: 2
#     Edge 75, Type (0, 0), BuildingBlock: OJICUG_clean_linker_0, # of connection points: 2
#     Edge 76, Type (0, 0), BuildingBlock: OJICUG_clean_linker_0, # of connection points: 2
#     Edge 77, Type (0, 0), BuildingBlock: OJICUG_clean_linker_0, # of connection points: 2
#     Edge 78, Type (0, 0), BuildingBlock: OJICUG_clean_linker_0, # of connection points: 2
#     Edge 79, Type (0, 0), BuildingBlock: OJICUG_clean_linker_0, # of connection points: 2
#     Edge 80, Type (0, 0), BuildingBlock: OJICUG_clean_linker_0, # of connection points: 2
#     Edge 81, Type (0, 0), BuildingBlock: OJICUG_clean_linker_0, # of connection points: 2
#     Edge 82, Type (0, 0), BuildingBlock: OJICUG_clean_linker_0, # of connection points: 2
#     Edge 83, Type (0, 0), BuildingBlock: OJICUG_clean_linker_0, # of connection points: 2
#     Edge 84, Type (0, 0), BuildingBlock: OJICUG_clean_linker_0, # of connection points: 2
#     Edge 85, Type (0, 0), BuildingBlock: OJICUG_clean_linker_0, # of connection points: 2
#     Edge 86, Type (0, 0), BuildingBlock: OJICUG_clean_linker_0, # of connection points: 2
#     Edge 87, Type (0, 0), BuildingBlock: OJICUG_clean_linker_0, # of connection points: 2
#     Edge 88, Type (0, 0), BuildingBlock: OJICUG_clean_linker_0, # of connection points: 2
#     Edge 89, Type (0, 0), BuildingBlock: OJICUG_clean_linker_0, # of connection points: 2
#     Edge 90, Type (0, 0), BuildingBlock: OJICUG_clean_linker_0, # of connection points: 2
#     Edge 91, Type (0, 0), BuildingBlock: OJICUG_clean_linker_0, # of connection points: 2
#     Edge 92, Type (0, 0), BuildingBlock: OJICUG_clean_linker_0, # of connection points: 2
#     Edge 93, Type (0, 0), BuildingBlock: OJICUG_clean_linker_0, # of connection points: 2
#     Edge 94, Type (0, 0), BuildingBlock: OJICUG_clean_linker_0, # of connection points: 2
#     Edge 95, Type (0, 0), BuildingBlock: OJICUG_clean_linker_0, # of connection points: 2
#     Edge 96, Type (0, 0), BuildingBlock: OJICUG_clean_linker_0, # of connection points: 2
#     Edge 97, Type (0, 0), BuildingBlock: OJICUG_clean_linker_0, # of connection points: 2
#     Edge 98, Type (0, 0), BuildingBlock: OJICUG_clean_linker_0, # of connection points: 2
#     Edge 99, Type (0, 0), BuildingBlock: OJICUG_clean_linker_0, # of connection points: 2
#     Edge 100, Type (0, 0), BuildingBlock: OJICUG_clean_linker_0, # of connection points: 2
#     Edge 101, Type (0, 0), BuildingBlock: OJICUG_clean_linker_0, # of connection points: 2
#     Edge 102, Type (0, 0), BuildingBlock: OJICUG_clean_linker_0, # of connection points: 2
#     Edge 103, Type (0, 0), BuildingBlock: OJICUG_clean_linker_0, # of connection points: 2
#     Edge 104, Type (0, 0), BuildingBlock: OJICUG_clean_linker_0, # of connection points: 2
#     Edge 105, Type (0, 0), BuildingBlock: OJICUG_clean_linker_0, # of connection points: 2
#     Edge 106, Type (0, 0), BuildingBlock: OJICUG_clean_linker_0, # of connection points: 2
#     Edge 107, Type (0, 0), BuildingBlock: OJICUG_clean_linker_0, # of connection points: 2
#     Edge 108, Type (0, 0), BuildingBlock: OJICUG_clean_linker_0, # of connection points: 2
#     Edge 109, Type (0, 0), BuildingBlock: OJICUG_clean_linker_0, # of connection points: 2
#     Edge 110, Type (0, 0), BuildingBlock: OJICUG_clean_linker_0, # of connection points: 2
#     Edge 111, Type (0, 0), BuildingBlock: OJICUG_clean_linker_0, # of connection points: 2
# Relax obj value: 0.209
# Max RMSD: 0.259
# Mean RMSD: 0.259
data_MOF--net-wgs--node1-XOMCOT_clean_sbu_1--edge1-OJICUG_clean_linker_0
_symmetry_space_group_name_H-M    P1
_symmetry_Int_Tables_number       1
_symmetry_cell_setting            triclinic
loop_
_symmetry_equiv_pos_as_xyz
'x, y, z'
_cell_length_a     22.883158
_cell_length_b     22.86954
_cell_length_c     104.8526
_cell_angle_alpha  89.958055
_cell_angle_beta   89.798437
_cell_angle_gamma 90.052424
loop_
_atom_site_label
_atom_site_type_symbol
_atom_site_fract_x
_atom_site_fract_y
_atom_site_fract_z
_atom_type_partial_charge
C0 C 0.23624 0.04965 0.3579 0.0
C1 C 0.2283 0.04473 0.37082 0.0
N2 N 0.27682 0.0642 0.37674 0.0
N3 N 0.28946 0.0722 0.3555 0.0
C4 C 0.31376 0.07999 0.36717 0.0
H5 H 0.20503 0.03774 0.35062 0.0
Co6 Co 0.31344 0.08545 0.33865 0.0
C7 C 0.38949 0.18974 0.34078 0.0
O8 O 0.35651 0.2155 0.33221 0.0
N9 N 0.33728 0.094 0.32122 0.0
C10 C 0.39839 0.08773 0.30462 0.0
C11 C 0.39194 0.10621 0.317 0.0
C12 C 0.3119 0.06714 0.31106 0.0
N13 N 0.34822 0.0625 0.3009 0.0
O14 O 0.36332 0.01954 0.33975 0.0
H15 H 0.42783 0.12044 0.32287 0.0
H16 H 0.27028 0.0448 0.31157 0.0
O17 O 0.37772 0.13725 0.3443 0.0
C18 C 0.33572 0.97603 0.33528 0.0
O19 O 0.28121 0.98303 0.33171 0.0
N20 N 0.26025 0.14874 0.33773 0.0
C21 C 0.18063 0.24105 0.3371 0.0
C22 C 0.21896 0.23439 0.34738 0.0
C23 C 0.25793 0.18796 0.34755 0.0
C24 C 0.21985 0.15162 0.32819 0.0
C25 C 0.18031 0.19817 0.32756 0.0
H26 H 0.28796 0.18493 0.35544 0.0
H27 H 0.21797 0.11824 0.32099 0.0
H28 H 0.35703 0.09788 0.36861 0.0
H29 H 0.18981 0.02711 0.37545 0.0
H30 H 0.43871 0.08789 0.29918 0.0
H31 H 0.22152 0.26672 0.3549 0.0
H32 H 0.15078 0.20134 0.31954 0.0
C33 C 0.16491 0.99097 0.60928 0.0
C34 C 0.16689 0.98787 0.62236 0.0
N35 N 0.16267 0.04248 0.62703 0.0
N36 N 0.1582 0.04719 0.60567 0.0
C37 C 0.15817 0.07789 0.61673 0.0
H38 H 0.16717 0.9544 0.60276 0.0
Co39 Co 0.14983 0.07001 0.58855 0.0
C40 C 0.04774 0.14934 0.58982 0.0
O41 O 0.0224 0.11722 0.58104 0.0
N42 N 0.14574 0.09293 0.57098 0.0
C43 C 0.15579 0.15307 0.55432 0.0
C44 C 0.13502 0.1475 0.56655 0.0
C45 C 0.17422 0.06671 0.56109 0.0
N46 N 0.18102 0.10243 0.5509 0.0
O47 O 0.21714 0.11747 0.59001 0.0
H48 H 0.1201 0.18391 0.57222 0.0
H49 H 0.19591 0.02486 0.56186 0.0
O50 O 0.09932 0.13627 0.59364 0.0
C51 C 0.25899 0.08547 0.58624 0.0
O52 O 0.24857 0.03039 0.58351 0.0
N53 N 0.08515 0.01894 0.58716 0.0
C54 C 0.99398 0.9381 0.58628 0.0
C55 C -0.0024 0.97866 0.59625 0.0
C56 C 0.04356 0.01825 0.59656 0.0
C57 C 0.08453 0.97713 0.57788 0.0
C58 C 0.03864 0.9369 0.57711 0.0
H59 H 0.04528 0.0491 0.60435 0.0
H60 H 0.11967 0.97423 0.57106 0.0
H61 H 0.15404 0.12498 0.61723 0.0
H62 H 0.17202 0.94862 0.62803 0.0
H63 H 0.15702 0.19307 0.54879 0.0
H64 H 0.96376 0.98178 0.60346 0.0
H65 H 0.03765 0.90571 0.56934 0.0
C66 C 0.26524 0.93253 0.86044 0.0
C67 C 0.2634 0.93757 0.87349 0.0
N68 N 0.20898 0.92452 0.87742 0.0
N69 N 0.21232 0.91569 0.85613 0.0
C70 C 0.17839 0.91215 0.86674 0.0
H71 H 0.30302 0.93986 0.85441 0.0
Co72 Co 0.19773 0.90133 0.83877 0.0
C73 C 0.12247 0.79327 0.84318 0.0
O74 O 0.16327 0.75674 0.83945 0.0
N75 N 0.1832 0.8904 0.82096 0.0
C76 C 0.15024 0.86097 0.80202 0.0
C77 C 0.15728 0.84595 0.81463 0.0
C78 C 0.19272 0.93124 0.81176 0.0
N79 N 0.17226 0.91491 0.80022 0.0
O80 O 0.14483 0.96507 0.83861 0.0
H81 H 0.14259 0.8055 0.81876 0.0
H82 H 0.21234 0.97334 0.81352 0.0
O83 O 0.13197 0.84856 0.84311 0.0
C84 C 0.17409 0.01146 0.83681 0.0
O85 O 0.23131 0.00811 0.83599 0.0
N86 N 0.25403 0.8407 0.83892 0.0
C87 C 0.33486 0.74976 0.83811 0.0
C88 C 0.29997 0.75853 0.84895 0.0
C89 C 0.26038 0.80456 0.84923 0.0
C90 C 0.29306 0.83753 0.82907 0.0
C91 C 0.33332 0.79176 0.82836 0.0
H92 H 0.23147 0.80802 0.85736 0.0
H93 H 0.29211 0.86942 0.82147 0.0
H94 H 0.13258 0.90034 0.86666 0.0
H95 H 0.29904 0.95046 0.87965 0.0
H96 H 0.12931 0.83458 0.79478 0.0
H97 H 0.29923 0.72734 0.85672 0.0
H98 H 0.36077 0.78758 0.81998 0.0
C99 C 0.29239 0.01143 0.10761 0.0
C100 C 0.28613 0.01881 0.12052 0.0
N101 N 0.30742 0.97115 0.1265 0.0
N102 N 0.31752 0.95937 0.10528 0.0
C103 C 0.32553 0.93519 0.11698 0.0
H104 H 0.27982 0.04234 0.10031 0.0
Co105 Co 0.33402 0.93645 0.08848 0.0
C106 C 0.43992 0.86346 0.09178 0.0
O107 O 0.46774 0.898 0.08379 0.0
N108 N 0.34611 0.91335 0.07108 0.0
C109 C 0.34606 0.85244 0.05444 0.0
C110 C 0.36302 0.86 0.06687 0.0
C111 C 0.31835 0.93687 0.06082 0.0
N112 N 0.31714 0.90047 0.05066 0.0
O113 O 0.26921 0.88485 0.08904 0.0
H114 H 0.3795 0.82507 0.07274 0.0
H115 H 0.29328 0.97689 0.06123 0.0
O116 O 0.38608 0.87328 0.09449 0.0
C117 C 0.22623 0.91222 0.0843 0.0
O118 O 0.23291 0.96742 0.08114 0.0
N119 N 0.39596 0.99137 0.08801 0.0
C120 C 0.48878 0.07038 0.08719 0.0
C121 C 0.48033 0.03417 0.09782 0.0
C122 C 0.43352 0.99549 0.09809 0.0
C123 C 0.39982 0.03069 0.07825 0.0
C124 C 0.44656 0.06999 0.07753 0.0
H125 H 0.42967 0.96629 0.10614 0.0
H126 H 0.36743 0.03134 0.07083 0.0
H127 H 0.34554 0.89291 0.11847 0.0
H128 H 0.26658 0.05642 0.1251 0.0
H129 H 0.34968 0.81231 0.04902 0.0
H130 H 0.5119 0.03235 0.10548 0.0
H131 H 0.45081 0.09821 0.06928 0.0
C132 C 0.23007 0.94805 0.19779 0.0
C133 C 0.22997 0.95858 0.18491 0.0
N134 N 0.28106 0.9399 0.18004 0.0
N135 N 0.28121 0.92322 0.20113 0.0
C136 C 0.31179 0.91887 0.19005 0.0
H137 H 0.1952 0.95836 0.20441 0.0
Co138 Co 0.29774 0.90606 0.21828 0.0
C139 C 0.3705 0.7975 0.21325 0.0
O140 O 0.32959 0.7622 0.21751 0.0
N141 N 0.3141 0.89289 0.23597 0.0
C142 C 0.35289 0.86553 0.25454 0.0
C143 C 0.3455 0.85094 0.24192 0.0
C144 C 0.302 0.93177 0.24543 0.0
N145 N 0.32586 0.91676 0.25674 0.0
O146 O 0.35136 0.96937 0.21854 0.0
H147 H 0.36463 0.81313 0.2375 0.0
H148 H 0.27847 0.97206 0.24397 0.0
O149 O 0.36225 0.853 0.21325 0.0
C150 C 0.32271 0.01537 0.22109 0.0
O151 O 0.26566 0.01202 0.22234 0.0
N152 N 0.24073 0.84608 0.21802 0.0
C153 C 0.16033 0.75459 0.21874 0.0
C154 C 0.1938 0.7651 0.20775 0.0
C155 C 0.23315 0.81145 0.20752 0.0
C156 C 0.20282 0.84147 0.22805 0.0
C157 C 0.16273 0.79547 0.22869 0.0
H158 H 0.26119 0.816 0.19928 0.0
H159 H 0.20461 0.87228 0.23584 0.0
H160 H 0.35586 0.90198 0.18937 0.0
H161 H 0.19526 0.97893 0.1795 0.0
H162 H 0.37798 0.84114 0.26147 0.0
H163 H 0.19382 0.73491 0.1998 0.0
H164 H 0.13623 0.79012 0.23719 0.0
C165 C 0.29719 0.98485 0.44783 0.0
C166 C 0.2872 0.98517 0.43493 0.0
N167 N 0.30651 0.0363 0.43019 0.0
N168 N 0.32233 0.03576 0.45128 0.0
C169 C 0.32731 0.06665 0.44028 0.0
H170 H 0.28636 0.94986 0.45437 0.0
Co171 Co 0.33941 0.05193 0.46843 0.0
C172 C 0.4476 0.12555 0.46331 0.0
O173 O 0.48341 0.08493 0.46742 0.0
N174 N 0.35242 0.06791 0.48612 0.0
C175 C 0.38047 0.10511 0.5048 0.0
C176 C 0.39499 0.09814 0.49214 0.0
C177 C 0.31322 0.05608 0.49556 0.0
N178 N 0.32867 0.07896 0.50694 0.0
O179 O 0.2763 0.10556 0.46878 0.0
H180 H 0.43332 0.1165 0.48774 0.0
H181 H 0.2725 0.03336 0.49405 0.0
O182 O 0.39222 0.11674 0.46345 0.0
C183 C 0.22959 0.07787 0.47126 0.0
O184 O 0.23157 0.02074 0.4725 0.0
N185 N 0.39965 0.99515 0.46804 0.0
C186 C 0.49225 0.91612 0.46851 0.0
C187 C 0.4808 0.94925 0.45755 0.0
C188 C 0.43404 0.98798 0.45746 0.0
C189 C 0.4052 0.95746 0.47807 0.0
C190 C 0.45183 0.91812 0.47859 0.0
H191 H 0.42904 0.01599 0.44925 0.0
H192 H 0.37477 0.95896 0.48595 0.0
H193 H 0.34465 0.11062 0.43969 0.0
H194 H 0.26683 0.95074 0.42943 0.0
H195 H 0.40543 0.12921 0.5118 0.0
H196 H 0.51064 0.94966 0.44951 0.0
H197 H 0.45801 0.89194 0.48709 0.0
C198 C 0.25215 0.07459 0.69758 0.0
C199 C 0.25477 0.07274 0.6845 0.0
N200 N 0.20012 0.0779 0.67995 0.0
N201 N 0.1962 0.08217 0.70132 0.0
C202 C 0.16514 0.08284 0.69034 0.0
H203 H 0.28888 0.07174 0.70402 0.0
Co204 Co 0.17438 0.09097 0.71851 0.0
C205 C 0.09565 0.19363 0.71767 0.0
O206 O 0.12833 0.21845 0.72642 0.0
N207 N 0.15251 0.09547 0.73614 0.0
C208 C 0.09342 0.08545 0.753 0.0
C209 C 0.09803 0.1056 0.7407 0.0
C210 C 0.17965 0.06791 0.74599 0.0
N211 N 0.14464 0.06132 0.75632 0.0
O212 O 0.12604 0.02418 0.71716 0.0
H213 H 0.06117 0.11964 0.7351 0.0
H214 H 0.22162 0.04655 0.74512 0.0
O215 O 0.10836 0.14216 0.71366 0.0
C216 C 0.15657 0.98145 0.721 0.0
O217 O 0.21176 0.99033 0.72383 0.0
N218 N 0.22605 0.15531 0.71974 0.0
C219 C 0.3066 0.24676 0.72032 0.0
C220 C 0.26562 0.24273 0.71048 0.0
C221 C 0.22612 0.19672 0.71032 0.0
C222 C 0.26839 0.15622 0.72888 0.0
C223 C 0.30842 0.20235 0.72952 0.0
H224 H 0.19478 0.19488 0.70265 0.0
H225 H 0.27178 0.12125 0.7357 0.0
H226 H 0.11815 0.08783 0.68994 0.0
H227 H 0.29372 0.06711 0.67873 0.0
H228 H 0.05374 0.0837 0.75865 0.0
H229 H 0.26198 0.27644 0.70326 0.0
H230 H 0.33985 0.20379 0.73721 0.0
C231 C 0.18099 0.01045 0.94809 0.0
C232 C 0.18533 0.01359 0.93506 0.0
N233 N 0.17155 0.96095 0.93018 0.0
N234 N 0.16366 0.95631 0.95153 0.0
C235 C 0.15933 0.9265 0.94038 0.0
H236 H 0.18875 0.04583 0.95472 0.0
Co237 Co 0.14924 0.93793 0.96875 0.0
C238 C 0.04125 0.86322 0.96481 0.0
O239 O 0.00683 0.90258 0.96998 0.0
N240 N 0.13919 0.9203 0.98648 0.0
C241 C 0.11848 0.87821 1.00516 0.0
C242 C 0.10164 0.88431 0.99266 0.0
C243 C 0.17798 0.93595 0.99567 0.0
N244 N 0.16695 0.91031 1.00705 0.0
O245 O 0.21301 0.88535 0.96841 0.0
H246 H 0.06597 0.86071 0.98846 0.0
H247 H 0.21568 0.96326 0.99392 0.0
O248 O 0.09643 0.87279 0.96394 0.0
C249 C 0.25946 0.91363 0.97069 0.0
O250 O 0.25674 0.9707 0.97199 0.0
N251 N 0.08802 0.99354 0.96906 0.0
C252 C -0.00383 0.07333 0.96995 0.0
C253 C 0.00568 0.03906 0.95907 0.0
C254 C 0.05182 -0.00025 0.9588 0.0
C255 C 0.08368 0.0315 0.97907 0.0
C256 C 0.03734 0.07115 0.97982 0.0
H257 H 0.0556 0.97117 0.95065 0.0
H258 H 0.11509 0.03025 0.98672 0.0
H259 H 0.14603 0.88117 0.93973 0.0
H260 H 0.19817 0.05162 0.92956 0.0
H261 H 0.09781 0.8503 1.0122 0.0
H262 H 0.97488 0.03851 0.95126 0.0
H263 H 0.03213 0.09773 0.98829 0.0
C264 C 0.75629 0.92727 0.69591 0.0
C265 C 0.75839 0.92941 0.68283 0.0
N266 N 0.70385 0.92177 0.67838 0.0
N267 N 0.70085 0.91705 0.69973 0.0
C268 C 0.66946 0.91511 0.68881 0.0
H269 H 0.79308 0.93164 0.70229 0.0
Co270 Co 0.68046 0.90686 0.71691 0.0
C271 C 0.60449 0.8011 0.71537 0.0
O272 O 0.63924 0.7738 0.72335 0.0
N273 N 0.66045 0.90099 0.73457 0.0
C274 C 0.60916 0.89765 0.75271 0.0
C275 C 0.61112 0.88049 0.74016 0.0
C276 C 0.68652 0.93221 0.744 0.0
N277 N 0.6564 0.93078 0.75513 0.0
O278 O 0.62977 0.97201 0.7158 0.0
H279 H 0.57537 0.85943 0.73533 0.0
H280 H 0.72547 0.9582 0.74254 0.0
O281 O 0.61542 0.85419 0.71218 0.0
C282 C 0.65879 0.01702 0.71888 0.0
O283 O 0.71487 0.01167 0.72125 0.0
N284 N 0.73416 0.84401 0.71792 0.0
C285 C 0.81391 0.75203 0.71899 0.0
C286 C 0.77517 0.75716 0.70874 0.0
C287 C 0.73605 0.80345 0.70835 0.0
C288 C 0.77521 0.8427 0.72734 0.0
C289 C 0.81482 0.79636 0.7282 0.0
H290 H 0.70554 0.8054 0.70051 0.0
H291 H 0.77738 0.87712 0.73431 0.0
H292 H 0.62273 0.90789 0.68848 0.0
H293 H 0.79684 0.9368 0.677 0.0
H294 H 0.57305 0.89052 0.75923 0.0
H295 H 0.77225 0.72369 0.70146 0.0
H296 H 0.84469 0.79432 0.73618 0.0
C297 C 0.81601 0.01749 0.44654 0.0
C298 C 0.8129 0.01767 0.43347 0.0
N299 N 0.8232 0.96303 0.42931 0.0
N300 N 0.82948 0.96319 0.45063 0.0
C301 C 0.83234 0.93044 0.43988 0.0
H302 H 0.81022 0.05488 0.45273 0.0
Co303 Co 0.84211 0.94552 0.46786 0.0
C304 C 0.94978 0.86962 0.46342 0.0
O305 O 0.98609 0.90955 0.46764 0.0
N306 N 0.85127 0.92812 0.48552 0.0
C307 C 0.8778 0.8923 0.50441 0.0
C308 C 0.89417 0.90003 0.49189 0.0
C309 C 0.80995 0.93805 0.49458 0.0
N310 N 0.82456 0.91599 0.50609 0.0
O311 O 0.77751 0.89346 0.46743 0.0
H312 H 0.9344 0.88433 0.48785 0.0
H313 H 0.76871 0.95919 0.49272 0.0
O314 O 0.89458 0.87957 0.46326 0.0
C315 C 0.73115 0.92294 0.46906 0.0
O316 O 0.73497 0.98003 0.4702 0.0
N317 N 0.90344 0.00109 0.46831 0.0
C318 C 0.99362 0.08279 0.46964 0.0
C319 C 0.98607 0.0485 0.4587 0.0
C320 C 0.94052 0.00842 0.45817 0.0
C321 C 0.90576 0.03913 0.47833 0.0
C322 C 0.95117 0.07974 0.4793 0.0
H323 H 0.93778 0.98025 0.44993 0.0
H324 H 0.87329 0.0373 0.48581 0.0
H325 H 0.84205 0.88413 0.43978 0.0
H326 H 0.80316 0.05488 0.42745 0.0
H327 H 0.90275 0.86982 0.51167 0.0
H328 H 0.01777 0.04875 0.45101 0.0
H329 H 0.95461 0.10647 0.48779 0.0
C330 C 0.7253 0.06516 0.19554 0.0
C331 C 0.72691 0.06228 0.18248 0.0
N332 N 0.78203 0.0728 0.17865 0.0
N333 N 0.77897 0.07862 0.19997 0.0
C334 C 0.81319 0.08185 0.18942 0.0
H335 H 0.6871 0.05902 0.2015 0.0
Co336 Co 0.79264 0.09016 0.21744 0.0
C337 C 0.86921 0.19857 0.21448 0.0
O338 O 0.82835 0.23476 0.21831 0.0
N339 N 0.80542 0.09858 0.23529 0.0
C340 C 0.82141 0.12903 0.25523 0.0
C341 C 0.81748 0.14577 0.24261 0.0
C342 C 0.80178 0.05409 0.2438 0.0
N343 N 0.81195 0.07111 0.2559 0.0
O344 O 0.84561 0.02582 0.21729 0.0
H345 H 0.82218 0.1899 0.23921 0.0
H346 H 0.79016 0.01 0.24128 0.0
O347 O 0.85913 0.14343 0.21384 0.0
C348 C 0.81693 0.9783 0.21758 0.0
O349 O 0.75957 0.98045 0.21786 0.0
N350 N 0.73654 0.15079 0.21752 0.0
C351 C 0.65443 0.24035 0.2186 0.0
C352 C 0.69174 0.23483 0.20804 0.0
C353 C 0.732 0.18944 0.20762 0.0
C354 C 0.69537 0.1509 0.22698 0.0
C355 C 0.65452 0.19605 0.22785 0.0
H356 H 0.76244 0.18796 0.19972 0.0
H357 H 0.69523 0.117 0.23416 0.0
H358 H 0.85948 0.09156 0.18959 0.0
H359 H 0.6906 0.0525 0.17623 0.0
H360 H 0.83138 0.15706 0.26325 0.0
H361 H 0.69355 0.26794 0.20066 0.0
H362 H 0.62537 0.19793 0.236 0.0
C363 C 0.67879 0.96872 0.9468 0.0
C364 C 0.68243 0.96852 0.93372 0.0
N365 N 0.67065 0.02279 0.9295 0.0
N366 N 0.66362 0.02262 0.95084 0.0
C367 C 0.6602 0.05517 0.94006 0.0
H368 H 0.68525 0.93153 0.95302 0.0
Co369 Co 0.64898 0.03972 0.96805 0.0
C370 C 0.54154 0.11489 0.96324 0.0
O371 O 0.50476 0.07487 0.96729 0.0
N372 N 0.63775 0.05668 0.98571 0.0
C373 C 0.60957 0.0931 1.00447 0.0
C374 C 0.59444 0.08527 0.9919 0.0
C375 C 0.67799 0.04652 0.99494 0.0
N376 N 0.66241 0.06896 1.00637 0.0
O377 O 0.71279 0.09255 0.96791 0.0
H378 H 0.55487 0.10144 0.98769 0.0
H379 H 0.71926 0.02507 0.99325 0.0
O380 O 0.59671 0.10507 0.96331 0.0
C381 C 0.75938 0.06411 0.96992 0.0
O382 O 0.75663 0.00692 0.97101 0.0
N383 N 0.58805 0.98365 0.96823 0.0
C384 C 0.49655 0.90345 0.96943 0.0
C385 C 0.50594 0.93691 0.95841 0.0
C386 C 0.5521 0.97631 0.95796 0.0
C387 C 0.58428 0.94588 0.9783 0.0
C388 C 0.53816 0.90602 0.9792 0.0
H389 H 0.55589 0.00429 0.9497 0.0
H390 H 0.61591 0.94762 0.98591 0.0
H391 H 0.64889 0.10111 0.93992 0.0
H392 H 0.69343 0.9315 0.92775 0.0
H393 H 0.58414 0.11608 1.0116 0.0
H394 H 0.47498 0.93691 0.95062 0.0
H395 H 0.53333 0.87982 0.98775 0.0
C396 C 0.76659 0.0638 0.86036 0.0
C397 C 0.76493 0.05964 0.87341 0.0
N398 N 0.70962 0.06872 0.87726 0.0
N399 N 0.71273 0.07665 0.85596 0.0
C400 C 0.67837 0.07816 0.86652 0.0
H401 H 0.8049 0.05878 0.85439 0.0
Co402 Co 0.69866 0.08896 0.83852 0.0
C403 C 0.62147 0.19649 0.84175 0.0
O404 O 0.6618 0.23314 0.83781 0.0
N405 N 0.68553 0.098 0.82067 0.0
C406 C 0.66976 0.1293 0.80078 0.0
C407 C 0.67359 0.14549 0.81343 0.0
C408 C 0.68911 0.05385 0.81208 0.0
N409 N 0.67914 0.07141 0.8 0.0
O410 O 0.64608 0.02445 0.83863 0.0
H411 H 0.66908 0.18948 0.8169 0.0
H412 H 0.70054 0.0096 0.81452 0.0
O413 O 0.63201 0.14145 0.84232 0.0
C414 C 0.67501 0.97721 0.83813 0.0
O415 O 0.73234 0.97979 0.83765 0.0
N416 N 0.75431 0.15011 0.83853 0.0
C417 C 0.83625 0.24009 0.83783 0.0
C418 C 0.79866 0.23364 0.84832 0.0
C419 C 0.75845 0.18815 0.84854 0.0
C420 C 0.79547 0.1513 0.82907 0.0
C421 C 0.8362 0.19673 0.82839 0.0
H422 H 0.72789 0.18594 0.8564 0.0
H423 H 0.79576 0.11801 0.82176 0.0
H424 H 0.63185 0.08663 0.86636 0.0
H425 H 0.80131 0.04974 0.87962 0.0
H426 H 0.66006 0.15775 0.79281 0.0
H427 H 0.7967 0.2661 0.85583 0.0
H428 H 0.86543 0.19947 0.82026 0.0
C429 C 0.66692 0.00523 0.60764 0.0
C430 C 0.66975 0.00898 0.6207 0.0
N431 N 0.66499 0.95467 0.62553 0.0
N432 N 0.65914 0.9489 0.60423 0.0
C433 C 0.65934 0.91877 0.61535 0.0
H434 H 0.66915 0.04142 0.60101 0.0
Co435 Co 0.64871 0.92528 0.58728 0.0
C436 C 0.54675 0.84593 0.58913 0.0
O437 O 0.52083 0.878 0.58042 0.0
N438 N 0.64232 0.90147 0.56985 0.0
C439 C 0.65108 0.84054 0.55333 0.0
C440 C 0.63183 0.84647 0.56566 0.0
C441 C 0.66907 0.9276 0.55973 0.0
N442 N 0.67512 0.8914 0.54963 0.0
O443 O 0.7164 0.87812 0.58851 0.0
H444 H 0.61843 0.8101 0.57154 0.0
H445 H 0.69048 0.9697 0.56026 0.0
O446 O 0.59862 0.85912 0.59278 0.0
C447 C 0.75789 0.90977 0.58435 0.0
O448 O 0.74701 0.96437 0.58126 0.0
N449 N 0.584 0.97624 0.58615 0.0
C450 C 0.49408 0.05835 0.58598 0.0
C451 C 0.49833 0.01728 0.59584 0.0
C452 C 0.54363 0.97705 0.59579 0.0
C453 C 0.58272 0.01832 0.57691 0.0
C454 C 0.53737 0.0592 0.5765 0.0
H455 H 0.546 0.94604 0.60355 0.0
H456 H 0.61703 0.0211 0.5699 0.0
H457 H 0.65439 0.87179 0.61601 0.0
H458 H 0.6757 0.04844 0.62625 0.0
H459 H 0.65255 0.80019 0.54794 0.0
H460 H 0.46547 0.01436 0.60327 0.0
H461 H 0.5358 0.0907 0.56879 0.0
C462 C 0.73563 0.91972 0.35934 0.0
C463 C 0.73342 0.92266 0.37242 0.0
N464 N 0.78821 0.91772 0.37688 0.0
N465 N 0.79146 0.91165 0.35556 0.0
C466 C 0.82289 0.91186 0.36648 0.0
H467 H 0.69875 0.92237 0.35295 0.0
Co468 Co 0.81258 0.90222 0.33842 0.0
C469 C 0.89027 0.79806 0.3397 0.0
O470 O 0.85646 0.77152 0.33141 0.0
N471 N 0.8332 0.89719 0.32081 0.0
C472 C 0.88584 0.89734 0.30284 0.0
C473 C 0.88387 0.8795 0.31536 0.0
C474 C 0.80629 0.92752 0.31136 0.0
N475 N 0.83722 0.92818 0.30034 0.0
O476 O 0.86186 0.96852 0.33966 0.0
H477 H 0.92038 0.86035 0.3203 0.0
H478 H 0.76627 0.95181 0.31276 0.0
O479 O 0.87841 0.85053 0.3432 0.0
C480 C 0.83173 0.01277 0.33656 0.0
O481 O 0.77599 0.00578 0.33402 0.0
N482 N 0.76009 0.83831 0.33732 0.0
C483 C 0.67912 0.7471 0.33681 0.0
C484 C 0.71951 0.75171 0.34675 0.0
C485 C 0.75921 0.79756 0.34687 0.0
C486 C 0.71827 0.83694 0.32806 0.0
C487 C 0.67802 0.79094 0.32747 0.0
H488 H 0.79031 0.7996 0.35459 0.0
H489 H 0.71556 0.87133 0.32108 0.0
H490 H 0.86992 0.90714 0.36683 0.0
H491 H 0.69472 0.92912 0.37822 0.0
H492 H 0.92275 0.89255 0.29644 0.0
H493 H 0.7227 0.71846 0.35408 0.0
H494 H 0.64708 0.7891 0.31968 0.0
C495 C 0.81993 0.98467 0.1084 0.0
C496 C 0.81807 0.98182 0.12149 0.0
N497 N 0.82418 0.03635 0.12611 0.0
N498 N 0.82834 0.04063 0.10476 0.0
C499 C 0.82959 0.07146 0.11578 0.0
H500 H 0.81646 0.94812 0.10191 0.0
Co501 Co 0.83765 0.06314 0.08769 0.0
C502 C 0.94088 0.1413 0.08881 0.0
O503 O 0.96573 0.10873 0.08001 0.0
N504 N 0.84291 0.08591 0.07017 0.0
C505 C 0.83411 0.14593 0.05348 0.0
C506 C 0.8538 0.14055 0.06577 0.0
C507 C 0.81539 0.05948 0.06023 0.0
N508 N 0.80942 0.09509 0.05002 0.0
O509 O 0.77073 0.11146 0.08914 0.0
H510 H 0.86802 0.17706 0.07147 0.0
H511 H 0.79358 0.01764 0.06098 0.0
O512 O 0.88914 0.12881 0.09274 0.0
C513 C 0.72811 0.08072 0.08528 0.0
O514 O 0.73735 0.02574 0.08227 0.0
N515 N 0.90161 0.0112 0.08635 0.0
C516 C 0.99165 0.92921 0.08567 0.0
C517 C 0.98818 0.97025 0.09555 0.0
C518 C 0.94283 0.01042 0.09576 0.0
C519 C 0.90191 0.96887 0.07718 0.0
C520 C 0.94729 0.92807 0.0765 0.0
H521 H 0.9413 0.04163 0.10348 0.0
H522 H 0.86694 0.96599 0.07038 0.0
H523 H 0.83528 0.1184 0.11624 0.0
H524 H 0.81165 0.94282 0.12719 0.0
H525 H 0.83307 0.1859 0.04794 0.0
H526 H 0.02183 0.97342 0.10276 0.0
H527 H 0.9482 0.89658 0.06879 0.0
C528 C 0.74037 0.56386 0.85899 0.0
C529 C 0.73685 0.56247 0.87207 0.0
N530 N 0.79043 0.57297 0.87681 0.0
N531 N 0.79574 0.57615 0.85546 0.0
C532 C 0.8257 0.58032 0.86654 0.0
H533 H 0.70455 0.55776 0.85242 0.0
Co534 Co 0.81712 0.5876 0.83839 0.0
C535 C 0.89453 0.69115 0.83971 0.0
O536 O 0.86108 0.7169 0.83123 0.0
N537 N 0.83855 0.59487 0.82082 0.0
C538 C 0.89771 0.58667 0.80394 0.0
C539 C 0.89293 0.60596 0.81628 0.0
C540 C 0.81159 0.56786 0.81089 0.0
N541 N 0.84672 0.56213 0.80057 0.0
O542 O 0.86669 0.52156 0.83935 0.0
H543 H 0.92975 0.61975 0.82193 0.0
H544 H 0.7698 0.54602 0.8117 0.0
O545 O 0.88246 0.63906 0.84344 0.0
C546 C 0.83855 0.47791 0.83514 0.0
O547 O 0.78343 0.48458 0.832 0.0
N548 N 0.76452 0.65128 0.83764 0.0
C549 C 0.68339 0.74219 0.83791 0.0
C550 C 0.72468 0.7367 0.84765 0.0
C551 C 0.76442 0.69105 0.84738 0.0
C552 C 0.72182 0.65331 0.82859 0.0
C553 C 0.68141 0.69918 0.82839 0.0
H554 H 0.79618 0.68847 0.85495 0.0
H555 H 0.7186 0.61956 0.82148 0.0
H556 H 0.87191 0.59012 0.86709 0.0
H557 H 0.698 0.55382 0.87769 0.0
H558 H 0.93745 0.58555 0.7983 0.0
H559 H 0.72867 0.76926 0.8551 0.0
H560 H 0.64978 0.7017 0.82075 0.0
C561 C 0.67681 0.48712 0.11012 0.0
C562 C 0.67877 0.48345 0.12319 0.0
N563 N 0.67089 0.53742 0.12797 0.0
N564 N 0.6665 0.54299 0.10666 0.0
C565 C 0.66431 0.57306 0.11778 0.0
H566 H 0.68119 0.45111 0.1035 0.0
Co567 Co 0.65575 0.56528 0.08965 0.0
C568 C 0.55117 0.64135 0.0916 0.0
O569 O 0.5245 0.60743 0.08334 0.0
N570 N 0.64933 0.58746 0.07214 0.0
C571 C 0.65161 0.64391 0.05476 0.0
C572 C 0.63302 0.63961 0.06721 0.0
C573 C 0.67916 0.56176 0.06242 0.0
N574 N 0.68143 0.59514 0.05176 0.0
O575 O 0.7216 0.61508 0.09081 0.0
H576 H 0.61484 0.6756 0.07253 0.0
H577 H 0.70251 0.52101 0.06347 0.0
O578 O 0.60402 0.63032 0.09485 0.0
C579 C 0.76547 0.58572 0.08711 0.0
O580 O 0.75857 0.53008 0.0844 0.0
N581 N 0.59222 0.51221 0.08858 0.0
C582 C 0.49997 0.43252 0.08771 0.0
C583 C 0.50586 0.47096 0.09801 0.0
C584 C 0.55226 0.51002 0.09831 0.0
C585 C 0.59 0.47169 0.07904 0.0
C586 C 0.54352 0.4321 0.07828 0.0
H587 H 0.55485 0.54012 0.10622 0.0
H588 H 0.62386 0.46978 0.07191 0.0
H589 H 0.65675 0.61969 0.11841 0.0
H590 H 0.68602 0.4443 0.12877 0.0
H591 H 0.64827 0.68254 0.04884 0.0
H592 H 0.47299 0.47356 0.10545 0.0
H593 H 0.54088 0.40249 0.07024 0.0
C594 C 0.75721 0.44314 0.35997 0.0
C595 C 0.75653 0.45271 0.37289 0.0
N596 N 0.70473 0.43456 0.37749 0.0
N597 N 0.70587 0.41941 0.35638 0.0
C598 C 0.67434 0.41487 0.36732 0.0
H599 H 0.79279 0.45324 0.35351 0.0
Co600 Co 0.69019 0.40295 0.3392 0.0
C601 C 0.61618 0.29463 0.344 0.0
O602 O 0.65689 0.25895 0.33984 0.0
N603 N 0.67486 0.39037 0.32149 0.0
C604 C 0.6386 0.36276 0.3027 0.0
C605 C 0.64509 0.34784 0.31534 0.0
C606 C 0.68695 0.42992 0.31216 0.0
N607 N 0.66462 0.41476 0.30072 0.0
O608 O 0.63697 0.46654 0.33887 0.0
H609 H 0.62669 0.30928 0.31962 0.0
H610 H 0.70946 0.47068 0.31379 0.0
O611 O 0.62499 0.35006 0.34401 0.0
C612 C 0.66597 0.51274 0.33664 0.0
O613 O 0.7231 0.50943 0.3356 0.0
N614 N 0.74681 0.3428 0.33953 0.0
C615 C 0.82807 0.25217 0.33902 0.0
C616 C 0.79316 0.26161 0.34984 0.0
C617 C 0.75345 0.30757 0.34997 0.0
C618 C 0.78578 0.3391 0.32968 0.0
C619 C 0.82635 0.29358 0.32915 0.0
H620 H 0.72462 0.31157 0.3581 0.0
H621 H 0.78461 0.3704 0.32197 0.0
H622 H 0.62996 0.3986 0.36779 0.0
H623 H 0.79117 0.47204 0.3785 0.0
H624 H 0.6149 0.33794 0.29561 0.0
H625 H 0.79253 0.23099 0.35772 0.0
H626 H 0.85393 0.28909 0.32079 0.0
C627 C 0.79359 0.51961 0.60832 0.0
C628 C 0.78775 0.52494 0.62128 0.0
N629 N 0.80808 0.47581 0.62682 0.0
N630 N 0.81762 0.46743 0.60554 0.0
C631 C 0.82517 0.44103 0.61702 0.0
H632 H 0.78203 0.55224 0.6013 0.0
Co633 Co 0.83484 0.44763 0.58859 0.0
C634 C 0.94308 0.37538 0.59394 0.0
O635 O 0.97822 0.41527 0.58918 0.0
N636 N 0.84792 0.42818 0.57108 0.0
C637 C 0.87295 0.38507 0.55278 0.0
C638 C 0.88793 0.39345 0.56534 0.0
C639 C 0.80977 0.44102 0.56157 0.0
N640 N 0.82336 0.41465 0.55043 0.0
O641 O 0.77171 0.39389 0.58879 0.0
H642 H 0.92433 0.3725 0.56989 0.0
H643 H 0.77083 0.4669 0.56291 0.0
O644 O 0.88766 0.38393 0.59408 0.0
C645 C 0.72502 0.42061 0.58595 0.0
O646 O 0.7267 0.47747 0.5842 0.0
N647 N 0.89521 0.50449 0.58837 0.0
C648 C 0.98805 0.58323 0.58718 0.0
C649 C 0.97632 0.5521 0.59841 0.0
C650 C 0.9296 0.51335 0.59884 0.0
C651 C 0.90101 0.54042 0.57804 0.0
C652 C 0.94783 0.57952 0.57714 0.0
H653 H 0.92475 0.48659 0.60725 0.0
H654 H 0.87071 0.5376 0.5702 0.0
H655 H 0.84457 0.39823 0.61817 0.0
H656 H 0.76951 0.56226 0.62622 0.0
H657 H 0.89577 0.35748 0.54602 0.0
H658 H 0.00609 0.55295 0.60642 0.0
H659 H 0.95441 0.60402 0.56841 0.0
C660 C 0.72849 0.44766 0.69753 0.0
C661 C 0.72921 0.45773 0.68463 0.0
N662 N 0.78104 0.43988 0.68001 0.0
N663 N 0.77982 0.42386 0.70109 0.0
C664 C 0.81142 0.41989 0.69015 0.0
H665 H 0.6929 0.4574 0.704 0.0
Co666 Co 0.79515 0.40649 0.71823 0.0
C667 C 0.86933 0.2985 0.7132 0.0
O668 O 0.82806 0.26223 0.71685 0.0
N669 N 0.81016 0.39289 0.73591 0.0
C670 C 0.84476 0.36276 0.75467 0.0
C671 C 0.8379 0.3488 0.74199 0.0
C672 C 0.79946 0.43233 0.74531 0.0
N673 N 0.82082 0.41561 0.75674 0.0
O674 O 0.84846 0.47007 0.71869 0.0
H675 H 0.85432 0.30956 0.73764 0.0
H676 H 0.77861 0.474 0.74378 0.0
O677 O 0.86049 0.35391 0.71344 0.0
C678 C 0.81985 0.5164 0.72097 0.0
O679 O 0.76273 0.51335 0.72211 0.0
N680 N 0.73843 0.34631 0.71772 0.0
C681 C 0.65691 0.25575 0.71784 0.0
C682 C 0.69176 0.26629 0.70706 0.0
C683 C 0.73164 0.31213 0.70713 0.0
C684 C 0.69948 0.34166 0.72756 0.0
C685 C 0.6588 0.29611 0.7279 0.0
H686 H 0.76052 0.31675 0.69903 0.0
H687 H 0.70079 0.37217 0.73541 0.0
H688 H 0.85583 0.40378 0.68966 0.0
H689 H 0.69461 0.47726 0.67905 0.0
H690 H 0.86709 0.3366 0.76174 0.0
H691 H 0.69234 0.23649 0.69904 0.0
H692 H 0.63132 0.29072 0.73625 0.0
C693 C 0.81922 0.48223 0.94635 0.0
C694 C 0.81649 0.48388 0.93329 0.0
N695 N 0.82599 0.53922 0.92953 0.0
N696 N 0.83129 0.53617 0.95084 0.0
C697 C 0.83422 0.57054 0.94032 0.0
H698 H 0.81387 0.4438 0.95226 0.0
Co699 Co 0.84302 0.54849 0.96831 0.0
C700 C 0.94414 0.63203 0.96806 0.0
O701 O 0.97616 0.59532 0.97462 0.0
N702 N 0.85267 0.55917 0.98654 0.0
C703 C 0.88274 0.55182 1.00679 0.0
C704 C 0.89846 0.54581 0.99417 0.0
C705 C 0.81012 0.5742 0.99501 0.0
N706 N 0.82674 0.56931 1.00732 0.0
O707 O 0.77572 0.59667 0.96861 0.0
H708 H 0.94009 0.52908 0.991 0.0
H709 H 0.76649 0.58622 0.99237 0.0
O710 O 0.89184 0.61826 0.96491 0.0
C711 C 0.73198 0.56307 0.97003 0.0
O712 O 0.74094 0.50668 0.97142 0.0
N713 N 0.90589 0.49642 0.9675 0.0
C714 C 0.99332 0.41266 0.96598 0.0
C715 C 0.99305 0.46054 0.95762 0.0
C716 C 0.9485 0.50155 0.95842 0.0
C717 C 0.90158 0.44665 0.97462 0.0
C718 C 0.94587 0.40476 0.97429 0.0
H719 H 0.9488 0.53816 0.9519 0.0
H720 H 0.8646 0.44052 0.98094 0.0
H721 H 0.84321 0.617 0.94053 0.0
H722 H 0.80765 0.44739 0.92701 0.0
H723 H 0.91015 0.54237 1.01492 0.0
H724 H 0.02875 0.46834 0.95102 0.0
H725 H 0.94419 0.36783 0.98075 0.0
C726 C 0.75129 0.56445 0.19895 0.0
C727 C 0.75516 0.56149 0.18589 0.0
N728 N 0.70135 0.56931 0.18107 0.0
N729 N 0.69545 0.57532 0.20236 0.0
C730 C 0.66558 0.57683 0.19124 0.0
H731 H 0.78717 0.56055 0.20559 0.0
Co732 Co 0.6733 0.5881 0.21933 0.0
C733 C 0.59596 0.69144 0.21748 0.0
O734 O 0.6291 0.71749 0.22598 0.0
N735 N 0.65129 0.59648 0.23684 0.0
C736 C 0.59154 0.58885 0.25364 0.0
C737 C 0.59687 0.60796 0.24128 0.0
C738 C 0.67776 0.56954 0.24686 0.0
N739 N 0.64219 0.56397 0.25712 0.0
O740 O 0.62396 0.52176 0.21852 0.0
H741 H 0.56032 0.62179 0.23556 0.0
H742 H 0.7195 0.54762 0.24613 0.0
O743 O 0.6079 0.63904 0.21395 0.0
C744 C 0.65179 0.47814 0.22283 0.0
O745 O 0.7067 0.4849 0.22613 0.0
N746 N 0.72564 0.65223 0.21991 0.0
C747 C 0.80676 0.74338 0.21915 0.0
C748 C 0.76556 0.7366 0.20943 0.0
C749 C 0.72586 0.69091 0.20995 0.0
C750 C 0.76796 0.65567 0.22903 0.0
C751 C 0.80842 0.70166 0.22896 0.0
H752 H 0.69434 0.68728 0.20235 0.0
H753 H 0.77087 0.62293 0.23638 0.0
H754 H 0.61908 0.58483 0.19057 0.0
H755 H 0.79437 0.55379 0.18033 0.0
H756 H 0.55155 0.58794 0.25919 0.0
H757 H 0.76167 0.76813 0.20177 0.0
H758 H 0.83991 0.70518 0.23661 0.0
C759 C 0.69023 0.50698 0.44965 0.0
C760 C 0.69504 0.51464 0.43672 0.0
N761 N 0.67613 0.46571 0.43085 0.0
N762 N 0.66831 0.45351 0.45208 0.0
C763 C 0.66077 0.42883 0.44044 0.0
H764 H 0.70168 0.53856 0.4569 0.0
Co765 Co 0.65463 0.42936 0.46888 0.0
C766 C 0.55073 0.35304 0.46646 0.0
O767 O 0.52432 0.38592 0.47498 0.0
N768 N 0.64532 0.40519 0.48626 0.0
C769 C 0.65058 0.3437 0.50277 0.0
C770 C 0.63252 0.35053 0.49039 0.0
C771 C 0.67207 0.43017 0.49648 0.0
N772 N 0.67625 0.39356 0.50657 0.0
O773 O 0.72093 0.37994 0.46786 0.0
H774 H 0.61825 0.31479 0.48447 0.0
H775 H 0.69471 0.47165 0.49605 0.0
O776 O 0.60338 0.36495 0.46308 0.0
C777 C 0.76335 0.40896 0.47239 0.0
O778 O 0.75472 0.46358 0.47576 0.0
N779 N 0.59142 0.48241 0.46979 0.0
C780 C 0.50026 0.56324 0.47051 0.0
C781 C 0.5061 0.52447 0.46025 0.0
C782 C 0.55211 0.48496 0.46001 0.0
C783 C 0.5894 0.52325 0.47926 0.0
C784 C 0.54352 0.56347 0.47994 0.0
H785 H 0.55484 0.45483 0.45211 0.0
H786 H 0.62312 0.52504 0.48637 0.0
H787 H 0.64329 0.38534 0.43904 0.0
H788 H 0.71213 0.55324 0.43204 0.0
H789 H 0.64989 0.30324 0.50815 0.0
H790 H 0.47354 0.52209 0.45279 0.0
H791 H 0.54113 0.59347 0.48791 0.0
C792 C 0.25544 0.42001 0.19781 0.0
C793 C 0.25901 0.42208 0.18474 0.0
N794 N 0.20466 0.41739 0.18001 0.0
N795 N 0.19915 0.41276 0.20135 0.0
C796 C 0.16888 0.41254 0.19026 0.0
H797 H 0.29171 0.42262 0.20437 0.0
Co798 Co 0.17601 0.40422 0.21844 0.0
C799 C 0.09719 0.30147 0.21754 0.0
O800 O 0.12974 0.27674 0.22632 0.0
N801 N 0.15273 0.39992 0.23597 0.0
C802 C 0.09231 0.4098 0.25261 0.0
C803 C 0.0978 0.38997 0.24031 0.0
C804 C 0.17922 0.42715 0.24594 0.0
N805 N 0.14339 0.43363 0.25613 0.0
O806 O 0.12798 0.47118 0.21684 0.0
H807 H 0.06129 0.37628 0.23456 0.0
H808 H 0.22138 0.44836 0.24525 0.0
O809 O 0.11011 0.35287 0.21347 0.0
C810 C 0.15812 0.51418 0.22072 0.0
O811 O 0.2129 0.50543 0.22391 0.0
N812 N 0.2275 0.33988 0.21992 0.0
C813 C 0.30864 0.24905 0.22067 0.0
C814 C 0.26791 0.25272 0.21077 0.0
C815 C 0.22813 0.29841 0.21053 0.0
C816 C 0.26944 0.33924 0.22915 0.0
C817 C 0.30976 0.29343 0.22987 0.0
H818 H 0.19714 0.30004 0.20279 0.0
H819 H 0.2724 0.37427 0.23596 0.0
H820 H 0.12186 0.40812 0.18971 0.0
H821 H 0.2984 0.42771 0.17911 0.0
H822 H 0.05221 0.41151 0.25811 0.0
H823 H 0.26473 0.21901 0.20355 0.0
H824 H 0.34095 0.29228 0.23761 0.0
C825 C 0.31917 0.5004 0.94754 0.0
C826 C 0.31682 0.50427 0.93448 0.0
N827 N 0.32268 0.45012 0.92964 0.0
N828 N 0.3278 0.44419 0.95096 0.0
C829 C 0.32853 0.4142 0.93982 0.0
H830 H 0.31601 0.53645 0.95418 0.0
Co831 Co 0.33762 0.42066 0.96795 0.0
C832 C 0.44091 0.34317 0.96655 0.0
O833 O 0.46593 0.3756 0.97532 0.0
N834 N 0.34308 0.39698 0.98543 0.0
C835 C 0.3343 0.33631 1.00203 0.0
C836 C 0.35337 0.342 0.98966 0.0
C837 C 0.31657 0.42331 0.99554 0.0
N838 N 0.3107 0.38734 1.00571 0.0
O839 O 0.27195 0.37113 0.96634 0.0
H840 H 0.36688 0.30566 0.9838 0.0
H841 H 0.29541 0.4655 0.99499 0.0
O842 O 0.38933 0.35587 0.96268 0.0
C843 C 0.22748 0.39727 0.97074 0.0
O844 O 0.23293 0.45136 0.97477 0.0
N845 N 0.40147 0.47298 0.96932 0.0
C846 C 0.49432 0.55169 0.97024 0.0
C847 C 0.48862 0.51298 0.96 0.0
C848 C 0.44205 0.47423 0.95971 0.0
C849 C 0.40367 0.51376 0.97881 0.0
C850 C 0.45063 0.55275 0.97963 0.0
H851 H 0.43947 0.444 0.95182 0.0
H852 H 0.36944 0.51644 0.98583 0.0
H853 H 0.33428 0.36733 0.93916 0.0
H854 H 0.31045 0.54369 0.92893 0.0
H855 H 0.33304 0.29613 1.00749 0.0
H856 H 0.52179 0.51002 0.95263 0.0
H857 H 0.45351 0.58244 0.98765 0.0
C858 C 0.22715 0.56244 0.69803 0.0
C859 C 0.22473 0.55788 0.68499 0.0
N860 N 0.27854 0.56798 0.68027 0.0
N861 N 0.28202 0.57656 0.70156 0.0
C862 C 0.31287 0.57843 0.69051 0.0
H863 H 0.19086 0.55727 0.70457 0.0
Co864 Co 0.30178 0.59148 0.71864 0.0
C865 C 0.37672 0.69844 0.71378 0.0
O866 O 0.33841 0.73329 0.71919 0.0
N867 N 0.32118 0.60262 0.73621 0.0
C868 C 0.36573 0.62426 0.7545 0.0
C869 C 0.35844 0.64013 0.74197 0.0
C870 C 0.30606 0.56481 0.74568 0.0
N871 N 0.33318 0.57643 0.75683 0.0
O872 O 0.3532 0.5267 0.7183 0.0
H873 H 0.38228 0.67492 0.73745 0.0
H874 H 0.2782 0.52726 0.74429 0.0
O875 O 0.367 0.64321 0.71325 0.0
C876 C 0.32284 0.48182 0.72091 0.0
O877 O 0.26609 0.48746 0.72239 0.0
N878 N 0.24682 0.65309 0.719 0.0
C879 C 0.16491 0.74304 0.71994 0.0
C880 C 0.19979 0.73484 0.70908 0.0
C881 C 0.23996 0.68941 0.70875 0.0
C882 C 0.20875 0.65638 0.72903 0.0
C883 C 0.16796 0.70166 0.72979 0.0
H884 H 0.26827 0.68585 0.70052 0.0
H885 H 0.21043 0.62461 0.73663 0.0
H886 H 0.359 0.58861 0.68994 0.0
H887 H 0.18651 0.54742 0.67937 0.0
H888 H 0.39491 0.64495 0.76124 0.0
H889 H 0.19959 0.7658 0.70126 0.0
H890 H 0.14084 0.70569 0.73823 0.0
C891 C 0.18755 0.48611 0.44958 0.0
C892 C 0.19189 0.47872 0.43663 0.0
N893 N 0.17457 0.52844 0.43085 0.0
N894 N 0.16738 0.54014 0.4521 0.0
C895 C 0.16054 0.56546 0.44049 0.0
H896 H 0.19798 0.45391 0.45678 0.0
Co897 Co 0.15422 0.56387 0.46895 0.0
C898 C 0.05115 0.64141 0.4668 0.0
O899 O 0.02483 0.6086 0.47537 0.0
N900 N 0.14534 0.5875 0.48637 0.0
C901 C 0.15199 0.64844 0.50294 0.0
C902 C 0.13417 0.64243 0.49052 0.0
C903 C 0.17093 0.56149 0.49661 0.0
N904 N 0.17573 0.59768 0.50675 0.0
O905 O 0.22111 0.61268 0.46796 0.0
H906 H 0.12129 0.6787 0.48459 0.0
H907 H 0.19262 0.51956 0.49617 0.0
O908 O 0.10349 0.62899 0.46327 0.0
C909 C 0.26307 0.5831 0.47252 0.0
O910 O 0.2536 0.52854 0.47588 0.0
N911 N 0.09055 0.51133 0.46981 0.0
C912 C -0.00025 0.42994 0.47028 0.0
C913 C 0.00492 0.47003 0.46024 0.0
C914 C 0.0508 0.5098 0.46011 0.0
C915 C 0.08908 0.46938 0.47907 0.0
C916 C 0.04338 0.42885 0.47963 0.0
H917 H 0.05334 0.54063 0.45232 0.0
H918 H 0.12325 0.46674 0.48606 0.0
H919 H 0.14446 0.60951 0.43915 0.0
H920 H 0.20752 0.43978 0.43187 0.0
H921 H 0.1527 0.6888 0.50834 0.0
H922 H 0.97207 0.47304 0.45285 0.0
H923 H 0.04152 0.39781 0.48743 0.0
C924 C 0.2591 0.54875 0.36023 0.0
C925 C 0.25775 0.5406 0.37321 0.0
N926 N 0.20547 0.55855 0.37756 0.0
N927 N 0.20775 0.5715 0.35637 0.0
C928 C 0.17548 0.57667 0.36719 0.0
H929 H 0.29523 0.53857 0.35394 0.0
Co930 Co 0.19293 0.58715 0.3391 0.0
C931 C 0.118 0.69526 0.34381 0.0
O932 O 0.15924 0.73178 0.34027 0.0
N933 N 0.17829 0.59946 0.32135 0.0
C934 C 0.14598 0.63059 0.30247 0.0
C935 C 0.15253 0.64442 0.31516 0.0
C936 C 0.18816 0.55952 0.312 0.0
N937 N 0.16819 0.57692 0.3005 0.0
O938 O 0.14001 0.52309 0.33879 0.0
H939 H 0.13776 0.6845 0.31942 0.0
H940 H 0.20778 0.51731 0.3136 0.0
O941 O 0.12719 0.6399 0.34361 0.0
C942 C 0.1697 0.47721 0.33672 0.0
O943 O 0.22678 0.48145 0.33567 0.0
N944 N 0.24958 0.64734 0.33941 0.0
C945 C 0.33179 0.73719 0.33868 0.0
C946 C 0.29658 0.72872 0.3495 0.0
C947 C 0.25646 0.68302 0.34976 0.0
C948 C 0.28895 0.64998 0.32962 0.0
C949 C 0.32999 0.69509 0.32897 0.0
H950 H 0.22756 0.67955 0.35789 0.0
H951 H 0.28776 0.61809 0.32203 0.0
H952 H 0.13096 0.59255 0.36746 0.0
H953 H 0.29224 0.52237 0.37902 0.0
H954 H 0.12536 0.65761 0.2953 0.0
H955 H 0.29611 0.75983 0.35728 0.0
H956 H 0.35786 0.69873 0.32064 0.0
C957 C 0.18308 0.51356 0.10995 0.0
C958 C 0.18645 0.51366 0.12302 0.0
N959 N 0.17456 0.45936 0.12722 0.0
N960 N 0.1679 0.45969 0.10588 0.0
C961 C 0.16422 0.42703 0.11665 0.0
H962 H 0.18961 0.55085 0.10375 0.0
Co963 Co 0.15361 0.44334 0.08859 0.0
C964 C 0.04588 0.36768 0.09326 0.0
O965 O 0.00947 0.40845 0.08951 0.0
N966 N 0.14274 0.42724 0.07085 0.0
C967 C 0.11326 0.3927 0.05204 0.0
C968 C 0.09836 0.40065 0.06465 0.0
C969 C 0.18343 0.43623 0.06158 0.0
N970 N 0.16703 0.41486 0.05012 0.0
O971 O 0.21809 0.3913 0.08858 0.0
H972 H 0.05799 0.38617 0.06885 0.0
H973 H 0.22548 0.45613 0.06323 0.0
O974 O 0.10121 0.37715 0.09316 0.0
C975 C 0.2637 0.42167 0.08667 0.0
O976 O 0.25876 0.4787 0.08558 0.0
N977 N 0.09255 0.49915 0.08862 0.0
C978 C 0.00335 0.582 0.0881 0.0
C979 C 0.01172 0.54671 0.09886 0.0
C980 C 0.05679 0.50612 0.09898 0.0
C981 C 0.08949 0.53798 0.07874 0.0
C982 C 0.04457 0.57922 0.07818 0.0
H983 H 0.06009 0.47728 0.10711 0.0
H984 H 0.12105 0.53638 0.07107 0.0
H985 H 0.1527 0.38112 0.1168 0.0
H986 H 0.19711 0.55065 0.12902 0.0
H987 H 0.08691 0.37115 0.04489 0.0
H988 H 0.98098 0.54668 0.10674 0.0
H989 H 0.04056 0.60676 0.06982 0.0
C990 C 0.23733 0.4221 0.8588 0.0
C991 C 0.23391 0.42472 0.87188 0.0
N992 N 0.28799 0.41752 0.8766 0.0
N993 N 0.29317 0.41201 0.85527 0.0
C994 C 0.32344 0.41064 0.86636 0.0
H995 H 0.20118 0.42596 0.85224 0.0
Co996 Co 0.31568 0.40092 0.83823 0.0
C997 C 0.39193 0.29608 0.84008 0.0
O998 O 0.35802 0.26944 0.83182 0.0
N999 N 0.33833 0.39407 0.8207 0.0
C1000 C 0.3976 0.39735 0.80376 0.0
C1001 C 0.39145 0.37851 0.81611 0.0
C1002 C 0.31365 0.42347 0.8108 0.0
N1003 N 0.34899 0.42643 0.80044 0.0
O1004 O 0.36547 0.46681 0.83942 0.0
H1005 H 0.42708 0.36134 0.82166 0.0
H1006 H 0.27342 0.448 0.81162 0.0
O1007 O 0.38044 0.34881 0.84345 0.0
C1008 C 0.33624 0.51055 0.83563 0.0
O1009 O 0.28092 0.50332 0.83271 0.0
N1010 N 0.26265 0.33762 0.83714 0.0
C1011 C 0.18177 0.24644 0.83649 0.0
C1012 C 0.22055 0.2521 0.84671 0.0
C1013 C 0.26028 0.29787 0.84688 0.0
C1014 C 0.22212 0.33554 0.82763 0.0
C1015 C 0.18193 0.28951 0.82697 0.0
H1016 H 0.2905 0.30037 0.85476 0.0
H1017 H 0.22068 0.36922 0.82046 0.0
H1018 H 0.37012 0.40353 0.86693 0.0
H1019 H 0.19483 0.43203 0.87751 0.0
H1020 H 0.43706 0.39456 0.79807 0.0
H1021 H 0.22282 0.21947 0.85418 0.0
H1022 H 0.15226 0.28685 0.81896 0.0
C1023 C 0.30687 0.47313 0.61044 0.0
C1024 C 0.30281 0.47343 0.62351 0.0
N1025 N 0.31415 0.52793 0.6276 0.0
N1026 N 0.32192 0.52699 0.60629 0.0
C1027 C 0.32483 0.56 0.617 0.0
H1028 H 0.30065 0.43568 0.60429 0.0
Co1029 Co 0.33621 0.54355 0.58901 0.0
C1030 C 0.44448 0.61836 0.59348 0.0
O1031 O 0.48064 0.57787 0.58943 0.0
N1032 N 0.34693 0.55998 0.5713 0.0
C1033 C 0.37473 0.59596 0.55244 0.0
C1034 C 0.39027 0.58813 0.56499 0.0
C1035 C 0.30623 0.55002 0.56214 0.0
N1036 N 0.32157 0.57225 0.55066 0.0
O1037 O 0.27257 0.59657 0.58916 0.0
H1038 H 0.43016 0.60403 0.56911 0.0
H1039 H 0.26482 0.5289 0.56392 0.0
O1040 O 0.38917 0.60895 0.59356 0.0
C1041 C 0.22579 0.56815 0.58729 0.0
O1042 O 0.2283 0.51092 0.5863 0.0
N1043 N 0.39691 0.48727 0.58885 0.0
C1044 C 0.48842 0.40721 0.58765 0.0
C1045 C 0.47919 0.44078 0.59865 0.0
C1046 C 0.43301 0.4801 0.5991 0.0
C1047 C 0.40045 0.44932 0.57883 0.0
C1048 C 0.44654 0.4095 0.57793 0.0
H1049 H 0.42944 0.50825 0.60734 0.0
H1050 H 0.3687 0.45092 0.57124 0.0
H1051 H 0.33565 0.60608 0.61707 0.0
H1052 H 0.29182 0.43665 0.62957 0.0
H1053 H 0.40012 0.61865 0.54525 0.0
H1054 H 0.51029 0.44101 0.60641 0.0
H1055 H 0.45119 0.38316 0.56941 0.0
C1056 C 0.34955 0.8837 0.32386 0.0
C1057 C 0.36064 0.91734 0.33474 0.0
H1058 H 0.33328 0.79878 0.3165 0.0
C1059 C 0.38006 0.89009 0.34591 0.0
H1060 H 0.33496 0.90433 0.31512 0.0
C1061 C 0.37925 0.82905 0.34675 0.0
C1062 C 0.35864 0.79536 0.33645 0.0
H1063 H 0.3889 0.9156 0.35439 0.0
H1064 H 0.38847 0.80876 0.35586 0.0
C1065 C 0.34895 0.82302 0.32467 0.0
C1066 C 0.35065 0.12138 0.59573 0.0
C1067 C 0.31859 0.10701 0.58484 0.0
H1068 H 0.43484 0.11877 0.60454 0.0
C1069 C 0.34779 0.09497 0.57336 0.0
H1070 H 0.32858 0.13058 0.60467 0.0
C1071 C 0.4082 0.088 0.57326 0.0
C1072 C 0.43951 0.09224 0.58471 0.0
H1073 H 0.32334 0.08395 0.56486 0.0
H1074 H 0.42876 0.07149 0.56467 0.0
C1075 C 0.41125 0.11416 0.59566 0.0
C1076 C 0.15861 0.09819 0.82357 0.0
C1077 C 0.14663 0.0683 0.83496 0.0
H1078 H 0.17722 0.18071 0.81502 0.0
C1079 C 0.12687 0.09931 0.84563 0.0
H1080 H 0.17387 0.0747 0.81523 0.0
C1081 C 0.12863 0.16036 0.84553 0.0
C1082 C 0.15095 0.19017 0.8348 0.0
H1083 H 0.11769 0.07676 0.85451 0.0
H1084 H 0.12008 0.18365 0.85433 0.0
C1085 C 0.16029 0.15904 0.82345 0.0
C1086 C 0.13786 0.87055 0.0943 0.0
C1087 C 0.16803 0.88674 0.08321 0.0
H1088 H 0.05472 0.86966 0.10371 0.0
C1089 C 0.13701 0.89724 0.07194 0.0
H1090 H 0.16128 0.86237 0.10308 0.0
C1091 C 0.07636 0.90164 0.07227 0.0
C1092 C 0.04664 0.89631 0.08394 0.0
H1093 H 0.15995 0.90949 0.06327 0.0
H1094 H 0.05418 0.91744 0.06383 0.0
C1095 C 0.07701 0.87519 0.09465 0.0
C1096 C 0.36313 0.16418 0.21157 0.0
C1097 C 0.3414 0.19395 0.22234 0.0
H1098 H 0.37565 0.08041 0.20283 0.0
C1099 C 0.33508 0.16347 0.23388 0.0
H1100 H 0.36933 0.18707 0.20262 0.0
C1101 C 0.3391 0.10271 0.23399 0.0
C1102 C 0.35023 0.07239 0.22262 0.0
H1103 H 0.3187 0.18523 0.24234 0.0
H1104 H 0.32578 0.07928 0.24251 0.0
C1105 C 0.36727 0.10326 0.2117 0.0
C1106 C 0.14085 0.09428 0.4838 0.0
C1107 C 0.17336 0.10694 0.47281 0.0
H1108 H 0.05628 0.07878 0.49156 0.0
C1109 C 0.1455 0.13065 0.46213 0.0
H1110 H 0.162 0.0761 0.49215 0.0
C1111 C 0.08447 0.13235 0.46174 0.0
C1112 C 0.05151 0.10961 0.47199 0.0
H1113 H 0.17016 0.14056 0.45355 0.0
H1114 H 0.06337 0.14433 0.45289 0.0
C1115 C 0.08012 0.09611 0.48345 0.0
C1116 C 0.11173 0.89267 0.71172 0.0
C1117 C 0.133 0.92251 0.72238 0.0
H1118 H 0.1029 0.80919 0.70269 0.0
C1119 C 0.14678 0.89144 0.73349 0.0
H1120 H 0.1008 0.91622 0.70308 0.0
C1121 C 0.14816 0.83067 0.7333 0.0
C1122 C 0.13664 0.80052 0.72192 0.0
H1123 H 0.16276 0.91416 0.74186 0.0
H1124 H 0.16589 0.8083 0.74153 0.0
C1125 C 0.11334 0.83157 0.7115 0.0
C1126 C 0.40475 0.85623 0.96153 0.0
C1127 C 0.43761 0.87881 0.97174 0.0
H1128 H 0.3194 0.84934 0.95323 0.0
C1129 C 0.40855 0.89439 0.98307 0.0
H1130 H 0.42617 0.8428 0.95278 0.0
C1131 C 0.3479 0.89801 0.98329 0.0
C1132 C 0.31582 0.88498 0.9723 0.0
H1133 H 0.43231 0.91173 0.99114 0.0
H1134 H 0.32665 0.91735 0.99152 0.0
C1135 C 0.34376 0.85962 0.96179 0.0
C1136 C 0.61052 0.16488 0.70901 0.0
C1137 C 0.63081 0.19691 0.7196 0.0
H1138 H 0.60312 0.0798 0.70051 0.0
C1139 C 0.64175 0.16709 0.73107 0.0
H1140 H 0.60036 0.18682 0.70014 0.0
C1141 C 0.64287 0.10632 0.73125 0.0
C1142 C 0.63223 0.07473 0.72007 0.0
H1143 H 0.65719 0.19 0.73944 0.0
H1144 H 0.65841 0.08429 0.73973 0.0
C1145 C 0.61159 0.10374 0.70923 0.0
C1146 C 0.6423 0.90802 0.48174 0.0
C1147 C 0.67393 0.89559 0.47061 0.0
H1148 H 0.55844 0.92238 0.48993 0.0
C1149 C 0.64506 0.87265 0.45999 0.0
H1150 H 0.66411 0.92574 0.49004 0.0
C1151 C 0.58398 0.87048 0.45988 0.0
C1152 C 0.55175 0.89197 0.47035 0.0
H1153 H 0.66901 0.86301 0.45131 0.0
H1154 H 0.5621 0.85835 0.45113 0.0
C1155 C 0.58154 0.90575 0.48166 0.0
C1156 C 0.83674 0.89255 0.2309 0.0
C1157 C 0.84492 0.92145 0.21923 0.0
H1158 H 0.8201 0.81121 0.24013 0.0
C1159 C 0.85989 0.88908 0.20839 0.0
H1160 H 0.82446 0.91656 0.23935 0.0
C1161 C 0.85745 0.82805 0.2088 0.0
C1162 C 0.83878 0.79948 0.22001 0.0
H1163 H 0.86593 0.91066 0.19927 0.0
H1164 H 0.86249 0.80388 0.19998 0.0
C1165 C 0.83421 0.83177 0.23133 0.0
C1166 C 0.90702 0.08332 0.98315 0.0
C1167 C 0.9374 0.09871 0.97198 0.0
H1168 H 0.82413 0.06055 0.99116 0.0
C1169 C 0.90583 0.12139 0.96158 0.0
H1170 H 0.92982 0.06593 0.99135 0.0
C1171 C 0.84483 0.11809 0.96149 0.0
C1172 C 0.81556 0.09282 0.97186 0.0
H1173 H 0.92831 0.13462 0.95293 0.0
H1174 H 0.82152 0.12834 0.9528 0.0
C1175 C 0.84633 0.07983 0.98303 0.0
C1176 C 0.63268 0.82819 0.84759 0.0
C1177 C 0.65191 0.79828 0.83661 0.0
H1178 H 0.62413 0.91187 0.85662 0.0
C1179 C 0.65786 0.82927 0.82513 0.0
H1180 H 0.62676 0.805 0.85652 0.0
C1181 C 0.65607 0.89008 0.82522 0.0
C1182 C 0.64712 0.92023 0.83669 0.0
H1183 H 0.67247 0.80757 0.81651 0.0
H1184 H 0.66935 0.91316 0.81669 0.0
C1185 C 0.63077 0.88924 0.84765 0.0
C1186 C 0.90987 0.90958 0.57284 0.0
C1187 C 0.93902 0.90511 0.58456 0.0
H1188 H 0.82677 0.91309 0.56363 0.0
C1189 C 0.90865 0.88303 0.59523 0.0
H1190 H 0.93206 0.92629 0.56445 0.0
C1191 C 0.84814 0.87522 0.59472 0.0
C1192 C 0.81814 0.88941 0.58353 0.0
H1193 H 0.93051 0.87828 0.60432 0.0
H1194 H 0.8244 0.86557 0.60343 0.0
C1195 C 0.84955 0.90214 0.57237 0.0
C1196 C 0.8448 0.10437 0.3248 0.0
C1197 C 0.85634 0.07155 0.33578 0.0
H1198 H 0.82843 0.18871 0.31712 0.0
C1199 C 0.87583 0.09967 0.34683 0.0
H1200 H 0.82999 0.08307 0.31618 0.0
C1201 C 0.87518 0.16078 0.34743 0.0
C1202 C 0.85448 0.19369 0.33701 0.0
H1203 H 0.88486 0.07479 0.35539 0.0
H1204 H 0.88467 0.18177 0.35644 0.0
C1205 C 0.8443 0.1651 0.32536 0.0
C1206 C 0.63927 0.12274 0.09524 0.0
C1207 C 0.66867 0.10338 0.0843 0.0
H1208 H 0.55633 0.12938 0.10465 0.0
C1209 C 0.63695 0.09016 0.07327 0.0
H1210 H 0.66326 0.13302 0.10384 0.0
C1211 C 0.57621 0.08793 0.07369 0.0
C1212 C 0.54667 0.09805 0.08524 0.0
H1213 H 0.65926 0.07542 0.06471 0.0
H1214 H 0.5534 0.07096 0.06545 0.0
C1215 C 0.57823 0.1202 0.0957 0.0
C1216 C 0.85255 0.38661 0.82331 0.0
C1217 C 0.86408 0.41961 0.83426 0.0
H1218 H 0.83685 0.30176 0.81575 0.0
C1219 C 0.88496 0.39192 0.84524 0.0
H1220 H 0.83687 0.40765 0.8147 0.0
C1221 C 0.88496 0.33086 0.8459 0.0
C1222 C 0.86384 0.29771 0.83557 0.0
H1223 H 0.89414 0.41695 0.85378 0.0
H1224 H 0.89467 0.31003 0.85492 0.0
C1225 C 0.85297 0.32586 0.82391 0.0
C1226 C 0.91407 0.63197 0.09672 0.0
C1227 C 0.94565 0.60993 0.08621 0.0
H1228 H 0.8292 0.64201 0.10523 0.0
C1229 C 0.91581 0.5988 0.07478 0.0
H1230 H 0.93617 0.6422 0.10556 0.0
C1231 C 0.85506 0.59897 0.07462 0.0
C1232 C 0.82365 0.61117 0.08578 0.0
H1233 H 0.93851 0.58209 0.06647 0.0
H1234 H 0.83278 0.58312 0.0662 0.0
C1235 C 0.85298 0.63229 0.09653 0.0
C1236 C 0.62544 0.66173 0.34602 0.0
C1237 C 0.64698 0.6915 0.33522 0.0
H1238 H 0.61323 0.57801 0.35485 0.0
C1239 C 0.65357 0.66082 0.32372 0.0
H1240 H 0.61904 0.68473 0.35495 0.0
C1241 C 0.6498 0.60003 0.32368 0.0
C1242 C 0.63865 0.56981 0.33506 0.0
H1243 H 0.66986 0.68252 0.31523 0.0
H1244 H 0.6632 0.57654 0.31518 0.0
C1245 C 0.62158 0.60078 0.34596 0.0
C1246 C 0.57592 0.39814 0.57386 0.0
C1247 C 0.54745 0.38289 0.58529 0.0
H1248 H 0.65722 0.42171 0.56519 0.0
C1249 C 0.58098 0.36118 0.59549 0.0
H1250 H 0.55169 0.41475 0.56578 0.0
C1251 C 0.64192 0.36536 0.59511 0.0
C1252 C 0.66917 0.39062 0.58448 0.0
H1253 H 0.56006 0.34792 0.60432 0.0
H1254 H 0.66671 0.3559 0.60365 0.0
C1255 C 0.63652 0.4025 0.57352 0.0
C1256 C 0.86508 0.66331 0.71064 0.0
C1257 C 0.84346 0.69538 0.7211 0.0
H1258 H 0.8757 0.57794 0.70252 0.0
C1259 C 0.83427 0.66658 0.73277 0.0
H1260 H 0.87343 0.68475 0.7016 0.0
C1261 C 0.83585 0.60576 0.73327 0.0
C1262 C 0.84755 0.57352 0.7222 0.0
H1263 H 0.81779 0.68999 0.741 0.0
H1264 H 0.82072 0.58396 0.74186 0.0
C1265 C 0.86689 0.6023 0.71118 0.0
C1266 C 0.64189 0.60761 0.96152 0.0
C1267 C 0.67295 0.5855 0.97193 0.0
H1268 H 0.5575 0.61594 0.95294 0.0
C1269 C 0.64304 0.56957 0.9831 0.0
H1270 H 0.66448 0.61976 0.95281 0.0
C1271 C 0.58228 0.56804 0.98326 0.0
C1272 C 0.55111 0.58088 0.97211 0.0
H1273 H 0.66648 0.55214 0.99122 0.0
H1274 H 0.56053 0.54902 0.99147 0.0
C1275 C 0.58087 0.60533 0.96161 0.0
C1276 C 0.63804 0.32433 0.23303 0.0
C1277 C 0.6272 0.2978 0.22118 0.0
H1278 H 0.65386 0.40478 0.24278 0.0
C1279 C 0.60617 0.33238 0.21107 0.0
H1280 H 0.65411 0.29913 0.24103 0.0
C1281 C 0.60598 0.39331 0.21213 0.0
C1282 C 0.62668 0.4195 0.22331 0.0
H1283 H 0.59649 0.31282 0.20191 0.0
H1284 H 0.59675 0.41952 0.20377 0.0
C1285 C 0.6383 0.38496 0.23403 0.0
C1286 C 0.91487 0.40247 0.48376 0.0
C1287 C 0.94402 0.398 0.47199 0.0
H1288 H 0.83183 0.40797 0.49307 0.0
C1289 C 0.91312 0.37731 0.46131 0.0
H1290 H 0.93734 0.41802 0.49217 0.0
C1291 C 0.85237 0.37142 0.46186 0.0
C1292 C 0.82269 0.38598 0.47311 0.0
H1293 H 0.93491 0.37235 0.45218 0.0
H1294 H 0.82846 0.36309 0.45315 0.0
C1295 C 0.85435 0.39683 0.48428 0.0
C1296 C 0.11311 0.66302 0.21044 0.0
C1297 C 0.13511 0.69557 0.22078 0.0
H1298 H 0.10256 0.5774 0.20235 0.0
C1299 C 0.14761 0.6664 0.23225 0.0
H1300 H 0.10192 0.68447 0.20156 0.0
C1301 C 0.14777 0.60564 0.23266 0.0
C1302 C 0.13461 0.57333 0.22171 0.0
H1303 H 0.16452 0.68976 0.24043 0.0
H1304 H 0.16402 0.58399 0.24115 0.0
C1305 C 0.11301 0.60188 0.21089 0.0
C1306 C 0.07343 0.37931 0.97988 0.0
C1307 C 0.04822 0.37987 0.96769 0.0
H1308 H 0.15322 0.38382 0.99037 0.0
C1309 C 0.08297 0.36576 0.95703 0.0
H1310 H 0.04775 0.38989 0.98826 0.0
C1311 C 0.14357 0.36178 0.95829 0.0
C1312 C 0.16912 0.37198 0.9702 0.0
H1313 H 0.06422 0.36522 0.94756 0.0
H1314 H 0.1704 0.35879 0.94978 0.0
C1315 C 0.13385 0.37603 0.9811 0.0
C1316 C 0.33227 0.33257 0.7335 0.0
C1317 C 0.33881 0.30221 0.72196 0.0
H1318 H 0.32337 0.41665 0.74217 0.0
C1319 C 0.36048 0.33215 0.71119 0.0
H1320 H 0.31582 0.31067 0.74195 0.0
C1321 C 0.36497 0.39304 0.71136 0.0
C1322 C 0.34819 0.42377 0.72231 0.0
H1323 H 0.3667 0.30937 0.70223 0.0
H1324 H 0.37376 0.41606 0.70252 0.0
C1325 C 0.3365 0.3933 0.73363 0.0
C1326 C 0.41335 0.61599 0.4617 0.0
C1327 C 0.44414 0.59431 0.47231 0.0
H1328 H 0.3288 0.63079 0.45353 0.0
C1329 C 0.41471 0.58815 0.48401 0.0
H1330 H 0.43532 0.62224 0.45263 0.0
C1331 C 0.35415 0.59335 0.48449 0.0
C1332 C 0.32267 0.60547 0.47336 0.0
H1333 H 0.43706 0.57177 0.49237 0.0
H1334 H 0.3315 0.58115 0.4932 0.0
C1335 C 0.35255 0.62146 0.46222 0.0
C1336 C 0.12847 0.32783 0.34616 0.0
C1337 C 0.15035 0.2977 0.33545 0.0
H1338 H 0.11619 0.41177 0.35487 0.0
C1339 C 0.15842 0.32836 0.32397 0.0
H1340 H 0.12085 0.30495 0.35506 0.0
C1341 C 0.15523 0.38918 0.32387 0.0
C1342 C 0.1432 0.41963 0.33517 0.0
H1343 H 0.17506 0.30651 0.31555 0.0
H1344 H 0.16938 0.41246 0.3154 0.0
C1345 C 0.1252 0.38884 0.34604 0.0
C1346 C 0.41366 0.41101 0.07433 0.0
C1347 C 0.4434 0.40243 0.08586 0.0
H1348 H 0.33033 0.4226 0.06556 0.0
C1349 C 0.4124 0.38041 0.09646 0.0
H1350 H 0.43622 0.42779 0.06599 0.0
C1351 C 0.35143 0.3774 0.09618 0.0
C1352 C 0.32159 0.39586 0.08527 0.0
H1353 H 0.43458 0.37247 0.10541 0.0
H1354 H 0.3278 0.36811 0.10492 0.0
C1355 C 0.35289 0.40817 0.07407 0.0
C1356 C 0.38238 0.59711 0.84563 0.0
C1357 C 0.36107 0.56921 0.83471 0.0
H1358 H 0.39307 0.67913 0.85519 0.0
C1359 C 0.34865 0.60211 0.82379 0.0
H1360 H 0.39219 0.57215 0.85414 0.0
C1361 C 0.34901 0.66286 0.82434 0.0
C1362 C 0.36088 0.69129 0.83592 0.0
H1363 H 0.33253 0.58095 0.81524 0.0
H1364 H 0.33246 0.68673 0.81619 0.0
C1365 C 0.38245 0.6582 0.84623 0.0
C1366 C 0.0802 0.6292 0.59531 0.0
C1367 C 0.04796 0.60595 0.58507 0.0
H1368 H 0.16473 0.63548 0.60404 0.0
C1369 C 0.07801 0.58794 0.57404 0.0
H1370 H 0.05811 0.64451 0.60383 0.0
C1371 C 0.13856 0.58292 0.5742 0.0
C1372 C 0.16972 0.59696 0.58525 0.0
H1373 H 0.05484 0.56998 0.56595 0.0
H1374 H 0.16024 0.56203 0.56621 0.0
C1375 C 0.14112 0.62436 0.59543 0.0
C1376 C 0.50721 0.30496 0.34361 0.0
C1377 C 0.55676 0.27053 0.34596 0.0
H1378 H 0.41505 0.30602 0.34015 0.0
C1379 C 0.5493 0.2105 0.34848 0.0
H1380 H 0.5115 0.35125 0.34162 0.0
C1381 C 0.49395 0.18464 0.34779 0.0
C1382 C 0.44519 0.21821 0.34434 0.0
H1383 H 0.58672 0.18292 0.35041 0.0
H1384 H 0.4901 0.1378 0.3491 0.0
C1385 C 0.45202 0.27894 0.34271 0.0
C1386 C 0.95872 0.2115 0.59219 0.0
C1387 C 0.01946 0.2048 0.59362 0.0
H1388 H 0.88636 0.27078 0.59152 0.0
C1389 C 0.05308 0.25338 0.59721 0.0
H1390 H 0.93164 0.17461 0.58953 0.0
C1391 C 0.02719 0.30862 0.59821 0.0
C1392 C 0.96711 0.31602 0.59588 0.0
H1393 H 0.09994 0.24952 0.59839 0.0
H1394 H 0.05476 0.34606 0.60018 0.0
C1395 C 0.93267 0.26651 0.59342 0.0
C1396 C 0.95836 0.77961 0.84118 0.0
C1397 C 0.95057 0.71921 0.84312 0.0
H1398 H 0.01892 0.85097 0.83996 0.0
C1399 C -0.00142 0.68533 0.84691 0.0
H1400 H 0.92196 0.80693 0.83836 0.0
C1401 C 0.05418 0.71047 0.84769 0.0
C1402 C 0.06262 0.7701 0.84491 0.0
H1403 H 0.99394 0.63874 0.84849 0.0
H1404 H 0.09103 0.68262 0.84992 0.0
C1405 C 0.01381 0.80495 0.84216 0.0
C1406 C 0.43429 0.7558 0.09562 0.0
C1407 C 0.46765 0.80726 0.09512 0.0
H1408 H 0.43525 0.66217 0.09482 0.0
C1409 C 0.52894 0.80331 0.09567 0.0
H1410 H 0.38704 0.75756 0.09514 0.0
C1411 C 0.55653 0.74875 0.09575 0.0
C1412 C 0.5232 0.69738 0.09496 0.0
H1413 H 0.55562 0.84244 0.09533 0.0
H1414 H 0.60382 0.74697 0.09538 0.0
C1415 C 0.46189 0.70128 0.09537 0.0
C1416 C 0.49202 0.68672 0.21011 0.0
C1417 C 0.54068 0.72007 0.21373 0.0
H1418 H 0.39952 0.68554 0.20705 0.0
C1419 C 0.53424 0.78088 0.21523 0.0
H1420 H 0.49564 0.63983 0.20887 0.0
C1421 C 0.47941 0.80724 0.21402 0.0
C1422 C 0.42982 0.77307 0.21148 0.0
H1423 H 0.57119 0.80781 0.21791 0.0
H1424 H 0.47533 0.85361 0.21593 0.0
C1425 C 0.43699 0.71292 0.2091 0.0
C1426 C 0.55695 0.24836 0.45955 0.0
C1427 C 0.52287 0.29707 0.46285 0.0
H1428 H 0.55945 0.15544 0.45708 0.0
C1429 C 0.46214 0.28992 0.46436 0.0
H1430 H 0.6038 0.25248 0.45834 0.0
C1431 C 0.43657 0.23449 0.46349 0.0
C1432 C 0.47145 0.18504 0.4613 0.0
H1433 H 0.43468 0.32684 0.4668 0.0
H1434 H 0.39021 0.23001 0.46539 0.0
C1435 C 0.53152 0.19277 0.45888 0.0
C1436 C 0.9923 0.18933 0.70988 0.0
C1437 C 0.04024 0.2224 0.71405 0.0
H1438 H 0.90022 0.18792 0.70629 0.0
C1439 C 0.03296 0.28279 0.71609 0.0
H1440 H -0.00344 0.14278 0.70822 0.0
C1441 C 0.97801 0.30887 0.71481 0.0
C1442 C 0.9291 0.27481 0.71167 0.0
H1443 H 0.06933 0.30953 0.7192 0.0
H1444 H 0.97324 0.3548 0.71711 0.0
C1445 C 0.93714 0.21521 0.70881 0.0
C1446 C 0.93278 0.73855 0.96281 0.0
C1447 C 0.96906 0.69009 0.96492 0.0
H1448 H 0.92752 0.83176 0.96106 0.0
C1449 C 0.03001 0.69845 0.96516 0.0
H1450 H 0.88573 0.73348 0.96254 0.0
C1451 C 0.05405 0.75451 0.96412 0.0
C1452 C 0.01753 0.8035 0.96302 0.0
H1453 H 0.05921 0.6618 0.96661 0.0
H1454 H 0.10093 0.75967 0.96497 0.0
C1455 C 0.95678 0.7948 0.96198 0.0
C1456 C 0.49872 0.80795 0.70949 0.0
C1457 C 0.5479 0.77352 0.71217 0.0
H1458 H 0.40549 0.81071 0.70786 0.0
C1459 C 0.541 0.71258 0.71335 0.0
H1460 H 0.50263 0.85496 0.70853 0.0
C1461 C 0.48546 0.68707 0.71278 0.0
C1462 C 0.43575 0.72223 0.71124 0.0
H1463 H 0.57828 0.68487 0.71531 0.0
H1464 H 0.48121 0.64051 0.71445 0.0
C1465 C 0.4431 0.78259 0.70914 0.0
C1466 C 0.9377 0.76072 0.46393 0.0
C1467 C 0.97283 0.80981 0.46148 0.0
H1468 H 0.93529 0.66855 0.46752 0.0
C1469 C 0.03269 0.80152 0.4589 0.0
H1470 H 0.89153 0.76568 0.46597 0.0
C1471 C 0.05771 0.74582 0.45965 0.0
C1472 C 0.02348 0.6975 0.46319 0.0
H1473 H 0.0608 0.83858 0.4569 0.0
H1474 H 0.10444 0.74134 0.45829 0.0
C1475 C 0.96289 0.70516 0.46488 0.0
C1476 C 0.99271 0.3071 0.21061 0.0
C1477 C 0.04106 0.2733 0.2142 0.0
H1478 H 0.90004 0.30958 0.20788 0.0
C1479 C 0.03351 0.21283 0.21614 0.0
H1480 H -0.00286 0.35375 0.20907 0.0
C1481 C 0.97805 0.18731 0.21529 0.0
C1482 C 0.92898 0.22204 0.21272 0.0
H1483 H 0.07017 0.1856 0.21883 0.0
H1484 H 0.97317 0.14122 0.21744 0.0
C1485 C 0.9371 0.2818 0.20999 0.0
C1486 C 0.52904 0.27917 0.96498 0.0
C1487 C 0.46878 0.28715 0.96302 0.0
H1488 H 0.59992 0.21828 0.96628 0.0
C1489 C 0.43474 0.23921 0.95922 0.0
H1490 H 0.55645 0.31552 0.96782 0.0
C1491 C 0.45953 0.18343 0.95849 0.0
C1492 C 0.51896 0.17479 0.96132 0.0
H1493 H 0.38823 0.24401 0.95764 0.0
H1494 H 0.43152 0.1466 0.95628 0.0
C1495 C 0.55405 0.22355 0.96403 0.0
C1496 C 0.51265 0.18369 0.84197 0.0
C1497 C 0.56176 0.21938 0.84387 0.0
H1498 H 0.41993 0.18032 0.83931 0.0
C1499 C 0.5534 0.27927 0.84637 0.0
H1500 H 0.51767 0.13744 0.84003 0.0
C1501 C 0.49742 0.30374 0.84613 0.0
C1502 C 0.44882 0.26891 0.84317 0.0
H1503 H 0.59046 0.3078 0.84799 0.0
H1504 H 0.49277 0.35049 0.84745 0.0
C1505 C 0.45673 0.20834 0.84152 0.0
C1506 C 0.43294 0.72714 0.59256 0.0
C1507 C 0.46785 0.67819 0.59517 0.0
H1508 H 0.43093 0.81897 0.58861 0.0
C1509 C 0.52773 0.68651 0.59763 0.0
H1510 H 0.38675 0.72216 0.5906 0.0
C1511 C 0.55299 0.74208 0.59663 0.0
C1512 C 0.51895 0.79014 0.59293 0.0
H1513 H 0.55566 0.64955 0.59975 0.0
H1514 H 0.59972 0.7466 0.59792 0.0
C1515 C 0.45836 0.78252 0.59135 0.0
C1516 C 0.0092 0.684 0.34255 0.0
C1517 C 0.05809 0.71871 0.34535 0.0
H1518 H 0.91751 0.68218 0.33856 0.0
C1519 C 0.04978 0.7785 0.34798 0.0
H1520 H 0.01415 0.63788 0.34045 0.0
C1521 C 0.99434 0.80385 0.34701 0.0
C1522 C 0.94629 0.77004 0.3432 0.0
H1523 H 0.08664 0.80631 0.35026 0.0
H1524 H 0.98987 0.85051 0.3485 0.0
C1525 C 0.95391 0.70952 0.34139 0.0
C1526 C 0.05637 0.25893 0.09166 0.0
C1527 C 0.02241 0.30782 0.09487 0.0
H1528 H 0.05684 0.16756 0.0872 0.0
C1529 C 0.96289 0.29972 0.09784 0.0
H1530 H 0.10223 0.26379 0.08928 0.0
C1531 C 0.93694 0.24453 0.09677 0.0
C1532 C 0.96985 0.19661 0.0925 0.0
H1533 H 0.9357 0.33665 0.10042 0.0
H1534 H 0.89043 0.24027 0.0985 0.0
C1535 C 0.03021 0.20392 0.09039 0.0
C1536 C 0.3422 0.06343 0.39576 0.0
C1537 C 0.28579 0.0659 0.39042 0.0
H1538 H 0.39301 0.05269 0.41289 0.0
C1539 C 0.23734 0.0662 0.39876 0.0
H1540 H 0.38049 0.06298 0.38967 0.0
C1541 C 0.2447 0.05987 0.4119 0.0
C1542 C 0.30061 0.05441 0.41713 0.0
H1543 H 0.1933 0.0697 0.39513 0.0
H1544 H 0.20652 0.05715 0.41801 0.0
C1545 C 0.3495 0.05775 0.40902 0.0
C1546 C 0.2057 0.10026 0.64452 0.0
C1547 C 0.16557 0.05813 0.64032 0.0
H1548 H 0.24868 0.13895 0.66064 0.0
C1549 C 0.1328 0.02678 0.64942 0.0
H1550 H 0.23182 0.12445 0.63768 0.0
C1551 C 0.14133 0.03605 0.6625 0.0
C1552 C 0.18401 0.0756 0.66669 0.0
H1553 H 0.10171 0.99397 0.64637 0.0
H1554 H 0.11707 0.00999 0.66933 0.0
C1555 C 0.21544 0.1083 0.65759 0.0
C1556 C 0.16063 0.97839 0.8947 0.0
C1557 C 0.18879 0.92777 0.89038 0.0
H1558 H 0.13276 0.02843 0.91089 0.0
C1559 C 0.20579 0.88516 0.89929 0.0
H1560 H 0.1482 0.01211 0.88798 0.0
C1561 C 0.19654 0.89404 0.9124 0.0
C1562 C 0.17157 0.94643 0.91678 0.0
H1563 H 0.22851 0.84628 0.89611 0.0
H1564 H 0.21221 0.86179 0.91913 0.0
C1565 C 0.15235 0.98779 0.90777 0.0
C1566 C 0.31009 0.90574 0.14559 0.0
C1567 C 0.30928 0.96225 0.1402 0.0
H1568 H 0.30243 0.85435 0.16279 0.0
C1569 C 0.30676 0.01064 0.1485 0.0
H1570 H 0.31192 0.86747 0.13955 0.0
C1571 C 0.30091 0.00292 0.16165 0.0
C1572 C 0.29872 0.94676 0.16694 0.0
H1573 H 0.30777 0.05485 0.14484 0.0
H1574 H 0.29606 0.04092 0.16772 0.0
C1575 C 0.30491 0.89812 0.15888 0.0
C1576 C 0.64433 0.96238 0.66096 0.0
C1577 C 0.68725 0.92322 0.66517 0.0
H1578 H 0.60423 0.00365 0.64479 0.0
C1579 C 0.71862 0.89032 0.65613 0.0
H1580 H 0.62018 0.98857 0.66777 0.0
C1581 C 0.70855 0.89779 0.64306 0.0
C1582 C 0.6682 0.93957 0.63883 0.0
H1583 H 0.75209 0.86005 0.65921 0.0
H1584 H 0.7346 0.87351 0.63624 0.0
C1585 C 0.63548 0.9711 0.64788 0.0
C1586 C 0.84555 0.96417 0.39393 0.0
C1587 C 0.80476 0.92206 0.39005 0.0
H1588 H 0.88273 0.01078 0.40974 0.0
C1589 C 0.77484 0.88927 0.39936 0.0
H1590 H 0.86848 0.99035 0.38691 0.0
C1591 C 0.78401 0.89985 0.41236 0.0
C1592 C 0.82196 0.94457 0.41622 0.0
H1593 H 0.74296 0.85679 0.39653 0.0
H1594 H 0.75889 0.87571 0.41938 0.0
C1595 C 0.85345 0.97593 0.40692 0.0
C1596 C 0.85057 0.01843 0.14858 0.0
C1597 C 0.82163 0.05246 0.13938 0.0
H1598 H 0.86178 -0.00015 0.16854 0.0
C1599 C 0.78521 0.09817 0.14344 0.0
H1600 H 0.87888 0.98295 0.14565 0.0
C1601 C 0.77469 0.10694 0.15646 0.0
C1602 C 0.80178 0.07135 0.16563 0.0
H1603 H 0.76205 0.12453 0.13652 0.0
H1604 H 0.74358 0.13997 0.15941 0.0
C1605 C 0.84124 0.02826 0.16162 0.0
C1606 C 0.71425 0.10103 0.8996 0.0
C1607 C 0.68969 0.0647 0.89023 0.0
H1608 H 0.72583 0.11689 0.91964 0.0
C1609 C 0.65342 0.01837 0.89399 0.0
H1610 H 0.74302 0.1365 0.89683 0.0
C1611 C 0.64494 0.00624 0.90697 0.0
C1612 C 0.6715 0.04109 0.91636 0.0
H1613 H 0.63498 0.98934 0.88691 0.0
H1614 H 0.61938 0.96835 0.9097 0.0
C1615 C 0.70449 0.08987 0.91257 0.0
C1616 C 0.85521 0.54382 0.89449 0.0
C1617 C 0.8056 0.5737 0.89013 0.0
H1618 H 0.90024 0.50906 0.91079 0.0
C1619 C 0.76744 0.59908 0.89911 0.0
H1620 H 0.8849 0.52349 0.88777 0.0
C1621 C 0.77706 0.59211 0.91221 0.0
C1622 C 0.82436 0.55878 0.91652 0.0
H1623 H 0.72899 0.62249 0.89596 0.0
H1624 H 0.74551 0.60928 0.91895 0.0
C1625 C 0.86401 0.53569 0.90759 0.0
C1626 C 0.63806 0.5201 0.15006 0.0
C1627 C 0.67167 0.55241 0.14129 0.0
H1628 H 0.62012 0.50174 0.16982 0.0
C1629 C 0.71083 0.59464 0.14584 0.0
H1630 H 0.60779 0.48714 0.14671 0.0
C1631 C 0.71889 0.60181 0.15898 0.0
C1632 C 0.68666 0.56813 0.16776 0.0
H1633 H 0.73756 0.61947 0.13923 0.0
H1634 H 0.75152 0.63243 0.16234 0.0
C1635 C 0.64487 0.52852 0.16321 0.0
C1636 C 0.67826 0.39965 0.41194 0.0
C1637 C 0.67448 0.45623 0.41719 0.0
H1638 H 0.69027 0.34841 0.39486 0.0
C1639 C 0.67297 0.50437 0.4088 0.0
H1640 H 0.6797 0.36162 0.41807 0.0
C1641 C 0.67934 0.49663 0.39566 0.0
C1642 C 0.68614 0.44061 0.39052 0.0
H1643 H 0.66854 0.54848 0.41239 0.0
H1644 H 0.6812 0.53461 0.3895 0.0
C1645 C 0.68408 0.39195 0.39868 0.0
C1646 C 0.80731 0.50324 0.6621 0.0
C1647 C 0.79975 0.44684 0.66701 0.0
H1648 H 0.81801 0.55655 0.64556 0.0
C1649 C 0.80076 0.39895 0.65864 0.0
H1650 H 0.80619 0.54064 0.66843 0.0
C1651 C 0.80626 0.40786 0.64541 0.0
C1652 C 0.81057 0.46489 0.64041 0.0
H1653 H 0.79394 0.35514 0.66228 0.0
H1654 H 0.80398 0.37053 0.63909 0.0
C1655 C 0.81319 0.51218 0.64899 0.0
C1656 C 0.14821 0.46162 0.16248 0.0
C1657 C 0.18954 0.42078 0.16671 0.0
H1658 H 0.11173 0.50645 0.14634 0.0
C1659 C 0.22113 0.38822 0.15763 0.0
H1660 H 0.12394 0.48764 0.16931 0.0
C1661 C 0.21308 0.39784 0.14455 0.0
C1662 C 0.1745 0.44133 0.14036 0.0
H1663 H 0.25339 0.35666 0.16071 0.0
H1664 H 0.23949 0.37398 0.13773 0.0
C1665 C 0.1414 0.47243 0.14941 0.0
C1666 C 0.27104 0.38628 0.89882 0.0
C1667 C 0.30327 0.41915 0.8899 0.0
H1668 H 0.25349 0.36931 0.91866 0.0
C1669 C 0.34598 0.45821 0.89428 0.0
H1670 H 0.23773 0.35607 0.89562 0.0
C1671 C 0.35384 0.46681 0.9074 0.0
C1672 C 0.32037 0.43521 0.91633 0.0
H1673 H 0.37079 0.48438 0.88756 0.0
H1674 H 0.38496 0.49926 0.91061 0.0
C1675 C 0.28014 0.39361 0.91194 0.0
C1676 C 0.26897 0.58544 0.64481 0.0
C1677 C 0.3124 0.5466 0.64068 0.0
H1678 H 0.22381 0.62221 0.66091 0.0
C1679 C 0.34863 0.51973 0.64975 0.0
H1680 H 0.24011 0.60581 0.63796 0.0
C1681 C 0.34031 0.53005 0.66281 0.0
C1682 C 0.29443 0.56599 0.66698 0.0
H1683 H 0.38195 0.48912 0.64671 0.0
H1684 H 0.36718 0.50716 0.66967 0.0
C1685 C 0.25958 0.59448 0.65787 0.0
C1686 C 0.18173 0.59458 0.41201 0.0
C1687 C 0.17321 0.53839 0.41721 0.0
H1688 H 0.19831 0.64504 0.39499 0.0
C1689 C 0.16766 0.49073 0.40879 0.0
H1690 H 0.18645 0.63215 0.41819 0.0
C1691 C 0.17452 0.49828 0.39564 0.0
C1692 C 0.1861 0.55367 0.39055 0.0
H1693 H 0.15976 0.44706 0.41237 0.0
H1694 H 0.17325 0.46044 0.38944 0.0
C1695 C 0.18832 0.60208 0.39877 0.0
C1696 C 0.38095 0.95115 0.27555 0.0
C1697 C 0.32995 0.95232 0.26812 0.0
H1698 H 0.42663 0.98527 0.2917 0.0
C1699 C 0.28422 0.98999 0.27181 0.0
H1700 H 0.41724 0.92327 0.27294 0.0
C1701 C 0.28952 0.02543 0.28271 0.0
C1702 C 0.34119 0.02497 0.28993 0.0
H1703 H 0.24432 0.99171 0.26631 0.0
H1704 H 0.25386 0.05406 0.28538 0.0
C1705 C 0.38662 0.9872 0.28624 0.0
C1706 C 0.21809 0.04345 0.53269 0.0
C1707 C 0.21985 0.09449 0.54014 0.0
H1708 H 0.25102 -0.00132 0.51611 0.0
C1709 C 0.25946 0.13892 0.53676 0.0
H1710 H 0.18797 0.0086 0.53512 0.0
C1711 C 0.29586 0.13305 0.5261 0.0
C1712 C 0.29319 0.08287 0.51838 0.0
H1713 H 0.26229 0.17843 0.54241 0.0
H1714 H 0.325 0.16872 0.5237 0.0
C1715 C 0.25391 0.03798 0.52182 0.0
C1716 C 0.21004 0.99243 0.78565 0.0
C1717 C 0.16726 0.9505 0.78885 0.0
H1718 H 0.23688 0.06001 0.7725 0.0
C1719 C 0.11818 0.94486 0.78091 0.0
H1720 H 0.24845 -0.00239 0.79154 0.0
C1721 C 0.11129 0.9809 0.77024 0.0
C1722 C 0.15368 0.02301 0.76708 0.0
H1723 H 0.08414 0.91356 0.78313 0.0
H1724 H 0.07265 0.97587 0.76441 0.0
C1725 C 0.20365 0.02786 0.77476 0.0
C1726 C 0.24561 0.85536 0.03609 0.0
C1727 C 0.27899 0.90416 0.03972 0.0
H1728 H 0.18415 0.81911 1.02299 0.0
C1729 C 0.27407 0.95594 0.03256 0.0
H1730 H 0.24772 0.81512 0.04151 0.0
C1731 C 0.23756 0.9582 1.02179 0.0
C1732 C 0.20418 0.90914 1.01819 0.0
H1733 H 0.29921 0.99419 0.03519 0.0
H1734 H 0.23495 -0.00165 1.01635 0.0
C1735 C 0.20856 0.8579 1.02554 0.0
C1736 C 0.65095 0.97918 0.78939 0.0
C1737 C 0.67634 0.03505 0.78875 0.0
H1738 H 0.62512 0.90216 0.77924 0.0
C1739 C 0.69766 0.05511 0.77694 0.0
H1740 H 0.63332 0.963 0.7983 0.0
C1741 C 0.69333 0.02009 0.766 0.0
C1742 C 0.66637 0.96475 0.76656 0.0
H1743 H 0.71772 0.09787 0.7762 0.0
H1744 H 0.70958 0.03711 0.75704 0.0
C1745 C 0.64577 0.94461 0.77844 0.0
C1746 C 0.74749 0.95554 0.52048 0.0
C1747 C 0.78791 0.91141 0.51731 0.0
H1748 H 0.68033 0.98413 0.53353 0.0
C1749 C 0.79103 0.86154 0.52511 0.0
H1750 H 0.74432 0.99458 0.51468 0.0
C1751 C 0.75412 0.85532 0.53566 0.0
C1752 C 0.71358 0.89913 0.53882 0.0
H1753 H 0.82114 0.82651 0.52289 0.0
H1754 H 0.75746 0.81619 0.54144 0.0
C1755 C 0.71115 0.94977 0.53125 0.0
C1756 C 0.7979 0.01697 0.28969 0.0
C1757 C 0.8267 0.96264 0.289 0.0
H1758 H 0.77143 0.09461 0.27967 0.0
C1759 C 0.84867 0.94417 0.27713 0.0
H1760 H 0.78074 0.03276 0.29867 0.0
C1761 C 0.84292 0.97937 0.26629 0.0
C1762 C 0.81547 0.03416 0.26704 0.0
H1763 H 0.87088 0.90259 0.27625 0.0
H1764 H 0.86175 0.96466 0.25738 0.0
C1765 C 0.79293 0.05262 0.27885 0.0
C1766 C 0.69488 0.12415 1.02531 0.0
C1767 C 0.69815 0.07381 1.01766 0.0
H1768 H 0.72788 0.17025 0.04153 0.0
C1769 C 0.738 0.02956 1.02104 0.0
H1770 H 0.66521 0.15929 1.02293 0.0
C1771 C 0.77371 0.03571 0.03185 0.0
C1772 C 0.77123 0.08682 0.03925 0.0
H1773 H 0.74129 0.99019 1.01536 0.0
H1774 H 0.80418 0.00128 0.03427 0.0
C1775 C 0.7312 0.13073 0.0359 0.0
C1776 C 0.88156 0.48278 0.78657 0.0
C1777 C 0.83823 0.52369 0.78982 0.0
H1778 H 0.90978 0.41626 0.77362 0.0
C1779 C 0.78761 0.52694 0.78233 0.0
H1780 H 0.92068 0.47887 0.79229 0.0
C1781 C 0.78149 0.49126 0.77149 0.0
C1782 C 0.82528 0.45069 0.76817 0.0
H1783 H 0.75362 0.55806 0.78468 0.0
H1784 H 0.74257 0.49528 0.76572 0.0
C1785 C 0.875 0.44649 0.77595 0.0
C1786 C 0.7396 0.61069 1.01825 0.0
C1787 C 0.79006 0.57558 1.01854 0.0
H1788 H 0.66521 0.64344 1.02838 0.0
C1789 C 0.80304 0.54547 0.02991 0.0
H1790 H 0.72814 0.63483 1.00974 0.0
C1791 C 0.76689 0.55065 0.04067 0.0
C1792 C 0.71683 0.58639 0.04042 0.0
H1793 H 0.84088 0.51729 0.03048 0.0
H1794 H 0.779 0.52739 0.04924 0.0
C1795 C 0.70358 0.61599 0.02901 0.0
C1796 C 0.60545 0.48497 0.27104 0.0
C1797 C 0.64973 0.52506 0.26784 0.0
H1798 H 0.57559 0.41857 0.28385 0.0
C1799 C 0.70041 0.52684 0.27536 0.0
H1800 H 0.56626 0.48209 0.26531 0.0
C1801 C 0.70568 0.49051 0.28613 0.0
C1802 C 0.66095 0.45073 0.28938 0.0
H1803 H 0.73516 0.55728 0.27305 0.0
H1804 H 0.74471 0.49337 0.2919 0.0
C1805 C 0.61112 0.44809 0.28159 0.0
C1806 C 0.74972 0.35343 0.52138 0.0
C1807 C 0.71386 0.40003 0.51752 0.0
H1808 H 0.81251 0.32162 0.53472 0.0
C1809 C 0.71578 0.45254 0.52447 0.0
H1810 H 0.74996 0.31275 0.51611 0.0
C1811 C 0.75172 0.45763 0.53527 0.0
C1812 C 0.78745 0.41074 0.53913 0.0
H1813 H 0.68871 0.48913 0.52166 0.0
H1814 H 0.7519 0.49826 0.54055 0.0
C1815 C 0.7862 0.35881 0.53197 0.0
C1816 C 0.20145 0.46629 0.27476 0.0
C1817 C 0.15184 0.47139 0.26699 0.0
H1818 H 0.24528 0.49559 0.29172 0.0
C1819 C 0.10916 0.5131 0.27015 0.0
H1820 H 0.23488 0.43444 0.27249 0.0
C1821 C 0.11536 0.54842 0.28094 0.0
C1822 C 0.16403 0.54242 0.28897 0.0
H1823 H 0.07078 0.51831 0.26425 0.0
H1824 H 0.0811 0.57938 0.28318 0.0
C1825 C 0.20716 0.50099 0.28576 0.0
C1826 C 0.27778 0.44656 1.02423 0.0
C1827 C 0.27363 0.39583 1.01673 0.0
H1828 H 0.2475 0.49208 0.04096 0.0
C1829 C 0.23295 0.35256 1.02022 0.0
H1830 H 0.30878 0.48049 1.02171 0.0
C1831 C 0.1975 0.35949 0.03099 0.0
C1832 C 0.20234 0.40947 0.03871 0.0
H1833 H 0.22837 0.31334 1.01453 0.0
H1834 H 0.16715 0.32492 0.03345 0.0
C1835 C 0.24299 0.45299 0.03523 0.0
C1836 C 0.38806 0.53491 0.77493 0.0
C1837 C 0.33568 0.53972 0.76806 0.0
H1838 H 0.43314 0.49543 0.79053 0.0
C1839 C 0.2869 0.50704 0.77216 0.0
H1840 H 0.42667 0.55875 0.77198 0.0
C1841 C 0.29061 0.47059 0.78295 0.0
C1842 C 0.34355 0.46512 0.78961 0.0
H1843 H 0.24591 0.51002 0.76708 0.0
H1844 H 0.25263 0.44581 0.78595 0.0
C1845 C 0.392 0.49799 0.7855 0.0
C1846 C 0.25293 0.63397 0.52108 0.0
C1847 C 0.21296 0.58999 0.51771 0.0
H1848 H 0.31878 0.66263 0.53409 0.0
C1849 C 0.21014 0.53903 0.52518 0.0
H1850 H 0.25661 0.67336 0.5154 0.0
C1851 C 0.24558 0.53302 0.53604 0.0
C1852 C 0.28557 0.57723 0.5394 0.0
H1853 H 0.17977 0.50451 0.52275 0.0
H1854 H 0.24214 0.4937 0.54175 0.0
C1855 C 0.289 0.62751 0.53172 0.0
loop_
_geom_bond_atom_site_label_1
_geom_bond_atom_site_label_2
_geom_bond_distance
_geom_bond_site_symmetry_2
_ccdc_geom_bond_type
C0 C1 1.351 . S
C0 N3 1.368 . S
C0 H5 0.931 . S
C1 C0 1.351 . S
C1 N2 1.373 . S
C1 H29 0.930 . S
N2 C1 1.373 . S
N2 C4 1.340 . S
N3 C0 1.368 . S
N3 C4 1.321 . S
N3 Co6 2.135 . S
C4 N2 1.340 . S
C4 N3 1.321 . S
C4 H28 0.930 . S
H5 C0 0.931 . S
Co6 N3 2.135 . S
Co6 N9 2.121 . S
Co6 O14 2.055 . S
Co6 O17 2.039 . S
Co6 N20 2.140 . S
C7 O8 1.227 . S
C7 O17 1.265 . S
O8 C7 1.227 . S
N9 Co6 2.121 . S
N9 C11 1.375 . S
N9 C12 1.313 . S
C10 C11 1.338 . S
C10 N13 1.377 . S
C10 H30 0.930 . S
C11 N9 1.375 . S
C11 C10 1.338 . S
C11 H15 0.931 . S
C12 N9 1.313 . S
C12 N13 1.344 . S
C12 H16 0.930 . S
N13 C10 1.377 . S
N13 C12 1.344 . S
O14 Co6 2.055 . S
O14 C18 1.253 1_545 S
H15 C11 0.931 . S
H16 C12 0.930 . S
O17 Co6 2.039 . S
O17 C7 1.265 . S
C18 O14 1.253 1_565 S
C18 O19 1.227 1_565 S
O19 C18 1.227 1_545 S
N20 Co6 2.140 . S
N20 C23 1.346 . S
N20 C24 1.345 . S
C21 C22 1.387 . S
C21 C25 1.391 . S
C22 C21 1.387 . S
C22 C23 1.369 . S
C22 H31 0.929 . S
C23 N20 1.346 . S
C23 C22 1.369 . S
C23 H26 0.928 . S
C24 N20 1.345 . S
C24 C25 1.371 . S
C24 H27 0.931 . S
C25 C21 1.391 . S
C25 C24 1.371 . S
C25 H32 0.930 . S
H26 C23 0.928 . S
H27 C24 0.931 . S
H28 C4 0.930 . S
H29 C1 0.930 . S
H30 C10 0.930 . S
H31 C22 0.929 . S
H32 C25 0.930 . S
C33 C34 1.351 . S
C33 N36 1.368 . S
C33 H38 0.931 . S
C34 C33 1.351 . S
C34 N35 1.373 . S
C34 H62 0.930 . S
N35 C34 1.373 . S
N35 C37 1.340 . S
N36 C33 1.368 . S
N36 C37 1.321 . S
N36 Co39 2.135 . S
C37 N35 1.340 . S
C37 N36 1.321 . S
C37 H61 0.930 . S
H38 C33 0.931 . S
Co39 N36 2.135 . S
Co39 N42 2.121 . S
Co39 O47 2.055 . S
Co39 O50 2.039 . S
Co39 N53 2.140 . S
C40 O41 1.227 . S
C40 O50 1.265 . S
O41 C40 1.227 . S
N42 Co39 2.121 . S
N42 C44 1.375 . S
N42 C45 1.313 . S
C43 C44 1.338 . S
C43 N46 1.377 . S
C43 H63 0.930 . S
C44 N42 1.375 . S
C44 C43 1.338 . S
C44 H48 0.931 . S
C45 N42 1.313 . S
C45 N46 1.344 . S
C45 H49 0.930 . S
N46 C43 1.377 . S
N46 C45 1.344 . S
O47 Co39 2.055 . S
O47 C51 1.253 . S
H48 C44 0.931 . S
H49 C45 0.930 . S
O50 Co39 2.039 . S
O50 C40 1.265 . S
C51 O47 1.253 . S
C51 O52 1.227 . S
O52 C51 1.227 . S
N53 Co39 2.140 . S
N53 C56 1.346 . S
N53 C57 1.345 . S
C54 C55 1.387 1_565 S
C54 C58 1.391 1_655 S
C55 C54 1.387 1_545 S
C55 C56 1.369 1_655 S
C55 H64 0.929 . S
C56 N53 1.346 . S
C56 C55 1.369 1_455 S
C56 H59 0.928 . S
C57 N53 1.345 . S
C57 C58 1.371 1_545 S
C57 H60 0.931 . S
C58 C54 1.391 1_455 S
C58 C57 1.371 1_565 S
C58 H65 0.930 . S
H59 C56 0.928 . S
H60 C57 0.931 . S
H61 C37 0.930 . S
H62 C34 0.930 . S
H63 C43 0.930 . S
H64 C55 0.929 . S
H65 C58 0.930 . S
C66 C67 1.351 . S
C66 N69 1.368 . S
C66 H71 0.931 . S
C67 C66 1.351 . S
C67 N68 1.373 . S
C67 H95 0.930 . S
N68 C67 1.373 . S
N68 C70 1.340 . S
N69 C66 1.368 . S
N69 C70 1.321 . S
N69 Co72 2.135 . S
C70 N68 1.340 . S
C70 N69 1.321 . S
C70 H94 0.930 . S
H71 C66 0.931 . S
Co72 N69 2.135 . S
Co72 N75 2.121 . S
Co72 O80 2.055 . S
Co72 O83 2.039 . S
Co72 N86 2.140 . S
C73 O74 1.227 . S
C73 O83 1.265 . S
O74 C73 1.227 . S
N75 Co72 2.121 . S
N75 C77 1.375 . S
N75 C78 1.313 . S
C76 C77 1.338 . S
C76 N79 1.377 . S
C76 H96 0.930 . S
C77 N75 1.375 . S
C77 C76 1.338 . S
C77 H81 0.931 . S
C78 N75 1.313 . S
C78 N79 1.344 . S
C78 H82 0.930 . S
N79 C76 1.377 . S
N79 C78 1.344 . S
O80 Co72 2.055 . S
O80 C84 1.253 1_565 S
H81 C77 0.931 . S
H82 C78 0.930 . S
O83 Co72 2.039 . S
O83 C73 1.265 . S
C84 O80 1.253 1_545 S
C84 O85 1.227 1_545 S
O85 C84 1.227 1_565 S
N86 Co72 2.140 . S
N86 C89 1.346 . S
N86 C90 1.345 . S
C87 C88 1.387 . S
C87 C91 1.391 . S
C88 C87 1.387 . S
C88 C89 1.369 . S
C88 H97 0.929 . S
C89 N86 1.346 . S
C89 C88 1.369 . S
C89 H92 0.928 . S
C90 N86 1.345 . S
C90 C91 1.371 . S
C90 H93 0.931 . S
C91 C87 1.391 . S
C91 C90 1.371 . S
C91 H98 0.930 . S
H92 C89 0.928 . S
H93 C90 0.931 . S
H94 C70 0.930 . S
H95 C67 0.930 . S
H96 C76 0.930 . S
H97 C88 0.929 . S
H98 C91 0.930 . S
C99 C100 1.351 . S
C99 N102 1.368 . S
C99 H104 0.931 . S
C100 C99 1.351 . S
C100 N101 1.373 . S
C100 H128 0.930 . S
N101 C100 1.373 . S
N101 C103 1.340 . S
N102 C99 1.368 . S
N102 C103 1.321 . S
N102 Co105 2.135 . S
C103 N101 1.340 . S
C103 N102 1.321 . S
C103 H127 0.930 . S
H104 C99 0.931 . S
Co105 N102 2.135 . S
Co105 N108 2.121 . S
Co105 O113 2.055 . S
Co105 O116 2.039 . S
Co105 N119 2.140 . S
C106 O107 1.227 . S
C106 O116 1.265 . S
O107 C106 1.227 . S
N108 Co105 2.121 . S
N108 C110 1.375 . S
N108 C111 1.313 . S
C109 C110 1.338 . S
C109 N112 1.377 . S
C109 H129 0.930 . S
C110 N108 1.375 . S
C110 C109 1.338 . S
C110 H114 0.931 . S
C111 N108 1.313 . S
C111 N112 1.344 . S
C111 H115 0.930 . S
N112 C109 1.377 . S
N112 C111 1.344 . S
O113 Co105 2.055 . S
O113 C117 1.253 . S
H114 C110 0.931 . S
H115 C111 0.930 . S
O116 Co105 2.039 . S
O116 C106 1.265 . S
C117 O113 1.253 . S
C117 O118 1.227 . S
O118 C117 1.227 . S
N119 Co105 2.140 . S
N119 C122 1.346 . S
N119 C123 1.345 . S
C120 C121 1.387 1_545 S
C120 C124 1.391 . S
C121 C120 1.387 1_565 S
C121 C122 1.369 . S
C121 H130 0.929 . S
C122 N119 1.346 . S
C122 C121 1.369 . S
C122 H125 0.928 . S
C123 N119 1.345 . S
C123 C124 1.371 1_565 S
C123 H126 0.931 . S
C124 C120 1.391 . S
C124 C123 1.371 1_545 S
C124 H131 0.930 . S
H125 C122 0.928 . S
H126 C123 0.931 . S
H127 C103 0.930 . S
H128 C100 0.930 . S
H129 C109 0.930 . S
H130 C121 0.929 . S
H131 C124 0.930 . S
C132 C133 1.351 . S
C132 N135 1.368 . S
C132 H137 0.931 . S
C133 C132 1.351 . S
C133 N134 1.373 . S
C133 H161 0.930 . S
N134 C133 1.373 . S
N134 C136 1.340 . S
N135 C132 1.368 . S
N135 C136 1.321 . S
N135 Co138 2.135 . S
C136 N134 1.340 . S
C136 N135 1.321 . S
C136 H160 0.930 . S
H137 C132 0.931 . S
Co138 N135 2.135 . S
Co138 N141 2.121 . S
Co138 O146 2.055 . S
Co138 O149 2.039 . S
Co138 N152 2.140 . S
C139 O140 1.227 . S
C139 O149 1.265 . S
O140 C139 1.227 . S
N141 Co138 2.121 . S
N141 C143 1.375 . S
N141 C144 1.313 . S
C142 C143 1.338 . S
C142 N145 1.377 . S
C142 H162 0.930 . S
C143 N141 1.375 . S
C143 C142 1.338 . S
C143 H147 0.931 . S
C144 N141 1.313 . S
C144 N145 1.344 . S
C144 H148 0.930 . S
N145 C142 1.377 . S
N145 C144 1.344 . S
O146 Co138 2.055 . S
O146 C150 1.253 1_565 S
H147 C143 0.931 . S
H148 C144 0.930 . S
O149 Co138 2.039 . S
O149 C139 1.265 . S
C150 O146 1.253 1_545 S
C150 O151 1.227 1_545 S
O151 C150 1.227 1_565 S
N152 Co138 2.140 . S
N152 C155 1.346 . S
N152 C156 1.345 . S
C153 C154 1.387 . S
C153 C157 1.391 . S
C154 C153 1.387 . S
C154 C155 1.369 . S
C154 H163 0.929 . S
C155 N152 1.346 . S
C155 C154 1.369 . S
C155 H158 0.928 . S
C156 N152 1.345 . S
C156 C157 1.371 . S
C156 H159 0.931 . S
C157 C153 1.391 . S
C157 C156 1.371 . S
C157 H164 0.930 . S
H158 C155 0.928 . S
H159 C156 0.931 . S
H160 C136 0.930 . S
H161 C133 0.930 . S
H162 C142 0.930 . S
H163 C154 0.929 . S
H164 C157 0.930 . S
C165 C166 1.351 . S
C165 N168 1.368 . S
C165 H170 0.931 . S
C166 C165 1.351 . S
C166 N167 1.373 . S
C166 H194 0.930 . S
N167 C166 1.373 . S
N167 C169 1.340 . S
N168 C165 1.368 . S
N168 C169 1.321 . S
N168 Co171 2.135 . S
C169 N167 1.340 . S
C169 N168 1.321 . S
C169 H193 0.930 . S
H170 C165 0.931 . S
Co171 N168 2.135 . S
Co171 N174 2.121 . S
Co171 O179 2.055 . S
Co171 O182 2.039 . S
Co171 N185 2.140 . S
C172 O173 1.227 . S
C172 O182 1.265 . S
O173 C172 1.227 . S
N174 Co171 2.121 . S
N174 C176 1.375 . S
N174 C177 1.313 . S
C175 C176 1.338 . S
C175 N178 1.377 . S
C175 H195 0.930 . S
C176 N174 1.375 . S
C176 C175 1.338 . S
C176 H180 0.931 . S
C177 N174 1.313 . S
C177 N178 1.344 . S
C177 H181 0.930 . S
N178 C175 1.377 . S
N178 C177 1.344 . S
O179 Co171 2.055 . S
O179 C183 1.253 . S
H180 C176 0.931 . S
H181 C177 0.930 . S
O182 Co171 2.039 . S
O182 C172 1.265 . S
C183 O179 1.253 . S
C183 O184 1.227 . S
O184 C183 1.227 . S
N185 Co171 2.140 . S
N185 C188 1.346 . S
N185 C189 1.345 . S
C186 C187 1.387 1_565 S
C186 C190 1.391 . S
C187 C186 1.387 1_545 S
C187 C188 1.369 . S
C187 H196 0.929 . S
C188 N185 1.346 . S
C188 C187 1.369 . S
C188 H191 0.928 . S
C189 N185 1.345 . S
C189 C190 1.371 1_545 S
C189 H192 0.931 . S
C190 C186 1.391 . S
C190 C189 1.371 1_565 S
C190 H197 0.930 . S
H191 C188 0.928 . S
H192 C189 0.931 . S
H193 C169 0.930 . S
H194 C166 0.930 . S
H195 C175 0.930 . S
H196 C187 0.929 . S
H197 C190 0.930 . S
C198 C199 1.351 . S
C198 N201 1.368 . S
C198 H203 0.931 . S
C199 C198 1.351 . S
C199 N200 1.373 . S
C199 H227 0.930 . S
N200 C199 1.373 . S
N200 C202 1.340 . S
N201 C198 1.368 . S
N201 C202 1.321 . S
N201 Co204 2.135 . S
C202 N200 1.340 . S
C202 N201 1.321 . S
C202 H226 0.930 . S
H203 C198 0.931 . S
Co204 N201 2.135 . S
Co204 N207 2.121 . S
Co204 O212 2.055 . S
Co204 O215 2.039 . S
Co204 N218 2.140 . S
C205 O206 1.227 . S
C205 O215 1.265 . S
O206 C205 1.227 . S
N207 Co204 2.121 . S
N207 C209 1.375 . S
N207 C210 1.313 . S
C208 C209 1.338 . S
C208 N211 1.377 . S
C208 H228 0.930 . S
C209 N207 1.375 . S
C209 C208 1.338 . S
C209 H213 0.931 . S
C210 N207 1.313 . S
C210 N211 1.344 . S
C210 H214 0.930 . S
N211 C208 1.377 . S
N211 C210 1.344 . S
O212 Co204 2.055 . S
O212 C216 1.253 1_545 S
H213 C209 0.931 . S
H214 C210 0.930 . S
O215 Co204 2.039 . S
O215 C205 1.265 . S
C216 O212 1.253 1_565 S
C216 O217 1.227 1_565 S
O217 C216 1.227 1_545 S
N218 Co204 2.140 . S
N218 C221 1.346 . S
N218 C222 1.345 . S
C219 C220 1.387 . S
C219 C223 1.391 . S
C220 C219 1.387 . S
C220 C221 1.369 . S
C220 H229 0.929 . S
C221 N218 1.346 . S
C221 C220 1.369 . S
C221 H224 0.928 . S
C222 N218 1.345 . S
C222 C223 1.371 . S
C222 H225 0.931 . S
C223 C219 1.391 . S
C223 C222 1.371 . S
C223 H230 0.930 . S
H224 C221 0.928 . S
H225 C222 0.931 . S
H226 C202 0.930 . S
H227 C199 0.930 . S
H228 C208 0.930 . S
H229 C220 0.929 . S
H230 C223 0.930 . S
C231 C232 1.351 . S
C231 N234 1.368 . S
C231 H236 0.931 . S
C232 C231 1.351 . S
C232 N233 1.373 . S
C232 H260 0.930 . S
N233 C232 1.373 . S
N233 C235 1.340 . S
N234 C231 1.368 . S
N234 C235 1.321 . S
N234 Co237 2.135 . S
C235 N233 1.340 . S
C235 N234 1.321 . S
C235 H259 0.930 . S
H236 C231 0.931 . S
Co237 N234 2.135 . S
Co237 N240 2.121 . S
Co237 O245 2.055 . S
Co237 O248 2.039 . S
Co237 N251 2.140 . S
C238 O239 1.227 . S
C238 O248 1.265 . S
O239 C238 1.227 . S
N240 Co237 2.121 . S
N240 C242 1.375 . S
N240 C243 1.313 . S
C241 C242 1.338 . S
C241 N244 1.377 . S
C241 H261 0.930 . S
C242 N240 1.375 . S
C242 C241 1.338 . S
C242 H246 0.931 . S
C243 N240 1.313 . S
C243 N244 1.344 . S
C243 H247 0.930 . S
N244 C241 1.377 . S
N244 C243 1.344 . S
O245 Co237 2.055 . S
O245 C249 1.253 . S
H246 C242 0.931 . S
H247 C243 0.930 . S
O248 Co237 2.039 . S
O248 C238 1.265 . S
C249 O245 1.253 . S
C249 O250 1.227 . S
O250 C249 1.227 . S
N251 Co237 2.140 . S
N251 C254 1.346 . S
N251 C255 1.345 . S
C252 C253 1.387 1_545 S
C252 C256 1.391 1_655 S
C253 C252 1.387 1_565 S
C253 C254 1.369 1_655 S
C253 H262 0.929 . S
C254 N251 1.346 . S
C254 C253 1.369 1_455 S
C254 H257 0.928 . S
C255 N251 1.345 . S
C255 C256 1.371 1_565 S
C255 H258 0.931 . S
C256 C252 1.391 1_455 S
C256 C255 1.371 1_545 S
C256 H263 0.930 . S
H257 C254 0.928 . S
H258 C255 0.931 . S
H259 C235 0.930 . S
H260 C232 0.930 . S
H261 C241 0.930 . S
H262 C253 0.929 . S
H263 C256 0.930 . S
C264 C265 1.351 . S
C264 N267 1.368 . S
C264 H269 0.931 . S
C265 C264 1.351 . S
C265 N266 1.373 . S
C265 H293 0.930 . S
N266 C265 1.373 . S
N266 C268 1.340 . S
N267 C264 1.368 . S
N267 C268 1.321 . S
N267 Co270 2.135 . S
C268 N266 1.340 . S
C268 N267 1.321 . S
C268 H292 0.930 . S
H269 C264 0.931 . S
Co270 N267 2.135 . S
Co270 N273 2.121 . S
Co270 O278 2.055 . S
Co270 O281 2.039 . S
Co270 N284 2.140 . S
C271 O272 1.227 . S
C271 O281 1.265 . S
O272 C271 1.227 . S
N273 Co270 2.121 . S
N273 C275 1.375 . S
N273 C276 1.313 . S
C274 C275 1.338 . S
C274 N277 1.377 . S
C274 H294 0.930 . S
C275 N273 1.375 . S
C275 C274 1.338 . S
C275 H279 0.931 . S
C276 N273 1.313 . S
C276 N277 1.344 . S
C276 H280 0.930 . S
N277 C274 1.377 . S
N277 C276 1.344 . S
O278 Co270 2.055 . S
O278 C282 1.253 1_565 S
H279 C275 0.931 . S
H280 C276 0.930 . S
O281 Co270 2.039 . S
O281 C271 1.265 . S
C282 O278 1.253 1_545 S
C282 O283 1.227 1_545 S
O283 C282 1.227 1_565 S
N284 Co270 2.140 . S
N284 C287 1.346 . S
N284 C288 1.345 . S
C285 C286 1.387 . S
C285 C289 1.391 . S
C286 C285 1.387 . S
C286 C287 1.369 . S
C286 H295 0.929 . S
C287 N284 1.346 . S
C287 C286 1.369 . S
C287 H290 0.928 . S
C288 N284 1.345 . S
C288 C289 1.371 . S
C288 H291 0.931 . S
C289 C285 1.391 . S
C289 C288 1.371 . S
C289 H296 0.930 . S
H290 C287 0.928 . S
H291 C288 0.931 . S
H292 C268 0.930 . S
H293 C265 0.930 . S
H294 C274 0.930 . S
H295 C286 0.929 . S
H296 C289 0.930 . S
C297 C298 1.351 . S
C297 N300 1.368 . S
C297 H302 0.931 . S
C298 C297 1.351 . S
C298 N299 1.373 . S
C298 H326 0.930 . S
N299 C298 1.373 . S
N299 C301 1.340 . S
N300 C297 1.368 . S
N300 C301 1.321 . S
N300 Co303 2.135 . S
C301 N299 1.340 . S
C301 N300 1.321 . S
C301 H325 0.930 . S
H302 C297 0.931 . S
Co303 N300 2.135 . S
Co303 N306 2.121 . S
Co303 O311 2.055 . S
Co303 O314 2.039 . S
Co303 N317 2.140 . S
C304 O305 1.227 . S
C304 O314 1.265 . S
O305 C304 1.227 . S
N306 Co303 2.121 . S
N306 C308 1.375 . S
N306 C309 1.313 . S
C307 C308 1.338 . S
C307 N310 1.377 . S
C307 H327 0.930 . S
C308 N306 1.375 . S
C308 C307 1.338 . S
C308 H312 0.931 . S
C309 N306 1.313 . S
C309 N310 1.344 . S
C309 H313 0.930 . S
N310 C307 1.377 . S
N310 C309 1.344 . S
O311 Co303 2.055 . S
O311 C315 1.253 . S
H312 C308 0.931 . S
H313 C309 0.930 . S
O314 Co303 2.039 . S
O314 C304 1.265 . S
C315 O311 1.253 . S
C315 O316 1.227 . S
O316 C315 1.227 . S
N317 Co303 2.140 . S
N317 C320 1.346 . S
N317 C321 1.345 . S
C318 C319 1.387 1_545 S
C318 C322 1.391 1_455 S
C319 C318 1.387 1_565 S
C319 C320 1.369 1_455 S
C319 H328 0.929 . S
C320 N317 1.346 . S
C320 C319 1.369 1_655 S
C320 H323 0.928 . S
C321 N317 1.345 . S
C321 C322 1.371 1_565 S
C321 H324 0.931 . S
C322 C318 1.391 1_655 S
C322 C321 1.371 1_545 S
C322 H329 0.930 . S
H323 C320 0.928 . S
H324 C321 0.931 . S
H325 C301 0.930 . S
H326 C298 0.930 . S
H327 C307 0.930 . S
H328 C319 0.929 . S
H329 C322 0.930 . S
C330 C331 1.351 . S
C330 N333 1.368 . S
C330 H335 0.931 . S
C331 C330 1.351 . S
C331 N332 1.373 . S
C331 H359 0.930 . S
N332 C331 1.373 . S
N332 C334 1.340 . S
N333 C330 1.368 . S
N333 C334 1.321 . S
N333 Co336 2.135 . S
C334 N332 1.340 . S
C334 N333 1.321 . S
C334 H358 0.930 . S
H335 C330 0.931 . S
Co336 N333 2.135 . S
Co336 N339 2.121 . S
Co336 O344 2.055 . S
Co336 O347 2.039 . S
Co336 N350 2.140 . S
C337 O338 1.227 . S
C337 O347 1.265 . S
O338 C337 1.227 . S
N339 Co336 2.121 . S
N339 C341 1.375 . S
N339 C342 1.313 . S
C340 C341 1.338 . S
C340 N343 1.377 . S
C340 H360 0.930 . S
C341 N339 1.375 . S
C341 C340 1.338 . S
C341 H345 0.931 . S
C342 N339 1.313 . S
C342 N343 1.344 . S
C342 H346 0.930 . S
N343 C340 1.377 . S
N343 C342 1.344 . S
O344 Co336 2.055 . S
O344 C348 1.253 1_545 S
H345 C341 0.931 . S
H346 C342 0.930 . S
O347 Co336 2.039 . S
O347 C337 1.265 . S
C348 O344 1.253 1_565 S
C348 O349 1.227 1_565 S
O349 C348 1.227 1_545 S
N350 Co336 2.140 . S
N350 C353 1.346 . S
N350 C354 1.345 . S
C351 C352 1.387 . S
C351 C355 1.391 . S
C352 C351 1.387 . S
C352 C353 1.369 . S
C352 H361 0.929 . S
C353 N350 1.346 . S
C353 C352 1.369 . S
C353 H356 0.928 . S
C354 N350 1.345 . S
C354 C355 1.371 . S
C354 H357 0.931 . S
C355 C351 1.391 . S
C355 C354 1.371 . S
C355 H362 0.930 . S
H356 C353 0.928 . S
H357 C354 0.931 . S
H358 C334 0.930 . S
H359 C331 0.930 . S
H360 C340 0.930 . S
H361 C352 0.929 . S
H362 C355 0.930 . S
C363 C364 1.351 . S
C363 N366 1.368 . S
C363 H368 0.931 . S
C364 C363 1.351 . S
C364 N365 1.373 . S
C364 H392 0.930 . S
N365 C364 1.373 . S
N365 C367 1.340 . S
N366 C363 1.368 . S
N366 C367 1.321 . S
N366 Co369 2.135 . S
C367 N365 1.340 . S
C367 N366 1.321 . S
C367 H391 0.930 . S
H368 C363 0.931 . S
Co369 N366 2.135 . S
Co369 N372 2.121 . S
Co369 O377 2.055 . S
Co369 O380 2.039 . S
Co369 N383 2.140 . S
C370 O371 1.227 . S
C370 O380 1.265 . S
O371 C370 1.227 . S
N372 Co369 2.121 . S
N372 C374 1.375 . S
N372 C375 1.313 . S
C373 C374 1.338 . S
C373 N376 1.377 . S
C373 H393 0.930 . S
C374 N372 1.375 . S
C374 C373 1.338 . S
C374 H378 0.931 . S
C375 N372 1.313 . S
C375 N376 1.344 . S
C375 H379 0.930 . S
N376 C373 1.377 . S
N376 C375 1.344 . S
O377 Co369 2.055 . S
O377 C381 1.253 . S
H378 C374 0.931 . S
H379 C375 0.930 . S
O380 Co369 2.039 . S
O380 C370 1.265 . S
C381 O377 1.253 . S
C381 O382 1.227 . S
O382 C381 1.227 . S
N383 Co369 2.140 . S
N383 C386 1.346 . S
N383 C387 1.345 . S
C384 C385 1.387 1_565 S
C384 C388 1.391 . S
C385 C384 1.387 1_545 S
C385 C386 1.369 . S
C385 H394 0.929 . S
C386 N383 1.346 . S
C386 C385 1.369 . S
C386 H389 0.928 . S
C387 N383 1.345 . S
C387 C388 1.371 1_545 S
C387 H390 0.931 . S
C388 C384 1.391 . S
C388 C387 1.371 1_565 S
C388 H395 0.930 . S
H389 C386 0.928 . S
H390 C387 0.931 . S
H391 C367 0.930 . S
H392 C364 0.930 . S
H393 C373 0.930 . S
H394 C385 0.929 . S
H395 C388 0.930 . S
C396 C397 1.351 . S
C396 N399 1.368 . S
C396 H401 0.931 . S
C397 C396 1.351 . S
C397 N398 1.373 . S
C397 H425 0.930 . S
N398 C397 1.373 . S
N398 C400 1.340 . S
N399 C396 1.368 . S
N399 C400 1.321 . S
N399 Co402 2.135 . S
C400 N398 1.340 . S
C400 N399 1.321 . S
C400 H424 0.930 . S
H401 C396 0.931 . S
Co402 N399 2.135 . S
Co402 N405 2.121 . S
Co402 O410 2.055 . S
Co402 O413 2.039 . S
Co402 N416 2.140 . S
C403 O404 1.227 . S
C403 O413 1.265 . S
O404 C403 1.227 . S
N405 Co402 2.121 . S
N405 C407 1.375 . S
N405 C408 1.313 . S
C406 C407 1.338 . S
C406 N409 1.377 . S
C406 H426 0.930 . S
C407 N405 1.375 . S
C407 C406 1.338 . S
C407 H411 0.931 . S
C408 N405 1.313 . S
C408 N409 1.344 . S
C408 H412 0.930 . S
N409 C406 1.377 . S
N409 C408 1.344 . S
O410 Co402 2.055 . S
O410 C414 1.253 1_545 S
H411 C407 0.931 . S
H412 C408 0.930 . S
O413 Co402 2.039 . S
O413 C403 1.265 . S
C414 O410 1.253 1_565 S
C414 O415 1.227 1_565 S
O415 C414 1.227 1_545 S
N416 Co402 2.140 . S
N416 C419 1.346 . S
N416 C420 1.345 . S
C417 C418 1.387 . S
C417 C421 1.391 . S
C418 C417 1.387 . S
C418 C419 1.369 . S
C418 H427 0.929 . S
C419 N416 1.346 . S
C419 C418 1.369 . S
C419 H422 0.928 . S
C420 N416 1.345 . S
C420 C421 1.371 . S
C420 H423 0.931 . S
C421 C417 1.391 . S
C421 C420 1.371 . S
C421 H428 0.930 . S
H422 C419 0.928 . S
H423 C420 0.931 . S
H424 C400 0.930 . S
H425 C397 0.930 . S
H426 C406 0.930 . S
H427 C418 0.929 . S
H428 C421 0.930 . S
C429 C430 1.351 . S
C429 N432 1.368 . S
C429 H434 0.931 . S
C430 C429 1.351 . S
C430 N431 1.373 . S
C430 H458 0.930 . S
N431 C430 1.373 . S
N431 C433 1.340 . S
N432 C429 1.368 . S
N432 C433 1.321 . S
N432 Co435 2.135 . S
C433 N431 1.340 . S
C433 N432 1.321 . S
C433 H457 0.930 . S
H434 C429 0.931 . S
Co435 N432 2.135 . S
Co435 N438 2.121 . S
Co435 O443 2.055 . S
Co435 O446 2.039 . S
Co435 N449 2.140 . S
C436 O437 1.227 . S
C436 O446 1.265 . S
O437 C436 1.227 . S
N438 Co435 2.121 . S
N438 C440 1.375 . S
N438 C441 1.313 . S
C439 C440 1.338 . S
C439 N442 1.377 . S
C439 H459 0.930 . S
C440 N438 1.375 . S
C440 C439 1.338 . S
C440 H444 0.931 . S
C441 N438 1.313 . S
C441 N442 1.344 . S
C441 H445 0.930 . S
N442 C439 1.377 . S
N442 C441 1.344 . S
O443 Co435 2.055 . S
O443 C447 1.253 . S
H444 C440 0.931 . S
H445 C441 0.930 . S
O446 Co435 2.039 . S
O446 C436 1.265 . S
C447 O443 1.253 . S
C447 O448 1.227 . S
O448 C447 1.227 . S
N449 Co435 2.140 . S
N449 C452 1.346 . S
N449 C453 1.345 . S
C450 C451 1.387 1_545 S
C450 C454 1.391 . S
C451 C450 1.387 1_565 S
C451 C452 1.369 . S
C451 H460 0.929 . S
C452 N449 1.346 . S
C452 C451 1.369 . S
C452 H455 0.928 . S
C453 N449 1.345 . S
C453 C454 1.371 1_565 S
C453 H456 0.931 . S
C454 C450 1.391 . S
C454 C453 1.371 1_545 S
C454 H461 0.930 . S
H455 C452 0.928 . S
H456 C453 0.931 . S
H457 C433 0.930 . S
H458 C430 0.930 . S
H459 C439 0.930 . S
H460 C451 0.929 . S
H461 C454 0.930 . S
C462 C463 1.351 . S
C462 N465 1.368 . S
C462 H467 0.931 . S
C463 C462 1.351 . S
C463 N464 1.373 . S
C463 H491 0.930 . S
N464 C463 1.373 . S
N464 C466 1.340 . S
N465 C462 1.368 . S
N465 C466 1.321 . S
N465 Co468 2.135 . S
C466 N464 1.340 . S
C466 N465 1.321 . S
C466 H490 0.930 . S
H467 C462 0.931 . S
Co468 N465 2.135 . S
Co468 N471 2.121 . S
Co468 O476 2.055 . S
Co468 O479 2.039 . S
Co468 N482 2.140 . S
C469 O470 1.227 . S
C469 O479 1.265 . S
O470 C469 1.227 . S
N471 Co468 2.121 . S
N471 C473 1.375 . S
N471 C474 1.313 . S
C472 C473 1.338 . S
C472 N475 1.377 . S
C472 H492 0.930 . S
C473 N471 1.375 . S
C473 C472 1.338 . S
C473 H477 0.931 . S
C474 N471 1.313 . S
C474 N475 1.344 . S
C474 H478 0.930 . S
N475 C472 1.377 . S
N475 C474 1.344 . S
O476 Co468 2.055 . S
O476 C480 1.253 1_565 S
H477 C473 0.931 . S
H478 C474 0.930 . S
O479 Co468 2.039 . S
O479 C469 1.265 . S
C480 O476 1.253 1_545 S
C480 O481 1.227 1_545 S
O481 C480 1.227 1_565 S
N482 Co468 2.140 . S
N482 C485 1.346 . S
N482 C486 1.345 . S
C483 C484 1.387 . S
C483 C487 1.391 . S
C484 C483 1.387 . S
C484 C485 1.369 . S
C484 H493 0.929 . S
C485 N482 1.346 . S
C485 C484 1.369 . S
C485 H488 0.928 . S
C486 N482 1.345 . S
C486 C487 1.371 . S
C486 H489 0.931 . S
C487 C483 1.391 . S
C487 C486 1.371 . S
C487 H494 0.930 . S
H488 C485 0.928 . S
H489 C486 0.931 . S
H490 C466 0.930 . S
H491 C463 0.930 . S
H492 C472 0.930 . S
H493 C484 0.929 . S
H494 C487 0.930 . S
C495 C496 1.351 . S
C495 N498 1.368 . S
C495 H500 0.931 . S
C496 C495 1.351 . S
C496 N497 1.373 . S
C496 H524 0.930 . S
N497 C496 1.373 . S
N497 C499 1.340 . S
N498 C495 1.368 . S
N498 C499 1.321 . S
N498 Co501 2.135 . S
C499 N497 1.340 . S
C499 N498 1.321 . S
C499 H523 0.930 . S
H500 C495 0.931 . S
Co501 N498 2.135 . S
Co501 N504 2.121 . S
Co501 O509 2.055 . S
Co501 O512 2.039 . S
Co501 N515 2.140 . S
C502 O503 1.227 . S
C502 O512 1.265 . S
O503 C502 1.227 . S
N504 Co501 2.121 . S
N504 C506 1.375 . S
N504 C507 1.313 . S
C505 C506 1.338 . S
C505 N508 1.377 . S
C505 H525 0.930 . S
C506 N504 1.375 . S
C506 C505 1.338 . S
C506 H510 0.931 . S
C507 N504 1.313 . S
C507 N508 1.344 . S
C507 H511 0.930 . S
N508 C505 1.377 . S
N508 C507 1.344 . S
O509 Co501 2.055 . S
O509 C513 1.253 . S
H510 C506 0.931 . S
H511 C507 0.930 . S
O512 Co501 2.039 . S
O512 C502 1.265 . S
C513 O509 1.253 . S
C513 O514 1.227 . S
O514 C513 1.227 . S
N515 Co501 2.140 . S
N515 C518 1.346 . S
N515 C519 1.345 . S
C516 C517 1.387 1_565 S
C516 C520 1.391 1_455 S
C517 C516 1.387 1_545 S
C517 C518 1.369 1_455 S
C517 H526 0.929 . S
C518 N515 1.346 . S
C518 C517 1.369 1_655 S
C518 H521 0.928 . S
C519 N515 1.345 . S
C519 C520 1.371 1_545 S
C519 H522 0.931 . S
C520 C516 1.391 1_655 S
C520 C519 1.371 1_565 S
C520 H527 0.930 . S
H521 C518 0.928 . S
H522 C519 0.931 . S
H523 C499 0.930 . S
H524 C496 0.930 . S
H525 C505 0.930 . S
H526 C517 0.929 . S
H527 C520 0.930 . S
C528 C529 1.351 . S
C528 N531 1.368 . S
C528 H533 0.931 . S
C529 C528 1.351 . S
C529 N530 1.373 . S
C529 H557 0.930 . S
N530 C529 1.373 . S
N530 C532 1.340 . S
N531 C528 1.368 . S
N531 C532 1.321 . S
N531 Co534 2.135 . S
C532 N530 1.340 . S
C532 N531 1.321 . S
C532 H556 0.930 . S
H533 C528 0.931 . S
Co534 N531 2.135 . S
Co534 N537 2.121 . S
Co534 O542 2.055 . S
Co534 O545 2.039 . S
Co534 N548 2.140 . S
C535 O536 1.227 . S
C535 O545 1.265 . S
O536 C535 1.227 . S
N537 Co534 2.121 . S
N537 C539 1.375 . S
N537 C540 1.313 . S
C538 C539 1.338 . S
C538 N541 1.377 . S
C538 H558 0.930 . S
C539 N537 1.375 . S
C539 C538 1.338 . S
C539 H543 0.931 . S
C540 N537 1.313 . S
C540 N541 1.344 . S
C540 H544 0.930 . S
N541 C538 1.377 . S
N541 C540 1.344 . S
O542 Co534 2.055 . S
O542 C546 1.253 . S
H543 C539 0.931 . S
H544 C540 0.930 . S
O545 Co534 2.039 . S
O545 C535 1.265 . S
C546 O542 1.253 . S
C546 O547 1.227 . S
O547 C546 1.227 . S
N548 Co534 2.140 . S
N548 C551 1.346 . S
N548 C552 1.345 . S
C549 C550 1.387 . S
C549 C553 1.391 . S
C550 C549 1.387 . S
C550 C551 1.369 . S
C550 H559 0.929 . S
C551 N548 1.346 . S
C551 C550 1.369 . S
C551 H554 0.928 . S
C552 N548 1.345 . S
C552 C553 1.371 . S
C552 H555 0.931 . S
C553 C549 1.391 . S
C553 C552 1.371 . S
C553 H560 0.930 . S
H554 C551 0.928 . S
H555 C552 0.931 . S
H556 C532 0.930 . S
H557 C529 0.930 . S
H558 C538 0.930 . S
H559 C550 0.929 . S
H560 C553 0.930 . S
C561 C562 1.351 . S
C561 N564 1.368 . S
C561 H566 0.931 . S
C562 C561 1.351 . S
C562 N563 1.373 . S
C562 H590 0.930 . S
N563 C562 1.373 . S
N563 C565 1.340 . S
N564 C561 1.368 . S
N564 C565 1.321 . S
N564 Co567 2.135 . S
C565 N563 1.340 . S
C565 N564 1.321 . S
C565 H589 0.930 . S
H566 C561 0.931 . S
Co567 N564 2.135 . S
Co567 N570 2.121 . S
Co567 O575 2.055 . S
Co567 O578 2.039 . S
Co567 N581 2.140 . S
C568 O569 1.227 . S
C568 O578 1.265 . S
O569 C568 1.227 . S
N570 Co567 2.121 . S
N570 C572 1.375 . S
N570 C573 1.313 . S
C571 C572 1.338 . S
C571 N574 1.377 . S
C571 H591 0.930 . S
C572 N570 1.375 . S
C572 C571 1.338 . S
C572 H576 0.931 . S
C573 N570 1.313 . S
C573 N574 1.344 . S
C573 H577 0.930 . S
N574 C571 1.377 . S
N574 C573 1.344 . S
O575 Co567 2.055 . S
O575 C579 1.253 . S
H576 C572 0.931 . S
H577 C573 0.930 . S
O578 Co567 2.039 . S
O578 C568 1.265 . S
C579 O575 1.253 . S
C579 O580 1.227 . S
O580 C579 1.227 . S
N581 Co567 2.140 . S
N581 C584 1.346 . S
N581 C585 1.345 . S
C582 C583 1.387 . S
C582 C586 1.391 . S
C583 C582 1.387 . S
C583 C584 1.369 . S
C583 H592 0.929 . S
C584 N581 1.346 . S
C584 C583 1.369 . S
C584 H587 0.928 . S
C585 N581 1.345 . S
C585 C586 1.371 . S
C585 H588 0.931 . S
C586 C582 1.391 . S
C586 C585 1.371 . S
C586 H593 0.930 . S
H587 C584 0.928 . S
H588 C585 0.931 . S
H589 C565 0.930 . S
H590 C562 0.930 . S
H591 C571 0.930 . S
H592 C583 0.929 . S
H593 C586 0.930 . S
C594 C595 1.351 . S
C594 N597 1.368 . S
C594 H599 0.931 . S
C595 C594 1.351 . S
C595 N596 1.373 . S
C595 H623 0.930 . S
N596 C595 1.373 . S
N596 C598 1.340 . S
N597 C594 1.368 . S
N597 C598 1.321 . S
N597 Co600 2.135 . S
C598 N596 1.340 . S
C598 N597 1.321 . S
C598 H622 0.930 . S
H599 C594 0.931 . S
Co600 N597 2.135 . S
Co600 N603 2.121 . S
Co600 O608 2.055 . S
Co600 O611 2.039 . S
Co600 N614 2.140 . S
C601 O602 1.227 . S
C601 O611 1.265 . S
O602 C601 1.227 . S
N603 Co600 2.121 . S
N603 C605 1.375 . S
N603 C606 1.313 . S
C604 C605 1.338 . S
C604 N607 1.377 . S
C604 H624 0.930 . S
C605 N603 1.375 . S
C605 C604 1.338 . S
C605 H609 0.931 . S
C606 N603 1.313 . S
C606 N607 1.344 . S
C606 H610 0.930 . S
N607 C604 1.377 . S
N607 C606 1.344 . S
O608 Co600 2.055 . S
O608 C612 1.253 . S
H609 C605 0.931 . S
H610 C606 0.930 . S
O611 Co600 2.039 . S
O611 C601 1.265 . S
C612 O608 1.253 . S
C612 O613 1.227 . S
O613 C612 1.227 . S
N614 Co600 2.140 . S
N614 C617 1.346 . S
N614 C618 1.345 . S
C615 C616 1.387 . S
C615 C619 1.391 . S
C616 C615 1.387 . S
C616 C617 1.369 . S
C616 H625 0.929 . S
C617 N614 1.346 . S
C617 C616 1.369 . S
C617 H620 0.928 . S
C618 N614 1.345 . S
C618 C619 1.371 . S
C618 H621 0.931 . S
C619 C615 1.391 . S
C619 C618 1.371 . S
C619 H626 0.930 . S
H620 C617 0.928 . S
H621 C618 0.931 . S
H622 C598 0.930 . S
H623 C595 0.930 . S
H624 C604 0.930 . S
H625 C616 0.929 . S
H626 C619 0.930 . S
C627 C628 1.351 . S
C627 N630 1.368 . S
C627 H632 0.931 . S
C628 C627 1.351 . S
C628 N629 1.373 . S
C628 H656 0.930 . S
N629 C628 1.373 . S
N629 C631 1.340 . S
N630 C627 1.368 . S
N630 C631 1.321 . S
N630 Co633 2.135 . S
C631 N629 1.340 . S
C631 N630 1.321 . S
C631 H655 0.930 . S
H632 C627 0.931 . S
Co633 N630 2.135 . S
Co633 N636 2.121 . S
Co633 O641 2.055 . S
Co633 O644 2.039 . S
Co633 N647 2.140 . S
C634 O635 1.227 . S
C634 O644 1.265 . S
O635 C634 1.227 . S
N636 Co633 2.121 . S
N636 C638 1.375 . S
N636 C639 1.313 . S
C637 C638 1.338 . S
C637 N640 1.377 . S
C637 H657 0.930 . S
C638 N636 1.375 . S
C638 C637 1.338 . S
C638 H642 0.931 . S
C639 N636 1.313 . S
C639 N640 1.344 . S
C639 H643 0.930 . S
N640 C637 1.377 . S
N640 C639 1.344 . S
O641 Co633 2.055 . S
O641 C645 1.253 . S
H642 C638 0.931 . S
H643 C639 0.930 . S
O644 Co633 2.039 . S
O644 C634 1.265 . S
C645 O641 1.253 . S
C645 O646 1.227 . S
O646 C645 1.227 . S
N647 Co633 2.140 . S
N647 C650 1.346 . S
N647 C651 1.345 . S
C648 C649 1.387 . S
C648 C652 1.391 1_455 S
C649 C648 1.387 . S
C649 C650 1.369 1_455 S
C649 H658 0.929 . S
C650 N647 1.346 . S
C650 C649 1.369 1_655 S
C650 H653 0.928 . S
C651 N647 1.345 . S
C651 C652 1.371 . S
C651 H654 0.931 . S
C652 C648 1.391 1_655 S
C652 C651 1.371 . S
C652 H659 0.930 . S
H653 C650 0.928 . S
H654 C651 0.931 . S
H655 C631 0.930 . S
H656 C628 0.930 . S
H657 C637 0.930 . S
H658 C649 0.929 . S
H659 C652 0.930 . S
C660 C661 1.351 . S
C660 N663 1.368 . S
C660 H665 0.931 . S
C661 C660 1.351 . S
C661 N662 1.373 . S
C661 H689 0.930 . S
N662 C661 1.373 . S
N662 C664 1.340 . S
N663 C660 1.368 . S
N663 C664 1.321 . S
N663 Co666 2.135 . S
C664 N662 1.340 . S
C664 N663 1.321 . S
C664 H688 0.930 . S
H665 C660 0.931 . S
Co666 N663 2.135 . S
Co666 N669 2.121 . S
Co666 O674 2.055 . S
Co666 O677 2.039 . S
Co666 N680 2.140 . S
C667 O668 1.227 . S
C667 O677 1.265 . S
O668 C667 1.227 . S
N669 Co666 2.121 . S
N669 C671 1.375 . S
N669 C672 1.313 . S
C670 C671 1.338 . S
C670 N673 1.377 . S
C670 H690 0.930 . S
C671 N669 1.375 . S
C671 C670 1.338 . S
C671 H675 0.931 . S
C672 N669 1.313 . S
C672 N673 1.344 . S
C672 H676 0.930 . S
N673 C670 1.377 . S
N673 C672 1.344 . S
O674 Co666 2.055 . S
O674 C678 1.253 . S
H675 C671 0.931 . S
H676 C672 0.930 . S
O677 Co666 2.039 . S
O677 C667 1.265 . S
C678 O674 1.253 . S
C678 O679 1.227 . S
O679 C678 1.227 . S
N680 Co666 2.140 . S
N680 C683 1.346 . S
N680 C684 1.345 . S
C681 C682 1.387 . S
C681 C685 1.391 . S
C682 C681 1.387 . S
C682 C683 1.369 . S
C682 H691 0.929 . S
C683 N680 1.346 . S
C683 C682 1.369 . S
C683 H686 0.928 . S
C684 N680 1.345 . S
C684 C685 1.371 . S
C684 H687 0.931 . S
C685 C681 1.391 . S
C685 C684 1.371 . S
C685 H692 0.930 . S
H686 C683 0.928 . S
H687 C684 0.931 . S
H688 C664 0.930 . S
H689 C661 0.930 . S
H690 C670 0.930 . S
H691 C682 0.929 . S
H692 C685 0.930 . S
C693 C694 1.351 . S
C693 N696 1.368 . S
C693 H698 0.931 . S
C694 C693 1.351 . S
C694 N695 1.373 . S
C694 H722 0.930 . S
N695 C694 1.373 . S
N695 C697 1.340 . S
N696 C693 1.368 . S
N696 C697 1.321 . S
N696 Co699 2.135 . S
C697 N695 1.340 . S
C697 N696 1.321 . S
C697 H721 0.930 . S
H698 C693 0.931 . S
Co699 N696 2.135 . S
Co699 N702 2.121 . S
Co699 O707 2.055 . S
Co699 O710 2.039 . S
Co699 N713 2.140 . S
C700 O701 1.227 . S
C700 O710 1.265 . S
O701 C700 1.227 . S
N702 Co699 2.121 . S
N702 C704 1.375 . S
N702 C705 1.313 . S
C703 C704 1.338 . S
C703 N706 1.377 . S
C703 H723 0.930 . S
C704 N702 1.375 . S
C704 C703 1.338 . S
C704 H708 0.931 . S
C705 N702 1.313 . S
C705 N706 1.344 . S
C705 H709 0.930 . S
N706 C703 1.377 . S
N706 C705 1.344 . S
O707 Co699 2.055 . S
O707 C711 1.253 . S
H708 C704 0.931 . S
H709 C705 0.930 . S
O710 Co699 2.039 . S
O710 C700 1.265 . S
C711 O707 1.253 . S
C711 O712 1.227 . S
O712 C711 1.227 . S
N713 Co699 2.140 . S
N713 C716 1.346 . S
N713 C717 1.345 . S
C714 C715 1.387 . S
C714 C718 1.391 1_455 S
C715 C714 1.387 . S
C715 C716 1.369 1_455 S
C715 H724 0.929 . S
C716 N713 1.346 . S
C716 C715 1.369 1_655 S
C716 H719 0.928 . S
C717 N713 1.345 . S
C717 C718 1.371 . S
C717 H720 0.931 . S
C718 C714 1.391 1_655 S
C718 C717 1.371 . S
C718 H725 0.930 . S
H719 C716 0.928 . S
H720 C717 0.931 . S
H721 C697 0.930 . S
H722 C694 0.930 . S
H723 C703 0.930 . S
H724 C715 0.929 . S
H725 C718 0.930 . S
C726 C727 1.351 . S
C726 N729 1.368 . S
C726 H731 0.931 . S
C727 C726 1.351 . S
C727 N728 1.373 . S
C727 H755 0.930 . S
N728 C727 1.373 . S
N728 C730 1.340 . S
N729 C726 1.368 . S
N729 C730 1.321 . S
N729 Co732 2.135 . S
C730 N728 1.340 . S
C730 N729 1.321 . S
C730 H754 0.930 . S
H731 C726 0.931 . S
Co732 N729 2.135 . S
Co732 N735 2.121 . S
Co732 O740 2.055 . S
Co732 O743 2.039 . S
Co732 N746 2.140 . S
C733 O734 1.227 . S
C733 O743 1.265 . S
O734 C733 1.227 . S
N735 Co732 2.121 . S
N735 C737 1.375 . S
N735 C738 1.313 . S
C736 C737 1.338 . S
C736 N739 1.377 . S
C736 H756 0.930 . S
C737 N735 1.375 . S
C737 C736 1.338 . S
C737 H741 0.931 . S
C738 N735 1.313 . S
C738 N739 1.344 . S
C738 H742 0.930 . S
N739 C736 1.377 . S
N739 C738 1.344 . S
O740 Co732 2.055 . S
O740 C744 1.253 . S
H741 C737 0.931 . S
H742 C738 0.930 . S
O743 Co732 2.039 . S
O743 C733 1.265 . S
C744 O740 1.253 . S
C744 O745 1.227 . S
O745 C744 1.227 . S
N746 Co732 2.140 . S
N746 C749 1.346 . S
N746 C750 1.345 . S
C747 C748 1.387 . S
C747 C751 1.391 . S
C748 C747 1.387 . S
C748 C749 1.369 . S
C748 H757 0.929 . S
C749 N746 1.346 . S
C749 C748 1.369 . S
C749 H752 0.928 . S
C750 N746 1.345 . S
C750 C751 1.371 . S
C750 H753 0.931 . S
C751 C747 1.391 . S
C751 C750 1.371 . S
C751 H758 0.930 . S
H752 C749 0.928 . S
H753 C750 0.931 . S
H754 C730 0.930 . S
H755 C727 0.930 . S
H756 C736 0.930 . S
H757 C748 0.929 . S
H758 C751 0.930 . S
C759 C760 1.351 . S
C759 N762 1.368 . S
C759 H764 0.931 . S
C760 C759 1.351 . S
C760 N761 1.373 . S
C760 H788 0.930 . S
N761 C760 1.373 . S
N761 C763 1.340 . S
N762 C759 1.368 . S
N762 C763 1.321 . S
N762 Co765 2.135 . S
C763 N761 1.340 . S
C763 N762 1.321 . S
C763 H787 0.930 . S
H764 C759 0.931 . S
Co765 N762 2.135 . S
Co765 N768 2.121 . S
Co765 O773 2.055 . S
Co765 O776 2.039 . S
Co765 N779 2.140 . S
C766 O767 1.227 . S
C766 O776 1.265 . S
O767 C766 1.227 . S
N768 Co765 2.121 . S
N768 C770 1.375 . S
N768 C771 1.313 . S
C769 C770 1.338 . S
C769 N772 1.377 . S
C769 H789 0.930 . S
C770 N768 1.375 . S
C770 C769 1.338 . S
C770 H774 0.931 . S
C771 N768 1.313 . S
C771 N772 1.344 . S
C771 H775 0.930 . S
N772 C769 1.377 . S
N772 C771 1.344 . S
O773 Co765 2.055 . S
O773 C777 1.253 . S
H774 C770 0.931 . S
H775 C771 0.930 . S
O776 Co765 2.039 . S
O776 C766 1.265 . S
C777 O773 1.253 . S
C777 O778 1.227 . S
O778 C777 1.227 . S
N779 Co765 2.140 . S
N779 C782 1.346 . S
N779 C783 1.345 . S
C780 C781 1.387 . S
C780 C784 1.391 . S
C781 C780 1.387 . S
C781 C782 1.369 . S
C781 H790 0.929 . S
C782 N779 1.346 . S
C782 C781 1.369 . S
C782 H785 0.928 . S
C783 N779 1.345 . S
C783 C784 1.371 . S
C783 H786 0.931 . S
C784 C780 1.391 . S
C784 C783 1.371 . S
C784 H791 0.930 . S
H785 C782 0.928 . S
H786 C783 0.931 . S
H787 C763 0.930 . S
H788 C760 0.930 . S
H789 C769 0.930 . S
H790 C781 0.929 . S
H791 C784 0.930 . S
C792 C793 1.351 . S
C792 N795 1.368 . S
C792 H797 0.931 . S
C793 C792 1.351 . S
C793 N794 1.373 . S
C793 H821 0.930 . S
N794 C793 1.373 . S
N794 C796 1.340 . S
N795 C792 1.368 . S
N795 C796 1.321 . S
N795 Co798 2.135 . S
C796 N794 1.340 . S
C796 N795 1.321 . S
C796 H820 0.930 . S
H797 C792 0.931 . S
Co798 N795 2.135 . S
Co798 N801 2.121 . S
Co798 O806 2.055 . S
Co798 O809 2.039 . S
Co798 N812 2.140 . S
C799 O800 1.227 . S
C799 O809 1.265 . S
O800 C799 1.227 . S
N801 Co798 2.121 . S
N801 C803 1.375 . S
N801 C804 1.313 . S
C802 C803 1.338 . S
C802 N805 1.377 . S
C802 H822 0.930 . S
C803 N801 1.375 . S
C803 C802 1.338 . S
C803 H807 0.931 . S
C804 N801 1.313 . S
C804 N805 1.344 . S
C804 H808 0.930 . S
N805 C802 1.377 . S
N805 C804 1.344 . S
O806 Co798 2.055 . S
O806 C810 1.253 . S
H807 C803 0.931 . S
H808 C804 0.930 . S
O809 Co798 2.039 . S
O809 C799 1.265 . S
C810 O806 1.253 . S
C810 O811 1.227 . S
O811 C810 1.227 . S
N812 Co798 2.140 . S
N812 C815 1.346 . S
N812 C816 1.345 . S
C813 C814 1.387 . S
C813 C817 1.391 . S
C814 C813 1.387 . S
C814 C815 1.369 . S
C814 H823 0.929 . S
C815 N812 1.346 . S
C815 C814 1.369 . S
C815 H818 0.928 . S
C816 N812 1.345 . S
C816 C817 1.371 . S
C816 H819 0.931 . S
C817 C813 1.391 . S
C817 C816 1.371 . S
C817 H824 0.930 . S
H818 C815 0.928 . S
H819 C816 0.931 . S
H820 C796 0.930 . S
H821 C793 0.930 . S
H822 C802 0.930 . S
H823 C814 0.929 . S
H824 C817 0.930 . S
C825 C826 1.351 . S
C825 N828 1.368 . S
C825 H830 0.931 . S
C826 C825 1.351 . S
C826 N827 1.373 . S
C826 H854 0.930 . S
N827 C826 1.373 . S
N827 C829 1.340 . S
N828 C825 1.368 . S
N828 C829 1.321 . S
N828 Co831 2.135 . S
C829 N827 1.340 . S
C829 N828 1.321 . S
C829 H853 0.930 . S
H830 C825 0.931 . S
Co831 N828 2.135 . S
Co831 N834 2.121 . S
Co831 O839 2.055 . S
Co831 O842 2.039 . S
Co831 N845 2.140 . S
C832 O833 1.227 . S
C832 O842 1.265 . S
O833 C832 1.227 . S
N834 Co831 2.121 . S
N834 C836 1.375 . S
N834 C837 1.313 . S
C835 C836 1.338 . S
C835 N838 1.377 . S
C835 H855 0.930 . S
C836 N834 1.375 . S
C836 C835 1.338 . S
C836 H840 0.931 . S
C837 N834 1.313 . S
C837 N838 1.344 . S
C837 H841 0.930 . S
N838 C835 1.377 . S
N838 C837 1.344 . S
O839 Co831 2.055 . S
O839 C843 1.253 . S
H840 C836 0.931 . S
H841 C837 0.930 . S
O842 Co831 2.039 . S
O842 C832 1.265 . S
C843 O839 1.253 . S
C843 O844 1.227 . S
O844 C843 1.227 . S
N845 Co831 2.140 . S
N845 C848 1.346 . S
N845 C849 1.345 . S
C846 C847 1.387 . S
C846 C850 1.391 . S
C847 C846 1.387 . S
C847 C848 1.369 . S
C847 H856 0.929 . S
C848 N845 1.346 . S
C848 C847 1.369 . S
C848 H851 0.928 . S
C849 N845 1.345 . S
C849 C850 1.371 . S
C849 H852 0.931 . S
C850 C846 1.391 . S
C850 C849 1.371 . S
C850 H857 0.930 . S
H851 C848 0.928 . S
H852 C849 0.931 . S
H853 C829 0.930 . S
H854 C826 0.930 . S
H855 C835 0.930 . S
H856 C847 0.929 . S
H857 C850 0.930 . S
C858 C859 1.351 . S
C858 N861 1.368 . S
C858 H863 0.931 . S
C859 C858 1.351 . S
C859 N860 1.373 . S
C859 H887 0.930 . S
N860 C859 1.373 . S
N860 C862 1.340 . S
N861 C858 1.368 . S
N861 C862 1.321 . S
N861 Co864 2.135 . S
C862 N860 1.340 . S
C862 N861 1.321 . S
C862 H886 0.930 . S
H863 C858 0.931 . S
Co864 N861 2.135 . S
Co864 N867 2.121 . S
Co864 O872 2.055 . S
Co864 O875 2.039 . S
Co864 N878 2.140 . S
C865 O866 1.227 . S
C865 O875 1.265 . S
O866 C865 1.227 . S
N867 Co864 2.121 . S
N867 C869 1.375 . S
N867 C870 1.313 . S
C868 C869 1.338 . S
C868 N871 1.377 . S
C868 H888 0.930 . S
C869 N867 1.375 . S
C869 C868 1.338 . S
C869 H873 0.931 . S
C870 N867 1.313 . S
C870 N871 1.344 . S
C870 H874 0.930 . S
N871 C868 1.377 . S
N871 C870 1.344 . S
O872 Co864 2.055 . S
O872 C876 1.253 . S
H873 C869 0.931 . S
H874 C870 0.930 . S
O875 Co864 2.039 . S
O875 C865 1.265 . S
C876 O872 1.253 . S
C876 O877 1.227 . S
O877 C876 1.227 . S
N878 Co864 2.140 . S
N878 C881 1.346 . S
N878 C882 1.345 . S
C879 C880 1.387 . S
C879 C883 1.391 . S
C880 C879 1.387 . S
C880 C881 1.369 . S
C880 H889 0.929 . S
C881 N878 1.346 . S
C881 C880 1.369 . S
C881 H884 0.928 . S
C882 N878 1.345 . S
C882 C883 1.371 . S
C882 H885 0.931 . S
C883 C879 1.391 . S
C883 C882 1.371 . S
C883 H890 0.930 . S
H884 C881 0.928 . S
H885 C882 0.931 . S
H886 C862 0.930 . S
H887 C859 0.930 . S
H888 C868 0.930 . S
H889 C880 0.929 . S
H890 C883 0.930 . S
C891 C892 1.351 . S
C891 N894 1.368 . S
C891 H896 0.931 . S
C892 C891 1.351 . S
C892 N893 1.373 . S
C892 H920 0.930 . S
N893 C892 1.373 . S
N893 C895 1.340 . S
N894 C891 1.368 . S
N894 C895 1.321 . S
N894 Co897 2.135 . S
C895 N893 1.340 . S
C895 N894 1.321 . S
C895 H919 0.930 . S
H896 C891 0.931 . S
Co897 N894 2.135 . S
Co897 N900 2.121 . S
Co897 O905 2.055 . S
Co897 O908 2.039 . S
Co897 N911 2.140 . S
C898 O899 1.227 . S
C898 O908 1.265 . S
O899 C898 1.227 . S
N900 Co897 2.121 . S
N900 C902 1.375 . S
N900 C903 1.313 . S
C901 C902 1.338 . S
C901 N904 1.377 . S
C901 H921 0.930 . S
C902 N900 1.375 . S
C902 C901 1.338 . S
C902 H906 0.931 . S
C903 N900 1.313 . S
C903 N904 1.344 . S
C903 H907 0.930 . S
N904 C901 1.377 . S
N904 C903 1.344 . S
O905 Co897 2.055 . S
O905 C909 1.253 . S
H906 C902 0.931 . S
H907 C903 0.930 . S
O908 Co897 2.039 . S
O908 C898 1.265 . S
C909 O905 1.253 . S
C909 O910 1.227 . S
O910 C909 1.227 . S
N911 Co897 2.140 . S
N911 C914 1.346 . S
N911 C915 1.345 . S
C912 C913 1.387 . S
C912 C916 1.391 1_655 S
C913 C912 1.387 . S
C913 C914 1.369 1_655 S
C913 H922 0.929 . S
C914 N911 1.346 . S
C914 C913 1.369 1_455 S
C914 H917 0.928 . S
C915 N911 1.345 . S
C915 C916 1.371 . S
C915 H918 0.931 . S
C916 C912 1.391 1_455 S
C916 C915 1.371 . S
C916 H923 0.930 . S
H917 C914 0.928 . S
H918 C915 0.931 . S
H919 C895 0.930 . S
H920 C892 0.930 . S
H921 C901 0.930 . S
H922 C913 0.929 . S
H923 C916 0.930 . S
C924 C925 1.351 . S
C924 N927 1.368 . S
C924 H929 0.931 . S
C925 C924 1.351 . S
C925 N926 1.373 . S
C925 H953 0.930 . S
N926 C925 1.373 . S
N926 C928 1.340 . S
N927 C924 1.368 . S
N927 C928 1.321 . S
N927 Co930 2.135 . S
C928 N926 1.340 . S
C928 N927 1.321 . S
C928 H952 0.930 . S
H929 C924 0.931 . S
Co930 N927 2.135 . S
Co930 N933 2.121 . S
Co930 O938 2.055 . S
Co930 O941 2.039 . S
Co930 N944 2.140 . S
C931 O932 1.227 . S
C931 O941 1.265 . S
O932 C931 1.227 . S
N933 Co930 2.121 . S
N933 C935 1.375 . S
N933 C936 1.313 . S
C934 C935 1.338 . S
C934 N937 1.377 . S
C934 H954 0.930 . S
C935 N933 1.375 . S
C935 C934 1.338 . S
C935 H939 0.931 . S
C936 N933 1.313 . S
C936 N937 1.344 . S
C936 H940 0.930 . S
N937 C934 1.377 . S
N937 C936 1.344 . S
O938 Co930 2.055 . S
O938 C942 1.253 . S
H939 C935 0.931 . S
H940 C936 0.930 . S
O941 Co930 2.039 . S
O941 C931 1.265 . S
C942 O938 1.253 . S
C942 O943 1.227 . S
O943 C942 1.227 . S
N944 Co930 2.140 . S
N944 C947 1.346 . S
N944 C948 1.345 . S
C945 C946 1.387 . S
C945 C949 1.391 . S
C946 C945 1.387 . S
C946 C947 1.369 . S
C946 H955 0.929 . S
C947 N944 1.346 . S
C947 C946 1.369 . S
C947 H950 0.928 . S
C948 N944 1.345 . S
C948 C949 1.371 . S
C948 H951 0.931 . S
C949 C945 1.391 . S
C949 C948 1.371 . S
C949 H956 0.930 . S
H950 C947 0.928 . S
H951 C948 0.931 . S
H952 C928 0.930 . S
H953 C925 0.930 . S
H954 C934 0.930 . S
H955 C946 0.929 . S
H956 C949 0.930 . S
C957 C958 1.351 . S
C957 N960 1.368 . S
C957 H962 0.931 . S
C958 C957 1.351 . S
C958 N959 1.373 . S
C958 H986 0.930 . S
N959 C958 1.373 . S
N959 C961 1.340 . S
N960 C957 1.368 . S
N960 C961 1.321 . S
N960 Co963 2.135 . S
C961 N959 1.340 . S
C961 N960 1.321 . S
C961 H985 0.930 . S
H962 C957 0.931 . S
Co963 N960 2.135 . S
Co963 N966 2.121 . S
Co963 O971 2.055 . S
Co963 O974 2.039 . S
Co963 N977 2.140 . S
C964 O965 1.227 . S
C964 O974 1.265 . S
O965 C964 1.227 . S
N966 Co963 2.121 . S
N966 C968 1.375 . S
N966 C969 1.313 . S
C967 C968 1.338 . S
C967 N970 1.377 . S
C967 H987 0.930 . S
C968 N966 1.375 . S
C968 C967 1.338 . S
C968 H972 0.931 . S
C969 N966 1.313 . S
C969 N970 1.344 . S
C969 H973 0.930 . S
N970 C967 1.377 . S
N970 C969 1.344 . S
O971 Co963 2.055 . S
O971 C975 1.253 . S
H972 C968 0.931 . S
H973 C969 0.930 . S
O974 Co963 2.039 . S
O974 C964 1.265 . S
C975 O971 1.253 . S
C975 O976 1.227 . S
O976 C975 1.227 . S
N977 Co963 2.140 . S
N977 C980 1.346 . S
N977 C981 1.345 . S
C978 C979 1.387 . S
C978 C982 1.391 1_655 S
C979 C978 1.387 . S
C979 C980 1.369 1_655 S
C979 H988 0.929 . S
C980 N977 1.346 . S
C980 C979 1.369 1_455 S
C980 H983 0.928 . S
C981 N977 1.345 . S
C981 C982 1.371 . S
C981 H984 0.931 . S
C982 C978 1.391 1_455 S
C982 C981 1.371 . S
C982 H989 0.930 . S
H983 C980 0.928 . S
H984 C981 0.931 . S
H985 C961 0.930 . S
H986 C958 0.930 . S
H987 C967 0.930 . S
H988 C979 0.929 . S
H989 C982 0.930 . S
C990 C991 1.351 . S
C990 N993 1.368 . S
C990 H995 0.931 . S
C991 C990 1.351 . S
C991 N992 1.373 . S
C991 H1019 0.930 . S
N992 C991 1.373 . S
N992 C994 1.340 . S
N993 C990 1.368 . S
N993 C994 1.321 . S
N993 Co996 2.135 . S
C994 N992 1.340 . S
C994 N993 1.321 . S
C994 H1018 0.930 . S
H995 C990 0.931 . S
Co996 N993 2.135 . S
Co996 N999 2.121 . S
Co996 O1004 2.055 . S
Co996 O1007 2.039 . S
Co996 N1010 2.140 . S
C997 O998 1.227 . S
C997 O1007 1.265 . S
O998 C997 1.227 . S
N999 Co996 2.121 . S
N999 C1001 1.375 . S
N999 C1002 1.313 . S
C1000 C1001 1.338 . S
C1000 N1003 1.377 . S
C1000 H1020 0.930 . S
C1001 N999 1.375 . S
C1001 C1000 1.338 . S
C1001 H1005 0.931 . S
C1002 N999 1.313 . S
C1002 N1003 1.344 . S
C1002 H1006 0.930 . S
N1003 C1000 1.377 . S
N1003 C1002 1.344 . S
O1004 Co996 2.055 . S
O1004 C1008 1.253 . S
H1005 C1001 0.931 . S
H1006 C1002 0.930 . S
O1007 Co996 2.039 . S
O1007 C997 1.265 . S
C1008 O1004 1.253 . S
C1008 O1009 1.227 . S
O1009 C1008 1.227 . S
N1010 Co996 2.140 . S
N1010 C1013 1.346 . S
N1010 C1014 1.345 . S
C1011 C1012 1.387 . S
C1011 C1015 1.391 . S
C1012 C1011 1.387 . S
C1012 C1013 1.369 . S
C1012 H1021 0.929 . S
C1013 N1010 1.346 . S
C1013 C1012 1.369 . S
C1013 H1016 0.928 . S
C1014 N1010 1.345 . S
C1014 C1015 1.371 . S
C1014 H1017 0.931 . S
C1015 C1011 1.391 . S
C1015 C1014 1.371 . S
C1015 H1022 0.930 . S
H1016 C1013 0.928 . S
H1017 C1014 0.931 . S
H1018 C994 0.930 . S
H1019 C991 0.930 . S
H1020 C1000 0.930 . S
H1021 C1012 0.929 . S
H1022 C1015 0.930 . S
C1023 C1024 1.351 . S
C1023 N1026 1.368 . S
C1023 H1028 0.931 . S
C1024 C1023 1.351 . S
C1024 N1025 1.373 . S
C1024 H1052 0.930 . S
N1025 C1024 1.373 . S
N1025 C1027 1.340 . S
N1026 C1023 1.368 . S
N1026 C1027 1.321 . S
N1026 Co1029 2.135 . S
C1027 N1025 1.340 . S
C1027 N1026 1.321 . S
C1027 H1051 0.930 . S
H1028 C1023 0.931 . S
Co1029 N1026 2.135 . S
Co1029 N1032 2.121 . S
Co1029 O1037 2.055 . S
Co1029 O1040 2.039 . S
Co1029 N1043 2.140 . S
C1030 O1031 1.227 . S
C1030 O1040 1.265 . S
O1031 C1030 1.227 . S
N1032 Co1029 2.121 . S
N1032 C1034 1.375 . S
N1032 C1035 1.313 . S
C1033 C1034 1.338 . S
C1033 N1036 1.377 . S
C1033 H1053 0.930 . S
C1034 N1032 1.375 . S
C1034 C1033 1.338 . S
C1034 H1038 0.931 . S
C1035 N1032 1.313 . S
C1035 N1036 1.344 . S
C1035 H1039 0.930 . S
N1036 C1033 1.377 . S
N1036 C1035 1.344 . S
O1037 Co1029 2.055 . S
O1037 C1041 1.253 . S
H1038 C1034 0.931 . S
H1039 C1035 0.930 . S
O1040 Co1029 2.039 . S
O1040 C1030 1.265 . S
C1041 O1037 1.253 . S
C1041 O1042 1.227 . S
O1042 C1041 1.227 . S
N1043 Co1029 2.140 . S
N1043 C1046 1.346 . S
N1043 C1047 1.345 . S
C1044 C1045 1.387 . S
C1044 C1048 1.391 . S
C1045 C1044 1.387 . S
C1045 C1046 1.369 . S
C1045 H1054 0.929 . S
C1046 N1043 1.346 . S
C1046 C1045 1.369 . S
C1046 H1049 0.928 . S
C1047 N1043 1.345 . S
C1047 C1048 1.371 . S
C1047 H1050 0.931 . S
C1048 C1044 1.391 . S
C1048 C1047 1.371 . S
C1048 H1055 0.930 . S
H1049 C1046 0.928 . S
H1050 C1047 0.931 . S
H1051 C1027 0.930 . S
H1052 C1024 0.930 . S
H1053 C1033 0.930 . S
H1054 C1045 0.929 . S
H1055 C1048 0.930 . S
C1056 C1057 1.387 . S
C1056 H1060 0.950 . S
C1056 C1065 1.390 . S
C1057 C1056 1.387 . S
C1057 C1059 1.387 . S
H1058 C1065 0.950 . S
C1059 C1057 1.387 . S
C1059 C1061 1.390 . S
C1059 H1063 0.950 . S
H1060 C1056 0.950 . S
C1061 C1059 1.390 . S
C1061 C1062 1.387 . S
C1061 H1064 0.950 . S
C1062 C1061 1.387 . S
C1062 C1065 1.387 . S
H1063 C1059 0.950 . S
H1064 C1061 0.950 . S
C1065 C1056 1.390 . S
C1065 H1058 0.950 . S
C1065 C1062 1.387 . S
C1066 C1067 1.387 . S
C1066 H1070 0.950 . S
C1066 C1075 1.390 . S
C1067 C1066 1.387 . S
C1067 C1069 1.387 1_545 S
H1068 C1075 0.950 . S
C1069 C1067 1.387 1_565 S
C1069 C1071 1.390 . S
C1069 H1073 0.950 . S
H1070 C1066 0.950 . S
C1071 C1069 1.390 . S
C1071 C1072 1.387 1_565 S
C1071 H1074 0.950 . S
C1072 C1071 1.387 1_545 S
C1072 C1075 1.387 . S
H1073 C1069 0.950 . S
H1074 C1071 0.950 . S
C1075 C1066 1.390 . S
C1075 H1068 0.950 . S
C1075 C1072 1.387 . S
C1076 C1077 1.387 . S
C1076 H1080 0.950 . S
C1076 C1085 1.390 . S
C1077 C1076 1.387 . S
C1077 C1079 1.387 . S
H1078 C1085 0.950 . S
C1079 C1077 1.387 . S
C1079 C1081 1.390 . S
C1079 H1083 0.950 . S
H1080 C1076 0.950 . S
C1081 C1079 1.390 . S
C1081 C1082 1.387 . S
C1081 H1084 0.950 . S
C1082 C1081 1.387 . S
C1082 C1085 1.387 . S
H1083 C1079 0.950 . S
H1084 C1081 0.950 . S
C1085 C1076 1.390 . S
C1085 H1078 0.950 . S
C1085 C1082 1.387 . S
C1086 C1087 1.387 . S
C1086 H1090 0.950 . S
C1086 C1095 1.390 . S
C1087 C1086 1.387 . S
C1087 C1089 1.387 1_565 S
H1088 C1095 0.950 . S
C1089 C1087 1.387 1_545 S
C1089 C1091 1.390 . S
C1089 H1093 0.950 . S
H1090 C1086 0.950 . S
C1091 C1089 1.390 . S
C1091 C1092 1.387 1_545 S
C1091 H1094 0.950 . S
C1092 C1091 1.387 1_565 S
C1092 C1095 1.387 . S
H1093 C1089 0.950 . S
H1094 C1091 0.950 . S
C1095 C1086 1.390 . S
C1095 H1088 0.950 . S
C1095 C1092 1.387 . S
C1096 C1097 1.387 . S
C1096 H1100 0.950 . S
C1096 C1105 1.390 . S
C1097 C1096 1.387 . S
C1097 C1099 1.387 . S
H1098 C1105 0.950 . S
C1099 C1097 1.387 . S
C1099 C1101 1.390 . S
C1099 H1103 0.950 . S
H1100 C1096 0.950 . S
C1101 C1099 1.390 . S
C1101 C1102 1.387 . S
C1101 H1104 0.950 . S
C1102 C1101 1.387 . S
C1102 C1105 1.387 . S
H1103 C1099 0.950 . S
H1104 C1101 0.950 . S
C1105 C1096 1.390 . S
C1105 H1098 0.950 . S
C1105 C1102 1.387 . S
C1106 C1107 1.387 . S
C1106 H1110 0.950 . S
C1106 C1115 1.390 . S
C1107 C1106 1.387 . S
C1107 C1109 1.387 . S
H1108 C1115 0.950 . S
C1109 C1107 1.387 . S
C1109 C1111 1.390 . S
C1109 H1113 0.950 . S
H1110 C1106 0.950 . S
C1111 C1109 1.390 . S
C1111 C1112 1.387 . S
C1111 H1114 0.950 . S
C1112 C1111 1.387 . S
C1112 C1115 1.387 . S
H1113 C1109 0.950 . S
H1114 C1111 0.950 . S
C1115 C1106 1.390 . S
C1115 H1108 0.950 . S
C1115 C1112 1.387 . S
C1116 C1117 1.387 . S
C1116 H1120 0.950 . S
C1116 C1125 1.390 . S
C1117 C1116 1.387 . S
C1117 C1119 1.387 . S
H1118 C1125 0.950 . S
C1119 C1117 1.387 . S
C1119 C1121 1.390 . S
C1119 H1123 0.950 . S
H1120 C1116 0.950 . S
C1121 C1119 1.390 . S
C1121 C1122 1.387 . S
C1121 H1124 0.950 . S
C1122 C1121 1.387 . S
C1122 C1125 1.387 . S
H1123 C1119 0.950 . S
H1124 C1121 0.950 . S
C1125 C1116 1.390 . S
C1125 H1118 0.950 . S
C1125 C1122 1.387 . S
C1126 C1127 1.387 . S
C1126 H1130 0.950 . S
C1126 C1135 1.390 . S
C1127 C1126 1.387 . S
C1127 C1129 1.387 1_565 S
H1128 C1135 0.950 . S
C1129 C1127 1.387 1_545 S
C1129 C1131 1.390 . S
C1129 H1133 0.950 . S
H1130 C1126 0.950 . S
C1131 C1129 1.390 . S
C1131 C1132 1.387 1_545 S
C1131 H1134 0.950 . S
C1132 C1131 1.387 1_565 S
C1132 C1135 1.387 . S
H1133 C1129 0.950 . S
H1134 C1131 0.950 . S
C1135 C1126 1.390 . S
C1135 H1128 0.950 . S
C1135 C1132 1.387 . S
C1136 C1137 1.387 . S
C1136 H1140 0.950 . S
C1136 C1145 1.390 . S
C1137 C1136 1.387 . S
C1137 C1139 1.387 . S
H1138 C1145 0.950 . S
C1139 C1137 1.387 . S
C1139 C1141 1.390 . S
C1139 H1143 0.950 . S
H1140 C1136 0.950 . S
C1141 C1139 1.390 . S
C1141 C1142 1.387 . S
C1141 H1144 0.950 . S
C1142 C1141 1.387 . S
C1142 C1145 1.387 . S
H1143 C1139 0.950 . S
H1144 C1141 0.950 . S
C1145 C1136 1.390 . S
C1145 H1138 0.950 . S
C1145 C1142 1.387 . S
C1146 C1147 1.387 1_545 S
C1146 H1150 0.950 . S
C1146 C1155 1.390 . S
C1147 C1146 1.387 1_565 S
C1147 C1149 1.387 . S
H1148 C1155 0.950 . S
C1149 C1147 1.387 . S
C1149 C1151 1.390 . S
C1149 H1153 0.950 . S
H1150 C1146 0.950 . S
C1151 C1149 1.390 . S
C1151 C1152 1.387 . S
C1151 H1154 0.950 . S
C1152 C1151 1.387 . S
C1152 C1155 1.387 1_565 S
H1153 C1149 0.950 . S
H1154 C1151 0.950 . S
C1155 C1146 1.390 . S
C1155 H1148 0.950 . S
C1155 C1152 1.387 1_545 S
C1156 C1157 1.387 . S
C1156 H1160 0.950 . S
C1156 C1165 1.390 . S
C1157 C1156 1.387 . S
C1157 C1159 1.387 . S
H1158 C1165 0.950 . S
C1159 C1157 1.387 . S
C1159 C1161 1.390 . S
C1159 H1163 0.950 . S
H1160 C1156 0.950 . S
C1161 C1159 1.390 . S
C1161 C1162 1.387 . S
C1161 H1164 0.950 . S
C1162 C1161 1.387 . S
C1162 C1165 1.387 . S
H1163 C1159 0.950 . S
H1164 C1161 0.950 . S
C1165 C1156 1.390 . S
C1165 H1158 0.950 . S
C1165 C1162 1.387 . S
C1166 C1167 1.387 1_565 S
C1166 H1170 0.950 . S
C1166 C1175 1.390 . S
C1167 C1166 1.387 1_545 S
C1167 C1169 1.387 . S
H1168 C1175 0.950 . S
C1169 C1167 1.387 . S
C1169 C1171 1.390 . S
C1169 H1173 0.950 . S
H1170 C1166 0.950 . S
C1171 C1169 1.390 . S
C1171 C1172 1.387 . S
C1171 H1174 0.950 . S
C1172 C1171 1.387 . S
C1172 C1175 1.387 1_545 S
H1173 C1169 0.950 . S
H1174 C1171 0.950 . S
C1175 C1166 1.390 . S
C1175 H1168 0.950 . S
C1175 C1172 1.387 1_565 S
C1176 C1177 1.387 . S
C1176 H1180 0.950 . S
C1176 C1185 1.390 . S
C1177 C1176 1.387 . S
C1177 C1179 1.387 . S
H1178 C1185 0.950 . S
C1179 C1177 1.387 . S
C1179 C1181 1.390 . S
C1179 H1183 0.950 . S
H1180 C1176 0.950 . S
C1181 C1179 1.390 . S
C1181 C1182 1.387 . S
C1181 H1184 0.950 . S
C1182 C1181 1.387 . S
C1182 C1185 1.387 . S
H1183 C1179 0.950 . S
H1184 C1181 0.950 . S
C1185 C1176 1.390 . S
C1185 H1178 0.950 . S
C1185 C1182 1.387 . S
C1186 C1187 1.387 1_545 S
C1186 H1190 0.950 . S
C1186 C1195 1.390 . S
C1187 C1186 1.387 1_565 S
C1187 C1189 1.387 . S
H1188 C1195 0.950 . S
C1189 C1187 1.387 . S
C1189 C1191 1.390 . S
C1189 H1193 0.950 . S
H1190 C1186 0.950 . S
C1191 C1189 1.390 . S
C1191 C1192 1.387 . S
C1191 H1194 0.950 . S
C1192 C1191 1.387 . S
C1192 C1195 1.387 1_565 S
H1193 C1189 0.950 . S
H1194 C1191 0.950 . S
C1195 C1186 1.390 . S
C1195 H1188 0.950 . S
C1195 C1192 1.387 1_545 S
C1196 C1197 1.387 . S
C1196 H1200 0.950 . S
C1196 C1205 1.390 . S
C1197 C1196 1.387 . S
C1197 C1199 1.387 . S
H1198 C1205 0.950 . S
C1199 C1197 1.387 . S
C1199 C1201 1.390 . S
C1199 H1203 0.950 . S
H1200 C1196 0.950 . S
C1201 C1199 1.390 . S
C1201 C1202 1.387 . S
C1201 H1204 0.950 . S
C1202 C1201 1.387 . S
C1202 C1205 1.387 . S
H1203 C1199 0.950 . S
H1204 C1201 0.950 . S
C1205 C1196 1.390 . S
C1205 H1198 0.950 . S
C1205 C1202 1.387 . S
C1206 C1207 1.387 . S
C1206 H1210 0.950 1_545 S
C1206 C1215 1.390 . S
C1207 C1206 1.387 . S
C1207 C1209 1.387 . S
H1208 C1215 0.950 1_565 S
C1209 C1207 1.387 . S
C1209 C1211 1.390 . S
C1209 H1213 0.950 . S
H1210 C1206 0.950 1_565 S
C1211 C1209 1.390 . S
C1211 C1212 1.387 . S
C1211 H1214 0.950 . S
C1212 C1211 1.387 . S
C1212 C1215 1.387 . S
H1213 C1209 0.950 . S
H1214 C1211 0.950 . S
C1215 C1206 1.390 . S
C1215 H1208 0.950 1_545 S
C1215 C1212 1.387 . S
C1216 C1217 1.387 . S
C1216 H1220 0.950 . S
C1216 C1225 1.390 . S
C1217 C1216 1.387 . S
C1217 C1219 1.387 . S
H1218 C1225 0.950 . S
C1219 C1217 1.387 . S
C1219 C1221 1.390 . S
C1219 H1223 0.950 . S
H1220 C1216 0.950 . S
C1221 C1219 1.390 . S
C1221 C1222 1.387 . S
C1221 H1224 0.950 . S
C1222 C1221 1.387 . S
C1222 C1225 1.387 . S
H1223 C1219 0.950 . S
H1224 C1221 0.950 . S
C1225 C1216 1.390 . S
C1225 H1218 0.950 . S
C1225 C1222 1.387 . S
C1226 C1227 1.387 . S
C1226 H1230 0.950 . S
C1226 C1235 1.390 . S
C1227 C1226 1.387 . S
C1227 C1229 1.387 . S
H1228 C1235 0.950 . S
C1229 C1227 1.387 . S
C1229 C1231 1.390 . S
C1229 H1233 0.950 . S
H1230 C1226 0.950 . S
C1231 C1229 1.390 . S
C1231 C1232 1.387 . S
C1231 H1234 0.950 . S
C1232 C1231 1.387 . S
C1232 C1235 1.387 . S
H1233 C1229 0.950 . S
H1234 C1231 0.950 . S
C1235 C1226 1.390 . S
C1235 H1228 0.950 . S
C1235 C1232 1.387 . S
C1236 C1237 1.387 . S
C1236 H1240 0.950 . S
C1236 C1245 1.390 . S
C1237 C1236 1.387 . S
C1237 C1239 1.387 . S
H1238 C1245 0.950 . S
C1239 C1237 1.387 . S
C1239 C1241 1.390 . S
C1239 H1243 0.950 . S
H1240 C1236 0.950 . S
C1241 C1239 1.390 . S
C1241 C1242 1.387 . S
C1241 H1244 0.950 . S
C1242 C1241 1.387 . S
C1242 C1245 1.387 . S
H1243 C1239 0.950 . S
H1244 C1241 0.950 . S
C1245 C1236 1.390 . S
C1245 H1238 0.950 . S
C1245 C1242 1.387 . S
C1246 C1247 1.387 . S
C1246 H1250 0.950 . S
C1246 C1255 1.390 . S
C1247 C1246 1.387 . S
C1247 C1249 1.387 . S
H1248 C1255 0.950 . S
C1249 C1247 1.387 . S
C1249 C1251 1.390 . S
C1249 H1253 0.950 . S
H1250 C1246 0.950 . S
C1251 C1249 1.390 . S
C1251 C1252 1.387 . S
C1251 H1254 0.950 . S
C1252 C1251 1.387 . S
C1252 C1255 1.387 . S
H1253 C1249 0.950 . S
H1254 C1251 0.950 . S
C1255 C1246 1.390 . S
C1255 H1248 0.950 . S
C1255 C1252 1.387 . S
C1256 C1257 1.387 . S
C1256 H1260 0.950 . S
C1256 C1265 1.390 . S
C1257 C1256 1.387 . S
C1257 C1259 1.387 . S
H1258 C1265 0.950 . S
C1259 C1257 1.387 . S
C1259 C1261 1.390 . S
C1259 H1263 0.950 . S
H1260 C1256 0.950 . S
C1261 C1259 1.390 . S
C1261 C1262 1.387 . S
C1261 H1264 0.950 . S
C1262 C1261 1.387 . S
C1262 C1265 1.387 . S
H1263 C1259 0.950 . S
H1264 C1261 0.950 . S
C1265 C1256 1.390 . S
C1265 H1258 0.950 . S
C1265 C1262 1.387 . S
C1266 C1267 1.387 . S
C1266 H1270 0.950 . S
C1266 C1275 1.390 . S
C1267 C1266 1.387 . S
C1267 C1269 1.387 . S
H1268 C1275 0.950 . S
C1269 C1267 1.387 . S
C1269 C1271 1.390 . S
C1269 H1273 0.950 . S
H1270 C1266 0.950 . S
C1271 C1269 1.390 . S
C1271 C1272 1.387 . S
C1271 H1274 0.950 . S
C1272 C1271 1.387 . S
C1272 C1275 1.387 . S
H1273 C1269 0.950 . S
H1274 C1271 0.950 . S
C1275 C1266 1.390 . S
C1275 H1268 0.950 . S
C1275 C1272 1.387 . S
C1276 C1277 1.387 . S
C1276 H1280 0.950 . S
C1276 C1285 1.390 . S
C1277 C1276 1.387 . S
C1277 C1279 1.387 . S
H1278 C1285 0.950 . S
C1279 C1277 1.387 . S
C1279 C1281 1.390 . S
C1279 H1283 0.950 . S
H1280 C1276 0.950 . S
C1281 C1279 1.390 . S
C1281 C1282 1.387 . S
C1281 H1284 0.950 . S
C1282 C1281 1.387 . S
C1282 C1285 1.387 . S
H1283 C1279 0.950 . S
H1284 C1281 0.950 . S
C1285 C1276 1.390 . S
C1285 H1278 0.950 . S
C1285 C1282 1.387 . S
C1286 C1287 1.387 . S
C1286 H1290 0.950 . S
C1286 C1295 1.390 . S
C1287 C1286 1.387 . S
C1287 C1289 1.387 . S
H1288 C1295 0.950 . S
C1289 C1287 1.387 . S
C1289 C1291 1.390 . S
C1289 H1293 0.950 . S
H1290 C1286 0.950 . S
C1291 C1289 1.390 . S
C1291 C1292 1.387 . S
C1291 H1294 0.950 . S
C1292 C1291 1.387 . S
C1292 C1295 1.387 . S
H1293 C1289 0.950 . S
H1294 C1291 0.950 . S
C1295 C1286 1.390 . S
C1295 H1288 0.950 . S
C1295 C1292 1.387 . S
C1296 C1297 1.387 . S
C1296 H1300 0.950 . S
C1296 C1305 1.390 . S
C1297 C1296 1.387 . S
C1297 C1299 1.387 . S
H1298 C1305 0.950 . S
C1299 C1297 1.387 . S
C1299 C1301 1.390 . S
C1299 H1303 0.950 . S
H1300 C1296 0.950 . S
C1301 C1299 1.390 . S
C1301 C1302 1.387 . S
C1301 H1304 0.950 . S
C1302 C1301 1.387 . S
C1302 C1305 1.387 . S
H1303 C1299 0.950 . S
H1304 C1301 0.950 . S
C1305 C1296 1.390 . S
C1305 H1298 0.950 . S
C1305 C1302 1.387 . S
C1306 C1307 1.387 . S
C1306 H1310 0.950 . S
C1306 C1315 1.390 . S
C1307 C1306 1.387 . S
C1307 C1309 1.387 . S
H1308 C1315 0.950 . S
C1309 C1307 1.387 . S
C1309 C1311 1.390 . S
C1309 H1313 0.950 . S
H1310 C1306 0.950 . S
C1311 C1309 1.390 . S
C1311 C1312 1.387 . S
C1311 H1314 0.950 . S
C1312 C1311 1.387 . S
C1312 C1315 1.387 . S
H1313 C1309 0.950 . S
H1314 C1311 0.950 . S
C1315 C1306 1.390 . S
C1315 H1308 0.950 . S
C1315 C1312 1.387 . S
C1316 C1317 1.387 . S
C1316 H1320 0.950 . S
C1316 C1325 1.390 . S
C1317 C1316 1.387 . S
C1317 C1319 1.387 . S
H1318 C1325 0.950 . S
C1319 C1317 1.387 . S
C1319 C1321 1.390 . S
C1319 H1323 0.950 . S
H1320 C1316 0.950 . S
C1321 C1319 1.390 . S
C1321 C1322 1.387 . S
C1321 H1324 0.950 . S
C1322 C1321 1.387 . S
C1322 C1325 1.387 . S
H1323 C1319 0.950 . S
H1324 C1321 0.950 . S
C1325 C1316 1.390 . S
C1325 H1318 0.950 . S
C1325 C1322 1.387 . S
C1326 C1327 1.387 . S
C1326 H1330 0.950 . S
C1326 C1335 1.390 . S
C1327 C1326 1.387 . S
C1327 C1329 1.387 . S
H1328 C1335 0.950 . S
C1329 C1327 1.387 . S
C1329 C1331 1.390 . S
C1329 H1333 0.950 . S
H1330 C1326 0.950 . S
C1331 C1329 1.390 . S
C1331 C1332 1.387 . S
C1331 H1334 0.950 . S
C1332 C1331 1.387 . S
C1332 C1335 1.387 . S
H1333 C1329 0.950 . S
H1334 C1331 0.950 . S
C1335 C1326 1.390 . S
C1335 H1328 0.950 . S
C1335 C1332 1.387 . S
C1336 C1337 1.387 . S
C1336 H1340 0.950 . S
C1336 C1345 1.390 . S
C1337 C1336 1.387 . S
C1337 C1339 1.387 . S
H1338 C1345 0.950 . S
C1339 C1337 1.387 . S
C1339 C1341 1.390 . S
C1339 H1343 0.950 . S
H1340 C1336 0.950 . S
C1341 C1339 1.390 . S
C1341 C1342 1.387 . S
C1341 H1344 0.950 . S
C1342 C1341 1.387 . S
C1342 C1345 1.387 . S
H1343 C1339 0.950 . S
H1344 C1341 0.950 . S
C1345 C1336 1.390 . S
C1345 H1338 0.950 . S
C1345 C1342 1.387 . S
C1346 C1347 1.387 . S
C1346 H1350 0.950 . S
C1346 C1355 1.390 . S
C1347 C1346 1.387 . S
C1347 C1349 1.387 . S
H1348 C1355 0.950 . S
C1349 C1347 1.387 . S
C1349 C1351 1.390 . S
C1349 H1353 0.950 . S
H1350 C1346 0.950 . S
C1351 C1349 1.390 . S
C1351 C1352 1.387 . S
C1351 H1354 0.950 . S
C1352 C1351 1.387 . S
C1352 C1355 1.387 . S
H1353 C1349 0.950 . S
H1354 C1351 0.950 . S
C1355 C1346 1.390 . S
C1355 H1348 0.950 . S
C1355 C1352 1.387 . S
C1356 C1357 1.387 . S
C1356 H1360 0.950 . S
C1356 C1365 1.390 . S
C1357 C1356 1.387 . S
C1357 C1359 1.387 . S
H1358 C1365 0.950 . S
C1359 C1357 1.387 . S
C1359 C1361 1.390 . S
C1359 H1363 0.950 . S
H1360 C1356 0.950 . S
C1361 C1359 1.390 . S
C1361 C1362 1.387 . S
C1361 H1364 0.950 . S
C1362 C1361 1.387 . S
C1362 C1365 1.387 . S
H1363 C1359 0.950 . S
H1364 C1361 0.950 . S
C1365 C1356 1.390 . S
C1365 H1358 0.950 . S
C1365 C1362 1.387 . S
C1366 C1367 1.387 . S
C1366 H1370 0.950 . S
C1366 C1375 1.390 . S
C1367 C1366 1.387 . S
C1367 C1369 1.387 . S
H1368 C1375 0.950 . S
C1369 C1367 1.387 . S
C1369 C1371 1.390 . S
C1369 H1373 0.950 . S
H1370 C1366 0.950 . S
C1371 C1369 1.390 . S
C1371 C1372 1.387 . S
C1371 H1374 0.950 . S
C1372 C1371 1.387 . S
C1372 C1375 1.387 . S
H1373 C1369 0.950 . S
H1374 C1371 0.950 . S
C1375 C1366 1.390 . S
C1375 H1368 0.950 . S
C1375 C1372 1.387 . S
C1376 C1377 1.387 . S
C1376 H1380 0.950 . S
C1376 C1385 1.390 . S
C1377 C1376 1.387 . S
C1377 C1379 1.387 . S
H1378 C1385 0.950 . S
C1379 C1377 1.387 . S
C1379 C1381 1.390 . S
C1379 H1383 0.950 . S
H1380 C1376 0.950 . S
C1381 C1379 1.390 . S
C1381 C1382 1.387 . S
C1381 H1384 0.950 . S
C1382 C1381 1.387 . S
C1382 C1385 1.387 . S
H1383 C1379 0.950 . S
H1384 C1381 0.950 . S
C1385 C1376 1.390 . S
C1385 H1378 0.950 . S
C1385 C1382 1.387 . S
C1386 C1387 1.387 . S
C1386 H1390 0.950 . S
C1386 C1395 1.390 1_455 S
C1387 C1386 1.387 . S
C1387 C1389 1.387 . S
H1388 C1395 0.950 . S
C1389 C1387 1.387 . S
C1389 C1391 1.390 1_455 S
C1389 H1393 0.950 . S
H1390 C1386 0.950 . S
C1391 C1389 1.390 1_655 S
C1391 C1392 1.387 . S
C1391 H1394 0.950 . S
C1392 C1391 1.387 . S
C1392 C1395 1.387 . S
H1393 C1389 0.950 . S
H1394 C1391 0.950 . S
C1395 C1386 1.390 1_655 S
C1395 H1388 0.950 . S
C1395 C1392 1.387 . S
C1396 C1397 1.387 . S
C1396 H1400 0.950 . S
C1396 C1405 1.390 1_455 S
C1397 C1396 1.387 . S
C1397 C1399 1.387 . S
H1398 C1405 0.950 . S
C1399 C1397 1.387 . S
C1399 C1401 1.390 1_455 S
C1399 H1403 0.950 . S
H1400 C1396 0.950 . S
C1401 C1399 1.390 1_655 S
C1401 C1402 1.387 . S
C1401 H1404 0.950 . S
C1402 C1401 1.387 . S
C1402 C1405 1.387 . S
H1403 C1399 0.950 . S
H1404 C1401 0.950 . S
C1405 C1396 1.390 1_655 S
C1405 H1398 0.950 . S
C1405 C1402 1.387 . S
C1406 C1407 1.387 . S
C1406 H1410 0.950 . S
C1406 C1415 1.390 . S
C1407 C1406 1.387 . S
C1407 C1409 1.387 . S
H1408 C1415 0.950 . S
C1409 C1407 1.387 . S
C1409 C1411 1.390 . S
C1409 H1413 0.950 . S
H1410 C1406 0.950 . S
C1411 C1409 1.390 . S
C1411 C1412 1.387 . S
C1411 H1414 0.950 . S
C1412 C1411 1.387 . S
C1412 C1415 1.387 . S
H1413 C1409 0.950 . S
H1414 C1411 0.950 . S
C1415 C1406 1.390 . S
C1415 H1408 0.950 . S
C1415 C1412 1.387 . S
C1416 C1417 1.387 . S
C1416 H1420 0.950 . S
C1416 C1425 1.390 . S
C1417 C1416 1.387 . S
C1417 C1419 1.387 . S
H1418 C1425 0.950 . S
C1419 C1417 1.387 . S
C1419 C1421 1.390 . S
C1419 H1423 0.950 . S
H1420 C1416 0.950 . S
C1421 C1419 1.390 . S
C1421 C1422 1.387 . S
C1421 H1424 0.950 . S
C1422 C1421 1.387 . S
C1422 C1425 1.387 . S
H1423 C1419 0.950 . S
H1424 C1421 0.950 . S
C1425 C1416 1.390 . S
C1425 H1418 0.950 . S
C1425 C1422 1.387 . S
C1426 C1427 1.387 . S
C1426 H1430 0.950 . S
C1426 C1435 1.390 . S
C1427 C1426 1.387 . S
C1427 C1429 1.387 . S
H1428 C1435 0.950 . S
C1429 C1427 1.387 . S
C1429 C1431 1.390 . S
C1429 H1433 0.950 . S
H1430 C1426 0.950 . S
C1431 C1429 1.390 . S
C1431 C1432 1.387 . S
C1431 H1434 0.950 . S
C1432 C1431 1.387 . S
C1432 C1435 1.387 . S
H1433 C1429 0.950 . S
H1434 C1431 0.950 . S
C1435 C1426 1.390 . S
C1435 H1428 0.950 . S
C1435 C1432 1.387 . S
C1436 C1437 1.387 . S
C1436 H1440 0.950 . S
C1436 C1445 1.390 1_655 S
C1437 C1436 1.387 . S
C1437 C1439 1.387 . S
H1438 C1445 0.950 . S
C1439 C1437 1.387 . S
C1439 C1441 1.390 1_655 S
C1439 H1443 0.950 . S
H1440 C1436 0.950 . S
C1441 C1439 1.390 1_455 S
C1441 C1442 1.387 . S
C1441 H1444 0.950 . S
C1442 C1441 1.387 . S
C1442 C1445 1.387 . S
H1443 C1439 0.950 . S
H1444 C1441 0.950 . S
C1445 C1436 1.390 1_455 S
C1445 H1438 0.950 . S
C1445 C1442 1.387 . S
C1446 C1447 1.387 . S
C1446 H1450 0.950 . S
C1446 C1455 1.390 1_655 S
C1447 C1446 1.387 . S
C1447 C1449 1.387 . S
H1448 C1455 0.950 . S
C1449 C1447 1.387 . S
C1449 C1451 1.390 1_655 S
C1449 H1453 0.950 . S
H1450 C1446 0.950 . S
C1451 C1449 1.390 1_455 S
C1451 C1452 1.387 . S
C1451 H1454 0.950 . S
C1452 C1451 1.387 . S
C1452 C1455 1.387 . S
H1453 C1449 0.950 . S
H1454 C1451 0.950 . S
C1455 C1446 1.390 1_455 S
C1455 H1448 0.950 . S
C1455 C1452 1.387 . S
C1456 C1457 1.387 . S
C1456 H1460 0.950 . S
C1456 C1465 1.390 . S
C1457 C1456 1.387 . S
C1457 C1459 1.387 . S
H1458 C1465 0.950 . S
C1459 C1457 1.387 . S
C1459 C1461 1.390 . S
C1459 H1463 0.950 . S
H1460 C1456 0.950 . S
C1461 C1459 1.390 . S
C1461 C1462 1.387 . S
C1461 H1464 0.950 . S
C1462 C1461 1.387 . S
C1462 C1465 1.387 . S
H1463 C1459 0.950 . S
H1464 C1461 0.950 . S
C1465 C1456 1.390 . S
C1465 H1458 0.950 . S
C1465 C1462 1.387 . S
C1466 C1467 1.387 . S
C1466 H1470 0.950 . S
C1466 C1475 1.390 1_655 S
C1467 C1466 1.387 . S
C1467 C1469 1.387 . S
H1468 C1475 0.950 . S
C1469 C1467 1.387 . S
C1469 C1471 1.390 1_655 S
C1469 H1473 0.950 . S
H1470 C1466 0.950 . S
C1471 C1469 1.390 1_455 S
C1471 C1472 1.387 . S
C1471 H1474 0.950 . S
C1472 C1471 1.387 . S
C1472 C1475 1.387 . S
H1473 C1469 0.950 . S
H1474 C1471 0.950 . S
C1475 C1466 1.390 1_455 S
C1475 H1468 0.950 . S
C1475 C1472 1.387 . S
C1476 C1477 1.387 . S
C1476 H1480 0.950 . S
C1476 C1485 1.390 1_655 S
C1477 C1476 1.387 . S
C1477 C1479 1.387 . S
H1478 C1485 0.950 . S
C1479 C1477 1.387 . S
C1479 C1481 1.390 1_655 S
C1479 H1483 0.950 . S
H1480 C1476 0.950 . S
C1481 C1479 1.390 1_455 S
C1481 C1482 1.387 . S
C1481 H1484 0.950 . S
C1482 C1481 1.387 . S
C1482 C1485 1.387 . S
H1483 C1479 0.950 . S
H1484 C1481 0.950 . S
C1485 C1476 1.390 1_455 S
C1485 H1478 0.950 . S
C1485 C1482 1.387 . S
C1486 C1487 1.387 . S
C1486 H1490 0.950 . S
C1486 C1495 1.390 . S
C1487 C1486 1.387 . S
C1487 C1489 1.387 . S
H1488 C1495 0.950 . S
C1489 C1487 1.387 . S
C1489 C1491 1.390 . S
C1489 H1493 0.950 . S
H1490 C1486 0.950 . S
C1491 C1489 1.390 . S
C1491 C1492 1.387 . S
C1491 H1494 0.950 . S
C1492 C1491 1.387 . S
C1492 C1495 1.387 . S
H1493 C1489 0.950 . S
H1494 C1491 0.950 . S
C1495 C1486 1.390 . S
C1495 H1488 0.950 . S
C1495 C1492 1.387 . S
C1496 C1497 1.387 . S
C1496 H1500 0.950 . S
C1496 C1505 1.390 . S
C1497 C1496 1.387 . S
C1497 C1499 1.387 . S
H1498 C1505 0.950 . S
C1499 C1497 1.387 . S
C1499 C1501 1.390 . S
C1499 H1503 0.950 . S
H1500 C1496 0.950 . S
C1501 C1499 1.390 . S
C1501 C1502 1.387 . S
C1501 H1504 0.950 . S
C1502 C1501 1.387 . S
C1502 C1505 1.387 . S
H1503 C1499 0.950 . S
H1504 C1501 0.950 . S
C1505 C1496 1.390 . S
C1505 H1498 0.950 . S
C1505 C1502 1.387 . S
C1506 C1507 1.387 . S
C1506 H1510 0.950 . S
C1506 C1515 1.390 . S
C1507 C1506 1.387 . S
C1507 C1509 1.387 . S
H1508 C1515 0.950 . S
C1509 C1507 1.387 . S
C1509 C1511 1.390 . S
C1509 H1513 0.950 . S
H1510 C1506 0.950 . S
C1511 C1509 1.390 . S
C1511 C1512 1.387 . S
C1511 H1514 0.950 . S
C1512 C1511 1.387 . S
C1512 C1515 1.387 . S
H1513 C1509 0.950 . S
H1514 C1511 0.950 . S
C1515 C1506 1.390 . S
C1515 H1508 0.950 . S
C1515 C1512 1.387 . S
C1516 C1517 1.387 . S
C1516 H1520 0.950 . S
C1516 C1525 1.390 1_655 S
C1517 C1516 1.387 . S
C1517 C1519 1.387 . S
H1518 C1525 0.950 . S
C1519 C1517 1.387 . S
C1519 C1521 1.390 1_655 S
C1519 H1523 0.950 . S
H1520 C1516 0.950 . S
C1521 C1519 1.390 1_455 S
C1521 C1522 1.387 . S
C1521 H1524 0.950 . S
C1522 C1521 1.387 . S
C1522 C1525 1.387 . S
H1523 C1519 0.950 . S
H1524 C1521 0.950 . S
C1525 C1516 1.390 1_455 S
C1525 H1518 0.950 . S
C1525 C1522 1.387 . S
C1526 C1527 1.387 . S
C1526 H1530 0.950 . S
C1526 C1535 1.390 1_455 S
C1527 C1526 1.387 . S
C1527 C1529 1.387 . S
H1528 C1535 0.950 . S
C1529 C1527 1.387 . S
C1529 C1531 1.390 1_455 S
C1529 H1533 0.950 . S
H1530 C1526 0.950 . S
C1531 C1529 1.390 1_655 S
C1531 C1532 1.387 . S
C1531 H1534 0.950 . S
C1532 C1531 1.387 . S
C1532 C1535 1.387 . S
H1533 C1529 0.950 . S
H1534 C1531 0.950 . S
C1535 C1526 1.390 1_655 S
C1535 H1528 0.950 . S
C1535 C1532 1.387 . S
C1536 C1537 1.387 . S
C1536 H1540 0.950 . S
C1536 C1545 1.390 . S
C1537 C1536 1.387 . S
C1537 C1539 1.387 . S
H1538 C1545 0.950 . S
C1539 C1537 1.387 . S
C1539 C1541 1.390 . S
C1539 H1543 0.950 . S
H1540 C1536 0.950 . S
C1541 C1539 1.390 . S
C1541 C1542 1.387 . S
C1541 H1544 0.950 . S
C1542 C1541 1.387 . S
C1542 C1545 1.387 . S
H1543 C1539 0.950 . S
H1544 C1541 0.950 . S
C1545 C1536 1.390 . S
C1545 H1538 0.950 . S
C1545 C1542 1.387 . S
C1546 C1547 1.387 . S
C1546 H1550 0.950 . S
C1546 C1555 1.390 . S
C1547 C1546 1.387 . S
C1547 C1549 1.387 . S
H1548 C1555 0.950 . S
C1549 C1547 1.387 . S
C1549 C1551 1.390 . S
C1549 H1553 0.950 . S
H1550 C1546 0.950 . S
C1551 C1549 1.390 . S
C1551 C1552 1.387 . S
C1551 H1554 0.950 . S
C1552 C1551 1.387 . S
C1552 C1555 1.387 . S
H1553 C1549 0.950 . S
H1554 C1551 0.950 . S
C1555 C1546 1.390 . S
C1555 H1548 0.950 . S
C1555 C1552 1.387 . S
C1556 C1557 1.387 . S
C1556 H1560 0.950 . S
C1556 C1565 1.390 . S
C1557 C1556 1.387 . S
C1557 C1559 1.387 . S
H1558 C1565 0.950 . S
C1559 C1557 1.387 . S
C1559 C1561 1.390 . S
C1559 H1563 0.950 . S
H1560 C1556 0.950 . S
C1561 C1559 1.390 . S
C1561 C1562 1.387 . S
C1561 H1564 0.950 . S
C1562 C1561 1.387 . S
C1562 C1565 1.387 . S
H1563 C1559 0.950 . S
H1564 C1561 0.950 . S
C1565 C1556 1.390 . S
C1565 H1558 0.950 . S
C1565 C1562 1.387 . S
C1566 C1567 1.387 . S
C1566 H1570 0.950 . S
C1566 C1575 1.390 . S
C1567 C1566 1.387 . S
C1567 C1569 1.387 . S
H1568 C1575 0.950 . S
C1569 C1567 1.387 . S
C1569 C1571 1.390 . S
C1569 H1573 0.950 . S
H1570 C1566 0.950 . S
C1571 C1569 1.390 . S
C1571 C1572 1.387 . S
C1571 H1574 0.950 . S
C1572 C1571 1.387 . S
C1572 C1575 1.387 . S
H1573 C1569 0.950 . S
H1574 C1571 0.950 . S
C1575 C1566 1.390 . S
C1575 H1568 0.950 . S
C1575 C1572 1.387 . S
C1576 C1577 1.387 . S
C1576 H1580 0.950 . S
C1576 C1585 1.390 . S
C1577 C1576 1.387 . S
C1577 C1579 1.387 . S
H1578 C1585 0.950 . S
C1579 C1577 1.387 . S
C1579 C1581 1.390 . S
C1579 H1583 0.950 . S
H1580 C1576 0.950 . S
C1581 C1579 1.390 . S
C1581 C1582 1.387 . S
C1581 H1584 0.950 . S
C1582 C1581 1.387 . S
C1582 C1585 1.387 . S
H1583 C1579 0.950 . S
H1584 C1581 0.950 . S
C1585 C1576 1.390 . S
C1585 H1578 0.950 . S
C1585 C1582 1.387 . S
C1586 C1587 1.387 . S
C1586 H1590 0.950 . S
C1586 C1595 1.390 . S
C1587 C1586 1.387 . S
C1587 C1589 1.387 . S
H1588 C1595 0.950 . S
C1589 C1587 1.387 . S
C1589 C1591 1.390 . S
C1589 H1593 0.950 . S
H1590 C1586 0.950 . S
C1591 C1589 1.390 . S
C1591 C1592 1.387 . S
C1591 H1594 0.950 . S
C1592 C1591 1.387 . S
C1592 C1595 1.387 . S
H1593 C1589 0.950 . S
H1594 C1591 0.950 . S
C1595 C1586 1.390 . S
C1595 H1588 0.950 . S
C1595 C1592 1.387 . S
C1596 C1597 1.387 . S
C1596 H1600 0.950 . S
C1596 C1605 1.390 . S
C1597 C1596 1.387 . S
C1597 C1599 1.387 . S
H1598 C1605 0.950 . S
C1599 C1597 1.387 . S
C1599 C1601 1.390 . S
C1599 H1603 0.950 . S
H1600 C1596 0.950 . S
C1601 C1599 1.390 . S
C1601 C1602 1.387 . S
C1601 H1604 0.950 . S
C1602 C1601 1.387 . S
C1602 C1605 1.387 . S
H1603 C1599 0.950 . S
H1604 C1601 0.950 . S
C1605 C1596 1.390 . S
C1605 H1598 0.950 . S
C1605 C1602 1.387 . S
C1606 C1607 1.387 . S
C1606 H1610 0.950 . S
C1606 C1615 1.390 . S
C1607 C1606 1.387 . S
C1607 C1609 1.387 . S
H1608 C1615 0.950 . S
C1609 C1607 1.387 . S
C1609 C1611 1.390 . S
C1609 H1613 0.950 . S
H1610 C1606 0.950 . S
C1611 C1609 1.390 . S
C1611 C1612 1.387 . S
C1611 H1614 0.950 . S
C1612 C1611 1.387 . S
C1612 C1615 1.387 . S
H1613 C1609 0.950 . S
H1614 C1611 0.950 . S
C1615 C1606 1.390 . S
C1615 H1608 0.950 . S
C1615 C1612 1.387 . S
C1616 C1617 1.387 . S
C1616 H1620 0.950 . S
C1616 C1625 1.390 . S
C1617 C1616 1.387 . S
C1617 C1619 1.387 . S
H1618 C1625 0.950 . S
C1619 C1617 1.387 . S
C1619 C1621 1.390 . S
C1619 H1623 0.950 . S
H1620 C1616 0.950 . S
C1621 C1619 1.390 . S
C1621 C1622 1.387 . S
C1621 H1624 0.950 . S
C1622 C1621 1.387 . S
C1622 C1625 1.387 . S
H1623 C1619 0.950 . S
H1624 C1621 0.950 . S
C1625 C1616 1.390 . S
C1625 H1618 0.950 . S
C1625 C1622 1.387 . S
C1626 C1627 1.387 . S
C1626 H1630 0.950 . S
C1626 C1635 1.390 . S
C1627 C1626 1.387 . S
C1627 C1629 1.387 . S
H1628 C1635 0.950 . S
C1629 C1627 1.387 . S
C1629 C1631 1.390 . S
C1629 H1633 0.950 . S
H1630 C1626 0.950 . S
C1631 C1629 1.390 . S
C1631 C1632 1.387 . S
C1631 H1634 0.950 . S
C1632 C1631 1.387 . S
C1632 C1635 1.387 . S
H1633 C1629 0.950 . S
H1634 C1631 0.950 . S
C1635 C1626 1.390 . S
C1635 H1628 0.950 . S
C1635 C1632 1.387 . S
C1636 C1637 1.387 . S
C1636 H1640 0.950 . S
C1636 C1645 1.390 . S
C1637 C1636 1.387 . S
C1637 C1639 1.387 . S
H1638 C1645 0.950 . S
C1639 C1637 1.387 . S
C1639 C1641 1.390 . S
C1639 H1643 0.950 . S
H1640 C1636 0.950 . S
C1641 C1639 1.390 . S
C1641 C1642 1.387 . S
C1641 H1644 0.950 . S
C1642 C1641 1.387 . S
C1642 C1645 1.387 . S
H1643 C1639 0.950 . S
H1644 C1641 0.950 . S
C1645 C1636 1.390 . S
C1645 H1638 0.950 . S
C1645 C1642 1.387 . S
C1646 C1647 1.387 . S
C1646 H1650 0.950 . S
C1646 C1655 1.390 . S
C1647 C1646 1.387 . S
C1647 C1649 1.387 . S
H1648 C1655 0.950 . S
C1649 C1647 1.387 . S
C1649 C1651 1.390 . S
C1649 H1653 0.950 . S
H1650 C1646 0.950 . S
C1651 C1649 1.390 . S
C1651 C1652 1.387 . S
C1651 H1654 0.950 . S
C1652 C1651 1.387 . S
C1652 C1655 1.387 . S
H1653 C1649 0.950 . S
H1654 C1651 0.950 . S
C1655 C1646 1.390 . S
C1655 H1648 0.950 . S
C1655 C1652 1.387 . S
C1656 C1657 1.387 . S
C1656 H1660 0.950 . S
C1656 C1665 1.390 . S
C1657 C1656 1.387 . S
C1657 C1659 1.387 . S
H1658 C1665 0.950 . S
C1659 C1657 1.387 . S
C1659 C1661 1.390 . S
C1659 H1663 0.950 . S
H1660 C1656 0.950 . S
C1661 C1659 1.390 . S
C1661 C1662 1.387 . S
C1661 H1664 0.950 . S
C1662 C1661 1.387 . S
C1662 C1665 1.387 . S
H1663 C1659 0.950 . S
H1664 C1661 0.950 . S
C1665 C1656 1.390 . S
C1665 H1658 0.950 . S
C1665 C1662 1.387 . S
C1666 C1667 1.387 . S
C1666 H1670 0.950 . S
C1666 C1675 1.390 . S
C1667 C1666 1.387 . S
C1667 C1669 1.387 . S
H1668 C1675 0.950 . S
C1669 C1667 1.387 . S
C1669 C1671 1.390 . S
C1669 H1673 0.950 . S
H1670 C1666 0.950 . S
C1671 C1669 1.390 . S
C1671 C1672 1.387 . S
C1671 H1674 0.950 . S
C1672 C1671 1.387 . S
C1672 C1675 1.387 . S
H1673 C1669 0.950 . S
H1674 C1671 0.950 . S
C1675 C1666 1.390 . S
C1675 H1668 0.950 . S
C1675 C1672 1.387 . S
C1676 C1677 1.387 . S
C1676 H1680 0.950 . S
C1676 C1685 1.390 . S
C1677 C1676 1.387 . S
C1677 C1679 1.387 . S
H1678 C1685 0.950 . S
C1679 C1677 1.387 . S
C1679 C1681 1.390 . S
C1679 H1683 0.950 . S
H1680 C1676 0.950 . S
C1681 C1679 1.390 . S
C1681 C1682 1.387 . S
C1681 H1684 0.950 . S
C1682 C1681 1.387 . S
C1682 C1685 1.387 . S
H1683 C1679 0.950 . S
H1684 C1681 0.950 . S
C1685 C1676 1.390 . S
C1685 H1678 0.950 . S
C1685 C1682 1.387 . S
C1686 C1687 1.387 . S
C1686 H1690 0.950 . S
C1686 C1695 1.390 . S
C1687 C1686 1.387 . S
C1687 C1689 1.387 . S
H1688 C1695 0.950 . S
C1689 C1687 1.387 . S
C1689 C1691 1.390 . S
C1689 H1693 0.950 . S
H1690 C1686 0.950 . S
C1691 C1689 1.390 . S
C1691 C1692 1.387 . S
C1691 H1694 0.950 . S
C1692 C1691 1.387 . S
C1692 C1695 1.387 . S
H1693 C1689 0.950 . S
H1694 C1691 0.950 . S
C1695 C1686 1.390 . S
C1695 H1688 0.950 . S
C1695 C1692 1.387 . S
C1696 C1697 1.387 . S
C1696 H1700 0.950 . S
C1696 C1705 1.390 1_565 S
C1697 C1696 1.387 . S
C1697 C1699 1.387 . S
H1698 C1705 0.950 . S
C1699 C1697 1.387 . S
C1699 C1701 1.390 1_565 S
C1699 H1703 0.950 . S
H1700 C1696 0.950 . S
C1701 C1699 1.390 1_545 S
C1701 C1702 1.387 . S
C1701 H1704 0.950 . S
C1702 C1701 1.387 . S
C1702 C1705 1.387 . S
H1703 C1699 0.950 . S
H1704 C1701 0.950 . S
C1705 C1696 1.390 1_545 S
C1705 H1698 0.950 . S
C1705 C1702 1.387 . S
C1706 C1707 1.387 . S
C1706 H1710 0.950 . S
C1706 C1715 1.390 . S
C1707 C1706 1.387 . S
C1707 C1709 1.387 . S
H1708 C1715 0.950 . S
C1709 C1707 1.387 . S
C1709 C1711 1.390 . S
C1709 H1713 0.950 . S
H1710 C1706 0.950 . S
C1711 C1709 1.390 . S
C1711 C1712 1.387 . S
C1711 H1714 0.950 . S
C1712 C1711 1.387 . S
C1712 C1715 1.387 . S
H1713 C1709 0.950 . S
H1714 C1711 0.950 . S
C1715 C1706 1.390 . S
C1715 H1708 0.950 . S
C1715 C1712 1.387 . S
C1716 C1717 1.387 . S
C1716 H1720 0.950 . S
C1716 C1725 1.390 1_565 S
C1717 C1716 1.387 . S
C1717 C1719 1.387 . S
H1718 C1725 0.950 . S
C1719 C1717 1.387 . S
C1719 C1721 1.390 1_565 S
C1719 H1723 0.950 . S
H1720 C1716 0.950 . S
C1721 C1719 1.390 1_545 S
C1721 C1722 1.387 . S
C1721 H1724 0.950 . S
C1722 C1721 1.387 . S
C1722 C1725 1.387 . S
H1723 C1719 0.950 . S
H1724 C1721 0.950 . S
C1725 C1716 1.390 1_545 S
C1725 H1718 0.950 . S
C1725 C1722 1.387 . S
C1726 C1727 1.387 . S
C1726 H1730 0.950 . S
C1726 C1735 1.390 1_554 S
C1727 C1726 1.387 . S
C1727 C1729 1.387 . S
H1728 C1735 0.950 . S
C1729 C1727 1.387 . S
C1729 C1731 1.390 1_554 S
C1729 H1733 0.950 . S
H1730 C1726 0.950 . S
C1731 C1729 1.390 1_556 S
C1731 C1732 1.387 . S
C1731 H1734 0.950 . S
C1732 C1731 1.387 . S
C1732 C1735 1.387 . S
H1733 C1729 0.950 . S
H1734 C1731 0.950 . S
C1735 C1726 1.390 1_556 S
C1735 H1728 0.950 . S
C1735 C1732 1.387 . S
C1736 C1737 1.387 . S
C1736 H1740 0.950 . S
C1736 C1745 1.390 1_545 S
C1737 C1736 1.387 . S
C1737 C1739 1.387 . S
H1738 C1745 0.950 . S
C1739 C1737 1.387 . S
C1739 C1741 1.390 1_545 S
C1739 H1743 0.950 . S
H1740 C1736 0.950 . S
C1741 C1739 1.390 1_565 S
C1741 C1742 1.387 . S
C1741 H1744 0.950 . S
C1742 C1741 1.387 . S
C1742 C1745 1.387 . S
H1743 C1739 0.950 . S
H1744 C1741 0.950 . S
C1745 C1736 1.390 1_565 S
C1745 H1738 0.950 . S
C1745 C1742 1.387 . S
C1746 C1747 1.387 . S
C1746 H1750 0.950 . S
C1746 C1755 1.390 . S
C1747 C1746 1.387 . S
C1747 C1749 1.387 . S
H1748 C1755 0.950 . S
C1749 C1747 1.387 . S
C1749 C1751 1.390 . S
C1749 H1753 0.950 . S
H1750 C1746 0.950 . S
C1751 C1749 1.390 . S
C1751 C1752 1.387 . S
C1751 H1754 0.950 . S
C1752 C1751 1.387 . S
C1752 C1755 1.387 . S
H1753 C1749 0.950 . S
H1754 C1751 0.950 . S
C1755 C1746 1.390 . S
C1755 H1748 0.950 . S
C1755 C1752 1.387 . S
C1756 C1757 1.387 . S
C1756 H1760 0.950 . S
C1756 C1765 1.390 1_565 S
C1757 C1756 1.387 . S
C1757 C1759 1.387 . S
H1758 C1765 0.950 . S
C1759 C1757 1.387 . S
C1759 C1761 1.390 1_565 S
C1759 H1763 0.950 . S
H1760 C1756 0.950 . S
C1761 C1759 1.390 1_545 S
C1761 C1762 1.387 . S
C1761 H1764 0.950 . S
C1762 C1761 1.387 . S
C1762 C1765 1.387 . S
H1763 C1759 0.950 . S
H1764 C1761 0.950 . S
C1765 C1756 1.390 1_545 S
C1765 H1758 0.950 . S
C1765 C1762 1.387 . S
C1766 C1767 1.387 . S
C1766 H1770 0.950 . S
C1766 C1775 1.390 1_556 S
C1767 C1766 1.387 . S
C1767 C1769 1.387 . S
H1768 C1775 0.950 . S
C1769 C1767 1.387 . S
C1769 C1771 1.390 1_556 S
C1769 H1773 0.950 . S
H1770 C1766 0.950 . S
C1771 C1769 1.390 1_554 S
C1771 C1772 1.387 . S
C1771 H1774 0.950 . S
C1772 C1771 1.387 . S
C1772 C1775 1.387 . S
H1773 C1769 0.950 . S
H1774 C1771 0.950 . S
C1775 C1766 1.390 1_554 S
C1775 H1768 0.950 . S
C1775 C1772 1.387 . S
C1776 C1777 1.387 . S
C1776 H1780 0.950 . S
C1776 C1785 1.390 . S
C1777 C1776 1.387 . S
C1777 C1779 1.387 . S
H1778 C1785 0.950 . S
C1779 C1777 1.387 . S
C1779 C1781 1.390 . S
C1779 H1783 0.950 . S
H1780 C1776 0.950 . S
C1781 C1779 1.390 . S
C1781 C1782 1.387 . S
C1781 H1784 0.950 . S
C1782 C1781 1.387 . S
C1782 C1785 1.387 . S
H1783 C1779 0.950 . S
H1784 C1781 0.950 . S
C1785 C1776 1.390 . S
C1785 H1778 0.950 . S
C1785 C1782 1.387 . S
C1786 C1787 1.387 . S
C1786 H1790 0.950 . S
C1786 C1795 1.390 1_556 S
C1787 C1786 1.387 . S
C1787 C1789 1.387 . S
H1788 C1795 0.950 . S
C1789 C1787 1.387 . S
C1789 C1791 1.390 1_556 S
C1789 H1793 0.950 . S
H1790 C1786 0.950 . S
C1791 C1789 1.390 1_554 S
C1791 C1792 1.387 . S
C1791 H1794 0.950 . S
C1792 C1791 1.387 . S
C1792 C1795 1.387 . S
H1793 C1789 0.950 . S
H1794 C1791 0.950 . S
C1795 C1786 1.390 1_554 S
C1795 H1788 0.950 . S
C1795 C1792 1.387 . S
C1796 C1797 1.387 . S
C1796 H1800 0.950 . S
C1796 C1805 1.390 . S
C1797 C1796 1.387 . S
C1797 C1799 1.387 . S
H1798 C1805 0.950 . S
C1799 C1797 1.387 . S
C1799 C1801 1.390 . S
C1799 H1803 0.950 . S
H1800 C1796 0.950 . S
C1801 C1799 1.390 . S
C1801 C1802 1.387 . S
C1801 H1804 0.950 . S
C1802 C1801 1.387 . S
C1802 C1805 1.387 . S
H1803 C1799 0.950 . S
H1804 C1801 0.950 . S
C1805 C1796 1.390 . S
C1805 H1798 0.950 . S
C1805 C1802 1.387 . S
C1806 C1807 1.387 . S
C1806 H1810 0.950 . S
C1806 C1815 1.390 . S
C1807 C1806 1.387 . S
C1807 C1809 1.387 . S
H1808 C1815 0.950 . S
C1809 C1807 1.387 . S
C1809 C1811 1.390 . S
C1809 H1813 0.950 . S
H1810 C1806 0.950 . S
C1811 C1809 1.390 . S
C1811 C1812 1.387 . S
C1811 H1814 0.950 . S
C1812 C1811 1.387 . S
C1812 C1815 1.387 . S
H1813 C1809 0.950 . S
H1814 C1811 0.950 . S
C1815 C1806 1.390 . S
C1815 H1808 0.950 . S
C1815 C1812 1.387 . S
C1816 C1817 1.387 . S
C1816 H1820 0.950 . S
C1816 C1825 1.390 . S
C1817 C1816 1.387 . S
C1817 C1819 1.387 . S
H1818 C1825 0.950 . S
C1819 C1817 1.387 . S
C1819 C1821 1.390 . S
C1819 H1823 0.950 . S
H1820 C1816 0.950 . S
C1821 C1819 1.390 . S
C1821 C1822 1.387 . S
C1821 H1824 0.950 . S
C1822 C1821 1.387 . S
C1822 C1825 1.387 . S
H1823 C1819 0.950 . S
H1824 C1821 0.950 . S
C1825 C1816 1.390 . S
C1825 H1818 0.950 . S
C1825 C1822 1.387 . S
C1826 C1827 1.387 . S
C1826 H1830 0.950 . S
C1826 C1835 1.390 1_556 S
C1827 C1826 1.387 . S
C1827 C1829 1.387 . S
H1828 C1835 0.950 . S
C1829 C1827 1.387 . S
C1829 C1831 1.390 1_556 S
C1829 H1833 0.950 . S
H1830 C1826 0.950 . S
C1831 C1829 1.390 1_554 S
C1831 C1832 1.387 . S
C1831 H1834 0.950 . S
C1832 C1831 1.387 . S
C1832 C1835 1.387 . S
H1833 C1829 0.950 . S
H1834 C1831 0.950 . S
C1835 C1826 1.390 1_554 S
C1835 H1828 0.950 . S
C1835 C1832 1.387 . S
C1836 C1837 1.387 . S
C1836 H1840 0.950 . S
C1836 C1845 1.390 . S
C1837 C1836 1.387 . S
C1837 C1839 1.387 . S
H1838 C1845 0.950 . S
C1839 C1837 1.387 . S
C1839 C1841 1.390 . S
C1839 H1843 0.950 . S
H1840 C1836 0.950 . S
C1841 C1839 1.390 . S
C1841 C1842 1.387 . S
C1841 H1844 0.950 . S
C1842 C1841 1.387 . S
C1842 C1845 1.387 . S
H1843 C1839 0.950 . S
H1844 C1841 0.950 . S
C1845 C1836 1.390 . S
C1845 H1838 0.950 . S
C1845 C1842 1.387 . S
C1846 C1847 1.387 . S
C1846 H1850 0.950 . S
C1846 C1855 1.390 . S
C1847 C1846 1.387 . S
C1847 C1849 1.387 . S
H1848 C1855 0.950 . S
C1849 C1847 1.387 . S
C1849 C1851 1.390 . S
C1849 H1853 0.950 . S
H1850 C1846 0.950 . S
C1851 C1849 1.390 . S
C1851 C1852 1.387 . S
C1851 H1854 0.950 . S
C1852 C1851 1.387 . S
C1852 C1855 1.387 . S
H1853 C1849 0.950 . S
H1854 C1851 0.950 . S
C1855 C1846 1.390 . S
C1855 H1848 0.950 . S
C1855 C1852 1.387 . S
C1057 C18 1.335 . S
C1062 C945 1.271 . S
C1067 C51 1.335 . S
C1072 C450 1.269 . S
C1077 C84 1.336 . S
C1082 C1011 1.272 . S
C1087 C117 1.334 . S
C1092 C516 1.269 . S
C1097 C813 1.270 . S
C1102 C150 1.335 . S
C1107 C183 1.336 . S
C1112 C318 1.271 . S
C1117 C216 1.334 . S
C1122 C879 1.268 . S
C1127 C384 1.269 . S
C1132 C249 1.335 . S
C1137 C681 1.269 . S
C1142 C282 1.335 . S
C1147 C315 1.335 . S
C1152 C186 1.269 . S
C1157 C348 1.335 . S
C1162 C747 1.270 . S
C1167 C252 1.270 . S
C1172 C381 1.335 . S
C1177 C549 1.270 . S
C1182 C414 1.335 . S
C1187 C54 1.269 . S
C1192 C447 1.335 . S
C1197 C480 1.335 . S
C1202 C615 1.269 . S
C1207 C513 1.335 . S
C1212 C120 1.271 . S
C1217 C546 1.336 . S
C1222 C417 1.271 . S
C1227 C978 1.269 . S
C1232 C579 1.335 . S
C1237 C483 1.269 . S
C1242 C612 1.335 . S
C1247 C1044 1.270 . S
C1252 C645 1.335 . S
C1257 C285 1.269 . S
C1262 C678 1.335 . S
C1267 C711 1.335 . S
C1272 C846 1.270 . S
C1277 C351 1.272 . S
C1282 C744 1.336 . S
C1287 C912 1.271 . S
C1292 C777 1.335 . S
C1297 C153 1.271 . S
C1302 C810 1.336 . S
C1307 C714 1.267 . S
C1312 C843 1.334 . S
C1317 C219 1.269 . S
C1322 C876 1.335 . S
C1327 C780 1.269 . S
C1332 C909 1.335 . S
C1337 C21 1.271 . S
C1342 C942 1.336 . S
C1347 C582 1.270 . S
C1352 C975 1.335 . S
C1357 C1008 1.336 . S
C1362 C87 1.271 . S
C1367 C648 1.269 . S
C1372 C1041 1.335 . S
C1377 C601 0.952 . S
C1382 C7 0.952 . S
C1387 C40 0.952 . S
C1392 C634 0.952 . S
C1397 C535 0.951 1_455 S
C1402 C73 0.951 1_655 S
C1407 C106 0.943 . S
C1412 C568 0.943 . S
C1417 C733 0.943 . S
C1422 C139 0.943 . S
C1427 C766 0.943 . S
C1432 C172 0.943 . S
C1437 C205 0.942 1_655 S
C1442 C667 0.942 1_455 S
C1447 C700 0.942 . S
C1452 C238 0.942 . S
C1457 C271 0.943 . S
C1462 C865 0.943 . S
C1467 C304 0.942 . S
C1472 C898 0.942 . S
C1477 C799 0.951 1_655 S
C1482 C337 0.951 1_455 S
C1487 C832 0.943 . S
C1492 C370 0.943 . S
C1497 C403 0.943 . S
C1502 C997 0.943 . S
C1507 C1030 0.943 . S
C1512 C436 0.943 . S
C1517 C931 0.951 1_655 S
C1522 C469 0.951 1_455 S
C1527 C964 0.942 . S
C1532 C502 0.942 . S
C1537 N2 1.537 . S
C1542 N167 1.537 . S
C1547 N35 1.536 . S
C1552 N200 1.538 . S
C1557 N68 1.537 . S
C1562 N233 1.538 . S
C1567 N101 1.536 . S
C1572 N134 1.538 . S
C1577 N266 1.538 . S
C1582 N431 1.536 . S
C1587 N464 1.538 . S
C1592 N299 1.536 . S
C1597 N497 1.536 . S
C1602 N332 1.539 . S
C1607 N398 1.536 . S
C1612 N365 1.538 . S
C1617 N530 1.536 . S
C1622 N695 1.539 . S
C1627 N563 1.539 . S
C1632 N728 1.537 . S
C1637 N761 1.536 . S
C1642 N596 1.538 . S
C1647 N662 1.537 . S
C1652 N629 1.538 . S
C1657 N794 1.538 . S
C1662 N959 1.536 . S
C1667 N992 1.536 . S
C1672 N827 1.539 . S
C1677 N1025 1.538 . S
C1682 N860 1.537 . S
C1687 N893 1.538 . S
C1692 N926 1.536 . S
C1697 N145 1.688 . S
C1702 N13 1.688 . S
C1707 N46 1.687 . S
C1712 N178 1.687 . S
C1717 N79 1.687 . S
C1722 N211 1.687 . S
C1727 N112 1.688 . S
C1732 N244 1.688 . S
C1737 N409 1.687 . S
C1742 N277 1.687 . S
C1747 N310 1.688 . S
C1752 N442 1.688 . S
C1757 N475 1.688 . S
C1762 N343 1.688 . S
C1767 N376 1.687 . S
C1772 N508 1.687 . S
C1777 N541 1.688 . S
C1782 N673 1.688 . S
C1787 N706 1.688 . S
C1792 N574 1.688 . S
C1797 N739 1.688 . S
C1802 N607 1.688 . S
C1807 N772 1.688 . S
C1812 N640 1.688 . S
C1817 N805 1.688 . S
C1822 N937 1.688 . S
C1827 N838 1.688 . S
C1832 N970 1.688 . S
C1837 N871 1.687 . S
C1842 N1003 1.687 . S
C1847 N904 1.687 . S
C1852 N1036 1.687 . S
