# Generated by pormake.
# Topology umz, (4)-cn, num edge types: 1
# Building blocks:
#     Node 0, Type 0, BuildingBlock: QUQFOY_clean_sbu_3, # of connection points: 4
#     Node 1, Type 0, BuildingBlock: QUQFOY_clean_sbu_3, # of connection points: 4
#     Node 2, Type 0, BuildingBlock: QUQFOY_clean_sbu_3, # of connection points: 4
#     Node 3, Type 0, BuildingBlock: QUQFOY_clean_sbu_3, # of connection points: 4
#     Node 4, Type 0, BuildingBlock: QUQFOY_clean_sbu_3, # of connection points: 4
#     Node 5, Type 0, BuildingBlock: QUQFOY_clean_sbu_3, # of connection points: 4
#     Node 6, Type 0, BuildingBlock: QUQFOY_clean_sbu_3, # of connection points: 4
#     Node 7, Type 0, BuildingBlock: QUQFOY_clean_sbu_3, # of connection points: 4
#     Node 8, Type 0, BuildingBlock: QUQFOY_clean_sbu_3, # of connection points: 4
#     Node 9, Type 0, BuildingBlock: QUQFOY_clean_sbu_3, # of connection points: 4
#     Node 10, Type 0, BuildingBlock: QUQFOY_clean_sbu_3, # of connection points: 4
#     Node 11, Type 0, BuildingBlock: QUQFOY_clean_sbu_3, # of connection points: 4
#     Node 12, Type 0, BuildingBlock: QUQFOY_clean_sbu_3, # of connection points: 4
#     Node 13, Type 0, BuildingBlock: QUQFOY_clean_sbu_3, # of connection points: 4
#     Node 14, Type 0, BuildingBlock: QUQFOY_clean_sbu_3, # of connection points: 4
#     Node 15, Type 0, BuildingBlock: QUQFOY_clean_sbu_3, # of connection points: 4
#     Edge 16, Type (0, 0), BuildingBlock: EZIPEK_clean_linker_0, # of connection points: 2
#     Edge 17, Type (0, 0), BuildingBlock: EZIPEK_clean_linker_0, # of connection points: 2
#     Edge 18, Type (0, 0), BuildingBlock: EZIPEK_clean_linker_0, # of connection points: 2
#     Edge 19, Type (0, 0), BuildingBlock: EZIPEK_clean_linker_0, # of connection points: 2
#     Edge 20, Type (0, 0), BuildingBlock: EZIPEK_clean_linker_0, # of connection points: 2
#     Edge 21, Type (0, 0), BuildingBlock: EZIPEK_clean_linker_0, # of connection points: 2
#     Edge 22, Type (0, 0), BuildingBlock: EZIPEK_clean_linker_0, # of connection points: 2
#     Edge 23, Type (0, 0), BuildingBlock: EZIPEK_clean_linker_0, # of connection points: 2
#     Edge 24, Type (0, 0), BuildingBlock: EZIPEK_clean_linker_0, # of connection points: 2
#     Edge 25, Type (0, 0), BuildingBlock: EZIPEK_clean_linker_0, # of connection points: 2
#     Edge 26, Type (0, 0), BuildingBlock: EZIPEK_clean_linker_0, # of connection points: 2
#     Edge 27, Type (0, 0), BuildingBlock: EZIPEK_clean_linker_0, # of connection points: 2
#     Edge 28, Type (0, 0), BuildingBlock: EZIPEK_clean_linker_0, # of connection points: 2
#     Edge 29, Type (0, 0), BuildingBlock: EZIPEK_clean_linker_0, # of connection points: 2
#     Edge 30, Type (0, 0), BuildingBlock: EZIPEK_clean_linker_0, # of connection points: 2
#     Edge 31, Type (0, 0), BuildingBlock: EZIPEK_clean_linker_0, # of connection points: 2
#     Edge 32, Type (0, 0), BuildingBlock: EZIPEK_clean_linker_0, # of connection points: 2
#     Edge 33, Type (0, 0), BuildingBlock: EZIPEK_clean_linker_0, # of connection points: 2
#     Edge 34, Type (0, 0), BuildingBlock: EZIPEK_clean_linker_0, # of connection points: 2
#     Edge 35, Type (0, 0), BuildingBlock: EZIPEK_clean_linker_0, # of connection points: 2
#     Edge 36, Type (0, 0), BuildingBlock: EZIPEK_clean_linker_0, # of connection points: 2
#     Edge 37, Type (0, 0), BuildingBlock: EZIPEK_clean_linker_0, # of connection points: 2
#     Edge 38, Type (0, 0), BuildingBlock: EZIPEK_clean_linker_0, # of connection points: 2
#     Edge 39, Type (0, 0), BuildingBlock: EZIPEK_clean_linker_0, # of connection points: 2
#     Edge 40, Type (0, 0), BuildingBlock: EZIPEK_clean_linker_0, # of connection points: 2
#     Edge 41, Type (0, 0), BuildingBlock: EZIPEK_clean_linker_0, # of connection points: 2
#     Edge 42, Type (0, 0), BuildingBlock: EZIPEK_clean_linker_0, # of connection points: 2
#     Edge 43, Type (0, 0), BuildingBlock: EZIPEK_clean_linker_0, # of connection points: 2
#     Edge 44, Type (0, 0), BuildingBlock: EZIPEK_clean_linker_0, # of connection points: 2
#     Edge 45, Type (0, 0), BuildingBlock: EZIPEK_clean_linker_0, # of connection points: 2
#     Edge 46, Type (0, 0), BuildingBlock: EZIPEK_clean_linker_0, # of connection points: 2
#     Edge 47, Type (0, 0), BuildingBlock: EZIPEK_clean_linker_0, # of connection points: 2
# Relax obj value: 0.248
# Max RMSD: 0.163
# Mean RMSD: 0.163
data_MOF--net-umz--node1-QUQFOY_clean_sbu_3--edge1-EZIPEK_clean_linker_0
_symmetry_space_group_name_H-M    P1
_symmetry_Int_Tables_number       1
_symmetry_cell_setting            triclinic
loop_
_symmetry_equiv_pos_as_xyz
'x, y, z'
_cell_length_a     44.746454
_cell_length_b     44.73739
_cell_length_c     16.664119
_cell_angle_alpha  90.22245
_cell_angle_beta   90.024002
_cell_angle_gamma 89.901004
loop_
_atom_site_label
_atom_site_type_symbol
_atom_site_fract_x
_atom_site_fract_y
_atom_site_fract_z
_atom_type_partial_charge
C0 C 0.98511 0.59686 0.17586 0.0
O1 O 0.97313 0.59438 0.10733 0.0
Cd2 Cd 0.01904 0.61286 0.04381 0.0
O3 O 0.01059 0.60888 0.17993 0.0
Cd4 Cd 0.03225 0.62698 0.04509 0.0
C5 C 0.07854 0.59946 0.14148 0.0
O6 O 0.02498 0.59242 0.9214 0.0
O7 O 0.06879 0.61129 0.94325 0.0
O8 O -0.00574 0.66295 1e-05 0.0
C9 C 0.05186 0.59556 0.89895 0.0
O10 O 0.05812 0.58319 0.11253 0.0
C11 C 0.01166 0.68516 0.00771 0.0
O12 O 0.07761 0.62721 0.12709 0.0
O13 O 0.0378 0.68012 0.03421 0.0
C14 C 0.87978 0.98644 0.61769 0.0
O15 O 0.90145 2e-05 0.58486 0.0
Cd16 Cd 0.90281 0.05375 0.58271 0.0
O17 O 0.85659 0.00105 0.63778 0.0
Cd18 Cd 0.83356 0.05074 0.62579 0.0
C19 C 0.87957 0.06459 0.77877 0.0
O20 O 0.86 0.07354 0.51636 0.0
O21 O 0.8379 0.10414 0.59889 0.0
O22 O 0.79373 0.03018 0.54642 0.0
C23 C 0.85273 0.10015 0.53483 0.0
O24 O 0.90019 0.0656 0.72608 0.0
C25 C 0.77317 0.03648 0.59618 0.0
O26 O 0.85274 0.05821 0.76003 0.0
O27 O 0.78062 0.05007 0.66037 0.0
C28 C 0.56008 0.88244 0.08121 0.0
O29 O 0.56918 0.88411 0.00928 0.0
Cd30 Cd 0.51703 0.88513 0.96278 0.0
O31 O 0.53237 0.87879 0.09281 0.0
Cd32 Cd 0.49912 0.87184 0.96791 0.0
C33 C 0.47181 0.9171 0.07871 0.0
O34 O 0.50543 0.90696 0.845 0.0
O35 O 0.46244 0.88658 0.8699 0.0
O36 O 0.52542 0.82793 0.91773 0.0
C37 C 0.47795 0.90399 0.82684 0.0
O38 O 0.49621 0.92502 0.04715 0.0
C39 C 0.50409 0.81008 0.93277 0.0
O40 O 0.46217 0.89102 0.06367 0.0
O41 O 0.48065 0.82086 0.96503 0.0
C42 C 0.6001 0.52903 0.61825 0.0
O43 O 0.59511 0.53963 0.54919 0.0
Cd44 Cd 0.61902 0.49581 0.48695 0.0
O45 O 0.61557 0.5054 0.62263 0.0
Cd46 Cd 0.63531 0.48308 0.48838 0.0
C47 C 0.60977 0.43618 0.588 0.0
O48 O 0.60153 0.48852 0.36189 0.0
O49 O 0.62033 0.44516 0.38961 0.0
O50 O 0.67272 0.52135 0.45453 0.0
C51 C 0.60506 0.46131 0.34244 0.0
O52 O 0.59212 0.45453 0.55525 0.0
C53 C 0.69408 0.50259 0.45494 0.0
O54 O 0.63749 0.43957 0.57635 0.0
O55 O 0.68794 0.47556 0.47035 0.0
C56 C 0.93768 0.91671 0.82716 0.0
O57 O 0.94895 0.93964 0.86027 0.0
Cd58 Cd 0.99097 0.9409 0.9488 0.0
O59 O 0.9477 0.89065 0.84177 0.0
Cd60 Cd 0.98994 0.87117 0.92282 0.0
C61 C 0.04233 0.91012 0.82235 0.0
O62 O 0.9891 0.9014 0.04535 0.0
O63 O 0.0296 0.8763 0.02044 0.0
O64 O -0.00155 0.82136 0.87317 0.0
C65 C 0.01458 0.89228 0.06869 0.0
O66 O 0.03351 0.93347 0.85931 0.0
C67 C 0.98675 0.80832 0.93278 0.0
O68 O 0.02965 0.88505 0.83263 0.0
O69 O 0.9737 0.82466 0.98455 0.0
C70 C 0.58583 0.91377 0.38671 0.0
O71 O 0.56209 0.90543 0.42207 0.0
Cd72 Cd 0.53429 0.93648 0.51507 0.0
O73 O 0.59792 0.93838 0.4065 0.0
Cd74 Cd 0.59308 0.97919 0.5045 0.0
C75 C 0.53295 -0.00064 0.39579 0.0
O76 O 0.56572 0.95706 0.61626 0.0
O77 O 0.56842 0.00538 0.61015 0.0
O78 O 0.6433 0.97396 0.55494 0.0
C79 C 0.5591 0.98237 0.64653 0.0
O80 O 0.51964 0.97724 0.42731 0.0
C81 C 0.6521 -0.00075 0.52996 0.0
O82 O 0.56036 0.0049 0.41007 0.0
O83 O 0.63342 0.0152 0.49163 0.0
C84 C 0.53989 0.57171 0.90301 0.0
O85 O 0.53692 0.55645 0.96674 0.0
Cd86 Cd 0.48917 0.55776 0.0342 0.0
O87 O 0.5224 0.59341 0.88774 0.0
Cd88 Cd 0.48126 0.62464 0.93973 0.0
C89 C 0.4502 0.56349 0.85302 0.0
O90 O 0.47869 0.60741 0.07328 0.0
O91 O 0.43925 0.63098 0.03337 0.0
O92 O 0.51366 0.66763 0.94627 0.0
C93 C 0.45182 0.61506 0.08652 0.0
O94 O 0.45911 0.5484 0.91334 0.0
C95 C 0.49823 0.68384 0.8993 0.0
O96 O 0.4548 0.59159 0.84753 0.0
O97 O 0.47392 0.67244 0.87397 0.0
C98 C 0.9358 0.5376 0.45032 0.0
O99 O 0.94661 0.53452 0.52012 0.0
Cd100 Cd 0.93523 0.48755 0.58156 0.0
O101 O 0.91404 0.52148 0.4272 0.0
Cd102 Cd 0.87878 0.48457 0.48117 0.0
C103 C 0.93381 0.44265 0.41101 0.0
O104 O 0.88429 0.48843 0.62566 0.0
O105 O 0.86976 0.44586 0.5802 0.0
O106 O 0.83922 0.52123 0.46825 0.0
C107 C 0.87261 0.46317 0.64017 0.0
O108 O 0.94754 0.4515 0.47375 0.0
C109 C 0.82035 0.50271 0.44057 0.0
O110 O 0.90718 0.45103 0.39651 0.0
O111 O 0.8296 0.47652 0.42395 0.0
C112 C 0.01852 0.41629 0.82973 0.0
O113 O 0.01777 0.43892 0.87585 0.0
Cd114 Cd 0.98707 0.43932 -0.00406 0.0
O115 O 0.00512 0.39234 0.84831 0.0
Cd116 Cd 0.97527 0.37285 0.95934 0.0
C117 C 0.9202 0.42059 0.91 0.0
O118 O -0.00375 0.39648 0.07997 0.0
O119 O 0.95341 0.3752 0.0918 0.0
O120 O 0.95817 0.32234 0.93432 0.0
C121 C 0.97543 0.38769 0.12608 0.0
O122 O 0.93589 0.44048 0.94497 0.0
C123 C 0.98392 0.31045 0.93945 0.0
O124 O 0.93063 0.39433 0.90141 0.0
O125 O 0.00534 0.32798 0.95597 0.0
C126 C 0.08013 0.03355 0.43284 0.0
O127 O 0.06069 0.02061 0.47617 0.0
Cd128 Cd 0.06445 0.9723 0.53713 0.0
O129 O 0.10533 0.02142 0.41845 0.0
Cd130 Cd 0.13196 0.97384 0.4404 0.0
C131 C 0.07167 0.93839 0.35338 0.0
O132 O 0.11549 0.96965 0.57304 0.0
O133 O 0.14232 0.93229 0.53514 0.0
O134 O 0.17634 0.00403 0.4421 0.0
C135 C 0.12604 0.94416 0.58875 0.0
O136 O 0.05618 0.94228 0.41671 0.0
C137 C 0.19052 0.98891 0.3898 0.0
O138 O 0.09826 0.9484 0.34699 0.0
O139 O 0.17752 0.96556 0.36381 0.0
C140 C 0.40954 0.08965 0.87848 0.0
O141 O 0.3989 0.06882 0.9214 0.0
Cd142 Cd 0.42979 0.04358 0.02151 0.0
O143 O 0.43543 0.09945 0.89446 0.0
Cd144 Cd 0.47584 0.09547 0.9912 0.0
C145 C 0.48771 0.03001 0.8946 0.0
O146 O 0.4568 0.07451 0.11664 0.0
O147 O 0.50454 0.07184 0.09136 0.0
O148 O 0.47168 0.14785 0.02304 0.0
C149 C 0.48305 0.06701 0.13916 0.0
O150 O 0.46586 0.01924 0.93363 0.0
C151 C 0.49703 0.15475 -0.00561 0.0
O152 O 0.49508 0.05744 0.90038 0.0
O153 O 0.51309 0.13385 0.9653 0.0
C154 C 0.42045 0.43547 0.30189 0.0
O155 O 0.44472 0.44188 0.3373 0.0
Cd156 Cd 0.44748 0.48179 0.43425 0.0
O157 O 0.39584 0.44698 0.32479 0.0
Cd158 Cd 0.37781 0.48122 0.43166 0.0
C159 C 0.41025 0.53501 0.32323 0.0
O160 O 0.41303 0.47782 0.54409 0.0
O161 O 0.38515 0.51751 0.53583 0.0
O162 O 0.34165 0.44516 0.4812 0.0
C163 C 0.40384 0.5022 0.57524 0.0
O164 O 0.43457 0.52478 0.35189 0.0
C165 C 0.31936 0.46218 0.46961 0.0
O166 O 0.38521 0.52326 0.34092 0.0
O167 O 0.32411 0.48754 0.43815 0.0
C168 C 0.0138 0.12102 0.27731 0.0
O169 O 0.98791 0.1185 0.3066 0.0
Cd170 Cd 0.95967 0.138 0.1919 0.0
O171 O 0.01523 0.13176 0.20746 0.0
Cd172 Cd 0.9635 0.1476 0.16955 0.0
C173 C 0.91712 0.15806 0.30601 0.0
O174 O 0.95124 0.09743 0.10685 0.0
O175 O 0.91955 0.13205 0.0858 0.0
O176 O 0.9926 0.1734 0.06859 0.0
C177 C 0.92726 0.10518 0.07273 0.0
O178 O 0.9084 0.14732 0.24004 0.0
C179 C 0.97709 0.19712 0.07198 0.0
O180 O 0.94497 0.16217 0.31177 0.0
O181 O 0.95558 0.19797 0.12164 0.0
C182 C 0.39748 0.06979 0.56186 0.0
O183 O 0.42276 0.07167 0.52764 0.0
Cd184 Cd 0.44141 0.03171 0.44138 0.0
O185 O 0.38051 0.0481 0.54384 0.0
Cd186 Cd 0.37749 0.006 0.45058 0.0
C187 C 0.42766 0.97489 0.57255 0.0
O188 O 0.41005 0.01407 0.33381 0.0
O189 O 0.3982 0.96856 0.36694 0.0
O190 O 0.33228 0.02399 0.38868 0.0
C191 C 0.41076 0.98614 0.31795 0.0
O192 O 0.44666 0.99088 0.53573 0.0
C193 C 0.31613 0.00268 0.41381 0.0
O194 O 0.3998 0.97671 0.55752 0.0
O195 O 0.32853 0.98273 0.45668 0.0
C196 C 0.45992 0.38457 0.01713 0.0
O197 O 0.46432 0.40491 0.96531 0.0
Cd198 Cd 0.51062 0.41183 0.89404 0.0
O199 O 0.47907 0.36373 0.02528 0.0
Cd200 Cd 0.52555 0.34333 0.96721 0.0
C201 C 0.55242 0.40372 0.06755 0.0
O202 O 0.52546 0.36562 0.83706 0.0
O203 O 0.56745 0.34603 0.87358 0.0
O204 O 0.50192 0.29589 0.94296 0.0
C205 C 0.5529 0.361 0.82214 0.0
O206 O 0.54193 0.42017 0.01191 0.0
C207 C 0.52037 0.28095 0.9848 0.0
O208 O 0.54925 0.37538 0.06739 0.0
O209 O 0.54131 0.29511 0.01989 0.0
C210 C 0.07617 0.44779 0.54311 0.0
O211 O 0.05964 0.46201 0.49419 0.0
Cd212 Cd 0.07402 0.50822 0.43132 0.0
O213 O 0.10311 0.45602 0.55368 0.0
Cd214 Cd 0.1417 0.49119 0.50914 0.0
C215 C 0.09615 0.53786 0.6139 0.0
O216 O 0.12304 0.50294 0.37954 0.0
O217 O 0.15706 0.53297 0.42367 0.0
O218 O 0.17813 0.45199 0.48476 0.0
C219 C 0.13824 0.52651 0.3694 0.0
O220 O 0.07777 0.53718 0.55546 0.0
C221 C 0.19745 0.46231 0.53344 0.0
O222 O 0.12038 0.52283 0.61355 0.0
O223 O 0.19034 0.48624 0.57035 0.0
C224 C 0.97541 0.7286 0.00466 0.0
C225 C 0.00307 0.7155 0.98165 0.0
C226 C 0.02032 0.7635 0.93194 0.0
C227 C 0.99161 0.77603 0.94636 0.0
N228 N 0.93956 0.76795 0.97814 0.0
N229 N 0.04704 0.71848 0.89773 0.0
C230 C 0.96836 0.75781 0.97709 0.0
C231 C 0.02397 0.73228 0.9369 0.0
N232 N 0.95657 0.7141 0.05584 0.0
N233 N 0.04475 0.7812 0.91936 0.0
H234 H 0.04956 0.6953 0.89583 0.0
H235 H 0.06136 0.7299 0.85919 0.0
H236 H 0.04428 0.80443 0.92374 0.0
H237 H 0.06636 0.77257 0.91529 0.0
H238 H 0.93761 0.72416 0.08032 0.0
H239 H 0.9613 0.69321 0.08021 0.0
H240 H 0.92151 0.75444 0.99349 0.0
H241 H 0.93337 0.78872 0.95527 0.0
C242 C 0.68841 0.03814 0.57889 0.0
C243 C 0.683 0.00947 0.545 0.0
C244 C 0.73608 -0.0026 0.55644 0.0
C245 C 0.74201 0.02727 0.58048 0.0
N246 N 0.72424 0.07797 0.5975 0.0
N247 N 0.70292 0.96473 0.48306 0.0
C248 C 0.71831 0.04825 0.58695 0.0
C249 C 0.70719 0.9899 0.52836 0.0
N250 N 0.66526 0.0552 0.60687 0.0
N251 N 0.75756 0.9758 0.56365 0.0
H252 H 0.68234 0.95908 0.45785 0.0
H253 H 0.72049 0.95131 0.46306 0.0
H254 H 0.77864 0.9799 0.58801 0.0
H255 H 0.75329 0.95318 0.55397 0.0
H256 H 0.66843 0.07491 0.63929 0.0
H257 H 0.64305 0.04823 0.60531 0.0
H258 H 0.70778 0.09444 0.59442 0.0
H259 H 0.74586 0.08652 0.60099 0.0
C260 C 0.52877 0.76 0.94641 0.0
C261 C 0.50618 0.77805 0.91143 0.0
C262 C 0.48672 0.7344 0.83885 0.0
C263 C 0.50597 0.71595 0.88472 0.0
N264 N 0.55556 0.71305 0.9405 0.0
N265 N 0.46505 0.78358 0.81872 0.0
C266 C 0.53025 0.72924 0.92604 0.0
C267 C 0.48568 0.76562 0.85533 0.0
N268 N 0.5477 0.7717 0.00272 0.0
N269 N 0.4716 0.72242 0.77518 0.0
H270 H 0.46521 0.80682 0.82391 0.0
H271 H 0.44705 0.77549 0.78564 0.0
H272 H 0.47546 0.70063 0.75526 0.0
H273 H 0.45856 0.7348 0.73565 0.0
H274 H 0.56217 0.75865 0.03688 0.0
H275 H 0.54725 0.79407 0.02039 0.0
H276 H 0.5749 0.72223 0.96511 0.0
H277 H 0.55877 0.69172 0.91649 0.0
C278 C 0.74168 0.52266 0.50806 0.0
C279 C 0.72536 0.51141 0.44205 0.0
C280 C 0.77175 0.50434 0.36658 0.0
C281 C 0.78811 0.50985 0.43798 0.0
N282 N 0.78823 0.52084 0.58078 0.0
N283 N 0.72373 0.49211 0.30715 0.0
C284 C 0.77311 0.51879 0.50956 0.0
C285 C 0.74007 0.50274 0.37038 0.0
N286 N 0.72705 0.53619 0.57037 0.0
N287 N 0.78656 0.50096 0.29541 0.0
H288 H 0.70039 0.49229 0.30687 0.0
H289 H 0.73317 0.48205 0.25673 0.0
H290 H 0.80977 0.50257 0.29104 0.0
H291 H 0.77586 0.49935 0.24008 0.0
H292 H 0.73804 0.54745 0.61656 0.0
H293 H 0.70389 0.53877 0.57163 0.0
H294 H 0.77764 0.52378 0.6359 0.0
H295 H 0.81102 0.51676 0.58696 0.0
C296 C 0.01332 0.26457 0.97599 0.0
C297 C 0.98763 0.27735 0.94049 0.0
C298 C 0.95985 0.23127 0.96341 0.0
C299 C 0.98271 0.22228 0.01746 0.0
N300 N 0.03211 0.22938 0.07344 0.0
N301 N 0.94342 0.26741 0.86369 0.0
C302 C 0.01008 0.23818 0.02178 0.0
C303 C 0.96289 0.25889 0.92247 0.0
N304 N 0.04076 0.27686 0.96276 0.0
N305 N 0.93511 0.21373 0.95322 0.0
H306 H 0.94734 0.28627 0.82854 0.0
H307 H 0.92542 0.25466 0.84405 0.0
H308 H 0.93332 0.19241 0.97794 0.0
H309 H 0.91617 0.22026 0.9216 0.0
H310 H 0.06062 0.26725 0.98273 0.0
H311 H 0.04385 0.29418 0.92187 0.0
H312 H 0.05094 0.24228 0.08565 0.0
H313 H 0.03068 0.21022 0.10858 0.0
C314 C 0.26495 0.0251 0.41784 0.0
C315 C 0.28405 0.00134 0.39383 0.0
C316 C 0.24146 0.97512 0.33333 0.0
C317 C 0.22215 -0.00355 0.3694 0.0
N318 N 0.21659 0.04859 0.40177 0.0
N319 N 0.29161 0.95463 0.32359 0.0
C320 C 0.23423 0.02367 0.39806 0.0
C321 C 0.27266 0.97666 0.34947 0.0
N322 N 0.2756 0.048 0.46425 0.0
N323 N 0.23038 0.95529 0.27837 0.0
H324 H 0.3148 0.95618 0.32821 0.0
H325 H 0.28443 0.93422 0.30052 0.0
H326 H 0.20873 0.95696 0.25582 0.0
H327 H 0.24343 0.94015 0.2463 0.0
H328 H 0.26181 0.06396 0.49097 0.0
H329 H 0.29785 0.04968 0.48229 0.0
H330 H 0.22471 0.06977 0.41592 0.0
H331 H 0.19476 0.04869 0.3797 0.0
C332 C 0.50932 0.20237 0.06577 0.0
C333 C 0.50671 0.18624 0.99266 0.0
C334 C 0.51966 0.23117 0.91724 0.0
C335 C 0.51799 0.24811 0.98919 0.0
N336 N 0.5081 0.25077 0.13143 0.0
N337 N 0.50525 0.1859 0.84767 0.0
C338 C 0.51225 0.23397 0.06362 0.0
C339 C 0.51103 0.2007 0.91796 0.0
N340 N 0.50962 0.18738 0.13711 0.0
N341 N 0.53019 0.24406 0.84856 0.0
H342 H 0.4985 0.16363 0.84518 0.0
H343 H 0.50464 0.19643 0.79206 0.0
H344 H 0.53718 0.26628 0.84606 0.0
H345 H 0.53478 0.23202 0.79638 0.0
H346 H 0.51443 0.19755 0.1919 0.0
H347 H 0.50783 0.16416 0.14069 0.0
H348 H 0.50048 0.24195 0.18541 0.0
H349 H 0.50996 0.274 0.13236 0.0
C350 C 0.27926 0.46615 0.57271 0.0
C351 C 0.2894 0.45414 0.49861 0.0
C352 C 0.24009 0.43258 0.4738 0.0
C353 C 0.22869 0.45058 0.53691 0.0
N354 N 0.23849 0.47006 0.66859 0.0
N355 N 0.28099 0.42373 0.38108 0.0
C356 C 0.24872 0.46285 0.59378 0.0
C357 C 0.27042 0.43613 0.45058 0.0
N358 N 0.29853 0.48179 0.62075 0.0
N359 N 0.22249 0.41115 0.43965 0.0
H360 H 0.30336 0.42516 0.36389 0.0
H361 H 0.26736 0.4134 0.33861 0.0
H362 H 0.20156 0.40575 0.46293 0.0
H363 H 0.23005 0.39603 0.39653 0.0
H364 H 0.29186 0.49406 0.67082 0.0
H365 H 0.32135 0.48345 0.60863 0.0
H366 H 0.25209 0.47738 0.71533 0.0
H367 H 0.21661 0.46533 0.68618 0.0
C368 C 0.06391 0.54912 0.82189 0.0
C369 C 0.0635 0.58078 0.82634 0.0
C370 C 0.08906 0.58396 0.69679 0.0
C371 C 0.08657 0.55256 0.68865 0.0
N372 N 0.06823 0.5052 0.73732 0.0
N373 N 0.07159 0.62876 0.7643 0.0
C374 C 0.07306 0.53508 0.74954 0.0
C375 C 0.07507 0.59837 0.76289 0.0
N376 N 0.05678 0.53247 0.88785 0.0
N377 N 0.10537 0.59983 0.64236 0.0
H378 H 0.06111 0.64012 0.81128 0.0
H379 H 0.07673 0.64249 0.71595 0.0
H380 H 0.11612 0.58974 0.59382 0.0
H381 H 0.11052 0.62238 0.6492 0.0
H382 H 0.05981 0.50942 0.89081 0.0
H383 H 0.05033 0.54192 0.94249 0.0
H384 H 0.05531 0.49208 0.77535 0.0
H385 H 0.07529 0.49382 0.68594 0.0
C386 C 0.8659 0.15327 0.36366 0.0
C387 C 0.89667 0.15864 0.37656 0.0
C388 C 0.89343 0.1371 0.51035 0.0
C389 C 0.86498 0.12548 0.48941 0.0
N390 N 0.82157 0.12584 0.40405 0.0
N391 N 0.93352 0.17131 0.4758 0.0
C392 C 0.85007 0.13524 0.41921 0.0
C393 C 0.90854 0.1557 0.45475 0.0
N394 N 0.85224 0.16576 0.29863 0.0
N395 N 0.90657 0.12897 0.58103 0.0
H396 H 0.94291 0.18719 0.43772 0.0
H397 H 0.94253 0.17145 0.5334 0.0
H398 H 0.89547 0.11637 0.62431 0.0
H399 H 0.92871 0.13367 0.59544 0.0
H400 H 0.82947 0.16421 0.28676 0.0
H401 H 0.86369 0.18027 0.26056 0.0
H402 H 0.8104 0.12948 0.3502 0.0
H403 H 0.80924 0.11355 0.44557 0.0
C404 C 0.47456 0.91741 0.68125 0.0
C405 C 0.46396 0.921 0.76092 0.0
C406 C 0.42942 0.96019 0.71679 0.0
C407 C 0.43846 0.95505 0.63664 0.0
N408 N 0.46358 0.9238 0.54012 0.0
N409 N 0.42586 0.94068 0.85072 0.0
C410 C 0.45949 0.93234 0.61809 0.0
C411 C 0.43965 0.94069 0.77757 0.0
N412 N 0.49846 0.89924 0.6655 0.0
N413 N 0.41222 0.98454 0.73581 0.0
H414 H 0.43238 0.92726 0.89832 0.0
H415 H 0.40602 0.95216 0.86209 0.0
H416 H 0.40437 -0.00031 0.69332 0.0
H417 H 0.40825 0.99143 0.79466 0.0
H418 H 0.50923 0.89855 0.61015 0.0
H419 H 0.50857 0.88582 0.70871 0.0
H420 H 0.47683 0.90578 0.52256 0.0
H421 H 0.45071 0.93259 0.49378 0.0
C422 C 0.59743 0.41949 0.14565 0.0
C423 C 0.56593 0.41843 0.13784 0.0
C424 C 0.55988 0.44535 0.26515 0.0
C425 C 0.59139 0.44828 0.26993 0.0
N426 N 0.64012 0.44283 0.20989 0.0
N427 N 0.51672 0.43273 0.18384 0.0
C428 C 0.61019 0.4366 0.20884 0.0
C429 C 0.547 0.43221 0.19558 0.0
N430 N 0.61508 0.40376 0.09344 0.0
N431 N 0.5424 0.45367 0.32883 0.0
H432 H 0.5062 0.42178 0.13624 0.0
H433 H 0.50206 0.44546 0.21845 0.0
H434 H 0.55097 0.46338 0.38095 0.0
H435 H 0.51968 0.44894 0.33294 0.0
H436 H 0.63801 0.401 0.10095 0.0
H437 H 0.60647 0.39143 0.04554 0.0
H438 H 0.65457 0.43763 0.16293 0.0
H439 H 0.65017 0.45562 0.25487 0.0
C440 C 0.05288 0.94499 0.21384 0.0
C441 C 0.05677 0.92618 0.28135 0.0
C442 C 0.02956 0.88612 0.21238 0.0
C443 C 0.02863 0.90398 0.14231 0.0
N444 N 0.04547 0.94758 0.07063 0.0
N445 N 0.05238 0.87767 0.34254 0.0
C446 C 0.04203 0.93262 0.14131 0.0
C447 C 0.04599 0.89638 0.28023 0.0
N448 N 0.05822 0.975 0.21996 0.0
N449 N 0.01444 0.8596 0.2143 0.0
H450 H 0.0646 0.88452 0.39258 0.0
H451 H 0.04776 0.85488 0.34188 0.0
H452 H 0.00271 0.85122 0.16501 0.0
H453 H 0.01167 0.84702 0.26618 0.0
H454 H 0.05287 0.99015 0.17481 0.0
H455 H 0.06494 0.98524 0.27326 0.0
H456 H 0.05787 0.96718 0.06548 0.0
H457 H 0.03865 0.93878 0.01574 0.0
C458 C 0.49233 0.01505 0.75239 0.0
C459 C 0.50194 0.01151 0.83255 0.0
C460 C 0.5421 0.97786 0.78918 0.0
C461 C 0.53591 0.98606 0.70889 0.0
N462 N 0.50377 0.00937 0.61161 0.0
N463 N 0.534 0.98856 0.93071 0.0
C464 C 0.51022 0.0033 0.68987 0.0
C465 C 0.5259 0.99207 0.85222 0.0
N466 N 0.46605 0.02962 0.73646 0.0
N467 N 0.56377 0.95714 0.80474 0.0
H468 H 0.52223 -0.0015 0.97772 0.0
H469 H 0.55295 0.97704 0.9495 0.0
H470 H 0.57617 0.94685 0.75943 0.0
H471 H 0.56795 0.94834 0.86135 0.0
H472 H 0.45635 0.03085 0.67982 0.0
H473 H 0.45244 0.03862 0.7813 0.0
H474 H 0.48878 0.02579 0.59338 0.0
H475 H 0.51439 -0.00167 0.56454 0.0
C476 C 0.42966 0.58556 0.29098 0.0
C477 C 0.41217 0.56066 0.26731 0.0
C478 C 0.41205 0.57871 0.12852 0.0
C479 C 0.43439 0.59991 0.1499 0.0
N480 N 0.46344 0.62516 0.25116 0.0
N481 N 0.38491 0.53399 0.16432 0.0
C482 C 0.44262 0.60406 0.23133 0.0
C483 C 0.4021 0.55784 0.18679 0.0
N484 N 0.43346 0.59149 0.37088 0.0
N485 N 0.40072 0.57792 0.05229 0.0
H486 H 0.37515 0.51934 0.20477 0.0
H487 H 0.38111 0.52784 0.10489 0.0
H488 H 0.40901 0.59045 0.00488 0.0
H489 H 0.38148 0.56619 0.03675 0.0
H490 H 0.44394 0.61057 0.39301 0.0
H491 H 0.42342 0.57858 0.41541 0.0
H492 H 0.47323 0.62691 0.30765 0.0
H493 H 0.47191 0.64038 0.20968 0.0
C494 C 0.87863 0.40962 0.81113 0.0
C495 C 0.89263 0.42969 0.86545 0.0
C496 C 0.87345 0.47211 0.78991 0.0
C497 C 0.86896 0.45233 0.72431 0.0
N498 N 0.84875 0.4041 0.68982 0.0
N499 N 0.88625 0.47707 0.93147 0.0
C500 C 0.86552 0.4214 0.74018 0.0
C501 C 0.88439 0.46023 0.86321 0.0
N502 N 0.87779 0.37983 0.8281 0.0
N503 N 0.86717 0.5018 0.78163 0.0
H504 H 0.89156 0.46744 0.98666 0.0
H505 H 0.87979 0.49937 0.93543 0.0
H506 H 0.85523 0.50991 0.73245 0.0
H507 H 0.87296 0.51807 0.82359 0.0
H508 H 0.87114 0.36341 0.78751 0.0
H509 H 0.88306 0.37176 0.88509 0.0
H510 H 0.84478 0.38144 0.69828 0.0
H511 H 0.83589 0.41343 0.64405 0.0
C512 C 0.95284 0.38065 0.26276 0.0
C513 C 0.97346 0.39601 0.21311 0.0
C514 C 0.97402 0.43811 0.3068 0.0
C515 C 0.95001 0.42487 0.34975 0.0
N516 N 0.91807 0.38267 0.37486 0.0
N517 N 0.01501 0.4303 0.21442 0.0
C518 C 0.94016 0.3956 0.33028 0.0
C519 C 0.98772 0.42197 0.24318 0.0
N520 N 0.94686 0.35125 0.24715 0.0
N521 N 0.9824 0.46689 0.32271 0.0
H522 H 0.02743 0.41682 0.17574 0.0
H523 H 0.02736 0.44791 0.23845 0.0
H524 H 0.97277 0.47986 0.36787 0.0
H525 H -0.00289 0.47881 0.28655 0.0
H526 H 0.93345 0.33779 0.28289 0.0
H527 H 0.9581 0.33938 0.20228 0.0
H528 H 0.90731 0.36291 0.3591 0.0
H529 H 0.9097 0.39237 0.4273 0.0
C530 C 0.0948 0.92514 0.79117 0.0
C531 C 0.06739 0.91245 0.76522 0.0
C532 C 0.08721 0.90785 0.62909 0.0
C533 C 0.11145 0.92637 0.65155 0.0
N534 N 0.1397 0.95196 0.75337 0.0
N535 N 0.03626 0.8939 0.65709 0.0
C536 C 0.11589 0.93446 0.73282 0.0
C537 C 0.06343 0.90374 0.68387 0.0
N538 N 0.10073 0.92782 0.87135 0.0
N539 N 0.08649 0.89481 0.55489 0.0
H540 H 0.01776 0.89125 0.69413 0.0
H541 H 0.03121 0.89094 0.59655 0.0
H542 H 0.10333 0.89756 0.51248 0.0
H543 H 0.07085 0.87863 0.53886 0.0
H544 H 0.12132 0.93462 0.89403 0.0
H545 H 0.08593 0.9205 0.91546 0.0
H546 H 0.1423 0.96177 0.80971 0.0
H547 H 0.15636 0.95757 0.71227 0.0
C548 C 0.50389 0.04416 0.35029 0.0
C549 C 0.51723 0.01608 0.33271 0.0
C550 C 0.4989 0.01839 0.19485 0.0
C551 C 0.48866 0.04789 0.20954 0.0
N552 N 0.48065 0.08943 0.2989 0.0
N553 N 0.52895 0.97638 0.23933 0.0
C554 C 0.49043 0.06078 0.28711 0.0
C555 C 0.51494 0.00301 0.25533 0.0
N556 N 0.50417 0.05478 0.4273 0.0
N557 N 0.4931 0.00531 0.12238 0.0
H558 H 0.54064 0.96422 0.28249 0.0
H559 H 0.53069 0.96682 0.18255 0.0
H560 H 0.47993 0.0157 0.07915 0.0
H561 H 0.49903 0.9836 0.10695 0.0
H562 H 0.49218 0.07343 0.44646 0.0
H563 H 0.51536 0.0439 0.47364 0.0
H564 H 0.48413 0.10161 0.35136 0.0
H565 H 0.46971 0.10156 0.25427 0.0
C566 C 0.44234 0.53456 0.6396 0.0
C567 C 0.4176 0.51511 0.64775 0.0
C568 C 0.41282 0.52873 0.78972 0.0
C569 C 0.43858 0.54702 0.78251 0.0
N570 N 0.48223 0.56126 0.7059 0.0
N571 N 0.38208 0.48956 0.73129 0.0
C572 C 0.4546 0.54825 0.70894 0.0
C573 C 0.40375 0.51084 0.72326 0.0
N574 N 0.45364 0.54069 0.56524 0.0
N575 N 0.39637 0.52945 0.8588 0.0
H576 H 0.3748 0.47637 0.68333 0.0
H577 H 0.37307 0.48323 0.78623 0.0
H578 H 0.40222 0.54253 0.90823 0.0
H579 H 0.37572 0.51905 0.86513 0.0
H580 H 0.46912 0.55758 0.55464 0.0
H581 H 0.44591 0.53041 0.51301 0.0
H582 H 0.49634 0.55958 0.65638 0.0
H583 H 0.4925 0.57118 0.75534 0.0
C584 C 0.87261 0.09168 0.90981 0.0
C585 C 0.8876 0.06961 0.86373 0.0
C586 C 0.92349 0.06173 0.9731 0.0
C587 C 0.91014 0.08611 0.01495 0.0
N588 N 0.86349 0.11089 0.04334 0.0
N589 N 0.91993 0.02644 0.86216 0.0
C590 C 0.88179 0.09664 0.9899 0.0
C591 C 0.91086 0.05236 0.89867 0.0
N592 N 0.85101 0.1093 0.87626 0.0
N593 N 0.94797 0.04756 0.00373 0.0
H594 H 0.91024 0.01844 0.80931 0.0
H595 H 0.93489 0.01138 0.88766 0.0
H596 H 0.95398 0.04899 0.06394 0.0
H597 H 0.96171 0.03352 0.97002 0.0
H598 H 0.84182 0.12771 0.90583 0.0
H599 H 0.84417 0.10733 0.8167 0.0
H600 H 0.84164 0.11716 0.02965 0.0
H601 H 0.86899 0.11276 0.10407 0.0
C602 C 0.42242 0.97707 0.17223 0.0
C603 C 0.42973 0.97326 0.25416 0.0
C604 C 0.4639 0.93235 0.22058 0.0
C605 C 0.45728 0.93658 0.13848 0.0
N606 N 0.43713 0.96792 0.03436 0.0
N607 N 0.46376 0.95429 0.35309 0.0
C608 C 0.43852 0.96045 0.11355 0.0
C609 C 0.45242 0.95295 0.27728 0.0
N610 N 0.39968 -0.00417 0.15079 0.0
N611 N 0.48103 0.90863 0.24446 0.0
H612 H 0.45732 0.97085 0.39372 0.0
H613 H 0.48155 0.9412 0.37258 0.0
H614 H 0.49077 0.89358 0.20434 0.0
H615 H 0.48377 0.9025 0.30423 0.0
H616 H 0.39111 -0.00295 0.09279 0.0
H617 H 0.38812 0.00898 0.19229 0.0
H618 H 0.42494 0.98596 0.01248 0.0
H619 H 0.45098 0.958 0.99169 0.0
C620 C 0.56386 0.37372 0.67867 0.0
C621 C 0.56882 0.37906 0.76163 0.0
C622 C 0.60217 0.42086 0.73006 0.0
C623 C 0.5982 0.41471 0.64717 0.0
N624 N 0.57896 0.38362 0.5411 0.0
N625 N 0.59447 0.40583 0.8676 0.0
C626 C 0.58004 0.39064 0.62102 0.0
C627 C 0.58868 0.40193 0.78763 0.0
N628 N 0.5434 0.35274 0.65527 0.0
N629 N 0.61732 0.44595 0.75383 0.0
H630 H 0.58278 0.39494 0.91276 0.0
H631 H 0.6119 0.41887 0.88965 0.0
H632 H 0.62869 0.45985 0.7143 0.0
H633 H 0.61719 0.45426 0.81225 0.0
H634 H 0.53619 0.34991 0.59637 0.0
H635 H 0.53221 0.339 0.69576 0.0
H636 H 0.56843 0.36475 0.51798 0.0
H637 H 0.59069 0.39561 0.49774 0.0
C638 C 0.11147 0.57419 0.33852 0.0
C639 C 0.12829 0.54919 0.31109 0.0
C640 C 0.11999 0.56423 0.17165 0.0
C641 C 0.09975 0.58639 0.19902 0.0
N642 N 0.07419 0.61164 0.30743 0.0
N643 N 0.14905 0.51989 0.20307 0.0
C644 C 0.09541 0.59163 0.28217 0.0
C645 C 0.13294 0.54421 0.22794 0.0
N646 N 0.1103 0.58099 0.41851 0.0
N647 N 0.12678 0.56262 0.09177 0.0
H648 H 0.16007 0.5057 0.24292 0.0
H649 H 0.15052 0.51293 0.14355 0.0
H650 H 0.11764 0.57729 0.04977 0.0
H651 H 0.14315 0.54863 0.06789 0.0
H652 H 0.1016 0.60094 0.44093 0.0
H653 H 0.11994 0.56781 0.46279 0.0
H654 H 0.06673 0.61321 0.36646 0.0
H655 H 0.06245 0.6256 0.26866 0.0
C656 C 0.97959 0.55029 0.36396 0.0
C657 C 0.95024 0.55727 0.39064 0.0
C658 C 0.94476 0.59327 0.28051 0.0
C659 C 0.9722 0.58298 0.24816 0.0
N660 N 0.0129 0.5475 0.25027 0.0
N661 N 0.90438 0.58504 0.37507 0.0
C662 C 0.98899 0.56056 0.28787 0.0
C663 C 0.93268 0.57875 0.3491 0.0
N664 N -0.00152 0.5335 0.41004 0.0
N665 N 0.93081 0.61746 0.24729 0.0
H666 H 0.89584 0.57679 0.42886 0.0
H667 H 0.88903 0.59748 0.34214 0.0
H668 H 0.93904 0.62845 0.19683 0.0
H669 H 0.91237 0.62803 0.27288 0.0
H670 H 0.02115 0.53112 0.39729 0.0
H671 H 0.99261 0.52393 0.4645 0.0
H672 H 0.02425 0.52899 0.27276 0.0
H673 H 0.01933 0.55286 0.19203 0.0
C674 C 0.87006 0.94688 0.72107 0.0
C675 C 0.88474 0.95567 0.64974 0.0
C676 C 0.92647 0.92255 0.68146 0.0
C677 C 0.9159 0.92152 0.76185 0.0
N678 N 0.87607 0.92847 0.85693 0.0
N679 N 0.91812 0.94051 0.54515 0.0
C680 C 0.88683 0.93179 0.78086 0.0
C681 C 0.91011 0.93944 0.6241 0.0
N682 N 0.84023 0.95223 0.73015 0.0
N683 N 0.95306 0.90934 0.66213 0.0
H684 H 0.9051 0.95196 0.50321 0.0
H685 H 0.93568 0.92841 0.52013 0.0
H686 H 0.96466 0.8958 0.70226 0.0
H687 H 0.96378 0.91177 0.60719 0.0
H688 H 0.8279 0.94493 0.77925 0.0
H689 H 0.82723 0.9605 0.68318 0.0
H690 H 0.85651 0.93861 0.87729 0.0
H691 H 0.88756 0.91626 0.90044 0.0
C692 C 0.57716 0.862 0.21186 0.0
C693 C 0.58005 0.88428 0.15192 0.0
C694 C 0.60724 0.91548 0.24749 0.0
C695 C 0.59502 0.89833 0.31071 0.0
N696 N 0.57843 0.85014 0.35448 0.0
N697 N 0.60032 0.93193 0.11082 0.0
C698 C 0.58361 0.86956 0.29308 0.0
C699 C 0.5966 0.91062 0.16833 0.0
N700 N 0.56773 0.83407 0.19038 0.0
N701 N 0.62918 0.93584 0.26287 0.0
H702 H 0.59338 0.92914 0.05163 0.0
H703 H 0.60893 0.95308 0.12332 0.0
H704 H 0.63932 0.93746 0.31911 0.0
H705 H 0.64004 0.94774 0.21788 0.0
H706 H 0.56599 0.8162 0.2298 0.0
H707 H 0.56371 0.82832 0.13057 0.0
H708 H 0.56747 0.82979 0.34813 0.0
H709 H 0.58567 0.85476 0.41283 0.0
C710 C 0.56229 0.52273 0.72664 0.0
C711 C 0.58481 0.54059 0.69086 0.0
C712 C 0.58131 0.57657 0.8023 0.0
C713 C 0.55772 0.55947 0.8356 0.0
N714 N 0.52247 0.51865 0.82357 0.0
N715 N 0.61452 0.58537 0.68909 0.0
C716 C 0.54761 0.53295 0.79689 0.0
C717 C 0.59395 0.56785 0.72707 0.0
N718 N 0.5546 0.49595 0.69271 0.0
N719 N 0.59201 0.60066 0.844 0.0
H720 H 0.62482 0.57907 0.63547 0.0
H721 H 0.62027 0.60682 0.70771 0.0
H722 H 0.58326 0.60725 0.89939 0.0
H723 H 0.61072 0.61289 0.82729 0.0
H724 H 0.54258 0.47948 0.72257 0.0
H725 H 0.5611 0.48969 0.63513 0.0
H726 H 0.51144 0.50204 0.79129 0.0
H727 H 0.51089 0.5247 0.87522 0.0
C728 C 0.03081 0.4238 0.60492 0.0
C729 C 0.06222 0.42724 0.6032 0.0
C730 C 0.06509 0.41522 0.74622 0.0
C731 C 0.03357 0.41802 0.751 0.0
N732 N 0.98573 0.42387 0.68541 0.0
N733 N 0.10829 0.40929 0.6594 0.0
C734 C 0.01613 0.42135 0.68022 0.0
C735 C 0.07921 0.41767 0.67016 0.0
N736 N 0.01547 0.4212 0.53443 0.0
N737 N 0.08152 0.41121 0.81449 0.0
H738 H 0.11782 0.40797 0.60232 0.0
H739 H 0.12154 0.40012 0.70439 0.0
H740 H 0.0718 0.40825 0.87079 0.0
H741 H 0.10475 0.4125 0.8161 0.0
H742 H 0.99283 0.41604 0.53115 0.0
H743 H 0.02644 0.42021 0.47919 0.0
H744 H 0.9722 0.42984 0.63717 0.0
H745 H 0.97408 0.42196 0.73937 0.0
C746 C 0.03981 0.10657 0.40499 0.0
C747 C 0.04027 0.10863 0.32014 0.0
C748 C 0.07531 0.06711 0.31123 0.0
C749 C 0.07212 0.0625 0.39539 0.0
N750 N 0.0613 0.08423 0.52461 0.0
N751 N 0.07177 0.10295 0.20348 0.0
C752 C 0.05762 0.08447 0.4432 0.0
C753 C 0.06247 0.09297 0.2766 0.0
N754 N 0.02211 0.12557 0.44835 0.0
N755 N 0.08853 0.04621 0.26279 0.0
H756 H 0.06525 0.12357 0.18052 0.0
H757 H 0.08941 0.09316 0.17202 0.0
H758 H 0.09859 0.02675 0.28326 0.0
H759 H 0.08752 0.04723 0.20036 0.0
H760 H 0.01761 0.123 0.5092 0.0
H761 H 0.01166 0.14402 0.42221 0.0
H762 H 0.05302 0.10073 0.56282 0.0
H763 H 0.07522 0.06885 0.55321 0.0
C764 C 0.36634 0.08008 0.68534 0.0
C765 C 0.39033 0.08853 0.63449 0.0
C766 C 0.4115 0.11689 0.74649 0.0
C767 C 0.39545 0.09813 0.79982 0.0
N768 N 0.34924 0.07183 0.82184 0.0
N769 N 0.42836 0.1254 0.60985 0.0
C770 C 0.36989 0.08304 0.76993 0.0
C771 C 0.4105 0.11061 0.66273 0.0
N772 N 0.34002 0.07076 0.65235 0.0
N773 N 0.42655 0.14105 0.77612 0.0
H774 H 0.42471 0.12438 0.54804 0.0
H775 H 0.44622 0.13885 0.62712 0.0
H776 H 0.42485 0.14736 0.83635 0.0
H777 H 0.43763 0.15654 0.74049 0.0
H778 H 0.32107 0.06562 0.6857 0.0
H779 H 0.33618 0.07185 0.59063 0.0
H780 H 0.33235 0.05715 0.80475 0.0
H781 H 0.34889 0.07795 0.88232 0.0
C782 C 0.41975 0.41601 0.07963 0.0
C783 C 0.43697 0.38959 0.08136 0.0
C784 C 0.43197 0.38775 0.22769 0.0
C785 C 0.42155 0.41775 0.22654 0.0
N786 N 0.4058 0.46103 0.15024 0.0
N787 N 0.44404 0.34307 0.15018 0.0
C788 C 0.41462 0.43179 0.15224 0.0
C789 C 0.43828 0.37302 0.1536 0.0
N790 N 0.40801 0.42553 0.00859 0.0
N791 N 0.43676 0.37388 0.29948 0.0
H792 H 0.44547 0.3317 0.09548 0.0
H793 H 0.44382 0.32903 0.19981 0.0
H794 H 0.43073 0.38356 0.35422 0.0
H795 H 0.44753 0.35337 0.30521 0.0
H796 H 0.39325 0.44349 0.004 0.0
H797 H 0.41022 0.41291 0.95605 0.0
H798 H 0.40396 0.47319 0.09728 0.0
H799 H 0.40278 0.474 0.20156 0.0
loop_
_geom_bond_atom_site_label_1
_geom_bond_atom_site_label_2
_geom_bond_distance
_geom_bond_site_symmetry_2
_ccdc_geom_bond_type
C0 O1 1.306 . S
C0 O3 1.160 . S
O1 C0 1.306 . S
O1 Cd2 2.228 1_655 S
Cd2 O1 2.228 1_455 S
Cd2 O6 2.273 . S
Cd2 O10 2.277 . S
O3 C0 1.160 . S
O3 Cd4 2.203 1_655 S
Cd4 O3 2.203 1_455 S
Cd4 O6 2.411 . S
Cd4 O7 2.333 . S
Cd4 O8 2.352 1_455 S
Cd4 O12 2.277 . S
Cd4 O13 2.356 . S
C5 O10 1.209 . S
C5 O12 1.226 . S
O6 Cd2 2.273 . S
O6 Cd4 2.411 . S
O6 C9 1.320 1_554 S
O7 Cd4 2.333 . S
O7 C9 1.214 1_554 S
O8 Cd4 2.352 1_655 S
O8 C11 1.258 1_655 S
C9 O6 1.320 1_556 S
C9 O7 1.214 1_556 S
O10 Cd2 2.277 . S
O10 C5 1.209 . S
C11 O8 1.258 1_455 S
C11 O13 1.282 . S
O12 Cd4 2.277 . S
O12 C5 1.226 . S
O13 Cd4 2.356 . S
O13 C11 1.282 . S
C14 O15 1.306 . S
C14 O17 1.160 . S
O15 C14 1.306 . S
O15 Cd16 2.228 1_565 S
Cd16 O15 2.228 1_545 S
Cd16 O20 2.273 . S
Cd16 O24 2.277 . S
O17 C14 1.160 . S
O17 Cd18 2.203 1_565 S
Cd18 O17 2.203 1_545 S
Cd18 O20 2.411 . S
Cd18 O21 2.333 . S
Cd18 O22 2.352 1_545 S
Cd18 O26 2.277 . S
Cd18 O27 2.356 . S
C19 O24 1.209 . S
C19 O26 1.226 . S
O20 Cd16 2.273 . S
O20 Cd18 2.411 . S
O20 C23 1.320 . S
O21 Cd18 2.333 . S
O21 C23 1.214 . S
O22 Cd18 2.352 1_565 S
O22 C25 1.258 1_565 S
C23 O20 1.320 . S
C23 O21 1.214 . S
O24 Cd16 2.277 . S
O24 C19 1.209 . S
C25 O22 1.258 1_545 S
C25 O27 1.282 . S
O26 Cd18 2.277 . S
O26 C19 1.226 . S
O27 Cd18 2.356 . S
O27 C25 1.282 . S
C28 O29 1.306 . S
C28 O31 1.160 . S
O29 C28 1.306 . S
O29 Cd30 2.228 . S
Cd30 O29 2.228 . S
Cd30 O34 2.273 . S
Cd30 O38 2.277 . S
O31 C28 1.160 . S
O31 Cd32 2.203 . S
Cd32 O31 2.203 . S
Cd32 O34 2.411 . S
Cd32 O35 2.333 . S
Cd32 O36 2.352 . S
Cd32 O40 2.277 . S
Cd32 O41 2.356 . S
C33 O38 1.209 . S
C33 O40 1.226 . S
O34 Cd30 2.273 . S
O34 Cd32 2.411 . S
O34 C37 1.320 1_554 S
O35 Cd32 2.333 . S
O35 C37 1.214 1_554 S
O36 Cd32 2.352 . S
O36 C39 1.258 . S
C37 O34 1.320 1_556 S
C37 O35 1.214 1_556 S
O38 Cd30 2.277 . S
O38 C33 1.209 . S
C39 O36 1.258 . S
C39 O41 1.282 . S
O40 Cd32 2.277 . S
O40 C33 1.226 . S
O41 Cd32 2.356 . S
O41 C39 1.282 . S
C42 O43 1.306 . S
C42 O45 1.160 . S
O43 C42 1.306 . S
O43 Cd44 2.228 . S
Cd44 O43 2.228 . S
Cd44 O48 2.273 . S
Cd44 O52 2.277 . S
O45 C42 1.160 . S
O45 Cd46 2.203 . S
Cd46 O45 2.203 . S
Cd46 O48 2.411 . S
Cd46 O49 2.333 . S
Cd46 O50 2.352 . S
Cd46 O54 2.277 . S
Cd46 O55 2.356 . S
C47 O52 1.209 . S
C47 O54 1.226 . S
O48 Cd44 2.273 . S
O48 Cd46 2.411 . S
O48 C51 1.320 . S
O49 Cd46 2.333 . S
O49 C51 1.214 . S
O50 Cd46 2.352 . S
O50 C53 1.258 . S
C51 O48 1.320 . S
C51 O49 1.214 . S
O52 Cd44 2.277 . S
O52 C47 1.209 . S
C53 O50 1.258 . S
C53 O55 1.282 . S
O54 Cd46 2.277 . S
O54 C47 1.226 . S
O55 Cd46 2.356 . S
O55 C53 1.282 . S
C56 O57 1.306 . S
C56 O59 1.160 . S
O57 C56 1.306 . S
O57 Cd58 2.228 1_655 S
Cd58 O57 2.228 1_455 S
Cd58 O62 2.273 . S
Cd58 O66 2.277 . S
O59 C56 1.160 . S
O59 Cd60 2.203 1_655 S
Cd60 O59 2.203 1_455 S
Cd60 O62 2.411 . S
Cd60 O63 2.333 . S
Cd60 O64 2.352 1_455 S
Cd60 O68 2.277 . S
Cd60 O69 2.356 . S
C61 O66 1.209 . S
C61 O68 1.226 . S
O62 Cd58 2.273 . S
O62 Cd60 2.411 . S
O62 C65 1.320 1_556 S
O63 Cd60 2.333 . S
O63 C65 1.214 1_556 S
O64 Cd60 2.352 1_655 S
O64 C67 1.258 1_655 S
C65 O62 1.320 1_554 S
C65 O63 1.214 1_554 S
O66 Cd58 2.277 . S
O66 C61 1.209 . S
C67 O64 1.258 1_455 S
C67 O69 1.282 . S
O68 Cd60 2.277 . S
O68 C61 1.226 . S
O69 Cd60 2.356 . S
O69 C67 1.282 . S
C70 O71 1.306 . S
C70 O73 1.160 . S
O71 C70 1.306 . S
O71 Cd72 2.228 1_565 S
Cd72 O71 2.228 1_545 S
Cd72 O76 2.273 . S
Cd72 O80 2.277 . S
O73 C70 1.160 . S
O73 Cd74 2.203 1_565 S
Cd74 O73 2.203 1_545 S
Cd74 O76 2.411 . S
Cd74 O77 2.333 . S
Cd74 O78 2.352 1_545 S
Cd74 O82 2.277 . S
Cd74 O83 2.356 . S
C75 O80 1.209 . S
C75 O82 1.226 . S
O76 Cd72 2.273 . S
O76 Cd74 2.411 . S
O76 C79 1.320 . S
O77 Cd74 2.333 . S
O77 C79 1.214 . S
O78 Cd74 2.352 1_565 S
O78 C81 1.258 1_565 S
C79 O76 1.320 . S
C79 O77 1.214 . S
O80 Cd72 2.277 . S
O80 C75 1.209 . S
C81 O78 1.258 1_545 S
C81 O83 1.282 . S
O82 Cd74 2.277 . S
O82 C75 1.226 . S
O83 Cd74 2.356 . S
O83 C81 1.282 . S
C84 O85 1.306 . S
C84 O87 1.160 . S
O85 C84 1.306 . S
O85 Cd86 2.228 . S
Cd86 O85 2.228 . S
Cd86 O90 2.273 . S
Cd86 O94 2.277 . S
O87 C84 1.160 . S
O87 Cd88 2.203 . S
Cd88 O87 2.203 . S
Cd88 O90 2.411 . S
Cd88 O91 2.333 . S
Cd88 O92 2.352 . S
Cd88 O96 2.277 . S
Cd88 O97 2.356 . S
C89 O94 1.209 . S
C89 O96 1.226 . S
O90 Cd86 2.273 . S
O90 Cd88 2.411 . S
O90 C93 1.320 1_556 S
O91 Cd88 2.333 . S
O91 C93 1.214 1_556 S
O92 Cd88 2.352 . S
O92 C95 1.258 . S
C93 O90 1.320 1_554 S
C93 O91 1.214 1_554 S
O94 Cd86 2.277 . S
O94 C89 1.209 . S
C95 O92 1.258 . S
C95 O97 1.282 . S
O96 Cd88 2.277 . S
O96 C89 1.226 . S
O97 Cd88 2.356 . S
O97 C95 1.282 . S
C98 O99 1.306 . S
C98 O101 1.160 . S
O99 C98 1.306 . S
O99 Cd100 2.228 . S
Cd100 O99 2.228 . S
Cd100 O104 2.273 . S
Cd100 O108 2.277 . S
O101 C98 1.160 . S
O101 Cd102 2.203 . S
Cd102 O101 2.203 . S
Cd102 O104 2.411 . S
Cd102 O105 2.333 . S
Cd102 O106 2.352 . S
Cd102 O110 2.277 . S
Cd102 O111 2.356 . S
C103 O108 1.209 . S
C103 O110 1.226 . S
O104 Cd100 2.273 . S
O104 Cd102 2.411 . S
O104 C107 1.320 . S
O105 Cd102 2.333 . S
O105 C107 1.214 . S
O106 Cd102 2.352 . S
O106 C109 1.258 . S
C107 O104 1.320 . S
C107 O105 1.214 . S
O108 Cd100 2.277 . S
O108 C103 1.209 . S
C109 O106 1.258 . S
C109 O111 1.282 . S
O110 Cd102 2.277 . S
O110 C103 1.226 . S
O111 Cd102 2.356 . S
O111 C109 1.282 . S
C112 O113 1.306 . S
C112 O115 1.160 . S
O113 C112 1.306 . S
O113 Cd114 2.228 1_455 S
Cd114 O113 2.228 1_655 S
Cd114 O118 2.273 . S
Cd114 O122 2.277 . S
O115 C112 1.160 . S
O115 Cd116 2.203 1_455 S
Cd116 O115 2.203 1_655 S
Cd116 O118 2.411 . S
Cd116 O119 2.333 . S
Cd116 O120 2.352 1_655 S
Cd116 O124 2.277 . S
Cd116 O125 2.356 . S
C117 O122 1.209 . S
C117 O124 1.226 . S
O118 Cd114 2.273 . S
O118 Cd116 2.411 . S
O118 C121 1.320 1_556 S
O119 Cd116 2.333 . S
O119 C121 1.214 1_556 S
O120 Cd116 2.352 1_455 S
O120 C123 1.258 1_455 S
C121 O118 1.320 1_554 S
C121 O119 1.214 1_554 S
O122 Cd114 2.277 . S
O122 C117 1.209 . S
C123 O120 1.258 1_655 S
C123 O125 1.282 . S
O124 Cd116 2.277 . S
O124 C117 1.226 . S
O125 Cd116 2.356 . S
O125 C123 1.282 . S
C126 O127 1.306 . S
C126 O129 1.160 . S
O127 C126 1.306 . S
O127 Cd128 2.228 1_545 S
Cd128 O127 2.228 1_565 S
Cd128 O132 2.273 . S
Cd128 O136 2.277 . S
O129 C126 1.160 . S
O129 Cd130 2.203 1_545 S
Cd130 O129 2.203 1_565 S
Cd130 O132 2.411 . S
Cd130 O133 2.333 . S
Cd130 O134 2.352 1_565 S
Cd130 O138 2.277 . S
Cd130 O139 2.356 . S
C131 O136 1.209 . S
C131 O138 1.226 . S
O132 Cd128 2.273 . S
O132 Cd130 2.411 . S
O132 C135 1.320 . S
O133 Cd130 2.333 . S
O133 C135 1.214 . S
O134 Cd130 2.352 1_545 S
O134 C137 1.258 1_545 S
C135 O132 1.320 . S
C135 O133 1.214 . S
O136 Cd128 2.277 . S
O136 C131 1.209 . S
C137 O134 1.258 1_565 S
C137 O139 1.282 . S
O138 Cd130 2.277 . S
O138 C131 1.226 . S
O139 Cd130 2.356 . S
O139 C137 1.282 . S
C140 O141 1.306 . S
C140 O143 1.160 . S
O141 C140 1.306 . S
O141 Cd142 2.228 . S
Cd142 O141 2.228 . S
Cd142 O146 2.273 . S
Cd142 O150 2.277 . S
O143 C140 1.160 . S
O143 Cd144 2.203 . S
Cd144 O143 2.203 . S
Cd144 O146 2.411 . S
Cd144 O147 2.333 . S
Cd144 O148 2.352 . S
Cd144 O152 2.277 . S
Cd144 O153 2.356 . S
C145 O150 1.209 . S
C145 O152 1.226 . S
O146 Cd142 2.273 . S
O146 Cd144 2.411 . S
O146 C149 1.320 1_556 S
O147 Cd144 2.333 . S
O147 C149 1.214 1_556 S
O148 Cd144 2.352 . S
O148 C151 1.258 . S
C149 O146 1.320 1_554 S
C149 O147 1.214 1_554 S
O150 Cd142 2.277 . S
O150 C145 1.209 . S
C151 O148 1.258 . S
C151 O153 1.282 . S
O152 Cd144 2.277 . S
O152 C145 1.226 . S
O153 Cd144 2.356 . S
O153 C151 1.282 . S
C154 O155 1.306 . S
C154 O157 1.160 . S
O155 C154 1.306 . S
O155 Cd156 2.228 . S
Cd156 O155 2.228 . S
Cd156 O160 2.273 . S
Cd156 O164 2.277 . S
O157 C154 1.160 . S
O157 Cd158 2.203 . S
Cd158 O157 2.203 . S
Cd158 O160 2.411 . S
Cd158 O161 2.333 . S
Cd158 O162 2.352 . S
Cd158 O166 2.277 . S
Cd158 O167 2.356 . S
C159 O164 1.209 . S
C159 O166 1.226 . S
O160 Cd156 2.273 . S
O160 Cd158 2.411 . S
O160 C163 1.320 . S
O161 Cd158 2.333 . S
O161 C163 1.214 . S
O162 Cd158 2.352 . S
O162 C165 1.258 . S
C163 O160 1.320 . S
C163 O161 1.214 . S
O164 Cd156 2.277 . S
O164 C159 1.209 . S
C165 O162 1.258 . S
C165 O167 1.282 . S
O166 Cd158 2.277 . S
O166 C159 1.226 . S
O167 Cd158 2.356 . S
O167 C165 1.282 . S
C168 O169 1.306 . S
C168 O171 1.160 . S
O169 C168 1.306 . S
O169 Cd170 2.228 1_455 S
Cd170 O169 2.228 1_655 S
Cd170 O174 2.273 . S
Cd170 O178 2.277 . S
O171 C168 1.160 . S
O171 Cd172 2.203 1_455 S
Cd172 O171 2.203 1_655 S
Cd172 O174 2.411 . S
Cd172 O175 2.333 . S
Cd172 O176 2.352 1_655 S
Cd172 O180 2.277 . S
Cd172 O181 2.356 . S
C173 O178 1.209 . S
C173 O180 1.226 . S
O174 Cd170 2.273 . S
O174 Cd172 2.411 . S
O174 C177 1.320 1_554 S
O175 Cd172 2.333 . S
O175 C177 1.214 1_554 S
O176 Cd172 2.352 1_455 S
O176 C179 1.258 1_455 S
C177 O174 1.320 1_556 S
C177 O175 1.214 1_556 S
O178 Cd170 2.277 . S
O178 C173 1.209 . S
C179 O176 1.258 1_655 S
C179 O181 1.282 . S
O180 Cd172 2.277 . S
O180 C173 1.226 . S
O181 Cd172 2.356 . S
O181 C179 1.282 . S
C182 O183 1.306 . S
C182 O185 1.160 . S
O183 C182 1.306 . S
O183 Cd184 2.228 1_545 S
Cd184 O183 2.228 1_565 S
Cd184 O188 2.273 . S
Cd184 O192 2.277 . S
O185 C182 1.160 . S
O185 Cd186 2.203 1_545 S
Cd186 O185 2.203 1_565 S
Cd186 O188 2.411 . S
Cd186 O189 2.333 . S
Cd186 O190 2.352 1_565 S
Cd186 O194 2.277 . S
Cd186 O195 2.356 . S
C187 O192 1.209 . S
C187 O194 1.226 . S
O188 Cd184 2.273 . S
O188 Cd186 2.411 . S
O188 C191 1.320 . S
O189 Cd186 2.333 . S
O189 C191 1.214 . S
O190 Cd186 2.352 1_545 S
O190 C193 1.258 1_545 S
C191 O188 1.320 . S
C191 O189 1.214 . S
O192 Cd184 2.277 . S
O192 C187 1.209 . S
C193 O190 1.258 1_565 S
C193 O195 1.282 . S
O194 Cd186 2.277 . S
O194 C187 1.226 . S
O195 Cd186 2.356 . S
O195 C193 1.282 . S
C196 O197 1.306 . S
C196 O199 1.160 . S
O197 C196 1.306 . S
O197 Cd198 2.228 . S
Cd198 O197 2.228 . S
Cd198 O202 2.273 . S
Cd198 O206 2.277 . S
O199 C196 1.160 . S
O199 Cd200 2.203 . S
Cd200 O199 2.203 . S
Cd200 O202 2.411 . S
Cd200 O203 2.333 . S
Cd200 O204 2.352 . S
Cd200 O208 2.277 . S
Cd200 O209 2.356 . S
C201 O206 1.209 . S
C201 O208 1.226 . S
O202 Cd198 2.273 . S
O202 Cd200 2.411 . S
O202 C205 1.320 1_554 S
O203 Cd200 2.333 . S
O203 C205 1.214 1_554 S
O204 Cd200 2.352 . S
O204 C207 1.258 . S
C205 O202 1.320 1_556 S
C205 O203 1.214 1_556 S
O206 Cd198 2.277 . S
O206 C201 1.209 . S
C207 O204 1.258 . S
C207 O209 1.282 . S
O208 Cd200 2.277 . S
O208 C201 1.226 . S
O209 Cd200 2.356 . S
O209 C207 1.282 . S
C210 O211 1.306 . S
C210 O213 1.160 . S
O211 C210 1.306 . S
O211 Cd212 2.228 . S
Cd212 O211 2.228 . S
Cd212 O216 2.273 . S
Cd212 O220 2.277 . S
O213 C210 1.160 . S
O213 Cd214 2.203 . S
Cd214 O213 2.203 . S
Cd214 O216 2.411 . S
Cd214 O217 2.333 . S
Cd214 O218 2.352 . S
Cd214 O222 2.277 . S
Cd214 O223 2.356 . S
C215 O220 1.209 . S
C215 O222 1.226 . S
O216 Cd212 2.273 . S
O216 Cd214 2.411 . S
O216 C219 1.320 . S
O217 Cd214 2.333 . S
O217 C219 1.214 . S
O218 Cd214 2.352 . S
O218 C221 1.258 . S
C219 O216 1.320 . S
C219 O217 1.214 . S
O220 Cd212 2.277 . S
O220 C215 1.209 . S
C221 O218 1.258 . S
C221 O223 1.282 . S
O222 Cd214 2.277 . S
O222 C215 1.226 . S
O223 Cd214 2.356 . S
O223 C221 1.282 . S
C224 C225 1.363 . S
C224 C230 1.379 . S
C224 N232 1.356 . S
C225 C224 1.363 . S
C225 C231 1.363 1_654 S
C226 C227 1.363 1_455 S
C226 C231 1.379 . S
C226 N233 1.356 . S
C227 C226 1.363 1_655 S
C227 C230 1.363 1_556 S
N228 C230 1.356 . S
N228 H240 0.984 . S
N228 H241 0.985 1_554 S
N229 C231 1.356 . S
N229 H234 0.984 1_556 S
N229 H235 0.985 . S
C230 C224 1.379 . S
C230 C227 1.363 1_554 S
C230 N228 1.356 . S
C231 C225 1.363 1_456 S
C231 C226 1.379 . S
C231 N229 1.356 . S
N232 C224 1.356 . S
N232 H238 0.984 . S
N232 H239 0.984 . S
N233 C226 1.356 . S
N233 H236 0.984 . S
N233 H237 0.985 . S
H234 N229 0.984 1_554 S
H235 N229 0.985 . S
H236 N233 0.984 . S
H237 N233 0.985 . S
H238 N232 0.984 . S
H239 N232 0.984 . S
H240 N228 0.984 . S
H241 N228 0.985 1_556 S
C242 C243 1.363 1_545 S
C242 C248 1.379 . S
C242 N250 1.356 . S
C243 C242 1.363 1_565 S
C243 C249 1.363 . S
C244 C245 1.363 . S
C244 C249 1.379 . S
C244 N251 1.356 . S
C245 C244 1.363 . S
C245 C248 1.363 1_565 S
N246 C248 1.356 . S
N246 H258 0.984 . S
N246 H259 0.985 . S
N247 C249 1.356 . S
N247 H252 0.984 . S
N247 H253 0.985 . S
C248 C242 1.379 . S
C248 C245 1.363 1_545 S
C248 N246 1.356 . S
C249 C243 1.363 . S
C249 C244 1.379 . S
C249 N247 1.356 . S
N250 C242 1.356 . S
N250 H256 0.984 . S
N250 H257 0.984 . S
N251 C244 1.356 . S
N251 H254 0.984 . S
N251 H255 0.985 . S
H252 N247 0.984 . S
H253 N247 0.985 . S
H254 N251 0.984 . S
H255 N251 0.985 . S
H256 N250 0.984 . S
H257 N250 0.984 . S
H258 N246 0.984 . S
H259 N246 0.985 . S
C260 C261 1.363 . S
C260 C266 1.379 . S
C260 N268 1.356 . S
C261 C260 1.363 . S
C261 C267 1.363 1_554 S
C262 C263 1.363 . S
C262 C267 1.379 . S
C262 N269 1.356 . S
C263 C262 1.363 . S
C263 C266 1.363 1_556 S
N264 C266 1.356 . S
N264 H276 0.984 . S
N264 H277 0.985 . S
N265 C267 1.356 . S
N265 H270 0.984 . S
N265 H271 0.985 . S
C266 C260 1.379 . S
C266 C263 1.363 1_554 S
C266 N264 1.356 . S
C267 C261 1.363 1_556 S
C267 C262 1.379 . S
C267 N265 1.356 . S
N268 C260 1.356 . S
N268 H274 0.984 . S
N268 H275 0.984 . S
N269 C262 1.356 . S
N269 H272 0.984 . S
N269 H273 0.985 . S
H270 N265 0.984 . S
H271 N265 0.985 . S
H272 N269 0.984 . S
H273 N269 0.985 . S
H274 N268 0.984 . S
H275 N268 0.984 . S
H276 N264 0.984 . S
H277 N264 0.985 . S
C278 C279 1.363 . S
C278 C284 1.379 . S
C278 N286 1.356 . S
C279 C278 1.363 . S
C279 C285 1.363 . S
C280 C281 1.363 . S
C280 C285 1.379 . S
C280 N287 1.356 . S
C281 C280 1.363 . S
C281 C284 1.363 . S
N282 C284 1.356 . S
N282 H294 0.984 . S
N282 H295 0.985 . S
N283 C285 1.356 . S
N283 H288 0.984 . S
N283 H289 0.985 . S
C284 C278 1.379 . S
C284 C281 1.363 . S
C284 N282 1.356 . S
C285 C279 1.363 . S
C285 C280 1.379 . S
C285 N283 1.356 . S
N286 C278 1.356 . S
N286 H292 0.984 . S
N286 H293 0.984 . S
N287 C280 1.356 . S
N287 H290 0.984 . S
N287 H291 0.985 . S
H288 N283 0.984 . S
H289 N283 0.985 . S
H290 N287 0.984 . S
H291 N287 0.985 . S
H292 N286 0.984 . S
H293 N286 0.984 . S
H294 N282 0.984 . S
H295 N282 0.985 . S
C296 C297 1.363 1_554 S
C296 C302 1.379 . S
C296 N304 1.356 . S
C297 C296 1.363 1_556 S
C297 C303 1.363 1_455 S
C298 C299 1.363 1_656 S
C298 C303 1.379 . S
C298 N305 1.356 . S
C299 C298 1.363 1_454 S
C299 C302 1.363 . S
N300 C302 1.356 . S
N300 H312 0.984 . S
N300 H313 0.985 . S
N301 C303 1.356 . S
N301 H306 0.984 . S
N301 H307 0.985 . S
C302 C296 1.379 . S
C302 C299 1.363 . S
C302 N300 1.356 . S
C303 C297 1.363 1_655 S
C303 C298 1.379 . S
C303 N301 1.356 . S
N304 C296 1.356 . S
N304 H310 0.984 . S
N304 H311 0.984 1_554 S
N305 C298 1.356 . S
N305 H308 0.984 1_556 S
N305 H309 0.985 . S
H306 N301 0.984 . S
H307 N301 0.985 . S
H308 N305 0.984 1_554 S
H309 N305 0.985 . S
H310 N304 0.984 . S
H311 N304 0.984 1_556 S
H312 N300 0.984 . S
H313 N300 0.985 . S
C314 C315 1.363 . S
C314 C320 1.379 . S
C314 N322 1.356 . S
C315 C314 1.363 . S
C315 C321 1.363 1_545 S
C316 C317 1.363 1_565 S
C316 C321 1.379 . S
C316 N323 1.356 . S
C317 C316 1.363 1_545 S
C317 C320 1.363 . S
N318 C320 1.356 . S
N318 H330 0.984 . S
N318 H331 0.985 . S
N319 C321 1.356 . S
N319 H324 0.984 . S
N319 H325 0.985 . S
C320 C314 1.379 . S
C320 C317 1.363 . S
C320 N318 1.356 . S
C321 C315 1.363 1_565 S
C321 C316 1.379 . S
C321 N319 1.356 . S
N322 C314 1.356 . S
N322 H328 0.984 . S
N322 H329 0.984 . S
N323 C316 1.356 . S
N323 H326 0.984 . S
N323 H327 0.985 . S
H324 N319 0.984 . S
H325 N319 0.985 . S
H326 N323 0.984 . S
H327 N323 0.985 . S
H328 N322 0.984 . S
H329 N322 0.984 . S
H330 N318 0.984 . S
H331 N318 0.985 . S
C332 C333 1.363 1_554 S
C332 C338 1.379 . S
C332 N340 1.356 . S
C333 C332 1.363 1_556 S
C333 C339 1.363 . S
C334 C335 1.363 1_556 S
C334 C339 1.379 . S
C334 N341 1.356 . S
C335 C334 1.363 1_554 S
C335 C338 1.363 . S
N336 C338 1.356 . S
N336 H348 0.984 . S
N336 H349 0.985 . S
N337 C339 1.356 . S
N337 H342 0.984 . S
N337 H343 0.985 . S
C338 C332 1.379 . S
C338 C335 1.363 . S
C338 N336 1.356 . S
C339 C333 1.363 . S
C339 C334 1.379 . S
C339 N337 1.356 . S
N340 C332 1.356 . S
N340 H346 0.984 . S
N340 H347 0.984 . S
N341 C334 1.356 . S
N341 H344 0.984 . S
N341 H345 0.985 . S
H342 N337 0.984 . S
H343 N337 0.985 . S
H344 N341 0.984 . S
H345 N341 0.985 . S
H346 N340 0.984 . S
H347 N340 0.984 . S
H348 N336 0.984 . S
H349 N336 0.985 . S
C350 C351 1.363 . S
C350 C356 1.379 . S
C350 N358 1.356 . S
C351 C350 1.363 . S
C351 C357 1.363 . S
C352 C353 1.363 . S
C352 C357 1.379 . S
C352 N359 1.356 . S
C353 C352 1.363 . S
C353 C356 1.363 . S
N354 C356 1.356 . S
N354 H366 0.984 . S
N354 H367 0.985 . S
N355 C357 1.356 . S
N355 H360 0.984 . S
N355 H361 0.985 . S
C356 C350 1.379 . S
C356 C353 1.363 . S
C356 N354 1.356 . S
C357 C351 1.363 . S
C357 C352 1.379 . S
C357 N355 1.356 . S
N358 C350 1.356 . S
N358 H364 0.984 . S
N358 H365 0.984 . S
N359 C352 1.356 . S
N359 H362 0.984 . S
N359 H363 0.985 . S
H360 N355 0.984 . S
H361 N355 0.985 . S
H362 N359 0.984 . S
H363 N359 0.985 . S
H364 N358 0.984 . S
H365 N358 0.984 . S
H366 N354 0.984 . S
H367 N354 0.985 . S
C368 C369 1.363 . S
C368 C374 1.379 . S
C368 N376 1.356 1_556 S
C369 C368 1.363 . S
C369 C375 1.363 . S
C370 C371 1.363 . S
C370 C375 1.379 . S
C370 N377 1.356 . S
C371 C370 1.363 . S
C371 C374 1.363 . S
N372 C374 1.356 . S
N372 H384 0.984 . S
N372 H385 0.985 . S
N373 C375 1.356 . S
N373 H378 0.984 . S
N373 H379 0.985 . S
C374 C368 1.379 . S
C374 C371 1.363 . S
C374 N372 1.356 . S
C375 C369 1.363 . S
C375 C370 1.379 . S
C375 N373 1.356 . S
N376 C368 1.356 1_554 S
N376 H382 0.984 . S
N376 H383 0.984 . S
N377 C370 1.356 . S
N377 H380 0.984 . S
N377 H381 0.985 . S
H378 N373 0.984 . S
H379 N373 0.985 . S
H380 N377 0.984 . S
H381 N377 0.985 . S
H382 N376 0.984 . S
H383 N376 0.984 . S
H384 N372 0.984 . S
H385 N372 0.985 . S
C386 C387 1.363 . S
C386 C392 1.379 . S
C386 N394 1.356 . S
C387 C386 1.363 . S
C387 C393 1.363 . S
C388 C389 1.363 . S
C388 C393 1.379 . S
C388 N395 1.356 . S
C389 C388 1.363 . S
C389 C392 1.363 . S
N390 C392 1.356 . S
N390 H402 0.984 . S
N390 H403 0.985 . S
N391 C393 1.356 . S
N391 H396 0.984 . S
N391 H397 0.985 . S
C392 C386 1.379 . S
C392 C389 1.363 . S
C392 N390 1.356 . S
C393 C387 1.363 . S
C393 C388 1.379 . S
C393 N391 1.356 . S
N394 C386 1.356 . S
N394 H400 0.984 . S
N394 H401 0.984 . S
N395 C388 1.356 . S
N395 H398 0.984 . S
N395 H399 0.985 . S
H396 N391 0.984 . S
H397 N391 0.985 . S
H398 N395 0.984 . S
H399 N395 0.985 . S
H400 N394 0.984 . S
H401 N394 0.984 . S
H402 N390 0.984 . S
H403 N390 0.985 . S
C404 C405 1.363 . S
C404 C410 1.379 . S
C404 N412 1.356 . S
C405 C404 1.363 . S
C405 C411 1.363 . S
C406 C407 1.363 . S
C406 C411 1.379 . S
C406 N413 1.356 . S
C407 C406 1.363 . S
C407 C410 1.363 . S
N408 C410 1.356 . S
N408 H420 0.984 . S
N408 H421 0.985 . S
N409 C411 1.356 1_554 S
N409 H414 0.984 . S
N409 H415 0.985 . S
C410 C404 1.379 . S
C410 C407 1.363 . S
C410 N408 1.356 . S
C411 C405 1.363 . S
C411 C406 1.379 . S
C411 N409 1.356 1_556 S
N412 C404 1.356 . S
N412 H418 0.984 . S
N412 H419 0.984 . S
N413 C406 1.356 . S
N413 H416 0.984 . S
N413 H417 0.985 . S
H414 N409 0.984 . S
H415 N409 0.985 . S
H416 N413 0.984 . S
H417 N413 0.985 . S
H418 N412 0.984 . S
H419 N412 0.984 . S
H420 N408 0.984 . S
H421 N408 0.985 . S
C422 C423 1.363 . S
C422 C428 1.379 . S
C422 N430 1.356 . S
C423 C422 1.363 . S
C423 C429 1.363 . S
C424 C425 1.363 . S
C424 C429 1.379 . S
C424 N431 1.356 . S
C425 C424 1.363 . S
C425 C428 1.363 . S
N426 C428 1.356 . S
N426 H438 0.984 . S
N426 H439 0.985 . S
N427 C429 1.356 . S
N427 H432 0.984 . S
N427 H433 0.985 . S
C428 C422 1.379 . S
C428 C425 1.363 . S
C428 N426 1.356 . S
C429 C423 1.363 . S
C429 C424 1.379 . S
C429 N427 1.356 . S
N430 C422 1.356 . S
N430 H436 0.984 . S
N430 H437 0.984 . S
N431 C424 1.356 . S
N431 H434 0.984 . S
N431 H435 0.985 . S
H432 N427 0.984 . S
H433 N427 0.985 . S
H434 N431 0.984 . S
H435 N431 0.985 . S
H436 N430 0.984 . S
H437 N430 0.984 . S
H438 N426 0.984 . S
H439 N426 0.985 . S
C440 C441 1.363 . S
C440 C446 1.379 . S
C440 N448 1.356 . S
C441 C440 1.363 . S
C441 C447 1.363 . S
C442 C443 1.363 . S
C442 C447 1.379 . S
C442 N449 1.356 . S
C443 C442 1.363 . S
C443 C446 1.363 . S
N444 C446 1.356 . S
N444 H456 0.982 1_554 S
N444 H457 0.985 1_554 S
N445 C447 1.356 . S
N445 H450 0.984 . S
N445 H451 0.985 . S
C446 C440 1.379 . S
C446 C443 1.363 . S
C446 N444 1.356 . S
C447 C441 1.363 . S
C447 C442 1.379 . S
C447 N445 1.356 . S
N448 C440 1.356 . S
N448 H454 0.984 . S
N448 H455 0.984 . S
N449 C442 1.356 . S
N449 H452 0.984 . S
N449 H453 0.985 . S
H450 N445 0.984 . S
H451 N445 0.985 . S
H452 N449 0.984 . S
H453 N449 0.985 . S
H454 N448 0.984 . S
H455 N448 0.984 . S
H456 N444 0.982 1_556 S
H457 N444 0.985 1_556 S
C458 C459 1.363 . S
C458 C464 1.379 . S
C458 N466 1.356 . S
C459 C458 1.363 . S
C459 C465 1.363 . S
C460 C461 1.363 . S
C460 C465 1.379 . S
C460 N467 1.356 . S
C461 C460 1.363 . S
C461 C464 1.363 . S
N462 C464 1.356 . S
N462 H474 0.984 . S
N462 H475 0.985 . S
N463 C465 1.356 . S
N463 H468 0.984 . S
N463 H469 0.985 . S
C464 C458 1.379 . S
C464 C461 1.363 . S
C464 N462 1.356 . S
C465 C459 1.363 . S
C465 C460 1.379 . S
C465 N463 1.356 . S
N466 C458 1.356 . S
N466 H472 0.984 . S
N466 H473 0.984 . S
N467 C460 1.356 . S
N467 H470 0.984 . S
N467 H471 0.985 . S
H468 N463 0.984 . S
H469 N463 0.985 . S
H470 N467 0.984 . S
H471 N467 0.985 . S
H472 N466 0.984 . S
H473 N466 0.984 . S
H474 N462 0.984 . S
H475 N462 0.985 . S
C476 C477 1.363 . S
C476 C482 1.379 . S
C476 N484 1.356 . S
C477 C476 1.363 . S
C477 C483 1.363 . S
C478 C479 1.363 . S
C478 C483 1.379 . S
C478 N485 1.356 1_554 S
C479 C478 1.363 . S
C479 C482 1.363 . S
N480 C482 1.356 . S
N480 H492 0.984 . S
N480 H493 0.985 . S
N481 C483 1.356 . S
N481 H486 0.984 . S
N481 H487 0.985 . S
C482 C476 1.379 . S
C482 C479 1.363 . S
C482 N480 1.356 . S
C483 C477 1.363 . S
C483 C478 1.379 . S
C483 N481 1.356 . S
N484 C476 1.356 . S
N484 H490 0.984 . S
N484 H491 0.984 . S
N485 C478 1.356 1_556 S
N485 H488 0.984 . S
N485 H489 0.985 . S
H486 N481 0.984 . S
H487 N481 0.985 . S
H488 N485 0.984 . S
H489 N485 0.985 . S
H490 N484 0.984 . S
H491 N484 0.984 . S
H492 N480 0.984 . S
H493 N480 0.985 . S
C494 C495 1.363 . S
C494 C500 1.379 . S
C494 N502 1.356 . S
C495 C494 1.363 . S
C495 C501 1.363 . S
C496 C497 1.363 . S
C496 C501 1.379 . S
C496 N503 1.356 . S
C497 C496 1.363 . S
C497 C500 1.363 . S
N498 C500 1.356 . S
N498 H510 0.984 . S
N498 H511 0.985 . S
N499 C501 1.356 . S
N499 H504 0.984 . S
N499 H505 0.985 . S
C500 C494 1.379 . S
C500 C497 1.363 . S
C500 N498 1.356 . S
C501 C495 1.363 . S
C501 C496 1.379 . S
C501 N499 1.356 . S
N502 C494 1.356 . S
N502 H508 0.984 . S
N502 H509 0.984 . S
N503 C496 1.356 . S
N503 H506 0.984 . S
N503 H507 0.985 . S
H504 N499 0.984 . S
H505 N499 0.985 . S
H506 N503 0.984 . S
H507 N503 0.985 . S
H508 N502 0.984 . S
H509 N502 0.984 . S
H510 N498 0.984 . S
H511 N498 0.985 . S
C512 C513 1.363 . S
C512 C518 1.379 . S
C512 N520 1.356 . S
C513 C512 1.363 . S
C513 C519 1.363 . S
C514 C515 1.363 . S
C514 C519 1.379 . S
C514 N521 1.356 . S
C515 C514 1.363 . S
C515 C518 1.363 . S
N516 C518 1.356 . S
N516 H528 0.984 . S
N516 H529 0.985 . S
N517 C519 1.356 . S
N517 H522 0.984 . S
N517 H523 0.985 . S
C518 C512 1.379 . S
C518 C515 1.363 . S
C518 N516 1.356 . S
C519 C513 1.363 . S
C519 C514 1.379 . S
C519 N517 1.356 . S
N520 C512 1.356 . S
N520 H526 0.984 . S
N520 H527 0.984 . S
N521 C514 1.356 . S
N521 H524 0.984 . S
N521 H525 0.985 . S
H522 N517 0.984 . S
H523 N517 0.985 . S
H524 N521 0.984 . S
H525 N521 0.985 . S
H526 N520 0.984 . S
H527 N520 0.984 . S
H528 N516 0.984 . S
H529 N516 0.985 . S
C530 C531 1.363 . S
C530 C536 1.379 . S
C530 N538 1.356 . S
C531 C530 1.363 . S
C531 C537 1.363 . S
C532 C533 1.363 . S
C532 C537 1.379 . S
C532 N539 1.356 . S
C533 C532 1.363 . S
C533 C536 1.363 . S
N534 C536 1.356 . S
N534 H546 0.984 . S
N534 H547 0.985 . S
N535 C537 1.356 . S
N535 H540 0.984 . S
N535 H541 0.985 . S
C536 C530 1.379 . S
C536 C533 1.363 . S
C536 N534 1.356 . S
C537 C531 1.363 . S
C537 C532 1.379 . S
C537 N535 1.356 . S
N538 C530 1.356 . S
N538 H544 0.984 . S
N538 H545 0.984 . S
N539 C532 1.356 . S
N539 H542 0.984 . S
N539 H543 0.985 . S
H540 N535 0.984 . S
H541 N535 0.985 . S
H542 N539 0.984 . S
H543 N539 0.985 . S
H544 N538 0.984 . S
H545 N538 0.984 . S
H546 N534 0.984 . S
H547 N534 0.985 . S
C548 C549 1.363 . S
C548 C554 1.379 . S
C548 N556 1.356 . S
C549 C548 1.363 . S
C549 C555 1.363 . S
C550 C551 1.363 . S
C550 C555 1.379 . S
C550 N557 1.356 . S
C551 C550 1.363 . S
C551 C554 1.363 . S
N552 C554 1.356 . S
N552 H564 0.984 . S
N552 H565 0.985 . S
N553 C555 1.356 . S
N553 H558 0.984 . S
N553 H559 0.985 . S
C554 C548 1.379 . S
C554 C551 1.363 . S
C554 N552 1.356 . S
C555 C549 1.363 . S
C555 C550 1.379 . S
C555 N553 1.356 . S
N556 C548 1.356 . S
N556 H562 0.984 . S
N556 H563 0.984 . S
N557 C550 1.356 . S
N557 H560 0.984 . S
N557 H561 0.985 . S
H558 N553 0.984 . S
H559 N553 0.985 . S
H560 N557 0.984 . S
H561 N557 0.985 . S
H562 N556 0.984 . S
H563 N556 0.984 . S
H564 N552 0.984 . S
H565 N552 0.985 . S
C566 C567 1.363 . S
C566 C572 1.379 . S
C566 N574 1.356 . S
C567 C566 1.363 . S
C567 C573 1.363 . S
C568 C569 1.363 . S
C568 C573 1.379 . S
C568 N575 1.356 . S
C569 C568 1.363 . S
C569 C572 1.363 . S
N570 C572 1.356 . S
N570 H582 0.984 . S
N570 H583 0.985 . S
N571 C573 1.356 . S
N571 H576 0.984 . S
N571 H577 0.985 . S
C572 C566 1.379 . S
C572 C569 1.363 . S
C572 N570 1.356 . S
C573 C567 1.363 . S
C573 C568 1.379 . S
C573 N571 1.356 . S
N574 C566 1.356 . S
N574 H580 0.984 . S
N574 H581 0.984 . S
N575 C568 1.356 . S
N575 H578 0.984 . S
N575 H579 0.985 . S
H576 N571 0.984 . S
H577 N571 0.985 . S
H578 N575 0.984 . S
H579 N575 0.985 . S
H580 N574 0.984 . S
H581 N574 0.984 . S
H582 N570 0.984 . S
H583 N570 0.985 . S
C584 C585 1.363 . S
C584 C590 1.379 . S
C584 N592 1.356 . S
C585 C584 1.363 . S
C585 C591 1.363 . S
C586 C587 1.363 . S
C586 C591 1.379 . S
C586 N593 1.356 . S
C587 C586 1.363 . S
C587 C590 1.363 . S
N588 C590 1.356 . S
N588 H600 0.984 . S
N588 H601 0.985 1_556 S
N589 C591 1.356 . S
N589 H594 0.984 . S
N589 H595 0.985 . S
C590 C584 1.379 . S
C590 C587 1.363 . S
C590 N588 1.356 . S
C591 C585 1.363 . S
C591 C586 1.379 . S
C591 N589 1.356 . S
N592 C584 1.356 . S
N592 H598 0.984 . S
N592 H599 0.984 . S
N593 C586 1.356 . S
N593 H596 0.984 . S
N593 H597 0.985 . S
H594 N589 0.984 . S
H595 N589 0.985 . S
H596 N593 0.984 . S
H597 N593 0.985 . S
H598 N592 0.984 . S
H599 N592 0.984 . S
H600 N588 0.984 . S
H601 N588 0.985 1_554 S
C602 C603 1.363 . S
C602 C608 1.379 . S
C602 N610 1.356 . S
C603 C602 1.363 . S
C603 C609 1.363 . S
C604 C605 1.363 . S
C604 C609 1.379 . S
C604 N611 1.356 . S
C605 C604 1.363 . S
C605 C608 1.363 . S
N606 C608 1.356 . S
N606 H618 0.984 . S
N606 H619 0.985 . S
N607 C609 1.356 . S
N607 H612 0.984 . S
N607 H613 0.985 . S
C608 C602 1.379 . S
C608 C605 1.363 . S
C608 N606 1.356 . S
C609 C603 1.363 . S
C609 C604 1.379 . S
C609 N607 1.356 . S
N610 C602 1.356 . S
N610 H616 0.984 . S
N610 H617 0.984 . S
N611 C604 1.356 . S
N611 H614 0.984 . S
N611 H615 0.985 . S
H612 N607 0.984 . S
H613 N607 0.985 . S
H614 N611 0.984 . S
H615 N611 0.985 . S
H616 N610 0.984 . S
H617 N610 0.984 . S
H618 N606 0.984 . S
H619 N606 0.985 . S
C620 C621 1.363 . S
C620 C626 1.379 . S
C620 N628 1.356 . S
C621 C620 1.363 . S
C621 C627 1.363 . S
C622 C623 1.363 . S
C622 C627 1.379 . S
C622 N629 1.356 . S
C623 C622 1.363 . S
C623 C626 1.363 . S
N624 C626 1.356 . S
N624 H636 0.984 . S
N624 H637 0.985 . S
N625 C627 1.356 1_554 S
N625 H630 0.984 . S
N625 H631 0.985 . S
C626 C620 1.379 . S
C626 C623 1.363 . S
C626 N624 1.356 . S
C627 C621 1.363 . S
C627 C622 1.379 . S
C627 N625 1.356 1_556 S
N628 C620 1.356 . S
N628 H634 0.984 . S
N628 H635 0.984 . S
N629 C622 1.356 . S
N629 H632 0.984 . S
N629 H633 0.985 . S
H630 N625 0.984 . S
H631 N625 0.985 . S
H632 N629 0.984 . S
H633 N629 0.985 . S
H634 N628 0.984 . S
H635 N628 0.984 . S
H636 N624 0.984 . S
H637 N624 0.985 . S
C638 C639 1.363 . S
C638 C644 1.379 . S
C638 N646 1.356 . S
C639 C638 1.363 . S
C639 C645 1.363 . S
C640 C641 1.363 . S
C640 C645 1.379 . S
C640 N647 1.356 . S
C641 C640 1.363 . S
C641 C644 1.363 . S
N642 C644 1.356 . S
N642 H654 0.984 . S
N642 H655 0.985 . S
N643 C645 1.356 . S
N643 H648 0.984 . S
N643 H649 0.985 . S
C644 C638 1.379 . S
C644 C641 1.363 . S
C644 N642 1.356 . S
C645 C639 1.363 . S
C645 C640 1.379 . S
C645 N643 1.356 . S
N646 C638 1.356 . S
N646 H652 0.984 . S
N646 H653 0.984 . S
N647 C640 1.356 . S
N647 H650 0.984 . S
N647 H651 0.985 . S
H648 N643 0.984 . S
H649 N643 0.985 . S
H650 N647 0.984 . S
H651 N647 0.985 . S
H652 N646 0.984 . S
H653 N646 0.984 . S
H654 N642 0.984 . S
H655 N642 0.985 . S
C656 C657 1.363 . S
C656 C662 1.379 . S
C656 N664 1.356 . S
C657 C656 1.363 . S
C657 C663 1.363 . S
C658 C659 1.363 . S
C658 C663 1.379 . S
C658 N665 1.356 . S
C659 C658 1.363 . S
C659 C662 1.363 . S
N660 C662 1.356 . S
N660 H672 0.984 . S
N660 H673 0.985 . S
N661 C663 1.356 . S
N661 H666 0.984 . S
N661 H667 0.985 . S
C662 C656 1.379 . S
C662 C659 1.363 . S
C662 N660 1.356 . S
C663 C657 1.363 . S
C663 C658 1.379 . S
C663 N661 1.356 . S
N664 C656 1.356 . S
N664 H670 0.984 . S
N664 H671 0.984 . S
N665 C658 1.356 . S
N665 H668 0.984 . S
N665 H669 0.985 . S
H666 N661 0.984 . S
H667 N661 0.985 . S
H668 N665 0.984 . S
H669 N665 0.985 . S
H670 N664 0.984 . S
H671 N664 0.984 . S
H672 N660 0.984 . S
H673 N660 0.985 . S
C674 C675 1.363 . S
C674 C680 1.379 . S
C674 N682 1.356 . S
C675 C674 1.363 . S
C675 C681 1.363 . S
C676 C677 1.363 . S
C676 C681 1.379 . S
C676 N683 1.356 . S
C677 C676 1.363 . S
C677 C680 1.363 . S
N678 C680 1.356 . S
N678 H690 0.984 . S
N678 H691 0.985 . S
N679 C681 1.356 . S
N679 H684 0.984 . S
N679 H685 0.985 . S
C680 C674 1.379 . S
C680 C677 1.363 . S
C680 N678 1.356 . S
C681 C675 1.363 . S
C681 C676 1.379 . S
C681 N679 1.356 . S
N682 C674 1.356 . S
N682 H688 0.984 . S
N682 H689 0.984 . S
N683 C676 1.356 . S
N683 H686 0.984 . S
N683 H687 0.985 . S
H684 N679 0.984 . S
H685 N679 0.985 . S
H686 N683 0.984 . S
H687 N683 0.985 . S
H688 N682 0.984 . S
H689 N682 0.984 . S
H690 N678 0.984 . S
H691 N678 0.985 . S
C692 C693 1.363 . S
C692 C698 1.379 . S
C692 N700 1.356 . S
C693 C692 1.363 . S
C693 C699 1.363 . S
C694 C695 1.363 . S
C694 C699 1.379 . S
C694 N701 1.356 . S
C695 C694 1.363 . S
C695 C698 1.363 . S
N696 C698 1.356 . S
N696 H708 0.984 . S
N696 H709 0.985 . S
N697 C699 1.356 . S
N697 H702 0.984 . S
N697 H703 0.985 . S
C698 C692 1.379 . S
C698 C695 1.363 . S
C698 N696 1.356 . S
C699 C693 1.363 . S
C699 C694 1.379 . S
C699 N697 1.356 . S
N700 C692 1.356 . S
N700 H706 0.984 . S
N700 H707 0.984 . S
N701 C694 1.356 . S
N701 H704 0.984 . S
N701 H705 0.985 . S
H702 N697 0.984 . S
H703 N697 0.985 . S
H704 N701 0.984 . S
H705 N701 0.985 . S
H706 N700 0.984 . S
H707 N700 0.984 . S
H708 N696 0.984 . S
H709 N696 0.985 . S
C710 C711 1.363 . S
C710 C716 1.379 . S
C710 N718 1.356 . S
C711 C710 1.363 . S
C711 C717 1.363 . S
C712 C713 1.363 . S
C712 C717 1.379 . S
C712 N719 1.356 . S
C713 C712 1.363 . S
C713 C716 1.363 . S
N714 C716 1.356 . S
N714 H726 0.984 . S
N714 H727 0.985 . S
N715 C717 1.356 . S
N715 H720 0.984 . S
N715 H721 0.985 . S
C716 C710 1.379 . S
C716 C713 1.363 . S
C716 N714 1.356 . S
C717 C711 1.363 . S
C717 C712 1.379 . S
C717 N715 1.356 . S
N718 C710 1.356 . S
N718 H724 0.984 . S
N718 H725 0.984 . S
N719 C712 1.356 . S
N719 H722 0.984 . S
N719 H723 0.985 . S
H720 N715 0.984 . S
H721 N715 0.985 . S
H722 N719 0.984 . S
H723 N719 0.985 . S
H724 N718 0.984 . S
H725 N718 0.984 . S
H726 N714 0.984 . S
H727 N714 0.985 . S
C728 C729 1.363 . S
C728 C734 1.379 . S
C728 N736 1.356 . S
C729 C728 1.363 . S
C729 C735 1.363 . S
C730 C731 1.363 . S
C730 C735 1.379 . S
C730 N737 1.356 . S
C731 C730 1.363 . S
C731 C734 1.363 . S
N732 C734 1.356 . S
N732 H744 0.984 . S
N732 H745 0.985 . S
N733 C735 1.356 . S
N733 H738 0.984 . S
N733 H739 0.985 . S
C734 C728 1.379 . S
C734 C731 1.363 . S
C734 N732 1.356 . S
C735 C729 1.363 . S
C735 C730 1.379 . S
C735 N733 1.356 . S
N736 C728 1.356 . S
N736 H742 0.984 . S
N736 H743 0.984 . S
N737 C730 1.356 . S
N737 H740 0.984 . S
N737 H741 0.985 . S
H738 N733 0.984 . S
H739 N733 0.985 . S
H740 N737 0.984 . S
H741 N737 0.985 . S
H742 N736 0.984 . S
H743 N736 0.984 . S
H744 N732 0.984 . S
H745 N732 0.985 . S
C746 C747 1.363 . S
C746 C752 1.379 . S
C746 N754 1.356 . S
C747 C746 1.363 . S
C747 C753 1.363 . S
C748 C749 1.363 . S
C748 C753 1.379 . S
C748 N755 1.356 . S
C749 C748 1.363 . S
C749 C752 1.363 . S
N750 C752 1.356 . S
N750 H762 0.984 . S
N750 H763 0.985 . S
N751 C753 1.356 . S
N751 H756 0.984 . S
N751 H757 0.985 . S
C752 C746 1.379 . S
C752 C749 1.363 . S
C752 N750 1.356 . S
C753 C747 1.363 . S
C753 C748 1.379 . S
C753 N751 1.356 . S
N754 C746 1.356 . S
N754 H760 0.984 . S
N754 H761 0.984 . S
N755 C748 1.356 . S
N755 H758 0.984 . S
N755 H759 0.985 . S
H756 N751 0.984 . S
H757 N751 0.985 . S
H758 N755 0.984 . S
H759 N755 0.985 . S
H760 N754 0.984 . S
H761 N754 0.984 . S
H762 N750 0.984 . S
H763 N750 0.985 . S
C764 C765 1.363 . S
C764 C770 1.379 . S
C764 N772 1.356 . S
C765 C764 1.363 . S
C765 C771 1.363 . S
C766 C767 1.363 . S
C766 C771 1.379 . S
C766 N773 1.356 . S
C767 C766 1.363 . S
C767 C770 1.363 . S
N768 C770 1.356 . S
N768 H780 0.984 . S
N768 H781 0.985 . S
N769 C771 1.356 . S
N769 H774 0.984 . S
N769 H775 0.985 . S
C770 C764 1.379 . S
C770 C767 1.363 . S
C770 N768 1.356 . S
C771 C765 1.363 . S
C771 C766 1.379 . S
C771 N769 1.356 . S
N772 C764 1.356 . S
N772 H778 0.984 . S
N772 H779 0.984 . S
N773 C766 1.356 . S
N773 H776 0.984 . S
N773 H777 0.985 . S
H774 N769 0.984 . S
H775 N769 0.985 . S
H776 N773 0.984 . S
H777 N773 0.985 . S
H778 N772 0.984 . S
H779 N772 0.984 . S
H780 N768 0.984 . S
H781 N768 0.985 . S
C782 C783 1.363 . S
C782 C788 1.379 . S
C782 N790 1.356 . S
C783 C782 1.363 . S
C783 C789 1.363 . S
C784 C785 1.363 . S
C784 C789 1.379 . S
C784 N791 1.356 . S
C785 C784 1.363 . S
C785 C788 1.363 . S
N786 C788 1.356 . S
N786 H798 0.984 . S
N786 H799 0.985 . S
N787 C789 1.356 . S
N787 H792 0.984 . S
N787 H793 0.985 . S
C788 C782 1.379 . S
C788 C785 1.363 . S
C788 N786 1.356 . S
C789 C783 1.363 . S
C789 C784 1.379 . S
C789 N787 1.356 . S
N790 C782 1.356 . S
N790 H796 0.984 . S
N790 H797 0.984 . S
N791 C784 1.356 . S
N791 H794 0.984 . S
N791 H795 0.985 . S
H792 N787 0.984 . S
H793 N787 0.985 . S
H794 N791 0.984 . S
H795 N791 0.985 . S
H796 N790 0.984 . S
H797 N790 0.984 . S
H798 N786 0.984 . S
H799 N786 0.985 . S
C225 C11 1.220 1_655 S
C227 C67 1.220 1_655 S
C243 C81 1.220 1_565 S
C245 C25 1.220 1_565 S
C261 C39 1.220 . S
C263 C95 1.220 . S
C279 C53 1.220 . S
C281 C109 1.220 . S
C297 C123 1.220 1_455 S
C299 C179 1.220 1_455 S
C315 C193 1.220 1_545 S
C317 C137 1.221 1_545 S
C333 C151 1.220 . S
C335 C207 1.220 . S
C351 C165 1.221 . S
C353 C221 1.220 . S
C369 C9 1.494 . S
C371 C215 1.486 . S
C387 C173 1.486 . S
C389 C23 1.494 . S
C405 C37 1.494 . S
C407 C187 1.486 . S
C423 C201 1.486 . S
C425 C51 1.495 . S
C441 C131 1.486 . S
C443 C65 1.494 . S
C459 C145 1.486 . S
C461 C79 1.494 . S
C477 C159 1.486 . S
C479 C93 1.494 . S
C495 C117 1.486 . S
C497 C107 1.495 . S
C513 C121 1.495 . S
C515 C103 1.486 . S
C531 C61 1.486 . S
C533 C135 1.494 . S
C549 C75 1.486 . S
C551 C149 1.494 . S
C567 C163 1.494 . S
C569 C89 1.486 . S
C585 C19 1.486 . S
C587 C177 1.494 . S
C603 C191 1.494 . S
C605 C33 1.486 . S
C621 C205 1.495 . S
C623 C47 1.486 . S
C639 C219 1.494 . S
C641 C5 1.486 . S
C657 C98 1.235 . S
C659 C0 1.235 . S
C675 C14 1.235 . S
C677 C56 1.235 . S
C693 C28 1.235 . S
C695 C70 1.235 . S
C711 C42 1.235 . S
C713 C84 1.235 . S
C729 C210 1.235 . S
C731 C112 1.235 . S
C747 C168 1.235 . S
C749 C126 1.235 . S
C765 C182 1.235 . S
C767 C140 1.235 . S
C783 C196 1.235 . S
C785 C154 1.235 . S
