# Generated by pormake.
# Topology wjh, (4)-cn, num edge types: 1
# Building blocks:
#     Node 0, Type 0, BuildingBlock: GALJAG_clean_sbu_0, # of connection points: 4
#     Node 1, Type 0, BuildingBlock: GALJAG_clean_sbu_0, # of connection points: 4
#     Node 2, Type 0, BuildingBlock: GALJAG_clean_sbu_0, # of connection points: 4
#     Node 3, Type 0, BuildingBlock: GALJAG_clean_sbu_0, # of connection points: 4
#     Node 4, Type 0, BuildingBlock: GALJAG_clean_sbu_0, # of connection points: 4
#     Node 5, Type 0, BuildingBlock: GALJAG_clean_sbu_0, # of connection points: 4
#     Node 6, Type 0, BuildingBlock: GALJAG_clean_sbu_0, # of connection points: 4
#     Node 7, Type 0, BuildingBlock: GALJAG_clean_sbu_0, # of connection points: 4
#     Node 8, Type 0, BuildingBlock: GALJAG_clean_sbu_0, # of connection points: 4
#     Node 9, Type 0, BuildingBlock: GALJAG_clean_sbu_0, # of connection points: 4
#     Node 10, Type 0, BuildingBlock: GALJAG_clean_sbu_0, # of connection points: 4
#     Node 11, Type 0, BuildingBlock: GALJAG_clean_sbu_0, # of connection points: 4
#     Edge 12, Type (0, 0), BuildingBlock: EZIPEK_clean_linker_0, # of connection points: 2
#     Edge 13, Type (0, 0), BuildingBlock: EZIPEK_clean_linker_0, # of connection points: 2
#     Edge 14, Type (0, 0), BuildingBlock: EZIPEK_clean_linker_0, # of connection points: 2
#     Edge 15, Type (0, 0), BuildingBlock: EZIPEK_clean_linker_0, # of connection points: 2
#     Edge 16, Type (0, 0), BuildingBlock: EZIPEK_clean_linker_0, # of connection points: 2
#     Edge 17, Type (0, 0), BuildingBlock: EZIPEK_clean_linker_0, # of connection points: 2
#     Edge 18, Type (0, 0), BuildingBlock: EZIPEK_clean_linker_0, # of connection points: 2
#     Edge 19, Type (0, 0), BuildingBlock: EZIPEK_clean_linker_0, # of connection points: 2
#     Edge 20, Type (0, 0), BuildingBlock: EZIPEK_clean_linker_0, # of connection points: 2
#     Edge 21, Type (0, 0), BuildingBlock: EZIPEK_clean_linker_0, # of connection points: 2
#     Edge 22, Type (0, 0), BuildingBlock: EZIPEK_clean_linker_0, # of connection points: 2
#     Edge 23, Type (0, 0), BuildingBlock: EZIPEK_clean_linker_0, # of connection points: 2
#     Edge 24, Type (0, 0), BuildingBlock: EZIPEK_clean_linker_0, # of connection points: 2
#     Edge 25, Type (0, 0), BuildingBlock: EZIPEK_clean_linker_0, # of connection points: 2
#     Edge 26, Type (0, 0), BuildingBlock: EZIPEK_clean_linker_0, # of connection points: 2
#     Edge 27, Type (0, 0), BuildingBlock: EZIPEK_clean_linker_0, # of connection points: 2
#     Edge 28, Type (0, 0), BuildingBlock: EZIPEK_clean_linker_0, # of connection points: 2
#     Edge 29, Type (0, 0), BuildingBlock: EZIPEK_clean_linker_0, # of connection points: 2
#     Edge 30, Type (0, 0), BuildingBlock: EZIPEK_clean_linker_0, # of connection points: 2
#     Edge 31, Type (0, 0), BuildingBlock: EZIPEK_clean_linker_0, # of connection points: 2
#     Edge 32, Type (0, 0), BuildingBlock: EZIPEK_clean_linker_0, # of connection points: 2
#     Edge 33, Type (0, 0), BuildingBlock: EZIPEK_clean_linker_0, # of connection points: 2
#     Edge 34, Type (0, 0), BuildingBlock: EZIPEK_clean_linker_0, # of connection points: 2
#     Edge 35, Type (0, 0), BuildingBlock: EZIPEK_clean_linker_0, # of connection points: 2
# Relax obj value: 0.053
# Max RMSD: 0.092
# Mean RMSD: 0.092
data_MOF--net-wjh--node1-GALJAG_clean_sbu_0--edge1-EZIPEK_clean_linker_0
_symmetry_space_group_name_H-M    P1
_symmetry_Int_Tables_number       1
_symmetry_cell_setting            triclinic
loop_
_symmetry_equiv_pos_as_xyz
'x, y, z'
_cell_length_a     44.454694
_cell_length_b     44.334858
_cell_length_c     20.370753
_cell_angle_alpha  89.998915
_cell_angle_beta   90.030418
_cell_angle_gamma 120.29598
loop_
_atom_site_label
_atom_site_type_symbol
_atom_site_fract_x
_atom_site_fract_y
_atom_site_fract_z
_atom_type_partial_charge
In0 In 0.51402 0.13715 0.05775 0.0
O1 O 0.55943 0.15182 0.98776 0.0
O2 O 0.51131 0.14293 0.94714 0.0
C3 C 0.53792 0.13431 0.17746 0.0
C4 C 0.46841 0.06824 0.05007 0.0
C5 C 0.5071 0.19263 0.0842 0.0
O6 O 0.55615 0.13963 0.12635 0.0
O7 O 0.50824 0.13041 0.16746 0.0
O8 O 0.48113 0.16301 0.07066 0.0
O9 O 0.53641 0.19469 0.07981 0.0
C10 C 0.5422 0.1498 0.93683 0.0
O11 O 0.45865 0.08996 0.0623 0.0
O12 O 0.50048 0.0815 0.03862 0.0
In13 In 0.36597 0.51252 0.20917 0.0
O14 O 0.40329 0.55835 0.14446 0.0
O15 O 0.36014 0.51515 0.09798 0.0
C16 C 0.39227 0.53917 0.3282 0.0
C17 C 0.38601 0.46535 0.19484 0.0
C18 C 0.30175 0.49944 0.24071 0.0
O19 O 0.39267 0.55813 0.28146 0.0
O20 O 0.38018 0.50752 0.31381 0.0
O21 O 0.30987 0.47599 0.24232 0.0
O22 O 0.32497 0.52848 0.21846 0.0
C23 C 0.38738 0.54465 0.09154 0.0
O24 O 0.35446 0.45707 0.18773 0.0
O25 O 0.40708 0.49716 0.20671 0.0
In26 In 0.8454 0.37624 0.37018 0.0
O27 O 0.83928 0.41359 0.30139 0.0
O28 O 0.83661 0.36845 0.25913 0.0
C29 C 0.84656 0.40698 0.48504 0.0
C30 C 0.91145 0.39193 0.35784 0.0
C31 C 0.79536 0.31215 0.40865 0.0
O32 O 0.82234 0.39823 0.44378 0.0
O33 O 0.87086 0.40234 0.46636 0.0
O34 O 0.82711 0.3209 0.40746 0.0
O35 O 0.78866 0.3347 0.38668 0.0
C36 C 0.83642 0.39649 0.24995 0.0
O37 O 0.88672 0.36051 0.35796 0.0
O38 O 0.9027 0.41487 0.36224 0.0
In39 In 0.46501 0.85304 0.5533 0.0
O40 O 0.41633 0.83564 0.49026 0.0
O41 O 0.46423 0.85093 0.44116 0.0
C42 C 0.44083 0.84958 0.67616 0.0
C43 C 0.51121 0.9221 0.55413 0.0
C44 C 0.47709 0.80009 0.5655 0.0
O45 O 0.42518 0.85204 0.62639 0.0
O46 O 0.46778 0.84819 0.66354 0.0
O47 O 0.50125 0.83059 0.55126 0.0
O48 O 0.44687 0.79598 0.56808 0.0
C49 C 0.43214 0.84055 0.43629 0.0
O50 O 0.52066 0.89969 0.55873 0.0
O51 O 0.47894 0.9097 0.54709 0.0
In52 In 0.61023 0.47727 0.71489 0.0
O53 O 0.57843 0.43145 0.64559 0.0
O54 O 0.61719 0.47976 0.6038 0.0
C55 C 0.58441 0.45376 0.83538 0.0
C56 C 0.58731 0.5228 0.71056 0.0
C57 C 0.67284 0.48482 0.74028 0.0
O58 O 0.57103 0.43515 0.78467 0.0
O59 O 0.61018 0.48357 0.82451 0.0
O60 O 0.6694 0.51048 0.72401 0.0
O61 O 0.64527 0.45535 0.73837 0.0
C62 C 0.59294 0.44868 0.59417 0.0
O63 O 0.61897 0.53267 0.72142 0.0
O64 O 0.56815 0.4907 0.69853 0.0
In65 In 0.13161 0.61108 0.87561 0.0
O66 O 0.13745 0.57257 0.80926 0.0
O67 O 0.13942 0.61674 0.76416 0.0
C68 C 0.13256 0.58198 0.99148 0.0
C69 C 0.06567 0.59589 0.86347 0.0
C70 C 0.18086 0.67641 0.90974 0.0
O71 O 0.15725 0.59247 0.95081 0.0
O72 O 0.10694 0.58422 0.97188 0.0
O73 O 0.14878 0.66594 0.91415 0.0
O74 O 0.18812 0.65475 0.88524 0.0
C75 C 0.13985 0.58873 0.75676 0.0
O76 O 0.09069 0.62705 0.85936 0.0
O77 O 0.074 0.57286 0.87206 0.0
In78 In 0.84959 0.48036 0.86926 0.0
O79 O 0.89564 0.53616 0.87849 0.0
O80 O 0.90595 0.49455 0.86296 0.0
C81 C 0.79567 0.48973 0.84441 0.0
C82 C 0.84028 0.45118 0.98961 0.0
C83 C 0.84704 0.45381 0.74999 0.0
O84 O 0.8254 0.51507 0.85886 0.0
O85 O 0.79279 0.46001 0.84739 0.0
O86 O 0.83696 0.43475 0.80077 0.0
O87 O 0.85875 0.48591 0.75992 0.0
C88 C 0.91802 0.52688 0.87047 0.0
O89 O 0.83878 0.43493 0.93773 0.0
O90 O 0.84585 0.48175 0.981 0.0
In91 In 0.3622 0.84886 0.05289 0.0
O92 O 0.3555 0.89676 0.06342 0.0
O93 O 0.40656 0.90444 0.05136 0.0
C94 C 0.29812 0.79727 0.02218 0.0
C95 C 0.3776 0.83877 0.17672 0.0
C96 C 0.38883 0.84481 0.93764 0.0
O97 O 0.30489 0.82843 0.0291 0.0
O98 O 0.32289 0.79198 0.03492 0.0
O99 O 0.39499 0.83352 0.99001 0.0
O100 O 0.3698 0.85816 0.94367 0.0
C101 C 0.38782 0.91807 0.05796 0.0
O102 O 0.39708 0.84298 0.12833 0.0
O103 O 0.34945 0.83766 0.16223 0.0
In104 In 0.50988 0.37391 0.21419 0.0
O105 O 0.45336 0.36198 0.21902 0.0
O106 O 0.49402 0.41487 0.20752 0.0
C107 C 0.50269 0.31114 0.18977 0.0
C108 C 0.53851 0.39417 0.33495 0.0
C109 C 0.53749 0.40045 0.09687 0.0
O110 O 0.47671 0.31471 0.20112 0.0
O111 O 0.53199 0.33855 0.19526 0.0
O112 O 0.55463 0.41263 0.14936 0.0
O113 O 0.50682 0.37537 0.1037 0.0
C114 C 0.46179 0.39359 0.21159 0.0
O115 O 0.55505 0.40829 0.28295 0.0
O116 O 0.50775 0.36933 0.32643 0.0
In117 In 0.12814 0.50659 0.37474 0.0
O118 O 0.08117 0.4512 0.37483 0.0
O119 O 0.0722 0.49418 0.37201 0.0
C120 C 0.18119 0.49557 0.35249 0.0
C121 C 0.13669 0.53379 0.49677 0.0
C122 C 0.13251 0.53488 0.25614 0.0
O123 O 0.15084 0.47061 0.36425 0.0
O124 O 0.18507 0.52567 0.35732 0.0
O125 O 0.14147 0.55318 0.30791 0.0
O126 O 0.12123 0.50279 0.26468 0.0
C127 C 0.05937 0.4615 0.37208 0.0
O128 O 0.14014 0.55138 0.44569 0.0
O129 O 0.12969 0.50283 0.48653 0.0
In130 In 0.61584 0.14037 0.55835 0.0
O131 O 0.58301 0.15396 0.62482 0.0
O132 O 0.62108 0.14514 0.67015 0.0
C133 C 0.58987 0.1398 0.43963 0.0
C134 C 0.59135 0.07159 0.56687 0.0
C135 C 0.67988 0.19322 0.53051 0.0
O136 O 0.58101 0.15014 0.48992 0.0
O137 O 0.61117 0.12944 0.4493 0.0
O138 O 0.67414 0.1627 0.54127 0.0
O139 O 0.65418 0.19748 0.53897 0.0
C140 C 0.59677 0.15172 0.67743 0.0
O141 O 0.62364 0.09339 0.57025 0.0
O142 O 0.57192 0.0845 0.56106 0.0
In143 In 0.46661 0.61771 0.70939 0.0
O144 O 0.52258 0.62981 0.7266 0.0
O145 O 0.48174 0.57668 0.71527 0.0
C146 C 0.47757 0.68046 0.67208 0.0
C147 C 0.43938 0.60067 0.83171 0.0
C148 C 0.4391 0.58897 0.59239 0.0
O149 O 0.50194 0.67362 0.67389 0.0
O150 O 0.44856 0.65664 0.69335 0.0
O151 O 0.42029 0.58907 0.63896 0.0
O152 O 0.47081 0.60173 0.60628 0.0
C153 C 0.51382 0.59786 0.7232 0.0
O154 O 0.42607 0.58038 0.78321 0.0
O155 O 0.46519 0.6302 0.81786 0.0
C156 C 0.53055 0.10845 0.29067 0.0
C157 C 0.55108 0.13552 0.24494 0.0
C158 C 0.59635 0.16592 0.32855 0.0
C159 C 0.57588 0.13903 0.3738 0.0
N160 N 0.52607 0.08294 0.39851 0.0
N161 N 0.59873 0.19419 0.22558 0.0
C162 C 0.54349 0.10996 0.35523 0.0
C163 C 0.58287 0.16528 0.26504 0.0
N164 N 0.4983 0.08174 0.27304 0.0
N165 N 0.62912 0.1917 0.34591 0.0
H166 H 0.58897 0.19583 0.18005 0.0
H167 H 0.61966 0.21803 0.24051 0.0
H168 H 0.63928 0.19411 0.39305 0.0
H169 H 0.64722 0.20932 0.3126 0.0
H170 H 0.4802 0.06379 0.3058 0.0
H171 H 0.48829 0.07814 0.22578 0.0
H172 H 0.50464 0.05889 0.38637 0.0
H173 H 0.53427 0.08362 0.44675 0.0
C174 C 0.38219 0.53387 0.45018 0.0
C175 C 0.40367 0.55243 0.39576 0.0
C176 C 0.445 0.5976 0.47031 0.0
C177 C 0.42595 0.57674 0.52504 0.0
N178 N 0.38011 0.52133 0.56612 0.0
N179 N 0.45938 0.59806 0.35582 0.0
C180 C 0.39547 0.54389 0.51484 0.0
C181 C 0.43612 0.58329 0.40621 0.0
N182 N 0.34868 0.50741 0.44063 0.0
N183 N 0.47088 0.63153 0.47891 0.0
H184 H 0.45468 0.58767 0.30853 0.0
H185 H 0.48487 0.61844 0.36266 0.0
H186 H 0.47805 0.64372 0.52456 0.0
H187 H 0.48278 0.64875 0.43993 0.0
H188 H 0.33093 0.49585 0.4789 0.0
H189 H 0.33735 0.49931 0.39446 0.0
H190 H 0.36006 0.4956 0.55992 0.0
H191 H 0.38964 0.52692 0.614 0.0
C192 C 0.83072 0.45055 0.63145 0.0
C193 C 0.8448 0.43991 0.68307 0.0
C194 C 0.85334 0.40262 0.60629 0.0
C195 C 0.84493 0.41786 0.55308 0.0
N196 N 0.83144 0.46134 0.51501 0.0
N197 N 0.87617 0.41104 0.71651 0.0
C198 C 0.83511 0.44318 0.56553 0.0
C199 C 0.85792 0.41732 0.6698 0.0
N200 N 0.81197 0.46648 0.64535 0.0
N201 N 0.85548 0.3732 0.59722 0.0
H202 H 0.88145 0.42232 0.76307 0.0
H203 H 0.88924 0.39755 0.70654 0.0
H204 H 0.85033 0.36005 0.55254 0.0
H205 H 0.85826 0.35945 0.63601 0.0
H206 H 0.79859 0.47197 0.6097 0.0
H207 H 0.8064 0.47048 0.6932 0.0
H208 H 0.82766 0.48246 0.52238 0.0
H209 H 0.83577 0.45781 0.46606 0.0
C210 C 0.451 0.87057 0.79341 0.0
C211 C 0.42816 0.84733 0.74436 0.0
C212 C 0.38087 0.81976 0.82508 0.0
C213 C 0.40333 0.84352 0.87331 0.0
N214 N 0.45832 0.89304 0.90479 0.0
N215 N 0.37463 0.79463 0.71674 0.0
C216 C 0.43821 0.86898 0.85814 0.0
C217 C 0.39387 0.82062 0.76094 0.0
N218 N 0.48502 0.89392 0.77835 0.0
N219 N 0.34678 0.79686 0.84043 0.0
H220 H 0.38362 0.79343 0.67012 0.0
H221 H 0.35099 0.77239 0.72785 0.0
H222 H 0.33698 0.7937 0.88803 0.0
H223 H 0.32768 0.78222 0.8058 0.0
H224 H 0.50416 0.90835 0.81297 0.0
H225 H 0.49512 0.8981 0.73105 0.0
H226 H 0.48239 0.91511 0.89565 0.0
H227 H 0.45018 0.89208 0.95314 0.0
C228 C 0.55842 0.39514 0.98627 0.0
C229 C 0.55155 0.41512 0.0317 0.0
C230 C 0.56715 0.46113 0.94972 0.0
C231 C 0.5732 0.4407 0.90323 0.0
N232 N 0.58416 0.39338 0.88272 0.0
N233 N 0.54424 0.46419 0.05606 0.0
C234 C 0.57114 0.4089 0.92274 0.0
C235 C 0.55493 0.44753 0.01356 0.0
N236 N 0.55217 0.36264 1.00358 0.0
N237 N 0.57402 0.494 0.93386 0.0
H238 H 0.53588 0.45557 0.10379 0.0
H239 H 0.54106 0.4851 0.04302 0.0
H240 H 0.58132 0.50488 0.88737 0.0
H241 H 0.57491 0.51189 0.968 0.0
H242 H 0.55177 0.34466 0.97023 0.0
H243 H 0.54523 0.35263 0.05101 0.0
H244 H 0.58702 0.37242 0.89693 0.0
H245 H 0.59564 0.40349 0.83735 0.0
C246 C 0.15085 0.54043 0.13851 0.0
C247 C 0.13515 0.54947 0.18967 0.0
C248 C 0.12444 0.58525 0.11263 0.0
C249 C 0.13469 0.57148 0.05967 0.0
N250 N 0.15222 0.53093 0.02195 0.0
N251 N 0.10076 0.57521 0.22234 0.0
C252 C 0.14658 0.54777 0.07243 0.0
C253 C 0.1203 0.57054 0.17608 0.0
N254 N 0.17081 0.52589 0.15309 0.0
N255 N 0.12001 0.61331 0.10334 0.0
H256 H 0.09592 0.56397 0.26889 0.0
H257 H 0.08638 0.58732 0.21206 0.0
H258 H 0.12449 0.62633 0.05865 0.0
H259 H 0.11587 0.62622 0.14194 0.0
H260 H 0.18538 0.5217 0.11804 0.0
H261 H 0.17598 0.52171 0.20114 0.0
H262 H 0.15752 0.5108 0.02929 0.0
H263 H 0.14811 0.53442 0.97285 0.0
C264 C 0.51409 0.26192 0.2039 0.0
C265 C 0.49951 0.27814 0.16593 0.0
C266 C 0.4877 0.23687 0.07532 0.0
C267 C 0.50345 0.22146 0.11247 0.0
N268 N 0.52517 0.21407 0.21645 0.0
N269 N 0.47529 0.28405 0.06389 0.0
C270 C 0.51506 0.23268 0.17788 0.0
C271 C 0.48647 0.26604 0.10159 0.0
N272 N 0.52776 0.27513 0.26447 0.0
N273 N 0.47387 0.22351 0.01495 0.0
H274 H 0.47347 0.30516 0.08125 0.0
H275 H 0.46959 0.27964 0.01411 0.0
H276 H 0.47653 0.20394 0.99211 0.0
H277 H 0.45824 0.23039 0.98841 0.0
H278 H 0.54327 0.26813 0.29114 0.0
H279 H 0.5249 0.29456 0.28744 0.0
H280 H 0.53028 0.21823 0.26646 0.0
H281 H 0.52593 0.19231 0.19992 0.0
C282 C 0.23672 0.47239 0.24481 0.0
C283 C 0.2699 0.49515 0.27241 0.0
C284 C 0.24243 0.50917 0.36247 0.0
C285 C 0.21005 0.49075 0.32966 0.0
N286 N 0.17657 0.4578 0.23519 0.0
N287 N 0.30509 0.53779 0.35503 0.0
C288 C 0.20701 0.47263 0.27013 0.0
C289 C 0.27299 0.51425 0.33062 0.0
N290 N 0.23363 0.45099 0.19377 0.0
N291 N 0.24373 0.52103 0.425 0.0
H292 H 0.32831 0.54142 0.33551 0.0
H293 H 0.30892 0.55547 0.39228 0.0
H294 H 0.22155 0.51699 0.45018 0.0
H295 H 0.26596 0.53156 0.45429 0.0
H296 H 0.20975 0.43103 0.17655 0.0
H297 H 0.25499 0.45146 0.17157 0.0
H298 H 0.17425 0.44821 0.18767 0.0
H299 H 0.15417 0.45749 0.25111 0.0
C300 C 0.73076 0.25356 0.53847 0.0
C301 C 0.71313 0.22158 0.50385 0.0
C302 C 0.75443 0.24739 0.41239 0.0
C303 C 0.76873 0.28047 0.44302 0.0
N304 N 0.76997 0.31607 0.53395 0.0
N305 N 0.70542 0.18839 0.40473 0.0
C306 C 0.75684 0.28383 0.5059 0.0
C307 C 0.7245 0.21833 0.44031 0.0
N308 N 0.72306 0.25468 0.60311 0.0
N309 N 0.76927 0.24382 0.35636 0.0
H310 H 0.68331 0.16644 0.42282 0.0
H311 H 0.7099 0.18612 0.3553 0.0
H312 H 0.79044 0.26484 0.33342 0.0
H313 H 0.76242 0.21973 0.33557 0.0
H314 H 0.73725 0.2763 0.63326 0.0
H315 H 0.70438 0.23273 0.6285 0.0
H316 H 0.75946 0.32086 0.57559 0.0
H317 H 0.7903 0.33866 0.51341 0.0
C318 C 0.46491 0.73922 0.55274 0.0
C319 C 0.48339 0.77168 0.58546 0.0
C320 C 0.50414 0.74564 0.66728 0.0
C321 C 0.48135 0.71222 0.64023 0.0
N322 N 0.43828 0.67646 0.55874 0.0
N323 N 0.51827 0.80579 0.67768 0.0
C324 C 0.46131 0.70879 0.58323 0.0
C325 C 0.50295 0.77514 0.64312 0.0
N326 N 0.45151 0.73778 0.49161 0.0
N327 N 0.5264 0.74918 0.71694 0.0
H328 H 0.51838 0.82821 0.66215 0.0
H329 H 0.52883 0.80842 0.72439 0.0
H330 H 0.52646 0.72803 0.73915 0.0
H331 H 0.5465 0.77326 0.73315 0.0
H332 H 0.44074 0.71562 0.46196 0.0
H333 H 0.4544 0.75991 0.4677 0.0
H334 H 0.41992 0.67216 0.52271 0.0
H335 H 0.43591 0.65341 0.57684 0.0
C336 C 0.70502 0.4773 0.83398 0.0
C337 C 0.70549 0.48924 0.76893 0.0
C338 C 0.76796 0.50977 0.76099 0.0
C339 C 0.76622 0.49379 0.82249 0.0
N340 N 0.73327 0.46096 0.91684 0.0
N341 N 0.73615 0.51382 0.66769 0.0
C342 C 0.73478 0.47719 0.85876 0.0
C343 C 0.73675 0.50513 0.73192 0.0
N344 N 0.67666 0.46753 0.87333 0.0
N345 N 0.79928 0.52894 0.72985 0.0
H346 H 0.71374 0.5105 0.64458 0.0
H347 H 0.75699 0.52165 0.63557 0.0
H348 H 0.82246 0.53151 0.74741 0.0
H349 H 0.80286 0.5444 0.68883 0.0
H350 H 0.67615 0.46229 0.92325 0.0
H351 H 0.65452 0.46775 0.85785 0.0
H352 H 0.71007 0.44404 0.94076 0.0
H353 H 0.75522 0.46304 0.93984 0.0
C354 C 0.22301 0.74085 0.90653 0.0
C355 C 0.20772 0.70891 0.94144 0.0
C356 C 0.24578 0.73826 0.03561 0.0
C357 C 0.26442 0.76883 0.99721 0.0
N358 N 0.27305 0.79895 0.89386 0.0
N359 N 0.20515 0.67599 0.0378 0.0
C360 C 0.25337 0.77033 0.93233 0.0
C361 C 0.21912 0.70731 0.00583 0.0
N362 N 0.20851 0.74292 0.84874 0.0
N363 N 0.25314 0.73917 0.10103 0.0
H364 H 0.18467 0.65298 0.01873 0.0
H365 H 0.21518 0.67227 0.08125 0.0
H366 H 0.27221 0.76172 0.12443 0.0
H367 H 0.23831 0.71881 0.13337 0.0
H368 H 0.2162 0.76631 0.82422 0.0
H369 H 0.18675 0.7215 0.82798 0.0
H370 H 0.26873 0.7998 0.84384 0.0
H371 H 0.29543 0.82115 0.91051 0.0
C372 C 0.60151 0.18075 0.78624 0.0
C373 C 0.58246 0.15222 0.74293 0.0
C374 C 0.53828 0.12148 0.82804 0.0
C375 C 0.55581 0.15115 0.86963 0.0
N376 N 0.60115 0.21095 0.88554 0.0
N377 N 0.53046 0.09732 0.71858 0.0
C378 C 0.58674 0.18131 0.84807 0.0
C379 C 0.55004 0.12329 0.7625 0.0
N380 N 0.6338 0.20719 0.76838 0.0
N381 N 0.51172 0.09075 0.85238 0.0
H382 H 0.53889 0.09626 0.67136 0.0
H383 H 0.50476 0.07796 0.7273 0.0
H384 H 0.5027 0.08777 0.90049 0.0
H385 H 0.50069 0.06716 0.82701 0.0
H386 H 0.65074 0.22672 0.80037 0.0
H387 H 0.64465 0.20845 0.72234 0.0
H388 H 0.62157 0.23493 0.86983 0.0
H389 H 0.59078 0.21238 0.93058 0.0
C390 C 0.39172 0.57834 0.91696 0.0
C391 C 0.42687 0.58958 0.90022 0.0
C392 C 0.4354 0.56992 0.00779 0.0
C393 C 0.40105 0.56082 0.02622 0.0
N394 N 0.34864 0.56235 1.00339 0.0
N395 N 0.48436 0.60296 0.93562 0.0
C396 C 0.37971 0.56659 0.9821 0.0
C397 C 0.44945 0.58779 0.94763 0.0
N398 N 0.3698 0.57909 0.87072 0.0
N399 N 0.45394 0.55944 0.04557 0.0
H400 H 0.49608 0.61515 0.89167 0.0
H401 H 0.50236 0.60602 0.9716 0.0
H402 H 0.44441 0.54525 0.08891 0.0
H403 H 0.47732 0.56156 0.03054 0.0
H404 H 0.34295 0.56713 0.877 0.0
H405 H 0.37823 0.59032 0.82449 0.0
H406 H 0.33348 0.56955 0.97604 0.0
H407 H 0.33938 0.55453 0.05103 0.0
C408 C 0.80741 0.40838 0.08001 0.0
C409 C 0.83899 0.43679 0.05596 0.0
C410 C 0.86811 0.43994 0.16034 0.0
C411 C 0.83702 0.41033 0.18327 0.0
N412 N 0.77832 0.36362 0.16341 0.0
N413 N 0.90083 0.47593 0.06759 0.0
C414 C 0.80705 0.39364 0.14247 0.0
C415 C 0.86971 0.45171 0.09474 0.0
N416 N 0.77749 0.39647 0.04419 0.0
N417 N 0.89625 0.45679 0.20123 0.0
H418 H 0.90318 0.48495 0.01952 0.0
H419 H 0.92485 0.48505 0.09036 0.0
H420 H 0.89737 0.4476 0.24772 0.0
H421 H 0.91793 0.481 0.19074 0.0
H422 H 0.75284 0.37841 0.06161 0.0
H423 H 0.77689 0.40657 0.99826 0.0
H424 H 0.75711 0.3479 0.13346 0.0
H425 H 0.77644 0.35314 0.21009 0.0
C426 C 0.41137 0.81227 0.32566 0.0
C427 C 0.41521 0.83793 0.37195 0.0
C428 C 0.39053 0.86163 0.29301 0.0
C429 C 0.38808 0.83692 0.24549 0.0
N430 N 0.38932 0.78457 0.21955 0.0
N431 N 0.41301 0.8898 0.39828 0.0
C432 C 0.39683 0.81119 0.26256 0.0
C433 C 0.40547 0.86299 0.35564 0.0
N434 N 0.4223 0.78938 0.3419 0.0
N435 N 0.37851 0.88385 0.27858 0.0
H436 H 0.4239 0.89192 0.44457 0.0
H437 H 0.41107 0.91158 0.38649 0.0
H438 H 0.36996 0.88608 0.23229 0.0
H439 H 0.3749 0.89886 0.31349 0.0
H440 H 0.42424 0.77259 0.30882 0.0
H441 H 0.43099 0.78809 0.38881 0.0
H442 H 0.39208 0.76316 0.23016 0.0
H443 H 0.37752 0.78228 0.17411 0.0
C444 C 0.5669 0.45203 0.48695 0.0
C445 C 0.5797 0.43482 0.52735 0.0
C446 C 0.56293 0.38922 0.44334 0.0
C447 C 0.55292 0.40807 0.40101 0.0
N448 N 0.54899 0.45944 0.37863 0.0
N449 N 0.59451 0.38989 0.54129 0.0
C450 C 0.55621 0.4402 0.42156 0.0
C451 C 0.57882 0.40405 0.50494 0.0
N452 N 0.56287 0.47837 0.51233 0.0
N453 N 0.5571 0.35707 0.42472 0.0
H454 H 0.6067 0.40029 0.58614 0.0
H455 H 0.59803 0.36966 0.52483 0.0
H456 H 0.54706 0.34618 0.37883 0.0
H457 H 0.56009 0.34021 0.45602 0.0
H458 H 0.54996 0.48918 0.48796 0.0
H459 H 0.56945 0.48739 0.56039 0.0
H460 H 0.55522 0.48507 0.38775 0.0
H461 H 0.53881 0.45077 0.33179 0.0
C462 C 0.16947 0.57595 0.58817 0.0
C463 C 0.13794 0.54754 0.56381 0.0
C464 C 0.10871 0.54433 0.66811 0.0
C465 C 0.1396 0.57423 0.69088 0.0
N466 N 0.19826 0.62103 0.67113 0.0
N467 N 0.07612 0.50814 0.57542 0.0
C468 C 0.16964 0.59086 0.65032 0.0
C469 C 0.1072 0.53247 0.60257 0.0
N470 N 0.19955 0.58768 0.553 0.0
N471 N 0.08063 0.52735 0.70903 0.0
H472 H 0.07375 0.49897 0.52746 0.0
H473 H 0.0521 0.49904 0.59814 0.0
H474 H 0.0795 0.5365 0.75556 0.0
H475 H 0.05909 0.50302 0.69861 0.0
H476 H 0.22412 0.60574 0.57079 0.0
H477 H 0.20038 0.57728 0.50754 0.0
H478 H 0.21944 0.63673 0.64114 0.0
H479 H 0.20007 0.63162 0.71768 0.0
C480 C 0.45313 0.01098 0.10187 0.0
C481 C 0.44507 0.02993 0.05559 0.0
C482 C 0.3963 0.97493 0.01376 0.0
C483 C 0.40375 0.95642 0.0618 0.0
N484 N 0.43297 0.95701 0.16173 0.0
N485 N 0.40619 0.03079 0.97372 0.0
C486 C 0.43026 0.97457 0.10895 0.0
C487 C 0.41548 0.01218 0.01404 0.0
N488 N 0.48306 0.02741 0.13825 0.0
N489 N 0.3726 0.957 0.96531 0.0
H490 H 0.42102 0.05784 0.96852 0.0
H491 H 0.3827 0.01967 0.9482 0.0
H492 H 0.35801 0.92981 0.96345 0.0
H493 H 0.36902 0.96887 0.92433 0.0
H494 H 0.49239 0.01406 0.16583 0.0
H495 H 0.50015 0.05424 0.13789 0.0
H496 H 0.4491 0.96935 0.20184 0.0
H497 H 0.41649 0.93026 0.16868 0.0
C498 C 0.41374 0.40247 0.25421 0.0
C499 C 0.4362 0.40518 0.20227 0.0
C500 C 0.41999 0.442 0.13952 0.0
C501 C 0.39816 0.43996 0.19198 0.0
N502 N 0.36783 0.41267 0.29223 0.0
N503 N 0.45374 0.41905 0.08918 0.0
C504 C 0.39267 0.41802 0.24679 0.0
C505 C 0.43711 0.42233 0.14283 0.0
N506 N 0.41429 0.38714 0.31211 0.0
N507 N 0.42503 0.4635 0.08741 0.0
H508 H 0.4657 0.40399 0.0896 0.0
H509 H 0.45295 0.42839 0.04272 0.0
H510 H 0.411 0.47638 0.08133 0.0
H511 H 0.44409 0.46983 0.05179 0.0
H512 H 0.40175 0.38799 0.3546 0.0
H513 H 0.42922 0.37531 0.3192 0.0
H514 H 0.36017 0.39439 0.32989 0.0
H515 H 0.35272 0.42451 0.28926 0.0
C516 C 0.00163 0.41583 0.41686 0.0
C517 C 0.02155 0.43749 0.36393 0.0
C518 C 0.96829 0.4194 0.3002 0.0
C519 C 0.94847 0.402 0.35644 0.0
N520 N 0.94484 0.38339 0.46875 0.0
N521 N 0.02502 0.45947 0.25411 0.0
C522 C 0.96468 0.39948 0.41455 0.0
C523 C 0.00519 0.43888 0.30495 0.0
N524 N 0.01807 0.4115 0.4697 0.0
N525 N 0.95158 0.4168 0.24223 0.0
H526 H 0.05213 0.47191 0.25371 0.0
H527 H 0.0149 0.46532 0.21318 0.0
H528 H 0.9245 0.40236 0.23762 0.0
H529 H 0.96423 0.42637 0.19761 0.0
H530 H 0.00516 0.39335 0.50681 0.0
H531 H 0.04509 0.42443 0.47451 0.0
H532 H 0.95508 0.38436 0.51515 0.0
H533 H 0.91768 0.37032 0.4683 0.0
C534 C 0.53053 0.97813 0.61458 0.0
C535 C 0.53547 0.96008 0.56174 0.0
C536 C 0.58128 0.01567 0.51619 0.0
C537 C 0.57647 0.03342 0.56945 0.0
N538 N 0.5535 0.03193 0.67697 0.0
N539 N 0.56924 0.96051 0.46853 0.0
C540 C 0.55322 0.01469 0.62106 0.0
C541 C 0.56234 0.97848 0.51495 0.0
N542 N 0.50372 0.96052 0.65789 0.0
N543 N 0.60217 0.03434 0.46476 0.0
H544 H 0.55446 0.93349 0.46297 0.0
H545 H 0.59099 0.9721 0.43806 0.0
H546 H 0.61681 0.06155 0.46422 0.0
H547 H 0.60341 0.02312 0.42071 0.0
H548 H 0.49611 0.97284 0.69207 0.0
H549 H 0.48745 0.93351 0.65743 0.0
H550 H 0.53964 0.01945 0.71924 0.0
H551 H 0.57038 0.05869 0.68346 0.0
C552 C 0.54585 0.53687 0.76681 0.0
C553 C 0.57245 0.54582 0.71915 0.0
C554 C 0.56455 0.59366 0.67952 0.0
C555 C 0.53851 0.58491 0.72806 0.0
N556 N 0.51113 0.55502 0.8283 0.0
N557 N 0.6115 0.58617 0.63776 0.0
C558 C 0.53142 0.55869 0.77505 0.0
C559 C 0.58354 0.57564 0.67854 0.0
N560 N 0.53343 0.50695 0.80306 0.0
N561 N 0.56938 0.61726 0.63154 0.0
H562 H 0.6245 0.57228 0.63193 0.0
H563 H 0.62326 0.60988 0.61275 0.0
H564 H 0.55622 0.63116 0.63063 0.0
H565 H 0.58471 0.62149 0.59011 0.0
H566 H 0.51105 0.4969 0.83179 0.0
H567 H 0.54387 0.4906 0.80162 0.0
H568 H 0.50812 0.5391 0.86831 0.0
H569 H 0.50002 0.57059 0.83549 0.0
C570 C 0.01226 0.58788 0.9192 0.0
C571 C 0.02881 0.58632 0.86086 0.0
C572 C 0.97258 0.55528 0.80479 0.0
C573 C 0.95576 0.55184 0.86574 0.0
N574 N 0.95845 0.56419 0.98145 0.0
N575 N 0.02598 0.56909 0.74791 0.0
C576 C 0.97525 0.56856 0.92296 0.0
C577 C 0.00934 0.57053 0.80326 0.0
N578 N 0.03203 0.60741 0.97106 0.0
N579 N 0.95329 0.54441 0.7484 0.0
H580 H 0.05308 0.58171 0.74419 0.0
H581 H 0.01308 0.55417 0.70684 0.0
H582 H 0.92634 0.53375 0.74809 0.0
H583 H 0.96408 0.54882 0.70159 0.0
H584 H 0.02174 0.61222 0.01299 0.0
H585 H 0.0592 0.62125 0.97004 0.0
H586 H 0.97111 0.57202 0.02652 0.0
H587 H 0.93137 0.55095 0.98551 0.0
loop_
_geom_bond_atom_site_label_1
_geom_bond_atom_site_label_2
_geom_bond_distance
_geom_bond_site_symmetry_2
_ccdc_geom_bond_type
In0 O1 2.294 1_554 S
In0 O2 2.326 1_554 S
In0 O6 2.266 . S
In0 O7 2.326 . S
In0 O8 2.266 . S
In0 O9 2.326 . S
In0 O11 2.294 . S
In0 O12 2.326 . S
O1 In0 2.294 1_556 S
O1 C10 1.240 . S
O2 In0 2.326 1_556 S
O2 C10 1.252 . S
C3 O6 1.252 . S
C3 O7 1.260 . S
C4 O11 1.240 . S
C4 O12 1.252 . S
C5 O8 1.252 . S
C5 O9 1.260 . S
O6 In0 2.266 . S
O6 C3 1.252 . S
O7 In0 2.326 . S
O7 C3 1.260 . S
O8 In0 2.266 . S
O8 C5 1.252 . S
O9 In0 2.326 . S
O9 C5 1.260 . S
C10 O1 1.240 . S
C10 O2 1.252 . S
O11 In0 2.294 . S
O11 C4 1.240 . S
O12 In0 2.326 . S
O12 C4 1.252 . S
In13 O14 2.294 . S
In13 O15 2.326 . S
In13 O19 2.266 . S
In13 O20 2.326 . S
In13 O21 2.266 . S
In13 O22 2.326 . S
In13 O24 2.294 . S
In13 O25 2.326 . S
O14 In13 2.294 . S
O14 C23 1.240 . S
O15 In13 2.326 . S
O15 C23 1.252 . S
C16 O19 1.252 . S
C16 O20 1.260 . S
C17 O24 1.240 . S
C17 O25 1.252 . S
C18 O21 1.252 . S
C18 O22 1.260 . S
O19 In13 2.266 . S
O19 C16 1.252 . S
O20 In13 2.326 . S
O20 C16 1.260 . S
O21 In13 2.266 . S
O21 C18 1.252 . S
O22 In13 2.326 . S
O22 C18 1.260 . S
C23 O14 1.240 . S
C23 O15 1.252 . S
O24 In13 2.294 . S
O24 C17 1.240 . S
O25 In13 2.326 . S
O25 C17 1.252 . S
In26 O27 2.294 . S
In26 O28 2.326 . S
In26 O32 2.266 . S
In26 O33 2.326 . S
In26 O34 2.266 . S
In26 O35 2.326 . S
In26 O37 2.294 . S
In26 O38 2.326 . S
O27 In26 2.294 . S
O27 C36 1.240 . S
O28 In26 2.326 . S
O28 C36 1.252 . S
C29 O32 1.252 . S
C29 O33 1.260 . S
C30 O37 1.240 . S
C30 O38 1.252 . S
C31 O34 1.252 . S
C31 O35 1.260 . S
O32 In26 2.266 . S
O32 C29 1.252 . S
O33 In26 2.326 . S
O33 C29 1.260 . S
O34 In26 2.266 . S
O34 C31 1.252 . S
O35 In26 2.326 . S
O35 C31 1.260 . S
C36 O27 1.240 . S
C36 O28 1.252 . S
O37 In26 2.294 . S
O37 C30 1.240 . S
O38 In26 2.326 . S
O38 C30 1.252 . S
In39 O40 2.294 . S
In39 O41 2.326 . S
In39 O45 2.266 . S
In39 O46 2.326 . S
In39 O47 2.266 . S
In39 O48 2.326 . S
In39 O50 2.294 . S
In39 O51 2.326 . S
O40 In39 2.294 . S
O40 C49 1.240 . S
O41 In39 2.326 . S
O41 C49 1.252 . S
C42 O45 1.252 . S
C42 O46 1.260 . S
C43 O50 1.240 . S
C43 O51 1.252 . S
C44 O47 1.252 . S
C44 O48 1.260 . S
O45 In39 2.266 . S
O45 C42 1.252 . S
O46 In39 2.326 . S
O46 C42 1.260 . S
O47 In39 2.266 . S
O47 C44 1.252 . S
O48 In39 2.326 . S
O48 C44 1.260 . S
C49 O40 1.240 . S
C49 O41 1.252 . S
O50 In39 2.294 . S
O50 C43 1.240 . S
O51 In39 2.326 . S
O51 C43 1.252 . S
In52 O53 2.294 . S
In52 O54 2.326 . S
In52 O58 2.266 . S
In52 O59 2.326 . S
In52 O60 2.266 . S
In52 O61 2.326 . S
In52 O63 2.294 . S
In52 O64 2.326 . S
O53 In52 2.294 . S
O53 C62 1.240 . S
O54 In52 2.326 . S
O54 C62 1.252 . S
C55 O58 1.252 . S
C55 O59 1.260 . S
C56 O63 1.240 . S
C56 O64 1.252 . S
C57 O60 1.252 . S
C57 O61 1.260 . S
O58 In52 2.266 . S
O58 C55 1.252 . S
O59 In52 2.326 . S
O59 C55 1.260 . S
O60 In52 2.266 . S
O60 C57 1.252 . S
O61 In52 2.326 . S
O61 C57 1.260 . S
C62 O53 1.240 . S
C62 O54 1.252 . S
O63 In52 2.294 . S
O63 C56 1.240 . S
O64 In52 2.326 . S
O64 C56 1.252 . S
In65 O66 2.294 . S
In65 O67 2.326 . S
In65 O71 2.266 . S
In65 O72 2.313 1_556 S
In65 O73 2.266 . S
In65 O74 2.326 . S
In65 O76 2.294 . S
In65 O77 2.326 . S
O66 In65 2.294 . S
O66 C75 1.240 . S
O67 In65 2.326 . S
O67 C75 1.252 . S
C68 O71 1.252 1_554 S
C68 O72 1.261 . S
C69 O76 1.240 . S
C69 O77 1.252 . S
C70 O73 1.252 . S
C70 O74 1.260 . S
O71 In65 2.266 . S
O71 C68 1.252 1_556 S
O72 In65 2.313 1_554 S
O72 C68 1.261 . S
O73 In65 2.266 . S
O73 C70 1.252 . S
O74 In65 2.326 . S
O74 C70 1.260 . S
C75 O66 1.240 . S
C75 O67 1.252 . S
O76 In65 2.294 . S
O76 C69 1.240 . S
O77 In65 2.326 . S
O77 C69 1.252 . S
In78 O79 2.294 . S
In78 O80 2.326 . S
In78 O84 2.266 . S
In78 O85 2.326 . S
In78 O86 2.266 . S
In78 O87 2.326 . S
In78 O89 2.294 . S
In78 O90 2.326 . S
O79 In78 2.294 . S
O79 C88 1.240 . S
O80 In78 2.326 . S
O80 C88 1.252 . S
C81 O84 1.252 . S
C81 O85 1.260 . S
C82 O89 1.240 . S
C82 O90 1.252 . S
C83 O86 1.252 . S
C83 O87 1.260 . S
O84 In78 2.266 . S
O84 C81 1.252 . S
O85 In78 2.326 . S
O85 C81 1.260 . S
O86 In78 2.266 . S
O86 C83 1.252 . S
O87 In78 2.326 . S
O87 C83 1.260 . S
C88 O79 1.240 . S
C88 O80 1.252 . S
O89 In78 2.294 . S
O89 C82 1.240 . S
O90 In78 2.326 . S
O90 C82 1.252 . S
In91 O92 2.294 . S
In91 O93 2.326 . S
In91 O97 2.266 . S
In91 O98 2.326 . S
In91 O99 2.266 1_554 S
In91 O100 2.326 1_554 S
In91 O102 2.294 . S
In91 O103 2.326 . S
O92 In91 2.294 . S
O92 C101 1.240 . S
O93 In91 2.326 . S
O93 C101 1.252 . S
C94 O97 1.252 . S
C94 O98 1.260 . S
C95 O102 1.240 . S
C95 O103 1.252 . S
C96 O99 1.252 . S
C96 O100 1.260 . S
O97 In91 2.266 . S
O97 C94 1.252 . S
O98 In91 2.326 . S
O98 C94 1.260 . S
O99 In91 2.266 1_556 S
O99 C96 1.252 . S
O100 In91 2.326 1_556 S
O100 C96 1.260 . S
C101 O92 1.240 . S
C101 O93 1.252 . S
O102 In91 2.294 . S
O102 C95 1.240 . S
O103 In91 2.326 . S
O103 C95 1.252 . S
In104 O105 2.294 . S
In104 O106 2.326 . S
In104 O110 2.266 . S
In104 O111 2.326 . S
In104 O112 2.266 . S
In104 O113 2.326 . S
In104 O115 2.294 . S
In104 O116 2.326 . S
O105 In104 2.294 . S
O105 C114 1.240 . S
O106 In104 2.326 . S
O106 C114 1.252 . S
C107 O110 1.252 . S
C107 O111 1.260 . S
C108 O115 1.240 . S
C108 O116 1.252 . S
C109 O112 1.252 . S
C109 O113 1.260 . S
O110 In104 2.266 . S
O110 C107 1.252 . S
O111 In104 2.326 . S
O111 C107 1.260 . S
O112 In104 2.266 . S
O112 C109 1.252 . S
O113 In104 2.326 . S
O113 C109 1.260 . S
C114 O105 1.240 . S
C114 O106 1.252 . S
O115 In104 2.294 . S
O115 C108 1.240 . S
O116 In104 2.326 . S
O116 C108 1.252 . S
In117 O118 2.294 . S
In117 O119 2.326 . S
In117 O123 2.266 . S
In117 O124 2.326 . S
In117 O125 2.266 . S
In117 O126 2.326 . S
In117 O128 2.294 . S
In117 O129 2.326 . S
O118 In117 2.294 . S
O118 C127 1.240 . S
O119 In117 2.326 . S
O119 C127 1.252 . S
C120 O123 1.252 . S
C120 O124 1.260 . S
C121 O128 1.240 . S
C121 O129 1.252 . S
C122 O125 1.252 . S
C122 O126 1.260 . S
O123 In117 2.266 . S
O123 C120 1.252 . S
O124 In117 2.326 . S
O124 C120 1.260 . S
O125 In117 2.266 . S
O125 C122 1.252 . S
O126 In117 2.326 . S
O126 C122 1.260 . S
C127 O118 1.240 . S
C127 O119 1.252 . S
O128 In117 2.294 . S
O128 C121 1.240 . S
O129 In117 2.326 . S
O129 C121 1.252 . S
In130 O131 2.294 . S
In130 O132 2.326 . S
In130 O136 2.266 . S
In130 O137 2.326 . S
In130 O138 2.266 . S
In130 O139 2.326 . S
In130 O141 2.294 . S
In130 O142 2.326 . S
O131 In130 2.294 . S
O131 C140 1.240 . S
O132 In130 2.326 . S
O132 C140 1.252 . S
C133 O136 1.252 . S
C133 O137 1.260 . S
C134 O141 1.240 . S
C134 O142 1.252 . S
C135 O138 1.252 . S
C135 O139 1.260 . S
O136 In130 2.266 . S
O136 C133 1.252 . S
O137 In130 2.326 . S
O137 C133 1.260 . S
O138 In130 2.266 . S
O138 C135 1.252 . S
O139 In130 2.326 . S
O139 C135 1.260 . S
C140 O131 1.240 . S
C140 O132 1.252 . S
O141 In130 2.294 . S
O141 C134 1.240 . S
O142 In130 2.326 . S
O142 C134 1.252 . S
In143 O144 2.294 . S
In143 O145 2.326 . S
In143 O149 2.266 . S
In143 O150 2.326 . S
In143 O151 2.266 . S
In143 O152 2.326 . S
In143 O154 2.294 . S
In143 O155 2.326 . S
O144 In143 2.294 . S
O144 C153 1.240 . S
O145 In143 2.326 . S
O145 C153 1.252 . S
C146 O149 1.252 . S
C146 O150 1.260 . S
C147 O154 1.240 . S
C147 O155 1.252 . S
C148 O151 1.252 . S
C148 O152 1.260 . S
O149 In143 2.266 . S
O149 C146 1.252 . S
O150 In143 2.326 . S
O150 C146 1.260 . S
O151 In143 2.266 . S
O151 C148 1.252 . S
O152 In143 2.326 . S
O152 C148 1.260 . S
C153 O144 1.240 . S
C153 O145 1.252 . S
O154 In143 2.294 . S
O154 C147 1.240 . S
O155 In143 2.326 . S
O155 C147 1.252 . S
C156 C157 1.363 . S
C156 C162 1.379 . S
C156 N164 1.356 . S
C157 C156 1.363 . S
C157 C163 1.363 . S
C158 C159 1.363 . S
C158 C163 1.379 . S
C158 N165 1.356 . S
C159 C158 1.363 . S
C159 C162 1.363 . S
N160 C162 1.356 . S
N160 H172 0.984 . S
N160 H173 0.985 . S
N161 C163 1.356 . S
N161 H166 0.984 . S
N161 H167 0.985 . S
C162 C156 1.379 . S
C162 C159 1.363 . S
C162 N160 1.356 . S
C163 C157 1.363 . S
C163 C158 1.379 . S
C163 N161 1.356 . S
N164 C156 1.356 . S
N164 H170 0.984 . S
N164 H171 0.984 . S
N165 C158 1.356 . S
N165 H168 0.984 . S
N165 H169 0.985 . S
H166 N161 0.984 . S
H167 N161 0.985 . S
H168 N165 0.984 . S
H169 N165 0.985 . S
H170 N164 0.984 . S
H171 N164 0.984 . S
H172 N160 0.984 . S
H173 N160 0.985 . S
C174 C175 1.363 . S
C174 C180 1.379 . S
C174 N182 1.356 . S
C175 C174 1.363 . S
C175 C181 1.363 . S
C176 C177 1.363 . S
C176 C181 1.379 . S
C176 N183 1.356 . S
C177 C176 1.363 . S
C177 C180 1.363 . S
N178 C180 1.356 . S
N178 H190 0.984 . S
N178 H191 0.985 . S
N179 C181 1.356 . S
N179 H184 0.984 . S
N179 H185 0.985 . S
C180 C174 1.379 . S
C180 C177 1.363 . S
C180 N178 1.356 . S
C181 C175 1.363 . S
C181 C176 1.379 . S
C181 N179 1.356 . S
N182 C174 1.356 . S
N182 H188 0.984 . S
N182 H189 0.984 . S
N183 C176 1.356 . S
N183 H186 0.984 . S
N183 H187 0.985 . S
H184 N179 0.984 . S
H185 N179 0.985 . S
H186 N183 0.984 . S
H187 N183 0.985 . S
H188 N182 0.984 . S
H189 N182 0.984 . S
H190 N178 0.984 . S
H191 N178 0.985 . S
C192 C193 1.363 . S
C192 C198 1.379 . S
C192 N200 1.356 . S
C193 C192 1.363 . S
C193 C199 1.363 . S
C194 C195 1.363 . S
C194 C199 1.379 . S
C194 N201 1.356 . S
C195 C194 1.363 . S
C195 C198 1.363 . S
N196 C198 1.356 . S
N196 H208 0.984 . S
N196 H209 0.985 . S
N197 C199 1.356 . S
N197 H202 0.984 . S
N197 H203 0.985 . S
C198 C192 1.379 . S
C198 C195 1.363 . S
C198 N196 1.356 . S
C199 C193 1.363 . S
C199 C194 1.379 . S
C199 N197 1.356 . S
N200 C192 1.356 . S
N200 H206 0.984 . S
N200 H207 0.984 . S
N201 C194 1.356 . S
N201 H204 0.984 . S
N201 H205 0.985 . S
H202 N197 0.984 . S
H203 N197 0.985 . S
H204 N201 0.984 . S
H205 N201 0.985 . S
H206 N200 0.984 . S
H207 N200 0.984 . S
H208 N196 0.984 . S
H209 N196 0.985 . S
C210 C211 1.363 . S
C210 C216 1.379 . S
C210 N218 1.356 . S
C211 C210 1.363 . S
C211 C217 1.363 . S
C212 C213 1.363 . S
C212 C217 1.379 . S
C212 N219 1.356 . S
C213 C212 1.363 . S
C213 C216 1.363 . S
N214 C216 1.356 . S
N214 H226 0.984 . S
N214 H227 0.985 . S
N215 C217 1.356 . S
N215 H220 0.984 . S
N215 H221 0.985 . S
C216 C210 1.379 . S
C216 C213 1.363 . S
C216 N214 1.356 . S
C217 C211 1.363 . S
C217 C212 1.379 . S
C217 N215 1.356 . S
N218 C210 1.356 . S
N218 H224 0.984 . S
N218 H225 0.984 . S
N219 C212 1.356 . S
N219 H222 0.984 . S
N219 H223 0.985 . S
H220 N215 0.984 . S
H221 N215 0.985 . S
H222 N219 0.984 . S
H223 N219 0.985 . S
H224 N218 0.984 . S
H225 N218 0.984 . S
H226 N214 0.984 . S
H227 N214 0.985 . S
C228 C229 1.363 1_556 S
C228 C234 1.379 . S
C228 N236 1.356 1_556 S
C229 C228 1.363 1_554 S
C229 C235 1.363 . S
C230 C231 1.363 . S
C230 C235 1.379 1_556 S
C230 N237 1.356 . S
C231 C230 1.363 . S
C231 C234 1.363 . S
N232 C234 1.356 . S
N232 H244 0.984 . S
N232 H245 0.985 . S
N233 C235 1.356 . S
N233 H238 0.984 . S
N233 H239 0.985 . S
C234 C228 1.379 . S
C234 C231 1.363 . S
C234 N232 1.356 . S
C235 C229 1.363 . S
C235 C230 1.379 1_554 S
C235 N233 1.356 . S
N236 C228 1.356 1_554 S
N236 H242 0.984 1_554 S
N236 H243 0.984 . S
N237 C230 1.356 . S
N237 H240 0.984 . S
N237 H241 0.985 . S
H238 N233 0.984 . S
H239 N233 0.985 . S
H240 N237 0.984 . S
H241 N237 0.985 . S
H242 N236 0.984 1_556 S
H243 N236 0.984 . S
H244 N232 0.984 . S
H245 N232 0.985 . S
C246 C247 1.363 . S
C246 C252 1.379 . S
C246 N254 1.356 . S
C247 C246 1.363 . S
C247 C253 1.363 . S
C248 C249 1.363 . S
C248 C253 1.379 . S
C248 N255 1.356 . S
C249 C248 1.363 . S
C249 C252 1.363 . S
N250 C252 1.356 . S
N250 H262 0.984 . S
N250 H263 0.985 1_554 S
N251 C253 1.356 . S
N251 H256 0.984 . S
N251 H257 0.985 . S
C252 C246 1.379 . S
C252 C249 1.363 . S
C252 N250 1.356 . S
C253 C247 1.363 . S
C253 C248 1.379 . S
C253 N251 1.356 . S
N254 C246 1.356 . S
N254 H260 0.984 . S
N254 H261 0.984 . S
N255 C248 1.356 . S
N255 H258 0.984 . S
N255 H259 0.985 . S
H256 N251 0.984 . S
H257 N251 0.985 . S
H258 N255 0.984 . S
H259 N255 0.985 . S
H260 N254 0.984 . S
H261 N254 0.984 . S
H262 N250 0.984 . S
H263 N250 0.985 1_556 S
C264 C265 1.363 . S
C264 C270 1.379 . S
C264 N272 1.356 . S
C265 C264 1.363 . S
C265 C271 1.363 . S
C266 C267 1.363 . S
C266 C271 1.379 . S
C266 N273 1.356 . S
C267 C266 1.363 . S
C267 C270 1.363 . S
N268 C270 1.356 . S
N268 H280 0.984 . S
N268 H281 0.985 . S
N269 C271 1.356 . S
N269 H274 0.984 . S
N269 H275 0.985 . S
C270 C264 1.379 . S
C270 C267 1.363 . S
C270 N268 1.356 . S
C271 C265 1.363 . S
C271 C266 1.379 . S
C271 N269 1.356 . S
N272 C264 1.356 . S
N272 H278 0.984 . S
N272 H279 0.984 . S
N273 C266 1.356 . S
N273 H276 0.984 . S
N273 H277 0.985 . S
H274 N269 0.984 . S
H275 N269 0.985 . S
H276 N273 0.984 . S
H277 N273 0.985 . S
H278 N272 0.984 . S
H279 N272 0.984 . S
H280 N268 0.984 . S
H281 N268 0.985 . S
C282 C283 1.363 . S
C282 C288 1.379 . S
C282 N290 1.356 . S
C283 C282 1.363 . S
C283 C289 1.363 . S
C284 C285 1.363 . S
C284 C289 1.379 . S
C284 N291 1.356 . S
C285 C284 1.363 . S
C285 C288 1.363 . S
N286 C288 1.356 . S
N286 H298 0.984 . S
N286 H299 0.985 . S
N287 C289 1.356 . S
N287 H292 0.984 . S
N287 H293 0.985 . S
C288 C282 1.379 . S
C288 C285 1.363 . S
C288 N286 1.356 . S
C289 C283 1.363 . S
C289 C284 1.379 . S
C289 N287 1.356 . S
N290 C282 1.356 . S
N290 H296 0.984 . S
N290 H297 0.984 . S
N291 C284 1.356 . S
N291 H294 0.984 . S
N291 H295 0.985 . S
H292 N287 0.984 . S
H293 N287 0.985 . S
H294 N291 0.984 . S
H295 N291 0.985 . S
H296 N290 0.984 . S
H297 N290 0.984 . S
H298 N286 0.984 . S
H299 N286 0.985 . S
C300 C301 1.363 . S
C300 C306 1.379 . S
C300 N308 1.356 . S
C301 C300 1.363 . S
C301 C307 1.363 . S
C302 C303 1.363 . S
C302 C307 1.379 . S
C302 N309 1.356 . S
C303 C302 1.363 . S
C303 C306 1.363 . S
N304 C306 1.356 . S
N304 H316 0.984 . S
N304 H317 0.985 . S
N305 C307 1.356 . S
N305 H310 0.984 . S
N305 H311 0.985 . S
C306 C300 1.379 . S
C306 C303 1.363 . S
C306 N304 1.356 . S
C307 C301 1.363 . S
C307 C302 1.379 . S
C307 N305 1.356 . S
N308 C300 1.356 . S
N308 H314 0.984 . S
N308 H315 0.984 . S
N309 C302 1.356 . S
N309 H312 0.984 . S
N309 H313 0.985 . S
H310 N305 0.984 . S
H311 N305 0.985 . S
H312 N309 0.984 . S
H313 N309 0.985 . S
H314 N308 0.984 . S
H315 N308 0.984 . S
H316 N304 0.984 . S
H317 N304 0.985 . S
C318 C319 1.363 . S
C318 C324 1.379 . S
C318 N326 1.356 . S
C319 C318 1.363 . S
C319 C325 1.363 . S
C320 C321 1.363 . S
C320 C325 1.379 . S
C320 N327 1.356 . S
C321 C320 1.363 . S
C321 C324 1.363 . S
N322 C324 1.356 . S
N322 H334 0.984 . S
N322 H335 0.985 . S
N323 C325 1.356 . S
N323 H328 0.984 . S
N323 H329 0.985 . S
C324 C318 1.379 . S
C324 C321 1.363 . S
C324 N322 1.356 . S
C325 C319 1.363 . S
C325 C320 1.379 . S
C325 N323 1.356 . S
N326 C318 1.356 . S
N326 H332 0.984 . S
N326 H333 0.984 . S
N327 C320 1.356 . S
N327 H330 0.984 . S
N327 H331 0.985 . S
H328 N323 0.984 . S
H329 N323 0.985 . S
H330 N327 0.984 . S
H331 N327 0.985 . S
H332 N326 0.984 . S
H333 N326 0.984 . S
H334 N322 0.984 . S
H335 N322 0.985 . S
C336 C337 1.363 . S
C336 C342 1.379 . S
C336 N344 1.356 . S
C337 C336 1.363 . S
C337 C343 1.363 . S
C338 C339 1.363 . S
C338 C343 1.379 . S
C338 N345 1.356 . S
C339 C338 1.363 . S
C339 C342 1.363 . S
N340 C342 1.356 . S
N340 H352 0.984 . S
N340 H353 0.985 . S
N341 C343 1.356 . S
N341 H346 0.984 . S
N341 H347 0.985 . S
C342 C336 1.379 . S
C342 C339 1.363 . S
C342 N340 1.356 . S
C343 C337 1.363 . S
C343 C338 1.379 . S
C343 N341 1.356 . S
N344 C336 1.356 . S
N344 H350 0.984 . S
N344 H351 0.984 . S
N345 C338 1.356 . S
N345 H348 0.984 . S
N345 H349 0.985 . S
H346 N341 0.984 . S
H347 N341 0.985 . S
H348 N345 0.984 . S
H349 N345 0.985 . S
H350 N344 0.984 . S
H351 N344 0.984 . S
H352 N340 0.984 . S
H353 N340 0.985 . S
C354 C355 1.363 . S
C354 C360 1.379 . S
C354 N362 1.356 . S
C355 C354 1.363 . S
C355 C361 1.363 . S
C356 C357 1.363 . S
C356 C361 1.379 . S
C356 N363 1.356 1_556 S
C357 C356 1.363 . S
C357 C360 1.363 . S
N358 C360 1.356 . S
N358 H370 0.984 . S
N358 H371 0.988 . S
N359 C361 1.356 . S
N359 H364 0.984 . S
N359 H365 0.985 . S
C360 C354 1.379 . S
C360 C357 1.363 . S
C360 N358 1.356 . S
C361 C355 1.363 . S
C361 C356 1.379 . S
C361 N359 1.356 . S
N362 C354 1.356 . S
N362 H368 0.984 . S
N362 H369 0.984 . S
N363 C356 1.356 1_554 S
N363 H366 0.984 . S
N363 H367 0.985 . S
H364 N359 0.984 . S
H365 N359 0.985 . S
H366 N363 0.984 . S
H367 N363 0.985 . S
H368 N362 0.984 . S
H369 N362 0.984 . S
H370 N358 0.984 . S
H371 N358 0.988 . S
C372 C373 1.363 . S
C372 C378 1.379 . S
C372 N380 1.356 . S
C373 C372 1.363 . S
C373 C379 1.363 . S
C374 C375 1.363 . S
C374 C379 1.379 . S
C374 N381 1.356 . S
C375 C374 1.363 . S
C375 C378 1.363 . S
N376 C378 1.356 . S
N376 H388 0.984 . S
N376 H389 0.985 . S
N377 C379 1.356 . S
N377 H382 0.984 . S
N377 H383 0.985 . S
C378 C372 1.379 . S
C378 C375 1.363 . S
C378 N376 1.356 . S
C379 C373 1.363 . S
C379 C374 1.379 . S
C379 N377 1.356 . S
N380 C372 1.356 . S
N380 H386 0.984 . S
N380 H387 0.984 . S
N381 C374 1.356 . S
N381 H384 0.984 . S
N381 H385 0.985 . S
H382 N377 0.984 . S
H383 N377 0.985 . S
H384 N381 0.984 . S
H385 N381 0.985 . S
H386 N380 0.984 . S
H387 N380 0.984 . S
H388 N376 0.984 . S
H389 N376 0.985 . S
C390 C391 1.363 . S
C390 C396 1.379 . S
C390 N398 1.356 . S
C391 C390 1.363 . S
C391 C397 1.363 . S
C392 C393 1.363 . S
C392 C397 1.379 1_554 S
C392 N399 1.356 . S
C393 C392 1.363 . S
C393 C396 1.363 1_554 S
N394 C396 1.356 1_554 S
N394 H406 0.984 1_554 S
N394 H407 0.985 . S
N395 C397 1.356 . S
N395 H400 0.984 . S
N395 H401 0.985 . S
C396 C390 1.379 . S
C396 C393 1.363 1_556 S
C396 N394 1.356 1_556 S
C397 C391 1.363 . S
C397 C392 1.379 1_556 S
C397 N395 1.356 . S
N398 C390 1.356 . S
N398 H404 0.984 . S
N398 H405 0.984 . S
N399 C392 1.356 . S
N399 H402 0.984 . S
N399 H403 0.985 . S
H400 N395 0.984 . S
H401 N395 0.985 . S
H402 N399 0.984 . S
H403 N399 0.985 . S
H404 N398 0.984 . S
H405 N398 0.984 . S
H406 N394 0.984 1_556 S
H407 N394 0.985 . S
C408 C409 1.363 . S
C408 C414 1.379 . S
C408 N416 1.356 . S
C409 C408 1.363 . S
C409 C415 1.363 . S
C410 C411 1.363 . S
C410 C415 1.379 . S
C410 N417 1.356 . S
C411 C410 1.363 . S
C411 C414 1.363 . S
N412 C414 1.356 . S
N412 H424 0.984 . S
N412 H425 0.985 . S
N413 C415 1.356 . S
N413 H418 0.984 . S
N413 H419 0.985 . S
C414 C408 1.379 . S
C414 C411 1.363 . S
C414 N412 1.356 . S
C415 C409 1.363 . S
C415 C410 1.379 . S
C415 N413 1.356 . S
N416 C408 1.356 . S
N416 H422 0.984 . S
N416 H423 0.984 1_554 S
N417 C410 1.356 . S
N417 H420 0.984 . S
N417 H421 0.985 . S
H418 N413 0.984 . S
H419 N413 0.985 . S
H420 N417 0.984 . S
H421 N417 0.985 . S
H422 N416 0.984 . S
H423 N416 0.984 1_556 S
H424 N412 0.984 . S
H425 N412 0.985 . S
C426 C427 1.363 . S
C426 C432 1.379 . S
C426 N434 1.356 . S
C427 C426 1.363 . S
C427 C433 1.363 . S
C428 C429 1.363 . S
C428 C433 1.379 . S
C428 N435 1.356 . S
C429 C428 1.363 . S
C429 C432 1.363 . S
N430 C432 1.356 . S
N430 H442 0.984 . S
N430 H443 0.985 . S
N431 C433 1.356 . S
N431 H436 0.984 . S
N431 H437 0.985 . S
C432 C426 1.379 . S
C432 C429 1.363 . S
C432 N430 1.356 . S
C433 C427 1.363 . S
C433 C428 1.379 . S
C433 N431 1.356 . S
N434 C426 1.356 . S
N434 H440 0.984 . S
N434 H441 0.984 . S
N435 C428 1.356 . S
N435 H438 0.984 . S
N435 H439 0.985 . S
H436 N431 0.984 . S
H437 N431 0.985 . S
H438 N435 0.984 . S
H439 N435 0.985 . S
H440 N434 0.984 . S
H441 N434 0.984 . S
H442 N430 0.984 . S
H443 N430 0.985 . S
C444 C445 1.363 . S
C444 C450 1.379 . S
C444 N452 1.356 . S
C445 C444 1.363 . S
C445 C451 1.363 . S
C446 C447 1.363 . S
C446 C451 1.379 . S
C446 N453 1.356 . S
C447 C446 1.363 . S
C447 C450 1.363 . S
N448 C450 1.356 . S
N448 H460 0.984 . S
N448 H461 0.985 . S
N449 C451 1.356 . S
N449 H454 0.984 . S
N449 H455 0.985 . S
C450 C444 1.379 . S
C450 C447 1.363 . S
C450 N448 1.356 . S
C451 C445 1.363 . S
C451 C446 1.379 . S
C451 N449 1.356 . S
N452 C444 1.356 . S
N452 H458 0.984 . S
N452 H459 0.984 . S
N453 C446 1.356 . S
N453 H456 0.984 . S
N453 H457 0.985 . S
H454 N449 0.984 . S
H455 N449 0.985 . S
H456 N453 0.984 . S
H457 N453 0.985 . S
H458 N452 0.984 . S
H459 N452 0.984 . S
H460 N448 0.984 . S
H461 N448 0.985 . S
C462 C463 1.363 . S
C462 C468 1.379 . S
C462 N470 1.356 . S
C463 C462 1.363 . S
C463 C469 1.363 . S
C464 C465 1.363 . S
C464 C469 1.379 . S
C464 N471 1.356 . S
C465 C464 1.363 . S
C465 C468 1.363 . S
N466 C468 1.356 . S
N466 H478 0.984 . S
N466 H479 0.985 . S
N467 C469 1.356 . S
N467 H472 0.984 . S
N467 H473 0.985 . S
C468 C462 1.379 . S
C468 C465 1.363 . S
C468 N466 1.356 . S
C469 C463 1.363 . S
C469 C464 1.379 . S
C469 N467 1.356 . S
N470 C462 1.356 . S
N470 H476 0.984 . S
N470 H477 0.984 . S
N471 C464 1.356 . S
N471 H474 0.984 . S
N471 H475 0.985 . S
H472 N467 0.984 . S
H473 N467 0.985 . S
H474 N471 0.984 . S
H475 N471 0.985 . S
H476 N470 0.984 . S
H477 N470 0.984 . S
H478 N466 0.984 . S
H479 N466 0.985 . S
C480 C481 1.363 . S
C480 C486 1.379 1_545 S
C480 N488 1.356 . S
C481 C480 1.363 . S
C481 C487 1.363 1_554 S
C482 C483 1.363 . S
C482 C487 1.379 1_564 S
C482 N489 1.356 1_554 S
C483 C482 1.363 . S
C483 C486 1.363 . S
N484 C486 1.356 . S
N484 H496 0.984 . S
N484 H497 0.985 . S
N485 C487 1.356 . S
N485 H490 0.984 . S
N485 H491 0.985 . S
C486 C480 1.379 1_565 S
C486 C483 1.363 . S
C486 N484 1.356 . S
C487 C481 1.363 1_556 S
C487 C482 1.379 1_546 S
C487 N485 1.356 . S
N488 C480 1.356 . S
N488 H494 0.984 . S
N488 H495 0.984 . S
N489 C482 1.356 1_556 S
N489 H492 0.984 . S
N489 H493 0.985 . S
H490 N485 0.984 . S
H491 N485 0.985 . S
H492 N489 0.984 . S
H493 N489 0.985 . S
H494 N488 0.984 . S
H495 N488 0.984 . S
H496 N484 0.984 . S
H497 N484 0.985 . S
C498 C499 1.363 . S
C498 C504 1.379 . S
C498 N506 1.356 . S
C499 C498 1.363 . S
C499 C505 1.363 . S
C500 C501 1.363 . S
C500 C505 1.379 . S
C500 N507 1.356 . S
C501 C500 1.363 . S
C501 C504 1.363 . S
N502 C504 1.356 . S
N502 H514 0.984 . S
N502 H515 0.985 . S
N503 C505 1.356 . S
N503 H508 0.984 . S
N503 H509 0.985 . S
C504 C498 1.379 . S
C504 C501 1.363 . S
C504 N502 1.356 . S
C505 C499 1.363 . S
C505 C500 1.379 . S
C505 N503 1.356 . S
N506 C498 1.356 . S
N506 H512 0.984 . S
N506 H513 0.984 . S
N507 C500 1.356 . S
N507 H510 0.984 . S
N507 H511 0.985 . S
H508 N503 0.984 . S
H509 N503 0.985 . S
H510 N507 0.984 . S
H511 N507 0.985 . S
H512 N506 0.984 . S
H513 N506 0.984 . S
H514 N502 0.984 . S
H515 N502 0.985 . S
C516 C517 1.363 . S
C516 C522 1.379 1_455 S
C516 N524 1.356 . S
C517 C516 1.363 . S
C517 C523 1.363 . S
C518 C519 1.363 . S
C518 C523 1.379 1_655 S
C518 N525 1.356 . S
C519 C518 1.363 . S
C519 C522 1.363 . S
N520 C522 1.356 . S
N520 H532 0.984 . S
N520 H533 0.985 . S
N521 C523 1.356 . S
N521 H526 0.984 . S
N521 H527 0.985 . S
C522 C516 1.379 1_655 S
C522 C519 1.363 . S
C522 N520 1.356 . S
C523 C517 1.363 . S
C523 C518 1.379 1_455 S
C523 N521 1.356 . S
N524 C516 1.356 . S
N524 H530 0.984 . S
N524 H531 0.984 . S
N525 C518 1.356 . S
N525 H528 0.984 . S
N525 H529 0.985 . S
H526 N521 0.984 . S
H527 N521 0.985 . S
H528 N525 0.984 . S
H529 N525 0.985 . S
H530 N524 0.984 . S
H531 N524 0.984 . S
H532 N520 0.984 . S
H533 N520 0.985 . S
C534 C535 1.363 . S
C534 C540 1.379 1_565 S
C534 N542 1.356 . S
C535 C534 1.363 . S
C535 C541 1.363 . S
C536 C537 1.363 . S
C536 C541 1.379 1_545 S
C536 N543 1.356 . S
C537 C536 1.363 . S
C537 C540 1.363 . S
N538 C540 1.356 . S
N538 H550 0.984 . S
N538 H551 0.985 . S
N539 C541 1.356 . S
N539 H544 0.984 . S
N539 H545 0.985 . S
C540 C534 1.379 1_545 S
C540 C537 1.363 . S
C540 N538 1.356 . S
C541 C535 1.363 . S
C541 C536 1.379 1_565 S
C541 N539 1.356 . S
N542 C534 1.356 . S
N542 H548 0.984 . S
N542 H549 0.984 . S
N543 C536 1.356 . S
N543 H546 0.984 . S
N543 H547 0.985 . S
H544 N539 0.984 . S
H545 N539 0.985 . S
H546 N543 0.984 . S
H547 N543 0.985 . S
H548 N542 0.984 . S
H549 N542 0.984 . S
H550 N538 0.984 . S
H551 N538 0.985 . S
C552 C553 1.363 . S
C552 C558 1.379 . S
C552 N560 1.356 . S
C553 C552 1.363 . S
C553 C559 1.363 . S
C554 C555 1.363 . S
C554 C559 1.379 . S
C554 N561 1.356 . S
C555 C554 1.363 . S
C555 C558 1.363 . S
N556 C558 1.356 . S
N556 H568 0.984 . S
N556 H569 0.985 . S
N557 C559 1.356 . S
N557 H562 0.984 . S
N557 H563 0.985 . S
C558 C552 1.379 . S
C558 C555 1.363 . S
C558 N556 1.356 . S
C559 C553 1.363 . S
C559 C554 1.379 . S
C559 N557 1.356 . S
N560 C552 1.356 . S
N560 H566 0.984 . S
N560 H567 0.984 . S
N561 C554 1.356 . S
N561 H564 0.984 . S
N561 H565 0.985 . S
H562 N557 0.984 . S
H563 N557 0.985 . S
H564 N561 0.984 . S
H565 N561 0.985 . S
H566 N560 0.984 . S
H567 N560 0.984 . S
H568 N556 0.984 . S
H569 N556 0.985 . S
C570 C571 1.363 . S
C570 C576 1.379 1_455 S
C570 N578 1.356 . S
C571 C570 1.363 . S
C571 C577 1.363 . S
C572 C573 1.363 . S
C572 C577 1.379 1_655 S
C572 N579 1.356 . S
C573 C572 1.363 . S
C573 C576 1.363 . S
N574 C576 1.356 . S
N574 H586 0.984 1_556 S
N574 H587 0.985 . S
N575 C577 1.356 . S
N575 H580 0.984 . S
N575 H581 0.985 . S
C576 C570 1.379 1_655 S
C576 C573 1.363 . S
C576 N574 1.356 . S
C577 C571 1.363 . S
C577 C572 1.379 1_455 S
C577 N575 1.356 . S
N578 C570 1.356 . S
N578 H584 0.984 1_556 S
N578 H585 0.984 . S
N579 C572 1.356 . S
N579 H582 0.984 . S
N579 H583 0.985 . S
H580 N575 0.984 . S
H581 N575 0.985 . S
H582 N579 0.984 . S
H583 N579 0.985 . S
H584 N578 0.984 1_554 S
H585 N578 0.984 . S
H586 N574 0.984 1_554 S
H587 N574 0.985 . S
C157 C3 1.240 . S
C159 C133 1.240 . S
C175 C16 1.239 . S
C177 C148 1.239 . S
C193 C83 1.239 . S
C195 C29 1.239 . S
C211 C42 1.240 . S
C213 C96 1.240 . S
C229 C109 1.239 . S
C231 C55 1.239 . S
C247 C122 1.239 . S
C249 C68 1.239 . S
C265 C107 1.400 . S
C267 C5 1.400 . S
C283 C18 1.399 . S
C285 C120 1.399 . S
C301 C135 1.399 . S
C303 C31 1.399 . S
C319 C44 1.399 . S
C321 C146 1.399 . S
C337 C57 1.399 . S
C339 C81 1.399 . S
C355 C70 1.400 . S
C357 C94 1.400 1_556 S
C373 C140 1.654 . S
C375 C10 1.654 . S
C391 C147 1.654 . S
C393 C23 1.654 . S
C409 C82 1.654 1_554 S
C411 C36 1.654 . S
C427 C49 1.654 . S
C429 C95 1.654 . S
C445 C62 1.654 . S
C447 C108 1.654 . S
C463 C121 1.654 . S
C465 C75 1.654 . S
C481 C4 1.474 . S
C483 C101 1.474 . S
C499 C114 1.474 . S
C501 C17 1.474 . S
C517 C127 1.474 . S
C519 C30 1.474 . S
C535 C43 1.474 . S
C537 C134 1.474 . S
C553 C56 1.474 . S
C555 C153 1.474 . S
C571 C69 1.474 . S
C573 C88 1.474 . S
