# Generated by pormake.
# Topology whz, (6)-cn, num edge types: 1
# Building blocks:
#     Node 0, Type 0, BuildingBlock: FUNLAD_clean_sbu_0, # of connection points: 6
#     Node 1, Type 0, BuildingBlock: FUNLAD_clean_sbu_0, # of connection points: 6
#     Node 2, Type 0, BuildingBlock: FUNLAD_clean_sbu_0, # of connection points: 6
#     Node 3, Type 0, BuildingBlock: FUNLAD_clean_sbu_0, # of connection points: 6
#     Node 4, Type 0, BuildingBlock: FUNLAD_clean_sbu_0, # of connection points: 6
#     Node 5, Type 0, BuildingBlock: FUNLAD_clean_sbu_0, # of connection points: 6
#     Node 6, Type 0, BuildingBlock: FUNLAD_clean_sbu_0, # of connection points: 6
#     Node 7, Type 0, BuildingBlock: FUNLAD_clean_sbu_0, # of connection points: 6
#     Node 8, Type 0, BuildingBlock: FUNLAD_clean_sbu_0, # of connection points: 6
#     Node 9, Type 0, BuildingBlock: FUNLAD_clean_sbu_0, # of connection points: 6
#     Node 10, Type 0, BuildingBlock: FUNLAD_clean_sbu_0, # of connection points: 6
#     Node 11, Type 0, BuildingBlock: FUNLAD_clean_sbu_0, # of connection points: 6
#     Node 12, Type 0, BuildingBlock: FUNLAD_clean_sbu_0, # of connection points: 6
#     Node 13, Type 0, BuildingBlock: FUNLAD_clean_sbu_0, # of connection points: 6
#     Node 14, Type 0, BuildingBlock: FUNLAD_clean_sbu_0, # of connection points: 6
#     Node 15, Type 0, BuildingBlock: FUNLAD_clean_sbu_0, # of connection points: 6
#     Edge 16, Type (0, 0), BuildingBlock: EZIPEK_clean_linker_0, # of connection points: 2
#     Edge 17, Type (0, 0), BuildingBlock: EZIPEK_clean_linker_0, # of connection points: 2
#     Edge 18, Type (0, 0), BuildingBlock: EZIPEK_clean_linker_0, # of connection points: 2
#     Edge 19, Type (0, 0), BuildingBlock: EZIPEK_clean_linker_0, # of connection points: 2
#     Edge 20, Type (0, 0), BuildingBlock: EZIPEK_clean_linker_0, # of connection points: 2
#     Edge 21, Type (0, 0), BuildingBlock: EZIPEK_clean_linker_0, # of connection points: 2
#     Edge 22, Type (0, 0), BuildingBlock: EZIPEK_clean_linker_0, # of connection points: 2
#     Edge 23, Type (0, 0), BuildingBlock: EZIPEK_clean_linker_0, # of connection points: 2
#     Edge 24, Type (0, 0), BuildingBlock: EZIPEK_clean_linker_0, # of connection points: 2
#     Edge 25, Type (0, 0), BuildingBlock: EZIPEK_clean_linker_0, # of connection points: 2
#     Edge 26, Type (0, 0), BuildingBlock: EZIPEK_clean_linker_0, # of connection points: 2
#     Edge 27, Type (0, 0), BuildingBlock: EZIPEK_clean_linker_0, # of connection points: 2
#     Edge 28, Type (0, 0), BuildingBlock: EZIPEK_clean_linker_0, # of connection points: 2
#     Edge 29, Type (0, 0), BuildingBlock: EZIPEK_clean_linker_0, # of connection points: 2
#     Edge 30, Type (0, 0), BuildingBlock: EZIPEK_clean_linker_0, # of connection points: 2
#     Edge 31, Type (0, 0), BuildingBlock: EZIPEK_clean_linker_0, # of connection points: 2
#     Edge 32, Type (0, 0), BuildingBlock: EZIPEK_clean_linker_0, # of connection points: 2
#     Edge 33, Type (0, 0), BuildingBlock: EZIPEK_clean_linker_0, # of connection points: 2
#     Edge 34, Type (0, 0), BuildingBlock: EZIPEK_clean_linker_0, # of connection points: 2
#     Edge 35, Type (0, 0), BuildingBlock: EZIPEK_clean_linker_0, # of connection points: 2
#     Edge 36, Type (0, 0), BuildingBlock: EZIPEK_clean_linker_0, # of connection points: 2
#     Edge 37, Type (0, 0), BuildingBlock: EZIPEK_clean_linker_0, # of connection points: 2
#     Edge 38, Type (0, 0), BuildingBlock: EZIPEK_clean_linker_0, # of connection points: 2
#     Edge 39, Type (0, 0), BuildingBlock: EZIPEK_clean_linker_0, # of connection points: 2
#     Edge 40, Type (0, 0), BuildingBlock: EZIPEK_clean_linker_0, # of connection points: 2
#     Edge 41, Type (0, 0), BuildingBlock: EZIPEK_clean_linker_0, # of connection points: 2
#     Edge 42, Type (0, 0), BuildingBlock: EZIPEK_clean_linker_0, # of connection points: 2
#     Edge 43, Type (0, 0), BuildingBlock: EZIPEK_clean_linker_0, # of connection points: 2
#     Edge 44, Type (0, 0), BuildingBlock: EZIPEK_clean_linker_0, # of connection points: 2
#     Edge 45, Type (0, 0), BuildingBlock: EZIPEK_clean_linker_0, # of connection points: 2
#     Edge 46, Type (0, 0), BuildingBlock: EZIPEK_clean_linker_0, # of connection points: 2
#     Edge 47, Type (0, 0), BuildingBlock: EZIPEK_clean_linker_0, # of connection points: 2
#     Edge 48, Type (0, 0), BuildingBlock: EZIPEK_clean_linker_0, # of connection points: 2
#     Edge 49, Type (0, 0), BuildingBlock: EZIPEK_clean_linker_0, # of connection points: 2
#     Edge 50, Type (0, 0), BuildingBlock: EZIPEK_clean_linker_0, # of connection points: 2
#     Edge 51, Type (0, 0), BuildingBlock: EZIPEK_clean_linker_0, # of connection points: 2
#     Edge 52, Type (0, 0), BuildingBlock: EZIPEK_clean_linker_0, # of connection points: 2
#     Edge 53, Type (0, 0), BuildingBlock: EZIPEK_clean_linker_0, # of connection points: 2
#     Edge 54, Type (0, 0), BuildingBlock: EZIPEK_clean_linker_0, # of connection points: 2
#     Edge 55, Type (0, 0), BuildingBlock: EZIPEK_clean_linker_0, # of connection points: 2
#     Edge 56, Type (0, 0), BuildingBlock: EZIPEK_clean_linker_0, # of connection points: 2
#     Edge 57, Type (0, 0), BuildingBlock: EZIPEK_clean_linker_0, # of connection points: 2
#     Edge 58, Type (0, 0), BuildingBlock: EZIPEK_clean_linker_0, # of connection points: 2
#     Edge 59, Type (0, 0), BuildingBlock: EZIPEK_clean_linker_0, # of connection points: 2
#     Edge 60, Type (0, 0), BuildingBlock: EZIPEK_clean_linker_0, # of connection points: 2
#     Edge 61, Type (0, 0), BuildingBlock: EZIPEK_clean_linker_0, # of connection points: 2
#     Edge 62, Type (0, 0), BuildingBlock: EZIPEK_clean_linker_0, # of connection points: 2
#     Edge 63, Type (0, 0), BuildingBlock: EZIPEK_clean_linker_0, # of connection points: 2
# Relax obj value: 0.685
# Max RMSD: 0.297
# Mean RMSD: 0.297
data_MOF--net-whz--node1-FUNLAD_clean_sbu_0--edge1-EZIPEK_clean_linker_0
_symmetry_space_group_name_H-M    P1
_symmetry_Int_Tables_number       1
_symmetry_cell_setting            triclinic
loop_
_symmetry_equiv_pos_as_xyz
'x, y, z'
_cell_length_a     29.086089
_cell_length_b     29.040695
_cell_length_c     43.50153
_cell_angle_alpha  89.955724
_cell_angle_beta   90.083729
_cell_angle_gamma 90.240682
loop_
_atom_site_label
_atom_site_type_symbol
_atom_site_fract_x
_atom_site_fract_y
_atom_site_fract_z
_atom_type_partial_charge
C0 C 0.34121 0.11692 0.09866 0.0
N1 N 0.29759 0.24724 0.12136 0.0
C2 C 0.2628 0.24391 0.10053 0.0
C3 C 0.23647 0.28244 0.09363 0.0
C4 C 0.24702 0.32422 0.10803 0.0
C5 C 0.28615 0.3279 0.12662 0.0
C6 C 0.31117 0.28847 0.13316 0.0
Zn7 Zn 0.3189 0.19001 0.14294 0.0
C8 C 0.24262 0.12541 0.15413 0.0
N9 N 0.35791 0.06878 0.19359 0.0
C10 C 0.37975 0.07415 0.22111 0.0
C11 C 0.33673 0.02813 0.18647 0.0
C12 C 0.33448 0.99223 0.20804 0.0
C13 C 0.35437 0.99811 0.23717 0.0
C14 C 0.37842 0.03909 0.24329 0.0
Zn15 Zn 0.34199 0.1276 0.16817 0.0
O16 O 0.33116 0.15909 0.10135 0.0
C17 C 0.42019 0.19284 0.15692 0.0
O18 O 0.35109 0.09374 0.12291 0.0
H19 H 0.31873 0.02458 0.16483 0.0
H20 H 0.25289 0.21071 0.09139 0.0
H21 H 0.39565 0.10681 0.22673 0.0
O22 O 0.38763 0.21547 0.14465 0.0
O23 O 0.412 0.15333 0.16864 0.0
H24 H 0.33868 0.29009 0.14986 0.0
O25 O 0.32731 0.16338 0.21104 0.0
O26 O 0.30276 0.22151 0.184 0.0
O27 O 0.27448 0.10385 0.16756 0.0
O28 O 0.25088 0.16396 0.14164 0.0
C29 C 0.30823 0.20273 0.2099 0.0
H30 H 0.20641 0.27902 0.07906 0.0
H31 H 0.29486 0.36002 0.13791 0.0
H32 H 0.31574 0.96099 0.20255 0.0
H33 H 0.39426 0.0447 0.26553 0.0
C34 C 0.61989 0.59185 0.34172 0.0
N35 N 0.5025 0.52825 0.37379 0.0
C36 C 0.47806 0.54408 0.34927 0.0
C37 C 0.43892 0.52018 0.33936 0.0
C38 C 0.42502 0.48067 0.35549 0.0
C39 C 0.45175 0.46429 0.37975 0.0
C40 C 0.49072 0.48848 0.38839 0.0
Zn41 Zn 0.55821 0.5613 0.39105 0.0
C42 C 0.63407 0.49577 0.40194 0.0
N43 N 0.67749 0.62191 0.4331 0.0
C44 C 0.67042 0.64553 0.4597 0.0
C45 C 0.71895 0.60196 0.42725 0.0
C46 C 0.75282 0.60006 0.45019 0.0
C47 C 0.74414 0.61978 0.47902 0.0
C48 C 0.70344 0.64479 0.48311 0.0
Zn49 Zn 0.61933 0.59524 0.41188 0.0
O50 O 0.58039 0.57565 0.34748 0.0
C51 C 0.54318 0.6625 0.40181 0.0
O52 O 0.64571 0.60441 0.36419 0.0
H53 H 0.72394 0.58302 0.40616 0.0
H54 H 0.48837 0.57556 0.33786 0.0
H55 H 0.63713 0.66049 0.46426 0.0
O56 O 0.52259 0.62597 0.39294 0.0
O57 O 0.58508 0.66051 0.41039 0.0
H58 H 0.51089 0.47585 0.40738 0.0
O59 O 0.59217 0.58132 0.45741 0.0
O60 O 0.5354 0.54491 0.43501 0.0
O61 O 0.65107 0.53155 0.41394 0.0
O62 O 0.59503 0.49786 0.38901 0.0
C63 C 0.55604 0.55676 0.45926 0.0
H64 H 0.41859 0.53339 0.32046 0.0
H65 H 0.44177 0.43372 0.39244 0.0
H66 H 0.78389 0.58051 0.44627 0.0
H67 H 0.6957 0.66041 0.50511 0.0
C68 C 0.15325 0.87622 0.59751 0.0
N69 N 0.20601 0.74849 0.61669 0.0
C70 C 0.24088 0.75534 0.59634 0.0
C71 C 0.26986 0.7191 0.58884 0.0
C72 C 0.26162 0.67594 0.60203 0.0
C73 C 0.22221 0.66852 0.61977 0.0
C74 C 0.19462 0.70578 0.62703 0.0
Zn75 Zn 0.18207 0.80256 0.64024 0.0
C76 C 0.25543 0.87179 0.65126 0.0
N77 N 0.13999 0.92072 0.6927 0.0
C78 C 0.157 0.96297 0.68483 0.0
C79 C 0.12278 0.9131 0.72138 0.0
C80 C 0.12503 0.94761 0.74388 0.0
C81 C 0.14521 0.99038 0.73689 0.0
C82 C 0.16022 0.99831 0.70671 0.0
Zn83 Zn 0.15791 0.86408 0.66588 0.0
O84 O 0.16761 0.83534 0.59976 0.0
C85 C 0.08278 0.79377 0.65542 0.0
O86 O 0.14195 0.89822 0.62188 0.0
H87 H 0.11035 0.87918 0.72755 0.0
H88 H 0.24889 0.78964 0.58825 0.0
H89 H 0.1715 0.96831 0.66223 0.0
O90 O 0.11545 0.7739 0.6414 0.0
O91 O 0.08998 0.83261 0.66844 0.0
H92 H 0.16699 0.70136 0.64338 0.0
O93 O 0.1811 0.82883 0.70742 0.0
O94 O 0.19971 0.76833 0.68031 0.0
O95 O 0.22227 0.89293 0.66331 0.0
O96 O 0.24901 0.8323 0.63962 0.0
C97 C 0.19903 0.78888 0.70583 0.0
H98 H 0.30013 0.72536 0.57495 0.0
H99 H 0.21531 0.63524 0.6301 0.0
H100 H 0.11327 0.94021 0.76699 0.0
H101 H 0.17622 0.03076 0.70054 0.0
C102 C 0.88441 0.41124 0.844 0.0
N103 N 0.00047 0.46557 0.87854 0.0
C104 C 0.03455 0.44511 0.86212 0.0
C105 C 0.07481 0.46964 0.85542 0.0
C106 C 0.07889 0.51535 0.86548 0.0
C107 C 0.04251 0.53614 0.8808 0.0
C108 C 0.0038 0.51041 0.88748 0.0
Zn109 Zn 0.94454 0.43133 0.89489 0.0
C110 C 0.86548 0.50161 0.90455 0.0
N111 N 0.82017 0.3799 0.93617 0.0
C112 C 0.77826 0.39833 0.92933 0.0
C113 C 0.82684 0.35754 0.96339 0.0
C114 C 0.79247 0.35716 0.986 0.0
C115 C 0.75068 0.37977 0.98062 0.0
C116 C 0.74296 0.39883 0.9514 0.0
Zn117 Zn 0.87925 0.40689 0.91511 0.0
O118 O 0.92624 0.41264 0.8515 0.0
C119 C 0.95629 0.33407 0.90581 0.0
O120 O 0.85437 0.4046 0.86539 0.0
H121 H 0.86042 0.34391 0.96887 0.0
H122 H 0.03128 0.40945 0.8553 0.0
H123 H 0.77358 0.41686 0.90798 0.0
O124 O 0.98058 0.36893 0.8986 0.0
O125 O 0.91377 0.33942 0.91247 0.0
H126 H 0.97749 0.52616 0.90117 0.0
O127 O 0.90782 0.42108 0.96116 0.0
O128 O 0.96674 0.45042 0.93689 0.0
O129 O 0.8464 0.46874 0.91827 0.0
O130 O 0.90414 0.49517 0.89175 0.0
C131 C 0.9456 0.44361 0.96161 0.0
H132 H 0.10289 0.45289 0.8436 0.0
H133 H 0.04512 0.5713 0.88901 0.0
H134 H 0.79956 0.34189 0.00823 0.0
H135 H 0.71105 0.4164 0.94638 0.0
C136 C 0.69633 0.8077 0.79882 0.0
N137 N 0.63039 0.92996 0.82352 0.0
C138 C 0.64905 0.97208 0.82995 0.0
C139 C 0.64971 0.00692 0.80756 0.0
C140 C 0.63039 0.99854 0.7785 0.0
C141 C 0.60734 0.95661 0.77361 0.0
C142 C 0.60759 0.92269 0.79655 0.0
Zn143 Zn 0.65816 0.87237 0.84526 0.0
C144 C 0.59352 0.79467 0.85701 0.0
N145 N 0.72942 0.75782 0.88268 0.0
C146 C 0.77227 0.75046 0.87114 0.0
C147 C 0.70888 0.72687 0.90179 0.0
C148 C 0.73081 0.68542 0.90865 0.0
C149 C 0.77419 0.67671 0.89596 0.0
C150 C 0.7956 0.71015 0.87784 0.0
Zn151 Zn 0.69528 0.81325 0.86623 0.0
O152 O 0.67016 0.84266 0.79986 0.0
C153 C 0.75795 0.88991 0.85149 0.0
O154 O 0.70996 0.78974 0.82352 0.0
H155 H 0.6748 0.73344 0.91061 0.0
H156 H 0.66784 0.97715 0.85117 0.0
H157 H 0.78768 0.77473 0.85538 0.0
O158 O 0.7208 0.90567 0.84104 0.0
O159 O 0.75811 0.8517 0.8656 0.0
H160 H 0.59369 0.88894 0.79147 0.0
O161 O 0.68276 0.83585 0.90999 0.0
O162 O 0.65114 0.89991 0.89335 0.0
O163 O 0.63112 0.77597 0.86539 0.0
O164 O 0.59367 0.83669 0.84838 0.0
C165 C 0.66565 0.87489 0.91576 0.0
H166 H 0.66785 0.03885 0.81212 0.0
H167 H 0.59205 0.94898 0.75145 0.0
H168 H 0.71356 0.65983 0.92267 0.0
H169 H 0.82896 0.70396 0.8676 0.0
C170 C 0.46232 0.46044 0.55576 0.0
N171 N 0.32803 0.40102 0.56422 0.0
C172 C 0.28503 0.41556 0.57201 0.0
C173 C 0.24918 0.41519 0.55039 0.0
C174 C 0.25744 0.39954 0.52042 0.0
C175 C 0.30139 0.38283 0.51328 0.0
C176 C 0.33636 0.38397 0.53558 0.0
Zn177 Zn 0.38327 0.41949 0.59261 0.0
C178 C 0.45148 0.34408 0.6055 0.0
N179 N 0.49576 0.46854 0.64603 0.0
C180 C 0.53899 0.45731 0.63698 0.0
C181 C 0.4878 0.50458 0.66527 0.0
C182 C 0.52332 0.53502 0.67246 0.0
C183 C 0.56704 0.52703 0.66027 0.0
C184 C 0.57559 0.48633 0.64406 0.0
Zn185 Zn 0.44295 0.44378 0.62075 0.0
O186 O 0.42267 0.44219 0.55199 0.0
C187 C 0.37463 0.51681 0.60705 0.0
O188 O 0.47974 0.46185 0.58226 0.0
H189 H 0.45315 0.5125 0.67239 0.0
H190 H 0.27901 0.42996 0.59455 0.0
H191 H 0.54438 0.42879 0.62146 0.0
O192 O 0.35465 0.48351 0.59407 0.0
O193 O 0.41305 0.51062 0.62023 0.0
H194 H 0.37075 0.37336 0.52946 0.0
O195 O 0.40757 0.42902 0.66004 0.0
O196 O 0.34605 0.404 0.63566 0.0
O197 O 0.47124 0.37659 0.62012 0.0
O198 O 0.41365 0.35178 0.59148 0.0
C199 C 0.36644 0.41488 0.66081 0.0
H200 H 0.21566 0.42817 0.55673 0.0
H201 H 0.30891 0.37031 0.4904 0.0
H202 H 0.51603 0.56624 0.68514 0.0
H203 H 0.60923 0.47951 0.63445 0.0
C204 C 0.80119 0.20403 0.30264 0.0
N205 N 0.84797 0.06877 0.32213 0.0
C206 C 0.82119 0.06258 0.29669 0.0
C207 C 0.82689 0.02478 0.2775 0.0
C208 C 0.85909 0.99103 0.28492 0.0
C209 C 0.88281 0.99502 0.31313 0.0
C210 C 0.87743 0.03497 0.33122 0.0
Zn211 Zn 0.83216 0.12952 0.34574 0.0
C212 C 0.90899 0.1974 0.35692 0.0
N213 N 0.78139 0.24988 0.38933 0.0
C214 C 0.74071 0.26244 0.37634 0.0
C215 C 0.80217 0.27636 0.41117 0.0
C216 C 0.78222 0.31821 0.41992 0.0
C217 C 0.74119 0.33197 0.40562 0.0
C218 C 0.72007 0.30333 0.38417 0.0
Zn219 Zn 0.80763 0.19206 0.37038 0.0
O220 O 0.81965 0.16443 0.30171 0.0
C221 C 0.73296 0.1247 0.35876 0.0
O222 O 0.79388 0.22185 0.3285 0.0
H223 H 0.83458 0.26571 0.42105 0.0
H224 H 0.7948 0.08698 0.29103 0.0
H225 H 0.72466 0.24173 0.35873 0.0
O226 O 0.7654 0.10392 0.34566 0.0
O227 O 0.74047 0.16306 0.37154 0.0
H228 H 0.89685 0.03895 0.35228 0.0
O229 O 0.8192 0.16325 0.41282 0.0
O230 O 0.84049 0.09795 0.39163 0.0
O231 O 0.87591 0.21974 0.36895 0.0
O232 O 0.90168 0.15715 0.34589 0.0
C233 C 0.83021 0.12127 0.41569 0.0
H234 H 0.80716 0.02274 0.25638 0.0
H235 H 0.90714 0.96892 0.32015 0.0
H236 H 0.79913 0.34015 0.43662 0.0
H237 H 0.68849 0.31334 0.37274 0.0
C238 C 0.04587 0.53951 0.05608 0.0
N239 N 0.17711 0.60253 0.06797 0.0
C240 C 0.16884 0.61948 0.03927 0.0
C241 C 0.20341 0.61917 0.01679 0.0
C242 C 0.24698 0.60127 0.02381 0.0
C243 C 0.25547 0.58651 0.05401 0.0
C244 C 0.22 0.58764 0.07584 0.0
Zn245 Zn 0.12128 0.58174 0.09498 0.0
C246 C 0.04934 0.65462 0.10616 0.0
N247 N 0.00767 0.52628 0.14456 0.0
C248 C 0.99432 0.48452 0.13343 0.0
C249 C 0.98405 0.54741 0.16754 0.0
C250 C 0.94353 0.5274 0.17882 0.0
C251 C 0.92741 0.48644 0.16536 0.0
C252 C 0.95403 0.46419 0.14333 0.0
Zn253 Zn 0.06111 0.55481 0.12149 0.0
O254 O 0.08491 0.55924 0.0531 0.0
C255 C 0.13342 0.48466 0.10941 0.0
O256 O 0.02781 0.53669 0.08219 0.0
H257 H 0.99556 0.58044 0.17617 0.0
H258 H 0.13451 0.63031 0.03308 0.0
H259 H 0.01349 0.4678 0.11545 0.0
O260 O 0.15223 0.51863 0.09647 0.0
O261 O 0.09452 0.48946 0.12212 0.0
H262 H 0.22593 0.57328 0.09843 0.0
O263 O 0.093 0.5706 0.16176 0.0
O264 O 0.15533 0.59737 0.13917 0.0
O265 O 0.02938 0.6211 0.11977 0.0
O266 O 0.08867 0.64832 0.09384 0.0
C267 C 0.13364 0.58596 0.16371 0.0
H268 H 0.19561 0.63084 0.99372 0.0
H269 H 0.28858 0.57232 0.06023 0.0
H270 H 0.92358 0.54493 0.19621 0.0
H271 H 0.9426 0.43229 0.13282 0.0
C272 C 0.82491 0.62604 0.59487 0.0
N273 N 0.78319 0.75815 0.6156 0.0
C274 C 0.74769 0.75364 0.59541 0.0
C275 C 0.71991 0.79126 0.5889 0.0
C276 C 0.72987 0.83352 0.60285 0.0
C277 C 0.77014 0.83867 0.62023 0.0
C278 C 0.79656 0.79997 0.62652 0.0
Zn279 Zn 0.80352 0.70134 0.63837 0.0
C280 C 0.7257 0.63985 0.65152 0.0
N281 N 0.83843 0.57809 0.68875 0.0
C282 C 0.86553 0.54238 0.67973 0.0
C283 C 0.81273 0.5744 0.71485 0.0
C284 C 0.81776 0.53714 0.73476 0.0
C285 C 0.84777 0.50142 0.72728 0.0
C286 C 0.86978 0.50292 0.69842 0.0
Zn287 Zn 0.82603 0.6381 0.66326 0.0
O288 O 0.81397 0.66801 0.59723 0.0
C289 C 0.90499 0.70146 0.65186 0.0
O290 O 0.83458 0.60295 0.61909 0.0
H291 H 0.78791 0.60042 0.72048 0.0
H292 H 0.73799 0.72001 0.58689 0.0
H293 H 0.88407 0.54448 0.65824 0.0
O294 O 0.87277 0.72424 0.63924 0.0
O295 O 0.89649 0.6619 0.66355 0.0
H296 H 0.8248 0.80255 0.64262 0.0
O297 O 0.81393 0.67644 0.70558 0.0
O298 O 0.79064 0.73533 0.67886 0.0
O299 O 0.75802 0.61678 0.66316 0.0
O300 O 0.73425 0.6782 0.63888 0.0
C301 C 0.79762 0.71704 0.70476 0.0
H302 H 0.68905 0.78661 0.57526 0.0
H303 H 0.77851 0.87117 0.63114 0.0
H304 H 0.79926 0.53694 0.75637 0.0
H305 H 0.89249 0.47539 0.69145 0.0
C306 C 0.1336 0.08494 0.84658 0.0
N307 N 0.00624 0.02697 0.8633 0.0
C308 C 0.98311 0.04887 0.84034 0.0
C309 C 0.94242 0.02963 0.82868 0.0
C310 C 0.92565 0.98862 0.84173 0.0
C311 C 0.95195 0.96545 0.86358 0.0
C312 C 0.99239 0.98507 0.8739 0.0
Zn313 Zn 0.05911 0.05487 0.8874 0.0
C314 C 0.13037 0.98368 0.90096 0.0
N315 N 0.1736 0.10136 0.94322 0.0
C316 C 0.21676 0.08669 0.93594 0.0
C317 C 0.16452 0.11808 0.97185 0.0
C318 C 0.19856 0.11795 0.99478 0.0
C319 C 0.24247 0.10056 0.98829 0.0
C320 C 0.25175 0.08588 0.95821 0.0
Zn321 Zn 0.11855 0.08108 0.91511 0.0
O322 O 0.09256 0.07055 0.84776 0.0
C323 C 0.04736 0.15496 0.90273 0.0
O324 O 0.15451 0.09606 0.87152 0.0
H325 H 0.13 0.12875 0.97759 0.0
H326 H 0.99501 0.08202 0.83215 0.0
H327 H 0.22334 0.07244 0.91343 0.0
O328 O 0.02768 0.12162 0.88872 0.0
O329 O 0.08634 0.14827 0.91559 0.0
H330 H 0.01109 0.9678 0.89192 0.0
O331 O 0.0803 0.05902 0.9562 0.0
O332 O 0.02424 0.03664 0.92604 0.0
O333 O 0.14895 0.01742 0.91437 0.0
O334 O 0.0922 0.98909 0.8873 0.0
C335 C 0.04136 0.03935 0.95248 0.0
H336 H 0.92275 0.04789 0.81142 0.0
H337 H 0.94002 0.9335 0.87379 0.0
H338 H 0.19014 0.12956 0.01774 0.0
H339 H 0.28516 0.07212 0.95237 0.0
C340 C 0.66547 0.37209 0.0954 0.0
N341 N 0.72991 0.25455 0.1267 0.0
C342 C 0.70846 0.22324 0.10831 0.0
C343 C 0.73002 0.18163 0.10151 0.0
C344 C 0.77397 0.17323 0.11348 0.0
C345 C 0.79634 0.2071 0.13069 0.0
C346 C 0.77334 0.2475 0.13742 0.0
Zn347 Zn 0.69637 0.30956 0.14392 0.0
C348 C 0.75991 0.38601 0.15824 0.0
N349 N 0.63372 0.426 0.18813 0.0
C350 C 0.6503 0.4683 0.17994 0.0
C351 C 0.61233 0.41985 0.2157 0.0
C352 C 0.6106 0.45579 0.23719 0.0
C353 C 0.63097 0.49845 0.23027 0.0
C354 C 0.64943 0.50512 0.20082 0.0
Zn355 Zn 0.66072 0.36832 0.16616 0.0
O356 O 0.6823 0.33273 0.10054 0.0
C357 C 0.59517 0.2909 0.15457 0.0
O358 O 0.6522 0.39671 0.11829 0.0
H359 H 0.60007 0.386 0.22217 0.0
H360 H 0.67393 0.22957 0.10015 0.0
H361 H 0.6681 0.4725 0.1583 0.0
O362 O 0.63235 0.27226 0.14544 0.0
O363 O 0.59589 0.33272 0.16362 0.0
H364 H 0.78947 0.27194 0.15272 0.0
O365 O 0.67445 0.33756 0.21132 0.0
O366 O 0.71263 0.28501 0.18619 0.0
O367 O 0.72343 0.4016 0.16973 0.0
O368 O 0.75913 0.34818 0.14373 0.0
C369 C 0.70022 0.30217 0.21136 0.0
H370 H 0.71209 0.15567 0.08818 0.0
H371 H 0.83017 0.20112 0.14034 0.0
H372 H 0.59589 0.44955 0.25968 0.0
H373 H 0.66532 0.53764 0.1947 0.0
C374 C 0.3664 0.90815 0.34901 0.0
N375 N 0.48552 0.97409 0.37743 0.0
C376 C 0.51755 0.95373 0.3592 0.0
C377 C 0.55796 0.9775 0.35167 0.0
C378 C 0.5643 0.02243 0.36275 0.0
C379 C 0.52974 0.04332 0.37988 0.0
C380 C 0.49087 0.01825 0.38741 0.0
Zn381 Zn 0.43104 0.93986 0.39576 0.0
C382 C 0.35569 0.00431 0.41009 0.0
N383 N 0.31532 0.87983 0.44248 0.0
C384 C 0.32208 0.85974 0.47043 0.0
C385 C 0.27334 0.89724 0.43477 0.0
C386 C 0.23795 0.89938 0.4566 0.0
C387 C 0.24558 0.88271 0.48644 0.0
C388 C 0.28752 0.86089 0.49286 0.0
Zn389 Zn 0.37248 0.90599 0.41944 0.0
O390 O 0.40678 0.92346 0.35307 0.0
C391 C 0.44786 0.83896 0.40635 0.0
O392 O 0.34196 0.89749 0.37257 0.0
H393 H 0.26871 0.914 0.41278 0.0
H394 H 0.5128 0.91852 0.35175 0.0
H395 H 0.35572 0.84681 0.47648 0.0
O396 O 0.46796 0.87605 0.39795 0.0
O397 O 0.40627 0.84072 0.41569 0.0
H398 H 0.46638 0.03362 0.40284 0.0
O399 O 0.40522 0.91988 0.46393 0.0
O400 O 0.45634 0.95854 0.43761 0.0
O401 O 0.34061 0.96899 0.42355 0.0
O402 O 0.39216 0.002 0.39434 0.0
C403 C 0.43996 0.94674 0.46319 0.0
H404 H 0.58462 0.96056 0.33857 0.0
H405 H 0.5342 0.07776 0.38904 0.0
H406 H 0.2061 0.91659 0.45087 0.0
H407 H 0.29459 0.84771 0.51568 0.0
C408 C 0.19699 0.29539 0.29937 0.0
N409 N 0.1355 0.42351 0.3178 0.0
C410 C 0.1163 0.41728 0.28951 0.0
C411 C 0.11846 0.45232 0.26736 0.0
C412 C 0.1404 0.49419 0.27438 0.0
C413 C 0.15657 0.50112 0.30442 0.0
C414 C 0.15351 0.46524 0.32595 0.0
Zn415 Zn 0.15772 0.36579 0.34192 0.0
C416 C 0.08661 0.29234 0.3543 0.0
N417 N 0.21718 0.25182 0.38745 0.0
C418 C 0.25746 0.23754 0.37488 0.0
C419 C 0.19798 0.22979 0.41194 0.0
C420 C 0.21859 0.19014 0.42372 0.0
C421 C 0.25811 0.17314 0.40928 0.0
C422 C 0.2783 0.19781 0.38528 0.0
Zn423 Zn 0.18778 0.30613 0.36664 0.0
O424 O 0.1738 0.33247 0.29812 0.0
C425 C 0.25704 0.37789 0.35296 0.0
O426 O 0.20462 0.27718 0.32515 0.0
H427 H 0.16619 0.24224 0.42171 0.0
H428 H 0.10294 0.38381 0.28313 0.0
H429 H 0.27286 0.25609 0.35596 0.0
O430 O 0.22244 0.39572 0.34024 0.0
O431 O 0.25287 0.34016 0.36734 0.0
H432 H 0.16961 0.46941 0.3482 0.0
O433 O 0.17326 0.33422 0.40868 0.0
O434 O 0.14744 0.39803 0.38812 0.0
O435 O 0.12205 0.27261 0.36539 0.0
O436 O 0.09044 0.33299 0.3432 0.0
C437 C 0.15854 0.37481 0.41212 0.0
H438 H 0.1057 0.44577 0.24435 0.0
H439 H 0.17388 0.53289 0.31059 0.0
H440 H 0.20267 0.17159 0.44254 0.0
H441 H 0.30914 0.18555 0.37403 0.0
C442 C 0.94439 0.94286 0.04782 0.0
N443 N 0.8211 0.87686 0.07512 0.0
C444 C 0.77917 0.89494 0.08223 0.0
C445 C 0.74376 0.89607 0.06019 0.0
C446 C 0.75136 0.87791 0.03073 0.0
C447 C 0.79308 0.85536 0.0251 0.0
C448 C 0.82756 0.85511 0.0477 0.0
Zn449 Zn 0.88037 0.90448 0.09568 0.0
C450 C 0.95874 0.83337 0.1032 0.0
N451 N 0.00233 0.96512 0.13024 0.0
C452 C 0.00559 0.00976 0.12086 0.0
C453 C 0.03563 0.94553 0.1479 0.0
C454 C 0.07498 0.97087 0.15569 0.0
C455 C 0.07896 0.01649 0.14538 0.0
C456 C 0.04343 0.03627 0.1285 0.0
Zn457 Zn 0.94655 0.93042 0.11409 0.0
O458 O 0.90682 0.92006 0.04928 0.0
C459 C 0.86613 0.99899 0.10615 0.0
O460 O 0.96712 0.94982 0.07191 0.0
H461 H 0.03232 0.91002 0.15512 0.0
H462 H 0.77461 0.91296 0.10376 0.0
H463 H 0.97969 0.02479 0.10637 0.0
O464 O 0.84652 0.96543 0.0936 0.0
O465 O 0.90589 0.99372 0.11772 0.0
H466 H 0.86114 0.84174 0.042 0.0
O467 O 0.92991 0.91146 0.15747 0.0
O468 O 0.85756 0.90037 0.1456 0.0
O469 O 0.98297 0.8685 0.10993 0.0
O470 O 0.9159 0.83806 0.09733 0.0
C471 C 0.88878 0.90786 0.16612 0.0
H472 H 0.71191 0.91358 0.0654 0.0
H473 H 0.80008 0.84078 1.00268 0.0
H474 H 0.10243 0.95486 0.16864 0.0
H475 H 0.04602 0.0713 0.12004 0.0
C476 C 0.30179 0.70327 0.80529 0.0
N477 N 0.35877 0.57124 0.81877 0.0
C478 C 0.37822 0.57949 0.79081 0.0
C479 C 0.37611 0.54625 0.76749 0.0
C480 C 0.35371 0.50408 0.77287 0.0
C481 C 0.33649 0.49524 0.80242 0.0
C482 C 0.33967 0.52932 0.8252 0.0
Zn483 Zn 0.34139 0.62812 0.84558 0.0
C484 C 0.41848 0.69682 0.85559 0.0
N485 N 0.29566 0.74648 0.89372 0.0
C486 C 0.30907 0.78833 0.88281 0.0
C487 C 0.25947 0.74192 0.91331 0.0
C488 C 0.23173 0.77972 0.91962 0.0
C489 C 0.24233 0.8221 0.90598 0.0
C490 C 0.28269 0.82703 0.88882 0.0
Zn491 Zn 0.31897 0.69057 0.8712 0.0
O492 O 0.31861 0.66286 0.80384 0.0
C493 C 0.2444 0.62185 0.86096 0.0
O494 O 0.30211 0.72422 0.83067 0.0
H495 H 0.24965 0.7083 0.9218 0.0
H496 H 0.39225 0.6132 0.78574 0.0
H497 H 0.33755 0.79102 0.86697 0.0
O498 O 0.27685 0.60013 0.84857 0.0
O499 O 0.25151 0.66155 0.87218 0.0
H500 H 0.32353 0.52347 0.84724 0.0
O501 O 0.33236 0.65819 0.91207 0.0
O502 O 0.35658 0.59459 0.89005 0.0
O503 O 0.38677 0.71776 0.86992 0.0
O504 O 0.40978 0.65832 0.8426 0.0
C505 C 0.34539 0.61679 0.91441 0.0
H506 H 0.38961 0.55435 0.74491 0.0
H507 H 0.31876 0.46321 0.80736 0.0
H508 H 0.20073 0.7753 0.9331 0.0
H509 H 0.29151 0.8596 0.87814 0.0
C510 C 0.53183 0.05541 0.5544 0.0
N511 N 0.66502 0.10828 0.57036 0.0
C512 C 0.65845 0.12895 0.54257 0.0
C513 C 0.69298 0.12807 0.52014 0.0
C514 C 0.73478 0.10597 0.52638 0.0
C515 C 0.7419 0.08752 0.5558 0.0
C516 C 0.7064 0.0891 0.57758 0.0
Zn517 Zn 0.60737 0.08997 0.59604 0.0
C518 C 0.54064 0.16515 0.60818 0.0
N519 N 0.49026 0.03969 0.64313 0.0
C520 C 0.44839 0.05234 0.63214 0.0
C521 C 0.49521 0.00389 0.66305 0.0
C522 C 0.45782 0.97554 0.66956 0.0
C523 C 0.41543 0.98523 0.65584 0.0
C524 C 0.41001 0.02536 0.63841 0.0
Zn525 Zn 0.54619 0.0636 0.6212 0.0
O526 O 0.57099 0.07508 0.55338 0.0
C527 C 0.61222 0.98991 0.60811 0.0
O528 O 0.51386 0.04814 0.58034 0.0
H529 H 0.52888 0.99478 0.6716 0.0
H530 H 0.62524 0.14332 0.53692 0.0
H531 H 0.44548 0.08069 0.61615 0.0
O532 O 0.6327 0.02349 0.59566 0.0
O533 O 0.57371 0.99604 0.62098 0.0
H534 H 0.71085 0.07192 0.59943 0.0
O535 O 0.57779 0.07574 0.66262 0.0
O536 O 0.64183 0.09977 0.64096 0.0
O537 O 0.51921 0.13164 0.62053 0.0
O538 O 0.58011 0.15857 0.59624 0.0
C539 C 0.61932 0.08828 0.66514 0.0
H540 H 0.68637 0.14263 0.49764 0.0
H541 H 0.77373 0.07015 0.56134 0.0
H542 H 0.46259 0.94472 0.68322 0.0
H543 H 0.3774 0.03343 0.62765 0.0
C544 C 0.25362 0.20154 0.25484 0.0
C545 C 0.28656 0.22579 0.23695 0.0
C546 C 0.25743 0.29918 0.25794 0.0
C547 C 0.22108 0.27474 0.27263 0.0
N548 N 0.17897 0.2041 0.27938 0.0
N549 N 0.32166 0.29786 0.22232 0.0
C550 C 0.21754 0.22635 0.26917 0.0
C551 C 0.28885 0.27477 0.2388 0.0
N552 N 0.25732 0.15513 0.25929 0.0
N553 N 0.26347 0.34518 0.26344 0.0
H554 H 0.34893 0.28102 0.21161 0.0
H555 H 0.32139 0.33326 0.2186 0.0
H556 H 0.24068 0.36488 0.27625 0.0
H557 H 0.29243 0.36374 0.25671 0.0
H558 H 0.23632 0.1368 0.27438 0.0
H559 H 0.28451 0.1356 0.25107 0.0
H560 H 0.17215 0.1695 0.27488 0.0
H561 H 0.15153 0.22163 0.2894 0.0
C562 C 0.4866 0.53534 0.53134 0.0
C563 C 0.48665 0.4861 0.5311 0.0
C564 C 0.54764 0.48814 0.49261 0.0
C565 C 0.54047 0.53585 0.48842 0.0
N566 N 0.50513 0.60628 0.50436 0.0
N567 N 0.51667 0.41543 0.51042 0.0
C568 C 0.51062 0.55995 0.50807 0.0
C569 C 0.51707 0.46241 0.51139 0.0
N570 N 0.46536 0.55868 0.55449 0.0
N571 N 0.58528 0.46805 0.4798 0.0
H572 H 0.49486 0.39563 0.52412 0.0
H573 H 0.53516 0.39655 0.49429 0.0
H574 H 0.60906 0.48689 0.46692 0.0
H575 H 0.59553 0.43461 0.48505 0.0
H576 H 0.46835 0.5941 0.55771 0.0
H577 H 0.44776 0.5422 0.57207 0.0
H578 H 0.47926 0.62508 0.51504 0.0
H579 H 0.52609 0.62554 0.48971 0.0
C580 C 0.2724 0.75593 0.72729 0.0
C581 C 0.22537 0.7684 0.73186 0.0
C582 C 0.22846 0.73673 0.78406 0.0
C583 C 0.27539 0.72392 0.77936 0.0
N584 N 0.34013 0.7155 0.74545 0.0
N585 N 0.16027 0.77613 0.76554 0.0
C586 C 0.29669 0.73164 0.75061 0.0
C587 C 0.20398 0.76055 0.76058 0.0
N588 N 0.29509 0.77056 0.70153 0.0
N589 N 0.20609 0.7229 0.81013 0.0
H590 H 0.13965 0.78992 0.74827 0.0
H591 H 0.14501 0.77802 0.78711 0.0
H592 H 0.22172 0.70402 0.82744 0.0
H593 H 0.17091 0.72609 0.8137 0.0
H594 H 0.33036 0.76758 0.69823 0.0
H595 H 0.27969 0.79009 0.68444 0.0
H596 H 0.35514 0.71369 0.72378 0.0
H597 H 0.36057 0.70099 0.76255 0.0
C598 C 0.97123 0.51724 0.98604 0.0
C599 C 0.96363 0.46873 0.98879 0.0
C600 C 0.01518 0.46662 0.03317 0.0
C601 C 0.02192 0.51522 0.03076 0.0
N602 N 0.00052 0.58784 0.00856 0.0
N603 N 0.97155 0.39878 0.01775 0.0
C604 C 0.99837 0.5408 0.00816 0.0
C605 C 0.98329 0.44395 0.01339 0.0
N606 N 0.95334 0.54076 0.96164 0.0
N607 N 0.04063 0.44192 0.05377 0.0
H608 H 0.94874 0.38129 1.00336 0.0
H609 H 0.98106 0.37968 0.03696 0.0
H610 H 0.06407 0.45724 0.06868 0.0
H611 H 0.04141 0.40613 0.0546 0.0
H612 H 0.96293 0.57413 0.9556 0.0
H613 H 0.93025 0.52596 0.94633 0.0
H614 H 0.97927 0.60901 0.99552 0.0
H615 H 0.02187 0.60601 0.0235 0.0
C616 C 0.7154 0.73938 0.76845 0.0
C617 C 0.71543 0.78805 0.77019 0.0
C618 C 0.77784 0.79054 0.73221 0.0
C619 C 0.77939 0.74145 0.73238 0.0
N620 N 0.76329 0.67279 0.76178 0.0
N621 N 0.74945 0.86083 0.75565 0.0
C622 C 0.75216 0.71673 0.75371 0.0
C623 C 0.74707 0.81407 0.75229 0.0
N624 N 0.6806 0.7148 0.78178 0.0
N625 N 0.80679 0.81448 0.71327 0.0
H626 H 0.72639 0.87947 0.76896 0.0
H627 H 0.77534 0.88128 0.7463 0.0
H628 H 0.83431 0.79875 0.7021 0.0
H629 H 0.80342 0.84939 0.70838 0.0
H630 H 0.67711 0.67925 0.77929 0.0
H631 H 0.65284 0.73085 0.79251 0.0
H632 H 0.74552 0.65419 0.77851 0.0
H633 H 0.79471 0.65828 0.7559 0.0
C634 C 0.71577 0.23215 0.24129 0.0
C635 C 0.71979 0.28067 0.23932 0.0
C636 C 0.78509 0.27813 0.27516 0.0
C637 C 0.78259 0.22905 0.27532 0.0
N638 N 0.75609 0.16073 0.24914 0.0
N639 N 0.75998 0.35056 0.25272 0.0
C640 C 0.75101 0.20634 0.25566 0.0
C641 C 0.75468 0.30403 0.25609 0.0
N642 N 0.67812 0.21076 0.22894 0.0
N643 N 0.81715 0.29975 0.29315 0.0
H644 H 0.73716 0.37079 0.24017 0.0
H645 H 0.78781 0.36919 0.26126 0.0
H646 H 0.84354 0.28183 0.30414 0.0
H647 H 0.81735 0.33493 0.29767 0.0
H648 H 0.67114 0.17582 0.23196 0.0
H649 H 0.65154 0.22917 0.21851 0.0
H650 H 0.7355 0.14316 0.23339 0.0
H651 H 0.78522 0.14251 0.25555 0.0
C652 C 0.96704 0.01672 0.0225 0.0
C653 C 0.96033 0.96806 0.02017 0.0
C654 C 0.0104 0.9663 0.97519 0.0
C655 C 0.01663 0.015 0.97739 0.0
N656 N 0.99326 0.08754 0.99872 0.0
N657 N 0.96793 0.8981 0.9913 0.0
C658 C 0.99277 0.04049 0.9998 0.0
C659 C 0.97935 0.9434 0.99538 0.0
N660 N 0.9499 0.04017 0.04711 0.0
N661 N 0.03559 0.94171 0.95447 0.0
H662 H 0.94573 0.88049 0.00603 0.0
H663 H 0.97699 0.87902 0.97202 0.0
H664 H 0.05837 0.95711 0.93919 0.0
H665 H 0.0368 0.90592 0.95386 0.0
H666 H 0.95906 0.07385 0.05266 0.0
H667 H 0.92817 0.02499 0.06309 0.0
H668 H 0.97177 0.10828 0.01185 0.0
H669 H 0.01292 0.10599 0.98295 0.0
C670 C 0.50923 0.96864 0.49252 0.0
C671 C 0.4606 0.96919 0.49058 0.0
C672 C 0.45918 0.03451 0.52648 0.0
C673 C 0.50822 0.03503 0.52703 0.0
N674 N 0.57821 0.01334 0.50085 0.0
N675 N 0.38874 0.00594 0.50307 0.0
C676 C 0.53286 0.00542 0.50713 0.0
C677 C 0.43526 0.00277 0.5071 0.0
N678 N 0.53289 0.9325 0.48026 0.0
N679 N 0.43562 0.06508 0.54433 0.0
H680 H 0.36969 0.98243 0.49018 0.0
H681 H 0.36894 0.03305 0.51125 0.0
H682 H 0.45179 0.09283 0.55519 0.0
H683 H 0.40056 0.06268 0.54885 0.0
H684 H 0.56812 0.92795 0.48338 0.0
H685 H 0.51627 0.90461 0.46985 0.0
H686 H 0.59645 0.9947 0.48448 0.0
H687 H 0.59615 0.04204 0.50873 0.0
C688 C 0.31493 0.1266 0.01595 0.0
C689 C 0.27745 0.09537 0.0135 0.0
C690 C 0.29818 0.06166 0.06374 0.0
C691 C 0.33242 0.09632 0.06753 0.0
N692 N 0.38487 0.14844 0.04314 0.0
N693 N 0.24223 0.02445 0.03009 0.0
C694 C 0.34479 0.1239 0.04191 0.0
C695 C 0.2721 0.0599 0.0358 0.0
N696 N 0.32042 0.16054 0.99448 0.0
N697 N 0.2887 0.03224 0.08739 0.0
H698 H 0.22277 0.02237 0.00996 0.0
H699 H 0.23937 0.99531 0.0439 0.0
H700 H 0.30991 0.02915 0.10655 0.0
H701 H 0.25972 0.01113 0.08823 0.0
H702 H 0.34387 0.1875 0.99677 0.0
H703 H 0.29945 0.16345 0.97512 0.0
H704 H 0.39828 0.16682 0.02463 0.0
H705 H 0.40683 0.14627 0.06209 0.0
C706 C 0.6748 0.56317 0.30134 0.0
C707 C 0.63498 0.58849 0.30884 0.0
C708 C 0.60056 0.56764 0.25891 0.0
C709 C 0.63576 0.53451 0.25472 0.0
N710 N 0.70832 0.50218 0.27055 0.0
N711 N 0.56867 0.62883 0.29083 0.0
C712 C 0.67398 0.53338 0.27522 0.0
C713 C 0.60089 0.59555 0.28595 0.0
N714 N 0.71354 0.56868 0.31865 0.0
N715 N 0.56577 0.57049 0.23783 0.0
H716 H 0.56983 0.64984 0.3103 0.0
H717 H 0.54313 0.63787 0.27525 0.0
H718 H 0.56538 0.55116 0.21763 0.0
H719 H 0.53691 0.59113 0.24027 0.0
H720 H 0.745 0.55373 0.31334 0.0
H721 H 0.71537 0.59261 0.33646 0.0
H722 H 0.73412 0.49552 0.28654 0.0
H723 H 0.70972 0.48106 0.25118 0.0
C724 C 0.19976 0.92686 0.56301 0.0
C725 C 0.16064 0.89808 0.56689 0.0
C726 C 0.17054 0.86768 0.51462 0.0
C727 C 0.21247 0.89259 0.51197 0.0
N728 N 0.25922 0.95643 0.52891 0.0
N729 N 0.09963 0.8556 0.54336 0.0
C730 C 0.22438 0.92587 0.53464 0.0
C731 C 0.14279 0.87386 0.54129 0.0
N732 N 0.21515 0.95261 0.5872 0.0
N733 N 0.15869 0.83619 0.49265 0.0
H734 H 0.07943 0.8609 0.56286 0.0
H735 H 0.08257 0.83974 0.52514 0.0
H736 H 0.17814 0.83089 0.47286 0.0
H737 H 0.13109 0.81349 0.49481 0.0
H738 H 0.24693 0.96921 0.58772 0.0
H739 H 0.19609 0.9566 0.60726 0.0
H740 H 0.26741 0.98395 0.54324 0.0
H741 H 0.27762 0.95663 0.50833 0.0
C742 C 0.82683 0.43747 0.76515 0.0
C743 C 0.86031 0.46776 0.75209 0.0
C744 C 0.90425 0.46398 0.79944 0.0
C745 C 0.87373 0.42998 0.81223 0.0
N746 N 0.80978 0.37856 0.80353 0.0
N747 N 0.93868 0.49601 0.7541 0.0
C748 C 0.83601 0.41487 0.79396 0.0
C749 C 0.90188 0.47532 0.76801 0.0
N750 N 0.7861 0.43082 0.75017 0.0
N751 N 0.93255 0.48993 0.81767 0.0
H752 H 0.93892 0.50728 0.73145 0.0
H753 H 0.97104 0.49756 0.76446 0.0
H754 H 0.93133 0.48949 0.84137 0.0
H755 H 0.95191 0.51764 0.80948 0.0
H756 H 0.75823 0.41354 0.75988 0.0
H757 H 0.77982 0.44457 0.72839 0.0
H758 H 0.7843 0.36349 0.78998 0.0
H759 H 0.81627 0.36095 0.82396 0.0
C760 C 0.72414 0.92388 0.98464 0.0
C761 C 0.71788 0.88575 1.0049 0.0
C762 C 0.65628 0.85654 0.97128 0.0
C763 C 0.66829 0.88977 0.94877 0.0
N764 N 0.69768 0.96548 0.93924 0.0
N765 N 0.675 0.81818 0.0195 0.0
C766 C 0.69716 0.92696 0.95717 0.0
C767 C 0.68224 0.8533 0.99913 0.0
N768 N 0.75748 0.95584 0.99095 0.0
N769 N 0.61969 0.82829 0.96547 0.0
H770 H 0.69268 0.81574 0.04032 0.0
H771 H 0.65266 0.79074 0.01565 0.0
H772 H 0.59976 0.8325 0.94569 0.0
H773 H 0.60669 0.80409 0.98083 0.0
H774 H 0.76774 0.98136 0.97559 0.0
H775 H 0.77653 0.95562 0.01129 0.0
H776 H 0.71539 0.99554 0.94482 0.0
H777 H 0.67622 0.96878 0.92015 0.0
C778 C 0.36938 0.42959 0.74415 0.0
C779 C 0.34487 0.47162 0.74668 0.0
C780 C 0.31442 0.46105 0.69429 0.0
C781 C 0.34268 0.42167 0.69078 0.0
N782 N 0.38253 0.35949 0.71471 0.0
N783 N 0.28295 0.51926 0.7284 0.0
C784 C 0.3647 0.40273 0.71687 0.0
C785 C 0.31351 0.48453 0.72311 0.0
N786 N 0.3993 0.41687 0.76682 0.0
N787 N 0.29115 0.47785 0.66945 0.0
H788 H 0.28136 0.53676 0.74932 0.0
H789 H 0.25663 0.52801 0.71328 0.0
H790 H 0.28863 0.45978 0.64884 0.0
H791 H 0.27535 0.50994 0.66895 0.0
H792 H 0.42177 0.38922 0.76488 0.0
H793 H 0.40369 0.43569 0.78701 0.0
H794 H 0.39668 0.34166 0.73319 0.0
H795 H 0.37866 0.34003 0.69468 0.0
C796 C 0.78811 0.06612 0.45083 0.0
C797 C 0.82248 0.10055 0.44682 0.0
C798 C 0.80752 0.13002 0.49881 0.0
C799 C 0.76938 0.09969 0.5013 0.0
N800 N 0.73105 0.03055 0.48442 0.0
N801 N 0.87645 0.15173 0.47056 0.0
C802 C 0.76239 0.06477 0.47884 0.0
C803 C 0.83619 0.12763 0.47234 0.0
N804 N 0.77832 0.03658 0.42728 0.0
N805 N 0.81479 0.16275 0.52086 0.0
H806 H 0.89765 0.1493 0.4513 0.0
H807 H 0.8908 0.16995 0.48883 0.0
H808 H 0.79497 0.16488 0.54077 0.0
H809 H 0.83879 0.18924 0.51877 0.0
H810 H 0.74962 0.01511 0.42663 0.0
H811 H 0.7992 0.03351 0.408 0.0
H812 H 0.72633 0.00196 0.47037 0.0
H813 H 0.7117 0.02899 0.50458 0.0
C814 C 0.12455 0.56925 0.24645 0.0
C815 C 0.1505 0.52816 0.24931 0.0
C816 C 0.1857 0.54249 0.19874 0.0
C817 C 0.15553 0.58021 0.19443 0.0
N818 N 0.10985 0.63923 0.21708 0.0
N819 N 0.2158 0.48363 0.23309 0.0
C820 C 0.13016 0.59715 0.2197 0.0
C821 C 0.18464 0.51758 0.22705 0.0
N822 N 0.09258 0.57998 0.26825 0.0
N823 N 0.21278 0.52852 0.17492 0.0
H824 H 0.21581 0.46501 0.25362 0.0
H825 H 0.24381 0.47635 0.21909 0.0
H826 H 0.21671 0.54803 0.15499 0.0
H827 H 0.23065 0.49755 0.17458 0.0
H828 H 0.06917 0.60677 0.266 0.0
H829 H 0.08782 0.56044 0.28812 0.0
H830 H 0.09292 0.65574 0.23499 0.0
H831 H 0.11396 0.65924 0.19728 0.0
C832 C 0.77779 0.57827 0.55874 0.0
C833 C 0.81794 0.60505 0.56403 0.0
C834 C 0.81634 0.6325 0.51063 0.0
C835 C 0.77382 0.60934 0.5062 0.0
N836 N 0.72198 0.54885 0.52193 0.0
N837 N 0.88382 0.64316 0.54311 0.0
C838 C 0.75732 0.57823 0.52894 0.0
C839 C 0.84017 0.62693 0.53903 0.0
N840 N 0.75746 0.5556 0.58269 0.0
N841 N 0.83253 0.66175 0.48851 0.0
H842 H 0.90136 0.63799 0.56378 0.0
H843 H 0.90382 0.6571 0.52556 0.0
H844 H 0.81613 0.66617 0.46738 0.0
H845 H 0.86074 0.68342 0.49165 0.0
H846 H 0.72486 0.54078 0.58157 0.0
H847 H 0.77286 0.55273 0.60424 0.0
H848 H 0.71076 0.52263 0.53646 0.0
H849 H 0.70645 0.54804 0.5003 0.0
C850 C 0.18702 0.04043 0.81302 0.0
C851 C 0.15663 0.07822 0.81634 0.0
C852 C 0.1274 0.06569 0.76398 0.0
C853 C 0.15391 0.02484 0.76193 0.0
N854 N 0.2194 0.98175 0.77964 0.0
N855 N 0.11173 0.13653 0.79204 0.0
C856 C 0.18737 0.01513 0.78488 0.0
C857 C 0.13217 0.0944 0.79039 0.0
N858 N 0.21298 0.02675 0.83752 0.0
N859 N 0.09553 0.0754 0.74182 0.0
H860 H 0.115 0.15711 0.81163 0.0
H861 H 0.09563 0.15251 0.77352 0.0
H862 H 0.09097 0.05511 0.72228 0.0
H863 H 0.07176 0.10194 0.74359 0.0
H864 H 0.23059 0.99565 0.83847 0.0
H865 H 0.21615 0.04654 0.85738 0.0
H866 H 0.24707 0.97533 0.79419 0.0
H867 H 0.22058 0.96299 0.7592 0.0
C868 C 0.65613 0.35501 0.03968 0.0
C869 C 0.66749 0.38793 0.06254 0.0
C870 C 0.72244 0.42413 0.02707 0.0
C871 C 0.71704 0.38634 0.00645 0.0
N872 N 0.67553 0.31829 0.99108 0.0
N873 N 0.69458 0.46436 0.07253 0.0
C874 C 0.68209 0.35302 0.01184 0.0
C875 C 0.6953 0.42605 0.05445 0.0
N876 N 0.6202 0.3258 0.04518 0.0
N877 N 0.75518 0.45687 0.02122 0.0
H878 H 0.67298 0.46681 0.09156 0.0
H879 H 0.71132 0.49502 0.06705 0.0
H880 H 0.77439 0.45747 1.00098 0.0
H881 H 0.76486 0.48217 0.0369 0.0
H882 H 0.60771 0.30168 0.02958 0.0
H883 H 0.60026 0.32903 0.065 0.0
H884 H 0.65376 0.2903 0.99461 0.0
H885 H 0.69319 0.31679 0.97025 0.0
C886 C 0.38144 0.92731 0.26566 0.0
C887 C 0.34835 0.96273 0.26195 0.0
C888 C 0.31024 0.93748 0.30966 0.0
C889 C 0.34889 0.91015 0.31663 0.0
N890 N 0.4106 0.86449 0.2975 0.0
N891 N 0.27882 -0.00018 0.279 0.0
C892 C 0.38079 0.90005 0.293 0.0
C893 C 0.3114 0.96664 0.28323 0.0
N894 N 0.41465 0.92158 0.2438 0.0
N895 N 0.27215 0.93427 0.32774 0.0
H896 H 0.27774 0.0207 0.25949 0.0
H897 H 0.25433 0.00821 0.29549 0.0
H898 H 0.27026 0.91105 0.346 0.0
H899 H 0.24119 0.9505 0.32272 0.0
H900 H 0.44208 0.89895 0.24582 0.0
H901 H 0.41518 0.94043 0.22338 0.0
H902 H 0.43458 0.85331 0.28149 0.0
H903 H 0.40852 0.84385 0.31713 0.0
C904 C 0.21902 0.43777 0.47465 0.0
C905 C 0.22044 0.40099 0.49636 0.0
C906 C 0.15737 0.36277 0.46868 0.0
C907 C 0.1629 0.39417 0.44403 0.0
N908 N 0.18001 0.47231 0.43066 0.0
N909 N 0.18831 0.33005 0.51575 0.0
C910 C 0.1878 0.43531 0.44922 0.0
C911 C 0.18796 0.36447 0.4943 0.0
N912 N 0.24886 0.47394 0.47766 0.0
N913 N 0.12242 0.33141 0.46708 0.0
H914 H 0.20969 0.33061 0.53501 0.0
H915 H 0.16909 0.29989 0.51388 0.0
H916 H 0.09912 0.33193 0.44883 0.0
H917 H 0.11372 0.30872 0.48467 0.0
H918 H 0.25338 0.49921 0.46094 0.0
H919 H 0.27074 0.47761 0.49654 0.0
H920 H 0.19424 0.50478 0.43436 0.0
H921 H 0.15527 0.47143 0.41329 0.0
C922 C 0.84507 0.90619 0.21802 0.0
C923 C 0.8799 0.92445 0.19856 0.0
C924 C 0.91116 0.96731 0.24285 0.0
C925 C 0.8716 0.95731 0.26024 0.0
N926 N 0.7994 0.91705 0.26439 0.0
N927 N 0.93551 0.98727 0.19247 0.0
C928 C 0.83812 0.92638 0.24784 0.0
C929 C 0.91031 0.9588 0.21103 0.0
N930 N 0.81948 0.86938 0.20855 0.0
N931 N 0.94886 0.98765 0.2559 0.0
H932 H 0.93172 0.98844 0.16886 0.0
H933 H 0.95474 0.015 0.20077 0.0
H934 H 0.95153 0.99542 0.27913 0.0
H935 H 0.97976 0.99175 0.24402 0.0
H936 H 0.79629 0.85221 0.22278 0.0
H937 H 0.82438 0.8536 0.1873 0.0
H938 H 0.7713 0.89911 0.25548 0.0
H939 H 0.795 0.92918 0.28679 0.0
C940 C 0.27563 0.5603 0.97633 0.0
C941 C 0.28214 0.59513 0.99892 0.0
C942 C 0.35066 0.62172 0.97103 0.0
C943 C 0.33737 0.59512 0.9452 0.0
N944 N 0.29121 0.53351 0.92446 0.0
N945 N 0.32743 0.65825 0.01868 0.0
C946 C 0.30184 0.56175 0.94854 0.0
C947 C 0.32082 0.62497 0.99692 0.0
N948 N 0.24447 0.52584 0.98162 0.0
N949 N 0.39143 0.64505 0.96996 0.0
H950 H 0.30639 0.66162 0.03793 0.0
H951 H 0.35199 0.68426 0.01678 0.0
H952 H 0.4132 0.64247 0.95098 0.0
H953 H 0.40546 0.66276 0.98857 0.0
H954 H 0.24055 0.49719 0.96749 0.0
H955 H 0.22498 0.52393 1.00171 0.0
H956 H 0.26154 0.51342 0.92335 0.0
H957 H 0.31213 0.53062 0.90518 0.0
C958 C 0.6702 0.0421 0.70009 0.0
C959 C 0.64061 0.0804 0.69596 0.0
C960 C 0.61251 0.07176 0.74898 0.0
C961 C 0.6385 0.03077 0.75208 0.0
N962 N 0.70216 0.98474 0.73484 0.0
N963 N 0.59741 0.14101 0.71904 0.0
C964 C 0.67087 0.01867 0.72899 0.0
C965 C 0.61676 0.09847 0.72158 0.0
N966 N 0.69535 0.02638 0.6758 0.0
N967 N 0.58193 0.08371 0.77137 0.0
H968 H 0.60143 0.16071 0.69913 0.0
H969 H 0.58186 0.1583 0.73719 0.0
H970 H 0.57836 0.06521 0.79179 0.0
H971 H 0.55836 0.11037 0.76908 0.0
H972 H 0.71278 0.99517 0.67571 0.0
H973 H 0.69804 0.04441 0.65519 0.0
H974 H 0.72916 0.97654 0.7202 0.0
H975 H 0.70346 0.96717 0.75575 0.0
C976 C 0.49462 0.21251 0.13066 0.0
C977 C 0.46721 0.21344 0.15757 0.0
C978 C 0.5268 0.25929 0.18377 0.0
C979 C 0.55153 0.26334 0.15567 0.0
N980 N 0.55626 0.24758 0.10126 0.0
N981 N 0.45444 0.24134 0.20897 0.0
C982 C 0.53489 0.24061 0.12885 0.0
C983 C 0.48261 0.23775 0.18396 0.0
N984 N 0.48246 0.18401 0.10699 0.0
N985 N 0.54647 0.27407 0.2106 0.0
H986 H 0.42265 0.22468 0.21039 0.0
H987 H 0.46113 0.26325 0.22739 0.0
H988 H 0.57925 0.28865 0.21167 0.0
H989 H 0.53231 0.2678 0.23218 0.0
H990 H 0.50324 0.17795 0.08796 0.0
H991 H 0.45329 0.163 0.10773 0.0
H992 H 0.54286 0.23645 0.08033 0.0
H993 H 0.58564 0.26783 0.09882 0.0
C994 C 0.52553 0.74038 0.37902 0.0
C995 C 0.51823 0.70727 0.4025 0.0
C996 C 0.46978 0.76248 0.43019 0.0
C997 C 0.47267 0.7938 0.40509 0.0
N998 N 0.49575 0.80712 0.35237 0.0
N999 N 0.47541 0.68321 0.44714 0.0
C1000 C 0.49868 0.78139 0.37862 0.0
C1001 C 0.48773 0.71717 0.42701 0.0
N1002 N 0.55806 0.73272 0.35699 0.0
N1003 N 0.45231 0.77662 0.45776 0.0
H1004 H 0.48749 0.64959 0.44532 0.0
H1005 H 0.44985 0.6873 0.46366 0.0
H1006 H 0.44158 0.81027 0.46185 0.0
H1007 H 0.45345 0.75651 0.47758 0.0
H1008 H 0.56853 0.7578 0.34133 0.0
H1009 H 0.57718 0.70246 0.35588 0.0
H1010 H 0.51014 0.79707 0.33153 0.0
H1011 H 0.47486 0.83598 0.35033 0.0
C1012 C 0.97461 0.73422 0.62558 0.0
C1013 C 0.95179 0.72251 0.65333 0.0
C1014 C 0.01562 0.75657 0.68297 0.0
C1015 C 0.03638 0.77171 0.65518 0.0
N1016 N 0.03167 0.78196 0.60026 0.0
N1017 N 0.94644 0.72951 0.70849 0.0
C1018 C 0.01476 0.76238 0.62654 0.0
C1019 C 0.97122 0.73546 0.68209 0.0
N1020 N 0.95858 0.71726 0.59827 0.0
N1021 N 0.03903 0.76073 0.71011 0.0
H1022 H 0.91394 0.71423 0.7089 0.0
H1023 H 0.95641 0.74307 0.72964 0.0
H1024 H 0.07139 0.77611 0.71172 0.0
H1025 H 0.02807 0.74567 0.73058 0.0
H1026 H 0.97635 0.72021 0.5776 0.0
H1027 H 0.92937 0.69647 0.59674 0.0
H1028 H 0.01478 0.78067 0.57916 0.0
H1029 H 0.06055 0.80333 0.60009 0.0
C1030 C 0.98196 0.26316 0.8774 0.0
C1031 C 0.97768 0.28738 0.90556 0.0
C1032 C 0.01727 0.22417 0.93242 0.0
C1033 C 0.02474 0.20143 0.90381 0.0
N1034 N 0.0223 0.20462 0.84838 0.0
N1035 N 0.99664 0.29461 0.9592 0.0
C1036 C 0.00907 0.22232 0.8761 0.0
C1037 C 0.99689 0.26889 0.93288 0.0
N1038 N 0.9595 0.2789 0.85187 0.0
N1039 N 0.02781 0.20236 0.95935 0.0
H1040 H 0.98072 0.32667 0.96065 0.0
H1041 H 0.01491 0.28582 0.97894 0.0
H1042 H 0.04334 0.17021 0.96027 0.0
H1043 H 0.01802 0.21447 0.98088 0.0
H1044 H 0.9569 0.26024 0.83151 0.0
H1045 H 0.94003 0.30901 0.85182 0.0
H1046 H 0.01613 0.22088 0.82745 0.0
H1047 H 0.04365 0.17604 0.84632 0.0
C1048 C 0.52485 0.76306 0.82814 0.0
C1049 C 0.55001 0.76695 0.85611 0.0
C1050 C 0.4933 0.71642 0.88145 0.0
C1051 C 0.46542 0.71758 0.85468 0.0
N1052 N 0.45197 0.74555 0.80334 0.0
N1053 N 0.55589 0.75076 0.91043 0.0
C1054 C 0.48054 0.74174 0.82818 0.0
C1055 C 0.5338 0.74421 0.88301 0.0
N1056 N 0.54416 0.77785 0.80122 0.0
N1057 N 0.48147 0.68785 0.90516 0.0
H1058 H 0.5857 0.77044 0.91261 0.0
H1059 H 0.54282 0.73974 0.93146 0.0
H1060 H 0.45224 0.66694 0.90457 0.0
H1061 H 0.50255 0.68162 0.92406 0.0
H1062 H 0.52966 0.77171 0.77971 0.0
H1063 H 0.57699 0.79231 0.80001 0.0
H1064 H 0.45859 0.76724 0.78478 0.0
H1065 H 0.41989 0.72942 0.80223 0.0
C1066 C 0.485 0.27532 0.57778 0.0
C1067 C 0.4724 0.29723 0.60574 0.0
C1068 C 0.50877 0.23465 0.63502 0.0
C1069 C 0.51859 0.2113 0.60717 0.0
N1070 N 0.5086 0.20496 0.55229 0.0
N1071 N 0.46398 0.29316 0.66084 0.0
C1072 C 0.50471 0.23044 0.57858 0.0
C1073 C 0.48206 0.27561 0.63434 0.0
N1074 N 0.4798 0.29802 0.55047 0.0
N1075 N 0.52621 0.21839 0.66211 0.0
H1076 H 0.44339 0.32245 0.66125 0.0
H1077 H 0.46555 0.27636 0.68197 0.0
H1078 H 0.54573 0.18844 0.66349 0.0
H1079 H 0.52477 0.23652 0.68273 0.0
H1080 H 0.49348 0.28636 0.5298 0.0
H1081 H 0.46479 0.3304 0.54875 0.0
H1082 H 0.49425 0.21473 0.53134 0.0
H1083 H 0.52282 0.17205 0.55186 0.0
C1084 C 0.01692 0.25917 0.32676 0.0
C1085 C 0.04112 0.26767 0.35465 0.0
C1086 C 0.98207 0.22345 0.3829 0.0
C1087 C 0.95572 0.21907 0.3556 0.0
N1088 N 0.94492 0.23767 0.3021 0.0
N1089 N 0.04325 0.26328 0.41003 0.0
C1090 C 0.97233 0.23824 0.32765 0.0
C1091 C 0.02281 0.25104 0.38292 0.0
N1092 N 0.0374 0.2691 0.29925 0.0
N1093 N 0.96872 0.20012 0.4087 0.0
H1094 H 0.07274 0.28365 0.41107 0.0
H1095 H 0.02891 0.25677 0.43151 0.0
H1096 H 0.93925 0.17959 0.40933 0.0
H1097 H 0.98877 0.19766 0.42847 0.0
H1098 H 0.02379 0.25922 0.2781 0.0
H1099 H 0.07016 0.28359 0.29755 0.0
H1100 H 0.95253 0.25584 0.28208 0.0
H1101 H 0.91274 0.22167 0.30162 0.0
C1102 C 0.01057 0.72131 0.13281 0.0
C1103 C 0.02681 0.70097 0.10513 0.0
C1104 C 0.00024 0.76908 0.07624 0.0
C1105 C 0.98037 0.78699 0.10344 0.0
N1106 N 0.96055 0.77751 0.1568 0.0
N1107 N 0.03127 0.70287 0.04965 0.0
C1108 C 0.98366 0.76221 0.13146 0.0
C1109 C 0.02027 0.72427 0.0766 0.0
N1110 N 0.02304 0.70304 0.16057 0.0
N1111 N 0.00081 0.79536 0.05014 0.0
H1112 H 0.04633 0.67049 0.04871 0.0
H1113 H 0.02223 0.71553 0.02809 0.0
H1114 H 0.98511 0.82754 0.04874 0.0
H1115 H 0.01954 0.78687 0.03058 0.0
H1116 H 0.01641 0.71894 0.18153 0.0
H1117 H 0.04422 0.67435 0.1627 0.0
H1118 H 0.95725 0.75837 0.17694 0.0
H1119 H 0.94132 0.80776 0.15686 0.0
C1120 C 0.20882 0.38901 0.08034 0.0
C1121 C 0.2139 0.36231 0.10726 0.0
C1122 C 0.16424 0.41454 0.13588 0.0
C1123 C 0.15693 0.43996 0.10846 0.0
N1124 N 0.1629 0.44464 0.05295 0.0
N1125 N 0.18739 0.34193 0.15813 0.0
C1126 C 0.17629 0.42507 0.08013 0.0
C1127 C 0.18858 0.37256 0.13423 0.0
N1128 N 0.23629 0.38116 0.05542 0.0
N1129 N 0.15086 0.43163 0.16375 0.0
H1130 H 0.20452 0.31044 0.15768 0.0
H1131 H 0.16581 0.34571 0.17705 0.0
H1132 H 0.13414 0.46299 0.16648 0.0
H1133 H 0.16037 0.41679 0.18462 0.0
H1134 H 0.23781 0.40314 0.03651 0.0
H1135 H 0.26041 0.35471 0.05467 0.0
H1136 H 0.17247 0.43187 0.03154 0.0
H1137 H 0.13859 0.4708 0.0515 0.0
C1138 C 0.3387 0.38725 0.33596 0.0
C1139 C 0.30056 0.4037 0.35289 0.0
C1140 C 0.3409 0.47582 0.36401 0.0
C1141 C 0.38059 0.45774 0.34966 0.0
N1142 N 0.41926 0.39679 0.32267 0.0
N1143 N 0.26685 0.45973 0.38677 0.0
C1144 C 0.37996 0.41364 0.33561 0.0
C1145 C 0.3019 0.44714 0.36768 0.0
N1146 N 0.335 0.34708 0.31973 0.0
N1147 N 0.34064 0.52027 0.37442 0.0
H1148 H 0.23816 0.43895 0.39057 0.0
H1149 H 0.26797 0.48846 0.40103 0.0
H1150 H 0.36922 0.54195 0.37355 0.0
H1151 H 0.31107 0.5371 0.38171 0.0
H1152 H 0.35957 0.33562 0.30419 0.0
H1153 H 0.3058 0.32615 0.32043 0.0
H1154 H 0.42306 0.36295 0.31529 0.0
H1155 H 0.44911 0.41656 0.32034 0.0
C1156 C 0.30425 0.61372 0.57483 0.0
C1157 C 0.29732 0.64038 0.60153 0.0
C1158 C 0.34545 0.58881 0.63184 0.0
C1159 C 0.35345 0.56251 0.60494 0.0
N1160 N 0.35104 0.55692 0.54937 0.0
N1161 N 0.32149 0.66207 0.65265 0.0
C1162 C 0.33632 0.57731 0.57591 0.0
C1163 C 0.32154 0.63089 0.6291 0.0
N1164 N 0.27869 0.62171 0.54899 0.0
N1165 N 0.35733 0.57229 0.6602 0.0
H1166 H 0.3044 0.69354 0.6513 0.0
H1167 H 0.34206 0.65877 0.67215 0.0
H1168 H 0.3733 0.5407 0.66366 0.0
H1169 H 0.34728 0.58789 0.68066 0.0
H1170 H 0.27829 0.59967 0.5301 0.0
H1171 H 0.25524 0.64866 0.54723 0.0
H1172 H 0.34322 0.56949 0.52756 0.0
H1173 H 0.3747 0.5301 0.54899 0.0
C1174 C 0.14757 0.5492 0.89076 0.0
C1175 C 0.12244 0.541 0.86333 0.0
C1176 C 0.17629 0.58861 0.83425 0.0
C1177 C 0.19916 0.59967 0.86219 0.0
N1178 N 0.2019 0.59781 0.91767 0.0
N1179 N 0.10766 0.55789 0.80996 0.0
C1180 C 0.18317 0.58248 0.8907 0.0
C1181 C 0.13533 0.56204 0.83526 0.0
N1182 N 0.13836 0.52389 0.91659 0.0
N1183 N 0.19407 0.60299 0.80675 0.0
H1184 H 0.07781 0.53786 0.80975 0.0
H1185 H 0.11247 0.57676 0.78985 0.0
H1186 H 0.22246 0.62488 0.80507 0.0
H1187 H 0.18225 0.59126 0.78554 0.0
H1188 H 0.15868 0.52489 0.93632 0.0
H1189 H 0.11295 0.49845 0.91735 0.0
H1190 H 0.18799 0.59026 0.93915 0.0
H1191 H 0.22917 0.62111 0.91871 0.0
C1192 C 0.81444 0.61674 0.92726 0.0
C1193 C 0.79561 0.63097 0.89882 0.0
C1194 C 0.82456 0.56152 0.87379 0.0
C1195 C 0.84151 0.54615 0.90262 0.0
N1196 N 0.84146 0.55326 0.95816 0.0
N1197 N 0.77349 0.61322 0.84663 0.0
C1198 C 0.83302 0.57187 0.92983 0.0
C1199 C 0.79814 0.60236 0.87246 0.0
N1200 N 0.81615 0.64664 0.9515 0.0
N1201 N 0.83279 0.53657 0.84779 0.0
H1202 H 0.75269 0.6423 0.84503 0.0
H1203 H 0.77016 0.59149 0.82773 0.0
H1204 H 0.84733 0.50396 0.84831 0.0
H1205 H 0.82701 0.54891 0.82564 0.0
H1206 H 0.83433 0.63993 0.97166 0.0
H1207 H 0.80274 0.67986 0.95053 0.0
H1208 H 0.83113 0.56873 0.97859 0.0
H1209 H 0.855 0.52049 0.96145 0.0
C1210 C 0.65272 0.611 0.62754 0.0
C1211 C 0.67864 0.62178 0.65419 0.0
C1212 C 0.62709 0.57556 0.68618 0.0
C1213 C 0.60166 0.56418 0.65951 0.0
N1214 N 0.58069 0.58213 0.60712 0.0
N1215 N 0.68274 0.6272 0.7094 0.0
C1216 C 0.61127 0.58579 0.63092 0.0
C1217 C 0.66309 0.6083 0.68376 0.0
N1218 N 0.66901 0.62189 0.59896 0.0
N1219 N 0.6184 0.55352 0.71334 0.0
H1220 H 0.70838 0.65236 0.70808 0.0
H1221 H 0.67053 0.62159 0.73158 0.0
H1222 H 0.59188 0.52957 0.71597 0.0
H1223 H 0.63937 0.55666 0.73266 0.0
H1224 H 0.65424 0.60965 0.57871 0.0
H1225 H 0.69932 0.6403 0.59532 0.0
H1226 H 0.5839 0.60057 0.58668 0.0
H1227 H 0.54965 0.56418 0.60897 0.0
C1228 C 0.73549 0.41519 0.39286 0.0
C1229 C 0.71998 0.37725 0.41056 0.0
C1230 C 0.64532 0.41357 0.4179 0.0
C1231 C 0.66164 0.45322 0.40222 0.0
N1232 N 0.72293 0.49334 0.37577 0.0
N1233 N 0.66534 0.34406 0.44555 0.0
C1234 C 0.70718 0.45464 0.39029 0.0
C1235 C 0.67655 0.3779 0.42501 0.0
N1236 N 0.77587 0.41226 0.37689 0.0
N1237 N 0.59986 0.40902 0.42511 0.0
H1238 H 0.68808 0.31763 0.45122 0.0
H1239 H 0.63585 0.3448 0.4591 0.0
H1240 H 0.57569 0.4345 0.42093 0.0
H1241 H 0.58542 0.37851 0.43329 0.0
H1242 H 0.78613 0.43596 0.36028 0.0
H1243 H 0.79837 0.38461 0.37905 0.0
H1244 H 0.75739 0.49918 0.37054 0.0
H1245 H 0.70154 0.52056 0.36975 0.0
C1246 C 0.80538 0.4569 0.14812 0.0
C1247 C 0.80246 0.41283 0.16201 0.0
C1248 C 0.878 0.42354 0.18581 0.0
C1249 C 0.88126 0.46717 0.17129 0.0
N1250 N 0.84506 0.53013 0.14447 0.0
N1251 N 0.83127 0.35647 0.19788 0.0
C1252 C 0.84371 0.48554 0.15457 0.0
C1253 C 0.83739 0.39678 0.18208 0.0
N1254 N 0.77265 0.47018 0.12736 0.0
N1255 N 0.91472 0.40735 0.20218 0.0
H1256 H 0.80255 0.33533 0.19494 0.0
H1257 H 0.8531 0.345 0.2152 0.0
H1258 H 0.94353 0.42773 0.20691 0.0
H1259 H 0.91747 0.37377 0.21031 0.0
H1260 H 0.77517 0.49946 0.11367 0.0
H1261 H 0.74431 0.44973 0.12188 0.0
H1262 H 0.81694 0.54711 0.13503 0.0
H1263 H 0.87313 0.55188 0.14788 0.0
C1264 C 0.68409 0.89469 0.57637 0.0
C1265 C 0.69478 0.86995 0.60344 0.0
C1266 C 0.64525 0.92015 0.63388 0.0
C1267 C 0.63386 0.94432 0.60661 0.0
N1268 N 0.63053 0.94597 0.5513 0.0
N1269 N 0.67539 0.84992 0.65583 0.0
C1270 C 0.64952 0.92871 0.5776 0.0
C1271 C 0.67202 0.8797 0.63156 0.0
N1272 N 0.70816 0.88712 0.54991 0.0
N1273 N 0.63299 0.93697 0.66204 0.0
H1274 H 0.69407 0.81936 0.65486 0.0
H1275 H 0.65599 0.85315 0.67582 0.0
H1276 H 0.61344 0.96658 0.66499 0.0
H1277 H 0.64544 0.92363 0.68266 0.0
H1278 H 0.70506 0.90779 0.53044 0.0
H1279 H 0.73402 0.86248 0.54819 0.0
H1280 H 0.63777 0.93326 0.52946 0.0
H1281 H 0.60362 0.96957 0.55178 0.0
C1282 C 0.80418 0.9607 0.86051 0.0
C1283 C 0.80026 0.91672 0.84663 0.0
C1284 C 0.87453 0.92717 0.8212 0.0
C1285 C 0.87898 0.97052 0.8359 0.0
N1286 N 0.8443 0.03379 0.86313 0.0
N1287 N 0.82619 0.86121 0.8093 0.0
C1288 C 0.84229 0.98915 0.85322 0.0
C1289 C 0.83379 0.90085 0.82553 0.0
N1290 N 0.77269 0.97409 0.88201 0.0
N1291 N 0.91034 0.91069 0.80418 0.0
H1292 H 0.79729 0.84042 0.81255 0.0
H1293 H 0.84685 0.85019 0.79126 0.0
H1294 H 0.93922 0.93077 0.79911 0.0
H1295 H 0.91228 0.87714 0.79593 0.0
H1296 H 0.7762 0.0033 0.89566 0.0
H1297 H 0.74453 0.95381 0.88808 0.0
H1298 H 0.81671 0.05088 0.8731 0.0
H1299 H 0.87217 0.05545 0.85892 0.0
C1300 C 0.8258 0.05919 0.13664 0.0
C1301 C 0.84175 0.04315 0.10779 0.0
C1302 C 0.81274 0.11236 0.08242 0.0
C1303 C 0.79515 0.12744 0.11095 0.0
N1304 N 0.77543 0.11142 0.1638 0.0
N1305 N 0.83876 0.04796 0.05216 0.0
C1306 C 0.79905 0.09981 0.13774 0.0
C1307 C 0.83162 0.06764 0.0803 0.0
N1308 N 0.83528 0.03506 0.16286 0.0
N1309 N 0.81304 0.14134 0.05763 0.0
H1310 H 0.8525 0.01522 0.04918 0.0
H1311 H 0.82717 0.0625 0.03168 0.0
H1312 H 0.79934 0.17446 0.05824 0.0
H1313 H 0.83035 0.13401 0.03727 0.0
H1314 H 0.83014 0.04797 0.18491 0.0
H1315 H 0.85012 0.00253 0.16261 0.0
H1316 H 0.77318 0.09041 0.18314 0.0
H1317 H 0.75439 0.14034 0.16522 0.0
C1318 C 0.62174 0.06867 0.33274 0.0
C1319 C 0.6089 0.04638 0.36042 0.0
C1320 C 0.67176 0.08412 0.38802 0.0
C1321 C 0.68751 0.10268 0.35981 0.0
N1322 N 0.68023 0.11124 0.30483 0.0
N1323 N 0.62624 0.02508 0.41282 0.0
C1324 C 0.66335 0.0944 0.33195 0.0
C1325 C 0.63526 0.05188 0.38763 0.0
N1326 N 0.59334 0.06664 0.3077 0.0
N1327 N 0.69124 0.09753 0.41521 0.0
H1328 H 0.60017 0.00029 0.41324 0.0
H1329 H 0.64732 0.02416 0.43219 0.0
H1330 H 0.7189 0.1203 0.41666 0.0
H1331 H 0.67747 0.08909 0.43659 0.0
H1332 H 0.59817 0.08627 0.28793 0.0
H1333 H 0.56301 0.04735 0.30738 0.0
H1334 H 0.66751 0.10183 0.28334 0.0
H1335 H 0.70851 0.13339 0.30374 0.0
C1336 C 0.32131 0.12583 0.43106 0.0
C1337 C 0.27757 0.1278 0.41669 0.0
C1338 C 0.28524 0.04881 0.39845 0.0
C1339 C 0.32935 0.04705 0.41226 0.0
N1340 N 0.38655 0.0792 0.44631 0.0
N1341 N 0.21328 0.0894 0.39248 0.0
C1342 C 0.3466 0.0842 0.43003 0.0
C1343 C 0.25788 0.08849 0.4025 0.0
N1344 N 0.33902 0.16445 0.44469 0.0
N1345 N 0.2707 0.01351 0.38 0.0
H1346 H 0.19254 0.11845 0.39387 0.0
H1347 H 0.19534 0.06038 0.38507 0.0
H1348 H 0.28997 0.98386 0.37648 0.0
H1349 H 0.24141 0.0148 0.36628 0.0
H1350 H 0.37283 0.16748 0.45228 0.0
H1351 H 0.31984 0.19446 0.44751 0.0
H1352 H 0.39862 0.10307 0.46225 0.0
H1353 H 0.4065 0.04949 0.4454 0.0
C1354 C 0.14908 0.05044 0.12224 0.0
C1355 C 0.12188 0.04298 0.1488 0.0
C1356 C 0.1718 0.09394 0.17867 0.0
C1357 C 0.19734 0.10327 0.15158 0.0
N1358 N 0.2041 0.09924 0.0963 0.0
N1359 N 0.1023 0.06189 0.20109 0.0
C1360 C 0.18394 0.08444 0.12292 0.0
C1361 C 0.13184 0.06584 0.17679 0.0
N1362 N 0.14254 0.02379 0.09666 0.0
N1363 N 0.18593 0.11209 0.20608 0.0
H1364 H 0.0732 0.04077 0.20062 0.0
H1365 H 0.10493 0.0815 0.22104 0.0
H1366 H 0.21249 0.13621 0.20755 0.0
H1367 H 0.17254 0.10231 0.22729 0.0
H1368 H 0.16449 0.02434 0.07776 0.0
H1369 H 0.11771 0.99781 0.09545 0.0
H1370 H 0.19165 0.09071 0.07458 0.0
H1371 H 0.23076 0.12324 0.09566 0.0
C1372 C 0.16124 0.91243 0.87575 0.0
C1373 C 0.15297 0.93844 0.90279 0.0
C1374 C 0.20216 0.88668 0.93263 0.0
C1375 C 0.20856 0.85974 0.90597 0.0
N1376 N 0.18473 0.83923 0.85456 0.0
N1377 N 0.15565 0.94342 0.95839 0.0
C1378 C 0.18487 0.87007 0.8783 0.0
C1379 C 0.17031 0.92337 0.93172 0.0
N1380 N 0.14953 0.92933 0.84746 0.0
N1381 N 0.22783 0.87847 0.9584 0.0
H1382 H 0.13181 0.97006 0.95902 0.0
H1383 H 0.16363 0.93062 0.98012 0.0
H1384 H 0.25119 0.85142 0.96005 0.0
H1385 H 0.22861 0.90057 0.97725 0.0
H1386 H 0.15979 0.91404 0.82694 0.0
H1387 H 0.13344 0.9609 0.84412 0.0
H1388 H 0.16433 0.84304 0.83502 0.0
H1389 H 0.20149 0.80757 0.85568 0.0
C1390 C 0.31685 0.90927 0.68187 0.0
C1391 C 0.30128 0.89284 0.65291 0.0
C1392 C 0.36819 0.92702 0.62803 0.0
C1393 C 0.37857 0.95042 0.65585 0.0
N1394 N 0.36128 0.96705 0.7089 0.0
N1395 N 0.30948 0.88945 0.59762 0.0
C1396 C 0.35283 0.94212 0.68283 0.0
C1397 C 0.32651 0.90196 0.62573 0.0
N1398 N 0.2976 0.89294 0.70841 0.0
N1399 N 0.39839 0.92847 0.60398 0.0
H1400 H 0.27873 0.87147 0.59472 0.0
H1401 H 0.32388 0.90033 0.57693 0.0
H1402 H 0.42966 0.94615 0.60497 0.0
H1403 H 0.39456 0.90853 0.58423 0.0
H1404 H 0.31045 0.90049 0.7302 0.0
H1405 H 0.27164 0.86807 0.70858 0.0
H1406 H 0.34 0.96615 0.72813 0.0
H1407 H 0.38761 0.99143 0.7105 0.0
loop_
_geom_bond_atom_site_label_1
_geom_bond_atom_site_label_2
_geom_bond_distance
_geom_bond_site_symmetry_2
_ccdc_geom_bond_type
C0 O16 1.251 . S
C0 O18 1.254 . S
N1 C2 1.333 . S
N1 C6 1.307 . S
N1 Zn7 2.020 . S
C2 N1 1.333 . S
C2 C3 1.379 . S
C2 H20 0.952 . S
C3 C2 1.379 . S
C3 C4 1.390 . S
C3 H30 0.949 . S
C4 C3 1.390 . S
C4 C5 1.357 . S
C5 C4 1.357 . S
C5 C6 1.370 . S
C5 H31 0.950 . S
C6 N1 1.307 . S
C6 C5 1.370 . S
C6 H24 0.948 . S
Zn7 N1 2.020 . S
Zn7 O16 2.039 . S
Zn7 O22 2.034 . S
Zn7 O26 2.025 . S
Zn7 O28 2.024 . S
C8 O27 1.246 . S
C8 O28 1.249 . S
N9 C10 1.307 . S
N9 C11 1.333 . S
N9 Zn15 2.020 . S
C10 N9 1.307 . S
C10 C14 1.370 . S
C10 H21 0.948 . S
C11 N9 1.333 . S
C11 C12 1.379 . S
C11 H19 0.952 . S
C12 C11 1.379 . S
C12 C13 1.390 1_545 S
C12 H32 0.949 . S
C13 C12 1.390 1_565 S
C13 C14 1.357 1_565 S
C14 C10 1.370 . S
C14 C13 1.357 1_545 S
C14 H33 0.950 1_545 S
Zn15 N9 2.020 . S
Zn15 O18 2.025 . S
Zn15 O23 2.024 . S
Zn15 O25 2.039 . S
Zn15 O27 2.034 . S
O16 C0 1.251 . S
O16 Zn7 2.039 . S
C17 O22 1.246 . S
C17 O23 1.249 . S
O18 C0 1.254 . S
O18 Zn15 2.025 . S
H19 C11 0.952 . S
H20 C2 0.952 . S
H21 C10 0.948 . S
O22 Zn7 2.034 . S
O22 C17 1.246 . S
O23 Zn15 2.024 . S
O23 C17 1.249 . S
H24 C6 0.948 . S
O25 Zn15 2.039 . S
O25 C29 1.251 . S
O26 Zn7 2.025 . S
O26 C29 1.254 . S
O27 C8 1.246 . S
O27 Zn15 2.034 . S
O28 Zn7 2.024 . S
O28 C8 1.249 . S
C29 O25 1.251 . S
C29 O26 1.254 . S
H30 C3 0.949 . S
H31 C5 0.950 . S
H32 C12 0.949 . S
H33 C14 0.950 1_565 S
C34 O50 1.251 . S
C34 O52 1.254 . S
N35 C36 1.333 . S
N35 C40 1.307 . S
N35 Zn41 2.020 . S
C36 N35 1.333 . S
C36 C37 1.379 . S
C36 H54 0.952 . S
C37 C36 1.379 . S
C37 C38 1.390 . S
C37 H64 0.949 . S
C38 C37 1.390 . S
C38 C39 1.357 . S
C39 C38 1.357 . S
C39 C40 1.370 . S
C39 H65 0.950 . S
C40 N35 1.307 . S
C40 C39 1.370 . S
C40 H58 0.948 . S
Zn41 N35 2.020 . S
Zn41 O50 2.039 . S
Zn41 O56 2.034 . S
Zn41 O60 2.025 . S
Zn41 O62 2.024 . S
C42 O61 1.246 . S
C42 O62 1.249 . S
N43 C44 1.307 . S
N43 C45 1.333 . S
N43 Zn49 2.020 . S
C44 N43 1.307 . S
C44 C48 1.370 . S
C44 H55 0.948 . S
C45 N43 1.333 . S
C45 C46 1.379 . S
C45 H53 0.952 . S
C46 C45 1.379 . S
C46 C47 1.390 . S
C46 H66 0.949 . S
C47 C46 1.390 . S
C47 C48 1.357 . S
C48 C44 1.370 . S
C48 C47 1.357 . S
C48 H67 0.950 . S
Zn49 N43 2.020 . S
Zn49 O52 2.025 . S
Zn49 O57 2.024 . S
Zn49 O59 2.039 . S
Zn49 O61 2.034 . S
O50 C34 1.251 . S
O50 Zn41 2.039 . S
C51 O56 1.246 . S
C51 O57 1.249 . S
O52 C34 1.254 . S
O52 Zn49 2.025 . S
H53 C45 0.952 . S
H54 C36 0.952 . S
H55 C44 0.948 . S
O56 Zn41 2.034 . S
O56 C51 1.246 . S
O57 Zn49 2.024 . S
O57 C51 1.249 . S
H58 C40 0.948 . S
O59 Zn49 2.039 . S
O59 C63 1.251 . S
O60 Zn41 2.025 . S
O60 C63 1.254 . S
O61 C42 1.246 . S
O61 Zn49 2.034 . S
O62 Zn41 2.024 . S
O62 C42 1.249 . S
C63 O59 1.251 . S
C63 O60 1.254 . S
H64 C37 0.949 . S
H65 C39 0.950 . S
H66 C46 0.949 . S
H67 C48 0.950 . S
C68 O84 1.251 . S
C68 O86 1.254 . S
N69 C70 1.333 . S
N69 C74 1.307 . S
N69 Zn75 2.020 . S
C70 N69 1.333 . S
C70 C71 1.379 . S
C70 H88 0.952 . S
C71 C70 1.379 . S
C71 C72 1.390 . S
C71 H98 0.949 . S
C72 C71 1.390 . S
C72 C73 1.357 . S
C73 C72 1.357 . S
C73 C74 1.370 . S
C73 H99 0.950 . S
C74 N69 1.307 . S
C74 C73 1.370 . S
C74 H92 0.948 . S
Zn75 N69 2.020 . S
Zn75 O84 2.039 . S
Zn75 O90 2.034 . S
Zn75 O94 2.025 . S
Zn75 O96 2.024 . S
C76 O95 1.246 . S
C76 O96 1.249 . S
N77 C78 1.307 . S
N77 C79 1.333 . S
N77 Zn83 2.020 . S
C78 N77 1.307 . S
C78 C82 1.370 . S
C78 H89 0.948 . S
C79 N77 1.333 . S
C79 C80 1.379 . S
C79 H87 0.952 . S
C80 C79 1.379 . S
C80 C81 1.390 1_565 S
C80 H100 0.949 . S
C81 C80 1.390 1_545 S
C81 C82 1.357 1_545 S
C82 C78 1.370 . S
C82 C81 1.357 1_565 S
C82 H101 0.950 1_565 S
Zn83 N77 2.020 . S
Zn83 O86 2.025 . S
Zn83 O91 2.024 . S
Zn83 O93 2.039 . S
Zn83 O95 2.034 . S
O84 C68 1.251 . S
O84 Zn75 2.039 . S
C85 O90 1.246 . S
C85 O91 1.249 . S
O86 C68 1.254 . S
O86 Zn83 2.025 . S
H87 C79 0.952 . S
H88 C70 0.952 . S
H89 C78 0.948 . S
O90 Zn75 2.034 . S
O90 C85 1.246 . S
O91 Zn83 2.024 . S
O91 C85 1.249 . S
H92 C74 0.948 . S
O93 Zn83 2.039 . S
O93 C97 1.251 . S
O94 Zn75 2.025 . S
O94 C97 1.254 . S
O95 C76 1.246 . S
O95 Zn83 2.034 . S
O96 Zn75 2.024 . S
O96 C76 1.249 . S
C97 O93 1.251 . S
C97 O94 1.254 . S
H98 C71 0.949 . S
H99 C73 0.950 . S
H100 C80 0.949 . S
H101 C82 0.950 1_545 S
C102 O118 1.251 . S
C102 O120 1.254 . S
N103 C104 1.333 . S
N103 C108 1.307 . S
N103 Zn109 2.020 1_455 S
C104 N103 1.333 . S
C104 C105 1.379 . S
C104 H122 0.952 . S
C105 C104 1.379 . S
C105 C106 1.390 . S
C105 H132 0.949 . S
C106 C105 1.390 . S
C106 C107 1.357 . S
C107 C106 1.357 . S
C107 C108 1.370 . S
C107 H133 0.950 . S
C108 N103 1.307 . S
C108 C107 1.370 . S
C108 H126 0.948 . S
Zn109 N103 2.020 1_655 S
Zn109 O118 2.039 . S
Zn109 O124 2.034 . S
Zn109 O128 2.025 . S
Zn109 O130 2.024 . S
C110 O129 1.246 . S
C110 O130 1.249 . S
N111 C112 1.307 . S
N111 C113 1.333 . S
N111 Zn117 2.020 . S
C112 N111 1.307 . S
C112 C116 1.370 . S
C112 H123 0.948 . S
C113 N111 1.333 . S
C113 C114 1.379 . S
C113 H121 0.952 . S
C114 C113 1.379 . S
C114 C115 1.390 . S
C114 H134 0.949 . S
C115 C114 1.390 . S
C115 C116 1.357 . S
C116 C112 1.370 . S
C116 C115 1.357 . S
C116 H135 0.950 . S
Zn117 N111 2.020 . S
Zn117 O120 2.025 . S
Zn117 O125 2.024 . S
Zn117 O127 2.039 . S
Zn117 O129 2.034 . S
O118 C102 1.251 . S
O118 Zn109 2.039 . S
C119 O124 1.246 . S
C119 O125 1.249 . S
O120 C102 1.254 . S
O120 Zn117 2.025 . S
H121 C113 0.952 . S
H122 C104 0.952 . S
H123 C112 0.948 . S
O124 Zn109 2.034 . S
O124 C119 1.246 . S
O125 Zn117 2.024 . S
O125 C119 1.249 . S
H126 C108 0.948 . S
O127 Zn117 2.039 . S
O127 C131 1.251 . S
O128 Zn109 2.025 . S
O128 C131 1.254 . S
O129 C110 1.246 . S
O129 Zn117 2.034 . S
O130 Zn109 2.024 . S
O130 C110 1.249 . S
C131 O127 1.251 . S
C131 O128 1.254 . S
H132 C105 0.949 . S
H133 C107 0.950 . S
H134 C114 0.949 . S
H135 C116 0.950 . S
C136 O152 1.251 . S
C136 O154 1.254 . S
N137 C138 1.333 . S
N137 C142 1.307 . S
N137 Zn143 2.020 . S
C138 N137 1.333 . S
C138 C139 1.379 . S
C138 H156 0.952 . S
C139 C138 1.379 . S
C139 C140 1.390 1_565 S
C139 H166 0.949 . S
C140 C139 1.390 1_545 S
C140 C141 1.357 1_545 S
C141 C140 1.357 1_565 S
C141 C142 1.370 . S
C141 H167 0.950 1_565 S
C142 N137 1.307 . S
C142 C141 1.370 . S
C142 H160 0.948 . S
Zn143 N137 2.020 . S
Zn143 O152 2.039 . S
Zn143 O158 2.034 . S
Zn143 O162 2.025 . S
Zn143 O164 2.024 . S
C144 O163 1.246 . S
C144 O164 1.249 . S
N145 C146 1.307 . S
N145 C147 1.333 . S
N145 Zn151 2.020 . S
C146 N145 1.307 . S
C146 C150 1.370 . S
C146 H157 0.948 . S
C147 N145 1.333 . S
C147 C148 1.379 . S
C147 H155 0.952 . S
C148 C147 1.379 . S
C148 C149 1.390 . S
C148 H168 0.949 . S
C149 C148 1.390 . S
C149 C150 1.357 . S
C150 C146 1.370 . S
C150 C149 1.357 . S
C150 H169 0.950 . S
Zn151 N145 2.020 . S
Zn151 O154 2.025 . S
Zn151 O159 2.024 . S
Zn151 O161 2.039 . S
Zn151 O163 2.034 . S
O152 C136 1.251 . S
O152 Zn143 2.039 . S
C153 O158 1.246 . S
C153 O159 1.249 . S
O154 C136 1.254 . S
O154 Zn151 2.025 . S
H155 C147 0.952 . S
H156 C138 0.952 . S
H157 C146 0.948 . S
O158 Zn143 2.034 . S
O158 C153 1.246 . S
O159 Zn151 2.024 . S
O159 C153 1.249 . S
H160 C142 0.948 . S
O161 Zn151 2.039 . S
O161 C165 1.251 . S
O162 Zn143 2.025 . S
O162 C165 1.254 . S
O163 C144 1.246 . S
O163 Zn151 2.034 . S
O164 Zn143 2.024 . S
O164 C144 1.249 . S
C165 O161 1.251 . S
C165 O162 1.254 . S
H166 C139 0.949 . S
H167 C141 0.950 1_545 S
H168 C148 0.949 . S
H169 C150 0.950 . S
C170 O186 1.251 . S
C170 O188 1.254 . S
N171 C172 1.333 . S
N171 C176 1.307 . S
N171 Zn177 2.020 . S
C172 N171 1.333 . S
C172 C173 1.379 . S
C172 H190 0.952 . S
C173 C172 1.379 . S
C173 C174 1.390 . S
C173 H200 0.949 . S
C174 C173 1.390 . S
C174 C175 1.357 . S
C175 C174 1.357 . S
C175 C176 1.370 . S
C175 H201 0.950 . S
C176 N171 1.307 . S
C176 C175 1.370 . S
C176 H194 0.948 . S
Zn177 N171 2.020 . S
Zn177 O186 2.039 . S
Zn177 O192 2.034 . S
Zn177 O196 2.025 . S
Zn177 O198 2.024 . S
C178 O197 1.246 . S
C178 O198 1.249 . S
N179 C180 1.307 . S
N179 C181 1.333 . S
N179 Zn185 2.020 . S
C180 N179 1.307 . S
C180 C184 1.370 . S
C180 H191 0.948 . S
C181 N179 1.333 . S
C181 C182 1.379 . S
C181 H189 0.952 . S
C182 C181 1.379 . S
C182 C183 1.390 . S
C182 H202 0.949 . S
C183 C182 1.390 . S
C183 C184 1.357 . S
C184 C180 1.370 . S
C184 C183 1.357 . S
C184 H203 0.950 . S
Zn185 N179 2.020 . S
Zn185 O188 2.025 . S
Zn185 O193 2.024 . S
Zn185 O195 2.039 . S
Zn185 O197 2.034 . S
O186 C170 1.251 . S
O186 Zn177 2.039 . S
C187 O192 1.246 . S
C187 O193 1.249 . S
O188 C170 1.254 . S
O188 Zn185 2.025 . S
H189 C181 0.952 . S
H190 C172 0.952 . S
H191 C180 0.948 . S
O192 Zn177 2.034 . S
O192 C187 1.246 . S
O193 Zn185 2.024 . S
O193 C187 1.249 . S
H194 C176 0.948 . S
O195 Zn185 2.039 . S
O195 C199 1.251 . S
O196 Zn177 2.025 . S
O196 C199 1.254 . S
O197 C178 1.246 . S
O197 Zn185 2.034 . S
O198 Zn177 2.024 . S
O198 C178 1.249 . S
C199 O195 1.251 . S
C199 O196 1.254 . S
H200 C173 0.949 . S
H201 C175 0.950 . S
H202 C182 0.949 . S
H203 C184 0.950 . S
C204 O220 1.251 . S
C204 O222 1.254 . S
N205 C206 1.333 . S
N205 C210 1.307 . S
N205 Zn211 2.020 . S
C206 N205 1.333 . S
C206 C207 1.379 . S
C206 H224 0.952 . S
C207 C206 1.379 . S
C207 C208 1.390 1_545 S
C207 H234 0.949 . S
C208 C207 1.390 1_565 S
C208 C209 1.357 1_565 S
C209 C208 1.357 1_545 S
C209 C210 1.370 . S
C209 H235 0.950 1_545 S
C210 N205 1.307 . S
C210 C209 1.370 . S
C210 H228 0.948 . S
Zn211 N205 2.020 . S
Zn211 O220 2.039 . S
Zn211 O226 2.034 . S
Zn211 O230 2.025 . S
Zn211 O232 2.024 . S
C212 O231 1.246 . S
C212 O232 1.249 . S
N213 C214 1.307 . S
N213 C215 1.333 . S
N213 Zn219 2.020 . S
C214 N213 1.307 . S
C214 C218 1.370 . S
C214 H225 0.948 . S
C215 N213 1.333 . S
C215 C216 1.379 . S
C215 H223 0.952 . S
C216 C215 1.379 . S
C216 C217 1.390 . S
C216 H236 0.949 . S
C217 C216 1.390 . S
C217 C218 1.357 . S
C218 C214 1.370 . S
C218 C217 1.357 . S
C218 H237 0.950 . S
Zn219 N213 2.020 . S
Zn219 O222 2.025 . S
Zn219 O227 2.024 . S
Zn219 O229 2.039 . S
Zn219 O231 2.034 . S
O220 C204 1.251 . S
O220 Zn211 2.039 . S
C221 O226 1.246 . S
C221 O227 1.249 . S
O222 C204 1.254 . S
O222 Zn219 2.025 . S
H223 C215 0.952 . S
H224 C206 0.952 . S
H225 C214 0.948 . S
O226 Zn211 2.034 . S
O226 C221 1.246 . S
O227 Zn219 2.024 . S
O227 C221 1.249 . S
H228 C210 0.948 . S
O229 Zn219 2.039 . S
O229 C233 1.251 . S
O230 Zn211 2.025 . S
O230 C233 1.254 . S
O231 C212 1.246 . S
O231 Zn219 2.034 . S
O232 Zn211 2.024 . S
O232 C212 1.249 . S
C233 O229 1.251 . S
C233 O230 1.254 . S
H234 C207 0.949 . S
H235 C209 0.950 1_565 S
H236 C216 0.949 . S
H237 C218 0.950 . S
C238 O254 1.251 . S
C238 O256 1.254 . S
N239 C240 1.333 . S
N239 C244 1.307 . S
N239 Zn245 2.020 . S
C240 N239 1.333 . S
C240 C241 1.379 . S
C240 H258 0.952 . S
C241 C240 1.379 . S
C241 C242 1.390 . S
C241 H268 0.949 . S
C242 C241 1.390 . S
C242 C243 1.357 . S
C243 C242 1.357 . S
C243 C244 1.370 . S
C243 H269 0.950 . S
C244 N239 1.307 . S
C244 C243 1.370 . S
C244 H262 0.948 . S
Zn245 N239 2.020 . S
Zn245 O254 2.039 . S
Zn245 O260 2.034 . S
Zn245 O264 2.025 . S
Zn245 O266 2.024 . S
C246 O265 1.246 . S
C246 O266 1.249 . S
N247 C248 1.307 . S
N247 C249 1.333 . S
N247 Zn253 2.020 1_655 S
C248 N247 1.307 . S
C248 C252 1.370 . S
C248 H259 0.948 . S
C249 N247 1.333 . S
C249 C250 1.379 . S
C249 H257 0.952 . S
C250 C249 1.379 . S
C250 C251 1.390 . S
C250 H270 0.949 . S
C251 C250 1.390 . S
C251 C252 1.357 . S
C252 C248 1.370 . S
C252 C251 1.357 . S
C252 H271 0.950 . S
Zn253 N247 2.020 1_455 S
Zn253 O256 2.025 . S
Zn253 O261 2.024 . S
Zn253 O263 2.039 . S
Zn253 O265 2.034 . S
O254 C238 1.251 . S
O254 Zn245 2.039 . S
C255 O260 1.246 . S
C255 O261 1.249 . S
O256 C238 1.254 . S
O256 Zn253 2.025 . S
H257 C249 0.952 . S
H258 C240 0.952 . S
H259 C248 0.948 . S
O260 Zn245 2.034 . S
O260 C255 1.246 . S
O261 Zn253 2.024 . S
O261 C255 1.249 . S
H262 C244 0.948 . S
O263 Zn253 2.039 . S
O263 C267 1.251 . S
O264 Zn245 2.025 . S
O264 C267 1.254 . S
O265 C246 1.246 . S
O265 Zn253 2.034 . S
O266 Zn245 2.024 . S
O266 C246 1.249 . S
C267 O263 1.251 . S
C267 O264 1.254 . S
H268 C241 0.949 . S
H269 C243 0.950 . S
H270 C250 0.949 . S
H271 C252 0.950 . S
C272 O288 1.251 . S
C272 O290 1.254 . S
N273 C274 1.333 . S
N273 C278 1.307 . S
N273 Zn279 2.020 . S
C274 N273 1.333 . S
C274 C275 1.379 . S
C274 H292 0.952 . S
C275 C274 1.379 . S
C275 C276 1.390 . S
C275 H302 0.949 . S
C276 C275 1.390 . S
C276 C277 1.357 . S
C277 C276 1.357 . S
C277 C278 1.370 . S
C277 H303 0.950 . S
C278 N273 1.307 . S
C278 C277 1.370 . S
C278 H296 0.948 . S
Zn279 N273 2.020 . S
Zn279 O288 2.039 . S
Zn279 O294 2.034 . S
Zn279 O298 2.025 . S
Zn279 O300 2.024 . S
C280 O299 1.246 . S
C280 O300 1.249 . S
N281 C282 1.307 . S
N281 C283 1.333 . S
N281 Zn287 2.020 . S
C282 N281 1.307 . S
C282 C286 1.370 . S
C282 H293 0.948 . S
C283 N281 1.333 . S
C283 C284 1.379 . S
C283 H291 0.952 . S
C284 C283 1.379 . S
C284 C285 1.390 . S
C284 H304 0.949 . S
C285 C284 1.390 . S
C285 C286 1.357 . S
C286 C282 1.370 . S
C286 C285 1.357 . S
C286 H305 0.950 . S
Zn287 N281 2.020 . S
Zn287 O290 2.025 . S
Zn287 O295 2.024 . S
Zn287 O297 2.039 . S
Zn287 O299 2.034 . S
O288 C272 1.251 . S
O288 Zn279 2.039 . S
C289 O294 1.246 . S
C289 O295 1.249 . S
O290 C272 1.254 . S
O290 Zn287 2.025 . S
H291 C283 0.952 . S
H292 C274 0.952 . S
H293 C282 0.948 . S
O294 Zn279 2.034 . S
O294 C289 1.246 . S
O295 Zn287 2.024 . S
O295 C289 1.249 . S
H296 C278 0.948 . S
O297 Zn287 2.039 . S
O297 C301 1.251 . S
O298 Zn279 2.025 . S
O298 C301 1.254 . S
O299 C280 1.246 . S
O299 Zn287 2.034 . S
O300 Zn279 2.024 . S
O300 C280 1.249 . S
C301 O297 1.251 . S
C301 O298 1.254 . S
H302 C275 0.949 . S
H303 C277 0.950 . S
H304 C284 0.949 . S
H305 C286 0.950 . S
C306 O322 1.251 . S
C306 O324 1.254 . S
N307 C308 1.333 . S
N307 C312 1.307 1_545 S
N307 Zn313 2.020 1_655 S
C308 N307 1.333 . S
C308 C309 1.379 . S
C308 H326 0.952 . S
C309 C308 1.379 . S
C309 C310 1.390 1_545 S
C309 H336 0.949 . S
C310 C309 1.390 1_565 S
C310 C311 1.357 . S
C311 C310 1.357 . S
C311 C312 1.370 . S
C311 H337 0.950 . S
C312 N307 1.307 1_565 S
C312 C311 1.370 . S
C312 H330 0.948 . S
Zn313 N307 2.020 1_455 S
Zn313 O322 2.039 . S
Zn313 O328 2.034 . S
Zn313 O332 2.025 . S
Zn313 O334 2.024 1_545 S
C314 O333 1.246 1_565 S
C314 O334 1.249 . S
N315 C316 1.307 . S
N315 C317 1.333 . S
N315 Zn321 2.020 . S
C316 N315 1.307 . S
C316 C320 1.370 . S
C316 H327 0.948 . S
C317 N315 1.333 . S
C317 C318 1.379 . S
C317 H325 0.952 . S
C318 C317 1.379 . S
C318 C319 1.390 . S
C318 H338 0.949 . S
C319 C318 1.390 . S
C319 C320 1.357 . S
C320 C316 1.370 . S
C320 C319 1.357 . S
C320 H339 0.950 . S
Zn321 N315 2.020 . S
Zn321 O324 2.025 . S
Zn321 O329 2.024 . S
Zn321 O331 2.039 . S
Zn321 O333 2.034 . S
O322 C306 1.251 . S
O322 Zn313 2.039 . S
C323 O328 1.246 . S
C323 O329 1.249 . S
O324 C306 1.254 . S
O324 Zn321 2.025 . S
H325 C317 0.952 . S
H326 C308 0.952 . S
H327 C316 0.948 . S
O328 Zn313 2.034 . S
O328 C323 1.246 . S
O329 Zn321 2.024 . S
O329 C323 1.249 . S
H330 C312 0.948 . S
O331 Zn321 2.039 . S
O331 C335 1.251 . S
O332 Zn313 2.025 . S
O332 C335 1.254 . S
O333 C314 1.246 1_545 S
O333 Zn321 2.034 . S
O334 Zn313 2.024 1_565 S
O334 C314 1.249 . S
C335 O331 1.251 . S
C335 O332 1.254 . S
H336 C309 0.949 . S
H337 C311 0.950 . S
H338 C318 0.949 . S
H339 C320 0.950 . S
C340 O356 1.251 . S
C340 O358 1.254 . S
N341 C342 1.333 . S
N341 C346 1.307 . S
N341 Zn347 2.020 . S
C342 N341 1.333 . S
C342 C343 1.379 . S
C342 H360 0.952 . S
C343 C342 1.379 . S
C343 C344 1.390 . S
C343 H370 0.949 . S
C344 C343 1.390 . S
C344 C345 1.357 . S
C345 C344 1.357 . S
C345 C346 1.370 . S
C345 H371 0.950 . S
C346 N341 1.307 . S
C346 C345 1.370 . S
C346 H364 0.948 . S
Zn347 N341 2.020 . S
Zn347 O356 2.039 . S
Zn347 O362 2.034 . S
Zn347 O366 2.025 . S
Zn347 O368 2.024 . S
C348 O367 1.246 . S
C348 O368 1.249 . S
N349 C350 1.307 . S
N349 C351 1.333 . S
N349 Zn355 2.020 . S
C350 N349 1.307 . S
C350 C354 1.370 . S
C350 H361 0.948 . S
C351 N349 1.333 . S
C351 C352 1.379 . S
C351 H359 0.952 . S
C352 C351 1.379 . S
C352 C353 1.390 . S
C352 H372 0.949 . S
C353 C352 1.390 . S
C353 C354 1.357 . S
C354 C350 1.370 . S
C354 C353 1.357 . S
C354 H373 0.950 . S
Zn355 N349 2.020 . S
Zn355 O358 2.025 . S
Zn355 O363 2.024 . S
Zn355 O365 2.039 . S
Zn355 O367 2.034 . S
O356 C340 1.251 . S
O356 Zn347 2.039 . S
C357 O362 1.246 . S
C357 O363 1.249 . S
O358 C340 1.254 . S
O358 Zn355 2.025 . S
H359 C351 0.952 . S
H360 C342 0.952 . S
H361 C350 0.948 . S
O362 Zn347 2.034 . S
O362 C357 1.246 . S
O363 Zn355 2.024 . S
O363 C357 1.249 . S
H364 C346 0.948 . S
O365 Zn355 2.039 . S
O365 C369 1.251 . S
O366 Zn347 2.025 . S
O366 C369 1.254 . S
O367 C348 1.246 . S
O367 Zn355 2.034 . S
O368 Zn347 2.024 . S
O368 C348 1.249 . S
C369 O365 1.251 . S
C369 O366 1.254 . S
H370 C343 0.949 . S
H371 C345 0.950 . S
H372 C352 0.949 . S
H373 C354 0.950 . S
C374 O390 1.251 . S
C374 O392 1.254 . S
N375 C376 1.333 . S
N375 C380 1.307 1_565 S
N375 Zn381 2.020 . S
C376 N375 1.333 . S
C376 C377 1.379 . S
C376 H394 0.952 . S
C377 C376 1.379 . S
C377 C378 1.390 1_565 S
C377 H404 0.949 . S
C378 C377 1.390 1_545 S
C378 C379 1.357 . S
C379 C378 1.357 . S
C379 C380 1.370 . S
C379 H405 0.950 . S
C380 N375 1.307 1_545 S
C380 C379 1.370 . S
C380 H398 0.948 . S
Zn381 N375 2.020 . S
Zn381 O390 2.039 . S
Zn381 O396 2.034 . S
Zn381 O400 2.025 . S
Zn381 O402 2.024 1_565 S
C382 O401 1.246 1_545 S
C382 O402 1.249 . S
N383 C384 1.307 . S
N383 C385 1.333 . S
N383 Zn389 2.020 . S
C384 N383 1.307 . S
C384 C388 1.370 . S
C384 H395 0.948 . S
C385 N383 1.333 . S
C385 C386 1.379 . S
C385 H393 0.952 . S
C386 C385 1.379 . S
C386 C387 1.390 . S
C386 H406 0.949 . S
C387 C386 1.390 . S
C387 C388 1.357 . S
C388 C384 1.370 . S
C388 C387 1.357 . S
C388 H407 0.950 . S
Zn389 N383 2.020 . S
Zn389 O392 2.025 . S
Zn389 O397 2.024 . S
Zn389 O399 2.039 . S
Zn389 O401 2.034 . S
O390 C374 1.251 . S
O390 Zn381 2.039 . S
C391 O396 1.246 . S
C391 O397 1.249 . S
O392 C374 1.254 . S
O392 Zn389 2.025 . S
H393 C385 0.952 . S
H394 C376 0.952 . S
H395 C384 0.948 . S
O396 Zn381 2.034 . S
O396 C391 1.246 . S
O397 Zn389 2.024 . S
O397 C391 1.249 . S
H398 C380 0.948 . S
O399 Zn389 2.039 . S
O399 C403 1.251 . S
O400 Zn381 2.025 . S
O400 C403 1.254 . S
O401 C382 1.246 1_565 S
O401 Zn389 2.034 . S
O402 Zn381 2.024 1_545 S
O402 C382 1.249 . S
C403 O399 1.251 . S
C403 O400 1.254 . S
H404 C377 0.949 . S
H405 C379 0.950 . S
H406 C386 0.949 . S
H407 C388 0.950 . S
C408 O424 1.251 . S
C408 O426 1.254 . S
N409 C410 1.333 . S
N409 C414 1.307 . S
N409 Zn415 2.020 . S
C410 N409 1.333 . S
C410 C411 1.379 . S
C410 H428 0.952 . S
C411 C410 1.379 . S
C411 C412 1.390 . S
C411 H438 0.949 . S
C412 C411 1.390 . S
C412 C413 1.357 . S
C413 C412 1.357 . S
C413 C414 1.370 . S
C413 H439 0.950 . S
C414 N409 1.307 . S
C414 C413 1.370 . S
C414 H432 0.948 . S
Zn415 N409 2.020 . S
Zn415 O424 2.039 . S
Zn415 O430 2.034 . S
Zn415 O434 2.025 . S
Zn415 O436 2.024 . S
C416 O435 1.246 . S
C416 O436 1.249 . S
N417 C418 1.307 . S
N417 C419 1.333 . S
N417 Zn423 2.020 . S
C418 N417 1.307 . S
C418 C422 1.370 . S
C418 H429 0.948 . S
C419 N417 1.333 . S
C419 C420 1.379 . S
C419 H427 0.952 . S
C420 C419 1.379 . S
C420 C421 1.390 . S
C420 H440 0.949 . S
C421 C420 1.390 . S
C421 C422 1.357 . S
C422 C418 1.370 . S
C422 C421 1.357 . S
C422 H441 0.950 . S
Zn423 N417 2.020 . S
Zn423 O426 2.025 . S
Zn423 O431 2.024 . S
Zn423 O433 2.039 . S
Zn423 O435 2.034 . S
O424 C408 1.251 . S
O424 Zn415 2.039 . S
C425 O430 1.246 . S
C425 O431 1.249 . S
O426 C408 1.254 . S
O426 Zn423 2.025 . S
H427 C419 0.952 . S
H428 C410 0.952 . S
H429 C418 0.948 . S
O430 Zn415 2.034 . S
O430 C425 1.246 . S
O431 Zn423 2.024 . S
O431 C425 1.249 . S
H432 C414 0.948 . S
O433 Zn423 2.039 . S
O433 C437 1.251 . S
O434 Zn415 2.025 . S
O434 C437 1.254 . S
O435 C416 1.246 . S
O435 Zn423 2.034 . S
O436 Zn415 2.024 . S
O436 C416 1.249 . S
C437 O433 1.251 . S
C437 O434 1.254 . S
H438 C411 0.949 . S
H439 C413 0.950 . S
H440 C420 0.949 . S
H441 C422 0.950 . S
C442 O458 1.251 . S
C442 O460 1.254 . S
N443 C444 1.333 . S
N443 C448 1.307 . S
N443 Zn449 2.020 . S
C444 N443 1.333 . S
C444 C445 1.379 . S
C444 H462 0.952 . S
C445 C444 1.379 . S
C445 C446 1.390 . S
C445 H472 0.949 . S
C446 C445 1.390 . S
C446 C447 1.357 . S
C447 C446 1.357 . S
C447 C448 1.370 . S
C447 H473 0.950 . S
C448 N443 1.307 . S
C448 C447 1.370 . S
C448 H466 0.948 . S
Zn449 N443 2.020 . S
Zn449 O458 2.039 . S
Zn449 O464 2.034 . S
Zn449 O468 2.025 . S
Zn449 O470 2.024 . S
C450 O469 1.246 . S
C450 O470 1.249 . S
N451 C452 1.307 1_565 S
N451 C453 1.333 . S
N451 Zn457 2.020 1_455 S
C452 N451 1.307 1_545 S
C452 C456 1.370 . S
C452 H463 0.948 . S
C453 N451 1.333 . S
C453 C454 1.379 . S
C453 H461 0.952 . S
C454 C453 1.379 . S
C454 C455 1.390 1_565 S
C454 H474 0.949 . S
C455 C454 1.390 1_545 S
C455 C456 1.357 . S
C456 C452 1.370 . S
C456 C455 1.357 . S
C456 H475 0.950 . S
Zn457 N451 2.020 1_655 S
Zn457 O460 2.025 . S
Zn457 O465 2.024 1_565 S
Zn457 O467 2.039 . S
Zn457 O469 2.034 . S
O458 C442 1.251 . S
O458 Zn449 2.039 . S
C459 O464 1.246 1_545 S
C459 O465 1.249 . S
O460 C442 1.254 . S
O460 Zn457 2.025 . S
H461 C453 0.952 . S
H462 C444 0.952 . S
H463 C452 0.948 . S
O464 Zn449 2.034 . S
O464 C459 1.246 1_565 S
O465 Zn457 2.024 1_545 S
O465 C459 1.249 . S
H466 C448 0.948 . S
O467 Zn457 2.039 . S
O467 C471 1.251 . S
O468 Zn449 2.025 . S
O468 C471 1.254 . S
O469 C450 1.246 . S
O469 Zn457 2.034 . S
O470 Zn449 2.024 . S
O470 C450 1.249 . S
C471 O467 1.251 . S
C471 O468 1.254 . S
H472 C445 0.949 . S
H473 C447 0.950 . S
H474 C454 0.949 . S
H475 C456 0.950 . S
C476 O492 1.251 . S
C476 O494 1.254 . S
N477 C478 1.333 . S
N477 C482 1.307 . S
N477 Zn483 2.020 . S
C478 N477 1.333 . S
C478 C479 1.379 . S
C478 H496 0.952 . S
C479 C478 1.379 . S
C479 C480 1.390 . S
C479 H506 0.949 . S
C480 C479 1.390 . S
C480 C481 1.357 . S
C481 C480 1.357 . S
C481 C482 1.370 . S
C481 H507 0.950 . S
C482 N477 1.307 . S
C482 C481 1.370 . S
C482 H500 0.948 . S
Zn483 N477 2.020 . S
Zn483 O492 2.039 . S
Zn483 O498 2.034 . S
Zn483 O502 2.025 . S
Zn483 O504 2.024 . S
C484 O503 1.246 . S
C484 O504 1.249 . S
N485 C486 1.307 . S
N485 C487 1.333 . S
N485 Zn491 2.020 . S
C486 N485 1.307 . S
C486 C490 1.370 . S
C486 H497 0.948 . S
C487 N485 1.333 . S
C487 C488 1.379 . S
C487 H495 0.952 . S
C488 C487 1.379 . S
C488 C489 1.390 . S
C488 H508 0.949 . S
C489 C488 1.390 . S
C489 C490 1.357 . S
C490 C486 1.370 . S
C490 C489 1.357 . S
C490 H509 0.950 . S
Zn491 N485 2.020 . S
Zn491 O494 2.025 . S
Zn491 O499 2.024 . S
Zn491 O501 2.039 . S
Zn491 O503 2.034 . S
O492 C476 1.251 . S
O492 Zn483 2.039 . S
C493 O498 1.246 . S
C493 O499 1.249 . S
O494 C476 1.254 . S
O494 Zn491 2.025 . S
H495 C487 0.952 . S
H496 C478 0.952 . S
H497 C486 0.948 . S
O498 Zn483 2.034 . S
O498 C493 1.246 . S
O499 Zn491 2.024 . S
O499 C493 1.249 . S
H500 C482 0.948 . S
O501 Zn491 2.039 . S
O501 C505 1.251 . S
O502 Zn483 2.025 . S
O502 C505 1.254 . S
O503 C484 1.246 . S
O503 Zn491 2.034 . S
O504 Zn483 2.024 . S
O504 C484 1.249 . S
C505 O501 1.251 . S
C505 O502 1.254 . S
H506 C479 0.949 . S
H507 C481 0.950 . S
H508 C488 0.949 . S
H509 C490 0.950 . S
C510 O526 1.251 . S
C510 O528 1.254 . S
N511 C512 1.333 . S
N511 C516 1.307 . S
N511 Zn517 2.020 . S
C512 N511 1.333 . S
C512 C513 1.379 . S
C512 H530 0.952 . S
C513 C512 1.379 . S
C513 C514 1.390 . S
C513 H540 0.949 . S
C514 C513 1.390 . S
C514 C515 1.357 . S
C515 C514 1.357 . S
C515 C516 1.370 . S
C515 H541 0.950 . S
C516 N511 1.307 . S
C516 C515 1.370 . S
C516 H534 0.948 . S
Zn517 N511 2.020 . S
Zn517 O526 2.039 . S
Zn517 O532 2.034 . S
Zn517 O536 2.025 . S
Zn517 O538 2.024 . S
C518 O537 1.246 . S
C518 O538 1.249 . S
N519 C520 1.307 1_545 S
N519 C521 1.333 . S
N519 Zn525 2.020 . S
C520 N519 1.307 1_565 S
C520 C524 1.370 . S
C520 H531 0.948 . S
C521 N519 1.333 . S
C521 C522 1.379 . S
C521 H529 0.952 . S
C522 C521 1.379 . S
C522 C523 1.390 1_545 S
C522 H542 0.949 . S
C523 C522 1.390 1_565 S
C523 C524 1.357 . S
C524 C520 1.370 . S
C524 C523 1.357 . S
C524 H543 0.950 . S
Zn525 N519 2.020 . S
Zn525 O528 2.025 . S
Zn525 O533 2.024 1_545 S
Zn525 O535 2.039 . S
Zn525 O537 2.034 . S
O526 C510 1.251 . S
O526 Zn517 2.039 . S
C527 O532 1.246 1_565 S
C527 O533 1.249 . S
O528 C510 1.254 . S
O528 Zn525 2.025 . S
H529 C521 0.952 . S
H530 C512 0.952 . S
H531 C520 0.948 . S
O532 Zn517 2.034 . S
O532 C527 1.246 1_545 S
O533 Zn525 2.024 1_565 S
O533 C527 1.249 . S
H534 C516 0.948 . S
O535 Zn525 2.039 . S
O535 C539 1.251 . S
O536 Zn517 2.025 . S
O536 C539 1.254 . S
O537 C518 1.246 . S
O537 Zn525 2.034 . S
O538 Zn517 2.024 . S
O538 C518 1.249 . S
C539 O535 1.251 . S
C539 O536 1.254 . S
H540 C513 0.949 . S
H541 C515 0.950 . S
H542 C522 0.949 . S
H543 C524 0.950 . S
C544 C545 1.363 . S
C544 C550 1.379 . S
C544 N552 1.356 . S
C545 C544 1.363 . S
C545 C551 1.363 . S
C546 C547 1.363 . S
C546 C551 1.379 . S
C546 N553 1.356 . S
C547 C546 1.363 . S
C547 C550 1.363 . S
N548 C550 1.356 . S
N548 H560 0.984 . S
N548 H561 0.985 . S
N549 C551 1.356 . S
N549 H554 0.984 . S
N549 H555 0.985 . S
C550 C544 1.379 . S
C550 C547 1.363 . S
C550 N548 1.356 . S
C551 C545 1.363 . S
C551 C546 1.379 . S
C551 N549 1.356 . S
N552 C544 1.356 . S
N552 H558 0.984 . S
N552 H559 0.984 . S
N553 C546 1.356 . S
N553 H556 0.984 . S
N553 H557 0.985 . S
H554 N549 0.984 . S
H555 N549 0.985 . S
H556 N553 0.984 . S
H557 N553 0.985 . S
H558 N552 0.984 . S
H559 N552 0.984 . S
H560 N548 0.984 . S
H561 N548 0.985 . S
C562 C563 1.363 . S
C562 C568 1.379 . S
C562 N570 1.356 . S
C563 C562 1.363 . S
C563 C569 1.363 . S
C564 C565 1.363 . S
C564 C569 1.379 . S
C564 N571 1.356 . S
C565 C564 1.363 . S
C565 C568 1.363 . S
N566 C568 1.356 . S
N566 H578 0.984 . S
N566 H579 0.985 . S
N567 C569 1.356 . S
N567 H572 0.984 . S
N567 H573 0.985 . S
C568 C562 1.379 . S
C568 C565 1.363 . S
C568 N566 1.356 . S
C569 C563 1.363 . S
C569 C564 1.379 . S
C569 N567 1.356 . S
N570 C562 1.356 . S
N570 H576 0.984 . S
N570 H577 0.984 . S
N571 C564 1.356 . S
N571 H574 0.984 . S
N571 H575 0.985 . S
H572 N567 0.984 . S
H573 N567 0.985 . S
H574 N571 0.984 . S
H575 N571 0.985 . S
H576 N570 0.984 . S
H577 N570 0.984 . S
H578 N566 0.984 . S
H579 N566 0.985 . S
C580 C581 1.363 . S
C580 C586 1.379 . S
C580 N588 1.356 . S
C581 C580 1.363 . S
C581 C587 1.363 . S
C582 C583 1.363 . S
C582 C587 1.379 . S
C582 N589 1.356 . S
C583 C582 1.363 . S
C583 C586 1.363 . S
N584 C586 1.356 . S
N584 H596 0.984 . S
N584 H597 0.985 . S
N585 C587 1.356 . S
N585 H590 0.984 . S
N585 H591 0.985 . S
C586 C580 1.379 . S
C586 C583 1.363 . S
C586 N584 1.356 . S
C587 C581 1.363 . S
C587 C582 1.379 . S
C587 N585 1.356 . S
N588 C580 1.356 . S
N588 H594 0.984 . S
N588 H595 0.984 . S
N589 C582 1.356 . S
N589 H592 0.984 . S
N589 H593 0.985 . S
H590 N585 0.984 . S
H591 N585 0.985 . S
H592 N589 0.984 . S
H593 N589 0.985 . S
H594 N588 0.984 . S
H595 N588 0.984 . S
H596 N584 0.984 . S
H597 N584 0.985 . S
C598 C599 1.363 . S
C598 C604 1.379 1_655 S
C598 N606 1.356 . S
C599 C598 1.363 . S
C599 C605 1.363 1_556 S
C600 C601 1.363 . S
C600 C605 1.379 1_455 S
C600 N607 1.356 . S
C601 C600 1.363 . S
C601 C604 1.363 1_554 S
N602 C604 1.356 . S
N602 H614 0.984 . S
N602 H615 0.985 1_556 S
N603 C605 1.356 . S
N603 H608 0.984 1_554 S
N603 H609 0.985 . S
C604 C598 1.379 1_455 S
C604 C601 1.363 1_556 S
C604 N602 1.356 . S
C605 C599 1.363 1_554 S
C605 C600 1.379 1_655 S
C605 N603 1.356 . S
N606 C598 1.356 . S
N606 H612 0.984 . S
N606 H613 0.984 . S
N607 C600 1.356 . S
N607 H610 0.984 . S
N607 H611 0.985 . S
H608 N603 0.984 1_556 S
H609 N603 0.985 . S
H610 N607 0.984 . S
H611 N607 0.985 . S
H612 N606 0.984 . S
H613 N606 0.984 . S
H614 N602 0.984 . S
H615 N602 0.985 1_554 S
C616 C617 1.363 . S
C616 C622 1.379 . S
C616 N624 1.356 . S
C617 C616 1.363 . S
C617 C623 1.363 . S
C618 C619 1.363 . S
C618 C623 1.379 . S
C618 N625 1.356 . S
C619 C618 1.363 . S
C619 C622 1.363 . S
N620 C622 1.356 . S
N620 H632 0.984 . S
N620 H633 0.985 . S
N621 C623 1.356 . S
N621 H626 0.984 . S
N621 H627 0.985 . S
C622 C616 1.379 . S
C622 C619 1.363 . S
C622 N620 1.356 . S
C623 C617 1.363 . S
C623 C618 1.379 . S
C623 N621 1.356 . S
N624 C616 1.356 . S
N624 H630 0.984 . S
N624 H631 0.984 . S
N625 C618 1.356 . S
N625 H628 0.984 . S
N625 H629 0.985 . S
H626 N621 0.984 . S
H627 N621 0.985 . S
H628 N625 0.984 . S
H629 N625 0.985 . S
H630 N624 0.984 . S
H631 N624 0.984 . S
H632 N620 0.984 . S
H633 N620 0.985 . S
C634 C635 1.363 . S
C634 C640 1.379 . S
C634 N642 1.356 . S
C635 C634 1.363 . S
C635 C641 1.363 . S
C636 C637 1.363 . S
C636 C641 1.379 . S
C636 N643 1.356 . S
C637 C636 1.363 . S
C637 C640 1.363 . S
N638 C640 1.356 . S
N638 H650 0.984 . S
N638 H651 0.985 . S
N639 C641 1.356 . S
N639 H644 0.984 . S
N639 H645 0.985 . S
C640 C634 1.379 . S
C640 C637 1.363 . S
C640 N638 1.356 . S
C641 C635 1.363 . S
C641 C636 1.379 . S
C641 N639 1.356 . S
N642 C634 1.356 . S
N642 H648 0.984 . S
N642 H649 0.984 . S
N643 C636 1.356 . S
N643 H646 0.984 . S
N643 H647 0.985 . S
H644 N639 0.984 . S
H645 N639 0.985 . S
H646 N643 0.984 . S
H647 N643 0.985 . S
H648 N642 0.984 . S
H649 N642 0.984 . S
H650 N638 0.984 . S
H651 N638 0.985 . S
C652 C653 1.363 1_545 S
C652 C658 1.379 1_655 S
C652 N660 1.356 . S
C653 C652 1.363 1_565 S
C653 C659 1.363 1_554 S
C654 C655 1.363 1_565 S
C654 C659 1.379 1_455 S
C654 N661 1.356 . S
C655 C654 1.363 1_545 S
C655 C658 1.363 1_556 S
N656 C658 1.356 . S
N656 H668 0.984 . S
N656 H669 0.985 1_554 S
N657 C659 1.356 . S
N657 H662 0.984 1_556 S
N657 H663 0.985 . S
C658 C652 1.379 1_455 S
C658 C655 1.363 1_554 S
C658 N656 1.356 . S
C659 C653 1.363 1_556 S
C659 C654 1.379 1_655 S
C659 N657 1.356 . S
N660 C652 1.356 . S
N660 H666 0.984 . S
N660 H667 0.984 1_545 S
N661 C654 1.356 . S
N661 H664 0.984 1_565 S
N661 H665 0.985 . S
H662 N657 0.984 1_554 S
H663 N657 0.985 . S
H664 N661 0.984 1_545 S
H665 N661 0.985 . S
H666 N660 0.984 . S
H667 N660 0.984 1_565 S
H668 N656 0.984 . S
H669 N656 0.985 1_556 S
C670 C671 1.363 . S
C670 C676 1.379 1_565 S
C670 N678 1.356 . S
C671 C670 1.363 . S
C671 C677 1.363 . S
C672 C673 1.363 . S
C672 C677 1.379 1_545 S
C672 N679 1.356 . S
C673 C672 1.363 . S
C673 C676 1.363 . S
N674 C676 1.356 . S
N674 H686 0.984 . S
N674 H687 0.985 . S
N675 C677 1.356 . S
N675 H680 0.984 . S
N675 H681 0.985 . S
C676 C670 1.379 1_545 S
C676 C673 1.363 . S
C676 N674 1.356 . S
C677 C671 1.363 . S
C677 C672 1.379 1_565 S
C677 N675 1.356 . S
N678 C670 1.356 . S
N678 H684 0.984 . S
N678 H685 0.984 . S
N679 C672 1.356 . S
N679 H682 0.984 . S
N679 H683 0.985 . S
H680 N675 0.984 . S
H681 N675 0.985 . S
H682 N679 0.984 . S
H683 N679 0.985 . S
H684 N678 0.984 . S
H685 N678 0.984 . S
H686 N674 0.984 . S
H687 N674 0.985 . S
C688 C689 1.363 1_554 S
C688 C694 1.379 . S
C688 N696 1.356 1_554 S
C689 C688 1.363 1_556 S
C689 C695 1.363 1_556 S
C690 C691 1.363 . S
C690 C695 1.379 . S
C690 N697 1.356 . S
C691 C690 1.363 . S
C691 C694 1.363 . S
N692 C694 1.356 . S
N692 H704 0.984 . S
N692 H705 0.985 . S
N693 C695 1.356 1_556 S
N693 H698 0.984 . S
N693 H699 0.985 . S
C694 C688 1.379 . S
C694 C691 1.363 . S
C694 N692 1.356 . S
C695 C689 1.363 1_554 S
C695 C690 1.379 . S
C695 N693 1.356 1_554 S
N696 C688 1.356 1_556 S
N696 H702 0.984 . S
N696 H703 0.984 . S
N697 C690 1.356 . S
N697 H700 0.984 . S
N697 H701 0.985 . S
H698 N693 0.984 . S
H699 N693 0.985 . S
H700 N697 0.984 . S
H701 N697 0.985 . S
H702 N696 0.984 . S
H703 N696 0.984 . S
H704 N692 0.984 . S
H705 N692 0.985 . S
C706 C707 1.363 . S
C706 C712 1.379 . S
C706 N714 1.356 . S
C707 C706 1.363 . S
C707 C713 1.363 . S
C708 C709 1.363 . S
C708 C713 1.379 . S
C708 N715 1.356 . S
C709 C708 1.363 . S
C709 C712 1.363 . S
N710 C712 1.356 . S
N710 H722 0.984 . S
N710 H723 0.985 . S
N711 C713 1.356 . S
N711 H716 0.984 . S
N711 H717 0.985 . S
C712 C706 1.379 . S
C712 C709 1.363 . S
C712 N710 1.356 . S
C713 C707 1.363 . S
C713 C708 1.379 . S
C713 N711 1.356 . S
N714 C706 1.356 . S
N714 H720 0.984 . S
N714 H721 0.984 . S
N715 C708 1.356 . S
N715 H718 0.984 . S
N715 H719 0.985 . S
H716 N711 0.984 . S
H717 N711 0.985 . S
H718 N715 0.984 . S
H719 N715 0.985 . S
H720 N714 0.984 . S
H721 N714 0.984 . S
H722 N710 0.984 . S
H723 N710 0.985 . S
C724 C725 1.363 . S
C724 C730 1.379 . S
C724 N732 1.356 . S
C725 C724 1.363 . S
C725 C731 1.363 . S
C726 C727 1.363 . S
C726 C731 1.379 . S
C726 N733 1.356 . S
C727 C726 1.363 . S
C727 C730 1.363 . S
N728 C730 1.356 . S
N728 H740 0.984 . S
N728 H741 0.985 . S
N729 C731 1.356 . S
N729 H734 0.984 . S
N729 H735 0.985 . S
C730 C724 1.379 . S
C730 C727 1.363 . S
C730 N728 1.356 . S
C731 C725 1.363 . S
C731 C726 1.379 . S
C731 N729 1.356 . S
N732 C724 1.356 . S
N732 H738 0.984 . S
N732 H739 0.984 . S
N733 C726 1.356 . S
N733 H736 0.984 . S
N733 H737 0.985 . S
H734 N729 0.984 . S
H735 N729 0.985 . S
H736 N733 0.984 . S
H737 N733 0.985 . S
H738 N732 0.984 . S
H739 N732 0.984 . S
H740 N728 0.984 . S
H741 N728 0.985 . S
C742 C743 1.363 . S
C742 C748 1.379 . S
C742 N750 1.356 . S
C743 C742 1.363 . S
C743 C749 1.363 . S
C744 C745 1.363 . S
C744 C749 1.379 . S
C744 N751 1.356 . S
C745 C744 1.363 . S
C745 C748 1.363 . S
N746 C748 1.356 . S
N746 H758 0.984 . S
N746 H759 0.985 . S
N747 C749 1.356 . S
N747 H752 0.984 . S
N747 H753 0.985 . S
C748 C742 1.379 . S
C748 C745 1.363 . S
C748 N746 1.356 . S
C749 C743 1.363 . S
C749 C744 1.379 . S
C749 N747 1.356 . S
N750 C742 1.356 . S
N750 H756 0.984 . S
N750 H757 0.984 . S
N751 C744 1.356 . S
N751 H754 0.984 . S
N751 H755 0.985 . S
H752 N747 0.984 . S
H753 N747 0.985 . S
H754 N751 0.984 . S
H755 N751 0.985 . S
H756 N750 0.984 . S
H757 N750 0.984 . S
H758 N746 0.984 . S
H759 N746 0.985 . S
C760 C761 1.363 1_556 S
C760 C766 1.379 . S
C760 N768 1.356 . S
C761 C760 1.363 1_554 S
C761 C767 1.363 . S
C762 C763 1.363 . S
C762 C767 1.379 1_556 S
C762 N769 1.356 . S
C763 C762 1.363 . S
C763 C766 1.363 . S
N764 C766 1.356 . S
N764 H776 0.984 . S
N764 H777 0.985 . S
N765 C767 1.356 . S
N765 H770 0.984 . S
N765 H771 0.985 . S
C766 C760 1.379 . S
C766 C763 1.363 . S
C766 N764 1.356 . S
C767 C761 1.363 . S
C767 C762 1.379 1_554 S
C767 N765 1.356 . S
N768 C760 1.356 . S
N768 H774 0.984 . S
N768 H775 0.984 1_556 S
N769 C762 1.356 . S
N769 H772 0.984 . S
N769 H773 0.985 . S
H770 N765 0.984 . S
H771 N765 0.985 . S
H772 N769 0.984 . S
H773 N769 0.985 . S
H774 N768 0.984 . S
H775 N768 0.984 1_554 S
H776 N764 0.984 . S
H777 N764 0.985 . S
C778 C779 1.363 . S
C778 C784 1.379 . S
C778 N786 1.356 . S
C779 C778 1.363 . S
C779 C785 1.363 . S
C780 C781 1.363 . S
C780 C785 1.379 . S
C780 N787 1.356 . S
C781 C780 1.363 . S
C781 C784 1.363 . S
N782 C784 1.356 . S
N782 H794 0.984 . S
N782 H795 0.985 . S
N783 C785 1.356 . S
N783 H788 0.984 . S
N783 H789 0.985 . S
C784 C778 1.379 . S
C784 C781 1.363 . S
C784 N782 1.356 . S
C785 C779 1.363 . S
C785 C780 1.379 . S
C785 N783 1.356 . S
N786 C778 1.356 . S
N786 H792 0.984 . S
N786 H793 0.984 . S
N787 C780 1.356 . S
N787 H790 0.984 . S
N787 H791 0.985 . S
H788 N783 0.984 . S
H789 N783 0.985 . S
H790 N787 0.984 . S
H791 N787 0.985 . S
H792 N786 0.984 . S
H793 N786 0.984 . S
H794 N782 0.984 . S
H795 N782 0.985 . S
C796 C797 1.363 . S
C796 C802 1.379 . S
C796 N804 1.356 . S
C797 C796 1.363 . S
C797 C803 1.363 . S
C798 C799 1.363 . S
C798 C803 1.379 . S
C798 N805 1.356 . S
C799 C798 1.363 . S
C799 C802 1.363 . S
N800 C802 1.356 . S
N800 H812 0.984 . S
N800 H813 0.985 . S
N801 C803 1.356 . S
N801 H806 0.984 . S
N801 H807 0.985 . S
C802 C796 1.379 . S
C802 C799 1.363 . S
C802 N800 1.356 . S
C803 C797 1.363 . S
C803 C798 1.379 . S
C803 N801 1.356 . S
N804 C796 1.356 . S
N804 H810 0.984 . S
N804 H811 0.984 . S
N805 C798 1.356 . S
N805 H808 0.984 . S
N805 H809 0.985 . S
H806 N801 0.984 . S
H807 N801 0.985 . S
H808 N805 0.984 . S
H809 N805 0.985 . S
H810 N804 0.984 . S
H811 N804 0.984 . S
H812 N800 0.984 . S
H813 N800 0.985 . S
C814 C815 1.363 . S
C814 C820 1.379 . S
C814 N822 1.356 . S
C815 C814 1.363 . S
C815 C821 1.363 . S
C816 C817 1.363 . S
C816 C821 1.379 . S
C816 N823 1.356 . S
C817 C816 1.363 . S
C817 C820 1.363 . S
N818 C820 1.356 . S
N818 H830 0.984 . S
N818 H831 0.985 . S
N819 C821 1.356 . S
N819 H824 0.984 . S
N819 H825 0.985 . S
C820 C814 1.379 . S
C820 C817 1.363 . S
C820 N818 1.356 . S
C821 C815 1.363 . S
C821 C816 1.379 . S
C821 N819 1.356 . S
N822 C814 1.356 . S
N822 H828 0.984 . S
N822 H829 0.984 . S
N823 C816 1.356 . S
N823 H826 0.984 . S
N823 H827 0.985 . S
H824 N819 0.984 . S
H825 N819 0.985 . S
H826 N823 0.984 . S
H827 N823 0.985 . S
H828 N822 0.984 . S
H829 N822 0.984 . S
H830 N818 0.984 . S
H831 N818 0.985 . S
C832 C833 1.363 . S
C832 C838 1.379 . S
C832 N840 1.356 . S
C833 C832 1.363 . S
C833 C839 1.363 . S
C834 C835 1.363 . S
C834 C839 1.379 . S
C834 N841 1.356 . S
C835 C834 1.363 . S
C835 C838 1.363 . S
N836 C838 1.356 . S
N836 H848 0.984 . S
N836 H849 0.985 . S
N837 C839 1.356 . S
N837 H842 0.984 . S
N837 H843 0.985 . S
C838 C832 1.379 . S
C838 C835 1.363 . S
C838 N836 1.356 . S
C839 C833 1.363 . S
C839 C834 1.379 . S
C839 N837 1.356 . S
N840 C832 1.356 . S
N840 H846 0.984 . S
N840 H847 0.984 . S
N841 C834 1.356 . S
N841 H844 0.984 . S
N841 H845 0.985 . S
H842 N837 0.984 . S
H843 N837 0.985 . S
H844 N841 0.984 . S
H845 N841 0.985 . S
H846 N840 0.984 . S
H847 N840 0.984 . S
H848 N836 0.984 . S
H849 N836 0.985 . S
C850 C851 1.363 . S
C850 C856 1.379 . S
C850 N858 1.356 . S
C851 C850 1.363 . S
C851 C857 1.363 . S
C852 C853 1.363 . S
C852 C857 1.379 . S
C852 N859 1.356 . S
C853 C852 1.363 . S
C853 C856 1.363 . S
N854 C856 1.347 1_565 S
N854 H866 0.993 . S
N854 H867 0.987 . S
N855 C857 1.356 . S
N855 H860 0.984 . S
N855 H861 0.985 . S
C856 C850 1.379 . S
C856 C853 1.363 . S
C856 N854 1.347 1_545 S
C857 C851 1.363 . S
C857 C852 1.379 . S
C857 N855 1.356 . S
N858 C850 1.356 . S
N858 H864 0.984 . S
N858 H865 0.984 . S
N859 C852 1.356 . S
N859 H862 0.984 . S
N859 H863 0.985 . S
H860 N855 0.984 . S
H861 N855 0.985 . S
H862 N859 0.984 . S
H863 N859 0.985 . S
H864 N858 0.984 . S
H865 N858 0.984 . S
H866 N854 0.993 . S
H867 N854 0.987 . S
C868 C869 1.363 . S
C868 C874 1.379 . S
C868 N876 1.356 . S
C869 C868 1.363 . S
C869 C875 1.363 . S
C870 C871 1.363 1_554 S
C870 C875 1.379 . S
C870 N877 1.356 1_554 S
C871 C870 1.363 1_556 S
C871 C874 1.363 1_556 S
N872 C874 1.356 1_556 S
N872 H884 0.984 1_556 S
N872 H885 0.985 . S
N873 C875 1.356 . S
N873 H878 0.984 . S
N873 H879 0.985 . S
C874 C868 1.379 . S
C874 C871 1.363 1_554 S
C874 N872 1.356 1_554 S
C875 C869 1.363 . S
C875 C870 1.379 . S
C875 N873 1.356 . S
N876 C868 1.356 . S
N876 H882 0.984 . S
N876 H883 0.984 . S
N877 C870 1.356 1_556 S
N877 H880 0.984 . S
N877 H881 0.985 . S
H878 N873 0.984 . S
H879 N873 0.985 . S
H880 N877 0.984 . S
H881 N877 0.985 . S
H882 N876 0.984 . S
H883 N876 0.984 . S
H884 N872 0.984 1_554 S
H885 N872 0.985 . S
C886 C887 1.363 . S
C886 C892 1.379 . S
C886 N894 1.356 . S
C887 C886 1.363 . S
C887 C893 1.363 . S
C888 C889 1.363 . S
C888 C893 1.379 . S
C888 N895 1.356 . S
C889 C888 1.363 . S
C889 C892 1.363 . S
N890 C892 1.356 . S
N890 H902 0.984 . S
N890 H903 0.985 . S
N891 C893 1.356 1_545 S
N891 H896 0.984 . S
N891 H897 0.985 . S
C892 C886 1.379 . S
C892 C889 1.363 . S
C892 N890 1.356 . S
C893 C887 1.363 . S
C893 C888 1.379 . S
C893 N891 1.356 1_565 S
N894 C886 1.356 . S
N894 H900 0.984 . S
N894 H901 0.984 . S
N895 C888 1.356 . S
N895 H898 0.984 . S
N895 H899 0.985 1_565 S
H896 N891 0.984 . S
H897 N891 0.985 . S
H898 N895 0.984 . S
H899 N895 0.985 1_545 S
H900 N894 0.984 . S
H901 N894 0.984 . S
H902 N890 0.984 . S
H903 N890 0.985 . S
C904 C905 1.363 . S
C904 C910 1.379 . S
C904 N912 1.356 . S
C905 C904 1.363 . S
C905 C911 1.363 . S
C906 C907 1.363 . S
C906 C911 1.379 . S
C906 N913 1.356 . S
C907 C906 1.363 . S
C907 C910 1.363 . S
N908 C910 1.356 . S
N908 H920 0.984 . S
N908 H921 0.985 . S
N909 C911 1.356 . S
N909 H914 0.984 . S
N909 H915 0.985 . S
C910 C904 1.379 . S
C910 C907 1.363 . S
C910 N908 1.356 . S
C911 C905 1.363 . S
C911 C906 1.379 . S
C911 N909 1.356 . S
N912 C904 1.356 . S
N912 H918 0.984 . S
N912 H919 0.984 . S
N913 C906 1.356 . S
N913 H916 0.984 . S
N913 H917 0.985 . S
H914 N909 0.984 . S
H915 N909 0.985 . S
H916 N913 0.984 . S
H917 N913 0.985 . S
H918 N912 0.984 . S
H919 N912 0.984 . S
H920 N908 0.984 . S
H921 N908 0.985 . S
C922 C923 1.363 . S
C922 C928 1.379 . S
C922 N930 1.356 . S
C923 C922 1.363 . S
C923 C929 1.363 . S
C924 C925 1.363 . S
C924 C929 1.379 . S
C924 N931 1.356 1_565 S
C925 C924 1.363 . S
C925 C928 1.363 . S
N926 C928 1.356 . S
N926 H938 0.984 . S
N926 H939 0.985 . S
N927 C929 1.359 . S
N927 H932 0.988 . S
N927 H933 0.978 1_565 S
C928 C922 1.379 . S
C928 C925 1.363 . S
C928 N926 1.356 . S
C929 C923 1.363 . S
C929 C924 1.379 . S
C929 N927 1.359 . S
N930 C922 1.356 . S
N930 H936 0.984 . S
N930 H937 0.984 . S
N931 C924 1.356 1_545 S
N931 H934 0.984 . S
N931 H935 0.985 . S
H932 N927 0.988 . S
H933 N927 0.978 1_545 S
H934 N931 0.984 . S
H935 N931 0.985 . S
H936 N930 0.984 . S
H937 N930 0.984 . S
H938 N926 0.984 . S
H939 N926 0.985 . S
C940 C941 1.353 1_556 S
C940 C946 1.415 . S
C940 N948 1.324 1_556 S
C941 C940 1.353 1_554 S
C941 C947 1.363 1_554 S
C942 C943 1.363 . S
C942 C947 1.379 . S
C942 N949 1.356 . S
C943 C942 1.363 . S
C943 C946 1.363 . S
N944 C946 1.356 . S
N944 H956 0.984 . S
N944 H957 0.985 . S
N945 C947 1.356 1_554 S
N945 H950 0.984 . S
N945 H951 0.985 1_554 S
C946 C940 1.415 . S
C946 C943 1.363 . S
C946 N944 1.356 . S
C947 C941 1.363 1_556 S
C947 C942 1.379 . S
C947 N945 1.356 1_556 S
N948 C940 1.324 1_554 S
N948 H954 0.984 . S
N948 H955 0.984 . S
N949 C942 1.356 . S
N949 H952 0.984 . S
N949 H953 0.985 . S
H950 N945 0.984 . S
H951 N945 0.985 1_556 S
H952 N949 0.984 . S
H953 N949 0.985 . S
H954 N948 0.984 . S
H955 N948 0.984 . S
H956 N944 0.984 . S
H957 N944 0.985 . S
C958 C959 1.363 . S
C958 C964 1.379 . S
C958 N966 1.356 . S
C959 C958 1.363 . S
C959 C965 1.363 . S
C960 C961 1.363 . S
C960 C965 1.379 . S
C960 N967 1.356 . S
C961 C960 1.363 . S
C961 C964 1.363 . S
N962 C964 1.356 1_565 S
N962 H974 0.984 . S
N962 H975 0.985 . S
N963 C965 1.356 . S
N963 H968 0.984 . S
N963 H969 0.985 . S
C964 C958 1.379 . S
C964 C961 1.363 . S
C964 N962 1.356 1_545 S
C965 C959 1.363 . S
C965 C960 1.379 . S
C965 N963 1.356 . S
N966 C958 1.356 . S
N966 H972 0.984 1_545 S
N966 H973 0.984 . S
N967 C960 1.356 . S
N967 H970 0.984 . S
N967 H971 0.985 . S
H968 N963 0.984 . S
H969 N963 0.985 . S
H970 N967 0.984 . S
H971 N967 0.985 . S
H972 N966 0.984 1_565 S
H973 N966 0.984 . S
H974 N962 0.984 . S
H975 N962 0.985 . S
C976 C977 1.363 . S
C976 C982 1.379 . S
C976 N984 1.356 . S
C977 C976 1.363 . S
C977 C983 1.363 . S
C978 C979 1.363 . S
C978 C983 1.379 . S
C978 N985 1.356 . S
C979 C978 1.363 . S
C979 C982 1.363 . S
N980 C982 1.356 . S
N980 H992 0.984 . S
N980 H993 0.985 . S
N981 C983 1.356 . S
N981 H986 0.984 . S
N981 H987 0.985 . S
C982 C976 1.379 . S
C982 C979 1.363 . S
C982 N980 1.356 . S
C983 C977 1.363 . S
C983 C978 1.379 . S
C983 N981 1.356 . S
N984 C976 1.356 . S
N984 H990 0.984 . S
N984 H991 0.984 . S
N985 C978 1.356 . S
N985 H988 0.984 . S
N985 H989 0.985 . S
H986 N981 0.984 . S
H987 N981 0.985 . S
H988 N985 0.984 . S
H989 N985 0.985 . S
H990 N984 0.984 . S
H991 N984 0.984 . S
H992 N980 0.984 . S
H993 N980 0.985 . S
C994 C995 1.363 . S
C994 C1000 1.379 . S
C994 N1002 1.356 . S
C995 C994 1.363 . S
C995 C1001 1.363 . S
C996 C997 1.363 . S
C996 C1001 1.379 . S
C996 N1003 1.356 . S
C997 C996 1.363 . S
C997 C1000 1.363 . S
N998 C1000 1.356 . S
N998 H1010 0.984 . S
N998 H1011 0.985 . S
N999 C1001 1.356 . S
N999 H1004 0.984 . S
N999 H1005 0.985 . S
C1000 C994 1.379 . S
C1000 C997 1.363 . S
C1000 N998 1.356 . S
C1001 C995 1.363 . S
C1001 C996 1.379 . S
C1001 N999 1.356 . S
N1002 C994 1.356 . S
N1002 H1008 0.984 . S
N1002 H1009 0.984 . S
N1003 C996 1.356 . S
N1003 H1006 0.984 . S
N1003 H1007 0.985 . S
H1004 N999 0.984 . S
H1005 N999 0.985 . S
H1006 N1003 0.984 . S
H1007 N1003 0.985 . S
H1008 N1002 0.984 . S
H1009 N1002 0.984 . S
H1010 N998 0.984 . S
H1011 N998 0.985 . S
C1012 C1013 1.363 . S
C1012 C1018 1.379 1_655 S
C1012 N1020 1.356 . S
C1013 C1012 1.363 . S
C1013 C1019 1.363 . S
C1014 C1015 1.363 . S
C1014 C1019 1.379 1_455 S
C1014 N1021 1.356 . S
C1015 C1014 1.363 . S
C1015 C1018 1.363 . S
N1016 C1018 1.356 . S
N1016 H1028 0.984 . S
N1016 H1029 0.985 . S
N1017 C1019 1.356 . S
N1017 H1022 0.984 . S
N1017 H1023 0.985 . S
C1018 C1012 1.379 1_455 S
C1018 C1015 1.363 . S
C1018 N1016 1.356 . S
C1019 C1013 1.363 . S
C1019 C1014 1.379 1_655 S
C1019 N1017 1.356 . S
N1020 C1012 1.356 . S
N1020 H1026 0.984 . S
N1020 H1027 0.984 . S
N1021 C1014 1.356 . S
N1021 H1024 0.984 . S
N1021 H1025 0.985 . S
H1022 N1017 0.984 . S
H1023 N1017 0.985 . S
H1024 N1021 0.984 . S
H1025 N1021 0.985 . S
H1026 N1020 0.984 . S
H1027 N1020 0.984 . S
H1028 N1016 0.984 . S
H1029 N1016 0.985 . S
C1030 C1031 1.363 . S
C1030 C1036 1.379 . S
C1030 N1038 1.356 . S
C1031 C1030 1.363 . S
C1031 C1037 1.363 1_655 S
C1032 C1033 1.363 . S
C1032 C1037 1.379 . S
C1032 N1039 1.356 . S
C1033 C1032 1.363 . S
C1033 C1036 1.363 1_455 S
N1034 C1036 1.356 . S
N1034 H1046 0.984 . S
N1034 H1047 0.986 1_655 S
N1035 C1037 1.356 . S
N1035 H1040 0.986 1_455 S
N1035 H1041 0.985 . S
C1036 C1030 1.379 . S
C1036 C1033 1.363 1_655 S
C1036 N1034 1.356 . S
C1037 C1031 1.363 1_455 S
C1037 C1032 1.379 . S
C1037 N1035 1.356 . S
N1038 C1030 1.356 . S
N1038 H1044 0.984 . S
N1038 H1045 0.984 . S
N1039 C1032 1.356 . S
N1039 H1042 0.984 . S
N1039 H1043 0.985 . S
H1040 N1035 0.986 1_655 S
H1041 N1035 0.985 . S
H1042 N1039 0.984 . S
H1043 N1039 0.985 . S
H1044 N1038 0.984 . S
H1045 N1038 0.984 . S
H1046 N1034 0.984 . S
H1047 N1034 0.986 1_455 S
C1048 C1049 1.363 . S
C1048 C1054 1.379 . S
C1048 N1056 1.356 . S
C1049 C1048 1.363 . S
C1049 C1055 1.363 . S
C1050 C1051 1.363 . S
C1050 C1055 1.379 . S
C1050 N1057 1.356 . S
C1051 C1050 1.363 . S
C1051 C1054 1.363 . S
N1052 C1054 1.356 . S
N1052 H1064 0.984 . S
N1052 H1065 0.985 . S
N1053 C1055 1.356 . S
N1053 H1058 0.984 . S
N1053 H1059 0.985 . S
C1054 C1048 1.379 . S
C1054 C1051 1.363 . S
C1054 N1052 1.356 . S
C1055 C1049 1.363 . S
C1055 C1050 1.379 . S
C1055 N1053 1.356 . S
N1056 C1048 1.356 . S
N1056 H1062 0.984 . S
N1056 H1063 0.984 . S
N1057 C1050 1.356 . S
N1057 H1060 0.984 . S
N1057 H1061 0.985 . S
H1058 N1053 0.984 . S
H1059 N1053 0.985 . S
H1060 N1057 0.984 . S
H1061 N1057 0.985 . S
H1062 N1056 0.984 . S
H1063 N1056 0.984 . S
H1064 N1052 0.984 . S
H1065 N1052 0.985 . S
C1066 C1067 1.363 . S
C1066 C1072 1.379 . S
C1066 N1074 1.356 . S
C1067 C1066 1.363 . S
C1067 C1073 1.363 . S
C1068 C1069 1.363 . S
C1068 C1073 1.379 . S
C1068 N1075 1.356 . S
C1069 C1068 1.363 . S
C1069 C1072 1.363 . S
N1070 C1072 1.356 . S
N1070 H1082 0.984 . S
N1070 H1083 0.985 . S
N1071 C1073 1.356 . S
N1071 H1076 0.984 . S
N1071 H1077 0.985 . S
C1072 C1066 1.379 . S
C1072 C1069 1.363 . S
C1072 N1070 1.356 . S
C1073 C1067 1.363 . S
C1073 C1068 1.379 . S
C1073 N1071 1.356 . S
N1074 C1066 1.356 . S
N1074 H1080 0.984 . S
N1074 H1081 0.984 . S
N1075 C1068 1.356 . S
N1075 H1078 0.984 . S
N1075 H1079 0.985 . S
H1076 N1071 0.984 . S
H1077 N1071 0.985 . S
H1078 N1075 0.984 . S
H1079 N1075 0.985 . S
H1080 N1074 0.984 . S
H1081 N1074 0.984 . S
H1082 N1070 0.984 . S
H1083 N1070 0.985 . S
C1084 C1085 1.363 . S
C1084 C1090 1.379 1_455 S
C1084 N1092 1.356 . S
C1085 C1084 1.363 . S
C1085 C1091 1.363 . S
C1086 C1087 1.363 . S
C1086 C1091 1.379 1_655 S
C1086 N1093 1.356 . S
C1087 C1086 1.363 . S
C1087 C1090 1.363 . S
N1088 C1090 1.356 . S
N1088 H1100 0.984 . S
N1088 H1101 0.985 . S
N1089 C1091 1.356 . S
N1089 H1094 0.984 . S
N1089 H1095 0.985 . S
C1090 C1084 1.379 1_655 S
C1090 C1087 1.363 . S
C1090 N1088 1.356 . S
C1091 C1085 1.363 . S
C1091 C1086 1.379 1_455 S
C1091 N1089 1.356 . S
N1092 C1084 1.356 . S
N1092 H1098 0.984 . S
N1092 H1099 0.984 . S
N1093 C1086 1.356 . S
N1093 H1096 0.984 . S
N1093 H1097 0.985 . S
H1094 N1089 0.984 . S
H1095 N1089 0.985 . S
H1096 N1093 0.984 . S
H1097 N1093 0.985 . S
H1098 N1092 0.984 . S
H1099 N1092 0.984 . S
H1100 N1088 0.984 . S
H1101 N1088 0.985 . S
C1102 C1103 1.363 1_655 S
C1102 C1108 1.379 . S
C1102 N1110 1.356 . S
C1103 C1102 1.363 1_455 S
C1103 C1109 1.363 . S
C1104 C1105 1.363 1_455 S
C1104 C1109 1.379 . S
C1104 N1111 1.356 . S
C1105 C1104 1.363 1_655 S
C1105 C1108 1.363 . S
N1106 C1108 1.356 . S
N1106 H1118 0.984 . S
N1106 H1119 0.985 . S
N1107 C1109 1.356 . S
N1107 H1112 0.984 . S
N1107 H1113 0.985 . S
C1108 C1102 1.379 . S
C1108 C1105 1.363 . S
C1108 N1106 1.356 . S
C1109 C1103 1.363 . S
C1109 C1104 1.379 . S
C1109 N1107 1.356 . S
N1110 C1102 1.356 . S
N1110 H1116 0.984 . S
N1110 H1117 0.986 1_655 S
N1111 C1104 1.356 . S
N1111 H1114 0.986 1_455 S
N1111 H1115 0.985 . S
H1112 N1107 0.984 . S
H1113 N1107 0.985 . S
H1114 N1111 0.986 1_655 S
H1115 N1111 0.985 . S
H1116 N1110 0.984 . S
H1117 N1110 0.986 1_455 S
H1118 N1106 0.984 . S
H1119 N1106 0.985 . S
C1120 C1121 1.363 . S
C1120 C1126 1.379 . S
C1120 N1128 1.356 . S
C1121 C1120 1.363 . S
C1121 C1127 1.363 . S
C1122 C1123 1.363 . S
C1122 C1127 1.379 . S
C1122 N1129 1.356 . S
C1123 C1122 1.363 . S
C1123 C1126 1.363 . S
N1124 C1126 1.356 . S
N1124 H1136 0.984 . S
N1124 H1137 0.985 . S
N1125 C1127 1.356 . S
N1125 H1130 0.984 . S
N1125 H1131 0.985 . S
C1126 C1120 1.379 . S
C1126 C1123 1.363 . S
C1126 N1124 1.356 . S
C1127 C1121 1.363 . S
C1127 C1122 1.379 . S
C1127 N1125 1.356 . S
N1128 C1120 1.356 . S
N1128 H1134 0.984 . S
N1128 H1135 0.984 . S
N1129 C1122 1.356 . S
N1129 H1132 0.984 . S
N1129 H1133 0.985 . S
H1130 N1125 0.984 . S
H1131 N1125 0.985 . S
H1132 N1129 0.984 . S
H1133 N1129 0.985 . S
H1134 N1128 0.984 . S
H1135 N1128 0.984 . S
H1136 N1124 0.984 . S
H1137 N1124 0.985 . S
C1138 C1139 1.363 . S
C1138 C1144 1.379 . S
C1138 N1146 1.356 . S
C1139 C1138 1.363 . S
C1139 C1145 1.363 . S
C1140 C1141 1.363 . S
C1140 C1145 1.379 . S
C1140 N1147 1.356 . S
C1141 C1140 1.363 . S
C1141 C1144 1.363 . S
N1142 C1144 1.356 . S
N1142 H1154 0.984 . S
N1142 H1155 0.985 . S
N1143 C1145 1.356 . S
N1143 H1148 0.984 . S
N1143 H1149 0.985 . S
C1144 C1138 1.379 . S
C1144 C1141 1.363 . S
C1144 N1142 1.356 . S
C1145 C1139 1.363 . S
C1145 C1140 1.379 . S
C1145 N1143 1.356 . S
N1146 C1138 1.356 . S
N1146 H1152 0.984 . S
N1146 H1153 0.984 . S
N1147 C1140 1.356 . S
N1147 H1150 0.984 . S
N1147 H1151 0.985 . S
H1148 N1143 0.984 . S
H1149 N1143 0.985 . S
H1150 N1147 0.984 . S
H1151 N1147 0.985 . S
H1152 N1146 0.984 . S
H1153 N1146 0.984 . S
H1154 N1142 0.984 . S
H1155 N1142 0.985 . S
C1156 C1157 1.363 . S
C1156 C1162 1.379 . S
C1156 N1164 1.356 . S
C1157 C1156 1.363 . S
C1157 C1163 1.363 . S
C1158 C1159 1.363 . S
C1158 C1163 1.379 . S
C1158 N1165 1.356 . S
C1159 C1158 1.363 . S
C1159 C1162 1.363 . S
N1160 C1162 1.356 . S
N1160 H1172 0.984 . S
N1160 H1173 0.985 . S
N1161 C1163 1.356 . S
N1161 H1166 0.984 . S
N1161 H1167 0.985 . S
C1162 C1156 1.379 . S
C1162 C1159 1.363 . S
C1162 N1160 1.356 . S
C1163 C1157 1.363 . S
C1163 C1158 1.379 . S
C1163 N1161 1.356 . S
N1164 C1156 1.356 . S
N1164 H1170 0.984 . S
N1164 H1171 0.984 . S
N1165 C1158 1.356 . S
N1165 H1168 0.984 . S
N1165 H1169 0.985 . S
H1166 N1161 0.984 . S
H1167 N1161 0.985 . S
H1168 N1165 0.984 . S
H1169 N1165 0.985 . S
H1170 N1164 0.984 . S
H1171 N1164 0.984 . S
H1172 N1160 0.984 . S
H1173 N1160 0.985 . S
C1174 C1175 1.363 . S
C1174 C1180 1.379 . S
C1174 N1182 1.356 . S
C1175 C1174 1.363 . S
C1175 C1181 1.363 . S
C1176 C1177 1.363 . S
C1176 C1181 1.379 . S
C1176 N1183 1.356 . S
C1177 C1176 1.363 . S
C1177 C1180 1.363 . S
N1178 C1180 1.356 . S
N1178 H1190 0.984 . S
N1178 H1191 0.985 . S
N1179 C1181 1.356 . S
N1179 H1184 0.984 . S
N1179 H1185 0.985 . S
C1180 C1174 1.379 . S
C1180 C1177 1.363 . S
C1180 N1178 1.356 . S
C1181 C1175 1.363 . S
C1181 C1176 1.379 . S
C1181 N1179 1.356 . S
N1182 C1174 1.356 . S
N1182 H1188 0.984 . S
N1182 H1189 0.984 . S
N1183 C1176 1.356 . S
N1183 H1186 0.984 . S
N1183 H1187 0.985 . S
H1184 N1179 0.984 . S
H1185 N1179 0.985 . S
H1186 N1183 0.984 . S
H1187 N1183 0.985 . S
H1188 N1182 0.984 . S
H1189 N1182 0.984 . S
H1190 N1178 0.984 . S
H1191 N1178 0.985 . S
C1192 C1193 1.363 . S
C1192 C1198 1.379 . S
C1192 N1200 1.356 . S
C1193 C1192 1.363 . S
C1193 C1199 1.363 . S
C1194 C1195 1.363 . S
C1194 C1199 1.379 . S
C1194 N1201 1.356 . S
C1195 C1194 1.363 . S
C1195 C1198 1.363 . S
N1196 C1198 1.356 . S
N1196 H1208 0.984 . S
N1196 H1209 0.985 . S
N1197 C1199 1.356 . S
N1197 H1202 0.984 . S
N1197 H1203 0.985 . S
C1198 C1192 1.379 . S
C1198 C1195 1.363 . S
C1198 N1196 1.356 . S
C1199 C1193 1.363 . S
C1199 C1194 1.379 . S
C1199 N1197 1.356 . S
N1200 C1192 1.356 . S
N1200 H1206 0.984 . S
N1200 H1207 0.984 . S
N1201 C1194 1.356 . S
N1201 H1204 0.984 . S
N1201 H1205 0.985 . S
H1202 N1197 0.984 . S
H1203 N1197 0.985 . S
H1204 N1201 0.984 . S
H1205 N1201 0.985 . S
H1206 N1200 0.984 . S
H1207 N1200 0.984 . S
H1208 N1196 0.984 . S
H1209 N1196 0.985 . S
C1210 C1211 1.363 . S
C1210 C1216 1.379 . S
C1210 N1218 1.356 . S
C1211 C1210 1.363 . S
C1211 C1217 1.363 . S
C1212 C1213 1.363 . S
C1212 C1217 1.379 . S
C1212 N1219 1.356 . S
C1213 C1212 1.363 . S
C1213 C1216 1.363 . S
N1214 C1216 1.356 . S
N1214 H1226 0.984 . S
N1214 H1227 0.985 . S
N1215 C1217 1.356 . S
N1215 H1220 0.984 . S
N1215 H1221 0.985 . S
C1216 C1210 1.379 . S
C1216 C1213 1.363 . S
C1216 N1214 1.356 . S
C1217 C1211 1.363 . S
C1217 C1212 1.379 . S
C1217 N1215 1.356 . S
N1218 C1210 1.356 . S
N1218 H1224 0.984 . S
N1218 H1225 0.984 . S
N1219 C1212 1.356 . S
N1219 H1222 0.984 . S
N1219 H1223 0.985 . S
H1220 N1215 0.984 . S
H1221 N1215 0.985 . S
H1222 N1219 0.984 . S
H1223 N1219 0.985 . S
H1224 N1218 0.984 . S
H1225 N1218 0.984 . S
H1226 N1214 0.984 . S
H1227 N1214 0.985 . S
C1228 C1229 1.363 . S
C1228 C1234 1.379 . S
C1228 N1236 1.356 . S
C1229 C1228 1.363 . S
C1229 C1235 1.363 . S
C1230 C1231 1.363 . S
C1230 C1235 1.379 . S
C1230 N1237 1.356 . S
C1231 C1230 1.363 . S
C1231 C1234 1.363 . S
N1232 C1234 1.356 . S
N1232 H1244 0.984 . S
N1232 H1245 0.985 . S
N1233 C1235 1.356 . S
N1233 H1238 0.984 . S
N1233 H1239 0.985 . S
C1234 C1228 1.379 . S
C1234 C1231 1.363 . S
C1234 N1232 1.356 . S
C1235 C1229 1.363 . S
C1235 C1230 1.379 . S
C1235 N1233 1.356 . S
N1236 C1228 1.356 . S
N1236 H1242 0.984 . S
N1236 H1243 0.984 . S
N1237 C1230 1.356 . S
N1237 H1240 0.984 . S
N1237 H1241 0.985 . S
H1238 N1233 0.984 . S
H1239 N1233 0.985 . S
H1240 N1237 0.984 . S
H1241 N1237 0.985 . S
H1242 N1236 0.984 . S
H1243 N1236 0.984 . S
H1244 N1232 0.984 . S
H1245 N1232 0.985 . S
C1246 C1247 1.363 . S
C1246 C1252 1.379 . S
C1246 N1254 1.356 . S
C1247 C1246 1.363 . S
C1247 C1253 1.363 . S
C1248 C1249 1.363 . S
C1248 C1253 1.379 . S
C1248 N1255 1.356 . S
C1249 C1248 1.363 . S
C1249 C1252 1.363 . S
N1250 C1252 1.356 . S
N1250 H1262 0.984 . S
N1250 H1263 0.985 . S
N1251 C1253 1.356 . S
N1251 H1256 0.984 . S
N1251 H1257 0.985 . S
C1252 C1246 1.379 . S
C1252 C1249 1.363 . S
C1252 N1250 1.356 . S
C1253 C1247 1.363 . S
C1253 C1248 1.379 . S
C1253 N1251 1.356 . S
N1254 C1246 1.356 . S
N1254 H1260 0.984 . S
N1254 H1261 0.984 . S
N1255 C1248 1.356 . S
N1255 H1258 0.984 . S
N1255 H1259 0.985 . S
H1256 N1251 0.984 . S
H1257 N1251 0.985 . S
H1258 N1255 0.984 . S
H1259 N1255 0.985 . S
H1260 N1254 0.984 . S
H1261 N1254 0.984 . S
H1262 N1250 0.984 . S
H1263 N1250 0.985 . S
C1264 C1265 1.363 . S
C1264 C1270 1.379 . S
C1264 N1272 1.356 . S
C1265 C1264 1.363 . S
C1265 C1271 1.363 . S
C1266 C1267 1.363 . S
C1266 C1271 1.379 . S
C1266 N1273 1.356 . S
C1267 C1266 1.363 . S
C1267 C1270 1.363 . S
N1268 C1270 1.356 . S
N1268 H1280 0.984 1_565 S
N1268 H1281 0.985 1_565 S
N1269 C1271 1.356 . S
N1269 H1274 0.984 . S
N1269 H1275 0.985 . S
C1270 C1264 1.379 . S
C1270 C1267 1.363 . S
C1270 N1268 1.356 . S
C1271 C1265 1.363 . S
C1271 C1266 1.379 . S
C1271 N1269 1.356 . S
N1272 C1264 1.356 . S
N1272 H1278 0.984 . S
N1272 H1279 0.984 . S
N1273 C1266 1.356 . S
N1273 H1276 0.984 . S
N1273 H1277 0.985 . S
H1274 N1269 0.984 . S
H1275 N1269 0.985 . S
H1276 N1273 0.984 . S
H1277 N1273 0.985 . S
H1278 N1272 0.984 . S
H1279 N1272 0.984 . S
H1280 N1268 0.984 1_545 S
H1281 N1268 0.985 1_545 S
C1282 C1283 1.363 . S
C1282 C1288 1.379 . S
C1282 N1290 1.356 . S
C1283 C1282 1.363 . S
C1283 C1289 1.363 . S
C1284 C1285 1.363 . S
C1284 C1289 1.379 . S
C1284 N1291 1.356 . S
C1285 C1284 1.363 . S
C1285 C1288 1.363 . S
N1286 C1288 1.356 1_545 S
N1286 H1298 0.984 . S
N1286 H1299 0.985 . S
N1287 C1289 1.356 . S
N1287 H1292 0.984 . S
N1287 H1293 0.985 . S
C1288 C1282 1.379 . S
C1288 C1285 1.363 . S
C1288 N1286 1.356 1_565 S
C1289 C1283 1.363 . S
C1289 C1284 1.379 . S
C1289 N1287 1.356 . S
N1290 C1282 1.356 . S
N1290 H1296 0.984 . S
N1290 H1297 0.984 . S
N1291 C1284 1.356 . S
N1291 H1294 0.984 . S
N1291 H1295 0.985 . S
H1292 N1287 0.984 . S
H1293 N1287 0.985 . S
H1294 N1291 0.984 . S
H1295 N1291 0.985 . S
H1296 N1290 0.984 . S
H1297 N1290 0.984 . S
H1298 N1286 0.984 . S
H1299 N1286 0.985 . S
C1300 C1301 1.363 . S
C1300 C1306 1.379 . S
C1300 N1308 1.356 . S
C1301 C1300 1.363 . S
C1301 C1307 1.363 . S
C1302 C1303 1.363 . S
C1302 C1307 1.379 . S
C1302 N1309 1.356 . S
C1303 C1302 1.363 . S
C1303 C1306 1.363 . S
N1304 C1306 1.356 . S
N1304 H1316 0.984 . S
N1304 H1317 0.985 . S
N1305 C1307 1.356 . S
N1305 H1310 0.984 . S
N1305 H1311 0.985 . S
C1306 C1300 1.379 . S
C1306 C1303 1.363 . S
C1306 N1304 1.356 . S
C1307 C1301 1.363 . S
C1307 C1302 1.379 . S
C1307 N1305 1.356 . S
N1308 C1300 1.356 . S
N1308 H1314 0.984 . S
N1308 H1315 0.984 . S
N1309 C1302 1.356 . S
N1309 H1312 0.984 . S
N1309 H1313 0.985 . S
H1310 N1305 0.984 . S
H1311 N1305 0.985 . S
H1312 N1309 0.984 . S
H1313 N1309 0.985 . S
H1314 N1308 0.984 . S
H1315 N1308 0.984 . S
H1316 N1304 0.984 . S
H1317 N1304 0.985 . S
C1318 C1319 1.363 . S
C1318 C1324 1.379 . S
C1318 N1326 1.356 . S
C1319 C1318 1.363 . S
C1319 C1325 1.363 . S
C1320 C1321 1.363 . S
C1320 C1325 1.379 . S
C1320 N1327 1.356 . S
C1321 C1320 1.363 . S
C1321 C1324 1.363 . S
N1322 C1324 1.356 . S
N1322 H1334 0.984 . S
N1322 H1335 0.985 . S
N1323 C1325 1.356 . S
N1323 H1328 0.984 . S
N1323 H1329 0.985 . S
C1324 C1318 1.379 . S
C1324 C1321 1.363 . S
C1324 N1322 1.356 . S
C1325 C1319 1.363 . S
C1325 C1320 1.379 . S
C1325 N1323 1.356 . S
N1326 C1318 1.356 . S
N1326 H1332 0.984 . S
N1326 H1333 0.984 . S
N1327 C1320 1.356 . S
N1327 H1330 0.984 . S
N1327 H1331 0.985 . S
H1328 N1323 0.984 . S
H1329 N1323 0.985 . S
H1330 N1327 0.984 . S
H1331 N1327 0.985 . S
H1332 N1326 0.984 . S
H1333 N1326 0.984 . S
H1334 N1322 0.984 . S
H1335 N1322 0.985 . S
C1336 C1337 1.363 . S
C1336 C1342 1.379 . S
C1336 N1344 1.356 . S
C1337 C1336 1.363 . S
C1337 C1343 1.363 . S
C1338 C1339 1.363 . S
C1338 C1343 1.379 . S
C1338 N1345 1.356 . S
C1339 C1338 1.363 . S
C1339 C1342 1.363 . S
N1340 C1342 1.356 . S
N1340 H1352 0.984 . S
N1340 H1353 0.985 . S
N1341 C1343 1.356 . S
N1341 H1346 0.984 . S
N1341 H1347 0.985 . S
C1342 C1336 1.379 . S
C1342 C1339 1.363 . S
C1342 N1340 1.356 . S
C1343 C1337 1.363 . S
C1343 C1338 1.379 . S
C1343 N1341 1.356 . S
N1344 C1336 1.356 . S
N1344 H1350 0.984 . S
N1344 H1351 0.984 . S
N1345 C1338 1.356 . S
N1345 H1348 0.984 . S
N1345 H1349 0.985 . S
H1346 N1341 0.984 . S
H1347 N1341 0.985 . S
H1348 N1345 0.984 . S
H1349 N1345 0.985 . S
H1350 N1344 0.984 . S
H1351 N1344 0.984 . S
H1352 N1340 0.984 . S
H1353 N1340 0.985 . S
C1354 C1355 1.363 . S
C1354 C1360 1.379 . S
C1354 N1362 1.356 1_545 S
C1355 C1354 1.363 . S
C1355 C1361 1.363 . S
C1356 C1357 1.363 . S
C1356 C1361 1.379 . S
C1356 N1363 1.356 . S
C1357 C1356 1.363 . S
C1357 C1360 1.363 . S
N1358 C1360 1.356 . S
N1358 H1370 0.984 . S
N1358 H1371 0.985 . S
N1359 C1361 1.356 . S
N1359 H1364 0.984 . S
N1359 H1365 0.985 . S
C1360 C1354 1.379 . S
C1360 C1357 1.363 . S
C1360 N1358 1.356 . S
C1361 C1355 1.363 . S
C1361 C1356 1.379 . S
C1361 N1359 1.356 . S
N1362 C1354 1.356 1_565 S
N1362 H1368 0.984 . S
N1362 H1369 0.984 . S
N1363 C1356 1.356 . S
N1363 H1366 0.984 . S
N1363 H1367 0.985 . S
H1364 N1359 0.984 . S
H1365 N1359 0.985 . S
H1366 N1363 0.984 . S
H1367 N1363 0.985 . S
H1368 N1362 0.984 . S
H1369 N1362 0.984 . S
H1370 N1358 0.984 . S
H1371 N1358 0.985 . S
C1372 C1373 1.363 . S
C1372 C1378 1.379 . S
C1372 N1380 1.356 . S
C1373 C1372 1.363 . S
C1373 C1379 1.363 . S
C1374 C1375 1.363 . S
C1374 C1379 1.379 . S
C1374 N1381 1.356 . S
C1375 C1374 1.363 . S
C1375 C1378 1.363 . S
N1376 C1378 1.356 . S
N1376 H1388 0.984 . S
N1376 H1389 0.985 . S
N1377 C1379 1.356 1_545 S
N1377 H1382 0.984 . S
N1377 H1383 0.985 . S
C1378 C1372 1.379 . S
C1378 C1375 1.363 . S
C1378 N1376 1.356 . S
C1379 C1373 1.363 . S
C1379 C1374 1.379 . S
C1379 N1377 1.356 1_565 S
N1380 C1372 1.356 . S
N1380 H1386 0.984 . S
N1380 H1387 0.984 . S
N1381 C1374 1.356 . S
N1381 H1384 0.984 . S
N1381 H1385 0.985 . S
H1382 N1377 0.984 . S
H1383 N1377 0.985 . S
H1384 N1381 0.984 . S
H1385 N1381 0.985 . S
H1386 N1380 0.984 . S
H1387 N1380 0.984 . S
H1388 N1376 0.984 . S
H1389 N1376 0.985 . S
C1390 C1391 1.363 . S
C1390 C1396 1.379 . S
C1390 N1398 1.356 . S
C1391 C1390 1.363 . S
C1391 C1397 1.363 . S
C1392 C1393 1.363 . S
C1392 C1397 1.379 . S
C1392 N1399 1.356 . S
C1393 C1392 1.363 . S
C1393 C1396 1.363 . S
N1394 C1396 1.356 . S
N1394 H1406 0.984 . S
N1394 H1407 0.985 . S
N1395 C1397 1.356 . S
N1395 H1400 0.984 . S
N1395 H1401 0.985 . S
C1396 C1390 1.379 . S
C1396 C1393 1.363 . S
C1396 N1394 1.356 . S
C1397 C1391 1.363 . S
C1397 C1392 1.379 . S
C1397 N1395 1.356 . S
N1398 C1390 1.356 . S
N1398 H1404 0.984 . S
N1398 H1405 0.984 . S
N1399 C1392 1.356 . S
N1399 H1402 0.984 . S
N1399 H1403 0.985 . S
H1400 N1395 0.984 . S
H1401 N1395 0.985 . S
H1402 N1399 0.984 . S
H1403 N1399 0.985 . S
H1404 N1398 0.984 . S
H1405 N1398 0.984 . S
H1406 N1394 0.984 . S
H1407 N1394 0.985 . S
C545 C29 1.761 . S
C547 C408 1.761 . S
C563 C170 1.762 . S
C565 C63 1.762 . S
C581 C97 1.762 . S
C583 C476 1.762 . S
C599 C131 1.761 . S
C601 C238 1.761 . S
C617 C136 1.761 . S
C619 C301 1.761 . S
C635 C369 1.762 . S
C637 C204 1.762 . S
C653 C442 1.761 . S
C655 C335 1.761 . S
C671 C403 1.762 . S
C673 C510 1.762 . S
C689 C319 1.754 . S
C691 C0 1.837 . S
C707 C34 1.837 . S
C709 C353 1.754 . S
C725 C68 1.837 . S
C727 C387 1.754 . S
C743 C285 1.754 . S
C745 C102 1.837 . S
C761 C446 1.754 . S
C763 C165 1.837 . S
C779 C480 1.754 . S
C781 C199 1.837 . S
C797 C233 1.837 . S
C799 C514 1.754 . S
C815 C412 1.754 . S
C817 C267 1.837 . S
C833 C272 1.837 . S
C835 C47 1.754 . S
C851 C306 1.837 . S
C853 C81 1.754 . S
C869 C340 1.837 . S
C871 C115 1.754 . S
C887 C13 1.754 . S
C889 C374 1.837 . S
C905 C174 1.754 . S
C907 C437 1.837 . S
C923 C471 1.837 . S
C925 C208 1.754 . S
C941 C242 1.754 . S
C943 C505 1.837 . S
C959 C539 1.837 . S
C961 C140 1.754 . S
C977 C17 1.814 . S
C979 C357 1.814 . S
C995 C51 1.814 . S
C997 C391 1.814 . S
C1013 C289 1.814 . S
C1015 C85 1.814 . S
C1031 C119 1.814 . S
C1033 C323 1.814 . S
C1049 C144 1.814 . S
C1051 C484 1.814 . S
C1067 C178 1.814 . S
C1069 C518 1.814 . S
C1085 C416 1.814 . S
C1087 C212 1.814 . S
C1103 C246 1.814 . S
C1105 C450 1.814 . S
C1121 C4 1.276 . S
C1123 C255 1.373 . S
C1139 C425 1.373 . S
C1141 C38 1.276 . S
C1157 C72 1.276 . S
C1159 C187 1.373 . S
C1175 C106 1.276 . S
C1177 C493 1.373 . S
C1193 C149 1.276 . S
C1195 C110 1.373 . S
C1211 C280 1.373 . S
C1213 C183 1.276 . S
C1229 C217 1.276 . S
C1231 C42 1.373 . S
C1247 C348 1.373 . S
C1249 C251 1.276 . S
C1265 C276 1.276 . S
C1267 C527 1.373 . S
C1283 C153 1.373 . S
C1285 C310 1.276 . S
C1301 C459 1.373 . S
C1303 C344 1.276 . S
C1319 C378 1.276 . S
C1321 C221 1.373 . S
C1337 C421 1.276 . S
C1339 C382 1.373 . S
C1355 C455 1.276 . S
C1357 C8 1.373 . S
C1373 C314 1.373 . S
C1375 C489 1.276 . S
C1391 C76 1.373 . S
C1393 C523 1.276 . S
