# Generated by pormake.
# Topology wiv, (6)-cn, num edge types: 1
# Building blocks:
#     Node 0, Type 0, BuildingBlock: MIDCAF_clean_sbu_0, # of connection points: 6
#     Node 1, Type 0, BuildingBlock: MIDCAF_clean_sbu_0, # of connection points: 6
#     Node 2, Type 0, BuildingBlock: MIDCAF_clean_sbu_0, # of connection points: 6
#     Node 3, Type 0, BuildingBlock: MIDCAF_clean_sbu_0, # of connection points: 6
#     Node 4, Type 0, BuildingBlock: MIDCAF_clean_sbu_0, # of connection points: 6
#     Node 5, Type 0, BuildingBlock: MIDCAF_clean_sbu_0, # of connection points: 6
#     Node 6, Type 0, BuildingBlock: MIDCAF_clean_sbu_0, # of connection points: 6
#     Node 7, Type 0, BuildingBlock: MIDCAF_clean_sbu_0, # of connection points: 6
#     Node 8, Type 0, BuildingBlock: MIDCAF_clean_sbu_0, # of connection points: 6
#     Node 9, Type 0, BuildingBlock: MIDCAF_clean_sbu_0, # of connection points: 6
#     Node 10, Type 0, BuildingBlock: MIDCAF_clean_sbu_0, # of connection points: 6
#     Node 11, Type 0, BuildingBlock: MIDCAF_clean_sbu_0, # of connection points: 6
#     Node 12, Type 0, BuildingBlock: MIDCAF_clean_sbu_0, # of connection points: 6
#     Node 13, Type 0, BuildingBlock: MIDCAF_clean_sbu_0, # of connection points: 6
#     Node 14, Type 0, BuildingBlock: MIDCAF_clean_sbu_0, # of connection points: 6
#     Node 15, Type 0, BuildingBlock: MIDCAF_clean_sbu_0, # of connection points: 6
#     Edge 16, Type (0, 0), None
#     Edge 17, Type (0, 0), None
#     Edge 18, Type (0, 0), None
#     Edge 19, Type (0, 0), None
#     Edge 20, Type (0, 0), None
#     Edge 21, Type (0, 0), None
#     Edge 22, Type (0, 0), None
#     Edge 23, Type (0, 0), None
#     Edge 24, Type (0, 0), None
#     Edge 25, Type (0, 0), None
#     Edge 26, Type (0, 0), None
#     Edge 27, Type (0, 0), None
#     Edge 28, Type (0, 0), None
#     Edge 29, Type (0, 0), None
#     Edge 30, Type (0, 0), None
#     Edge 31, Type (0, 0), None
#     Edge 32, Type (0, 0), None
#     Edge 33, Type (0, 0), None
#     Edge 34, Type (0, 0), None
#     Edge 35, Type (0, 0), None
#     Edge 36, Type (0, 0), None
#     Edge 37, Type (0, 0), None
#     Edge 38, Type (0, 0), None
#     Edge 39, Type (0, 0), None
#     Edge 40, Type (0, 0), None
#     Edge 41, Type (0, 0), None
#     Edge 42, Type (0, 0), None
#     Edge 43, Type (0, 0), None
#     Edge 44, Type (0, 0), None
#     Edge 45, Type (0, 0), None
#     Edge 46, Type (0, 0), None
#     Edge 47, Type (0, 0), None
#     Edge 48, Type (0, 0), None
#     Edge 49, Type (0, 0), None
#     Edge 50, Type (0, 0), None
#     Edge 51, Type (0, 0), None
#     Edge 52, Type (0, 0), None
#     Edge 53, Type (0, 0), None
#     Edge 54, Type (0, 0), None
#     Edge 55, Type (0, 0), None
#     Edge 56, Type (0, 0), None
#     Edge 57, Type (0, 0), None
#     Edge 58, Type (0, 0), None
#     Edge 59, Type (0, 0), None
#     Edge 60, Type (0, 0), None
#     Edge 61, Type (0, 0), None
#     Edge 62, Type (0, 0), None
#     Edge 63, Type (0, 0), None
# Relax obj value: 0.192
# Max RMSD: 0.190
# Mean RMSD: 0.190
data_MOF--net-wiv--node1-MIDCAF_clean_sbu_0--edge1-none
_symmetry_space_group_name_H-M    P1
_symmetry_Int_Tables_number       1
_symmetry_cell_setting            triclinic
loop_
_symmetry_equiv_pos_as_xyz
'x, y, z'
_cell_length_a     27.299432
_cell_length_b     27.299354
_cell_length_c     7.5673585
_cell_angle_alpha  89.997728
_cell_angle_beta   90.009151
_cell_angle_gamma 90.000995
loop_
_atom_site_label
_atom_site_type_symbol
_atom_site_fract_x
_atom_site_fract_y
_atom_site_fract_z
_atom_type_partial_charge
Zn0 Zn 0.30371 0.16479 0.20587 0.0
Zn1 Zn 0.43175 0.06894 0.84319 0.0
Zn2 Zn 0.36891 0.12497 0.01765 0.0
C3 C 0.47177 0.10741 0.13491 0.0
C4 C 0.39462 0.01197 0.10894 0.0
O5 O 0.30512 0.11297 0.85154 0.0
O6 O 0.25463 0.16016 0.00312 0.0
C7 C 0.38194 0.23152 0.15706 0.0
O8 O 0.42765 0.09786 0.18243 0.0
O9 O 0.48173 0.11051 -0.02789 0.0
O10 O 0.40956 0.00487 -0.0467 0.0
O11 O 0.38699 0.05623 0.16376 0.0
O12 O 0.34332 0.22586 0.24666 0.0
O13 O 0.39492 0.19852 0.04617 0.0
O14 O 0.37144 0.09415 0.28554 0.0
O15 O 0.30536 0.12287 0.42123 0.0
C16 C 0.34523 0.09943 0.42655 0.0
O17 O 0.34732 0.10365 0.74173 0.0
O18 O 0.41323 0.07884 0.59822 0.0
C19 C 0.26336 0.13396 0.86861 0.0
C20 C 0.36852 0.09017 0.59737 0.0
Zn21 Zn 0.06895 0.57002 0.02769 0.0
Zn22 Zn 0.16479 0.69809 0.66499 0.0
Zn23 Zn 0.12497 0.63287 0.85323 0.0
C24 C 0.09943 0.65654 0.4443 0.0
C25 C 0.23151 0.61985 0.71381 0.0
O26 O 0.10365 0.65446 0.12913 0.0
O27 O 0.07886 0.58854 0.27266 0.0
C28 C 0.01198 0.60716 0.76193 0.0
O29 O 0.09415 0.63033 0.58533 0.0
O30 O 0.12287 0.69642 0.44962 0.0
O31 O 0.22586 0.65848 0.62423 0.0
O32 O 0.19852 0.60686 0.82471 0.0
O33 O 0.00488 0.59222 0.91757 0.0
O34 O 0.05624 0.61479 0.70712 0.0
O35 O 0.09786 0.57414 0.68843 0.0
O36 O 0.11051 0.52005 0.89876 0.0
C37 C 0.10741 0.53001 0.73596 0.0
O38 O 0.11297 0.69665 0.01931 0.0
O39 O 0.16016 0.74716 0.86774 0.0
C40 C 0.09018 0.63326 0.27349 0.0
C41 C 0.13396 0.73842 0.00223 0.0
Zn42 Zn 0.69808 0.83699 0.20592 0.0
Zn43 Zn 0.57001 0.93285 0.84314 0.0
Zn44 Zn 0.63286 0.87682 0.01765 0.0
C45 C 0.53001 0.89437 0.13487 0.0
C46 C 0.60716 0.98981 0.10893 0.0
O47 O 0.69665 0.88882 0.85159 0.0
O48 O 0.74715 0.84163 0.0032 0.0
C49 C 0.61984 0.77026 0.15703 0.0
O50 O 0.57414 0.90393 0.18241 0.0
O51 O 0.52004 0.89129 -0.02794 0.0
O52 O 0.59221 0.99692 -0.04672 0.0
O53 O 0.61479 0.94555 0.16374 0.0
O54 O 0.65847 0.77591 0.24664 0.0
O55 O 0.60685 0.80327 0.04615 0.0
O56 O 0.63033 0.90763 0.28554 0.0
O57 O 0.69641 0.8789 0.4213 0.0
C58 C 0.65654 0.90235 0.42658 0.0
O59 O 0.65446 0.89814 0.74176 0.0
O60 O 0.58854 0.92295 0.59818 0.0
C61 C 0.73842 0.86783 0.86869 0.0
C62 C 0.63326 0.91161 0.59737 0.0
Zn63 Zn 0.83697 0.30371 0.66491 0.0
Zn64 Zn 0.93286 0.43176 0.02768 0.0
Zn65 Zn 0.87682 0.36892 0.85317 0.0
C66 C 0.89438 0.47177 0.73596 0.0
C67 C 0.98982 0.39462 0.76189 0.0
O68 O 0.88881 0.30513 0.01925 0.0
O69 O 0.84161 0.25464 0.86765 0.0
C70 C 0.77026 0.38195 0.7138 0.0
O71 O 0.90393 0.42765 0.68842 0.0
O72 O 0.89129 0.48173 0.89876 0.0
O73 O 0.99693 0.40956 0.91754 0.0
O74 O 0.94555 0.38699 0.70708 0.0
O75 O 0.7759 0.34333 0.62418 0.0
O76 O 0.80327 0.39493 0.82467 0.0
O77 O 0.90763 0.37145 0.58529 0.0
O78 O 0.87888 0.30538 0.44956 0.0
C79 C 0.90234 0.34524 0.44427 0.0
O80 O 0.89813 0.34732 0.12909 0.0
O81 O 0.92297 0.41323 0.27264 0.0
C82 C 0.86782 0.26337 0.00216 0.0
C83 C 0.91161 0.36852 0.27347 0.0
Zn84 Zn 0.42578 0.44131 0.28012 0.0
Zn85 Zn 0.33755 0.31314 -0.04458 0.0
Zn86 Zn 0.36807 0.3829 0.12626 0.0
C87 C 0.37105 0.36711 0.70178 0.0
C88 C 0.40268 0.28086 0.14478 0.0
O89 O 0.38478 0.35618 0.39122 0.0
O90 O 0.40292 0.42685 0.51697 0.0
C91 C 0.39282 0.4862 -0.00989 0.0
O92 O 0.39013 0.38594 0.84308 0.0
O93 O 0.33455 0.33869 0.71223 0.0
O94 O 0.40984 0.29423 -0.01091 0.0
O95 O 0.38629 0.31361 0.2501 0.0
O96 O 0.39482 0.4976 0.15147 0.0
O97 O 0.39471 0.44071 -0.05392 0.0
O98 O 0.43145 0.39735 -0.0431 0.0
O99 O 0.48566 0.40699 0.17045 0.0
C100 C 0.47637 0.39665 0.01104 0.0
O101 O 0.29706 0.40528 0.17811 0.0
O102 O 0.28686 0.32555 0.16126 0.0
C103 C 0.38815 0.38342 0.52943 0.0
C104 C 0.27359 0.36697 0.22203 0.0
Zn105 Zn 0.4413 0.576 0.59075 0.0
Zn106 Zn 0.31312 0.66421 0.91539 0.0
Zn107 Zn 0.38289 0.63371 0.74457 0.0
C108 C 0.3671 0.63072 0.16904 0.0
C109 C 0.28085 0.5991 0.72606 0.0
O110 O 0.35618 0.617 0.4796 0.0
O111 O 0.42684 0.59885 0.35388 0.0
C112 C 0.48619 0.60896 0.88072 0.0
O113 O 0.38593 0.61164 0.02775 0.0
O114 O 0.33868 0.66722 0.15857 0.0
O115 O 0.29423 0.59192 0.88173 0.0
O116 O 0.3136 0.61549 0.62072 0.0
O117 O 0.49759 0.60696 0.71936 0.0
O118 O 0.44071 0.60706 0.92477 0.0
O119 O 0.39735 0.57032 0.91396 0.0
O120 O 0.40698 0.51611 0.70042 0.0
C121 C 0.39664 0.52541 0.85983 0.0
O122 O 0.40527 0.70472 0.69276 0.0
O123 O 0.32554 0.71492 0.70955 0.0
C124 C 0.38341 0.61362 0.3414 0.0
C125 C 0.36696 0.72819 0.64882 0.0
Zn126 Zn 0.66421 0.68867 -0.04463 0.0
Zn127 Zn 0.57602 0.56046 0.28006 0.0
Zn128 Zn 0.6337 0.61889 0.12622 0.0
C129 C 0.52541 0.60513 0.01099 0.0
C130 C 0.60896 0.51558 -0.00991 0.0
O131 O 0.70472 0.59651 0.17803 0.0
O132 O 0.71491 0.67624 0.1612 0.0
C133 C 0.59909 0.72092 0.14472 0.0
O134 O 0.57031 0.60443 -0.04315 0.0
O135 O 0.51612 0.59479 0.17041 0.0
O136 O 0.60696 0.50418 0.15145 0.0
O137 O 0.60705 0.56107 -0.05397 0.0
O138 O 0.59193 0.70756 -0.01097 0.0
O139 O 0.61549 0.68817 0.25005 0.0
O140 O 0.61163 0.61584 0.84303 0.0
O141 O 0.66721 0.6631 0.71221 0.0
C142 C 0.63071 0.63468 0.70174 0.0
O143 O 0.61699 0.64559 0.39117 0.0
O144 O 0.59887 0.57492 0.51693 0.0
C145 C 0.72819 0.63482 0.22195 0.0
C146 C 0.61363 0.61836 0.52939 0.0
Zn147 Zn 0.56045 0.42577 0.59075 0.0
Zn148 Zn 0.68865 0.33756 0.91552 0.0
Zn149 Zn 0.61888 0.36808 0.74464 0.0
C150 C 0.63467 0.37106 0.16913 0.0
C151 C 0.72092 0.40269 0.72614 0.0
O152 O 0.64559 0.38479 0.4797 0.0
O153 O 0.57491 0.4029 0.35391 0.0
C154 C 0.51557 0.39283 0.88075 0.0
O155 O 0.61583 0.39014 0.02782 0.0
O156 O 0.66309 0.33456 0.15869 0.0
O157 O 0.70756 0.40984 0.88184 0.0
O158 O 0.68816 0.3863 0.62082 0.0
O159 O 0.50416 0.39482 0.71939 0.0
O160 O 0.56106 0.39472 0.92481 0.0
O161 O 0.60442 0.43146 0.91398 0.0
O162 O 0.59478 0.48566 0.70041 0.0
C163 C 0.60512 0.47637 0.85982 0.0
O164 O 0.5965 0.29706 0.69279 0.0
O165 O 0.67623 0.28686 0.70968 0.0
C166 C 0.61835 0.38815 0.34147 0.0
C167 C 0.63481 0.27359 0.6489 0.0
Zn168 Zn 0.80371 0.66479 0.70589 0.0
Zn169 Zn 0.93177 0.56893 0.34318 0.0
Zn170 Zn 0.86892 0.62497 0.51766 0.0
C171 C 0.97178 0.60741 0.6349 0.0
C172 C 0.89462 0.51197 0.60894 0.0
O173 O 0.80513 0.61297 0.35155 0.0
O174 O 0.75464 0.66015 0.50313 0.0
C175 C 0.88194 0.73151 0.65707 0.0
O176 O 0.92765 0.59785 0.68244 0.0
O177 O 0.98174 0.6105 0.4721 0.0
O178 O 0.90956 0.50486 0.45331 0.0
O179 O 0.887 0.55623 0.66376 0.0
O180 O 0.84332 0.72586 0.74666 0.0
O181 O 0.89493 0.69852 0.54619 0.0
O182 O 0.87145 0.59415 0.78555 0.0
O183 O 0.80537 0.62287 0.92124 0.0
C184 C 0.84524 0.59942 0.92656 0.0
O185 O 0.84733 0.60364 0.24173 0.0
O186 O 0.91324 0.57883 0.09822 0.0
C187 C 0.76337 0.63395 0.36863 0.0
C188 C 0.86853 0.59017 0.09737 0.0
Zn189 Zn 0.56894 0.07001 0.5277 0.0
Zn190 Zn 0.66478 0.19809 0.16498 0.0
Zn191 Zn 0.62496 0.13286 0.35322 0.0
C192 C 0.59942 0.15654 -0.05571 0.0
C193 C 0.73151 0.11985 0.2138 0.0
O194 O 0.60364 0.15445 0.62912 0.0
O195 O 0.57884 0.08853 0.77266 0.0
C196 C 0.51197 0.10716 0.26194 0.0
O197 O 0.59414 0.13033 0.08532 0.0
O198 O 0.62286 0.19641 -0.0504 0.0
O199 O 0.72585 0.15848 0.12422 0.0
O200 O 0.69851 0.10686 0.32469 0.0
O201 O 0.50486 0.09221 0.41756 0.0
O202 O 0.55623 0.11479 0.20711 0.0
O203 O 0.59785 0.07413 0.18843 0.0
O204 O 0.6105 0.02004 0.39877 0.0
C205 C 0.6074 0.03001 0.23597 0.0
O206 O 0.61296 0.19665 0.5193 0.0
O207 O 0.66015 0.24715 0.36772 0.0
C208 C 0.59017 0.13325 0.77349 0.0
C209 C 0.63395 0.23841 0.50222 0.0
Zn210 Zn 0.19808 0.33699 0.70593 0.0
Zn211 Zn 0.07 0.43287 0.34312 0.0
Zn212 Zn 0.13286 0.37682 0.51766 0.0
C213 C 0.03001 0.39438 0.63486 0.0
C214 C 0.10716 0.48982 0.60892 0.0
O215 O 0.19665 0.38882 0.3516 0.0
O216 O 0.24715 0.34163 0.50321 0.0
C217 C 0.11984 0.27027 0.65703 0.0
O218 O 0.07413 0.40393 0.68241 0.0
O219 O 0.02004 0.3913 0.47206 0.0
O220 O 0.09221 0.49693 0.45329 0.0
O221 O 0.11479 0.44555 0.66374 0.0
O222 O 0.15847 0.27591 0.74664 0.0
O223 O 0.10685 0.30327 0.54616 0.0
O224 O 0.13033 0.40764 0.78554 0.0
O225 O 0.1964 0.3789 0.92131 0.0
C226 C 0.15654 0.40235 0.92658 0.0
O227 O 0.15445 0.39814 0.24176 0.0
O228 O 0.08854 0.42296 0.09818 0.0
C229 C 0.23841 0.36784 0.3687 0.0
C230 C 0.13325 0.41161 0.09738 0.0
Zn231 Zn 0.33697 0.80371 0.1649 0.0
Zn232 Zn 0.43288 0.93177 0.52769 0.0
Zn233 Zn 0.37682 0.86892 0.35316 0.0
C234 C 0.39438 0.97177 0.23597 0.0
C235 C 0.48982 0.89462 0.2619 0.0
O236 O 0.38882 0.80513 0.51925 0.0
O237 O 0.34161 0.75464 0.36764 0.0
C238 C 0.27026 0.88195 0.21379 0.0
O239 O 0.40393 0.92765 0.18841 0.0
O240 O 0.3913 0.98174 0.39877 0.0
O241 O 0.49694 0.90956 0.41754 0.0
O242 O 0.44555 0.88699 0.20708 0.0
O243 O 0.2759 0.84333 0.12418 0.0
O244 O 0.30327 0.89494 0.32466 0.0
O245 O 0.40764 0.87145 0.08529 0.0
O246 O 0.37888 0.80538 -0.05045 0.0
C247 C 0.40234 0.84524 -0.05574 0.0
O248 O 0.39814 0.84733 0.62909 0.0
O249 O 0.42297 0.91323 0.77264 0.0
C250 C 0.36782 0.76337 0.50215 0.0
C251 C 0.41162 0.86852 0.77346 0.0
Zn252 Zn 0.92578 0.94131 0.78012 0.0
Zn253 Zn 0.83755 0.81313 0.45542 0.0
Zn254 Zn 0.86807 0.88289 0.62626 0.0
C255 C 0.87106 0.8671 0.20178 0.0
C256 C 0.90269 0.78086 0.64478 0.0
O257 O 0.88478 0.85618 0.89122 0.0
O258 O 0.90292 0.92684 0.01697 0.0
C259 C 0.89282 0.98619 0.49011 0.0
O260 O 0.89013 0.88594 0.34309 0.0
O261 O 0.83455 0.83868 0.21222 0.0
O262 O 0.90984 0.79423 0.4891 0.0
O263 O 0.8863 0.81361 0.75011 0.0
O264 O 0.89482 0.9976 0.65147 0.0
O265 O 0.89472 0.94071 0.44608 0.0
O266 O 0.93146 0.89735 0.45691 0.0
O267 O 0.98567 0.90699 0.67045 0.0
C268 C 0.97637 0.89665 0.51104 0.0
O269 O 0.79706 0.90528 0.67813 0.0
O270 O 0.78686 0.82554 0.66125 0.0
C271 C 0.88815 0.88341 0.02943 0.0
C272 C 0.77359 0.86697 0.72201 0.0
Zn273 Zn 0.94129 0.076 0.09074 0.0
Zn274 Zn 0.8131 0.16421 0.41539 0.0
Zn275 Zn 0.88288 0.1337 0.24457 0.0
C276 C 0.86709 0.13071 0.66904 0.0
C277 C 0.78085 0.09909 0.22605 0.0
O278 O 0.85617 0.11699 -0.0204 0.0
O279 O 0.92683 0.09885 0.85387 0.0
C280 C 0.98618 0.10896 0.38072 0.0
O281 O 0.88592 0.11164 0.52775 0.0
O282 O 0.83867 0.16722 0.65857 0.0
O283 O 0.79423 0.09192 0.38172 0.0
O284 O 0.81359 0.11549 0.12072 0.0
O285 O 0.99758 0.10696 0.21936 0.0
O286 O 0.9407 0.10706 0.42477 0.0
O287 O 0.89734 0.07032 0.41395 0.0
O288 O 0.90697 0.01611 0.20042 0.0
C289 C 0.89664 0.02541 0.35983 0.0
O290 O 0.90526 0.20472 0.19275 0.0
O291 O 0.82553 0.21491 0.20956 0.0
C292 C 0.8834 0.11362 0.8414 0.0
C293 C 0.86695 0.22819 0.14884 0.0
Zn294 Zn 0.1642 0.18868 0.45536 0.0
Zn295 Zn 0.07601 0.06047 0.78007 0.0
Zn296 Zn 0.13369 0.11889 0.62622 0.0
C297 C 0.0254 0.10513 0.51099 0.0
C298 C 0.10895 0.01559 0.49009 0.0
O299 O 0.20471 0.09652 0.67804 0.0
O300 O 0.21491 0.17625 0.66119 0.0
C301 C 0.09908 0.22093 0.64472 0.0
O302 O 0.07031 0.10443 0.45685 0.0
O303 O 0.01611 0.09479 0.67041 0.0
O304 O 0.10696 0.00418 0.65145 0.0
O305 O 0.10705 0.06107 0.44603 0.0
O306 O 0.09192 0.20756 0.48904 0.0
O307 O 0.11548 0.18817 0.75005 0.0
O308 O 0.11163 0.11585 0.34304 0.0
O309 O 0.1672 0.16311 0.21221 0.0
C310 C 0.1307 0.13468 0.20174 0.0
O311 O 0.11698 0.1456 0.89117 0.0
O312 O 0.09886 0.07493 0.01693 0.0
C313 C 0.22818 0.13483 0.72193 0.0
C314 C 0.11362 0.11836 0.02939 0.0
Zn315 Zn 0.06045 0.92577 0.09075 0.0
Zn316 Zn 0.18866 0.83757 0.41552 0.0
Zn317 Zn 0.11888 0.86808 0.24464 0.0
C318 C 0.13467 0.87107 0.66913 0.0
C319 C 0.22092 0.9027 0.22613 0.0
O320 O 0.14559 0.8848 -0.0203 0.0
O321 O 0.07492 0.90291 0.85391 0.0
C322 C 0.01558 0.89283 0.38075 0.0
O323 O 0.11584 0.89014 0.52782 0.0
O324 O 0.1631 0.83457 0.65869 0.0
O325 O 0.20756 0.90985 0.38183 0.0
O326 O 0.18816 0.88631 0.12081 0.0
O327 O 0.00416 0.89482 0.21939 0.0
O328 O 0.06106 0.89472 0.42481 0.0
O329 O 0.10442 0.93146 0.41398 0.0
O330 O 0.09478 0.98566 0.2004 0.0
C331 C 0.10512 0.97637 0.35982 0.0
O332 O 0.09651 0.79706 0.19278 0.0
O333 O 0.17624 0.78687 0.20969 0.0
C334 C 0.11836 0.88815 0.84147 0.0
C335 C 0.13482 0.77359 0.14891 0.0
loop_
_geom_bond_atom_site_label_1
_geom_bond_atom_site_label_2
_geom_bond_distance
_geom_bond_site_symmetry_2
_ccdc_geom_bond_type
Zn0 O6 1.920 . S
Zn0 O12 1.898 . S
Zn0 O15 1.905 . S
Zn1 O9 1.905 . S
Zn1 O10 1.898 1_546 S
Zn1 O18 1.920 . S
Zn2 O5 2.080 . S
Zn2 O8 2.114 . S
Zn2 O11 2.120 . S
Zn2 O13 2.120 . S
Zn2 O14 2.114 . S
Zn2 O17 2.080 1_554 S
C3 O8 1.166 . S
C3 O9 1.182 1_554 S
C4 O10 1.167 1_545 S
C4 O11 1.299 . S
O5 Zn2 2.080 . S
O5 C19 1.305 . S
O6 Zn0 1.920 . S
O6 C19 1.234 . S
C7 O12 1.167 . S
C7 O13 1.299 . S
O8 Zn2 2.114 . S
O8 C3 1.166 . S
O9 Zn1 1.905 . S
O9 C3 1.182 1_556 S
O10 Zn1 1.898 1_564 S
O10 C4 1.167 1_565 S
O11 Zn2 2.120 . S
O11 C4 1.299 . S
O12 Zn0 1.898 . S
O12 C7 1.167 . S
O13 Zn2 2.120 . S
O13 C7 1.299 . S
O14 Zn2 2.114 . S
O14 C16 1.166 . S
O15 Zn0 1.905 . S
O15 C16 1.182 . S
C16 O14 1.166 . S
C16 O15 1.182 . S
O17 Zn2 2.080 1_556 S
O17 C20 1.305 . S
O18 Zn1 1.920 . S
O18 C20 1.234 . S
C19 O5 1.305 . S
C19 O6 1.234 . S
C20 O17 1.305 . S
C20 O18 1.234 . S
Zn21 O27 1.920 . S
Zn21 O33 1.898 1_454 S
Zn21 O36 1.905 . S
Zn22 O30 1.905 . S
Zn22 O31 1.898 . S
Zn22 O39 1.920 . S
Zn23 O26 2.080 1_556 S
Zn23 O29 2.114 . S
Zn23 O32 2.120 . S
Zn23 O34 2.120 . S
Zn23 O35 2.114 . S
Zn23 O38 2.080 . S
C24 O29 1.166 . S
C24 O30 1.182 . S
C25 O31 1.167 . S
C25 O32 1.299 . S
O26 Zn23 2.080 1_554 S
O26 C40 1.305 . S
O27 Zn21 1.920 . S
O27 C40 1.234 . S
C28 O33 1.167 1_455 S
C28 O34 1.299 . S
O29 Zn23 2.114 . S
O29 C24 1.166 . S
O30 Zn22 1.905 . S
O30 C24 1.182 . S
O31 Zn22 1.898 . S
O31 C25 1.167 . S
O32 Zn23 2.120 . S
O32 C25 1.299 . S
O33 Zn21 1.898 1_656 S
O33 C28 1.167 1_655 S
O34 Zn23 2.120 . S
O34 C28 1.299 . S
O35 Zn23 2.114 . S
O35 C37 1.166 . S
O36 Zn21 1.905 . S
O36 C37 1.182 1_554 S
C37 O35 1.166 . S
C37 O36 1.182 1_556 S
O38 Zn23 2.080 . S
O38 C41 1.305 . S
O39 Zn22 1.920 . S
O39 C41 1.234 . S
C40 O26 1.305 . S
C40 O27 1.234 . S
C41 O38 1.305 . S
C41 O39 1.234 . S
Zn42 O48 1.920 . S
Zn42 O54 1.898 . S
Zn42 O57 1.905 . S
Zn43 O51 1.905 . S
Zn43 O52 1.898 1_566 S
Zn43 O60 1.920 . S
Zn44 O47 2.080 . S
Zn44 O50 2.114 . S
Zn44 O53 2.120 . S
Zn44 O55 2.120 . S
Zn44 O56 2.114 . S
Zn44 O59 2.080 1_554 S
C45 O50 1.166 . S
C45 O51 1.182 1_554 S
C46 O52 1.167 1_565 S
C46 O53 1.299 . S
O47 Zn44 2.080 . S
O47 C61 1.305 . S
O48 Zn42 1.920 . S
O48 C61 1.234 . S
C49 O54 1.167 . S
C49 O55 1.299 . S
O50 Zn44 2.114 . S
O50 C45 1.166 . S
O51 Zn43 1.905 . S
O51 C45 1.182 1_556 S
O52 Zn43 1.898 1_544 S
O52 C46 1.167 1_545 S
O53 Zn44 2.120 . S
O53 C46 1.299 . S
O54 Zn42 1.898 . S
O54 C49 1.167 . S
O55 Zn44 2.120 . S
O55 C49 1.299 . S
O56 Zn44 2.114 . S
O56 C58 1.166 . S
O57 Zn42 1.905 . S
O57 C58 1.182 . S
C58 O56 1.166 . S
C58 O57 1.182 . S
O59 Zn44 2.080 1_556 S
O59 C62 1.305 . S
O60 Zn43 1.920 . S
O60 C62 1.234 . S
C61 O47 1.305 . S
C61 O48 1.234 . S
C62 O59 1.305 . S
C62 O60 1.234 . S
Zn63 O69 1.920 . S
Zn63 O75 1.898 . S
Zn63 O78 1.905 . S
Zn64 O72 1.905 . S
Zn64 O73 1.898 1_654 S
Zn64 O81 1.920 . S
Zn65 O68 2.080 . S
Zn65 O71 2.114 . S
Zn65 O74 2.120 . S
Zn65 O76 2.120 . S
Zn65 O77 2.114 . S
Zn65 O80 2.080 1_556 S
C66 O71 1.166 . S
C66 O72 1.182 1_556 S
C67 O73 1.167 1_655 S
C67 O74 1.299 . S
O68 Zn65 2.080 . S
O68 C82 1.305 . S
O69 Zn63 1.920 . S
O69 C82 1.234 . S
C70 O75 1.167 . S
C70 O76 1.299 . S
O71 Zn65 2.114 . S
O71 C66 1.166 . S
O72 Zn64 1.905 . S
O72 C66 1.182 1_554 S
O73 Zn64 1.898 1_456 S
O73 C67 1.167 1_455 S
O74 Zn65 2.120 . S
O74 C67 1.299 . S
O75 Zn63 1.898 . S
O75 C70 1.167 . S
O76 Zn65 2.120 . S
O76 C70 1.299 . S
O77 Zn65 2.114 . S
O77 C79 1.166 . S
O78 Zn63 1.905 . S
O78 C79 1.182 . S
C79 O77 1.166 . S
C79 O78 1.182 . S
O80 Zn65 2.080 1_554 S
O80 C83 1.305 . S
O81 Zn64 1.920 . S
O81 C83 1.234 . S
C82 O68 1.305 . S
C82 O69 1.234 . S
C83 O80 1.305 . S
C83 O81 1.234 . S
Zn84 O90 1.920 . S
Zn84 O96 1.898 . S
Zn84 O99 1.905 . S
Zn85 O93 1.905 . S
Zn85 O94 1.898 . S
Zn85 O102 1.920 1_556 S
Zn86 O89 2.080 . S
Zn86 O92 2.114 1_554 S
Zn86 O95 2.120 . S
Zn86 O97 2.120 . S
Zn86 O98 2.114 . S
Zn86 O101 2.080 . S
C87 O92 1.166 . S
C87 O93 1.182 . S
C88 O94 1.167 1_554 S
C88 O95 1.299 . S
O89 Zn86 2.080 . S
O89 C103 1.305 . S
O90 Zn84 1.920 . S
O90 C103 1.234 . S
C91 O96 1.167 . S
C91 O97 1.299 . S
O92 Zn86 2.114 1_556 S
O92 C87 1.166 . S
O93 Zn85 1.905 . S
O93 C87 1.182 . S
O94 Zn85 1.898 . S
O94 C88 1.167 1_556 S
O95 Zn86 2.120 . S
O95 C88 1.299 . S
O96 Zn84 1.898 . S
O96 C91 1.167 . S
O97 Zn86 2.120 . S
O97 C91 1.299 . S
O98 Zn86 2.114 . S
O98 C100 1.166 . S
O99 Zn84 1.905 . S
O99 C100 1.182 . S
C100 O98 1.166 . S
C100 O99 1.182 . S
O101 Zn86 2.080 . S
O101 C104 1.305 . S
O102 Zn85 1.920 1_554 S
O102 C104 1.234 . S
C103 O89 1.305 . S
C103 O90 1.234 . S
C104 O101 1.305 . S
C104 O102 1.234 . S
Zn105 O111 1.920 . S
Zn105 O117 1.898 . S
Zn105 O120 1.905 . S
Zn106 O114 1.905 . S
Zn106 O115 1.898 . S
Zn106 O123 1.920 1_554 S
Zn107 O110 2.080 . S
Zn107 O113 2.114 1_556 S
Zn107 O116 2.120 . S
Zn107 O118 2.120 . S
Zn107 O119 2.114 . S
Zn107 O122 2.080 . S
C108 O113 1.166 . S
C108 O114 1.182 . S
C109 O115 1.167 1_556 S
C109 O116 1.299 . S
O110 Zn107 2.080 . S
O110 C124 1.305 . S
O111 Zn105 1.920 . S
O111 C124 1.234 . S
C112 O117 1.167 . S
C112 O118 1.299 . S
O113 Zn107 2.114 1_554 S
O113 C108 1.166 . S
O114 Zn106 1.905 . S
O114 C108 1.182 . S
O115 Zn106 1.898 . S
O115 C109 1.167 1_554 S
O116 Zn107 2.120 . S
O116 C109 1.299 . S
O117 Zn105 1.898 . S
O117 C112 1.167 . S
O118 Zn107 2.120 . S
O118 C112 1.299 . S
O119 Zn107 2.114 . S
O119 C121 1.166 . S
O120 Zn105 1.905 . S
O120 C121 1.182 . S
C121 O119 1.166 . S
C121 O120 1.182 . S
O122 Zn107 2.080 . S
O122 C125 1.305 . S
O123 Zn106 1.920 1_556 S
O123 C125 1.234 . S
C124 O110 1.305 . S
C124 O111 1.234 . S
C125 O122 1.305 . S
C125 O123 1.234 . S
Zn126 O132 1.920 1_556 S
Zn126 O138 1.898 . S
Zn126 O141 1.905 . S
Zn127 O135 1.905 . S
Zn127 O136 1.898 . S
Zn127 O144 1.920 . S
Zn128 O131 2.080 . S
Zn128 O134 2.114 . S
Zn128 O137 2.120 . S
Zn128 O139 2.120 . S
Zn128 O140 2.114 1_554 S
Zn128 O143 2.080 . S
C129 O134 1.166 . S
C129 O135 1.182 . S
C130 O136 1.167 . S
C130 O137 1.299 . S
O131 Zn128 2.080 . S
O131 C145 1.305 . S
O132 Zn126 1.920 1_554 S
O132 C145 1.234 . S
C133 O138 1.167 1_554 S
C133 O139 1.299 . S
O134 Zn128 2.114 . S
O134 C129 1.166 . S
O135 Zn127 1.905 . S
O135 C129 1.182 . S
O136 Zn127 1.898 . S
O136 C130 1.167 . S
O137 Zn128 2.120 . S
O137 C130 1.299 . S
O138 Zn126 1.898 . S
O138 C133 1.167 1_556 S
O139 Zn128 2.120 . S
O139 C133 1.299 . S
O140 Zn128 2.114 1_556 S
O140 C142 1.166 . S
O141 Zn126 1.905 . S
O141 C142 1.182 . S
C142 O140 1.166 . S
C142 O141 1.182 . S
O143 Zn128 2.080 . S
O143 C146 1.305 . S
O144 Zn127 1.920 . S
O144 C146 1.234 . S
C145 O131 1.305 . S
C145 O132 1.234 . S
C146 O143 1.305 . S
C146 O144 1.234 . S
Zn147 O153 1.920 . S
Zn147 O159 1.898 . S
Zn147 O162 1.905 . S
Zn148 O156 1.905 . S
Zn148 O157 1.898 . S
Zn148 O165 1.920 1_554 S
Zn149 O152 2.080 . S
Zn149 O155 2.114 1_556 S
Zn149 O158 2.120 . S
Zn149 O160 2.120 . S
Zn149 O161 2.114 . S
Zn149 O164 2.080 . S
C150 O155 1.166 . S
C150 O156 1.182 . S
C151 O157 1.167 1_556 S
C151 O158 1.299 . S
O152 Zn149 2.080 . S
O152 C166 1.305 . S
O153 Zn147 1.920 . S
O153 C166 1.234 . S
C154 O159 1.167 . S
C154 O160 1.299 . S
O155 Zn149 2.114 1_554 S
O155 C150 1.166 . S
O156 Zn148 1.905 . S
O156 C150 1.182 . S
O157 Zn148 1.898 . S
O157 C151 1.167 1_554 S
O158 Zn149 2.120 . S
O158 C151 1.299 . S
O159 Zn147 1.898 . S
O159 C154 1.167 . S
O160 Zn149 2.120 . S
O160 C154 1.299 . S
O161 Zn149 2.114 . S
O161 C163 1.166 . S
O162 Zn147 1.905 . S
O162 C163 1.182 . S
C163 O161 1.166 . S
C163 O162 1.182 . S
O164 Zn149 2.080 . S
O164 C167 1.305 . S
O165 Zn148 1.920 1_556 S
O165 C167 1.234 . S
C166 O152 1.305 . S
C166 O153 1.234 . S
C167 O164 1.305 . S
C167 O165 1.234 . S
Zn168 O174 1.920 . S
Zn168 O180 1.898 . S
Zn168 O183 1.905 1_556 S
Zn169 O177 1.905 . S
Zn169 O178 1.898 . S
Zn169 O186 1.920 . S
Zn170 O173 2.080 . S
Zn170 O176 2.114 . S
Zn170 O179 2.120 . S
Zn170 O181 2.120 . S
Zn170 O182 2.114 . S
Zn170 O185 2.080 . S
C171 O176 1.166 . S
C171 O177 1.182 . S
C172 O178 1.167 . S
C172 O179 1.299 . S
O173 Zn170 2.080 . S
O173 C187 1.305 . S
O174 Zn168 1.920 . S
O174 C187 1.234 . S
C175 O180 1.167 . S
C175 O181 1.299 . S
O176 Zn170 2.114 . S
O176 C171 1.166 . S
O177 Zn169 1.905 . S
O177 C171 1.182 . S
O178 Zn169 1.898 . S
O178 C172 1.167 . S
O179 Zn170 2.120 . S
O179 C172 1.299 . S
O180 Zn168 1.898 . S
O180 C175 1.167 . S
O181 Zn170 2.120 . S
O181 C175 1.299 . S
O182 Zn170 2.114 . S
O182 C184 1.166 1_556 S
O183 Zn168 1.905 1_554 S
O183 C184 1.182 . S
C184 O182 1.166 1_554 S
C184 O183 1.182 . S
O185 Zn170 2.080 . S
O185 C188 1.305 . S
O186 Zn169 1.920 . S
O186 C188 1.234 . S
C187 O173 1.305 . S
C187 O174 1.234 . S
C188 O185 1.305 . S
C188 O186 1.234 . S
Zn189 O195 1.920 . S
Zn189 O201 1.898 . S
Zn189 O204 1.905 . S
Zn190 O198 1.905 1_554 S
Zn190 O199 1.898 . S
Zn190 O207 1.920 . S
Zn191 O194 2.080 . S
Zn191 O197 2.114 . S
Zn191 O200 2.120 . S
Zn191 O202 2.120 . S
Zn191 O203 2.114 . S
Zn191 O206 2.080 . S
C192 O197 1.166 1_556 S
C192 O198 1.182 . S
C193 O199 1.167 . S
C193 O200 1.299 . S
O194 Zn191 2.080 . S
O194 C208 1.305 . S
O195 Zn189 1.920 . S
O195 C208 1.234 . S
C196 O201 1.167 . S
C196 O202 1.299 . S
O197 Zn191 2.114 . S
O197 C192 1.166 1_554 S
O198 Zn190 1.905 1_556 S
O198 C192 1.182 . S
O199 Zn190 1.898 . S
O199 C193 1.167 . S
O200 Zn191 2.120 . S
O200 C193 1.299 . S
O201 Zn189 1.898 . S
O201 C196 1.167 . S
O202 Zn191 2.120 . S
O202 C196 1.299 . S
O203 Zn191 2.114 . S
O203 C205 1.166 . S
O204 Zn189 1.905 . S
O204 C205 1.182 . S
C205 O203 1.166 . S
C205 O204 1.182 . S
O206 Zn191 2.080 . S
O206 C209 1.305 . S
O207 Zn190 1.920 . S
O207 C209 1.234 . S
C208 O194 1.305 . S
C208 O195 1.234 . S
C209 O206 1.305 . S
C209 O207 1.234 . S
Zn210 O216 1.920 . S
Zn210 O222 1.898 . S
Zn210 O225 1.905 1_556 S
Zn211 O219 1.905 . S
Zn211 O220 1.898 . S
Zn211 O228 1.920 . S
Zn212 O215 2.080 . S
Zn212 O218 2.114 . S
Zn212 O221 2.120 . S
Zn212 O223 2.120 . S
Zn212 O224 2.114 . S
Zn212 O227 2.080 . S
C213 O218 1.166 . S
C213 O219 1.182 . S
C214 O220 1.167 . S
C214 O221 1.299 . S
O215 Zn212 2.080 . S
O215 C229 1.305 . S
O216 Zn210 1.920 . S
O216 C229 1.234 . S
C217 O222 1.167 . S
C217 O223 1.299 . S
O218 Zn212 2.114 . S
O218 C213 1.166 . S
O219 Zn211 1.905 . S
O219 C213 1.182 . S
O220 Zn211 1.898 . S
O220 C214 1.167 . S
O221 Zn212 2.120 . S
O221 C214 1.299 . S
O222 Zn210 1.898 . S
O222 C217 1.167 . S
O223 Zn212 2.120 . S
O223 C217 1.299 . S
O224 Zn212 2.114 . S
O224 C226 1.166 1_556 S
O225 Zn210 1.905 1_554 S
O225 C226 1.182 . S
C226 O224 1.166 1_554 S
C226 O225 1.182 . S
O227 Zn212 2.080 . S
O227 C230 1.305 . S
O228 Zn211 1.920 . S
O228 C230 1.234 . S
C229 O215 1.305 . S
C229 O216 1.234 . S
C230 O227 1.305 . S
C230 O228 1.234 . S
Zn231 O237 1.920 . S
Zn231 O243 1.898 . S
Zn231 O246 1.905 1_554 S
Zn232 O240 1.905 . S
Zn232 O241 1.898 . S
Zn232 O249 1.920 . S
Zn233 O236 2.080 . S
Zn233 O239 2.114 . S
Zn233 O242 2.120 . S
Zn233 O244 2.120 . S
Zn233 O245 2.114 . S
Zn233 O248 2.080 . S
C234 O239 1.166 . S
C234 O240 1.182 . S
C235 O241 1.167 . S
C235 O242 1.299 . S
O236 Zn233 2.080 . S
O236 C250 1.305 . S
O237 Zn231 1.920 . S
O237 C250 1.234 . S
C238 O243 1.167 . S
C238 O244 1.299 . S
O239 Zn233 2.114 . S
O239 C234 1.166 . S
O240 Zn232 1.905 . S
O240 C234 1.182 . S
O241 Zn232 1.898 . S
O241 C235 1.167 . S
O242 Zn233 2.120 . S
O242 C235 1.299 . S
O243 Zn231 1.898 . S
O243 C238 1.167 . S
O244 Zn233 2.120 . S
O244 C238 1.299 . S
O245 Zn233 2.114 . S
O245 C247 1.166 1_554 S
O246 Zn231 1.905 1_556 S
O246 C247 1.182 . S
C247 O245 1.166 1_556 S
C247 O246 1.182 . S
O248 Zn233 2.080 . S
O248 C251 1.305 . S
O249 Zn232 1.920 . S
O249 C251 1.234 . S
C250 O236 1.305 . S
C250 O237 1.234 . S
C251 O248 1.305 . S
C251 O249 1.234 . S
Zn252 O258 1.920 1_556 S
Zn252 O264 1.898 1_565 S
Zn252 O267 1.905 . S
Zn253 O261 1.905 . S
Zn253 O262 1.898 . S
Zn253 O270 1.920 . S
Zn254 O257 2.080 . S
Zn254 O260 2.114 . S
Zn254 O263 2.120 . S
Zn254 O265 2.120 . S
Zn254 O266 2.114 . S
Zn254 O269 2.080 . S
C255 O260 1.166 . S
C255 O261 1.182 . S
C256 O262 1.167 . S
C256 O263 1.299 . S
O257 Zn254 2.080 . S
O257 C271 1.305 1_556 S
O258 Zn252 1.920 1_554 S
O258 C271 1.234 . S
C259 O264 1.167 1_565 S
C259 O265 1.299 . S
O260 Zn254 2.114 . S
O260 C255 1.166 . S
O261 Zn253 1.905 . S
O261 C255 1.182 . S
O262 Zn253 1.898 . S
O262 C256 1.167 . S
O263 Zn254 2.120 . S
O263 C256 1.299 . S
O264 Zn252 1.898 1_545 S
O264 C259 1.167 1_545 S
O265 Zn254 2.120 . S
O265 C259 1.299 . S
O266 Zn254 2.114 . S
O266 C268 1.166 . S
O267 Zn252 1.905 . S
O267 C268 1.182 . S
C268 O266 1.166 . S
C268 O267 1.182 . S
O269 Zn254 2.080 . S
O269 C272 1.305 . S
O270 Zn253 1.920 . S
O270 C272 1.234 . S
C271 O257 1.305 1_554 S
C271 O258 1.234 . S
C272 O269 1.305 . S
C272 O270 1.234 . S
Zn273 O279 1.920 1_554 S
Zn273 O285 1.898 1_655 S
Zn273 O288 1.905 . S
Zn274 O282 1.905 . S
Zn274 O283 1.898 . S
Zn274 O291 1.920 . S
Zn275 O278 2.080 . S
Zn275 O281 2.114 . S
Zn275 O284 2.120 . S
Zn275 O286 2.120 . S
Zn275 O287 2.114 . S
Zn275 O290 2.080 . S
C276 O281 1.166 . S
C276 O282 1.182 . S
C277 O283 1.167 . S
C277 O284 1.299 . S
O278 Zn275 2.080 . S
O278 C292 1.305 1_554 S
O279 Zn273 1.920 1_556 S
O279 C292 1.234 . S
C280 O285 1.167 1_655 S
C280 O286 1.299 . S
O281 Zn275 2.114 . S
O281 C276 1.166 . S
O282 Zn274 1.905 . S
O282 C276 1.182 . S
O283 Zn274 1.898 . S
O283 C277 1.167 . S
O284 Zn275 2.120 . S
O284 C277 1.299 . S
O285 Zn273 1.898 1_455 S
O285 C280 1.167 1_455 S
O286 Zn275 2.120 . S
O286 C280 1.299 . S
O287 Zn275 2.114 . S
O287 C289 1.166 . S
O288 Zn273 1.905 . S
O288 C289 1.182 . S
C289 O287 1.166 . S
C289 O288 1.182 . S
O290 Zn275 2.080 . S
O290 C293 1.305 . S
O291 Zn274 1.920 . S
O291 C293 1.234 . S
C292 O278 1.305 1_556 S
C292 O279 1.234 . S
C293 O290 1.305 . S
C293 O291 1.234 . S
Zn294 O300 1.920 . S
Zn294 O306 1.898 . S
Zn294 O309 1.905 . S
Zn295 O303 1.905 . S
Zn295 O304 1.898 1_545 S
Zn295 O312 1.920 1_556 S
Zn296 O299 2.080 . S
Zn296 O302 2.114 . S
Zn296 O305 2.120 . S
Zn296 O307 2.120 . S
Zn296 O308 2.114 . S
Zn296 O311 2.080 . S
C297 O302 1.166 . S
C297 O303 1.182 . S
C298 O304 1.167 1_545 S
C298 O305 1.299 . S
O299 Zn296 2.080 . S
O299 C313 1.305 . S
O300 Zn294 1.920 . S
O300 C313 1.234 . S
C301 O306 1.167 . S
C301 O307 1.299 . S
O302 Zn296 2.114 . S
O302 C297 1.166 . S
O303 Zn295 1.905 . S
O303 C297 1.182 . S
O304 Zn295 1.898 1_565 S
O304 C298 1.167 1_565 S
O305 Zn296 2.120 . S
O305 C298 1.299 . S
O306 Zn294 1.898 . S
O306 C301 1.167 . S
O307 Zn296 2.120 . S
O307 C301 1.299 . S
O308 Zn296 2.114 . S
O308 C310 1.166 . S
O309 Zn294 1.905 . S
O309 C310 1.182 . S
C310 O308 1.166 . S
C310 O309 1.182 . S
O311 Zn296 2.080 . S
O311 C314 1.305 1_556 S
O312 Zn295 1.920 1_554 S
O312 C314 1.234 . S
C313 O299 1.305 . S
C313 O300 1.234 . S
C314 O311 1.305 1_554 S
C314 O312 1.234 . S
Zn315 O321 1.920 1_554 S
Zn315 O327 1.898 1_455 S
Zn315 O330 1.905 . S
Zn316 O324 1.905 . S
Zn316 O325 1.898 . S
Zn316 O333 1.920 . S
Zn317 O320 2.080 . S
Zn317 O323 2.114 . S
Zn317 O326 2.120 . S
Zn317 O328 2.120 . S
Zn317 O329 2.114 . S
Zn317 O332 2.080 . S
C318 O323 1.166 . S
C318 O324 1.182 . S
C319 O325 1.167 . S
C319 O326 1.299 . S
O320 Zn317 2.080 . S
O320 C334 1.305 1_554 S
O321 Zn315 1.920 1_556 S
O321 C334 1.234 . S
C322 O327 1.167 1_455 S
C322 O328 1.299 . S
O323 Zn317 2.114 . S
O323 C318 1.166 . S
O324 Zn316 1.905 . S
O324 C318 1.182 . S
O325 Zn316 1.898 . S
O325 C319 1.167 . S
O326 Zn317 2.120 . S
O326 C319 1.299 . S
O327 Zn315 1.898 1_655 S
O327 C322 1.167 1_655 S
O328 Zn317 2.120 . S
O328 C322 1.299 . S
O329 Zn317 2.114 . S
O329 C331 1.166 . S
O330 Zn315 1.905 . S
O330 C331 1.182 . S
C331 O329 1.166 . S
C331 O330 1.182 . S
O332 Zn317 2.080 . S
O332 C335 1.305 . S
O333 Zn316 1.920 . S
O333 C335 1.234 . S
C334 O320 1.305 1_556 S
C334 O321 1.234 . S
C335 O332 1.305 . S
C335 O333 1.234 . S
C234 C4 1.660 1_565 S
C171 C28 1.660 1_655 S
C46 C205 1.660 1_565 S
C67 C213 1.660 1_655 S
C91 C121 1.660 1_554 S
C129 C112 1.660 1_554 S
C130 C163 1.660 1_554 S
C100 C154 1.660 1_554 S
C66 C172 1.660 . S
C196 C3 1.660 . S
C37 C214 1.660 . S
C45 C235 1.660 . S
C259 C289 1.660 1_565 S
C297 C280 1.660 1_455 S
C331 C298 1.660 1_565 S
C322 C268 1.660 1_455 S
C7 C88 1.556 . S
C109 C25 1.556 . S
C49 C133 1.556 . S
C70 C151 1.556 . S
C175 C256 1.556 . S
C277 C193 1.556 . S
C217 C301 1.556 . S
C238 C319 1.556 . S
C313 C19 1.948 1_556 S
C41 C335 1.948 1_556 S
C61 C272 1.948 1_554 S
C82 C293 1.948 1_556 S
C104 C229 1.948 . S
C125 C250 1.948 . S
C145 C187 1.948 . S
C209 C167 1.948 . S
C16 C20 2.198 . S
C24 C40 2.198 . S
C58 C62 2.198 . S
C83 C79 2.198 . S
C103 C87 2.198 . S
C108 C124 2.198 . S
C142 C146 2.198 . S
C166 C150 2.198 . S
C184 C188 2.198 . S
C208 C192 2.198 . S
C230 C226 2.198 . S
C247 C251 2.198 . S
C255 C271 2.198 . S
C292 C276 2.198 . S
C314 C310 2.198 . S
C318 C334 2.198 . S
