# Generated by pormake.
# Topology wlk, (5)-cn, num edge types: 1
# Building blocks:
#     Node 0, Type 0, BuildingBlock: BEQFEK_clean_sbu_0, # of connection points: 5
#     Node 1, Type 0, BuildingBlock: BEQFEK_clean_sbu_0, # of connection points: 5
#     Node 2, Type 0, BuildingBlock: BEQFEK_clean_sbu_0, # of connection points: 5
#     Node 3, Type 0, BuildingBlock: BEQFEK_clean_sbu_0, # of connection points: 5
#     Node 4, Type 0, BuildingBlock: BEQFEK_clean_sbu_0, # of connection points: 5
#     Node 5, Type 0, BuildingBlock: BEQFEK_clean_sbu_0, # of connection points: 5
#     Node 6, Type 0, BuildingBlock: BEQFEK_clean_sbu_0, # of connection points: 5
#     Node 7, Type 0, BuildingBlock: BEQFEK_clean_sbu_0, # of connection points: 5
#     Node 8, Type 0, BuildingBlock: BEQFEK_clean_sbu_0, # of connection points: 5
#     Node 9, Type 0, BuildingBlock: BEQFEK_clean_sbu_0, # of connection points: 5
#     Node 10, Type 0, BuildingBlock: BEQFEK_clean_sbu_0, # of connection points: 5
#     Node 11, Type 0, BuildingBlock: BEQFEK_clean_sbu_0, # of connection points: 5
#     Node 12, Type 0, BuildingBlock: BEQFEK_clean_sbu_0, # of connection points: 5
#     Node 13, Type 0, BuildingBlock: BEQFEK_clean_sbu_0, # of connection points: 5
#     Node 14, Type 0, BuildingBlock: BEQFEK_clean_sbu_0, # of connection points: 5
#     Node 15, Type 0, BuildingBlock: BEQFEK_clean_sbu_0, # of connection points: 5
#     Node 16, Type 0, BuildingBlock: BEQFEK_clean_sbu_0, # of connection points: 5
#     Node 17, Type 0, BuildingBlock: BEQFEK_clean_sbu_0, # of connection points: 5
#     Edge 18, Type (0, 0), BuildingBlock: EZIPEK_clean_linker_0, # of connection points: 2
#     Edge 19, Type (0, 0), BuildingBlock: EZIPEK_clean_linker_0, # of connection points: 2
#     Edge 20, Type (0, 0), BuildingBlock: EZIPEK_clean_linker_0, # of connection points: 2
#     Edge 21, Type (0, 0), BuildingBlock: EZIPEK_clean_linker_0, # of connection points: 2
#     Edge 22, Type (0, 0), BuildingBlock: EZIPEK_clean_linker_0, # of connection points: 2
#     Edge 23, Type (0, 0), BuildingBlock: EZIPEK_clean_linker_0, # of connection points: 2
#     Edge 24, Type (0, 0), BuildingBlock: EZIPEK_clean_linker_0, # of connection points: 2
#     Edge 25, Type (0, 0), BuildingBlock: EZIPEK_clean_linker_0, # of connection points: 2
#     Edge 26, Type (0, 0), BuildingBlock: EZIPEK_clean_linker_0, # of connection points: 2
#     Edge 27, Type (0, 0), BuildingBlock: EZIPEK_clean_linker_0, # of connection points: 2
#     Edge 28, Type (0, 0), BuildingBlock: EZIPEK_clean_linker_0, # of connection points: 2
#     Edge 29, Type (0, 0), BuildingBlock: EZIPEK_clean_linker_0, # of connection points: 2
#     Edge 30, Type (0, 0), BuildingBlock: EZIPEK_clean_linker_0, # of connection points: 2
#     Edge 31, Type (0, 0), BuildingBlock: EZIPEK_clean_linker_0, # of connection points: 2
#     Edge 32, Type (0, 0), BuildingBlock: EZIPEK_clean_linker_0, # of connection points: 2
#     Edge 33, Type (0, 0), BuildingBlock: EZIPEK_clean_linker_0, # of connection points: 2
#     Edge 34, Type (0, 0), BuildingBlock: EZIPEK_clean_linker_0, # of connection points: 2
#     Edge 35, Type (0, 0), BuildingBlock: EZIPEK_clean_linker_0, # of connection points: 2
#     Edge 36, Type (0, 0), BuildingBlock: EZIPEK_clean_linker_0, # of connection points: 2
#     Edge 37, Type (0, 0), BuildingBlock: EZIPEK_clean_linker_0, # of connection points: 2
#     Edge 38, Type (0, 0), BuildingBlock: EZIPEK_clean_linker_0, # of connection points: 2
#     Edge 39, Type (0, 0), BuildingBlock: EZIPEK_clean_linker_0, # of connection points: 2
#     Edge 40, Type (0, 0), BuildingBlock: EZIPEK_clean_linker_0, # of connection points: 2
#     Edge 41, Type (0, 0), BuildingBlock: EZIPEK_clean_linker_0, # of connection points: 2
#     Edge 42, Type (0, 0), BuildingBlock: EZIPEK_clean_linker_0, # of connection points: 2
#     Edge 43, Type (0, 0), BuildingBlock: EZIPEK_clean_linker_0, # of connection points: 2
#     Edge 44, Type (0, 0), BuildingBlock: EZIPEK_clean_linker_0, # of connection points: 2
#     Edge 45, Type (0, 0), BuildingBlock: EZIPEK_clean_linker_0, # of connection points: 2
#     Edge 46, Type (0, 0), BuildingBlock: EZIPEK_clean_linker_0, # of connection points: 2
#     Edge 47, Type (0, 0), BuildingBlock: EZIPEK_clean_linker_0, # of connection points: 2
#     Edge 48, Type (0, 0), BuildingBlock: EZIPEK_clean_linker_0, # of connection points: 2
#     Edge 49, Type (0, 0), BuildingBlock: EZIPEK_clean_linker_0, # of connection points: 2
#     Edge 50, Type (0, 0), BuildingBlock: EZIPEK_clean_linker_0, # of connection points: 2
#     Edge 51, Type (0, 0), BuildingBlock: EZIPEK_clean_linker_0, # of connection points: 2
#     Edge 52, Type (0, 0), BuildingBlock: EZIPEK_clean_linker_0, # of connection points: 2
#     Edge 53, Type (0, 0), BuildingBlock: EZIPEK_clean_linker_0, # of connection points: 2
#     Edge 54, Type (0, 0), BuildingBlock: EZIPEK_clean_linker_0, # of connection points: 2
#     Edge 55, Type (0, 0), BuildingBlock: EZIPEK_clean_linker_0, # of connection points: 2
#     Edge 56, Type (0, 0), BuildingBlock: EZIPEK_clean_linker_0, # of connection points: 2
#     Edge 57, Type (0, 0), BuildingBlock: EZIPEK_clean_linker_0, # of connection points: 2
#     Edge 58, Type (0, 0), BuildingBlock: EZIPEK_clean_linker_0, # of connection points: 2
#     Edge 59, Type (0, 0), BuildingBlock: EZIPEK_clean_linker_0, # of connection points: 2
#     Edge 60, Type (0, 0), BuildingBlock: EZIPEK_clean_linker_0, # of connection points: 2
#     Edge 61, Type (0, 0), BuildingBlock: EZIPEK_clean_linker_0, # of connection points: 2
#     Edge 62, Type (0, 0), BuildingBlock: EZIPEK_clean_linker_0, # of connection points: 2
# Relax obj value: 0.045
# Max RMSD: 0.100
# Mean RMSD: 0.100
data_MOF--net-wlk--node1-BEQFEK_clean_sbu_0--edge1-EZIPEK_clean_linker_0
_symmetry_space_group_name_H-M    P1
_symmetry_Int_Tables_number       1
_symmetry_cell_setting            triclinic
loop_
_symmetry_equiv_pos_as_xyz
'x, y, z'
_cell_length_a     49.97295
_cell_length_b     49.995197
_cell_length_c     23.841241
_cell_angle_alpha  89.993484
_cell_angle_beta   89.959454
_cell_angle_gamma 119.9984
loop_
_atom_site_label
_atom_site_type_symbol
_atom_site_fract_x
_atom_site_fract_y
_atom_site_fract_z
_atom_type_partial_charge
Co0 Co 0.23589 0.27549 0.16797 0.0
Co1 Co 0.17817 0.26505 0.09774 0.0
C2 C 0.20046 0.22059 0.0906 0.0
O3 O 0.22242 0.23737 0.12379 0.0
O4 O 0.17932 0.22683 0.07906 0.0
C5 C 0.26176 0.25337 0.24835 0.0
O6 O 0.23667 0.22696 0.23772 0.0
C7 C 0.11544 0.2404 0.04728 0.0
C8 C 0.11253 0.28286 0.04808 0.0
C9 C 0.09442 0.25114 0.03973 0.0
N10 N 0.14263 0.26412 0.06515 0.0
N11 N 0.14098 0.28956 0.06336 0.0
C12 C 0.1126 0.21042 0.0289 0.0
H13 H 0.13519 0.2145 0.01306 0.0
H14 H 0.10615 0.19444 0.06513 0.0
H15 H 0.09568 0.19973 0.99439 0.0
C16 C 0.20459 0.29116 0.25448 0.0
N17 N 0.20385 0.27793 0.20484 0.0
N18 N 0.17876 0.27231 0.17722 0.0
C19 C 0.16212 0.28074 0.21011 0.0
C20 C 0.17828 0.2936 0.25932 0.0
C21 C 0.23226 0.30572 0.29203 0.0
H22 H 0.23575 0.28739 0.3107 0.0
H23 H 0.22948 0.31915 0.32632 0.0
H24 H 0.25312 0.32105 0.26694 0.0
O25 O 0.25599 0.30996 0.11552 0.0
O26 O 0.21547 0.3007 0.06238 0.0
H27 H 0.13848 0.30156 0.17158 0.0
H28 H 0.11899 0.27803 0.23116 0.0
C29 C 0.13284 0.27979 0.19345 0.0
H30 H 0.11892 0.25975 0.16581 0.0
H31 H 0.15902 0.31137 0.07445 0.0
O32 O 0.26637 0.27773 0.22317 0.0
C33 C 0.24427 0.31629 0.07384 0.0
Co34 Co 0.73121 0.9616 0.16999 0.0
Co35 Co 0.73953 0.91282 0.10044 0.0
C36 C 0.78568 0.97957 0.09274 0.0
O37 O 0.76959 0.98546 0.12636 0.0
O38 O 0.77837 0.95189 0.08088 0.0
C39 C 0.75442 0.01031 0.24851 0.0
O40 O 0.78045 0.01073 0.23824 0.0
C41 C 0.76346 0.87389 0.05073 0.0
C42 C 0.72072 0.82877 0.05207 0.0
C43 C 0.7524 0.84206 0.04337 0.0
N44 N 0.73995 0.87771 0.06874 0.0
N45 N 0.71434 0.85074 0.06732 0.0
C46 C 0.79353 0.90074 0.03177 0.0
H47 H 0.78958 0.91919 0.01521 0.0
H48 H 0.80955 0.91049 0.06788 0.0
H49 H 0.80414 0.89412 0.99766 0.0
C50 C 0.71483 0.91541 0.25833 0.0
N51 N 0.72754 0.9269 0.20781 0.0
N52 N 0.73165 0.90639 0.18034 0.0
C53 C 0.7225 0.88147 0.21407 0.0
C54 C 0.71104 0.88615 0.26396 0.0
C55 C 0.70205 0.9301 0.29636 0.0
H56 H 0.68688 0.93614 0.27204 0.0
H57 H 0.72134 0.95177 0.31353 0.0
H58 H 0.68881 0.91467 0.33172 0.0
O59 O 0.69733 0.94804 0.11638 0.0
O60 O 0.7049 0.91566 0.06328 0.0
H61 H 0.69995 0.83688 0.17606 0.0
H62 H 0.72286 0.83993 0.23607 0.0
C63 C 0.72191 0.85228 0.19809 0.0
H64 H 0.74179 0.8574 0.17062 0.0
H65 H 0.6926 0.84725 0.07835 0.0
O66 O 0.72976 0.99073 0.22393 0.0
C67 C 0.69042 0.93007 0.07432 0.0
Co68 Co 0.04532 0.7699 0.17029 0.0
Co69 Co 0.09159 0.82469 0.09366 0.0
C70 C 0.02444 0.80335 0.09237 0.0
O71 O 0.01951 0.78259 0.12819 0.0
O72 O 0.05171 0.82313 0.0771 0.0
C73 C 0.99916 0.74584 0.25431 0.0
O74 O 0.99861 0.7714 0.24434 0.0
C75 C 0.12563 0.88699 0.04492 0.0
C76 C 0.1654 0.88668 0.00509 0.0
C77 C 0.15189 0.90472 0.01316 0.0
N78 N 0.12359 0.85957 0.05517 0.0
N79 N 0.14743 0.85953 0.03116 0.0
C80 C 0.10271 0.8958 0.06467 0.0
H81 H 0.09303 0.88485 0.10586 0.0
H82 H 0.11349 0.92128 0.0679 0.0
H83 H 0.08347 0.88726 0.03402 0.0
C84 C 0.0946 0.80282 0.25242 0.0
N85 N 0.0812 0.80239 0.20319 0.0
N86 N 0.10093 0.82564 0.17191 0.0
C87 C 0.12753 0.84189 0.20097 0.0
C88 C 0.12444 0.82777 0.2528 0.0
C89 C 0.08087 0.77705 0.29423 0.0
H90 H 0.07405 0.75485 0.27276 0.0
H91 H 0.05974 0.77556 0.31229 0.0
H92 H 0.09723 0.78055 0.3287 0.0
O93 O 0.05742 0.7483 0.11597 0.0
O94 O 0.08839 0.78686 0.05885 0.0
H95 H 0.16545 0.85799 0.14404 0.0
H96 H 0.17471 0.87902 0.20945 0.0
C97 C 0.15672 0.86751 0.1767 0.0
H98 H 0.15194 0.88468 0.15659 0.0
H99 H 0.15131 0.84088 0.03228 0.0
O100 O 0.0181 0.74047 0.22796 0.0
C101 C 0.07427 0.75831 0.07224 0.0
Co102 Co 0.77034 0.72431 0.83359 0.0
Co103 Co 0.82547 0.73339 0.90999 0.0
C104 C 0.79813 0.77499 0.91794 0.0
O105 O 0.78088 0.76224 0.87577 0.0
O106 O 0.81713 0.76679 0.9349 0.0
C107 C 0.74451 0.74496 0.75098 0.0
O108 O 0.7695 0.77147 0.76161 0.0
C109 C 0.88797 0.7647 0.95983 0.0
C110 C 0.89059 0.72518 0.99495 0.0
C111 C 0.90693 0.75699 0.98974 0.0
N112 N 0.86148 0.73855 0.94795 0.0
N113 N 0.86321 0.71505 0.96927 0.0
C114 C 0.89476 0.7963 0.94323 0.0
H115 H 0.88159 0.79511 0.90492 0.0
H116 H 0.91991 0.81167 0.93614 0.0
H117 H 0.88748 0.80619 0.97771 0.0
C118 C 0.8051 0.71151 0.75012 0.0
N119 N 0.80415 0.72386 0.79975 0.0
N120 N 0.82781 0.72821 0.83066 0.0
C121 C 0.84481 0.71897 0.80093 0.0
C122 C 0.83078 0.70783 0.7491 0.0
C123 C 0.77889 0.69809 0.7092 0.0
H124 H 0.75732 0.68146 0.73119 0.0
H125 H 0.77559 0.71683 0.69209 0.0
H126 H 0.7832 0.68625 0.67392 0.0
O127 O 0.75019 0.68959 0.8879 0.0
O128 O 0.78985 0.69542 0.94006 0.0
H129 H 0.86099 0.69649 0.85602 0.0
H130 H 0.8829 0.71042 0.7918 0.0
C131 C 0.87057 0.7156 0.82502 0.0
H132 H 0.88707 0.73717 0.84698 0.0
H133 H 0.84563 0.69205 0.96634 0.0
O134 O 0.74007 0.7207 0.77637 0.0
C135 C 0.76112 0.6813 0.92837 0.0
Co136 Co 0.27642 0.04383 0.83149 0.0
Co137 Co 0.26742 0.08988 0.90796 0.0
C138 C 0.22246 0.02251 0.91018 0.0
O139 O 0.23829 0.01777 0.87408 0.0
O140 O 0.22967 0.0497 0.9254 0.0
C141 C 0.25457 0.99741 0.74827 0.0
O142 O 0.22827 0.99638 0.75884 0.0
C143 C 0.23836 0.1229 0.95781 0.0
C144 C 0.27855 0.16422 0.99356 0.0
C145 C 0.24677 0.14966 0.98783 0.0
N146 N 0.26406 0.12169 0.946 0.0
N147 N 0.288 0.14644 0.96763 0.0
C148 C 0.20646 0.09861 0.94148 0.0
H149 H 0.19801 0.07928 0.97195 0.0
H150 H 0.20688 0.08942 0.89931 0.0
H151 H 0.19037 0.10786 0.94178 0.0
C152 C 0.29134 0.09236 0.74861 0.0
N153 N 0.27881 0.07915 0.79824 0.0
N154 N 0.27539 0.09892 0.82957 0.0
C155 C 0.28557 0.12542 0.8003 0.0
C156 C 0.29618 0.12216 0.74819 0.0
C157 C 0.30352 0.07875 0.70684 0.0
H158 H 0.31944 0.07259 0.72813 0.0
H159 H 0.28402 0.05726 0.68958 0.0
H160 H 0.31583 0.0949 0.67179 0.0
O161 O 0.31041 0.05668 0.88547 0.0
O162 O 0.30251 0.08752 0.94236 0.0
H163 H 0.30838 0.16379 0.85587 0.0
H164 H 0.29526 0.17245 0.79142 0.0
C165 C 0.28947 0.15474 0.82449 0.0
H166 H 0.26789 0.15009 0.84604 0.0
H167 H 0.31077 0.15108 0.96497 0.0
O168 O 0.27892 0.01673 0.77404 0.0
C169 C 0.31721 0.07369 0.92895 0.0
Co170 Co 0.95835 0.23495 0.83368 0.0
Co171 Co 0.91266 0.17839 0.90878 0.0
C172 C 0.98155 0.2062 0.91574 0.0
O173 O 0.98584 0.224 0.87449 0.0
O174 O 0.95446 0.18688 0.93269 0.0
C175 C 0.99962 0.2607 0.74099 0.0
O176 O 0.99273 0.23184 0.7345 0.0
C177 C 0.88244 0.11551 0.95778 0.0
C178 C 0.8396 0.1116 0.99233 0.0
C179 C 0.85574 0.09592 0.98723 0.0
N180 N 0.8821 0.14168 0.94594 0.0
N181 N 0.85644 0.13916 0.96691 0.0
C182 C 0.90801 0.10969 0.94194 0.0
H183 H 0.91941 0.12239 0.90287 0.0
H184 H 0.89917 0.08459 0.93649 0.0
H185 H 0.92547 0.11829 0.97601 0.0
C186 C 0.91029 0.19996 0.74966 0.0
N187 N 0.92409 0.20105 0.79885 0.0
N188 N 0.90535 0.17685 0.82941 0.0
C189 C 0.87918 0.15941 0.79985 0.0
C190 C 0.88143 0.1736 0.74854 0.0
C191 C 0.92129 0.22677 0.71048 0.0
H192 H 0.92677 0.24771 0.73509 0.0
H193 H 0.94249 0.23047 0.68885 0.0
H194 H 0.90376 0.22302 0.6782 0.0
O195 O 0.94309 0.25379 0.88931 0.0
O196 O 0.90962 0.21338 0.94052 0.0
H197 H 0.84032 0.14162 0.85485 0.0
H198 H 0.83325 0.12019 0.79037 0.0
C199 C 0.85055 0.13283 0.82369 0.0
H200 H 0.85642 0.1168 0.84527 0.0
H201 H 0.85047 0.15635 0.96406 0.0
O202 O 0.98623 0.26723 0.77955 0.0
C203 C 0.92381 0.24222 0.92961 0.0
Co204 Co 0.90265 0.60946 0.49813 0.0
Co205 Co 0.84627 0.60075 0.42613 0.0
C206 C 0.86813 0.55554 0.41952 0.0
O207 O 0.88972 0.57162 0.45377 0.0
O208 O 0.84759 0.56253 0.40749 0.0
C209 C 0.92779 0.58627 0.5777 0.0
O210 O 0.90278 0.56007 0.56558 0.0
C211 C 0.78381 0.5724 0.37756 0.0
C212 C 0.78251 0.61309 0.34495 0.0
C213 C 0.76536 0.58124 0.34897 0.0
N214 N 0.81072 0.59792 0.39015 0.0
N215 N 0.80978 0.62215 0.37041 0.0
C216 C 0.7763 0.54025 0.3916 0.0
H217 H 0.7874 0.53251 0.3602 0.0
H218 H 0.78575 0.53987 0.43353 0.0
H219 H 0.75098 0.52409 0.39074 0.0
C220 C 0.87044 0.62429 0.58448 0.0
N221 N 0.87018 0.61176 0.53431 0.0
N222 N 0.84645 0.60847 0.50482 0.0
C223 C 0.8308 0.61881 0.53576 0.0
C224 C 0.84562 0.62936 0.58709 0.0
C225 C 0.89692 0.63625 0.6247 0.0
H226 H 0.91861 0.65247 0.60252 0.0
H227 H 0.89936 0.61671 0.64033 0.0
H228 H 0.89353 0.64816 0.66095 0.0
O229 O 0.92338 0.64424 0.44545 0.0
O230 O 0.88352 0.63618 0.39147 0.0
H231 H 0.81472 0.64229 0.48303 0.0
H232 H 0.79362 0.62846 0.54803 0.0
C233 C 0.80515 0.62302 0.5137 0.0
H234 H 0.78796 0.60171 0.49185 0.0
H235 H 0.8279 0.64488 0.37387 0.0
O236 O 0.93263 0.61107 0.55393 0.0
C237 C 0.91224 0.65119 0.40356 0.0
Co238 Co 0.39303 0.2954 0.50198 0.0
Co239 Co 0.40632 0.25009 0.43143 0.0
C240 C 0.44938 0.31693 0.4266 0.0
O241 O 0.43149 0.32105 0.45885 0.0
O242 O 0.4444 0.28995 0.41549 0.0
C243 C 0.40773 0.33263 0.60097 0.0
O244 O 0.4251 0.32037 0.61181 0.0
C245 C 0.43452 0.21647 0.37869 0.0
C246 C 0.39308 0.17342 0.35162 0.0
C247 C 0.42503 0.18867 0.35137 0.0
N248 N 0.40924 0.21756 0.39472 0.0
N249 N 0.38458 0.19179 0.37815 0.0
C250 C 0.46696 0.24176 0.38852 0.0
H251 H 0.47257 0.26072 0.35826 0.0
H252 H 0.46908 0.25118 0.43148 0.0
H253 H 0.48361 0.23343 0.38269 0.0
C254 C 0.37523 0.24569 0.58512 0.0
N255 N 0.39013 0.25999 0.53755 0.0
N256 N 0.39735 0.24173 0.50964 0.0
C257 C 0.38844 0.2158 0.54012 0.0
C258 C 0.37395 0.21744 0.58872 0.0
C259 C 0.35692 0.25571 0.61996 0.0
H260 H 0.34652 0.26588 0.59231 0.0
H261 H 0.37237 0.27333 0.65063 0.0
H262 H 0.33831 0.23615 0.64369 0.0
O263 O 0.35942 0.28145 0.44744 0.0
O264 O 0.37111 0.25175 0.39478 0.0
H265 H 0.36989 0.17496 0.49029 0.0
H266 H 0.38709 0.17263 0.55509 0.0
C267 C 0.38938 0.18804 0.51963 0.0
H268 H 0.41136 0.19526 0.49705 0.0
H269 H 0.3619 0.18681 0.38469 0.0
O270 O 0.39109 0.32431 0.55701 0.0
C271 C 0.35466 0.26417 0.40501 0.0
Co272 Co 0.71039 0.09941 0.49687 0.0
Co273 Co 0.75676 0.15881 0.42976 0.0
C274 C 0.68969 0.13544 0.42426 0.0
O275 O 0.68497 0.11304 0.45588 0.0
O276 O 0.71691 0.15696 0.41301 0.0
C277 C 0.6687 0.07342 0.58821 0.0
O278 O 0.67729 0.10255 0.59725 0.0
C279 C 0.78982 0.22136 0.38063 0.0
C280 C 0.83325 0.22414 0.35235 0.0
C281 C 0.81743 0.24026 0.35326 0.0
N282 N 0.7893 0.19514 0.39548 0.0
N283 N 0.81534 0.19697 0.37833 0.0
C284 C 0.76405 0.22774 0.39107 0.0
H285 H 0.75402 0.21917 0.43328 0.0
H286 H 0.77217 0.2528 0.38755 0.0
H287 H 0.74564 0.21514 0.35949 0.0
C288 C 0.75815 0.13041 0.58392 0.0
N289 N 0.74497 0.1314 0.53522 0.0
N290 N 0.76404 0.15695 0.50818 0.0
C291 C 0.78955 0.17339 0.53994 0.0
C292 C 0.7867 0.15695 0.58874 0.0
C293 C 0.74664 0.10211 0.61935 0.0
H294 H 0.74072 0.08206 0.59175 0.0
H295 H 0.7256 0.09804 0.64211 0.0
H296 H 0.76404 0.10429 0.65063 0.0
O297 O 0.72536 0.08116 0.44137 0.0
O298 O 0.7564 0.12311 0.39121 0.0
H299 H 0.8307 0.19505 0.49075 0.0
H300 H 0.83349 0.2141 0.55644 0.0
C301 C 0.81805 0.20177 0.52056 0.0
H302 H 0.8117 0.21738 0.49869 0.0
H303 H 0.82069 0.17946 0.38372 0.0
O304 O 0.68097 0.06664 0.54807 0.0
C305 C 0.74356 0.09412 0.40023 0.0
Co306 Co 0.43371 0.05875 0.1721 0.0
Co307 Co 0.49189 0.07145 0.24298 0.0
C308 C 0.46843 0.11509 0.24663 0.0
O309 O 0.44651 0.09753 0.21399 0.0
O310 O 0.48991 0.10947 0.25874 0.0
C311 C 0.40908 0.07455 0.0783 0.0
O312 O 0.43832 0.09516 0.07031 0.0
C313 C 0.55402 0.10048 0.29387 0.0
C314 C 0.55603 0.05961 0.3233 0.0
C315 C 0.57263 0.09153 0.32162 0.0
N316 N 0.52757 0.07492 0.27937 0.0
N317 N 0.52891 0.05059 0.29734 0.0
C318 C 0.56094 0.1327 0.2823 0.0
H319 H 0.54801 0.13882 0.31264 0.0
H320 H 0.55301 0.13405 0.23945 0.0
H321 H 0.58599 0.14947 0.2867 0.0
C322 C 0.46661 0.04276 0.08717 0.0
N323 N 0.4665 0.05643 0.13587 0.0
N324 N 0.49141 0.06256 0.16476 0.0
C325 C 0.50844 0.05361 0.13443 0.0
C326 C 0.49316 0.04062 0.08447 0.0
C327 C 0.4391 0.02627 0.0498 0.0
H328 H 0.4185 0.01176 0.07602 0.0
H329 H 0.43542 0.0434 0.02679 0.0
H330 H 0.44204 0.01144 0.01867 0.0
O331 O 0.41439 0.02517 0.227 0.0
O332 O 0.45543 0.03616 0.27993 0.0
H333 H 0.5289 0.0338 0.18588 0.0
H334 H 0.54922 0.05 0.1211 0.0
C335 C 0.53632 0.05321 0.1559 0.0
H336 H 0.55168 0.07512 0.1781 0.0
H337 H 0.51119 0.0278 0.29215 0.0
O338 O 0.40179 0.05552 0.11864 0.0
C339 C 0.42662 0.01994 0.26929 0.0
Co340 Co 0.94235 0.37553 0.16579 0.0
Co341 Co 0.93297 0.42269 0.23817 0.0
C342 C 0.88808 0.35585 0.24442 0.0
O343 O 0.90444 0.35051 0.21041 0.0
O344 O 0.89472 0.3833 0.25609 0.0
C345 C 0.91891 0.3299 0.08102 0.0
O346 O 0.89386 0.33163 0.08965 0.0
C347 C 0.90466 0.45672 0.28706 0.0
C348 C 0.94531 0.49848 0.32039 0.0
C349 C 0.91347 0.48389 0.31598 0.0
N350 N 0.93018 0.45529 0.27462 0.0
N351 N 0.95439 0.48032 0.29479 0.0
C352 C 0.87252 0.43226 0.27245 0.0
H353 H 0.8723 0.42263 0.23039 0.0
H354 H 0.85644 0.44151 0.2733 0.0
H355 H 0.86454 0.41326 0.30355 0.0
C356 C 0.95799 0.42334 0.08072 0.0
N357 N 0.94491 0.41056 0.13031 0.0
N358 N 0.9408 0.4305 0.15975 0.0
C359 C 0.9508 0.45653 0.12914 0.0
C360 C 0.96217 0.45287 0.07821 0.0
C361 C 0.97155 0.40989 0.04153 0.0
H362 H 0.98608 0.40288 0.06553 0.0
H363 H 0.95264 0.38895 0.02168 0.0
H364 H 0.98564 0.42645 0.00812 0.0
O365 O 0.9771 0.38932 0.21857 0.0
O366 O 0.96826 0.42054 0.27279 0.0
H367 H 0.97315 0.49613 0.18205 0.0
H368 H 0.95901 0.50285 0.11697 0.0
C369 C 0.95396 0.48595 0.15126 0.0
H370 H 0.93236 0.48112 0.17294 0.0
H371 H 0.97712 0.48487 0.29148 0.0
O372 O 0.94326 0.34711 0.10897 0.0
C373 C 0.98359 0.40713 0.26081 0.0
Co374 Co 0.62809 0.57023 0.16814 0.0
Co375 Co 0.58118 0.5144 0.2422 0.0
C376 C 0.64796 0.53565 0.24638 0.0
O377 O 0.6531 0.55716 0.21211 0.0
O378 O 0.62054 0.51506 0.2591 0.0
C379 C 0.67244 0.59061 0.08133 0.0
O380 O 0.66978 0.56343 0.08986 0.0
C381 C 0.54574 0.45187 0.29 0.0
C382 C 0.50836 0.45425 0.33512 0.0
C383 C 0.52041 0.43513 0.32452 0.0
N384 N 0.5487 0.47977 0.2807 0.0
N385 N 0.52621 0.48098 0.30772 0.0
C386 C 0.56738 0.44193 0.26787 0.0
H387 H 0.57766 0.45383 0.22761 0.0
H388 H 0.55525 0.41651 0.26204 0.0
H389 H 0.58631 0.4484 0.2986 0.0
C390 C 0.57935 0.53827 0.08496 0.0
N391 N 0.59247 0.5379 0.13403 0.0
N392 N 0.57263 0.51401 0.16396 0.0
C393 C 0.54629 0.4981 0.1341 0.0
C394 C 0.5497 0.51308 0.08311 0.0
C395 C 0.59281 0.56514 0.04544 0.0
H396 H 0.60082 0.58687 0.06938 0.0
H397 H 0.6131 0.56642 0.02415 0.0
H398 H 0.5759 0.56308 0.01313 0.0
O399 O 0.61536 0.59205 0.22093 0.0
O400 O 0.5843 0.55242 0.27618 0.0
H401 H 0.50821 0.48127 0.19082 0.0
H402 H 0.49906 0.46127 0.12426 0.0
C403 C 0.51695 0.4722 0.15735 0.0
H404 H 0.52158 0.45467 0.17637 0.0
H405 H 0.52337 0.50029 0.30826 0.0
O406 O 0.65624 0.59871 0.11017 0.0
C407 C 0.59787 0.5811 0.26372 0.0
Co408 Co 0.57038 0.94423 0.83773 0.0
Co409 Co 0.51245 0.93223 0.766 0.0
C410 C 0.53529 0.88806 0.76365 0.0
O411 O 0.55709 0.90537 0.79662 0.0
O412 O 0.51408 0.89396 0.7508 0.0
C413 C 0.59606 0.92822 0.9303 0.0
O414 O 0.56702 0.90728 0.93915 0.0
C415 C 0.44989 0.90322 0.71679 0.0
C416 C 0.44859 0.94385 0.68378 0.0
C417 C 0.43149 0.912 0.68777 0.0
N418 N 0.47671 0.9288 0.72966 0.0
N419 N 0.47576 0.95298 0.70965 0.0
C420 C 0.44242 0.87111 0.73099 0.0
H421 H 0.45399 0.86355 0.70027 0.0
H422 H 0.45142 0.87071 0.77335 0.0
H423 H 0.41714 0.85483 0.72924 0.0
C424 C 0.53816 0.96123 0.9219 0.0
N425 N 0.53804 0.94739 0.87331 0.0
N426 N 0.51332 0.94167 0.84421 0.0
C427 C 0.49654 0.95097 0.87445 0.0
C428 C 0.51192 0.96391 0.92442 0.0
C429 C 0.56551 0.97684 0.95987 0.0
H430 H 0.58637 0.99134 0.93425 0.0
H431 H 0.56868 0.95915 0.98202 0.0
H432 H 0.56272 0.9915 0.99161 0.0
O433 O 0.58968 0.97686 0.7815 0.0
O434 O 0.5492 0.96659 0.72751 0.0
H435 H 0.47633 0.97045 0.82147 0.0
H436 H 0.45646 0.9559 0.8873 0.0
C437 C 0.46882 0.95165 0.85284 0.0
H438 H 0.45294 0.92943 0.83203 0.0
H439 H 0.49382 0.97573 0.71322 0.0
O440 O 0.60261 0.94749 0.89057 0.0
C441 C 0.57804 0.98215 0.73836 0.0
Co442 Co 0.05799 0.62537 0.8311 0.0
Co443 Co 0.07147 0.58032 0.76016 0.0
C444 C 0.11479 0.64728 0.75747 0.0
O445 O 0.09688 0.65136 0.78971 0.0
O446 O 0.10953 0.62033 0.74525 0.0
C447 C 0.07382 0.66584 0.92488 0.0
O448 O 0.0944 0.65718 0.93283 0.0
C449 C 0.10104 0.5472 0.71128 0.0
C450 C 0.06069 0.5055 0.67694 0.0
C451 C 0.09252 0.52031 0.68158 0.0
N452 N 0.07534 0.54834 0.72364 0.0
N453 N 0.05133 0.52334 0.70286 0.0
C454 C 0.13302 0.57157 0.72693 0.0
H455 H 0.14138 0.59065 0.69593 0.0
H456 H 0.13282 0.58111 0.76887 0.0
H457 H 0.14902 0.56222 0.72685 0.0
C458 C 0.04155 0.57622 0.91519 0.0
N459 N 0.05558 0.59022 0.86687 0.0
N460 N 0.06217 0.57171 0.83819 0.0
C461 C 0.05329 0.54573 0.86842 0.0
C462 C 0.03972 0.54769 0.91799 0.0
C463 C 0.02487 0.58713 0.95238 0.0
H464 H 0.01098 0.59393 0.926 0.0
H465 H 0.04195 0.60754 0.97639 0.0
H466 H 0.00945 0.56908 0.98261 0.0
O467 O 0.02476 0.6113 0.7757 0.0
O468 O 0.0364 0.58177 0.72252 0.0
H469 H 0.03475 0.50612 0.81531 0.0
H470 H 0.04932 0.50115 0.88137 0.0
C471 C 0.05337 0.51769 0.8469 0.0
H472 H 0.0758 0.52454 0.82637 0.0
H473 H 0.02853 0.51858 0.70603 0.0
O474 O 0.05468 0.65399 0.88474 0.0
C475 C 0.01999 0.59419 0.73304 0.0
Co476 Co 0.37697 0.44023 0.84299 0.0
Co477 Co 0.4235 0.48987 0.76017 0.0
C478 C 0.35376 0.46453 0.75904 0.0
O479 O 0.35085 0.45495 0.80903 0.0
O480 O 0.38022 0.47811 0.73546 0.0
C481 C 0.33005 0.41282 0.92622 0.0
O482 O 0.32676 0.43677 0.91541 0.0
C483 C 0.45378 0.55175 0.70693 0.0
C484 C 0.49568 0.55402 0.67121 0.0
C485 C 0.48044 0.57059 0.67669 0.0
N486 N 0.45336 0.52524 0.71905 0.0
N487 N 0.4784 0.52674 0.69722 0.0
C488 C 0.42904 0.55866 0.72352 0.0
H489 H 0.41603 0.54445 0.76028 0.0
H490 H 0.43907 0.58359 0.73302 0.0
H491 H 0.41278 0.55292 0.68791 0.0
C492 C 0.42651 0.47484 0.92329 0.0
N493 N 0.41298 0.47278 0.87347 0.0
N494 N 0.4328 0.49428 0.83937 0.0
C495 C 0.45993 0.51067 0.86688 0.0
C496 C 0.45681 0.49875 0.92085 0.0
C497 C 0.41243 0.45097 0.96846 0.0
H498 H 0.40728 0.42821 0.95149 0.0
H499 H 0.39033 0.44906 0.98202 0.0
H500 H 0.42795 0.45679 0.00528 0.0
O501 O 0.38815 0.41804 0.78507 0.0
O502 O 0.42644 0.45433 0.73371 0.0
H503 H 0.49649 0.52142 0.80893 0.0
H504 H 0.50823 0.54559 0.87073 0.0
C505 C 0.48952 0.53359 0.8394 0.0
H506 H 0.48604 0.55081 0.81611 0.0
H507 H 0.48382 0.50916 0.70043 0.0
O508 O 0.35107 0.41001 0.90143 0.0
C509 C 0.40844 0.42611 0.74627 0.0
Co510 Co 0.10242 0.39461 0.49716 0.0
Co511 Co 0.15823 0.4031 0.57119 0.0
C512 C 0.13786 0.44914 0.5753 0.0
O513 O 0.11639 0.43303 0.54072 0.0
O514 O 0.15811 0.44195 0.58891 0.0
C515 C 0.07753 0.4169 0.41427 0.0
O516 O 0.10273 0.44331 0.42438 0.0
C517 C 0.22062 0.42475 0.62179 0.0
C518 C 0.21822 0.37984 0.6303 0.0
C519 C 0.23885 0.41135 0.63482 0.0
N520 N 0.1923 0.4022 0.60585 0.0
N521 N 0.1909 0.37541 0.61264 0.0
C522 C 0.22782 0.45732 0.63119 0.0
H523 H 0.20691 0.45736 0.64656 0.0
H524 H 0.23458 0.47012 0.59088 0.0
H525 H 0.24638 0.46927 0.66269 0.0
C526 C 0.13396 0.37754 0.41328 0.0
N527 N 0.13421 0.39079 0.46264 0.0
N528 N 0.15836 0.39526 0.49217 0.0
C529 C 0.17481 0.38584 0.46109 0.0
C530 C 0.15956 0.37377 0.41079 0.0
C531 C 0.10723 0.36434 0.37354 0.0
H532 H 0.105 0.38343 0.35483 0.0
H533 H 0.11025 0.351 0.33937 0.0
H534 H 0.0856 0.34921 0.39687 0.0
O535 O 0.08083 0.36073 0.55058 0.0
O536 O 0.11991 0.36886 0.60656 0.0
H537 H 0.19525 0.36346 0.50532 0.0
H538 H 0.21644 0.38446 0.44447 0.0
C539 C 0.2027 0.38487 0.48073 0.0
H540 H 0.2174 0.40531 0.50699 0.0
H541 H 0.17147 0.3541 0.60368 0.0
O542 O 0.0727 0.39273 0.44042 0.0
C543 C 0.09123 0.35421 0.59405 0.0
Co544 Co 0.61037 0.71076 0.50397 0.0
Co545 Co 0.60108 0.7561 0.58155 0.0
C546 C 0.5549 0.6893 0.58039 0.0
O547 O 0.57142 0.68462 0.54561 0.0
O548 O 0.56203 0.7165 0.59525 0.0
C549 C 0.58903 0.66566 0.41762 0.0
O550 O 0.56265 0.6646 0.42741 0.0
C551 C 0.5738 0.7914 0.62874 0.0
C552 C 0.61211 0.82617 0.68041 0.0
C553 C 0.58168 0.81561 0.6656 0.0
N554 N 0.59844 0.78761 0.62217 0.0
N555 N 0.62127 0.80851 0.65316 0.0
C556 C 0.5432 0.77173 0.60133 0.0
H557 H 0.54607 0.76139 0.56219 0.0
H558 H 0.53187 0.7855 0.5921 0.0
H559 H 0.52809 0.75281 0.63044 0.0
C560 C 0.62802 0.7615 0.42393 0.0
N561 N 0.6143 0.74731 0.47229 0.0
N562 N 0.61036 0.7666 0.5041 0.0
C563 C 0.62121 0.79366 0.4764 0.0
C564 C 0.63298 0.79138 0.42479 0.0
C565 C 0.64048 0.74833 0.38182 0.0
H566 H 0.65546 0.74101 0.40332 0.0
H567 H 0.621 0.72758 0.36248 0.0
H568 H 0.65386 0.76522 0.34834 0.0
O569 O 0.64409 0.72221 0.55795 0.0
O570 O 0.63547 0.75222 0.61576 0.0
H571 H 0.64075 0.82959 0.53763 0.0
H572 H 0.63283 0.84147 0.47089 0.0
C573 C 0.62435 0.82239 0.50195 0.0
H574 H 0.60162 0.81754 0.5185 0.0
H575 H 0.643 0.81045 0.65629 0.0
O576 O 0.61299 0.68435 0.44503 0.0
C577 C 0.65044 0.73871 0.60196 0.0
Co578 Co 0.29498 0.90148 0.50392 0.0
Co579 Co 0.24773 0.84533 0.57651 0.0
C580 C 0.31483 0.86731 0.58277 0.0
O581 O 0.32022 0.88882 0.54832 0.0
O582 O 0.28733 0.84674 0.59494 0.0
C583 C 0.34263 0.92627 0.42289 0.0
O584 O 0.34353 0.901 0.43401 0.0
C585 C 0.21397 0.78352 0.62747 0.0
C586 C 0.17142 0.78201 0.65767 0.0
C587 C 0.18648 0.76513 0.6556 0.0
N588 N 0.21511 0.8101 0.61318 0.0
N589 N 0.18964 0.80907 0.63156 0.0
C590 C 0.23898 0.77623 0.61532 0.0
H591 H 0.24853 0.7846 0.57276 0.0
H592 H 0.2303 0.75106 0.61867 0.0
H593 H 0.25792 0.78847 0.64611 0.0
C594 C 0.24766 0.86896 0.41805 0.0
N595 N 0.26012 0.86891 0.46814 0.0
N596 N 0.23991 0.84515 0.49786 0.0
C597 C 0.21393 0.82916 0.46707 0.0
C598 C 0.21793 0.84386 0.41564 0.0
C599 C 0.26181 0.89543 0.37772 0.0
H600 H 0.26751 0.91711 0.40006 0.0
H601 H 0.28363 0.89784 0.36118 0.0
H602 H 0.24616 0.89205 0.34207 0.0
O603 O 0.28103 0.92237 0.55637 0.0
O604 O 0.24955 0.88259 0.61083 0.0
H605 H 0.17397 0.81259 0.519 0.0
H606 H 0.1676 0.79111 0.4548 0.0
C607 C 0.18429 0.80321 0.48924 0.0
H608 H 0.18884 0.78657 0.51208 0.0
H609 H 0.1848 0.82697 0.62662 0.0
O610 O 0.3231 0.93134 0.44781 0.0
C611 C 0.26308 0.91126 0.59847 0.0
C612 C 0.27676 0.24477 0.34442 0.0
C613 C 0.28511 0.25467 0.28805 0.0
C614 C 0.33931 0.27218 0.30944 0.0
C615 C 0.33059 0.26004 0.36443 0.0
N616 N 0.29064 0.22973 0.43152 0.0
N617 N 0.32293 0.27121 0.21365 0.0
C618 C 0.29917 0.24483 0.38117 0.0
C619 C 0.31601 0.26651 0.26957 0.0
N620 N 0.24789 0.23666 0.36364 0.0
N621 N 0.36986 0.29028 0.2959 0.0
H622 H 0.30636 0.2665 0.18281 0.0
H623 H 0.34445 0.27677 0.19736 0.0
H624 H 0.38772 0.29545 0.32413 0.0
H625 H 0.37743 0.30254 0.2584 0.0
H626 H 0.24165 0.23258 0.40579 0.0
H627 H 0.23083 0.23657 0.33836 0.0
H628 H 0.26771 0.21546 0.44342 0.0
H629 H 0.30647 0.22921 0.45941 0.0
C630 C 0.74313 0.05295 0.26617 0.0
C631 C 0.75394 0.0334 0.28657 0.0
C632 C 0.76324 0.05806 0.37886 0.0
C633 C 0.74864 0.07455 0.36032 0.0
N634 N 0.72022 0.08425 0.28904 0.0
N635 N 0.7709 0.01443 0.3641 0.0
C636 C 0.73749 0.07121 0.3046 0.0
C637 C 0.76332 0.03528 0.34335 0.0
N638 N 0.73927 0.05489 0.20982 0.0
N639 N 0.77768 0.06474 0.42985 0.0
H640 H 0.77124 0.99733 0.33966 0.0
H641 H 0.77443 0.01246 0.40659 0.0
H642 H 0.7782 0.08144 0.4568 0.0
H643 H 0.79149 0.05582 0.44322 0.0
H644 H 0.73449 0.0711 0.19217 0.0
H645 H 0.74394 0.04247 0.18006 0.0
H646 H 0.70859 0.07967 0.25089 0.0
H647 H 0.71515 0.09745 0.31617 0.0
C648 C 0.95613 0.69202 0.27156 0.0
C649 C 0.97608 0.72218 0.2924 0.0
C650 C 0.95095 0.70675 0.38448 0.0
C651 C 0.9337 0.67584 0.36522 0.0
N652 N 0.92412 0.63785 0.29377 0.0
N653 N 0.9955 0.75762 0.37052 0.0
C654 C 0.93739 0.66812 0.30962 0.0
C655 C 0.97425 0.72947 0.34935 0.0
N656 N 0.9541 0.68642 0.21513 0.0
N657 N 0.94445 0.71452 0.43563 0.0
H658 H 0.0129 0.77493 0.34626 0.0
H659 H 0.99746 0.76297 0.41307 0.0
H660 H 0.92748 0.69843 0.46236 0.0
H661 H 0.95394 0.73721 0.44951 0.0
H662 H 0.93759 0.66561 0.19733 0.0
H663 H 0.9667 0.70352 0.18548 0.0
H664 H 0.9288 0.63083 0.25566 0.0
H665 H 0.91082 0.61956 0.32084 0.0
C666 C 0.7059 0.75552 0.62177 0.0
C667 C 0.67472 0.74075 0.63995 0.0
C668 C 0.69005 0.73215 0.73264 0.0
C669 C 0.72067 0.74382 0.71268 0.0
N670 N 0.75704 0.76256 0.63574 0.0
N671 N 0.63603 0.70953 0.70852 0.0
C672 C 0.72848 0.7545 0.65655 0.0
C673 C 0.66647 0.72754 0.69426 0.0
N674 N 0.71408 0.77134 0.57211 0.0
N675 N 0.68369 0.72678 0.78866 0.0
H676 H 0.61804 0.70499 0.68104 0.0
H677 H 0.62869 0.69665 0.7454 0.0
H678 H 0.70048 0.73085 0.81867 0.0
H679 H 0.66244 0.72135 0.80608 0.0
H680 H 0.73692 0.78538 0.55948 0.0
H681 H 0.69815 0.77261 0.5456 0.0
H682 H 0.76283 0.76717 0.59349 0.0
H683 H 0.77426 0.76216 0.65971 0.0
C684 C 0.24579 0.97243 0.65334 0.0
C685 C 0.25543 0.97457 0.71002 0.0
C686 C 0.27181 0.93672 0.69205 0.0
C687 C 0.25988 0.93267 0.63682 0.0
N688 N 0.23087 0.9425 0.56729 0.0
N689 N 0.27057 0.95339 0.78669 0.0
C690 C 0.24551 0.94935 0.61807 0.0
C691 C 0.26644 0.95518 0.73039 0.0
N692 N 0.23811 0.99319 0.63253 0.0
N693 N 0.28945 0.92404 0.70724 0.0
H694 H 0.26592 0.96577 0.81656 0.0
H695 H 0.27549 0.93725 0.80423 0.0
H696 H 0.2946 0.91097 0.67988 0.0
H697 H 0.30148 0.929 0.74501 0.0
H698 H 0.23431 0.99496 0.5901 0.0
H699 H 0.23794 0.01041 0.65689 0.0
H700 H 0.21715 0.95151 0.55387 0.0
H701 H 0.23024 0.92572 0.54042 0.0
C702 C 0.05167 0.28547 0.69338 0.0
C703 C 0.02371 0.28546 0.70509 0.0
C704 C 0.04373 0.3341 0.65329 0.0
C705 C 0.06882 0.33098 0.63368 0.0
N706 N 0.09404 0.30059 0.62827 0.0
N707 N 0.99113 0.30758 0.68613 0.0
C708 C 0.07211 0.30579 0.6518 0.0
C709 C 0.01917 0.30922 0.68243 0.0
N710 N 0.05966 0.2674 0.72394 0.0
N711 N 0.04381 0.36129 0.64614 0.0
H712 H 0.97198 0.28939 0.70512 0.0
H713 H 0.98601 0.32273 0.66498 0.0
H714 H 0.06205 0.3807 0.62734 0.0
H715 H 0.02748 0.36567 0.66463 0.0
H716 H 0.08108 0.26874 0.72023 0.0
H717 H 0.04664 0.25391 0.75771 0.0
H718 H 0.09525 0.28072 0.63614 0.0
H719 H 0.10905 0.31456 0.59683 0.0
C720 C 0.9423 0.57556 0.6726 0.0
C721 C 0.95094 0.58673 0.61691 0.0
C722 C 0.00502 0.60379 0.63833 0.0
C723 C 0.99607 0.5905 0.6925 0.0
N724 N 0.95587 0.55883 0.75815 0.0
N725 N 0.98909 0.60469 0.54294 0.0
C726 C 0.96457 0.5749 0.70877 0.0
C727 C 0.98191 0.5989 0.59862 0.0
N728 N 0.91331 0.5669 0.69183 0.0
N729 N 0.03561 0.62226 0.62556 0.0
H730 H 0.97266 0.60055 0.51211 0.0
H731 H 0.0107 0.61058 0.52661 0.0
H732 H 0.05329 0.62693 0.65389 0.0
H733 H 0.04334 0.63528 0.58889 0.0
H734 H 0.90684 0.56188 0.73374 0.0
H735 H 0.89633 0.56724 0.66697 0.0
H736 H 0.93291 0.54429 0.76953 0.0
H737 H 0.97162 0.55785 0.78559 0.0
C738 C 0.43594 0.40071 0.70234 0.0
C739 C 0.40855 0.40206 0.71015 0.0
C740 C 0.38001 0.35578 0.65265 0.0
C741 C 0.40802 0.35639 0.63911 0.0
N742 N 0.46402 0.38541 0.63998 0.0
N743 N 0.35722 0.38678 0.67726 0.0
C744 C 0.43646 0.38046 0.66101 0.0
C745 C 0.38129 0.38126 0.68098 0.0
N746 N 0.46131 0.41837 0.73475 0.0
N747 N 0.35203 0.33062 0.64045 0.0
H748 H 0.35846 0.40679 0.69313 0.0
H749 H 0.33789 0.37368 0.6522 0.0
H750 H 0.34966 0.3107 0.62217 0.0
H751 H 0.33119 0.3283 0.65442 0.0
H752 H 0.48087 0.41597 0.73442 0.0
H753 H 0.46166 0.43328 0.76572 0.0
H754 H 0.48518 0.40437 0.65115 0.0
H755 H 0.4657 0.37291 0.60652 0.0
C756 C 0.5968 0.03 0.67916 0.0
C757 C 0.5994 0.00429 0.6964 0.0
C758 C 0.64774 0.02393 0.64419 0.0
C759 C 0.64427 0.04875 0.6236 0.0
N760 N 0.61012 0.06934 0.60841 0.0
N761 N 0.6218 0.97189 0.68078 0.0
C762 C 0.61722 0.05009 0.63729 0.0
C763 C 0.62317 0.99974 0.67442 0.0
N764 N 0.57556 0.03585 0.70382 0.0
N765 N 0.67488 0.02392 0.63768 0.0
H766 H 0.60354 0.95308 0.70092 0.0
H767 H 0.63693 0.96639 0.66057 0.0
H768 H 0.69401 0.0413 0.61721 0.0
H769 H 0.67944 0.00808 0.65764 0.0
H770 H 0.57497 0.05613 0.69692 0.0
H771 H 0.56028 0.02173 0.73482 0.0
H772 H 0.5893 0.06912 0.61343 0.0
H773 H 0.62323 0.08287 0.57473 0.0
C774 C 0.38602 0.10248 0.02764 0.0
C775 C 0.38481 0.07421 0.04159 0.0
C776 C 0.33611 0.04599 0.98988 0.0
C777 C 0.3403 0.07428 0.96842 0.0
N778 N 0.3718 0.12966 0.96067 0.0
N779 N 0.36075 0.01893 0.02674 0.0
C780 C 0.36599 0.10264 0.98554 0.0
C781 C 0.36039 0.04588 0.02032 0.0
N782 N 0.40499 0.12889 0.05664 0.0
N783 N 0.30846 0.01929 0.98334 0.0
H784 H 0.37819 0.01745 0.04754 0.0
H785 H 0.34525 0.99853 0.00641 0.0
H786 H 0.2895 0.01841 0.96322 0.0
H787 H 0.30322 0.9987 0.00336 0.0
H788 H 0.40457 0.14937 0.05146 0.0
H789 H 0.41844 0.12946 0.09052 0.0
H790 H 0.39202 0.15058 0.96763 0.0
H791 H 0.35784 0.13068 0.92921 0.0
C792 C 0.92551 0.28424 0.06352 0.0
C793 C 0.91809 0.30627 0.04247 0.0
C794 C 0.90921 0.2826 0.94909 0.0
C795 C 0.9205 0.26333 0.96875 0.0
N796 N 0.94423 0.24918 0.04271 0.0
N797 N 0.90564 0.32866 0.96402 0.0
C798 C 0.92987 0.26496 0.02549 0.0
C799 C 0.91048 0.30597 0.98495 0.0
N800 N 0.92712 0.2808 0.12013 0.0
N801 N 0.89644 0.27792 0.89678 0.0
H802 H 0.90582 0.34589 0.98885 0.0
H803 H 0.90367 0.33178 0.92135 0.0
H804 H 0.89499 0.26086 0.86964 0.0
H805 H 0.88486 0.28899 0.88214 0.0
H806 H 0.92919 0.26289 0.13793 0.0
H807 H 0.92311 0.29381 0.14964 0.0
H808 H 0.95491 0.25262 0.08165 0.0
H809 H 0.94799 0.23466 0.01662 0.0
C810 C 0.71893 0.64207 0.06279 0.0
C811 C 0.69618 0.61284 0.04221 0.0
C812 C 0.71934 0.62687 0.94828 0.0
C813 C 0.73942 0.65731 0.96758 0.0
N814 N 0.75465 0.69555 0.04121 0.0
N815 N 0.67247 0.57801 0.96419 0.0
C816 C 0.7383 0.66539 0.02433 0.0
C817 C 0.69584 0.60527 0.98464 0.0
N818 N 0.72297 0.64722 0.11931 0.0
N819 N 0.72336 0.61836 0.89584 0.0
H820 H 0.65511 0.56133 0.98941 0.0
H821 H 0.66896 0.57284 0.92159 0.0
H822 H 0.74048 0.63359 0.86834 0.0
H823 H 0.71163 0.59567 0.88142 0.0
H824 H 0.74138 0.66701 0.1366 0.0
H825 H 0.70998 0.63039 0.14913 0.0
H826 H 0.75164 0.70303 0.08027 0.0
H827 H 0.76913 0.71366 0.01476 0.0
C828 C 0.64586 0.957 0.98517 0.0
C829 C 0.62104 0.92862 0.96508 0.0
C830 C 0.64126 0.90045 0.01834 0.0
C831 C 0.66724 0.92892 0.03421 0.0
N832 N 0.69872 0.98376 0.01757 0.0
N833 N 0.60091 0.87397 0.94955 0.0
C834 C 0.67092 0.95705 0.01298 0.0
C835 C 0.62033 0.90045 0.97792 0.0
N836 N 0.6451 0.98383 0.98047 0.0
N837 N 0.63589 0.87354 0.04298 0.0
H838 H 0.58678 0.87327 0.91678 0.0
H839 H 0.60157 0.85357 0.95395 0.0
H840 H 0.65043 0.87261 0.0733 0.0
H841 H 0.61553 0.85261 0.03701 0.0
H842 H 0.66118 0.00433 0.99986 0.0
H843 H 0.62679 0.98504 0.96262 0.0
H844 H 0.70338 0.00427 0.99789 0.0
H845 H 0.71819 0.98462 0.03539 0.0
C846 C 0.0457 0.68654 0.98276 0.0
C847 C 0.07384 0.69015 0.96102 0.0
C848 C 0.10278 0.738 0.01531 0.0
C849 C 0.07455 0.73557 0.03286 0.0
N850 N 0.01945 0.71235 0.01929 0.0
N851 N 0.12844 0.72442 0.94426 0.0
C852 C 0.04608 0.71127 0.01245 0.0
C853 C 0.10225 0.71734 0.97379 0.0
N854 N 0.01869 0.65915 0.97752 0.0
N855 N 0.13001 0.75937 0.03928 0.0
H856 H 0.12873 0.71115 0.91079 0.0
H857 H 0.14899 0.74535 0.94854 0.0
H858 H 0.13132 0.77465 0.07037 0.0
H859 H 0.15085 0.75993 0.03202 0.0
H860 H 0.99841 0.65451 0.99815 0.0
H861 H 0.0171 0.63998 0.95749 0.0
H862 H 0.99868 0.69677 1.00007 0.0
H863 H 0.0188 0.73071 0.03872 0.0
C864 C 0.28036 0.37225 0.05395 0.0
C865 C 0.26524 0.34116 0.0355 0.0
C866 C 0.29029 0.35744 0.94382 0.0
C867 C 0.3079 0.38818 0.96408 0.0
N868 N 0.32322 0.42424 0.04112 0.0
N869 N 0.25988 0.30319 0.96715 0.0
C870 C 0.30384 0.39549 0.01987 0.0
C871 C 0.27129 0.33345 0.98158 0.0
N872 N 0.27172 0.37964 0.10337 0.0
N873 N 0.29057 0.35128 0.88802 0.0
H874 H 0.24604 0.2849 0.99386 0.0
H875 H 0.2664 0.29629 0.93088 0.0
H876 H 0.30362 0.36822 0.85852 0.0
H877 H 0.27559 0.32993 0.87006 0.0
H878 H 0.2795 0.40225 0.11624 0.0
H879 H 0.25465 0.36313 0.12941 0.0
H880 H 0.32356 0.4299 0.08325 0.0
H881 H 0.3409 0.44184 0.01778 0.0
C882 C 0.0392 0.42497 0.28207 0.0
C883 C 0.00796 0.41032 0.29987 0.0
C884 C 0.02323 0.40404 0.39428 0.0
C885 C 0.05394 0.41552 0.37499 0.0
N886 N 0.09045 0.4327 0.29833 0.0
N887 N 0.96924 0.38031 0.3693 0.0
C888 C 0.06182 0.42498 0.31828 0.0
C889 C 0.99967 0.39832 0.35502 0.0
N890 N 0.04737 0.4396 0.23126 0.0
N891 N 0.01675 0.39978 0.45039 0.0
H892 H 0.95124 0.3749 0.34125 0.0
H893 H 0.96192 0.36825 0.40703 0.0
H894 H 0.03353 0.40463 0.48088 0.0
H895 H 0.99539 0.39449 0.46714 0.0
H896 H 0.07021 0.45352 0.21854 0.0
H897 H 0.03137 0.43999 0.20367 0.0
H898 H 0.09635 0.43646 0.25601 0.0
H899 H 0.10762 0.43278 0.32327 0.0
C900 C 0.58145 0.64249 0.32118 0.0
C901 C 0.59041 0.64356 0.37805 0.0
C902 C 0.60676 0.60587 0.35805 0.0
C903 C 0.59517 0.60261 0.3027 0.0
N904 N 0.56687 0.61382 0.23375 0.0
N905 N 0.60474 0.62097 0.45354 0.0
C906 C 0.5812 0.61981 0.28478 0.0
C907 C 0.60115 0.62375 0.39737 0.0
N908 N 0.57436 0.66386 0.30132 0.0
N909 N 0.62428 0.59293 0.37251 0.0
H910 H 0.59985 0.63284 0.4841 0.0
H911 H 0.60944 0.60447 0.47016 0.0
H912 H 0.6297 0.58038 0.34439 0.0
H913 H 0.63602 0.59729 0.41052 0.0
H914 H 0.57102 0.66634 0.25896 0.0
H915 H 0.57437 0.68091 0.32648 0.0
H916 H 0.55341 0.62323 0.22089 0.0
H917 H 0.5662 0.59733 0.20608 0.0
C918 C 0.36738 0.94168 0.32763 0.0
C919 C 0.36539 0.94965 0.38407 0.0
C920 C 0.40265 0.00385 0.36433 0.0
C921 C 0.40637 0.99557 0.30918 0.0
N922 N 0.39692 0.95617 0.2411 0.0
N923 N 0.38662 0.98667 0.45958 0.0
C924 C 0.39008 0.96432 0.29159 0.0
C925 C 0.38464 0.98027 0.40347 0.0
N926 N 0.34676 0.91297 0.30771 0.0
N927 N 0.41514 0.03426 0.37867 0.0
H928 H 0.3745 0.96984 0.48993 0.0
H929 H 0.40268 0.00795 0.4765 0.0
H930 H 0.42794 0.0523 0.35081 0.0
H931 H 0.41032 0.04155 0.41636 0.0
H932 H 0.34486 0.90705 0.26544 0.0
H933 H 0.32977 0.89567 0.33259 0.0
H934 H 0.3882 0.93335 0.22854 0.0
H935 H 0.41352 0.97218 0.21374 0.0
C936 C 0.18383 0.36605 0.32459 0.0
C937 C 0.16433 0.35317 0.37193 0.0
C938 C 0.15419 0.30125 0.34597 0.0
C939 C 0.17354 0.31413 0.29841 0.0
N940 N 0.20373 0.35757 0.23746 0.0
N941 N 0.13327 0.30966 0.43206 0.0
C942 C 0.18765 0.34626 0.28646 0.0
C943 C 0.15001 0.32101 0.38372 0.0
N944 N 0.1995 0.3974 0.31731 0.0
N945 N 0.13911 0.26994 0.35382 0.0
H946 H 0.12901 0.32317 0.45993 0.0
H947 H 0.12472 0.28724 0.44665 0.0
H948 H 0.14235 0.25502 0.3278 0.0
H949 H 0.12221 0.25825 0.38406 0.0
H950 H 0.2168 0.40893 0.28763 0.0
H951 H 0.19657 0.41245 0.34356 0.0
H952 H 0.21171 0.37988 0.22278 0.0
H953 H 0.20763 0.34406 0.20899 0.0
C954 C 0.63983 0.81985 0.33413 0.0
C955 C 0.65277 0.81673 0.38496 0.0
C956 C 0.70427 0.85783 0.35497 0.0
C957 C 0.691 0.86209 0.30564 0.0
N958 N 0.64592 0.84999 0.25033 0.0
N959 N 0.6965 0.83392 0.44683 0.0
C960 C 0.65869 0.84387 0.2958 0.0
C961 C 0.68479 0.83614 0.39631 0.0
N962 N 0.60961 0.79925 0.32187 0.0
N963 N 0.73568 0.87394 0.36137 0.0
H964 H 0.68343 0.81731 0.4769 0.0
H965 H 0.71867 0.84953 0.46067 0.0
H966 H 0.75047 0.89044 0.33254 0.0
H967 H 0.74741 0.86975 0.39306 0.0
H968 H 0.59963 0.79765 0.28283 0.0
H969 H 0.59476 0.78222 0.34986 0.0
H970 H 0.62225 0.84023 0.24416 0.0
H971 H 0.65897 0.86647 0.22005 0.0
C972 C 0.15235 0.84932 0.34393 0.0
C973 C 0.14925 0.83293 0.29353 0.0
C974 C 0.18905 0.82121 0.3258 0.0
C975 C 0.19353 0.83928 0.37445 0.0
N976 N 0.18241 0.87362 0.42765 0.0
N977 N 0.16605 0.80538 0.23331 0.0
C978 C 0.17596 0.85417 0.38296 0.0
C979 C 0.16807 0.81951 0.28352 0.0
N980 N 0.13216 0.85961 0.35507 0.0
N981 N 0.20429 0.80497 0.32088 0.0
H982 H 0.15001 0.80232 0.20242 0.0
H983 H 0.18143 0.79829 0.22048 0.0
H984 H 0.22016 0.80612 0.35058 0.0
H985 H 0.19979 0.7887 0.28971 0.0
H986 H 0.13059 0.86837 0.39375 0.0
H987 H 0.11543 0.85761 0.32655 0.0
H988 H 0.17316 0.88805 0.43274 0.0
H989 H 0.19868 0.87694 0.45827 0.0
C990 C 0.82157 0.65562 0.71862 0.0
C991 C 0.83599 0.68798 0.70899 0.0
C992 C 0.85751 0.68206 0.62022 0.0
C993 C 0.84155 0.64952 0.62822 0.0
N994 N 0.80565 0.60467 0.68071 0.0
N995 N 0.86451 0.73186 0.64849 0.0
C996 C 0.82285 0.63613 0.67633 0.0
C997 C 0.85313 0.70116 0.65919 0.0
N998 N 0.80692 0.64361 0.76854 0.0
N999 N 0.8774 0.69475 0.57596 0.0
H1000 H 0.86281 0.74676 0.67701 0.0
H1001 H 0.87394 0.74228 0.61015 0.0
H1002 H 0.88029 0.68158 0.54521 0.0
H1003 H 0.89254 0.71834 0.57132 0.0
H1004 H 0.79896 0.62092 0.78104 0.0
H1005 H 0.80438 0.65685 0.79961 0.0
H1006 H 0.78894 0.59317 0.71139 0.0
H1007 H 0.8065 0.58978 0.65103 0.0
C1008 C 0.34812 0.16619 0.71906 0.0
C1009 C 0.31609 0.14701 0.70784 0.0
C1010 C 0.32291 0.17132 0.6154 0.0
C1011 C 0.35444 0.19202 0.62841 0.0
N1012 N 0.39641 0.21212 0.69462 0.0
N1013 N 0.27193 0.13312 0.64903 0.0
C1014 C 0.36686 0.19027 0.68085 0.0
C1015 C 0.3032 0.15003 0.6569 0.0
N1016 N 0.36084 0.16072 0.76534 0.0
N1017 N 0.3119 0.17189 0.56315 0.0
H1018 H 0.25694 0.11708 0.67827 0.0
H1019 H 0.26046 0.13643 0.61571 0.0
H1020 H 0.32523 0.18789 0.53243 0.0
H1021 H 0.29023 0.1553 0.54867 0.0
H1022 H 0.38452 0.17144 0.77252 0.0
H1023 H 0.3479 0.14371 0.79489 0.0
H1024 H 0.40566 0.21451 0.73464 0.0
H1025 H 0.41123 0.22934 0.66688 0.0
C1026 C 0.83123 0.1498 0.61734 0.0
C1027 C 0.81146 0.16191 0.62926 0.0
C1028 C 0.83723 0.18136 0.71995 0.0
C1029 C 0.85586 0.16782 0.70932 0.0
N1030 N 0.86818 0.13569 0.65246 0.0
N1031 N 0.79232 0.18532 0.69416 0.0
C1032 C 0.85215 0.15104 0.65924 0.0
C1033 C 0.81352 0.17658 0.68127 0.0
N1034 N 0.83025 0.13749 0.56563 0.0
N1035 N 0.84284 0.19962 0.76619 0.0
H1036 H 0.7754 0.18326 0.66606 0.0
H1037 H 0.79012 0.19274 0.7338 0.0
H1038 H 0.85916 0.20281 0.79661 0.0
H1039 H 0.83278 0.21323 0.77285 0.0
H1040 H 0.84625 0.1314 0.55184 0.0
H1041 H 0.81455 0.13515 0.53457 0.0
H1042 H 0.86434 0.12036 0.61983 0.0
H1043 H 0.88387 0.13641 0.68212 0.0
C1044 C 0.51548 0.03442 0.99426 0.0
C1045 C 0.49905 0.02115 0.04463 0.0
C1046 C 0.49181 0.97058 0.01695 0.0
C1047 C 0.50628 0.98334 0.96481 0.0
N1048 N 0.52983 0.02653 0.90095 0.0
N1049 N 0.46857 0.97628 0.10225 0.0
C1050 C 0.5175 0.01504 0.95261 0.0
C1051 C 0.48644 0.98913 0.0556 0.0
N1052 N 0.52983 0.06573 0.98706 0.0
N1053 N 0.48383 0.94085 0.02998 0.0
H1054 H 0.46504 0.98921 0.13264 0.0
H1055 H 0.45559 0.9526 0.10934 0.0
H1056 H 0.48623 0.9262 1.00188 0.0
H1057 H 0.47665 0.93122 0.06968 0.0
H1058 H 0.54493 0.07749 0.95426 0.0
H1059 H 0.52844 0.08047 0.0164 0.0
H1060 H 0.53517 0.04833 0.88682 0.0
H1061 H 0.53309 0.01355 0.87031 0.0
C1062 C 0.03305 0.51997 0.00934 0.0
C1063 C 0.02025 0.52232 0.95777 0.0
C1064 C 0.96889 0.48105 0.98743 0.0
C1065 C 0.98208 0.47745 0.03748 0.0
N1066 N 0.02706 0.49024 0.09363 0.0
N1067 N 0.97702 0.50342 0.89421 0.0
C1068 C 0.01428 0.49604 0.0478 0.0
C1069 C 0.98844 0.50229 0.94574 0.0
N1070 N 0.063 0.54118 0.02211 0.0
N1071 N 0.93752 0.46471 0.9806 0.0
H1072 H 0.99026 0.51941 0.86339 0.0
H1073 H 0.95504 0.48729 0.88029 0.0
H1074 H 0.92263 0.44863 0.00988 0.0
H1075 H 0.92592 0.46852 0.94814 0.0
H1076 H 0.07273 0.54319 0.06157 0.0
H1077 H 0.07778 0.55824 0.9941 0.0
H1078 H 0.05075 0.50041 0.10015 0.0
H1079 H 0.01404 0.47359 0.12368 0.0
C1080 C 0.4982 0.48748 0.95311 0.0
C1081 C 0.48177 0.50361 0.96085 0.0
C1082 C 0.5074 0.52312 0.05167 0.0
C1083 C 0.52519 0.50853 0.04229 0.0
N1084 N 0.54099 0.48051 0.98141 0.0
N1085 N 0.47313 0.53982 0.01293 0.0
C1086 C 0.52157 0.49176 0.99219 0.0
C1087 C 0.48706 0.52229 0.00894 0.0
N1088 N 0.49075 0.46726 0.90939 0.0
N1089 N 0.50971 0.53745 0.10178 0.0
H1090 H 0.45791 0.53948 0.98262 0.0
H1091 H 0.4783 0.55642 0.04378 0.0
H1092 H 0.5251 0.53953 0.13326 0.0
H1093 H 0.49503 0.54554 0.11397 0.0
H1094 H 0.49916 0.45207 0.90514 0.0
H1095 H 0.47443 0.46405 0.87897 0.0
H1096 H 0.54217 0.47138 0.94286 0.0
H1097 H 0.55755 0.48214 0.00998 0.0
C1098 C 0.20506 0.17321 0.09292 0.0
C1099 C 0.20235 0.19554 0.06063 0.0
C1100 C 0.21856 0.17892 0.97649 0.0
C1101 C 0.22679 0.16112 0.011 0.0
N1102 N 0.22668 0.13935 0.10112 0.0
N1103 N 0.20639 0.22001 0.97095 0.0
C1104 C 0.21926 0.15732 0.0689 0.0
C1105 C 0.20825 0.19795 1.00186 0.0
N1106 N 0.19385 0.1673 0.14653 0.0
N1107 N 0.22102 0.17794 0.9195 0.0
H1108 H 0.19803 0.23384 0.98668 0.0
H1109 H 0.21474 0.22593 0.93015 0.0
H1110 H 0.22944 0.16503 0.89974 0.0
H1111 H 0.21229 0.18769 0.89157 0.0
H1112 H 0.19281 0.14971 0.17144 0.0
H1113 H 0.18291 0.1784 0.16433 0.0
H1114 H 0.2253 0.13842 0.14469 0.0
H1115 H 0.23551 0.12609 0.08415 0.0
C1116 C 0.82509 0.03859 0.97649 0.0
C1117 C 0.84516 0.06443 0.00954 0.0
C1118 C 0.83461 0.03055 0.09101 0.0
C1119 C 0.81027 0.00601 0.06086 0.0
N1120 N 0.78108 0.98677 0.97484 0.0
N1121 N 0.87077 0.08572 0.09725 0.0
C1122 C 0.80563 0.00975 0.00311 0.0
C1123 C 0.85084 0.06052 0.06638 0.0
N1124 N 0.82437 0.04183 0.91968 0.0
N1125 N 0.84195 0.02496 0.14325 0.0
H1126 H 0.88401 0.10762 0.07958 0.0
H1127 H 0.87335 0.0853 0.14049 0.0
H1128 H 0.83044 0.00306 0.16157 0.0
H1129 H 0.86089 0.04104 0.16627 0.0
H1130 H 0.81251 0.0233 0.89241 0.0
H1131 H 0.83809 0.06284 0.89929 0.0
H1132 H 0.7741 0.98975 0.93532 0.0
H1133 H 0.76621 0.96516 0.99201 0.0
C1134 C 0.97339 0.80136 0.09136 0.0
C1135 C 0.99732 0.8003 0.06125 0.0
C1136 C 0.96401 0.78159 0.97802 0.0
C1137 C 0.93869 0.7773 0.01121 0.0
N1138 N 0.91851 0.78374 0.09864 0.0
N1139 N 0.01482 0.78696 0.9765 0.0
C1140 C 0.94325 0.78784 0.0675 0.0
C1141 C 0.99278 0.79045 0.00426 0.0
N1142 N 0.9797 0.81534 0.14271 0.0
N1143 N 0.96034 0.77675 0.92144 0.0
H1144 H 0.03622 0.79278 0.99357 0.0
H1145 H 0.01104 0.77601 0.93779 0.0
H1146 H 0.93937 0.76985 0.90126 0.0
H1147 H 0.97864 0.78243 0.89399 0.0
H1148 H 0.96412 0.81919 0.16534 0.0
H1149 H 1.0017 0.82557 0.16055 0.0
H1150 H 0.91936 0.78749 0.14169 0.0
H1151 H 0.89652 0.77525 0.08147 0.0
C1152 C 0.79972 0.83707 0.01448 0.0
C1153 C 0.76775 0.82371 0.02596 0.0
C1154 C 0.75859 0.7758 0.98144 0.0
C1155 C 0.78875 0.79189 0.95733 0.0
N1156 N 0.83911 0.83774 0.95411 0.0
N1157 N 0.72639 0.77462 0.05781 0.0
C1158 C 0.80982 0.82243 0.97525 0.0
C1159 C 0.74957 0.79122 0.02029 0.0
N1160 N 0.82048 0.86013 0.04807 0.0
N1161 N 0.73846 0.74565 0.96815 0.0
H1162 H 0.72331 0.78467 0.09376 0.0
H1163 H 0.71394 0.75057 0.05892 0.0
H1164 H 0.74464 0.73174 0.94566 0.0
H1165 H 0.71501 0.7347 0.97802 0.0
H1166 H 0.84427 0.86915 0.04507 0.0
H1167 H 0.81324 0.86666 0.084 0.0
H1168 H 0.85431 0.86107 0.96199 0.0
H1169 H 0.84731 0.82763 0.92569 0.0
C1170 C 0.17359 0.97148 0.9122 0.0
C1171 C 0.19888 0.99533 0.94171 0.0
C1172 C 0.18569 0.96171 0.02434 0.0
C1173 C 0.16414 0.93655 0.99152 0.0
N1174 N 0.13625 0.91666 0.90511 0.0
N1175 N 0.23085 0.01272 0.02498 0.0
C1176 C 0.15737 0.94128 0.93585 0.0
C1177 C 0.20506 0.99062 0.99804 0.0
N1178 N 0.16523 0.97795 0.86164 0.0
N1179 N 0.18785 0.95783 0.08058 0.0
H1180 H 0.24592 0.0343 0.0079 0.0
H1181 H 0.23873 0.0089 0.0629 0.0
H1182 H 0.17436 0.93674 0.10084 0.0
H1183 H 0.20082 0.97603 0.10795 0.0
H1184 H 0.14556 0.96244 0.83958 0.0
H1185 H 0.17673 1.00002 0.84399 0.0
H1186 H 0.13272 0.91766 0.86233 0.0
H1187 H 0.12299 0.89461 0.92217 0.0
C1188 C 0.04593 0.25347 0.01932 0.0
C1189 C 0.06064 0.23558 0.02297 0.0
C1190 C 0.01773 0.19415 0.97067 0.0
C1191 C 0.00787 0.21522 0.95474 0.0
N1192 N 0.01083 0.26474 0.96967 0.0
N1193 N 0.04472 0.18266 0.04224 0.0
C1194 C 0.02141 0.24482 0.98082 0.0
C1195 C 0.04239 0.20381 0.00986 0.0
N1196 N 0.05231 0.27594 0.05825 0.0
N1197 N 0.00413 0.16529 0.94784 0.0
H1198 H 0.05815 0.18943 0.07858 0.0
H1199 H 0.03016 0.1589 0.03801 0.0
H1200 H 0.98586 0.1574 0.91942 0.0
H1201 H 0.01255 0.1502 0.9544 0.0
H1202 H 0.04042 0.28807 0.06092 0.0
H1203 H 0.06577 0.27873 0.09359 0.0
H1204 H 0.02289 0.28797 0.9811 0.0
H1205 H 0.9907 0.25864 0.94736 0.0
C1206 C 0.87526 0.53247 0.33048 0.0
C1207 C 0.86968 0.5303 0.38938 0.0
C1208 C 0.88653 0.49202 0.39751 0.0
C1209 C 0.89378 0.49561 0.3395 0.0
N1210 N 0.88741 0.51198 0.24802 0.0
N1211 N 0.86121 0.50203 0.47523 0.0
C1212 C 0.88537 0.51329 0.30505 0.0
C1213 C 0.8724 0.50796 0.42162 0.0
N1214 N 0.87323 0.55438 0.2994 0.0
N1215 N 0.89414 0.4742 0.42977 0.0
H1216 H 0.85023 0.51309 0.49304 0.0
H1217 H 0.86017 0.48441 0.50007 0.0
H1218 H 0.90296 0.46095 0.41281 0.0
H1219 H 0.89297 0.47348 0.47337 0.0
H1220 H 0.88146 0.56017 0.25851 0.0
H1221 H 0.86477 0.56814 0.31495 0.0
H1222 H 0.87852 0.52162 0.2202 0.0
H1223 H 0.8956 0.49889 0.22822 0.0
C1224 C 0.48732 0.37771 0.31387 0.0
C1225 C 0.50797 0.40337 0.34689 0.0
C1226 C 0.49598 0.37 0.42949 0.0
C1227 C 0.47419 0.34448 0.39721 0.0
N1228 N 0.45491 0.32223 0.30558 0.0
N1229 N 0.53799 0.4233 0.43106 0.0
C1230 C 0.47199 0.34768 0.33826 0.0
C1231 C 0.5143 0.39924 0.40316 0.0
N1232 N 0.48099 0.38235 0.26008 0.0
N1233 N 0.4984 0.36631 0.48574 0.0
H1234 H 0.55175 0.44489 0.41259 0.0
H1235 H 0.54572 0.42135 0.47053 0.0
H1236 H 0.48704 0.34474 0.50526 0.0
H1237 H 0.51073 0.38453 0.51339 0.0
H1238 H 0.46309 0.36551 0.23611 0.0
H1239 H 0.49253 0.40378 0.24017 0.0
H1240 H 0.4552 0.32277 0.26194 0.0
H1241 H 0.44233 0.29987 0.32122 0.0
C1242 C 0.60706 0.11575 0.40492 0.0
C1243 C 0.6038 0.11101 0.34611 0.0
C1244 C 0.65935 0.13049 0.33649 0.0
C1245 C 0.66245 0.13384 0.39587 0.0
N1246 N 0.64178 0.13799 0.4844 0.0
N1247 N 0.62713 0.12144 0.25447 0.0
C1248 C 0.63702 0.12924 0.42933 0.0
C1249 C 0.63015 0.12118 0.31143 0.0
N1250 N 0.58136 0.10636 0.43748 0.0
N1251 N 0.68344 0.13369 0.30428 0.0
H1252 H 0.60591 0.11378 0.23473 0.0
H1253 H 0.64584 0.13174 0.22706 0.0
H1254 H 0.70552 0.14123 0.31972 0.0
H1255 H 0.68119 0.1271 0.26235 0.0
H1256 H 0.58152 0.10556 0.4811 0.0
H1257 H 0.55935 0.09807 0.42053 0.0
H1258 H 0.62487 0.13756 0.5105 0.0
H1259 H 0.66368 0.14841 0.5027 0.0
C1260 C 0.46142 0.16117 0.24208 0.0
C1261 C 0.46629 0.14042 0.27525 0.0
C1262 C 0.45438 0.16043 0.3602 0.0
C1263 C 0.44402 0.17658 0.326 0.0
N1264 N 0.43834 0.19378 0.23479 0.0
N1265 N 0.46623 0.11923 0.3668 0.0
C1266 C 0.44812 0.1777 0.26701 0.0
C1267 C 0.46323 0.14027 0.33475 0.0
N1268 N 0.46985 0.16513 0.18681 0.0
N1269 N 0.4553 0.16401 0.41714 0.0
H1270 H 0.47319 0.10426 0.35117 0.0
H1271 H 0.45984 0.11506 0.40886 0.0
H1272 H 0.44801 0.17778 0.43724 0.0
H1273 H 0.46582 0.15564 0.44407 0.0
H1274 H 0.46928 0.18161 0.16097 0.0
H1275 H 0.4802 0.15368 0.16806 0.0
H1276 H 0.43705 0.19252 0.19122 0.0
H1277 H 0.43016 0.20754 0.25202 0.0
C1278 C 0.84553 0.29779 0.36109 0.0
C1279 C 0.82851 0.2711 0.32779 0.0
C1280 C 0.84122 0.30338 0.2436 0.0
C1281 C 0.86312 0.3291 0.27514 0.0
N1282 N 0.88669 0.35096 0.36495 0.0
N1283 N 0.80834 0.24767 0.238 0.0
C1284 C 0.86491 0.32664 0.33444 0.0
C1285 C 0.82545 0.2737 0.26924 0.0
N1286 N 0.84344 0.29543 0.41825 0.0
N1287 N 0.83552 0.30761 0.18922 0.0
H1288 H 0.79524 0.22583 0.25598 0.0
H1289 H 0.80813 0.24742 0.19434 0.0
H1290 H 0.8464 0.32934 0.17021 0.0
H1291 H 0.81818 0.29046 0.16479 0.0
H1292 H 0.85262 0.31445 0.44495 0.0
H1293 H 0.83002 0.27447 0.43894 0.0
H1294 H 0.89203 0.34904 0.40643 0.0
H1295 H 0.90099 0.37285 0.34848 0.0
C1296 C 0.70015 0.54061 0.24338 0.0
C1297 C 0.67502 0.5375 0.27603 0.0
C1298 C 0.70785 0.55283 0.36015 0.0
C1299 C 0.73395 0.56158 0.32546 0.0
N1300 N 0.7557 0.56277 0.23475 0.0
N1301 N 0.65466 0.54076 0.36647 0.0
C1302 C 0.73026 0.55475 0.2673 0.0
C1303 C 0.67852 0.54284 0.335 0.0
N1304 N 0.69492 0.52977 0.18956 0.0
N1305 N 0.71122 0.55448 0.41717 0.0
H1306 H 0.63244 0.5326 0.35114 0.0
H1307 H 0.6572 0.54881 0.4075 0.0
H1308 H 0.73254 0.56263 0.43683 0.0
H1309 H 0.69269 0.54529 0.44505 0.0
H1310 H 0.71155 0.52902 0.1644 0.0
H1311 H 0.67286 0.51876 0.17184 0.0
H1312 H 0.75521 0.56194 0.19112 0.0
H1313 H 0.77782 0.57159 0.25152 0.0
C1314 C 0.56129 0.85194 0.65314 0.0
C1315 C 0.56258 0.82881 0.68541 0.0
C1316 C 0.53828 0.83952 0.76507 0.0
C1317 C 0.53812 0.86357 0.73371 0.0
N1318 N 0.54302 0.88843 0.64415 0.0
N1319 N 0.54598 0.79519 0.76571 0.0
C1320 C 0.54717 0.86812 0.67628 0.0
C1321 C 0.54889 0.8208 0.73938 0.0
N1322 N 0.57527 0.85971 0.60166 0.0
N1323 N 0.52928 0.83541 0.82004 0.0
H1324 H 0.55357 0.78113 0.74766 0.0
H1325 H 0.53391 0.78637 0.80302 0.0
H1326 H 0.51955 0.84744 0.83878 0.0
H1327 H 0.53241 0.82107 0.8476 0.0
H1328 H 0.579 0.87906 0.57897 0.0
H1329 H 0.58485 0.84767 0.58256 0.0
H1330 H 0.54592 0.89022 0.60082 0.0
H1331 H 0.53435 0.90205 0.65961 0.0
C1332 C 0.17634 0.7305 0.73866 0.0
C1333 C 0.17471 0.73391 0.67992 0.0
C1334 C 0.13951 0.67825 0.66985 0.0
C1335 C 0.13998 0.67494 0.72918 0.0
N1336 N 0.16473 0.69561 0.81767 0.0
N1337 N 0.1619 0.71091 0.58804 0.0
C1338 C 0.16047 0.70043 0.76277 0.0
C1339 C 0.15885 0.70765 0.64501 0.0
N1340 N 0.19229 0.75614 0.77146 0.0
N1341 N 0.1189 0.6541 0.6375 0.0
H1342 H 0.17486 0.73225 0.56834 0.0
H1343 H 0.15386 0.69234 0.56044 0.0
H1344 H 0.10477 0.63185 0.65263 0.0
H1345 H 0.1143 0.65642 0.59576 0.0
H1346 H 0.19137 0.75577 0.81508 0.0
H1347 H 0.20562 0.77827 0.75476 0.0
H1348 H 0.18105 0.7126 0.84381 0.0
H1349 H 0.15371 0.67363 0.83573 0.0
C1350 C 0.28206 0.40618 0.67969 0.0
C1351 C 0.27196 0.4253 0.65482 0.0
C1352 C 0.3195 0.47086 0.68805 0.0
C1353 C 0.32546 0.45153 0.72342 0.0
N1354 N 0.3105 0.39911 0.75317 0.0
N1355 N 0.2927 0.47328 0.60511 0.0
C1356 C 0.30605 0.41877 0.71978 0.0
C1357 C 0.29389 0.45722 0.65031 0.0
N1358 N 0.27249 0.37735 0.65867 0.0
N1359 N 0.3374 0.50221 0.69207 0.0
H1360 H 0.27697 0.4622 0.57263 0.0
H1361 H 0.30953 0.49598 0.59626 0.0
H1362 H 0.35594 0.51293 0.71983 0.0
H1363 H 0.33218 0.5174 0.67142 0.0
H1364 H 0.28096 0.36324 0.67268 0.0
H1365 H 0.26107 0.37005 0.62036 0.0
H1366 H 0.29391 0.37579 0.75711 0.0
H1367 H 0.32987 0.40551 0.77788 0.0
C1368 C 0.1173 0.48788 0.69136 0.0
C1369 C 0.11229 0.50855 0.65862 0.0
C1370 C 0.13553 0.49793 0.5771 0.0
C1371 C 0.13521 0.47326 0.60699 0.0
N1372 N 0.12354 0.44296 0.69213 0.0
N1373 N 0.11727 0.5347 0.57117 0.0
C1374 C 0.1262 0.46815 0.66445 0.0
C1375 C 0.12204 0.51437 0.60184 0.0
N1376 N 0.11315 0.48686 0.74816 0.0
N1377 N 0.14878 0.50547 0.52509 0.0
H1378 H 0.10881 0.5481 0.5889 0.0
H1379 H 0.12043 0.53744 0.52797 0.0
H1380 H 0.15898 0.49382 0.50661 0.0
H1381 H 0.15208 0.52469 0.50243 0.0
H1382 H 0.11943 0.47456 0.77517 0.0
H1383 H 0.10616 0.50073 0.76887 0.0
H1384 H 0.11317 0.43584 0.73134 0.0
H1385 H 0.12955 0.4276 0.67463 0.0
C1386 C 0.51027 0.62779 0.69115 0.0
C1387 C 0.49224 0.60247 0.65534 0.0
C1388 C 0.50674 0.6377 0.57491 0.0
C1389 C 0.5292 0.66187 0.60861 0.0
N1390 N 0.55292 0.68007 0.69972 0.0
N1391 N 0.47154 0.5826 0.56389 0.0
C1392 C 0.5306 0.65726 0.66732 0.0
C1393 C 0.4896 0.6073 0.59748 0.0
N1394 N 0.50835 0.62352 0.74797 0.0
N1395 N 0.50183 0.64408 0.52141 0.0
H1396 H 0.45742 0.56041 0.57981 0.0
H1397 H 0.47138 0.58373 0.52031 0.0
H1398 H 0.51377 0.66634 0.50462 0.0
H1399 H 0.48423 0.62826 0.49561 0.0
H1400 H 0.51818 0.64158 0.77675 0.0
H1401 H 0.49456 0.60204 0.76666 0.0
H1402 H 0.558 0.67655 0.74045 0.0
H1403 H 0.56788 0.70231 0.6854 0.0
C1404 C 0.34483 0.87426 0.67208 0.0
C1405 C 0.34166 0.86899 0.61308 0.0
C1406 C 0.39678 0.88552 0.60565 0.0
C1407 C 0.40018 0.89237 0.6638 0.0
N1408 N 0.37698 0.88555 0.75497 0.0
N1409 N 0.36182 0.86088 0.52727 0.0
C1410 C 0.37394 0.88393 0.69789 0.0
C1411 C 0.36684 0.87174 0.58107 0.0
N1412 N 0.32087 0.8724 0.70294 0.0
N1413 N 0.42235 0.89319 0.57371 0.0
H1414 H 0.33988 0.85014 0.50908 0.0
H1415 H 0.37847 0.85985 0.5026 0.0
H1416 H 0.44431 0.90172 0.59101 0.0
H1417 H 0.42214 0.89234 0.53009 0.0
H1418 H 0.32321 0.88041 0.74395 0.0
H1419 H 0.29878 0.8644 0.6871 0.0
H1420 H 0.3583 0.87663 0.78251 0.0
H1421 H 0.39814 0.89339 0.77504 0.0
loop_
_geom_bond_atom_site_label_1
_geom_bond_atom_site_label_2
_geom_bond_distance
_geom_bond_site_symmetry_2
_ccdc_geom_bond_type
Co0 O3 1.970 . S
Co0 N17 1.989 . S
Co0 O25 1.967 . S
Co0 O32 1.920 . S
Co1 O4 1.966 . S
Co1 N10 2.022 . S
Co1 N18 1.993 . S
Co1 O26 1.941 . S
C2 O3 1.258 . S
C2 O4 1.263 . S
O3 Co0 1.970 . S
O3 C2 1.258 . S
O4 Co1 1.966 . S
O4 C2 1.263 . S
C5 O6 1.235 . S
C5 O32 1.289 . S
O6 C5 1.235 . S
C7 C9 1.400 . S
C7 N10 1.351 . S
C7 C12 1.501 . S
C8 C9 1.387 . S
C8 N11 1.341 . S
C9 C7 1.400 . S
C9 C8 1.387 . S
N10 Co1 2.022 . S
N10 C7 1.351 . S
N10 N11 1.365 . S
N11 C8 1.341 . S
N11 N10 1.365 . S
N11 H31 0.862 . S
C12 C7 1.501 . S
C12 H13 0.961 . S
C12 H14 0.961 . S
C12 H15 0.960 1_554 S
H13 C12 0.961 . S
H14 C12 0.961 . S
H15 C12 0.960 1_556 S
C16 N17 1.342 . S
C16 C20 1.401 . S
C16 C21 1.499 . S
N17 Co0 1.989 . S
N17 C16 1.342 . S
N17 N18 1.388 . S
N18 Co1 1.993 . S
N18 N17 1.388 . S
N18 C19 1.346 . S
C19 N18 1.346 . S
C19 C20 1.396 . S
C19 C29 1.510 . S
C20 C16 1.401 . S
C20 C19 1.396 . S
C21 C16 1.499 . S
C21 H22 0.959 . S
C21 H23 0.960 . S
C21 H24 0.961 . S
H22 C21 0.959 . S
H23 C21 0.960 . S
H24 C21 0.961 . S
O25 Co0 1.967 . S
O25 C33 1.258 . S
O26 Co1 1.941 . S
O26 C33 1.266 . S
H27 C29 0.959 . S
H28 C29 0.961 . S
C29 C19 1.510 . S
C29 H27 0.959 . S
C29 H28 0.961 . S
C29 H30 0.960 . S
H30 C29 0.960 . S
H31 N11 0.862 . S
O32 Co0 1.920 . S
O32 C5 1.289 . S
C33 O25 1.258 . S
C33 O26 1.266 . S
Co34 O37 1.970 . S
Co34 N51 1.989 . S
Co34 O59 1.967 . S
Co34 O66 1.920 . S
Co35 O38 1.966 . S
Co35 N44 2.022 . S
Co35 N52 1.993 . S
Co35 O60 1.941 . S
C36 O37 1.258 . S
C36 O38 1.263 . S
O37 Co34 1.970 . S
O37 C36 1.258 . S
O38 Co35 1.966 . S
O38 C36 1.263 . S
C39 O40 1.235 . S
C39 O66 1.289 1_545 S
O40 C39 1.235 . S
C41 C43 1.400 . S
C41 N44 1.351 . S
C41 C46 1.501 . S
C42 C43 1.387 . S
C42 N45 1.341 . S
C43 C41 1.400 . S
C43 C42 1.387 . S
N44 Co35 2.022 . S
N44 C41 1.351 . S
N44 N45 1.365 . S
N45 C42 1.341 . S
N45 N44 1.365 . S
N45 H65 0.862 . S
C46 C41 1.501 . S
C46 H47 0.961 . S
C46 H48 0.961 . S
C46 H49 0.960 1_554 S
H47 C46 0.961 . S
H48 C46 0.961 . S
H49 C46 0.960 1_556 S
C50 N51 1.342 . S
C50 C54 1.401 . S
C50 C55 1.499 . S
N51 Co34 1.989 . S
N51 C50 1.342 . S
N51 N52 1.388 . S
N52 Co35 1.993 . S
N52 N51 1.388 . S
N52 C53 1.346 . S
C53 N52 1.346 . S
C53 C54 1.396 . S
C53 C63 1.510 . S
C54 C50 1.401 . S
C54 C53 1.396 . S
C55 C50 1.499 . S
C55 H56 0.959 . S
C55 H57 0.960 . S
C55 H58 0.961 . S
H56 C55 0.959 . S
H57 C55 0.960 . S
H58 C55 0.961 . S
O59 Co34 1.967 . S
O59 C67 1.258 . S
O60 Co35 1.941 . S
O60 C67 1.266 . S
H61 C63 0.959 . S
H62 C63 0.961 . S
C63 C53 1.510 . S
C63 H61 0.959 . S
C63 H62 0.961 . S
C63 H64 0.960 . S
H64 C63 0.960 . S
H65 N45 0.862 . S
O66 Co34 1.920 . S
O66 C39 1.289 1_565 S
C67 O59 1.258 . S
C67 O60 1.266 . S
Co68 O71 1.970 . S
Co68 N85 1.989 . S
Co68 O93 1.967 . S
Co68 O100 1.920 . S
Co69 O72 1.966 . S
Co69 N78 2.022 . S
Co69 N86 1.993 . S
Co69 O94 1.941 . S
C70 O71 1.258 . S
C70 O72 1.263 . S
O71 Co68 1.970 . S
O71 C70 1.258 . S
O72 Co69 1.966 . S
O72 C70 1.263 . S
C73 O74 1.235 . S
C73 O100 1.289 1_655 S
O74 C73 1.235 . S
C75 C77 1.400 . S
C75 N78 1.351 . S
C75 C80 1.501 . S
C76 C77 1.387 . S
C76 N79 1.341 . S
C77 C75 1.400 . S
C77 C76 1.387 . S
N78 Co69 2.022 . S
N78 C75 1.351 . S
N78 N79 1.365 . S
N79 C76 1.341 . S
N79 N78 1.365 . S
N79 H99 0.862 . S
C80 C75 1.501 . S
C80 H81 0.961 . S
C80 H82 0.961 . S
C80 H83 0.960 1_554 S
H81 C80 0.961 . S
H82 C80 0.961 . S
H83 C80 0.960 1_556 S
C84 N85 1.342 . S
C84 C88 1.401 . S
C84 C89 1.499 . S
N85 Co68 1.989 . S
N85 C84 1.342 . S
N85 N86 1.388 . S
N86 Co69 1.993 . S
N86 N85 1.388 . S
N86 C87 1.346 . S
C87 N86 1.346 . S
C87 C88 1.396 . S
C87 C97 1.510 . S
C88 C84 1.401 . S
C88 C87 1.396 . S
C89 C84 1.499 . S
C89 H90 0.959 . S
C89 H91 0.960 . S
C89 H92 0.961 . S
H90 C89 0.959 . S
H91 C89 0.960 . S
H92 C89 0.961 . S
O93 Co68 1.967 . S
O93 C101 1.258 . S
O94 Co69 1.941 . S
O94 C101 1.266 . S
H95 C97 0.959 . S
H96 C97 0.961 . S
C97 C87 1.510 . S
C97 H95 0.959 . S
C97 H96 0.961 . S
C97 H98 0.960 . S
H98 C97 0.960 . S
H99 N79 0.862 . S
O100 Co68 1.920 . S
O100 C73 1.289 1_455 S
C101 O93 1.258 . S
C101 O94 1.266 . S
Co102 O105 1.970 . S
Co102 N119 1.989 . S
Co102 O127 1.967 . S
Co102 O134 1.920 . S
Co103 O106 1.966 . S
Co103 N112 2.022 . S
Co103 N120 1.993 . S
Co103 O128 1.941 . S
C104 O105 1.258 . S
C104 O106 1.263 . S
O105 Co102 1.970 . S
O105 C104 1.258 . S
O106 Co103 1.966 . S
O106 C104 1.263 . S
C107 O108 1.235 . S
C107 O134 1.289 . S
O108 C107 1.235 . S
C109 C111 1.400 . S
C109 N112 1.351 . S
C109 C114 1.501 . S
C110 C111 1.387 . S
C110 N113 1.341 . S
C111 C109 1.400 . S
C111 C110 1.387 . S
N112 Co103 2.022 . S
N112 C109 1.351 . S
N112 N113 1.365 . S
N113 C110 1.341 . S
N113 N112 1.365 . S
N113 H133 0.862 . S
C114 C109 1.501 . S
C114 H115 0.961 . S
C114 H116 0.961 . S
C114 H117 0.960 1_556 S
H115 C114 0.961 . S
H116 C114 0.961 . S
H117 C114 0.960 1_554 S
C118 N119 1.342 . S
C118 C122 1.401 . S
C118 C123 1.499 . S
N119 Co102 1.989 . S
N119 C118 1.342 . S
N119 N120 1.388 . S
N120 Co103 1.993 . S
N120 N119 1.388 . S
N120 C121 1.346 . S
C121 N120 1.346 . S
C121 C122 1.396 . S
C121 C131 1.510 . S
C122 C118 1.401 . S
C122 C121 1.396 . S
C123 C118 1.499 . S
C123 H124 0.959 . S
C123 H125 0.960 . S
C123 H126 0.961 . S
H124 C123 0.959 . S
H125 C123 0.960 . S
H126 C123 0.961 . S
O127 Co102 1.967 . S
O127 C135 1.258 . S
O128 Co103 1.941 . S
O128 C135 1.266 . S
H129 C131 0.959 . S
H130 C131 0.961 . S
C131 C121 1.510 . S
C131 H129 0.959 . S
C131 H130 0.961 . S
C131 H132 0.960 . S
H132 C131 0.960 . S
H133 N113 0.862 . S
O134 Co102 1.920 . S
O134 C107 1.289 . S
C135 O127 1.258 . S
C135 O128 1.266 . S
Co136 O139 1.970 . S
Co136 N153 1.989 . S
Co136 O161 1.967 . S
Co136 O168 1.920 . S
Co137 O140 1.966 . S
Co137 N146 2.022 . S
Co137 N154 1.993 . S
Co137 O162 1.941 . S
C138 O139 1.258 . S
C138 O140 1.263 . S
O139 Co136 1.970 . S
O139 C138 1.258 . S
O140 Co137 1.966 . S
O140 C138 1.263 . S
C141 O142 1.235 . S
C141 O168 1.289 1_565 S
O142 C141 1.235 . S
C143 C145 1.400 . S
C143 N146 1.351 . S
C143 C148 1.501 . S
C144 C145 1.387 . S
C144 N147 1.341 . S
C145 C143 1.400 . S
C145 C144 1.387 . S
N146 Co137 2.022 . S
N146 C143 1.351 . S
N146 N147 1.365 . S
N147 C144 1.341 . S
N147 N146 1.365 . S
N147 H167 0.862 . S
C148 C143 1.501 . S
C148 H149 0.961 . S
C148 H150 0.961 . S
C148 H151 0.960 1_556 S
H149 C148 0.961 . S
H150 C148 0.961 . S
H151 C148 0.960 1_554 S
C152 N153 1.342 . S
C152 C156 1.401 . S
C152 C157 1.499 . S
N153 Co136 1.989 . S
N153 C152 1.342 . S
N153 N154 1.388 . S
N154 Co137 1.993 . S
N154 N153 1.388 . S
N154 C155 1.346 . S
C155 N154 1.346 . S
C155 C156 1.396 . S
C155 C165 1.510 . S
C156 C152 1.401 . S
C156 C155 1.396 . S
C157 C152 1.499 . S
C157 H158 0.959 . S
C157 H159 0.960 . S
C157 H160 0.961 . S
H158 C157 0.959 . S
H159 C157 0.960 . S
H160 C157 0.961 . S
O161 Co136 1.967 . S
O161 C169 1.258 . S
O162 Co137 1.941 . S
O162 C169 1.266 . S
H163 C165 0.959 . S
H164 C165 0.961 . S
C165 C155 1.510 . S
C165 H163 0.959 . S
C165 H164 0.961 . S
C165 H166 0.960 . S
H166 C165 0.960 . S
H167 N147 0.862 . S
O168 Co136 1.920 . S
O168 C141 1.289 1_545 S
C169 O161 1.258 . S
C169 O162 1.266 . S
Co170 O173 1.970 . S
Co170 N187 1.989 . S
Co170 O195 1.967 . S
Co170 O202 1.920 . S
Co171 O174 1.966 . S
Co171 N180 2.022 . S
Co171 N188 1.993 . S
Co171 O196 1.941 . S
C172 O173 1.258 . S
C172 O174 1.263 . S
O173 Co170 1.970 . S
O173 C172 1.258 . S
O174 Co171 1.966 . S
O174 C172 1.263 . S
C175 O176 1.235 . S
C175 O202 1.289 1_455 S
O176 C175 1.235 . S
C177 C179 1.400 . S
C177 N180 1.351 . S
C177 C182 1.501 . S
C178 C179 1.387 . S
C178 N181 1.341 . S
C179 C177 1.400 . S
C179 C178 1.387 . S
N180 Co171 2.022 . S
N180 C177 1.351 . S
N180 N181 1.365 . S
N181 C178 1.341 . S
N181 N180 1.365 . S
N181 H201 0.862 . S
C182 C177 1.501 . S
C182 H183 0.961 . S
C182 H184 0.961 . S
C182 H185 0.960 1_556 S
H183 C182 0.961 . S
H184 C182 0.961 . S
H185 C182 0.960 1_554 S
C186 N187 1.342 . S
C186 C190 1.401 . S
C186 C191 1.499 . S
N187 Co170 1.989 . S
N187 C186 1.342 . S
N187 N188 1.388 . S
N188 Co171 1.993 . S
N188 N187 1.388 . S
N188 C189 1.346 . S
C189 N188 1.346 . S
C189 C190 1.396 . S
C189 C199 1.510 . S
C190 C186 1.401 . S
C190 C189 1.396 . S
C191 C186 1.499 . S
C191 H192 0.959 . S
C191 H193 0.960 . S
C191 H194 0.961 . S
H192 C191 0.959 . S
H193 C191 0.960 . S
H194 C191 0.961 . S
O195 Co170 1.967 . S
O195 C203 1.258 . S
O196 Co171 1.941 . S
O196 C203 1.266 . S
H197 C199 0.959 . S
H198 C199 0.961 . S
C199 C189 1.510 . S
C199 H197 0.959 . S
C199 H198 0.961 . S
C199 H200 0.960 . S
H200 C199 0.960 . S
H201 N181 0.862 . S
O202 Co170 1.920 . S
O202 C175 1.289 1_655 S
C203 O195 1.258 . S
C203 O196 1.266 . S
Co204 O207 1.970 . S
Co204 N221 1.989 . S
Co204 O229 1.967 . S
Co204 O236 1.920 . S
Co205 O208 1.966 . S
Co205 N214 2.022 . S
Co205 N222 1.993 . S
Co205 O230 1.941 . S
C206 O207 1.258 . S
C206 O208 1.263 . S
O207 Co204 1.970 . S
O207 C206 1.258 . S
O208 Co205 1.966 . S
O208 C206 1.263 . S
C209 O210 1.235 . S
C209 O236 1.289 . S
O210 C209 1.235 . S
C211 C213 1.400 . S
C211 N214 1.351 . S
C211 C216 1.501 . S
C212 C213 1.387 . S
C212 N215 1.341 . S
C213 C211 1.400 . S
C213 C212 1.387 . S
N214 Co205 2.022 . S
N214 C211 1.351 . S
N214 N215 1.365 . S
N215 C212 1.341 . S
N215 N214 1.365 . S
N215 H235 0.862 . S
C216 C211 1.501 . S
C216 H217 0.961 . S
C216 H218 0.961 . S
C216 H219 0.960 . S
H217 C216 0.961 . S
H218 C216 0.961 . S
H219 C216 0.960 . S
C220 N221 1.342 . S
C220 C224 1.401 . S
C220 C225 1.499 . S
N221 Co204 1.989 . S
N221 C220 1.342 . S
N221 N222 1.388 . S
N222 Co205 1.993 . S
N222 N221 1.388 . S
N222 C223 1.346 . S
C223 N222 1.346 . S
C223 C224 1.396 . S
C223 C233 1.510 . S
C224 C220 1.401 . S
C224 C223 1.396 . S
C225 C220 1.499 . S
C225 H226 0.959 . S
C225 H227 0.960 . S
C225 H228 0.961 . S
H226 C225 0.959 . S
H227 C225 0.960 . S
H228 C225 0.961 . S
O229 Co204 1.967 . S
O229 C237 1.258 . S
O230 Co205 1.941 . S
O230 C237 1.266 . S
H231 C233 0.959 . S
H232 C233 0.961 . S
C233 C223 1.510 . S
C233 H231 0.959 . S
C233 H232 0.961 . S
C233 H234 0.960 . S
H234 C233 0.960 . S
H235 N215 0.862 . S
O236 Co204 1.920 . S
O236 C209 1.289 . S
C237 O229 1.258 . S
C237 O230 1.266 . S
Co238 O241 1.970 . S
Co238 N255 1.989 . S
Co238 O263 1.967 . S
Co238 O270 1.920 . S
Co239 O242 1.966 . S
Co239 N248 2.022 . S
Co239 N256 1.993 . S
Co239 O264 1.941 . S
C240 O241 1.258 . S
C240 O242 1.263 . S
O241 Co238 1.970 . S
O241 C240 1.258 . S
O242 Co239 1.966 . S
O242 C240 1.263 . S
C243 O244 1.235 . S
C243 O270 1.289 . S
O244 C243 1.235 . S
C245 C247 1.400 . S
C245 N248 1.351 . S
C245 C250 1.501 . S
C246 C247 1.387 . S
C246 N249 1.341 . S
C247 C245 1.400 . S
C247 C246 1.387 . S
N248 Co239 2.022 . S
N248 C245 1.351 . S
N248 N249 1.365 . S
N249 C246 1.341 . S
N249 N248 1.365 . S
N249 H269 0.862 . S
C250 C245 1.501 . S
C250 H251 0.961 . S
C250 H252 0.961 . S
C250 H253 0.960 . S
H251 C250 0.961 . S
H252 C250 0.961 . S
H253 C250 0.960 . S
C254 N255 1.342 . S
C254 C258 1.401 . S
C254 C259 1.499 . S
N255 Co238 1.989 . S
N255 C254 1.342 . S
N255 N256 1.388 . S
N256 Co239 1.993 . S
N256 N255 1.388 . S
N256 C257 1.346 . S
C257 N256 1.346 . S
C257 C258 1.396 . S
C257 C267 1.510 . S
C258 C254 1.401 . S
C258 C257 1.396 . S
C259 C254 1.499 . S
C259 H260 0.959 . S
C259 H261 0.960 . S
C259 H262 0.961 . S
H260 C259 0.959 . S
H261 C259 0.960 . S
H262 C259 0.961 . S
O263 Co238 1.967 . S
O263 C271 1.258 . S
O264 Co239 1.941 . S
O264 C271 1.266 . S
H265 C267 0.959 . S
H266 C267 0.961 . S
C267 C257 1.510 . S
C267 H265 0.959 . S
C267 H266 0.961 . S
C267 H268 0.960 . S
H268 C267 0.960 . S
H269 N249 0.862 . S
O270 Co238 1.920 . S
O270 C243 1.289 . S
C271 O263 1.258 . S
C271 O264 1.266 . S
Co272 O275 1.970 . S
Co272 N289 1.989 . S
Co272 O297 1.967 . S
Co272 O304 1.920 . S
Co273 O276 1.966 . S
Co273 N282 2.022 . S
Co273 N290 1.993 . S
Co273 O298 1.941 . S
C274 O275 1.258 . S
C274 O276 1.263 . S
O275 Co272 1.970 . S
O275 C274 1.258 . S
O276 Co273 1.966 . S
O276 C274 1.263 . S
C277 O278 1.235 . S
C277 O304 1.289 . S
O278 C277 1.235 . S
C279 C281 1.400 . S
C279 N282 1.351 . S
C279 C284 1.501 . S
C280 C281 1.387 . S
C280 N283 1.341 . S
C281 C279 1.400 . S
C281 C280 1.387 . S
N282 Co273 2.022 . S
N282 C279 1.351 . S
N282 N283 1.365 . S
N283 C280 1.341 . S
N283 N282 1.365 . S
N283 H303 0.862 . S
C284 C279 1.501 . S
C284 H285 0.961 . S
C284 H286 0.961 . S
C284 H287 0.960 . S
H285 C284 0.961 . S
H286 C284 0.961 . S
H287 C284 0.960 . S
C288 N289 1.342 . S
C288 C292 1.401 . S
C288 C293 1.499 . S
N289 Co272 1.989 . S
N289 C288 1.342 . S
N289 N290 1.388 . S
N290 Co273 1.993 . S
N290 N289 1.388 . S
N290 C291 1.346 . S
C291 N290 1.346 . S
C291 C292 1.396 . S
C291 C301 1.510 . S
C292 C288 1.401 . S
C292 C291 1.396 . S
C293 C288 1.499 . S
C293 H294 0.959 . S
C293 H295 0.960 . S
C293 H296 0.961 . S
H294 C293 0.959 . S
H295 C293 0.960 . S
H296 C293 0.961 . S
O297 Co272 1.967 . S
O297 C305 1.258 . S
O298 Co273 1.941 . S
O298 C305 1.266 . S
H299 C301 0.959 . S
H300 C301 0.961 . S
C301 C291 1.510 . S
C301 H299 0.959 . S
C301 H300 0.961 . S
C301 H302 0.960 . S
H302 C301 0.960 . S
H303 N283 0.862 . S
O304 Co272 1.920 . S
O304 C277 1.289 . S
C305 O297 1.258 . S
C305 O298 1.266 . S
Co306 O309 1.970 . S
Co306 N323 1.989 . S
Co306 O331 1.967 . S
Co306 O338 1.920 . S
Co307 O310 1.966 . S
Co307 N316 2.022 . S
Co307 N324 1.993 . S
Co307 O332 1.941 . S
C308 O309 1.258 . S
C308 O310 1.263 . S
O309 Co306 1.970 . S
O309 C308 1.258 . S
O310 Co307 1.966 . S
O310 C308 1.263 . S
C311 O312 1.235 . S
C311 O338 1.289 . S
O312 C311 1.235 . S
C313 C315 1.400 . S
C313 N316 1.351 . S
C313 C318 1.501 . S
C314 C315 1.387 . S
C314 N317 1.341 . S
C315 C313 1.400 . S
C315 C314 1.387 . S
N316 Co307 2.022 . S
N316 C313 1.351 . S
N316 N317 1.365 . S
N317 C314 1.341 . S
N317 N316 1.365 . S
N317 H337 0.862 . S
C318 C313 1.501 . S
C318 H319 0.961 . S
C318 H320 0.961 . S
C318 H321 0.960 . S
H319 C318 0.961 . S
H320 C318 0.961 . S
H321 C318 0.960 . S
C322 N323 1.342 . S
C322 C326 1.401 . S
C322 C327 1.499 . S
N323 Co306 1.989 . S
N323 C322 1.342 . S
N323 N324 1.388 . S
N324 Co307 1.993 . S
N324 N323 1.388 . S
N324 C325 1.346 . S
C325 N324 1.346 . S
C325 C326 1.396 . S
C325 C335 1.510 . S
C326 C322 1.401 . S
C326 C325 1.396 . S
C327 C322 1.499 . S
C327 H328 0.959 . S
C327 H329 0.960 . S
C327 H330 0.961 . S
H328 C327 0.959 . S
H329 C327 0.960 . S
H330 C327 0.961 . S
O331 Co306 1.967 . S
O331 C339 1.258 . S
O332 Co307 1.941 . S
O332 C339 1.266 . S
H333 C335 0.959 . S
H334 C335 0.961 . S
C335 C325 1.510 . S
C335 H333 0.959 . S
C335 H334 0.961 . S
C335 H336 0.960 . S
H336 C335 0.960 . S
H337 N317 0.862 . S
O338 Co306 1.920 . S
O338 C311 1.289 . S
C339 O331 1.258 . S
C339 O332 1.266 . S
Co340 O343 1.970 . S
Co340 N357 1.989 . S
Co340 O365 1.967 . S
Co340 O372 1.920 . S
Co341 O344 1.966 . S
Co341 N350 2.022 . S
Co341 N358 1.993 . S
Co341 O366 1.941 . S
C342 O343 1.258 . S
C342 O344 1.263 . S
O343 Co340 1.970 . S
O343 C342 1.258 . S
O344 Co341 1.966 . S
O344 C342 1.263 . S
C345 O346 1.235 . S
C345 O372 1.289 . S
O346 C345 1.235 . S
C347 C349 1.400 . S
C347 N350 1.351 . S
C347 C352 1.501 . S
C348 C349 1.387 . S
C348 N351 1.341 . S
C349 C347 1.400 . S
C349 C348 1.387 . S
N350 Co341 2.022 . S
N350 C347 1.351 . S
N350 N351 1.365 . S
N351 C348 1.341 . S
N351 N350 1.365 . S
N351 H371 0.862 . S
C352 C347 1.501 . S
C352 H353 0.961 . S
C352 H354 0.961 . S
C352 H355 0.960 . S
H353 C352 0.961 . S
H354 C352 0.961 . S
H355 C352 0.960 . S
C356 N357 1.342 . S
C356 C360 1.401 . S
C356 C361 1.499 . S
N357 Co340 1.989 . S
N357 C356 1.342 . S
N357 N358 1.388 . S
N358 Co341 1.993 . S
N358 N357 1.388 . S
N358 C359 1.346 . S
C359 N358 1.346 . S
C359 C360 1.396 . S
C359 C369 1.510 . S
C360 C356 1.401 . S
C360 C359 1.396 . S
C361 C356 1.499 . S
C361 H362 0.959 . S
C361 H363 0.960 . S
C361 H364 0.961 . S
H362 C361 0.959 . S
H363 C361 0.960 . S
H364 C361 0.961 . S
O365 Co340 1.967 . S
O365 C373 1.258 . S
O366 Co341 1.941 . S
O366 C373 1.266 . S
H367 C369 0.959 . S
H368 C369 0.961 . S
C369 C359 1.510 . S
C369 H367 0.959 . S
C369 H368 0.961 . S
C369 H370 0.960 . S
H370 C369 0.960 . S
H371 N351 0.862 . S
O372 Co340 1.920 . S
O372 C345 1.289 . S
C373 O365 1.258 . S
C373 O366 1.266 . S
Co374 O377 1.970 . S
Co374 N391 1.989 . S
Co374 O399 1.967 . S
Co374 O406 1.920 . S
Co375 O378 1.966 . S
Co375 N384 2.022 . S
Co375 N392 1.993 . S
Co375 O400 1.941 . S
C376 O377 1.258 . S
C376 O378 1.263 . S
O377 Co374 1.970 . S
O377 C376 1.258 . S
O378 Co375 1.966 . S
O378 C376 1.263 . S
C379 O380 1.235 . S
C379 O406 1.289 . S
O380 C379 1.235 . S
C381 C383 1.400 . S
C381 N384 1.351 . S
C381 C386 1.501 . S
C382 C383 1.387 . S
C382 N385 1.341 . S
C383 C381 1.400 . S
C383 C382 1.387 . S
N384 Co375 2.022 . S
N384 C381 1.351 . S
N384 N385 1.365 . S
N385 C382 1.341 . S
N385 N384 1.365 . S
N385 H405 0.862 . S
C386 C381 1.501 . S
C386 H387 0.961 . S
C386 H388 0.961 . S
C386 H389 0.960 . S
H387 C386 0.961 . S
H388 C386 0.961 . S
H389 C386 0.960 . S
C390 N391 1.342 . S
C390 C394 1.401 . S
C390 C395 1.499 . S
N391 Co374 1.989 . S
N391 C390 1.342 . S
N391 N392 1.388 . S
N392 Co375 1.993 . S
N392 N391 1.388 . S
N392 C393 1.346 . S
C393 N392 1.346 . S
C393 C394 1.396 . S
C393 C403 1.510 . S
C394 C390 1.401 . S
C394 C393 1.396 . S
C395 C390 1.499 . S
C395 H396 0.959 . S
C395 H397 0.960 . S
C395 H398 0.961 . S
H396 C395 0.959 . S
H397 C395 0.960 . S
H398 C395 0.961 . S
O399 Co374 1.967 . S
O399 C407 1.258 . S
O400 Co375 1.941 . S
O400 C407 1.266 . S
H401 C403 0.959 . S
H402 C403 0.961 . S
C403 C393 1.510 . S
C403 H401 0.959 . S
C403 H402 0.961 . S
C403 H404 0.960 . S
H404 C403 0.960 . S
H405 N385 0.862 . S
O406 Co374 1.920 . S
O406 C379 1.289 . S
C407 O399 1.258 . S
C407 O400 1.266 . S
Co408 O411 1.970 . S
Co408 N425 1.989 . S
Co408 O433 1.967 . S
Co408 O440 1.920 . S
Co409 O412 1.966 . S
Co409 N418 2.022 . S
Co409 N426 1.993 . S
Co409 O434 1.941 . S
C410 O411 1.258 . S
C410 O412 1.263 . S
O411 Co408 1.970 . S
O411 C410 1.258 . S
O412 Co409 1.966 . S
O412 C410 1.263 . S
C413 O414 1.235 . S
C413 O440 1.289 . S
O414 C413 1.235 . S
C415 C417 1.400 . S
C415 N418 1.351 . S
C415 C420 1.501 . S
C416 C417 1.387 . S
C416 N419 1.341 . S
C417 C415 1.400 . S
C417 C416 1.387 . S
N418 Co409 2.022 . S
N418 C415 1.351 . S
N418 N419 1.365 . S
N419 C416 1.341 . S
N419 N418 1.365 . S
N419 H439 0.862 . S
C420 C415 1.501 . S
C420 H421 0.961 . S
C420 H422 0.961 . S
C420 H423 0.960 . S
H421 C420 0.961 . S
H422 C420 0.961 . S
H423 C420 0.960 . S
C424 N425 1.342 . S
C424 C428 1.401 . S
C424 C429 1.499 . S
N425 Co408 1.989 . S
N425 C424 1.342 . S
N425 N426 1.388 . S
N426 Co409 1.993 . S
N426 N425 1.388 . S
N426 C427 1.346 . S
C427 N426 1.346 . S
C427 C428 1.396 . S
C427 C437 1.510 . S
C428 C424 1.401 . S
C428 C427 1.396 . S
C429 C424 1.499 . S
C429 H430 0.959 . S
C429 H431 0.960 . S
C429 H432 0.961 . S
H430 C429 0.959 . S
H431 C429 0.960 . S
H432 C429 0.961 . S
O433 Co408 1.967 . S
O433 C441 1.258 . S
O434 Co409 1.941 . S
O434 C441 1.266 . S
H435 C437 0.959 . S
H436 C437 0.961 . S
C437 C427 1.510 . S
C437 H435 0.959 . S
C437 H436 0.961 . S
C437 H438 0.960 . S
H438 C437 0.960 . S
H439 N419 0.862 . S
O440 Co408 1.920 . S
O440 C413 1.289 . S
C441 O433 1.258 . S
C441 O434 1.266 . S
Co442 O445 1.970 . S
Co442 N459 1.989 . S
Co442 O467 1.967 . S
Co442 O474 1.920 . S
Co443 O446 1.966 . S
Co443 N452 2.022 . S
Co443 N460 1.993 . S
Co443 O468 1.941 . S
C444 O445 1.258 . S
C444 O446 1.263 . S
O445 Co442 1.970 . S
O445 C444 1.258 . S
O446 Co443 1.966 . S
O446 C444 1.263 . S
C447 O448 1.235 . S
C447 O474 1.289 . S
O448 C447 1.235 . S
C449 C451 1.400 . S
C449 N452 1.351 . S
C449 C454 1.501 . S
C450 C451 1.387 . S
C450 N453 1.341 . S
C451 C449 1.400 . S
C451 C450 1.387 . S
N452 Co443 2.022 . S
N452 C449 1.351 . S
N452 N453 1.365 . S
N453 C450 1.341 . S
N453 N452 1.365 . S
N453 H473 0.862 . S
C454 C449 1.501 . S
C454 H455 0.961 . S
C454 H456 0.961 . S
C454 H457 0.960 . S
H455 C454 0.961 . S
H456 C454 0.961 . S
H457 C454 0.960 . S
C458 N459 1.342 . S
C458 C462 1.401 . S
C458 C463 1.499 . S
N459 Co442 1.989 . S
N459 C458 1.342 . S
N459 N460 1.388 . S
N460 Co443 1.993 . S
N460 N459 1.388 . S
N460 C461 1.346 . S
C461 N460 1.346 . S
C461 C462 1.396 . S
C461 C471 1.510 . S
C462 C458 1.401 . S
C462 C461 1.396 . S
C463 C458 1.499 . S
C463 H464 0.959 . S
C463 H465 0.960 . S
C463 H466 0.961 . S
H464 C463 0.959 . S
H465 C463 0.960 . S
H466 C463 0.961 . S
O467 Co442 1.967 . S
O467 C475 1.258 . S
O468 Co443 1.941 . S
O468 C475 1.266 . S
H469 C471 0.959 . S
H470 C471 0.961 . S
C471 C461 1.510 . S
C471 H469 0.959 . S
C471 H470 0.961 . S
C471 H472 0.960 . S
H472 C471 0.960 . S
H473 N453 0.862 . S
O474 Co442 1.920 . S
O474 C447 1.289 . S
C475 O467 1.258 . S
C475 O468 1.266 . S
Co476 O479 1.970 . S
Co476 N493 1.989 . S
Co476 O501 1.967 . S
Co476 O508 1.920 . S
Co477 O480 1.966 . S
Co477 N486 2.022 . S
Co477 N494 1.993 . S
Co477 O502 1.941 . S
C478 O479 1.258 . S
C478 O480 1.263 . S
O479 Co476 1.970 . S
O479 C478 1.258 . S
O480 Co477 1.966 . S
O480 C478 1.263 . S
C481 O482 1.235 . S
C481 O508 1.289 . S
O482 C481 1.235 . S
C483 C485 1.400 . S
C483 N486 1.351 . S
C483 C488 1.501 . S
C484 C485 1.387 . S
C484 N487 1.341 . S
C485 C483 1.400 . S
C485 C484 1.387 . S
N486 Co477 2.022 . S
N486 C483 1.351 . S
N486 N487 1.365 . S
N487 C484 1.341 . S
N487 N486 1.365 . S
N487 H507 0.862 . S
C488 C483 1.501 . S
C488 H489 0.961 . S
C488 H490 0.961 . S
C488 H491 0.960 . S
H489 C488 0.961 . S
H490 C488 0.961 . S
H491 C488 0.960 . S
C492 N493 1.342 . S
C492 C496 1.401 . S
C492 C497 1.499 . S
N493 Co476 1.989 . S
N493 C492 1.342 . S
N493 N494 1.388 . S
N494 Co477 1.993 . S
N494 N493 1.388 . S
N494 C495 1.346 . S
C495 N494 1.346 . S
C495 C496 1.396 . S
C495 C505 1.510 . S
C496 C492 1.401 . S
C496 C495 1.396 . S
C497 C492 1.499 . S
C497 H498 0.959 . S
C497 H499 0.960 . S
C497 H500 0.961 . S
H498 C497 0.959 . S
H499 C497 0.960 . S
H500 C497 0.961 . S
O501 Co476 1.967 . S
O501 C509 1.258 . S
O502 Co477 1.941 . S
O502 C509 1.266 . S
H503 C505 0.959 . S
H504 C505 0.961 . S
C505 C495 1.510 . S
C505 H503 0.959 . S
C505 H504 0.961 . S
C505 H506 0.960 . S
H506 C505 0.960 . S
H507 N487 0.862 . S
O508 Co476 1.920 . S
O508 C481 1.289 . S
C509 O501 1.258 . S
C509 O502 1.266 . S
Co510 O513 1.970 . S
Co510 N527 1.989 . S
Co510 O535 1.967 . S
Co510 O542 1.920 . S
Co511 O514 1.966 . S
Co511 N520 2.022 . S
Co511 N528 1.993 . S
Co511 O536 1.941 . S
C512 O513 1.258 . S
C512 O514 1.263 . S
O513 Co510 1.970 . S
O513 C512 1.258 . S
O514 Co511 1.966 . S
O514 C512 1.263 . S
C515 O516 1.235 . S
C515 O542 1.289 . S
O516 C515 1.235 . S
C517 C519 1.400 . S
C517 N520 1.351 . S
C517 C522 1.501 . S
C518 C519 1.387 . S
C518 N521 1.341 . S
C519 C517 1.400 . S
C519 C518 1.387 . S
N520 Co511 2.022 . S
N520 C517 1.351 . S
N520 N521 1.365 . S
N521 C518 1.341 . S
N521 N520 1.365 . S
N521 H541 0.862 . S
C522 C517 1.501 . S
C522 H523 0.961 . S
C522 H524 0.961 . S
C522 H525 0.960 . S
H523 C522 0.961 . S
H524 C522 0.961 . S
H525 C522 0.960 . S
C526 N527 1.342 . S
C526 C530 1.401 . S
C526 C531 1.499 . S
N527 Co510 1.989 . S
N527 C526 1.342 . S
N527 N528 1.388 . S
N528 Co511 1.993 . S
N528 N527 1.388 . S
N528 C529 1.346 . S
C529 N528 1.346 . S
C529 C530 1.396 . S
C529 C539 1.510 . S
C530 C526 1.401 . S
C530 C529 1.396 . S
C531 C526 1.499 . S
C531 H532 0.959 . S
C531 H533 0.960 . S
C531 H534 0.961 . S
H532 C531 0.959 . S
H533 C531 0.960 . S
H534 C531 0.961 . S
O535 Co510 1.967 . S
O535 C543 1.258 . S
O536 Co511 1.941 . S
O536 C543 1.266 . S
H537 C539 0.959 . S
H538 C539 0.961 . S
C539 C529 1.510 . S
C539 H537 0.959 . S
C539 H538 0.961 . S
C539 H540 0.960 . S
H540 C539 0.960 . S
H541 N521 0.862 . S
O542 Co510 1.920 . S
O542 C515 1.289 . S
C543 O535 1.258 . S
C543 O536 1.266 . S
Co544 O547 1.970 . S
Co544 N561 1.989 . S
Co544 O569 1.967 . S
Co544 O576 1.920 . S
Co545 O548 1.966 . S
Co545 N554 2.022 . S
Co545 N562 1.993 . S
Co545 O570 1.941 . S
C546 O547 1.258 . S
C546 O548 1.263 . S
O547 Co544 1.970 . S
O547 C546 1.258 . S
O548 Co545 1.966 . S
O548 C546 1.263 . S
C549 O550 1.235 . S
C549 O576 1.289 . S
O550 C549 1.235 . S
C551 C553 1.400 . S
C551 N554 1.351 . S
C551 C556 1.501 . S
C552 C553 1.387 . S
C552 N555 1.341 . S
C553 C551 1.400 . S
C553 C552 1.387 . S
N554 Co545 2.022 . S
N554 C551 1.351 . S
N554 N555 1.365 . S
N555 C552 1.341 . S
N555 N554 1.365 . S
N555 H575 0.862 . S
C556 C551 1.501 . S
C556 H557 0.961 . S
C556 H558 0.961 . S
C556 H559 0.960 . S
H557 C556 0.961 . S
H558 C556 0.961 . S
H559 C556 0.960 . S
C560 N561 1.342 . S
C560 C564 1.401 . S
C560 C565 1.499 . S
N561 Co544 1.989 . S
N561 C560 1.342 . S
N561 N562 1.388 . S
N562 Co545 1.993 . S
N562 N561 1.388 . S
N562 C563 1.346 . S
C563 N562 1.346 . S
C563 C564 1.396 . S
C563 C573 1.510 . S
C564 C560 1.401 . S
C564 C563 1.396 . S
C565 C560 1.499 . S
C565 H566 0.959 . S
C565 H567 0.960 . S
C565 H568 0.961 . S
H566 C565 0.959 . S
H567 C565 0.960 . S
H568 C565 0.961 . S
O569 Co544 1.967 . S
O569 C577 1.258 . S
O570 Co545 1.941 . S
O570 C577 1.266 . S
H571 C573 0.959 . S
H572 C573 0.961 . S
C573 C563 1.510 . S
C573 H571 0.959 . S
C573 H572 0.961 . S
C573 H574 0.960 . S
H574 C573 0.960 . S
H575 N555 0.862 . S
O576 Co544 1.920 . S
O576 C549 1.289 . S
C577 O569 1.258 . S
C577 O570 1.266 . S
Co578 O581 1.970 . S
Co578 N595 1.989 . S
Co578 O603 1.967 . S
Co578 O610 1.920 . S
Co579 O582 1.966 . S
Co579 N588 2.022 . S
Co579 N596 1.993 . S
Co579 O604 1.941 . S
C580 O581 1.258 . S
C580 O582 1.263 . S
O581 Co578 1.970 . S
O581 C580 1.258 . S
O582 Co579 1.966 . S
O582 C580 1.263 . S
C583 O584 1.235 . S
C583 O610 1.289 . S
O584 C583 1.235 . S
C585 C587 1.400 . S
C585 N588 1.351 . S
C585 C590 1.501 . S
C586 C587 1.387 . S
C586 N589 1.341 . S
C587 C585 1.400 . S
C587 C586 1.387 . S
N588 Co579 2.022 . S
N588 C585 1.351 . S
N588 N589 1.365 . S
N589 C586 1.341 . S
N589 N588 1.365 . S
N589 H609 0.862 . S
C590 C585 1.501 . S
C590 H591 0.961 . S
C590 H592 0.961 . S
C590 H593 0.960 . S
H591 C590 0.961 . S
H592 C590 0.961 . S
H593 C590 0.960 . S
C594 N595 1.342 . S
C594 C598 1.401 . S
C594 C599 1.499 . S
N595 Co578 1.989 . S
N595 C594 1.342 . S
N595 N596 1.388 . S
N596 Co579 1.993 . S
N596 N595 1.388 . S
N596 C597 1.346 . S
C597 N596 1.346 . S
C597 C598 1.396 . S
C597 C607 1.510 . S
C598 C594 1.401 . S
C598 C597 1.396 . S
C599 C594 1.499 . S
C599 H600 0.959 . S
C599 H601 0.960 . S
C599 H602 0.961 . S
H600 C599 0.959 . S
H601 C599 0.960 . S
H602 C599 0.961 . S
O603 Co578 1.967 . S
O603 C611 1.258 . S
O604 Co579 1.941 . S
O604 C611 1.266 . S
H605 C607 0.959 . S
H606 C607 0.961 . S
C607 C597 1.510 . S
C607 H605 0.959 . S
C607 H606 0.961 . S
C607 H608 0.960 . S
H608 C607 0.960 . S
H609 N589 0.862 . S
O610 Co578 1.920 . S
O610 C583 1.289 . S
C611 O603 1.258 . S
C611 O604 1.266 . S
C612 C613 1.363 . S
C612 C618 1.379 . S
C612 N620 1.356 . S
C613 C612 1.363 . S
C613 C619 1.363 . S
C614 C615 1.363 . S
C614 C619 1.379 . S
C614 N621 1.356 . S
C615 C614 1.363 . S
C615 C618 1.363 . S
N616 C618 1.356 . S
N616 H628 0.984 . S
N616 H629 0.985 . S
N617 C619 1.356 . S
N617 H622 0.984 . S
N617 H623 0.985 . S
C618 C612 1.379 . S
C618 C615 1.363 . S
C618 N616 1.356 . S
C619 C613 1.363 . S
C619 C614 1.379 . S
C619 N617 1.356 . S
N620 C612 1.356 . S
N620 H626 0.984 . S
N620 H627 0.984 . S
N621 C614 1.356 . S
N621 H624 0.984 . S
N621 H625 0.985 . S
H622 N617 0.984 . S
H623 N617 0.985 . S
H624 N621 0.984 . S
H625 N621 0.985 . S
H626 N620 0.984 . S
H627 N620 0.984 . S
H628 N616 0.984 . S
H629 N616 0.985 . S
C630 C631 1.363 . S
C630 C636 1.379 . S
C630 N638 1.356 . S
C631 C630 1.363 . S
C631 C637 1.363 . S
C632 C633 1.363 . S
C632 C637 1.379 . S
C632 N639 1.356 . S
C633 C632 1.363 . S
C633 C636 1.363 . S
N634 C636 1.356 . S
N634 H646 0.984 . S
N634 H647 0.985 . S
N635 C637 1.356 . S
N635 H640 0.984 . S
N635 H641 0.985 . S
C636 C630 1.379 . S
C636 C633 1.363 . S
C636 N634 1.356 . S
C637 C631 1.363 . S
C637 C632 1.379 . S
C637 N635 1.356 . S
N638 C630 1.356 . S
N638 H644 0.984 . S
N638 H645 0.984 . S
N639 C632 1.356 . S
N639 H642 0.984 . S
N639 H643 0.985 . S
H640 N635 0.984 . S
H641 N635 0.985 . S
H642 N639 0.984 . S
H643 N639 0.985 . S
H644 N638 0.984 . S
H645 N638 0.984 . S
H646 N634 0.984 . S
H647 N634 0.985 . S
C648 C649 1.363 . S
C648 C654 1.379 . S
C648 N656 1.356 . S
C649 C648 1.363 . S
C649 C655 1.363 . S
C650 C651 1.363 . S
C650 C655 1.379 . S
C650 N657 1.356 . S
C651 C650 1.363 . S
C651 C654 1.363 . S
N652 C654 1.356 . S
N652 H664 0.984 . S
N652 H665 0.985 . S
N653 C655 1.356 1_455 S
N653 H658 0.984 . S
N653 H659 0.985 . S
C654 C648 1.379 . S
C654 C651 1.363 . S
C654 N652 1.356 . S
C655 C649 1.363 . S
C655 C650 1.379 . S
C655 N653 1.356 1_655 S
N656 C648 1.356 . S
N656 H662 0.984 . S
N656 H663 0.984 . S
N657 C650 1.356 . S
N657 H660 0.984 . S
N657 H661 0.985 . S
H658 N653 0.984 . S
H659 N653 0.985 . S
H660 N657 0.984 . S
H661 N657 0.985 . S
H662 N656 0.984 . S
H663 N656 0.984 . S
H664 N652 0.984 . S
H665 N652 0.985 . S
C666 C667 1.363 . S
C666 C672 1.379 . S
C666 N674 1.356 . S
C667 C666 1.363 . S
C667 C673 1.363 . S
C668 C669 1.363 . S
C668 C673 1.379 . S
C668 N675 1.356 . S
C669 C668 1.363 . S
C669 C672 1.363 . S
N670 C672 1.356 . S
N670 H682 0.984 . S
N670 H683 0.985 . S
N671 C673 1.356 . S
N671 H676 0.984 . S
N671 H677 0.985 . S
C672 C666 1.379 . S
C672 C669 1.363 . S
C672 N670 1.356 . S
C673 C667 1.363 . S
C673 C668 1.379 . S
C673 N671 1.356 . S
N674 C666 1.356 . S
N674 H680 0.984 . S
N674 H681 0.984 . S
N675 C668 1.356 . S
N675 H678 0.984 . S
N675 H679 0.985 . S
H676 N671 0.984 . S
H677 N671 0.985 . S
H678 N675 0.984 . S
H679 N675 0.985 . S
H680 N674 0.984 . S
H681 N674 0.984 . S
H682 N670 0.984 . S
H683 N670 0.985 . S
C684 C685 1.363 . S
C684 C690 1.379 . S
C684 N692 1.356 1_565 S
C685 C684 1.363 . S
C685 C691 1.363 . S
C686 C687 1.363 . S
C686 C691 1.379 . S
C686 N693 1.356 . S
C687 C686 1.363 . S
C687 C690 1.363 . S
N688 C690 1.356 . S
N688 H700 0.984 . S
N688 H701 0.985 . S
N689 C691 1.356 . S
N689 H694 0.984 . S
N689 H695 0.985 . S
C690 C684 1.379 . S
C690 C687 1.363 . S
C690 N688 1.356 . S
C691 C685 1.363 . S
C691 C686 1.379 . S
C691 N689 1.356 . S
N692 C684 1.356 1_545 S
N692 H698 0.984 . S
N692 H699 0.984 . S
N693 C686 1.356 . S
N693 H696 0.984 . S
N693 H697 0.985 . S
H694 N689 0.984 . S
H695 N689 0.985 . S
H696 N693 0.984 . S
H697 N693 0.985 . S
H698 N692 0.984 . S
H699 N692 0.984 . S
H700 N688 0.984 . S
H701 N688 0.985 . S
C702 C703 1.363 . S
C702 C708 1.379 . S
C702 N710 1.356 . S
C703 C702 1.363 . S
C703 C709 1.363 . S
C704 C705 1.363 . S
C704 C709 1.379 . S
C704 N711 1.356 . S
C705 C704 1.363 . S
C705 C708 1.363 . S
N706 C708 1.356 . S
N706 H718 0.984 . S
N706 H719 0.985 . S
N707 C709 1.356 . S
N707 H712 0.984 1_455 S
N707 H713 0.985 . S
C708 C702 1.379 . S
C708 C705 1.363 . S
C708 N706 1.356 . S
C709 C703 1.363 . S
C709 C704 1.379 . S
C709 N707 1.356 . S
N710 C702 1.356 . S
N710 H716 0.984 . S
N710 H717 0.984 . S
N711 C704 1.356 . S
N711 H714 0.984 . S
N711 H715 0.985 . S
H712 N707 0.984 1_655 S
H713 N707 0.985 . S
H714 N711 0.984 . S
H715 N711 0.985 . S
H716 N710 0.984 . S
H717 N710 0.984 . S
H718 N706 0.984 . S
H719 N706 0.985 . S
C720 C721 1.363 . S
C720 C726 1.379 . S
C720 N728 1.356 . S
C721 C720 1.363 . S
C721 C727 1.363 . S
C722 C723 1.362 . S
C722 C727 1.379 1_455 S
C722 N729 1.356 . S
C723 C722 1.362 . S
C723 C726 1.354 1_455 S
N724 C726 1.356 . S
N724 H736 0.984 . S
N724 H737 0.985 . S
N725 C727 1.356 . S
N725 H730 0.984 . S
N725 H731 0.985 1_655 S
C726 C720 1.379 . S
C726 C723 1.354 1_655 S
C726 N724 1.356 . S
C727 C721 1.363 . S
C727 C722 1.379 1_655 S
C727 N725 1.356 . S
N728 C720 1.356 . S
N728 H734 0.984 . S
N728 H735 0.984 . S
N729 C722 1.356 . S
N729 H732 0.984 . S
N729 H733 0.985 . S
H730 N725 0.984 . S
H731 N725 0.985 1_455 S
H732 N729 0.984 . S
H733 N729 0.985 . S
H734 N728 0.984 . S
H735 N728 0.984 . S
H736 N724 0.984 . S
H737 N724 0.985 . S
C738 C739 1.363 . S
C738 C744 1.379 . S
C738 N746 1.356 . S
C739 C738 1.363 . S
C739 C745 1.363 . S
C740 C741 1.363 . S
C740 C745 1.379 . S
C740 N747 1.356 . S
C741 C740 1.363 . S
C741 C744 1.363 . S
N742 C744 1.356 . S
N742 H754 0.984 . S
N742 H755 0.985 . S
N743 C745 1.356 . S
N743 H748 0.984 . S
N743 H749 0.985 . S
C744 C738 1.379 . S
C744 C741 1.363 . S
C744 N742 1.356 . S
C745 C739 1.363 . S
C745 C740 1.379 . S
C745 N743 1.356 . S
N746 C738 1.356 . S
N746 H752 0.984 . S
N746 H753 0.984 . S
N747 C740 1.356 . S
N747 H750 0.984 . S
N747 H751 0.985 . S
H748 N743 0.984 . S
H749 N743 0.985 . S
H750 N747 0.984 . S
H751 N747 0.985 . S
H752 N746 0.984 . S
H753 N746 0.984 . S
H754 N742 0.984 . S
H755 N742 0.985 . S
C756 C757 1.351 1_545 S
C756 C762 1.379 . S
C756 N764 1.356 . S
C757 C756 1.351 1_565 S
C757 C763 1.371 . S
C758 C759 1.363 . S
C758 C763 1.379 1_545 S
C758 N765 1.356 . S
C759 C758 1.363 . S
C759 C762 1.363 . S
N760 C762 1.356 . S
N760 H772 0.984 . S
N760 H773 0.985 . S
N761 C763 1.356 . S
N761 H766 0.984 . S
N761 H767 0.985 . S
C762 C756 1.379 . S
C762 C759 1.363 . S
C762 N760 1.356 . S
C763 C757 1.371 . S
C763 C758 1.379 1_565 S
C763 N761 1.356 . S
N764 C756 1.356 . S
N764 H770 0.984 . S
N764 H771 0.984 . S
N765 C758 1.356 . S
N765 H768 0.984 . S
N765 H769 0.985 1_545 S
H766 N761 0.984 . S
H767 N761 0.985 . S
H768 N765 0.984 . S
H769 N765 0.985 1_565 S
H770 N764 0.984 . S
H771 N764 0.984 . S
H772 N760 0.984 . S
H773 N760 0.985 . S
C774 C775 1.363 . S
C774 C780 1.379 . S
C774 N782 1.356 . S
C775 C774 1.363 . S
C775 C781 1.363 . S
C776 C777 1.363 . S
C776 C781 1.379 1_556 S
C776 N783 1.356 . S
C777 C776 1.363 . S
C777 C780 1.363 1_556 S
N778 C780 1.356 . S
N778 H790 0.984 . S
N778 H791 0.985 1_554 S
N779 C781 1.356 . S
N779 H784 0.984 . S
N779 H785 0.985 1_554 S
C780 C774 1.379 . S
C780 C777 1.363 1_554 S
C780 N778 1.356 . S
C781 C775 1.363 . S
C781 C776 1.379 1_554 S
C781 N779 1.356 . S
N782 C774 1.356 . S
N782 H788 0.984 . S
N782 H789 0.984 . S
N783 C776 1.356 . S
N783 H786 0.984 . S
N783 H787 0.985 . S
H784 N779 0.984 . S
H785 N779 0.985 1_556 S
H786 N783 0.984 . S
H787 N783 0.985 . S
H788 N782 0.984 . S
H789 N782 0.984 . S
H790 N778 0.984 . S
H791 N778 0.985 1_556 S
C792 C793 1.363 . S
C792 C798 1.379 . S
C792 N800 1.356 . S
C793 C792 1.363 . S
C793 C799 1.378 . S
C794 C795 1.363 . S
C794 C799 1.367 1_556 S
C794 N801 1.356 . S
C795 C794 1.363 . S
C795 C798 1.363 1_556 S
N796 C798 1.356 . S
N796 H808 0.984 . S
N796 H809 0.985 1_554 S
N797 C799 1.358 . S
N797 H802 0.984 . S
N797 H803 0.985 1_554 S
C798 C792 1.379 . S
C798 C795 1.363 1_554 S
C798 N796 1.356 . S
C799 C793 1.378 . S
C799 C794 1.367 1_554 S
C799 N797 1.358 . S
N800 C792 1.356 . S
N800 H806 0.984 . S
N800 H807 0.984 . S
N801 C794 1.356 . S
N801 H804 0.984 . S
N801 H805 0.985 . S
H802 N797 0.984 . S
H803 N797 0.985 1_556 S
H804 N801 0.984 . S
H805 N801 0.985 . S
H806 N800 0.984 . S
H807 N800 0.984 . S
H808 N796 0.984 . S
H809 N796 0.985 1_556 S
C810 C811 1.363 . S
C810 C816 1.379 . S
C810 N818 1.356 . S
C811 C810 1.363 . S
C811 C817 1.363 1_554 S
C812 C813 1.363 . S
C812 C817 1.379 . S
C812 N819 1.356 . S
C813 C812 1.363 . S
C813 C816 1.363 1_556 S
N814 C816 1.356 . S
N814 H826 0.984 . S
N814 H827 0.985 1_554 S
N815 C817 1.356 1_554 S
N815 H820 0.994 . S
N815 H821 0.975 1_554 S
C816 C810 1.379 . S
C816 C813 1.363 1_554 S
C816 N814 1.356 . S
C817 C811 1.363 1_556 S
C817 C812 1.379 . S
C817 N815 1.356 1_556 S
N818 C810 1.356 . S
N818 H824 0.984 . S
N818 H825 0.984 . S
N819 C812 1.356 . S
N819 H822 0.984 . S
N819 H823 0.985 . S
H820 N815 0.994 . S
H821 N815 0.975 1_556 S
H822 N819 0.984 . S
H823 N819 0.985 . S
H824 N818 0.984 . S
H825 N818 0.984 . S
H826 N814 0.984 . S
H827 N814 0.985 1_556 S
C828 C829 1.363 . S
C828 C834 1.379 . S
C828 N836 1.356 . S
C829 C828 1.363 . S
C829 C835 1.363 . S
C830 C831 1.363 . S
C830 C835 1.379 1_554 S
C830 N837 1.356 . S
C831 C830 1.363 . S
C831 C834 1.363 1_554 S
N832 C834 1.356 1_554 S
N832 H844 0.984 1_554 S
N832 H845 0.985 . S
N833 C835 1.356 . S
N833 H838 0.984 . S
N833 H839 0.985 . S
C834 C828 1.379 . S
C834 C831 1.363 1_556 S
C834 N832 1.356 1_556 S
C835 C829 1.363 . S
C835 C830 1.379 1_556 S
C835 N833 1.356 . S
N836 C828 1.356 . S
N836 H842 0.984 . S
N836 H843 0.984 . S
N837 C830 1.356 . S
N837 H840 0.984 . S
N837 H841 0.985 . S
H838 N833 0.984 . S
H839 N833 0.985 . S
H840 N837 0.984 . S
H841 N837 0.985 . S
H842 N836 0.984 . S
H843 N836 0.984 . S
H844 N832 0.984 1_556 S
H845 N832 0.985 . S
C846 C847 1.363 . S
C846 C852 1.379 1_556 S
C846 N854 1.356 . S
C847 C846 1.363 . S
C847 C853 1.363 . S
C848 C849 1.363 1_556 S
C848 C853 1.379 . S
C848 N855 1.356 1_556 S
C849 C848 1.363 1_554 S
C849 C852 1.363 . S
N850 C852 1.356 . S
N850 H862 0.984 . S
N850 H863 0.985 . S
N851 C853 1.356 . S
N851 H856 0.984 . S
N851 H857 0.985 . S
C852 C846 1.379 1_554 S
C852 C849 1.363 . S
C852 N850 1.356 . S
C853 C847 1.363 . S
C853 C848 1.379 . S
C853 N851 1.356 . S
N854 C846 1.356 . S
N854 H860 0.988 . S
N854 H861 0.984 . S
N855 C848 1.356 1_554 S
N855 H858 0.984 . S
N855 H859 0.985 1_554 S
H856 N851 0.984 . S
H857 N851 0.985 . S
H858 N855 0.984 . S
H859 N855 0.985 1_556 S
H860 N854 0.988 . S
H861 N854 0.984 . S
H862 N850 0.984 . S
H863 N850 0.985 . S
C864 C865 1.363 . S
C864 C870 1.379 1_554 S
C864 N872 1.356 . S
C865 C864 1.363 . S
C865 C871 1.363 1_554 S
C866 C867 1.363 . S
C866 C871 1.379 . S
C866 N873 1.356 . S
C867 C866 1.363 . S
C867 C870 1.363 . S
N868 C870 1.356 . S
N868 H880 0.984 1_556 S
N868 H881 0.985 . S
N869 C871 1.356 . S
N869 H874 0.984 1_556 S
N869 H875 0.985 . S
C870 C864 1.379 1_556 S
C870 C867 1.363 . S
C870 N868 1.356 . S
C871 C865 1.363 1_556 S
C871 C866 1.379 . S
C871 N869 1.356 . S
N872 C864 1.356 . S
N872 H878 0.984 . S
N872 H879 0.984 . S
N873 C866 1.356 . S
N873 H876 0.984 . S
N873 H877 0.985 . S
H874 N869 0.984 1_554 S
H875 N869 0.985 . S
H876 N873 0.984 . S
H877 N873 0.985 . S
H878 N872 0.984 . S
H879 N872 0.984 . S
H880 N868 0.984 1_554 S
H881 N868 0.985 . S
C882 C883 1.354 1_455 S
C882 C888 1.379 . S
C882 N890 1.356 . S
C883 C882 1.354 1_655 S
C883 C889 1.362 . S
C884 C885 1.363 . S
C884 C889 1.379 1_455 S
C884 N891 1.356 . S
C885 C884 1.363 . S
C885 C888 1.363 . S
N886 C888 1.356 . S
N886 H898 0.984 . S
N886 H899 0.985 . S
N887 C889 1.356 . S
N887 H892 0.984 . S
N887 H893 0.985 . S
C888 C882 1.379 . S
C888 C885 1.363 . S
C888 N886 1.356 . S
C889 C883 1.362 . S
C889 C884 1.379 1_655 S
C889 N887 1.356 . S
N890 C882 1.356 . S
N890 H896 0.984 . S
N890 H897 0.984 . S
N891 C884 1.356 . S
N891 H894 0.984 . S
N891 H895 0.985 1_455 S
H892 N887 0.984 . S
H893 N887 0.985 . S
H894 N891 0.984 . S
H895 N891 0.985 1_655 S
H896 N890 0.984 . S
H897 N890 0.984 . S
H898 N886 0.984 . S
H899 N886 0.985 . S
C900 C901 1.363 . S
C900 C906 1.379 . S
C900 N908 1.356 . S
C901 C900 1.363 . S
C901 C907 1.363 . S
C902 C903 1.363 . S
C902 C907 1.379 . S
C902 N909 1.356 . S
C903 C902 1.363 . S
C903 C906 1.363 . S
N904 C906 1.356 . S
N904 H916 0.984 . S
N904 H917 0.985 . S
N905 C907 1.356 . S
N905 H910 0.984 . S
N905 H911 0.985 . S
C906 C900 1.379 . S
C906 C903 1.363 . S
C906 N904 1.356 . S
C907 C901 1.363 . S
C907 C902 1.379 . S
C907 N905 1.356 . S
N908 C900 1.356 . S
N908 H914 0.984 . S
N908 H915 0.984 . S
N909 C902 1.356 . S
N909 H912 0.984 . S
N909 H913 0.985 . S
H910 N905 0.984 . S
H911 N905 0.985 . S
H912 N909 0.984 . S
H913 N909 0.985 . S
H914 N908 0.984 . S
H915 N908 0.984 . S
H916 N904 0.984 . S
H917 N904 0.985 . S
C918 C919 1.363 . S
C918 C924 1.379 . S
C918 N926 1.356 . S
C919 C918 1.363 . S
C919 C925 1.363 . S
C920 C921 1.370 . S
C920 C925 1.379 1_545 S
C920 N927 1.356 . S
C921 C920 1.370 . S
C921 C924 1.351 1_545 S
N922 C924 1.356 . S
N922 H934 0.984 . S
N922 H935 0.985 . S
N923 C925 1.356 . S
N923 H928 0.984 . S
N923 H929 0.985 1_565 S
C924 C918 1.379 . S
C924 C921 1.351 1_565 S
C924 N922 1.356 . S
C925 C919 1.363 . S
C925 C920 1.379 1_565 S
C925 N923 1.356 . S
N926 C918 1.356 . S
N926 H932 0.984 . S
N926 H933 0.984 . S
N927 C920 1.356 . S
N927 H930 0.984 . S
N927 H931 0.985 . S
H928 N923 0.984 . S
H929 N923 0.985 1_545 S
H930 N927 0.984 . S
H931 N927 0.985 . S
H932 N926 0.984 . S
H933 N926 0.984 . S
H934 N922 0.984 . S
H935 N922 0.985 . S
C936 C937 1.363 . S
C936 C942 1.379 . S
C936 N944 1.356 . S
C937 C936 1.363 . S
C937 C943 1.363 . S
C938 C939 1.363 . S
C938 C943 1.379 . S
C938 N945 1.356 . S
C939 C938 1.363 . S
C939 C942 1.363 . S
N940 C942 1.356 . S
N940 H952 0.984 . S
N940 H953 0.985 . S
N941 C943 1.356 . S
N941 H946 0.984 . S
N941 H947 0.985 . S
C942 C936 1.379 . S
C942 C939 1.363 . S
C942 N940 1.356 . S
C943 C937 1.363 . S
C943 C938 1.379 . S
C943 N941 1.356 . S
N944 C936 1.356 . S
N944 H950 0.984 . S
N944 H951 0.984 . S
N945 C938 1.356 . S
N945 H948 0.984 . S
N945 H949 0.985 . S
H946 N941 0.984 . S
H947 N941 0.985 . S
H948 N945 0.984 . S
H949 N945 0.985 . S
H950 N944 0.984 . S
H951 N944 0.984 . S
H952 N940 0.984 . S
H953 N940 0.985 . S
C954 C955 1.363 . S
C954 C960 1.379 . S
C954 N962 1.356 . S
C955 C954 1.363 . S
C955 C961 1.363 . S
C956 C957 1.363 . S
C956 C961 1.379 . S
C956 N963 1.356 . S
C957 C956 1.363 . S
C957 C960 1.363 . S
N958 C960 1.356 . S
N958 H970 0.984 . S
N958 H971 0.985 . S
N959 C961 1.356 . S
N959 H964 0.984 . S
N959 H965 0.985 . S
C960 C954 1.379 . S
C960 C957 1.363 . S
C960 N958 1.356 . S
C961 C955 1.363 . S
C961 C956 1.379 . S
C961 N959 1.356 . S
N962 C954 1.356 . S
N962 H968 0.984 . S
N962 H969 0.984 . S
N963 C956 1.356 . S
N963 H966 0.984 . S
N963 H967 0.985 . S
H964 N959 0.984 . S
H965 N959 0.985 . S
H966 N963 0.984 . S
H967 N963 0.985 . S
H968 N962 0.984 . S
H969 N962 0.984 . S
H970 N958 0.984 . S
H971 N958 0.985 . S
C972 C973 1.363 . S
C972 C978 1.379 . S
C972 N980 1.356 . S
C973 C972 1.363 . S
C973 C979 1.363 . S
C974 C975 1.363 . S
C974 C979 1.379 . S
C974 N981 1.356 . S
C975 C974 1.363 . S
C975 C978 1.363 . S
N976 C978 1.356 . S
N976 H988 0.984 . S
N976 H989 0.985 . S
N977 C979 1.356 . S
N977 H982 0.984 . S
N977 H983 0.985 . S
C978 C972 1.379 . S
C978 C975 1.363 . S
C978 N976 1.356 . S
C979 C973 1.363 . S
C979 C974 1.379 . S
C979 N977 1.356 . S
N980 C972 1.356 . S
N980 H986 0.984 . S
N980 H987 0.984 . S
N981 C974 1.356 . S
N981 H984 0.984 . S
N981 H985 0.985 . S
H982 N977 0.984 . S
H983 N977 0.985 . S
H984 N981 0.984 . S
H985 N981 0.985 . S
H986 N980 0.984 . S
H987 N980 0.984 . S
H988 N976 0.984 . S
H989 N976 0.985 . S
C990 C991 1.363 . S
C990 C996 1.379 . S
C990 N998 1.356 . S
C991 C990 1.363 . S
C991 C997 1.363 . S
C992 C993 1.363 . S
C992 C997 1.379 . S
C992 N999 1.356 . S
C993 C992 1.363 . S
C993 C996 1.363 . S
N994 C996 1.356 . S
N994 H1006 0.984 . S
N994 H1007 0.985 . S
N995 C997 1.356 . S
N995 H1000 0.984 . S
N995 H1001 0.985 . S
C996 C990 1.379 . S
C996 C993 1.363 . S
C996 N994 1.356 . S
C997 C991 1.363 . S
C997 C992 1.379 . S
C997 N995 1.356 . S
N998 C990 1.356 . S
N998 H1004 0.984 . S
N998 H1005 0.984 . S
N999 C992 1.356 . S
N999 H1002 0.984 . S
N999 H1003 0.985 . S
H1000 N995 0.984 . S
H1001 N995 0.985 . S
H1002 N999 0.984 . S
H1003 N999 0.985 . S
H1004 N998 0.984 . S
H1005 N998 0.984 . S
H1006 N994 0.984 . S
H1007 N994 0.985 . S
C1008 C1009 1.363 . S
C1008 C1014 1.379 . S
C1008 N1016 1.356 . S
C1009 C1008 1.363 . S
C1009 C1015 1.363 . S
C1010 C1011 1.363 . S
C1010 C1015 1.379 . S
C1010 N1017 1.356 . S
C1011 C1010 1.363 . S
C1011 C1014 1.363 . S
N1012 C1014 1.356 . S
N1012 H1024 0.984 . S
N1012 H1025 0.985 . S
N1013 C1015 1.356 . S
N1013 H1018 0.984 . S
N1013 H1019 0.985 . S
C1014 C1008 1.379 . S
C1014 C1011 1.363 . S
C1014 N1012 1.356 . S
C1015 C1009 1.363 . S
C1015 C1010 1.379 . S
C1015 N1013 1.356 . S
N1016 C1008 1.356 . S
N1016 H1022 0.984 . S
N1016 H1023 0.984 . S
N1017 C1010 1.356 . S
N1017 H1020 0.984 . S
N1017 H1021 0.985 . S
H1018 N1013 0.984 . S
H1019 N1013 0.985 . S
H1020 N1017 0.984 . S
H1021 N1017 0.985 . S
H1022 N1016 0.984 . S
H1023 N1016 0.984 . S
H1024 N1012 0.984 . S
H1025 N1012 0.985 . S
C1026 C1027 1.363 . S
C1026 C1032 1.379 . S
C1026 N1034 1.356 . S
C1027 C1026 1.363 . S
C1027 C1033 1.363 . S
C1028 C1029 1.363 . S
C1028 C1033 1.379 . S
C1028 N1035 1.356 . S
C1029 C1028 1.363 . S
C1029 C1032 1.363 . S
N1030 C1032 1.356 . S
N1030 H1042 0.984 . S
N1030 H1043 0.985 . S
N1031 C1033 1.356 . S
N1031 H1036 0.984 . S
N1031 H1037 0.985 . S
C1032 C1026 1.379 . S
C1032 C1029 1.363 . S
C1032 N1030 1.356 . S
C1033 C1027 1.363 . S
C1033 C1028 1.379 . S
C1033 N1031 1.356 . S
N1034 C1026 1.356 . S
N1034 H1040 0.984 . S
N1034 H1041 0.984 . S
N1035 C1028 1.356 . S
N1035 H1038 0.984 . S
N1035 H1039 0.985 . S
H1036 N1031 0.984 . S
H1037 N1031 0.985 . S
H1038 N1035 0.984 . S
H1039 N1035 0.985 . S
H1040 N1034 0.984 . S
H1041 N1034 0.984 . S
H1042 N1030 0.984 . S
H1043 N1030 0.985 . S
C1044 C1045 1.363 1_556 S
C1044 C1050 1.379 1_545 S
C1044 N1052 1.356 . S
C1045 C1044 1.363 1_554 S
C1045 C1051 1.363 . S
C1046 C1047 1.363 1_554 S
C1046 C1051 1.379 1_565 S
C1046 N1053 1.356 . S
C1047 C1046 1.363 1_556 S
C1047 C1050 1.363 . S
N1048 C1050 1.356 . S
N1048 H1060 0.984 1_565 S
N1048 H1061 0.985 . S
N1049 C1051 1.356 . S
N1049 H1054 0.984 . S
N1049 H1055 0.985 1_545 S
C1050 C1044 1.379 1_565 S
C1050 C1047 1.363 . S
C1050 N1048 1.356 . S
C1051 C1045 1.363 . S
C1051 C1046 1.379 1_545 S
C1051 N1049 1.356 . S
N1052 C1044 1.356 . S
N1052 H1058 0.984 . S
N1052 H1059 0.984 1_556 S
N1053 C1046 1.356 . S
N1053 H1056 0.984 1_554 S
N1053 H1057 0.985 . S
H1054 N1049 0.984 . S
H1055 N1049 0.985 1_565 S
H1056 N1053 0.984 1_556 S
H1057 N1053 0.985 . S
H1058 N1052 0.984 . S
H1059 N1052 0.984 1_554 S
H1060 N1048 0.984 1_545 S
H1061 N1048 0.985 . S
C1062 C1063 1.363 1_554 S
C1062 C1068 1.379 . S
C1062 N1070 1.356 . S
C1063 C1062 1.363 1_556 S
C1063 C1069 1.363 1_455 S
C1064 C1065 1.363 1_556 S
C1064 C1069 1.379 . S
C1064 N1071 1.356 . S
C1065 C1064 1.363 1_554 S
C1065 C1068 1.363 1_655 S
N1066 C1068 1.356 . S
N1066 H1078 0.984 . S
N1066 H1079 0.985 1_455 S
N1067 C1069 1.356 . S
N1067 H1072 0.984 1_655 S
N1067 H1073 0.985 . S
C1068 C1062 1.379 . S
C1068 C1065 1.363 1_455 S
C1068 N1066 1.356 . S
C1069 C1063 1.363 1_655 S
C1069 C1064 1.379 . S
C1069 N1067 1.356 . S
N1070 C1062 1.356 . S
N1070 H1076 0.984 . S
N1070 H1077 0.984 1_554 S
N1071 C1064 1.356 . S
N1071 H1074 0.984 1_556 S
N1071 H1075 0.985 . S
H1072 N1067 0.984 1_455 S
H1073 N1067 0.985 . S
H1074 N1071 0.984 1_554 S
H1075 N1071 0.985 . S
H1076 N1070 0.984 . S
H1077 N1070 0.984 1_556 S
H1078 N1066 0.984 . S
H1079 N1066 0.985 1_655 S
C1080 C1081 1.363 . S
C1080 C1086 1.379 . S
C1080 N1088 1.356 . S
C1081 C1080 1.363 . S
C1081 C1087 1.363 1_556 S
C1082 C1083 1.363 . S
C1082 C1087 1.379 . S
C1082 N1089 1.356 . S
C1083 C1082 1.363 . S
C1083 C1086 1.363 1_554 S
N1084 C1086 1.356 1_554 S
N1084 H1096 0.984 1_554 S
N1084 H1097 0.985 . S
N1085 C1087 1.356 1_556 S
N1085 H1090 0.984 . S
N1085 H1091 0.985 1_556 S
C1086 C1080 1.379 . S
C1086 C1083 1.363 1_556 S
C1086 N1084 1.356 1_556 S
C1087 C1081 1.363 1_554 S
C1087 C1082 1.379 . S
C1087 N1085 1.356 1_554 S
N1088 C1080 1.356 . S
N1088 H1094 0.984 . S
N1088 H1095 0.984 . S
N1089 C1082 1.356 . S
N1089 H1092 0.984 . S
N1089 H1093 0.985 . S
H1090 N1085 0.984 . S
H1091 N1085 0.985 1_554 S
H1092 N1089 0.984 . S
H1093 N1089 0.985 . S
H1094 N1088 0.984 . S
H1095 N1088 0.984 . S
H1096 N1084 0.984 1_556 S
H1097 N1084 0.985 . S
C1098 C1099 1.363 . S
C1098 C1104 1.379 . S
C1098 N1106 1.356 . S
C1099 C1098 1.363 . S
C1099 C1105 1.363 . S
C1100 C1101 1.363 . S
C1100 C1105 1.379 1_556 S
C1100 N1107 1.356 . S
C1101 C1100 1.363 . S
C1101 C1104 1.363 1_556 S
N1102 C1104 1.356 . S
N1102 H1114 0.984 . S
N1102 H1115 0.985 . S
N1103 C1105 1.356 1_556 S
N1103 H1108 0.984 1_556 S
N1103 H1109 0.985 . S
C1104 C1098 1.379 . S
C1104 C1101 1.363 1_554 S
C1104 N1102 1.356 . S
C1105 C1099 1.363 . S
C1105 C1100 1.379 1_554 S
C1105 N1103 1.356 1_554 S
N1106 C1098 1.356 . S
N1106 H1112 0.984 . S
N1106 H1113 0.984 . S
N1107 C1100 1.356 . S
N1107 H1110 0.984 . S
N1107 H1111 0.985 . S
H1108 N1103 0.984 1_554 S
H1109 N1103 0.985 . S
H1110 N1107 0.984 . S
H1111 N1107 0.985 . S
H1112 N1106 0.984 . S
H1113 N1106 0.984 . S
H1114 N1102 0.984 . S
H1115 N1102 0.985 . S
C1116 C1117 1.363 . S
C1116 C1122 1.379 1_556 S
C1116 N1124 1.356 . S
C1117 C1116 1.363 . S
C1117 C1123 1.363 1_556 S
C1118 C1119 1.363 . S
C1118 C1123 1.379 . S
C1118 N1125 1.356 . S
C1119 C1118 1.363 . S
C1119 C1122 1.363 . S
N1120 C1122 1.358 1_565 S
N1120 H1132 0.974 1_554 S
N1120 H1133 0.994 . S
N1121 C1123 1.356 . S
N1121 H1126 0.984 . S
N1121 H1127 0.985 . S
C1122 C1116 1.379 1_554 S
C1122 C1119 1.363 . S
C1122 N1120 1.358 1_545 S
C1123 C1117 1.363 1_554 S
C1123 C1118 1.379 . S
C1123 N1121 1.356 . S
N1124 C1116 1.356 . S
N1124 H1130 0.984 . S
N1124 H1131 0.984 . S
N1125 C1118 1.356 . S
N1125 H1128 0.984 1_545 S
N1125 H1129 0.985 . S
H1126 N1121 0.984 . S
H1127 N1121 0.985 . S
H1128 N1125 0.984 1_565 S
H1129 N1125 0.985 . S
H1130 N1124 0.984 . S
H1131 N1124 0.984 . S
H1132 N1120 0.974 1_556 S
H1133 N1120 0.994 . S
C1134 C1135 1.363 . S
C1134 C1140 1.379 . S
C1134 N1142 1.356 . S
C1135 C1134 1.363 . S
C1135 C1141 1.363 . S
C1136 C1137 1.363 . S
C1136 C1141 1.379 1_556 S
C1136 N1143 1.356 . S
C1137 C1136 1.363 . S
C1137 C1140 1.363 1_556 S
N1138 C1140 1.356 . S
N1138 H1150 0.984 . S
N1138 H1151 0.985 . S
N1139 C1141 1.356 1_455 S
N1139 H1144 0.984 . S
N1139 H1145 0.985 1_554 S
C1140 C1134 1.379 . S
C1140 C1137 1.363 1_554 S
C1140 N1138 1.356 . S
C1141 C1135 1.363 . S
C1141 C1136 1.379 1_554 S
C1141 N1139 1.356 1_655 S
N1142 C1134 1.356 . S
N1142 H1148 0.984 . S
N1142 H1149 0.984 1_655 S
N1143 C1136 1.356 . S
N1143 H1146 0.984 . S
N1143 H1147 0.985 . S
H1144 N1139 0.984 . S
H1145 N1139 0.985 1_556 S
H1146 N1143 0.984 . S
H1147 N1143 0.985 . S
H1148 N1142 0.984 . S
H1149 N1142 0.984 1_455 S
H1150 N1138 0.984 . S
H1151 N1138 0.985 . S
C1152 C1153 1.363 1_556 S
C1152 C1158 1.379 . S
C1152 N1160 1.356 . S
C1153 C1152 1.363 1_554 S
C1153 C1159 1.363 1_554 S
C1154 C1155 1.363 . S
C1154 C1159 1.379 . S
C1154 N1161 1.356 . S
C1155 C1154 1.363 . S
C1155 C1158 1.363 . S
N1156 C1158 1.356 . S
N1156 H1168 0.984 . S
N1156 H1169 0.985 . S
N1157 C1159 1.356 1_554 S
N1157 H1162 0.984 . S
N1157 H1163 0.985 . S
C1158 C1152 1.379 . S
C1158 C1155 1.363 . S
C1158 N1156 1.356 . S
C1159 C1153 1.363 1_556 S
C1159 C1154 1.379 . S
C1159 N1157 1.356 1_556 S
N1160 C1152 1.356 . S
N1160 H1166 0.984 . S
N1160 H1167 0.984 1_556 S
N1161 C1154 1.356 . S
N1161 H1164 0.984 . S
N1161 H1165 0.985 . S
H1162 N1157 0.984 . S
H1163 N1157 0.985 . S
H1164 N1161 0.984 . S
H1165 N1161 0.985 . S
H1166 N1160 0.984 . S
H1167 N1160 0.984 1_554 S
H1168 N1156 0.984 . S
H1169 N1156 0.985 . S
C1170 C1171 1.363 . S
C1170 C1176 1.379 . S
C1170 N1178 1.356 . S
C1171 C1170 1.363 . S
C1171 C1177 1.363 . S
C1172 C1173 1.363 . S
C1172 C1177 1.379 1_554 S
C1172 N1179 1.356 . S
C1173 C1172 1.363 . S
C1173 C1176 1.363 1_554 S
N1174 C1176 1.356 . S
N1174 H1186 0.984 . S
N1174 H1187 0.985 . S
N1175 C1177 1.356 1_545 S
N1175 H1180 0.984 . S
N1175 H1181 0.985 1_556 S
C1176 C1170 1.379 . S
C1176 C1173 1.363 1_556 S
C1176 N1174 1.356 . S
C1177 C1171 1.363 . S
C1177 C1172 1.379 1_556 S
C1177 N1175 1.356 1_565 S
N1178 C1170 1.356 . S
N1178 H1184 0.984 . S
N1178 H1185 0.984 1_565 S
N1179 C1172 1.356 . S
N1179 H1182 0.984 . S
N1179 H1183 0.985 . S
H1180 N1175 0.984 . S
H1181 N1175 0.985 1_554 S
H1182 N1179 0.984 . S
H1183 N1179 0.985 . S
H1184 N1178 0.984 . S
H1185 N1178 0.984 1_545 S
H1186 N1174 0.984 . S
H1187 N1174 0.985 . S
C1188 C1189 1.363 1_556 S
C1188 C1194 1.379 . S
C1188 N1196 1.356 1_556 S
C1189 C1188 1.363 1_554 S
C1189 C1195 1.363 1_554 S
C1190 C1191 1.363 . S
C1190 C1195 1.379 . S
C1190 N1197 1.356 1_455 S
C1191 C1190 1.363 . S
C1191 C1194 1.363 . S
N1192 C1194 1.356 . S
N1192 H1204 0.984 . S
N1192 H1205 0.985 1_455 S
N1193 C1195 1.356 . S
N1193 H1198 0.984 1_556 S
N1193 H1199 0.985 . S
C1194 C1188 1.379 . S
C1194 C1191 1.363 . S
C1194 N1192 1.356 . S
C1195 C1189 1.363 1_556 S
C1195 C1190 1.379 . S
C1195 N1193 1.356 . S
N1196 C1188 1.356 1_554 S
N1196 H1202 0.984 . S
N1196 H1203 0.984 . S
N1197 C1190 1.356 1_655 S
N1197 H1200 0.984 . S
N1197 H1201 0.985 . S
H1198 N1193 0.984 1_554 S
H1199 N1193 0.985 . S
H1200 N1197 0.984 . S
H1201 N1197 0.985 . S
H1202 N1196 0.984 . S
H1203 N1196 0.984 . S
H1204 N1192 0.984 . S
H1205 N1192 0.985 1_655 S
C1206 C1207 1.363 . S
C1206 C1212 1.379 . S
C1206 N1214 1.356 . S
C1207 C1206 1.363 . S
C1207 C1213 1.363 . S
C1208 C1209 1.363 . S
C1208 C1213 1.379 . S
C1208 N1215 1.356 . S
C1209 C1208 1.363 . S
C1209 C1212 1.363 . S
N1210 C1212 1.356 . S
N1210 H1222 0.984 . S
N1210 H1223 0.985 . S
N1211 C1213 1.356 . S
N1211 H1216 0.984 . S
N1211 H1217 0.985 . S
C1212 C1206 1.379 . S
C1212 C1209 1.363 . S
C1212 N1210 1.356 . S
C1213 C1207 1.363 . S
C1213 C1208 1.379 . S
C1213 N1211 1.356 . S
N1214 C1206 1.356 . S
N1214 H1220 0.984 . S
N1214 H1221 0.984 . S
N1215 C1208 1.356 . S
N1215 H1218 0.984 . S
N1215 H1219 0.985 . S
H1216 N1211 0.984 . S
H1217 N1211 0.985 . S
H1218 N1215 0.984 . S
H1219 N1215 0.985 . S
H1220 N1214 0.984 . S
H1221 N1214 0.984 . S
H1222 N1210 0.984 . S
H1223 N1210 0.985 . S
C1224 C1225 1.363 . S
C1224 C1230 1.379 . S
C1224 N1232 1.356 . S
C1225 C1224 1.363 . S
C1225 C1231 1.363 . S
C1226 C1227 1.363 . S
C1226 C1231 1.379 . S
C1226 N1233 1.356 . S
C1227 C1226 1.363 . S
C1227 C1230 1.363 . S
N1228 C1230 1.356 . S
N1228 H1240 0.984 . S
N1228 H1241 0.985 . S
N1229 C1231 1.356 . S
N1229 H1234 0.984 . S
N1229 H1235 0.985 . S
C1230 C1224 1.379 . S
C1230 C1227 1.363 . S
C1230 N1228 1.356 . S
C1231 C1225 1.363 . S
C1231 C1226 1.379 . S
C1231 N1229 1.356 . S
N1232 C1224 1.356 . S
N1232 H1238 0.984 . S
N1232 H1239 0.984 . S
N1233 C1226 1.356 . S
N1233 H1236 0.984 . S
N1233 H1237 0.985 . S
H1234 N1229 0.984 . S
H1235 N1229 0.985 . S
H1236 N1233 0.984 . S
H1237 N1233 0.985 . S
H1238 N1232 0.984 . S
H1239 N1232 0.984 . S
H1240 N1228 0.984 . S
H1241 N1228 0.985 . S
C1242 C1243 1.363 . S
C1242 C1248 1.379 . S
C1242 N1250 1.356 . S
C1243 C1242 1.363 . S
C1243 C1249 1.363 . S
C1244 C1245 1.363 . S
C1244 C1249 1.379 . S
C1244 N1251 1.356 . S
C1245 C1244 1.363 . S
C1245 C1248 1.363 . S
N1246 C1248 1.356 . S
N1246 H1258 0.984 . S
N1246 H1259 0.985 . S
N1247 C1249 1.356 . S
N1247 H1252 0.984 . S
N1247 H1253 0.985 . S
C1248 C1242 1.379 . S
C1248 C1245 1.363 . S
C1248 N1246 1.356 . S
C1249 C1243 1.363 . S
C1249 C1244 1.379 . S
C1249 N1247 1.356 . S
N1250 C1242 1.356 . S
N1250 H1256 0.984 . S
N1250 H1257 0.984 . S
N1251 C1244 1.356 . S
N1251 H1254 0.984 . S
N1251 H1255 0.985 . S
H1252 N1247 0.984 . S
H1253 N1247 0.985 . S
H1254 N1251 0.984 . S
H1255 N1251 0.985 . S
H1256 N1250 0.984 . S
H1257 N1250 0.984 . S
H1258 N1246 0.984 . S
H1259 N1246 0.985 . S
C1260 C1261 1.363 . S
C1260 C1266 1.379 . S
C1260 N1268 1.356 . S
C1261 C1260 1.363 . S
C1261 C1267 1.363 . S
C1262 C1263 1.363 . S
C1262 C1267 1.379 . S
C1262 N1269 1.356 . S
C1263 C1262 1.363 . S
C1263 C1266 1.363 . S
N1264 C1266 1.356 . S
N1264 H1276 0.984 . S
N1264 H1277 0.985 . S
N1265 C1267 1.356 . S
N1265 H1270 0.984 . S
N1265 H1271 0.985 . S
C1266 C1260 1.379 . S
C1266 C1263 1.363 . S
C1266 N1264 1.356 . S
C1267 C1261 1.363 . S
C1267 C1262 1.379 . S
C1267 N1265 1.356 . S
N1268 C1260 1.356 . S
N1268 H1274 0.984 . S
N1268 H1275 0.984 . S
N1269 C1262 1.356 . S
N1269 H1272 0.984 . S
N1269 H1273 0.985 . S
H1270 N1265 0.984 . S
H1271 N1265 0.985 . S
H1272 N1269 0.984 . S
H1273 N1269 0.985 . S
H1274 N1268 0.984 . S
H1275 N1268 0.984 . S
H1276 N1264 0.984 . S
H1277 N1264 0.985 . S
C1278 C1279 1.363 . S
C1278 C1284 1.379 . S
C1278 N1286 1.356 . S
C1279 C1278 1.363 . S
C1279 C1285 1.363 . S
C1280 C1281 1.363 . S
C1280 C1285 1.379 . S
C1280 N1287 1.356 . S
C1281 C1280 1.363 . S
C1281 C1284 1.363 . S
N1282 C1284 1.356 . S
N1282 H1294 0.984 . S
N1282 H1295 0.985 . S
N1283 C1285 1.356 . S
N1283 H1288 0.984 . S
N1283 H1289 0.985 . S
C1284 C1278 1.379 . S
C1284 C1281 1.363 . S
C1284 N1282 1.356 . S
C1285 C1279 1.363 . S
C1285 C1280 1.379 . S
C1285 N1283 1.356 . S
N1286 C1278 1.356 . S
N1286 H1292 0.984 . S
N1286 H1293 0.984 . S
N1287 C1280 1.356 . S
N1287 H1290 0.984 . S
N1287 H1291 0.985 . S
H1288 N1283 0.984 . S
H1289 N1283 0.985 . S
H1290 N1287 0.984 . S
H1291 N1287 0.985 . S
H1292 N1286 0.984 . S
H1293 N1286 0.984 . S
H1294 N1282 0.984 . S
H1295 N1282 0.985 . S
C1296 C1297 1.363 . S
C1296 C1302 1.379 . S
C1296 N1304 1.356 . S
C1297 C1296 1.363 . S
C1297 C1303 1.363 . S
C1298 C1299 1.363 . S
C1298 C1303 1.379 . S
C1298 N1305 1.356 . S
C1299 C1298 1.363 . S
C1299 C1302 1.363 . S
N1300 C1302 1.356 . S
N1300 H1312 0.984 . S
N1300 H1313 0.985 . S
N1301 C1303 1.356 . S
N1301 H1306 0.984 . S
N1301 H1307 0.985 . S
C1302 C1296 1.379 . S
C1302 C1299 1.363 . S
C1302 N1300 1.356 . S
C1303 C1297 1.363 . S
C1303 C1298 1.379 . S
C1303 N1301 1.356 . S
N1304 C1296 1.356 . S
N1304 H1310 0.984 . S
N1304 H1311 0.984 . S
N1305 C1298 1.356 . S
N1305 H1308 0.984 . S
N1305 H1309 0.985 . S
H1306 N1301 0.984 . S
H1307 N1301 0.985 . S
H1308 N1305 0.984 . S
H1309 N1305 0.985 . S
H1310 N1304 0.984 . S
H1311 N1304 0.984 . S
H1312 N1300 0.984 . S
H1313 N1300 0.985 . S
C1314 C1315 1.363 . S
C1314 C1320 1.379 . S
C1314 N1322 1.356 . S
C1315 C1314 1.363 . S
C1315 C1321 1.363 . S
C1316 C1317 1.363 . S
C1316 C1321 1.379 . S
C1316 N1323 1.356 . S
C1317 C1316 1.363 . S
C1317 C1320 1.363 . S
N1318 C1320 1.356 . S
N1318 H1330 0.984 . S
N1318 H1331 0.985 . S
N1319 C1321 1.356 . S
N1319 H1324 0.984 . S
N1319 H1325 0.985 . S
C1320 C1314 1.379 . S
C1320 C1317 1.363 . S
C1320 N1318 1.356 . S
C1321 C1315 1.363 . S
C1321 C1316 1.379 . S
C1321 N1319 1.356 . S
N1322 C1314 1.356 . S
N1322 H1328 0.984 . S
N1322 H1329 0.984 . S
N1323 C1316 1.356 . S
N1323 H1326 0.984 . S
N1323 H1327 0.985 . S
H1324 N1319 0.984 . S
H1325 N1319 0.985 . S
H1326 N1323 0.984 . S
H1327 N1323 0.985 . S
H1328 N1322 0.984 . S
H1329 N1322 0.984 . S
H1330 N1318 0.984 . S
H1331 N1318 0.985 . S
C1332 C1333 1.363 . S
C1332 C1338 1.379 . S
C1332 N1340 1.356 . S
C1333 C1332 1.363 . S
C1333 C1339 1.363 . S
C1334 C1335 1.363 . S
C1334 C1339 1.379 . S
C1334 N1341 1.356 . S
C1335 C1334 1.363 . S
C1335 C1338 1.363 . S
N1336 C1338 1.356 . S
N1336 H1348 0.984 . S
N1336 H1349 0.985 . S
N1337 C1339 1.356 . S
N1337 H1342 0.984 . S
N1337 H1343 0.985 . S
C1338 C1332 1.379 . S
C1338 C1335 1.363 . S
C1338 N1336 1.356 . S
C1339 C1333 1.363 . S
C1339 C1334 1.379 . S
C1339 N1337 1.356 . S
N1340 C1332 1.356 . S
N1340 H1346 0.984 . S
N1340 H1347 0.984 . S
N1341 C1334 1.356 . S
N1341 H1344 0.984 . S
N1341 H1345 0.985 . S
H1342 N1337 0.984 . S
H1343 N1337 0.985 . S
H1344 N1341 0.984 . S
H1345 N1341 0.985 . S
H1346 N1340 0.984 . S
H1347 N1340 0.984 . S
H1348 N1336 0.984 . S
H1349 N1336 0.985 . S
C1350 C1351 1.363 . S
C1350 C1356 1.379 . S
C1350 N1358 1.356 . S
C1351 C1350 1.363 . S
C1351 C1357 1.363 . S
C1352 C1353 1.363 . S
C1352 C1357 1.379 . S
C1352 N1359 1.356 . S
C1353 C1352 1.363 . S
C1353 C1356 1.363 . S
N1354 C1356 1.356 . S
N1354 H1366 0.984 . S
N1354 H1367 0.985 . S
N1355 C1357 1.356 . S
N1355 H1360 0.984 . S
N1355 H1361 0.985 . S
C1356 C1350 1.379 . S
C1356 C1353 1.363 . S
C1356 N1354 1.356 . S
C1357 C1351 1.363 . S
C1357 C1352 1.379 . S
C1357 N1355 1.356 . S
N1358 C1350 1.356 . S
N1358 H1364 0.984 . S
N1358 H1365 0.984 . S
N1359 C1352 1.356 . S
N1359 H1362 0.984 . S
N1359 H1363 0.985 . S
H1360 N1355 0.984 . S
H1361 N1355 0.985 . S
H1362 N1359 0.984 . S
H1363 N1359 0.985 . S
H1364 N1358 0.984 . S
H1365 N1358 0.984 . S
H1366 N1354 0.984 . S
H1367 N1354 0.985 . S
C1368 C1369 1.363 . S
C1368 C1374 1.379 . S
C1368 N1376 1.356 . S
C1369 C1368 1.363 . S
C1369 C1375 1.363 . S
C1370 C1371 1.363 . S
C1370 C1375 1.379 . S
C1370 N1377 1.356 . S
C1371 C1370 1.363 . S
C1371 C1374 1.363 . S
N1372 C1374 1.356 . S
N1372 H1384 0.984 . S
N1372 H1385 0.985 . S
N1373 C1375 1.356 . S
N1373 H1378 0.984 . S
N1373 H1379 0.985 . S
C1374 C1368 1.379 . S
C1374 C1371 1.363 . S
C1374 N1372 1.356 . S
C1375 C1369 1.363 . S
C1375 C1370 1.379 . S
C1375 N1373 1.356 . S
N1376 C1368 1.356 . S
N1376 H1382 0.984 . S
N1376 H1383 0.984 . S
N1377 C1370 1.356 . S
N1377 H1380 0.984 . S
N1377 H1381 0.985 . S
H1378 N1373 0.984 . S
H1379 N1373 0.985 . S
H1380 N1377 0.984 . S
H1381 N1377 0.985 . S
H1382 N1376 0.984 . S
H1383 N1376 0.984 . S
H1384 N1372 0.984 . S
H1385 N1372 0.985 . S
C1386 C1387 1.363 . S
C1386 C1392 1.379 . S
C1386 N1394 1.356 . S
C1387 C1386 1.363 . S
C1387 C1393 1.363 . S
C1388 C1389 1.363 . S
C1388 C1393 1.379 . S
C1388 N1395 1.356 . S
C1389 C1388 1.363 . S
C1389 C1392 1.363 . S
N1390 C1392 1.356 . S
N1390 H1402 0.984 . S
N1390 H1403 0.985 . S
N1391 C1393 1.356 . S
N1391 H1396 0.984 . S
N1391 H1397 0.985 . S
C1392 C1386 1.379 . S
C1392 C1389 1.363 . S
C1392 N1390 1.356 . S
C1393 C1387 1.363 . S
C1393 C1388 1.379 . S
C1393 N1391 1.356 . S
N1394 C1386 1.356 . S
N1394 H1400 0.984 . S
N1394 H1401 0.984 . S
N1395 C1388 1.356 . S
N1395 H1398 0.984 . S
N1395 H1399 0.985 . S
H1396 N1391 0.984 . S
H1397 N1391 0.985 . S
H1398 N1395 0.984 . S
H1399 N1395 0.985 . S
H1400 N1394 0.984 . S
H1401 N1394 0.984 . S
H1402 N1390 0.984 . S
H1403 N1390 0.985 . S
C1404 C1405 1.363 . S
C1404 C1410 1.379 . S
C1404 N1412 1.356 . S
C1405 C1404 1.363 . S
C1405 C1411 1.363 . S
C1406 C1407 1.363 . S
C1406 C1411 1.379 . S
C1406 N1413 1.356 . S
C1407 C1406 1.363 . S
C1407 C1410 1.363 . S
N1408 C1410 1.356 . S
N1408 H1420 0.984 . S
N1408 H1421 0.985 . S
N1409 C1411 1.356 . S
N1409 H1414 0.984 . S
N1409 H1415 0.985 . S
C1410 C1404 1.379 . S
C1410 C1407 1.363 . S
C1410 N1408 1.356 . S
C1411 C1405 1.363 . S
C1411 C1406 1.379 . S
C1411 N1409 1.356 . S
N1412 C1404 1.356 . S
N1412 H1418 0.984 . S
N1412 H1419 0.984 . S
N1413 C1406 1.356 . S
N1413 H1416 0.984 . S
N1413 H1417 0.985 . S
H1414 N1409 0.984 . S
H1415 N1409 0.985 . S
H1416 N1413 0.984 . S
H1417 N1413 0.985 . S
H1418 N1412 0.984 . S
H1419 N1412 0.984 . S
H1420 N1408 0.984 . S
H1421 N1408 0.985 . S
C613 C5 1.383 . S
C615 C271 1.403 . S
C631 C39 1.383 . S
C633 C305 1.403 . S
C649 C73 1.382 . S
C651 C237 1.403 . S
C667 C577 1.403 . S
C669 C107 1.383 . S
C685 C141 1.383 . S
C687 C611 1.403 . S
C703 C175 1.382 . S
C705 C543 1.403 . S
C721 C209 1.383 . S
C723 C475 1.413 . S
C739 C509 1.403 . S
C741 C243 1.383 . S
C757 C441 1.408 . S
C759 C277 1.382 . S
C775 C311 1.383 . S
C777 C169 1.403 . S
C793 C345 1.383 . S
C795 C203 1.403 . S
C811 C379 1.382 . S
C813 C135 1.403 . S
C829 C413 1.383 . S
C831 C67 1.403 . S
C847 C447 1.383 . S
C849 C101 1.403 . S
C865 C33 1.403 . S
C867 C481 1.382 . S
C883 C373 1.413 . S
C885 C515 1.383 . S
C901 C549 1.383 . S
C903 C407 1.403 . S
C919 C583 1.382 . S
C921 C339 1.408 . S
C937 C530 1.659 . S
C939 C20 1.659 . S
C955 C564 1.658 . S
C957 C54 1.658 . S
C973 C88 1.659 . S
C975 C598 1.659 . S
C991 C122 1.659 . S
C993 C224 1.659 . S
C1009 C156 1.658 . S
C1011 C258 1.658 . S
C1027 C292 1.659 . S
C1029 C190 1.659 . S
C1045 C326 1.659 . S
C1047 C428 1.659 . S
C1063 C462 1.658 . S
C1065 C360 1.658 . S
C1081 C496 1.659 . S
C1083 C394 1.659 . S
C1099 C2 1.470 . S
C1101 C145 1.442 . S
C1117 C179 1.442 . S
C1119 C36 1.470 1_545 S
C1135 C70 1.470 1_655 S
C1137 C111 1.442 . S
C1153 C43 1.442 . S
C1155 C104 1.470 . S
C1171 C138 1.470 1_565 S
C1173 C77 1.442 . S
C1189 C9 1.442 . S
C1191 C172 1.470 1_455 S
C1207 C206 1.470 . S
C1209 C349 1.442 . S
C1225 C383 1.442 . S
C1227 C240 1.470 . S
C1243 C315 1.442 . S
C1245 C274 1.470 . S
C1261 C308 1.470 . S
C1263 C247 1.442 . S
C1279 C281 1.442 . S
C1281 C342 1.470 . S
C1297 C376 1.470 . S
C1299 C213 1.442 . S
C1315 C553 1.442 . S
C1317 C410 1.470 . S
C1333 C587 1.442 . S
C1335 C444 1.470 . S
C1351 C519 1.442 . S
C1353 C478 1.470 . S
C1369 C451 1.442 . S
C1371 C512 1.470 . S
C1387 C485 1.442 . S
C1389 C546 1.470 . S
C1405 C580 1.470 . S
C1407 C417 1.442 . S
