# Generated by pormake.
# Topology sxb, (6)-cn, num edge types: 1
# Building blocks:
#     Node 0, Type 0, BuildingBlock: MIDCAF_clean_sbu_0, # of connection points: 6
#     Node 1, Type 0, BuildingBlock: MIDCAF_clean_sbu_0, # of connection points: 6
#     Node 2, Type 0, BuildingBlock: MIDCAF_clean_sbu_0, # of connection points: 6
#     Node 3, Type 0, BuildingBlock: MIDCAF_clean_sbu_0, # of connection points: 6
#     Edge 4, Type (0, 0), BuildingBlock: TEMPAE_clean_linker_10, # of connection points: 2
#     Edge 5, Type (0, 0), BuildingBlock: TEMPAE_clean_linker_10, # of connection points: 2
#     Edge 6, Type (0, 0), BuildingBlock: TEMPAE_clean_linker_10, # of connection points: 2
#     Edge 7, Type (0, 0), BuildingBlock: TEMPAE_clean_linker_10, # of connection points: 2
#     Edge 8, Type (0, 0), BuildingBlock: TEMPAE_clean_linker_10, # of connection points: 2
#     Edge 9, Type (0, 0), BuildingBlock: TEMPAE_clean_linker_10, # of connection points: 2
#     Edge 10, Type (0, 0), BuildingBlock: TEMPAE_clean_linker_10, # of connection points: 2
#     Edge 11, Type (0, 0), BuildingBlock: TEMPAE_clean_linker_10, # of connection points: 2
#     Edge 12, Type (0, 0), BuildingBlock: TEMPAE_clean_linker_10, # of connection points: 2
#     Edge 13, Type (0, 0), BuildingBlock: TEMPAE_clean_linker_10, # of connection points: 2
#     Edge 14, Type (0, 0), BuildingBlock: TEMPAE_clean_linker_10, # of connection points: 2
#     Edge 15, Type (0, 0), BuildingBlock: TEMPAE_clean_linker_10, # of connection points: 2
# Relax obj value: 0.308
# Max RMSD: 0.251
# Mean RMSD: 0.251
data_MOF--net-sxb--node1-MIDCAF_clean_sbu_0--edge1-TEMPAE_clean_linker_10
_symmetry_space_group_name_H-M    P1
_symmetry_Int_Tables_number       1
_symmetry_cell_setting            triclinic
loop_
_symmetry_equiv_pos_as_xyz
'x, y, z'
_cell_length_a     13.942687
_cell_length_b     27.366547
_cell_length_c     30.450086
_cell_angle_alpha  92.682821
_cell_angle_beta   90.195183
_cell_angle_gamma 90.059414
loop_
_atom_site_label
_atom_site_type_symbol
_atom_site_fract_x
_atom_site_fract_y
_atom_site_fract_z
_atom_type_partial_charge
Zn0 Zn 0.04852 0.31047 0.05073 0.0
Zn1 Zn 0.94485 0.12744 0.9604 0.0
Zn2 Zn 0.97958 0.20373 1.00161 0.0
C3 C 0.00756 0.09455 0.03477 0.0
C4 C 0.0774 0.17003 0.9105 0.0
O5 O 0.85247 0.25005 0.01314 0.0
O6 O 0.908 0.32165 0.04171 0.0
C7 C 0.07446 0.2128 0.09714 0.0
O8 O 0.03073 0.14018 0.03757 0.0
O9 O 0.94715 0.0796 1.00636 0.0
O10 O 0.05377 0.12682 0.91834 0.0
O11 O 0.04997 0.20547 0.93662 0.0
O12 O 0.0836 0.25893 0.09491 0.0
O13 O 0.03806 0.18617 0.06519 0.0
O14 O 0.07695 0.25502 0.98684 0.0
O15 O 0.14115 0.32628 1.00108 0.0
C16 C 0.13797 0.28706 0.97754 0.0
O17 O 0.83148 0.20629 0.98741 0.0
O18 O 0.81975 0.14606 0.93658 0.0
C19 C 0.8395 0.29456 0.02783 0.0
C20 C 0.78318 0.1819 0.95789 0.0
Zn21 Zn 0.08963 0.01687 0.45841 0.0
Zn22 Zn 0.93607 0.15606 0.54395 0.0
Zn23 Zn 0.00917 0.08954 0.50129 0.0
C24 C 0.97093 0.1998 0.47116 0.0
C25 C 0.09003 0.14126 0.59209 0.0
O26 O 0.89966 0.03033 0.48639 0.0
O27 O 0.97682 0.97565 0.44399 0.0
C28 C 0.10439 0.09843 0.4061 0.0
O29 O 0.0215 0.16032 0.46722 0.0
O30 O 0.90148 0.20114 0.49768 0.0
O31 O 0.0418 0.17867 0.58389 0.0
O32 O 0.08284 0.10255 0.56637 0.0
O33 O 0.13805 0.05595 0.40982 0.0
O34 O 0.0529 0.11816 0.43725 0.0
O35 O 0.12641 0.06326 0.54104 0.0
O36 O 0.17634 0.99568 0.50577 0.0
C37 C 0.18043 0.02518 0.53884 0.0
O38 O 0.86629 0.06488 0.51742 0.0
O39 O 0.83627 0.1172 0.57304 0.0
C40 C 0.9007 0.98994 0.46268 0.0
C41 C 0.81591 0.07838 0.55112 0.0
Zn42 Zn 0.61519 0.76642 0.04272 0.0
Zn43 Zn 0.41385 0.67483 0.95687 0.0
Zn44 Zn 0.5392 0.70819 1.00056 0.0
C45 C 0.49578 0.59716 0.99871 0.0
C46 C 0.55428 0.70287 0.90315 0.0
O47 O 0.44737 0.77497 1.00099 0.0
O48 O 0.51182 0.81012 0.06013 0.0
C49 C 0.61409 0.68184 0.0925 0.0
O50 O 0.51625 0.63425 0.02481 0.0
O51 O 0.45786 0.60429 0.96171 0.0
O52 O 0.46641 0.71358 0.90779 0.0
O53 O 0.6013 0.6899 0.93683 0.0
O54 O 0.65845 0.72162 0.08893 0.0
O55 O 0.55276 0.66833 0.06241 0.0
O56 O 0.6896 0.71079 0.98369 0.0
O57 O 0.70453 0.78898 0.99636 0.0
C58 C 0.74345 0.74859 0.98601 0.0
O59 O 0.4498 0.67418 0.04898 0.0
O60 O 0.33135 0.699 1.00722 0.0
C61 C 0.44602 0.80872 0.03171 0.0
C62 C 0.36173 0.68699 0.04454 0.0
Zn63 Zn 0.60139 0.50315 0.46951 0.0
Zn64 Zn 0.46433 0.66114 0.53521 0.0
Zn65 Zn 0.52204 0.58639 0.49991 0.0
C66 C 0.49773 0.69186 0.4584 0.0
C67 C 0.60776 0.64702 0.586 0.0
O68 O 0.40513 0.52976 0.49043 0.0
O69 O 0.48509 0.46212 0.47143 0.0
C70 C 0.60782 0.57629 0.40412 0.0
O71 O 0.54403 0.65107 0.45908 0.0
O72 O 0.42726 0.69842 0.48386 0.0
O73 O 0.57366 0.68608 0.57206 0.0
O74 O 0.59203 0.60612 0.56426 0.0
O75 O 0.63195 0.53303 0.41226 0.0
O76 O 0.56751 0.60394 0.43399 0.0
O77 O 0.63755 0.56448 0.54225 0.0
O78 O 0.70006 0.4951 0.51571 0.0
C79 C 0.69813 0.52943 0.54482 0.0
O80 O 0.37809 0.57049 0.51829 0.0
O81 O 0.3649 0.62934 0.57001 0.0
C82 C 0.40672 0.48347 0.47993 0.0
C83 C 0.33503 0.58985 0.55199 0.0
C84 C 0.36138 0.87288 0.07665 0.0
C85 C 0.37132 0.84706 0.03588 0.0
C86 C 0.29965 0.91287 0.082 0.0
C87 C 0.24643 0.92796 0.0456 0.0
C88 C 0.25332 0.90126 1.00456 0.0
C89 C 0.31563 0.86077 1.00019 0.0
C90 C 0.2934 0.93969 0.12643 0.0
C91 C 0.19716 0.91642 0.96503 0.0
C92 C 0.03189 0.01198 0.06237 0.0
C93 C 0.07095 0.0572 0.05219 0.0
C94 C 0.08888 0.96978 0.06191 0.0
C95 C 0.18685 0.97294 0.05031 0.0
C96 C 0.22809 0.01923 0.04308 0.0
C97 C 0.16971 0.06102 0.04472 0.0
C98 C 0.04305 0.92151 0.07157 0.0
C99 C 0.3322 0.02416 0.03042 0.0
H100 H 0.40299 0.86209 0.10473 0.0
H101 H 0.32307 0.84102 0.9687 0.0
H102 H 0.32234 0.97727 0.12427 0.0
H103 H 0.21751 0.94313 0.13692 0.0
H104 H 0.33412 0.92099 0.15218 0.0
H105 H 0.11957 0.91826 0.97288 0.0
H106 H 0.21985 0.95357 0.95619 0.0
H107 H 0.20746 0.89081 0.93604 0.0
H108 H 0.95525 1.0091 0.06767 0.0
H109 H 0.19961 0.09579 0.03579 0.0
H110 H 0.08089 0.90515 0.09938 0.0
H111 H 0.04953 0.89564 0.04259 0.0
H112 H 0.96596 0.92539 0.08012 0.0
H113 H 0.37908 1.00695 0.05479 0.0
H114 H 0.35424 0.06296 0.02795 0.0
H115 H 0.34457 1.00468 0.99814 0.0
C116 C 0.61123 0.53798 0.02793 0.0
C117 C 0.52066 0.54712 0.01035 0.0
C118 C 0.64404 0.4899 0.03154 0.0
C119 C 0.58277 0.45005 0.01924 0.0
C120 C 0.48801 0.45938 1.00499 0.0
C121 C 0.45903 0.50788 0.99946 0.0
C122 C 0.74638 0.48192 0.04604 0.0
C123 C 0.41812 0.41854 0.99382 0.0
C124 C 0.72846 0.33972 0.98197 0.0
C125 C 0.74749 0.31937 0.02236 0.0
C126 C 0.66688 0.38003 0.97945 0.0
C127 C 0.62206 0.39939 0.01819 0.0
C128 C 0.6311 0.37446 0.05769 0.0
C129 C 0.69602 0.33542 0.05963 0.0
C130 C 0.65961 0.40536 0.9366 0.0
C131 C 0.57911 0.39175 0.09887 0.0
H132 H 0.65888 0.56845 0.03607 0.0
H133 H 0.38849 0.5151 0.98614 0.0
H134 H 0.74785 0.45992 0.07569 0.0
H135 H 0.78609 0.46114 0.01974 0.0
H136 H 0.78488 0.51687 0.05374 0.0
H137 H 0.34296 0.43082 0.99916 0.0
H138 H 0.42539 0.40718 0.95859 0.0
H139 H 0.43144 0.38627 0.01367 0.0
H140 H 0.76965 0.32756 0.95334 0.0
H141 H 0.71148 0.31973 0.09093 0.0
H142 H 0.70128 0.43997 0.9392 0.0
H143 H 0.58415 0.41491 0.9294 0.0
H144 H 0.68803 0.38237 0.90855 0.0
H145 H 0.61692 0.42388 0.11429 0.0
H146 H 0.57615 0.36276 0.12319 0.0
H147 H 0.50489 0.4032 0.09101 0.0
C148 C 0.97228 0.29106 0.4769 0.0
C149 C 0.00969 0.2475 0.45734 0.0
C150 C 0.02459 0.33492 0.47777 0.0
C151 C 0.11398 0.3364 0.45611 0.0
C152 C 0.14606 0.29433 0.43138 0.0
C153 C 0.09489 0.25004 0.4332 0.0
C154 C -0.01201 0.37838 0.5051 0.0
C155 C 0.2386 0.29491 0.40591 0.0
C156 C 0.2488 0.45743 0.44738 0.0
C157 C 0.31962 0.45289 0.47964 0.0
C158 C 0.17914 0.42053 0.43987 0.0
C159 C 0.18066 0.3785 0.46545 0.0
C160 C 0.24869 0.37565 0.49994 0.0
C161 C 0.31786 0.41256 0.5062 0.0
C162 C 0.10861 0.42501 0.40263 0.0
C163 C 0.25115 0.33257 0.5292 0.0
H164 H 0.90599 0.29006 0.49532 0.0
H165 H 0.12491 0.21697 0.41799 0.0
H166 H 0.97483 0.4093 0.48369 0.0
H167 H 0.92036 0.37032 0.52256 0.0
H168 H 0.04276 0.3904 0.52983 0.0
H169 H 0.24274 0.26377 0.38122 0.0
H170 H 0.24623 0.32963 0.3888 0.0
H171 H 0.29999 0.29226 0.42895 0.0
H172 H 0.25149 0.48825 0.4263 0.0
H173 H 0.37337 0.40895 0.53089 0.0
H174 H 0.0352 0.41511 0.4129 0.0
H175 H 0.12903 0.39912 0.37512 0.0
H176 H 0.10725 0.46259 0.39034 0.0
H177 H 0.17882 0.32595 0.54284 0.0
H178 H 0.30257 0.33815 0.55694 0.0
H179 H 0.27242 0.29912 0.50967 0.0
C180 C 0.78507 0.93992 0.41801 0.0
C181 C 0.81733 0.95689 0.45956 0.0
C182 C 0.723 0.89961 0.41325 0.0
C183 C 0.69472 0.87488 0.45088 0.0
C184 C 0.72274 0.89373 0.49324 0.0
C185 C 0.78395 0.93463 0.49704 0.0
C186 C 0.69177 0.88186 0.36775 0.0
C187 C 0.69426 0.86876 0.53438 0.0
C188 C 0.49345 0.7808 0.44439 0.0
C189 C 0.54469 0.73653 0.44281 0.0
C190 C 0.54095 0.82612 0.44598 0.0
C191 C 0.64235 0.82737 0.44547 0.0
C192 C 0.69428 0.78292 0.4404 0.0
C193 C 0.64481 0.73804 0.43873 0.0
C194 C 0.48246 0.8723 0.45202 0.0
C195 C 0.80256 0.78263 0.43976 0.0
H196 H 0.81186 0.95697 0.38903 0.0
H197 H 0.81074 0.94716 0.52911 0.0
H198 H 0.72479 0.84574 0.35944 0.0
H199 H 0.61278 0.87686 0.36664 0.0
H200 H 0.71263 0.90762 0.34231 0.0
H201 H 0.70493 0.89297 0.56434 0.0
H202 H 0.61818 0.85696 0.5328 0.0
H203 H 0.73886 0.83553 0.53754 0.0
H204 H 0.41607 0.78011 0.4478 0.0
H205 H 0.68527 0.70421 0.43793 0.0
H206 H 0.51266 0.9023 0.43304 0.0
H207 H 0.48365 0.88438 0.48729 0.0
H208 H 0.40647 0.86632 0.44207 0.0
H209 H 0.82935 0.80599 0.41362 0.0
H210 H 0.83222 0.74521 0.43412 0.0
H211 H 0.83053 0.79819 0.47161 0.0
C212 C 0.25027 0.22156 0.95884 0.0
C213 C 0.22206 0.2701 0.95358 0.0
C214 C 0.33657 0.20428 0.94263 0.0
C215 C 0.39991 0.23791 0.92458 0.0
C216 C 0.36968 0.28578 0.91572 0.0
C217 C 0.27982 0.30174 0.9307 0.0
C218 C 0.36568 0.15254 0.95198 0.0
C219 C 0.43683 0.32141 0.8954 0.0
C220 C 0.63358 0.22168 0.9809 0.0
C221 C 0.68621 0.19695 0.94807 0.0
C222 C 0.54217 0.23851 0.97229 0.0
C223 C 0.50173 0.2284 0.93009 0.0
C224 C 0.55408 0.20307 0.8967 0.0
C225 C 0.64688 0.18761 0.90614 0.0
C226 C 0.4874 0.26474 0.00921 0.0
C227 C 0.51115 0.18974 0.85215 0.0
H228 H 0.20796 0.19751 0.97849 0.0
H229 H 0.25764 0.3393 0.92709 0.0
H230 H 0.40887 0.13603 0.92465 0.0
H231 H 0.40995 0.15293 0.98237 0.0
H232 H 0.30217 0.12888 0.95709 0.0
H233 H 0.399 0.35486 0.88547 0.0
H234 H 0.4938 0.33218 0.91949 0.0
H235 H 0.4725 0.3038 0.86623 0.0
H236 H 0.66316 0.22698 0.01373 0.0
H237 H 0.68823 0.16806 0.88086 0.0
H238 H 0.42632 0.24187 0.01931 0.0
H239 H 0.45798 0.29966 0.99805 0.0
H240 H 0.53277 0.2728 0.0387 0.0
H241 H 0.47939 0.15261 0.85283 0.0
H242 H 0.56717 0.18871 0.82628 0.0
H243 H 0.45382 0.21545 0.84293 0.0
C244 C 0.30669 0.06292 0.58594 0.0
C245 C 0.25959 0.02051 0.57018 0.0
C246 C 0.40141 0.06076 0.60053 0.0
C247 C 0.44908 0.01507 0.59848 0.0
C248 C 0.39555 0.97154 0.59185 0.0
C249 C 0.3009 0.97467 0.57658 0.0
C250 C 0.45426 0.10815 0.61082 0.0
C251 C 0.44235 0.92222 0.59514 0.0
C252 C 0.667 0.03454 0.53061 0.0
C253 C 0.7316 0.05043 0.56319 0.0
C254 C 0.57668 0.01718 0.5419 0.0
C255 C 0.55196 0.01512 0.58708 0.0
C256 C 0.62221 0.025 0.61985 0.0
C257 C 0.71109 0.04375 0.60751 0.0
C258 C 0.50475 1.00672 0.50536 0.0
C259 C 0.60248 0.01941 0.66802 0.0
H260 H 0.27508 0.09838 0.58128 0.0
H261 H 0.26276 0.94163 0.56593 0.0
H262 H 0.49632 0.10568 0.64156 0.0
H263 H 0.505 0.11534 0.58384 0.0
H264 H 0.40462 0.13979 0.61481 0.0
H265 H 0.38863 0.8922 0.59484 0.0
H266 H 0.49204 0.9154 0.56718 0.0
H267 H 0.48564 0.92157 0.62578 0.0
H268 H 0.68412 0.03943 0.49637 0.0
H269 H 0.76307 0.05485 0.63263 0.0
H270 H 0.44826 0.03529 0.50661 0.0
H271 H 0.46937 0.97098 0.50921 0.0
H272 H 0.53846 1.00608 0.47232 0.0
H273 H 0.5975 0.0561 0.68499 0.0
H274 H 0.66336 1.0002 0.68327 0.0
H275 H 0.53553 0.99877 0.67383 0.0
C276 C 0.84884 0.75271 0.05077 0.0
C277 C 0.8384 0.74153 1.00555 0.0
C278 C 0.9303 0.73889 0.07368 0.0
C279 C 0.00867 0.71921 0.04982 0.0
C280 C 0.00157 0.71115 1.00335 0.0
C281 C 0.91428 0.72026 0.98197 0.0
C282 C 0.93081 0.74398 0.12336 0.0
C283 C 0.08655 0.69423 0.9761 0.0
C284 C 0.26134 0.73774 0.08977 0.0
C285 C 0.29408 0.69012 0.08081 0.0
C286 C 0.16507 0.74875 0.08196 0.0
C287 C 0.10008 0.70978 0.07272 0.0
C288 C 0.12993 0.66109 0.07854 0.0
C289 C 0.22842 0.65154 0.08195 0.0
C290 C 0.13889 0.80157 0.07624 0.0
C291 C 0.06016 0.61894 0.07536 0.0
H292 H 0.79159 0.7711 0.06873 0.0
H293 H 0.90615 0.71205 0.94697 0.0
H294 H 0.92589 0.70698 0.13665 0.0
H295 H -0.00173 0.76069 0.13625 0.0
H296 H 0.86954 0.76615 0.1363 0.0
H297 H 0.07057 0.69299 0.94029 0.0
H298 H 0.14789 0.71944 0.98265 0.0
H299 H 0.10922 0.65725 0.98519 0.0
H300 H 0.31315 0.76729 0.09185 0.0
H301 H 0.25387 0.61417 0.07775 0.0
H302 H 0.18285 0.82613 0.09825 0.0
H303 H 0.06244 0.80949 0.08281 0.0
H304 H 0.15361 0.81061 0.04176 0.0
H305 H 0.08772 0.58728 0.09313 0.0
H306 H 0.04969 0.60688 0.0404 0.0
H307 H -0.01072 0.62992 0.0891 0.0
C308 C 0.18229 0.54737 0.53841 0.0
C309 C 0.24776 0.56814 0.56835 0.0
C310 C 0.09075 0.53485 0.55203 0.0
C311 C 0.06581 0.54228 0.59712 0.0
C312 C 0.13549 0.5586 0.62822 0.0
C313 C 0.22585 0.57229 0.61324 0.0
C314 C 0.01853 0.5187 0.5171 0.0
C315 C 0.114 0.56498 0.67667 0.0
C316 C 0.81887 0.58049 0.58387 0.0
C317 C 0.77703 0.53437 0.57646 0.0
C318 C 0.91121 0.58503 0.60098 0.0
C319 C 0.96335 0.54199 0.60852 0.0
C320 C 0.91537 0.49659 0.60931 0.0
C321 C 0.8221 0.49294 0.5922 0.0
C322 C 0.95824 0.63484 0.60262 0.0
C323 C 0.96793 0.4511 0.6216 0.0
H324 H 0.1999 0.54473 0.50373 0.0
H325 H 0.27819 0.58769 0.63644 0.0
H326 H 0.98045 0.48537 0.5266 0.0
H327 H 0.96438 0.54791 0.51336 0.0
H328 H 0.05241 0.51079 0.48456 0.0
H329 H 0.17605 0.55263 0.69624 0.0
H330 H 0.10332 0.60439 0.68552 0.0
H331 H 0.0492 0.5445 0.6862 0.0
H332 H 0.7856 0.61245 0.57088 0.0
H333 H 0.78835 0.45737 0.58744 0.0
H334 H 0.0061 0.6378 0.57379 0.0
H335 H 0.00243 0.64017 0.63276 0.0
H336 H 0.90449 0.66477 0.60207 0.0
H337 H 0.02261 0.44133 0.59634 0.0
H338 H 0.9186 0.41953 0.62456 0.0
H339 H 0.00652 0.45813 0.65322 0.0
C340 C 0.04737 0.15424 0.34812 0.0
C341 C 0.11518 0.1209 0.36287 0.0
C342 C 0.04735 0.16833 0.30422 0.0
C343 C 0.11645 0.14845 0.27432 0.0
C344 C 0.18705 0.11615 0.28945 0.0
C345 C 0.18568 0.10292 0.33343 0.0
C346 C 0.97123 0.20317 0.28942 0.0
C347 C 0.26219 0.09425 0.25881 0.0
C348 C 0.05206 0.14852 0.15249 0.0
C349 C 0.0975 0.19134 0.13982 0.0
C350 C 0.05989 0.13321 0.19584 0.0
C351 C 0.11461 0.16136 0.22722 0.0
C352 C 0.16514 0.20295 0.21388 0.0
C353 C 0.15589 0.21743 0.17046 0.0
C354 C 0.00576 0.08824 0.20851 0.0
C355 C 0.22588 0.23339 0.24595 0.0
H356 H -0.00827 0.16767 0.37031 0.0
H357 H 0.23834 0.07702 0.34443 0.0
H358 H 0.00505 0.23497 0.27427 0.0
H359 H 0.92531 0.18452 0.26393 0.0
H360 H 0.92495 0.2168 0.31697 0.0
H361 H 0.31452 0.0713 0.27613 0.0
H362 H 0.22712 0.07128 0.23239 0.0
H363 H 0.30185 0.12363 0.24271 0.0
H364 H 0.00617 0.12835 0.12928 0.0
H365 H 0.19212 0.25033 0.16087 0.0
H366 H 0.947 0.09915 0.23141 0.0
H367 H 0.05375 0.06325 0.22596 0.0
H368 H 0.97419 0.06789 0.1795 0.0
H369 H 0.17954 0.25063 0.27185 0.0
H370 H 0.26577 0.26267 0.22971 0.0
H371 H 0.27819 0.20987 0.26256 0.0
C372 C 0.19626 0.14918 0.85152 0.0
C373 C 0.11913 0.17806 0.86688 0.0
C374 C 0.21772 0.14441 0.80637 0.0
C375 C 0.15747 0.16702 0.77579 0.0
C376 C 0.08304 0.19854 0.7915 0.0
C377 C 0.06618 0.20445 0.83694 0.0
C378 C 0.30115 0.11291 0.7912 0.0
C379 C 0.01516 0.22236 0.76021 0.0
C380 C 0.19047 0.17823 0.65297 0.0
C381 C 0.13335 0.13949 0.63623 0.0
C382 C 0.20827 0.18463 0.69839 0.0
C383 C 0.16312 0.15323 0.72774 0.0
C384 C 0.11094 0.11204 0.71049 0.0
C385 C 0.0986 0.10512 0.66481 0.0
C386 C 0.26944 0.2271 0.71502 0.0
C387 C 0.05948 0.07807 0.74023 0.0
H388 H 0.23662 0.12826 0.8746 0.0
H389 H 0.00526 0.22586 0.84869 0.0
H390 H 0.27475 0.07987 0.77242 0.0
H391 H 0.34733 0.13331 0.76874 0.0
H392 H 0.34537 0.10101 0.81915 0.0
H393 H 0.96301 0.24699 0.77761 0.0
H394 H 0.05571 0.24386 0.73652 0.0
H395 H 0.97462 0.19369 0.74095 0.0
H396 H 0.21738 0.20484 0.63075 0.0
H397 H 0.05334 0.07555 0.65182 0.0
H398 H 0.31383 0.2169 0.74349 0.0
H399 H 0.22266 0.25797 0.72613 0.0
H400 H 0.31739 0.24003 0.68889 0.0
H401 H 0.10912 0.06456 0.76543 0.0
H402 H 0.02757 0.04604 0.72173 0.0
H403 H 0.00113 0.09835 0.75781 0.0
C404 C 0.67611 0.56477 0.32861 0.0
C405 C 0.61748 0.59178 0.35831 0.0
C406 C 0.67752 0.57438 0.28377 0.0
C407 C 0.61866 0.61184 0.26806 0.0
C408 C 0.56005 0.63963 0.29785 0.0
C409 C 0.56045 0.6294 0.34267 0.0
C410 C 0.74202 0.54443 0.25319 0.0
C411 C 0.49655 0.68004 0.28231 0.0
C412 C 0.69099 0.6752 0.16559 0.0
C413 C 0.62381 0.65695 0.13445 0.0
C414 C 0.69128 0.65993 0.20873 0.0
C415 C 0.62393 0.62459 0.22113 0.0
C416 C 0.56012 0.60334 0.18919 0.0
C417 C 0.56039 0.62002 0.14609 0.0
C418 C 0.76067 0.68358 0.24156 0.0
C419 C 0.48903 0.56454 0.20099 0.0
H420 H 0.72037 0.53554 0.34035 0.0
H421 H 0.51383 0.64989 0.36516 0.0
H422 H 0.69922 0.52696 0.22597 0.0
H423 H 0.79547 0.56856 0.23815 0.0
H424 H 0.78098 0.51547 0.27036 0.0
H425 H 0.45313 0.69725 0.30935 0.0
H426 H 0.54108 0.70873 0.26778 0.0
H427 H 0.44729 0.66541 0.25616 0.0
H428 H 0.74105 0.70342 0.1569 0.0
H429 H 0.50862 0.60559 0.12219 0.0
H430 H 0.80206 0.65527 0.25831 0.0
H431 H 0.72027 0.70496 0.26723 0.0
H432 H 0.81198 0.70852 0.22597 0.0
H433 H 0.52589 0.53475 0.21784 0.0
H434 H 0.45082 0.54853 0.17162 0.0
H435 H 0.43527 0.58067 0.22419 0.0
C436 C 0.61719 0.61089 0.65889 0.0
C437 C 0.64636 0.64744 0.63117 0.0
C438 C 0.62521 0.61778 0.70469 0.0
C439 C 0.66693 0.66148 0.7229 0.0
C440 C 0.70853 0.6952 0.69461 0.0
C441 C 0.69574 0.68838 0.64895 0.0
C442 C 0.57771 0.58126 0.73326 0.0
C443 C 0.75784 0.74098 0.71261 0.0
C444 C 0.53803 0.71493 0.82309 0.0
C445 C 0.59368 0.69843 0.85791 0.0
C446 C 0.56281 0.70405 0.77926 0.0
C447 C 0.64701 0.67682 0.76958 0.0
C448 C 0.707 0.6625 0.80439 0.0
C449 C 0.67926 0.6732 0.84832 0.0
C450 C 0.49587 0.71978 0.74336 0.0
C451 C 0.79823 0.63428 0.79531 0.0
H452 H 0.57886 0.5792 0.64513 0.0
H453 H 0.71957 0.71636 0.62739 0.0
H454 H 0.62231 0.57435 0.7625 0.0
H455 H 0.50808 0.59634 0.74512 0.0
H456 H 0.56368 0.54587 0.71497 0.0
H457 H 0.80469 0.75706 0.6876 0.0
H458 H 0.70311 0.76859 0.72284 0.0
H459 H 0.80169 0.73326 0.74197 0.0
H460 H 0.4722 0.73483 0.83004 0.0
H461 H 0.72263 0.66024 0.87499 0.0
H462 H 0.46934 0.68719 0.72389 0.0
H463 H 0.53464 0.74319 0.72053 0.0
H464 H 0.43295 0.74049 0.75656 0.0
H465 H 0.7804 0.59613 0.78432 0.0
H466 H 0.8446 0.63321 0.82499 0.0
H467 H 0.83932 0.65061 0.76849 0.0
loop_
_geom_bond_atom_site_label_1
_geom_bond_atom_site_label_2
_geom_bond_distance
_geom_bond_site_symmetry_2
_ccdc_geom_bond_type
Zn0 O6 1.920 . S
Zn0 O12 1.898 . S
Zn0 O15 1.905 . S
Zn1 O9 1.905 . S
Zn1 O10 1.898 1_655 S
Zn1 O18 1.920 . S
Zn2 O5 2.080 . S
Zn2 O8 2.114 . S
Zn2 O11 2.120 1_554 S
Zn2 O13 2.120 . S
Zn2 O14 2.114 . S
Zn2 O17 2.080 1_455 S
C3 O8 1.166 . S
C3 O9 1.182 1_454 S
C4 O10 1.167 . S
C4 O11 1.299 . S
O5 Zn2 2.080 . S
O5 C19 1.305 1_455 S
O6 Zn0 1.920 . S
O6 C19 1.234 1_455 S
C7 O12 1.167 . S
C7 O13 1.299 . S
O8 Zn2 2.114 . S
O8 C3 1.166 . S
O9 Zn1 1.905 . S
O9 C3 1.182 1_656 S
O10 Zn1 1.898 1_455 S
O10 C4 1.167 . S
O11 Zn2 2.120 1_556 S
O11 C4 1.299 . S
O12 Zn0 1.898 . S
O12 C7 1.167 . S
O13 Zn2 2.120 . S
O13 C7 1.299 . S
O14 Zn2 2.114 . S
O14 C16 1.166 . S
O15 Zn0 1.905 . S
O15 C16 1.182 . S
C16 O14 1.166 . S
C16 O15 1.182 . S
O17 Zn2 2.080 1_655 S
O17 C20 1.305 1_554 S
O18 Zn1 1.920 . S
O18 C20 1.234 . S
C19 O5 1.305 1_655 S
C19 O6 1.234 1_655 S
C20 O17 1.305 1_556 S
C20 O18 1.234 . S
Zn21 O27 1.928 . S
Zn21 O33 1.886 1_565 S
Zn21 O36 1.904 1_565 S
Zn22 O30 1.905 . S
Zn22 O31 1.898 1_655 S
Zn22 O39 1.920 . S
Zn23 O26 2.080 . S
Zn23 O29 2.114 . S
Zn23 O32 2.120 . S
Zn23 O34 2.120 . S
Zn23 O35 2.114 . S
Zn23 O38 2.080 1_455 S
C24 O29 1.166 . S
C24 O30 1.182 1_455 S
C25 O31 1.167 . S
C25 O32 1.299 . S
O26 Zn23 2.080 . S
O26 C40 1.305 1_445 S
O27 Zn21 1.928 . S
O27 C40 1.234 1_455 S
C28 O33 1.167 . S
C28 O34 1.299 . S
O29 Zn23 2.114 . S
O29 C24 1.166 . S
O30 Zn22 1.905 . S
O30 C24 1.182 1_655 S
O31 Zn22 1.898 1_455 S
O31 C25 1.167 . S
O32 Zn23 2.120 . S
O32 C25 1.299 . S
O33 Zn21 1.886 1_545 S
O33 C28 1.167 . S
O34 Zn23 2.120 . S
O34 C28 1.299 . S
O35 Zn23 2.114 . S
O35 C37 1.166 . S
O36 Zn21 1.904 1_545 S
O36 C37 1.182 . S
C37 O35 1.166 . S
C37 O36 1.182 . S
O38 Zn23 2.080 1_655 S
O38 C41 1.305 . S
O39 Zn22 1.920 . S
O39 C41 1.234 . S
C40 O26 1.305 1_665 S
C40 O27 1.234 1_655 S
C41 O38 1.305 . S
C41 O39 1.234 . S
Zn42 O48 1.920 . S
Zn42 O54 1.898 . S
Zn42 O57 1.905 . S
Zn43 O51 1.905 . S
Zn43 O52 1.898 . S
Zn43 O60 1.920 . S
Zn44 O47 2.080 . S
Zn44 O50 2.114 . S
Zn44 O53 2.120 1_554 S
Zn44 O55 2.120 . S
Zn44 O56 2.114 . S
Zn44 O59 2.080 . S
C45 O50 1.166 . S
C45 O51 1.182 1_554 S
C46 O52 1.167 . S
C46 O53 1.299 . S
O47 Zn44 2.080 . S
O47 C61 1.305 . S
O48 Zn42 1.920 . S
O48 C61 1.234 . S
C49 O54 1.167 . S
C49 O55 1.299 . S
O50 Zn44 2.114 . S
O50 C45 1.166 . S
O51 Zn43 1.905 . S
O51 C45 1.182 1_556 S
O52 Zn43 1.898 . S
O52 C46 1.167 . S
O53 Zn44 2.120 1_556 S
O53 C46 1.299 . S
O54 Zn42 1.898 . S
O54 C49 1.167 . S
O55 Zn44 2.120 . S
O55 C49 1.299 . S
O56 Zn44 2.114 . S
O56 C58 1.166 . S
O57 Zn42 1.905 . S
O57 C58 1.182 . S
C58 O56 1.166 . S
C58 O57 1.182 . S
O59 Zn44 2.080 . S
O59 C62 1.305 1_554 S
O60 Zn43 1.920 . S
O60 C62 1.234 . S
C61 O47 1.305 . S
C61 O48 1.234 . S
C62 O59 1.305 1_556 S
C62 O60 1.234 . S
Zn63 O69 1.920 . S
Zn63 O75 1.898 . S
Zn63 O78 1.905 . S
Zn64 O72 1.905 . S
Zn64 O73 1.898 . S
Zn64 O81 1.920 . S
Zn65 O68 2.080 . S
Zn65 O71 2.114 . S
Zn65 O74 2.120 . S
Zn65 O76 2.120 . S
Zn65 O77 2.114 . S
Zn65 O80 2.080 . S
C66 O71 1.166 . S
C66 O72 1.182 . S
C67 O73 1.167 . S
C67 O74 1.299 . S
O68 Zn65 2.080 . S
O68 C82 1.305 . S
O69 Zn63 1.920 . S
O69 C82 1.234 . S
C70 O75 1.167 . S
C70 O76 1.299 . S
O71 Zn65 2.114 . S
O71 C66 1.166 . S
O72 Zn64 1.905 . S
O72 C66 1.182 . S
O73 Zn64 1.898 . S
O73 C67 1.167 . S
O74 Zn65 2.120 . S
O74 C67 1.299 . S
O75 Zn63 1.898 . S
O75 C70 1.167 . S
O76 Zn65 2.120 . S
O76 C70 1.299 . S
O77 Zn65 2.114 . S
O77 C79 1.166 . S
O78 Zn63 1.905 . S
O78 C79 1.182 . S
C79 O77 1.166 . S
C79 O78 1.182 . S
O80 Zn65 2.080 . S
O80 C83 1.305 . S
O81 Zn64 1.920 . S
O81 C83 1.234 . S
C82 O68 1.305 . S
C82 O69 1.234 . S
C83 O80 1.305 . S
C83 O81 1.234 . S
C84 C85 1.391 . S
C84 C86 1.394 . S
C84 H100 0.931 . S
C85 C84 1.391 . S
C85 C89 1.376 . S
C86 C84 1.394 . S
C86 C87 1.369 . S
C86 C90 1.531 . S
C87 C86 1.369 . S
C87 C88 1.410 . S
C87 C95 1.503 . S
C88 C87 1.410 . S
C88 C89 1.393 . S
C88 C91 1.510 1_554 S
C89 C85 1.376 . S
C89 C88 1.393 . S
C89 H101 0.929 1_554 S
C90 C86 1.531 . S
C90 H102 0.960 . S
C90 H103 0.962 . S
C90 H104 0.960 . S
C91 C88 1.510 1_556 S
C91 H105 0.961 . S
C91 H106 0.960 1_556 S
C91 H107 0.961 . S
C92 C93 1.370 . S
C92 C94 1.363 1_545 S
C92 H108 0.931 . S
C93 C92 1.370 . S
C93 C97 1.408 1_554 S
C94 C92 1.363 1_565 S
C94 C95 1.370 . S
C94 C98 1.524 . S
C95 C87 1.503 . S
C95 C94 1.370 . S
C95 C96 1.403 1_554 S
C96 C95 1.403 1_556 S
C96 C97 1.404 1_565 S
C96 C99 1.539 . S
C97 C93 1.408 1_556 S
C97 C96 1.404 1_545 S
C97 H109 0.930 . S
C98 C94 1.524 . S
C98 H110 0.956 . S
C98 H111 0.961 . S
C98 H112 0.961 . S
C99 C96 1.539 . S
C99 H113 0.958 . S
C99 H114 0.961 . S
C99 H115 0.960 . S
H100 C84 0.931 . S
H101 C89 0.929 1_556 S
H102 C90 0.960 . S
H103 C90 0.962 . S
H104 C90 0.960 . S
H105 C91 0.961 . S
H106 C91 0.960 1_554 S
H107 C91 0.961 . S
H108 C92 0.931 . S
H109 C97 0.930 . S
H110 C98 0.956 . S
H111 C98 0.961 . S
H112 C98 0.961 . S
H113 C99 0.958 . S
H114 C99 0.961 . S
H115 C99 0.960 . S
C116 C117 1.391 . S
C116 C118 1.394 . S
C116 H132 0.931 . S
C117 C116 1.391 . S
C117 C121 1.378 . S
C118 C116 1.394 . S
C118 C119 1.369 . S
C118 C122 1.531 . S
C119 C118 1.369 . S
C119 C120 1.410 . S
C119 C127 1.503 . S
C120 C119 1.410 . S
C120 C121 1.393 . S
C120 C123 1.511 1_554 S
C121 C117 1.378 . S
C121 C120 1.393 . S
C121 H133 0.926 1_554 S
C122 C118 1.531 . S
C122 H134 0.960 . S
C122 H135 0.962 . S
C122 H136 0.960 . S
C123 C120 1.511 1_556 S
C123 H137 0.961 . S
C123 H138 0.961 . S
C123 H139 0.961 . S
C124 C125 1.370 1_556 S
C124 C126 1.363 . S
C124 H140 0.931 . S
C125 C124 1.370 1_554 S
C125 C129 1.408 . S
C126 C124 1.363 . S
C126 C127 1.370 1_556 S
C126 C130 1.524 . S
C127 C119 1.503 . S
C127 C126 1.370 1_554 S
C127 C128 1.403 . S
C128 C127 1.403 . S
C128 C129 1.404 . S
C128 C131 1.539 . S
C129 C125 1.408 . S
C129 C128 1.404 . S
C129 H141 0.930 . S
C130 C126 1.524 . S
C130 H142 0.956 . S
C130 H143 0.961 . S
C130 H144 0.961 . S
C131 C128 1.539 . S
C131 H145 0.958 . S
C131 H146 0.961 . S
C131 H147 0.960 . S
H132 C116 0.931 . S
H133 C121 0.926 1_556 S
H134 C122 0.960 . S
H135 C122 0.962 . S
H136 C122 0.960 . S
H137 C123 0.961 . S
H138 C123 0.961 . S
H139 C123 0.961 . S
H140 C124 0.931 . S
H141 C129 0.930 . S
H142 C130 0.956 . S
H143 C130 0.961 . S
H144 C130 0.961 . S
H145 C131 0.958 . S
H146 C131 0.961 . S
H147 C131 0.960 . S
C148 C149 1.391 . S
C148 C150 1.394 . S
C148 H164 0.931 . S
C149 C148 1.391 . S
C149 C153 1.376 . S
C150 C148 1.394 . S
C150 C151 1.369 . S
C150 C154 1.531 . S
C151 C150 1.369 . S
C151 C152 1.410 . S
C151 C159 1.503 . S
C152 C151 1.410 . S
C152 C153 1.392 . S
C152 C155 1.511 . S
C153 C149 1.376 . S
C153 C152 1.392 . S
C153 H165 0.929 . S
C154 C150 1.531 . S
C154 H166 0.960 . S
C154 H167 0.962 . S
C154 H168 0.960 . S
C155 C152 1.511 . S
C155 H169 0.961 . S
C155 H170 0.961 . S
C155 H171 0.961 . S
C156 C157 1.370 . S
C156 C158 1.363 . S
C156 H172 0.931 . S
C157 C156 1.370 . S
C157 C161 1.408 . S
C158 C156 1.363 . S
C158 C159 1.370 . S
C158 C162 1.524 . S
C159 C151 1.503 . S
C159 C158 1.370 . S
C159 C160 1.403 . S
C160 C159 1.403 . S
C160 C161 1.404 . S
C160 C163 1.539 . S
C161 C157 1.408 . S
C161 C160 1.404 . S
C161 H173 0.930 . S
C162 C158 1.524 . S
C162 H174 0.956 . S
C162 H175 0.961 . S
C162 H176 0.961 . S
C163 C160 1.539 . S
C163 H177 0.958 . S
C163 H178 0.961 . S
C163 H179 0.960 . S
H164 C148 0.931 . S
H165 C153 0.929 . S
H166 C154 0.960 . S
H167 C154 0.962 . S
H168 C154 0.960 . S
H169 C155 0.961 . S
H170 C155 0.961 . S
H171 C155 0.961 . S
H172 C156 0.931 . S
H173 C161 0.930 . S
H174 C162 0.956 . S
H175 C162 0.961 . S
H176 C162 0.961 . S
H177 C163 0.958 . S
H178 C163 0.961 . S
H179 C163 0.960 . S
C180 C181 1.391 . S
C180 C182 1.394 . S
C180 H196 0.931 . S
C181 C180 1.391 . S
C181 C185 1.376 . S
C182 C180 1.394 . S
C182 C183 1.369 . S
C182 C186 1.531 . S
C183 C182 1.369 . S
C183 C184 1.410 . S
C183 C191 1.503 . S
C184 C183 1.410 . S
C184 C185 1.392 . S
C184 C187 1.511 . S
C185 C181 1.376 . S
C185 C184 1.392 . S
C185 H197 0.929 . S
C186 C182 1.531 . S
C186 H198 0.960 . S
C186 H199 0.962 . S
C186 H200 0.960 . S
C187 C184 1.511 . S
C187 H201 0.961 . S
C187 H202 0.961 . S
C187 H203 0.961 . S
C188 C189 1.370 . S
C188 C190 1.363 . S
C188 H204 0.931 . S
C189 C188 1.370 . S
C189 C193 1.408 . S
C190 C188 1.363 . S
C190 C191 1.370 . S
C190 C194 1.524 . S
C191 C183 1.503 . S
C191 C190 1.370 . S
C191 C192 1.403 . S
C192 C191 1.403 . S
C192 C193 1.404 . S
C192 C195 1.539 . S
C193 C189 1.408 . S
C193 C192 1.404 . S
C193 H205 0.930 . S
C194 C190 1.524 . S
C194 H206 0.956 . S
C194 H207 0.961 . S
C194 H208 0.961 . S
C195 C192 1.539 . S
C195 H209 0.958 . S
C195 H210 0.961 . S
C195 H211 0.960 . S
H196 C180 0.931 . S
H197 C185 0.929 . S
H198 C186 0.960 . S
H199 C186 0.962 . S
H200 C186 0.960 . S
H201 C187 0.961 . S
H202 C187 0.961 . S
H203 C187 0.961 . S
H204 C188 0.931 . S
H205 C193 0.930 . S
H206 C194 0.956 . S
H207 C194 0.961 . S
H208 C194 0.961 . S
H209 C195 0.958 . S
H210 C195 0.961 . S
H211 C195 0.960 . S
C212 C213 1.391 1_554 S
C212 C214 1.394 . S
C212 H228 0.931 . S
C213 C212 1.391 1_556 S
C213 C217 1.376 . S
C214 C212 1.394 . S
C214 C215 1.369 1_554 S
C214 C218 1.531 . S
C215 C214 1.369 1_556 S
C215 C216 1.410 . S
C215 C223 1.503 . S
C216 C215 1.410 . S
C216 C217 1.392 . S
C216 C219 1.511 . S
C217 C213 1.376 . S
C217 C216 1.392 . S
C217 H229 0.929 . S
C218 C214 1.531 . S
C218 H230 0.960 . S
C218 H231 0.962 . S
C218 H232 0.960 . S
C219 C216 1.511 . S
C219 H233 0.961 . S
C219 H234 0.961 . S
C219 H235 0.961 . S
C220 C221 1.370 1_554 S
C220 C222 1.363 . S
C220 H236 0.931 . S
C221 C220 1.370 1_556 S
C221 C225 1.408 . S
C222 C220 1.363 . S
C222 C223 1.370 1_554 S
C222 C226 1.524 . S
C223 C215 1.503 . S
C223 C222 1.370 1_556 S
C223 C224 1.403 . S
C224 C223 1.403 . S
C224 C225 1.404 . S
C224 C227 1.539 . S
C225 C221 1.408 . S
C225 C224 1.404 . S
C225 H237 0.930 . S
C226 C222 1.524 . S
C226 H238 0.956 . S
C226 H239 0.961 . S
C226 H240 0.961 . S
C227 C224 1.539 . S
C227 H241 0.958 . S
C227 H242 0.961 . S
C227 H243 0.960 . S
H228 C212 0.931 . S
H229 C217 0.929 . S
H230 C218 0.960 . S
H231 C218 0.962 . S
H232 C218 0.960 . S
H233 C219 0.961 . S
H234 C219 0.961 . S
H235 C219 0.961 . S
H236 C220 0.931 . S
H237 C225 0.930 . S
H238 C226 0.956 . S
H239 C226 0.961 . S
H240 C226 0.961 . S
H241 C227 0.958 . S
H242 C227 0.961 . S
H243 C227 0.960 . S
C244 C245 1.391 . S
C244 C246 1.394 . S
C244 H260 0.931 . S
C245 C244 1.391 . S
C245 C249 1.376 . S
C246 C244 1.394 . S
C246 C247 1.369 . S
C246 C250 1.531 . S
C247 C246 1.369 . S
C247 C248 1.410 . S
C247 C255 1.503 . S
C248 C247 1.410 . S
C248 C249 1.392 . S
C248 C251 1.511 1_545 S
C249 C245 1.376 . S
C249 C248 1.392 . S
C249 H261 0.929 1_545 S
C250 C246 1.531 . S
C250 H262 0.960 . S
C250 H263 0.962 . S
C250 H264 0.960 . S
C251 C248 1.511 1_565 S
C251 H265 0.961 . S
C251 H266 0.961 . S
C251 H267 0.961 . S
C252 C253 1.370 . S
C252 C254 1.363 . S
C252 H268 0.931 . S
C253 C252 1.370 . S
C253 C257 1.408 . S
C254 C252 1.363 . S
C254 C255 1.370 . S
C254 C258 1.524 . S
C255 C247 1.503 . S
C255 C254 1.370 . S
C255 C256 1.403 . S
C256 C255 1.403 . S
C256 C257 1.404 . S
C256 C259 1.539 . S
C257 C253 1.408 . S
C257 C256 1.404 . S
C257 H269 0.930 . S
C258 C254 1.524 . S
C258 H270 0.956 . S
C258 H271 0.961 . S
C258 H272 0.961 . S
C259 C256 1.539 . S
C259 H273 0.958 . S
C259 H274 0.961 . S
C259 H275 0.960 . S
H260 C244 0.931 . S
H261 C249 0.929 1_565 S
H262 C250 0.960 . S
H263 C250 0.962 . S
H264 C250 0.960 . S
H265 C251 0.961 . S
H266 C251 0.961 . S
H267 C251 0.961 . S
H268 C252 0.931 . S
H269 C257 0.930 . S
H270 C258 0.956 . S
H271 C258 0.961 . S
H272 C258 0.961 . S
H273 C259 0.958 . S
H274 C259 0.961 . S
H275 C259 0.960 . S
C276 C277 1.391 1_554 S
C276 C278 1.394 . S
C276 H292 0.931 . S
C277 C276 1.391 1_556 S
C277 C281 1.376 . S
C278 C276 1.394 . S
C278 C279 1.369 1_554 S
C278 C282 1.531 . S
C279 C278 1.369 1_556 S
C279 C280 1.410 . S
C279 C287 1.503 1_655 S
C280 C279 1.410 . S
C280 C281 1.392 . S
C280 C283 1.511 . S
C281 C277 1.376 . S
C281 C280 1.392 . S
C281 H293 0.929 . S
C282 C278 1.531 . S
C282 H294 0.960 1_655 S
C282 H295 0.962 . S
C282 H296 0.960 . S
C283 C280 1.511 . S
C283 H297 0.961 . S
C283 H298 0.961 1_655 S
C283 H299 0.961 . S
C284 C285 1.370 . S
C284 C286 1.363 . S
C284 H300 0.931 . S
C285 C284 1.370 . S
C285 C289 1.408 . S
C286 C284 1.363 . S
C286 C287 1.370 . S
C286 C290 1.524 . S
C287 C279 1.503 1_455 S
C287 C286 1.370 . S
C287 C288 1.403 . S
C288 C287 1.403 . S
C288 C289 1.404 . S
C288 C291 1.539 . S
C289 C285 1.408 . S
C289 C288 1.404 . S
C289 H301 0.930 . S
C290 C286 1.524 . S
C290 H302 0.956 1_556 S
C290 H303 0.961 . S
C290 H304 0.961 . S
C291 C288 1.539 . S
C291 H305 0.958 1_556 S
C291 H306 0.961 . S
C291 H307 0.960 1_455 S
H292 C276 0.931 . S
H293 C281 0.929 . S
H294 C282 0.960 1_455 S
H295 C282 0.962 . S
H296 C282 0.960 . S
H297 C283 0.961 . S
H298 C283 0.961 1_455 S
H299 C283 0.961 . S
H300 C284 0.931 . S
H301 C289 0.930 . S
H302 C290 0.956 1_554 S
H303 C290 0.961 . S
H304 C290 0.961 . S
H305 C291 0.958 1_554 S
H306 C291 0.961 . S
H307 C291 0.960 1_655 S
C308 C309 1.391 . S
C308 C310 1.394 . S
C308 H324 0.931 . S
C309 C308 1.391 . S
C309 C313 1.376 . S
C310 C308 1.394 . S
C310 C311 1.369 . S
C310 C314 1.531 . S
C311 C310 1.369 . S
C311 C312 1.410 . S
C311 C319 1.503 1_455 S
C312 C311 1.410 . S
C312 C313 1.392 . S
C312 C315 1.511 . S
C313 C309 1.376 . S
C313 C312 1.392 . S
C313 H325 0.929 . S
C314 C310 1.531 . S
C314 H326 0.960 . S
C314 H327 0.962 . S
C314 H328 0.960 . S
C315 C312 1.511 . S
C315 H329 0.961 . S
C315 H330 0.961 . S
C315 H331 0.961 . S
C316 C317 1.370 . S
C316 C318 1.363 . S
C316 H332 0.931 . S
C317 C316 1.370 . S
C317 C321 1.408 . S
C318 C316 1.363 . S
C318 C319 1.370 . S
C318 C322 1.524 . S
C319 C311 1.503 1_655 S
C319 C318 1.370 . S
C319 C320 1.403 . S
C320 C319 1.403 . S
C320 C321 1.404 . S
C320 C323 1.539 . S
C321 C317 1.408 . S
C321 C320 1.404 . S
C321 H333 0.930 . S
C322 C318 1.524 . S
C322 H334 0.956 . S
C322 H335 0.961 . S
C322 H336 0.961 . S
C323 C320 1.539 . S
C323 H337 0.958 1_655 S
C323 H338 0.961 . S
C323 H339 0.960 1_655 S
H324 C308 0.931 . S
H325 C313 0.929 . S
H326 C314 0.960 . S
H327 C314 0.962 . S
H328 C314 0.960 . S
H329 C315 0.961 . S
H330 C315 0.961 . S
H331 C315 0.961 . S
H332 C316 0.931 . S
H333 C321 0.930 . S
H334 C322 0.956 . S
H335 C322 0.961 . S
H336 C322 0.961 . S
H337 C323 0.958 1_455 S
H338 C323 0.961 . S
H339 C323 0.960 1_455 S
C340 C341 1.391 . S
C340 C342 1.394 . S
C340 H356 0.931 1_455 S
C341 C340 1.391 . S
C341 C345 1.376 . S
C342 C340 1.394 . S
C342 C343 1.369 . S
C342 C346 1.531 1_455 S
C343 C342 1.369 . S
C343 C344 1.410 . S
C343 C351 1.503 . S
C344 C343 1.410 . S
C344 C345 1.392 . S
C344 C347 1.511 . S
C345 C341 1.376 . S
C345 C344 1.392 . S
C345 H357 0.929 . S
C346 C342 1.531 1_655 S
C346 H358 0.960 . S
C346 H359 0.962 . S
C346 H360 0.960 . S
C347 C344 1.511 . S
C347 H361 0.961 . S
C347 H362 0.961 . S
C347 H363 0.961 . S
C348 C349 1.370 . S
C348 C350 1.363 . S
C348 H364 0.931 . S
C349 C348 1.370 . S
C349 C353 1.408 . S
C350 C348 1.363 . S
C350 C351 1.370 . S
C350 C354 1.524 1_455 S
C351 C343 1.503 . S
C351 C350 1.370 . S
C351 C352 1.403 . S
C352 C351 1.403 . S
C352 C353 1.404 . S
C352 C355 1.539 . S
C353 C349 1.408 . S
C353 C352 1.404 . S
C353 H365 0.930 . S
C354 C350 1.524 1_655 S
C354 H366 0.956 . S
C354 H367 0.961 1_655 S
C354 H368 0.961 . S
C355 C352 1.539 . S
C355 H369 0.958 . S
C355 H370 0.961 . S
C355 H371 0.960 . S
H356 C340 0.931 1_655 S
H357 C345 0.929 . S
H358 C346 0.960 . S
H359 C346 0.962 . S
H360 C346 0.960 . S
H361 C347 0.961 . S
H362 C347 0.961 . S
H363 C347 0.961 . S
H364 C348 0.931 . S
H365 C353 0.930 . S
H366 C354 0.956 . S
H367 C354 0.961 1_455 S
H368 C354 0.961 . S
H369 C355 0.958 . S
H370 C355 0.961 . S
H371 C355 0.960 . S
C372 C373 1.391 . S
C372 C374 1.394 . S
C372 H388 0.931 . S
C373 C372 1.391 . S
C373 C377 1.376 1_455 S
C374 C372 1.394 . S
C374 C375 1.369 . S
C374 C378 1.531 . S
C375 C374 1.369 . S
C375 C376 1.410 1_455 S
C375 C383 1.503 . S
C376 C375 1.410 1_655 S
C376 C377 1.392 . S
C376 C379 1.511 . S
C377 C373 1.376 1_655 S
C377 C376 1.392 . S
C377 H389 0.929 . S
C378 C374 1.531 . S
C378 H390 0.960 . S
C378 H391 0.962 . S
C378 H392 0.960 . S
C379 C376 1.511 . S
C379 H393 0.961 . S
C379 H394 0.961 . S
C379 H395 0.961 . S
C380 C381 1.370 . S
C380 C382 1.363 . S
C380 H396 0.931 . S
C381 C380 1.370 . S
C381 C385 1.408 . S
C382 C380 1.363 . S
C382 C383 1.370 . S
C382 C386 1.524 . S
C383 C375 1.503 . S
C383 C382 1.370 . S
C383 C384 1.403 . S
C384 C383 1.403 . S
C384 C385 1.404 . S
C384 C387 1.539 1_455 S
C385 C381 1.408 . S
C385 C384 1.404 . S
C385 H397 0.930 . S
C386 C382 1.524 . S
C386 H398 0.956 . S
C386 H399 0.961 . S
C386 H400 0.961 . S
C387 C384 1.539 1_655 S
C387 H401 0.958 1_655 S
C387 H402 0.961 . S
C387 H403 0.960 . S
H388 C372 0.931 . S
H389 C377 0.929 . S
H390 C378 0.960 . S
H391 C378 0.962 . S
H392 C378 0.960 . S
H393 C379 0.961 . S
H394 C379 0.961 . S
H395 C379 0.961 . S
H396 C380 0.931 . S
H397 C385 0.930 . S
H398 C386 0.956 . S
H399 C386 0.961 . S
H400 C386 0.961 . S
H401 C387 0.958 1_455 S
H402 C387 0.961 . S
H403 C387 0.960 . S
C404 C405 1.391 . S
C404 C406 1.394 . S
C404 H420 0.931 . S
C405 C404 1.391 . S
C405 C409 1.376 . S
C406 C404 1.394 . S
C406 C407 1.369 . S
C406 C410 1.531 . S
C407 C406 1.369 . S
C407 C408 1.410 . S
C407 C415 1.503 . S
C408 C407 1.410 . S
C408 C409 1.392 . S
C408 C411 1.511 . S
C409 C405 1.376 . S
C409 C408 1.392 . S
C409 H421 0.929 . S
C410 C406 1.531 . S
C410 H422 0.960 . S
C410 H423 0.962 . S
C410 H424 0.960 . S
C411 C408 1.511 . S
C411 H425 0.961 . S
C411 H426 0.961 . S
C411 H427 0.961 . S
C412 C413 1.370 . S
C412 C414 1.363 . S
C412 H428 0.931 . S
C413 C412 1.370 . S
C413 C417 1.408 . S
C414 C412 1.363 . S
C414 C415 1.370 . S
C414 C418 1.524 . S
C415 C407 1.503 . S
C415 C414 1.370 . S
C415 C416 1.403 . S
C416 C415 1.403 . S
C416 C417 1.404 . S
C416 C419 1.539 . S
C417 C413 1.408 . S
C417 C416 1.404 . S
C417 H429 0.930 . S
C418 C414 1.524 . S
C418 H430 0.956 . S
C418 H431 0.961 . S
C418 H432 0.961 . S
C419 C416 1.539 . S
C419 H433 0.958 . S
C419 H434 0.961 . S
C419 H435 0.960 . S
H420 C404 0.931 . S
H421 C409 0.929 . S
H422 C410 0.960 . S
H423 C410 0.962 . S
H424 C410 0.960 . S
H425 C411 0.961 . S
H426 C411 0.961 . S
H427 C411 0.961 . S
H428 C412 0.931 . S
H429 C417 0.930 . S
H430 C418 0.956 . S
H431 C418 0.961 . S
H432 C418 0.961 . S
H433 C419 0.958 . S
H434 C419 0.961 . S
H435 C419 0.960 . S
C436 C437 1.391 . S
C436 C438 1.394 . S
C436 H452 0.931 . S
C437 C436 1.391 . S
C437 C441 1.376 . S
C438 C436 1.394 . S
C438 C439 1.369 . S
C438 C442 1.531 . S
C439 C438 1.369 . S
C439 C440 1.410 . S
C439 C447 1.503 . S
C440 C439 1.410 . S
C440 C441 1.392 . S
C440 C443 1.511 . S
C441 C437 1.376 . S
C441 C440 1.392 . S
C441 H453 0.929 . S
C442 C438 1.531 . S
C442 H454 0.960 . S
C442 H455 0.962 . S
C442 H456 0.960 . S
C443 C440 1.511 . S
C443 H457 0.961 . S
C443 H458 0.961 . S
C443 H459 0.961 . S
C444 C445 1.370 . S
C444 C446 1.363 . S
C444 H460 0.931 . S
C445 C444 1.370 . S
C445 C449 1.408 . S
C446 C444 1.363 . S
C446 C447 1.370 . S
C446 C450 1.524 . S
C447 C439 1.503 . S
C447 C446 1.370 . S
C447 C448 1.403 . S
C448 C447 1.403 . S
C448 C449 1.404 . S
C448 C451 1.539 . S
C449 C445 1.408 . S
C449 C448 1.404 . S
C449 H461 0.930 . S
C450 C446 1.524 . S
C450 H462 0.956 . S
C450 H463 0.961 . S
C450 H464 0.961 . S
C451 C448 1.539 . S
C451 H465 0.958 . S
C451 H466 0.961 . S
C451 H467 0.960 . S
H452 C436 0.931 . S
H453 C441 0.929 . S
H454 C442 0.960 . S
H455 C442 0.962 . S
H456 C442 0.960 . S
H457 C443 0.961 . S
H458 C443 0.961 . S
H459 C443 0.961 . S
H460 C444 0.931 . S
H461 C449 0.930 . S
H462 C450 0.956 . S
H463 C450 0.961 . S
H464 C450 0.961 . S
H465 C451 0.958 . S
H466 C451 0.961 . S
H467 C451 0.960 . S
C85 C61 1.569 . S
C93 C3 1.482 . S
C117 C45 1.527 . S
C125 C19 1.563 . S
C149 C24 1.476 . S
C157 C82 1.555 . S
C181 C40 1.529 . S
C189 C66 1.513 . S
C213 C16 0.747 1_556 S
C221 C20 0.632 . S
C245 C37 0.769 . S
C253 C41 0.637 . S
C277 C58 0.683 1_556 S
C285 C62 0.637 . S
C309 C83 0.727 . S
C317 C79 0.673 . S
C341 C28 1.454 . S
C349 C7 1.413 . S
C373 C4 1.266 . S
C381 C25 1.327 . S
C405 C70 1.387 . S
C413 C49 1.445 . S
C437 C67 1.375 . S
C445 C46 1.321 . S
