# Generated by pormake.
# Topology uoj, (4)-cn, num edge types: 1
# Building blocks:
#     Node 0, Type 0, BuildingBlock: KUFVIS_clean_sbu_0, # of connection points: 4
#     Node 1, Type 0, BuildingBlock: KUFVIS_clean_sbu_0, # of connection points: 4
#     Node 2, Type 0, BuildingBlock: KUFVIS_clean_sbu_0, # of connection points: 4
#     Node 3, Type 0, BuildingBlock: KUFVIS_clean_sbu_0, # of connection points: 4
#     Node 4, Type 0, BuildingBlock: KUFVIS_clean_sbu_0, # of connection points: 4
#     Node 5, Type 0, BuildingBlock: KUFVIS_clean_sbu_0, # of connection points: 4
#     Node 6, Type 0, BuildingBlock: KUFVIS_clean_sbu_0, # of connection points: 4
#     Node 7, Type 0, BuildingBlock: KUFVIS_clean_sbu_0, # of connection points: 4
#     Edge 8, Type (0, 0), BuildingBlock: MIFKUJ_clean_linker_0, # of connection points: 2
#     Edge 9, Type (0, 0), BuildingBlock: MIFKUJ_clean_linker_0, # of connection points: 2
#     Edge 10, Type (0, 0), BuildingBlock: MIFKUJ_clean_linker_0, # of connection points: 2
#     Edge 11, Type (0, 0), BuildingBlock: MIFKUJ_clean_linker_0, # of connection points: 2
#     Edge 12, Type (0, 0), BuildingBlock: MIFKUJ_clean_linker_0, # of connection points: 2
#     Edge 13, Type (0, 0), BuildingBlock: MIFKUJ_clean_linker_0, # of connection points: 2
#     Edge 14, Type (0, 0), BuildingBlock: MIFKUJ_clean_linker_0, # of connection points: 2
#     Edge 15, Type (0, 0), BuildingBlock: MIFKUJ_clean_linker_0, # of connection points: 2
#     Edge 16, Type (0, 0), BuildingBlock: MIFKUJ_clean_linker_0, # of connection points: 2
#     Edge 17, Type (0, 0), BuildingBlock: MIFKUJ_clean_linker_0, # of connection points: 2
#     Edge 18, Type (0, 0), BuildingBlock: MIFKUJ_clean_linker_0, # of connection points: 2
#     Edge 19, Type (0, 0), BuildingBlock: MIFKUJ_clean_linker_0, # of connection points: 2
#     Edge 20, Type (0, 0), BuildingBlock: MIFKUJ_clean_linker_0, # of connection points: 2
#     Edge 21, Type (0, 0), BuildingBlock: MIFKUJ_clean_linker_0, # of connection points: 2
#     Edge 22, Type (0, 0), BuildingBlock: MIFKUJ_clean_linker_0, # of connection points: 2
#     Edge 23, Type (0, 0), BuildingBlock: MIFKUJ_clean_linker_0, # of connection points: 2
# Relax obj value: 0.139
# Max RMSD: 0.162
# Mean RMSD: 0.162
data_MOF--net-uoj--node1-KUFVIS_clean_sbu_0--edge1-MIFKUJ_clean_linker_0
_symmetry_space_group_name_H-M    P1
_symmetry_Int_Tables_number       1
_symmetry_cell_setting            triclinic
loop_
_symmetry_equiv_pos_as_xyz
'x, y, z'
_cell_length_a     42.390373
_cell_length_b     42.34345
_cell_length_c     46.015053
_cell_angle_alpha  90.00193
_cell_angle_beta   90.027508
_cell_angle_gamma 89.977915
loop_
_atom_site_label
_atom_site_type_symbol
_atom_site_fract_x
_atom_site_fract_y
_atom_site_fract_z
_atom_type_partial_charge
Mn0 Mn 0.09055 0.30262 0.443 0.0
Mn1 Mn 0.08639 0.306 0.51641 0.0
C2 C 0.07069 0.34744 0.46439 0.0
C3 C 0.11914 0.30727 0.40006 0.0
C4 C 0.03749 0.27316 0.47931 0.0
O5 O 0.11695 0.26546 0.45566 0.0
O6 O 0.11416 0.27049 0.50409 0.0
C7 C 0.15281 0.32457 0.52654 0.0
N8 N 0.12142 0.32987 0.53051 0.0
C9 C 0.13186 0.37489 0.56091 0.0
C10 C 0.16432 0.36982 0.55731 0.0
C11 C 0.17483 0.34461 0.53996 0.0
C12 C 0.11106 0.35417 0.54696 0.0
H13 H 0.16095 0.30519 0.51325 0.0
C14 C 0.12384 0.25639 0.48119 0.0
O15 O 0.09458 0.28908 0.40188 0.0
O16 O 0.12745 0.32238 0.4234 0.0
N17 N 0.06072 0.33846 0.5329 0.0
C18 C 0.02866 0.34047 0.53359 0.0
C19 C 0.01429 0.36443 0.54996 0.0
C20 C 0.03293 0.38594 0.56562 0.0
C21 C 0.06587 0.38303 0.56502 0.0
C22 C 0.07887 0.35837 0.54866 0.0
H23 H 0.01415 0.32384 0.52184 0.0
O24 O 0.06588 0.34141 0.43712 0.0
O25 O 0.08917 0.32786 0.47845 0.0
O26 O 0.0503 0.27903 0.45477 0.0
O27 O 0.04923 0.28178 0.50363 0.0
C28 C 0.08634 0.40388 0.57966 0.0
C29 C 0.11931 0.39989 0.57751 0.0
H30 H 0.18137 0.38523 0.56761 0.0
H31 H 0.19984 0.34061 0.53699 0.0
H32 H 0.9889 0.36607 0.55071 0.0
H33 H 0.02172 0.40454 0.57804 0.0
H34 H 0.07697 0.42326 0.59238 0.0
H35 H 0.13481 0.41627 0.5886 0.0
Mn36 Mn 0.30072 0.91162 0.56997 0.0
Mn37 Mn 0.32112 0.9079 0.49897 0.0
C38 C 0.34827 0.93165 0.5552 0.0
C39 C 0.29833 0.88871 0.61593 0.0
C40 C 0.27861 0.9587 0.52317 0.0
O41 O 0.26882 0.88098 0.55375 0.0
O42 O 0.28333 0.88129 0.50683 0.0
C43 C 0.34124 0.84096 0.50084 0.0
N44 N 0.34784 0.87177 0.4949 0.0
C45 C 0.40057 0.85861 0.47979 0.0
C46 C 0.39428 0.82672 0.4856 0.0
C47 C 0.36451 0.81788 0.49624 0.0
C48 C 0.37653 0.88058 0.48501 0.0
H49 H 0.31842 0.83405 0.50908 0.0
C50 C 0.26517 0.87242 0.52748 0.0
O51 O 0.27914 0.91123 0.60847 0.0
O52 O 0.31812 0.87897 0.5964 0.0
N53 N 0.35707 0.93192 0.48688 0.0
C54 C 0.35872 0.96336 0.48073 0.0
C55 C 0.38664 0.97596 0.46909 0.0
C56 C 0.41236 0.95602 0.46334 0.0
C57 C 0.40975 0.92357 0.46887 0.0
C58 C 0.38122 0.91234 0.48025 0.0
H59 H 0.33903 0.97878 0.485 0.0
O60 O 0.33617 0.94003 0.57987 0.0
O61 O 0.33294 0.91045 0.54023 0.0
O62 O 0.27791 0.948 0.54918 0.0
O63 O 0.29452 0.94604 0.50257 0.0
C64 C 0.43426 0.9019 0.46339 0.0
C65 C 0.42974 0.86946 0.46901 0.0
H66 H 0.41214 0.80884 0.482 0.0
H67 H 0.35951 0.79333 0.50086 0.0
H68 H 0.38835 0.00099 0.46464 0.0
H69 H 0.4339 0.96585 0.4545 0.0
H70 H 0.45666 0.90991 0.45481 0.0
H71 H 0.44877 0.85303 0.46477 0.0
Mn72 Mn 0.91759 0.69325 0.43962 0.0
Mn73 Mn 0.91935 0.68998 0.51306 0.0
C74 C 0.93916 0.64968 0.46192 0.0
C75 C 0.89162 0.68627 0.39547 0.0
C76 C 0.96799 0.72507 0.47784 0.0
O77 O 0.88772 0.72817 0.45102 0.0
O78 O 0.89175 0.72513 0.49951 0.0
C79 C 0.85274 0.67056 0.52051 0.0
N80 N 0.88398 0.6657 0.52579 0.0
C81 C 0.87268 0.62063 0.55586 0.0
C82 C 0.84036 0.62527 0.55092 0.0
C83 C 0.83036 0.65028 0.53308 0.0
C84 C 0.89385 0.64158 0.54272 0.0
H85 H 0.84497 0.68977 0.50683 0.0
C86 C 0.88094 0.73791 0.47636 0.0
O87 O 0.91457 0.70634 0.39822 0.0
O88 O 0.88338 0.67066 0.41853 0.0
N89 N 0.94461 0.65786 0.53067 0.0
C90 C 0.97663 0.65603 0.53244 0.0
C91 C 0.99051 0.63227 0.5494 0.0
C92 C 0.97141 0.61071 0.56449 0.0
C93 C 0.93849 0.61328 0.56264 0.0
C94 C 0.92598 0.63778 0.54575 0.0
H95 H 0.99146 0.67253 0.52095 0.0
O96 O 0.94541 0.65635 0.43503 0.0
O97 O 0.91879 0.66802 0.4751 0.0
O98 O 0.95538 0.72002 0.45303 0.0
O99 O 0.95673 0.71454 0.50169 0.0
C100 C 0.91762 0.59224 0.5765 0.0
C101 C 0.88473 0.59583 0.57302 0.0
H102 H 0.82303 0.60966 0.56055 0.0
H103 H 0.80547 0.65394 0.52906 0.0
H104 H 0.01587 0.6308 0.55098 0.0
H105 H 0.98225 0.59226 0.57739 0.0
H106 H 0.92661 0.57299 0.58962 0.0
H107 H 0.86893 0.57928 0.58351 0.0
Mn108 Mn 0.6949 0.08438 0.54442 0.0
Mn109 Mn 0.68413 0.08746 0.47177 0.0
C110 C 0.64961 0.06426 0.52455 0.0
C111 C 0.69238 0.10748 0.59025 0.0
C112 C 0.72179 0.03608 0.5009 0.0
O113 O 0.72879 0.11475 0.53174 0.0
O114 O 0.72141 0.11309 0.48351 0.0
C115 C 0.66634 0.15511 0.47068 0.0
N116 N 0.65943 0.12442 0.46447 0.0
C117 C 0.60952 0.13911 0.44355 0.0
C118 C 0.61617 0.17087 0.44958 0.0
C119 C 0.64468 0.17889 0.46327 0.0
C120 C 0.63194 0.11643 0.4516 0.0
H121 H 0.68818 0.16143 0.48124 0.0
C122 C 0.73641 0.12252 0.50603 0.0
O123 O 0.7119 0.08461 0.58472 0.0
O124 O 0.67479 0.11728 0.56899 0.0
N125 N 0.64919 0.06446 0.45619 0.0
C126 C 0.64688 0.03287 0.45091 0.0
C127 C 0.61999 0.02103 0.43681 0.0
C128 C 0.59614 0.04186 0.42775 0.0
C129 C 0.59935 0.0743 0.43282 0.0
C130 C 0.62674 0.08475 0.4468 0.0
H131 H 0.66536 0.01684 0.45753 0.0
O132 O 0.65842 0.05626 0.5505 0.0
O133 O 0.66662 0.08558 0.5113 0.0
O134 O 0.71964 0.0476 0.52651 0.0
O135 O 0.70884 0.04855 0.47851 0.0
C136 C 0.57651 0.09668 0.42439 0.0
C137 C 0.58152 0.12906 0.42988 0.0
H138 H 0.59955 0.18929 0.44383 0.0
H139 H 0.64996 0.20334 0.46809 0.0
H140 H 0.6178 0.99596 0.43274 0.0
H141 H 0.57563 0.0329 0.41651 0.0
H142 H 0.555 0.08923 0.41368 0.0
H143 H 0.56375 0.14605 0.42339 0.0
Mn144 Mn 0.41154 0.8089 0.95168 0.0
Mn145 Mn 0.40704 0.81286 0.02488 0.0
C146 C 0.43066 0.8527 0.97529 0.0
C147 C 0.3879 0.81472 0.90631 0.0
C148 C 0.45877 0.77763 0.9935 0.0
O149 O 0.382 0.77304 0.96153 0.0
O150 O 0.38032 0.77774 0.01004 0.0
C151 C 0.34023 0.83307 0.027 0.0
N152 N 0.37108 0.83827 0.03379 0.0
C153 C 0.35813 0.88644 0.05877 0.0
C154 C 0.3262 0.88155 0.05217 0.0
C155 C 0.31724 0.8548 0.0361 0.0
C156 C 0.38002 0.86421 0.04875 0.0
H157 H 0.33323 0.8125 0.01472 0.0
C158 C 0.37243 0.76405 0.98634 0.0
O159 O 0.41152 0.79564 0.91021 0.0
O160 O 0.37796 0.83028 0.92882 0.0
N161 N 0.43123 0.84529 0.04324 0.0
C162 C 0.46269 0.84543 0.04937 0.0
C163 C 0.47547 0.8703 0.06575 0.0
C164 C 0.45564 0.89418 0.07642 0.0
C165 C 0.42316 0.89294 0.07072 0.0
C166 C 0.41182 0.86771 0.05409 0.0
H167 H 0.47795 0.82679 0.04168 0.0
O168 O 0.43866 0.84676 0.94865 0.0
O169 O 0.40981 0.83388 0.98693 0.0
O170 O 0.4489 0.78348 0.96777 0.0
O171 O 0.44493 0.78733 0.01656 0.0
C172 C 0.40147 0.9153 0.08146 0.0
C173 C 0.36904 0.91228 0.0752 0.0
H174 H 0.30837 0.89812 0.05937 0.0
H175 H 0.29266 0.85087 0.03087 0.0
H176 H 0.50049 0.87088 0.07038 0.0
H177 H 0.46557 0.913 0.08942 0.0
H178 H 0.40935 0.93463 0.09493 0.0
H179 H 0.35265 0.9297 0.08352 0.0
Mn180 Mn 0.80035 0.57906 0.05966 0.0
Mn181 Mn 0.80814 0.58883 0.98713 0.0
C182 C 0.84582 0.56279 0.03712 0.0
C183 C 0.80338 0.59902 0.10673 0.0
C184 C 0.77339 0.53371 0.01372 0.0
O185 O 0.76431 0.60847 0.04997 0.0
O186 O 0.77113 0.61291 0.00183 0.0
C187 C 0.82509 0.65659 0.99009 0.0
N188 N 0.83205 0.6266 0.98149 0.0
C189 C 0.88061 0.64367 0.95951 0.0
C190 C 0.87389 0.67477 0.96798 0.0
C191 C 0.84604 0.68123 0.98341 0.0
C192 C 0.85894 0.62008 0.96695 0.0
H193 H 0.80375 0.66169 0.00199 0.0
C194 C 0.75618 0.61915 0.02527 0.0
O195 O 0.78501 0.57547 0.10039 0.0
O196 O 0.8196 0.61122 0.08562 0.0
N197 N 0.84266 0.56761 0.96886 0.0
C198 C 0.84518 0.53653 0.96152 0.0
C199 C 0.87144 0.52624 0.94553 0.0
C200 C 0.89446 0.54812 0.93677 0.0
C201 C 0.89106 0.58003 0.94408 0.0
C202 C 0.86429 0.58893 0.95985 0.0
H203 H 0.8273 0.51972 0.96787 0.0
O204 O 0.83855 0.55257 0.06281 0.0
O205 O 0.82722 0.58414 0.02586 0.0
O206 O 0.77695 0.54237 0.04014 0.0
O207 O 0.78415 0.54917 0.99195 0.0
C208 C 0.91313 0.60337 0.93617 0.0
C209 C 0.90799 0.63516 0.94403 0.0
H210 H 0.88995 0.69384 0.9628 0.0
H211 H 0.84072 0.70514 0.99011 0.0
H212 H 0.87378 0.50158 0.93976 0.0
H213 H 0.91445 0.54038 0.92407 0.0
H214 H 0.93415 0.59712 0.92409 0.0
H215 H 0.92518 0.65289 0.93794 0.0
Mn216 Mn 0.57722 0.1977 0.92277 0.0
Mn217 Mn 0.57968 0.18893 0.99573 0.0
C218 C 0.55879 0.15183 0.94326 0.0
C219 C 0.60244 0.19463 0.87797 0.0
C220 C 0.52969 0.22737 0.96456 0.0
O221 O 0.60577 0.23322 0.93586 0.0
O222 O 0.60931 0.22303 0.98371 0.0
C223 C 0.64481 0.16423 1.00018 0.0
N224 N 0.61338 0.16087 0.00542 0.0
C225 C 0.6217 0.11082 0.02896 0.0
C226 C 0.6542 0.11382 0.02399 0.0
C227 C 0.66579 0.14061 0.00947 0.0
C228 C 0.60196 0.1351 0.01917 0.0
H229 H 0.65377 0.18474 0.98894 0.0
C230 C 0.61663 0.23908 0.96109 0.0
O231 O 0.57853 0.21333 0.882 0.0
O232 O 0.61196 0.17822 0.90011 0.0
N233 N 0.55238 0.15704 0.01109 0.0
C234 C 0.5204 0.15777 0.01418 0.0
C235 C 0.50505 0.13273 0.02833 0.0
C236 C 0.52275 0.10745 0.03952 0.0
C237 C 0.55568 0.10755 0.03664 0.0
C238 C 0.56969 0.13329 0.02256 0.0
H239 H 0.50666 0.17722 0.00582 0.0
O240 O 0.55099 0.15941 0.91692 0.0
O241 O 0.57843 0.17063 0.95651 0.0
O242 O 0.53893 0.22153 0.93869 0.0
O243 O 0.54383 0.21722 0.98727 0.0
C244 C 0.57513 0.08299 0.04695 0.0
C245 C 0.6081 0.08456 0.043 0.0
H246 H 0.67046 0.09564 0.03109 0.0
H247 H 0.69082 0.14303 0.00544 0.0
H248 H 0.47964 0.13291 0.0306 0.0
H249 H 0.51083 0.08813 0.05033 0.0
H250 H 0.56494 0.06267 0.05773 0.0
H251 H 0.62278 0.06541 0.0508 0.0
Mn252 Mn 0.19808 0.41657 0.0669 0.0
Mn253 Mn 0.17843 0.41316 0.99567 0.0
C254 C 0.1504 0.4362 0.05196 0.0
C255 C 0.20131 0.39316 0.11254 0.0
C256 C 0.22054 0.46394 0.02069 0.0
O257 O 0.23043 0.38648 0.05049 0.0
O258 O 0.21543 0.38546 0.0037 0.0
C259 C 0.15656 0.34678 0.99672 0.0
N260 N 0.15082 0.37783 0.99106 0.0
C261 C 0.0977 0.36637 0.9759 0.0
C262 C 0.10311 0.33425 0.9814 0.0
C263 C 0.13264 0.32443 0.99192 0.0
C264 C 0.12237 0.38757 0.98125 0.0
H265 H 0.17918 0.33915 0.00492 0.0
C266 C 0.23369 0.37697 0.02446 0.0
O267 O 0.21985 0.41623 0.1052 0.0
O268 O 0.18138 0.38331 0.09312 0.0
N269 N 0.14325 0.43831 0.98361 0.0
C270 C 0.14248 0.46988 0.97781 0.0
C271 C 0.1148 0.48344 0.96656 0.0
C272 C 0.08846 0.46434 0.96079 0.0
C273 C 0.09025 0.43172 0.96578 0.0
C274 C 0.11855 0.41952 0.97682 0.0
H275 H 0.16273 0.48466 0.98199 0.0
O276 O 0.1621 0.44429 0.0769 0.0
O277 O 0.16617 0.4154 0.03689 0.0
O278 O 0.22015 0.45359 0.04678 0.0
O279 O 0.20593 0.45062 0.99963 0.0
C280 C 0.06512 0.41083 0.96016 0.0
C281 C 0.06878 0.3782 0.96537 0.0
H282 H 0.08474 0.31693 0.97767 0.0
H283 H 0.13696 0.2997 0.99631 0.0
H284 H 0.11375 0.50858 0.96242 0.0
H285 H 0.06707 0.47492 0.95233 0.0
H286 H 0.04288 0.4196 0.95183 0.0
H287 H 0.04926 0.36237 0.96105 0.0
H288 H 0.16621 0.34409 0.13323 0.0
H289 H 0.16171 0.32637 0.18359 0.0
H290 H 0.23178 0.39465 0.20951 0.0
H291 H 0.23626 0.41272 0.15915 0.0
H292 H 0.2025 0.3024 0.22463 0.0
H293 H 0.20679 0.42693 0.27419 0.0
H294 H 0.19698 0.4823 0.25999 0.0
H295 H 0.1299 0.45158 0.19601 0.0
H296 H 0.139 0.39612 0.2101 0.0
H297 H 0.16871 0.34672 0.3887 0.0
H298 H 0.19285 0.35763 0.34142 0.0
H299 H 0.13067 0.28986 0.30115 0.0
H300 H 0.10679 0.27856 0.34824 0.0
H301 H 0.16415 0.3823 0.29516 0.0
H302 H 0.16481 0.25757 0.24193 0.0
H303 H 0.17353 0.20216 0.25635 0.0
H304 H 0.22977 0.23266 0.32873 0.0
H305 H 0.22179 0.28822 0.31452 0.0
C306 C 0.18095 0.35509 0.14957 0.0
C307 C 0.20135 0.38003 0.14229 0.0
C308 C 0.17846 0.34483 0.17832 0.0
C309 C 0.19614 0.35944 0.2003 0.0
C310 C 0.21766 0.38331 0.19289 0.0
C311 C 0.22023 0.39356 0.16411 0.0
C312 C 0.19021 0.35122 0.23111 0.0
C313 C 0.194 0.31978 0.24008 0.0
C314 C 0.17987 0.37412 0.25139 0.0
C315 C 0.17391 0.40739 0.24295 0.0
C316 C 0.18991 0.43203 0.25714 0.0
C317 C 0.18447 0.46341 0.24911 0.0
C318 C 0.16293 0.47044 0.22703 0.0
C319 C 0.14668 0.4461 0.21302 0.0
C320 C 0.152 0.41469 0.22099 0.0
C321 C 0.16052 0.3338 0.36983 0.0
C322 C 0.13578 0.31185 0.37216 0.0
C323 C 0.1743 0.3401 0.34284 0.0
C324 C 0.16375 0.32439 0.31779 0.0
C325 C 0.1396 0.30187 0.32024 0.0
C326 C 0.12582 0.29558 0.34717 0.0
C327 C 0.176 0.33329 0.28873 0.0
C328 C 0.17326 0.36492 0.27999 0.0
C329 C 0.18724 0.31052 0.26872 0.0
C330 C 0.19247 0.27711 0.27726 0.0
C331 C 0.17917 0.25246 0.26084 0.0
C332 C 0.18396 0.22102 0.269 0.0
C333 C 0.20212 0.21389 0.29348 0.0
C334 C 0.21561 0.23821 0.30982 0.0
C335 C 0.21091 0.26969 0.30175 0.0
H336 H 0.20578 0.18954 0.29977 0.0
H337 H 0.15878 0.49474 0.22083 0.0
H338 H 0.33666 0.84237 0.63692 0.0
H339 H 0.34372 0.82645 0.68739 0.0
H340 H 0.27032 0.89106 0.71361 0.0
H341 H 0.26347 0.90757 0.66296 0.0
H342 H 0.32186 0.89886 0.74573 0.0
H343 H 0.2594 0.81055 0.71724 0.0
H344 H 0.24332 0.76548 0.68672 0.0
H345 H 0.33207 0.71992 0.70313 0.0
H346 H 0.34888 0.76492 0.73343 0.0
H347 H 0.33625 0.85034 0.89261 0.0
H348 H 0.31365 0.85948 0.84445 0.0
H349 H 0.38417 0.79868 0.80647 0.0
H350 H 0.40651 0.78892 0.85466 0.0
H351 H 0.32744 0.78867 0.78201 0.0
H352 H 0.3919 0.87924 0.80526 0.0
H353 H 0.40899 0.92451 0.83509 0.0
H354 H 0.31681 0.96582 0.82768 0.0
H355 H 0.29906 0.92055 0.7981 0.0
C356 C 0.32165 0.85287 0.65333 0.0
C357 C 0.29957 0.87632 0.64596 0.0
C358 C 0.3256 0.84359 0.6822 0.0
C359 C 0.30738 0.85736 0.7043 0.0
C360 C 0.2846 0.88008 0.69689 0.0
C361 C 0.28064 0.88942 0.66795 0.0
C362 C 0.31411 0.84989 0.73521 0.0
C363 C 0.32237 0.8748 0.75383 0.0
C364 C 0.31555 0.81844 0.74559 0.0
C365 C 0.30548 0.79124 0.72746 0.0
C366 C 0.27559 0.79103 0.71418 0.0
C367 C 0.26632 0.76547 0.69694 0.0
C368 C 0.28668 0.73988 0.69295 0.0
C369 C 0.31632 0.73976 0.70624 0.0
C370 C 0.32572 0.76527 0.72348 0.0
C371 C 0.34685 0.83877 0.87403 0.0
C372 C 0.37333 0.8191 0.87739 0.0
C373 C 0.33393 0.84408 0.84651 0.0
C374 C 0.34748 0.83011 0.82181 0.0
C375 C 0.37335 0.80972 0.82523 0.0
C376 C 0.38617 0.80427 0.85276 0.0
C377 C 0.33553 0.83761 0.79228 0.0
C378 C 0.3264 0.81273 0.77396 0.0
C379 C 0.33337 0.86908 0.78209 0.0
C380 C 0.34406 0.89635 0.79976 0.0
C381 C 0.37522 0.89786 0.81018 0.0
C382 C 0.38503 0.92353 0.82701 0.0
C383 C 0.36397 0.94797 0.83335 0.0
C384 C 0.33308 0.94684 0.8228 0.0
C385 C 0.32313 0.92119 0.80599 0.0
H386 H 0.37162 0.96783 0.84638 0.0
H387 H 0.27946 0.72011 0.6796 0.0
H388 H 0.90258 0.71685 0.3442 0.0
H389 H 0.88094 0.7041 0.29638 0.0
H390 H 0.82537 0.62941 0.33433 0.0
H391 H 0.84709 0.64189 0.38226 0.0
H392 H 0.85772 0.6093 0.28731 0.0
H393 H 0.78997 0.69582 0.31024 0.0
H394 H 0.77648 0.74981 0.32598 0.0
H395 H 0.82762 0.78814 0.2536 0.0
H396 H 0.84183 0.73437 0.23764 0.0
H397 H 0.77723 0.57443 0.15609 0.0
H398 H 0.78628 0.59144 0.20625 0.0
H399 H 0.84645 0.66653 0.17568 0.0
H400 H 0.83743 0.64979 0.1255 0.0
H401 H 0.80743 0.68598 0.22016 0.0
H402 H 0.87883 0.6003 0.19994 0.0
H403 H 0.89336 0.54656 0.18421 0.0
H404 H 0.83592 0.50705 0.2519 0.0
H405 H 0.82069 0.56061 0.26778 0.0
C406 C 0.8855 0.69793 0.34243 0.0
C407 C 0.8766 0.68032 0.36699 0.0
C408 C 0.87303 0.69077 0.3151 0.0
C409 C 0.85138 0.66593 0.31182 0.0
C410 C 0.84202 0.64869 0.33639 0.0
C411 C 0.85439 0.65591 0.36376 0.0
C412 C 0.84011 0.65675 0.2825 0.0
C413 C 0.84614 0.6259 0.27284 0.0
C414 C 0.82572 0.67864 0.26339 0.0
C415 C 0.8172 0.71104 0.27289 0.0
C416 C 0.79857 0.71576 0.29781 0.0
C417 C 0.79075 0.74633 0.30675 0.0
C418 C 0.80125 0.77239 0.29084 0.0
C419 C 0.81953 0.76793 0.26592 0.0
C420 C 0.82745 0.7374 0.2569 0.0
C421 C 0.79215 0.59475 0.16003 0.0
C422 C 0.8068 0.61064 0.13686 0.0
C423 C 0.79735 0.60438 0.18869 0.0
C424 C 0.8173 0.63004 0.19467 0.0
C425 C 0.83099 0.64667 0.17153 0.0
C426 C 0.82591 0.63698 0.14288 0.0
C427 C 0.82518 0.63862 0.22505 0.0
C428 C 0.81864 0.66933 0.23482 0.0
C429 C 0.83919 0.61665 0.2443 0.0
C430 C 0.84833 0.58444 0.23482 0.0
C431 C 0.86908 0.58015 0.2113 0.0
C432 C 0.87748 0.54972 0.2024 0.0
C433 C 0.86549 0.5234 0.21699 0.0
C434 C 0.84514 0.52746 0.24058 0.0
C435 C 0.83662 0.55784 0.24955 0.0
H436 H 0.87204 0.49987 0.21007 0.0
H437 H 0.79516 0.79604 0.29779 0.0
H438 H 0.5839 0.22092 0.82642 0.0
H439 H 0.60499 0.20968 0.778 0.0
H440 H 0.67539 0.14865 0.81587 0.0
H441 H 0.65414 0.1593 0.86422 0.0
H442 H 0.66185 0.21646 0.75118 0.0
H443 H 0.684 0.08405 0.77274 0.0
H444 H 0.66463 0.04158 0.80484 0.0
H445 H 0.5751 0.08836 0.81213 0.0
H446 H 0.59377 0.13083 0.77975 0.0
H447 H 0.72393 0.08986 0.63948 0.0
H448 H 0.71513 0.10889 0.68904 0.0
H449 H 0.64392 0.17316 0.6575 0.0
H450 H 0.65285 0.15458 0.60795 0.0
H451 H 0.66187 0.10426 0.72002 0.0
H452 H 0.64062 0.23808 0.701 0.0
H453 H 0.65921 0.28049 0.66849 0.0
H454 H 0.74627 0.23076 0.65504 0.0
H455 H 0.72843 0.18829 0.68779 0.0
C456 C 0.60407 0.20536 0.82445 0.0
C457 C 0.61713 0.19071 0.84908 0.0
C458 C 0.61615 0.19905 0.79679 0.0
C459 C 0.64143 0.17797 0.79332 0.0
C460 C 0.65552 0.16458 0.81803 0.0
C461 C 0.64338 0.17075 0.84565 0.0
C462 C 0.65183 0.16854 0.76381 0.0
C463 C 0.66164 0.19198 0.74424 0.0
C464 C 0.65215 0.1365 0.75501 0.0
C465 C 0.64044 0.11079 0.77409 0.0
C466 C 0.66015 0.0852 0.78111 0.0
C467 C 0.64929 0.06114 0.79936 0.0
C468 C 0.61869 0.06234 0.8106 0.0
C469 C 0.59883 0.08752 0.8035 0.0
C470 C 0.60955 0.11161 0.78522 0.0
C471 C 0.7067 0.10834 0.64306 0.0
C472 C 0.68904 0.12069 0.61982 0.0
C473 C 0.70165 0.11913 0.67139 0.0
C474 C 0.67903 0.14258 0.67696 0.0
C475 C 0.66186 0.15541 0.65368 0.0
C476 C 0.66688 0.14464 0.62537 0.0
C477 C 0.67186 0.15218 0.70724 0.0
C478 C 0.66249 0.12874 0.72698 0.0
C479 C 0.67186 0.18421 0.71609 0.0
C480 C 0.68302 0.20985 0.69666 0.0
C481 C 0.66379 0.23626 0.69121 0.0
C482 C 0.67419 0.2603 0.67272 0.0
C483 C 0.70386 0.25827 0.65964 0.0
C484 C 0.72325 0.23224 0.6651 0.0
C485 C 0.71298 0.20816 0.68359 0.0
H486 H 0.71185 0.27689 0.64531 0.0
H487 H 0.61034 0.04371 0.82474 0.0
H488 H 0.23001 0.98485 0.55415 0.0
H489 H 0.20344 0.03532 0.54491 0.0
H490 H 0.26184 0.05012 0.4695 0.0
H491 H 0.28767 -0.00063 0.47777 0.0
H492 H 0.25741 0.10212 0.51697 0.0
H493 H 0.19903 0.0352 0.45066 0.0
H494 H 0.16684 0.98897 0.43717 0.0
H495 H 0.09579 0.0168 0.49852 0.0
H496 H 0.12787 0.06292 0.51276 0.0
H497 H 0.13925 0.21361 0.43901 0.0
H498 H 0.16641 0.16323 0.44507 0.0
H499 H 0.17742 0.18171 0.53667 0.0
H500 H 0.15022 0.23231 0.53093 0.0
H501 H 0.14806 0.11278 0.47964 0.0
H502 H 0.24907 0.14827 0.55687 0.0
H503 H 0.28137 0.19499 0.56873 0.0
H504 H 0.26832 0.23058 0.48217 0.0
H505 H 0.23632 0.18387 0.46969 0.0
C506 C 0.23706 0.99873 0.53548 0.0
C507 C 0.26118 0.98819 0.51685 0.0
C508 C 0.22185 0.02747 0.53026 0.0
C509 C 0.23092 0.0463 0.50665 0.0
C510 C 0.25471 0.03583 0.48789 0.0
C511 C 0.2694 0.0068 0.49268 0.0
C512 C 0.21615 0.07739 0.50193 0.0
C513 C 0.23348 0.10454 0.50887 0.0
C514 C 0.18509 0.08028 0.49119 0.0
C515 C 0.16603 0.05229 0.48303 0.0
C516 C 0.17675 0.03124 0.46156 0.0
C517 C 0.15846 0.00513 0.45368 0.0
C518 C 0.12928 -1e-05 0.46695 0.0
C519 C 0.11838 0.02086 0.48822 0.0
C520 C 0.13661 0.04697 0.49622 0.0
C521 C 0.14768 0.20719 0.46044 0.0
C522 C 0.14248 0.22703 0.48452 0.0
C523 C 0.16303 0.17828 0.46385 0.0
C524 C 0.17385 0.1688 0.49128 0.0
C525 C 0.16935 0.18874 0.51528 0.0
C526 C 0.15377 0.2176 0.51195 0.0
C527 C 0.18924 0.13769 0.4948 0.0
C528 C 0.17197 0.11046 0.48781 0.0
C529 C 0.22044 0.13475 0.50537 0.0
C530 C 0.24003 0.16273 0.51247 0.0
C531 C 0.2532 0.16601 0.54035 0.0
C532 C 0.27144 0.1925 0.54718 0.0
C533 C 0.2768 0.21579 0.52625 0.0
C534 C 0.26404 0.21258 0.4984 0.0
C535 C 0.24581 0.18613 0.49145 0.0
H536 H 0.2909 0.23629 0.53159 0.0
H537 H 0.11511 0.97981 0.46076 0.0
H538 H 0.25279 0.84127 0.47651 0.0
H539 H 0.2032 0.81596 0.46223 0.0
H540 H 0.1641 0.83609 0.5467 0.0
H541 H 0.2134 0.86124 0.56129 0.0
H542 H 0.16723 0.76511 0.48844 0.0
H543 H 0.08956 0.86511 0.53377 0.0
H544 H 0.09434 0.92185 0.54508 0.0
H545 H 0.16348 0.93244 0.47764 0.0
H546 H 0.15868 0.8759 0.46554 0.0
H547 H 0.00928 0.72758 0.52327 0.0
H548 H 0.06092 0.75266 0.52463 0.0
H549 H 0.0472 0.7878 0.43765 0.0
H550 H 0.99544 0.76182 0.43556 0.0
H551 H 0.07155 0.83285 0.48712 0.0
H552 H 0.0906 0.73513 0.43601 0.0
H553 H 0.0863 0.67755 0.42913 0.0
H554 H 0.1352 0.66208 0.50962 0.0
H555 H 0.13894 0.71951 0.51741 0.0
C556 C 0.23378 0.83998 0.49218 0.0
C557 C 0.23698 0.8535 0.51998 0.0
C558 C 0.20553 0.82547 0.48398 0.0
C559 C 0.18 0.82465 0.50329 0.0
C560 C 0.18353 0.83687 0.53142 0.0
C561 C 0.21179 0.85108 0.53974 0.0
C562 C 0.14911 0.81223 0.49385 0.0
C563 C 0.14635 0.77992 0.48781 0.0
C564 C 0.12203 0.83178 0.49289 0.0
C565 C 0.12392 0.86618 0.49892 0.0
C566 C 0.10556 0.8796 0.52117 0.0
C567 C 0.10831 0.91172 0.52775 0.0
C568 C 0.1293 0.9307 0.51218 0.0
C569 C 0.14733 0.91768 0.48976 0.0
C570 C 0.14459 0.8856 0.48303 0.0
C571 C 0.01703 0.74064 0.50435 0.0
C572 C 0.99826 0.74244 0.47917 0.0
C573 C 0.04659 0.75494 0.50523 0.0
C574 C 0.05777 0.77178 0.48119 0.0
C575 C 0.03883 0.77473 0.45635 0.0
C576 C 0.00937 0.75984 0.4552 0.0
C577 C 0.08963 0.78564 0.48227 0.0
C578 C 0.09254 0.81819 0.48702 0.0
C579 C 0.11683 0.76629 0.48218 0.0
C580 C 0.11478 0.73167 0.47742 0.0
C581 C 0.10008 0.71945 0.45242 0.0
C582 C 0.09775 0.68681 0.44836 0.0
C583 C 0.11032 0.66613 0.469 0.0
C584 C 0.12531 0.67806 0.49372 0.0
C585 C 0.12754 0.71067 0.49797 0.0
H586 H 0.10855 0.64088 0.46577 0.0
H587 H 0.1316 0.95548 0.51752 0.0
H588 H 0.75317 0.00226 0.54256 0.0
H589 H 0.77927 0.95135 0.53718 0.0
H590 H 0.75595 0.9503 0.44593 0.0
H591 H 0.72923 0.00115 0.45111 0.0
H592 H 0.74343 0.89418 0.47113 0.0
H593 H 0.83058 0.96569 0.46774 0.0
H594 H 0.86422 0.00965 0.48426 0.0
H595 H 0.8839 0.9601 0.56364 0.0
H596 H 0.84999 0.916 0.54777 0.0
H597 H 0.84936 0.76941 0.43321 0.0
H598 H 0.82065 0.81922 0.43722 0.0
H599 H 0.83883 0.82127 0.52943 0.0
H600 H 0.86772 0.77153 0.52572 0.0
H601 H 0.85411 0.87698 0.5025 0.0
H602 H 0.7663 0.80542 0.50534 0.0
H603 H 0.73298 0.76156 0.48805 0.0
H604 H 0.71522 0.81141 0.40844 0.0
H605 H 0.74883 0.85541 0.4251 0.0
C606 C 0.75368 0.99139 0.52126 0.0
C607 C 0.73912 0.00594 0.49724 0.0
C608 C 0.76873 0.96228 0.51823 0.0
C609 C 0.7698 0.9472 0.49111 0.0
C610 C 0.7554 0.96159 0.46706 0.0
C611 C 0.74028 0.99074 0.47005 0.0
C612 C 0.78545 0.91609 0.48809 0.0
C613 C 0.76778 0.8905 0.47756 0.0
C614 C 0.81701 0.91121 0.49708 0.0
C615 C 0.83749 0.93766 0.50667 0.0
C616 C 0.84187 0.96427 0.48882 0.0
C617 C 0.86102 0.9892 0.49805 0.0
C618 C 0.87612 0.98771 0.52501 0.0
C619 C 0.87215 0.96124 0.54277 0.0
C620 C 0.85299 0.93625 0.53366 0.0
C621 C 0.84702 0.78024 0.45443 0.0
C622 C 0.861 0.76649 0.47913 0.0
C623 C 0.8305 0.80867 0.45667 0.0
C624 C 0.8276 0.82386 0.48363 0.0
C625 C 0.84089 0.80991 0.50842 0.0
C626 C 0.85728 0.7814 0.50625 0.0
C627 C 0.81202 0.85506 0.48574 0.0
C628 C 0.82976 0.88068 0.49604 0.0
C629 C 0.78061 0.85997 0.47641 0.0
C630 C 0.76035 0.83357 0.46635 0.0
C631 C 0.75552 0.80691 0.48404 0.0
C632 C 0.73653 0.78205 0.47437 0.0
C633 C 0.72206 0.78366 0.44713 0.0
C634 C 0.72648 0.81018 0.42952 0.0
C635 C 0.74548 0.8351 0.43908 0.0
H636 H 0.70736 0.76439 0.43968 0.0
H637 H 0.89095 0.00703 0.53212 0.0
H638 H 0.77918 0.14093 0.54719 0.0
H639 H 0.82824 0.16968 0.53968 0.0
H640 H 0.80743 0.17781 0.4482 0.0
H641 H 0.75841 0.14846 0.45536 0.0
H642 H 0.86647 0.15818 0.45659 0.0
H643 H 0.80242 0.2421 0.49337 0.0
H644 H 0.76565 0.26792 0.52742 0.0
H645 H 0.83323 0.2582 0.59638 0.0
H646 H 0.87026 0.23192 0.56284 0.0
H647 H 0.99783 0.26128 0.43346 0.0
H648 H 0.945 0.23826 0.43536 0.0
H649 H 0.95431 0.22554 0.528 0.0
H650 H 0.00671 0.24905 0.52647 0.0
H651 H 0.8989 0.251 0.51519 0.0
H652 H 0.96076 0.16327 0.47977 0.0
H653 H 0.99746 0.13647 0.44627 0.0
H654 H 0.93386 0.15298 0.37521 0.0
H655 H 0.89695 0.18024 0.40824 0.0
C656 C 0.78478 0.14909 0.52549 0.0
C657 C 0.76484 0.14229 0.50186 0.0
C658 C 0.81283 0.16566 0.52126 0.0
C659 C 0.82134 0.17615 0.49342 0.0
C660 C 0.80127 0.16993 0.46986 0.0
C661 C 0.77324 0.1532 0.47403 0.0
C662 C 0.85198 0.19216 0.48881 0.0
C663 C 0.87336 0.17885 0.469 0.0
C664 C 0.86115 0.21873 0.50543 0.0
C665 C 0.83904 0.23482 0.52561 0.0
C666 C 0.80937 0.24528 0.51584 0.0
C667 C 0.78849 0.26003 0.53504 0.0
C668 C 0.79708 0.26464 0.56405 0.0
C669 C 0.82661 0.2546 0.5739 0.0
C670 C 0.84757 0.23982 0.55479 0.0
C671 C 0.98878 0.2533 0.4542 0.0
C672 C 0.00656 0.25699 0.47981 0.0
C673 C 0.95857 0.24014 0.45524 0.0
C674 C 0.9458 0.23005 0.48181 0.0
C675 C 0.96367 0.2333 0.50729 0.0
C676 C 0.9937 0.24663 0.50632 0.0
C677 C 0.91358 0.21666 0.48338 0.0
C678 C 0.89188 0.23051 0.50258 0.0
C679 C 0.90415 0.19057 0.46625 0.0
C680 C 0.92627 0.17409 0.44641 0.0
C681 C 0.95472 0.1614 0.45696 0.0
C682 C 0.97554 0.14609 0.43807 0.0
C683 C 0.96804 0.14311 0.40862 0.0
C684 C 0.93966 0.15535 0.39802 0.0
C685 C 0.91878 0.17071 0.41681 0.0
H686 H 0.98418 0.13125 0.39403 0.0
H687 H 0.78087 0.27603 0.5789 0.0
H688 H 0.22857 0.49405 0.96836 0.0
H689 H 0.25272 0.54564 0.95983 0.0
H690 H 0.2741 0.55373 0.05116 0.0
H691 H 0.25 0.50238 0.06003 0.0
H692 H 0.24531 0.60682 0.02919 0.0
H693 H 0.33136 0.53724 0.00371 0.0
H694 H 0.35663 0.49364 0.97684 0.0
H695 H 0.33839 0.54113 0.89612 0.0
H696 H 0.31262 0.58484 0.92249 0.0
H697 H 0.3541 0.73211 0.03516 0.0
H698 H 0.32582 0.68217 0.03781 0.0
H699 H 0.31744 0.68056 0.94437 0.0
H700 H 0.34649 0.7303 0.9414 0.0
H701 H 0.33634 0.62497 0.96357 0.0
H702 H 0.25325 0.69589 0.98816 0.0
H703 H 0.22737 0.73972 0.01414 0.0
H704 H 0.23818 0.69024 0.09498 0.0
H705 H 0.26455 0.64628 0.06955 0.0
C706 C 0.23864 0.50663 0.98663 0.0
C707 C 0.23729 0.494 0.01491 0.0
C708 C 0.25246 0.5361 0.98168 0.0
C709 C 0.26519 0.55342 0.00488 0.0
C710 C 0.26429 0.54074 0.033 0.0
C711 C 0.25062 0.51128 0.03797 0.0
C712 C 0.27875 0.5852 1.00013 0.0
C713 C 0.26542 0.61081 0.01507 0.0
C714 C 0.30423 0.59041 0.98091 0.0
C715 C 0.31976 0.56415 0.96506 0.0
C716 C 0.33248 0.53825 0.98021 0.0
C717 C 0.34694 0.51354 0.96508 0.0
C718 C 0.34903 0.51458 0.93479 0.0
C719 C 0.33671 0.54034 0.91958 0.0
C720 C 0.3222 0.5651 0.93461 0.0
C721 C 0.34598 0.7214 0.01514 0.0
C722 C 0.35264 0.73527 0.98805 0.0
C723 C 0.32968 0.69284 0.01671 0.0
C724 C 0.31923 0.67776 0.9913 0.0
C725 C 0.3253 0.69179 0.96425 0.0
C726 C 0.34182 0.72029 0.96262 0.0
C727 C 0.30326 0.64666 0.99305 0.0
C728 C 0.31606 0.62114 0.97751 0.0
C729 C 0.27711 0.64154 0.01157 0.0
C730 C 0.26111 0.66788 0.02695 0.0
C731 C 0.25032 0.69444 0.01151 0.0
C732 C 0.23552 0.7193 0.02614 0.0
C733 C 0.23119 0.71779 0.0562 0.0
C734 C 0.24157 0.69138 0.07169 0.0
C735 C 0.25641 0.66647 0.05718 0.0
H736 H 0.21973 0.73707 0.06748 0.0
H737 H 0.36031 0.49548 0.92311 0.0
H738 H 0.71292 0.6312 0.06809 0.0
H739 H 0.66293 0.65943 0.06342 0.0
H740 H 0.6834 0.67896 0.9734 0.0
H741 H 0.73358 0.65101 0.97782 0.0
H742 H 0.65761 0.73022 0.00136 0.0
H743 H 0.63552 0.61973 0.98962 0.0
H744 H 0.63653 0.56347 0.00331 0.0
H745 H 0.58528 0.58448 0.08144 0.0
H746 H 0.58438 0.64101 0.06841 0.0
H747 H 0.50301 0.76476 0.95183 0.0
H748 H 0.55389 0.73855 0.95839 0.0
H749 H 0.53326 0.72436 0.0492 0.0
H750 H 0.48234 0.75062 0.04299 0.0
H751 H 0.55906 0.67091 0.0217 0.0
H752 H 0.57993 0.78161 0.03227 0.0
H753 H 0.57819 0.83757 0.01758 0.0
H754 H 0.63143 0.81591 0.94075 0.0
H755 H 0.63297 0.75966 0.95472 0.0
C756 C 0.707 0.64174 0.04734 0.0
C757 C 0.72718 0.63855 0.02324 0.0
C758 C 0.67835 0.65777 0.04471 0.0
C759 C 0.66933 0.67087 0.01796 0.0
C760 C 0.68992 0.6689 0.9942 0.0
C761 C 0.71854 0.65279 0.99677 0.0
C762 C 0.63787 0.68557 0.01445 0.0
C763 C 0.63605 0.71718 0.00549 0.0
C764 C 0.60981 0.66864 0.02035 0.0
C765 C 0.61018 0.63465 0.02819 0.0
C766 C 0.62469 0.61239 0.00984 0.0
C767 C 0.6252 0.58044 0.01746 0.0
C768 C 0.61104 0.5704 0.04327 0.0
C769 C 0.59628 0.5923 0.06148 0.0
C770 C 0.59574 0.62429 0.05398 0.0
C771 C 0.50912 0.75584 0.97316 0.0
C772 C 0.48862 0.75989 0.99691 0.0
C773 C 0.53826 0.74101 0.97687 0.0
C774 C 0.54735 0.72983 0.00432 0.0
C775 C 0.52662 0.73292 0.02787 0.0
C776 C 0.49759 0.74801 0.02426 0.0
C777 C 0.57883 0.71551 0.00858 0.0
C778 C 0.58063 0.68397 0.01766 0.0
C779 C 0.60685 0.73248 0.0027 0.0
C780 C 0.60628 0.76635 0.9944 0.0
C781 C 0.59104 0.78872 0.01211 0.0
C782 C 0.59012 0.82051 0.00394 0.0
C783 C 0.60463 0.83028 0.97821 0.0
C784 C 0.62016 0.80829 0.96065 0.0
C785 C 0.62107 0.77646 0.96869 0.0
H786 H 0.60389 0.8549 0.97191 0.0
H787 H 0.61144 0.54566 0.04916 0.0
H788 H 0.74979 0.51216 0.962 0.0
H789 H 0.72462 0.46124 0.95247 0.0
H790 H 0.73547 0.4356 0.04261 0.0
H791 H 0.76049 0.48648 0.05248 0.0
H792 H 0.75463 0.38806 0.00361 0.0
H793 H 0.66573 0.45524 0.02137 0.0
H794 H 0.6326 0.50254 0.01496 0.0
H795 H 0.61892 0.47925 0.92501 0.0
H796 H 0.65231 0.43189 0.93084 0.0
H797 H 0.64836 0.25784 0.01007 0.0
H798 H 0.6775 0.30694 0.01735 0.0
H799 H 0.66034 0.33315 0.92816 0.0
H800 H 0.63097 0.28426 0.92062 0.0
H801 H 0.64526 0.38044 0.96575 0.0
H802 H 0.73281 0.31143 0.94892 0.0
H803 H 0.76589 0.26417 0.95609 0.0
H804 H 0.78218 0.29082 0.04488 0.0
H805 H 0.74879 0.33803 0.03836 0.0
C806 C 0.74672 0.49577 0.97985 0.0
C807 C 0.75705 0.50346 0.00803 0.0
C808 C 0.73232 0.46672 0.97435 0.0
C809 C 0.72818 0.44478 0.99687 0.0
C810 C 0.73852 0.45226 0.02497 0.0
C811 C 0.75262 0.48143 0.03057 0.0
C812 C 0.71307 0.41395 0.99105 0.0
C813 C 0.73059 0.38629 0.99566 0.0
C814 C 0.682 0.41187 0.98008 0.0
C815 C 0.66181 0.44023 0.97647 0.0
C816 C 0.65589 0.46035 1.00016 0.0
C817 C 0.63701 0.48715 0.99665 0.0
C818 C 0.62376 0.49399 0.96956 0.0
C819 C 0.62926 0.47395 0.94597 0.0
C820 C 0.64813 0.4471 0.94937 0.0
C821 C 0.65103 0.27385 0.99187 0.0
C822 C 0.63716 0.26711 0.96478 0.0
C823 C 0.66781 0.30187 0.99607 0.0
C824 C 0.6711 0.32363 0.97327 0.0
C825 C 0.65799 0.31667 0.94604 0.0
C826 C 0.64133 0.28861 0.94177 0.0
C827 C 0.6868 0.35439 0.97828 0.0
C828 C 0.66936 0.38211 0.97356 0.0
C829 C 0.71793 0.35649 0.98921 0.0
C830 C 0.73803 0.32811 0.99322 0.0
C831 C 0.74321 0.30707 0.97005 0.0
C832 C 0.76206 0.28032 0.97398 0.0
C833 C 0.77606 0.27445 0.00094 0.0
C834 C 0.77128 0.29537 0.02401 0.0
C835 C 0.75242 0.32215 0.0202 0.0
H836 H 0.79066 0.25373 0.00394 0.0
H837 H 0.60916 0.51477 0.9669 0.0
H838 H 0.50536 0.24991 0.01549 0.0
H839 H 0.45404 0.27438 0.02317 0.0
H840 H 0.43479 0.26914 0.93125 0.0
H841 H 0.48648 0.24498 0.92316 0.0
H842 H 0.41468 0.32502 0.95512 0.0
H843 H 0.40535 0.21443 0.97569 0.0
H844 H 0.42141 0.16454 0.99907 0.0
H845 H 0.40342 0.20467 0.08314 0.0
H846 H 0.38788 0.25505 0.0603 0.0
H847 H 0.25131 0.3538 0.97122 0.0
H848 H 0.3 0.3259 0.95914 0.0
H849 H 0.32743 0.32701 0.0494 0.0
H850 H 0.27874 0.35456 0.06184 0.0
H851 H 0.34194 0.271 0.02351 0.0
H852 H 0.35531 0.38203 0.00382 0.0
H853 H 0.3411 0.43298 0.98138 0.0
H854 H 0.35234 0.39251 0.89645 0.0
H855 H 0.36613 0.34114 0.91841 0.0
C856 C 0.49042 0.25418 0.99679 0.0
C857 C 0.49996 0.24516 0.96871 0.0
C858 C 0.46103 0.2681 0.00127 0.0
C859 C 0.44042 0.27297 0.97785 0.0
C860 C 0.45034 0.26539 0.94962 0.0
C861 C 0.47988 0.25157 0.94507 0.0
C862 C 0.40808 0.28481 0.98311 0.0
C863 C 0.39856 0.31296 0.96968 0.0
C864 C 0.38731 0.26924 0.0025 0.0
C865 C 0.39566 0.23861 0.01627 0.0
C866 C 0.40495 0.21268 0.99917 0.0
C867 C 0.41399 0.18431 0.01233 0.0
C868 C 0.41348 0.18146 0.04257 0.0
C869 C 0.40382 0.20693 0.05971 0.0
C870 C 0.39488 0.23539 0.04667 0.0
C871 C 0.26747 0.3478 0.9886 0.0
C872 C 0.26124 0.35681 0.01748 0.0
C873 C 0.29534 0.33192 0.98161 0.0
C874 C 0.31751 0.32488 0.00332 0.0
C875 C 0.31065 0.33234 0.03232 0.0
C876 C 0.28281 0.3482 0.03935 0.0
C877 C 0.34864 0.31137 0.99571 0.0
C878 C 0.35794 0.28289 0.00871 0.0
C879 C 0.36924 0.32667 0.976 0.0
C880 C 0.3614 0.35765 0.96276 0.0
C881 C 0.35454 0.38394 0.98036 0.0
C882 C 0.34659 0.4129 0.96773 0.0
C883 C 0.34573 0.41595 0.93751 0.0
C884 C 0.35296 0.39009 0.91985 0.0
C885 C 0.36085 0.36105 0.93238 0.0
H886 H 0.33949 0.43836 0.92776 0.0
H887 H 0.42054 0.1595 0.05272 0.0
H888 H 0.91119 0.60439 0.49559 0.0
H889 H 0.93511 0.55605 0.51405 0.0
H890 H 0.01951 0.57732 0.46486 0.0
H891 H 0.99797 0.62836 0.45245 0.0
H892 H 0.94658 0.50838 0.49645 0.0
H893 H 0.07866 0.53768 0.47026 0.0
H894 H 0.11893 0.57777 0.48198 0.0
H895 H 0.0665 0.60524 0.55761 0.0
H896 H 0.02554 0.56567 0.54602 0.0
H897 H 0.01274 0.36895 0.45225 0.0
H898 H 0.99082 0.42002 0.46344 0.0
H899 H 0.07199 0.44075 0.5173 0.0
H900 H 0.0969 0.39242 0.49984 0.0
H901 H 0.06149 0.48865 0.49989 0.0
H902 H 0.97894 0.43021 0.54359 0.0
H903 H 0.93754 0.38996 0.5513 0.0
H904 H 0.89101 0.41939 0.47302 0.0
H905 H 0.93167 0.46016 0.46517 0.0
C906 C 0.93569 0.59959 0.49074 0.0
C907 C 0.95347 0.62107 0.47446 0.0
C908 C 0.94923 0.57134 0.50044 0.0
C909 C 0.97998 0.56258 0.49178 0.0
C910 C 0.99692 0.58366 0.474 0.0
C911 C 0.98419 0.61279 0.46616 0.0
C912 C 0.99268 0.53017 0.49794 0.0
C913 C 0.97175 0.50439 0.49802 0.0
C914 C 0.02539 0.52388 0.50114 0.0
C915 C 0.04889 0.54898 0.50713 0.0
C916 C 0.07561 0.55244 0.48927 0.0
C917 C 0.09848 0.57513 0.49583 0.0
C918 C 0.09512 0.59417 0.52042 0.0
C919 C 0.06879 0.59074 0.53837 0.0
C920 C 0.04562 0.56837 0.5317 0.0
C921 C 0.02572 0.38438 0.46675 0.0
C922 C 0.05585 0.37593 0.47662 0.0
C923 C 0.01269 0.41355 0.4739 0.0
C924 C 0.02851 0.43446 0.49269 0.0
C925 C 0.05867 0.42557 0.50292 0.0
C926 C 0.07272 0.3973 0.49382 0.0
C927 C 0.0154 0.46683 0.49837 0.0
C928 C 0.03627 0.49261 0.49994 0.0
C929 C 0.98251 0.47311 0.49964 0.0
C930 C 0.95856 0.44794 0.50366 0.0
C931 C 0.96004 0.42784 0.5279 0.0
C932 C 0.93664 0.40507 0.53236 0.0
C933 C 0.91189 0.40191 0.51252 0.0
C934 C 0.91026 0.42177 0.48833 0.0
C935 C 0.93333 0.44487 0.48398 0.0
H936 H 0.89389 0.38419 0.51597 0.0
H937 H 0.11304 0.61141 0.52571 0.0
H938 H 0.63513 0.00265 0.52065 0.0
H939 H 0.58255 0.98008 0.51496 0.0
H940 H 0.54464 0.07321 0.49949 0.0
H941 H 0.59741 0.0959 0.50617 0.0
H942 H 0.5187 0.04578 0.54539 0.0
H943 H 0.52902 0.00867 0.44298 0.0
H944 H 0.55568 0.98092 0.4025 0.0
H945 H 0.56839 0.89919 0.45641 0.0
H946 H 0.54111 0.92613 0.49682 0.0
H947 H 0.36157 0.99306 0.54683 0.0
H948 H 0.4125 0.01618 0.53397 0.0
H949 H 0.45487 0.92331 0.53568 0.0
H950 H 0.40313 0.90013 0.54642 0.0
H951 H 0.4779 0.95189 0.49321 0.0
H952 H 0.46392 0.98171 0.59208 0.0
H953 H 0.43706 0.00421 0.63486 0.0
H954 H 0.43573 0.09545 0.59416 0.0
H955 H 0.46224 0.0734 0.55096 0.0
C956 C 0.61568 0.01809 0.51495 0.0
C957 C 0.6202 0.05085 0.51324 0.0
C958 C 0.58569 0.00516 0.5114 0.0
C959 C 0.55963 0.02486 0.50639 0.0
C960 C 0.56447 0.05753 0.50301 0.0
C961 C 0.59455 0.07048 0.50667 0.0
C962 C 0.52736 0.01236 0.51097 0.0
C963 C 0.50936 0.02579 0.5334 0.0
C964 C 0.51597 0.98513 0.49664 0.0
C965 C 0.53359 0.96956 0.47293 0.0
C966 C 0.53782 0.9849 0.4462 0.0
C967 C 0.55279 0.96924 0.42324 0.0
C968 C 0.564 0.93848 0.42699 0.0
C969 C 0.55987 0.92309 0.45358 0.0
C970 C 0.54448 0.93845 0.47642 0.0
C971 C 0.38184 0.97773 0.54416 0.0
C972 C 0.37863 0.94493 0.54662 0.0
C973 C 0.41098 0.9909 0.5372 0.0
C974 C 0.43776 0.97159 0.53428 0.0
C975 C 0.43458 0.93872 0.53764 0.0
C976 C 0.40515 0.92546 0.54372 0.0
C977 C 0.46891 0.98564 0.52731 0.0
C978 C 0.48683 0.97232 0.50479 0.0
C979 C 0.48068 0.01245 0.54219 0.0
C980 C 0.46478 0.02582 0.56817 0.0
C981 C 0.4577 0.00652 0.59217 0.0
C982 C 0.44257 0.0192 0.61651 0.0
C983 C 0.43461 0.05122 0.6172 0.0
C984 C 0.44186 0.07064 0.59358 0.0
C985 C 0.45696 0.05807 0.56917 0.0
H986 H 0.4229 0.06099 0.63606 0.0
H987 H 0.57572 0.9265 0.40924 0.0
H988 H 0.59442 0.10261 0.96205 0.0
H989 H 0.57539 0.05063 0.97812 0.0
H990 H 0.47931 0.08117 0.9647 0.0
H991 H 0.49838 0.13304 0.94882 0.0
H992 H 0.48714 0.04788 0.01631 0.0
H993 H 0.5146 0.03809 0.91455 0.0
H994 H 0.55066 0.04174 0.87262 0.0
H995 H 0.6141 0.97631 0.91349 0.0
H996 H 0.57863 0.97264 0.95588 0.0
H997 H 0.40061 0.90631 0.99251 0.0
H998 H 0.42588 0.95759 1.00029 0.0
H999 H 0.51738 0.91281 0.9968 0.0
H1000 H 0.49201 0.86217 0.98703 0.0
H1001 H 0.51622 0.95363 0.9584 0.0
H1002 H 0.49418 0.96608 0.06156 0.0
H1003 H 0.4645 0.96874 0.10768 0.0
H1004 H 0.39495 0.02807 0.06739 0.0
H1005 H 0.42485 0.02669 0.02137 0.0
C1006 C 0.56927 0.09823 0.96312 0.0
C1007 C 0.54769 0.12181 0.95521 0.0
C1008 C 0.55844 0.0686 0.97202 0.0
C1009 C 0.52594 0.06217 0.97265 0.0
C1010 C 0.50444 0.08581 0.96465 0.0
C1011 C 0.51528 0.11528 0.95555 0.0
C1012 C 0.51419 0.03036 0.98022 0.0
C1013 C 0.4934 0.02717 0.00369 0.0
C1014 C 0.52299 0.00337 0.96414 0.0
C1015 C 0.54414 0.00536 0.93851 0.0
C1016 C 0.53636 0.02467 0.91469 0.0
C1017 C 0.55667 0.02672 0.89083 0.0
C1018 C 0.58469 0.00934 0.89043 0.0
C1019 C 0.59242 0.9898 0.91386 0.0
C1020 C 0.57222 0.98772 0.93779 0.0
C1021 C 0.42604 0.90741 0.99457 0.0
C1022 C 0.44447 0.88047 0.98949 0.0
C1023 C 0.44056 0.93671 0.99921 0.0
C1024 C 0.4737 0.9393 0.99908 0.0
C1025 C 0.49185 0.91162 0.99677 0.0
C1026 C 0.47739 0.88266 0.99131 0.0
C1027 C 0.48916 0.97059 0.99506 0.0
C1028 C 0.51043 0.97393 0.97175 0.0
C1029 C 0.48108 0.99762 0.01154 0.0
C1030 C 0.46146 0.9959 0.03802 0.0
C1031 C 0.47236 0.97938 0.06249 0.0
C1032 C 0.45574 0.98101 0.08868 0.0
C1033 C 0.42782 0.99848 0.09043 0.0
C1034 C 0.41654 0.01451 0.06601 0.0
C1035 C 0.43343 0.01352 0.03995 0.0
H1036 H 0.41491 -0.00046 0.11069 0.0
H1037 H 0.60039 0.01094 0.87195 0.0
H1038 H 0.13678 0.49759 0.04366 0.0
H1039 H 0.08545 0.52063 0.03187 0.0
H1040 H 0.04367 0.42755 0.03304 0.0
H1041 H 0.09572 0.40446 0.04285 0.0
H1042 H 0.01873 0.45783 0.99167 0.0
H1043 H 0.0374 0.48338 0.09128 0.0
H1044 H 0.06655 0.50456 0.13339 0.0
H1045 H 0.06466 0.59726 0.0956 0.0
H1046 H 0.03583 0.57655 0.05308 0.0
H1047 H 0.86206 0.50212 0.02882 0.0
H1048 H 0.91488 0.48175 0.01939 0.0
H1049 H 0.94901 0.57697 0.00792 0.0
H1050 H 0.89608 0.59738 0.01858 0.0
H1051 H 0.97903 0.54796 0.04989 0.0
H1052 H 0.96253 0.51579 0.9469 0.0
H1053 H 0.93392 0.4894 0.90677 0.0
H1054 H 0.92771 0.40443 0.95728 0.0
H1055 H 0.95694 0.43006 0.99727 0.0
C1056 C 0.11658 0.48217 0.041 0.0
C1057 C 0.12 0.44937 0.04322 0.0
C1058 C 0.08724 0.4953 0.03461 0.0
C1059 C 0.06049 0.47592 0.03202 0.0
C1060 C 0.06394 0.44301 0.03478 0.0
C1061 C 0.09354 0.42981 0.04034 0.0
C1062 C 0.02893 0.48998 0.02675 0.0
C1063 C 0.01001 0.47743 0.00455 0.0
C1064 C 0.01753 0.51579 0.04327 0.0
C1065 C 0.03475 0.52835 0.06887 0.0
C1066 C 0.04339 0.50824 0.09187 0.0
C1067 C 0.05983 0.52016 0.11582 0.0
C1068 C 0.06753 0.55222 0.11713 0.0
C1069 C 0.05872 0.57243 0.09453 0.0
C1070 C 0.04231 0.56062 0.07051 0.0
C1071 C 0.88067 0.51857 0.02323 0.0
C1072 C 0.87505 0.55121 0.02378 0.0
C1073 C 0.91081 0.50691 0.01751 0.0
C1074 C 0.93596 0.52775 0.01249 0.0
C1075 C 0.92991 0.56042 0.01142 0.0
C1076 C 0.89971 0.57209 0.01734 0.0
C1077 C 0.96887 0.51599 0.01464 0.0
C1078 C 0.98803 0.52882 0.03657 0.0
C1079 C 0.98006 0.48985 0.99851 0.0
C1080 C 0.96135 0.47498 0.97512 0.0
C1081 C 0.95473 0.4916 0.94947 0.0
C1082 C 0.93866 0.47671 0.92671 0.0
C1083 C 0.92873 0.44541 0.9296 0.0
C1084 C 0.93524 0.42874 0.95511 0.0
C1085 C 0.95173 0.44334 0.97773 0.0
H1086 H 0.91615 0.43402 0.91202 0.0
H1087 H 0.08025 0.5614 0.13569 0.0
loop_
_geom_bond_atom_site_label_1
_geom_bond_atom_site_label_2
_geom_bond_distance
_geom_bond_site_symmetry_2
_ccdc_geom_bond_type
Mn0 O5 2.095 . S
Mn0 O15 2.162 . S
Mn0 O16 2.297 . S
Mn0 O24 2.385 . S
Mn0 O25 2.209 . S
Mn0 O26 2.094 . S
Mn1 O6 2.121 . S
Mn1 N8 2.257 . S
Mn1 N17 2.282 . S
Mn1 O25 2.215 . S
Mn1 O27 2.117 . S
C2 O24 1.234 . S
C2 O25 1.283 . S
C3 O15 1.281 . S
C3 O16 1.236 . S
C4 O26 1.240 . S
C4 O27 1.264 . S
O5 Mn0 2.095 . S
O5 C14 1.250 . S
O6 Mn1 2.121 . S
O6 C14 1.258 . S
C7 N8 1.326 . S
C7 C11 1.460 . S
C7 H13 0.929 . S
N8 Mn1 2.257 . S
N8 C7 1.326 . S
N8 C12 1.362 . S
C9 C10 1.258 . S
C9 C12 1.431 . S
C9 C29 1.449 . S
C10 C9 1.258 . S
C10 C11 1.477 . S
C10 H30 0.931 . S
C11 C7 1.460 . S
C11 C10 1.477 . S
C11 H31 0.930 . S
C12 N8 1.362 . S
C12 C9 1.431 . S
C12 C22 1.476 . S
H13 C7 0.929 . S
C14 O5 1.250 . S
C14 O6 1.258 . S
O15 Mn0 2.162 . S
O15 C3 1.281 . S
O16 Mn0 2.297 . S
O16 C3 1.236 . S
N17 Mn1 2.282 . S
N17 C18 1.328 1_455 S
N17 C22 1.318 . S
C18 N17 1.328 1_655 S
C18 C19 1.457 . S
C18 H23 0.929 . S
C19 C18 1.457 . S
C19 C20 1.291 . S
C19 H32 0.931 . S
C20 C19 1.291 . S
C20 C21 1.373 1_655 S
C20 H33 0.929 . S
C21 C20 1.373 1_455 S
C21 C22 1.396 . S
C21 C28 1.403 . S
C22 C12 1.476 . S
C22 N17 1.318 . S
C22 C21 1.396 . S
H23 C18 0.929 . S
O24 Mn0 2.385 . S
O24 C2 1.234 . S
O25 Mn0 2.209 . S
O25 Mn1 2.215 . S
O25 C2 1.283 . S
O26 Mn0 2.094 . S
O26 C4 1.240 . S
O27 Mn1 2.117 . S
O27 C4 1.264 . S
C28 C21 1.403 . S
C28 C29 1.399 . S
C28 H34 0.929 . S
C29 C9 1.449 . S
C29 C28 1.399 . S
C29 H35 0.930 . S
H30 C10 0.931 . S
H31 C11 0.930 . S
H32 C19 0.931 . S
H33 C20 0.929 . S
H34 C28 0.929 . S
H35 C29 0.930 . S
Mn36 O41 2.095 . S
Mn36 O51 2.162 . S
Mn36 O52 2.297 . S
Mn36 O60 2.385 . S
Mn36 O61 2.209 . S
Mn36 O62 2.094 . S
Mn37 O42 2.121 . S
Mn37 N44 2.257 . S
Mn37 N53 2.282 . S
Mn37 O61 2.215 . S
Mn37 O63 2.117 . S
C38 O60 1.234 . S
C38 O61 1.283 . S
C39 O51 1.281 . S
C39 O52 1.236 . S
C40 O62 1.240 . S
C40 O63 1.264 . S
O41 Mn36 2.095 . S
O41 C50 1.250 . S
O42 Mn37 2.121 . S
O42 C50 1.258 . S
C43 N44 1.326 . S
C43 C47 1.460 . S
C43 H49 0.929 . S
N44 Mn37 2.257 . S
N44 C43 1.326 . S
N44 C48 1.362 . S
C45 C46 1.258 . S
C45 C48 1.431 . S
C45 C65 1.449 . S
C46 C45 1.258 . S
C46 C47 1.477 . S
C46 H66 0.931 . S
C47 C43 1.460 . S
C47 C46 1.477 . S
C47 H67 0.930 . S
C48 N44 1.362 . S
C48 C45 1.431 . S
C48 C58 1.476 . S
H49 C43 0.929 . S
C50 O41 1.250 . S
C50 O42 1.258 . S
O51 Mn36 2.162 . S
O51 C39 1.281 . S
O52 Mn36 2.297 . S
O52 C39 1.236 . S
N53 Mn37 2.282 . S
N53 C54 1.328 1_565 S
N53 C58 1.318 . S
C54 N53 1.328 1_545 S
C54 C55 1.457 . S
C54 H59 0.929 . S
C55 C54 1.457 . S
C55 C56 1.291 . S
C55 H68 0.931 . S
C56 C55 1.291 . S
C56 C57 1.373 1_545 S
C56 H69 0.929 . S
C57 C56 1.373 1_565 S
C57 C58 1.396 . S
C57 C64 1.403 . S
C58 C48 1.476 . S
C58 N53 1.318 . S
C58 C57 1.396 . S
H59 C54 0.929 . S
O60 Mn36 2.385 . S
O60 C38 1.234 . S
O61 Mn36 2.209 . S
O61 Mn37 2.215 . S
O61 C38 1.283 . S
O62 Mn36 2.094 . S
O62 C40 1.240 . S
O63 Mn37 2.117 . S
O63 C40 1.264 . S
C64 C57 1.403 . S
C64 C65 1.399 . S
C64 H70 0.929 . S
C65 C45 1.449 . S
C65 C64 1.399 . S
C65 H71 0.930 . S
H66 C46 0.931 . S
H67 C47 0.930 . S
H68 C55 0.931 . S
H69 C56 0.929 . S
H70 C64 0.929 . S
H71 C65 0.930 . S
Mn72 O77 2.095 . S
Mn72 O87 2.162 . S
Mn72 O88 2.297 . S
Mn72 O96 2.385 . S
Mn72 O97 2.209 . S
Mn72 O98 2.094 . S
Mn73 O78 2.121 . S
Mn73 N80 2.257 . S
Mn73 N89 2.282 . S
Mn73 O97 2.215 . S
Mn73 O99 2.117 . S
C74 O96 1.234 . S
C74 O97 1.283 . S
C75 O87 1.281 . S
C75 O88 1.236 . S
C76 O98 1.240 . S
C76 O99 1.264 . S
O77 Mn72 2.095 . S
O77 C86 1.250 . S
O78 Mn73 2.121 . S
O78 C86 1.258 . S
C79 N80 1.326 . S
C79 C83 1.460 . S
C79 H85 0.929 . S
N80 Mn73 2.257 . S
N80 C79 1.326 . S
N80 C84 1.362 . S
C81 C82 1.258 . S
C81 C84 1.431 . S
C81 C101 1.449 . S
C82 C81 1.258 . S
C82 C83 1.477 . S
C82 H102 0.931 . S
C83 C79 1.460 . S
C83 C82 1.477 . S
C83 H103 0.930 . S
C84 N80 1.362 . S
C84 C81 1.431 . S
C84 C94 1.476 . S
H85 C79 0.929 . S
C86 O77 1.250 . S
C86 O78 1.258 . S
O87 Mn72 2.162 . S
O87 C75 1.281 . S
O88 Mn72 2.297 . S
O88 C75 1.236 . S
N89 Mn73 2.282 . S
N89 C90 1.328 1_655 S
N89 C94 1.318 . S
C90 N89 1.328 1_455 S
C90 C91 1.457 . S
C90 H95 0.929 . S
C91 C90 1.457 . S
C91 C92 1.291 . S
C91 H104 0.931 . S
C92 C91 1.291 . S
C92 C93 1.373 1_455 S
C92 H105 0.929 . S
C93 C92 1.373 1_655 S
C93 C94 1.396 . S
C93 C100 1.403 . S
C94 C84 1.476 . S
C94 N89 1.318 . S
C94 C93 1.396 . S
H95 C90 0.929 . S
O96 Mn72 2.385 . S
O96 C74 1.234 . S
O97 Mn72 2.209 . S
O97 Mn73 2.215 . S
O97 C74 1.283 . S
O98 Mn72 2.094 . S
O98 C76 1.240 . S
O99 Mn73 2.117 . S
O99 C76 1.264 . S
C100 C93 1.403 . S
C100 C101 1.399 . S
C100 H106 0.929 . S
C101 C81 1.449 . S
C101 C100 1.399 . S
C101 H107 0.930 . S
H102 C82 0.931 . S
H103 C83 0.930 . S
H104 C91 0.931 . S
H105 C92 0.929 . S
H106 C100 0.929 . S
H107 C101 0.930 . S
Mn108 O113 2.095 . S
Mn108 O123 2.162 . S
Mn108 O124 2.297 . S
Mn108 O132 2.385 . S
Mn108 O133 2.209 . S
Mn108 O134 2.094 . S
Mn109 O114 2.121 . S
Mn109 N116 2.257 . S
Mn109 N125 2.282 . S
Mn109 O133 2.215 . S
Mn109 O135 2.117 . S
C110 O132 1.234 . S
C110 O133 1.283 . S
C111 O123 1.281 . S
C111 O124 1.236 . S
C112 O134 1.240 . S
C112 O135 1.264 . S
O113 Mn108 2.095 . S
O113 C122 1.250 . S
O114 Mn109 2.121 . S
O114 C122 1.258 . S
C115 N116 1.326 . S
C115 C119 1.460 . S
C115 H121 0.929 . S
N116 Mn109 2.257 . S
N116 C115 1.326 . S
N116 C120 1.362 . S
C117 C118 1.258 . S
C117 C120 1.431 . S
C117 C137 1.449 . S
C118 C117 1.258 . S
C118 C119 1.477 . S
C118 H138 0.931 . S
C119 C115 1.460 . S
C119 C118 1.477 . S
C119 H139 0.930 . S
C120 N116 1.362 . S
C120 C117 1.431 . S
C120 C130 1.476 . S
H121 C115 0.929 . S
C122 O113 1.250 . S
C122 O114 1.258 . S
O123 Mn108 2.162 . S
O123 C111 1.281 . S
O124 Mn108 2.297 . S
O124 C111 1.236 . S
N125 Mn109 2.282 . S
N125 C126 1.328 1_545 S
N125 C130 1.318 . S
C126 N125 1.328 1_565 S
C126 C127 1.457 . S
C126 H131 0.929 . S
C127 C126 1.457 . S
C127 C128 1.291 . S
C127 H140 0.931 . S
C128 C127 1.291 . S
C128 C129 1.373 1_565 S
C128 H141 0.929 . S
C129 C128 1.373 1_545 S
C129 C130 1.396 . S
C129 C136 1.403 . S
C130 C120 1.476 . S
C130 N125 1.318 . S
C130 C129 1.396 . S
H131 C126 0.929 . S
O132 Mn108 2.385 . S
O132 C110 1.234 . S
O133 Mn108 2.209 . S
O133 Mn109 2.215 . S
O133 C110 1.283 . S
O134 Mn108 2.094 . S
O134 C112 1.240 . S
O135 Mn109 2.117 . S
O135 C112 1.264 . S
C136 C129 1.403 . S
C136 C137 1.399 . S
C136 H142 0.929 . S
C137 C117 1.449 . S
C137 C136 1.399 . S
C137 H143 0.930 . S
H138 C118 0.931 . S
H139 C119 0.930 . S
H140 C127 0.931 . S
H141 C128 0.929 . S
H142 C136 0.929 . S
H143 C137 0.930 . S
Mn144 O149 2.095 . S
Mn144 O159 2.162 . S
Mn144 O160 2.297 . S
Mn144 O168 2.385 . S
Mn144 O169 2.209 . S
Mn144 O170 2.094 . S
Mn145 O150 2.121 . S
Mn145 N152 2.257 . S
Mn145 N161 2.282 . S
Mn145 O169 2.215 1_554 S
Mn145 O171 2.117 1_554 S
C146 O168 1.234 . S
C146 O169 1.283 . S
C147 O159 1.281 . S
C147 O160 1.236 . S
C148 O170 1.240 . S
C148 O171 1.264 . S
O149 Mn144 2.095 . S
O149 C158 1.250 . S
O150 Mn145 2.121 . S
O150 C158 1.258 1_554 S
C151 N152 1.326 . S
C151 C155 1.460 . S
C151 H157 0.929 . S
N152 Mn145 2.257 . S
N152 C151 1.326 . S
N152 C156 1.362 . S
C153 C154 1.258 . S
C153 C156 1.431 . S
C153 C173 1.449 . S
C154 C153 1.258 . S
C154 C155 1.477 . S
C154 H174 0.931 . S
C155 C151 1.460 . S
C155 C154 1.477 . S
C155 H175 0.930 . S
C156 N152 1.362 . S
C156 C153 1.431 . S
C156 C166 1.476 . S
H157 C151 0.929 . S
C158 O149 1.250 . S
C158 O150 1.258 1_556 S
O159 Mn144 2.162 . S
O159 C147 1.281 . S
O160 Mn144 2.297 . S
O160 C147 1.236 . S
N161 Mn145 2.282 . S
N161 C162 1.328 . S
N161 C166 1.318 . S
C162 N161 1.328 . S
C162 C163 1.457 . S
C162 H167 0.929 . S
C163 C162 1.457 . S
C163 C164 1.291 . S
C163 H176 0.931 . S
C164 C163 1.291 . S
C164 C165 1.373 . S
C164 H177 0.929 . S
C165 C164 1.373 . S
C165 C166 1.396 . S
C165 C172 1.403 . S
C166 C156 1.476 . S
C166 N161 1.318 . S
C166 C165 1.396 . S
H167 C162 0.929 . S
O168 Mn144 2.385 . S
O168 C146 1.234 . S
O169 Mn144 2.209 . S
O169 Mn145 2.215 1_556 S
O169 C146 1.283 . S
O170 Mn144 2.094 . S
O170 C148 1.240 . S
O171 Mn145 2.117 1_556 S
O171 C148 1.264 . S
C172 C165 1.403 . S
C172 C173 1.399 . S
C172 H178 0.929 . S
C173 C153 1.449 . S
C173 C172 1.399 . S
C173 H179 0.930 . S
H174 C154 0.931 . S
H175 C155 0.930 . S
H176 C163 0.931 . S
H177 C164 0.929 . S
H178 C172 0.929 . S
H179 C173 0.930 . S
Mn180 O185 2.095 . S
Mn180 O195 2.162 . S
Mn180 O196 2.297 . S
Mn180 O204 2.385 . S
Mn180 O205 2.209 . S
Mn180 O206 2.094 . S
Mn181 O186 2.121 . S
Mn181 N188 2.257 . S
Mn181 N197 2.282 . S
Mn181 O205 2.215 1_556 S
Mn181 O207 2.117 1_556 S
C182 O204 1.234 . S
C182 O205 1.283 . S
C183 O195 1.281 . S
C183 O196 1.236 . S
C184 O206 1.240 . S
C184 O207 1.264 . S
O185 Mn180 2.095 . S
O185 C194 1.250 . S
O186 Mn181 2.121 . S
O186 C194 1.258 1_556 S
C187 N188 1.326 . S
C187 C191 1.460 . S
C187 H193 0.929 . S
N188 Mn181 2.257 . S
N188 C187 1.326 . S
N188 C192 1.362 . S
C189 C190 1.258 . S
C189 C192 1.431 . S
C189 C209 1.449 . S
C190 C189 1.258 . S
C190 C191 1.477 . S
C190 H210 0.931 . S
C191 C187 1.460 . S
C191 C190 1.477 . S
C191 H211 0.930 . S
C192 N188 1.362 . S
C192 C189 1.431 . S
C192 C202 1.476 . S
H193 C187 0.929 . S
C194 O185 1.250 . S
C194 O186 1.258 1_554 S
O195 Mn180 2.162 . S
O195 C183 1.281 . S
O196 Mn180 2.297 . S
O196 C183 1.236 . S
N197 Mn181 2.282 . S
N197 C198 1.328 . S
N197 C202 1.318 . S
C198 N197 1.328 . S
C198 C199 1.457 . S
C198 H203 0.929 . S
C199 C198 1.457 . S
C199 C200 1.291 . S
C199 H212 0.931 . S
C200 C199 1.291 . S
C200 C201 1.373 . S
C200 H213 0.929 . S
C201 C200 1.373 . S
C201 C202 1.396 . S
C201 C208 1.403 . S
C202 C192 1.476 . S
C202 N197 1.318 . S
C202 C201 1.396 . S
H203 C198 0.929 . S
O204 Mn180 2.385 . S
O204 C182 1.234 . S
O205 Mn180 2.209 . S
O205 Mn181 2.215 1_554 S
O205 C182 1.283 . S
O206 Mn180 2.094 . S
O206 C184 1.240 . S
O207 Mn181 2.117 1_554 S
O207 C184 1.264 . S
C208 C201 1.403 . S
C208 C209 1.399 . S
C208 H214 0.929 . S
C209 C189 1.449 . S
C209 C208 1.399 . S
C209 H215 0.930 . S
H210 C190 0.931 . S
H211 C191 0.930 . S
H212 C199 0.931 . S
H213 C200 0.929 . S
H214 C208 0.929 . S
H215 C209 0.930 . S
Mn216 O221 2.095 . S
Mn216 O231 2.162 . S
Mn216 O232 2.297 . S
Mn216 O240 2.385 . S
Mn216 O241 2.209 . S
Mn216 O242 2.094 . S
Mn217 O222 2.121 . S
Mn217 N224 2.257 . S
Mn217 N233 2.282 . S
Mn217 O241 2.215 1_554 S
Mn217 O243 2.117 1_554 S
C218 O240 1.234 . S
C218 O241 1.283 . S
C219 O231 1.281 . S
C219 O232 1.236 . S
C220 O242 1.240 . S
C220 O243 1.264 . S
O221 Mn216 2.095 . S
O221 C230 1.250 . S
O222 Mn217 2.121 . S
O222 C230 1.258 1_554 S
C223 N224 1.326 . S
C223 C227 1.460 . S
C223 H229 0.929 . S
N224 Mn217 2.257 . S
N224 C223 1.326 . S
N224 C228 1.362 . S
C225 C226 1.258 . S
C225 C228 1.431 . S
C225 C245 1.449 . S
C226 C225 1.258 . S
C226 C227 1.477 . S
C226 H246 0.931 . S
C227 C223 1.460 . S
C227 C226 1.477 . S
C227 H247 0.930 . S
C228 N224 1.362 . S
C228 C225 1.431 . S
C228 C238 1.476 . S
H229 C223 0.929 . S
C230 O221 1.250 . S
C230 O222 1.258 1_556 S
O231 Mn216 2.162 . S
O231 C219 1.281 . S
O232 Mn216 2.297 . S
O232 C219 1.236 . S
N233 Mn217 2.282 . S
N233 C234 1.328 . S
N233 C238 1.318 . S
C234 N233 1.328 . S
C234 C235 1.457 . S
C234 H239 0.929 . S
C235 C234 1.457 . S
C235 C236 1.291 . S
C235 H248 0.931 . S
C236 C235 1.291 . S
C236 C237 1.373 . S
C236 H249 0.929 . S
C237 C236 1.373 . S
C237 C238 1.396 . S
C237 C244 1.403 . S
C238 C228 1.476 . S
C238 N233 1.318 . S
C238 C237 1.396 . S
H239 C234 0.929 . S
O240 Mn216 2.385 . S
O240 C218 1.234 . S
O241 Mn216 2.209 . S
O241 Mn217 2.215 1_556 S
O241 C218 1.283 . S
O242 Mn216 2.094 . S
O242 C220 1.240 . S
O243 Mn217 2.117 1_556 S
O243 C220 1.264 . S
C244 C237 1.403 . S
C244 C245 1.399 . S
C244 H250 0.929 . S
C245 C225 1.449 . S
C245 C244 1.399 . S
C245 H251 0.930 . S
H246 C226 0.931 . S
H247 C227 0.930 . S
H248 C235 0.931 . S
H249 C236 0.929 . S
H250 C244 0.929 . S
H251 C245 0.930 . S
Mn252 O257 2.095 . S
Mn252 O267 2.162 . S
Mn252 O268 2.297 . S
Mn252 O276 2.385 . S
Mn252 O277 2.209 . S
Mn252 O278 2.094 . S
Mn253 O258 2.121 . S
Mn253 N260 2.257 . S
Mn253 N269 2.282 . S
Mn253 O277 2.215 1_556 S
Mn253 O279 2.117 1_556 S
C254 O276 1.234 . S
C254 O277 1.283 . S
C255 O267 1.281 . S
C255 O268 1.236 . S
C256 O278 1.240 . S
C256 O279 1.264 . S
O257 Mn252 2.095 . S
O257 C266 1.250 . S
O258 Mn253 2.121 . S
O258 C266 1.258 1_556 S
C259 N260 1.326 . S
C259 C263 1.460 . S
C259 H265 0.929 . S
N260 Mn253 2.257 . S
N260 C259 1.326 . S
N260 C264 1.362 . S
C261 C262 1.258 . S
C261 C264 1.431 . S
C261 C281 1.449 . S
C262 C261 1.258 . S
C262 C263 1.477 . S
C262 H282 0.931 . S
C263 C259 1.460 . S
C263 C262 1.477 . S
C263 H283 0.930 . S
C264 N260 1.362 . S
C264 C261 1.431 . S
C264 C274 1.476 . S
H265 C259 0.929 . S
C266 O257 1.250 . S
C266 O258 1.258 1_554 S
O267 Mn252 2.162 . S
O267 C255 1.281 . S
O268 Mn252 2.297 . S
O268 C255 1.236 . S
N269 Mn253 2.282 . S
N269 C270 1.328 . S
N269 C274 1.318 . S
C270 N269 1.328 . S
C270 C271 1.457 . S
C270 H275 0.929 . S
C271 C270 1.457 . S
C271 C272 1.291 . S
C271 H284 0.931 . S
C272 C271 1.291 . S
C272 C273 1.373 . S
C272 H285 0.929 . S
C273 C272 1.373 . S
C273 C274 1.396 . S
C273 C280 1.403 . S
C274 C264 1.476 . S
C274 N269 1.318 . S
C274 C273 1.396 . S
H275 C270 0.929 . S
O276 Mn252 2.385 . S
O276 C254 1.234 . S
O277 Mn252 2.209 . S
O277 Mn253 2.215 1_554 S
O277 C254 1.283 . S
O278 Mn252 2.094 . S
O278 C256 1.240 . S
O279 Mn253 2.117 1_554 S
O279 C256 1.264 . S
C280 C273 1.403 . S
C280 C281 1.399 . S
C280 H286 0.929 . S
C281 C261 1.449 . S
C281 C280 1.399 . S
C281 H287 0.930 . S
H282 C262 0.931 . S
H283 C263 0.930 . S
H284 C271 0.931 . S
H285 C272 0.929 . S
H286 C280 0.929 . S
H287 C281 0.930 . S
H288 C306 0.951 . S
H289 C308 0.951 . S
H290 C310 0.950 . S
H291 C311 0.950 . S
H292 C313 0.950 . S
H293 C316 0.950 . S
H294 C317 0.950 . S
H295 C319 0.950 . S
H296 C320 0.950 . S
H297 C321 0.951 . S
H298 C323 0.951 . S
H299 C325 0.950 . S
H300 C326 0.950 . S
H301 C328 0.950 . S
H302 C331 0.950 . S
H303 C332 0.950 . S
H304 C334 0.950 . S
H305 C335 0.950 . S
C306 H288 0.951 . S
C306 C307 1.366 . S
C306 C308 1.388 . S
C307 C306 1.366 . S
C307 C311 1.385 . S
C308 H289 0.951 . S
C308 C306 1.388 . S
C308 C309 1.366 . S
C309 C308 1.366 . S
C309 C310 1.414 . S
C309 C312 1.499 . S
C310 H290 0.950 . S
C310 C309 1.414 . S
C310 C311 1.374 . S
C311 H291 0.950 . S
C311 C307 1.385 . S
C311 C310 1.374 . S
C312 C309 1.499 . S
C312 C313 1.373 . S
C312 C314 1.389 . S
C313 H292 0.950 . S
C313 C312 1.373 . S
C313 C329 1.377 . S
C314 C312 1.389 . S
C314 C315 1.524 . S
C314 C328 1.377 . S
C315 C314 1.524 . S
C315 C316 1.397 . S
C315 C320 1.363 . S
C316 H293 0.950 . S
C316 C315 1.397 . S
C316 C317 1.334 . S
C317 H294 0.950 . S
C317 C316 1.334 . S
C317 C318 1.287 . S
C318 C317 1.287 . S
C318 C319 1.524 . S
C318 H337 0.913 . S
C319 H295 0.950 . S
C319 C318 1.524 . S
C319 C320 1.415 . S
C320 H296 0.950 . S
C320 C315 1.363 . S
C320 C319 1.415 . S
C321 H297 0.951 . S
C321 C322 1.366 . S
C321 C323 1.388 . S
C322 C321 1.366 . S
C322 C326 1.385 . S
C323 H298 0.951 . S
C323 C321 1.388 . S
C323 C324 1.366 . S
C324 C323 1.366 . S
C324 C325 1.414 . S
C324 C327 1.499 . S
C325 H299 0.950 . S
C325 C324 1.414 . S
C325 C326 1.374 . S
C326 H300 0.950 . S
C326 C322 1.385 . S
C326 C325 1.374 . S
C327 C324 1.499 . S
C327 C328 1.373 . S
C327 C329 1.389 . S
C328 H301 0.950 . S
C328 C314 1.377 . S
C328 C327 1.373 . S
C329 C313 1.377 . S
C329 C327 1.389 . S
C329 C330 1.524 . S
C330 C329 1.524 . S
C330 C331 1.397 . S
C330 C335 1.363 . S
C331 H302 0.950 . S
C331 C330 1.397 . S
C331 C332 1.334 . S
C332 H303 0.950 . S
C332 C331 1.334 . S
C332 C333 1.287 . S
C333 C332 1.287 . S
C333 C334 1.524 . S
C333 H336 0.999 . S
C334 H304 0.950 . S
C334 C333 1.524 . S
C334 C335 1.415 . S
C335 H305 0.950 . S
C335 C330 1.363 . S
C335 C334 1.415 . S
H336 C333 0.999 . S
H337 C318 0.913 . S
H338 C356 0.951 . S
H339 C358 0.951 . S
H340 C360 0.950 . S
H341 C361 0.950 . S
H342 C363 0.950 . S
H343 C366 0.950 . S
H344 C367 0.950 . S
H345 C369 0.950 . S
H346 C370 0.950 . S
H347 C371 0.951 . S
H348 C373 0.951 . S
H349 C375 0.950 . S
H350 C376 0.950 . S
H351 C378 0.950 . S
H352 C381 0.950 . S
H353 C382 0.950 . S
H354 C384 0.950 . S
H355 C385 0.950 . S
C356 H338 0.951 . S
C356 C357 1.366 . S
C356 C358 1.388 . S
C357 C356 1.366 . S
C357 C361 1.385 . S
C358 H339 0.951 . S
C358 C356 1.388 . S
C358 C359 1.366 . S
C359 C358 1.366 . S
C359 C360 1.414 . S
C359 C362 1.499 . S
C360 H340 0.950 . S
C360 C359 1.414 . S
C360 C361 1.374 . S
C361 H341 0.950 . S
C361 C357 1.385 . S
C361 C360 1.374 . S
C362 C359 1.499 . S
C362 C363 1.373 . S
C362 C364 1.389 . S
C363 H342 0.950 . S
C363 C362 1.373 . S
C363 C379 1.377 . S
C364 C362 1.389 . S
C364 C365 1.524 . S
C364 C378 1.377 . S
C365 C364 1.524 . S
C365 C366 1.397 . S
C365 C370 1.363 . S
C366 H343 0.950 . S
C366 C365 1.397 . S
C366 C367 1.334 . S
C367 H344 0.950 . S
C367 C366 1.334 . S
C367 C368 1.287 . S
C368 C367 1.287 . S
C368 C369 1.524 . S
C368 H387 0.913 . S
C369 H345 0.950 . S
C369 C368 1.524 . S
C369 C370 1.415 . S
C370 H346 0.950 . S
C370 C365 1.363 . S
C370 C369 1.415 . S
C371 H347 0.951 . S
C371 C372 1.366 . S
C371 C373 1.388 . S
C372 C371 1.366 . S
C372 C376 1.385 . S
C373 H348 0.951 . S
C373 C371 1.388 . S
C373 C374 1.366 . S
C374 C373 1.366 . S
C374 C375 1.414 . S
C374 C377 1.499 . S
C375 H349 0.950 . S
C375 C374 1.414 . S
C375 C376 1.374 . S
C376 H350 0.950 . S
C376 C372 1.385 . S
C376 C375 1.374 . S
C377 C374 1.499 . S
C377 C378 1.373 . S
C377 C379 1.389 . S
C378 H351 0.950 . S
C378 C364 1.377 . S
C378 C377 1.373 . S
C379 C363 1.377 . S
C379 C377 1.389 . S
C379 C380 1.524 . S
C380 C379 1.524 . S
C380 C381 1.397 . S
C380 C385 1.363 . S
C381 H352 0.950 . S
C381 C380 1.397 . S
C381 C382 1.334 . S
C382 H353 0.950 . S
C382 C381 1.334 . S
C382 C383 1.287 . S
C383 C382 1.287 . S
C383 C384 1.524 . S
C383 H386 0.999 . S
C384 H354 0.950 . S
C384 C383 1.524 . S
C384 C385 1.415 . S
C385 H355 0.950 . S
C385 C380 1.363 . S
C385 C384 1.415 . S
H386 C383 0.999 . S
H387 C368 0.913 . S
H388 C406 0.951 . S
H389 C408 0.951 . S
H390 C410 0.950 . S
H391 C411 0.950 . S
H392 C413 0.950 . S
H393 C416 0.950 . S
H394 C417 0.950 . S
H395 C419 0.950 . S
H396 C420 0.950 . S
H397 C421 0.951 . S
H398 C423 0.951 . S
H399 C425 0.950 . S
H400 C426 0.950 . S
H401 C428 0.950 . S
H402 C431 0.950 . S
H403 C432 0.950 . S
H404 C434 0.950 . S
H405 C435 0.950 . S
C406 H388 0.951 . S
C406 C407 1.366 . S
C406 C408 1.388 . S
C407 C406 1.366 . S
C407 C411 1.385 . S
C408 H389 0.951 . S
C408 C406 1.388 . S
C408 C409 1.366 . S
C409 C408 1.366 . S
C409 C410 1.414 . S
C409 C412 1.499 . S
C410 H390 0.950 . S
C410 C409 1.414 . S
C410 C411 1.374 . S
C411 H391 0.950 . S
C411 C407 1.385 . S
C411 C410 1.374 . S
C412 C409 1.499 . S
C412 C413 1.373 . S
C412 C414 1.389 . S
C413 H392 0.950 . S
C413 C412 1.373 . S
C413 C429 1.377 . S
C414 C412 1.389 . S
C414 C415 1.524 . S
C414 C428 1.377 . S
C415 C414 1.524 . S
C415 C416 1.397 . S
C415 C420 1.363 . S
C416 H393 0.950 . S
C416 C415 1.397 . S
C416 C417 1.334 . S
C417 H394 0.950 . S
C417 C416 1.334 . S
C417 C418 1.287 . S
C418 C417 1.287 . S
C418 C419 1.524 . S
C418 H437 0.913 . S
C419 H395 0.950 . S
C419 C418 1.524 . S
C419 C420 1.415 . S
C420 H396 0.950 . S
C420 C415 1.363 . S
C420 C419 1.415 . S
C421 H397 0.951 . S
C421 C422 1.366 . S
C421 C423 1.388 . S
C422 C421 1.366 . S
C422 C426 1.385 . S
C423 H398 0.951 . S
C423 C421 1.388 . S
C423 C424 1.366 . S
C424 C423 1.366 . S
C424 C425 1.414 . S
C424 C427 1.499 . S
C425 H399 0.950 . S
C425 C424 1.414 . S
C425 C426 1.374 . S
C426 H400 0.950 . S
C426 C422 1.385 . S
C426 C425 1.374 . S
C427 C424 1.499 . S
C427 C428 1.373 . S
C427 C429 1.389 . S
C428 H401 0.950 . S
C428 C414 1.377 . S
C428 C427 1.373 . S
C429 C413 1.377 . S
C429 C427 1.389 . S
C429 C430 1.524 . S
C430 C429 1.524 . S
C430 C431 1.397 . S
C430 C435 1.363 . S
C431 H402 0.950 . S
C431 C430 1.397 . S
C431 C432 1.334 . S
C432 H403 0.950 . S
C432 C431 1.334 . S
C432 C433 1.287 . S
C433 C432 1.287 . S
C433 C434 1.524 . S
C433 H436 0.999 . S
C434 H404 0.950 . S
C434 C433 1.524 . S
C434 C435 1.415 . S
C435 H405 0.950 . S
C435 C430 1.363 . S
C435 C434 1.415 . S
H436 C433 0.999 . S
H437 C418 0.913 . S
H438 C456 0.951 . S
H439 C458 0.951 . S
H440 C460 0.950 . S
H441 C461 0.950 . S
H442 C463 0.950 . S
H443 C466 0.950 . S
H444 C467 0.950 . S
H445 C469 0.950 . S
H446 C470 0.950 . S
H447 C471 0.951 . S
H448 C473 0.951 . S
H449 C475 0.950 . S
H450 C476 0.950 . S
H451 C478 0.950 . S
H452 C481 0.950 . S
H453 C482 0.950 . S
H454 C484 0.950 . S
H455 C485 0.950 . S
C456 H438 0.951 . S
C456 C457 1.366 . S
C456 C458 1.388 . S
C457 C456 1.366 . S
C457 C461 1.385 . S
C458 H439 0.951 . S
C458 C456 1.388 . S
C458 C459 1.366 . S
C459 C458 1.366 . S
C459 C460 1.414 . S
C459 C462 1.499 . S
C460 H440 0.950 . S
C460 C459 1.414 . S
C460 C461 1.374 . S
C461 H441 0.950 . S
C461 C457 1.385 . S
C461 C460 1.374 . S
C462 C459 1.499 . S
C462 C463 1.373 . S
C462 C464 1.389 . S
C463 H442 0.950 . S
C463 C462 1.373 . S
C463 C479 1.377 . S
C464 C462 1.389 . S
C464 C465 1.524 . S
C464 C478 1.377 . S
C465 C464 1.524 . S
C465 C466 1.397 . S
C465 C470 1.363 . S
C466 H443 0.950 . S
C466 C465 1.397 . S
C466 C467 1.334 . S
C467 H444 0.950 . S
C467 C466 1.334 . S
C467 C468 1.287 . S
C468 C467 1.287 . S
C468 C469 1.524 . S
C468 H487 0.913 . S
C469 H445 0.950 . S
C469 C468 1.524 . S
C469 C470 1.415 . S
C470 H446 0.950 . S
C470 C465 1.363 . S
C470 C469 1.415 . S
C471 H447 0.951 . S
C471 C472 1.366 . S
C471 C473 1.388 . S
C472 C471 1.366 . S
C472 C476 1.385 . S
C473 H448 0.951 . S
C473 C471 1.388 . S
C473 C474 1.366 . S
C474 C473 1.366 . S
C474 C475 1.414 . S
C474 C477 1.499 . S
C475 H449 0.950 . S
C475 C474 1.414 . S
C475 C476 1.374 . S
C476 H450 0.950 . S
C476 C472 1.385 . S
C476 C475 1.374 . S
C477 C474 1.499 . S
C477 C478 1.373 . S
C477 C479 1.389 . S
C478 H451 0.950 . S
C478 C464 1.377 . S
C478 C477 1.373 . S
C479 C463 1.377 . S
C479 C477 1.389 . S
C479 C480 1.524 . S
C480 C479 1.524 . S
C480 C481 1.397 . S
C480 C485 1.363 . S
C481 H452 0.950 . S
C481 C480 1.397 . S
C481 C482 1.334 . S
C482 H453 0.950 . S
C482 C481 1.334 . S
C482 C483 1.287 . S
C483 C482 1.287 . S
C483 C484 1.524 . S
C483 H486 0.999 . S
C484 H454 0.950 . S
C484 C483 1.524 . S
C484 C485 1.415 . S
C485 H455 0.950 . S
C485 C480 1.363 . S
C485 C484 1.415 . S
H486 C483 0.999 . S
H487 C468 0.913 . S
H488 C506 0.929 1_565 S
H489 C508 0.951 . S
H490 C510 0.950 . S
H491 C511 0.950 . S
H492 C513 0.950 . S
H493 C516 0.950 . S
H494 C517 0.950 . S
H495 C519 0.950 . S
H496 C520 0.950 . S
H497 C521 0.951 . S
H498 C523 0.951 . S
H499 C525 0.950 . S
H500 C526 0.950 . S
H501 C528 0.950 . S
H502 C531 0.950 . S
H503 C532 0.950 . S
H504 C534 0.950 . S
H505 C535 0.950 . S
C506 H488 0.929 1_545 S
C506 C507 1.366 . S
C506 C508 1.388 . S
C507 C506 1.366 . S
C507 C511 1.385 . S
C508 H489 0.951 . S
C508 C506 1.388 . S
C508 C509 1.366 . S
C509 C508 1.366 . S
C509 C510 1.414 . S
C509 C512 1.499 . S
C510 H490 0.950 . S
C510 C509 1.414 . S
C510 C511 1.374 . S
C511 H491 0.950 . S
C511 C507 1.385 . S
C511 C510 1.374 . S
C512 C509 1.499 . S
C512 C513 1.373 . S
C512 C514 1.389 . S
C513 H492 0.950 . S
C513 C512 1.373 . S
C513 C529 1.377 . S
C514 C512 1.389 . S
C514 C515 1.524 . S
C514 C528 1.377 . S
C515 C514 1.524 . S
C515 C516 1.397 . S
C515 C520 1.363 . S
C516 H493 0.950 . S
C516 C515 1.397 . S
C516 C517 1.334 . S
C517 H494 0.950 . S
C517 C516 1.334 . S
C517 C518 1.287 . S
C518 C517 1.287 . S
C518 C519 1.524 . S
C518 H537 0.913 . S
C519 H495 0.950 . S
C519 C518 1.524 . S
C519 C520 1.415 . S
C520 H496 0.950 . S
C520 C515 1.363 . S
C520 C519 1.415 . S
C521 H497 0.951 . S
C521 C522 1.366 . S
C521 C523 1.388 . S
C522 C521 1.366 . S
C522 C526 1.385 . S
C523 H498 0.951 . S
C523 C521 1.388 . S
C523 C524 1.366 . S
C524 C523 1.366 . S
C524 C525 1.414 . S
C524 C527 1.499 . S
C525 H499 0.950 . S
C525 C524 1.414 . S
C525 C526 1.374 . S
C526 H500 0.950 . S
C526 C522 1.385 . S
C526 C525 1.374 . S
C527 C524 1.499 . S
C527 C528 1.373 . S
C527 C529 1.389 . S
C528 H501 0.950 . S
C528 C514 1.377 . S
C528 C527 1.373 . S
C529 C513 1.377 . S
C529 C527 1.389 . S
C529 C530 1.524 . S
C530 C529 1.524 . S
C530 C531 1.397 . S
C530 C535 1.363 . S
C531 H502 0.950 . S
C531 C530 1.397 . S
C531 C532 1.334 . S
C532 H503 0.950 . S
C532 C531 1.334 . S
C532 C533 1.287 . S
C533 C532 1.287 . S
C533 C534 1.524 . S
C533 H536 0.999 . S
C534 H504 0.950 . S
C534 C533 1.524 . S
C534 C535 1.415 . S
C535 H505 0.950 . S
C535 C530 1.363 . S
C535 C534 1.415 . S
H536 C533 0.999 . S
H537 C518 0.913 . S
H538 C556 0.951 . S
H539 C558 0.951 . S
H540 C560 0.950 . S
H541 C561 0.950 . S
H542 C563 0.950 . S
H543 C566 0.950 . S
H544 C567 0.950 . S
H545 C569 0.950 . S
H546 C570 0.950 . S
H547 C571 0.951 . S
H548 C573 0.951 . S
H549 C575 0.950 . S
H550 C576 0.932 1_655 S
H551 C578 0.950 . S
H552 C581 0.950 . S
H553 C582 0.950 . S
H554 C584 0.950 . S
H555 C585 0.950 . S
C556 H538 0.951 . S
C556 C557 1.366 . S
C556 C558 1.388 . S
C557 C556 1.366 . S
C557 C561 1.385 . S
C558 H539 0.951 . S
C558 C556 1.388 . S
C558 C559 1.366 . S
C559 C558 1.366 . S
C559 C560 1.414 . S
C559 C562 1.499 . S
C560 H540 0.950 . S
C560 C559 1.414 . S
C560 C561 1.374 . S
C561 H541 0.950 . S
C561 C557 1.385 . S
C561 C560 1.374 . S
C562 C559 1.499 . S
C562 C563 1.373 . S
C562 C564 1.389 . S
C563 H542 0.950 . S
C563 C562 1.373 . S
C563 C579 1.377 . S
C564 C562 1.389 . S
C564 C565 1.524 . S
C564 C578 1.377 . S
C565 C564 1.524 . S
C565 C566 1.397 . S
C565 C570 1.363 . S
C566 H543 0.950 . S
C566 C565 1.397 . S
C566 C567 1.334 . S
C567 H544 0.950 . S
C567 C566 1.334 . S
C567 C568 1.287 . S
C568 C567 1.287 . S
C568 C569 1.524 . S
C568 H587 0.913 . S
C569 H545 0.950 . S
C569 C568 1.524 . S
C569 C570 1.415 . S
C570 H546 0.950 . S
C570 C565 1.363 . S
C570 C569 1.415 . S
C571 H547 0.951 . S
C571 C572 1.366 . S
C571 C573 1.388 . S
C572 C571 1.366 . S
C572 C576 1.385 . S
C573 H548 0.951 . S
C573 C571 1.388 . S
C573 C574 1.366 . S
C574 C573 1.366 . S
C574 C575 1.414 . S
C574 C577 1.499 . S
C575 H549 0.950 . S
C575 C574 1.414 . S
C575 C576 1.374 . S
C576 H550 0.932 1_455 S
C576 C572 1.385 . S
C576 C575 1.374 . S
C577 C574 1.499 . S
C577 C578 1.373 . S
C577 C579 1.389 . S
C578 H551 0.950 . S
C578 C564 1.377 . S
C578 C577 1.373 . S
C579 C563 1.377 . S
C579 C577 1.389 . S
C579 C580 1.524 . S
C580 C579 1.524 . S
C580 C581 1.397 . S
C580 C585 1.363 . S
C581 H552 0.950 . S
C581 C580 1.397 . S
C581 C582 1.334 . S
C582 H553 0.950 . S
C582 C581 1.334 . S
C582 C583 1.287 . S
C583 C582 1.287 . S
C583 C584 1.524 . S
C583 H586 0.999 . S
C584 H554 0.950 . S
C584 C583 1.524 . S
C584 C585 1.415 . S
C585 H555 0.950 . S
C585 C580 1.363 . S
C585 C584 1.415 . S
H586 C583 0.999 . S
H587 C568 0.913 . S
H588 C606 0.951 . S
H589 C608 0.951 . S
H590 C610 0.950 . S
H591 C611 0.950 . S
H592 C613 0.950 . S
H593 C616 0.950 . S
H594 C617 0.950 . S
H595 C619 0.950 . S
H596 C620 0.950 . S
H597 C621 0.951 . S
H598 C623 0.951 . S
H599 C625 0.950 . S
H600 C626 0.950 . S
H601 C628 0.950 . S
H602 C631 0.950 . S
H603 C632 0.950 . S
H604 C634 0.950 . S
H605 C635 0.950 . S
C606 H588 0.951 . S
C606 C607 1.366 . S
C606 C608 1.388 . S
C607 C606 1.366 . S
C607 C611 1.385 . S
C608 H589 0.951 . S
C608 C606 1.388 . S
C608 C609 1.366 . S
C609 C608 1.366 . S
C609 C610 1.414 . S
C609 C612 1.499 . S
C610 H590 0.950 . S
C610 C609 1.414 . S
C610 C611 1.374 . S
C611 H591 0.950 . S
C611 C607 1.385 . S
C611 C610 1.374 . S
C612 C609 1.499 . S
C612 C613 1.373 . S
C612 C614 1.389 . S
C613 H592 0.950 . S
C613 C612 1.373 . S
C613 C629 1.377 . S
C614 C612 1.389 . S
C614 C615 1.524 . S
C614 C628 1.377 . S
C615 C614 1.524 . S
C615 C616 1.397 . S
C615 C620 1.363 . S
C616 H593 0.950 . S
C616 C615 1.397 . S
C616 C617 1.334 . S
C617 H594 0.950 . S
C617 C616 1.334 . S
C617 C618 1.287 . S
C618 C617 1.287 . S
C618 C619 1.524 . S
C618 H637 0.913 . S
C619 H595 0.950 . S
C619 C618 1.524 . S
C619 C620 1.415 . S
C620 H596 0.950 . S
C620 C615 1.363 . S
C620 C619 1.415 . S
C621 H597 0.951 . S
C621 C622 1.366 . S
C621 C623 1.388 . S
C622 C621 1.366 . S
C622 C626 1.385 . S
C623 H598 0.951 . S
C623 C621 1.388 . S
C623 C624 1.366 . S
C624 C623 1.366 . S
C624 C625 1.414 . S
C624 C627 1.499 . S
C625 H599 0.950 . S
C625 C624 1.414 . S
C625 C626 1.374 . S
C626 H600 0.950 . S
C626 C622 1.385 . S
C626 C625 1.374 . S
C627 C624 1.499 . S
C627 C628 1.373 . S
C627 C629 1.389 . S
C628 H601 0.950 . S
C628 C614 1.377 . S
C628 C627 1.373 . S
C629 C613 1.377 . S
C629 C627 1.389 . S
C629 C630 1.524 . S
C630 C629 1.524 . S
C630 C631 1.397 . S
C630 C635 1.363 . S
C631 H602 0.950 . S
C631 C630 1.397 . S
C631 C632 1.334 . S
C632 H603 0.950 . S
C632 C631 1.334 . S
C632 C633 1.287 . S
C633 C632 1.287 . S
C633 C634 1.524 . S
C633 H636 0.999 . S
C634 H604 0.950 . S
C634 C633 1.524 . S
C634 C635 1.415 . S
C635 H605 0.950 . S
C635 C630 1.363 . S
C635 C634 1.415 . S
H636 C633 0.999 . S
H637 C618 0.913 . S
H638 C656 0.951 . S
H639 C658 0.951 . S
H640 C660 0.950 . S
H641 C661 0.950 . S
H642 C663 0.950 . S
H643 C666 0.950 . S
H644 C667 0.950 . S
H645 C669 0.950 . S
H646 C670 0.950 . S
H647 C671 0.951 . S
H648 C673 0.951 . S
H649 C675 0.950 . S
H650 C676 0.922 1_455 S
H651 C678 0.950 . S
H652 C681 0.950 . S
H653 C682 0.950 . S
H654 C684 0.950 . S
H655 C685 0.950 . S
C656 H638 0.951 . S
C656 C657 1.366 . S
C656 C658 1.388 . S
C657 C656 1.366 . S
C657 C661 1.385 . S
C658 H639 0.951 . S
C658 C656 1.388 . S
C658 C659 1.366 . S
C659 C658 1.366 . S
C659 C660 1.414 . S
C659 C662 1.499 . S
C660 H640 0.950 . S
C660 C659 1.414 . S
C660 C661 1.374 . S
C661 H641 0.950 . S
C661 C657 1.385 . S
C661 C660 1.374 . S
C662 C659 1.499 . S
C662 C663 1.373 . S
C662 C664 1.389 . S
C663 H642 0.950 . S
C663 C662 1.373 . S
C663 C679 1.377 . S
C664 C662 1.389 . S
C664 C665 1.524 . S
C664 C678 1.377 . S
C665 C664 1.524 . S
C665 C666 1.397 . S
C665 C670 1.363 . S
C666 H643 0.950 . S
C666 C665 1.397 . S
C666 C667 1.334 . S
C667 H644 0.950 . S
C667 C666 1.334 . S
C667 C668 1.287 . S
C668 C667 1.287 . S
C668 C669 1.524 . S
C668 H687 0.913 . S
C669 H645 0.950 . S
C669 C668 1.524 . S
C669 C670 1.415 . S
C670 H646 0.950 . S
C670 C665 1.363 . S
C670 C669 1.415 . S
C671 H647 0.951 . S
C671 C672 1.366 . S
C671 C673 1.388 . S
C672 C671 1.366 . S
C672 C676 1.385 . S
C673 H648 0.951 . S
C673 C671 1.388 . S
C673 C674 1.366 . S
C674 C673 1.366 . S
C674 C675 1.414 . S
C674 C677 1.499 . S
C675 H649 0.950 . S
C675 C674 1.414 . S
C675 C676 1.374 . S
C676 H650 0.922 1_655 S
C676 C672 1.385 . S
C676 C675 1.374 . S
C677 C674 1.499 . S
C677 C678 1.373 . S
C677 C679 1.389 . S
C678 H651 0.950 . S
C678 C664 1.377 . S
C678 C677 1.373 . S
C679 C663 1.377 . S
C679 C677 1.389 . S
C679 C680 1.524 . S
C680 C679 1.524 . S
C680 C681 1.397 . S
C680 C685 1.363 . S
C681 H652 0.950 . S
C681 C680 1.397 . S
C681 C682 1.334 . S
C682 H653 0.950 . S
C682 C681 1.334 . S
C682 C683 1.287 . S
C683 C682 1.287 . S
C683 C684 1.524 . S
C683 H686 0.999 . S
C684 H654 0.950 . S
C684 C683 1.524 . S
C684 C685 1.415 . S
C685 H655 0.950 . S
C685 C680 1.363 . S
C685 C684 1.415 . S
H686 C683 0.999 . S
H687 C668 0.913 . S
H688 C706 0.951 1_556 S
H689 C708 0.967 . S
H690 C710 0.950 . S
H691 C711 0.950 . S
H692 C713 0.950 . S
H693 C716 0.950 . S
H694 C717 0.950 . S
H695 C719 0.950 . S
H696 C720 0.950 . S
H697 C721 0.951 . S
H698 C723 0.951 . S
H699 C725 0.950 . S
H700 C726 0.950 . S
H701 C728 0.950 . S
H702 C731 0.950 . S
H703 C732 0.950 . S
H704 C734 0.950 . S
H705 C735 0.950 . S
C706 H688 0.951 1_554 S
C706 C707 1.366 . S
C706 C708 1.383 1_554 S
C707 C706 1.366 . S
C707 C711 1.385 . S
C708 H689 0.967 . S
C708 C706 1.383 1_556 S
C708 C709 1.354 1_556 S
C709 C708 1.354 1_554 S
C709 C710 1.414 . S
C709 C712 1.499 . S
C710 H690 0.950 . S
C710 C709 1.414 . S
C710 C711 1.374 . S
C711 H691 0.950 . S
C711 C707 1.385 . S
C711 C710 1.374 . S
C712 C709 1.499 . S
C712 C713 1.373 . S
C712 C714 1.389 1_554 S
C713 H692 0.950 . S
C713 C712 1.373 . S
C713 C729 1.377 . S
C714 C712 1.389 1_556 S
C714 C715 1.524 . S
C714 C728 1.377 . S
C715 C714 1.524 . S
C715 C716 1.397 . S
C715 C720 1.363 . S
C716 H693 0.950 . S
C716 C715 1.397 . S
C716 C717 1.334 . S
C717 H694 0.950 . S
C717 C716 1.334 . S
C717 C718 1.287 . S
C718 C717 1.287 . S
C718 C719 1.524 . S
C718 H737 0.913 . S
C719 H695 0.950 . S
C719 C718 1.524 . S
C719 C720 1.415 . S
C720 H696 0.950 . S
C720 C715 1.363 . S
C720 C719 1.415 . S
C721 H697 0.951 . S
C721 C722 1.366 1_554 S
C721 C723 1.388 . S
C722 C721 1.366 1_556 S
C722 C726 1.385 . S
C723 H698 0.951 . S
C723 C721 1.388 . S
C723 C724 1.366 1_554 S
C724 C723 1.366 1_556 S
C724 C725 1.414 . S
C724 C727 1.504 . S
C725 H699 0.950 . S
C725 C724 1.414 . S
C725 C726 1.374 . S
C726 H700 0.950 . S
C726 C722 1.385 . S
C726 C725 1.374 . S
C727 C724 1.504 . S
C727 C728 1.400 . S
C727 C729 1.359 1_556 S
C728 H701 0.950 . S
C728 C714 1.377 . S
C728 C727 1.400 . S
C729 C713 1.377 . S
C729 C727 1.359 1_554 S
C729 C730 1.524 . S
C730 C729 1.524 . S
C730 C731 1.397 . S
C730 C735 1.363 . S
C731 H702 0.950 . S
C731 C730 1.397 . S
C731 C732 1.334 . S
C732 H703 0.950 . S
C732 C731 1.334 . S
C732 C733 1.287 . S
C733 C732 1.287 . S
C733 C734 1.524 . S
C733 H736 0.999 . S
C734 H704 0.950 . S
C734 C733 1.524 . S
C734 C735 1.415 . S
C735 H705 0.950 . S
C735 C730 1.363 . S
C735 C734 1.415 . S
H736 C733 0.999 . S
H737 C718 0.913 . S
H738 C756 0.951 . S
H739 C758 0.951 . S
H740 C760 0.950 . S
H741 C761 0.950 1_556 S
H742 C763 0.950 . S
H743 C766 0.950 . S
H744 C767 0.950 . S
H745 C769 0.950 . S
H746 C770 0.950 . S
H747 C771 0.951 . S
H748 C773 0.951 . S
H749 C775 0.950 1_554 S
H750 C776 0.956 . S
H751 C778 0.950 . S
H752 C781 0.950 . S
H753 C782 0.950 . S
H754 C784 0.950 . S
H755 C785 0.950 1_556 S
C756 H738 0.951 . S
C756 C757 1.366 . S
C756 C758 1.388 . S
C757 C756 1.366 . S
C757 C761 1.385 . S
C758 H739 0.951 . S
C758 C756 1.388 . S
C758 C759 1.366 . S
C759 C758 1.366 . S
C759 C760 1.414 1_554 S
C759 C762 1.497 1_554 S
C760 H740 0.950 . S
C760 C759 1.414 1_556 S
C760 C761 1.374 1_556 S
C761 H741 0.950 1_554 S
C761 C757 1.385 . S
C761 C760 1.374 1_554 S
C762 C759 1.497 1_556 S
C762 C763 1.371 1_556 S
C762 C764 1.393 . S
C763 H742 0.950 . S
C763 C762 1.371 1_554 S
C763 C779 1.377 . S
C764 C762 1.393 . S
C764 C765 1.524 . S
C764 C778 1.377 . S
C765 C764 1.524 . S
C765 C766 1.397 . S
C765 C770 1.363 . S
C766 H743 0.950 . S
C766 C765 1.397 . S
C766 C767 1.334 . S
C767 H744 0.950 . S
C767 C766 1.334 . S
C767 C768 1.287 . S
C768 C767 1.287 . S
C768 C769 1.524 . S
C768 H787 0.913 . S
C769 H745 0.950 . S
C769 C768 1.524 . S
C769 C770 1.415 . S
C770 H746 0.950 . S
C770 C765 1.363 . S
C770 C769 1.415 . S
C771 H747 0.951 . S
C771 C772 1.366 . S
C771 C773 1.388 . S
C772 C771 1.366 . S
C772 C776 1.385 . S
C773 H748 0.951 . S
C773 C771 1.388 . S
C773 C774 1.366 . S
C774 C773 1.366 . S
C774 C775 1.414 . S
C774 C777 1.499 . S
C775 H749 0.950 1_556 S
C775 C774 1.414 . S
C775 C776 1.374 . S
C776 H750 0.956 . S
C776 C772 1.385 . S
C776 C775 1.374 . S
C777 C774 1.499 . S
C777 C778 1.373 . S
C777 C779 1.389 1_556 S
C778 H751 0.950 . S
C778 C764 1.377 . S
C778 C777 1.373 . S
C779 C763 1.377 . S
C779 C777 1.389 1_554 S
C779 C780 1.524 . S
C780 C779 1.524 . S
C780 C781 1.397 . S
C780 C785 1.363 . S
C781 H752 0.950 . S
C781 C780 1.397 . S
C781 C782 1.334 . S
C782 H753 0.950 . S
C782 C781 1.334 . S
C782 C783 1.287 . S
C783 C782 1.287 . S
C783 C784 1.524 . S
C783 H786 0.999 . S
C784 H754 0.950 . S
C784 C783 1.524 . S
C784 C785 1.415 . S
C785 H755 0.950 1_554 S
C785 C780 1.363 . S
C785 C784 1.415 . S
H786 C783 0.999 . S
H787 C768 0.913 . S
H788 C806 0.951 1_556 S
H789 C808 0.951 1_556 S
H790 C810 0.950 . S
H791 C811 0.950 . S
H792 C813 0.955 . S
H793 C816 0.950 . S
H794 C817 0.950 . S
H795 C819 0.950 . S
H796 C820 0.950 1_556 S
H797 C821 0.951 . S
H798 C823 0.951 . S
H799 C825 0.950 . S
H800 C826 0.950 . S
H801 C828 0.950 . S
H802 C831 0.950 . S
H803 C832 0.950 . S
H804 C834 0.950 . S
H805 C835 0.950 1_554 S
C806 H788 0.951 1_554 S
C806 C807 1.366 . S
C806 C808 1.388 . S
C807 C806 1.366 . S
C807 C811 1.385 . S
C808 H789 0.951 1_554 S
C808 C806 1.388 . S
C808 C809 1.366 . S
C809 C808 1.366 . S
C809 C810 1.414 . S
C809 C812 1.499 . S
C810 H790 0.950 . S
C810 C809 1.414 . S
C810 C811 1.374 . S
C811 H791 0.950 . S
C811 C807 1.385 . S
C811 C810 1.374 . S
C812 C809 1.499 . S
C812 C813 1.363 1_554 S
C812 C814 1.389 . S
C813 H792 0.955 . S
C813 C812 1.363 1_556 S
C813 C829 1.384 . S
C814 C812 1.389 . S
C814 C815 1.524 . S
C814 C828 1.377 . S
C815 C814 1.524 . S
C815 C816 1.397 . S
C815 C820 1.363 . S
C816 H793 0.950 . S
C816 C815 1.397 . S
C816 C817 1.334 . S
C817 H794 0.950 . S
C817 C816 1.334 . S
C817 C818 1.287 . S
C818 C817 1.287 . S
C818 C819 1.524 . S
C818 H837 0.913 . S
C819 H795 0.950 . S
C819 C818 1.524 . S
C819 C820 1.415 . S
C820 H796 0.950 1_554 S
C820 C815 1.363 . S
C820 C819 1.415 . S
C821 H797 0.951 . S
C821 C822 1.366 1_554 S
C821 C823 1.388 . S
C822 C821 1.366 1_556 S
C822 C826 1.385 . S
C823 H798 0.951 . S
C823 C821 1.388 . S
C823 C824 1.366 1_554 S
C824 C823 1.366 1_556 S
C824 C825 1.414 . S
C824 C827 1.499 . S
C825 H799 0.950 . S
C825 C824 1.414 . S
C825 C826 1.374 . S
C826 H800 0.950 . S
C826 C822 1.385 . S
C826 C825 1.374 . S
C827 C824 1.499 . S
C827 C828 1.373 1_556 S
C827 C829 1.389 . S
C828 H801 0.950 . S
C828 C814 1.377 . S
C828 C827 1.373 1_554 S
C829 C813 1.384 . S
C829 C827 1.389 . S
C829 C830 1.524 . S
C830 C829 1.524 . S
C830 C831 1.397 . S
C830 C835 1.363 . S
C831 H802 0.950 . S
C831 C830 1.397 . S
C831 C832 1.334 . S
C832 H803 0.950 . S
C832 C831 1.334 . S
C832 C833 1.287 . S
C833 C832 1.287 . S
C833 C834 1.524 . S
C833 H836 0.999 . S
C834 H804 0.950 . S
C834 C833 1.524 . S
C834 C835 1.415 . S
C835 H805 0.950 1_556 S
C835 C830 1.363 . S
C835 C834 1.415 . S
H836 C833 0.999 . S
H837 C818 0.913 . S
H838 C856 0.951 . S
H839 C858 0.951 . S
H840 C860 0.950 . S
H841 C861 0.950 . S
H842 C863 0.950 . S
H843 C866 0.950 . S
H844 C867 0.950 . S
H845 C869 0.950 . S
H846 C870 0.950 . S
H847 C871 0.951 . S
H848 C873 0.943 1_556 S
H849 C875 0.950 . S
H850 C876 0.950 . S
H851 C878 0.950 . S
H852 C881 0.950 . S
H853 C882 0.950 . S
H854 C884 0.950 . S
H855 C885 0.950 . S
C856 H838 0.951 . S
C856 C857 1.366 . S
C856 C858 1.388 . S
C857 C856 1.366 . S
C857 C861 1.385 . S
C858 H839 0.951 . S
C858 C856 1.388 . S
C858 C859 1.366 . S
C859 C858 1.366 . S
C859 C860 1.414 . S
C859 C862 1.499 . S
C860 H840 0.950 . S
C860 C859 1.414 . S
C860 C861 1.374 . S
C861 H841 0.950 . S
C861 C857 1.385 . S
C861 C860 1.374 . S
C862 C859 1.499 . S
C862 C863 1.373 . S
C862 C864 1.389 1_556 S
C863 H842 0.950 . S
C863 C862 1.373 . S
C863 C879 1.377 . S
C864 C862 1.389 1_554 S
C864 C865 1.524 . S
C864 C878 1.377 . S
C865 C864 1.524 . S
C865 C866 1.397 . S
C865 C870 1.363 . S
C866 H843 0.950 . S
C866 C865 1.397 . S
C866 C867 1.334 . S
C867 H844 0.950 . S
C867 C866 1.334 . S
C867 C868 1.287 . S
C868 C867 1.287 . S
C868 C869 1.524 . S
C868 H887 0.913 . S
C869 H845 0.950 . S
C869 C868 1.524 . S
C869 C870 1.415 . S
C870 H846 0.950 . S
C870 C865 1.363 . S
C870 C869 1.415 . S
C871 H847 0.951 . S
C871 C872 1.366 . S
C871 C873 1.388 . S
C872 C871 1.366 . S
C872 C876 1.385 . S
C873 H848 0.943 1_554 S
C873 C871 1.388 . S
C873 C874 1.366 . S
C874 C873 1.366 . S
C874 C875 1.414 . S
C874 C877 1.499 . S
C875 H849 0.950 . S
C875 C874 1.414 . S
C875 C876 1.374 . S
C876 H850 0.950 . S
C876 C872 1.385 . S
C876 C875 1.374 . S
C877 C874 1.499 . S
C877 C878 1.374 . S
C877 C879 1.388 1_554 S
C878 H851 0.950 . S
C878 C864 1.377 . S
C878 C877 1.374 . S
C879 C863 1.377 . S
C879 C877 1.388 1_556 S
C879 C880 1.524 . S
C880 C879 1.524 . S
C880 C881 1.397 . S
C880 C885 1.363 . S
C881 H852 0.950 . S
C881 C880 1.397 . S
C881 C882 1.334 . S
C882 H853 0.950 . S
C882 C881 1.334 . S
C882 C883 1.287 . S
C883 C882 1.287 . S
C883 C884 1.524 . S
C883 H886 0.999 . S
C884 H854 0.950 . S
C884 C883 1.524 . S
C884 C885 1.415 . S
C885 H855 0.950 . S
C885 C880 1.363 . S
C885 C884 1.415 . S
H886 C883 0.999 . S
H887 C868 0.913 . S
H888 C906 0.951 . S
H889 C908 0.951 . S
H890 C910 0.950 . S
H891 C911 0.950 . S
H892 C913 0.950 . S
H893 C916 0.950 . S
H894 C917 0.950 . S
H895 C919 0.950 . S
H896 C920 0.950 . S
H897 C921 0.951 . S
H898 C923 0.951 . S
H899 C925 0.950 . S
H900 C926 0.950 . S
H901 C928 0.950 . S
H902 C931 0.950 . S
H903 C932 0.950 . S
H904 C934 0.950 . S
H905 C935 0.950 . S
C906 H888 0.951 . S
C906 C907 1.366 . S
C906 C908 1.388 . S
C907 C906 1.366 . S
C907 C911 1.385 . S
C908 H889 0.951 . S
C908 C906 1.388 . S
C908 C909 1.366 . S
C909 C908 1.366 . S
C909 C910 1.414 . S
C909 C912 1.499 . S
C910 H890 0.950 . S
C910 C909 1.414 . S
C910 C911 1.374 . S
C911 H891 0.950 . S
C911 C907 1.385 . S
C911 C910 1.374 . S
C912 C909 1.499 . S
C912 C913 1.373 . S
C912 C914 1.389 1_655 S
C913 H892 0.950 . S
C913 C912 1.373 . S
C913 C929 1.377 . S
C914 C912 1.389 1_455 S
C914 C915 1.524 . S
C914 C928 1.377 . S
C915 C914 1.524 . S
C915 C916 1.397 . S
C915 C920 1.363 . S
C916 H893 0.950 . S
C916 C915 1.397 . S
C916 C917 1.334 . S
C917 H894 0.950 . S
C917 C916 1.334 . S
C917 C918 1.287 . S
C918 C917 1.287 . S
C918 C919 1.524 . S
C918 H937 0.913 . S
C919 H895 0.950 . S
C919 C918 1.524 . S
C919 C920 1.415 . S
C920 H896 0.950 . S
C920 C915 1.363 . S
C920 C919 1.415 . S
C921 H897 0.951 . S
C921 C922 1.366 . S
C921 C923 1.388 . S
C922 C921 1.366 . S
C922 C926 1.385 . S
C923 H898 0.951 . S
C923 C921 1.388 . S
C923 C924 1.366 . S
C924 C923 1.366 . S
C924 C925 1.414 . S
C924 C927 1.499 . S
C925 H899 0.950 . S
C925 C924 1.414 . S
C925 C926 1.374 . S
C926 H900 0.950 . S
C926 C922 1.385 . S
C926 C925 1.374 . S
C927 C924 1.499 . S
C927 C928 1.373 . S
C927 C929 1.389 1_455 S
C928 H901 0.950 . S
C928 C914 1.377 . S
C928 C927 1.373 . S
C929 C913 1.377 . S
C929 C927 1.389 1_655 S
C929 C930 1.524 . S
C930 C929 1.524 . S
C930 C931 1.397 . S
C930 C935 1.363 . S
C931 H902 0.950 . S
C931 C930 1.397 . S
C931 C932 1.334 . S
C932 H903 0.950 . S
C932 C931 1.334 . S
C932 C933 1.287 . S
C933 C932 1.287 . S
C933 C934 1.524 . S
C933 H936 0.999 . S
C934 H904 0.950 . S
C934 C933 1.524 . S
C934 C935 1.415 . S
C935 H905 0.950 . S
C935 C930 1.363 . S
C935 C934 1.415 . S
H936 C933 0.999 . S
H937 C918 0.913 . S
H938 C956 0.951 . S
H939 C958 0.951 . S
H940 C960 0.950 . S
H941 C961 0.950 . S
H942 C963 0.950 . S
H943 C966 0.950 . S
H944 C967 0.950 . S
H945 C969 0.950 . S
H946 C970 0.950 . S
H947 C971 0.951 . S
H948 C973 0.951 . S
H949 C975 0.950 . S
H950 C976 0.950 . S
H951 C978 0.950 . S
H952 C981 0.950 . S
H953 C982 0.950 . S
H954 C984 0.950 . S
H955 C985 0.950 . S
C956 H938 0.951 . S
C956 C957 1.366 . S
C956 C958 1.388 . S
C957 C956 1.366 . S
C957 C961 1.385 . S
C958 H939 0.951 . S
C958 C956 1.388 . S
C958 C959 1.366 . S
C959 C958 1.366 . S
C959 C960 1.414 . S
C959 C962 1.499 . S
C960 H940 0.950 . S
C960 C959 1.414 . S
C960 C961 1.374 . S
C961 H941 0.950 . S
C961 C957 1.385 . S
C961 C960 1.374 . S
C962 C959 1.499 . S
C962 C963 1.373 . S
C962 C964 1.389 1_545 S
C963 H942 0.950 . S
C963 C962 1.373 . S
C963 C979 1.377 . S
C964 C962 1.389 1_565 S
C964 C965 1.524 . S
C964 C978 1.377 . S
C965 C964 1.524 . S
C965 C966 1.397 . S
C965 C970 1.363 . S
C966 H943 0.950 . S
C966 C965 1.397 . S
C966 C967 1.334 . S
C967 H944 0.950 . S
C967 C966 1.334 . S
C967 C968 1.287 . S
C968 C967 1.287 . S
C968 C969 1.524 . S
C968 H987 0.913 . S
C969 H945 0.950 . S
C969 C968 1.524 . S
C969 C970 1.415 . S
C970 H946 0.950 . S
C970 C965 1.363 . S
C970 C969 1.415 . S
C971 H947 0.951 . S
C971 C972 1.366 . S
C971 C973 1.388 . S
C972 C971 1.366 . S
C972 C976 1.385 . S
C973 H948 0.951 . S
C973 C971 1.388 . S
C973 C974 1.366 . S
C974 C973 1.366 . S
C974 C975 1.414 . S
C974 C977 1.499 . S
C975 H949 0.950 . S
C975 C974 1.414 . S
C975 C976 1.374 . S
C976 H950 0.950 . S
C976 C972 1.385 . S
C976 C975 1.374 . S
C977 C974 1.499 . S
C977 C978 1.373 . S
C977 C979 1.389 1_565 S
C978 H951 0.950 . S
C978 C964 1.377 . S
C978 C977 1.373 . S
C979 C963 1.377 . S
C979 C977 1.389 1_545 S
C979 C980 1.524 . S
C980 C979 1.524 . S
C980 C981 1.397 . S
C980 C985 1.363 . S
C981 H952 0.950 . S
C981 C980 1.397 . S
C981 C982 1.334 . S
C982 H953 0.950 . S
C982 C981 1.334 . S
C982 C983 1.287 . S
C983 C982 1.287 . S
C983 C984 1.524 . S
C983 H986 0.999 . S
C984 H954 0.950 . S
C984 C983 1.524 . S
C984 C985 1.415 . S
C985 H955 0.950 . S
C985 C980 1.363 . S
C985 C984 1.415 . S
H986 C983 0.999 . S
H987 C968 0.913 . S
H988 C1006 0.951 . S
H989 C1008 0.951 . S
H990 C1010 0.950 . S
H991 C1011 0.950 . S
H992 C1013 0.974 . S
H993 C1016 0.950 . S
H994 C1017 0.950 . S
H995 C1019 0.950 . S
H996 C1020 0.950 1_565 S
H997 C1021 0.951 . S
H998 C1023 0.951 . S
H999 C1025 0.950 . S
H1000 C1026 0.950 . S
H1001 C1028 0.950 . S
H1002 C1031 0.950 . S
H1003 C1032 0.950 . S
H1004 C1034 0.950 . S
H1005 C1035 0.950 1_545 S
C1006 H988 0.951 . S
C1006 C1007 1.366 . S
C1006 C1008 1.388 . S
C1007 C1006 1.366 . S
C1007 C1011 1.385 . S
C1008 H989 0.951 . S
C1008 C1006 1.388 . S
C1008 C1009 1.366 . S
C1009 C1008 1.366 . S
C1009 C1010 1.414 . S
C1009 C1012 1.499 . S
C1010 H990 0.950 . S
C1010 C1009 1.414 . S
C1010 C1011 1.374 . S
C1011 H991 0.950 . S
C1011 C1007 1.385 . S
C1011 C1010 1.374 . S
C1012 C1009 1.499 . S
C1012 C1013 1.349 1_556 S
C1012 C1014 1.389 . S
C1013 H992 0.974 . S
C1013 C1012 1.349 1_554 S
C1013 C1029 1.378 1_545 S
C1014 C1012 1.389 . S
C1014 C1015 1.524 . S
C1014 C1028 1.377 1_545 S
C1015 C1014 1.524 . S
C1015 C1016 1.397 . S
C1015 C1020 1.363 . S
C1016 H993 0.950 . S
C1016 C1015 1.397 . S
C1016 C1017 1.334 . S
C1017 H994 0.950 . S
C1017 C1016 1.334 . S
C1017 C1018 1.287 . S
C1018 C1017 1.287 . S
C1018 C1019 1.524 . S
C1018 H1037 0.913 . S
C1019 H995 0.950 . S
C1019 C1018 1.524 . S
C1019 C1020 1.415 . S
C1020 H996 0.950 1_545 S
C1020 C1015 1.363 . S
C1020 C1019 1.415 . S
C1021 H997 0.951 . S
C1021 C1022 1.366 . S
C1021 C1023 1.388 . S
C1022 C1021 1.366 . S
C1022 C1026 1.385 . S
C1023 H998 0.951 . S
C1023 C1021 1.388 . S
C1023 C1024 1.366 . S
C1024 C1023 1.366 . S
C1024 C1025 1.414 . S
C1024 C1027 1.499 . S
C1025 H999 0.950 . S
C1025 C1024 1.414 . S
C1025 C1026 1.374 . S
C1026 H1000 0.950 . S
C1026 C1022 1.385 . S
C1026 C1025 1.374 . S
C1027 C1024 1.499 . S
C1027 C1028 1.373 . S
C1027 C1029 1.389 1_556 S
C1028 H1001 0.950 . S
C1028 C1014 1.377 1_565 S
C1028 C1027 1.373 . S
C1029 C1013 1.378 1_565 S
C1029 C1027 1.389 1_554 S
C1029 C1030 1.524 . S
C1030 C1029 1.524 . S
C1030 C1031 1.397 . S
C1030 C1035 1.363 . S
C1031 H1002 0.950 . S
C1031 C1030 1.397 . S
C1031 C1032 1.334 . S
C1032 H1003 0.950 . S
C1032 C1031 1.334 . S
C1032 C1033 1.287 . S
C1033 C1032 1.287 . S
C1033 C1034 1.524 . S
C1033 H1036 0.999 . S
C1034 H1004 0.950 . S
C1034 C1033 1.524 . S
C1034 C1035 1.415 . S
C1035 H1005 0.950 1_565 S
C1035 C1030 1.363 . S
C1035 C1034 1.415 . S
H1036 C1033 0.999 . S
H1037 C1018 0.913 . S
H1038 C1056 0.951 . S
H1039 C1058 0.951 . S
H1040 C1060 0.950 . S
H1041 C1061 0.950 . S
H1042 C1063 0.950 . S
H1043 C1066 0.950 . S
H1044 C1067 0.950 . S
H1045 C1069 0.950 . S
H1046 C1070 0.950 . S
H1047 C1071 0.951 . S
H1048 C1073 0.951 . S
H1049 C1075 0.950 . S
H1050 C1076 0.950 . S
H1051 C1078 0.950 . S
H1052 C1081 0.950 . S
H1053 C1082 0.950 . S
H1054 C1084 0.950 . S
H1055 C1085 0.950 . S
C1056 H1038 0.951 . S
C1056 C1057 1.366 . S
C1056 C1058 1.388 . S
C1057 C1056 1.366 . S
C1057 C1061 1.385 . S
C1058 H1039 0.951 . S
C1058 C1056 1.388 . S
C1058 C1059 1.366 . S
C1059 C1058 1.366 . S
C1059 C1060 1.414 . S
C1059 C1062 1.499 . S
C1060 H1040 0.950 . S
C1060 C1059 1.414 . S
C1060 C1061 1.374 . S
C1061 H1041 0.950 . S
C1061 C1057 1.385 . S
C1061 C1060 1.374 . S
C1062 C1059 1.499 . S
C1062 C1063 1.373 . S
C1062 C1064 1.389 . S
C1063 H1042 0.950 . S
C1063 C1062 1.373 . S
C1063 C1079 1.377 1_455 S
C1064 C1062 1.389 . S
C1064 C1065 1.524 . S
C1064 C1078 1.377 1_455 S
C1065 C1064 1.524 . S
C1065 C1066 1.397 . S
C1065 C1070 1.363 . S
C1066 H1043 0.950 . S
C1066 C1065 1.397 . S
C1066 C1067 1.334 . S
C1067 H1044 0.950 . S
C1067 C1066 1.334 . S
C1067 C1068 1.287 . S
C1068 C1067 1.287 . S
C1068 C1069 1.524 . S
C1068 H1087 0.913 . S
C1069 H1045 0.950 . S
C1069 C1068 1.524 . S
C1069 C1070 1.415 . S
C1070 H1046 0.950 . S
C1070 C1065 1.363 . S
C1070 C1069 1.415 . S
C1071 H1047 0.951 . S
C1071 C1072 1.366 . S
C1071 C1073 1.388 . S
C1072 C1071 1.366 . S
C1072 C1076 1.385 . S
C1073 H1048 0.951 . S
C1073 C1071 1.388 . S
C1073 C1074 1.366 . S
C1074 C1073 1.366 . S
C1074 C1075 1.414 . S
C1074 C1077 1.499 . S
C1075 H1049 0.950 . S
C1075 C1074 1.414 . S
C1075 C1076 1.374 . S
C1076 H1050 0.950 . S
C1076 C1072 1.385 . S
C1076 C1075 1.374 . S
C1077 C1074 1.499 . S
C1077 C1078 1.373 . S
C1077 C1079 1.389 . S
C1078 H1051 0.950 . S
C1078 C1064 1.377 1_655 S
C1078 C1077 1.373 . S
C1079 C1063 1.377 1_655 S
C1079 C1077 1.389 . S
C1079 C1080 1.524 1_554 S
C1080 C1079 1.524 1_556 S
C1080 C1081 1.397 . S
C1080 C1085 1.363 1_556 S
C1081 H1052 0.950 . S
C1081 C1080 1.397 . S
C1081 C1082 1.334 . S
C1082 H1053 0.950 . S
C1082 C1081 1.334 . S
C1082 C1083 1.287 . S
C1083 C1082 1.287 . S
C1083 C1084 1.524 . S
C1083 H1086 0.999 . S
C1084 H1054 0.950 . S
C1084 C1083 1.524 . S
C1084 C1085 1.415 1_556 S
C1085 H1055 0.950 . S
C1085 C1080 1.363 1_554 S
C1085 C1084 1.415 1_554 S
H1086 C1083 0.999 . S
H1087 C1068 0.913 . S
C307 C255 1.554 . S
C322 C3 1.554 . S
C357 C39 1.554 . S
C372 C147 1.554 . S
C407 C75 1.554 . S
C422 C183 1.554 . S
C457 C219 1.554 . S
C472 C111 1.554 . S
C507 C40 1.387 1_545 S
C522 C14 1.337 . S
C557 C50 1.337 . S
C572 C76 1.387 1_455 S
C607 C112 1.387 1_565 S
C622 C86 1.336 . S
C657 C122 1.336 . S
C672 C4 1.387 1_655 S
C707 C256 1.387 . S
C722 C158 1.337 . S
C757 C194 1.338 . S
C772 C148 1.387 . S
C807 C184 1.387 . S
C822 C230 1.336 . S
C857 C220 1.387 . S
C872 C266 1.337 . S
C907 C74 0.715 . S
C922 C2 0.715 . S
C957 C110 0.714 . S
C972 C38 0.715 . S
C1007 C218 0.715 . S
C1022 C146 0.713 . S
C1057 C254 0.715 . S
C1072 C182 0.714 . S
