# Generated by pormake.
# Topology bcg, (8)-cn, num edge types: 1
# Building blocks:
#     Node 0, Type 0, BuildingBlock: TAGTUT_clean_sbu_1, # of connection points: 8
#     Node 1, Type 0, BuildingBlock: TAGTUT_clean_sbu_1, # of connection points: 8
#     Node 2, Type 0, BuildingBlock: TAGTUT_clean_sbu_1, # of connection points: 8
#     Node 3, Type 0, BuildingBlock: TAGTUT_clean_sbu_1, # of connection points: 8
#     Edge 4, Type (0, 0), BuildingBlock: CIFDUS_clean_linker_0, # of connection points: 2
#     Edge 5, Type (0, 0), BuildingBlock: CIFDUS_clean_linker_0, # of connection points: 2
#     Edge 6, Type (0, 0), BuildingBlock: CIFDUS_clean_linker_0, # of connection points: 2
#     Edge 7, Type (0, 0), BuildingBlock: CIFDUS_clean_linker_0, # of connection points: 2
#     Edge 8, Type (0, 0), BuildingBlock: CIFDUS_clean_linker_0, # of connection points: 2
#     Edge 9, Type (0, 0), BuildingBlock: CIFDUS_clean_linker_0, # of connection points: 2
#     Edge 10, Type (0, 0), BuildingBlock: CIFDUS_clean_linker_0, # of connection points: 2
#     Edge 11, Type (0, 0), BuildingBlock: CIFDUS_clean_linker_0, # of connection points: 2
#     Edge 12, Type (0, 0), BuildingBlock: CIFDUS_clean_linker_0, # of connection points: 2
#     Edge 13, Type (0, 0), BuildingBlock: CIFDUS_clean_linker_0, # of connection points: 2
#     Edge 14, Type (0, 0), BuildingBlock: CIFDUS_clean_linker_0, # of connection points: 2
#     Edge 15, Type (0, 0), BuildingBlock: CIFDUS_clean_linker_0, # of connection points: 2
#     Edge 16, Type (0, 0), BuildingBlock: CIFDUS_clean_linker_0, # of connection points: 2
#     Edge 17, Type (0, 0), BuildingBlock: CIFDUS_clean_linker_0, # of connection points: 2
#     Edge 18, Type (0, 0), BuildingBlock: CIFDUS_clean_linker_0, # of connection points: 2
#     Edge 19, Type (0, 0), BuildingBlock: CIFDUS_clean_linker_0, # of connection points: 2
# Relax obj value: 0.096
# Max RMSD: 0.208
# Mean RMSD: 0.208
data_MOF--net-bcg--node1-TAGTUT_clean_sbu_1--edge1-CIFDUS_clean_linker_0
_symmetry_space_group_name_H-M    P1
_symmetry_Int_Tables_number       1
_symmetry_cell_setting            triclinic
loop_
_symmetry_equiv_pos_as_xyz
'x, y, z'
_cell_length_a     13.443695
_cell_length_b     23.445993
_cell_length_c     30.695045
_cell_angle_alpha  82.176145
_cell_angle_beta   89.926785
_cell_angle_gamma 89.534467
loop_
_atom_site_label
_atom_site_type_symbol
_atom_site_fract_x
_atom_site_fract_y
_atom_site_fract_z
_atom_type_partial_charge
C0 C 0.21898 0.22697 0.16466 0.0
C1 C 0.47899 0.26654 0.09401 0.0
C2 C 0.29042 0.40595 0.97561 0.0
Mg3 Mg 0.31237 0.18147 0.08355 0.0
O4 O 0.24024 0.24288 0.05365 0.0
Mg5 Mg 0.24723 0.321 0.07162 0.0
Mg6 Mg 0.26463 0.26495 -0.01042 0.0
O7 O 0.28798 0.28718 0.92544 0.0
Mg8 Mg 0.21038 0.34681 0.89611 0.0
Mg9 Mg 0.28178 0.20879 0.90755 0.0
C10 C 0.22922 0.12489 0.00359 0.0
C11 C 0.48418 0.22667 0.96374 0.0
O12 O 0.21154 0.27763 0.14268 0.0
O13 O 0.25124 0.18336 0.14781 0.0
O14 O 0.41232 0.30641 0.09074 0.0
O15 O 0.45978 0.2155 0.08611 0.0
O16 O 0.25552 0.11758 0.04423 0.0
O17 O 0.24296 0.17314 0.9793 0.0
C18 C 0.04502 0.30361 0.01534 0.0
O19 O 0.10103 0.28256 -0.01226 0.0
O20 O 0.08079 0.32343 0.04919 0.0
O21 O 0.31538 0.2528 0.83664 0.0
O22 O 0.27168 0.34657 0.83162 0.0
O23 O 0.11645 0.22079 0.88901 0.0
C24 C 0.30584 0.3034 0.81475 0.0
O25 O 0.06442 0.31072 0.89364 0.0
O26 O 0.2598 0.41231 0.93556 0.0
C27 C 0.04767 0.2593 0.88606 0.0
O28 O 0.28732 0.35672 -0.00032 0.0
O29 O 0.42811 0.24731 -0.00848 0.0
O30 O 0.44849 0.20733 0.92968 0.0
C31 C 0.70195 0.75695 0.16097 0.0
C32 C 0.95768 0.7841 0.08559 0.0
C33 C 0.78126 0.91805 0.96563 0.0
Mg34 Mg 0.7856 0.70114 0.08235 0.0
O35 O 0.7162 0.76098 0.04948 0.0
Mg36 Mg 0.72807 0.84107 0.06332 0.0
Mg37 Mg 0.74338 0.77811 -0.01503 0.0
O38 O 0.76946 0.79596 0.92079 0.0
Mg39 Mg 0.69768 0.85621 0.88913 0.0
Mg40 Mg 0.7618 0.71651 0.90558 0.0
C41 C 0.70452 0.63838 0.00504 0.0
C42 C 0.96356 0.73747 0.96128 0.0
O43 O 0.69408 0.80505 0.13555 0.0
O44 O 0.73121 0.71045 0.14717 0.0
O45 O 0.89413 0.82568 0.08218 0.0
O46 O 0.93367 0.73312 0.07937 0.0
O47 O 0.72775 0.63476 0.04595 0.0
O48 O 0.72092 0.68465 0.97848 0.0
C49 C 0.52451 0.82032 0.00842 0.0
O50 O 0.58021 0.79668 0.98205 0.0
O51 O 0.56065 0.84281 0.04108 0.0
O52 O 0.7985 0.75644 0.83315 0.0
O53 O 0.75888 0.85088 0.8257 0.0
O54 O 0.59684 0.72991 0.88661 0.0
C55 C 0.79159 0.8065 0.81007 0.0
O56 O 0.55031 0.82174 0.88813 0.0
O57 O 0.75543 0.92339 0.92501 0.0
C58 C 0.53045 0.76986 0.88256 0.0
O59 O 0.76668 0.87088 -0.00889 0.0
O60 O 0.90711 0.76014 -0.01211 0.0
O61 O 0.92828 0.71553 0.92825 0.0
C62 C 0.19764 0.75155 0.31252 0.0
C63 C 0.45193 0.72654 0.38648 0.0
C64 C 0.28927 0.61788 0.51793 0.0
Mg65 Mg 0.28524 0.81508 0.38571 0.0
O66 O 0.20779 0.76142 0.42102 0.0
Mg67 Mg 0.22034 0.67836 0.41455 0.0
Mg68 Mg 0.23423 0.7542 0.48529 0.0
O69 O 0.26399 0.74844 0.54937 0.0
Mg70 Mg 0.20655 0.69143 0.58927 0.0
Mg71 Mg 0.24864 0.83143 0.55455 0.0
C72 C 0.20556 0.89394 0.45286 0.0
C73 C 0.45207 0.80202 0.50249 0.0
O74 O 0.18609 0.70599 0.34054 0.0
O75 O 0.23071 0.79879 0.32322 0.0
O76 O 0.38603 0.68711 0.39353 0.0
O77 O 0.43168 0.77921 0.38964 0.0
O78 O 0.23795 0.89207 0.41369 0.0
O79 O 0.20437 0.84871 0.48154 0.0
C80 C 0.01632 0.70824 0.46708 0.0
O81 O 0.07158 0.73539 0.49106 0.0
O82 O 0.05305 0.68133 0.43668 0.0
O83 O 0.289 0.80927 0.62749 0.0
O84 O 0.2635 0.71525 0.65001 0.0
O85 O 0.08515 0.81528 0.5773 0.0
C86 C 0.28778 0.76569 0.65766 0.0
O87 O 0.05487 0.72019 0.58639 0.0
O88 O 0.27317 0.62014 0.55898 0.0
C89 C 0.02627 0.77238 0.58692 0.0
O90 O 0.2605 0.65887 0.48848 0.0
O91 O 0.39701 0.773 0.47978 0.0
O92 O 0.41504 0.83115 0.53148 0.0
C93 C 0.71644 0.29807 0.31695 0.0
C94 C 0.98027 0.2598 0.38682 0.0
C95 C 0.78883 0.11736 0.50437 0.0
Mg96 Mg 0.80948 0.34343 0.39785 0.0
O97 O 0.74136 0.28124 0.42793 0.0
Mg98 Mg 0.75129 0.20345 0.40948 0.0
Mg99 Mg 0.76728 0.25883 0.49181 0.0
O100 O 0.79118 0.23613 0.5559 0.0
Mg101 Mg 0.71265 0.17726 0.58478 0.0
Mg102 Mg 0.78197 0.3145 0.57416 0.0
C103 C 0.7258 0.39892 0.47863 0.0
C104 C 0.98534 0.29721 0.5176 0.0
O105 O 0.71214 0.24718 0.33869 0.0
O106 O 0.74698 0.3417 0.33387 0.0
O107 O 0.91555 0.21946 0.38989 0.0
O108 O 0.9584 0.31063 0.3948 0.0
O109 O 0.75085 0.40647 0.43785 0.0
O110 O 0.74165 0.35062 0.50272 0.0
C111 C 0.54875 0.21931 0.46638 0.0
O112 O 0.60412 0.24043 0.49392 0.0
O113 O 0.58519 0.19976 0.43242 0.0
O114 O 0.81628 0.26979 0.64482 0.0
O115 O 0.77426 0.17617 0.64954 0.0
O116 O 0.61672 0.30317 0.59277 0.0
C117 C 0.80764 0.21913 0.66658 0.0
O118 O 0.56658 0.21365 0.58744 0.0
O119 O 0.75503 0.11154 0.54394 0.0
C120 C 0.54868 0.26488 0.59534 0.0
O121 O 0.79495 0.16712 0.48118 0.0
O122 O 0.92999 0.27713 0.48957 0.0
O123 O 0.94889 0.31596 0.55192 0.0
H124 H 0.57671 0.29737 0.01294 0.0
H125 H 0.6359 0.17107 0.92588 0.0
H126 H 0.81506 0.18514 0.93411 0.0
H127 H 0.95244 0.23212 0.96682 0.0
H128 H 0.89326 0.359 0.05337 0.0
H129 H 0.71412 0.34441 0.04556 0.0
C130 C 0.62845 0.27189 -0.00362 0.0
C131 C 0.59283 0.23224 0.96947 0.0
C132 C 0.73054 0.28051 0.00109 0.0
C133 C 0.66129 0.2014 0.94701 0.0
C134 C 0.76352 0.20955 0.95169 0.0
C135 C 0.90071 0.25778 0.9832 0.0
C136 C 0.93634 0.29777 0.00983 0.0
C137 C 0.79863 0.24913 0.97851 0.0
C138 C 0.86788 0.32854 0.03234 0.0
C139 C 0.76566 0.32011 0.0279 0.0
H140 H 0.05555 0.81475 0.00496 0.0
H141 H 0.11585 0.67727 0.92801 0.0
H142 H 0.29486 0.69233 0.93562 0.0
H143 H 0.43195 0.74353 0.96465 0.0
H144 H 0.37227 0.88067 0.04202 0.0
H145 H 0.19303 0.86573 0.03444 0.0
C146 C 0.10755 0.78708 -0.00942 0.0
C147 C 0.07221 0.74393 0.96672 0.0
C148 C 0.2097 0.79621 -0.00505 0.0
C149 C 0.14097 0.7103 0.94682 0.0
C150 C 0.24315 0.71904 0.9511 0.0
C151 C 0.38012 0.77111 0.97923 0.0
C152 C 0.41568 0.81414 0.00316 0.0
C153 C 0.27803 0.76196 0.97496 0.0
C154 C 0.34701 0.84774 0.02316 0.0
C155 C 0.24472 0.83907 0.01887 0.0
H156 H 0.54755 0.71903 0.46489 0.0
H157 H 0.60259 0.86352 0.53471 0.0
H158 H 0.78157 0.84387 0.53214 0.0
H159 H 0.92091 0.78914 0.50699 0.0
H160 H 0.86594 0.64594 0.43566 0.0
H161 H 0.68647 0.66375 0.44001 0.0
C162 C 0.59836 0.74778 0.47818 0.0
C163 C 0.56129 0.79409 0.49865 0.0
C164 C 0.70069 0.73671 0.47605 0.0
C165 C 0.62879 0.82843 0.51801 0.0
C166 C 0.73111 0.81723 0.51649 0.0
C167 C 0.87006 0.76083 0.49314 0.0
C168 C 0.90716 0.71542 0.47169 0.0
C169 C 0.76767 0.77173 0.49539 0.0
C170 C 0.83963 0.68076 0.45262 0.0
C171 C 0.73715 0.69109 0.45502 0.0
H172 H 0.07997 0.22714 0.46773 0.0
H173 H 0.13553 0.35156 0.55629 0.0
H174 H 0.31502 0.33697 0.54832 0.0
H175 H 0.45378 0.29024 0.51535 0.0
H176 H 0.39852 0.16469 0.42775 0.0
H177 H 0.21895 0.17986 0.43519 0.0
C178 C 0.131 0.25207 0.48471 0.0
C179 C 0.09421 0.2914 0.51194 0.0
C180 C 0.23337 0.24303 0.48024 0.0
C181 C 0.16178 0.32154 0.53489 0.0
C182 C 0.26422 0.31306 0.53038 0.0
C183 C 0.40285 0.26485 0.49876 0.0
C184 C 0.43977 0.22512 0.47192 0.0
C185 C 0.30051 0.27378 0.50328 0.0
C186 C 0.37222 0.19489 0.449 0.0
C187 C 0.26973 0.20367 0.45322 0.0
H188 H 0.60947 0.55401 0.05816 0.0
H189 H 0.64763 0.6231 0.92147 0.0
H190 H 0.51333 0.56207 0.90131 0.0
H191 H 0.38389 0.49083 0.92266 0.0
H192 H 0.34839 0.42002 0.05913 0.0
H193 H 0.48167 0.48172 0.07942 0.0
C194 C 0.58994 0.5552 0.02378 0.0
C195 C 0.63899 0.59338 -0.00868 0.0
C196 C 0.51137 0.52092 0.0126 0.0
C197 C 0.61134 0.59441 0.94711 0.0
C198 C 0.53391 0.55984 0.93563 0.0
C199 C 0.40351 0.48965 0.95703 0.0
C200 C 0.35501 0.45118 -0.01055 0.0
C201 C 0.48233 0.52376 0.96821 0.0
C202 C 0.38356 0.4495 0.03361 0.0
C203 C 0.46052 0.48435 0.04514 0.0
H204 H 0.59801 0.46824 0.42882 0.0
H205 H 0.68986 0.41991 0.56348 0.0
H206 H 0.55547 0.47944 0.58814 0.0
H207 H 0.41311 0.54609 0.57071 0.0
H208 H 0.31662 0.58729 0.4359 0.0
H209 H 0.45085 0.52838 0.41207 0.0
C210 C 0.59024 0.47153 0.46357 0.0
C211 C 0.65576 0.44089 0.49421 0.0
C212 C 0.51079 0.50366 0.47746 0.0
C213 C 0.64179 0.44398 0.5392 0.0
C214 C 0.56436 0.47754 0.55327 0.0
C215 C 0.42008 0.54132 0.53619 0.0
C216 C 0.35528 0.57196 0.50502 0.0
C217 C 0.49799 0.5073 0.52265 0.0
C218 C 0.36602 0.56519 0.46049 0.0
C219 C 0.44316 0.53163 0.44681 0.0
H220 H 0.11285 0.04971 0.05468 0.0
H221 H 0.18179 0.10991 0.91891 0.0
H222 H 0.04033 0.05645 0.89546 0.0
H223 H 0.8964 0.99384 0.91379 0.0
H224 H 0.82685 0.93527 0.04979 0.0
H225 H 0.96816 0.98861 0.07299 0.0
C226 C 0.09858 0.05025 0.01986 0.0
C227 C 0.15883 0.08337 -0.01147 0.0
C228 C 0.01541 0.02107 0.00677 0.0
C229 C 0.13726 0.0845 0.94365 0.0
C230 C 0.05573 0.05443 0.93028 0.0
C231 C 0.91053 0.99373 0.94858 0.0
C232 C 0.8505 0.96064 0.98006 0.0
C233 C 0.99341 0.02336 0.96161 0.0
C234 C 0.87148 0.96031 0.02491 0.0
C235 C 0.95291 0.99038 0.03816 0.0
H236 H 0.94997 0.12155 0.45005 0.0
H237 H 0.76215 1.00353 0.53263 0.0
H238 H 0.88192 0.92593 0.52803 0.0
H239 H 0.04006 0.89176 0.50229 0.0
H240 H 0.22758 1.00731 0.41787 0.0
H241 H 0.1079 0.08609 0.42185 0.0
C242 C 0.93345 0.07841 0.46577 0.0
C243 C 0.84639 0.06831 0.49128 0.0
C244 C 0.00353 0.03394 0.46358 0.0
C245 C 0.82781 1.01238 0.5124 0.0
C246 C 0.89664 0.96805 0.51013 0.0
C247 C 0.05613 0.93449 0.48558 0.0
C248 C 0.14394 0.94409 0.46079 0.0
C249 C 0.98546 0.9786 0.48659 0.0
C250 C 0.16144 0.99919 0.43788 0.0
C251 C 0.09246 0.04396 0.43971 0.0
H252 H 0.73975 0.22275 0.25814 0.0
H253 H 0.63401 0.39395 0.27071 0.0
H254 H 0.57539 0.40609 0.19467 0.0
H255 H 0.52981 0.36184 0.13013 0.0
H256 H 0.6296 0.18902 0.11854 0.0
H257 H 0.72129 0.18541 0.18733 0.0
C258 C 0.70423 0.26275 0.24406 0.0
C259 C 0.68798 0.30667 0.27021 0.0
C260 C 0.67134 0.26954 0.20031 0.0
C261 C 0.64538 0.35914 0.25133 0.0
C262 C 0.61238 0.36621 0.20784 0.0
C263 C 0.57397 0.32391 0.14185 0.0
C264 C 0.56857 0.27466 0.12039 0.0
C265 C 0.62176 0.32088 0.18262 0.0
C266 C 0.62977 0.22696 0.13511 0.0
C267 C 0.68107 0.22448 0.17486 0.0
H268 H 0.65925 0.6646 0.22218 0.0
H269 H 0.7062 0.84827 0.20654 0.0
H270 H 0.6646 0.85032 0.28345 0.0
H271 H 0.58697 0.80391 0.35004 0.0
H272 H 0.51646 0.62315 0.36304 0.0
H273 H 0.60252 0.61505 0.29403 0.0
C274 C 0.66126 0.70491 0.23578 0.0
C275 C 0.68269 0.75646 0.20837 0.0
C276 C 0.63454 0.70613 0.27991 0.0
C277 C 0.68676 0.80825 0.22659 0.0
C278 C 0.66408 0.80941 0.27071 0.0
C279 C 0.59257 0.76224 0.33854 0.0
C280 C 0.54097 0.71491 0.36055 0.0
C281 C 0.6339 0.75909 0.2971 0.0
C282 C 0.55303 0.66081 0.3461 0.0
C283 C 0.60074 0.65635 0.30617 0.0
H284 H 0.31168 0.68517 0.73015 0.0
H285 H 0.3066 0.86877 0.68812 0.0
H286 H 0.35035 0.88629 0.76182 0.0
H287 H 0.41836 0.84985 0.83328 0.0
H288 H 0.44354 0.66673 0.87343 0.0
H289 H 0.35682 0.64878 0.80676 0.0
C290 C 0.31941 0.729 0.7372 0.0
C291 C 0.30903 0.77543 0.70326 0.0
C292 C 0.34652 0.73894 0.77965 0.0
C293 C 0.31715 0.83204 0.71323 0.0
C294 C 0.34116 0.84224 0.75554 0.0
C295 C 0.40181 0.80596 0.82836 0.0
C296 C 0.44047 0.75966 0.85739 0.0
C297 C 0.35977 0.79603 0.78848 0.0
C298 C 0.4163 0.70314 0.85097 0.0
C299 C 0.36828 0.69286 0.81249 0.0
H300 H 0.28083 0.22819 0.75655 0.0
H301 H 0.38607 0.39882 0.76787 0.0
H302 H 0.44648 0.4091 0.69202 0.0
H303 H 0.49618 0.36228 0.62893 0.0
H304 H 0.39596 0.19003 0.61887 0.0
H305 H 0.30054 0.18934 0.68645 0.0
C306 C 0.31637 0.26772 0.74218 0.0
C307 C 0.33258 0.31188 0.76791 0.0
C308 C 0.35032 0.27336 0.69866 0.0
C309 C 0.37499 0.36383 0.74873 0.0
C310 C 0.40904 0.36979 0.7054 0.0
C311 C 0.45104 0.32519 0.64069 0.0
C312 C 0.45762 0.27507 0.62028 0.0
C313 C 0.4008 0.32386 0.68078 0.0
C314 C 0.39505 0.22851 0.63481 0.0
C315 C 0.3415 0.22771 0.67385 0.0
H316 H 0.17664 0.84125 0.24695 0.0
H317 H 0.17781 0.65541 0.27251 0.0
H318 H 0.13672 0.65045 0.19586 0.0
H319 H 0.07265 0.69815 0.1266 0.0
H320 H 0.04583 0.88341 0.10422 0.0
H321 H 0.13309 0.88954 0.1732 0.0
C322 C 0.16875 0.79964 0.23568 0.0
C323 C 0.17734 0.74878 0.26567 0.0
C324 C 0.14258 0.79709 0.19182 0.0
C325 C 0.16859 0.69522 0.2504 0.0
C326 C 0.14624 0.69233 0.20646 0.0
C327 C 0.08833 0.74014 0.13598 0.0
C328 C 0.04874 0.79014 0.11135 0.0
C329 C 0.12928 0.74295 0.17742 0.0
C330 C 0.07321 0.84412 0.12325 0.0
C331 C 0.12146 0.84757 0.16309 0.0
H332 H 0.03951 0.16403 0.35264 0.0
H333 H 0.12519 0.33924 0.36125 0.0
H334 H 0.21693 0.34264 0.29246 0.0
H335 H 0.23773 0.30393 0.22229 0.0
H336 H 0.14573 0.13027 0.21254 0.0
H337 H 0.08914 0.11876 0.28888 0.0
C338 C 0.08072 0.20245 0.34027 0.0
C339 C 0.07099 0.25232 0.3608 0.0
C340 C 0.12846 0.20526 0.29948 0.0
C341 C 0.1286 0.30075 0.34536 0.0
C342 C 0.17992 0.3031 0.3056 0.0
C343 C 0.20568 0.26353 0.23704 0.0
C344 C 0.19244 0.21871 0.2116 0.0
C345 C 0.17379 0.25715 0.28092 0.0
C346 C 0.15454 0.16577 0.23137 0.0
C347 C 0.12271 0.15907 0.27502 0.0
H348 H 0.99927 0.16169 0.85246 0.0
H349 H 0.89267 0.3338 0.86199 0.0
H350 H 0.7974 0.3337 0.79452 0.0
H351 H 0.77913 0.29426 0.72468 0.0
H352 H 0.89115 0.12394 0.7137 0.0
H353 H 0.95182 0.11431 0.78952 0.0
C354 C 0.95281 0.19859 0.84062 0.0
C355 C 0.95733 0.24886 0.86093 0.0
C356 C 0.90273 0.19948 0.80056 0.0
C357 C 0.89325 0.29519 0.84621 0.0
C358 C 0.83978 0.29553 0.80722 0.0
C359 C 0.81615 0.25491 0.73912 0.0
C360 C 0.83412 0.21066 0.71348 0.0
C361 C 0.85032 0.24969 0.78258 0.0
C362 C 0.87857 0.15897 0.73276 0.0
C363 C 0.91282 0.1534 0.77607 0.0
H364 H 0.97326 0.86824 0.6222 0.0
H365 H 0.87716 0.69546 0.61163 0.0
H366 H 0.78775 0.692 0.68114 0.0
H367 H 0.77047 0.72974 0.75209 0.0
H368 H 0.87225 0.90121 0.76308 0.0
H369 H 0.92857 0.91278 0.6868 0.0
C370 C 0.93001 0.83046 0.6342 0.0
C371 C 0.936 0.78111 0.61288 0.0
C372 C 0.88376 0.82751 0.67535 0.0
C373 C 0.87636 0.73346 0.62814 0.0
C374 C 0.82653 0.73105 0.66829 0.0
C375 C 0.80474 0.7696 0.73761 0.0
C376 C 0.82036 0.81382 0.76337 0.0
C377 C 0.83609 0.77619 0.69359 0.0
C378 C 0.86137 0.86614 0.74399 0.0
C379 C 0.89298 0.87294 0.70034 0.0
loop_
_geom_bond_atom_site_label_1
_geom_bond_atom_site_label_2
_geom_bond_distance
_geom_bond_site_symmetry_2
_ccdc_geom_bond_type
C0 O12 1.241 . S
C0 O13 1.280 . S
C1 O14 1.277 . S
C1 O15 1.245 . S
C2 O26 1.247 . S
C2 O28 1.289 1_556 S
Mg3 O4 1.926 . S
Mg3 O13 1.984 . S
Mg3 O15 1.988 . S
Mg3 O16 2.061 . S
O4 Mg3 1.926 . S
O4 Mg5 1.986 . S
O4 Mg6 1.917 . S
Mg5 O4 1.986 . S
Mg5 O12 2.042 . S
Mg5 O14 2.041 . S
Mg5 O20 2.038 . S
Mg5 O28 2.238 . S
Mg6 O4 1.917 . S
Mg6 O7 1.917 1_554 S
Mg6 O17 2.106 1_554 S
Mg6 O19 2.079 1_554 S
Mg6 O28 2.106 . S
Mg6 O29 2.079 . S
O7 Mg6 1.917 1_556 S
O7 Mg8 1.926 . S
O7 Mg9 1.986 . S
Mg8 O7 1.926 . S
Mg8 O22 1.984 . S
Mg8 O25 1.988 . S
Mg8 O26 2.061 . S
Mg9 O7 1.986 . S
Mg9 O17 2.238 . S
Mg9 O21 2.042 . S
Mg9 O23 2.041 . S
Mg9 O30 2.038 . S
C10 O16 1.247 . S
C10 O17 1.289 1_554 S
C11 O29 1.245 1_556 S
C11 O30 1.274 . S
O12 C0 1.241 . S
O12 Mg5 2.042 . S
O13 C0 1.280 . S
O13 Mg3 1.984 . S
O14 C1 1.277 . S
O14 Mg5 2.041 . S
O15 C1 1.245 . S
O15 Mg3 1.988 . S
O16 Mg3 2.061 . S
O16 C10 1.247 . S
O17 Mg6 2.106 1_556 S
O17 Mg9 2.238 . S
O17 C10 1.289 1_556 S
C18 O19 1.245 1_554 S
C18 O20 1.274 . S
O19 Mg6 2.079 1_556 S
O19 C18 1.245 1_556 S
O20 Mg5 2.038 . S
O20 C18 1.274 . S
O21 Mg9 2.042 . S
O21 C24 1.241 . S
O22 Mg8 1.984 . S
O22 C24 1.280 . S
O23 Mg9 2.041 . S
O23 C27 1.277 . S
C24 O21 1.241 . S
C24 O22 1.280 . S
O25 Mg8 1.988 . S
O25 C27 1.245 . S
O26 C2 1.247 . S
O26 Mg8 2.061 . S
C27 O23 1.277 . S
C27 O25 1.245 . S
O28 C2 1.289 1_554 S
O28 Mg5 2.238 . S
O28 Mg6 2.106 . S
O29 Mg6 2.079 . S
O29 C11 1.245 1_554 S
O30 Mg9 2.038 . S
O30 C11 1.274 . S
C31 O43 1.241 . S
C31 O44 1.280 . S
C32 O45 1.277 . S
C32 O46 1.245 . S
C33 O57 1.247 . S
C33 O59 1.289 1_556 S
Mg34 O35 1.926 . S
Mg34 O44 1.984 . S
Mg34 O46 1.988 . S
Mg34 O47 2.061 . S
O35 Mg34 1.926 . S
O35 Mg36 1.986 . S
O35 Mg37 1.917 . S
Mg36 O35 1.986 . S
Mg36 O43 2.042 . S
Mg36 O45 2.041 . S
Mg36 O51 2.038 . S
Mg36 O59 2.238 . S
Mg37 O35 1.917 . S
Mg37 O38 1.917 1_554 S
Mg37 O48 2.106 1_554 S
Mg37 O50 2.079 1_554 S
Mg37 O59 2.106 . S
Mg37 O60 2.079 . S
O38 Mg37 1.917 1_556 S
O38 Mg39 1.926 . S
O38 Mg40 1.986 . S
Mg39 O38 1.926 . S
Mg39 O53 1.984 . S
Mg39 O56 1.988 . S
Mg39 O57 2.061 . S
Mg40 O38 1.986 . S
Mg40 O48 2.238 . S
Mg40 O52 2.042 . S
Mg40 O54 2.041 . S
Mg40 O61 2.038 . S
C41 O47 1.247 . S
C41 O48 1.289 1_554 S
C42 O60 1.245 1_556 S
C42 O61 1.274 . S
O43 C31 1.241 . S
O43 Mg36 2.042 . S
O44 C31 1.280 . S
O44 Mg34 1.984 . S
O45 C32 1.277 . S
O45 Mg36 2.041 . S
O46 C32 1.245 . S
O46 Mg34 1.988 . S
O47 Mg34 2.061 . S
O47 C41 1.247 . S
O48 Mg37 2.106 1_556 S
O48 Mg40 2.238 . S
O48 C41 1.289 1_556 S
C49 O50 1.245 1_554 S
C49 O51 1.274 . S
O50 Mg37 2.079 1_556 S
O50 C49 1.245 1_556 S
O51 Mg36 2.038 . S
O51 C49 1.274 . S
O52 Mg40 2.042 . S
O52 C55 1.241 . S
O53 Mg39 1.984 . S
O53 C55 1.280 . S
O54 Mg40 2.041 . S
O54 C58 1.277 . S
C55 O52 1.241 . S
C55 O53 1.280 . S
O56 Mg39 1.988 . S
O56 C58 1.245 . S
O57 C33 1.247 . S
O57 Mg39 2.061 . S
C58 O54 1.277 . S
C58 O56 1.245 . S
O59 C33 1.289 1_554 S
O59 Mg36 2.238 . S
O59 Mg37 2.106 . S
O60 Mg37 2.079 . S
O60 C42 1.245 1_554 S
O61 Mg40 2.038 . S
O61 C42 1.274 . S
C62 O74 1.241 . S
C62 O75 1.280 . S
C63 O76 1.277 . S
C63 O77 1.245 . S
C64 O88 1.247 . S
C64 O90 1.289 . S
Mg65 O66 1.926 . S
Mg65 O75 1.984 . S
Mg65 O77 1.988 . S
Mg65 O78 2.061 . S
O66 Mg65 1.926 . S
O66 Mg67 1.986 . S
O66 Mg68 1.917 . S
Mg67 O66 1.986 . S
Mg67 O74 2.042 . S
Mg67 O76 2.041 . S
Mg67 O82 2.038 . S
Mg67 O90 2.238 . S
Mg68 O66 1.917 . S
Mg68 O69 1.917 . S
Mg68 O79 2.106 . S
Mg68 O81 2.079 . S
Mg68 O90 2.106 . S
Mg68 O91 2.079 . S
O69 Mg68 1.917 . S
O69 Mg70 1.926 . S
O69 Mg71 1.986 . S
Mg70 O69 1.926 . S
Mg70 O84 1.984 . S
Mg70 O87 1.988 . S
Mg70 O88 2.061 . S
Mg71 O69 1.986 . S
Mg71 O79 2.238 . S
Mg71 O83 2.042 . S
Mg71 O85 2.041 . S
Mg71 O92 2.038 . S
C72 O78 1.247 . S
C72 O79 1.289 . S
C73 O91 1.245 . S
C73 O92 1.274 . S
O74 C62 1.241 . S
O74 Mg67 2.042 . S
O75 C62 1.280 . S
O75 Mg65 1.984 . S
O76 C63 1.277 . S
O76 Mg67 2.041 . S
O77 C63 1.245 . S
O77 Mg65 1.988 . S
O78 Mg65 2.061 . S
O78 C72 1.247 . S
O79 Mg68 2.106 . S
O79 Mg71 2.238 . S
O79 C72 1.289 . S
C80 O81 1.245 . S
C80 O82 1.274 . S
O81 Mg68 2.079 . S
O81 C80 1.245 . S
O82 Mg67 2.038 . S
O82 C80 1.274 . S
O83 Mg71 2.042 . S
O83 C86 1.241 . S
O84 Mg70 1.984 . S
O84 C86 1.280 . S
O85 Mg71 2.041 . S
O85 C89 1.277 . S
C86 O83 1.241 . S
C86 O84 1.280 . S
O87 Mg70 1.988 . S
O87 C89 1.245 . S
O88 C64 1.247 . S
O88 Mg70 2.061 . S
C89 O85 1.277 . S
C89 O87 1.245 . S
O90 C64 1.289 . S
O90 Mg67 2.238 . S
O90 Mg68 2.106 . S
O91 Mg68 2.079 . S
O91 C73 1.245 . S
O92 Mg71 2.038 . S
O92 C73 1.274 . S
C93 O105 1.241 . S
C93 O106 1.280 . S
C94 O107 1.277 . S
C94 O108 1.245 . S
C95 O119 1.247 . S
C95 O121 1.289 . S
Mg96 O97 1.926 . S
Mg96 O106 1.984 . S
Mg96 O108 1.988 . S
Mg96 O109 2.061 . S
O97 Mg96 1.926 . S
O97 Mg98 1.986 . S
O97 Mg99 1.917 . S
Mg98 O97 1.986 . S
Mg98 O105 2.042 . S
Mg98 O107 2.041 . S
Mg98 O113 2.038 . S
Mg98 O121 2.238 . S
Mg99 O97 1.917 . S
Mg99 O100 1.917 . S
Mg99 O110 2.106 . S
Mg99 O112 2.079 . S
Mg99 O121 2.106 . S
Mg99 O122 2.079 . S
O100 Mg99 1.917 . S
O100 Mg101 1.926 . S
O100 Mg102 1.986 . S
Mg101 O100 1.926 . S
Mg101 O115 1.984 . S
Mg101 O118 1.988 . S
Mg101 O119 2.061 . S
Mg102 O100 1.986 . S
Mg102 O110 2.238 . S
Mg102 O114 2.042 . S
Mg102 O116 2.041 . S
Mg102 O123 2.038 . S
C103 O109 1.247 . S
C103 O110 1.289 . S
C104 O122 1.245 . S
C104 O123 1.274 . S
O105 C93 1.241 . S
O105 Mg98 2.042 . S
O106 C93 1.280 . S
O106 Mg96 1.984 . S
O107 C94 1.277 . S
O107 Mg98 2.041 . S
O108 C94 1.245 . S
O108 Mg96 1.988 . S
O109 Mg96 2.061 . S
O109 C103 1.247 . S
O110 Mg99 2.106 . S
O110 Mg102 2.238 . S
O110 C103 1.289 . S
C111 O112 1.245 . S
C111 O113 1.274 . S
O112 Mg99 2.079 . S
O112 C111 1.245 . S
O113 Mg98 2.038 . S
O113 C111 1.274 . S
O114 Mg102 2.042 . S
O114 C117 1.241 . S
O115 Mg101 1.984 . S
O115 C117 1.280 . S
O116 Mg102 2.041 . S
O116 C120 1.277 . S
C117 O114 1.241 . S
C117 O115 1.280 . S
O118 Mg101 1.988 . S
O118 C120 1.245 . S
O119 C95 1.247 . S
O119 Mg101 2.061 . S
C120 O116 1.277 . S
C120 O118 1.245 . S
O121 C95 1.289 . S
O121 Mg98 2.238 . S
O121 Mg99 2.106 . S
O122 Mg99 2.079 . S
O122 C104 1.245 . S
O123 Mg102 2.038 . S
O123 C104 1.274 . S
H124 C130 0.930 . S
H125 C133 0.930 . S
H126 C134 0.930 . S
H127 C135 0.930 . S
H128 C138 0.930 . S
H129 C139 0.930 . S
C130 H124 0.930 . S
C130 C131 1.355 1_556 S
C130 C132 1.415 . S
C131 C130 1.355 1_554 S
C131 C133 1.419 . S
C132 C130 1.415 . S
C132 C137 1.425 1_556 S
C132 C139 1.409 . S
C133 H125 0.930 . S
C133 C131 1.419 . S
C133 C134 1.362 . S
C134 H126 0.930 . S
C134 C133 1.362 . S
C134 C137 1.409 . S
C135 H127 0.930 . S
C135 C136 1.355 . S
C135 C137 1.415 . S
C136 C135 1.355 . S
C136 C138 1.419 1_554 S
C137 C132 1.425 1_554 S
C137 C134 1.409 . S
C137 C135 1.415 . S
C138 H128 0.930 . S
C138 C136 1.419 1_556 S
C138 C139 1.362 . S
C139 H129 0.930 . S
C139 C132 1.409 . S
C139 C138 1.362 . S
H140 C146 0.930 . S
H141 C149 0.930 . S
H142 C150 0.930 . S
H143 C151 0.930 . S
H144 C154 0.930 . S
H145 C155 0.930 . S
C146 H140 0.930 . S
C146 C147 1.355 1_554 S
C146 C148 1.415 . S
C147 C146 1.355 1_556 S
C147 C149 1.419 . S
C148 C146 1.415 . S
C148 C153 1.425 1_554 S
C148 C155 1.409 . S
C149 H141 0.930 . S
C149 C147 1.419 . S
C149 C150 1.362 . S
C150 H142 0.930 . S
C150 C149 1.362 . S
C150 C153 1.409 . S
C151 H143 0.930 . S
C151 C152 1.355 1_556 S
C151 C153 1.415 . S
C152 C151 1.355 1_554 S
C152 C154 1.419 . S
C153 C148 1.425 1_556 S
C153 C150 1.409 . S
C153 C151 1.415 . S
C154 H144 0.930 . S
C154 C152 1.419 . S
C154 C155 1.362 . S
C155 H145 0.930 . S
C155 C148 1.409 . S
C155 C154 1.362 . S
H156 C162 0.930 . S
H157 C165 0.930 . S
H158 C166 0.930 . S
H159 C167 0.930 . S
H160 C170 0.930 . S
H161 C171 0.930 . S
C162 H156 0.930 . S
C162 C163 1.355 . S
C162 C164 1.415 . S
C163 C162 1.355 . S
C163 C165 1.419 . S
C164 C162 1.415 . S
C164 C169 1.425 . S
C164 C171 1.409 . S
C165 H157 0.930 . S
C165 C163 1.419 . S
C165 C166 1.362 . S
C166 H158 0.930 . S
C166 C165 1.362 . S
C166 C169 1.409 . S
C167 H159 0.930 . S
C167 C168 1.355 . S
C167 C169 1.415 . S
C168 C167 1.355 . S
C168 C170 1.419 . S
C169 C164 1.425 . S
C169 C166 1.409 . S
C169 C167 1.415 . S
C170 H160 0.930 . S
C170 C168 1.419 . S
C170 C171 1.362 . S
C171 H161 0.930 . S
C171 C164 1.409 . S
C171 C170 1.362 . S
H172 C178 0.930 . S
H173 C181 0.930 . S
H174 C182 0.930 . S
H175 C183 0.930 . S
H176 C186 0.930 . S
H177 C187 0.930 . S
C178 H172 0.930 . S
C178 C179 1.355 . S
C178 C180 1.415 . S
C179 C178 1.355 . S
C179 C181 1.419 . S
C180 C178 1.415 . S
C180 C185 1.425 . S
C180 C187 1.409 . S
C181 H173 0.930 . S
C181 C179 1.419 . S
C181 C182 1.362 . S
C182 H174 0.930 . S
C182 C181 1.362 . S
C182 C185 1.409 . S
C183 H175 0.930 . S
C183 C184 1.355 . S
C183 C185 1.415 . S
C184 C183 1.355 . S
C184 C186 1.419 . S
C185 C180 1.425 . S
C185 C182 1.409 . S
C185 C183 1.415 . S
C186 H176 0.930 . S
C186 C184 1.419 . S
C186 C187 1.362 . S
C187 H177 0.930 . S
C187 C180 1.409 . S
C187 C186 1.362 . S
H188 C194 0.930 . S
H189 C197 0.930 . S
H190 C198 0.930 . S
H191 C199 0.930 . S
H192 C202 0.930 . S
H193 C203 0.930 . S
C194 H188 0.930 . S
C194 C195 1.355 1_556 S
C194 C196 1.415 . S
C195 C194 1.355 1_554 S
C195 C197 1.419 . S
C196 C194 1.415 . S
C196 C201 1.425 1_556 S
C196 C203 1.409 . S
C197 H189 0.930 . S
C197 C195 1.419 . S
C197 C198 1.362 . S
C198 H190 0.930 . S
C198 C197 1.362 . S
C198 C201 1.409 . S
C199 H191 0.930 . S
C199 C200 1.368 . S
C199 C201 1.415 . S
C200 C199 1.368 . S
C200 C202 1.405 1_554 S
C201 C196 1.425 1_554 S
C201 C198 1.409 . S
C201 C199 1.415 . S
C202 H192 0.930 . S
C202 C200 1.405 1_556 S
C202 C203 1.362 . S
C203 H193 0.930 . S
C203 C196 1.409 . S
C203 C202 1.362 . S
H204 C210 0.930 . S
H205 C213 0.930 . S
H206 C214 0.930 . S
H207 C215 0.930 . S
H208 C218 0.930 . S
H209 C219 0.930 . S
C210 H204 0.930 . S
C210 C211 1.355 . S
C210 C212 1.415 . S
C211 C210 1.355 . S
C211 C213 1.419 . S
C212 C210 1.415 . S
C212 C217 1.425 . S
C212 C219 1.409 . S
C213 H205 0.930 . S
C213 C211 1.419 . S
C213 C214 1.362 . S
C214 H206 0.930 . S
C214 C213 1.362 . S
C214 C217 1.409 . S
C215 H207 0.930 . S
C215 C216 1.355 . S
C215 C217 1.415 . S
C216 C215 1.355 . S
C216 C218 1.419 . S
C217 C212 1.425 . S
C217 C214 1.409 . S
C217 C215 1.415 . S
C218 H208 0.930 . S
C218 C216 1.419 . S
C218 C219 1.362 . S
C219 H209 0.930 . S
C219 C212 1.409 . S
C219 C218 1.362 . S
H220 C226 0.930 . S
H221 C229 0.930 . S
H222 C230 0.930 . S
H223 C231 0.930 . S
H224 C234 0.930 . S
H225 C235 0.930 . S
C226 H220 0.930 . S
C226 C227 1.355 1_554 S
C226 C228 1.415 1_545 S
C227 C226 1.355 1_556 S
C227 C229 1.419 . S
C228 C226 1.415 1_565 S
C228 C233 1.425 1_464 S
C228 C235 1.409 . S
C229 H221 0.930 . S
C229 C227 1.419 . S
C229 C230 1.362 1_455 S
C230 H222 0.930 . S
C230 C229 1.362 1_655 S
C230 C233 1.409 . S
C231 H223 0.930 . S
C231 C232 1.355 1_556 S
C231 C233 1.415 1_565 S
C232 C231 1.355 1_554 S
C232 C234 1.419 . S
C233 C228 1.425 1_646 S
C233 C230 1.409 . S
C233 C231 1.415 1_545 S
C234 H224 0.930 . S
C234 C232 1.419 . S
C234 C235 1.362 1_655 S
C235 H225 0.930 . S
C235 C228 1.409 . S
C235 C234 1.362 1_455 S
H236 C242 0.930 . S
H237 C245 0.930 . S
H238 C246 0.935 . S
H239 C247 0.930 . S
H240 C250 0.930 . S
H241 C251 0.935 . S
C242 H236 0.930 . S
C242 C243 1.355 . S
C242 C244 1.415 . S
C243 C242 1.355 . S
C243 C245 1.419 . S
C244 C242 1.415 . S
C244 C249 1.425 1_645 S
C244 C251 1.412 1_545 S
C245 H237 0.930 . S
C245 C243 1.419 . S
C245 C246 1.355 1_655 S
C246 H238 0.935 . S
C246 C245 1.355 1_455 S
C246 C249 1.412 1_545 S
C247 H239 0.930 . S
C247 C248 1.355 . S
C247 C249 1.415 . S
C248 C247 1.355 . S
C248 C250 1.419 . S
C249 C244 1.425 1_465 S
C249 C246 1.412 1_565 S
C249 C247 1.415 . S
C250 H240 0.930 . S
C250 C248 1.419 . S
C250 C251 1.355 1_455 S
C251 H241 0.935 . S
C251 C244 1.412 1_565 S
C251 C250 1.355 1_655 S
H252 C258 0.930 . S
H253 C261 0.930 . S
H254 C262 0.930 . S
H255 C263 0.930 . S
H256 C266 0.930 . S
H257 C267 0.930 . S
C258 H252 0.930 . S
C258 C259 1.355 . S
C258 C260 1.415 . S
C259 C258 1.355 . S
C259 C261 1.419 . S
C260 C258 1.415 . S
C260 C265 1.425 . S
C260 C267 1.409 . S
C261 H253 0.930 . S
C261 C259 1.419 . S
C261 C262 1.362 . S
C262 H254 0.930 . S
C262 C261 1.362 . S
C262 C265 1.409 . S
C263 H255 0.930 . S
C263 C264 1.355 . S
C263 C265 1.415 . S
C264 C263 1.355 . S
C264 C266 1.419 . S
C265 C260 1.425 . S
C265 C262 1.409 . S
C265 C263 1.415 . S
C266 H256 0.930 . S
C266 C264 1.419 . S
C266 C267 1.362 . S
C267 H257 0.930 . S
C267 C260 1.409 . S
C267 C266 1.362 . S
H268 C274 0.930 . S
H269 C277 0.930 . S
H270 C278 0.930 . S
H271 C279 0.930 . S
H272 C282 0.930 . S
H273 C283 0.930 . S
C274 H268 0.930 . S
C274 C275 1.355 . S
C274 C276 1.415 . S
C275 C274 1.355 . S
C275 C277 1.419 . S
C276 C274 1.415 . S
C276 C281 1.425 . S
C276 C283 1.409 . S
C277 H269 0.930 . S
C277 C275 1.419 . S
C277 C278 1.362 . S
C278 H270 0.930 . S
C278 C277 1.362 . S
C278 C281 1.409 . S
C279 H271 0.930 . S
C279 C280 1.355 . S
C279 C281 1.415 . S
C280 C279 1.355 . S
C280 C282 1.419 . S
C281 C276 1.425 . S
C281 C278 1.409 . S
C281 C279 1.415 . S
C282 H272 0.930 . S
C282 C280 1.419 . S
C282 C283 1.362 . S
C283 H273 0.930 . S
C283 C276 1.409 . S
C283 C282 1.362 . S
H284 C290 0.930 . S
H285 C293 0.930 . S
H286 C294 0.930 . S
H287 C295 0.930 . S
H288 C298 0.930 . S
H289 C299 0.930 . S
C290 H284 0.930 . S
C290 C291 1.355 . S
C290 C292 1.415 . S
C291 C290 1.355 . S
C291 C293 1.419 . S
C292 C290 1.415 . S
C292 C297 1.425 . S
C292 C299 1.409 . S
C293 H285 0.930 . S
C293 C291 1.419 . S
C293 C294 1.362 . S
C294 H286 0.930 . S
C294 C293 1.362 . S
C294 C297 1.409 . S
C295 H287 0.930 . S
C295 C296 1.355 . S
C295 C297 1.415 . S
C296 C295 1.355 . S
C296 C298 1.419 . S
C297 C292 1.425 . S
C297 C294 1.409 . S
C297 C295 1.415 . S
C298 H288 0.930 . S
C298 C296 1.419 . S
C298 C299 1.362 . S
C299 H289 0.930 . S
C299 C292 1.409 . S
C299 C298 1.362 . S
H300 C306 0.930 . S
H301 C309 0.930 . S
H302 C310 0.930 . S
H303 C311 0.930 . S
H304 C314 0.930 . S
H305 C315 0.930 . S
C306 H300 0.930 . S
C306 C307 1.355 . S
C306 C308 1.415 . S
C307 C306 1.355 . S
C307 C309 1.419 . S
C308 C306 1.415 . S
C308 C313 1.425 . S
C308 C315 1.409 . S
C309 H301 0.930 . S
C309 C307 1.419 . S
C309 C310 1.362 . S
C310 H302 0.930 . S
C310 C309 1.362 . S
C310 C313 1.409 . S
C311 H303 0.930 . S
C311 C312 1.355 . S
C311 C313 1.415 . S
C312 C311 1.355 . S
C312 C314 1.419 . S
C313 C308 1.425 . S
C313 C310 1.409 . S
C313 C311 1.415 . S
C314 H304 0.930 . S
C314 C312 1.419 . S
C314 C315 1.362 . S
C315 H305 0.930 . S
C315 C308 1.409 . S
C315 C314 1.362 . S
H316 C322 0.930 . S
H317 C325 0.930 . S
H318 C326 0.930 . S
H319 C327 0.930 . S
H320 C330 0.930 . S
H321 C331 0.930 . S
C322 H316 0.930 . S
C322 C323 1.355 1_655 S
C322 C324 1.415 . S
C323 C322 1.355 1_455 S
C323 C325 1.419 . S
C324 C322 1.415 . S
C324 C329 1.425 . S
C324 C331 1.409 . S
C325 H317 0.930 . S
C325 C323 1.419 . S
C325 C326 1.362 . S
C326 H318 0.930 . S
C326 C325 1.362 . S
C326 C329 1.409 1_455 S
C327 H319 0.930 . S
C327 C328 1.355 . S
C327 C329 1.415 . S
C328 C327 1.355 . S
C328 C330 1.419 . S
C329 C324 1.425 . S
C329 C326 1.409 1_655 S
C329 C327 1.415 . S
C330 H320 0.930 . S
C330 C328 1.419 . S
C330 C331 1.362 . S
C331 H321 0.930 . S
C331 C324 1.409 . S
C331 C330 1.362 . S
H332 C338 0.930 . S
H333 C341 0.930 . S
H334 C342 0.930 . S
H335 C343 0.930 . S
H336 C346 0.930 . S
H337 C347 0.930 . S
C338 H332 0.930 . S
C338 C339 1.355 . S
C338 C340 1.415 . S
C339 C338 1.355 . S
C339 C341 1.419 . S
C340 C338 1.415 . S
C340 C345 1.425 . S
C340 C347 1.409 1_655 S
C341 H333 0.930 . S
C341 C339 1.419 . S
C341 C342 1.362 . S
C342 H334 0.930 . S
C342 C341 1.362 . S
C342 C345 1.409 . S
C343 H335 0.930 . S
C343 C344 1.355 . S
C343 C345 1.415 1_455 S
C344 C343 1.355 . S
C344 C346 1.419 . S
C345 C340 1.425 . S
C345 C342 1.409 . S
C345 C343 1.415 1_655 S
C346 H336 0.930 . S
C346 C344 1.419 . S
C346 C347 1.362 . S
C347 H337 0.930 . S
C347 C340 1.409 1_455 S
C347 C346 1.362 . S
H348 C354 0.930 . S
H349 C357 0.930 . S
H350 C358 0.930 . S
H351 C359 0.930 . S
H352 C362 0.930 . S
H353 C363 0.930 . S
C354 H348 0.930 . S
C354 C355 1.355 . S
C354 C356 1.415 . S
C355 C354 1.355 . S
C355 C357 1.419 1_455 S
C356 C354 1.415 . S
C356 C361 1.425 1_455 S
C356 C363 1.409 . S
C357 H349 0.930 . S
C357 C355 1.419 1_655 S
C357 C358 1.362 . S
C358 H350 0.930 . S
C358 C357 1.362 . S
C358 C361 1.409 . S
C359 H351 0.930 . S
C359 C360 1.355 . S
C359 C361 1.415 . S
C360 C359 1.355 . S
C360 C362 1.419 1_655 S
C361 C356 1.425 1_655 S
C361 C358 1.409 . S
C361 C359 1.415 . S
C362 H352 0.930 . S
C362 C360 1.419 1_455 S
C362 C363 1.362 . S
C363 H353 0.930 . S
C363 C356 1.409 . S
C363 C362 1.362 . S
H364 C370 0.930 . S
H365 C373 0.930 . S
H366 C374 0.930 . S
H367 C375 0.930 . S
H368 C378 0.930 . S
H369 C379 0.930 . S
C370 H364 0.930 . S
C370 C371 1.355 . S
C370 C372 1.415 . S
C371 C370 1.355 . S
C371 C373 1.419 1_455 S
C372 C370 1.415 . S
C372 C377 1.425 1_455 S
C372 C379 1.409 . S
C373 H365 0.930 . S
C373 C371 1.419 1_655 S
C373 C374 1.362 . S
C374 H366 0.930 . S
C374 C373 1.362 . S
C374 C377 1.409 . S
C375 H367 0.930 . S
C375 C376 1.355 . S
C375 C377 1.415 . S
C376 C375 1.355 . S
C376 C378 1.419 1_655 S
C377 C372 1.425 1_655 S
C377 C374 1.409 . S
C377 C375 1.415 . S
C378 H368 0.930 . S
C378 C376 1.419 1_455 S
C378 C379 1.362 . S
C379 H369 0.930 . S
C379 C372 1.409 . S
C379 C378 1.362 . S
C131 C11 1.667 1_554 S
C136 C18 1.667 1_655 S
C147 C42 1.646 1_455 S
C152 C49 1.646 . S
C163 C73 1.633 . S
C168 C80 1.633 1_655 S
C179 C104 1.639 1_455 S
C184 C111 1.639 . S
C195 C41 1.596 . S
C200 C2 1.592 1_554 S
C211 C103 1.617 . S
C216 C64 1.617 . S
C227 C10 1.629 1_556 S
C232 C33 1.629 1_554 S
C243 C95 1.588 . S
C248 C72 1.588 . S
C259 C93 1.144 . S
C264 C1 1.116 . S
C275 C31 1.170 . S
C280 C63 1.208 . S
C291 C86 1.077 . S
C296 C58 1.119 . S
C307 C24 1.105 . S
C312 C120 1.092 . S
C323 C62 1.131 . S
C328 C32 1.183 . S
C339 C94 1.144 . S
C344 C0 1.173 . S
C355 C27 1.158 . S
C360 C117 1.185 . S
C371 C89 1.206 . S
C376 C55 1.206 . S
