# Generated by pormake.
# Topology sqp, (5)-cn, num edge types: 1
# Building blocks:
#     Node 0, Type 0, BuildingBlock: BEQFEK_clean_sbu_0, # of connection points: 5
#     Node 1, Type 0, BuildingBlock: BEQFEK_clean_sbu_0, # of connection points: 5
#     Node 2, Type 0, BuildingBlock: BEQFEK_clean_sbu_0, # of connection points: 5
#     Node 3, Type 0, BuildingBlock: BEQFEK_clean_sbu_0, # of connection points: 5
#     Edge 4, Type (0, 0), BuildingBlock: KIFKEQ_clean_linker_1, # of connection points: 2
#     Edge 5, Type (0, 0), BuildingBlock: KIFKEQ_clean_linker_1, # of connection points: 2
#     Edge 6, Type (0, 0), BuildingBlock: KIFKEQ_clean_linker_1, # of connection points: 2
#     Edge 7, Type (0, 0), BuildingBlock: KIFKEQ_clean_linker_1, # of connection points: 2
#     Edge 8, Type (0, 0), BuildingBlock: KIFKEQ_clean_linker_1, # of connection points: 2
#     Edge 9, Type (0, 0), BuildingBlock: KIFKEQ_clean_linker_1, # of connection points: 2
#     Edge 10, Type (0, 0), BuildingBlock: KIFKEQ_clean_linker_1, # of connection points: 2
#     Edge 11, Type (0, 0), BuildingBlock: KIFKEQ_clean_linker_1, # of connection points: 2
#     Edge 12, Type (0, 0), BuildingBlock: KIFKEQ_clean_linker_1, # of connection points: 2
#     Edge 13, Type (0, 0), BuildingBlock: KIFKEQ_clean_linker_1, # of connection points: 2
# Relax obj value: 0.030
# Max RMSD: 0.082
# Mean RMSD: 0.082
data_MOF--net-sqp--node1-BEQFEK_clean_sbu_0--edge1-KIFKEQ_clean_linker_1
_symmetry_space_group_name_H-M    P1
_symmetry_Int_Tables_number       1
_symmetry_cell_setting            triclinic
loop_
_symmetry_equiv_pos_as_xyz
'x, y, z'
_cell_length_a     24.747376
_cell_length_b     24.848765
_cell_length_c     39.464347
_cell_angle_alpha  97.072268
_cell_angle_beta   97.000355
_cell_angle_gamma 101.54551
loop_
_atom_site_label
_atom_site_type_symbol
_atom_site_fract_x
_atom_site_fract_y
_atom_site_fract_z
_atom_type_partial_charge
Co0 Co 0.05669 0.96683 0.29136 0.0
Co1 Co 0.9759 0.04937 0.30017 0.0
C2 C 0.93259 0.93067 0.26845 0.0
O3 O 0.98157 0.92138 0.27242 0.0
O4 O 0.92393 0.97905 0.27692 0.0
C5 C 0.10624 0.87217 0.28349 0.0
O6 O 0.06218 0.84836 0.29599 0.0
C7 C 0.89887 0.12312 0.28285 0.0
C8 C 0.91083 0.1787 0.33264 0.0
C9 C 0.88194 0.16837 0.29934 0.0
N10 N 0.9364 0.10802 0.3054 0.0
N11 N 0.94317 0.14144 0.33507 0.0
C12 C 0.87825 0.09321 0.24688 0.0
H13 H 0.88553 0.05044 0.24437 0.0
H14 H 0.90132 0.11557 0.22856 0.0
H15 H 0.83316 0.09193 0.23978 0.0
C16 C 0.11719 0.0596 0.26135 0.0
N17 N 0.07161 0.03483 0.27361 0.0
N18 N 0.03855 0.06984 0.27744 0.0
C19 C 0.06259 0.11843 0.26818 0.0
C20 C 0.11307 0.11345 0.25756 0.0
C21 C 0.16683 0.03451 0.25798 0.0
H22 H 0.18165 0.02263 0.2831 0.0
H23 H 0.15429 0.99613 0.23868 0.0
H24 H 0.20146 0.06352 0.24994 0.0
O25 O 0.06066 0.98056 0.34212 0.0
O26 O 1.00254 0.0377 0.34747 0.0
H27 H 0.03614 0.18185 0.29955 0.0
H28 H 0.06671 0.20501 0.263 0.0
C29 C 0.03987 0.16994 0.27204 0.0
H30 H 0.99772 0.16148 0.25673 0.0
H31 H 0.96994 0.13879 0.35708 0.0
O32 O 0.11241 0.92295 0.27963 0.0
C33 C 0.03544 0.00993 0.36073 0.0
Co34 Co 0.0795 0.96646 0.68081 0.0
Co35 Co 0.99448 0.04544 0.67818 0.0
C36 C 0.11223 0.09056 0.70826 0.0
O37 O 0.12207 0.04223 0.70165 0.0
O38 O 0.06315 0.09892 0.70178 0.0
C39 C 0.14073 0.90439 0.72093 0.0
O40 O 0.11916 0.92824 0.74601 0.0
C41 C 0.92193 0.12345 0.6952 0.0
C42 C 0.84739 0.08794 0.65604 0.0
C43 C 0.86839 0.12951 0.68395 0.0
N44 N 0.9319 0.07995 0.67492 0.0
N45 N 0.88743 0.05947 0.65132 0.0
C46 C 0.96109 0.15509 0.72637 0.0
H47 H 0.98508 0.12728 0.73839 0.0
H48 H 0.93821 0.17382 0.74553 0.0
H49 H 0.9911 0.18886 0.7183 0.0
C50 C 0.98553 0.89741 0.70695 0.0
N51 N 0.01113 0.94569 0.69802 0.0
N52 N 0.97797 0.98094 0.69979 0.0
C53 C 0.93133 0.95703 0.71144 0.0
C54 C 0.93423 0.90308 0.716 0.0
C55 C 1.0055 0.84438 0.70153 0.0
H56 H 0.03327 0.84567 0.68149 0.0
H57 H 0.02883 0.83848 0.72614 0.0
H58 H 0.9698 0.80824 0.69348 0.0
O59 O 0.06466 0.96658 0.63082 0.0
O60 O 1.00571 0.0234 0.62967 0.0
H61 H 0.85691 0.98249 0.69318 0.0
H62 H 0.85956 0.96491 0.7362 0.0
C63 C 0.8846 0.98508 0.71789 0.0
H64 H 0.9015 0.02939 0.72876 0.0
H65 H 0.88384 0.02494 0.63256 0.0
O66 O 0.12919 0.91455 0.6904 0.0
C67 C 0.03379 0.99288 0.61427 0.0
Co68 Co 0.56575 0.45187 0.79589 0.0
Co69 Co 0.48595 0.53602 0.79557 0.0
C70 C 0.44103 0.41865 0.76736 0.0
O71 O 0.48935 0.4092 0.77554 0.0
O72 O 0.43253 0.46773 0.77188 0.0
C73 C 0.62529 0.3883 0.75589 0.0
O74 O 0.59924 0.40813 0.73085 0.0
C75 C 0.40844 0.60879 0.77788 0.0
C76 C 0.44363 0.68275 0.81737 0.0
C77 C 0.40225 0.66206 0.78926 0.0
N78 N 0.45181 0.59868 0.79829 0.0
N79 N 0.47212 0.64282 0.82207 0.0
C80 C 0.37678 0.56984 0.74666 0.0
H81 H 0.40468 0.54572 0.73476 0.0
H82 H 0.35835 0.59272 0.72745 0.0
H83 H 0.3426 0.54014 0.75463 0.0
C84 C 0.63565 0.54333 0.76852 0.0
N85 N 0.58685 0.51861 0.77741 0.0
N86 N 0.55159 0.55165 0.77459 0.0
C87 C 0.57611 0.59719 0.7622 0.0
C88 C 0.63011 0.59343 0.75813 0.0
C89 C 0.6882 0.52208 0.77301 0.0
H90 H 0.69089 0.49571 0.74874 0.0
H91 H 0.72561 0.55667 0.77843 0.0
H92 H 0.68828 0.49695 0.79436 0.0
O93 O 0.56619 0.46953 0.84586 0.0
O94 O 0.50586 0.52488 0.84426 0.0
H95 H 0.55394 0.6716 0.78335 0.0
H96 H 0.57287 0.67268 0.74084 0.0
C97 C 0.55078 0.64618 0.75776 0.0
H98 H 0.50621 0.63192 0.74639 0.0
H99 H 0.50643 0.64618 0.84103 0.0
O100 O 0.61746 0.40169 0.78677 0.0
C101 C 0.53727 0.4992 0.86103 0.0
Co102 Co 0.5691 0.47831 0.1835 0.0
Co103 Co 0.48649 0.55942 0.17889 0.0
C104 C 0.60436 0.60223 0.20998 0.0
O105 O 0.61378 0.55379 0.20314 0.0
O106 O 0.55542 0.61104 0.20376 0.0
C107 C 0.64312 0.43012 0.22415 0.0
O108 O 0.63976 0.47187 0.24712 0.0
C109 C 0.41262 0.63343 0.19918 0.0
C110 C 0.34885 0.61644 0.1526 0.0
C111 C 0.36292 0.64621 0.18569 0.0
N112 N 0.42669 0.59748 0.17522 0.0
N113 N 0.38881 0.58815 0.1473 0.0
C114 C 0.44341 0.65021 0.2352 0.0
H115 H 0.46921 0.62005 0.24163 0.0
H116 H 0.41382 0.65296 0.25402 0.0
H117 H 0.47151 0.69167 0.23717 0.0
C118 C 0.47619 0.41406 0.21227 0.0
N119 N 0.50117 0.4609 0.20147 0.0
N120 N 0.46644 0.49461 0.19972 0.0
C121 C 0.41817 0.47012 0.20939 0.0
C122 C 0.42277 0.41837 0.21764 0.0
C123 C 0.50031 0.36347 0.21286 0.0
H124 H 0.53389 0.37091 0.23533 0.0
H125 H 0.46836 0.32619 0.21491 0.0
H126 H 0.51896 0.3556 0.18905 0.0
O127 O 0.55359 0.47608 0.133 0.0
O128 O 0.49983 0.53779 0.13109 0.0
H129 H 0.33344 0.46789 0.21918 0.0
H130 H 0.37825 0.53585 0.22478 0.0
C131 C 0.36736 0.49425 0.20883 0.0
H132 H 0.35221 0.49886 0.18194 0.0
H133 H 0.38936 0.5611 0.12497 0.0
O134 O 0.6157 0.42412 0.19402 0.0
C135 C 0.52586 0.50473 0.1161 0.0
H136 H 0.07129 0.93275 0.39629 0.0
H137 H 0.0112 0.08455 0.40997 0.0
H138 H 0.07013 0.92589 0.45728 0.0
H139 H 0.01222 0.07906 0.4711 0.0
H140 H 0.95814 0.02307 0.5682 0.0
H141 H 0.96072 0.0263 0.50707 0.0
H142 H 0.11261 0.96473 0.51462 0.0
H143 H 0.10866 0.95935 0.57548 0.0
C144 C 0.05883 0.96519 0.41247 0.0
C145 C 0.041 0.009 0.39831 0.0
C146 C 0.05824 0.96133 0.44746 0.0
C147 C 0.04043 0.00157 0.46908 0.0
C148 C 0.02474 0.04652 0.45506 0.0
C149 C 0.02465 0.04998 0.42006 0.0
C150 C 0.99184 0.00982 0.55673 0.0
C151 C 0.03324 0.99108 0.57668 0.0
C152 C 0.99363 0.01213 0.52174 0.0
C153 C 0.03731 0.99648 0.50596 0.0
C154 C 0.07808 0.97661 0.5258 0.0
C155 C 0.0759 0.97365 0.56074 0.0
H156 H 0.49612 0.57808 0.07546 0.0
H157 H 0.55746 0.42671 0.07194 0.0
H158 H 0.50138 0.57799 0.01452 0.0
H159 H 0.56034 0.42514 0.01025 0.0
H160 H 0.61204 0.46925 0.90828 0.0
H161 H 0.6096 0.47047 0.96997 0.0
H162 H 0.45785 0.53217 0.95964 0.0
H163 H 0.4618 0.53332 0.89863 0.0
C164 C 0.50997 0.54426 0.06153 0.0
C165 C 0.52627 0.50231 0.07853 0.0
C166 C 0.51278 0.54407 0.02646 0.0
C167 C 0.53113 0.50147 0.00733 0.0
C168 C 0.54688 0.45911 0.02428 0.0
C169 C 0.54479 0.45971 0.05957 0.0
C170 C 0.57843 0.48341 0.91931 0.0
C171 C 0.53731 0.50147 0.89862 0.0
C172 C 0.57672 0.48367 0.95461 0.0
C173 C 0.53348 0.50136 0.96986 0.0
C174 C 0.49239 0.5193 0.94902 0.0
C175 C 0.49452 0.51976 0.91392 0.0
H176 H 0.16007 0.12124 0.19915 0.0
H177 H 0.16701 0.20561 0.30232 0.0
H178 H 0.23611 0.19504 0.18932 0.0
H179 H 0.24298 0.27941 0.29274 0.0
H180 H 0.41913 0.36368 0.27318 0.0
H181 H 0.3438 0.28899 0.28287 0.0
H182 H 0.25034 0.29762 0.18457 0.0
H183 H 0.32562 0.37212 0.1751 0.0
C184 C 0.17789 0.15582 0.21958 0.0
C185 C 0.15781 0.15839 0.25131 0.0
C186 C 0.22112 0.19796 0.21401 0.0
C187 C 0.24539 0.24291 0.2403 0.0
C188 C 0.22535 0.24506 0.27215 0.0
C189 C 0.18174 0.20324 0.27754 0.0
C190 C 0.38231 0.34946 0.25382 0.0
C191 C 0.37755 0.37361 0.22362 0.0
C192 C 0.33927 0.30705 0.25934 0.0
C193 C 0.29122 0.28764 0.23447 0.0
C194 C 0.28702 0.31152 0.20405 0.0
C195 C 0.32974 0.35429 0.19874 0.0
H196 H 0.81062 0.21407 0.33439 0.0
H197 H 0.86562 0.19876 0.23464 0.0
H198 H 0.75075 0.27453 0.31513 0.0
H199 H 0.80581 0.2595 0.21531 0.0
H200 H 0.65428 0.33522 0.18457 0.0
H201 H 0.7089 0.26837 0.20138 0.0
H202 H 0.76373 0.36806 0.30201 0.0
H203 H 0.70859 0.43396 0.28555 0.0
C204 C 0.80956 0.22327 0.30822 0.0
C205 C 0.8423 0.20096 0.28591 0.0
C206 C 0.77548 0.25818 0.29723 0.0
C207 C 0.77371 0.27219 0.26373 0.0
C208 C 0.80558 0.24893 0.24111 0.0
C209 C 0.83967 0.21377 0.25213 0.0
C210 C 0.67804 0.34281 0.21027 0.0
C211 C 0.67695 0.38987 0.23375 0.0
C212 C 0.7095 0.30462 0.21985 0.0
C213 C 0.74042 0.31264 0.25311 0.0
C214 C 0.73958 0.35998 0.27641 0.0
C215 C 0.70821 0.39804 0.26687 0.0
H216 H 0.71327 0.60438 0.20492 0.0
H217 H 0.60394 0.70824 0.23942 0.0
H218 H 0.79101 0.68375 0.21682 0.0
H219 H 0.68299 0.78787 0.25346 0.0
H220 H 0.8243 0.93138 0.24315 0.0
H221 H 0.74474 0.85217 0.22964 0.0
H222 H 0.85299 0.74383 0.25959 0.0
H223 H 0.93212 0.82183 0.27092 0.0
C224 C 0.70607 0.64404 0.21586 0.0
C225 C 0.65238 0.64988 0.22136 0.0
C226 C 0.75091 0.6898 0.22283 0.0
C227 C 0.74371 0.74262 0.23624 0.0
C228 C 0.69011 0.7482 0.24255 0.0
C229 C 0.64485 0.70242 0.23491 0.0
C230 C 0.83097 0.8904 0.24633 0.0
C231 C 0.8846 0.88283 0.25774 0.0
C232 C 0.78528 0.84502 0.239 0.0
C233 C 0.79209 0.79126 0.24352 0.0
C234 C 0.84594 0.78409 0.25496 0.0
C235 C 0.89156 0.82906 0.26159 0.0
H236 H 0.20457 0.90999 0.26015 0.0
H237 H 0.09983 0.76077 0.28191 0.0
H238 H 0.26867 0.85541 0.239 0.0
H239 H 0.16421 0.70644 0.26102 0.0
H240 H 0.25002 0.62412 0.17781 0.0
H241 H 0.19024 0.67892 0.20388 0.0
H242 H 0.33587 0.79851 0.258 0.0
H243 H 0.39587 0.74406 0.23121 0.0
C244 C 0.19541 0.86564 0.26067 0.0
C245 C 0.14686 0.83968 0.27251 0.0
C246 C 0.23236 0.83444 0.24875 0.0
C247 C 0.22137 0.7766 0.24821 0.0
C248 C 0.17345 0.75086 0.26073 0.0
C249 C 0.13669 0.78205 0.27283 0.0
C250 C 0.26932 0.66203 0.19536 0.0
C251 C 0.32766 0.67938 0.20282 0.0
C252 C 0.23506 0.69318 0.21051 0.0
C253 C 0.25832 0.74283 0.23321 0.0
C254 C 0.31674 0.76043 0.24058 0.0
C255 C 0.35111 0.72892 0.22559 0.0
H256 H 0.42588 0.76741 0.77524 0.0
H257 H 0.28918 0.62736 0.77158 0.0
H258 H 0.36006 0.82253 0.75522 0.0
H259 H 0.22299 0.68317 0.75238 0.0
H260 H 0.14148 0.84274 0.77342 0.0
H261 H 0.20255 0.77916 0.78617 0.0
H262 H 0.28279 0.81443 0.69783 0.0
H263 H 0.22073 0.87697 0.68441 0.0
C264 C 0.38173 0.7484 0.76986 0.0
C265 C 0.36245 0.69317 0.77465 0.0
C266 C 0.34423 0.77978 0.75833 0.0
C267 C 0.28666 0.75693 0.75227 0.0
C268 C 0.26728 0.70155 0.75686 0.0
C269 C 0.305 0.66965 0.76761 0.0
C270 C 0.17193 0.83666 0.75661 0.0
C271 C 0.17659 0.86494 0.72802 0.0
C272 C 0.20649 0.80004 0.76377 0.0
C273 C 0.24712 0.79202 0.74291 0.0
C274 C 0.25168 0.82003 0.71424 0.0
C275 C 0.21621 0.85565 0.70659 0.0
H276 H 0.22193 0.09192 0.70634 0.0
H277 H 0.11083 0.198 0.73454 0.0
H278 H 0.29977 0.17112 0.71826 0.0
H279 H 0.18995 0.27766 0.74846 0.0
H280 H 0.33442 0.41849 0.73779 0.0
H281 H 0.25455 0.33955 0.72417 0.0
H282 H 0.3592 0.23293 0.7618 0.0
H283 H 0.43875 0.31045 0.77344 0.0
C284 C 0.21426 0.13207 0.71587 0.0
C285 C 0.16007 0.13849 0.71963 0.0
C286 C 0.25918 0.17774 0.72284 0.0
C287 C 0.25154 0.23113 0.73447 0.0
C288 C 0.19742 0.23744 0.73898 0.0
C289 C 0.1521 0.19166 0.73141 0.0
C290 C 0.34032 0.37792 0.74264 0.0
C291 C 0.3931 0.37072 0.75637 0.0
C292 C 0.29441 0.33274 0.73523 0.0
C293 C 0.30012 0.27957 0.74188 0.0
C294 C 0.3531 0.27271 0.75555 0.0
C295 C 0.39895 0.31745 0.76236 0.0
H296 H 0.76333 0.10533 0.69919 0.0
H297 H 0.90253 0.24223 0.70123 0.0
H298 H 0.70812 0.17047 0.72017 0.0
H299 H 0.84656 0.30771 0.72133 0.0
H300 H 0.6838 0.3863 0.70181 0.0
H301 H 0.74762 0.32591 0.68811 0.0
H302 H 0.7189 0.24885 0.77836 0.0
H303 H 0.65617 0.3104 0.79276 0.0
C304 C 0.78212 0.14938 0.70438 0.0
C305 C 0.83713 0.16893 0.69886 0.0
C306 C 0.7507 0.18648 0.71647 0.0
C307 C 0.77328 0.24388 0.72236 0.0
C308 C 0.82843 0.26353 0.71701 0.0
C309 C 0.8604 0.22623 0.70572 0.0
C310 C 0.69137 0.3567 0.71884 0.0
C311 C 0.66489 0.35279 0.74826 0.0
C312 C 0.72812 0.32253 0.71112 0.0
C313 C 0.73805 0.283 0.73225 0.0
C314 C 0.71182 0.27915 0.76174 0.0
C315 C 0.6761 0.3143 0.76995 0.0
H316 H 0.64632 0.62928 0.6972 0.0
H317 H 0.71332 0.65833 0.80547 0.0
H318 H 0.72061 0.70418 0.68703 0.0
H319 H 0.78676 0.73437 0.79593 0.0
H320 H 0.94301 0.8283 0.76028 0.0
H321 H 0.86995 0.75221 0.76999 0.0
H322 H 0.75094 0.80308 0.69793 0.0
H323 H 0.82469 0.87694 0.68698 0.0
C324 C 0.67709 0.65201 0.71874 0.0
C325 C 0.67489 0.63824 0.75196 0.0
C326 C 0.71932 0.69507 0.71308 0.0
C327 C 0.75976 0.72537 0.74068 0.0
C328 C 0.75697 0.71138 0.774 0.0
C329 C 0.71492 0.66816 0.77956 0.0
C330 C 0.90121 0.82291 0.7465 0.0
C331 C 0.88934 0.85871 0.72314 0.0
C332 C 0.85923 0.7797 0.75225 0.0
C333 C 0.80445 0.77151 0.73478 0.0
C334 C 0.79273 0.80771 0.71153 0.0
C335 C 0.83477 0.85064 0.70566 0.0
loop_
_geom_bond_atom_site_label_1
_geom_bond_atom_site_label_2
_geom_bond_distance
_geom_bond_site_symmetry_2
_ccdc_geom_bond_type
Co0 O3 1.970 1_455 S
Co0 N17 1.989 1_565 S
Co0 O25 1.967 . S
Co0 O32 1.920 . S
Co1 O4 1.966 1_545 S
Co1 N10 2.022 . S
Co1 N18 1.993 1_655 S
Co1 O26 1.941 . S
C2 O3 1.258 . S
C2 O4 1.263 . S
O3 Co0 1.970 1_655 S
O3 C2 1.258 . S
O4 Co1 1.966 1_565 S
O4 C2 1.263 . S
C5 O6 1.235 . S
C5 O32 1.289 . S
O6 C5 1.235 . S
C7 C9 1.400 . S
C7 N10 1.351 . S
C7 C12 1.501 . S
C8 C9 1.387 . S
C8 N11 1.341 . S
C9 C7 1.400 . S
C9 C8 1.387 . S
N10 Co1 2.022 . S
N10 C7 1.351 . S
N10 N11 1.365 . S
N11 C8 1.341 . S
N11 N10 1.365 . S
N11 H31 0.862 . S
C12 C7 1.501 . S
C12 H13 0.961 . S
C12 H14 0.961 . S
C12 H15 0.960 . S
H13 C12 0.961 . S
H14 C12 0.961 . S
H15 C12 0.960 . S
C16 N17 1.342 . S
C16 C20 1.401 . S
C16 C21 1.499 . S
N17 Co0 1.989 1_545 S
N17 C16 1.342 . S
N17 N18 1.388 . S
N18 Co1 1.993 1_455 S
N18 N17 1.388 . S
N18 C19 1.346 . S
C19 N18 1.346 . S
C19 C20 1.396 . S
C19 C29 1.510 . S
C20 C16 1.401 . S
C20 C19 1.396 . S
C21 C16 1.499 . S
C21 H22 0.951 1_545 S
C21 H23 0.960 . S
C21 H24 0.961 . S
H22 C21 0.951 1_565 S
H23 C21 0.960 . S
H24 C21 0.961 . S
O25 Co0 1.967 . S
O25 C33 1.258 1_565 S
O26 Co1 1.941 . S
O26 C33 1.266 1_655 S
H27 C29 0.959 . S
H28 C29 0.961 . S
C29 C19 1.510 . S
C29 H27 0.959 . S
C29 H28 0.961 . S
C29 H30 0.960 . S
H30 C29 0.960 . S
H31 N11 0.862 . S
O32 Co0 1.920 . S
O32 C5 1.289 . S
C33 O25 1.258 1_545 S
C33 O26 1.266 1_455 S
Co34 O37 1.970 1_565 S
Co34 N51 1.989 1_455 S
Co34 O59 1.967 . S
Co34 O66 1.920 . S
Co35 O38 1.966 1_655 S
Co35 N44 2.022 . S
Co35 N52 1.993 1_545 S
Co35 O60 1.941 . S
C36 O37 1.258 . S
C36 O38 1.263 . S
O37 Co34 1.970 1_545 S
O37 C36 1.258 . S
O38 Co35 1.966 1_455 S
O38 C36 1.263 . S
C39 O40 1.235 . S
C39 O66 1.289 . S
O40 C39 1.235 . S
C41 C43 1.400 . S
C41 N44 1.351 . S
C41 C46 1.501 . S
C42 C43 1.387 . S
C42 N45 1.341 . S
C43 C41 1.400 . S
C43 C42 1.387 . S
N44 Co35 2.022 . S
N44 C41 1.351 . S
N44 N45 1.365 . S
N45 C42 1.341 . S
N45 N44 1.365 . S
N45 H65 0.862 . S
C46 C41 1.501 . S
C46 H47 0.961 1_655 S
C46 H48 0.961 . S
C46 H49 0.960 . S
H47 C46 0.961 1_455 S
H48 C46 0.961 . S
H49 C46 0.960 . S
C50 N51 1.342 . S
C50 C54 1.401 . S
C50 C55 1.499 . S
N51 Co34 1.989 1_655 S
N51 C50 1.342 . S
N51 N52 1.388 . S
N52 Co35 1.993 1_565 S
N52 N51 1.388 . S
N52 C53 1.346 . S
C53 N52 1.346 . S
C53 C54 1.396 . S
C53 C63 1.510 . S
C54 C50 1.401 . S
C54 C53 1.396 . S
C55 C50 1.499 . S
C55 H56 0.959 1_655 S
C55 H57 0.960 . S
C55 H58 0.961 . S
H56 C55 0.959 1_455 S
H57 C55 0.960 . S
H58 C55 0.961 . S
O59 Co34 1.967 . S
O59 C67 1.258 1_565 S
O60 Co35 1.941 . S
O60 C67 1.266 1_655 S
H61 C63 0.959 . S
H62 C63 0.961 . S
C63 C53 1.510 . S
C63 H61 0.959 . S
C63 H62 0.961 . S
C63 H64 0.960 1_565 S
H64 C63 0.960 1_545 S
H65 N45 0.862 . S
O66 Co34 1.920 . S
O66 C39 1.289 . S
C67 O59 1.258 1_545 S
C67 O60 1.266 1_455 S
Co68 O71 1.970 . S
Co68 N85 1.989 . S
Co68 O93 1.967 . S
Co68 O100 1.920 . S
Co69 O72 1.966 . S
Co69 N78 2.022 . S
Co69 N86 1.993 . S
Co69 O94 1.941 . S
C70 O71 1.258 . S
C70 O72 1.263 . S
O71 Co68 1.970 . S
O71 C70 1.258 . S
O72 Co69 1.966 . S
O72 C70 1.263 . S
C73 O74 1.235 . S
C73 O100 1.289 . S
O74 C73 1.235 . S
C75 C77 1.400 . S
C75 N78 1.351 . S
C75 C80 1.501 . S
C76 C77 1.387 . S
C76 N79 1.341 . S
C77 C75 1.400 . S
C77 C76 1.387 . S
N78 Co69 2.022 . S
N78 C75 1.351 . S
N78 N79 1.365 . S
N79 C76 1.341 . S
N79 N78 1.365 . S
N79 H99 0.862 . S
C80 C75 1.501 . S
C80 H81 0.961 . S
C80 H82 0.961 . S
C80 H83 0.960 . S
H81 C80 0.961 . S
H82 C80 0.961 . S
H83 C80 0.960 . S
C84 N85 1.342 . S
C84 C88 1.401 . S
C84 C89 1.499 . S
N85 Co68 1.989 . S
N85 C84 1.342 . S
N85 N86 1.388 . S
N86 Co69 1.993 . S
N86 N85 1.388 . S
N86 C87 1.346 . S
C87 N86 1.346 . S
C87 C88 1.396 . S
C87 C97 1.510 . S
C88 C84 1.401 . S
C88 C87 1.396 . S
C89 C84 1.499 . S
C89 H90 0.959 . S
C89 H91 0.960 . S
C89 H92 0.961 . S
H90 C89 0.959 . S
H91 C89 0.960 . S
H92 C89 0.961 . S
O93 Co68 1.967 . S
O93 C101 1.258 . S
O94 Co69 1.941 . S
O94 C101 1.266 . S
H95 C97 0.959 . S
H96 C97 0.961 . S
C97 C87 1.510 . S
C97 H95 0.959 . S
C97 H96 0.961 . S
C97 H98 0.960 . S
H98 C97 0.960 . S
H99 N79 0.862 . S
O100 Co68 1.920 . S
O100 C73 1.289 . S
C101 O93 1.258 . S
C101 O94 1.266 . S
Co102 O105 1.970 . S
Co102 N119 1.989 . S
Co102 O127 1.967 . S
Co102 O134 1.920 . S
Co103 O106 1.966 . S
Co103 N112 2.022 . S
Co103 N120 1.993 . S
Co103 O128 1.941 . S
C104 O105 1.258 . S
C104 O106 1.263 . S
O105 Co102 1.970 . S
O105 C104 1.258 . S
O106 Co103 1.966 . S
O106 C104 1.263 . S
C107 O108 1.235 . S
C107 O134 1.289 . S
O108 C107 1.235 . S
C109 C111 1.400 . S
C109 N112 1.351 . S
C109 C114 1.501 . S
C110 C111 1.387 . S
C110 N113 1.341 . S
C111 C109 1.400 . S
C111 C110 1.387 . S
N112 Co103 2.022 . S
N112 C109 1.351 . S
N112 N113 1.365 . S
N113 C110 1.341 . S
N113 N112 1.365 . S
N113 H133 0.862 . S
C114 C109 1.501 . S
C114 H115 0.961 . S
C114 H116 0.961 . S
C114 H117 0.960 . S
H115 C114 0.961 . S
H116 C114 0.961 . S
H117 C114 0.960 . S
C118 N119 1.342 . S
C118 C122 1.401 . S
C118 C123 1.499 . S
N119 Co102 1.989 . S
N119 C118 1.342 . S
N119 N120 1.388 . S
N120 Co103 1.993 . S
N120 N119 1.388 . S
N120 C121 1.346 . S
C121 N120 1.346 . S
C121 C122 1.396 . S
C121 C131 1.510 . S
C122 C118 1.401 . S
C122 C121 1.396 . S
C123 C118 1.499 . S
C123 H124 0.959 . S
C123 H125 0.960 . S
C123 H126 0.961 . S
H124 C123 0.959 . S
H125 C123 0.960 . S
H126 C123 0.961 . S
O127 Co102 1.967 . S
O127 C135 1.258 . S
O128 Co103 1.941 . S
O128 C135 1.266 . S
H129 C131 0.959 . S
H130 C131 0.961 . S
C131 C121 1.510 . S
C131 H129 0.959 . S
C131 H130 0.961 . S
C131 H132 0.960 . S
H132 C131 0.960 . S
H133 N113 0.862 . S
O134 Co102 1.920 . S
O134 C107 1.289 . S
C135 O127 1.258 . S
C135 O128 1.266 . S
H136 C144 0.950 . S
H137 C149 0.950 . S
H138 C146 0.950 . S
H139 C148 0.950 . S
H140 C150 0.950 . S
H141 C152 0.950 . S
H142 C154 0.950 . S
H143 C155 0.950 . S
C144 H136 0.950 . S
C144 C145 1.386 1_565 S
C144 C146 1.391 . S
C145 C144 1.386 1_545 S
C145 C149 1.393 1_455 S
C146 H138 0.950 . S
C146 C144 1.391 . S
C146 C147 1.400 1_565 S
C147 C146 1.400 1_545 S
C147 C148 1.398 1_455 S
C147 C153 1.491 . S
C148 H139 0.950 . S
C148 C147 1.398 1_655 S
C148 C149 1.391 . S
C149 H137 0.950 . S
C149 C145 1.393 1_655 S
C149 C148 1.391 . S
C150 H140 0.950 . S
C150 C151 1.376 1_645 S
C150 C152 1.391 . S
C151 C150 1.376 1_465 S
C151 C155 1.399 . S
C152 H141 0.950 . S
C152 C150 1.391 . S
C152 C153 1.400 1_655 S
C153 C147 1.491 . S
C153 C152 1.400 1_455 S
C153 C154 1.398 1_545 S
C154 H142 0.950 . S
C154 C153 1.398 1_565 S
C154 C155 1.391 . S
C155 H143 0.950 . S
C155 C151 1.399 . S
C155 C154 1.391 . S
H156 C164 0.950 . S
H157 C169 0.950 . S
H158 C166 0.950 . S
H159 C168 0.950 . S
H160 C170 0.950 . S
H161 C172 0.950 . S
H162 C174 0.950 . S
H163 C175 0.950 . S
C164 H156 0.950 . S
C164 C165 1.386 . S
C164 C166 1.391 . S
C165 C164 1.386 . S
C165 C169 1.393 . S
C166 H158 0.950 . S
C166 C164 1.391 . S
C166 C167 1.400 . S
C167 C166 1.400 . S
C167 C168 1.398 . S
C167 C173 1.491 1_554 S
C168 H159 0.950 . S
C168 C167 1.398 . S
C168 C169 1.391 . S
C169 H157 0.950 . S
C169 C165 1.393 . S
C169 C168 1.391 . S
C170 H160 0.950 . S
C170 C171 1.386 . S
C170 C172 1.391 . S
C171 C170 1.386 . S
C171 C175 1.393 . S
C172 H161 0.950 . S
C172 C170 1.391 . S
C172 C173 1.400 . S
C173 C167 1.491 1_556 S
C173 C172 1.400 . S
C173 C174 1.398 . S
C174 H162 0.950 . S
C174 C173 1.398 . S
C174 C175 1.391 . S
C175 H163 0.950 . S
C175 C171 1.393 . S
C175 C174 1.391 . S
H176 C184 0.950 . S
H177 C189 0.950 . S
H178 C186 0.950 . S
H179 C188 0.950 . S
H180 C190 0.950 . S
H181 C192 0.950 . S
H182 C194 0.950 . S
H183 C195 0.950 . S
C184 H176 0.950 . S
C184 C185 1.386 . S
C184 C186 1.391 . S
C185 C184 1.386 . S
C185 C189 1.393 . S
C186 H178 0.950 . S
C186 C184 1.391 . S
C186 C187 1.400 . S
C187 C186 1.400 . S
C187 C188 1.398 . S
C187 C193 1.491 . S
C188 H179 0.950 . S
C188 C187 1.398 . S
C188 C189 1.391 . S
C189 H177 0.950 . S
C189 C185 1.393 . S
C189 C188 1.391 . S
C190 H180 0.950 . S
C190 C191 1.386 . S
C190 C192 1.391 . S
C191 C190 1.386 . S
C191 C195 1.393 . S
C192 H181 0.950 . S
C192 C190 1.391 . S
C192 C193 1.400 . S
C193 C187 1.491 . S
C193 C192 1.400 . S
C193 C194 1.398 . S
C194 H182 0.950 . S
C194 C193 1.398 . S
C194 C195 1.391 . S
C195 H183 0.950 . S
C195 C191 1.393 . S
C195 C194 1.391 . S
H196 C204 0.950 . S
H197 C209 0.950 . S
H198 C206 0.950 . S
H199 C208 0.950 . S
H200 C210 0.950 . S
H201 C212 0.950 . S
H202 C214 0.950 . S
H203 C215 0.950 . S
C204 H196 0.950 . S
C204 C205 1.386 . S
C204 C206 1.391 . S
C205 C204 1.386 . S
C205 C209 1.393 . S
C206 H198 0.950 . S
C206 C204 1.391 . S
C206 C207 1.400 . S
C207 C206 1.400 . S
C207 C208 1.398 . S
C207 C213 1.491 . S
C208 H199 0.950 . S
C208 C207 1.398 . S
C208 C209 1.391 . S
C209 H197 0.950 . S
C209 C205 1.393 . S
C209 C208 1.391 . S
C210 H200 0.950 . S
C210 C211 1.386 . S
C210 C212 1.391 . S
C211 C210 1.386 . S
C211 C215 1.393 . S
C212 H201 0.950 . S
C212 C210 1.391 . S
C212 C213 1.400 . S
C213 C207 1.491 . S
C213 C212 1.400 . S
C213 C214 1.398 . S
C214 H202 0.950 . S
C214 C213 1.398 . S
C214 C215 1.391 . S
C215 H203 0.950 . S
C215 C211 1.393 . S
C215 C214 1.391 . S
H216 C224 0.950 . S
H217 C229 0.950 . S
H218 C226 0.950 . S
H219 C228 0.950 . S
H220 C230 0.950 . S
H221 C232 0.950 . S
H222 C234 0.950 . S
H223 C235 0.950 . S
C224 H216 0.950 . S
C224 C225 1.386 . S
C224 C226 1.391 . S
C225 C224 1.386 . S
C225 C229 1.393 . S
C226 H218 0.950 . S
C226 C224 1.391 . S
C226 C227 1.400 . S
C227 C226 1.400 . S
C227 C228 1.398 . S
C227 C233 1.491 . S
C228 H219 0.950 . S
C228 C227 1.398 . S
C228 C229 1.391 . S
C229 H217 0.950 . S
C229 C225 1.393 . S
C229 C228 1.391 . S
C230 H220 0.950 . S
C230 C231 1.386 . S
C230 C232 1.391 . S
C231 C230 1.386 . S
C231 C235 1.393 . S
C232 H221 0.950 . S
C232 C230 1.391 . S
C232 C233 1.400 . S
C233 C227 1.491 . S
C233 C232 1.400 . S
C233 C234 1.398 . S
C234 H222 0.950 . S
C234 C233 1.398 . S
C234 C235 1.391 . S
C235 H223 0.950 . S
C235 C231 1.393 . S
C235 C234 1.391 . S
H236 C244 0.950 . S
H237 C249 0.950 . S
H238 C246 0.950 . S
H239 C248 0.950 . S
H240 C250 0.950 . S
H241 C252 0.950 . S
H242 C254 0.950 . S
H243 C255 0.950 . S
C244 H236 0.950 . S
C244 C245 1.386 . S
C244 C246 1.391 . S
C245 C244 1.386 . S
C245 C249 1.393 . S
C246 H238 0.950 . S
C246 C244 1.391 . S
C246 C247 1.400 . S
C247 C246 1.400 . S
C247 C248 1.398 . S
C247 C253 1.491 . S
C248 H239 0.950 . S
C248 C247 1.398 . S
C248 C249 1.391 . S
C249 H237 0.950 . S
C249 C245 1.393 . S
C249 C248 1.391 . S
C250 H240 0.950 . S
C250 C251 1.386 . S
C250 C252 1.391 . S
C251 C250 1.386 . S
C251 C255 1.393 . S
C252 H241 0.950 . S
C252 C250 1.391 . S
C252 C253 1.400 . S
C253 C247 1.491 . S
C253 C252 1.400 . S
C253 C254 1.398 . S
C254 H242 0.950 . S
C254 C253 1.398 . S
C254 C255 1.391 . S
C255 H243 0.950 . S
C255 C251 1.393 . S
C255 C254 1.391 . S
H256 C264 0.950 . S
H257 C269 0.950 . S
H258 C266 0.950 . S
H259 C268 0.950 . S
H260 C270 0.950 . S
H261 C272 0.950 . S
H262 C274 0.950 . S
H263 C275 0.950 . S
C264 H256 0.950 . S
C264 C265 1.386 . S
C264 C266 1.391 . S
C265 C264 1.386 . S
C265 C269 1.393 . S
C266 H258 0.950 . S
C266 C264 1.391 . S
C266 C267 1.400 . S
C267 C266 1.400 . S
C267 C268 1.398 . S
C267 C273 1.491 . S
C268 H259 0.950 . S
C268 C267 1.398 . S
C268 C269 1.391 . S
C269 H257 0.950 . S
C269 C265 1.393 . S
C269 C268 1.391 . S
C270 H260 0.950 . S
C270 C271 1.386 . S
C270 C272 1.391 . S
C271 C270 1.386 . S
C271 C275 1.393 . S
C272 H261 0.950 . S
C272 C270 1.391 . S
C272 C273 1.400 . S
C273 C267 1.491 . S
C273 C272 1.400 . S
C273 C274 1.398 . S
C274 H262 0.950 . S
C274 C273 1.398 . S
C274 C275 1.391 . S
C275 H263 0.950 . S
C275 C271 1.393 . S
C275 C274 1.391 . S
H276 C284 0.950 . S
H277 C289 0.950 . S
H278 C286 0.950 . S
H279 C288 0.950 . S
H280 C290 0.950 . S
H281 C292 0.950 . S
H282 C294 0.950 . S
H283 C295 0.950 . S
C284 H276 0.950 . S
C284 C285 1.386 . S
C284 C286 1.391 . S
C285 C284 1.386 . S
C285 C289 1.393 . S
C286 H278 0.950 . S
C286 C284 1.391 . S
C286 C287 1.400 . S
C287 C286 1.400 . S
C287 C288 1.398 . S
C287 C293 1.491 . S
C288 H279 0.950 . S
C288 C287 1.398 . S
C288 C289 1.391 . S
C289 H277 0.950 . S
C289 C285 1.393 . S
C289 C288 1.391 . S
C290 H280 0.950 . S
C290 C291 1.386 . S
C290 C292 1.391 . S
C291 C290 1.386 . S
C291 C295 1.393 . S
C292 H281 0.950 . S
C292 C290 1.391 . S
C292 C293 1.400 . S
C293 C287 1.491 . S
C293 C292 1.400 . S
C293 C294 1.398 . S
C294 H282 0.950 . S
C294 C293 1.398 . S
C294 C295 1.391 . S
C295 H283 0.950 . S
C295 C291 1.393 . S
C295 C294 1.391 . S
H296 C304 0.950 . S
H297 C309 0.950 . S
H298 C306 0.950 . S
H299 C308 0.950 . S
H300 C310 0.950 . S
H301 C312 0.950 . S
H302 C314 0.950 . S
H303 C315 0.950 . S
C304 H296 0.950 . S
C304 C305 1.386 . S
C304 C306 1.391 . S
C305 C304 1.386 . S
C305 C309 1.393 . S
C306 H298 0.950 . S
C306 C304 1.391 . S
C306 C307 1.400 . S
C307 C306 1.400 . S
C307 C308 1.398 . S
C307 C313 1.491 . S
C308 H299 0.950 . S
C308 C307 1.398 . S
C308 C309 1.391 . S
C309 H297 0.950 . S
C309 C305 1.393 . S
C309 C308 1.391 . S
C310 H300 0.950 . S
C310 C311 1.386 . S
C310 C312 1.391 . S
C311 C310 1.386 . S
C311 C315 1.393 . S
C312 H301 0.950 . S
C312 C310 1.391 . S
C312 C313 1.400 . S
C313 C307 1.491 . S
C313 C312 1.400 . S
C313 C314 1.398 . S
C314 H302 0.950 . S
C314 C313 1.398 . S
C314 C315 1.391 . S
C315 H303 0.950 . S
C315 C311 1.393 . S
C315 C314 1.391 . S
H316 C324 0.950 . S
H317 C329 0.950 . S
H318 C326 0.950 . S
H319 C328 0.950 . S
H320 C330 0.950 . S
H321 C332 0.950 . S
H322 C334 0.950 . S
H323 C335 0.950 . S
C324 H316 0.950 . S
C324 C325 1.386 . S
C324 C326 1.391 . S
C325 C324 1.386 . S
C325 C329 1.393 . S
C326 H318 0.950 . S
C326 C324 1.391 . S
C326 C327 1.400 . S
C327 C326 1.400 . S
C327 C328 1.398 . S
C327 C333 1.491 . S
C328 H319 0.950 . S
C328 C327 1.398 . S
C328 C329 1.391 . S
C329 H317 0.950 . S
C329 C325 1.393 . S
C329 C328 1.391 . S
C330 H320 0.950 . S
C330 C331 1.386 . S
C330 C332 1.391 . S
C331 C330 1.386 . S
C331 C335 1.393 . S
C332 H321 0.950 . S
C332 C330 1.391 . S
C332 C333 1.400 . S
C333 C327 1.491 . S
C333 C332 1.400 . S
C333 C334 1.398 . S
C334 H322 0.950 . S
C334 C333 1.398 . S
C334 C335 1.391 . S
C335 H323 0.950 . S
C335 C331 1.393 . S
C335 C334 1.391 . S
C145 C33 1.509 . S
C151 C67 1.514 1_565 S
C165 C135 1.506 . S
C171 C101 1.512 . S
C185 C20 1.281 . S
C191 C122 1.280 . S
C205 C9 1.515 . S
C211 C107 1.536 . S
C225 C104 1.571 . S
C231 C2 1.574 . S
C245 C5 1.543 . S
C251 C111 1.517 . S
C265 C77 1.530 . S
C271 C39 1.530 . S
C285 C36 1.575 . S
C291 C70 1.572 . S
C305 C43 1.529 . S
C311 C73 1.533 . S
C325 C88 1.278 . S
C331 C54 1.277 . S
