# Generated by pormake.
# Topology umr, (4)-cn, num edge types: 1
# Building blocks:
#     Node 0, Type 0, BuildingBlock: GALJAG_clean_sbu_0, # of connection points: 4
#     Node 1, Type 0, BuildingBlock: GALJAG_clean_sbu_0, # of connection points: 4
#     Node 2, Type 0, BuildingBlock: GALJAG_clean_sbu_0, # of connection points: 4
#     Node 3, Type 0, BuildingBlock: GALJAG_clean_sbu_0, # of connection points: 4
#     Node 4, Type 0, BuildingBlock: GALJAG_clean_sbu_0, # of connection points: 4
#     Node 5, Type 0, BuildingBlock: GALJAG_clean_sbu_0, # of connection points: 4
#     Node 6, Type 0, BuildingBlock: GALJAG_clean_sbu_0, # of connection points: 4
#     Node 7, Type 0, BuildingBlock: GALJAG_clean_sbu_0, # of connection points: 4
#     Node 8, Type 0, BuildingBlock: GALJAG_clean_sbu_0, # of connection points: 4
#     Node 9, Type 0, BuildingBlock: GALJAG_clean_sbu_0, # of connection points: 4
#     Node 10, Type 0, BuildingBlock: GALJAG_clean_sbu_0, # of connection points: 4
#     Node 11, Type 0, BuildingBlock: GALJAG_clean_sbu_0, # of connection points: 4
#     Node 12, Type 0, BuildingBlock: GALJAG_clean_sbu_0, # of connection points: 4
#     Node 13, Type 0, BuildingBlock: GALJAG_clean_sbu_0, # of connection points: 4
#     Node 14, Type 0, BuildingBlock: GALJAG_clean_sbu_0, # of connection points: 4
#     Node 15, Type 0, BuildingBlock: GALJAG_clean_sbu_0, # of connection points: 4
#     Node 16, Type 0, BuildingBlock: GALJAG_clean_sbu_0, # of connection points: 4
#     Node 17, Type 0, BuildingBlock: GALJAG_clean_sbu_0, # of connection points: 4
#     Node 18, Type 0, BuildingBlock: GALJAG_clean_sbu_0, # of connection points: 4
#     Node 19, Type 0, BuildingBlock: GALJAG_clean_sbu_0, # of connection points: 4
#     Node 20, Type 0, BuildingBlock: GALJAG_clean_sbu_0, # of connection points: 4
#     Node 21, Type 0, BuildingBlock: GALJAG_clean_sbu_0, # of connection points: 4
#     Node 22, Type 0, BuildingBlock: GALJAG_clean_sbu_0, # of connection points: 4
#     Node 23, Type 0, BuildingBlock: GALJAG_clean_sbu_0, # of connection points: 4
#     Node 24, Type 0, BuildingBlock: GALJAG_clean_sbu_0, # of connection points: 4
#     Node 25, Type 0, BuildingBlock: GALJAG_clean_sbu_0, # of connection points: 4
#     Node 26, Type 0, BuildingBlock: GALJAG_clean_sbu_0, # of connection points: 4
#     Node 27, Type 0, BuildingBlock: GALJAG_clean_sbu_0, # of connection points: 4
#     Node 28, Type 0, BuildingBlock: GALJAG_clean_sbu_0, # of connection points: 4
#     Node 29, Type 0, BuildingBlock: GALJAG_clean_sbu_0, # of connection points: 4
#     Node 30, Type 0, BuildingBlock: GALJAG_clean_sbu_0, # of connection points: 4
#     Node 31, Type 0, BuildingBlock: GALJAG_clean_sbu_0, # of connection points: 4
#     Edge 32, Type (0, 0), BuildingBlock: CIFDUS_clean_linker_0, # of connection points: 2
#     Edge 33, Type (0, 0), BuildingBlock: CIFDUS_clean_linker_0, # of connection points: 2
#     Edge 34, Type (0, 0), BuildingBlock: CIFDUS_clean_linker_0, # of connection points: 2
#     Edge 35, Type (0, 0), BuildingBlock: CIFDUS_clean_linker_0, # of connection points: 2
#     Edge 36, Type (0, 0), BuildingBlock: CIFDUS_clean_linker_0, # of connection points: 2
#     Edge 37, Type (0, 0), BuildingBlock: CIFDUS_clean_linker_0, # of connection points: 2
#     Edge 38, Type (0, 0), BuildingBlock: CIFDUS_clean_linker_0, # of connection points: 2
#     Edge 39, Type (0, 0), BuildingBlock: CIFDUS_clean_linker_0, # of connection points: 2
#     Edge 40, Type (0, 0), BuildingBlock: CIFDUS_clean_linker_0, # of connection points: 2
#     Edge 41, Type (0, 0), BuildingBlock: CIFDUS_clean_linker_0, # of connection points: 2
#     Edge 42, Type (0, 0), BuildingBlock: CIFDUS_clean_linker_0, # of connection points: 2
#     Edge 43, Type (0, 0), BuildingBlock: CIFDUS_clean_linker_0, # of connection points: 2
#     Edge 44, Type (0, 0), BuildingBlock: CIFDUS_clean_linker_0, # of connection points: 2
#     Edge 45, Type (0, 0), BuildingBlock: CIFDUS_clean_linker_0, # of connection points: 2
#     Edge 46, Type (0, 0), BuildingBlock: CIFDUS_clean_linker_0, # of connection points: 2
#     Edge 47, Type (0, 0), BuildingBlock: CIFDUS_clean_linker_0, # of connection points: 2
#     Edge 48, Type (0, 0), BuildingBlock: CIFDUS_clean_linker_0, # of connection points: 2
#     Edge 49, Type (0, 0), BuildingBlock: CIFDUS_clean_linker_0, # of connection points: 2
#     Edge 50, Type (0, 0), BuildingBlock: CIFDUS_clean_linker_0, # of connection points: 2
#     Edge 51, Type (0, 0), BuildingBlock: CIFDUS_clean_linker_0, # of connection points: 2
#     Edge 52, Type (0, 0), BuildingBlock: CIFDUS_clean_linker_0, # of connection points: 2
#     Edge 53, Type (0, 0), BuildingBlock: CIFDUS_clean_linker_0, # of connection points: 2
#     Edge 54, Type (0, 0), BuildingBlock: CIFDUS_clean_linker_0, # of connection points: 2
#     Edge 55, Type (0, 0), BuildingBlock: CIFDUS_clean_linker_0, # of connection points: 2
#     Edge 56, Type (0, 0), BuildingBlock: CIFDUS_clean_linker_0, # of connection points: 2
#     Edge 57, Type (0, 0), BuildingBlock: CIFDUS_clean_linker_0, # of connection points: 2
#     Edge 58, Type (0, 0), BuildingBlock: CIFDUS_clean_linker_0, # of connection points: 2
#     Edge 59, Type (0, 0), BuildingBlock: CIFDUS_clean_linker_0, # of connection points: 2
#     Edge 60, Type (0, 0), BuildingBlock: CIFDUS_clean_linker_0, # of connection points: 2
#     Edge 61, Type (0, 0), BuildingBlock: CIFDUS_clean_linker_0, # of connection points: 2
#     Edge 62, Type (0, 0), BuildingBlock: CIFDUS_clean_linker_0, # of connection points: 2
#     Edge 63, Type (0, 0), BuildingBlock: CIFDUS_clean_linker_0, # of connection points: 2
#     Edge 64, Type (0, 0), BuildingBlock: CIFDUS_clean_linker_0, # of connection points: 2
#     Edge 65, Type (0, 0), BuildingBlock: CIFDUS_clean_linker_0, # of connection points: 2
#     Edge 66, Type (0, 0), BuildingBlock: CIFDUS_clean_linker_0, # of connection points: 2
#     Edge 67, Type (0, 0), BuildingBlock: CIFDUS_clean_linker_0, # of connection points: 2
#     Edge 68, Type (0, 0), BuildingBlock: CIFDUS_clean_linker_0, # of connection points: 2
#     Edge 69, Type (0, 0), BuildingBlock: CIFDUS_clean_linker_0, # of connection points: 2
#     Edge 70, Type (0, 0), BuildingBlock: CIFDUS_clean_linker_0, # of connection points: 2
#     Edge 71, Type (0, 0), BuildingBlock: CIFDUS_clean_linker_0, # of connection points: 2
#     Edge 72, Type (0, 0), BuildingBlock: CIFDUS_clean_linker_0, # of connection points: 2
#     Edge 73, Type (0, 0), BuildingBlock: CIFDUS_clean_linker_0, # of connection points: 2
#     Edge 74, Type (0, 0), BuildingBlock: CIFDUS_clean_linker_0, # of connection points: 2
#     Edge 75, Type (0, 0), BuildingBlock: CIFDUS_clean_linker_0, # of connection points: 2
#     Edge 76, Type (0, 0), BuildingBlock: CIFDUS_clean_linker_0, # of connection points: 2
#     Edge 77, Type (0, 0), BuildingBlock: CIFDUS_clean_linker_0, # of connection points: 2
#     Edge 78, Type (0, 0), BuildingBlock: CIFDUS_clean_linker_0, # of connection points: 2
#     Edge 79, Type (0, 0), BuildingBlock: CIFDUS_clean_linker_0, # of connection points: 2
#     Edge 80, Type (0, 0), BuildingBlock: CIFDUS_clean_linker_0, # of connection points: 2
#     Edge 81, Type (0, 0), BuildingBlock: CIFDUS_clean_linker_0, # of connection points: 2
#     Edge 82, Type (0, 0), BuildingBlock: CIFDUS_clean_linker_0, # of connection points: 2
#     Edge 83, Type (0, 0), BuildingBlock: CIFDUS_clean_linker_0, # of connection points: 2
#     Edge 84, Type (0, 0), BuildingBlock: CIFDUS_clean_linker_0, # of connection points: 2
#     Edge 85, Type (0, 0), BuildingBlock: CIFDUS_clean_linker_0, # of connection points: 2
#     Edge 86, Type (0, 0), BuildingBlock: CIFDUS_clean_linker_0, # of connection points: 2
#     Edge 87, Type (0, 0), BuildingBlock: CIFDUS_clean_linker_0, # of connection points: 2
#     Edge 88, Type (0, 0), BuildingBlock: CIFDUS_clean_linker_0, # of connection points: 2
#     Edge 89, Type (0, 0), BuildingBlock: CIFDUS_clean_linker_0, # of connection points: 2
#     Edge 90, Type (0, 0), BuildingBlock: CIFDUS_clean_linker_0, # of connection points: 2
#     Edge 91, Type (0, 0), BuildingBlock: CIFDUS_clean_linker_0, # of connection points: 2
#     Edge 92, Type (0, 0), BuildingBlock: CIFDUS_clean_linker_0, # of connection points: 2
#     Edge 93, Type (0, 0), BuildingBlock: CIFDUS_clean_linker_0, # of connection points: 2
#     Edge 94, Type (0, 0), BuildingBlock: CIFDUS_clean_linker_0, # of connection points: 2
#     Edge 95, Type (0, 0), BuildingBlock: CIFDUS_clean_linker_0, # of connection points: 2
# Relax obj value: 0.027
# Max RMSD: 0.060
# Mean RMSD: 0.060
data_MOF--net-umr--node1-GALJAG_clean_sbu_0--edge1-CIFDUS_clean_linker_0
_symmetry_space_group_name_H-M    P1
_symmetry_Int_Tables_number       1
_symmetry_cell_setting            triclinic
loop_
_symmetry_equiv_pos_as_xyz
'x, y, z'
_cell_length_a     71.225134
_cell_length_b     71.213035
_cell_length_c     24.717701
_cell_angle_alpha  89.92231
_cell_angle_beta   90.118353
_cell_angle_gamma 90.020964
loop_
_atom_site_label
_atom_site_type_symbol
_atom_site_fract_x
_atom_site_fract_y
_atom_site_fract_z
_atom_type_partial_charge
In0 In 0.15325 0.2812 0.04391 0.0
O1 O 0.14573 0.25884 0.10799 0.0
O2 O 0.16025 0.28359 0.13244 0.0
C3 C 0.14393 0.26903 0.94433 0.0
C4 C 0.12645 0.30635 0.06289 0.0
C5 C 0.19011 0.28441 0.02482 0.0
O6 O 0.14632 0.25775 0.98349 0.0
O7 O 0.14561 0.28617 0.95624 0.0
O8 O 0.1796 0.29867 0.02842 0.0
O9 O 0.182 0.26883 0.03176 0.0
C10 C 0.15261 0.26839 0.14654 0.0
O11 O 0.14345 0.31109 0.05668 0.0
O12 O 0.12302 0.28904 0.05729 0.0
In13 In 0.95649 0.90325 0.30739 0.0
O14 O 0.92577 0.8965 0.32149 0.0
O15 O 0.94547 0.87391 0.3221 0.0
C16 C 0.9533 0.94066 0.29333 0.0
C17 C 0.97416 0.89852 0.40323 0.0
C18 C 0.96763 0.89398 0.20646 0.0
O19 O 0.93916 0.93021 0.29958 0.0
O20 O 0.96886 0.93231 0.29575 0.0
O21 O 0.97914 0.89682 0.24455 0.0
O22 O 0.95061 0.89515 0.21982 0.0
C23 C 0.92862 0.87911 0.32774 0.0
O24 O 0.98146 0.89341 0.35908 0.0
O25 O 0.95841 0.90642 0.39861 0.0
In26 In 0.33844 0.71328 0.54547 0.0
O27 O 0.3468 0.68354 0.5674 0.0
O28 O 0.36864 0.70292 0.54874 0.0
C29 C 0.3012 0.70754 0.53414 0.0
C30 C 0.34282 0.73112 0.64051 0.0
C31 C 0.34542 0.72854 0.44791 0.0
O32 O 0.313 0.69457 0.52739 0.0
O33 O 0.30817 0.7231 0.54766 0.0
O34 O 0.34513 0.73808 0.49085 0.0
O35 O 0.34295 0.71114 0.45446 0.0
C36 C 0.36422 0.68655 0.56379 0.0
O37 O 0.34566 0.73923 0.59585 0.0
O38 O 0.33753 0.71427 0.637 0.0
In39 In 0.53271 0.08723 0.79195 0.0
O40 O 0.56406 0.09034 0.80903 0.0
O41 O 0.5474 0.11505 0.80054 0.0
C42 C 0.52858 0.04982 0.78832 0.0
C43 C 0.51534 0.09443 0.88582 0.0
C44 C 0.5241 0.0956 0.68887 0.0
O45 O 0.54457 0.05754 0.78908 0.0
O46 O 0.51485 0.06099 0.79068 0.0
O47 O 0.51581 0.10339 0.72805 0.0
O48 O 0.53682 0.08417 0.70197 0.0
C49 C 0.56328 0.10806 0.81095 0.0
O50 O 0.50721 0.09706 0.84088 0.0
O51 O 0.53176 0.08791 0.8828 0.0
In52 In 0.15433 0.71341 0.45516 0.0
O53 O 0.14618 0.73837 0.40242 0.0
O54 O 0.15749 0.71411 0.36406 0.0
C55 C 0.14273 0.72601 0.55174 0.0
C56 C 0.13101 0.68479 0.43412 0.0
C57 C 0.19167 0.71453 0.47175 0.0
O58 O 0.14124 0.73558 0.50894 0.0
O59 O 0.14952 0.7098 0.54547 0.0
O60 O 0.18286 0.69916 0.46885 0.0
O61 O 0.18171 0.72896 0.46513 0.0
C62 C 0.15075 0.7304 0.35881 0.0
O63 O 0.14843 0.68224 0.44083 0.0
O64 O 0.12551 0.70149 0.44026 0.0
In65 In 0.52301 0.90429 0.69977 0.0
O66 O 0.50067 0.89825 0.63459 0.0
O67 O 0.52622 0.91128 0.61095 0.0
C68 C 0.50585 0.89646 0.79431 0.0
C69 C 0.54788 0.87652 0.68584 0.0
C70 C 0.52975 0.94061 0.72143 0.0
O71 O 0.49682 0.89847 0.75054 0.0
O72 O 0.52345 0.89764 0.78967 0.0
O73 O 0.54273 0.92854 0.72037 0.0
O74 O 0.5136 0.93438 0.71052 0.0
C75 C 0.51059 0.9047 0.59643 0.0
O76 O 0.5528 0.89348 0.69062 0.0
O77 O 0.53047 0.87355 0.69025 0.0
In78 In 0.3353 0.27068 0.93485 0.0
O79 O 0.342 0.30176 0.92744 0.0
O80 O 0.36444 0.28201 0.91984 0.0
C81 C 0.29811 0.27123 0.95163 0.0
C82 C 0.33721 0.25832 0.83143 0.0
C83 C 0.34475 0.258 0.03475 0.0
O84 O 0.30773 0.28615 0.95017 0.0
O85 O 0.30725 0.25631 0.9438 0.0
O86 O 0.34272 0.24696 0.99497 0.0
O87 O 0.34293 0.27515 0.02322 0.0
C88 C 0.35928 0.299 0.91861 0.0
O89 O 0.34498 0.24937 0.86985 0.0
O90 O 0.32836 0.27279 0.8459 0.0
In91 In 0.96386 0.08522 0.18907 0.0
O92 O 0.98468 0.09431 0.12313 0.0
O93 O 0.96022 0.07904 0.10007 0.0
C94 C 0.98006 0.09454 0.28399 0.0
C95 C 0.93561 0.10972 0.17749 0.0
C96 C 0.96368 0.04798 0.20683 0.0
O97 O 0.98919 0.09413 0.24015 0.0
O98 O 0.96276 0.09117 0.27916 0.0
O99 O 0.94887 0.0577 0.20971 0.0
O100 O 0.97822 0.057 0.19377 0.0
C101 C 0.975 0.0873 0.08515 0.0
O102 O 0.93276 0.0924 0.18544 0.0
O103 O 0.95265 0.11465 0.1775 0.0
In104 In 0.82765 0.7061 0.94961 0.0
O105 O 0.83563 0.67528 0.94416 0.0
O106 O 0.85702 0.69584 0.93246 0.0
C107 C 0.79084 0.70272 0.9701 0.0
C108 C 0.82834 0.71846 0.84648 0.0
C109 C 0.83744 0.72258 0.04382 0.0
O110 O 0.80166 0.68867 0.96941 0.0
O111 O 0.79858 0.71823 0.95961 0.0
O112 O 0.83526 0.7318 1.00053 0.0
O113 O 0.83551 0.70506 0.03883 0.0
C114 C 0.85256 0.67867 0.93254 0.0
O115 O 0.83636 0.72737 0.8843 0.0
O116 O 0.81958 0.70397 0.86133 0.0
In117 In 0.0296 0.08348 0.68791 0.0
O118 O 0.00468 0.09344 0.63615 0.0
O119 O 0.02757 0.08005 0.59682 0.0
C120 C 0.0185 0.09291 0.78881 0.0
C121 C 0.05761 0.10726 0.66601 0.0
C122 C 0.03267 0.04612 0.70205 0.0
O123 O 0.00699 0.09014 0.7507 0.0
O124 O 0.03551 0.09162 0.77548 0.0
O125 O 0.04685 0.05658 0.69694 0.0
O126 O 0.01711 0.05446 0.6986 0.0
C127 C 0.0119 0.0881 0.5921 0.0
O128 O 0.06033 0.08986 0.67254 0.0
O129 O 0.04085 0.11265 0.67241 0.0
In130 In 0.65378 0.27227 0.45986 0.0
O131 O 0.64348 0.24913 0.40295 0.0
O132 O 0.65768 0.27269 0.3691 0.0
C133 C 0.64738 0.25749 0.55826 0.0
C134 C 0.62817 0.29951 0.4474 0.0
C135 C 0.69124 0.27367 0.47082 0.0
O136 O 0.64573 0.24799 0.51533 0.0
O137 O 0.65147 0.27456 0.55117 0.0
O138 O 0.68118 0.28823 0.47501 0.0
O139 O 0.6824 0.25882 0.4598 0.0
C140 C 0.64943 0.25729 0.36083 0.0
O141 O 0.64559 0.30276 0.44427 0.0
O142 O 0.62389 0.28278 0.45887 0.0
In143 In 0.45517 0.9055 0.19709 0.0
O144 O 0.48079 0.89712 0.14638 0.0
O145 O 0.45636 0.90717 0.10576 0.0
C146 C 0.46599 0.89939 0.30027 0.0
C147 C 0.43046 0.87795 0.17845 0.0
C148 C 0.45144 0.94304 0.20315 0.0
O149 O 0.4776 0.90008 0.26168 0.0
O150 O 0.44903 0.90128 0.28649 0.0
O151 O 0.43735 0.93226 0.20582 0.0
O152 O 0.46693 0.93482 0.19651 0.0
C153 C 0.47284 0.90084 0.10176 0.0
O154 O 0.42579 0.89509 0.17628 0.0
O155 O 0.44731 0.87491 0.19192 0.0
In156 In 0.83617 0.28309 0.56486 0.0
O157 O 0.84715 0.26026 0.62187 0.0
O158 O 0.82971 0.28154 0.65493 0.0
C159 C 0.84442 0.26774 0.46778 0.0
C160 C 0.86062 0.31105 0.58346 0.0
C161 C 0.79898 0.28632 0.54883 0.0
O162 O 0.84352 0.25824 0.51084 0.0
O163 O 0.842 0.28516 0.47404 0.0
O164 O 0.80959 0.30051 0.55137 0.0
O165 O 0.8071 0.27077 0.55582 0.0
C166 C 0.83947 0.26706 0.66348 0.0
O167 O 0.84333 0.31404 0.57613 0.0
O168 O 0.86561 0.29414 0.57865 0.0
In169 In 0.47183 0.08782 0.28937 0.0
O170 O 0.44162 0.0941 0.31588 0.0
O171 O 0.46017 0.11689 0.30022 0.0
C172 C 0.46836 0.05169 0.26065 0.0
C173 C 0.49058 0.08722 0.38412 0.0
C174 C 0.48595 0.09884 0.19382 0.0
O175 O 0.45412 0.06155 0.2723 0.0
O176 O 0.48392 0.06009 0.26423 0.0
O177 O 0.49598 0.0972 0.23579 0.0
O178 O 0.46871 0.0955 0.20064 0.0
C179 C 0.4441 0.11168 0.31511 0.0
O180 O 0.49175 0.10086 0.35181 0.0
O181 O 0.48025 0.07394 0.36858 0.0
In182 In 0.64574 0.71391 0.06254 0.0
O183 O 0.63585 0.73495 0.12773 0.0
O184 O 0.65233 0.71136 0.15138 0.0
C185 C 0.63567 0.72651 0.96349 0.0
C186 C 0.62243 0.68509 0.07782 0.0
C187 C 0.68287 0.71424 0.04508 0.0
O188 O 0.63793 0.73758 0.00306 0.0
O189 O 0.63754 0.70936 0.97486 0.0
O190 O 0.67361 0.69911 0.04711 0.0
O191 O 0.67341 0.72896 0.05281 0.0
C192 C 0.64342 0.72576 0.16601 0.0
O193 O 0.63974 0.68274 0.06836 0.0
O194 O 0.61689 0.70197 0.07773 0.0
In195 In 0.02194 0.90166 0.80588 0.0
O196 O 0.05317 0.89515 0.80962 0.0
O197 O 0.03374 0.8727 0.82132 0.0
C198 C 0.02187 0.93877 0.7868 0.0
C199 C 0.01062 0.90007 0.90966 0.0
C200 C 0.00594 0.89162 0.71125 0.0
O201 O 0.03676 0.92915 0.78468 0.0
O202 O 0.00733 0.92971 0.79966 0.0
O203 O -0.00326 0.89232 0.75493 0.0
O204 O 0.02324 0.89497 0.71618 0.0
C205 C 0.05068 0.87797 0.82046 0.0
O206 O 0.00127 0.89242 0.87202 0.0
O207 O 0.02512 0.90875 0.8944 0.0
In208 In 0.6516 0.77974 0.5626 0.0
O209 O 0.64113 0.75885 0.62732 0.0
O210 O 0.65876 0.78157 0.6513 0.0
C211 C 0.64014 0.76865 0.46356 0.0
C212 C 0.62854 0.80843 0.58194 0.0
C213 C 0.68851 0.777 0.54284 0.0
O214 O 0.64128 0.75726 0.50289 0.0
O215 O 0.64407 0.78545 0.47503 0.0
O216 O 0.68031 0.79276 0.54484 0.0
O217 O 0.67814 0.76299 0.55196 0.0
C218 C 0.64914 0.76756 0.66573 0.0
O219 O 0.6459 0.81095 0.57337 0.0
O220 O 0.62296 0.79162 0.57847 0.0
In221 In 0.46641 0.39558 0.81387 0.0
O222 O 0.48862 0.38785 0.87839 0.0
O223 O 0.46304 0.40074 0.90316 0.0
C224 C 0.47883 0.38786 0.71335 0.0
C225 C 0.4411 0.36837 0.82776 0.0
C226 C 0.46454 0.43282 0.7984 0.0
O227 O 0.48999 0.38921 0.7532 0.0
O228 O 0.46168 0.38965 0.72496 0.0
O229 O 0.4499 0.42271 0.7989 0.0
O230 O 0.47969 0.42412 0.80693 0.0
C231 C 0.47855 0.3937 0.91719 0.0
O232 O 0.43638 0.38549 0.82431 0.0
O233 O 0.45846 0.36511 0.82248 0.0
In234 In 0.83868 0.21609 0.06469 0.0
O235 O 0.84364 0.24261 0.11562 0.0
O236 O 0.83601 0.21739 0.15605 0.0
C237 C 0.84294 0.2366 0.97381 0.0
C238 C 0.86646 0.19127 0.0827 0.0
C239 C 0.80461 0.20174 0.04001 0.0
O240 O 0.83307 0.24214 0.01312 0.0
O241 O 0.85145 0.2213 0.98176 0.0
O242 O 0.81902 0.19866 0.01203 0.0
O243 O 0.80742 0.21155 0.08166 0.0
C244 C 0.84048 0.23446 0.16012 0.0
O245 O 0.84936 0.18667 0.083 0.0
O246 O 0.86958 0.2083 0.07165 0.0
In247 In 0.02339 0.59365 0.2982 0.0
O248 O -0.00165 0.60267 0.35027 0.0
O249 O 0.02235 0.59077 0.389 0.0
C250 C 0.01335 0.60098 0.1954 0.0
C251 C 0.04982 0.61935 0.31837 0.0
C252 C 0.02432 0.55612 0.28869 0.0
O253 O 0.00164 0.60126 0.23382 0.0
O254 O 0.03009 0.59774 0.20931 0.0
O255 O 0.0392 0.56583 0.28884 0.0
O256 O 0.00937 0.56536 0.29439 0.0
C257 C 0.0062 0.5978 0.39413 0.0
O258 O 0.05343 0.60194 0.31854 0.0
O259 O 0.03311 0.62361 0.30625 0.0
In260 In 0.66055 0.20749 0.96087 0.0
O261 O 0.65005 0.17809 0.9403 0.0
O262 O 0.62995 0.19984 0.95178 0.0
C263 C 0.69569 0.19571 0.9846 0.0
C264 C 0.65819 0.22554 0.8654 0.0
C265 C 0.65304 0.22676 0.0518 0.0
O266 O 0.68158 0.19083 0.01175 0.0
O267 O 0.69204 0.20592 0.94428 0.0
O268 O 0.66153 0.2341 0.01221 0.0
O269 O 0.64779 0.21004 0.04446 0.0
C270 C 0.63299 0.18293 0.93952 0.0
O271 O 0.65658 0.23411 0.90993 0.0
O272 O 0.66161 0.20822 0.86945 0.0
In273 In 0.0337 0.41006 0.20868 0.0
O274 O 0.00821 0.40086 0.15807 0.0
O275 O 0.03151 0.41314 0.11758 0.0
C276 C 0.02358 0.39984 0.30977 0.0
C277 C 0.06139 0.38633 0.18428 0.0
C278 C 0.03652 0.44744 0.22252 0.0
O279 O 0.0118 0.40181 0.27192 0.0
O280 O 0.04042 0.40247 0.29615 0.0
O281 O 0.05076 0.4371 0.21721 0.0
O282 O 0.02101 0.43897 0.21971 0.0
C283 C 0.01553 0.40566 0.11359 0.0
O284 O 0.06425 0.40369 0.19095 0.0
O285 O 0.04471 0.38094 0.19204 0.0
In286 In 0.8336 0.7726 0.44811 0.0
O287 O 0.84128 0.74703 0.39605 0.0
O288 O 0.82985 0.77112 0.35718 0.0
C289 C 0.84066 0.76068 0.54977 0.0
C290 C 0.8609 0.79743 0.42825 0.0
C291 C 0.7967 0.77937 0.46154 0.0
O292 O 0.83728 0.74944 0.51144 0.0
O293 O 0.84119 0.77775 0.53628 0.0
O294 O 0.80857 0.7925 0.45843 0.0
O295 O 0.80344 0.76311 0.45633 0.0
C296 C 0.83646 0.75481 0.35214 0.0
O297 O 0.84376 0.80204 0.42939 0.0
O298 O 0.86424 0.78038 0.43866 0.0
In299 In 0.45326 0.57701 0.69571 0.0
O300 O 0.47482 0.58504 0.63069 0.0
O301 O 0.45067 0.56944 0.60709 0.0
C302 C 0.46965 0.5865 0.79032 0.0
C303 C 0.42678 0.60314 0.67979 0.0
C304 C 0.45012 0.54011 0.71644 0.0
O305 O 0.47887 0.58482 0.74691 0.0
O306 O 0.45218 0.58416 0.78531 0.0
O307 O 0.43589 0.5507 0.71414 0.0
O308 O 0.46558 0.54811 0.70711 0.0
C309 C 0.46556 0.5776 0.59258 0.0
O310 O 0.4227 0.58628 0.69077 0.0
O311 O 0.44411 0.60684 0.6794 0.0
In312 In 0.33364 0.20131 0.43502 0.0
O313 O 0.34253 0.22328 0.37065 0.0
O314 O 0.3268 0.19943 0.34578 0.0
C315 C 0.34321 0.2143 0.5344 0.0
C316 C 0.35902 0.17431 0.41891 0.0
C317 C 0.29663 0.19852 0.45334 0.0
O318 O 0.34027 0.22527 0.49489 0.0
O319 O 0.34204 0.19709 0.52294 0.0
O320 O 0.30695 0.18416 0.44907 0.0
O321 O 0.30498 0.21401 0.44734 0.0
C322 C 0.33522 0.21423 0.33181 0.0
O323 O 0.34193 0.17056 0.42783 0.0
O324 O 0.36321 0.19157 0.41992 0.0
In325 In 0.52026 0.58487 0.19498 0.0
O326 O 0.4944 0.59154 0.14261 0.0
O327 O 0.51888 0.58096 0.10409 0.0
C328 C 0.5081 0.5911 0.29671 0.0
C329 C 0.5439 0.61324 0.17531 0.0
C330 C 0.52847 0.54828 0.20886 0.0
O331 O 0.49695 0.58765 0.25809 0.0
O332 O 0.52515 0.59215 0.28345 0.0
O333 O 0.54113 0.56065 0.20601 0.0
O334 O 0.51197 0.55437 0.20305 0.0
C335 C 0.50232 0.58694 0.09883 0.0
O336 O 0.54916 0.59628 0.17538 0.0
O337 O 0.5268 0.61585 0.18669 0.0
In338 In 0.14865 0.77596 0.95278 0.0
O339 O 0.14277 0.74967 0.90273 0.0
O340 O 0.14901 0.77516 0.86137 0.0
C341 C 0.14237 0.7611 0.0509 0.0
C342 C 0.12111 0.801 0.93613 0.0
C343 C 0.18586 0.78202 0.9628 0.0
O344 O 0.14181 0.75147 0.00811 0.0
O345 O 0.14542 0.7784 0.04394 0.0
O346 O 0.17407 0.79514 0.96769 0.0
O347 O 0.17887 0.76626 0.95153 0.0
C348 C 0.14476 0.75801 0.85803 0.0
O349 O 0.13825 0.80519 0.93105 0.0
O350 O 0.11797 0.78442 0.9518 0.0
In351 In 0.96823 0.403 0.70894 0.0
O352 O 0.98991 0.39499 0.64412 0.0
O353 O 0.96407 0.40748 0.61955 0.0
C354 C 0.98389 0.39582 0.8059 0.0
C355 C 0.94188 0.37649 0.6985 0.0
C356 C 0.96704 0.4404 0.72126 0.0
O357 O 0.99317 0.39494 0.76234 0.0
O358 O 0.96666 0.39949 0.79998 0.0
O359 O 0.95237 0.43044 0.72458 0.0
O360 O 0.98189 0.43147 0.71093 0.0
C361 C 0.97958 0.40053 0.60547 0.0
O362 O 0.93779 0.39377 0.70115 0.0
O363 O 0.95911 0.3727 0.70387 0.0
In364 In 0.33268 0.7764 0.04339 0.0
O365 O 0.33702 0.80784 0.05621 0.0
O366 O 0.36093 0.78989 0.05848 0.0
C367 C 0.29524 0.77498 0.02763 0.0
C368 C 0.33725 0.75963 0.14001 0.0
C369 C 0.34435 0.76339 0.94697 0.0
O370 O 0.30407 0.79034 0.02882 0.0
O371 O 0.30521 0.76065 0.03555 0.0
O372 O 0.34555 0.75391 0.98996 0.0
O373 O 0.33788 0.77974 0.95292 0.0
C374 C 0.35451 0.80631 0.06348 0.0
O375 O 0.34215 0.75191 0.09634 0.0
O376 O 0.32973 0.77556 0.13476 0.0
In377 In 0.95803 0.58666 0.79714 0.0
O378 O 0.92781 0.59608 0.80716 0.0
O379 O 0.9492 0.61703 0.80312 0.0
C380 C 0.95439 0.54956 0.78065 0.0
C381 C 0.97011 0.58902 0.90023 0.0
C382 C 0.97428 0.5953 0.70217 0.0
O383 O 0.94044 0.5605 0.77885 0.0
O384 O 0.96986 0.55735 0.79138 0.0
O385 O 0.98356 0.59406 0.74574 0.0
O386 O 0.95684 0.59266 0.70701 0.0
C387 C 0.93202 0.61331 0.80967 0.0
O388 O 0.9801 0.59462 0.86112 0.0
O389 O 0.95466 0.58175 0.88681 0.0
In390 In 0.15173 0.2138 0.54429 0.0
O391 O 0.14379 0.23571 0.60884 0.0
O392 O 0.15784 0.2106 0.63307 0.0
C393 C 0.14325 0.22568 0.44384 0.0
C394 C 0.12485 0.18842 0.56024 0.0
C395 C 0.18886 0.2125 0.5283 0.0
O396 O 0.14452 0.23702 0.48325 0.0
O397 O 0.14559 0.20862 0.45588 0.0
O398 O 0.17898 0.19771 0.52944 0.0
O399 O 0.17997 0.22758 0.53613 0.0
C400 C 0.15032 0.22584 0.64734 0.0
O401 O 0.14195 0.18376 0.5556 0.0
O402 O 0.12144 0.20575 0.5549 0.0
In403 In 0.53325 0.40351 0.3137 0.0
O404 O 0.51216 0.39325 0.37794 0.0
O405 O 0.53498 0.41071 0.40238 0.0
C406 C 0.52264 0.39206 0.21418 0.0
C407 C 0.56186 0.38048 0.33477 0.0
C408 C 0.52962 0.44032 0.29379 0.0
O409 O 0.51124 0.39248 0.2535 0.0
O410 O 0.53926 0.39665 0.22594 0.0
O411 O 0.54561 0.43258 0.29639 0.0
O412 O 0.51588 0.42956 0.3025 0.0
C413 C 0.52084 0.40123 0.4165 0.0
O414 O 0.56452 0.39775 0.32485 0.0
O415 O 0.54501 0.37499 0.33152 0.0
H416 H 0.27512 0.3011 0.97059 0.0
H417 H 0.27568 0.24059 0.95924 0.0
H418 H 0.24242 0.23948 0.98144 0.0
H419 H 0.21334 0.25546 0.00474 0.0
H420 H 0.21198 0.3159 0.01542 0.0
H421 H 0.24546 0.3173 0.99292 0.0
C422 C 0.26791 0.28771 0.97284 0.0
C423 C 0.27783 0.27096 0.96333 0.0
C424 C 0.24871 0.28714 0.98567 0.0
C425 C 0.26836 0.25369 0.96635 0.0
C426 C 0.24934 0.25302 0.97913 0.0
C427 C 0.22036 0.26896 0.0023 0.0
C428 C 0.21027 0.28554 0.01193 0.0
C429 C 0.23943 0.26963 0.98905 0.0
C430 C 0.21951 0.30293 0.00825 0.0
C431 C 0.23861 0.30373 0.99536 0.0
H432 H 0.98142 0.96365 0.26279 0.0
H433 H 0.92191 0.96282 0.29463 0.0
H434 H 0.91969 -0.00392 0.26995 0.0
H435 H 0.93483 0.02535 0.23869 0.0
H436 H -0.00568 0.0254 0.20545 0.0
H437 H -0.00366 0.99243 0.23096 0.0
C438 C 0.96797 0.97076 0.26464 0.0
C439 C 0.95188 0.96086 0.28074 0.0
C440 C 0.96678 0.9897 0.24978 0.0
C441 C 0.93451 0.9702 0.28247 0.0
C442 C 0.93324 0.98918 0.26827 0.0
C443 C 0.9482 0.0181 0.23686 0.0
C444 C 0.96439 0.02779 0.22017 0.0
C445 C 0.94929 -0.00094 0.25164 0.0
C446 C 0.98163 0.01825 0.21806 0.0
C447 C 0.98283 -0.0006 0.23277 0.0
H448 H 0.21717 0.68603 0.47992 0.0
H449 H 0.21145 0.74626 0.49162 0.0
H450 H 0.2446 0.74919 0.51399 0.0
H451 H 0.2752 0.73492 0.52945 0.0
H452 H 0.28189 0.67494 0.51515 0.0
H453 H 0.24835 0.67161 0.49486 0.0
C454 C 0.22323 0.69977 0.48733 0.0
C455 C 0.21189 0.71589 0.48406 0.0
C456 C 0.24242 0.7014 0.49987 0.0
C457 C 0.21989 0.73362 0.49367 0.0
C458 C 0.23884 0.73533 0.50661 0.0
C459 C 0.26931 0.72109 0.52221 0.0
C460 C 0.28093 0.70519 0.52401 0.0
C461 C 0.25022 0.71935 0.50979 0.0
C462 C 0.27316 0.68739 0.51407 0.0
C463 C 0.25402 0.68549 0.50239 0.0
H464 H 0.55559 0.02323 0.77544 0.0
H465 H 0.49554 0.03083 0.78424 0.0
H466 H 0.49071 -0.00236 0.76468 0.0
H467 H 0.50339 0.96682 0.7418 0.0
H468 H 0.56334 0.95872 0.73343 0.0
H469 H 0.56839 0.99181 0.75601 0.0
C470 C 0.54147 0.01756 0.77351 0.0
C471 C 0.52595 0.02945 0.78107 0.0
C472 C 0.53877 -0.00154 0.76191 0.0
C473 C 0.50772 0.02196 0.77848 0.0
C474 C 0.50493 0.003 0.76715 0.0
C475 C 0.51757 0.97229 0.74486 0.0
C476 C 0.53297 0.96044 0.73554 0.0
C477 C 0.52033 0.9912 0.75814 0.0
C478 C 0.55126 0.96764 0.74024 0.0
C479 C 0.55415 0.98653 0.75317 0.0
H480 H 0.70658 0.6848 0.02934 0.0
H481 H 0.70437 0.74538 0.03254 0.0
H482 H 0.73751 0.74704 0.00886 0.0
H483 H 0.76696 0.73145 0.98663 0.0
H484 H 0.76985 0.67094 0.98461 0.0
H485 H 0.73653 0.66906 0.00833 0.0
C486 C 0.7134 0.69834 0.02499 0.0
C487 C 0.70307 0.71493 0.03264 0.0
C488 C 0.73251 0.69921 0.01141 0.0
C489 C 0.71204 0.7324 0.02694 0.0
C490 C 0.73097 0.73337 0.01329 0.0
C491 C 0.76029 0.71784 0.99122 0.0
C492 C 0.77076 0.70137 0.98368 0.0
C493 C 0.7413 0.71689 0.00526 0.0
C494 C 0.76202 0.68383 0.99015 0.0
C495 C 0.743 0.68275 0.00374 0.0
H496 H 0.05086 0.96148 0.75711 0.0
H497 H 0.99106 0.96114 0.78536 0.0
H498 H 0.98915 -0.00587 0.75985 0.0
H499 H 0.00429 0.02301 0.72972 0.0
H500 H 0.06411 0.02408 0.70298 0.0
H501 H 0.06619 0.9908 0.72733 0.0
C502 C 0.03745 0.96867 0.75781 0.0
C503 C 0.02114 0.95891 0.77313 0.0
C504 C 0.03643 0.9877 0.74309 0.0
C505 C 0.00383 0.96836 0.77382 0.0
C506 C 0.0027 0.98721 0.75912 0.0
C507 C 0.01778 0.01594 0.72892 0.0
C508 C 0.03401 0.02591 0.71438 0.0
C509 C 0.01888 -0.00301 0.74359 0.0
C510 C 0.05141 0.01664 0.71394 0.0
C511 C 0.05261 -0.00235 0.72796 0.0
H512 H 0.71383 0.30332 0.49652 0.0
H513 H 0.71429 0.24344 0.46922 0.0
H514 H 0.74752 0.24217 0.49197 0.0
H515 H 0.77624 0.25774 0.52103 0.0
H516 H 0.77671 0.31765 0.54653 0.0
H517 H 0.74327 0.31924 0.52328 0.0
C518 C 0.72126 0.29004 0.49527 0.0
C519 C 0.71162 0.27351 0.48132 0.0
C520 C 0.74046 0.28938 0.50842 0.0
C521 C 0.72139 0.25638 0.47981 0.0
C522 C 0.74039 0.25561 0.49296 0.0
C523 C 0.76902 0.27115 0.52174 0.0
C524 C 0.77882 0.28752 0.53587 0.0
C525 C 0.75 0.27197 0.5077 0.0
C526 C 0.76937 0.30483 0.53595 0.0
C527 C 0.75029 0.30575 0.5226 0.0
H528 H 0.48003 0.96745 0.19468 0.0
H529 H 0.42072 0.96467 0.2285 0.0
H530 H 0.42037 -0.00151 0.24751 0.0
H531 H 0.43757 0.02859 0.25872 0.0
H532 H 0.49711 0.03011 0.22604 0.0
H533 H 0.49669 -0.00298 0.20244 0.0
C534 C 0.46696 0.97422 0.20588 0.0
C535 C 0.45045 0.96359 0.21041 0.0
C536 C 0.46695 0.99344 0.21727 0.0
C537 C 0.43363 0.97259 0.22474 0.0
C538 C 0.43345 0.9919 0.23578 0.0
C539 C 0.45039 0.02165 0.24616 0.0
C540 C 0.46736 0.03177 0.24448 0.0
C541 C 0.45011 0.00243 0.23286 0.0
C542 C 0.48388 0.02264 0.22805 0.0
C543 C 0.48367 0.0037 0.21444 0.0
H544 H 0.71405 0.80447 0.5195 0.0
H545 H 0.7078 0.74436 0.53443 0.0
H546 H 0.74046 0.73992 0.50883 0.0
H547 H 0.77074 0.75288 0.48257 0.0
H548 H 0.7779 0.81284 0.46888 0.0
H549 H 0.74489 0.81758 0.49326 0.0
C550 C 0.71989 0.79043 0.51727 0.0
C551 C 0.70853 0.77478 0.52891 0.0
C552 C 0.73878 0.78794 0.50248 0.0
C553 C 0.71625 0.75666 0.52579 0.0
C554 C 0.73492 0.75408 0.51103 0.0
C555 C 0.76507 0.767 0.4846 0.0
C556 C 0.77668 0.78248 0.47374 0.0
C557 C 0.74628 0.76959 0.49922 0.0
C558 C 0.76918 0.80069 0.47694 0.0
C559 C 0.75035 0.8034 0.49099 0.0
H560 H 0.43426 0.45529 0.77728 0.0
H561 H 0.49471 0.45579 0.79133 0.0
H562 H 0.49542 0.48883 0.76653 0.0
H563 H 0.4792 0.5174 0.73967 0.0
H564 H 0.41881 0.51795 0.72684 0.0
H565 H 0.41773 0.48466 0.7522 0.0
C566 C 0.44754 0.46269 0.77514 0.0
C567 C 0.46439 0.4531 0.78606 0.0
C568 C 0.44789 0.48182 0.76081 0.0
C569 C 0.48153 0.46284 0.78316 0.0
C570 C 0.48198 0.48174 0.76885 0.0
C571 C 0.46578 0.51025 0.74223 0.0
C572 C 0.44912 0.52004 0.73107 0.0
C573 C 0.46529 0.49131 0.7573 0.0
C574 C 0.43184 0.51065 0.73512 0.0
C575 C 0.43122 0.49164 0.74965 0.0
H576 H 0.72693 0.19362 0.92278 0.0
H577 H 0.70767 0.19052 0.08779 0.0
H578 H 0.74011 0.19079 0.12029 0.0
H579 H 0.77379 0.19552 0.10173 0.0
H580 H 0.7931 0.19668 0.93653 0.0
H581 H 0.76085 0.19334 0.904 0.0
C582 C 0.72991 0.19265 0.96576 0.0
C583 C 0.71505 0.19226 0.00292 0.0
C584 C 0.74856 0.19261 0.98407 0.0
C585 C 0.71895 0.1908 0.05848 0.0
C586 C 0.73748 0.19109 0.07709 0.0
C587 C 0.7709 0.19472 0.05868 0.0
C588 C 0.78566 0.19657 0.02152 0.0
C589 C 0.75237 0.19254 0.0403 0.0
C590 C 0.78189 0.19528 0.96584 0.0
C591 C 0.76347 0.19348 0.94721 0.0
H592 H 0.00792 0.4707 0.24651 0.0
H593 H 0.06793 0.46958 0.22364 0.0
H594 H 0.06967 0.50322 0.24358 0.0
H595 H 0.0539 0.53303 0.26692 0.0
H596 H 0.99383 0.5334 0.2902 0.0
H597 H 0.99239 0.49992 0.27108 0.0
C598 C 0.02138 0.47781 0.24572 0.0
C599 C 0.03775 0.46775 0.23338 0.0
C600 C 0.02228 0.497 0.25758 0.0
C601 C 0.05512 0.4771 0.2329 0.0
C602 C 0.05612 0.4963 0.24437 0.0
C603 C 0.04054 0.52572 0.26808 0.0
C604 C 0.02401 0.53566 0.27991 0.0
C605 C 0.03977 0.5064 0.25679 0.0
C606 C 0.00677 0.52606 0.28118 0.0
C607 C 0.00591 0.50692 0.27015 0.0
H608 H 0.27377 0.22759 0.47544 0.0
H609 H 0.27437 0.16724 0.4608 0.0
H610 H 0.24092 0.16606 0.48365 0.0
H611 H 0.21146 0.18243 0.50742 0.0
H612 H 0.21172 0.24284 0.52274 0.0
H613 H 0.24494 0.24371 0.50024 0.0
C614 C 0.26659 0.21416 0.47708 0.0
C615 C 0.27646 0.19754 0.46623 0.0
C616 C 0.24754 0.2136 0.49058 0.0
C617 C 0.26701 0.18024 0.46889 0.0
C618 C 0.24792 0.17956 0.482 0.0
C619 C 0.21884 0.19575 0.506 0.0
C620 C 0.20915 0.21253 0.51669 0.0
C621 C 0.23803 0.19618 0.49294 0.0
C622 C 0.21885 0.22971 0.51471 0.0
C623 C 0.23785 0.23024 0.50175 0.0
H624 H 0.55631 0.46668 0.27011 0.0
H625 H 0.49643 0.45857 0.28462 0.0
H626 H 0.49096 0.49096 0.25775 0.0
H627 H 0.5029 0.52151 0.2304 0.0
H628 H 0.56258 0.53065 0.21721 0.0
H629 H 0.56842 0.49789 0.2429 0.0
C630 C 0.5421 0.47206 0.26754 0.0
C631 C 0.52682 0.46024 0.2794 0.0
C632 C 0.539 0.49082 0.25201 0.0
C633 C 0.50846 0.46737 0.27581 0.0
C634 C 0.50528 0.48589 0.26032 0.0
C635 C 0.5172 0.51633 0.23281 0.0
C636 C 0.53228 0.52841 0.22171 0.0
C637 C 0.52041 0.4977 0.24823 0.0
C638 C 0.55073 0.52155 0.22543 0.0
C639 C 0.55407 0.50286 0.24024 0.0
H640 H 0.27003 0.80354 0.01538 0.0
H641 H 0.27511 0.74313 0.01255 0.0
H642 H 0.24194 0.74018 0.99018 0.0
H643 H 0.21157 0.75453 0.972 0.0
H644 H 0.2055 0.81476 0.9774 0.0
H645 H 0.23904 0.81805 0.99788 0.0
C646 C 0.26383 0.78976 0.00994 0.0
C647 C 0.27499 0.77359 0.01565 0.0
C648 C 0.24464 0.78814 0.99734 0.0
C649 C 0.26681 0.7558 0.00856 0.0
C650 C 0.24785 0.75409 0.99562 0.0
C651 C 0.21758 0.7684 0.97732 0.0
C652 C 0.20614 0.78438 0.97294 0.0
C653 C 0.23667 0.77013 0.98989 0.0
C654 C 0.21408 0.80225 0.98046 0.0
C655 C 0.23322 0.80412 0.99226 0.0
H656 H 0.93715 0.46388 0.73596 0.0
H657 H -0.0023 0.46272 0.72799 0.0
H658 H -0.00103 0.49624 0.74625 0.0
H659 H 0.98316 0.52576 0.76515 0.0
H660 H 0.92269 0.52795 0.77103 0.0
H661 H 0.92108 0.49414 0.75292 0.0
C662 C 0.95058 0.47101 0.73813 0.0
C663 C 0.96729 0.46084 0.73072 0.0
C664 C 0.95124 0.49042 0.74837 0.0
C665 C 0.98462 0.47023 0.73344 0.0
C666 C 0.98539 0.4894 0.74399 0.0
C667 C 0.96961 0.51885 0.76262 0.0
C668 C 0.95308 0.52926 0.76971 0.0
C669 C 0.96882 0.4996 0.75169 0.0
C670 C 0.93562 0.52017 0.76577 0.0
C671 C 0.9347 0.50087 0.75544 0.0
H672 H 0.1519 0.2349 0.90136 0.0
H673 H 0.13086 0.28983 0.85987 0.0
H674 H 0.13027 0.28129 0.76412 0.0
H675 H 0.13751 0.25871 0.69132 0.0
H676 H 0.15999 0.20435 0.73361 0.0
H677 H 0.15832 0.21217 0.82929 0.0
C678 C 0.14691 0.24488 0.87141 0.0
C679 C 0.14138 0.26292 0.88764 0.0
C680 C 0.1471 0.24006 0.81628 0.0
C681 C 0.13518 0.27582 0.84833 0.0
C682 C 0.13491 0.27098 0.79353 0.0
C683 C 0.14199 0.24859 0.72154 0.0
C684 C 0.14897 0.23103 0.70522 0.0
C685 C 0.14117 0.25324 0.77687 0.0
C686 C 0.15469 0.21804 0.74492 0.0
C687 C 0.15369 0.22246 0.79979 0.0
H688 H 0.97786 0.88727 0.95361 0.0
H689 H 0.03221 0.90983 0.99558 0.0
H690 H 0.02433 0.90831 0.09134 0.0
H691 H 0.00158 0.90197 0.1632 0.0
H692 H 0.94652 0.88115 0.12208 0.0
H693 H 0.95513 0.88036 0.0263 0.0
C694 C 0.98797 0.89178 0.9838 0.0
C695 C 0.00554 0.89873 0.96749 0.0
C696 C 0.98324 0.89112 0.03903 0.0
C697 C 0.01852 0.90455 0.00702 0.0
C698 C 0.01406 0.90364 0.06187 0.0
C699 C 0.99156 0.89701 0.13334 0.0
C700 C 0.97349 0.89156 0.14961 0.0
C701 C -0.00358 0.89711 0.07833 0.0
C702 C 0.96055 0.8854 0.11045 0.0
C703 C 0.96544 0.88501 0.05569 0.0
H704 H 0.34826 0.71099 0.35081 0.0
H705 H 0.34423 0.76581 0.42412 0.0
H706 H 0.34153 0.78028 0.33491 0.0
H707 H 0.33844 0.77719 0.23657 0.0
H708 H 0.34342 0.72264 0.16243 0.0
H709 H 0.34759 0.70817 0.25157 0.0
C710 C 0.347 0.72612 0.34716 0.0
C711 C 0.34632 0.73731 0.39391 0.0
C712 C 0.34543 0.73435 0.29573 0.0
C713 C 0.3448 0.7569 0.38869 0.0
C714 C 0.34315 0.76518 0.33773 0.0
C715 C 0.34044 0.76213 0.24001 0.0
C716 C 0.34038 0.75093 0.19333 0.0
C717 C 0.34309 0.754 0.2911 0.0
C718 C 0.34333 0.7315 0.19802 0.0
C719 C 0.34571 0.72324 0.24888 0.0
H720 H 0.52783 0.07047 0.60902 0.0
H721 H 0.50716 0.12613 0.64244 0.0
H722 H 0.49662 0.12926 0.54821 0.0
H723 H 0.4919 0.11527 0.45756 0.0
H724 H 0.50923 0.05816 0.42915 0.0
H725 H 0.5227 0.05642 0.52016 0.0
C726 C 0.52119 0.08336 0.59547 0.0
C727 C 0.51837 0.09812 0.63212 0.0
C728 C 0.5146 0.08472 0.54225 0.0
C729 C 0.50945 0.11462 0.61463 0.0
C730 C 0.50346 0.11639 0.5609 0.0
C731 C 0.49888 0.10259 0.47134 0.0
C732 C 0.49987 0.08692 0.43707 0.0
C733 C 0.50579 0.10144 0.52451 0.0
C734 C 0.50847 0.07037 0.45518 0.0
C735 C 0.51611 0.06937 0.50706 0.0
H736 H 0.13722 0.77448 0.76243 0.0
H737 H 0.14686 0.72049 0.83667 0.0
H738 H 0.14543 0.70535 0.7478 0.0
H739 H 0.14392 0.70802 0.64856 0.0
H740 H 0.13368 0.76215 0.57536 0.0
H741 H 0.13254 0.77668 0.66457 0.0
C742 C 0.13892 0.75938 0.7591 0.0
C743 C 0.14244 0.7486 0.80557 0.0
C744 C 0.13793 0.75084 0.70824 0.0
C745 C 0.14425 0.72904 0.80116 0.0
C746 C 0.14346 0.72041 0.75046 0.0
C747 C 0.14117 0.72295 0.65225 0.0
C748 C 0.13909 0.73404 0.60556 0.0
C749 C 0.14065 0.73124 0.70365 0.0
C750 C 0.13539 0.75333 0.61077 0.0
C751 C 0.13484 0.76167 0.66171 0.0
H752 H 0.45589 0.90086 0.00376 0.0
H753 H 0.50994 0.89427 0.08052 0.0
H754 H 0.52483 0.89106 0.99177 0.0
H755 H 0.52259 0.8918 0.89232 0.0
H756 H 0.46837 0.8981 0.81614 0.0
H757 H 0.45338 0.8995 0.90487 0.0
C758 C 0.47094 0.89868 0.00109 0.0
C759 C 0.48185 0.89801 0.04856 0.0
C760 C 0.47933 0.89674 0.95009 0.0
C761 C 0.50127 0.89492 0.04453 0.0
C762 C 0.50977 0.89309 0.99382 0.0
C763 C 0.50747 0.89327 0.89514 0.0
C764 C 0.49661 0.89494 0.84769 0.0
C765 C 0.49896 0.8942 0.94632 0.0
C766 C 0.47704 0.89678 0.85201 0.0
C767 C 0.46847 0.89767 0.90274 0.0
H768 H 0.33513 0.22409 0.07732 0.0
H769 H 0.35818 0.27803 0.12024 0.0
H770 H 0.3579 0.26928 0.21597 0.0
H771 H 0.34949 0.24679 0.28845 0.0
H772 H 0.32478 0.19358 0.24466 0.0
H773 H 0.32723 0.20155 0.14912 0.0
C774 C 0.34039 0.23379 0.10758 0.0
C775 C 0.3468 0.25162 0.09162 0.0
C776 C 0.33964 0.22889 0.16277 0.0
C777 C 0.35324 0.26418 0.13145 0.0
C778 C 0.353 0.25922 0.18628 0.0
C779 C 0.34468 0.23696 0.25795 0.0
C780 C 0.33688 0.21966 0.27392 0.0
C781 C 0.34593 0.24172 0.2026 0.0
C782 C 0.33072 0.20707 0.23374 0.0
C783 C 0.33217 0.21157 0.1789 0.0
H784 H 0.02925 0.08896 0.49506 0.0
H785 H 0.97493 0.09487 0.56983 0.0
H786 H 0.96035 0.09881 0.48065 0.0
H787 H 0.96295 0.09871 0.38129 0.0
H788 H 0.0175 0.09372 0.30708 0.0
H789 H 0.03218 0.09162 0.39635 0.0
C790 C 0.01422 0.09114 0.49179 0.0
C791 C 0.00311 0.09135 0.53875 0.0
C792 C 0.00603 0.09366 0.44059 0.0
C793 C 0.98372 0.09455 0.53414 0.0
C794 C 0.97541 0.0968 0.48322 0.0
C795 C 0.97808 0.09742 0.38469 0.0
C796 C 0.98912 0.09625 0.33764 0.0
C797 C 0.9864 0.09615 0.43614 0.0
C798 C 0.0087 0.09469 0.34266 0.0
C799 C 0.01709 0.09335 0.39368 0.0
H800 H 0.84287 0.70546 0.141 0.0
H801 H 0.8368 0.76 0.06664 0.0
H802 H 0.83637 0.77476 0.15577 0.0
H803 H 0.8357 0.77198 0.25464 0.0
H804 H 0.84232 0.71767 0.32968 0.0
H805 H 0.84453 0.70295 0.24036 0.0
C806 C 0.84169 0.7206 0.1443 0.0
C807 C 0.83976 0.73162 0.09726 0.0
C808 C 0.84133 0.72898 0.19573 0.0
C809 C 0.83831 0.75121 0.10218 0.0
C810 C 0.83796 0.75965 0.15315 0.0
C811 C 0.83765 0.75692 0.25145 0.0
C812 C 0.8386 0.74587 0.29858 0.0
C813 C 0.83909 0.74864 0.20015 0.0
C814 C 0.84145 0.72643 0.29391 0.0
C815 C 0.84271 0.71803 0.24289 0.0
H816 H 0.00815 0.0993 0.04173 0.0
H817 H 0.95316 0.07859 0.99876 0.0
H818 H 0.9612 0.08013 0.9031 0.0
H819 H 0.98425 0.08587 0.8316 0.0
H820 H 0.03986 0.10493 0.87372 0.0
H821 H 0.03115 0.10575 0.9694 0.0
C822 C -0.00207 0.09521 0.01135 0.0
C823 C 0.98013 0.08875 0.02735 0.0
C824 C 0.00274 0.09588 0.95617 0.0
C825 C 0.96702 0.08348 0.98756 0.0
C826 C 0.97158 0.0844 0.93277 0.0
C827 C -0.00563 0.09046 0.86166 0.0
C828 C 0.01263 0.09539 0.84566 0.0
C829 C 0.98944 0.0904 0.91661 0.0
C830 C 0.02569 0.10108 0.8851 0.0
C831 C 0.02074 0.10149 0.93981 0.0
H832 H 0.65033 0.27524 0.65509 0.0
H833 H 0.64319 0.22046 0.58333 0.0
H834 H 0.64581 0.20583 0.67243 0.0
H835 H 0.65175 0.20846 0.76977 0.0
H836 H 0.6583 0.26311 0.84246 0.0
H837 H 0.65437 0.27799 0.75372 0.0
C838 C 0.64915 0.26011 0.65905 0.0
C839 C 0.64666 0.24893 0.61267 0.0
C840 C 0.65078 0.25179 0.71037 0.0
C841 C 0.6451 0.22937 0.6184 0.0
C842 C 0.64669 0.22099 0.66929 0.0
C843 C 0.65235 0.22364 0.76617 0.0
C844 C 0.65555 0.23469 0.81235 0.0
C845 C 0.64985 0.23204 0.71535 0.0
C846 C 0.65596 0.25433 0.80734 0.0
C847 C 0.6537 0.26282 0.75669 0.0
H848 H 0.50047 0.90598 0.34276 0.0
H849 H 0.44411 0.88998 0.38647 0.0
H850 H 0.4529 0.88974 0.4822 0.0
H851 H 0.47647 0.89511 0.55393 0.0
H852 H 0.53235 0.91267 0.50942 0.0
H853 H 0.52388 0.91136 0.41395 0.0
C854 C 0.49018 0.90225 0.37323 0.0
C855 C 0.47172 0.89791 0.35762 0.0
C856 C 0.4952 0.9026 0.42821 0.0
C857 C 0.45844 0.89335 0.39755 0.0
C858 C 0.46344 0.89326 0.45229 0.0
C859 C 0.48676 0.89863 0.52327 0.0
C860 C 0.50498 0.90402 0.5388 0.0
C861 C 0.48174 0.89805 0.46819 0.0
C862 C 0.51818 0.90858 0.49862 0.0
C863 C 0.51338 0.90778 0.44393 0.0
H864 H 0.84286 0.21773 0.258 0.0
H865 H 0.84247 0.27213 0.18114 0.0
H866 H 0.84472 0.28737 0.26977 0.0
H867 H 0.84553 0.2851 0.36946 0.0
H868 H 0.84654 0.23044 0.44513 0.0
H869 H 0.84556 0.21543 0.35653 0.0
C870 C 0.84326 0.23293 0.26063 0.0
C871 C 0.84229 0.24382 0.21322 0.0
C872 C 0.84477 0.24153 0.31149 0.0
C873 C 0.84311 0.26347 0.21715 0.0
C874 C 0.84441 0.27217 0.26778 0.0
C875 C 0.84575 0.26991 0.36648 0.0
C876 C 0.84604 0.25891 0.41386 0.0
C877 C 0.8451 0.26133 0.31527 0.0
C878 C 0.84633 0.23924 0.40935 0.0
C879 C 0.84568 0.23063 0.35869 0.0
H880 H 0.46732 0.1015 0.09809 0.0
H881 H 0.52285 0.10292 0.16836 0.0
H882 H 0.53675 0.103 0.07826 0.0
H883 H 0.53321 0.09956 0.98048 0.0
H884 H 0.47795 0.09808 0.90897 0.0
H885 H 0.46377 0.10124 0.99884 0.0
C886 C 0.48245 0.10212 0.09362 0.0
C887 C 0.49406 0.10199 0.13975 0.0
C888 C 0.49036 0.10194 0.04166 0.0
C889 C 0.51363 0.10291 0.13345 0.0
C890 C 0.52159 0.10288 0.08198 0.0
C891 C 0.51805 0.10006 0.98454 0.0
C892 C 0.50659 0.09829 0.93853 0.0
C893 C 0.5101 0.10186 0.03597 0.0
C894 C 0.48701 0.09931 0.94404 0.0
C895 C 0.47893 0.10107 0.99533 0.0
H896 H 0.64742 0.75947 0.92024 0.0
H897 H 0.62046 0.70719 0.87921 0.0
H898 H 0.62156 0.71539 0.78309 0.0
H899 H 0.63208 0.73664 0.70997 0.0
H900 H 0.6609 0.78793 0.752 0.0
H901 H 0.65731 0.78087 0.84781 0.0
C902 C 0.64145 0.75007 0.89029 0.0
C903 C 0.63372 0.73285 0.90676 0.0
C904 C 0.64277 0.75456 0.83499 0.0
C905 C 0.6264 0.7206 0.86745 0.0
C906 C 0.62712 0.72522 0.81247 0.0
C907 C 0.63754 0.74625 0.74016 0.0
C908 C 0.64684 0.76272 0.72371 0.0
C909 C 0.63563 0.74201 0.79561 0.0
C910 C 0.65381 0.77506 0.76339 0.0
C911 C 0.65171 0.77109 0.81835 0.0
H912 H 0.95678 0.89721 0.5002 0.0
H913 H 0.01117 0.89197 0.42545 0.0
H914 H 0.02575 0.88785 0.51457 0.0
H915 H 0.02312 0.88765 0.61393 0.0
H916 H 0.9685 0.89204 0.68807 0.0
H917 H 0.95384 0.89422 0.59882 0.0
C918 C 0.97183 0.89514 0.50346 0.0
C919 C 0.98296 0.89518 0.45653 0.0
C920 C 0.98002 0.89251 0.55461 0.0
C921 C 0.00236 0.89211 0.46112 0.0
C922 C 0.01068 0.88975 0.51201 0.0
C923 C 0.00798 0.88881 0.61052 0.0
C924 C -0.00308 0.8898 0.65756 0.0
C925 C -0.00034 0.89016 0.55906 0.0
C926 C 0.97732 0.89122 0.65251 0.0
C927 C 0.96894 0.8926 0.60149 0.0
H928 H 0.64526 0.73407 0.42016 0.0
H929 H 0.62802 0.79039 0.37982 0.0
H930 H 0.62634 0.78198 0.28399 0.0
H931 H 0.63195 0.75907 0.21061 0.0
H932 H 0.65128 0.70343 0.25179 0.0
H933 H 0.64999 0.71107 0.34767 0.0
C934 C 0.64081 0.74438 0.39046 0.0
C935 C 0.63668 0.76277 0.40702 0.0
C936 C 0.64049 0.73963 0.33526 0.0
C937 C 0.63124 0.7761 0.36801 0.0
C938 C 0.63035 0.77133 0.31317 0.0
C939 C 0.63575 0.74863 0.24066 0.0
C940 C 0.6418 0.73076 0.22399 0.0
C941 C 0.63531 0.75322 0.29612 0.0
C942 C 0.64673 0.71736 0.26343 0.0
C943 C 0.64595 0.72169 0.3184 0.0
H944 H 0.51206 0.39926 0.67089 0.0
H945 H 0.45908 0.37404 0.62795 0.0
H946 H 0.46747 0.37529 0.53208 0.0
H947 H 0.48926 0.38519 0.45973 0.0
H948 H 0.54133 0.41225 0.50346 0.0
H949 H 0.53389 0.40877 0.59907 0.0
C950 C 0.50252 0.39374 0.64055 0.0
C951 C 0.48507 0.38643 0.65644 0.0
C952 C 0.50716 0.39511 0.58537 0.0
C953 C 0.47265 0.37967 0.61665 0.0
C954 C 0.4774 0.38047 0.56181 0.0
C955 C 0.49895 0.39029 0.49024 0.0
C956 C 0.51576 0.39905 0.47434 0.0
C957 C 0.49448 0.38846 0.54554 0.0
C958 C 0.5282 0.40558 0.51444 0.0
C959 C 0.52401 0.40354 0.56927 0.0
H960 H 0.82719 0.2815 0.75855 0.0
H961 H 0.85832 0.23512 0.69136 0.0
H962 H 0.86332 0.22233 0.7821 0.0
H963 H 0.85803 0.22385 0.88015 0.0
H964 H 0.8265 0.26999 0.94723 0.0
H965 H 0.82272 0.28352 0.85691 0.0
C966 C 0.83504 0.26858 0.76377 0.0
C967 C 0.84226 0.25919 0.71829 0.0
C968 C 0.83791 0.26136 0.81603 0.0
C969 C 0.85254 0.24255 0.72571 0.0
C970 C 0.85544 0.23526 0.77758 0.0
C971 C 0.85054 0.237 0.8751 0.0
C972 C 0.84259 0.24593 0.92033 0.0
C973 C 0.84814 0.24451 0.82299 0.0
C974 C 0.8328 0.26287 0.91308 0.0
C975 C 0.83055 0.27056 0.86142 0.0
H976 H 0.97885 0.59476 0.15338 0.0
H977 H 0.0356 0.60895 0.10881 0.0
H978 H 0.0272 0.60716 0.01289 0.0
H979 H 0.00397 0.59988 0.94163 0.0
H980 H 0.94779 0.5838 0.98763 0.0
H981 H 0.95572 0.58789 0.08279 0.0
C982 C 0.98929 0.59775 0.12264 0.0
C983 C 0.00776 0.6021 0.13799 0.0
C984 C 0.98451 0.59609 0.06776 0.0
C985 C 0.02125 0.60563 0.09783 0.0
C986 C 0.01648 0.60452 0.04303 0.0
C987 C 0.9935 0.59731 0.97255 0.0
C988 C 0.97537 0.59146 0.95761 0.0
C989 C -0.00178 0.59946 0.02749 0.0
C990 C 0.96191 0.58817 0.99807 0.0
C991 C 0.96639 0.59057 0.05254 0.0
H992 H 0.65913 0.27379 0.26629 0.0
H993 H 0.63454 0.22334 0.33227 0.0
H994 H 0.63211 0.21002 0.24134 0.0
H995 H 0.63858 0.2121 0.14397 0.0
H996 H 0.66373 0.26236 0.07848 0.0
H997 H 0.6641 0.27651 0.1685 0.0
C998 C 0.65317 0.2599 0.26077 0.0
C999 C 0.64717 0.24948 0.30591 0.0
C1000 C 0.65188 0.25235 0.20855 0.0
C1001 C 0.63934 0.23159 0.29813 0.0
C1002 C 0.63794 0.22398 0.24619 0.0
C1003 C 0.64394 0.22624 0.14929 0.0
C1004 C 0.65119 0.23616 0.10471 0.0
C1005 C 0.64438 0.23415 0.20122 0.0
C1006 C 0.65809 0.25444 0.11219 0.0
C1007 C 0.65838 0.26251 0.16366 0.0
H1008 H 0.014 0.39248 0.56272 0.0
H1009 H 0.95675 0.40541 0.51884 0.0
H1010 H 0.96498 0.40463 0.4233 0.0
H1011 H 0.98866 0.40214 0.3522 0.0
H1012 H 0.04629 0.39082 0.39497 0.0
H1013 H 0.03769 0.38889 0.49059 0.0
C1014 C 0.00334 0.395 0.53215 0.0
C1015 C 0.98484 0.39911 0.54784 0.0
C1016 C 0.00822 0.39482 0.47701 0.0
C1017 C 0.97115 0.40236 0.50785 0.0
C1018 C 0.97581 0.40189 0.45314 0.0
C1019 C -0.00071 0.399 0.38238 0.0
C1020 C 0.01806 0.39663 0.3666 0.0
C1021 C -0.00566 0.39838 0.43726 0.0
C1022 C 0.03172 0.39272 0.40618 0.0
C1023 C 0.02683 0.39168 0.46087 0.0
H1024 H 0.84416 0.75001 0.80316 0.0
H1025 H 0.81597 0.69847 0.76011 0.0
H1026 H 0.81874 0.70623 0.66446 0.0
H1027 H 0.82829 0.728 0.5928 0.0
H1028 H 0.85499 0.78034 0.63493 0.0
H1029 H 0.85393 0.77185 0.73085 0.0
C1030 C 0.83862 0.74052 0.77279 0.0
C1031 C 0.8298 0.72374 0.78877 0.0
C1032 C 0.84011 0.74514 0.7176 0.0
C1033 C 0.82272 0.71155 0.74896 0.0
C1034 C 0.82435 0.71592 0.69416 0.0
C1035 C 0.8341 0.73742 0.62295 0.0
C1036 C 0.8418 0.75469 0.6069 0.0
C1037 C 0.83296 0.7327 0.678 0.0
C1038 C 0.84903 0.76692 0.6464 0.0
C1039 C 0.84836 0.76211 0.70123 0.0
H1040 H 0.51937 0.58625 0.00127 0.0
H1041 H 0.465 0.59167 0.07618 0.0
H1042 H 0.45012 0.59319 0.98683 0.0
H1043 H 0.45254 0.59142 0.88751 0.0
H1044 H 0.50711 0.5866 0.81322 0.0
H1045 H 0.52198 0.58666 0.90235 0.0
C1046 C 0.50426 0.58779 0.99805 0.0
C1047 C 0.49326 0.58861 0.04518 0.0
C1048 C 0.49587 0.58883 0.94671 0.0
C1049 C 0.47374 0.5909 0.04044 0.0
C1050 C 0.46524 0.59177 0.98939 0.0
C1051 C 0.4677 0.59059 0.89082 0.0
C1052 C 0.4787 0.58891 0.8438 0.0
C1053 C 0.47616 0.59055 0.94226 0.0
C1054 C 0.49833 0.58792 0.84874 0.0
C1055 C 0.50684 0.58786 0.89971 0.0
H1056 H 0.33421 0.2483 0.57733 0.0
H1057 H 0.35752 0.19431 0.61892 0.0
H1058 H 0.35855 0.20322 0.71438 0.0
H1059 H 0.35113 0.22582 0.78724 0.0
H1060 H 0.32626 0.27912 0.745 0.0
H1061 H 0.3275 0.27104 0.64941 0.0
C1062 C 0.33979 0.23861 0.60721 0.0
C1063 C 0.34586 0.22072 0.59098 0.0
C1064 C 0.33985 0.24363 0.66231 0.0
C1065 C 0.35278 0.2082 0.63034 0.0
C1066 C 0.35331 0.21326 0.68502 0.0
C1067 C 0.34606 0.23566 0.75705 0.0
C1068 C 0.33853 0.253 0.77346 0.0
C1069 C 0.34658 0.23083 0.70171 0.0
C1070 C 0.33201 0.2656 0.73372 0.0
C1071 C 0.33275 0.26103 0.67885 0.0
H1072 H 0.49721 0.59337 0.55005 0.0
H1073 H 0.44569 0.56538 0.50557 0.0
H1074 H 0.4536 0.56841 0.41008 0.0
H1075 H 0.47544 0.57829 0.33894 0.0
H1076 H 0.52763 0.60501 0.38269 0.0
H1077 H 0.51909 0.60344 0.47841 0.0
C1078 C 0.48776 0.58791 0.51942 0.0
C1079 C 0.47094 0.5791 0.53495 0.0
C1080 C 0.49244 0.5896 0.46435 0.0
C1081 C 0.45879 0.57214 0.49478 0.0
C1082 C 0.46326 0.57392 0.44007 0.0
C1083 C 0.48482 0.58398 0.36941 0.0
C1084 C 0.50206 0.59185 0.35382 0.0
C1085 C 0.48005 0.58259 0.42437 0.0
C1086 C 0.51423 0.59893 0.39375 0.0
C1087 C 0.50939 0.59797 0.44848 0.0
H1088 H 0.14857 0.7127 0.26275 0.0
H1089 H 0.14626 0.76759 0.33597 0.0
H1090 H 0.14236 0.78203 0.24668 0.0
H1091 H 0.14099 0.77898 0.14762 0.0
H1092 H 0.14233 0.72386 0.07528 0.0
H1093 H 0.14495 0.70951 0.16467 0.0
C1094 C 0.14723 0.72783 0.25907 0.0
C1095 C 0.14795 0.73913 0.30548 0.0
C1096 C 0.14471 0.73594 0.20795 0.0
C1097 C 0.14584 0.75866 0.30055 0.0
C1098 C 0.14361 0.76689 0.24962 0.0
C1099 C 0.14166 0.76382 0.15153 0.0
C1100 C 0.14159 0.75249 0.10504 0.0
C1101 C 0.14319 0.75567 0.20302 0.0
C1102 C 0.14235 0.73288 0.11055 0.0
C1103 C 0.14395 0.72466 0.16158 0.0
H1104 H 0.96642 0.39412 0.90342 0.0
H1105 H 0.02127 0.39597 0.82967 0.0
H1106 H 0.03585 0.39898 0.9188 0.0
H1107 H 0.03289 0.40307 0.01697 0.0
H1108 H 0.9783 0.40016 0.09164 0.0
H1109 H 0.96367 0.39563 0.00273 0.0
C1110 C 0.98158 0.39496 0.90693 0.0
C1111 C 0.99275 0.39495 0.85999 0.0
C1112 C 0.98987 0.39672 0.95832 0.0
C1113 C 0.01237 0.39592 0.86516 0.0
C1114 C 0.0207 0.39776 0.91608 0.0
C1115 C 0.01778 0.40144 0.01374 0.0
C1116 C 0.00662 0.40223 0.06054 0.0
C1117 C 0.00957 0.39855 0.96278 0.0
C1118 C 0.98713 0.39972 0.05604 0.0
C1119 C 0.97879 0.39713 0.00528 0.0
H1120 H 0.34445 0.78129 0.84982 0.0
H1121 H 0.35193 0.72687 0.92393 0.0
H1122 H 0.35295 0.71218 0.83491 0.0
H1123 H 0.34898 0.71445 0.73672 0.0
H1124 H 0.3423 0.76872 0.66156 0.0
H1125 H 0.34374 0.78389 0.75039 0.0
C1126 C 0.34656 0.76626 0.84638 0.0
C1127 C 0.34791 0.75515 0.89329 0.0
C1128 C 0.34707 0.75788 0.79504 0.0
C1129 C 0.35081 0.73572 0.88837 0.0
C1130 C 0.35129 0.72729 0.83752 0.0
C1131 C 0.34794 0.72961 0.73985 0.0
C1132 C 0.34524 0.74048 0.69307 0.0
C1133 C 0.34896 0.73817 0.79073 0.0
C1134 C 0.34427 0.76011 0.69728 0.0
C1135 C 0.34507 0.76876 0.74797 0.0
H1136 H 0.95701 0.60146 0.60567 0.0
H1137 H 0.01165 0.59495 0.67913 0.0
H1138 H 0.02635 0.59589 0.58998 0.0
H1139 H 0.0235 0.59655 0.49123 0.0
H1140 H 0.96909 0.60363 0.41705 0.0
H1141 H 0.95442 0.60456 0.5066 0.0
C1142 C 0.97215 0.60043 0.60216 0.0
C1143 C 0.98323 0.598 0.64887 0.0
C1144 C 0.9805 0.60095 0.55075 0.0
C1145 C 0.00283 0.59682 0.6438 0.0
C1146 C 0.01123 0.59728 0.59283 0.0
C1147 C 0.00843 0.59838 0.49467 0.0
C1148 C -0.00266 0.5998 0.44773 0.0
C1149 C 0.00017 0.599 0.54607 0.0
C1150 C 0.97789 0.60244 0.45269 0.0
C1151 C 0.96951 0.60293 0.50383 0.0
H1152 H 0.13909 0.23571 0.19026 0.0
H1153 H 0.16265 0.28954 0.23298 0.0
H1154 H 0.1601 0.28189 0.32865 0.0
H1155 H 0.15236 0.25951 0.40077 0.0
H1156 H 0.13048 0.20497 0.35903 0.0
H1157 H 0.13089 0.21334 0.26303 0.0
C1158 C 0.14365 0.24572 0.22057 0.0
C1159 C 0.15114 0.26311 0.20437 0.0
C1160 C 0.14232 0.24117 0.27592 0.0
C1161 C 0.15696 0.27598 0.24419 0.0
C1162 C 0.15544 0.27167 0.29906 0.0
C1163 C 0.14739 0.2496 0.37067 0.0
C1164 C 0.14128 0.23173 0.38689 0.0
C1165 C 0.14824 0.25428 0.31546 0.0
C1166 C 0.1352 0.21887 0.34744 0.0
C1167 C 0.13552 0.2236 0.29253 0.0
H1168 H 0.48759 0.39472 0.17137 0.0
H1169 H 0.545 0.38247 0.12938 0.0
H1170 H 0.53645 0.38086 0.03362 0.0
H1171 H 0.51291 0.38503 0.96086 0.0
H1172 H 0.45594 0.39912 0.00375 0.0
H1173 H 0.46403 0.39794 0.09943 0.0
C1174 C 0.49815 0.39138 0.14132 0.0
C1175 C 0.51686 0.38864 0.15746 0.0
C1176 C 0.49325 0.39105 0.08617 0.0
C1177 C 0.53047 0.38461 0.11796 0.0
C1178 C 0.52561 0.38376 0.06314 0.0
C1179 C 0.50228 0.38773 0.99122 0.0
C1180 C 0.48389 0.39226 0.97506 0.0
C1181 C 0.50709 0.38731 0.04659 0.0
C1182 C 0.47026 0.39575 0.01494 0.0
C1183 C 0.47484 0.39503 0.06982 0.0
H1184 H 0.13137 0.34246 0.09434 0.0
H1185 H 0.08903 0.29973 0.07239 0.0
H1186 H 0.06526 0.32063 0.10981 0.0
H1187 H 0.05666 0.35068 0.15029 0.0
H1188 H 0.09876 0.39361 0.17224 0.0
H1189 H 0.1226 0.37285 0.13381 0.0
C1190 C 0.1169 0.33781 0.09726 0.0
C1191 C 0.11192 0.31964 0.08059 0.0
C1192 C 0.10336 0.34981 0.11941 0.0
C1193 C 0.09318 0.3137 0.08491 0.0
C1194 C 0.0796 0.32559 0.1065 0.0
C1195 C 0.07108 0.35544 0.14702 0.0
C1196 C 0.07602 0.37355 0.16432 0.0
C1197 C 0.08458 0.34358 0.12435 0.0
C1198 C 0.09468 0.37965 0.15935 0.0
C1199 C 0.10828 0.36784 0.13722 0.0
H1200 H 0.85676 0.83379 0.3981 0.0
H1201 H 0.89846 0.79064 0.42279 0.0
H1202 H 0.92305 0.81204 0.39231 0.0
H1203 H 0.93264 0.84286 0.35805 0.0
H1204 H 0.89108 0.88617 0.33407 0.0
H1205 H 0.86641 0.86477 0.36448 0.0
C1206 C 0.87124 0.82912 0.39706 0.0
C1207 C 0.87581 0.8107 0.4127 0.0
C1208 C 0.88528 0.84145 0.37925 0.0
C1209 C 0.89461 0.80478 0.41103 0.0
C1210 C 0.90867 0.81698 0.39346 0.0
C1211 C 0.91816 0.84757 0.35919 0.0
C1212 C 0.91363 0.866 0.34365 0.0
C1213 C 0.90414 0.83529 0.37722 0.0
C1214 C 0.89487 0.872 0.34573 0.0
C1215 C 0.88078 0.8598 0.36322 0.0
H1216 H 0.35763 0.65224 0.60722 0.0
H1217 H 0.40231 0.68966 0.55927 0.0
H1218 H 0.4256 0.66737 0.59328 0.0
H1219 H 0.43319 0.63747 0.63707 0.0
H1220 H 0.38863 0.59981 0.68427 0.0
H1221 H 0.36526 0.62217 0.6507 0.0
C1222 C 0.37247 0.65545 0.60387 0.0
C1223 C 0.37827 0.67252 0.58063 0.0
C1224 C 0.38574 0.64267 0.6239 0.0
C1225 C 0.39752 0.67657 0.57682 0.0
C1226 C 0.41082 0.66388 0.59646 0.0
C1227 C 0.41835 0.63422 0.64043 0.0
C1228 C 0.4126 0.61709 0.66336 0.0
C1229 C 0.40508 0.64696 0.62036 0.0
C1230 C 0.39336 0.61296 0.66696 0.0
C1231 C 0.38003 0.62569 0.64759 0.0
H1232 H 0.63613 0.14699 0.9033 0.0
H1233 H 0.59597 0.19134 0.93118 0.0
H1234 H 0.57119 0.17233 0.89104 0.0
H1235 H 0.56098 0.14352 0.84706 0.0
H1236 H 0.60031 0.09838 0.82144 0.0
H1237 H 0.62552 0.11742 0.86105 0.0
C1238 C 0.62191 0.15239 0.90099 0.0
C1239 C 0.61787 0.17052 0.92014 0.0
C1240 C 0.60769 0.14139 0.87766 0.0
C1241 C 0.59942 0.1774 0.91682 0.0
C1242 C 0.58526 0.16659 0.89363 0.0
C1243 C 0.57511 0.1379 0.84962 0.0
C1244 C 0.57889 0.11971 0.83085 0.0
C1245 C 0.58928 0.14867 0.87349 0.0
C1246 C 0.59716 0.11245 0.83531 0.0
C1247 C 0.61151 0.12328 0.85815 0.0
H1248 H 0.08553 0.61384 0.35475 0.0
H1249 H 0.04464 0.65706 0.32076 0.0
H1250 H 0.06603 0.6809 0.3553 0.0
H1251 H 0.0959 0.68947 0.39637 0.0
H1252 H 0.13749 0.6469 0.42912 0.0
H1253 H 0.11616 0.6227 0.39427 0.0
C1254 C 0.0814 0.6285 0.35456 0.0
C1255 C 0.06354 0.63369 0.33529 0.0
C1256 C 0.09377 0.64218 0.37473 0.0
C1257 C 0.05832 0.65271 0.33535 0.0
C1258 C 0.0705 0.66635 0.35527 0.0
C1259 C 0.10028 0.67488 0.39625 0.0
C1260 C 0.11813 0.66991 0.41569 0.0
C1261 C 0.08816 0.66122 0.37546 0.0
C1262 C 0.12373 0.65101 0.41459 0.0
C1263 C 0.11158 0.63721 0.39454 0.0
H1264 H 0.59249 0.80481 0.61322 0.0
H1265 H 0.63622 0.84597 0.58985 0.0
H1266 H 0.61527 0.87071 0.62261 0.0
H1267 H 0.58444 0.8805 0.65743 0.0
H1268 H 0.54092 0.83904 0.6803 0.0
H1269 H 0.56205 0.81442 0.64881 0.0
C1270 C 0.59743 0.81921 0.615 0.0
C1271 C 0.61581 0.82361 0.59888 0.0
C1272 C 0.58543 0.83323 0.63427 0.0
C1273 C 0.62207 0.84229 0.60181 0.0
C1274 C 0.61013 0.85639 0.62071 0.0
C1275 C 0.57966 0.86604 0.65597 0.0
C1276 C 0.56119 0.86155 0.67125 0.0
C1277 C 0.5918 0.852 0.63718 0.0
C1278 C 0.5551 0.84282 0.66883 0.0
C1279 C 0.56713 0.82876 0.65064 0.0
H1280 H 0.40449 0.37212 0.85666 0.0
H1281 H 0.44772 0.33081 0.82872 0.0
H1282 H 0.42629 0.30578 0.85564 0.0
H1283 H 0.39553 0.29565 0.88814 0.0
H1284 H 0.3521 0.33668 0.91644 0.0
H1285 H 0.37342 0.36186 0.88882 0.0
C1286 C 0.40915 0.35762 0.8561 0.0
C1287 C 0.42762 0.3533 0.84063 0.0
C1288 C 0.3968 0.3433 0.87216 0.0
C1289 C 0.43354 0.33448 0.84042 0.0
C1290 C 0.42133 0.32017 0.85595 0.0
C1291 C 0.39075 0.31011 0.88853 0.0
C1292 C 0.37232 0.31433 0.9045 0.0
C1293 C 0.40299 0.32443 0.87224 0.0
C1294 C 0.36627 0.3331 0.90447 0.0
C1295 C 0.37843 0.34748 0.88853 0.0
H1296 H 0.86266 0.15529 0.11707 0.0
H1297 H 0.90413 0.19781 0.08231 0.0
H1298 H 0.92914 0.1765 0.11079 0.0
H1299 H 0.93918 0.14586 0.14534 0.0
H1300 H 0.89785 0.10315 0.17949 0.0
H1301 H 0.87274 0.12458 0.15203 0.0
C1302 C 0.87718 0.15985 0.1155 0.0
C1303 C 0.88157 0.17806 0.09746 0.0
C1304 C 0.89146 0.14758 0.13225 0.0
C1305 C 0.90042 0.18383 0.0959 0.0
C1306 C 0.91471 0.17168 0.11233 0.0
C1307 C 0.92467 0.14128 0.14717 0.0
C1308 C 0.92035 0.12299 0.16459 0.0
C1309 C 0.91038 0.15356 0.13072 0.0
C1310 C 0.90151 0.1172 0.16637 0.0
C1311 C 0.88716 0.12941 0.1505 0.0
H1312 H 0.88682 0.68377 0.88858 0.0
H1313 H 0.84719 0.64072 0.93404 0.0
H1314 H 0.86789 0.61662 0.89662 0.0
H1315 H 0.89726 0.60792 0.85107 0.0
H1316 H 0.93677 0.65114 0.80613 0.0
H1317 H 0.91587 0.67517 0.84241 0.0
C1318 C 0.88278 0.6691 0.89073 0.0
C1319 C 0.86561 0.66398 0.91432 0.0
C1320 C 0.89457 0.65542 0.86853 0.0
C1321 C 0.86044 0.64496 0.91632 0.0
C1322 C 0.87219 0.63121 0.89469 0.0
C1323 C 0.90116 0.62262 0.84862 0.0
C1324 C 0.91845 0.6278 0.8258 0.0
C1325 C 0.88924 0.63631 0.87042 0.0
C1326 C 0.92348 0.64685 0.82339 0.0
C1327 C 0.9116 0.66057 0.84438 0.0
H1328 H 0.12916 0.15188 0.58906 0.0
H1329 H 0.08737 0.19507 0.5661 0.0
H1330 H 0.06295 0.17381 0.59816 0.0
H1331 H 0.05357 0.14329 0.63433 0.0
H1332 H 0.09508 0.09987 0.65726 0.0
H1333 H 0.1196 0.12097 0.62405 0.0
C1334 C 0.11468 0.15655 0.59063 0.0
C1335 C 0.11005 0.17497 0.57522 0.0
C1336 C 0.10073 0.14432 0.60964 0.0
C1337 C 0.09127 0.18092 0.57773 0.0
C1338 C 0.07731 0.16882 0.59623 0.0
C1339 C 0.068 0.13848 0.63235 0.0
C1340 C 0.07257 0.12014 0.64848 0.0
C1341 C 0.08192 0.15057 0.61275 0.0
C1342 C 0.09127 0.114 0.64523 0.0
C1343 C 0.10527 0.12602 0.6261 0.0
H1344 H 0.55737 0.34637 0.37944 0.0
H1345 H 0.59991 0.38634 0.33289 0.0
H1346 H 0.62442 0.36511 0.36651 0.0
H1347 H 0.63357 0.3348 0.40765 0.0
H1348 H 0.59042 0.29547 0.45479 0.0
H1349 H 0.56625 0.31704 0.42305 0.0
C1350 C 0.57201 0.35042 0.37634 0.0
C1351 C 0.57688 0.36776 0.35321 0.0
C1352 C 0.58587 0.33835 0.39632 0.0
C1353 C 0.59587 0.37297 0.35025 0.0
C1354 C 0.60985 0.36088 0.3696 0.0
C1355 C 0.61887 0.33108 0.41147 0.0
C1356 C 0.61378 0.31357 0.43343 0.0
C1357 C 0.60499 0.34351 0.39268 0.0
C1358 C 0.59469 0.30886 0.43801 0.0
C1359 C 0.58086 0.32114 0.41967 0.0
H1360 H 0.3896 0.80417 0.10379 0.0
H1361 H 0.34578 0.84371 0.06439 0.0
H1362 H 0.36522 0.86954 0.09837 0.0
H1363 H 0.39481 0.88074 0.13919 0.0
H1364 H 0.43805 0.84063 0.18 0.0
H1365 H 0.41854 0.8151 0.14616 0.0
C1366 C 0.38434 0.81846 0.10227 0.0
C1367 C 0.36639 0.8221 0.08124 0.0
C1368 C 0.3954 0.83309 0.12264 0.0
C1369 C 0.35963 0.84062 0.0802 0.0
C1370 C 0.3707 0.85536 0.09976 0.0
C1371 C 0.39987 0.86639 0.14104 0.0
C1372 C 0.41783 0.86257 0.16205 0.0
C1373 C 0.3886 0.85173 0.12125 0.0
C1374 C 0.42426 0.84393 0.16408 0.0
C1375 C 0.41316 0.82932 0.14454 0.0
H1376 H 0.90605 0.38177 0.66386 0.0
H1377 H 0.94701 0.3387 0.69832 0.0
H1378 H 0.92562 0.31474 0.66394 0.0
H1379 H 0.89576 0.30612 0.62189 0.0
H1380 H 0.85452 0.34889 0.58755 0.0
H1381 H 0.87568 0.37297 0.62343 0.0
C1382 C 0.91018 0.36711 0.66445 0.0
C1383 C 0.92804 0.36199 0.68368 0.0
C1384 C 0.89791 0.35342 0.64389 0.0
C1385 C 0.9333 0.34297 0.6838 0.0
C1386 C 0.92113 0.32928 0.6639 0.0
C1387 C 0.89145 0.32073 0.62187 0.0
C1388 C 0.87371 0.32578 0.6017 0.0
C1389 C 0.90352 0.33438 0.64322 0.0
C1390 C 0.86819 0.34471 0.60258 0.0
C1391 C 0.88023 0.35845 0.6233 0.0
H1392 H 0.39441 0.18022 0.38521 0.0
H1393 H 0.3546 0.13609 0.41898 0.0
H1394 H 0.37744 0.11252 0.3894 0.0
H1395 H 0.40871 0.10467 0.35236 0.0
H1396 H 0.44772 0.14949 0.31732 0.0
H1397 H 0.42511 0.17259 0.34865 0.0
C1398 C 0.39075 0.16544 0.38648 0.0
C1399 C 0.37292 0.15987 0.40439 0.0
C1400 C 0.40375 0.15211 0.36876 0.0
C1401 C 0.36831 0.14069 0.40544 0.0
C1402 C 0.38132 0.12723 0.38839 0.0
C1403 C 0.41218 0.1195 0.35147 0.0
C1404 C 0.42982 0.12536 0.33246 0.0
C1405 C 0.39906 0.1328 0.3696 0.0
C1406 C 0.43421 0.14461 0.33163 0.0
C1407 C 0.42132 0.15785 0.34967 0.0
H1408 H 0.58644 0.68745 0.11145 0.0
H1409 H 0.63039 0.64762 0.07628 0.0
H1410 H 0.61 0.62179 0.10452 0.0
H1411 H 0.57982 0.61066 0.14016 0.0
H1412 H 0.53602 0.65064 0.17571 0.0
H1413 H 0.55633 0.67636 0.14676 0.0
C1414 C 0.59151 0.67311 0.10962 0.0
C1415 C 0.60984 0.66941 0.09168 0.0
C1416 C 0.57982 0.65841 0.12641 0.0
C1417 C 0.61629 0.65079 0.08985 0.0
C1418 C 0.60467 0.63604 0.10613 0.0
C1419 C 0.57476 0.62501 0.1418 0.0
C1420 C 0.5565 0.62877 0.16016 0.0
C1421 C 0.58646 0.63971 0.12479 0.0
C1422 C 0.55006 0.64741 0.16183 0.0
C1423 C 0.56164 0.66211 0.14516 0.0
H1424 H 0.04765 0.84365 0.86609 0.0
H1425 H 0.08836 0.88446 0.81231 0.0
H1426 H 0.11388 0.86445 0.84528 0.0
H1427 H 0.12449 0.83545 0.89004 0.0
H1428 H 0.08352 0.79503 0.94484 0.0
H1429 H 0.05816 0.81498 0.91146 0.0
C1430 C 0.06212 0.8481 0.86114 0.0
C1431 C 0.06616 0.86541 0.83649 0.0
C1432 C 0.07662 0.83672 0.88097 0.0
C1433 C 0.08494 0.87112 0.83094 0.0
C1434 C 0.0995 0.85974 0.84998 0.0
C1435 C 0.11 0.8311 0.89505 0.0
C1436 C 0.10586 0.81384 0.91997 0.0
C1437 C 0.09549 0.84257 0.87538 0.0
C1438 C 0.08705 0.8083 0.92593 0.0
C1439 C 0.07255 0.81964 0.90665 0.0
loop_
_geom_bond_atom_site_label_1
_geom_bond_atom_site_label_2
_geom_bond_distance
_geom_bond_site_symmetry_2
_ccdc_geom_bond_type
In0 O1 2.294 . S
In0 O2 2.326 . S
In0 O6 2.266 . S
In0 O7 2.326 1_554 S
In0 O8 2.266 . S
In0 O9 2.326 . S
In0 O11 2.294 . S
In0 O12 2.326 . S
O1 In0 2.294 . S
O1 C10 1.240 . S
O2 In0 2.326 . S
O2 C10 1.252 . S
C3 O6 1.252 1_556 S
C3 O7 1.260 . S
C4 O11 1.240 . S
C4 O12 1.252 . S
C5 O8 1.252 . S
C5 O9 1.260 . S
O6 In0 2.266 . S
O6 C3 1.252 1_554 S
O7 In0 2.326 1_556 S
O7 C3 1.260 . S
O8 In0 2.266 . S
O8 C5 1.252 . S
O9 In0 2.326 . S
O9 C5 1.260 . S
C10 O1 1.240 . S
C10 O2 1.252 . S
O11 In0 2.294 . S
O11 C4 1.240 . S
O12 In0 2.326 . S
O12 C4 1.252 . S
In13 O14 2.294 . S
In13 O15 2.326 . S
In13 O19 2.266 . S
In13 O20 2.326 . S
In13 O21 2.266 . S
In13 O22 2.326 . S
In13 O24 2.294 . S
In13 O25 2.326 . S
O14 In13 2.294 . S
O14 C23 1.240 . S
O15 In13 2.326 . S
O15 C23 1.252 . S
C16 O19 1.252 . S
C16 O20 1.260 . S
C17 O24 1.240 . S
C17 O25 1.252 . S
C18 O21 1.252 . S
C18 O22 1.260 . S
O19 In13 2.266 . S
O19 C16 1.252 . S
O20 In13 2.326 . S
O20 C16 1.260 . S
O21 In13 2.266 . S
O21 C18 1.252 . S
O22 In13 2.326 . S
O22 C18 1.260 . S
C23 O14 1.240 . S
C23 O15 1.252 . S
O24 In13 2.294 . S
O24 C17 1.240 . S
O25 In13 2.326 . S
O25 C17 1.252 . S
In26 O27 2.294 . S
In26 O28 2.326 . S
In26 O32 2.266 . S
In26 O33 2.326 . S
In26 O34 2.266 . S
In26 O35 2.326 . S
In26 O37 2.294 . S
In26 O38 2.326 . S
O27 In26 2.294 . S
O27 C36 1.240 . S
O28 In26 2.326 . S
O28 C36 1.252 . S
C29 O32 1.252 . S
C29 O33 1.260 . S
C30 O37 1.240 . S
C30 O38 1.252 . S
C31 O34 1.252 . S
C31 O35 1.260 . S
O32 In26 2.266 . S
O32 C29 1.252 . S
O33 In26 2.326 . S
O33 C29 1.260 . S
O34 In26 2.266 . S
O34 C31 1.252 . S
O35 In26 2.326 . S
O35 C31 1.260 . S
C36 O27 1.240 . S
C36 O28 1.252 . S
O37 In26 2.294 . S
O37 C30 1.240 . S
O38 In26 2.326 . S
O38 C30 1.252 . S
In39 O40 2.294 . S
In39 O41 2.326 . S
In39 O45 2.266 . S
In39 O46 2.326 . S
In39 O47 2.266 . S
In39 O48 2.326 . S
In39 O50 2.294 . S
In39 O51 2.326 . S
O40 In39 2.294 . S
O40 C49 1.240 . S
O41 In39 2.326 . S
O41 C49 1.252 . S
C42 O45 1.252 . S
C42 O46 1.260 . S
C43 O50 1.240 . S
C43 O51 1.252 . S
C44 O47 1.252 . S
C44 O48 1.260 . S
O45 In39 2.266 . S
O45 C42 1.252 . S
O46 In39 2.326 . S
O46 C42 1.260 . S
O47 In39 2.266 . S
O47 C44 1.252 . S
O48 In39 2.326 . S
O48 C44 1.260 . S
C49 O40 1.240 . S
C49 O41 1.252 . S
O50 In39 2.294 . S
O50 C43 1.240 . S
O51 In39 2.326 . S
O51 C43 1.252 . S
In52 O53 2.294 . S
In52 O54 2.326 . S
In52 O58 2.266 . S
In52 O59 2.326 . S
In52 O60 2.266 . S
In52 O61 2.326 . S
In52 O63 2.294 . S
In52 O64 2.326 . S
O53 In52 2.294 . S
O53 C62 1.240 . S
O54 In52 2.326 . S
O54 C62 1.252 . S
C55 O58 1.252 . S
C55 O59 1.260 . S
C56 O63 1.240 . S
C56 O64 1.252 . S
C57 O60 1.252 . S
C57 O61 1.260 . S
O58 In52 2.266 . S
O58 C55 1.252 . S
O59 In52 2.326 . S
O59 C55 1.260 . S
O60 In52 2.266 . S
O60 C57 1.252 . S
O61 In52 2.326 . S
O61 C57 1.260 . S
C62 O53 1.240 . S
C62 O54 1.252 . S
O63 In52 2.294 . S
O63 C56 1.240 . S
O64 In52 2.326 . S
O64 C56 1.252 . S
In65 O66 2.294 . S
In65 O67 2.326 . S
In65 O71 2.266 . S
In65 O72 2.326 . S
In65 O73 2.266 . S
In65 O74 2.326 . S
In65 O76 2.294 . S
In65 O77 2.326 . S
O66 In65 2.294 . S
O66 C75 1.240 . S
O67 In65 2.326 . S
O67 C75 1.252 . S
C68 O71 1.252 . S
C68 O72 1.260 . S
C69 O76 1.240 . S
C69 O77 1.252 . S
C70 O73 1.252 . S
C70 O74 1.260 . S
O71 In65 2.266 . S
O71 C68 1.252 . S
O72 In65 2.326 . S
O72 C68 1.260 . S
O73 In65 2.266 . S
O73 C70 1.252 . S
O74 In65 2.326 . S
O74 C70 1.260 . S
C75 O66 1.240 . S
C75 O67 1.252 . S
O76 In65 2.294 . S
O76 C69 1.240 . S
O77 In65 2.326 . S
O77 C69 1.252 . S
In78 O79 2.294 . S
In78 O80 2.326 . S
In78 O84 2.266 . S
In78 O85 2.326 . S
In78 O86 2.266 . S
In78 O87 2.326 1_556 S
In78 O89 2.294 . S
In78 O90 2.326 . S
O79 In78 2.294 . S
O79 C88 1.240 . S
O80 In78 2.326 . S
O80 C88 1.252 . S
C81 O84 1.252 . S
C81 O85 1.260 . S
C82 O89 1.240 . S
C82 O90 1.252 . S
C83 O86 1.252 1_554 S
C83 O87 1.260 . S
O84 In78 2.266 . S
O84 C81 1.252 . S
O85 In78 2.326 . S
O85 C81 1.260 . S
O86 In78 2.266 . S
O86 C83 1.252 1_556 S
O87 In78 2.326 1_554 S
O87 C83 1.260 . S
C88 O79 1.240 . S
C88 O80 1.252 . S
O89 In78 2.294 . S
O89 C82 1.240 . S
O90 In78 2.326 . S
O90 C82 1.252 . S
In91 O92 2.294 . S
In91 O93 2.326 . S
In91 O97 2.266 . S
In91 O98 2.326 . S
In91 O99 2.266 . S
In91 O100 2.326 . S
In91 O102 2.294 . S
In91 O103 2.326 . S
O92 In91 2.294 . S
O92 C101 1.240 . S
O93 In91 2.326 . S
O93 C101 1.252 . S
C94 O97 1.252 . S
C94 O98 1.260 . S
C95 O102 1.240 . S
C95 O103 1.252 . S
C96 O99 1.252 . S
C96 O100 1.260 . S
O97 In91 2.266 . S
O97 C94 1.252 . S
O98 In91 2.326 . S
O98 C94 1.260 . S
O99 In91 2.266 . S
O99 C96 1.252 . S
O100 In91 2.326 . S
O100 C96 1.260 . S
C101 O92 1.240 . S
C101 O93 1.252 . S
O102 In91 2.294 . S
O102 C95 1.240 . S
O103 In91 2.326 . S
O103 C95 1.252 . S
In104 O105 2.294 . S
In104 O106 2.326 . S
In104 O110 2.266 . S
In104 O111 2.326 . S
In104 O112 2.266 . S
In104 O113 2.326 1_556 S
In104 O115 2.294 . S
In104 O116 2.326 . S
O105 In104 2.294 . S
O105 C114 1.240 . S
O106 In104 2.326 . S
O106 C114 1.252 . S
C107 O110 1.252 . S
C107 O111 1.260 . S
C108 O115 1.240 . S
C108 O116 1.252 . S
C109 O112 1.252 1_554 S
C109 O113 1.260 . S
O110 In104 2.266 . S
O110 C107 1.252 . S
O111 In104 2.326 . S
O111 C107 1.260 . S
O112 In104 2.266 . S
O112 C109 1.252 1_556 S
O113 In104 2.326 1_554 S
O113 C109 1.260 . S
C114 O105 1.240 . S
C114 O106 1.252 . S
O115 In104 2.294 . S
O115 C108 1.240 . S
O116 In104 2.326 . S
O116 C108 1.252 . S
In117 O118 2.294 . S
In117 O119 2.326 . S
In117 O123 2.266 . S
In117 O124 2.326 . S
In117 O125 2.266 . S
In117 O126 2.326 . S
In117 O128 2.294 . S
In117 O129 2.326 . S
O118 In117 2.294 . S
O118 C127 1.240 . S
O119 In117 2.326 . S
O119 C127 1.252 . S
C120 O123 1.252 . S
C120 O124 1.260 . S
C121 O128 1.240 . S
C121 O129 1.252 . S
C122 O125 1.252 . S
C122 O126 1.260 . S
O123 In117 2.266 . S
O123 C120 1.252 . S
O124 In117 2.326 . S
O124 C120 1.260 . S
O125 In117 2.266 . S
O125 C122 1.252 . S
O126 In117 2.326 . S
O126 C122 1.260 . S
C127 O118 1.240 . S
C127 O119 1.252 . S
O128 In117 2.294 . S
O128 C121 1.240 . S
O129 In117 2.326 . S
O129 C121 1.252 . S
In130 O131 2.294 . S
In130 O132 2.326 . S
In130 O136 2.266 . S
In130 O137 2.326 . S
In130 O138 2.266 . S
In130 O139 2.326 . S
In130 O141 2.294 . S
In130 O142 2.326 . S
O131 In130 2.294 . S
O131 C140 1.240 . S
O132 In130 2.326 . S
O132 C140 1.252 . S
C133 O136 1.252 . S
C133 O137 1.260 . S
C134 O141 1.240 . S
C134 O142 1.252 . S
C135 O138 1.252 . S
C135 O139 1.260 . S
O136 In130 2.266 . S
O136 C133 1.252 . S
O137 In130 2.326 . S
O137 C133 1.260 . S
O138 In130 2.266 . S
O138 C135 1.252 . S
O139 In130 2.326 . S
O139 C135 1.260 . S
C140 O131 1.240 . S
C140 O132 1.252 . S
O141 In130 2.294 . S
O141 C134 1.240 . S
O142 In130 2.326 . S
O142 C134 1.252 . S
In143 O144 2.294 . S
In143 O145 2.326 . S
In143 O149 2.266 . S
In143 O150 2.326 . S
In143 O151 2.266 . S
In143 O152 2.326 . S
In143 O154 2.294 . S
In143 O155 2.326 . S
O144 In143 2.294 . S
O144 C153 1.240 . S
O145 In143 2.326 . S
O145 C153 1.252 . S
C146 O149 1.252 . S
C146 O150 1.260 . S
C147 O154 1.240 . S
C147 O155 1.252 . S
C148 O151 1.252 . S
C148 O152 1.260 . S
O149 In143 2.266 . S
O149 C146 1.252 . S
O150 In143 2.326 . S
O150 C146 1.260 . S
O151 In143 2.266 . S
O151 C148 1.252 . S
O152 In143 2.326 . S
O152 C148 1.260 . S
C153 O144 1.240 . S
C153 O145 1.252 . S
O154 In143 2.294 . S
O154 C147 1.240 . S
O155 In143 2.326 . S
O155 C147 1.252 . S
In156 O157 2.294 . S
In156 O158 2.326 . S
In156 O162 2.266 . S
In156 O163 2.326 . S
In156 O164 2.266 . S
In156 O165 2.326 . S
In156 O167 2.294 . S
In156 O168 2.326 . S
O157 In156 2.294 . S
O157 C166 1.240 . S
O158 In156 2.326 . S
O158 C166 1.252 . S
C159 O162 1.252 . S
C159 O163 1.260 . S
C160 O167 1.240 . S
C160 O168 1.252 . S
C161 O164 1.252 . S
C161 O165 1.260 . S
O162 In156 2.266 . S
O162 C159 1.252 . S
O163 In156 2.326 . S
O163 C159 1.260 . S
O164 In156 2.266 . S
O164 C161 1.252 . S
O165 In156 2.326 . S
O165 C161 1.260 . S
C166 O157 1.240 . S
C166 O158 1.252 . S
O167 In156 2.294 . S
O167 C160 1.240 . S
O168 In156 2.326 . S
O168 C160 1.252 . S
In169 O170 2.294 . S
In169 O171 2.326 . S
In169 O175 2.266 . S
In169 O176 2.326 . S
In169 O177 2.266 . S
In169 O178 2.326 . S
In169 O180 2.294 . S
In169 O181 2.326 . S
O170 In169 2.294 . S
O170 C179 1.240 . S
O171 In169 2.326 . S
O171 C179 1.252 . S
C172 O175 1.252 . S
C172 O176 1.260 . S
C173 O180 1.240 . S
C173 O181 1.252 . S
C174 O177 1.252 . S
C174 O178 1.260 . S
O175 In169 2.266 . S
O175 C172 1.252 . S
O176 In169 2.326 . S
O176 C172 1.260 . S
O177 In169 2.266 . S
O177 C174 1.252 . S
O178 In169 2.326 . S
O178 C174 1.260 . S
C179 O170 1.240 . S
C179 O171 1.252 . S
O180 In169 2.294 . S
O180 C173 1.240 . S
O181 In169 2.326 . S
O181 C173 1.252 . S
In182 O183 2.294 . S
In182 O184 2.326 . S
In182 O188 2.266 . S
In182 O189 2.326 1_554 S
In182 O190 2.266 . S
In182 O191 2.326 . S
In182 O193 2.294 . S
In182 O194 2.326 . S
O183 In182 2.294 . S
O183 C192 1.240 . S
O184 In182 2.326 . S
O184 C192 1.252 . S
C185 O188 1.252 1_556 S
C185 O189 1.260 . S
C186 O193 1.240 . S
C186 O194 1.252 . S
C187 O190 1.252 . S
C187 O191 1.260 . S
O188 In182 2.266 . S
O188 C185 1.252 1_554 S
O189 In182 2.326 1_556 S
O189 C185 1.260 . S
O190 In182 2.266 . S
O190 C187 1.252 . S
O191 In182 2.326 . S
O191 C187 1.260 . S
C192 O183 1.240 . S
C192 O184 1.252 . S
O193 In182 2.294 . S
O193 C186 1.240 . S
O194 In182 2.326 . S
O194 C186 1.252 . S
In195 O196 2.294 . S
In195 O197 2.326 . S
In195 O201 2.266 . S
In195 O202 2.326 . S
In195 O203 2.266 . S
In195 O204 2.326 . S
In195 O206 2.294 . S
In195 O207 2.326 . S
O196 In195 2.294 . S
O196 C205 1.240 . S
O197 In195 2.326 . S
O197 C205 1.252 . S
C198 O201 1.252 . S
C198 O202 1.260 . S
C199 O206 1.240 . S
C199 O207 1.252 . S
C200 O203 1.252 . S
C200 O204 1.260 . S
O201 In195 2.266 . S
O201 C198 1.252 . S
O202 In195 2.326 . S
O202 C198 1.260 . S
O203 In195 2.266 . S
O203 C200 1.252 . S
O204 In195 2.326 . S
O204 C200 1.260 . S
C205 O196 1.240 . S
C205 O197 1.252 . S
O206 In195 2.294 . S
O206 C199 1.240 . S
O207 In195 2.326 . S
O207 C199 1.252 . S
In208 O209 2.294 . S
In208 O210 2.326 . S
In208 O214 2.266 . S
In208 O215 2.326 . S
In208 O216 2.266 . S
In208 O217 2.326 . S
In208 O219 2.294 . S
In208 O220 2.326 . S
O209 In208 2.294 . S
O209 C218 1.240 . S
O210 In208 2.326 . S
O210 C218 1.252 . S
C211 O214 1.252 . S
C211 O215 1.260 . S
C212 O219 1.240 . S
C212 O220 1.252 . S
C213 O216 1.252 . S
C213 O217 1.260 . S
O214 In208 2.266 . S
O214 C211 1.252 . S
O215 In208 2.326 . S
O215 C211 1.260 . S
O216 In208 2.266 . S
O216 C213 1.252 . S
O217 In208 2.326 . S
O217 C213 1.260 . S
C218 O209 1.240 . S
C218 O210 1.252 . S
O219 In208 2.294 . S
O219 C212 1.240 . S
O220 In208 2.326 . S
O220 C212 1.252 . S
In221 O222 2.294 . S
In221 O223 2.326 . S
In221 O227 2.266 . S
In221 O228 2.326 . S
In221 O229 2.266 . S
In221 O230 2.326 . S
In221 O232 2.294 . S
In221 O233 2.326 . S
O222 In221 2.294 . S
O222 C231 1.240 . S
O223 In221 2.326 . S
O223 C231 1.252 . S
C224 O227 1.252 . S
C224 O228 1.260 . S
C225 O232 1.240 . S
C225 O233 1.252 . S
C226 O229 1.252 . S
C226 O230 1.260 . S
O227 In221 2.266 . S
O227 C224 1.252 . S
O228 In221 2.326 . S
O228 C224 1.260 . S
O229 In221 2.266 . S
O229 C226 1.252 . S
O230 In221 2.326 . S
O230 C226 1.260 . S
C231 O222 1.240 . S
C231 O223 1.252 . S
O232 In221 2.294 . S
O232 C225 1.240 . S
O233 In221 2.326 . S
O233 C225 1.252 . S
In234 O235 2.294 . S
In234 O236 2.326 . S
In234 O240 2.266 . S
In234 O241 2.326 1_554 S
In234 O242 2.266 . S
In234 O243 2.326 . S
In234 O245 2.294 . S
In234 O246 2.326 . S
O235 In234 2.294 . S
O235 C244 1.240 . S
O236 In234 2.326 . S
O236 C244 1.252 . S
C237 O240 1.252 1_556 S
C237 O241 1.260 . S
C238 O245 1.240 . S
C238 O246 1.252 . S
C239 O242 1.252 . S
C239 O243 1.260 . S
O240 In234 2.266 . S
O240 C237 1.252 1_554 S
O241 In234 2.326 1_556 S
O241 C237 1.260 . S
O242 In234 2.266 . S
O242 C239 1.252 . S
O243 In234 2.326 . S
O243 C239 1.260 . S
C244 O235 1.240 . S
C244 O236 1.252 . S
O245 In234 2.294 . S
O245 C238 1.240 . S
O246 In234 2.326 . S
O246 C238 1.252 . S
In247 O248 2.294 . S
In247 O249 2.326 . S
In247 O253 2.266 . S
In247 O254 2.326 . S
In247 O255 2.266 . S
In247 O256 2.326 . S
In247 O258 2.294 . S
In247 O259 2.326 . S
O248 In247 2.294 . S
O248 C257 1.240 . S
O249 In247 2.326 . S
O249 C257 1.252 . S
C250 O253 1.252 . S
C250 O254 1.260 . S
C251 O258 1.240 . S
C251 O259 1.252 . S
C252 O255 1.252 . S
C252 O256 1.260 . S
O253 In247 2.266 . S
O253 C250 1.252 . S
O254 In247 2.326 . S
O254 C250 1.260 . S
O255 In247 2.266 . S
O255 C252 1.252 . S
O256 In247 2.326 . S
O256 C252 1.260 . S
C257 O248 1.240 . S
C257 O249 1.252 . S
O258 In247 2.294 . S
O258 C251 1.240 . S
O259 In247 2.326 . S
O259 C251 1.252 . S
In260 O261 2.294 . S
In260 O262 2.326 . S
In260 O266 2.266 . S
In260 O267 2.326 . S
In260 O268 2.266 . S
In260 O269 2.326 1_556 S
In260 O271 2.294 . S
In260 O272 2.326 . S
O261 In260 2.294 . S
O261 C270 1.240 . S
O262 In260 2.326 . S
O262 C270 1.252 . S
C263 O266 1.252 . S
C263 O267 1.260 . S
C264 O271 1.240 . S
C264 O272 1.252 . S
C265 O268 1.252 1_554 S
C265 O269 1.260 . S
O266 In260 2.266 . S
O266 C263 1.252 . S
O267 In260 2.326 . S
O267 C263 1.260 . S
O268 In260 2.266 . S
O268 C265 1.252 1_556 S
O269 In260 2.326 1_554 S
O269 C265 1.260 . S
C270 O261 1.240 . S
C270 O262 1.252 . S
O271 In260 2.294 . S
O271 C264 1.240 . S
O272 In260 2.326 . S
O272 C264 1.252 . S
In273 O274 2.294 . S
In273 O275 2.326 . S
In273 O279 2.266 . S
In273 O280 2.326 . S
In273 O281 2.266 . S
In273 O282 2.326 . S
In273 O284 2.294 . S
In273 O285 2.326 . S
O274 In273 2.294 . S
O274 C283 1.240 . S
O275 In273 2.326 . S
O275 C283 1.252 . S
C276 O279 1.252 . S
C276 O280 1.260 . S
C277 O284 1.240 . S
C277 O285 1.252 . S
C278 O281 1.252 . S
C278 O282 1.260 . S
O279 In273 2.266 . S
O279 C276 1.252 . S
O280 In273 2.326 . S
O280 C276 1.260 . S
O281 In273 2.266 . S
O281 C278 1.252 . S
O282 In273 2.326 . S
O282 C278 1.260 . S
C283 O274 1.240 . S
C283 O275 1.252 . S
O284 In273 2.294 . S
O284 C277 1.240 . S
O285 In273 2.326 . S
O285 C277 1.252 . S
In286 O287 2.294 . S
In286 O288 2.326 . S
In286 O292 2.266 . S
In286 O293 2.326 . S
In286 O294 2.266 . S
In286 O295 2.326 . S
In286 O297 2.294 . S
In286 O298 2.326 . S
O287 In286 2.294 . S
O287 C296 1.240 . S
O288 In286 2.326 . S
O288 C296 1.252 . S
C289 O292 1.252 . S
C289 O293 1.260 . S
C290 O297 1.240 . S
C290 O298 1.252 . S
C291 O294 1.252 . S
C291 O295 1.260 . S
O292 In286 2.266 . S
O292 C289 1.252 . S
O293 In286 2.326 . S
O293 C289 1.260 . S
O294 In286 2.266 . S
O294 C291 1.252 . S
O295 In286 2.326 . S
O295 C291 1.260 . S
C296 O287 1.240 . S
C296 O288 1.252 . S
O297 In286 2.294 . S
O297 C290 1.240 . S
O298 In286 2.326 . S
O298 C290 1.252 . S
In299 O300 2.294 . S
In299 O301 2.326 . S
In299 O305 2.266 . S
In299 O306 2.326 . S
In299 O307 2.266 . S
In299 O308 2.326 . S
In299 O310 2.294 . S
In299 O311 2.326 . S
O300 In299 2.294 . S
O300 C309 1.240 . S
O301 In299 2.326 . S
O301 C309 1.252 . S
C302 O305 1.252 . S
C302 O306 1.260 . S
C303 O310 1.240 . S
C303 O311 1.252 . S
C304 O307 1.252 . S
C304 O308 1.260 . S
O305 In299 2.266 . S
O305 C302 1.252 . S
O306 In299 2.326 . S
O306 C302 1.260 . S
O307 In299 2.266 . S
O307 C304 1.252 . S
O308 In299 2.326 . S
O308 C304 1.260 . S
C309 O300 1.240 . S
C309 O301 1.252 . S
O310 In299 2.294 . S
O310 C303 1.240 . S
O311 In299 2.326 . S
O311 C303 1.252 . S
In312 O313 2.294 . S
In312 O314 2.326 . S
In312 O318 2.266 . S
In312 O319 2.326 . S
In312 O320 2.266 . S
In312 O321 2.326 . S
In312 O323 2.294 . S
In312 O324 2.326 . S
O313 In312 2.294 . S
O313 C322 1.240 . S
O314 In312 2.326 . S
O314 C322 1.252 . S
C315 O318 1.252 . S
C315 O319 1.260 . S
C316 O323 1.240 . S
C316 O324 1.252 . S
C317 O320 1.252 . S
C317 O321 1.260 . S
O318 In312 2.266 . S
O318 C315 1.252 . S
O319 In312 2.326 . S
O319 C315 1.260 . S
O320 In312 2.266 . S
O320 C317 1.252 . S
O321 In312 2.326 . S
O321 C317 1.260 . S
C322 O313 1.240 . S
C322 O314 1.252 . S
O323 In312 2.294 . S
O323 C316 1.240 . S
O324 In312 2.326 . S
O324 C316 1.252 . S
In325 O326 2.294 . S
In325 O327 2.326 . S
In325 O331 2.266 . S
In325 O332 2.326 . S
In325 O333 2.266 . S
In325 O334 2.326 . S
In325 O336 2.294 . S
In325 O337 2.326 . S
O326 In325 2.294 . S
O326 C335 1.240 . S
O327 In325 2.326 . S
O327 C335 1.252 . S
C328 O331 1.252 . S
C328 O332 1.260 . S
C329 O336 1.240 . S
C329 O337 1.252 . S
C330 O333 1.252 . S
C330 O334 1.260 . S
O331 In325 2.266 . S
O331 C328 1.252 . S
O332 In325 2.326 . S
O332 C328 1.260 . S
O333 In325 2.266 . S
O333 C330 1.252 . S
O334 In325 2.326 . S
O334 C330 1.260 . S
C335 O326 1.240 . S
C335 O327 1.252 . S
O336 In325 2.294 . S
O336 C329 1.240 . S
O337 In325 2.326 . S
O337 C329 1.252 . S
In338 O339 2.294 . S
In338 O340 2.326 . S
In338 O344 2.266 . S
In338 O345 2.326 1_556 S
In338 O346 2.266 . S
In338 O347 2.326 . S
In338 O349 2.294 . S
In338 O350 2.326 . S
O339 In338 2.294 . S
O339 C348 1.240 . S
O340 In338 2.326 . S
O340 C348 1.252 . S
C341 O344 1.252 1_554 S
C341 O345 1.260 . S
C342 O349 1.240 . S
C342 O350 1.252 . S
C343 O346 1.252 . S
C343 O347 1.260 . S
O344 In338 2.266 . S
O344 C341 1.252 1_556 S
O345 In338 2.326 1_554 S
O345 C341 1.260 . S
O346 In338 2.266 . S
O346 C343 1.252 . S
O347 In338 2.326 . S
O347 C343 1.260 . S
C348 O339 1.240 . S
C348 O340 1.252 . S
O349 In338 2.294 . S
O349 C342 1.240 . S
O350 In338 2.326 . S
O350 C342 1.252 . S
In351 O352 2.294 . S
In351 O353 2.326 . S
In351 O357 2.266 . S
In351 O358 2.326 . S
In351 O359 2.266 . S
In351 O360 2.326 . S
In351 O362 2.294 . S
In351 O363 2.326 . S
O352 In351 2.294 . S
O352 C361 1.240 . S
O353 In351 2.326 . S
O353 C361 1.252 . S
C354 O357 1.252 . S
C354 O358 1.260 . S
C355 O362 1.240 . S
C355 O363 1.252 . S
C356 O359 1.252 . S
C356 O360 1.260 . S
O357 In351 2.266 . S
O357 C354 1.252 . S
O358 In351 2.326 . S
O358 C354 1.260 . S
O359 In351 2.266 . S
O359 C356 1.252 . S
O360 In351 2.326 . S
O360 C356 1.260 . S
C361 O352 1.240 . S
C361 O353 1.252 . S
O362 In351 2.294 . S
O362 C355 1.240 . S
O363 In351 2.326 . S
O363 C355 1.252 . S
In364 O365 2.294 . S
In364 O366 2.326 . S
In364 O370 2.266 . S
In364 O371 2.326 . S
In364 O372 2.266 . S
In364 O373 2.326 1_554 S
In364 O375 2.294 . S
In364 O376 2.326 . S
O365 In364 2.294 . S
O365 C374 1.240 . S
O366 In364 2.326 . S
O366 C374 1.252 . S
C367 O370 1.252 . S
C367 O371 1.260 . S
C368 O375 1.240 . S
C368 O376 1.252 . S
C369 O372 1.252 1_556 S
C369 O373 1.260 . S
O370 In364 2.266 . S
O370 C367 1.252 . S
O371 In364 2.326 . S
O371 C367 1.260 . S
O372 In364 2.266 . S
O372 C369 1.252 1_554 S
O373 In364 2.326 1_556 S
O373 C369 1.260 . S
C374 O365 1.240 . S
C374 O366 1.252 . S
O375 In364 2.294 . S
O375 C368 1.240 . S
O376 In364 2.326 . S
O376 C368 1.252 . S
In377 O378 2.294 . S
In377 O379 2.326 . S
In377 O383 2.266 . S
In377 O384 2.326 . S
In377 O385 2.266 . S
In377 O386 2.326 . S
In377 O388 2.294 . S
In377 O389 2.326 . S
O378 In377 2.294 . S
O378 C387 1.240 . S
O379 In377 2.326 . S
O379 C387 1.252 . S
C380 O383 1.252 . S
C380 O384 1.260 . S
C381 O388 1.240 . S
C381 O389 1.252 . S
C382 O385 1.252 . S
C382 O386 1.260 . S
O383 In377 2.266 . S
O383 C380 1.252 . S
O384 In377 2.326 . S
O384 C380 1.260 . S
O385 In377 2.266 . S
O385 C382 1.252 . S
O386 In377 2.326 . S
O386 C382 1.260 . S
C387 O378 1.240 . S
C387 O379 1.252 . S
O388 In377 2.294 . S
O388 C381 1.240 . S
O389 In377 2.326 . S
O389 C381 1.252 . S
In390 O391 2.294 . S
In390 O392 2.326 . S
In390 O396 2.266 . S
In390 O397 2.326 . S
In390 O398 2.266 . S
In390 O399 2.326 . S
In390 O401 2.294 . S
In390 O402 2.326 . S
O391 In390 2.294 . S
O391 C400 1.240 . S
O392 In390 2.326 . S
O392 C400 1.252 . S
C393 O396 1.252 . S
C393 O397 1.260 . S
C394 O401 1.240 . S
C394 O402 1.252 . S
C395 O398 1.252 . S
C395 O399 1.260 . S
O396 In390 2.266 . S
O396 C393 1.252 . S
O397 In390 2.326 . S
O397 C393 1.260 . S
O398 In390 2.266 . S
O398 C395 1.252 . S
O399 In390 2.326 . S
O399 C395 1.260 . S
C400 O391 1.240 . S
C400 O392 1.252 . S
O401 In390 2.294 . S
O401 C394 1.240 . S
O402 In390 2.326 . S
O402 C394 1.252 . S
In403 O404 2.294 . S
In403 O405 2.326 . S
In403 O409 2.266 . S
In403 O410 2.326 . S
In403 O411 2.266 . S
In403 O412 2.326 . S
In403 O414 2.294 . S
In403 O415 2.326 . S
O404 In403 2.294 . S
O404 C413 1.240 . S
O405 In403 2.326 . S
O405 C413 1.252 . S
C406 O409 1.252 . S
C406 O410 1.260 . S
C407 O414 1.240 . S
C407 O415 1.252 . S
C408 O411 1.252 . S
C408 O412 1.260 . S
O409 In403 2.266 . S
O409 C406 1.252 . S
O410 In403 2.326 . S
O410 C406 1.260 . S
O411 In403 2.266 . S
O411 C408 1.252 . S
O412 In403 2.326 . S
O412 C408 1.260 . S
C413 O404 1.240 . S
C413 O405 1.252 . S
O414 In403 2.294 . S
O414 C407 1.240 . S
O415 In403 2.326 . S
O415 C407 1.252 . S
H416 C422 0.930 . S
H417 C425 0.930 . S
H418 C426 0.930 . S
H419 C427 0.930 . S
H420 C430 0.930 . S
H421 C431 0.930 . S
C422 H416 0.930 . S
C422 C423 1.355 1_554 S
C422 C424 1.415 . S
C423 C422 1.355 1_556 S
C423 C425 1.419 . S
C424 C422 1.415 . S
C424 C429 1.425 1_554 S
C424 C431 1.409 . S
C425 H417 0.930 . S
C425 C423 1.419 . S
C425 C426 1.362 . S
C426 H418 0.930 . S
C426 C425 1.362 . S
C426 C429 1.409 . S
C427 H419 0.930 . S
C427 C428 1.355 1_556 S
C427 C429 1.415 . S
C428 C427 1.355 1_554 S
C428 C430 1.419 . S
C429 C424 1.425 1_556 S
C429 C426 1.409 . S
C429 C427 1.415 . S
C430 H420 0.930 . S
C430 C428 1.419 . S
C430 C431 1.362 . S
C431 H421 0.930 . S
C431 C424 1.409 . S
C431 C430 1.362 . S
H432 C438 0.930 . S
H433 C441 0.930 . S
H434 C442 0.930 1_545 S
H435 C443 0.930 . S
H436 C446 0.930 . S
H437 C447 0.930 1_565 S
C438 H432 0.930 . S
C438 C439 1.355 . S
C438 C440 1.415 . S
C439 C438 1.355 . S
C439 C441 1.419 . S
C440 C438 1.415 . S
C440 C445 1.425 1_565 S
C440 C447 1.409 1_565 S
C441 H433 0.930 . S
C441 C439 1.419 . S
C441 C442 1.362 . S
C442 H434 0.930 1_565 S
C442 C441 1.362 . S
C442 C445 1.409 1_565 S
C443 H435 0.930 . S
C443 C444 1.355 . S
C443 C445 1.415 . S
C444 C443 1.355 . S
C444 C446 1.419 . S
C445 C440 1.425 1_545 S
C445 C442 1.409 1_545 S
C445 C443 1.415 . S
C446 H436 0.930 . S
C446 C444 1.419 . S
C446 C447 1.362 . S
C447 H437 0.930 1_545 S
C447 C440 1.409 1_545 S
C447 C446 1.362 . S
H448 C454 0.930 . S
H449 C457 0.930 . S
H450 C458 0.930 . S
H451 C459 0.930 . S
H452 C462 0.930 . S
H453 C463 0.930 . S
C454 H448 0.930 . S
C454 C455 1.355 . S
C454 C456 1.415 . S
C455 C454 1.355 . S
C455 C457 1.419 . S
C456 C454 1.415 . S
C456 C461 1.425 . S
C456 C463 1.409 . S
C457 H449 0.930 . S
C457 C455 1.419 . S
C457 C458 1.362 . S
C458 H450 0.930 . S
C458 C457 1.362 . S
C458 C461 1.409 . S
C459 H451 0.930 . S
C459 C460 1.355 . S
C459 C461 1.415 . S
C460 C459 1.355 . S
C460 C462 1.419 . S
C461 C456 1.425 . S
C461 C458 1.409 . S
C461 C459 1.415 . S
C462 H452 0.930 . S
C462 C460 1.419 . S
C462 C463 1.362 . S
C463 H453 0.930 . S
C463 C456 1.409 . S
C463 C462 1.362 . S
H464 C470 0.930 . S
H465 C473 0.930 . S
H466 C474 0.937 . S
H467 C475 0.930 . S
H468 C478 0.930 . S
H469 C479 0.937 . S
C470 H464 0.930 . S
C470 C471 1.355 . S
C470 C472 1.415 . S
C471 C470 1.355 . S
C471 C473 1.419 . S
C472 C470 1.415 . S
C472 C477 1.425 1_545 S
C472 C479 1.409 1_545 S
C473 H465 0.930 . S
C473 C471 1.419 . S
C473 C474 1.362 . S
C474 H466 0.937 . S
C474 C473 1.362 . S
C474 C477 1.409 1_545 S
C475 H467 0.930 . S
C475 C476 1.355 . S
C475 C477 1.415 . S
C476 C475 1.355 . S
C476 C478 1.419 . S
C477 C472 1.425 1_565 S
C477 C474 1.409 1_565 S
C477 C475 1.415 . S
C478 H468 0.930 . S
C478 C476 1.419 . S
C478 C479 1.362 . S
C479 H469 0.937 . S
C479 C472 1.409 1_565 S
C479 C478 1.362 . S
H480 C486 0.930 . S
H481 C489 0.930 . S
H482 C490 0.930 . S
H483 C491 0.930 . S
H484 C494 0.930 . S
H485 C495 0.930 . S
C486 H480 0.930 . S
C486 C487 1.355 . S
C486 C488 1.415 . S
C487 C486 1.355 . S
C487 C489 1.419 1_554 S
C488 C486 1.415 . S
C488 C493 1.425 1_554 S
C488 C495 1.409 . S
C489 H481 0.930 . S
C489 C487 1.419 1_556 S
C489 C490 1.362 . S
C490 H482 0.930 . S
C490 C489 1.362 . S
C490 C493 1.409 . S
C491 H483 0.930 . S
C491 C492 1.355 . S
C491 C493 1.415 . S
C492 C491 1.355 . S
C492 C494 1.419 1_556 S
C493 C488 1.425 1_556 S
C493 C490 1.409 . S
C493 C491 1.415 . S
C494 H484 0.930 . S
C494 C492 1.419 1_554 S
C494 C495 1.362 . S
C495 H485 0.930 . S
C495 C488 1.409 . S
C495 C494 1.362 . S
H496 C502 0.930 . S
H497 C505 0.912 1_655 S
H498 C506 0.930 1_655 S
H499 C507 0.930 . S
H500 C510 0.930 . S
H501 C511 0.930 . S
C502 H496 0.930 . S
C502 C503 1.355 . S
C502 C504 1.415 . S
C503 C502 1.355 . S
C503 C505 1.419 . S
C504 C502 1.415 . S
C504 C509 1.425 1_565 S
C504 C511 1.409 1_565 S
C505 H497 0.912 1_455 S
C505 C503 1.419 . S
C505 C506 1.362 . S
C506 H498 0.930 1_455 S
C506 C505 1.362 . S
C506 C509 1.409 1_565 S
C507 H499 0.930 . S
C507 C508 1.355 . S
C507 C509 1.415 . S
C508 C507 1.355 . S
C508 C510 1.419 . S
C509 C504 1.425 1_545 S
C509 C506 1.409 1_545 S
C509 C507 1.415 . S
C510 H500 0.930 . S
C510 C508 1.419 . S
C510 C511 1.362 . S
C511 H501 0.930 . S
C511 C504 1.409 1_545 S
C511 C510 1.362 . S
H512 C518 0.930 . S
H513 C521 0.930 . S
H514 C522 0.930 . S
H515 C523 0.930 . S
H516 C526 0.930 . S
H517 C527 0.930 . S
C518 H512 0.930 . S
C518 C519 1.355 . S
C518 C520 1.415 . S
C519 C518 1.355 . S
C519 C521 1.419 . S
C520 C518 1.415 . S
C520 C525 1.425 . S
C520 C527 1.409 . S
C521 H513 0.930 . S
C521 C519 1.419 . S
C521 C522 1.362 . S
C522 H514 0.930 . S
C522 C521 1.362 . S
C522 C525 1.409 . S
C523 H515 0.930 . S
C523 C524 1.355 . S
C523 C525 1.415 . S
C524 C523 1.355 . S
C524 C526 1.419 . S
C525 C520 1.425 . S
C525 C522 1.409 . S
C525 C523 1.415 . S
C526 H516 0.930 . S
C526 C524 1.419 . S
C526 C527 1.362 . S
C527 H517 0.930 . S
C527 C520 1.409 . S
C527 C526 1.362 . S
H528 C534 0.930 . S
H529 C537 0.930 . S
H530 C538 0.930 . S
H531 C539 0.930 . S
H532 C542 0.930 . S
H533 C543 0.930 . S
C534 H528 0.930 . S
C534 C535 1.355 . S
C534 C536 1.415 . S
C535 C534 1.355 . S
C535 C537 1.419 . S
C536 C534 1.415 . S
C536 C541 1.425 1_565 S
C536 C543 1.409 1_565 S
C537 H529 0.930 . S
C537 C535 1.419 . S
C537 C538 1.362 . S
C538 H530 0.930 . S
C538 C537 1.362 . S
C538 C541 1.409 1_565 S
C539 H531 0.930 . S
C539 C540 1.355 . S
C539 C541 1.415 . S
C540 C539 1.355 . S
C540 C542 1.419 . S
C541 C536 1.425 1_545 S
C541 C538 1.409 1_545 S
C541 C539 1.415 . S
C542 H532 0.930 . S
C542 C540 1.419 . S
C542 C543 1.362 . S
C543 H533 0.930 . S
C543 C536 1.409 1_545 S
C543 C542 1.362 . S
H544 C550 0.930 . S
H545 C553 0.930 . S
H546 C554 0.930 . S
H547 C555 0.930 . S
H548 C558 0.930 . S
H549 C559 0.930 . S
C550 H544 0.930 . S
C550 C551 1.355 . S
C550 C552 1.415 . S
C551 C550 1.355 . S
C551 C553 1.419 . S
C552 C550 1.415 . S
C552 C557 1.425 . S
C552 C559 1.409 . S
C553 H545 0.930 . S
C553 C551 1.419 . S
C553 C554 1.362 . S
C554 H546 0.930 . S
C554 C553 1.362 . S
C554 C557 1.409 . S
C555 H547 0.930 . S
C555 C556 1.355 . S
C555 C557 1.415 . S
C556 C555 1.355 . S
C556 C558 1.419 . S
C557 C552 1.425 . S
C557 C554 1.409 . S
C557 C555 1.415 . S
C558 H548 0.930 . S
C558 C556 1.419 . S
C558 C559 1.362 . S
C559 H549 0.930 . S
C559 C552 1.409 . S
C559 C558 1.362 . S
H560 C566 0.930 . S
H561 C569 0.930 . S
H562 C570 0.930 . S
H563 C571 0.930 . S
H564 C574 0.930 . S
H565 C575 0.930 . S
C566 H560 0.930 . S
C566 C567 1.355 . S
C566 C568 1.415 . S
C567 C566 1.355 . S
C567 C569 1.419 . S
C568 C566 1.415 . S
C568 C573 1.425 . S
C568 C575 1.409 . S
C569 H561 0.930 . S
C569 C567 1.419 . S
C569 C570 1.362 . S
C570 H562 0.930 . S
C570 C569 1.362 . S
C570 C573 1.409 . S
C571 H563 0.930 . S
C571 C572 1.355 . S
C571 C573 1.415 . S
C572 C571 1.355 . S
C572 C574 1.419 . S
C573 C568 1.425 . S
C573 C570 1.409 . S
C573 C571 1.415 . S
C574 H564 0.930 . S
C574 C572 1.419 . S
C574 C575 1.362 . S
C575 H565 0.930 . S
C575 C568 1.409 . S
C575 C574 1.362 . S
H576 C582 0.930 . S
H577 C585 0.930 . S
H578 C586 0.930 . S
H579 C587 0.930 . S
H580 C590 0.930 . S
H581 C591 0.930 . S
C582 H576 0.930 . S
C582 C583 1.355 . S
C582 C584 1.415 . S
C583 C582 1.355 . S
C583 C585 1.419 1_556 S
C584 C582 1.415 . S
C584 C589 1.425 1_556 S
C584 C591 1.409 . S
C585 H577 0.930 . S
C585 C583 1.419 1_554 S
C585 C586 1.362 . S
C586 H578 0.930 . S
C586 C585 1.362 . S
C586 C589 1.409 . S
C587 H579 0.930 . S
C587 C588 1.355 . S
C587 C589 1.415 . S
C588 C587 1.355 . S
C588 C590 1.419 1_554 S
C589 C584 1.425 1_554 S
C589 C586 1.409 . S
C589 C587 1.415 . S
C590 H580 0.930 . S
C590 C588 1.419 1_556 S
C590 C591 1.362 . S
C591 H581 0.930 . S
C591 C584 1.409 . S
C591 C590 1.362 . S
H592 C598 0.930 . S
H593 C601 0.930 . S
H594 C602 0.930 . S
H595 C603 0.930 . S
H596 C606 0.930 . S
H597 C607 0.930 . S
C598 H592 0.930 . S
C598 C599 1.355 . S
C598 C600 1.415 . S
C599 C598 1.355 . S
C599 C601 1.419 . S
C600 C598 1.415 . S
C600 C605 1.425 . S
C600 C607 1.409 . S
C601 H593 0.930 . S
C601 C599 1.419 . S
C601 C602 1.362 . S
C602 H594 0.930 . S
C602 C601 1.362 . S
C602 C605 1.409 . S
C603 H595 0.930 . S
C603 C604 1.355 . S
C603 C605 1.415 . S
C604 C603 1.355 . S
C604 C606 1.419 . S
C605 C600 1.425 . S
C605 C602 1.409 . S
C605 C603 1.415 . S
C606 H596 0.930 . S
C606 C604 1.419 . S
C606 C607 1.362 . S
C607 H597 0.930 . S
C607 C600 1.409 . S
C607 C606 1.362 . S
H608 C614 0.930 . S
H609 C617 0.930 . S
H610 C618 0.930 . S
H611 C619 0.930 . S
H612 C622 0.930 . S
H613 C623 0.930 . S
C614 H608 0.930 . S
C614 C615 1.355 . S
C614 C616 1.415 . S
C615 C614 1.355 . S
C615 C617 1.419 . S
C616 C614 1.415 . S
C616 C621 1.425 . S
C616 C623 1.409 . S
C617 H609 0.930 . S
C617 C615 1.419 . S
C617 C618 1.362 . S
C618 H610 0.930 . S
C618 C617 1.362 . S
C618 C621 1.409 . S
C619 H611 0.930 . S
C619 C620 1.355 . S
C619 C621 1.415 . S
C620 C619 1.355 . S
C620 C622 1.419 . S
C621 C616 1.425 . S
C621 C618 1.409 . S
C621 C619 1.415 . S
C622 H612 0.930 . S
C622 C620 1.419 . S
C622 C623 1.362 . S
C623 H613 0.930 . S
C623 C616 1.409 . S
C623 C622 1.362 . S
H624 C630 0.930 . S
H625 C633 0.930 . S
H626 C634 0.930 . S
H627 C635 0.930 . S
H628 C638 0.930 . S
H629 C639 0.930 . S
C630 H624 0.930 . S
C630 C631 1.355 . S
C630 C632 1.415 . S
C631 C630 1.355 . S
C631 C633 1.419 . S
C632 C630 1.415 . S
C632 C637 1.425 . S
C632 C639 1.409 . S
C633 H625 0.930 . S
C633 C631 1.419 . S
C633 C634 1.362 . S
C634 H626 0.930 . S
C634 C633 1.362 . S
C634 C637 1.409 . S
C635 H627 0.930 . S
C635 C636 1.355 . S
C635 C637 1.415 . S
C636 C635 1.355 . S
C636 C638 1.419 . S
C637 C632 1.425 . S
C637 C634 1.409 . S
C637 C635 1.415 . S
C638 H628 0.930 . S
C638 C636 1.419 . S
C638 C639 1.362 . S
C639 H629 0.930 . S
C639 C632 1.409 . S
C639 C638 1.362 . S
H640 C646 0.930 . S
H641 C649 0.930 . S
H642 C650 0.930 . S
H643 C651 0.930 . S
H644 C654 0.930 . S
H645 C655 0.930 . S
C646 H640 0.930 . S
C646 C647 1.355 . S
C646 C648 1.415 . S
C647 C646 1.355 . S
C647 C649 1.419 1_554 S
C648 C646 1.415 . S
C648 C653 1.425 1_554 S
C648 C655 1.409 . S
C649 H641 0.930 . S
C649 C647 1.419 1_556 S
C649 C650 1.362 . S
C650 H642 0.930 . S
C650 C649 1.362 . S
C650 C653 1.409 . S
C651 H643 0.930 . S
C651 C652 1.355 . S
C651 C653 1.415 . S
C652 C651 1.355 . S
C652 C654 1.419 1_556 S
C653 C648 1.425 1_556 S
C653 C650 1.409 . S
C653 C651 1.415 . S
C654 H644 0.930 . S
C654 C652 1.419 1_554 S
C654 C655 1.362 . S
C655 H645 0.930 . S
C655 C648 1.409 . S
C655 C654 1.362 . S
H656 C662 0.930 . S
H657 C665 0.930 . S
H658 C666 0.930 . S
H659 C667 0.930 . S
H660 C670 0.930 . S
H661 C671 0.930 . S
C662 H656 0.930 . S
C662 C663 1.355 . S
C662 C664 1.415 . S
C663 C662 1.355 . S
C663 C665 1.419 . S
C664 C662 1.415 . S
C664 C669 1.425 . S
C664 C671 1.409 . S
C665 H657 0.930 . S
C665 C663 1.419 . S
C665 C666 1.362 . S
C666 H658 0.930 . S
C666 C665 1.362 . S
C666 C669 1.409 . S
C667 H659 0.930 . S
C667 C668 1.355 . S
C667 C669 1.415 . S
C668 C667 1.355 . S
C668 C670 1.419 . S
C669 C664 1.425 . S
C669 C666 1.409 . S
C669 C667 1.415 . S
C670 H660 0.930 . S
C670 C668 1.419 . S
C670 C671 1.362 . S
C671 H661 0.930 . S
C671 C664 1.409 . S
C671 C670 1.362 . S
H672 C678 0.930 . S
H673 C681 0.930 . S
H674 C682 0.930 . S
H675 C683 0.930 . S
H676 C686 0.930 . S
H677 C687 0.930 . S
C678 H672 0.930 . S
C678 C679 1.355 . S
C678 C680 1.415 . S
C679 C678 1.355 . S
C679 C681 1.419 . S
C680 C678 1.415 . S
C680 C685 1.425 . S
C680 C687 1.409 . S
C681 H673 0.930 . S
C681 C679 1.419 . S
C681 C682 1.362 . S
C682 H674 0.930 . S
C682 C681 1.362 . S
C682 C685 1.409 . S
C683 H675 0.930 . S
C683 C684 1.355 . S
C683 C685 1.415 . S
C684 C683 1.355 . S
C684 C686 1.419 . S
C685 C680 1.425 . S
C685 C682 1.409 . S
C685 C683 1.415 . S
C686 H676 0.930 . S
C686 C684 1.419 . S
C686 C687 1.362 . S
C687 H677 0.930 . S
C687 C680 1.409 . S
C687 C686 1.362 . S
H688 C694 0.930 . S
H689 C697 0.930 . S
H690 C698 0.930 . S
H691 C699 0.930 . S
H692 C702 0.930 . S
H693 C703 0.930 . S
C694 H688 0.930 . S
C694 C695 1.355 1_655 S
C694 C696 1.415 1_556 S
C695 C694 1.355 1_455 S
C695 C697 1.419 . S
C696 C694 1.415 1_554 S
C696 C701 1.425 1_655 S
C696 C703 1.409 . S
C697 H689 0.930 . S
C697 C695 1.419 . S
C697 C698 1.362 1_556 S
C698 H690 0.930 . S
C698 C697 1.362 1_554 S
C698 C701 1.409 . S
C699 H691 0.930 . S
C699 C700 1.355 1_455 S
C699 C701 1.415 . S
C700 C699 1.355 1_655 S
C700 C702 1.419 . S
C701 C696 1.425 1_455 S
C701 C698 1.409 . S
C701 C699 1.415 . S
C702 H692 0.930 . S
C702 C700 1.419 . S
C702 C703 1.362 . S
C703 H693 0.930 . S
C703 C696 1.409 . S
C703 C702 1.362 . S
H704 C710 0.930 . S
H705 C713 0.930 . S
H706 C714 0.930 . S
H707 C715 0.930 . S
H708 C718 0.930 . S
H709 C719 0.930 . S
C710 H704 0.930 . S
C710 C711 1.355 . S
C710 C712 1.415 . S
C711 C710 1.355 . S
C711 C713 1.419 . S
C712 C710 1.415 . S
C712 C717 1.425 . S
C712 C719 1.409 . S
C713 H705 0.930 . S
C713 C711 1.419 . S
C713 C714 1.362 . S
C714 H706 0.930 . S
C714 C713 1.362 . S
C714 C717 1.409 . S
C715 H707 0.930 . S
C715 C716 1.355 . S
C715 C717 1.415 . S
C716 C715 1.355 . S
C716 C718 1.419 . S
C717 C712 1.425 . S
C717 C714 1.409 . S
C717 C715 1.415 . S
C718 H708 0.930 . S
C718 C716 1.419 . S
C718 C719 1.362 . S
C719 H709 0.930 . S
C719 C712 1.409 . S
C719 C718 1.362 . S
H720 C726 0.930 . S
H721 C729 0.930 . S
H722 C730 0.930 . S
H723 C731 0.930 . S
H724 C734 0.930 . S
H725 C735 0.930 . S
C726 H720 0.930 . S
C726 C727 1.355 . S
C726 C728 1.415 . S
C727 C726 1.355 . S
C727 C729 1.419 . S
C728 C726 1.415 . S
C728 C733 1.425 . S
C728 C735 1.409 . S
C729 H721 0.930 . S
C729 C727 1.419 . S
C729 C730 1.362 . S
C730 H722 0.930 . S
C730 C729 1.362 . S
C730 C733 1.409 . S
C731 H723 0.930 . S
C731 C732 1.355 . S
C731 C733 1.415 . S
C732 C731 1.355 . S
C732 C734 1.419 . S
C733 C728 1.425 . S
C733 C730 1.409 . S
C733 C731 1.415 . S
C734 H724 0.930 . S
C734 C732 1.419 . S
C734 C735 1.362 . S
C735 H725 0.930 . S
C735 C728 1.409 . S
C735 C734 1.362 . S
H736 C742 0.930 . S
H737 C745 0.930 . S
H738 C746 0.930 . S
H739 C747 0.930 . S
H740 C750 0.930 . S
H741 C751 0.930 . S
C742 H736 0.930 . S
C742 C743 1.355 . S
C742 C744 1.415 . S
C743 C742 1.355 . S
C743 C745 1.419 . S
C744 C742 1.415 . S
C744 C749 1.425 . S
C744 C751 1.409 . S
C745 H737 0.930 . S
C745 C743 1.419 . S
C745 C746 1.362 . S
C746 H738 0.930 . S
C746 C745 1.362 . S
C746 C749 1.409 . S
C747 H739 0.930 . S
C747 C748 1.355 . S
C747 C749 1.415 . S
C748 C747 1.355 . S
C748 C750 1.419 . S
C749 C744 1.425 . S
C749 C746 1.409 . S
C749 C747 1.415 . S
C750 H740 0.930 . S
C750 C748 1.419 . S
C750 C751 1.362 . S
C751 H741 0.930 . S
C751 C744 1.409 . S
C751 C750 1.362 . S
H752 C758 0.930 . S
H753 C761 0.930 . S
H754 C762 0.930 . S
H755 C763 0.930 . S
H756 C766 0.930 . S
H757 C767 0.930 . S
C758 H752 0.930 . S
C758 C759 1.355 1_556 S
C758 C760 1.415 . S
C759 C758 1.355 1_554 S
C759 C761 1.419 . S
C760 C758 1.415 . S
C760 C765 1.425 . S
C760 C767 1.409 . S
C761 H753 0.930 . S
C761 C759 1.419 . S
C761 C762 1.362 1_554 S
C762 H754 0.930 . S
C762 C761 1.362 1_556 S
C762 C765 1.409 . S
C763 H755 0.930 . S
C763 C764 1.355 . S
C763 C765 1.415 . S
C764 C763 1.355 . S
C764 C766 1.419 . S
C765 C760 1.425 . S
C765 C762 1.409 . S
C765 C763 1.415 . S
C766 H756 0.930 . S
C766 C764 1.419 . S
C766 C767 1.362 . S
C767 H757 0.930 . S
C767 C760 1.409 . S
C767 C766 1.362 . S
H768 C774 0.930 . S
H769 C777 0.930 . S
H770 C778 0.930 . S
H771 C779 0.930 . S
H772 C782 0.930 . S
H773 C783 0.930 . S
C774 H768 0.930 . S
C774 C775 1.355 . S
C774 C776 1.415 . S
C775 C774 1.355 . S
C775 C777 1.419 . S
C776 C774 1.415 . S
C776 C781 1.425 . S
C776 C783 1.409 . S
C777 H769 0.930 . S
C777 C775 1.419 . S
C777 C778 1.362 . S
C778 H770 0.930 . S
C778 C777 1.362 . S
C778 C781 1.409 . S
C779 H771 0.930 . S
C779 C780 1.355 . S
C779 C781 1.415 . S
C780 C779 1.355 . S
C780 C782 1.419 . S
C781 C776 1.425 . S
C781 C778 1.409 . S
C781 C779 1.415 . S
C782 H772 0.930 . S
C782 C780 1.419 . S
C782 C783 1.362 . S
C783 H773 0.930 . S
C783 C776 1.409 . S
C783 C782 1.362 . S
H784 C790 0.930 . S
H785 C793 0.930 . S
H786 C794 0.930 . S
H787 C795 0.930 . S
H788 C798 0.930 . S
H789 C799 0.930 . S
C790 H784 0.930 . S
C790 C791 1.355 . S
C790 C792 1.415 . S
C791 C790 1.355 . S
C791 C793 1.419 1_455 S
C792 C790 1.415 . S
C792 C797 1.425 1_455 S
C792 C799 1.409 . S
C793 H785 0.930 . S
C793 C791 1.419 1_655 S
C793 C794 1.362 . S
C794 H786 0.930 . S
C794 C793 1.362 . S
C794 C797 1.409 . S
C795 H787 0.930 . S
C795 C796 1.355 . S
C795 C797 1.415 . S
C796 C795 1.355 . S
C796 C798 1.419 1_655 S
C797 C792 1.425 1_655 S
C797 C794 1.409 . S
C797 C795 1.415 . S
C798 H788 0.930 . S
C798 C796 1.419 1_455 S
C798 C799 1.362 . S
C799 H789 0.930 . S
C799 C792 1.409 . S
C799 C798 1.362 . S
H800 C806 0.930 . S
H801 C809 0.930 . S
H802 C810 0.930 . S
H803 C811 0.930 . S
H804 C814 0.930 . S
H805 C815 0.930 . S
C806 H800 0.930 . S
C806 C807 1.355 . S
C806 C808 1.415 . S
C807 C806 1.355 . S
C807 C809 1.419 . S
C808 C806 1.415 . S
C808 C813 1.425 . S
C808 C815 1.409 . S
C809 H801 0.930 . S
C809 C807 1.419 . S
C809 C810 1.362 . S
C810 H802 0.930 . S
C810 C809 1.362 . S
C810 C813 1.409 . S
C811 H803 0.930 . S
C811 C812 1.355 . S
C811 C813 1.415 . S
C812 C811 1.355 . S
C812 C814 1.419 . S
C813 C808 1.425 . S
C813 C810 1.409 . S
C813 C811 1.415 . S
C814 H804 0.930 . S
C814 C812 1.419 . S
C814 C815 1.362 . S
C815 H805 0.930 . S
C815 C808 1.409 . S
C815 C814 1.362 . S
H816 C822 0.930 . S
H817 C825 0.930 . S
H818 C826 0.930 . S
H819 C827 0.930 . S
H820 C830 0.930 . S
H821 C831 0.930 . S
C822 H816 0.930 . S
C822 C823 1.355 1_455 S
C822 C824 1.415 1_554 S
C823 C822 1.355 1_655 S
C823 C825 1.419 . S
C824 C822 1.415 1_556 S
C824 C829 1.425 1_455 S
C824 C831 1.409 . S
C825 H817 0.930 . S
C825 C823 1.419 . S
C825 C826 1.362 1_554 S
C826 H818 0.930 . S
C826 C825 1.362 1_556 S
C826 C829 1.409 . S
C827 H819 0.930 . S
C827 C828 1.355 1_655 S
C827 C829 1.415 . S
C828 C827 1.355 1_455 S
C828 C830 1.419 . S
C829 C824 1.425 1_655 S
C829 C826 1.409 . S
C829 C827 1.415 . S
C830 H820 0.930 . S
C830 C828 1.419 . S
C830 C831 1.362 . S
C831 H821 0.930 . S
C831 C824 1.409 . S
C831 C830 1.362 . S
H832 C838 0.930 . S
H833 C841 0.930 . S
H834 C842 0.930 . S
H835 C843 0.930 . S
H836 C846 0.930 . S
H837 C847 0.930 . S
C838 H832 0.930 . S
C838 C839 1.355 . S
C838 C840 1.415 . S
C839 C838 1.355 . S
C839 C841 1.419 . S
C840 C838 1.415 . S
C840 C845 1.425 . S
C840 C847 1.409 . S
C841 H833 0.930 . S
C841 C839 1.419 . S
C841 C842 1.362 . S
C842 H834 0.930 . S
C842 C841 1.362 . S
C842 C845 1.409 . S
C843 H835 0.930 . S
C843 C844 1.355 . S
C843 C845 1.415 . S
C844 C843 1.355 . S
C844 C846 1.419 . S
C845 C840 1.425 . S
C845 C842 1.409 . S
C845 C843 1.415 . S
C846 H836 0.930 . S
C846 C844 1.419 . S
C846 C847 1.362 . S
C847 H837 0.930 . S
C847 C840 1.409 . S
C847 C846 1.362 . S
H848 C854 0.930 . S
H849 C857 0.930 . S
H850 C858 0.930 . S
H851 C859 0.930 . S
H852 C862 0.930 . S
H853 C863 0.930 . S
C854 H848 0.930 . S
C854 C855 1.355 . S
C854 C856 1.415 . S
C855 C854 1.355 . S
C855 C857 1.419 . S
C856 C854 1.415 . S
C856 C861 1.425 . S
C856 C863 1.409 . S
C857 H849 0.930 . S
C857 C855 1.419 . S
C857 C858 1.362 . S
C858 H850 0.930 . S
C858 C857 1.362 . S
C858 C861 1.409 . S
C859 H851 0.930 . S
C859 C860 1.355 . S
C859 C861 1.415 . S
C860 C859 1.355 . S
C860 C862 1.419 . S
C861 C856 1.425 . S
C861 C858 1.409 . S
C861 C859 1.415 . S
C862 H852 0.930 . S
C862 C860 1.419 . S
C862 C863 1.362 . S
C863 H853 0.930 . S
C863 C856 1.409 . S
C863 C862 1.362 . S
H864 C870 0.930 . S
H865 C873 0.930 . S
H866 C874 0.930 . S
H867 C875 0.930 . S
H868 C878 0.930 . S
H869 C879 0.930 . S
C870 H864 0.930 . S
C870 C871 1.355 . S
C870 C872 1.415 . S
C871 C870 1.355 . S
C871 C873 1.419 . S
C872 C870 1.415 . S
C872 C877 1.425 . S
C872 C879 1.409 . S
C873 H865 0.930 . S
C873 C871 1.419 . S
C873 C874 1.362 . S
C874 H866 0.930 . S
C874 C873 1.362 . S
C874 C877 1.409 . S
C875 H867 0.930 . S
C875 C876 1.355 . S
C875 C877 1.415 . S
C876 C875 1.355 . S
C876 C878 1.419 . S
C877 C872 1.425 . S
C877 C874 1.409 . S
C877 C875 1.415 . S
C878 H868 0.930 . S
C878 C876 1.419 . S
C878 C879 1.362 . S
C879 H869 0.930 . S
C879 C872 1.409 . S
C879 C878 1.362 . S
H880 C886 0.930 . S
H881 C889 0.930 . S
H882 C890 0.930 . S
H883 C891 0.930 1_556 S
H884 C894 0.930 . S
H885 C895 0.930 . S
C886 H880 0.930 . S
C886 C887 1.355 . S
C886 C888 1.415 . S
C887 C886 1.355 . S
C887 C889 1.419 . S
C888 C886 1.415 . S
C888 C893 1.425 . S
C888 C895 1.409 . S
C889 H881 0.930 . S
C889 C887 1.419 . S
C889 C890 1.362 . S
C890 H882 0.930 . S
C890 C889 1.362 . S
C890 C893 1.409 . S
C891 H883 0.930 1_554 S
C891 C892 1.355 1_554 S
C891 C893 1.415 . S
C892 C891 1.355 1_556 S
C892 C894 1.419 . S
C893 C888 1.425 . S
C893 C890 1.409 . S
C893 C891 1.415 . S
C894 H884 0.930 . S
C894 C892 1.419 . S
C894 C895 1.362 1_556 S
C895 H885 0.930 . S
C895 C888 1.409 . S
C895 C894 1.362 1_554 S
H896 C902 0.930 . S
H897 C905 0.930 . S
H898 C906 0.930 . S
H899 C907 0.930 . S
H900 C910 0.930 . S
H901 C911 0.930 . S
C902 H896 0.930 . S
C902 C903 1.355 . S
C902 C904 1.415 . S
C903 C902 1.355 . S
C903 C905 1.419 . S
C904 C902 1.415 . S
C904 C909 1.425 . S
C904 C911 1.409 . S
C905 H897 0.930 . S
C905 C903 1.419 . S
C905 C906 1.362 . S
C906 H898 0.930 . S
C906 C905 1.362 . S
C906 C909 1.409 . S
C907 H899 0.930 . S
C907 C908 1.355 . S
C907 C909 1.415 . S
C908 C907 1.355 . S
C908 C910 1.419 . S
C909 C904 1.425 . S
C909 C906 1.409 . S
C909 C907 1.415 . S
C910 H900 0.930 . S
C910 C908 1.419 . S
C910 C911 1.362 . S
C911 H901 0.930 . S
C911 C904 1.409 . S
C911 C910 1.362 . S
H912 C918 0.929 . S
H913 C921 0.930 . S
H914 C922 0.930 . S
H915 C923 0.932 . S
H916 C926 0.930 . S
H917 C927 0.930 . S
C918 H912 0.929 . S
C918 C919 1.355 . S
C918 C920 1.415 1_655 S
C919 C918 1.355 . S
C919 C921 1.419 . S
C920 C918 1.415 1_455 S
C920 C925 1.425 1_455 S
C920 C927 1.409 . S
C921 H913 0.930 . S
C921 C919 1.419 . S
C921 C922 1.362 . S
C922 H914 0.930 . S
C922 C921 1.362 . S
C922 C925 1.409 . S
C923 H915 0.932 . S
C923 C924 1.355 . S
C923 C925 1.415 1_455 S
C924 C923 1.355 . S
C924 C926 1.419 . S
C925 C920 1.425 1_655 S
C925 C922 1.409 . S
C925 C923 1.415 1_655 S
C926 H916 0.930 . S
C926 C924 1.419 . S
C926 C927 1.362 . S
C927 H917 0.930 . S
C927 C920 1.409 . S
C927 C926 1.362 . S
H928 C934 0.930 . S
H929 C937 0.930 . S
H930 C938 0.930 . S
H931 C939 0.930 . S
H932 C942 0.930 . S
H933 C943 0.930 . S
C934 H928 0.930 . S
C934 C935 1.355 . S
C934 C936 1.415 . S
C935 C934 1.355 . S
C935 C937 1.419 . S
C936 C934 1.415 . S
C936 C941 1.425 . S
C936 C943 1.409 . S
C937 H929 0.930 . S
C937 C935 1.419 . S
C937 C938 1.362 . S
C938 H930 0.930 . S
C938 C937 1.362 . S
C938 C941 1.409 . S
C939 H931 0.930 . S
C939 C940 1.355 . S
C939 C941 1.415 . S
C940 C939 1.355 . S
C940 C942 1.419 . S
C941 C936 1.425 . S
C941 C938 1.409 . S
C941 C939 1.415 . S
C942 H932 0.930 . S
C942 C940 1.419 . S
C942 C943 1.362 . S
C943 H933 0.930 . S
C943 C936 1.409 . S
C943 C942 1.362 . S
H944 C950 0.930 . S
H945 C953 0.930 . S
H946 C954 0.930 . S
H947 C955 0.930 . S
H948 C958 0.930 . S
H949 C959 0.930 . S
C950 H944 0.930 . S
C950 C951 1.355 . S
C950 C952 1.415 . S
C951 C950 1.355 . S
C951 C953 1.419 . S
C952 C950 1.415 . S
C952 C957 1.425 . S
C952 C959 1.409 . S
C953 H945 0.930 . S
C953 C951 1.419 . S
C953 C954 1.362 . S
C954 H946 0.930 . S
C954 C953 1.362 . S
C954 C957 1.409 . S
C955 H947 0.930 . S
C955 C956 1.355 . S
C955 C957 1.415 . S
C956 C955 1.355 . S
C956 C958 1.419 . S
C957 C952 1.425 . S
C957 C954 1.409 . S
C957 C955 1.415 . S
C958 H948 0.930 . S
C958 C956 1.419 . S
C958 C959 1.362 . S
C959 H949 0.930 . S
C959 C952 1.409 . S
C959 C958 1.362 . S
H960 C966 0.930 . S
H961 C969 0.930 . S
H962 C970 0.930 . S
H963 C971 0.930 . S
H964 C974 0.930 . S
H965 C975 0.930 . S
C966 H960 0.930 . S
C966 C967 1.355 . S
C966 C968 1.415 . S
C967 C966 1.355 . S
C967 C969 1.419 . S
C968 C966 1.415 . S
C968 C973 1.425 . S
C968 C975 1.409 . S
C969 H961 0.930 . S
C969 C967 1.419 . S
C969 C970 1.362 . S
C970 H962 0.930 . S
C970 C969 1.362 . S
C970 C973 1.409 . S
C971 H963 0.930 . S
C971 C972 1.355 . S
C971 C973 1.415 . S
C972 C971 1.355 . S
C972 C974 1.419 . S
C973 C968 1.425 . S
C973 C970 1.409 . S
C973 C971 1.415 . S
C974 H964 0.930 . S
C974 C972 1.419 . S
C974 C975 1.362 . S
C975 H965 0.930 . S
C975 C968 1.409 . S
C975 C974 1.362 . S
H976 C982 0.930 . S
H977 C985 0.930 . S
H978 C986 0.930 . S
H979 C987 0.930 . S
H980 C990 0.930 . S
H981 C991 0.930 . S
C982 H976 0.930 . S
C982 C983 1.355 1_655 S
C982 C984 1.415 . S
C983 C982 1.355 1_455 S
C983 C985 1.419 . S
C984 C982 1.415 . S
C984 C989 1.425 1_655 S
C984 C991 1.409 . S
C985 H977 0.930 . S
C985 C983 1.419 . S
C985 C986 1.362 . S
C986 H978 0.930 . S
C986 C985 1.362 . S
C986 C989 1.409 . S
C987 H979 0.930 . S
C987 C988 1.355 1_455 S
C987 C989 1.415 1_556 S
C988 C987 1.355 1_655 S
C988 C990 1.419 . S
C989 C984 1.425 1_455 S
C989 C986 1.409 . S
C989 C987 1.415 1_554 S
C990 H980 0.930 . S
C990 C988 1.419 . S
C990 C991 1.362 1_556 S
C991 H981 0.930 . S
C991 C984 1.409 . S
C991 C990 1.362 1_554 S
H992 C998 0.930 . S
H993 C1001 0.930 . S
H994 C1002 0.930 . S
H995 C1003 0.930 . S
H996 C1006 0.930 . S
H997 C1007 0.930 . S
C998 H992 0.930 . S
C998 C999 1.355 . S
C998 C1000 1.415 . S
C999 C998 1.355 . S
C999 C1001 1.419 . S
C1000 C998 1.415 . S
C1000 C1005 1.425 . S
C1000 C1007 1.409 . S
C1001 H993 0.930 . S
C1001 C999 1.419 . S
C1001 C1002 1.362 . S
C1002 H994 0.930 . S
C1002 C1001 1.362 . S
C1002 C1005 1.409 . S
C1003 H995 0.930 . S
C1003 C1004 1.355 . S
C1003 C1005 1.415 . S
C1004 C1003 1.355 . S
C1004 C1006 1.419 . S
C1005 C1000 1.425 . S
C1005 C1002 1.409 . S
C1005 C1003 1.415 . S
C1006 H996 0.930 . S
C1006 C1004 1.419 . S
C1006 C1007 1.362 . S
C1007 H997 0.930 . S
C1007 C1000 1.409 . S
C1007 C1006 1.362 . S
H1008 C1014 0.930 . S
H1009 C1017 0.930 . S
H1010 C1018 0.930 . S
H1011 C1019 0.930 . S
H1012 C1022 0.930 . S
H1013 C1023 0.930 . S
C1014 H1008 0.930 . S
C1014 C1015 1.355 1_455 S
C1014 C1016 1.415 . S
C1015 C1014 1.355 1_655 S
C1015 C1017 1.419 . S
C1016 C1014 1.415 . S
C1016 C1021 1.425 1_455 S
C1016 C1023 1.409 . S
C1017 H1009 0.930 . S
C1017 C1015 1.419 . S
C1017 C1018 1.362 . S
C1018 H1010 0.930 . S
C1018 C1017 1.362 . S
C1018 C1021 1.409 . S
C1019 H1011 0.930 . S
C1019 C1020 1.355 1_655 S
C1019 C1021 1.415 . S
C1020 C1019 1.355 1_455 S
C1020 C1022 1.419 . S
C1021 C1016 1.425 1_655 S
C1021 C1018 1.409 . S
C1021 C1019 1.415 . S
C1022 H1012 0.930 . S
C1022 C1020 1.419 . S
C1022 C1023 1.362 . S
C1023 H1013 0.930 . S
C1023 C1016 1.409 . S
C1023 C1022 1.362 . S
H1024 C1030 0.930 . S
H1025 C1033 0.930 . S
H1026 C1034 0.930 . S
H1027 C1035 0.930 . S
H1028 C1038 0.930 . S
H1029 C1039 0.930 . S
C1030 H1024 0.930 . S
C1030 C1031 1.355 . S
C1030 C1032 1.415 . S
C1031 C1030 1.355 . S
C1031 C1033 1.419 . S
C1032 C1030 1.415 . S
C1032 C1037 1.425 . S
C1032 C1039 1.409 . S
C1033 H1025 0.930 . S
C1033 C1031 1.419 . S
C1033 C1034 1.362 . S
C1034 H1026 0.930 . S
C1034 C1033 1.362 . S
C1034 C1037 1.409 . S
C1035 H1027 0.930 . S
C1035 C1036 1.355 . S
C1035 C1037 1.415 . S
C1036 C1035 1.355 . S
C1036 C1038 1.419 . S
C1037 C1032 1.425 . S
C1037 C1034 1.409 . S
C1037 C1035 1.415 . S
C1038 H1028 0.930 . S
C1038 C1036 1.419 . S
C1038 C1039 1.362 . S
C1039 H1029 0.930 . S
C1039 C1032 1.409 . S
C1039 C1038 1.362 . S
H1040 C1046 0.930 . S
H1041 C1049 0.930 . S
H1042 C1050 0.930 . S
H1043 C1051 0.930 . S
H1044 C1054 0.930 . S
H1045 C1055 0.930 . S
C1046 H1040 0.930 . S
C1046 C1047 1.355 1_556 S
C1046 C1048 1.415 . S
C1047 C1046 1.355 1_554 S
C1047 C1049 1.419 . S
C1048 C1046 1.415 . S
C1048 C1053 1.425 . S
C1048 C1055 1.409 . S
C1049 H1041 0.930 . S
C1049 C1047 1.419 . S
C1049 C1050 1.362 1_554 S
C1050 H1042 0.930 . S
C1050 C1049 1.362 1_556 S
C1050 C1053 1.409 . S
C1051 H1043 0.930 . S
C1051 C1052 1.355 . S
C1051 C1053 1.415 . S
C1052 C1051 1.355 . S
C1052 C1054 1.419 . S
C1053 C1048 1.425 . S
C1053 C1050 1.409 . S
C1053 C1051 1.415 . S
C1054 H1044 0.930 . S
C1054 C1052 1.419 . S
C1054 C1055 1.362 . S
C1055 H1045 0.930 . S
C1055 C1048 1.409 . S
C1055 C1054 1.362 . S
H1056 C1062 0.930 . S
H1057 C1065 0.930 . S
H1058 C1066 0.930 . S
H1059 C1067 0.930 . S
H1060 C1070 0.930 . S
H1061 C1071 0.930 . S
C1062 H1056 0.930 . S
C1062 C1063 1.355 . S
C1062 C1064 1.415 . S
C1063 C1062 1.355 . S
C1063 C1065 1.419 . S
C1064 C1062 1.415 . S
C1064 C1069 1.425 . S
C1064 C1071 1.409 . S
C1065 H1057 0.930 . S
C1065 C1063 1.419 . S
C1065 C1066 1.362 . S
C1066 H1058 0.930 . S
C1066 C1065 1.362 . S
C1066 C1069 1.409 . S
C1067 H1059 0.930 . S
C1067 C1068 1.355 . S
C1067 C1069 1.415 . S
C1068 C1067 1.355 . S
C1068 C1070 1.419 . S
C1069 C1064 1.425 . S
C1069 C1066 1.409 . S
C1069 C1067 1.415 . S
C1070 H1060 0.930 . S
C1070 C1068 1.419 . S
C1070 C1071 1.362 . S
C1071 H1061 0.930 . S
C1071 C1064 1.409 . S
C1071 C1070 1.362 . S
H1072 C1078 0.930 . S
H1073 C1081 0.930 . S
H1074 C1082 0.930 . S
H1075 C1083 0.930 . S
H1076 C1086 0.930 . S
H1077 C1087 0.930 . S
C1078 H1072 0.930 . S
C1078 C1079 1.355 . S
C1078 C1080 1.415 . S
C1079 C1078 1.355 . S
C1079 C1081 1.419 . S
C1080 C1078 1.415 . S
C1080 C1085 1.425 . S
C1080 C1087 1.409 . S
C1081 H1073 0.930 . S
C1081 C1079 1.419 . S
C1081 C1082 1.362 . S
C1082 H1074 0.930 . S
C1082 C1081 1.362 . S
C1082 C1085 1.409 . S
C1083 H1075 0.930 . S
C1083 C1084 1.355 . S
C1083 C1085 1.415 . S
C1084 C1083 1.355 . S
C1084 C1086 1.419 . S
C1085 C1080 1.425 . S
C1085 C1082 1.409 . S
C1085 C1083 1.415 . S
C1086 H1076 0.930 . S
C1086 C1084 1.419 . S
C1086 C1087 1.362 . S
C1087 H1077 0.930 . S
C1087 C1080 1.409 . S
C1087 C1086 1.362 . S
H1088 C1094 0.930 . S
H1089 C1097 0.930 . S
H1090 C1098 0.930 . S
H1091 C1099 0.930 . S
H1092 C1102 0.930 . S
H1093 C1103 0.930 . S
C1094 H1088 0.930 . S
C1094 C1095 1.355 . S
C1094 C1096 1.415 . S
C1095 C1094 1.355 . S
C1095 C1097 1.419 . S
C1096 C1094 1.415 . S
C1096 C1101 1.425 . S
C1096 C1103 1.409 . S
C1097 H1089 0.930 . S
C1097 C1095 1.419 . S
C1097 C1098 1.362 . S
C1098 H1090 0.930 . S
C1098 C1097 1.362 . S
C1098 C1101 1.409 . S
C1099 H1091 0.930 . S
C1099 C1100 1.355 . S
C1099 C1101 1.415 . S
C1100 C1099 1.355 . S
C1100 C1102 1.419 . S
C1101 C1096 1.425 . S
C1101 C1098 1.409 . S
C1101 C1099 1.415 . S
C1102 H1092 0.930 . S
C1102 C1100 1.419 . S
C1102 C1103 1.362 . S
C1103 H1093 0.930 . S
C1103 C1096 1.409 . S
C1103 C1102 1.362 . S
H1104 C1110 0.930 . S
H1105 C1113 0.930 . S
H1106 C1114 0.930 . S
H1107 C1115 0.930 1_554 S
H1108 C1118 0.930 . S
H1109 C1119 0.930 . S
C1110 H1104 0.930 . S
C1110 C1111 1.355 . S
C1110 C1112 1.415 . S
C1111 C1110 1.355 . S
C1111 C1113 1.419 . S
C1112 C1110 1.415 . S
C1112 C1117 1.425 1_655 S
C1112 C1119 1.409 . S
C1113 H1105 0.930 . S
C1113 C1111 1.419 . S
C1113 C1114 1.362 1_655 S
C1114 H1106 0.930 . S
C1114 C1113 1.362 1_455 S
C1114 C1117 1.409 . S
C1115 H1107 0.930 1_556 S
C1115 C1116 1.355 1_556 S
C1115 C1117 1.415 . S
C1116 C1115 1.355 1_554 S
C1116 C1118 1.419 . S
C1117 C1112 1.425 1_455 S
C1117 C1114 1.409 . S
C1117 C1115 1.415 . S
C1118 H1108 0.930 . S
C1118 C1116 1.419 . S
C1118 C1119 1.362 1_454 S
C1119 H1109 0.930 . S
C1119 C1112 1.409 . S
C1119 C1118 1.362 1_656 S
H1120 C1126 0.930 . S
H1121 C1129 0.930 . S
H1122 C1130 0.930 . S
H1123 C1131 0.930 . S
H1124 C1134 0.930 . S
H1125 C1135 0.930 . S
C1126 H1120 0.930 . S
C1126 C1127 1.355 . S
C1126 C1128 1.415 . S
C1127 C1126 1.355 . S
C1127 C1129 1.419 . S
C1128 C1126 1.415 . S
C1128 C1133 1.425 . S
C1128 C1135 1.409 . S
C1129 H1121 0.930 . S
C1129 C1127 1.419 . S
C1129 C1130 1.362 . S
C1130 H1122 0.930 . S
C1130 C1129 1.362 . S
C1130 C1133 1.409 . S
C1131 H1123 0.930 . S
C1131 C1132 1.355 . S
C1131 C1133 1.415 . S
C1132 C1131 1.355 . S
C1132 C1134 1.419 . S
C1133 C1128 1.425 . S
C1133 C1130 1.409 . S
C1133 C1131 1.415 . S
C1134 H1124 0.930 . S
C1134 C1132 1.419 . S
C1134 C1135 1.362 . S
C1135 H1125 0.930 . S
C1135 C1128 1.409 . S
C1135 C1134 1.362 . S
H1136 C1142 0.930 . S
H1137 C1145 0.930 . S
H1138 C1146 0.930 . S
H1139 C1147 0.930 . S
H1140 C1150 0.930 . S
H1141 C1151 0.930 . S
C1142 H1136 0.930 . S
C1142 C1143 1.355 . S
C1142 C1144 1.415 . S
C1143 C1142 1.355 . S
C1143 C1145 1.419 1_655 S
C1144 C1142 1.415 . S
C1144 C1149 1.425 1_655 S
C1144 C1151 1.409 . S
C1145 H1137 0.930 . S
C1145 C1143 1.419 1_455 S
C1145 C1146 1.362 . S
C1146 H1138 0.930 . S
C1146 C1145 1.362 . S
C1146 C1149 1.409 . S
C1147 H1139 0.930 . S
C1147 C1148 1.355 . S
C1147 C1149 1.415 . S
C1148 C1147 1.355 . S
C1148 C1150 1.419 1_455 S
C1149 C1144 1.425 1_455 S
C1149 C1146 1.409 . S
C1149 C1147 1.415 . S
C1150 H1140 0.930 . S
C1150 C1148 1.419 1_655 S
C1150 C1151 1.362 . S
C1151 H1141 0.930 . S
C1151 C1144 1.409 . S
C1151 C1150 1.362 . S
H1152 C1158 0.930 . S
H1153 C1161 0.930 . S
H1154 C1162 0.930 . S
H1155 C1163 0.930 . S
H1156 C1166 0.930 . S
H1157 C1167 0.930 . S
C1158 H1152 0.930 . S
C1158 C1159 1.355 . S
C1158 C1160 1.415 . S
C1159 C1158 1.355 . S
C1159 C1161 1.419 . S
C1160 C1158 1.415 . S
C1160 C1165 1.425 . S
C1160 C1167 1.409 . S
C1161 H1153 0.930 . S
C1161 C1159 1.419 . S
C1161 C1162 1.362 . S
C1162 H1154 0.930 . S
C1162 C1161 1.362 . S
C1162 C1165 1.409 . S
C1163 H1155 0.930 . S
C1163 C1164 1.355 . S
C1163 C1165 1.415 . S
C1164 C1163 1.355 . S
C1164 C1166 1.419 . S
C1165 C1160 1.425 . S
C1165 C1162 1.409 . S
C1165 C1163 1.415 . S
C1166 H1156 0.930 . S
C1166 C1164 1.419 . S
C1166 C1167 1.362 . S
C1167 H1157 0.930 . S
C1167 C1160 1.409 . S
C1167 C1166 1.362 . S
H1168 C1174 0.930 . S
H1169 C1177 0.930 . S
H1170 C1178 0.930 . S
H1171 C1179 0.930 . S
H1172 C1182 0.930 . S
H1173 C1183 0.930 . S
C1174 H1168 0.930 . S
C1174 C1175 1.355 . S
C1174 C1176 1.415 . S
C1175 C1174 1.355 . S
C1175 C1177 1.419 . S
C1176 C1174 1.415 . S
C1176 C1181 1.425 . S
C1176 C1183 1.409 . S
C1177 H1169 0.930 . S
C1177 C1175 1.419 . S
C1177 C1178 1.362 . S
C1178 H1170 0.930 . S
C1178 C1177 1.362 . S
C1178 C1181 1.409 . S
C1179 H1171 0.930 . S
C1179 C1180 1.355 . S
C1179 C1181 1.415 1_556 S
C1180 C1179 1.355 . S
C1180 C1182 1.419 . S
C1181 C1176 1.425 . S
C1181 C1178 1.409 . S
C1181 C1179 1.415 1_554 S
C1182 H1172 0.930 . S
C1182 C1180 1.419 . S
C1182 C1183 1.362 1_556 S
C1183 H1173 0.930 . S
C1183 C1176 1.409 . S
C1183 C1182 1.362 1_554 S
H1184 C1190 0.930 . S
H1185 C1193 0.930 . S
H1186 C1194 0.930 . S
H1187 C1195 0.930 . S
H1188 C1198 0.930 . S
H1189 C1199 0.930 . S
C1190 H1184 0.930 . S
C1190 C1191 1.355 . S
C1190 C1192 1.415 . S
C1191 C1190 1.355 . S
C1191 C1193 1.419 . S
C1192 C1190 1.415 . S
C1192 C1197 1.425 . S
C1192 C1199 1.409 . S
C1193 H1185 0.930 . S
C1193 C1191 1.419 . S
C1193 C1194 1.362 . S
C1194 H1186 0.930 . S
C1194 C1193 1.362 . S
C1194 C1197 1.409 . S
C1195 H1187 0.930 . S
C1195 C1196 1.355 . S
C1195 C1197 1.415 . S
C1196 C1195 1.355 . S
C1196 C1198 1.419 . S
C1197 C1192 1.425 . S
C1197 C1194 1.409 . S
C1197 C1195 1.415 . S
C1198 H1188 0.930 . S
C1198 C1196 1.419 . S
C1198 C1199 1.362 . S
C1199 H1189 0.930 . S
C1199 C1192 1.409 . S
C1199 C1198 1.362 . S
H1200 C1206 0.930 . S
H1201 C1209 0.930 . S
H1202 C1210 0.930 . S
H1203 C1211 0.930 . S
H1204 C1214 0.930 . S
H1205 C1215 0.930 . S
C1206 H1200 0.930 . S
C1206 C1207 1.355 . S
C1206 C1208 1.415 . S
C1207 C1206 1.355 . S
C1207 C1209 1.419 . S
C1208 C1206 1.415 . S
C1208 C1213 1.425 . S
C1208 C1215 1.409 . S
C1209 H1201 0.930 . S
C1209 C1207 1.419 . S
C1209 C1210 1.362 . S
C1210 H1202 0.930 . S
C1210 C1209 1.362 . S
C1210 C1213 1.409 . S
C1211 H1203 0.930 . S
C1211 C1212 1.355 . S
C1211 C1213 1.415 . S
C1212 C1211 1.355 . S
C1212 C1214 1.419 . S
C1213 C1208 1.425 . S
C1213 C1210 1.409 . S
C1213 C1211 1.415 . S
C1214 H1204 0.930 . S
C1214 C1212 1.419 . S
C1214 C1215 1.362 . S
C1215 H1205 0.930 . S
C1215 C1208 1.409 . S
C1215 C1214 1.362 . S
H1216 C1222 0.930 . S
H1217 C1225 0.930 . S
H1218 C1226 0.930 . S
H1219 C1227 0.930 . S
H1220 C1230 0.930 . S
H1221 C1231 0.930 . S
C1222 H1216 0.930 . S
C1222 C1223 1.355 . S
C1222 C1224 1.415 . S
C1223 C1222 1.355 . S
C1223 C1225 1.419 . S
C1224 C1222 1.415 . S
C1224 C1229 1.425 . S
C1224 C1231 1.409 . S
C1225 H1217 0.930 . S
C1225 C1223 1.419 . S
C1225 C1226 1.362 . S
C1226 H1218 0.930 . S
C1226 C1225 1.362 . S
C1226 C1229 1.409 . S
C1227 H1219 0.930 . S
C1227 C1228 1.355 . S
C1227 C1229 1.415 . S
C1228 C1227 1.355 . S
C1228 C1230 1.419 . S
C1229 C1224 1.425 . S
C1229 C1226 1.409 . S
C1229 C1227 1.415 . S
C1230 H1220 0.930 . S
C1230 C1228 1.419 . S
C1230 C1231 1.362 . S
C1231 H1221 0.930 . S
C1231 C1224 1.409 . S
C1231 C1230 1.362 . S
H1232 C1238 0.930 . S
H1233 C1241 0.930 . S
H1234 C1242 0.930 . S
H1235 C1243 0.930 . S
H1236 C1246 0.930 . S
H1237 C1247 0.930 . S
C1238 H1232 0.930 . S
C1238 C1239 1.355 . S
C1238 C1240 1.415 . S
C1239 C1238 1.355 . S
C1239 C1241 1.419 . S
C1240 C1238 1.415 . S
C1240 C1245 1.425 . S
C1240 C1247 1.409 . S
C1241 H1233 0.930 . S
C1241 C1239 1.419 . S
C1241 C1242 1.362 . S
C1242 H1234 0.930 . S
C1242 C1241 1.362 . S
C1242 C1245 1.409 . S
C1243 H1235 0.930 . S
C1243 C1244 1.355 . S
C1243 C1245 1.415 . S
C1244 C1243 1.355 . S
C1244 C1246 1.419 . S
C1245 C1240 1.425 . S
C1245 C1242 1.409 . S
C1245 C1243 1.415 . S
C1246 H1236 0.930 . S
C1246 C1244 1.419 . S
C1246 C1247 1.362 . S
C1247 H1237 0.930 . S
C1247 C1240 1.409 . S
C1247 C1246 1.362 . S
H1248 C1254 0.930 . S
H1249 C1257 0.930 . S
H1250 C1258 0.930 . S
H1251 C1259 0.930 . S
H1252 C1262 0.930 . S
H1253 C1263 0.930 . S
C1254 H1248 0.930 . S
C1254 C1255 1.355 . S
C1254 C1256 1.415 . S
C1255 C1254 1.355 . S
C1255 C1257 1.419 . S
C1256 C1254 1.415 . S
C1256 C1261 1.425 . S
C1256 C1263 1.409 . S
C1257 H1249 0.930 . S
C1257 C1255 1.419 . S
C1257 C1258 1.362 . S
C1258 H1250 0.930 . S
C1258 C1257 1.362 . S
C1258 C1261 1.409 . S
C1259 H1251 0.930 . S
C1259 C1260 1.355 . S
C1259 C1261 1.415 . S
C1260 C1259 1.355 . S
C1260 C1262 1.419 . S
C1261 C1256 1.425 . S
C1261 C1258 1.409 . S
C1261 C1259 1.415 . S
C1262 H1252 0.930 . S
C1262 C1260 1.419 . S
C1262 C1263 1.362 . S
C1263 H1253 0.930 . S
C1263 C1256 1.409 . S
C1263 C1262 1.362 . S
H1264 C1270 0.930 . S
H1265 C1273 0.930 . S
H1266 C1274 0.930 . S
H1267 C1275 0.930 . S
H1268 C1278 0.930 . S
H1269 C1279 0.930 . S
C1270 H1264 0.930 . S
C1270 C1271 1.355 . S
C1270 C1272 1.415 . S
C1271 C1270 1.355 . S
C1271 C1273 1.419 . S
C1272 C1270 1.415 . S
C1272 C1277 1.425 . S
C1272 C1279 1.409 . S
C1273 H1265 0.930 . S
C1273 C1271 1.419 . S
C1273 C1274 1.362 . S
C1274 H1266 0.930 . S
C1274 C1273 1.362 . S
C1274 C1277 1.409 . S
C1275 H1267 0.930 . S
C1275 C1276 1.355 . S
C1275 C1277 1.415 . S
C1276 C1275 1.355 . S
C1276 C1278 1.419 . S
C1277 C1272 1.425 . S
C1277 C1274 1.409 . S
C1277 C1275 1.415 . S
C1278 H1268 0.930 . S
C1278 C1276 1.419 . S
C1278 C1279 1.362 . S
C1279 H1269 0.930 . S
C1279 C1272 1.409 . S
C1279 C1278 1.362 . S
H1280 C1286 0.930 . S
H1281 C1289 0.930 . S
H1282 C1290 0.930 . S
H1283 C1291 0.930 . S
H1284 C1294 0.930 . S
H1285 C1295 0.930 . S
C1286 H1280 0.930 . S
C1286 C1287 1.355 . S
C1286 C1288 1.415 . S
C1287 C1286 1.355 . S
C1287 C1289 1.419 . S
C1288 C1286 1.415 . S
C1288 C1293 1.425 . S
C1288 C1295 1.409 . S
C1289 H1281 0.930 . S
C1289 C1287 1.419 . S
C1289 C1290 1.362 . S
C1290 H1282 0.930 . S
C1290 C1289 1.362 . S
C1290 C1293 1.409 . S
C1291 H1283 0.930 . S
C1291 C1292 1.355 . S
C1291 C1293 1.415 . S
C1292 C1291 1.355 . S
C1292 C1294 1.419 . S
C1293 C1288 1.425 . S
C1293 C1290 1.409 . S
C1293 C1291 1.415 . S
C1294 H1284 0.930 . S
C1294 C1292 1.419 . S
C1294 C1295 1.362 . S
C1295 H1285 0.930 . S
C1295 C1288 1.409 . S
C1295 C1294 1.362 . S
H1296 C1302 0.930 . S
H1297 C1305 0.930 . S
H1298 C1306 0.930 . S
H1299 C1307 0.930 . S
H1300 C1310 0.930 . S
H1301 C1311 0.930 . S
C1302 H1296 0.930 . S
C1302 C1303 1.355 . S
C1302 C1304 1.415 . S
C1303 C1302 1.355 . S
C1303 C1305 1.419 . S
C1304 C1302 1.415 . S
C1304 C1309 1.425 . S
C1304 C1311 1.409 . S
C1305 H1297 0.930 . S
C1305 C1303 1.419 . S
C1305 C1306 1.362 . S
C1306 H1298 0.930 . S
C1306 C1305 1.362 . S
C1306 C1309 1.409 . S
C1307 H1299 0.930 . S
C1307 C1308 1.355 . S
C1307 C1309 1.415 . S
C1308 C1307 1.355 . S
C1308 C1310 1.419 . S
C1309 C1304 1.425 . S
C1309 C1306 1.409 . S
C1309 C1307 1.415 . S
C1310 H1300 0.930 . S
C1310 C1308 1.419 . S
C1310 C1311 1.362 . S
C1311 H1301 0.930 . S
C1311 C1304 1.409 . S
C1311 C1310 1.362 . S
H1312 C1318 0.930 . S
H1313 C1321 0.930 . S
H1314 C1322 0.930 . S
H1315 C1323 0.930 . S
H1316 C1326 0.930 . S
H1317 C1327 0.930 . S
C1318 H1312 0.930 . S
C1318 C1319 1.355 . S
C1318 C1320 1.415 . S
C1319 C1318 1.355 . S
C1319 C1321 1.419 . S
C1320 C1318 1.415 . S
C1320 C1325 1.425 . S
C1320 C1327 1.409 . S
C1321 H1313 0.930 . S
C1321 C1319 1.419 . S
C1321 C1322 1.362 . S
C1322 H1314 0.930 . S
C1322 C1321 1.362 . S
C1322 C1325 1.409 . S
C1323 H1315 0.930 . S
C1323 C1324 1.355 . S
C1323 C1325 1.415 . S
C1324 C1323 1.355 . S
C1324 C1326 1.419 . S
C1325 C1320 1.425 . S
C1325 C1322 1.409 . S
C1325 C1323 1.415 . S
C1326 H1316 0.930 . S
C1326 C1324 1.419 . S
C1326 C1327 1.362 . S
C1327 H1317 0.930 . S
C1327 C1320 1.409 . S
C1327 C1326 1.362 . S
H1328 C1334 0.930 . S
H1329 C1337 0.930 . S
H1330 C1338 0.930 . S
H1331 C1339 0.930 . S
H1332 C1342 0.930 . S
H1333 C1343 0.930 . S
C1334 H1328 0.930 . S
C1334 C1335 1.355 . S
C1334 C1336 1.415 . S
C1335 C1334 1.355 . S
C1335 C1337 1.419 . S
C1336 C1334 1.415 . S
C1336 C1341 1.425 . S
C1336 C1343 1.409 . S
C1337 H1329 0.930 . S
C1337 C1335 1.419 . S
C1337 C1338 1.362 . S
C1338 H1330 0.930 . S
C1338 C1337 1.362 . S
C1338 C1341 1.409 . S
C1339 H1331 0.930 . S
C1339 C1340 1.355 . S
C1339 C1341 1.415 . S
C1340 C1339 1.355 . S
C1340 C1342 1.419 . S
C1341 C1336 1.425 . S
C1341 C1338 1.409 . S
C1341 C1339 1.415 . S
C1342 H1332 0.930 . S
C1342 C1340 1.419 . S
C1342 C1343 1.362 . S
C1343 H1333 0.930 . S
C1343 C1336 1.409 . S
C1343 C1342 1.362 . S
H1344 C1350 0.930 . S
H1345 C1353 0.930 . S
H1346 C1354 0.930 . S
H1347 C1355 0.930 . S
H1348 C1358 0.930 . S
H1349 C1359 0.930 . S
C1350 H1344 0.930 . S
C1350 C1351 1.355 . S
C1350 C1352 1.415 . S
C1351 C1350 1.355 . S
C1351 C1353 1.419 . S
C1352 C1350 1.415 . S
C1352 C1357 1.425 . S
C1352 C1359 1.409 . S
C1353 H1345 0.930 . S
C1353 C1351 1.419 . S
C1353 C1354 1.362 . S
C1354 H1346 0.930 . S
C1354 C1353 1.362 . S
C1354 C1357 1.409 . S
C1355 H1347 0.930 . S
C1355 C1356 1.355 . S
C1355 C1357 1.415 . S
C1356 C1355 1.355 . S
C1356 C1358 1.419 . S
C1357 C1352 1.425 . S
C1357 C1354 1.409 . S
C1357 C1355 1.415 . S
C1358 H1348 0.930 . S
C1358 C1356 1.419 . S
C1358 C1359 1.362 . S
C1359 H1349 0.930 . S
C1359 C1352 1.409 . S
C1359 C1358 1.362 . S
H1360 C1366 0.930 . S
H1361 C1369 0.930 . S
H1362 C1370 0.930 . S
H1363 C1371 0.930 . S
H1364 C1374 0.930 . S
H1365 C1375 0.930 . S
C1366 H1360 0.930 . S
C1366 C1367 1.355 . S
C1366 C1368 1.415 . S
C1367 C1366 1.355 . S
C1367 C1369 1.419 . S
C1368 C1366 1.415 . S
C1368 C1373 1.425 . S
C1368 C1375 1.409 . S
C1369 H1361 0.930 . S
C1369 C1367 1.419 . S
C1369 C1370 1.362 . S
C1370 H1362 0.930 . S
C1370 C1369 1.362 . S
C1370 C1373 1.409 . S
C1371 H1363 0.930 . S
C1371 C1372 1.355 . S
C1371 C1373 1.415 . S
C1372 C1371 1.355 . S
C1372 C1374 1.419 . S
C1373 C1368 1.425 . S
C1373 C1370 1.409 . S
C1373 C1371 1.415 . S
C1374 H1364 0.930 . S
C1374 C1372 1.419 . S
C1374 C1375 1.362 . S
C1375 H1365 0.930 . S
C1375 C1368 1.409 . S
C1375 C1374 1.362 . S
H1376 C1382 0.930 . S
H1377 C1385 0.930 . S
H1378 C1386 0.930 . S
H1379 C1387 0.930 . S
H1380 C1390 0.930 . S
H1381 C1391 0.930 . S
C1382 H1376 0.930 . S
C1382 C1383 1.355 . S
C1382 C1384 1.415 . S
C1383 C1382 1.355 . S
C1383 C1385 1.419 . S
C1384 C1382 1.415 . S
C1384 C1389 1.425 . S
C1384 C1391 1.409 . S
C1385 H1377 0.930 . S
C1385 C1383 1.419 . S
C1385 C1386 1.362 . S
C1386 H1378 0.930 . S
C1386 C1385 1.362 . S
C1386 C1389 1.409 . S
C1387 H1379 0.930 . S
C1387 C1388 1.355 . S
C1387 C1389 1.415 . S
C1388 C1387 1.355 . S
C1388 C1390 1.419 . S
C1389 C1384 1.425 . S
C1389 C1386 1.409 . S
C1389 C1387 1.415 . S
C1390 H1380 0.930 . S
C1390 C1388 1.419 . S
C1390 C1391 1.362 . S
C1391 H1381 0.930 . S
C1391 C1384 1.409 . S
C1391 C1390 1.362 . S
H1392 C1398 0.930 . S
H1393 C1401 0.930 . S
H1394 C1402 0.930 . S
H1395 C1403 0.930 . S
H1396 C1406 0.930 . S
H1397 C1407 0.930 . S
C1398 H1392 0.930 . S
C1398 C1399 1.355 . S
C1398 C1400 1.415 . S
C1399 C1398 1.355 . S
C1399 C1401 1.419 . S
C1400 C1398 1.415 . S
C1400 C1405 1.425 . S
C1400 C1407 1.409 . S
C1401 H1393 0.930 . S
C1401 C1399 1.419 . S
C1401 C1402 1.362 . S
C1402 H1394 0.930 . S
C1402 C1401 1.362 . S
C1402 C1405 1.409 . S
C1403 H1395 0.930 . S
C1403 C1404 1.355 . S
C1403 C1405 1.415 . S
C1404 C1403 1.355 . S
C1404 C1406 1.419 . S
C1405 C1400 1.425 . S
C1405 C1402 1.409 . S
C1405 C1403 1.415 . S
C1406 H1396 0.930 . S
C1406 C1404 1.419 . S
C1406 C1407 1.362 . S
C1407 H1397 0.930 . S
C1407 C1400 1.409 . S
C1407 C1406 1.362 . S
H1408 C1414 0.930 . S
H1409 C1417 0.930 . S
H1410 C1418 0.930 . S
H1411 C1419 0.930 . S
H1412 C1422 0.930 . S
H1413 C1423 0.930 . S
C1414 H1408 0.930 . S
C1414 C1415 1.355 . S
C1414 C1416 1.415 . S
C1415 C1414 1.355 . S
C1415 C1417 1.419 . S
C1416 C1414 1.415 . S
C1416 C1421 1.425 . S
C1416 C1423 1.409 . S
C1417 H1409 0.930 . S
C1417 C1415 1.419 . S
C1417 C1418 1.362 . S
C1418 H1410 0.930 . S
C1418 C1417 1.362 . S
C1418 C1421 1.409 . S
C1419 H1411 0.930 . S
C1419 C1420 1.355 . S
C1419 C1421 1.415 . S
C1420 C1419 1.355 . S
C1420 C1422 1.419 . S
C1421 C1416 1.425 . S
C1421 C1418 1.409 . S
C1421 C1419 1.415 . S
C1422 H1412 0.930 . S
C1422 C1420 1.419 . S
C1422 C1423 1.362 . S
C1423 H1413 0.930 . S
C1423 C1416 1.409 . S
C1423 C1422 1.362 . S
H1424 C1430 0.930 . S
H1425 C1433 0.930 . S
H1426 C1434 0.930 . S
H1427 C1435 0.930 . S
H1428 C1438 0.930 . S
H1429 C1439 0.930 . S
C1430 H1424 0.930 . S
C1430 C1431 1.355 . S
C1430 C1432 1.415 . S
C1431 C1430 1.355 . S
C1431 C1433 1.419 . S
C1432 C1430 1.415 . S
C1432 C1437 1.425 . S
C1432 C1439 1.409 . S
C1433 H1425 0.930 . S
C1433 C1431 1.419 . S
C1433 C1434 1.362 . S
C1434 H1426 0.930 . S
C1434 C1433 1.362 . S
C1434 C1437 1.409 . S
C1435 H1427 0.930 . S
C1435 C1436 1.355 . S
C1435 C1437 1.415 . S
C1436 C1435 1.355 . S
C1436 C1438 1.419 . S
C1437 C1432 1.425 . S
C1437 C1434 1.409 . S
C1437 C1435 1.415 . S
C1438 H1428 0.930 . S
C1438 C1436 1.419 . S
C1438 C1439 1.362 . S
C1439 H1429 0.930 . S
C1439 C1432 1.409 . S
C1439 C1438 1.362 . S
C423 C81 1.498 . S
C428 C5 1.504 . S
C439 C16 1.500 . S
C444 C96 1.503 . S
C455 C57 1.495 . S
C460 C29 1.494 . S
C471 C42 1.494 . S
C476 C70 1.504 . S
C487 C187 1.492 . S
C492 C107 1.498 . S
C503 C198 1.495 . S
C508 C122 1.504 . S
C519 C135 1.492 . S
C524 C161 1.500 . S
C535 C148 1.499 . S
C540 C172 1.492 . S
C551 C213 1.494 . S
C556 C291 1.504 . S
C567 C226 1.492 . S
C572 C304 1.498 . S
C583 C263 1.496 . S
C588 C239 1.493 . S
C599 C278 1.500 . S
C604 C252 1.492 . S
C615 C317 1.495 . S
C620 C395 1.494 . S
C631 C408 1.501 . S
C636 C330 1.502 . S
C647 C367 1.492 . S
C652 C343 1.499 . S
C663 C356 1.492 . S
C668 C380 1.501 . S
C679 C3 1.357 . S
C684 C400 1.365 . S
C695 C199 1.368 . S
C700 C18 1.378 . S
C711 C31 1.379 . S
C716 C368 1.385 . S
C727 C44 1.382 . S
C732 C173 1.371 . S
C743 C348 1.385 . S
C748 C55 1.375 . S
C759 C153 1.385 . S
C764 C68 1.369 . S
C775 C83 1.351 . S
C780 C322 1.368 . S
C791 C127 1.385 . S
C796 C94 1.380 . S
C807 C109 1.351 . S
C812 C296 1.368 . S
C823 C101 1.367 . S
C828 C120 1.352 . S
C839 C133 1.370 . S
C844 C264 1.385 . S
C855 C146 1.367 . S
C860 C75 1.364 . S
C871 C244 1.385 . S
C876 C159 1.376 . S
C887 C174 1.353 . S
C892 C43 1.377 . S
C903 C185 1.369 . S
C908 C218 1.365 . S
C919 C17 1.378 . S
C924 C200 1.354 . S
C935 C211 1.377 . S
C940 C192 1.368 . S
C951 C224 1.371 . S
C956 C413 1.366 . S
C967 C166 1.375 . S
C972 C237 1.351 . S
C983 C250 1.350 . S
C988 C381 1.372 . S
C999 C140 1.385 . S
C1004 C265 1.377 . S
C1015 C361 1.367 . S
C1020 C276 1.353 . S
C1031 C108 1.371 . S
C1036 C289 1.381 . S
C1047 C335 1.385 . S
C1052 C302 1.377 . S
C1063 C315 1.380 . S
C1068 C82 1.370 . S
C1079 C309 1.365 . S
C1084 C328 1.368 . S
C1095 C62 1.380 . S
C1100 C341 1.386 . S
C1111 C354 1.352 . S
C1116 C283 1.376 . S
C1127 C369 1.380 . S
C1132 C30 1.385 . S
C1143 C382 1.385 . S
C1148 C257 1.381 . S
C1159 C10 1.368 . S
C1164 C393 1.378 . S
C1175 C406 1.384 . S
C1180 C231 1.374 . S
C1191 C4 1.449 . S
C1196 C277 1.446 . S
C1207 C290 1.459 . S
C1212 C23 1.456 . S
C1223 C36 1.455 . S
C1228 C303 1.452 . S
C1239 C270 1.455 . S
C1244 C49 1.452 . S
C1255 C251 1.457 . S
C1260 C56 1.454 . S
C1271 C212 1.453 . S
C1276 C69 1.456 . S
C1287 C225 1.453 . S
C1292 C88 1.450 . S
C1303 C238 1.453 . S
C1308 C95 1.450 . S
C1319 C114 1.446 . S
C1324 C387 1.449 . S
C1335 C394 1.457 . S
C1340 C121 1.454 . S
C1351 C407 1.449 . S
C1356 C134 1.452 . S
C1367 C374 1.447 . S
C1372 C147 1.450 . S
C1383 C355 1.459 . S
C1388 C160 1.456 . S
C1399 C316 1.447 . S
C1404 C179 1.450 . S
C1415 C186 1.450 . S
C1420 C329 1.453 . S
C1431 C205 1.447 . S
C1436 C342 1.450 . S
