# Generated by pormake.
# Topology rob, (6)-cn, num edge types: 1
# Building blocks:
#     Node 0, Type 0, BuildingBlock: UKALOJ_clean_sbu_0, # of connection points: 6
#     Node 1, Type 0, BuildingBlock: UKALOJ_clean_sbu_0, # of connection points: 6
#     Node 2, Type 0, BuildingBlock: UKALOJ_clean_sbu_0, # of connection points: 6
#     Node 3, Type 0, BuildingBlock: UKALOJ_clean_sbu_0, # of connection points: 6
#     Edge 4, Type (0, 0), BuildingBlock: UVAHIK_clean_linker_0, # of connection points: 2
#     Edge 5, Type (0, 0), BuildingBlock: UVAHIK_clean_linker_0, # of connection points: 2
#     Edge 6, Type (0, 0), BuildingBlock: UVAHIK_clean_linker_0, # of connection points: 2
#     Edge 7, Type (0, 0), BuildingBlock: UVAHIK_clean_linker_0, # of connection points: 2
#     Edge 8, Type (0, 0), BuildingBlock: UVAHIK_clean_linker_0, # of connection points: 2
#     Edge 9, Type (0, 0), BuildingBlock: UVAHIK_clean_linker_0, # of connection points: 2
#     Edge 10, Type (0, 0), BuildingBlock: UVAHIK_clean_linker_0, # of connection points: 2
#     Edge 11, Type (0, 0), BuildingBlock: UVAHIK_clean_linker_0, # of connection points: 2
#     Edge 12, Type (0, 0), BuildingBlock: UVAHIK_clean_linker_0, # of connection points: 2
#     Edge 13, Type (0, 0), BuildingBlock: UVAHIK_clean_linker_0, # of connection points: 2
#     Edge 14, Type (0, 0), BuildingBlock: UVAHIK_clean_linker_0, # of connection points: 2
#     Edge 15, Type (0, 0), BuildingBlock: UVAHIK_clean_linker_0, # of connection points: 2
# Relax obj value: 0.168
# Max RMSD: 0.196
# Mean RMSD: 0.196
data_MOF--net-rob--node1-UKALOJ_clean_sbu_0--edge1-UVAHIK_clean_linker_0
_symmetry_space_group_name_H-M    P1
_symmetry_Int_Tables_number       1
_symmetry_cell_setting            triclinic
loop_
_symmetry_equiv_pos_as_xyz
'x, y, z'
_cell_length_a     18.811617
_cell_length_b     45.116229
_cell_length_c     31.738104
_cell_angle_alpha  101.96847
_cell_angle_beta   89.987887
_cell_angle_gamma 90.160995
loop_
_atom_site_label
_atom_site_type_symbol
_atom_site_fract_x
_atom_site_fract_y
_atom_site_fract_z
_atom_type_partial_charge
Zn0 Zn 0.27792 0.3015 -0.00687 0.0
O1 O 0.35011 0.28225 0.9443 0.0
C2 C 0.17162 0.30967 0.92885 0.0
Zn3 Zn 0.20559 0.2614 0.97745 0.0
C4 C 0.33536 0.2562 0.9218 0.0
O5 O 0.27829 0.243 0.92901 0.0
C6 C 0.14832 0.30617 0.04925 0.0
O7 O 0.26025 0.23958 0.02048 0.0
O8 O 0.33019 0.27931 0.03615 0.0
N9 N 0.14124 0.22448 0.95731 0.0
C10 C 0.11502 0.203 0.97699 0.0
C11 C 0.09018 0.18958 0.91022 0.0
N12 N 0.12497 0.21622 0.91593 0.0
N13 N 0.08291 0.1808 0.94804 0.0
C14 C 0.36741 0.36026 -0.00595 0.0
C15 C 0.39568 0.37263 0.06044 0.0
N16 N 0.34242 0.33839 0.01341 0.0
N17 N 0.36072 0.34601 0.05454 0.0
N18 N 0.40093 0.38203 0.02298 0.0
H19 H 0.34626 0.33858 0.92815 0.0
H20 H 0.39484 0.37362 0.9343 0.0
H21 H 0.30206 0.37437 0.94702 0.0
C22 C 0.35221 0.36169 0.94818 0.0
C23 C 0.12721 0.20237 0.02346 0.0
H24 H 0.17206 0.1869 0.02582 0.0
H25 H 0.07985 0.19372 0.03775 0.0
H26 H 0.13965 0.22529 0.04239 0.0
O27 O 0.13413 0.28031 0.0261 0.0
O28 O 0.20472 0.31993 0.04214 0.0
C29 C 0.31207 0.25326 0.04175 0.0
O30 O 0.22409 0.32308 0.94972 0.0
O31 O 0.15257 0.28379 0.93466 0.0
Zn32 Zn 0.78182 0.80074 -0.01177 0.0
O33 O 0.8314 0.78489 0.92809 0.0
C34 C 0.64555 0.80955 0.945 0.0
Zn35 Zn 0.71144 0.76009 0.9795 0.0
C36 C 0.80971 0.75991 0.90534 0.0
O37 O 0.76046 0.74536 0.9195 0.0
C38 C 0.68324 0.80057 0.06237 0.0
O39 O 0.78991 0.73761 0.00825 0.0
O40 O 0.85862 0.77781 0.01793 0.0
N41 N 0.64991 0.72185 0.9671 0.0
C42 C 0.63459 0.70044 -0.01022 0.0
C43 C 0.59298 0.68516 0.92648 0.0
N44 N 0.62342 0.71239 0.92794 0.0
N45 N 0.599 0.6772 0.96492 0.0
C46 C 0.85732 0.86088 0.97862 0.0
C47 C 0.9016 0.87532 0.04139 0.0
N48 N 0.84351 0.839 0.00075 0.0
N49 N 0.87167 0.84795 0.03957 0.0
N50 N 0.89357 0.88389 0.0035 0.0
H51 H 0.80736 0.83887 0.91874 0.0
H52 H 0.87292 0.86704 0.91392 0.0
H53 H 0.78805 0.87877 0.93678 0.0
C54 C 0.82966 0.86112 0.93442 0.0
C55 C 0.65929 0.701 0.03485 0.0
H56 H 0.68935 0.72186 0.04847 0.0
H57 H 0.69287 0.68085 0.03514 0.0
H58 H 0.61274 0.69975 0.05581 0.0
O59 O 0.66267 0.77554 0.03935 0.0
O60 O 0.73189 0.81567 0.04858 0.0
C61 C 0.84761 0.75076 0.02209 0.0
O62 O 0.70331 0.82301 0.95818 0.0
O63 O 0.63472 0.78283 0.95054 0.0
Zn64 Zn 0.21314 0.7782 0.48012 0.0
O65 O 0.29233 0.80017 0.45083 0.0
C66 C 0.18402 0.73655 0.39754 0.0
Zn67 Zn 0.28119 0.73703 0.472 0.0
C68 C 0.34959 0.78652 0.43753 0.0
O69 O 0.35883 0.75948 0.44209 0.0
C70 C 0.14463 0.72922 0.51526 0.0
O71 O 0.33018 0.75381 0.53226 0.0
O72 O 0.26154 0.79388 0.54019 0.0
N73 N 0.34286 0.69887 0.4611 0.0
C74 C 0.3517 0.67661 0.48314 0.0
C75 C 0.41029 0.66415 0.42472 0.0
N76 N 0.3796 0.69112 0.42491 0.0
N77 N 0.39319 0.6544 0.46078 0.0
C78 C 0.14203 0.83849 0.46903 0.0
C79 C 0.08262 0.85039 0.52725 0.0
N80 N 0.15138 0.81621 0.49098 0.0
N81 N 0.11418 0.82362 0.52704 0.0
N82 N 0.09956 0.86035 0.49133 0.0
H83 H 0.18093 0.8145 0.4073 0.0
H84 H 0.2226 0.85035 0.42806 0.0
H85 H 0.13431 0.84934 0.4062 0.0
C86 C 0.17133 0.83798 0.42498 0.0
C87 C 0.32259 0.67736 0.52727 0.0
H88 H 0.31289 0.70088 0.54474 0.0
H89 H 0.35975 0.66614 0.54615 0.0
H90 H 0.27151 0.66487 0.52424 0.0
O91 O 0.20178 0.71525 0.50242 0.0
O92 O 0.13565 0.75595 0.50943 0.0
C93 C 0.30995 0.77912 0.5546 0.0
O94 O 0.16486 0.76183 0.4203 0.0
O95 O 0.23193 0.72124 0.41145 0.0
Zn96 Zn 0.70605 0.27779 0.48958 0.0
O97 O 0.75806 0.29888 0.44448 0.0
C98 C 0.64739 0.23187 0.41918 0.0
Zn99 Zn 0.77956 0.23833 0.4727 0.0
C100 C 0.81096 0.28612 0.42337 0.0
O101 O 0.83147 0.26045 0.4291 0.0
C102 C 0.67506 0.23034 0.53914 0.0
O103 O 0.85183 0.25851 0.52131 0.0
O104 O 0.77995 0.29756 0.53649 0.0
N105 N 0.84447 0.2016 0.45352 0.0
C106 C 0.8667 0.17989 0.47385 0.0
C107 C 0.90291 0.16767 0.40896 0.0
N108 N 0.86749 0.19406 0.41327 0.0
N109 N 0.90284 0.15823 0.44651 0.0
C110 C 0.61642 0.33545 0.48782 0.0
C111 C 0.58672 0.34964 0.55368 0.0
N112 N 0.64139 0.31456 0.50881 0.0
N113 N 0.62232 0.32331 0.54969 0.0
N114 N 0.58256 0.35779 0.51529 0.0
H115 H 0.62893 0.30972 0.42283 0.0
H116 H 0.66941 0.34676 0.43393 0.0
H117 H 0.57485 0.34344 0.42807 0.0
C118 C 0.62256 0.33349 0.4403 0.0
C119 C 0.85579 0.18052 0.52077 0.0
H120 H 0.85302 0.20416 0.53938 0.0
H121 H 0.89959 0.16851 0.53358 0.0
H122 H 0.80519 0.16882 0.52494 0.0
O123 O 0.72626 0.21692 0.51708 0.0
O124 O 0.65584 0.25631 0.53404 0.0
C125 C 0.83732 0.28464 0.54354 0.0
O126 O 0.63304 0.25738 0.44309 0.0
O127 O 0.70595 0.21893 0.4239 0.0
C128 C 0.5401 0.64526 0.00903 0.0
C129 C 0.58203 0.648 0.9735 0.0
C130 C 0.52247 0.6166 0.01635 0.0
C131 C 0.57784 0.53653 -0.00937 0.0
H132 H 0.38225 0.52017 0.01707 0.0
C133 C 0.47473 0.41522 -0.01228 0.0
C134 C 0.42391 0.41162 0.0186 0.0
C135 C 0.49581 0.44423 -0.01651 0.0
C136 C 0.43735 0.52443 0.01034 0.0
H137 H 0.63815 0.62346 0.91767 0.0
H138 H 0.60766 0.57327 0.93031 0.0
H139 H 0.41609 0.57075 0.00849 0.0
H140 H 0.35779 0.43501 0.07062 0.0
H141 H 0.39562 0.48572 0.06423 0.0
H142 H 0.59936 0.49032 -0.00728 0.0
C143 C 0.58896 0.59314 0.95281 0.0
C144 C 0.45666 0.55344 0.00539 0.0
C145 C 0.60598 0.62174 0.94537 0.0
C146 C 0.39641 0.43738 0.04621 0.0
C147 C 0.41766 0.46634 0.04223 0.0
C148 C 0.55866 0.50756 -0.00413 0.0
C149 C 0.5468 0.59023 -0.01171 0.0
C150 C 0.527 0.55975 -0.00476 0.0
C151 C 0.46712 0.47017 0.01053 0.0
C152 C 0.48807 0.5011 0.00558 0.0
H153 H 0.51977 0.66523 0.03053 0.0
H154 H 0.48999 0.61505 0.04399 0.0
H155 H 0.63268 0.54085 -0.01669 0.0
H156 H 0.49836 0.39561 0.96708 0.0
H157 H 0.53385 0.4463 0.95864 0.0
C158 C 0.47977 0.61344 0.45967 0.0
C159 C 0.41171 0.62544 0.46987 0.0
C160 C 0.49704 0.58457 0.46599 0.0
C161 C 0.41417 0.51225 0.47844 0.0
H162 H 0.60196 0.49626 0.5187 0.0
C163 C 0.49379 0.39866 0.52433 0.0
C164 C 0.55959 0.38673 0.50843 0.0
C165 C 0.47347 0.42769 0.51994 0.0
C166 C 0.54945 0.50035 0.50714 0.0
H167 H 0.30712 0.61588 0.49245 0.0
H168 H 0.33787 0.56621 0.50551 0.0
H169 H 0.57126 0.54743 0.51159 0.0
H170 H 0.65713 0.39605 0.47736 0.0
H171 H 0.62157 0.44647 0.46901 0.0
H172 H 0.39245 0.46507 0.47444 0.0
C173 C 0.37814 0.57904 0.4926 0.0
C174 C 0.53188 0.52965 0.50296 0.0
C175 C 0.36088 0.60783 0.48603 0.0
C176 C 0.60514 0.40436 0.48854 0.0
C177 C 0.58524 0.43339 0.48446 0.0
C178 C 0.43163 0.48296 0.48293 0.0
C179 C 0.44636 0.56697 0.48248 0.0
C180 C 0.46421 0.53594 0.48823 0.0
C181 C 0.51939 0.44544 0.5003 0.0
C182 C 0.49967 0.47667 0.49695 0.0
H183 H 0.51948 0.62642 0.44654 0.0
H184 H 0.54967 0.57581 0.45705 0.0
H185 H 0.36192 0.51614 0.46637 0.0
H186 H 0.45845 0.3855 0.54028 0.0
H187 H 0.42269 0.43653 0.53282 0.0
C188 C 0.0095 0.14746 -0.01662 0.0
C189 C 0.06082 0.15117 0.95283 0.0
C190 C 0.98938 0.1184 -0.01203 0.0
C191 C 0.05122 0.03858 0.96279 0.0
H192 H 0.85562 0.02067 -0.01285 0.0
C193 C 0.95255 0.91683 0.96097 0.0
C194 C 0.90934 0.9134 -0.00437 0.0
C195 C 0.96941 0.94578 0.95448 0.0
C196 C 0.91055 0.0254 0.98061 0.0
H197 H 0.12903 0.12785 0.90185 0.0
H198 H 0.09292 0.0771 0.90884 0.0
H199 H 0.88765 0.07149 0.97835 0.0
H200 H 0.85014 0.93695 0.0508 0.0
H201 H 0.87923 0.98769 0.0396 0.0
H202 H 0.07388 0.99241 0.96473 0.0
C203 C 0.06967 0.09645 0.93031 0.0
C204 C 0.92898 0.05455 0.97572 0.0
C205 C 0.08993 0.12544 0.92598 0.0
C206 C 0.88326 0.93924 0.02374 0.0
C207 C 0.89953 0.96814 0.01712 0.0
C208 C 0.03268 1.00942 0.96739 0.0
C209 C 0.01964 0.09252 0.96165 0.0
C210 C -0.00038 0.06152 0.96682 0.0
C211 C 0.94306 0.97175 -0.01747 0.0
C212 C 0.96221 1.00253 0.97647 0.0
H213 H 0.98449 0.167 0.00337 0.0
H214 H 0.9508 0.11626 0.01249 0.0
H215 H 0.10637 0.04325 0.95676 0.0
H216 H 0.9744 0.89716 0.93953 0.0
H217 H 0.00292 0.94786 0.92748 0.0
C218 C 0.88107 0.11091 0.47161 0.0
C219 C 0.92633 0.12914 0.45259 0.0
C220 C 0.90207 0.08196 0.47545 0.0
C221 C 0.02684 0.0204 0.43006 0.0
H222 H 0.97569 0.99078 0.53235 0.0
C223 C 0.1298 0.90732 0.4665 0.0
C224 C 0.07981 0.88924 0.48248 0.0
C225 C 0.11173 0.93638 0.4613 0.0
C226 C 0.98974 0.99864 0.50341 0.0
H227 H 0.02806 0.13144 0.42181 0.0
H228 H 0.06611 0.08083 0.42925 0.0
H229 H 0.94547 0.04243 0.52758 0.0
H230 H 0.97234 0.88739 0.50602 0.0
H231 H 0.94049 0.93827 0.49709 0.0
H232 H 0.07187 0.97653 0.40623 0.0
C233 C 0.01409 0.08882 0.441 0.0
C234 C 0.97242 0.02823 0.50064 0.0
C235 C -0.00726 0.11779 0.43697 0.0
C236 C 0.01156 0.90083 0.49334 0.0
C237 C -0.00643 0.92994 0.48842 0.0
C238 C 0.04459 0.99081 0.43297 0.0
C239 C 0.96886 0.07052 0.46023 0.0
C240 C 0.9902 0.03942 0.46379 0.0
C241 C 0.04367 0.94811 0.47266 0.0
C242 C 0.02568 0.97956 0.46954 0.0
H243 H 0.82846 0.11868 0.48231 0.0
H244 H 0.8651 0.06825 0.48938 0.0
H245 H 0.04047 0.02812 0.40096 0.0
H246 H 0.18369 0.89958 0.45965 0.0
H247 H 0.15182 0.95007 0.44984 0.0
C248 C 0.52673 0.22714 0.38672 0.0
C249 C 0.59871 0.21896 0.3839 0.0
C250 C 0.48333 0.22035 0.35044 0.0
C251 C 0.43993 0.23457 0.26675 0.0
H252 H 0.455 0.16941 0.16598 0.0
C253 C 0.40122 0.25718 0.10048 0.0
C254 C 0.34716 0.24056 0.07557 0.0
C255 C 0.42733 0.24796 0.13666 0.0
C256 C 0.44981 0.18754 0.19412 0.0
H257 H 0.6804 0.19477 0.34245 0.0
H258 H 0.60538 0.18405 0.27838 0.0
H259 H 0.50165 0.16227 0.23558 0.0
H260 H 0.28212 0.19993 0.06708 0.0
H261 H 0.32854 0.18376 0.13088 0.0
H262 H 0.39055 0.26017 0.22542 0.0
C263 C 0.58189 0.19513 0.3087 0.0
C264 C 0.47655 0.18354 0.23374 0.0
C265 C 0.62505 0.20146 0.34531 0.0
C266 C 0.32329 0.21334 0.0859 0.0
C267 C 0.3499 0.204 0.1222 0.0
C268 C 0.41386 0.23856 0.2274 0.0
C269 C 0.51165 0.20591 0.31048 0.0
C270 C 0.47321 0.20733 0.27023 0.0
C271 C 0.40027 0.22189 0.14857 0.0
C272 C 0.4204 0.21547 0.19058 0.0
H273 H 0.50486 0.24014 0.41644 0.0
H274 H 0.42886 0.22824 0.35302 0.0
H275 H 0.43748 0.25358 0.29388 0.0
H276 H 0.42141 0.27805 0.09317 0.0
H277 H 0.46707 0.26184 0.1563 0.0
C278 C 0.58811 0.79957 0.11662 0.0
C279 C 0.65293 0.81138 0.10555 0.0
C280 C 0.56158 0.8082 0.15833 0.0
C281 C 0.62037 0.82873 0.26757 0.0
H282 H 0.41988 0.84409 0.29047 0.0
C283 C 0.39028 0.83025 0.40637 0.0
C284 C 0.40191 0.8009 0.4134 0.0
C285 C 0.4323 0.84165 0.37711 0.0
C286 C 0.47635 0.84058 0.28501 0.0
H287 H 0.74031 0.84187 0.129 0.0
H288 H 0.6944 0.85631 0.20263 0.0
H289 H 0.4679 0.84595 0.21976 0.0
H290 H 0.47133 0.76177 0.39882 0.0
H291 H 0.54435 0.78159 0.34774 0.0
H292 H 0.62781 0.82141 0.33202 0.0
C293 C 0.66402 0.84072 0.17872 0.0
C294 C 0.50359 0.8414 0.24444 0.0
C295 C 0.69003 0.83249 0.13669 0.0
C296 C 0.46045 0.78433 0.39373 0.0
C297 C 0.50273 0.7958 0.36471 0.0
C298 C 0.59295 0.82761 0.3081 0.0
C299 C 0.59985 0.82844 0.18988 0.0
C300 C 0.57512 0.83432 0.23492 0.0
C301 C 0.48713 0.82401 0.35478 0.0
C302 C 0.52012 0.83237 0.31658 0.0
H303 H 0.55837 0.78332 0.09323 0.0
H304 H 0.51241 0.79809 0.16636 0.0
H305 H 0.67574 0.82309 0.26086 0.0
H306 H 0.34672 0.84389 0.42186 0.0
H307 H 0.41981 0.86364 0.3704 0.0
C308 C 0.6188 0.84589 0.89751 0.0
C309 C 0.59612 0.82265 0.9178 0.0
C310 C 0.57973 0.85273 0.86335 0.0
C311 C 0.53122 0.83439 0.77068 0.0
H312 H 0.32692 0.82828 0.75477 0.0
C313 C 0.40151 0.77765 0.61121 0.0
C314 C 0.34161 0.79138 0.59719 0.0
C315 C 0.43075 0.78915 0.65172 0.0
C316 C 0.384 0.83049 0.7588 0.0
H317 H 0.51075 0.79096 0.92194 0.0
H318 H 0.44282 0.80283 0.86254 0.0
H319 H 0.37642 0.8387 0.82762 0.0
H320 H 0.26541 0.82797 0.61451 0.0
H321 H 0.31625 0.84776 0.68556 0.0
H322 H 0.53901 0.82486 0.70193 0.0
C323 C 0.49074 0.81572 0.87267 0.0
C324 C 0.41225 0.83634 0.80041 0.0
C325 C 0.52998 0.80873 0.90654 0.0
C326 C 0.31169 0.8169 0.6244 0.0
C327 C 0.34055 0.82821 0.66508 0.0
C328 C 0.50303 0.82834 0.72917 0.0
C329 C 0.51711 0.83663 0.84931 0.0
C330 C 0.48623 0.8374 0.80668 0.0
C331 C 0.40031 0.81444 0.67909 0.0
C332 C 0.42933 0.82536 0.72284 0.0
H333 H 0.66929 0.85718 0.90571 0.0
H334 H 0.6007 0.86925 0.84622 0.0
H335 H 0.58847 0.83472 0.77441 0.0
H336 H 0.4257 0.75796 0.59099 0.0
H337 H 0.47627 0.77783 0.66204 0.0
C338 C 0.67882 0.19821 0.59443 0.0
C339 C 0.64069 0.21711 0.57255 0.0
C340 C 0.64961 0.18979 0.63071 0.0
C341 C 0.59902 0.20466 0.72415 0.0
H342 H 0.39767 0.19055 0.73752 0.0
C343 C 0.44093 0.2572 0.87422 0.0
C344 C 0.38226 0.24161 0.88636 0.0
C345 C 0.48071 0.24441 0.83792 0.0
C346 C 0.45435 0.1938 0.73443 0.0
H347 H 0.54073 0.24026 0.56922 0.0
H348 H 0.48963 0.22553 0.63223 0.0
H349 H 0.44875 0.18291 0.6656 0.0
H350 H 0.3221 0.19954 0.87178 0.0
H351 H 0.3917 0.1773 0.80847 0.0
H352 H 0.60391 0.21699 0.79296 0.0
C353 C 0.54185 0.2171 0.62151 0.0
C354 C 0.4834 0.18961 0.69322 0.0
C355 C 0.57131 0.22579 0.58569 0.0
C356 C 0.3665 0.21231 0.86292 0.0
C357 C 0.40631 0.19953 0.82668 0.0
C358 C 0.56991 0.20892 0.7654 0.0
C359 C 0.58155 0.19984 0.64517 0.0
C360 C 0.55526 0.19633 0.68772 0.0
C361 C 0.46262 0.21577 0.81317 0.0
C362 C 0.49671 0.20481 0.77082 0.0
H363 H 0.73267 0.19146 0.58519 0.0
H364 H 0.6812 0.17647 0.64844 0.0
H365 H 0.65457 0.21013 0.72083 0.0
H366 H 0.4545 0.27976 0.89173 0.0
H367 H 0.52326 0.25766 0.82798 0.0
C368 C 0.88096 0.70763 0.05638 0.0
C369 C 0.8979 0.73584 0.04667 0.0
C370 C 0.92174 0.69609 0.08599 0.0
C371 C 0.08671 0.70771 0.15206 0.0
H372 H 0.96185 0.69348 0.24318 0.0
C373 C 0.08811 0.73803 0.34403 0.0
C374 C 0.15241 0.72569 0.35465 0.0
C375 C 0.06018 0.72945 0.30265 0.0
C376 C -0.00256 0.69692 0.21776 0.0
H377 H 0.97451 0.77268 0.05723 0.0
H378 H 0.04505 0.75273 0.10915 0.0
H379 H 0.91234 0.69529 0.17291 0.0
H380 H 0.23738 0.69427 0.33068 0.0
H381 H 0.18894 0.67979 0.25755 0.0
H382 H 0.1711 0.71127 0.19818 0.0
C383 C 0.00056 0.73943 0.09383 0.0
C384 C 0.9693 0.6977 0.1774 0.0
C385 C 0.95972 0.75102 0.06434 0.0
C386 C 0.18755 0.70407 0.32334 0.0
C387 C 0.16009 0.69583 0.28159 0.0
C388 C 0.11497 0.70672 0.19246 0.0
C389 C 0.9803 0.71247 0.10625 0.0
C390 C 0.01316 0.70439 0.14472 0.0
C391 C 0.09641 0.70865 0.27089 0.0
C392 C 0.06996 0.70264 0.22612 0.0
H393 H 0.8341 0.69519 0.04289 0.0
H394 H 0.90547 0.67506 0.0946 0.0
H395 H 0.12176 0.71263 0.12729 0.0
H396 H 0.0598 0.75468 0.36753 0.0
H397 H 0.01149 0.74 0.29504 0.0
C398 C 0.8176 0.32572 0.37861 0.0
C399 C 0.84732 0.30047 0.39152 0.0
C400 C 0.84925 0.33769 0.34599 0.0
C401 C 0.01439 0.33761 0.28311 0.0
H402 H 0.8882 0.34042 0.18736 0.0
C403 C 0.03899 0.30447 0.09312 0.0
C404 C 0.1032 0.31879 0.0866 0.0
C405 C 0.00194 0.31323 0.1317 0.0
C406 C 0.92391 0.34019 0.21407 0.0
H407 H 0.9355 0.26887 0.3818 0.0
H408 H 0.9906 0.28969 0.32489 0.0
H409 H 0.83846 0.33493 0.2564 0.0
H410 H 0.17624 0.35505 0.11392 0.0
H411 H 0.11157 0.37011 0.18166 0.0
H412 H 0.10002 0.34085 0.24009 0.0
C413 C 0.94298 0.30035 0.34013 0.0
C414 C 0.89551 0.33726 0.25362 0.0
C415 C 0.91101 0.28823 0.37244 0.0
C416 C 0.1271 0.34343 0.11815 0.0
C417 C 0.09025 0.35205 0.15693 0.0
C418 C 0.04275 0.3407 0.24367 0.0
C419 C 0.91168 0.32482 0.32605 0.0
C420 C 0.9407 0.33463 0.28788 0.0
C421 C 0.0286 0.33636 0.16457 0.0
C422 C -0.00212 0.34071 0.20828 0.0
H423 H 0.76883 0.33572 0.39273 0.0
H424 H 0.82425 0.35663 0.33578 0.0
H425 H 0.05025 0.33599 0.30924 0.0
H426 H 0.01898 0.28555 0.06927 0.0
H427 H 0.95495 0.3005 0.13684 0.0
C428 C 0.86738 0.32835 0.6031 0.0
C429 C 0.88415 0.29938 0.57905 0.0
C430 C 0.90615 0.34091 0.63994 0.0
C431 C 0.95122 0.34496 0.73247 0.0
H432 H 0.152 0.33114 0.7478 0.0
C433 C 0.06813 0.31261 0.88126 0.0
C434 C 0.13634 0.32263 0.89548 0.0
C435 C 0.03859 0.32108 0.84532 0.0
C436 C 0.09621 0.33587 0.74401 0.0
H437 H 0.95745 0.26172 0.57312 0.0
H438 H 0.0246 0.28349 0.63781 0.0
H439 H 0.10328 0.3248 0.67518 0.0
H440 H 0.22579 0.35059 0.88479 0.0
H441 H 0.17428 0.36507 0.82124 0.0
H442 H 0.9435 0.35449 0.80123 0.0
C443 C 0.98192 0.29662 0.62795 0.0
C444 C 0.06826 0.33193 0.70248 0.0
C445 C 0.9431 0.28402 0.59108 0.0
C446 C 0.17295 0.34266 0.8746 0.0
C447 C 0.14372 0.35083 0.83818 0.0
C448 C 0.9791 0.34876 0.77393 0.0
C449 C 0.96249 0.32479 0.65341 0.0
C450 C -0.00499 0.33524 0.69637 0.0
C451 C 0.07706 0.33946 0.82263 0.0
C452 C 0.05123 0.34301 0.78002 0.0
H453 H 0.82272 0.34094 0.59437 0.0
H454 H 0.89057 0.3628 0.65871 0.0
H455 H 0.89446 0.34753 0.72881 0.0
H456 H 0.03865 0.29727 0.89692 0.0
H457 H 0.98744 0.31168 0.83375 0.0
C458 C 0.02874 0.73164 0.55377 0.0
C459 C 0.0933 0.7166 0.54203 0.0
C460 C 0.98811 0.72479 0.58723 0.0
C461 C 0.90656 0.70437 0.65872 0.0
H462 H 0.03415 0.71241 0.75653 0.0
C463 C 0.80825 0.7229 0.83497 0.0
C464 C 0.84034 0.7478 0.86252 0.0
C465 C 0.83598 0.71168 0.79403 0.0
C466 C -0.00207 0.70988 0.72947 0.0
H467 H 0.16142 0.68017 0.55263 0.0
H468 H 0.09065 0.66835 0.61134 0.0
H469 H 0.08271 0.70253 0.68385 0.0
H470 H 0.92704 0.78022 0.86906 0.0
H471 H 0.97576 0.76047 0.79748 0.0
H472 H 0.82207 0.71339 0.70481 0.0
C473 C 0.07208 0.68568 0.59496 0.0
C474 C 0.02554 0.70382 0.68785 0.0
C475 C 0.11253 0.69241 0.56126 0.0
C476 C 0.90123 0.76101 0.84856 0.0
C477 C 0.92936 0.74958 0.80778 0.0
C478 C 0.87886 0.71021 0.70044 0.0
C479 C 0.01148 0.70286 0.60962 0.0
C480 C 0.98035 0.70207 0.65214 0.0
C481 C 0.89674 0.72493 0.7801 0.0
C482 C 0.92464 0.71408 0.73615 0.0
H483 H 0.01197 0.75014 0.53914 0.0
H484 H 0.94174 0.7385 0.59787 0.0
H485 H 0.87062 0.70302 0.63172 0.0
H486 H 0.76114 0.71224 0.8448 0.0
H487 H 0.81004 0.69262 0.77329 0.0
loop_
_geom_bond_atom_site_label_1
_geom_bond_atom_site_label_2
_geom_bond_distance
_geom_bond_site_symmetry_2
_ccdc_geom_bond_type
Zn0 O1 2.055 1_554 S
Zn0 O8 2.046 . S
Zn0 N16 2.036 . S
Zn0 O28 2.053 . S
Zn0 O30 2.066 1_554 S
O1 Zn0 2.055 1_556 S
O1 C4 1.259 . S
C2 O30 1.256 . S
C2 O31 1.244 . S
Zn3 O5 2.046 . S
Zn3 O7 2.055 1_556 S
Zn3 N9 2.036 . S
Zn3 O27 2.066 1_556 S
Zn3 O31 2.053 . S
C4 O1 1.259 . S
C4 O5 1.254 . S
O5 Zn3 2.046 . S
O5 C4 1.254 . S
C6 O27 1.256 . S
C6 O28 1.244 . S
O7 Zn3 2.055 1_554 S
O7 C29 1.259 . S
O8 Zn0 2.046 . S
O8 C29 1.254 . S
N9 Zn3 2.036 . S
N9 C10 1.298 1_556 S
N9 N12 1.398 . S
C10 N9 1.298 1_554 S
C10 N13 1.367 1_554 S
C10 C23 1.481 . S
C11 N12 1.299 . S
C11 N13 1.379 . S
N12 N9 1.398 . S
N12 C11 1.299 . S
N13 C10 1.367 1_556 S
N13 C11 1.379 . S
C14 N16 1.298 1_556 S
C14 N18 1.367 1_556 S
C14 C22 1.481 . S
C15 N17 1.299 . S
C15 N18 1.379 . S
N16 Zn0 2.036 . S
N16 C14 1.298 1_554 S
N16 N17 1.398 . S
N17 C15 1.299 . S
N17 N16 1.398 . S
N18 C14 1.367 1_554 S
N18 C15 1.379 . S
H19 C22 0.980 . S
H20 C22 0.981 . S
H21 C22 0.981 . S
C22 C14 1.481 . S
C22 H19 0.980 . S
C22 H20 0.981 . S
C22 H21 0.981 . S
C23 C10 1.481 . S
C23 H24 0.980 . S
C23 H25 0.981 . S
C23 H26 0.981 . S
H24 C23 0.980 . S
H25 C23 0.981 . S
H26 C23 0.981 . S
O27 Zn3 2.066 1_554 S
O27 C6 1.256 . S
O28 Zn0 2.053 . S
O28 C6 1.244 . S
C29 O7 1.259 . S
C29 O8 1.254 . S
O30 Zn0 2.066 1_556 S
O30 C2 1.256 . S
O31 C2 1.244 . S
O31 Zn3 2.053 . S
Zn32 O33 2.055 1_554 S
Zn32 O40 2.046 . S
Zn32 N48 2.036 . S
Zn32 O60 2.053 . S
Zn32 O62 2.066 1_554 S
O33 Zn32 2.055 1_556 S
O33 C36 1.259 . S
C34 O62 1.256 . S
C34 O63 1.244 . S
Zn35 O37 2.046 . S
Zn35 O39 2.055 1_556 S
Zn35 N41 2.036 . S
Zn35 O59 2.066 1_556 S
Zn35 O63 2.053 . S
C36 O33 1.259 . S
C36 O37 1.254 . S
O37 Zn35 2.046 . S
O37 C36 1.254 . S
C38 O59 1.256 . S
C38 O60 1.244 . S
O39 Zn35 2.055 1_554 S
O39 C61 1.259 . S
O40 Zn32 2.046 . S
O40 C61 1.254 . S
N41 Zn35 2.036 . S
N41 C42 1.298 1_556 S
N41 N44 1.398 . S
C42 N41 1.298 1_554 S
C42 N45 1.367 1_554 S
C42 C55 1.481 . S
C43 N44 1.299 . S
C43 N45 1.379 . S
N44 N41 1.398 . S
N44 C43 1.299 . S
N45 C42 1.367 1_556 S
N45 C43 1.379 . S
C46 N48 1.298 1_556 S
C46 N50 1.367 1_556 S
C46 C54 1.481 . S
C47 N49 1.299 . S
C47 N50 1.379 . S
N48 Zn32 2.036 . S
N48 C46 1.298 1_554 S
N48 N49 1.398 . S
N49 C47 1.299 . S
N49 N48 1.398 . S
N50 C46 1.367 1_554 S
N50 C47 1.379 . S
H51 C54 0.980 . S
H52 C54 0.981 . S
H53 C54 0.981 . S
C54 C46 1.481 . S
C54 H51 0.980 . S
C54 H52 0.981 . S
C54 H53 0.981 . S
C55 C42 1.481 . S
C55 H56 0.980 . S
C55 H57 0.981 . S
C55 H58 0.981 . S
H56 C55 0.980 . S
H57 C55 0.981 . S
H58 C55 0.981 . S
O59 Zn35 2.066 1_554 S
O59 C38 1.256 . S
O60 Zn32 2.053 . S
O60 C38 1.244 . S
C61 O39 1.259 . S
C61 O40 1.254 . S
O62 Zn32 2.066 1_556 S
O62 C34 1.256 . S
O63 C34 1.244 . S
O63 Zn35 2.053 . S
Zn64 O65 2.055 . S
Zn64 O72 2.046 . S
Zn64 N80 2.036 . S
Zn64 O92 2.053 . S
Zn64 O94 2.066 . S
O65 Zn64 2.055 . S
O65 C68 1.259 . S
C66 O94 1.256 . S
C66 O95 1.244 . S
Zn67 O69 2.046 . S
Zn67 O71 2.055 . S
Zn67 N73 2.036 . S
Zn67 O91 2.066 . S
Zn67 O95 2.053 . S
C68 O65 1.259 . S
C68 O69 1.254 . S
O69 Zn67 2.046 . S
O69 C68 1.254 . S
C70 O91 1.256 . S
C70 O92 1.244 . S
O71 Zn67 2.055 . S
O71 C93 1.259 . S
O72 Zn64 2.046 . S
O72 C93 1.254 . S
N73 Zn67 2.036 . S
N73 C74 1.298 . S
N73 N76 1.398 . S
C74 N73 1.298 . S
C74 N77 1.367 . S
C74 C87 1.481 . S
C75 N76 1.299 . S
C75 N77 1.379 . S
N76 N73 1.398 . S
N76 C75 1.299 . S
N77 C74 1.367 . S
N77 C75 1.379 . S
C78 N80 1.298 . S
C78 N82 1.367 . S
C78 C86 1.481 . S
C79 N81 1.299 . S
C79 N82 1.379 . S
N80 Zn64 2.036 . S
N80 C78 1.298 . S
N80 N81 1.398 . S
N81 C79 1.299 . S
N81 N80 1.398 . S
N82 C78 1.367 . S
N82 C79 1.379 . S
H83 C86 0.980 . S
H84 C86 0.981 . S
H85 C86 0.981 . S
C86 C78 1.481 . S
C86 H83 0.980 . S
C86 H84 0.981 . S
C86 H85 0.981 . S
C87 C74 1.481 . S
C87 H88 0.980 . S
C87 H89 0.981 . S
C87 H90 0.981 . S
H88 C87 0.980 . S
H89 C87 0.981 . S
H90 C87 0.981 . S
O91 Zn67 2.066 . S
O91 C70 1.256 . S
O92 Zn64 2.053 . S
O92 C70 1.244 . S
C93 O71 1.259 . S
C93 O72 1.254 . S
O94 Zn64 2.066 . S
O94 C66 1.256 . S
O95 C66 1.244 . S
O95 Zn67 2.053 . S
Zn96 O97 2.055 . S
Zn96 O104 2.046 . S
Zn96 N112 2.036 . S
Zn96 O124 2.053 . S
Zn96 O126 2.066 . S
O97 Zn96 2.055 . S
O97 C100 1.259 . S
C98 O126 1.256 . S
C98 O127 1.244 . S
Zn99 O101 2.046 . S
Zn99 O103 2.055 . S
Zn99 N105 2.036 . S
Zn99 O123 2.066 . S
Zn99 O127 2.053 . S
C100 O97 1.259 . S
C100 O101 1.254 . S
O101 Zn99 2.046 . S
O101 C100 1.254 . S
C102 O123 1.256 . S
C102 O124 1.244 . S
O103 Zn99 2.055 . S
O103 C125 1.259 . S
O104 Zn96 2.046 . S
O104 C125 1.254 . S
N105 Zn99 2.036 . S
N105 C106 1.298 . S
N105 N108 1.398 . S
C106 N105 1.298 . S
C106 N109 1.367 . S
C106 C119 1.481 . S
C107 N108 1.299 . S
C107 N109 1.379 . S
N108 N105 1.398 . S
N108 C107 1.299 . S
N109 C106 1.367 . S
N109 C107 1.379 . S
C110 N112 1.298 . S
C110 N114 1.367 . S
C110 C118 1.481 . S
C111 N113 1.299 . S
C111 N114 1.379 . S
N112 Zn96 2.036 . S
N112 C110 1.298 . S
N112 N113 1.398 . S
N113 C111 1.299 . S
N113 N112 1.398 . S
N114 C110 1.367 . S
N114 C111 1.379 . S
H115 C118 0.980 . S
H116 C118 0.981 . S
H117 C118 0.981 . S
C118 C110 1.481 . S
C118 H115 0.980 . S
C118 H116 0.981 . S
C118 H117 0.981 . S
C119 C106 1.481 . S
C119 H120 0.980 . S
C119 H121 0.981 . S
C119 H122 0.981 . S
H120 C119 0.980 . S
H121 C119 0.981 . S
H122 C119 0.981 . S
O123 Zn99 2.066 . S
O123 C102 1.256 . S
O124 Zn96 2.053 . S
O124 C102 1.244 . S
C125 O103 1.259 . S
C125 O104 1.254 . S
O126 Zn96 2.066 . S
O126 C98 1.256 . S
O127 C98 1.244 . S
O127 Zn99 2.053 . S
C128 C129 1.349 1_554 S
C128 C130 1.327 . S
C128 H153 0.950 . S
C129 C128 1.349 1_556 S
C129 C145 1.349 . S
C130 C128 1.327 . S
C130 C149 1.430 . S
C130 H154 0.950 . S
C131 C148 1.574 . S
C131 C150 1.364 1_556 S
C131 H155 0.949 . S
H132 C136 0.949 . S
C133 C134 1.331 1_556 S
C133 C135 1.327 . S
C133 H156 0.950 . S
C134 C133 1.331 1_554 S
C134 C146 1.364 . S
C135 C133 1.327 . S
C135 C151 1.419 1_556 S
C135 H157 0.950 . S
C136 H132 0.949 . S
C136 C144 1.574 . S
C136 C152 1.377 . S
H137 C145 0.950 . S
H138 C143 0.950 . S
H139 C144 0.949 . S
H140 C146 0.950 . S
H141 C147 0.950 . S
H142 C148 0.949 . S
C143 H138 0.950 . S
C143 C145 1.327 . S
C143 C149 1.427 1_556 S
C144 C136 1.574 . S
C144 H139 0.949 . S
C144 C150 1.373 . S
C145 C129 1.349 . S
C145 H137 0.950 . S
C145 C143 1.327 . S
C146 C134 1.364 . S
C146 H140 0.950 . S
C146 C147 1.327 . S
C147 H141 0.950 . S
C147 C146 1.327 . S
C147 C151 1.441 . S
C148 C131 1.574 . S
C148 H142 0.949 . S
C148 C152 1.358 1_556 S
C149 C130 1.430 . S
C149 C143 1.427 1_554 S
C149 C150 1.522 . S
C150 C131 1.364 1_554 S
C150 C144 1.373 . S
C150 C149 1.522 . S
C151 C135 1.419 1_554 S
C151 C147 1.441 . S
C151 C152 1.522 . S
C152 C136 1.377 . S
C152 C148 1.358 1_554 S
C152 C151 1.522 . S
H153 C128 0.950 . S
H154 C130 0.950 . S
H155 C131 0.949 . S
H156 C133 0.950 . S
H157 C135 0.950 . S
C158 C159 1.349 . S
C158 C160 1.327 . S
C158 H183 0.950 . S
C159 C158 1.349 . S
C159 C175 1.349 . S
C160 C158 1.327 . S
C160 C179 1.429 . S
C160 H184 0.950 . S
C161 C178 1.574 . S
C161 C180 1.368 . S
C161 H185 0.949 . S
H162 C166 0.949 . S
C163 C164 1.349 . S
C163 C165 1.327 . S
C163 H186 0.950 . S
C164 C163 1.349 . S
C164 C176 1.349 . S
C165 C163 1.327 . S
C165 C181 1.429 . S
C165 H187 0.950 . S
C166 H162 0.949 . S
C166 C174 1.574 . S
C166 C182 1.368 . S
H167 C175 0.950 . S
H168 C173 0.950 . S
H169 C174 0.949 . S
H170 C176 0.950 . S
H171 C177 0.950 . S
H172 C178 0.949 . S
C173 H168 0.950 . S
C173 C175 1.327 . S
C173 C179 1.429 . S
C174 C166 1.574 . S
C174 H169 0.949 . S
C174 C180 1.368 . S
C175 C159 1.349 . S
C175 H167 0.950 . S
C175 C173 1.327 . S
C176 C164 1.349 . S
C176 H170 0.950 . S
C176 C177 1.327 . S
C177 H171 0.950 . S
C177 C176 1.327 . S
C177 C181 1.429 . S
C178 C161 1.574 . S
C178 H172 0.949 . S
C178 C182 1.368 . S
C179 C160 1.429 . S
C179 C173 1.429 . S
C179 C180 1.523 . S
C180 C161 1.368 . S
C180 C174 1.368 . S
C180 C179 1.523 . S
C181 C165 1.429 . S
C181 C177 1.429 . S
C181 C182 1.523 . S
C182 C166 1.368 . S
C182 C178 1.368 . S
C182 C181 1.523 . S
H183 C158 0.950 . S
H184 C160 0.950 . S
H185 C161 0.949 . S
H186 C163 0.950 . S
H187 C165 0.950 . S
C188 C189 1.349 1_554 S
C188 C190 1.327 . S
C188 H213 0.950 . S
C189 C188 1.349 1_556 S
C189 C205 1.349 . S
C190 C188 1.327 . S
C190 C209 1.430 . S
C190 H214 0.950 . S
C191 C208 1.574 1_445 S
C191 C210 1.364 1_556 S
C191 H215 0.949 . S
H192 C196 0.949 . S
C193 C194 1.329 1_556 S
C193 C195 1.327 . S
C193 H216 0.950 . S
C194 C193 1.329 1_554 S
C194 C206 1.365 . S
C195 C193 1.327 . S
C195 C211 1.418 1_556 S
C195 H217 0.950 . S
C196 H192 0.949 . S
C196 C204 1.574 1_565 S
C196 C212 1.378 . S
H197 C205 0.950 . S
H198 C203 0.950 . S
H199 C204 0.949 . S
H200 C206 0.950 . S
H201 C207 0.950 . S
H202 C208 0.949 . S
C203 H198 0.950 . S
C203 C205 1.327 . S
C203 C209 1.427 1_556 S
C204 C196 1.574 1_545 S
C204 H199 0.949 . S
C204 C210 1.373 1_655 S
C205 C189 1.349 . S
C205 H197 0.950 . S
C205 C203 1.327 . S
C206 C194 1.365 . S
C206 H200 0.950 . S
C206 C207 1.327 . S
C207 H201 0.950 . S
C207 C206 1.327 . S
C207 C211 1.442 . S
C208 C191 1.574 1_665 S
C208 H202 0.949 . S
C208 C212 1.358 1_556 S
C209 C190 1.430 . S
C209 C203 1.427 1_554 S
C209 C210 1.522 . S
C210 C191 1.364 1_554 S
C210 C204 1.373 1_455 S
C210 C209 1.522 . S
C211 C195 1.418 1_554 S
C211 C207 1.442 . S
C211 C212 1.522 . S
C212 C196 1.378 . S
C212 C208 1.358 1_554 S
C212 C211 1.522 . S
H213 C188 0.950 . S
H214 C190 0.950 . S
H215 C191 0.949 . S
H216 C193 0.950 . S
H217 C195 0.950 . S
C218 C219 1.349 . S
C218 C220 1.327 . S
C218 H243 0.950 . S
C219 C218 1.349 . S
C219 C235 1.349 . S
C220 C218 1.327 . S
C220 C239 1.429 . S
C220 H244 0.950 . S
C221 C238 1.574 1_645 S
C221 C240 1.368 . S
C221 H245 0.949 1_655 S
H222 C226 0.949 . S
C223 C224 1.349 . S
C223 C225 1.327 . S
C223 H246 0.950 . S
C224 C223 1.349 . S
C224 C236 1.349 . S
C225 C223 1.327 . S
C225 C241 1.429 . S
C225 H247 0.950 . S
C226 H222 0.949 . S
C226 C234 1.574 1_565 S
C226 C242 1.368 1_655 S
H227 C235 0.950 . S
H228 C233 0.950 . S
H229 C234 0.949 . S
H230 C236 0.950 . S
H231 C237 0.953 . S
H232 C238 0.949 . S
C233 H228 0.950 . S
C233 C235 1.327 . S
C233 C239 1.429 . S
C234 C226 1.574 1_545 S
C234 H229 0.949 . S
C234 C240 1.368 . S
C235 C219 1.349 . S
C235 H227 0.950 . S
C235 C233 1.327 . S
C236 C224 1.349 . S
C236 H230 0.950 . S
C236 C237 1.327 . S
C237 H231 0.953 . S
C237 C236 1.327 . S
C237 C241 1.429 . S
C238 C221 1.574 1_465 S
C238 H232 0.949 . S
C238 C242 1.368 . S
C239 C220 1.429 . S
C239 C233 1.429 . S
C239 C240 1.523 . S
C240 C221 1.368 . S
C240 C234 1.368 . S
C240 C239 1.523 . S
C241 C225 1.429 . S
C241 C237 1.429 . S
C241 C242 1.523 . S
C242 C226 1.368 1_455 S
C242 C238 1.368 . S
C242 C241 1.523 . S
H243 C218 0.950 . S
H244 C220 0.950 . S
H245 C221 0.949 1_455 S
H246 C223 0.950 . S
H247 C225 0.950 . S
C248 C249 1.349 . S
C248 C250 1.327 . S
C248 H273 0.950 . S
C249 C248 1.349 . S
C249 C265 1.349 . S
C250 C248 1.327 . S
C250 C269 1.429 . S
C250 H274 0.950 . S
C251 C268 1.574 . S
C251 C270 1.368 . S
C251 H275 0.949 . S
H252 C256 0.949 . S
C253 C254 1.349 . S
C253 C255 1.327 . S
C253 H276 0.950 . S
C254 C253 1.349 . S
C254 C266 1.349 . S
C255 C253 1.327 . S
C255 C271 1.429 . S
C255 H277 0.950 . S
C256 H252 0.949 . S
C256 C264 1.574 . S
C256 C272 1.368 . S
H257 C265 0.950 . S
H258 C263 0.950 . S
H259 C264 0.949 . S
H260 C266 0.950 . S
H261 C267 0.950 . S
H262 C268 0.949 . S
C263 H258 0.950 . S
C263 C265 1.327 . S
C263 C269 1.429 . S
C264 C256 1.574 . S
C264 H259 0.949 . S
C264 C270 1.368 . S
C265 C249 1.349 . S
C265 H257 0.950 . S
C265 C263 1.327 . S
C266 C254 1.349 . S
C266 H260 0.950 . S
C266 C267 1.327 . S
C267 H261 0.950 . S
C267 C266 1.327 . S
C267 C271 1.429 . S
C268 C251 1.574 . S
C268 H262 0.949 . S
C268 C272 1.368 . S
C269 C250 1.429 . S
C269 C263 1.429 . S
C269 C270 1.523 . S
C270 C251 1.368 . S
C270 C264 1.368 . S
C270 C269 1.523 . S
C271 C255 1.429 . S
C271 C267 1.429 . S
C271 C272 1.523 . S
C272 C256 1.368 . S
C272 C268 1.368 . S
C272 C271 1.523 . S
H273 C248 0.950 . S
H274 C250 0.950 . S
H275 C251 0.949 . S
H276 C253 0.950 . S
H277 C255 0.950 . S
C278 C279 1.349 . S
C278 C280 1.327 . S
C278 H303 0.950 . S
C279 C278 1.349 . S
C279 C295 1.349 . S
C280 C278 1.327 . S
C280 C299 1.429 . S
C280 H304 0.950 . S
C281 C298 1.574 . S
C281 C300 1.368 . S
C281 H305 0.949 . S
H282 C286 0.949 . S
C283 C284 1.349 . S
C283 C285 1.327 . S
C283 H306 0.950 . S
C284 C283 1.349 . S
C284 C296 1.349 . S
C285 C283 1.327 . S
C285 C301 1.429 . S
C285 H307 0.950 . S
C286 H282 0.949 . S
C286 C294 1.574 . S
C286 C302 1.368 . S
H287 C295 0.950 . S
H288 C293 0.950 . S
H289 C294 0.949 . S
H290 C296 0.950 . S
H291 C297 0.950 . S
H292 C298 0.949 . S
C293 H288 0.950 . S
C293 C295 1.327 . S
C293 C299 1.429 . S
C294 C286 1.574 . S
C294 H289 0.949 . S
C294 C300 1.368 . S
C295 C279 1.349 . S
C295 H287 0.950 . S
C295 C293 1.327 . S
C296 C284 1.349 . S
C296 H290 0.950 . S
C296 C297 1.327 . S
C297 H291 0.950 . S
C297 C296 1.327 . S
C297 C301 1.429 . S
C298 C281 1.574 . S
C298 H292 0.949 . S
C298 C302 1.368 . S
C299 C280 1.429 . S
C299 C293 1.429 . S
C299 C300 1.523 . S
C300 C281 1.368 . S
C300 C294 1.368 . S
C300 C299 1.523 . S
C301 C285 1.429 . S
C301 C297 1.429 . S
C301 C302 1.523 . S
C302 C286 1.368 . S
C302 C298 1.368 . S
C302 C301 1.523 . S
H303 C278 0.950 . S
H304 C280 0.950 . S
H305 C281 0.949 . S
H306 C283 0.950 . S
H307 C285 0.950 . S
C308 C309 1.349 . S
C308 C310 1.327 . S
C308 H333 0.950 . S
C309 C308 1.349 . S
C309 C325 1.349 . S
C310 C308 1.327 . S
C310 C329 1.429 . S
C310 H334 0.950 . S
C311 C328 1.574 . S
C311 C330 1.368 . S
C311 H335 0.949 . S
H312 C316 0.949 . S
C313 C314 1.349 . S
C313 C315 1.327 . S
C313 H336 0.950 . S
C314 C313 1.349 . S
C314 C326 1.349 . S
C315 C313 1.327 . S
C315 C331 1.429 . S
C315 H337 0.950 . S
C316 H312 0.949 . S
C316 C324 1.574 . S
C316 C332 1.368 . S
H317 C325 0.950 . S
H318 C323 0.950 . S
H319 C324 0.949 . S
H320 C326 0.950 . S
H321 C327 0.950 . S
H322 C328 0.949 . S
C323 H318 0.950 . S
C323 C325 1.327 . S
C323 C329 1.429 . S
C324 C316 1.574 . S
C324 H319 0.949 . S
C324 C330 1.368 . S
C325 C309 1.349 . S
C325 H317 0.950 . S
C325 C323 1.327 . S
C326 C314 1.349 . S
C326 H320 0.950 . S
C326 C327 1.327 . S
C327 H321 0.950 . S
C327 C326 1.327 . S
C327 C331 1.429 . S
C328 C311 1.574 . S
C328 H322 0.949 . S
C328 C332 1.368 . S
C329 C310 1.429 . S
C329 C323 1.429 . S
C329 C330 1.523 . S
C330 C311 1.368 . S
C330 C324 1.368 . S
C330 C329 1.523 . S
C331 C315 1.429 . S
C331 C327 1.429 . S
C331 C332 1.523 . S
C332 C316 1.368 . S
C332 C328 1.368 . S
C332 C331 1.523 . S
H333 C308 0.950 . S
H334 C310 0.950 . S
H335 C311 0.949 . S
H336 C313 0.950 . S
H337 C315 0.950 . S
C338 C339 1.349 . S
C338 C340 1.327 . S
C338 H363 0.950 . S
C339 C338 1.349 . S
C339 C355 1.349 . S
C340 C338 1.327 . S
C340 C359 1.429 . S
C340 H364 0.950 . S
C341 C358 1.574 . S
C341 C360 1.368 . S
C341 H365 0.949 . S
H342 C346 0.949 . S
C343 C344 1.349 . S
C343 C345 1.327 . S
C343 H366 0.950 . S
C344 C343 1.349 . S
C344 C356 1.349 . S
C345 C343 1.327 . S
C345 C361 1.429 . S
C345 H367 0.950 . S
C346 H342 0.949 . S
C346 C354 1.574 . S
C346 C362 1.368 . S
H347 C355 0.950 . S
H348 C353 0.950 . S
H349 C354 0.949 . S
H350 C356 0.950 . S
H351 C357 0.950 . S
H352 C358 0.949 . S
C353 H348 0.950 . S
C353 C355 1.327 . S
C353 C359 1.429 . S
C354 C346 1.574 . S
C354 H349 0.949 . S
C354 C360 1.368 . S
C355 C339 1.349 . S
C355 H347 0.950 . S
C355 C353 1.327 . S
C356 C344 1.349 . S
C356 H350 0.950 . S
C356 C357 1.327 . S
C357 H351 0.950 . S
C357 C356 1.327 . S
C357 C361 1.429 . S
C358 C341 1.574 . S
C358 H352 0.949 . S
C358 C362 1.368 . S
C359 C340 1.429 . S
C359 C353 1.429 . S
C359 C360 1.523 . S
C360 C341 1.368 . S
C360 C354 1.368 . S
C360 C359 1.523 . S
C361 C345 1.429 . S
C361 C357 1.429 . S
C361 C362 1.523 . S
C362 C346 1.368 . S
C362 C358 1.368 . S
C362 C361 1.523 . S
H363 C338 0.950 . S
H364 C340 0.950 . S
H365 C341 0.949 . S
H366 C343 0.950 . S
H367 C345 0.950 . S
C368 C369 1.349 . S
C368 C370 1.327 . S
C368 H393 0.950 . S
C369 C368 1.349 . S
C369 C385 1.349 . S
C370 C368 1.327 . S
C370 C389 1.429 . S
C370 H394 0.950 . S
C371 C388 1.574 . S
C371 C390 1.368 . S
C371 H395 0.949 . S
H372 C376 0.949 . S
C373 C374 1.349 . S
C373 C375 1.327 . S
C373 H396 0.950 . S
C374 C373 1.349 . S
C374 C386 1.349 . S
C375 C373 1.327 . S
C375 C391 1.429 . S
C375 H397 0.950 . S
C376 H372 0.949 . S
C376 C384 1.574 . S
C376 C392 1.368 . S
H377 C385 0.950 . S
H378 C383 0.950 . S
H379 C384 0.949 . S
H380 C386 0.950 . S
H381 C387 0.950 . S
H382 C388 0.949 . S
C383 H378 0.950 . S
C383 C385 1.327 . S
C383 C389 1.429 . S
C384 C376 1.574 . S
C384 H379 0.949 . S
C384 C390 1.368 1_455 S
C385 C369 1.349 . S
C385 H377 0.950 . S
C385 C383 1.327 . S
C386 C374 1.349 . S
C386 H380 0.950 . S
C386 C387 1.327 . S
C387 H381 0.950 . S
C387 C386 1.327 . S
C387 C391 1.429 . S
C388 C371 1.574 . S
C388 H382 0.949 . S
C388 C392 1.368 1_655 S
C389 C370 1.429 . S
C389 C383 1.429 . S
C389 C390 1.523 . S
C390 C371 1.368 . S
C390 C384 1.368 1_655 S
C390 C389 1.523 . S
C391 C375 1.429 . S
C391 C387 1.429 . S
C391 C392 1.523 . S
C392 C376 1.368 . S
C392 C388 1.368 1_455 S
C392 C391 1.523 . S
H393 C368 0.950 . S
H394 C370 0.950 . S
H395 C371 0.949 . S
H396 C373 0.950 . S
H397 C375 0.950 . S
C398 C399 1.349 . S
C398 C400 1.327 . S
C398 H423 0.950 . S
C399 C398 1.349 . S
C399 C415 1.349 . S
C400 C398 1.327 . S
C400 C419 1.429 . S
C400 H424 0.950 . S
C401 C418 1.574 . S
C401 C420 1.368 . S
C401 H425 0.949 . S
H402 C406 0.949 . S
C403 C404 1.349 . S
C403 C405 1.327 . S
C403 H426 0.950 . S
C404 C403 1.349 . S
C404 C416 1.349 . S
C405 C403 1.327 . S
C405 C421 1.429 . S
C405 H427 0.950 . S
C406 H402 0.949 . S
C406 C414 1.574 . S
C406 C422 1.368 . S
H407 C415 0.950 . S
H408 C413 0.950 . S
H409 C414 0.949 . S
H410 C416 0.950 . S
H411 C417 0.950 . S
H412 C418 0.949 . S
C413 H408 0.950 . S
C413 C415 1.327 . S
C413 C419 1.429 . S
C414 C406 1.574 . S
C414 H409 0.949 . S
C414 C420 1.368 1_455 S
C415 C399 1.349 . S
C415 H407 0.950 . S
C415 C413 1.327 . S
C416 C404 1.349 . S
C416 H410 0.950 . S
C416 C417 1.327 . S
C417 H411 0.950 . S
C417 C416 1.327 . S
C417 C421 1.429 . S
C418 C401 1.574 . S
C418 H412 0.949 . S
C418 C422 1.368 1_655 S
C419 C400 1.429 . S
C419 C413 1.429 . S
C419 C420 1.523 . S
C420 C401 1.368 . S
C420 C414 1.368 1_655 S
C420 C419 1.523 . S
C421 C405 1.429 . S
C421 C417 1.429 . S
C421 C422 1.523 . S
C422 C406 1.368 . S
C422 C418 1.368 1_455 S
C422 C421 1.523 . S
H423 C398 0.950 . S
H424 C400 0.950 . S
H425 C401 0.949 . S
H426 C403 0.950 . S
H427 C405 0.950 . S
C428 C429 1.349 . S
C428 C430 1.327 . S
C428 H453 0.950 . S
C429 C428 1.349 . S
C429 C445 1.349 . S
C430 C428 1.327 . S
C430 C449 1.429 . S
C430 H454 0.950 . S
C431 C448 1.574 . S
C431 C450 1.368 1_455 S
C431 H455 0.949 . S
H432 C436 0.949 . S
C433 C434 1.349 . S
C433 C435 1.327 . S
C433 H456 0.950 . S
C434 C433 1.349 . S
C434 C446 1.349 . S
C435 C433 1.327 . S
C435 C451 1.429 . S
C435 H457 0.950 . S
C436 H432 0.949 . S
C436 C444 1.574 . S
C436 C452 1.368 1_655 S
H437 C445 0.950 . S
H438 C443 0.950 . S
H439 C444 0.949 . S
H440 C446 0.950 . S
H441 C447 0.950 . S
H442 C448 0.949 . S
C443 H438 0.950 . S
C443 C445 1.327 . S
C443 C449 1.429 . S
C444 C436 1.574 . S
C444 H439 0.949 . S
C444 C450 1.368 . S
C445 C429 1.349 . S
C445 H437 0.950 . S
C445 C443 1.327 . S
C446 C434 1.349 . S
C446 H440 0.950 . S
C446 C447 1.327 . S
C447 H441 0.950 . S
C447 C446 1.327 . S
C447 C451 1.429 . S
C448 C431 1.574 . S
C448 H442 0.949 . S
C448 C452 1.368 . S
C449 C430 1.429 . S
C449 C443 1.429 . S
C449 C450 1.523 . S
C450 C431 1.368 1_655 S
C450 C444 1.368 . S
C450 C449 1.523 . S
C451 C435 1.429 . S
C451 C447 1.429 . S
C451 C452 1.523 . S
C452 C436 1.368 1_455 S
C452 C448 1.368 . S
C452 C451 1.523 . S
H453 C428 0.950 . S
H454 C430 0.950 . S
H455 C431 0.949 . S
H456 C433 0.950 . S
H457 C435 0.950 . S
C458 C459 1.349 . S
C458 C460 1.327 . S
C458 H483 0.950 . S
C459 C458 1.349 . S
C459 C475 1.349 . S
C460 C458 1.327 . S
C460 C479 1.429 . S
C460 H484 0.950 . S
C461 C478 1.574 . S
C461 C480 1.368 . S
C461 H485 0.949 . S
H462 C466 0.949 . S
C463 C464 1.349 . S
C463 C465 1.327 . S
C463 H486 0.950 . S
C464 C463 1.349 . S
C464 C476 1.349 . S
C465 C463 1.327 . S
C465 C481 1.429 . S
C465 H487 0.950 . S
C466 H462 0.949 . S
C466 C474 1.574 1_655 S
C466 C482 1.368 . S
H467 C475 0.950 . S
H468 C473 0.950 . S
H469 C474 0.949 1_655 S
H470 C476 0.950 . S
H471 C477 0.950 . S
H472 C478 0.949 . S
C473 H468 0.950 . S
C473 C475 1.327 . S
C473 C479 1.429 . S
C474 C466 1.574 1_455 S
C474 H469 0.949 1_455 S
C474 C480 1.368 . S
C475 C459 1.349 . S
C475 H467 0.950 . S
C475 C473 1.327 . S
C476 C464 1.349 . S
C476 H470 0.950 . S
C476 C477 1.327 . S
C477 H471 0.950 . S
C477 C476 1.327 . S
C477 C481 1.429 . S
C478 C461 1.574 . S
C478 H472 0.949 . S
C478 C482 1.368 1_455 S
C479 C460 1.429 . S
C479 C473 1.429 . S
C479 C480 1.523 . S
C480 C461 1.368 . S
C480 C474 1.368 . S
C480 C479 1.523 . S
C481 C465 1.429 . S
C481 C477 1.429 . S
C481 C482 1.523 . S
C482 C466 1.368 . S
C482 C478 1.368 1_655 S
C482 C481 1.523 . S
H483 C458 0.950 . S
H484 C460 0.950 . S
H485 C461 0.949 . S
H486 C463 0.950 . S
H487 C465 0.950 . S
C129 N45 1.590 . S
C134 N18 1.576 . S
C159 N77 1.566 . S
C164 N114 1.590 . S
C189 N13 1.590 . S
C194 N50 1.576 . S
C219 N109 1.566 . S
C224 N82 1.590 . S
C249 C98 0.805 . S
C254 C29 0.804 . S
C279 C38 0.805 . S
C284 C68 0.804 . S
C309 C34 0.830 . S
C314 C93 0.833 . S
C339 C102 0.830 . S
C344 C4 0.833 . S
C369 C61 0.806 . S
C374 C66 0.803 . S
C399 C100 0.806 . S
C404 C6 0.803 . S
C429 C125 0.831 . S
C434 C2 0.833 . S
C459 C70 0.830 . S
C464 C36 0.833 . S
