# Generated by pormake.
# Topology uku, (4)-cn, num edge types: 1
# Building blocks:
#     Node 0, Type 0, BuildingBlock: KUFVIS_clean_sbu_0, # of connection points: 4
#     Node 1, Type 0, BuildingBlock: KUFVIS_clean_sbu_0, # of connection points: 4
#     Node 2, Type 0, BuildingBlock: KUFVIS_clean_sbu_0, # of connection points: 4
#     Node 3, Type 0, BuildingBlock: KUFVIS_clean_sbu_0, # of connection points: 4
#     Node 4, Type 0, BuildingBlock: KUFVIS_clean_sbu_0, # of connection points: 4
#     Node 5, Type 0, BuildingBlock: KUFVIS_clean_sbu_0, # of connection points: 4
#     Node 6, Type 0, BuildingBlock: KUFVIS_clean_sbu_0, # of connection points: 4
#     Node 7, Type 0, BuildingBlock: KUFVIS_clean_sbu_0, # of connection points: 4
#     Node 8, Type 0, BuildingBlock: KUFVIS_clean_sbu_0, # of connection points: 4
#     Node 9, Type 0, BuildingBlock: KUFVIS_clean_sbu_0, # of connection points: 4
#     Node 10, Type 0, BuildingBlock: KUFVIS_clean_sbu_0, # of connection points: 4
#     Node 11, Type 0, BuildingBlock: KUFVIS_clean_sbu_0, # of connection points: 4
#     Edge 12, Type (0, 0), BuildingBlock: TEMPAE_clean_linker_10, # of connection points: 2
#     Edge 13, Type (0, 0), BuildingBlock: TEMPAE_clean_linker_10, # of connection points: 2
#     Edge 14, Type (0, 0), BuildingBlock: TEMPAE_clean_linker_10, # of connection points: 2
#     Edge 15, Type (0, 0), BuildingBlock: TEMPAE_clean_linker_10, # of connection points: 2
#     Edge 16, Type (0, 0), BuildingBlock: TEMPAE_clean_linker_10, # of connection points: 2
#     Edge 17, Type (0, 0), BuildingBlock: TEMPAE_clean_linker_10, # of connection points: 2
#     Edge 18, Type (0, 0), BuildingBlock: TEMPAE_clean_linker_10, # of connection points: 2
#     Edge 19, Type (0, 0), BuildingBlock: TEMPAE_clean_linker_10, # of connection points: 2
#     Edge 20, Type (0, 0), BuildingBlock: TEMPAE_clean_linker_10, # of connection points: 2
#     Edge 21, Type (0, 0), BuildingBlock: TEMPAE_clean_linker_10, # of connection points: 2
#     Edge 22, Type (0, 0), BuildingBlock: TEMPAE_clean_linker_10, # of connection points: 2
#     Edge 23, Type (0, 0), BuildingBlock: TEMPAE_clean_linker_10, # of connection points: 2
#     Edge 24, Type (0, 0), BuildingBlock: TEMPAE_clean_linker_10, # of connection points: 2
#     Edge 25, Type (0, 0), BuildingBlock: TEMPAE_clean_linker_10, # of connection points: 2
#     Edge 26, Type (0, 0), BuildingBlock: TEMPAE_clean_linker_10, # of connection points: 2
#     Edge 27, Type (0, 0), BuildingBlock: TEMPAE_clean_linker_10, # of connection points: 2
#     Edge 28, Type (0, 0), BuildingBlock: TEMPAE_clean_linker_10, # of connection points: 2
#     Edge 29, Type (0, 0), BuildingBlock: TEMPAE_clean_linker_10, # of connection points: 2
#     Edge 30, Type (0, 0), BuildingBlock: TEMPAE_clean_linker_10, # of connection points: 2
#     Edge 31, Type (0, 0), BuildingBlock: TEMPAE_clean_linker_10, # of connection points: 2
#     Edge 32, Type (0, 0), BuildingBlock: TEMPAE_clean_linker_10, # of connection points: 2
#     Edge 33, Type (0, 0), BuildingBlock: TEMPAE_clean_linker_10, # of connection points: 2
#     Edge 34, Type (0, 0), BuildingBlock: TEMPAE_clean_linker_10, # of connection points: 2
#     Edge 35, Type (0, 0), BuildingBlock: TEMPAE_clean_linker_10, # of connection points: 2
# Relax obj value: 0.400
# Max RMSD: 0.284
# Mean RMSD: 0.284
data_MOF--net-uku--node1-KUFVIS_clean_sbu_0--edge1-TEMPAE_clean_linker_10
_symmetry_space_group_name_H-M    P1
_symmetry_Int_Tables_number       1
_symmetry_cell_setting            triclinic
loop_
_symmetry_equiv_pos_as_xyz
'x, y, z'
_cell_length_a     41.016649
_cell_length_b     40.917947
_cell_length_c     40.962441
_cell_angle_alpha  89.973097
_cell_angle_beta   90.056131
_cell_angle_gamma 90.011184
loop_
_atom_site_label
_atom_site_type_symbol
_atom_site_fract_x
_atom_site_fract_y
_atom_site_fract_z
_atom_type_partial_charge
Mn0 Mn 0.06909 0.16287 0.66435 0.0
Mn1 Mn 0.99279 0.17713 0.6909 0.0
C2 C 0.0578 0.21068 0.69097 0.0
C3 C 0.11916 0.13893 0.67224 0.0
C4 C 0.01385 0.18508 0.62065 0.0
O5 O 0.04763 0.11865 0.66209 0.0
O6 O -0.00149 0.12892 0.68431 0.0
C7 C -0.00348 0.14486 0.75551 0.0
N8 N 0.99122 0.17222 0.7373 0.0
C9 C 0.98206 0.2045 0.78553 0.0
C10 C 0.98715 0.17661 0.80476 0.0
C11 C 0.99441 0.14667 0.78967 0.0
C12 C 0.98397 0.20112 0.75156 0.0
H13 H 0.00249 0.12186 0.74407 0.0
C14 C 0.01997 0.10931 0.67257 0.0
O15 O 0.10868 0.14493 0.64293 0.0
O16 O 0.10068 0.14668 0.6967 0.0
N17 N 0.98476 0.22255 0.69891 0.0
C18 C 0.98312 0.24765 0.67708 0.0
C19 C 0.97751 0.27955 0.68837 0.0
C20 C 0.97367 0.28534 0.72194 0.0
C21 C 0.97534 0.25913 0.74393 0.0
C22 C 0.98061 0.22779 0.73124 0.0
H23 H 0.98645 0.24345 0.65129 0.0
O24 O 0.08347 0.20828 0.67258 0.0
O25 O 0.03998 0.18448 0.69384 0.0
O26 O 0.04374 0.17835 0.62506 0.0
O27 O 0.9921 0.18379 0.64292 0.0
C28 C 0.97287 0.26301 0.77801 0.0
C29 C 0.97616 0.23571 0.79879 0.0
H30 H 0.98597 0.17799 0.83114 0.0
H31 H -0.00139 0.12508 0.80436 0.0
H32 H 0.97642 0.29968 0.67126 0.0
H33 H 0.96977 0.31004 0.73058 0.0
H34 H 0.96894 0.28697 0.78853 0.0
H35 H 0.97471 0.2391 0.82498 0.0
Mn36 Mn 0.91738 0.82047 0.66281 0.0
Mn37 Mn 0.9901 0.79694 0.69293 0.0
C38 C 0.92208 0.77118 0.68891 0.0
C39 C 0.8695 0.84899 0.66911 0.0
C40 C 0.97254 0.79348 0.62135 0.0
O41 O 0.9431 0.86214 0.66338 0.0
O42 O 0.9908 0.84552 0.68518 0.0
C43 C 0.98685 0.83077 0.75675 0.0
N44 N 0.98993 0.80261 0.73929 0.0
C45 C 0.99308 0.77054 0.78847 0.0
C46 C 0.99034 0.79924 0.80694 0.0
C47 C 0.98718 0.82947 0.791 0.0
C48 C 0.99313 0.77339 0.75439 0.0
H49 H 0.98396 0.85402 0.74465 0.0
C50 C 0.97189 0.8677 0.67347 0.0
O51 O 0.88086 0.84314 0.64011 0.0
O52 O 0.88578 0.83838 0.69407 0.0
N53 N 0.99211 0.75106 0.70216 0.0
C54 C 0.99136 0.72546 0.68091 0.0
C55 C 0.9925 0.69337 0.693 0.0
C56 C 0.99432 0.6879 0.7268 0.0
C57 C 0.99505 0.7146 0.74821 0.0
C58 C 0.99421 0.74607 0.73473 0.0
H59 H 0.98935 0.72949 0.65498 0.0
O60 O 0.89826 0.77631 0.66862 0.0
O61 O 0.94237 0.79528 0.69318 0.0
O62 O 0.94385 0.80486 0.62427 0.0
O63 O 0.99224 0.78928 0.64518 0.0
C64 C 0.9956 0.7112 0.78244 0.0
C65 C 0.9947 0.73915 0.80255 0.0
H66 H 0.99013 0.79831 0.83337 0.0
H67 H 0.98474 0.85171 0.80509 0.0
H68 H 0.99165 0.67288 0.67632 0.0
H69 H 0.99473 0.6631 0.73606 0.0
H70 H -0.00382 0.68718 0.79355 0.0
H71 H 0.99456 0.73619 0.82883 0.0
Mn72 Mn 0.06976 0.82507 0.34062 0.0
Mn73 Mn 0.99192 0.805 0.32404 0.0
C74 C 0.05884 0.78201 0.30649 0.0
C75 C 0.11542 0.85602 0.32998 0.0
C76 C 0.02583 0.78942 0.38808 0.0
O77 O 0.04435 0.86474 0.35508 0.0
O78 O 0.99365 0.85191 0.33784 0.0
C79 C 0.98002 0.84674 0.26618 0.0
N80 N 0.98102 0.81653 0.28013 0.0
C81 C 0.96527 0.79093 0.22963 0.0
C82 C 0.96361 0.82182 0.21488 0.0
C83 C 0.9711 0.84983 0.23323 0.0
C84 C 0.97381 0.78941 0.26271 0.0
H85 H 0.9862 0.8683 0.28004 0.0
C86 C 0.01445 0.8718 0.35036 0.0
O87 O 0.11079 0.8434 0.35867 0.0
O88 O 0.09344 0.85114 0.30773 0.0
N89 N 0.98763 0.76063 0.30976 0.0
C90 C 0.99326 0.73257 0.32678 0.0
C91 C 0.98887 0.70225 0.31133 0.0
C92 C 0.97873 0.70109 0.27859 0.0
C93 C 0.97296 0.73028 0.26161 0.0
C94 C 0.97745 0.75978 0.27836 0.0
H95 H 0.00138 0.73329 0.35184 0.0
O96 O 0.08693 0.78424 0.32096 0.0
O97 O 0.03817 0.80541 0.31221 0.0
O98 O 0.05376 0.79991 0.37981 0.0
O99 O 0.00072 0.79129 0.36966 0.0
C100 C 0.96378 0.73126 0.22847 0.0
C101 C 0.95985 0.76156 0.21252 0.0
H102 H 0.95718 0.82427 0.18934 0.0
H103 H 0.97023 0.87372 0.22192 0.0
H104 H 0.99353 0.67983 0.32455 0.0
H105 H 0.97576 0.67767 0.26664 0.0
H106 H 0.96019 0.70884 0.21488 0.0
H107 H 0.95336 0.76198 0.18688 0.0
Mn108 Mn 0.92714 0.16693 0.34364 0.0
Mn109 Mn 0.00402 0.17637 0.31698 0.0
C110 C 0.93868 0.20761 0.3069 0.0
C111 C 0.87757 0.14088 0.33997 0.0
C112 C 0.98078 0.19623 0.38435 0.0
O113 O 0.94962 0.12474 0.35653 0.0
O114 O -0.00222 0.1299 0.33043 0.0
C115 C 0.00347 0.13502 0.25773 0.0
N116 N 0.00779 0.16479 0.27194 0.0
C117 C 0.02026 0.18957 0.22015 0.0
C118 C 0.01628 0.1591 0.20501 0.0
C119 C 0.0078 0.13172 0.22389 0.0
C120 C 0.01611 0.19127 0.25404 0.0
H121 H -0.00337 0.11397 0.27208 0.0
C122 C 0.97686 0.11327 0.34683 0.0
O123 O 0.88691 0.15393 0.36727 0.0
O124 O 0.89693 0.14274 0.31502 0.0
N125 N 0.01211 0.22024 0.30276 0.0
C126 C 0.01224 0.24833 0.32063 0.0
C127 C 0.01847 0.27826 0.30506 0.0
C128 C 0.02451 0.27904 0.27133 0.0
C129 C 0.02433 0.24983 0.25346 0.0
C130 C 0.01824 0.22068 0.27033 0.0
H131 H 0.00734 0.24795 0.3465 0.0
O132 O 0.91235 0.20898 0.32442 0.0
O133 O 0.95698 0.182 0.31103 0.0
O134 O 0.95064 0.19129 0.37938 0.0
O135 O 0.00303 0.18949 0.36362 0.0
C136 C 0.02914 0.24861 0.21943 0.0
C137 C 0.02717 0.2185 0.2028 0.0
H138 H 0.01918 0.15654 0.17886 0.0
H139 H 0.0044 0.10818 0.21235 0.0
H140 H 0.01841 0.30073 0.319 0.0
H141 H 0.02893 0.30222 0.25935 0.0
H142 H 0.03388 0.27076 0.20574 0.0
H143 H 0.03036 0.21796 0.17655 0.0
Mn144 Mn 0.6573 0.08971 0.17454 0.0
Mn145 Mn 0.68295 0.01273 0.18851 0.0
C146 C 0.685 0.07748 0.22169 0.0
C147 C 0.66606 0.13986 0.15035 0.0
C148 C 0.61299 0.03453 0.19681 0.0
O149 O 0.65412 0.06852 0.13034 0.0
O150 O 0.67413 0.0183 0.14073 0.0
C151 C 0.74601 0.01604 0.15354 0.0
N152 N 0.72898 0.01058 0.18155 0.0
C153 C 0.77831 -0.00067 0.21137 0.0
C154 C 0.79634 0.00456 0.18277 0.0
C155 C 0.78011 0.01302 0.15376 0.0
C156 C 0.74435 0.00248 0.20962 0.0
H157 H 0.73368 0.02278 0.13124 0.0
C158 C 0.66267 0.04007 0.12124 0.0
O159 O 0.63662 0.13003 0.15673 0.0
O160 O 0.69007 0.12085 0.1583 0.0
N161 N 0.6929 0.00447 0.23345 0.0
C162 C 0.67226 0.0029 0.25945 0.0
C163 C 0.68481 0.99601 0.29061 0.0
C164 C 0.71839 0.9907 0.29471 0.0
C165 C 0.73915 0.99237 0.26759 0.0
C166 C 0.72524 -0.00084 0.23709 0.0
H167 H 0.6465 0.00729 0.25651 0.0
O168 O 0.6668 0.10343 0.22023 0.0
O169 O 0.68648 0.05987 0.19537 0.0
O170 O 0.61755 0.06437 0.18931 0.0
O171 O 0.63549 0.01292 0.19712 0.0
C172 C 0.77316 0.98816 0.26972 0.0
C173 C 0.79275 0.99179 0.24167 0.0
H174 H 0.82266 0.0025 0.1829 0.0
H175 H 0.79387 0.01732 0.13164 0.0
H176 H 0.66865 0.99497 0.31146 0.0
H177 H 0.72802 0.9857 0.31883 0.0
H178 H 0.78455 0.98252 0.2929 0.0
H179 H 0.81895 0.98913 0.24376 0.0
Mn180 Mn 0.3376 0.90865 0.16258 0.0
Mn181 Mn 0.3161 0.98648 0.17874 0.0
C182 C 0.30795 0.92052 0.2085 0.0
C183 C 0.32695 0.86024 0.1358 0.0
C184 C 0.38384 0.95954 0.19045 0.0
O185 O 0.34515 0.93161 0.11981 0.0
O186 O 0.3276 0.98251 0.13139 0.0
C187 C 0.2553 0.98889 0.13981 0.0
N188 N 0.27083 0.99199 0.16905 0.0
C189 C 0.22042 0.00452 0.19634 0.0
C190 C 0.20395 0.00179 0.16645 0.0
C191 C 0.22147 0.99388 0.13808 0.0
C192 C 0.25421 -0.00041 0.19651 0.0
H193 H 0.26859 0.98247 0.118 0.0
C194 C 0.33908 0.961 0.11167 0.0
O195 O 0.35656 0.8677 0.14429 0.0
O196 O 0.30389 0.88067 0.14285 0.0
N197 N 0.30387 0.99339 0.22333 0.0
C198 C 0.32294 0.99262 0.25058 0.0
C199 C 0.30888 -0.00129 0.28123 0.0
C200 C 0.27541 0.00556 0.28354 0.0
C201 C 0.25631 0.00637 0.25516 0.0
C202 C 0.27172 0.00043 0.22524 0.0
H203 H 0.34857 0.98696 0.249 0.0
O204 O 0.3244 0.89346 0.20679 0.0
O205 O 0.30912 0.93943 0.18306 0.0
O206 O 0.37792 0.93045 0.18116 0.0
O207 O 0.36278 0.98258 0.19029 0.0
C208 C 0.22246 0.01214 0.25545 0.0
C209 C 0.20451 0.01115 0.22608 0.0
H210 H 0.17781 0.00531 0.16507 0.0
H211 H 0.20889 0.99147 0.11497 0.0
H212 H 0.32376 -0.00215 0.30304 0.0
H213 H 0.26458 0.00984 0.30727 0.0
H214 H 0.20991 0.01694 0.2782 0.0
H215 H 0.1784 0.01505 0.22671 0.0
Mn216 Mn 0.65637 0.94039 0.83103 0.0
Mn217 Mn 0.69132 0.01283 0.81344 0.0
C218 C 0.69088 0.94421 0.78742 0.0
C219 C 0.65566 0.89325 0.8618 0.0
C220 C 0.62156 0.99571 0.79696 0.0
O221 O 0.64839 0.96772 0.87127 0.0
O222 O 0.67885 0.01226 0.86056 0.0
C223 C 0.75122 0.00735 0.85345 0.0
N224 N 0.73676 0.01162 0.8238 0.0
C225 C 0.78887 0.01543 0.79712 0.0
C226 C 0.8043 0.01141 0.82741 0.0
C227 C 0.78538 0.0073 0.85569 0.0
C228 C 0.75473 0.01562 0.79644 0.0
H229 H 0.7368 0.00385 0.87521 0.0
C230 C 0.66138 0.99469 0.87974 0.0
O231 O 0.62901 0.90448 0.84891 0.0
O232 O 0.68252 0.90922 0.85685 0.0
N233 N 0.70509 0.016 0.76886 0.0
C234 C 0.68653 0.01723 0.74126 0.0
C235 C 0.70181 0.01985 0.7107 0.0
C236 C 0.73596 0.02133 0.70882 0.0
C237 C 0.75454 0.02034 0.73754 0.0
C238 C 0.73796 0.01801 0.76734 0.0
H239 H 0.66028 0.0159 0.74248 0.0
O240 O 0.67096 0.91966 0.78987 0.0
O241 O 0.6911 0.96493 0.8115 0.0
O242 O 0.62273 0.96602 0.80588 0.0
O243 O 0.64466 0.01627 0.80098 0.0
C244 C 0.78888 0.02083 0.73772 0.0
C245 C 0.80604 0.01839 0.76748 0.0
H246 H 0.83065 0.01102 0.8292 0.0
H247 H 0.79711 0.00393 0.87912 0.0
H248 H 0.6873 0.02051 0.68864 0.0
H249 H 0.74766 0.02295 0.68518 0.0
H250 H 0.80235 0.02263 0.71506 0.0
H251 H 0.83244 0.01825 0.76724 0.0
Mn252 Mn 0.34828 0.06733 0.82538 0.0
Mn253 Mn 0.32172 0.99223 0.80498 0.0
C254 C 0.3136 0.06137 0.78201 0.0
C255 C 0.34383 0.11308 0.85778 0.0
C256 C 0.38917 0.01788 0.78953 0.0
O257 O 0.35976 0.0394 0.8645 0.0
O258 O 0.33384 0.9924 0.85217 0.0
C259 C 0.26144 0.98878 0.84453 0.0
N260 N 0.27642 0.98753 0.8149 0.0
C261 C 0.22527 0.97837 0.78755 0.0
C262 C 0.20937 0.97915 0.81782 0.0
C263 C 0.22753 0.98446 0.84642 0.0
C264 C 0.25918 0.98244 0.78721 0.0
H265 H 0.27522 0.99323 0.86654 0.0
C266 C 0.34952 0.01096 0.87199 0.0
O267 O 0.37146 0.10549 0.84439 0.0
O268 O 0.31898 0.09419 0.85253 0.0
N269 N 0.30857 0.98953 0.76016 0.0
C270 C 0.32715 0.99223 0.73272 0.0
C271 C 0.31237 0.98932 0.70192 0.0
C272 C 0.27869 0.98358 0.69962 0.0
C273 C 0.26009 0.98068 0.72817 0.0
C274 C 0.27619 0.98354 0.75821 0.0
H275 H 0.35301 0.99685 0.73427 0.0
O276 O 0.33077 0.08784 0.78514 0.0
O277 O 0.31633 0.0398 0.80517 0.0
O278 O 0.38444 0.047 0.79907 0.0
O279 O 0.36855 0.99472 0.79298 0.0
C280 C 0.22608 0.97586 0.72797 0.0
C281 C 0.20869 0.97469 0.75763 0.0
H282 H 0.18317 0.97621 0.81934 0.0
H283 H 0.21539 0.98541 0.86984 0.0
H284 H 0.32687 0.99171 0.68 0.0
H285 H 0.26731 0.98174 0.67582 0.0
H286 H 0.213 0.9735 0.70512 0.0
H287 H 0.18247 0.97157 0.75713 0.0
Mn288 Mn 0.1512 0.66161 0.05543 0.0
Mn289 Mn 0.17457 0.67706 0.97816 0.0
C290 C 0.20086 0.68531 0.04598 0.0
C291 C 0.12283 0.67708 0.1015 0.0
C292 C 0.17669 0.60992 0.00923 0.0
O293 O 0.10972 0.6571 0.02941 0.0
O294 O 0.12592 0.67295 0.97924 0.0
C295 C 0.14571 0.74282 0.96971 0.0
N296 N 0.17236 0.72297 0.96978 0.0
C297 C 0.20787 0.76818 0.95756 0.0
C298 C 0.18075 0.78902 0.95699 0.0
C299 C 0.14954 0.77628 0.96311 0.0
C300 C 0.20249 0.73494 0.96376 0.0
H301 H 0.12173 0.73324 0.97484 0.0
C302 C 0.10393 0.66391 -0.00037 0.0
O303 O 0.12851 0.64644 0.09555 0.0
O304 O 0.13303 0.69851 0.08055 0.0
N305 N 0.22082 0.68213 0.97421 0.0
C306 C 0.24468 0.65931 0.97831 0.0
C307 C 0.27747 0.66845 0.97465 0.0
C308 C 0.28541 0.70091 0.96683 0.0
C309 C 0.26045 0.72393 0.96258 0.0
C310 C 0.22817 0.71332 0.96614 0.0
H311 H 0.23878 0.63441 0.98468 0.0
O312 O 0.195 0.67082 0.07357 0.0
O313 O 0.17692 0.68626 0.02509 0.0
O314 O 0.16766 0.61866 0.03757 0.0
O315 O 0.17853 0.6292 0.98474 0.0
C316 C 0.26638 0.75717 0.95583 0.0
C317 C 0.24011 0.77926 0.95325 0.0
H318 H 0.18365 0.81492 0.95235 0.0
H319 H 0.12852 0.79227 0.96301 0.0
H320 H 0.29661 0.65058 0.97813 0.0
H321 H 0.31076 0.70796 0.96447 0.0
H322 H 0.29109 0.7661 0.95309 0.0
H323 H 0.24501 0.80485 0.94857 0.0
Mn324 Mn 0.17948 0.33184 0.91587 0.0
Mn325 Mn 0.18578 0.30044 0.99137 0.0
C326 C 0.2244 0.30126 0.92936 0.0
C327 C 0.15706 0.32755 0.8645 0.0
C328 C 0.19663 0.37185 0.9751 0.0
O329 O 0.13417 0.33613 0.93484 0.0
O330 O 0.13864 0.3071 0.98137 0.0
C331 C 0.15512 0.23581 0.98093 0.0
N332 N 0.18145 0.25395 0.99001 0.0
C333 C 0.21311 0.20556 0.00045 0.0
C334 C 0.18625 0.18635 0.99145 0.0
C335 C 0.15715 0.20156 0.98159 0.0
C336 C 0.20957 0.23959 -0.00047 0.0
H337 H 0.13279 0.2474 0.97308 0.0
C338 C 0.1218 0.32262 0.95996 0.0
O339 O 0.16488 0.35597 0.87626 0.0
O340 O 0.163 0.30189 0.88209 0.0
N341 N 0.23026 0.29243 0.00321 0.0
C342 C 0.25467 0.31438 0.00859 0.0
C343 C 0.2858 0.30309 0.01736 0.0
C344 C 0.29149 0.26939 0.02059 0.0
C345 C 0.26598 0.24728 0.01504 0.0
C346 C 0.23541 0.25996 0.00657 0.0
H347 H 0.2505 0.3403 0.00602 0.0
O348 O 0.2253 0.32054 0.90414 0.0
O349 O 0.19693 0.3001 0.94501 0.0
O350 O 0.19537 0.36893 0.94424 0.0
O351 O 0.19119 0.34852 0.99515 0.0
C352 C 0.26985 0.21313 0.01695 0.0
C353 C 0.24347 0.19227 0.00955 0.0
H354 H 0.18782 0.15993 0.99164 0.0
H355 H 0.1364 0.1869 0.97438 0.0
H356 H 0.30541 0.32031 0.02147 0.0
H357 H 0.31562 0.26076 0.02705 0.0
H358 H 0.29314 0.20263 0.02368 0.0
H359 H 0.24693 0.16605 0.01051 0.0
Mn360 Mn 0.80156 0.66451 0.92418 0.0
Mn361 Mn 0.80013 0.69976 -0.0018 0.0
C362 C 0.75839 0.69735 0.93832 0.0
C363 C 0.82051 0.66537 0.87125 0.0
C364 C 0.78694 0.62792 0.98629 0.0
O365 O 0.84796 0.66025 0.94077 0.0
O366 O 0.84645 0.69133 0.98616 0.0
C367 C 0.83199 0.76298 0.98356 0.0
N368 N 0.80559 0.74599 0.99445 0.0
C369 C 0.77581 0.79568 0.00424 0.0
C370 C 0.80276 0.81371 0.99334 0.0
C371 C 0.83095 0.79727 0.9829 0.0
C372 C 0.77836 0.76155 0.0046 0.0
H373 H 0.85364 0.75044 0.9753 0.0
C374 C 0.86189 0.67466 0.9646 0.0
O375 O 0.81296 0.63787 0.88516 0.0
O376 O 0.81652 0.69211 0.88775 0.0
N377 N 0.75649 0.70952 0.01161 0.0
C378 C 0.73173 0.68853 0.01882 0.0
C379 C 0.7013 0.70108 0.02825 0.0
C380 C 0.69666 0.73503 0.03024 0.0
C381 C 0.72251 0.75615 0.02274 0.0
C382 C 0.75234 0.74224 0.01364 0.0
H383 H 0.73508 0.66243 0.01718 0.0
O384 O 0.75536 0.67653 0.91454 0.0
O385 O 0.7867 0.69824 0.95245 0.0
O386 O 0.78659 0.6293 0.95531 0.0
O387 O 0.79384 0.6521 0.00478 0.0
C388 C 0.71965 0.79045 0.02331 0.0
C389 C 0.74626 0.8102 0.01403 0.0
H390 H 0.80193 0.84016 0.9925 0.0
H391 H 0.85176 0.81101 0.97423 0.0
H392 H 0.68142 0.68462 0.03386 0.0
H393 H 0.67307 0.74461 0.03726 0.0
H394 H 0.69694 0.80189 0.03045 0.0
H395 H 0.74358 0.83654 0.01404 0.0
Mn396 Mn 0.83726 0.33709 0.06369 0.0
Mn397 Mn 0.81006 0.32434 0.98716 0.0
C398 C 0.78682 0.31448 0.05583 0.0
C399 C 0.86771 0.3198 0.1078 0.0
C400 C 0.8105 0.39057 0.02024 0.0
O401 O 0.8775 0.34186 0.03595 0.0
O402 O 0.85876 0.32749 0.9862 0.0
C403 C 0.83724 0.25834 0.9756 0.0
N404 N 0.81101 0.27867 0.97738 0.0
C405 C 0.77412 0.23452 0.96535 0.0
C406 C 0.80078 0.21321 0.96301 0.0
C407 C 0.83246 0.22518 0.96818 0.0
C408 C 0.78041 0.26744 0.97231 0.0
H409 H 0.86159 0.26731 0.98002 0.0
C410 C 0.88181 0.33565 0.00581 0.0
O411 O 0.86206 0.35067 0.10315 0.0
O412 O 0.85614 0.29915 0.08678 0.0
N413 N 0.76358 0.32022 0.98512 0.0
C414 C 0.74038 0.34334 0.99088 0.0
C415 C 0.70728 0.33492 0.98834 0.0
C416 C 0.69838 0.30287 0.9799 0.0
C417 C 0.72268 0.27954 0.97392 0.0
C418 C 0.75528 0.28944 0.97645 0.0
H419 H 0.74703 0.36792 -0.00228 0.0
O420 O 0.79425 0.32793 0.08356 0.0
O421 O 0.80972 0.31378 0.03385 0.0
O422 O 0.8206 0.38083 0.04791 0.0
O423 O 0.8073 0.37205 0.99531 0.0
C424 C 0.71581 0.24665 0.96642 0.0
C425 C 0.74151 0.22417 0.96208 0.0
H426 H 0.79717 0.18753 0.95772 0.0
H427 H 0.85314 0.20882 0.96671 0.0
H428 H 0.68867 0.35302 0.99313 0.0
H429 H 0.67283 0.29637 0.97838 0.0
H430 H 0.69084 0.23827 0.96444 0.0
H431 H 0.73591 0.19884 0.95683 0.0
C432 C 0.96921 0.22657 0.43541 0.0
C433 C 0.99003 0.20626 0.41744 0.0
C434 C 0.9729 0.22982 0.46921 0.0
C435 C -0.00258 0.2116 0.48523 0.0
C436 C 0.02007 0.19307 0.46683 0.0
C437 C 0.01631 0.19096 0.43292 0.0
C438 C 0.94914 0.25081 0.48795 0.0
C439 C 0.04647 0.17316 0.48315 0.0
C440 C 0.02181 0.22152 0.57345 0.0
C441 C 0.00472 0.19568 0.58788 0.0
C442 C 0.01789 0.22866 0.54028 0.0
C443 C -0.00275 0.20867 0.5212 0.0
C444 C 0.97866 0.18355 0.53616 0.0
C445 C 0.98236 0.1776 0.56965 0.0
C446 C 0.03719 0.25632 0.5254 0.0
C447 C 0.95662 0.16153 0.51644 0.0
H448 H 0.94903 0.23864 0.42323 0.0
H449 H 0.03225 0.1751 0.41898 0.0
H450 H 0.93107 0.23495 0.50039 0.0
H451 H 0.96192 0.26517 0.50704 0.0
H452 H 0.93575 0.2679 0.47165 0.0
H453 H 0.06354 0.16214 0.46522 0.0
H454 H 0.06066 0.18853 0.50032 0.0
H455 H 0.03516 0.15319 0.49758 0.0
H456 H 0.03902 0.23549 0.58795 0.0
H457 H 0.96946 0.15749 0.58108 0.0
H458 H 0.02173 0.27089 0.50858 0.0
H459 H 0.05766 0.24622 0.5109 0.0
H460 H 0.04746 0.27283 0.54432 0.0
H461 H 0.9391 0.17629 0.50201 0.0
H462 H 0.94269 0.14426 0.53205 0.0
H463 H 0.97144 0.14716 0.4989 0.0
C464 C 0.99266 0.76351 0.43239 0.0
C465 C 0.02197 0.77766 0.42194 0.0
C466 C 0.98674 0.75834 0.4657 0.0
C467 C 0.01043 0.76823 0.48883 0.0
C468 C 0.04123 0.77945 0.47822 0.0
C469 C 0.04674 0.78373 0.44485 0.0
C470 C 0.95401 0.7452 0.47619 0.0
C471 C 0.06704 0.79061 0.50208 0.0
C472 C 0.97723 0.80978 0.56379 0.0
C473 C 0.98366 0.7867 0.58811 0.0
C474 C 0.98602 0.80393 0.53144 0.0
C475 C 0.00075 0.77377 0.52313 0.0
C476 C 0.00706 0.75014 0.54758 0.0
C477 C -0.00112 0.75716 0.58012 0.0
C478 C 0.97969 0.8302 0.50623 0.0
C479 C 0.02186 0.71742 0.53928 0.0
H480 H 0.9737 0.75799 0.41477 0.0
H481 H 0.06972 0.7942 0.43703 0.0
H482 H 0.95663 0.7284 0.4973 0.0
H483 H 0.93821 0.76579 0.48394 0.0
H484 H 0.94154 0.73206 0.45599 0.0
H485 H 0.09127 0.79324 0.49026 0.0
H486 H 0.05993 0.8147 0.51228 0.0
H487 H 0.06933 0.77331 0.52279 0.0
H488 H 0.96556 0.83268 0.57023 0.0
H489 H 0.00346 0.73924 0.59903 0.0
H490 H 0.96267 0.82093 0.48732 0.0
H491 H 0.00277 0.8369 0.49379 0.0
H492 H 0.96903 0.85265 0.5171 0.0
H493 H 0.0059 0.70437 0.52171 0.0
H494 H 0.02525 0.70179 0.56121 0.0
H495 H 0.04582 0.7208 0.52723 0.0
C496 C 0.44321 0.95134 0.1836 0.0
C497 C 0.41759 0.96745 0.19943 0.0
C498 C 0.47548 0.9612 0.18831 0.0
C499 C 0.48222 0.98712 0.21014 0.0
C500 C 0.45668 0.00178 0.22811 0.0
C501 C 0.42444 0.99218 0.22204 0.0
C502 C 0.50197 0.94555 0.16802 0.0
C503 C 0.46322 0.02866 0.25248 0.0
C504 C 0.57238 -0.0008 0.22536 0.0
C505 C 0.57933 0.02416 0.20302 0.0
C506 C 0.54027 0.98826 0.22973 0.0
C507 C 0.51513 0.00177 0.21027 0.0
C508 C 0.52204 0.02744 0.18819 0.0
C509 C 0.55403 0.03868 0.18524 0.0
C510 C 0.53344 0.96169 0.25435 0.0
C511 C 0.49603 0.04187 0.16634 0.0
H512 H 0.4379 0.93228 0.166 0.0
H513 H 0.40462 0.00438 0.23457 0.0
H514 H 0.51202 0.96383 0.1507 0.0
H515 H 0.52233 0.93725 0.18378 0.0
H516 H 0.49289 0.9243 0.15378 0.0
H517 H 0.44193 0.03302 0.26864 0.0
H518 H 0.48473 0.02262 0.26779 0.0
H519 H 0.46874 0.05171 0.23933 0.0
H520 H 0.59198 0.98819 0.2393 0.0
H521 H 0.55951 0.05785 0.16779 0.0
H522 H 0.52828 0.93841 0.24148 0.0
H523 H 0.51157 0.96784 0.26905 0.0
H524 H 0.55439 0.95771 0.2711 0.0
H525 H 0.4861 0.02261 0.15004 0.0
H526 H 0.50545 0.06214 0.15096 0.0
H527 H 0.4755 0.05128 0.18119 0.0
C528 C 0.57148 0.02862 0.80004 0.0
C529 C 0.59081 0.00653 0.78282 0.0
C530 C 0.5382 0.03133 0.79301 0.0
C531 C 0.52459 0.01196 0.76771 0.0
C532 C 0.54499 0.99254 0.74785 0.0
C533 C 0.57796 0.98956 0.75609 0.0
C534 C 0.51714 0.05227 0.81483 0.0
C535 C 0.53161 0.97271 0.71983 0.0
C536 C 0.43973 0.98523 0.79001 0.0
C537 C 0.42153 0.01069 0.77651 0.0
C538 C 0.47349 0.98392 0.78529 0.0
C539 C 0.48881 0.00821 0.76591 0.0
C540 C 0.46981 0.03159 0.74912 0.0
C541 C 0.43627 0.03293 0.75511 0.0
C542 C 0.49302 0.95859 0.80369 0.0
C543 C 0.48512 0.05685 0.72708 0.0
H544 H 0.58168 0.04138 0.82089 0.0
H545 H 0.59329 0.97251 0.74285 0.0
H546 H 0.50125 0.06842 0.80002 0.0
H547 H 0.50104 0.03634 0.82972 0.0
H548 H 0.53186 0.06769 0.83162 0.0
H549 H 0.55111 0.96585 0.70231 0.0
H550 H 0.52056 0.9499 0.7294 0.0
H551 H 0.51233 0.98636 0.70657 0.0
H552 H 0.42812 0.96821 0.80665 0.0
H553 H 0.42184 0.05243 0.74446 0.0
H554 H 0.50787 0.97081 0.8228 0.0
H555 H 0.51006 0.94584 0.78703 0.0
H556 H 0.47722 0.94007 0.81565 0.0
H557 H 0.49547 0.07686 0.74212 0.0
H558 H 0.46692 0.06765 0.71011 0.0
H559 H 0.50529 0.0461 0.7126 0.0
C560 C 0.22593 0.42461 0.97439 0.0
C561 C 0.20145 0.40489 0.9877 0.0
C562 C 0.22649 0.45825 0.98051 0.0
C563 C 0.20123 0.47231 -0.0007 0.0
C564 C 0.17752 0.45212 0.0143 0.0
C565 C 0.17822 0.41838 0.00866 0.0
C566 C 0.25285 0.47891 0.96515 0.0
C567 C 0.14985 0.46636 0.03401 0.0
C568 C 0.2037 0.55963 0.0292 0.0
C569 C 0.18554 0.57553 0.00495 0.0
C570 C 0.21033 0.52617 0.02698 0.0
C571 C 0.19751 0.50823 0.00045 0.0
C572 C 0.17969 0.52438 0.97554 0.0
C573 C 0.17436 0.55811 0.97785 0.0
C574 C 0.23041 0.50992 0.0533 0.0
C575 C 0.16515 0.50585 0.94715 0.0
H576 H 0.24387 0.41388 0.95818 0.0
H577 H 0.15909 0.40295 0.01849 0.0
H578 H 0.24254 0.49278 0.94429 0.0
H579 H 0.26245 0.49695 0.98295 0.0
H580 H 0.27342 0.46381 0.95603 0.0
H581 H 0.13491 0.44715 0.046 0.0
H582 H 0.15935 0.48311 0.05304 0.0
H583 H 0.13379 0.48092 0.01774 0.0
H584 H 0.21261 0.57343 0.04998 0.0
H585 H 0.16019 0.57058 0.95928 0.0
H586 H 0.25031 0.49531 0.04221 0.0
H587 H 0.21491 0.49285 0.06748 0.0
H588 H 0.24128 0.52793 0.07044 0.0
H589 H 0.18458 0.49283 0.93357 0.0
H590 H 0.15198 0.52213 0.92989 0.0
H591 H 0.14786 0.48712 0.95633 0.0
C592 C 0.75747 0.57537 0.98987 0.0
C593 C 0.78283 0.59552 0.0007 0.0
C594 C 0.75769 0.54186 0.99671 0.0
C595 C 0.78457 0.52833 0.01363 0.0
C596 C 0.80915 0.54902 0.02644 0.0
C597 C 0.8077 0.58264 0.02017 0.0
C598 C 0.73045 0.5207 0.98375 0.0
C599 C 0.83849 0.53538 0.0441 0.0
C600 C 0.78566 0.44076 0.04317 0.0
C601 C 0.80177 0.42517 0.01735 0.0
C602 C 0.77869 0.47422 0.04181 0.0
C603 C 0.78909 0.49248 0.01446 0.0
C604 C 0.80498 0.4767 0.98809 0.0
C605 C 0.81067 0.44298 0.98965 0.0
C606 C 0.76068 0.49007 0.06976 0.0
C607 C 0.81692 0.49557 0.95874 0.0
H608 H 0.73828 0.58562 0.97477 0.0
H609 H 0.82749 0.59836 0.02805 0.0
H610 H 0.73911 0.50703 0.96205 0.0
H611 H 0.7228 0.5025 0.00231 0.0
H612 H 0.70889 0.53544 0.97645 0.0
H613 H 0.85372 0.55492 0.05517 0.0
H614 H 0.83085 0.51823 0.0636 0.0
H615 H 0.85374 0.52141 0.02662 0.0
H616 H 0.77845 0.4267 0.06442 0.0
H617 H 0.82325 0.43078 0.96983 0.0
H618 H 0.7395 0.50413 0.06041 0.0
H619 H 0.77694 0.5076 0.08246 0.0
H620 H 0.75183 0.47187 0.08785 0.0
H621 H 0.79621 0.50809 0.94662 0.0
H622 H 0.82915 0.47962 0.94055 0.0
H623 H 0.83439 0.51473 0.96663 0.0
C624 C 0.173 0.14149 0.69808 0.0
C625 C 0.15111 0.12458 0.67825 0.0
C626 C 0.20163 0.12657 0.70889 0.0
C627 C 0.20776 0.09356 0.70042 0.0
C628 C 0.18638 0.07686 0.67901 0.0
C629 C 0.15819 0.09282 0.66785 0.0
C630 C 0.22415 0.1455 0.73118 0.0
C631 C 0.19169 0.04154 0.6699 0.0
C632 C 0.2926 0.07031 0.7261 0.0
C633 C 0.28689 0.06108 0.75846 0.0
C634 C 0.26651 0.07762 0.70525 0.0
C635 C 0.23433 0.07615 0.71752 0.0
C636 C 0.22851 0.06423 0.74943 0.0
C637 C 0.255 0.05754 0.76981 0.0
C638 C 0.27353 0.08983 0.67123 0.0
C639 C 0.19443 0.06151 0.76307 0.0
H640 H 0.16717 0.16613 0.70594 0.0
H641 H 0.14075 0.07981 0.65276 0.0
H642 H 0.22289 0.13522 0.75623 0.0
H643 H 0.24975 0.14335 0.72275 0.0
H644 H 0.21765 0.17183 0.73241 0.0
H645 H 0.17992 0.03564 0.64619 0.0
H646 H 0.21798 0.03536 0.66844 0.0
H647 H 0.18051 0.02578 0.68888 0.0
H648 H 0.31746 0.07339 0.71766 0.0
H649 H 0.25078 0.0514 0.79521 0.0
H650 H 0.27047 0.11677 0.67056 0.0
H651 H 0.25613 0.07915 0.65343 0.0
H652 H 0.29878 0.08389 0.66345 0.0
H653 H 0.18432 0.08633 0.76719 0.0
H654 H 0.19392 0.04804 0.78661 0.0
H655 H 0.17825 0.04884 0.74543 0.0
C656 C 0.70812 0.937 0.73007 0.0
C657 C 0.71638 0.94298 0.76265 0.0
C658 C 0.73209 0.92804 0.70746 0.0
C659 C 0.76464 0.92424 0.7182 0.0
C660 C 0.77337 0.93299 0.75049 0.0
C661 C 0.74891 0.94165 0.77257 0.0
C662 C 0.72209 0.91963 0.67304 0.0
C663 C 0.80801 0.93008 0.76262 0.0
C664 C 0.81497 0.85194 0.69313 0.0
C665 C 0.83918 0.86678 0.67441 0.0
C666 C 0.78887 0.87015 0.70518 0.0
C667 C 0.78765 0.9042 0.69897 0.0
C668 C 0.81099 0.9189 0.67818 0.0
C669 C 0.83663 0.89979 0.66589 0.0
C670 C 0.76415 0.85335 0.7268 0.0
C671 C 0.8107 0.95509 0.67116 0.0
H672 H 0.68272 0.93777 0.72271 0.0
H673 H 0.75499 0.94543 0.79806 0.0
H674 H 0.74041 0.92861 0.65525 0.0
H675 H 0.72062 0.89267 0.67049 0.0
H676 H 0.69791 0.93016 0.66677 0.0
H677 H 0.81137 0.94187 0.78682 0.0
H678 H 0.81463 0.90387 0.76489 0.0
H679 H 0.8251 0.94144 0.74499 0.0
H680 H 0.81733 0.82634 0.69963 0.0
H681 H 0.85585 0.91115 0.65168 0.0
H682 H 0.73901 0.85976 0.71912 0.0
H683 H 0.76732 0.86171 0.75238 0.0
H684 H 0.7667 0.82632 0.72629 0.0
H685 H 0.78557 0.96513 0.67091 0.0
H686 H 0.82256 0.96054 0.6474 0.0
H687 H 0.82462 0.96793 0.69053 0.0
C688 C 0.24962 0.92568 0.2211 0.0
C689 C 0.28165 0.92302 0.23241 0.0
C690 C 0.22332 0.92161 0.24233 0.0
C691 C 0.22941 0.91383 0.27544 0.0
C692 C 0.26176 0.91366 0.28748 0.0
C693 C 0.28771 0.91766 0.26557 0.0
C694 C 0.18915 0.92257 0.22862 0.0
C695 C 0.269 0.90669 0.3229 0.0
C696 C 0.15246 0.90395 0.32565 0.0
C697 C 0.14655 0.87062 0.32113 0.0
C698 C 0.18073 0.91842 0.31278 0.0
C699 C 0.20288 0.89889 0.29483 0.0
C700 C 0.19752 0.8648 0.29183 0.0
C701 C 0.16928 0.85112 0.30504 0.0
C702 C 0.18562 0.95473 0.31674 0.0
C703 C 0.22047 0.84304 0.27285 0.0
H704 H 0.24511 0.92906 0.19522 0.0
H705 H 0.31265 0.91545 0.27408 0.0
H706 H 0.17887 0.89748 0.22821 0.0
H707 H 0.17318 0.93778 0.2443 0.0
H708 H 0.1885 0.93255 0.2034 0.0
H709 H 0.29426 0.9139 0.32959 0.0
H710 H 0.2516 0.91985 0.33894 0.0
H711 H 0.26614 0.88014 0.32762 0.0
H712 H 0.13448 0.91885 0.33809 0.0
H713 H 0.16427 0.82529 0.30168 0.0
H714 H 0.17412 0.96754 0.29582 0.0
H715 H 0.21185 0.96136 0.31729 0.0
H716 H 0.17384 0.96375 0.33943 0.0
H717 H 0.22018 0.85016 0.24669 0.0
H718 H 0.21373 0.8168 0.27465 0.0
H719 H 0.2458 0.84602 0.28186 0.0
C720 C 0.74307 0.07578 0.23604 0.0
C721 C 0.71066 0.07593 0.24645 0.0
C722 C 0.76851 0.08044 0.25819 0.0
C723 C 0.76114 0.08611 0.29146 0.0
C724 C 0.72853 0.0839 0.30249 0.0
C725 C 0.70341 0.07946 0.27961 0.0
C726 C 0.80302 0.08201 0.24542 0.0
C727 C 0.72006 0.08826 0.33803 0.0
C728 C 0.83931 0.09404 0.33929 0.0
C729 C 0.84491 0.12755 0.3359 0.0
C730 C 0.81007 0.08018 0.3281 0.0
C731 C 0.78676 0.10042 0.31254 0.0
C732 C 0.79148 0.13474 0.31163 0.0
C733 C 0.82065 0.14788 0.32341 0.0
C734 C 0.80577 0.04367 0.33042 0.0
C735 C 0.76736 0.15727 0.29515 0.0
H736 H 0.74846 0.0738 0.2102 0.0
H737 H 0.67817 0.0797 0.28744 0.0
H738 H 0.81249 0.10731 0.24784 0.0
H739 H 0.81908 0.06575 0.25994 0.0
H740 H 0.80467 0.07467 0.21936 0.0
H741 H 0.69512 0.0792 0.34354 0.0
H742 H 0.73783 0.07518 0.35376 0.0
H743 H 0.72121 0.11458 0.34441 0.0
H744 H 0.85843 0.07847 0.34896 0.0
H745 H 0.82545 0.17383 0.32081 0.0
H746 H 0.81828 0.03198 0.30945 0.0
H747 H 0.7797 0.03644 0.33 0.0
H748 H 0.81718 0.03408 0.35309 0.0
H749 H 0.76766 0.15283 0.26841 0.0
H750 H 0.7731 0.18345 0.29952 0.0
H751 H 0.74228 0.15236 0.30395 0.0
C752 C 0.69861 0.18995 0.14482 0.0
C753 C 0.67273 0.17079 0.13373 0.0
C754 C 0.70972 0.21649 0.12655 0.0
C755 C 0.6951 0.22337 0.09592 0.0
C756 C 0.66773 0.2051 0.08538 0.0
C757 C 0.65659 0.179 0.10472 0.0
C758 C 0.73857 0.23577 0.13915 0.0
C759 C 0.65175 0.21141 0.0528 0.0
C760 C 0.72886 0.30358 0.06826 0.0
C761 C 0.75834 0.29296 0.05479 0.0
C762 C 0.70509 0.28096 0.07791 0.0
C763 C 0.71142 0.24719 0.07415 0.0
C764 C 0.73928 0.2368 0.05662 0.0
C765 C 0.76292 0.25983 0.04797 0.0
C766 C 0.67541 0.29302 0.09594 0.0
C767 C 0.74629 0.20105 0.05097 0.0
H768 H 0.71088 0.18344 0.16738 0.0
H769 H 0.63674 0.16374 0.0961 0.0
H770 H 0.76019 0.23093 0.12362 0.0
H771 H 0.73344 0.26236 0.13805 0.0
H772 H 0.74488 0.22928 0.16473 0.0
H773 H 0.62635 0.20199 0.05227 0.0
H774 H 0.65151 0.23784 0.04676 0.0
H775 H 0.66576 0.19867 0.03345 0.0
H776 H 0.72558 0.3293 0.07372 0.0
H777 H 0.78617 0.25153 0.03854 0.0
H778 H 0.67992 0.2913 0.12261 0.0
H779 H 0.65373 0.27785 0.09022 0.0
H780 H 0.66996 0.31892 0.08989 0.0
H781 H 0.75473 0.18974 0.07412 0.0
H782 H 0.76553 0.19743 0.03223 0.0
H783 H 0.72391 0.18805 0.04308 0.0
C784 C 0.22325 0.74069 0.03869 0.0
C785 C 0.22881 0.70749 0.04436 0.0
C786 C 0.24699 0.76394 0.04649 0.0
C787 C 0.27609 0.75366 0.06199 0.0
C788 C 0.2831 0.71992 0.0648 0.0
C789 C 0.25915 0.6971 0.05603 0.0
C790 C 0.23906 0.79968 0.04203 0.0
C791 C 0.31399 0.70798 0.08082 0.0
C792 C 0.33278 0.8219 0.08897 0.0
C793 C 0.31894 0.82966 0.11921 0.0
C794 C 0.32024 0.79597 0.07026 0.0
C795 C 0.29383 0.77746 0.08267 0.0
C796 C 0.28154 0.784 0.11434 0.0
C797 C 0.29397 0.81039 0.13198 0.0
C798 C 0.33365 0.79003 0.0365 0.0
C799 C 0.25381 0.76447 0.12887 0.0
H800 H 0.19936 0.74877 0.03073 0.0
H801 H 0.26318 0.67132 0.06069 0.0
H802 H 0.23231 0.81046 0.06594 0.0
H803 H 0.26061 0.81314 0.03272 0.0
H804 H 0.2184 0.80337 0.02486 0.0
H805 H 0.31932 0.68221 0.07418 0.0
H806 H 0.33511 0.72345 0.07394 0.0
H807 H 0.31118 0.70937 0.10773 0.0
H808 H 0.35191 0.8373 0.07911 0.0
H809 H 0.28345 0.81665 0.15545 0.0
H810 H 0.31754 0.80197 0.01828 0.0
H811 H 0.33438 0.76356 0.03068 0.0
H812 H 0.35854 0.80038 0.03376 0.0
H813 H 0.23105 0.76936 0.11503 0.0
H814 H 0.24945 0.77068 0.15491 0.0
H815 H 0.25894 0.73791 0.12714 0.0
C816 C 0.70271 0.72168 0.94079 0.0
C817 C 0.73655 0.72559 0.93926 0.0
C818 C 0.68193 0.74842 0.93527 0.0
C819 C 0.6956 0.77907 0.92684 0.0
C820 C 0.72985 0.78335 0.92741 0.0
C821 C 0.74987 0.75643 0.93335 0.0
C822 C 0.64555 0.74334 0.93637 0.0
C823 C 0.74558 0.8157 0.91907 0.0
C824 C 0.66267 0.83376 0.8612 0.0
C825 C 0.6565 0.8621 0.87904 0.0
C826 C 0.67222 0.80502 0.87704 0.0
C827 C 0.67542 0.80491 0.91151 0.0
C828 C 0.6657 0.83264 0.92974 0.0
C829 C 0.65685 0.86131 0.91315 0.0
C830 C 0.68241 0.77607 0.85657 0.0
C831 C 0.66743 0.83317 0.96649 0.0
H832 H 0.69256 0.69761 0.94522 0.0
H833 H 0.7761 0.75913 0.93147 0.0
H834 H 0.63304 0.76516 0.94645 0.0
H835 H 0.63627 0.73932 0.91125 0.0
H836 H 0.63904 0.72166 0.95136 0.0
H837 H 0.77247 0.81518 0.92233 0.0
H838 H 0.74018 0.82214 0.8933 0.0
H839 H 0.7355 0.83534 0.93471 0.0
H840 H 0.66245 0.83479 0.83474 0.0
H841 H 0.65201 0.88352 0.92676 0.0
H842 H 0.67158 0.75322 0.86624 0.0
H843 H 0.70933 0.7734 0.85758 0.0
H844 H 0.67506 0.77884 0.8306 0.0
H845 H 0.66328 0.80852 0.977 0.0
H846 H 0.64919 0.85037 0.9768 0.0
H847 H 0.69193 0.8417 0.97413 0.0
C848 C 0.33866 0.14511 0.90889 0.0
C849 C 0.33927 0.144 0.87479 0.0
C850 C 0.327 0.17299 0.92505 0.0
C851 C 0.31465 0.19938 0.9064 0.0
C852 C 0.31771 0.19907 0.87192 0.0
C853 C 0.33023 0.1713 0.85655 0.0
C854 C 0.32559 0.17297 0.96182 0.0
C855 C 0.30468 0.22656 0.851 0.0
C856 C 0.23705 0.24275 0.92747 0.0
C857 C 0.24814 0.27474 0.93162 0.0
C858 C 0.25896 0.21714 0.92256 0.0
C859 C 0.2928 0.22393 0.92144 0.0
C860 C 0.30423 0.25583 0.92843 0.0
C861 C 0.2816 0.2812 0.93269 0.0
C862 C 0.24561 0.18343 0.9156 0.0
C863 C 0.34014 0.26363 0.92913 0.0
H864 H 0.34577 0.1237 0.9228 0.0
H865 H 0.33069 0.16998 0.83009 0.0
H866 H 0.32831 0.19803 0.97179 0.0
H867 H 0.30169 0.16316 0.96981 0.0
H868 H 0.34491 0.15712 0.97236 0.0
H869 H 0.31138 0.22365 0.82488 0.0
H870 H 0.27769 0.22728 0.85283 0.0
H871 H 0.31411 0.25041 0.85969 0.0
H872 H 0.21105 0.23807 0.92606 0.0
H873 H 0.28998 0.30613 0.93582 0.0
H874 H 0.25761 0.16508 0.93148 0.0
H875 H 0.25081 0.1767 0.88988 0.0
H876 H 0.21886 0.18196 0.91959 0.0
H877 H 0.35435 0.24305 0.93961 0.0
H878 H 0.3451 0.28606 0.94358 0.0
H879 H 0.3489 0.26782 0.90386 0.0
C880 C 0.04768 0.77392 0.24783 0.0
C881 C 0.05603 0.76048 0.27809 0.0
C882 C 0.05187 0.75606 0.21904 0.0
C883 C 0.06646 0.72478 0.2206 0.0
C884 C 0.07321 0.71036 0.2513 0.0
C885 C 0.06788 0.7285 0.27982 0.0
C886 C 0.04344 0.77181 0.18679 0.0
C887 C 0.08914 0.67723 0.25393 0.0
C888 C 0.07799 0.67588 0.14258 0.0
C889 C 0.10831 0.68769 0.13229 0.0
C890 C 0.06373 0.68764 0.17147 0.0
C891 C 0.08093 0.71072 0.19064 0.0
C892 C 0.11214 0.72171 0.18065 0.0
C893 C 0.12513 0.7105 0.15122 0.0
C894 C 0.0299 0.67647 0.18068 0.0
C895 C 0.13172 0.74568 0.2008 0.0
H896 H 0.03977 0.79916 0.24644 0.0
H897 H 0.07484 0.71846 0.30332 0.0
H898 H 0.06613 0.77823 0.17353 0.0
H899 H 0.02955 0.75447 0.17129 0.0
H900 H 0.02883 0.79443 0.18997 0.0
H901 H 0.088 0.66738 0.27918 0.0
H902 H 0.07742 0.65952 0.23712 0.0
H903 H 0.11514 0.67931 0.24674 0.0
H904 H 0.06504 0.65838 0.1275 0.0
H905 H 0.14872 0.7193 0.14309 0.0
H906 H 0.01234 0.69644 0.17553 0.0
H907 H 0.0283 0.67093 0.20715 0.0
H908 H 0.02229 0.65453 0.16664 0.0
H909 H 0.11903 0.7696 0.20158 0.0
H910 H 0.15659 0.74961 0.19081 0.0
H911 H 0.13399 0.73679 0.2263 0.0
C912 C 0.05656 0.22964 0.74794 0.0
C913 C 0.05687 0.23736 0.71472 0.0
C914 C 0.06589 0.25272 0.77126 0.0
C915 C 0.07744 0.28359 0.76077 0.0
C916 C 0.07466 0.29261 0.72754 0.0
C917 C 0.06447 0.26918 0.70475 0.0
C918 C 0.0674 0.2425 0.80665 0.0
C919 C 0.08616 0.32547 0.7155 0.0
C920 C 0.10794 0.33617 0.83038 0.0
C921 C 0.13963 0.32388 0.83364 0.0
C922 C 0.08758 0.32518 0.80506 0.0
C923 C 0.0997 0.30185 0.78265 0.0
C924 C 0.13278 0.29188 0.78431 0.0
C925 C 0.1522 0.30266 0.81019 0.0
C926 C 0.0525 0.33624 0.80425 0.0
C927 C 0.14695 0.26749 0.76052 0.0
H928 H 0.05184 0.2047 0.75553 0.0
H929 H 0.06497 0.27493 0.6789 0.0
H930 H 0.09309 0.23745 0.81351 0.0
H931 H 0.05832 0.26235 0.82266 0.0
H932 H 0.05281 0.2201 0.81134 0.0
H933 H 0.07505 0.33171 0.69155 0.0
H934 H 0.08032 0.34503 0.73329 0.0
H935 H 0.11304 0.32486 0.71244 0.0
H936 H 0.09824 0.35224 0.84905 0.0
H937 H 0.17672 0.29317 0.81311 0.0
H938 H 0.03718 0.31799 0.81713 0.0
H939 H 0.04331 0.33826 0.77885 0.0
H940 H 0.0494 0.36016 0.81669 0.0
H941 H 0.13612 0.24303 0.76501 0.0
H942 H 0.17385 0.26539 0.7629 0.0
H943 H 0.14106 0.27456 0.73505 0.0
C944 C 0.82161 0.68712 0.81534 0.0
C945 C 0.83545 0.66682 0.83895 0.0
C946 C 0.83924 0.69598 0.78754 0.0
C947 C 0.87186 0.68508 0.78407 0.0
C948 C 0.885 0.66243 0.80666 0.0
C949 C 0.86638 0.65331 0.83393 0.0
C950 C 0.82406 0.71973 0.7637 0.0
C951 C 0.91969 0.65047 0.804 0.0
C952 C 0.90729 0.71434 0.70432 0.0
C953 C 0.91792 0.74552 0.71349 0.0
C954 C 0.89511 0.69249 0.72775 0.0
C955 C 0.89328 0.7025 0.76075 0.0
C956 C 0.9066 0.73295 0.77033 0.0
C957 C 0.91804 0.75439 0.74643 0.0
C958 C 0.88149 0.66008 0.71674 0.0
C959 C 0.90581 0.74429 0.80541 0.0
H960 H 0.79766 0.69753 0.81957 0.0
H961 H 0.87709 0.63791 0.85265 0.0
H962 H 0.83519 0.74423 0.76699 0.0
H963 H 0.82869 0.71193 0.7382 0.0
H964 H 0.79731 0.72202 0.76731 0.0
H965 H 0.92295 0.62675 0.81681 0.0
H966 H 0.92729 0.64768 0.77817 0.0
H967 H 0.93617 0.66858 0.8156 0.0
H968 H 0.90679 0.7078 0.67868 0.0
H969 H 0.92499 0.77899 0.75332 0.0
H970 H 0.85453 0.66183 0.71517 0.0
H971 H 0.88744 0.64051 0.73453 0.0
H972 H 0.89096 0.65301 0.69234 0.0
H973 H 0.88027 0.74934 0.81274 0.0
H974 H 0.92034 0.7669 0.8092 0.0
H975 H 0.91542 0.72496 0.82178 0.0
C976 C 0.94332 0.21386 0.24718 0.0
C977 C 0.94097 0.22845 0.27794 0.0
C978 C 0.93829 0.23213 0.21875 0.0
C979 C 0.92908 0.26533 0.22143 0.0
C980 C 0.92856 0.28064 0.25241 0.0
C981 C 0.93443 0.26188 0.28044 0.0
C982 C 0.94001 0.21521 0.18606 0.0
C983 C 0.91873 0.31596 0.25621 0.0
C984 C 0.91646 0.31463 0.14374 0.0
C985 C 0.88358 0.30805 0.13748 0.0
C986 C 0.9319 0.30117 0.1713 0.0
C987 C 0.91355 0.28158 0.19309 0.0
C988 C 0.87995 0.27598 0.18717 0.0
C989 C 0.86554 0.28888 0.15907 0.0
C990 C 0.96795 0.30667 0.17619 0.0
C991 C 0.8593 0.25579 0.21013 0.0
H992 H 0.9472 0.18771 0.24538 0.0
H993 H 0.93212 0.27289 0.3044 0.0
H994 H 0.9151 0.21257 0.1758 0.0
H995 H 0.95446 0.23007 0.16863 0.0
H996 H 0.95111 0.19052 0.18791 0.0
H997 H 0.92445 0.32545 0.28097 0.0
H998 H 0.93117 0.33145 0.23782 0.0
H999 H 0.89208 0.31827 0.25207 0.0
H1000 H 0.93028 0.32927 0.12656 0.0
H1001 H 0.84004 0.28404 0.15393 0.0
H1002 H 0.98134 0.28437 0.16862 0.0
H1003 H 0.97381 0.31119 0.20224 0.0
H1004 H 0.97704 0.32752 0.16139 0.0
H1005 H 0.86796 0.2301 0.21017 0.0
H1006 H 0.83311 0.25591 0.20317 0.0
H1007 H 0.86156 0.26519 0.23544 0.0
C1008 C 0.03434 0.0525 0.65526 0.0
C1009 C 0.01339 0.07364 0.67232 0.0
C1010 C 0.02966 0.01858 0.65575 0.0
C1011 C 0.00349 0.00531 0.67385 0.0
C1012 C 0.9823 0.02638 0.69125 0.0
C1013 C 0.98742 0.06033 0.69017 0.0
C1014 C 0.05251 0.99697 0.63651 0.0
C1015 C 0.95417 0.01304 0.71092 0.0
C1016 C 0.96911 0.92317 0.64886 0.0
C1017 C 0.98291 0.90208 0.67211 0.0
C1018 C 0.9761 0.95664 0.64887 0.0
C1019 C -0.00284 0.96954 0.67297 0.0
C1020 C 0.01187 0.94833 0.69607 0.0
C1021 C 0.00478 0.9147 0.69519 0.0
C1022 C 0.96043 0.97828 0.62339 0.0
C1023 C 0.03432 0.96133 0.72224 0.0
H1024 H 0.05449 0.06244 0.64134 0.0
H1025 H 0.9713 0.07638 0.70366 0.0
H1026 H 0.06367 0.97838 0.65275 0.0
H1027 H 0.03866 0.98364 0.61742 0.0
H1028 H 0.07232 0.01108 0.62454 0.0
H1029 H 0.94087 0.03252 0.72429 0.0
H1030 H 0.93674 0.00033 0.69454 0.0
H1031 H 0.96315 0.99476 0.72881 0.0
H1032 H 0.95242 0.91349 0.63073 0.0
H1033 H 0.01536 0.89853 0.7133 0.0
H1034 H 0.97942 0.99203 0.60986 0.0
H1035 H 0.9444 0.99649 0.6354 0.0
H1036 H 0.94564 0.96416 0.60557 0.0
H1037 H 0.05487 0.97489 0.71099 0.0
H1038 H 0.04439 0.94156 0.73788 0.0
H1039 H 0.02089 0.97883 0.73795 0.0
C1040 C 0.00611 0.06133 0.33363 0.0
C1041 C 0.98329 0.07816 0.35275 0.0
C1042 C 0.00978 0.02737 0.33637 0.0
C1043 C 0.99059 0.0099 0.3592 0.0
C1044 C 0.9685 0.02687 0.37955 0.0
C1045 C 0.96492 0.06078 0.3759 0.0
C1046 C 0.03346 0.01006 0.31407 0.0
C1047 C 0.94818 0.00914 0.40466 0.0
C1048 C 0.97879 0.92017 0.33938 0.0
C1049 C 0.00449 0.90592 0.35691 0.0
C1050 C 0.97312 0.95396 0.34089 0.0
C1051 C 0.99319 0.97374 0.36095 0.0
C1052 C 0.01755 0.95912 0.38056 0.0
C1053 C 0.0231 0.92541 0.37809 0.0
C1054 C 0.94702 0.96873 0.31944 0.0
C1055 C 0.03888 0.97927 0.40288 0.0
H1056 H 0.02033 0.0745 0.31563 0.0
H1057 H 0.9474 0.07363 0.39097 0.0
H1058 H 0.05155 0.99619 0.32868 0.0
H1059 H 0.02017 0.99217 0.29864 0.0
H1060 H 0.04676 0.02727 0.29785 0.0
H1061 H 0.93401 0.02621 0.42024 0.0
H1062 H 0.9309 0.99238 0.39226 0.0
H1063 H 0.96402 0.99396 0.42057 0.0
H1064 H 0.96427 0.90527 0.32304 0.0
H1065 H 0.04274 0.91447 0.39206 0.0
H1066 H 0.95857 0.98426 0.30048 0.0
H1067 H 0.93074 0.98467 0.33402 0.0
H1068 H 0.93199 0.94981 0.3071 0.0
H1069 H 0.0557 0.99445 0.38805 0.0
H1070 H 0.05368 0.96379 0.41953 0.0
H1071 H 0.02383 0.99615 0.41776 0.0
C1072 C 0.68005 0.02694 0.92824 0.0
C1073 C 0.65832 0.00435 0.91443 0.0
C1074 C 0.68 0.03307 0.96194 0.0
C1075 C 0.65742 0.01651 0.98219 0.0
C1076 C 0.63461 0.99467 0.96826 0.0
C1077 C 0.63541 0.98876 0.93458 0.0
C1078 C 0.70474 0.0565 0.97602 0.0
C1079 C 0.60983 0.97696 0.98903 0.0
C1080 C 0.67787 0.00688 0.07213 0.0
C1081 C 0.66007 0.03261 0.08598 0.0
C1082 C 0.67718 0.0013 0.03832 0.0
C1083 C 0.65795 0.02171 0.01804 0.0
C1084 C 0.63934 0.0472 0.03197 0.0
C1085 C 0.64074 0.05243 0.06573 0.0
C1086 C 0.69747 0.97396 0.0242 0.0
C1087 C 0.61819 0.06916 0.01119 0.0
H1088 H 0.69792 0.03899 0.91292 0.0
H1089 H 0.61837 0.97141 0.92413 0.0
H1090 H 0.69225 0.07611 0.98989 0.0
H1091 H 0.72085 0.04337 0.99341 0.0
H1092 H 0.72013 0.06796 0.95687 0.0
H1093 H 0.59276 0.962 0.97419 0.0
H1094 H 0.6225 0.96066 0.00658 0.0
H1095 H 0.59547 0.99476 0.00352 0.0
H1096 H 0.69298 0.99159 0.08757 0.0
H1097 H 0.62669 0.07224 0.07624 0.0
H1098 H 0.71531 0.98405 0.00651 0.0
H1099 H 0.68165 0.95664 0.01066 0.0
H1100 H 0.71098 0.96021 0.0433 0.0
H1101 H 0.63349 0.0825 0.99328 0.0
H1102 H 0.60452 0.08731 0.02598 0.0
H1103 H 0.60047 0.05429 -0.0029 0.0
C1104 C 0.32725 0.99559 0.06265 0.0
C1105 C 0.34464 0.96993 0.07717 0.0
C1106 C 0.33013 0.00196 0.0291 0.0
C1107 C 0.35131 0.98256 0.00987 0.0
C1108 C 0.36991 0.95752 0.02466 0.0
C1109 C 0.36617 0.95135 0.05808 0.0
C1110 C 0.30969 0.02872 0.01404 0.0
C1111 C 0.39321 0.93676 0.00507 0.0
C1112 C 0.3324 0.97657 0.91945 0.0
C1113 C 0.35303 0.00061 0.90644 0.0
C1114 C 0.33195 0.97011 0.95307 0.0
C1115 C 0.35307 0.98768 0.97405 0.0
C1116 C 0.37513 0.01074 0.96089 0.0
C1117 C 0.3747 0.0171 0.92726 0.0
C1118 C 0.30795 0.94544 0.96628 0.0
C1119 C 0.39851 0.0294 0.98245 0.0
H1120 H 0.31052 0.00994 0.07725 0.0
H1121 H 0.37997 0.93169 0.06924 0.0
H1122 H 0.32553 0.04647 0.00111 0.0
H1123 H 0.29288 0.01807 0.99566 0.0
H1124 H 0.29504 0.0421 0.0325 0.0
H1125 H 0.40751 0.91979 0.02069 0.0
H1126 H 0.37944 0.92213 0.9869 0.0
H1127 H 0.4104 0.95254 0.99132 0.0
H1128 H 0.31554 0.96375 0.90359 0.0
H1129 H 0.39091 0.03554 0.91738 0.0
H1130 H 0.29061 0.95775 0.98303 0.0
H1131 H 0.3209 0.92646 0.98064 0.0
H1132 H 0.29381 0.93323 0.94661 0.0
H1133 H 0.38465 0.04566 -0.00093 0.0
H1134 H 0.4158 0.04458 0.96811 0.0
H1135 H 0.41268 0.01226 -0.00208 0.0
C1136 C 0.91507 0.69254 0.98881 0.0
C1137 C 0.89791 0.67269 0.9668 0.0
C1138 C 0.94916 0.69107 0.99095 0.0
C1139 C 0.96652 0.66902 0.9708 0.0
C1140 C 0.94947 0.64925 0.94819 0.0
C1141 C 0.91538 0.65139 0.94638 0.0
C1142 C 0.96657 0.71276 0.01518 0.0
C1143 C 0.96714 0.62526 0.9265 0.0
C1144 C 0.0579 0.68285 0.96402 0.0
C1145 C 0.06951 0.66251 0.98901 0.0
C1146 C 0.02438 0.68459 0.95704 0.0
C1147 C 0.00226 0.66515 0.97515 0.0
C1148 C 0.01412 0.64328 -0.00088 0.0
C1149 C 0.04755 0.6424 0.0059 0.0
C1150 C 0.01253 0.70832 0.93141 0.0
C1151 C 0.99138 0.6217 0.01854 0.0
H1152 H 0.90189 0.70935 0.00442 0.0
H1153 H 0.90242 0.636 0.92919 0.0
H1154 H 0.97863 0.69751 0.03405 0.0
H1155 H 0.9859 0.72704 0.00272 0.0
H1156 H 0.94973 0.73003 0.02756 0.0
H1157 H 0.95055 0.61324 0.90872 0.0
H1158 H 0.98685 0.63779 0.91283 0.0
H1159 H 0.97879 0.60609 0.94172 0.0
H1160 H 0.07477 0.69847 0.95095 0.0
H1161 H 0.05646 0.6263 0.02495 0.0
H1162 H -0.00179 0.72802 0.94325 0.0
H1163 H -0.00389 0.69584 0.91386 0.0
H1164 H 0.03296 0.71966 0.91767 0.0
H1165 H 0.97553 0.63704 0.03421 0.0
H1166 H 0.00476 0.60419 0.03438 0.0
H1167 H 0.97524 0.60768 0.0019 0.0
C1168 C 0.06993 0.30473 0.98682 0.0
C1169 C 0.08596 0.32452 0.96395 0.0
C1170 C 0.03598 0.30631 0.9906 0.0
C1171 C 0.01771 0.32846 0.97131 0.0
C1172 C 0.03363 0.34815 0.94786 0.0
C1173 C 0.06754 0.34586 0.94437 0.0
C1174 C 0.01972 0.28467 0.01564 0.0
C1175 C 0.01499 0.37228 0.92709 0.0
C1176 C 0.92594 0.31598 0.96842 0.0
C1177 C 0.91573 0.33651 0.99382 0.0
C1178 C 0.9591 0.31357 0.96018 0.0
C1179 C 0.98229 0.3326 0.97741 0.0
C1180 C 0.97182 0.35464 0.00182 0.0
C1181 C 0.93872 0.35614 0.00988 0.0
C1182 C 0.96947 0.28965 0.93414 0.0
C1183 C 0.99572 0.37584 0.02027 0.0
H1184 H 0.08387 0.2879 0.00176 0.0
H1185 H 0.07966 0.36123 0.92656 0.0
H1186 H 0.00879 0.29994 0.03514 0.0
H1187 H -0.00035 0.27059 0.00415 0.0
H1188 H 0.03707 0.26723 0.02708 0.0
H1189 H 0.03071 0.38424 0.90852 0.0
H1190 H 0.99453 0.3599 0.91441 0.0
H1191 H 0.00426 0.39148 0.94289 0.0
H1192 H 0.90826 0.30071 0.956 0.0
H1193 H 0.93088 0.37236 0.02928 0.0
H1194 H 0.98422 0.26988 0.94537 0.0
H1195 H 0.9851 0.30194 0.91577 0.0
H1196 H 0.9483 0.27844 0.92144 0.0
H1197 H 0.01216 0.36023 0.0351 0.0
H1198 H 0.98334 0.3934 0.03681 0.0
H1199 H 0.01118 0.38978 0.00296 0.0
loop_
_geom_bond_atom_site_label_1
_geom_bond_atom_site_label_2
_geom_bond_distance
_geom_bond_site_symmetry_2
_ccdc_geom_bond_type
Mn0 O5 2.095 . S
Mn0 O15 2.162 . S
Mn0 O16 2.297 . S
Mn0 O24 2.385 . S
Mn0 O25 2.209 . S
Mn0 O26 2.094 . S
Mn1 O6 2.121 . S
Mn1 N8 2.257 1_455 S
Mn1 N17 2.282 . S
Mn1 O25 2.215 . S
Mn1 O27 2.117 . S
C2 O24 1.234 . S
C2 O25 1.283 . S
C3 O15 1.281 . S
C3 O16 1.236 . S
C4 O26 1.240 . S
C4 O27 1.264 . S
O5 Mn0 2.095 . S
O5 C14 1.250 . S
O6 Mn1 2.121 . S
O6 C14 1.258 . S
C7 N8 1.326 . S
C7 C11 1.460 . S
C7 H13 0.929 . S
N8 Mn1 2.257 1_655 S
N8 C7 1.326 . S
N8 C12 1.362 . S
C9 C10 1.258 . S
C9 C12 1.431 . S
C9 C29 1.449 . S
C10 C9 1.258 . S
C10 C11 1.477 . S
C10 H30 0.931 . S
C11 C7 1.460 . S
C11 C10 1.477 . S
C11 H31 0.930 . S
C12 N8 1.362 . S
C12 C9 1.431 . S
C12 C22 1.476 . S
H13 C7 0.929 . S
C14 O5 1.250 . S
C14 O6 1.258 . S
O15 Mn0 2.162 . S
O15 C3 1.281 . S
O16 Mn0 2.297 . S
O16 C3 1.236 . S
N17 Mn1 2.282 . S
N17 C18 1.328 . S
N17 C22 1.318 1_455 S
C18 N17 1.328 . S
C18 C19 1.457 . S
C18 H23 0.929 . S
C19 C18 1.457 . S
C19 C20 1.291 1_455 S
C19 H32 0.931 . S
C20 C19 1.291 1_655 S
C20 C21 1.373 . S
C20 H33 0.929 . S
C21 C20 1.373 . S
C21 C22 1.396 . S
C21 C28 1.403 . S
C22 C12 1.476 . S
C22 N17 1.318 1_655 S
C22 C21 1.396 . S
H23 C18 0.929 . S
O24 Mn0 2.385 . S
O24 C2 1.234 . S
O25 Mn0 2.209 . S
O25 Mn1 2.215 . S
O25 C2 1.283 . S
O26 Mn0 2.094 . S
O26 C4 1.240 . S
O27 Mn1 2.117 . S
O27 C4 1.264 . S
C28 C21 1.403 . S
C28 C29 1.399 . S
C28 H34 0.929 . S
C29 C9 1.449 . S
C29 C28 1.399 . S
C29 H35 0.930 . S
H30 C10 0.931 . S
H31 C11 0.930 . S
H32 C19 0.931 . S
H33 C20 0.929 . S
H34 C28 0.929 . S
H35 C29 0.930 . S
Mn36 O41 2.095 . S
Mn36 O51 2.162 . S
Mn36 O52 2.297 . S
Mn36 O60 2.385 . S
Mn36 O61 2.209 . S
Mn36 O62 2.094 . S
Mn37 O42 2.121 . S
Mn37 N44 2.257 1_655 S
Mn37 N53 2.282 . S
Mn37 O61 2.215 . S
Mn37 O63 2.117 . S
C38 O60 1.234 . S
C38 O61 1.283 . S
C39 O51 1.281 . S
C39 O52 1.236 . S
C40 O62 1.240 . S
C40 O63 1.264 . S
O41 Mn36 2.095 . S
O41 C50 1.250 . S
O42 Mn37 2.121 . S
O42 C50 1.258 . S
C43 N44 1.326 . S
C43 C47 1.460 . S
C43 H49 0.929 . S
N44 Mn37 2.257 1_455 S
N44 C43 1.326 . S
N44 C48 1.362 . S
C45 C46 1.258 . S
C45 C48 1.431 . S
C45 C65 1.449 . S
C46 C45 1.258 . S
C46 C47 1.477 . S
C46 H66 0.931 . S
C47 C43 1.460 . S
C47 C46 1.477 . S
C47 H67 0.930 . S
C48 N44 1.362 . S
C48 C45 1.431 . S
C48 C58 1.476 . S
H49 C43 0.929 . S
C50 O41 1.250 . S
C50 O42 1.258 . S
O51 Mn36 2.162 . S
O51 C39 1.281 . S
O52 Mn36 2.297 . S
O52 C39 1.236 . S
N53 Mn37 2.282 . S
N53 C54 1.328 . S
N53 C58 1.318 1_655 S
C54 N53 1.328 . S
C54 C55 1.457 . S
C54 H59 0.929 . S
C55 C54 1.457 . S
C55 C56 1.291 1_655 S
C55 H68 0.931 . S
C56 C55 1.291 1_455 S
C56 C57 1.373 . S
C56 H69 0.929 . S
C57 C56 1.373 . S
C57 C58 1.396 . S
C57 C64 1.403 . S
C58 C48 1.476 . S
C58 N53 1.318 1_455 S
C58 C57 1.396 . S
H59 C54 0.929 . S
O60 Mn36 2.385 . S
O60 C38 1.234 . S
O61 Mn36 2.209 . S
O61 Mn37 2.215 . S
O61 C38 1.283 . S
O62 Mn36 2.094 . S
O62 C40 1.240 . S
O63 Mn37 2.117 . S
O63 C40 1.264 . S
C64 C57 1.403 . S
C64 C65 1.399 . S
C64 H70 0.929 . S
C65 C45 1.449 . S
C65 C64 1.399 . S
C65 H71 0.930 . S
H66 C46 0.931 . S
H67 C47 0.930 . S
H68 C55 0.931 . S
H69 C56 0.929 . S
H70 C64 0.929 . S
H71 C65 0.930 . S
Mn72 O77 2.095 . S
Mn72 O87 2.162 . S
Mn72 O88 2.297 . S
Mn72 O96 2.385 . S
Mn72 O97 2.209 . S
Mn72 O98 2.094 . S
Mn73 O78 2.121 . S
Mn73 N80 2.257 1_455 S
Mn73 N89 2.282 . S
Mn73 O97 2.215 . S
Mn73 O99 2.117 . S
C74 O96 1.234 . S
C74 O97 1.283 . S
C75 O87 1.281 . S
C75 O88 1.236 . S
C76 O98 1.240 . S
C76 O99 1.264 . S
O77 Mn72 2.095 . S
O77 C86 1.250 . S
O78 Mn73 2.121 . S
O78 C86 1.258 . S
C79 N80 1.326 . S
C79 C83 1.460 . S
C79 H85 0.929 . S
N80 Mn73 2.257 1_655 S
N80 C79 1.326 . S
N80 C84 1.362 . S
C81 C82 1.258 . S
C81 C84 1.431 . S
C81 C101 1.449 . S
C82 C81 1.258 . S
C82 C83 1.477 . S
C82 H102 0.931 . S
C83 C79 1.460 . S
C83 C82 1.477 . S
C83 H103 0.930 . S
C84 N80 1.362 . S
C84 C81 1.431 . S
C84 C94 1.476 . S
H85 C79 0.929 . S
C86 O77 1.250 . S
C86 O78 1.258 . S
O87 Mn72 2.162 . S
O87 C75 1.281 . S
O88 Mn72 2.297 . S
O88 C75 1.236 . S
N89 Mn73 2.282 . S
N89 C90 1.328 . S
N89 C94 1.318 1_455 S
C90 N89 1.328 . S
C90 C91 1.457 . S
C90 H95 0.929 . S
C91 C90 1.457 . S
C91 C92 1.291 1_455 S
C91 H104 0.931 . S
C92 C91 1.291 1_655 S
C92 C93 1.373 . S
C92 H105 0.929 . S
C93 C92 1.373 . S
C93 C94 1.396 . S
C93 C100 1.403 . S
C94 C84 1.476 . S
C94 N89 1.318 1_655 S
C94 C93 1.396 . S
H95 C90 0.929 . S
O96 Mn72 2.385 . S
O96 C74 1.234 . S
O97 Mn72 2.209 . S
O97 Mn73 2.215 . S
O97 C74 1.283 . S
O98 Mn72 2.094 . S
O98 C76 1.240 . S
O99 Mn73 2.117 . S
O99 C76 1.264 . S
C100 C93 1.403 . S
C100 C101 1.399 . S
C100 H106 0.929 . S
C101 C81 1.449 . S
C101 C100 1.399 . S
C101 H107 0.930 . S
H102 C82 0.931 . S
H103 C83 0.930 . S
H104 C91 0.931 . S
H105 C92 0.929 . S
H106 C100 0.929 . S
H107 C101 0.930 . S
Mn108 O113 2.095 . S
Mn108 O123 2.162 . S
Mn108 O124 2.297 . S
Mn108 O132 2.385 . S
Mn108 O133 2.209 . S
Mn108 O134 2.094 . S
Mn109 O114 2.121 . S
Mn109 N116 2.257 1_655 S
Mn109 N125 2.282 . S
Mn109 O133 2.215 . S
Mn109 O135 2.117 . S
C110 O132 1.234 . S
C110 O133 1.283 . S
C111 O123 1.281 . S
C111 O124 1.236 . S
C112 O134 1.240 . S
C112 O135 1.264 . S
O113 Mn108 2.095 . S
O113 C122 1.250 . S
O114 Mn109 2.121 . S
O114 C122 1.258 . S
C115 N116 1.326 . S
C115 C119 1.460 . S
C115 H121 0.929 . S
N116 Mn109 2.257 1_455 S
N116 C115 1.326 . S
N116 C120 1.362 . S
C117 C118 1.258 . S
C117 C120 1.431 . S
C117 C137 1.449 . S
C118 C117 1.258 . S
C118 C119 1.477 . S
C118 H138 0.931 . S
C119 C115 1.460 . S
C119 C118 1.477 . S
C119 H139 0.930 . S
C120 N116 1.362 . S
C120 C117 1.431 . S
C120 C130 1.476 . S
H121 C115 0.929 . S
C122 O113 1.250 . S
C122 O114 1.258 . S
O123 Mn108 2.162 . S
O123 C111 1.281 . S
O124 Mn108 2.297 . S
O124 C111 1.236 . S
N125 Mn109 2.282 . S
N125 C126 1.328 . S
N125 C130 1.318 1_655 S
C126 N125 1.328 . S
C126 C127 1.457 . S
C126 H131 0.929 . S
C127 C126 1.457 . S
C127 C128 1.291 1_655 S
C127 H140 0.931 . S
C128 C127 1.291 1_455 S
C128 C129 1.373 . S
C128 H141 0.929 . S
C129 C128 1.373 . S
C129 C130 1.396 . S
C129 C136 1.403 . S
C130 C120 1.476 . S
C130 N125 1.318 1_455 S
C130 C129 1.396 . S
H131 C126 0.929 . S
O132 Mn108 2.385 . S
O132 C110 1.234 . S
O133 Mn108 2.209 . S
O133 Mn109 2.215 . S
O133 C110 1.283 . S
O134 Mn108 2.094 . S
O134 C112 1.240 . S
O135 Mn109 2.117 . S
O135 C112 1.264 . S
C136 C129 1.403 . S
C136 C137 1.399 . S
C136 H142 0.929 . S
C137 C117 1.449 . S
C137 C136 1.399 . S
C137 H143 0.930 . S
H138 C118 0.931 . S
H139 C119 0.930 . S
H140 C127 0.931 . S
H141 C128 0.929 . S
H142 C136 0.929 . S
H143 C137 0.930 . S
Mn144 O149 2.095 . S
Mn144 O159 2.162 . S
Mn144 O160 2.297 . S
Mn144 O168 2.385 . S
Mn144 O169 2.209 . S
Mn144 O170 2.094 . S
Mn145 O150 2.121 . S
Mn145 N152 2.257 1_545 S
Mn145 N161 2.282 . S
Mn145 O169 2.215 . S
Mn145 O171 2.117 . S
C146 O168 1.234 . S
C146 O169 1.283 . S
C147 O159 1.281 . S
C147 O160 1.236 . S
C148 O170 1.240 . S
C148 O171 1.264 . S
O149 Mn144 2.095 . S
O149 C158 1.250 . S
O150 Mn145 2.121 . S
O150 C158 1.258 . S
C151 N152 1.326 . S
C151 C155 1.460 . S
C151 H157 0.929 . S
N152 Mn145 2.257 1_565 S
N152 C151 1.326 . S
N152 C156 1.362 . S
C153 C154 1.258 . S
C153 C156 1.431 . S
C153 C173 1.449 . S
C154 C153 1.258 . S
C154 C155 1.477 . S
C154 H174 0.931 . S
C155 C151 1.460 . S
C155 C154 1.477 . S
C155 H175 0.930 . S
C156 N152 1.362 . S
C156 C153 1.431 . S
C156 C166 1.476 . S
H157 C151 0.929 . S
C158 O149 1.250 . S
C158 O150 1.258 . S
O159 Mn144 2.162 . S
O159 C147 1.281 . S
O160 Mn144 2.297 . S
O160 C147 1.236 . S
N161 Mn145 2.282 . S
N161 C162 1.328 . S
N161 C166 1.318 1_545 S
C162 N161 1.328 . S
C162 C163 1.457 . S
C162 H167 0.929 . S
C163 C162 1.457 . S
C163 C164 1.291 1_545 S
C163 H176 0.931 . S
C164 C163 1.291 1_565 S
C164 C165 1.373 . S
C164 H177 0.929 . S
C165 C164 1.373 . S
C165 C166 1.396 . S
C165 C172 1.403 . S
C166 C156 1.476 . S
C166 N161 1.318 1_565 S
C166 C165 1.396 . S
H167 C162 0.929 . S
O168 Mn144 2.385 . S
O168 C146 1.234 . S
O169 Mn144 2.209 . S
O169 Mn145 2.215 . S
O169 C146 1.283 . S
O170 Mn144 2.094 . S
O170 C148 1.240 . S
O171 Mn145 2.117 . S
O171 C148 1.264 . S
C172 C165 1.403 . S
C172 C173 1.399 . S
C172 H178 0.929 . S
C173 C153 1.449 . S
C173 C172 1.399 . S
C173 H179 0.930 . S
H174 C154 0.931 . S
H175 C155 0.930 . S
H176 C163 0.931 . S
H177 C164 0.929 . S
H178 C172 0.929 . S
H179 C173 0.930 . S
Mn180 O185 2.095 . S
Mn180 O195 2.162 . S
Mn180 O196 2.297 . S
Mn180 O204 2.385 . S
Mn180 O205 2.209 . S
Mn180 O206 2.094 . S
Mn181 O186 2.121 . S
Mn181 N188 2.257 1_565 S
Mn181 N197 2.282 . S
Mn181 O205 2.215 . S
Mn181 O207 2.117 . S
C182 O204 1.234 . S
C182 O205 1.283 . S
C183 O195 1.281 . S
C183 O196 1.236 . S
C184 O206 1.240 . S
C184 O207 1.264 . S
O185 Mn180 2.095 . S
O185 C194 1.250 . S
O186 Mn181 2.121 . S
O186 C194 1.258 . S
C187 N188 1.326 . S
C187 C191 1.460 . S
C187 H193 0.929 . S
N188 Mn181 2.257 1_545 S
N188 C187 1.326 . S
N188 C192 1.362 . S
C189 C190 1.258 . S
C189 C192 1.431 . S
C189 C209 1.449 . S
C190 C189 1.258 . S
C190 C191 1.477 . S
C190 H210 0.931 . S
C191 C187 1.460 . S
C191 C190 1.477 . S
C191 H211 0.930 . S
C192 N188 1.362 . S
C192 C189 1.431 . S
C192 C202 1.476 . S
H193 C187 0.929 . S
C194 O185 1.250 . S
C194 O186 1.258 . S
O195 Mn180 2.162 . S
O195 C183 1.281 . S
O196 Mn180 2.297 . S
O196 C183 1.236 . S
N197 Mn181 2.282 . S
N197 C198 1.328 . S
N197 C202 1.318 1_565 S
C198 N197 1.328 . S
C198 C199 1.457 . S
C198 H203 0.929 . S
C199 C198 1.457 . S
C199 C200 1.291 1_565 S
C199 H212 0.931 . S
C200 C199 1.291 1_545 S
C200 C201 1.373 . S
C200 H213 0.929 . S
C201 C200 1.373 . S
C201 C202 1.396 . S
C201 C208 1.403 . S
C202 C192 1.476 . S
C202 N197 1.318 1_545 S
C202 C201 1.396 . S
H203 C198 0.929 . S
O204 Mn180 2.385 . S
O204 C182 1.234 . S
O205 Mn180 2.209 . S
O205 Mn181 2.215 . S
O205 C182 1.283 . S
O206 Mn180 2.094 . S
O206 C184 1.240 . S
O207 Mn181 2.117 . S
O207 C184 1.264 . S
C208 C201 1.403 . S
C208 C209 1.399 . S
C208 H214 0.929 . S
C209 C189 1.449 . S
C209 C208 1.399 . S
C209 H215 0.930 . S
H210 C190 0.931 . S
H211 C191 0.930 . S
H212 C199 0.931 . S
H213 C200 0.929 . S
H214 C208 0.929 . S
H215 C209 0.930 . S
Mn216 O221 2.095 . S
Mn216 O231 2.162 . S
Mn216 O232 2.297 . S
Mn216 O240 2.385 . S
Mn216 O241 2.209 . S
Mn216 O242 2.094 . S
Mn217 O222 2.121 . S
Mn217 N224 2.257 1_565 S
Mn217 N233 2.282 . S
Mn217 O241 2.215 . S
Mn217 O243 2.117 . S
C218 O240 1.234 . S
C218 O241 1.283 . S
C219 O231 1.281 . S
C219 O232 1.236 . S
C220 O242 1.240 . S
C220 O243 1.264 . S
O221 Mn216 2.095 . S
O221 C230 1.250 . S
O222 Mn217 2.121 . S
O222 C230 1.258 . S
C223 N224 1.326 . S
C223 C227 1.460 . S
C223 H229 0.929 . S
N224 Mn217 2.257 1_545 S
N224 C223 1.326 . S
N224 C228 1.362 . S
C225 C226 1.258 . S
C225 C228 1.431 . S
C225 C245 1.449 . S
C226 C225 1.258 . S
C226 C227 1.477 . S
C226 H246 0.931 . S
C227 C223 1.460 . S
C227 C226 1.477 . S
C227 H247 0.930 . S
C228 N224 1.362 . S
C228 C225 1.431 . S
C228 C238 1.476 . S
H229 C223 0.929 . S
C230 O221 1.250 . S
C230 O222 1.258 . S
O231 Mn216 2.162 . S
O231 C219 1.281 . S
O232 Mn216 2.297 . S
O232 C219 1.236 . S
N233 Mn217 2.282 . S
N233 C234 1.328 . S
N233 C238 1.318 1_565 S
C234 N233 1.328 . S
C234 C235 1.457 . S
C234 H239 0.929 . S
C235 C234 1.457 . S
C235 C236 1.291 1_565 S
C235 H248 0.931 . S
C236 C235 1.291 1_545 S
C236 C237 1.373 . S
C236 H249 0.929 . S
C237 C236 1.373 . S
C237 C238 1.396 . S
C237 C244 1.403 . S
C238 C228 1.476 . S
C238 N233 1.318 1_545 S
C238 C237 1.396 . S
H239 C234 0.929 . S
O240 Mn216 2.385 . S
O240 C218 1.234 . S
O241 Mn216 2.209 . S
O241 Mn217 2.215 . S
O241 C218 1.283 . S
O242 Mn216 2.094 . S
O242 C220 1.240 . S
O243 Mn217 2.117 . S
O243 C220 1.264 . S
C244 C237 1.403 . S
C244 C245 1.399 . S
C244 H250 0.929 . S
C245 C225 1.449 . S
C245 C244 1.399 . S
C245 H251 0.930 . S
H246 C226 0.931 . S
H247 C227 0.930 . S
H248 C235 0.931 . S
H249 C236 0.929 . S
H250 C244 0.929 . S
H251 C245 0.930 . S
Mn252 O257 2.095 . S
Mn252 O267 2.162 . S
Mn252 O268 2.297 . S
Mn252 O276 2.385 . S
Mn252 O277 2.209 . S
Mn252 O278 2.094 . S
Mn253 O258 2.121 . S
Mn253 N260 2.257 1_545 S
Mn253 N269 2.282 . S
Mn253 O277 2.215 . S
Mn253 O279 2.117 . S
C254 O276 1.234 . S
C254 O277 1.283 . S
C255 O267 1.281 . S
C255 O268 1.236 . S
C256 O278 1.240 . S
C256 O279 1.264 . S
O257 Mn252 2.095 . S
O257 C266 1.250 . S
O258 Mn253 2.121 . S
O258 C266 1.258 . S
C259 N260 1.326 . S
C259 C263 1.460 . S
C259 H265 0.929 . S
N260 Mn253 2.257 1_565 S
N260 C259 1.326 . S
N260 C264 1.362 . S
C261 C262 1.258 . S
C261 C264 1.431 . S
C261 C281 1.449 . S
C262 C261 1.258 . S
C262 C263 1.477 . S
C262 H282 0.931 . S
C263 C259 1.460 . S
C263 C262 1.477 . S
C263 H283 0.930 . S
C264 N260 1.362 . S
C264 C261 1.431 . S
C264 C274 1.476 . S
H265 C259 0.929 . S
C266 O257 1.250 . S
C266 O258 1.258 . S
O267 Mn252 2.162 . S
O267 C255 1.281 . S
O268 Mn252 2.297 . S
O268 C255 1.236 . S
N269 Mn253 2.282 . S
N269 C270 1.328 . S
N269 C274 1.318 1_545 S
C270 N269 1.328 . S
C270 C271 1.457 . S
C270 H275 0.929 . S
C271 C270 1.457 . S
C271 C272 1.291 1_545 S
C271 H284 0.931 . S
C272 C271 1.291 1_565 S
C272 C273 1.373 . S
C272 H285 0.929 . S
C273 C272 1.373 . S
C273 C274 1.396 . S
C273 C280 1.403 . S
C274 C264 1.476 . S
C274 N269 1.318 1_565 S
C274 C273 1.396 . S
H275 C270 0.929 . S
O276 Mn252 2.385 . S
O276 C254 1.234 . S
O277 Mn252 2.209 . S
O277 Mn253 2.215 . S
O277 C254 1.283 . S
O278 Mn252 2.094 . S
O278 C256 1.240 . S
O279 Mn253 2.117 . S
O279 C256 1.264 . S
C280 C273 1.403 . S
C280 C281 1.399 . S
C280 H286 0.929 . S
C281 C261 1.449 . S
C281 C280 1.399 . S
C281 H287 0.930 . S
H282 C262 0.931 . S
H283 C263 0.930 . S
H284 C271 0.931 . S
H285 C272 0.929 . S
H286 C280 0.929 . S
H287 C281 0.930 . S
Mn288 O293 2.095 . S
Mn288 O303 2.162 . S
Mn288 O304 2.297 . S
Mn288 O312 2.385 . S
Mn288 O313 2.209 . S
Mn288 O314 2.094 . S
Mn289 O294 2.121 . S
Mn289 N296 2.257 1_554 S
Mn289 N305 2.282 . S
Mn289 O313 2.215 . S
Mn289 O315 2.117 . S
C290 O312 1.234 . S
C290 O313 1.283 . S
C291 O303 1.281 . S
C291 O304 1.236 . S
C292 O314 1.240 . S
C292 O315 1.264 . S
O293 Mn288 2.095 . S
O293 C302 1.250 . S
O294 Mn289 2.121 . S
O294 C302 1.258 . S
C295 N296 1.326 . S
C295 C299 1.460 . S
C295 H301 0.929 . S
N296 Mn289 2.257 1_556 S
N296 C295 1.326 . S
N296 C300 1.362 . S
C297 C298 1.258 . S
C297 C300 1.431 . S
C297 C317 1.449 . S
C298 C297 1.258 . S
C298 C299 1.477 . S
C298 H318 0.931 . S
C299 C295 1.460 . S
C299 C298 1.477 . S
C299 H319 0.930 . S
C300 N296 1.362 . S
C300 C297 1.431 . S
C300 C310 1.476 . S
H301 C295 0.929 . S
C302 O293 1.250 . S
C302 O294 1.258 . S
O303 Mn288 2.162 . S
O303 C291 1.281 . S
O304 Mn288 2.297 . S
O304 C291 1.236 . S
N305 Mn289 2.282 . S
N305 C306 1.328 . S
N305 C310 1.318 1_554 S
C306 N305 1.328 . S
C306 C307 1.457 . S
C306 H311 0.929 . S
C307 C306 1.457 . S
C307 C308 1.291 1_554 S
C307 H320 0.931 . S
C308 C307 1.291 1_556 S
C308 C309 1.373 . S
C308 H321 0.929 . S
C309 C308 1.373 . S
C309 C310 1.396 . S
C309 C316 1.403 . S
C310 C300 1.476 . S
C310 N305 1.318 1_556 S
C310 C309 1.396 . S
H311 C306 0.929 . S
O312 Mn288 2.385 . S
O312 C290 1.234 . S
O313 Mn288 2.209 . S
O313 Mn289 2.215 . S
O313 C290 1.283 . S
O314 Mn288 2.094 . S
O314 C292 1.240 . S
O315 Mn289 2.117 . S
O315 C292 1.264 . S
C316 C309 1.403 . S
C316 C317 1.399 . S
C316 H322 0.929 . S
C317 C297 1.449 . S
C317 C316 1.399 . S
C317 H323 0.930 . S
H318 C298 0.931 . S
H319 C299 0.930 . S
H320 C307 0.931 . S
H321 C308 0.929 . S
H322 C316 0.929 . S
H323 C317 0.930 . S
Mn324 O329 2.095 . S
Mn324 O339 2.162 . S
Mn324 O340 2.297 . S
Mn324 O348 2.385 . S
Mn324 O349 2.209 . S
Mn324 O350 2.094 . S
Mn325 O330 2.121 . S
Mn325 N332 2.257 1_556 S
Mn325 N341 2.282 . S
Mn325 O349 2.215 . S
Mn325 O351 2.117 . S
C326 O348 1.234 . S
C326 O349 1.283 . S
C327 O339 1.281 . S
C327 O340 1.236 . S
C328 O350 1.240 . S
C328 O351 1.264 . S
O329 Mn324 2.095 . S
O329 C338 1.250 . S
O330 Mn325 2.121 . S
O330 C338 1.258 . S
C331 N332 1.326 . S
C331 C335 1.460 . S
C331 H337 0.929 . S
N332 Mn325 2.257 1_554 S
N332 C331 1.326 . S
N332 C336 1.362 . S
C333 C334 1.258 . S
C333 C336 1.431 . S
C333 C353 1.449 . S
C334 C333 1.258 . S
C334 C335 1.477 . S
C334 H354 0.931 . S
C335 C331 1.460 . S
C335 C334 1.477 . S
C335 H355 0.930 . S
C336 N332 1.362 . S
C336 C333 1.431 . S
C336 C346 1.476 . S
H337 C331 0.929 . S
C338 O329 1.250 . S
C338 O330 1.258 . S
O339 Mn324 2.162 . S
O339 C327 1.281 . S
O340 Mn324 2.297 . S
O340 C327 1.236 . S
N341 Mn325 2.282 . S
N341 C342 1.328 . S
N341 C346 1.318 1_556 S
C342 N341 1.328 . S
C342 C343 1.457 . S
C342 H347 0.929 . S
C343 C342 1.457 . S
C343 C344 1.291 1_556 S
C343 H356 0.931 . S
C344 C343 1.291 1_554 S
C344 C345 1.373 . S
C344 H357 0.929 . S
C345 C344 1.373 . S
C345 C346 1.396 . S
C345 C352 1.403 . S
C346 C336 1.476 . S
C346 N341 1.318 1_554 S
C346 C345 1.396 . S
H347 C342 0.929 . S
O348 Mn324 2.385 . S
O348 C326 1.234 . S
O349 Mn324 2.209 . S
O349 Mn325 2.215 . S
O349 C326 1.283 . S
O350 Mn324 2.094 . S
O350 C328 1.240 . S
O351 Mn325 2.117 . S
O351 C328 1.264 . S
C352 C345 1.403 . S
C352 C353 1.399 . S
C352 H358 0.929 . S
C353 C333 1.449 . S
C353 C352 1.399 . S
C353 H359 0.930 . S
H354 C334 0.931 . S
H355 C335 0.930 . S
H356 C343 0.931 . S
H357 C344 0.929 . S
H358 C352 0.929 . S
H359 C353 0.930 . S
Mn360 O365 2.095 . S
Mn360 O375 2.162 . S
Mn360 O376 2.297 . S
Mn360 O384 2.385 . S
Mn360 O385 2.209 . S
Mn360 O386 2.094 . S
Mn361 O366 2.121 . S
Mn361 N368 2.257 1_556 S
Mn361 N377 2.282 . S
Mn361 O385 2.215 . S
Mn361 O387 2.117 . S
C362 O384 1.234 . S
C362 O385 1.283 . S
C363 O375 1.281 . S
C363 O376 1.236 . S
C364 O386 1.240 . S
C364 O387 1.264 . S
O365 Mn360 2.095 . S
O365 C374 1.250 . S
O366 Mn361 2.121 . S
O366 C374 1.258 . S
C367 N368 1.326 . S
C367 C371 1.460 . S
C367 H373 0.929 . S
N368 Mn361 2.257 1_554 S
N368 C367 1.326 . S
N368 C372 1.362 . S
C369 C370 1.258 . S
C369 C372 1.431 . S
C369 C389 1.449 . S
C370 C369 1.258 . S
C370 C371 1.477 . S
C370 H390 0.931 . S
C371 C367 1.460 . S
C371 C370 1.477 . S
C371 H391 0.930 . S
C372 N368 1.362 . S
C372 C369 1.431 . S
C372 C382 1.476 . S
H373 C367 0.929 . S
C374 O365 1.250 . S
C374 O366 1.258 . S
O375 Mn360 2.162 . S
O375 C363 1.281 . S
O376 Mn360 2.297 . S
O376 C363 1.236 . S
N377 Mn361 2.282 . S
N377 C378 1.328 . S
N377 C382 1.318 1_556 S
C378 N377 1.328 . S
C378 C379 1.457 . S
C378 H383 0.929 . S
C379 C378 1.457 . S
C379 C380 1.291 1_556 S
C379 H392 0.931 . S
C380 C379 1.291 1_554 S
C380 C381 1.373 . S
C380 H393 0.929 . S
C381 C380 1.373 . S
C381 C382 1.396 . S
C381 C388 1.403 . S
C382 C372 1.476 . S
C382 N377 1.318 1_554 S
C382 C381 1.396 . S
H383 C378 0.929 . S
O384 Mn360 2.385 . S
O384 C362 1.234 . S
O385 Mn360 2.209 . S
O385 Mn361 2.215 . S
O385 C362 1.283 . S
O386 Mn360 2.094 . S
O386 C364 1.240 . S
O387 Mn361 2.117 . S
O387 C364 1.264 . S
C388 C381 1.403 . S
C388 C389 1.399 . S
C388 H394 0.929 . S
C389 C369 1.449 . S
C389 C388 1.399 . S
C389 H395 0.930 . S
H390 C370 0.931 . S
H391 C371 0.930 . S
H392 C379 0.931 . S
H393 C380 0.929 . S
H394 C388 0.929 . S
H395 C389 0.930 . S
Mn396 O401 2.095 . S
Mn396 O411 2.162 . S
Mn396 O412 2.297 . S
Mn396 O420 2.385 . S
Mn396 O421 2.209 . S
Mn396 O422 2.094 . S
Mn397 O402 2.121 . S
Mn397 N404 2.257 1_554 S
Mn397 N413 2.282 . S
Mn397 O421 2.215 . S
Mn397 O423 2.117 . S
C398 O420 1.234 . S
C398 O421 1.283 . S
C399 O411 1.281 . S
C399 O412 1.236 . S
C400 O422 1.240 . S
C400 O423 1.264 . S
O401 Mn396 2.095 . S
O401 C410 1.250 . S
O402 Mn397 2.121 . S
O402 C410 1.258 . S
C403 N404 1.326 . S
C403 C407 1.460 . S
C403 H409 0.929 . S
N404 Mn397 2.257 1_556 S
N404 C403 1.326 . S
N404 C408 1.362 . S
C405 C406 1.258 . S
C405 C408 1.431 . S
C405 C425 1.449 . S
C406 C405 1.258 . S
C406 C407 1.477 . S
C406 H426 0.931 . S
C407 C403 1.460 . S
C407 C406 1.477 . S
C407 H427 0.930 . S
C408 N404 1.362 . S
C408 C405 1.431 . S
C408 C418 1.476 . S
H409 C403 0.929 . S
C410 O401 1.250 . S
C410 O402 1.258 . S
O411 Mn396 2.162 . S
O411 C399 1.281 . S
O412 Mn396 2.297 . S
O412 C399 1.236 . S
N413 Mn397 2.282 . S
N413 C414 1.328 . S
N413 C418 1.318 1_554 S
C414 N413 1.328 . S
C414 C415 1.457 . S
C414 H419 0.929 . S
C415 C414 1.457 . S
C415 C416 1.291 1_554 S
C415 H428 0.931 . S
C416 C415 1.291 1_556 S
C416 C417 1.373 . S
C416 H429 0.929 . S
C417 C416 1.373 . S
C417 C418 1.396 . S
C417 C424 1.403 . S
C418 C408 1.476 . S
C418 N413 1.318 1_556 S
C418 C417 1.396 . S
H419 C414 0.929 . S
O420 Mn396 2.385 . S
O420 C398 1.234 . S
O421 Mn396 2.209 . S
O421 Mn397 2.215 . S
O421 C398 1.283 . S
O422 Mn396 2.094 . S
O422 C400 1.240 . S
O423 Mn397 2.117 . S
O423 C400 1.264 . S
C424 C417 1.403 . S
C424 C425 1.399 . S
C424 H430 0.929 . S
C425 C405 1.449 . S
C425 C424 1.399 . S
C425 H431 0.930 . S
H426 C406 0.931 . S
H427 C407 0.930 . S
H428 C415 0.931 . S
H429 C416 0.929 . S
H430 C424 0.929 . S
H431 C425 0.930 . S
C432 C433 1.391 . S
C432 C434 1.394 . S
C432 H448 0.931 . S
C433 C432 1.391 . S
C433 C437 1.376 . S
C434 C432 1.394 . S
C434 C435 1.369 . S
C434 C438 1.531 . S
C435 C434 1.369 . S
C435 C436 1.410 1_655 S
C435 C443 1.503 1_655 S
C436 C435 1.410 1_455 S
C436 C437 1.392 1_455 S
C436 C439 1.511 . S
C437 C433 1.376 . S
C437 C436 1.392 1_655 S
C437 H449 0.929 . S
C438 C434 1.531 . S
C438 H450 0.960 . S
C438 H451 0.962 . S
C438 H452 0.960 . S
C439 C436 1.511 . S
C439 H453 0.961 . S
C439 H454 0.961 . S
C439 H455 0.961 . S
C440 C441 1.370 . S
C440 C442 1.363 . S
C440 H456 0.931 . S
C441 C440 1.370 . S
C441 C445 1.408 . S
C442 C440 1.363 . S
C442 C443 1.370 . S
C442 C446 1.524 . S
C443 C435 1.503 1_455 S
C443 C442 1.370 . S
C443 C444 1.403 . S
C444 C443 1.403 . S
C444 C445 1.404 . S
C444 C447 1.539 . S
C445 C441 1.408 . S
C445 C444 1.404 . S
C445 H457 0.930 . S
C446 C442 1.524 . S
C446 H458 0.956 1_455 S
C446 H459 0.961 . S
C446 H460 0.961 . S
C447 C444 1.539 . S
C447 H461 0.958 1_455 S
C447 H462 0.961 . S
C447 H463 0.960 . S
H448 C432 0.931 . S
H449 C437 0.929 . S
H450 C438 0.960 . S
H451 C438 0.962 . S
H452 C438 0.960 . S
H453 C439 0.961 . S
H454 C439 0.961 . S
H455 C439 0.961 . S
H456 C440 0.931 . S
H457 C445 0.930 . S
H458 C446 0.956 1_655 S
H459 C446 0.961 . S
H460 C446 0.961 . S
H461 C447 0.958 1_655 S
H462 C447 0.961 . S
H463 C447 0.960 . S
C464 C465 1.391 . S
C464 C466 1.394 . S
C464 H480 0.931 . S
C465 C464 1.391 . S
C465 C469 1.376 . S
C466 C464 1.394 . S
C466 C467 1.369 . S
C466 C470 1.531 1_455 S
C467 C466 1.369 . S
C467 C468 1.410 . S
C467 C475 1.503 1_455 S
C468 C467 1.410 . S
C468 C469 1.392 . S
C468 C471 1.511 . S
C469 C465 1.376 . S
C469 C468 1.392 . S
C469 H481 0.929 . S
C470 C466 1.531 1_655 S
C470 H482 0.960 . S
C470 H483 0.962 . S
C470 H484 0.960 . S
C471 C468 1.511 . S
C471 H485 0.961 . S
C471 H486 0.961 . S
C471 H487 0.961 . S
C472 C473 1.370 . S
C472 C474 1.363 . S
C472 H488 0.931 . S
C473 C472 1.370 . S
C473 C477 1.408 . S
C474 C472 1.363 . S
C474 C475 1.370 . S
C474 C478 1.524 . S
C475 C467 1.503 1_655 S
C475 C474 1.370 . S
C475 C476 1.410 . S
C476 C475 1.410 . S
C476 C477 1.427 . S
C476 C479 1.509 1_655 S
C477 C473 1.408 . S
C477 C476 1.427 . S
C477 H489 0.930 . S
C478 C474 1.524 . S
C478 H490 0.956 . S
C478 H491 0.961 . S
C478 H492 0.961 . S
C479 C476 1.509 1_455 S
C479 H493 0.958 . S
C479 H494 0.961 . S
C479 H495 0.960 . S
H480 C464 0.931 . S
H481 C469 0.929 . S
H482 C470 0.960 . S
H483 C470 0.962 . S
H484 C470 0.960 . S
H485 C471 0.961 . S
H486 C471 0.961 . S
H487 C471 0.961 . S
H488 C472 0.931 . S
H489 C477 0.930 . S
H490 C478 0.956 . S
H491 C478 0.961 . S
H492 C478 0.961 . S
H493 C479 0.958 . S
H494 C479 0.961 . S
H495 C479 0.960 . S
C496 C497 1.391 . S
C496 C498 1.394 . S
C496 H512 0.931 . S
C497 C496 1.391 . S
C497 C501 1.376 . S
C498 C496 1.394 . S
C498 C499 1.369 . S
C498 C502 1.531 . S
C499 C498 1.369 . S
C499 C500 1.410 1_565 S
C499 C507 1.503 1_565 S
C500 C499 1.410 1_545 S
C500 C501 1.392 1_545 S
C500 C503 1.511 . S
C501 C497 1.376 . S
C501 C500 1.392 1_565 S
C501 H513 0.929 . S
C502 C498 1.531 . S
C502 H514 0.960 . S
C502 H515 0.962 . S
C502 H516 0.960 . S
C503 C500 1.511 . S
C503 H517 0.961 . S
C503 H518 0.961 . S
C503 H519 0.961 . S
C504 C505 1.370 . S
C504 C506 1.363 . S
C504 H520 0.931 . S
C505 C504 1.370 . S
C505 C509 1.408 . S
C506 C504 1.363 . S
C506 C507 1.370 . S
C506 C510 1.524 1_545 S
C507 C499 1.503 1_545 S
C507 C506 1.370 . S
C507 C508 1.403 . S
C508 C507 1.403 . S
C508 C509 1.404 . S
C508 C511 1.539 . S
C509 C505 1.408 . S
C509 C508 1.404 . S
C509 H521 0.930 . S
C510 C506 1.524 1_565 S
C510 H522 0.956 . S
C510 H523 0.961 . S
C510 H524 0.961 . S
C511 C508 1.539 . S
C511 H525 0.958 . S
C511 H526 0.961 . S
C511 H527 0.960 . S
H512 C496 0.931 . S
H513 C501 0.929 . S
H514 C502 0.960 . S
H515 C502 0.962 . S
H516 C502 0.960 . S
H517 C503 0.961 . S
H518 C503 0.961 . S
H519 C503 0.961 . S
H520 C504 0.931 . S
H521 C509 0.930 . S
H522 C510 0.956 . S
H523 C510 0.961 . S
H524 C510 0.961 . S
H525 C511 0.958 . S
H526 C511 0.961 . S
H527 C511 0.960 . S
C528 C529 1.391 . S
C528 C530 1.394 1_565 S
C528 H544 0.931 . S
C529 C528 1.391 . S
C529 C533 1.376 . S
C530 C528 1.394 1_545 S
C530 C531 1.369 1_545 S
C530 C534 1.531 . S
C531 C530 1.369 1_565 S
C531 C532 1.410 . S
C531 C539 1.503 1_565 S
C532 C531 1.410 . S
C532 C533 1.392 . S
C532 C535 1.511 . S
C533 C529 1.376 . S
C533 C532 1.392 . S
C533 H545 0.929 . S
C534 C530 1.531 . S
C534 H546 0.960 . S
C534 H547 0.962 . S
C534 H548 0.960 . S
C535 C532 1.511 . S
C535 H549 0.961 . S
C535 H550 0.961 . S
C535 H551 0.961 . S
C536 C537 1.370 . S
C536 C538 1.363 . S
C536 H552 0.931 . S
C537 C536 1.370 . S
C537 C541 1.408 . S
C538 C536 1.363 . S
C538 C539 1.370 . S
C538 C542 1.524 . S
C539 C531 1.503 1_545 S
C539 C538 1.370 . S
C539 C540 1.403 . S
C540 C539 1.403 . S
C540 C541 1.404 . S
C540 C543 1.539 . S
C541 C537 1.408 . S
C541 C540 1.404 . S
C541 H553 0.930 . S
C542 C538 1.524 . S
C542 H554 0.956 . S
C542 H555 0.961 1_545 S
C542 H556 0.961 . S
C543 C540 1.539 . S
C543 H557 0.958 . S
C543 H558 0.961 . S
C543 H559 0.960 1_545 S
H544 C528 0.931 . S
H545 C533 0.929 . S
H546 C534 0.960 . S
H547 C534 0.962 . S
H548 C534 0.960 . S
H549 C535 0.961 . S
H550 C535 0.961 . S
H551 C535 0.961 . S
H552 C536 0.931 . S
H553 C541 0.930 . S
H554 C542 0.956 . S
H555 C542 0.961 1_565 S
H556 C542 0.961 . S
H557 C543 0.958 . S
H558 C543 0.961 . S
H559 C543 0.960 1_565 S
C560 C561 1.391 . S
C560 C562 1.394 . S
C560 H576 0.931 . S
C561 C560 1.391 . S
C561 C565 1.376 . S
C562 C560 1.394 . S
C562 C563 1.369 . S
C562 C566 1.531 . S
C563 C562 1.369 . S
C563 C564 1.410 . S
C563 C571 1.503 1_556 S
C564 C563 1.410 . S
C564 C565 1.392 . S
C564 C567 1.511 1_556 S
C565 C561 1.376 . S
C565 C564 1.392 . S
C565 H577 0.929 . S
C566 C562 1.531 . S
C566 H578 0.960 . S
C566 H579 0.962 . S
C566 H580 0.960 . S
C567 C564 1.511 1_554 S
C567 H581 0.961 . S
C567 H582 0.961 . S
C567 H583 0.961 . S
C568 C569 1.370 . S
C568 C570 1.363 . S
C568 H584 0.931 . S
C569 C568 1.370 . S
C569 C573 1.408 . S
C570 C568 1.363 . S
C570 C571 1.370 . S
C570 C574 1.524 . S
C571 C563 1.503 1_554 S
C571 C570 1.370 . S
C571 C572 1.403 . S
C572 C571 1.403 . S
C572 C573 1.404 . S
C572 C575 1.539 1_554 S
C573 C569 1.408 . S
C573 C572 1.404 . S
C573 H585 0.930 . S
C574 C570 1.524 . S
C574 H586 0.956 . S
C574 H587 0.961 . S
C574 H588 0.961 . S
C575 C572 1.539 1_556 S
C575 H589 0.958 . S
C575 H590 0.961 . S
C575 H591 0.960 . S
H576 C560 0.931 . S
H577 C565 0.929 . S
H578 C566 0.960 . S
H579 C566 0.962 . S
H580 C566 0.960 . S
H581 C567 0.961 . S
H582 C567 0.961 . S
H583 C567 0.961 . S
H584 C568 0.931 . S
H585 C573 0.930 . S
H586 C574 0.956 . S
H587 C574 0.961 . S
H588 C574 0.961 . S
H589 C575 0.958 . S
H590 C575 0.961 . S
H591 C575 0.960 . S
C592 C593 1.391 . S
C592 C594 1.394 . S
C592 H608 0.931 . S
C593 C592 1.391 . S
C593 C597 1.376 . S
C594 C592 1.394 . S
C594 C595 1.369 . S
C594 C598 1.531 . S
C595 C594 1.369 . S
C595 C596 1.410 . S
C595 C603 1.503 1_556 S
C596 C595 1.410 . S
C596 C597 1.392 . S
C596 C599 1.511 1_556 S
C597 C593 1.376 . S
C597 C596 1.392 . S
C597 H609 0.929 . S
C598 C594 1.531 . S
C598 H610 0.960 . S
C598 H611 0.962 . S
C598 H612 0.960 . S
C599 C596 1.511 1_554 S
C599 H613 0.961 . S
C599 H614 0.961 . S
C599 H615 0.961 . S
C600 C601 1.370 . S
C600 C602 1.363 . S
C600 H616 0.931 . S
C601 C600 1.370 . S
C601 C605 1.408 . S
C602 C600 1.363 . S
C602 C603 1.370 . S
C602 C606 1.524 . S
C603 C595 1.503 1_554 S
C603 C602 1.370 . S
C603 C604 1.403 . S
C604 C603 1.403 . S
C604 C605 1.404 . S
C604 C607 1.539 1_554 S
C605 C601 1.408 . S
C605 C604 1.404 . S
C605 H617 0.930 . S
C606 C602 1.524 . S
C606 H618 0.956 . S
C606 H619 0.961 . S
C606 H620 0.961 . S
C607 C604 1.539 1_556 S
C607 H621 0.958 . S
C607 H622 0.961 . S
C607 H623 0.960 . S
H608 C592 0.931 . S
H609 C597 0.929 . S
H610 C598 0.960 . S
H611 C598 0.962 . S
H612 C598 0.960 . S
H613 C599 0.961 . S
H614 C599 0.961 . S
H615 C599 0.961 . S
H616 C600 0.931 . S
H617 C605 0.930 . S
H618 C606 0.956 . S
H619 C606 0.961 . S
H620 C606 0.961 . S
H621 C607 0.958 . S
H622 C607 0.961 . S
H623 C607 0.960 . S
C624 C625 1.391 . S
C624 C626 1.394 . S
C624 H640 0.931 . S
C625 C624 1.391 . S
C625 C629 1.376 . S
C626 C624 1.394 . S
C626 C627 1.369 . S
C626 C630 1.531 . S
C627 C626 1.369 . S
C627 C628 1.410 . S
C627 C635 1.503 . S
C628 C627 1.410 . S
C628 C629 1.392 . S
C628 C631 1.511 . S
C629 C625 1.376 . S
C629 C628 1.392 . S
C629 H641 0.929 . S
C630 C626 1.531 . S
C630 H642 0.960 . S
C630 H643 0.962 . S
C630 H644 0.960 . S
C631 C628 1.511 . S
C631 H645 0.961 . S
C631 H646 0.961 . S
C631 H647 0.961 . S
C632 C633 1.370 . S
C632 C634 1.363 . S
C632 H648 0.931 . S
C633 C632 1.370 . S
C633 C637 1.408 . S
C634 C632 1.363 . S
C634 C635 1.370 . S
C634 C638 1.524 . S
C635 C627 1.503 . S
C635 C634 1.370 . S
C635 C636 1.403 . S
C636 C635 1.403 . S
C636 C637 1.404 . S
C636 C639 1.539 . S
C637 C633 1.408 . S
C637 C636 1.404 . S
C637 H649 0.930 . S
C638 C634 1.524 . S
C638 H650 0.956 . S
C638 H651 0.961 . S
C638 H652 0.961 . S
C639 C636 1.539 . S
C639 H653 0.958 . S
C639 H654 0.961 . S
C639 H655 0.960 . S
H640 C624 0.931 . S
H641 C629 0.929 . S
H642 C630 0.960 . S
H643 C630 0.962 . S
H644 C630 0.960 . S
H645 C631 0.961 . S
H646 C631 0.961 . S
H647 C631 0.961 . S
H648 C632 0.931 . S
H649 C637 0.930 . S
H650 C638 0.956 . S
H651 C638 0.961 . S
H652 C638 0.961 . S
H653 C639 0.958 . S
H654 C639 0.961 . S
H655 C639 0.960 . S
C656 C657 1.391 . S
C656 C658 1.394 . S
C656 H672 0.931 . S
C657 C656 1.391 . S
C657 C661 1.376 . S
C658 C656 1.394 . S
C658 C659 1.369 . S
C658 C662 1.531 . S
C659 C658 1.369 . S
C659 C660 1.410 . S
C659 C667 1.503 . S
C660 C659 1.410 . S
C660 C661 1.392 . S
C660 C663 1.511 . S
C661 C657 1.376 . S
C661 C660 1.392 . S
C661 H673 0.929 . S
C662 C658 1.531 . S
C662 H674 0.960 . S
C662 H675 0.962 . S
C662 H676 0.960 . S
C663 C660 1.511 . S
C663 H677 0.961 . S
C663 H678 0.961 . S
C663 H679 0.961 . S
C664 C665 1.370 . S
C664 C666 1.363 . S
C664 H680 0.931 . S
C665 C664 1.370 . S
C665 C669 1.408 . S
C666 C664 1.363 . S
C666 C667 1.370 . S
C666 C670 1.524 . S
C667 C659 1.503 . S
C667 C666 1.370 . S
C667 C668 1.403 . S
C668 C667 1.403 . S
C668 C669 1.404 . S
C668 C671 1.539 . S
C669 C665 1.408 . S
C669 C668 1.404 . S
C669 H681 0.930 . S
C670 C666 1.524 . S
C670 H682 0.956 . S
C670 H683 0.961 . S
C670 H684 0.961 . S
C671 C668 1.539 . S
C671 H685 0.958 . S
C671 H686 0.961 . S
C671 H687 0.960 . S
H672 C656 0.931 . S
H673 C661 0.929 . S
H674 C662 0.960 . S
H675 C662 0.962 . S
H676 C662 0.960 . S
H677 C663 0.961 . S
H678 C663 0.961 . S
H679 C663 0.961 . S
H680 C664 0.931 . S
H681 C669 0.930 . S
H682 C670 0.956 . S
H683 C670 0.961 . S
H684 C670 0.961 . S
H685 C671 0.958 . S
H686 C671 0.961 . S
H687 C671 0.960 . S
C688 C689 1.391 . S
C688 C690 1.394 . S
C688 H704 0.931 . S
C689 C688 1.391 . S
C689 C693 1.376 . S
C690 C688 1.394 . S
C690 C691 1.369 . S
C690 C694 1.531 . S
C691 C690 1.369 . S
C691 C692 1.410 . S
C691 C699 1.503 . S
C692 C691 1.410 . S
C692 C693 1.392 . S
C692 C695 1.511 . S
C693 C689 1.376 . S
C693 C692 1.392 . S
C693 H705 0.929 . S
C694 C690 1.531 . S
C694 H706 0.960 . S
C694 H707 0.962 . S
C694 H708 0.960 . S
C695 C692 1.511 . S
C695 H709 0.961 . S
C695 H710 0.961 . S
C695 H711 0.961 . S
C696 C697 1.370 . S
C696 C698 1.363 . S
C696 H712 0.931 . S
C697 C696 1.370 . S
C697 C701 1.408 . S
C698 C696 1.363 . S
C698 C699 1.370 . S
C698 C702 1.524 . S
C699 C691 1.503 . S
C699 C698 1.370 . S
C699 C700 1.403 . S
C700 C699 1.403 . S
C700 C701 1.404 . S
C700 C703 1.539 . S
C701 C697 1.408 . S
C701 C700 1.404 . S
C701 H713 0.930 . S
C702 C698 1.524 . S
C702 H714 0.956 . S
C702 H715 0.961 . S
C702 H716 0.961 . S
C703 C700 1.539 . S
C703 H717 0.958 . S
C703 H718 0.961 . S
C703 H719 0.960 . S
H704 C688 0.931 . S
H705 C693 0.929 . S
H706 C694 0.960 . S
H707 C694 0.962 . S
H708 C694 0.960 . S
H709 C695 0.961 . S
H710 C695 0.961 . S
H711 C695 0.961 . S
H712 C696 0.931 . S
H713 C701 0.930 . S
H714 C702 0.956 . S
H715 C702 0.961 . S
H716 C702 0.961 . S
H717 C703 0.958 . S
H718 C703 0.961 . S
H719 C703 0.960 . S
C720 C721 1.391 . S
C720 C722 1.394 . S
C720 H736 0.931 . S
C721 C720 1.391 . S
C721 C725 1.376 . S
C722 C720 1.394 . S
C722 C723 1.369 . S
C722 C726 1.531 . S
C723 C722 1.369 . S
C723 C724 1.410 . S
C723 C731 1.503 . S
C724 C723 1.410 . S
C724 C725 1.392 . S
C724 C727 1.511 . S
C725 C721 1.376 . S
C725 C724 1.392 . S
C725 H737 0.929 . S
C726 C722 1.531 . S
C726 H738 0.960 . S
C726 H739 0.962 . S
C726 H740 0.960 . S
C727 C724 1.511 . S
C727 H741 0.961 . S
C727 H742 0.961 . S
C727 H743 0.961 . S
C728 C729 1.370 . S
C728 C730 1.363 . S
C728 H744 0.931 . S
C729 C728 1.370 . S
C729 C733 1.408 . S
C730 C728 1.363 . S
C730 C731 1.370 . S
C730 C734 1.524 . S
C731 C723 1.503 . S
C731 C730 1.370 . S
C731 C732 1.403 . S
C732 C731 1.403 . S
C732 C733 1.404 . S
C732 C735 1.539 . S
C733 C729 1.408 . S
C733 C732 1.404 . S
C733 H745 0.930 . S
C734 C730 1.524 . S
C734 H746 0.956 . S
C734 H747 0.961 . S
C734 H748 0.961 . S
C735 C732 1.539 . S
C735 H749 0.958 . S
C735 H750 0.961 . S
C735 H751 0.960 . S
H736 C720 0.931 . S
H737 C725 0.929 . S
H738 C726 0.960 . S
H739 C726 0.962 . S
H740 C726 0.960 . S
H741 C727 0.961 . S
H742 C727 0.961 . S
H743 C727 0.961 . S
H744 C728 0.931 . S
H745 C733 0.930 . S
H746 C734 0.956 . S
H747 C734 0.961 . S
H748 C734 0.961 . S
H749 C735 0.958 . S
H750 C735 0.961 . S
H751 C735 0.960 . S
C752 C753 1.391 . S
C752 C754 1.394 . S
C752 H768 0.931 . S
C753 C752 1.391 . S
C753 C757 1.376 . S
C754 C752 1.394 . S
C754 C755 1.369 . S
C754 C758 1.531 . S
C755 C754 1.369 . S
C755 C756 1.410 . S
C755 C763 1.503 . S
C756 C755 1.410 . S
C756 C757 1.392 . S
C756 C759 1.511 . S
C757 C753 1.376 . S
C757 C756 1.392 . S
C757 H769 0.929 . S
C758 C754 1.531 . S
C758 H770 0.960 . S
C758 H771 0.962 . S
C758 H772 0.960 . S
C759 C756 1.511 . S
C759 H773 0.961 . S
C759 H774 0.961 . S
C759 H775 0.961 . S
C760 C761 1.370 . S
C760 C762 1.363 . S
C760 H776 0.931 . S
C761 C760 1.370 . S
C761 C765 1.408 . S
C762 C760 1.363 . S
C762 C763 1.370 . S
C762 C766 1.524 . S
C763 C755 1.503 . S
C763 C762 1.370 . S
C763 C764 1.403 . S
C764 C763 1.403 . S
C764 C765 1.404 . S
C764 C767 1.539 . S
C765 C761 1.408 . S
C765 C764 1.404 . S
C765 H777 0.930 . S
C766 C762 1.524 . S
C766 H778 0.956 . S
C766 H779 0.961 . S
C766 H780 0.961 . S
C767 C764 1.539 . S
C767 H781 0.958 . S
C767 H782 0.961 . S
C767 H783 0.960 . S
H768 C752 0.931 . S
H769 C757 0.929 . S
H770 C758 0.960 . S
H771 C758 0.962 . S
H772 C758 0.960 . S
H773 C759 0.961 . S
H774 C759 0.961 . S
H775 C759 0.961 . S
H776 C760 0.931 . S
H777 C765 0.930 . S
H778 C766 0.956 . S
H779 C766 0.961 . S
H780 C766 0.961 . S
H781 C767 0.958 . S
H782 C767 0.961 . S
H783 C767 0.960 . S
C784 C785 1.391 . S
C784 C786 1.394 . S
C784 H800 0.931 . S
C785 C784 1.391 . S
C785 C789 1.376 . S
C786 C784 1.394 . S
C786 C787 1.369 . S
C786 C790 1.531 . S
C787 C786 1.369 . S
C787 C788 1.410 . S
C787 C795 1.503 . S
C788 C787 1.410 . S
C788 C789 1.392 . S
C788 C791 1.511 . S
C789 C785 1.376 . S
C789 C788 1.392 . S
C789 H801 0.929 . S
C790 C786 1.531 . S
C790 H802 0.960 . S
C790 H803 0.962 . S
C790 H804 0.960 . S
C791 C788 1.511 . S
C791 H805 0.961 . S
C791 H806 0.961 . S
C791 H807 0.961 . S
C792 C793 1.370 . S
C792 C794 1.363 . S
C792 H808 0.931 . S
C793 C792 1.370 . S
C793 C797 1.408 . S
C794 C792 1.363 . S
C794 C795 1.370 . S
C794 C798 1.524 . S
C795 C787 1.503 . S
C795 C794 1.370 . S
C795 C796 1.403 . S
C796 C795 1.403 . S
C796 C797 1.404 . S
C796 C799 1.539 . S
C797 C793 1.408 . S
C797 C796 1.404 . S
C797 H809 0.930 . S
C798 C794 1.524 . S
C798 H810 0.956 . S
C798 H811 0.961 . S
C798 H812 0.961 . S
C799 C796 1.539 . S
C799 H813 0.958 . S
C799 H814 0.961 . S
C799 H815 0.960 . S
H800 C784 0.931 . S
H801 C789 0.929 . S
H802 C790 0.960 . S
H803 C790 0.962 . S
H804 C790 0.960 . S
H805 C791 0.961 . S
H806 C791 0.961 . S
H807 C791 0.961 . S
H808 C792 0.931 . S
H809 C797 0.930 . S
H810 C798 0.956 . S
H811 C798 0.961 . S
H812 C798 0.961 . S
H813 C799 0.958 . S
H814 C799 0.961 . S
H815 C799 0.960 . S
C816 C817 1.391 . S
C816 C818 1.394 . S
C816 H832 0.931 . S
C817 C816 1.391 . S
C817 C821 1.376 . S
C818 C816 1.394 . S
C818 C819 1.369 . S
C818 C822 1.531 . S
C819 C818 1.369 . S
C819 C820 1.410 . S
C819 C827 1.503 . S
C820 C819 1.410 . S
C820 C821 1.392 . S
C820 C823 1.511 . S
C821 C817 1.376 . S
C821 C820 1.392 . S
C821 H833 0.929 . S
C822 C818 1.531 . S
C822 H834 0.960 . S
C822 H835 0.962 . S
C822 H836 0.960 . S
C823 C820 1.511 . S
C823 H837 0.961 . S
C823 H838 0.961 . S
C823 H839 0.961 . S
C824 C825 1.370 . S
C824 C826 1.363 . S
C824 H840 0.931 . S
C825 C824 1.370 . S
C825 C829 1.408 . S
C826 C824 1.363 . S
C826 C827 1.370 . S
C826 C830 1.524 . S
C827 C819 1.503 . S
C827 C826 1.370 . S
C827 C828 1.403 . S
C828 C827 1.403 . S
C828 C829 1.404 . S
C828 C831 1.539 . S
C829 C825 1.408 . S
C829 C828 1.404 . S
C829 H841 0.930 . S
C830 C826 1.524 . S
C830 H842 0.956 . S
C830 H843 0.961 . S
C830 H844 0.961 . S
C831 C828 1.539 . S
C831 H845 0.958 . S
C831 H846 0.961 . S
C831 H847 0.960 . S
H832 C816 0.931 . S
H833 C821 0.929 . S
H834 C822 0.960 . S
H835 C822 0.962 . S
H836 C822 0.960 . S
H837 C823 0.961 . S
H838 C823 0.961 . S
H839 C823 0.961 . S
H840 C824 0.931 . S
H841 C829 0.930 . S
H842 C830 0.956 . S
H843 C830 0.961 . S
H844 C830 0.961 . S
H845 C831 0.958 . S
H846 C831 0.961 . S
H847 C831 0.960 . S
C848 C849 1.391 . S
C848 C850 1.394 . S
C848 H864 0.931 . S
C849 C848 1.391 . S
C849 C853 1.376 . S
C850 C848 1.394 . S
C850 C851 1.369 . S
C850 C854 1.531 . S
C851 C850 1.369 . S
C851 C852 1.410 . S
C851 C859 1.503 . S
C852 C851 1.410 . S
C852 C853 1.392 . S
C852 C855 1.511 . S
C853 C849 1.376 . S
C853 C852 1.392 . S
C853 H865 0.929 . S
C854 C850 1.531 . S
C854 H866 0.960 . S
C854 H867 0.962 . S
C854 H868 0.960 . S
C855 C852 1.511 . S
C855 H869 0.961 . S
C855 H870 0.961 . S
C855 H871 0.961 . S
C856 C857 1.370 . S
C856 C858 1.363 . S
C856 H872 0.931 . S
C857 C856 1.370 . S
C857 C861 1.408 . S
C858 C856 1.363 . S
C858 C859 1.370 . S
C858 C862 1.524 . S
C859 C851 1.503 . S
C859 C858 1.370 . S
C859 C860 1.403 . S
C860 C859 1.403 . S
C860 C861 1.404 . S
C860 C863 1.539 . S
C861 C857 1.408 . S
C861 C860 1.404 . S
C861 H873 0.930 . S
C862 C858 1.524 . S
C862 H874 0.956 . S
C862 H875 0.961 . S
C862 H876 0.961 . S
C863 C860 1.539 . S
C863 H877 0.958 . S
C863 H878 0.961 . S
C863 H879 0.960 . S
H864 C848 0.931 . S
H865 C853 0.929 . S
H866 C854 0.960 . S
H867 C854 0.962 . S
H868 C854 0.960 . S
H869 C855 0.961 . S
H870 C855 0.961 . S
H871 C855 0.961 . S
H872 C856 0.931 . S
H873 C861 0.930 . S
H874 C862 0.956 . S
H875 C862 0.961 . S
H876 C862 0.961 . S
H877 C863 0.958 . S
H878 C863 0.961 . S
H879 C863 0.960 . S
C880 C881 1.391 . S
C880 C882 1.394 . S
C880 H896 0.931 . S
C881 C880 1.391 . S
C881 C885 1.376 . S
C882 C880 1.394 . S
C882 C883 1.369 . S
C882 C886 1.531 . S
C883 C882 1.369 . S
C883 C884 1.410 . S
C883 C891 1.503 . S
C884 C883 1.410 . S
C884 C885 1.392 . S
C884 C887 1.511 . S
C885 C881 1.376 . S
C885 C884 1.392 . S
C885 H897 0.929 . S
C886 C882 1.531 . S
C886 H898 0.960 . S
C886 H899 0.962 . S
C886 H900 0.960 . S
C887 C884 1.511 . S
C887 H901 0.961 . S
C887 H902 0.961 . S
C887 H903 0.961 . S
C888 C889 1.370 . S
C888 C890 1.363 . S
C888 H904 0.931 . S
C889 C888 1.370 . S
C889 C893 1.408 . S
C890 C888 1.363 . S
C890 C891 1.370 . S
C890 C894 1.524 . S
C891 C883 1.503 . S
C891 C890 1.370 . S
C891 C892 1.403 . S
C892 C891 1.403 . S
C892 C893 1.404 . S
C892 C895 1.539 . S
C893 C889 1.408 . S
C893 C892 1.404 . S
C893 H905 0.930 . S
C894 C890 1.524 . S
C894 H906 0.956 . S
C894 H907 0.961 . S
C894 H908 0.961 . S
C895 C892 1.539 . S
C895 H909 0.958 . S
C895 H910 0.961 . S
C895 H911 0.960 . S
H896 C880 0.931 . S
H897 C885 0.929 . S
H898 C886 0.960 . S
H899 C886 0.962 . S
H900 C886 0.960 . S
H901 C887 0.961 . S
H902 C887 0.961 . S
H903 C887 0.961 . S
H904 C888 0.931 . S
H905 C893 0.930 . S
H906 C894 0.956 . S
H907 C894 0.961 . S
H908 C894 0.961 . S
H909 C895 0.958 . S
H910 C895 0.961 . S
H911 C895 0.960 . S
C912 C913 1.391 . S
C912 C914 1.394 . S
C912 H928 0.931 . S
C913 C912 1.391 . S
C913 C917 1.376 . S
C914 C912 1.394 . S
C914 C915 1.369 . S
C914 C918 1.531 . S
C915 C914 1.369 . S
C915 C916 1.410 . S
C915 C923 1.503 . S
C916 C915 1.410 . S
C916 C917 1.392 . S
C916 C919 1.511 . S
C917 C913 1.376 . S
C917 C916 1.392 . S
C917 H929 0.929 . S
C918 C914 1.531 . S
C918 H930 0.960 . S
C918 H931 0.962 . S
C918 H932 0.960 . S
C919 C916 1.511 . S
C919 H933 0.961 . S
C919 H934 0.961 . S
C919 H935 0.961 . S
C920 C921 1.370 . S
C920 C922 1.363 . S
C920 H936 0.931 . S
C921 C920 1.370 . S
C921 C925 1.408 . S
C922 C920 1.363 . S
C922 C923 1.370 . S
C922 C926 1.524 . S
C923 C915 1.503 . S
C923 C922 1.370 . S
C923 C924 1.403 . S
C924 C923 1.403 . S
C924 C925 1.404 . S
C924 C927 1.539 . S
C925 C921 1.408 . S
C925 C924 1.404 . S
C925 H937 0.930 . S
C926 C922 1.524 . S
C926 H938 0.956 . S
C926 H939 0.961 . S
C926 H940 0.961 . S
C927 C924 1.539 . S
C927 H941 0.958 . S
C927 H942 0.961 . S
C927 H943 0.960 . S
H928 C912 0.931 . S
H929 C917 0.929 . S
H930 C918 0.960 . S
H931 C918 0.962 . S
H932 C918 0.960 . S
H933 C919 0.961 . S
H934 C919 0.961 . S
H935 C919 0.961 . S
H936 C920 0.931 . S
H937 C925 0.930 . S
H938 C926 0.956 . S
H939 C926 0.961 . S
H940 C926 0.961 . S
H941 C927 0.958 . S
H942 C927 0.961 . S
H943 C927 0.960 . S
C944 C945 1.391 . S
C944 C946 1.394 . S
C944 H960 0.931 . S
C945 C944 1.391 . S
C945 C949 1.376 . S
C946 C944 1.394 . S
C946 C947 1.369 . S
C946 C950 1.531 . S
C947 C946 1.369 . S
C947 C948 1.410 . S
C947 C955 1.503 . S
C948 C947 1.410 . S
C948 C949 1.392 . S
C948 C951 1.511 . S
C949 C945 1.376 . S
C949 C948 1.392 . S
C949 H961 0.929 . S
C950 C946 1.531 . S
C950 H962 0.960 . S
C950 H963 0.962 . S
C950 H964 0.960 . S
C951 C948 1.511 . S
C951 H965 0.961 . S
C951 H966 0.961 . S
C951 H967 0.961 . S
C952 C953 1.370 . S
C952 C954 1.363 . S
C952 H968 0.931 . S
C953 C952 1.370 . S
C953 C957 1.408 . S
C954 C952 1.363 . S
C954 C955 1.370 . S
C954 C958 1.524 . S
C955 C947 1.503 . S
C955 C954 1.370 . S
C955 C956 1.403 . S
C956 C955 1.403 . S
C956 C957 1.404 . S
C956 C959 1.539 . S
C957 C953 1.408 . S
C957 C956 1.404 . S
C957 H969 0.930 . S
C958 C954 1.524 . S
C958 H970 0.956 . S
C958 H971 0.961 . S
C958 H972 0.961 . S
C959 C956 1.539 . S
C959 H973 0.958 . S
C959 H974 0.961 . S
C959 H975 0.960 . S
H960 C944 0.931 . S
H961 C949 0.929 . S
H962 C950 0.960 . S
H963 C950 0.962 . S
H964 C950 0.960 . S
H965 C951 0.961 . S
H966 C951 0.961 . S
H967 C951 0.961 . S
H968 C952 0.931 . S
H969 C957 0.930 . S
H970 C958 0.956 . S
H971 C958 0.961 . S
H972 C958 0.961 . S
H973 C959 0.958 . S
H974 C959 0.961 . S
H975 C959 0.960 . S
C976 C977 1.391 . S
C976 C978 1.394 . S
C976 H992 0.931 . S
C977 C976 1.391 . S
C977 C981 1.376 . S
C978 C976 1.394 . S
C978 C979 1.369 . S
C978 C982 1.531 . S
C979 C978 1.369 . S
C979 C980 1.410 . S
C979 C987 1.503 . S
C980 C979 1.410 . S
C980 C981 1.392 . S
C980 C983 1.511 . S
C981 C977 1.376 . S
C981 C980 1.392 . S
C981 H993 0.929 . S
C982 C978 1.531 . S
C982 H994 0.960 . S
C982 H995 0.962 . S
C982 H996 0.960 . S
C983 C980 1.511 . S
C983 H997 0.961 . S
C983 H998 0.961 . S
C983 H999 0.961 . S
C984 C985 1.370 . S
C984 C986 1.363 . S
C984 H1000 0.931 . S
C985 C984 1.370 . S
C985 C989 1.408 . S
C986 C984 1.363 . S
C986 C987 1.370 . S
C986 C990 1.524 . S
C987 C979 1.503 . S
C987 C986 1.370 . S
C987 C988 1.403 . S
C988 C987 1.403 . S
C988 C989 1.404 . S
C988 C991 1.539 . S
C989 C985 1.408 . S
C989 C988 1.404 . S
C989 H1001 0.930 . S
C990 C986 1.524 . S
C990 H1002 0.956 . S
C990 H1003 0.961 . S
C990 H1004 0.961 . S
C991 C988 1.539 . S
C991 H1005 0.958 . S
C991 H1006 0.961 . S
C991 H1007 0.960 . S
H992 C976 0.931 . S
H993 C981 0.929 . S
H994 C982 0.960 . S
H995 C982 0.962 . S
H996 C982 0.960 . S
H997 C983 0.961 . S
H998 C983 0.961 . S
H999 C983 0.961 . S
H1000 C984 0.931 . S
H1001 C989 0.930 . S
H1002 C990 0.956 . S
H1003 C990 0.961 . S
H1004 C990 0.961 . S
H1005 C991 0.958 . S
H1006 C991 0.961 . S
H1007 C991 0.960 . S
C1008 C1009 1.391 . S
C1008 C1010 1.394 . S
C1008 H1024 0.931 . S
C1009 C1008 1.391 . S
C1009 C1013 1.376 . S
C1010 C1008 1.394 . S
C1010 C1011 1.369 . S
C1010 C1014 1.531 1_545 S
C1011 C1010 1.369 . S
C1011 C1012 1.410 1_455 S
C1011 C1019 1.503 1_445 S
C1012 C1011 1.410 1_655 S
C1012 C1013 1.392 1_655 S
C1012 C1015 1.511 . S
C1013 C1009 1.376 . S
C1013 C1012 1.392 1_455 S
C1013 H1025 0.929 1_455 S
C1014 C1010 1.531 1_565 S
C1014 H1026 0.960 . S
C1014 H1027 0.962 . S
C1014 H1028 0.960 1_565 S
C1015 C1012 1.511 . S
C1015 H1029 0.961 . S
C1015 H1030 0.961 . S
C1015 H1031 0.961 . S
C1016 C1017 1.370 . S
C1016 C1018 1.363 . S
C1016 H1032 0.931 . S
C1017 C1016 1.370 . S
C1017 C1021 1.408 . S
C1018 C1016 1.363 . S
C1018 C1019 1.370 . S
C1018 C1022 1.524 1_655 S
C1019 C1011 1.503 1_665 S
C1019 C1018 1.370 . S
C1019 C1020 1.403 . S
C1020 C1019 1.403 . S
C1020 C1021 1.404 . S
C1020 C1023 1.539 . S
C1021 C1017 1.408 . S
C1021 C1020 1.404 . S
C1021 H1033 0.930 . S
C1022 C1018 1.524 1_455 S
C1022 H1034 0.956 . S
C1022 H1035 0.961 . S
C1022 H1036 0.961 . S
C1023 C1020 1.539 . S
C1023 H1037 0.958 . S
C1023 H1038 0.961 . S
C1023 H1039 0.960 1_565 S
H1024 C1008 0.931 . S
H1025 C1013 0.929 1_655 S
H1026 C1014 0.960 . S
H1027 C1014 0.962 . S
H1028 C1014 0.960 1_545 S
H1029 C1015 0.961 . S
H1030 C1015 0.961 . S
H1031 C1015 0.961 . S
H1032 C1016 0.931 . S
H1033 C1021 0.930 . S
H1034 C1022 0.956 . S
H1035 C1022 0.961 . S
H1036 C1022 0.961 . S
H1037 C1023 0.958 . S
H1038 C1023 0.961 . S
H1039 C1023 0.960 1_545 S
C1040 C1041 1.391 . S
C1040 C1042 1.394 1_655 S
C1040 H1056 0.931 1_655 S
C1041 C1040 1.391 . S
C1041 C1045 1.376 . S
C1042 C1040 1.394 1_455 S
C1042 C1043 1.369 1_455 S
C1042 C1046 1.531 . S
C1043 C1042 1.369 1_655 S
C1043 C1044 1.410 . S
C1043 C1051 1.503 1_645 S
C1044 C1043 1.410 . S
C1044 C1045 1.392 . S
C1044 C1047 1.511 1_545 S
C1045 C1041 1.376 . S
C1045 C1044 1.392 . S
C1045 H1057 0.929 . S
C1046 C1042 1.531 . S
C1046 H1058 0.960 . S
C1046 H1059 0.962 . S
C1046 H1060 0.960 . S
C1047 C1044 1.511 1_565 S
C1047 H1061 0.961 . S
C1047 H1062 0.961 . S
C1047 H1063 0.961 . S
C1048 C1049 1.370 . S
C1048 C1050 1.363 . S
C1048 H1064 0.931 . S
C1049 C1048 1.370 . S
C1049 C1053 1.408 . S
C1050 C1048 1.363 . S
C1050 C1051 1.370 . S
C1050 C1054 1.524 1_455 S
C1051 C1043 1.503 1_465 S
C1051 C1050 1.370 . S
C1051 C1052 1.403 . S
C1052 C1051 1.403 . S
C1052 C1053 1.404 . S
C1052 C1055 1.539 . S
C1053 C1049 1.408 . S
C1053 C1052 1.404 . S
C1053 H1065 0.930 . S
C1054 C1050 1.524 1_655 S
C1054 H1066 0.956 1_665 S
C1054 H1067 0.961 . S
C1054 H1068 0.961 . S
C1055 C1052 1.539 . S
C1055 H1069 0.958 . S
C1055 H1070 0.961 . S
C1055 H1071 0.967 1_455 S
H1056 C1040 0.931 1_455 S
H1057 C1045 0.929 . S
H1058 C1046 0.960 . S
H1059 C1046 0.962 . S
H1060 C1046 0.960 . S
H1061 C1047 0.961 . S
H1062 C1047 0.961 . S
H1063 C1047 0.961 . S
H1064 C1048 0.931 . S
H1065 C1053 0.930 . S
H1066 C1054 0.956 1_445 S
H1067 C1054 0.961 . S
H1068 C1054 0.961 . S
H1069 C1055 0.958 . S
H1070 C1055 0.961 . S
H1071 C1055 0.967 1_655 S
C1072 C1073 1.391 . S
C1072 C1074 1.394 1_565 S
C1072 H1088 0.931 . S
C1073 C1072 1.391 . S
C1073 C1077 1.376 . S
C1074 C1072 1.394 1_545 S
C1074 C1075 1.369 1_545 S
C1074 C1078 1.531 . S
C1075 C1074 1.369 1_565 S
C1075 C1076 1.410 . S
C1075 C1083 1.503 1_566 S
C1076 C1075 1.410 . S
C1076 C1077 1.392 . S
C1076 C1079 1.511 . S
C1077 C1073 1.376 . S
C1077 C1076 1.392 . S
C1077 H1089 0.929 . S
C1078 C1074 1.531 . S
C1078 H1090 0.960 . S
C1078 H1091 0.962 . S
C1078 H1092 0.960 . S
C1079 C1076 1.511 . S
C1079 H1093 0.961 . S
C1079 H1094 0.961 1_556 S
C1079 H1095 0.961 . S
C1080 C1081 1.370 . S
C1080 C1082 1.363 1_545 S
C1080 H1096 0.931 1_545 S
C1081 C1080 1.370 . S
C1081 C1085 1.408 . S
C1082 C1080 1.363 1_565 S
C1082 C1083 1.370 1_565 S
C1082 C1086 1.524 . S
C1083 C1075 1.503 1_544 S
C1083 C1082 1.370 1_545 S
C1083 C1084 1.403 . S
C1084 C1083 1.403 . S
C1084 C1085 1.404 . S
C1084 C1087 1.539 1_554 S
C1085 C1081 1.408 . S
C1085 C1084 1.404 . S
C1085 H1097 0.930 . S
C1086 C1082 1.524 . S
C1086 H1098 0.956 . S
C1086 H1099 0.961 . S
C1086 H1100 0.961 . S
C1087 C1084 1.539 1_556 S
C1087 H1101 0.958 . S
C1087 H1102 0.961 1_556 S
C1087 H1103 0.960 . S
H1088 C1072 0.931 . S
H1089 C1077 0.929 . S
H1090 C1078 0.960 . S
H1091 C1078 0.962 . S
H1092 C1078 0.960 . S
H1093 C1079 0.961 . S
H1094 C1079 0.961 1_554 S
H1095 C1079 0.961 . S
H1096 C1080 0.931 1_565 S
H1097 C1085 0.930 . S
H1098 C1086 0.956 . S
H1099 C1086 0.961 . S
H1100 C1086 0.961 . S
H1101 C1087 0.958 . S
H1102 C1087 0.961 1_554 S
H1103 C1087 0.960 . S
C1104 C1105 1.391 . S
C1104 C1106 1.394 . S
C1104 H1120 0.931 . S
C1105 C1104 1.391 . S
C1105 C1109 1.376 . S
C1106 C1104 1.394 . S
C1106 C1107 1.369 . S
C1106 C1110 1.531 . S
C1107 C1106 1.369 . S
C1107 C1108 1.410 . S
C1107 C1115 1.503 1_564 S
C1108 C1107 1.410 . S
C1108 C1109 1.392 . S
C1108 C1111 1.511 1_565 S
C1109 C1105 1.376 . S
C1109 C1108 1.392 . S
C1109 H1121 0.929 . S
C1110 C1106 1.531 . S
C1110 H1122 0.960 1_565 S
C1110 H1123 0.947 1_554 S
C1110 H1124 0.960 . S
C1111 C1108 1.511 1_545 S
C1111 H1125 0.946 1_545 S
C1111 H1126 0.961 . S
C1111 H1127 0.961 . S
C1112 C1113 1.370 . S
C1112 C1114 1.363 1_545 S
C1112 H1128 0.931 1_545 S
C1113 C1112 1.370 . S
C1113 C1117 1.408 . S
C1114 C1112 1.363 1_565 S
C1114 C1115 1.370 1_565 S
C1114 C1118 1.524 . S
C1115 C1107 1.503 1_546 S
C1115 C1114 1.370 1_545 S
C1115 C1116 1.403 . S
C1116 C1115 1.403 . S
C1116 C1117 1.404 . S
C1116 C1119 1.539 1_556 S
C1117 C1113 1.408 . S
C1117 C1116 1.404 . S
C1117 H1129 0.930 . S
C1118 C1114 1.524 . S
C1118 H1130 0.956 . S
C1118 H1131 0.961 . S
C1118 H1132 0.961 . S
C1119 C1116 1.539 1_554 S
C1119 H1133 0.958 . S
C1119 H1134 0.961 . S
C1119 H1135 0.960 . S
H1120 C1104 0.931 . S
H1121 C1109 0.929 . S
H1122 C1110 0.960 1_545 S
H1123 C1110 0.947 1_556 S
H1124 C1110 0.960 . S
H1125 C1111 0.946 1_565 S
H1126 C1111 0.961 . S
H1127 C1111 0.961 . S
H1128 C1112 0.931 1_565 S
H1129 C1117 0.930 . S
H1130 C1118 0.956 . S
H1131 C1118 0.961 . S
H1132 C1118 0.961 . S
H1133 C1119 0.958 . S
H1134 C1119 0.961 . S
H1135 C1119 0.960 . S
C1136 C1137 1.391 . S
C1136 C1138 1.394 1_556 S
C1136 H1152 0.931 1_556 S
C1137 C1136 1.391 . S
C1137 C1141 1.376 . S
C1138 C1136 1.394 1_554 S
C1138 C1139 1.369 1_554 S
C1138 C1142 1.531 . S
C1139 C1138 1.369 1_556 S
C1139 C1140 1.410 . S
C1139 C1147 1.503 1_656 S
C1140 C1139 1.410 . S
C1140 C1141 1.392 . S
C1140 C1143 1.511 1_655 S
C1141 C1137 1.376 . S
C1141 C1140 1.392 . S
C1141 H1153 0.929 . S
C1142 C1138 1.531 . S
C1142 H1154 0.960 . S
C1142 H1155 0.962 . S
C1142 H1156 0.960 . S
C1143 C1140 1.511 1_455 S
C1143 H1157 0.961 . S
C1143 H1158 0.961 . S
C1143 H1159 0.961 . S
C1144 C1145 1.370 . S
C1144 C1146 1.363 . S
C1144 H1160 0.931 . S
C1145 C1144 1.370 . S
C1145 C1149 1.408 . S
C1146 C1144 1.363 . S
C1146 C1147 1.370 . S
C1146 C1150 1.532 . S
C1147 C1139 1.503 1_454 S
C1147 C1146 1.370 . S
C1147 C1148 1.403 . S
C1148 C1147 1.403 . S
C1148 C1149 1.404 . S
C1148 C1151 1.539 1_554 S
C1149 C1145 1.408 . S
C1149 C1148 1.404 . S
C1149 H1161 0.930 . S
C1150 C1146 1.532 . S
C1150 H1162 0.947 1_455 S
C1150 H1163 0.957 1_455 S
C1150 H1164 0.966 . S
C1151 C1148 1.539 1_556 S
C1151 H1165 0.958 . S
C1151 H1166 0.961 . S
C1151 H1167 0.960 . S
H1152 C1136 0.931 1_554 S
H1153 C1141 0.929 . S
H1154 C1142 0.960 . S
H1155 C1142 0.962 . S
H1156 C1142 0.960 . S
H1157 C1143 0.961 . S
H1158 C1143 0.961 . S
H1159 C1143 0.961 . S
H1160 C1144 0.931 . S
H1161 C1149 0.930 . S
H1162 C1150 0.947 1_655 S
H1163 C1150 0.957 1_655 S
H1164 C1150 0.966 . S
H1165 C1151 0.958 . S
H1166 C1151 0.961 . S
H1167 C1151 0.960 . S
C1168 C1169 1.391 . S
C1168 C1170 1.394 1_556 S
C1168 H1184 0.931 1_556 S
C1169 C1168 1.391 . S
C1169 C1173 1.376 . S
C1170 C1168 1.394 1_554 S
C1170 C1171 1.369 1_554 S
C1170 C1174 1.531 . S
C1171 C1170 1.369 1_556 S
C1171 C1172 1.410 . S
C1171 C1179 1.503 1_456 S
C1172 C1171 1.410 . S
C1172 C1173 1.392 . S
C1172 C1175 1.511 1_455 S
C1173 C1169 1.376 . S
C1173 C1172 1.392 . S
C1173 H1185 0.929 . S
C1174 C1170 1.531 . S
C1174 H1186 0.960 . S
C1174 H1187 0.962 . S
C1174 H1188 0.960 . S
C1175 C1172 1.511 1_655 S
C1175 H1189 0.961 . S
C1175 H1190 0.961 . S
C1175 H1191 0.961 . S
C1176 C1177 1.370 . S
C1176 C1178 1.363 . S
C1176 H1192 0.931 . S
C1177 C1176 1.370 . S
C1177 C1181 1.408 . S
C1178 C1176 1.363 . S
C1178 C1179 1.370 . S
C1178 C1182 1.524 . S
C1179 C1171 1.503 1_654 S
C1179 C1178 1.370 . S
C1179 C1180 1.403 . S
C1180 C1179 1.403 . S
C1180 C1181 1.404 . S
C1180 C1183 1.539 . S
C1181 C1177 1.408 . S
C1181 C1180 1.404 . S
C1181 H1193 0.930 . S
C1182 C1178 1.524 . S
C1182 H1194 0.956 1_655 S
C1182 H1195 0.961 1_554 S
C1182 H1196 0.961 . S
C1183 C1180 1.539 . S
C1183 H1197 0.958 . S
C1183 H1198 0.961 . S
C1183 H1199 0.960 1_554 S
H1184 C1168 0.931 1_554 S
H1185 C1173 0.929 . S
H1186 C1174 0.960 . S
H1187 C1174 0.962 . S
H1188 C1174 0.960 . S
H1189 C1175 0.961 . S
H1190 C1175 0.961 . S
H1191 C1175 0.961 . S
H1192 C1176 0.931 . S
H1193 C1181 0.930 . S
H1194 C1182 0.956 1_455 S
H1195 C1182 0.961 1_556 S
H1196 C1182 0.961 . S
H1197 C1183 0.958 . S
H1198 C1183 0.961 . S
H1199 C1183 0.960 1_556 S
C433 C112 0.929 . S
C441 C4 0.950 . S
C465 C76 1.003 . S
C473 C40 0.943 . S
C497 C184 0.912 . S
C505 C148 0.959 . S
C529 C220 0.973 . S
C537 C256 0.964 . S
C561 C328 0.957 . S
C569 C292 0.939 . S
C593 C364 0.970 . S
C601 C400 0.936 . S
C625 C3 0.869 . S
C633 C254 0.889 . S
C657 C218 0.921 . S
C665 C39 0.889 . S
C689 C182 0.820 . S
C697 C75 0.902 . S
C721 C146 0.821 . S
C729 C111 0.900 . S
C753 C147 0.890 . S
C761 C398 0.905 . S
C785 C290 0.850 . S
C793 C183 0.891 . S
C817 C362 0.878 . S
C825 C219 0.888 . S
C849 C255 0.900 . S
C857 C326 0.904 . S
C881 C74 0.824 . S
C889 C291 0.898 . S
C913 C2 0.858 . S
C921 C327 0.890 . S
C945 C363 0.889 . S
C953 C38 0.905 . S
C977 C110 0.828 . S
C985 C399 0.908 . S
C1009 C14 1.128 . S
C1017 C50 1.144 . S
C1041 C122 1.109 . S
C1049 C86 1.125 . S
C1073 C230 1.096 . S
C1081 C158 1.137 . S
C1105 C194 1.104 . S
C1113 C266 1.144 . S
C1137 C374 1.130 . S
C1145 C302 1.119 . S
C1169 C338 1.111 . S
C1177 C410 1.124 . S
