# Generated by pormake.
# Topology vbx, (6)-cn, num edge types: 1
# Building blocks:
#     Node 0, Type 0, BuildingBlock: IZENUY_clean_sbu_0, # of connection points: 6
#     Node 1, Type 0, BuildingBlock: IZENUY_clean_sbu_0, # of connection points: 6
#     Node 2, Type 0, BuildingBlock: IZENUY_clean_sbu_0, # of connection points: 6
#     Node 3, Type 0, BuildingBlock: IZENUY_clean_sbu_0, # of connection points: 6
#     Node 4, Type 0, BuildingBlock: IZENUY_clean_sbu_0, # of connection points: 6
#     Node 5, Type 0, BuildingBlock: IZENUY_clean_sbu_0, # of connection points: 6
#     Node 6, Type 0, BuildingBlock: IZENUY_clean_sbu_0, # of connection points: 6
#     Node 7, Type 0, BuildingBlock: IZENUY_clean_sbu_0, # of connection points: 6
#     Node 8, Type 0, BuildingBlock: IZENUY_clean_sbu_0, # of connection points: 6
#     Node 9, Type 0, BuildingBlock: IZENUY_clean_sbu_0, # of connection points: 6
#     Node 10, Type 0, BuildingBlock: IZENUY_clean_sbu_0, # of connection points: 6
#     Node 11, Type 0, BuildingBlock: IZENUY_clean_sbu_0, # of connection points: 6
#     Node 12, Type 0, BuildingBlock: IZENUY_clean_sbu_0, # of connection points: 6
#     Node 13, Type 0, BuildingBlock: IZENUY_clean_sbu_0, # of connection points: 6
#     Node 14, Type 0, BuildingBlock: IZENUY_clean_sbu_0, # of connection points: 6
#     Node 15, Type 0, BuildingBlock: IZENUY_clean_sbu_0, # of connection points: 6
#     Edge 16, Type (0, 0), BuildingBlock: XIVTED_clean_linker_0, # of connection points: 2
#     Edge 17, Type (0, 0), BuildingBlock: XIVTED_clean_linker_0, # of connection points: 2
#     Edge 18, Type (0, 0), BuildingBlock: XIVTED_clean_linker_0, # of connection points: 2
#     Edge 19, Type (0, 0), BuildingBlock: XIVTED_clean_linker_0, # of connection points: 2
#     Edge 20, Type (0, 0), BuildingBlock: XIVTED_clean_linker_0, # of connection points: 2
#     Edge 21, Type (0, 0), BuildingBlock: XIVTED_clean_linker_0, # of connection points: 2
#     Edge 22, Type (0, 0), BuildingBlock: XIVTED_clean_linker_0, # of connection points: 2
#     Edge 23, Type (0, 0), BuildingBlock: XIVTED_clean_linker_0, # of connection points: 2
#     Edge 24, Type (0, 0), BuildingBlock: XIVTED_clean_linker_0, # of connection points: 2
#     Edge 25, Type (0, 0), BuildingBlock: XIVTED_clean_linker_0, # of connection points: 2
#     Edge 26, Type (0, 0), BuildingBlock: XIVTED_clean_linker_0, # of connection points: 2
#     Edge 27, Type (0, 0), BuildingBlock: XIVTED_clean_linker_0, # of connection points: 2
#     Edge 28, Type (0, 0), BuildingBlock: XIVTED_clean_linker_0, # of connection points: 2
#     Edge 29, Type (0, 0), BuildingBlock: XIVTED_clean_linker_0, # of connection points: 2
#     Edge 30, Type (0, 0), BuildingBlock: XIVTED_clean_linker_0, # of connection points: 2
#     Edge 31, Type (0, 0), BuildingBlock: XIVTED_clean_linker_0, # of connection points: 2
#     Edge 32, Type (0, 0), BuildingBlock: XIVTED_clean_linker_0, # of connection points: 2
#     Edge 33, Type (0, 0), BuildingBlock: XIVTED_clean_linker_0, # of connection points: 2
#     Edge 34, Type (0, 0), BuildingBlock: XIVTED_clean_linker_0, # of connection points: 2
#     Edge 35, Type (0, 0), BuildingBlock: XIVTED_clean_linker_0, # of connection points: 2
#     Edge 36, Type (0, 0), BuildingBlock: XIVTED_clean_linker_0, # of connection points: 2
#     Edge 37, Type (0, 0), BuildingBlock: XIVTED_clean_linker_0, # of connection points: 2
#     Edge 38, Type (0, 0), BuildingBlock: XIVTED_clean_linker_0, # of connection points: 2
#     Edge 39, Type (0, 0), BuildingBlock: XIVTED_clean_linker_0, # of connection points: 2
#     Edge 40, Type (0, 0), BuildingBlock: XIVTED_clean_linker_0, # of connection points: 2
#     Edge 41, Type (0, 0), BuildingBlock: XIVTED_clean_linker_0, # of connection points: 2
#     Edge 42, Type (0, 0), BuildingBlock: XIVTED_clean_linker_0, # of connection points: 2
#     Edge 43, Type (0, 0), BuildingBlock: XIVTED_clean_linker_0, # of connection points: 2
#     Edge 44, Type (0, 0), BuildingBlock: XIVTED_clean_linker_0, # of connection points: 2
#     Edge 45, Type (0, 0), BuildingBlock: XIVTED_clean_linker_0, # of connection points: 2
#     Edge 46, Type (0, 0), BuildingBlock: XIVTED_clean_linker_0, # of connection points: 2
#     Edge 47, Type (0, 0), BuildingBlock: XIVTED_clean_linker_0, # of connection points: 2
#     Edge 48, Type (0, 0), BuildingBlock: XIVTED_clean_linker_0, # of connection points: 2
#     Edge 49, Type (0, 0), BuildingBlock: XIVTED_clean_linker_0, # of connection points: 2
#     Edge 50, Type (0, 0), BuildingBlock: XIVTED_clean_linker_0, # of connection points: 2
#     Edge 51, Type (0, 0), BuildingBlock: XIVTED_clean_linker_0, # of connection points: 2
#     Edge 52, Type (0, 0), BuildingBlock: XIVTED_clean_linker_0, # of connection points: 2
#     Edge 53, Type (0, 0), BuildingBlock: XIVTED_clean_linker_0, # of connection points: 2
#     Edge 54, Type (0, 0), BuildingBlock: XIVTED_clean_linker_0, # of connection points: 2
#     Edge 55, Type (0, 0), BuildingBlock: XIVTED_clean_linker_0, # of connection points: 2
#     Edge 56, Type (0, 0), BuildingBlock: XIVTED_clean_linker_0, # of connection points: 2
#     Edge 57, Type (0, 0), BuildingBlock: XIVTED_clean_linker_0, # of connection points: 2
#     Edge 58, Type (0, 0), BuildingBlock: XIVTED_clean_linker_0, # of connection points: 2
#     Edge 59, Type (0, 0), BuildingBlock: XIVTED_clean_linker_0, # of connection points: 2
#     Edge 60, Type (0, 0), BuildingBlock: XIVTED_clean_linker_0, # of connection points: 2
#     Edge 61, Type (0, 0), BuildingBlock: XIVTED_clean_linker_0, # of connection points: 2
#     Edge 62, Type (0, 0), BuildingBlock: XIVTED_clean_linker_0, # of connection points: 2
#     Edge 63, Type (0, 0), BuildingBlock: XIVTED_clean_linker_0, # of connection points: 2
# Relax obj value: 0.242
# Max RMSD: 0.243
# Mean RMSD: 0.243
data_MOF--net-vbx--node1-IZENUY_clean_sbu_0--edge1-XIVTED_clean_linker_0
_symmetry_space_group_name_H-M    P1
_symmetry_Int_Tables_number       1
_symmetry_cell_setting            triclinic
loop_
_symmetry_equiv_pos_as_xyz
'x, y, z'
_cell_length_a     46.382993
_cell_length_b     27.820175
_cell_length_c     56.85018
_cell_angle_alpha  89.999563
_cell_angle_beta   89.88598
_cell_angle_gamma 90.140005
loop_
_atom_site_label
_atom_site_type_symbol
_atom_site_fract_x
_atom_site_fract_y
_atom_site_fract_z
_atom_type_partial_charge
Fe0 Fe 0.36351 0.42239 0.11304 0.0
Fe1 Fe 0.36282 0.33386 0.0812 0.0
O2 O 0.34508 0.37178 0.10163 0.0
Fe3 Fe 0.30915 0.35982 0.11043 0.0
O4 O 0.2967 0.41839 0.1005 0.0
O5 O 0.33124 0.45943 0.11741 0.0
O6 O 0.36662 0.44837 0.08382 0.0
C7 C 0.37794 0.42706 0.06649 0.0
C8 C 0.3377 0.38696 0.15259 0.0
O9 O 0.38401 0.38271 0.06775 0.0
C10 C 0.3291 0.26778 0.10836 0.0
O11 O 0.39939 0.39502 0.11123 0.0
O12 O 0.39117 0.31963 0.10205 0.0
O13 O 0.31466 0.38104 0.14085 0.0
O14 O 0.361 0.39871 0.14257 0.0
C15 C 0.30949 0.33825 0.0614 0.0
O16 O 0.3441 0.27829 0.0904 0.0
O17 O 0.31848 0.3005 0.12099 0.0
C18 C 0.40708 0.35136 0.11118 0.0
O19 O 0.33609 0.34581 0.0591 0.0
O20 O 0.29791 0.33583 0.08161 0.0
C21 C 0.30651 0.45767 0.10812 0.0
Fe22 Fe 0.66121 0.60741 0.61421 0.0
Fe23 Fe 0.66049 0.69625 0.58263 0.0
O24 O 0.67895 0.65875 0.60276 0.0
Fe25 Fe 0.71483 0.67177 0.61132 0.0
O26 O 0.72789 0.61345 0.60136 0.0
O27 O 0.69391 0.57153 0.61852 0.0
O28 O 0.65841 0.58148 0.58506 0.0
C29 C 0.64655 0.60241 0.56791 0.0
C30 C 0.68652 0.64365 0.65361 0.0
O31 O 0.64004 0.64662 0.56915 0.0
C32 C 0.69393 0.76341 0.60939 0.0
O33 O 0.62489 0.63301 0.61252 0.0
O34 O 0.63198 0.70885 0.6038 0.0
O35 O 0.70955 0.65054 0.64187 0.0
O36 O 0.6634 0.63121 0.6436 0.0
C37 C 0.71382 0.69396 0.56227 0.0
O38 O 0.67844 0.75247 0.59183 0.0
O39 O 0.70509 0.731 0.62187 0.0
C40 C 0.61642 0.67621 0.61267 0.0
O41 O 0.68723 0.68602 0.56021 0.0
O42 O 0.72569 0.69592 0.58236 0.0
C43 C 0.71852 0.57388 0.60903 0.0
Fe44 Fe 0.30734 0.67064 0.87106 0.0
Fe45 Fe 0.36225 0.61016 0.86748 0.0
O46 O 0.34356 0.65997 0.87932 0.0
Fe47 Fe 0.36127 0.69824 0.89959 0.0
O48 O 0.33484 0.68578 0.92202 0.0
O49 O 0.29629 0.69459 0.9 0.0
O50 O 0.29574 0.61167 0.88129 0.0
C51 C 0.30575 0.57282 0.87337 0.0
C52 C 0.32672 0.76332 0.87279 0.0
O53 O 0.33017 0.57218 0.86344 0.0
C54 C 0.40558 0.68205 0.86937 0.0
O55 O 0.31247 0.64907 0.84054 0.0
O56 O 0.35914 0.63442 0.83803 0.0
O57 O 0.34218 0.75319 0.89047 0.0
O58 O 0.3159 0.73037 0.86035 0.0
C59 C 0.37717 0.60523 0.91391 0.0
O60 O 0.39799 0.63831 0.86902 0.0
O61 O 0.38942 0.71327 0.87854 0.0
C62 C 0.33536 0.64436 0.82843 0.0
O63 O 0.36596 0.5838 0.89657 0.0
O64 O 0.38281 0.64982 0.91281 0.0
C65 C 0.30819 0.69291 0.92008 0.0
Fe66 Fe 0.66095 0.42093 0.36878 0.0
Fe67 Fe 0.66164 0.33323 0.40112 0.0
O68 O 0.67937 0.37069 0.38041 0.0
Fe69 Fe 0.71527 0.35869 0.37153 0.0
O70 O 0.72788 0.41771 0.381 0.0
O71 O 0.69323 0.45804 0.36403 0.0
O72 O 0.65804 0.44766 0.39777 0.0
C73 C 0.64661 0.42684 0.4152 0.0
C74 C 0.68641 0.38484 0.32936 0.0
O75 O 0.64068 0.38235 0.41438 0.0
C76 C 0.69518 0.26648 0.37433 0.0
O77 O 0.62501 0.39362 0.37091 0.0
O78 O 0.63302 0.31849 0.38053 0.0
O79 O 0.70956 0.37905 0.34096 0.0
O80 O 0.66321 0.39648 0.33948 0.0
C81 C 0.71515 0.33814 0.42068 0.0
O82 O 0.68012 0.27749 0.39216 0.0
O83 O 0.7059 0.29885 0.36146 0.0
C84 C 0.61707 0.35005 0.37141 0.0
O85 O 0.68857 0.34564 0.42304 0.0
O86 O 0.72666 0.33561 0.40044 0.0
C87 C 0.718 0.45677 0.37324 0.0
Fe88 Fe 0.66094 0.69727 0.90129 0.0
Fe89 Fe 0.6603 0.60905 0.86927 0.0
O90 O 0.67881 0.65932 0.88093 0.0
Fe91 Fe 0.71492 0.67088 0.87244 0.0
O92 O 0.72592 0.69437 0.90141 0.0
O93 O 0.68738 0.68499 0.9236 0.0
O94 O 0.63944 0.64854 0.91447 0.0
C95 C 0.64524 0.60407 0.91562 0.0
C96 C 0.69525 0.76321 0.87456 0.0
O97 O 0.65673 0.58284 0.89836 0.0
C98 C 0.68673 0.64428 0.83001 0.0
O99 O 0.63283 0.71193 0.88026 0.0
O100 O 0.6245 0.63672 0.87085 0.0
O101 O 0.70606 0.73054 0.862 0.0
O102 O 0.67991 0.75268 0.89231 0.0
C103 C 0.71705 0.57289 0.87453 0.0
O104 O 0.66326 0.63297 0.83987 0.0
O105 O 0.70967 0.65006 0.8419 0.0
C106 C 0.61691 0.68041 0.87098 0.0
O107 O 0.69243 0.57165 0.86506 0.0
O108 O 0.72701 0.61196 0.8823 0.0
C109 C 0.71405 0.69214 0.92152 0.0
Fe110 Fe 0.35967 0.33614 0.4029 0.0
Fe111 Fe 0.36046 0.42001 0.36834 0.0
O112 O 0.34241 0.36998 0.38065 0.0
Fe113 Fe 0.30729 0.35438 0.37112 0.0
O114 O 0.29517 0.33371 0.40037 0.0
O115 O 0.33169 0.3509 0.42358 0.0
O116 O 0.37994 0.38732 0.41511 0.0
C117 C 0.37335 0.43149 0.41487 0.0
C118 C 0.32838 0.26431 0.37741 0.0
O119 O 0.36194 0.44973 0.39682 0.0
C120 C 0.33715 0.37935 0.32902 0.0
O121 O 0.38908 0.31987 0.38333 0.0
O122 O 0.39666 0.39422 0.37176 0.0
O123 O 0.31859 0.29421 0.36283 0.0
O124 O 0.34185 0.27871 0.39547 0.0
C125 C 0.30241 0.45228 0.37059 0.0
O126 O 0.3597 0.39313 0.33946 0.0
O127 O 0.31382 0.37214 0.34027 0.0
C128 C 0.40495 0.35093 0.3735 0.0
O129 O 0.32769 0.45482 0.36226 0.0
O130 O 0.29292 0.41319 0.37872 0.0
C131 C 0.30547 0.34075 0.42077 0.0
Fe132 Fe 0.66167 0.42077 0.11375 0.0
Fe133 Fe 0.71637 0.35949 0.11075 0.0
O134 O 0.6803 0.37059 0.10223 0.0
Fe135 Fe 0.66259 0.33225 0.08198 0.0
O136 O 0.64105 0.38058 0.06868 0.0
O137 O 0.65822 0.44666 0.08459 0.0
O138 O 0.69375 0.45857 0.11789 0.0
C139 C 0.71845 0.45746 0.10845 0.0
C140 C 0.61833 0.34889 0.11212 0.0
O141 O 0.72845 0.41842 0.10077 0.0
C142 C 0.69687 0.26692 0.10883 0.0
O143 O 0.66447 0.39715 0.14318 0.0
O144 O 0.71091 0.38054 0.14123 0.0
O145 O 0.63443 0.31743 0.10304 0.0
O146 O 0.62591 0.39266 0.11218 0.0
C147 C 0.71574 0.33802 0.06174 0.0
O148 O 0.7075 0.29986 0.12135 0.0
O149 O 0.68164 0.27712 0.09103 0.0
C150 C 0.68788 0.38608 0.15308 0.0
O151 O 0.72753 0.33584 0.08184 0.0
O152 O 0.68907 0.34481 0.05968 0.0
C153 C 0.64674 0.42512 0.06743 0.0
Fe154 Fe 0.30463 0.67819 0.61214 0.0
Fe155 Fe 0.35793 0.71125 0.58456 0.0
O156 O 0.34064 0.66783 0.60271 0.0
Fe157 Fe 0.35859 0.61414 0.61111 0.0
O158 O 0.33016 0.57603 0.59916 0.0
O159 O 0.29408 0.61476 0.61489 0.0
O160 O 0.29166 0.67734 0.58176 0.0
C161 C 0.30236 0.70404 0.5659 0.0
C162 C 0.33036 0.6472 0.6526 0.0
O163 O 0.32501 0.72814 0.56953 0.0
C164 C 0.40376 0.67885 0.61361 0.0
O165 O 0.3075 0.74361 0.61189 0.0
O166 O 0.35336 0.75914 0.60625 0.0
O167 O 0.34273 0.61392 0.64102 0.0
O168 O 0.31623 0.67998 0.64248 0.0
C169 C 0.37335 0.62594 0.56285 0.0
O170 O 0.39408 0.70124 0.59603 0.0
O171 O 0.38904 0.64657 0.62362 0.0
C172 C 0.32879 0.77177 0.61363 0.0
O173 O 0.3632 0.6678 0.56135 0.0
O174 O 0.37709 0.60591 0.58267 0.0
C175 C 0.30417 0.57739 0.60544 0.0
Fe176 Fe 0.86317 0.922 0.11348 0.0
Fe177 Fe 0.86293 0.83378 0.08146 0.0
O178 O 0.84499 0.87124 0.10198 0.0
Fe179 Fe 0.80912 0.85868 0.11079 0.0
O180 O 0.79635 0.91719 0.101 0.0
O181 O 0.83071 0.95861 0.11792 0.0
O182 O 0.86618 0.94829 0.08439 0.0
C183 C 0.87775 0.92743 0.06707 0.0
C184 C 0.83762 0.88612 0.15297 0.0
O185 O 0.88384 0.88305 0.06808 0.0
C186 C 0.82949 0.76689 0.10841 0.0
O187 O 0.8992 0.89521 0.11162 0.0
O188 O 0.89143 0.8198 0.10225 0.0
O189 O 0.81456 0.87971 0.1413 0.0
O190 O 0.86081 0.89804 0.14287 0.0
C191 C 0.80953 0.83754 0.06171 0.0
O192 O 0.84454 0.77787 0.09055 0.0
O193 O 0.81872 0.7993 0.12117 0.0
C194 C 0.90717 0.8517 0.11144 0.0
O195 O 0.8361 0.84546 0.0594 0.0
O196 O 0.79796 0.83486 0.08192 0.0
C197 C 0.80602 0.9566 0.10858 0.0
Fe198 Fe 0.16276 0.11047 0.61476 0.0
Fe199 Fe 0.16353 0.1936 0.57976 0.0
O200 O 0.18076 0.16029 0.60221 0.0
Fe201 Fe 0.21584 0.17619 0.61173 0.0
O202 O 0.23029 0.11732 0.60436 0.0
O203 O 0.19558 0.07593 0.62107 0.0
O204 O 0.16139 0.08011 0.58647 0.0
C205 C 0.15004 0.09785 0.56827 0.0
C206 C 0.18594 0.152 0.65389 0.0
O207 O 0.14345 0.14202 0.56771 0.0
C208 C 0.19457 0.26605 0.60506 0.0
O209 O 0.12652 0.13597 0.61114 0.0
O210 O 0.13397 0.21007 0.59916 0.0
O211 O 0.20929 0.15891 0.64264 0.0
O212 O 0.16341 0.13802 0.6435 0.0
C213 C 0.2178 0.18907 0.56204 0.0
O214 O 0.18119 0.25129 0.58702 0.0
O215 O 0.2044 0.23643 0.61976 0.0
C216 C 0.11813 0.17915 0.60911 0.0
O217 O 0.19163 0.17865 0.55921 0.0
O218 O 0.228 0.19648 0.58243 0.0
C219 C 0.22084 0.07835 0.61268 0.0
Fe220 Fe 0.86168 0.19723 0.90071 0.0
Fe221 Fe 0.80782 0.17132 0.87174 0.0
O222 O 0.84387 0.1597 0.88014 0.0
Fe223 Fe 0.86237 0.1098 0.8682 0.0
O224 O 0.86585 0.08295 0.89713 0.0
O225 O 0.88315 0.14836 0.91359 0.0
O226 O 0.83517 0.18407 0.92293 0.0
C227 C 0.80853 0.19129 0.92091 0.0
C228 C 0.90576 0.18147 0.87026 0.0
O229 O 0.79677 0.19419 0.90083 0.0
C230 C 0.8361 0.14564 0.82917 0.0
O231 O 0.84273 0.25276 0.89209 0.0
O232 O 0.81684 0.23121 0.86158 0.0
O233 O 0.89816 0.13772 0.86988 0.0
O234 O 0.88983 0.21264 0.87975 0.0
C235 C 0.80557 0.07329 0.87343 0.0
O236 O 0.81313 0.15109 0.8411 0.0
O237 O 0.85952 0.13433 0.83896 0.0
C238 C 0.82753 0.26366 0.87437 0.0
O239 O 0.79563 0.11219 0.88134 0.0
O240 O 0.8302 0.07231 0.86388 0.0
C241 C 0.87738 0.10381 0.91446 0.0
Fe242 Fe 0.16421 0.9161 0.37139 0.0
Fe243 Fe 0.16499 0.81959 0.39841 0.0
O244 O 0.18225 0.86269 0.38007 0.0
Fe245 Fe 0.2183 0.85233 0.37073 0.0
O246 O 0.22873 0.91578 0.36783 0.0
O247 O 0.19249 0.95457 0.3833 0.0
O248 O 0.14551 0.92464 0.39972 0.0
C249 C 0.1494 0.90525 0.41966 0.0
C250 C 0.19274 0.88277 0.3301 0.0
O251 O 0.15971 0.86354 0.42142 0.0
C252 C 0.1942 0.75866 0.36958 0.0
O253 O 0.13393 0.88317 0.35889 0.0
O254 O 0.12884 0.82932 0.38687 0.0
O255 O 0.2068 0.8501 0.34035 0.0
O256 O 0.18024 0.91607 0.34156 0.0
C257 C 0.22055 0.82712 0.41706 0.0
O258 O 0.16962 0.7713 0.37694 0.0
O259 O 0.21546 0.78691 0.37118 0.0
C260 C 0.11923 0.85107 0.36907 0.0
O261 O 0.19789 0.80299 0.41353 0.0
O262 O 0.23122 0.85361 0.40111 0.0
C263 C 0.21852 0.95323 0.37711 0.0
Fe264 Fe 0.16114 0.19685 0.90199 0.0
Fe265 Fe 0.15968 0.10912 0.86968 0.0
O266 O 0.17855 0.15906 0.88132 0.0
Fe267 Fe 0.21454 0.17044 0.87251 0.0
O268 O 0.22606 0.19339 0.90145 0.0
O269 O 0.18783 0.18385 0.92398 0.0
O270 O 0.13962 0.14816 0.91518 0.0
C271 C 0.14543 0.1037 0.91624 0.0
C272 C 0.19525 0.2629 0.87517 0.0
O273 O 0.15652 0.08252 0.89878 0.0
C274 C 0.18558 0.14496 0.83027 0.0
O275 O 0.13287 0.21217 0.88125 0.0
O276 O 0.12401 0.13717 0.87177 0.0
O277 O 0.20571 0.23032 0.86237 0.0
O278 O 0.18021 0.25222 0.89307 0.0
C279 C 0.21639 0.07243 0.87419 0.0
O280 O 0.16223 0.13344 0.84029 0.0
O281 O 0.20872 0.15018 0.84197 0.0
C282 C 0.11666 0.18099 0.87203 0.0
O283 O 0.19161 0.0715 0.86499 0.0
O284 O 0.22657 0.11129 0.88201 0.0
C285 C 0.21448 0.19084 0.92167 0.0
Fe286 Fe 0.86293 0.83321 0.40003 0.0
Fe287 Fe 0.86245 0.92221 0.36856 0.0
O288 O 0.84445 0.87122 0.38012 0.0
Fe289 Fe 0.80834 0.8591 0.37189 0.0
O290 O 0.79768 0.83519 0.40093 0.0
O291 O 0.83656 0.84375 0.42272 0.0
O292 O 0.88386 0.88239 0.41339 0.0
C293 C 0.87756 0.92666 0.4148 0.0
C294 C 0.82864 0.76694 0.37349 0.0
O295 O 0.86575 0.94798 0.39774 0.0
C296 C 0.83633 0.88659 0.32936 0.0
O297 O 0.8911 0.82021 0.37861 0.0
O298 O 0.89859 0.89594 0.36997 0.0
O299 O 0.81739 0.79964 0.36125 0.0
O300 O 0.8445 0.77742 0.39089 0.0
C301 C 0.80548 0.95707 0.37409 0.0
O302 O 0.8597 0.89851 0.33914 0.0
O303 O 0.81341 0.8802 0.34132 0.0
C304 C 0.90678 0.85261 0.36969 0.0
O305 O 0.83003 0.95875 0.36449 0.0
O306 O 0.79587 0.9178 0.38194 0.0
C307 C 0.80987 0.83656 0.4209 0.0
Fe308 Fe 0.21718 0.85962 0.1118 0.0
Fe309 Fe 0.16312 0.83243 0.08339 0.0
O310 O 0.18105 0.8708 0.10349 0.0
Fe311 Fe 0.16268 0.92115 0.1151 0.0
O312 O 0.19504 0.95867 0.11895 0.0
O313 O 0.22915 0.9181 0.10124 0.0
O314 O 0.22808 0.83484 0.08298 0.0
C315 C 0.21622 0.83646 0.06289 0.0
C316 C 0.18934 0.88709 0.15429 0.0
O317 O 0.18962 0.84406 0.06091 0.0
C318 C 0.11888 0.84994 0.11349 0.0
O319 O 0.20818 0.80037 0.12284 0.0
O320 O 0.18191 0.77732 0.09276 0.0
O321 O 0.16564 0.89735 0.14464 0.0
O322 O 0.21222 0.88195 0.14221 0.0
C323 C 0.14767 0.92547 0.0687 0.0
O324 O 0.13489 0.81827 0.1045 0.0
O325 O 0.12676 0.89355 0.1137 0.0
C326 C 0.19724 0.76732 0.11054 0.0
O327 O 0.14186 0.88095 0.06995 0.0
O328 O 0.15907 0.94702 0.08592 0.0
C329 C 0.21943 0.95732 0.10897 0.0
Fe330 Fe 0.80766 0.171 0.61094 0.0
Fe331 Fe 0.86124 0.19781 0.58156 0.0
O332 O 0.84359 0.15955 0.60197 0.0
Fe333 Fe 0.86214 0.10906 0.6132 0.0
O334 O 0.82996 0.0716 0.61772 0.0
O335 O 0.79518 0.11218 0.60108 0.0
O336 O 0.7962 0.19483 0.58218 0.0
C337 C 0.80775 0.19298 0.56194 0.0
C338 C 0.83666 0.14396 0.65289 0.0
O339 O 0.83436 0.18589 0.55955 0.0
C340 C 0.90588 0.18029 0.6111 0.0
O341 O 0.81687 0.23057 0.62144 0.0
O342 O 0.84261 0.25314 0.59093 0.0
O343 O 0.85986 0.13259 0.64268 0.0
O344 O 0.81347 0.14984 0.64135 0.0
C345 C 0.8765 0.10478 0.56673 0.0
O346 O 0.88984 0.21207 0.60226 0.0
O347 O 0.89802 0.13666 0.61125 0.0
C348 C 0.82751 0.26344 0.60884 0.0
O349 O 0.88233 0.14927 0.56793 0.0
O350 O 0.8651 0.08328 0.58398 0.0
C351 C 0.80514 0.07298 0.6086 0.0
H352 H 0.2936 0.23341 0.1431 0.0
H353 H 0.27006 0.97409 0.08475 0.0
H354 H 0.33916 0.18828 0.0806 0.0
H355 H 0.21145 0.03977 0.13423 0.0
H356 H 0.30036 0.0466 0.08639 0.0
H357 H 0.2691 0.15588 0.14418 0.0
C358 C 0.29883 0.20699 0.12977 0.0
C359 C 0.31834 0.21781 0.11158 0.0
C360 C 0.28087 0.04496 0.09689 0.0
C361 C 0.28996 0.12865 0.11263 0.0
C362 C 0.26357 1.00364 0.09596 0.0
C363 C 0.23806 1.00084 0.10928 0.0
C364 C 0.2728 0.08346 0.11148 0.0
C365 C 0.23076 0.04028 0.12351 0.0
C366 C 0.28464 0.16273 0.13033 0.0
C367 C 0.32422 0.18173 0.09491 0.0
N368 N 0.24804 0.07974 0.12426 0.0
N369 N 0.30992 0.13891 0.09572 0.0
H370 H 0.68165 0.84289 0.58218 0.0
H371 H 0.81491 0.99049 0.63328 0.0
H372 H 0.73152 0.79845 0.64239 0.0
H373 H 0.7531 0.05548 0.58644 0.0
H374 H 0.78473 0.91904 0.63551 0.0
H375 H 0.70658 0.92072 0.58288 0.0
C376 C 0.69742 0.84968 0.59581 0.0
C377 C 0.70458 0.81365 0.61215 0.0
C378 C 0.77762 0.94891 0.6248 0.0
C379 C 0.73359 0.90246 0.61272 0.0
C380 C 0.79499 0.98978 0.62338 0.0
C381 C 0.78665 0.02924 0.60958 0.0
C382 C 0.7517 0.94678 0.61212 0.0
C383 C 0.76041 0.02599 0.5973 0.0
C384 C 0.71174 0.89411 0.59611 0.0
C385 C 0.72531 0.82474 0.62932 0.0
N386 N 0.74396 0.98534 0.59873 0.0
N387 N 0.73926 0.86776 0.62896 0.0
H388 H 0.34024 0.8438 0.89879 0.0
H389 H 0.20567 0.98994 0.8497 0.0
H390 H 0.28752 0.79657 0.84065 0.0
H391 H 0.26872 0.05484 0.89565 0.0
H392 H 0.23551 0.91839 0.84709 0.0
H393 H 0.31543 0.92141 0.89807 0.0
C394 C 0.32382 0.84992 0.88561 0.0
C395 C 0.31585 0.81322 0.86987 0.0
C396 C 0.24296 0.94827 0.85769 0.0
C397 C 0.28703 0.90182 0.86928 0.0
C398 C 0.2258 0.98919 0.85932 0.0
C399 C 0.2346 0.02862 0.87299 0.0
C400 C 0.26912 0.94614 0.87001 0.0
C401 C 0.26105 0.02535 0.88491 0.0
C402 C 0.30959 0.89424 0.8853 0.0
C403 C 0.29437 0.82345 0.85323 0.0
N404 N 0.27731 0.98469 0.88326 0.0
N405 N 0.28053 0.86645 0.85358 0.0
H406 H 0.81465 0.03892 0.34879 0.0
H407 H 0.68318 0.18733 0.40191 0.0
H408 H 0.75394 0.9747 0.39719 0.0
H409 H 0.73224 0.23126 0.34093 0.0
H410 H 0.70774 0.1094 0.40096 0.0
H411 H 0.78466 0.11025 0.34687 0.0
C412 C 0.79499 0.03976 0.3591 0.0
C413 C 0.78692 1.00057 0.37326 0.0
C414 C 0.7128 0.13592 0.38763 0.0
C415 C 0.75219 0.08296 0.37108 0.0
C416 C 0.69871 0.18042 0.38808 0.0
C417 C 0.70575 0.21631 0.37158 0.0
C418 C 0.73428 0.12736 0.3707 0.0
C419 C 0.72614 0.20506 0.35412 0.0
C420 C 0.77773 0.08059 0.35786 0.0
C421 C 0.76103 1.004 0.38605 0.0
N422 N 0.73986 0.16196 0.35433 0.0
N423 N 0.74466 0.04463 0.38479 0.0
H424 H 0.81531 0.99101 0.84854 0.0
H425 H 0.68292 0.84313 0.90138 0.0
H426 H 0.75398 0.05535 0.89623 0.0
H427 H 0.73298 0.79739 0.84134 0.0
H428 H 0.70764 0.92105 0.90013 0.0
H429 H 0.78538 0.91923 0.84673 0.0
C430 C 0.79554 0.99009 0.85871 0.0
C431 C 0.78725 0.02942 0.87263 0.0
C432 C 0.71291 0.89413 0.88706 0.0
C433 C 0.75263 0.94667 0.87058 0.0
C434 C 0.69872 0.84964 0.88769 0.0
C435 C 0.70599 0.81327 0.87156 0.0
C436 C 0.73471 0.90219 0.87033 0.0
C437 C 0.72671 0.82399 0.85426 0.0
C438 C 0.77832 0.94904 0.85754 0.0
C439 C 0.76123 0.02594 0.88527 0.0
N440 N 0.74052 0.86711 0.85429 0.0
N441 N 0.74493 0.98515 0.88407 0.0
H442 H 0.2158 0.02738 0.40887 0.0
H443 H 0.31526 0.2084 0.339 0.0
H444 H 0.26162 0.98018 0.34698 0.0
H445 H 0.3136 0.20821 0.41487 0.0
H446 H 0.29005 0.13038 0.33922 0.0
H447 H 0.2454 0.1009 0.40926 0.0
C448 C 0.23206 0.03251 0.39539 0.0
C449 C 0.23636 0.99755 0.37795 0.0
C450 C 0.29557 0.14728 0.35578 0.0
C451 C 0.26975 0.08173 0.37801 0.0
C452 C 0.30998 0.19161 0.35566 0.0
C453 C 0.31689 0.2145 0.37693 0.0
C454 C 0.28715 0.12659 0.37728 0.0
C455 C 0.30916 0.19147 0.39806 0.0
C456 C 0.24899 0.07425 0.39568 0.0
C457 C 0.25776 1.00602 0.36087 0.0
N458 N 0.29433 0.14921 0.3977 0.0
N459 N 0.27342 0.04748 0.36115 0.0
H460 H 0.75469 0.97265 0.08537 0.0
H461 H 0.73329 0.23325 0.14294 0.0
H462 H 0.81453 0.03934 0.13349 0.0
H463 H 0.68605 0.18689 0.08158 0.0
H464 H 0.75755 0.15569 0.14392 0.0
H465 H 0.72458 0.04518 0.08728 0.0
C466 C 0.76148 1.00239 0.09636 0.0
C467 C 0.7873 0.99988 0.1092 0.0
C468 C 0.7417 0.16229 0.13034 0.0
C469 C 0.75278 0.08253 0.11169 0.0
C470 C 0.72765 0.20657 0.12985 0.0
C471 C 0.70771 0.21704 0.112 0.0
C472 C 0.73582 0.12782 0.11293 0.0
C473 C 0.70132 0.18063 0.09561 0.0
C474 C 0.74429 0.04373 0.09743 0.0
C475 C 0.79497 0.0396 0.12314 0.0
N476 N 0.71549 0.13779 0.09636 0.0
N477 N 0.77781 0.07904 0.12404 0.0
H478 H 0.21205 0.99784 0.63912 0.0
H479 H 0.34858 0.85377 0.59159 0.0
H480 H 0.27405 0.06275 0.59206 0.0
H481 H 0.29188 0.80426 0.64668 0.0
H482 H 0.32528 0.93314 0.59344 0.0
H483 H 0.24335 0.92854 0.64317 0.0
C484 C 0.23228 0.99756 0.62958 0.0
C485 C 0.24026 0.03622 0.61509 0.0
C486 C 0.31843 0.90521 0.60549 0.0
C487 C 0.27659 0.95621 0.6197 0.0
C488 C 0.33198 0.86014 0.60465 0.0
C489 C 0.32208 0.82249 0.61901 0.0
C490 C 0.29485 0.91225 0.62073 0.0
C491 C 0.30009 0.83231 0.63526 0.0
C492 C 0.25032 0.95792 0.63202 0.0
C493 C 0.26697 0.03372 0.60338 0.0
N494 N 0.28703 0.87588 0.63547 0.0
N495 N 0.28408 0.99418 0.60576 0.0
H496 H 0.84151 0.68751 0.08109 0.0
H497 H 0.70868 0.53988 0.13322 0.0
H498 H 0.79208 0.73202 0.1417 0.0
H499 H 0.77021 0.47516 0.08583 0.0
H500 H 0.73882 0.6114 0.13525 0.0
H501 H 0.81657 0.60973 0.08199 0.0
C502 C 0.82582 0.68075 0.09484 0.0
C503 C 0.81878 0.71675 0.11124 0.0
C504 C 0.74587 0.58156 0.12446 0.0
C505 C 0.78979 0.62803 0.11204 0.0
C506 C 0.72853 0.54067 0.12315 0.0
C507 C 0.73682 0.50129 0.10926 0.0
C508 C 0.77169 0.58375 0.11158 0.0
C509 C 0.76295 0.50461 0.09677 0.0
C510 C 0.8115 0.63635 0.09526 0.0
C511 C 0.79818 0.70571 0.12859 0.0
N512 N 0.77938 0.54526 0.09809 0.0
N513 N 0.78423 0.66271 0.12834 0.0
H514 H 0.30688 0.50334 0.57361 0.0
H515 H 0.20719 0.3225 0.64338 0.0
H516 H 0.26089 0.55049 0.63542 0.0
H517 H 0.20947 0.32189 0.56753 0.0
H518 H 0.23223 0.40064 0.64311 0.0
H519 H 0.27725 0.42987 0.57313 0.0
C520 C 0.29057 0.49822 0.58705 0.0
C521 C 0.28625 0.53314 0.60451 0.0
C522 C 0.22688 0.38355 0.62656 0.0
C523 C 0.2528 0.449 0.60434 0.0
C524 C 0.21256 0.33914 0.6267 0.0
C525 C 0.20589 0.31598 0.60546 0.0
C526 C 0.23544 0.40407 0.60506 0.0
C527 C 0.21373 0.33885 0.58432 0.0
C528 C 0.27362 0.4565 0.58671 0.0
C529 C 0.26478 0.52468 0.62153 0.0
N530 N 0.22848 0.3812 0.58466 0.0
N531 N 0.2491 0.48323 0.6212 0.0
H532 H 0.70733 0.49061 0.84964 0.0
H533 H 0.83952 0.34299 0.90178 0.0
H534 H 0.76864 0.55521 0.89722 0.0
H535 H 0.79004 0.29835 0.8413 0.0
H536 H 0.81474 0.42071 0.90094 0.0
H537 H 0.73726 0.41911 0.84763 0.0
C538 C 0.72709 0.4898 0.85975 0.0
C539 C 0.73538 0.52915 0.87369 0.0
C540 C 0.80962 0.39407 0.8877 0.0
C541 C 0.77002 0.44667 0.8714 0.0
C542 C 0.82384 0.3497 0.88808 0.0
C543 C 0.81676 0.31369 0.87169 0.0
C544 C 0.78796 0.40236 0.87095 0.0
C545 C 0.79618 0.32466 0.85441 0.0
C546 C 0.74432 0.44891 0.85846 0.0
C547 C 0.76139 0.52579 0.88624 0.0
N548 N 0.78233 0.36765 0.85468 0.0
N549 N 0.77771 0.48513 0.88493 0.0
H550 H 0.31127 0.53307 0.34437 0.0
H551 H 0.1746 0.67677 0.39182 0.0
H552 H 0.24914 0.46764 0.39115 0.0
H553 H 0.23099 0.72604 0.33647 0.0
H554 H 0.198 0.59745 0.39005 0.0
H555 H 0.27992 0.60232 0.34036 0.0
C556 C 0.291 0.53323 0.35387 0.0
C557 C 0.28299 0.49443 0.36826 0.0
C558 C 0.20475 0.62532 0.37793 0.0
C559 C 0.2466 0.57438 0.36369 0.0
C560 C 0.19115 0.67035 0.37873 0.0
C561 C 0.20094 0.70792 0.36427 0.0
C562 C 0.22828 0.61825 0.36263 0.0
C563 C 0.22287 0.69805 0.34797 0.0
C564 C 0.27293 0.57284 0.35144 0.0
C565 C 0.25623 0.49679 0.37991 0.0
N566 N 0.23599 0.65453 0.34781 0.0
N567 N 0.23909 0.53629 0.37755 0.0
H568 H 0.31521 0.49061 0.84834 0.0
H569 H 0.18355 0.34257 0.90235 0.0
H570 H 0.25466 0.55459 0.8968 0.0
H571 H 0.23256 0.29716 0.84166 0.0
H572 H 0.20842 0.42036 0.90101 0.0
H573 H 0.28528 0.41877 0.84678 0.0
C574 C 0.29562 0.48958 0.85873 0.0
C575 C 0.28754 0.52883 0.87279 0.0
C576 C 0.21342 0.39353 0.88783 0.0
C577 C 0.25292 0.44606 0.87103 0.0
C578 C 0.19915 0.34912 0.88851 0.0
C579 C 0.20608 0.31289 0.87221 0.0
C580 C 0.23497 0.40164 0.87088 0.0
C581 C 0.22655 0.32366 0.85471 0.0
C582 C 0.2784 0.44851 0.85771 0.0
C583 C 0.26175 0.52524 0.88572 0.0
N584 N 0.24045 0.36671 0.8547 0.0
N585 N 0.24544 0.48445 0.88465 0.0
H586 H 0.84124 0.68689 0.40018 0.0
H587 H 0.70826 0.53917 0.34847 0.0
H588 H 0.79066 0.73263 0.3406 0.0
H589 H 0.7699 0.47448 0.39556 0.0
H590 H 0.73826 0.61086 0.34645 0.0
H591 H 0.81648 0.60893 0.39914 0.0
C592 C 0.82534 0.68037 0.38662 0.0
C593 C 0.81795 0.71677 0.37056 0.0
C594 C 0.74538 0.581 0.35717 0.0
C595 C 0.78915 0.6278 0.3696 0.0
C596 C 0.72812 0.53998 0.35846 0.0
C597 C 0.73646 0.50055 0.37228 0.0
C598 C 0.77118 0.5833 0.37 0.0
C599 C 0.7626 0.50394 0.38468 0.0
C600 C 0.81111 0.63587 0.38613 0.0
C601 C 0.79705 0.70603 0.35346 0.0
N602 N 0.77894 0.54472 0.38338 0.0
N603 N 0.78323 0.6629 0.35362 0.0
H604 H 0.25464 0.47371 0.08577 0.0
H605 H 0.23447 0.73381 0.14412 0.0
H606 H 0.31562 0.54027 0.13298 0.0
H607 H 0.18535 0.68711 0.08381 0.0
H608 H 0.25877 0.65626 0.14468 0.0
H609 H 0.22439 0.54594 0.08846 0.0
C610 C 0.26166 0.50338 0.0967 0.0
C611 C 0.28782 0.50092 0.10907 0.0
C612 C 0.2425 0.66279 0.13143 0.0
C613 C 0.25316 0.58319 0.11247 0.0
C614 C 0.22842 0.70704 0.13119 0.0
C615 C 0.20798 0.71742 0.11373 0.0
C616 C 0.23613 0.6283 0.11415 0.0
C617 C 0.20105 0.68093 0.09753 0.0
C618 C 0.24438 0.54453 0.09824 0.0
C619 C 0.29578 0.5405 0.12299 0.0
N620 N 0.21527 0.63815 0.09801 0.0
N621 N 0.27854 0.57978 0.12434 0.0
H622 H 0.7915 0.29755 0.64325 0.0
H623 H 0.76977 0.55788 0.58541 0.0
H624 H 0.83833 0.34331 0.58143 0.0
H625 H 0.71048 0.49151 0.63428 0.0
H626 H 0.79997 0.48537 0.5872 0.0
H627 H 0.76744 0.37527 0.64436 0.0
C628 C 0.7971 0.32414 0.63008 0.0
C629 C 0.81685 0.31344 0.61208 0.0
C630 C 0.78037 0.48691 0.59754 0.0
C631 C 0.78896 0.40287 0.61315 0.0
C632 C 0.76313 0.52824 0.59654 0.0
C633 C 0.73743 0.53081 0.60961 0.0
C634 C 0.77203 0.44821 0.61197 0.0
C635 C 0.72994 0.49122 0.62374 0.0
C636 C 0.78316 0.36852 0.63065 0.0
C637 C 0.82319 0.34974 0.5956 0.0
N638 N 0.74713 0.45182 0.62456 0.0
N639 N 0.80913 0.39268 0.59641 0.0
H640 H 0.39054 0.38927 0.02328 0.0
H641 H 0.39052 0.64283 0.95698 0.0
H642 H 0.37712 0.52462 0.05876 0.0
H643 H 0.37631 0.50758 0.92156 0.0
H644 H 0.39484 0.59979 -0.00575 0.0
H645 H 0.39451 0.43221 0.98591 0.0
C646 C 0.38886 0.4281 0.0233 0.0
C647 C 0.38346 0.45337 0.04425 0.0
C648 C 0.39102 0.57952 0.97829 0.0
C649 C 0.38791 0.50268 0.00141 0.0
C650 C 0.38873 0.60401 0.95695 0.0
C651 C 0.383 0.5788 0.93604 0.0
C652 C 0.38783 0.52937 0.97879 0.0
C653 C 0.38066 0.52852 0.93721 0.0
C654 C 0.39095 0.45252 0.00191 0.0
C655 C 0.38122 0.50364 0.04307 0.0
N656 N 0.38304 0.50547 0.95823 0.0
N657 N 0.38341 0.52663 0.02201 0.0
H658 H 0.64742 0.52461 0.42184 0.0
H659 H 0.6467 0.5048 0.5611 0.0
H660 H 0.63296 0.39077 0.45852 0.0
H661 H 0.63372 0.63907 0.52459 0.0
H662 H 0.64195 0.46218 0.52368 0.0
H663 H 0.64266 0.56753 0.45921 0.0
C664 C 0.64292 0.5043 0.43768 0.0
C665 C 0.64063 0.45401 0.43704 0.0
C666 C 0.63979 0.50092 0.52391 0.0
C667 C 0.63558 0.5028 0.47987 0.0
C668 C 0.64254 0.52527 0.54527 0.0
C669 C 0.64063 0.57557 0.54598 0.0
C670 C 0.6356 0.52711 0.50307 0.0
C671 C 0.63522 0.60025 0.52489 0.0
C672 C 0.64017 0.52882 0.45901 0.0
C673 C 0.63481 0.42956 0.45815 0.0
N674 N 0.63324 0.57583 0.50426 0.0
N675 N 0.63282 0.45413 0.47873 0.0
H676 H 0.63313 0.38738 0.02446 0.0
H677 H 0.63173 0.64139 0.95872 0.0
H678 H 0.64675 0.5227 0.05999 0.0
H679 H 0.64588 0.50649 0.923 0.0
H680 H 0.62744 0.59804 -0.00407 0.0
H681 H 0.62804 0.43058 0.98729 0.0
C682 C 0.63462 0.42624 0.02453 0.0
C683 C 0.64046 0.45146 0.0454 0.0
C684 C 0.63121 0.57792 0.97991 0.0
C685 C 0.63472 0.50101 0.00284 0.0
C686 C 0.63349 0.60258 0.95862 0.0
C687 C 0.63925 0.57754 0.93767 0.0
C688 C 0.63445 0.52781 0.9803 0.0
C689 C 0.64154 0.52727 0.93871 0.0
C690 C 0.63188 0.45081 0.00326 0.0
C691 C 0.64238 0.50178 0.04433 0.0
N692 N 0.6392 0.50406 0.95968 0.0
N693 N 0.63959 0.5249 0.02339 0.0
H694 H 0.37288 0.66048 0.51774 0.0
H695 H 0.39287 0.4021 0.45801 0.0
H696 H 0.38752 0.53043 0.55735 0.0
H697 H 0.36585 0.52888 0.4203 0.0
H698 H 0.39746 0.45029 0.49374 0.0
H699 H 0.37691 0.61462 0.48137 0.0
C700 C 0.37718 0.62231 0.51884 0.0
C701 C 0.37957 0.59929 0.54076 0.0
C702 C 0.39075 0.46765 0.47761 0.0
C703 C 0.38418 0.54634 0.49891 0.0
C704 C 0.38822 0.44019 0.45713 0.0
C705 C 0.37888 0.46139 0.43604 0.0
C706 C 0.38398 0.51679 0.47708 0.0
C707 C 0.37306 0.51091 0.43611 0.0
C708 C 0.37945 0.59611 0.49799 0.0
C709 C 0.38547 0.54977 0.54092 0.0
N710 N 0.3756 0.53682 0.45631 0.0
N711 N 0.38736 0.52491 0.52033 0.0
H712 H 0.87708 1.00602 0.92103 0.0
H713 H 0.87755 0.02514 0.06041 0.0
H714 H 0.89074 0.1399 0.95782 0.0
H715 H 0.89059 0.89115 0.02361 0.0
H716 H 0.8822 0.06803 0.02302 0.0
H717 H 0.88188 0.96301 0.95836 0.0
C718 C 0.88142 0.02633 0.93689 0.0
C719 C 0.88348 0.07665 0.93628 0.0
C720 C 0.8844 0.02929 0.02319 0.0
C721 C 0.88856 0.02773 0.97909 0.0
C722 C 0.88172 1.00478 0.04452 0.0
C723 C 0.88366 0.95447 0.04515 0.0
C724 C 0.88858 1.00327 0.00227 0.0
C725 C 0.88905 0.92997 0.02399 0.0
C726 C 0.88418 1.00176 0.9582 0.0
C727 C 0.88909 0.10108 0.95742 0.0
N728 N 0.89098 0.95455 0.00339 0.0
N729 N 0.8911 0.07645 0.97799 0.0
H730 H 0.13429 1.00048 0.42436 0.0
H731 H 0.15698 1.00021 0.56384 0.0
H732 H 0.15085 0.87256 0.4651 0.0
H733 H 0.13135 0.12592 0.52466 0.0
H734 H 0.15224 0.95217 0.52806 0.0
H735 H 0.1302 0.04631 0.46098 0.0
C736 C 0.1367 0.98185 0.44097 0.0
C737 C 0.14318 0.93257 0.44156 0.0
C738 C 0.14739 0.99019 0.52732 0.0
C739 C 0.13885 0.98501 0.4836 0.0
C740 C 0.15008 0.01767 0.54779 0.0
C741 C 0.14461 0.06727 0.54732 0.0
C742 C 0.13943 1.01243 0.5061 0.0
C743 C 0.13576 0.08782 0.52592 0.0
C744 C 0.13446 1.00811 0.4619 0.0
C745 C 0.14616 0.91053 0.46368 0.0
N746 N 0.13368 0.06043 0.50616 0.0
N747 N 0.14421 0.93692 0.48373 0.0
H748 H 0.13424 0.88758 0.0257 0.0
H749 H 0.13273 0.14115 0.95948 0.0
H750 H 0.14817 0.02305 0.061 0.0
H751 H 0.14654 1.00608 0.92384 0.0
H752 H 0.12908 0.09805 -0.0032 0.0
H753 H 0.12946 0.93052 0.98842 0.0
C754 C 0.13588 0.92643 0.0257 0.0
C755 C 0.14166 0.95174 0.04656 0.0
C756 C 0.13265 0.07784 0.98079 0.0
C757 C 0.13629 1.00103 0.00384 0.0
C758 C 0.13456 0.10234 0.95942 0.0
C759 C 0.13999 0.0772 0.93844 0.0
C760 C 0.13592 0.02772 0.98123 0.0
C761 C 0.14242 0.02695 0.93956 0.0
C762 C 0.13332 0.95084 0.00436 0.0
C763 C 0.1438 1.00204 0.04537 0.0
N764 N 0.14041 1.00387 0.9606 0.0
N765 N 0.14115 0.02502 0.02436 0.0
H766 H 0.89105 0.8889 0.45775 0.0
H767 H 0.89045 0.14247 0.52381 0.0
H768 H 0.87698 0.02413 0.42236 0.0
H769 H 0.87597 1.00721 0.55923 0.0
H770 H 0.89547 0.09936 0.48661 0.0
H771 H 0.89548 0.93197 0.49503 0.0
C772 C 0.88934 0.92773 0.45774 0.0
C773 C 0.88355 0.95296 0.43688 0.0
C774 C 0.89145 0.07912 0.50257 0.0
C775 C 0.88853 1.00233 0.47954 0.0
C776 C 0.88873 0.10363 0.52385 0.0
C777 C 0.88267 0.07841 0.54469 0.0
C778 C 0.88834 0.02896 0.5021 0.0
C779 C 0.88051 0.02813 0.54359 0.0
C780 C 0.8917 0.9522 0.47907 0.0
C781 C 0.88132 1.00322 0.43801 0.0
N782 N 0.88327 1.00504 0.52262 0.0
N783 N 0.88375 0.02625 0.459 0.0
H784 H 0.44149 0.4011 0.14117 0.0
H785 H 0.58521 0.27206 0.09757 0.0
H786 H 0.44109 0.27625 0.09617 0.0
H787 H 0.58255 0.39971 0.14062 0.0
H788 H 0.5329 0.26312 0.10263 0.0
H789 H 0.49309 0.39098 0.1471 0.0
C790 C 0.45226 0.37115 0.13275 0.0
C791 C 0.43708 0.33994 0.11786 0.0
C792 C 0.54388 0.2926 0.11127 0.0
C793 C 0.49644 0.32848 0.12425 0.0
C794 C 0.57374 0.2976 0.10848 0.0
C795 C 0.58815 0.33717 0.11837 0.0
C796 C 0.52847 0.32733 0.12411 0.0
C797 C 0.57224 0.36914 0.13234 0.0
C798 C 0.48177 0.36536 0.13613 0.0
C799 C 0.45203 0.30131 0.10768 0.0
N800 N 0.54329 0.36381 0.13457 0.0
N801 N 0.48104 0.29713 0.11073 0.0
H802 H 0.58307 0.75482 0.60152 0.0
H803 H 0.4376 0.6243 0.64302 0.0
H804 H 0.58026 0.61911 0.63825 0.0
H805 H 0.44 0.75053 0.59887 0.0
H806 H 0.48983 0.63077 0.64816 0.0
H807 H 0.53088 0.76253 0.60711 0.0
C808 C 0.5716 0.72707 0.6111 0.0
C809 C 0.586 0.68589 0.61909 0.0
C810 C 0.47886 0.65739 0.63758 0.0
C811 C 0.5263 0.69431 0.62544 0.0
C812 C 0.44898 0.65381 0.63472 0.0
C813 C 0.43439 0.68643 0.62018 0.0
C814 C 0.49425 0.69387 0.62585 0.0
C815 C 0.45036 0.72408 0.60995 0.0
C816 C 0.54177 0.73136 0.6142 0.0
C817 C 0.56998 0.65111 0.63145 0.0
N818 N 0.47941 0.72644 0.61277 0.0
N819 N 0.54101 0.65587 0.63402 0.0
H820 H 0.58275 0.63148 0.84049 0.0
H821 H 0.43851 0.75881 0.88431 0.0
H822 H 0.58271 0.75502 0.88634 0.0
H823 H 0.44168 0.63167 0.84092 0.0
H824 H 0.49084 0.76807 0.87949 0.0
H825 H 0.53115 0.64143 0.8345 0.0
C826 C 0.57189 0.66113 0.84908 0.0
C827 C 0.58694 0.692 0.86422 0.0
C828 C 0.47997 0.73863 0.87073 0.0
C829 C 0.52756 0.70324 0.85777 0.0
C830 C 0.45009 0.73345 0.87337 0.0
C831 C 0.43581 0.69394 0.8633 0.0
C832 C 0.49552 0.70416 0.85784 0.0
C833 C 0.45188 0.6622 0.84933 0.0
C834 C 0.54237 0.66681 0.84567 0.0
C835 C 0.57186 0.73024 0.87462 0.0
N836 N 0.48083 0.66772 0.84723 0.0
N837 N 0.54284 0.73431 0.87153 0.0
H838 H 0.58232 0.3988 0.34142 0.0
H839 H 0.43816 0.27529 0.38915 0.0
H840 H 0.58264 0.27676 0.38823 0.0
H841 H 0.44114 0.4013 0.34493 0.0
H842 H 0.49037 0.2657 0.3838 0.0
H843 H 0.53037 0.39012 0.33696 0.0
C844 C 0.57145 0.36972 0.35053 0.0
C845 C 0.58675 0.33891 0.36548 0.0
C846 C 0.47948 0.29503 0.37502 0.0
C847 C 0.52698 0.32916 0.3608 0.0
C848 C 0.44968 0.30043 0.378 0.0
C849 C 0.43535 0.33964 0.36778 0.0
C850 C 0.49494 0.32893 0.36164 0.0
C851 C 0.45135 0.37103 0.35348 0.0
C852 C 0.54173 0.36479 0.34802 0.0
C853 C 0.57162 0.30144 0.37661 0.0
N854 N 0.48023 0.36524 0.35103 0.0
N855 N 0.54244 0.2981 0.37436 0.0
H856 H 0.9414 0.90225 0.14126 0.0
H857 H 0.08583 0.77285 0.09914 0.0
H858 H 0.94159 0.77689 0.09659 0.0
H859 H 0.0826 0.90199 0.14109 0.0
H860 H 0.03345 0.76417 0.10373 0.0
H861 H 0.99303 0.89282 0.14726 0.0
C862 C 0.9523 0.87234 0.13291 0.0
C863 C 0.93726 0.84077 0.11811 0.0
C864 C 0.04431 0.79395 0.11223 0.0
C865 C 0.99669 0.83006 0.12461 0.0
C866 C 0.07422 0.7988 0.10971 0.0
C867 C 0.08853 0.83865 0.11945 0.0
C868 C 0.02873 0.82908 0.12465 0.0
C869 C 0.0724 0.87115 0.13295 0.0
C870 C 0.98184 0.86695 0.13634 0.0
C871 C 0.95241 0.80222 0.10804 0.0
N872 N 0.04341 0.86591 0.13494 0.0
N873 N 0.98144 0.79839 0.11116 0.0
H874 H 0.94065 0.13118 0.64092 0.0
H875 H 0.08487 0.25455 0.59321 0.0
H876 H 0.94033 0.25371 0.59443 0.0
H877 H 0.08186 0.12891 0.63769 0.0
H878 H 0.03265 0.26412 0.59849 0.0
H879 H 0.99262 0.13968 0.64532 0.0
C880 C 0.95152 0.16034 0.63187 0.0
C881 C 0.93621 0.19136 0.61704 0.0
C882 C 0.04353 0.23488 0.60733 0.0
C883 C 0.99601 0.20088 0.62163 0.0
C884 C 0.07335 0.22948 0.60439 0.0
C885 C 0.08768 0.19039 0.61472 0.0
C886 C 0.02806 0.20108 0.62078 0.0
C887 C 0.07166 0.15909 0.62906 0.0
C888 C 0.98125 0.16516 0.63435 0.0
C889 C 0.95135 0.22889 0.60597 0.0
N890 N 0.04277 0.16487 0.63147 0.0
N891 N 0.98054 0.23213 0.60817 0.0
H892 H 0.08394 0.25815 0.88649 0.0
H893 H 0.94018 0.13374 0.83952 0.0
H894 H 0.08103 0.13107 0.84303 0.0
H895 H 0.93986 0.25552 0.88649 0.0
H896 H 0.99197 0.1435 0.83426 0.0
H897 H 0.0319 0.26844 0.88062 0.0
C898 C 0.07249 0.23299 0.87534 0.0
C899 C 0.0867 0.1932 0.86556 0.0
C900 C 0.98062 0.16856 0.84551 0.0
C901 C 0.02736 0.20465 0.85885 0.0
C902 C 0.95101 0.163 0.84849 0.0
C903 C 0.9358 0.19335 0.86376 0.0
C904 C 0.99535 0.20432 0.85816 0.0
C905 C 0.95083 0.23113 0.87467 0.0
C906 C 0.04278 0.23878 0.87208 0.0
C907 C 0.07083 0.16177 0.85126 0.0
N908 N 0.97993 0.23504 0.87199 0.0
N909 N 0.04203 0.16789 0.84855 0.0
H910 H 0.0854 0.90445 0.33912 0.0
H911 H 0.94013 0.77424 0.38128 0.0
H912 H 0.08314 0.77949 0.38414 0.0
H913 H 0.94276 0.90869 0.34345 0.0
H914 H 0.99233 0.76651 0.37572 0.0
H915 H 0.03322 0.89729 0.3338 0.0
C916 C 0.07406 0.87507 0.34759 0.0
C917 C 0.08867 0.84303 0.36242 0.0
C918 C 0.98139 0.79738 0.36836 0.0
C919 C 0.02887 0.83481 0.35653 0.0
C920 C 0.95156 0.80167 0.37144 0.0
C921 C 0.93712 0.84256 0.36315 0.0
C922 C 0.99682 0.83414 0.35686 0.0
C923 C 0.95308 0.87694 0.35049 0.0
C924 C 0.04422 0.87109 0.34462 0.0
C925 C 0.07276 0.80551 0.37284 0.0
N926 N 0.98205 0.87221 0.34795 0.0
N927 N 0.04373 0.80277 0.36991 0.0
H928 H 0.32517 0.34891 0.01543 0.0
H929 H 0.19889 0.17966 0.96763 0.0
H930 H 0.25817 0.28933 0.05962 0.0
H931 H 0.26608 0.23891 0.92353 0.0
H932 H 0.22103 0.21787 0.00169 0.0
H933 H 0.3032 0.31021 0.98144 0.0
C934 C 0.30561 0.32814 0.01794 0.0
C935 C 0.29355 0.32208 0.04043 0.0
C936 C 0.23105 0.22228 0.9846 0.0
C937 C 0.26857 0.27709 0.0016 0.0
C938 C 0.21854 0.20022 0.96516 0.0
C939 C 0.23058 0.20638 0.94267 0.0
C940 C 0.25574 0.25083 0.98157 0.0
C941 C 0.2561 0.23315 0.94054 0.0
C942 C 0.29319 0.30581 -0.00147 0.0
C943 C 0.26814 0.29503 0.04261 0.0
N944 N 0.26772 0.25476 0.95974 0.0
N945 N 0.2566 0.27319 0.02343 0.0
H946 H 0.8272 0.84445 0.46662 0.0
H947 H 0.6971 0.68522 0.51646 0.0
H948 H 0.75729 0.79142 0.42369 0.0
H949 H 0.76606 0.74037 0.55978 0.0
H950 H 0.71956 0.72223 0.48216 0.0
H951 H 0.8048 0.80759 0.501 0.0
C952 C 0.80695 0.82547 0.46445 0.0
C953 C 0.79416 0.82081 0.44218 0.0
C954 C 0.72988 0.72606 0.49913 0.0
C955 C 0.76861 0.77795 0.48151 0.0
C956 C 0.71716 0.70472 0.51873 0.0
C957 C 0.72965 0.70992 0.54108 0.0
C958 C 0.75529 0.75293 0.50183 0.0
C959 C 0.7557 0.73535 0.5429 0.0
C960 C 0.79426 0.80422 0.4841 0.0
C961 C 0.76788 0.79602 0.44049 0.0
N962 N 0.76756 0.7562 0.52354 0.0
N963 N 0.75607 0.77521 0.45989 0.0
H964 H 0.26894 0.79198 0.06049 0.0
H965 H 0.25528 0.73668 0.92259 0.0
H966 H 0.19878 0.84201 0.01713 0.0
H967 H 0.32565 0.68708 0.96584 0.0
H968 H 0.23354 0.77378 0.95731 0.0
H969 H 0.2906 0.75452 0.02582 0.0
C970 C 0.25831 0.79571 0.04364 0.0
C971 C 0.23194 0.81997 0.04175 0.0
C972 C 0.25365 0.75452 0.95921 0.0
C973 C 0.25631 0.77649 0.00211 0.0
C974 C 0.26593 0.73294 0.93943 0.0
C975 C 0.29239 0.70895 0.94126 0.0
C976 C 0.26793 0.75204 0.98097 0.0
C977 C 0.30532 0.70553 0.96354 0.0
C978 C 0.27054 0.77394 0.02388 0.0
C979 C 0.21904 0.82337 0.01946 0.0
N980 N 0.29305 0.72709 0.98248 0.0
N981 N 0.23127 0.80164 0.00056 0.0
H982 H 0.75548 0.23873 0.56038 0.0
H983 H 0.76747 0.29262 0.42236 0.0
H984 H 0.82391 0.18524 0.51595 0.0
H985 H 0.69884 0.34587 0.46667 0.0
H986 H 0.78923 0.25473 0.45675 0.0
H987 H 0.73367 0.27672 0.52601 0.0
C988 C 0.76566 0.2343 0.54335 0.0
C989 C 0.79164 0.20906 0.54105 0.0
C990 C 0.7695 0.27497 0.45896 0.0
C991 C 0.76717 0.25315 0.5018 0.0
C992 C 0.75723 0.29702 0.43936 0.0
C993 C 0.73121 0.32217 0.44162 0.0
C994 C 0.75565 0.27818 0.48091 0.0
C995 C 0.71881 0.32646 0.46408 0.0
C996 C 0.75337 0.2564 0.52378 0.0
C997 C 0.80398 0.20473 0.51857 0.0
N998 N 0.73104 0.30439 0.48282 0.0
N999 N 0.79173 0.22684 0.49985 0.0
H1000 H 0.8254 0.84787 0.01575 0.0
H1001 H 0.69755 0.68257 0.96739 0.0
H1002 H 0.75789 0.78947 0.0598 0.0
H1003 H 0.76608 0.73883 0.92373 0.0
H1004 H 0.71976 0.72031 0.00155 0.0
H1005 H 0.80316 0.80992 0.98169 0.0
C1006 C 0.80568 0.82749 0.01822 0.0
C1007 C 0.79356 0.82157 0.0407 0.0
C1008 C 0.73005 0.72417 0.98454 0.0
C1009 C 0.76823 0.77746 0.00176 0.0
C1010 C 0.71748 0.70241 0.96503 0.0
C1011 C 0.7299 0.70781 0.94263 0.0
C1012 C 0.75519 0.75169 0.98165 0.0
C1013 C 0.75579 0.73366 0.94066 0.0
C1014 C 0.7931 0.80559 -0.00123 0.0
C1015 C 0.76794 0.79505 0.04281 0.0
N1016 N 0.76746 0.75498 0.95991 0.0
N1017 N 0.75623 0.77364 0.02359 0.0
H1018 H 0.20668 0.16661 0.51632 0.0
H1019 H 0.31662 0.36309 0.46648 0.0
H1020 H 0.26449 0.2492 0.56008 0.0
H1021 H 0.25878 0.2806 0.42271 0.0
H1022 H 0.29679 0.32329 0.50111 0.0
H1023 H 0.22653 0.20637 0.48168 0.0
C1024 C 0.22392 0.19256 0.51859 0.0
C1025 C 0.23388 0.20485 0.5411 0.0
C1026 C 0.28825 0.31417 0.48397 0.0
C1027 C 0.25622 0.25115 0.5016 0.0
C1028 C 0.29938 0.33715 0.46421 0.0
C1029 C 0.2894 0.32491 0.4417 0.0
C1030 C 0.26707 0.27856 0.48118 0.0
C1031 C 0.267 0.29125 0.43975 0.0
C1032 C 0.23506 0.21552 0.49882 0.0
C1033 C 0.25627 0.23852 0.54304 0.0
N1034 N 0.25676 0.26884 0.45926 0.0
N1035 N 0.26652 0.2609 0.52352 0.0
H1036 H 0.69991 0.34976 0.01597 0.0
H1037 H 0.82458 0.17965 0.96667 0.0
H1038 H 0.76692 0.2892 0.05942 0.0
H1039 H 0.75729 0.23982 0.92337 0.0
H1040 H 0.80313 0.21801 0.00101 0.0
H1041 H 0.72141 0.31135 0.98169 0.0
C1042 C 0.71939 0.32885 0.01825 0.0
C1043 C 0.73156 0.32238 0.04062 0.0
C1044 C 0.79293 0.22258 0.98403 0.0
C1045 C 0.75599 0.27772 0.00147 0.0
C1046 C 0.80505 0.20045 0.96444 0.0
C1047 C 0.79279 0.20684 0.9421 0.0
C1048 C 0.76842 0.25143 0.98128 0.0
C1049 C 0.76743 0.23389 0.94026 0.0
C1050 C 0.73153 0.30668 -0.00132 0.0
C1051 C 0.75687 0.2952 0.04251 0.0
N1052 N 0.7562 0.25556 0.9596 0.0
N1053 N 0.76813 0.27349 0.02318 0.0
H1054 H 0.27781 0.80791 0.42516 0.0
H1055 H 0.24511 0.72315 0.55772 0.0
H1056 H 0.19536 0.82334 0.45942 0.0
H1057 H 0.32768 0.70826 0.52359 0.0
H1058 H 0.2257 0.75765 0.52124 0.0
H1059 H 0.29726 0.77349 0.46165 0.0
C1060 C 0.26413 0.80534 0.44058 0.0
C1061 C 0.23509 0.81843 0.43949 0.0
C1062 C 0.24799 0.74622 0.52167 0.0
C1063 C 0.25654 0.778 0.4807 0.0
C1064 C 0.25883 0.72587 0.54233 0.0
C1065 C 0.28788 0.7129 0.54346 0.0
C1066 C 0.26648 0.75341 0.50225 0.0
C1067 C 0.3051 0.71797 0.52328 0.0
C1068 C 0.27499 0.78504 0.46125 0.0
C1069 C 0.21793 0.81355 0.45971 0.0
N1070 N 0.29422 0.73816 0.50356 0.0
N1071 N 0.22883 0.79339 0.47943 0.0
H1072 H 0.29116 0.36835 0.18121 0.0
H1073 H 0.38342 0.38987 0.29961 0.0
H1074 H 0.38265 0.3974 0.18325 0.0
H1075 H 0.29167 0.36291 0.29908 0.0
H1076 H 0.38345 0.38952 0.25682 0.0
H1077 H 0.29081 0.3635 0.22419 0.0
C1078 C 0.31117 0.37372 0.19066 0.0
C1079 C 0.33695 0.38358 0.17857 0.0
C1080 C 0.36329 0.38357 0.26601 0.0
C1081 C 0.33668 0.3779 0.22773 0.0
C1082 C 0.36324 0.38376 0.29051 0.0
C1083 C 0.33745 0.37672 0.30302 0.0
C1084 C 0.33736 0.37635 0.2538 0.0
C1085 C 0.31204 0.36864 0.29018 0.0
C1086 C 0.31094 0.3709 0.2152 0.0
C1087 C 0.36222 0.39 0.19177 0.0
N1088 N 0.31262 0.36888 0.26626 0.0
N1089 N 0.36142 0.38712 0.21559 0.0
H1090 H 0.73381 0.65921 0.80133 0.0
H1091 H 0.64083 0.63458 0.68354 0.0
H1092 H 0.64182 0.63493 0.79939 0.0
H1093 H 0.73288 0.65853 0.68299 0.0
H1094 H 0.64131 0.63679 0.7262 0.0
H1095 H 0.7344 0.6612 0.75824 0.0
C1096 C 0.71376 0.65436 0.79189 0.0
C1097 C 0.68775 0.64662 0.80403 0.0
C1098 C 0.66146 0.6416 0.71683 0.0
C1099 C 0.6883 0.64895 0.75483 0.0
C1100 C 0.66122 0.64028 0.69238 0.0
C1101 C 0.68691 0.64608 0.6796 0.0
C1102 C 0.68758 0.64872 0.72877 0.0
C1103 C 0.71258 0.65374 0.69213 0.0
C1104 C 0.71413 0.65551 0.7673 0.0
C1105 C 0.66242 0.64072 0.79086 0.0
N1106 N 0.71229 0.6547 0.71607 0.0
N1107 N 0.66338 0.64193 0.76703 0.0
H1108 H 0.29482 0.60208 0.80043 0.0
H1109 H 0.33868 0.72328 0.6817 0.0
H1110 H 0.3725 0.68737 0.79784 0.0
H1111 H 0.32376 0.57023 0.68217 0.0
H1112 H 0.34015 0.72247 0.72494 0.0
H1113 H 0.29384 0.60123 0.75708 0.0
C1114 C 0.31147 0.62094 0.79071 0.0
C1115 C 0.33377 0.64487 0.80255 0.0
C1116 C 0.33654 0.6892 0.71549 0.0
C1117 C 0.3324 0.64481 0.75349 0.0
C1118 C 0.33559 0.6896 0.69096 0.0
C1119 C 0.33121 0.6467 0.67851 0.0
C1120 C 0.33207 0.6459 0.72757 0.0
C1121 C 0.3274 0.60393 0.69123 0.0
C1122 C 0.31099 0.62014 0.76612 0.0
C1123 C 0.35502 0.66844 0.78925 0.0
N1124 N 0.32753 0.60465 0.71518 0.0
N1125 N 0.35362 0.66839 0.76536 0.0
H1126 H 0.73472 0.37152 0.18181 0.0
H1127 H 0.64068 0.39232 0.2995 0.0
H1128 H 0.64266 0.39451 0.18357 0.0
H1129 H 0.73295 0.37149 0.29998 0.0
H1130 H 0.64142 0.39048 0.2568 0.0
H1131 H 0.73491 0.36885 0.22488 0.0
C1132 C 0.71457 0.37596 0.19121 0.0
C1133 C 0.68866 0.38354 0.17904 0.0
C1134 C 0.66155 0.38626 0.26618 0.0
C1135 C 0.68875 0.3804 0.2282 0.0
C1136 C 0.66116 0.38735 0.29063 0.0
C1137 C 0.68684 0.38237 0.30339 0.0
C1138 C 0.6878 0.38018 0.25425 0.0
C1139 C 0.71265 0.37564 0.29086 0.0
C1140 C 0.71471 0.37442 0.21579 0.0
C1141 C 0.66319 0.38889 0.19214 0.0
N1142 N 0.71249 0.3749 0.26693 0.0
N1143 N 0.66392 0.38729 0.21596 0.0
H1144 H 0.88319 0.89514 0.1829 0.0
H1145 H 0.78945 0.87098 0.30067 0.0
H1146 H 0.79109 0.87162 0.18234 0.0
H1147 H 0.88134 0.89638 0.29876 0.0
H1148 H 0.78914 0.86871 0.25757 0.0
H1149 H 0.88243 0.89321 0.22559 0.0
C1150 C 0.86274 0.88958 0.19175 0.0
C1151 C 0.83712 0.88383 0.17896 0.0
C1152 C 0.80933 0.87472 0.26665 0.0
C1153 C 0.83612 0.88152 0.22813 0.0
C1154 C 0.80953 0.87602 0.29124 0.0
C1155 C 0.83543 0.88416 0.30338 0.0
C1156 C 0.83521 0.8815 0.25419 0.0
C1157 C 0.86081 0.8903 0.29022 0.0
C1158 C 0.86234 0.88843 0.2162 0.0
C1159 C 0.81135 0.87637 0.19148 0.0
N1160 N 0.86002 0.88891 0.2664 0.0
N1161 N 0.81148 0.87557 0.21542 0.0
H1162 H 0.23215 0.16299 0.8016 0.0
H1163 H 0.13961 0.1426 0.68332 0.0
H1164 H 0.14045 0.13588 0.79969 0.0
H1165 H 0.23148 0.16834 0.68377 0.0
H1166 H 0.13959 0.14346 0.72612 0.0
H1167 H 0.23243 0.16802 0.75863 0.0
C1168 C 0.21208 0.15811 0.79218 0.0
C1169 C 0.18626 0.14869 0.80431 0.0
C1170 C 0.15977 0.14905 0.7169 0.0
C1171 C 0.18645 0.15458 0.75516 0.0
C1172 C 0.15981 0.14856 0.69241 0.0
C1173 C 0.18564 0.15508 0.67988 0.0
C1174 C 0.18574 0.15602 0.72909 0.0
C1175 C 0.21108 0.16301 0.69268 0.0
C1176 C 0.21227 0.16104 0.76765 0.0
C1177 C 0.16091 0.14291 0.79114 0.0
N1178 N 0.21051 0.16303 0.71661 0.0
N1179 N 0.16167 0.14586 0.76733 0.0
H1180 H 0.88247 0.13608 0.68265 0.0
H1181 H 0.78908 0.15961 0.80055 0.0
H1182 H 0.79028 0.15786 0.68236 0.0
H1183 H 0.88122 0.13759 0.79857 0.0
H1184 H 0.78864 0.16138 0.75746 0.0
H1185 H 0.88195 0.13878 0.72534 0.0
C1186 C 0.86205 0.1414 0.69155 0.0
C1187 C 0.83633 0.14645 0.67885 0.0
C1188 C 0.80892 0.15625 0.76652 0.0
C1189 C 0.83562 0.14967 0.72799 0.0
C1190 C 0.8092 0.15524 0.7911 0.0
C1191 C 0.8352 0.14814 0.80321 0.0
C1192 C 0.83483 0.15019 0.75404 0.0
C1193 C 0.86062 0.14284 0.79004 0.0
C1194 C 0.86179 0.14301 0.716 0.0
C1195 C 0.8106 0.15363 0.69144 0.0
N1196 N 0.85975 0.14388 0.76622 0.0
N1197 N 0.81088 0.15489 0.71536 0.0
H1198 H 0.18501 0.80674 0.30084 0.0
H1199 H 0.22983 0.92888 0.18253 0.0
H1200 H 0.19963 0.95987 0.3007 0.0
H1201 H 0.152 0.84389 0.1846 0.0
H1202 H 0.23056 0.92921 0.2259 0.0
H1203 H 0.18407 0.8078 0.25757 0.0
C1204 C 0.18815 0.84048 0.29165 0.0
C1205 C 0.19227 0.88333 0.30419 0.0
C1206 C 0.21343 0.91048 0.21674 0.0
C1207 C 0.19204 0.88443 0.25513 0.0
C1208 C 0.21309 0.90999 0.19215 0.0
C1209 C 0.19081 0.88631 0.18016 0.0
C1210 C 0.19192 0.88574 0.22921 0.0
C1211 C 0.16946 0.86265 0.19331 0.0
C1212 C 0.18752 0.84103 0.26711 0.0
C1213 C 0.19618 0.9262 0.29156 0.0
N1214 N 0.17072 0.8624 0.2172 0.0
N1215 N 0.19635 0.92563 0.26762 0.0
loop_
_geom_bond_atom_site_label_1
_geom_bond_atom_site_label_2
_geom_bond_distance
_geom_bond_site_symmetry_2
_ccdc_geom_bond_type
Fe0 O2 1.918 . S
Fe0 O5 1.997 . S
Fe0 O6 2.002 . S
Fe0 O11 1.976 . S
Fe0 O14 1.996 . S
Fe1 O2 1.918 . S
Fe1 O9 1.997 . S
Fe1 O12 1.996 . S
Fe1 O16 1.976 . S
Fe1 O19 2.002 . S
O2 Fe0 1.918 . S
O2 Fe1 1.918 . S
O2 Fe3 1.918 . S
Fe3 O2 1.918 . S
Fe3 O4 2.002 . S
Fe3 O13 1.976 . S
Fe3 O17 1.996 . S
Fe3 O20 1.997 . S
O4 Fe3 2.002 . S
O4 C21 1.295 . S
O5 Fe0 1.997 . S
O5 C21 1.235 . S
O6 Fe0 2.002 . S
O6 C7 1.295 . S
C7 O6 1.295 . S
C7 O9 1.235 . S
C8 O13 1.287 . S
C8 O14 1.255 . S
O9 Fe1 1.997 . S
O9 C7 1.235 . S
C10 O16 1.287 . S
C10 O17 1.255 . S
O11 Fe0 1.976 . S
O11 C18 1.287 . S
O12 Fe1 1.996 . S
O12 C18 1.255 . S
O13 Fe3 1.976 . S
O13 C8 1.287 . S
O14 Fe0 1.996 . S
O14 C8 1.255 . S
C15 O19 1.295 . S
C15 O20 1.235 . S
O16 Fe1 1.976 . S
O16 C10 1.287 . S
O17 Fe3 1.996 . S
O17 C10 1.255 . S
C18 O11 1.287 . S
C18 O12 1.255 . S
O19 Fe1 2.002 . S
O19 C15 1.295 . S
O20 Fe3 1.997 . S
O20 C15 1.235 . S
C21 O4 1.295 . S
C21 O5 1.235 . S
Fe22 O24 1.918 . S
Fe22 O27 1.997 . S
Fe22 O28 2.002 . S
Fe22 O33 1.976 . S
Fe22 O36 1.996 . S
Fe23 O24 1.918 . S
Fe23 O31 1.997 . S
Fe23 O34 1.996 . S
Fe23 O38 1.976 . S
Fe23 O41 2.002 . S
O24 Fe22 1.918 . S
O24 Fe23 1.918 . S
O24 Fe25 1.918 . S
Fe25 O24 1.918 . S
Fe25 O26 2.002 . S
Fe25 O35 1.976 . S
Fe25 O39 1.996 . S
Fe25 O42 1.997 . S
O26 Fe25 2.002 . S
O26 C43 1.295 . S
O27 Fe22 1.997 . S
O27 C43 1.235 . S
O28 Fe22 2.002 . S
O28 C29 1.295 . S
C29 O28 1.295 . S
C29 O31 1.235 . S
C30 O35 1.287 . S
C30 O36 1.255 . S
O31 Fe23 1.997 . S
O31 C29 1.235 . S
C32 O38 1.287 . S
C32 O39 1.255 . S
O33 Fe22 1.976 . S
O33 C40 1.287 . S
O34 Fe23 1.996 . S
O34 C40 1.255 . S
O35 Fe25 1.976 . S
O35 C30 1.287 . S
O36 Fe22 1.996 . S
O36 C30 1.255 . S
C37 O41 1.295 . S
C37 O42 1.235 . S
O38 Fe23 1.976 . S
O38 C32 1.287 . S
O39 Fe25 1.996 . S
O39 C32 1.255 . S
C40 O33 1.287 . S
C40 O34 1.255 . S
O41 Fe23 2.002 . S
O41 C37 1.295 . S
O42 Fe25 1.997 . S
O42 C37 1.235 . S
C43 O26 1.295 . S
C43 O27 1.235 . S
Fe44 O46 1.918 . S
Fe44 O49 1.997 . S
Fe44 O50 2.002 . S
Fe44 O55 1.976 . S
Fe44 O58 1.996 . S
Fe45 O46 1.918 . S
Fe45 O53 1.997 . S
Fe45 O56 1.996 . S
Fe45 O60 1.976 . S
Fe45 O63 2.002 . S
O46 Fe44 1.918 . S
O46 Fe45 1.918 . S
O46 Fe47 1.918 . S
Fe47 O46 1.918 . S
Fe47 O48 2.002 . S
Fe47 O57 1.976 . S
Fe47 O61 1.996 . S
Fe47 O64 1.997 . S
O48 Fe47 2.002 . S
O48 C65 1.295 . S
O49 Fe44 1.997 . S
O49 C65 1.235 . S
O50 Fe44 2.002 . S
O50 C51 1.295 . S
C51 O50 1.295 . S
C51 O53 1.235 . S
C52 O57 1.287 . S
C52 O58 1.255 . S
O53 Fe45 1.997 . S
O53 C51 1.235 . S
C54 O60 1.287 . S
C54 O61 1.255 . S
O55 Fe44 1.976 . S
O55 C62 1.287 . S
O56 Fe45 1.996 . S
O56 C62 1.255 . S
O57 Fe47 1.976 . S
O57 C52 1.287 . S
O58 Fe44 1.996 . S
O58 C52 1.255 . S
C59 O63 1.295 . S
C59 O64 1.235 . S
O60 Fe45 1.976 . S
O60 C54 1.287 . S
O61 Fe47 1.996 . S
O61 C54 1.255 . S
C62 O55 1.287 . S
C62 O56 1.255 . S
O63 Fe45 2.002 . S
O63 C59 1.295 . S
O64 Fe47 1.997 . S
O64 C59 1.235 . S
C65 O48 1.295 . S
C65 O49 1.235 . S
Fe66 O68 1.918 . S
Fe66 O71 1.997 . S
Fe66 O72 2.002 . S
Fe66 O77 1.976 . S
Fe66 O80 1.996 . S
Fe67 O68 1.918 . S
Fe67 O75 1.997 . S
Fe67 O78 1.996 . S
Fe67 O82 1.976 . S
Fe67 O85 2.002 . S
O68 Fe66 1.918 . S
O68 Fe67 1.918 . S
O68 Fe69 1.918 . S
Fe69 O68 1.918 . S
Fe69 O70 2.002 . S
Fe69 O79 1.976 . S
Fe69 O83 1.996 . S
Fe69 O86 1.997 . S
O70 Fe69 2.002 . S
O70 C87 1.295 . S
O71 Fe66 1.997 . S
O71 C87 1.235 . S
O72 Fe66 2.002 . S
O72 C73 1.295 . S
C73 O72 1.295 . S
C73 O75 1.235 . S
C74 O79 1.287 . S
C74 O80 1.255 . S
O75 Fe67 1.997 . S
O75 C73 1.235 . S
C76 O82 1.287 . S
C76 O83 1.255 . S
O77 Fe66 1.976 . S
O77 C84 1.287 . S
O78 Fe67 1.996 . S
O78 C84 1.255 . S
O79 Fe69 1.976 . S
O79 C74 1.287 . S
O80 Fe66 1.996 . S
O80 C74 1.255 . S
C81 O85 1.295 . S
C81 O86 1.235 . S
O82 Fe67 1.976 . S
O82 C76 1.287 . S
O83 Fe69 1.996 . S
O83 C76 1.255 . S
C84 O77 1.287 . S
C84 O78 1.255 . S
O85 Fe67 2.002 . S
O85 C81 1.295 . S
O86 Fe69 1.997 . S
O86 C81 1.235 . S
C87 O70 1.295 . S
C87 O71 1.235 . S
Fe88 O90 1.918 . S
Fe88 O93 1.997 . S
Fe88 O94 2.002 . S
Fe88 O99 1.976 . S
Fe88 O102 1.996 . S
Fe89 O90 1.918 . S
Fe89 O97 1.997 . S
Fe89 O100 1.996 . S
Fe89 O104 1.976 . S
Fe89 O107 2.002 . S
O90 Fe88 1.918 . S
O90 Fe89 1.918 . S
O90 Fe91 1.918 . S
Fe91 O90 1.918 . S
Fe91 O92 2.002 . S
Fe91 O101 1.976 . S
Fe91 O105 1.996 . S
Fe91 O108 1.997 . S
O92 Fe91 2.002 . S
O92 C109 1.295 . S
O93 Fe88 1.997 . S
O93 C109 1.235 . S
O94 Fe88 2.002 . S
O94 C95 1.295 . S
C95 O94 1.295 . S
C95 O97 1.235 . S
C96 O101 1.287 . S
C96 O102 1.255 . S
O97 Fe89 1.997 . S
O97 C95 1.235 . S
C98 O104 1.287 . S
C98 O105 1.255 . S
O99 Fe88 1.976 . S
O99 C106 1.287 . S
O100 Fe89 1.996 . S
O100 C106 1.255 . S
O101 Fe91 1.976 . S
O101 C96 1.287 . S
O102 Fe88 1.996 . S
O102 C96 1.255 . S
C103 O107 1.295 . S
C103 O108 1.235 . S
O104 Fe89 1.976 . S
O104 C98 1.287 . S
O105 Fe91 1.996 . S
O105 C98 1.255 . S
C106 O99 1.287 . S
C106 O100 1.255 . S
O107 Fe89 2.002 . S
O107 C103 1.295 . S
O108 Fe91 1.997 . S
O108 C103 1.235 . S
C109 O92 1.295 . S
C109 O93 1.235 . S
Fe110 O112 1.918 . S
Fe110 O115 1.997 . S
Fe110 O116 2.002 . S
Fe110 O121 1.976 . S
Fe110 O124 1.996 . S
Fe111 O112 1.918 . S
Fe111 O119 1.997 . S
Fe111 O122 1.996 . S
Fe111 O126 1.976 . S
Fe111 O129 2.002 . S
O112 Fe110 1.918 . S
O112 Fe111 1.918 . S
O112 Fe113 1.918 . S
Fe113 O112 1.918 . S
Fe113 O114 2.002 . S
Fe113 O123 1.976 . S
Fe113 O127 1.996 . S
Fe113 O130 1.997 . S
O114 Fe113 2.002 . S
O114 C131 1.295 . S
O115 Fe110 1.997 . S
O115 C131 1.235 . S
O116 Fe110 2.002 . S
O116 C117 1.295 . S
C117 O116 1.295 . S
C117 O119 1.235 . S
C118 O123 1.287 . S
C118 O124 1.255 . S
O119 Fe111 1.997 . S
O119 C117 1.235 . S
C120 O126 1.287 . S
C120 O127 1.255 . S
O121 Fe110 1.976 . S
O121 C128 1.287 . S
O122 Fe111 1.996 . S
O122 C128 1.255 . S
O123 Fe113 1.976 . S
O123 C118 1.287 . S
O124 Fe110 1.996 . S
O124 C118 1.255 . S
C125 O129 1.295 . S
C125 O130 1.235 . S
O126 Fe111 1.976 . S
O126 C120 1.287 . S
O127 Fe113 1.996 . S
O127 C120 1.255 . S
C128 O121 1.287 . S
C128 O122 1.255 . S
O129 Fe111 2.002 . S
O129 C125 1.295 . S
O130 Fe113 1.997 . S
O130 C125 1.235 . S
C131 O114 1.295 . S
C131 O115 1.235 . S
Fe132 O134 1.918 . S
Fe132 O137 1.997 . S
Fe132 O138 2.002 . S
Fe132 O143 1.976 . S
Fe132 O146 1.996 . S
Fe133 O134 1.918 . S
Fe133 O141 1.997 . S
Fe133 O144 1.996 . S
Fe133 O148 1.976 . S
Fe133 O151 2.002 . S
O134 Fe132 1.918 . S
O134 Fe133 1.918 . S
O134 Fe135 1.918 . S
Fe135 O134 1.918 . S
Fe135 O136 2.002 . S
Fe135 O145 1.976 . S
Fe135 O149 1.996 . S
Fe135 O152 1.997 . S
O136 Fe135 2.002 . S
O136 C153 1.295 . S
O137 Fe132 1.997 . S
O137 C153 1.235 . S
O138 Fe132 2.002 . S
O138 C139 1.295 . S
C139 O138 1.295 . S
C139 O141 1.235 . S
C140 O145 1.287 . S
C140 O146 1.255 . S
O141 Fe133 1.997 . S
O141 C139 1.235 . S
C142 O148 1.287 . S
C142 O149 1.255 . S
O143 Fe132 1.976 . S
O143 C150 1.287 . S
O144 Fe133 1.996 . S
O144 C150 1.255 . S
O145 Fe135 1.976 . S
O145 C140 1.287 . S
O146 Fe132 1.996 . S
O146 C140 1.255 . S
C147 O151 1.295 . S
C147 O152 1.235 . S
O148 Fe133 1.976 . S
O148 C142 1.287 . S
O149 Fe135 1.996 . S
O149 C142 1.255 . S
C150 O143 1.287 . S
C150 O144 1.255 . S
O151 Fe133 2.002 . S
O151 C147 1.295 . S
O152 Fe135 1.997 . S
O152 C147 1.235 . S
C153 O136 1.295 . S
C153 O137 1.235 . S
Fe154 O156 1.918 . S
Fe154 O159 1.997 . S
Fe154 O160 2.002 . S
Fe154 O165 1.976 . S
Fe154 O168 1.996 . S
Fe155 O156 1.918 . S
Fe155 O163 1.997 . S
Fe155 O166 1.996 . S
Fe155 O170 1.976 . S
Fe155 O173 2.002 . S
O156 Fe154 1.918 . S
O156 Fe155 1.918 . S
O156 Fe157 1.918 . S
Fe157 O156 1.918 . S
Fe157 O158 2.002 . S
Fe157 O167 1.976 . S
Fe157 O171 1.996 . S
Fe157 O174 1.997 . S
O158 Fe157 2.002 . S
O158 C175 1.295 . S
O159 Fe154 1.997 . S
O159 C175 1.235 . S
O160 Fe154 2.002 . S
O160 C161 1.295 . S
C161 O160 1.295 . S
C161 O163 1.235 . S
C162 O167 1.287 . S
C162 O168 1.255 . S
O163 Fe155 1.997 . S
O163 C161 1.235 . S
C164 O170 1.287 . S
C164 O171 1.255 . S
O165 Fe154 1.976 . S
O165 C172 1.287 . S
O166 Fe155 1.996 . S
O166 C172 1.255 . S
O167 Fe157 1.976 . S
O167 C162 1.287 . S
O168 Fe154 1.996 . S
O168 C162 1.255 . S
C169 O173 1.295 . S
C169 O174 1.235 . S
O170 Fe155 1.976 . S
O170 C164 1.287 . S
O171 Fe157 1.996 . S
O171 C164 1.255 . S
C172 O165 1.287 . S
C172 O166 1.255 . S
O173 Fe155 2.002 . S
O173 C169 1.295 . S
O174 Fe157 1.997 . S
O174 C169 1.235 . S
C175 O158 1.295 . S
C175 O159 1.235 . S
Fe176 O178 1.918 . S
Fe176 O181 1.997 . S
Fe176 O182 2.002 . S
Fe176 O187 1.976 . S
Fe176 O190 1.996 . S
Fe177 O178 1.918 . S
Fe177 O185 1.997 . S
Fe177 O188 1.996 . S
Fe177 O192 1.976 . S
Fe177 O195 2.002 . S
O178 Fe176 1.918 . S
O178 Fe177 1.918 . S
O178 Fe179 1.918 . S
Fe179 O178 1.918 . S
Fe179 O180 2.002 . S
Fe179 O189 1.976 . S
Fe179 O193 1.996 . S
Fe179 O196 1.997 . S
O180 Fe179 2.002 . S
O180 C197 1.295 . S
O181 Fe176 1.997 . S
O181 C197 1.235 . S
O182 Fe176 2.002 . S
O182 C183 1.295 . S
C183 O182 1.295 . S
C183 O185 1.235 . S
C184 O189 1.287 . S
C184 O190 1.255 . S
O185 Fe177 1.997 . S
O185 C183 1.235 . S
C186 O192 1.287 . S
C186 O193 1.255 . S
O187 Fe176 1.976 . S
O187 C194 1.287 . S
O188 Fe177 1.996 . S
O188 C194 1.255 . S
O189 Fe179 1.976 . S
O189 C184 1.287 . S
O190 Fe176 1.996 . S
O190 C184 1.255 . S
C191 O195 1.295 . S
C191 O196 1.235 . S
O192 Fe177 1.976 . S
O192 C186 1.287 . S
O193 Fe179 1.996 . S
O193 C186 1.255 . S
C194 O187 1.287 . S
C194 O188 1.255 . S
O195 Fe177 2.002 . S
O195 C191 1.295 . S
O196 Fe179 1.997 . S
O196 C191 1.235 . S
C197 O180 1.295 . S
C197 O181 1.235 . S
Fe198 O200 1.918 . S
Fe198 O203 1.997 . S
Fe198 O204 2.002 . S
Fe198 O209 1.976 . S
Fe198 O212 1.996 . S
Fe199 O200 1.918 . S
Fe199 O207 1.997 . S
Fe199 O210 1.996 . S
Fe199 O214 1.976 . S
Fe199 O217 2.002 . S
O200 Fe198 1.918 . S
O200 Fe199 1.918 . S
O200 Fe201 1.918 . S
Fe201 O200 1.918 . S
Fe201 O202 2.002 . S
Fe201 O211 1.976 . S
Fe201 O215 1.996 . S
Fe201 O218 1.997 . S
O202 Fe201 2.002 . S
O202 C219 1.295 . S
O203 Fe198 1.997 . S
O203 C219 1.235 . S
O204 Fe198 2.002 . S
O204 C205 1.295 . S
C205 O204 1.295 . S
C205 O207 1.235 . S
C206 O211 1.287 . S
C206 O212 1.255 . S
O207 Fe199 1.997 . S
O207 C205 1.235 . S
C208 O214 1.287 . S
C208 O215 1.255 . S
O209 Fe198 1.976 . S
O209 C216 1.287 . S
O210 Fe199 1.996 . S
O210 C216 1.255 . S
O211 Fe201 1.976 . S
O211 C206 1.287 . S
O212 Fe198 1.996 . S
O212 C206 1.255 . S
C213 O217 1.295 . S
C213 O218 1.235 . S
O214 Fe199 1.976 . S
O214 C208 1.287 . S
O215 Fe201 1.996 . S
O215 C208 1.255 . S
C216 O209 1.287 . S
C216 O210 1.255 . S
O217 Fe199 2.002 . S
O217 C213 1.295 . S
O218 Fe201 1.997 . S
O218 C213 1.235 . S
C219 O202 1.295 . S
C219 O203 1.235 . S
Fe220 O222 1.918 . S
Fe220 O225 1.997 . S
Fe220 O226 2.002 . S
Fe220 O231 1.976 . S
Fe220 O234 1.996 . S
Fe221 O222 1.918 . S
Fe221 O229 1.997 . S
Fe221 O232 1.996 . S
Fe221 O236 1.976 . S
Fe221 O239 2.002 . S
O222 Fe220 1.918 . S
O222 Fe221 1.918 . S
O222 Fe223 1.918 . S
Fe223 O222 1.918 . S
Fe223 O224 2.002 . S
Fe223 O233 1.976 . S
Fe223 O237 1.996 . S
Fe223 O240 1.997 . S
O224 Fe223 2.002 . S
O224 C241 1.295 . S
O225 Fe220 1.997 . S
O225 C241 1.235 . S
O226 Fe220 2.002 . S
O226 C227 1.295 . S
C227 O226 1.295 . S
C227 O229 1.235 . S
C228 O233 1.287 . S
C228 O234 1.255 . S
O229 Fe221 1.997 . S
O229 C227 1.235 . S
C230 O236 1.287 . S
C230 O237 1.255 . S
O231 Fe220 1.976 . S
O231 C238 1.287 . S
O232 Fe221 1.996 . S
O232 C238 1.255 . S
O233 Fe223 1.976 . S
O233 C228 1.287 . S
O234 Fe220 1.996 . S
O234 C228 1.255 . S
C235 O239 1.295 . S
C235 O240 1.235 . S
O236 Fe221 1.976 . S
O236 C230 1.287 . S
O237 Fe223 1.996 . S
O237 C230 1.255 . S
C238 O231 1.287 . S
C238 O232 1.255 . S
O239 Fe221 2.002 . S
O239 C235 1.295 . S
O240 Fe223 1.997 . S
O240 C235 1.235 . S
C241 O224 1.295 . S
C241 O225 1.235 . S
Fe242 O244 1.918 . S
Fe242 O247 1.997 . S
Fe242 O248 2.002 . S
Fe242 O253 1.976 . S
Fe242 O256 1.996 . S
Fe243 O244 1.918 . S
Fe243 O251 1.997 . S
Fe243 O254 1.996 . S
Fe243 O258 1.976 . S
Fe243 O261 2.002 . S
O244 Fe242 1.918 . S
O244 Fe243 1.918 . S
O244 Fe245 1.918 . S
Fe245 O244 1.918 . S
Fe245 O246 2.002 . S
Fe245 O255 1.976 . S
Fe245 O259 1.996 . S
Fe245 O262 1.997 . S
O246 Fe245 2.002 . S
O246 C263 1.295 . S
O247 Fe242 1.997 . S
O247 C263 1.235 . S
O248 Fe242 2.002 . S
O248 C249 1.295 . S
C249 O248 1.295 . S
C249 O251 1.235 . S
C250 O255 1.287 . S
C250 O256 1.255 . S
O251 Fe243 1.997 . S
O251 C249 1.235 . S
C252 O258 1.287 . S
C252 O259 1.255 . S
O253 Fe242 1.976 . S
O253 C260 1.287 . S
O254 Fe243 1.996 . S
O254 C260 1.255 . S
O255 Fe245 1.976 . S
O255 C250 1.287 . S
O256 Fe242 1.996 . S
O256 C250 1.255 . S
C257 O261 1.295 . S
C257 O262 1.235 . S
O258 Fe243 1.976 . S
O258 C252 1.287 . S
O259 Fe245 1.996 . S
O259 C252 1.255 . S
C260 O253 1.287 . S
C260 O254 1.255 . S
O261 Fe243 2.002 . S
O261 C257 1.295 . S
O262 Fe245 1.997 . S
O262 C257 1.235 . S
C263 O246 1.295 . S
C263 O247 1.235 . S
Fe264 O266 1.918 . S
Fe264 O269 1.997 . S
Fe264 O270 2.002 . S
Fe264 O275 1.976 . S
Fe264 O278 1.996 . S
Fe265 O266 1.918 . S
Fe265 O273 1.997 . S
Fe265 O276 1.996 . S
Fe265 O280 1.976 . S
Fe265 O283 2.002 . S
O266 Fe264 1.918 . S
O266 Fe265 1.918 . S
O266 Fe267 1.918 . S
Fe267 O266 1.918 . S
Fe267 O268 2.002 . S
Fe267 O277 1.976 . S
Fe267 O281 1.996 . S
Fe267 O284 1.997 . S
O268 Fe267 2.002 . S
O268 C285 1.295 . S
O269 Fe264 1.997 . S
O269 C285 1.235 . S
O270 Fe264 2.002 . S
O270 C271 1.295 . S
C271 O270 1.295 . S
C271 O273 1.235 . S
C272 O277 1.287 . S
C272 O278 1.255 . S
O273 Fe265 1.997 . S
O273 C271 1.235 . S
C274 O280 1.287 . S
C274 O281 1.255 . S
O275 Fe264 1.976 . S
O275 C282 1.287 . S
O276 Fe265 1.996 . S
O276 C282 1.255 . S
O277 Fe267 1.976 . S
O277 C272 1.287 . S
O278 Fe264 1.996 . S
O278 C272 1.255 . S
C279 O283 1.295 . S
C279 O284 1.235 . S
O280 Fe265 1.976 . S
O280 C274 1.287 . S
O281 Fe267 1.996 . S
O281 C274 1.255 . S
C282 O275 1.287 . S
C282 O276 1.255 . S
O283 Fe265 2.002 . S
O283 C279 1.295 . S
O284 Fe267 1.997 . S
O284 C279 1.235 . S
C285 O268 1.295 . S
C285 O269 1.235 . S
Fe286 O288 1.918 . S
Fe286 O291 1.997 . S
Fe286 O292 2.002 . S
Fe286 O297 1.976 . S
Fe286 O300 1.996 . S
Fe287 O288 1.918 . S
Fe287 O295 1.997 . S
Fe287 O298 1.996 . S
Fe287 O302 1.976 . S
Fe287 O305 2.002 . S
O288 Fe286 1.918 . S
O288 Fe287 1.918 . S
O288 Fe289 1.918 . S
Fe289 O288 1.918 . S
Fe289 O290 2.002 . S
Fe289 O299 1.976 . S
Fe289 O303 1.996 . S
Fe289 O306 1.997 . S
O290 Fe289 2.002 . S
O290 C307 1.295 . S
O291 Fe286 1.997 . S
O291 C307 1.235 . S
O292 Fe286 2.002 . S
O292 C293 1.295 . S
C293 O292 1.295 . S
C293 O295 1.235 . S
C294 O299 1.287 . S
C294 O300 1.255 . S
O295 Fe287 1.997 . S
O295 C293 1.235 . S
C296 O302 1.287 . S
C296 O303 1.255 . S
O297 Fe286 1.976 . S
O297 C304 1.287 . S
O298 Fe287 1.996 . S
O298 C304 1.255 . S
O299 Fe289 1.976 . S
O299 C294 1.287 . S
O300 Fe286 1.996 . S
O300 C294 1.255 . S
C301 O305 1.295 . S
C301 O306 1.235 . S
O302 Fe287 1.976 . S
O302 C296 1.287 . S
O303 Fe289 1.996 . S
O303 C296 1.255 . S
C304 O297 1.287 . S
C304 O298 1.255 . S
O305 Fe287 2.002 . S
O305 C301 1.295 . S
O306 Fe289 1.997 . S
O306 C301 1.235 . S
C307 O290 1.295 . S
C307 O291 1.235 . S
Fe308 O310 1.918 . S
Fe308 O313 1.997 . S
Fe308 O314 2.002 . S
Fe308 O319 1.976 . S
Fe308 O322 1.996 . S
Fe309 O310 1.918 . S
Fe309 O317 1.997 . S
Fe309 O320 1.996 . S
Fe309 O324 1.976 . S
Fe309 O327 2.002 . S
O310 Fe308 1.918 . S
O310 Fe309 1.918 . S
O310 Fe311 1.918 . S
Fe311 O310 1.918 . S
Fe311 O312 2.002 . S
Fe311 O321 1.976 . S
Fe311 O325 1.996 . S
Fe311 O328 1.997 . S
O312 Fe311 2.002 . S
O312 C329 1.295 . S
O313 Fe308 1.997 . S
O313 C329 1.235 . S
O314 Fe308 2.002 . S
O314 C315 1.295 . S
C315 O314 1.295 . S
C315 O317 1.235 . S
C316 O321 1.287 . S
C316 O322 1.255 . S
O317 Fe309 1.997 . S
O317 C315 1.235 . S
C318 O324 1.287 . S
C318 O325 1.255 . S
O319 Fe308 1.976 . S
O319 C326 1.287 . S
O320 Fe309 1.996 . S
O320 C326 1.255 . S
O321 Fe311 1.976 . S
O321 C316 1.287 . S
O322 Fe308 1.996 . S
O322 C316 1.255 . S
C323 O327 1.295 . S
C323 O328 1.235 . S
O324 Fe309 1.976 . S
O324 C318 1.287 . S
O325 Fe311 1.996 . S
O325 C318 1.255 . S
C326 O319 1.287 . S
C326 O320 1.255 . S
O327 Fe309 2.002 . S
O327 C323 1.295 . S
O328 Fe311 1.997 . S
O328 C323 1.235 . S
C329 O312 1.295 . S
C329 O313 1.235 . S
Fe330 O332 1.918 . S
Fe330 O335 1.997 . S
Fe330 O336 2.002 . S
Fe330 O341 1.976 . S
Fe330 O344 1.996 . S
Fe331 O332 1.918 . S
Fe331 O339 1.997 . S
Fe331 O342 1.996 . S
Fe331 O346 1.976 . S
Fe331 O349 2.002 . S
O332 Fe330 1.918 . S
O332 Fe331 1.918 . S
O332 Fe333 1.918 . S
Fe333 O332 1.918 . S
Fe333 O334 2.002 . S
Fe333 O343 1.976 . S
Fe333 O347 1.996 . S
Fe333 O350 1.997 . S
O334 Fe333 2.002 . S
O334 C351 1.295 . S
O335 Fe330 1.997 . S
O335 C351 1.235 . S
O336 Fe330 2.002 . S
O336 C337 1.295 . S
C337 O336 1.295 . S
C337 O339 1.235 . S
C338 O343 1.287 . S
C338 O344 1.255 . S
O339 Fe331 1.997 . S
O339 C337 1.235 . S
C340 O346 1.287 . S
C340 O347 1.255 . S
O341 Fe330 1.976 . S
O341 C348 1.287 . S
O342 Fe331 1.996 . S
O342 C348 1.255 . S
O343 Fe333 1.976 . S
O343 C338 1.287 . S
O344 Fe330 1.996 . S
O344 C338 1.255 . S
C345 O349 1.295 . S
C345 O350 1.235 . S
O346 Fe331 1.976 . S
O346 C340 1.287 . S
O347 Fe333 1.996 . S
O347 C340 1.255 . S
C348 O341 1.287 . S
C348 O342 1.255 . S
O349 Fe331 2.002 . S
O349 C345 1.295 . S
O350 Fe333 1.997 . S
O350 C345 1.235 . S
C351 O334 1.295 . S
C351 O335 1.235 . S
H352 C358 0.930 . S
H353 C362 0.930 . S
H354 C367 0.929 . S
H355 C365 0.929 . S
H356 C360 0.929 . S
H357 C366 0.929 . S
C358 H352 0.930 . S
C358 C359 1.367 . S
C358 C366 1.378 . S
C359 C358 1.367 . S
C359 C367 1.433 . S
C360 H356 0.929 . S
C360 C362 1.378 1_545 S
C360 C364 1.350 . S
C361 C364 1.463 . S
C361 C366 1.350 . S
C361 N369 1.427 . S
C362 H353 0.930 . S
C362 C360 1.378 1_565 S
C362 C363 1.367 . S
C363 C362 1.367 . S
C363 C365 1.433 . S
C364 C360 1.350 . S
C364 C361 1.463 . S
C364 N368 1.427 . S
C365 H355 0.929 . S
C365 C363 1.433 . S
C365 N368 1.384 1_565 S
C366 H357 0.929 . S
C366 C358 1.378 . S
C366 C361 1.350 . S
C367 H354 0.929 . S
C367 C359 1.433 . S
C367 N369 1.384 . S
N368 C364 1.427 . S
N368 C365 1.384 1_545 S
N369 C361 1.427 . S
N369 C367 1.384 . S
H370 C376 0.930 . S
H371 C380 0.930 . S
H372 C385 0.929 . S
H373 C383 0.929 . S
H374 C378 0.929 . S
H375 C384 0.929 . S
C376 H370 0.930 . S
C376 C377 1.367 . S
C376 C384 1.378 . S
C377 C376 1.367 . S
C377 C385 1.433 . S
C378 H374 0.929 . S
C378 C380 1.378 . S
C378 C382 1.350 . S
C379 C382 1.463 . S
C379 C384 1.350 . S
C379 N387 1.427 . S
C380 H371 0.930 . S
C380 C378 1.378 . S
C380 C381 1.367 1_565 S
C381 C380 1.367 1_545 S
C381 C383 1.433 . S
C382 C378 1.350 . S
C382 C379 1.463 . S
C382 N386 1.427 . S
C383 H373 0.929 . S
C383 C381 1.433 . S
C383 N386 1.384 1_545 S
C384 H375 0.929 . S
C384 C376 1.378 . S
C384 C379 1.350 . S
C385 H372 0.929 . S
C385 C377 1.433 . S
C385 N387 1.384 . S
N386 C382 1.427 . S
N386 C383 1.384 1_565 S
N387 C379 1.427 . S
N387 C385 1.384 . S
H388 C394 0.930 . S
H389 C398 0.930 . S
H390 C403 0.929 . S
H391 C401 0.929 . S
H392 C396 0.929 . S
H393 C402 0.929 . S
C394 H388 0.930 . S
C394 C395 1.367 . S
C394 C402 1.378 . S
C395 C394 1.367 . S
C395 C403 1.433 . S
C396 H392 0.929 . S
C396 C398 1.378 . S
C396 C400 1.350 . S
C397 C400 1.463 . S
C397 C402 1.350 . S
C397 N405 1.427 . S
C398 H389 0.930 . S
C398 C396 1.378 . S
C398 C399 1.367 1_565 S
C399 C398 1.367 1_545 S
C399 C401 1.433 . S
C400 C396 1.350 . S
C400 C397 1.463 . S
C400 N404 1.427 . S
C401 H391 0.929 . S
C401 C399 1.433 . S
C401 N404 1.384 1_545 S
C402 H393 0.929 . S
C402 C394 1.378 . S
C402 C397 1.350 . S
C403 H390 0.929 . S
C403 C395 1.433 . S
C403 N405 1.384 . S
N404 C400 1.427 . S
N404 C401 1.384 1_565 S
N405 C397 1.427 . S
N405 C403 1.384 . S
H406 C412 0.930 . S
H407 C416 0.930 . S
H408 C421 0.929 . S
H409 C419 0.929 . S
H410 C414 0.929 . S
H411 C420 0.929 . S
C412 H406 0.930 . S
C412 C413 1.367 . S
C412 C420 1.378 1_565 S
C413 C412 1.367 . S
C413 C421 1.433 . S
C414 H410 0.929 . S
C414 C416 1.378 . S
C414 C418 1.350 . S
C415 C418 1.463 . S
C415 C420 1.350 . S
C415 N423 1.427 . S
C416 H407 0.930 . S
C416 C414 1.378 . S
C416 C417 1.367 . S
C417 C416 1.367 . S
C417 C419 1.433 . S
C418 C414 1.350 . S
C418 C415 1.463 . S
C418 N422 1.427 . S
C419 H409 0.929 . S
C419 C417 1.433 . S
C419 N422 1.384 . S
C420 H411 0.929 . S
C420 C412 1.378 1_545 S
C420 C415 1.350 . S
C421 H408 0.929 . S
C421 C413 1.433 . S
C421 N423 1.384 1_565 S
N422 C418 1.427 . S
N422 C419 1.384 . S
N423 C415 1.427 . S
N423 C421 1.384 1_545 S
H424 C430 0.931 . S
H425 C434 0.930 . S
H426 C439 0.929 . S
H427 C437 0.929 . S
H428 C432 0.929 . S
H429 C438 0.929 . S
C430 H424 0.931 . S
C430 C431 1.371 . S
C430 C438 1.373 1_545 S
C431 C430 1.371 . S
C431 C439 1.433 . S
C432 H428 0.929 . S
C432 C434 1.378 . S
C432 C436 1.350 . S
C433 C436 1.463 . S
C433 C438 1.350 . S
C433 N441 1.427 . S
C434 H425 0.930 . S
C434 C432 1.378 . S
C434 C435 1.367 . S
C435 C434 1.367 . S
C435 C437 1.433 . S
C436 C432 1.350 . S
C436 C433 1.463 . S
C436 N440 1.427 . S
C437 H427 0.929 . S
C437 C435 1.433 . S
C437 N440 1.384 . S
C438 H429 0.929 . S
C438 C430 1.373 1_565 S
C438 C433 1.350 . S
C439 H426 0.929 . S
C439 C431 1.433 . S
C439 N441 1.384 1_545 S
N440 C436 1.427 . S
N440 C437 1.384 . S
N441 C433 1.427 . S
N441 C439 1.384 1_565 S
H442 C448 0.930 . S
H443 C452 0.930 . S
H444 C457 0.929 . S
H445 C455 0.929 . S
H446 C450 0.929 . S
H447 C456 0.929 . S
C448 H442 0.930 . S
C448 C449 1.367 . S
C448 C456 1.378 1_565 S
C449 C448 1.367 . S
C449 C457 1.433 . S
C450 H446 0.929 . S
C450 C452 1.378 . S
C450 C454 1.350 . S
C451 C454 1.463 . S
C451 C456 1.350 . S
C451 N459 1.427 . S
C452 H443 0.930 . S
C452 C450 1.378 . S
C452 C453 1.367 . S
C453 C452 1.367 . S
C453 C455 1.433 . S
C454 C450 1.350 . S
C454 C451 1.463 . S
C454 N458 1.427 . S
C455 H445 0.929 . S
C455 C453 1.433 . S
C455 N458 1.384 . S
C456 H447 0.929 . S
C456 C448 1.378 1_545 S
C456 C451 1.350 . S
C457 H444 0.929 . S
C457 C449 1.433 . S
C457 N459 1.384 1_565 S
N458 C454 1.427 . S
N458 C455 1.384 . S
N459 C451 1.427 . S
N459 C457 1.384 1_545 S
H460 C466 0.930 . S
H461 C470 0.930 . S
H462 C475 0.929 . S
H463 C473 0.929 . S
H464 C468 0.929 . S
H465 C474 0.929 . S
C466 H460 0.930 . S
C466 C467 1.367 . S
C466 C474 1.378 1_565 S
C467 C466 1.367 . S
C467 C475 1.433 . S
C468 H464 0.929 . S
C468 C470 1.378 . S
C468 C472 1.350 . S
C469 C472 1.463 . S
C469 C474 1.350 . S
C469 N477 1.427 . S
C470 H461 0.930 . S
C470 C468 1.378 . S
C470 C471 1.367 . S
C471 C470 1.367 . S
C471 C473 1.433 . S
C472 C468 1.350 . S
C472 C469 1.463 . S
C472 N476 1.427 . S
C473 H463 0.929 . S
C473 C471 1.433 . S
C473 N476 1.384 . S
C474 H465 0.929 . S
C474 C466 1.378 1_545 S
C474 C469 1.350 . S
C475 H462 0.929 . S
C475 C467 1.433 . S
C475 N477 1.384 1_565 S
N476 C472 1.427 . S
N476 C473 1.384 . S
N477 C469 1.427 . S
N477 C475 1.384 1_545 S
H478 C484 0.930 . S
H479 C488 0.930 . S
H480 C493 0.929 . S
H481 C491 0.929 . S
H482 C486 0.929 . S
H483 C492 0.929 . S
C484 H478 0.930 . S
C484 C485 1.367 . S
C484 C492 1.378 1_545 S
C485 C484 1.367 . S
C485 C493 1.433 . S
C486 H482 0.929 . S
C486 C488 1.378 . S
C486 C490 1.350 . S
C487 C490 1.463 . S
C487 C492 1.350 . S
C487 N495 1.427 . S
C488 H479 0.930 . S
C488 C486 1.378 . S
C488 C489 1.367 . S
C489 C488 1.367 . S
C489 C491 1.433 . S
C490 C486 1.350 . S
C490 C487 1.463 . S
C490 N494 1.427 . S
C491 H481 0.929 . S
C491 C489 1.433 . S
C491 N494 1.384 . S
C492 H483 0.929 . S
C492 C484 1.378 1_565 S
C492 C487 1.350 . S
C493 H480 0.929 . S
C493 C485 1.433 . S
C493 N495 1.384 1_545 S
N494 C490 1.427 . S
N494 C491 1.384 . S
N495 C487 1.427 . S
N495 C493 1.384 1_565 S
H496 C502 0.930 . S
H497 C506 0.930 . S
H498 C511 0.929 . S
H499 C509 0.929 . S
H500 C504 0.929 . S
H501 C510 0.929 . S
C502 H496 0.930 . S
C502 C503 1.367 . S
C502 C510 1.378 . S
C503 C502 1.367 . S
C503 C511 1.433 . S
C504 H500 0.929 . S
C504 C506 1.378 . S
C504 C508 1.350 . S
C505 C508 1.463 . S
C505 C510 1.350 . S
C505 N513 1.427 . S
C506 H497 0.930 . S
C506 C504 1.378 . S
C506 C507 1.367 . S
C507 C506 1.367 . S
C507 C509 1.433 . S
C508 C504 1.350 . S
C508 C505 1.463 . S
C508 N512 1.427 . S
C509 H499 0.929 . S
C509 C507 1.433 . S
C509 N512 1.384 . S
C510 H501 0.929 . S
C510 C502 1.378 . S
C510 C505 1.350 . S
C511 H498 0.929 . S
C511 C503 1.433 . S
C511 N513 1.384 . S
N512 C508 1.427 . S
N512 C509 1.384 . S
N513 C505 1.427 . S
N513 C511 1.384 . S
H514 C520 0.930 . S
H515 C524 0.930 . S
H516 C529 0.929 . S
H517 C527 0.929 . S
H518 C522 0.929 . S
H519 C528 0.929 . S
C520 H514 0.930 . S
C520 C521 1.367 . S
C520 C528 1.378 . S
C521 C520 1.367 . S
C521 C529 1.433 . S
C522 H518 0.929 . S
C522 C524 1.378 . S
C522 C526 1.350 . S
C523 C526 1.463 . S
C523 C528 1.350 . S
C523 N531 1.427 . S
C524 H515 0.930 . S
C524 C522 1.378 . S
C524 C525 1.367 . S
C525 C524 1.367 . S
C525 C527 1.433 . S
C526 C522 1.350 . S
C526 C523 1.463 . S
C526 N530 1.427 . S
C527 H517 0.929 . S
C527 C525 1.433 . S
C527 N530 1.384 . S
C528 H519 0.929 . S
C528 C520 1.378 . S
C528 C523 1.350 . S
C529 H516 0.929 . S
C529 C521 1.433 . S
C529 N531 1.384 . S
N530 C526 1.427 . S
N530 C527 1.384 . S
N531 C523 1.427 . S
N531 C529 1.384 . S
H532 C538 0.930 . S
H533 C542 0.930 . S
H534 C547 0.929 . S
H535 C545 0.929 . S
H536 C540 0.929 . S
H537 C546 0.929 . S
C538 H532 0.930 . S
C538 C539 1.367 . S
C538 C546 1.378 . S
C539 C538 1.367 . S
C539 C547 1.433 . S
C540 H536 0.929 . S
C540 C542 1.378 . S
C540 C544 1.350 . S
C541 C544 1.463 . S
C541 C546 1.350 . S
C541 N549 1.427 . S
C542 H533 0.930 . S
C542 C540 1.378 . S
C542 C543 1.367 . S
C543 C542 1.367 . S
C543 C545 1.433 . S
C544 C540 1.350 . S
C544 C541 1.463 . S
C544 N548 1.427 . S
C545 H535 0.929 . S
C545 C543 1.433 . S
C545 N548 1.384 . S
C546 H537 0.929 . S
C546 C538 1.378 . S
C546 C541 1.350 . S
C547 H534 0.929 . S
C547 C539 1.433 . S
C547 N549 1.384 . S
N548 C544 1.427 . S
N548 C545 1.384 . S
N549 C541 1.427 . S
N549 C547 1.384 . S
H550 C556 0.930 . S
H551 C560 0.930 . S
H552 C565 0.929 . S
H553 C563 0.929 . S
H554 C558 0.929 . S
H555 C564 0.929 . S
C556 H550 0.930 . S
C556 C557 1.367 . S
C556 C564 1.378 . S
C557 C556 1.367 . S
C557 C565 1.433 . S
C558 H554 0.929 . S
C558 C560 1.378 . S
C558 C562 1.350 . S
C559 C562 1.463 . S
C559 C564 1.350 . S
C559 N567 1.427 . S
C560 H551 0.930 . S
C560 C558 1.378 . S
C560 C561 1.367 . S
C561 C560 1.367 . S
C561 C563 1.433 . S
C562 C558 1.350 . S
C562 C559 1.463 . S
C562 N566 1.427 . S
C563 H553 0.929 . S
C563 C561 1.433 . S
C563 N566 1.384 . S
C564 H555 0.929 . S
C564 C556 1.378 . S
C564 C559 1.350 . S
C565 H552 0.929 . S
C565 C557 1.433 . S
C565 N567 1.384 . S
N566 C562 1.427 . S
N566 C563 1.384 . S
N567 C559 1.427 . S
N567 C565 1.384 . S
H568 C574 0.930 . S
H569 C578 0.930 . S
H570 C583 0.929 . S
H571 C581 0.929 . S
H572 C576 0.929 . S
H573 C582 0.929 . S
C574 H568 0.930 . S
C574 C575 1.367 . S
C574 C582 1.378 . S
C575 C574 1.367 . S
C575 C583 1.433 . S
C576 H572 0.929 . S
C576 C578 1.378 . S
C576 C580 1.350 . S
C577 C580 1.463 . S
C577 C582 1.350 . S
C577 N585 1.427 . S
C578 H569 0.930 . S
C578 C576 1.378 . S
C578 C579 1.367 . S
C579 C578 1.367 . S
C579 C581 1.433 . S
C580 C576 1.350 . S
C580 C577 1.463 . S
C580 N584 1.427 . S
C581 H571 0.929 . S
C581 C579 1.433 . S
C581 N584 1.384 . S
C582 H573 0.929 . S
C582 C574 1.378 . S
C582 C577 1.350 . S
C583 H570 0.929 . S
C583 C575 1.433 . S
C583 N585 1.384 . S
N584 C580 1.427 . S
N584 C581 1.384 . S
N585 C577 1.427 . S
N585 C583 1.384 . S
H586 C592 0.930 . S
H587 C596 0.930 . S
H588 C601 0.929 . S
H589 C599 0.929 . S
H590 C594 0.929 . S
H591 C600 0.929 . S
C592 H586 0.930 . S
C592 C593 1.367 . S
C592 C600 1.378 . S
C593 C592 1.367 . S
C593 C601 1.433 . S
C594 H590 0.929 . S
C594 C596 1.378 . S
C594 C598 1.350 . S
C595 C598 1.463 . S
C595 C600 1.350 . S
C595 N603 1.427 . S
C596 H587 0.930 . S
C596 C594 1.378 . S
C596 C597 1.367 . S
C597 C596 1.367 . S
C597 C599 1.433 . S
C598 C594 1.350 . S
C598 C595 1.463 . S
C598 N602 1.427 . S
C599 H589 0.929 . S
C599 C597 1.433 . S
C599 N602 1.384 . S
C600 H591 0.929 . S
C600 C592 1.378 . S
C600 C595 1.350 . S
C601 H588 0.929 . S
C601 C593 1.433 . S
C601 N603 1.384 . S
N602 C598 1.427 . S
N602 C599 1.384 . S
N603 C595 1.427 . S
N603 C601 1.384 . S
H604 C610 0.930 . S
H605 C614 0.930 . S
H606 C619 0.929 . S
H607 C617 0.929 . S
H608 C612 0.929 . S
H609 C618 0.929 . S
C610 H604 0.930 . S
C610 C611 1.367 . S
C610 C618 1.378 . S
C611 C610 1.367 . S
C611 C619 1.433 . S
C612 H608 0.929 . S
C612 C614 1.378 . S
C612 C616 1.350 . S
C613 C616 1.463 . S
C613 C618 1.350 . S
C613 N621 1.427 . S
C614 H605 0.930 . S
C614 C612 1.378 . S
C614 C615 1.367 . S
C615 C614 1.367 . S
C615 C617 1.433 . S
C616 C612 1.350 . S
C616 C613 1.463 . S
C616 N620 1.427 . S
C617 H607 0.929 . S
C617 C615 1.433 . S
C617 N620 1.384 . S
C618 H609 0.929 . S
C618 C610 1.378 . S
C618 C613 1.350 . S
C619 H606 0.929 . S
C619 C611 1.433 . S
C619 N621 1.384 . S
N620 C616 1.427 . S
N620 C617 1.384 . S
N621 C613 1.427 . S
N621 C619 1.384 . S
H622 C628 0.930 . S
H623 C632 0.930 . S
H624 C637 0.929 . S
H625 C635 0.929 . S
H626 C630 0.929 . S
H627 C636 0.929 . S
C628 H622 0.930 . S
C628 C629 1.367 . S
C628 C636 1.378 . S
C629 C628 1.367 . S
C629 C637 1.433 . S
C630 H626 0.929 . S
C630 C632 1.378 . S
C630 C634 1.350 . S
C631 C634 1.463 . S
C631 C636 1.350 . S
C631 N639 1.427 . S
C632 H623 0.930 . S
C632 C630 1.378 . S
C632 C633 1.367 . S
C633 C632 1.367 . S
C633 C635 1.433 . S
C634 C630 1.350 . S
C634 C631 1.463 . S
C634 N638 1.427 . S
C635 H625 0.929 . S
C635 C633 1.433 . S
C635 N638 1.384 . S
C636 H627 0.929 . S
C636 C628 1.378 . S
C636 C631 1.350 . S
C637 H624 0.929 . S
C637 C629 1.433 . S
C637 N639 1.384 . S
N638 C634 1.427 . S
N638 C635 1.384 . S
N639 C631 1.427 . S
N639 C637 1.384 . S
H640 C646 0.930 . S
H641 C650 0.930 . S
H642 C655 0.929 . S
H643 C653 0.929 . S
H644 C648 0.929 1_554 S
H645 C654 0.929 1_556 S
C646 H640 0.930 . S
C646 C647 1.367 . S
C646 C654 1.378 . S
C647 C646 1.367 . S
C647 C655 1.433 . S
C648 H644 0.929 1_556 S
C648 C650 1.378 . S
C648 C652 1.350 . S
C649 C652 1.463 1_554 S
C649 C654 1.350 . S
C649 N657 1.427 . S
C650 H641 0.930 . S
C650 C648 1.378 . S
C650 C651 1.367 . S
C651 C650 1.367 . S
C651 C653 1.433 . S
C652 C648 1.350 . S
C652 C649 1.463 1_556 S
C652 N656 1.427 . S
C653 H643 0.929 . S
C653 C651 1.433 . S
C653 N656 1.384 . S
C654 H645 0.929 1_554 S
C654 C646 1.378 . S
C654 C649 1.350 . S
C655 H642 0.929 . S
C655 C647 1.433 . S
C655 N657 1.384 . S
N656 C652 1.427 . S
N656 C653 1.384 . S
N657 C649 1.427 . S
N657 C655 1.384 . S
H658 C664 0.930 . S
H659 C668 0.930 . S
H660 C673 0.929 . S
H661 C671 0.929 . S
H662 C666 0.929 . S
H663 C672 0.929 . S
C664 H658 0.930 . S
C664 C665 1.367 . S
C664 C672 1.378 . S
C665 C664 1.367 . S
C665 C673 1.433 . S
C666 H662 0.929 . S
C666 C668 1.378 . S
C666 C670 1.350 . S
C667 C670 1.463 . S
C667 C672 1.350 . S
C667 N675 1.427 . S
C668 H659 0.930 . S
C668 C666 1.378 . S
C668 C669 1.367 . S
C669 C668 1.367 . S
C669 C671 1.433 . S
C670 C666 1.350 . S
C670 C667 1.463 . S
C670 N674 1.427 . S
C671 H661 0.929 . S
C671 C669 1.433 . S
C671 N674 1.384 . S
C672 H663 0.929 . S
C672 C664 1.378 . S
C672 C667 1.350 . S
C673 H660 0.929 . S
C673 C665 1.433 . S
C673 N675 1.384 . S
N674 C670 1.427 . S
N674 C671 1.384 . S
N675 C667 1.427 . S
N675 C673 1.384 . S
H676 C682 0.930 . S
H677 C686 0.930 . S
H678 C691 0.929 . S
H679 C689 0.929 . S
H680 C684 0.929 . S
H681 C690 0.929 . S
C682 H676 0.930 . S
C682 C683 1.367 . S
C682 C690 1.378 . S
C683 C682 1.367 . S
C683 C691 1.433 . S
C684 H680 0.929 . S
C684 C686 1.378 . S
C684 C688 1.350 . S
C685 C688 1.463 1_554 S
C685 C690 1.350 . S
C685 N693 1.427 . S
C686 H677 0.930 . S
C686 C684 1.378 . S
C686 C687 1.367 . S
C687 C686 1.367 . S
C687 C689 1.433 . S
C688 C684 1.350 . S
C688 C685 1.463 1_556 S
C688 N692 1.427 . S
C689 H679 0.929 . S
C689 C687 1.433 . S
C689 N692 1.384 . S
C690 H681 0.929 . S
C690 C682 1.378 . S
C690 C685 1.350 . S
C691 H678 0.929 . S
C691 C683 1.433 . S
C691 N693 1.384 . S
N692 C688 1.427 . S
N692 C689 1.384 . S
N693 C685 1.427 . S
N693 C691 1.384 . S
H694 C700 0.930 . S
H695 C704 0.930 . S
H696 C709 0.929 . S
H697 C707 0.929 . S
H698 C702 0.929 . S
H699 C708 0.929 . S
C700 H694 0.930 . S
C700 C701 1.367 . S
C700 C708 1.378 . S
C701 C700 1.367 . S
C701 C709 1.433 . S
C702 H698 0.929 . S
C702 C704 1.378 . S
C702 C706 1.350 . S
C703 C706 1.463 . S
C703 C708 1.350 . S
C703 N711 1.427 . S
C704 H695 0.930 . S
C704 C702 1.378 . S
C704 C705 1.367 . S
C705 C704 1.367 . S
C705 C707 1.433 . S
C706 C702 1.350 . S
C706 C703 1.463 . S
C706 N710 1.427 . S
C707 H697 0.929 . S
C707 C705 1.433 . S
C707 N710 1.384 . S
C708 H699 0.929 . S
C708 C700 1.378 . S
C708 C703 1.350 . S
C709 H696 0.929 . S
C709 C701 1.433 . S
C709 N711 1.384 . S
N710 C706 1.427 . S
N710 C707 1.384 . S
N711 C703 1.427 . S
N711 C709 1.384 . S
H712 C718 0.930 . S
H713 C722 0.930 . S
H714 C727 0.929 . S
H715 C725 0.929 . S
H716 C720 0.929 1_545 S
H717 C726 0.929 1_565 S
C718 H712 0.930 . S
C718 C719 1.367 . S
C718 C726 1.378 . S
C719 C718 1.367 . S
C719 C727 1.433 . S
C720 H716 0.929 1_565 S
C720 C722 1.378 . S
C720 C724 1.350 . S
C721 C724 1.463 1_546 S
C721 C726 1.350 . S
C721 N729 1.427 . S
C722 H713 0.930 . S
C722 C720 1.378 . S
C722 C723 1.367 . S
C723 C722 1.367 . S
C723 C725 1.433 . S
C724 C720 1.350 . S
C724 C721 1.463 1_564 S
C724 N728 1.427 . S
C725 H715 0.929 . S
C725 C723 1.433 . S
C725 N728 1.384 . S
C726 H717 0.929 1_545 S
C726 C718 1.378 . S
C726 C721 1.350 . S
C727 H714 0.929 . S
C727 C719 1.433 . S
C727 N729 1.384 . S
N728 C724 1.427 . S
N728 C725 1.384 . S
N729 C721 1.427 . S
N729 C727 1.384 . S
H730 C736 0.930 . S
H731 C740 0.930 . S
H732 C745 0.929 . S
H733 C743 0.929 . S
H734 C738 0.929 1_565 S
H735 C744 0.929 1_545 S
C736 H730 0.930 . S
C736 C737 1.367 . S
C736 C744 1.378 . S
C737 C736 1.367 . S
C737 C745 1.433 . S
C738 H734 0.929 1_545 S
C738 C740 1.378 . S
C738 C742 1.350 . S
C739 C742 1.463 1_565 S
C739 C744 1.350 . S
C739 N747 1.427 . S
C740 H731 0.930 . S
C740 C738 1.378 . S
C740 C741 1.367 . S
C741 C740 1.367 . S
C741 C743 1.433 . S
C742 C738 1.350 . S
C742 C739 1.463 1_545 S
C742 N746 1.427 . S
C743 H733 0.929 . S
C743 C741 1.433 . S
C743 N746 1.384 . S
C744 H735 0.929 1_565 S
C744 C736 1.378 . S
C744 C739 1.350 . S
C745 H732 0.929 . S
C745 C737 1.433 . S
C745 N747 1.384 . S
N746 C742 1.427 . S
N746 C743 1.384 . S
N747 C739 1.427 . S
N747 C745 1.384 . S
H748 C754 0.930 . S
H749 C758 0.930 . S
H750 C763 0.929 . S
H751 C761 0.929 . S
H752 C756 0.929 1_554 S
H753 C762 0.929 1_556 S
C754 H748 0.930 . S
C754 C755 1.367 . S
C754 C762 1.378 . S
C755 C754 1.367 . S
C755 C763 1.433 . S
C756 H752 0.929 1_556 S
C756 C758 1.378 . S
C756 C760 1.350 . S
C757 C760 1.463 1_564 S
C757 C762 1.350 . S
C757 N765 1.427 . S
C758 H749 0.930 . S
C758 C756 1.378 . S
C758 C759 1.367 . S
C759 C758 1.367 . S
C759 C761 1.433 . S
C760 C756 1.350 . S
C760 C757 1.463 1_546 S
C760 N764 1.427 . S
C761 H751 0.929 . S
C761 C759 1.433 . S
C761 N764 1.384 . S
C762 H753 0.929 1_554 S
C762 C754 1.378 . S
C762 C757 1.350 . S
C763 H750 0.929 . S
C763 C755 1.433 . S
C763 N765 1.384 . S
N764 C760 1.427 . S
N764 C761 1.384 . S
N765 C757 1.427 . S
N765 C763 1.384 . S
H766 C772 0.930 . S
H767 C776 0.930 . S
H768 C781 0.929 . S
H769 C779 0.929 . S
H770 C774 0.929 . S
H771 C780 0.929 . S
C772 H766 0.930 . S
C772 C773 1.367 . S
C772 C780 1.378 . S
C773 C772 1.367 . S
C773 C781 1.433 . S
C774 H770 0.929 . S
C774 C776 1.378 . S
C774 C778 1.350 . S
C775 C778 1.463 1_565 S
C775 C780 1.350 . S
C775 N783 1.427 . S
C776 H767 0.930 . S
C776 C774 1.378 . S
C776 C777 1.367 . S
C777 C776 1.367 . S
C777 C779 1.433 . S
C778 C774 1.350 . S
C778 C775 1.463 1_545 S
C778 N782 1.427 . S
C779 H769 0.929 . S
C779 C777 1.433 . S
C779 N782 1.384 . S
C780 H771 0.929 . S
C780 C772 1.378 . S
C780 C775 1.350 . S
C781 H768 0.929 . S
C781 C773 1.433 . S
C781 N783 1.384 . S
N782 C778 1.427 . S
N782 C779 1.384 . S
N783 C775 1.427 . S
N783 C781 1.384 . S
H784 C790 0.930 . S
H785 C794 0.930 . S
H786 C799 0.929 . S
H787 C797 0.929 . S
H788 C792 0.929 . S
H789 C798 0.929 . S
C790 H784 0.930 . S
C790 C791 1.367 . S
C790 C798 1.378 . S
C791 C790 1.367 . S
C791 C799 1.433 . S
C792 H788 0.929 . S
C792 C794 1.378 . S
C792 C796 1.350 . S
C793 C796 1.463 . S
C793 C798 1.350 . S
C793 N801 1.427 . S
C794 H785 0.930 . S
C794 C792 1.378 . S
C794 C795 1.367 . S
C795 C794 1.367 . S
C795 C797 1.433 . S
C796 C792 1.350 . S
C796 C793 1.463 . S
C796 N800 1.427 . S
C797 H787 0.929 . S
C797 C795 1.433 . S
C797 N800 1.384 . S
C798 H789 0.929 . S
C798 C790 1.378 . S
C798 C793 1.350 . S
C799 H786 0.929 . S
C799 C791 1.433 . S
C799 N801 1.384 . S
N800 C796 1.427 . S
N800 C797 1.384 . S
N801 C793 1.427 . S
N801 C799 1.384 . S
H802 C808 0.930 . S
H803 C812 0.930 . S
H804 C817 0.929 . S
H805 C815 0.929 . S
H806 C810 0.929 . S
H807 C816 0.929 . S
C808 H802 0.930 . S
C808 C809 1.367 . S
C808 C816 1.378 . S
C809 C808 1.367 . S
C809 C817 1.433 . S
C810 H806 0.929 . S
C810 C812 1.378 . S
C810 C814 1.350 . S
C811 C814 1.463 . S
C811 C816 1.350 . S
C811 N819 1.427 . S
C812 H803 0.930 . S
C812 C810 1.378 . S
C812 C813 1.367 . S
C813 C812 1.367 . S
C813 C815 1.433 . S
C814 C810 1.350 . S
C814 C811 1.463 . S
C814 N818 1.427 . S
C815 H805 0.929 . S
C815 C813 1.433 . S
C815 N818 1.384 . S
C816 H807 0.929 . S
C816 C808 1.378 . S
C816 C811 1.350 . S
C817 H804 0.929 . S
C817 C809 1.433 . S
C817 N819 1.384 . S
N818 C814 1.427 . S
N818 C815 1.384 . S
N819 C811 1.427 . S
N819 C817 1.384 . S
H820 C826 0.930 . S
H821 C830 0.930 . S
H822 C835 0.929 . S
H823 C833 0.929 . S
H824 C828 0.929 . S
H825 C834 0.929 . S
C826 H820 0.930 . S
C826 C827 1.367 . S
C826 C834 1.378 . S
C827 C826 1.367 . S
C827 C835 1.433 . S
C828 H824 0.929 . S
C828 C830 1.378 . S
C828 C832 1.350 . S
C829 C832 1.463 . S
C829 C834 1.350 . S
C829 N837 1.427 . S
C830 H821 0.930 . S
C830 C828 1.378 . S
C830 C831 1.367 . S
C831 C830 1.367 . S
C831 C833 1.433 . S
C832 C828 1.350 . S
C832 C829 1.463 . S
C832 N836 1.427 . S
C833 H823 0.929 . S
C833 C831 1.433 . S
C833 N836 1.384 . S
C834 H825 0.929 . S
C834 C826 1.378 . S
C834 C829 1.350 . S
C835 H822 0.929 . S
C835 C827 1.433 . S
C835 N837 1.384 . S
N836 C832 1.427 . S
N836 C833 1.384 . S
N837 C829 1.427 . S
N837 C835 1.384 . S
H838 C844 0.930 . S
H839 C848 0.930 . S
H840 C853 0.929 . S
H841 C851 0.929 . S
H842 C846 0.929 . S
H843 C852 0.929 . S
C844 H838 0.930 . S
C844 C845 1.367 . S
C844 C852 1.378 . S
C845 C844 1.367 . S
C845 C853 1.433 . S
C846 H842 0.929 . S
C846 C848 1.378 . S
C846 C850 1.350 . S
C847 C850 1.463 . S
C847 C852 1.350 . S
C847 N855 1.427 . S
C848 H839 0.930 . S
C848 C846 1.378 . S
C848 C849 1.367 . S
C849 C848 1.367 . S
C849 C851 1.433 . S
C850 C846 1.350 . S
C850 C847 1.463 . S
C850 N854 1.427 . S
C851 H841 0.929 . S
C851 C849 1.433 . S
C851 N854 1.384 . S
C852 H843 0.929 . S
C852 C844 1.378 . S
C852 C847 1.350 . S
C853 H840 0.929 . S
C853 C845 1.433 . S
C853 N855 1.384 . S
N854 C850 1.427 . S
N854 C851 1.384 . S
N855 C847 1.427 . S
N855 C853 1.384 . S
H856 C862 0.930 . S
H857 C866 0.930 . S
H858 C871 0.929 . S
H859 C869 0.929 . S
H860 C864 0.929 . S
H861 C870 0.929 . S
C862 H856 0.930 . S
C862 C863 1.367 . S
C862 C870 1.378 . S
C863 C862 1.367 . S
C863 C871 1.433 . S
C864 H860 0.929 . S
C864 C866 1.378 . S
C864 C868 1.350 . S
C865 C868 1.463 1_655 S
C865 C870 1.350 . S
C865 N873 1.427 . S
C866 H857 0.930 . S
C866 C864 1.378 . S
C866 C867 1.367 . S
C867 C866 1.367 . S
C867 C869 1.433 . S
C868 C864 1.350 . S
C868 C865 1.463 1_455 S
C868 N872 1.427 . S
C869 H859 0.929 . S
C869 C867 1.433 . S
C869 N872 1.384 . S
C870 H861 0.929 . S
C870 C862 1.378 . S
C870 C865 1.350 . S
C871 H858 0.929 . S
C871 C863 1.433 . S
C871 N873 1.384 . S
N872 C868 1.427 . S
N872 C869 1.384 . S
N873 C865 1.427 . S
N873 C871 1.384 . S
H874 C880 0.930 . S
H875 C884 0.930 . S
H876 C889 0.929 . S
H877 C887 0.929 . S
H878 C882 0.929 . S
H879 C888 0.929 . S
C880 H874 0.930 . S
C880 C881 1.367 . S
C880 C888 1.378 . S
C881 C880 1.367 . S
C881 C889 1.433 . S
C882 H878 0.929 . S
C882 C884 1.378 . S
C882 C886 1.350 . S
C883 C886 1.463 1_655 S
C883 C888 1.350 . S
C883 N891 1.427 . S
C884 H875 0.930 . S
C884 C882 1.378 . S
C884 C885 1.367 . S
C885 C884 1.367 . S
C885 C887 1.433 . S
C886 C882 1.350 . S
C886 C883 1.463 1_455 S
C886 N890 1.427 . S
C887 H877 0.929 . S
C887 C885 1.433 . S
C887 N890 1.384 . S
C888 H879 0.929 . S
C888 C880 1.378 . S
C888 C883 1.350 . S
C889 H876 0.929 . S
C889 C881 1.433 . S
C889 N891 1.384 . S
N890 C886 1.427 . S
N890 C887 1.384 . S
N891 C883 1.427 . S
N891 C889 1.384 . S
H892 C898 0.930 . S
H893 C902 0.930 . S
H894 C907 0.929 . S
H895 C905 0.929 . S
H896 C900 0.929 . S
H897 C906 0.929 . S
C898 H892 0.930 . S
C898 C899 1.367 . S
C898 C906 1.378 . S
C899 C898 1.367 . S
C899 C907 1.433 . S
C900 H896 0.929 . S
C900 C902 1.378 . S
C900 C904 1.350 . S
C901 C904 1.463 1_455 S
C901 C906 1.350 . S
C901 N909 1.427 . S
C902 H893 0.930 . S
C902 C900 1.378 . S
C902 C903 1.367 . S
C903 C902 1.367 . S
C903 C905 1.433 . S
C904 C900 1.350 . S
C904 C901 1.463 1_655 S
C904 N908 1.427 . S
C905 H895 0.929 . S
C905 C903 1.433 . S
C905 N908 1.384 . S
C906 H897 0.929 . S
C906 C898 1.378 . S
C906 C901 1.350 . S
C907 H894 0.929 . S
C907 C899 1.433 . S
C907 N909 1.384 . S
N908 C904 1.427 . S
N908 C905 1.384 . S
N909 C901 1.427 . S
N909 C907 1.384 . S
H910 C916 0.930 . S
H911 C920 0.930 . S
H912 C925 0.929 . S
H913 C923 0.929 . S
H914 C918 0.929 . S
H915 C924 0.929 . S
C916 H910 0.930 . S
C916 C917 1.367 . S
C916 C924 1.378 . S
C917 C916 1.367 . S
C917 C925 1.433 . S
C918 H914 0.929 . S
C918 C920 1.378 . S
C918 C922 1.350 . S
C919 C922 1.463 1_455 S
C919 C924 1.350 . S
C919 N927 1.427 . S
C920 H911 0.930 . S
C920 C918 1.378 . S
C920 C921 1.367 . S
C921 C920 1.367 . S
C921 C923 1.433 . S
C922 C918 1.350 . S
C922 C919 1.463 1_655 S
C922 N926 1.427 . S
C923 H913 0.929 . S
C923 C921 1.433 . S
C923 N926 1.384 . S
C924 H915 0.929 . S
C924 C916 1.378 . S
C924 C919 1.350 . S
C925 H912 0.929 . S
C925 C917 1.433 . S
C925 N927 1.384 . S
N926 C922 1.427 . S
N926 C923 1.384 . S
N927 C919 1.427 . S
N927 C925 1.384 . S
H928 C934 0.930 . S
H929 C938 0.930 . S
H930 C943 0.929 . S
H931 C941 0.929 . S
H932 C936 0.929 . S
H933 C942 0.929 . S
C934 H928 0.930 . S
C934 C935 1.367 . S
C934 C942 1.378 . S
C935 C934 1.367 . S
C935 C943 1.433 . S
C936 H932 0.929 . S
C936 C938 1.378 . S
C936 C940 1.350 . S
C937 C940 1.463 1_554 S
C937 C942 1.350 . S
C937 N945 1.427 . S
C938 H929 0.930 . S
C938 C936 1.378 . S
C938 C939 1.367 . S
C939 C938 1.367 . S
C939 C941 1.433 . S
C940 C936 1.350 . S
C940 C937 1.463 1_556 S
C940 N944 1.427 . S
C941 H931 0.929 . S
C941 C939 1.433 . S
C941 N944 1.384 . S
C942 H933 0.929 . S
C942 C934 1.378 . S
C942 C937 1.350 . S
C943 H930 0.929 . S
C943 C935 1.433 . S
C943 N945 1.384 . S
N944 C940 1.427 . S
N944 C941 1.384 . S
N945 C937 1.427 . S
N945 C943 1.384 . S
H946 C952 0.930 . S
H947 C956 0.930 . S
H948 C961 0.929 . S
H949 C959 0.929 . S
H950 C954 0.929 . S
H951 C960 0.929 . S
C952 H946 0.930 . S
C952 C953 1.367 . S
C952 C960 1.378 . S
C953 C952 1.367 . S
C953 C961 1.433 . S
C954 H950 0.929 . S
C954 C956 1.378 . S
C954 C958 1.350 . S
C955 C958 1.463 . S
C955 C960 1.350 . S
C955 N963 1.427 . S
C956 H947 0.930 . S
C956 C954 1.378 . S
C956 C957 1.367 . S
C957 C956 1.367 . S
C957 C959 1.433 . S
C958 C954 1.350 . S
C958 C955 1.463 . S
C958 N962 1.427 . S
C959 H949 0.929 . S
C959 C957 1.433 . S
C959 N962 1.384 . S
C960 H951 0.929 . S
C960 C952 1.378 . S
C960 C955 1.350 . S
C961 H948 0.929 . S
C961 C953 1.433 . S
C961 N963 1.384 . S
N962 C958 1.427 . S
N962 C959 1.384 . S
N963 C955 1.427 . S
N963 C961 1.384 . S
H964 C970 0.930 . S
H965 C974 0.930 . S
H966 C979 0.929 . S
H967 C977 0.929 . S
H968 C972 0.929 . S
H969 C978 0.929 . S
C970 H964 0.930 . S
C970 C971 1.367 . S
C970 C978 1.378 . S
C971 C970 1.367 . S
C971 C979 1.433 . S
C972 H968 0.929 . S
C972 C974 1.378 . S
C972 C976 1.350 . S
C973 C976 1.463 1_554 S
C973 C978 1.350 . S
C973 N981 1.427 . S
C974 H965 0.930 . S
C974 C972 1.378 . S
C974 C975 1.367 . S
C975 C974 1.367 . S
C975 C977 1.433 . S
C976 C972 1.350 . S
C976 C973 1.463 1_556 S
C976 N980 1.427 . S
C977 H967 0.929 . S
C977 C975 1.433 . S
C977 N980 1.384 . S
C978 H969 0.929 . S
C978 C970 1.378 . S
C978 C973 1.350 . S
C979 H966 0.929 . S
C979 C971 1.433 . S
C979 N981 1.384 . S
N980 C976 1.427 . S
N980 C977 1.384 . S
N981 C973 1.427 . S
N981 C979 1.384 . S
H982 C988 0.930 . S
H983 C992 0.930 . S
H984 C997 0.929 . S
H985 C995 0.929 . S
H986 C990 0.929 . S
H987 C996 0.929 . S
C988 H982 0.930 . S
C988 C989 1.367 . S
C988 C996 1.378 . S
C989 C988 1.367 . S
C989 C997 1.433 . S
C990 H986 0.929 . S
C990 C992 1.378 . S
C990 C994 1.350 . S
C991 C994 1.463 . S
C991 C996 1.350 . S
C991 N999 1.427 . S
C992 H983 0.930 . S
C992 C990 1.378 . S
C992 C993 1.367 . S
C993 C992 1.367 . S
C993 C995 1.433 . S
C994 C990 1.350 . S
C994 C991 1.463 . S
C994 N998 1.427 . S
C995 H985 0.929 . S
C995 C993 1.433 . S
C995 N998 1.384 . S
C996 H987 0.929 . S
C996 C988 1.378 . S
C996 C991 1.350 . S
C997 H984 0.929 . S
C997 C989 1.433 . S
C997 N999 1.384 . S
N998 C994 1.427 . S
N998 C995 1.384 . S
N999 C991 1.427 . S
N999 C997 1.384 . S
H1000 C1006 0.930 . S
H1001 C1010 0.930 . S
H1002 C1015 0.929 . S
H1003 C1013 0.929 . S
H1004 C1008 0.929 . S
H1005 C1014 0.929 . S
C1006 H1000 0.930 . S
C1006 C1007 1.367 . S
C1006 C1014 1.378 . S
C1007 C1006 1.367 . S
C1007 C1015 1.433 . S
C1008 H1004 0.929 . S
C1008 C1010 1.378 . S
C1008 C1012 1.350 . S
C1009 C1012 1.463 1_554 S
C1009 C1014 1.350 . S
C1009 N1017 1.427 . S
C1010 H1001 0.930 . S
C1010 C1008 1.378 . S
C1010 C1011 1.367 . S
C1011 C1010 1.367 . S
C1011 C1013 1.433 . S
C1012 C1008 1.350 . S
C1012 C1009 1.463 1_556 S
C1012 N1016 1.427 . S
C1013 H1003 0.929 . S
C1013 C1011 1.433 . S
C1013 N1016 1.384 . S
C1014 H1005 0.929 . S
C1014 C1006 1.378 . S
C1014 C1009 1.350 . S
C1015 H1002 0.929 . S
C1015 C1007 1.433 . S
C1015 N1017 1.384 . S
N1016 C1012 1.427 . S
N1016 C1013 1.384 . S
N1017 C1009 1.427 . S
N1017 C1015 1.384 . S
H1018 C1024 0.930 . S
H1019 C1028 0.930 . S
H1020 C1033 0.929 . S
H1021 C1031 0.929 . S
H1022 C1026 0.929 . S
H1023 C1032 0.929 . S
C1024 H1018 0.930 . S
C1024 C1025 1.367 . S
C1024 C1032 1.378 . S
C1025 C1024 1.367 . S
C1025 C1033 1.433 . S
C1026 H1022 0.929 . S
C1026 C1028 1.378 . S
C1026 C1030 1.350 . S
C1027 C1030 1.463 . S
C1027 C1032 1.350 . S
C1027 N1035 1.427 . S
C1028 H1019 0.930 . S
C1028 C1026 1.378 . S
C1028 C1029 1.367 . S
C1029 C1028 1.367 . S
C1029 C1031 1.433 . S
C1030 C1026 1.350 . S
C1030 C1027 1.463 . S
C1030 N1034 1.427 . S
C1031 H1021 0.929 . S
C1031 C1029 1.433 . S
C1031 N1034 1.384 . S
C1032 H1023 0.929 . S
C1032 C1024 1.378 . S
C1032 C1027 1.350 . S
C1033 H1020 0.929 . S
C1033 C1025 1.433 . S
C1033 N1035 1.384 . S
N1034 C1030 1.427 . S
N1034 C1031 1.384 . S
N1035 C1027 1.427 . S
N1035 C1033 1.384 . S
H1036 C1042 0.930 . S
H1037 C1046 0.930 . S
H1038 C1051 0.929 . S
H1039 C1049 0.929 . S
H1040 C1044 0.929 . S
H1041 C1050 0.929 . S
C1042 H1036 0.930 . S
C1042 C1043 1.367 . S
C1042 C1050 1.378 . S
C1043 C1042 1.367 . S
C1043 C1051 1.433 . S
C1044 H1040 0.929 . S
C1044 C1046 1.378 . S
C1044 C1048 1.350 . S
C1045 C1048 1.463 1_554 S
C1045 C1050 1.350 . S
C1045 N1053 1.427 . S
C1046 H1037 0.930 . S
C1046 C1044 1.378 . S
C1046 C1047 1.367 . S
C1047 C1046 1.367 . S
C1047 C1049 1.433 . S
C1048 C1044 1.350 . S
C1048 C1045 1.463 1_556 S
C1048 N1052 1.427 . S
C1049 H1039 0.929 . S
C1049 C1047 1.433 . S
C1049 N1052 1.384 . S
C1050 H1041 0.929 . S
C1050 C1042 1.378 . S
C1050 C1045 1.350 . S
C1051 H1038 0.929 . S
C1051 C1043 1.433 . S
C1051 N1053 1.384 . S
N1052 C1048 1.427 . S
N1052 C1049 1.384 . S
N1053 C1045 1.427 . S
N1053 C1051 1.384 . S
H1054 C1060 0.930 . S
H1055 C1064 0.930 . S
H1056 C1069 0.929 . S
H1057 C1067 0.929 . S
H1058 C1062 0.929 . S
H1059 C1068 0.929 . S
C1060 H1054 0.930 . S
C1060 C1061 1.367 . S
C1060 C1068 1.378 . S
C1061 C1060 1.367 . S
C1061 C1069 1.433 . S
C1062 H1058 0.929 . S
C1062 C1064 1.378 . S
C1062 C1066 1.350 . S
C1063 C1066 1.463 . S
C1063 C1068 1.350 . S
C1063 N1071 1.427 . S
C1064 H1055 0.930 . S
C1064 C1062 1.378 . S
C1064 C1065 1.367 . S
C1065 C1064 1.367 . S
C1065 C1067 1.433 . S
C1066 C1062 1.350 . S
C1066 C1063 1.463 . S
C1066 N1070 1.427 . S
C1067 H1057 0.929 . S
C1067 C1065 1.433 . S
C1067 N1070 1.384 . S
C1068 H1059 0.929 . S
C1068 C1060 1.378 . S
C1068 C1063 1.350 . S
C1069 H1056 0.929 . S
C1069 C1061 1.433 . S
C1069 N1071 1.384 . S
N1070 C1066 1.427 . S
N1070 C1067 1.384 . S
N1071 C1063 1.427 . S
N1071 C1069 1.384 . S
H1072 C1078 0.930 . S
H1073 C1082 0.930 . S
H1074 C1087 0.929 . S
H1075 C1085 0.929 . S
H1076 C1080 0.929 . S
H1077 C1086 0.929 . S
C1078 H1072 0.930 . S
C1078 C1079 1.367 . S
C1078 C1086 1.378 . S
C1079 C1078 1.367 . S
C1079 C1087 1.433 . S
C1080 H1076 0.929 . S
C1080 C1082 1.378 . S
C1080 C1084 1.350 . S
C1081 C1084 1.463 . S
C1081 C1086 1.350 . S
C1081 N1089 1.427 . S
C1082 H1073 0.930 . S
C1082 C1080 1.378 . S
C1082 C1083 1.367 . S
C1083 C1082 1.367 . S
C1083 C1085 1.433 . S
C1084 C1080 1.350 . S
C1084 C1081 1.463 . S
C1084 N1088 1.427 . S
C1085 H1075 0.929 . S
C1085 C1083 1.433 . S
C1085 N1088 1.384 . S
C1086 H1077 0.929 . S
C1086 C1078 1.378 . S
C1086 C1081 1.350 . S
C1087 H1074 0.929 . S
C1087 C1079 1.433 . S
C1087 N1089 1.384 . S
N1088 C1084 1.427 . S
N1088 C1085 1.384 . S
N1089 C1081 1.427 . S
N1089 C1087 1.384 . S
H1090 C1096 0.930 . S
H1091 C1100 0.930 . S
H1092 C1105 0.929 . S
H1093 C1103 0.929 . S
H1094 C1098 0.929 . S
H1095 C1104 0.929 . S
C1096 H1090 0.930 . S
C1096 C1097 1.367 . S
C1096 C1104 1.378 . S
C1097 C1096 1.367 . S
C1097 C1105 1.433 . S
C1098 H1094 0.929 . S
C1098 C1100 1.378 . S
C1098 C1102 1.350 . S
C1099 C1102 1.463 . S
C1099 C1104 1.350 . S
C1099 N1107 1.427 . S
C1100 H1091 0.930 . S
C1100 C1098 1.378 . S
C1100 C1101 1.367 . S
C1101 C1100 1.367 . S
C1101 C1103 1.433 . S
C1102 C1098 1.350 . S
C1102 C1099 1.463 . S
C1102 N1106 1.427 . S
C1103 H1093 0.929 . S
C1103 C1101 1.433 . S
C1103 N1106 1.384 . S
C1104 H1095 0.929 . S
C1104 C1096 1.378 . S
C1104 C1099 1.350 . S
C1105 H1092 0.929 . S
C1105 C1097 1.433 . S
C1105 N1107 1.384 . S
N1106 C1102 1.427 . S
N1106 C1103 1.384 . S
N1107 C1099 1.427 . S
N1107 C1105 1.384 . S
H1108 C1114 0.930 . S
H1109 C1118 0.930 . S
H1110 C1123 0.929 . S
H1111 C1121 0.929 . S
H1112 C1116 0.929 . S
H1113 C1122 0.929 . S
C1114 H1108 0.930 . S
C1114 C1115 1.367 . S
C1114 C1122 1.378 . S
C1115 C1114 1.367 . S
C1115 C1123 1.433 . S
C1116 H1112 0.929 . S
C1116 C1118 1.378 . S
C1116 C1120 1.350 . S
C1117 C1120 1.463 . S
C1117 C1122 1.350 . S
C1117 N1125 1.427 . S
C1118 H1109 0.930 . S
C1118 C1116 1.378 . S
C1118 C1119 1.367 . S
C1119 C1118 1.367 . S
C1119 C1121 1.433 . S
C1120 C1116 1.350 . S
C1120 C1117 1.463 . S
C1120 N1124 1.427 . S
C1121 H1111 0.929 . S
C1121 C1119 1.433 . S
C1121 N1124 1.384 . S
C1122 H1113 0.929 . S
C1122 C1114 1.378 . S
C1122 C1117 1.350 . S
C1123 H1110 0.929 . S
C1123 C1115 1.433 . S
C1123 N1125 1.384 . S
N1124 C1120 1.427 . S
N1124 C1121 1.384 . S
N1125 C1117 1.427 . S
N1125 C1123 1.384 . S
H1126 C1132 0.930 . S
H1127 C1136 0.930 . S
H1128 C1141 0.929 . S
H1129 C1139 0.929 . S
H1130 C1134 0.929 . S
H1131 C1140 0.929 . S
C1132 H1126 0.930 . S
C1132 C1133 1.367 . S
C1132 C1140 1.378 . S
C1133 C1132 1.367 . S
C1133 C1141 1.433 . S
C1134 H1130 0.929 . S
C1134 C1136 1.378 . S
C1134 C1138 1.350 . S
C1135 C1138 1.463 . S
C1135 C1140 1.350 . S
C1135 N1143 1.427 . S
C1136 H1127 0.930 . S
C1136 C1134 1.378 . S
C1136 C1137 1.367 . S
C1137 C1136 1.367 . S
C1137 C1139 1.433 . S
C1138 C1134 1.350 . S
C1138 C1135 1.463 . S
C1138 N1142 1.427 . S
C1139 H1129 0.929 . S
C1139 C1137 1.433 . S
C1139 N1142 1.384 . S
C1140 H1131 0.929 . S
C1140 C1132 1.378 . S
C1140 C1135 1.350 . S
C1141 H1128 0.929 . S
C1141 C1133 1.433 . S
C1141 N1143 1.384 . S
N1142 C1138 1.427 . S
N1142 C1139 1.384 . S
N1143 C1135 1.427 . S
N1143 C1141 1.384 . S
H1144 C1150 0.930 . S
H1145 C1154 0.930 . S
H1146 C1159 0.929 . S
H1147 C1157 0.929 . S
H1148 C1152 0.929 . S
H1149 C1158 0.929 . S
C1150 H1144 0.930 . S
C1150 C1151 1.367 . S
C1150 C1158 1.378 . S
C1151 C1150 1.367 . S
C1151 C1159 1.433 . S
C1152 H1148 0.929 . S
C1152 C1154 1.378 . S
C1152 C1156 1.350 . S
C1153 C1156 1.463 . S
C1153 C1158 1.350 . S
C1153 N1161 1.427 . S
C1154 H1145 0.930 . S
C1154 C1152 1.378 . S
C1154 C1155 1.367 . S
C1155 C1154 1.367 . S
C1155 C1157 1.433 . S
C1156 C1152 1.350 . S
C1156 C1153 1.463 . S
C1156 N1160 1.427 . S
C1157 H1147 0.929 . S
C1157 C1155 1.433 . S
C1157 N1160 1.384 . S
C1158 H1149 0.929 . S
C1158 C1150 1.378 . S
C1158 C1153 1.350 . S
C1159 H1146 0.929 . S
C1159 C1151 1.433 . S
C1159 N1161 1.384 . S
N1160 C1156 1.427 . S
N1160 C1157 1.384 . S
N1161 C1153 1.427 . S
N1161 C1159 1.384 . S
H1162 C1168 0.930 . S
H1163 C1172 0.930 . S
H1164 C1177 0.929 . S
H1165 C1175 0.929 . S
H1166 C1170 0.929 . S
H1167 C1176 0.929 . S
C1168 H1162 0.930 . S
C1168 C1169 1.367 . S
C1168 C1176 1.378 . S
C1169 C1168 1.367 . S
C1169 C1177 1.433 . S
C1170 H1166 0.929 . S
C1170 C1172 1.378 . S
C1170 C1174 1.350 . S
C1171 C1174 1.463 . S
C1171 C1176 1.350 . S
C1171 N1179 1.427 . S
C1172 H1163 0.930 . S
C1172 C1170 1.378 . S
C1172 C1173 1.367 . S
C1173 C1172 1.367 . S
C1173 C1175 1.433 . S
C1174 C1170 1.350 . S
C1174 C1171 1.463 . S
C1174 N1178 1.427 . S
C1175 H1165 0.929 . S
C1175 C1173 1.433 . S
C1175 N1178 1.384 . S
C1176 H1167 0.929 . S
C1176 C1168 1.378 . S
C1176 C1171 1.350 . S
C1177 H1164 0.929 . S
C1177 C1169 1.433 . S
C1177 N1179 1.384 . S
N1178 C1174 1.427 . S
N1178 C1175 1.384 . S
N1179 C1171 1.427 . S
N1179 C1177 1.384 . S
H1180 C1186 0.930 . S
H1181 C1190 0.930 . S
H1182 C1195 0.929 . S
H1183 C1193 0.929 . S
H1184 C1188 0.929 . S
H1185 C1194 0.929 . S
C1186 H1180 0.930 . S
C1186 C1187 1.367 . S
C1186 C1194 1.378 . S
C1187 C1186 1.367 . S
C1187 C1195 1.433 . S
C1188 H1184 0.929 . S
C1188 C1190 1.378 . S
C1188 C1192 1.350 . S
C1189 C1192 1.463 . S
C1189 C1194 1.350 . S
C1189 N1197 1.427 . S
C1190 H1181 0.930 . S
C1190 C1188 1.378 . S
C1190 C1191 1.367 . S
C1191 C1190 1.367 . S
C1191 C1193 1.433 . S
C1192 C1188 1.350 . S
C1192 C1189 1.463 . S
C1192 N1196 1.427 . S
C1193 H1183 0.929 . S
C1193 C1191 1.433 . S
C1193 N1196 1.384 . S
C1194 H1185 0.929 . S
C1194 C1186 1.378 . S
C1194 C1189 1.350 . S
C1195 H1182 0.929 . S
C1195 C1187 1.433 . S
C1195 N1197 1.384 . S
N1196 C1192 1.427 . S
N1196 C1193 1.384 . S
N1197 C1189 1.427 . S
N1197 C1195 1.384 . S
H1198 C1204 0.930 . S
H1199 C1208 0.930 . S
H1200 C1213 0.929 . S
H1201 C1211 0.929 . S
H1202 C1206 0.929 . S
H1203 C1212 0.929 . S
C1204 H1198 0.930 . S
C1204 C1205 1.367 . S
C1204 C1212 1.378 . S
C1205 C1204 1.367 . S
C1205 C1213 1.433 . S
C1206 H1202 0.929 . S
C1206 C1208 1.378 . S
C1206 C1210 1.350 . S
C1207 C1210 1.463 . S
C1207 C1212 1.350 . S
C1207 N1215 1.427 . S
C1208 H1199 0.930 . S
C1208 C1206 1.378 . S
C1208 C1209 1.367 . S
C1209 C1208 1.367 . S
C1209 C1211 1.433 . S
C1210 C1206 1.350 . S
C1210 C1207 1.463 . S
C1210 N1214 1.427 . S
C1211 H1201 0.929 . S
C1211 C1209 1.433 . S
C1211 N1214 1.384 . S
C1212 H1203 0.929 . S
C1212 C1204 1.378 . S
C1212 C1207 1.350 . S
C1213 H1200 0.929 . S
C1213 C1205 1.433 . S
C1213 N1215 1.384 . S
N1214 C1210 1.427 . S
N1214 C1211 1.384 . S
N1215 C1207 1.427 . S
N1215 C1213 1.384 . S
C359 C10 1.565 . S
C363 C329 1.627 . S
C377 C32 1.572 . S
C381 C351 1.625 . S
C395 C52 1.570 . S
C399 C279 1.625 . S
C413 C301 1.626 . S
C417 C76 1.561 . S
C431 C235 1.632 . S
C435 C96 1.579 . S
C449 C263 1.633 . S
C453 C118 1.578 . S
C467 C197 1.633 . S
C471 C142 1.581 . S
C485 C219 1.632 . S
C489 C172 1.577 . S
C503 C186 1.564 . S
C507 C139 1.626 . S
C521 C175 1.626 . S
C525 C208 1.568 . S
C539 C103 1.626 . S
C543 C238 1.564 . S
C557 C125 1.624 . S
C561 C252 1.571 . S
C575 C51 1.632 . S
C579 C272 1.580 . S
C593 C294 1.579 . S
C597 C87 1.632 . S
C611 C21 1.633 . S
C615 C326 1.577 . S
C629 C348 1.571 . S
C633 C43 1.634 . S
C647 C7 1.276 . S
C651 C59 1.280 . S
C665 C73 1.280 . S
C669 C29 1.275 . S
C683 C153 1.281 . S
C687 C95 1.286 . S
C701 C169 1.286 . S
C705 C117 1.281 . S
C719 C241 1.279 . S
C723 C183 1.275 . S
C737 C249 1.278 . S
C741 C205 1.275 . S
C755 C323 1.283 . S
C759 C271 1.285 . S
C773 C293 1.284 . S
C777 C345 1.283 . S
C791 C18 1.512 . S
C795 C140 1.517 . S
C809 C40 1.515 . S
C813 C164 1.512 . S
C827 C106 1.510 . S
C831 C54 1.519 . S
C845 C84 1.516 . S
C849 C128 1.513 . S
C863 C194 1.512 . S
C867 C318 1.517 . S
C881 C340 1.516 . S
C885 C216 1.512 . S
C899 C282 1.517 . S
C903 C228 1.512 . S
C917 C260 1.518 . S
C921 C304 1.510 . S
C935 C15 0.918 . S
C939 C285 0.922 . S
C953 C307 0.922 . S
C957 C37 0.918 . S
C971 C315 0.923 . S
C975 C65 0.919 . S
C989 C337 0.900 . S
C993 C81 0.896 . S
C1007 C191 0.919 . S
C1011 C109 0.922 . S
C1025 C213 0.894 . S
C1029 C131 0.899 . S
C1043 C147 0.921 . S
C1047 C227 0.917 . S
C1061 C257 0.918 . S
C1065 C161 0.921 . S
C1079 C8 1.428 . S
C1083 C120 1.428 . S
C1097 C98 1.426 . S
C1101 C30 1.428 . S
C1115 C62 1.427 . S
C1119 C162 1.428 . S
C1133 C150 1.426 . S
C1137 C74 1.428 . S
C1151 C184 1.428 . S
C1155 C296 1.427 . S
C1169 C274 1.427 . S
C1173 C206 1.428 . S
C1187 C338 1.428 . S
C1191 C230 1.428 . S
C1205 C250 1.429 . S
C1209 C316 1.427 . S
