# Generated by pormake.
# Topology wge, (5)-cn, num edge types: 1
# Building blocks:
#     Node 0, Type 0, BuildingBlock: XOMCOT_clean_sbu_1, # of connection points: 5
#     Node 1, Type 0, BuildingBlock: XOMCOT_clean_sbu_1, # of connection points: 5
#     Node 2, Type 0, BuildingBlock: XOMCOT_clean_sbu_1, # of connection points: 5
#     Node 3, Type 0, BuildingBlock: XOMCOT_clean_sbu_1, # of connection points: 5
#     Node 4, Type 0, BuildingBlock: XOMCOT_clean_sbu_1, # of connection points: 5
#     Node 5, Type 0, BuildingBlock: XOMCOT_clean_sbu_1, # of connection points: 5
#     Node 6, Type 0, BuildingBlock: XOMCOT_clean_sbu_1, # of connection points: 5
#     Node 7, Type 0, BuildingBlock: XOMCOT_clean_sbu_1, # of connection points: 5
#     Node 8, Type 0, BuildingBlock: XOMCOT_clean_sbu_1, # of connection points: 5
#     Node 9, Type 0, BuildingBlock: XOMCOT_clean_sbu_1, # of connection points: 5
#     Node 10, Type 0, BuildingBlock: XOMCOT_clean_sbu_1, # of connection points: 5
#     Node 11, Type 0, BuildingBlock: XOMCOT_clean_sbu_1, # of connection points: 5
#     Node 12, Type 0, BuildingBlock: XOMCOT_clean_sbu_1, # of connection points: 5
#     Node 13, Type 0, BuildingBlock: XOMCOT_clean_sbu_1, # of connection points: 5
#     Node 14, Type 0, BuildingBlock: XOMCOT_clean_sbu_1, # of connection points: 5
#     Node 15, Type 0, BuildingBlock: XOMCOT_clean_sbu_1, # of connection points: 5
#     Node 16, Type 0, BuildingBlock: XOMCOT_clean_sbu_1, # of connection points: 5
#     Node 17, Type 0, BuildingBlock: XOMCOT_clean_sbu_1, # of connection points: 5
#     Node 18, Type 0, BuildingBlock: XOMCOT_clean_sbu_1, # of connection points: 5
#     Node 19, Type 0, BuildingBlock: XOMCOT_clean_sbu_1, # of connection points: 5
#     Node 20, Type 0, BuildingBlock: XOMCOT_clean_sbu_1, # of connection points: 5
#     Node 21, Type 0, BuildingBlock: XOMCOT_clean_sbu_1, # of connection points: 5
#     Node 22, Type 0, BuildingBlock: XOMCOT_clean_sbu_1, # of connection points: 5
#     Node 23, Type 0, BuildingBlock: XOMCOT_clean_sbu_1, # of connection points: 5
#     Node 24, Type 0, BuildingBlock: XOMCOT_clean_sbu_1, # of connection points: 5
#     Node 25, Type 0, BuildingBlock: XOMCOT_clean_sbu_1, # of connection points: 5
#     Node 26, Type 0, BuildingBlock: XOMCOT_clean_sbu_1, # of connection points: 5
#     Node 27, Type 0, BuildingBlock: XOMCOT_clean_sbu_1, # of connection points: 5
#     Node 28, Type 0, BuildingBlock: XOMCOT_clean_sbu_1, # of connection points: 5
#     Node 29, Type 0, BuildingBlock: XOMCOT_clean_sbu_1, # of connection points: 5
#     Node 30, Type 0, BuildingBlock: XOMCOT_clean_sbu_1, # of connection points: 5
#     Node 31, Type 0, BuildingBlock: XOMCOT_clean_sbu_1, # of connection points: 5
#     Edge 32, Type (0, 0), BuildingBlock: XIVTED_clean_linker_0, # of connection points: 2
#     Edge 33, Type (0, 0), BuildingBlock: XIVTED_clean_linker_0, # of connection points: 2
#     Edge 34, Type (0, 0), BuildingBlock: XIVTED_clean_linker_0, # of connection points: 2
#     Edge 35, Type (0, 0), BuildingBlock: XIVTED_clean_linker_0, # of connection points: 2
#     Edge 36, Type (0, 0), BuildingBlock: XIVTED_clean_linker_0, # of connection points: 2
#     Edge 37, Type (0, 0), BuildingBlock: XIVTED_clean_linker_0, # of connection points: 2
#     Edge 38, Type (0, 0), BuildingBlock: XIVTED_clean_linker_0, # of connection points: 2
#     Edge 39, Type (0, 0), BuildingBlock: XIVTED_clean_linker_0, # of connection points: 2
#     Edge 40, Type (0, 0), BuildingBlock: XIVTED_clean_linker_0, # of connection points: 2
#     Edge 41, Type (0, 0), BuildingBlock: XIVTED_clean_linker_0, # of connection points: 2
#     Edge 42, Type (0, 0), BuildingBlock: XIVTED_clean_linker_0, # of connection points: 2
#     Edge 43, Type (0, 0), BuildingBlock: XIVTED_clean_linker_0, # of connection points: 2
#     Edge 44, Type (0, 0), BuildingBlock: XIVTED_clean_linker_0, # of connection points: 2
#     Edge 45, Type (0, 0), BuildingBlock: XIVTED_clean_linker_0, # of connection points: 2
#     Edge 46, Type (0, 0), BuildingBlock: XIVTED_clean_linker_0, # of connection points: 2
#     Edge 47, Type (0, 0), BuildingBlock: XIVTED_clean_linker_0, # of connection points: 2
#     Edge 48, Type (0, 0), BuildingBlock: XIVTED_clean_linker_0, # of connection points: 2
#     Edge 49, Type (0, 0), BuildingBlock: XIVTED_clean_linker_0, # of connection points: 2
#     Edge 50, Type (0, 0), BuildingBlock: XIVTED_clean_linker_0, # of connection points: 2
#     Edge 51, Type (0, 0), BuildingBlock: XIVTED_clean_linker_0, # of connection points: 2
#     Edge 52, Type (0, 0), BuildingBlock: XIVTED_clean_linker_0, # of connection points: 2
#     Edge 53, Type (0, 0), BuildingBlock: XIVTED_clean_linker_0, # of connection points: 2
#     Edge 54, Type (0, 0), BuildingBlock: XIVTED_clean_linker_0, # of connection points: 2
#     Edge 55, Type (0, 0), BuildingBlock: XIVTED_clean_linker_0, # of connection points: 2
#     Edge 56, Type (0, 0), BuildingBlock: XIVTED_clean_linker_0, # of connection points: 2
#     Edge 57, Type (0, 0), BuildingBlock: XIVTED_clean_linker_0, # of connection points: 2
#     Edge 58, Type (0, 0), BuildingBlock: XIVTED_clean_linker_0, # of connection points: 2
#     Edge 59, Type (0, 0), BuildingBlock: XIVTED_clean_linker_0, # of connection points: 2
#     Edge 60, Type (0, 0), BuildingBlock: XIVTED_clean_linker_0, # of connection points: 2
#     Edge 61, Type (0, 0), BuildingBlock: XIVTED_clean_linker_0, # of connection points: 2
#     Edge 62, Type (0, 0), BuildingBlock: XIVTED_clean_linker_0, # of connection points: 2
#     Edge 63, Type (0, 0), BuildingBlock: XIVTED_clean_linker_0, # of connection points: 2
#     Edge 64, Type (0, 0), BuildingBlock: XIVTED_clean_linker_0, # of connection points: 2
#     Edge 65, Type (0, 0), BuildingBlock: XIVTED_clean_linker_0, # of connection points: 2
#     Edge 66, Type (0, 0), BuildingBlock: XIVTED_clean_linker_0, # of connection points: 2
#     Edge 67, Type (0, 0), BuildingBlock: XIVTED_clean_linker_0, # of connection points: 2
#     Edge 68, Type (0, 0), BuildingBlock: XIVTED_clean_linker_0, # of connection points: 2
#     Edge 69, Type (0, 0), BuildingBlock: XIVTED_clean_linker_0, # of connection points: 2
#     Edge 70, Type (0, 0), BuildingBlock: XIVTED_clean_linker_0, # of connection points: 2
#     Edge 71, Type (0, 0), BuildingBlock: XIVTED_clean_linker_0, # of connection points: 2
#     Edge 72, Type (0, 0), BuildingBlock: XIVTED_clean_linker_0, # of connection points: 2
#     Edge 73, Type (0, 0), BuildingBlock: XIVTED_clean_linker_0, # of connection points: 2
#     Edge 74, Type (0, 0), BuildingBlock: XIVTED_clean_linker_0, # of connection points: 2
#     Edge 75, Type (0, 0), BuildingBlock: XIVTED_clean_linker_0, # of connection points: 2
#     Edge 76, Type (0, 0), BuildingBlock: XIVTED_clean_linker_0, # of connection points: 2
#     Edge 77, Type (0, 0), BuildingBlock: XIVTED_clean_linker_0, # of connection points: 2
#     Edge 78, Type (0, 0), BuildingBlock: XIVTED_clean_linker_0, # of connection points: 2
#     Edge 79, Type (0, 0), BuildingBlock: XIVTED_clean_linker_0, # of connection points: 2
#     Edge 80, Type (0, 0), BuildingBlock: XIVTED_clean_linker_0, # of connection points: 2
#     Edge 81, Type (0, 0), BuildingBlock: XIVTED_clean_linker_0, # of connection points: 2
#     Edge 82, Type (0, 0), BuildingBlock: XIVTED_clean_linker_0, # of connection points: 2
#     Edge 83, Type (0, 0), BuildingBlock: XIVTED_clean_linker_0, # of connection points: 2
#     Edge 84, Type (0, 0), BuildingBlock: XIVTED_clean_linker_0, # of connection points: 2
#     Edge 85, Type (0, 0), BuildingBlock: XIVTED_clean_linker_0, # of connection points: 2
#     Edge 86, Type (0, 0), BuildingBlock: XIVTED_clean_linker_0, # of connection points: 2
#     Edge 87, Type (0, 0), BuildingBlock: XIVTED_clean_linker_0, # of connection points: 2
#     Edge 88, Type (0, 0), BuildingBlock: XIVTED_clean_linker_0, # of connection points: 2
#     Edge 89, Type (0, 0), BuildingBlock: XIVTED_clean_linker_0, # of connection points: 2
#     Edge 90, Type (0, 0), BuildingBlock: XIVTED_clean_linker_0, # of connection points: 2
#     Edge 91, Type (0, 0), BuildingBlock: XIVTED_clean_linker_0, # of connection points: 2
#     Edge 92, Type (0, 0), BuildingBlock: XIVTED_clean_linker_0, # of connection points: 2
#     Edge 93, Type (0, 0), BuildingBlock: XIVTED_clean_linker_0, # of connection points: 2
#     Edge 94, Type (0, 0), BuildingBlock: XIVTED_clean_linker_0, # of connection points: 2
#     Edge 95, Type (0, 0), BuildingBlock: XIVTED_clean_linker_0, # of connection points: 2
#     Edge 96, Type (0, 0), BuildingBlock: XIVTED_clean_linker_0, # of connection points: 2
#     Edge 97, Type (0, 0), BuildingBlock: XIVTED_clean_linker_0, # of connection points: 2
#     Edge 98, Type (0, 0), BuildingBlock: XIVTED_clean_linker_0, # of connection points: 2
#     Edge 99, Type (0, 0), BuildingBlock: XIVTED_clean_linker_0, # of connection points: 2
#     Edge 100, Type (0, 0), BuildingBlock: XIVTED_clean_linker_0, # of connection points: 2
#     Edge 101, Type (0, 0), BuildingBlock: XIVTED_clean_linker_0, # of connection points: 2
#     Edge 102, Type (0, 0), BuildingBlock: XIVTED_clean_linker_0, # of connection points: 2
#     Edge 103, Type (0, 0), BuildingBlock: XIVTED_clean_linker_0, # of connection points: 2
#     Edge 104, Type (0, 0), BuildingBlock: XIVTED_clean_linker_0, # of connection points: 2
#     Edge 105, Type (0, 0), BuildingBlock: XIVTED_clean_linker_0, # of connection points: 2
#     Edge 106, Type (0, 0), BuildingBlock: XIVTED_clean_linker_0, # of connection points: 2
#     Edge 107, Type (0, 0), BuildingBlock: XIVTED_clean_linker_0, # of connection points: 2
#     Edge 108, Type (0, 0), BuildingBlock: XIVTED_clean_linker_0, # of connection points: 2
#     Edge 109, Type (0, 0), BuildingBlock: XIVTED_clean_linker_0, # of connection points: 2
#     Edge 110, Type (0, 0), BuildingBlock: XIVTED_clean_linker_0, # of connection points: 2
#     Edge 111, Type (0, 0), BuildingBlock: XIVTED_clean_linker_0, # of connection points: 2
# Relax obj value: 0.134
# Max RMSD: 0.143
# Mean RMSD: 0.143
data_MOF--net-wge--node1-XOMCOT_clean_sbu_1--edge1-XIVTED_clean_linker_0
_symmetry_space_group_name_H-M    P1
_symmetry_Int_Tables_number       1
_symmetry_cell_setting            triclinic
loop_
_symmetry_equiv_pos_as_xyz
'x, y, z'
_cell_length_a     69.580479
_cell_length_b     69.683629
_cell_length_c     41.179377
_cell_angle_alpha  90.01763
_cell_angle_beta   90.010359
_cell_angle_gamma 90.024553
loop_
_atom_site_label
_atom_site_type_symbol
_atom_site_fract_x
_atom_site_fract_y
_atom_site_fract_z
_atom_type_partial_charge
C0 C 0.20644 0.13484 0.01765 0.0
C1 C 0.19404 0.13229 0.99205 0.0
N2 N 0.19943 0.11639 0.97582 0.0
N3 N 0.21959 0.12064 0.01746 0.0
C4 C 0.21492 0.10957 0.99181 0.0
H5 H 0.20595 0.1463 0.03536 0.0
Co6 Co 0.23907 0.1175 0.04771 0.0
C7 C 0.27158 0.10889 0.0014 0.0
O8 O 0.28145 0.12347 0.01259 0.0
N9 N 0.25843 0.11439 0.07976 0.0
C10 C 0.2824 0.11959 0.11473 0.0
C11 C 0.27592 0.12265 0.08362 0.0
C12 C 0.2548 0.10645 0.10908 0.0
N13 N 0.26902 0.10939 0.13065 0.0
O14 O 0.22826 0.0928 0.06008 0.0
H15 H 0.28256 0.13257 0.06703 0.0
H16 H 0.24105 0.10059 0.116 0.0
O17 O 0.25517 0.10488 0.01375 0.0
C18 C 0.21242 0.09461 0.07551 0.0
O19 O 0.20538 0.11194 0.07953 0.0
N20 N 0.24787 0.14252 0.0377 0.0
C21 C 0.25426 0.18179 0.0283 0.0
C22 C 0.2538 0.16912 0.00178 0.0
C23 C 0.25036 0.14954 0.00695 0.0
C24 C 0.24758 0.15478 0.0635 0.0
C25 C 0.25111 0.17432 0.05947 0.0
H26 H 0.24904 0.14014 0.98619 0.0
H27 H 0.24404 0.14944 0.08742 0.0
H28 H 0.22251 0.09656 0.98542 0.0
H29 H 0.18214 0.14156 0.9857 0.0
H30 H 0.29503 0.12596 0.12569 0.0
H31 H 0.2558 0.17432 0.97723 0.0
H32 H 0.25057 0.18363 0.08052 0.0
C33 C 0.12538 0.95353 0.2666 0.0
C34 C 0.1275 0.94158 0.24031 0.0
N35 N 0.1426 0.94781 0.22275 0.0
N36 N 0.13903 0.96725 0.26546 0.0
C37 C 0.14938 0.96333 0.23865 0.0
H38 H 0.11454 0.95241 0.28535 0.0
Co39 Co 0.1424 0.98649 0.29591 0.0
C40 C 0.14837 0.01937 0.25036 0.0
O41 O 0.13356 0.02827 0.26323 0.0
N42 N 0.14615 0.005 0.32803 0.0
C43 C 0.15442 0.02858 0.36184 0.0
C44 C 0.15224 0.02342 0.32969 0.0
C45 C 0.14539 0.99923 0.35921 0.0
N46 N 0.15025 0.01318 0.38017 0.0
O47 O 0.16743 0.97639 0.30694 0.0
H48 H 0.15603 0.03239 0.30938 0.0
H49 H 0.1414 0.98483 0.3664 0.0
O50 O 0.15374 0.00318 0.26192 0.0
C51 C 0.16608 0.96107 0.32379 0.0
O52 O 0.14897 0.9536 0.32854 0.0
N53 N 0.11684 0.99507 0.28752 0.0
C54 C 0.07696 0.99841 0.2795 0.0
C55 C 0.08921 0.99817 0.25245 0.0
C56 C 0.1091 0.99624 0.25696 0.0
C57 C 0.10504 0.99579 0.31394 0.0
C58 C 0.08522 0.99776 0.31051 0.0
H59 H 0.11818 0.99465 0.23582 0.0
H60 H 0.11066 0.99359 0.33799 0.0
H61 H 0.16186 0.97151 0.23128 0.0
H62 H 0.11846 0.92942 0.2344 0.0
H63 H 0.15952 0.04223 0.37096 0.0
H64 H 0.08342 0.99829 0.22804 0.0
H65 H 0.07634 0.99793 0.33212 0.0
C66 C 0.30639 0.87726 0.51983 0.0
C67 C 0.31835 0.88007 0.49374 0.0
N68 N 0.31116 0.89448 0.47551 0.0
N69 N 0.29173 0.88983 0.51817 0.0
C70 C 0.29502 0.90015 0.49108 0.0
H71 H 0.30824 0.86676 0.53891 0.0
Co72 Co 0.27189 0.8918 0.54807 0.0
C73 C 0.23949 0.89753 0.50003 0.0
O74 O 0.23095 0.88176 0.50961 0.0
N75 N 0.25218 0.89379 0.57952 0.0
C76 C 0.22789 0.8875 0.61324 0.0
C77 C 0.23486 0.88506 0.58228 0.0
C78 C 0.25522 0.90142 0.60925 0.0
N79 N 0.24078 0.89783 0.63008 0.0
O80 O 0.28081 0.91729 0.56003 0.0
H81 H 0.22869 0.8753 0.56494 0.0
H82 H 0.26872 0.90756 0.6169 0.0
O83 O 0.25508 0.90295 0.51378 0.0
C84 C 0.29648 0.91633 0.57618 0.0
O85 O 0.30411 0.89936 0.58133 0.0
N86 N 0.26507 0.86612 0.53876 0.0
C87 C 0.2636 0.82625 0.53126 0.0
C88 C 0.26251 0.83838 0.50411 0.0
C89 C 0.2637 0.85832 0.50833 0.0
C90 C 0.2662 0.85444 0.56525 0.0
C91 C 0.26515 0.83458 0.56213 0.0
H92 H 0.26439 0.86742 0.48711 0.0
H93 H 0.26874 0.86054 0.58902 0.0
H94 H 0.28561 0.91149 0.4829 0.0
H95 H 0.33141 0.87217 0.48894 0.0
H96 H 0.21527 0.88069 0.62343 0.0
H97 H 0.26184 0.83249 0.4798 0.0
H98 H 0.26617 0.82577 0.58373 0.0
C99 C 0.38468 0.05473 0.76273 0.0
C100 C 0.38072 0.0662 0.73642 0.0
N101 N 0.36471 0.05948 0.7219 0.0
N102 N 0.37125 0.04083 0.76466 0.0
C103 C 0.35924 0.04414 0.73961 0.0
H104 H 0.39657 0.05635 0.77943 0.0
Co105 Co 0.3698 0.02191 0.79619 0.0
C106 C 0.36205 0.98822 0.75173 0.0
O107 O 0.37723 0.97903 0.76231 0.0
N108 N 0.36832 0.00309 0.82924 0.0
C109 C 0.37519 0.98 0.86494 0.0
C110 C 0.37752 0.98613 0.83345 0.0
C111 C 0.36054 0.00676 0.85867 0.0
N112 N 0.36444 0.99302 0.88061 0.0
O113 O 0.34454 0.03125 0.80899 0.0
H114 H 0.38744 0.97973 0.81658 0.0
H115 H 0.35401 0.02025 0.86522 0.0
O116 O 0.35771 0.00457 0.76382 0.0
C117 C 0.34499 0.0476 0.82305 0.0
O118 O 0.36156 0.05654 0.82537 0.0
N119 N 0.39523 0.01441 0.78569 0.0
C120 C 0.43454 0.00801 0.77618 0.0
C121 C 0.42173 0.00779 0.7498 0.0
C122 C 0.4021 0.01123 0.75503 0.0
C123 C 0.4077 0.01577 0.81115 0.0
C124 C 0.42725 0.0122 0.8071 0.0
H125 H 0.39249 0.01171 0.73441 0.0
H126 H 0.40243 0.01984 0.83488 0.0
H127 H 0.3465 0.03568 0.73487 0.0
H128 H 0.38912 0.07839 0.72841 0.0
H129 H 0.38227 0.96786 0.87619 0.0
H130 H 0.42683 0.00503 0.7254 0.0
H131 H 0.43669 0.01329 0.82794 0.0
C132 C 0.20282 0.87393 0.97786 0.0
C133 C 0.19068 0.8768 0.00376 0.0
N134 N 0.19656 0.89263 0.01974 0.0
N135 N 0.21635 0.88779 0.9778 0.0
C136 C 0.21209 0.89903 0.00341 0.0
H137 H 0.20186 0.86253 0.9601 0.0
Co138 Co 0.23592 0.89084 0.94768 0.0
C139 C 0.26802 0.89775 0.9959 0.0
O140 O 0.27703 0.88221 0.98647 0.0
N141 N 0.25537 0.89405 0.91614 0.0
C142 C 0.28001 0.88963 0.8823 0.0
C143 C 0.27326 0.88658 0.91327 0.0
C144 C 0.25179 0.90162 0.88655 0.0
N145 N 0.26644 0.89916 0.86568 0.0
O146 O 0.22561 0.91588 0.93613 0.0
H147 H 0.28016 0.87733 0.9306 0.0
H148 H 0.23791 0.90692 0.87906 0.0
O149 O 0.2523 0.90268 0.98202 0.0
C150 C 0.20985 0.91412 0.92041 0.0
O151 O 0.20301 0.89678 0.91554 0.0
N152 N 0.24408 0.86541 0.95648 0.0
C153 C 0.24718 0.82551 0.96302 0.0
C154 C 0.24738 0.83746 0.99049 0.0
C155 C 0.24548 0.85739 0.98674 0.0
C156 C 0.24387 0.85392 0.92967 0.0
C157 C 0.24581 0.8341 0.93232 0.0
H158 H 0.24416 0.86626 0.00817 0.0
H159 H 0.24133 0.86007 0.90596 0.0
H160 H 0.22034 0.91159 0.01006 0.0
H161 H 0.17834 0.8681 0.00999 0.0
H162 H 0.29307 0.8838 0.87198 0.0
H163 H 0.24791 0.83143 0.01471 0.0
H164 H 0.2456 0.82551 0.91039 0.0
C165 C 0.38161 0.95376 0.22658 0.0
C166 C 0.3785 0.94161 0.25231 0.0
N167 N 0.36359 0.94841 0.26982 0.0
N168 N 0.36875 0.96817 0.22783 0.0
C169 C 0.35793 0.96451 0.25423 0.0
H170 H 0.3925 0.95221 0.20801 0.0
Co171 Co 0.3667 0.98806 0.19814 0.0
C172 C 0.35964 0.0197 0.24733 0.0
O173 O 0.37572 0.02839 0.23967 0.0
N174 N 0.36451 0.00769 0.16692 0.0
C175 C 0.36917 0.03272 0.13409 0.0
C176 C 0.37125 0.0259 0.16526 0.0
C177 C 0.35836 0.00397 0.13646 0.0
N178 N 0.36096 0.01885 0.11618 0.0
O179 O 0.34148 0.97865 0.18519 0.0
H180 H 0.37921 0.03318 0.18392 0.0
H181 H 0.3539 0.98994 0.12824 0.0
O182 O 0.35464 0.00442 0.23221 0.0
C183 C 0.34233 0.96292 0.16928 0.0
O184 O 0.3592 0.9549 0.16483 0.0
N185 N 0.3922 0.99567 0.20859 0.0
C186 C 0.43169 1.0013 0.21839 0.0
C187 C 0.41911 0.99944 0.24489 0.0
C188 C 0.39946 0.99638 0.23947 0.0
C189 C 0.40439 0.99669 0.18269 0.0
C190 C 0.42402 0.99986 0.18699 0.0
H191 H 0.3901 0.99423 0.26012 0.0
H192 H 0.39897 0.99448 0.15837 0.0
H193 H 0.34622 0.97363 0.26189 0.0
H194 H 0.38655 0.92867 0.25733 0.0
H195 H 0.3746 0.04619 0.12475 0.0
H196 H 0.42441 1.00017 0.26958 0.0
H197 H 0.43322 1.00041 0.16581 0.0
C198 C 0.2984 0.13129 0.47991 0.0
C199 C 0.31018 0.129 0.50636 0.0
N200 N 0.30423 0.11342 0.52296 0.0
N201 N 0.28502 0.1173 0.47991 0.0
C202 C 0.289 0.10654 0.50629 0.0
H203 H 0.29947 0.14244 0.46172 0.0
Co204 Co 0.26594 0.11454 0.4488 0.0
C205 C 0.23249 0.10607 0.49319 0.0
O206 O 0.22282 0.12052 0.48112 0.0
N207 N 0.24703 0.1119 0.41584 0.0
C208 C 0.22395 0.11791 0.37957 0.0
C209 C 0.22987 0.12066 0.41107 0.0
C210 C 0.25104 0.104 0.38661 0.0
N211 N 0.23735 0.10741 0.36429 0.0
O212 O 0.27646 0.08967 0.43665 0.0
H213 H 0.22324 0.13078 0.42732 0.0
H214 H 0.2648 0.09793 0.38033 0.0
O215 O 0.24917 0.10209 0.48193 0.0
C216 C 0.29265 0.091 0.42217 0.0
O217 O 0.30037 0.10808 0.41865 0.0
N218 N 0.25737 0.13963 0.45879 0.0
C219 C 0.25099 0.17883 0.46874 0.0
C220 C 0.25083 0.16596 0.49497 0.0
C221 C 0.25427 0.14641 0.48953 0.0
C222 C 0.25831 0.1521 0.43332 0.0
C223 C 0.25476 0.17162 0.43761 0.0
H224 H 0.25507 0.13683 0.51012 0.0
H225 H 0.26228 0.14691 0.40949 0.0
H226 H 0.28074 0.09405 0.51327 0.0
H227 H 0.32236 0.13794 0.51255 0.0
H228 H 0.2118 0.12476 0.36793 0.0
H229 H 0.24835 0.17097 0.5195 0.0
H230 H 0.25576 0.1811 0.41684 0.0
C231 C 0.11971 0.05515 0.73677 0.0
C232 C 0.12314 0.06695 0.76292 0.0
N233 N 0.13921 0.06078 0.77796 0.0
N234 N 0.13345 0.04154 0.73561 0.0
C235 C 0.14518 0.04541 0.76079 0.0
H236 H 0.10804 0.05643 0.71956 0.0
Co237 Co 0.13585 0.02254 0.70447 0.0
C238 C 0.14343 0.9894 0.74896 0.0
O239 O 0.1285 0.9802 0.73706 0.0
N240 N 0.13869 0.00424 0.67179 0.0
C241 C 0.14792 0.98146 0.63734 0.0
C242 C 0.14601 0.98634 0.66961 0.0
C243 C 0.13676 0.00998 0.64073 0.0
N244 N 0.14215 0.99646 0.61917 0.0
O245 O 0.16057 0.03269 0.69163 0.0
H246 H 0.15109 0.97774 0.68957 0.0
H247 H 0.13249 0.0244 0.63431 0.0
O248 O 0.14816 0.00572 0.73718 0.0
C249 C 0.159 0.04815 0.67523 0.0
O250 O 0.14189 0.0559 0.67203 0.0
N251 N 0.11056 0.01376 0.7148 0.0
C252 C 0.0713 0.0071 0.72593 0.0
C253 C 0.08425 0.00859 0.75197 0.0
C254 C 0.10379 0.01205 0.74591 0.0
C255 C 0.098 0.01272 0.68939 0.0
C256 C 0.07851 0.0091 0.69434 0.0
H257 H 0.1134 0.01392 0.76631 0.0
H258 H 0.10274 0.01564 0.66502 0.0
H259 H 0.15782 0.03703 0.76646 0.0
H260 H 0.11468 0.07931 0.76989 0.0
H261 H 0.15387 0.96818 0.62818 0.0
H262 H 0.07929 0.00738 0.77681 0.0
H263 H 0.069 0.00881 0.67352 0.0
C264 C 0.80417 0.8757 0.97301 0.0
C265 C 0.81653 0.87841 0.99861 0.0
N266 N 0.80957 0.89269 0.01737 0.0
N267 N 0.78949 0.88819 0.97556 0.0
C268 C 0.79316 0.89837 0.00265 0.0
H269 H 0.80577 0.86533 0.95364 0.0
Co270 Co 0.7693 0.89036 0.9465 0.0
C271 C 0.73723 0.89606 0.99528 0.0
O272 O 0.72851 0.88044 0.98548 0.0
N273 N 0.7492 0.89253 0.91583 0.0
C274 C 0.72495 0.88584 0.88222 0.0
C275 C 0.73218 0.88322 0.91299 0.0
C276 C 0.75173 0.90078 0.88646 0.0
N277 N 0.7373 0.89697 0.86573 0.0
O278 O 0.77812 0.916 0.93476 0.0
H279 H 0.72652 0.87295 0.93 0.0
H280 H 0.76495 0.90748 0.87879 0.0
O281 O 0.75287 0.90135 0.98153 0.0
C282 C 0.79364 0.9154 0.91814 0.0
O283 O 0.80136 0.89857 0.91214 0.0
N284 N 0.76261 0.86458 0.95563 0.0
C285 C 0.76127 0.82461 0.96268 0.0
C286 C 0.76037 0.83668 0.98998 0.0
C287 C 0.76142 0.85666 0.98597 0.0
C288 C 0.7636 0.85299 0.929 0.0
C289 C 0.76255 0.8331 0.93189 0.0
H290 H 0.7622 0.86569 0.00728 0.0
H291 H 0.76595 0.85919 0.90525 0.0
H292 H 0.78384 0.90964 0.01141 0.0
H293 H 0.8297 0.87054 0.00268 0.0
H294 H 0.71266 0.87857 0.87178 0.0
H295 H 0.7599 0.83074 0.01426 0.0
H296 H 0.7633 0.82443 0.9101 0.0
C297 C 0.87886 0.0625 0.7282 0.0
C298 C 0.87736 0.07469 0.75436 0.0
N299 N 0.86439 0.06718 0.77495 0.0
N300 N 0.86671 0.04759 0.73233 0.0
C301 C 0.85809 0.05086 0.76109 0.0
H302 H 0.88824 0.0643 0.70748 0.0
Co303 Co 0.8632 0.02778 0.703 0.0
C304 C 0.85611 0.99541 0.74876 0.0
O305 O 0.87034 0.98604 0.735 0.0
N306 N 0.85928 0.00869 0.67192 0.0
C307 C 0.84784 0.98575 0.6395 0.0
C308 C 0.85015 0.99154 0.67129 0.0
C309 C 0.86169 0.01321 0.64039 0.0
N310 N 0.85496 0.99961 0.62028 0.0
O311 O 0.83854 0.03837 0.69034 0.0
H312 H 0.84393 0.9843 0.69189 0.0
H313 H 0.86766 0.02673 0.6323 0.0
O314 O 0.85111 0.01183 0.73758 0.0
C315 C 0.84089 0.05248 0.67092 0.0
O316 O 0.85848 0.05834 0.66497 0.0
N317 N 0.88847 0.01869 0.71298 0.0
C318 C 0.9275 0.01058 0.72381 0.0
C319 C 0.91487 0.0134 0.74996 0.0
C320 C 0.89547 0.0176 0.74404 0.0
C321 C 0.90077 0.0165 0.68743 0.0
C322 C 0.92013 0.01215 0.69225 0.0
H323 H 0.88613 0.02029 0.76451 0.0
H324 H 0.89595 0.01894 0.66296 0.0
H325 H 0.84729 0.04159 0.77168 0.0
H326 H 0.8854 0.08779 0.75833 0.0
H327 H 0.84029 0.97309 0.63116 0.0
H328 H 0.91995 0.01254 0.77477 0.0
H329 H 0.92943 0.01085 0.67128 0.0
C330 C 0.69925 0.13726 0.48018 0.0
C331 C 0.68783 0.13566 0.50725 0.0
N332 N 0.69415 0.12062 0.5248 0.0
N333 N 0.71268 0.12333 0.48082 0.0
C334 C 0.70916 0.11334 0.50814 0.0
H335 H 0.69796 0.14794 0.46124 0.0
Co336 Co 0.7311 0.11957 0.44923 0.0
C337 C 0.76517 0.11248 0.49187 0.0
O338 O 0.77418 0.12677 0.47763 0.0
N339 N 0.74863 0.1156 0.41576 0.0
C340 C 0.77087 0.10751 0.37928 0.0
C341 C 0.76685 0.10913 0.41201 0.0
C342 C 0.74181 0.11702 0.38527 0.0
N343 N 0.75494 0.11234 0.3628 0.0
O344 O 0.72012 0.09483 0.43856 0.0
H345 H 0.77639 0.10474 0.43122 0.0
H346 H 0.72726 0.12138 0.37963 0.0
O347 O 0.74838 0.10766 0.48205 0.0
C348 C 0.70443 0.09626 0.42264 0.0
O349 O 0.69684 0.11338 0.41884 0.0
N350 N 0.74067 0.14476 0.45753 0.0
C351 C 0.74861 0.18386 0.46661 0.0
C352 C 0.74727 0.17139 0.49326 0.0
C353 C 0.74311 0.15194 0.48823 0.0
C354 C 0.7416 0.15685 0.43151 0.0
C355 C 0.74582 0.17627 0.43544 0.0
H356 H 0.74135 0.14273 0.50915 0.0
H357 H 0.73816 0.15179 0.4075 0.0
H358 H 0.71726 0.10079 0.51537 0.0
H359 H 0.676 0.14498 0.5137 0.0
H360 H 0.78407 0.10232 0.3685 0.0
H361 H 0.74912 0.17664 0.51781 0.0
H362 H 0.74597 0.18544 0.41421 0.0
C363 C 0.62204 0.95242 0.23056 0.0
C364 C 0.6245 0.94007 0.25629 0.0
N365 N 0.64049 0.94538 0.27244 0.0
N366 N 0.6363 0.96552 0.23087 0.0
C367 C 0.64737 0.9608 0.25644 0.0
H368 H 0.61069 0.95186 0.21262 0.0
Co369 Co 0.6403 0.98486 0.20093 0.0
C370 C 0.64684 0.01791 0.2451 0.0
O371 O 0.63337 0.02726 0.22927 0.0
N372 N 0.64489 0.00346 0.16941 0.0
C373 C 0.65915 0.02464 0.13684 0.0
C374 C 0.65552 0.01972 0.16865 0.0
C375 C 0.64285 0.99856 0.13797 0.0
N376 N 0.65135 0.01109 0.11771 0.0
O377 O 0.66504 0.97403 0.18978 0.0
H378 H 0.66216 0.02655 0.18929 0.0
H379 H 0.63633 0.98522 0.13027 0.0
O380 O 0.65178 1.00111 0.23558 0.0
C381 C 0.663 0.95926 0.17173 0.0
O382 O 0.64556 0.95278 0.16632 0.0
N383 N 0.61497 0.99425 0.20943 0.0
C384 C 0.57574 1.0019 0.21858 0.0
C385 C 0.58812 0.99988 0.24526 0.0
C386 C 0.60765 0.99593 0.24019 0.0
C387 C 0.60297 0.99589 0.18337 0.0
C388 C 0.58349 1.0 0.18734 0.0
H389 H 0.61677 0.99362 0.26108 0.0
H390 H 0.60811 0.99309 0.1592 0.0
H391 H 0.66021 0.96859 0.26321 0.0
H392 H 0.61544 0.92794 0.26224 0.0
H393 H 0.66829 0.03623 0.12862 0.0
H394 H 0.58274 1.00105 0.26985 0.0
H395 H 0.5744 1.00073 0.16603 0.0
C396 C 0.81315 0.11872 0.03906 0.0
C397 C 0.8267 0.11661 0.01504 0.0
N398 N 0.81739 0.11383 0.9868 0.0
N399 N 0.79549 0.11694 0.02596 0.0
C400 C 0.79851 0.11414 0.99399 0.0
H401 H 0.81598 0.12088 0.06461 0.0
Co402 Co 0.77329 0.11685 0.05014 0.0
C403 C 0.74174 0.11224 0.00189 0.0
O404 O 0.73238 0.12599 0.01697 0.0
N405 N 0.75125 0.11644 0.07649 0.0
C406 C 0.72737 0.10397 0.10565 0.0
C407 C 0.73669 0.1036 0.07621 0.0
C408 C 0.75057 0.12413 0.10652 0.0
N409 N 0.73639 0.1167 0.125 0.0
O410 O 0.77887 0.09096 0.06385 0.0
H411 H 0.7343 0.09301 0.05746 0.0
H412 H 0.76199 0.13276 0.11639 0.0
O413 O 0.75829 0.10708 0.01241 0.0
C414 C 0.78658 0.09056 0.09198 0.0
O415 O 0.78958 0.10678 0.10736 0.0
N416 N 0.76959 0.14301 0.03899 0.0
C417 C 0.77035 0.18288 0.02986 0.0
C418 C 0.76526 0.17055 0.0043 0.0
C419 C 0.76554 0.1506 0.00908 0.0
C420 C 0.77551 0.15484 0.06336 0.0
C421 C 0.77562 0.17471 0.05962 0.0
H422 H 0.76328 0.14143 0.98833 0.0
H423 H 0.78121 0.14882 0.08545 0.0
H424 H 0.78722 0.11155 0.97644 0.0
H425 H 0.84216 0.11673 0.01808 0.0
H426 H 0.71607 0.09425 0.11306 0.0
H427 H 0.76194 0.17623 0.98047 0.0
H428 H 0.78015 0.18358 0.07983 0.0
C429 C 0.62334 0.05631 0.76885 0.0
C430 C 0.6256 0.0693 0.74399 0.0
N431 N 0.64184 0.06482 0.72786 0.0
N432 N 0.63798 0.04365 0.76799 0.0
C433 C 0.64907 0.04926 0.74298 0.0
H434 H 0.61187 0.05612 0.78656 0.0
Co435 Co 0.64234 0.02385 0.79678 0.0
C436 C 0.65066 0.99209 0.75064 0.0
O437 O 0.63723 0.98187 0.76497 0.0
N438 N 0.64717 0.00477 0.8273 0.0
C439 C 0.66139 0.98333 0.85945 0.0
C440 C 0.65801 0.98864 0.82771 0.0
C441 C 0.64469 0.00915 0.85884 0.0
N442 N 0.65318 0.9965 0.87885 0.0
O443 O 0.66659 0.03534 0.80931 0.0
H444 H 0.6649 0.98219 0.80696 0.0
H445 H 0.63784 0.02225 0.8669 0.0
O446 O 0.65482 0.00878 0.76164 0.0
C447 C 0.66389 0.04972 0.82802 0.0
O448 O 0.64615 0.0553 0.83353 0.0
N449 N 0.61746 0.01381 0.78686 0.0
C450 C 0.57838 0.00605 0.77589 0.0
C451 C 0.59112 0.00849 0.74979 0.0
C452 C 0.61054 0.01252 0.75577 0.0
C453 C 0.60515 0.01158 0.81238 0.0
C454 C 0.58575 0.00745 0.80748 0.0
H455 H 0.61989 0.01534 0.73534 0.0
H456 H 0.60996 0.01405 0.83685 0.0
H457 H 0.66216 0.04199 0.73596 0.0
H458 H 0.61622 0.08126 0.73858 0.0
H459 H 0.67062 0.97178 0.86753 0.0
H460 H 0.58609 0.00769 0.72494 0.0
H461 H 0.5764 0.00639 0.82844 0.0
C462 C 0.69993 0.87383 0.51992 0.0
C463 C 0.6879 0.87598 0.49371 0.0
N464 N 0.69456 0.89058 0.47546 0.0
N465 N 0.71411 0.88698 0.51806 0.0
C466 C 0.7104 0.89706 0.49089 0.0
H467 H 0.69855 0.86331 0.5391 0.0
Co468 Co 0.73376 0.89016 0.54795 0.0
C469 C 0.76567 0.89462 0.49855 0.0
O470 O 0.77356 0.87837 0.50753 0.0
N471 N 0.75294 0.89362 0.57937 0.0
C472 C 0.7782 0.89299 0.61266 0.0
C473 C 0.77206 0.89021 0.58117 0.0
C474 C 0.74798 0.89864 0.60986 0.0
N475 N 0.76297 0.89847 0.63038 0.0
O476 O 0.72434 0.91576 0.55804 0.0
H477 H 0.78098 0.8849 0.56192 0.0
H478 H 0.73332 0.90092 0.6176 0.0
O479 O 0.75059 0.90076 0.51312 0.0
C480 C 0.70847 0.91545 0.57366 0.0
O481 O 0.70018 0.8988 0.57891 0.0
N482 N 0.74141 0.86428 0.54063 0.0
C483 C 0.74438 0.82426 0.5356 0.0
C484 C 0.74322 0.83572 0.50766 0.0
C485 C 0.74142 0.85566 0.5107 0.0
C486 C 0.74267 0.85325 0.56793 0.0
C487 C 0.74447 0.83336 0.56596 0.0
H488 H 0.7393 0.86414 0.489 0.0
H489 H 0.74129 0.85972 0.59165 0.0
H490 H 0.71896 0.90913 0.4829 0.0
H491 H 0.67541 0.86729 0.4883 0.0
H492 H 0.79249 0.8904 0.62208 0.0
H493 H 0.74267 0.82928 0.48374 0.0
H494 H 0.74528 0.82511 0.58821 0.0
C495 C 0.88313 0.9477 0.26689 0.0
C496 C 0.8803 0.93585 0.24064 0.0
N497 N 0.86534 0.94268 0.22326 0.0
N498 N 0.87007 0.96195 0.26602 0.0
C499 C 0.8594 0.95849 0.23938 0.0
H500 H 0.89393 0.94604 0.28558 0.0
Co501 Co 0.86733 0.98127 0.29648 0.0
C502 C 0.85988 0.01311 0.24814 0.0
O503 O 0.87597 0.02205 0.25522 0.0
N504 N 0.86428 0.99997 0.32823 0.0
C505 C 0.85928 0.02473 0.36119 0.0
C506 C 0.8613 0.0191 0.32924 0.0
C507 C 0.86379 0.99437 0.35947 0.0
N508 N 0.86092 0.00905 0.38015 0.0
O509 O 0.84238 0.97125 0.30868 0.0
H510 H 0.86029 0.02848 0.30854 0.0
H511 H 0.86536 0.97956 0.36669 0.0
O512 O 0.85518 0.99781 0.26338 0.0
C513 C 0.84337 0.95562 0.32478 0.0
O514 O 0.86027 0.9476 0.32897 0.0
N515 N 0.89274 0.98978 0.28698 0.0
C516 C 0.93255 0.99377 0.27891 0.0
C517 C 0.92034 0.99285 0.25184 0.0
C518 C 0.90047 0.99052 0.2564 0.0
C519 C 0.90455 0.99094 0.31338 0.0
C520 C 0.92431 0.99325 0.30991 0.0
H521 H 0.89141 0.98847 0.23534 0.0
H522 H 0.89895 0.98891 0.33752 0.0
H523 H 0.84757 0.96752 0.23198 0.0
H524 H 0.8885 0.92307 0.2352 0.0
H525 H 0.85686 0.03922 0.36966 0.0
H526 H 0.92616 0.99282 0.22745 0.0
H527 H 0.93318 0.99384 0.33152 0.0
C528 C 0.6989 0.62857 0.52011 0.0
C529 C 0.68708 0.62635 0.49365 0.0
N530 N 0.69467 0.61274 0.47417 0.0
N531 N 0.71388 0.61646 0.51733 0.0
C532 C 0.71091 0.60696 0.4893 0.0
H533 H 0.69672 0.63831 0.54023 0.0
Co534 Co 0.73343 0.61366 0.54734 0.0
C535 C 0.76703 0.61066 0.50296 0.0
O536 O 0.77505 0.6251 0.51844 0.0
N537 N 0.75234 0.61036 0.57891 0.0
C538 C 0.77582 0.60029 0.61141 0.0
C539 C 0.77014 0.60259 0.57962 0.0
C540 C 0.74736 0.61185 0.61038 0.0
N541 N 0.76136 0.60613 0.63075 0.0
O542 O 0.72479 0.5879 0.55712 0.0
H543 H 0.77809 0.59741 0.55895 0.0
H544 H 0.73308 0.61601 0.61796 0.0
O545 O 0.75079 0.60417 0.51266 0.0
C546 C 0.70987 0.58833 0.57518 0.0
O547 O 0.70207 0.60502 0.5819 0.0
N548 N 0.74045 0.63982 0.54022 0.0
C549 C 0.74339 0.6798 0.53372 0.0
C550 C 0.74353 0.66788 0.50624 0.0
C551 C 0.74174 0.64794 0.50999 0.0
C552 C 0.74032 0.65134 0.56701 0.0
C553 C 0.74212 0.67118 0.56437 0.0
H554 H 0.74066 0.6391 0.48849 0.0
H555 H 0.73775 0.64545 0.59073 0.0
H556 H 0.72059 0.5961 0.48022 0.0
H557 H 0.6738 0.63402 0.48951 0.0
H558 H 0.78923 0.59405 0.61946 0.0
H559 H 0.74406 0.67393 0.48204 0.0
H560 H 0.74192 0.67975 0.58631 0.0
C561 C 0.63003 0.44276 0.77105 0.0
C562 C 0.63305 0.43053 0.74536 0.0
N563 N 0.64572 0.43891 0.72522 0.0
N564 N 0.64098 0.45859 0.76717 0.0
C565 C 0.65033 0.45585 0.73889 0.0
H566 H 0.6204 0.44036 0.79127 0.0
Co567 Co 0.64202 0.47896 0.79608 0.0
C568 C 0.64821 0.51114 0.74779 0.0
O569 O 0.63246 0.5198 0.75722 0.0
N570 N 0.64294 0.49928 0.82667 0.0
C571 C 0.63452 0.52333 0.85952 0.0
C572 C 0.63262 0.51572 0.82888 0.0
C573 C 0.65103 0.49748 0.85637 0.0
N574 N 0.64613 0.51178 0.87666 0.0
O575 O 0.66759 0.47081 0.80962 0.0
H576 H 0.62218 0.52063 0.81148 0.0
H577 H 0.65847 0.48481 0.86456 0.0
O578 O 0.65342 0.49551 0.76158 0.0
C579 C 0.66671 0.45571 0.82722 0.0
O580 O 0.64974 0.44827 0.83326 0.0
N581 N 0.61632 0.48491 0.78516 0.0
C582 C 0.5765 0.48656 0.77582 0.0
C583 C 0.58912 0.48782 0.74929 0.0
C584 C 0.60903 0.48653 0.75442 0.0
C585 C 0.60417 0.48329 0.81099 0.0
C586 C 0.58434 0.48445 0.80698 0.0
H587 H 0.61852 0.48615 0.73364 0.0
H588 H 0.60993 0.4806 0.83496 0.0
H589 H 0.66044 0.46593 0.7285 0.0
H590 H 0.62618 0.41678 0.74134 0.0
H591 H 0.62646 0.53528 0.86939 0.0
H592 H 0.58365 0.48889 0.72474 0.0
H593 H 0.5752 0.48332 0.82818 0.0
C594 C 0.81346 0.39095 0.04538 0.0
C595 C 0.82718 0.39282 0.02156 0.0
N596 N 0.81806 0.39498 0.99299 0.0
N597 N 0.79589 0.39225 0.03179 0.0
C598 C 0.79913 0.39453 -0.00024 0.0
H599 H 0.8161 0.38933 0.07111 0.0
Co600 Co 0.77348 0.39261 0.05538 0.0
C601 C 0.74241 0.39905 0.0069 0.0
O602 O 0.73215 0.38586 0.02175 0.0
N603 N 0.75121 0.39329 0.08113 0.0
C604 C 0.72948 0.40801 0.11201 0.0
C605 C 0.73815 0.40765 0.08202 0.0
C606 C 0.74996 0.38509 0.11074 0.0
N607 N 0.73724 0.394 0.13027 0.0
O608 O 0.77963 0.41823 0.07 0.0
H609 H 0.73696 0.41888 0.06404 0.0
H610 H 0.76052 0.37518 0.12 0.0
O611 O 0.75919 0.40319 0.01761 0.0
C612 C 0.78637 0.41853 0.09883 0.0
O613 O 0.7883 0.40229 0.11465 0.0
N614 N 0.76918 0.36672 0.04324 0.0
C615 C 0.76933 0.32696 0.03257 0.0
C616 C 0.76413 0.33969 0.00766 0.0
C617 C 0.76467 0.35957 0.01321 0.0
C618 C 0.7751 0.3545 0.06705 0.0
C619 C 0.77491 0.33469 0.06255 0.0
H620 H 0.76231 0.369 0.99287 0.0
H621 H 0.78099 0.36019 0.08928 0.0
H622 H 0.78795 0.39667 0.98187 0.0
H623 H 0.84261 0.39296 0.02497 0.0
H624 H 0.72005 0.41918 0.12092 0.0
H625 H 0.76054 0.33439 0.98369 0.0
H626 H 0.77947 0.32551 0.08233 0.0
C627 C 0.88994 0.55888 0.27131 0.0
C628 C 0.88734 0.57146 0.24595 0.0
N629 N 0.87112 0.56646 0.2302 0.0
N630 N 0.87554 0.54593 0.27117 0.0
C631 C 0.86422 0.55101 0.24609 0.0
H632 H 0.90159 0.55906 0.2887 0.0
Co633 Co 0.87217 0.52607 0.30042 0.0
C634 C 0.86206 0.49572 0.25097 0.0
O635 O 0.8776 0.48571 0.25734 0.0
N636 N 0.8685 0.50684 0.33115 0.0
C637 C 0.86156 0.48185 0.36256 0.0
C638 C 0.86347 0.48813 0.33097 0.0
C639 C 0.86933 0.51156 0.3628 0.0
N640 N 0.86528 0.49671 0.38256 0.0
O641 O 0.84817 0.53731 0.31457 0.0
H642 H 0.86071 0.47954 0.30974 0.0
H643 H 0.87248 0.52595 0.37099 0.0
O644 O 0.85839 0.51106 0.26692 0.0
C645 C 0.85049 0.5523 0.33196 0.0
O646 O 0.86801 0.55891 0.3361 0.0
N647 N 0.89674 0.51614 0.28872 0.0
C648 C 0.93539 0.50728 0.27657 0.0
C649 C 0.92271 0.51116 0.25089 0.0
C650 C 0.9035 0.51577 0.25748 0.0
C651 C 0.90907 0.51279 0.31387 0.0
C652 C 0.92825 0.50806 0.30835 0.0
H653 H 0.89413 0.5194 0.23746 0.0
H654 H 0.90441 0.51465 0.33862 0.0
H655 H 0.85129 0.54335 0.23937 0.0
H656 H 0.89656 0.58344 0.23981 0.0
H657 H 0.85756 0.46752 0.37005 0.0
H658 H 0.92763 0.51094 0.22594 0.0
H659 H 0.93762 0.50595 0.32904 0.0
C660 C 0.69551 0.38686 0.45997 0.0
C661 C 0.68254 0.38894 0.48492 0.0
N662 N 0.69237 0.39401 0.5117 0.0
N663 N 0.71329 0.39092 0.47102 0.0
C664 C 0.71095 0.39509 0.50275 0.0
H665 H 0.69215 0.38321 0.43509 0.0
Co666 Co 0.73455 0.39224 0.44457 0.0
C667 C 0.76726 0.39897 0.48948 0.0
O668 O 0.77703 0.38606 0.47306 0.0
N669 N 0.75549 0.39397 0.41586 0.0
C670 C 0.77606 0.40925 0.38338 0.0
C671 C 0.76861 0.40828 0.4143 0.0
C672 C 0.75529 0.38661 0.38553 0.0
N673 N 0.76744 0.39569 0.36525 0.0
O674 O 0.72692 0.41759 0.43107 0.0
H675 H 0.77077 0.41904 0.43285 0.0
H676 H 0.74418 0.37717 0.37675 0.0
O677 O 0.75012 0.40314 0.4806 0.0
C678 C 0.71803 0.4173 0.40398 0.0
O679 O 0.71485 0.40076 0.3897 0.0
N680 N 0.74057 0.36655 0.45601 0.0
C681 C 0.74605 0.32723 0.46654 0.0
C682 C 0.74837 0.34042 0.49202 0.0
C683 C 0.7452 0.36002 0.48639 0.0
C684 C 0.73652 0.35366 0.43209 0.0
C685 C 0.73967 0.33409 0.43647 0.0
H686 H 0.74609 0.36976 0.5067 0.0
H687 H 0.72997 0.3584 0.40984 0.0
H688 H 0.7224 0.39966 0.51875 0.0
H689 H 0.6671 0.38724 0.48344 0.0
H690 H 0.78542 0.4204 0.37415 0.0
H691 H 0.75255 0.33565 0.51603 0.0
H692 H 0.7365 0.32431 0.41671 0.0
C693 C 0.87924 0.43969 0.73053 0.0
C694 C 0.87701 0.42766 0.75672 0.0
N695 N 0.86476 0.43608 0.77756 0.0
N696 N 0.86825 0.45544 0.73486 0.0
C697 C 0.85961 0.45283 0.76381 0.0
H698 H 0.88835 0.43721 0.70967 0.0
Co699 Co 0.86618 0.47547 0.70557 0.0
C700 C 0.86198 0.50833 0.75153 0.0
O701 O 0.87682 0.5166 0.73756 0.0
N702 N 0.86371 0.49489 0.67452 0.0
C703 C 0.85446 0.51908 0.64272 0.0
C704 C 0.85605 0.51275 0.67431 0.0
C705 C 0.86585 0.49052 0.64285 0.0
N706 N 0.86049 0.5049 0.6231 0.0
O707 O 0.84069 0.46696 0.69336 0.0
H708 H 0.85038 0.52029 0.69505 0.0
H709 H 0.87064 0.47663 0.63435 0.0
O710 O 0.85572 0.49232 0.74042 0.0
C711 C 0.8421 0.45278 0.67382 0.0
O712 O 0.85928 0.44588 0.66764 0.0
N713 N 0.89216 0.48226 0.71491 0.0
C714 C 0.93205 0.48418 0.72422 0.0
C715 C 0.91949 0.48471 0.75083 0.0
C716 C 0.89959 0.48333 0.7457 0.0
C717 C 0.90433 0.48184 0.68894 0.0
C718 C 0.92417 0.48303 0.69299 0.0
H719 H 0.89022 0.48234 0.76657 0.0
H720 H 0.89891 0.47939 0.66485 0.0
H721 H 0.84962 0.46288 0.7746 0.0
H722 H 0.88411 0.41402 0.76055 0.0
H723 H 0.84814 0.53246 0.63473 0.0
H724 H 0.92502 0.48513 0.77541 0.0
H725 H 0.93334 0.48238 0.67176 0.0
C726 C 0.81245 0.63188 0.97739 0.0
C727 C 0.82448 0.63069 0.00381 0.0
N728 N 0.81802 0.61654 0.02324 0.0
N729 N 0.7985 0.61856 0.98031 0.0
C730 C 0.80235 0.60933 0.00827 0.0
H731 H 0.8136 0.64194 0.95749 0.0
Co732 Co 0.77859 0.61445 0.95134 0.0
C733 C 0.74647 0.61016 0.99875 0.0
O734 O 0.73755 0.62462 0.98487 0.0
N735 N 0.75928 0.60985 0.92094 0.0
C736 C 0.73494 0.5996 0.89031 0.0
C737 C 0.74114 0.60281 0.92162 0.0
C738 C 0.7639 0.61008 0.88921 0.0
N739 N 0.74945 0.60403 0.87017 0.0
O740 O 0.7885 0.58913 0.94152 0.0
H741 H 0.73317 0.59886 0.943 0.0
H742 H 0.77789 0.61434 0.88025 0.0
O743 O 0.76245 0.60418 0.98709 0.0
C744 C 0.8032 0.59027 0.92302 0.0
O745 O 0.81008 0.60736 0.91618 0.0
N746 N 0.77027 0.64025 0.95826 0.0
C747 C 0.76594 0.68017 0.96357 0.0
C748 C 0.76717 0.66866 0.99144 0.0
C749 C 0.76965 0.64877 0.98826 0.0
C750 C 0.76885 0.65135 0.93106 0.0
C751 C 0.7664 0.67116 0.93316 0.0
H752 H 0.77183 0.6403 0.00995 0.0
H753 H 0.77071 0.64515 0.90734 0.0
H754 H 0.79393 0.59743 0.01732 0.0
H755 H 0.83676 0.63979 0.00864 0.0
H756 H 0.7213 0.59348 0.88303 0.0
H757 H 0.76728 0.67505 0.01541 0.0
H758 H 0.76554 0.67944 0.91095 0.0
C759 C 0.62402 0.55905 0.22144 0.0
C760 C 0.62692 0.57128 0.2472 0.0
N761 N 0.64161 0.56443 0.26517 0.0
N762 N 0.63677 0.54455 0.22326 0.0
C763 C 0.64732 0.54824 0.24995 0.0
H764 H 0.61336 0.56061 0.2025 0.0
Co765 Co 0.63935 0.52448 0.19405 0.0
C766 C 0.64589 0.49384 0.24546 0.0
O767 O 0.6292 0.48553 0.24072 0.0
N768 N 0.64221 0.5047 0.16373 0.0
C769 C 0.63961 0.47854 0.13297 0.0
C770 C 0.6371 0.48597 0.16371 0.0
C771 C 0.64793 0.50816 0.13301 0.0
N772 N 0.64658 0.49258 0.11395 0.0
O773 O 0.66466 0.53381 0.18231 0.0
H774 H 0.63053 0.47846 0.18364 0.0
H775 H 0.65149 0.52227 0.12393 0.0
O776 O 0.65089 0.50835 0.22838 0.0
C777 C 0.66394 0.5493 0.1658 0.0
O778 O 0.64705 0.557 0.15999 0.0
N779 N 0.61371 0.51688 0.20321 0.0
C780 C 0.5738 0.51349 0.21002 0.0
C781 C 0.58568 0.51493 0.23745 0.0
C782 C 0.60559 0.51699 0.2335 0.0
C783 C 0.60225 0.51553 0.17641 0.0
C784 C 0.58241 0.51348 0.17927 0.0
H785 H 0.61441 0.5194 0.25474 0.0
H786 H 0.60836 0.51693 0.15241 0.0
H787 H 0.65887 0.53907 0.25812 0.0
H788 H 0.61893 0.58429 0.25197 0.0
H789 H 0.63567 0.46429 0.12482 0.0
H790 H 0.57958 0.51549 0.26163 0.0
H791 H 0.57382 0.5125 0.15739 0.0
C792 C 0.3036 0.36768 0.47711 0.0
C793 C 0.31626 0.37024 0.50239 0.0
N794 N 0.31142 0.38651 0.51808 0.0
N795 N 0.29076 0.38216 0.47719 0.0
C796 C 0.29597 0.39347 0.50221 0.0
H797 H 0.30368 0.35603 0.45974 0.0
Co798 Co 0.27083 0.38585 0.44803 0.0
C799 C 0.24082 0.39598 0.49879 0.0
O800 O 0.23085 0.38024 0.4941 0.0
N801 N 0.25116 0.3898 0.41768 0.0
C802 C 0.22494 0.38866 0.38664 0.0
C803 C 0.2322 0.38545 0.41733 0.0
C804 C 0.25491 0.39573 0.38717 0.0
N805 N 0.23931 0.39531 0.36799 0.0
O806 O 0.28223 0.41004 0.43484 0.0
H807 H 0.2244 0.37883 0.4369 0.0
H808 H 0.26919 0.39876 0.37822 0.0
O809 O 0.25591 0.39937 0.48195 0.0
C810 C 0.29776 0.40799 0.41868 0.0
O811 O 0.30452 0.39058 0.41436 0.0
N812 N 0.26107 0.3612 0.45878 0.0
C813 C 0.25282 0.32227 0.46861 0.0
C814 C 0.25601 0.33458 0.49508 0.0
C815 C 0.26037 0.35394 0.48963 0.0
C816 C 0.25857 0.34926 0.43286 0.0
C817 C 0.2541 0.32992 0.4372 0.0
H818 H 0.26366 0.36301 0.51022 0.0
H819 H 0.26073 0.35454 0.40846 0.0
H820 H 0.28842 0.40646 0.50883 0.0
H821 H 0.32822 0.36099 0.50847 0.0
H822 H 0.21057 0.38535 0.37823 0.0
H823 H 0.25543 0.32926 0.51976 0.0
H824 H 0.25254 0.32087 0.41599 0.0
C825 C 0.37942 0.55427 0.22793 0.0
C826 C 0.37741 0.56623 0.25423 0.0
N827 N 0.36339 0.55916 0.27348 0.0
N828 N 0.36678 0.53973 0.23058 0.0
C829 C 0.35718 0.54309 0.25838 0.0
H830 H 0.38936 0.55608 0.20796 0.0
Co831 Co 0.36334 0.52027 0.2006 0.0
C832 C 0.35945 0.48731 0.24643 0.0
O833 O 0.37425 0.47891 0.23261 0.0
N834 N 0.3594 0.5015 0.16903 0.0
C835 C 0.35054 0.47756 0.1364 0.0
C836 C 0.35332 0.48305 0.16824 0.0
C837 C 0.35951 0.50697 0.13769 0.0
N838 N 0.35429 0.4928 0.11744 0.0
O839 O 0.33783 0.52962 0.19108 0.0
H840 H 0.34986 0.47429 0.18897 0.0
H841 H 0.36325 0.52132 0.12987 0.0
O842 O 0.35328 0.50332 0.23529 0.0
C843 C 0.33849 0.54478 0.17372 0.0
O844 O 0.35532 0.55241 0.16722 0.0
N845 N 0.38928 0.51249 0.2075 0.0
C846 C 0.42931 0.50953 0.21332 0.0
C847 C 0.4176 0.50997 0.24104 0.0
C848 C 0.39763 0.51171 0.23762 0.0
C849 C 0.40056 0.51173 0.18044 0.0
C850 C 0.42044 0.50993 0.18278 0.0
H851 H 0.38895 0.51331 0.25923 0.0
H852 H 0.39443 0.51366 0.15667 0.0
H853 H 0.34588 0.53384 0.26726 0.0
H854 H 0.38549 0.57926 0.25839 0.0
H855 H 0.34528 0.46381 0.12796 0.0
H856 H 0.42385 0.51005 0.26512 0.0
H857 H 0.42888 0.5096 0.16068 0.0
C858 C 0.20055 0.63269 0.97782 0.0
C859 C 0.18812 0.63008 0.00342 0.0
N860 N 0.19398 0.61458 0.0203 0.0
N861 N 0.21425 0.61902 0.97891 0.0
C862 C 0.20979 0.60814 0.00483 0.0
H863 H 0.19969 0.64379 0.95952 0.0
Co864 Co 0.23423 0.61549 0.94979 0.0
C865 C 0.26498 0.60962 0.00095 0.0
O866 O 0.27355 0.62577 0.99338 0.0
N867 N 0.25389 0.61159 0.91941 0.0
C868 C 0.27996 0.61213 0.88799 0.0
C869 C 0.273 0.61525 0.91886 0.0
C870 C 0.24976 0.60613 0.88878 0.0
N871 N 0.26525 0.60625 0.86935 0.0
O872 O 0.22407 0.59032 0.93884 0.0
H873 H 0.28129 0.62115 0.93844 0.0
H874 H 0.23532 0.60367 0.88004 0.0
O875 O 0.25011 0.60414 0.98509 0.0
C876 C 0.2085 0.59158 0.92249 0.0
O877 O 0.20136 0.60871 0.91682 0.0
N878 N 0.24255 0.64109 0.95783 0.0
C879 C 0.24629 0.68103 0.96295 0.0
C880 C 0.24459 0.66961 0.99086 0.0
C881 C 0.24239 0.64969 0.98776 0.0
C882 C 0.24437 0.65208 0.93058 0.0
C883 C 0.24658 0.67192 0.9326 0.0
H884 H 0.23975 0.64127 0.00935 0.0
H885 H 0.24309 0.64564 0.90682 0.0
H886 H 0.21809 0.5958 0.01234 0.0
H887 H 0.17561 0.63873 0.00886 0.0
H888 H 0.29441 0.61494 0.87949 0.0
H889 H 0.24385 0.67609 0.01474 0.0
H890 H 0.2478 0.68014 0.91038 0.0
C891 C 0.14242 0.44262 0.71269 0.0
C892 C 0.14571 0.42947 0.73696 0.0
N893 N 0.14818 0.43918 0.76488 0.0
N894 N 0.14317 0.46046 0.72532 0.0
C895 C 0.14652 0.45789 0.75727 0.0
H896 H 0.14025 0.43943 0.68726 0.0
Co897 Co 0.14201 0.48257 0.70089 0.0
C898 C 0.14697 0.5139 0.74956 0.0
O899 O 0.13255 0.52317 0.73616 0.0
N900 N 0.14121 0.50457 0.67442 0.0
C901 C 0.15249 0.52885 0.64486 0.0
C902 C 0.15327 0.51978 0.67448 0.0
C903 C 0.13354 0.50467 0.64432 0.0
N904 N 0.14031 0.51905 0.62557 0.0
O905 O 0.16777 0.47774 0.68556 0.0
H906 H 0.16377 0.52282 0.69311 0.0
H907 H 0.12552 0.49277 0.63462 0.0
O908 O 0.15224 0.49773 0.73781 0.0
C909 C 0.16781 0.47003 0.65744 0.0
O910 O 0.15135 0.4663 0.64323 0.0
N911 N 0.11601 0.48563 0.71372 0.0
C912 C 0.07626 0.48454 0.72497 0.0
C913 C 0.08908 0.48932 0.75005 0.0
C914 C 0.10896 0.48925 0.74416 0.0
C915 C 0.10374 0.47998 0.68978 0.0
C916 C 0.08393 0.47976 0.69456 0.0
H917 H 0.11853 0.49142 0.76443 0.0
H918 H 0.10935 0.47467 0.66714 0.0
H919 H 0.1486 0.46943 0.77449 0.0
H920 H 0.14661 0.41404 0.73427 0.0
H921 H 0.16168 0.54055 0.63731 0.0
H922 H 0.08384 0.4923 0.7743 0.0
H923 H 0.07472 0.47557 0.67458 0.0
C924 C 0.30767 0.63126 0.52311 0.0
C925 C 0.3197 0.62785 0.4973 0.0
N926 N 0.31251 0.61304 0.48001 0.0
N927 N 0.29299 0.61868 0.52211 0.0
C928 C 0.29632 0.60775 0.49574 0.0
H929 H 0.30954 0.64213 0.5416 0.0
Co930 Co 0.2732 0.61713 0.55202 0.0
C931 C 0.23991 0.61002 0.50665 0.0
O932 O 0.23061 0.6248 0.51843 0.0
N933 N 0.25339 0.61568 0.5836 0.0
C934 C 0.23014 0.62378 0.61833 0.0
C935 C 0.23735 0.62646 0.58763 0.0
C936 C 0.25535 0.60653 0.61236 0.0
N937 N 0.24154 0.61123 0.63377 0.0
O938 O 0.28218 0.59179 0.56476 0.0
H939 H 0.23251 0.63762 0.57145 0.0
H940 H 0.26789 0.59841 0.61925 0.0
O941 O 0.25638 0.60556 0.51824 0.0
C942 C 0.29776 0.59302 0.58108 0.0
O943 O 0.30508 0.61013 0.58632 0.0
N944 N 0.26649 0.64258 0.54159 0.0
C945 C 0.26469 0.68226 0.53217 0.0
C946 C 0.26217 0.66959 0.50596 0.0
C947 C 0.26352 0.64973 0.51108 0.0
C948 C 0.26917 0.65474 0.56711 0.0
C949 C 0.26796 0.67452 0.5631 0.0
H950 H 0.26308 0.64021 0.49038 0.0
H951 H 0.27281 0.64901 0.59074 0.0
H952 H 0.28692 0.59623 0.48822 0.0
H953 H 0.33282 0.63558 0.49208 0.0
H954 H 0.21868 0.63194 0.62956 0.0
H955 H 0.26017 0.67499 0.48153 0.0
H956 H 0.27003 0.68371 0.58403 0.0
C957 C 0.12524 0.55423 0.26885 0.0
C958 C 0.1272 0.56561 0.24185 0.0
N959 N 0.14259 0.55941 0.22498 0.0
N960 N 0.13927 0.5409 0.26887 0.0
C961 C 0.1497 0.54446 0.24199 0.0
H962 H 0.11424 0.55545 0.28729 0.0
Co963 Co 0.14252 0.52261 0.30085 0.0
C964 C 0.15038 0.48843 0.2592 0.0
O965 O 0.13598 0.47945 0.27322 0.0
N966 N 0.14595 0.50529 0.33478 0.0
C967 C 0.1535 0.4834 0.37213 0.0
C968 C 0.15257 0.48721 0.33925 0.0
C969 C 0.14375 0.51225 0.36505 0.0
N970 N 0.14807 0.49933 0.38805 0.0
O971 O 0.16706 0.53368 0.31258 0.0
H972 H 0.15754 0.47766 0.32048 0.0
H973 H 0.1391 0.52676 0.37014 0.0
O974 O 0.15503 0.50529 0.26885 0.0
C975 C 0.16538 0.54947 0.32804 0.0
O976 O 0.14819 0.55705 0.3311 0.0
N977 N 0.11748 0.51289 0.29132 0.0
C978 C 0.07865 0.50455 0.27983 0.0
C979 C 0.09164 0.50622 0.25395 0.0
C980 C 0.11095 0.5105 0.26017 0.0
C981 C 0.10487 0.5116 0.31661 0.0
C982 C 0.08557 0.50713 0.31148 0.0
H983 H 0.12058 0.51242 0.23983 0.0
H984 H 0.10939 0.5149 0.34098 0.0
H985 H 0.1624 0.53642 0.23531 0.0
H986 H 0.11786 0.57733 0.23496 0.0
H987 H 0.15864 0.47035 0.38345 0.0
H988 H 0.08687 0.50453 0.22907 0.0
H989 H 0.07594 0.50665 0.33213 0.0
C990 C 0.19999 0.37582 0.02168 0.0
C991 C 0.18816 0.37857 0.99536 0.0
N992 N 0.19621 0.39204 0.97636 0.0
N993 N 0.21524 0.38772 0.01933 0.0
C994 C 0.21257 0.39738 0.99134 0.0
H995 H 0.19771 0.36577 0.04131 0.0
Co996 Co 0.23486 0.38934 0.04965 0.0
C997 C 0.26846 0.39779 0.00551 0.0
O998 O 0.27824 0.38358 0.01814 0.0
N999 N 0.25444 0.39073 0.08189 0.0
C1000 C 0.2772 0.38229 0.11741 0.0
C1001 C 0.27056 0.38008 0.08621 0.0
C1002 C 0.2519 0.39932 0.11104 0.0
N1003 N 0.26536 0.3944 0.13292 0.0
O1004 O 0.22536 0.41439 0.06327 0.0
H1005 H 0.2758 0.36922 0.0698 0.0
H1006 H 0.23914 0.40711 0.1178 0.0
O1007 O 0.25166 0.40164 0.01639 0.0
C1008 C 0.20988 0.41288 0.07985 0.0
O1009 O 0.20266 0.39568 0.08438 0.0
N1010 N 0.24223 0.36417 0.0383 0.0
C1011 C 0.24884 0.3251 0.02786 0.0
C1012 C 0.24965 0.33819 0.00195 0.0
C1013 C 0.24605 0.35771 0.00762 0.0
C1014 C 0.24015 0.35144 0.06318 0.0
C1015 C 0.2438 0.33197 0.05869 0.0
H1016 H 0.24599 0.36753 0.98732 0.0
H1017 H 0.23563 0.3565 0.08682 0.0
H1018 H 0.22226 0.40825 0.98215 0.0
H1019 H 0.17491 0.37101 0.99018 0.0
H1020 H 0.28855 0.37405 0.12878 0.0
H1021 H 0.25302 0.3334 0.97759 0.0
H1022 H 0.24222 0.3223 0.07911 0.0
C1023 C 0.3829 0.44571 0.76589 0.0
C1024 C 0.38079 0.43377 0.73957 0.0
N1025 N 0.366 0.44028 0.72156 0.0
N1026 N 0.36953 0.45968 0.76434 0.0
C1027 C 0.35936 0.45594 0.73724 0.0
H1028 H 0.39358 0.44445 0.78486 0.0
Co1029 Co 0.36655 0.47918 0.79436 0.0
C1030 C 0.3607 0.51209 0.74901 0.0
O1031 O 0.3754 0.52098 0.76227 0.0
N1032 N 0.36323 0.498 0.82598 0.0
C1033 C 0.35354 0.52123 0.85927 0.0
C1034 C 0.35556 0.51581 0.82725 0.0
C1035 C 0.36509 0.49282 0.85729 0.0
N1036 N 0.35956 0.50663 0.87812 0.0
O1037 O 0.34138 0.46954 0.80596 0.0
H1038 H 0.35035 0.52396 0.80684 0.0
H1039 H 0.36944 0.47854 0.86446 0.0
O1040 O 0.35535 0.4958 0.76021 0.0
C1041 C 0.34263 0.45451 0.82357 0.0
O1042 O 0.35968 0.44698 0.82851 0.0
N1043 N 0.39224 0.48726 0.7855 0.0
C1044 C 0.43215 0.48967 0.77685 0.0
C1045 C 0.41972 0.49021 0.75003 0.0
C1046 C 0.3998 0.48867 0.75484 0.0
C1047 C 0.40426 0.48716 0.81167 0.0
C1048 C 0.42409 0.48865 0.80795 0.0
H1049 H 0.39055 0.48755 0.73383 0.0
H1050 H 0.39879 0.48458 0.83569 0.0
H1051 H 0.34718 0.46439 0.72942 0.0
H1052 H 0.38967 0.42147 0.73387 0.0
H1053 H 0.3474 0.53457 0.86783 0.0
H1054 H 0.42537 0.4906 0.72554 0.0
H1055 H 0.43313 0.48812 0.82936 0.0
H1056 H 0.13466 0.04789 0.21195 0.0
H1057 H 0.22942 0.06363 0.10642 0.0
H1058 H 0.18366 0.01048 0.22267 0.0
H1059 H 0.17461 0.09018 0.08749 0.0
H1060 H 0.21378 0.04268 0.14692 0.0
H1061 H 0.14987 0.06277 0.16543 0.0
C1062 C 0.1487 0.04279 0.20457 0.0
C1063 C 0.15794 0.02799 0.22155 0.0
C1064 C 0.20516 0.05283 0.13337 0.0
C1065 C 0.17568 0.04518 0.16762 0.0
C1066 C 0.21403 0.06465 0.11006 0.0
C1067 C 0.20327 0.0787 0.09368 0.0
C1068 C 0.18546 0.05521 0.14019 0.0
C1069 C 0.18347 0.07965 0.09971 0.0
C1070 C 0.15738 0.05127 0.17772 0.0
C1071 C 0.17606 0.02191 0.21037 0.0
N1072 N 0.1753 0.06826 0.12257 0.0
N1073 N 0.18445 0.03067 0.18426 0.0
H1074 H 0.19422 0.97956 0.35918 0.0
H1075 H 0.21586 0.88244 0.45447 0.0
H1076 H 0.1739 0.92352 0.33135 0.0
H1077 H 0.24582 0.93482 0.47831 0.0
H1078 H 0.20204 0.89794 0.40745 0.0
H1079 H 0.21532 0.96439 0.39998 0.0
C1080 C 0.19473 0.96406 0.36087 0.0
C1081 C 0.1824 0.95271 0.34183 0.0
C1082 C 0.21167 0.90617 0.42271 0.0
C1083 C 0.20596 0.93539 0.38869 0.0
C1084 C 0.21953 0.89731 0.44987 0.0
C1085 C 0.23186 0.90739 0.47074 0.0
C1086 C 0.21583 0.92551 0.41619 0.0
C1087 C 0.23627 0.92655 0.46296 0.0
C1088 C 0.20658 0.95542 0.38438 0.0
C1089 C 0.18318 0.93276 0.34553 0.0
N1090 N 0.22807 0.9351 0.43647 0.0
N1091 N 0.19457 0.9248 0.3686 0.0
H1092 H 0.27836 0.94467 0.6119 0.0
H1093 H 0.37528 0.96164 0.70925 0.0
H1094 H 0.33409 0.92439 0.5819 0.0
H1095 H 0.32578 0.99729 0.72781 0.0
H1096 H 0.35927 0.94832 0.66222 0.0
H1097 H 0.29413 0.96535 0.65273 0.0
C1098 C 0.29391 0.94511 0.6131 0.0
C1099 C 0.305 0.93283 0.59356 0.0
C1100 C 0.35181 0.95911 0.67633 0.0
C1101 C 0.32297 0.95587 0.64045 0.0
C1102 C 0.36094 0.96666 0.70351 0.0
C1103 C 0.35182 0.9805 0.72285 0.0
C1104 C 0.33315 0.96511 0.66827 0.0
C1105 C 0.33331 0.98657 0.71367 0.0
C1106 C 0.30288 0.95673 0.6366 0.0
C1107 C 0.32503 0.9336 0.59655 0.0
N1108 N 0.32445 0.97866 0.6872 0.0
N1109 N 0.33331 0.94469 0.61972 0.0
H1110 H 0.31741 0.02828 0.85893 0.0
H1111 H 0.29392 0.12468 0.955 0.0
H1112 H 0.33597 0.08492 0.8309 0.0
H1113 H 0.26525 0.07167 0.97907 0.0
H1114 H 0.30757 0.10963 0.90738 0.0
H1115 H 0.29605 0.04286 0.89996 0.0
C1116 C 0.31654 0.04377 0.8607 0.0
C1117 C 0.32853 0.05545 0.84161 0.0
C1118 C 0.29825 0.10116 0.92279 0.0
C1119 C 0.30451 0.07211 0.88859 0.0
C1120 C 0.29049 0.10977 0.95026 0.0
C1121 C 0.27862 0.09936 0.9714 0.0
C1122 C 0.29449 0.08174 0.91624 0.0
C1123 C 0.27444 0.08017 0.96348 0.0
C1124 C 0.30449 0.05206 0.88429 0.0
C1125 C 0.32708 0.07538 0.84523 0.0
N1126 N 0.2826 0.07185 0.93671 0.0
N1127 N 0.3155 0.08301 0.86837 0.0
H1128 H 0.17178 0.9193 0.91339 0.0
H1129 H 0.17895 0.99949 0.77433 0.0
H1130 H 0.22612 0.94457 0.88706 0.0
H1131 H 0.13165 0.96025 0.78803 0.0
H1132 H 0.19549 0.98447 0.82087 0.0
H1133 H 0.15567 0.94019 0.87465 0.0
C1134 C 0.18028 0.92962 0.8999 0.0
C1135 C 0.20029 0.93021 0.90342 0.0
C1136 C 0.18146 0.97926 0.81362 0.0
C1137 C 0.18196 0.95387 0.85797 0.0
C1138 C 0.17203 0.98779 0.7871 0.0
C1139 C 0.15394 0.981 0.77701 0.0
C1140 C 0.17255 0.96411 0.83043 0.0
C1141 C 0.14563 0.96587 0.79456 0.0
C1142 C 0.17109 0.94143 0.87751 0.0
C1143 C 0.21062 0.94382 0.88525 0.0
N1144 N 0.15495 0.95803 0.82027 0.0
N1145 N 0.20135 0.95498 0.86287 0.0
H1146 H 0.29037 0.88287 0.04332 0.0
H1147 H 0.31453 0.98141 0.13292 0.0
H1148 H 0.26241 0.9356 0.01545 0.0
H1149 H 0.33348 0.92548 0.16382 0.0
H1150 H 0.293 0.96593 0.09301 0.0
H1151 H 0.30426 0.89895 0.08979 0.0
C1152 C 0.28715 0.89793 0.04695 0.0
C1153 C 0.27539 0.90794 0.02509 0.0
C1154 C 0.30155 0.95708 0.10909 0.0
C1155 C 0.29153 0.92675 0.07894 0.0
C1156 C 0.31365 0.9659 0.13207 0.0
C1157 C 0.32574 0.95465 0.15169 0.0
C1158 C 0.30165 0.93696 0.1059 0.0
C1159 C 0.32442 0.93466 0.14914 0.0
C1160 C 0.29505 0.90714 0.07377 0.0
C1161 C 0.2715 0.92737 0.03161 0.0
N1162 N 0.31279 0.92652 0.12657 0.0
N1163 N 0.27977 0.93625 0.05776 0.0
H1164 H 0.33047 0.0834 0.4182 0.0
H1165 H 0.32224 0.01136 0.26676 0.0
H1166 H 0.27556 0.06277 0.38464 0.0
H1167 H 0.37234 0.04428 0.29365 0.0
H1168 H 0.30517 0.02488 0.3142 0.0
H1169 H 0.34642 0.06283 0.37882 0.0
C1170 C 0.32178 0.07415 0.40294 0.0
C1171 C 0.3017 0.07482 0.40464 0.0
C1172 C 0.31993 0.029 0.30963 0.0
C1173 C 0.31987 0.05163 0.35828 0.0
C1174 C 0.32966 0.02133 0.2826 0.0
C1175 C 0.34869 0.02687 0.2759 0.0
C1176 C 0.32947 0.042 0.33027 0.0
C1177 C 0.35763 0.03973 0.29738 0.0
C1178 C 0.33088 0.06252 0.38018 0.0
C1179 C 0.29111 0.06257 0.38421 0.0
N1180 N 0.34798 0.04678 0.32337 0.0
N1181 N 0.30032 0.05167 0.3614 0.0
H1182 H 0.16588 0.08565 0.66448 0.0
H1183 H 0.24241 0.07096 0.52088 0.0
H1184 H 0.18762 0.02944 0.64102 0.0
H1185 H 0.20509 0.11985 0.53361 0.0
H1186 H 0.22799 0.05632 0.56994 0.0
H1187 H 0.18679 0.0995 0.62336 0.0
C1188 C 0.17541 0.07626 0.65104 0.0
C1189 C 0.175 0.0564 0.65613 0.0
C1190 C 0.2231 0.07028 0.56187 0.0
C1191 C 0.19868 0.07211 0.60792 0.0
C1192 C 0.23129 0.07862 0.53395 0.0
C1193 C 0.2248 0.09657 0.52281 0.0
C1194 C 0.20867 0.0802 0.57897 0.0
C1195 C 0.21043 0.1059 0.5408 0.0
C1196 C 0.18725 0.08414 0.62732 0.0
C1197 C 0.18765 0.04487 0.63799 0.0
N1198 N 0.20296 0.09765 0.56779 0.0
N1199 N 0.19882 0.05286 0.61425 0.0
H1200 H 0.87124 0.96894 0.78943 0.0
H1201 H 0.77519 0.94549 0.88712 0.0
H1202 H 0.81977 1.00225 0.77439 0.0
H1203 H 0.83124 0.92287 0.90969 0.0
H1204 H 0.79031 0.96808 0.84857 0.0
H1205 H 0.85613 0.95319 0.83523 0.0
C1206 C 0.85668 0.97296 0.79578 0.0
C1207 C 0.84672 0.98681 0.77773 0.0
C1208 C 0.79929 0.95846 0.86254 0.0
C1209 C 0.82903 0.96857 0.83074 0.0
C1210 C 0.79069 0.94572 0.88476 0.0
C1211 C 0.80202 0.93231 0.90157 0.0
C1212 C 0.81928 0.95764 0.85726 0.0
C1213 C 0.82197 0.93291 0.89713 0.0
C1214 C 0.84804 0.96399 0.8222 0.0
C1215 C 0.82795 0.99159 0.78758 0.0
N1216 N 0.82988 0.94516 0.87531 0.0
N1217 N 0.81959 0.98229 0.81322 0.0
H1218 H 0.79596 0.12545 0.52587 0.0
H1219 H 0.80911 0.03522 0.6427 0.0
H1220 H 0.75503 0.0789 0.52424 0.0
H1221 H 0.83767 0.08968 0.65426 0.0
H1222 H 0.78827 0.04978 0.60076 0.0
H1223 H 0.81119 0.11129 0.57293 0.0
C1224 C 0.79016 0.11215 0.53533 0.0
C1225 C 0.77421 0.10333 0.52075 0.0
C1226 C 0.79884 0.05859 0.61303 0.0
C1227 C 0.79183 0.08681 0.57548 0.0
C1228 C 0.81057 0.05034 0.63717 0.0
C1229 C 0.8251 0.0613 0.65198 0.0
C1230 C 0.80183 0.07781 0.60374 0.0
C1231 C 0.8267 0.0807 0.6434 0.0
C1232 C 0.79885 0.10409 0.56252 0.0
C1233 C 0.76734 0.08617 0.53461 0.0
N1234 N 0.8154 0.08822 0.61979 0.0
N1235 N 0.77629 0.07835 0.56108 0.0
H1236 H 0.72284 0.06549 0.39368 0.0
H1237 H 0.63181 0.04695 0.28066 0.0
H1238 H 0.66705 0.09111 0.40743 0.0
H1239 H 0.68102 0.00936 0.2769 0.0
H1240 H 0.64541 0.06276 0.32775 0.0
H1241 H 0.70875 0.04375 0.35274 0.0
C1242 C 0.70756 0.06615 0.38881 0.0
C1243 C 0.69607 0.08013 0.40392 0.0
C1244 C 0.65331 0.05101 0.3169 0.0
C1245 C 0.68004 0.05575 0.35685 0.0
C1246 C 0.64556 0.04201 0.28973 0.0
C1247 C 0.65534 0.02689 0.27452 0.0
C1248 C 0.67122 0.04516 0.32909 0.0
C1249 C 0.67302 0.02101 0.28783 0.0
C1250 C 0.69957 0.05388 0.36525 0.0
C1251 C 0.67646 0.08063 0.39625 0.0
N1252 N 0.68053 0.03031 0.3142 0.0
N1253 N 0.66916 0.06882 0.37316 0.0
H1254 H 0.74562 0.9326 0.01872 0.0
H1255 H 0.6691 0.92145 0.16345 0.0
H1256 H 0.7111 0.88247 0.03842 0.0
H1257 H 0.69221 0.97664 0.1371 0.0
H1258 H 0.69001 0.90627 0.12364 0.0
H1259 H 0.73093 0.9485 0.06632 0.0
C1260 C 0.73507 0.92492 0.03303 0.0
C1261 C 0.72944 0.90623 0.02425 0.0
C1262 C 0.69081 0.92169 0.1267 0.0
C1263 C 0.71292 0.92413 0.0788 0.0
C1264 C 0.67898 0.93033 0.14972 0.0
C1265 C 0.67904 0.95027 0.15372 0.0
C1266 C 0.70265 0.93306 0.10684 0.0
C1267 C 0.69198 0.96115 0.13505 0.0
C1268 C 0.72671 0.93399 0.06015 0.0
C1269 C 0.71577 0.89695 0.0438 0.0
N1270 N 0.70312 0.95243 0.11201 0.0
N1271 N 0.70806 0.90595 0.06992 0.0
H1272 H 0.81872 0.07075 0.07564 0.0
H1273 H 0.82076 0.00937 0.24024 0.0
H1274 H 0.77214 0.07197 0.14442 0.0
H1275 H 0.87114 0.03396 0.1956 0.0
H1276 H 0.80087 0.02401 0.19736 0.0
H1277 H 0.83595 0.04814 0.11105 0.0
C1278 C 0.8118 0.06558 0.09754 0.0
C1279 C 0.7939 0.07286 0.10697 0.0
C1280 C 0.81631 0.026 0.1969 0.0
C1281 C 0.81358 0.04752 0.1478 0.0
C1282 C 0.82764 0.01767 0.22127 0.0
C1283 C 0.84759 0.02069 0.22169 0.0
C1284 C 0.82508 0.03696 0.17238 0.0
C1285 C 0.85578 0.03151 0.19648 0.0
C1286 C 0.82172 0.05294 0.11792 0.0
C1287 C 0.7858 0.06634 0.13614 0.0
N1288 N 0.84452 0.03922 0.17286 0.0
N1289 N 0.79573 0.05408 0.15566 0.0
H1290 H 0.69718 0.03402 0.85366 0.0
H1291 H 0.71279 0.12674 0.96524 0.0
H1292 H 0.66553 0.08695 0.84563 0.0
H1293 H 0.75073 0.07792 0.97114 0.0
H1294 H 0.69691 0.11225 0.91895 0.0
H1295 H 0.71877 0.04958 0.89339 0.0
C1296 C 0.69511 0.04902 0.85957 0.0
C1297 C 0.67955 0.05924 0.84637 0.0
C1298 C 0.70875 0.10462 0.9301 0.0
C1299 C 0.70381 0.07695 0.89198 0.0
C1300 C 0.71783 0.11292 0.95677 0.0
C1301 C 0.73304 0.10349 0.9724 0.0
C1302 C 0.71464 0.08652 0.91883 0.0
C1303 C 0.73902 0.08567 0.95987 0.0
C1304 C 0.7073 0.05784 0.88244 0.0
C1305 C 0.67727 0.07851 0.85531 0.0
N1306 N 0.72967 0.07764 0.934 0.0
N1307 N 0.68911 0.08663 0.87758 0.0
H1308 H 0.68593 1.0013 0.72326 0.0
H1309 H 0.67109 0.92455 0.58029 0.0
H1310 H 0.63618 0.96518 0.70997 0.0
H1311 H 0.72768 0.94377 0.60771 0.0
H1312 H 0.65713 0.94651 0.61979 0.0
H1313 H 0.70064 0.98637 0.67477 0.0
C1314 C 0.67807 0.99037 0.71007 0.0
C1315 C 0.65989 0.98431 0.7209 0.0
C1316 C 0.67261 0.94622 0.61694 0.0
C1317 C 0.67636 0.96759 0.66539 0.0
C1318 C 0.68056 0.93381 0.59413 0.0
C1319 C 0.70054 0.93236 0.59072 0.0
C1320 C 0.68467 0.95718 0.63705 0.0
C1321 C 0.71217 0.94463 0.6094 0.0
C1322 C 0.68647 0.98187 0.6825 0.0
C1323 C 0.65032 0.97015 0.70288 0.0
N1324 N 0.70408 0.95636 0.63223 0.0
N1325 N 0.65862 0.96235 0.67616 0.0
H1326 H 0.75995 0.93212 0.47749 0.0
H1327 H 0.83483 0.91813 0.33117 0.0
H1328 H 0.7898 0.87973 0.45347 0.0
H1329 H 0.81523 0.97423 0.36008 0.0
H1330 H 0.81282 0.90367 0.37001 0.0
H1331 H 0.77534 0.94773 0.43027 0.0
C1332 C 0.76961 0.9239 0.46228 0.0
C1333 C 0.77378 0.90465 0.46977 0.0
C1334 C 0.81305 0.91915 0.36774 0.0
C1335 C 0.79109 0.92223 0.4157 0.0
C1336 C 0.82552 0.92739 0.3453 0.0
C1337 C 0.8268 0.94736 0.34238 0.0
C1338 C 0.80192 0.93092 0.3881 0.0
C1339 C 0.81448 0.95873 0.3614 0.0
C1340 C 0.77837 0.93279 0.43539 0.0
C1341 C 0.78632 0.89465 0.44912 0.0
N1342 N 0.80272 0.95035 0.38391 0.0
N1343 N 0.79447 0.90353 0.42327 0.0
H1344 H 0.68583 0.50498 0.72734 0.0
H1345 H 0.67267 0.57801 0.57826 0.0
H1346 H 0.63364 0.53478 0.70175 0.0
H1347 H 0.72881 0.56101 0.61157 0.0
H1348 H 0.65811 0.55579 0.61669 0.0
H1349 H 0.70182 0.51993 0.68002 0.0
C1350 C 0.67772 0.51452 0.71174 0.0
C1351 C 0.65842 0.51883 0.71883 0.0
C1352 C 0.67364 0.55658 0.6154 0.0
C1353 C 0.67642 0.53559 0.66462 0.0
C1354 C 0.68194 0.56914 0.59315 0.0
C1355 C 0.70193 0.57122 0.59159 0.0
C1356 C 0.68535 0.54621 0.63697 0.0
C1357 C 0.71331 0.55956 0.61174 0.0
C1358 C 0.68683 0.52302 0.6848 0.0
C1359 C 0.64859 0.53121 0.6977 0.0
N1360 N 0.70485 0.54773 0.63405 0.0
N1361 N 0.65766 0.53909 0.67179 0.0
H1362 H 0.6743 0.41831 0.83652 0.0
H1363 H 0.75242 0.43341 0.97744 0.0
H1364 H 0.69603 0.47456 0.85979 0.0
H1365 H 0.71494 0.38446 0.96715 0.0
H1366 H 0.73765 0.4476 0.92841 0.0
H1367 H 0.69589 0.40441 0.87663 0.0
C1368 C 0.68401 0.4277 0.84961 0.0
C1369 C 0.68337 0.44759 0.84483 0.0
C1370 C 0.73282 0.43371 0.9369 0.0
C1371 C 0.70782 0.4318 0.89189 0.0
C1372 C 0.74123 0.4256 0.96478 0.0
C1373 C 0.73477 0.4078 0.97661 0.0
C1374 C 0.71817 0.42371 0.9205 0.0
C1375 C 0.72026 0.3983 0.95926 0.0
C1376 C 0.69622 0.41978 0.87277 0.0
C1377 C 0.69623 0.45912 0.86256 0.0
N1378 N 0.71253 0.40633 0.93224 0.0
N1379 N 0.70777 0.45108 0.88575 0.0
H1380 H 0.82268 0.49844 0.24771 0.0
H1381 H 0.8155 0.44181 0.07869 0.0
H1382 H 0.87201 0.47773 0.19494 0.0
H1383 H 0.77444 0.43383 0.15576 0.0
H1384 H 0.83289 0.465 0.11299 0.0
H1385 H 0.80164 0.48408 0.20606 0.0
C1386 C 0.82906 0.49115 0.22713 0.0
C1387 C 0.84906 0.48902 0.2249 0.0
C1388 C 0.81975 0.45856 0.12197 0.0
C1389 C 0.82527 0.47312 0.17709 0.0
C1390 C 0.80974 0.44556 0.10231 0.0
C1391 C 0.79348 0.43615 0.11444 0.0
C1392 C 0.81323 0.46229 0.15368 0.0
C1393 C 0.78686 0.441 0.14555 0.0
C1394 C 0.81709 0.48297 0.20349 0.0
C1395 C 0.85664 0.47944 0.19777 0.0
N1396 N 0.7968 0.45369 0.16421 0.0
N1397 N 0.84475 0.47186 0.17493 0.0
H1398 H 0.7972 0.62601 0.47027 0.0
H1399 H 0.81671 0.53592 0.35434 0.0
H1400 H 0.75987 0.57653 0.47033 0.0
H1401 H 0.84869 0.58894 0.35327 0.0
H1402 H 0.79411 0.55038 0.39352 0.0
H1403 H 0.8148 0.61251 0.42499 0.0
C1404 C 0.79268 0.61223 0.46077 0.0
C1405 C 0.77711 0.60233 0.47446 0.0
C1406 C 0.80593 0.55888 0.38429 0.0
C1407 C 0.79747 0.58656 0.42199 0.0
C1408 C 0.81873 0.55069 0.36177 0.0
C1409 C 0.83466 0.56123 0.35069 0.0
C1410 C 0.80916 0.57768 0.39559 0.0
C1411 C 0.83673 0.58022 0.36138 0.0
C1412 C 0.80274 0.60452 0.43467 0.0
C1413 C 0.77185 0.58462 0.46063 0.0
N1414 N 0.82427 0.58773 0.38327 0.0
N1415 N 0.78213 0.57719 0.4353 0.0
H1416 H 0.68533 0.49538 0.25044 0.0
H1417 H 0.68709 0.43905 0.42025 0.0
H1418 H 0.63461 0.47628 0.30122 0.0
H1419 H 0.73225 0.43361 0.34939 0.0
H1420 H 0.67054 0.46181 0.38419 0.0
H1421 H 0.70527 0.48107 0.2936 0.0
C1422 C 0.67841 0.48839 0.27082 0.0
C1423 C 0.65832 0.48675 0.27206 0.0
C1424 C 0.68433 0.45602 0.37693 0.0
C1425 C 0.68088 0.47086 0.32159 0.0
C1426 C 0.69385 0.44327 0.39765 0.0
C1427 C 0.71111 0.43478 0.38782 0.0
C1428 C 0.69222 0.46028 0.34632 0.0
C1429 C 0.71906 0.44016 0.35787 0.0
C1430 C 0.68976 0.48025 0.29534 0.0
C1431 C 0.65006 0.4776 0.29904 0.0
N1432 N 0.7095 0.45251 0.33803 0.0
N1433 N 0.66135 0.47002 0.32269 0.0
H1434 H 0.81204 0.47213 0.64439 0.0
H1435 H 0.7967 0.38414 0.52457 0.0
H1436 H 0.8361 0.41577 0.65833 0.0
H1437 H 0.75706 0.43174 0.52376 0.0
H1438 H 0.8113 0.39682 0.57353 0.0
H1439 H 0.79096 0.45891 0.60154 0.0
C1440 C 0.8124 0.45689 0.63923 0.0
C1441 C 0.82579 0.44498 0.6549 0.0
C1442 C 0.79935 0.40455 0.56291 0.0
C1443 C 0.80231 0.42997 0.60562 0.0
C1444 C 0.79105 0.39734 0.53467 0.0
C1445 C 0.77569 0.40694 0.5198 0.0
C1446 C 0.79254 0.42174 0.5765 0.0
C1447 C 0.76892 0.4239 0.53442 0.0
C1448 C 0.80054 0.4494 0.61458 0.0
C1449 C 0.82603 0.42545 0.64678 0.0
N1450 N 0.77753 0.43091 0.56182 0.0
N1451 N 0.8147 0.41865 0.62258 0.0
H1452 H 0.87795 0.53592 0.78931 0.0
H1453 H 0.78474 0.55903 0.89557 0.0
H1454 H 0.82629 0.50209 0.78005 0.0
H1455 H 0.84061 0.58445 0.90945 0.0
H1456 H 0.79903 0.53635 0.85628 0.0
H1457 H 0.86398 0.5525 0.83528 0.0
C1458 C 0.86358 0.53196 0.79693 0.0
C1459 C 0.85324 0.51769 0.78045 0.0
C1460 C 0.80819 0.54664 0.86848 0.0
C1461 C 0.83689 0.53689 0.83376 0.0
C1462 C 0.80008 0.55943 0.89114 0.0
C1463 C 0.81156 0.57359 0.90581 0.0
C1464 C 0.82783 0.54815 0.86059 0.0
C1465 C 0.83124 0.57379 0.89865 0.0
C1466 C 0.8556 0.54142 0.82346 0.0
C1467 C 0.83476 0.51307 0.79196 0.0
N1468 N 0.83866 0.56145 0.87649 0.0
N1469 N 0.82706 0.52279 0.81773 0.0
H1470 H 0.69472 0.5309 0.13699 0.0
H1471 H 0.72075 0.62639 0.03963 0.0
H1472 H 0.67089 0.58686 0.15595 0.0
H1473 H 0.7521 0.57377 0.02437 0.0
H1474 H 0.70433 0.61182 0.08528 0.0
H1475 H 0.71807 0.54576 0.09951 0.0
C1476 C 0.6948 0.54634 0.13402 0.0
C1477 C 0.68088 0.55771 0.14948 0.0
C1478 C 0.71485 0.60336 0.07222 0.0
C1479 C 0.7071 0.57468 0.10648 0.0
C1480 C 0.72421 0.6117 0.04593 0.0
C1481 C 0.73766 0.60123 0.02785 0.0
C1482 C 0.71864 0.58418 0.08054 0.0
C1483 C 0.74174 0.58232 0.0376 0.0
C1484 C 0.70798 0.55479 0.11244 0.0
C1485 C 0.68132 0.57757 0.14437 0.0
N1486 N 0.73207 0.57428 0.06308 0.0
N1487 N 0.69405 0.58535 0.1232 0.0
H1488 H 0.3744 0.45873 0.28333 0.0
H1489 H 0.28085 0.44005 0.39119 0.0
H1490 H 0.32426 0.49487 0.27543 0.0
H1491 H 0.3353 0.41146 0.40346 0.0
H1492 H 0.29605 0.46193 0.35169 0.0
H1493 H 0.35993 0.44256 0.32929 0.0
C1494 C 0.36027 0.46329 0.29124 0.0
C1495 C 0.35047 0.47808 0.27518 0.0
C1496 C 0.3047 0.45108 0.36352 0.0
C1497 C 0.33359 0.4594 0.32839 0.0
C1498 C 0.29608 0.43872 0.38625 0.0
C1499 C 0.30686 0.4239 0.4005 0.0
C1500 C 0.32415 0.4485 0.35518 0.0
C1501 C 0.32644 0.42259 0.39287 0.0
C1502 C 0.352 0.45406 0.31774 0.0
C1503 C 0.33228 0.48346 0.28701 0.0
N1504 N 0.33436 0.43457 0.37065 0.0
N1505 N 0.32431 0.47398 0.31275 0.0
H1506 H 0.32776 0.58184 0.17336 0.0
H1507 H 0.25888 0.57155 0.01811 0.0
H1508 H 0.31209 0.52658 0.1347 0.0
H1509 H 0.28692 0.62349 0.05 0.0
H1510 H 0.27261 0.55469 0.06553 0.0
H1511 H 0.30612 0.59716 0.13474 0.0
C1512 C 0.31926 0.57291 0.15727 0.0
C1513 C 0.32153 0.55297 0.15736 0.0
C1514 C 0.27558 0.56981 0.06211 0.0
C1515 C 0.29732 0.57042 0.11181 0.0
C1516 C 0.26778 0.57942 0.03511 0.0
C1517 C 0.27198 0.5989 0.02979 0.0
C1518 C 0.28734 0.5799 0.08409 0.0
C1519 C 0.2835 0.60842 0.05268 0.0
C1520 C 0.30706 0.58165 0.13492 0.0
C1521 C 0.31044 0.54202 0.13568 0.0
N1522 N 0.29073 0.59886 0.07861 0.0
N1523 N 0.299 0.55092 0.11331 0.0
H1524 H 0.17062 0.58532 0.91456 0.0
H1525 H 0.18225 0.50489 0.77667 0.0
H1526 H 0.22588 0.56127 0.89063 0.0
H1527 H 0.13293 0.54163 0.78946 0.0
H1528 H 0.19747 0.52035 0.82407 0.0
H1529 H 0.15546 0.56349 0.87614 0.0
C1530 C 0.17952 0.57507 0.90168 0.0
C1531 C 0.1995 0.57508 0.90578 0.0
C1532 C 0.18327 0.52488 0.81651 0.0
C1533 C 0.18228 0.55034 0.86069 0.0
C1534 C 0.17458 0.51608 0.78953 0.0
C1535 C 0.15635 0.52211 0.77885 0.0
C1536 C 0.17349 0.53955 0.83316 0.0
C1537 C 0.14706 0.53663 0.79646 0.0
C1538 C 0.17088 0.56271 0.87949 0.0
C1539 C 0.21038 0.56155 0.88839 0.0
N1540 N 0.15571 0.54479 0.82258 0.0
N1541 N 0.20165 0.54987 0.86616 0.0
H1542 H 0.1919 0.44124 0.67553 0.0
H1543 H 0.24341 0.43537 0.50164 0.0
H1544 H 0.18218 0.48322 0.60059 0.0
H1545 H 0.22509 0.38601 0.55665 0.0
H1546 H 0.23052 0.45631 0.54479 0.0
H1547 H 0.21445 0.42446 0.63931 0.0
C1548 C 0.19519 0.44736 0.65198 0.0
C1549 C 0.18547 0.46371 0.64104 0.0
C1550 C 0.22961 0.44088 0.54748 0.0
C1551 C 0.21077 0.44454 0.59948 0.0
C1552 C 0.23696 0.42897 0.52299 0.0
C1553 C 0.23503 0.40898 0.52545 0.0
C1554 C 0.22083 0.43265 0.57491 0.0
C1555 C 0.22658 0.40137 0.55359 0.0
C1556 C 0.20782 0.43768 0.63121 0.0
C1557 C 0.18966 0.47075 0.60993 0.0
N1558 N 0.2198 0.41319 0.57719 0.0
N1559 N 0.20193 0.46107 0.59009 0.0
H1560 H 0.32511 0.50359 0.7222 0.0
H1561 H 0.33563 0.58725 0.58969 0.0
H1562 H 0.37405 0.54108 0.71117 0.0
H1563 H 0.28062 0.56196 0.61161 0.0
H1564 H 0.35094 0.56494 0.62697 0.0
H1565 H 0.30943 0.52016 0.6763 0.0
C1566 C 0.33259 0.5152 0.71009 0.0
C1567 C 0.35086 0.52108 0.72081 0.0
C1568 C 0.33554 0.56402 0.6235 0.0
C1569 C 0.3332 0.53977 0.6682 0.0
C1570 C 0.32681 0.57669 0.60197 0.0
C1571 C 0.30684 0.5765 0.59764 0.0
C1572 C 0.32426 0.5511 0.64143 0.0
C1573 C 0.2961 0.56247 0.61414 0.0
C1574 C 0.32363 0.52462 0.68395 0.0
C1575 C 0.3599 0.53614 0.70414 0.0
N1576 N 0.30492 0.55046 0.63576 0.0
N1577 N 0.35101 0.54489 0.67884 0.0
H1578 H 0.24957 0.57469 0.47981 0.0
H1579 H 0.17158 0.58719 0.33788 0.0
H1580 H 0.21212 0.62341 0.46647 0.0
H1581 H 0.19455 0.53158 0.3621 0.0
H1582 H 0.19258 0.60176 0.3782 0.0
H1583 H 0.23477 0.55949 0.43163 0.0
C1584 C 0.23834 0.5822 0.46677 0.0
C1585 C 0.23194 0.60027 0.47748 0.0
C1586 C 0.19329 0.58639 0.37456 0.0
C1587 C 0.21534 0.58323 0.4223 0.0
C1588 C 0.18139 0.57809 0.3513 0.0
C1589 C 0.18133 0.55818 0.34666 0.0
C1590 C 0.20512 0.57472 0.39391 0.0
C1591 C 0.19433 0.54704 0.36477 0.0
C1592 C 0.22993 0.57353 0.43934 0.0
C1593 C 0.21741 0.60939 0.45956 0.0
N1594 N 0.20556 0.55544 0.38803 0.0
N1595 N 0.2097 0.60081 0.43304 0.0
H1596 H 0.13737 0.4579 0.22473 0.0
H1597 H 0.22813 0.44354 0.10998 0.0
H1598 H 0.18425 0.49844 0.22749 0.0
H1599 H 0.17251 0.41789 0.09439 0.0
H1600 H 0.2138 0.4644 0.15206 0.0
H1601 H 0.1516 0.44288 0.17753 0.0
C1602 C 0.15076 0.46365 0.2155 0.0
C1603 C 0.15965 0.47943 0.2304 0.0
C1604 C 0.20472 0.45447 0.13887 0.0
C1605 C 0.17623 0.46208 0.17554 0.0
C1606 C 0.21284 0.44271 0.11468 0.0
C1607 C 0.20148 0.42891 0.09879 0.0
C1608 C 0.1852 0.45225 0.1471 0.0
C1609 C 0.18183 0.42821 0.10619 0.0
C1610 C 0.15885 0.4551 0.18822 0.0
C1611 C 0.17693 0.48626 0.21684 0.0
N1612 N 0.17442 0.43949 0.12992 0.0
N1613 N 0.18478 0.47743 0.19029 0.0
H1614 H 0.25847 0.43265 0.97706 0.0
H1615 H 0.33501 0.41713 0.83373 0.0
H1616 H 0.29593 0.3838 0.9654 0.0
H1617 H 0.31403 0.47362 0.85719 0.0
H1618 H 0.31382 0.40354 0.87475 0.0
H1619 H 0.2729 0.44702 0.92778 0.0
C1620 C 0.26962 0.42494 0.96417 0.0
C1621 C 0.27615 0.40709 0.97569 0.0
C1622 C 0.31356 0.4189 0.87076 0.0
C1623 C 0.29229 0.42313 0.91924 0.0
C1624 C 0.32555 0.42664 0.84708 0.0
C1625 C 0.32625 0.44649 0.84204 0.0
C1626 C 0.30231 0.43109 0.89018 0.0
C1627 C 0.31374 0.45818 0.86014 0.0
C1628 C 0.27782 0.43313 0.93612 0.0
C1629 C 0.29056 0.39768 0.95791 0.0
N1630 N 0.30244 0.45033 0.88386 0.0
N1631 N 0.29804 0.40577 0.93078 0.0
H1632 H 0.24931 0.07626 0.33103 0.0
H1633 H 0.27665 0.1364 0.17572 0.0
H1634 H 0.23294 0.13551 0.32003 0.0
H1635 H 0.25567 0.07865 0.16361 0.0
H1636 H 0.2683 0.13487 0.23346 0.0
H1637 H 0.25814 0.07534 0.27299 0.0
C1638 C 0.24733 0.08892 0.31618 0.0
C1639 C 0.24016 0.10589 0.3299 0.0
C1640 C 0.26575 0.12247 0.21818 0.0
C1641 C 0.25084 0.1052 0.26474 0.0
C1642 C 0.27073 0.12324 0.18547 0.0
C1643 C 0.26694 0.10756 0.16516 0.0
C1644 C 0.25728 0.10578 0.23071 0.0
C1645 C 0.25883 0.09096 0.17873 0.0
C1646 C 0.25239 0.08842 0.28335 0.0
C1647 C 0.23808 0.12209 0.31008 0.0
N1648 N 0.25429 0.09044 0.21085 0.0
N1649 N 0.24366 0.12143 0.27854 0.0
H1650 H 0.16248 0.98241 0.41414 0.0
H1651 H 0.12355 0.02281 0.58185 0.0
H1652 H 0.14002 0.03969 0.42487 0.0
H1653 H 0.16355 0.97549 0.5764 0.0
H1654 H 0.12726 0.02781 0.52379 0.0
H1655 H 0.16117 0.97831 0.47312 0.0
C1656 C 0.15732 0.99413 0.42904 0.0
C1657 C 0.15119 0.01136 0.41482 0.0
C1658 C 0.13528 0.01639 0.53538 0.0
C1659 C 0.14953 0.00677 0.48201 0.0
C1660 C 0.13322 0.01351 0.56865 0.0
C1661 C 0.1434 0.99879 0.58441 0.0
C1662 C 0.14738 0.0043 0.51747 0.0
C1663 C 0.15529 0.98692 0.5655 0.0
C1664 C 0.15665 0.99183 0.46262 0.0
C1665 C 0.14491 0.02624 0.43506 0.0
N1666 N 0.15691 0.98991 0.53301 0.0
N1667 N 0.14403 0.02353 0.4677 0.0
H1668 H 0.23375 0.86999 0.67388 0.0
H1669 H 0.25405 0.92996 0.83208 0.0
H1670 H 0.25221 0.92876 0.66448 0.0
H1671 H 0.274 0.8718 0.82136 0.0
H1672 H 0.24701 0.93092 0.77338 0.0
H1673 H 0.24098 0.87132 0.73211 0.0
C1674 C 0.23889 0.8833 0.68432 0.0
C1675 C 0.24226 0.89936 0.66469 0.0
C1676 C 0.25317 0.91808 0.78395 0.0
C1677 C 0.25065 0.90093 0.73072 0.0
C1678 C 0.25721 0.91756 0.81715 0.0
C1679 C 0.26483 0.90088 0.83114 0.0
C1680 C 0.25618 0.90157 0.76517 0.0
C1681 C 0.26846 0.885 0.8112 0.0
C1682 C 0.24323 0.88397 0.7173 0.0
C1683 C 0.24937 0.91617 0.6791 0.0
N1684 N 0.26383 0.88563 0.77922 0.0
N1685 N 0.25327 0.91659 0.71145 0.0
H1686 H 0.3324 0.00309 0.91317 0.0
H1687 H 0.38854 0.02914 0.07368 0.0
H1688 H 0.39226 0.98919 0.9256 0.0
H1689 H 0.33168 0.00495 0.08033 0.0
H1690 H 0.38864 0.0224 0.01516 0.0
H1691 H 0.3303 0.0106 0.97161 0.0
C1692 C 0.34497 1.0014 0.92841 0.0
C1693 C 0.36243 0.99526 0.91501 0.0
C1694 C 0.37607 0.0188 0.02944 0.0
C1695 C 0.36039 0.00449 0.98069 0.0
C1696 C 0.37592 0.02284 0.06257 0.0
C1697 C 0.36002 0.01767 0.08149 0.0
C1698 C 0.36006 0.0099 0.0152 0.0
C1699 C 0.34414 0.00915 0.06626 0.0
C1700 C 0.3438 0.00572 0.96146 0.0
C1701 C 0.37848 0.99353 0.93533 0.0
N1702 N 0.34449 0.00558 0.03382 0.0
N1703 N 0.37715 0.99837 0.96717 0.0
H1704 H 0.77644 0.87338 0.67453 0.0
H1705 H 0.7438 0.92923 0.83149 0.0
H1706 H 0.74546 0.92652 0.66416 0.0
H1707 H 0.73581 0.86819 0.82234 0.0
H1708 H 0.75109 0.93095 0.7729 0.0
H1709 H 0.76942 0.87371 0.73307 0.0
C1710 C 0.76857 0.88531 0.68485 0.0
C1711 C 0.76156 0.9 0.66494 0.0
C1712 C 0.74751 0.91726 0.78379 0.0
C1713 C 0.75352 0.90048 0.73107 0.0
C1714 C 0.74328 0.91631 0.81688 0.0
C1715 C 0.73887 0.89862 0.83121 0.0
C1716 C 0.748 0.90028 0.76551 0.0
C1717 C 0.73875 0.88211 0.8118 0.0
C1718 C 0.76439 0.88539 0.71795 0.0
C1719 C 0.75109 0.91502 0.67906 0.0
N1720 N 0.74352 0.88329 0.77992 0.0
N1721 N 0.74742 0.91496 0.71145 0.0
H1722 H 0.87457 0.98039 0.41859 0.0
H1723 H 0.84765 0.03133 0.58467 0.0
H1724 H 0.84461 0.03467 0.42195 0.0
H1725 H 0.85973 0.97083 0.57713 0.0
H1726 H 0.84821 0.03377 0.52542 0.0
H1727 H 0.87123 0.97761 0.47697 0.0
C1728 C 0.86711 0.99168 0.43142 0.0
C1729 C 0.85966 0.00773 0.41501 0.0
C1730 C 0.85063 0.01994 0.53669 0.0
C1731 C 0.85619 0.00472 0.48241 0.0
C1732 C 0.85044 0.01857 0.57042 0.0
C1733 C 0.8539 1.00088 0.58559 0.0
C1734 C 0.85455 0.00354 0.5181 0.0
C1735 C 0.85701 0.98468 0.5662 0.0
C1736 C 0.86528 0.99007 0.46491 0.0
C1737 C 0.85069 0.02212 0.43345 0.0
N1738 N 0.85748 0.98643 0.53337 0.0
N1739 N 0.84924 0.02029 0.46623 0.0
H1740 H 0.72481 0.09665 0.33163 0.0
H1741 H 0.75016 0.14534 0.16334 0.0
H1742 H 0.77758 0.1277 0.31651 0.0
H1743 H 0.72091 0.09065 0.16732 0.0
H1744 H 0.7546 0.14397 0.22207 0.0
H1745 H 0.71811 0.09856 0.2731 0.0
C1746 C 0.73498 0.10379 0.31579 0.0
C1747 C 0.75178 0.11198 0.32847 0.0
C1748 C 0.74713 0.13236 0.20994 0.0
C1749 C 0.74403 0.11468 0.26235 0.0
C1750 C 0.74456 0.13309 0.17643 0.0
C1751 C 0.73559 0.11784 0.15998 0.0
C1752 C 0.74024 0.11653 0.22731 0.0
C1753 C 0.728 0.10272 0.17863 0.0
C1754 C 0.73117 0.10488 0.28262 0.0
C1755 C 0.7646 0.12108 0.30732 0.0
N1756 N 0.73058 0.1024 0.21134 0.0
N1757 N 0.76036 0.12239 0.27519 0.0
H1758 H 0.65691 0.02973 0.91223 0.0
H1759 H 0.65473 0.9776 0.0847 0.0
H1760 H 0.6553 0.96824 0.92376 0.0
H1761 H 0.65448 0.03908 0.07256 0.0
H1762 H 0.65753 0.97379 0.02606 0.0
H1763 H 0.65872 0.03334 0.97097 0.0
C1764 C 0.65682 0.01697 0.92722 0.0
C1765 C 0.65553 0.99864 0.91328 0.0
C1766 C 0.65689 0.98812 0.03617 0.0
C1767 C 0.65786 1.00265 0.98052 0.0
C1768 C 0.65513 0.99031 0.06963 0.0
C1769 C 0.65398 0.00871 0.08337 0.0
C1770 C 0.65748 0.00445 0.01629 0.0
C1771 C 0.65525 0.02467 0.06284 0.0
C1772 C 0.65801 0.01903 0.96074 0.0
C1773 C 0.65617 0.98259 0.93369 0.0
N1774 N 0.65678 0.02218 0.03024 0.0
N1775 N 0.65711 0.98496 0.96641 0.0
H1776 H 0.78326 0.58447 0.67179 0.0
H1777 H 0.72091 0.61152 0.82768 0.0
H1778 H 0.73625 0.62501 0.66992 0.0
H1779 H 0.7795 0.59182 0.83432 0.0
H1780 H 0.7234 0.61069 0.76824 0.0
H1781 H 0.77968 0.58209 0.73065 0.0
C1782 C 0.77225 0.59292 0.68356 0.0
C1783 C 0.75997 0.60488 0.66559 0.0
C1784 C 0.73567 0.60648 0.78277 0.0
C1785 C 0.75558 0.60183 0.73278 0.0
C1786 C 0.73419 0.60682 0.81651 0.0
C1787 C 0.75009 0.60196 0.8356 0.0
C1788 C 0.75309 0.60098 0.76826 0.0
C1789 C 0.76706 0.59601 0.82023 0.0
C1790 C 0.77016 0.59144 0.71716 0.0
C1791 C 0.74581 0.61529 0.68241 0.0
N1792 N 0.76814 0.5957 0.78735 0.0
N1793 N 0.74396 0.61345 0.71501 0.0
H1794 H 0.62081 0.47886 0.07097 0.0
H1795 H 0.67822 0.50561 0.91178 0.0
H1796 H 0.67549 0.5075 0.07861 0.0
H1797 H 0.6171 0.51419 0.91964 0.0
H1798 H 0.67964 0.49962 0.97078 0.0
H1799 H 0.62142 0.48392 0.01192 0.0
C1800 C 0.63313 0.48579 0.06 0.0
C1801 C 0.64817 0.49272 0.07929 0.0
C1802 C 0.666 0.50301 0.9595 0.0
C1803 C 0.64895 0.49859 0.01249 0.0
C1804 C 0.66521 0.5065 0.92614 0.0
C1805 C 0.64759 0.51071 0.9113 0.0
C1806 C 0.64893 0.50312 0.97761 0.0
C1807 C 0.63098 0.51138 0.93049 0.0
C1808 C 0.63337 0.48887 0.02657 0.0
C1809 C 0.66369 0.50197 0.06424 0.0
N1810 N 0.63201 0.50738 0.96268 0.0
N1811 N 0.66375 0.50461 0.03156 0.0
H1812 H 0.768 0.42606 0.324 0.0
H1813 H 0.74134 0.36277 0.16837 0.0
H1814 H 0.76175 0.36454 0.32753 0.0
H1815 H 0.73717 0.42446 0.1713 0.0
H1816 H 0.74988 0.36277 0.22613 0.0
H1817 H 0.75926 0.42548 0.26657 0.0
C1818 C 0.76523 0.41238 0.31248 0.0
C1819 C 0.76568 0.39529 0.33046 0.0
C1820 C 0.74685 0.37629 0.21422 0.0
C1821 C 0.75516 0.39455 0.26498 0.0
C1822 C 0.74185 0.37626 0.18141 0.0
C1823 C 0.73842 0.39359 0.16514 0.0
C1824 C 0.74864 0.39383 0.23076 0.0
C1825 C 0.73939 0.41074 0.18297 0.0
C1826 C 0.75994 0.41207 0.27982 0.0
C1827 C 0.76152 0.378 0.31444 0.0
N1828 N 0.74461 0.41044 0.21474 0.0
N1829 N 0.75637 0.37806 0.28262 0.0
H1830 H 0.86772 0.53403 0.58164 0.0
H1831 H 0.84681 0.47166 0.42282 0.0
H1832 H 0.85148 0.47436 0.58556 0.0
H1833 H 0.88159 0.52307 0.42281 0.0
H1834 H 0.84456 0.47383 0.48194 0.0
H1835 H 0.86824 0.5321 0.52216 0.0
C1836 C 0.86415 0.52059 0.56988 0.0
C1837 C 0.85979 0.50429 0.58831 0.0
C1838 C 0.85266 0.48461 0.46883 0.0
C1839 C 0.86033 0.50191 0.52075 0.0
C1840 C 0.85405 0.48334 0.43508 0.0
C1841 C 0.8643 0.49727 0.41753 0.0
C1842 C 0.86143 0.50001 0.4851 0.0
C1843 C 0.87317 0.5122 0.43496 0.0
C1844 C 0.86456 0.51944 0.53608 0.0
C1845 C 0.85529 0.48714 0.5721 0.0
N1846 N 0.87145 0.51321 0.4677 0.0
N1847 N 0.85566 0.48639 0.53918 0.0
H1848 H 0.25873 0.42677 0.16699 0.0
H1849 H 0.22512 0.37047 0.32394 0.0
H1850 H 0.265 0.36552 0.17625 0.0
H1851 H 0.25541 0.42407 0.3339 0.0
H1852 H 0.23138 0.37116 0.26521 0.0
H1853 H 0.25041 0.42859 0.22518 0.0
C1854 C 0.25862 0.41381 0.18151 0.0
C1855 C 0.26289 0.39604 0.16733 0.0
C1856 C 0.23637 0.3829 0.28027 0.0
C1857 C 0.25263 0.39785 0.23258 0.0
C1858 C 0.23261 0.38261 0.31351 0.0
C1859 C 0.23973 0.39728 0.3334 0.0
C1860 C 0.24697 0.39813 0.26698 0.0
C1861 C 0.24971 0.41257 0.31906 0.0
C1862 C 0.25379 0.41482 0.21439 0.0
C1863 C 0.2622 0.37951 0.18665 0.0
N1864 N 0.25306 0.41265 0.28656 0.0
N1865 N 0.25694 0.38077 0.21829 0.0
H1866 H 0.37949 0.48179 0.91618 0.0
H1867 H 0.34129 0.52312 0.08315 0.0
H1868 H 0.3376 0.5275 0.9202 0.0
H1869 H 0.36386 0.46583 0.07324 0.0
H1870 H 0.3417 0.52658 0.02398 0.0
H1871 H 0.37627 0.47748 0.97442 0.0
C1872 C 0.36949 0.49086 0.92914 0.0
C1873 C 0.35861 0.50489 0.91295 0.0
C1874 C 0.34641 0.5132 0.03474 0.0
C1875 C 0.3552 0.50021 0.98006 0.0
C1876 C 0.34626 0.51126 0.06838 0.0
C1877 C 0.35271 0.49422 0.08284 0.0
C1878 C 0.35337 0.49809 0.01556 0.0
C1879 C 0.35874 0.47914 0.06285 0.0
C1880 C 0.36771 0.48838 0.9625 0.0
C1881 C 0.34636 0.51658 0.93151 0.0
N1882 N 0.35915 0.48151 0.03013 0.0
N1883 N 0.34501 0.514 0.96414 0.0
H1884 H 0.24649 0.57815 0.66666 0.0
H1885 H 0.28075 0.63086 0.82629 0.0
H1886 H 0.24207 0.63942 0.6783 0.0
H1887 H 0.24759 0.57885 0.83415 0.0
H1888 H 0.27479 0.63111 0.76751 0.0
H1889 H 0.25381 0.57522 0.72513 0.0
C1890 C 0.24679 0.59088 0.68175 0.0
C1891 C 0.24335 0.60898 0.66817 0.0
C1892 C 0.26907 0.61952 0.78212 0.0
C1893 C 0.25248 0.60591 0.73372 0.0
C1894 C 0.27265 0.61926 0.8154 0.0
C1895 C 0.26466 0.60479 0.8347 0.0
C1896 C 0.25779 0.605 0.76821 0.0
C1897 C 0.25393 0.59021 0.81977 0.0
C1898 C 0.25103 0.58924 0.71478 0.0
C1899 C 0.24424 0.6252 0.68822 0.0
N1900 N 0.2508 0.59063 0.78721 0.0
N1901 N 0.24896 0.62331 0.72 0.0
H1902 H 0.16202 0.53021 0.41947 0.0
H1903 H 0.11286 0.50315 0.58692 0.0
H1904 H 0.13284 0.47638 0.43408 0.0
H1905 H 0.1657 0.53574 0.58334 0.0
H1906 H 0.11494 0.4984 0.52832 0.0
H1907 H 0.15905 0.53706 0.47777 0.0
C1908 C 0.15504 0.51984 0.43513 0.0
C1909 C 0.14769 0.5027 0.42234 0.0
C1910 C 0.12598 0.50666 0.54051 0.0
C1911 C 0.14383 0.51058 0.4883 0.0
C1912 C 0.12485 0.5094 0.57396 0.0
C1913 C 0.13939 0.51945 0.59053 0.0
C1914 C 0.14149 0.51441 0.52329 0.0
C1915 C 0.15417 0.52781 0.57199 0.0
C1916 C 0.15336 0.52374 0.4682 0.0
C1917 C 0.13881 0.48964 0.44333 0.0
N1918 N 0.15488 0.52503 0.53935 0.0
N1919 N 0.13692 0.49394 0.47537 0.0
H1920 H 0.16214 0.11981 0.95748 0.0
H1921 H 0.1768 0.0584 0.79533 0.0
H1922 H 0.21627 0.09465 0.92914 0.0
H1923 H 0.12218 0.08174 0.82551 0.0
H1924 H 0.19157 0.07179 0.84397 0.0
H1925 H 0.14735 0.10643 0.90877 0.0
C1926 C 0.17094 0.11155 0.94094 0.0
C1927 C 0.19048 0.10836 0.94739 0.0
C1928 C 0.17635 0.07398 0.83996 0.0
C1929 C 0.17361 0.09285 0.89169 0.0
C1930 C 0.16787 0.06624 0.81225 0.0
C1931 C 0.14818 0.06888 0.80632 0.0
C1932 C 0.16508 0.08447 0.86196 0.0
C1933 C 0.13743 0.07952 0.82886 0.0
C1934 C 0.16246 0.10382 0.91321 0.0
C1935 C 0.20111 0.09727 0.92535 0.0
N1936 N 0.14602 0.0869 0.85571 0.0
N1937 N 0.19254 0.08994 0.89844 0.0
H1938 H 0.13974 0.9108 0.2028 0.0
H1939 H 0.19796 0.92992 0.03858 0.0
H1940 H 0.16217 0.96617 0.175 0.0
H1941 H 0.17599 0.87437 0.06642 0.0
H1942 H 0.18451 0.94354 0.08812 0.0
H1943 H 0.15226 0.89729 0.15239 0.0
C1944 C 0.1472 0.92014 0.18603 0.0
C1945 C 0.14993 0.93964 0.19317 0.0
C1946 C 0.1826 0.92837 0.08339 0.0
C1947 C 0.16446 0.92425 0.13556 0.0
C1948 C 0.19038 0.92056 0.05517 0.0
C1949 C 0.18818 0.90094 0.0484 0.0
C1950 C 0.17256 0.91649 0.10506 0.0
C1951 C 0.17787 0.88959 0.0705 0.0
C1952 C 0.15444 0.9124 0.15732 0.0
C1953 C 0.15997 0.95101 0.17073 0.0
N1954 N 0.17049 0.89752 0.0979 0.0
N1955 N 0.16687 0.94314 0.14294 0.0
H1956 H 0.32937 0.95742 0.29865 0.0
H1957 H 0.33897 0.87863 0.43715 0.0
H1958 H 0.37923 0.92085 0.30883 0.0
H1959 H 0.30122 0.92775 0.44464 0.0
H1960 H 0.35175 0.89167 0.38686 0.0
H1961 H 0.31666 0.94431 0.34888 0.0
C1962 C 0.33777 0.94674 0.3113 0.0
C1963 C 0.35557 0.9404 0.29919 0.0
C1964 C 0.34068 0.89956 0.39964 0.0
C1965 C 0.34074 0.92504 0.35674 0.0
C1966 C 0.33337 0.89217 0.42855 0.0
C1967 C 0.31891 0.90203 0.4456 0.0
C1968 C 0.33337 0.91684 0.38737 0.0
C1969 C 0.31213 0.9194 0.43248 0.0
C1970 C 0.3304 0.93921 0.34004 0.0
C1971 C 0.36542 0.92615 0.31675 0.0
N1972 N 0.31938 0.92619 0.40413 0.0
N1973 N 0.35785 0.91895 0.34457 0.0
H1974 H 0.34254 0.0401 0.67862 0.0
H1975 H 0.32451 0.13291 0.56856 0.0
H1976 H 0.36559 0.0962 0.70009 0.0
H1977 H 0.30279 0.07661 0.54473 0.0
H1978 H 0.33905 0.11975 0.61752 0.0
H1979 H 0.327 0.05329 0.63037 0.0
C1980 C 0.34424 0.05521 0.67333 0.0
C1981 C 0.3554 0.06706 0.69346 0.0
C1982 C 0.33109 0.11026 0.6016 0.0
C1983 C 0.33781 0.08222 0.63808 0.0
C1984 C 0.32287 0.11775 0.5735 0.0
C1985 C 0.31248 0.10584 0.55235 0.0
C1986 C 0.32894 0.09067 0.6087 0.0
C1987 C 0.31051 0.08637 0.56044 0.0
C1988 C 0.33545 0.06272 0.64566 0.0
C1989 C 0.35735 0.08648 0.68508 0.0
N1990 N 0.31871 0.07938 0.58795 0.0
N1991 N 0.34863 0.09345 0.65805 0.0
H1992 H 0.8 0.92582 0.04897 0.0
H1993 H 0.88163 0.9163 0.1827 0.0
H1994 H 0.8381 0.87687 0.0542 0.0
H1995 H 0.83077 0.95117 0.19543 0.0
H1996 H 0.86807 0.90385 0.13241 0.0
H1997 H 0.81352 0.93766 0.09947 0.0
C1998 C 0.81109 0.91743 0.06059 0.0
C1999 C 0.81776 0.90015 0.04701 0.0
C2000 C 0.85993 0.91422 0.14636 0.0
C2001 C 0.83357 0.914 0.10487 0.0
C2002 C 0.86761 0.92132 0.17523 0.0
C2003 C 0.85743 0.93493 0.19364 0.0
C2004 C 0.84204 0.92092 0.13557 0.0
C2005 C 0.8394 0.94099 0.1821 0.0
C2006 C 0.81886 0.9243 0.0895 0.0
C2007 C 0.83253 0.8903 0.06329 0.0
N2008 N 0.83235 0.93401 0.15376 0.0
N2009 N 0.83997 0.89739 0.09132 0.0
H2010 H 0.80681 0.12714 0.928 0.0
H2011 H 0.86102 0.04729 0.83056 0.0
H2012 H 0.84649 0.08917 0.97616 0.0
H2013 H 0.85517 0.1038 0.78935 0.0
H2014 H 0.85094 0.06007 0.88348 0.0
H2015 H 0.81985 0.11676 0.87525 0.0
C2016 C 0.81835 0.11671 0.9273 0.0
C2017 C 0.82571 0.10898 0.95612 0.0
C2018 C 0.85197 0.06966 0.86285 0.0
C2019 C 0.84022 0.09686 0.89665 0.0
C2020 C 0.85756 0.06239 0.83282 0.0
C2021 C 0.85884 0.0746 0.80594 0.0
C2022 C 0.84717 0.08913 0.8656 0.0
C2023 C 0.85439 0.09407 0.80979 0.0
C2024 C 0.82579 0.11089 0.89745 0.0
C2025 C 0.84063 0.09554 0.95433 0.0
N2026 N 0.84846 0.10076 0.83912 0.0
N2027 N 0.84725 0.08965 0.92498 0.0
H2028 H 0.65748 0.12383 0.54638 0.0
H2029 H 0.67931 0.06635 0.71014 0.0
H2030 H 0.71338 0.10182 0.57231 0.0
H2031 H 0.6226 0.08517 0.68208 0.0
H2032 H 0.69235 0.08103 0.66122 0.0
H2033 H 0.64473 0.11165 0.59763 0.0
C2034 C 0.66709 0.11655 0.56295 0.0
C2035 C 0.6865 0.11375 0.55503 0.0
C2036 C 0.67705 0.08199 0.66577 0.0
C2037 C 0.67201 0.09967 0.61351 0.0
C2038 C 0.66959 0.07352 0.69363 0.0
C2039 C 0.64981 0.07437 0.70003 0.0
C2040 C 0.66466 0.09139 0.6441 0.0
C2041 C 0.63795 0.08427 0.67818 0.0
C2042 C 0.65979 0.10952 0.59212 0.0
C2043 C 0.69827 0.10401 0.57721 0.0
N2044 N 0.64555 0.09232 0.65105 0.0
N2045 N 0.69083 0.0973 0.60544 0.0
H2046 H 0.67793 0.94518 0.29061 0.0
H2047 H 0.65734 0.88875 0.45597 0.0
H2048 H 0.62164 0.92535 0.3191 0.0
H2049 H 0.71347 0.9087 0.42674 0.0
H2050 H 0.64405 0.90119 0.4053 0.0
H2051 H 0.69127 0.93122 0.33992 0.0
C2052 C 0.66835 0.93796 0.30731 0.0
C2053 C 0.64861 0.93655 0.30084 0.0
C2054 C 0.65928 0.90282 0.40997 0.0
C2055 C 0.66382 0.92035 0.35725 0.0
C2056 C 0.66689 0.89564 0.43883 0.0
C2057 C 0.68654 0.89774 0.44566 0.0
C2058 C 0.67142 0.91215 0.38778 0.0
C2059 C 0.6982 0.90704 0.42274 0.0
C2060 C 0.676 0.92989 0.33539 0.0
C2061 C 0.63695 0.92665 0.32302 0.0
N2062 N 0.69045 0.9139 0.39484 0.0
N2063 N 0.64473 0.91898 0.35034 0.0
H2064 H 0.62495 0.59074 0.30534 0.0
H2065 H 0.7052 0.58041 0.44115 0.0
H2066 H 0.67619 0.55641 0.29316 0.0
H2067 H 0.66662 0.629 0.43686 0.0
H2068 H 0.69258 0.56935 0.38952 0.0
H2069 H 0.63806 0.6031 0.35611 0.0
C2070 C 0.63897 0.58585 0.31305 0.0
C2071 C 0.64936 0.57235 0.29476 0.0
C2072 C 0.68695 0.58247 0.39991 0.0
C2073 C 0.66424 0.58625 0.35328 0.0
C2074 C 0.6942 0.5889 0.42948 0.0
C2075 C 0.6871 0.60582 0.4437 0.0
C2076 C 0.67231 0.59285 0.38448 0.0
C2077 C 0.67247 0.61582 0.42728 0.0
C2078 C 0.6464 0.59289 0.34216 0.0
C2079 C 0.66739 0.56645 0.3065 0.0
N2080 N 0.66552 0.60914 0.39861 0.0
N2081 N 0.67418 0.57335 0.33507 0.0
H2082 H 0.6619 0.41696 0.52224 0.0
H2083 H 0.65811 0.40307 0.71233 0.0
H2084 H 0.70536 0.38358 0.57075 0.0
H2085 H 0.64799 0.4584 0.66897 0.0
H2086 H 0.66931 0.39101 0.65935 0.0
H2087 H 0.64991 0.42774 0.57537 0.0
C2088 C 0.6687 0.41175 0.54419 0.0
C2089 C 0.68456 0.39943 0.54249 0.0
C2090 C 0.66462 0.40578 0.66158 0.0
C2091 C 0.67096 0.41138 0.60265 0.0
C2092 C 0.65821 0.41258 0.69153 0.0
C2093 C 0.65228 0.43169 0.69466 0.0
C2094 C 0.66449 0.41808 0.63465 0.0
C2095 C 0.65266 0.44361 0.66731 0.0
C2096 C 0.662 0.41797 0.57427 0.0
C2097 C 0.69313 0.39316 0.57137 0.0
N2098 N 0.65849 0.43656 0.63822 0.0
N2099 N 0.68612 0.3991 0.60047 0.0
H2100 H 0.84749 0.41924 0.98186 0.0
H2101 H 0.85401 0.39995 0.79248 0.0
H2102 H 0.80767 0.38102 0.93447 0.0
H2103 H 0.86247 0.45631 0.83308 0.0
H2104 H 0.84352 0.38842 0.84618 0.0
H2105 H 0.86018 0.42862 0.92854 0.0
C2106 C 0.84167 0.41265 0.96017 0.0
C2107 C 0.82657 0.39941 0.96224 0.0
C2108 C 0.84774 0.40328 0.84321 0.0
C2109 C 0.84096 0.40985 0.90178 0.0
C2110 C 0.85375 0.40979 0.81283 0.0
C2111 C 0.85894 0.42905 0.80868 0.0
C2112 C 0.84748 0.41607 0.86951 0.0
C2113 C 0.85835 0.4414 0.83549 0.0
C2114 C 0.84877 0.41807 0.92993 0.0
C2115 C 0.81926 0.39137 0.93359 0.0
N2116 N 0.85284 0.43466 0.86496 0.0
N2117 N 0.82661 0.39666 0.90437 0.0
H2118 H 0.83365 0.56712 0.21231 0.0
H2119 H 0.85504 0.61949 0.04341 0.0
H2120 H 0.89016 0.58589 0.18302 0.0
H2121 H 0.79885 0.60009 0.07331 0.0
H2122 H 0.86805 0.60874 0.09544 0.0
H2123 H 0.82048 0.58043 0.16234 0.0
C2124 C 0.8433 0.57401 0.19532 0.0
C2125 C 0.86306 0.57525 0.20172 0.0
C2126 C 0.85287 0.60687 0.09061 0.0
C2127 C 0.84807 0.59068 0.14452 0.0
C2128 C 0.84543 0.61308 0.06098 0.0
C2129 C 0.82586 0.61056 0.05391 0.0
C2130 C 0.84063 0.59813 0.11334 0.0
C2131 C 0.81408 0.60199 0.07745 0.0
C2132 C 0.83576 0.5817 0.16686 0.0
C2133 C 0.87483 0.58473 0.17916 0.0
N2134 N 0.82166 0.59605 0.10607 0.0
N2135 N 0.86717 0.59199 0.15144 0.0
H2136 H 0.31209 0.42398 0.53586 0.0
H2137 H 0.36827 0.40325 0.70152 0.0
H2138 H 0.33138 0.36767 0.56485 0.0
H2139 H 0.3476 0.45918 0.67312 0.0
H2140 H 0.35604 0.3901 0.65061 0.0
H2141 H 0.32605 0.43728 0.58523 0.0
C2142 C 0.31921 0.41439 0.55266 0.0
C2143 C 0.32044 0.39464 0.54632 0.0
C2144 C 0.3542 0.40525 0.65551 0.0
C2145 C 0.33664 0.40982 0.6028 0.0
C2146 C 0.36126 0.41279 0.68451 0.0
C2147 C 0.3589 0.43234 0.69164 0.0
C2148 C 0.34474 0.41737 0.63346 0.0
C2149 C 0.34947 0.44398 0.66888 0.0
C2150 C 0.32728 0.42202 0.58078 0.0
C2151 C 0.33022 0.38298 0.56863 0.0
N2152 N 0.34273 0.43631 0.64081 0.0
N2153 N 0.33788 0.39074 0.59598 0.0
H2154 H 0.30341 0.57852 0.45271 0.0
H2155 H 0.38032 0.58678 0.31086 0.0
H2156 H 0.33961 0.6284 0.4398 0.0
H2157 H 0.33045 0.5498 0.30587 0.0
H2158 H 0.36819 0.59991 0.36163 0.0
H2159 H 0.31597 0.56538 0.40238 0.0
C2160 C 0.31389 0.58683 0.4394 0.0
C2161 C 0.32028 0.60476 0.45071 0.0
C2162 C 0.35995 0.58892 0.34928 0.0
C2163 C 0.33502 0.58946 0.39313 0.0
C2164 C 0.36681 0.58142 0.32013 0.0
C2165 C 0.35646 0.56707 0.30367 0.0
C2166 C 0.34273 0.5819 0.36233 0.0
C2167 C 0.33917 0.56059 0.31757 0.0
C2168 C 0.32112 0.57922 0.41063 0.0
C2169 C 0.3343 0.6145 0.43243 0.0
N2170 N 0.33291 0.56801 0.34611 0.0
N2171 N 0.34121 0.60671 0.40457 0.0
H2172 H 0.17283 0.63333 0.06565 0.0
H2173 H 0.1626 0.54047 0.17844 0.0
H2174 H 0.19571 0.57765 0.04085 0.0
H2175 H 0.13894 0.59587 0.20286 0.0
H2176 H 0.17466 0.55382 0.12763 0.0
H2177 H 0.15956 0.61972 0.11546 0.0
C2178 C 0.17493 0.61822 0.07054 0.0
C2179 C 0.18548 0.60664 0.04913 0.0
C2180 C 0.16681 0.56306 0.14409 0.0
C2181 C 0.17055 0.59102 0.10622 0.0
C2182 C 0.16004 0.55547 0.17321 0.0
C2183 C 0.14978 0.56709 0.19496 0.0
C2184 C 0.16334 0.58242 0.13669 0.0
C2185 C 0.14658 0.58635 0.18664 0.0
C2186 C 0.16746 0.61048 0.09908 0.0
C2187 C 0.18797 0.58719 0.05691 0.0
N2188 N 0.15337 0.59343 0.15818 0.0
N2189 N 0.18059 0.58001 0.08486 0.0
H2190 H 0.13452 0.44923 0.8237 0.0
H2191 H 0.21684 0.39797 0.92195 0.0
H2192 H 0.1751 0.41215 0.77571 0.0
H2193 H 0.15962 0.40131 0.96152 0.0
H2194 H 0.20435 0.40891 0.86927 0.0
H2195 H 0.14589 0.43717 0.87651 0.0
C2196 C 0.14576 0.43849 0.82445 0.0
C2197 C 0.15388 0.43151 0.79565 0.0
C2198 C 0.19457 0.40721 0.88954 0.0
C2199 C 0.16713 0.41816 0.85523 0.0
C2200 C 0.20167 0.40115 0.91945 0.0
C2201 C 0.18916 0.39879 0.94577 0.0
C2202 C 0.17494 0.41138 0.88636 0.0
C2203 C 0.1696 0.40289 0.94155 0.0
C2204 C 0.15217 0.43162 0.85435 0.0
C2205 C 0.16841 0.41765 0.79753 0.0
N2206 N 0.16306 0.40921 0.91237 0.0
N2207 N 0.17479 0.41156 0.82692 0.0
H2208 H 0.27588 0.20641 0.06501 0.0
H2209 H 0.23601 0.30149 0.97877 0.0
H2210 H 0.23826 0.2052 0.98174 0.0
H2211 H 0.26997 0.30119 0.06642 0.0
H2212 H 0.23983 0.26655 0.97501 0.0
H2213 H 0.27697 0.24134 0.06152 0.0
C2214 C 0.26791 0.2135 0.04586 0.0
C2215 C 0.2568 0.20284 0.02385 0.0
C2216 C 0.24657 0.27417 0.99491 0.0
C2217 C 0.25798 0.24299 0.01966 0.0
C2218 C 0.24449 0.29412 0.99696 0.0
C2219 C 0.25253 0.30425 0.02313 0.0
C2220 C 0.25684 0.26431 0.01912 0.0
C2221 C 0.26324 0.29393 0.04614 0.0
C2222 C 0.26857 0.23347 0.04382 0.0
C2223 C 0.24707 0.21282 -0.00085 0.0
N2224 N 0.26499 0.27458 0.04368 0.0
N2225 N 0.24773 0.23234 0.99791 0.0
H2226 H 0.95787 0.97144 0.31202 0.0
H2227 H 0.05334 0.01848 0.23741 0.0
H2228 H 0.95572 0.01512 0.23792 0.0
H2229 H 0.05209 0.97564 0.313 0.0
H2230 H 0.01803 0.01672 0.23407 0.0
H2231 H 0.99272 0.97201 0.30962 0.0
C2232 C 0.96477 0.98125 0.29528 0.0
C2233 C 0.95384 0.99349 0.27555 0.0
C2234 C 0.02555 0.00773 0.25134 0.0
C2235 C 0.99408 0.99415 0.27242 0.0
C2236 C 0.04567 0.00869 0.25319 0.0
C2237 C 0.05568 0.99743 0.2759 0.0
C2238 C 0.01545 0.9953 0.27216 0.0
C2239 C 0.04502 0.98495 0.2957 0.0
C2240 C 0.98474 0.98151 0.29379 0.0
C2241 C 0.96362 0.0055 0.25365 0.0
N2242 N 0.02559 0.98429 0.29341 0.0
N2243 N 0.98323 0.00566 0.25285 0.0
H2244 H 0.24069 0.70504 0.4952 0.0
H2245 H 0.28873 0.80204 0.56093 0.0
H2246 H 0.29016 0.70769 0.55825 0.0
H2247 H 0.24135 0.80225 0.49336 0.0
H2248 H 0.28977 0.76723 0.55794 0.0
H2249 H 0.2411 0.74028 0.49145 0.0
C2250 C 0.2517 0.71301 0.50803 0.0
C2251 C 0.26522 0.70342 0.5275 0.0
C2252 C 0.27913 0.77479 0.54364 0.0
C2253 C 0.26574 0.74359 0.52341 0.0
C2254 C 0.27846 0.79471 0.5455 0.0
C2255 C 0.26474 0.80506 0.52774 0.0
C2256 C 0.26591 0.76494 0.52396 0.0
C2257 C 0.25213 0.7948 0.50751 0.0
C2258 C 0.25188 0.73309 0.50597 0.0
C2259 C 0.27916 0.71445 0.5436 0.0
N2260 N 0.25289 0.77525 0.50636 0.0
N2261 N 0.27898 0.73386 0.54132 0.0
H2262 H 0.45825 0.98592 0.81357 0.0
H2263 H 0.55506 0.02361 0.73073 0.0
H2264 H 0.45865 0.02267 0.72932 0.0
H2265 H 0.55348 0.98285 0.80957 0.0
H2266 H 0.52 0.02178 0.72691 0.0
H2267 H 0.49315 0.98314 0.80997 0.0
C2268 C 0.4657 0.99334 0.79418 0.0
C2269 C 0.45552 0.00468 0.77188 0.0
C2270 C 0.52734 0.0131 0.74483 0.0
C2271 C 0.49564 1.00161 0.76761 0.0
C2272 C 0.54741 0.01403 0.7469 0.0
C2273 C 0.55731 0.00348 0.77071 0.0
C2274 C 0.51705 1.00158 0.76678 0.0
C2275 C 0.5465 0.99152 0.79123 0.0
C2276 C 0.48565 0.9917 0.79206 0.0
C2277 C 0.46591 0.01372 0.74696 0.0
N2278 N 0.52701 0.99102 0.78895 0.0
N2279 N 0.48542 0.01217 0.7457 0.0
H2280 H 0.26807 0.80215 0.00428 0.0
H2281 H 0.22593 0.70583 0.9251 0.0
H2282 H 0.22507 0.80023 0.92881 0.0
H2283 H 0.26569 0.70487 0.0055 0.0
H2284 H 0.22585 0.74066 0.92694 0.0
H2285 H 0.26755 0.76687 0.00648 0.0
C2286 C 0.25849 0.79435 0.98829 0.0
C2287 C 0.24682 0.8042 0.96596 0.0
C2288 C 0.23463 0.73293 0.94426 0.0
C2289 C 0.2462 0.76394 0.96829 0.0
C2290 C 0.23479 0.71297 0.94304 0.0
C2291 C 0.24605 0.70236 0.96488 0.0
C2292 C 0.24584 0.74258 0.96746 0.0
C2293 C 0.25681 0.71248 0.98819 0.0
C2294 C 0.25825 0.77423 0.98949 0.0
C2295 C 0.23469 0.79332 0.94583 0.0
N2296 N 0.25654 0.73205 0.98875 0.0
N2297 N 0.23477 0.77388 0.94741 0.0
H2298 H 0.55177 0.0255 0.18401 0.0
H2299 H 0.45527 0.98366 0.26305 0.0
H2300 H 0.55154 0.98447 0.26246 0.0
H2301 H 0.45636 0.02434 0.18409 0.0
H2302 H 0.49032 0.9859 0.26685 0.0
H2303 H 0.51679 0.02727 0.18712 0.0
C2304 C 0.54436 0.01692 0.20202 0.0
C2305 C 0.55465 0.0047 0.22282 0.0
C2306 C 0.48287 0.99444 0.24885 0.0
C2307 C 0.51442 0.00666 0.22655 0.0
C2308 C 0.46282 0.99326 0.2468 0.0
C2309 C 0.4528 0.00372 0.22304 0.0
C2310 C 0.49302 0.00618 0.22702 0.0
C2311 C 0.46346 0.01575 0.20241 0.0
C2312 C 0.52436 0.01798 0.20385 0.0
C2313 C 0.54425 0.99418 0.24605 0.0
N2314 N 0.48293 0.01657 0.20477 0.0
N2315 N 0.52472 0.99526 0.24709 0.0
H2316 H 0.26655 0.20178 0.51626 0.0
H2317 H 0.22793 0.29895 0.43529 0.0
H2318 H 0.22976 0.20376 0.43198 0.0
H2319 H 0.27012 0.29775 0.51209 0.0
H2320 H 0.2252 0.2641 0.43874 0.0
H2321 H 0.26464 0.23682 0.52022 0.0
C2322 C 0.25784 0.20955 0.49889 0.0
C2323 C 0.24841 0.19983 0.4736 0.0
C2324 C 0.23496 0.27144 0.45503 0.0
C2325 C 0.24631 0.23993 0.47781 0.0
C2326 C 0.23657 0.29137 0.453 0.0
C2327 C 0.24943 0.30133 0.47318 0.0
C2328 C 0.2463 0.26128 0.47738 0.0
C2329 C 0.25995 0.29072 0.49614 0.0
C2330 C 0.25686 0.22957 0.50103 0.0
C2331 C 0.2375 0.21068 0.45157 0.0
N2332 N 0.25828 0.27127 0.49742 0.0
N2333 N 0.23683 0.23011 0.4541 0.0
H2334 H 0.04824 0.02481 0.77126 0.0
H2335 H 0.95091 0.98561 0.69101 0.0
H2336 H 0.0462 0.98429 0.6921 0.0
H2337 H 0.95191 0.02771 0.76783 0.0
H2338 H 0.98575 0.98253 0.6953 0.0
H2339 H 0.0131 0.02347 0.77489 0.0
C2340 C 0.04045 0.01539 0.75499 0.0
C2341 C 0.05022 0.00476 0.73115 0.0
C2342 C 0.97838 0.99236 0.71143 0.0
C2343 C 0.00994 0.00334 0.73491 0.0
C2344 C 0.95846 0.99416 0.70891 0.0
C2345 C 0.94843 0.00709 0.72886 0.0
C2346 C 0.98852 0.00361 0.73398 0.0
C2347 C 0.95899 0.01751 0.75203 0.0
C2348 C 0.02036 0.01474 0.75692 0.0
C2349 C 0.03929 0.99298 0.7105 0.0
N2350 N 0.97847 0.01568 0.75374 0.0
N2351 N 0.0198 0.99269 0.71273 0.0
H2352 H 0.74073 0.80077 0.00367 0.0
H2353 H 0.78668 0.70544 0.92717 0.0
H2354 H 0.78448 0.79988 0.92943 0.0
H2355 H 0.74525 0.70358 0.00504 0.0
H2356 H 0.78594 0.74027 0.92893 0.0
H2357 H 0.74226 0.76553 0.00629 0.0
C2358 C 0.7507 0.7932 0.98805 0.0
C2359 C 0.76229 0.80333 0.96594 0.0
C2360 C 0.77697 0.73234 0.94571 0.0
C2361 C 0.76407 0.7631 0.96875 0.0
C2362 C 0.77729 0.71238 0.94455 0.0
C2363 C 0.76579 0.70151 0.96567 0.0
C2364 C 0.76503 0.74174 0.96814 0.0
C2365 C 0.75433 0.71139 0.98829 0.0
C2366 C 0.75152 0.7731 0.98948 0.0
C2367 C 0.77492 0.79275 0.94628 0.0
N2368 N 0.75413 0.73097 0.98881 0.0
N2369 N 0.7754 0.77331 0.94808 0.0
H2370 H 0.77095 0.20792 0.42995 0.0
H2371 H 0.7345 0.30413 0.51716 0.0
H2372 H 0.73301 0.20781 0.51284 0.0
H2373 H 0.76501 0.30273 0.42602 0.0
H2374 H 0.73768 0.26911 0.52093 0.0
H2375 H 0.77275 0.24283 0.43314 0.0
C2376 C 0.76306 0.21523 0.44894 0.0
C2377 C 0.75163 0.20488 0.47091 0.0
C2378 C 0.7438 0.2765 0.50025 0.0
C2379 C 0.75368 0.245 0.47481 0.0
C2380 C 0.7421 0.29649 0.4982 0.0
C2381 C 0.74937 0.30633 0.4711 0.0
C2382 C 0.75297 0.26634 0.47515 0.0
C2383 C 0.75894 0.29569 0.4471 0.0
C2384 C 0.76413 0.23519 0.45081 0.0
C2385 C 0.74206 0.21515 0.49545 0.0
N2386 N 0.76039 0.27631 0.44963 0.0
N2387 N 0.74316 0.23465 0.49657 0.0
H2388 H 0.79877 0.20725 0.04972 0.0
H2389 H 0.74312 0.30379 0.00107 0.0
H2390 H 0.74423 0.20682 -9e-05 0.0
H2391 H 0.79737 0.30192 0.05173 0.0
H2392 H 0.74397 0.26863 0.99628 0.0
H2393 H 0.79918 0.24213 0.04675 0.0
C2394 C 0.78683 0.21452 0.03816 0.0
C2395 C 0.7713 0.20408 0.02548 0.0
C2396 C 0.75571 0.27596 0.00831 0.0
C2397 C 0.7717 0.24428 0.02181 0.0
C2398 C 0.75527 0.29602 0.01093 0.0
C2399 C 0.77006 0.30582 0.02724 0.0
C2400 C 0.7711 0.26566 0.02194 0.0
C2401 C 0.78543 0.29499 0.03961 0.0
C2402 C 0.78711 0.23449 0.03633 0.0
C2403 C 0.75648 0.21431 0.01004 0.0
N2404 N 0.78549 0.27558 0.03682 0.0
N2405 N 0.75695 0.23386 0.00889 0.0
H2406 H 0.72345 0.79958 0.5729 0.0
H2407 H 0.76452 0.7031 0.49274 0.0
H2408 H 0.76372 0.80032 0.49324 0.0
H2409 H 0.7214 0.70514 0.56796 0.0
H2410 H 0.76444 0.73839 0.49103 0.0
H2411 H 0.72283 0.76474 0.57054 0.0
C2412 C 0.73232 0.79239 0.55502 0.0
C2413 C 0.74386 0.80293 0.53352 0.0
C2414 C 0.75501 0.73106 0.50785 0.0
C2415 C 0.74303 0.76274 0.53034 0.0
C2416 C 0.75499 0.71093 0.50875 0.0
C2417 C 0.74317 0.70111 0.53088 0.0
C2418 C 0.74306 0.74138 0.52915 0.0
C2419 C 0.73112 0.71202 0.55108 0.0
C2420 C 0.73184 0.77244 0.5535 0.0
C2421 C 0.75462 0.79277 0.51028 0.0
N2422 N 0.73145 0.73147 0.54979 0.0
N2423 N 0.75403 0.77321 0.50941 0.0
H2424 H 0.55387 0.50947 0.73659 0.0
H2425 H 0.45628 0.46479 0.80717 0.0
H2426 H 0.55068 0.46265 0.80489 0.0
H2427 H 0.45631 0.51091 0.73735 0.0
H2428 H 0.49108 0.46322 0.80375 0.0
H2429 H 0.51853 0.50956 0.7333 0.0
C2430 C 0.54577 0.49913 0.75067 0.0
C2431 C 0.55525 0.48623 0.77143 0.0
C2432 C 0.48359 0.47371 0.78906 0.0
C2433 C 0.51495 0.48627 0.76786 0.0
C2434 C 0.46366 0.47468 0.79116 0.0
C2435 C 0.45336 0.48822 0.77293 0.0
C2436 C 0.49355 0.48642 0.76863 0.0
C2437 C 0.46371 0.5003 0.75192 0.0
C2438 C 0.52562 0.49924 0.74888 0.0
C2439 C 0.54403 0.47316 0.78914 0.0
N2440 N 0.48329 0.49924 0.75053 0.0
N2441 N 0.52458 0.47359 0.78704 0.0
H2442 H 0.05421 0.48074 0.31285 0.0
H2443 H 0.9595 0.52529 0.23325 0.0
H2444 H 0.05544 0.52171 0.23438 0.0
H2445 H 0.95895 0.48153 0.30739 0.0
H2446 H 0.99443 0.52201 0.22936 0.0
H2447 H 0.01929 0.47882 0.3077 0.0
C2448 C 0.04713 0.48923 0.29436 0.0
C2449 C 0.05776 0.50151 0.2742 0.0
C2450 C 0.98664 0.51298 0.24624 0.0
C2451 C 0.01768 0.49947 0.26819 0.0
C2452 C 0.96666 0.51475 0.24832 0.0
C2453 C 0.95625 0.5038 0.27093 0.0
C2454 C 0.99632 0.5002 0.26696 0.0
C2455 C 0.9664 0.49054 0.29007 0.0
C2456 C 0.02718 0.4881 0.29136 0.0
C2457 C 0.04784 0.51198 0.25034 0.0
N2458 N 0.98583 0.48924 0.28785 0.0
N2459 N 0.02835 0.51089 0.24824 0.0
H2460 H 0.05296 0.50964 0.75878 0.0
H2461 H 0.95672 0.45903 0.69579 0.0
H2462 H 0.05126 0.45705 0.7035 0.0
H2463 H 0.95558 0.50671 0.76253 0.0
H2464 H 0.99159 0.4582 0.69978 0.0
H2465 H 0.01769 0.5088 0.76257 0.0
C2466 C 0.04521 0.49783 0.74774 0.0
C2467 C 0.0551 0.48357 0.73032 0.0
C2468 C 0.98381 0.46884 0.71373 0.0
C2469 C 0.01482 0.4826 0.73436 0.0
C2470 C 0.96386 0.46938 0.7113 0.0
C2471 C 0.95324 0.48312 0.72852 0.0
C2472 C 0.99342 0.48224 0.73337 0.0
C2473 C 0.96326 0.49591 0.74879 0.0
C2474 C 0.02509 0.49741 0.7498 0.0
C2475 C 0.04429 0.46864 0.71646 0.0
N2476 N 0.98284 0.4953 0.75042 0.0
N2477 N 0.02483 0.46864 0.71859 0.0
H2478 H 0.4534 0.48993 0.25518 0.0
H2479 H 0.54831 0.53417 0.17405 0.0
H2480 H 0.45386 0.53139 0.17736 0.0
H2481 H 0.55074 0.4934 0.25278 0.0
H2482 H 0.51345 0.5336 0.17679 0.0
H2483 H 0.48872 0.49139 0.25687 0.0
C2484 C 0.4609 0.49936 0.23856 0.0
C2485 C 0.45064 0.51033 0.21575 0.0
C2486 C 0.52151 0.52474 0.19355 0.0
C2487 C 0.49092 0.51206 0.21754 0.0
C2488 C 0.54148 0.52497 0.19184 0.0
C2489 C 0.55249 0.51359 0.21289 0.0
C2490 C 0.51227 0.51301 0.21647 0.0
C2491 C 0.54279 0.50238 0.23606 0.0
C2492 C 0.48103 0.50014 0.23947 0.0
C2493 C 0.46111 0.5223 0.1948 0.0
N2494 N 0.5232 0.50226 0.23711 0.0
N2495 N 0.48057 0.52279 0.19617 0.0
loop_
_geom_bond_atom_site_label_1
_geom_bond_atom_site_label_2
_geom_bond_distance
_geom_bond_site_symmetry_2
_ccdc_geom_bond_type
C0 C1 1.351 1_554 S
C0 N3 1.368 . S
C0 H5 0.931 . S
C1 C0 1.351 1_556 S
C1 N2 1.373 . S
C1 H29 0.930 . S
N2 C1 1.373 . S
N2 C4 1.340 . S
N3 C0 1.368 . S
N3 C4 1.321 1_554 S
N3 Co6 2.135 . S
C4 N2 1.340 . S
C4 N3 1.321 1_556 S
C4 H28 0.930 . S
H5 C0 0.931 . S
Co6 N3 2.135 . S
Co6 N9 2.121 . S
Co6 O14 2.055 . S
Co6 O17 2.039 . S
Co6 N20 2.140 . S
C7 O8 1.227 . S
C7 O17 1.265 . S
O8 C7 1.227 . S
N9 Co6 2.121 . S
N9 C11 1.375 . S
N9 C12 1.313 . S
C10 C11 1.338 . S
C10 N13 1.377 . S
C10 H30 0.930 . S
C11 N9 1.375 . S
C11 C10 1.338 . S
C11 H15 0.931 . S
C12 N9 1.313 . S
C12 N13 1.344 . S
C12 H16 0.930 . S
N13 C10 1.377 . S
N13 C12 1.344 . S
O14 Co6 2.055 . S
O14 C18 1.253 . S
H15 C11 0.931 . S
H16 C12 0.930 . S
O17 Co6 2.039 . S
O17 C7 1.265 . S
C18 O14 1.253 . S
C18 O19 1.227 . S
O19 C18 1.227 . S
N20 Co6 2.140 . S
N20 C23 1.346 . S
N20 C24 1.345 . S
C21 C22 1.387 . S
C21 C25 1.391 . S
C22 C21 1.387 . S
C22 C23 1.369 . S
C22 H31 0.929 . S
C23 N20 1.346 . S
C23 C22 1.369 . S
C23 H26 0.928 . S
C24 N20 1.345 . S
C24 C25 1.371 . S
C24 H27 0.931 . S
C25 C21 1.391 . S
C25 C24 1.371 . S
C25 H32 0.930 . S
H26 C23 0.928 . S
H27 C24 0.931 . S
H28 C4 0.930 . S
H29 C1 0.930 . S
H30 C10 0.930 . S
H31 C22 0.929 . S
H32 C25 0.930 . S
C33 C34 1.351 . S
C33 N36 1.368 . S
C33 H38 0.931 . S
C34 C33 1.351 . S
C34 N35 1.373 . S
C34 H62 0.930 . S
N35 C34 1.373 . S
N35 C37 1.340 . S
N36 C33 1.368 . S
N36 C37 1.321 . S
N36 Co39 2.135 . S
C37 N35 1.340 . S
C37 N36 1.321 . S
C37 H61 0.930 . S
H38 C33 0.931 . S
Co39 N36 2.135 . S
Co39 N42 2.121 . S
Co39 O47 2.055 . S
Co39 O50 2.039 . S
Co39 N53 2.140 . S
C40 O41 1.227 . S
C40 O50 1.265 . S
O41 C40 1.227 . S
N42 Co39 2.121 . S
N42 C44 1.375 . S
N42 C45 1.313 . S
C43 C44 1.338 . S
C43 N46 1.377 . S
C43 H63 0.930 1_565 S
C44 N42 1.375 . S
C44 C43 1.338 . S
C44 H48 0.931 . S
C45 N42 1.313 . S
C45 N46 1.344 . S
C45 H49 0.930 . S
N46 C43 1.377 . S
N46 C45 1.344 . S
O47 Co39 2.055 . S
O47 C51 1.253 . S
H48 C44 0.931 . S
H49 C45 0.930 . S
O50 Co39 2.039 . S
O50 C40 1.265 . S
C51 O47 1.253 . S
C51 O52 1.227 . S
O52 C51 1.227 . S
N53 Co39 2.140 . S
N53 C56 1.346 . S
N53 C57 1.345 . S
C54 C55 1.387 . S
C54 C58 1.391 . S
C55 C54 1.387 . S
C55 C56 1.369 . S
C55 H64 0.929 . S
C56 N53 1.346 . S
C56 C55 1.369 . S
C56 H59 0.928 . S
C57 N53 1.345 . S
C57 C58 1.371 . S
C57 H60 0.931 . S
C58 C54 1.391 . S
C58 C57 1.371 . S
C58 H65 0.930 . S
H59 C56 0.928 . S
H60 C57 0.931 . S
H61 C37 0.930 . S
H62 C34 0.930 . S
H63 C43 0.930 1_545 S
H64 C55 0.929 . S
H65 C58 0.930 . S
C66 C67 1.351 . S
C66 N69 1.368 . S
C66 H71 0.931 . S
C67 C66 1.351 . S
C67 N68 1.373 . S
C67 H95 0.930 . S
N68 C67 1.373 . S
N68 C70 1.340 . S
N69 C66 1.368 . S
N69 C70 1.321 . S
N69 Co72 2.135 . S
C70 N68 1.340 . S
C70 N69 1.321 . S
C70 H94 0.930 . S
H71 C66 0.931 . S
Co72 N69 2.135 . S
Co72 N75 2.121 . S
Co72 O80 2.055 . S
Co72 O83 2.039 . S
Co72 N86 2.140 . S
C73 O74 1.227 . S
C73 O83 1.265 . S
O74 C73 1.227 . S
N75 Co72 2.121 . S
N75 C77 1.375 . S
N75 C78 1.313 . S
C76 C77 1.338 . S
C76 N79 1.377 . S
C76 H96 0.930 . S
C77 N75 1.375 . S
C77 C76 1.338 . S
C77 H81 0.931 . S
C78 N75 1.313 . S
C78 N79 1.344 . S
C78 H82 0.930 . S
N79 C76 1.377 . S
N79 C78 1.344 . S
O80 Co72 2.055 . S
O80 C84 1.253 . S
H81 C77 0.931 . S
H82 C78 0.930 . S
O83 Co72 2.039 . S
O83 C73 1.265 . S
C84 O80 1.253 . S
C84 O85 1.227 . S
O85 C84 1.227 . S
N86 Co72 2.140 . S
N86 C89 1.346 . S
N86 C90 1.345 . S
C87 C88 1.387 . S
C87 C91 1.391 . S
C88 C87 1.387 . S
C88 C89 1.369 . S
C88 H97 0.929 . S
C89 N86 1.346 . S
C89 C88 1.369 . S
C89 H92 0.928 . S
C90 N86 1.345 . S
C90 C91 1.371 . S
C90 H93 0.931 . S
C91 C87 1.391 . S
C91 C90 1.371 . S
C91 H98 0.930 . S
H92 C89 0.928 . S
H93 C90 0.931 . S
H94 C70 0.930 . S
H95 C67 0.930 . S
H96 C76 0.930 . S
H97 C88 0.929 . S
H98 C91 0.930 . S
C99 C100 1.351 . S
C99 N102 1.368 . S
C99 H104 0.931 . S
C100 C99 1.351 . S
C100 N101 1.373 . S
C100 H128 0.930 . S
N101 C100 1.373 . S
N101 C103 1.340 . S
N102 C99 1.368 . S
N102 C103 1.321 . S
N102 Co105 2.135 . S
C103 N101 1.340 . S
C103 N102 1.321 . S
C103 H127 0.930 . S
H104 C99 0.931 . S
Co105 N102 2.135 . S
Co105 N108 2.121 . S
Co105 O113 2.055 . S
Co105 O116 2.039 . S
Co105 N119 2.140 . S
C106 O107 1.227 . S
C106 O116 1.265 . S
O107 C106 1.227 . S
N108 Co105 2.121 . S
N108 C110 1.375 . S
N108 C111 1.313 . S
C109 C110 1.338 . S
C109 N112 1.377 . S
C109 H129 0.930 1_545 S
C110 N108 1.375 . S
C110 C109 1.338 . S
C110 H114 0.931 . S
C111 N108 1.313 . S
C111 N112 1.344 . S
C111 H115 0.930 . S
N112 C109 1.377 . S
N112 C111 1.344 . S
O113 Co105 2.055 . S
O113 C117 1.253 . S
H114 C110 0.931 . S
H115 C111 0.930 . S
O116 Co105 2.039 . S
O116 C106 1.265 . S
C117 O113 1.253 . S
C117 O118 1.227 . S
O118 C117 1.227 . S
N119 Co105 2.140 . S
N119 C122 1.346 . S
N119 C123 1.345 . S
C120 C121 1.387 . S
C120 C124 1.391 . S
C121 C120 1.387 . S
C121 C122 1.369 . S
C121 H130 0.929 . S
C122 N119 1.346 . S
C122 C121 1.369 . S
C122 H125 0.928 . S
C123 N119 1.345 . S
C123 C124 1.371 . S
C123 H126 0.931 . S
C124 C120 1.391 . S
C124 C123 1.371 . S
C124 H131 0.930 . S
H125 C122 0.928 . S
H126 C123 0.931 . S
H127 C103 0.930 . S
H128 C100 0.930 . S
H129 C109 0.930 1_565 S
H130 C121 0.929 . S
H131 C124 0.930 . S
C132 C133 1.351 1_556 S
C132 N135 1.368 . S
C132 H137 0.931 . S
C133 C132 1.351 1_554 S
C133 N134 1.373 . S
C133 H161 0.930 . S
N134 C133 1.373 . S
N134 C136 1.340 . S
N135 C132 1.368 . S
N135 C136 1.321 1_556 S
N135 Co138 2.135 . S
C136 N134 1.340 . S
C136 N135 1.321 1_554 S
C136 H160 0.930 . S
H137 C132 0.931 . S
Co138 N135 2.135 . S
Co138 N141 2.121 . S
Co138 O146 2.055 . S
Co138 O149 2.039 . S
Co138 N152 2.140 . S
C139 O140 1.227 . S
C139 O149 1.265 . S
O140 C139 1.227 . S
N141 Co138 2.121 . S
N141 C143 1.375 . S
N141 C144 1.313 . S
C142 C143 1.338 . S
C142 N145 1.377 . S
C142 H162 0.930 . S
C143 N141 1.375 . S
C143 C142 1.338 . S
C143 H147 0.931 . S
C144 N141 1.313 . S
C144 N145 1.344 . S
C144 H148 0.930 . S
N145 C142 1.377 . S
N145 C144 1.344 . S
O146 Co138 2.055 . S
O146 C150 1.253 . S
H147 C143 0.931 . S
H148 C144 0.930 . S
O149 Co138 2.039 . S
O149 C139 1.265 . S
C150 O146 1.253 . S
C150 O151 1.227 . S
O151 C150 1.227 . S
N152 Co138 2.140 . S
N152 C155 1.346 . S
N152 C156 1.345 . S
C153 C154 1.387 . S
C153 C157 1.391 . S
C154 C153 1.387 . S
C154 C155 1.369 . S
C154 H163 0.929 . S
C155 N152 1.346 . S
C155 C154 1.369 . S
C155 H158 0.928 . S
C156 N152 1.345 . S
C156 C157 1.371 . S
C156 H159 0.931 . S
C157 C153 1.391 . S
C157 C156 1.371 . S
C157 H164 0.930 . S
H158 C155 0.928 . S
H159 C156 0.931 . S
H160 C136 0.930 . S
H161 C133 0.930 . S
H162 C142 0.930 . S
H163 C154 0.929 . S
H164 C157 0.930 . S
C165 C166 1.351 . S
C165 N168 1.368 . S
C165 H170 0.931 . S
C166 C165 1.351 . S
C166 N167 1.373 . S
C166 H194 0.930 . S
N167 C166 1.373 . S
N167 C169 1.340 . S
N168 C165 1.368 . S
N168 C169 1.321 . S
N168 Co171 2.135 . S
C169 N167 1.340 . S
C169 N168 1.321 . S
C169 H193 0.930 . S
H170 C165 0.931 . S
Co171 N168 2.135 . S
Co171 N174 2.121 . S
Co171 O179 2.055 . S
Co171 O182 2.039 . S
Co171 N185 2.140 . S
C172 O173 1.227 . S
C172 O182 1.265 . S
O173 C172 1.227 . S
N174 Co171 2.121 . S
N174 C176 1.375 . S
N174 C177 1.313 . S
C175 C176 1.338 . S
C175 N178 1.377 . S
C175 H195 0.930 1_565 S
C176 N174 1.375 . S
C176 C175 1.338 . S
C176 H180 0.931 . S
C177 N174 1.313 . S
C177 N178 1.344 . S
C177 H181 0.930 . S
N178 C175 1.377 . S
N178 C177 1.344 . S
O179 Co171 2.055 . S
O179 C183 1.253 . S
H180 C176 0.931 . S
H181 C177 0.930 . S
O182 Co171 2.039 . S
O182 C172 1.265 . S
C183 O179 1.253 . S
C183 O184 1.227 . S
O184 C183 1.227 . S
N185 Co171 2.140 . S
N185 C188 1.346 . S
N185 C189 1.345 . S
C186 C187 1.387 . S
C186 C190 1.391 . S
C187 C186 1.387 . S
C187 C188 1.369 . S
C187 H196 0.929 . S
C188 N185 1.346 . S
C188 C187 1.369 . S
C188 H191 0.928 . S
C189 N185 1.345 . S
C189 C190 1.371 . S
C189 H192 0.931 . S
C190 C186 1.391 . S
C190 C189 1.371 . S
C190 H197 0.930 . S
H191 C188 0.928 . S
H192 C189 0.931 . S
H193 C169 0.930 . S
H194 C166 0.930 . S
H195 C175 0.930 1_545 S
H196 C187 0.929 . S
H197 C190 0.930 . S
C198 C199 1.351 . S
C198 N201 1.368 . S
C198 H203 0.931 . S
C199 C198 1.351 . S
C199 N200 1.373 . S
C199 H227 0.930 . S
N200 C199 1.373 . S
N200 C202 1.340 . S
N201 C198 1.368 . S
N201 C202 1.321 . S
N201 Co204 2.135 . S
C202 N200 1.340 . S
C202 N201 1.321 . S
C202 H226 0.930 . S
H203 C198 0.931 . S
Co204 N201 2.135 . S
Co204 N207 2.121 . S
Co204 O212 2.055 . S
Co204 O215 2.039 . S
Co204 N218 2.140 . S
C205 O206 1.227 . S
C205 O215 1.265 . S
O206 C205 1.227 . S
N207 Co204 2.121 . S
N207 C209 1.375 . S
N207 C210 1.313 . S
C208 C209 1.338 . S
C208 N211 1.377 . S
C208 H228 0.930 . S
C209 N207 1.375 . S
C209 C208 1.338 . S
C209 H213 0.931 . S
C210 N207 1.313 . S
C210 N211 1.344 . S
C210 H214 0.930 . S
N211 C208 1.377 . S
N211 C210 1.344 . S
O212 Co204 2.055 . S
O212 C216 1.253 . S
H213 C209 0.931 . S
H214 C210 0.930 . S
O215 Co204 2.039 . S
O215 C205 1.265 . S
C216 O212 1.253 . S
C216 O217 1.227 . S
O217 C216 1.227 . S
N218 Co204 2.140 . S
N218 C221 1.346 . S
N218 C222 1.345 . S
C219 C220 1.387 . S
C219 C223 1.391 . S
C220 C219 1.387 . S
C220 C221 1.369 . S
C220 H229 0.929 . S
C221 N218 1.346 . S
C221 C220 1.369 . S
C221 H224 0.928 . S
C222 N218 1.345 . S
C222 C223 1.371 . S
C222 H225 0.931 . S
C223 C219 1.391 . S
C223 C222 1.371 . S
C223 H230 0.930 . S
H224 C221 0.928 . S
H225 C222 0.931 . S
H226 C202 0.930 . S
H227 C199 0.930 . S
H228 C208 0.930 . S
H229 C220 0.929 . S
H230 C223 0.930 . S
C231 C232 1.351 . S
C231 N234 1.368 . S
C231 H236 0.931 . S
C232 C231 1.351 . S
C232 N233 1.373 . S
C232 H260 0.930 . S
N233 C232 1.373 . S
N233 C235 1.340 . S
N234 C231 1.368 . S
N234 C235 1.321 . S
N234 Co237 2.135 . S
C235 N233 1.340 . S
C235 N234 1.321 . S
C235 H259 0.930 . S
H236 C231 0.931 . S
Co237 N234 2.135 . S
Co237 N240 2.121 . S
Co237 O245 2.055 . S
Co237 O248 2.039 . S
Co237 N251 2.140 . S
C238 O239 1.227 . S
C238 O248 1.265 . S
O239 C238 1.227 . S
N240 Co237 2.121 . S
N240 C242 1.375 . S
N240 C243 1.313 . S
C241 C242 1.338 . S
C241 N244 1.377 . S
C241 H261 0.930 1_545 S
C242 N240 1.375 . S
C242 C241 1.338 . S
C242 H246 0.931 . S
C243 N240 1.313 . S
C243 N244 1.344 . S
C243 H247 0.930 . S
N244 C241 1.377 . S
N244 C243 1.344 . S
O245 Co237 2.055 . S
O245 C249 1.253 . S
H246 C242 0.931 . S
H247 C243 0.930 . S
O248 Co237 2.039 . S
O248 C238 1.265 . S
C249 O245 1.253 . S
C249 O250 1.227 . S
O250 C249 1.227 . S
N251 Co237 2.140 . S
N251 C254 1.346 . S
N251 C255 1.345 . S
C252 C253 1.387 . S
C252 C256 1.391 . S
C253 C252 1.387 . S
C253 C254 1.369 . S
C253 H262 0.929 . S
C254 N251 1.346 . S
C254 C253 1.369 . S
C254 H257 0.928 . S
C255 N251 1.345 . S
C255 C256 1.371 . S
C255 H258 0.931 . S
C256 C252 1.391 . S
C256 C255 1.371 . S
C256 H263 0.930 . S
H257 C254 0.928 . S
H258 C255 0.931 . S
H259 C235 0.930 . S
H260 C232 0.930 . S
H261 C241 0.930 1_565 S
H262 C253 0.929 . S
H263 C256 0.930 . S
C264 C265 1.351 1_556 S
C264 N267 1.368 . S
C264 H269 0.931 . S
C265 C264 1.351 1_554 S
C265 N266 1.373 . S
C265 H293 0.930 . S
N266 C265 1.373 . S
N266 C268 1.340 . S
N267 C264 1.368 . S
N267 C268 1.321 1_556 S
N267 Co270 2.135 . S
C268 N266 1.340 . S
C268 N267 1.321 1_554 S
C268 H292 0.930 . S
H269 C264 0.931 . S
Co270 N267 2.135 . S
Co270 N273 2.121 . S
Co270 O278 2.055 . S
Co270 O281 2.039 . S
Co270 N284 2.140 . S
C271 O272 1.227 . S
C271 O281 1.265 . S
O272 C271 1.227 . S
N273 Co270 2.121 . S
N273 C275 1.375 . S
N273 C276 1.313 . S
C274 C275 1.338 . S
C274 N277 1.377 . S
C274 H294 0.930 . S
C275 N273 1.375 . S
C275 C274 1.338 . S
C275 H279 0.931 . S
C276 N273 1.313 . S
C276 N277 1.344 . S
C276 H280 0.930 . S
N277 C274 1.377 . S
N277 C276 1.344 . S
O278 Co270 2.055 . S
O278 C282 1.253 . S
H279 C275 0.931 . S
H280 C276 0.930 . S
O281 Co270 2.039 . S
O281 C271 1.265 . S
C282 O278 1.253 . S
C282 O283 1.227 . S
O283 C282 1.227 . S
N284 Co270 2.140 . S
N284 C287 1.346 . S
N284 C288 1.345 . S
C285 C286 1.387 . S
C285 C289 1.391 . S
C286 C285 1.387 . S
C286 C287 1.369 . S
C286 H295 0.929 . S
C287 N284 1.346 . S
C287 C286 1.369 . S
C287 H290 0.928 . S
C288 N284 1.345 . S
C288 C289 1.371 . S
C288 H291 0.931 . S
C289 C285 1.391 . S
C289 C288 1.371 . S
C289 H296 0.930 . S
H290 C287 0.928 . S
H291 C288 0.931 . S
H292 C268 0.930 . S
H293 C265 0.930 . S
H294 C274 0.930 . S
H295 C286 0.929 . S
H296 C289 0.930 . S
C297 C298 1.351 . S
C297 N300 1.368 . S
C297 H302 0.931 . S
C298 C297 1.351 . S
C298 N299 1.373 . S
C298 H326 0.930 . S
N299 C298 1.373 . S
N299 C301 1.340 . S
N300 C297 1.368 . S
N300 C301 1.321 . S
N300 Co303 2.135 . S
C301 N299 1.340 . S
C301 N300 1.321 . S
C301 H325 0.930 . S
H302 C297 0.931 . S
Co303 N300 2.135 . S
Co303 N306 2.121 . S
Co303 O311 2.055 . S
Co303 O314 2.039 . S
Co303 N317 2.140 . S
C304 O305 1.227 . S
C304 O314 1.265 . S
O305 C304 1.227 . S
N306 Co303 2.121 . S
N306 C308 1.375 . S
N306 C309 1.313 . S
C307 C308 1.338 . S
C307 N310 1.377 . S
C307 H327 0.930 1_545 S
C308 N306 1.375 . S
C308 C307 1.338 . S
C308 H312 0.931 . S
C309 N306 1.313 . S
C309 N310 1.344 . S
C309 H313 0.930 . S
N310 C307 1.377 . S
N310 C309 1.344 . S
O311 Co303 2.055 . S
O311 C315 1.253 . S
H312 C308 0.931 . S
H313 C309 0.930 . S
O314 Co303 2.039 . S
O314 C304 1.265 . S
C315 O311 1.253 . S
C315 O316 1.227 . S
O316 C315 1.227 . S
N317 Co303 2.140 . S
N317 C320 1.346 . S
N317 C321 1.345 . S
C318 C319 1.387 . S
C318 C322 1.391 . S
C319 C318 1.387 . S
C319 C320 1.369 . S
C319 H328 0.929 . S
C320 N317 1.346 . S
C320 C319 1.369 . S
C320 H323 0.928 . S
C321 N317 1.345 . S
C321 C322 1.371 . S
C321 H324 0.931 . S
C322 C318 1.391 . S
C322 C321 1.371 . S
C322 H329 0.930 . S
H323 C320 0.928 . S
H324 C321 0.931 . S
H325 C301 0.930 . S
H326 C298 0.930 . S
H327 C307 0.930 1_565 S
H328 C319 0.929 . S
H329 C322 0.930 . S
C330 C331 1.351 . S
C330 N333 1.368 . S
C330 H335 0.931 . S
C331 C330 1.351 . S
C331 N332 1.373 . S
C331 H359 0.930 . S
N332 C331 1.373 . S
N332 C334 1.340 . S
N333 C330 1.368 . S
N333 C334 1.321 . S
N333 Co336 2.135 . S
C334 N332 1.340 . S
C334 N333 1.321 . S
C334 H358 0.930 . S
H335 C330 0.931 . S
Co336 N333 2.135 . S
Co336 N339 2.121 . S
Co336 O344 2.055 . S
Co336 O347 2.039 . S
Co336 N350 2.140 . S
C337 O338 1.227 . S
C337 O347 1.265 . S
O338 C337 1.227 . S
N339 Co336 2.121 . S
N339 C341 1.375 . S
N339 C342 1.313 . S
C340 C341 1.338 . S
C340 N343 1.377 . S
C340 H360 0.930 . S
C341 N339 1.375 . S
C341 C340 1.338 . S
C341 H345 0.931 . S
C342 N339 1.313 . S
C342 N343 1.344 . S
C342 H346 0.930 . S
N343 C340 1.377 . S
N343 C342 1.344 . S
O344 Co336 2.055 . S
O344 C348 1.253 . S
H345 C341 0.931 . S
H346 C342 0.930 . S
O347 Co336 2.039 . S
O347 C337 1.265 . S
C348 O344 1.253 . S
C348 O349 1.227 . S
O349 C348 1.227 . S
N350 Co336 2.140 . S
N350 C353 1.346 . S
N350 C354 1.345 . S
C351 C352 1.387 . S
C351 C355 1.391 . S
C352 C351 1.387 . S
C352 C353 1.369 . S
C352 H361 0.929 . S
C353 N350 1.346 . S
C353 C352 1.369 . S
C353 H356 0.928 . S
C354 N350 1.345 . S
C354 C355 1.371 . S
C354 H357 0.931 . S
C355 C351 1.391 . S
C355 C354 1.371 . S
C355 H362 0.930 . S
H356 C353 0.928 . S
H357 C354 0.931 . S
H358 C334 0.930 . S
H359 C331 0.930 . S
H360 C340 0.930 . S
H361 C352 0.929 . S
H362 C355 0.930 . S
C363 C364 1.351 . S
C363 N366 1.368 . S
C363 H368 0.931 . S
C364 C363 1.351 . S
C364 N365 1.373 . S
C364 H392 0.930 . S
N365 C364 1.373 . S
N365 C367 1.340 . S
N366 C363 1.368 . S
N366 C367 1.321 . S
N366 Co369 2.135 . S
C367 N365 1.340 . S
C367 N366 1.321 . S
C367 H391 0.930 . S
H368 C363 0.931 . S
Co369 N366 2.135 . S
Co369 N372 2.121 . S
Co369 O377 2.055 . S
Co369 O380 2.039 . S
Co369 N383 2.140 . S
C370 O371 1.227 . S
C370 O380 1.265 . S
O371 C370 1.227 . S
N372 Co369 2.121 . S
N372 C374 1.375 . S
N372 C375 1.313 . S
C373 C374 1.338 . S
C373 N376 1.377 . S
C373 H393 0.930 1_565 S
C374 N372 1.375 . S
C374 C373 1.338 . S
C374 H378 0.931 . S
C375 N372 1.313 . S
C375 N376 1.344 . S
C375 H379 0.930 . S
N376 C373 1.377 . S
N376 C375 1.344 . S
O377 Co369 2.055 . S
O377 C381 1.253 . S
H378 C374 0.931 . S
H379 C375 0.930 . S
O380 Co369 2.039 . S
O380 C370 1.265 . S
C381 O377 1.253 . S
C381 O382 1.227 . S
O382 C381 1.227 . S
N383 Co369 2.140 . S
N383 C386 1.346 . S
N383 C387 1.345 . S
C384 C385 1.387 . S
C384 C388 1.391 . S
C385 C384 1.387 . S
C385 C386 1.369 . S
C385 H394 0.929 . S
C386 N383 1.346 . S
C386 C385 1.369 . S
C386 H389 0.928 . S
C387 N383 1.345 . S
C387 C388 1.371 . S
C387 H390 0.931 . S
C388 C384 1.391 . S
C388 C387 1.371 . S
C388 H395 0.930 . S
H389 C386 0.928 . S
H390 C387 0.931 . S
H391 C367 0.930 . S
H392 C364 0.930 . S
H393 C373 0.930 1_545 S
H394 C385 0.929 . S
H395 C388 0.930 . S
C396 C397 1.351 1_554 S
C396 N399 1.368 . S
C396 H401 0.931 . S
C397 C396 1.351 1_556 S
C397 N398 1.373 . S
C397 H425 0.930 . S
N398 C397 1.373 . S
N398 C400 1.340 . S
N399 C396 1.368 . S
N399 C400 1.321 1_554 S
N399 Co402 2.135 . S
C400 N398 1.340 . S
C400 N399 1.321 1_556 S
C400 H424 0.930 . S
H401 C396 0.931 . S
Co402 N399 2.135 . S
Co402 N405 2.121 . S
Co402 O410 2.055 . S
Co402 O413 2.039 . S
Co402 N416 2.140 . S
C403 O404 1.227 . S
C403 O413 1.265 . S
O404 C403 1.227 . S
N405 Co402 2.121 . S
N405 C407 1.375 . S
N405 C408 1.313 . S
C406 C407 1.338 . S
C406 N409 1.377 . S
C406 H426 0.930 . S
C407 N405 1.375 . S
C407 C406 1.338 . S
C407 H411 0.931 . S
C408 N405 1.313 . S
C408 N409 1.344 . S
C408 H412 0.930 . S
N409 C406 1.377 . S
N409 C408 1.344 . S
O410 Co402 2.055 . S
O410 C414 1.253 . S
H411 C407 0.931 . S
H412 C408 0.930 . S
O413 Co402 2.039 . S
O413 C403 1.265 . S
C414 O410 1.253 . S
C414 O415 1.227 . S
O415 C414 1.227 . S
N416 Co402 2.140 . S
N416 C419 1.346 . S
N416 C420 1.345 . S
C417 C418 1.387 . S
C417 C421 1.391 . S
C418 C417 1.387 . S
C418 C419 1.369 . S
C418 H427 0.929 . S
C419 N416 1.346 . S
C419 C418 1.369 . S
C419 H422 0.928 . S
C420 N416 1.345 . S
C420 C421 1.371 . S
C420 H423 0.931 . S
C421 C417 1.391 . S
C421 C420 1.371 . S
C421 H428 0.930 . S
H422 C419 0.928 . S
H423 C420 0.931 . S
H424 C400 0.930 . S
H425 C397 0.930 . S
H426 C406 0.930 . S
H427 C418 0.929 . S
H428 C421 0.930 . S
C429 C430 1.351 . S
C429 N432 1.368 . S
C429 H434 0.931 . S
C430 C429 1.351 . S
C430 N431 1.373 . S
C430 H458 0.930 . S
N431 C430 1.373 . S
N431 C433 1.340 . S
N432 C429 1.368 . S
N432 C433 1.321 . S
N432 Co435 2.135 . S
C433 N431 1.340 . S
C433 N432 1.321 . S
C433 H457 0.930 . S
H434 C429 0.931 . S
Co435 N432 2.135 . S
Co435 N438 2.121 . S
Co435 O443 2.055 . S
Co435 O446 2.039 . S
Co435 N449 2.140 . S
C436 O437 1.227 . S
C436 O446 1.265 . S
O437 C436 1.227 . S
N438 Co435 2.121 . S
N438 C440 1.375 . S
N438 C441 1.313 . S
C439 C440 1.338 . S
C439 N442 1.377 . S
C439 H459 0.930 1_545 S
C440 N438 1.375 . S
C440 C439 1.338 . S
C440 H444 0.931 . S
C441 N438 1.313 . S
C441 N442 1.344 . S
C441 H445 0.930 . S
N442 C439 1.377 . S
N442 C441 1.344 . S
O443 Co435 2.055 . S
O443 C447 1.253 . S
H444 C440 0.931 . S
H445 C441 0.930 . S
O446 Co435 2.039 . S
O446 C436 1.265 . S
C447 O443 1.253 . S
C447 O448 1.227 . S
O448 C447 1.227 . S
N449 Co435 2.140 . S
N449 C452 1.346 . S
N449 C453 1.345 . S
C450 C451 1.387 . S
C450 C454 1.391 . S
C451 C450 1.387 . S
C451 C452 1.369 . S
C451 H460 0.929 . S
C452 N449 1.346 . S
C452 C451 1.369 . S
C452 H455 0.928 . S
C453 N449 1.345 . S
C453 C454 1.371 . S
C453 H456 0.931 . S
C454 C450 1.391 . S
C454 C453 1.371 . S
C454 H461 0.930 . S
H455 C452 0.928 . S
H456 C453 0.931 . S
H457 C433 0.930 . S
H458 C430 0.930 . S
H459 C439 0.930 1_565 S
H460 C451 0.929 . S
H461 C454 0.930 . S
C462 C463 1.351 . S
C462 N465 1.368 . S
C462 H467 0.931 . S
C463 C462 1.351 . S
C463 N464 1.373 . S
C463 H491 0.930 . S
N464 C463 1.373 . S
N464 C466 1.340 . S
N465 C462 1.368 . S
N465 C466 1.321 . S
N465 Co468 2.135 . S
C466 N464 1.340 . S
C466 N465 1.321 . S
C466 H490 0.930 . S
H467 C462 0.931 . S
Co468 N465 2.135 . S
Co468 N471 2.121 . S
Co468 O476 2.055 . S
Co468 O479 2.039 . S
Co468 N482 2.140 . S
C469 O470 1.227 . S
C469 O479 1.265 . S
O470 C469 1.227 . S
N471 Co468 2.121 . S
N471 C473 1.375 . S
N471 C474 1.313 . S
C472 C473 1.338 . S
C472 N475 1.377 . S
C472 H492 0.930 . S
C473 N471 1.375 . S
C473 C472 1.338 . S
C473 H477 0.931 . S
C474 N471 1.313 . S
C474 N475 1.344 . S
C474 H478 0.930 . S
N475 C472 1.377 . S
N475 C474 1.344 . S
O476 Co468 2.055 . S
O476 C480 1.253 . S
H477 C473 0.931 . S
H478 C474 0.930 . S
O479 Co468 2.039 . S
O479 C469 1.265 . S
C480 O476 1.253 . S
C480 O481 1.227 . S
O481 C480 1.227 . S
N482 Co468 2.140 . S
N482 C485 1.346 . S
N482 C486 1.345 . S
C483 C484 1.387 . S
C483 C487 1.391 . S
C484 C483 1.387 . S
C484 C485 1.369 . S
C484 H493 0.929 . S
C485 N482 1.346 . S
C485 C484 1.369 . S
C485 H488 0.928 . S
C486 N482 1.345 . S
C486 C487 1.371 . S
C486 H489 0.931 . S
C487 C483 1.391 . S
C487 C486 1.371 . S
C487 H494 0.930 . S
H488 C485 0.928 . S
H489 C486 0.931 . S
H490 C466 0.930 . S
H491 C463 0.930 . S
H492 C472 0.930 . S
H493 C484 0.929 . S
H494 C487 0.930 . S
C495 C496 1.351 . S
C495 N498 1.368 . S
C495 H500 0.931 . S
C496 C495 1.351 . S
C496 N497 1.373 . S
C496 H524 0.930 . S
N497 C496 1.373 . S
N497 C499 1.340 . S
N498 C495 1.368 . S
N498 C499 1.321 . S
N498 Co501 2.135 . S
C499 N497 1.340 . S
C499 N498 1.321 . S
C499 H523 0.930 . S
H500 C495 0.931 . S
Co501 N498 2.135 . S
Co501 N504 2.121 . S
Co501 O509 2.055 . S
Co501 O512 2.039 . S
Co501 N515 2.140 . S
C502 O503 1.227 . S
C502 O512 1.265 . S
O503 C502 1.227 . S
N504 Co501 2.121 . S
N504 C506 1.375 . S
N504 C507 1.313 . S
C505 C506 1.338 . S
C505 N508 1.377 . S
C505 H525 0.930 1_565 S
C506 N504 1.375 . S
C506 C505 1.338 . S
C506 H510 0.931 . S
C507 N504 1.313 . S
C507 N508 1.344 . S
C507 H511 0.930 . S
N508 C505 1.377 . S
N508 C507 1.344 . S
O509 Co501 2.055 . S
O509 C513 1.253 . S
H510 C506 0.931 . S
H511 C507 0.930 . S
O512 Co501 2.039 . S
O512 C502 1.265 . S
C513 O509 1.253 . S
C513 O514 1.227 . S
O514 C513 1.227 . S
N515 Co501 2.140 . S
N515 C518 1.346 . S
N515 C519 1.345 . S
C516 C517 1.387 . S
C516 C520 1.391 . S
C517 C516 1.387 . S
C517 C518 1.369 . S
C517 H526 0.929 . S
C518 N515 1.346 . S
C518 C517 1.369 . S
C518 H521 0.928 . S
C519 N515 1.345 . S
C519 C520 1.371 . S
C519 H522 0.931 . S
C520 C516 1.391 . S
C520 C519 1.371 . S
C520 H527 0.930 . S
H521 C518 0.928 . S
H522 C519 0.931 . S
H523 C499 0.930 . S
H524 C496 0.930 . S
H525 C505 0.930 1_545 S
H526 C517 0.929 . S
H527 C520 0.930 . S
C528 C529 1.351 . S
C528 N531 1.368 . S
C528 H533 0.931 . S
C529 C528 1.351 . S
C529 N530 1.373 . S
C529 H557 0.930 . S
N530 C529 1.373 . S
N530 C532 1.340 . S
N531 C528 1.368 . S
N531 C532 1.321 . S
N531 Co534 2.135 . S
C532 N530 1.340 . S
C532 N531 1.321 . S
C532 H556 0.930 . S
H533 C528 0.931 . S
Co534 N531 2.135 . S
Co534 N537 2.121 . S
Co534 O542 2.055 . S
Co534 O545 2.039 . S
Co534 N548 2.140 . S
C535 O536 1.227 . S
C535 O545 1.265 . S
O536 C535 1.227 . S
N537 Co534 2.121 . S
N537 C539 1.375 . S
N537 C540 1.313 . S
C538 C539 1.338 . S
C538 N541 1.377 . S
C538 H558 0.930 . S
C539 N537 1.375 . S
C539 C538 1.338 . S
C539 H543 0.931 . S
C540 N537 1.313 . S
C540 N541 1.344 . S
C540 H544 0.930 . S
N541 C538 1.377 . S
N541 C540 1.344 . S
O542 Co534 2.055 . S
O542 C546 1.253 . S
H543 C539 0.931 . S
H544 C540 0.930 . S
O545 Co534 2.039 . S
O545 C535 1.265 . S
C546 O542 1.253 . S
C546 O547 1.227 . S
O547 C546 1.227 . S
N548 Co534 2.140 . S
N548 C551 1.346 . S
N548 C552 1.345 . S
C549 C550 1.387 . S
C549 C553 1.391 . S
C550 C549 1.387 . S
C550 C551 1.369 . S
C550 H559 0.929 . S
C551 N548 1.346 . S
C551 C550 1.369 . S
C551 H554 0.928 . S
C552 N548 1.345 . S
C552 C553 1.371 . S
C552 H555 0.931 . S
C553 C549 1.391 . S
C553 C552 1.371 . S
C553 H560 0.930 . S
H554 C551 0.928 . S
H555 C552 0.931 . S
H556 C532 0.930 . S
H557 C529 0.930 . S
H558 C538 0.930 . S
H559 C550 0.929 . S
H560 C553 0.930 . S
C561 C562 1.351 . S
C561 N564 1.368 . S
C561 H566 0.931 . S
C562 C561 1.351 . S
C562 N563 1.373 . S
C562 H590 0.930 . S
N563 C562 1.373 . S
N563 C565 1.340 . S
N564 C561 1.368 . S
N564 C565 1.321 . S
N564 Co567 2.135 . S
C565 N563 1.340 . S
C565 N564 1.321 . S
C565 H589 0.930 . S
H566 C561 0.931 . S
Co567 N564 2.135 . S
Co567 N570 2.121 . S
Co567 O575 2.055 . S
Co567 O578 2.039 . S
Co567 N581 2.140 . S
C568 O569 1.227 . S
C568 O578 1.265 . S
O569 C568 1.227 . S
N570 Co567 2.121 . S
N570 C572 1.375 . S
N570 C573 1.313 . S
C571 C572 1.338 . S
C571 N574 1.377 . S
C571 H591 0.930 . S
C572 N570 1.375 . S
C572 C571 1.338 . S
C572 H576 0.931 . S
C573 N570 1.313 . S
C573 N574 1.344 . S
C573 H577 0.930 . S
N574 C571 1.377 . S
N574 C573 1.344 . S
O575 Co567 2.055 . S
O575 C579 1.253 . S
H576 C572 0.931 . S
H577 C573 0.930 . S
O578 Co567 2.039 . S
O578 C568 1.265 . S
C579 O575 1.253 . S
C579 O580 1.227 . S
O580 C579 1.227 . S
N581 Co567 2.140 . S
N581 C584 1.346 . S
N581 C585 1.345 . S
C582 C583 1.387 . S
C582 C586 1.391 . S
C583 C582 1.387 . S
C583 C584 1.369 . S
C583 H592 0.929 . S
C584 N581 1.346 . S
C584 C583 1.369 . S
C584 H587 0.928 . S
C585 N581 1.345 . S
C585 C586 1.371 . S
C585 H588 0.931 . S
C586 C582 1.391 . S
C586 C585 1.371 . S
C586 H593 0.930 . S
H587 C584 0.928 . S
H588 C585 0.931 . S
H589 C565 0.930 . S
H590 C562 0.930 . S
H591 C571 0.930 . S
H592 C583 0.929 . S
H593 C586 0.930 . S
C594 C595 1.351 1_554 S
C594 N597 1.368 . S
C594 H599 0.931 . S
C595 C594 1.351 1_556 S
C595 N596 1.373 . S
C595 H623 0.930 . S
N596 C595 1.373 . S
N596 C598 1.340 . S
N597 C594 1.368 . S
N597 C598 1.321 1_554 S
N597 Co600 2.135 . S
C598 N596 1.340 . S
C598 N597 1.321 1_556 S
C598 H622 0.930 . S
H599 C594 0.931 . S
Co600 N597 2.135 . S
Co600 N603 2.121 . S
Co600 O608 2.055 . S
Co600 O611 2.039 . S
Co600 N614 2.140 . S
C601 O602 1.227 . S
C601 O611 1.265 . S
O602 C601 1.227 . S
N603 Co600 2.121 . S
N603 C605 1.375 . S
N603 C606 1.313 . S
C604 C605 1.338 . S
C604 N607 1.377 . S
C604 H624 0.930 . S
C605 N603 1.375 . S
C605 C604 1.338 . S
C605 H609 0.931 . S
C606 N603 1.313 . S
C606 N607 1.344 . S
C606 H610 0.930 . S
N607 C604 1.377 . S
N607 C606 1.344 . S
O608 Co600 2.055 . S
O608 C612 1.253 . S
H609 C605 0.931 . S
H610 C606 0.930 . S
O611 Co600 2.039 . S
O611 C601 1.265 . S
C612 O608 1.253 . S
C612 O613 1.227 . S
O613 C612 1.227 . S
N614 Co600 2.140 . S
N614 C617 1.346 . S
N614 C618 1.345 . S
C615 C616 1.387 . S
C615 C619 1.391 . S
C616 C615 1.387 . S
C616 C617 1.369 . S
C616 H625 0.929 . S
C617 N614 1.346 . S
C617 C616 1.369 . S
C617 H620 0.928 . S
C618 N614 1.345 . S
C618 C619 1.371 . S
C618 H621 0.931 . S
C619 C615 1.391 . S
C619 C618 1.371 . S
C619 H626 0.930 . S
H620 C617 0.928 . S
H621 C618 0.931 . S
H622 C598 0.930 . S
H623 C595 0.930 . S
H624 C604 0.930 . S
H625 C616 0.929 . S
H626 C619 0.930 . S
C627 C628 1.351 . S
C627 N630 1.368 . S
C627 H632 0.931 . S
C628 C627 1.351 . S
C628 N629 1.373 . S
C628 H656 0.930 . S
N629 C628 1.373 . S
N629 C631 1.340 . S
N630 C627 1.368 . S
N630 C631 1.321 . S
N630 Co633 2.135 . S
C631 N629 1.340 . S
C631 N630 1.321 . S
C631 H655 0.930 . S
H632 C627 0.931 . S
Co633 N630 2.135 . S
Co633 N636 2.121 . S
Co633 O641 2.055 . S
Co633 O644 2.039 . S
Co633 N647 2.140 . S
C634 O635 1.227 . S
C634 O644 1.265 . S
O635 C634 1.227 . S
N636 Co633 2.121 . S
N636 C638 1.375 . S
N636 C639 1.313 . S
C637 C638 1.338 . S
C637 N640 1.377 . S
C637 H657 0.930 . S
C638 N636 1.375 . S
C638 C637 1.338 . S
C638 H642 0.931 . S
C639 N636 1.313 . S
C639 N640 1.344 . S
C639 H643 0.930 . S
N640 C637 1.377 . S
N640 C639 1.344 . S
O641 Co633 2.055 . S
O641 C645 1.253 . S
H642 C638 0.931 . S
H643 C639 0.930 . S
O644 Co633 2.039 . S
O644 C634 1.265 . S
C645 O641 1.253 . S
C645 O646 1.227 . S
O646 C645 1.227 . S
N647 Co633 2.140 . S
N647 C650 1.346 . S
N647 C651 1.345 . S
C648 C649 1.387 . S
C648 C652 1.391 . S
C649 C648 1.387 . S
C649 C650 1.369 . S
C649 H658 0.929 . S
C650 N647 1.346 . S
C650 C649 1.369 . S
C650 H653 0.928 . S
C651 N647 1.345 . S
C651 C652 1.371 . S
C651 H654 0.931 . S
C652 C648 1.391 . S
C652 C651 1.371 . S
C652 H659 0.930 . S
H653 C650 0.928 . S
H654 C651 0.931 . S
H655 C631 0.930 . S
H656 C628 0.930 . S
H657 C637 0.930 . S
H658 C649 0.929 . S
H659 C652 0.930 . S
C660 C661 1.351 . S
C660 N663 1.368 . S
C660 H665 0.931 . S
C661 C660 1.351 . S
C661 N662 1.373 . S
C661 H689 0.930 . S
N662 C661 1.373 . S
N662 C664 1.340 . S
N663 C660 1.368 . S
N663 C664 1.321 . S
N663 Co666 2.135 . S
C664 N662 1.340 . S
C664 N663 1.321 . S
C664 H688 0.930 . S
H665 C660 0.931 . S
Co666 N663 2.135 . S
Co666 N669 2.121 . S
Co666 O674 2.055 . S
Co666 O677 2.039 . S
Co666 N680 2.140 . S
C667 O668 1.227 . S
C667 O677 1.265 . S
O668 C667 1.227 . S
N669 Co666 2.121 . S
N669 C671 1.375 . S
N669 C672 1.313 . S
C670 C671 1.338 . S
C670 N673 1.377 . S
C670 H690 0.930 . S
C671 N669 1.375 . S
C671 C670 1.338 . S
C671 H675 0.931 . S
C672 N669 1.313 . S
C672 N673 1.344 . S
C672 H676 0.930 . S
N673 C670 1.377 . S
N673 C672 1.344 . S
O674 Co666 2.055 . S
O674 C678 1.253 . S
H675 C671 0.931 . S
H676 C672 0.930 . S
O677 Co666 2.039 . S
O677 C667 1.265 . S
C678 O674 1.253 . S
C678 O679 1.227 . S
O679 C678 1.227 . S
N680 Co666 2.140 . S
N680 C683 1.346 . S
N680 C684 1.345 . S
C681 C682 1.387 . S
C681 C685 1.391 . S
C682 C681 1.387 . S
C682 C683 1.369 . S
C682 H691 0.929 . S
C683 N680 1.346 . S
C683 C682 1.369 . S
C683 H686 0.928 . S
C684 N680 1.345 . S
C684 C685 1.371 . S
C684 H687 0.931 . S
C685 C681 1.391 . S
C685 C684 1.371 . S
C685 H692 0.930 . S
H686 C683 0.928 . S
H687 C684 0.931 . S
H688 C664 0.930 . S
H689 C661 0.930 . S
H690 C670 0.930 . S
H691 C682 0.929 . S
H692 C685 0.930 . S
C693 C694 1.351 . S
C693 N696 1.368 . S
C693 H698 0.931 . S
C694 C693 1.351 . S
C694 N695 1.373 . S
C694 H722 0.930 . S
N695 C694 1.373 . S
N695 C697 1.340 . S
N696 C693 1.368 . S
N696 C697 1.321 . S
N696 Co699 2.135 . S
C697 N695 1.340 . S
C697 N696 1.321 . S
C697 H721 0.930 . S
H698 C693 0.931 . S
Co699 N696 2.135 . S
Co699 N702 2.121 . S
Co699 O707 2.055 . S
Co699 O710 2.039 . S
Co699 N713 2.140 . S
C700 O701 1.227 . S
C700 O710 1.265 . S
O701 C700 1.227 . S
N702 Co699 2.121 . S
N702 C704 1.375 . S
N702 C705 1.313 . S
C703 C704 1.338 . S
C703 N706 1.377 . S
C703 H723 0.930 . S
C704 N702 1.375 . S
C704 C703 1.338 . S
C704 H708 0.931 . S
C705 N702 1.313 . S
C705 N706 1.344 . S
C705 H709 0.930 . S
N706 C703 1.377 . S
N706 C705 1.344 . S
O707 Co699 2.055 . S
O707 C711 1.253 . S
H708 C704 0.931 . S
H709 C705 0.930 . S
O710 Co699 2.039 . S
O710 C700 1.265 . S
C711 O707 1.253 . S
C711 O712 1.227 . S
O712 C711 1.227 . S
N713 Co699 2.140 . S
N713 C716 1.346 . S
N713 C717 1.345 . S
C714 C715 1.387 . S
C714 C718 1.391 . S
C715 C714 1.387 . S
C715 C716 1.369 . S
C715 H724 0.929 . S
C716 N713 1.346 . S
C716 C715 1.369 . S
C716 H719 0.928 . S
C717 N713 1.345 . S
C717 C718 1.371 . S
C717 H720 0.931 . S
C718 C714 1.391 . S
C718 C717 1.371 . S
C718 H725 0.930 . S
H719 C716 0.928 . S
H720 C717 0.931 . S
H721 C697 0.930 . S
H722 C694 0.930 . S
H723 C703 0.930 . S
H724 C715 0.929 . S
H725 C718 0.930 . S
C726 C727 1.351 1_556 S
C726 N729 1.368 . S
C726 H731 0.931 . S
C727 C726 1.351 1_554 S
C727 N728 1.373 . S
C727 H755 0.930 . S
N728 C727 1.373 . S
N728 C730 1.340 . S
N729 C726 1.368 . S
N729 C730 1.321 1_556 S
N729 Co732 2.135 . S
C730 N728 1.340 . S
C730 N729 1.321 1_554 S
C730 H754 0.930 . S
H731 C726 0.931 . S
Co732 N729 2.135 . S
Co732 N735 2.121 . S
Co732 O740 2.055 . S
Co732 O743 2.039 . S
Co732 N746 2.140 . S
C733 O734 1.227 . S
C733 O743 1.265 . S
O734 C733 1.227 . S
N735 Co732 2.121 . S
N735 C737 1.375 . S
N735 C738 1.313 . S
C736 C737 1.338 . S
C736 N739 1.377 . S
C736 H756 0.930 . S
C737 N735 1.375 . S
C737 C736 1.338 . S
C737 H741 0.931 . S
C738 N735 1.313 . S
C738 N739 1.344 . S
C738 H742 0.930 . S
N739 C736 1.377 . S
N739 C738 1.344 . S
O740 Co732 2.055 . S
O740 C744 1.253 . S
H741 C737 0.931 . S
H742 C738 0.930 . S
O743 Co732 2.039 . S
O743 C733 1.265 . S
C744 O740 1.253 . S
C744 O745 1.227 . S
O745 C744 1.227 . S
N746 Co732 2.140 . S
N746 C749 1.346 . S
N746 C750 1.345 . S
C747 C748 1.387 . S
C747 C751 1.391 . S
C748 C747 1.387 . S
C748 C749 1.369 . S
C748 H757 0.929 . S
C749 N746 1.346 . S
C749 C748 1.369 . S
C749 H752 0.928 . S
C750 N746 1.345 . S
C750 C751 1.371 . S
C750 H753 0.931 . S
C751 C747 1.391 . S
C751 C750 1.371 . S
C751 H758 0.930 . S
H752 C749 0.928 . S
H753 C750 0.931 . S
H754 C730 0.930 . S
H755 C727 0.930 . S
H756 C736 0.930 . S
H757 C748 0.929 . S
H758 C751 0.930 . S
C759 C760 1.351 . S
C759 N762 1.368 . S
C759 H764 0.931 . S
C760 C759 1.351 . S
C760 N761 1.373 . S
C760 H788 0.930 . S
N761 C760 1.373 . S
N761 C763 1.340 . S
N762 C759 1.368 . S
N762 C763 1.321 . S
N762 Co765 2.135 . S
C763 N761 1.340 . S
C763 N762 1.321 . S
C763 H787 0.930 . S
H764 C759 0.931 . S
Co765 N762 2.135 . S
Co765 N768 2.121 . S
Co765 O773 2.055 . S
Co765 O776 2.039 . S
Co765 N779 2.140 . S
C766 O767 1.227 . S
C766 O776 1.265 . S
O767 C766 1.227 . S
N768 Co765 2.121 . S
N768 C770 1.375 . S
N768 C771 1.313 . S
C769 C770 1.338 . S
C769 N772 1.377 . S
C769 H789 0.930 . S
C770 N768 1.375 . S
C770 C769 1.338 . S
C770 H774 0.931 . S
C771 N768 1.313 . S
C771 N772 1.344 . S
C771 H775 0.930 . S
N772 C769 1.377 . S
N772 C771 1.344 . S
O773 Co765 2.055 . S
O773 C777 1.253 . S
H774 C770 0.931 . S
H775 C771 0.930 . S
O776 Co765 2.039 . S
O776 C766 1.265 . S
C777 O773 1.253 . S
C777 O778 1.227 . S
O778 C777 1.227 . S
N779 Co765 2.140 . S
N779 C782 1.346 . S
N779 C783 1.345 . S
C780 C781 1.387 . S
C780 C784 1.391 . S
C781 C780 1.387 . S
C781 C782 1.369 . S
C781 H790 0.929 . S
C782 N779 1.346 . S
C782 C781 1.369 . S
C782 H785 0.928 . S
C783 N779 1.345 . S
C783 C784 1.371 . S
C783 H786 0.931 . S
C784 C780 1.391 . S
C784 C783 1.371 . S
C784 H791 0.930 . S
H785 C782 0.928 . S
H786 C783 0.931 . S
H787 C763 0.930 . S
H788 C760 0.930 . S
H789 C769 0.930 . S
H790 C781 0.929 . S
H791 C784 0.930 . S
C792 C793 1.351 . S
C792 N795 1.368 . S
C792 H797 0.931 . S
C793 C792 1.351 . S
C793 N794 1.373 . S
C793 H821 0.930 . S
N794 C793 1.373 . S
N794 C796 1.340 . S
N795 C792 1.368 . S
N795 C796 1.321 . S
N795 Co798 2.135 . S
C796 N794 1.340 . S
C796 N795 1.321 . S
C796 H820 0.930 . S
H797 C792 0.931 . S
Co798 N795 2.135 . S
Co798 N801 2.121 . S
Co798 O806 2.055 . S
Co798 O809 2.039 . S
Co798 N812 2.140 . S
C799 O800 1.227 . S
C799 O809 1.265 . S
O800 C799 1.227 . S
N801 Co798 2.121 . S
N801 C803 1.375 . S
N801 C804 1.313 . S
C802 C803 1.338 . S
C802 N805 1.377 . S
C802 H822 0.930 . S
C803 N801 1.375 . S
C803 C802 1.338 . S
C803 H807 0.931 . S
C804 N801 1.313 . S
C804 N805 1.344 . S
C804 H808 0.930 . S
N805 C802 1.377 . S
N805 C804 1.344 . S
O806 Co798 2.055 . S
O806 C810 1.253 . S
H807 C803 0.931 . S
H808 C804 0.930 . S
O809 Co798 2.039 . S
O809 C799 1.265 . S
C810 O806 1.253 . S
C810 O811 1.227 . S
O811 C810 1.227 . S
N812 Co798 2.140 . S
N812 C815 1.346 . S
N812 C816 1.345 . S
C813 C814 1.387 . S
C813 C817 1.391 . S
C814 C813 1.387 . S
C814 C815 1.369 . S
C814 H823 0.929 . S
C815 N812 1.346 . S
C815 C814 1.369 . S
C815 H818 0.928 . S
C816 N812 1.345 . S
C816 C817 1.371 . S
C816 H819 0.931 . S
C817 C813 1.391 . S
C817 C816 1.371 . S
C817 H824 0.930 . S
H818 C815 0.928 . S
H819 C816 0.931 . S
H820 C796 0.930 . S
H821 C793 0.930 . S
H822 C802 0.930 . S
H823 C814 0.929 . S
H824 C817 0.930 . S
C825 C826 1.351 . S
C825 N828 1.368 . S
C825 H830 0.931 . S
C826 C825 1.351 . S
C826 N827 1.373 . S
C826 H854 0.930 . S
N827 C826 1.373 . S
N827 C829 1.340 . S
N828 C825 1.368 . S
N828 C829 1.321 . S
N828 Co831 2.135 . S
C829 N827 1.340 . S
C829 N828 1.321 . S
C829 H853 0.930 . S
H830 C825 0.931 . S
Co831 N828 2.135 . S
Co831 N834 2.121 . S
Co831 O839 2.055 . S
Co831 O842 2.039 . S
Co831 N845 2.140 . S
C832 O833 1.227 . S
C832 O842 1.265 . S
O833 C832 1.227 . S
N834 Co831 2.121 . S
N834 C836 1.375 . S
N834 C837 1.313 . S
C835 C836 1.338 . S
C835 N838 1.377 . S
C835 H855 0.930 . S
C836 N834 1.375 . S
C836 C835 1.338 . S
C836 H840 0.931 . S
C837 N834 1.313 . S
C837 N838 1.344 . S
C837 H841 0.930 . S
N838 C835 1.377 . S
N838 C837 1.344 . S
O839 Co831 2.055 . S
O839 C843 1.253 . S
H840 C836 0.931 . S
H841 C837 0.930 . S
O842 Co831 2.039 . S
O842 C832 1.265 . S
C843 O839 1.253 . S
C843 O844 1.227 . S
O844 C843 1.227 . S
N845 Co831 2.140 . S
N845 C848 1.346 . S
N845 C849 1.345 . S
C846 C847 1.387 . S
C846 C850 1.391 . S
C847 C846 1.387 . S
C847 C848 1.369 . S
C847 H856 0.929 . S
C848 N845 1.346 . S
C848 C847 1.369 . S
C848 H851 0.928 . S
C849 N845 1.345 . S
C849 C850 1.371 . S
C849 H852 0.931 . S
C850 C846 1.391 . S
C850 C849 1.371 . S
C850 H857 0.930 . S
H851 C848 0.928 . S
H852 C849 0.931 . S
H853 C829 0.930 . S
H854 C826 0.930 . S
H855 C835 0.930 . S
H856 C847 0.929 . S
H857 C850 0.930 . S
C858 C859 1.351 1_556 S
C858 N861 1.368 . S
C858 H863 0.931 . S
C859 C858 1.351 1_554 S
C859 N860 1.373 . S
C859 H887 0.930 . S
N860 C859 1.373 . S
N860 C862 1.340 . S
N861 C858 1.368 . S
N861 C862 1.321 1_556 S
N861 Co864 2.135 . S
C862 N860 1.340 . S
C862 N861 1.321 1_554 S
C862 H886 0.930 . S
H863 C858 0.931 . S
Co864 N861 2.135 . S
Co864 N867 2.121 . S
Co864 O872 2.055 . S
Co864 O875 2.039 . S
Co864 N878 2.140 . S
C865 O866 1.227 . S
C865 O875 1.265 . S
O866 C865 1.227 . S
N867 Co864 2.121 . S
N867 C869 1.375 . S
N867 C870 1.313 . S
C868 C869 1.338 . S
C868 N871 1.377 . S
C868 H888 0.930 . S
C869 N867 1.375 . S
C869 C868 1.338 . S
C869 H873 0.931 . S
C870 N867 1.313 . S
C870 N871 1.344 . S
C870 H874 0.930 . S
N871 C868 1.377 . S
N871 C870 1.344 . S
O872 Co864 2.055 . S
O872 C876 1.253 . S
H873 C869 0.931 . S
H874 C870 0.930 . S
O875 Co864 2.039 . S
O875 C865 1.265 . S
C876 O872 1.253 . S
C876 O877 1.227 . S
O877 C876 1.227 . S
N878 Co864 2.140 . S
N878 C881 1.346 . S
N878 C882 1.345 . S
C879 C880 1.387 . S
C879 C883 1.391 . S
C880 C879 1.387 . S
C880 C881 1.369 . S
C880 H889 0.929 . S
C881 N878 1.346 . S
C881 C880 1.369 . S
C881 H884 0.928 . S
C882 N878 1.345 . S
C882 C883 1.371 . S
C882 H885 0.931 . S
C883 C879 1.391 . S
C883 C882 1.371 . S
C883 H890 0.930 . S
H884 C881 0.928 . S
H885 C882 0.931 . S
H886 C862 0.930 . S
H887 C859 0.930 . S
H888 C868 0.930 . S
H889 C880 0.929 . S
H890 C883 0.930 . S
C891 C892 1.351 . S
C891 N894 1.368 . S
C891 H896 0.931 . S
C892 C891 1.351 . S
C892 N893 1.373 . S
C892 H920 0.930 . S
N893 C892 1.373 . S
N893 C895 1.340 . S
N894 C891 1.368 . S
N894 C895 1.321 . S
N894 Co897 2.135 . S
C895 N893 1.340 . S
C895 N894 1.321 . S
C895 H919 0.930 . S
H896 C891 0.931 . S
Co897 N894 2.135 . S
Co897 N900 2.121 . S
Co897 O905 2.055 . S
Co897 O908 2.039 . S
Co897 N911 2.140 . S
C898 O899 1.227 . S
C898 O908 1.265 . S
O899 C898 1.227 . S
N900 Co897 2.121 . S
N900 C902 1.375 . S
N900 C903 1.313 . S
C901 C902 1.338 . S
C901 N904 1.377 . S
C901 H921 0.930 . S
C902 N900 1.375 . S
C902 C901 1.338 . S
C902 H906 0.931 . S
C903 N900 1.313 . S
C903 N904 1.344 . S
C903 H907 0.930 . S
N904 C901 1.377 . S
N904 C903 1.344 . S
O905 Co897 2.055 . S
O905 C909 1.253 . S
H906 C902 0.931 . S
H907 C903 0.930 . S
O908 Co897 2.039 . S
O908 C898 1.265 . S
C909 O905 1.253 . S
C909 O910 1.227 . S
O910 C909 1.227 . S
N911 Co897 2.140 . S
N911 C914 1.346 . S
N911 C915 1.345 . S
C912 C913 1.387 . S
C912 C916 1.391 . S
C913 C912 1.387 . S
C913 C914 1.369 . S
C913 H922 0.929 . S
C914 N911 1.346 . S
C914 C913 1.369 . S
C914 H917 0.928 . S
C915 N911 1.345 . S
C915 C916 1.371 . S
C915 H918 0.931 . S
C916 C912 1.391 . S
C916 C915 1.371 . S
C916 H923 0.930 . S
H917 C914 0.928 . S
H918 C915 0.931 . S
H919 C895 0.930 . S
H920 C892 0.930 . S
H921 C901 0.930 . S
H922 C913 0.929 . S
H923 C916 0.930 . S
C924 C925 1.351 . S
C924 N927 1.368 . S
C924 H929 0.931 . S
C925 C924 1.351 . S
C925 N926 1.373 . S
C925 H953 0.930 . S
N926 C925 1.373 . S
N926 C928 1.340 . S
N927 C924 1.368 . S
N927 C928 1.321 . S
N927 Co930 2.135 . S
C928 N926 1.340 . S
C928 N927 1.321 . S
C928 H952 0.930 . S
H929 C924 0.931 . S
Co930 N927 2.135 . S
Co930 N933 2.121 . S
Co930 O938 2.055 . S
Co930 O941 2.039 . S
Co930 N944 2.140 . S
C931 O932 1.227 . S
C931 O941 1.265 . S
O932 C931 1.227 . S
N933 Co930 2.121 . S
N933 C935 1.375 . S
N933 C936 1.313 . S
C934 C935 1.338 . S
C934 N937 1.377 . S
C934 H954 0.930 . S
C935 N933 1.375 . S
C935 C934 1.338 . S
C935 H939 0.931 . S
C936 N933 1.313 . S
C936 N937 1.344 . S
C936 H940 0.930 . S
N937 C934 1.377 . S
N937 C936 1.344 . S
O938 Co930 2.055 . S
O938 C942 1.253 . S
H939 C935 0.931 . S
H940 C936 0.930 . S
O941 Co930 2.039 . S
O941 C931 1.265 . S
C942 O938 1.253 . S
C942 O943 1.227 . S
O943 C942 1.227 . S
N944 Co930 2.140 . S
N944 C947 1.346 . S
N944 C948 1.345 . S
C945 C946 1.387 . S
C945 C949 1.391 . S
C946 C945 1.387 . S
C946 C947 1.369 . S
C946 H955 0.929 . S
C947 N944 1.346 . S
C947 C946 1.369 . S
C947 H950 0.928 . S
C948 N944 1.345 . S
C948 C949 1.371 . S
C948 H951 0.931 . S
C949 C945 1.391 . S
C949 C948 1.371 . S
C949 H956 0.930 . S
H950 C947 0.928 . S
H951 C948 0.931 . S
H952 C928 0.930 . S
H953 C925 0.930 . S
H954 C934 0.930 . S
H955 C946 0.929 . S
H956 C949 0.930 . S
C957 C958 1.351 . S
C957 N960 1.368 . S
C957 H962 0.931 . S
C958 C957 1.351 . S
C958 N959 1.373 . S
C958 H986 0.930 . S
N959 C958 1.373 . S
N959 C961 1.340 . S
N960 C957 1.368 . S
N960 C961 1.321 . S
N960 Co963 2.135 . S
C961 N959 1.340 . S
C961 N960 1.321 . S
C961 H985 0.930 . S
H962 C957 0.931 . S
Co963 N960 2.135 . S
Co963 N966 2.121 . S
Co963 O971 2.055 . S
Co963 O974 2.039 . S
Co963 N977 2.140 . S
C964 O965 1.227 . S
C964 O974 1.265 . S
O965 C964 1.227 . S
N966 Co963 2.121 . S
N966 C968 1.375 . S
N966 C969 1.313 . S
C967 C968 1.338 . S
C967 N970 1.377 . S
C967 H987 0.930 . S
C968 N966 1.375 . S
C968 C967 1.338 . S
C968 H972 0.931 . S
C969 N966 1.313 . S
C969 N970 1.344 . S
C969 H973 0.930 . S
N970 C967 1.377 . S
N970 C969 1.344 . S
O971 Co963 2.055 . S
O971 C975 1.253 . S
H972 C968 0.931 . S
H973 C969 0.930 . S
O974 Co963 2.039 . S
O974 C964 1.265 . S
C975 O971 1.253 . S
C975 O976 1.227 . S
O976 C975 1.227 . S
N977 Co963 2.140 . S
N977 C980 1.346 . S
N977 C981 1.345 . S
C978 C979 1.387 . S
C978 C982 1.391 . S
C979 C978 1.387 . S
C979 C980 1.369 . S
C979 H988 0.929 . S
C980 N977 1.346 . S
C980 C979 1.369 . S
C980 H983 0.928 . S
C981 N977 1.345 . S
C981 C982 1.371 . S
C981 H984 0.931 . S
C982 C978 1.391 . S
C982 C981 1.371 . S
C982 H989 0.930 . S
H983 C980 0.928 . S
H984 C981 0.931 . S
H985 C961 0.930 . S
H986 C958 0.930 . S
H987 C967 0.930 . S
H988 C979 0.929 . S
H989 C982 0.930 . S
C990 C991 1.351 1_554 S
C990 N993 1.368 . S
C990 H995 0.931 . S
C991 C990 1.351 1_556 S
C991 N992 1.373 . S
C991 H1019 0.930 . S
N992 C991 1.373 . S
N992 C994 1.340 . S
N993 C990 1.368 . S
N993 C994 1.321 1_554 S
N993 Co996 2.135 . S
C994 N992 1.340 . S
C994 N993 1.321 1_556 S
C994 H1018 0.930 . S
H995 C990 0.931 . S
Co996 N993 2.135 . S
Co996 N999 2.121 . S
Co996 O1004 2.055 . S
Co996 O1007 2.039 . S
Co996 N1010 2.140 . S
C997 O998 1.227 . S
C997 O1007 1.265 . S
O998 C997 1.227 . S
N999 Co996 2.121 . S
N999 C1001 1.375 . S
N999 C1002 1.313 . S
C1000 C1001 1.338 . S
C1000 N1003 1.377 . S
C1000 H1020 0.930 . S
C1001 N999 1.375 . S
C1001 C1000 1.338 . S
C1001 H1005 0.931 . S
C1002 N999 1.313 . S
C1002 N1003 1.344 . S
C1002 H1006 0.930 . S
N1003 C1000 1.377 . S
N1003 C1002 1.344 . S
O1004 Co996 2.055 . S
O1004 C1008 1.253 . S
H1005 C1001 0.931 . S
H1006 C1002 0.930 . S
O1007 Co996 2.039 . S
O1007 C997 1.265 . S
C1008 O1004 1.253 . S
C1008 O1009 1.227 . S
O1009 C1008 1.227 . S
N1010 Co996 2.140 . S
N1010 C1013 1.346 . S
N1010 C1014 1.345 . S
C1011 C1012 1.387 . S
C1011 C1015 1.391 . S
C1012 C1011 1.387 . S
C1012 C1013 1.369 . S
C1012 H1021 0.929 . S
C1013 N1010 1.346 . S
C1013 C1012 1.369 . S
C1013 H1016 0.928 . S
C1014 N1010 1.345 . S
C1014 C1015 1.371 . S
C1014 H1017 0.931 . S
C1015 C1011 1.391 . S
C1015 C1014 1.371 . S
C1015 H1022 0.930 . S
H1016 C1013 0.928 . S
H1017 C1014 0.931 . S
H1018 C994 0.930 . S
H1019 C991 0.930 . S
H1020 C1000 0.930 . S
H1021 C1012 0.929 . S
H1022 C1015 0.930 . S
C1023 C1024 1.351 . S
C1023 N1026 1.368 . S
C1023 H1028 0.931 . S
C1024 C1023 1.351 . S
C1024 N1025 1.373 . S
C1024 H1052 0.930 . S
N1025 C1024 1.373 . S
N1025 C1027 1.340 . S
N1026 C1023 1.368 . S
N1026 C1027 1.321 . S
N1026 Co1029 2.135 . S
C1027 N1025 1.340 . S
C1027 N1026 1.321 . S
C1027 H1051 0.930 . S
H1028 C1023 0.931 . S
Co1029 N1026 2.135 . S
Co1029 N1032 2.121 . S
Co1029 O1037 2.055 . S
Co1029 O1040 2.039 . S
Co1029 N1043 2.140 . S
C1030 O1031 1.227 . S
C1030 O1040 1.265 . S
O1031 C1030 1.227 . S
N1032 Co1029 2.121 . S
N1032 C1034 1.375 . S
N1032 C1035 1.313 . S
C1033 C1034 1.338 . S
C1033 N1036 1.377 . S
C1033 H1053 0.930 . S
C1034 N1032 1.375 . S
C1034 C1033 1.338 . S
C1034 H1038 0.931 . S
C1035 N1032 1.313 . S
C1035 N1036 1.344 . S
C1035 H1039 0.930 . S
N1036 C1033 1.377 . S
N1036 C1035 1.344 . S
O1037 Co1029 2.055 . S
O1037 C1041 1.253 . S
H1038 C1034 0.931 . S
H1039 C1035 0.930 . S
O1040 Co1029 2.039 . S
O1040 C1030 1.265 . S
C1041 O1037 1.253 . S
C1041 O1042 1.227 . S
O1042 C1041 1.227 . S
N1043 Co1029 2.140 . S
N1043 C1046 1.346 . S
N1043 C1047 1.345 . S
C1044 C1045 1.387 . S
C1044 C1048 1.391 . S
C1045 C1044 1.387 . S
C1045 C1046 1.369 . S
C1045 H1054 0.929 . S
C1046 N1043 1.346 . S
C1046 C1045 1.369 . S
C1046 H1049 0.928 . S
C1047 N1043 1.345 . S
C1047 C1048 1.371 . S
C1047 H1050 0.931 . S
C1048 C1044 1.391 . S
C1048 C1047 1.371 . S
C1048 H1055 0.930 . S
H1049 C1046 0.928 . S
H1050 C1047 0.931 . S
H1051 C1027 0.930 . S
H1052 C1024 0.930 . S
H1053 C1033 0.930 . S
H1054 C1045 0.929 . S
H1055 C1048 0.930 . S
H1056 C1062 0.930 . S
H1057 C1066 0.930 . S
H1058 C1071 0.929 . S
H1059 C1069 0.929 . S
H1060 C1064 0.929 . S
H1061 C1070 0.929 . S
C1062 H1056 0.930 . S
C1062 C1063 1.367 . S
C1062 C1070 1.378 . S
C1063 C1062 1.367 . S
C1063 C1071 1.433 . S
C1064 H1060 0.929 . S
C1064 C1066 1.378 . S
C1064 C1068 1.350 . S
C1065 C1068 1.463 . S
C1065 C1070 1.350 . S
C1065 N1073 1.427 . S
C1066 H1057 0.930 . S
C1066 C1064 1.378 . S
C1066 C1067 1.367 . S
C1067 C1066 1.367 . S
C1067 C1069 1.433 . S
C1068 C1064 1.350 . S
C1068 C1065 1.463 . S
C1068 N1072 1.427 . S
C1069 H1059 0.929 . S
C1069 C1067 1.433 . S
C1069 N1072 1.384 . S
C1070 H1061 0.929 . S
C1070 C1062 1.378 . S
C1070 C1065 1.350 . S
C1071 H1058 0.929 . S
C1071 C1063 1.433 . S
C1071 N1073 1.384 . S
N1072 C1068 1.427 . S
N1072 C1069 1.384 . S
N1073 C1065 1.427 . S
N1073 C1071 1.384 . S
H1074 C1080 0.930 . S
H1075 C1084 0.930 . S
H1076 C1089 0.929 . S
H1077 C1087 0.929 . S
H1078 C1082 0.929 . S
H1079 C1088 0.929 . S
C1080 H1074 0.930 . S
C1080 C1081 1.367 . S
C1080 C1088 1.378 . S
C1081 C1080 1.367 . S
C1081 C1089 1.433 . S
C1082 H1078 0.929 . S
C1082 C1084 1.378 . S
C1082 C1086 1.350 . S
C1083 C1086 1.463 . S
C1083 C1088 1.350 . S
C1083 N1091 1.427 . S
C1084 H1075 0.930 . S
C1084 C1082 1.378 . S
C1084 C1085 1.367 . S
C1085 C1084 1.367 . S
C1085 C1087 1.433 . S
C1086 C1082 1.350 . S
C1086 C1083 1.463 . S
C1086 N1090 1.427 . S
C1087 H1077 0.929 . S
C1087 C1085 1.433 . S
C1087 N1090 1.384 . S
C1088 H1079 0.929 . S
C1088 C1080 1.378 . S
C1088 C1083 1.350 . S
C1089 H1076 0.929 . S
C1089 C1081 1.433 . S
C1089 N1091 1.384 . S
N1090 C1086 1.427 . S
N1090 C1087 1.384 . S
N1091 C1083 1.427 . S
N1091 C1089 1.384 . S
H1092 C1098 0.930 . S
H1093 C1102 0.930 . S
H1094 C1107 0.929 . S
H1095 C1105 0.958 . S
H1096 C1100 0.929 . S
H1097 C1106 0.929 . S
C1098 H1092 0.930 . S
C1098 C1099 1.367 . S
C1098 C1106 1.378 . S
C1099 C1098 1.367 . S
C1099 C1107 1.433 . S
C1100 H1096 0.929 . S
C1100 C1102 1.378 . S
C1100 C1104 1.350 . S
C1101 C1104 1.463 . S
C1101 C1106 1.350 . S
C1101 N1109 1.427 . S
C1102 H1093 0.930 . S
C1102 C1100 1.378 . S
C1102 C1103 1.367 . S
C1103 C1102 1.367 . S
C1103 C1105 1.426 1_565 S
C1104 C1100 1.350 . S
C1104 C1101 1.463 . S
C1104 N1108 1.427 . S
C1105 H1095 0.958 . S
C1105 C1103 1.426 1_545 S
C1105 N1108 1.361 1_545 S
C1106 H1097 0.929 . S
C1106 C1098 1.378 . S
C1106 C1101 1.350 . S
C1107 H1094 0.929 . S
C1107 C1099 1.433 . S
C1107 N1109 1.384 . S
N1108 C1104 1.427 . S
N1108 C1105 1.361 1_565 S
N1109 C1101 1.427 . S
N1109 C1107 1.384 . S
H1110 C1116 0.930 . S
H1111 C1120 0.930 . S
H1112 C1125 0.929 . S
H1113 C1123 0.929 1_554 S
H1114 C1118 0.929 . S
H1115 C1124 0.929 . S
C1116 H1110 0.930 . S
C1116 C1117 1.367 . S
C1116 C1124 1.378 . S
C1117 C1116 1.367 . S
C1117 C1125 1.433 . S
C1118 H1114 0.929 . S
C1118 C1120 1.378 . S
C1118 C1122 1.350 . S
C1119 C1122 1.463 . S
C1119 C1124 1.350 . S
C1119 N1127 1.427 . S
C1120 H1111 0.930 . S
C1120 C1118 1.378 . S
C1120 C1121 1.367 . S
C1121 C1120 1.367 . S
C1121 C1123 1.433 . S
C1122 C1118 1.350 . S
C1122 C1119 1.463 . S
C1122 N1126 1.427 . S
C1123 H1113 0.929 1_556 S
C1123 C1121 1.433 . S
C1123 N1126 1.384 . S
C1124 H1115 0.929 . S
C1124 C1116 1.378 . S
C1124 C1119 1.350 . S
C1125 H1112 0.929 . S
C1125 C1117 1.433 . S
C1125 N1127 1.384 . S
N1126 C1122 1.427 . S
N1126 C1123 1.384 . S
N1127 C1119 1.427 . S
N1127 C1125 1.384 . S
H1128 C1134 0.930 . S
H1129 C1138 0.930 . S
H1130 C1143 0.929 . S
H1131 C1141 0.969 . S
H1132 C1136 0.929 . S
H1133 C1142 0.929 . S
C1134 H1128 0.930 . S
C1134 C1135 1.367 . S
C1134 C1142 1.378 . S
C1135 C1134 1.367 . S
C1135 C1143 1.433 . S
C1136 H1132 0.929 . S
C1136 C1138 1.378 . S
C1136 C1140 1.350 . S
C1137 C1140 1.463 . S
C1137 C1142 1.350 . S
C1137 N1145 1.427 . S
C1138 H1129 0.930 . S
C1138 C1136 1.378 . S
C1138 C1139 1.367 . S
C1139 C1138 1.367 . S
C1139 C1141 1.423 1_565 S
C1140 C1136 1.350 . S
C1140 C1137 1.463 . S
C1140 N1144 1.427 . S
C1141 H1131 0.969 . S
C1141 C1139 1.423 1_545 S
C1141 N1144 1.353 1_545 S
C1142 H1133 0.929 . S
C1142 C1134 1.378 . S
C1142 C1137 1.350 . S
C1143 H1130 0.929 . S
C1143 C1135 1.433 . S
C1143 N1145 1.384 . S
N1144 C1140 1.427 . S
N1144 C1141 1.353 1_565 S
N1145 C1137 1.427 . S
N1145 C1143 1.384 . S
H1146 C1152 0.930 . S
H1147 C1156 0.930 . S
H1148 C1161 0.929 . S
H1149 C1159 0.929 . S
H1150 C1154 0.929 . S
H1151 C1160 0.929 . S
C1152 H1146 0.930 . S
C1152 C1153 1.367 . S
C1152 C1160 1.378 . S
C1153 C1152 1.367 . S
C1153 C1161 1.433 . S
C1154 H1150 0.929 . S
C1154 C1156 1.378 . S
C1154 C1158 1.350 . S
C1155 C1158 1.463 . S
C1155 C1160 1.350 . S
C1155 N1163 1.427 . S
C1156 H1147 0.930 . S
C1156 C1154 1.378 . S
C1156 C1157 1.367 . S
C1157 C1156 1.367 . S
C1157 C1159 1.433 . S
C1158 C1154 1.350 . S
C1158 C1155 1.463 . S
C1158 N1162 1.427 . S
C1159 H1149 0.929 . S
C1159 C1157 1.433 . S
C1159 N1162 1.384 . S
C1160 H1151 0.929 . S
C1160 C1152 1.378 . S
C1160 C1155 1.350 . S
C1161 H1148 0.929 . S
C1161 C1153 1.433 . S
C1161 N1163 1.384 . S
N1162 C1158 1.427 . S
N1162 C1159 1.384 . S
N1163 C1155 1.427 . S
N1163 C1161 1.384 . S
H1164 C1170 0.930 . S
H1165 C1174 0.930 . S
H1166 C1179 0.929 . S
H1167 C1177 0.929 1_565 S
H1168 C1172 0.929 . S
H1169 C1178 0.929 . S
C1170 H1164 0.930 . S
C1170 C1171 1.367 . S
C1170 C1178 1.378 . S
C1171 C1170 1.367 . S
C1171 C1179 1.433 . S
C1172 H1168 0.929 . S
C1172 C1174 1.378 . S
C1172 C1176 1.350 . S
C1173 C1176 1.463 . S
C1173 C1178 1.350 . S
C1173 N1181 1.427 . S
C1174 H1165 0.930 . S
C1174 C1172 1.378 . S
C1174 C1175 1.367 . S
C1175 C1174 1.367 . S
C1175 C1177 1.433 . S
C1176 C1172 1.350 . S
C1176 C1173 1.463 . S
C1176 N1180 1.427 . S
C1177 H1167 0.929 1_545 S
C1177 C1175 1.433 . S
C1177 N1180 1.384 . S
C1178 H1169 0.929 . S
C1178 C1170 1.378 . S
C1178 C1173 1.350 . S
C1179 H1166 0.929 . S
C1179 C1171 1.433 . S
C1179 N1181 1.384 . S
N1180 C1176 1.427 . S
N1180 C1177 1.384 . S
N1181 C1173 1.427 . S
N1181 C1179 1.384 . S
H1182 C1188 0.930 . S
H1183 C1192 0.930 . S
H1184 C1197 0.929 . S
H1185 C1195 0.929 . S
H1186 C1190 0.929 . S
H1187 C1196 0.929 . S
C1188 H1182 0.930 . S
C1188 C1189 1.367 . S
C1188 C1196 1.378 . S
C1189 C1188 1.367 . S
C1189 C1197 1.433 . S
C1190 H1186 0.929 . S
C1190 C1192 1.378 . S
C1190 C1194 1.350 . S
C1191 C1194 1.463 . S
C1191 C1196 1.350 . S
C1191 N1199 1.427 . S
C1192 H1183 0.930 . S
C1192 C1190 1.378 . S
C1192 C1193 1.367 . S
C1193 C1192 1.367 . S
C1193 C1195 1.433 . S
C1194 C1190 1.350 . S
C1194 C1191 1.463 . S
C1194 N1198 1.427 . S
C1195 H1185 0.929 . S
C1195 C1193 1.433 . S
C1195 N1198 1.384 . S
C1196 H1187 0.929 . S
C1196 C1188 1.378 . S
C1196 C1191 1.350 . S
C1197 H1184 0.929 . S
C1197 C1189 1.433 . S
C1197 N1199 1.384 . S
N1198 C1194 1.427 . S
N1198 C1195 1.384 . S
N1199 C1191 1.427 . S
N1199 C1197 1.384 . S
H1200 C1206 0.930 . S
H1201 C1210 0.930 . S
H1202 C1215 0.923 1_545 S
H1203 C1213 0.929 . S
H1204 C1208 0.929 . S
H1205 C1214 0.929 . S
C1206 H1200 0.930 . S
C1206 C1207 1.367 . S
C1206 C1214 1.378 . S
C1207 C1206 1.367 . S
C1207 C1215 1.435 . S
C1208 H1204 0.929 . S
C1208 C1210 1.378 . S
C1208 C1212 1.350 . S
C1209 C1212 1.463 . S
C1209 C1214 1.350 . S
C1209 N1217 1.427 . S
C1210 H1201 0.930 . S
C1210 C1208 1.378 . S
C1210 C1211 1.367 . S
C1211 C1210 1.367 . S
C1211 C1213 1.433 . S
C1212 C1208 1.350 . S
C1212 C1209 1.463 . S
C1212 N1216 1.427 . S
C1213 H1203 0.929 . S
C1213 C1211 1.433 . S
C1213 N1216 1.384 . S
C1214 H1205 0.929 . S
C1214 C1206 1.378 . S
C1214 C1209 1.350 . S
C1215 H1202 0.923 1_565 S
C1215 C1207 1.435 . S
C1215 N1217 1.389 . S
N1216 C1212 1.427 . S
N1216 C1213 1.384 . S
N1217 C1209 1.427 . S
N1217 C1215 1.389 . S
H1218 C1224 0.930 . S
H1219 C1228 0.930 . S
H1220 C1233 0.929 . S
H1221 C1231 0.929 . S
H1222 C1226 0.929 . S
H1223 C1232 0.929 . S
C1224 H1218 0.930 . S
C1224 C1225 1.367 . S
C1224 C1232 1.378 . S
C1225 C1224 1.367 . S
C1225 C1233 1.433 . S
C1226 H1222 0.929 . S
C1226 C1228 1.378 . S
C1226 C1230 1.350 . S
C1227 C1230 1.463 . S
C1227 C1232 1.350 . S
C1227 N1235 1.427 . S
C1228 H1219 0.930 . S
C1228 C1226 1.378 . S
C1228 C1229 1.367 . S
C1229 C1228 1.367 . S
C1229 C1231 1.433 . S
C1230 C1226 1.350 . S
C1230 C1227 1.463 . S
C1230 N1234 1.427 . S
C1231 H1221 0.929 . S
C1231 C1229 1.433 . S
C1231 N1234 1.384 . S
C1232 H1223 0.929 . S
C1232 C1224 1.378 . S
C1232 C1227 1.350 . S
C1233 H1220 0.929 . S
C1233 C1225 1.433 . S
C1233 N1235 1.384 . S
N1234 C1230 1.427 . S
N1234 C1231 1.384 . S
N1235 C1227 1.427 . S
N1235 C1233 1.384 . S
H1236 C1242 0.930 . S
H1237 C1246 0.930 . S
H1238 C1251 0.929 . S
H1239 C1249 0.960 . S
H1240 C1244 0.929 . S
H1241 C1250 0.929 . S
C1242 H1236 0.930 . S
C1242 C1243 1.367 . S
C1242 C1250 1.378 . S
C1243 C1242 1.367 . S
C1243 C1251 1.433 . S
C1244 H1240 0.929 . S
C1244 C1246 1.378 . S
C1244 C1248 1.350 . S
C1245 C1248 1.463 . S
C1245 C1250 1.350 . S
C1245 N1253 1.427 . S
C1246 H1237 0.930 . S
C1246 C1244 1.378 . S
C1246 C1247 1.367 . S
C1247 C1246 1.367 . S
C1247 C1249 1.426 1_545 S
C1248 C1244 1.350 . S
C1248 C1245 1.463 . S
C1248 N1252 1.427 . S
C1249 H1239 0.960 . S
C1249 C1247 1.426 1_565 S
C1249 N1252 1.360 1_565 S
C1250 H1241 0.929 . S
C1250 C1242 1.378 . S
C1250 C1245 1.350 . S
C1251 H1238 0.929 . S
C1251 C1243 1.433 . S
C1251 N1253 1.384 . S
N1252 C1248 1.427 . S
N1252 C1249 1.360 1_545 S
N1253 C1245 1.427 . S
N1253 C1251 1.384 . S
H1254 C1260 0.931 1_556 S
H1255 C1264 0.930 . S
H1256 C1269 0.929 . S
H1257 C1267 0.929 . S
H1258 C1262 0.929 . S
H1259 C1268 0.929 . S
C1260 H1254 0.931 1_554 S
C1260 C1261 1.366 . S
C1260 C1268 1.377 . S
C1261 C1260 1.366 . S
C1261 C1269 1.433 . S
C1262 H1258 0.929 . S
C1262 C1264 1.378 . S
C1262 C1266 1.350 . S
C1263 C1266 1.463 . S
C1263 C1268 1.350 . S
C1263 N1271 1.427 . S
C1264 H1255 0.930 . S
C1264 C1262 1.378 . S
C1264 C1265 1.367 . S
C1265 C1264 1.367 . S
C1265 C1267 1.433 . S
C1266 C1262 1.350 . S
C1266 C1263 1.463 . S
C1266 N1270 1.427 . S
C1267 H1257 0.929 . S
C1267 C1265 1.433 . S
C1267 N1270 1.384 . S
C1268 H1259 0.929 . S
C1268 C1260 1.377 . S
C1268 C1263 1.350 . S
C1269 H1256 0.929 . S
C1269 C1261 1.433 . S
C1269 N1271 1.384 . S
N1270 C1266 1.427 . S
N1270 C1267 1.384 . S
N1271 C1263 1.427 . S
N1271 C1269 1.384 . S
H1272 C1278 0.930 . S
H1273 C1282 0.930 . S
H1274 C1287 0.929 . S
H1275 C1285 0.929 1_565 S
H1276 C1280 0.929 . S
H1277 C1286 0.929 . S
C1278 H1272 0.930 . S
C1278 C1279 1.367 . S
C1278 C1286 1.378 . S
C1279 C1278 1.367 . S
C1279 C1287 1.433 . S
C1280 H1276 0.929 . S
C1280 C1282 1.378 . S
C1280 C1284 1.350 . S
C1281 C1284 1.463 . S
C1281 C1286 1.350 . S
C1281 N1289 1.427 . S
C1282 H1273 0.930 . S
C1282 C1280 1.378 . S
C1282 C1283 1.367 . S
C1283 C1282 1.367 . S
C1283 C1285 1.433 . S
C1284 C1280 1.350 . S
C1284 C1281 1.463 . S
C1284 N1288 1.427 . S
C1285 H1275 0.929 1_545 S
C1285 C1283 1.433 . S
C1285 N1288 1.384 . S
C1286 H1277 0.929 . S
C1286 C1278 1.378 . S
C1286 C1281 1.350 . S
C1287 H1274 0.929 . S
C1287 C1279 1.433 . S
C1287 N1289 1.384 . S
N1288 C1284 1.427 . S
N1288 C1285 1.384 . S
N1289 C1281 1.427 . S
N1289 C1287 1.384 . S
H1290 C1296 0.930 . S
H1291 C1300 0.930 . S
H1292 C1305 0.929 . S
H1293 C1303 0.929 . S
H1294 C1298 0.929 . S
H1295 C1304 0.929 . S
C1296 H1290 0.930 . S
C1296 C1297 1.367 . S
C1296 C1304 1.378 . S
C1297 C1296 1.367 . S
C1297 C1305 1.433 . S
C1298 H1294 0.929 . S
C1298 C1300 1.378 . S
C1298 C1302 1.350 . S
C1299 C1302 1.463 . S
C1299 C1304 1.350 . S
C1299 N1307 1.427 . S
C1300 H1291 0.930 . S
C1300 C1298 1.378 . S
C1300 C1301 1.367 . S
C1301 C1300 1.367 . S
C1301 C1303 1.433 1_556 S
C1302 C1298 1.350 . S
C1302 C1299 1.463 . S
C1302 N1306 1.427 . S
C1303 H1293 0.929 . S
C1303 C1301 1.433 1_554 S
C1303 N1306 1.384 1_554 S
C1304 H1295 0.929 . S
C1304 C1296 1.378 . S
C1304 C1299 1.350 . S
C1305 H1292 0.929 . S
C1305 C1297 1.433 . S
C1305 N1307 1.384 . S
N1306 C1302 1.427 . S
N1306 C1303 1.384 1_556 S
N1307 C1299 1.427 . S
N1307 C1305 1.384 . S
H1308 C1314 0.930 1_545 S
H1309 C1318 0.930 . S
H1310 C1323 0.929 . S
H1311 C1321 0.929 . S
H1312 C1316 0.929 . S
H1313 C1322 0.929 . S
C1314 H1308 0.930 1_565 S
C1314 C1315 1.367 . S
C1314 C1322 1.378 . S
C1315 C1314 1.367 . S
C1315 C1323 1.433 . S
C1316 H1312 0.929 . S
C1316 C1318 1.378 . S
C1316 C1320 1.350 . S
C1317 C1320 1.463 . S
C1317 C1322 1.350 . S
C1317 N1325 1.427 . S
C1318 H1309 0.930 . S
C1318 C1316 1.378 . S
C1318 C1319 1.367 . S
C1319 C1318 1.367 . S
C1319 C1321 1.433 . S
C1320 C1316 1.350 . S
C1320 C1317 1.463 . S
C1320 N1324 1.427 . S
C1321 H1311 0.929 . S
C1321 C1319 1.433 . S
C1321 N1324 1.384 . S
C1322 H1313 0.929 . S
C1322 C1314 1.378 . S
C1322 C1317 1.350 . S
C1323 H1310 0.929 . S
C1323 C1315 1.433 . S
C1323 N1325 1.384 . S
N1324 C1320 1.427 . S
N1324 C1321 1.384 . S
N1325 C1317 1.427 . S
N1325 C1323 1.384 . S
H1326 C1332 0.930 . S
H1327 C1336 0.930 . S
H1328 C1341 0.929 . S
H1329 C1339 0.929 . S
H1330 C1334 0.929 . S
H1331 C1340 0.929 . S
C1332 H1326 0.930 . S
C1332 C1333 1.367 . S
C1332 C1340 1.378 . S
C1333 C1332 1.367 . S
C1333 C1341 1.433 . S
C1334 H1330 0.929 . S
C1334 C1336 1.378 . S
C1334 C1338 1.350 . S
C1335 C1338 1.463 . S
C1335 C1340 1.350 . S
C1335 N1343 1.427 . S
C1336 H1327 0.930 . S
C1336 C1334 1.378 . S
C1336 C1337 1.367 . S
C1337 C1336 1.367 . S
C1337 C1339 1.433 . S
C1338 C1334 1.350 . S
C1338 C1335 1.463 . S
C1338 N1342 1.427 . S
C1339 H1329 0.929 . S
C1339 C1337 1.433 . S
C1339 N1342 1.384 . S
C1340 H1331 0.929 . S
C1340 C1332 1.378 . S
C1340 C1335 1.350 . S
C1341 H1328 0.929 . S
C1341 C1333 1.433 . S
C1341 N1343 1.384 . S
N1342 C1338 1.427 . S
N1342 C1339 1.384 . S
N1343 C1335 1.427 . S
N1343 C1341 1.384 . S
H1344 C1350 0.930 . S
H1345 C1354 0.930 . S
H1346 C1359 0.929 . S
H1347 C1357 0.929 . S
H1348 C1352 0.929 . S
H1349 C1358 0.929 . S
C1350 H1344 0.930 . S
C1350 C1351 1.367 . S
C1350 C1358 1.378 . S
C1351 C1350 1.367 . S
C1351 C1359 1.433 . S
C1352 H1348 0.929 . S
C1352 C1354 1.378 . S
C1352 C1356 1.350 . S
C1353 C1356 1.463 . S
C1353 C1358 1.350 . S
C1353 N1361 1.427 . S
C1354 H1345 0.930 . S
C1354 C1352 1.378 . S
C1354 C1355 1.367 . S
C1355 C1354 1.367 . S
C1355 C1357 1.433 . S
C1356 C1352 1.350 . S
C1356 C1353 1.463 . S
C1356 N1360 1.427 . S
C1357 H1347 0.929 . S
C1357 C1355 1.433 . S
C1357 N1360 1.384 . S
C1358 H1349 0.929 . S
C1358 C1350 1.378 . S
C1358 C1353 1.350 . S
C1359 H1346 0.929 . S
C1359 C1351 1.433 . S
C1359 N1361 1.384 . S
N1360 C1356 1.427 . S
N1360 C1357 1.384 . S
N1361 C1353 1.427 . S
N1361 C1359 1.384 . S
H1362 C1368 0.930 . S
H1363 C1372 0.930 . S
H1364 C1377 0.929 . S
H1365 C1375 0.929 . S
H1366 C1370 0.929 . S
H1367 C1376 0.929 . S
C1368 H1362 0.930 . S
C1368 C1369 1.367 . S
C1368 C1376 1.378 . S
C1369 C1368 1.367 . S
C1369 C1377 1.433 . S
C1370 H1366 0.929 . S
C1370 C1372 1.378 . S
C1370 C1374 1.350 . S
C1371 C1374 1.463 . S
C1371 C1376 1.350 . S
C1371 N1379 1.427 . S
C1372 H1363 0.930 . S
C1372 C1370 1.378 . S
C1372 C1373 1.367 . S
C1373 C1372 1.367 . S
C1373 C1375 1.433 . S
C1374 C1370 1.350 . S
C1374 C1371 1.463 . S
C1374 N1378 1.427 . S
C1375 H1365 0.929 . S
C1375 C1373 1.433 . S
C1375 N1378 1.384 . S
C1376 H1367 0.929 . S
C1376 C1368 1.378 . S
C1376 C1371 1.350 . S
C1377 H1364 0.929 . S
C1377 C1369 1.433 . S
C1377 N1379 1.384 . S
N1378 C1374 1.427 . S
N1378 C1375 1.384 . S
N1379 C1371 1.427 . S
N1379 C1377 1.384 . S
H1380 C1386 0.930 . S
H1381 C1390 0.930 . S
H1382 C1395 0.929 . S
H1383 C1393 0.929 . S
H1384 C1388 0.929 . S
H1385 C1394 0.929 . S
C1386 H1380 0.930 . S
C1386 C1387 1.367 . S
C1386 C1394 1.378 . S
C1387 C1386 1.367 . S
C1387 C1395 1.433 . S
C1388 H1384 0.929 . S
C1388 C1390 1.378 . S
C1388 C1392 1.350 . S
C1389 C1392 1.463 . S
C1389 C1394 1.350 . S
C1389 N1397 1.427 . S
C1390 H1381 0.930 . S
C1390 C1388 1.378 . S
C1390 C1391 1.367 . S
C1391 C1390 1.367 . S
C1391 C1393 1.433 . S
C1392 C1388 1.350 . S
C1392 C1389 1.463 . S
C1392 N1396 1.427 . S
C1393 H1383 0.929 . S
C1393 C1391 1.433 . S
C1393 N1396 1.384 . S
C1394 H1385 0.929 . S
C1394 C1386 1.378 . S
C1394 C1389 1.350 . S
C1395 H1382 0.929 . S
C1395 C1387 1.433 . S
C1395 N1397 1.384 . S
N1396 C1392 1.427 . S
N1396 C1393 1.384 . S
N1397 C1389 1.427 . S
N1397 C1395 1.384 . S
H1398 C1404 0.930 . S
H1399 C1408 0.930 . S
H1400 C1413 0.929 . S
H1401 C1411 0.929 . S
H1402 C1406 0.929 . S
H1403 C1412 0.929 . S
C1404 H1398 0.930 . S
C1404 C1405 1.367 . S
C1404 C1412 1.378 . S
C1405 C1404 1.367 . S
C1405 C1413 1.433 . S
C1406 H1402 0.929 . S
C1406 C1408 1.378 . S
C1406 C1410 1.350 . S
C1407 C1410 1.463 . S
C1407 C1412 1.350 . S
C1407 N1415 1.427 . S
C1408 H1399 0.930 . S
C1408 C1406 1.378 . S
C1408 C1409 1.367 . S
C1409 C1408 1.367 . S
C1409 C1411 1.433 . S
C1410 C1406 1.350 . S
C1410 C1407 1.463 . S
C1410 N1414 1.427 . S
C1411 H1401 0.929 . S
C1411 C1409 1.433 . S
C1411 N1414 1.384 . S
C1412 H1403 0.929 . S
C1412 C1404 1.378 . S
C1412 C1407 1.350 . S
C1413 H1400 0.929 . S
C1413 C1405 1.433 . S
C1413 N1415 1.384 . S
N1414 C1410 1.427 . S
N1414 C1411 1.384 . S
N1415 C1407 1.427 . S
N1415 C1413 1.384 . S
H1416 C1422 0.930 . S
H1417 C1426 0.930 . S
H1418 C1431 0.929 . S
H1419 C1429 0.929 . S
H1420 C1424 0.929 . S
H1421 C1430 0.929 . S
C1422 H1416 0.930 . S
C1422 C1423 1.367 . S
C1422 C1430 1.378 . S
C1423 C1422 1.367 . S
C1423 C1431 1.433 . S
C1424 H1420 0.929 . S
C1424 C1426 1.378 . S
C1424 C1428 1.350 . S
C1425 C1428 1.463 . S
C1425 C1430 1.350 . S
C1425 N1433 1.427 . S
C1426 H1417 0.930 . S
C1426 C1424 1.378 . S
C1426 C1427 1.367 . S
C1427 C1426 1.367 . S
C1427 C1429 1.433 . S
C1428 C1424 1.350 . S
C1428 C1425 1.463 . S
C1428 N1432 1.427 . S
C1429 H1419 0.929 . S
C1429 C1427 1.433 . S
C1429 N1432 1.384 . S
C1430 H1421 0.929 . S
C1430 C1422 1.378 . S
C1430 C1425 1.350 . S
C1431 H1418 0.929 . S
C1431 C1423 1.433 . S
C1431 N1433 1.384 . S
N1432 C1428 1.427 . S
N1432 C1429 1.384 . S
N1433 C1425 1.427 . S
N1433 C1431 1.384 . S
H1434 C1440 0.930 . S
H1435 C1444 0.930 . S
H1436 C1449 0.929 . S
H1437 C1447 0.929 . S
H1438 C1442 0.929 . S
H1439 C1448 0.929 . S
C1440 H1434 0.930 . S
C1440 C1441 1.367 . S
C1440 C1448 1.378 . S
C1441 C1440 1.367 . S
C1441 C1449 1.433 . S
C1442 H1438 0.929 . S
C1442 C1444 1.378 . S
C1442 C1446 1.350 . S
C1443 C1446 1.463 . S
C1443 C1448 1.350 . S
C1443 N1451 1.427 . S
C1444 H1435 0.930 . S
C1444 C1442 1.378 . S
C1444 C1445 1.367 . S
C1445 C1444 1.367 . S
C1445 C1447 1.433 . S
C1446 C1442 1.350 . S
C1446 C1443 1.463 . S
C1446 N1450 1.427 . S
C1447 H1437 0.929 . S
C1447 C1445 1.433 . S
C1447 N1450 1.384 . S
C1448 H1439 0.929 . S
C1448 C1440 1.378 . S
C1448 C1443 1.350 . S
C1449 H1436 0.929 . S
C1449 C1441 1.433 . S
C1449 N1451 1.384 . S
N1450 C1446 1.427 . S
N1450 C1447 1.384 . S
N1451 C1443 1.427 . S
N1451 C1449 1.384 . S
H1452 C1458 0.930 . S
H1453 C1462 0.930 . S
H1454 C1467 0.929 . S
H1455 C1465 0.929 . S
H1456 C1460 0.929 . S
H1457 C1466 0.929 . S
C1458 H1452 0.930 . S
C1458 C1459 1.367 . S
C1458 C1466 1.378 . S
C1459 C1458 1.367 . S
C1459 C1467 1.433 . S
C1460 H1456 0.929 . S
C1460 C1462 1.378 . S
C1460 C1464 1.350 . S
C1461 C1464 1.463 . S
C1461 C1466 1.350 . S
C1461 N1469 1.427 . S
C1462 H1453 0.930 . S
C1462 C1460 1.378 . S
C1462 C1463 1.367 . S
C1463 C1462 1.367 . S
C1463 C1465 1.433 . S
C1464 C1460 1.350 . S
C1464 C1461 1.463 . S
C1464 N1468 1.427 . S
C1465 H1455 0.929 . S
C1465 C1463 1.433 . S
C1465 N1468 1.384 . S
C1466 H1457 0.929 . S
C1466 C1458 1.378 . S
C1466 C1461 1.350 . S
C1467 H1454 0.929 . S
C1467 C1459 1.433 . S
C1467 N1469 1.384 . S
N1468 C1464 1.427 . S
N1468 C1465 1.384 . S
N1469 C1461 1.427 . S
N1469 C1467 1.384 . S
H1470 C1476 0.930 . S
H1471 C1480 0.930 . S
H1472 C1485 0.929 . S
H1473 C1483 0.929 1_556 S
H1474 C1478 0.929 . S
H1475 C1484 0.929 . S
C1476 H1470 0.930 . S
C1476 C1477 1.367 . S
C1476 C1484 1.378 . S
C1477 C1476 1.367 . S
C1477 C1485 1.433 . S
C1478 H1474 0.929 . S
C1478 C1480 1.378 . S
C1478 C1482 1.350 . S
C1479 C1482 1.463 . S
C1479 C1484 1.350 . S
C1479 N1487 1.427 . S
C1480 H1471 0.930 . S
C1480 C1478 1.378 . S
C1480 C1481 1.367 . S
C1481 C1480 1.367 . S
C1481 C1483 1.433 . S
C1482 C1478 1.350 . S
C1482 C1479 1.463 . S
C1482 N1486 1.427 . S
C1483 H1473 0.929 1_554 S
C1483 C1481 1.433 . S
C1483 N1486 1.384 . S
C1484 H1475 0.929 . S
C1484 C1476 1.378 . S
C1484 C1479 1.350 . S
C1485 H1472 0.929 . S
C1485 C1477 1.433 . S
C1485 N1487 1.384 . S
N1486 C1482 1.427 . S
N1486 C1483 1.384 . S
N1487 C1479 1.427 . S
N1487 C1485 1.384 . S
H1488 C1494 0.930 . S
H1489 C1498 0.930 . S
H1490 C1503 0.929 . S
H1491 C1501 0.929 . S
H1492 C1496 0.929 . S
H1493 C1502 0.929 . S
C1494 H1488 0.930 . S
C1494 C1495 1.367 . S
C1494 C1502 1.378 . S
C1495 C1494 1.367 . S
C1495 C1503 1.433 . S
C1496 H1492 0.929 . S
C1496 C1498 1.378 . S
C1496 C1500 1.350 . S
C1497 C1500 1.463 . S
C1497 C1502 1.350 . S
C1497 N1505 1.427 . S
C1498 H1489 0.930 . S
C1498 C1496 1.378 . S
C1498 C1499 1.367 . S
C1499 C1498 1.367 . S
C1499 C1501 1.433 . S
C1500 C1496 1.350 . S
C1500 C1497 1.463 . S
C1500 N1504 1.427 . S
C1501 H1491 0.929 . S
C1501 C1499 1.433 . S
C1501 N1504 1.384 . S
C1502 H1493 0.929 . S
C1502 C1494 1.378 . S
C1502 C1497 1.350 . S
C1503 H1490 0.929 . S
C1503 C1495 1.433 . S
C1503 N1505 1.384 . S
N1504 C1500 1.427 . S
N1504 C1501 1.384 . S
N1505 C1497 1.427 . S
N1505 C1503 1.384 . S
H1506 C1512 0.930 . S
H1507 C1516 0.930 . S
H1508 C1521 0.929 . S
H1509 C1519 0.929 1_556 S
H1510 C1514 0.929 . S
H1511 C1520 0.929 . S
C1512 H1506 0.930 . S
C1512 C1513 1.367 . S
C1512 C1520 1.378 . S
C1513 C1512 1.367 . S
C1513 C1521 1.433 . S
C1514 H1510 0.929 . S
C1514 C1516 1.378 . S
C1514 C1518 1.350 . S
C1515 C1518 1.463 . S
C1515 C1520 1.350 . S
C1515 N1523 1.427 . S
C1516 H1507 0.930 . S
C1516 C1514 1.378 . S
C1516 C1517 1.367 . S
C1517 C1516 1.367 . S
C1517 C1519 1.433 . S
C1518 C1514 1.350 . S
C1518 C1515 1.463 . S
C1518 N1522 1.427 . S
C1519 H1509 0.929 1_554 S
C1519 C1517 1.433 . S
C1519 N1522 1.384 . S
C1520 H1511 0.929 . S
C1520 C1512 1.378 . S
C1520 C1515 1.350 . S
C1521 H1508 0.929 . S
C1521 C1513 1.433 . S
C1521 N1523 1.384 . S
N1522 C1518 1.427 . S
N1522 C1519 1.384 . S
N1523 C1515 1.427 . S
N1523 C1521 1.384 . S
H1524 C1530 0.930 . S
H1525 C1534 0.930 . S
H1526 C1539 0.929 . S
H1527 C1537 0.929 . S
H1528 C1532 0.929 . S
H1529 C1538 0.929 . S
C1530 H1524 0.930 . S
C1530 C1531 1.367 . S
C1530 C1538 1.378 . S
C1531 C1530 1.367 . S
C1531 C1539 1.433 . S
C1532 H1528 0.929 . S
C1532 C1534 1.378 . S
C1532 C1536 1.350 . S
C1533 C1536 1.463 . S
C1533 C1538 1.350 . S
C1533 N1541 1.427 . S
C1534 H1525 0.930 . S
C1534 C1532 1.378 . S
C1534 C1535 1.367 . S
C1535 C1534 1.367 . S
C1535 C1537 1.433 . S
C1536 C1532 1.350 . S
C1536 C1533 1.463 . S
C1536 N1540 1.427 . S
C1537 H1527 0.929 . S
C1537 C1535 1.433 . S
C1537 N1540 1.384 . S
C1538 H1529 0.929 . S
C1538 C1530 1.378 . S
C1538 C1533 1.350 . S
C1539 H1526 0.929 . S
C1539 C1531 1.433 . S
C1539 N1541 1.384 . S
N1540 C1536 1.427 . S
N1540 C1537 1.384 . S
N1541 C1533 1.427 . S
N1541 C1539 1.384 . S
H1542 C1548 0.930 . S
H1543 C1552 0.930 . S
H1544 C1557 0.929 . S
H1545 C1555 0.929 . S
H1546 C1550 0.929 . S
H1547 C1556 0.929 . S
C1548 H1542 0.930 . S
C1548 C1549 1.367 . S
C1548 C1556 1.378 . S
C1549 C1548 1.367 . S
C1549 C1557 1.433 . S
C1550 H1546 0.929 . S
C1550 C1552 1.378 . S
C1550 C1554 1.350 . S
C1551 C1554 1.463 . S
C1551 C1556 1.350 . S
C1551 N1559 1.427 . S
C1552 H1543 0.930 . S
C1552 C1550 1.378 . S
C1552 C1553 1.367 . S
C1553 C1552 1.367 . S
C1553 C1555 1.433 . S
C1554 C1550 1.350 . S
C1554 C1551 1.463 . S
C1554 N1558 1.427 . S
C1555 H1545 0.929 . S
C1555 C1553 1.433 . S
C1555 N1558 1.384 . S
C1556 H1547 0.929 . S
C1556 C1548 1.378 . S
C1556 C1551 1.350 . S
C1557 H1544 0.929 . S
C1557 C1549 1.433 . S
C1557 N1559 1.384 . S
N1558 C1554 1.427 . S
N1558 C1555 1.384 . S
N1559 C1551 1.427 . S
N1559 C1557 1.384 . S
H1560 C1566 0.930 . S
H1561 C1570 0.930 . S
H1562 C1575 0.929 . S
H1563 C1573 0.929 . S
H1564 C1568 0.929 . S
H1565 C1574 0.929 . S
C1566 H1560 0.930 . S
C1566 C1567 1.367 . S
C1566 C1574 1.378 . S
C1567 C1566 1.367 . S
C1567 C1575 1.433 . S
C1568 H1564 0.929 . S
C1568 C1570 1.378 . S
C1568 C1572 1.350 . S
C1569 C1572 1.463 . S
C1569 C1574 1.350 . S
C1569 N1577 1.427 . S
C1570 H1561 0.930 . S
C1570 C1568 1.378 . S
C1570 C1571 1.367 . S
C1571 C1570 1.367 . S
C1571 C1573 1.433 . S
C1572 C1568 1.350 . S
C1572 C1569 1.463 . S
C1572 N1576 1.427 . S
C1573 H1563 0.929 . S
C1573 C1571 1.433 . S
C1573 N1576 1.384 . S
C1574 H1565 0.929 . S
C1574 C1566 1.378 . S
C1574 C1569 1.350 . S
C1575 H1562 0.929 . S
C1575 C1567 1.433 . S
C1575 N1577 1.384 . S
N1576 C1572 1.427 . S
N1576 C1573 1.384 . S
N1577 C1569 1.427 . S
N1577 C1575 1.384 . S
H1578 C1584 0.930 . S
H1579 C1588 0.930 . S
H1580 C1593 0.929 . S
H1581 C1591 0.929 . S
H1582 C1586 0.929 . S
H1583 C1592 0.929 . S
C1584 H1578 0.930 . S
C1584 C1585 1.367 . S
C1584 C1592 1.378 . S
C1585 C1584 1.367 . S
C1585 C1593 1.433 . S
C1586 H1582 0.929 . S
C1586 C1588 1.378 . S
C1586 C1590 1.350 . S
C1587 C1590 1.463 . S
C1587 C1592 1.350 . S
C1587 N1595 1.427 . S
C1588 H1579 0.930 . S
C1588 C1586 1.378 . S
C1588 C1589 1.367 . S
C1589 C1588 1.367 . S
C1589 C1591 1.433 . S
C1590 C1586 1.350 . S
C1590 C1587 1.463 . S
C1590 N1594 1.427 . S
C1591 H1581 0.929 . S
C1591 C1589 1.433 . S
C1591 N1594 1.384 . S
C1592 H1583 0.929 . S
C1592 C1584 1.378 . S
C1592 C1587 1.350 . S
C1593 H1580 0.929 . S
C1593 C1585 1.433 . S
C1593 N1595 1.384 . S
N1594 C1590 1.427 . S
N1594 C1591 1.384 . S
N1595 C1587 1.427 . S
N1595 C1593 1.384 . S
H1596 C1602 0.930 . S
H1597 C1606 0.930 . S
H1598 C1611 0.929 . S
H1599 C1609 0.929 . S
H1600 C1604 0.929 . S
H1601 C1610 0.929 . S
C1602 H1596 0.930 . S
C1602 C1603 1.367 . S
C1602 C1610 1.378 . S
C1603 C1602 1.367 . S
C1603 C1611 1.433 . S
C1604 H1600 0.929 . S
C1604 C1606 1.378 . S
C1604 C1608 1.350 . S
C1605 C1608 1.463 . S
C1605 C1610 1.350 . S
C1605 N1613 1.427 . S
C1606 H1597 0.930 . S
C1606 C1604 1.378 . S
C1606 C1607 1.367 . S
C1607 C1606 1.367 . S
C1607 C1609 1.433 . S
C1608 C1604 1.350 . S
C1608 C1605 1.463 . S
C1608 N1612 1.427 . S
C1609 H1599 0.929 . S
C1609 C1607 1.433 . S
C1609 N1612 1.384 . S
C1610 H1601 0.929 . S
C1610 C1602 1.378 . S
C1610 C1605 1.350 . S
C1611 H1598 0.929 . S
C1611 C1603 1.433 . S
C1611 N1613 1.384 . S
N1612 C1608 1.427 . S
N1612 C1609 1.384 . S
N1613 C1605 1.427 . S
N1613 C1611 1.384 . S
H1614 C1620 0.930 . S
H1615 C1624 0.930 . S
H1616 C1629 0.929 . S
H1617 C1627 0.929 . S
H1618 C1622 0.929 . S
H1619 C1628 0.929 . S
C1620 H1614 0.930 . S
C1620 C1621 1.367 . S
C1620 C1628 1.378 . S
C1621 C1620 1.367 . S
C1621 C1629 1.433 . S
C1622 H1618 0.929 . S
C1622 C1624 1.378 . S
C1622 C1626 1.350 . S
C1623 C1626 1.463 . S
C1623 C1628 1.350 . S
C1623 N1631 1.427 . S
C1624 H1615 0.930 . S
C1624 C1622 1.378 . S
C1624 C1625 1.367 . S
C1625 C1624 1.367 . S
C1625 C1627 1.433 . S
C1626 C1622 1.350 . S
C1626 C1623 1.463 . S
C1626 N1630 1.427 . S
C1627 H1617 0.929 . S
C1627 C1625 1.433 . S
C1627 N1630 1.384 . S
C1628 H1619 0.929 . S
C1628 C1620 1.378 . S
C1628 C1623 1.350 . S
C1629 H1616 0.929 . S
C1629 C1621 1.433 . S
C1629 N1631 1.384 . S
N1630 C1626 1.427 . S
N1630 C1627 1.384 . S
N1631 C1623 1.427 . S
N1631 C1629 1.384 . S
H1632 C1638 0.930 . S
H1633 C1642 0.930 . S
H1634 C1647 0.929 . S
H1635 C1645 0.929 . S
H1636 C1640 0.929 . S
H1637 C1646 0.929 . S
C1638 H1632 0.930 . S
C1638 C1639 1.367 . S
C1638 C1646 1.378 . S
C1639 C1638 1.367 . S
C1639 C1647 1.433 . S
C1640 H1636 0.929 . S
C1640 C1642 1.378 . S
C1640 C1644 1.350 . S
C1641 C1644 1.463 . S
C1641 C1646 1.350 . S
C1641 N1649 1.427 . S
C1642 H1633 0.930 . S
C1642 C1640 1.378 . S
C1642 C1643 1.367 . S
C1643 C1642 1.367 . S
C1643 C1645 1.433 . S
C1644 C1640 1.350 . S
C1644 C1641 1.463 . S
C1644 N1648 1.427 . S
C1645 H1635 0.929 . S
C1645 C1643 1.433 . S
C1645 N1648 1.384 . S
C1646 H1637 0.929 . S
C1646 C1638 1.378 . S
C1646 C1641 1.350 . S
C1647 H1634 0.929 . S
C1647 C1639 1.433 . S
C1647 N1649 1.384 . S
N1648 C1644 1.427 . S
N1648 C1645 1.384 . S
N1649 C1641 1.427 . S
N1649 C1647 1.384 . S
H1650 C1656 0.930 . S
H1651 C1660 0.930 . S
H1652 C1665 0.937 . S
H1653 C1663 0.937 . S
H1654 C1658 0.929 . S
H1655 C1664 0.929 . S
C1656 H1650 0.930 . S
C1656 C1657 1.367 . S
C1656 C1664 1.378 . S
C1657 C1656 1.367 . S
C1657 C1665 1.420 1_565 S
C1658 H1654 0.929 . S
C1658 C1660 1.378 . S
C1658 C1662 1.350 . S
C1659 C1662 1.463 1_565 S
C1659 C1664 1.350 . S
C1659 N1667 1.427 1_565 S
C1660 H1651 0.930 . S
C1660 C1658 1.378 . S
C1660 C1661 1.367 . S
C1661 C1660 1.367 . S
C1661 C1663 1.420 1_545 S
C1662 C1658 1.350 . S
C1662 C1659 1.463 1_545 S
C1662 N1666 1.427 1_545 S
C1663 H1653 0.937 . S
C1663 C1661 1.420 1_565 S
C1663 N1666 1.389 . S
C1664 H1655 0.929 . S
C1664 C1656 1.378 . S
C1664 C1659 1.350 . S
C1665 H1652 0.937 . S
C1665 C1657 1.420 1_545 S
C1665 N1667 1.389 . S
N1666 C1662 1.427 1_565 S
N1666 C1663 1.389 . S
N1667 C1659 1.427 1_545 S
N1667 C1665 1.389 . S
H1668 C1674 0.930 . S
H1669 C1678 0.930 . S
H1670 C1683 0.929 . S
H1671 C1681 0.929 . S
H1672 C1676 0.929 . S
H1673 C1682 0.929 . S
C1674 H1668 0.930 . S
C1674 C1675 1.367 . S
C1674 C1682 1.378 . S
C1675 C1674 1.367 . S
C1675 C1683 1.433 . S
C1676 H1672 0.929 . S
C1676 C1678 1.378 . S
C1676 C1680 1.350 . S
C1677 C1680 1.463 . S
C1677 C1682 1.350 . S
C1677 N1685 1.427 . S
C1678 H1669 0.930 . S
C1678 C1676 1.378 . S
C1678 C1679 1.367 . S
C1679 C1678 1.367 . S
C1679 C1681 1.433 . S
C1680 C1676 1.350 . S
C1680 C1677 1.463 . S
C1680 N1684 1.427 . S
C1681 H1671 0.929 . S
C1681 C1679 1.433 . S
C1681 N1684 1.384 . S
C1682 H1673 0.929 . S
C1682 C1674 1.378 . S
C1682 C1677 1.350 . S
C1683 H1670 0.929 . S
C1683 C1675 1.433 . S
C1683 N1685 1.384 . S
N1684 C1680 1.427 . S
N1684 C1681 1.384 . S
N1685 C1677 1.427 . S
N1685 C1683 1.384 . S
H1686 C1692 0.925 1_565 S
H1687 C1696 0.925 1_545 S
H1688 C1701 0.929 . S
H1689 C1699 0.929 . S
H1690 C1694 0.929 . S
H1691 C1700 0.929 . S
C1692 H1686 0.925 1_545 S
C1692 C1693 1.367 . S
C1692 C1700 1.378 1_545 S
C1693 C1692 1.367 . S
C1693 C1701 1.433 . S
C1694 H1690 0.929 . S
C1694 C1696 1.378 1_545 S
C1694 C1698 1.350 1_545 S
C1695 C1698 1.463 1_546 S
C1695 C1700 1.350 1_545 S
C1695 N1703 1.427 . S
C1696 H1687 0.925 1_565 S
C1696 C1694 1.378 1_565 S
C1696 C1697 1.367 . S
C1697 C1696 1.367 . S
C1697 C1699 1.433 . S
C1698 C1694 1.350 1_565 S
C1698 C1695 1.463 1_564 S
C1698 N1702 1.427 . S
C1699 H1689 0.929 . S
C1699 C1697 1.433 . S
C1699 N1702 1.384 . S
C1700 H1691 0.929 . S
C1700 C1692 1.378 1_565 S
C1700 C1695 1.350 1_565 S
C1701 H1688 0.929 . S
C1701 C1693 1.433 . S
C1701 N1703 1.384 . S
N1702 C1698 1.427 . S
N1702 C1699 1.384 . S
N1703 C1695 1.427 . S
N1703 C1701 1.384 . S
H1704 C1710 0.930 . S
H1705 C1714 0.930 . S
H1706 C1719 0.929 . S
H1707 C1717 0.929 . S
H1708 C1712 0.929 . S
H1709 C1718 0.929 . S
C1710 H1704 0.930 . S
C1710 C1711 1.367 . S
C1710 C1718 1.378 . S
C1711 C1710 1.367 . S
C1711 C1719 1.433 . S
C1712 H1708 0.929 . S
C1712 C1714 1.378 . S
C1712 C1716 1.350 . S
C1713 C1716 1.463 . S
C1713 C1718 1.350 . S
C1713 N1721 1.427 . S
C1714 H1705 0.930 . S
C1714 C1712 1.378 . S
C1714 C1715 1.367 . S
C1715 C1714 1.367 . S
C1715 C1717 1.433 . S
C1716 C1712 1.350 . S
C1716 C1713 1.463 . S
C1716 N1720 1.427 . S
C1717 H1707 0.929 . S
C1717 C1715 1.433 . S
C1717 N1720 1.384 . S
C1718 H1709 0.929 . S
C1718 C1710 1.378 . S
C1718 C1713 1.350 . S
C1719 H1706 0.929 . S
C1719 C1711 1.433 . S
C1719 N1721 1.384 . S
N1720 C1716 1.427 . S
N1720 C1717 1.384 . S
N1721 C1713 1.427 . S
N1721 C1719 1.384 . S
H1722 C1728 0.930 . S
H1723 C1732 0.930 . S
H1724 C1737 0.929 . S
H1725 C1735 0.929 . S
H1726 C1730 0.929 . S
H1727 C1736 0.929 . S
C1728 H1722 0.930 . S
C1728 C1729 1.367 . S
C1728 C1736 1.378 . S
C1729 C1728 1.367 . S
C1729 C1737 1.433 1_565 S
C1730 H1726 0.929 . S
C1730 C1732 1.378 . S
C1730 C1734 1.350 . S
C1731 C1734 1.463 1_565 S
C1731 C1736 1.350 . S
C1731 N1739 1.427 1_565 S
C1732 H1723 0.930 . S
C1732 C1730 1.378 . S
C1732 C1733 1.367 . S
C1733 C1732 1.367 . S
C1733 C1735 1.433 1_545 S
C1734 C1730 1.350 . S
C1734 C1731 1.463 1_545 S
C1734 N1738 1.427 1_545 S
C1735 H1725 0.929 . S
C1735 C1733 1.433 1_565 S
C1735 N1738 1.384 . S
C1736 H1727 0.929 . S
C1736 C1728 1.378 . S
C1736 C1731 1.350 . S
C1737 H1724 0.929 . S
C1737 C1729 1.433 1_545 S
C1737 N1739 1.384 . S
N1738 C1734 1.427 1_565 S
N1738 C1735 1.384 . S
N1739 C1731 1.427 1_545 S
N1739 C1737 1.384 . S
H1740 C1746 0.930 . S
H1741 C1750 0.930 . S
H1742 C1755 0.929 . S
H1743 C1753 0.929 . S
H1744 C1748 0.929 . S
H1745 C1754 0.929 . S
C1746 H1740 0.930 . S
C1746 C1747 1.367 . S
C1746 C1754 1.378 . S
C1747 C1746 1.367 . S
C1747 C1755 1.433 . S
C1748 H1744 0.929 . S
C1748 C1750 1.378 . S
C1748 C1752 1.350 . S
C1749 C1752 1.463 . S
C1749 C1754 1.350 . S
C1749 N1757 1.427 . S
C1750 H1741 0.930 . S
C1750 C1748 1.378 . S
C1750 C1751 1.367 . S
C1751 C1750 1.367 . S
C1751 C1753 1.433 . S
C1752 C1748 1.350 . S
C1752 C1749 1.463 . S
C1752 N1756 1.427 . S
C1753 H1743 0.929 . S
C1753 C1751 1.433 . S
C1753 N1756 1.384 . S
C1754 H1745 0.929 . S
C1754 C1746 1.378 . S
C1754 C1749 1.350 . S
C1755 H1742 0.929 . S
C1755 C1747 1.433 . S
C1755 N1757 1.384 . S
N1756 C1752 1.427 . S
N1756 C1753 1.384 . S
N1757 C1749 1.427 . S
N1757 C1755 1.384 . S
H1758 C1764 0.930 . S
H1759 C1768 0.930 . S
H1760 C1773 0.929 . S
H1761 C1771 0.929 . S
H1762 C1766 0.929 . S
H1763 C1772 0.929 . S
C1764 H1758 0.930 . S
C1764 C1765 1.367 . S
C1764 C1772 1.378 . S
C1765 C1764 1.367 . S
C1765 C1773 1.433 1_545 S
C1766 H1762 0.929 . S
C1766 C1768 1.378 . S
C1766 C1770 1.350 . S
C1767 C1770 1.463 1_546 S
C1767 C1772 1.350 . S
C1767 N1775 1.427 1_545 S
C1768 H1759 0.930 . S
C1768 C1766 1.378 . S
C1768 C1769 1.367 . S
C1769 C1768 1.367 . S
C1769 C1771 1.433 1_565 S
C1770 C1766 1.350 . S
C1770 C1767 1.463 1_564 S
C1770 N1774 1.427 1_565 S
C1771 H1761 0.929 . S
C1771 C1769 1.433 1_545 S
C1771 N1774 1.384 . S
C1772 H1763 0.929 . S
C1772 C1764 1.378 . S
C1772 C1767 1.350 . S
C1773 H1760 0.929 . S
C1773 C1765 1.433 1_565 S
C1773 N1775 1.384 . S
N1774 C1770 1.427 1_545 S
N1774 C1771 1.384 . S
N1775 C1767 1.427 1_565 S
N1775 C1773 1.384 . S
H1776 C1782 0.930 . S
H1777 C1786 0.930 . S
H1778 C1791 0.929 . S
H1779 C1789 0.929 . S
H1780 C1784 0.929 . S
H1781 C1790 0.929 . S
C1782 H1776 0.930 . S
C1782 C1783 1.367 . S
C1782 C1790 1.378 . S
C1783 C1782 1.367 . S
C1783 C1791 1.433 . S
C1784 H1780 0.929 . S
C1784 C1786 1.378 . S
C1784 C1788 1.350 . S
C1785 C1788 1.463 . S
C1785 C1790 1.350 . S
C1785 N1793 1.427 . S
C1786 H1777 0.930 . S
C1786 C1784 1.378 . S
C1786 C1787 1.367 . S
C1787 C1786 1.367 . S
C1787 C1789 1.433 . S
C1788 C1784 1.350 . S
C1788 C1785 1.463 . S
C1788 N1792 1.427 . S
C1789 H1779 0.929 . S
C1789 C1787 1.433 . S
C1789 N1792 1.384 . S
C1790 H1781 0.929 . S
C1790 C1782 1.378 . S
C1790 C1785 1.350 . S
C1791 H1778 0.929 . S
C1791 C1783 1.433 . S
C1791 N1793 1.384 . S
N1792 C1788 1.427 . S
N1792 C1789 1.384 . S
N1793 C1785 1.427 . S
N1793 C1791 1.384 . S
H1794 C1800 0.930 . S
H1795 C1804 0.930 . S
H1796 C1809 0.929 . S
H1797 C1807 0.929 . S
H1798 C1802 0.929 . S
H1799 C1808 0.929 . S
C1800 H1794 0.930 . S
C1800 C1801 1.367 . S
C1800 C1808 1.378 . S
C1801 C1800 1.367 . S
C1801 C1809 1.433 . S
C1802 H1798 0.929 . S
C1802 C1804 1.378 . S
C1802 C1806 1.350 . S
C1803 C1806 1.463 1_554 S
C1803 C1808 1.350 . S
C1803 N1811 1.427 . S
C1804 H1795 0.930 . S
C1804 C1802 1.378 . S
C1804 C1805 1.367 . S
C1805 C1804 1.367 . S
C1805 C1807 1.433 . S
C1806 C1802 1.350 . S
C1806 C1803 1.463 1_556 S
C1806 N1810 1.427 . S
C1807 H1797 0.929 . S
C1807 C1805 1.433 . S
C1807 N1810 1.384 . S
C1808 H1799 0.929 . S
C1808 C1800 1.378 . S
C1808 C1803 1.350 . S
C1809 H1796 0.929 . S
C1809 C1801 1.433 . S
C1809 N1811 1.384 . S
N1810 C1806 1.427 . S
N1810 C1807 1.384 . S
N1811 C1803 1.427 . S
N1811 C1809 1.384 . S
H1812 C1818 0.930 . S
H1813 C1822 0.930 . S
H1814 C1827 0.929 . S
H1815 C1825 0.929 . S
H1816 C1820 0.929 . S
H1817 C1826 0.929 . S
C1818 H1812 0.930 . S
C1818 C1819 1.367 . S
C1818 C1826 1.378 . S
C1819 C1818 1.367 . S
C1819 C1827 1.433 . S
C1820 H1816 0.929 . S
C1820 C1822 1.378 . S
C1820 C1824 1.350 . S
C1821 C1824 1.463 . S
C1821 C1826 1.350 . S
C1821 N1829 1.427 . S
C1822 H1813 0.930 . S
C1822 C1820 1.378 . S
C1822 C1823 1.367 . S
C1823 C1822 1.367 . S
C1823 C1825 1.433 . S
C1824 C1820 1.350 . S
C1824 C1821 1.463 . S
C1824 N1828 1.427 . S
C1825 H1815 0.929 . S
C1825 C1823 1.433 . S
C1825 N1828 1.384 . S
C1826 H1817 0.929 . S
C1826 C1818 1.378 . S
C1826 C1821 1.350 . S
C1827 H1814 0.929 . S
C1827 C1819 1.433 . S
C1827 N1829 1.384 . S
N1828 C1824 1.427 . S
N1828 C1825 1.384 . S
N1829 C1821 1.427 . S
N1829 C1827 1.384 . S
H1830 C1836 0.930 . S
H1831 C1840 0.930 . S
H1832 C1845 0.929 . S
H1833 C1843 0.929 . S
H1834 C1838 0.929 . S
H1835 C1844 0.929 . S
C1836 H1830 0.930 . S
C1836 C1837 1.367 . S
C1836 C1844 1.378 . S
C1837 C1836 1.367 . S
C1837 C1845 1.433 . S
C1838 H1834 0.929 . S
C1838 C1840 1.378 . S
C1838 C1842 1.350 . S
C1839 C1842 1.463 . S
C1839 C1844 1.350 . S
C1839 N1847 1.427 . S
C1840 H1831 0.930 . S
C1840 C1838 1.378 . S
C1840 C1841 1.367 . S
C1841 C1840 1.367 . S
C1841 C1843 1.433 . S
C1842 C1838 1.350 . S
C1842 C1839 1.463 . S
C1842 N1846 1.427 . S
C1843 H1833 0.929 . S
C1843 C1841 1.433 . S
C1843 N1846 1.384 . S
C1844 H1835 0.929 . S
C1844 C1836 1.378 . S
C1844 C1839 1.350 . S
C1845 H1832 0.929 . S
C1845 C1837 1.433 . S
C1845 N1847 1.384 . S
N1846 C1842 1.427 . S
N1846 C1843 1.384 . S
N1847 C1839 1.427 . S
N1847 C1845 1.384 . S
H1848 C1854 0.930 . S
H1849 C1858 0.930 . S
H1850 C1863 0.929 . S
H1851 C1861 0.929 . S
H1852 C1856 0.929 . S
H1853 C1862 0.929 . S
C1854 H1848 0.930 . S
C1854 C1855 1.367 . S
C1854 C1862 1.378 . S
C1855 C1854 1.367 . S
C1855 C1863 1.433 . S
C1856 H1852 0.929 . S
C1856 C1858 1.378 . S
C1856 C1860 1.350 . S
C1857 C1860 1.463 . S
C1857 C1862 1.350 . S
C1857 N1865 1.427 . S
C1858 H1849 0.930 . S
C1858 C1856 1.378 . S
C1858 C1859 1.367 . S
C1859 C1858 1.367 . S
C1859 C1861 1.433 . S
C1860 C1856 1.350 . S
C1860 C1857 1.463 . S
C1860 N1864 1.427 . S
C1861 H1851 0.929 . S
C1861 C1859 1.433 . S
C1861 N1864 1.384 . S
C1862 H1853 0.929 . S
C1862 C1854 1.378 . S
C1862 C1857 1.350 . S
C1863 H1850 0.929 . S
C1863 C1855 1.433 . S
C1863 N1865 1.384 . S
N1864 C1860 1.427 . S
N1864 C1861 1.384 . S
N1865 C1857 1.427 . S
N1865 C1863 1.384 . S
H1866 C1872 0.930 . S
H1867 C1876 0.930 . S
H1868 C1881 0.929 . S
H1869 C1879 0.929 . S
H1870 C1874 0.929 . S
H1871 C1880 0.929 . S
C1872 H1866 0.930 . S
C1872 C1873 1.367 . S
C1872 C1880 1.378 . S
C1873 C1872 1.367 . S
C1873 C1881 1.433 . S
C1874 H1870 0.929 . S
C1874 C1876 1.378 . S
C1874 C1878 1.350 . S
C1875 C1878 1.463 1_556 S
C1875 C1880 1.350 . S
C1875 N1883 1.427 . S
C1876 H1867 0.930 . S
C1876 C1874 1.378 . S
C1876 C1877 1.367 . S
C1877 C1876 1.367 . S
C1877 C1879 1.433 . S
C1878 C1874 1.350 . S
C1878 C1875 1.463 1_554 S
C1878 N1882 1.427 . S
C1879 H1869 0.929 . S
C1879 C1877 1.433 . S
C1879 N1882 1.384 . S
C1880 H1871 0.929 . S
C1880 C1872 1.378 . S
C1880 C1875 1.350 . S
C1881 H1868 0.929 . S
C1881 C1873 1.433 . S
C1881 N1883 1.384 . S
N1882 C1878 1.427 . S
N1882 C1879 1.384 . S
N1883 C1875 1.427 . S
N1883 C1881 1.384 . S
H1884 C1890 0.930 . S
H1885 C1894 0.930 . S
H1886 C1899 0.929 . S
H1887 C1897 0.929 . S
H1888 C1892 0.929 . S
H1889 C1898 0.929 . S
C1890 H1884 0.930 . S
C1890 C1891 1.367 . S
C1890 C1898 1.378 . S
C1891 C1890 1.367 . S
C1891 C1899 1.433 . S
C1892 H1888 0.929 . S
C1892 C1894 1.378 . S
C1892 C1896 1.350 . S
C1893 C1896 1.463 . S
C1893 C1898 1.350 . S
C1893 N1901 1.427 . S
C1894 H1885 0.930 . S
C1894 C1892 1.378 . S
C1894 C1895 1.367 . S
C1895 C1894 1.367 . S
C1895 C1897 1.433 . S
C1896 C1892 1.350 . S
C1896 C1893 1.463 . S
C1896 N1900 1.427 . S
C1897 H1887 0.929 . S
C1897 C1895 1.433 . S
C1897 N1900 1.384 . S
C1898 H1889 0.929 . S
C1898 C1890 1.378 . S
C1898 C1893 1.350 . S
C1899 H1886 0.929 . S
C1899 C1891 1.433 . S
C1899 N1901 1.384 . S
N1900 C1896 1.427 . S
N1900 C1897 1.384 . S
N1901 C1893 1.427 . S
N1901 C1899 1.384 . S
H1902 C1908 0.930 . S
H1903 C1912 0.930 . S
H1904 C1917 0.929 . S
H1905 C1915 0.929 . S
H1906 C1910 0.929 . S
H1907 C1916 0.929 . S
C1908 H1902 0.930 . S
C1908 C1909 1.367 . S
C1908 C1916 1.378 . S
C1909 C1908 1.367 . S
C1909 C1917 1.433 . S
C1910 H1906 0.929 . S
C1910 C1912 1.378 . S
C1910 C1914 1.350 . S
C1911 C1914 1.463 . S
C1911 C1916 1.350 . S
C1911 N1919 1.427 . S
C1912 H1903 0.930 . S
C1912 C1910 1.378 . S
C1912 C1913 1.367 . S
C1913 C1912 1.367 . S
C1913 C1915 1.433 . S
C1914 C1910 1.350 . S
C1914 C1911 1.463 . S
C1914 N1918 1.427 . S
C1915 H1905 0.929 . S
C1915 C1913 1.433 . S
C1915 N1918 1.384 . S
C1916 H1907 0.929 . S
C1916 C1908 1.378 . S
C1916 C1911 1.350 . S
C1917 H1904 0.929 . S
C1917 C1909 1.433 . S
C1917 N1919 1.384 . S
N1918 C1914 1.427 . S
N1918 C1915 1.384 . S
N1919 C1911 1.427 . S
N1919 C1917 1.384 . S
H1920 C1926 0.930 . S
H1921 C1930 0.930 . S
H1922 C1935 0.929 . S
H1923 C1933 0.929 . S
H1924 C1928 0.929 . S
H1925 C1934 0.929 . S
C1926 H1920 0.930 . S
C1926 C1927 1.367 . S
C1926 C1934 1.378 . S
C1927 C1926 1.367 . S
C1927 C1935 1.433 . S
C1928 H1924 0.929 . S
C1928 C1930 1.378 . S
C1928 C1932 1.350 . S
C1929 C1932 1.463 . S
C1929 C1934 1.350 . S
C1929 N1937 1.427 . S
C1930 H1921 0.930 . S
C1930 C1928 1.378 . S
C1930 C1931 1.367 . S
C1931 C1930 1.367 . S
C1931 C1933 1.433 . S
C1932 C1928 1.350 . S
C1932 C1929 1.463 . S
C1932 N1936 1.427 . S
C1933 H1923 0.929 . S
C1933 C1931 1.433 . S
C1933 N1936 1.384 . S
C1934 H1925 0.929 . S
C1934 C1926 1.378 . S
C1934 C1929 1.350 . S
C1935 H1922 0.929 . S
C1935 C1927 1.433 . S
C1935 N1937 1.384 . S
N1936 C1932 1.427 . S
N1936 C1933 1.384 . S
N1937 C1929 1.427 . S
N1937 C1935 1.384 . S
H1938 C1944 0.930 . S
H1939 C1948 0.930 . S
H1940 C1953 0.929 . S
H1941 C1951 0.929 . S
H1942 C1946 0.929 . S
H1943 C1952 0.929 . S
C1944 H1938 0.930 . S
C1944 C1945 1.367 . S
C1944 C1952 1.378 . S
C1945 C1944 1.367 . S
C1945 C1953 1.433 . S
C1946 H1942 0.929 . S
C1946 C1948 1.378 . S
C1946 C1950 1.350 . S
C1947 C1950 1.463 . S
C1947 C1952 1.350 . S
C1947 N1955 1.427 . S
C1948 H1939 0.930 . S
C1948 C1946 1.378 . S
C1948 C1949 1.367 . S
C1949 C1948 1.367 . S
C1949 C1951 1.433 . S
C1950 C1946 1.350 . S
C1950 C1947 1.463 . S
C1950 N1954 1.427 . S
C1951 H1941 0.929 . S
C1951 C1949 1.433 . S
C1951 N1954 1.384 . S
C1952 H1943 0.929 . S
C1952 C1944 1.378 . S
C1952 C1947 1.350 . S
C1953 H1940 0.929 . S
C1953 C1945 1.433 . S
C1953 N1955 1.384 . S
N1954 C1950 1.427 . S
N1954 C1951 1.384 . S
N1955 C1947 1.427 . S
N1955 C1953 1.384 . S
H1956 C1962 0.930 . S
H1957 C1966 0.930 . S
H1958 C1971 0.929 . S
H1959 C1969 0.929 . S
H1960 C1964 0.929 . S
H1961 C1970 0.929 . S
C1962 H1956 0.930 . S
C1962 C1963 1.367 . S
C1962 C1970 1.378 . S
C1963 C1962 1.367 . S
C1963 C1971 1.433 . S
C1964 H1960 0.929 . S
C1964 C1966 1.378 . S
C1964 C1968 1.350 . S
C1965 C1968 1.463 . S
C1965 C1970 1.350 . S
C1965 N1973 1.427 . S
C1966 H1957 0.930 . S
C1966 C1964 1.378 . S
C1966 C1967 1.367 . S
C1967 C1966 1.367 . S
C1967 C1969 1.433 . S
C1968 C1964 1.350 . S
C1968 C1965 1.463 . S
C1968 N1972 1.427 . S
C1969 H1959 0.929 . S
C1969 C1967 1.433 . S
C1969 N1972 1.384 . S
C1970 H1961 0.929 . S
C1970 C1962 1.378 . S
C1970 C1965 1.350 . S
C1971 H1958 0.929 . S
C1971 C1963 1.433 . S
C1971 N1973 1.384 . S
N1972 C1968 1.427 . S
N1972 C1969 1.384 . S
N1973 C1965 1.427 . S
N1973 C1971 1.384 . S
H1974 C1980 0.930 . S
H1975 C1984 0.930 . S
H1976 C1989 0.929 . S
H1977 C1987 0.929 . S
H1978 C1982 0.929 . S
H1979 C1988 0.929 . S
C1980 H1974 0.930 . S
C1980 C1981 1.367 . S
C1980 C1988 1.378 . S
C1981 C1980 1.367 . S
C1981 C1989 1.433 . S
C1982 H1978 0.929 . S
C1982 C1984 1.378 . S
C1982 C1986 1.350 . S
C1983 C1986 1.463 . S
C1983 C1988 1.350 . S
C1983 N1991 1.427 . S
C1984 H1975 0.930 . S
C1984 C1982 1.378 . S
C1984 C1985 1.367 . S
C1985 C1984 1.367 . S
C1985 C1987 1.433 . S
C1986 C1982 1.350 . S
C1986 C1983 1.463 . S
C1986 N1990 1.427 . S
C1987 H1977 0.929 . S
C1987 C1985 1.433 . S
C1987 N1990 1.384 . S
C1988 H1979 0.929 . S
C1988 C1980 1.378 . S
C1988 C1983 1.350 . S
C1989 H1976 0.929 . S
C1989 C1981 1.433 . S
C1989 N1991 1.384 . S
N1990 C1986 1.427 . S
N1990 C1987 1.384 . S
N1991 C1983 1.427 . S
N1991 C1989 1.384 . S
H1992 C1998 0.930 . S
H1993 C2002 0.930 . S
H1994 C2007 0.929 . S
H1995 C2005 0.929 . S
H1996 C2000 0.929 . S
H1997 C2006 0.929 . S
C1998 H1992 0.930 . S
C1998 C1999 1.367 . S
C1998 C2006 1.378 . S
C1999 C1998 1.367 . S
C1999 C2007 1.433 . S
C2000 H1996 0.929 . S
C2000 C2002 1.378 . S
C2000 C2004 1.350 . S
C2001 C2004 1.463 . S
C2001 C2006 1.350 . S
C2001 N2009 1.427 . S
C2002 H1993 0.930 . S
C2002 C2000 1.378 . S
C2002 C2003 1.367 . S
C2003 C2002 1.367 . S
C2003 C2005 1.433 . S
C2004 C2000 1.350 . S
C2004 C2001 1.463 . S
C2004 N2008 1.427 . S
C2005 H1995 0.929 . S
C2005 C2003 1.433 . S
C2005 N2008 1.384 . S
C2006 H1997 0.929 . S
C2006 C1998 1.378 . S
C2006 C2001 1.350 . S
C2007 H1994 0.929 . S
C2007 C1999 1.433 . S
C2007 N2009 1.384 . S
N2008 C2004 1.427 . S
N2008 C2005 1.384 . S
N2009 C2001 1.427 . S
N2009 C2007 1.384 . S
H2010 C2016 0.930 . S
H2011 C2020 0.930 . S
H2012 C2025 0.929 . S
H2013 C2023 0.929 . S
H2014 C2018 0.929 . S
H2015 C2024 0.929 . S
C2016 H2010 0.930 . S
C2016 C2017 1.367 . S
C2016 C2024 1.378 . S
C2017 C2016 1.367 . S
C2017 C2025 1.433 . S
C2018 H2014 0.929 . S
C2018 C2020 1.378 . S
C2018 C2022 1.350 . S
C2019 C2022 1.463 . S
C2019 C2024 1.350 . S
C2019 N2027 1.427 . S
C2020 H2011 0.930 . S
C2020 C2018 1.378 . S
C2020 C2021 1.367 . S
C2021 C2020 1.367 . S
C2021 C2023 1.433 . S
C2022 C2018 1.350 . S
C2022 C2019 1.463 . S
C2022 N2026 1.427 . S
C2023 H2013 0.929 . S
C2023 C2021 1.433 . S
C2023 N2026 1.384 . S
C2024 H2015 0.929 . S
C2024 C2016 1.378 . S
C2024 C2019 1.350 . S
C2025 H2012 0.929 . S
C2025 C2017 1.433 . S
C2025 N2027 1.384 . S
N2026 C2022 1.427 . S
N2026 C2023 1.384 . S
N2027 C2019 1.427 . S
N2027 C2025 1.384 . S
H2028 C2034 0.930 . S
H2029 C2038 0.930 . S
H2030 C2043 0.929 . S
H2031 C2041 0.929 . S
H2032 C2036 0.929 . S
H2033 C2042 0.929 . S
C2034 H2028 0.930 . S
C2034 C2035 1.367 . S
C2034 C2042 1.378 . S
C2035 C2034 1.367 . S
C2035 C2043 1.433 . S
C2036 H2032 0.929 . S
C2036 C2038 1.378 . S
C2036 C2040 1.350 . S
C2037 C2040 1.463 . S
C2037 C2042 1.350 . S
C2037 N2045 1.427 . S
C2038 H2029 0.930 . S
C2038 C2036 1.378 . S
C2038 C2039 1.367 . S
C2039 C2038 1.367 . S
C2039 C2041 1.433 . S
C2040 C2036 1.350 . S
C2040 C2037 1.463 . S
C2040 N2044 1.427 . S
C2041 H2031 0.929 . S
C2041 C2039 1.433 . S
C2041 N2044 1.384 . S
C2042 H2033 0.929 . S
C2042 C2034 1.378 . S
C2042 C2037 1.350 . S
C2043 H2030 0.929 . S
C2043 C2035 1.433 . S
C2043 N2045 1.384 . S
N2044 C2040 1.427 . S
N2044 C2041 1.384 . S
N2045 C2037 1.427 . S
N2045 C2043 1.384 . S
H2046 C2052 0.930 . S
H2047 C2056 0.930 . S
H2048 C2061 0.929 . S
H2049 C2059 0.929 . S
H2050 C2054 0.929 . S
H2051 C2060 0.929 . S
C2052 H2046 0.930 . S
C2052 C2053 1.367 . S
C2052 C2060 1.378 . S
C2053 C2052 1.367 . S
C2053 C2061 1.433 . S
C2054 H2050 0.929 . S
C2054 C2056 1.378 . S
C2054 C2058 1.350 . S
C2055 C2058 1.463 . S
C2055 C2060 1.350 . S
C2055 N2063 1.427 . S
C2056 H2047 0.930 . S
C2056 C2054 1.378 . S
C2056 C2057 1.367 . S
C2057 C2056 1.367 . S
C2057 C2059 1.433 . S
C2058 C2054 1.350 . S
C2058 C2055 1.463 . S
C2058 N2062 1.427 . S
C2059 H2049 0.929 . S
C2059 C2057 1.433 . S
C2059 N2062 1.384 . S
C2060 H2051 0.929 . S
C2060 C2052 1.378 . S
C2060 C2055 1.350 . S
C2061 H2048 0.929 . S
C2061 C2053 1.433 . S
C2061 N2063 1.384 . S
N2062 C2058 1.427 . S
N2062 C2059 1.384 . S
N2063 C2055 1.427 . S
N2063 C2061 1.384 . S
H2064 C2070 0.930 . S
H2065 C2074 0.930 . S
H2066 C2079 0.929 . S
H2067 C2077 0.929 . S
H2068 C2072 0.929 . S
H2069 C2078 0.929 . S
C2070 H2064 0.930 . S
C2070 C2071 1.367 . S
C2070 C2078 1.378 . S
C2071 C2070 1.367 . S
C2071 C2079 1.433 . S
C2072 H2068 0.929 . S
C2072 C2074 1.378 . S
C2072 C2076 1.350 . S
C2073 C2076 1.463 . S
C2073 C2078 1.350 . S
C2073 N2081 1.427 . S
C2074 H2065 0.930 . S
C2074 C2072 1.378 . S
C2074 C2075 1.367 . S
C2075 C2074 1.367 . S
C2075 C2077 1.433 . S
C2076 C2072 1.350 . S
C2076 C2073 1.463 . S
C2076 N2080 1.427 . S
C2077 H2067 0.929 . S
C2077 C2075 1.433 . S
C2077 N2080 1.384 . S
C2078 H2069 0.929 . S
C2078 C2070 1.378 . S
C2078 C2073 1.350 . S
C2079 H2066 0.929 . S
C2079 C2071 1.433 . S
C2079 N2081 1.384 . S
N2080 C2076 1.427 . S
N2080 C2077 1.384 . S
N2081 C2073 1.427 . S
N2081 C2079 1.384 . S
H2082 C2088 0.930 . S
H2083 C2092 0.930 . S
H2084 C2097 0.929 . S
H2085 C2095 0.929 . S
H2086 C2090 0.929 . S
H2087 C2096 0.929 . S
C2088 H2082 0.930 . S
C2088 C2089 1.367 . S
C2088 C2096 1.378 . S
C2089 C2088 1.367 . S
C2089 C2097 1.433 . S
C2090 H2086 0.929 . S
C2090 C2092 1.378 . S
C2090 C2094 1.350 . S
C2091 C2094 1.463 . S
C2091 C2096 1.350 . S
C2091 N2099 1.427 . S
C2092 H2083 0.930 . S
C2092 C2090 1.378 . S
C2092 C2093 1.367 . S
C2093 C2092 1.367 . S
C2093 C2095 1.433 . S
C2094 C2090 1.350 . S
C2094 C2091 1.463 . S
C2094 N2098 1.427 . S
C2095 H2085 0.929 . S
C2095 C2093 1.433 . S
C2095 N2098 1.384 . S
C2096 H2087 0.929 . S
C2096 C2088 1.378 . S
C2096 C2091 1.350 . S
C2097 H2084 0.929 . S
C2097 C2089 1.433 . S
C2097 N2099 1.384 . S
N2098 C2094 1.427 . S
N2098 C2095 1.384 . S
N2099 C2091 1.427 . S
N2099 C2097 1.384 . S
H2100 C2106 0.930 . S
H2101 C2110 0.930 . S
H2102 C2115 0.929 . S
H2103 C2113 0.929 . S
H2104 C2108 0.929 . S
H2105 C2114 0.929 . S
C2106 H2100 0.930 . S
C2106 C2107 1.367 . S
C2106 C2114 1.378 . S
C2107 C2106 1.367 . S
C2107 C2115 1.433 . S
C2108 H2104 0.929 . S
C2108 C2110 1.378 . S
C2108 C2112 1.350 . S
C2109 C2112 1.463 . S
C2109 C2114 1.350 . S
C2109 N2117 1.427 . S
C2110 H2101 0.930 . S
C2110 C2108 1.378 . S
C2110 C2111 1.367 . S
C2111 C2110 1.367 . S
C2111 C2113 1.433 . S
C2112 C2108 1.350 . S
C2112 C2109 1.463 . S
C2112 N2116 1.427 . S
C2113 H2103 0.929 . S
C2113 C2111 1.433 . S
C2113 N2116 1.384 . S
C2114 H2105 0.929 . S
C2114 C2106 1.378 . S
C2114 C2109 1.350 . S
C2115 H2102 0.929 . S
C2115 C2107 1.433 . S
C2115 N2117 1.384 . S
N2116 C2112 1.427 . S
N2116 C2113 1.384 . S
N2117 C2109 1.427 . S
N2117 C2115 1.384 . S
H2118 C2124 0.930 . S
H2119 C2128 0.930 . S
H2120 C2133 0.929 . S
H2121 C2131 0.929 . S
H2122 C2126 0.929 . S
H2123 C2132 0.929 . S
C2124 H2118 0.930 . S
C2124 C2125 1.367 . S
C2124 C2132 1.378 . S
C2125 C2124 1.367 . S
C2125 C2133 1.433 . S
C2126 H2122 0.929 . S
C2126 C2128 1.378 . S
C2126 C2130 1.350 . S
C2127 C2130 1.463 . S
C2127 C2132 1.350 . S
C2127 N2135 1.427 . S
C2128 H2119 0.930 . S
C2128 C2126 1.378 . S
C2128 C2129 1.367 . S
C2129 C2128 1.367 . S
C2129 C2131 1.433 . S
C2130 C2126 1.350 . S
C2130 C2127 1.463 . S
C2130 N2134 1.427 . S
C2131 H2121 0.929 . S
C2131 C2129 1.433 . S
C2131 N2134 1.384 . S
C2132 H2123 0.929 . S
C2132 C2124 1.378 . S
C2132 C2127 1.350 . S
C2133 H2120 0.929 . S
C2133 C2125 1.433 . S
C2133 N2135 1.384 . S
N2134 C2130 1.427 . S
N2134 C2131 1.384 . S
N2135 C2127 1.427 . S
N2135 C2133 1.384 . S
H2136 C2142 0.930 . S
H2137 C2146 0.930 . S
H2138 C2151 0.929 . S
H2139 C2149 0.929 . S
H2140 C2144 0.929 . S
H2141 C2150 0.929 . S
C2142 H2136 0.930 . S
C2142 C2143 1.367 . S
C2142 C2150 1.378 . S
C2143 C2142 1.367 . S
C2143 C2151 1.433 . S
C2144 H2140 0.929 . S
C2144 C2146 1.378 . S
C2144 C2148 1.350 . S
C2145 C2148 1.463 . S
C2145 C2150 1.350 . S
C2145 N2153 1.427 . S
C2146 H2137 0.930 . S
C2146 C2144 1.378 . S
C2146 C2147 1.367 . S
C2147 C2146 1.367 . S
C2147 C2149 1.433 . S
C2148 C2144 1.350 . S
C2148 C2145 1.463 . S
C2148 N2152 1.427 . S
C2149 H2139 0.929 . S
C2149 C2147 1.433 . S
C2149 N2152 1.384 . S
C2150 H2141 0.929 . S
C2150 C2142 1.378 . S
C2150 C2145 1.350 . S
C2151 H2138 0.929 . S
C2151 C2143 1.433 . S
C2151 N2153 1.384 . S
N2152 C2148 1.427 . S
N2152 C2149 1.384 . S
N2153 C2145 1.427 . S
N2153 C2151 1.384 . S
H2154 C2160 0.930 . S
H2155 C2164 0.930 . S
H2156 C2169 0.929 . S
H2157 C2167 0.929 . S
H2158 C2162 0.929 . S
H2159 C2168 0.929 . S
C2160 H2154 0.930 . S
C2160 C2161 1.367 . S
C2160 C2168 1.378 . S
C2161 C2160 1.367 . S
C2161 C2169 1.433 . S
C2162 H2158 0.929 . S
C2162 C2164 1.378 . S
C2162 C2166 1.350 . S
C2163 C2166 1.463 . S
C2163 C2168 1.350 . S
C2163 N2171 1.427 . S
C2164 H2155 0.930 . S
C2164 C2162 1.378 . S
C2164 C2165 1.367 . S
C2165 C2164 1.367 . S
C2165 C2167 1.433 . S
C2166 C2162 1.350 . S
C2166 C2163 1.463 . S
C2166 N2170 1.427 . S
C2167 H2157 0.929 . S
C2167 C2165 1.433 . S
C2167 N2170 1.384 . S
C2168 H2159 0.929 . S
C2168 C2160 1.378 . S
C2168 C2163 1.350 . S
C2169 H2156 0.929 . S
C2169 C2161 1.433 . S
C2169 N2171 1.384 . S
N2170 C2166 1.427 . S
N2170 C2167 1.384 . S
N2171 C2163 1.427 . S
N2171 C2169 1.384 . S
H2172 C2178 0.930 . S
H2173 C2182 0.930 . S
H2174 C2187 0.929 . S
H2175 C2185 0.929 . S
H2176 C2180 0.929 . S
H2177 C2186 0.929 . S
C2178 H2172 0.930 . S
C2178 C2179 1.367 . S
C2178 C2186 1.378 . S
C2179 C2178 1.367 . S
C2179 C2187 1.433 . S
C2180 H2176 0.929 . S
C2180 C2182 1.378 . S
C2180 C2184 1.350 . S
C2181 C2184 1.463 . S
C2181 C2186 1.350 . S
C2181 N2189 1.427 . S
C2182 H2173 0.930 . S
C2182 C2180 1.378 . S
C2182 C2183 1.367 . S
C2183 C2182 1.367 . S
C2183 C2185 1.433 . S
C2184 C2180 1.350 . S
C2184 C2181 1.463 . S
C2184 N2188 1.427 . S
C2185 H2175 0.929 . S
C2185 C2183 1.433 . S
C2185 N2188 1.384 . S
C2186 H2177 0.929 . S
C2186 C2178 1.378 . S
C2186 C2181 1.350 . S
C2187 H2174 0.929 . S
C2187 C2179 1.433 . S
C2187 N2189 1.384 . S
N2188 C2184 1.427 . S
N2188 C2185 1.384 . S
N2189 C2181 1.427 . S
N2189 C2187 1.384 . S
H2190 C2196 0.930 . S
H2191 C2200 0.930 . S
H2192 C2205 0.929 . S
H2193 C2203 0.929 . S
H2194 C2198 0.929 . S
H2195 C2204 0.929 . S
C2196 H2190 0.930 . S
C2196 C2197 1.367 . S
C2196 C2204 1.378 . S
C2197 C2196 1.367 . S
C2197 C2205 1.433 . S
C2198 H2194 0.929 . S
C2198 C2200 1.378 . S
C2198 C2202 1.350 . S
C2199 C2202 1.463 . S
C2199 C2204 1.350 . S
C2199 N2207 1.427 . S
C2200 H2191 0.930 . S
C2200 C2198 1.378 . S
C2200 C2201 1.367 . S
C2201 C2200 1.367 . S
C2201 C2203 1.433 . S
C2202 C2198 1.350 . S
C2202 C2199 1.463 . S
C2202 N2206 1.427 . S
C2203 H2193 0.929 . S
C2203 C2201 1.433 . S
C2203 N2206 1.384 . S
C2204 H2195 0.929 . S
C2204 C2196 1.378 . S
C2204 C2199 1.350 . S
C2205 H2192 0.929 . S
C2205 C2197 1.433 . S
C2205 N2207 1.384 . S
N2206 C2202 1.427 . S
N2206 C2203 1.384 . S
N2207 C2199 1.427 . S
N2207 C2205 1.384 . S
H2208 C2214 0.930 . S
H2209 C2218 0.930 . S
H2210 C2223 0.929 . S
H2211 C2221 0.929 . S
H2212 C2216 0.929 . S
H2213 C2222 0.929 . S
C2214 H2208 0.930 . S
C2214 C2215 1.367 . S
C2214 C2222 1.378 . S
C2215 C2214 1.367 . S
C2215 C2223 1.433 . S
C2216 H2212 0.929 . S
C2216 C2218 1.378 . S
C2216 C2220 1.350 . S
C2217 C2220 1.463 . S
C2217 C2222 1.350 . S
C2217 N2225 1.427 . S
C2218 H2209 0.930 . S
C2218 C2216 1.378 . S
C2218 C2219 1.367 . S
C2219 C2218 1.367 . S
C2219 C2221 1.433 . S
C2220 C2216 1.350 . S
C2220 C2217 1.463 . S
C2220 N2224 1.427 . S
C2221 H2211 0.929 . S
C2221 C2219 1.433 . S
C2221 N2224 1.384 . S
C2222 H2213 0.929 . S
C2222 C2214 1.378 . S
C2222 C2217 1.350 . S
C2223 H2210 0.929 . S
C2223 C2215 1.433 . S
C2223 N2225 1.384 . S
N2224 C2220 1.427 . S
N2224 C2221 1.384 . S
N2225 C2217 1.427 . S
N2225 C2223 1.384 . S
H2226 C2232 0.930 . S
H2227 C2236 0.930 . S
H2228 C2241 0.929 . S
H2229 C2239 0.929 . S
H2230 C2234 0.929 . S
H2231 C2240 0.929 . S
C2232 H2226 0.930 . S
C2232 C2233 1.367 . S
C2232 C2240 1.378 . S
C2233 C2232 1.367 . S
C2233 C2241 1.433 . S
C2234 H2230 0.929 . S
C2234 C2236 1.378 . S
C2234 C2238 1.350 . S
C2235 C2238 1.463 1_655 S
C2235 C2240 1.350 . S
C2235 N2243 1.427 . S
C2236 H2227 0.930 . S
C2236 C2234 1.378 . S
C2236 C2237 1.367 . S
C2237 C2236 1.367 . S
C2237 C2239 1.433 . S
C2238 C2234 1.350 . S
C2238 C2235 1.463 1_455 S
C2238 N2242 1.427 . S
C2239 H2229 0.929 . S
C2239 C2237 1.433 . S
C2239 N2242 1.384 . S
C2240 H2231 0.929 . S
C2240 C2232 1.378 . S
C2240 C2235 1.350 . S
C2241 H2228 0.929 . S
C2241 C2233 1.433 . S
C2241 N2243 1.384 . S
N2242 C2238 1.427 . S
N2242 C2239 1.384 . S
N2243 C2235 1.427 . S
N2243 C2241 1.384 . S
H2244 C2250 0.930 . S
H2245 C2254 0.930 . S
H2246 C2259 0.929 . S
H2247 C2257 0.929 . S
H2248 C2252 0.929 . S
H2249 C2258 0.929 . S
C2250 H2244 0.930 . S
C2250 C2251 1.367 . S
C2250 C2258 1.378 . S
C2251 C2250 1.367 . S
C2251 C2259 1.433 . S
C2252 H2248 0.929 . S
C2252 C2254 1.378 . S
C2252 C2256 1.350 . S
C2253 C2256 1.463 . S
C2253 C2258 1.350 . S
C2253 N2261 1.427 . S
C2254 H2245 0.930 . S
C2254 C2252 1.378 . S
C2254 C2255 1.367 . S
C2255 C2254 1.367 . S
C2255 C2257 1.433 . S
C2256 C2252 1.350 . S
C2256 C2253 1.463 . S
C2256 N2260 1.427 . S
C2257 H2247 0.929 . S
C2257 C2255 1.433 . S
C2257 N2260 1.384 . S
C2258 H2249 0.929 . S
C2258 C2250 1.378 . S
C2258 C2253 1.350 . S
C2259 H2246 0.929 . S
C2259 C2251 1.433 . S
C2259 N2261 1.384 . S
N2260 C2256 1.427 . S
N2260 C2257 1.384 . S
N2261 C2253 1.427 . S
N2261 C2259 1.384 . S
H2262 C2268 0.930 . S
H2263 C2272 0.930 . S
H2264 C2277 0.929 . S
H2265 C2275 0.929 . S
H2266 C2270 0.929 . S
H2267 C2276 0.929 . S
C2268 H2262 0.930 . S
C2268 C2269 1.367 . S
C2268 C2276 1.378 . S
C2269 C2268 1.367 . S
C2269 C2277 1.433 . S
C2270 H2266 0.929 . S
C2270 C2272 1.378 . S
C2270 C2274 1.350 . S
C2271 C2274 1.463 . S
C2271 C2276 1.350 . S
C2271 N2279 1.427 . S
C2272 H2263 0.930 . S
C2272 C2270 1.378 . S
C2272 C2273 1.367 . S
C2273 C2272 1.367 . S
C2273 C2275 1.433 . S
C2274 C2270 1.350 . S
C2274 C2271 1.463 . S
C2274 N2278 1.427 . S
C2275 H2265 0.929 . S
C2275 C2273 1.433 . S
C2275 N2278 1.384 . S
C2276 H2267 0.929 . S
C2276 C2268 1.378 . S
C2276 C2271 1.350 . S
C2277 H2264 0.929 . S
C2277 C2269 1.433 . S
C2277 N2279 1.384 . S
N2278 C2274 1.427 . S
N2278 C2275 1.384 . S
N2279 C2271 1.427 . S
N2279 C2277 1.384 . S
H2280 C2286 0.930 . S
H2281 C2290 0.930 . S
H2282 C2295 0.929 . S
H2283 C2293 0.929 . S
H2284 C2288 0.929 . S
H2285 C2294 0.929 . S
C2286 H2280 0.930 . S
C2286 C2287 1.367 . S
C2286 C2294 1.378 . S
C2287 C2286 1.367 . S
C2287 C2295 1.433 . S
C2288 H2284 0.929 . S
C2288 C2290 1.378 . S
C2288 C2292 1.350 . S
C2289 C2292 1.463 . S
C2289 C2294 1.350 . S
C2289 N2297 1.427 . S
C2290 H2281 0.930 . S
C2290 C2288 1.378 . S
C2290 C2291 1.367 . S
C2291 C2290 1.367 . S
C2291 C2293 1.433 . S
C2292 C2288 1.350 . S
C2292 C2289 1.463 . S
C2292 N2296 1.427 . S
C2293 H2283 0.929 . S
C2293 C2291 1.433 . S
C2293 N2296 1.384 . S
C2294 H2285 0.929 . S
C2294 C2286 1.378 . S
C2294 C2289 1.350 . S
C2295 H2282 0.929 . S
C2295 C2287 1.433 . S
C2295 N2297 1.384 . S
N2296 C2292 1.427 . S
N2296 C2293 1.384 . S
N2297 C2289 1.427 . S
N2297 C2295 1.384 . S
H2298 C2304 0.930 . S
H2299 C2308 0.930 . S
H2300 C2313 0.929 . S
H2301 C2311 0.929 . S
H2302 C2306 0.929 . S
H2303 C2312 0.929 . S
C2304 H2298 0.930 . S
C2304 C2305 1.367 . S
C2304 C2312 1.378 . S
C2305 C2304 1.367 . S
C2305 C2313 1.433 . S
C2306 H2302 0.929 . S
C2306 C2308 1.378 . S
C2306 C2310 1.350 . S
C2307 C2310 1.463 . S
C2307 C2312 1.350 . S
C2307 N2315 1.427 . S
C2308 H2299 0.930 . S
C2308 C2306 1.378 . S
C2308 C2309 1.367 . S
C2309 C2308 1.367 . S
C2309 C2311 1.433 . S
C2310 C2306 1.350 . S
C2310 C2307 1.463 . S
C2310 N2314 1.427 . S
C2311 H2301 0.929 . S
C2311 C2309 1.433 . S
C2311 N2314 1.384 . S
C2312 H2303 0.929 . S
C2312 C2304 1.378 . S
C2312 C2307 1.350 . S
C2313 H2300 0.929 . S
C2313 C2305 1.433 . S
C2313 N2315 1.384 . S
N2314 C2310 1.427 . S
N2314 C2311 1.384 . S
N2315 C2307 1.427 . S
N2315 C2313 1.384 . S
H2316 C2322 0.930 . S
H2317 C2326 0.930 . S
H2318 C2331 0.929 . S
H2319 C2329 0.929 . S
H2320 C2324 0.929 . S
H2321 C2330 0.929 . S
C2322 H2316 0.930 . S
C2322 C2323 1.367 . S
C2322 C2330 1.378 . S
C2323 C2322 1.367 . S
C2323 C2331 1.433 . S
C2324 H2320 0.929 . S
C2324 C2326 1.378 . S
C2324 C2328 1.350 . S
C2325 C2328 1.463 . S
C2325 C2330 1.350 . S
C2325 N2333 1.427 . S
C2326 H2317 0.930 . S
C2326 C2324 1.378 . S
C2326 C2327 1.367 . S
C2327 C2326 1.367 . S
C2327 C2329 1.433 . S
C2328 C2324 1.350 . S
C2328 C2325 1.463 . S
C2328 N2332 1.427 . S
C2329 H2319 0.929 . S
C2329 C2327 1.433 . S
C2329 N2332 1.384 . S
C2330 H2321 0.929 . S
C2330 C2322 1.378 . S
C2330 C2325 1.350 . S
C2331 H2318 0.929 . S
C2331 C2323 1.433 . S
C2331 N2333 1.384 . S
N2332 C2328 1.427 . S
N2332 C2329 1.384 . S
N2333 C2325 1.427 . S
N2333 C2331 1.384 . S
H2334 C2340 0.930 . S
H2335 C2344 0.930 . S
H2336 C2349 0.929 . S
H2337 C2347 0.929 . S
H2338 C2342 0.929 . S
H2339 C2348 0.929 . S
C2340 H2334 0.930 . S
C2340 C2341 1.367 . S
C2340 C2348 1.378 . S
C2341 C2340 1.367 . S
C2341 C2349 1.433 . S
C2342 H2338 0.929 . S
C2342 C2344 1.378 . S
C2342 C2346 1.350 . S
C2343 C2346 1.463 1_455 S
C2343 C2348 1.350 . S
C2343 N2351 1.427 . S
C2344 H2335 0.930 . S
C2344 C2342 1.378 . S
C2344 C2345 1.367 . S
C2345 C2344 1.367 . S
C2345 C2347 1.433 . S
C2346 C2342 1.350 . S
C2346 C2343 1.463 1_655 S
C2346 N2350 1.427 . S
C2347 H2337 0.929 . S
C2347 C2345 1.433 . S
C2347 N2350 1.384 . S
C2348 H2339 0.929 . S
C2348 C2340 1.378 . S
C2348 C2343 1.350 . S
C2349 H2336 0.929 . S
C2349 C2341 1.433 . S
C2349 N2351 1.384 . S
N2350 C2346 1.427 . S
N2350 C2347 1.384 . S
N2351 C2343 1.427 . S
N2351 C2349 1.384 . S
H2352 C2358 0.930 . S
H2353 C2362 0.930 . S
H2354 C2367 0.929 . S
H2355 C2365 0.929 . S
H2356 C2360 0.929 . S
H2357 C2366 0.929 . S
C2358 H2352 0.930 . S
C2358 C2359 1.367 . S
C2358 C2366 1.378 . S
C2359 C2358 1.367 . S
C2359 C2367 1.433 . S
C2360 H2356 0.929 . S
C2360 C2362 1.378 . S
C2360 C2364 1.350 . S
C2361 C2364 1.463 . S
C2361 C2366 1.350 . S
C2361 N2369 1.427 . S
C2362 H2353 0.930 . S
C2362 C2360 1.378 . S
C2362 C2363 1.367 . S
C2363 C2362 1.367 . S
C2363 C2365 1.433 . S
C2364 C2360 1.350 . S
C2364 C2361 1.463 . S
C2364 N2368 1.427 . S
C2365 H2355 0.929 . S
C2365 C2363 1.433 . S
C2365 N2368 1.384 . S
C2366 H2357 0.929 . S
C2366 C2358 1.378 . S
C2366 C2361 1.350 . S
C2367 H2354 0.929 . S
C2367 C2359 1.433 . S
C2367 N2369 1.384 . S
N2368 C2364 1.427 . S
N2368 C2365 1.384 . S
N2369 C2361 1.427 . S
N2369 C2367 1.384 . S
H2370 C2376 0.930 . S
H2371 C2380 0.930 . S
H2372 C2385 0.929 . S
H2373 C2383 0.929 . S
H2374 C2378 0.929 . S
H2375 C2384 0.929 . S
C2376 H2370 0.930 . S
C2376 C2377 1.367 . S
C2376 C2384 1.378 . S
C2377 C2376 1.367 . S
C2377 C2385 1.433 . S
C2378 H2374 0.929 . S
C2378 C2380 1.378 . S
C2378 C2382 1.350 . S
C2379 C2382 1.463 . S
C2379 C2384 1.350 . S
C2379 N2387 1.427 . S
C2380 H2371 0.930 . S
C2380 C2378 1.378 . S
C2380 C2381 1.367 . S
C2381 C2380 1.367 . S
C2381 C2383 1.433 . S
C2382 C2378 1.350 . S
C2382 C2379 1.463 . S
C2382 N2386 1.427 . S
C2383 H2373 0.929 . S
C2383 C2381 1.433 . S
C2383 N2386 1.384 . S
C2384 H2375 0.929 . S
C2384 C2376 1.378 . S
C2384 C2379 1.350 . S
C2385 H2372 0.929 . S
C2385 C2377 1.433 . S
C2385 N2387 1.384 . S
N2386 C2382 1.427 . S
N2386 C2383 1.384 . S
N2387 C2379 1.427 . S
N2387 C2385 1.384 . S
H2388 C2394 0.930 . S
H2389 C2398 0.930 . S
H2390 C2403 0.929 . S
H2391 C2401 0.929 . S
H2392 C2396 0.929 . S
H2393 C2402 0.929 . S
C2394 H2388 0.930 . S
C2394 C2395 1.367 . S
C2394 C2402 1.378 . S
C2395 C2394 1.367 . S
C2395 C2403 1.433 . S
C2396 H2392 0.929 . S
C2396 C2398 1.378 . S
C2396 C2400 1.350 . S
C2397 C2400 1.463 . S
C2397 C2402 1.350 . S
C2397 N2405 1.427 . S
C2398 H2389 0.930 . S
C2398 C2396 1.378 . S
C2398 C2399 1.367 . S
C2399 C2398 1.367 . S
C2399 C2401 1.433 . S
C2400 C2396 1.350 . S
C2400 C2397 1.463 . S
C2400 N2404 1.427 . S
C2401 H2391 0.929 . S
C2401 C2399 1.433 . S
C2401 N2404 1.384 . S
C2402 H2393 0.929 . S
C2402 C2394 1.378 . S
C2402 C2397 1.350 . S
C2403 H2390 0.929 . S
C2403 C2395 1.433 . S
C2403 N2405 1.384 . S
N2404 C2400 1.427 . S
N2404 C2401 1.384 . S
N2405 C2397 1.427 . S
N2405 C2403 1.384 . S
H2406 C2412 0.930 . S
H2407 C2416 0.930 . S
H2408 C2421 0.929 . S
H2409 C2419 0.929 . S
H2410 C2414 0.929 . S
H2411 C2420 0.929 . S
C2412 H2406 0.930 . S
C2412 C2413 1.367 . S
C2412 C2420 1.378 . S
C2413 C2412 1.367 . S
C2413 C2421 1.433 . S
C2414 H2410 0.929 . S
C2414 C2416 1.378 . S
C2414 C2418 1.350 . S
C2415 C2418 1.463 . S
C2415 C2420 1.350 . S
C2415 N2423 1.427 . S
C2416 H2407 0.930 . S
C2416 C2414 1.378 . S
C2416 C2417 1.367 . S
C2417 C2416 1.367 . S
C2417 C2419 1.433 . S
C2418 C2414 1.350 . S
C2418 C2415 1.463 . S
C2418 N2422 1.427 . S
C2419 H2409 0.929 . S
C2419 C2417 1.433 . S
C2419 N2422 1.384 . S
C2420 H2411 0.929 . S
C2420 C2412 1.378 . S
C2420 C2415 1.350 . S
C2421 H2408 0.929 . S
C2421 C2413 1.433 . S
C2421 N2423 1.384 . S
N2422 C2418 1.427 . S
N2422 C2419 1.384 . S
N2423 C2415 1.427 . S
N2423 C2421 1.384 . S
H2424 C2430 0.930 . S
H2425 C2434 0.930 . S
H2426 C2439 0.929 . S
H2427 C2437 0.929 . S
H2428 C2432 0.929 . S
H2429 C2438 0.929 . S
C2430 H2424 0.930 . S
C2430 C2431 1.367 . S
C2430 C2438 1.378 . S
C2431 C2430 1.367 . S
C2431 C2439 1.433 . S
C2432 H2428 0.929 . S
C2432 C2434 1.378 . S
C2432 C2436 1.350 . S
C2433 C2436 1.463 . S
C2433 C2438 1.350 . S
C2433 N2441 1.427 . S
C2434 H2425 0.930 . S
C2434 C2432 1.378 . S
C2434 C2435 1.367 . S
C2435 C2434 1.367 . S
C2435 C2437 1.433 . S
C2436 C2432 1.350 . S
C2436 C2433 1.463 . S
C2436 N2440 1.427 . S
C2437 H2427 0.929 . S
C2437 C2435 1.433 . S
C2437 N2440 1.384 . S
C2438 H2429 0.929 . S
C2438 C2430 1.378 . S
C2438 C2433 1.350 . S
C2439 H2426 0.929 . S
C2439 C2431 1.433 . S
C2439 N2441 1.384 . S
N2440 C2436 1.427 . S
N2440 C2437 1.384 . S
N2441 C2433 1.427 . S
N2441 C2439 1.384 . S
H2442 C2448 0.930 . S
H2443 C2452 0.930 . S
H2444 C2457 0.929 . S
H2445 C2455 0.929 . S
H2446 C2450 0.929 . S
H2447 C2456 0.929 . S
C2448 H2442 0.930 . S
C2448 C2449 1.367 . S
C2448 C2456 1.378 . S
C2449 C2448 1.367 . S
C2449 C2457 1.433 . S
C2450 H2446 0.929 . S
C2450 C2452 1.378 . S
C2450 C2454 1.350 . S
C2451 C2454 1.463 1_455 S
C2451 C2456 1.350 . S
C2451 N2459 1.427 . S
C2452 H2443 0.930 . S
C2452 C2450 1.378 . S
C2452 C2453 1.367 . S
C2453 C2452 1.367 . S
C2453 C2455 1.433 . S
C2454 C2450 1.350 . S
C2454 C2451 1.463 1_655 S
C2454 N2458 1.427 . S
C2455 H2445 0.929 . S
C2455 C2453 1.433 . S
C2455 N2458 1.384 . S
C2456 H2447 0.929 . S
C2456 C2448 1.378 . S
C2456 C2451 1.350 . S
C2457 H2444 0.929 . S
C2457 C2449 1.433 . S
C2457 N2459 1.384 . S
N2458 C2454 1.427 . S
N2458 C2455 1.384 . S
N2459 C2451 1.427 . S
N2459 C2457 1.384 . S
H2460 C2466 0.930 . S
H2461 C2470 0.930 . S
H2462 C2475 0.929 . S
H2463 C2473 0.929 . S
H2464 C2468 0.929 . S
H2465 C2474 0.929 . S
C2466 H2460 0.930 . S
C2466 C2467 1.367 . S
C2466 C2474 1.378 . S
C2467 C2466 1.367 . S
C2467 C2475 1.433 . S
C2468 H2464 0.929 . S
C2468 C2470 1.378 . S
C2468 C2472 1.350 . S
C2469 C2472 1.463 1_455 S
C2469 C2474 1.350 . S
C2469 N2477 1.427 . S
C2470 H2461 0.930 . S
C2470 C2468 1.378 . S
C2470 C2471 1.367 . S
C2471 C2470 1.367 . S
C2471 C2473 1.433 . S
C2472 C2468 1.350 . S
C2472 C2469 1.463 1_655 S
C2472 N2476 1.427 . S
C2473 H2463 0.929 . S
C2473 C2471 1.433 . S
C2473 N2476 1.384 . S
C2474 H2465 0.929 . S
C2474 C2466 1.378 . S
C2474 C2469 1.350 . S
C2475 H2462 0.929 . S
C2475 C2467 1.433 . S
C2475 N2477 1.384 . S
N2476 C2472 1.427 . S
N2476 C2473 1.384 . S
N2477 C2469 1.427 . S
N2477 C2475 1.384 . S
H2478 C2484 0.930 . S
H2479 C2488 0.930 . S
H2480 C2493 0.929 . S
H2481 C2491 0.929 . S
H2482 C2486 0.929 . S
H2483 C2492 0.929 . S
C2484 H2478 0.930 . S
C2484 C2485 1.367 . S
C2484 C2492 1.378 . S
C2485 C2484 1.367 . S
C2485 C2493 1.433 . S
C2486 H2482 0.929 . S
C2486 C2488 1.378 . S
C2486 C2490 1.350 . S
C2487 C2490 1.463 . S
C2487 C2492 1.350 . S
C2487 N2495 1.427 . S
C2488 H2479 0.930 . S
C2488 C2486 1.378 . S
C2488 C2489 1.367 . S
C2489 C2488 1.367 . S
C2489 C2491 1.433 . S
C2490 C2486 1.350 . S
C2490 C2487 1.463 . S
C2490 N2494 1.427 . S
C2491 H2481 0.929 . S
C2491 C2489 1.433 . S
C2491 N2494 1.384 . S
C2492 H2483 0.929 . S
C2492 C2484 1.378 . S
C2492 C2487 1.350 . S
C2493 H2480 0.929 . S
C2493 C2485 1.433 . S
C2493 N2495 1.384 . S
N2494 C2490 1.427 . S
N2494 C2491 1.384 . S
N2495 C2487 1.427 . S
N2495 C2493 1.384 . S
C1063 C40 2.036 1_545 S
C1067 C18 2.023 . S
C1081 C51 2.025 . S
C1085 C73 2.038 . S
C1099 C84 2.026 . S
C1103 C106 2.039 1_565 S
C1117 C117 2.024 . S
C1121 C7 2.035 1_556 S
C1135 C150 2.027 . S
C1139 C238 2.040 1_565 S
C1153 C139 2.036 1_554 S
C1157 C183 2.023 . S
C1171 C216 2.029 . S
C1175 C172 2.040 1_545 S
C1189 C249 2.031 . S
C1193 C205 2.038 . S
C1207 C304 2.039 1_565 S
C1211 C282 2.025 . S
C1225 C337 2.034 . S
C1229 C315 2.025 . S
C1243 C348 2.026 . S
C1247 C370 2.039 1_545 S
C1261 C271 2.040 1_554 S
C1265 C381 2.030 . S
C1279 C414 2.029 . S
C1283 C502 2.040 1_545 S
C1297 C447 2.026 . S
C1301 C403 2.035 1_556 S
C1315 C436 2.038 1_565 S
C1319 C480 2.030 . S
C1333 C469 2.040 . S
C1337 C513 2.031 . S
C1351 C568 2.040 . S
C1355 C546 2.029 . S
C1369 C579 2.031 . S
C1373 C601 2.038 1_556 S
C1387 C634 2.040 . S
C1391 C612 2.030 . S
C1405 C535 2.037 . S
C1409 C645 2.024 . S
C1423 C766 2.040 . S
C1427 C678 2.027 . S
C1441 C711 2.024 . S
C1445 C667 2.035 . S
C1459 C700 2.039 . S
C1463 C744 2.026 . S
C1477 C777 2.024 . S
C1481 C733 2.035 1_554 S
C1495 C832 2.034 . S
C1499 C810 2.025 . S
C1513 C843 2.030 . S
C1517 C865 2.037 1_554 S
C1531 C876 2.027 . S
C1535 C898 2.040 . S
C1549 C909 2.027 . S
C1553 C799 2.040 . S
C1567 C1030 2.036 . S
C1571 C942 2.029 . S
C1585 C931 2.040 . S
C1589 C975 2.029 . S
C1603 C964 2.034 . S
C1607 C1008 2.025 . S
C1621 C997 2.038 1_556 S
C1625 C1041 2.030 . S
C1639 N211 0.884 . S
C1643 N13 0.882 . S
C1657 N46 0.887 . S
C1661 N244 0.885 . S
C1675 N79 0.884 . S
C1679 N145 0.886 . S
C1693 N112 0.881 . S
C1697 N178 0.879 . S
C1711 N475 0.879 . S
C1715 N277 0.881 . S
C1729 N508 0.887 . S
C1733 N310 0.887 . S
C1747 N343 0.887 . S
C1751 N409 0.886 . S
C1765 N442 0.887 . S
C1769 N376 0.887 . S
C1783 N541 0.880 . S
C1787 N739 0.879 . S
C1801 N772 0.880 . S
C1805 N574 0.881 . S
C1819 N673 0.878 . S
C1823 N607 0.878 . S
C1837 N706 0.878 . S
C1841 N640 0.879 . S
C1855 N1003 0.885 . S
C1859 N805 0.883 . S
C1873 N1036 0.884 . S
C1877 N838 0.886 . S
C1891 N937 0.884 . S
C1895 N871 0.882 . S
C1909 N970 0.886 . S
C1913 N904 0.887 . S
C1927 N2 0.874 . S
C1931 N233 0.870 . S
C1945 N35 0.873 . S
C1949 N134 0.868 . S
C1963 N167 0.870 . S
C1967 N68 0.875 . S
C1981 N101 0.869 . S
C1985 N200 0.874 . S
C1999 N266 0.864 . S
C2003 N497 0.868 . S
C2017 N398 0.874 . S
C2021 N299 0.877 . S
C2035 N332 0.861 . S
C2039 N431 0.862 . S
C2053 N365 0.862 . S
C2057 N464 0.861 . S
C2071 N761 0.868 . S
C2075 N530 0.864 . S
C2089 N662 0.861 . S
C2093 N563 0.862 . S
C2107 N596 0.861 . S
C2111 N695 0.862 . S
C2125 N629 0.868 . S
C2129 N728 0.873 . S
C2143 N794 0.862 . S
C2147 N1025 0.865 . S
C2161 N926 0.867 . S
C2165 N827 0.872 . S
C2179 N860 0.876 . S
C2183 N959 0.873 . S
C2197 N893 0.876 . S
C2201 N992 0.877 . S
C2215 C21 1.258 . S
C2219 C1011 1.265 . S
C2233 C516 1.263 . S
C2237 C54 1.260 . S
C2251 C945 1.259 . S
C2255 C87 1.264 . S
C2269 C120 1.261 . S
C2273 C450 1.262 . S
C2287 C153 1.262 . S
C2291 C879 1.261 . S
C2305 C384 1.261 . S
C2309 C186 1.262 . S
C2323 C219 1.265 . S
C2327 C813 1.258 . S
C2341 C252 1.265 . S
C2345 C318 1.258 . S
C2359 C285 1.259 . S
C2363 C747 1.264 . S
C2377 C351 1.258 . S
C2381 C681 1.265 . S
C2395 C417 1.265 . S
C2399 C615 1.258 . S
C2413 C483 1.263 . S
C2417 C549 1.260 . S
C2431 C582 1.260 . S
C2435 C1044 1.263 . S
C2449 C978 1.261 . S
C2453 C648 1.262 . S
C2467 C912 1.258 . S
C2471 C714 1.265 . S
C2485 C846 1.259 . S
C2489 C780 1.264 . S
