# Generated by pormake.
# Topology lcy-a, (4)-cn, num edge types: 1
# Building blocks:
#     Node 0, Type 0, BuildingBlock: QUQFOY_clean_sbu_1, # of connection points: 4
#     Node 1, Type 0, BuildingBlock: QUQFOY_clean_sbu_1, # of connection points: 4
#     Node 2, Type 0, BuildingBlock: QUQFOY_clean_sbu_1, # of connection points: 4
#     Node 3, Type 0, BuildingBlock: QUQFOY_clean_sbu_1, # of connection points: 4
#     Node 4, Type 0, BuildingBlock: QUQFOY_clean_sbu_1, # of connection points: 4
#     Node 5, Type 0, BuildingBlock: QUQFOY_clean_sbu_1, # of connection points: 4
#     Node 6, Type 0, BuildingBlock: QUQFOY_clean_sbu_1, # of connection points: 4
#     Node 7, Type 0, BuildingBlock: QUQFOY_clean_sbu_1, # of connection points: 4
#     Node 8, Type 0, BuildingBlock: QUQFOY_clean_sbu_1, # of connection points: 4
#     Node 9, Type 0, BuildingBlock: QUQFOY_clean_sbu_1, # of connection points: 4
#     Node 10, Type 0, BuildingBlock: QUQFOY_clean_sbu_1, # of connection points: 4
#     Node 11, Type 0, BuildingBlock: QUQFOY_clean_sbu_1, # of connection points: 4
#     Node 12, Type 0, BuildingBlock: QUQFOY_clean_sbu_1, # of connection points: 4
#     Node 13, Type 0, BuildingBlock: QUQFOY_clean_sbu_1, # of connection points: 4
#     Node 14, Type 0, BuildingBlock: QUQFOY_clean_sbu_1, # of connection points: 4
#     Node 15, Type 0, BuildingBlock: QUQFOY_clean_sbu_1, # of connection points: 4
#     Node 16, Type 0, BuildingBlock: QUQFOY_clean_sbu_1, # of connection points: 4
#     Node 17, Type 0, BuildingBlock: QUQFOY_clean_sbu_1, # of connection points: 4
#     Node 18, Type 0, BuildingBlock: QUQFOY_clean_sbu_1, # of connection points: 4
#     Node 19, Type 0, BuildingBlock: QUQFOY_clean_sbu_1, # of connection points: 4
#     Node 20, Type 0, BuildingBlock: QUQFOY_clean_sbu_1, # of connection points: 4
#     Node 21, Type 0, BuildingBlock: QUQFOY_clean_sbu_1, # of connection points: 4
#     Node 22, Type 0, BuildingBlock: QUQFOY_clean_sbu_1, # of connection points: 4
#     Node 23, Type 0, BuildingBlock: QUQFOY_clean_sbu_1, # of connection points: 4
#     Edge 24, Type (0, 0), BuildingBlock: UVAHIK_clean_linker_0, # of connection points: 2
#     Edge 25, Type (0, 0), BuildingBlock: UVAHIK_clean_linker_0, # of connection points: 2
#     Edge 26, Type (0, 0), BuildingBlock: UVAHIK_clean_linker_0, # of connection points: 2
#     Edge 27, Type (0, 0), BuildingBlock: UVAHIK_clean_linker_0, # of connection points: 2
#     Edge 28, Type (0, 0), BuildingBlock: UVAHIK_clean_linker_0, # of connection points: 2
#     Edge 29, Type (0, 0), BuildingBlock: UVAHIK_clean_linker_0, # of connection points: 2
#     Edge 30, Type (0, 0), BuildingBlock: UVAHIK_clean_linker_0, # of connection points: 2
#     Edge 31, Type (0, 0), BuildingBlock: UVAHIK_clean_linker_0, # of connection points: 2
#     Edge 32, Type (0, 0), BuildingBlock: UVAHIK_clean_linker_0, # of connection points: 2
#     Edge 33, Type (0, 0), BuildingBlock: UVAHIK_clean_linker_0, # of connection points: 2
#     Edge 34, Type (0, 0), BuildingBlock: UVAHIK_clean_linker_0, # of connection points: 2
#     Edge 35, Type (0, 0), BuildingBlock: UVAHIK_clean_linker_0, # of connection points: 2
#     Edge 36, Type (0, 0), BuildingBlock: UVAHIK_clean_linker_0, # of connection points: 2
#     Edge 37, Type (0, 0), BuildingBlock: UVAHIK_clean_linker_0, # of connection points: 2
#     Edge 38, Type (0, 0), BuildingBlock: UVAHIK_clean_linker_0, # of connection points: 2
#     Edge 39, Type (0, 0), BuildingBlock: UVAHIK_clean_linker_0, # of connection points: 2
#     Edge 40, Type (0, 0), BuildingBlock: UVAHIK_clean_linker_0, # of connection points: 2
#     Edge 41, Type (0, 0), BuildingBlock: UVAHIK_clean_linker_0, # of connection points: 2
#     Edge 42, Type (0, 0), BuildingBlock: UVAHIK_clean_linker_0, # of connection points: 2
#     Edge 43, Type (0, 0), BuildingBlock: UVAHIK_clean_linker_0, # of connection points: 2
#     Edge 44, Type (0, 0), BuildingBlock: UVAHIK_clean_linker_0, # of connection points: 2
#     Edge 45, Type (0, 0), BuildingBlock: UVAHIK_clean_linker_0, # of connection points: 2
#     Edge 46, Type (0, 0), BuildingBlock: UVAHIK_clean_linker_0, # of connection points: 2
#     Edge 47, Type (0, 0), BuildingBlock: UVAHIK_clean_linker_0, # of connection points: 2
#     Edge 48, Type (0, 0), BuildingBlock: UVAHIK_clean_linker_0, # of connection points: 2
#     Edge 49, Type (0, 0), BuildingBlock: UVAHIK_clean_linker_0, # of connection points: 2
#     Edge 50, Type (0, 0), BuildingBlock: UVAHIK_clean_linker_0, # of connection points: 2
#     Edge 51, Type (0, 0), BuildingBlock: UVAHIK_clean_linker_0, # of connection points: 2
#     Edge 52, Type (0, 0), BuildingBlock: UVAHIK_clean_linker_0, # of connection points: 2
#     Edge 53, Type (0, 0), BuildingBlock: UVAHIK_clean_linker_0, # of connection points: 2
#     Edge 54, Type (0, 0), BuildingBlock: UVAHIK_clean_linker_0, # of connection points: 2
#     Edge 55, Type (0, 0), BuildingBlock: UVAHIK_clean_linker_0, # of connection points: 2
#     Edge 56, Type (0, 0), BuildingBlock: UVAHIK_clean_linker_0, # of connection points: 2
#     Edge 57, Type (0, 0), BuildingBlock: UVAHIK_clean_linker_0, # of connection points: 2
#     Edge 58, Type (0, 0), BuildingBlock: UVAHIK_clean_linker_0, # of connection points: 2
#     Edge 59, Type (0, 0), BuildingBlock: UVAHIK_clean_linker_0, # of connection points: 2
#     Edge 60, Type (0, 0), BuildingBlock: UVAHIK_clean_linker_0, # of connection points: 2
#     Edge 61, Type (0, 0), BuildingBlock: UVAHIK_clean_linker_0, # of connection points: 2
#     Edge 62, Type (0, 0), BuildingBlock: UVAHIK_clean_linker_0, # of connection points: 2
#     Edge 63, Type (0, 0), BuildingBlock: UVAHIK_clean_linker_0, # of connection points: 2
#     Edge 64, Type (0, 0), BuildingBlock: UVAHIK_clean_linker_0, # of connection points: 2
#     Edge 65, Type (0, 0), BuildingBlock: UVAHIK_clean_linker_0, # of connection points: 2
#     Edge 66, Type (0, 0), BuildingBlock: UVAHIK_clean_linker_0, # of connection points: 2
#     Edge 67, Type (0, 0), BuildingBlock: UVAHIK_clean_linker_0, # of connection points: 2
#     Edge 68, Type (0, 0), BuildingBlock: UVAHIK_clean_linker_0, # of connection points: 2
#     Edge 69, Type (0, 0), BuildingBlock: UVAHIK_clean_linker_0, # of connection points: 2
#     Edge 70, Type (0, 0), BuildingBlock: UVAHIK_clean_linker_0, # of connection points: 2
#     Edge 71, Type (0, 0), BuildingBlock: UVAHIK_clean_linker_0, # of connection points: 2
# Relax obj value: 0.387
# Max RMSD: 0.175
# Mean RMSD: 0.175
data_MOF--net-lcy-a--node1-QUQFOY_clean_sbu_1--edge1-UVAHIK_clean_linker_0
_symmetry_space_group_name_H-M    P1
_symmetry_Int_Tables_number       1
_symmetry_cell_setting            triclinic
loop_
_symmetry_equiv_pos_as_xyz
'x, y, z'
_cell_length_a     75.604054
_cell_length_b     75.589898
_cell_length_c     75.587273
_cell_angle_alpha  89.995791
_cell_angle_beta   90.003598
_cell_angle_gamma 89.991295
loop_
_atom_site_label
_atom_site_type_symbol
_atom_site_fract_x
_atom_site_fract_y
_atom_site_fract_z
_atom_type_partial_charge
O0 O 0.20366 0.26243 0.38323 0.0
Cd1 Cd 0.18349 0.2803 0.38671 0.0
Cd2 Cd 0.20829 0.30162 0.40163 0.0
O3 O 0.22265 0.27843 0.39859 0.0
O4 O 0.1613 0.26873 0.39478 0.0
O5 O 0.17794 0.28603 0.41174 0.0
C6 C 0.16437 0.27577 0.41008 0.0
C7 C 0.21645 0.31985 0.42534 0.0
C8 C 0.21883 0.26434 0.3902 0.0
C9 C 0.18955 0.31314 0.36736 0.0
O10 O 0.20088 0.3159 0.37948 0.0
O11 O 0.18019 0.2992 0.36748 0.0
O12 O 0.22623 0.31807 0.41154 0.0
O13 O 0.20201 0.31081 0.42608 0.0
O14 O 0.98573 0.95351 0.63306 0.0
Cd15 Cd 0.96701 0.93438 0.63788 0.0
Cd16 Cd 0.94706 0.96087 0.65105 0.0
O17 O 0.97106 0.97375 0.64814 0.0
O18 O 0.97803 0.91221 0.64667 0.0
O19 O 0.96166 0.93011 0.66328 0.0
C20 C 0.97148 0.91617 0.66199 0.0
C21 C 0.92866 0.97113 0.67383 0.0
C22 C 0.98478 0.96894 0.63966 0.0
C23 C 0.93499 0.94132 0.61751 0.0
O24 O 0.93302 0.95376 0.62865 0.0
O25 O 0.94793 0.9307 0.61888 0.0
O26 O 0.93158 0.98024 0.65977 0.0
O27 O 0.93663 0.95612 0.67537 0.0
O28 O 0.2938 0.73359 0.88223 0.0
Cd29 Cd 0.31394 0.7158 0.8864 0.0
Cd30 Cd 0.28897 0.69406 0.89912 0.0
O31 O 0.27444 0.71716 0.89656 0.0
O32 O 0.33581 0.72862 0.89283 0.0
O33 O 0.3208 0.7116 0.91153 0.0
C34 C 0.3338 0.72234 0.90861 0.0
C35 C 0.27977 0.67527 0.92204 0.0
C36 C 0.27842 0.73145 0.88863 0.0
C37 C 0.30885 0.6838 0.86531 0.0
O38 O 0.29668 0.68065 0.87649 0.0
O39 O 0.31848 0.69745 0.86696 0.0
O40 O 0.27059 0.67748 0.9079 0.0
O41 O 0.29437 0.684 0.92347 0.0
O42 O 0.51209 0.04784 0.13376 0.0
Cd43 Cd 0.53114 0.06655 0.13864 0.0
Cd44 Cd 0.55113 0.03957 0.15129 0.0
O45 O 0.52728 0.02672 0.14697 0.0
O46 O 0.52052 0.08877 0.14771 0.0
O47 O 0.53669 0.07045 0.16407 0.0
C48 C 0.52705 0.08454 0.16295 0.0
C49 C 0.56895 0.02776 0.1738 0.0
C50 C 0.51331 0.03199 0.13919 0.0
C51 C 0.56359 0.06036 0.11863 0.0
O52 O 0.56585 0.04804 0.12985 0.0
O53 O 0.55008 0.07029 0.11951 0.0
O54 O 0.56628 0.01959 0.15914 0.0
O55 O 0.56105 0.04271 0.1761 0.0
O56 O 0.70483 0.22632 0.61732 0.0
Cd57 Cd 0.6823 0.21166 0.61375 0.0
Cd58 Cd 0.70355 0.18633 0.60071 0.0
O59 O 0.72199 0.20619 0.60504 0.0
O60 O 0.66227 0.22747 0.60783 0.0
O61 O 0.67434 0.20856 0.58881 0.0
C62 C 0.66305 0.22101 0.59201 0.0
C63 C 0.70933 0.16857 0.576 0.0
C64 C 0.72 0.22132 0.61214 0.0
C65 C 0.68219 0.17857 0.63412 0.0
O66 O 0.6929 0.17325 0.62229 0.0
O67 O 0.67578 0.19407 0.63341 0.0
O68 O 0.71822 0.16707 0.59042 0.0
O69 O 0.6969 0.18025 0.57544 0.0
O70 O 0.01068 0.45076 0.86763 0.0
Cd71 Cd 0.02961 0.43222 0.86178 0.0
Cd72 Cd 0.04802 0.4595 0.84759 0.0
O73 O 0.0234 0.4712 0.85107 0.0
O74 O 0.01908 0.4099 0.85275 0.0
O75 O 0.03441 0.42873 0.83617 0.0
C76 C 0.02509 0.41444 0.83738 0.0
C77 C 0.06552 0.47096 0.82464 0.0
C78 C 0.0105 0.46599 0.86055 0.0
C79 C 0.06195 0.44026 0.88082 0.0
O80 O 0.063 0.45274 0.86957 0.0
O81 O 0.0494 0.42915 0.88003 0.0
O82 O 0.06229 0.47976 0.83882 0.0
O83 O 0.05833 0.45557 0.82305 0.0
O84 O 0.7962 0.76367 0.11584 0.0
Cd85 Cd 0.81572 0.78199 0.11111 0.0
Cd86 Cd 0.79018 0.80357 0.09858 0.0
O87 O 0.77653 0.78007 0.10191 0.0
O88 O 0.83764 0.77054 0.10231 0.0
O89 O 0.82015 0.78739 0.08574 0.0
C90 C 0.83389 0.7773 0.08703 0.0
C91 C 0.77938 0.82055 0.07497 0.0
C92 C 0.78071 0.76576 0.10969 0.0
C93 C 0.81051 0.81453 0.13178 0.0
O94 O 0.79822 0.81763 0.1207 0.0
O95 O 0.82007 0.80079 0.13022 0.0
O96 O 0.77068 0.81863 0.08946 0.0
O97 O 0.7947 0.81311 0.07386 0.0
O98 O 0.48479 0.54573 0.36879 0.0
Cd99 Cd 0.46484 0.56354 0.36355 0.0
Cd100 Cd 0.4482 0.53673 0.34779 0.0
O101 O 0.47336 0.52631 0.35032 0.0
O102 O 0.47491 0.58703 0.35759 0.0
O103 O 0.46158 0.5695 0.33813 0.0
C104 C 0.47026 0.58386 0.34143 0.0
C105 C 0.43291 0.52728 0.32252 0.0
C106 C 0.48591 0.53125 0.36036 0.0
C107 C 0.43272 0.55213 0.38177 0.0
O108 O 0.43285 0.53982 0.37029 0.0
O109 O 0.44404 0.56452 0.38099 0.0
O110 O 0.43616 0.51683 0.33555 0.0
O111 O 0.4382 0.54345 0.32377 0.0
O112 O 0.38343 0.20431 0.26855 0.0
Cd113 Cd 0.38784 0.18367 0.28565 0.0
Cd114 Cd 0.40218 0.2082 0.30759 0.0
O115 O 0.39744 0.22363 0.28538 0.0
O116 O 0.39575 0.162 0.27299 0.0
O117 O 0.41306 0.17814 0.29038 0.0
C118 C 0.41122 0.16494 0.27969 0.0
C119 C 0.42723 0.21575 0.32424 0.0
C120 C 0.38927 0.21985 0.27114 0.0
C121 C 0.36897 0.18799 0.31924 0.0
O122 O 0.38088 0.19943 0.3224 0.0
O123 O 0.36908 0.17935 0.30483 0.0
O124 O 0.41309 0.2252 0.32453 0.0
O125 O 0.42739 0.2019 0.31429 0.0
O126 O 0.04537 0.13127 0.5103 0.0
Cd127 Cd 0.06492 0.13558 0.52866 0.0
Cd128 Cd 0.0389 0.14856 0.54968 0.0
O129 O 0.0249 0.14442 0.52643 0.0
O130 O 0.08689 0.14461 0.51747 0.0
O131 O 0.06927 0.16082 0.53453 0.0
C132 C 0.08306 0.15975 0.52448 0.0
C133 C 0.02924 0.17177 0.56784 0.0
C134 C 0.02961 0.13677 0.51218 0.0
C135 C 0.05972 0.11564 0.56133 0.0
O136 O 0.04771 0.12706 0.56412 0.0
O137 O 0.06902 0.11629 0.54737 0.0
O138 O 0.02027 0.15744 0.56598 0.0
O139 O 0.04366 0.17334 0.55887 0.0
O140 O 0.11632 0.79899 0.76288 0.0
Cd141 Cd 0.11135 0.81748 0.78218 0.0
Cd142 Cd 0.0972 0.79073 0.80153 0.0
O143 O 0.10227 0.77818 0.77771 0.0
O144 O 0.10277 0.84013 0.77196 0.0
O145 O 0.0859 0.82159 0.7873 0.0
C146 C 0.08735 0.83593 0.77809 0.0
C147 C 0.0729 0.77914 0.81693 0.0
C148 C 0.1105 0.78327 0.76394 0.0
C149 C 0.1299 0.81009 0.81552 0.0
O150 O 0.11818 0.79818 0.81742 0.0
O151 O 0.12982 0.82007 0.802 0.0
O152 O 0.08744 0.7705 0.81516 0.0
O153 O 0.072 0.79471 0.81001 0.0
O154 O 0.45439 0.86833 0.01424 0.0
Cd155 Cd 0.43553 0.86299 0.03309 0.0
Cd156 Cd 0.46242 0.85155 0.0529 0.0
O157 O 0.47577 0.85543 0.02928 0.0
O158 O 0.41325 0.8561 0.02122 0.0
O159 O 0.42975 0.83752 0.03692 0.0
C160 C 0.41613 0.84024 0.02693 0.0
C161 C 0.47214 0.82821 0.07083 0.0
C162 C 0.47033 0.86316 0.01535 0.0
C163 C 0.4415 0.88394 0.06508 0.0
O164 O 0.45449 0.87348 0.06723 0.0
O165 O 0.43111 0.88193 0.05205 0.0
O166 O 0.48131 0.84237 0.06866 0.0
O167 O 0.45739 0.82692 0.06233 0.0
O168 O 0.88211 0.2973 0.73357 0.0
Cd169 Cd 0.88865 0.31437 0.71344 0.0
Cd170 Cd 0.90547 0.28637 0.69878 0.0
O171 O 0.90095 0.27708 0.7242 0.0
O172 O 0.89629 0.33793 0.72242 0.0
O173 O 0.91438 0.31831 0.71013 0.0
C174 C 0.91217 0.33333 0.71797 0.0
C175 C 0.93082 0.27515 0.68488 0.0
C176 C 0.89012 0.2827 0.73577 0.0
C177 C 0.87251 0.30186 0.68074 0.0
O178 O 0.8842 0.2898 0.68184 0.0
O179 O 0.87214 0.3144 0.69191 0.0
O180 O 0.91726 0.26542 0.68813 0.0
O181 O 0.9302 0.29152 0.68963 0.0
O182 O 0.95454 0.63399 0.98914 0.0
Cd183 Cd 0.93595 0.6382 0.96961 0.0
Cd184 Cd 0.96284 0.65245 0.9512 0.0
O185 O 0.97437 0.65083 0.97592 0.0
O186 O 0.91306 0.64646 0.97959 0.0
O187 O 0.93127 0.66345 0.96401 0.0
C188 C 0.91692 0.66184 0.97315 0.0
C189 C 0.97249 0.67548 0.93281 0.0
C190 C 0.96945 0.64176 0.98921 0.0
C191 C 0.9456 0.61803 0.93826 0.0
O192 O 0.95801 0.62934 0.93742 0.0
O193 O 0.93371 0.61941 0.95004 0.0
O194 O 0.98242 0.66221 0.93664 0.0
O195 O 0.95698 0.6761 0.93988 0.0
O196 O 0.61826 0.70208 0.236 0.0
Cd197 Cd 0.61231 0.68374 0.21689 0.0
Cd198 Cd 0.59823 0.71056 0.19818 0.0
O199 O 0.60374 0.72307 0.22195 0.0
O200 O 0.6054 0.66109 0.22809 0.0
O201 O 0.58668 0.6786 0.21369 0.0
C202 C 0.5894 0.66459 0.22313 0.0
C203 C 0.57352 0.72202 0.18333 0.0
C204 C 0.61245 0.71782 0.23535 0.0
C205 C 0.63042 0.69107 0.18336 0.0
O206 O 0.61901 0.70336 0.18186 0.0
O207 O 0.63014 0.68077 0.19662 0.0
O208 O 0.58799 0.73079 0.1849 0.0
O209 O 0.57292 0.70637 0.19012 0.0
O210 O 0.54171 0.36581 0.47707 0.0
Cd211 Cd 0.56415 0.36261 0.46215 0.0
Cd212 Cd 0.54284 0.34916 0.43712 0.0
O213 O 0.52454 0.35315 0.45718 0.0
O214 O 0.58446 0.357 0.47772 0.0
O215 O 0.57246 0.33781 0.45896 0.0
C216 C 0.58385 0.34117 0.47128 0.0
C217 C 0.53755 0.32424 0.41951 0.0
C218 C 0.52658 0.36033 0.47226 0.0
C219 C 0.56346 0.38295 0.42905 0.0
O220 O 0.55287 0.37094 0.42389 0.0
O221 O 0.57011 0.38234 0.44445 0.0
O222 O 0.52825 0.3384 0.41805 0.0
O223 O 0.55011 0.32406 0.43107 0.0
O224 O 0.26435 0.38291 0.20361 0.0
Cd225 Cd 0.28237 0.38717 0.18374 0.0
Cd226 Cd 0.30288 0.40227 0.20902 0.0
O227 O 0.27955 0.39861 0.22297 0.0
O228 O 0.27072 0.39508 0.16154 0.0
O229 O 0.28736 0.41243 0.17846 0.0
C230 C 0.2772 0.41058 0.16483 0.0
C231 C 0.32076 0.42587 0.21826 0.0
C232 C 0.26581 0.3898 0.21887 0.0
C233 C 0.31536 0.36831 0.1903 0.0
O234 O 0.3176 0.38035 0.20181 0.0
O235 O 0.30171 0.36835 0.18051 0.0
O236 O 0.31878 0.41182 0.22763 0.0
O237 O 0.31211 0.42695 0.2036 0.0
O238 O 0.75945 0.11781 0.7971 0.0
Cd239 Cd 0.7799 0.11288 0.81445 0.0
Cd240 Cd 0.79681 0.09838 0.78661 0.0
O241 O 0.77138 0.10062 0.77678 0.0
O242 O 0.771 0.10461 0.83779 0.0
O243 O 0.785 0.08743 0.8185 0.0
C244 C 0.77669 0.08909 0.83335 0.0
C245 C 0.81281 0.07417 0.77564 0.0
C246 C 0.7585 0.10991 0.7823 0.0
C247 C 0.81143 0.13231 0.80324 0.0
O248 O 0.81158 0.12109 0.7907 0.0
O249 O 0.80008 0.13106 0.81558 0.0
O250 O 0.80901 0.08762 0.76594 0.0
O251 O 0.80761 0.07436 0.79188 0.0
O252 O 0.12991 0.51442 0.04739 0.0
Cd253 Cd 0.13528 0.53213 0.06726 0.0
Cd254 Cd 0.14925 0.55381 0.0421 0.0
O255 O 0.14411 0.53088 0.02795 0.0
O256 O 0.14406 0.52018 0.08895 0.0
O257 O 0.16083 0.53676 0.0714 0.0
C258 C 0.15946 0.52655 0.08504 0.0
C259 C 0.17343 0.56968 0.03084 0.0
C260 C 0.13584 0.51676 0.03186 0.0
C261 C 0.11677 0.56607 0.063 0.0
O262 O 0.12838 0.56909 0.05119 0.0
O263 O 0.11697 0.5517 0.07169 0.0
O264 O 0.15859 0.56875 0.02259 0.0
O265 O 0.17463 0.56184 0.04595 0.0
O266 O 0.73914 0.88139 0.29667 0.0
Cd267 Cd 0.71962 0.88651 0.31489 0.0
Cd268 Cd 0.69987 0.898 0.28754 0.0
O269 O 0.72392 0.89382 0.27513 0.0
O270 O 0.7298 0.89563 0.33732 0.0
O271 O 0.714 0.91193 0.31866 0.0
C272 C 0.72329 0.91085 0.33298 0.0
C273 C 0.68341 0.92166 0.27604 0.0
C274 C 0.73798 0.88644 0.28069 0.0
C275 C 0.68748 0.8656 0.30824 0.0
O276 O 0.68518 0.87629 0.29544 0.0
O277 O 0.70062 0.86741 0.31855 0.0
O278 O 0.68564 0.90717 0.26741 0.0
O279 O 0.69044 0.92283 0.29154 0.0
O280 O 0.36612 0.48102 0.54822 0.0
Cd281 Cd 0.35965 0.46167 0.56618 0.0
Cd282 Cd 0.34167 0.44648 0.5396 0.0
O283 O 0.34614 0.47148 0.52925 0.0
O284 O 0.35398 0.47197 0.58967 0.0
O285 O 0.33407 0.45973 0.57186 0.0
C286 C 0.33763 0.46817 0.58629 0.0
C287 C 0.31569 0.4329 0.52952 0.0
C288 C 0.35748 0.48297 0.53396 0.0
C289 C 0.37485 0.42833 0.55429 0.0
O290 O 0.36283 0.42927 0.54255 0.0
O291 O 0.37569 0.43981 0.56653 0.0
O292 O 0.32901 0.4356 0.51932 0.0
O293 O 0.31695 0.43791 0.54578 0.0
O294 O 0.23293 0.61915 0.7017 0.0
Cd295 Cd 0.2137 0.61323 0.68345 0.0
Cd296 Cd 0.19449 0.60134 0.71067 0.0
O297 O 0.21851 0.60563 0.7231 0.0
O298 O 0.22513 0.60586 0.66107 0.0
O299 O 0.21017 0.58757 0.67853 0.0
C300 C 0.21991 0.58998 0.66467 0.0
C301 C 0.17847 0.57725 0.72185 0.0
C302 C 0.2322 0.61368 0.71756 0.0
C303 C 0.1813 0.63357 0.69028 0.0
O304 O 0.17947 0.62305 0.70329 0.0
O305 O 0.19413 0.63169 0.67961 0.0
O306 O 0.18052 0.59163 0.7307 0.0
O307 O 0.18541 0.57644 0.70628 0.0
O308 O 0.63245 0.98726 0.95355 0.0
Cd309 Cd 0.63724 0.96929 0.93371 0.0
Cd310 Cd 0.64998 0.94794 0.9593 0.0
O311 O 0.64679 0.97127 0.97331 0.0
O312 O 0.64607 0.98109 0.91199 0.0
O313 O 0.6626 0.96394 0.92921 0.0
C314 C 0.66133 0.97426 0.91563 0.0
C315 C 0.67285 0.92944 0.96919 0.0
C316 C 0.63867 0.98539 0.96905 0.0
C317 C 0.61667 0.93696 0.93883 0.0
O318 O 0.62776 0.93417 0.95117 0.0
O319 O 0.61812 0.95055 0.92907 0.0
O320 O 0.65855 0.9317 0.9781 0.0
O321 O 0.67451 0.93801 0.95453 0.0
O322 O 0.86354 0.01676 0.45474 0.0
Cd323 Cd 0.85829 0.03494 0.43519 0.0
Cd324 Cd 0.84684 0.05576 0.46161 0.0
O325 O 0.85186 0.03297 0.47602 0.0
O326 O 0.85042 0.02277 0.41326 0.0
O327 O 0.83291 0.03939 0.42997 0.0
C328 C 0.83486 0.02911 0.41645 0.0
C329 C 0.82191 0.0723 0.46969 0.0
C330 C 0.85917 0.01871 0.47086 0.0
C331 C 0.87891 0.06755 0.44008 0.0
O332 O 0.86821 0.07035 0.45276 0.0
O333 O 0.87722 0.05389 0.43045 0.0
O334 O 0.83609 0.07229 0.47913 0.0
O335 O 0.82169 0.0627 0.4556 0.0
C336 C 0.08611 0.19266 0.52295 0.0
C337 C 0.09317 0.17576 0.51969 0.0
C338 C 0.0941 0.20769 0.51572 0.0
C339 C 0.10462 0.23167 0.48495 0.0
H340 H 0.15529 0.23796 0.48018 0.0
C341 C 0.13832 0.26061 0.42362 0.0
C342 C 0.15369 0.27083 0.42567 0.0
C343 C 0.12981 0.25348 0.43838 0.0
C344 C 0.1411 0.23664 0.48164 0.0
H345 H 0.11482 0.16145 0.50748 0.0
H346 H 0.12883 0.18765 0.49502 0.0
H347 H 0.14379 0.21663 0.50154 0.0
H348 H 0.17158 0.28254 0.44483 0.0
H349 H 0.15678 0.26987 0.47062 0.0
H350 H 0.10196 0.25105 0.46443 0.0
C351 C 0.11712 0.18931 0.5031 0.0
C352 C 0.13454 0.22433 0.49376 0.0
C353 C 0.10903 0.17428 0.51015 0.0
C354 C 0.15979 0.27466 0.44282 0.0
C355 C 0.15138 0.26737 0.45758 0.0
C356 C 0.11118 0.24386 0.47272 0.0
C357 C 0.10942 0.20609 0.50534 0.0
C358 C 0.11626 0.22134 0.49514 0.0
C359 C 0.1366 0.25631 0.45546 0.0
C360 C 0.1295 0.24606 0.47057 0.0
H361 H 0.07391 0.19422 0.5303 0.0
H362 H 0.08798 0.22049 0.51775 0.0
H363 H 0.09046 0.22956 0.48564 0.0
H364 H 0.13326 0.2575 0.41058 0.0
H365 H 0.11854 0.24489 0.43631 0.0
C366 C 0.97339 0.9129 0.69488 0.0
C367 C 0.97657 0.90601 0.67789 0.0
C368 C 0.98085 0.90488 0.70978 0.0
C369 C 0.00362 0.86452 0.72579 0.0
H370 H 0.03171 0.89729 0.75355 0.0
C371 C 0.07325 0.86207 0.76357 0.0
C372 C 0.07151 0.84625 0.77315 0.0
C373 C 0.05839 0.87027 0.75629 0.0
C374 C 0.02379 0.888 0.74605 0.0
H375 H 0.98896 0.88463 0.66332 0.0
H376 H 0.00187 0.87061 0.68928 0.0
H377 H 0.01052 0.90868 0.732 0.0
H378 H 0.05271 0.82725 0.78364 0.0
H379 H 0.02675 0.84157 0.77079 0.0
H380 H 0.01757 0.84384 0.73915 0.0
C381 C 0.99364 0.8822 0.69112 0.0
C382 C 0.01155 0.8945 0.73383 0.0
C383 C 0.98633 0.89029 0.67622 0.0
C384 C 0.05449 0.83939 0.77625 0.0
C385 C 0.03964 0.84753 0.76883 0.0
C386 C 0.01577 0.85802 0.7381 0.0
C387 C 0.99144 0.88972 0.70799 0.0
C388 C 0.00178 0.88282 0.72315 0.0
C389 C 0.0415 0.86277 0.75835 0.0
C390 C 0.02641 0.8697 0.74792 0.0
H391 H 0.96588 0.92499 0.6966 0.0
H392 H 0.97881 0.91086 0.72265 0.0
H393 H 0.99615 0.85522 0.71785 0.0
H394 H 0.08616 0.86771 0.76101 0.0
H395 H 0.06028 0.88192 0.74816 0.0
C396 C 0.36001 0.73911 0.91947 0.0
C397 C 0.34499 0.72886 0.92323 0.0
C398 C 0.36865 0.74827 0.93293 0.0
C399 C 0.37267 0.75478 0.98133 0.0
H400 H 0.37974 0.80363 0.96731 0.0
C401 C 0.41134 0.80788 0.02168 0.0
C402 C 0.4052 0.8254 0.02049 0.0
C403 C 0.40285 0.79435 0.01234 0.0
C404 C 0.37768 0.79008 0.97152 0.0
H405 H 0.3281 0.71898 0.94422 0.0
H406 H 0.34311 0.73527 0.96778 0.0
H407 H 0.36895 0.78243 0.94583 0.0
H408 H 0.38437 0.84219 0.01011 0.0
H409 H 0.36942 0.81858 0.99412 0.0
H410 H 0.38134 0.76273 0.00721 0.0
C411 C 0.34824 0.73612 0.95443 0.0
C412 C 0.37177 0.77785 0.95912 0.0
C413 C 0.33962 0.72683 0.94092 0.0
C414 C 0.38958 0.82887 0.01107 0.0
C415 C 0.38106 0.81537 0.00185 0.0
C416 C 0.37873 0.76708 0.99381 0.0
C417 C 0.36237 0.7475 0.95042 0.0
C418 C 0.36924 0.76006 0.96382 0.0
C419 C 0.38805 0.79814 0.00174 0.0
C420 C 0.38118 0.78489 0.98901 0.0
H421 H 0.36462 0.74072 0.906 0.0
H422 H 0.37979 0.75662 0.92953 0.0
H423 H 0.37082 0.74114 0.98531 0.0
H424 H 0.42334 0.80481 0.02889 0.0
H425 H 0.40854 0.7812 0.0125 0.0
C426 C 0.5246 0.08714 0.19585 0.0
C427 C 0.52207 0.09455 0.17897 0.0
C428 C 0.51701 0.09503 0.21076 0.0
C429 C 0.49512 0.1356 0.22732 0.0
H430 H 0.46476 0.103 0.25281 0.0
C431 C 0.42451 0.13949 0.26329 0.0
C432 C 0.42672 0.15449 0.27402 0.0
C433 C 0.43916 0.13112 0.25578 0.0
C434 C 0.47331 0.11223 0.24595 0.0
H435 H 0.5108 0.11669 0.16464 0.0
H436 H 0.49771 0.13051 0.19062 0.0
H437 H 0.48628 0.09156 0.23162 0.0
H438 H 0.44609 0.17191 0.2861 0.0
H439 H 0.47168 0.15734 0.27279 0.0
H440 H 0.48153 0.15632 0.241 0.0
C441 C 0.5055 0.11861 0.19236 0.0
C442 C 0.48573 0.10569 0.23394 0.0
C443 C 0.51291 0.11063 0.17745 0.0
C444 C 0.44394 0.1604 0.27784 0.0
C445 C 0.45859 0.15212 0.27018 0.0
C446 C 0.4828 0.14214 0.23944 0.0
C447 C 0.50697 0.11057 0.20907 0.0
C448 C 0.49635 0.11735 0.22408 0.0
C449 C 0.4563 0.13767 0.25874 0.0
C450 C 0.47138 0.13054 0.24844 0.0
H451 H 0.53163 0.07475 0.19745 0.0
H452 H 0.51847 0.08865 0.22351 0.0
H453 H 0.50322 0.14487 0.21998 0.0
H454 H 0.41141 0.13459 0.26014 0.0
H455 H 0.43697 0.1201 0.24689 0.0
C456 C 0.65764 0.22695 0.55989 0.0
C457 C 0.65249 0.22898 0.57764 0.0
C458 C 0.64967 0.2371 0.54663 0.0
C459 C 0.62687 0.27983 0.54231 0.0
H460 H 0.61894 0.26521 0.49379 0.0
C461 C 0.60888 0.33121 0.49029 0.0
C462 C 0.59468 0.32696 0.47913 0.0
C463 C 0.61722 0.31807 0.50022 0.0
C464 C 0.62102 0.26946 0.50731 0.0
H465 H 0.63397 0.24198 0.59525 0.0
H466 H 0.61968 0.2592 0.5721 0.0
H467 H 0.62883 0.24349 0.51567 0.0
H468 H 0.57876 0.30549 0.46871 0.0
H469 H 0.59302 0.28257 0.48641 0.0
H470 H 0.61863 0.30557 0.53429 0.0
C471 C 0.63028 0.25028 0.56846 0.0
C472 C 0.6268 0.25705 0.51981 0.0
C473 C 0.63838 0.24032 0.58171 0.0
C474 C 0.5897 0.30915 0.47722 0.0
C475 C 0.59791 0.296 0.48733 0.0
C476 C 0.62106 0.29215 0.52991 0.0
C477 C 0.6363 0.24932 0.55088 0.0
C478 C 0.62972 0.26211 0.53748 0.0
C479 C 0.61135 0.30043 0.4994 0.0
C480 C 0.61811 0.28717 0.51224 0.0
H481 H 0.66852 0.21831 0.55637 0.0
H482 H 0.65466 0.23606 0.53324 0.0
H483 H 0.62931 0.28431 0.5557 0.0
H484 H 0.61316 0.3448 0.49186 0.0
H485 H 0.62788 0.32186 0.50901 0.0
C486 C 0.92524 0.35985 0.73282 0.0
C487 C 0.92761 0.34401 0.72341 0.0
C488 C 0.93967 0.3683 0.74068 0.0
C489 C 0.98193 0.3566 0.76032 0.0
H490 H 0.98615 0.40728 0.76695 0.0
C491 C 0.01043 0.38864 0.82282 0.0
C492 C 0.01999 0.4045 0.82135 0.0
C493 C 0.00319 0.38067 0.80782 0.0
C494 C 0.98539 0.3931 0.765 0.0
H495 H 0.94714 0.32531 0.71372 0.0
H496 H 0.97231 0.34009 0.72747 0.0
H497 H 0.96566 0.39573 0.74483 0.0
H498 H 0.03038 0.42388 0.80288 0.0
H499 H 0.01763 0.40994 0.77667 0.0
H500 H 0.00119 0.35396 0.78092 0.0
C501 C 0.95926 0.34584 0.72893 0.0
C502 C 0.97354 0.3865 0.75245 0.0
C503 C 0.94485 0.33744 0.721 0.0
C504 C 0.02302 0.41168 0.80446 0.0
C505 C 0.01565 0.40377 0.78946 0.0
C506 C 0.9937 0.3632 0.77293 0.0
C507 C 0.95674 0.36104 0.73932 0.0
C508 C 0.97133 0.36817 0.75033 0.0
C509 C 0.00529 0.38844 0.79105 0.0
C510 C 0.99518 0.3815 0.77575 0.0
H511 H 0.91214 0.36528 0.73486 0.0
H512 H 0.93727 0.37992 0.74871 0.0
H513 H 0.98043 0.3424 0.75911 0.0
H514 H 0.00791 0.38276 0.83564 0.0
H515 H 0.99514 0.36894 0.80951 0.0
C516 C 0.85994 0.7627 0.07294 0.0
C517 C 0.84411 0.77224 0.07118 0.0
C518 C 0.8682 0.75548 0.05809 0.0
C519 C 0.85638 0.73709 0.01554 0.0
H520 H 0.90717 0.73215 0.01037 0.0
C521 C 0.89036 0.67562 0.98719 0.0
C522 C 0.90617 0.67753 0.97765 0.0
C523 C 0.88174 0.69044 0.99406 0.0
C524 C 0.89295 0.73365 0.01136 0.0
H525 H 0.82503 0.78259 0.05238 0.0
H526 H 0.83941 0.76976 0.02642 0.0
H527 H 0.89527 0.75359 0.03136 0.0
H528 H 0.92472 0.69655 0.96675 0.0
H529 H 0.90969 0.72244 0.97889 0.0
H530 H 0.85408 0.71658 0.99611 0.0
C531 C 0.84538 0.76787 0.03931 0.0
C532 C 0.88616 0.74582 0.02349 0.0
C533 C 0.83721 0.77526 0.05416 0.0
C534 C 0.9126 0.69463 0.97414 0.0
C535 C 0.90405 0.70946 0.98113 0.0
C536 C 0.86318 0.72483 0.0035 0.0
C537 C 0.8607 0.75753 0.04119 0.0
C538 C 0.86783 0.74725 0.0261 0.0
C539 C 0.88883 0.70746 0.9916 0.0
C540 C 0.88153 0.7226 0.0017 0.0
H541 H 0.86561 0.7602 0.08586 0.0
H542 H 0.8799 0.74743 0.05998 0.0
H543 H 0.84219 0.73782 0.01735 0.0
H544 H 0.88504 0.66262 0.99006 0.0
H545 H 0.87012 0.68845 0.0022 0.0
C546 C 0.55698 0.66018 0.22832 0.0
C547 C 0.57446 0.65399 0.22991 0.0
C548 C 0.54331 0.65214 0.23786 0.0
C549 C 0.53819 0.62864 0.27955 0.0
H550 H 0.48977 0.62041 0.26472 0.0
C551 C 0.48622 0.61069 0.33069 0.0
C552 C 0.47664 0.59525 0.32688 0.0
C553 C 0.49547 0.61945 0.31734 0.0
C554 C 0.50325 0.62268 0.26901 0.0
H555 H 0.59102 0.63355 0.24137 0.0
H556 H 0.56718 0.61944 0.25778 0.0
H557 H 0.51175 0.63054 0.24305 0.0
H558 H 0.46795 0.57775 0.30583 0.0
H559 H 0.48432 0.59298 0.28255 0.0
H560 H 0.52999 0.62067 0.30533 0.0
C561 C 0.56411 0.63074 0.24952 0.0
C562 C 0.51578 0.6285 0.25665 0.0
C563 C 0.57775 0.63877 0.24005 0.0
C564 C 0.47529 0.58958 0.3092 0.0
C565 C 0.48462 0.59834 0.29584 0.0
C566 C 0.52573 0.62297 0.29185 0.0
C567 C 0.54691 0.63779 0.24911 0.0
C568 C 0.53342 0.63138 0.2618 0.0
C569 C 0.4954 0.61291 0.29994 0.0
C570 C 0.50813 0.6199 0.28675 0.0
H571 H 0.55402 0.67186 0.22057 0.0
H572 H 0.53018 0.65785 0.23729 0.0
H573 H 0.5516 0.63104 0.28401 0.0
H574 H 0.48733 0.61552 0.34413 0.0
H575 H 0.50337 0.6309 0.32081 0.0
C576 C 0.26146 0.4239 0.13899 0.0
C577 C 0.27168 0.42612 0.15434 0.0
C578 C 0.25376 0.4385 0.13069 0.0
C579 C 0.23575 0.48128 0.14238 0.0
H580 H 0.22874 0.48579 0.09176 0.0
C581 C 0.19232 0.52386 0.0879 0.0
C582 C 0.17535 0.52093 0.09493 0.0
C583 C 0.20715 0.51608 0.09572 0.0
C584 C 0.23081 0.48494 0.10591 0.0
H585 H 0.28278 0.44547 0.17241 0.0
H586 H 0.26917 0.47097 0.15796 0.0
H587 H 0.25041 0.46466 0.10308 0.0
H588 H 0.16075 0.5086 0.11633 0.0
H589 H 0.18664 0.49517 0.13005 0.0
H590 H 0.21559 0.50101 0.14523 0.0
C591 C 0.26707 0.45792 0.15242 0.0
C592 C 0.2431 0.47275 0.11238 0.0
C593 C 0.27492 0.44332 0.16063 0.0
C594 C 0.17364 0.51104 0.11056 0.0
C595 C 0.18849 0.50343 0.11848 0.0
C596 C 0.22334 0.49336 0.13592 0.0
C597 C 0.25603 0.45559 0.13766 0.0
C598 C 0.24534 0.47047 0.13068 0.0
C599 C 0.20531 0.50544 0.11084 0.0
C600 C 0.22042 0.49495 0.11764 0.0
H601 H 0.25877 0.41082 0.13379 0.0
H602 H 0.24521 0.43627 0.11941 0.0
H603 H 0.23709 0.47972 0.15656 0.0
H604 H 0.19406 0.53145 0.07587 0.0
H605 H 0.22 0.51795 0.08966 0.0
C606 C 0.69421 0.9761 0.91223 0.0
C607 C 0.6772 0.97943 0.90548 0.0
C608 C 0.7091 0.98348 0.90411 0.0
C609 C 0.72491 0.00591 0.86353 0.0
H610 H 0.75331 0.03395 0.8958 0.0
C611 C 0.763 0.07523 0.86007 0.0
C612 C 0.77215 0.07335 0.84401 0.0
C613 C 0.7559 0.06045 0.86857 0.0
C614 C 0.74563 0.02604 0.88664 0.0
H615 H 0.66254 0.99204 0.88429 0.0
H616 H 0.68847 0.00478 0.87009 0.0
H617 H 0.73169 0.01303 0.90757 0.0
H618 H 0.78215 0.05437 0.82493 0.0
H619 H 0.76965 0.02856 0.83978 0.0
H620 H 0.73813 0.01959 0.84261 0.0
C621 C 0.69034 0.99651 0.88164 0.0
C622 C 0.73336 0.01396 0.89337 0.0
C623 C 0.67546 0.9893 0.88984 0.0
C624 C 0.77508 0.05627 0.83724 0.0
C625 C 0.76787 0.04149 0.84569 0.0
C626 C 0.73725 0.01789 0.85681 0.0
C627 C 0.70725 0.99411 0.88898 0.0
C628 C 0.72246 0.00423 0.88187 0.0
C629 C 0.75773 0.0435 0.86113 0.0
C630 C 0.7473 0.02852 0.8683 0.0
H631 H 0.69597 0.96851 0.92426 0.0
H632 H 0.722 0.9813 0.90996 0.0
H633 H 0.71679 0.99846 0.85437 0.0
H634 H 0.76058 0.0882 0.86566 0.0
H635 H 0.74804 0.06246 0.88038 0.0
C636 C 0.73685 0.92538 0.35937 0.0
C637 C 0.72779 0.92687 0.34322 0.0
C638 C 0.74364 0.9404 0.36769 0.0
C639 C 0.76175 0.98311 0.35583 0.0
H640 H 0.76562 0.98886 0.40666 0.0
C641 C 0.80216 0.02653 0.412 0.0
C642 C 0.81945 0.02346 0.40586 0.0
C643 C 0.7877 0.01877 0.40348 0.0
C644 C 0.76442 0.98769 0.39243 0.0
H645 H 0.71776 0.94535 0.32367 0.0
H646 H 0.7298 0.97161 0.33819 0.0
H647 H 0.74479 0.96736 0.39456 0.0
H648 H 0.83505 0.01089 0.38532 0.0
H649 H 0.80985 0.99746 0.37044 0.0
H650 H 0.78193 0.00289 0.35372 0.0
C651 C 0.73169 0.9588 0.34433 0.0
C652 C 0.7526 0.97527 0.38552 0.0
C653 C 0.72474 0.94377 0.33608 0.0
C654 C 0.8219 0.01344 0.39041 0.0
C655 C 0.80744 0.00584 0.38181 0.0
C656 C 0.77365 0.99543 0.36274 0.0
C657 C 0.74161 0.95719 0.35996 0.0
C658 C 0.75155 0.97248 0.36718 0.0
C659 C 0.79025 0.00799 0.38856 0.0
C660 C 0.77549 0.99745 0.38112 0.0
H661 H 0.73935 0.91255 0.36523 0.0
H662 H 0.75137 0.93871 0.37964 0.0
H663 H 0.76133 0.98117 0.34164 0.0
H664 H 0.79985 0.03423 0.42386 0.0
H665 H 0.77457 0.02076 0.40887 0.0
C666 C 0.22505 0.55746 0.66089 0.0
C667 C 0.22675 0.57482 0.65441 0.0
C668 C 0.23466 0.54362 0.65321 0.0
C669 C 0.27653 0.53788 0.63006 0.0
H670 H 0.26143 0.48943 0.62253 0.0
C671 C 0.32727 0.48512 0.6127 0.0
C672 C 0.32326 0.47519 0.59753 0.0
C673 C 0.31409 0.49477 0.62131 0.0
C674 C 0.26579 0.50292 0.6246 0.0
H675 H 0.23851 0.591 0.63383 0.0
H676 H 0.25503 0.56687 0.62034 0.0
H677 H 0.23988 0.51169 0.63229 0.0
H678 H 0.30201 0.46639 0.58034 0.0
H679 H 0.27903 0.4834 0.59528 0.0
H680 H 0.30227 0.52941 0.62223 0.0
C681 C 0.24663 0.56402 0.6316 0.0
C682 C 0.2535 0.51561 0.63022 0.0
C683 C 0.23709 0.57782 0.63927 0.0
C684 C 0.30554 0.47399 0.59196 0.0
C685 C 0.29235 0.48369 0.60056 0.0
C686 C 0.28876 0.52526 0.62459 0.0
C687 C 0.24609 0.54694 0.63893 0.0
C688 C 0.25875 0.53326 0.63283 0.0
C689 C 0.29664 0.49473 0.61488 0.0
C690 C 0.28356 0.50765 0.62175 0.0
H691 H 0.21715 0.55472 0.67253 0.0
H692 H 0.23397 0.53059 0.65913 0.0
H693 H 0.28106 0.5513 0.63227 0.0
H694 H 0.34075 0.48617 0.61745 0.0
H695 H 0.31771 0.50287 0.63256 0.0
C696 C 0.28761 0.4155 0.5337 0.0
C697 C 0.29973 0.4241 0.52252 0.0
C698 C 0.27346 0.40588 0.5265 0.0
C699 C 0.24791 0.39985 0.48509 0.0
H700 H 0.24562 0.35023 0.49796 0.0
C701 C 0.23389 0.34578 0.43544 0.0
C702 C 0.22152 0.3325 0.43934 0.0
C703 C 0.23881 0.35804 0.44824 0.0
C704 C 0.24577 0.36414 0.49452 0.0
H705 H 0.30615 0.43005 0.49519 0.0
H706 H 0.28164 0.41356 0.48277 0.0
H707 H 0.26264 0.37081 0.51633 0.0
H708 H 0.20465 0.32152 0.45977 0.0
H709 H 0.21383 0.3429 0.4826 0.0
H710 H 0.23213 0.39298 0.46262 0.0
C711 C 0.28291 0.41418 0.49703 0.0
C712 C 0.25548 0.37592 0.50502 0.0
C713 C 0.29708 0.42352 0.50415 0.0
C714 C 0.2142 0.33167 0.45643 0.0
C715 C 0.21942 0.34383 0.46944 0.0
C716 C 0.23833 0.38811 0.4746 0.0
C717 C 0.27108 0.40506 0.50807 0.0
C718 C 0.25732 0.39371 0.4999 0.0
C719 C 0.23167 0.3572 0.46536 0.0
C720 C 0.23785 0.37002 0.47877 0.0
H721 H 0.28939 0.41572 0.54792 0.0
H722 H 0.26453 0.39894 0.53529 0.0
H723 H 0.24884 0.41356 0.48102 0.0
H724 H 0.23972 0.34683 0.42239 0.0
H725 H 0.24849 0.36805 0.44484 0.0
C726 C 0.91501 0.97022 0.70424 0.0
C727 C 0.91593 0.97759 0.68718 0.0
C728 C 0.90265 0.9766 0.71654 0.0
C729 C 0.86006 -0.00049 0.71879 0.0
H730 H 0.87579 0.02034 0.76296 0.0
C731 C 0.82508 0.05811 0.74969 0.0
C732 C 0.82281 0.05916 0.76809 0.0
C733 C 0.83487 0.04442 0.74222 0.0
C734 C 0.8711 0.01421 0.75089 0.0
H735 H 0.90458 0.99725 0.66958 0.0
H736 H 0.88305 0.00806 0.69078 0.0
H737 H 0.8964 0.00252 0.74532 0.0
H738 H 0.82894 0.04659 0.79314 0.0
H739 H 0.84645 0.02257 0.77994 0.0
H740 H 0.83506 0.01172 0.72384 0.0
C741 C 0.89182 0.99742 0.69471 0.0
C742 C 0.88288 0.00404 0.74082 0.0
C743 C 0.90426 0.9913 0.68262 0.0
C744 C 0.83045 0.04608 0.7789 0.0
C745 C 0.84049 0.0324 0.77138 0.0
C746 C 0.84832 0.00956 0.72884 0.0
C747 C 0.89084 0.99014 0.71176 0.0
C748 C 0.87764 0.99727 0.72432 0.0
C749 C 0.84275 0.03146 0.75294 0.0
C750 C 0.85394 0.01768 0.74458 0.0
H751 H 0.92388 0.95965 0.70811 0.0
H752 H 0.90216 0.97085 0.72966 0.0
H753 H 0.85564 0.9942 0.70623 0.0
H754 H 0.81936 0.06795 0.74097 0.0
H755 H 0.83663 0.04426 0.72799 0.0
C756 C 0.28101 0.66257 0.95287 0.0
C757 C 0.27359 0.66283 0.93581 0.0
C758 C 0.27447 0.65089 0.96575 0.0
C759 C 0.24891 0.60951 0.97022 0.0
H760 H 0.23178 0.62842 0.01474 0.0
C761 C 0.18808 0.58269 0.00447 0.0
C762 C 0.18855 0.57896 0.02266 0.0
C763 C 0.20217 0.59125 0.99629 0.0
C764 C 0.23686 0.62285 0.00255 0.0
H765 H 0.25377 0.65091 0.91879 0.0
H766 H 0.24259 0.63071 0.941 0.0
H767 H 0.25049 0.64678 0.99558 0.0
H768 H 0.20412 0.58143 0.04663 0.0
H769 H 0.22882 0.59703 0.0322 0.0
H770 H 0.23445 0.58604 0.97659 0.0
C771 C 0.25346 0.63937 0.9445 0.0
C772 C 0.24755 0.63333 0.99161 0.0
C773 C 0.25978 0.65108 0.9318 0.0
C774 C 0.20344 0.58411 0.03257 0.0
C775 C 0.21751 0.59303 0.02437 0.0
C776 C 0.23823 0.59912 0.98106 0.0
C777 C 0.26067 0.63913 0.96161 0.0
C778 C 0.253 0.627 0.97498 0.0
C779 C 0.21701 0.5965 0.00611 0.0
C780 C 0.23149 0.60596 0.99696 0.0
H781 H 0.29165 0.67152 0.95633 0.0
H782 H 0.28023 0.65099 0.97888 0.0
H783 H 0.2532 0.60418 0.95763 0.0
H784 H 0.17684 0.57887 0.99644 0.0
H785 H 0.20133 0.59401 0.98225 0.0
C786 C 0.59175 0.00566 0.18236 0.0
C787 C 0.58132 0.02031 0.18701 0.0
C788 C 0.60404 0.99877 0.19419 0.0
C789 C 0.61471 0.9932 0.24042 0.0
H790 H 0.66067 0.98068 0.22131 0.0
C791 C 0.66741 0.95082 0.27822 0.0
C792 C 0.67326 0.93635 0.26808 0.0
C793 C 0.65745 0.96436 0.27034 0.0
C794 C 0.64794 0.9842 0.22689 0.0
H795 H 0.57535 0.03904 0.20791 0.0
H796 H 0.59686 0.02658 0.22895 0.0
H797 H 0.64049 0.99873 0.20381 0.0
H798 H 0.67349 0.92485 0.24177 0.0
H799 H 0.65642 0.94835 0.22815 0.0
H800 H 0.62197 0.97787 0.26322 0.0
C801 C 0.59549 0.02065 0.21598 0.0
C802 C 0.63641 0.99452 0.21689 0.0
C803 C 0.58325 0.02776 0.20396 0.0
C804 C 0.66919 0.93579 0.24997 0.0
C805 C 0.6595 0.94934 0.24212 0.0
C806 C 0.62631 0.9828 0.25048 0.0
C807 C 0.60616 0.00623 0.21106 0.0
C808 C 0.61942 0.99851 0.22324 0.0
C809 C 0.65351 0.96375 0.25218 0.0
C810 C 0.64274 0.97762 0.24346 0.0
H811 H 0.59062 -0.00042 0.16944 0.0
H812 H 0.61185 0.98744 0.19016 0.0
H813 H 0.60167 0.99609 0.2456 0.0
H814 H 0.67033 0.95156 0.29223 0.0
H815 H 0.65294 0.97533 0.27838 0.0
C816 C 0.71162 0.16382 0.54324 0.0
C817 C 0.71395 0.15756 0.56058 0.0
C818 C 0.71856 0.15434 0.52889 0.0
C819 C 0.73681 0.111 0.5153 0.0
H820 H 0.77186 0.13828 0.48963 0.0
C821 C 0.78934 0.07879 0.46941 0.0
C822 C 0.80653 0.08305 0.47507 0.0
C823 C 0.77478 0.08841 0.47568 0.0
C824 C 0.76192 0.13054 0.49647 0.0
H825 H 0.72417 0.13601 0.5765 0.0
H826 H 0.73589 0.11935 0.55156 0.0
H827 H 0.75048 0.15347 0.50854 0.0
H828 H 0.82208 0.10112 0.49101 0.0
H829 H 0.79681 0.11805 0.50162 0.0
H830 H 0.74889 0.088 0.50393 0.0
C831 C 0.72886 0.13157 0.54897 0.0
C832 C 0.74961 0.13923 0.50718 0.0
C833 C 0.72227 0.14118 0.56326 0.0
C834 C 0.80898 0.09748 0.48651 0.0
C835 C 0.79453 0.10727 0.49245 0.0
C836 C 0.74898 0.10233 0.5044 0.0
C837 C 0.72753 0.13828 0.5317 0.0
C838 C 0.73743 0.12948 0.51726 0.0
C839 C 0.77728 0.10268 0.48733 0.0
C840 C 0.76209 0.11199 0.49548 0.0
H841 H 0.70528 0.17645 0.54084 0.0
H842 H 0.7174 0.15979 0.51569 0.0
H843 H 0.7275 0.1032 0.5229 0.0
H844 H 0.7871 0.06771 0.4606 0.0
H845 H 0.76159 0.08461 0.47159 0.0
C846 C 0.16487 0.56247 0.74788 0.0
C847 C 0.16864 0.56228 0.72969 0.0
C848 C 0.15544 0.5487 0.75565 0.0
C849 C 0.1223 0.51524 0.74722 0.0
H850 H 0.13693 0.49909 0.79369 0.0
C851 C 0.07982 0.47032 0.79449 0.0
C852 C 0.07779 0.47819 0.81123 0.0
C853 C 0.09198 0.47725 0.78228 0.0
C854 C 0.13275 0.50333 0.78065 0.0
H855 H 0.16546 0.54746 0.70534 0.0
H856 H 0.14851 0.52329 0.71905 0.0
H857 H 0.15698 0.51713 0.77603 0.0
H858 H 0.08687 0.49947 0.82827 0.0
H859 H 0.10802 0.51126 0.80723 0.0
H860 H 0.09768 0.50198 0.75234 0.0
C861 C 0.15306 0.53415 0.7272 0.0
C862 C 0.1442 0.51366 0.77056 0.0
C863 C 0.16277 0.54793 0.7194 0.0
C864 C 0.08807 0.49307 0.8155 0.0
C865 C 0.1003 0.49977 0.8035 0.0
C866 C 0.11079 0.50481 0.75736 0.0
C867 C 0.1494 0.53441 0.74544 0.0
C868 C 0.13881 0.52036 0.7541 0.0
C869 C 0.10249 0.49189 0.78683 0.0
C870 C 0.11568 0.49943 0.77448 0.0
H871 H 0.1692 0.5733 0.7562 0.0
H872 H 0.15257 0.54944 0.76967 0.0
H873 H 0.11781 0.52026 0.73457 0.0
H874 H 0.07205 0.45885 0.79084 0.0
H875 H 0.09341 0.47101 0.76946 0.0
C876 C 0.68231 0.90536 0.98947 0.0
C877 C 0.68651 0.91702 0.97564 0.0
C878 C 0.69483 0.89348 0.99585 0.0
C879 C 0.7417 0.88661 0.00202 0.0
H880 H 0.72599 0.83923 0.01395 0.0
C881 C 0.78166 0.83613 0.04557 0.0
C882 C 0.77149 0.83046 0.06008 0.0
C883 C 0.77371 0.84551 0.03165 0.0
C884 C 0.73065 0.85234 0.01052 0.0
H885 H 0.70721 0.92545 0.95766 0.0
H886 H 0.72945 0.90466 0.96921 0.0
H887 H 0.70743 0.85801 0.99541 0.0
H888 H 0.74507 0.82998 0.07131 0.0
H889 H 0.73132 0.84595 0.04711 0.0
H890 H 0.76459 0.88109 0.01795 0.0
C891 C 0.71631 0.90474 0.97492 0.0
C892 C 0.72004 0.86308 -5e-05 0.0
C893 C 0.70361 0.91657 0.96832 0.0
C894 C 0.7533 0.83418 0.06036 0.0
C895 C 0.74537 0.84322 0.04643 0.0
C896 C 0.75239 0.87578 0.01262 0.0
C897 C 0.71195 0.89301 0.98867 0.0
C898 C 0.72507 0.88059 0.99627 0.0
C899 C 0.75544 0.84895 0.03193 0.0
C900 C 0.74654 0.85885 0.01758 0.0
H901 H 0.66926 0.90533 0.9954 0.0
H902 H 0.69117 0.88483 0.00668 0.0
H903 H 0.74587 0.90006 0.99939 0.0
H904 H 0.79573 0.83346 0.04504 0.0
H905 H 0.78174 0.84987 0.02061 0.0
C906 C 0.34623 0.43546 0.23661 0.0
C907 C 0.33325 0.43974 0.22405 0.0
C908 C 0.35831 0.44812 0.24228 0.0
C909 C 0.36412 0.49418 0.25093 0.0
H910 H 0.41339 0.48045 0.25513 0.0
C911 C 0.41522 0.53208 0.29469 0.0
C912 C 0.42348 0.52059 0.30677 0.0
C913 C 0.40553 0.52525 0.2804 0.0
C914 C 0.39973 0.48459 0.25389 0.0
H915 H 0.32263 0.4607 0.2076 0.0
H916 H 0.34369 0.48327 0.2181 0.0
H917 H 0.39333 0.46268 0.23717 0.0
H918 H 0.42858 0.49305 0.31307 0.0
H919 H 0.412 0.48127 0.28827 0.0
H920 H 0.37033 0.51546 0.26867 0.0
C921 C 0.34453 0.46993 0.22326 0.0
C922 C 0.38828 0.47445 0.2436 0.0
C923 C 0.33254 0.45706 0.21728 0.0
C924 C 0.42232 0.50226 0.30404 0.0
C925 C 0.41294 0.4955 0.28972 0.0
C926 C 0.37562 0.50434 0.26133 0.0
C927 C 0.35759 0.46546 0.23571 0.0
C928 C 0.37022 0.47868 0.24269 0.0
C929 C 0.40433 0.50687 0.27782 0.0
C930 C 0.39333 0.49911 0.26356 0.0
H931 H 0.34719 0.42222 0.24203 0.0
H932 H 0.36808 0.4444 0.25209 0.0
H933 H 0.35023 0.49766 0.25047 0.0
H934 H 0.41588 0.54628 0.29652 0.0
H935 H 0.39897 0.53429 0.27142 0.0
C936 C 0.53646 0.29141 0.41471 0.0
C937 C 0.53329 0.30866 0.40856 0.0
C938 C 0.52996 0.27682 0.40529 0.0
C939 C 0.51155 0.2627 0.36217 0.0
H940 H 0.47821 0.23531 0.38991 0.0
C941 C 0.4599 0.2158 0.33024 0.0
C942 C 0.44267 0.22091 0.335 0.0
C943 C 0.47449 0.22216 0.33976 0.0
C944 C 0.48769 0.24262 0.38204 0.0
H945 H 0.52202 0.32421 0.38727 0.0
H946 H 0.51107 0.29886 0.37072 0.0
H947 H 0.49909 0.25496 0.40485 0.0
H948 H 0.42709 0.23586 0.35388 0.0
H949 H 0.45241 0.24662 0.37061 0.0
H950 H 0.49945 0.25109 0.33931 0.0
C951 C 0.51842 0.29652 0.3828 0.0
C952 C 0.49971 0.25376 0.39058 0.0
C953 C 0.52456 0.31105 0.39235 0.0
C954 C 0.44023 0.23179 0.34985 0.0
C955 C 0.45472 0.23782 0.35953 0.0
C956 C 0.49967 0.25138 0.35364 0.0
C957 C 0.52061 0.2793 0.3894 0.0
C958 C 0.51122 0.26447 0.38068 0.0
C959 C 0.47199 0.23335 0.3544 0.0
C960 C 0.48713 0.24184 0.36347 0.0
H961 H 0.54312 0.28924 0.42721 0.0
H962 H 0.5318 0.26366 0.41066 0.0
H963 H 0.52035 0.27077 0.35425 0.0
H964 H 0.46213 0.20744 0.31882 0.0
H965 H 0.48771 0.21858 0.33554 0.0
C966 C 0.03067 0.20251 0.58065 0.0
C967 C 0.0234 0.18538 0.58059 0.0
C968 C 0.02504 0.21503 0.59315 0.0
C969 C 0.00505 0.21812 0.63714 0.0
H970 H 0.98282 0.26171 0.62172 0.0
C971 C 0.94792 0.24914 0.67432 0.0
C972 C 0.94625 0.26758 0.67559 0.0
C973 C 0.96155 0.24162 0.6645 0.0
C974 C 0.98938 0.24983 0.62632 0.0
H975 H 0.00468 0.16792 0.59359 0.0
H976 H 0.99517 0.18952 0.61536 0.0
H977 H -0.00059 0.24374 0.60045 0.0
H978 H 0.95779 0.29268 0.66789 0.0
H979 H 0.98172 0.2794 0.65034 0.0
H980 H 0.99447 0.22369 0.66276 0.0
C981 C 0.00516 0.19332 0.60581 0.0
C982 C 0.99884 0.23955 0.61414 0.0
C983 C 0.01052 0.181 0.59323 0.0
C984 C 0.9588 0.27841 0.66715 0.0
C985 C 0.97242 0.27084 0.65708 0.0
C986 C 0.99572 0.22839 0.64928 0.0
C987 C 0.01238 0.21042 0.60595 0.0
C988 C 0.00606 0.22323 0.61931 0.0
C989 C 0.97383 0.25234 0.65557 0.0
C990 C 0.98709 0.24392 0.64382 0.0
H991 H 0.04061 0.20624 0.57103 0.0
H992 H 0.03072 0.22818 0.59298 0.0
H993 H 0.01074 0.2057 0.64149 0.0
H994 H 0.93849 0.24043 0.6807 0.0
H995 H 0.96207 0.22734 0.66337 0.0
C996 C 0.96972 0.70509 0.91774 0.0
C997 C 0.97862 0.6889 0.92 0.0
C998 C 0.97566 0.71736 0.90512 0.0
C999 C 0.00032 0.71955 0.86367 0.0
H1000 H 0.01671 0.76611 0.87768 0.0
C1001 C 0.05821 0.7529 0.83016 0.0
C1002 C 0.0579 0.77111 0.82654 0.0
C1003 C 0.04457 0.74501 0.83965 0.0
C1004 C 0.01179 0.75333 0.87344 0.0
H1005 H 0.00064 0.67288 0.91087 0.0
H1006 H 0.01069 0.69401 0.88888 0.0
H1007 H -0.00054 0.74816 0.89853 0.0
H1008 H 0.04299 0.79537 0.82995 0.0
H1009 H 0.01903 0.78145 0.84702 0.0
H1010 H 0.01326 0.72423 0.83898 0.0
C1011 C 0.99918 0.69726 0.8968 0.0
C1012 C 0.00196 0.74309 0.88536 0.0
C1013 C 0.99349 0.68523 0.90949 0.0
C1014 C 0.04353 0.78129 0.83253 0.0
C1015 C 0.02988 0.77336 0.84231 0.0
C1016 C 0.01003 0.72976 0.8518 0.0
C1017 C 0.9903 0.71338 0.8944 0.0
C1018 C 0.99685 0.72581 0.8808 0.0
C1019 C 0.0303 0.75512 0.8459 0.0
C1020 C 0.01658 0.7464 0.85685 0.0
H1021 H 0.95824 0.70827 0.92569 0.0
H1022 H 0.96867 0.72977 0.90354 0.0
H1023 H 0.9963 0.70635 0.85979 0.0
H1024 H 0.06907 0.74467 0.82572 0.0
H1025 H 0.04544 0.73098 0.84249 0.0
C1026 C 0.55789 0.74839 0.17154 0.0
C1027 C 0.55827 0.73 0.17409 0.0
C1028 C 0.54409 0.75628 0.16226 0.0
C1029 C 0.51271 0.74877 0.12713 0.0
H1030 H 0.49449 0.79395 0.14327 0.0
C1031 C 0.47048 0.79751 0.0838 0.0
C1032 C 0.47823 0.81443 0.08329 0.0
C1033 C 0.47646 0.78482 0.09597 0.0
C1034 C 0.4993 0.78126 0.13866 0.0
H1035 H 0.5444 0.70541 0.16904 0.0
H1036 H 0.5202 0.71936 0.15228 0.0
H1037 H 0.51164 0.77554 0.16345 0.0
H1038 H 0.4982 0.83131 0.09517 0.0
H1039 H 0.50835 0.80943 0.11632 0.0
H1040 H 0.50102 0.75505 0.10199 0.0
C1041 C 0.53062 0.72757 0.1577 0.0
C1042 C 0.5091 0.77074 0.15018 0.0
C1043 C 0.54439 0.71964 0.1673 0.0
C1044 C 0.49194 0.81841 0.09517 0.0
C1045 C 0.49768 0.80592 0.10741 0.0
C1046 C 0.50281 0.75935 0.11555 0.0
C1047 C 0.53038 0.746 0.15512 0.0
C1048 C 0.51659 0.75478 0.1443 0.0
C1049 C 0.48999 0.78904 0.10801 0.0
C1050 C 0.49672 0.77604 0.12102 0.0
H1051 H 0.56834 0.75675 0.17664 0.0
H1052 H 0.54443 0.77047 0.16025 0.0
H1053 H 0.51837 0.73655 0.12226 0.0
H1054 H 0.4599 0.79407 0.07477 0.0
H1055 H 0.47039 0.77184 0.09615 0.0
C1056 C 0.18465 0.31928 0.33517 0.0
C1057 C 0.18901 0.32541 0.35217 0.0
C1058 C 0.18817 0.32974 0.32029 0.0
C1059 C 0.22021 0.36379 0.30793 0.0
H1060 H 0.19576 0.36354 0.26285 0.0
C1061 C 0.25192 0.39676 0.24805 0.0
C1062 C 0.25212 0.38661 0.23248 0.0
C1063 C 0.2406 0.39237 0.26195 0.0
C1064 C 0.20274 0.36371 0.27536 0.0
H1065 H 0.19854 0.34792 0.36713 0.0
H1066 H 0.20412 0.36635 0.34132 0.0
H1067 H 0.18159 0.35042 0.28887 0.0
H1068 H 0.23984 0.36453 0.21887 0.0
H1069 H 0.22042 0.35655 0.24337 0.0
H1070 H 0.24158 0.37637 0.29454 0.0
C1071 C 0.19861 0.35327 0.33936 0.0
C1072 C 0.19462 0.35622 0.29025 0.0
C1073 C 0.19533 0.34276 0.35416 0.0
C1074 C 0.24003 0.37259 0.23072 0.0
C1075 C 0.22881 0.36808 0.24474 0.0
C1076 C 0.22829 0.37121 0.29313 0.0
C1077 C 0.19593 0.34656 0.32222 0.0
C1078 C 0.20337 0.35602 0.30667 0.0
C1079 C 0.22937 0.3776 0.26072 0.0
C1080 C 0.21977 0.3711 0.27661 0.0
H1081 H 0.17978 0.30594 0.33325 0.0
H1082 H 0.18598 0.32415 0.30729 0.0
H1083 H 0.22758 0.36348 0.32021 0.0
H1084 H 0.26087 0.40782 0.2497 0.0
H1085 H 0.24106 0.40025 0.27391 0.0
C1086 C 0.87379 0.99005 0.47918 0.0
C1087 C 0.86328 0.00466 0.4839 0.0
C1088 C 0.8789 0.97764 0.49192 0.0
C1089 C 0.86966 0.96204 0.53762 0.0
H1090 H 0.92016 0.95332 0.53937 0.0
C1091 C 0.90755 0.95085 0.60186 0.0
C1092 C 0.9231 0.94067 0.60197 0.0
C1093 C 0.89791 0.9531 0.5863 0.0
C1094 C 0.90596 0.95518 0.5389 0.0
H1095 H 0.84921 0.01721 0.50555 0.0
H1096 H 0.85819 0.99569 0.52771 0.0
H1097 H 0.90744 0.96794 0.51369 0.0
H1098 H 0.93999 0.92373 0.58612 0.0
H1099 H 0.92304 0.92765 0.55882 0.0
H1100 H 0.86832 0.94992 0.56319 0.0
C1101 C 0.8624 0.99373 0.51416 0.0
C1102 C 0.89867 0.96361 0.52416 0.0
C1103 C 0.85738 0.00617 0.50147 0.0
C1104 C 0.9281 0.93172 0.58645 0.0
C1105 C 0.91846 0.93405 0.57079 0.0
C1106 C 0.87695 0.95355 0.55234 0.0
C1107 C 0.87348 0.9795 0.50961 0.0
C1108 C 0.88054 0.96771 0.52365 0.0
C1109 C 0.90359 0.94525 0.57044 0.0
C1110 C 0.89529 0.95063 0.55344 0.0
H1111 H 0.8785 0.98844 0.46574 0.0
H1112 H 0.88733 0.96674 0.488 0.0
H1113 H 0.85559 0.96472 0.53745 0.0
H1114 H 0.90326 0.95782 0.61363 0.0
H1115 H 0.88664 0.96194 0.58652 0.0
C1116 C 0.26089 0.6286 0.72527 0.0
C1117 C 0.24692 0.61726 0.72998 0.0
C1118 C 0.27382 0.63321 0.7377 0.0
C1119 C 0.29156 0.62168 0.78224 0.0
H1120 H 0.29799 0.67234 0.78691 0.0
C1121 C 0.3007 0.65664 0.84839 0.0
C1122 C 0.31021 0.67257 0.84934 0.0
C1123 C 0.29908 0.64762 0.83237 0.0
C1124 C 0.29679 0.65812 0.7856 0.0
H1125 H 0.2361 0.60114 0.75114 0.0
H1126 H 0.25842 0.60928 0.77273 0.0
H1127 H 0.28357 0.66054 0.76073 0.0
H1128 H 0.3267 0.6908 0.83451 0.0
H1129 H 0.32384 0.675 0.80645 0.0
H1130 H 0.30398 0.6194 0.8076 0.0
C1131 C 0.25954 0.61452 0.75944 0.0
C1132 C 0.28848 0.65135 0.77056 0.0
C1133 C 0.24662 0.60999 0.74709 0.0
C1134 C 0.31919 0.6786 0.8342 0.0
C1135 C 0.31748 0.66961 0.81811 0.0
C1136 C 0.29988 0.62847 0.79729 0.0
C1137 C 0.27309 0.62647 0.75503 0.0
C1138 C 0.28514 0.63312 0.76905 0.0
C1139 C 0.3069 0.65436 0.8169 0.0
C1140 C 0.30193 0.64682 0.79945 0.0
H1141 H 0.26156 0.63435 0.71217 0.0
H1142 H 0.28418 0.64233 0.73387 0.0
H1143 H 0.28949 0.60754 0.78127 0.0
H1144 H 0.29374 0.65155 0.85984 0.0
H1145 H 0.29071 0.63601 0.83192 0.0
C1146 C 0.5696 0.06622 0.0866 0.0
C1147 C 0.5758 0.06139 0.10344 0.0
C1148 C 0.57989 0.06288 0.07157 0.0
C1149 C 0.61331 0.03048 0.05845 0.0
H1150 H 0.61301 0.0554 0.01362 0.0
C1151 C 0.64575 0.99906 0.99824 0.0
C1152 C 0.63559 0.99905 0.98269 0.0
C1153 C 0.64149 0.01033 0.01222 0.0
C1154 C 0.61318 0.0483 0.02606 0.0
H1155 H 0.59831 0.05128 0.11803 0.0
H1156 H 0.61649 0.0461 0.09196 0.0
H1157 H 0.60029 0.06948 0.03992 0.0
H1158 H 0.61363 0.0116 0.96915 0.0
H1159 H 0.60581 0.03095 0.99382 0.0
H1160 H 0.6255 0.00909 0.04475 0.0
C1161 C 0.60346 0.05181 0.09022 0.0
C1162 C 0.60592 0.05636 0.04111 0.0
C1163 C 0.5931 0.05487 0.10517 0.0
C1164 C 0.62169 0.01128 0.981 0.0
C1165 C 0.61727 0.02244 0.99511 0.0
C1166 C 0.6205 0.02247 0.04351 0.0
C1167 C 0.59662 0.05486 0.0732 0.0
C1168 C 0.60578 0.04745 0.05745 0.0
C1169 C 0.62679 0.02168 0.01108 0.0
C1170 C 0.6204 0.03116 0.02709 0.0
H1171 H 0.55628 0.07123 0.08491 0.0
H1172 H 0.5742 0.06537 0.05866 0.0
H1173 H 0.613 0.02298 0.07065 0.0
H1174 H 0.65674 0.99 -0.00017 0.0
H1175 H 0.64938 0.00972 0.02416 0.0
C1176 C 0.67669 0.17549 0.66658 0.0
C1177 C 0.67958 0.16753 0.65003 0.0
C1178 C 0.679 0.16576 0.68215 0.0
C1179 C 0.70624 0.1283 0.69614 0.0
H1180 H 0.68626 0.13801 0.74237 0.0
C1181 C 0.73963 0.10006 0.75714 0.0
C1182 C 0.74307 0.11242 0.77058 0.0
C1183 C 0.72708 0.10364 0.74411 0.0
C1184 C 0.69194 0.13515 0.72953 0.0
H1185 H 0.68492 0.14273 0.63668 0.0
H1186 H 0.68821 0.12559 0.66377 0.0
H1187 H 0.67179 0.14972 0.71584 0.0
H1188 H 0.73518 0.13765 0.78166 0.0
H1189 H 0.7136 0.14422 0.75851 0.0
H1190 H 0.72672 0.11441 0.70959 0.0
C1191 C 0.68489 0.13949 0.66481 0.0
C1192 C 0.68366 0.14184 0.71434 0.0
C1193 C 0.68289 0.14927 0.64928 0.0
C1194 C 0.73281 0.12789 0.77144 0.0
C1195 C 0.72039 0.13161 0.7582 0.0
C1196 C 0.71445 0.12163 0.71121 0.0
C1197 C 0.68401 0.14784 0.68142 0.0
C1198 C 0.69092 0.13876 0.69747 0.0
C1199 C 0.71789 0.1198 0.74402 0.0
C1200 C 0.70762 0.12521 0.72813 0.0
H1201 H 0.67413 0.18955 0.66756 0.0
H1202 H 0.67824 0.17266 0.69468 0.0
H1203 H 0.71254 0.12601 0.68347 0.0
H1204 H 0.74711 0.08786 0.75633 0.0
H1205 H 0.72514 0.09405 0.73364 0.0
C1206 C 0.14214 0.50439 0.00192 0.0
C1207 C 0.13249 0.50358 0.01779 0.0
C1208 C 0.13775 0.4935 0.98771 0.0
C1209 C 0.11109 0.45473 0.97346 0.0
H1210 H 0.10821 0.48132 0.9297 0.0
C1211 C 0.06867 0.43456 0.91273 0.0
C1212 C 0.07426 0.44034 0.89597 0.0
C1213 C 0.07866 0.43858 0.92781 0.0
C1214 C 0.10929 0.47349 0.94166 0.0
H1215 H 0.11133 0.48996 0.03155 0.0
H1216 H 0.10336 0.47114 0.00646 0.0
H1217 H 0.12022 0.49526 0.95584 0.0
H1218 H 0.09551 0.45302 0.88154 0.0
H1219 H 0.11325 0.4594 0.90765 0.0
H1220 H 0.09961 0.43306 0.95915 0.0
C1221 C 0.11447 0.48008 0.00512 0.0
C1222 C 0.11617 0.48155 0.95672 0.0
C1223 C 0.11897 0.49092 0.01946 0.0
C1224 C 0.09077 0.44865 0.89434 0.0
C1225 C 0.10086 0.45241 0.90932 0.0
C1226 C 0.10419 0.4466 0.95829 0.0
C1227 C 0.12349 0.48165 0.98892 0.0
C1228 C 0.11708 0.47234 0.97283 0.0
C1229 C 0.09449 0.44825 0.92631 0.0
C1230 C 0.10312 0.45596 0.94222 0.0
H1231 H 0.15283 0.51379 0.0003 0.0
H1232 H 0.14524 0.49474 0.97555 0.0
H1233 H 0.11171 0.44727 0.98568 0.0
H1234 H 0.05596 0.42815 0.91437 0.0
H1235 H 0.07334 0.4352 0.94067 0.0
C1236 C 0.76669 0.87174 0.27255 0.0
C1237 C 0.75256 0.88299 0.26807 0.0
C1238 C 0.7793 0.86701 0.25984 0.0
C1239 C 0.79566 0.87786 0.21455 0.0
H1240 H 0.8018 0.82712 0.21043 0.0
C1241 C 0.80262 0.84186 0.14861 0.0
C1242 C 0.81219 0.82596 0.1476 0.0
C1243 C 0.80142 0.85109 0.16455 0.0
C1244 C 0.80067 0.84136 0.21156 0.0
H1245 H 0.74123 0.89892 0.24704 0.0
H1246 H 0.76298 0.89059 0.22498 0.0
H1247 H 0.78834 0.83937 0.23693 0.0
H1248 H 0.82917 0.80801 0.16221 0.0
H1249 H 0.82704 0.82417 0.19012 0.0
H1250 H 0.80714 0.87971 0.18872 0.0
C1251 C 0.76447 0.88549 0.23829 0.0
C1252 C 0.79292 0.8484 0.22679 0.0
C1253 C 0.75186 0.89013 0.25092 0.0
C1254 C 0.82161 0.82017 0.16256 0.0
C1255 C 0.82032 0.82937 0.17858 0.0
C1256 C 0.80339 0.87082 0.19931 0.0
C1257 C 0.7781 0.87356 0.24245 0.0
C1258 C 0.78968 0.86665 0.22815 0.0
C1259 C 0.80973 0.84461 0.17987 0.0
C1260 C 0.80533 0.85243 0.19736 0.0
H1261 H 0.76766 0.86608 0.28568 0.0
H1262 H 0.78975 0.85791 0.26349 0.0
H1263 H 0.79366 0.89203 0.21537 0.0
H1264 H 0.7953 0.84676 0.1373 0.0
H1265 H 0.79302 0.86269 0.16509 0.0
C1266 C 0.37913 0.50376 0.52024 0.0
C1267 C 0.36171 0.49756 0.52173 0.0
C1268 C 0.38386 0.51505 0.50637 0.0
C1269 C 0.39163 0.54118 0.47721 0.0
H1270 H 0.3684 0.52905 0.43315 0.0
C1271 C 0.41992 0.56416 0.41005 0.0
C1272 C 0.42036 0.55097 0.39694 0.0
C1273 C 0.40974 0.56185 0.42536 0.0
C1274 C 0.37509 0.53258 0.44532 0.0
H1275 H 0.3352 0.49958 0.51107 0.0
H1276 H 0.34314 0.52011 0.48755 0.0
H1277 H 0.35691 0.51757 0.46066 0.0
H1278 H 0.40988 0.52534 0.38933 0.0
H1279 H 0.39274 0.5211 0.41597 0.0
H1280 H 0.41076 0.5549 0.46154 0.0
C1281 C 0.35342 0.51563 0.49646 0.0
C1282 C 0.36829 0.52623 0.46125 0.0
C1283 C 0.3488 0.50398 0.51004 0.0
C1284 C 0.40985 0.53581 0.39912 0.0
C1285 C 0.39985 0.53344 0.41443 0.0
C1286 C 0.39864 0.54727 0.4612 0.0
C1287 C 0.37117 0.52069 0.49393 0.0
C1288 C 0.37676 0.52997 0.47741 0.0
C1289 C 0.39988 0.54626 0.42791 0.0
C1290 C 0.39079 0.54253 0.445 0.0
H1291 H 0.38936 0.49894 0.52904 0.0
H1292 H 0.39769 0.51841 0.50487 0.0
H1293 H 0.39828 0.54476 0.48938 0.0
H1294 H 0.42779 0.57606 0.40872 0.0
H1295 H 0.40987 0.57214 0.43533 0.0
C1296 C 0.23132 0.2382 0.37401 0.0
C1297 C 0.2326 0.25065 0.38776 0.0
C1298 C 0.24546 0.22684 0.37032 0.0
C1299 C 0.29374 0.22608 0.3755 0.0
H1300 H 0.28989 0.17913 0.35519 0.0
C1301 C 0.35538 0.19296 0.34886 0.0
C1302 C 0.35373 0.18681 0.33141 0.0
C1303 C 0.34038 0.19604 0.35915 0.0
C1304 C 0.29116 0.19222 0.36089 0.0
H1305 H 0.24904 0.25995 0.40936 0.0
H1306 H 0.27343 0.23986 0.40326 0.0
H1307 H 0.26352 0.19367 0.36714 0.0
H1308 H 0.3352 0.17752 0.3116 0.0
H1309 H 0.30893 0.18335 0.32939 0.0
H1310 H 0.32107 0.22506 0.36881 0.0
C1311 C 0.26179 0.23924 0.39493 0.0
C1312 C 0.27606 0.20056 0.36769 0.0
C1313 C 0.24778 0.25072 0.39847 0.0
C1314 C 0.33688 0.18227 0.32501 0.0
C1315 C 0.32181 0.18558 0.33524 0.0
C1316 C 0.30874 0.21778 0.36878 0.0
C1317 C 0.26107 0.22759 0.38043 0.0
C1318 C 0.27715 0.21772 0.37484 0.0
C1319 C 0.32338 0.19331 0.35211 0.0
C1320 C 0.30763 0.20086 0.36115 0.0
H1321 H 0.21977 0.23782 0.36554 0.0
H1322 H 0.24449 0.21814 0.35898 0.0
H1323 H 0.29506 0.23945 0.38049 0.0
H1324 H 0.36824 0.19631 0.35424 0.0
H1325 H 0.34207 0.20153 0.37228 0.0
C1326 C 0.01064 0.98002 0.62209 0.0
C1327 C 0.99901 0.98195 0.63647 0.0
C1328 C 0.02219 0.99374 0.61749 0.0
C1329 C 0.02392 0.04201 0.62133 0.0
H1330 H 0.06949 0.03713 0.59829 0.0
C1331 C 0.05584 0.10265 0.59131 0.0
C1332 C 0.06119 0.10057 0.57365 0.0
C1333 C 0.05319 0.0879 0.60206 0.0
C1334 C 0.05679 0.03868 0.60473 0.0
H1335 H 0.99152 0.99901 0.65828 0.0
H1336 H 0.01195 0.02265 0.65059 0.0
H1337 H 0.05547 0.01122 0.61183 0.0
H1338 H 0.06941 0.08162 0.55379 0.0
H1339 H 0.06422 0.05572 0.57241 0.0
H1340 H 0.02472 0.06913 0.61379 0.0
C1341 C 0.01177 0.01084 0.64248 0.0
C1342 C 0.04876 0.02386 0.61246 0.0
C1343 C 9e-05 0.99726 0.64693 0.0
C1344 C 0.06529 0.08357 0.56738 0.0
C1345 C 0.06235 0.06874 0.57808 0.0
C1346 C 0.0319 0.05673 0.61367 0.0
C1347 C 0.02244 0.00955 0.6273 0.0
C1348 C 0.03211 0.02534 0.62065 0.0
C1349 C 0.05547 0.07073 0.59527 0.0
C1350 C 0.04831 0.05525 0.60507 0.0
H1351 H 0.01012 0.96835 0.6138 0.0
H1352 H 0.03014 0.99233 0.60566 0.0
H1353 H 0.01091 0.04361 0.6271 0.0
H1354 H 0.05284 0.11565 0.59655 0.0
H1355 H 0.04839 0.08992 0.61541 0.0
C1356 C 0.24908 0.74461 0.89618 0.0
C1357 C 0.26465 0.74511 0.88606 0.0
C1358 C 0.23512 0.75609 0.89246 0.0
C1359 C 0.22151 0.79554 0.86609 0.0
H1360 H 0.17677 0.77056 0.8645 0.0
C1361 C 0.16181 0.81552 0.82246 0.0
C1362 C 0.14483 0.81052 0.82811 0.0
C1363 C 0.17662 0.81173 0.83292 0.0
C1364 C 0.18901 0.77796 0.86523 0.0
H1365 H 0.2782 0.75872 0.86475 0.0
H1366 H 0.25357 0.77844 0.85787 0.0
H1367 H 0.20251 0.75595 0.87653 0.0
H1368 H 0.12976 0.79961 0.84992 0.0
H1369 H 0.15544 0.79359 0.8684 0.0
H1370 H 0.20788 0.81737 0.85406 0.0
C1371 C 0.25226 0.76937 0.86889 0.0
C1372 C 0.20385 0.76953 0.87215 0.0
C1373 C 0.26634 0.75799 0.87276 0.0
C1374 C 0.14274 0.80334 0.84511 0.0
C1375 C 0.15746 0.7998 0.85565 0.0
C1376 C 0.20657 0.80402 0.85911 0.0
C1377 C 0.23629 0.76818 0.87836 0.0
C1378 C 0.22034 0.77809 0.87248 0.0
C1379 C 0.17463 0.80306 0.84928 0.0
C1380 C 0.19019 0.79522 0.85842 0.0
H1381 H 0.24749 0.73504 0.90672 0.0
H1382 H 0.22317 0.75511 0.9003 0.0
H1383 H 0.23399 0.80256 0.8663 0.0
H1384 H 0.16381 0.82106 0.80939 0.0
H1385 H 0.18964 0.8144 0.82759 0.0
C1386 C 0.49992 0.00192 0.14244 0.0
C1387 C 0.49889 0.01921 0.13568 0.0
C1388 C 0.48739 0.98923 0.13772 0.0
C1389 C 0.45839 0.9783 0.10084 0.0
H1390 H 0.44512 0.93934 0.13147 0.0
C1391 C 0.44972 0.9003 0.09254 0.0
C1392 C 0.43981 0.89949 0.07684 0.0
C1393 C 0.45081 0.91602 0.10214 0.0
C1394 C 0.44859 0.95019 0.12278 0.0
H1395 H 0.4833 0.03697 0.11938 0.0
H1396 H 0.46136 0.01472 0.11111 0.0
H1397 H 0.45858 0.96581 0.14419 0.0
H1398 H 0.42217 0.91416 0.0596 0.0
H1399 H 0.42414 0.94174 0.0764 0.0
H1400 H 0.44925 0.96238 0.07934 0.0
C1401 C 0.472 0.01099 0.11995 0.0
C1402 C 0.45632 0.96532 0.13005 0.0
C1403 C 0.48454 0.02374 0.12474 0.0
C1404 C 0.42998 0.91439 0.07161 0.0
C1405 C 0.43117 0.9302 0.08117 0.0
C1406 C 0.45064 0.96318 0.09358 0.0
C1407 C 0.47351 0.9935 0.1261 0.0
C1408 C 0.46197 0.97923 0.11907 0.0
C1409 C 0.44206 0.93132 0.09622 0.0
C1410 C 0.44633 0.94867 0.10438 0.0
H1411 H 0.51074 0.99799 0.15098 0.0
H1412 H 0.48911 0.97584 0.14251 0.0
H1413 H 0.4627 0.98869 0.09198 0.0
H1414 H 0.45734 0.88901 0.09701 0.0
H1415 H 0.45944 0.91644 0.11356 0.0
C1416 C 0.75191 0.22848 0.60707 0.0
C1417 C 0.73557 0.2329 0.61474 0.0
C1418 C 0.76691 0.23872 0.61039 0.0
C1419 C 0.78254 0.28161 0.62881 0.0
H1420 H 0.82426 0.25409 0.64026 0.0
C1421 C 0.84129 0.30704 0.67091 0.0
C1422 C 0.85809 0.29975 0.66771 0.0
C1423 C 0.82672 0.30168 0.66083 0.0
C1424 C 0.81289 0.26207 0.63675 0.0
H1425 H 0.72203 0.25197 0.63139 0.0
H1426 H 0.74833 0.2696 0.63753 0.0
H1427 H 0.79799 0.2392 0.62964 0.0
H1428 H 0.8732 0.28271 0.65027 0.0
H1429 H 0.84794 0.2738 0.6324 0.0
H1430 H 0.79748 0.30447 0.63654 0.0
C1431 C 0.74949 0.25836 0.62872 0.0
C1432 C 0.79777 0.25349 0.63066 0.0
C1433 C 0.73443 0.24817 0.62531 0.0
C1434 C 0.86035 0.28833 0.65323 0.0
C1435 C 0.84586 0.28315 0.64306 0.0
C1436 C 0.79775 0.29023 0.63495 0.0
C1437 C 0.76597 0.25355 0.62157 0.0
C1438 C 0.78234 0.2631 0.62678 0.0
C1439 C 0.82875 0.28908 0.64728 0.0
C1440 C 0.81305 0.28051 0.63914 0.0
H1441 H 0.75321 0.21694 0.59866 0.0
H1442 H 0.77932 0.23484 0.60438 0.0
H1443 H 0.77092 0.28941 0.62576 0.0
H1444 H 0.83915 0.31587 0.68199 0.0
H1445 H 0.81372 0.30649 0.66446 0.0
C1446 C 0.98924 0.4794 0.88182 0.0
C1447 C 0.99614 0.4785 0.86464 0.0
C1448 C 0.97801 0.49327 0.88665 0.0
C1449 C 0.95264 0.52276 0.89507 0.0
H1450 H 0.96525 0.56718 0.87287 0.0
C1451 C 0.9325 0.58986 0.92608 0.0
C1452 C 0.94601 0.60264 0.92613 0.0
C1453 C 0.934 0.57465 0.91556 0.0
C1454 C 0.9616 0.55491 0.87932 0.0
H1455 H 0.99551 0.49022 0.83853 0.0
H1456 H 0.97487 0.51365 0.84647 0.0
H1457 H 0.97623 0.53989 0.86061 0.0
H1458 H 0.97148 0.60963 0.91482 0.0
H1459 H 0.97437 0.58321 0.89726 0.0
H1460 H 0.93949 0.53814 0.91485 0.0
C1461 C 0.97883 0.50435 0.85661 0.0
C1462 C 0.96765 0.53908 0.87203 0.0
C1463 C 0.99053 0.49082 0.85196 0.0
C1464 C 0.96075 0.60013 0.9151 0.0
C1465 C 0.96233 0.58495 0.90481 0.0
C1466 C 0.94696 0.53868 0.90264 0.0
C1467 C 0.97305 0.50629 0.87424 0.0
C1468 C 0.96381 0.52276 0.88015 0.0
C1469 C 0.9491 0.57188 0.905 0.0
C1470 C 0.95198 0.55499 0.89523 0.0
H1471 H 0.99347 0.47009 0.89187 0.0
H1472 H 0.97417 0.49426 0.9004 0.0
H1473 H 0.94884 0.5105 0.90142 0.0
H1474 H 0.92093 0.59144 0.93437 0.0
H1475 H 0.92344 0.56498 0.9159 0.0
C1476 C 0.66208 0.68471 0.17619 0.0
C1477 C 0.64529 0.69052 0.17072 0.0
C1478 C 0.677 0.68815 0.16578 0.0
C1479 C 0.69067 0.7218 0.1337 0.0
H1480 H 0.73474 0.69557 0.13273 0.0
C1481 C 0.75151 0.75253 0.10201 0.0
C1482 C 0.76696 0.75211 0.11232 0.0
C1483 C 0.73735 0.74139 0.1059 0.0
C1484 C 0.72251 0.70302 0.13291 0.0
H1485 H 0.63061 0.70257 0.14925 0.0
H1486 H 0.65646 0.70791 0.13079 0.0
H1487 H 0.70808 0.68173 0.14492 0.0
H1488 H 0.78014 0.73889 0.13409 0.0
H1489 H 0.75512 0.71967 0.14123 0.0
H1490 H 0.70497 0.74323 0.12229 0.0
C1491 C 0.65828 0.70137 0.14341 0.0
C1492 C 0.70725 0.69511 0.13987 0.0
C1493 C 0.64344 0.69821 0.15392 0.0
C1494 C 0.76837 0.73954 0.12595 0.0
C1495 C 0.75407 0.72847 0.12997 0.0
C1496 C 0.70581 0.72964 0.12675 0.0
C1497 C 0.67533 0.69724 0.14962 0.0
C1498 C 0.69119 0.70451 0.14053 0.0
C1499 C 0.73819 0.72972 0.12034 0.0
C1500 C 0.72196 0.72045 0.12642 0.0
H1501 H 0.6639 0.67876 0.1891 0.0
H1502 H 0.6899 0.68481 0.17102 0.0
H1503 H 0.67873 0.72967 0.13442 0.0
H1504 H 0.75014 0.76186 0.09121 0.0
H1505 H 0.72546 0.74237 0.09795 0.0
C1506 C 0.51136 0.52007 0.37852 0.0
C1507 C 0.50113 0.51926 0.36302 0.0
C1508 C 0.52373 0.5068 0.38226 0.0
C1509 C 0.52972 0.45981 0.37242 0.0
H1510 H 0.57269 0.46468 0.39998 0.0
C1511 C 0.56205 0.39808 0.39976 0.0
C1512 C 0.56567 0.39888 0.41796 0.0
C1513 C 0.55974 0.41358 0.39 0.0
C1514 C 0.56073 0.46312 0.39225 0.0
H1515 H 0.49704 0.50495 0.33849 0.0
H1516 H 0.51885 0.48215 0.34478 0.0
H1517 H 0.55797 0.49112 0.38837 0.0
H1518 H 0.57133 0.41649 0.43987 0.0
H1519 H 0.5667 0.44355 0.42302 0.0
H1520 H 0.5318 0.43209 0.37685 0.0
C1521 C 0.51696 0.49266 0.35434 0.0
C1522 C 0.55231 0.47825 0.38562 0.0
C1523 C 0.50449 0.50576 0.35071 0.0
C1524 C 0.56853 0.41546 0.42585 0.0
C1525 C 0.56592 0.431 0.41615 0.0
C1526 C 0.53807 0.44478 0.37904 0.0
C1527 C 0.52619 0.49259 0.37048 0.0
C1528 C 0.53653 0.47675 0.37587 0.0
C1529 C 0.56063 0.43021 0.39832 0.0
C1530 C 0.5535 0.44621 0.38931 0.0
H1531 H 0.50907 0.53035 0.38824 0.0
H1532 H 0.53054 0.50712 0.39486 0.0
H1533 H 0.51739 0.45813 0.36533 0.0
H1534 H 0.56003 0.38546 0.39326 0.0
H1535 H 0.55621 0.4125 0.37615 0.0
C1536 C 0.37275 0.23192 0.24499 0.0
C1537 C 0.38592 0.23393 0.25796 0.0
C1538 C 0.36838 0.24599 0.23378 0.0
C1539 C 0.37032 0.29461 0.2334 0.0
H1540 H 0.35326 0.28972 0.18526 0.0
C1541 C 0.34467 0.35514 0.19748 0.0
C1542 C 0.32767 0.35314 0.19026 0.0
C1543 C 0.35488 0.34035 0.2016 0.0
C1544 C 0.35802 0.29127 0.19868 0.0
H1545 H 0.40571 0.25183 0.26849 0.0
H1546 H 0.39846 0.27613 0.24869 0.0
H1547 H 0.36554 0.26397 0.20065 0.0
H1548 H 0.30867 0.33417 0.18021 0.0
H1549 H 0.32639 0.30822 0.18778 0.0
H1550 H 0.36249 0.32164 0.23176 0.0
C1551 C 0.39108 0.26391 0.24752 0.0
C1552 C 0.365 0.27653 0.20752 0.0
C1553 C 0.3953 0.24995 0.25884 0.0
C1554 C 0.32174 0.33611 0.18576 0.0
C1555 C 0.33191 0.32124 0.19009 0.0
C1556 C 0.36345 0.30926 0.2246 0.0
C1557 C 0.37722 0.2623 0.23521 0.0
C1558 C 0.37107 0.27802 0.22507 0.0
C1559 C 0.34823 0.32321 0.19883 0.0
C1560 C 0.35706 0.30777 0.2072 0.0
H1561 H 0.36529 0.21972 0.24398 0.0
H1562 H 0.35754 0.24431 0.22457 0.0
H1563 H 0.37443 0.29621 0.24704 0.0
H1564 H 0.3497 0.36814 0.20084 0.0
H1565 H 0.36761 0.34232 0.20789 0.0
C1566 C 0.82372 0.16063 0.81579 0.0
C1567 C 0.82368 0.14759 0.80251 0.0
C1568 C 0.83409 0.17589 0.81395 0.0
C1569 C 0.87018 0.19545 0.78623 0.0
H1570 H 0.84723 0.23987 0.7975 0.0
C1571 C 0.86799 0.27005 0.7567 0.0
C1572 C 0.88552 0.27107 0.75073 0.0
C1573 C 0.86282 0.25651 0.76817 0.0
C1574 C 0.85383 0.2276 0.79418 0.0
H1575 H 0.83497 0.14013 0.77718 0.0
H1576 H 0.85242 0.16665 0.77374 0.0
H1577 H 0.83394 0.21223 0.80716 0.0
H1578 H 0.9118 0.26001 0.7534 0.0
H1579 H 0.90312 0.23711 0.77433 0.0
H1580 H 0.88914 0.21046 0.77188 0.0
C1581 C 0.84487 0.16508 0.78581 0.0
C1582 C 0.84633 0.21171 0.8 0.0
C1583 C 0.83468 0.14985 0.78771 0.0
C1584 C 0.89812 0.25933 0.75763 0.0
C1585 C 0.89307 0.24609 0.7695 0.0
C1586 C 0.87747 0.21126 0.78012 0.0
C1587 C 0.84455 0.17844 0.79875 0.0
C1588 C 0.85408 0.19539 0.79553 0.0
C1589 C 0.87518 0.24393 0.77425 0.0
C1590 C 0.8691 0.22756 0.7835 0.0
H1591 H 0.81546 0.15925 0.82741 0.0
H1592 H 0.83368 0.18579 0.82429 0.0
H1593 H 0.87681 0.18318 0.78295 0.0
H1594 H 0.858 0.27892 0.75149 0.0
H1595 H 0.8489 0.2553 0.77128 0.0
C1596 C 0.98064 0.62435 0.01516 0.0
C1597 C 0.98198 0.63916 0.00401 0.0
C1598 C 0.99432 0.62027 0.02697 0.0
C1599 C 0.04214 0.62649 0.02934 0.0
H1600 H 0.03817 0.60199 0.07423 0.0
C1601 C 0.10369 0.59614 0.05944 0.0
C1602 C 0.10177 0.57846 0.06474 0.0
C1603 C 0.08886 0.6069 0.05722 0.0
C1604 C 0.03949 0.60883 0.06171 0.0
H1605 H 0.99775 0.66229 0.99774 0.0
H1606 H 0.02132 0.65542 0.01856 0.0
H1607 H 0.01177 0.61492 0.0606 0.0
H1608 H 0.08299 0.55855 0.07327 0.0
H1609 H 0.05701 0.57708 0.06875 0.0
H1610 H 0.06947 0.6198 0.02979 0.0
C1611 C 0.01002 0.64663 0.01783 0.0
C1612 C 0.02438 0.61623 0.05392 0.0
C1613 C 0.99649 0.6506 0.00593 0.0
C1614 C 0.08486 0.57215 0.06917 0.0
C1615 C 0.06996 0.58283 0.06663 0.0
C1616 C 0.05714 0.61908 0.03704 0.0
C1617 C 0.00947 0.63102 0.02792 0.0
C1618 C 0.02552 0.62491 0.0375 0.0
C1619 C 0.07174 0.60008 0.05985 0.0
C1620 C 0.05601 0.60989 0.05318 0.0
H1621 H 0.96958 0.61531 0.01401 0.0
H1622 H 0.9935 0.6081 0.0345 0.0
H1623 H 0.04348 0.63269 0.0165 0.0
H1624 H 0.11661 0.60143 0.05619 0.0
H1625 H 0.09076 0.6203 0.05252 0.0
C1626 C 0.68125 0.83489 0.31918 0.0
C1627 C 0.67581 0.84996 0.30973 0.0
C1628 C 0.67182 0.81902 0.31772 0.0
C1629 C 0.63019 0.79903 0.30055 0.0
H1630 H 0.66106 0.76111 0.28506 0.0
C1631 C 0.60947 0.74771 0.24919 0.0
C1632 C 0.61649 0.7305 0.24973 0.0
C1633 C 0.61452 0.76031 0.26169 0.0
C1634 C 0.65219 0.77133 0.28976 0.0
H1635 H 0.6554 0.86064 0.29261 0.0
H1636 H 0.63903 0.83312 0.2901 0.0
H1637 H 0.67371 0.78732 0.29871 0.0
H1638 H 0.63363 0.71277 0.26443 0.0
H1639 H 0.64244 0.73486 0.28634 0.0
H1640 H 0.60872 0.78333 0.29084 0.0
C1641 C 0.65054 0.83346 0.29862 0.0
C1642 C 0.65946 0.78639 0.29761 0.0
C1643 C 0.66002 0.84923 0.29995 0.0
C1644 C 0.62807 0.72595 0.26357 0.0
C1645 C 0.63316 0.73861 0.27609 0.0
C1646 C 0.6229 0.78394 0.29274 0.0
C1647 C 0.65668 0.81802 0.30696 0.0
C1648 C 0.64861 0.8007 0.30244 0.0
C1649 C 0.62671 0.75603 0.27506 0.0
C1650 C 0.63389 0.77024 0.28661 0.0
H1651 H 0.69333 0.83504 0.32687 0.0
H1652 H 0.67676 0.80737 0.32445 0.0
H1653 H 0.62147 0.80973 0.30441 0.0
H1654 H 0.60046 0.75166 0.23878 0.0
H1655 H 0.60948 0.77365 0.26032 0.0
C1656 C 0.40605 0.4183 0.55919 0.0
C1657 C 0.38916 0.41518 0.55207 0.0
C1658 C 0.42052 0.40814 0.55371 0.0
C1659 C 0.43387 0.38395 0.51399 0.0
H1660 H 0.47619 0.37323 0.5409 0.0
C1661 C 0.49481 0.35484 0.47976 0.0
C1662 C 0.5111 0.3627 0.48402 0.0
C1663 C 0.47988 0.35797 0.49016 0.0
C1664 C 0.46447 0.3762 0.53322 0.0
H1665 H 0.37381 0.39779 0.5352 0.0
H1666 H 0.3989 0.37978 0.52606 0.0
H1667 H 0.44973 0.38388 0.55622 0.0
H1668 H 0.52463 0.37949 0.50297 0.0
H1669 H 0.49844 0.38529 0.52088 0.0
H1670 H 0.44859 0.3769 0.49098 0.0
C1671 C 0.40112 0.39044 0.53538 0.0
C1672 C 0.44932 0.38226 0.54199 0.0
C1673 C 0.38672 0.40069 0.54069 0.0
C1674 C 0.51226 0.37326 0.49929 0.0
C1675 C 0.49727 0.37649 0.50965 0.0
C1676 C 0.44895 0.37793 0.50526 0.0
C1677 C 0.4183 0.39459 0.54114 0.0
C1678 C 0.4339 0.38639 0.53243 0.0
C1679 C 0.48083 0.36914 0.505 0.0
C1680 C 0.4645 0.37417 0.51471 0.0
H1681 H 0.40834 0.42937 0.56798 0.0
H1682 H 0.43357 0.41172 0.55839 0.0
H1683 H 0.42241 0.38741 0.50612 0.0
H1684 H 0.4935 0.34644 0.46823 0.0
H1685 H 0.46749 0.35183 0.4864 0.0
C1686 C 0.17477 0.66414 0.67913 0.0
C1687 C 0.16962 0.64924 0.68902 0.0
C1688 C 0.16558 0.68012 0.68081 0.0
C1689 C 0.15451 0.71312 0.70109 0.0
H1690 H 0.10411 0.71701 0.70968 0.0
C1691 C 0.1067 0.75327 0.75058 0.0
C1692 C 0.11394 0.77036 0.74959 0.0
C1693 C 0.11118 0.74042 0.73814 0.0
C1694 C 0.11821 0.71616 0.70728 0.0
H1695 H 0.14991 0.639 0.70718 0.0
H1696 H 0.13393 0.66674 0.71005 0.0
H1697 H 0.116 0.69022 0.69608 0.0
H1698 H 0.13091 0.78761 0.73416 0.0
H1699 H 0.13873 0.76507 0.71231 0.0
H1700 H 0.15692 0.73857 0.71318 0.0
C1701 C 0.14504 0.66616 0.70103 0.0
C1702 C 0.12499 0.70085 0.69945 0.0
C1703 C 0.1543 0.65026 0.69948 0.0
C1704 C 0.12518 0.77454 0.73537 0.0
C1705 C 0.12971 0.76162 0.72289 0.0
C1706 C 0.14774 0.7284 0.70898 0.0
C1707 C 0.15097 0.68143 0.69223 0.0
C1708 C 0.14329 0.69891 0.69688 0.0
C1709 C 0.12302 0.7443 0.72435 0.0
C1710 C 0.1296 0.72981 0.71278 0.0
H1711 H 0.1865 0.66377 0.67091 0.0
H1712 H 0.17033 0.69164 0.67372 0.0
H1713 H 0.1687 0.71198 0.69946 0.0
H1714 H 0.09793 0.7496 0.76131 0.0
H1715 H 0.10598 0.72718 0.73986 0.0
C1716 C 0.47805 0.87779 0.98653 0.0
C1717 C 0.48291 0.86686 0.00079 0.0
C1718 C 0.49053 0.88265 0.97375 0.0
C1719 C 0.53558 0.8725 0.95671 0.0
H1720 H 0.53856 0.9232 0.94961 0.0
C1721 C 0.6006 0.90928 0.94687 0.0
C1722 C 0.60102 0.92528 0.93742 0.0
C1723 C 0.58486 0.89981 0.94857 0.0
C1724 C 0.53774 0.90896 0.95099 0.0
H1725 H 0.50444 0.85172 0.01226 0.0
H1726 H 0.52613 0.86028 0.99013 0.0
H1727 H 0.51276 0.9107 0.96412 0.0
H1728 H 0.5856 0.94314 0.92109 0.0
H1729 H 0.55802 0.9265 0.92404 0.0
H1730 H 0.56099 0.87089 0.94429 0.0
C1731 C 0.51268 0.86501 0.98871 0.0
C1732 C 0.52292 0.90179 0.95936 0.0
C1733 C 0.50027 0.86023 0.00151 0.0
C1734 C 0.58568 0.9309 0.92854 0.0
C1735 C 0.56986 0.92143 0.93032 0.0
C1736 C 0.5504 0.87967 0.94829 0.0
C1737 C 0.50806 0.87658 0.97489 0.0
C1738 C 0.522 0.88356 0.96293 0.0
C1739 C 0.56915 0.90612 0.94089 0.0
C1740 C 0.55196 0.89806 0.94598 0.0
H1741 H 0.46477 0.88305 0.98552 0.0
H1742 H 0.48654 0.89146 0.96317 0.0
H1743 H 0.53508 0.85836 0.95897 0.0
H1744 H 0.61222 0.9045 0.95375 0.0
H1745 H 0.58481 0.88817 0.95693 0.0
C1746 C 0.89563 0.09491 0.44801 0.0
C1747 C 0.89457 0.07915 0.43819 0.0
C1748 C 0.91158 0.10409 0.4493 0.0
C1749 C 0.94644 0.12358 0.44822 0.0
H1750 H 0.98403 0.09135 0.46162 0.0
C1751 C 0.99919 0.14061 0.4997 0.0
C1752 C 0.01634 0.13361 0.49811 0.0
C1753 C 0.98615 0.13641 0.48733 0.0
C1754 C 0.97388 0.10061 0.45754 0.0
H1755 H 0.90903 0.06153 0.42076 0.0
H1756 H 0.93695 0.07767 0.42297 0.0
H1757 H 0.95739 0.0798 0.44786 0.0
H1758 H 0.03346 0.11737 0.48175 0.0
H1759 H 0.01059 0.10998 0.46014 0.0
H1760 H 0.96264 0.14427 0.4588 0.0
C1761 C 0.92546 0.08275 0.42987 0.0
C1762 C 0.95858 0.09398 0.44959 0.0
C1763 C 0.90944 0.07357 0.42852 0.0
C1764 C 0.02035 0.1229 0.48343 0.0
C1765 C 0.00725 0.11862 0.47107 0.0
C1766 C 0.96175 0.13021 0.45619 0.0
C1767 C 0.92686 0.09773 0.44082 0.0
C1768 C 0.9444 0.1053 0.44547 0.0
C1769 C 0.98992 0.12507 0.47308 0.0
C1770 C 0.97534 0.1187 0.46154 0.0
H1771 H 0.88439 0.09966 0.4555 0.0
H1772 H 0.91218 0.11549 0.45795 0.0
H1773 H 0.93588 0.13268 0.4449 0.0
H1774 H 0.99566 0.14898 0.51078 0.0
H1775 H 0.97289 0.14141 0.48941 0.0
loop_
_geom_bond_atom_site_label_1
_geom_bond_atom_site_label_2
_geom_bond_distance
_geom_bond_site_symmetry_2
_ccdc_geom_bond_type
O0 Cd1 2.223 . S
O0 C8 1.315 . S
Cd1 O0 2.223 . S
Cd1 O4 2.297 . S
Cd1 O5 2.439 . S
Cd1 O11 2.240 . S
Cd2 O3 2.240 . S
Cd2 O10 2.223 . S
Cd2 O12 2.297 . S
Cd2 O13 2.439 . S
O3 Cd2 2.240 . S
O3 C8 1.279 . S
O4 Cd1 2.297 . S
O4 C6 1.247 . S
O5 Cd1 2.439 . S
O5 C6 1.208 . S
C6 O4 1.247 . S
C6 O5 1.208 . S
C7 O12 1.247 . S
C7 O13 1.208 . S
C8 O0 1.315 . S
C8 O3 1.279 . S
C9 O10 1.315 . S
C9 O11 1.279 . S
O10 Cd2 2.223 . S
O10 C9 1.315 . S
O11 Cd1 2.240 . S
O11 C9 1.279 . S
O12 Cd2 2.297 . S
O12 C7 1.247 . S
O13 Cd2 2.439 . S
O13 C7 1.208 . S
O14 Cd15 2.223 . S
O14 C22 1.315 . S
Cd15 O14 2.223 . S
Cd15 O18 2.297 . S
Cd15 O19 2.439 . S
Cd15 O25 2.240 . S
Cd16 O17 2.240 . S
Cd16 O24 2.223 . S
Cd16 O26 2.297 . S
Cd16 O27 2.439 . S
O17 Cd16 2.240 . S
O17 C22 1.279 . S
O18 Cd15 2.297 . S
O18 C20 1.247 . S
O19 Cd15 2.439 . S
O19 C20 1.208 . S
C20 O18 1.247 . S
C20 O19 1.208 . S
C21 O26 1.247 . S
C21 O27 1.208 . S
C22 O14 1.315 . S
C22 O17 1.279 . S
C23 O24 1.315 . S
C23 O25 1.279 . S
O24 Cd16 2.223 . S
O24 C23 1.315 . S
O25 Cd15 2.240 . S
O25 C23 1.279 . S
O26 Cd16 2.297 . S
O26 C21 1.247 . S
O27 Cd16 2.439 . S
O27 C21 1.208 . S
O28 Cd29 2.223 . S
O28 C36 1.315 . S
Cd29 O28 2.223 . S
Cd29 O32 2.297 . S
Cd29 O33 2.439 . S
Cd29 O39 2.240 . S
Cd30 O31 2.240 . S
Cd30 O38 2.223 . S
Cd30 O40 2.297 . S
Cd30 O41 2.439 . S
O31 Cd30 2.240 . S
O31 C36 1.279 . S
O32 Cd29 2.297 . S
O32 C34 1.247 . S
O33 Cd29 2.439 . S
O33 C34 1.208 . S
C34 O32 1.247 . S
C34 O33 1.208 . S
C35 O40 1.247 . S
C35 O41 1.208 . S
C36 O28 1.315 . S
C36 O31 1.279 . S
C37 O38 1.315 . S
C37 O39 1.279 . S
O38 Cd30 2.223 . S
O38 C37 1.315 . S
O39 Cd29 2.240 . S
O39 C37 1.279 . S
O40 Cd30 2.297 . S
O40 C35 1.247 . S
O41 Cd30 2.439 . S
O41 C35 1.208 . S
O42 Cd43 2.223 . S
O42 C50 1.315 . S
Cd43 O42 2.223 . S
Cd43 O46 2.297 . S
Cd43 O47 2.439 . S
Cd43 O53 2.240 . S
Cd44 O45 2.240 . S
Cd44 O52 2.223 . S
Cd44 O54 2.297 . S
Cd44 O55 2.439 . S
O45 Cd44 2.240 . S
O45 C50 1.279 . S
O46 Cd43 2.297 . S
O46 C48 1.247 . S
O47 Cd43 2.439 . S
O47 C48 1.208 . S
C48 O46 1.247 . S
C48 O47 1.208 . S
C49 O54 1.247 . S
C49 O55 1.208 . S
C50 O42 1.315 . S
C50 O45 1.279 . S
C51 O52 1.315 . S
C51 O53 1.279 . S
O52 Cd44 2.223 . S
O52 C51 1.315 . S
O53 Cd43 2.240 . S
O53 C51 1.279 . S
O54 Cd44 2.297 . S
O54 C49 1.247 . S
O55 Cd44 2.439 . S
O55 C49 1.208 . S
O56 Cd57 2.223 . S
O56 C64 1.315 . S
Cd57 O56 2.223 . S
Cd57 O60 2.297 . S
Cd57 O61 2.439 . S
Cd57 O67 2.240 . S
Cd58 O59 2.240 . S
Cd58 O66 2.223 . S
Cd58 O68 2.297 . S
Cd58 O69 2.439 . S
O59 Cd58 2.240 . S
O59 C64 1.279 . S
O60 Cd57 2.297 . S
O60 C62 1.247 . S
O61 Cd57 2.439 . S
O61 C62 1.208 . S
C62 O60 1.247 . S
C62 O61 1.208 . S
C63 O68 1.247 . S
C63 O69 1.208 . S
C64 O56 1.315 . S
C64 O59 1.279 . S
C65 O66 1.315 . S
C65 O67 1.279 . S
O66 Cd58 2.223 . S
O66 C65 1.315 . S
O67 Cd57 2.240 . S
O67 C65 1.279 . S
O68 Cd58 2.297 . S
O68 C63 1.247 . S
O69 Cd58 2.439 . S
O69 C63 1.208 . S
O70 Cd71 2.223 . S
O70 C78 1.315 . S
Cd71 O70 2.223 . S
Cd71 O74 2.297 . S
Cd71 O75 2.439 . S
Cd71 O81 2.240 . S
Cd72 O73 2.240 . S
Cd72 O80 2.223 . S
Cd72 O82 2.297 . S
Cd72 O83 2.439 . S
O73 Cd72 2.240 . S
O73 C78 1.279 . S
O74 Cd71 2.297 . S
O74 C76 1.247 . S
O75 Cd71 2.439 . S
O75 C76 1.208 . S
C76 O74 1.247 . S
C76 O75 1.208 . S
C77 O82 1.247 . S
C77 O83 1.208 . S
C78 O70 1.315 . S
C78 O73 1.279 . S
C79 O80 1.315 . S
C79 O81 1.279 . S
O80 Cd72 2.223 . S
O80 C79 1.315 . S
O81 Cd71 2.240 . S
O81 C79 1.279 . S
O82 Cd72 2.297 . S
O82 C77 1.247 . S
O83 Cd72 2.439 . S
O83 C77 1.208 . S
O84 Cd85 2.223 . S
O84 C92 1.315 . S
Cd85 O84 2.223 . S
Cd85 O88 2.297 . S
Cd85 O89 2.439 . S
Cd85 O95 2.240 . S
Cd86 O87 2.240 . S
Cd86 O94 2.223 . S
Cd86 O96 2.297 . S
Cd86 O97 2.439 . S
O87 Cd86 2.240 . S
O87 C92 1.279 . S
O88 Cd85 2.297 . S
O88 C90 1.247 . S
O89 Cd85 2.439 . S
O89 C90 1.208 . S
C90 O88 1.247 . S
C90 O89 1.208 . S
C91 O96 1.247 . S
C91 O97 1.208 . S
C92 O84 1.315 . S
C92 O87 1.279 . S
C93 O94 1.315 . S
C93 O95 1.279 . S
O94 Cd86 2.223 . S
O94 C93 1.315 . S
O95 Cd85 2.240 . S
O95 C93 1.279 . S
O96 Cd86 2.297 . S
O96 C91 1.247 . S
O97 Cd86 2.439 . S
O97 C91 1.208 . S
O98 Cd99 2.223 . S
O98 C106 1.315 . S
Cd99 O98 2.223 . S
Cd99 O102 2.297 . S
Cd99 O103 2.439 . S
Cd99 O109 2.240 . S
Cd100 O101 2.240 . S
Cd100 O108 2.223 . S
Cd100 O110 2.297 . S
Cd100 O111 2.439 . S
O101 Cd100 2.240 . S
O101 C106 1.279 . S
O102 Cd99 2.297 . S
O102 C104 1.247 . S
O103 Cd99 2.439 . S
O103 C104 1.208 . S
C104 O102 1.247 . S
C104 O103 1.208 . S
C105 O110 1.247 . S
C105 O111 1.208 . S
C106 O98 1.315 . S
C106 O101 1.279 . S
C107 O108 1.315 . S
C107 O109 1.279 . S
O108 Cd100 2.223 . S
O108 C107 1.315 . S
O109 Cd99 2.240 . S
O109 C107 1.279 . S
O110 Cd100 2.297 . S
O110 C105 1.247 . S
O111 Cd100 2.439 . S
O111 C105 1.208 . S
O112 Cd113 2.223 . S
O112 C120 1.315 . S
Cd113 O112 2.223 . S
Cd113 O116 2.297 . S
Cd113 O117 2.439 . S
Cd113 O123 2.240 . S
Cd114 O115 2.240 . S
Cd114 O122 2.223 . S
Cd114 O124 2.297 . S
Cd114 O125 2.439 . S
O115 Cd114 2.240 . S
O115 C120 1.279 . S
O116 Cd113 2.297 . S
O116 C118 1.247 . S
O117 Cd113 2.439 . S
O117 C118 1.208 . S
C118 O116 1.247 . S
C118 O117 1.208 . S
C119 O124 1.247 . S
C119 O125 1.208 . S
C120 O112 1.315 . S
C120 O115 1.279 . S
C121 O122 1.315 . S
C121 O123 1.279 . S
O122 Cd114 2.223 . S
O122 C121 1.315 . S
O123 Cd113 2.240 . S
O123 C121 1.279 . S
O124 Cd114 2.297 . S
O124 C119 1.247 . S
O125 Cd114 2.439 . S
O125 C119 1.208 . S
O126 Cd127 2.223 . S
O126 C134 1.315 . S
Cd127 O126 2.223 . S
Cd127 O130 2.297 . S
Cd127 O131 2.439 . S
Cd127 O137 2.240 . S
Cd128 O129 2.240 . S
Cd128 O136 2.223 . S
Cd128 O138 2.297 . S
Cd128 O139 2.439 . S
O129 Cd128 2.240 . S
O129 C134 1.279 . S
O130 Cd127 2.297 . S
O130 C132 1.247 . S
O131 Cd127 2.439 . S
O131 C132 1.208 . S
C132 O130 1.247 . S
C132 O131 1.208 . S
C133 O138 1.247 . S
C133 O139 1.208 . S
C134 O126 1.315 . S
C134 O129 1.279 . S
C135 O136 1.315 . S
C135 O137 1.279 . S
O136 Cd128 2.223 . S
O136 C135 1.315 . S
O137 Cd127 2.240 . S
O137 C135 1.279 . S
O138 Cd128 2.297 . S
O138 C133 1.247 . S
O139 Cd128 2.439 . S
O139 C133 1.208 . S
O140 Cd141 2.223 . S
O140 C148 1.315 . S
Cd141 O140 2.223 . S
Cd141 O144 2.297 . S
Cd141 O145 2.439 . S
Cd141 O151 2.240 . S
Cd142 O143 2.240 . S
Cd142 O150 2.223 . S
Cd142 O152 2.297 . S
Cd142 O153 2.439 . S
O143 Cd142 2.240 . S
O143 C148 1.279 . S
O144 Cd141 2.297 . S
O144 C146 1.247 . S
O145 Cd141 2.439 . S
O145 C146 1.208 . S
C146 O144 1.247 . S
C146 O145 1.208 . S
C147 O152 1.247 . S
C147 O153 1.208 . S
C148 O140 1.315 . S
C148 O143 1.279 . S
C149 O150 1.315 . S
C149 O151 1.279 . S
O150 Cd142 2.223 . S
O150 C149 1.315 . S
O151 Cd141 2.240 . S
O151 C149 1.279 . S
O152 Cd142 2.297 . S
O152 C147 1.247 . S
O153 Cd142 2.439 . S
O153 C147 1.208 . S
O154 Cd155 2.223 . S
O154 C162 1.315 . S
Cd155 O154 2.223 . S
Cd155 O158 2.297 . S
Cd155 O159 2.439 . S
Cd155 O165 2.240 . S
Cd156 O157 2.240 . S
Cd156 O164 2.223 . S
Cd156 O166 2.297 . S
Cd156 O167 2.439 . S
O157 Cd156 2.240 . S
O157 C162 1.279 . S
O158 Cd155 2.297 . S
O158 C160 1.247 . S
O159 Cd155 2.439 . S
O159 C160 1.208 . S
C160 O158 1.247 . S
C160 O159 1.208 . S
C161 O166 1.247 . S
C161 O167 1.208 . S
C162 O154 1.315 . S
C162 O157 1.279 . S
C163 O164 1.315 . S
C163 O165 1.279 . S
O164 Cd156 2.223 . S
O164 C163 1.315 . S
O165 Cd155 2.240 . S
O165 C163 1.279 . S
O166 Cd156 2.297 . S
O166 C161 1.247 . S
O167 Cd156 2.439 . S
O167 C161 1.208 . S
O168 Cd169 2.223 . S
O168 C176 1.315 . S
Cd169 O168 2.223 . S
Cd169 O172 2.297 . S
Cd169 O173 2.439 . S
Cd169 O179 2.240 . S
Cd170 O171 2.240 . S
Cd170 O178 2.223 . S
Cd170 O180 2.297 . S
Cd170 O181 2.439 . S
O171 Cd170 2.240 . S
O171 C176 1.279 . S
O172 Cd169 2.297 . S
O172 C174 1.247 . S
O173 Cd169 2.439 . S
O173 C174 1.208 . S
C174 O172 1.247 . S
C174 O173 1.208 . S
C175 O180 1.247 . S
C175 O181 1.208 . S
C176 O168 1.315 . S
C176 O171 1.279 . S
C177 O178 1.315 . S
C177 O179 1.279 . S
O178 Cd170 2.223 . S
O178 C177 1.315 . S
O179 Cd169 2.240 . S
O179 C177 1.279 . S
O180 Cd170 2.297 . S
O180 C175 1.247 . S
O181 Cd170 2.439 . S
O181 C175 1.208 . S
O182 Cd183 2.223 . S
O182 C190 1.315 . S
Cd183 O182 2.223 . S
Cd183 O186 2.297 . S
Cd183 O187 2.439 . S
Cd183 O193 2.240 . S
Cd184 O185 2.240 . S
Cd184 O192 2.223 . S
Cd184 O194 2.297 . S
Cd184 O195 2.439 . S
O185 Cd184 2.240 . S
O185 C190 1.279 . S
O186 Cd183 2.297 . S
O186 C188 1.247 . S
O187 Cd183 2.439 . S
O187 C188 1.208 . S
C188 O186 1.247 . S
C188 O187 1.208 . S
C189 O194 1.247 . S
C189 O195 1.208 . S
C190 O182 1.315 . S
C190 O185 1.279 . S
C191 O192 1.315 . S
C191 O193 1.279 . S
O192 Cd184 2.223 . S
O192 C191 1.315 . S
O193 Cd183 2.240 . S
O193 C191 1.279 . S
O194 Cd184 2.297 . S
O194 C189 1.247 . S
O195 Cd184 2.439 . S
O195 C189 1.208 . S
O196 Cd197 2.223 . S
O196 C204 1.315 . S
Cd197 O196 2.223 . S
Cd197 O200 2.297 . S
Cd197 O201 2.439 . S
Cd197 O207 2.240 . S
Cd198 O199 2.240 . S
Cd198 O206 2.223 . S
Cd198 O208 2.297 . S
Cd198 O209 2.439 . S
O199 Cd198 2.240 . S
O199 C204 1.279 . S
O200 Cd197 2.297 . S
O200 C202 1.247 . S
O201 Cd197 2.439 . S
O201 C202 1.208 . S
C202 O200 1.247 . S
C202 O201 1.208 . S
C203 O208 1.247 . S
C203 O209 1.208 . S
C204 O196 1.315 . S
C204 O199 1.279 . S
C205 O206 1.315 . S
C205 O207 1.279 . S
O206 Cd198 2.223 . S
O206 C205 1.315 . S
O207 Cd197 2.240 . S
O207 C205 1.279 . S
O208 Cd198 2.297 . S
O208 C203 1.247 . S
O209 Cd198 2.439 . S
O209 C203 1.208 . S
O210 Cd211 2.223 . S
O210 C218 1.315 . S
Cd211 O210 2.223 . S
Cd211 O214 2.297 . S
Cd211 O215 2.439 . S
Cd211 O221 2.240 . S
Cd212 O213 2.240 . S
Cd212 O220 2.223 . S
Cd212 O222 2.297 . S
Cd212 O223 2.439 . S
O213 Cd212 2.240 . S
O213 C218 1.279 . S
O214 Cd211 2.297 . S
O214 C216 1.247 . S
O215 Cd211 2.439 . S
O215 C216 1.208 . S
C216 O214 1.247 . S
C216 O215 1.208 . S
C217 O222 1.247 . S
C217 O223 1.208 . S
C218 O210 1.315 . S
C218 O213 1.279 . S
C219 O220 1.315 . S
C219 O221 1.279 . S
O220 Cd212 2.223 . S
O220 C219 1.315 . S
O221 Cd211 2.240 . S
O221 C219 1.279 . S
O222 Cd212 2.297 . S
O222 C217 1.247 . S
O223 Cd212 2.439 . S
O223 C217 1.208 . S
O224 Cd225 2.223 . S
O224 C232 1.315 . S
Cd225 O224 2.223 . S
Cd225 O228 2.297 . S
Cd225 O229 2.439 . S
Cd225 O235 2.240 . S
Cd226 O227 2.240 . S
Cd226 O234 2.223 . S
Cd226 O236 2.297 . S
Cd226 O237 2.439 . S
O227 Cd226 2.240 . S
O227 C232 1.279 . S
O228 Cd225 2.297 . S
O228 C230 1.247 . S
O229 Cd225 2.439 . S
O229 C230 1.208 . S
C230 O228 1.247 . S
C230 O229 1.208 . S
C231 O236 1.247 . S
C231 O237 1.208 . S
C232 O224 1.315 . S
C232 O227 1.279 . S
C233 O234 1.315 . S
C233 O235 1.279 . S
O234 Cd226 2.223 . S
O234 C233 1.315 . S
O235 Cd225 2.240 . S
O235 C233 1.279 . S
O236 Cd226 2.297 . S
O236 C231 1.247 . S
O237 Cd226 2.439 . S
O237 C231 1.208 . S
O238 Cd239 2.223 . S
O238 C246 1.315 . S
Cd239 O238 2.223 . S
Cd239 O242 2.297 . S
Cd239 O243 2.439 . S
Cd239 O249 2.240 . S
Cd240 O241 2.240 . S
Cd240 O248 2.223 . S
Cd240 O250 2.297 . S
Cd240 O251 2.439 . S
O241 Cd240 2.240 . S
O241 C246 1.279 . S
O242 Cd239 2.297 . S
O242 C244 1.247 . S
O243 Cd239 2.439 . S
O243 C244 1.208 . S
C244 O242 1.247 . S
C244 O243 1.208 . S
C245 O250 1.247 . S
C245 O251 1.208 . S
C246 O238 1.315 . S
C246 O241 1.279 . S
C247 O248 1.315 . S
C247 O249 1.279 . S
O248 Cd240 2.223 . S
O248 C247 1.315 . S
O249 Cd239 2.240 . S
O249 C247 1.279 . S
O250 Cd240 2.297 . S
O250 C245 1.247 . S
O251 Cd240 2.439 . S
O251 C245 1.208 . S
O252 Cd253 2.223 . S
O252 C260 1.315 . S
Cd253 O252 2.223 . S
Cd253 O256 2.297 . S
Cd253 O257 2.439 . S
Cd253 O263 2.240 . S
Cd254 O255 2.240 . S
Cd254 O262 2.223 . S
Cd254 O264 2.297 . S
Cd254 O265 2.439 . S
O255 Cd254 2.240 . S
O255 C260 1.279 . S
O256 Cd253 2.297 . S
O256 C258 1.247 . S
O257 Cd253 2.439 . S
O257 C258 1.208 . S
C258 O256 1.247 . S
C258 O257 1.208 . S
C259 O264 1.247 . S
C259 O265 1.208 . S
C260 O252 1.315 . S
C260 O255 1.279 . S
C261 O262 1.315 . S
C261 O263 1.279 . S
O262 Cd254 2.223 . S
O262 C261 1.315 . S
O263 Cd253 2.240 . S
O263 C261 1.279 . S
O264 Cd254 2.297 . S
O264 C259 1.247 . S
O265 Cd254 2.439 . S
O265 C259 1.208 . S
O266 Cd267 2.223 . S
O266 C274 1.315 . S
Cd267 O266 2.223 . S
Cd267 O270 2.297 . S
Cd267 O271 2.439 . S
Cd267 O277 2.240 . S
Cd268 O269 2.240 . S
Cd268 O276 2.223 . S
Cd268 O278 2.297 . S
Cd268 O279 2.439 . S
O269 Cd268 2.240 . S
O269 C274 1.279 . S
O270 Cd267 2.297 . S
O270 C272 1.247 . S
O271 Cd267 2.439 . S
O271 C272 1.208 . S
C272 O270 1.247 . S
C272 O271 1.208 . S
C273 O278 1.247 . S
C273 O279 1.208 . S
C274 O266 1.315 . S
C274 O269 1.279 . S
C275 O276 1.315 . S
C275 O277 1.279 . S
O276 Cd268 2.223 . S
O276 C275 1.315 . S
O277 Cd267 2.240 . S
O277 C275 1.279 . S
O278 Cd268 2.297 . S
O278 C273 1.247 . S
O279 Cd268 2.439 . S
O279 C273 1.208 . S
O280 Cd281 2.223 . S
O280 C288 1.315 . S
Cd281 O280 2.223 . S
Cd281 O284 2.297 . S
Cd281 O285 2.439 . S
Cd281 O291 2.240 . S
Cd282 O283 2.240 . S
Cd282 O290 2.223 . S
Cd282 O292 2.297 . S
Cd282 O293 2.439 . S
O283 Cd282 2.240 . S
O283 C288 1.279 . S
O284 Cd281 2.297 . S
O284 C286 1.247 . S
O285 Cd281 2.439 . S
O285 C286 1.208 . S
C286 O284 1.247 . S
C286 O285 1.208 . S
C287 O292 1.247 . S
C287 O293 1.208 . S
C288 O280 1.315 . S
C288 O283 1.279 . S
C289 O290 1.315 . S
C289 O291 1.279 . S
O290 Cd282 2.223 . S
O290 C289 1.315 . S
O291 Cd281 2.240 . S
O291 C289 1.279 . S
O292 Cd282 2.297 . S
O292 C287 1.247 . S
O293 Cd282 2.439 . S
O293 C287 1.208 . S
O294 Cd295 2.223 . S
O294 C302 1.315 . S
Cd295 O294 2.223 . S
Cd295 O298 2.297 . S
Cd295 O299 2.439 . S
Cd295 O305 2.240 . S
Cd296 O297 2.240 . S
Cd296 O304 2.223 . S
Cd296 O306 2.297 . S
Cd296 O307 2.439 . S
O297 Cd296 2.240 . S
O297 C302 1.279 . S
O298 Cd295 2.297 . S
O298 C300 1.247 . S
O299 Cd295 2.439 . S
O299 C300 1.208 . S
C300 O298 1.247 . S
C300 O299 1.208 . S
C301 O306 1.247 . S
C301 O307 1.208 . S
C302 O294 1.315 . S
C302 O297 1.279 . S
C303 O304 1.315 . S
C303 O305 1.279 . S
O304 Cd296 2.223 . S
O304 C303 1.315 . S
O305 Cd295 2.240 . S
O305 C303 1.279 . S
O306 Cd296 2.297 . S
O306 C301 1.247 . S
O307 Cd296 2.439 . S
O307 C301 1.208 . S
O308 Cd309 2.223 . S
O308 C316 1.315 . S
Cd309 O308 2.223 . S
Cd309 O312 2.297 . S
Cd309 O313 2.439 . S
Cd309 O319 2.240 . S
Cd310 O311 2.240 . S
Cd310 O318 2.223 . S
Cd310 O320 2.297 . S
Cd310 O321 2.439 . S
O311 Cd310 2.240 . S
O311 C316 1.279 . S
O312 Cd309 2.297 . S
O312 C314 1.247 . S
O313 Cd309 2.439 . S
O313 C314 1.208 . S
C314 O312 1.247 . S
C314 O313 1.208 . S
C315 O320 1.247 . S
C315 O321 1.208 . S
C316 O308 1.315 . S
C316 O311 1.279 . S
C317 O318 1.315 . S
C317 O319 1.279 . S
O318 Cd310 2.223 . S
O318 C317 1.315 . S
O319 Cd309 2.240 . S
O319 C317 1.279 . S
O320 Cd310 2.297 . S
O320 C315 1.247 . S
O321 Cd310 2.439 . S
O321 C315 1.208 . S
O322 Cd323 2.223 . S
O322 C330 1.315 . S
Cd323 O322 2.223 . S
Cd323 O326 2.297 . S
Cd323 O327 2.439 . S
Cd323 O333 2.240 . S
Cd324 O325 2.240 . S
Cd324 O332 2.223 . S
Cd324 O334 2.297 . S
Cd324 O335 2.439 . S
O325 Cd324 2.240 . S
O325 C330 1.279 . S
O326 Cd323 2.297 . S
O326 C328 1.247 . S
O327 Cd323 2.439 . S
O327 C328 1.208 . S
C328 O326 1.247 . S
C328 O327 1.208 . S
C329 O334 1.247 . S
C329 O335 1.208 . S
C330 O322 1.315 . S
C330 O325 1.279 . S
C331 O332 1.315 . S
C331 O333 1.279 . S
O332 Cd324 2.223 . S
O332 C331 1.315 . S
O333 Cd323 2.240 . S
O333 C331 1.279 . S
O334 Cd324 2.297 . S
O334 C329 1.247 . S
O335 Cd324 2.439 . S
O335 C329 1.208 . S
C336 C337 1.349 . S
C336 C338 1.327 . S
C336 H361 0.950 . S
C337 C336 1.349 . S
C337 C353 1.349 . S
C338 C336 1.327 . S
C338 C357 1.429 . S
C338 H362 0.950 . S
C339 C356 1.574 . S
C339 C358 1.368 . S
C339 H363 0.949 . S
H340 C344 0.949 . S
C341 C342 1.349 . S
C341 C343 1.327 . S
C341 H364 0.950 . S
C342 C341 1.349 . S
C342 C354 1.349 . S
C343 C341 1.327 . S
C343 C359 1.429 . S
C343 H365 0.950 . S
C344 H340 0.949 . S
C344 C352 1.574 . S
C344 C360 1.368 . S
H345 C353 0.950 . S
H346 C351 0.950 . S
H347 C352 0.949 . S
H348 C354 0.950 . S
H349 C355 0.950 . S
H350 C356 0.949 . S
C351 H346 0.950 . S
C351 C353 1.327 . S
C351 C357 1.429 . S
C352 C344 1.574 . S
C352 H347 0.949 . S
C352 C358 1.368 . S
C353 C337 1.349 . S
C353 H345 0.950 . S
C353 C351 1.327 . S
C354 C342 1.349 . S
C354 H348 0.950 . S
C354 C355 1.327 . S
C355 H349 0.950 . S
C355 C354 1.327 . S
C355 C359 1.429 . S
C356 C339 1.574 . S
C356 H350 0.949 . S
C356 C360 1.368 . S
C357 C338 1.429 . S
C357 C351 1.429 . S
C357 C358 1.523 . S
C358 C339 1.368 . S
C358 C352 1.368 . S
C358 C357 1.523 . S
C359 C343 1.429 . S
C359 C355 1.429 . S
C359 C360 1.523 . S
C360 C344 1.368 . S
C360 C356 1.368 . S
C360 C359 1.523 . S
H361 C336 0.950 . S
H362 C338 0.950 . S
H363 C339 0.949 . S
H364 C341 0.950 . S
H365 C343 0.950 . S
C366 C367 1.349 . S
C366 C368 1.327 1_655 S
C366 H391 0.950 . S
C367 C366 1.349 . S
C367 C383 1.349 1_655 S
C368 C366 1.327 1_455 S
C368 C387 1.429 . S
C368 H392 0.950 . S
C369 C386 1.574 . S
C369 C388 1.368 . S
C369 H393 0.949 . S
H370 C374 0.949 . S
C371 C372 1.349 . S
C371 C373 1.327 . S
C371 H394 0.950 . S
C372 C371 1.349 . S
C372 C384 1.349 . S
C373 C371 1.327 . S
C373 C389 1.429 . S
C373 H395 0.950 . S
C374 H370 0.949 . S
C374 C382 1.574 . S
C374 C390 1.368 . S
H375 C383 0.950 . S
H376 C381 0.950 . S
H377 C382 0.949 . S
H378 C384 0.950 . S
H379 C385 0.950 . S
H380 C386 0.949 . S
C381 H376 0.950 . S
C381 C383 1.327 . S
C381 C387 1.429 . S
C382 C374 1.574 . S
C382 H377 0.949 . S
C382 C388 1.368 . S
C383 C367 1.349 1_455 S
C383 H375 0.950 . S
C383 C381 1.327 . S
C384 C372 1.349 . S
C384 H378 0.950 . S
C384 C385 1.327 . S
C385 H379 0.950 . S
C385 C384 1.327 . S
C385 C389 1.429 . S
C386 C369 1.574 . S
C386 H380 0.949 . S
C386 C390 1.368 . S
C387 C368 1.429 . S
C387 C381 1.429 . S
C387 C388 1.523 . S
C388 C369 1.368 . S
C388 C382 1.368 . S
C388 C387 1.523 . S
C389 C373 1.429 . S
C389 C385 1.429 . S
C389 C390 1.523 . S
C390 C374 1.368 . S
C390 C386 1.368 . S
C390 C389 1.523 . S
H391 C366 0.950 . S
H392 C368 0.950 . S
H393 C369 0.949 . S
H394 C371 0.950 . S
H395 C373 0.950 . S
C396 C397 1.349 . S
C396 C398 1.327 . S
C396 H421 0.950 . S
C397 C396 1.349 . S
C397 C413 1.349 . S
C398 C396 1.327 . S
C398 C417 1.429 . S
C398 H422 0.950 . S
C399 C416 1.574 . S
C399 C418 1.368 . S
C399 H423 0.949 . S
H400 C404 0.949 . S
C401 C402 1.349 . S
C401 C403 1.327 . S
C401 H424 0.950 . S
C402 C401 1.349 . S
C402 C414 1.349 1_554 S
C403 C401 1.327 . S
C403 C419 1.429 1_554 S
C403 H425 0.950 . S
C404 H400 0.949 . S
C404 C412 1.574 . S
C404 C420 1.368 . S
H405 C413 0.950 . S
H406 C411 0.950 . S
H407 C412 0.949 . S
H408 C414 0.950 . S
H409 C415 0.950 . S
H410 C416 0.949 . S
C411 H406 0.950 . S
C411 C413 1.327 . S
C411 C417 1.429 . S
C412 C404 1.574 . S
C412 H407 0.949 . S
C412 C418 1.368 . S
C413 C397 1.349 . S
C413 H405 0.950 . S
C413 C411 1.327 . S
C414 C402 1.349 1_556 S
C414 H408 0.950 . S
C414 C415 1.327 . S
C415 H409 0.950 . S
C415 C414 1.327 . S
C415 C419 1.429 . S
C416 C399 1.574 . S
C416 H410 0.949 . S
C416 C420 1.368 . S
C417 C398 1.429 . S
C417 C411 1.429 . S
C417 C418 1.523 . S
C418 C399 1.368 . S
C418 C412 1.368 . S
C418 C417 1.523 . S
C419 C403 1.429 1_556 S
C419 C415 1.429 . S
C419 C420 1.523 . S
C420 C404 1.368 . S
C420 C416 1.368 . S
C420 C419 1.523 . S
H421 C396 0.950 . S
H422 C398 0.950 . S
H423 C399 0.949 . S
H424 C401 0.950 . S
H425 C403 0.950 . S
C426 C427 1.349 . S
C426 C428 1.327 . S
C426 H451 0.950 . S
C427 C426 1.349 . S
C427 C443 1.349 . S
C428 C426 1.327 . S
C428 C447 1.429 . S
C428 H452 0.950 . S
C429 C446 1.574 . S
C429 C448 1.368 . S
C429 H453 0.949 . S
H430 C434 0.949 . S
C431 C432 1.349 . S
C431 C433 1.327 . S
C431 H454 0.950 . S
C432 C431 1.349 . S
C432 C444 1.349 . S
C433 C431 1.327 . S
C433 C449 1.429 . S
C433 H455 0.950 . S
C434 H430 0.949 . S
C434 C442 1.574 . S
C434 C450 1.368 . S
H435 C443 0.950 . S
H436 C441 0.950 . S
H437 C442 0.949 . S
H438 C444 0.950 . S
H439 C445 0.950 . S
H440 C446 0.949 . S
C441 H436 0.950 . S
C441 C443 1.327 . S
C441 C447 1.429 . S
C442 C434 1.574 . S
C442 H437 0.949 . S
C442 C448 1.368 . S
C443 C427 1.349 . S
C443 H435 0.950 . S
C443 C441 1.327 . S
C444 C432 1.349 . S
C444 H438 0.950 . S
C444 C445 1.327 . S
C445 H439 0.950 . S
C445 C444 1.327 . S
C445 C449 1.429 . S
C446 C429 1.574 . S
C446 H440 0.949 . S
C446 C450 1.368 . S
C447 C428 1.429 . S
C447 C441 1.429 . S
C447 C448 1.523 . S
C448 C429 1.368 . S
C448 C442 1.368 . S
C448 C447 1.523 . S
C449 C433 1.429 . S
C449 C445 1.429 . S
C449 C450 1.523 . S
C450 C434 1.368 . S
C450 C446 1.368 . S
C450 C449 1.523 . S
H451 C426 0.950 . S
H452 C428 0.950 . S
H453 C429 0.949 . S
H454 C431 0.950 . S
H455 C433 0.950 . S
C456 C457 1.349 . S
C456 C458 1.327 . S
C456 H481 0.950 . S
C457 C456 1.349 . S
C457 C473 1.349 . S
C458 C456 1.327 . S
C458 C477 1.429 . S
C458 H482 0.950 . S
C459 C476 1.574 . S
C459 C478 1.368 . S
C459 H483 0.949 . S
H460 C464 0.949 . S
C461 C462 1.349 . S
C461 C463 1.327 . S
C461 H484 0.950 . S
C462 C461 1.349 . S
C462 C474 1.349 . S
C463 C461 1.327 . S
C463 C479 1.429 . S
C463 H485 0.950 . S
C464 H460 0.949 . S
C464 C472 1.574 . S
C464 C480 1.368 . S
H465 C473 0.950 . S
H466 C471 0.950 . S
H467 C472 0.949 . S
H468 C474 0.950 . S
H469 C475 0.950 . S
H470 C476 0.949 . S
C471 H466 0.950 . S
C471 C473 1.327 . S
C471 C477 1.429 . S
C472 C464 1.574 . S
C472 H467 0.949 . S
C472 C478 1.368 . S
C473 C457 1.349 . S
C473 H465 0.950 . S
C473 C471 1.327 . S
C474 C462 1.349 . S
C474 H468 0.950 . S
C474 C475 1.327 . S
C475 H469 0.950 . S
C475 C474 1.327 . S
C475 C479 1.429 . S
C476 C459 1.574 . S
C476 H470 0.949 . S
C476 C480 1.368 . S
C477 C458 1.429 . S
C477 C471 1.429 . S
C477 C478 1.523 . S
C478 C459 1.368 . S
C478 C472 1.368 . S
C478 C477 1.523 . S
C479 C463 1.429 . S
C479 C475 1.429 . S
C479 C480 1.523 . S
C480 C464 1.368 . S
C480 C476 1.368 . S
C480 C479 1.523 . S
H481 C456 0.950 . S
H482 C458 0.950 . S
H483 C459 0.949 . S
H484 C461 0.950 . S
H485 C463 0.950 . S
C486 C487 1.349 . S
C486 C488 1.327 . S
C486 H511 0.950 . S
C487 C486 1.349 . S
C487 C503 1.349 . S
C488 C486 1.327 . S
C488 C507 1.429 . S
C488 H512 0.950 . S
C489 C506 1.574 . S
C489 C508 1.368 . S
C489 H513 0.949 . S
H490 C494 0.949 . S
C491 C492 1.349 . S
C491 C493 1.327 1_455 S
C491 H514 0.950 . S
C492 C491 1.349 . S
C492 C504 1.349 1_455 S
C493 C491 1.327 1_655 S
C493 C509 1.429 . S
C493 H515 0.948 1_655 S
C494 H490 0.949 . S
C494 C502 1.574 . S
C494 C510 1.368 . S
H495 C503 0.950 . S
H496 C501 0.950 . S
H497 C502 0.949 . S
H498 C504 0.950 . S
H499 C505 0.950 . S
H500 C506 0.949 . S
C501 H496 0.950 . S
C501 C503 1.327 . S
C501 C507 1.429 . S
C502 C494 1.574 . S
C502 H497 0.949 . S
C502 C508 1.368 . S
C503 C487 1.349 . S
C503 H495 0.950 . S
C503 C501 1.327 . S
C504 C492 1.349 1_655 S
C504 H498 0.950 . S
C504 C505 1.327 . S
C505 H499 0.950 . S
C505 C504 1.327 . S
C505 C509 1.429 . S
C506 C489 1.574 . S
C506 H500 0.949 . S
C506 C510 1.368 . S
C507 C488 1.429 . S
C507 C501 1.429 . S
C507 C508 1.523 . S
C508 C489 1.368 . S
C508 C502 1.368 . S
C508 C507 1.523 . S
C509 C493 1.429 . S
C509 C505 1.429 . S
C509 C510 1.523 . S
C510 C494 1.368 . S
C510 C506 1.368 . S
C510 C509 1.523 . S
H511 C486 0.950 . S
H512 C488 0.950 . S
H513 C489 0.949 . S
H514 C491 0.950 . S
H515 C493 0.948 1_455 S
C516 C517 1.349 . S
C516 C518 1.327 . S
C516 H541 0.950 . S
C517 C516 1.349 . S
C517 C533 1.349 . S
C518 C516 1.327 . S
C518 C537 1.429 . S
C518 H542 0.950 . S
C519 C536 1.574 . S
C519 C538 1.368 . S
C519 H543 0.949 . S
H520 C524 0.949 . S
C521 C522 1.349 . S
C521 C523 1.327 1_556 S
C521 H544 0.950 . S
C522 C521 1.349 . S
C522 C534 1.349 1_556 S
C523 C521 1.327 1_554 S
C523 C539 1.429 . S
C523 H545 0.950 . S
C524 H520 0.949 . S
C524 C532 1.574 . S
C524 C540 1.368 . S
H525 C533 0.950 . S
H526 C531 0.950 . S
H527 C532 0.949 . S
H528 C534 0.950 . S
H529 C535 0.950 . S
H530 C536 0.949 . S
C531 H526 0.950 . S
C531 C533 1.327 . S
C531 C537 1.429 . S
C532 C524 1.574 . S
C532 H527 0.949 . S
C532 C538 1.368 . S
C533 C517 1.349 . S
C533 H525 0.950 . S
C533 C531 1.327 . S
C534 C522 1.349 1_554 S
C534 H528 0.950 . S
C534 C535 1.327 . S
C535 H529 0.950 . S
C535 C534 1.327 . S
C535 C539 1.429 . S
C536 C519 1.574 . S
C536 H530 0.949 . S
C536 C540 1.368 . S
C537 C518 1.429 . S
C537 C531 1.429 . S
C537 C538 1.523 . S
C538 C519 1.368 . S
C538 C532 1.368 . S
C538 C537 1.523 . S
C539 C523 1.429 . S
C539 C535 1.429 . S
C539 C540 1.523 . S
C540 C524 1.368 . S
C540 C536 1.368 . S
C540 C539 1.523 . S
H541 C516 0.950 . S
H542 C518 0.950 . S
H543 C519 0.949 . S
H544 C521 0.950 . S
H545 C523 0.950 . S
C546 C547 1.349 . S
C546 C548 1.327 . S
C546 H571 0.950 . S
C547 C546 1.349 . S
C547 C563 1.349 . S
C548 C546 1.327 . S
C548 C567 1.429 . S
C548 H572 0.950 . S
C549 C566 1.574 . S
C549 C568 1.368 . S
C549 H573 0.949 . S
H550 C554 0.949 . S
C551 C552 1.349 . S
C551 C553 1.327 . S
C551 H574 0.950 . S
C552 C551 1.349 . S
C552 C564 1.349 . S
C553 C551 1.327 . S
C553 C569 1.429 . S
C553 H575 0.950 . S
C554 H550 0.949 . S
C554 C562 1.574 . S
C554 C570 1.368 . S
H555 C563 0.950 . S
H556 C561 0.950 . S
H557 C562 0.949 . S
H558 C564 0.950 . S
H559 C565 0.950 . S
H560 C566 0.949 . S
C561 H556 0.950 . S
C561 C563 1.327 . S
C561 C567 1.429 . S
C562 C554 1.574 . S
C562 H557 0.949 . S
C562 C568 1.368 . S
C563 C547 1.349 . S
C563 H555 0.950 . S
C563 C561 1.327 . S
C564 C552 1.349 . S
C564 H558 0.950 . S
C564 C565 1.327 . S
C565 H559 0.950 . S
C565 C564 1.327 . S
C565 C569 1.429 . S
C566 C549 1.574 . S
C566 H560 0.949 . S
C566 C570 1.368 . S
C567 C548 1.429 . S
C567 C561 1.429 . S
C567 C568 1.523 . S
C568 C549 1.368 . S
C568 C562 1.368 . S
C568 C567 1.523 . S
C569 C553 1.429 . S
C569 C565 1.429 . S
C569 C570 1.523 . S
C570 C554 1.368 . S
C570 C566 1.368 . S
C570 C569 1.523 . S
H571 C546 0.950 . S
H572 C548 0.950 . S
H573 C549 0.949 . S
H574 C551 0.950 . S
H575 C553 0.950 . S
C576 C577 1.349 . S
C576 C578 1.327 . S
C576 H601 0.950 . S
C577 C576 1.349 . S
C577 C593 1.349 . S
C578 C576 1.327 . S
C578 C597 1.429 . S
C578 H602 0.950 . S
C579 C596 1.574 . S
C579 C598 1.368 . S
C579 H603 0.949 . S
H580 C584 0.949 . S
C581 C582 1.349 . S
C581 C583 1.327 . S
C581 H604 0.950 . S
C582 C581 1.349 . S
C582 C594 1.349 . S
C583 C581 1.327 . S
C583 C599 1.429 . S
C583 H605 0.950 . S
C584 H580 0.949 . S
C584 C592 1.574 . S
C584 C600 1.368 . S
H585 C593 0.950 . S
H586 C591 0.950 . S
H587 C592 0.949 . S
H588 C594 0.950 . S
H589 C595 0.950 . S
H590 C596 0.949 . S
C591 H586 0.950 . S
C591 C593 1.327 . S
C591 C597 1.429 . S
C592 C584 1.574 . S
C592 H587 0.949 . S
C592 C598 1.368 . S
C593 C577 1.349 . S
C593 H585 0.950 . S
C593 C591 1.327 . S
C594 C582 1.349 . S
C594 H588 0.950 . S
C594 C595 1.327 . S
C595 H589 0.950 . S
C595 C594 1.327 . S
C595 C599 1.429 . S
C596 C579 1.574 . S
C596 H590 0.949 . S
C596 C600 1.368 . S
C597 C578 1.429 . S
C597 C591 1.429 . S
C597 C598 1.523 . S
C598 C579 1.368 . S
C598 C592 1.368 . S
C598 C597 1.523 . S
C599 C583 1.429 . S
C599 C595 1.429 . S
C599 C600 1.523 . S
C600 C584 1.368 . S
C600 C596 1.368 . S
C600 C599 1.523 . S
H601 C576 0.950 . S
H602 C578 0.950 . S
H603 C579 0.949 . S
H604 C581 0.950 . S
H605 C583 0.950 . S
C606 C607 1.349 . S
C606 C608 1.327 1_565 S
C606 H631 0.950 . S
C607 C606 1.349 . S
C607 C623 1.355 . S
C608 C606 1.327 1_545 S
C608 C627 1.429 . S
C608 H632 0.950 . S
C609 C626 1.574 . S
C609 C628 1.368 . S
C609 H633 0.949 . S
H610 C614 0.949 . S
C611 C612 1.349 . S
C611 C613 1.327 . S
C611 H634 0.950 . S
C612 C611 1.349 . S
C612 C624 1.349 . S
C613 C611 1.327 . S
C613 C629 1.429 . S
C613 H635 0.950 . S
C614 H610 0.949 . S
C614 C622 1.574 . S
C614 C630 1.368 . S
H615 C623 0.953 . S
H616 C621 0.950 . S
H617 C622 0.949 . S
H618 C624 0.950 . S
H619 C625 0.950 . S
H620 C626 0.949 . S
C621 H616 0.950 . S
C621 C623 1.318 1_545 S
C621 C627 1.429 . S
C622 C614 1.574 . S
C622 H617 0.949 . S
C622 C628 1.368 . S
C623 C607 1.355 . S
C623 H615 0.953 . S
C623 C621 1.318 1_565 S
C624 C612 1.349 . S
C624 H618 0.950 . S
C624 C625 1.327 . S
C625 H619 0.950 . S
C625 C624 1.327 . S
C625 C629 1.429 . S
C626 C609 1.574 . S
C626 H620 0.949 . S
C626 C630 1.368 . S
C627 C608 1.429 . S
C627 C621 1.429 . S
C627 C628 1.523 . S
C628 C609 1.368 . S
C628 C622 1.368 . S
C628 C627 1.523 . S
C629 C613 1.429 . S
C629 C625 1.429 . S
C629 C630 1.523 . S
C630 C614 1.368 . S
C630 C626 1.368 . S
C630 C629 1.523 . S
H631 C606 0.950 . S
H632 C608 0.950 . S
H633 C609 0.949 . S
H634 C611 0.950 . S
H635 C613 0.950 . S
C636 C637 1.349 . S
C636 C638 1.327 . S
C636 H661 0.950 . S
C637 C636 1.349 . S
C637 C653 1.349 . S
C638 C636 1.327 . S
C638 C657 1.429 . S
C638 H662 0.950 . S
C639 C656 1.574 . S
C639 C658 1.368 . S
C639 H663 0.949 . S
H640 C644 0.949 . S
C641 C642 1.349 . S
C641 C643 1.327 . S
C641 H664 0.950 . S
C642 C641 1.349 . S
C642 C654 1.349 1_545 S
C643 C641 1.327 . S
C643 C659 1.429 1_545 S
C643 H665 0.950 . S
C644 H640 0.949 . S
C644 C652 1.574 . S
C644 C660 1.368 . S
H645 C653 0.950 . S
H646 C651 0.950 . S
H647 C652 0.949 . S
H648 C654 0.950 . S
H649 C655 0.950 . S
H650 C656 0.949 . S
C651 H646 0.950 . S
C651 C653 1.327 . S
C651 C657 1.429 . S
C652 C644 1.574 . S
C652 H647 0.949 . S
C652 C658 1.368 . S
C653 C637 1.349 . S
C653 H645 0.950 . S
C653 C651 1.327 . S
C654 C642 1.349 1_565 S
C654 H648 0.950 . S
C654 C655 1.327 . S
C655 H649 0.950 . S
C655 C654 1.327 . S
C655 C659 1.429 . S
C656 C639 1.574 . S
C656 H650 0.949 . S
C656 C660 1.368 . S
C657 C638 1.429 . S
C657 C651 1.429 . S
C657 C658 1.523 . S
C658 C639 1.368 . S
C658 C652 1.368 . S
C658 C657 1.523 . S
C659 C643 1.429 1_565 S
C659 C655 1.429 . S
C659 C660 1.523 . S
C660 C644 1.368 . S
C660 C656 1.368 . S
C660 C659 1.523 . S
H661 C636 0.950 . S
H662 C638 0.950 . S
H663 C639 0.949 . S
H664 C641 0.950 . S
H665 C643 0.950 . S
C666 C667 1.349 . S
C666 C668 1.327 . S
C666 H691 0.950 . S
C667 C666 1.349 . S
C667 C683 1.349 . S
C668 C666 1.327 . S
C668 C687 1.429 . S
C668 H692 0.950 . S
C669 C686 1.574 . S
C669 C688 1.368 . S
C669 H693 0.949 . S
H670 C674 0.949 . S
C671 C672 1.349 . S
C671 C673 1.327 . S
C671 H694 0.950 . S
C672 C671 1.349 . S
C672 C684 1.349 . S
C673 C671 1.327 . S
C673 C689 1.429 . S
C673 H695 0.950 . S
C674 H670 0.949 . S
C674 C682 1.574 . S
C674 C690 1.368 . S
H675 C683 0.950 . S
H676 C681 0.950 . S
H677 C682 0.949 . S
H678 C684 0.950 . S
H679 C685 0.950 . S
H680 C686 0.949 . S
C681 H676 0.950 . S
C681 C683 1.327 . S
C681 C687 1.429 . S
C682 C674 1.574 . S
C682 H677 0.949 . S
C682 C688 1.368 . S
C683 C667 1.349 . S
C683 H675 0.950 . S
C683 C681 1.327 . S
C684 C672 1.349 . S
C684 H678 0.950 . S
C684 C685 1.327 . S
C685 H679 0.950 . S
C685 C684 1.327 . S
C685 C689 1.429 . S
C686 C669 1.574 . S
C686 H680 0.949 . S
C686 C690 1.368 . S
C687 C668 1.429 . S
C687 C681 1.429 . S
C687 C688 1.523 . S
C688 C669 1.368 . S
C688 C682 1.368 . S
C688 C687 1.523 . S
C689 C673 1.429 . S
C689 C685 1.429 . S
C689 C690 1.523 . S
C690 C674 1.368 . S
C690 C686 1.368 . S
C690 C689 1.523 . S
H691 C666 0.950 . S
H692 C668 0.950 . S
H693 C669 0.949 . S
H694 C671 0.950 . S
H695 C673 0.950 . S
C696 C697 1.349 . S
C696 C698 1.327 . S
C696 H721 0.950 . S
C697 C696 1.349 . S
C697 C713 1.349 . S
C698 C696 1.327 . S
C698 C717 1.429 . S
C698 H722 0.950 . S
C699 C716 1.574 . S
C699 C718 1.368 . S
C699 H723 0.949 . S
H700 C704 0.949 . S
C701 C702 1.349 . S
C701 C703 1.327 . S
C701 H724 0.950 . S
C702 C701 1.349 . S
C702 C714 1.349 . S
C703 C701 1.327 . S
C703 C719 1.429 . S
C703 H725 0.950 . S
C704 H700 0.949 . S
C704 C712 1.574 . S
C704 C720 1.368 . S
H705 C713 0.950 . S
H706 C711 0.950 . S
H707 C712 0.949 . S
H708 C714 0.950 . S
H709 C715 0.950 . S
H710 C716 0.949 . S
C711 H706 0.950 . S
C711 C713 1.327 . S
C711 C717 1.429 . S
C712 C704 1.574 . S
C712 H707 0.949 . S
C712 C718 1.368 . S
C713 C697 1.349 . S
C713 H705 0.950 . S
C713 C711 1.327 . S
C714 C702 1.349 . S
C714 H708 0.950 . S
C714 C715 1.327 . S
C715 H709 0.950 . S
C715 C714 1.327 . S
C715 C719 1.429 . S
C716 C699 1.574 . S
C716 H710 0.949 . S
C716 C720 1.368 . S
C717 C698 1.429 . S
C717 C711 1.429 . S
C717 C718 1.523 . S
C718 C699 1.368 . S
C718 C712 1.368 . S
C718 C717 1.523 . S
C719 C703 1.429 . S
C719 C715 1.429 . S
C719 C720 1.523 . S
C720 C704 1.368 . S
C720 C716 1.368 . S
C720 C719 1.523 . S
H721 C696 0.950 . S
H722 C698 0.950 . S
H723 C699 0.949 . S
H724 C701 0.950 . S
H725 C703 0.950 . S
C726 C727 1.349 . S
C726 C728 1.327 . S
C726 H751 0.950 . S
C727 C726 1.349 . S
C727 C743 1.349 . S
C728 C726 1.327 . S
C728 C747 1.429 . S
C728 H752 0.950 . S
C729 C746 1.574 . S
C729 C748 1.368 . S
C729 H753 0.949 . S
H730 C734 0.949 . S
C731 C732 1.349 . S
C731 C733 1.327 . S
C731 H754 0.950 . S
C732 C731 1.349 . S
C732 C744 1.349 . S
C733 C731 1.327 . S
C733 C749 1.429 . S
C733 H755 0.950 . S
C734 H730 0.949 . S
C734 C742 1.574 . S
C734 C750 1.368 . S
H735 C743 0.950 . S
H736 C741 0.950 1_545 S
H737 C742 0.949 1_565 S
H738 C744 0.950 . S
H739 C745 0.950 . S
H740 C746 0.949 . S
C741 H736 0.950 1_565 S
C741 C743 1.327 . S
C741 C747 1.429 . S
C742 C734 1.574 . S
C742 H737 0.949 1_545 S
C742 C748 1.368 . S
C743 C727 1.349 . S
C743 H735 0.950 . S
C743 C741 1.327 . S
C744 C732 1.349 . S
C744 H738 0.950 . S
C744 C745 1.327 . S
C745 H739 0.950 . S
C745 C744 1.327 . S
C745 C749 1.429 . S
C746 C729 1.574 . S
C746 H740 0.949 . S
C746 C750 1.368 . S
C747 C728 1.429 . S
C747 C741 1.429 . S
C747 C748 1.523 1_565 S
C748 C729 1.368 . S
C748 C742 1.368 . S
C748 C747 1.523 1_545 S
C749 C733 1.429 . S
C749 C745 1.429 . S
C749 C750 1.523 . S
C750 C734 1.368 . S
C750 C746 1.368 . S
C750 C749 1.523 . S
H751 C726 0.950 . S
H752 C728 0.950 . S
H753 C729 0.949 . S
H754 C731 0.950 . S
H755 C733 0.950 . S
C756 C757 1.349 . S
C756 C758 1.327 . S
C756 H781 0.950 . S
C757 C756 1.349 . S
C757 C773 1.349 . S
C758 C756 1.327 . S
C758 C777 1.429 . S
C758 H782 0.950 . S
C759 C776 1.574 . S
C759 C778 1.368 . S
C759 H783 0.949 . S
H760 C764 0.949 . S
C761 C762 1.349 . S
C761 C763 1.327 . S
C761 H784 0.950 . S
C762 C761 1.349 . S
C762 C774 1.349 . S
C763 C761 1.327 . S
C763 C779 1.429 . S
C763 H785 0.930 1_554 S
C764 H760 0.949 . S
C764 C772 1.574 . S
C764 C780 1.368 . S
H765 C773 0.950 . S
H766 C771 0.950 . S
H767 C772 0.949 . S
H768 C774 0.950 . S
H769 C775 0.950 . S
H770 C776 0.949 . S
C771 H766 0.950 . S
C771 C773 1.327 . S
C771 C777 1.429 . S
C772 C764 1.574 . S
C772 H767 0.949 . S
C772 C778 1.368 . S
C773 C757 1.349 . S
C773 H765 0.950 . S
C773 C771 1.327 . S
C774 C762 1.349 . S
C774 H768 0.950 . S
C774 C775 1.327 . S
C775 H769 0.950 . S
C775 C774 1.327 . S
C775 C779 1.429 . S
C776 C759 1.574 . S
C776 H770 0.949 . S
C776 C780 1.368 . S
C777 C758 1.429 . S
C777 C771 1.429 . S
C777 C778 1.523 . S
C778 C759 1.368 . S
C778 C772 1.368 . S
C778 C777 1.523 . S
C779 C763 1.429 . S
C779 C775 1.429 . S
C779 C780 1.523 1_554 S
C780 C764 1.368 . S
C780 C776 1.368 . S
C780 C779 1.523 1_556 S
H781 C756 0.950 . S
H782 C758 0.950 . S
H783 C759 0.949 . S
H784 C761 0.950 . S
H785 C763 0.930 1_556 S
C786 C787 1.349 . S
C786 C788 1.327 . S
C786 H811 0.950 . S
C787 C786 1.349 . S
C787 C803 1.349 . S
C788 C786 1.327 . S
C788 C807 1.429 . S
C788 H812 0.950 1_545 S
C789 C806 1.574 . S
C789 C808 1.368 . S
C789 H813 0.949 1_565 S
H790 C794 0.949 . S
C791 C792 1.349 . S
C791 C793 1.327 . S
C791 H814 0.950 . S
C792 C791 1.349 . S
C792 C804 1.349 . S
C793 C791 1.327 . S
C793 C809 1.429 . S
C793 H815 0.950 . S
C794 H790 0.949 . S
C794 C802 1.574 . S
C794 C810 1.368 . S
H795 C803 0.950 . S
H796 C801 0.950 . S
H797 C802 0.949 . S
H798 C804 0.950 . S
H799 C805 0.950 . S
H800 C806 0.949 . S
C801 H796 0.950 . S
C801 C803 1.327 . S
C801 C807 1.429 . S
C802 C794 1.574 . S
C802 H797 0.949 . S
C802 C808 1.368 . S
C803 C787 1.349 . S
C803 H795 0.950 . S
C803 C801 1.327 . S
C804 C792 1.349 . S
C804 H798 0.950 . S
C804 C805 1.327 . S
C805 H799 0.950 . S
C805 C804 1.327 . S
C805 C809 1.429 . S
C806 C789 1.574 . S
C806 H800 0.949 . S
C806 C810 1.368 . S
C807 C788 1.429 . S
C807 C801 1.429 . S
C807 C808 1.523 1_545 S
C808 C789 1.368 . S
C808 C802 1.368 . S
C808 C807 1.523 1_565 S
C809 C793 1.429 . S
C809 C805 1.429 . S
C809 C810 1.523 . S
C810 C794 1.368 . S
C810 C806 1.368 . S
C810 C809 1.523 . S
H811 C786 0.950 . S
H812 C788 0.950 1_565 S
H813 C789 0.949 1_545 S
H814 C791 0.950 . S
H815 C793 0.950 . S
C816 C817 1.349 . S
C816 C818 1.327 . S
C816 H841 0.950 . S
C817 C816 1.349 . S
C817 C833 1.349 . S
C818 C816 1.327 . S
C818 C837 1.429 . S
C818 H842 0.950 . S
C819 C836 1.574 . S
C819 C838 1.368 . S
C819 H843 0.949 . S
H820 C824 0.949 . S
C821 C822 1.349 . S
C821 C823 1.327 . S
C821 H844 0.950 . S
C822 C821 1.349 . S
C822 C834 1.349 . S
C823 C821 1.327 . S
C823 C839 1.429 . S
C823 H845 0.950 . S
C824 H820 0.949 . S
C824 C832 1.574 . S
C824 C840 1.368 . S
H825 C833 0.950 . S
H826 C831 0.950 . S
H827 C832 0.949 . S
H828 C834 0.950 . S
H829 C835 0.950 . S
H830 C836 0.949 . S
C831 H826 0.950 . S
C831 C833 1.327 . S
C831 C837 1.429 . S
C832 C824 1.574 . S
C832 H827 0.949 . S
C832 C838 1.368 . S
C833 C817 1.349 . S
C833 H825 0.950 . S
C833 C831 1.327 . S
C834 C822 1.349 . S
C834 H828 0.950 . S
C834 C835 1.327 . S
C835 H829 0.950 . S
C835 C834 1.327 . S
C835 C839 1.429 . S
C836 C819 1.574 . S
C836 H830 0.949 . S
C836 C840 1.368 . S
C837 C818 1.429 . S
C837 C831 1.429 . S
C837 C838 1.523 . S
C838 C819 1.368 . S
C838 C832 1.368 . S
C838 C837 1.523 . S
C839 C823 1.429 . S
C839 C835 1.429 . S
C839 C840 1.523 . S
C840 C824 1.368 . S
C840 C836 1.368 . S
C840 C839 1.523 . S
H841 C816 0.950 . S
H842 C818 0.950 . S
H843 C819 0.949 . S
H844 C821 0.950 . S
H845 C823 0.950 . S
C846 C847 1.349 . S
C846 C848 1.327 . S
C846 H871 0.950 . S
C847 C846 1.349 . S
C847 C863 1.349 . S
C848 C846 1.327 . S
C848 C867 1.429 . S
C848 H872 0.950 . S
C849 C866 1.574 . S
C849 C868 1.368 . S
C849 H873 0.949 . S
H850 C854 0.949 . S
C851 C852 1.349 . S
C851 C853 1.327 . S
C851 H874 0.950 . S
C852 C851 1.349 . S
C852 C864 1.349 . S
C853 C851 1.327 . S
C853 C869 1.429 . S
C853 H875 0.950 . S
C854 H850 0.949 . S
C854 C862 1.574 . S
C854 C870 1.368 . S
H855 C863 0.950 . S
H856 C861 0.950 . S
H857 C862 0.949 . S
H858 C864 0.950 . S
H859 C865 0.950 . S
H860 C866 0.949 . S
C861 H856 0.950 . S
C861 C863 1.327 . S
C861 C867 1.429 . S
C862 C854 1.574 . S
C862 H857 0.949 . S
C862 C868 1.368 . S
C863 C847 1.349 . S
C863 H855 0.950 . S
C863 C861 1.327 . S
C864 C852 1.349 . S
C864 H858 0.950 . S
C864 C865 1.327 . S
C865 H859 0.950 . S
C865 C864 1.327 . S
C865 C869 1.429 . S
C866 C849 1.574 . S
C866 H860 0.949 . S
C866 C870 1.368 . S
C867 C848 1.429 . S
C867 C861 1.429 . S
C867 C868 1.523 . S
C868 C849 1.368 . S
C868 C862 1.368 . S
C868 C867 1.523 . S
C869 C853 1.429 . S
C869 C865 1.429 . S
C869 C870 1.523 . S
C870 C854 1.368 . S
C870 C866 1.368 . S
C870 C869 1.523 . S
H871 C846 0.950 . S
H872 C848 0.950 . S
H873 C849 0.949 . S
H874 C851 0.950 . S
H875 C853 0.950 . S
C876 C877 1.349 . S
C876 C878 1.327 1_556 S
C876 H901 0.950 . S
C877 C876 1.349 . S
C877 C893 1.349 . S
C878 C876 1.327 1_554 S
C878 C897 1.429 1_554 S
C878 H902 0.950 . S
C879 C896 1.574 . S
C879 C898 1.368 . S
C879 H903 0.949 1_554 S
H880 C884 0.949 . S
C881 C882 1.349 . S
C881 C883 1.327 . S
C881 H904 0.950 . S
C882 C881 1.349 . S
C882 C894 1.349 . S
C883 C881 1.327 . S
C883 C899 1.429 . S
C883 H905 0.950 . S
C884 H880 0.949 . S
C884 C892 1.574 . S
C884 C900 1.368 . S
H885 C893 0.950 . S
H886 C891 0.950 . S
H887 C892 0.949 . S
H888 C894 0.950 . S
H889 C895 0.950 . S
H890 C896 0.949 . S
C891 H886 0.950 . S
C891 C893 1.327 . S
C891 C897 1.429 . S
C892 C884 1.574 . S
C892 H887 0.949 . S
C892 C898 1.368 . S
C893 C877 1.349 . S
C893 H885 0.950 . S
C893 C891 1.327 . S
C894 C882 1.349 . S
C894 H888 0.950 . S
C894 C895 1.327 . S
C895 H889 0.950 . S
C895 C894 1.327 . S
C895 C899 1.429 . S
C896 C879 1.574 . S
C896 H890 0.949 . S
C896 C900 1.368 . S
C897 C878 1.429 1_556 S
C897 C891 1.429 . S
C897 C898 1.523 1_556 S
C898 C879 1.368 . S
C898 C892 1.368 . S
C898 C897 1.523 1_554 S
C899 C883 1.429 . S
C899 C895 1.429 . S
C899 C900 1.523 . S
C900 C884 1.368 . S
C900 C896 1.368 . S
C900 C899 1.523 . S
H901 C876 0.950 . S
H902 C878 0.950 . S
H903 C879 0.949 1_556 S
H904 C881 0.950 . S
H905 C883 0.950 . S
C906 C907 1.349 . S
C906 C908 1.327 . S
C906 H931 0.950 . S
C907 C906 1.349 . S
C907 C923 1.349 . S
C908 C906 1.327 . S
C908 C927 1.429 . S
C908 H932 0.950 . S
C909 C926 1.574 . S
C909 C928 1.368 . S
C909 H933 0.949 . S
H910 C914 0.949 . S
C911 C912 1.349 . S
C911 C913 1.327 . S
C911 H934 0.950 . S
C912 C911 1.349 . S
C912 C924 1.349 . S
C913 C911 1.327 . S
C913 C929 1.429 . S
C913 H935 0.950 . S
C914 H910 0.949 . S
C914 C922 1.574 . S
C914 C930 1.368 . S
H915 C923 0.950 . S
H916 C921 0.950 . S
H917 C922 0.949 . S
H918 C924 0.950 . S
H919 C925 0.950 . S
H920 C926 0.949 . S
C921 H916 0.950 . S
C921 C923 1.327 . S
C921 C927 1.429 . S
C922 C914 1.574 . S
C922 H917 0.949 . S
C922 C928 1.368 . S
C923 C907 1.349 . S
C923 H915 0.950 . S
C923 C921 1.327 . S
C924 C912 1.349 . S
C924 H918 0.950 . S
C924 C925 1.327 . S
C925 H919 0.950 . S
C925 C924 1.327 . S
C925 C929 1.429 . S
C926 C909 1.574 . S
C926 H920 0.949 . S
C926 C930 1.368 . S
C927 C908 1.429 . S
C927 C921 1.429 . S
C927 C928 1.523 . S
C928 C909 1.368 . S
C928 C922 1.368 . S
C928 C927 1.523 . S
C929 C913 1.429 . S
C929 C925 1.429 . S
C929 C930 1.523 . S
C930 C914 1.368 . S
C930 C926 1.368 . S
C930 C929 1.523 . S
H931 C906 0.950 . S
H932 C908 0.950 . S
H933 C909 0.949 . S
H934 C911 0.950 . S
H935 C913 0.950 . S
C936 C937 1.349 . S
C936 C938 1.327 . S
C936 H961 0.950 . S
C937 C936 1.349 . S
C937 C953 1.349 . S
C938 C936 1.327 . S
C938 C957 1.429 . S
C938 H962 0.950 . S
C939 C956 1.574 . S
C939 C958 1.368 . S
C939 H963 0.949 . S
H940 C944 0.949 . S
C941 C942 1.349 . S
C941 C943 1.327 . S
C941 H964 0.950 . S
C942 C941 1.349 . S
C942 C954 1.349 . S
C943 C941 1.327 . S
C943 C959 1.429 . S
C943 H965 0.950 . S
C944 H940 0.949 . S
C944 C952 1.574 . S
C944 C960 1.368 . S
H945 C953 0.950 . S
H946 C951 0.950 . S
H947 C952 0.949 . S
H948 C954 0.950 . S
H949 C955 0.950 . S
H950 C956 0.949 . S
C951 H946 0.950 . S
C951 C953 1.327 . S
C951 C957 1.429 . S
C952 C944 1.574 . S
C952 H947 0.949 . S
C952 C958 1.368 . S
C953 C937 1.349 . S
C953 H945 0.950 . S
C953 C951 1.327 . S
C954 C942 1.349 . S
C954 H948 0.950 . S
C954 C955 1.327 . S
C955 H949 0.950 . S
C955 C954 1.327 . S
C955 C959 1.429 . S
C956 C939 1.574 . S
C956 H950 0.949 . S
C956 C960 1.368 . S
C957 C938 1.429 . S
C957 C951 1.429 . S
C957 C958 1.523 . S
C958 C939 1.368 . S
C958 C952 1.368 . S
C958 C957 1.523 . S
C959 C943 1.429 . S
C959 C955 1.429 . S
C959 C960 1.523 . S
C960 C944 1.368 . S
C960 C956 1.368 . S
C960 C959 1.523 . S
H961 C936 0.950 . S
H962 C938 0.950 . S
H963 C939 0.949 . S
H964 C941 0.950 . S
H965 C943 0.950 . S
C966 C967 1.349 . S
C966 C968 1.327 . S
C966 H991 0.950 . S
C967 C966 1.349 . S
C967 C983 1.349 . S
C968 C966 1.327 . S
C968 C987 1.429 . S
C968 H992 0.950 . S
C969 C986 1.574 . S
C969 C988 1.368 . S
C969 H993 0.949 . S
H970 C974 0.949 . S
C971 C972 1.349 . S
C971 C973 1.327 . S
C971 H994 0.950 . S
C972 C971 1.349 . S
C972 C984 1.349 . S
C973 C971 1.327 . S
C973 C989 1.429 . S
C973 H995 0.950 . S
C974 H970 0.949 . S
C974 C982 1.574 . S
C974 C990 1.368 . S
H975 C983 0.950 . S
H976 C981 0.950 1_655 S
H977 C982 0.949 1_455 S
H978 C984 0.950 . S
H979 C985 0.950 . S
H980 C986 0.949 . S
C981 H976 0.950 1_455 S
C981 C983 1.327 . S
C981 C987 1.429 . S
C982 C974 1.574 . S
C982 H977 0.949 1_655 S
C982 C988 1.368 . S
C983 C967 1.349 . S
C983 H975 0.950 . S
C983 C981 1.327 . S
C984 C972 1.349 . S
C984 H978 0.950 . S
C984 C985 1.327 . S
C985 H979 0.950 . S
C985 C984 1.327 . S
C985 C989 1.429 . S
C986 C969 1.574 . S
C986 H980 0.949 . S
C986 C990 1.368 . S
C987 C968 1.429 . S
C987 C981 1.429 . S
C987 C988 1.523 1_455 S
C988 C969 1.368 . S
C988 C982 1.368 . S
C988 C987 1.523 1_655 S
C989 C973 1.429 . S
C989 C985 1.429 . S
C989 C990 1.523 . S
C990 C974 1.368 . S
C990 C986 1.368 . S
C990 C989 1.523 . S
H991 C966 0.950 . S
H992 C968 0.950 . S
H993 C969 0.949 . S
H994 C971 0.950 . S
H995 C973 0.950 . S
C996 C997 1.349 . S
C996 C998 1.327 . S
C996 H1021 0.950 . S
C997 C996 1.349 . S
C997 C1013 1.349 . S
C998 C996 1.327 . S
C998 C1017 1.429 . S
C998 H1022 0.950 . S
C999 C1016 1.574 . S
C999 C1018 1.368 . S
C999 H1023 0.949 . S
H1000 C1004 0.949 . S
C1001 C1002 1.349 . S
C1001 C1003 1.327 . S
C1001 H1024 0.950 . S
C1002 C1001 1.349 . S
C1002 C1014 1.349 . S
C1003 C1001 1.327 . S
C1003 C1019 1.429 . S
C1003 H1025 0.950 . S
C1004 H1000 0.949 . S
C1004 C1012 1.574 . S
C1004 C1020 1.368 . S
H1005 C1013 0.950 . S
H1006 C1011 0.950 1_455 S
H1007 C1012 0.965 . S
H1008 C1014 0.950 . S
H1009 C1015 0.950 . S
H1010 C1016 0.949 . S
C1011 H1006 0.950 1_655 S
C1011 C1013 1.327 . S
C1011 C1017 1.429 . S
C1012 C1004 1.574 . S
C1012 H1007 0.965 . S
C1012 C1018 1.368 . S
C1013 C997 1.349 . S
C1013 H1005 0.950 . S
C1013 C1011 1.327 . S
C1014 C1002 1.349 . S
C1014 H1008 0.950 . S
C1014 C1015 1.327 . S
C1015 H1009 0.950 . S
C1015 C1014 1.327 . S
C1015 C1019 1.429 . S
C1016 C999 1.574 . S
C1016 H1010 0.949 . S
C1016 C1020 1.368 . S
C1017 C998 1.429 . S
C1017 C1011 1.429 . S
C1017 C1018 1.523 1_655 S
C1018 C999 1.368 . S
C1018 C1012 1.368 . S
C1018 C1017 1.523 1_455 S
C1019 C1003 1.429 . S
C1019 C1015 1.429 . S
C1019 C1020 1.523 . S
C1020 C1004 1.368 . S
C1020 C1016 1.368 . S
C1020 C1019 1.523 . S
H1021 C996 0.950 . S
H1022 C998 0.950 . S
H1023 C999 0.949 . S
H1024 C1001 0.950 . S
H1025 C1003 0.950 . S
C1026 C1027 1.349 . S
C1026 C1028 1.327 . S
C1026 H1051 0.950 . S
C1027 C1026 1.349 . S
C1027 C1043 1.349 . S
C1028 C1026 1.327 . S
C1028 C1047 1.429 . S
C1028 H1052 0.950 . S
C1029 C1046 1.574 . S
C1029 C1048 1.368 . S
C1029 H1053 0.949 . S
H1030 C1034 0.949 . S
C1031 C1032 1.349 . S
C1031 C1033 1.327 . S
C1031 H1054 0.950 . S
C1032 C1031 1.349 . S
C1032 C1044 1.349 . S
C1033 C1031 1.327 . S
C1033 C1049 1.429 . S
C1033 H1055 0.950 . S
C1034 H1030 0.949 . S
C1034 C1042 1.574 . S
C1034 C1050 1.368 . S
H1035 C1043 0.950 . S
H1036 C1041 0.950 . S
H1037 C1042 0.949 . S
H1038 C1044 0.950 . S
H1039 C1045 0.950 . S
H1040 C1046 0.949 . S
C1041 H1036 0.950 . S
C1041 C1043 1.327 . S
C1041 C1047 1.429 . S
C1042 C1034 1.574 . S
C1042 H1037 0.949 . S
C1042 C1048 1.368 . S
C1043 C1027 1.349 . S
C1043 H1035 0.950 . S
C1043 C1041 1.327 . S
C1044 C1032 1.349 . S
C1044 H1038 0.950 . S
C1044 C1045 1.327 . S
C1045 H1039 0.950 . S
C1045 C1044 1.327 . S
C1045 C1049 1.429 . S
C1046 C1029 1.574 . S
C1046 H1040 0.949 . S
C1046 C1050 1.368 . S
C1047 C1028 1.429 . S
C1047 C1041 1.429 . S
C1047 C1048 1.523 . S
C1048 C1029 1.368 . S
C1048 C1042 1.368 . S
C1048 C1047 1.523 . S
C1049 C1033 1.429 . S
C1049 C1045 1.429 . S
C1049 C1050 1.523 . S
C1050 C1034 1.368 . S
C1050 C1046 1.368 . S
C1050 C1049 1.523 . S
H1051 C1026 0.950 . S
H1052 C1028 0.950 . S
H1053 C1029 0.949 . S
H1054 C1031 0.950 . S
H1055 C1033 0.950 . S
C1056 C1057 1.349 . S
C1056 C1058 1.327 . S
C1056 H1081 0.950 . S
C1057 C1056 1.349 . S
C1057 C1073 1.349 . S
C1058 C1056 1.327 . S
C1058 C1077 1.429 . S
C1058 H1082 0.950 . S
C1059 C1076 1.574 . S
C1059 C1078 1.368 . S
C1059 H1083 0.949 . S
H1060 C1064 0.949 . S
C1061 C1062 1.349 . S
C1061 C1063 1.327 . S
C1061 H1084 0.950 . S
C1062 C1061 1.349 . S
C1062 C1074 1.349 . S
C1063 C1061 1.327 . S
C1063 C1079 1.429 . S
C1063 H1085 0.950 . S
C1064 H1060 0.949 . S
C1064 C1072 1.574 . S
C1064 C1080 1.368 . S
H1065 C1073 0.950 . S
H1066 C1071 0.950 . S
H1067 C1072 0.949 . S
H1068 C1074 0.950 . S
H1069 C1075 0.950 . S
H1070 C1076 0.949 . S
C1071 H1066 0.950 . S
C1071 C1073 1.327 . S
C1071 C1077 1.429 . S
C1072 C1064 1.574 . S
C1072 H1067 0.949 . S
C1072 C1078 1.368 . S
C1073 C1057 1.349 . S
C1073 H1065 0.950 . S
C1073 C1071 1.327 . S
C1074 C1062 1.349 . S
C1074 H1068 0.950 . S
C1074 C1075 1.327 . S
C1075 H1069 0.950 . S
C1075 C1074 1.327 . S
C1075 C1079 1.429 . S
C1076 C1059 1.574 . S
C1076 H1070 0.949 . S
C1076 C1080 1.368 . S
C1077 C1058 1.429 . S
C1077 C1071 1.429 . S
C1077 C1078 1.523 . S
C1078 C1059 1.368 . S
C1078 C1072 1.368 . S
C1078 C1077 1.523 . S
C1079 C1063 1.429 . S
C1079 C1075 1.429 . S
C1079 C1080 1.523 . S
C1080 C1064 1.368 . S
C1080 C1076 1.368 . S
C1080 C1079 1.523 . S
H1081 C1056 0.950 . S
H1082 C1058 0.950 . S
H1083 C1059 0.949 . S
H1084 C1061 0.950 . S
H1085 C1063 0.950 . S
C1086 C1087 1.349 . S
C1086 C1088 1.327 . S
C1086 H1111 0.950 . S
C1087 C1086 1.349 . S
C1087 C1103 1.349 1_545 S
C1088 C1086 1.327 . S
C1088 C1107 1.429 1_545 S
C1088 H1112 0.950 . S
C1089 C1106 1.574 . S
C1089 C1108 1.368 . S
C1089 H1113 0.949 . S
H1090 C1094 0.949 . S
C1091 C1092 1.349 . S
C1091 C1093 1.327 . S
C1091 H1114 0.950 . S
C1092 C1091 1.349 . S
C1092 C1104 1.349 . S
C1093 C1091 1.327 . S
C1093 C1109 1.429 . S
C1093 H1115 0.950 . S
C1094 H1090 0.949 . S
C1094 C1102 1.574 . S
C1094 C1110 1.368 . S
H1095 C1103 0.950 . S
H1096 C1101 0.950 . S
H1097 C1102 0.949 1_545 S
H1098 C1104 0.950 . S
H1099 C1105 0.950 . S
H1100 C1106 0.949 . S
C1101 H1096 0.950 . S
C1101 C1103 1.327 . S
C1101 C1107 1.429 . S
C1102 C1094 1.574 . S
C1102 H1097 0.949 1_565 S
C1102 C1108 1.368 . S
C1103 C1087 1.349 1_565 S
C1103 H1095 0.950 . S
C1103 C1101 1.327 . S
C1104 C1092 1.349 . S
C1104 H1098 0.950 . S
C1104 C1105 1.327 . S
C1105 H1099 0.950 . S
C1105 C1104 1.327 . S
C1105 C1109 1.429 . S
C1106 C1089 1.574 . S
C1106 H1100 0.949 . S
C1106 C1110 1.368 . S
C1107 C1088 1.429 1_565 S
C1107 C1101 1.429 . S
C1107 C1108 1.523 . S
C1108 C1089 1.368 . S
C1108 C1102 1.368 . S
C1108 C1107 1.523 . S
C1109 C1093 1.429 . S
C1109 C1105 1.429 . S
C1109 C1110 1.523 . S
C1110 C1094 1.368 . S
C1110 C1106 1.368 . S
C1110 C1109 1.523 . S
H1111 C1086 0.950 . S
H1112 C1088 0.950 . S
H1113 C1089 0.949 . S
H1114 C1091 0.950 . S
H1115 C1093 0.950 . S
C1116 C1117 1.349 . S
C1116 C1118 1.327 . S
C1116 H1141 0.950 . S
C1117 C1116 1.349 . S
C1117 C1133 1.349 . S
C1118 C1116 1.327 . S
C1118 C1137 1.429 . S
C1118 H1142 0.950 . S
C1119 C1136 1.574 . S
C1119 C1138 1.368 . S
C1119 H1143 0.949 . S
H1120 C1124 0.949 . S
C1121 C1122 1.349 . S
C1121 C1123 1.327 . S
C1121 H1144 0.950 . S
C1122 C1121 1.349 . S
C1122 C1134 1.349 . S
C1123 C1121 1.327 . S
C1123 C1139 1.429 . S
C1123 H1145 0.950 . S
C1124 H1120 0.949 . S
C1124 C1132 1.574 . S
C1124 C1140 1.368 . S
H1125 C1133 0.950 . S
H1126 C1131 0.950 . S
H1127 C1132 0.949 . S
H1128 C1134 0.950 . S
H1129 C1135 0.950 . S
H1130 C1136 0.949 . S
C1131 H1126 0.950 . S
C1131 C1133 1.327 . S
C1131 C1137 1.429 . S
C1132 C1124 1.574 . S
C1132 H1127 0.949 . S
C1132 C1138 1.368 . S
C1133 C1117 1.349 . S
C1133 H1125 0.950 . S
C1133 C1131 1.327 . S
C1134 C1122 1.349 . S
C1134 H1128 0.950 . S
C1134 C1135 1.327 . S
C1135 H1129 0.950 . S
C1135 C1134 1.327 . S
C1135 C1139 1.429 . S
C1136 C1119 1.574 . S
C1136 H1130 0.949 . S
C1136 C1140 1.368 . S
C1137 C1118 1.429 . S
C1137 C1131 1.429 . S
C1137 C1138 1.523 . S
C1138 C1119 1.368 . S
C1138 C1132 1.368 . S
C1138 C1137 1.523 . S
C1139 C1123 1.429 . S
C1139 C1135 1.429 . S
C1139 C1140 1.523 . S
C1140 C1124 1.368 . S
C1140 C1136 1.368 . S
C1140 C1139 1.523 . S
H1141 C1116 0.950 . S
H1142 C1118 0.950 . S
H1143 C1119 0.949 . S
H1144 C1121 0.950 . S
H1145 C1123 0.950 . S
C1146 C1147 1.349 . S
C1146 C1148 1.327 . S
C1146 H1171 0.950 . S
C1147 C1146 1.349 . S
C1147 C1163 1.349 . S
C1148 C1146 1.327 . S
C1148 C1167 1.429 . S
C1148 H1172 0.950 . S
C1149 C1166 1.577 . S
C1149 C1168 1.368 . S
C1149 H1173 0.949 . S
H1150 C1154 0.949 . S
C1151 C1152 1.349 . S
C1151 C1153 1.327 . S
C1151 H1174 0.950 . S
C1152 C1151 1.349 . S
C1152 C1164 1.349 1_565 S
C1153 C1151 1.327 . S
C1153 C1169 1.429 1_566 S
C1153 H1175 0.950 1_556 S
C1154 H1150 0.949 . S
C1154 C1162 1.574 . S
C1154 C1170 1.368 . S
H1155 C1163 0.950 . S
H1156 C1161 0.950 . S
H1157 C1162 0.949 . S
H1158 C1164 0.950 . S
H1159 C1165 0.950 . S
H1160 C1166 0.943 1_565 S
C1161 H1156 0.950 . S
C1161 C1163 1.327 . S
C1161 C1167 1.429 . S
C1162 C1154 1.574 . S
C1162 H1157 0.949 . S
C1162 C1168 1.368 . S
C1163 C1147 1.349 . S
C1163 H1155 0.950 . S
C1163 C1161 1.327 . S
C1164 C1152 1.349 1_545 S
C1164 H1158 0.950 . S
C1164 C1165 1.327 . S
C1165 H1159 0.950 . S
C1165 C1164 1.327 . S
C1165 C1169 1.429 1_556 S
C1166 C1149 1.577 . S
C1166 H1160 0.943 1_545 S
C1166 C1170 1.373 . S
C1167 C1148 1.429 . S
C1167 C1161 1.429 . S
C1167 C1168 1.523 . S
C1168 C1149 1.368 . S
C1168 C1162 1.368 . S
C1168 C1167 1.523 . S
C1169 C1153 1.429 1_544 S
C1169 C1165 1.429 1_554 S
C1169 C1170 1.523 . S
C1170 C1154 1.368 . S
C1170 C1166 1.373 . S
C1170 C1169 1.523 . S
H1171 C1146 0.950 . S
H1172 C1148 0.950 . S
H1173 C1149 0.949 . S
H1174 C1151 0.950 . S
H1175 C1153 0.950 1_554 S
C1176 C1177 1.349 . S
C1176 C1178 1.327 . S
C1176 H1201 0.950 . S
C1177 C1176 1.349 . S
C1177 C1193 1.349 . S
C1178 C1176 1.327 . S
C1178 C1197 1.429 . S
C1178 H1202 0.950 . S
C1179 C1196 1.574 . S
C1179 C1198 1.368 . S
C1179 H1203 0.949 . S
H1180 C1184 0.949 . S
C1181 C1182 1.349 . S
C1181 C1183 1.327 . S
C1181 H1204 0.950 . S
C1182 C1181 1.349 . S
C1182 C1194 1.349 . S
C1183 C1181 1.327 . S
C1183 C1199 1.429 . S
C1183 H1205 0.950 . S
C1184 H1180 0.949 . S
C1184 C1192 1.574 . S
C1184 C1200 1.368 . S
H1185 C1193 0.950 . S
H1186 C1191 0.950 . S
H1187 C1192 0.949 . S
H1188 C1194 0.950 . S
H1189 C1195 0.950 . S
H1190 C1196 0.949 . S
C1191 H1186 0.950 . S
C1191 C1193 1.327 . S
C1191 C1197 1.429 . S
C1192 C1184 1.574 . S
C1192 H1187 0.949 . S
C1192 C1198 1.368 . S
C1193 C1177 1.349 . S
C1193 H1185 0.950 . S
C1193 C1191 1.327 . S
C1194 C1182 1.349 . S
C1194 H1188 0.950 . S
C1194 C1195 1.327 . S
C1195 H1189 0.950 . S
C1195 C1194 1.327 . S
C1195 C1199 1.429 . S
C1196 C1179 1.574 . S
C1196 H1190 0.949 . S
C1196 C1200 1.368 . S
C1197 C1178 1.429 . S
C1197 C1191 1.429 . S
C1197 C1198 1.523 . S
C1198 C1179 1.368 . S
C1198 C1192 1.368 . S
C1198 C1197 1.523 . S
C1199 C1183 1.429 . S
C1199 C1195 1.429 . S
C1199 C1200 1.523 . S
C1200 C1184 1.368 . S
C1200 C1196 1.368 . S
C1200 C1199 1.523 . S
H1201 C1176 0.950 . S
H1202 C1178 0.950 . S
H1203 C1179 0.949 . S
H1204 C1181 0.950 . S
H1205 C1183 0.950 . S
C1206 C1207 1.349 . S
C1206 C1208 1.328 . S
C1206 H1231 0.950 . S
C1207 C1206 1.349 . S
C1207 C1223 1.349 . S
C1208 C1206 1.328 . S
C1208 C1227 1.428 1_554 S
C1208 H1232 0.948 1_554 S
C1209 C1226 1.574 . S
C1209 C1228 1.368 . S
C1209 H1233 0.949 . S
H1210 C1214 0.949 . S
C1211 C1212 1.349 . S
C1211 C1213 1.327 . S
C1211 H1234 0.950 . S
C1212 C1211 1.349 . S
C1212 C1224 1.349 . S
C1213 C1211 1.327 . S
C1213 C1229 1.429 . S
C1213 H1235 0.950 . S
C1214 H1210 0.949 . S
C1214 C1222 1.574 . S
C1214 C1230 1.368 . S
H1215 C1223 0.950 . S
H1216 C1221 0.950 . S
H1217 C1222 0.949 . S
H1218 C1224 0.950 . S
H1219 C1225 0.950 . S
H1220 C1226 0.949 . S
C1221 H1216 0.950 . S
C1221 C1223 1.327 . S
C1221 C1227 1.429 1_554 S
C1222 C1214 1.574 . S
C1222 H1217 0.949 . S
C1222 C1228 1.368 . S
C1223 C1207 1.349 . S
C1223 H1215 0.950 . S
C1223 C1221 1.327 . S
C1224 C1212 1.349 . S
C1224 H1218 0.950 . S
C1224 C1225 1.327 . S
C1225 H1219 0.950 . S
C1225 C1224 1.327 . S
C1225 C1229 1.429 . S
C1226 C1209 1.574 . S
C1226 H1220 0.949 . S
C1226 C1230 1.368 . S
C1227 C1208 1.428 1_556 S
C1227 C1221 1.429 1_556 S
C1227 C1228 1.523 . S
C1228 C1209 1.368 . S
C1228 C1222 1.368 . S
C1228 C1227 1.523 . S
C1229 C1213 1.429 . S
C1229 C1225 1.429 . S
C1229 C1230 1.523 . S
C1230 C1214 1.368 . S
C1230 C1226 1.368 . S
C1230 C1229 1.523 . S
H1231 C1206 0.950 . S
H1232 C1208 0.948 1_556 S
H1233 C1209 0.949 . S
H1234 C1211 0.950 . S
H1235 C1213 0.950 . S
C1236 C1237 1.349 . S
C1236 C1238 1.327 . S
C1236 H1261 0.950 . S
C1237 C1236 1.349 . S
C1237 C1253 1.349 . S
C1238 C1236 1.327 . S
C1238 C1257 1.429 . S
C1238 H1262 0.950 . S
C1239 C1256 1.574 . S
C1239 C1258 1.368 . S
C1239 H1263 0.949 . S
H1240 C1244 0.949 . S
C1241 C1242 1.349 . S
C1241 C1243 1.327 . S
C1241 H1264 0.950 . S
C1242 C1241 1.349 . S
C1242 C1254 1.349 . S
C1243 C1241 1.327 . S
C1243 C1259 1.429 . S
C1243 H1265 0.950 . S
C1244 H1240 0.949 . S
C1244 C1252 1.574 . S
C1244 C1260 1.368 . S
H1245 C1253 0.950 . S
H1246 C1251 0.950 . S
H1247 C1252 0.949 . S
H1248 C1254 0.950 . S
H1249 C1255 0.950 . S
H1250 C1256 0.949 . S
C1251 H1246 0.950 . S
C1251 C1253 1.327 . S
C1251 C1257 1.429 . S
C1252 C1244 1.574 . S
C1252 H1247 0.949 . S
C1252 C1258 1.368 . S
C1253 C1237 1.349 . S
C1253 H1245 0.950 . S
C1253 C1251 1.327 . S
C1254 C1242 1.349 . S
C1254 H1248 0.950 . S
C1254 C1255 1.327 . S
C1255 H1249 0.950 . S
C1255 C1254 1.327 . S
C1255 C1259 1.429 . S
C1256 C1239 1.574 . S
C1256 H1250 0.949 . S
C1256 C1260 1.368 . S
C1257 C1238 1.429 . S
C1257 C1251 1.429 . S
C1257 C1258 1.523 . S
C1258 C1239 1.368 . S
C1258 C1252 1.368 . S
C1258 C1257 1.523 . S
C1259 C1243 1.429 . S
C1259 C1255 1.429 . S
C1259 C1260 1.523 . S
C1260 C1244 1.368 . S
C1260 C1256 1.368 . S
C1260 C1259 1.523 . S
H1261 C1236 0.950 . S
H1262 C1238 0.950 . S
H1263 C1239 0.949 . S
H1264 C1241 0.950 . S
H1265 C1243 0.950 . S
C1266 C1267 1.349 . S
C1266 C1268 1.327 . S
C1266 H1291 0.950 . S
C1267 C1266 1.349 . S
C1267 C1283 1.349 . S
C1268 C1266 1.327 . S
C1268 C1287 1.429 . S
C1268 H1292 0.950 . S
C1269 C1286 1.574 . S
C1269 C1288 1.368 . S
C1269 H1293 0.949 . S
H1270 C1274 0.949 . S
C1271 C1272 1.349 . S
C1271 C1273 1.327 . S
C1271 H1294 0.950 . S
C1272 C1271 1.349 . S
C1272 C1284 1.349 . S
C1273 C1271 1.327 . S
C1273 C1289 1.429 . S
C1273 H1295 0.950 . S
C1274 H1270 0.949 . S
C1274 C1282 1.574 . S
C1274 C1290 1.368 . S
H1275 C1283 0.950 . S
H1276 C1281 0.950 . S
H1277 C1282 0.949 . S
H1278 C1284 0.950 . S
H1279 C1285 0.950 . S
H1280 C1286 0.949 . S
C1281 H1276 0.950 . S
C1281 C1283 1.327 . S
C1281 C1287 1.429 . S
C1282 C1274 1.574 . S
C1282 H1277 0.949 . S
C1282 C1288 1.368 . S
C1283 C1267 1.349 . S
C1283 H1275 0.950 . S
C1283 C1281 1.327 . S
C1284 C1272 1.349 . S
C1284 H1278 0.950 . S
C1284 C1285 1.327 . S
C1285 H1279 0.950 . S
C1285 C1284 1.327 . S
C1285 C1289 1.429 . S
C1286 C1269 1.574 . S
C1286 H1280 0.949 . S
C1286 C1290 1.368 . S
C1287 C1268 1.429 . S
C1287 C1281 1.429 . S
C1287 C1288 1.523 . S
C1288 C1269 1.368 . S
C1288 C1282 1.368 . S
C1288 C1287 1.523 . S
C1289 C1273 1.429 . S
C1289 C1285 1.429 . S
C1289 C1290 1.523 . S
C1290 C1274 1.368 . S
C1290 C1286 1.368 . S
C1290 C1289 1.523 . S
H1291 C1266 0.950 . S
H1292 C1268 0.950 . S
H1293 C1269 0.949 . S
H1294 C1271 0.950 . S
H1295 C1273 0.950 . S
C1296 C1297 1.349 . S
C1296 C1298 1.327 . S
C1296 H1321 0.950 . S
C1297 C1296 1.349 . S
C1297 C1313 1.349 . S
C1298 C1296 1.327 . S
C1298 C1317 1.429 . S
C1298 H1322 0.950 . S
C1299 C1316 1.574 . S
C1299 C1318 1.368 . S
C1299 H1323 0.949 . S
H1300 C1304 0.949 . S
C1301 C1302 1.349 . S
C1301 C1303 1.327 . S
C1301 H1324 0.950 . S
C1302 C1301 1.349 . S
C1302 C1314 1.349 . S
C1303 C1301 1.327 . S
C1303 C1319 1.429 . S
C1303 H1325 0.950 . S
C1304 H1300 0.949 . S
C1304 C1312 1.574 . S
C1304 C1320 1.368 . S
H1305 C1313 0.950 . S
H1306 C1311 0.950 . S
H1307 C1312 0.949 . S
H1308 C1314 0.950 . S
H1309 C1315 0.950 . S
H1310 C1316 0.949 . S
C1311 H1306 0.950 . S
C1311 C1313 1.327 . S
C1311 C1317 1.429 . S
C1312 C1304 1.574 . S
C1312 H1307 0.949 . S
C1312 C1318 1.368 . S
C1313 C1297 1.349 . S
C1313 H1305 0.950 . S
C1313 C1311 1.327 . S
C1314 C1302 1.349 . S
C1314 H1308 0.950 . S
C1314 C1315 1.327 . S
C1315 H1309 0.950 . S
C1315 C1314 1.327 . S
C1315 C1319 1.429 . S
C1316 C1299 1.574 . S
C1316 H1310 0.949 . S
C1316 C1320 1.368 . S
C1317 C1298 1.429 . S
C1317 C1311 1.429 . S
C1317 C1318 1.523 . S
C1318 C1299 1.368 . S
C1318 C1312 1.368 . S
C1318 C1317 1.523 . S
C1319 C1303 1.429 . S
C1319 C1315 1.429 . S
C1319 C1320 1.523 . S
C1320 C1304 1.368 . S
C1320 C1316 1.368 . S
C1320 C1319 1.523 . S
H1321 C1296 0.950 . S
H1322 C1298 0.950 . S
H1323 C1299 0.949 . S
H1324 C1301 0.950 . S
H1325 C1303 0.950 . S
C1326 C1327 1.349 . S
C1326 C1328 1.327 . S
C1326 H1351 0.950 . S
C1327 C1326 1.349 . S
C1327 C1343 1.349 . S
C1328 C1326 1.327 . S
C1328 C1347 1.429 1_665 S
C1328 H1352 0.950 . S
C1329 C1346 1.574 . S
C1329 C1348 1.368 . S
C1329 H1353 0.949 . S
H1330 C1334 0.949 . S
C1331 C1332 1.349 . S
C1331 C1333 1.327 . S
C1331 H1354 0.950 . S
C1332 C1331 1.349 . S
C1332 C1344 1.349 . S
C1333 C1331 1.327 . S
C1333 C1349 1.429 . S
C1333 H1355 0.950 . S
C1334 H1330 0.949 . S
C1334 C1342 1.574 . S
C1334 C1350 1.368 . S
H1335 C1343 0.951 1_455 S
H1336 C1341 0.950 1_545 S
H1337 C1342 0.931 1_655 S
H1338 C1344 0.950 . S
H1339 C1345 0.950 . S
H1340 C1346 0.949 . S
C1341 H1336 0.950 1_565 S
C1341 C1343 1.327 1_455 S
C1341 C1347 1.429 1_565 S
C1342 C1334 1.574 . S
C1342 H1337 0.931 1_455 S
C1342 C1348 1.368 . S
C1343 C1327 1.349 . S
C1343 H1335 0.951 1_655 S
C1343 C1341 1.327 1_655 S
C1344 C1332 1.349 . S
C1344 H1338 0.950 . S
C1344 C1345 1.327 . S
C1345 H1339 0.950 . S
C1345 C1344 1.327 . S
C1345 C1349 1.429 . S
C1346 C1329 1.574 . S
C1346 H1340 0.949 . S
C1346 C1350 1.368 . S
C1347 C1328 1.429 1_445 S
C1347 C1341 1.429 1_545 S
C1347 C1348 1.523 . S
C1348 C1329 1.368 . S
C1348 C1342 1.368 . S
C1348 C1347 1.523 . S
C1349 C1333 1.429 . S
C1349 C1345 1.429 . S
C1349 C1350 1.523 . S
C1350 C1334 1.368 . S
C1350 C1346 1.368 . S
C1350 C1349 1.523 . S
H1351 C1326 0.950 . S
H1352 C1328 0.950 . S
H1353 C1329 0.949 . S
H1354 C1331 0.950 . S
H1355 C1333 0.950 . S
C1356 C1357 1.349 . S
C1356 C1358 1.327 . S
C1356 H1381 0.950 . S
C1357 C1356 1.349 . S
C1357 C1373 1.349 . S
C1358 C1356 1.327 . S
C1358 C1377 1.429 . S
C1358 H1382 0.950 . S
C1359 C1376 1.574 . S
C1359 C1378 1.368 . S
C1359 H1383 0.949 . S
H1360 C1364 0.949 . S
C1361 C1362 1.349 . S
C1361 C1363 1.327 . S
C1361 H1384 0.950 . S
C1362 C1361 1.349 . S
C1362 C1374 1.349 . S
C1363 C1361 1.327 . S
C1363 C1379 1.429 . S
C1363 H1385 0.950 . S
C1364 H1360 0.949 . S
C1364 C1372 1.574 . S
C1364 C1380 1.368 . S
H1365 C1373 0.950 . S
H1366 C1371 0.950 . S
H1367 C1372 0.949 . S
H1368 C1374 0.950 . S
H1369 C1375 0.950 . S
H1370 C1376 0.949 . S
C1371 H1366 0.950 . S
C1371 C1373 1.327 . S
C1371 C1377 1.429 . S
C1372 C1364 1.574 . S
C1372 H1367 0.949 . S
C1372 C1378 1.368 . S
C1373 C1357 1.349 . S
C1373 H1365 0.950 . S
C1373 C1371 1.327 . S
C1374 C1362 1.349 . S
C1374 H1368 0.950 . S
C1374 C1375 1.327 . S
C1375 H1369 0.950 . S
C1375 C1374 1.327 . S
C1375 C1379 1.429 . S
C1376 C1359 1.574 . S
C1376 H1370 0.949 . S
C1376 C1380 1.368 . S
C1377 C1358 1.429 . S
C1377 C1371 1.429 . S
C1377 C1378 1.523 . S
C1378 C1359 1.368 . S
C1378 C1372 1.368 . S
C1378 C1377 1.523 . S
C1379 C1363 1.429 . S
C1379 C1375 1.429 . S
C1379 C1380 1.523 . S
C1380 C1364 1.368 . S
C1380 C1376 1.368 . S
C1380 C1379 1.523 . S
H1381 C1356 0.950 . S
H1382 C1358 0.950 . S
H1383 C1359 0.949 . S
H1384 C1361 0.950 . S
H1385 C1363 0.950 . S
C1386 C1387 1.349 . S
C1386 C1388 1.327 . S
C1386 H1411 0.950 . S
C1387 C1386 1.349 . S
C1387 C1403 1.349 . S
C1388 C1386 1.327 . S
C1388 C1407 1.429 1_545 S
C1388 H1412 0.950 . S
C1389 C1406 1.574 . S
C1389 C1408 1.368 . S
C1389 H1413 0.949 . S
H1390 C1394 0.949 . S
C1391 C1392 1.349 . S
C1391 C1393 1.327 . S
C1391 H1414 0.950 . S
C1392 C1391 1.349 . S
C1392 C1404 1.349 . S
C1393 C1391 1.327 . S
C1393 C1409 1.429 . S
C1393 H1415 0.950 . S
C1394 H1390 0.949 . S
C1394 C1402 1.574 . S
C1394 C1410 1.368 . S
H1395 C1403 0.950 . S
H1396 C1401 0.976 . S
H1397 C1402 0.949 . S
H1398 C1404 0.950 . S
H1399 C1405 0.950 . S
H1400 C1406 0.949 . S
C1401 H1396 0.976 . S
C1401 C1403 1.327 . S
C1401 C1407 1.429 1_545 S
C1402 C1394 1.574 . S
C1402 H1397 0.949 . S
C1402 C1408 1.368 . S
C1403 C1387 1.349 . S
C1403 H1395 0.950 . S
C1403 C1401 1.327 . S
C1404 C1392 1.349 . S
C1404 H1398 0.950 . S
C1404 C1405 1.327 . S
C1405 H1399 0.950 . S
C1405 C1404 1.327 . S
C1405 C1409 1.429 . S
C1406 C1389 1.574 . S
C1406 H1400 0.949 . S
C1406 C1410 1.368 . S
C1407 C1388 1.429 1_565 S
C1407 C1401 1.429 1_565 S
C1407 C1408 1.523 . S
C1408 C1389 1.368 . S
C1408 C1402 1.368 . S
C1408 C1407 1.523 . S
C1409 C1393 1.429 . S
C1409 C1405 1.429 . S
C1409 C1410 1.523 . S
C1410 C1394 1.368 . S
C1410 C1406 1.368 . S
C1410 C1409 1.523 . S
H1411 C1386 0.950 . S
H1412 C1388 0.950 . S
H1413 C1389 0.949 . S
H1414 C1391 0.950 . S
H1415 C1393 0.950 . S
C1416 C1417 1.349 . S
C1416 C1418 1.327 . S
C1416 H1441 0.950 . S
C1417 C1416 1.349 . S
C1417 C1433 1.349 . S
C1418 C1416 1.327 . S
C1418 C1437 1.429 . S
C1418 H1442 0.950 . S
C1419 C1436 1.574 . S
C1419 C1438 1.368 . S
C1419 H1443 0.949 . S
H1420 C1424 0.949 . S
C1421 C1422 1.349 . S
C1421 C1423 1.327 . S
C1421 H1444 0.950 . S
C1422 C1421 1.349 . S
C1422 C1434 1.349 . S
C1423 C1421 1.327 . S
C1423 C1439 1.429 . S
C1423 H1445 0.950 . S
C1424 H1420 0.949 . S
C1424 C1432 1.574 . S
C1424 C1440 1.368 . S
H1425 C1433 0.950 . S
H1426 C1431 0.950 . S
H1427 C1432 0.949 . S
H1428 C1434 0.950 . S
H1429 C1435 0.950 . S
H1430 C1436 0.949 . S
C1431 H1426 0.950 . S
C1431 C1433 1.327 . S
C1431 C1437 1.429 . S
C1432 C1424 1.574 . S
C1432 H1427 0.949 . S
C1432 C1438 1.368 . S
C1433 C1417 1.349 . S
C1433 H1425 0.950 . S
C1433 C1431 1.327 . S
C1434 C1422 1.349 . S
C1434 H1428 0.950 . S
C1434 C1435 1.327 . S
C1435 H1429 0.950 . S
C1435 C1434 1.327 . S
C1435 C1439 1.429 . S
C1436 C1419 1.574 . S
C1436 H1430 0.949 . S
C1436 C1440 1.368 . S
C1437 C1418 1.429 . S
C1437 C1431 1.429 . S
C1437 C1438 1.523 . S
C1438 C1419 1.368 . S
C1438 C1432 1.368 . S
C1438 C1437 1.523 . S
C1439 C1423 1.429 . S
C1439 C1435 1.429 . S
C1439 C1440 1.523 . S
C1440 C1424 1.368 . S
C1440 C1436 1.368 . S
C1440 C1439 1.523 . S
H1441 C1416 0.950 . S
H1442 C1418 0.950 . S
H1443 C1419 0.949 . S
H1444 C1421 0.950 . S
H1445 C1423 0.950 . S
C1446 C1447 1.349 . S
C1446 C1448 1.327 . S
C1446 H1471 0.950 . S
C1447 C1446 1.349 . S
C1447 C1463 1.349 1_455 S
C1448 C1446 1.327 . S
C1448 C1467 1.429 1_455 S
C1448 H1472 0.950 . S
C1449 C1466 1.574 . S
C1449 C1468 1.368 . S
C1449 H1473 0.949 . S
H1450 C1454 0.949 . S
C1451 C1452 1.349 . S
C1451 C1453 1.327 . S
C1451 H1474 0.950 . S
C1452 C1451 1.349 . S
C1452 C1464 1.349 . S
C1453 C1451 1.327 . S
C1453 C1469 1.429 . S
C1453 H1475 0.950 . S
C1454 H1450 0.949 . S
C1454 C1462 1.551 1_655 S
C1454 C1470 1.368 . S
H1455 C1463 0.950 . S
H1456 C1461 0.950 . S
H1457 C1462 1.006 . S
H1458 C1464 0.950 . S
H1459 C1465 0.950 . S
H1460 C1466 0.949 . S
C1461 H1456 0.950 . S
C1461 C1463 1.327 . S
C1461 C1467 1.429 . S
C1462 C1454 1.551 1_455 S
C1462 H1457 1.006 . S
C1462 C1468 1.330 1_455 S
C1463 C1447 1.349 1_655 S
C1463 H1455 0.950 . S
C1463 C1461 1.327 . S
C1464 C1452 1.349 . S
C1464 H1458 0.950 . S
C1464 C1465 1.327 . S
C1465 H1459 0.950 . S
C1465 C1464 1.327 . S
C1465 C1469 1.429 . S
C1466 C1449 1.574 . S
C1466 H1460 0.949 . S
C1466 C1470 1.368 . S
C1467 C1448 1.429 1_655 S
C1467 C1461 1.429 . S
C1467 C1468 1.523 . S
C1468 C1449 1.368 . S
C1468 C1462 1.330 1_655 S
C1468 C1467 1.523 . S
C1469 C1453 1.429 . S
C1469 C1465 1.429 . S
C1469 C1470 1.523 . S
C1470 C1454 1.368 . S
C1470 C1466 1.368 . S
C1470 C1469 1.523 . S
H1471 C1446 0.950 . S
H1472 C1448 0.950 . S
H1473 C1449 0.949 . S
H1474 C1451 0.950 . S
H1475 C1453 0.950 . S
C1476 C1477 1.349 . S
C1476 C1478 1.327 . S
C1476 H1501 0.950 . S
C1477 C1476 1.349 . S
C1477 C1493 1.349 . S
C1478 C1476 1.327 . S
C1478 C1497 1.429 . S
C1478 H1502 0.950 . S
C1479 C1496 1.574 . S
C1479 C1498 1.368 . S
C1479 H1503 0.949 . S
H1480 C1484 0.949 . S
C1481 C1482 1.349 . S
C1481 C1483 1.327 . S
C1481 H1504 0.950 . S
C1482 C1481 1.349 . S
C1482 C1494 1.349 . S
C1483 C1481 1.327 . S
C1483 C1499 1.429 . S
C1483 H1505 0.950 . S
C1484 H1480 0.949 . S
C1484 C1492 1.574 . S
C1484 C1500 1.368 . S
H1485 C1493 0.950 . S
H1486 C1491 0.950 . S
H1487 C1492 0.949 . S
H1488 C1494 0.950 . S
H1489 C1495 0.950 . S
H1490 C1496 0.949 . S
C1491 H1486 0.950 . S
C1491 C1493 1.327 . S
C1491 C1497 1.429 . S
C1492 C1484 1.574 . S
C1492 H1487 0.949 . S
C1492 C1498 1.368 . S
C1493 C1477 1.349 . S
C1493 H1485 0.950 . S
C1493 C1491 1.327 . S
C1494 C1482 1.349 . S
C1494 H1488 0.950 . S
C1494 C1495 1.327 . S
C1495 H1489 0.950 . S
C1495 C1494 1.327 . S
C1495 C1499 1.429 . S
C1496 C1479 1.574 . S
C1496 H1490 0.949 . S
C1496 C1500 1.368 . S
C1497 C1478 1.429 . S
C1497 C1491 1.429 . S
C1497 C1498 1.523 . S
C1498 C1479 1.368 . S
C1498 C1492 1.368 . S
C1498 C1497 1.523 . S
C1499 C1483 1.429 . S
C1499 C1495 1.429 . S
C1499 C1500 1.523 . S
C1500 C1484 1.368 . S
C1500 C1496 1.368 . S
C1500 C1499 1.523 . S
H1501 C1476 0.950 . S
H1502 C1478 0.950 . S
H1503 C1479 0.949 . S
H1504 C1481 0.950 . S
H1505 C1483 0.950 . S
C1506 C1507 1.349 . S
C1506 C1508 1.327 . S
C1506 H1531 0.950 . S
C1507 C1506 1.349 . S
C1507 C1523 1.349 . S
C1508 C1506 1.327 . S
C1508 C1527 1.429 . S
C1508 H1532 0.950 . S
C1509 C1526 1.574 . S
C1509 C1528 1.368 . S
C1509 H1533 0.949 . S
H1510 C1514 0.949 . S
C1511 C1512 1.349 . S
C1511 C1513 1.327 . S
C1511 H1534 0.950 . S
C1512 C1511 1.349 . S
C1512 C1524 1.349 . S
C1513 C1511 1.327 . S
C1513 C1529 1.429 . S
C1513 H1535 0.950 . S
C1514 H1510 0.949 . S
C1514 C1522 1.574 . S
C1514 C1530 1.368 . S
H1515 C1523 0.950 . S
H1516 C1521 0.950 . S
H1517 C1522 0.949 . S
H1518 C1524 0.950 . S
H1519 C1525 0.950 . S
H1520 C1526 0.949 . S
C1521 H1516 0.950 . S
C1521 C1523 1.327 . S
C1521 C1527 1.429 . S
C1522 C1514 1.574 . S
C1522 H1517 0.949 . S
C1522 C1528 1.368 . S
C1523 C1507 1.349 . S
C1523 H1515 0.950 . S
C1523 C1521 1.327 . S
C1524 C1512 1.349 . S
C1524 H1518 0.950 . S
C1524 C1525 1.327 . S
C1525 H1519 0.950 . S
C1525 C1524 1.327 . S
C1525 C1529 1.429 . S
C1526 C1509 1.574 . S
C1526 H1520 0.949 . S
C1526 C1530 1.368 . S
C1527 C1508 1.429 . S
C1527 C1521 1.429 . S
C1527 C1528 1.523 . S
C1528 C1509 1.368 . S
C1528 C1522 1.368 . S
C1528 C1527 1.523 . S
C1529 C1513 1.429 . S
C1529 C1525 1.429 . S
C1529 C1530 1.523 . S
C1530 C1514 1.368 . S
C1530 C1526 1.368 . S
C1530 C1529 1.523 . S
H1531 C1506 0.950 . S
H1532 C1508 0.950 . S
H1533 C1509 0.949 . S
H1534 C1511 0.950 . S
H1535 C1513 0.950 . S
C1536 C1537 1.349 . S
C1536 C1538 1.327 . S
C1536 H1561 0.950 . S
C1537 C1536 1.349 . S
C1537 C1553 1.349 . S
C1538 C1536 1.327 . S
C1538 C1557 1.429 . S
C1538 H1562 0.950 . S
C1539 C1556 1.574 . S
C1539 C1558 1.368 . S
C1539 H1563 0.949 . S
H1540 C1544 0.949 . S
C1541 C1542 1.349 . S
C1541 C1543 1.327 . S
C1541 H1564 0.950 . S
C1542 C1541 1.349 . S
C1542 C1554 1.349 . S
C1543 C1541 1.327 . S
C1543 C1559 1.429 . S
C1543 H1565 0.950 . S
C1544 H1540 0.949 . S
C1544 C1552 1.574 . S
C1544 C1560 1.368 . S
H1545 C1553 0.950 . S
H1546 C1551 0.950 . S
H1547 C1552 0.949 . S
H1548 C1554 0.950 . S
H1549 C1555 0.950 . S
H1550 C1556 0.949 . S
C1551 H1546 0.950 . S
C1551 C1553 1.327 . S
C1551 C1557 1.429 . S
C1552 C1544 1.574 . S
C1552 H1547 0.949 . S
C1552 C1558 1.368 . S
C1553 C1537 1.349 . S
C1553 H1545 0.950 . S
C1553 C1551 1.327 . S
C1554 C1542 1.349 . S
C1554 H1548 0.950 . S
C1554 C1555 1.327 . S
C1555 H1549 0.950 . S
C1555 C1554 1.327 . S
C1555 C1559 1.429 . S
C1556 C1539 1.574 . S
C1556 H1550 0.949 . S
C1556 C1560 1.368 . S
C1557 C1538 1.429 . S
C1557 C1551 1.429 . S
C1557 C1558 1.523 . S
C1558 C1539 1.368 . S
C1558 C1552 1.368 . S
C1558 C1557 1.523 . S
C1559 C1543 1.429 . S
C1559 C1555 1.429 . S
C1559 C1560 1.523 . S
C1560 C1544 1.368 . S
C1560 C1556 1.368 . S
C1560 C1559 1.523 . S
H1561 C1536 0.950 . S
H1562 C1538 0.950 . S
H1563 C1539 0.949 . S
H1564 C1541 0.950 . S
H1565 C1543 0.950 . S
C1566 C1567 1.349 . S
C1566 C1568 1.327 . S
C1566 H1591 0.950 . S
C1567 C1566 1.349 . S
C1567 C1583 1.349 . S
C1568 C1566 1.327 . S
C1568 C1587 1.429 . S
C1568 H1592 0.950 . S
C1569 C1586 1.574 . S
C1569 C1588 1.368 . S
C1569 H1593 0.949 . S
H1570 C1574 0.949 . S
C1571 C1572 1.349 . S
C1571 C1573 1.327 . S
C1571 H1594 0.950 . S
C1572 C1571 1.349 . S
C1572 C1584 1.349 . S
C1573 C1571 1.327 . S
C1573 C1589 1.429 . S
C1573 H1595 0.950 . S
C1574 H1570 0.949 . S
C1574 C1582 1.574 . S
C1574 C1590 1.368 . S
H1575 C1583 0.950 . S
H1576 C1581 0.950 . S
H1577 C1582 0.949 . S
H1578 C1584 0.950 . S
H1579 C1585 0.950 . S
H1580 C1586 0.949 . S
C1581 H1576 0.950 . S
C1581 C1583 1.327 . S
C1581 C1587 1.429 . S
C1582 C1574 1.574 . S
C1582 H1577 0.949 . S
C1582 C1588 1.368 . S
C1583 C1567 1.349 . S
C1583 H1575 0.950 . S
C1583 C1581 1.327 . S
C1584 C1572 1.349 . S
C1584 H1578 0.950 . S
C1584 C1585 1.327 . S
C1585 H1579 0.950 . S
C1585 C1584 1.327 . S
C1585 C1589 1.429 . S
C1586 C1569 1.574 . S
C1586 H1580 0.949 . S
C1586 C1590 1.368 . S
C1587 C1568 1.429 . S
C1587 C1581 1.429 . S
C1587 C1588 1.523 . S
C1588 C1569 1.368 . S
C1588 C1582 1.368 . S
C1588 C1587 1.523 . S
C1589 C1573 1.429 . S
C1589 C1585 1.429 . S
C1589 C1590 1.523 . S
C1590 C1574 1.368 . S
C1590 C1586 1.368 . S
C1590 C1589 1.523 . S
H1591 C1566 0.950 . S
H1592 C1568 0.950 . S
H1593 C1569 0.949 . S
H1594 C1571 0.950 . S
H1595 C1573 0.950 . S
C1596 C1597 1.349 . S
C1596 C1598 1.329 1_556 S
C1596 H1621 0.950 . S
C1597 C1596 1.349 . S
C1597 C1613 1.349 . S
C1598 C1596 1.329 1_554 S
C1598 C1617 1.428 1_655 S
C1598 H1622 0.948 . S
C1599 C1616 1.574 . S
C1599 C1618 1.368 . S
C1599 H1623 0.949 . S
H1600 C1604 0.949 . S
C1601 C1602 1.349 . S
C1601 C1603 1.327 . S
C1601 H1624 0.950 . S
C1602 C1601 1.349 . S
C1602 C1614 1.349 . S
C1603 C1601 1.327 . S
C1603 C1619 1.429 . S
C1603 H1625 0.950 . S
C1604 H1600 0.949 . S
C1604 C1612 1.574 . S
C1604 C1620 1.368 . S
H1605 C1613 0.950 . S
H1606 C1611 0.905 1_455 S
H1607 C1612 0.949 . S
H1608 C1614 0.950 . S
H1609 C1615 0.950 . S
H1610 C1616 0.949 . S
C1611 H1606 0.905 1_655 S
C1611 C1613 1.382 . S
C1611 C1617 1.420 1_656 S
C1612 C1604 1.574 . S
C1612 H1607 0.949 . S
C1612 C1618 1.368 . S
C1613 C1597 1.349 . S
C1613 H1605 0.950 . S
C1613 C1611 1.382 . S
C1614 C1602 1.349 . S
C1614 H1608 0.950 . S
C1614 C1615 1.327 . S
C1615 H1609 0.950 . S
C1615 C1614 1.327 . S
C1615 C1619 1.429 . S
C1616 C1599 1.574 . S
C1616 H1610 0.949 . S
C1616 C1620 1.368 . S
C1617 C1598 1.428 1_455 S
C1617 C1611 1.420 1_454 S
C1617 C1618 1.523 . S
C1618 C1599 1.368 . S
C1618 C1612 1.368 . S
C1618 C1617 1.523 . S
C1619 C1603 1.429 . S
C1619 C1615 1.429 . S
C1619 C1620 1.523 . S
C1620 C1604 1.368 . S
C1620 C1616 1.368 . S
C1620 C1619 1.523 . S
H1621 C1596 0.950 . S
H1622 C1598 0.948 . S
H1623 C1599 0.949 . S
H1624 C1601 0.950 . S
H1625 C1603 0.950 . S
C1626 C1627 1.349 . S
C1626 C1628 1.327 . S
C1626 H1651 0.950 . S
C1627 C1626 1.349 . S
C1627 C1643 1.349 . S
C1628 C1626 1.327 . S
C1628 C1647 1.429 . S
C1628 H1652 0.950 . S
C1629 C1646 1.574 . S
C1629 C1648 1.368 . S
C1629 H1653 0.949 . S
H1630 C1634 0.949 . S
C1631 C1632 1.349 . S
C1631 C1633 1.327 . S
C1631 H1654 0.950 . S
C1632 C1631 1.349 . S
C1632 C1644 1.349 . S
C1633 C1631 1.327 . S
C1633 C1649 1.429 . S
C1633 H1655 0.950 . S
C1634 H1630 0.949 . S
C1634 C1642 1.574 . S
C1634 C1650 1.368 . S
H1635 C1643 0.950 . S
H1636 C1641 0.950 . S
H1637 C1642 0.949 . S
H1638 C1644 0.950 . S
H1639 C1645 0.950 . S
H1640 C1646 0.949 . S
C1641 H1636 0.950 . S
C1641 C1643 1.327 . S
C1641 C1647 1.429 . S
C1642 C1634 1.574 . S
C1642 H1637 0.949 . S
C1642 C1648 1.368 . S
C1643 C1627 1.349 . S
C1643 H1635 0.950 . S
C1643 C1641 1.327 . S
C1644 C1632 1.349 . S
C1644 H1638 0.950 . S
C1644 C1645 1.327 . S
C1645 H1639 0.950 . S
C1645 C1644 1.327 . S
C1645 C1649 1.429 . S
C1646 C1629 1.574 . S
C1646 H1640 0.949 . S
C1646 C1650 1.368 . S
C1647 C1628 1.429 . S
C1647 C1641 1.429 . S
C1647 C1648 1.523 . S
C1648 C1629 1.368 . S
C1648 C1642 1.368 . S
C1648 C1647 1.523 . S
C1649 C1633 1.429 . S
C1649 C1645 1.429 . S
C1649 C1650 1.523 . S
C1650 C1634 1.368 . S
C1650 C1646 1.368 . S
C1650 C1649 1.523 . S
H1651 C1626 0.950 . S
H1652 C1628 0.950 . S
H1653 C1629 0.949 . S
H1654 C1631 0.950 . S
H1655 C1633 0.950 . S
C1656 C1657 1.349 . S
C1656 C1658 1.327 . S
C1656 H1681 0.950 . S
C1657 C1656 1.349 . S
C1657 C1673 1.349 . S
C1658 C1656 1.327 . S
C1658 C1677 1.429 . S
C1658 H1682 0.950 . S
C1659 C1676 1.574 . S
C1659 C1678 1.368 . S
C1659 H1683 0.949 . S
H1660 C1664 0.949 . S
C1661 C1662 1.349 . S
C1661 C1663 1.327 . S
C1661 H1684 0.950 . S
C1662 C1661 1.349 . S
C1662 C1674 1.349 . S
C1663 C1661 1.327 . S
C1663 C1679 1.429 . S
C1663 H1685 0.950 . S
C1664 H1660 0.949 . S
C1664 C1672 1.574 . S
C1664 C1680 1.368 . S
H1665 C1673 0.950 . S
H1666 C1671 0.950 . S
H1667 C1672 0.949 . S
H1668 C1674 0.950 . S
H1669 C1675 0.950 . S
H1670 C1676 0.949 . S
C1671 H1666 0.950 . S
C1671 C1673 1.327 . S
C1671 C1677 1.429 . S
C1672 C1664 1.574 . S
C1672 H1667 0.949 . S
C1672 C1678 1.368 . S
C1673 C1657 1.349 . S
C1673 H1665 0.950 . S
C1673 C1671 1.327 . S
C1674 C1662 1.349 . S
C1674 H1668 0.950 . S
C1674 C1675 1.327 . S
C1675 H1669 0.950 . S
C1675 C1674 1.327 . S
C1675 C1679 1.429 . S
C1676 C1659 1.574 . S
C1676 H1670 0.949 . S
C1676 C1680 1.368 . S
C1677 C1658 1.429 . S
C1677 C1671 1.429 . S
C1677 C1678 1.523 . S
C1678 C1659 1.368 . S
C1678 C1672 1.368 . S
C1678 C1677 1.523 . S
C1679 C1663 1.429 . S
C1679 C1675 1.429 . S
C1679 C1680 1.523 . S
C1680 C1664 1.368 . S
C1680 C1676 1.368 . S
C1680 C1679 1.523 . S
H1681 C1656 0.950 . S
H1682 C1658 0.950 . S
H1683 C1659 0.949 . S
H1684 C1661 0.950 . S
H1685 C1663 0.950 . S
C1686 C1687 1.349 . S
C1686 C1688 1.327 . S
C1686 H1711 0.950 . S
C1687 C1686 1.349 . S
C1687 C1703 1.349 . S
C1688 C1686 1.327 . S
C1688 C1707 1.429 . S
C1688 H1712 0.950 . S
C1689 C1706 1.574 . S
C1689 C1708 1.368 . S
C1689 H1713 0.949 . S
H1690 C1694 0.949 . S
C1691 C1692 1.349 . S
C1691 C1693 1.327 . S
C1691 H1714 0.950 . S
C1692 C1691 1.349 . S
C1692 C1704 1.349 . S
C1693 C1691 1.327 . S
C1693 C1709 1.429 . S
C1693 H1715 0.950 . S
C1694 H1690 0.949 . S
C1694 C1702 1.574 . S
C1694 C1710 1.368 . S
H1695 C1703 0.950 . S
H1696 C1701 0.950 . S
H1697 C1702 0.949 . S
H1698 C1704 0.950 . S
H1699 C1705 0.950 . S
H1700 C1706 0.949 . S
C1701 H1696 0.950 . S
C1701 C1703 1.327 . S
C1701 C1707 1.429 . S
C1702 C1694 1.574 . S
C1702 H1697 0.949 . S
C1702 C1708 1.368 . S
C1703 C1687 1.349 . S
C1703 H1695 0.950 . S
C1703 C1701 1.327 . S
C1704 C1692 1.349 . S
C1704 H1698 0.950 . S
C1704 C1705 1.327 . S
C1705 H1699 0.950 . S
C1705 C1704 1.327 . S
C1705 C1709 1.429 . S
C1706 C1689 1.574 . S
C1706 H1700 0.949 . S
C1706 C1710 1.368 . S
C1707 C1688 1.429 . S
C1707 C1701 1.429 . S
C1707 C1708 1.523 . S
C1708 C1689 1.368 . S
C1708 C1702 1.368 . S
C1708 C1707 1.523 . S
C1709 C1693 1.429 . S
C1709 C1705 1.429 . S
C1709 C1710 1.523 . S
C1710 C1694 1.368 . S
C1710 C1706 1.368 . S
C1710 C1709 1.523 . S
H1711 C1686 0.950 . S
H1712 C1688 0.950 . S
H1713 C1689 0.949 . S
H1714 C1691 0.950 . S
H1715 C1693 0.950 . S
C1716 C1717 1.349 . S
C1716 C1718 1.327 . S
C1716 H1741 0.950 . S
C1717 C1716 1.349 . S
C1717 C1733 1.328 1_554 S
C1718 C1716 1.327 . S
C1718 C1737 1.429 1_554 S
C1718 H1742 0.950 . S
C1719 C1736 1.574 . S
C1719 C1738 1.368 . S
C1719 H1743 0.949 . S
H1720 C1724 0.949 . S
C1721 C1722 1.349 . S
C1721 C1723 1.327 . S
C1721 H1744 0.950 . S
C1722 C1721 1.349 . S
C1722 C1734 1.349 . S
C1723 C1721 1.327 . S
C1723 C1739 1.429 . S
C1723 H1745 0.950 . S
C1724 H1720 0.949 . S
C1724 C1732 1.574 . S
C1724 C1740 1.368 . S
H1725 C1733 0.959 . S
H1726 C1731 0.950 . S
H1727 C1732 0.949 1_554 S
H1728 C1734 0.950 . S
H1729 C1735 0.950 . S
H1730 C1736 0.949 . S
C1731 H1726 0.950 . S
C1731 C1733 1.340 . S
C1731 C1737 1.429 . S
C1732 C1724 1.574 . S
C1732 H1727 0.949 1_556 S
C1732 C1738 1.368 . S
C1733 C1717 1.328 1_556 S
C1733 H1725 0.959 . S
C1733 C1731 1.340 . S
C1734 C1722 1.349 . S
C1734 H1728 0.950 . S
C1734 C1735 1.327 . S
C1735 H1729 0.950 . S
C1735 C1734 1.327 . S
C1735 C1739 1.429 . S
C1736 C1719 1.574 . S
C1736 H1730 0.949 . S
C1736 C1740 1.368 . S
C1737 C1718 1.429 1_556 S
C1737 C1731 1.429 . S
C1737 C1738 1.523 . S
C1738 C1719 1.368 . S
C1738 C1732 1.368 . S
C1738 C1737 1.523 . S
C1739 C1723 1.429 . S
C1739 C1735 1.429 . S
C1739 C1740 1.523 . S
C1740 C1724 1.368 . S
C1740 C1736 1.368 . S
C1740 C1739 1.523 . S
H1741 C1716 0.950 . S
H1742 C1718 0.950 . S
H1743 C1719 0.949 . S
H1744 C1721 0.950 . S
H1745 C1723 0.950 . S
C1746 C1747 1.349 . S
C1746 C1748 1.327 . S
C1746 H1771 0.950 . S
C1747 C1746 1.349 . S
C1747 C1763 1.349 . S
C1748 C1746 1.327 . S
C1748 C1767 1.429 . S
C1748 H1772 0.950 . S
C1749 C1766 1.574 . S
C1749 C1768 1.368 . S
C1749 H1773 0.949 . S
H1750 C1754 0.949 . S
C1751 C1752 1.349 . S
C1751 C1753 1.327 . S
C1751 H1774 0.950 . S
C1752 C1751 1.349 . S
C1752 C1764 1.349 . S
C1753 C1751 1.327 . S
C1753 C1769 1.429 1_455 S
C1753 H1775 0.949 . S
C1754 H1750 0.949 . S
C1754 C1762 1.574 . S
C1754 C1770 1.368 . S
H1755 C1763 0.950 . S
H1756 C1761 0.950 . S
H1757 C1762 0.949 . S
H1758 C1764 0.950 . S
H1759 C1765 0.950 . S
H1760 C1766 0.949 . S
C1761 H1756 0.950 . S
C1761 C1763 1.327 . S
C1761 C1767 1.429 . S
C1762 C1754 1.574 . S
C1762 H1757 0.949 . S
C1762 C1768 1.368 . S
C1763 C1747 1.349 . S
C1763 H1755 0.950 . S
C1763 C1761 1.327 . S
C1764 C1752 1.349 . S
C1764 H1758 0.950 . S
C1764 C1765 1.327 . S
C1765 H1759 0.950 . S
C1765 C1764 1.327 . S
C1765 C1769 1.429 1_455 S
C1766 C1749 1.574 . S
C1766 H1760 0.949 . S
C1766 C1770 1.368 . S
C1767 C1748 1.429 . S
C1767 C1761 1.429 . S
C1767 C1768 1.523 . S
C1768 C1749 1.368 . S
C1768 C1762 1.368 . S
C1768 C1767 1.523 . S
C1769 C1753 1.429 1_655 S
C1769 C1765 1.429 1_655 S
C1769 C1770 1.523 . S
C1770 C1754 1.368 . S
C1770 C1766 1.368 . S
C1770 C1769 1.523 . S
H1771 C1746 0.950 . S
H1772 C1748 0.950 . S
H1773 C1749 0.949 . S
H1774 C1751 0.950 . S
H1775 C1753 0.949 . S
C337 C132 1.114 . S
C342 C6 1.114 . S
C367 C20 1.114 . S
C372 C146 1.114 . S
C397 C34 1.114 . S
C402 C160 1.114 . S
C427 C48 1.114 . S
C432 C118 1.114 . S
C457 C62 1.113 . S
C462 C216 1.113 . S
C487 C174 1.114 . S
C492 C76 1.114 . S
C517 C90 1.114 . S
C522 C188 1.114 . S
C547 C202 1.113 . S
C552 C104 1.113 . S
C577 C230 1.114 . S
C582 C258 1.114 . S
C607 C314 1.114 . S
C612 C244 1.114 . S
C637 C272 1.114 . S
C642 C328 1.114 . S
C667 C300 1.113 . S
C672 C286 1.113 . S
C697 C287 1.870 . S
C702 C7 1.870 . S
C727 C21 1.870 . S
C732 C245 1.870 . S
C757 C35 1.870 . S
C762 C259 1.870 . S
C787 C49 1.870 . S
C792 C273 1.870 . S
C817 C63 1.870 . S
C822 C329 1.870 . S
C847 C301 1.870 . S
C852 C77 1.870 . S
C877 C315 1.870 . S
C882 C91 1.870 . S
C907 C231 1.870 . S
C912 C105 1.870 . S
C937 C217 1.870 . S
C942 C119 1.870 . S
C967 C133 1.870 . S
C972 C175 1.870 . S
C997 C189 1.870 . S
C1002 C147 1.870 . S
C1027 C203 1.870 . S
C1032 C161 1.870 . S
C1057 C9 0.983 . S
C1062 C232 1.023 . S
C1087 C330 1.023 . S
C1092 C23 0.983 . S
C1117 C302 1.023 . S
C1122 C37 0.983 . S
C1147 C51 0.983 . S
C1152 C316 1.023 . S
C1177 C65 0.983 . S
C1182 C246 1.023 . S
C1207 C260 1.023 . S
C1212 C79 0.984 . S
C1237 C274 1.023 . S
C1242 C93 0.983 . S
C1267 C288 1.023 . S
C1272 C107 0.983 . S
C1297 C8 1.023 . S
C1302 C121 0.983 . S
C1327 C22 1.023 . S
C1332 C135 0.983 . S
C1357 C36 1.023 . S
C1362 C149 0.983 . S
C1387 C50 1.023 . S
C1392 C163 0.984 . S
C1417 C64 1.023 . S
C1422 C177 0.983 . S
C1447 C78 1.023 . S
C1452 C191 0.983 . S
C1477 C205 0.983 . S
C1482 C92 1.023 . S
C1507 C106 1.023 . S
C1512 C219 0.983 . S
C1537 C120 1.023 . S
C1542 C233 0.983 . S
C1567 C247 0.983 . S
C1572 C176 1.023 . S
C1597 C190 1.023 . S
C1602 C261 0.983 . S
C1627 C275 0.983 . S
C1632 C204 1.023 . S
C1657 C289 0.983 . S
C1662 C218 1.023 . S
C1687 C303 0.983 . S
C1692 C148 1.023 . S
C1717 C162 1.023 . S
C1722 C317 0.983 . S
C1747 C331 0.984 . S
C1752 C134 1.023 . S
