# Generated by pormake.
# Topology mdf, (4)-cn, num edge types: 1
# Building blocks:
#     Node 0, Type 0, BuildingBlock: CEKHIL_clean_sbu_0, # of connection points: 4
#     Node 1, Type 0, BuildingBlock: CEKHIL_clean_sbu_0, # of connection points: 4
#     Node 2, Type 0, BuildingBlock: CEKHIL_clean_sbu_0, # of connection points: 4
#     Node 3, Type 0, BuildingBlock: CEKHIL_clean_sbu_0, # of connection points: 4
#     Node 4, Type 0, BuildingBlock: CEKHIL_clean_sbu_0, # of connection points: 4
#     Node 5, Type 0, BuildingBlock: CEKHIL_clean_sbu_0, # of connection points: 4
#     Node 6, Type 0, BuildingBlock: CEKHIL_clean_sbu_0, # of connection points: 4
#     Node 7, Type 0, BuildingBlock: CEKHIL_clean_sbu_0, # of connection points: 4
#     Edge 8, Type (0, 0), BuildingBlock: XUDNAN_clean_linker_2, # of connection points: 2
#     Edge 9, Type (0, 0), BuildingBlock: XUDNAN_clean_linker_2, # of connection points: 2
#     Edge 10, Type (0, 0), BuildingBlock: XUDNAN_clean_linker_2, # of connection points: 2
#     Edge 11, Type (0, 0), BuildingBlock: XUDNAN_clean_linker_2, # of connection points: 2
#     Edge 12, Type (0, 0), BuildingBlock: XUDNAN_clean_linker_2, # of connection points: 2
#     Edge 13, Type (0, 0), BuildingBlock: XUDNAN_clean_linker_2, # of connection points: 2
#     Edge 14, Type (0, 0), BuildingBlock: XUDNAN_clean_linker_2, # of connection points: 2
#     Edge 15, Type (0, 0), BuildingBlock: XUDNAN_clean_linker_2, # of connection points: 2
#     Edge 16, Type (0, 0), BuildingBlock: XUDNAN_clean_linker_2, # of connection points: 2
#     Edge 17, Type (0, 0), BuildingBlock: XUDNAN_clean_linker_2, # of connection points: 2
#     Edge 18, Type (0, 0), BuildingBlock: XUDNAN_clean_linker_2, # of connection points: 2
#     Edge 19, Type (0, 0), BuildingBlock: XUDNAN_clean_linker_2, # of connection points: 2
#     Edge 20, Type (0, 0), BuildingBlock: XUDNAN_clean_linker_2, # of connection points: 2
#     Edge 21, Type (0, 0), BuildingBlock: XUDNAN_clean_linker_2, # of connection points: 2
#     Edge 22, Type (0, 0), BuildingBlock: XUDNAN_clean_linker_2, # of connection points: 2
#     Edge 23, Type (0, 0), BuildingBlock: XUDNAN_clean_linker_2, # of connection points: 2
# Relax obj value: 0.019
# Max RMSD: 0.044
# Mean RMSD: 0.044
data_MOF--net-mdf--node1-CEKHIL_clean_sbu_0--edge1-XUDNAN_clean_linker_2
_symmetry_space_group_name_H-M    P1
_symmetry_Int_Tables_number       1
_symmetry_cell_setting            triclinic
loop_
_symmetry_equiv_pos_as_xyz
'x, y, z'
_cell_length_a     37.788713
_cell_length_b     37.686163
_cell_length_c     11.353184
_cell_angle_alpha  89.963838
_cell_angle_beta   90.032051
_cell_angle_gamma 91.834009
loop_
_atom_site_label
_atom_site_type_symbol
_atom_site_fract_x
_atom_site_fract_y
_atom_site_fract_z
_atom_type_partial_charge
Co0 Co 0.25611 0.54179 0.38616 0.0
O1 O 0.21893 0.57515 0.38251 0.0
O2 O 0.24175 0.55487 0.54683 0.0
C3 C 0.28963 0.56996 0.24783 0.0
O4 O 0.29662 0.50736 0.41772 0.0
Co5 Co 0.27034 0.49991 0.15401 0.0
O6 O 0.31467 0.4894 0.23835 0.0
C7 C 0.20705 0.48219 0.29637 0.0
C8 C 0.21897 0.57529 0.49633 0.0
C9 C 0.31884 0.49175 0.34964 0.0
O10 O 0.21945 0.50145 0.38171 0.0
O11 O 0.22189 0.48075 0.19522 0.0
O12 O 0.29155 0.58015 0.3571 0.0
O13 O 0.26577 0.54575 0.22595 0.0
Co14 Co 0.47193 0.75963 0.63664 0.0
O15 O 0.43704 0.79575 0.64558 0.0
O16 O 0.46822 0.78481 0.48626 0.0
C17 C 0.43823 0.71641 0.72205 0.0
O18 O 0.50946 0.72297 0.59615 0.0
Co19 Co 0.50142 0.72818 0.86865 0.0
O20 O 0.52716 0.69609 0.76288 0.0
C21 C 0.52139 0.80112 0.79965 0.0
C22 C 0.444 0.80342 0.5367 0.0
C23 C 0.52779 0.69966 0.65123 0.0
O24 O 0.50918 0.79499 0.69541 0.0
O25 O 0.5173 0.77921 0.88507 0.0
O26 O 0.43498 0.7231 0.61032 0.0
O27 O 0.45917 0.73789 0.77941 0.0
Co28 Co 0.25946 0.97377 0.89172 0.0
O29 O 0.29465 0.93917 0.92758 0.0
O30 O 0.27702 0.97984 0.05218 0.0
C31 C 0.22005 0.93505 0.80843 0.0
O32 O 0.22232 0.01285 0.88614 0.0
Co33 Co 0.2396 0.98729 0.62911 0.0
O34 O 0.20125 0.01474 0.70069 0.0
C35 C 0.30786 0.01471 0.72167 0.0
C36 C 0.29692 0.9529 0.03197 0.0
C37 C 0.20049 0.02451 0.80828 0.0
O38 O 0.29768 1.00744 0.8277 0.0
O39 O 0.29 1.00542 0.63029 0.0
O40 O 0.22133 0.93844 0.92231 0.0
O41 O 0.24444 0.95235 0.75133 0.0
Co42 Co 0.04113 0.75829 0.13578 0.0
O43 O 0.07626 0.72196 0.11502 0.0
O44 O 0.04807 0.74843 0.97086 0.0
C45 C 0.07137 0.7907 0.2721 0.0
O46 O 1.00532 0.79779 0.11706 0.0
Co47 Co 1.00253 0.77314 0.37113 0.0
O48 O 0.98107 0.8137 0.28906 0.0
C49 C 0.98876 0.70637 0.24181 0.0
C50 C 0.07115 0.72541 0.00238 0.0
C51 C 0.98515 0.81773 0.17847 0.0
O52 O 1.00241 0.72006 0.14756 0.0
O53 O 0.9901 0.7218 0.34213 0.0
O54 O 0.07895 0.79451 0.16084 0.0
O55 O 0.04798 0.76622 0.29662 0.0
Co56 Co 0.76101 0.04258 0.8796 0.0
O57 O 0.72554 0.07771 0.87262 0.0
O58 O 0.74783 0.05818 0.03883 0.0
C59 C 0.79518 0.06778 0.73678 0.0
O60 O 0.8 1.00672 0.9146 0.0
Co61 Co 0.77238 0.99741 0.65271 0.0
O62 O 0.81629 0.98556 0.73731 0.0
C63 C 0.70906 0.98425 0.79935 0.0
C64 C 0.72622 0.07939 0.98626 0.0
C65 C 0.8211 0.98915 0.84799 0.0
O66 O 0.72267 1.00388 0.88168 0.0
O67 O 0.72331 0.98103 0.69779 0.0
O68 O 0.79792 0.07899 0.84476 0.0
O69 O 0.77028 0.04433 0.71851 0.0
Co70 Co 0.97386 0.25399 0.10303 0.0
O71 O 0.93799 0.28984 0.09227 0.0
O72 O 0.97431 0.2758 0.94871 0.0
C73 C 0.93897 0.21195 0.1897 0.0
O74 O 0.01256 0.2178 0.07546 0.0
Co75 Co 1.00054 0.2236 0.33942 0.0
O76 O 0.02715 0.18965 0.24225 0.0
C77 C 0.021 0.29672 0.26944 0.0
C78 C 0.94834 0.29492 0.98432 0.0
C79 C 0.02977 0.19391 0.13123 0.0
O80 O 0.00949 0.29063 0.16425 0.0
O81 O 0.01654 0.2747 0.35444 0.0
O82 O 0.9378 0.21649 0.07618 0.0
O83 O 0.95904 0.23427 0.24689 0.0
Co84 Co 0.75339 0.47296 0.39449 0.0
O85 O 0.7885 0.43746 0.40272 0.0
O86 O 0.77319 0.46989 0.55478 0.0
C87 C 0.7131 0.43935 0.29515 0.0
O88 O 0.71607 0.51184 0.4116 0.0
Co89 Co 0.73603 0.49976 0.1428 0.0
O90 O 0.69543 0.51972 0.22722 0.0
C91 C 0.80269 0.52316 0.25285 0.0
C92 C 0.79324 0.4454 0.5123 0.0
C93 C 0.69354 0.52483 0.33812 0.0
O94 O 0.79171 0.50893 0.34976 0.0
O95 O 0.78541 0.52065 0.15611 0.0
O96 O 0.71541 0.43703 0.40908 0.0
O97 O 0.73756 0.45875 0.24511 0.0
Co98 Co 0.5422 0.2609 0.60843 0.0
O99 O 0.57763 0.22496 0.5889 0.0
O100 O 0.55081 0.25226 0.44341 0.0
C101 C 0.57114 0.29303 0.74781 0.0
O102 O 0.50618 0.30033 0.59042 0.0
Co103 Co 0.50211 0.27271 0.84305 0.0
O104 O 0.48162 0.31427 0.76414 0.0
C105 C 0.4855 0.2091 0.69971 0.0
C106 C 0.57389 0.22936 0.4761 0.0
C107 C 0.48586 0.3195 0.65414 0.0
O108 O 0.50354 0.22248 0.61307 0.0
O109 O 0.48455 0.22361 0.80149 0.0
O110 O 0.57944 0.2972 0.63739 0.0
O111 O 0.54813 0.26793 0.77035 0.0
H112 H 0.43081 0.7056 0.95903 0.0
H113 H 0.39806 0.66346 0.61893 0.0
H114 H 0.35967 0.61841 0.71858 0.0
H115 H 0.42978 0.62046 0.11906 0.0
H116 H 0.41256 0.6398 0.25153 0.0
H117 H 0.44017 0.66629 0.15387 0.0
H118 H 0.39115 0.71262 0.13866 0.0
H119 H 0.36337 0.68624 0.23569 0.0
H120 H 0.34729 0.6985 0.09229 0.0
H121 H 0.32216 0.58086 0.85353 0.0
H122 H 0.28706 0.55358 0.01448 0.0
H123 H 0.34309 0.62093 0.26778 0.0
C124 C 0.41605 0.68647 0.9056 0.0
C125 C 0.4175 0.6878 0.78131 0.0
C126 C 0.39738 0.66277 0.71429 0.0
C127 C 0.37559 0.63707 0.77008 0.0
C128 C 0.37429 0.63685 0.89279 0.0
C129 C 0.394 0.66084 0.95985 0.0
C130 C 0.38605 0.65637 0.08998 0.0
C131 C 0.41911 0.64505 0.15757 0.0
C132 C 0.37107 0.69045 0.14215 0.0
C133 C 0.35821 0.62659 0.08541 0.0
C134 C 0.35216 0.61548 0.97088 0.0
C135 C 0.32688 0.5891 0.94364 0.0
C136 C 0.30706 0.5738 0.03576 0.0
C137 C 0.31242 0.5851 0.15364 0.0
C138 C 0.33856 0.61164 0.17863 0.0
H139 H 0.43103 0.81206 0.29757 0.0
H140 H 0.41184 0.85872 0.63994 0.0
H141 H 0.37531 0.904 0.5472 0.0
H142 H 0.43342 0.89554 0.12727 0.0
H143 H 0.41028 0.87603 0.0032 0.0
H144 H 0.43767 0.84906 0.09467 0.0
H145 H 0.38442 0.80546 0.13095 0.0
H146 H 0.35688 0.83233 0.03994 0.0
H147 H 0.34378 0.8221 0.18909 0.0
H148 H 0.33842 0.94294 0.41943 0.0
H149 H 0.30251 0.97126 0.26559 0.0
H150 H 0.34348 0.89876 0.00593 0.0
C151 C 0.41968 0.83224 0.35246 0.0
C152 C 0.4246 0.83197 0.4761 0.0
C153 C 0.40857 0.85837 0.54514 0.0
C154 C 0.38779 0.88431 0.49322 0.0
C155 C 0.38291 0.88358 0.37167 0.0
C156 C 0.39832 0.85822 0.30193 0.0
C157 C 0.38694 0.86218 0.1743 0.0
C158 C 0.41899 0.87125 0.09521 0.0
C159 C 0.36681 0.82852 0.13108 0.0
C160 C 0.36254 0.89339 0.18378 0.0
C161 C 0.36089 0.90555 0.29826 0.0
C162 C 0.33963 0.93372 0.3293 0.0
C163 C 0.31931 0.9497 0.24127 0.0
C164 C 0.32011 0.93738 0.12353 0.0
C165 C 0.34229 0.90895 0.09494 0.0
H166 H 0.1261 0.84084 0.25514 0.0
H167 H 0.05383 0.78949 0.50418 0.0
H168 H 0.08214 0.82288 0.66659 0.0
H169 H 0.20206 0.83947 0.43841 0.0
H170 H 0.21972 0.8823 0.39273 0.0
H171 H 0.19227 0.85626 0.29364 0.0
H172 H 0.14988 0.90857 0.27209 0.0
H173 H 0.17728 0.93481 0.37107 0.0
H174 H 0.13082 0.92769 0.40205 0.0
H175 H 0.11976 0.85934 0.8041 0.0
H176 H 0.16483 0.89684 0.90721 0.0
H177 H 0.21302 0.92449 0.57104 0.0
C178 C 0.11599 0.83703 0.34363 0.0
C179 C 0.08765 0.81268 0.36674 0.0
C180 C 0.07542 0.80808 0.48401 0.0
C181 C 0.0913 0.82696 0.57714 0.0
C182 C 0.11939 0.85045 0.55188 0.0
C183 C 0.13165 0.85568 0.43816 0.0
C184 C 0.16322 0.88152 0.43634 0.0
C185 C 0.19626 0.86381 0.38742 0.0
C186 C 0.15478 0.91514 0.36624 0.0
C187 C 0.16701 0.88944 0.56676 0.0
C188 C 0.14131 0.87143 0.63173 0.0
C189 C 0.13991 0.8738 0.75422 0.0
C190 C 0.16561 0.89509 0.81204 0.0
C191 C 0.19233 0.91358 0.74722 0.0
C192 C 0.19281 0.91079 0.62299 0.0
H193 H 0.12628 0.67887 0.03466 0.0
H194 H 0.05899 0.72402 0.76668 0.0
H195 H 0.08899 0.68976 0.61462 0.0
H196 H 0.20609 0.67935 0.85562 0.0
H197 H 0.22144 0.63785 0.91205 0.0
H198 H 0.19451 0.66539 0.00294 0.0
H199 H 0.14972 0.61278 0.03277 0.0
H200 H 0.1765 0.58513 0.94175 0.0
H201 H 0.13054 0.59076 0.9059 0.0
H202 H 0.12485 0.6517 0.49125 0.0
H203 H 0.16658 0.61231 0.39771 0.0
H204 H 0.21355 0.59015 0.73857 0.0
C205 C 0.11786 0.68141 0.94397 0.0
C206 C 0.09006 0.70417 0.91297 0.0
C207 C 0.08005 0.70688 0.79314 0.0
C208 C 0.09694 0.68744 0.70582 0.0
C209 C 0.12406 0.66534 0.73891 0.0
C210 C 0.13474 0.66218 0.85463 0.0
C211 C 0.16527 0.63674 0.86397 0.0
C212 C 0.19882 0.65599 0.91146 0.0
C213 C 0.15487 0.60444 0.94065 0.0
C214 C 0.1698 0.62614 0.73539 0.0
C215 C 0.14553 0.64311 0.66578 0.0
C216 C 0.14402 0.63827 0.54465 0.0
C217 C 0.16804 0.6157 0.49233 0.0
C218 C 0.19361 0.59795 0.56021 0.0
C219 C 0.19434 0.60316 0.68409 0.0
H220 H 0.84715 0.12026 0.74768 0.0
H221 H 0.7929 0.04777 0.506 0.0
H222 H 0.82648 0.07434 0.34 0.0
H223 H 0.84689 0.19508 0.56286 0.0
H224 H 0.89014 0.212 0.6059 0.0
H225 H 0.86406 0.18534 0.7071 0.0
H226 H 0.91529 0.14167 0.72752 0.0
H227 H 0.94163 0.16829 0.62657 0.0
H228 H 0.93337 0.12175 0.59732 0.0
H229 H 0.86246 0.11197 0.19811 0.0
H230 H 0.89953 0.15702 0.09237 0.0
H231 H 0.93083 0.20404 0.42696 0.0
C232 C 0.84277 0.10962 0.6601 0.0
C233 C 0.81751 0.08191 0.63973 0.0
C234 C 0.81223 0.06893 0.5237 0.0
C235 C 0.83119 0.08383 0.42877 0.0
C236 C 0.85549 0.11153 0.45142 0.0
C237 C 0.86153 0.12415 0.56431 0.0
C238 C 0.88795 0.15519 0.56411 0.0
C239 C 0.87125 0.18889 0.61284 0.0
C240 C 0.92155 0.14617 0.63294 0.0
C241 C 0.89532 0.15843 0.43339 0.0
C242 C 0.87646 0.13295 0.3698 0.0
C243 C 0.87771 0.1318 0.24702 0.0
C244 C 0.89873 0.15749 0.18771 0.0
C245 C 0.91816 0.18383 0.25145 0.0
C246 C 0.91658 0.18398 0.37581 0.0
H247 H 0.88776 0.33327 0.0225 0.0
H248 H 0.96951 0.31413 0.76354 0.0
H249 H 0.94069 0.35429 0.62493 0.0
H250 H 0.81575 0.33465 0.82002 0.0
H251 H 0.79277 0.36968 0.89247 0.0
H252 H 0.8209 0.34142 0.97637 0.0
H253 H 0.85656 0.39664 0.05182 0.0
H254 H 0.82852 0.42507 0.9678 0.0
H255 H 0.87583 0.42765 0.94725 0.0
H256 H 0.90246 0.393 0.51011 0.0
H257 H 0.85553 0.4276 0.42049 0.0
H258 H 0.79663 0.42376 0.7486 0.0
C259 C 0.89979 0.33791 0.93711 0.0
C260 C 0.93113 0.32056 0.90429 0.0
C261 C 0.9457 0.32704 0.79116 0.0
C262 C 0.92954 0.34994 0.71172 0.0
C263 C 0.8987 0.3664 0.74621 0.0
C264 C 0.88382 0.36081 0.85595 0.0
C265 C 0.84953 0.38085 0.86745 0.0
C266 C 0.81787 0.35511 0.89041 0.0
C267 C 0.85282 0.40924 0.96435 0.0
C268 C 0.84718 0.39786 0.746 0.0
C269 C 0.87618 0.38925 0.67863 0.0
C270 C 0.8798 0.40016 0.5622 0.0
C271 C 0.85289 0.4198 0.51204 0.0
C272 C 0.82247 0.42861 0.57746 0.0
C273 C 0.81985 0.41801 0.69709 0.0
H274 H 0.70977 0.42822 0.05615 0.0
H275 H 0.65446 0.40527 0.38386 0.0
H276 H 0.6102 0.36839 0.27604 0.0
H277 H 0.63081 0.43098 0.8663 0.0
H278 H 0.65221 0.40954 0.74494 0.0
H279 H 0.67796 0.43669 0.846 0.0
H280 H 0.71855 0.38399 0.88683 0.0
H281 H 0.69286 0.35661 0.78656 0.0
H282 H 0.6992 0.34225 0.93635 0.0
H283 H 0.57489 0.33075 0.13801 0.0
H284 H 0.54935 0.29503 0.97584 0.0
H285 H 0.62683 0.34191 0.73469 0.0
C286 C 0.68798 0.41591 0.1047 0.0
C287 C 0.6854 0.41964 0.22825 0.0
C288 C 0.65688 0.40274 0.28919 0.0
C289 C 0.63158 0.38181 0.22873 0.0
C290 C 0.63519 0.3781 0.10737 0.0
C291 C 0.66253 0.39473 0.04564 0.0
C292 C 0.66121 0.38469 0.91626 0.0
C293 C 0.65518 0.41743 0.83882 0.0
C294 C 0.69496 0.36576 0.8794 0.0
C295 C 0.62912 0.35946 0.91553 0.0
C296 C 0.61452 0.35623 0.02679 0.0
C297 C 0.58576 0.33335 0.05015 0.0
C298 C 0.5715 0.3131 0.95737 0.0
C299 C 0.58594 0.31588 0.8425 0.0
C300 C 0.61499 0.33958 0.82131 0.0
H301 H 0.70948 0.08533 0.22667 0.0
H302 H 0.69123 0.13249 0.88335 0.0
H303 H 0.65177 0.17509 0.97245 0.0
H304 H 0.61974 0.09367 0.33215 0.0
H305 H 0.63214 0.10479 0.48127 0.0
H306 H 0.66037 0.07781 0.39306 0.0
H307 H 0.71297 0.12212 0.42935 0.0
H308 H 0.68493 0.14917 0.51803 0.0
H309 H 0.70831 0.16837 0.39391 0.0
H310 H 0.61309 0.21173 0.09194 0.0
H311 H 0.57757 0.24193 0.24052 0.0
H312 H 0.61905 0.17348 0.51233 0.0
C313 C 0.69733 0.10479 0.17078 0.0
C314 C 0.70357 0.1053 0.04751 0.0
C315 C 0.68692 0.13117 0.97758 0.0
C316 C 0.66438 0.15569 0.02737 0.0
C317 C 0.65841 0.15433 0.14796 0.0
C318 C 0.67431 0.12975 0.21946 0.0
C319 C 0.66238 0.13428 0.34667 0.0
C320 C 0.64248 0.10063 0.39087 0.0
C321 C 0.69404 0.14407 0.42671 0.0
C322 C 0.6375 0.16517 0.33439 0.0
C323 C 0.63571 0.17608 0.21853 0.0
C324 C 0.61429 0.20354 0.18321 0.0
C325 C 0.59409 0.22051 0.26844 0.0
C326 C 0.5954 0.21019 0.38827 0.0
C327 C 0.61753 0.18209 0.42151 0.0
H328 H 0.3265 0.45303 0.55696 0.0
H329 H 0.38284 0.49005 0.24513 0.0
H330 H 0.43267 0.45245 0.29487 0.0
H331 H 0.40765 0.44501 0.7472 0.0
H332 H 0.39025 0.40541 0.8184 0.0
H333 H 0.36054 0.43853 0.76674 0.0
H334 H 0.32665 0.39054 0.64407 0.0
H335 H 0.35651 0.35742 0.69385 0.0
H336 H 0.35044 0.36477 0.53835 0.0
H337 H 0.47267 0.40523 0.3605 0.0
H338 H 0.50385 0.35576 0.45284 0.0
H339 H 0.42415 0.3498 0.72796 0.0
C340 C 0.34986 0.45409 0.50176 0.0
C341 C 0.35076 0.47463 0.39725 0.0
C342 C 0.38149 0.47456 0.32553 0.0
C343 C 0.41 0.45323 0.35292 0.0
C344 C 0.40778 0.43214 0.45328 0.0
C345 C 0.37889 0.43279 0.52812 0.0
C346 C 0.38285 0.40601 0.62717 0.0
C347 C 0.38548 0.42487 0.74699 0.0
C348 C 0.3523 0.37803 0.62569 0.0
C349 C 0.41781 0.38972 0.59397 0.0
C350 C 0.43165 0.40523 0.49322 0.0
C351 C 0.46247 0.39328 0.44078 0.0
C352 C 0.47989 0.36498 0.49338 0.0
C353 C 0.46671 0.34902 0.59811 0.0
C354 C 0.43524 0.36177 0.6489 0.0
H355 H 0.66716 0.94873 0.63891 0.0
H356 H 0.67661 0.97137 0.01288 0.0
H357 H 0.62475 0.93141 0.05152 0.0
H358 H 0.56915 0.94108 0.63024 0.0
H359 H 0.56966 0.90561 0.52388 0.0
H360 H 0.60469 0.93922 0.52478 0.0
H361 H 0.65112 0.8904 0.54442 0.0
H362 H 0.61633 0.85673 0.54392 0.0
H363 H 0.64748 0.85905 0.6642 0.0
H364 H 0.57681 0.88358 0.05111 0.0
H365 H 0.53566 0.83282 0.01185 0.0
H366 H 0.55692 0.84269 0.63738 0.0
C367 C 0.65808 0.9458 0.72896 0.0
C368 C 0.67609 0.96313 0.82299 0.0
C369 C 0.66323 0.95848 0.93935 0.0
C370 C 0.63376 0.93588 0.96211 0.0
C371 C 0.61718 0.9186 0.86741 0.0
C372 C 0.62869 0.92363 0.753 0.0
C373 C 0.6078 0.90032 0.66753 0.0
C374 C 0.58656 0.92291 0.58154 0.0
C375 C 0.63214 0.87514 0.6012 0.0
C376 C 0.58361 0.88029 0.75221 0.0
C377 C 0.58916 0.89147 0.86697 0.0
C378 C 0.57183 0.87503 0.96148 0.0
C379 C 0.54863 0.8461 0.93827 0.0
C380 C 0.54298 0.83388 0.82144 0.0
C381 C 0.56021 0.85177 0.72733 0.0
H382 H 0.07997 0.14826 0.21707 0.0
H383 H 0.03363 0.18613 0.89185 0.0
H384 H 0.07215 0.14724 0.77842 0.0
H385 H 0.16957 0.14285 0.10484 0.0
H386 H 0.17917 0.10316 0.18589 0.0
H387 H 0.14783 0.13375 0.24343 0.0
H388 H 0.10029 0.08294 0.25641 0.0
H389 H 0.13145 0.05218 0.19886 0.0
H390 H 0.08941 0.05726 0.12667 0.0
H391 H 0.11427 0.10427 0.69948 0.0
H392 H 0.15889 0.06054 0.65634 0.0
H393 H 0.18062 0.04966 0.03063 0.0
C394 C 0.07787 0.14837 0.12197 0.0
C395 C 0.05354 0.17042 0.06364 0.0
C396 C 0.05195 0.16975 0.93897 0.0
C397 C 0.07373 0.14763 0.87359 0.0
C398 C 0.09728 0.12636 0.93363 0.0
C399 C 0.09972 0.12656 0.05487 0.0
C400 C 0.12777 0.1012 0.09658 0.0
C401 C 0.15787 0.12146 0.16153 0.0
C402 C 0.11123 0.07164 0.17422 0.0
C403 C 0.14048 0.08655 0.97963 0.0
C404 C 0.12232 0.10155 0.88732 0.0
C405 C 0.1287 0.0924 0.77097 0.0
C406 C 0.15426 0.06729 0.74764 0.0
C407 C 0.17362 0.05129 0.83986 0.0
C408 C 0.16654 0.0613 0.95788 0.0
H409 H 0.93817 0.68187 0.08472 0.0
H410 H 0.99692 0.65313 0.3967 0.0
H411 H 0.9596 0.59872 0.41814 0.0
H412 H 0.85625 0.65875 0.19437 0.0
H413 H 0.83722 0.64104 0.06029 0.0
H414 H 0.87262 0.674 0.05339 0.0
H415 H 0.90973 0.63211 0.92567 0.0
H416 H 0.87417 0.59907 0.93085 0.0
H417 H 0.91803 0.58794 0.9777 0.0
H418 H 0.9114 0.55339 0.42548 0.0
H419 H 0.85581 0.51771 0.41372 0.0
H420 H 0.8266 0.57488 0.09773 0.0
C421 C 0.94392 0.66328 0.15442 0.0
C422 C 0.97061 0.67124 0.23825 0.0
C423 C 0.97672 0.64719 0.33123 0.0
C424 C 0.95573 0.61622 0.34395 0.0
C425 C 0.92867 0.60968 0.26294 0.0
C426 C 0.9228 0.63225 0.16919 0.0
C427 C 0.88946 0.62084 0.10283 0.0
C428 C 0.8623 0.65042 0.10281 0.0
C429 C 0.89839 0.6093 0.97677 0.0
C430 C 0.87687 0.58938 0.17698 0.0
C431 C 0.90022 0.5832 0.26782 0.0
C432 C 0.8932 0.55748 0.35348 0.0
C433 C 0.86139 0.53754 0.34654 0.0
C434 C 0.83688 0.54343 0.25468 0.0
C435 C 0.84506 0.5694 0.16795 0.0
H436 H 0.341 0.06034 0.87804 0.0
H437 H 0.34728 0.02046 0.52025 0.0
H438 H 0.39665 0.06305 0.47912 0.0
H439 H 0.3539 0.14946 0.80613 0.0
H440 H 0.37997 0.16111 0.9342 0.0
H441 H 0.34831 0.12451 0.94076 0.0
H442 H 0.39754 0.08257 0.00748 0.0
H443 H 0.42937 0.11918 0.00219 0.0
H444 H 0.43705 0.07931 0.91971 0.0
H445 H 0.4416 0.11388 0.47109 0.0
H446 H 0.47927 0.16813 0.49901 0.0
H447 H 0.44281 0.17471 0.86104 0.0
C448 C 0.35336 0.05991 0.79205 0.0
C449 C 0.34034 0.03698 0.70261 0.0
C450 C 0.35677 0.03783 0.59027 0.0
C451 C 0.38491 0.06186 0.56602 0.0
C452 C 0.39641 0.08486 0.65503 0.0
C453 C 0.38131 0.08392 0.76604 0.0
C454 C 0.3968 0.11317 0.84346 0.0
C455 C 0.36803 0.13855 0.88341 0.0
C456 C 0.41636 0.09762 0.94947 0.0
C457 C 0.42237 0.1311 0.75792 0.0
C458 C 0.42204 0.11427 0.65 0.0
C459 C 0.44239 0.12708 0.5557 0.0
C460 C 0.46361 0.15798 0.57229 0.0
C461 C 0.46412 0.1758 0.68215 0.0
C462 C 0.44331 0.1618 0.77597 0.0
H463 H 0.82939 0.95484 0.06422 0.0
H464 H 0.88359 0.9818 0.73769 0.0
H465 H 0.93235 0.94354 0.7923 0.0
H466 H 0.91244 0.94856 0.24665 0.0
H467 H 0.89465 0.9116 0.33103 0.0
H468 H 0.86548 0.94439 0.27367 0.0
H469 H 0.82849 0.89467 0.16933 0.0
H470 H 0.85775 0.86182 0.225 0.0
H471 H 0.85001 0.86528 0.06879 0.0
H472 H 0.97133 0.89701 0.86622 0.0
H473 H 1.00193 0.84892 0.96758 0.0
H474 H 0.92539 0.85215 0.25226 0.0
C475 C 0.85208 0.95352 0.00638 0.0
C476 C 0.85258 0.97141 0.89653 0.0
C477 C 0.88246 0.96832 0.82201 0.0
C478 C 0.91039 0.94661 0.85219 0.0
C479 C 0.90853 0.9282 0.95818 0.0
C480 C 0.88058 0.93179 0.03553 0.0
C481 C 0.88486 0.90748 0.14139 0.0
C482 C 0.88965 0.92931 0.25492 0.0
C483 C 0.8534 0.88073 0.15166 0.0
C484 C 0.9188 0.88905 0.10894 0.0
C485 C 0.93193 0.90157 0.00286 0.0
C486 C 0.96169 0.88738 0.95049 0.0
C487 C 0.97879 0.85985 0.00842 0.0
C488 C 0.96633 0.84679 0.1183 0.0
C489 C 0.93592 0.86183 0.16916 0.0
H490 H 0.05959 0.33746 0.1124 0.0
H491 H 0.03129 0.32939 0.48208 0.0
H492 H 0.07196 0.38009 0.52723 0.0
H493 H 0.14936 0.3534 0.15824 0.0
H494 H 0.15571 0.3841 0.03774 0.0
H495 H 0.12067 0.35074 0.03141 0.0
H496 H 0.07472 0.3994 0.99855 0.0
H497 H 0.10973 0.43298 0.00393 0.0
H498 H 0.07235 0.43559 0.10175 0.0
H499 H 0.11979 0.42806 0.53503 0.0
H500 H 0.17155 0.46883 0.50446 0.0
H501 H 0.16924 0.44424 0.13066 0.0
C502 C 0.06125 0.34697 0.20229 0.0
C503 C 0.04216 0.32961 0.29355 0.0
C504 C 0.0457 0.3423 0.41067 0.0
C505 C 0.06861 0.37118 0.4372 0.0
C506 C 0.08782 0.38709 0.34569 0.0
C507 C 0.08429 0.37552 0.23051 0.0
C508 C 0.11019 0.3951 0.15015 0.0
C509 C 0.13547 0.36929 0.09098 0.0
C510 C 0.09057 0.41708 0.05818 0.0
C511 C 0.12943 0.41877 0.23859 0.0
C512 C 0.11585 0.41419 0.35061 0.0
C513 C 0.13042 0.43216 0.44743 0.0
C514 C 0.15986 0.45522 0.42924 0.0
C515 C 0.17462 0.45973 0.31531 0.0
C516 C 0.15873 0.44148 0.219 0.0
H517 H 0.58927 0.66859 0.72205 0.0
H518 H 0.51569 0.67359 0.4293 0.0
H519 H 0.54879 0.62746 0.32546 0.0
H520 H 0.66784 0.65728 0.53941 0.0
H521 H 0.68843 0.62814 0.64305 0.0
H522 H 0.65889 0.66133 0.6947 0.0
H523 H 0.62098 0.61242 0.79974 0.0
H524 H 0.65014 0.57901 0.74711 0.0
H525 H 0.60339 0.57526 0.71592 0.0
H526 H 0.58718 0.57904 0.25902 0.0
H527 H 0.63332 0.53683 0.21685 0.0
H528 H 0.68596 0.5644 0.54638 0.0
C529 C 0.58025 0.66009 0.63571 0.0
C530 C 0.54971 0.67464 0.58377 0.0
C531 C 0.53901 0.66306 0.47038 0.0
C532 C 0.55752 0.63667 0.41127 0.0
C533 C 0.58706 0.62249 0.4658 0.0
C534 C 0.59887 0.63423 0.57435 0.0
C535 C 0.63231 0.61543 0.61069 0.0
C536 C 0.66373 0.64214 0.62264 0.0
C537 C 0.62633 0.59428 0.72517 0.0
C538 C 0.63716 0.59083 0.50617 0.0
C539 C 0.61041 0.59531 0.42466 0.0
C540 C 0.60847 0.57566 0.32143 0.0
C541 C 0.63504 0.55164 0.2985 0.0
C542 C 0.66386 0.54736 0.37737 0.0
C543 C 0.66444 0.56686 0.48423 0.0
loop_
_geom_bond_atom_site_label_1
_geom_bond_atom_site_label_2
_geom_bond_distance
_geom_bond_site_symmetry_2
_ccdc_geom_bond_type
Co0 O1 2.216 . S
Co0 O2 2.091 . S
Co0 O4 2.004 . S
Co0 O10 2.021 . S
Co0 O12 2.137 . S
Co0 O13 2.244 . S
O1 Co0 2.216 . S
O1 C8 1.247 . S
O2 Co0 2.091 . S
O2 C8 1.261 . S
C3 O12 1.247 . S
C3 O13 1.272 . S
O4 Co0 2.004 . S
O4 C9 1.259 . S
Co5 O6 2.061 . S
Co5 O11 2.052 . S
Co5 O13 2.135 . S
O6 Co5 2.061 . S
O6 C9 1.235 . S
C7 O10 1.238 . S
C7 O11 1.241 . S
C8 O1 1.247 . S
C8 O2 1.261 . S
C9 O4 1.259 . S
C9 O6 1.235 . S
O10 Co0 2.021 . S
O10 C7 1.238 . S
O11 Co5 2.052 . S
O11 C7 1.241 . S
O12 Co0 2.137 . S
O12 C3 1.247 . S
O13 Co0 2.244 . S
O13 C3 1.272 . S
O13 Co5 2.135 . S
Co14 O15 2.216 . S
Co14 O16 2.091 . S
Co14 O18 2.004 . S
Co14 O24 2.021 . S
Co14 O26 2.137 . S
Co14 O27 2.244 . S
O15 Co14 2.216 . S
O15 C22 1.247 . S
O16 Co14 2.091 . S
O16 C22 1.261 . S
C17 O26 1.247 . S
C17 O27 1.272 . S
O18 Co14 2.004 . S
O18 C23 1.259 . S
Co19 O20 2.061 . S
Co19 O25 2.052 . S
Co19 O27 2.135 . S
O20 Co19 2.061 . S
O20 C23 1.235 . S
C21 O24 1.238 . S
C21 O25 1.241 . S
C22 O15 1.247 . S
C22 O16 1.261 . S
C23 O18 1.259 . S
C23 O20 1.235 . S
O24 Co14 2.021 . S
O24 C21 1.238 . S
O25 Co19 2.052 . S
O25 C21 1.241 . S
O26 Co14 2.137 . S
O26 C17 1.247 . S
O27 Co14 2.244 . S
O27 C17 1.272 . S
O27 Co19 2.135 . S
Co28 O29 2.216 . S
Co28 O30 2.091 1_556 S
Co28 O32 2.010 . S
Co28 O38 2.021 1_565 S
Co28 O40 2.137 . S
Co28 O41 2.244 . S
O29 Co28 2.216 . S
O29 C36 1.247 1_556 S
O30 Co28 2.091 1_554 S
O30 C36 1.261 . S
C31 O40 1.247 . S
C31 O41 1.272 . S
O32 Co28 2.010 . S
O32 C37 1.252 1_565 S
Co33 O34 2.061 . S
Co33 O39 2.052 . S
Co33 O41 2.135 1_545 S
O34 Co33 2.061 . S
O34 C37 1.235 . S
C35 O38 1.238 . S
C35 O39 1.241 . S
C36 O29 1.247 1_554 S
C36 O30 1.261 . S
C37 O32 1.252 1_545 S
C37 O34 1.235 . S
O38 Co28 2.021 1_545 S
O38 C35 1.238 . S
O39 Co33 2.052 . S
O39 C35 1.241 . S
O40 Co28 2.137 . S
O40 C31 1.247 . S
O41 Co28 2.244 . S
O41 C31 1.272 . S
O41 Co33 2.135 1_565 S
Co42 O43 2.216 . S
Co42 O44 2.091 1_554 S
Co42 O46 2.010 . S
Co42 O52 2.021 1_455 S
Co42 O54 2.137 . S
Co42 O55 2.244 . S
O43 Co42 2.216 . S
O43 C50 1.247 1_554 S
O44 Co42 2.091 1_556 S
O44 C50 1.261 . S
C45 O54 1.247 . S
C45 O55 1.272 . S
O46 Co42 2.010 . S
O46 C51 1.252 1_455 S
Co47 O48 2.061 . S
Co47 O53 2.052 . S
Co47 O55 2.135 1_655 S
O48 Co47 2.061 . S
O48 C51 1.235 . S
C49 O52 1.238 . S
C49 O53 1.241 . S
C50 O43 1.247 1_556 S
C50 O44 1.261 . S
C51 O46 1.252 1_655 S
C51 O48 1.235 . S
O52 Co42 2.021 1_655 S
O52 C49 1.238 . S
O53 Co47 2.052 . S
O53 C49 1.241 . S
O54 Co42 2.137 . S
O54 C45 1.247 . S
O55 Co42 2.244 . S
O55 C45 1.272 . S
O55 Co47 2.135 1_455 S
Co56 O57 2.216 . S
Co56 O58 2.091 1_556 S
Co56 O60 2.010 . S
Co56 O66 2.021 1_545 S
Co56 O68 2.137 . S
Co56 O69 2.244 . S
O57 Co56 2.216 . S
O57 C64 1.247 1_556 S
O58 Co56 2.091 1_554 S
O58 C64 1.261 . S
C59 O68 1.247 . S
C59 O69 1.272 . S
O60 Co56 2.010 . S
O60 C65 1.252 1_545 S
Co61 O62 2.061 . S
Co61 O67 2.052 . S
Co61 O69 2.135 1_565 S
O62 Co61 2.061 . S
O62 C65 1.235 . S
C63 O66 1.238 . S
C63 O67 1.241 . S
C64 O57 1.247 1_554 S
C64 O58 1.261 . S
C65 O60 1.252 1_565 S
C65 O62 1.235 . S
O66 Co56 2.021 1_565 S
O66 C63 1.238 . S
O67 Co61 2.052 . S
O67 C63 1.241 . S
O68 Co56 2.137 . S
O68 C59 1.247 . S
O69 Co56 2.244 . S
O69 C59 1.272 . S
O69 Co61 2.135 1_545 S
Co70 O71 2.216 . S
Co70 O72 2.091 1_554 S
Co70 O74 2.010 . S
Co70 O80 2.021 1_655 S
Co70 O82 2.137 . S
Co70 O83 2.244 . S
O71 Co70 2.216 . S
O71 C78 1.247 1_554 S
O72 Co70 2.091 1_556 S
O72 C78 1.261 . S
C73 O82 1.247 . S
C73 O83 1.272 . S
O74 Co70 2.010 . S
O74 C79 1.252 1_655 S
Co75 O76 2.061 . S
Co75 O81 2.052 . S
Co75 O83 2.135 1_455 S
O76 Co75 2.061 . S
O76 C79 1.235 . S
C77 O80 1.238 . S
C77 O81 1.241 . S
C78 O71 1.247 1_556 S
C78 O72 1.261 . S
C79 O74 1.252 1_455 S
C79 O76 1.235 . S
O80 Co70 2.021 1_455 S
O80 C77 1.238 . S
O81 Co75 2.052 . S
O81 C77 1.241 . S
O82 Co70 2.137 . S
O82 C73 1.247 . S
O83 Co70 2.244 . S
O83 C73 1.272 . S
O83 Co75 2.135 1_655 S
Co84 O85 2.216 . S
Co84 O86 2.091 . S
Co84 O88 2.004 . S
Co84 O94 2.021 . S
Co84 O96 2.137 . S
Co84 O97 2.244 . S
O85 Co84 2.216 . S
O85 C92 1.247 . S
O86 Co84 2.091 . S
O86 C92 1.261 . S
C87 O96 1.247 . S
C87 O97 1.272 . S
O88 Co84 2.004 . S
O88 C93 1.259 . S
Co89 O90 2.061 . S
Co89 O95 2.052 . S
Co89 O97 2.135 . S
O90 Co89 2.061 . S
O90 C93 1.235 . S
C91 O94 1.238 . S
C91 O95 1.241 . S
C92 O85 1.247 . S
C92 O86 1.261 . S
C93 O88 1.259 . S
C93 O90 1.235 . S
O94 Co84 2.021 . S
O94 C91 1.238 . S
O95 Co89 2.052 . S
O95 C91 1.241 . S
O96 Co84 2.137 . S
O96 C87 1.247 . S
O97 Co84 2.244 . S
O97 C87 1.272 . S
O97 Co89 2.135 . S
Co98 O99 2.216 . S
Co98 O100 2.091 . S
Co98 O102 2.004 . S
Co98 O108 2.021 . S
Co98 O110 2.137 . S
Co98 O111 2.244 . S
O99 Co98 2.216 . S
O99 C106 1.247 . S
O100 Co98 2.091 . S
O100 C106 1.261 . S
C101 O110 1.247 . S
C101 O111 1.272 . S
O102 Co98 2.004 . S
O102 C107 1.259 . S
Co103 O104 2.061 . S
Co103 O109 2.052 . S
Co103 O111 2.135 . S
O104 Co103 2.061 . S
O104 C107 1.235 . S
C105 O108 1.238 . S
C105 O109 1.241 . S
C106 O99 1.247 . S
C106 O100 1.261 . S
C107 O102 1.259 . S
C107 O104 1.235 . S
O108 Co98 2.021 . S
O108 C105 1.238 . S
O109 Co103 2.052 . S
O109 C105 1.241 . S
O110 Co98 2.137 . S
O110 C101 1.247 . S
O111 Co98 2.244 . S
O111 C101 1.272 . S
O111 Co103 2.135 . S
H112 C124 0.930 . S
H113 C126 0.930 . S
H114 C127 0.930 . S
H115 C131 0.959 1_556 S
H116 C131 0.959 . S
H117 C131 0.961 . S
H118 C132 0.960 . S
H119 C132 0.961 . S
H120 C132 0.959 . S
H121 C135 0.929 1_556 S
H122 C136 0.931 . S
H123 C138 0.930 . S
C124 H112 0.930 . S
C124 C125 1.399 . S
C124 C129 1.399 . S
C125 C124 1.399 . S
C125 C126 1.376 . S
C126 H113 0.930 . S
C126 C125 1.376 . S
C126 C127 1.388 . S
C127 H114 0.930 . S
C127 C126 1.388 . S
C127 C128 1.390 . S
C128 C127 1.390 . S
C128 C129 1.394 . S
C128 C134 1.465 1_556 S
C129 C124 1.399 . S
C129 C128 1.394 . S
C129 C130 1.516 1_556 S
C130 C129 1.516 1_554 S
C130 C131 1.502 . S
C130 C132 1.561 . S
C130 C133 1.526 . S
C131 H115 0.959 1_554 S
C131 H116 0.959 . S
C131 H117 0.961 . S
C131 C130 1.502 . S
C132 H118 0.960 . S
C132 H119 0.961 . S
C132 H120 0.959 . S
C132 C130 1.561 . S
C133 C130 1.526 . S
C133 C134 1.396 . S
C133 C138 1.390 . S
C134 C128 1.465 1_554 S
C134 C133 1.396 . S
C134 C135 1.399 . S
C135 H121 0.929 1_554 S
C135 C134 1.399 . S
C135 C136 1.385 . S
C136 H122 0.931 . S
C136 C135 1.385 . S
C136 C137 1.389 . S
C137 C136 1.389 . S
C137 C138 1.387 . S
C138 H123 0.930 . S
C138 C133 1.390 . S
C138 C137 1.387 . S
H139 C151 0.930 . S
H140 C153 0.930 . S
H141 C154 0.930 . S
H142 C158 0.959 . S
H143 C158 0.959 . S
H144 C158 0.961 . S
H145 C159 0.960 . S
H146 C159 0.961 1_556 S
H147 C159 0.959 . S
H148 C162 0.929 . S
H149 C163 0.931 . S
H150 C165 0.930 . S
C151 H139 0.930 . S
C151 C152 1.399 . S
C151 C156 1.399 . S
C152 C151 1.399 . S
C152 C153 1.376 . S
C153 H140 0.930 . S
C153 C152 1.376 . S
C153 C154 1.388 . S
C154 H141 0.930 . S
C154 C153 1.388 . S
C154 C155 1.390 . S
C155 C154 1.390 . S
C155 C156 1.394 . S
C155 C161 1.465 . S
C156 C151 1.399 . S
C156 C155 1.394 . S
C156 C157 1.516 . S
C157 C156 1.516 . S
C157 C158 1.502 . S
C157 C159 1.561 . S
C157 C160 1.526 . S
C158 H142 0.959 . S
C158 H143 0.959 . S
C158 H144 0.961 . S
C158 C157 1.502 . S
C159 H145 0.960 . S
C159 H146 0.961 1_554 S
C159 H147 0.959 . S
C159 C157 1.561 . S
C160 C157 1.526 . S
C160 C161 1.396 . S
C160 C165 1.390 . S
C161 C155 1.465 . S
C161 C160 1.396 . S
C161 C162 1.399 . S
C162 H148 0.929 . S
C162 C161 1.399 . S
C162 C163 1.385 . S
C163 H149 0.931 . S
C163 C162 1.385 . S
C163 C164 1.389 . S
C164 C163 1.389 . S
C164 C165 1.387 . S
C165 H150 0.930 . S
C165 C160 1.390 . S
C165 C164 1.387 . S
H166 C178 0.930 . S
H167 C180 0.930 . S
H168 C181 0.930 . S
H169 C185 0.959 . S
H170 C185 0.959 . S
H171 C185 0.961 . S
H172 C186 0.960 . S
H173 C186 0.961 . S
H174 C186 0.959 . S
H175 C189 0.929 . S
H176 C190 0.931 . S
H177 C192 0.930 . S
C178 H166 0.930 . S
C178 C179 1.399 . S
C178 C183 1.399 . S
C179 C178 1.399 . S
C179 C180 1.376 . S
C180 H167 0.930 . S
C180 C179 1.376 . S
C180 C181 1.388 . S
C181 H168 0.930 . S
C181 C180 1.388 . S
C181 C182 1.390 . S
C182 C181 1.390 . S
C182 C183 1.394 . S
C182 C188 1.465 . S
C183 C178 1.399 . S
C183 C182 1.394 . S
C183 C184 1.516 . S
C184 C183 1.516 . S
C184 C185 1.502 . S
C184 C186 1.561 . S
C184 C187 1.526 . S
C185 H169 0.959 . S
C185 H170 0.959 . S
C185 H171 0.961 . S
C185 C184 1.502 . S
C186 H172 0.960 . S
C186 H173 0.961 . S
C186 H174 0.959 . S
C186 C184 1.561 . S
C187 C184 1.526 . S
C187 C188 1.396 . S
C187 C192 1.390 . S
C188 C182 1.465 . S
C188 C187 1.396 . S
C188 C189 1.399 . S
C189 H175 0.929 . S
C189 C188 1.399 . S
C189 C190 1.385 . S
C190 H176 0.931 . S
C190 C189 1.385 . S
C190 C191 1.389 . S
C191 C190 1.389 . S
C191 C192 1.387 . S
C192 H177 0.930 . S
C192 C187 1.390 . S
C192 C191 1.387 . S
H193 C205 0.930 1_554 S
H194 C207 0.930 . S
H195 C208 0.930 . S
H196 C212 0.959 . S
H197 C212 0.959 . S
H198 C212 0.961 . S
H199 C213 0.960 1_554 S
H200 C213 0.961 . S
H201 C213 0.959 . S
H202 C216 0.929 . S
H203 C217 0.931 . S
H204 C219 0.930 . S
C205 H193 0.930 1_556 S
C205 C206 1.399 . S
C205 C210 1.399 . S
C206 C205 1.399 . S
C206 C207 1.376 . S
C207 H194 0.930 . S
C207 C206 1.376 . S
C207 C208 1.388 . S
C208 H195 0.930 . S
C208 C207 1.388 . S
C208 C209 1.390 . S
C209 C208 1.390 . S
C209 C210 1.394 . S
C209 C215 1.465 . S
C210 C205 1.399 . S
C210 C209 1.394 . S
C210 C211 1.516 . S
C211 C210 1.516 . S
C211 C212 1.502 . S
C211 C213 1.561 . S
C211 C214 1.526 . S
C212 H196 0.959 . S
C212 H197 0.959 . S
C212 H198 0.961 . S
C212 C211 1.502 . S
C213 H199 0.960 1_556 S
C213 H200 0.961 . S
C213 H201 0.959 . S
C213 C211 1.561 . S
C214 C211 1.526 . S
C214 C215 1.396 . S
C214 C219 1.390 . S
C215 C209 1.465 . S
C215 C214 1.396 . S
C215 C216 1.399 . S
C216 H202 0.929 . S
C216 C215 1.399 . S
C216 C217 1.385 . S
C217 H203 0.931 . S
C217 C216 1.385 . S
C217 C218 1.389 . S
C218 C217 1.389 . S
C218 C219 1.387 . S
C219 H204 0.930 . S
C219 C214 1.390 . S
C219 C218 1.387 . S
H220 C232 0.930 . S
H221 C234 0.930 . S
H222 C235 0.930 . S
H223 C239 0.959 . S
H224 C239 0.959 . S
H225 C239 0.961 . S
H226 C240 0.960 . S
H227 C240 0.961 . S
H228 C240 0.959 . S
H229 C243 0.929 . S
H230 C244 0.931 . S
H231 C246 0.930 . S
C232 H220 0.930 . S
C232 C233 1.399 . S
C232 C237 1.399 . S
C233 C232 1.399 . S
C233 C234 1.376 . S
C234 H221 0.930 . S
C234 C233 1.376 . S
C234 C235 1.388 . S
C235 H222 0.930 . S
C235 C234 1.388 . S
C235 C236 1.390 . S
C236 C235 1.390 . S
C236 C237 1.394 . S
C236 C242 1.465 . S
C237 C232 1.399 . S
C237 C236 1.394 . S
C237 C238 1.516 . S
C238 C237 1.516 . S
C238 C239 1.502 . S
C238 C240 1.561 . S
C238 C241 1.526 . S
C239 H223 0.959 . S
C239 H224 0.959 . S
C239 H225 0.961 . S
C239 C238 1.502 . S
C240 H226 0.960 . S
C240 H227 0.961 . S
C240 H228 0.959 . S
C240 C238 1.561 . S
C241 C238 1.526 . S
C241 C242 1.396 . S
C241 C246 1.390 . S
C242 C236 1.465 . S
C242 C241 1.396 . S
C242 C243 1.399 . S
C243 H229 0.929 . S
C243 C242 1.399 . S
C243 C244 1.385 . S
C244 H230 0.931 . S
C244 C243 1.385 . S
C244 C245 1.389 . S
C245 C244 1.389 . S
C245 C246 1.387 . S
C246 H231 0.930 . S
C246 C241 1.390 . S
C246 C245 1.387 . S
H247 C259 0.930 1_554 S
H248 C261 0.930 . S
H249 C262 0.930 . S
H250 C266 0.959 . S
H251 C266 0.959 . S
H252 C266 0.961 1_554 S
H253 C267 0.960 . S
H254 C267 0.961 . S
H255 C267 0.959 . S
H256 C270 0.929 . S
H257 C271 0.931 . S
H258 C273 0.930 . S
C259 H247 0.930 1_556 S
C259 C260 1.399 . S
C259 C264 1.399 . S
C260 C259 1.399 . S
C260 C261 1.376 . S
C261 H248 0.930 . S
C261 C260 1.376 . S
C261 C262 1.388 . S
C262 H249 0.930 . S
C262 C261 1.388 . S
C262 C263 1.390 . S
C263 C262 1.390 . S
C263 C264 1.394 . S
C263 C269 1.465 . S
C264 C259 1.399 . S
C264 C263 1.394 . S
C264 C265 1.516 . S
C265 C264 1.516 . S
C265 C266 1.502 . S
C265 C267 1.561 . S
C265 C268 1.526 . S
C266 H250 0.959 . S
C266 H251 0.959 . S
C266 H252 0.961 1_556 S
C266 C265 1.502 . S
C267 H253 0.960 . S
C267 H254 0.961 . S
C267 H255 0.959 . S
C267 C265 1.561 . S
C268 C265 1.526 . S
C268 C269 1.396 . S
C268 C273 1.390 . S
C269 C263 1.465 . S
C269 C268 1.396 . S
C269 C270 1.399 . S
C270 H256 0.929 . S
C270 C269 1.399 . S
C270 C271 1.385 . S
C271 H257 0.931 . S
C271 C270 1.385 . S
C271 C272 1.389 . S
C272 C271 1.389 . S
C272 C273 1.387 . S
C273 H258 0.930 . S
C273 C268 1.390 . S
C273 C272 1.387 . S
H274 C286 0.930 . S
H275 C288 0.930 . S
H276 C289 0.930 . S
H277 C293 0.959 . S
H278 C293 0.959 . S
H279 C293 0.961 . S
H280 C294 0.960 . S
H281 C294 0.961 1_556 S
H282 C294 0.959 . S
H283 C297 0.929 1_554 S
H284 C298 0.931 . S
H285 C300 0.930 . S
C286 H274 0.930 . S
C286 C287 1.399 . S
C286 C291 1.399 . S
C287 C286 1.399 . S
C287 C288 1.376 . S
C288 H275 0.930 . S
C288 C287 1.376 . S
C288 C289 1.388 . S
C289 H276 0.930 . S
C289 C288 1.388 . S
C289 C290 1.390 . S
C290 C289 1.390 . S
C290 C291 1.394 . S
C290 C296 1.465 1_554 S
C291 C286 1.399 . S
C291 C290 1.394 . S
C291 C292 1.516 1_554 S
C292 C291 1.516 1_556 S
C292 C293 1.502 . S
C292 C294 1.561 1_556 S
C292 C295 1.526 . S
C293 H277 0.959 . S
C293 H278 0.959 . S
C293 H279 0.961 . S
C293 C292 1.502 . S
C294 H280 0.960 . S
C294 H281 0.961 1_554 S
C294 H282 0.959 . S
C294 C292 1.561 1_554 S
C295 C292 1.526 . S
C295 C296 1.396 . S
C295 C300 1.390 . S
C296 C290 1.465 1_556 S
C296 C295 1.396 . S
C296 C297 1.399 . S
C297 H283 0.929 1_556 S
C297 C296 1.399 . S
C297 C298 1.385 . S
C298 H284 0.931 . S
C298 C297 1.385 . S
C298 C299 1.389 . S
C299 C298 1.389 . S
C299 C300 1.387 . S
C300 H285 0.930 . S
C300 C295 1.390 . S
C300 C299 1.387 . S
H301 C313 0.930 . S
H302 C315 0.930 . S
H303 C316 0.930 . S
H304 C320 0.959 . S
H305 C320 0.959 . S
H306 C320 0.961 . S
H307 C321 0.960 . S
H308 C321 0.961 . S
H309 C321 0.959 . S
H310 C324 0.929 . S
H311 C325 0.931 . S
H312 C327 0.930 . S
C313 H301 0.930 . S
C313 C314 1.399 . S
C313 C318 1.399 . S
C314 C313 1.399 . S
C314 C315 1.376 . S
C315 H302 0.930 . S
C315 C314 1.376 . S
C315 C316 1.388 . S
C316 H303 0.930 . S
C316 C315 1.388 . S
C316 C317 1.390 . S
C317 C316 1.390 . S
C317 C318 1.394 . S
C317 C323 1.465 . S
C318 C313 1.399 . S
C318 C317 1.394 . S
C318 C319 1.516 . S
C319 C318 1.516 . S
C319 C320 1.502 . S
C319 C321 1.561 . S
C319 C322 1.526 . S
C320 H304 0.959 . S
C320 H305 0.959 . S
C320 H306 0.961 . S
C320 C319 1.502 . S
C321 H307 0.960 . S
C321 H308 0.961 . S
C321 H309 0.959 . S
C321 C319 1.561 . S
C322 C319 1.526 . S
C322 C323 1.396 . S
C322 C327 1.390 . S
C323 C317 1.465 . S
C323 C322 1.396 . S
C323 C324 1.399 . S
C324 H310 0.929 . S
C324 C323 1.399 . S
C324 C325 1.385 . S
C325 H311 0.931 . S
C325 C324 1.385 . S
C325 C326 1.389 . S
C326 C325 1.389 . S
C326 C327 1.387 . S
C327 H312 0.930 . S
C327 C322 1.390 . S
C327 C326 1.387 . S
H328 C340 0.930 . S
H329 C342 0.930 . S
H330 C343 0.930 . S
H331 C347 0.959 . S
H332 C347 0.959 . S
H333 C347 0.961 . S
H334 C348 0.960 . S
H335 C348 0.961 . S
H336 C348 0.959 . S
H337 C351 0.929 . S
H338 C352 0.931 . S
H339 C354 0.930 . S
C340 H328 0.930 . S
C340 C341 1.399 . S
C340 C345 1.399 . S
C341 C340 1.399 . S
C341 C342 1.376 . S
C342 H329 0.930 . S
C342 C341 1.376 . S
C342 C343 1.388 . S
C343 H330 0.930 . S
C343 C342 1.388 . S
C343 C344 1.390 . S
C344 C343 1.390 . S
C344 C345 1.394 . S
C344 C350 1.465 . S
C345 C340 1.399 . S
C345 C344 1.394 . S
C345 C346 1.516 . S
C346 C345 1.516 . S
C346 C347 1.502 . S
C346 C348 1.561 . S
C346 C349 1.526 . S
C347 H331 0.959 . S
C347 H332 0.959 . S
C347 H333 0.961 . S
C347 C346 1.502 . S
C348 H334 0.960 . S
C348 H335 0.961 . S
C348 H336 0.959 . S
C348 C346 1.561 . S
C349 C346 1.526 . S
C349 C350 1.396 . S
C349 C354 1.390 . S
C350 C344 1.465 . S
C350 C349 1.396 . S
C350 C351 1.399 . S
C351 H337 0.929 . S
C351 C350 1.399 . S
C351 C352 1.385 . S
C352 H338 0.931 . S
C352 C351 1.385 . S
C352 C353 1.389 . S
C353 C352 1.389 . S
C353 C354 1.387 . S
C354 H339 0.930 . S
C354 C349 1.390 . S
C354 C353 1.387 . S
H355 C367 0.930 . S
H356 C369 0.930 . S
H357 C370 0.930 . S
H358 C374 0.959 . S
H359 C374 0.959 . S
H360 C374 0.961 . S
H361 C375 0.960 . S
H362 C375 0.961 . S
H363 C375 0.959 . S
H364 C378 0.929 . S
H365 C379 0.931 . S
H366 C381 0.930 . S
C367 H355 0.930 . S
C367 C368 1.399 . S
C367 C372 1.399 . S
C368 C367 1.399 . S
C368 C369 1.376 . S
C369 H356 0.930 . S
C369 C368 1.376 . S
C369 C370 1.388 . S
C370 H357 0.930 . S
C370 C369 1.388 . S
C370 C371 1.390 . S
C371 C370 1.390 . S
C371 C372 1.394 . S
C371 C377 1.465 . S
C372 C367 1.399 . S
C372 C371 1.394 . S
C372 C373 1.516 . S
C373 C372 1.516 . S
C373 C374 1.502 . S
C373 C375 1.561 . S
C373 C376 1.526 . S
C374 H358 0.959 . S
C374 H359 0.959 . S
C374 H360 0.961 . S
C374 C373 1.502 . S
C375 H361 0.960 . S
C375 H362 0.961 . S
C375 H363 0.959 . S
C375 C373 1.561 . S
C376 C373 1.526 . S
C376 C377 1.396 . S
C376 C381 1.390 . S
C377 C371 1.465 . S
C377 C376 1.396 . S
C377 C378 1.399 . S
C378 H364 0.929 . S
C378 C377 1.399 . S
C378 C379 1.385 . S
C379 H365 0.931 . S
C379 C378 1.385 . S
C379 C380 1.389 . S
C380 C379 1.389 . S
C380 C381 1.387 . S
C381 H366 0.930 . S
C381 C376 1.390 . S
C381 C380 1.387 . S
H382 C394 0.930 . S
H383 C396 0.930 . S
H384 C397 0.930 . S
H385 C401 0.959 . S
H386 C401 0.959 . S
H387 C401 0.961 . S
H388 C402 0.960 . S
H389 C402 0.961 . S
H390 C402 0.959 . S
H391 C405 0.929 . S
H392 C406 0.931 . S
H393 C408 0.930 . S
C394 H382 0.930 . S
C394 C395 1.399 . S
C394 C399 1.399 . S
C395 C394 1.399 . S
C395 C396 1.376 1_554 S
C396 H383 0.930 . S
C396 C395 1.376 1_556 S
C396 C397 1.388 . S
C397 H384 0.930 . S
C397 C396 1.388 . S
C397 C398 1.390 . S
C398 C397 1.390 . S
C398 C399 1.394 1_556 S
C398 C404 1.465 . S
C399 C394 1.399 . S
C399 C398 1.394 1_554 S
C399 C400 1.516 . S
C400 C399 1.516 . S
C400 C401 1.502 . S
C400 C402 1.561 . S
C400 C403 1.526 . S
C401 H385 0.959 . S
C401 H386 0.959 . S
C401 H387 0.961 . S
C401 C400 1.502 . S
C402 H388 0.960 . S
C402 H389 0.961 . S
C402 H390 0.959 . S
C402 C400 1.561 . S
C403 C400 1.526 . S
C403 C404 1.396 1_554 S
C403 C408 1.390 . S
C404 C398 1.465 . S
C404 C403 1.396 1_556 S
C404 C405 1.399 . S
C405 H391 0.929 . S
C405 C404 1.399 . S
C405 C406 1.385 . S
C406 H392 0.931 . S
C406 C405 1.385 . S
C406 C407 1.389 . S
C407 C406 1.389 . S
C407 C408 1.387 1_556 S
C408 H393 0.930 . S
C408 C403 1.390 . S
C408 C407 1.387 1_554 S
H409 C421 0.930 . S
H410 C423 0.930 . S
H411 C424 0.930 . S
H412 C428 0.959 . S
H413 C428 0.959 1_556 S
H414 C428 0.961 1_556 S
H415 C429 0.960 1_556 S
H416 C429 0.961 1_556 S
H417 C429 0.959 . S
H418 C432 0.929 . S
H419 C433 0.931 . S
H420 C435 0.930 . S
C421 H409 0.930 . S
C421 C422 1.399 . S
C421 C426 1.399 . S
C422 C421 1.399 . S
C422 C423 1.376 . S
C423 H410 0.930 . S
C423 C422 1.376 . S
C423 C424 1.388 . S
C424 H411 0.930 . S
C424 C423 1.388 . S
C424 C425 1.390 . S
C425 C424 1.390 . S
C425 C426 1.394 . S
C425 C431 1.465 . S
C426 C421 1.399 . S
C426 C425 1.394 . S
C426 C427 1.516 . S
C427 C426 1.516 . S
C427 C428 1.502 . S
C427 C429 1.561 . S
C427 C430 1.526 . S
C428 H412 0.959 . S
C428 H413 0.959 1_554 S
C428 H414 0.961 1_554 S
C428 C427 1.502 . S
C429 H415 0.960 1_554 S
C429 H416 0.961 1_554 S
C429 H417 0.959 . S
C429 C427 1.561 . S
C430 C427 1.526 . S
C430 C431 1.396 . S
C430 C435 1.390 . S
C431 C425 1.465 . S
C431 C430 1.396 . S
C431 C432 1.399 . S
C432 H418 0.929 . S
C432 C431 1.399 . S
C432 C433 1.385 . S
C433 H419 0.931 . S
C433 C432 1.385 . S
C433 C434 1.389 . S
C434 C433 1.389 . S
C434 C435 1.387 . S
C435 H420 0.930 . S
C435 C430 1.390 . S
C435 C434 1.387 . S
H436 C448 0.930 . S
H437 C450 0.930 . S
H438 C451 0.930 . S
H439 C455 0.959 . S
H440 C455 0.959 1_554 S
H441 C455 0.961 1_554 S
H442 C456 0.960 1_554 S
H443 C456 0.956 1_554 S
H444 C456 0.959 . S
H445 C459 0.929 . S
H446 C460 0.931 . S
H447 C462 0.930 . S
C448 H436 0.930 . S
C448 C449 1.399 . S
C448 C453 1.399 . S
C449 C448 1.399 . S
C449 C450 1.376 . S
C450 H437 0.930 . S
C450 C449 1.376 . S
C450 C451 1.388 . S
C451 H438 0.930 . S
C451 C450 1.388 . S
C451 C452 1.390 . S
C452 C451 1.390 . S
C452 C453 1.394 . S
C452 C458 1.465 . S
C453 C448 1.399 . S
C453 C452 1.394 . S
C453 C454 1.516 . S
C454 C453 1.516 . S
C454 C455 1.502 . S
C454 C456 1.561 . S
C454 C457 1.526 . S
C455 H439 0.959 . S
C455 H440 0.959 1_556 S
C455 H441 0.961 1_556 S
C455 C454 1.502 . S
C456 H442 0.960 1_556 S
C456 H443 0.956 1_556 S
C456 H444 0.959 . S
C456 C454 1.561 . S
C457 C454 1.526 . S
C457 C458 1.396 . S
C457 C462 1.390 . S
C458 C452 1.465 . S
C458 C457 1.396 . S
C458 C459 1.399 . S
C459 H445 0.929 . S
C459 C458 1.399 . S
C459 C460 1.385 . S
C460 H446 0.931 . S
C460 C459 1.385 . S
C460 C461 1.389 . S
C461 C460 1.389 . S
C461 C462 1.387 . S
C462 H447 0.930 . S
C462 C457 1.390 . S
C462 C461 1.387 . S
H463 C475 0.930 . S
H464 C477 0.930 . S
H465 C478 0.930 . S
H466 C482 0.959 . S
H467 C482 0.959 . S
H468 C482 0.961 . S
H469 C483 0.960 . S
H470 C483 0.961 . S
H471 C483 0.959 . S
H472 C486 0.929 . S
H473 C487 0.931 . S
H474 C489 0.930 . S
C475 H463 0.930 . S
C475 C476 1.399 1_554 S
C475 C480 1.399 . S
C476 C475 1.399 1_556 S
C476 C477 1.376 . S
C477 H464 0.930 . S
C477 C476 1.376 . S
C477 C478 1.388 . S
C478 H465 0.930 . S
C478 C477 1.388 . S
C478 C479 1.390 . S
C479 C478 1.390 . S
C479 C480 1.394 1_556 S
C479 C485 1.465 . S
C480 C475 1.399 . S
C480 C479 1.394 1_554 S
C480 C481 1.516 . S
C481 C480 1.516 . S
C481 C482 1.502 . S
C481 C483 1.561 . S
C481 C484 1.526 . S
C482 H466 0.959 . S
C482 H467 0.959 . S
C482 H468 0.961 . S
C482 C481 1.502 . S
C483 H469 0.960 . S
C483 H470 0.961 . S
C483 H471 0.959 . S
C483 C481 1.561 . S
C484 C481 1.526 . S
C484 C485 1.396 1_554 S
C484 C489 1.390 . S
C485 C479 1.465 . S
C485 C484 1.396 1_556 S
C485 C486 1.399 . S
C486 H472 0.929 . S
C486 C485 1.399 . S
C486 C487 1.385 . S
C487 H473 0.931 . S
C487 C486 1.385 . S
C487 C488 1.389 1_556 S
C488 C487 1.389 1_554 S
C488 C489 1.387 . S
C489 H474 0.930 . S
C489 C484 1.390 . S
C489 C488 1.387 . S
H490 C502 0.930 . S
H491 C504 0.930 . S
H492 C505 0.930 . S
H493 C509 0.959 . S
H494 C509 0.959 1_556 S
H495 C509 0.961 1_556 S
H496 C510 0.960 . S
H497 C510 0.961 . S
H498 C510 0.959 . S
H499 C513 0.929 . S
H500 C514 0.931 . S
H501 C516 0.930 . S
C502 H490 0.930 . S
C502 C503 1.399 . S
C502 C507 1.399 . S
C503 C502 1.399 . S
C503 C504 1.376 . S
C504 H491 0.930 . S
C504 C503 1.376 . S
C504 C505 1.388 . S
C505 H492 0.930 . S
C505 C504 1.388 . S
C505 C506 1.390 . S
C506 C505 1.390 . S
C506 C507 1.394 . S
C506 C512 1.465 . S
C507 C502 1.399 . S
C507 C506 1.394 . S
C507 C508 1.516 . S
C508 C507 1.516 . S
C508 C509 1.502 . S
C508 C510 1.561 . S
C508 C511 1.526 . S
C509 H493 0.959 . S
C509 H494 0.959 1_554 S
C509 H495 0.961 1_554 S
C509 C508 1.502 . S
C510 H496 0.960 . S
C510 H497 0.961 . S
C510 H498 0.959 . S
C510 C508 1.561 . S
C511 C508 1.526 . S
C511 C512 1.396 . S
C511 C516 1.390 . S
C512 C506 1.465 . S
C512 C511 1.396 . S
C512 C513 1.399 . S
C513 H499 0.929 . S
C513 C512 1.399 . S
C513 C514 1.385 . S
C514 H500 0.931 . S
C514 C513 1.385 . S
C514 C515 1.389 . S
C515 C514 1.389 . S
C515 C516 1.387 . S
C516 H501 0.930 . S
C516 C511 1.390 . S
C516 C515 1.387 . S
H517 C529 0.930 . S
H518 C531 0.930 . S
H519 C532 0.930 . S
H520 C536 0.959 . S
H521 C536 0.959 . S
H522 C536 0.961 . S
H523 C537 0.960 . S
H524 C537 0.961 . S
H525 C537 0.959 . S
H526 C540 0.929 . S
H527 C541 0.931 . S
H528 C543 0.930 . S
C529 H517 0.930 . S
C529 C530 1.399 . S
C529 C534 1.399 . S
C530 C529 1.399 . S
C530 C531 1.376 . S
C531 H518 0.930 . S
C531 C530 1.376 . S
C531 C532 1.388 . S
C532 H519 0.930 . S
C532 C531 1.388 . S
C532 C533 1.390 . S
C533 C532 1.390 . S
C533 C534 1.394 . S
C533 C539 1.465 . S
C534 C529 1.399 . S
C534 C533 1.394 . S
C534 C535 1.516 . S
C535 C534 1.516 . S
C535 C536 1.502 . S
C535 C537 1.561 . S
C535 C538 1.526 . S
C536 H520 0.959 . S
C536 H521 0.959 . S
C536 H522 0.961 . S
C536 C535 1.502 . S
C537 H523 0.960 . S
C537 H524 0.961 . S
C537 H525 0.959 . S
C537 C535 1.561 . S
C538 C535 1.526 . S
C538 C539 1.396 . S
C538 C543 1.390 . S
C539 C533 1.465 . S
C539 C538 1.396 . S
C539 C540 1.399 . S
C540 H526 0.929 . S
C540 C539 1.399 . S
C540 C541 1.385 . S
C541 H527 0.931 . S
C541 C540 1.385 . S
C541 C542 1.389 . S
C542 C541 1.389 . S
C542 C543 1.387 . S
C543 H528 0.930 . S
C543 C538 1.390 . S
C543 C542 1.387 . S
C125 C17 1.430 . S
C137 C3 1.434 . S
C152 C22 1.430 . S
C164 C36 1.427 . S
C179 C45 1.436 . S
C191 C31 1.422 . S
C206 C50 1.427 . S
C218 C8 1.431 . S
C233 C59 1.426 . S
C245 C73 1.421 . S
C260 C78 1.426 . S
C272 C92 1.432 . S
C287 C87 1.419 . S
C299 C101 1.429 . S
C314 C64 1.429 . S
C326 C106 1.429 . S
C341 C9 1.399 . S
C353 C107 1.454 . S
C368 C63 1.422 . S
C380 C21 1.408 . S
C395 C79 1.450 . S
C407 C37 1.405 . S
C422 C49 1.434 . S
C434 C91 1.453 . S
C449 C35 1.432 . S
C461 C105 1.452 . S
C476 C65 1.403 . S
C488 C51 1.450 . S
C503 C77 1.424 . S
C515 C7 1.445 . S
C530 C23 1.437 . S
C542 C93 1.419 . S
