# Generated by pormake.
# Topology wji, (4)-cn, num edge types: 1
# Building blocks:
#     Node 0, Type 0, BuildingBlock: UXUYUI_clean_sbu_0, # of connection points: 4
#     Node 1, Type 0, BuildingBlock: UXUYUI_clean_sbu_0, # of connection points: 4
#     Node 2, Type 0, BuildingBlock: UXUYUI_clean_sbu_0, # of connection points: 4
#     Node 3, Type 0, BuildingBlock: UXUYUI_clean_sbu_0, # of connection points: 4
#     Node 4, Type 0, BuildingBlock: UXUYUI_clean_sbu_0, # of connection points: 4
#     Node 5, Type 0, BuildingBlock: UXUYUI_clean_sbu_0, # of connection points: 4
#     Node 6, Type 0, BuildingBlock: UXUYUI_clean_sbu_0, # of connection points: 4
#     Node 7, Type 0, BuildingBlock: UXUYUI_clean_sbu_0, # of connection points: 4
#     Node 8, Type 0, BuildingBlock: UXUYUI_clean_sbu_0, # of connection points: 4
#     Node 9, Type 0, BuildingBlock: UXUYUI_clean_sbu_0, # of connection points: 4
#     Node 10, Type 0, BuildingBlock: UXUYUI_clean_sbu_0, # of connection points: 4
#     Node 11, Type 0, BuildingBlock: UXUYUI_clean_sbu_0, # of connection points: 4
#     Edge 12, Type (0, 0), BuildingBlock: XUDNAN_clean_linker_2, # of connection points: 2
#     Edge 13, Type (0, 0), BuildingBlock: XUDNAN_clean_linker_2, # of connection points: 2
#     Edge 14, Type (0, 0), BuildingBlock: XUDNAN_clean_linker_2, # of connection points: 2
#     Edge 15, Type (0, 0), BuildingBlock: XUDNAN_clean_linker_2, # of connection points: 2
#     Edge 16, Type (0, 0), BuildingBlock: XUDNAN_clean_linker_2, # of connection points: 2
#     Edge 17, Type (0, 0), BuildingBlock: XUDNAN_clean_linker_2, # of connection points: 2
#     Edge 18, Type (0, 0), BuildingBlock: XUDNAN_clean_linker_2, # of connection points: 2
#     Edge 19, Type (0, 0), BuildingBlock: XUDNAN_clean_linker_2, # of connection points: 2
#     Edge 20, Type (0, 0), BuildingBlock: XUDNAN_clean_linker_2, # of connection points: 2
#     Edge 21, Type (0, 0), BuildingBlock: XUDNAN_clean_linker_2, # of connection points: 2
#     Edge 22, Type (0, 0), BuildingBlock: XUDNAN_clean_linker_2, # of connection points: 2
#     Edge 23, Type (0, 0), BuildingBlock: XUDNAN_clean_linker_2, # of connection points: 2
#     Edge 24, Type (0, 0), BuildingBlock: XUDNAN_clean_linker_2, # of connection points: 2
#     Edge 25, Type (0, 0), BuildingBlock: XUDNAN_clean_linker_2, # of connection points: 2
#     Edge 26, Type (0, 0), BuildingBlock: XUDNAN_clean_linker_2, # of connection points: 2
#     Edge 27, Type (0, 0), BuildingBlock: XUDNAN_clean_linker_2, # of connection points: 2
#     Edge 28, Type (0, 0), BuildingBlock: XUDNAN_clean_linker_2, # of connection points: 2
#     Edge 29, Type (0, 0), BuildingBlock: XUDNAN_clean_linker_2, # of connection points: 2
#     Edge 30, Type (0, 0), BuildingBlock: XUDNAN_clean_linker_2, # of connection points: 2
#     Edge 31, Type (0, 0), BuildingBlock: XUDNAN_clean_linker_2, # of connection points: 2
#     Edge 32, Type (0, 0), BuildingBlock: XUDNAN_clean_linker_2, # of connection points: 2
#     Edge 33, Type (0, 0), BuildingBlock: XUDNAN_clean_linker_2, # of connection points: 2
#     Edge 34, Type (0, 0), BuildingBlock: XUDNAN_clean_linker_2, # of connection points: 2
#     Edge 35, Type (0, 0), BuildingBlock: XUDNAN_clean_linker_2, # of connection points: 2
# Relax obj value: 0.267
# Max RMSD: 0.141
# Mean RMSD: 0.141
data_MOF--net-wji--node1-UXUYUI_clean_sbu_0--edge1-XUDNAN_clean_linker_2
_symmetry_space_group_name_H-M    P1
_symmetry_Int_Tables_number       1
_symmetry_cell_setting            triclinic
loop_
_symmetry_equiv_pos_as_xyz
'x, y, z'
_cell_length_a     83.402469
_cell_length_b     83.392477
_cell_length_c     33.251616
_cell_angle_alpha  89.990891
_cell_angle_beta   90.013943
_cell_angle_gamma 119.98096
loop_
_atom_site_label
_atom_site_type_symbol
_atom_site_fract_x
_atom_site_fract_y
_atom_site_fract_z
_atom_type_partial_charge
Li0 Li 0.41324 0.33146 0.45296 0.0
Li1 Li 0.41648 0.30515 0.4323 0.0
Li2 Li 0.43907 0.33707 0.41039 0.0
Li3 Li 0.40766 0.32088 0.38273 0.0
C4 C 0.45031 0.33271 0.48217 0.0
N5 N 0.48537 0.34527 0.5131 0.0
C6 C 0.45764 0.32087 0.48418 0.0
C7 C 0.46081 0.35092 0.49603 0.0
C8 C 0.47538 0.32748 0.49996 0.0
C9 C 0.47851 0.35702 0.51146 0.0
C10 C 0.38049 0.29076 0.44419 0.0
C11 C 0.36034 0.25806 0.43333 0.0
N12 N 0.3545 0.25619 0.47212 0.0
C13 C 0.3742 0.28856 0.48387 0.0
C14 C 0.37345 0.27544 0.4186 0.0
C15 C 0.36108 0.27095 0.49745 0.0
C16 C 0.38864 0.3397 0.49531 0.0
N17 N 0.40475 0.33936 0.49732 0.0
C18 C 0.40739 0.34587 0.56758 0.0
C19 C 0.41421 0.3425 0.53237 0.0
C20 C 0.39054 0.34581 0.5668 0.0
C21 C 0.38129 0.34307 0.52993 0.0
H22 H 0.38116 0.33665 0.46718 0.0
H23 H 0.42672 0.34169 0.53336 0.0
C24 C 0.41272 0.268 0.44006 0.0
N25 N 0.41298 0.28291 0.45744 0.0
C26 C 0.40961 0.25274 0.4638 0.0
C27 C 0.40713 0.26861 0.52217 0.0
C28 C 0.41052 0.2835 0.4977 0.0
C29 C 0.4065 0.2529 0.50537 0.0
H30 H 0.4148 0.26789 0.40797 0.0
H31 H 0.41099 0.2956 0.51079 0.0
C32 C 0.4175 0.3599 0.41327 0.0
N33 N 0.40771 0.38576 0.43584 0.0
C34 C 0.40188 0.3594 0.39654 0.0
C35 C 0.42816 0.37358 0.44143 0.0
C36 C 0.39717 0.3726 0.40832 0.0
C37 C 0.42297 0.38651 0.45248 0.0
C38 C 0.42693 0.3106 0.33759 0.0
C39 C 0.43995 0.32427 0.31223 0.0
C40 C 0.41312 0.29392 0.32134 0.0
C41 C 0.43879 0.32109 0.2708 0.0
C42 C 0.41241 0.29128 0.27974 0.0
N43 N 0.42514 0.30481 0.25555 0.0
C44 C 0.47766 0.34939 0.40282 0.0
C45 C 0.46942 0.3727 0.39762 0.0
C46 C 0.49645 0.36279 0.40415 0.0
N47 N 0.46461 0.3546 0.4011 0.0
C48 C 0.488 0.38652 0.39851 0.0
C49 C 0.50179 0.38166 0.40303 0.0
H50 H 0.47345 0.33488 0.40519 0.0
H51 H 0.45881 0.37647 0.39582 0.0
C52 C 0.37428 0.31005 0.34001 0.0
N53 N 0.39306 0.31978 0.33708 0.0
C54 C 0.36335 0.31278 0.31201 0.0
C55 C 0.39119 0.33476 0.27725 0.0
C56 C 0.4016 0.33173 0.30611 0.0
C57 C 0.37182 0.32569 0.28076 0.0
H58 H 0.36782 0.30106 0.36552 0.0
H59 H 0.41653 0.33989 0.30537 0.0
O60 O 0.4331 0.32662 0.4661 0.0
O61 O 0.39373 0.30778 0.43064 0.0
O62 O 0.42219 0.34691 0.40267 0.0
O63 O 0.42771 0.31353 0.37814 0.0
H64 H 0.44984 0.30681 0.47322 0.0
H65 H 0.45545 0.36033 0.49434 0.0
H66 H 0.48124 0.31849 0.50155 0.0
H67 H 0.48683 0.37111 0.52197 0.0
H68 H 0.35485 0.24605 0.41393 0.0
H69 H 0.37958 0.30026 0.50414 0.0
H70 H 0.37817 0.27693 0.38782 0.0
H71 H 0.35619 0.269 0.52817 0.0
H72 H 0.41505 0.34814 0.59531 0.0
H73 H 0.36816 0.34274 0.52821 0.0
H74 H 0.40923 0.24083 0.44979 0.0
H75 H 0.40508 0.26943 0.55412 0.0
H76 H 0.39337 0.34888 0.37493 0.0
H77 H 0.44017 0.37407 0.45504 0.0
H78 H 0.38509 0.37234 0.39568 0.0
H79 H 0.43103 0.3971 0.47441 0.0
H80 H 0.45074 0.33725 0.32439 0.0
H81 H 0.40304 0.28316 0.34065 0.0
H82 H 0.4487 0.33158 0.25076 0.0
H83 H 0.40174 0.27848 0.2667 0.0
H84 H 0.50666 0.35844 0.40706 0.0
H85 H 0.49145 0.40087 0.39775 0.0
H86 H 0.34846 0.30544 0.31575 0.0
H87 H 0.39832 0.34505 0.25411 0.0
Li88 Li 0.11632 0.41751 0.59027 0.0
Li89 Li 0.08434 0.40984 0.61372 0.0
Li90 Li 0.09036 0.40729 0.54301 0.0
Li91 Li 0.10242 0.43794 0.57185 0.0
C92 C 0.08638 0.37626 0.57463 0.0
N93 N 0.0727 0.3416 0.54079 0.0
C94 C 0.06886 0.36186 0.58547 0.0
C95 C 0.09703 0.373 0.54696 0.0
C96 C 0.06217 0.34444 0.56793 0.0
C97 C 0.08984 0.35538 0.53007 0.0
C98 C 0.10918 0.43915 0.66281 0.0
C99 C 0.09882 0.45404 0.70991 0.0
N100 N 0.10978 0.45289 0.73874 0.0
C101 C 0.12038 0.43815 0.69286 0.0
C102 C 0.09834 0.44719 0.67133 0.0
C103 C 0.12048 0.44516 0.73106 0.0
C104 C 0.15236 0.43535 0.62042 0.0
N105 N 0.1379 0.41833 0.61148 0.0
C106 C 0.15081 0.40376 0.65162 0.0
C107 C 0.1371 0.40263 0.62553 0.0
C108 C 0.16516 0.42121 0.66382 0.0
C109 C 0.16621 0.43712 0.64673 0.0
H110 H 0.15235 0.44759 0.60966 0.0
H111 H 0.12516 0.3893 0.61887 0.0
C112 C 0.04853 0.38929 0.64379 0.0
N113 N 0.06661 0.39873 0.65512 0.0
C114 C 0.0347 0.37984 0.67236 0.0
C115 C 0.05834 0.39035 0.7238 0.0
C116 C 0.07173 0.39922 0.69412 0.0
C117 C 0.03962 0.38042 0.71285 0.0
H118 H 0.04491 0.38886 0.61242 0.0
H119 H 0.08619 0.40617 0.70218 0.0
C120 C 0.12253 0.42958 0.49966 0.0
N121 N 0.1358 0.43098 0.4229 0.0
C122 C 0.11906 0.43901 0.46924 0.0
C123 C 0.13292 0.42104 0.49123 0.0
C124 C 0.12585 0.43952 0.43056 0.0
C125 C 0.13945 0.42184 0.45216 0.0
C126 C 0.06453 0.42409 0.55663 0.0
C127 C 0.05972 0.42414 0.51637 0.0
C128 C 0.05685 0.43 0.58643 0.0
C129 C 0.04751 0.43042 0.50653 0.0
C130 C 0.04469 0.43618 0.57537 0.0
N131 N 0.04033 0.43628 0.53599 0.0
C132 C 0.05815 0.38087 0.50874 0.0
C133 C 0.08189 0.39244 0.45965 0.0
C134 C 0.04502 0.36977 0.48021 0.0
N135 N 0.07618 0.39199 0.49822 0.0
C136 C 0.06906 0.38183 0.42978 0.0
C137 C 0.05035 0.37038 0.44004 0.0
H138 H 0.05386 0.38097 0.53938 0.0
H139 H 0.09622 0.40121 0.45166 0.0
C140 C 0.11935 0.4762 0.59066 0.0
N141 N 0.10808 0.46297 0.56399 0.0
C142 C 0.12311 0.49443 0.58651 0.0
C143 C 0.10415 0.48527 0.52666 0.0
C144 C 0.10074 0.46724 0.53204 0.0
C145 C 0.11537 0.49915 0.55426 0.0
H146 H 0.12545 0.47261 0.61523 0.0
H147 H 0.0922 0.45664 0.51068 0.0
O148 O 0.09299 0.39351 0.5907 0.0
O149 O 0.1088 0.43223 0.62531 0.0
O150 O 0.11632 0.42922 0.53782 0.0
O151 O 0.07639 0.41791 0.56686 0.0
H152 H 0.06047 0.36417 0.60693 0.0
H153 H 0.11063 0.38399 0.53838 0.0
H154 H 0.04858 0.3332 0.57582 0.0
H155 H 0.09788 0.35268 0.50841 0.0
H156 H 0.09049 0.46028 0.71694 0.0
H157 H 0.12875 0.43184 0.68691 0.0
H158 H 0.08971 0.44818 0.64835 0.0
H159 H 0.12902 0.44442 0.75465 0.0
H160 H 0.14942 0.39119 0.66447 0.0
H161 H 0.1771 0.45081 0.6553 0.0
H162 H 0.02034 0.37222 0.66303 0.0
H163 H 0.06255 0.3908 0.7548 0.0
H164 H 0.11114 0.44577 0.47537 0.0
H165 H 0.13598 0.41396 0.51466 0.0
H166 H 0.1232 0.44668 0.40665 0.0
H167 H 0.14746 0.41525 0.44514 0.0
H168 H 0.06553 0.41959 0.49291 0.0
H169 H 0.06016 0.42973 0.61779 0.0
H170 H 0.04377 0.43066 0.47548 0.0
H171 H 0.03868 0.44086 0.59811 0.0
H172 H 0.03069 0.36128 0.48923 0.0
H173 H 0.07366 0.3826 0.39902 0.0
H174 H 0.13211 0.50475 0.60807 0.0
H175 H 0.0978 0.48823 0.50148 0.0
Li176 Li 0.70179 0.11879 0.7555 0.0
Li177 Li 0.67763 0.0881 0.77981 0.0
Li178 Li 0.68545 0.09297 0.7062 0.0
Li179 Li 0.66826 0.10624 0.73771 0.0
C180 C 0.71818 0.09596 0.75591 0.0
N181 N 0.75243 0.09856 0.7621 0.0
C182 C 0.72381 0.09199 0.79236 0.0
C183 C 0.72991 0.1011 0.72251 0.0
C184 C 0.7412 0.09343 0.79491 0.0
C185 C 0.74719 0.10237 0.72628 0.0
C186 C 0.67745 0.11361 0.8316 0.0
C187 C 0.6569 0.10733 0.88795 0.0
N188 N 0.67177 0.11582 0.91288 0.0
C189 C 0.69253 0.12233 0.85784 0.0
C190 C 0.65948 0.10612 0.84679 0.0
C191 C 0.68937 0.12329 0.89879 0.0
C192 C 0.71924 0.15458 0.78414 0.0
N193 N 0.72302 0.1409 0.77526 0.0
C194 C 0.75096 0.15604 0.81395 0.0
C195 C 0.73891 0.14176 0.78827 0.0
C196 C 0.74648 0.16941 0.82655 0.0
C197 C 0.73081 0.16901 0.80986 0.0
H198 H 0.70639 0.15343 0.77392 0.0
H199 H 0.74173 0.13081 0.78123 0.0
C200 C 0.65884 0.05243 0.81203 0.0
N201 N 0.67118 0.07032 0.82134 0.0
C202 C 0.65436 0.03845 0.84022 0.0
C203 C 0.67547 0.06152 0.8871 0.0
C204 C 0.67965 0.07504 0.85784 0.0
C205 C 0.66276 0.04295 0.87827 0.0
H206 H 0.65271 0.04896 0.7824 0.0
H207 H 0.69007 0.08917 0.86391 0.0
C208 C 0.69998 0.12602 0.66701 0.0
N209 N 0.71901 0.13956 0.5957 0.0
C210 C 0.6905 0.12566 0.63207 0.0
C211 C 0.71916 0.13351 0.66588 0.0
C212 C 0.70036 0.1325 0.59625 0.0
C213 C 0.72852 0.14022 0.62948 0.0
C214 C 0.64205 0.07025 0.7295 0.0
C215 C 0.6336 0.06351 0.69222 0.0
C216 C 0.63109 0.06721 0.76358 0.0
C217 C 0.6143 0.05413 0.68954 0.0
C218 C 0.61184 0.05776 0.75969 0.0
N219 N 0.60391 0.05149 0.72304 0.0
C220 C 0.69199 0.06692 0.66756 0.0
C221 C 0.67621 0.07778 0.62651 0.0
C222 C 0.68829 0.05277 0.64023 0.0
N223 N 0.68568 0.07888 0.66072 0.0
C224 C 0.67204 0.06368 0.59844 0.0
C225 C 0.67754 0.05052 0.60586 0.0
H226 H 0.69884 0.06754 0.69556 0.0
H227 H 0.67062 0.08688 0.62245 0.0
C228 C 0.64629 0.12221 0.75791 0.0
N229 N 0.64949 0.11258 0.72912 0.0
C230 C 0.63183 0.12596 0.7535 0.0
C231 C 0.62472 0.11052 0.68906 0.0
C232 C 0.63935 0.1071 0.6947 0.0
C233 C 0.62065 0.11988 0.71894 0.0
H234 H 0.65492 0.12693 0.78441 0.0
H235 H 0.64246 0.09984 0.67186 0.0
O236 O 0.70118 0.09457 0.75286 0.0
O237 O 0.68026 0.11269 0.79126 0.0
O238 O 0.69054 0.11931 0.70226 0.0
O239 O 0.66094 0.07973 0.73265 0.0
H240 H 0.71489 0.08794 0.81844 0.0
H241 H 0.72566 0.10397 0.69394 0.0
H242 H 0.74577 0.09047 0.82297 0.0
H243 H 0.75641 0.10636 0.70071 0.0
H244 H 0.64306 0.10157 0.90005 0.0
H245 H 0.70653 0.12798 0.84699 0.0
H246 H 0.64763 0.09955 0.82704 0.0
H247 H 0.70092 0.12991 0.91939 0.0
H248 H 0.76287 0.15579 0.82615 0.0
H249 H 0.72698 0.1792 0.8183 0.0
H250 H 0.64444 0.02427 0.83234 0.0
H251 H 0.6825 0.06547 0.91585 0.0
H252 H 0.67566 0.12006 0.63261 0.0
H253 H 0.72672 0.13415 0.69282 0.0
H254 H 0.69319 0.1322 0.56889 0.0
H255 H 0.74336 0.14597 0.62811 0.0
H256 H 0.64183 0.06564 0.66556 0.0
H257 H 0.63739 0.072 0.79275 0.0
H258 H 0.60758 0.04896 0.66082 0.0
H259 H 0.60321 0.05538 0.78582 0.0
H260 H 0.69305 0.04314 0.64703 0.0
H261 H 0.6635 0.06237 0.57274 0.0
H262 H 0.62948 0.1336 0.77688 0.0
H263 H 0.61644 0.10548 0.66201 0.0
Li264 Li 0.58946 0.67296 0.94805 0.0
Li265 Li 0.58521 0.69825 0.92674 0.0
Li266 Li 0.56129 0.66452 0.91112 0.0
Li267 Li 0.59162 0.67982 0.87862 0.0
C268 C 0.5667 0.67398 0.00258 0.0
N269 N 0.56248 0.66644 0.08399 0.0
C270 C 0.57767 0.68776 0.03026 0.0
C271 C 0.55348 0.65643 0.01625 0.0
C272 C 0.57534 0.68366 0.07131 0.0
C273 C 0.55159 0.65287 0.05755 0.0
C274 C 0.62213 0.71261 0.90728 0.0
C275 C 0.6328 0.73798 0.8604 0.0
N276 N 0.65018 0.74531 0.87575 0.0
C277 C 0.64008 0.72038 0.9226 0.0
C278 C 0.61843 0.72146 0.87595 0.0
C279 C 0.65408 0.73693 0.90625 0.0
C280 C 0.58713 0.64631 0.00182 0.0
N281 N 0.59731 0.66457 0.9925 0.0
C282 C 0.61501 0.67073 0.0527 0.0
C283 C 0.61124 0.67676 0.01661 0.0
C284 C 0.60427 0.65203 0.06382 0.0
C285 C 0.59042 0.63969 0.03748 0.0
H286 H 0.57596 0.63703 0.98223 0.0
H287 H 0.61886 0.69127 0.00858 0.0
C288 C 0.56944 0.71684 0.96207 0.0
N289 N 0.58618 0.71999 0.94867 0.0
C290 C 0.56832 0.7291 0.98898 0.0
C291 C 0.60156 0.74852 0.98532 0.0
C292 C 0.60211 0.73564 0.95908 0.0
C293 C 0.58456 0.74489 0.00169 0.0
H294 H 0.55706 0.70406 0.95424 0.0
H295 H 0.61533 0.73762 0.94944 0.0
C296 C 0.58824 0.64608 0.89707 0.0
N297 N 0.60841 0.62886 0.87958 0.0
C298 C 0.60727 0.65509 0.90479 0.0
C299 C 0.5795 0.62831 0.8804 0.0
C300 C 0.61721 0.64614 0.89576 0.0
C301 C 0.58993 0.61984 0.8718 0.0
C302 C 0.56589 0.6858 0.836 0.0
C303 C 0.55395 0.66862 0.8186 0.0
C304 C 0.57151 0.70197 0.81372 0.0
C305 C 0.54816 0.66787 0.77888 0.0
C306 C 0.5654 0.70064 0.77408 0.0
N307 N 0.55397 0.68376 0.7576 0.0
C308 C 0.52267 0.65197 0.91161 0.0
C309 C 0.53107 0.6287 0.91037 0.0
C310 C 0.50392 0.63855 0.91459 0.0
N311 N 0.53573 0.64679 0.90979 0.0
C312 C 0.51257 0.61486 0.91315 0.0
C313 C 0.4987 0.6197 0.91568 0.0
H314 H 0.52685 0.66652 0.9116 0.0
H315 H 0.5418 0.62504 0.90988 0.0
C316 C 0.62173 0.68662 0.82341 0.0
N317 N 0.60309 0.6774 0.82994 0.0
C318 C 0.62948 0.68009 0.79486 0.0
C319 C 0.59879 0.65513 0.77943 0.0
C320 C 0.59163 0.66225 0.80764 0.0
C321 C 0.61797 0.66372 0.77373 0.0
H322 H 0.6308 0.69813 0.84232 0.0
H323 H 0.57705 0.65455 0.81452 0.0
O324 O 0.56914 0.67756 0.96224 0.0
O325 O 0.60835 0.69642 0.92307 0.0
O326 O 0.5783 0.65483 0.90409 0.0
O327 O 0.57157 0.68685 0.87503 0.0
H328 H 0.58806 0.70139 0.02014 0.0
H329 H 0.54494 0.6456 0.99517 0.0
H330 H 0.58381 0.69414 0.09309 0.0
H331 H 0.54152 0.63931 0.06858 0.0
H332 H 0.63012 0.74496 0.83613 0.0
H333 H 0.64316 0.71368 0.94686 0.0
H334 H 0.60467 0.71564 0.8638 0.0
H335 H 0.66805 0.7431 0.9178 0.0
H336 H 0.62571 0.6807 0.07235 0.0
H337 H 0.58202 0.62512 0.04464 0.0
H338 H 0.55499 0.72584 0.00119 0.0
H339 H 0.61438 0.76046 0.99498 0.0
H340 H 0.61439 0.66891 0.91718 0.0
H341 H 0.56486 0.62123 0.8736 0.0
H342 H 0.63194 0.65299 0.90145 0.0
H343 H 0.58335 0.60613 0.85872 0.0
H344 H 0.54935 0.65596 0.83539 0.0
H345 H 0.58039 0.71543 0.82692 0.0
H346 H 0.53905 0.65464 0.76496 0.0
H347 H 0.5697 0.71304 0.75646 0.0
H348 H 0.49366 0.64286 0.91628 0.0
H349 H 0.50922 0.60054 0.9147 0.0
H350 H 0.64438 0.68691 0.79164 0.0
H351 H 0.5895 0.64237 0.76395 0.0
Li352 Li 0.91913 0.5936 0.10472 0.0
Li353 Li 0.88817 0.5872 0.08476 0.0
Li354 Li 0.89762 0.5641 0.0734 0.0
Li355 Li 0.91147 0.59212 0.03537 0.0
C356 C 0.89059 0.57737 0.16292 0.0
N357 N 0.88141 0.58445 0.23809 0.0
C358 C 0.89707 0.59561 0.1754 0.0
C359 C 0.87947 0.56275 0.18869 0.0
C360 C 0.89227 0.59889 0.2135 0.0
C361 C 0.87498 0.56661 0.22659 0.0
C362 C 0.91416 0.62361 0.04982 0.0
C363 C 0.90159 0.63423 0.99764 0.0
N364 N 0.91824 0.65004 0.99424 0.0
C365 C 0.93114 0.63998 0.04587 0.0
C366 C 0.89925 0.6207 0.02554 0.0
C367 C 0.93292 0.65316 0.01757 0.0
C368 C 0.95382 0.62125 0.13122 0.0
N369 N 0.93865 0.60518 0.14248 0.0
C370 C 0.95269 0.60548 0.20523 0.0
C371 C 0.93784 0.59715 0.17856 0.0
C372 C 0.9685 0.62226 0.19468 0.0
C373 C 0.96894 0.63016 0.15708 0.0
H374 H 0.95425 0.62701 0.1019 0.0
H375 H 0.92582 0.5841 0.1864 0.0
C376 C 0.85177 0.57565 0.11277 0.0
N377 N 0.86849 0.59066 0.1041 0.0
C378 C 0.83846 0.57776 0.13413 0.0
C379 C 0.85973 0.61072 0.13652 0.0
C380 C 0.87258 0.60799 0.11518 0.0
C381 C 0.84247 0.59547 0.14685 0.0
H382 H 0.84907 0.56197 0.10454 0.0
H383 H 0.8862 0.61962 0.1093 0.0
C384 C 0.93497 0.57379 0.07663 0.0
N385 N 0.9566 0.55994 0.10623 0.0
C386 C 0.95072 0.57671 0.05566 0.0
C387 C 0.93022 0.56383 0.11269 0.0
C388 C 0.96148 0.5696 0.07111 0.0
C389 C 0.94133 0.55694 0.12714 0.0
C390 C 0.88046 0.56195 0.00061 0.0
C391 C 0.89364 0.55851 0.98288 0.0
C392 C 0.86297 0.55473 0.98308 0.0
C393 C 0.88908 0.54787 0.94785 0.0
C394 C 0.85894 0.54415 0.94805 0.0
N395 N 0.87197 0.54097 0.93131 0.0
C396 C 0.87515 0.52683 0.0977 0.0
C397 C 0.89966 0.53193 0.05395 0.0
C398 C 0.87071 0.50846 0.10361 0.0
N399 N 0.88969 0.53824 0.07396 0.0
C400 C 0.8959 0.51379 0.05944 0.0
C401 C 0.88149 0.50183 0.08528 0.0
H402 H 0.86736 0.53217 0.11302 0.0
H403 H 0.91114 0.54122 0.03514 0.0
C404 C 0.94239 0.61142 0.98752 0.0
N405 N 0.92364 0.60311 0.9856 0.0
C406 C 0.95311 0.61846 0.95289 0.0
C407 C 0.92507 0.60893 0.9149 0.0
C408 C 0.91485 0.6021 0.95043 0.0
C409 C 0.94447 0.61694 0.91571 0.0
H410 H 0.949 0.61213 0.01598 0.0
H411 H 0.89993 0.59558 0.94975 0.0
O412 O 0.89472 0.57376 0.12535 0.0
O413 O 0.91222 0.6102 0.07635 0.0
O414 O 0.92437 0.58075 0.06175 0.0
O415 O 0.88453 0.57236 0.03487 0.0
H416 H 0.90564 0.60711 0.15583 0.0
H417 H 0.87431 0.54855 0.17949 0.0
H418 H 0.89714 0.61293 0.22348 0.0
H419 H 0.86636 0.55542 0.24683 0.0
H420 H 0.89019 0.63212 0.97855 0.0
H421 H 0.94284 0.6425 0.06429 0.0
H422 H 0.88607 0.60802 0.02787 0.0
H423 H 0.946 0.66587 0.01411 0.0
H424 H 0.9519 0.59865 0.23345 0.0
H425 H 0.98078 0.64311 0.14776 0.0
H426 H 0.82532 0.56561 0.14113 0.0
H427 H 0.86364 0.62458 0.14635 0.0
H428 H 0.95458 0.58436 0.02767 0.0
H429 H 0.91804 0.56132 0.12928 0.0
H430 H 0.9737 0.57175 0.05517 0.0
H431 H 0.93779 0.54918 0.15496 0.0
H432 H 0.9073 0.56409 0.99574 0.0
H433 H 0.85262 0.55729 0.99644 0.0
H434 H 0.89917 0.54513 0.93379 0.0
H435 H 0.84545 0.53848 0.93416 0.0
H436 H 0.8592 0.4997 0.12305 0.0
H437 H 0.9048 0.50954 0.04498 0.0
H438 H 0.96796 0.62431 0.95502 0.0
H439 H 0.91784 0.6077 0.887 0.0
Li440 Li 0.32777 0.91375 0.2769 0.0
Li441 Li 0.30326 0.88479 0.25188 0.0
Li442 Li 0.33621 0.89493 0.23653 0.0
Li443 Li 0.32076 0.9113 0.20627 0.0
C444 C 0.32975 0.88596 0.32456 0.0
N445 N 0.34235 0.87997 0.39686 0.0
C446 C 0.31759 0.87793 0.35695 0.0
C447 C 0.34832 0.89081 0.32902 0.0
C448 C 0.32423 0.87507 0.39323 0.0
C449 C 0.35442 0.88769 0.36577 0.0
C450 C 0.29178 0.90897 0.2782 0.0
C451 C 0.26603 0.91346 0.29365 0.0
N452 N 0.26588 0.90766 0.33196 0.0
C453 C 0.29136 0.90309 0.31773 0.0
C454 C 0.27902 0.91422 0.26603 0.0
C455 C 0.27817 0.90251 0.34445 0.0
C456 C 0.3307 0.945 0.31343 0.0
N457 N 0.33476 0.93132 0.31983 0.0
C458 C 0.34609 0.94295 0.38561 0.0
C459 C 0.34261 0.93027 0.35483 0.0
C460 C 0.34154 0.95691 0.38022 0.0
C461 C 0.33397 0.958 0.34332 0.0
H462 H 0.3247 0.94569 0.2851 0.0
H463 H 0.34603 0.91957 0.35933 0.0
C464 C 0.28139 0.85078 0.29034 0.0
N465 N 0.2802 0.86393 0.2685 0.0
C466 C 0.26657 0.83843 0.31436 0.0
C467 C 0.24895 0.85224 0.28998 0.0
C468 C 0.26408 0.86425 0.26624 0.0
C469 C 0.25039 0.83966 0.31585 0.0
H470 H 0.29437 0.85083 0.29165 0.0
H471 H 0.26337 0.8747 0.24834 0.0
C472 C 0.3587 0.93877 0.24462 0.0
N473 N 0.38456 0.97313 0.27396 0.0
C474 C 0.35842 0.95464 0.23212 0.0
C475 C 0.37223 0.94041 0.27178 0.0
C476 C 0.37159 0.97188 0.24735 0.0
C477 C 0.38515 0.9579 0.28635 0.0
C478 C 0.30038 0.87629 0.17043 0.0
C479 C 0.29949 0.8625 0.14513 0.0
C480 C 0.28687 0.88149 0.16756 0.0
C481 C 0.28506 0.8541 0.1173 0.0
C482 C 0.27266 0.87276 0.13936 0.0
N483 N 0.27206 0.85936 0.11502 0.0
C484 C 0.3495 0.86966 0.23855 0.0
C485 C 0.37161 0.90031 0.21964 0.0
C486 C 0.36323 0.86472 0.2399 0.0
N487 N 0.354 0.8873 0.22931 0.0
C488 C 0.38578 0.89602 0.22092 0.0
C489 C 0.38177 0.87811 0.23201 0.0
H490 H 0.33538 0.85966 0.24647 0.0
H491 H 0.3748 0.91427 0.21269 0.0
C492 C 0.31391 0.93705 0.1664 0.0
N493 N 0.32146 0.92602 0.16155 0.0
C494 C 0.31787 0.95129 0.13907 0.0
C495 C 0.33655 0.94198 0.10105 0.0
C496 C 0.33227 0.92793 0.12925 0.0
C497 C 0.32981 0.95429 0.10652 0.0
H498 H 0.30579 0.93557 0.1929 0.0
H499 H 0.33847 0.91927 0.12671 0.0
O500 O 0.3234 0.88858 0.28852 0.0
O501 O 0.30438 0.90933 0.25123 0.0
O502 O 0.34559 0.92171 0.23093 0.0
O503 O 0.31441 0.88454 0.19791 0.0
H504 H 0.30314 0.87392 0.35424 0.0
H505 H 0.35802 0.89712 0.30467 0.0
H506 H 0.31496 0.86892 0.41849 0.0
H507 H 0.36876 0.89146 0.3696 0.0
H508 H 0.25604 0.91742 0.28459 0.0
H509 H 0.30111 0.899 0.32765 0.0
H510 H 0.27899 0.91863 0.23545 0.0
H511 H 0.2777 0.89794 0.3751 0.0
H512 H 0.35185 0.94154 0.41369 0.0
H513 H 0.3306 0.96875 0.33758 0.0
H514 H 0.26834 0.82901 0.33383 0.0
H515 H 0.23659 0.85341 0.28959 0.0
H516 H 0.34804 0.95366 0.21123 0.0
H517 H 0.37265 0.92831 0.28185 0.0
H518 H 0.37146 0.98425 0.23811 0.0
H519 H 0.39562 0.95934 0.3076 0.0
H520 H 0.30984 0.85831 0.14703 0.0
H521 H 0.28729 0.89213 0.1868 0.0
H522 H 0.2842 0.8434 0.09752 0.0
H523 H 0.26211 0.87664 0.13682 0.0
H524 H 0.35941 0.85068 0.24799 0.0
H525 H 0.39983 0.90691 0.21516 0.0
H526 H 0.31222 0.96031 0.14427 0.0
H527 H 0.34597 0.9439 0.07671 0.0
Li528 Li 0.68 0.58922 0.45946 0.0
Li529 Li 0.66599 0.56012 0.42109 0.0
Li530 Li 0.69838 0.58404 0.40541 0.0
Li531 Li 0.67257 0.58815 0.38799 0.0
C532 C 0.70205 0.5744 0.48465 0.0
N533 N 0.73048 0.58339 0.53869 0.0
C534 C 0.70195 0.56072 0.50912 0.0
C535 C 0.71662 0.59266 0.48764 0.0
C536 C 0.71645 0.56555 0.53627 0.0
C537 C 0.73086 0.59692 0.51514 0.0
C538 C 0.6382 0.56443 0.44589 0.0
C539 C 0.60616 0.54266 0.43145 0.0
N540 N 0.60284 0.53932 0.47149 0.0
C541 C 0.63445 0.56087 0.48692 0.0
C542 C 0.62393 0.55536 0.41792 0.0
C543 C 0.61648 0.54811 0.49925 0.0
C544 C 0.67066 0.6111 0.50477 0.0
N545 N 0.67861 0.60037 0.5088 0.0
C546 C 0.67848 0.60299 0.58048 0.0
C547 C 0.6827 0.59633 0.54572 0.0
C548 C 0.66991 0.61382 0.57718 0.0
C549 C 0.66634 0.61812 0.53859 0.0
H550 H 0.66686 0.61346 0.4752 0.0
H551 H 0.68851 0.58735 0.54841 0.0
C552 C 0.6428 0.52414 0.39008 0.0
N553 N 0.64881 0.53409 0.42468 0.0
C554 C 0.62864 0.5057 0.39092 0.0
C555 C 0.62786 0.5076 0.46333 0.0
C556 C 0.64201 0.52609 0.46104 0.0
C557 C 0.62074 0.49729 0.42782 0.0
H558 H 0.64877 0.53057 0.36168 0.0
H559 H 0.64719 0.53424 0.48819 0.0
C560 C 0.70207 0.6221 0.39399 0.0
N561 N 0.71381 0.65398 0.34921 0.0
C562 C 0.71091 0.62417 0.35706 0.0
C563 C 0.69931 0.6363 0.40824 0.0
C564 C 0.71672 0.64037 0.33486 0.0
C565 C 0.7053 0.65229 0.38513 0.0
C566 C 0.6743 0.56783 0.32769 0.0
C567 C 0.68882 0.57449 0.2999 0.0
C568 C 0.65609 0.56019 0.3139 0.0
C569 C 0.68486 0.5734 0.25883 0.0
C570 C 0.6527 0.55938 0.27259 0.0
N571 N 0.66704 0.56595 0.24614 0.0
C572 C 0.72169 0.57326 0.36799 0.0
C573 C 0.73705 0.60487 0.38689 0.0
C574 C 0.73694 0.57603 0.34514 0.0
N575 N 0.72174 0.58775 0.38686 0.0
C576 C 0.75261 0.60828 0.36441 0.0
C577 C 0.75241 0.5939 0.34182 0.0
H578 H 0.70926 0.55981 0.36824 0.0
H579 H 0.73678 0.61615 0.40231 0.0
C580 C 0.64857 0.60062 0.36371 0.0
N581 N 0.66314 0.59896 0.35084 0.0
C582 C 0.64006 0.60728 0.33788 0.0
C583 C 0.6621 0.61105 0.28637 0.0
C584 C 0.67029 0.60449 0.31333 0.0
C585 C 0.64659 0.61226 0.29831 0.0
H586 H 0.64341 0.59656 0.39399 0.0
H587 H 0.6821 0.60347 0.30384 0.0
O588 O 0.68791 0.5698 0.45802 0.0
O589 O 0.65577 0.5766 0.43313 0.0
O590 O 0.69618 0.60626 0.41603 0.0
O591 O 0.67789 0.56869 0.36809 0.0
H592 H 0.69076 0.54653 0.50717 0.0
H593 H 0.71694 0.60346 0.46915 0.0
H594 H 0.71654 0.55511 0.55542 0.0
H595 H 0.74221 0.61099 0.5178 0.0
H596 H 0.59502 0.53546 0.41011 0.0
H597 H 0.64532 0.56768 0.509 0.0
H598 H 0.62656 0.55806 0.3861 0.0
H599 H 0.61341 0.54514 0.53088 0.0
H600 H 0.68147 0.59933 0.60966 0.0
H601 H 0.65937 0.62603 0.53454 0.0
H602 H 0.62384 0.49812 0.36292 0.0
H603 H 0.62213 0.50164 0.49241 0.0
H604 H 0.7129 0.61322 0.34521 0.0
H605 H 0.69267 0.63504 0.43689 0.0
H606 H 0.72345 0.64208 0.30609 0.0
H607 H 0.70322 0.66337 0.39578 0.0
H608 H 0.70301 0.58067 0.3098 0.0
H609 H 0.64469 0.55513 0.33486 0.0
H610 H 0.69597 0.57857 0.23704 0.0
H611 H 0.63868 0.55359 0.26158 0.0
H612 H 0.73608 0.56456 0.32812 0.0
H613 H 0.76438 0.62219 0.36339 0.0
H614 H 0.62841 0.60839 0.34874 0.0
H615 H 0.66756 0.61455 0.25611 0.0
Li616 Li 0.08887 0.67952 0.61264 0.0
Li617 Li 0.10602 0.6664 0.58191 0.0
Li618 Li 0.11691 0.70113 0.57492 0.0
Li619 Li 0.08855 0.67659 0.54008 0.0
C620 C 0.11802 0.68823 0.66454 0.0
N621 N 0.12395 0.69219 0.74654 0.0
C622 C 0.11329 0.67273 0.6885 0.0
C623 C 0.1259 0.70577 0.68215 0.0
C624 C 0.11637 0.67501 0.72994 0.0
C625 C 0.12874 0.70747 0.72371 0.0
C626 C 0.07006 0.63824 0.58728 0.0
C627 C 0.05895 0.60697 0.56444 0.0
N628 N 0.05218 0.60058 0.60185 0.0
C629 C 0.06298 0.63135 0.62552 0.0
C630 C 0.06799 0.62595 0.55646 0.0
C631 C 0.05397 0.61227 0.63226 0.0
C632 C 0.05382 0.66838 0.63767 0.0
N633 N 0.07101 0.67573 0.65399 0.0
C634 C 0.0582 0.67156 0.72027 0.0
C635 C 0.07351 0.67789 0.69452 0.0
C636 C 0.04018 0.66315 0.70411 0.0
C637 C 0.03827 0.66226 0.66205 0.0
H638 H 0.05213 0.66668 0.60543 0.0
H639 H 0.0872 0.68387 0.70717 0.0
C640 C 0.12703 0.65049 0.55585 0.0
N641 N 0.11415 0.64855 0.58341 0.0
C642 C 0.13116 0.63637 0.55007 0.0
C643 C 0.10954 0.61892 0.60285 0.0
C644 C 0.10607 0.63353 0.60803 0.0
C645 C 0.12182 0.61995 0.57263 0.0
H646 H 0.13363 0.66275 0.53724 0.0
H647 H 0.09624 0.63243 0.63048 0.0
C648 C 0.08319 0.7067 0.5871 0.0
N649 N 0.06464 0.72289 0.62158 0.0
C650 C 0.06622 0.70324 0.57136 0.0
C651 C 0.09083 0.7185 0.6201 0.0
C652 C 0.05703 0.71154 0.58929 0.0
C653 C 0.0812 0.72652 0.63719 0.0
C654 C 0.11663 0.68131 0.49327 0.0
C655 C 0.12612 0.69733 0.46998 0.0
C656 C 0.10883 0.66395 0.47482 0.0
C657 C 0.12752 0.6957 0.42848 0.0
C658 C 0.1105 0.66291 0.43323 0.0
N659 N 0.11973 0.67867 0.41112 0.0
C660 C 0.1544 0.72707 0.55679 0.0
C661 C 0.13328 0.73813 0.55084 0.0
C662 C 0.16808 0.74272 0.53673 0.0
N663 N 0.1373 0.72493 0.56264 0.0
C664 C 0.1465 0.75395 0.53077 0.0
C665 C 0.16404 0.7562 0.52239 0.0
H666 H 0.15703 0.71607 0.56533 0.0
H667 H 0.11939 0.73579 0.55449 0.0
C668 C 0.05911 0.6557 0.48649 0.0
N669 N 0.07468 0.67229 0.49249 0.0
C670 C 0.04932 0.65219 0.45052 0.0
C671 C 0.07152 0.68309 0.42815 0.0
C672 C 0.08077 0.68606 0.46471 0.0
C673 C 0.05566 0.66592 0.42066 0.0
H674 H 0.05435 0.64518 0.5095 0.0
H675 H 0.09294 0.69928 0.47087 0.0
O676 O 0.1155 0.68635 0.62388 0.0
O677 O 0.0789 0.65689 0.58003 0.0
O678 O 0.09222 0.69843 0.57046 0.0
O679 O 0.1148 0.68259 0.53386 0.0
H680 H 0.10724 0.65909 0.67526 0.0
H681 H 0.12982 0.71792 0.66387 0.0
H682 H 0.11271 0.66313 0.74891 0.0
H683 H 0.13478 0.72095 0.7378 0.0
H684 H 0.05733 0.59732 0.5409 0.0
H685 H 0.06461 0.6406 0.64994 0.0
H686 H 0.0734 0.63101 0.52673 0.0
H687 H 0.04849 0.60677 0.66172 0.0
H688 H 0.06045 0.67256 0.75245 0.0
H689 H 0.02482 0.65645 0.64789 0.0
H690 H 0.1412 0.63812 0.52732 0.0
H691 H 0.10193 0.6066 0.62103 0.0
H692 H 0.06016 0.69413 0.54579 0.0
H693 H 0.10397 0.7213 0.63254 0.0
H694 H 0.04384 0.70893 0.5776 0.0
H695 H 0.08689 0.7356 0.66289 0.0
H696 H 0.13217 0.71088 0.48365 0.0
H697 H 0.10148 0.65143 0.4924 0.0
H698 H 0.13475 0.70798 0.41006 0.0
H699 H 0.10445 0.64957 0.41854 0.0
H700 H 0.18143 0.74392 0.53127 0.0
H701 H 0.14258 0.76372 0.51973 0.0
H702 H 0.03715 0.63876 0.44581 0.0
H703 H 0.07664 0.69412 0.4061 0.0
Li704 Li 0.44159 0.10418 0.75026 0.0
Li705 Li 0.41279 0.08859 0.78548 0.0
Li706 Li 0.41192 0.0829 0.7161 0.0
Li707 Li 0.41657 0.11347 0.7417 0.0
C708 C 0.43438 0.06857 0.74028 0.0
N709 N 0.45338 0.05267 0.70609 0.0
C710 C 0.4375 0.05608 0.76231 0.0
C711 C 0.44106 0.073 0.70095 0.0
C712 C 0.44709 0.04818 0.74448 0.0
C713 C 0.45058 0.06481 0.68415 0.0
C714 C 0.43274 0.11808 0.83002 0.0
C715 C 0.42534 0.1297 0.88932 0.0
N716 N 0.43351 0.12234 0.91245 0.0
C717 C 0.44122 0.11077 0.85427 0.0
C718 C 0.42482 0.12771 0.84753 0.0
C719 C 0.4414 0.11301 0.89594 0.0
C720 C 0.47875 0.12767 0.72556 0.0
N721 N 0.46756 0.11315 0.74959 0.0
C722 C 0.49247 0.1078 0.76513 0.0
C723 C 0.4742 0.10369 0.77043 0.0
C724 C 0.50414 0.12202 0.73861 0.0
C725 C 0.49719 0.13238 0.71963 0.0
H726 H 0.47317 0.13515 0.70982 0.0
H727 H 0.46509 0.09241 0.78991 0.0
C728 C 0.4017 0.05926 0.83971 0.0
N729 N 0.40139 0.07528 0.83486 0.0
C730 C 0.39331 0.04789 0.87292 0.0
C731 C 0.38391 0.06942 0.89571 0.0
C732 C 0.39268 0.08051 0.86208 0.0
C733 C 0.38411 0.05278 0.90152 0.0
H734 H 0.40825 0.0551 0.81739 0.0
H735 H 0.39218 0.09306 0.85733 0.0
C736 C 0.43356 0.11312 0.66042 0.0
N737 N 0.43873 0.12304 0.58001 0.0
C738 C 0.42127 0.11723 0.64054 0.0
C739 C 0.44862 0.11426 0.63932 0.0
C740 C 0.42408 0.12216 0.59993 0.0
C741 C 0.45095 0.11923 0.59872 0.0
C742 C 0.37841 0.07692 0.7641 0.0
C743 C 0.37099 0.05775 0.76226 0.0
C744 C 0.36917 0.08423 0.78574 0.0
C745 C 0.35445 0.04618 0.78238 0.0
C746 C 0.35263 0.07219 0.80537 0.0
N747 N 0.34569 0.05358 0.80334 0.0
C748 C 0.39844 0.04868 0.67281 0.0
C749 C 0.3909 0.07039 0.6459 0.0
C750 C 0.38936 0.03651 0.64113 0.0
N751 N 0.39957 0.06553 0.67389 0.0
C752 C 0.3816 0.05863 0.61379 0.0
C753 C 0.38098 0.04155 0.61088 0.0
H754 H 0.40438 0.04453 0.69662 0.0
H755 H 0.39101 0.08332 0.64874 0.0
C756 C 0.42747 0.1498 0.71526 0.0
N757 N 0.41263 0.13324 0.72563 0.0
C758 C 0.42491 0.16314 0.69527 0.0
C759 C 0.39187 0.14231 0.69812 0.0
C760 C 0.39506 0.12938 0.71787 0.0
C761 C 0.40691 0.15936 0.68583 0.0
H762 H 0.44132 0.1523 0.72079 0.0
H763 H 0.38354 0.11585 0.7249 0.0
O764 O 0.42559 0.07696 0.75793 0.0
O765 O 0.43229 0.1159 0.78926 0.0
O766 O 0.43125 0.10863 0.70055 0.0
O767 O 0.39481 0.08845 0.74539 0.0
H768 H 0.43285 0.0527 0.79309 0.0
H769 H 0.43867 0.08242 0.68334 0.0
H770 H 0.44962 0.03855 0.76126 0.0
H771 H 0.45571 0.0681 0.65364 0.0
H772 H 0.41918 0.13704 0.90337 0.0
H773 H 0.44741 0.10329 0.84105 0.0
H774 H 0.41825 0.13347 0.82904 0.0
H775 H 0.44778 0.10731 0.91515 0.0
H776 H 0.49706 0.09931 0.78026 0.0
H777 H 0.50576 0.14374 0.69968 0.0
H778 H 0.39418 0.03543 0.87613 0.0
H779 H 0.37675 0.07369 0.91645 0.0
H780 H 0.40953 0.11643 0.65607 0.0
H781 H 0.45846 0.11137 0.65401 0.0
H782 H 0.41459 0.12527 0.58425 0.0
H783 H 0.4625 0.12009 0.58209 0.0
H784 H 0.37806 0.05188 0.74594 0.0
H785 H 0.37486 0.09904 0.78796 0.0
H786 H 0.3486 0.03132 0.78144 0.0
H787 H 0.34539 0.07765 0.82245 0.0
H788 H 0.38871 0.02321 0.64057 0.0
H789 H 0.37519 0.06299 0.59126 0.0
H790 H 0.43691 0.17612 0.68667 0.0
H791 H 0.37777 0.13861 0.69087 0.0
Li792 Li 0.3353 0.44067 0.93143 0.0
Li793 Li 0.32148 0.41181 0.96534 0.0
Li794 Li 0.32762 0.41285 0.8945 0.0
Li795 Li 0.30164 0.41744 0.91928 0.0
C796 C 0.36364 0.43745 0.94496 0.0
N797 N 0.39956 0.46549 0.95845 0.0
C798 C 0.36949 0.44423 0.98387 0.0
C799 C 0.37611 0.44488 0.91297 0.0
C800 C 0.3877 0.4584 0.99007 0.0
C801 C 0.39419 0.45907 0.92039 0.0
C802 C 0.30658 0.42772 0.00757 0.0
C803 C 0.28005 0.41461 0.05156 0.0
N804 N 0.29155 0.42049 0.08395 0.0
C805 C 0.31815 0.43371 0.04127 0.0
C806 C 0.28738 0.41813 0.01268 0.0
C807 C 0.31028 0.42988 0.07965 0.0
C808 C 0.35983 0.47589 0.89925 0.0
N809 N 0.35243 0.46675 0.93424 0.0
C810 C 0.37155 0.49421 0.97211 0.0
C811 C 0.35768 0.47561 0.97028 0.0
C812 C 0.37997 0.50378 0.93644 0.0
C813 C 0.37367 0.49445 0.89963 0.0
H814 H 0.35524 0.4687 0.87099 0.0
H815 H 0.35154 0.46807 0.99769 0.0
C816 C 0.33846 0.39835 0.01741 0.0
N817 N 0.3224 0.39862 0.01285 0.0
C818 C 0.3409 0.38905 0.04958 0.0
C819 C 0.30979 0.37942 0.07123 0.0
C820 C 0.30807 0.38924 0.03885 0.0
C821 C 0.32647 0.37929 0.07717 0.0
H822 H 0.34948 0.40524 0.99582 0.0
H823 H 0.29518 0.38909 0.03421 0.0
C824 C 0.3228 0.43303 0.83843 0.0
N825 N 0.32469 0.43341 0.75534 0.0
C826 C 0.30689 0.42769 0.81535 0.0
C827 C 0.33969 0.43868 0.8191 0.0
C828 C 0.30813 0.42796 0.77342 0.0
C829 C 0.34036 0.43873 0.77712 0.0
C830 C 0.29665 0.37836 0.93946 0.0
C831 C 0.30639 0.36875 0.93985 0.0
C832 C 0.27932 0.37068 0.95792 0.0
C833 C 0.29866 0.3516 0.95918 0.0
C834 C 0.27204 0.35347 0.97685 0.0
N835 N 0.28179 0.34439 0.97713 0.0
C836 C 0.34946 0.39983 0.86005 0.0
C837 C 0.32323 0.39374 0.82089 0.0
C838 C 0.35468 0.39094 0.83189 0.0
N839 N 0.33412 0.40125 0.85385 0.0
C840 C 0.32809 0.38494 0.7916 0.0
C841 C 0.34396 0.38343 0.79712 0.0
H842 H 0.35753 0.40542 0.88714 0.0
H843 H 0.31076 0.39454 0.81742 0.0
C844 C 0.2785 0.43161 0.90344 0.0
N845 N 0.27884 0.41551 0.90325 0.0
C846 C 0.26414 0.43271 0.88453 0.0
C847 C 0.25029 0.40037 0.8668 0.0
C848 C 0.26502 0.39992 0.88599 0.0
C849 C 0.24992 0.41705 0.86512 0.0
H850 H 0.28996 0.4439 0.91644 0.0
H851 H 0.2659 0.38741 0.88539 0.0
O852 O 0.34569 0.42391 0.93816 0.0
O853 O 0.31399 0.43131 0.96975 0.0
O854 O 0.32183 0.43276 0.87961 0.0
O855 O 0.30417 0.39532 0.9215 0.0
H856 H 0.35999 0.43882 0.00896 0.0
H857 H 0.37188 0.43985 0.88268 0.0
H858 H 0.39236 0.46385 0.01998 0.0
H859 H 0.40395 0.46502 0.89585 0.0
H860 H 0.26521 0.40716 0.05598 0.0
H861 H 0.33303 0.44102 0.03788 0.0
H862 H 0.27823 0.41338 0.98694 0.0
H863 H 0.31905 0.43432 0.10601 0.0
H864 H 0.37605 0.50083 0.00118 0.0
H865 H 0.3795 0.50137 0.87136 0.0
H866 H 0.35414 0.38974 0.0528 0.0
H867 H 0.29805 0.37181 0.09097 0.0
H868 H 0.29371 0.42338 0.82948 0.0
H869 H 0.35212 0.44268 0.83628 0.0
H870 H 0.29591 0.42383 0.75527 0.0
H871 H 0.35332 0.44294 0.76187 0.0
H872 H 0.31986 0.37458 0.92578 0.0
H873 H 0.27168 0.37802 0.95801 0.0
H874 H 0.30608 0.34405 0.96 0.0
H875 H 0.25869 0.34739 0.99147 0.0
H876 H 0.36704 0.39006 0.83712 0.0
H877 H 0.31936 0.37907 0.76539 0.0
H878 H 0.26474 0.44597 0.88344 0.0
H879 H 0.23958 0.38791 0.85262 0.0
Li880 Li 0.90098 0.33924 0.09592 0.0
Li881 Li 0.91415 0.32238 0.12622 0.0
Li882 Li 0.91715 0.32771 0.05464 0.0
Li883 Li 0.88651 0.30447 0.08415 0.0
C884 C 0.93624 0.36455 0.10688 0.0
N885 N 0.95362 0.40177 0.12581 0.0
C886 C 0.93996 0.37026 0.14699 0.0
C887 C 0.9415 0.37777 0.07639 0.0
C888 C 0.94874 0.38914 0.15595 0.0
C889 C 0.95022 0.39652 0.08658 0.0
C890 C 0.88345 0.31159 0.17306 0.0
C891 C 0.86694 0.28604 0.21876 0.0
N892 N 0.87288 0.2981 0.25018 0.0
C893 C 0.88932 0.32375 0.20574 0.0
C894 C 0.87211 0.29259 0.17951 0.0
C895 C 0.88386 0.31665 0.24453 0.0
C896 C 0.88697 0.36236 0.07042 0.0
N897 N 0.89507 0.35858 0.10167 0.0
C898 C 0.89525 0.38275 0.14076 0.0
C899 C 0.89894 0.36824 0.13669 0.0
C900 C 0.88719 0.38722 0.10869 0.0
C901 C 0.88292 0.37668 0.07325 0.0
H902 H 0.88354 0.35422 0.04327 0.0
H903 H 0.90504 0.3648 0.16142 0.0
C904 C 0.94761 0.3335 0.16483 0.0
N905 N 0.92913 0.32218 0.1707 0.0
C906 C 0.96034 0.33549 0.19441 0.0
C907 C 0.93497 0.3136 0.23554 0.0
C908 C 0.9227 0.31189 0.20483 0.0
C909 C 0.95412 0.32573 0.2308 0.0
H910 H 0.95253 0.34109 0.13695 0.0
H911 H 0.9081 0.30236 0.20848 0.0
C912 C 0.89145 0.32735 0.00477 0.0
N913 N 0.89036 0.33193 0.92268 0.0
C914 C 0.87959 0.31236 0.98054 0.0
C915 C 0.90265 0.3447 0.98726 0.0
C916 C 0.87926 0.31495 0.9391 0.0
C917 C 0.90194 0.34672 0.94571 0.0
C918 C 0.91778 0.29493 0.09976 0.0
C919 C 0.93645 0.30084 0.09294 0.0
C920 C 0.90746 0.28009 0.12572 0.0
C921 C 0.94457 0.29187 0.11263 0.0
C922 C 0.91608 0.27148 0.1448 0.0
N923 N 0.93431 0.27751 0.13795 0.0
C924 C 0.95018 0.34564 0.00924 0.0
C925 C 0.92513 0.31966 0.978 0.0
C926 C 0.96147 0.34833 0.97599 0.0
N927 N 0.93234 0.33161 0.00936 0.0
C928 C 0.93574 0.32209 0.94379 0.0
C929 C 0.95423 0.33657 0.94237 0.0
H930 H 0.9557 0.3546 0.03515 0.0
H931 H 0.91106 0.30827 0.9795 0.0
C932 C 0.84844 0.2834 0.06801 0.0
N933 N 0.86434 0.28266 0.06924 0.0
C934 C 0.83281 0.2695 0.04849 0.0
C935 C 0.85 0.25399 0.03328 0.0
C936 C 0.86533 0.26823 0.053 0.0
C937 C 0.83357 0.25473 0.0299 0.0
H938 H 0.84825 0.29534 0.08012 0.0
H939 H 0.87831 0.26824 0.05355 0.0
O940 O 0.92755 0.34612 0.09749 0.0
O941 O 0.88837 0.31826 0.13482 0.0
O942 O 0.89217 0.32503 0.04536 0.0
O943 O 0.90977 0.30393 0.08187 0.0
H944 H 0.93583 0.36022 0.17103 0.0
H945 H 0.93888 0.37362 0.04518 0.0
H946 H 0.95158 0.39375 0.18687 0.0
H947 H 0.9543 0.4069 0.06329 0.0
H948 H 0.85821 0.27136 0.22424 0.0
H949 H 0.89814 0.33848 0.20127 0.0
H950 H 0.86736 0.28301 0.1545 0.0
H951 H 0.88838 0.32588 0.27015 0.0
H952 H 0.89896 0.39056 0.16854 0.0
H953 H 0.87634 0.37932 0.04805 0.0
H954 H 0.97495 0.34454 0.1886 0.0
H955 H 0.92941 0.30574 0.26294 0.0
H956 H 0.87083 0.29882 0.99346 0.0
H957 H 0.91186 0.35645 0.00556 0.0
H958 H 0.87021 0.30345 0.91998 0.0
H959 H 0.91061 0.36005 0.93176 0.0
H960 H 0.94462 0.31237 0.07305 0.0
H961 H 0.89301 0.27543 0.13137 0.0
H962 H 0.95904 0.29636 0.10788 0.0
H963 H 0.90831 0.26005 0.16518 0.0
H964 H 0.97575 0.35936 0.97694 0.0
H965 H 0.92937 0.31279 0.91864 0.0
H966 H 0.82061 0.27089 0.04616 0.0
H967 H 0.85119 0.24279 0.01989 0.0
Li968 Li 0.59385 0.91532 0.28951 0.0
Li969 Li 0.56416 0.9004 0.25245 0.0
Li970 Li 0.58539 0.88859 0.24253 0.0
Li971 Li 0.59204 0.9192 0.21608 0.0
C972 C 0.57613 0.87997 0.32457 0.0
N973 N 0.58321 0.8627 0.38736 0.0
C974 C 0.56346 0.87213 0.3561 0.0
C975 C 0.59233 0.87894 0.32484 0.0
C976 C 0.56731 0.86349 0.38762 0.0
C977 C 0.59568 0.87017 0.35687 0.0
C978 C 0.58633 0.9448 0.24932 0.0
C979 C 0.58446 0.966 0.20267 0.0
N980 N 0.59659 0.98047 0.22576 0.0
C981 C 0.5986 0.9599 0.2728 0.0
C982 C 0.57904 0.94788 0.21418 0.0
C983 C 0.60367 0.97781 0.26031 0.0
C984 C 0.62395 0.94319 0.33342 0.0
N985 N 0.60662 0.92833 0.33718 0.0
C986 C 0.60605 0.93485 0.40706 0.0
C987 C 0.59764 0.92394 0.37311 0.0
C988 C 0.62375 0.9506 0.40385 0.0
C989 C 0.63279 0.95461 0.36647 0.0
H990 H 0.63063 0.94662 0.30431 0.0
H991 H 0.5837 0.91234 0.37513 0.0
C992 C 0.52566 0.87536 0.26409 0.0
N993 N 0.53858 0.89322 0.25588 0.0
C994 C 0.50684 0.8699 0.26425 0.0
C995 C 0.51505 0.90137 0.24832 0.0
C996 C 0.53365 0.90621 0.24851 0.0
C997 C 0.50132 0.88298 0.25596 0.0
H998 H 0.52998 0.86531 0.26984 0.0
H999 H 0.54416 0.92033 0.24252 0.0
C1000 C 0.62624 0.91643 0.24109 0.0
N1001 N 0.66212 0.92365 0.23038 0.0
C1002 C 0.63423 0.92048 0.20279 0.0
C1003 C 0.63658 0.91622 0.27399 0.0
C1004 C 0.65236 0.92403 0.19798 0.0
C1005 C 0.65467 0.91987 0.26794 0.0
C1006 C 0.55529 0.88481 0.18212 0.0
C1007 C 0.54492 0.86553 0.18521 0.0
C1008 C 0.54814 0.89426 0.16064 0.0
C1009 C 0.52749 0.85604 0.16709 0.0
C1010 C 0.53065 0.88427 0.14303 0.0
N1011 N 0.52076 0.86553 0.14661 0.0
C1012 C 0.57501 0.85017 0.23966 0.0
C1013 C 0.60051 0.87033 0.19911 0.0
C1014 C 0.57467 0.83473 0.22217 0.0
N1015 N 0.58759 0.86754 0.22732 0.0
C1016 C 0.60095 0.85536 0.18149 0.0
C1017 C 0.58757 0.83716 0.19197 0.0
H1018 H 0.56457 0.84826 0.26146 0.0
H1019 H 0.61003 0.88417 0.18891 0.0
C1020 C 0.61821 0.95264 0.17691 0.0
N1021 N 0.60373 0.93517 0.17194 0.0
C1022 C 0.62695 0.96369 0.14338 0.0
C1023 C 0.606 0.93835 0.1006 0.0
C1024 C 0.59763 0.92788 0.13481 0.0
C1025 C 0.62088 0.95647 0.10463 0.0
H1026 H 0.62304 0.95791 0.20686 0.0
H1027 H 0.5864 0.91382 0.13173 0.0
O1028 O 0.57257 0.8886 0.29373 0.0
O1029 O 0.5813 0.92714 0.26096 0.0
O1030 O 0.60858 0.9132 0.24652 0.0
O1031 O 0.57217 0.89439 0.20067 0.0
H1032 H 0.55083 0.8728 0.35626 0.0
H1033 H 0.60214 0.8847 0.30047 0.0
H1034 H 0.55766 0.85741 0.41229 0.0
H1035 H 0.60818 0.86927 0.35745 0.0
H1036 H 0.57907 0.96855 0.17531 0.0
H1037 H 0.60406 0.95784 0.30053 0.0
H1038 H 0.56951 0.93642 0.19563 0.0
H1039 H 0.61321 0.98961 0.27816 0.0
H1040 H 0.59848 0.93139 0.43516 0.0
H1041 H 0.64646 0.96655 0.36273 0.0
H1042 H 0.49672 0.85555 0.27006 0.0
H1043 H 0.51148 0.91199 0.24262 0.0
H1044 H 0.62646 0.92065 0.17692 0.0
H1045 H 0.63076 0.91339 0.30396 0.0
H1046 H 0.65866 0.92707 0.16847 0.0
H1047 H 0.66281 0.91973 0.29314 0.0
H1048 H 0.55014 0.85798 0.20184 0.0
H1049 H 0.55594 0.90915 0.15783 0.0
H1050 H 0.51928 0.84113 0.16949 0.0
H1051 H 0.52491 0.89143 0.12657 0.0
H1052 H 0.56386 0.82107 0.231 0.0
H1053 H 0.61146 0.85812 0.15915 0.0
H1054 H 0.63852 0.97756 0.14766 0.0
H1055 H 0.60079 0.93234 0.07128 0.0
H1056 H 0.3475 0.36204 0.0804 0.0
H1057 H 0.31165 0.37417 0.15349 0.0
H1058 H 0.3172 0.35922 0.21152 0.0
H1059 H 0.33641 0.31816 0.12667 0.0
H1060 H 0.35995 0.32283 0.12427 0.0
H1061 H 0.35154 0.3326 0.08717 0.0
H1062 H 0.37835 0.36547 0.10434 0.0
H1063 H 0.38685 0.35582 0.1414 0.0
H1064 H 0.38154 0.37351 0.15563 0.0
H1065 H 0.32804 0.34449 0.26292 0.0
H1066 H 0.34445 0.33262 0.30421 0.0
H1067 H 0.37474 0.33185 0.19883 0.0
C1068 C 0.34079 0.36167 0.10851 0.0
C1069 C 0.32902 0.36934 0.11191 0.0
C1070 C 0.32039 0.36813 0.14946 0.0
C1071 C 0.32356 0.35974 0.18282 0.0
C1072 C 0.33547 0.35266 0.17843 0.0
C1073 C 0.34402 0.35362 0.14225 0.0
C1074 C 0.35717 0.34609 0.1461 0.0
C1075 C 0.35089 0.3289 0.11947 0.0
C1076 C 0.37716 0.36112 0.13629 0.0
C1077 C 0.35494 0.34103 0.19033 0.0
C1078 C 0.34214 0.34467 0.20828 0.0
C1079 C 0.33798 0.34146 0.24909 0.0
C1080 C 0.3473 0.3346 0.27226 0.0
C1081 C 0.3608 0.33116 0.25475 0.0
C1082 C 0.3645 0.33432 0.2131 0.0
H1083 H 0.04309 0.38342 0.37088 0.0
H1084 H 0.025 0.33345 0.44093 0.0
H1085 H 0.99922 0.31609 0.39316 0.0
H1086 H 0.9983 0.37586 0.35073 0.0
H1087 H 0.0035 0.38531 0.30057 0.0
H1088 H 0.02158 0.39331 0.33771 0.0
H1089 H 0.04093 0.38478 0.29058 0.0
H1090 H 0.02292 0.37682 0.25316 0.0
H1091 H 0.03083 0.36156 0.27105 0.0
H1092 H 0.97463 0.30454 0.33919 0.0
H1093 H 0.95283 0.29976 0.28414 0.0
H1094 H 0.98595 0.35787 0.25199 0.0
C1095 C 0.03394 0.36872 0.37552 0.0
C1096 C 0.03613 0.35966 0.40918 0.0
C1097 C 0.02358 0.34056 0.4151 0.0
C1098 C 0.00894 0.33061 0.38813 0.0
C1099 C 0.00694 0.34001 0.35559 0.0
C1100 C 0.01908 0.35865 0.34921 0.0
C1101 C 0.01313 0.36575 0.31352 0.0
C1102 C 0.00887 0.38095 0.32642 0.0
C1103 C 0.02783 0.37263 0.2801 0.0
C1104 C 0.99569 0.34824 0.30102 0.0
C1105 C 0.99244 0.33352 0.3254 0.0
C1106 C 0.97704 0.31599 0.31992 0.0
C1107 C 0.96462 0.31345 0.28872 0.0
C1108 C 0.96753 0.3284 0.26351 0.0
C1109 C 0.98337 0.34601 0.27003 0.0
H1110 H 0.64152 0.98867 0.40562 0.0
H1111 H 0.62524 0.94065 0.48161 0.0
H1112 H 0.63837 0.96113 0.54068 0.0
H1113 H 0.68496 0.01958 0.45707 0.0
H1114 H 0.68228 0.03961 0.45128 0.0
H1115 H 0.67244 0.02126 0.4146 0.0
H1116 H 0.64021 0.01803 0.42567 0.0
H1117 H 0.64993 0.03631 0.46244 0.0
H1118 H 0.63064 0.01403 0.4757 0.0
H1119 H 0.65226 0.98656 0.59164 0.0
H1120 H 0.66534 0.01512 0.63176 0.0
H1121 H 0.67298 0.04707 0.52306 0.0
C1122 C 0.64098 0.9825 0.4346 0.0
C1123 C 0.63241 0.96304 0.439 0.0
C1124 C 0.63163 0.95549 0.47758 0.0
C1125 C 0.63914 0.96701 0.51125 0.0
C1126 C 0.64734 0.9861 0.50593 0.0
C1127 C 0.64831 0.99381 0.46863 0.0
C1128 C 0.65722 0.01472 0.47152 0.0
C1129 C 0.6753 0.02436 0.44717 0.0
C1130 C 0.64369 0.02114 0.45804 0.0
C1131 C 0.661 0.01753 0.51634 0.0
C1132 C 0.65529 0.00082 0.5355 0.0
C1133 C 0.65695 0.99974 0.57691 0.0
C1134 C 0.66457 0.01613 0.59943 0.0
C1135 C 0.67048 0.03349 0.58066 0.0
C1136 C 0.66864 0.03409 0.53842 0.0
H1137 H 0.67165 0.64719 0.59299 0.0
H1138 H 0.65231 0.5924 0.6427 0.0
H1139 H 0.63842 0.59996 0.69982 0.0
H1140 H 0.6821 0.67172 0.69006 0.0
H1141 H 0.67434 0.68727 0.67335 0.0
H1142 H 0.68395 0.67808 0.63773 0.0
H1143 H 0.65423 0.66541 0.59449 0.0
H1144 H 0.64449 0.67447 0.63003 0.0
H1145 H 0.63206 0.65023 0.61716 0.0
H1146 H 0.62414 0.61219 0.74794 0.0
H1147 H 0.6121 0.62916 0.78673 0.0
H1148 H 0.64125 0.67655 0.7079 0.0
C1149 C 0.66466 0.63686 0.61613 0.0
C1150 C 0.66318 0.61921 0.61342 0.0
C1151 C 0.65393 0.6061 0.64439 0.0
C1152 C 0.64588 0.61023 0.67686 0.0
C1153 C 0.64732 0.62761 0.67825 0.0
C1154 C 0.65666 0.64081 0.649 0.0
C1155 C 0.65576 0.65826 0.65728 0.0
C1156 C 0.67519 0.67481 0.66507 0.0
C1157 C 0.64605 0.66232 0.62268 0.0
C1158 C 0.64411 0.65263 0.69524 0.0
C1159 C 0.6394 0.63487 0.70671 0.0
C1160 C 0.62793 0.62618 0.73955 0.0
C1161 C 0.62109 0.63588 0.76126 0.0
C1162 C 0.6258 0.65412 0.75029 0.0
C1163 C 0.63762 0.66268 0.71709 0.0
H1164 H 0.03496 0.67428 0.77948 0.0
H1165 H 0.0073 0.63138 0.68911 0.0
H1166 H 0.9794 0.61658 0.7311 0.0
H1167 H 0.01663 0.64354 0.86385 0.0
H1168 H 0.0143 0.65985 0.8953 0.0
H1169 H 0.03185 0.66805 0.85689 0.0
H1170 H 0.01886 0.68783 0.82632 0.0
H1171 H 0.00121 0.67962 0.86457 0.0
H1172 H 0.99479 0.67683 0.81219 0.0
H1173 H 0.95464 0.60569 0.7831 0.0
H1174 H 0.93536 0.59841 0.84395 0.0
H1175 H 0.97896 0.6475 0.90227 0.0
C1176 C 0.02308 0.66177 0.76845 0.0
C1177 C 0.02337 0.65431 0.73034 0.0
C1178 C 0.00739 0.63784 0.7174 0.0
C1179 C 0.99144 0.62919 0.74123 0.0
C1180 C 0.99159 0.63697 0.7783 0.0
C1181 C 0.007 0.65279 0.7921 0.0
C1182 C 0.00371 0.65771 0.83406 0.0
C1183 C 0.01744 0.65725 0.86431 0.0
C1184 C 0.0047 0.67662 0.83427 0.0
C1185 C 0.98412 0.64208 0.84168 0.0
C1186 C 0.97735 0.6304 0.80892 0.0
C1187 C 0.95973 0.6148 0.8089 0.0
C1188 C 0.94881 0.61086 0.84354 0.0
C1189 C 0.95555 0.6224 0.87792 0.0
C1190 C 0.97341 0.63834 0.87661 0.0
H1191 H 0.3659 0.01457 0.90516 0.0
H1192 H 0.38175 0.06325 0.97888 0.0
H1193 H 0.36779 0.04318 0.03806 0.0
H1194 H 0.32257 0.98378 0.95547 0.0
H1195 H 0.32568 0.96395 0.95137 0.0
H1196 H 0.33557 0.98202 0.91408 0.0
H1197 H 0.36796 0.98597 0.92726 0.0
H1198 H 0.35819 0.96792 0.96455 0.0
H1199 H 0.37713 0.99044 0.97769 0.0
H1200 H 0.35342 0.01791 0.09002 0.0
H1201 H 0.34049 0.98953 0.1311 0.0
H1202 H 0.33499 0.95732 0.02417 0.0
C1203 C 0.36653 0.0211 0.93369 0.0
C1204 C 0.37496 0.04061 0.93706 0.0
C1205 C 0.37513 0.0484 0.97509 0.0
C1206 C 0.36732 0.0371 0.00903 0.0
C1207 C 0.35939 0.01799 0.00462 0.0
C1208 C 0.35896 0.01005 0.96792 0.0
C1209 C 0.35035 0.98922 0.97161 0.0
C1210 C 0.33248 0.97915 0.94665 0.0
C1211 C 0.36424 0.98303 0.95957 0.0
C1212 C 0.34623 0.9867 0.01628 0.0
C1213 C 0.35137 0.00345 0.03467 0.0
C1214 C 0.34921 0.0047 0.07587 0.0
C1215 C 0.34172 0.98845 0.09893 0.0
C1216 C 0.33655 0.97112 0.08089 0.0
C1217 C 0.33882 0.97032 0.0389 0.0
H1218 H 0.59014 0.48233 0.3794 0.0
H1219 H 0.61507 0.46909 0.47907 0.0
H1220 H 0.58807 0.43732 0.48111 0.0
H1221 H 0.54401 0.45765 0.41542 0.0
H1222 H 0.53378 0.45008 0.36637 0.0
H1223 H 0.55547 0.47133 0.37157 0.0
H1224 H 0.57064 0.45936 0.32071 0.0
H1225 H 0.54897 0.43804 0.31538 0.0
H1226 H 0.56955 0.43752 0.32976 0.0
H1227 H 0.55789 0.40719 0.47296 0.0
H1228 H 0.5263 0.38174 0.45796 0.0
H1229 H 0.52136 0.41488 0.3634 0.0
C1230 C 0.59006 0.47266 0.40127 0.0
C1231 C 0.60476 0.47811 0.42889 0.0
C1232 C 0.60391 0.46521 0.45773 0.0
C1233 C 0.5887 0.44712 0.45893 0.0
C1234 C 0.57444 0.44221 0.43119 0.0
C1235 C 0.57497 0.45465 0.40303 0.0
C1236 C 0.55753 0.44624 0.37778 0.0
C1237 C 0.54708 0.45696 0.38313 0.0
C1238 C 0.56194 0.44523 0.33327 0.0
C1239 C 0.547 0.42714 0.39632 0.0
C1240 C 0.55704 0.42501 0.42684 0.0
C1241 C 0.54997 0.40866 0.44893 0.0
C1242 C 0.53206 0.39423 0.43999 0.0
C1243 C 0.52138 0.39627 0.40936 0.0
C1244 C 0.52913 0.41291 0.38706 0.0
H1245 H 0.11606 0.52266 0.61317 0.0
H1246 H 0.12233 0.51903 0.48443 0.0
H1247 H 0.12637 0.55023 0.4758 0.0
H1248 H 0.09014 0.54546 0.60829 0.0
H1249 H 0.10089 0.56005 0.65139 0.0
H1250 H 0.09958 0.53789 0.64793 0.0
H1251 H 0.13517 0.5537 0.65642 0.0
H1252 H 0.13658 0.57593 0.66007 0.0
H1253 H 0.15005 0.57217 0.62282 0.0
H1254 H 0.12771 0.58078 0.48051 0.0
H1255 H 0.12643 0.60875 0.49801 0.0
H1256 H 0.12096 0.59347 0.62434 0.0
C1257 C 0.11863 0.52856 0.58325 0.0
C1258 C 0.11884 0.51836 0.54945 0.0
C1259 C 0.12187 0.52646 0.51071 0.0
C1260 C 0.12432 0.54423 0.50553 0.0
C1261 C 0.12381 0.55379 0.53939 0.0
C1262 C 0.12113 0.5463 0.57753 0.0
C1263 C 0.12047 0.55923 0.60868 0.0
C1264 C 0.10165 0.55011 0.63033 0.0
C1265 C 0.13653 0.56564 0.63877 0.0
C1266 C 0.12292 0.57503 0.58199 0.0
C1267 C 0.1249 0.57163 0.54218 0.0
C1268 C 0.12648 0.58376 0.51167 0.0
C1269 C 0.1259 0.59974 0.52204 0.0
C1270 C 0.12382 0.60358 0.5627 0.0
C1271 C 0.1225 0.59103 0.59298 0.0
H1272 H 0.52898 0.11948 0.7894 0.0
H1273 H 0.5217 0.13096 0.66536 0.0
H1274 H 0.55168 0.13374 0.64786 0.0
H1275 H 0.57916 0.14946 0.79424 0.0
H1276 H 0.58233 0.13331 0.82446 0.0
H1277 H 0.56116 0.13405 0.82816 0.0
H1278 H 0.54226 0.09901 0.81169 0.0
H1279 H 0.56335 0.09817 0.8079 0.0
H1280 H 0.5473 0.09049 0.76639 0.0
H1281 H 0.58149 0.13319 0.64269 0.0
H1282 H 0.60894 0.12955 0.65059 0.0
H1283 H 0.59591 0.1169 0.77712 0.0
C1284 C 0.53368 0.12267 0.75856 0.0
C1285 C 0.52294 0.12514 0.72889 0.0
C1286 C 0.52978 0.12942 0.68895 0.0
C1287 C 0.54677 0.13089 0.67858 0.0
C1288 C 0.5568 0.12805 0.70843 0.0
C1289 C 0.55054 0.12407 0.74762 0.0
C1290 C 0.56348 0.12066 0.77354 0.0
C1291 C 0.57204 0.13524 0.80708 0.0
C1292 C 0.5535 0.10091 0.79089 0.0
C1293 C 0.57785 0.12307 0.74264 0.0
C1294 C 0.57382 0.12746 0.70533 0.0
C1295 C 0.58482 0.12983 0.67182 0.0
C1296 C 0.60032 0.1276 0.67654 0.0
C1297 C 0.60463 0.12295 0.71446 0.0
C1298 C 0.59322 0.12077 0.74788 0.0
H1299 H 0.48015 0.58607 0.87775 0.0
H1300 H 0.473 0.62009 0.96661 0.0
H1301 H 0.44114 0.59466 0.97962 0.0
H1302 H 0.43283 0.5628 0.83915 0.0
H1303 H 0.43221 0.54104 0.8328 0.0
H1304 H 0.45385 0.56246 0.82845 0.0
H1305 H 0.46816 0.55132 0.88332 0.0
H1306 H 0.44658 0.52992 0.88793 0.0
H1307 H 0.45699 0.54419 0.93164 0.0
H1308 H 0.41075 0.5645 0.98623 0.0
H1309 H 0.38401 0.53261 0.9839 0.0
H1310 H 0.41173 0.51851 0.89177 0.0
C1311 C 0.47186 0.58823 0.8998 0.0
C1312 C 0.47906 0.60508 0.92112 0.0
C1313 C 0.46769 0.6074 0.94949 0.0
C1314 C 0.44962 0.59299 0.95725 0.0
C1315 C 0.4431 0.57642 0.93621 0.0
C1316 C 0.45385 0.57405 0.90786 0.0
C1317 C 0.44389 0.55473 0.8903 0.0
C1318 C 0.44049 0.5553 0.84499 0.0
C1319 C 0.45454 0.54444 0.89883 0.0
C1320 C 0.42597 0.54648 0.91371 0.0
C1321 C 0.4257 0.55919 0.93995 0.0
C1322 C 0.41076 0.55448 0.96558 0.0
C1323 C 0.3957 0.53631 0.96425 0.0
C1324 C 0.39571 0.5231 0.93748 0.0
C1325 C 0.4111 0.52837 0.91197 0.0
H1326 H 0.8912 0.41239 0.05033 0.0
H1327 H 0.87472 0.39756 0.17485 0.0
H1328 H 0.86988 0.42431 0.18135 0.0
H1329 H 0.91576 0.46068 0.06353 0.0
H1330 H 0.9083 0.46586 0.01688 0.0
H1331 H 0.90969 0.44508 0.02142 0.0
H1332 H 0.87527 0.42539 1.00029 0.0
H1333 H 0.87379 0.44613 0.99554 0.0
H1334 H 0.85784 0.4276 0.02773 0.0
H1335 H 0.86871 0.45374 0.17549 0.0
H1336 H 0.87107 0.48349 0.15772 0.0
H1337 H 0.88612 0.47788 0.03554 0.0
C1338 C 0.88624 0.41451 0.07879 0.0
C1339 C 0.88341 0.40283 0.11211 0.0
C1340 C 0.87728 0.40643 0.14903 0.0
C1341 C 0.87433 0.42151 0.15294 0.0
C1342 C 0.87739 0.43279 0.11958 0.0
C1343 C 0.8831 0.42941 0.08314 0.0
C1344 C 0.8859 0.44395 0.05227 0.0
C1345 C 0.90611 0.45452 0.03769 0.0
C1346 C 0.87239 0.43524 0.01687 0.0
C1347 C 0.88121 0.45623 0.07726 0.0
C1348 C 0.87628 0.44951 0.11595 0.0
C1349 C 0.87225 0.45898 0.14508 0.0
C1350 C 0.87349 0.47585 0.13453 0.0
C1351 C 0.87864 0.48311 0.09505 0.0
C1352 C 0.88227 0.4729 0.06604 0.0
H1353 H 0.41391 0.89086 0.18801 0.0
H1354 H 0.38455 0.8564 0.29063 0.0
H1355 H 0.41091 0.85164 0.30434 0.0
H1356 H 0.4378 0.8659 0.15745 0.0
H1357 H 0.45876 0.8869 0.14451 0.0
H1358 H 0.43669 0.88577 0.13984 0.0
H1359 H 0.44835 0.91457 0.18582 0.0
H1360 H 0.4704 0.91575 0.19075 0.0
H1361 H 0.45729 0.91432 0.23504 0.0
H1362 H 0.44156 0.85278 0.31046 0.0
H1363 H 0.47413 0.85999 0.3086 0.0
H1364 H 0.48363 0.89421 0.20301 0.0
C1365 C 0.41291 0.88219 0.21321 0.0
C1366 C 0.397 0.87391 0.23801 0.0
C1367 C 0.39634 0.86259 0.27056 0.0
C1368 C 0.41132 0.85988 0.27879 0.0
C1369 C 0.4269 0.86857 0.25423 0.0
C1370 C 0.42777 0.87945 0.22202 0.0
C1371 C 0.44654 0.8882 0.20182 0.0
C1372 C 0.44484 0.88127 0.15833 0.0
C1373 C 0.45621 0.90947 0.20348 0.0
C1374 C 0.45624 0.88089 0.22829 0.0
C1375 C 0.44463 0.86942 0.25807 0.0
C1376 C 0.45072 0.86157 0.28698 0.0
C1377 C 0.46922 0.86569 0.28559 0.0
C1378 C 0.48145 0.87766 0.25569 0.0
C1379 C 0.4747 0.88514 0.22646 0.0
H1380 H 0.34657 0.38856 0.71556 0.0
H1381 H 0.35385 0.35733 0.81109 0.0
H1382 H 0.36474 0.34284 0.76148 0.0
H1383 H 0.33128 0.35255 0.63757 0.0
H1384 H 0.34373 0.369 0.59822 0.0
H1385 H 0.33504 0.37576 0.64071 0.0
H1386 H 0.36803 0.40307 0.65487 0.0
H1387 H 0.37682 0.39637 0.61256 0.0
H1388 H 0.38682 0.39849 0.6617 0.0
H1389 H 0.37633 0.33314 0.70287 0.0
H1390 H 0.38843 0.32897 0.63848 0.0
H1391 H 0.37422 0.36692 0.58074 0.0
C1392 C 0.35013 0.3784 0.72581 0.0
C1393 C 0.34935 0.37397 0.76701 0.0
C1394 C 0.35447 0.36094 0.77961 0.0
C1395 C 0.36056 0.35259 0.75168 0.0
C1396 C 0.36143 0.35744 0.71135 0.0
C1397 C 0.35635 0.37002 0.69835 0.0
C1398 C 0.35964 0.37361 0.65361 0.0
C1399 C 0.34133 0.36735 0.63121 0.0
C1400 C 0.37367 0.3941 0.64522 0.0
C1401 C 0.36763 0.36129 0.64368 0.0
C1402 C 0.36838 0.35199 0.67739 0.0
C1403 C 0.37576 0.34028 0.6762 0.0
C1404 C 0.38273 0.33812 0.63959 0.0
C1405 C 0.38236 0.34772 0.60474 0.0
C1406 C 0.37451 0.35928 0.60681 0.0
H1407 H 0.98185 0.36952 0.91117 0.0
H1408 H 0.95311 0.31005 0.89107 0.0
H1409 H 0.9712 0.31492 0.82926 0.0
H1410 H 0.98626 0.38388 0.8096 0.0
H1411 H 0.00934 0.4033 0.81543 0.0
H1412 H 0.99374 0.39527 0.85765 0.0
H1413 H 0.01769 0.39115 0.89941 0.0
H1414 H 0.03343 0.3993 0.85742 0.0
H1415 H 0.02674 0.37713 0.87971 0.0
H1416 H 0.99155 0.32634 0.76806 0.0
H1417 H 0.01496 0.34347 0.71527 0.0
H1418 H 0.0323 0.39489 0.77905 0.0
C1419 C 0.97948 0.35743 0.89431 0.0
C1420 C 0.9658 0.33939 0.90604 0.0
C1421 C 0.96309 0.32407 0.88238 0.0
C1422 C 0.97342 0.32666 0.8473 0.0
C1423 C 0.98663 0.34462 0.83658 0.0
C1424 C 0.98989 0.35972 0.8597 0.0
C1425 C 0.0053 0.37754 0.8422 0.0
C1426 C 0.99823 0.39077 0.83053 0.0
C1427 C 0.02176 0.38682 0.87143 0.0
C1428 C 0.01009 0.37011 0.80543 0.0
C1429 C 0.99902 0.3511 0.80247 0.0
C1430 C 1.00043 0.34119 0.77024 0.0
C1431 C 0.01364 0.35098 0.74042 0.0
C1432 C 0.02535 0.37036 0.74354 0.0
C1433 C 0.02356 0.38002 0.7764 0.0
H1434 H 0.63095 0.99271 0.09089 0.0
H1435 H 0.63069 0.94532 0.03627 0.0
H1436 H 0.64302 0.96298 0.97334 0.0
H1437 H 0.61599 0.00636 0.00603 0.0
H1438 H 0.63037 0.0309 0.01435 0.0
H1439 H 0.62308 0.01518 0.05631 0.0
H1440 H 0.65729 0.02816 0.07748 0.0
H1441 H 0.6647 0.04403 0.03568 0.0
H1442 H 0.67362 0.02844 0.04158 0.0
H1443 H 0.65296 0.98472 0.91515 0.0
H1444 H 0.66089 0.00969 0.86567 0.0
H1445 H 0.65503 0.04308 0.95825 0.0
C1446 C 0.63389 0.98622 0.06597 0.0
C1447 C 0.62985 0.96766 0.06834 0.0
C1448 C 0.63352 0.95947 0.03487 0.0
C1449 C 0.64061 0.96942 0.99913 0.0
C1450 C 0.64407 0.98755 0.99748 0.0
C1451 C 0.64097 0.99594 0.03006 0.0
C1452 C 0.645 0.01528 0.01968 0.0
C1453 C 0.62757 0.01702 0.02437 0.0
C1454 C 0.66111 0.02984 0.04512 0.0
C1455 C 0.65048 0.01629 0.97598 0.0
C1456 C 0.64993 1.00018 0.96384 0.0
C1457 C 0.65361 0.99748 0.92434 0.0
C1458 C 0.65796 0.01166 0.89644 0.0
C1459 C 0.65858 0.02827 0.90823 0.0
C1460 C 0.65492 0.03062 0.9486 0.0
H1461 H 0.63716 0.66087 0.10053 0.0
H1462 H 0.57758 0.62827 0.11591 0.0
H1463 H 0.58199 0.61604 0.17995 0.0
H1464 H 0.64759 0.62768 0.13748 0.0
H1465 H 0.66857 0.64402 0.16289 0.0
H1466 H 0.66079 0.65118 0.11956 0.0
H1467 H 0.66112 0.67765 0.16106 0.0
H1468 H 0.66896 0.67061 0.20454 0.0
H1469 H 0.64827 0.67228 0.20745 0.0
H1470 H 0.59275 0.60576 0.23949 0.0
H1471 H 0.60915 0.59811 0.29085 0.0
H1472 H 0.66181 0.63863 0.23873 0.0
C1473 C 0.62506 0.6514 0.11772 0.0
C1474 C 0.60703 0.64543 0.10315 0.0
C1475 C 0.59152 0.6328 0.1262 0.0
C1476 C 0.59388 0.6259 0.16276 0.0
C1477 C 0.61183 0.63189 0.17599 0.0
C1478 C 0.62716 0.64442 0.15433 0.0
C1479 C 0.64492 0.64801 0.17449 0.0
C1480 C 0.65612 0.64238 0.14696 0.0
C1481 C 0.6565 0.66835 0.18767 0.0
C1482 C 0.63716 0.63523 0.21038 0.0
C1483 C 0.61805 0.62616 0.21082 0.0
C1484 C 0.60773 0.61298 0.23989 0.0
C1485 C 0.6172 0.60883 0.26912 0.0
C1486 C 0.63681 0.61784 0.2691 0.0
C1487 C 0.64683 0.6314 0.23953 0.0
H1488 H 0.01834 0.64951 0.40829 0.0
H1489 H 0.07091 0.67383 0.3454 0.0
H1490 H 0.05441 0.66639 0.28025 0.0
H1491 H 0.9935 0.61176 0.34199 0.0
H1492 H 0.9722 0.61228 0.34533 0.0
H1493 H 0.9882 0.62036 0.38683 0.0
H1494 H 0.98937 0.65201 0.3847 0.0
H1495 H 0.9733 0.644 0.34327 0.0
H1496 H 0.99533 0.66496 0.33838 0.0
H1497 H 0.03203 0.65459 0.2223 0.0
H1498 H 0.00551 0.64015 0.17562 0.0
H1499 H 0.96773 0.62456 0.2769 0.0
C1500 C 0.02637 0.65329 0.38079 0.0
C1501 C 0.04587 0.66223 0.38174 0.0
C1502 C 0.05595 0.66714 0.34521 0.0
C1503 C 0.04671 0.66291 0.30815 0.0
C1504 C 0.02744 0.65392 0.30828 0.0
C1505 C 0.01739 0.64929 0.34364 0.0
C1506 C 0.9968 0.63944 0.33559 0.0
C1507 C 0.98711 0.6198 0.35349 0.0
C1508 C 0.9882 0.65079 0.35142 0.0
C1509 C 0.99681 0.63897 0.29015 0.0
C1510 C 0.01459 0.64741 0.27494 0.0
C1511 C 0.01804 0.64814 0.23382 0.0
C1512 C 0.00288 0.63999 0.20754 0.0
C1513 C 0.98451 0.63128 0.22253 0.0
C1514 C 0.98156 0.63093 0.26443 0.0
H1515 H 0.371 0.97369 0.43202 0.0
H1516 H 0.31829 0.96958 0.40317 0.0
H1517 H 0.32269 0.991 0.45881 0.0
H1518 H 0.36638 0.97415 0.5392 0.0
H1519 H 0.39057 0.99037 0.54749 0.0
H1520 H 0.3835 0.97513 0.50466 0.0
H1521 H 0.40053 0.00339 0.45713 0.0
H1522 H 0.40769 0.01871 0.49982 0.0
H1523 H 0.39508 0.02175 0.4593 0.0
H1524 H 0.33269 0.01256 0.51805 0.0
H1525 H 0.34768 0.03284 0.57669 0.0
H1526 H 0.39351 0.02231 0.56704 0.0
C1527 C 0.36031 0.97719 0.43752 0.0
C1528 C 0.34432 0.97001 0.41318 0.0
C1529 C 0.33079 0.97514 0.42105 0.0
C1530 C 0.3331 0.98719 0.45273 0.0
C1531 C 0.34899 0.99393 0.47625 0.0
C1532 C 0.36236 0.98913 0.46903 0.0
C1533 C 0.3781 0.99819 0.49886 0.0
C1534 C 0.37972 0.98359 0.52404 0.0
C1535 C 0.39643 0.01129 0.47749 0.0
C1536 C 0.37146 0.00881 0.52408 0.0
C1537 C 0.35466 0.00622 0.51052 0.0
C1538 C 0.34586 0.01473 0.52892 0.0
C1539 C 0.3545 0.02627 0.56204 0.0
C1540 C 0.37173 0.02911 0.57636 0.0
C1541 C 0.38023 0.0202 0.55707 0.0
H1542 H 0.4257 0.23402 0.5127 0.0
H1543 H 0.37812 0.23613 0.55862 0.0
H1544 H 0.37277 0.2121 0.60865 0.0
H1545 H 0.40647 0.18374 0.52692 0.0
H1546 H 0.42843 0.18638 0.54195 0.0
H1547 H 0.42769 0.20273 0.50766 0.0
H1548 H 0.4491 0.22956 0.55531 0.0
H1549 H 0.44972 0.21328 0.58996 0.0
H1550 H 0.44234 0.22908 0.60699 0.0
H1551 H 0.37361 0.18941 0.6563 0.0
H1552 H 0.37983 0.1684 0.69706 0.0
H1553 H 0.42675 0.18049 0.62059 0.0
C1554 C 0.41394 0.22909 0.53275 0.0
C1555 C 0.40229 0.2369 0.53179 0.0
C1556 C 0.38724 0.23038 0.559 0.0
C1557 C 0.38408 0.21672 0.58747 0.0
C1558 C 0.39608 0.20967 0.58843 0.0
C1559 C 0.41063 0.21548 0.56166 0.0
C1560 C 0.42184 0.20607 0.57035 0.0
C1561 C 0.42105 0.19401 0.53459 0.0
C1562 C 0.44194 0.22035 0.58131 0.0
C1563 C 0.41144 0.19428 0.60642 0.0
C1564 C 0.39659 0.19654 0.61619 0.0
C1565 C 0.38509 0.18738 0.6487 0.0
C1566 C 0.38871 0.17542 0.67163 0.0
C1567 C 0.40374 0.17269 0.66208 0.0
C1568 C 0.41527 0.18238 0.62903 0.0
H1569 H 0.23403 0.4004 0.79266 0.0
H1570 H 0.23321 0.43736 0.88368 0.0
H1571 H 0.21183 0.44248 0.84173 0.0
H1572 H 0.23278 0.42503 0.70736 0.0
H1573 H 0.21752 0.40481 0.67836 0.0
H1574 H 0.23244 0.40351 0.7158 0.0
H1575 H 0.2041 0.37644 0.75087 0.0
H1576 H 0.1891 0.37752 0.71329 0.0
H1577 H 0.18492 0.37934 0.76582 0.0
H1578 H 0.19206 0.44509 0.78864 0.0
H1579 H 0.17287 0.44292 0.73012 0.0
H1580 H 0.18493 0.40303 0.67463 0.0
C1581 C 0.22909 0.40928 0.80425 0.0
C1582 C 0.2355 0.41858 0.84152 0.0
C1583 C 0.22884 0.43032 0.85501 0.0
C1584 C 0.2166 0.43326 0.83147 0.0
C1585 C 0.2109 0.4242 0.79462 0.0
C1586 C 0.21669 0.41224 0.78128 0.0
C1587 C 0.20845 0.40427 0.74039 0.0
C1588 C 0.22371 0.40974 0.70861 0.0
C1589 C 0.19589 0.38314 0.74275 0.0
C1590 C 0.19728 0.41379 0.73271 0.0
C1591 C 0.19901 0.42531 0.76432 0.0
C1592 C 0.1905 0.43603 0.76381 0.0
C1593 C 0.17976 0.43482 0.7303 0.0
C1594 C 0.1775 0.42289 0.69777 0.0
C1595 C 0.18637 0.41221 0.69914 0.0
H1596 H 0.8348 0.23881 0.95806 0.0
H1597 H 0.79637 0.23942 0.04535 0.0
H1598 H 0.7702 0.21826 0.0022 0.0
H1599 H 0.81009 0.23783 0.8701 0.0
H1600 H 0.81521 0.22227 0.84272 0.0
H1601 H 0.83104 0.2373 0.88057 0.0
H1602 H 0.82903 0.209 0.9175 0.0
H1603 H 0.81331 0.19388 0.87958 0.0
H1604 H 0.80669 0.19006 0.93183 0.0
H1605 H 0.74824 0.19772 0.94898 0.0
H1606 H 0.7318 0.17777 0.89106 0.0
H1607 H 0.78432 0.18971 0.83881 0.0
C1608 C 0.82089 0.23427 0.96855 0.0
C1609 C 0.81772 0.24089 0.00522 0.0
C1610 C 0.79924 0.23481 0.01721 0.0
C1611 C 0.78426 0.22271 0.99298 0.0
C1612 C 0.78792 0.21669 0.95686 0.0
C1613 C 0.80576 0.22211 0.94482 0.0
C1614 C 0.80587 0.21359 0.90456 0.0
C1615 C 0.81616 0.22865 0.8726 0.0
C1616 C 0.81422 0.20087 0.90863 0.0
C1617 C 0.78529 0.20257 0.8958 0.0
C1618 C 0.77521 0.20464 0.9263 0.0
C1619 C 0.75599 0.19601 0.92491 0.0
C1620 C 0.74678 0.18483 0.89167 0.0
C1621 C 0.75676 0.1823 0.86015 0.0
C1622 C 0.77631 0.19133 0.86242 0.0
H1623 H 0.59629 0.83518 0.11244 0.0
H1624 H 0.57642 0.80214 0.22143 0.0
H1625 H 0.57321 0.77512 0.1843 0.0
H1626 H 0.56794 0.80045 0.04269 0.0
H1627 H 0.58565 0.80746 0.0048 0.0
H1628 H 0.58622 0.82425 0.03966 0.0
H1629 H 0.61945 0.83299 0.06126 0.0
H1630 H 0.61906 0.81631 0.02625 0.0
H1631 H 0.62396 0.81513 0.07863 0.0
H1632 H 0.57085 0.75126 0.13457 0.0
H1633 H 0.57181 0.73294 0.07704 0.0
H1634 H 0.59579 0.78205 0.00218 0.0
C1635 C 0.5916 0.82243 0.12899 0.0
C1636 C 0.58653 0.82095 0.17014 0.0
C1637 C 0.58005 0.8037 0.18986 0.0
C1638 C 0.5783 0.78825 0.16907 0.0
C1639 C 0.58331 0.79024 0.12862 0.0
C1640 C 0.59006 0.80695 0.10892 0.0
C1641 C 0.59476 0.80549 0.06548 0.0
C1642 C 0.58293 0.80966 0.03646 0.0
C1643 C 0.61554 0.81823 0.05744 0.0
C1644 C 0.58945 0.78527 0.0637 0.0
C1645 C 0.58272 0.77669 0.1004 0.0
C1646 C 0.57625 0.75787 0.10584 0.0
C1647 C 0.57677 0.74758 0.07304 0.0
C1648 C 0.5839 0.75614 0.03542 0.0
C1649 C 0.59041 0.77525 0.03078 0.0
H1650 H 0.76858 0.5728 0.32346 0.0
H1651 H 0.76945 0.6237 0.29139 0.0
H1652 H 0.79238 0.62952 0.23844 0.0
H1653 H 0.81756 0.5898 0.30635 0.0
H1654 H 0.81378 0.56816 0.2859 0.0
H1655 H 0.79788 0.5683 0.32237 0.0
H1656 H 0.77071 0.55003 0.27289 0.0
H1657 H 0.78655 0.54996 0.23615 0.0
H1658 H 0.77171 0.55914 0.2232 0.0
H1659 H 0.81414 0.62924 0.18693 0.0
H1660 H 0.83463 0.62373 0.14273 0.0
H1661 H 0.82019 0.57326 0.20841 0.0
C1662 C 0.77364 0.5852 0.3054 0.0
C1663 C 0.76727 0.59787 0.31194 0.0
C1664 C 0.77434 0.61397 0.28765 0.0
C1665 C 0.78727 0.61733 0.25719 0.0
C1666 C 0.79308 0.60448 0.25128 0.0
C1667 C 0.78663 0.58882 0.27487 0.0
C1668 C 0.79512 0.57722 0.26204 0.0
C1669 C 0.80678 0.5758 0.2962 0.0
C1670 C 0.78013 0.55795 0.24772 0.0
C1671 C 0.80721 0.58876 0.22738 0.0
C1672 C 0.80579 0.6044 0.22167 0.0
C1673 C 0.8155 0.61711 0.19132 0.0
C1674 C 0.82718 0.61389 0.16645 0.0
C1675 C 0.82916 0.59811 0.17206 0.0
C1676 C 0.81887 0.58534 0.20289 0.0
H1677 H 0.18667 0.75535 0.46292 0.0
H1678 H 0.17131 0.79218 0.52192 0.0
H1679 H 0.19098 0.81705 0.47443 0.0
H1680 H 0.2348 0.79041 0.44416 0.0
H1681 H 0.23551 0.78071 0.39621 0.0
H1682 H 0.22042 0.76591 0.4353 0.0
H1683 H 0.19247 0.75425 0.3868 0.0
H1684 H 0.20744 0.76916 0.3477 0.0
H1685 H 0.18755 0.77075 0.36304 0.0
H1686 H 0.21143 0.8376 0.41918 0.0
H1687 H 0.23314 0.85323 0.36323 0.0
H1688 H 0.23591 0.80339 0.3408 0.0
C1689 C 0.1877 0.76874 0.46645 0.0
C1690 C 0.17733 0.77173 0.49625 0.0
C1691 C 0.17887 0.78941 0.49911 0.0
C1692 C 0.19007 0.80367 0.47232 0.0
C1693 C 0.19977 0.80011 0.44289 0.0
C1694 C 0.19888 0.78316 0.44006 0.0
C1695 C 0.21073 0.78298 0.40562 0.0
C1696 C 0.22629 0.77982 0.42127 0.0
C1697 C 0.19883 0.76842 0.37392 0.0
C1698 C 0.21837 0.80246 0.38947 0.0
C1699 C 0.21177 0.81206 0.41128 0.0
C1700 C 0.2167 0.83022 0.40189 0.0
C1701 C 0.2289 0.83893 0.36976 0.0
C1702 C 0.23614 0.82951 0.34734 0.0
C1703 C 0.23067 0.81098 0.35738 0.0
loop_
_geom_bond_atom_site_label_1
_geom_bond_atom_site_label_2
_geom_bond_distance
_geom_bond_site_symmetry_2
_ccdc_geom_bond_type
Li0 N17 1.990 . S
Li0 O60 1.956 . S
Li0 O61 1.970 . S
Li0 O62 1.961 . S
Li1 N25 1.990 . S
Li1 O60 1.970 . S
Li1 O61 1.956 . S
Li1 O63 1.961 . S
Li2 N47 1.990 . S
Li2 O60 1.961 . S
Li2 O62 1.956 . S
Li2 O63 1.970 . S
Li3 N53 1.990 . S
Li3 O61 1.961 . S
Li3 O62 1.970 . S
Li3 O63 1.956 . S
C4 C6 1.348 . S
C4 C7 1.356 . S
C4 O60 1.325 . S
N5 C8 1.314 . S
N5 C9 1.279 . S
C6 C4 1.348 . S
C6 C8 1.353 . S
C6 H64 0.929 . S
C7 C4 1.356 . S
C7 C9 1.358 . S
C7 H65 0.930 . S
C8 N5 1.314 . S
C8 C6 1.353 . S
C8 H66 0.930 . S
C9 N5 1.279 . S
C9 C7 1.358 . S
C9 H67 0.930 . S
C10 C13 1.348 . S
C10 C14 1.356 . S
C10 O61 1.325 . S
C11 N12 1.279 . S
C11 C14 1.358 . S
C11 H68 0.930 . S
N12 C11 1.279 . S
N12 C15 1.314 . S
C13 C10 1.348 . S
C13 C15 1.353 . S
C13 H69 0.929 . S
C14 C10 1.356 . S
C14 C11 1.358 . S
C14 H70 0.930 . S
C15 N12 1.314 . S
C15 C13 1.353 . S
C15 H71 0.930 . S
C16 N17 1.314 . S
C16 C21 1.353 . S
C16 H22 0.930 . S
N17 Li0 1.990 . S
N17 C16 1.314 . S
N17 C19 1.279 . S
C18 C19 1.358 . S
C18 C20 1.356 . S
C18 H72 0.930 . S
C19 N17 1.279 . S
C19 C18 1.358 . S
C19 H23 0.930 . S
C20 C18 1.356 . S
C20 C21 1.348 . S
C21 C16 1.353 . S
C21 C20 1.348 . S
C21 H73 0.929 . S
H22 C16 0.930 . S
H23 C19 0.930 . S
C24 N25 1.314 . S
C24 C26 1.353 . S
C24 H30 0.930 . S
N25 Li1 1.990 . S
N25 C24 1.314 . S
N25 C28 1.279 . S
C26 C24 1.353 . S
C26 C29 1.348 . S
C26 H74 0.929 . S
C27 C28 1.358 . S
C27 C29 1.356 . S
C27 H75 0.930 . S
C28 N25 1.279 . S
C28 C27 1.358 . S
C28 H31 0.930 . S
C29 C26 1.348 . S
C29 C27 1.356 . S
H30 C24 0.930 . S
H31 C28 0.930 . S
C32 C34 1.348 . S
C32 C35 1.356 . S
C32 O62 1.325 . S
N33 C36 1.314 . S
N33 C37 1.279 . S
C34 C32 1.348 . S
C34 C36 1.353 . S
C34 H76 0.929 . S
C35 C32 1.356 . S
C35 C37 1.358 . S
C35 H77 0.930 . S
C36 N33 1.314 . S
C36 C34 1.353 . S
C36 H78 0.930 . S
C37 N33 1.279 . S
C37 C35 1.358 . S
C37 H79 0.930 . S
C38 C39 1.348 . S
C38 C40 1.356 . S
C38 O63 1.325 . S
C39 C38 1.348 . S
C39 C41 1.353 . S
C39 H80 0.929 . S
C40 C38 1.356 . S
C40 C42 1.358 . S
C40 H81 0.930 . S
C41 C39 1.353 . S
C41 N43 1.314 . S
C41 H82 0.930 . S
C42 C40 1.358 . S
C42 N43 1.279 . S
C42 H83 0.930 . S
N43 C41 1.314 . S
N43 C42 1.279 . S
C44 C46 1.353 . S
C44 N47 1.314 . S
C44 H50 0.930 . S
C45 N47 1.279 . S
C45 C48 1.358 . S
C45 H51 0.930 . S
C46 C44 1.353 . S
C46 C49 1.348 . S
C46 H84 0.929 . S
N47 Li2 1.990 . S
N47 C44 1.314 . S
N47 C45 1.279 . S
C48 C45 1.358 . S
C48 C49 1.356 . S
C48 H85 0.930 . S
C49 C46 1.348 . S
C49 C48 1.356 . S
H50 C44 0.930 . S
H51 C45 0.930 . S
C52 N53 1.314 . S
C52 C54 1.353 . S
C52 H58 0.930 . S
N53 Li3 1.990 . S
N53 C52 1.314 . S
N53 C56 1.279 . S
C54 C52 1.353 . S
C54 C57 1.348 . S
C54 H86 0.929 . S
C55 C56 1.358 . S
C55 C57 1.356 . S
C55 H87 0.930 . S
C56 N53 1.279 . S
C56 C55 1.358 . S
C56 H59 0.930 . S
C57 C54 1.348 . S
C57 C55 1.356 . S
H58 C52 0.930 . S
H59 C56 0.930 . S
O60 Li0 1.956 . S
O60 Li1 1.970 . S
O60 Li2 1.961 . S
O60 C4 1.325 . S
O61 Li0 1.970 . S
O61 Li1 1.956 . S
O61 Li3 1.961 . S
O61 C10 1.325 . S
O62 Li0 1.961 . S
O62 Li2 1.956 . S
O62 Li3 1.970 . S
O62 C32 1.325 . S
O63 Li1 1.961 . S
O63 Li2 1.970 . S
O63 Li3 1.956 . S
O63 C38 1.325 . S
H64 C6 0.929 . S
H65 C7 0.930 . S
H66 C8 0.930 . S
H67 C9 0.930 . S
H68 C11 0.930 . S
H69 C13 0.929 . S
H70 C14 0.930 . S
H71 C15 0.930 . S
H72 C18 0.930 . S
H73 C21 0.929 . S
H74 C26 0.929 . S
H75 C27 0.930 . S
H76 C34 0.929 . S
H77 C35 0.930 . S
H78 C36 0.930 . S
H79 C37 0.930 . S
H80 C39 0.929 . S
H81 C40 0.930 . S
H82 C41 0.930 . S
H83 C42 0.930 . S
H84 C46 0.929 . S
H85 C48 0.930 . S
H86 C54 0.929 . S
H87 C55 0.930 . S
Li88 N105 1.990 . S
Li88 O148 1.956 . S
Li88 O149 1.970 . S
Li88 O150 1.961 . S
Li89 N113 1.990 . S
Li89 O148 1.970 . S
Li89 O149 1.956 . S
Li89 O151 1.961 . S
Li90 N135 1.990 . S
Li90 O148 1.961 . S
Li90 O150 1.956 . S
Li90 O151 1.970 . S
Li91 N141 1.990 . S
Li91 O149 1.961 . S
Li91 O150 1.970 . S
Li91 O151 1.956 . S
C92 C94 1.348 . S
C92 C95 1.356 . S
C92 O148 1.325 . S
N93 C96 1.314 . S
N93 C97 1.279 . S
C94 C92 1.348 . S
C94 C96 1.353 . S
C94 H152 0.929 . S
C95 C92 1.356 . S
C95 C97 1.358 . S
C95 H153 0.930 . S
C96 N93 1.314 . S
C96 C94 1.353 . S
C96 H154 0.930 . S
C97 N93 1.279 . S
C97 C95 1.358 . S
C97 H155 0.930 . S
C98 C101 1.348 . S
C98 C102 1.356 . S
C98 O149 1.325 . S
C99 N100 1.279 . S
C99 C102 1.358 . S
C99 H156 0.930 . S
N100 C99 1.279 . S
N100 C103 1.314 . S
C101 C98 1.348 . S
C101 C103 1.353 . S
C101 H157 0.929 . S
C102 C98 1.356 . S
C102 C99 1.358 . S
C102 H158 0.930 . S
C103 N100 1.314 . S
C103 C101 1.353 . S
C103 H159 0.930 . S
C104 N105 1.314 . S
C104 C109 1.353 . S
C104 H110 0.930 . S
N105 Li88 1.990 . S
N105 C104 1.314 . S
N105 C107 1.279 . S
C106 C107 1.358 . S
C106 C108 1.356 . S
C106 H160 0.930 . S
C107 N105 1.279 . S
C107 C106 1.358 . S
C107 H111 0.930 . S
C108 C106 1.356 . S
C108 C109 1.348 . S
C109 C104 1.353 . S
C109 C108 1.348 . S
C109 H161 0.929 . S
H110 C104 0.930 . S
H111 C107 0.930 . S
C112 N113 1.314 . S
C112 C114 1.353 . S
C112 H118 0.930 . S
N113 Li89 1.990 . S
N113 C112 1.314 . S
N113 C116 1.279 . S
C114 C112 1.353 . S
C114 C117 1.348 . S
C114 H162 0.929 . S
C115 C116 1.358 . S
C115 C117 1.356 . S
C115 H163 0.930 . S
C116 N113 1.279 . S
C116 C115 1.358 . S
C116 H119 0.930 . S
C117 C114 1.348 . S
C117 C115 1.356 . S
H118 C112 0.930 . S
H119 C116 0.930 . S
C120 C122 1.348 . S
C120 C123 1.356 . S
C120 O150 1.325 . S
N121 C124 1.314 . S
N121 C125 1.279 . S
C122 C120 1.348 . S
C122 C124 1.353 . S
C122 H164 0.929 . S
C123 C120 1.356 . S
C123 C125 1.358 . S
C123 H165 0.930 . S
C124 N121 1.314 . S
C124 C122 1.353 . S
C124 H166 0.930 . S
C125 N121 1.279 . S
C125 C123 1.358 . S
C125 H167 0.930 . S
C126 C127 1.348 . S
C126 C128 1.356 . S
C126 O151 1.325 . S
C127 C126 1.348 . S
C127 C129 1.353 . S
C127 H168 0.929 . S
C128 C126 1.356 . S
C128 C130 1.358 . S
C128 H169 0.930 . S
C129 C127 1.353 . S
C129 N131 1.314 . S
C129 H170 0.930 . S
C130 C128 1.358 . S
C130 N131 1.279 . S
C130 H171 0.930 . S
N131 C129 1.314 . S
N131 C130 1.279 . S
C132 C134 1.353 . S
C132 N135 1.314 . S
C132 H138 0.930 . S
C133 N135 1.279 . S
C133 C136 1.358 . S
C133 H139 0.930 . S
C134 C132 1.353 . S
C134 C137 1.348 . S
C134 H172 0.929 . S
N135 Li90 1.990 . S
N135 C132 1.314 . S
N135 C133 1.279 . S
C136 C133 1.358 . S
C136 C137 1.356 . S
C136 H173 0.930 . S
C137 C134 1.348 . S
C137 C136 1.356 . S
H138 C132 0.930 . S
H139 C133 0.930 . S
C140 N141 1.314 . S
C140 C142 1.353 . S
C140 H146 0.930 . S
N141 Li91 1.990 . S
N141 C140 1.314 . S
N141 C144 1.279 . S
C142 C140 1.353 . S
C142 C145 1.348 . S
C142 H174 0.929 . S
C143 C144 1.358 . S
C143 C145 1.356 . S
C143 H175 0.930 . S
C144 N141 1.279 . S
C144 C143 1.358 . S
C144 H147 0.930 . S
C145 C142 1.348 . S
C145 C143 1.356 . S
H146 C140 0.930 . S
H147 C144 0.930 . S
O148 Li88 1.956 . S
O148 Li89 1.970 . S
O148 Li90 1.961 . S
O148 C92 1.325 . S
O149 Li88 1.970 . S
O149 Li89 1.956 . S
O149 Li91 1.961 . S
O149 C98 1.325 . S
O150 Li88 1.961 . S
O150 Li90 1.956 . S
O150 Li91 1.970 . S
O150 C120 1.325 . S
O151 Li89 1.961 . S
O151 Li90 1.970 . S
O151 Li91 1.956 . S
O151 C126 1.325 . S
H152 C94 0.929 . S
H153 C95 0.930 . S
H154 C96 0.930 . S
H155 C97 0.930 . S
H156 C99 0.930 . S
H157 C101 0.929 . S
H158 C102 0.930 . S
H159 C103 0.930 . S
H160 C106 0.930 . S
H161 C109 0.929 . S
H162 C114 0.929 . S
H163 C115 0.930 . S
H164 C122 0.929 . S
H165 C123 0.930 . S
H166 C124 0.930 . S
H167 C125 0.930 . S
H168 C127 0.929 . S
H169 C128 0.930 . S
H170 C129 0.930 . S
H171 C130 0.930 . S
H172 C134 0.929 . S
H173 C136 0.930 . S
H174 C142 0.929 . S
H175 C143 0.930 . S
Li176 N193 1.990 . S
Li176 O236 1.956 . S
Li176 O237 1.970 . S
Li176 O238 1.961 . S
Li177 N201 1.990 . S
Li177 O236 1.970 . S
Li177 O237 1.956 . S
Li177 O239 1.961 . S
Li178 N223 1.990 . S
Li178 O236 1.961 . S
Li178 O238 1.956 . S
Li178 O239 1.970 . S
Li179 N229 1.990 . S
Li179 O237 1.961 . S
Li179 O238 1.970 . S
Li179 O239 1.956 . S
C180 C182 1.348 . S
C180 C183 1.356 . S
C180 O236 1.325 . S
N181 C184 1.314 . S
N181 C185 1.279 . S
C182 C180 1.348 . S
C182 C184 1.353 . S
C182 H240 0.929 . S
C183 C180 1.356 . S
C183 C185 1.358 . S
C183 H241 0.930 . S
C184 N181 1.314 . S
C184 C182 1.353 . S
C184 H242 0.930 . S
C185 N181 1.279 . S
C185 C183 1.358 . S
C185 H243 0.930 . S
C186 C189 1.348 . S
C186 C190 1.356 . S
C186 O237 1.325 . S
C187 N188 1.279 . S
C187 C190 1.358 . S
C187 H244 0.930 . S
N188 C187 1.279 . S
N188 C191 1.314 . S
C189 C186 1.348 . S
C189 C191 1.353 . S
C189 H245 0.929 . S
C190 C186 1.356 . S
C190 C187 1.358 . S
C190 H246 0.930 . S
C191 N188 1.314 . S
C191 C189 1.353 . S
C191 H247 0.930 . S
C192 N193 1.314 . S
C192 C197 1.353 . S
C192 H198 0.930 . S
N193 Li176 1.990 . S
N193 C192 1.314 . S
N193 C195 1.279 . S
C194 C195 1.358 . S
C194 C196 1.356 . S
C194 H248 0.930 . S
C195 N193 1.279 . S
C195 C194 1.358 . S
C195 H199 0.930 . S
C196 C194 1.356 . S
C196 C197 1.348 . S
C197 C192 1.353 . S
C197 C196 1.348 . S
C197 H249 0.929 . S
H198 C192 0.930 . S
H199 C195 0.930 . S
C200 N201 1.314 . S
C200 C202 1.353 . S
C200 H206 0.930 . S
N201 Li177 1.990 . S
N201 C200 1.314 . S
N201 C204 1.279 . S
C202 C200 1.353 . S
C202 C205 1.348 . S
C202 H250 0.929 . S
C203 C204 1.358 . S
C203 C205 1.356 . S
C203 H251 0.930 . S
C204 N201 1.279 . S
C204 C203 1.358 . S
C204 H207 0.930 . S
C205 C202 1.348 . S
C205 C203 1.356 . S
H206 C200 0.930 . S
H207 C204 0.930 . S
C208 C210 1.348 . S
C208 C211 1.356 . S
C208 O238 1.325 . S
N209 C212 1.314 . S
N209 C213 1.279 . S
C210 C208 1.348 . S
C210 C212 1.353 . S
C210 H252 0.929 . S
C211 C208 1.356 . S
C211 C213 1.358 . S
C211 H253 0.930 . S
C212 N209 1.314 . S
C212 C210 1.353 . S
C212 H254 0.930 . S
C213 N209 1.279 . S
C213 C211 1.358 . S
C213 H255 0.930 . S
C214 C215 1.348 . S
C214 C216 1.356 . S
C214 O239 1.325 . S
C215 C214 1.348 . S
C215 C217 1.353 . S
C215 H256 0.929 . S
C216 C214 1.356 . S
C216 C218 1.358 . S
C216 H257 0.930 . S
C217 C215 1.353 . S
C217 N219 1.314 . S
C217 H258 0.930 . S
C218 C216 1.358 . S
C218 N219 1.279 . S
C218 H259 0.930 . S
N219 C217 1.314 . S
N219 C218 1.279 . S
C220 C222 1.353 . S
C220 N223 1.314 . S
C220 H226 0.930 . S
C221 N223 1.279 . S
C221 C224 1.358 . S
C221 H227 0.930 . S
C222 C220 1.353 . S
C222 C225 1.348 . S
C222 H260 0.929 . S
N223 Li178 1.990 . S
N223 C220 1.314 . S
N223 C221 1.279 . S
C224 C221 1.358 . S
C224 C225 1.356 . S
C224 H261 0.930 . S
C225 C222 1.348 . S
C225 C224 1.356 . S
H226 C220 0.930 . S
H227 C221 0.930 . S
C228 N229 1.314 . S
C228 C230 1.353 . S
C228 H234 0.930 . S
N229 Li179 1.990 . S
N229 C228 1.314 . S
N229 C232 1.279 . S
C230 C228 1.353 . S
C230 C233 1.348 . S
C230 H262 0.929 . S
C231 C232 1.358 . S
C231 C233 1.356 . S
C231 H263 0.930 . S
C232 N229 1.279 . S
C232 C231 1.358 . S
C232 H235 0.930 . S
C233 C230 1.348 . S
C233 C231 1.356 . S
H234 C228 0.930 . S
H235 C232 0.930 . S
O236 Li176 1.956 . S
O236 Li177 1.970 . S
O236 Li178 1.961 . S
O236 C180 1.325 . S
O237 Li176 1.970 . S
O237 Li177 1.956 . S
O237 Li179 1.961 . S
O237 C186 1.325 . S
O238 Li176 1.961 . S
O238 Li178 1.956 . S
O238 Li179 1.970 . S
O238 C208 1.325 . S
O239 Li177 1.961 . S
O239 Li178 1.970 . S
O239 Li179 1.956 . S
O239 C214 1.325 . S
H240 C182 0.929 . S
H241 C183 0.930 . S
H242 C184 0.930 . S
H243 C185 0.930 . S
H244 C187 0.930 . S
H245 C189 0.929 . S
H246 C190 0.930 . S
H247 C191 0.930 . S
H248 C194 0.930 . S
H249 C197 0.929 . S
H250 C202 0.929 . S
H251 C203 0.930 . S
H252 C210 0.929 . S
H253 C211 0.930 . S
H254 C212 0.930 . S
H255 C213 0.930 . S
H256 C215 0.929 . S
H257 C216 0.930 . S
H258 C217 0.930 . S
H259 C218 0.930 . S
H260 C222 0.929 . S
H261 C224 0.930 . S
H262 C230 0.929 . S
H263 C231 0.930 . S
Li264 N281 1.990 1_556 S
Li264 O324 1.956 . S
Li264 O325 1.970 . S
Li264 O326 1.961 . S
Li265 N289 1.990 . S
Li265 O324 1.970 . S
Li265 O325 1.956 . S
Li265 O327 1.961 . S
Li266 N311 1.990 . S
Li266 O324 1.961 . S
Li266 O326 1.956 . S
Li266 O327 1.970 . S
Li267 N317 1.990 . S
Li267 O325 1.961 . S
Li267 O326 1.970 . S
Li267 O327 1.956 . S
C268 C270 1.348 . S
C268 C271 1.356 . S
C268 O324 1.325 1_554 S
N269 C272 1.314 . S
N269 C273 1.279 . S
C270 C268 1.348 . S
C270 C272 1.353 . S
C270 H328 0.929 . S
C271 C268 1.356 . S
C271 C273 1.358 . S
C271 H329 0.930 . S
C272 N269 1.314 . S
C272 C270 1.353 . S
C272 H330 0.930 . S
C273 N269 1.279 . S
C273 C271 1.358 . S
C273 H331 0.930 . S
C274 C277 1.348 . S
C274 C278 1.356 . S
C274 O325 1.325 . S
C275 N276 1.279 . S
C275 C278 1.358 . S
C275 H332 0.930 . S
N276 C275 1.279 . S
N276 C279 1.314 . S
C277 C274 1.348 . S
C277 C279 1.353 . S
C277 H333 0.929 . S
C278 C274 1.356 . S
C278 C275 1.358 . S
C278 H334 0.930 . S
C279 N276 1.314 . S
C279 C277 1.353 . S
C279 H335 0.930 . S
C280 N281 1.314 . S
C280 C285 1.353 . S
C280 H286 0.930 1_554 S
N281 Li264 1.990 1_554 S
N281 C280 1.314 . S
N281 C283 1.279 . S
C282 C283 1.358 . S
C282 C284 1.356 . S
C282 H336 0.930 . S
C283 N281 1.279 . S
C283 C282 1.358 . S
C283 H287 0.930 . S
C284 C282 1.356 . S
C284 C285 1.348 . S
C285 C280 1.353 . S
C285 C284 1.348 . S
C285 H337 0.929 . S
H286 C280 0.930 1_556 S
H287 C283 0.930 . S
C288 N289 1.314 . S
C288 C290 1.353 . S
C288 H294 0.930 . S
N289 Li265 1.990 . S
N289 C288 1.314 . S
N289 C292 1.279 . S
C290 C288 1.353 . S
C290 C293 1.348 . S
C290 H338 0.929 . S
C291 C292 1.358 . S
C291 C293 1.356 . S
C291 H339 0.930 . S
C292 N289 1.279 . S
C292 C291 1.358 . S
C292 H295 0.930 . S
C293 C290 1.348 . S
C293 C291 1.356 . S
H294 C288 0.930 . S
H295 C292 0.930 . S
C296 C298 1.348 . S
C296 C299 1.356 . S
C296 O326 1.325 . S
N297 C300 1.314 . S
N297 C301 1.279 . S
C298 C296 1.348 . S
C298 C300 1.353 . S
C298 H340 0.929 . S
C299 C296 1.356 . S
C299 C301 1.358 . S
C299 H341 0.930 . S
C300 N297 1.314 . S
C300 C298 1.353 . S
C300 H342 0.930 . S
C301 N297 1.279 . S
C301 C299 1.358 . S
C301 H343 0.930 . S
C302 C303 1.348 . S
C302 C304 1.356 . S
C302 O327 1.325 . S
C303 C302 1.348 . S
C303 C305 1.353 . S
C303 H344 0.929 . S
C304 C302 1.356 . S
C304 C306 1.358 . S
C304 H345 0.930 . S
C305 C303 1.353 . S
C305 N307 1.314 . S
C305 H346 0.930 . S
C306 C304 1.358 . S
C306 N307 1.279 . S
C306 H347 0.930 . S
N307 C305 1.314 . S
N307 C306 1.279 . S
C308 C310 1.353 . S
C308 N311 1.314 . S
C308 H314 0.930 . S
C309 N311 1.279 . S
C309 C312 1.358 . S
C309 H315 0.930 . S
C310 C308 1.353 . S
C310 C313 1.348 . S
C310 H348 0.929 . S
N311 Li266 1.990 . S
N311 C308 1.314 . S
N311 C309 1.279 . S
C312 C309 1.358 . S
C312 C313 1.356 . S
C312 H349 0.930 . S
C313 C310 1.348 . S
C313 C312 1.356 . S
H314 C308 0.930 . S
H315 C309 0.930 . S
C316 N317 1.314 . S
C316 C318 1.353 . S
C316 H322 0.930 . S
N317 Li267 1.990 . S
N317 C316 1.314 . S
N317 C320 1.279 . S
C318 C316 1.353 . S
C318 C321 1.348 . S
C318 H350 0.929 . S
C319 C320 1.358 . S
C319 C321 1.356 . S
C319 H351 0.930 . S
C320 N317 1.279 . S
C320 C319 1.358 . S
C320 H323 0.930 . S
C321 C318 1.348 . S
C321 C319 1.356 . S
H322 C316 0.930 . S
H323 C320 0.930 . S
O324 Li264 1.956 . S
O324 Li265 1.970 . S
O324 Li266 1.961 . S
O324 C268 1.325 1_556 S
O325 Li264 1.970 . S
O325 Li265 1.956 . S
O325 Li267 1.961 . S
O325 C274 1.325 . S
O326 Li264 1.961 . S
O326 Li266 1.956 . S
O326 Li267 1.970 . S
O326 C296 1.325 . S
O327 Li265 1.961 . S
O327 Li266 1.970 . S
O327 Li267 1.956 . S
O327 C302 1.325 . S
H328 C270 0.929 . S
H329 C271 0.930 . S
H330 C272 0.930 . S
H331 C273 0.930 . S
H332 C275 0.930 . S
H333 C277 0.929 . S
H334 C278 0.930 . S
H335 C279 0.930 . S
H336 C282 0.930 . S
H337 C285 0.929 . S
H338 C290 0.929 . S
H339 C291 0.930 . S
H340 C298 0.929 . S
H341 C299 0.930 . S
H342 C300 0.930 . S
H343 C301 0.930 . S
H344 C303 0.929 . S
H345 C304 0.930 . S
H346 C305 0.930 . S
H347 C306 0.930 . S
H348 C310 0.929 . S
H349 C312 0.930 . S
H350 C318 0.929 . S
H351 C319 0.930 . S
Li352 N369 1.990 . S
Li352 O412 1.956 . S
Li352 O413 1.970 . S
Li352 O414 1.961 . S
Li353 N377 1.990 . S
Li353 O412 1.970 . S
Li353 O413 1.956 . S
Li353 O415 1.961 . S
Li354 N399 1.990 . S
Li354 O412 1.961 . S
Li354 O414 1.956 . S
Li354 O415 1.970 . S
Li355 N405 1.990 . S
Li355 O413 1.961 . S
Li355 O414 1.970 . S
Li355 O415 1.956 . S
C356 C358 1.348 . S
C356 C359 1.356 . S
C356 O412 1.325 . S
N357 C360 1.314 . S
N357 C361 1.279 . S
C358 C356 1.348 . S
C358 C360 1.353 . S
C358 H416 0.929 . S
C359 C356 1.356 . S
C359 C361 1.358 . S
C359 H417 0.930 . S
C360 N357 1.314 . S
C360 C358 1.353 . S
C360 H418 0.930 . S
C361 N357 1.279 . S
C361 C359 1.358 . S
C361 H419 0.930 . S
C362 C365 1.348 . S
C362 C366 1.356 . S
C362 O413 1.325 . S
C363 N364 1.279 . S
C363 C366 1.358 . S
C363 H420 0.930 . S
N364 C363 1.279 . S
N364 C367 1.314 . S
C365 C362 1.348 . S
C365 C367 1.353 . S
C365 H421 0.929 . S
C366 C362 1.356 . S
C366 C363 1.358 . S
C366 H422 0.930 . S
C367 N364 1.314 . S
C367 C365 1.353 . S
C367 H423 0.930 . S
C368 N369 1.314 . S
C368 C373 1.353 . S
C368 H374 0.930 . S
N369 Li352 1.990 . S
N369 C368 1.314 . S
N369 C371 1.279 . S
C370 C371 1.358 . S
C370 C372 1.356 . S
C370 H424 0.930 . S
C371 N369 1.279 . S
C371 C370 1.358 . S
C371 H375 0.930 . S
C372 C370 1.356 . S
C372 C373 1.348 . S
C373 C368 1.353 . S
C373 C372 1.348 . S
C373 H425 0.929 . S
H374 C368 0.930 . S
H375 C371 0.930 . S
C376 N377 1.314 . S
C376 C378 1.353 . S
C376 H382 0.930 . S
N377 Li353 1.990 . S
N377 C376 1.314 . S
N377 C380 1.279 . S
C378 C376 1.353 . S
C378 C381 1.348 . S
C378 H426 0.929 . S
C379 C380 1.358 . S
C379 C381 1.356 . S
C379 H427 0.930 . S
C380 N377 1.279 . S
C380 C379 1.358 . S
C380 H383 0.930 . S
C381 C378 1.348 . S
C381 C379 1.356 . S
H382 C376 0.930 . S
H383 C380 0.930 . S
C384 C386 1.348 . S
C384 C387 1.356 . S
C384 O414 1.325 . S
N385 C388 1.314 . S
N385 C389 1.279 . S
C386 C384 1.348 . S
C386 C388 1.353 . S
C386 H428 0.929 . S
C387 C384 1.356 . S
C387 C389 1.358 . S
C387 H429 0.930 . S
C388 N385 1.314 . S
C388 C386 1.353 . S
C388 H430 0.930 . S
C389 N385 1.279 . S
C389 C387 1.358 . S
C389 H431 0.930 . S
C390 C391 1.348 . S
C390 C392 1.356 . S
C390 O415 1.325 . S
C391 C390 1.348 . S
C391 C393 1.353 1_554 S
C391 H432 0.929 . S
C392 C390 1.356 . S
C392 C394 1.358 1_554 S
C392 H433 0.930 . S
C393 C391 1.353 1_556 S
C393 N395 1.314 . S
C393 H434 0.930 . S
C394 C392 1.358 1_556 S
C394 N395 1.279 . S
C394 H435 0.930 . S
N395 C393 1.314 . S
N395 C394 1.279 . S
C396 C398 1.353 . S
C396 N399 1.314 . S
C396 H402 0.930 . S
C397 N399 1.279 . S
C397 C400 1.358 . S
C397 H403 0.930 . S
C398 C396 1.353 . S
C398 C401 1.348 . S
C398 H436 0.929 . S
N399 Li354 1.990 . S
N399 C396 1.314 . S
N399 C397 1.279 . S
C400 C397 1.358 . S
C400 C401 1.356 . S
C400 H437 0.930 . S
C401 C398 1.348 . S
C401 C400 1.356 . S
H402 C396 0.930 . S
H403 C397 0.930 . S
C404 N405 1.315 . S
C404 C406 1.339 1_554 S
C404 H410 0.945 . S
N405 Li355 1.990 . S
N405 C404 1.315 . S
N405 C408 1.279 1_554 S
C406 C404 1.339 1_556 S
C406 C409 1.348 . S
C406 H438 0.929 . S
C407 C408 1.358 . S
C407 C409 1.356 . S
C407 H439 0.930 . S
C408 N405 1.279 1_556 S
C408 C407 1.358 . S
C408 H411 0.930 . S
C409 C406 1.348 . S
C409 C407 1.356 . S
H410 C404 0.945 . S
H411 C408 0.930 . S
O412 Li352 1.956 . S
O412 Li353 1.970 . S
O412 Li354 1.961 . S
O412 C356 1.325 . S
O413 Li352 1.970 . S
O413 Li353 1.956 . S
O413 Li355 1.961 . S
O413 C362 1.325 . S
O414 Li352 1.961 . S
O414 Li354 1.956 . S
O414 Li355 1.970 . S
O414 C384 1.325 . S
O415 Li353 1.961 . S
O415 Li354 1.970 . S
O415 Li355 1.956 . S
O415 C390 1.325 . S
H416 C358 0.929 . S
H417 C359 0.930 . S
H418 C360 0.930 . S
H419 C361 0.930 . S
H420 C363 0.930 . S
H421 C365 0.929 . S
H422 C366 0.930 . S
H423 C367 0.930 . S
H424 C370 0.930 . S
H425 C373 0.929 . S
H426 C378 0.929 . S
H427 C379 0.930 . S
H428 C386 0.929 . S
H429 C387 0.930 . S
H430 C388 0.930 . S
H431 C389 0.930 . S
H432 C391 0.929 . S
H433 C392 0.930 . S
H434 C393 0.930 . S
H435 C394 0.930 . S
H436 C398 0.929 . S
H437 C400 0.930 . S
H438 C406 0.929 . S
H439 C407 0.930 . S
Li440 N457 1.990 . S
Li440 O500 1.956 . S
Li440 O501 1.970 . S
Li440 O502 1.961 . S
Li441 N465 1.990 . S
Li441 O500 1.970 . S
Li441 O501 1.956 . S
Li441 O503 1.961 . S
Li442 N487 1.990 . S
Li442 O500 1.961 . S
Li442 O502 1.956 . S
Li442 O503 1.970 . S
Li443 N493 1.990 . S
Li443 O501 1.961 . S
Li443 O502 1.970 . S
Li443 O503 1.956 . S
C444 C446 1.348 . S
C444 C447 1.356 . S
C444 O500 1.325 . S
N445 C448 1.314 . S
N445 C449 1.279 . S
C446 C444 1.348 . S
C446 C448 1.353 . S
C446 H504 0.929 . S
C447 C444 1.356 . S
C447 C449 1.358 . S
C447 H505 0.930 . S
C448 N445 1.314 . S
C448 C446 1.353 . S
C448 H506 0.930 . S
C449 N445 1.279 . S
C449 C447 1.358 . S
C449 H507 0.930 . S
C450 C453 1.348 . S
C450 C454 1.356 . S
C450 O501 1.325 . S
C451 N452 1.279 . S
C451 C454 1.358 . S
C451 H508 0.930 . S
N452 C451 1.279 . S
N452 C455 1.314 . S
C453 C450 1.348 . S
C453 C455 1.353 . S
C453 H509 0.929 . S
C454 C450 1.356 . S
C454 C451 1.358 . S
C454 H510 0.930 . S
C455 N452 1.314 . S
C455 C453 1.353 . S
C455 H511 0.930 . S
C456 N457 1.314 . S
C456 C461 1.353 . S
C456 H462 0.930 . S
N457 Li440 1.990 . S
N457 C456 1.314 . S
N457 C459 1.279 . S
C458 C459 1.358 . S
C458 C460 1.356 . S
C458 H512 0.930 . S
C459 N457 1.279 . S
C459 C458 1.358 . S
C459 H463 0.930 . S
C460 C458 1.356 . S
C460 C461 1.348 . S
C461 C456 1.353 . S
C461 C460 1.348 . S
C461 H513 0.929 . S
H462 C456 0.930 . S
H463 C459 0.930 . S
C464 N465 1.314 . S
C464 C466 1.353 . S
C464 H470 0.930 . S
N465 Li441 1.990 . S
N465 C464 1.314 . S
N465 C468 1.279 . S
C466 C464 1.353 . S
C466 C469 1.348 . S
C466 H514 0.929 . S
C467 C468 1.358 . S
C467 C469 1.356 . S
C467 H515 0.930 . S
C468 N465 1.279 . S
C468 C467 1.358 . S
C468 H471 0.930 . S
C469 C466 1.348 . S
C469 C467 1.356 . S
H470 C464 0.930 . S
H471 C468 0.930 . S
C472 C474 1.348 . S
C472 C475 1.356 . S
C472 O502 1.325 . S
N473 C476 1.314 . S
N473 C477 1.279 . S
C474 C472 1.348 . S
C474 C476 1.353 . S
C474 H516 0.929 . S
C475 C472 1.356 . S
C475 C477 1.358 . S
C475 H517 0.930 . S
C476 N473 1.314 . S
C476 C474 1.353 . S
C476 H518 0.930 . S
C477 N473 1.279 . S
C477 C475 1.358 . S
C477 H519 0.930 . S
C478 C479 1.348 . S
C478 C480 1.356 . S
C478 O503 1.325 . S
C479 C478 1.348 . S
C479 C481 1.353 . S
C479 H520 0.929 . S
C480 C478 1.356 . S
C480 C482 1.358 . S
C480 H521 0.930 . S
C481 C479 1.353 . S
C481 N483 1.314 . S
C481 H522 0.930 . S
C482 C480 1.358 . S
C482 N483 1.279 . S
C482 H523 0.930 . S
N483 C481 1.314 . S
N483 C482 1.279 . S
C484 C486 1.353 . S
C484 N487 1.314 . S
C484 H490 0.930 . S
C485 N487 1.279 . S
C485 C488 1.358 . S
C485 H491 0.930 . S
C486 C484 1.353 . S
C486 C489 1.348 . S
C486 H524 0.929 . S
N487 Li442 1.990 . S
N487 C484 1.314 . S
N487 C485 1.279 . S
C488 C485 1.358 . S
C488 C489 1.356 . S
C488 H525 0.930 . S
C489 C486 1.348 . S
C489 C488 1.356 . S
H490 C484 0.930 . S
H491 C485 0.930 . S
C492 N493 1.314 . S
C492 C494 1.353 . S
C492 H498 0.930 . S
N493 Li443 1.990 . S
N493 C492 1.314 . S
N493 C496 1.279 . S
C494 C492 1.353 . S
C494 C497 1.348 . S
C494 H526 0.929 . S
C495 C496 1.358 . S
C495 C497 1.356 . S
C495 H527 0.930 . S
C496 N493 1.279 . S
C496 C495 1.358 . S
C496 H499 0.930 . S
C497 C494 1.348 . S
C497 C495 1.356 . S
H498 C492 0.930 . S
H499 C496 0.930 . S
O500 Li440 1.956 . S
O500 Li441 1.970 . S
O500 Li442 1.961 . S
O500 C444 1.325 . S
O501 Li440 1.970 . S
O501 Li441 1.956 . S
O501 Li443 1.961 . S
O501 C450 1.325 . S
O502 Li440 1.961 . S
O502 Li442 1.956 . S
O502 Li443 1.970 . S
O502 C472 1.325 . S
O503 Li441 1.961 . S
O503 Li442 1.970 . S
O503 Li443 1.956 . S
O503 C478 1.325 . S
H504 C446 0.929 . S
H505 C447 0.930 . S
H506 C448 0.930 . S
H507 C449 0.930 . S
H508 C451 0.930 . S
H509 C453 0.929 . S
H510 C454 0.930 . S
H511 C455 0.930 . S
H512 C458 0.930 . S
H513 C461 0.929 . S
H514 C466 0.929 . S
H515 C467 0.930 . S
H516 C474 0.929 . S
H517 C475 0.930 . S
H518 C476 0.930 . S
H519 C477 0.930 . S
H520 C479 0.929 . S
H521 C480 0.930 . S
H522 C481 0.930 . S
H523 C482 0.930 . S
H524 C486 0.929 . S
H525 C488 0.930 . S
H526 C494 0.929 . S
H527 C495 0.930 . S
Li528 N545 1.990 . S
Li528 O588 1.956 . S
Li528 O589 1.970 . S
Li528 O590 1.961 . S
Li529 N553 1.990 . S
Li529 O588 1.970 . S
Li529 O589 1.956 . S
Li529 O591 1.961 . S
Li530 N575 1.990 . S
Li530 O588 1.961 . S
Li530 O590 1.956 . S
Li530 O591 1.970 . S
Li531 N581 1.990 . S
Li531 O589 1.961 . S
Li531 O590 1.970 . S
Li531 O591 1.956 . S
C532 C534 1.348 . S
C532 C535 1.356 . S
C532 O588 1.325 . S
N533 C536 1.314 . S
N533 C537 1.279 . S
C534 C532 1.348 . S
C534 C536 1.353 . S
C534 H592 0.929 . S
C535 C532 1.356 . S
C535 C537 1.358 . S
C535 H593 0.930 . S
C536 N533 1.314 . S
C536 C534 1.353 . S
C536 H594 0.930 . S
C537 N533 1.279 . S
C537 C535 1.358 . S
C537 H595 0.930 . S
C538 C541 1.348 . S
C538 C542 1.356 . S
C538 O589 1.325 . S
C539 N540 1.279 . S
C539 C542 1.358 . S
C539 H596 0.930 . S
N540 C539 1.279 . S
N540 C543 1.314 . S
C541 C538 1.348 . S
C541 C543 1.353 . S
C541 H597 0.929 . S
C542 C538 1.356 . S
C542 C539 1.358 . S
C542 H598 0.930 . S
C543 N540 1.314 . S
C543 C541 1.353 . S
C543 H599 0.930 . S
C544 N545 1.314 . S
C544 C549 1.353 . S
C544 H550 0.930 . S
N545 Li528 1.990 . S
N545 C544 1.314 . S
N545 C547 1.279 . S
C546 C547 1.358 . S
C546 C548 1.356 . S
C546 H600 0.930 . S
C547 N545 1.279 . S
C547 C546 1.358 . S
C547 H551 0.930 . S
C548 C546 1.356 . S
C548 C549 1.348 . S
C549 C544 1.353 . S
C549 C548 1.348 . S
C549 H601 0.929 . S
H550 C544 0.930 . S
H551 C547 0.930 . S
C552 N553 1.314 . S
C552 C554 1.353 . S
C552 H558 0.930 . S
N553 Li529 1.990 . S
N553 C552 1.314 . S
N553 C556 1.279 . S
C554 C552 1.353 . S
C554 C557 1.348 . S
C554 H602 0.929 . S
C555 C556 1.358 . S
C555 C557 1.356 . S
C555 H603 0.930 . S
C556 N553 1.279 . S
C556 C555 1.358 . S
C556 H559 0.930 . S
C557 C554 1.348 . S
C557 C555 1.356 . S
H558 C552 0.930 . S
H559 C556 0.930 . S
C560 C562 1.348 . S
C560 C563 1.356 . S
C560 O590 1.325 . S
N561 C564 1.314 . S
N561 C565 1.279 . S
C562 C560 1.348 . S
C562 C564 1.353 . S
C562 H604 0.929 . S
C563 C560 1.356 . S
C563 C565 1.358 . S
C563 H605 0.930 . S
C564 N561 1.314 . S
C564 C562 1.353 . S
C564 H606 0.930 . S
C565 N561 1.279 . S
C565 C563 1.358 . S
C565 H607 0.930 . S
C566 C567 1.348 . S
C566 C568 1.356 . S
C566 O591 1.325 . S
C567 C566 1.348 . S
C567 C569 1.353 . S
C567 H608 0.929 . S
C568 C566 1.356 . S
C568 C570 1.358 . S
C568 H609 0.930 . S
C569 C567 1.353 . S
C569 N571 1.314 . S
C569 H610 0.930 . S
C570 C568 1.358 . S
C570 N571 1.279 . S
C570 H611 0.930 . S
N571 C569 1.314 . S
N571 C570 1.279 . S
C572 C574 1.353 . S
C572 N575 1.314 . S
C572 H578 0.930 . S
C573 N575 1.279 . S
C573 C576 1.358 . S
C573 H579 0.930 . S
C574 C572 1.353 . S
C574 C577 1.348 . S
C574 H612 0.929 . S
N575 Li530 1.990 . S
N575 C572 1.314 . S
N575 C573 1.279 . S
C576 C573 1.358 . S
C576 C577 1.356 . S
C576 H613 0.930 . S
C577 C574 1.348 . S
C577 C576 1.356 . S
H578 C572 0.930 . S
H579 C573 0.930 . S
C580 N581 1.314 . S
C580 C582 1.353 . S
C580 H586 0.930 . S
N581 Li531 1.990 . S
N581 C580 1.314 . S
N581 C584 1.279 . S
C582 C580 1.353 . S
C582 C585 1.348 . S
C582 H614 0.929 . S
C583 C584 1.358 . S
C583 C585 1.356 . S
C583 H615 0.930 . S
C584 N581 1.279 . S
C584 C583 1.358 . S
C584 H587 0.930 . S
C585 C582 1.348 . S
C585 C583 1.356 . S
H586 C580 0.930 . S
H587 C584 0.930 . S
O588 Li528 1.956 . S
O588 Li529 1.970 . S
O588 Li530 1.961 . S
O588 C532 1.325 . S
O589 Li528 1.970 . S
O589 Li529 1.956 . S
O589 Li531 1.961 . S
O589 C538 1.325 . S
O590 Li528 1.961 . S
O590 Li530 1.956 . S
O590 Li531 1.970 . S
O590 C560 1.325 . S
O591 Li529 1.961 . S
O591 Li530 1.970 . S
O591 Li531 1.956 . S
O591 C566 1.325 . S
H592 C534 0.929 . S
H593 C535 0.930 . S
H594 C536 0.930 . S
H595 C537 0.930 . S
H596 C539 0.930 . S
H597 C541 0.929 . S
H598 C542 0.930 . S
H599 C543 0.930 . S
H600 C546 0.930 . S
H601 C549 0.929 . S
H602 C554 0.929 . S
H603 C555 0.930 . S
H604 C562 0.929 . S
H605 C563 0.930 . S
H606 C564 0.930 . S
H607 C565 0.930 . S
H608 C567 0.929 . S
H609 C568 0.930 . S
H610 C569 0.930 . S
H611 C570 0.930 . S
H612 C574 0.929 . S
H613 C576 0.930 . S
H614 C582 0.929 . S
H615 C583 0.930 . S
Li616 N633 1.990 . S
Li616 O676 1.956 . S
Li616 O677 1.970 . S
Li616 O678 1.961 . S
Li617 N641 1.990 . S
Li617 O676 1.970 . S
Li617 O677 1.956 . S
Li617 O679 1.961 . S
Li618 N663 1.990 . S
Li618 O676 1.961 . S
Li618 O678 1.956 . S
Li618 O679 1.970 . S
Li619 N669 1.990 . S
Li619 O677 1.961 . S
Li619 O678 1.970 . S
Li619 O679 1.956 . S
C620 C622 1.348 . S
C620 C623 1.356 . S
C620 O676 1.325 . S
N621 C624 1.314 . S
N621 C625 1.279 . S
C622 C620 1.348 . S
C622 C624 1.353 . S
C622 H680 0.929 . S
C623 C620 1.356 . S
C623 C625 1.358 . S
C623 H681 0.930 . S
C624 N621 1.314 . S
C624 C622 1.353 . S
C624 H682 0.930 . S
C625 N621 1.279 . S
C625 C623 1.358 . S
C625 H683 0.930 . S
C626 C629 1.348 . S
C626 C630 1.356 . S
C626 O677 1.325 . S
C627 N628 1.279 . S
C627 C630 1.358 . S
C627 H684 0.930 . S
N628 C627 1.279 . S
N628 C631 1.314 . S
C629 C626 1.348 . S
C629 C631 1.353 . S
C629 H685 0.929 . S
C630 C626 1.356 . S
C630 C627 1.358 . S
C630 H686 0.930 . S
C631 N628 1.314 . S
C631 C629 1.353 . S
C631 H687 0.930 . S
C632 N633 1.314 . S
C632 C637 1.353 . S
C632 H638 0.930 . S
N633 Li616 1.990 . S
N633 C632 1.314 . S
N633 C635 1.279 . S
C634 C635 1.358 . S
C634 C636 1.356 . S
C634 H688 0.930 . S
C635 N633 1.279 . S
C635 C634 1.358 . S
C635 H639 0.930 . S
C636 C634 1.356 . S
C636 C637 1.348 . S
C637 C632 1.353 . S
C637 C636 1.348 . S
C637 H689 0.929 . S
H638 C632 0.930 . S
H639 C635 0.930 . S
C640 N641 1.314 . S
C640 C642 1.353 . S
C640 H646 0.930 . S
N641 Li617 1.990 . S
N641 C640 1.314 . S
N641 C644 1.279 . S
C642 C640 1.353 . S
C642 C645 1.348 . S
C642 H690 0.929 . S
C643 C644 1.358 . S
C643 C645 1.356 . S
C643 H691 0.930 . S
C644 N641 1.279 . S
C644 C643 1.358 . S
C644 H647 0.930 . S
C645 C642 1.348 . S
C645 C643 1.356 . S
H646 C640 0.930 . S
H647 C644 0.930 . S
C648 C650 1.348 . S
C648 C651 1.356 . S
C648 O678 1.325 . S
N649 C652 1.314 . S
N649 C653 1.279 . S
C650 C648 1.348 . S
C650 C652 1.353 . S
C650 H692 0.929 . S
C651 C648 1.356 . S
C651 C653 1.358 . S
C651 H693 0.930 . S
C652 N649 1.314 . S
C652 C650 1.353 . S
C652 H694 0.930 . S
C653 N649 1.279 . S
C653 C651 1.358 . S
C653 H695 0.930 . S
C654 C655 1.348 . S
C654 C656 1.356 . S
C654 O679 1.325 . S
C655 C654 1.348 . S
C655 C657 1.353 . S
C655 H696 0.929 . S
C656 C654 1.356 . S
C656 C658 1.358 . S
C656 H697 0.930 . S
C657 C655 1.353 . S
C657 N659 1.314 . S
C657 H698 0.930 . S
C658 C656 1.358 . S
C658 N659 1.279 . S
C658 H699 0.930 . S
N659 C657 1.314 . S
N659 C658 1.279 . S
C660 C662 1.353 . S
C660 N663 1.314 . S
C660 H666 0.930 . S
C661 N663 1.279 . S
C661 C664 1.358 . S
C661 H667 0.930 . S
C662 C660 1.353 . S
C662 C665 1.348 . S
C662 H700 0.929 . S
N663 Li618 1.990 . S
N663 C660 1.314 . S
N663 C661 1.279 . S
C664 C661 1.358 . S
C664 C665 1.356 . S
C664 H701 0.930 . S
C665 C662 1.348 . S
C665 C664 1.356 . S
H666 C660 0.930 . S
H667 C661 0.930 . S
C668 N669 1.314 . S
C668 C670 1.353 . S
C668 H674 0.930 . S
N669 Li619 1.990 . S
N669 C668 1.314 . S
N669 C672 1.279 . S
C670 C668 1.353 . S
C670 C673 1.348 . S
C670 H702 0.929 . S
C671 C672 1.358 . S
C671 C673 1.356 . S
C671 H703 0.930 . S
C672 N669 1.279 . S
C672 C671 1.358 . S
C672 H675 0.930 . S
C673 C670 1.348 . S
C673 C671 1.356 . S
H674 C668 0.930 . S
H675 C672 0.930 . S
O676 Li616 1.956 . S
O676 Li617 1.970 . S
O676 Li618 1.961 . S
O676 C620 1.325 . S
O677 Li616 1.970 . S
O677 Li617 1.956 . S
O677 Li619 1.961 . S
O677 C626 1.325 . S
O678 Li616 1.961 . S
O678 Li618 1.956 . S
O678 Li619 1.970 . S
O678 C648 1.325 . S
O679 Li617 1.961 . S
O679 Li618 1.970 . S
O679 Li619 1.956 . S
O679 C654 1.325 . S
H680 C622 0.929 . S
H681 C623 0.930 . S
H682 C624 0.930 . S
H683 C625 0.930 . S
H684 C627 0.930 . S
H685 C629 0.929 . S
H686 C630 0.930 . S
H687 C631 0.930 . S
H688 C634 0.930 . S
H689 C637 0.929 . S
H690 C642 0.929 . S
H691 C643 0.930 . S
H692 C650 0.929 . S
H693 C651 0.930 . S
H694 C652 0.930 . S
H695 C653 0.930 . S
H696 C655 0.929 . S
H697 C656 0.930 . S
H698 C657 0.930 . S
H699 C658 0.930 . S
H700 C662 0.929 . S
H701 C664 0.930 . S
H702 C670 0.929 . S
H703 C671 0.930 . S
Li704 N721 1.990 . S
Li704 O764 1.956 . S
Li704 O765 1.970 . S
Li704 O766 1.961 . S
Li705 N729 1.990 . S
Li705 O764 1.970 . S
Li705 O765 1.956 . S
Li705 O767 1.961 . S
Li706 N751 1.990 . S
Li706 O764 1.961 . S
Li706 O766 1.956 . S
Li706 O767 1.970 . S
Li707 N757 1.990 . S
Li707 O765 1.961 . S
Li707 O766 1.970 . S
Li707 O767 1.956 . S
C708 C710 1.348 . S
C708 C711 1.356 . S
C708 O764 1.325 . S
N709 C712 1.314 . S
N709 C713 1.279 . S
C710 C708 1.348 . S
C710 C712 1.353 . S
C710 H768 0.929 . S
C711 C708 1.356 . S
C711 C713 1.358 . S
C711 H769 0.930 . S
C712 N709 1.314 . S
C712 C710 1.353 . S
C712 H770 0.930 . S
C713 N709 1.279 . S
C713 C711 1.358 . S
C713 H771 0.930 . S
C714 C717 1.348 . S
C714 C718 1.356 . S
C714 O765 1.325 . S
C715 N716 1.279 . S
C715 C718 1.358 . S
C715 H772 0.930 . S
N716 C715 1.279 . S
N716 C719 1.314 . S
C717 C714 1.348 . S
C717 C719 1.353 . S
C717 H773 0.929 . S
C718 C714 1.356 . S
C718 C715 1.358 . S
C718 H774 0.930 . S
C719 N716 1.314 . S
C719 C717 1.353 . S
C719 H775 0.930 . S
C720 N721 1.314 . S
C720 C725 1.353 . S
C720 H726 0.930 . S
N721 Li704 1.990 . S
N721 C720 1.314 . S
N721 C723 1.279 . S
C722 C723 1.358 . S
C722 C724 1.356 . S
C722 H776 0.930 . S
C723 N721 1.279 . S
C723 C722 1.358 . S
C723 H727 0.930 . S
C724 C722 1.356 . S
C724 C725 1.348 . S
C725 C720 1.353 . S
C725 C724 1.348 . S
C725 H777 0.929 . S
H726 C720 0.930 . S
H727 C723 0.930 . S
C728 N729 1.314 . S
C728 C730 1.353 . S
C728 H734 0.930 . S
N729 Li705 1.990 . S
N729 C728 1.314 . S
N729 C732 1.279 . S
C730 C728 1.353 . S
C730 C733 1.348 . S
C730 H778 0.929 . S
C731 C732 1.358 . S
C731 C733 1.356 . S
C731 H779 0.930 . S
C732 N729 1.279 . S
C732 C731 1.358 . S
C732 H735 0.930 . S
C733 C730 1.348 . S
C733 C731 1.356 . S
H734 C728 0.930 . S
H735 C732 0.930 . S
C736 C738 1.348 . S
C736 C739 1.356 . S
C736 O766 1.325 . S
N737 C740 1.314 . S
N737 C741 1.279 . S
C738 C736 1.348 . S
C738 C740 1.353 . S
C738 H780 0.929 . S
C739 C736 1.356 . S
C739 C741 1.358 . S
C739 H781 0.930 . S
C740 N737 1.314 . S
C740 C738 1.353 . S
C740 H782 0.930 . S
C741 N737 1.279 . S
C741 C739 1.358 . S
C741 H783 0.930 . S
C742 C743 1.348 . S
C742 C744 1.356 . S
C742 O767 1.325 . S
C743 C742 1.348 . S
C743 C745 1.353 . S
C743 H784 0.929 . S
C744 C742 1.356 . S
C744 C746 1.358 . S
C744 H785 0.930 . S
C745 C743 1.353 . S
C745 N747 1.314 . S
C745 H786 0.930 . S
C746 C744 1.358 . S
C746 N747 1.279 . S
C746 H787 0.930 . S
N747 C745 1.314 . S
N747 C746 1.279 . S
C748 C750 1.353 . S
C748 N751 1.314 . S
C748 H754 0.930 . S
C749 N751 1.279 . S
C749 C752 1.358 . S
C749 H755 0.930 . S
C750 C748 1.353 . S
C750 C753 1.348 . S
C750 H788 0.929 . S
N751 Li706 1.990 . S
N751 C748 1.314 . S
N751 C749 1.279 . S
C752 C749 1.358 . S
C752 C753 1.356 . S
C752 H789 0.930 . S
C753 C750 1.348 . S
C753 C752 1.356 . S
H754 C748 0.930 . S
H755 C749 0.930 . S
C756 N757 1.314 . S
C756 C758 1.353 . S
C756 H762 0.930 . S
N757 Li707 1.990 . S
N757 C756 1.314 . S
N757 C760 1.279 . S
C758 C756 1.353 . S
C758 C761 1.348 . S
C758 H790 0.929 . S
C759 C760 1.358 . S
C759 C761 1.356 . S
C759 H791 0.930 . S
C760 N757 1.279 . S
C760 C759 1.358 . S
C760 H763 0.930 . S
C761 C758 1.348 . S
C761 C759 1.356 . S
H762 C756 0.930 . S
H763 C760 0.930 . S
O764 Li704 1.956 . S
O764 Li705 1.970 . S
O764 Li706 1.961 . S
O764 C708 1.325 . S
O765 Li704 1.970 . S
O765 Li705 1.956 . S
O765 Li707 1.961 . S
O765 C714 1.325 . S
O766 Li704 1.961 . S
O766 Li706 1.956 . S
O766 Li707 1.970 . S
O766 C736 1.325 . S
O767 Li705 1.961 . S
O767 Li706 1.970 . S
O767 Li707 1.956 . S
O767 C742 1.325 . S
H768 C710 0.929 . S
H769 C711 0.930 . S
H770 C712 0.930 . S
H771 C713 0.930 . S
H772 C715 0.930 . S
H773 C717 0.929 . S
H774 C718 0.930 . S
H775 C719 0.930 . S
H776 C722 0.930 . S
H777 C725 0.929 . S
H778 C730 0.929 . S
H779 C731 0.930 . S
H780 C738 0.929 . S
H781 C739 0.930 . S
H782 C740 0.930 . S
H783 C741 0.930 . S
H784 C743 0.929 . S
H785 C744 0.930 . S
H786 C745 0.930 . S
H787 C746 0.930 . S
H788 C750 0.929 . S
H789 C752 0.930 . S
H790 C758 0.929 . S
H791 C759 0.930 . S
Li792 N809 1.990 . S
Li792 O852 1.956 . S
Li792 O853 1.970 . S
Li792 O854 1.961 . S
Li793 N817 1.990 . S
Li793 O852 1.970 . S
Li793 O853 1.956 . S
Li793 O855 1.961 . S
Li794 N839 1.990 . S
Li794 O852 1.961 . S
Li794 O854 1.956 . S
Li794 O855 1.970 . S
Li795 N845 1.990 . S
Li795 O853 1.961 . S
Li795 O854 1.970 . S
Li795 O855 1.956 . S
C796 C798 1.348 . S
C796 C799 1.356 . S
C796 O852 1.325 . S
N797 C800 1.314 . S
N797 C801 1.279 . S
C798 C796 1.348 . S
C798 C800 1.353 . S
C798 H856 0.929 . S
C799 C796 1.356 . S
C799 C801 1.358 . S
C799 H857 0.930 . S
C800 N797 1.314 . S
C800 C798 1.353 . S
C800 H858 0.930 . S
C801 N797 1.279 . S
C801 C799 1.358 . S
C801 H859 0.930 . S
C802 C805 1.348 . S
C802 C806 1.356 . S
C802 O853 1.325 . S
C803 N804 1.279 . S
C803 C806 1.358 1_554 S
C803 H860 0.930 . S
N804 C803 1.279 . S
N804 C807 1.314 . S
C805 C802 1.348 . S
C805 C807 1.353 1_556 S
C805 H861 0.929 . S
C806 C802 1.356 . S
C806 C803 1.358 1_556 S
C806 H862 0.930 . S
C807 N804 1.314 . S
C807 C805 1.353 1_554 S
C807 H863 0.930 . S
C808 N809 1.314 . S
C808 C813 1.353 . S
C808 H814 0.930 . S
N809 Li792 1.990 . S
N809 C808 1.314 . S
N809 C811 1.279 . S
C810 C811 1.358 . S
C810 C812 1.356 . S
C810 H864 0.930 . S
C811 N809 1.279 . S
C811 C810 1.358 . S
C811 H815 0.930 . S
C812 C810 1.356 . S
C812 C813 1.348 . S
C813 C808 1.353 . S
C813 C812 1.348 . S
C813 H865 0.929 . S
H814 C808 0.930 . S
H815 C811 0.930 . S
C816 N817 1.315 . S
C816 C818 1.340 1_556 S
C816 H822 0.944 . S
N817 Li793 1.990 . S
N817 C816 1.315 . S
N817 C820 1.279 1_556 S
C818 C816 1.340 1_554 S
C818 C821 1.348 . S
C818 H866 0.929 . S
C819 C820 1.358 . S
C819 C821 1.356 . S
C819 H867 0.930 . S
C820 N817 1.279 1_554 S
C820 C819 1.358 . S
C820 H823 0.930 . S
C821 C818 1.348 . S
C821 C819 1.356 . S
H822 C816 0.944 . S
H823 C820 0.930 . S
C824 C826 1.348 . S
C824 C827 1.356 . S
C824 O854 1.325 . S
N825 C828 1.314 . S
N825 C829 1.279 . S
C826 C824 1.348 . S
C826 C828 1.353 . S
C826 H868 0.929 . S
C827 C824 1.356 . S
C827 C829 1.358 . S
C827 H869 0.930 . S
C828 N825 1.314 . S
C828 C826 1.353 . S
C828 H870 0.930 . S
C829 N825 1.279 . S
C829 C827 1.358 . S
C829 H871 0.930 . S
C830 C831 1.348 . S
C830 C832 1.356 . S
C830 O855 1.325 . S
C831 C830 1.348 . S
C831 C833 1.353 . S
C831 H872 0.929 . S
C832 C830 1.356 . S
C832 C834 1.358 . S
C832 H873 0.930 . S
C833 C831 1.353 . S
C833 N835 1.314 . S
C833 H874 0.930 . S
C834 C832 1.358 . S
C834 N835 1.279 . S
C834 H875 0.930 . S
N835 C833 1.314 . S
N835 C834 1.279 . S
C836 C838 1.353 . S
C836 N839 1.314 . S
C836 H842 0.930 . S
C837 N839 1.279 . S
C837 C840 1.358 . S
C837 H843 0.930 . S
C838 C836 1.353 . S
C838 C841 1.348 . S
C838 H876 0.929 . S
N839 Li794 1.990 . S
N839 C836 1.314 . S
N839 C837 1.279 . S
C840 C837 1.358 . S
C840 C841 1.356 . S
C840 H877 0.930 . S
C841 C838 1.348 . S
C841 C840 1.356 . S
H842 C836 0.930 . S
H843 C837 0.930 . S
C844 N845 1.314 . S
C844 C846 1.353 . S
C844 H850 0.930 . S
N845 Li795 1.990 . S
N845 C844 1.314 . S
N845 C848 1.279 . S
C846 C844 1.353 . S
C846 C849 1.348 . S
C846 H878 0.929 . S
C847 C848 1.358 . S
C847 C849 1.356 . S
C847 H879 0.930 . S
C848 N845 1.279 . S
C848 C847 1.358 . S
C848 H851 0.930 . S
C849 C846 1.348 . S
C849 C847 1.356 . S
H850 C844 0.930 . S
H851 C848 0.930 . S
O852 Li792 1.956 . S
O852 Li793 1.970 . S
O852 Li794 1.961 . S
O852 C796 1.325 . S
O853 Li792 1.970 . S
O853 Li793 1.956 . S
O853 Li795 1.961 . S
O853 C802 1.325 . S
O854 Li792 1.961 . S
O854 Li794 1.956 . S
O854 Li795 1.970 . S
O854 C824 1.325 . S
O855 Li793 1.961 . S
O855 Li794 1.970 . S
O855 Li795 1.956 . S
O855 C830 1.325 . S
H856 C798 0.929 . S
H857 C799 0.930 . S
H858 C800 0.930 . S
H859 C801 0.930 . S
H860 C803 0.930 . S
H861 C805 0.929 . S
H862 C806 0.930 . S
H863 C807 0.930 . S
H864 C810 0.930 . S
H865 C813 0.929 . S
H866 C818 0.929 . S
H867 C819 0.930 . S
H868 C826 0.929 . S
H869 C827 0.930 . S
H870 C828 0.930 . S
H871 C829 0.930 . S
H872 C831 0.929 . S
H873 C832 0.930 . S
H874 C833 0.930 . S
H875 C834 0.930 . S
H876 C838 0.929 . S
H877 C840 0.930 . S
H878 C846 0.929 . S
H879 C847 0.930 . S
Li880 N897 1.990 . S
Li880 O940 1.956 . S
Li880 O941 1.970 . S
Li880 O942 1.961 . S
Li881 N905 1.990 . S
Li881 O940 1.970 . S
Li881 O941 1.956 . S
Li881 O943 1.961 . S
Li882 N927 1.990 1_554 S
Li882 O940 1.961 . S
Li882 O942 1.956 . S
Li882 O943 1.970 . S
Li883 N933 1.990 . S
Li883 O941 1.961 . S
Li883 O942 1.970 . S
Li883 O943 1.956 . S
C884 C886 1.348 . S
C884 C887 1.356 . S
C884 O940 1.325 . S
N885 C888 1.314 . S
N885 C889 1.279 . S
C886 C884 1.348 . S
C886 C888 1.353 . S
C886 H944 0.929 . S
C887 C884 1.356 . S
C887 C889 1.358 . S
C887 H945 0.930 . S
C888 N885 1.314 . S
C888 C886 1.353 . S
C888 H946 0.930 . S
C889 N885 1.279 . S
C889 C887 1.358 . S
C889 H947 0.930 . S
C890 C893 1.348 . S
C890 C894 1.356 . S
C890 O941 1.325 . S
C891 N892 1.279 . S
C891 C894 1.358 . S
C891 H948 0.930 . S
N892 C891 1.279 . S
N892 C895 1.314 . S
C893 C890 1.348 . S
C893 C895 1.353 . S
C893 H949 0.929 . S
C894 C890 1.356 . S
C894 C891 1.358 . S
C894 H950 0.930 . S
C895 N892 1.314 . S
C895 C893 1.353 . S
C895 H951 0.930 . S
C896 N897 1.314 . S
C896 C901 1.353 . S
C896 H902 0.930 . S
N897 Li880 1.990 . S
N897 C896 1.314 . S
N897 C899 1.279 . S
C898 C899 1.358 . S
C898 C900 1.356 . S
C898 H952 0.930 . S
C899 N897 1.279 . S
C899 C898 1.358 . S
C899 H903 0.930 . S
C900 C898 1.356 . S
C900 C901 1.348 . S
C901 C896 1.353 . S
C901 C900 1.348 . S
C901 H953 0.929 . S
H902 C896 0.930 . S
H903 C899 0.930 . S
C904 N905 1.314 . S
C904 C906 1.353 . S
C904 H910 0.930 . S
N905 Li881 1.990 . S
N905 C904 1.314 . S
N905 C908 1.279 . S
C906 C904 1.353 . S
C906 C909 1.348 . S
C906 H954 0.929 . S
C907 C908 1.358 . S
C907 C909 1.356 . S
C907 H955 0.930 . S
C908 N905 1.279 . S
C908 C907 1.358 . S
C908 H911 0.930 . S
C909 C906 1.348 . S
C909 C907 1.356 . S
H910 C904 0.930 . S
H911 C908 0.930 . S
C912 C914 1.348 . S
C912 C915 1.356 . S
C912 O942 1.325 1_556 S
N913 C916 1.314 . S
N913 C917 1.279 . S
C914 C912 1.348 . S
C914 C916 1.353 . S
C914 H956 0.929 . S
C915 C912 1.356 . S
C915 C917 1.358 . S
C915 H957 0.930 . S
C916 N913 1.314 . S
C916 C914 1.353 . S
C916 H958 0.930 . S
C917 N913 1.279 . S
C917 C915 1.358 . S
C917 H959 0.930 . S
C918 C919 1.348 . S
C918 C920 1.356 . S
C918 O943 1.325 . S
C919 C918 1.348 . S
C919 C921 1.353 . S
C919 H960 0.929 . S
C920 C918 1.356 . S
C920 C922 1.358 . S
C920 H961 0.930 . S
C921 C919 1.353 . S
C921 N923 1.314 . S
C921 H962 0.930 . S
C922 C920 1.358 . S
C922 N923 1.279 . S
C922 H963 0.930 . S
N923 C921 1.314 . S
N923 C922 1.279 . S
C924 C926 1.353 . S
C924 N927 1.314 . S
C924 H930 0.930 1_556 S
C925 N927 1.279 . S
C925 C928 1.358 . S
C925 H931 0.930 . S
C926 C924 1.353 . S
C926 C929 1.348 . S
C926 H964 0.929 . S
N927 Li882 1.990 1_556 S
N927 C924 1.314 . S
N927 C925 1.279 . S
C928 C925 1.358 . S
C928 C929 1.356 . S
C928 H965 0.930 . S
C929 C926 1.348 . S
C929 C928 1.356 . S
H930 C924 0.930 1_554 S
H931 C925 0.930 . S
C932 N933 1.314 . S
C932 C934 1.353 . S
C932 H938 0.930 . S
N933 Li883 1.990 . S
N933 C932 1.314 . S
N933 C936 1.279 . S
C934 C932 1.353 . S
C934 C937 1.348 . S
C934 H966 0.929 . S
C935 C936 1.358 . S
C935 C937 1.356 . S
C935 H967 0.930 . S
C936 N933 1.279 . S
C936 C935 1.358 . S
C936 H939 0.930 . S
C937 C934 1.348 . S
C937 C935 1.356 . S
H938 C932 0.930 . S
H939 C936 0.930 . S
O940 Li880 1.956 . S
O940 Li881 1.970 . S
O940 Li882 1.961 . S
O940 C884 1.325 . S
O941 Li880 1.970 . S
O941 Li881 1.956 . S
O941 Li883 1.961 . S
O941 C890 1.325 . S
O942 Li880 1.961 . S
O942 Li882 1.956 . S
O942 Li883 1.970 . S
O942 C912 1.325 1_554 S
O943 Li881 1.961 . S
O943 Li882 1.970 . S
O943 Li883 1.956 . S
O943 C918 1.325 . S
H944 C886 0.929 . S
H945 C887 0.930 . S
H946 C888 0.930 . S
H947 C889 0.930 . S
H948 C891 0.930 . S
H949 C893 0.929 . S
H950 C894 0.930 . S
H951 C895 0.930 . S
H952 C898 0.930 . S
H953 C901 0.929 . S
H954 C906 0.929 . S
H955 C907 0.930 . S
H956 C914 0.929 . S
H957 C915 0.930 . S
H958 C916 0.930 . S
H959 C917 0.930 . S
H960 C919 0.929 . S
H961 C920 0.930 . S
H962 C921 0.930 . S
H963 C922 0.930 . S
H964 C926 0.929 . S
H965 C928 0.930 . S
H966 C934 0.929 . S
H967 C935 0.930 . S
Li968 N985 1.990 . S
Li968 O1028 1.956 . S
Li968 O1029 1.970 . S
Li968 O1030 1.961 . S
Li969 N993 1.990 . S
Li969 O1028 1.970 . S
Li969 O1029 1.956 . S
Li969 O1031 1.961 . S
Li970 N1015 1.990 . S
Li970 O1028 1.961 . S
Li970 O1030 1.956 . S
Li970 O1031 1.970 . S
Li971 N1021 1.990 . S
Li971 O1029 1.961 . S
Li971 O1030 1.970 . S
Li971 O1031 1.956 . S
C972 C974 1.348 . S
C972 C975 1.356 . S
C972 O1028 1.325 . S
N973 C976 1.314 . S
N973 C977 1.279 . S
C974 C972 1.348 . S
C974 C976 1.353 . S
C974 H1032 0.929 . S
C975 C972 1.356 . S
C975 C977 1.358 . S
C975 H1033 0.930 . S
C976 N973 1.314 . S
C976 C974 1.353 . S
C976 H1034 0.930 . S
C977 N973 1.279 . S
C977 C975 1.358 . S
C977 H1035 0.930 . S
C978 C981 1.348 . S
C978 C982 1.356 . S
C978 O1029 1.325 . S
C979 N980 1.279 . S
C979 C982 1.358 . S
C979 H1036 0.930 . S
N980 C979 1.279 . S
N980 C983 1.314 . S
C981 C978 1.348 . S
C981 C983 1.353 . S
C981 H1037 0.929 . S
C982 C978 1.356 . S
C982 C979 1.358 . S
C982 H1038 0.930 . S
C983 N980 1.314 . S
C983 C981 1.353 . S
C983 H1039 0.930 . S
C984 N985 1.314 . S
C984 C989 1.353 . S
C984 H990 0.930 . S
N985 Li968 1.990 . S
N985 C984 1.314 . S
N985 C987 1.279 . S
C986 C987 1.358 . S
C986 C988 1.356 . S
C986 H1040 0.930 . S
C987 N985 1.279 . S
C987 C986 1.358 . S
C987 H991 0.930 . S
C988 C986 1.356 . S
C988 C989 1.348 . S
C989 C984 1.353 . S
C989 C988 1.348 . S
C989 H1041 0.929 . S
H990 C984 0.930 . S
H991 C987 0.930 . S
C992 N993 1.314 . S
C992 C994 1.353 . S
C992 H998 0.930 . S
N993 Li969 1.990 . S
N993 C992 1.314 . S
N993 C996 1.279 . S
C994 C992 1.353 . S
C994 C997 1.348 . S
C994 H1042 0.929 . S
C995 C996 1.358 . S
C995 C997 1.356 . S
C995 H1043 0.930 . S
C996 N993 1.279 . S
C996 C995 1.358 . S
C996 H999 0.930 . S
C997 C994 1.348 . S
C997 C995 1.356 . S
H998 C992 0.930 . S
H999 C996 0.930 . S
C1000 C1002 1.348 . S
C1000 C1003 1.356 . S
C1000 O1030 1.325 . S
N1001 C1004 1.314 . S
N1001 C1005 1.279 . S
C1002 C1000 1.348 . S
C1002 C1004 1.353 . S
C1002 H1044 0.929 . S
C1003 C1000 1.356 . S
C1003 C1005 1.358 . S
C1003 H1045 0.930 . S
C1004 N1001 1.314 . S
C1004 C1002 1.353 . S
C1004 H1046 0.930 . S
C1005 N1001 1.279 . S
C1005 C1003 1.358 . S
C1005 H1047 0.930 . S
C1006 C1007 1.348 . S
C1006 C1008 1.356 . S
C1006 O1031 1.325 . S
C1007 C1006 1.348 . S
C1007 C1009 1.353 . S
C1007 H1048 0.929 . S
C1008 C1006 1.356 . S
C1008 C1010 1.358 . S
C1008 H1049 0.930 . S
C1009 C1007 1.353 . S
C1009 N1011 1.314 . S
C1009 H1050 0.930 . S
C1010 C1008 1.358 . S
C1010 N1011 1.279 . S
C1010 H1051 0.930 . S
N1011 C1009 1.314 . S
N1011 C1010 1.279 . S
C1012 C1014 1.353 . S
C1012 N1015 1.314 . S
C1012 H1018 0.930 . S
C1013 N1015 1.279 . S
C1013 C1016 1.358 . S
C1013 H1019 0.930 . S
C1014 C1012 1.353 . S
C1014 C1017 1.348 . S
C1014 H1052 0.929 . S
N1015 Li970 1.990 . S
N1015 C1012 1.314 . S
N1015 C1013 1.279 . S
C1016 C1013 1.358 . S
C1016 C1017 1.356 . S
C1016 H1053 0.930 . S
C1017 C1014 1.348 . S
C1017 C1016 1.356 . S
H1018 C1012 0.930 . S
H1019 C1013 0.930 . S
C1020 N1021 1.314 . S
C1020 C1022 1.353 . S
C1020 H1026 0.930 . S
N1021 Li971 1.990 . S
N1021 C1020 1.314 . S
N1021 C1024 1.279 . S
C1022 C1020 1.353 . S
C1022 C1025 1.348 . S
C1022 H1054 0.929 . S
C1023 C1024 1.358 . S
C1023 C1025 1.356 . S
C1023 H1055 0.930 . S
C1024 N1021 1.279 . S
C1024 C1023 1.358 . S
C1024 H1027 0.930 . S
C1025 C1022 1.348 . S
C1025 C1023 1.356 . S
H1026 C1020 0.930 . S
H1027 C1024 0.930 . S
O1028 Li968 1.956 . S
O1028 Li969 1.970 . S
O1028 Li970 1.961 . S
O1028 C972 1.325 . S
O1029 Li968 1.970 . S
O1029 Li969 1.956 . S
O1029 Li971 1.961 . S
O1029 C978 1.325 . S
O1030 Li968 1.961 . S
O1030 Li970 1.956 . S
O1030 Li971 1.970 . S
O1030 C1000 1.325 . S
O1031 Li969 1.961 . S
O1031 Li970 1.970 . S
O1031 Li971 1.956 . S
O1031 C1006 1.325 . S
H1032 C974 0.929 . S
H1033 C975 0.930 . S
H1034 C976 0.930 . S
H1035 C977 0.930 . S
H1036 C979 0.930 . S
H1037 C981 0.929 . S
H1038 C982 0.930 . S
H1039 C983 0.930 . S
H1040 C986 0.930 . S
H1041 C989 0.929 . S
H1042 C994 0.929 . S
H1043 C995 0.930 . S
H1044 C1002 0.929 . S
H1045 C1003 0.930 . S
H1046 C1004 0.930 . S
H1047 C1005 0.930 . S
H1048 C1007 0.929 . S
H1049 C1008 0.930 . S
H1050 C1009 0.930 . S
H1051 C1010 0.930 . S
H1052 C1014 0.929 . S
H1053 C1016 0.930 . S
H1054 C1022 0.929 . S
H1055 C1023 0.930 . S
H1056 C1068 0.930 . S
H1057 C1070 0.930 . S
H1058 C1071 0.930 . S
H1059 C1075 0.959 . S
H1060 C1075 0.959 . S
H1061 C1075 0.961 . S
H1062 C1076 0.960 . S
H1063 C1076 0.961 . S
H1064 C1076 0.959 . S
H1065 C1079 0.929 . S
H1066 C1080 0.931 . S
H1067 C1082 0.930 . S
C1068 H1056 0.930 . S
C1068 C1069 1.399 . S
C1068 C1073 1.399 . S
C1069 C1068 1.399 . S
C1069 C1070 1.376 . S
C1070 H1057 0.930 . S
C1070 C1069 1.376 . S
C1070 C1071 1.388 . S
C1071 H1058 0.930 . S
C1071 C1070 1.388 . S
C1071 C1072 1.390 . S
C1072 C1071 1.390 . S
C1072 C1073 1.394 . S
C1072 C1078 1.465 . S
C1073 C1068 1.399 . S
C1073 C1072 1.394 . S
C1073 C1074 1.516 . S
C1074 C1073 1.516 . S
C1074 C1075 1.502 . S
C1074 C1076 1.561 . S
C1074 C1077 1.526 . S
C1075 H1059 0.959 . S
C1075 H1060 0.959 . S
C1075 H1061 0.961 . S
C1075 C1074 1.502 . S
C1076 H1062 0.960 . S
C1076 H1063 0.961 . S
C1076 H1064 0.959 . S
C1076 C1074 1.561 . S
C1077 C1074 1.526 . S
C1077 C1078 1.396 . S
C1077 C1082 1.390 . S
C1078 C1072 1.465 . S
C1078 C1077 1.396 . S
C1078 C1079 1.399 . S
C1079 H1065 0.929 . S
C1079 C1078 1.399 . S
C1079 C1080 1.385 . S
C1080 H1066 0.931 . S
C1080 C1079 1.385 . S
C1080 C1081 1.389 . S
C1081 C1080 1.389 . S
C1081 C1082 1.387 . S
C1082 H1067 0.930 . S
C1082 C1077 1.390 . S
C1082 C1081 1.387 . S
H1083 C1095 0.930 . S
H1084 C1097 0.930 . S
H1085 C1098 0.930 . S
H1086 C1102 0.964 . S
H1087 C1102 0.959 . S
H1088 C1102 0.961 . S
H1089 C1103 0.960 . S
H1090 C1103 0.961 . S
H1091 C1103 0.959 . S
H1092 C1106 0.929 . S
H1093 C1107 0.931 . S
H1094 C1109 0.930 . S
C1095 H1083 0.930 . S
C1095 C1096 1.399 . S
C1095 C1100 1.399 . S
C1096 C1095 1.399 . S
C1096 C1097 1.376 . S
C1097 H1084 0.930 . S
C1097 C1096 1.376 . S
C1097 C1098 1.388 . S
C1098 H1085 0.930 . S
C1098 C1097 1.388 . S
C1098 C1099 1.390 . S
C1099 C1098 1.390 . S
C1099 C1100 1.394 . S
C1099 C1105 1.465 1_455 S
C1100 C1095 1.399 . S
C1100 C1099 1.394 . S
C1100 C1101 1.516 . S
C1101 C1100 1.516 . S
C1101 C1102 1.502 . S
C1101 C1103 1.561 . S
C1101 C1104 1.526 1_455 S
C1102 H1086 0.964 . S
C1102 H1087 0.959 . S
C1102 H1088 0.961 . S
C1102 C1101 1.502 . S
C1103 H1089 0.960 . S
C1103 H1090 0.961 . S
C1103 H1091 0.959 . S
C1103 C1101 1.561 . S
C1104 C1101 1.526 1_655 S
C1104 C1105 1.396 . S
C1104 C1109 1.390 . S
C1105 C1099 1.465 1_655 S
C1105 C1104 1.396 . S
C1105 C1106 1.399 . S
C1106 H1092 0.929 . S
C1106 C1105 1.399 . S
C1106 C1107 1.385 . S
C1107 H1093 0.931 . S
C1107 C1106 1.385 . S
C1107 C1108 1.389 . S
C1108 C1107 1.389 . S
C1108 C1109 1.387 . S
C1109 H1094 0.930 . S
C1109 C1104 1.390 . S
C1109 C1108 1.387 . S
H1110 C1122 0.930 . S
H1111 C1124 0.930 . S
H1112 C1125 0.930 . S
H1113 C1129 0.959 . S
H1114 C1129 0.959 . S
H1115 C1129 0.961 . S
H1116 C1130 0.960 . S
H1117 C1130 0.961 . S
H1118 C1130 0.959 . S
H1119 C1133 0.929 1_565 S
H1120 C1134 0.931 . S
H1121 C1136 0.930 . S
C1122 H1110 0.930 . S
C1122 C1123 1.399 . S
C1122 C1127 1.399 . S
C1123 C1122 1.399 . S
C1123 C1124 1.376 . S
C1124 H1111 0.930 . S
C1124 C1123 1.376 . S
C1124 C1125 1.388 . S
C1125 H1112 0.930 . S
C1125 C1124 1.388 . S
C1125 C1126 1.390 . S
C1126 C1125 1.390 . S
C1126 C1127 1.394 . S
C1126 C1132 1.465 1_565 S
C1127 C1122 1.399 . S
C1127 C1126 1.394 . S
C1127 C1128 1.516 1_565 S
C1128 C1127 1.516 1_545 S
C1128 C1129 1.502 . S
C1128 C1130 1.561 . S
C1128 C1131 1.526 . S
C1129 H1113 0.959 . S
C1129 H1114 0.959 . S
C1129 H1115 0.961 . S
C1129 C1128 1.502 . S
C1130 H1116 0.960 . S
C1130 H1117 0.961 . S
C1130 H1118 0.959 . S
C1130 C1128 1.561 . S
C1131 C1128 1.526 . S
C1131 C1132 1.396 . S
C1131 C1136 1.390 . S
C1132 C1126 1.465 1_545 S
C1132 C1131 1.396 . S
C1132 C1133 1.399 . S
C1133 H1119 0.929 1_545 S
C1133 C1132 1.399 . S
C1133 C1134 1.385 . S
C1134 H1120 0.931 . S
C1134 C1133 1.385 . S
C1134 C1135 1.389 . S
C1135 C1134 1.389 . S
C1135 C1136 1.387 . S
C1136 H1121 0.930 . S
C1136 C1131 1.390 . S
C1136 C1135 1.387 . S
H1137 C1149 0.930 . S
H1138 C1151 0.930 . S
H1139 C1152 0.930 . S
H1140 C1156 0.959 . S
H1141 C1156 0.959 . S
H1142 C1156 0.961 . S
H1143 C1157 0.960 . S
H1144 C1157 0.961 . S
H1145 C1157 0.959 . S
H1146 C1160 0.929 . S
H1147 C1161 0.931 . S
H1148 C1163 0.930 . S
C1149 H1137 0.930 . S
C1149 C1150 1.399 . S
C1149 C1154 1.399 . S
C1150 C1149 1.399 . S
C1150 C1151 1.376 . S
C1151 H1138 0.930 . S
C1151 C1150 1.376 . S
C1151 C1152 1.388 . S
C1152 H1139 0.930 . S
C1152 C1151 1.388 . S
C1152 C1153 1.390 . S
C1153 C1152 1.390 . S
C1153 C1154 1.394 . S
C1153 C1159 1.465 . S
C1154 C1149 1.399 . S
C1154 C1153 1.394 . S
C1154 C1155 1.516 . S
C1155 C1154 1.516 . S
C1155 C1156 1.502 . S
C1155 C1157 1.561 . S
C1155 C1158 1.526 . S
C1156 H1140 0.959 . S
C1156 H1141 0.959 . S
C1156 H1142 0.961 . S
C1156 C1155 1.502 . S
C1157 H1143 0.960 . S
C1157 H1144 0.961 . S
C1157 H1145 0.959 . S
C1157 C1155 1.561 . S
C1158 C1155 1.526 . S
C1158 C1159 1.396 . S
C1158 C1163 1.390 . S
C1159 C1153 1.465 . S
C1159 C1158 1.396 . S
C1159 C1160 1.399 . S
C1160 H1146 0.929 . S
C1160 C1159 1.399 . S
C1160 C1161 1.385 . S
C1161 H1147 0.931 . S
C1161 C1160 1.385 . S
C1161 C1162 1.389 . S
C1162 C1161 1.389 . S
C1162 C1163 1.387 . S
C1163 H1148 0.930 . S
C1163 C1158 1.390 . S
C1163 C1162 1.387 . S
H1164 C1176 0.930 . S
H1165 C1178 0.930 . S
H1166 C1179 0.930 1_655 S
H1167 C1183 0.959 . S
H1168 C1183 0.959 . S
H1169 C1183 0.961 . S
H1170 C1184 0.960 . S
H1171 C1184 0.961 . S
H1172 C1184 0.959 . S
H1173 C1187 0.929 . S
H1174 C1188 0.931 . S
H1175 C1190 0.930 . S
C1176 H1164 0.930 . S
C1176 C1177 1.399 . S
C1176 C1181 1.399 . S
C1177 C1176 1.399 . S
C1177 C1178 1.376 . S
C1178 H1165 0.930 . S
C1178 C1177 1.376 . S
C1178 C1179 1.388 . S
C1179 H1166 0.930 1_455 S
C1179 C1178 1.388 . S
C1179 C1180 1.390 . S
C1180 C1179 1.390 . S
C1180 C1181 1.394 . S
C1180 C1186 1.465 1_455 S
C1181 C1176 1.399 . S
C1181 C1180 1.394 . S
C1181 C1182 1.516 . S
C1182 C1181 1.516 . S
C1182 C1183 1.502 . S
C1182 C1184 1.561 . S
C1182 C1185 1.526 1_455 S
C1183 H1167 0.959 . S
C1183 H1168 0.959 . S
C1183 H1169 0.961 . S
C1183 C1182 1.502 . S
C1184 H1170 0.960 . S
C1184 H1171 0.961 . S
C1184 H1172 0.959 . S
C1184 C1182 1.561 . S
C1185 C1182 1.526 1_655 S
C1185 C1186 1.396 . S
C1185 C1190 1.390 . S
C1186 C1180 1.465 1_655 S
C1186 C1185 1.396 . S
C1186 C1187 1.399 . S
C1187 H1173 0.929 . S
C1187 C1186 1.399 . S
C1187 C1188 1.385 . S
C1188 H1174 0.931 . S
C1188 C1187 1.385 . S
C1188 C1189 1.389 . S
C1189 C1188 1.389 . S
C1189 C1190 1.387 . S
C1190 H1175 0.930 . S
C1190 C1185 1.390 . S
C1190 C1189 1.387 . S
H1191 C1203 0.930 . S
H1192 C1205 0.930 . S
H1193 C1206 0.930 . S
H1194 C1210 0.959 . S
H1195 C1210 0.959 . S
H1196 C1210 0.961 . S
H1197 C1211 0.960 . S
H1198 C1211 0.961 . S
H1199 C1211 0.959 . S
H1200 C1214 0.929 1_545 S
H1201 C1215 0.931 . S
H1202 C1217 0.930 . S
C1203 H1191 0.930 . S
C1203 C1204 1.399 . S
C1203 C1208 1.399 . S
C1204 C1203 1.399 . S
C1204 C1205 1.376 . S
C1205 H1192 0.930 . S
C1205 C1204 1.376 . S
C1205 C1206 1.388 1_556 S
C1206 H1193 0.930 . S
C1206 C1205 1.388 1_554 S
C1206 C1207 1.390 1_554 S
C1207 C1206 1.390 1_556 S
C1207 C1208 1.394 . S
C1207 C1213 1.465 1_546 S
C1208 C1203 1.399 . S
C1208 C1207 1.394 . S
C1208 C1209 1.516 1_545 S
C1209 C1208 1.516 1_565 S
C1209 C1210 1.502 . S
C1209 C1211 1.561 . S
C1209 C1212 1.526 1_556 S
C1210 H1194 0.959 . S
C1210 H1195 0.959 . S
C1210 H1196 0.961 . S
C1210 C1209 1.502 . S
C1211 H1197 0.960 . S
C1211 H1198 0.961 . S
C1211 H1199 0.959 . S
C1211 C1209 1.561 . S
C1212 C1209 1.526 1_554 S
C1212 C1213 1.396 . S
C1212 C1217 1.390 . S
C1213 C1207 1.465 1_564 S
C1213 C1212 1.396 . S
C1213 C1214 1.399 . S
C1214 H1200 0.929 1_565 S
C1214 C1213 1.399 . S
C1214 C1215 1.385 . S
C1215 H1201 0.931 . S
C1215 C1214 1.385 . S
C1215 C1216 1.389 . S
C1216 C1215 1.389 . S
C1216 C1217 1.387 . S
C1217 H1202 0.930 . S
C1217 C1212 1.390 . S
C1217 C1216 1.387 . S
H1218 C1230 0.930 . S
H1219 C1232 0.930 . S
H1220 C1233 0.930 . S
H1221 C1237 0.959 . S
H1222 C1237 0.959 . S
H1223 C1237 0.961 . S
H1224 C1238 0.960 . S
H1225 C1238 0.961 . S
H1226 C1238 0.959 . S
H1227 C1241 0.929 . S
H1228 C1242 0.931 . S
H1229 C1244 0.930 . S
C1230 H1218 0.930 . S
C1230 C1231 1.399 . S
C1230 C1235 1.399 . S
C1231 C1230 1.399 . S
C1231 C1232 1.376 . S
C1232 H1219 0.930 . S
C1232 C1231 1.376 . S
C1232 C1233 1.388 . S
C1233 H1220 0.930 . S
C1233 C1232 1.388 . S
C1233 C1234 1.390 . S
C1234 C1233 1.390 . S
C1234 C1235 1.394 . S
C1234 C1240 1.465 . S
C1235 C1230 1.399 . S
C1235 C1234 1.394 . S
C1235 C1236 1.516 . S
C1236 C1235 1.516 . S
C1236 C1237 1.502 . S
C1236 C1238 1.561 . S
C1236 C1239 1.526 . S
C1237 H1221 0.959 . S
C1237 H1222 0.959 . S
C1237 H1223 0.961 . S
C1237 C1236 1.502 . S
C1238 H1224 0.960 . S
C1238 H1225 0.961 . S
C1238 H1226 0.959 . S
C1238 C1236 1.561 . S
C1239 C1236 1.526 . S
C1239 C1240 1.396 . S
C1239 C1244 1.390 . S
C1240 C1234 1.465 . S
C1240 C1239 1.396 . S
C1240 C1241 1.399 . S
C1241 H1227 0.929 . S
C1241 C1240 1.399 . S
C1241 C1242 1.385 . S
C1242 H1228 0.931 . S
C1242 C1241 1.385 . S
C1242 C1243 1.389 . S
C1243 C1242 1.389 . S
C1243 C1244 1.387 . S
C1244 H1229 0.930 . S
C1244 C1239 1.390 . S
C1244 C1243 1.387 . S
H1245 C1257 0.930 . S
H1246 C1259 0.930 . S
H1247 C1260 0.930 . S
H1248 C1264 0.959 . S
H1249 C1264 0.959 . S
H1250 C1264 0.961 . S
H1251 C1265 0.960 . S
H1252 C1265 0.961 . S
H1253 C1265 0.959 . S
H1254 C1268 0.929 . S
H1255 C1269 0.931 . S
H1256 C1271 0.930 . S
C1257 H1245 0.930 . S
C1257 C1258 1.399 . S
C1257 C1262 1.399 . S
C1258 C1257 1.399 . S
C1258 C1259 1.376 . S
C1259 H1246 0.930 . S
C1259 C1258 1.376 . S
C1259 C1260 1.388 . S
C1260 H1247 0.930 . S
C1260 C1259 1.388 . S
C1260 C1261 1.390 . S
C1261 C1260 1.390 . S
C1261 C1262 1.394 . S
C1261 C1267 1.465 . S
C1262 C1257 1.399 . S
C1262 C1261 1.394 . S
C1262 C1263 1.516 . S
C1263 C1262 1.516 . S
C1263 C1264 1.502 . S
C1263 C1265 1.561 . S
C1263 C1266 1.526 . S
C1264 H1248 0.959 . S
C1264 H1249 0.959 . S
C1264 H1250 0.961 . S
C1264 C1263 1.502 . S
C1265 H1251 0.960 . S
C1265 H1252 0.961 . S
C1265 H1253 0.959 . S
C1265 C1263 1.561 . S
C1266 C1263 1.526 . S
C1266 C1267 1.396 . S
C1266 C1271 1.390 . S
C1267 C1261 1.465 . S
C1267 C1266 1.396 . S
C1267 C1268 1.399 . S
C1268 H1254 0.929 . S
C1268 C1267 1.399 . S
C1268 C1269 1.385 . S
C1269 H1255 0.931 . S
C1269 C1268 1.385 . S
C1269 C1270 1.389 . S
C1270 C1269 1.389 . S
C1270 C1271 1.387 . S
C1271 H1256 0.930 . S
C1271 C1266 1.390 . S
C1271 C1270 1.387 . S
H1272 C1284 0.930 . S
H1273 C1286 0.930 . S
H1274 C1287 0.930 . S
H1275 C1291 0.959 . S
H1276 C1291 0.959 . S
H1277 C1291 0.961 . S
H1278 C1292 0.960 . S
H1279 C1292 0.961 . S
H1280 C1292 0.959 . S
H1281 C1295 0.929 . S
H1282 C1296 0.931 . S
H1283 C1298 0.930 . S
C1284 H1272 0.930 . S
C1284 C1285 1.399 . S
C1284 C1289 1.399 . S
C1285 C1284 1.399 . S
C1285 C1286 1.376 . S
C1286 H1273 0.930 . S
C1286 C1285 1.376 . S
C1286 C1287 1.388 . S
C1287 H1274 0.930 . S
C1287 C1286 1.388 . S
C1287 C1288 1.390 . S
C1288 C1287 1.390 . S
C1288 C1289 1.394 . S
C1288 C1294 1.465 . S
C1289 C1284 1.399 . S
C1289 C1288 1.394 . S
C1289 C1290 1.516 . S
C1290 C1289 1.516 . S
C1290 C1291 1.502 . S
C1290 C1292 1.561 . S
C1290 C1293 1.526 . S
C1291 H1275 0.959 . S
C1291 H1276 0.959 . S
C1291 H1277 0.961 . S
C1291 C1290 1.502 . S
C1292 H1278 0.960 . S
C1292 H1279 0.961 . S
C1292 H1280 0.959 . S
C1292 C1290 1.561 . S
C1293 C1290 1.526 . S
C1293 C1294 1.396 . S
C1293 C1298 1.390 . S
C1294 C1288 1.465 . S
C1294 C1293 1.396 . S
C1294 C1295 1.399 . S
C1295 H1281 0.929 . S
C1295 C1294 1.399 . S
C1295 C1296 1.385 . S
C1296 H1282 0.931 . S
C1296 C1295 1.385 . S
C1296 C1297 1.389 . S
C1297 C1296 1.389 . S
C1297 C1298 1.387 . S
C1298 H1283 0.930 . S
C1298 C1293 1.390 . S
C1298 C1297 1.387 . S
H1299 C1311 0.930 . S
H1300 C1313 0.930 . S
H1301 C1314 0.930 . S
H1302 C1318 0.959 . S
H1303 C1318 0.959 . S
H1304 C1318 0.961 . S
H1305 C1319 0.960 . S
H1306 C1319 0.961 . S
H1307 C1319 0.959 . S
H1308 C1322 0.929 . S
H1309 C1323 0.931 . S
H1310 C1325 0.930 . S
C1311 H1299 0.930 . S
C1311 C1312 1.399 . S
C1311 C1316 1.399 . S
C1312 C1311 1.399 . S
C1312 C1313 1.376 . S
C1313 H1300 0.930 . S
C1313 C1312 1.376 . S
C1313 C1314 1.388 . S
C1314 H1301 0.930 . S
C1314 C1313 1.388 . S
C1314 C1315 1.390 . S
C1315 C1314 1.390 . S
C1315 C1316 1.394 . S
C1315 C1321 1.465 . S
C1316 C1311 1.399 . S
C1316 C1315 1.394 . S
C1316 C1317 1.516 . S
C1317 C1316 1.516 . S
C1317 C1318 1.502 . S
C1317 C1319 1.561 . S
C1317 C1320 1.526 . S
C1318 H1302 0.959 . S
C1318 H1303 0.959 . S
C1318 H1304 0.961 . S
C1318 C1317 1.502 . S
C1319 H1305 0.960 . S
C1319 H1306 0.961 . S
C1319 H1307 0.959 . S
C1319 C1317 1.561 . S
C1320 C1317 1.526 . S
C1320 C1321 1.396 . S
C1320 C1325 1.390 . S
C1321 C1315 1.465 . S
C1321 C1320 1.396 . S
C1321 C1322 1.399 . S
C1322 H1308 0.929 . S
C1322 C1321 1.399 . S
C1322 C1323 1.385 . S
C1323 H1309 0.931 . S
C1323 C1322 1.385 . S
C1323 C1324 1.389 . S
C1324 C1323 1.389 . S
C1324 C1325 1.387 . S
C1325 H1310 0.930 . S
C1325 C1320 1.390 . S
C1325 C1324 1.387 . S
H1326 C1338 0.930 . S
H1327 C1340 0.930 . S
H1328 C1341 0.930 . S
H1329 C1345 0.958 1_554 S
H1330 C1345 0.963 . S
H1331 C1345 0.964 . S
H1332 C1346 0.960 . S
H1333 C1346 0.961 . S
H1334 C1346 0.959 . S
H1335 C1349 0.929 . S
H1336 C1350 0.931 . S
H1337 C1352 0.930 . S
C1338 H1326 0.930 . S
C1338 C1339 1.399 . S
C1338 C1343 1.399 . S
C1339 C1338 1.399 . S
C1339 C1340 1.376 . S
C1340 H1327 0.930 . S
C1340 C1339 1.376 . S
C1340 C1341 1.388 . S
C1341 H1328 0.930 . S
C1341 C1340 1.388 . S
C1341 C1342 1.390 . S
C1342 C1341 1.390 . S
C1342 C1343 1.394 . S
C1342 C1348 1.465 . S
C1343 C1338 1.399 . S
C1343 C1342 1.394 . S
C1343 C1344 1.516 . S
C1344 C1343 1.516 . S
C1344 C1345 1.496 1_554 S
C1344 C1346 1.561 . S
C1344 C1347 1.526 . S
C1345 H1329 0.958 1_556 S
C1345 H1330 0.963 . S
C1345 H1331 0.964 . S
C1345 C1344 1.496 1_556 S
C1346 H1332 0.960 . S
C1346 H1333 0.961 . S
C1346 H1334 0.959 . S
C1346 C1344 1.561 . S
C1347 C1344 1.526 . S
C1347 C1348 1.396 . S
C1347 C1352 1.390 . S
C1348 C1342 1.465 . S
C1348 C1347 1.396 . S
C1348 C1349 1.399 . S
C1349 H1335 0.929 . S
C1349 C1348 1.399 . S
C1349 C1350 1.385 . S
C1350 H1336 0.931 . S
C1350 C1349 1.385 . S
C1350 C1351 1.389 . S
C1351 C1350 1.389 . S
C1351 C1352 1.387 . S
C1352 H1337 0.930 . S
C1352 C1347 1.390 . S
C1352 C1351 1.387 . S
H1353 C1365 0.930 . S
H1354 C1367 0.930 . S
H1355 C1368 0.930 . S
H1356 C1372 0.959 . S
H1357 C1372 0.959 . S
H1358 C1372 0.961 . S
H1359 C1373 0.960 . S
H1360 C1373 0.961 . S
H1361 C1373 0.959 . S
H1362 C1376 0.929 . S
H1363 C1377 0.931 . S
H1364 C1379 0.930 . S
C1365 H1353 0.930 . S
C1365 C1366 1.399 . S
C1365 C1370 1.399 . S
C1366 C1365 1.399 . S
C1366 C1367 1.376 . S
C1367 H1354 0.930 . S
C1367 C1366 1.376 . S
C1367 C1368 1.388 . S
C1368 H1355 0.930 . S
C1368 C1367 1.388 . S
C1368 C1369 1.390 . S
C1369 C1368 1.390 . S
C1369 C1370 1.394 . S
C1369 C1375 1.465 . S
C1370 C1365 1.399 . S
C1370 C1369 1.394 . S
C1370 C1371 1.516 . S
C1371 C1370 1.516 . S
C1371 C1372 1.502 . S
C1371 C1373 1.561 . S
C1371 C1374 1.526 . S
C1372 H1356 0.959 . S
C1372 H1357 0.959 . S
C1372 H1358 0.961 . S
C1372 C1371 1.502 . S
C1373 H1359 0.960 . S
C1373 H1360 0.961 . S
C1373 H1361 0.959 . S
C1373 C1371 1.561 . S
C1374 C1371 1.526 . S
C1374 C1375 1.396 . S
C1374 C1379 1.390 . S
C1375 C1369 1.465 . S
C1375 C1374 1.396 . S
C1375 C1376 1.399 . S
C1376 H1362 0.929 . S
C1376 C1375 1.399 . S
C1376 C1377 1.385 . S
C1377 H1363 0.931 . S
C1377 C1376 1.385 . S
C1377 C1378 1.389 . S
C1378 C1377 1.389 . S
C1378 C1379 1.387 . S
C1379 H1364 0.930 . S
C1379 C1374 1.390 . S
C1379 C1378 1.387 . S
H1380 C1392 0.930 . S
H1381 C1394 0.930 . S
H1382 C1395 0.930 . S
H1383 C1399 0.959 . S
H1384 C1399 0.959 . S
H1385 C1399 0.961 . S
H1386 C1400 0.960 . S
H1387 C1400 0.961 . S
H1388 C1400 0.959 . S
H1389 C1403 0.929 . S
H1390 C1404 0.931 . S
H1391 C1406 0.930 . S
C1392 H1380 0.930 . S
C1392 C1393 1.399 . S
C1392 C1397 1.399 . S
C1393 C1392 1.399 . S
C1393 C1394 1.376 . S
C1394 H1381 0.930 . S
C1394 C1393 1.376 . S
C1394 C1395 1.388 . S
C1395 H1382 0.930 . S
C1395 C1394 1.388 . S
C1395 C1396 1.390 . S
C1396 C1395 1.390 . S
C1396 C1397 1.394 . S
C1396 C1402 1.465 . S
C1397 C1392 1.399 . S
C1397 C1396 1.394 . S
C1397 C1398 1.516 . S
C1398 C1397 1.516 . S
C1398 C1399 1.502 . S
C1398 C1400 1.561 . S
C1398 C1401 1.526 . S
C1399 H1383 0.959 . S
C1399 H1384 0.959 . S
C1399 H1385 0.961 . S
C1399 C1398 1.502 . S
C1400 H1386 0.960 . S
C1400 H1387 0.961 . S
C1400 H1388 0.959 . S
C1400 C1398 1.561 . S
C1401 C1398 1.526 . S
C1401 C1402 1.396 . S
C1401 C1406 1.390 . S
C1402 C1396 1.465 . S
C1402 C1401 1.396 . S
C1402 C1403 1.399 . S
C1403 H1389 0.929 . S
C1403 C1402 1.399 . S
C1403 C1404 1.385 . S
C1404 H1390 0.931 . S
C1404 C1403 1.385 . S
C1404 C1405 1.389 . S
C1405 C1404 1.389 . S
C1405 C1406 1.387 . S
C1406 H1391 0.930 . S
C1406 C1401 1.390 . S
C1406 C1405 1.387 . S
H1407 C1419 0.930 . S
H1408 C1421 0.930 . S
H1409 C1422 0.930 . S
H1410 C1426 0.959 . S
H1411 C1426 0.959 . S
H1412 C1426 0.961 . S
H1413 C1427 0.960 . S
H1414 C1427 0.961 . S
H1415 C1427 0.959 . S
H1416 C1430 0.932 1_655 S
H1417 C1431 0.931 . S
H1418 C1433 0.930 . S
C1419 H1407 0.930 . S
C1419 C1420 1.399 . S
C1419 C1424 1.399 . S
C1420 C1419 1.399 . S
C1420 C1421 1.376 . S
C1421 H1408 0.930 . S
C1421 C1420 1.376 . S
C1421 C1422 1.388 . S
C1422 H1409 0.930 . S
C1422 C1421 1.388 . S
C1422 C1423 1.390 . S
C1423 C1422 1.390 . S
C1423 C1424 1.394 . S
C1423 C1429 1.465 1_655 S
C1424 C1419 1.399 . S
C1424 C1423 1.394 . S
C1424 C1425 1.516 1_655 S
C1425 C1424 1.516 1_455 S
C1425 C1426 1.502 . S
C1425 C1427 1.561 . S
C1425 C1428 1.526 . S
C1426 H1410 0.959 . S
C1426 H1411 0.959 . S
C1426 H1412 0.961 . S
C1426 C1425 1.502 . S
C1427 H1413 0.960 . S
C1427 H1414 0.961 . S
C1427 H1415 0.959 . S
C1427 C1425 1.561 . S
C1428 C1425 1.526 . S
C1428 C1429 1.396 . S
C1428 C1433 1.390 . S
C1429 C1423 1.465 1_455 S
C1429 C1428 1.396 . S
C1429 C1430 1.400 . S
C1430 H1416 0.932 1_455 S
C1430 C1429 1.400 . S
C1430 C1431 1.381 . S
C1431 H1417 0.931 . S
C1431 C1430 1.381 . S
C1431 C1432 1.389 . S
C1432 C1431 1.389 . S
C1432 C1433 1.387 . S
C1433 H1418 0.930 . S
C1433 C1428 1.390 . S
C1433 C1432 1.387 . S
H1434 C1446 0.930 . S
H1435 C1448 0.930 . S
H1436 C1449 0.930 1_556 S
H1437 C1453 0.959 . S
H1438 C1453 0.959 . S
H1439 C1453 0.961 . S
H1440 C1454 0.960 . S
H1441 C1454 0.961 . S
H1442 C1454 0.959 . S
H1443 C1457 0.929 . S
H1444 C1458 0.931 . S
H1445 C1460 0.930 . S
C1446 H1434 0.930 . S
C1446 C1447 1.399 . S
C1446 C1451 1.399 . S
C1447 C1446 1.399 . S
C1447 C1448 1.376 . S
C1448 H1435 0.930 . S
C1448 C1447 1.376 . S
C1448 C1449 1.388 . S
C1449 H1436 0.930 1_554 S
C1449 C1448 1.388 . S
C1449 C1450 1.390 . S
C1450 C1449 1.390 . S
C1450 C1451 1.394 . S
C1450 C1456 1.494 1_554 S
C1451 C1446 1.399 . S
C1451 C1450 1.394 . S
C1451 C1452 1.516 1_565 S
C1452 C1451 1.516 1_545 S
C1452 C1453 1.502 . S
C1452 C1454 1.561 . S
C1452 C1455 1.526 1_554 S
C1453 H1437 0.959 . S
C1453 H1438 0.959 . S
C1453 H1439 0.961 . S
C1453 C1452 1.502 . S
C1454 H1440 0.960 . S
C1454 H1441 0.961 . S
C1454 H1442 0.959 . S
C1454 C1452 1.561 . S
C1455 C1452 1.526 1_556 S
C1455 C1456 1.346 1_545 S
C1455 C1460 1.390 . S
C1456 C1450 1.494 1_556 S
C1456 C1455 1.346 1_565 S
C1456 C1457 1.414 . S
C1457 H1443 0.929 . S
C1457 C1456 1.414 . S
C1457 C1458 1.385 1_565 S
C1458 H1444 0.931 . S
C1458 C1457 1.385 1_545 S
C1458 C1459 1.389 . S
C1459 C1458 1.389 . S
C1459 C1460 1.387 . S
C1460 H1445 0.930 . S
C1460 C1455 1.390 . S
C1460 C1459 1.387 . S
H1461 C1473 0.930 . S
H1462 C1475 0.930 . S
H1463 C1476 0.930 . S
H1464 C1480 0.959 . S
H1465 C1480 0.959 . S
H1466 C1480 0.961 . S
H1467 C1481 0.960 . S
H1468 C1481 0.961 . S
H1469 C1481 0.959 . S
H1470 C1484 0.929 . S
H1471 C1485 0.931 . S
H1472 C1487 0.930 . S
C1473 H1461 0.930 . S
C1473 C1474 1.399 . S
C1473 C1478 1.399 . S
C1474 C1473 1.399 . S
C1474 C1475 1.376 . S
C1475 H1462 0.930 . S
C1475 C1474 1.376 . S
C1475 C1476 1.388 . S
C1476 H1463 0.930 . S
C1476 C1475 1.388 . S
C1476 C1477 1.390 . S
C1477 C1476 1.390 . S
C1477 C1478 1.394 . S
C1477 C1483 1.465 . S
C1478 C1473 1.399 . S
C1478 C1477 1.394 . S
C1478 C1479 1.516 . S
C1479 C1478 1.516 . S
C1479 C1480 1.502 . S
C1479 C1481 1.561 . S
C1479 C1482 1.526 . S
C1480 H1464 0.959 . S
C1480 H1465 0.959 . S
C1480 H1466 0.961 . S
C1480 C1479 1.502 . S
C1481 H1467 0.960 . S
C1481 H1468 0.961 . S
C1481 H1469 0.959 . S
C1481 C1479 1.561 . S
C1482 C1479 1.526 . S
C1482 C1483 1.396 . S
C1482 C1487 1.390 . S
C1483 C1477 1.465 . S
C1483 C1482 1.396 . S
C1483 C1484 1.399 . S
C1484 H1470 0.929 . S
C1484 C1483 1.399 . S
C1484 C1485 1.385 . S
C1485 H1471 0.931 . S
C1485 C1484 1.385 . S
C1485 C1486 1.389 . S
C1486 C1485 1.389 . S
C1486 C1487 1.387 . S
C1487 H1472 0.930 . S
C1487 C1482 1.390 . S
C1487 C1486 1.387 . S
H1488 C1500 0.930 . S
H1489 C1502 0.930 . S
H1490 C1503 0.930 . S
H1491 C1507 0.959 . S
H1492 C1507 0.959 . S
H1493 C1507 0.961 . S
H1494 C1508 0.960 . S
H1495 C1508 0.961 . S
H1496 C1508 0.959 . S
H1497 C1511 0.929 . S
H1498 C1512 0.931 . S
H1499 C1514 0.930 . S
C1500 H1488 0.930 . S
C1500 C1501 1.399 . S
C1500 C1505 1.399 . S
C1501 C1500 1.399 . S
C1501 C1502 1.376 . S
C1502 H1489 0.930 . S
C1502 C1501 1.376 . S
C1502 C1503 1.388 . S
C1503 H1490 0.930 . S
C1503 C1502 1.388 . S
C1503 C1504 1.390 . S
C1504 C1503 1.390 . S
C1504 C1505 1.394 . S
C1504 C1510 1.465 1_455 S
C1505 C1500 1.399 . S
C1505 C1504 1.394 . S
C1505 C1506 1.480 1_455 S
C1506 C1505 1.480 1_655 S
C1506 C1507 1.543 . S
C1506 C1508 1.549 1_655 S
C1506 C1509 1.529 . S
C1507 H1491 0.959 . S
C1507 H1492 0.959 . S
C1507 H1493 0.961 . S
C1507 C1506 1.543 . S
C1508 H1494 0.960 . S
C1508 H1495 0.961 . S
C1508 H1496 0.959 . S
C1508 C1506 1.549 1_455 S
C1509 C1506 1.529 . S
C1509 C1510 1.396 . S
C1509 C1514 1.390 . S
C1510 C1504 1.465 1_655 S
C1510 C1509 1.396 . S
C1510 C1511 1.399 . S
C1511 H1497 0.929 . S
C1511 C1510 1.399 . S
C1511 C1512 1.385 . S
C1512 H1498 0.931 . S
C1512 C1511 1.385 . S
C1512 C1513 1.389 . S
C1513 C1512 1.389 . S
C1513 C1514 1.387 . S
C1514 H1499 0.930 . S
C1514 C1509 1.390 . S
C1514 C1513 1.387 . S
H1515 C1527 0.930 . S
H1516 C1529 0.930 . S
H1517 C1530 0.930 . S
H1518 C1534 0.959 . S
H1519 C1534 0.959 . S
H1520 C1534 0.961 . S
H1521 C1535 0.960 . S
H1522 C1535 0.961 . S
H1523 C1535 0.959 . S
H1524 C1538 0.929 . S
H1525 C1539 0.931 . S
H1526 C1541 0.930 . S
C1527 H1515 0.930 . S
C1527 C1528 1.399 . S
C1527 C1532 1.399 . S
C1528 C1527 1.399 . S
C1528 C1529 1.376 . S
C1529 H1516 0.930 . S
C1529 C1528 1.376 . S
C1529 C1530 1.388 1_565 S
C1530 H1517 0.930 . S
C1530 C1529 1.388 1_545 S
C1530 C1531 1.390 . S
C1531 C1530 1.390 . S
C1531 C1532 1.394 1_545 S
C1531 C1537 1.465 . S
C1532 C1527 1.399 . S
C1532 C1531 1.394 1_565 S
C1532 C1533 1.516 . S
C1533 C1532 1.516 . S
C1533 C1534 1.502 . S
C1533 C1535 1.561 . S
C1533 C1536 1.526 1_565 S
C1534 H1518 0.959 . S
C1534 H1519 0.959 . S
C1534 H1520 0.961 . S
C1534 C1533 1.502 . S
C1535 H1521 0.960 . S
C1535 H1522 0.961 . S
C1535 H1523 0.959 . S
C1535 C1533 1.561 . S
C1536 C1533 1.526 1_545 S
C1536 C1537 1.396 . S
C1536 C1541 1.390 . S
C1537 C1531 1.465 . S
C1537 C1536 1.396 . S
C1537 C1538 1.399 . S
C1538 H1524 0.929 . S
C1538 C1537 1.399 . S
C1538 C1539 1.385 . S
C1539 H1525 0.931 . S
C1539 C1538 1.385 . S
C1539 C1540 1.389 . S
C1540 C1539 1.389 . S
C1540 C1541 1.387 . S
C1541 H1526 0.930 . S
C1541 C1536 1.390 . S
C1541 C1540 1.387 . S
H1542 C1554 0.930 . S
H1543 C1556 0.930 . S
H1544 C1557 0.930 . S
H1545 C1561 0.959 . S
H1546 C1561 0.959 . S
H1547 C1561 0.961 . S
H1548 C1562 0.960 . S
H1549 C1562 0.961 . S
H1550 C1562 0.959 . S
H1551 C1565 0.929 . S
H1552 C1566 0.931 . S
H1553 C1568 0.930 . S
C1554 H1542 0.930 . S
C1554 C1555 1.399 . S
C1554 C1559 1.399 . S
C1555 C1554 1.399 . S
C1555 C1556 1.376 . S
C1556 H1543 0.930 . S
C1556 C1555 1.376 . S
C1556 C1557 1.388 . S
C1557 H1544 0.930 . S
C1557 C1556 1.388 . S
C1557 C1558 1.390 . S
C1558 C1557 1.390 . S
C1558 C1559 1.394 . S
C1558 C1564 1.465 . S
C1559 C1554 1.399 . S
C1559 C1558 1.394 . S
C1559 C1560 1.516 . S
C1560 C1559 1.516 . S
C1560 C1561 1.502 . S
C1560 C1562 1.561 . S
C1560 C1563 1.526 . S
C1561 H1545 0.959 . S
C1561 H1546 0.959 . S
C1561 H1547 0.961 . S
C1561 C1560 1.502 . S
C1562 H1548 0.960 . S
C1562 H1549 0.961 . S
C1562 H1550 0.959 . S
C1562 C1560 1.561 . S
C1563 C1560 1.526 . S
C1563 C1564 1.396 . S
C1563 C1568 1.390 . S
C1564 C1558 1.465 . S
C1564 C1563 1.396 . S
C1564 C1565 1.399 . S
C1565 H1551 0.929 . S
C1565 C1564 1.399 . S
C1565 C1566 1.385 . S
C1566 H1552 0.931 . S
C1566 C1565 1.385 . S
C1566 C1567 1.389 . S
C1567 C1566 1.389 . S
C1567 C1568 1.387 . S
C1568 H1553 0.930 . S
C1568 C1563 1.390 . S
C1568 C1567 1.387 . S
H1569 C1581 0.930 . S
H1570 C1583 0.930 . S
H1571 C1584 0.930 . S
H1572 C1588 0.959 . S
H1573 C1588 0.959 . S
H1574 C1588 0.961 . S
H1575 C1589 0.960 . S
H1576 C1589 0.961 . S
H1577 C1589 0.959 . S
H1578 C1592 0.929 . S
H1579 C1593 0.931 . S
H1580 C1595 0.930 . S
C1581 H1569 0.930 . S
C1581 C1582 1.399 . S
C1581 C1586 1.399 . S
C1582 C1581 1.399 . S
C1582 C1583 1.376 . S
C1583 H1570 0.930 . S
C1583 C1582 1.376 . S
C1583 C1584 1.388 . S
C1584 H1571 0.930 . S
C1584 C1583 1.388 . S
C1584 C1585 1.390 . S
C1585 C1584 1.390 . S
C1585 C1586 1.394 . S
C1585 C1591 1.465 . S
C1586 C1581 1.399 . S
C1586 C1585 1.394 . S
C1586 C1587 1.516 . S
C1587 C1586 1.516 . S
C1587 C1588 1.502 . S
C1587 C1589 1.561 . S
C1587 C1590 1.526 . S
C1588 H1572 0.959 . S
C1588 H1573 0.959 . S
C1588 H1574 0.961 . S
C1588 C1587 1.502 . S
C1589 H1575 0.960 . S
C1589 H1576 0.961 . S
C1589 H1577 0.959 . S
C1589 C1587 1.561 . S
C1590 C1587 1.526 . S
C1590 C1591 1.396 . S
C1590 C1595 1.390 . S
C1591 C1585 1.465 . S
C1591 C1590 1.396 . S
C1591 C1592 1.399 . S
C1592 H1578 0.929 . S
C1592 C1591 1.399 . S
C1592 C1593 1.385 . S
C1593 H1579 0.931 . S
C1593 C1592 1.385 . S
C1593 C1594 1.389 . S
C1594 C1593 1.389 . S
C1594 C1595 1.387 . S
C1595 H1580 0.930 . S
C1595 C1590 1.390 . S
C1595 C1594 1.387 . S
H1596 C1608 0.930 . S
H1597 C1610 0.930 . S
H1598 C1611 0.930 . S
H1599 C1615 0.959 . S
H1600 C1615 0.959 . S
H1601 C1615 0.961 . S
H1602 C1616 0.960 . S
H1603 C1616 0.961 . S
H1604 C1616 0.959 . S
H1605 C1619 0.929 . S
H1606 C1620 0.931 . S
H1607 C1622 0.930 . S
C1608 H1596 0.930 . S
C1608 C1609 1.399 1_556 S
C1608 C1613 1.399 . S
C1609 C1608 1.399 1_554 S
C1609 C1610 1.376 . S
C1610 H1597 0.930 . S
C1610 C1609 1.376 . S
C1610 C1611 1.388 1_554 S
C1611 H1598 0.930 . S
C1611 C1610 1.388 1_556 S
C1611 C1612 1.390 . S
C1612 C1611 1.390 . S
C1612 C1613 1.394 . S
C1612 C1618 1.465 . S
C1613 C1608 1.399 . S
C1613 C1612 1.394 . S
C1613 C1614 1.516 . S
C1614 C1613 1.516 . S
C1614 C1615 1.502 . S
C1614 C1616 1.561 . S
C1614 C1617 1.526 . S
C1615 H1599 0.959 . S
C1615 H1600 0.959 . S
C1615 H1601 0.961 . S
C1615 C1614 1.502 . S
C1616 H1602 0.960 . S
C1616 H1603 0.961 . S
C1616 H1604 0.959 . S
C1616 C1614 1.561 . S
C1617 C1614 1.526 . S
C1617 C1618 1.396 . S
C1617 C1622 1.390 . S
C1618 C1612 1.465 . S
C1618 C1617 1.396 . S
C1618 C1619 1.399 . S
C1619 H1605 0.929 . S
C1619 C1618 1.399 . S
C1619 C1620 1.385 . S
C1620 H1606 0.931 . S
C1620 C1619 1.385 . S
C1620 C1621 1.389 . S
C1621 C1620 1.389 . S
C1621 C1622 1.387 . S
C1622 H1607 0.930 . S
C1622 C1617 1.390 . S
C1622 C1621 1.387 . S
H1623 C1635 0.930 . S
H1624 C1637 0.930 . S
H1625 C1638 0.930 . S
H1626 C1642 0.959 . S
H1627 C1642 0.959 . S
H1628 C1642 0.961 . S
H1629 C1643 0.960 . S
H1630 C1643 0.961 . S
H1631 C1643 0.959 . S
H1632 C1646 0.929 . S
H1633 C1647 0.931 . S
H1634 C1649 0.930 1_556 S
C1635 H1623 0.930 . S
C1635 C1636 1.399 . S
C1635 C1640 1.399 . S
C1636 C1635 1.399 . S
C1636 C1637 1.376 . S
C1637 H1624 0.930 . S
C1637 C1636 1.376 . S
C1637 C1638 1.388 . S
C1638 H1625 0.930 . S
C1638 C1637 1.388 . S
C1638 C1639 1.390 . S
C1639 C1638 1.390 . S
C1639 C1640 1.394 . S
C1639 C1645 1.465 . S
C1640 C1635 1.399 . S
C1640 C1639 1.394 . S
C1640 C1641 1.516 . S
C1641 C1640 1.516 . S
C1641 C1642 1.502 . S
C1641 C1643 1.561 . S
C1641 C1644 1.526 . S
C1642 H1626 0.959 . S
C1642 H1627 0.959 . S
C1642 H1628 0.961 . S
C1642 C1641 1.502 . S
C1643 H1629 0.960 . S
C1643 H1630 0.961 . S
C1643 H1631 0.959 . S
C1643 C1641 1.561 . S
C1644 C1641 1.526 . S
C1644 C1645 1.396 . S
C1644 C1649 1.390 . S
C1645 C1639 1.465 . S
C1645 C1644 1.396 . S
C1645 C1646 1.399 . S
C1646 H1632 0.929 . S
C1646 C1645 1.399 . S
C1646 C1647 1.385 . S
C1647 H1633 0.931 . S
C1647 C1646 1.385 . S
C1647 C1648 1.379 1_554 S
C1648 C1647 1.379 1_556 S
C1648 C1649 1.385 1_556 S
C1649 H1634 0.930 1_554 S
C1649 C1644 1.390 . S
C1649 C1648 1.385 1_554 S
H1650 C1662 0.930 . S
H1651 C1664 0.930 . S
H1652 C1665 0.930 . S
H1653 C1669 0.959 . S
H1654 C1669 0.959 . S
H1655 C1669 0.961 . S
H1656 C1670 0.960 . S
H1657 C1670 0.961 . S
H1658 C1670 0.959 . S
H1659 C1673 0.929 . S
H1660 C1674 0.931 . S
H1661 C1676 0.930 . S
C1662 H1650 0.930 . S
C1662 C1663 1.399 . S
C1662 C1667 1.399 . S
C1663 C1662 1.399 . S
C1663 C1664 1.376 . S
C1664 H1651 0.930 . S
C1664 C1663 1.376 . S
C1664 C1665 1.388 . S
C1665 H1652 0.930 . S
C1665 C1664 1.388 . S
C1665 C1666 1.390 . S
C1666 C1665 1.390 . S
C1666 C1667 1.394 . S
C1666 C1672 1.465 . S
C1667 C1662 1.399 . S
C1667 C1666 1.394 . S
C1667 C1668 1.516 . S
C1668 C1667 1.516 . S
C1668 C1669 1.502 . S
C1668 C1670 1.561 . S
C1668 C1671 1.526 . S
C1669 H1653 0.959 . S
C1669 H1654 0.959 . S
C1669 H1655 0.961 . S
C1669 C1668 1.502 . S
C1670 H1656 0.960 . S
C1670 H1657 0.961 . S
C1670 H1658 0.959 . S
C1670 C1668 1.561 . S
C1671 C1668 1.526 . S
C1671 C1672 1.396 . S
C1671 C1676 1.390 . S
C1672 C1666 1.465 . S
C1672 C1671 1.396 . S
C1672 C1673 1.399 . S
C1673 H1659 0.929 . S
C1673 C1672 1.399 . S
C1673 C1674 1.385 . S
C1674 H1660 0.931 . S
C1674 C1673 1.385 . S
C1674 C1675 1.389 . S
C1675 C1674 1.389 . S
C1675 C1676 1.387 . S
C1676 H1661 0.930 . S
C1676 C1671 1.390 . S
C1676 C1675 1.387 . S
H1677 C1689 0.930 . S
H1678 C1691 0.930 . S
H1679 C1692 0.930 . S
H1680 C1696 0.959 . S
H1681 C1696 0.959 . S
H1682 C1696 0.961 . S
H1683 C1697 0.960 . S
H1684 C1697 0.961 . S
H1685 C1697 0.959 . S
H1686 C1700 0.929 . S
H1687 C1701 0.931 . S
H1688 C1703 0.930 . S
C1689 H1677 0.930 . S
C1689 C1690 1.399 . S
C1689 C1694 1.399 . S
C1690 C1689 1.399 . S
C1690 C1691 1.376 . S
C1691 H1678 0.930 . S
C1691 C1690 1.376 . S
C1691 C1692 1.388 . S
C1692 H1679 0.930 . S
C1692 C1691 1.388 . S
C1692 C1693 1.390 . S
C1693 C1692 1.390 . S
C1693 C1694 1.394 . S
C1693 C1699 1.465 . S
C1694 C1689 1.399 . S
C1694 C1693 1.394 . S
C1694 C1695 1.516 . S
C1695 C1694 1.516 . S
C1695 C1696 1.502 . S
C1695 C1697 1.561 . S
C1695 C1698 1.526 . S
C1696 H1680 0.959 . S
C1696 H1681 0.959 . S
C1696 H1682 0.961 . S
C1696 C1695 1.502 . S
C1697 H1683 0.960 . S
C1697 H1684 0.961 . S
C1697 H1685 0.959 . S
C1697 C1695 1.561 . S
C1698 C1695 1.526 . S
C1698 C1699 1.396 . S
C1698 C1703 1.390 . S
C1699 C1693 1.465 . S
C1699 C1698 1.396 . S
C1699 C1700 1.399 . S
C1700 H1686 0.929 . S
C1700 C1699 1.399 . S
C1700 C1701 1.385 . S
C1701 H1687 0.931 . S
C1701 C1700 1.385 . S
C1701 C1702 1.389 . S
C1702 C1701 1.389 . S
C1702 C1703 1.387 . S
C1703 H1688 0.930 . S
C1703 C1698 1.390 . S
C1703 C1702 1.387 . S
C1069 C821 1.709 . S
C1081 C57 1.690 . S
C1096 C137 1.729 . S
C1108 C909 1.750 . S
C1123 C988 1.747 . S
C1135 C225 1.698 . S
C1150 C548 1.690 . S
C1162 C321 1.708 . S
C1177 C636 1.690 . S
C1189 C409 1.738 . S
C1204 C733 1.718 . S
C1216 C497 1.687 . S
C1231 C557 1.551 . S
C1243 C49 1.538 . S
C1258 C145 1.550 . S
C1270 C645 1.537 . S
C1285 C724 1.524 . S
C1297 C233 1.541 . S
C1312 C313 1.517 . S
C1324 C812 1.531 . S
C1339 C900 1.543 . S
C1351 C401 1.527 . S
C1366 C489 1.534 . S
C1378 C997 1.549 . S
C1393 C841 0.478 . S
C1405 C20 0.449 . S
C1420 C929 0.501 . S
C1432 C117 0.514 . S
C1447 C1025 0.484 . S
C1459 C205 0.506 . S
C1474 C284 0.422 . S
C1486 C585 0.438 . S
C1501 C673 0.421 . S
C1513 C372 0.434 . S
C1528 C460 0.488 . S
C1540 C753 0.459 . S
C1555 C29 1.680 . S
C1567 C761 1.692 . S
C1582 C849 1.727 . S
C1594 C108 1.670 . S
C1609 C937 1.735 . S
C1621 C196 1.659 . S
C1636 C1017 1.736 . S
C1648 C293 1.657 . S
C1663 C577 1.660 . S
C1675 C381 1.714 . S
C1690 C665 1.692 . S
C1702 C469 1.681 . S
