# Generated by pormake.
# Topology uoz, (4)-cn, num edge types: 1
# Building blocks:
#     Node 0, Type 0, BuildingBlock: QUQFOY_clean_sbu_3, # of connection points: 4
#     Node 1, Type 0, BuildingBlock: QUQFOY_clean_sbu_3, # of connection points: 4
#     Node 2, Type 0, BuildingBlock: QUQFOY_clean_sbu_3, # of connection points: 4
#     Node 3, Type 0, BuildingBlock: QUQFOY_clean_sbu_3, # of connection points: 4
#     Node 4, Type 0, BuildingBlock: QUQFOY_clean_sbu_3, # of connection points: 4
#     Node 5, Type 0, BuildingBlock: QUQFOY_clean_sbu_3, # of connection points: 4
#     Node 6, Type 0, BuildingBlock: QUQFOY_clean_sbu_3, # of connection points: 4
#     Node 7, Type 0, BuildingBlock: QUQFOY_clean_sbu_3, # of connection points: 4
#     Node 8, Type 0, BuildingBlock: QUQFOY_clean_sbu_3, # of connection points: 4
#     Node 9, Type 0, BuildingBlock: QUQFOY_clean_sbu_3, # of connection points: 4
#     Node 10, Type 0, BuildingBlock: QUQFOY_clean_sbu_3, # of connection points: 4
#     Node 11, Type 0, BuildingBlock: QUQFOY_clean_sbu_3, # of connection points: 4
#     Node 12, Type 0, BuildingBlock: QUQFOY_clean_sbu_3, # of connection points: 4
#     Node 13, Type 0, BuildingBlock: QUQFOY_clean_sbu_3, # of connection points: 4
#     Node 14, Type 0, BuildingBlock: QUQFOY_clean_sbu_3, # of connection points: 4
#     Node 15, Type 0, BuildingBlock: QUQFOY_clean_sbu_3, # of connection points: 4
#     Edge 16, Type (0, 0), BuildingBlock: ZUJKAS_clean_linker_0, # of connection points: 2
#     Edge 17, Type (0, 0), BuildingBlock: ZUJKAS_clean_linker_0, # of connection points: 2
#     Edge 18, Type (0, 0), BuildingBlock: ZUJKAS_clean_linker_0, # of connection points: 2
#     Edge 19, Type (0, 0), BuildingBlock: ZUJKAS_clean_linker_0, # of connection points: 2
#     Edge 20, Type (0, 0), BuildingBlock: ZUJKAS_clean_linker_0, # of connection points: 2
#     Edge 21, Type (0, 0), BuildingBlock: ZUJKAS_clean_linker_0, # of connection points: 2
#     Edge 22, Type (0, 0), BuildingBlock: ZUJKAS_clean_linker_0, # of connection points: 2
#     Edge 23, Type (0, 0), BuildingBlock: ZUJKAS_clean_linker_0, # of connection points: 2
#     Edge 24, Type (0, 0), BuildingBlock: ZUJKAS_clean_linker_0, # of connection points: 2
#     Edge 25, Type (0, 0), BuildingBlock: ZUJKAS_clean_linker_0, # of connection points: 2
#     Edge 26, Type (0, 0), BuildingBlock: ZUJKAS_clean_linker_0, # of connection points: 2
#     Edge 27, Type (0, 0), BuildingBlock: ZUJKAS_clean_linker_0, # of connection points: 2
#     Edge 28, Type (0, 0), BuildingBlock: ZUJKAS_clean_linker_0, # of connection points: 2
#     Edge 29, Type (0, 0), BuildingBlock: ZUJKAS_clean_linker_0, # of connection points: 2
#     Edge 30, Type (0, 0), BuildingBlock: ZUJKAS_clean_linker_0, # of connection points: 2
#     Edge 31, Type (0, 0), BuildingBlock: ZUJKAS_clean_linker_0, # of connection points: 2
#     Edge 32, Type (0, 0), BuildingBlock: ZUJKAS_clean_linker_0, # of connection points: 2
#     Edge 33, Type (0, 0), BuildingBlock: ZUJKAS_clean_linker_0, # of connection points: 2
#     Edge 34, Type (0, 0), BuildingBlock: ZUJKAS_clean_linker_0, # of connection points: 2
#     Edge 35, Type (0, 0), BuildingBlock: ZUJKAS_clean_linker_0, # of connection points: 2
#     Edge 36, Type (0, 0), BuildingBlock: ZUJKAS_clean_linker_0, # of connection points: 2
#     Edge 37, Type (0, 0), BuildingBlock: ZUJKAS_clean_linker_0, # of connection points: 2
#     Edge 38, Type (0, 0), BuildingBlock: ZUJKAS_clean_linker_0, # of connection points: 2
#     Edge 39, Type (0, 0), BuildingBlock: ZUJKAS_clean_linker_0, # of connection points: 2
#     Edge 40, Type (0, 0), BuildingBlock: ZUJKAS_clean_linker_0, # of connection points: 2
#     Edge 41, Type (0, 0), BuildingBlock: ZUJKAS_clean_linker_0, # of connection points: 2
#     Edge 42, Type (0, 0), BuildingBlock: ZUJKAS_clean_linker_0, # of connection points: 2
#     Edge 43, Type (0, 0), BuildingBlock: ZUJKAS_clean_linker_0, # of connection points: 2
#     Edge 44, Type (0, 0), BuildingBlock: ZUJKAS_clean_linker_0, # of connection points: 2
#     Edge 45, Type (0, 0), BuildingBlock: ZUJKAS_clean_linker_0, # of connection points: 2
#     Edge 46, Type (0, 0), BuildingBlock: ZUJKAS_clean_linker_0, # of connection points: 2
#     Edge 47, Type (0, 0), BuildingBlock: ZUJKAS_clean_linker_0, # of connection points: 2
# Relax obj value: 0.184
# Max RMSD: 0.165
# Mean RMSD: 0.165
data_MOF--net-uoz--node1-QUQFOY_clean_sbu_3--edge1-ZUJKAS_clean_linker_0
_symmetry_space_group_name_H-M    P1
_symmetry_Int_Tables_number       1
_symmetry_cell_setting            triclinic
loop_
_symmetry_equiv_pos_as_xyz
'x, y, z'
_cell_length_a     79.576325
_cell_length_b     79.585339
_cell_length_c     28.368123
_cell_angle_alpha  89.978438
_cell_angle_beta   90.054902
_cell_angle_gamma 89.992393
loop_
_atom_site_label
_atom_site_type_symbol
_atom_site_fract_x
_atom_site_fract_y
_atom_site_fract_z
_atom_type_partial_charge
C0 C 0.96642 0.58434 0.20821 0.0
O1 O 0.97224 0.57751 0.17126 0.0
Cd2 Cd 0.00026 0.56729 0.16565 0.0
O3 O 0.97476 0.58402 0.24668 0.0
Cd4 Cd 0.00127 0.57103 0.27781 0.0
C5 C 0.02127 0.60111 0.21772 0.0
O6 O 0.00491 0.54725 0.22579 0.0
O7 O 0.02749 0.55646 0.25915 0.0
O8 O 0.98459 0.55548 0.33398 0.0
C9 C 0.02048 0.54538 0.23381 0.0
O10 O 0.01735 0.59206 0.18228 0.0
C11 C 0.99394 0.55812 0.36945 0.0
O12 O 0.01645 0.59713 0.2592 0.0
O13 O 0.00627 0.56809 0.36349 0.0
C14 C 0.66047 0.71073 0.46457 0.0
O15 O 0.66502 0.71693 0.42536 0.0
Cd16 Cd 0.67474 0.7448 0.41284 0.0
O17 O 0.66245 0.71893 0.50294 0.0
Cd18 Cd 0.67564 0.74601 0.52999 0.0
C19 C 0.64351 0.76602 0.47608 0.0
O20 O 0.69603 0.74906 0.46868 0.0
O21 O 0.69143 0.77162 0.50834 0.0
O22 O 0.69316 0.73005 0.58385 0.0
C23 C 0.69941 0.76441 0.47546 0.0
O24 O 0.65102 0.7619 0.43811 0.0
C25 C 0.69092 0.73943 0.61946 0.0
O26 O 0.6491 0.76134 0.51628 0.0
O27 O 0.68048 0.75144 0.6147 0.0
C28 C 0.53929 0.4073 0.71206 0.0
O29 O 0.53332 0.41395 0.67499 0.0
Cd30 Cd 0.50535 0.42429 0.66928 0.0
O31 O 0.53107 0.40777 0.75068 0.0
Cd32 Cd 0.50456 0.42089 0.78131 0.0
C33 C 0.48417 0.39082 0.72186 0.0
O34 O 0.50099 0.44455 0.72886 0.0
O35 O 0.47839 0.4358 0.76262 0.0
O36 O 0.52118 0.43643 0.83785 0.0
C37 C 0.48545 0.44665 0.73663 0.0
O38 O 0.48799 0.39978 0.68619 0.0
C39 C 0.51177 0.43375 0.87314 0.0
O40 O 0.48925 0.3948 0.7631 0.0
O41 O 0.49945 0.42379 0.8669 0.0
C42 C 0.8412 0.28191 0.95234 0.0
O43 O 0.83558 0.27515 0.91501 0.0
Cd44 Cd 0.82519 0.24724 0.91044 0.0
O45 O 0.84002 0.27433 0.9919 0.0
Cd46 Cd 0.82714 0.24767 0.02268 0.0
C47 C 0.85788 0.22658 0.96777 0.0
O48 O 0.80407 0.24386 0.96832 0.0
O49 O 0.81228 0.22141 0.00394 0.0
O50 O 0.81092 0.26408 0.07836 0.0
C51 C 0.80171 0.22842 0.97694 0.0
O52 O 0.84937 0.22993 0.93086 0.0
C53 C 0.81355 0.25472 0.11381 0.0
O54 O 0.8534 0.2322 0.00801 0.0
O55 O 0.82377 0.24259 0.10809 0.0
C56 C 0.96493 0.40933 0.89968 0.0
O57 O 0.97102 0.41554 0.93719 0.0
Cd58 Cd -0.00115 0.4263 0.94358 0.0
O59 O 0.97307 0.41017 0.86099 0.0
Cd60 Cd -0.00018 0.4229 0.83098 0.0
C61 C 0.02012 0.39285 0.89118 0.0
O62 O 0.00344 0.44649 0.88378 0.0
O63 O 0.02597 0.43749 0.84982 0.0
O64 O 0.98346 0.43869 0.77448 0.0
C65 C 0.019 0.44843 0.87568 0.0
O66 O 0.01627 0.40187 0.92671 0.0
C67 C 0.99285 0.43593 0.73921 0.0
O68 O 0.01505 0.39676 0.84984 0.0
O69 O 0.00505 0.42581 0.74542 0.0
C70 C 0.844 0.71234 0.1459 0.0
O71 O 0.83931 0.7186 0.18489 0.0
Cd72 Cd 0.82927 0.74638 0.19679 0.0
O73 O 0.84204 0.72041 0.1073 0.0
Cd74 Cd 0.82864 0.74732 0.07952 0.0
C75 C 0.86043 0.76777 0.13377 0.0
O76 O 0.80808 0.75018 0.1404 0.0
O77 O 0.81235 0.77274 0.10041 0.0
O78 O 0.81154 0.73103 0.02548 0.0
C79 C 0.80444 0.76545 0.13329 0.0
O80 O 0.85289 0.76364 0.17169 0.0
C81 C 0.81369 0.74042 0.98983 0.0
O82 O 0.85497 0.76297 0.09356 0.0
O83 O 0.82392 0.75261 0.99468 0.0
C84 C 0.53673 0.58442 0.40257 0.0
O85 O 0.53038 0.57833 0.43984 0.0
Cd86 Cd 0.50233 0.56832 0.44422 0.0
O87 O 0.52885 0.58352 0.36339 0.0
Cd88 Cd 0.50246 0.57015 0.33227 0.0
C89 C 0.48179 0.60117 0.3866 0.0
O90 O 0.49885 0.54714 0.38667 0.0
O91 O 0.47623 0.55527 0.35174 0.0
O92 O 0.51939 0.55403 0.27771 0.0
C93 C 0.48339 0.54472 0.37854 0.0
O94 O 0.48531 0.59277 0.42358 0.0
C95 C 0.51013 0.5563 0.24183 0.0
O96 O 0.48707 0.59646 0.34622 0.0
O97 O 0.49775 0.56627 0.24678 0.0
C98 C 0.66307 0.28095 0.64277 0.0
O99 O 0.66897 0.27474 0.68051 0.0
Cd100 Cd 0.67912 0.24674 0.68672 0.0
O101 O 0.66409 0.27289 0.60396 0.0
Cd102 Cd 0.67727 0.24623 0.5745 0.0
C103 C 0.64643 0.22565 0.63017 0.0
O104 O 0.70027 0.24278 0.62926 0.0
O105 O 0.69213 0.2201 0.59468 0.0
O106 O 0.69341 0.26272 0.51891 0.0
C107 C 0.70263 0.22728 0.62153 0.0
O108 O 0.65487 0.22938 0.66694 0.0
C109 C 0.69105 0.25326 0.48357 0.0
O110 O 0.65101 0.23086 0.58957 0.0
O111 O 0.68103 0.24095 0.48926 0.0
C112 C 0.34447 0.20823 0.62622 0.0
O113 O 0.33815 0.21318 0.66486 0.0
Cd114 Cd 0.32892 0.24109 0.67958 0.0
O115 O 0.34414 0.21751 0.58946 0.0
Cd116 Cd 0.331 0.2448 0.56376 0.0
C117 C 0.36185 0.26335 0.62603 0.0
O118 O 0.309 0.24694 0.62102 0.0
O119 O 0.31504 0.27017 0.58605 0.0
O120 O 0.31478 0.22925 0.50626 0.0
C121 C 0.30602 0.26245 0.61579 0.0
O122 O 0.3535 0.25828 0.66167 0.0
C123 C 0.31713 0.23927 0.47209 0.0
O124 O 0.35712 0.25983 0.58408 0.0
O125 O 0.3272 0.25145 0.47924 0.0
C126 C 0.16272 0.78327 0.14309 0.0
O127 O 0.1685 0.77739 0.1814 0.0
Cd128 Cd 0.17813 0.74927 0.19005 0.0
O129 O 0.16362 0.77474 0.10506 0.0
Cd130 Cd 0.17642 0.74755 0.07821 0.0
C131 C 0.14516 0.7281 0.13504 0.0
O132 O 0.19937 0.7442 0.13347 0.0
O133 O 0.19048 0.7214 0.10077 0.0
O134 O 0.19312 0.76313 0.02198 0.0
C135 C 0.20131 0.72858 0.12656 0.0
O136 O 0.15357 0.73211 0.17161 0.0
C137 C 0.19066 0.7534 0.98725 0.0
O138 O 0.14991 0.73275 0.09407 0.0
O139 O 0.18031 0.7414 0.99348 0.0
C140 C 0.16056 0.20925 0.95592 0.0
O141 O 0.16475 0.21505 0.91591 0.0
Cd142 Cd 0.17419 0.24279 0.90014 0.0
O143 O 0.16283 0.21785 0.99345 0.0
Cd144 Cd 0.1763 0.24524 0.01694 0.0
C145 C 0.1436 0.26469 0.96392 0.0
O146 O 0.19605 0.2477 0.95375 0.0
O147 O 0.19181 0.27062 0.99216 0.0
O148 O 0.19454 0.22996 0.07039 0.0
C149 C 0.19948 0.26311 0.95924 0.0
O150 O 0.15066 0.26009 0.9257 0.0
C151 C 0.19264 0.23967 0.10546 0.0
O152 O 0.14968 0.26054 0.00403 0.0
O153 O 0.18202 0.25153 0.10076 0.0
C154 C 0.34036 0.78318 0.46481 0.0
O155 O 0.33309 0.77829 0.42744 0.0
Cd156 Cd 0.32394 0.75002 0.41746 0.0
O157 O 0.34068 0.77387 0.50145 0.0
Cd158 Cd 0.32747 0.74689 0.52831 0.0
C159 C 0.35778 0.72812 0.46673 0.0
O160 O 0.30365 0.74386 0.47574 0.0
O161 O 0.31324 0.72087 0.50595 0.0
O162 O 0.31172 0.76264 0.58607 0.0
C163 C 0.30199 0.72815 0.48178 0.0
O164 O 0.3489 0.73276 0.43162 0.0
C165 C 0.31426 0.75274 0.62039 0.0
O166 O 0.3536 0.7321 0.50873 0.0
O167 O 0.32426 0.74052 0.61317 0.0
C168 C 0.46683 0.08257 0.70976 0.0
O169 O 0.47204 0.07492 0.67338 0.0
Cd170 Cd 0.50039 0.06574 0.66637 0.0
O171 O 0.47577 0.08317 0.74712 0.0
Cd172 Cd 0.50238 0.07012 0.77755 0.0
C173 C 0.52132 0.10023 0.71567 0.0
O174 O 0.50599 0.04604 0.72663 0.0
O175 O 0.5287 0.05588 0.75783 0.0
O176 O 0.48595 0.05473 0.83455 0.0
C177 C 0.52165 0.04448 0.73369 0.0
O178 O 0.51711 0.09103 0.68078 0.0
C179 C 0.49549 0.05741 0.86961 0.0
O180 O 0.51707 0.09627 0.75764 0.0
O181 O 0.50781 0.06735 0.86307 0.0
C182 C 0.04025 0.91108 0.20586 0.0
O183 O 0.03446 0.91817 0.16919 0.0
Cd184 Cd 0.00626 0.92801 0.16324 0.0
O185 O 0.03177 0.91099 0.24405 0.0
Cd186 Cd 0.00506 0.9234 0.27516 0.0
C187 C 0.98576 0.89343 0.21273 0.0
O188 O 0.00071 0.94745 0.22429 0.0
O189 O 0.97849 0.93732 0.25742 0.0
O190 O 0.02124 0.93898 0.33246 0.0
C191 C 0.98509 0.94875 0.23241 0.0
O192 O 0.98957 0.90282 0.1779 0.0
C193 C 0.01189 0.93582 0.36755 0.0
O194 O 0.99046 0.89717 0.25452 0.0
O195 O -0.00014 0.92555 0.36079 0.0
C196 C 0.46372 0.90913 0.39417 0.0
O197 O 0.46846 0.91671 0.43119 0.0
Cd198 Cd 0.49681 0.92572 0.44138 0.0
O199 O 0.47313 0.90859 0.35781 0.0
Cd200 Cd 0.50007 0.92161 0.33032 0.0
C201 C 0.51817 0.89127 0.39356 0.0
O202 O 0.50367 0.94548 0.38231 0.0
O203 O 0.52638 0.93534 0.35185 0.0
O204 O 0.4843 0.93748 0.2729 0.0
C205 C 0.51942 0.94672 0.37623 0.0
O206 O 0.51363 0.90043 0.42817 0.0
C207 C 0.49399 0.93472 0.23825 0.0
O208 O 0.51435 0.89529 0.35128 0.0
O209 O 0.5061 0.92455 0.24517 0.0
C210 C 0.0371 0.08216 0.90334 0.0
O211 O 0.03106 0.07547 0.94021 0.0
Cd212 Cd 0.00283 0.06574 0.94499 0.0
O213 O 0.02886 0.08196 0.8647 0.0
Cd214 Cd 0.00224 0.06949 0.83286 0.0
C215 C 0.98266 0.09997 0.89237 0.0
O216 O -0.00199 0.04577 0.88475 0.0
O217 O 0.9757 0.05538 0.85083 0.0
O218 O 0.01884 0.05377 0.77686 0.0
C219 C 0.98244 0.04416 0.87631 0.0
O220 O 0.98629 0.09087 0.92798 0.0
C221 C 0.0096 0.0566 0.74128 0.0
O222 O 0.98753 0.09586 0.85105 0.0
O223 O -0.00262 0.06672 0.74715 0.0
H224 H 0.12625 0.71246 0.06665 0.0
H225 H 0.10268 0.69304 0.07873 0.0
H226 H 0.10672 0.69993 0.22907 0.0
H227 H 0.12998 0.71934 0.21754 0.0
H228 H 0.10475 0.66307 0.13026 0.0
H229 H 0.05626 0.70504 0.20648 0.0
H230 H 0.07434 0.71292 0.17499 0.0
H231 H 0.07627 0.70645 0.2355 0.0
C232 C 0.12194 0.71004 0.1022 0.0
C233 C 0.13003 0.71744 0.14108 0.0
C234 C 0.10849 0.69894 0.10905 0.0
C235 C 0.10282 0.69524 0.15477 0.0
C236 C 0.11065 0.70288 0.19346 0.0
H237 H 0.03677 0.62135 0.28347 0.0
H238 H 0.05611 0.64476 0.268 0.0
C239 C 0.12406 0.71389 0.18673 0.0
C240 C 0.0897 0.68233 0.16264 0.0
H241 H 0.05162 0.67551 0.21482 0.0
C242 C 0.09305 0.66581 0.14826 0.0
C243 C 0.07454 0.68594 0.18663 0.0
C244 C 0.07003 0.70358 0.20144 0.0
C245 C 0.08182 0.65271 0.15813 0.0
C246 C 0.06669 0.65629 0.1823 0.0
C247 C 0.06327 0.67282 0.19648 0.0
C248 C 0.05415 0.643 0.19207 0.0
C249 C 0.08644 0.63505 0.14365 0.0
C250 C 0.04633 0.63464 0.15458 0.0
C251 C 0.0354 0.62131 0.16322 0.0
C252 C 0.03191 0.61612 0.20965 0.0
C253 C 0.03923 0.62498 0.24734 0.0
C254 C 0.05026 0.63835 0.23857 0.0
H255 H 0.10011 0.63379 0.1366 0.0
H256 H 0.08286 0.62585 0.17133 0.0
H257 H 0.07959 0.63176 0.11084 0.0
H258 H 0.0489 0.63827 0.11848 0.0
H259 H 0.02984 0.61494 0.13328 0.0
H260 H 0.53373 0.87017 0.33034 0.0
H261 H 0.55261 0.84668 0.34851 0.0
H262 H 0.54485 0.85483 0.49716 0.0
H263 H 0.5262 0.87827 0.47961 0.0
H264 H 0.57849 0.8533 0.47161 0.0
H265 H 0.54293 0.79919 0.39892 0.0
H266 H 0.54569 0.81633 0.35844 0.0
H267 H 0.53326 0.81929 0.41064 0.0
C268 C 0.53587 0.86682 0.36686 0.0
C269 C 0.52849 0.87616 0.40346 0.0
C270 C 0.54659 0.85334 0.37719 0.0
C271 C 0.54999 0.84893 0.42421 0.0
C272 C 0.54236 0.858 0.46067 0.0
H273 H 0.62488 0.78028 0.54759 0.0
H274 H 0.60094 0.79952 0.5392 0.0
C275 C 0.5317 0.87143 0.45046 0.0
C276 C 0.56242 0.83569 0.4357 0.0
H277 H 0.57137 0.79409 0.4209 0.0
C278 C 0.57688 0.84031 0.46097 0.0
C279 C 0.56023 0.81878 0.42182 0.0
C280 C 0.54462 0.81301 0.39632 0.0
C281 C 0.58952 0.82858 0.47128 0.0
C282 C 0.58748 0.81171 0.45671 0.0
C283 C 0.57286 0.80702 0.43223 0.0
C284 C 0.60101 0.79911 0.46289 0.0
C285 C 0.60526 0.83451 0.49594 0.0
C286 C 0.60856 0.7921 0.42291 0.0
C287 C 0.62208 0.7811 0.42755 0.0
C288 C 0.62837 0.77681 0.47237 0.0
C289 C 0.62042 0.7834 0.51259 0.0
C290 C 0.60681 0.79446 0.50785 0.0
H291 H 0.60631 0.84843 0.49602 0.0
H292 H 0.60505 0.83016 0.53311 0.0
H293 H 0.61663 0.82919 0.47885 0.0
H294 H 0.60425 0.79549 0.38792 0.0
H295 H 0.62777 0.7762 0.39572 0.0
H296 H 0.47247 0.37875 0.63815 0.0
H297 H 0.45362 0.35517 0.62485 0.0
H298 H 0.45274 0.34492 0.77409 0.0
H299 H 0.47155 0.36885 0.78809 0.0
H300 H 0.45685 0.32109 0.64591 0.0
H301 H 0.40288 0.35013 0.73998 0.0
H302 H 0.42135 0.36192 0.72369 0.0
H303 H 0.42185 0.34819 0.77395 0.0
C304 C 0.46834 0.37152 0.66834 0.0
C305 C 0.47342 0.37583 0.71434 0.0
C306 C 0.45758 0.35798 0.66054 0.0
C307 C 0.45161 0.34844 0.69847 0.0
C308 C 0.457 0.35233 0.74438 0.0
H309 H 0.3773 0.26928 0.71008 0.0
H310 H 0.4002 0.28868 0.72658 0.0
C311 C 0.4678 0.36595 0.7523 0.0
C312 C 0.43941 0.33475 0.68948 0.0
H313 H 0.3988 0.32296 0.70916 0.0
C314 C 0.44416 0.32144 0.65984 0.0
C315 C 0.42285 0.33534 0.70745 0.0
C316 C 0.41681 0.34971 0.73771 0.0
C317 C 0.43281 0.3086 0.64795 0.0
C318 C 0.41623 0.30927 0.66567 0.0
C319 C 0.41154 0.3225 0.69564 0.0
C320 C 0.40346 0.29636 0.65406 0.0
C321 C 0.43868 0.29435 0.61706 0.0
C322 C 0.39781 0.29409 0.60755 0.0
C323 C 0.38464 0.28291 0.59782 0.0
C324 C 0.37685 0.27398 0.63457 0.0
C325 C 0.38291 0.27602 0.68088 0.0
C326 C 0.39603 0.2871 0.69047 0.0
H327 H 0.45261 0.29351 0.61596 0.0
H328 H 0.43357 0.28216 0.62964 0.0
H329 H 0.4341 0.29643 0.58057 0.0
H330 H 0.4032 0.30134 0.57902 0.0
H331 H 0.38023 0.2817 0.56186 0.0
H332 H 0.87185 0.21497 0.88639 0.0
H333 H 0.89518 0.19546 0.87748 0.0
H334 H 0.90157 0.19392 0.02837 0.0
H335 H 0.87792 0.21343 0.0379 0.0
H336 H 0.92902 0.19736 0.90675 0.0
H337 H 0.8948 0.1443 0.99096 0.0
H338 H 0.88435 0.16329 0.97224 0.0
H339 H 0.89648 0.16312 0.02567 0.0
C340 C 0.8782 0.21057 0.91786 0.0
C341 C 0.87287 0.21565 0.96298 0.0
C342 C 0.8916 0.19945 0.91259 0.0
C343 C 0.89994 0.19309 0.95223 0.0
C344 C 0.89509 0.19851 -0.00266 0.0
H345 H 0.97441 0.11428 0.97641 0.0
H346 H 0.95572 0.13795 0.99056 0.0
C347 C 0.88164 0.2097 0.00271 0.0
C348 C 0.91329 0.18032 0.94584 0.0
H349 H 0.92243 0.13903 0.96546 0.0
C350 C 0.92765 0.18462 0.91974 0.0
C351 C 0.91137 0.1637 0.96258 0.0
C352 C 0.89588 0.15821 0.9891 0.0
C353 C 0.94023 0.17271 0.91017 0.0
C354 C 0.93821 0.15605 0.92648 0.0
C355 C 0.92393 0.15183 0.95299 0.0
C356 C 0.95072 0.14269 0.91681 0.0
C357 C 0.95565 0.17812 0.88322 0.0
C358 C 0.95425 0.13757 0.87046 0.0
C359 C 0.96504 0.12398 0.8621 0.0
C360 C 0.97231 0.11521 0.90003 0.0
C361 C 0.96897 0.12066 0.9463 0.0
C362 C 0.95829 0.13422 0.95455 0.0
H363 H 0.95732 0.19197 0.88403 0.0
H364 H 0.96713 0.1721 0.89774 0.0
H365 H 0.95432 0.17422 0.84585 0.0
H366 H 0.94828 0.14374 0.84083 0.0
H367 H 0.96729 0.12005 0.8261 0.0
H368 H 0.03054 0.38016 0.97547 0.0
H369 H 0.0496 0.3568 0.98964 0.0
H370 H 0.05348 0.34816 0.84005 0.0
H371 H 0.03415 0.37166 0.82518 0.0
H372 H 0.04909 0.31817 0.89912 0.0
H373 H 0.10063 0.35983 0.9611 0.0
H374 H 0.08072 0.36304 0.98955 0.0
H375 H 0.08289 0.36757 0.9278 0.0
C376 C 0.03536 0.37332 0.94537 0.0
C377 C 0.03092 0.37793 0.89905 0.0
C378 C 0.0463 0.35998 0.95366 0.0
C379 C 0.05315 0.35097 0.91591 0.0
C380 C 0.04837 0.35507 0.86964 0.0
H381 H 0.1256 0.27204 0.8849 0.0
H382 H 0.10249 0.29179 0.87657 0.0
C383 C 0.03735 0.36849 0.86122 0.0
C384 C 0.06556 0.33752 0.92514 0.0
H385 H 0.10476 0.33059 0.97006 0.0
C386 C 0.06129 0.32085 0.91449 0.0
C387 C 0.08138 0.34109 0.94558 0.0
C388 C 0.0868 0.35885 0.95637 0.0
C389 C 0.07243 0.30759 0.92411 0.0
C390 C 0.08833 0.31119 0.94411 0.0
C391 C 0.09251 0.32785 0.95511 0.0
C392 C 0.10135 0.29808 0.95066 0.0
C393 C 0.06701 0.28984 0.91329 0.0
C394 C 0.10856 0.29515 0.99517 0.0
C395 C 0.12196 0.28386 0.00014 0.0
C396 C 0.12847 0.27549 0.96052 0.0
C397 C 0.12094 0.27825 0.91624 0.0
C398 C 0.10759 0.28945 0.91138 0.0
H399 H 0.05309 0.2887 0.9123 0.0
H400 H 0.07189 0.28619 0.87813 0.0
H401 H 0.07202 0.28086 0.93977 0.0
H402 H 0.10399 0.30182 0.02588 0.0
H403 H 0.1275 0.28207 0.03466 0.0
H404 H 0.97085 0.87227 0.2771 0.0
H405 H 0.95183 0.84877 0.26027 0.0
H406 H 0.95817 0.85704 0.11111 0.0
H407 H 0.97692 0.88049 0.12734 0.0
H408 H 0.92489 0.85543 0.13862 0.0
H409 H 0.96101 0.80133 0.2094 0.0
H410 H 0.95844 0.81844 0.25007 0.0
H411 H 0.97057 0.82146 0.19733 0.0
C412 C 0.96836 0.86894 0.24075 0.0
C413 C 0.97536 0.87833 0.20363 0.0
C414 C 0.95756 0.85546 0.23118 0.0
C415 C 0.95372 0.85108 0.1844 0.0
C416 C 0.96099 0.86019 0.14742 0.0
H417 H 0.87892 0.78227 0.06236 0.0
H418 H 0.90272 0.80167 0.07084 0.0
C419 C 0.97171 0.87362 0.15688 0.0
C420 C 0.94122 0.83783 0.17369 0.0
H421 H 0.9325 0.79617 0.1884 0.0
C422 C 0.92661 0.84244 0.1491 0.0
C423 C 0.94354 0.82091 0.18736 0.0
C424 C 0.9593 0.81515 0.21214 0.0
C425 C 0.91397 0.83067 0.1391 0.0
C426 C 0.91617 0.81379 0.15335 0.0
C427 C 0.93091 0.80912 0.1773 0.0
C428 C 0.90271 0.80112 0.14714 0.0
C429 C 0.8981 0.83656 0.11503 0.0
C430 C 0.89524 0.794 0.18708 0.0
C431 C 0.88179 0.78292 0.18239 0.0
C432 C 0.8755 0.77865 0.13755 0.0
C433 C 0.88338 0.78537 0.09737 0.0
C434 C 0.89692 0.7965 0.10216 0.0
H435 H 0.89697 0.85048 0.1152 0.0
H436 H 0.89819 0.8323 0.07779 0.0
H437 H 0.88683 0.83114 0.13238 0.0
H438 H 0.89955 0.79735 0.22209 0.0
H439 H 0.87615 0.77793 0.21418 0.0
H440 H 0.37192 0.72069 0.38175 0.0
H441 H 0.39486 0.70127 0.36552 0.0
H442 H 0.40041 0.69163 0.51428 0.0
H443 H 0.37743 0.71129 0.53116 0.0
H444 H 0.43146 0.69592 0.4636 0.0
H445 H 0.38886 0.65002 0.37682 0.0
H446 H 0.38784 0.67099 0.35351 0.0
H447 H 0.38117 0.66702 0.41299 0.0
C448 C 0.37803 0.71453 0.4112 0.0
C449 C 0.37269 0.71741 0.45781 0.0
C450 C 0.39112 0.70339 0.40175 0.0
C451 C 0.39909 0.69478 0.4386 0.0
C452 C 0.39431 0.69809 0.48533 0.0
H453 H 0.47165 0.61608 0.46819 0.0
H454 H 0.45286 0.63994 0.47767 0.0
C455 C 0.38119 0.70932 0.4949 0.0
C456 C 0.41205 0.68198 0.42805 0.0
H457 H 0.41792 0.64412 0.37393 0.0
C458 C 0.42853 0.68459 0.44402 0.0
C459 C 0.40817 0.66726 0.40225 0.0
C460 C 0.39053 0.66352 0.38569 0.0
C461 C 0.44129 0.67285 0.43473 0.0
C462 C 0.43735 0.65803 0.40949 0.0
C463 C 0.42092 0.65555 0.39296 0.0
C464 C 0.44972 0.64432 0.40293 0.0
C465 C 0.45889 0.67647 0.45172 0.0
C466 C 0.45402 0.63866 0.35761 0.0
C467 C 0.46477 0.62487 0.35193 0.0
C468 C 0.4712 0.6164 0.39156 0.0
C469 C 0.46695 0.62227 0.43682 0.0
C470 C 0.45631 0.63603 0.4424 0.0
H471 H 0.4609 0.69014 0.45737 0.0
H472 H 0.46097 0.67 0.4859 0.0
H473 H 0.4684 0.67182 0.42625 0.0
H474 H 0.44892 0.64482 0.32669 0.0
H475 H 0.46775 0.62064 0.31662 0.0
H476 H 0.63253 0.21452 0.71219 0.0
H477 H 0.60913 0.19518 0.7222 0.0
H478 H 0.60254 0.19285 0.57147 0.0
H479 H 0.62628 0.21218 0.56083 0.0
H480 H 0.57534 0.19717 0.69351 0.0
H481 H 0.60885 0.14341 0.61064 0.0
H482 H 0.61952 0.16241 0.62825 0.0
H483 H 0.6072 0.16205 0.57517 0.0
C484 C 0.62613 0.20998 0.68099 0.0
C485 C 0.63142 0.21479 0.63559 0.0
C486 C 0.61269 0.19895 0.68689 0.0
C487 C 0.60426 0.19242 0.64762 0.0
C488 C 0.60909 0.19757 0.60222 0.0
H489 H 0.52907 0.11388 0.6303 0.0
H490 H 0.54779 0.13735 0.61377 0.0
C491 C 0.62259 0.20866 0.59622 0.0
C492 C 0.59081 0.17981 0.65475 0.0
H493 H 0.58129 0.13848 0.6372 0.0
C494 C 0.57657 0.18435 0.68103 0.0
C495 C 0.59254 0.16309 0.63864 0.0
C496 C 0.60789 0.15733 0.61193 0.0
C497 C 0.56394 0.1726 0.69151 0.0
C498 C 0.56579 0.15583 0.67592 0.0
C499 C 0.57992 0.15136 0.64911 0.0
C500 C 0.5533 0.1426 0.68695 0.0
C501 C 0.54868 0.17826 0.71871 0.0
C502 C 0.55006 0.13781 0.73376 0.0
C503 C 0.53927 0.12434 0.74349 0.0
C504 C 0.53169 0.11535 0.70648 0.0
C505 C 0.53474 0.12045 0.65973 0.0
C506 C 0.54544 0.13389 0.65012 0.0
H507 H 0.54706 0.19212 0.71715 0.0
H508 H 0.53711 0.17219 0.70498 0.0
H509 H 0.55017 0.17463 0.75625 0.0
H510 H 0.55626 0.14416 0.76271 0.0
H511 H 0.53726 0.12069 0.77983 0.0
H512 H 0.94805 0.39348 0.82788 0.0
H513 H 0.92352 0.3751 0.83478 0.0
H514 H 0.92161 0.38468 0.98431 0.0
H515 H 0.94575 0.4033 0.97769 0.0
H516 H 0.92296 0.34651 0.88556 0.0
H517 H 0.87261 0.38861 0.95017 0.0
H518 H 0.89191 0.39649 0.92504 0.0
H519 H 0.89125 0.38977 0.98562 0.0
C520 C 0.9422 0.39196 0.86206 0.0
C521 C 0.94892 0.39985 0.90223 0.0
C522 C 0.92818 0.38144 0.86595 0.0
C523 C 0.92059 0.37866 0.90997 0.0
C524 C 0.92697 0.38693 0.9498 0.0
H525 H 0.85826 0.29896 0.02178 0.0
H526 H 0.87636 0.32367 0.01174 0.0
C527 C 0.9409 0.39749 0.94595 0.0
C528 C 0.90722 0.36582 0.91524 0.0
H529 H 0.86785 0.35898 0.95951 0.0
C530 C 0.91084 0.3493 0.9012 0.0
C531 C 0.89144 0.36945 0.93593 0.0
C532 C 0.88649 0.38708 0.94963 0.0
C533 C 0.89928 0.33626 0.90823 0.0
C534 C 0.88369 0.33983 0.92973 0.0
C535 C 0.87992 0.35633 0.94338 0.0
C536 C 0.87115 0.32644 0.93732 0.0
C537 C 0.90387 0.31864 0.89336 0.0
C538 C 0.86197 0.3202 0.89903 0.0
C539 C 0.85166 0.30617 0.90456 0.0
C540 C 0.85037 0.29807 0.94855 0.0
C541 C 0.85899 0.30487 0.98745 0.0
C542 C 0.86931 0.31898 0.98183 0.0
H543 H 0.91725 0.31759 0.8826 0.0
H544 H 0.90147 0.30967 0.9226 0.0
H545 H 0.89587 0.31484 0.86311 0.0
H546 H 0.86324 0.32587 0.86447 0.0
H547 H 0.84513 0.30136 0.87387 0.0
H548 H 0.45901 0.11183 0.75433 0.0
H549 H 0.43489 0.12998 0.739 0.0
H550 H 0.41462 0.09298 0.64331 0.0
H551 H 0.43931 0.07528 0.65642 0.0
H552 H 0.4131 0.12138 0.60338 0.0
H553 H 0.38802 0.13073 0.78239 0.0
H554 H 0.40966 0.13681 0.78097 0.0
H555 H 0.40392 0.11522 0.77001 0.0
C556 C 0.44922 0.10743 0.73082 0.0
C557 C 0.45098 0.09214 0.70666 0.0
C558 C 0.43536 0.11778 0.72225 0.0
C559 C 0.4227 0.11278 0.69057 0.0
C560 C 0.42416 0.09715 0.66791 0.0
H561 H 0.33593 0.17961 0.67249 0.0
H562 H 0.35302 0.15431 0.68227 0.0
C563 C 0.43824 0.087 0.67555 0.0
C564 C 0.40879 0.12445 0.67797 0.0
H565 H 0.38056 0.15194 0.72504 0.0
C566 C 0.40578 0.12783 0.63005 0.0
C567 C 0.39893 0.13268 0.71245 0.0
C568 C 0.40018 0.1285 0.76424 0.0
C569 C 0.3937 0.13965 0.61579 0.0
C570 C 0.3849 0.14894 0.65042 0.0
C571 C 0.38744 0.14506 0.69827 0.0
C572 C 0.37347 0.16311 0.63836 0.0
C573 C 0.39046 0.14186 0.56373 0.0
C574 C 0.37898 0.17634 0.60929 0.0
C575 C 0.36895 0.19056 0.60244 0.0
C576 C 0.3535 0.19207 0.62588 0.0
C577 C 0.3478 0.17871 0.65398 0.0
C578 C 0.3576 0.1643 0.65974 0.0
H579 H 0.39295 0.13002 0.54419 0.0
H580 H 0.37732 0.14581 0.55664 0.0
H581 H 0.39912 0.15156 0.54957 0.0
H582 H 0.39137 0.17606 0.59359 0.0
H583 H 0.37375 0.20083 0.5813 0.0
H584 H 0.55908 0.58429 0.47559 0.0
H585 H 0.58297 0.60313 0.4873 0.0
H586 H 0.57425 0.62518 0.35065 0.0
H587 H 0.55028 0.60633 0.33839 0.0
H588 H 0.61341 0.61063 0.42637 0.0
H589 H 0.56885 0.66363 0.45461 0.0
H590 H 0.56248 0.6419 0.45899 0.0
H591 H 0.56583 0.65125 0.4022 0.0
C592 C 0.56238 0.59296 0.44763 0.0
C593 C 0.55266 0.59394 0.40621 0.0
C594 C 0.57606 0.60367 0.45439 0.0
C595 C 0.5802 0.61561 0.42007 0.0
C596 C 0.57113 0.61607 0.37764 0.0
H597 H 0.65968 0.68754 0.39394 0.0
H598 H 0.64158 0.66291 0.38799 0.0
C599 C 0.55749 0.60526 0.37065 0.0
C600 C 0.5931 0.62844 0.43037 0.0
H601 H 0.59777 0.67011 0.45537 0.0
C602 C 0.61005 0.62364 0.43274 0.0
C603 C 0.58856 0.64529 0.43954 0.0
C604 C 0.57045 0.65091 0.43912 0.0
C605 C 0.62267 0.63545 0.44286 0.0
C606 C 0.61816 0.6524 0.45069 0.0
C607 C 0.60117 0.65708 0.44942 0.0
C608 C 0.63083 0.66579 0.45751 0.0
C609 C 0.64072 0.62972 0.4453 0.0
C610 C 0.63091 0.67549 0.49885 0.0
C611 C 0.64129 0.68963 0.50245 0.0
C612 C 0.65153 0.69442 0.4644 0.0
C613 C 0.6519 0.68424 0.42385 0.0
C614 C 0.64164 0.67007 0.42046 0.0
H615 H 0.64167 0.61592 0.45062 0.0
H616 H 0.64709 0.63289 0.41167 0.0
H617 H 0.64751 0.63618 0.47431 0.0
H618 H 0.62255 0.67242 0.5277 0.0
H619 H 0.64067 0.69724 0.53406 0.0
H620 H 0.14254 0.79691 0.07461 0.0
H621 H 0.12465 0.82184 0.08155 0.0
H622 H 0.14421 0.83104 0.22095 0.0
H623 H 0.16213 0.80629 0.21438 0.0
H624 H 0.10007 0.8246 0.15319 0.0
H625 H 0.14487 0.87802 0.15897 0.0
H626 H 0.15045 0.85765 0.1356 0.0
H627 H 0.14992 0.86102 0.1982 0.0
C628 C 0.14331 0.80444 0.10632 0.0
C629 C 0.1537 0.79955 0.14403 0.0
C630 C 0.13306 0.81866 0.11024 0.0
C631 C 0.13322 0.82834 0.1516 0.0
C632 C 0.1441 0.82391 0.18843 0.0
H633 H 0.05325 0.88862 0.26943 0.0
H634 H 0.07696 0.8695 0.25721 0.0
C635 C 0.15425 0.80967 0.1847 0.0
C636 C 0.12076 0.84193 0.1585 0.0
H637 H 0.11666 0.88378 0.18277 0.0
C638 C 0.10369 0.83756 0.15929 0.0
C639 C 0.12555 0.85881 0.16643 0.0
C640 C 0.14368 0.86424 0.16439 0.0
C641 C 0.09126 0.84957 0.1688 0.0
C642 C 0.09606 0.86634 0.17814 0.0
C643 C 0.11309 0.87084 0.17624 0.0
C644 C 0.08336 0.87937 0.18849 0.0
C645 C 0.07305 0.84427 0.16863 0.0
C646 C 0.07958 0.89161 0.15462 0.0
C647 C 0.06604 0.90251 0.16138 0.0
C648 C 0.05611 0.90142 0.20232 0.0
C649 C 0.0606 0.88979 0.23749 0.0
C650 C 0.0741 0.87882 0.23053 0.0
H651 H 0.07128 0.83167 0.15249 0.0
H652 H 0.06837 0.84376 0.20544 0.0
H653 H 0.06526 0.85352 0.14906 0.0
H654 H 0.08664 0.89223 0.12202 0.0
H655 H 0.063 0.9114 0.13371 0.0
H656 H 0.95338 0.60643 0.27261 0.0
H657 H 0.9295 0.62543 0.26135 0.0
H658 H 0.92006 0.60362 0.12479 0.0
H659 H 0.94382 0.58458 0.13561 0.0
H660 H 0.92858 0.64855 0.18334 0.0
H661 H 0.87276 0.60657 0.18714 0.0
H662 H 0.8927 0.60075 0.21297 0.0
H663 H 0.88984 0.5998 0.15026 0.0
C664 C 0.94601 0.60542 0.24062 0.0
C665 C 0.95057 0.59405 0.20491 0.0
C666 C 0.9324 0.6163 0.23421 0.0
C667 C 0.92299 0.61584 0.19236 0.0
C668 C 0.92703 0.60401 0.15759 0.0
H669 H 0.86408 0.69875 0.0771 0.0
H670 H 0.88237 0.67406 0.08456 0.0
C671 C 0.94068 0.59321 0.1638 0.0
C672 C 0.9101 0.62881 0.183 0.0
H673 H 0.86819 0.63478 0.16293 0.0
C674 C 0.91537 0.64556 0.17892 0.0
C675 C 0.89291 0.6248 0.17723 0.0
C676 C 0.88661 0.60703 0.18244 0.0
C677 C 0.9039 0.65846 0.16908 0.0
C678 C 0.88674 0.65446 0.16276 0.0
C679 C 0.88141 0.63772 0.16714 0.0
C680 C 0.87408 0.66777 0.15501 0.0
C681 C 0.91014 0.67634 0.16645 0.0
C682 C 0.86299 0.67195 0.19144 0.0
C683 C 0.85261 0.68601 0.18739 0.0
C684 C 0.85306 0.69609 0.14664 0.0
C685 C 0.86345 0.69126 0.10894 0.0
C686 C 0.87394 0.67721 0.11319 0.0
H687 H 0.92323 0.6776 0.1797 0.0
H688 H 0.90985 0.68064 0.12923 0.0
H689 H 0.90188 0.6848 0.18722 0.0
H690 H 0.86291 0.66477 0.22391 0.0
H691 H 0.84464 0.68929 0.21693 0.0
H692 H 0.05085 0.10363 0.83847 0.0
H693 H 0.07497 0.1223 0.84981 0.0
H694 H 0.08332 0.1012 0.98783 0.0
H695 H 0.05931 0.08248 0.97694 0.0
H696 H 0.07576 0.14584 0.92724 0.0
H697 H 0.13103 0.10305 0.92673 0.0
H698 H 0.11115 0.09743 0.90016 0.0
H699 H 0.11359 0.09676 0.96303 0.0
C700 C 0.05802 0.1027 0.87083 0.0
C701 C 0.05309 0.09163 0.90689 0.0
C702 C 0.07177 0.11339 0.87728 0.0
C703 C 0.08094 0.11304 0.91955 0.0
C704 C 0.07653 0.1015 0.95473 0.0
H705 H 0.141 0.19659 0.02724 0.0
H706 H 0.12263 0.17186 0.02328 0.0
C707 C 0.06274 0.09087 0.94847 0.0
C708 C 0.09398 0.12587 0.92873 0.0
H709 H 0.13598 0.13142 0.94822 0.0
C710 C 0.08893 0.14271 0.93186 0.0
C711 C 0.11111 0.12167 0.9348 0.0
C712 C 0.11716 0.10377 0.93072 0.0
C713 C 0.10057 0.15553 0.9408 0.0
C714 C 0.11769 0.15135 0.94718 0.0
C715 C 0.12279 0.13451 0.94397 0.0
C716 C 0.13055 0.16458 0.95326 0.0
C717 C 0.09456 0.17352 0.94222 0.0
C718 C 0.14149 0.1682 0.91599 0.0
C719 C 0.1519 0.18228 0.91804 0.0
C720 C 0.15164 0.19295 0.95761 0.0
C721 C 0.14147 0.18864 -0.00372 0.0
C722 C 0.13094 0.17457 0.99402 0.0
H723 H 0.08145 0.17482 0.92926 0.0
H724 H 0.09506 0.17816 0.97907 0.0
H725 H 0.10285 0.18166 0.92055 0.0
H726 H 0.14137 0.1606 0.88431 0.0
H727 H 0.1597 0.18515 0.88783 0.0
H728 H 0.64233 0.29485 0.57607 0.0
H729 H 0.62405 0.31941 0.58552 0.0
H730 H 0.64416 0.32767 0.72477 0.0
H731 H 0.66245 0.30328 0.71573 0.0
H732 H 0.5998 0.32116 0.6593 0.0
H733 H 0.64394 0.37517 0.66486 0.0
H734 H 0.64954 0.35508 0.63968 0.0
H735 H 0.64947 0.35786 0.70252 0.0
C736 C 0.64312 0.30211 0.60829 0.0
C737 C 0.65379 0.29706 0.64524 0.0
C738 C 0.63266 0.3161 0.61366 0.0
C739 C 0.63287 0.3254 0.6557 0.0
C740 C 0.644 0.32082 0.69178 0.0
H741 H 0.55232 0.38495 0.77597 0.0
H742 H 0.57616 0.36592 0.76407 0.0
C743 C 0.65437 0.3068 0.68661 0.0
C744 C 0.62027 0.33876 0.66394 0.0
H745 H 0.61575 0.3805 0.68903 0.0
C746 C 0.60327 0.33415 0.66552 0.0
C747 C 0.62488 0.35568 0.67206 0.0
C748 C 0.64293 0.36134 0.66935 0.0
C749 C 0.59073 0.34597 0.67575 0.0
C750 C 0.59536 0.36279 0.68501 0.0
C751 C 0.61232 0.36752 0.68256 0.0
C752 C 0.58252 0.37571 0.69522 0.0
C753 C 0.5726 0.34043 0.67621 0.0
C754 C 0.57867 0.38786 0.66116 0.0
C755 C 0.56507 0.39869 0.66773 0.0
C756 C 0.55514 0.39763 0.70869 0.0
C757 C 0.55968 0.38608 0.74403 0.0
C758 C 0.57324 0.37517 0.73725 0.0
H759 H 0.57092 0.32777 0.66036 0.0
H760 H 0.56806 0.33996 0.71316 0.0
H761 H 0.56462 0.34953 0.65669 0.0
H762 H 0.58573 0.38847 0.62858 0.0
H763 H 0.562 0.40751 0.63995 0.0
H764 H 0.36942 0.79076 0.5108 0.0
H765 H 0.38708 0.81551 0.49929 0.0
H766 H 0.34976 0.8367 0.40602 0.0
H767 H 0.3326 0.81141 0.41513 0.0
H768 H 0.37793 0.83965 0.3668 0.0
H769 H 0.38712 0.86148 0.54919 0.0
H770 H 0.39364 0.84003 0.54465 0.0
H771 H 0.37192 0.84551 0.5346 0.0
C772 C 0.36485 0.80087 0.48863 0.0
C773 C 0.34965 0.79922 0.46394 0.0
C774 C 0.37491 0.81509 0.48228 0.0
C775 C 0.36967 0.8282 0.45241 0.0
C776 C 0.35411 0.82681 0.42927 0.0
H777 H 0.43545 0.91631 0.44449 0.0
H778 H 0.41053 0.89864 0.454 0.0
C779 C 0.34428 0.81239 0.43461 0.0
C780 C 0.38107 0.84255 0.44192 0.0
H781 H 0.40823 0.87027 0.49295 0.0
C782 C 0.38431 0.84654 0.3945 0.0
C783 C 0.3892 0.85189 0.47777 0.0
C784 C 0.38511 0.84962 0.52933 0.0
C785 C 0.39592 0.85904 0.382 0.0
C786 C 0.40517 0.86728 0.41783 0.0
C787 C 0.4014 0.86381 0.46526 0.0
C788 C 0.41927 0.87897 0.40725 0.0
C789 C 0.39794 0.86332 0.33048 0.0
C790 C 0.43239 0.87404 0.37709 0.0
C791 C 0.44639 0.88437 0.37053 0.0
C792 C 0.44783 0.89957 0.39529 0.0
C793 C 0.43464 0.90464 0.42493 0.0
C794 C 0.42043 0.89452 0.43051 0.0
H795 H 0.38605 0.86114 0.31084 0.0
H796 H 0.40176 0.87662 0.32538 0.0
H797 H 0.40765 0.85504 0.31478 0.0
H798 H 0.43216 0.86189 0.35998 0.0
H799 H 0.45652 0.88001 0.34813 0.0
H800 H 0.00957 0.51629 0.19523 0.0
H801 H 0.02424 0.49888 0.13786 0.0
H802 H 0.06821 0.53028 0.15026 0.0
H803 H 0.05358 0.54771 0.20867 0.0
H804 H 0.05444 0.52799 0.05847 0.0
H805 H 0.06312 0.46472 0.13358 0.0
H806 H 0.04286 0.47295 0.14892 0.0
H807 H 0.06154 0.48337 0.16983 0.0
C808 C 0.02252 0.5192 0.18676 0.0
C809 C 0.03041 0.53336 0.20603 0.0
C810 C 0.03096 0.50916 0.15436 0.0
C811 C 0.04739 0.51318 0.14036 0.0
C812 C 0.05563 0.52686 0.16122 0.0
H813 H 0.05234 0.44641 0.89852 0.0
H814 H 0.06735 0.46379 0.95634 0.0
C815 C 0.04725 0.53679 0.19442 0.0
C816 C 0.05426 0.50486 0.09812 0.0
H817 H 0.05464 0.46576 0.04977 0.0
C818 C 0.05525 0.51439 0.0566 0.0
C819 C 0.05568 0.4872 0.09576 0.0
C820 C 0.05593 0.4765 0.13959 0.0
C821 C 0.05501 0.50656 0.0124 0.0
C822 C 0.05369 0.48889 0.01019 0.0
C823 C 0.05535 0.47936 0.05157 0.0
C824 C 0.04638 0.48051 0.9686 0.0
C825 C 0.05453 0.51726 0.96858 0.0
C826 C 0.02973 0.48432 0.95621 0.0
C827 C 0.02108 0.4743 0.92413 0.0
C828 C 0.02898 0.46038 0.9036 0.0
C829 C 0.04599 0.45715 0.91377 0.0
C830 C 0.05459 0.46704 0.94663 0.0
H831 H 0.06161 0.52914 0.97388 0.0
H832 H 0.05984 0.51046 0.93783 0.0
H833 H 0.04129 0.52061 0.96052 0.0
H834 H 0.02306 0.49444 0.9736 0.0
H835 H 0.00801 0.47707 0.91679 0.0
H836 H 0.79172 0.79739 0.12485 0.0
H837 H 0.77463 0.81264 0.18324 0.0
H838 H 0.77765 0.77003 0.27692 0.0
H839 H 0.79434 0.75484 0.2194 0.0
H840 H 0.74317 0.80062 0.21923 0.0
H841 H 0.78818 0.81029 0.36403 0.0
H842 H 0.79471 0.80786 0.30329 0.0
H843 H 0.79077 0.78968 0.33957 0.0
C844 C 0.7888 0.7914 0.15813 0.0
C845 C 0.79428 0.77492 0.16759 0.0
C846 C 0.77917 0.80014 0.19141 0.0
C847 C 0.77531 0.79261 0.23477 0.0
C848 C 0.78092 0.77625 0.24419 0.0
H849 H 0.7099 0.75369 0.38981 0.0
H850 H 0.72608 0.76915 0.33165 0.0
C851 C 0.79027 0.76748 0.21098 0.0
C852 C 0.76373 0.80049 0.26876 0.0
H853 H 0.75947 0.80134 0.38803 0.0
C854 C 0.74674 0.80162 0.25604 0.0
C855 C 0.76839 0.80232 0.31655 0.0
C856 C 0.78656 0.80267 0.33153 0.0
C857 C 0.73421 0.80155 0.29067 0.0
C858 C 0.73894 0.80012 0.33854 0.0
C859 C 0.75587 0.80202 0.35119 0.0
C860 C 0.72767 0.792 0.37289 0.0
C861 C 0.71604 0.80108 0.27568 0.0
C862 C 0.72358 0.79959 0.41598 0.0
C863 C 0.71426 0.79069 0.44963 0.0
C864 C 0.7093 0.77401 0.44082 0.0
C865 C 0.71355 0.7665 0.39772 0.0
C866 C 0.72261 0.77541 0.36415 0.0
H867 H 0.71412 0.8085 0.24293 0.0
H868 H 0.71239 0.7879 0.26806 0.0
H869 H 0.70768 0.80604 0.30374 0.0
H870 H 0.7277 0.81227 0.42364 0.0
H871 H 0.71115 0.79676 0.48267 0.0
H872 H 0.44958 0.545 0.39751 0.0
H873 H 0.43495 0.52785 0.45681 0.0
H874 H 0.48093 0.50079 0.48399 0.0
H875 H 0.49552 0.51777 0.42547 0.0
H876 H 0.44903 0.48077 0.48231 0.0
H877 H 0.44865 0.5372 0.59895 0.0
H878 H 0.43978 0.53802 0.54048 0.0
H879 H 0.46213 0.53674 0.54786 0.0
C880 C 0.45642 0.53511 0.41543 0.0
C881 C 0.47372 0.5328 0.40747 0.0
C882 C 0.44806 0.52539 0.44922 0.0
C883 C 0.45693 0.51319 0.47478 0.0
C884 C 0.47388 0.51014 0.46442 0.0
H885 H 0.49731 0.47337 0.68783 0.0
H886 H 0.48214 0.49038 0.63044 0.0
C887 C 0.48223 0.5199 0.4312 0.0
C888 C 0.44973 0.50485 0.51654 0.0
H889 H 0.45048 0.51075 0.63543 0.0
C890 C 0.44848 0.48729 0.51585 0.0
C891 C 0.44894 0.5135 0.56 0.0
C892 C 0.44991 0.53242 0.56233 0.0
C893 C 0.44882 0.47802 0.55786 0.0
C894 C 0.45044 0.48666 0.60115 0.0
C895 C 0.4493 0.50423 0.602 0.0
C896 C 0.45815 0.47824 0.64209 0.0
C897 C 0.44963 0.4591 0.55541 0.0
C898 C 0.4495 0.46617 0.66861 0.0
C899 C 0.45819 0.45641 0.70171 0.0
C900 C 0.4756 0.45857 0.70808 0.0
C901 C 0.48393 0.47134 0.68335 0.0
C902 C 0.47526 0.48112 0.65077 0.0
H903 H 0.4478 0.45433 0.51896 0.0
H904 H 0.46203 0.45469 0.56849 0.0
H905 H 0.4398 0.45356 0.57836 0.0
H906 H 0.43628 0.46384 0.66235 0.0
H907 H 0.45147 0.44666 0.72042 0.0
H908 H 0.80163 0.19442 0.96109 0.0
H909 H 0.78429 0.17921 0.90339 0.0
H910 H 0.75783 0.22512 0.87123 0.0
H911 H 0.77501 0.2403 0.92815 0.0
H912 H 0.73741 0.19325 0.8775 0.0
H913 H 0.79333 0.19088 0.75921 0.0
H914 H 0.79435 0.18301 0.81878 0.0
H915 H 0.79315 0.20522 0.80846 0.0
C916 C 0.79186 0.20114 0.94239 0.0
C917 C 0.78976 0.21857 0.94853 0.0
C918 C 0.78201 0.19245 0.90952 0.0
C919 C 0.7699 0.20111 0.88308 0.0
C920 C 0.76711 0.21824 0.89153 0.0
H921 H 0.72928 0.23945 0.66991 0.0
H922 H 0.74637 0.22466 0.72786 0.0
C923 C 0.77699 0.22691 0.92382 0.0
C924 C 0.76135 0.19339 0.84241 0.0
H925 H 0.76672 0.19261 0.72336 0.0
C926 C 0.74378 0.19223 0.84382 0.0
C927 C 0.7698 0.19197 0.79879 0.0
C928 C 0.78871 0.19279 0.79577 0.0
C929 C 0.73433 0.19208 0.80211 0.0
C930 C 0.74279 0.19314 0.75842 0.0
C931 C 0.76035 0.19187 0.75708 0.0
C932 C 0.73426 0.20058 0.71729 0.0
C933 C 0.71543 0.19301 0.80508 0.0
C934 C 0.72216 0.19177 0.69127 0.0
C935 C 0.71238 0.20024 0.65781 0.0
C936 C 0.71452 0.21762 0.65065 0.0
C937 C 0.72728 0.22611 0.675 0.0
C938 C 0.7371 0.21765 0.70788 0.0
H939 H 0.7108 0.19136 0.84173 0.0
H940 H 0.71105 0.20538 0.79176 0.0
H941 H 0.70973 0.18313 0.78256 0.0
H942 H 0.71985 0.17858 0.69816 0.0
H943 H 0.7026 0.19339 0.63938 0.0
H944 H 0.21214 0.29511 0.96496 0.0
H945 H 0.22885 0.30991 0.90488 0.0
H946 H 0.22512 0.2667 0.81371 0.0
H947 H 0.20878 0.25194 0.87295 0.0
H948 H 0.25994 0.29748 0.86935 0.0
H949 H 0.21483 0.30623 0.72423 0.0
H950 H 0.20833 0.3041 0.78508 0.0
H951 H 0.21238 0.28574 0.74962 0.0
C952 C 0.2148 0.28889 0.93184 0.0
C953 C 0.20925 0.27236 0.92363 0.0
C954 C 0.22421 0.29738 0.8976 0.0
C955 C 0.2278 0.28955 0.85449 0.0
C956 C 0.22206 0.27315 0.84622 0.0
H957 H 0.29297 0.25038 0.69717 0.0
H958 H 0.27576 0.26522 0.75434 0.0
C959 C 0.21291 0.26463 0.88041 0.0
C960 C 0.23937 0.2971 0.81989 0.0
H961 H 0.24362 0.2975 0.70054 0.0
C962 C 0.25636 0.29833 0.83252 0.0
C963 C 0.23468 0.29864 0.77203 0.0
C964 C 0.2165 0.2988 0.75706 0.0
C965 C 0.26888 0.29819 0.79787 0.0
C966 C 0.26414 0.29668 0.75007 0.0
C967 C 0.2472 0.29832 0.73737 0.0
C968 C 0.27555 0.28872 0.71589 0.0
C969 C 0.28706 0.29771 0.81277 0.0
C970 C 0.28078 0.29696 0.67477 0.0
C971 C 0.29075 0.28846 0.64182 0.0
C972 C 0.29522 0.27155 0.64933 0.0
C973 C 0.28971 0.26337 0.6903 0.0
C974 C 0.28003 0.27189 0.72325 0.0
H975 H 0.28896 0.30461 0.8464 0.0
H976 H 0.29089 0.28446 0.81851 0.0
H977 H 0.29531 0.30322 0.78525 0.0
H978 H 0.27716 0.30988 0.66827 0.0
H979 H 0.29482 0.29503 0.61041 0.0
H980 H 0.27295 0.73969 0.44396 0.0
H981 H 0.25487 0.72533 0.38749 0.0
H982 H 0.28555 0.6808 0.39824 0.0
H983 H 0.30368 0.69511 0.45568 0.0
H984 H 0.28245 0.69439 0.30624 0.0
H985 H 0.22 0.687 0.3875 0.0
H986 H 0.22876 0.70718 0.40125 0.0
H987 H 0.23911 0.68843 0.42191 0.0
C988 C 0.2756 0.7267 0.43524 0.0
C989 C 0.28974 0.71854 0.45384 0.0
C990 C 0.26517 0.71844 0.40337 0.0
C991 C 0.26876 0.70192 0.38927 0.0
C992 C 0.28247 0.69345 0.40929 0.0
H993 H 0.19936 0.69551 0.15234 0.0
H994 H 0.21718 0.68105 0.21038 0.0
C995 C 0.29279 0.70165 0.44192 0.0
C996 C 0.25982 0.69507 0.34797 0.0
H997 H 0.22015 0.69475 0.30325 0.0
C998 C 0.26883 0.69372 0.30565 0.0
C999 C 0.24213 0.69384 0.34732 0.0
C1000 C 0.23196 0.694 0.39211 0.0
C1001 C 0.26046 0.69372 0.2622 0.0
C1002 C 0.24278 0.69516 0.26154 0.0
C1003 C 0.23375 0.69393 0.30386 0.0
C1004 C 0.23396 0.70214 0.22022 0.0
C1005 C 0.27062 0.69378 0.2174 0.0
C1006 C 0.23764 0.71867 0.20651 0.0
C1007 C 0.22738 0.72701 0.17435 0.0
C1008 C 0.21335 0.7189 0.15503 0.0
C1009 C 0.21019 0.702 0.16665 0.0
C1010 C 0.22032 0.69373 0.19962 0.0
H1011 H 0.28257 0.68674 0.22208 0.0
H1012 H 0.26345 0.68819 0.18769 0.0
H1013 H 0.27386 0.70693 0.20807 0.0
H1014 H 0.24789 0.7255 0.22283 0.0
H1015 H 0.23009 0.74 0.16588 0.0
H1016 H 0.50865 0.97562 0.41655 0.0
H1017 H 0.5237 0.99293 0.47348 0.0
H1018 H 0.56763 0.96162 0.45834 0.0
H1019 H 0.55261 0.94426 0.40052 0.0
H1020 H 0.55504 0.96411 0.55108 0.0
H1021 H 0.56246 0.02719 0.47375 0.0
H1022 H 0.542 0.0189 0.46082 0.0
H1023 H 0.56038 0.00845 0.43809 0.0
C1024 C 0.52165 0.97268 0.42441 0.0
C1025 C 0.52943 0.95857 0.40447 0.0
C1026 C 0.5303 0.98266 0.45656 0.0
C1027 C 0.54686 0.97867 0.46955 0.0
C1028 C 0.55494 0.96501 0.44819 0.0
H1029 H 0.55463 0.0468 0.70729 0.0
H1030 H 0.56908 0.0291 0.64918 0.0
C1031 C 0.54634 0.95512 0.41533 0.0
C1032 C 0.55417 0.98714 0.511 0.0
H1033 H 0.55527 0.02636 0.55841 0.0
C1034 C 0.55582 0.97771 0.55257 0.0
C1035 C 0.55561 0.0048 0.51282 0.0
C1036 C 0.55521 0.01539 0.46878 0.0
C1037 C 0.5563 0.98567 0.59659 0.0
C1038 C 0.55498 0.00335 0.5986 0.0
C1039 C 0.55597 0.01276 0.55684 0.0
C1040 C 0.54829 0.01184 0.64081 0.0
C1041 C 0.55661 0.97508 0.64063 0.0
C1042 C 0.53195 0.00782 0.65562 0.0
C1043 C 0.52362 0.01801 0.68789 0.0
C1044 C 0.53153 0.03233 0.70617 0.0
C1045 C 0.54829 0.03576 0.69379 0.0
C1046 C 0.55657 0.02568 0.66076 0.0
H1047 H 0.56383 0.96331 0.63479 0.0
H1048 H 0.56221 0.98203 0.67072 0.0
H1049 H 0.54356 0.9715 0.65007 0.0
H1050 H 0.52519 -0.00257 0.63982 0.0
H1051 H 0.51073 0.01508 0.69697 0.0
H1052 H 0.99272 0.01481 0.9147 0.0
H1053 H 0.97767 -0.00232 0.97193 0.0
H1054 H 0.93431 0.02992 0.95918 0.0
H1055 H 0.94934 0.04709 0.90092 0.0
H1056 H 0.94771 0.02757 0.05065 0.0
H1057 H 0.93848 0.96417 0.97761 0.0
H1058 H 0.95886 0.97198 0.96191 0.0
H1059 H 0.94034 0.98264 0.9407 0.0
C1060 C 0.97982 0.01796 0.92304 0.0
C1061 C 0.97223 0.03229 0.90378 0.0
C1062 C 0.97115 0.00807 0.95534 0.0
C1063 C 0.95479 0.01241 0.96925 0.0
C1064 C 0.94683 0.02625 0.9483 0.0
H1065 H 0.95165 0.94609 0.21126 0.0
H1066 H 0.93591 0.96326 0.15448 0.0
C1067 C 0.95544 0.03603 0.91519 0.0
C1068 C 0.9478 0.0043 0.01168 0.0
H1069 H 0.94757 0.96539 0.0612 0.0
C1070 C 0.9469 0.01399 0.05294 0.0
C1071 C 0.94631 0.98666 0.01463 0.0
C1072 C 0.94586 0.9758 0.97115 0.0
C1073 C 0.94731 0.00631 0.09736 0.0
C1074 C 0.94872 0.98866 0.10006 0.0
C1075 C 0.94683 0.97898 0.05904 0.0
C1076 C 0.95641 0.98047 0.14144 0.0
C1077 C 0.9479 0.01718 0.14082 0.0
C1078 C 0.97304 0.98462 0.15314 0.0
C1079 C 0.98211 0.97474 0.18467 0.0
C1080 C 0.97466 0.96058 0.20529 0.0
C1081 C 0.95766 0.957 0.19591 0.0
C1082 C 0.94864 0.96678 0.16365 0.0
H1083 H 0.94054 0.02889 0.13554 0.0
H1084 H 0.94296 0.01041 0.17211 0.0
H1085 H 0.96112 0.02084 0.14796 0.0
H1086 H 0.9794 0.9949 0.13554 0.0
H1087 H 0.99516 0.97778 0.19141 0.0
H1088 H 0.96693 0.45673 0.71625 0.0
H1089 H 0.96592 0.47717 0.65213 0.0
H1090 H 0.01353 0.45904 0.60044 0.0
H1091 H 0.01457 0.43837 0.66445 0.0
H1092 H 0.98982 0.50245 0.64034 0.0
H1093 H 0.98487 0.46257 0.48029 0.0
H1094 H 0.98031 0.45473 0.53864 0.0
H1095 H 0.00171 0.45705 0.51959 0.0
C1096 C 0.97702 0.45681 0.69066 0.0
C1097 C 0.99085 0.44592 0.69548 0.0
C1098 C 0.97645 0.46857 0.65415 0.0
C1099 C 0.98963 0.46964 0.62152 0.0
C1100 C 0.00311 0.45829 0.62488 0.0
H1101 H 0.01548 0.55542 0.44467 0.0
H1102 H 0.01406 0.53476 0.50863 0.0
C1103 C 0.00368 0.44647 0.66147 0.0
C1104 C 0.98978 0.48344 0.58631 0.0
H1105 H 0.98993 0.49163 0.46822 0.0
C1106 C 0.9898 0.5001 0.60267 0.0
C1107 C 0.98965 0.48033 0.53727 0.0
C1108 C 0.98899 0.46272 0.51772 0.0
C1109 C 0.98981 0.51376 0.57128 0.0
C1110 C 0.99 0.51065 0.52224 0.0
C1111 C 0.98986 0.49398 0.50588 0.0
C1112 C 0.99008 0.52445 0.48705 0.0
C1113 C 0.98931 0.53138 0.59082 0.0
C1114 C 0.97698 0.52568 0.45414 0.0
C1115 C 0.97776 0.53744 0.41765 0.0
C1116 C 0.99173 0.54816 0.41313 0.0
C1117 C 0.00448 0.54745 0.44742 0.0
C1118 C 0.0037 0.53564 0.48398 0.0
H1119 H 0.98512 0.53157 0.62816 0.0
H1120 H 0.0021 0.5369 0.58922 0.0
H1121 H 0.98076 0.53946 0.56972 0.0
H1122 H 0.96635 0.51721 0.45593 0.0
H1123 H 0.96772 0.53764 0.39185 0.0
H1124 H 0.7923 0.71464 0.96969 0.0
H1125 H 0.77184 0.7131 0.90561 0.0
H1126 H 0.79012 0.76014 0.85032 0.0
H1127 H 0.81084 0.76167 0.91409 0.0
H1128 H 0.74652 0.73596 0.8903 0.0
H1129 H 0.78731 0.73096 0.7324 0.0
H1130 H 0.79503 0.72727 0.79136 0.0
H1131 H 0.79229 0.74838 0.77011 0.0
C1132 C 0.79222 0.72451 0.94338 0.0
C1133 C 0.80323 0.73828 0.94698 0.0
C1134 C 0.78046 0.72363 0.90687 0.0
C1135 C 0.77947 0.73646 0.87304 0.0
C1136 C 0.79082 0.74996 0.87556 0.0
H1137 H 0.69348 0.76072 0.69518 0.0
H1138 H 0.71427 0.75952 0.75882 0.0
C1139 C 0.80266 0.75082 0.91208 0.0
C1140 C 0.76585 0.73619 0.83719 0.0
H1141 H 0.75829 0.73617 0.7187 0.0
C1142 C 0.74909 0.73594 0.85276 0.0
C1143 C 0.76921 0.73602 0.78826 0.0
C1144 C 0.78693 0.73552 0.7694 0.0
C1145 C 0.7356 0.73571 0.82074 0.0
C1146 C 0.73896 0.73599 0.77181 0.0
C1147 C 0.75573 0.73606 0.75624 0.0
C1148 C 0.72534 0.73605 0.73597 0.0
C1149 C 0.7179 0.73486 0.83959 0.0
C1150 C 0.72457 0.72323 0.7021 0.0
C1151 C 0.71276 0.72392 0.66567 0.0
C1152 C 0.70149 0.73748 0.66219 0.0
C1153 C 0.70186 0.75002 0.6971 0.0
C1154 C 0.71374 0.74934 0.73355 0.0
H1155 H 0.71761 0.73026 0.87657 0.0
H1156 H 0.7123 0.74763 0.83895 0.0
H1157 H 0.70995 0.72649 0.81759 0.0
H1158 H 0.73337 0.71285 0.70329 0.0
H1159 H 0.71284 0.71406 0.63934 0.0
H1160 H 0.53626 0.53533 0.22196 0.0
H1161 H 0.538 0.51473 0.15842 0.0
H1162 H 0.49092 0.53257 0.10212 0.0
H1163 H 0.48914 0.55342 0.16549 0.0
H1164 H 0.5146 0.48928 0.14438 0.0
H1165 H 0.52074 0.52919 0.98474 0.0
H1166 H 0.52453 0.5371 0.04344 0.0
H1167 H 0.50339 0.53459 0.02228 0.0
C1168 C 0.52643 0.53515 0.19551 0.0
C1169 C 0.51255 0.54603 0.1988 0.0
C1170 C 0.52742 0.52329 0.15933 0.0
C1171 C 0.51462 0.52212 0.1255 0.0
C1172 C 0.50107 0.53341 0.12747 0.0
H1173 H 0.49011 0.43631 0.94799 0.0
H1174 H 0.49135 0.45691 0.01209 0.0
C1175 C 0.50007 0.54533 0.16371 0.0
C1176 C 0.51493 0.50831 0.09034 0.0
H1177 H 0.51566 0.50013 0.97227 0.0
C1178 C 0.51489 0.49164 0.10672 0.0
C1179 C 0.51543 0.51142 0.04131 0.0
C1180 C 0.51618 0.52903 0.02175 0.0
C1181 C 0.51517 0.47799 0.07535 0.0
C1182 C 0.51528 0.4811 0.0263 0.0
C1183 C 0.51549 0.49777 0.00993 0.0
C1184 C 0.51534 0.4673 0.99108 0.0
C1185 C 0.51562 0.46037 0.09496 0.0
C1186 C 0.5285 0.46615 0.95841 0.0
C1187 C 0.52782 0.45444 0.9218 0.0
C1188 C 0.51389 0.44368 0.91694 0.0
C1189 C 0.50108 0.44431 0.951 0.0
C1190 C 0.50177 0.45608 0.98766 0.0
H1191 H 0.51973 0.46019 0.1324 0.0
H1192 H 0.50282 0.45487 0.09315 0.0
H1193 H 0.5242 0.45227 0.0741 0.0
H1194 H 0.53911 0.47465 0.96045 0.0
H1195 H 0.5379 0.4543 0.89618 0.0
H1196 H 0.81114 0.23304 0.18865 0.0
H1197 H 0.79016 0.23376 0.25185 0.0
H1198 H 0.77165 0.28116 0.19959 0.0
H1199 H 0.79237 0.28046 0.13614 0.0
H1200 H 0.78228 0.25689 0.32339 0.0
H1201 H 0.73006 0.25062 0.19479 0.0
H1202 H 0.75175 0.24706 0.17908 0.0
H1203 H 0.74374 0.26812 0.18366 0.0
C1204 C 0.80281 0.24376 0.19114 0.0
C1205 C 0.80332 0.25661 0.1571 0.0
C1206 C 0.79078 0.24412 0.22714 0.0
C1207 C 0.77907 0.25729 0.22962 0.0
C1208 C 0.78029 0.27066 0.19758 0.0
H1209 H 0.71159 0.27947 0.46111 0.0
H1210 H 0.73233 0.28065 0.3978 0.0
C1211 C 0.79225 0.2703 0.16157 0.0
C1212 C 0.76521 0.25679 0.26455 0.0
H1213 H 0.7224 0.25598 0.27427 0.0
C1214 C 0.7692 0.25667 0.3127 0.0
C1215 C 0.74814 0.2562 0.25045 0.0
C1216 C 0.74311 0.25534 0.1992 0.0
C1217 C 0.75655 0.25635 0.34721 0.0
C1218 C 0.73947 0.25642 0.33311 0.0
C1219 C 0.73549 0.25615 0.28496 0.0
C1220 C 0.7256 0.25655 0.36804 0.0
C1221 C 0.7616 0.25567 0.39847 0.0
C1222 C 0.71426 0.24306 0.37063 0.0
C1223 C 0.70221 0.24243 0.40656 0.0
C1224 C 0.70132 0.25531 0.4404 0.0
C1225 C 0.71202 0.26928 0.43584 0.0
C1226 C 0.72399 0.26992 0.3999 0.0
H1227 H 0.77478 0.25133 0.4029 0.0
H1228 H 0.76061 0.26844 0.41391 0.0
H1229 H 0.75321 0.24716 0.41865 0.0
H1230 H 0.71519 0.23269 0.34605 0.0
H1231 H 0.69417 0.23148 0.40914 0.0
H1232 H 0.31398 0.26217 0.40022 0.0
H1233 H 0.29292 0.26195 0.337 0.0
H1234 H 0.27566 0.21333 0.38331 0.0
H1235 H 0.29646 0.2135 0.44666 0.0
H1236 H 0.28553 0.23953 0.26248 0.0
H1237 H 0.23332 0.24284 0.39164 0.0
H1238 H 0.25493 0.24678 0.40766 0.0
H1239 H 0.24746 0.22558 0.40119 0.0
C1240 C 0.30591 0.2513 0.3964 0.0
C1241 C 0.3068 0.23792 0.42874 0.0
C1242 C 0.29383 0.25122 0.36039 0.0
C1243 C 0.28245 0.23781 0.35625 0.0
C1244 C 0.28404 0.22399 0.38661 0.0
H1245 H 0.21525 0.21485 0.12487 0.0
H1246 H 0.23661 0.21458 0.18675 0.0
C1247 C 0.29604 0.22406 0.42258 0.0
C1248 C 0.26854 0.23846 0.32136 0.0
H1249 H 0.22571 0.23792 0.31178 0.0
C1250 C 0.27246 0.23923 0.27321 0.0
C1251 C 0.25148 0.23837 0.3355 0.0
C1252 C 0.24649 0.23851 0.38681 0.0
C1253 C 0.25976 0.23945 0.23875 0.0
C1254 C 0.2427 0.23863 0.25285 0.0
C1255 C 0.23879 0.23832 0.30103 0.0
C1256 C 0.22878 0.2381 0.21797 0.0
C1257 C 0.26471 0.24076 0.18755 0.0
C1258 C 0.21671 0.25097 0.21649 0.0
C1259 C 0.20432 0.25109 0.18133 0.0
C1260 C 0.20379 0.23829 0.14719 0.0
C1261 C 0.21537 0.22497 0.1504 0.0
C1262 C 0.22769 0.22486 0.18552 0.0
H1263 H 0.27767 0.24574 0.18341 0.0
H1264 H 0.2643 0.22808 0.17133 0.0
H1265 H 0.25591 0.24903 0.16789 0.0
H1266 H 0.21723 0.26124 0.24152 0.0
H1267 H 0.19561 0.26153 0.17981 0.0
H1268 H 0.31114 0.72991 0.69241 0.0
H1269 H 0.29005 0.73025 0.75547 0.0
H1270 H 0.27307 0.77897 0.70904 0.0
H1271 H 0.29391 0.7787 0.64594 0.0
H1272 H 0.2826 0.75313 0.82992 0.0
H1273 H 0.23075 0.74911 0.69943 0.0
H1274 H 0.25239 0.74503 0.68426 0.0
H1275 H 0.24498 0.76628 0.68964 0.0
C1276 C 0.30314 0.74084 0.69623 0.0
C1277 C 0.3041 0.75421 0.6639 0.0
C1278 C 0.29105 0.74098 0.73211 0.0
C1279 C 0.27973 0.75444 0.73609 0.0
C1280 C 0.28142 0.76828 0.70584 0.0
H1281 H 0.2122 0.77871 0.96425 0.0
H1282 H 0.23326 0.77875 0.90172 0.0
C1283 C 0.29344 0.76815 0.67003 0.0
C1284 C 0.26576 0.75384 0.77059 0.0
H1285 H 0.2229 0.7543 0.77897 0.0
C1286 C 0.26955 0.75333 0.81884 0.0
C1287 C 0.24873 0.7538 0.75595 0.0
C1288 C 0.24391 0.75342 0.7045 0.0
C1289 C 0.25676 0.75328 0.85293 0.0
C1290 C 0.23975 0.75398 0.83832 0.0
C1291 C 0.23595 0.75399 0.79005 0.0
C1292 C 0.22578 0.75474 0.87282 0.0
C1293 C 0.26157 0.75231 0.90434 0.0
C1294 C 0.21397 0.74167 0.87564 0.0
C1295 C 0.20176 0.74167 0.91119 0.0
C1296 C 0.20117 0.75479 0.94435 0.0
C1297 C 0.21238 0.76835 0.9395 0.0
C1298 C 0.22452 0.76834 0.90401 0.0
H1299 H 0.27457 0.74752 0.90912 0.0
H1300 H 0.26093 0.76507 0.91999 0.0
H1301 H 0.2528 0.74405 0.92407 0.0
H1302 H 0.21463 0.73113 0.85155 0.0
H1303 H 0.19333 0.73104 0.91402 0.0
H1304 H 0.46826 0.95553 0.21379 0.0
H1305 H 0.4678 0.9761 0.14999 0.0
H1306 H 0.51584 0.95811 0.10122 0.0
H1307 H 0.51637 0.93732 0.16503 0.0
H1308 H 0.49212 0.00143 0.14015 0.0
H1309 H 0.48777 0.96177 0.9794 0.0
H1310 H 0.48266 0.95393 0.03739 0.0
H1311 H 0.50423 0.95612 0.01987 0.0
C1312 C 0.47858 0.95567 0.18892 0.0
C1313 C 0.49237 0.94478 0.19453 0.0
C1314 C 0.47832 0.9675 0.15259 0.0
C1315 C 0.49177 0.96865 0.1209 0.0
C1316 C 0.50523 0.95731 0.12497 0.0
H1317 H 0.51743 0.05469 0.94394 0.0
H1318 H 0.51637 0.03396 0.00783 0.0
C1319 C 0.5055 0.94541 0.16142 0.0
C1320 C 0.49217 0.9825 0.08589 0.0
H1321 H 0.49244 0.99088 0.9679 0.0
C1322 C 0.49218 -0.00086 0.10246 0.0
C1323 C 0.49215 0.97946 0.03682 0.0
C1324 C 0.49156 0.96187 0.0171 0.0
C1325 C 0.49221 0.01284 0.07123 0.0
C1326 C 0.49241 0.00981 0.02216 0.0
C1327 C 0.49236 0.99317 0.00559 0.0
C1328 C 0.4923 0.02366 0.98714 0.0
C1329 C 0.49168 0.03044 0.09092 0.0
C1330 C 0.47901 0.02493 0.95486 0.0
C1331 C 0.47958 0.03672 0.91846 0.0
C1332 C 0.49351 0.04745 0.9134 0.0
C1333 C 0.50646 0.04672 0.94712 0.0
C1334 C 0.50588 0.03486 0.98361 0.0
H1335 H 0.48772 0.03058 0.12847 0.0
H1336 H 0.50441 0.03608 0.0887 0.0
H1337 H 0.48294 0.03846 0.07026 0.0
H1338 H 0.4684 0.01644 0.95703 0.0
H1339 H 0.46939 0.03694 0.89312 0.0
H1340 H 0.98796 0.05402 0.66629 0.0
H1341 H 0.98916 0.03326 0.60249 0.0
H1342 H 0.037 0.0157 0.6543 0.0
H1343 H 0.03583 0.03619 0.71825 0.0
H1344 H 0.01265 0.02607 0.53075 0.0
H1345 H 0.00723 0.97346 0.65829 0.0
H1346 H 0.00314 0.99502 0.67428 0.0
H1347 H 0.02439 0.9875 0.67007 0.0
C1348 C -0.00111 0.04596 0.66353 0.0
C1349 C 0.01173 0.04664 0.69759 0.0
C1350 C -0.00048 0.03405 0.62722 0.0
C1351 C 0.01296 0.02266 0.62447 0.0
C1352 C 0.02631 0.02409 0.65651 0.0
H1353 H 0.0377 0.95649 0.39256 0.0
H1354 H 0.0381 0.97689 0.45684 0.0
C1355 C 0.02568 0.03592 0.69281 0.0
C1356 C 0.01278 0.00887 0.58928 0.0
H1357 H 0.01305 0.96608 0.57881 0.0
C1358 C 0.01271 0.01296 0.54121 0.0
C1359 C 0.01255 0.99176 0.60307 0.0
C1360 C 0.01166 0.98661 0.65422 0.0
C1361 C 0.01282 0.00038 0.50648 0.0
C1362 C 0.01328 0.98328 0.52029 0.0
C1363 C 0.01293 0.97919 0.56835 0.0
C1364 C 0.01397 0.96951 0.48511 0.0
C1365 C 0.01222 0.00552 0.45529 0.0
C1366 C 0.00074 0.9579 0.48145 0.0
C1367 C 0.00055 0.94605 0.44496 0.0
C1368 C 0.01362 0.94563 0.41164 0.0
C1369 C 0.02738 0.95655 0.41741 0.0
C1370 C 0.02757 0.96833 0.45389 0.0
H1371 H 0.00758 0.01859 0.45093 0.0
H1372 H 0.02507 0.00485 0.44024 0.0
H1373 H 0.00399 -0.00304 0.4347 0.0
H1374 H 0.9902 0.9585 0.50554 0.0
H1375 H 0.98977 0.93784 0.44143 0.0
loop_
_geom_bond_atom_site_label_1
_geom_bond_atom_site_label_2
_geom_bond_distance
_geom_bond_site_symmetry_2
_ccdc_geom_bond_type
C0 O1 1.306 . S
C0 O3 1.160 . S
O1 C0 1.306 . S
O1 Cd2 2.228 . S
Cd2 O1 2.228 . S
Cd2 O6 2.273 . S
Cd2 O10 2.277 1_655 S
O3 C0 1.160 . S
O3 Cd4 2.203 1_655 S
Cd4 O3 2.203 1_455 S
Cd4 O6 2.411 1_455 S
Cd4 O7 2.333 . S
Cd4 O8 2.352 1_455 S
Cd4 O12 2.277 . S
Cd4 O13 2.356 . S
C5 O10 1.209 . S
C5 O12 1.226 . S
O6 Cd2 2.273 . S
O6 Cd4 2.411 1_655 S
O6 C9 1.320 1_655 S
O7 Cd4 2.333 . S
O7 C9 1.214 . S
O8 Cd4 2.352 1_655 S
O8 C11 1.215 1_655 S
C9 O6 1.320 1_455 S
C9 O7 1.214 . S
O10 Cd2 2.277 1_455 S
O10 C5 1.209 . S
C11 O8 1.215 1_455 S
C11 O13 1.341 . S
O12 Cd4 2.277 . S
O12 C5 1.226 . S
O13 Cd4 2.356 . S
O13 C11 1.341 . S
C14 O15 1.306 . S
C14 O17 1.160 . S
O15 C14 1.306 . S
O15 Cd16 2.228 . S
Cd16 O15 2.228 . S
Cd16 O20 2.273 . S
Cd16 O24 2.277 . S
O17 C14 1.160 . S
O17 Cd18 2.203 . S
Cd18 O17 2.203 . S
Cd18 O20 2.411 . S
Cd18 O21 2.333 . S
Cd18 O22 2.352 . S
Cd18 O26 2.277 . S
Cd18 O27 2.356 . S
C19 O24 1.209 . S
C19 O26 1.226 . S
O20 Cd16 2.273 . S
O20 Cd18 2.411 . S
O20 C23 1.320 . S
O21 Cd18 2.333 . S
O21 C23 1.214 . S
O22 Cd18 2.352 . S
O22 C25 1.258 . S
C23 O20 1.320 . S
C23 O21 1.214 . S
O24 Cd16 2.277 . S
O24 C19 1.209 . S
C25 O22 1.258 . S
C25 O27 1.282 . S
O26 Cd18 2.277 . S
O26 C19 1.226 . S
O27 Cd18 2.356 . S
O27 C25 1.282 . S
C28 O29 1.306 . S
C28 O31 1.160 . S
O29 C28 1.306 . S
O29 Cd30 2.228 . S
Cd30 O29 2.228 . S
Cd30 O34 2.273 . S
Cd30 O38 2.277 . S
O31 C28 1.160 . S
O31 Cd32 2.203 . S
Cd32 O31 2.203 . S
Cd32 O34 2.411 . S
Cd32 O35 2.333 . S
Cd32 O36 2.352 . S
Cd32 O40 2.277 . S
Cd32 O41 2.356 . S
C33 O38 1.209 . S
C33 O40 1.226 . S
O34 Cd30 2.273 . S
O34 Cd32 2.411 . S
O34 C37 1.320 . S
O35 Cd32 2.333 . S
O35 C37 1.214 . S
O36 Cd32 2.352 . S
O36 C39 1.258 . S
C37 O34 1.320 . S
C37 O35 1.214 . S
O38 Cd30 2.277 . S
O38 C33 1.209 . S
C39 O36 1.258 . S
C39 O41 1.282 . S
O40 Cd32 2.277 . S
O40 C33 1.226 . S
O41 Cd32 2.356 . S
O41 C39 1.282 . S
C42 O43 1.306 1_554 S
C42 O45 1.160 . S
O43 C42 1.306 1_556 S
O43 Cd44 2.228 . S
Cd44 O43 2.228 . S
Cd44 O48 2.273 . S
Cd44 O52 2.277 . S
O45 C42 1.160 . S
O45 Cd46 2.203 . S
Cd46 O45 2.203 . S
Cd46 O48 2.411 1_554 S
Cd46 O49 2.333 1_554 S
Cd46 O50 2.352 . S
Cd46 O54 2.277 . S
Cd46 O55 2.356 . S
C47 O52 1.209 . S
C47 O54 1.226 1_556 S
O48 Cd44 2.273 . S
O48 Cd46 2.411 1_556 S
O48 C51 1.320 . S
O49 Cd46 2.333 1_556 S
O49 C51 1.214 . S
O50 Cd46 2.352 . S
O50 C53 1.258 . S
C51 O48 1.320 . S
C51 O49 1.214 . S
O52 Cd44 2.277 . S
O52 C47 1.209 . S
C53 O50 1.258 . S
C53 O55 1.282 . S
O54 Cd46 2.277 . S
O54 C47 1.226 1_554 S
O55 Cd46 2.356 . S
O55 C53 1.282 . S
C56 O57 1.306 . S
C56 O59 1.160 . S
O57 C56 1.306 . S
O57 Cd58 2.228 . S
Cd58 O57 2.228 . S
Cd58 O62 2.273 . S
Cd58 O66 2.277 1_655 S
O59 C56 1.160 . S
O59 Cd60 2.203 1_655 S
Cd60 O59 2.203 1_455 S
Cd60 O62 2.411 1_455 S
Cd60 O63 2.333 . S
Cd60 O64 2.352 1_455 S
Cd60 O68 2.277 . S
Cd60 O69 2.356 . S
C61 O66 1.209 . S
C61 O68 1.226 . S
O62 Cd58 2.273 . S
O62 Cd60 2.411 1_655 S
O62 C65 1.320 1_655 S
O63 Cd60 2.333 . S
O63 C65 1.214 . S
O64 Cd60 2.352 1_655 S
O64 C67 1.215 1_655 S
C65 O62 1.320 1_455 S
C65 O63 1.214 . S
O66 Cd58 2.277 1_455 S
O66 C61 1.209 . S
C67 O64 1.215 1_455 S
C67 O69 1.341 . S
O68 Cd60 2.277 . S
O68 C61 1.226 . S
O69 Cd60 2.356 . S
O69 C67 1.341 . S
C70 O71 1.306 . S
C70 O73 1.160 . S
O71 C70 1.306 . S
O71 Cd72 2.228 . S
Cd72 O71 2.228 . S
Cd72 O76 2.273 . S
Cd72 O80 2.277 . S
O73 C70 1.160 . S
O73 Cd74 2.203 . S
Cd74 O73 2.203 . S
Cd74 O76 2.411 . S
Cd74 O77 2.333 . S
Cd74 O78 2.352 . S
Cd74 O82 2.277 . S
Cd74 O83 2.356 . S
C75 O80 1.209 . S
C75 O82 1.226 . S
O76 Cd72 2.273 . S
O76 Cd74 2.411 . S
O76 C79 1.320 . S
O77 Cd74 2.333 . S
O77 C79 1.214 . S
O78 Cd74 2.352 . S
O78 C81 1.258 . S
C79 O76 1.320 . S
C79 O77 1.214 . S
O80 Cd72 2.277 . S
O80 C75 1.209 . S
C81 O78 1.258 . S
C81 O83 1.282 . S
O82 Cd74 2.277 . S
O82 C75 1.226 . S
O83 Cd74 2.356 . S
O83 C81 1.282 . S
C84 O85 1.306 . S
C84 O87 1.160 . S
O85 C84 1.306 . S
O85 Cd86 2.228 . S
Cd86 O85 2.228 . S
Cd86 O90 2.273 . S
Cd86 O94 2.277 . S
O87 C84 1.160 . S
O87 Cd88 2.203 . S
Cd88 O87 2.203 . S
Cd88 O90 2.411 . S
Cd88 O91 2.333 . S
Cd88 O92 2.352 . S
Cd88 O96 2.277 . S
Cd88 O97 2.356 . S
C89 O94 1.209 . S
C89 O96 1.226 . S
O90 Cd86 2.273 . S
O90 Cd88 2.411 . S
O90 C93 1.320 . S
O91 Cd88 2.333 . S
O91 C93 1.214 . S
O92 Cd88 2.352 . S
O92 C95 1.258 . S
C93 O90 1.320 . S
C93 O91 1.214 . S
O94 Cd86 2.277 . S
O94 C89 1.209 . S
C95 O92 1.258 . S
C95 O97 1.282 . S
O96 Cd88 2.277 . S
O96 C89 1.226 . S
O97 Cd88 2.356 . S
O97 C95 1.282 . S
C98 O99 1.306 . S
C98 O101 1.160 . S
O99 C98 1.306 . S
O99 Cd100 2.228 . S
Cd100 O99 2.228 . S
Cd100 O104 2.273 . S
Cd100 O108 2.277 . S
O101 C98 1.160 . S
O101 Cd102 2.203 . S
Cd102 O101 2.203 . S
Cd102 O104 2.411 . S
Cd102 O105 2.333 . S
Cd102 O106 2.352 . S
Cd102 O110 2.277 . S
Cd102 O111 2.356 . S
C103 O108 1.209 . S
C103 O110 1.226 . S
O104 Cd100 2.273 . S
O104 Cd102 2.411 . S
O104 C107 1.320 . S
O105 Cd102 2.333 . S
O105 C107 1.214 . S
O106 Cd102 2.352 . S
O106 C109 1.258 . S
C107 O104 1.320 . S
C107 O105 1.214 . S
O108 Cd100 2.277 . S
O108 C103 1.209 . S
C109 O106 1.258 . S
C109 O111 1.282 . S
O110 Cd102 2.277 . S
O110 C103 1.226 . S
O111 Cd102 2.356 . S
O111 C109 1.282 . S
C112 O113 1.306 . S
C112 O115 1.160 . S
O113 C112 1.306 . S
O113 Cd114 2.228 . S
Cd114 O113 2.228 . S
Cd114 O118 2.273 . S
Cd114 O122 2.277 . S
O115 C112 1.160 . S
O115 Cd116 2.203 . S
Cd116 O115 2.203 . S
Cd116 O118 2.411 . S
Cd116 O119 2.333 . S
Cd116 O120 2.352 . S
Cd116 O124 2.277 . S
Cd116 O125 2.356 . S
C117 O122 1.209 . S
C117 O124 1.226 . S
O118 Cd114 2.273 . S
O118 Cd116 2.411 . S
O118 C121 1.320 . S
O119 Cd116 2.333 . S
O119 C121 1.214 . S
O120 Cd116 2.352 . S
O120 C123 1.258 . S
C121 O118 1.320 . S
C121 O119 1.214 . S
O122 Cd114 2.277 . S
O122 C117 1.209 . S
C123 O120 1.258 . S
C123 O125 1.282 . S
O124 Cd116 2.277 . S
O124 C117 1.226 . S
O125 Cd116 2.356 . S
O125 C123 1.282 . S
C126 O127 1.306 . S
C126 O129 1.160 . S
O127 C126 1.306 . S
O127 Cd128 2.228 . S
Cd128 O127 2.228 . S
Cd128 O132 2.273 . S
Cd128 O136 2.277 . S
O129 C126 1.160 . S
O129 Cd130 2.203 . S
Cd130 O129 2.203 . S
Cd130 O132 2.411 . S
Cd130 O133 2.333 . S
Cd130 O134 2.352 . S
Cd130 O138 2.277 . S
Cd130 O139 2.356 . S
C131 O136 1.209 . S
C131 O138 1.226 . S
O132 Cd128 2.273 . S
O132 Cd130 2.411 . S
O132 C135 1.320 . S
O133 Cd130 2.333 . S
O133 C135 1.214 . S
O134 Cd130 2.352 . S
O134 C137 1.258 . S
C135 O132 1.320 . S
C135 O133 1.214 . S
O136 Cd128 2.277 . S
O136 C131 1.209 . S
C137 O134 1.258 . S
C137 O139 1.282 . S
O138 Cd130 2.277 . S
O138 C131 1.226 . S
O139 Cd130 2.356 . S
O139 C137 1.282 . S
C140 O141 1.306 1_554 S
C140 O143 1.160 . S
O141 C140 1.306 1_556 S
O141 Cd142 2.228 . S
Cd142 O141 2.228 . S
Cd142 O146 2.273 . S
Cd142 O150 2.277 . S
O143 C140 1.160 . S
O143 Cd144 2.203 . S
Cd144 O143 2.203 . S
Cd144 O146 2.411 1_554 S
Cd144 O147 2.333 1_554 S
Cd144 O148 2.352 . S
Cd144 O152 2.277 . S
Cd144 O153 2.356 . S
C145 O150 1.209 . S
C145 O152 1.226 1_556 S
O146 Cd142 2.273 . S
O146 Cd144 2.411 1_556 S
O146 C149 1.320 . S
O147 Cd144 2.333 1_556 S
O147 C149 1.214 . S
O148 Cd144 2.352 . S
O148 C151 1.258 . S
C149 O146 1.320 . S
C149 O147 1.214 . S
O150 Cd142 2.277 . S
O150 C145 1.209 . S
C151 O148 1.258 . S
C151 O153 1.282 . S
O152 Cd144 2.277 . S
O152 C145 1.226 1_554 S
O153 Cd144 2.356 . S
O153 C151 1.282 . S
C154 O155 1.306 . S
C154 O157 1.160 . S
O155 C154 1.306 . S
O155 Cd156 2.228 . S
Cd156 O155 2.228 . S
Cd156 O160 2.273 . S
Cd156 O164 2.277 . S
O157 C154 1.160 . S
O157 Cd158 2.203 . S
Cd158 O157 2.203 . S
Cd158 O160 2.411 . S
Cd158 O161 2.333 . S
Cd158 O162 2.352 . S
Cd158 O166 2.277 . S
Cd158 O167 2.356 . S
C159 O164 1.209 . S
C159 O166 1.226 . S
O160 Cd156 2.273 . S
O160 Cd158 2.411 . S
O160 C163 1.320 . S
O161 Cd158 2.333 . S
O161 C163 1.214 . S
O162 Cd158 2.352 . S
O162 C165 1.258 . S
C163 O160 1.320 . S
C163 O161 1.214 . S
O164 Cd156 2.277 . S
O164 C159 1.209 . S
C165 O162 1.258 . S
C165 O167 1.282 . S
O166 Cd158 2.277 . S
O166 C159 1.226 . S
O167 Cd158 2.356 . S
O167 C165 1.282 . S
C168 O169 1.306 . S
C168 O171 1.160 . S
O169 C168 1.306 . S
O169 Cd170 2.228 . S
Cd170 O169 2.228 . S
Cd170 O174 2.273 . S
Cd170 O178 2.277 . S
O171 C168 1.160 . S
O171 Cd172 2.203 . S
Cd172 O171 2.203 . S
Cd172 O174 2.411 . S
Cd172 O175 2.333 . S
Cd172 O176 2.352 . S
Cd172 O180 2.277 . S
Cd172 O181 2.356 . S
C173 O178 1.209 . S
C173 O180 1.226 . S
O174 Cd170 2.273 . S
O174 Cd172 2.411 . S
O174 C177 1.320 . S
O175 Cd172 2.333 . S
O175 C177 1.214 . S
O176 Cd172 2.352 . S
O176 C179 1.258 . S
C177 O174 1.320 . S
C177 O175 1.214 . S
O178 Cd170 2.277 . S
O178 C173 1.209 . S
C179 O176 1.258 . S
C179 O181 1.282 . S
O180 Cd172 2.277 . S
O180 C173 1.226 . S
O181 Cd172 2.356 . S
O181 C179 1.282 . S
C182 O183 1.306 . S
C182 O185 1.160 . S
O183 C182 1.306 . S
O183 Cd184 2.228 . S
Cd184 O183 2.228 . S
Cd184 O188 2.273 . S
Cd184 O192 2.277 1_455 S
O185 C182 1.160 . S
O185 Cd186 2.203 . S
Cd186 O185 2.203 . S
Cd186 O188 2.411 . S
Cd186 O189 2.333 1_455 S
Cd186 O190 2.352 . S
Cd186 O194 2.277 1_455 S
Cd186 O195 2.356 1_455 S
C187 O192 1.209 . S
C187 O194 1.226 . S
O188 Cd184 2.273 . S
O188 Cd186 2.411 . S
O188 C191 1.354 . S
O189 Cd186 2.333 1_655 S
O189 C191 1.186 1_655 S
O190 Cd186 2.352 . S
O190 C193 1.258 . S
C191 O188 1.354 . S
C191 O189 1.186 1_455 S
O192 Cd184 2.277 1_655 S
O192 C187 1.209 . S
C193 O190 1.258 . S
C193 O195 1.282 1_455 S
O194 Cd186 2.277 1_655 S
O194 C187 1.226 . S
O195 Cd186 2.356 1_655 S
O195 C193 1.282 1_655 S
C196 O197 1.306 . S
C196 O199 1.160 . S
O197 C196 1.306 . S
O197 Cd198 2.228 . S
Cd198 O197 2.228 . S
Cd198 O202 2.273 . S
Cd198 O206 2.277 . S
O199 C196 1.160 . S
O199 Cd200 2.203 . S
Cd200 O199 2.203 . S
Cd200 O202 2.411 . S
Cd200 O203 2.333 . S
Cd200 O204 2.352 . S
Cd200 O208 2.277 . S
Cd200 O209 2.356 . S
C201 O206 1.209 . S
C201 O208 1.226 . S
O202 Cd198 2.273 . S
O202 Cd200 2.411 . S
O202 C205 1.320 . S
O203 Cd200 2.333 . S
O203 C205 1.214 . S
O204 Cd200 2.352 . S
O204 C207 1.258 . S
C205 O202 1.320 . S
C205 O203 1.214 . S
O206 Cd198 2.277 . S
O206 C201 1.209 . S
C207 O204 1.258 . S
C207 O209 1.282 . S
O208 Cd200 2.277 . S
O208 C201 1.226 . S
O209 Cd200 2.356 . S
O209 C207 1.282 . S
C210 O211 1.306 . S
C210 O213 1.160 . S
O211 C210 1.306 . S
O211 Cd212 2.228 . S
Cd212 O211 2.228 . S
Cd212 O216 2.273 . S
Cd212 O220 2.277 1_455 S
O213 C210 1.160 . S
O213 Cd214 2.203 . S
Cd214 O213 2.203 . S
Cd214 O216 2.411 . S
Cd214 O217 2.333 1_455 S
Cd214 O218 2.352 . S
Cd214 O222 2.277 1_455 S
Cd214 O223 2.356 1_455 S
C215 O220 1.209 . S
C215 O222 1.226 . S
O216 Cd212 2.273 . S
O216 Cd214 2.411 . S
O216 C219 1.354 . S
O217 Cd214 2.333 1_655 S
O217 C219 1.186 1_655 S
O218 Cd214 2.352 . S
O218 C221 1.258 . S
C219 O216 1.354 . S
C219 O217 1.186 1_455 S
O220 Cd212 2.277 1_655 S
O220 C215 1.209 . S
C221 O218 1.258 . S
C221 O223 1.282 1_455 S
O222 Cd214 2.277 1_655 S
O222 C215 1.226 . S
O223 Cd214 2.356 1_655 S
O223 C221 1.282 1_655 S
H224 C232 0.929 . S
H225 C234 0.930 . S
H226 C236 0.930 . S
H227 C239 0.929 . S
H228 C242 0.930 . S
H229 C244 0.960 . S
H230 C244 0.960 . S
H231 C244 0.960 . S
C232 H224 0.929 . S
C232 C233 1.377 . S
C232 C234 1.384 . S
C233 C232 1.377 . S
C233 C239 1.390 . S
C234 H225 0.930 . S
C234 C232 1.384 . S
C234 C235 1.372 . S
C235 C234 1.372 . S
C235 C236 1.400 . S
C235 C240 1.490 . S
C236 H226 0.930 . S
C236 C235 1.400 . S
C236 C239 1.386 . S
H237 C253 0.930 . S
H238 C254 0.931 . S
C239 H227 0.929 . S
C239 C233 1.390 . S
C239 C236 1.386 . S
C240 C235 1.490 . S
C240 C242 1.395 . S
C240 C243 1.403 . S
H241 C247 0.930 . S
C242 H228 0.930 . S
C242 C240 1.395 . S
C242 C245 1.403 . S
C243 C240 1.403 . S
C243 C244 1.524 . S
C243 C247 1.400 . S
C244 H229 0.960 . S
C244 H230 0.960 . S
C244 H231 0.960 . S
C244 C243 1.524 . S
C245 C242 1.403 . S
C245 C246 1.392 . S
C245 C249 1.495 . S
C246 C245 1.392 . S
C246 C247 1.385 . S
C246 C248 1.478 . S
C247 H241 0.930 . S
C247 C243 1.400 . S
C247 C246 1.385 . S
C248 C246 1.478 . S
C248 C250 1.381 . S
C248 C254 1.383 . S
C249 C245 1.495 . S
C249 H255 0.959 . S
C249 H256 0.961 . S
C249 H257 0.960 . S
C250 C248 1.381 . S
C250 C251 1.394 . S
C250 H258 0.930 . S
C251 C250 1.394 . S
C251 C252 1.383 . S
C251 H259 0.929 . S
C252 C251 1.383 . S
C252 C253 1.377 . S
C253 H237 0.930 . S
C253 C252 1.377 . S
C253 C254 1.379 . S
C254 H238 0.931 . S
C254 C248 1.383 . S
C254 C253 1.379 . S
H255 C249 0.959 . S
H256 C249 0.961 . S
H257 C249 0.960 . S
H258 C250 0.930 . S
H259 C251 0.929 . S
H260 C268 0.929 . S
H261 C270 0.930 . S
H262 C272 0.930 . S
H263 C275 0.929 . S
H264 C278 0.930 . S
H265 C280 0.960 . S
H266 C280 0.960 . S
H267 C280 0.960 . S
C268 H260 0.929 . S
C268 C269 1.377 . S
C268 C270 1.384 . S
C269 C268 1.377 . S
C269 C275 1.390 . S
C270 H261 0.930 . S
C270 C268 1.384 . S
C270 C271 1.372 . S
C271 C270 1.372 . S
C271 C272 1.400 . S
C271 C276 1.490 . S
C272 H262 0.930 . S
C272 C271 1.400 . S
C272 C275 1.386 . S
H273 C289 0.930 . S
H274 C290 0.931 . S
C275 H263 0.929 . S
C275 C269 1.390 . S
C275 C272 1.386 . S
C276 C271 1.490 . S
C276 C278 1.395 . S
C276 C279 1.403 . S
H277 C283 0.930 . S
C278 H264 0.930 . S
C278 C276 1.395 . S
C278 C281 1.403 . S
C279 C276 1.403 . S
C279 C280 1.524 . S
C279 C283 1.400 . S
C280 H265 0.960 . S
C280 H266 0.960 . S
C280 H267 0.960 . S
C280 C279 1.524 . S
C281 C278 1.403 . S
C281 C282 1.392 . S
C281 C285 1.495 . S
C282 C281 1.392 . S
C282 C283 1.385 . S
C282 C284 1.478 . S
C283 H277 0.930 . S
C283 C279 1.400 . S
C283 C282 1.385 . S
C284 C282 1.478 . S
C284 C286 1.381 . S
C284 C290 1.383 . S
C285 C281 1.495 . S
C285 H291 0.959 . S
C285 H292 0.961 . S
C285 H293 0.960 . S
C286 C284 1.381 . S
C286 C287 1.394 . S
C286 H294 0.930 . S
C287 C286 1.394 . S
C287 C288 1.383 . S
C287 H295 0.929 . S
C288 C287 1.383 . S
C288 C289 1.377 . S
C289 H273 0.930 . S
C289 C288 1.377 . S
C289 C290 1.379 . S
C290 H274 0.931 . S
C290 C284 1.383 . S
C290 C289 1.379 . S
H291 C285 0.959 . S
H292 C285 0.961 . S
H293 C285 0.960 . S
H294 C286 0.930 . S
H295 C287 0.929 . S
H296 C304 0.929 . S
H297 C306 0.930 . S
H298 C308 0.930 . S
H299 C311 0.929 . S
H300 C314 0.930 . S
H301 C316 0.960 . S
H302 C316 0.960 . S
H303 C316 0.960 . S
C304 H296 0.929 . S
C304 C305 1.377 . S
C304 C306 1.384 . S
C305 C304 1.377 . S
C305 C311 1.390 . S
C306 H297 0.930 . S
C306 C304 1.384 . S
C306 C307 1.372 . S
C307 C306 1.372 . S
C307 C308 1.400 . S
C307 C312 1.490 . S
C308 H298 0.930 . S
C308 C307 1.400 . S
C308 C311 1.386 . S
H309 C325 0.930 . S
H310 C326 0.931 . S
C311 H299 0.929 . S
C311 C305 1.390 . S
C311 C308 1.386 . S
C312 C307 1.490 . S
C312 C314 1.395 . S
C312 C315 1.403 . S
H313 C319 0.930 . S
C314 H300 0.930 . S
C314 C312 1.395 . S
C314 C317 1.403 . S
C315 C312 1.403 . S
C315 C316 1.524 . S
C315 C319 1.400 . S
C316 H301 0.960 . S
C316 H302 0.960 . S
C316 H303 0.960 . S
C316 C315 1.524 . S
C317 C314 1.403 . S
C317 C318 1.392 . S
C317 C321 1.495 . S
C318 C317 1.392 . S
C318 C319 1.385 . S
C318 C320 1.478 . S
C319 H313 0.930 . S
C319 C315 1.400 . S
C319 C318 1.385 . S
C320 C318 1.478 . S
C320 C322 1.381 . S
C320 C326 1.383 . S
C321 C317 1.495 . S
C321 H327 0.959 . S
C321 H328 0.961 . S
C321 H329 0.960 . S
C322 C320 1.381 . S
C322 C323 1.394 . S
C322 H330 0.930 . S
C323 C322 1.394 . S
C323 C324 1.383 . S
C323 H331 0.929 . S
C324 C323 1.383 . S
C324 C325 1.377 . S
C325 H309 0.930 . S
C325 C324 1.377 . S
C325 C326 1.379 . S
C326 H310 0.931 . S
C326 C320 1.383 . S
C326 C325 1.379 . S
H327 C321 0.959 . S
H328 C321 0.961 . S
H329 C321 0.960 . S
H330 C322 0.930 . S
H331 C323 0.929 . S
H332 C340 0.929 . S
H333 C342 0.930 . S
H334 C344 0.930 1_554 S
H335 C347 0.929 1_554 S
H336 C350 0.930 . S
H337 C352 0.960 . S
H338 C352 0.960 . S
H339 C352 0.960 . S
C340 H332 0.929 . S
C340 C341 1.377 . S
C340 C342 1.384 . S
C341 C340 1.377 . S
C341 C347 1.390 . S
C342 H333 0.930 . S
C342 C340 1.384 . S
C342 C343 1.372 . S
C343 C342 1.372 . S
C343 C344 1.400 . S
C343 C348 1.490 . S
C344 H334 0.930 1_556 S
C344 C343 1.400 . S
C344 C347 1.386 . S
H345 C361 0.930 . S
H346 C362 0.931 . S
C347 H335 0.929 1_556 S
C347 C341 1.390 . S
C347 C344 1.386 . S
C348 C343 1.490 . S
C348 C350 1.395 . S
C348 C351 1.403 . S
H349 C355 0.930 . S
C350 H336 0.930 . S
C350 C348 1.395 . S
C350 C353 1.403 . S
C351 C348 1.403 . S
C351 C352 1.524 1_556 S
C351 C355 1.400 . S
C352 H337 0.960 . S
C352 H338 0.960 . S
C352 H339 0.960 . S
C352 C351 1.524 1_554 S
C353 C350 1.403 . S
C353 C354 1.392 . S
C353 C357 1.495 . S
C354 C353 1.392 . S
C354 C355 1.385 . S
C354 C356 1.478 . S
C355 H349 0.930 . S
C355 C351 1.400 . S
C355 C354 1.385 . S
C356 C354 1.478 . S
C356 C358 1.381 . S
C356 C362 1.383 . S
C357 C353 1.495 . S
C357 H363 0.959 . S
C357 H364 0.961 . S
C357 H365 0.960 . S
C358 C356 1.381 . S
C358 C359 1.394 . S
C358 H366 0.930 . S
C359 C358 1.394 . S
C359 C360 1.383 . S
C359 H367 0.929 . S
C360 C359 1.383 . S
C360 C361 1.377 . S
C361 H345 0.930 . S
C361 C360 1.377 . S
C361 C362 1.379 . S
C362 H346 0.931 . S
C362 C356 1.383 . S
C362 C361 1.379 . S
H363 C357 0.959 . S
H364 C357 0.961 . S
H365 C357 0.960 . S
H366 C358 0.930 . S
H367 C359 0.929 . S
H368 C376 0.929 . S
H369 C378 0.930 . S
H370 C380 0.930 . S
H371 C383 0.929 . S
H372 C386 0.930 . S
H373 C388 0.960 . S
H374 C388 0.960 . S
H375 C388 0.960 . S
C376 H368 0.929 . S
C376 C377 1.377 . S
C376 C378 1.384 . S
C377 C376 1.377 . S
C377 C383 1.390 . S
C378 H369 0.930 . S
C378 C376 1.384 . S
C378 C379 1.372 . S
C379 C378 1.372 . S
C379 C380 1.400 . S
C379 C384 1.490 . S
C380 H370 0.930 . S
C380 C379 1.400 . S
C380 C383 1.386 . S
H381 C397 0.930 . S
H382 C398 0.931 . S
C383 H371 0.929 . S
C383 C377 1.390 . S
C383 C380 1.386 . S
C384 C379 1.490 . S
C384 C386 1.395 . S
C384 C387 1.403 . S
H385 C391 0.930 . S
C386 H372 0.930 . S
C386 C384 1.395 . S
C386 C389 1.403 . S
C387 C384 1.403 . S
C387 C388 1.524 . S
C387 C391 1.400 . S
C388 H373 0.960 . S
C388 H374 0.960 . S
C388 H375 0.960 . S
C388 C387 1.524 . S
C389 C386 1.403 . S
C389 C390 1.392 . S
C389 C393 1.495 . S
C390 C389 1.392 . S
C390 C391 1.385 . S
C390 C392 1.478 . S
C391 H385 0.930 . S
C391 C387 1.400 . S
C391 C390 1.385 . S
C392 C390 1.478 . S
C392 C394 1.381 . S
C392 C398 1.383 . S
C393 C389 1.495 . S
C393 H399 0.959 . S
C393 H400 0.961 . S
C393 H401 0.960 . S
C394 C392 1.381 . S
C394 C395 1.394 . S
C394 H402 0.930 . S
C395 C394 1.394 . S
C395 C396 1.383 . S
C395 H403 0.929 1_556 S
C396 C395 1.383 . S
C396 C397 1.377 . S
C397 H381 0.930 . S
C397 C396 1.377 . S
C397 C398 1.379 . S
C398 H382 0.931 . S
C398 C392 1.383 . S
C398 C397 1.379 . S
H399 C393 0.959 . S
H400 C393 0.961 . S
H401 C393 0.960 . S
H402 C394 0.930 . S
H403 C395 0.929 1_554 S
H404 C412 0.929 . S
H405 C414 0.930 . S
H406 C416 0.930 . S
H407 C419 0.929 . S
H408 C422 0.930 . S
H409 C424 0.960 . S
H410 C424 0.960 . S
H411 C424 0.960 . S
C412 H404 0.929 . S
C412 C413 1.377 . S
C412 C414 1.384 . S
C413 C412 1.377 . S
C413 C419 1.390 . S
C414 H405 0.930 . S
C414 C412 1.384 . S
C414 C415 1.372 . S
C415 C414 1.372 . S
C415 C416 1.400 . S
C415 C420 1.490 . S
C416 H406 0.930 . S
C416 C415 1.400 . S
C416 C419 1.386 . S
H417 C433 0.930 . S
H418 C434 0.931 . S
C419 H407 0.929 . S
C419 C413 1.390 . S
C419 C416 1.386 . S
C420 C415 1.490 . S
C420 C422 1.395 . S
C420 C423 1.403 . S
H421 C427 0.930 . S
C422 H408 0.930 . S
C422 C420 1.395 . S
C422 C425 1.403 . S
C423 C420 1.403 . S
C423 C424 1.524 . S
C423 C427 1.400 . S
C424 H409 0.960 . S
C424 H410 0.960 . S
C424 H411 0.960 . S
C424 C423 1.524 . S
C425 C422 1.403 . S
C425 C426 1.392 . S
C425 C429 1.495 . S
C426 C425 1.392 . S
C426 C427 1.385 . S
C426 C428 1.478 . S
C427 H421 0.930 . S
C427 C423 1.400 . S
C427 C426 1.385 . S
C428 C426 1.478 . S
C428 C430 1.381 . S
C428 C434 1.383 . S
C429 C425 1.495 . S
C429 H435 0.959 . S
C429 H436 0.961 . S
C429 H437 0.960 . S
C430 C428 1.381 . S
C430 C431 1.394 . S
C430 H438 0.930 . S
C431 C430 1.394 . S
C431 C432 1.383 . S
C431 H439 0.929 . S
C432 C431 1.383 . S
C432 C433 1.377 . S
C433 H417 0.930 . S
C433 C432 1.377 . S
C433 C434 1.379 . S
C434 H418 0.931 . S
C434 C428 1.383 . S
C434 C433 1.379 . S
H435 C429 0.959 . S
H436 C429 0.961 . S
H437 C429 0.960 . S
H438 C430 0.930 . S
H439 C431 0.929 . S
H440 C448 0.929 . S
H441 C450 0.930 . S
H442 C452 0.930 . S
H443 C455 0.929 . S
H444 C458 0.930 . S
H445 C460 0.960 . S
H446 C460 0.960 . S
H447 C460 0.960 . S
C448 H440 0.929 . S
C448 C449 1.377 . S
C448 C450 1.384 . S
C449 C448 1.377 . S
C449 C455 1.390 . S
C450 H441 0.930 . S
C450 C448 1.384 . S
C450 C451 1.372 . S
C451 C450 1.372 . S
C451 C452 1.400 . S
C451 C456 1.490 . S
C452 H442 0.930 . S
C452 C451 1.400 . S
C452 C455 1.386 . S
H453 C469 0.930 . S
H454 C470 0.931 . S
C455 H443 0.929 . S
C455 C449 1.390 . S
C455 C452 1.386 . S
C456 C451 1.490 . S
C456 C458 1.395 . S
C456 C459 1.403 . S
H457 C463 0.930 . S
C458 H444 0.930 . S
C458 C456 1.395 . S
C458 C461 1.403 . S
C459 C456 1.403 . S
C459 C460 1.524 . S
C459 C463 1.400 . S
C460 H445 0.960 . S
C460 H446 0.960 . S
C460 H447 0.960 . S
C460 C459 1.524 . S
C461 C458 1.403 . S
C461 C462 1.392 . S
C461 C465 1.495 . S
C462 C461 1.392 . S
C462 C463 1.385 . S
C462 C464 1.478 . S
C463 H457 0.930 . S
C463 C459 1.400 . S
C463 C462 1.385 . S
C464 C462 1.478 . S
C464 C466 1.381 . S
C464 C470 1.383 . S
C465 C461 1.495 . S
C465 H471 0.959 . S
C465 H472 0.961 . S
C465 H473 0.960 . S
C466 C464 1.381 . S
C466 C467 1.394 . S
C466 H474 0.930 . S
C467 C466 1.394 . S
C467 C468 1.383 . S
C467 H475 0.929 . S
C468 C467 1.383 . S
C468 C469 1.377 . S
C469 H453 0.930 . S
C469 C468 1.377 . S
C469 C470 1.379 . S
C470 H454 0.931 . S
C470 C464 1.383 . S
C470 C469 1.379 . S
H471 C465 0.959 . S
H472 C465 0.961 . S
H473 C465 0.960 . S
H474 C466 0.930 . S
H475 C467 0.929 . S
H476 C484 0.929 . S
H477 C486 0.930 . S
H478 C488 0.930 . S
H479 C491 0.929 . S
H480 C494 0.930 . S
H481 C496 0.960 . S
H482 C496 0.960 . S
H483 C496 0.960 . S
C484 H476 0.929 . S
C484 C485 1.377 . S
C484 C486 1.384 . S
C485 C484 1.377 . S
C485 C491 1.390 . S
C486 H477 0.930 . S
C486 C484 1.384 . S
C486 C487 1.372 . S
C487 C486 1.372 . S
C487 C488 1.400 . S
C487 C492 1.490 . S
C488 H478 0.930 . S
C488 C487 1.400 . S
C488 C491 1.386 . S
H489 C505 0.930 . S
H490 C506 0.931 . S
C491 H479 0.929 . S
C491 C485 1.390 . S
C491 C488 1.386 . S
C492 C487 1.490 . S
C492 C494 1.395 . S
C492 C495 1.403 . S
H493 C499 0.930 . S
C494 H480 0.930 . S
C494 C492 1.395 . S
C494 C497 1.403 . S
C495 C492 1.403 . S
C495 C496 1.524 . S
C495 C499 1.400 . S
C496 H481 0.960 . S
C496 H482 0.960 . S
C496 H483 0.960 . S
C496 C495 1.524 . S
C497 C494 1.403 . S
C497 C498 1.392 . S
C497 C501 1.495 . S
C498 C497 1.392 . S
C498 C499 1.385 . S
C498 C500 1.478 . S
C499 H493 0.930 . S
C499 C495 1.400 . S
C499 C498 1.385 . S
C500 C498 1.478 . S
C500 C502 1.381 . S
C500 C506 1.383 . S
C501 C497 1.495 . S
C501 H507 0.959 . S
C501 H508 0.961 . S
C501 H509 0.960 . S
C502 C500 1.381 . S
C502 C503 1.394 . S
C502 H510 0.930 . S
C503 C502 1.394 . S
C503 C504 1.383 . S
C503 H511 0.929 . S
C504 C503 1.383 . S
C504 C505 1.377 . S
C505 H489 0.930 . S
C505 C504 1.377 . S
C505 C506 1.379 . S
C506 H490 0.931 . S
C506 C500 1.383 . S
C506 C505 1.379 . S
H507 C501 0.959 . S
H508 C501 0.961 . S
H509 C501 0.960 . S
H510 C502 0.930 . S
H511 C503 0.929 . S
H512 C520 0.929 . S
H513 C522 0.930 . S
H514 C524 0.930 . S
H515 C527 0.929 . S
H516 C530 0.930 . S
H517 C532 0.960 1_554 S
H518 C532 0.960 . S
H519 C532 0.960 . S
C520 H512 0.929 . S
C520 C521 1.377 . S
C520 C522 1.384 . S
C521 C520 1.377 . S
C521 C527 1.390 . S
C522 H513 0.930 . S
C522 C520 1.384 . S
C522 C523 1.372 . S
C523 C522 1.372 . S
C523 C524 1.400 . S
C523 C528 1.490 . S
C524 H514 0.930 . S
C524 C523 1.400 . S
C524 C527 1.386 . S
H525 C541 0.930 . S
H526 C542 0.931 1_554 S
C527 H515 0.929 . S
C527 C521 1.390 . S
C527 C524 1.386 . S
C528 C523 1.490 . S
C528 C530 1.395 . S
C528 C531 1.403 . S
H529 C535 0.930 1_554 S
C530 H516 0.930 . S
C530 C528 1.395 . S
C530 C533 1.403 . S
C531 C528 1.403 . S
C531 C532 1.524 . S
C531 C535 1.400 . S
C532 H517 0.960 1_556 S
C532 H518 0.960 . S
C532 H519 0.960 . S
C532 C531 1.524 . S
C533 C530 1.403 . S
C533 C534 1.392 . S
C533 C537 1.495 . S
C534 C533 1.392 . S
C534 C535 1.385 . S
C534 C536 1.478 . S
C535 H529 0.930 1_556 S
C535 C531 1.400 . S
C535 C534 1.385 . S
C536 C534 1.478 . S
C536 C538 1.381 . S
C536 C542 1.383 . S
C537 C533 1.495 . S
C537 H543 0.959 . S
C537 H544 0.961 . S
C537 H545 0.960 . S
C538 C536 1.381 . S
C538 C539 1.394 . S
C538 H546 0.930 . S
C539 C538 1.394 . S
C539 C540 1.383 . S
C539 H547 0.929 . S
C540 C539 1.383 . S
C540 C541 1.377 1_556 S
C541 H525 0.930 . S
C541 C540 1.377 1_554 S
C541 C542 1.379 1_554 S
C542 H526 0.931 1_556 S
C542 C536 1.383 . S
C542 C541 1.379 1_556 S
H543 C537 0.959 . S
H544 C537 0.961 . S
H545 C537 0.960 . S
H546 C538 0.930 . S
H547 C539 0.929 . S
H548 C556 0.929 . S
H549 C558 0.930 . S
H550 C560 0.930 . S
H551 C563 0.929 . S
H552 C566 0.930 . S
H553 C568 0.960 . S
H554 C568 0.960 . S
H555 C568 0.960 . S
C556 H548 0.929 . S
C556 C557 1.377 . S
C556 C558 1.384 . S
C557 C556 1.377 . S
C557 C563 1.390 . S
C558 H549 0.930 . S
C558 C556 1.384 . S
C558 C559 1.372 . S
C559 C558 1.372 . S
C559 C560 1.400 . S
C559 C564 1.490 . S
C560 H550 0.930 . S
C560 C559 1.400 . S
C560 C563 1.386 . S
H561 C577 0.930 . S
H562 C578 0.931 . S
C563 H551 0.929 . S
C563 C557 1.390 . S
C563 C560 1.386 . S
C564 C559 1.490 . S
C564 C566 1.395 . S
C564 C567 1.403 . S
H565 C571 0.930 . S
C566 H552 0.930 . S
C566 C564 1.395 . S
C566 C569 1.403 . S
C567 C564 1.403 . S
C567 C568 1.524 . S
C567 C571 1.400 . S
C568 H553 0.960 . S
C568 H554 0.960 . S
C568 H555 0.960 . S
C568 C567 1.524 . S
C569 C566 1.403 . S
C569 C570 1.392 . S
C569 C573 1.495 . S
C570 C569 1.392 . S
C570 C571 1.385 . S
C570 C572 1.478 . S
C571 H565 0.930 . S
C571 C567 1.400 . S
C571 C570 1.385 . S
C572 C570 1.478 . S
C572 C574 1.381 . S
C572 C578 1.383 . S
C573 C569 1.495 . S
C573 H579 0.959 . S
C573 H580 0.961 . S
C573 H581 0.960 . S
C574 C572 1.381 . S
C574 C575 1.394 . S
C574 H582 0.930 . S
C575 C574 1.394 . S
C575 C576 1.383 . S
C575 H583 0.929 . S
C576 C575 1.383 . S
C576 C577 1.377 . S
C577 H561 0.930 . S
C577 C576 1.377 . S
C577 C578 1.379 . S
C578 H562 0.931 . S
C578 C572 1.383 . S
C578 C577 1.379 . S
H579 C573 0.959 . S
H580 C573 0.961 . S
H581 C573 0.960 . S
H582 C574 0.930 . S
H583 C575 0.929 . S
H584 C592 0.929 . S
H585 C594 0.930 . S
H586 C596 0.930 . S
H587 C599 0.929 . S
H588 C602 0.930 . S
H589 C604 0.960 . S
H590 C604 0.960 . S
H591 C604 0.960 . S
C592 H584 0.929 . S
C592 C593 1.377 . S
C592 C594 1.384 . S
C593 C592 1.377 . S
C593 C599 1.390 . S
C594 H585 0.930 . S
C594 C592 1.384 . S
C594 C595 1.372 . S
C595 C594 1.372 . S
C595 C596 1.400 . S
C595 C600 1.490 . S
C596 H586 0.930 . S
C596 C595 1.400 . S
C596 C599 1.386 . S
H597 C613 0.930 . S
H598 C614 0.931 . S
C599 H587 0.929 . S
C599 C593 1.390 . S
C599 C596 1.386 . S
C600 C595 1.490 . S
C600 C602 1.395 . S
C600 C603 1.403 . S
H601 C607 0.930 . S
C602 H588 0.930 . S
C602 C600 1.395 . S
C602 C605 1.403 . S
C603 C600 1.403 . S
C603 C604 1.524 . S
C603 C607 1.400 . S
C604 H589 0.960 . S
C604 H590 0.960 . S
C604 H591 0.960 . S
C604 C603 1.524 . S
C605 C602 1.403 . S
C605 C606 1.392 . S
C605 C609 1.495 . S
C606 C605 1.392 . S
C606 C607 1.385 . S
C606 C608 1.478 . S
C607 H601 0.930 . S
C607 C603 1.400 . S
C607 C606 1.385 . S
C608 C606 1.478 . S
C608 C610 1.381 . S
C608 C614 1.383 . S
C609 C605 1.495 . S
C609 H615 0.959 . S
C609 H616 0.961 . S
C609 H617 0.960 . S
C610 C608 1.381 . S
C610 C611 1.394 . S
C610 H618 0.930 . S
C611 C610 1.394 . S
C611 C612 1.383 . S
C611 H619 0.929 . S
C612 C611 1.383 . S
C612 C613 1.377 . S
C613 H597 0.930 . S
C613 C612 1.377 . S
C613 C614 1.379 . S
C614 H598 0.931 . S
C614 C608 1.383 . S
C614 C613 1.379 . S
H615 C609 0.959 . S
H616 C609 0.961 . S
H617 C609 0.960 . S
H618 C610 0.930 . S
H619 C611 0.929 . S
H620 C628 0.929 . S
H621 C630 0.930 . S
H622 C632 0.930 . S
H623 C635 0.929 . S
H624 C638 0.930 . S
H625 C640 0.960 . S
H626 C640 0.960 . S
H627 C640 0.960 . S
C628 H620 0.929 . S
C628 C629 1.377 . S
C628 C630 1.384 . S
C629 C628 1.377 . S
C629 C635 1.390 . S
C630 H621 0.930 . S
C630 C628 1.384 . S
C630 C631 1.372 . S
C631 C630 1.372 . S
C631 C632 1.400 . S
C631 C636 1.490 . S
C632 H622 0.930 . S
C632 C631 1.400 . S
C632 C635 1.386 . S
H633 C649 0.930 . S
H634 C650 0.931 . S
C635 H623 0.929 . S
C635 C629 1.390 . S
C635 C632 1.386 . S
C636 C631 1.490 . S
C636 C638 1.395 . S
C636 C639 1.403 . S
H637 C643 0.930 . S
C638 H624 0.930 . S
C638 C636 1.395 . S
C638 C641 1.403 . S
C639 C636 1.403 . S
C639 C640 1.524 . S
C639 C643 1.400 . S
C640 H625 0.960 . S
C640 H626 0.960 . S
C640 H627 0.960 . S
C640 C639 1.524 . S
C641 C638 1.403 . S
C641 C642 1.392 . S
C641 C645 1.495 . S
C642 C641 1.392 . S
C642 C643 1.385 . S
C642 C644 1.478 . S
C643 H637 0.930 . S
C643 C639 1.400 . S
C643 C642 1.385 . S
C644 C642 1.478 . S
C644 C646 1.381 . S
C644 C650 1.383 . S
C645 C641 1.495 . S
C645 H651 0.959 . S
C645 H652 0.961 . S
C645 H653 0.960 . S
C646 C644 1.381 . S
C646 C647 1.394 . S
C646 H654 0.930 . S
C647 C646 1.394 . S
C647 C648 1.383 . S
C647 H655 0.929 . S
C648 C647 1.383 . S
C648 C649 1.377 . S
C649 H633 0.930 . S
C649 C648 1.377 . S
C649 C650 1.379 . S
C650 H634 0.931 . S
C650 C644 1.383 . S
C650 C649 1.379 . S
H651 C645 0.959 . S
H652 C645 0.961 . S
H653 C645 0.960 . S
H654 C646 0.930 . S
H655 C647 0.929 . S
H656 C664 0.929 . S
H657 C666 0.930 . S
H658 C668 0.930 . S
H659 C671 0.929 . S
H660 C674 0.930 . S
H661 C676 0.960 . S
H662 C676 0.960 . S
H663 C676 0.960 . S
C664 H656 0.929 . S
C664 C665 1.377 . S
C664 C666 1.384 . S
C665 C664 1.377 . S
C665 C671 1.390 . S
C666 H657 0.930 . S
C666 C664 1.384 . S
C666 C667 1.372 . S
C667 C666 1.372 . S
C667 C668 1.400 . S
C667 C672 1.490 . S
C668 H658 0.930 . S
C668 C667 1.400 . S
C668 C671 1.386 . S
H669 C685 0.930 . S
H670 C686 0.931 . S
C671 H659 0.929 . S
C671 C665 1.390 . S
C671 C668 1.386 . S
C672 C667 1.490 . S
C672 C674 1.395 . S
C672 C675 1.403 . S
H673 C679 0.930 . S
C674 H660 0.930 . S
C674 C672 1.395 . S
C674 C677 1.403 . S
C675 C672 1.403 . S
C675 C676 1.524 . S
C675 C679 1.400 . S
C676 H661 0.960 . S
C676 H662 0.960 . S
C676 H663 0.960 . S
C676 C675 1.524 . S
C677 C674 1.403 . S
C677 C678 1.392 . S
C677 C681 1.495 . S
C678 C677 1.392 . S
C678 C679 1.385 . S
C678 C680 1.478 . S
C679 H673 0.930 . S
C679 C675 1.400 . S
C679 C678 1.385 . S
C680 C678 1.478 . S
C680 C682 1.381 . S
C680 C686 1.383 . S
C681 C677 1.495 . S
C681 H687 0.959 . S
C681 H688 0.961 . S
C681 H689 0.960 . S
C682 C680 1.381 . S
C682 C683 1.394 . S
C682 H690 0.930 . S
C683 C682 1.394 . S
C683 C684 1.383 . S
C683 H691 0.929 . S
C684 C683 1.383 . S
C684 C685 1.377 . S
C685 H669 0.930 . S
C685 C684 1.377 . S
C685 C686 1.379 . S
C686 H670 0.931 . S
C686 C680 1.383 . S
C686 C685 1.379 . S
H687 C681 0.959 . S
H688 C681 0.961 . S
H689 C681 0.960 . S
H690 C682 0.930 . S
H691 C683 0.929 . S
H692 C700 0.929 . S
H693 C702 0.930 . S
H694 C704 0.930 . S
H695 C707 0.929 . S
H696 C710 0.930 . S
H697 C712 0.960 . S
H698 C712 0.960 . S
H699 C712 0.960 . S
C700 H692 0.929 . S
C700 C701 1.377 . S
C700 C702 1.384 . S
C701 C700 1.377 . S
C701 C707 1.390 . S
C702 H693 0.930 . S
C702 C700 1.384 . S
C702 C703 1.372 . S
C703 C702 1.372 . S
C703 C704 1.400 . S
C703 C708 1.490 . S
C704 H694 0.930 . S
C704 C703 1.400 . S
C704 C707 1.386 . S
H705 C721 0.930 . S
H706 C722 0.931 . S
C707 H695 0.929 . S
C707 C701 1.390 . S
C707 C704 1.386 . S
C708 C703 1.490 . S
C708 C710 1.395 . S
C708 C711 1.403 . S
H709 C715 0.930 . S
C710 H696 0.930 . S
C710 C708 1.395 . S
C710 C713 1.403 . S
C711 C708 1.403 . S
C711 C712 1.524 . S
C711 C715 1.400 . S
C712 H697 0.960 . S
C712 H698 0.960 . S
C712 H699 0.960 . S
C712 C711 1.524 . S
C713 C710 1.403 . S
C713 C714 1.392 . S
C713 C717 1.495 . S
C714 C713 1.392 . S
C714 C715 1.385 . S
C714 C716 1.478 . S
C715 H709 0.930 . S
C715 C711 1.400 . S
C715 C714 1.385 . S
C716 C714 1.478 . S
C716 C718 1.381 . S
C716 C722 1.383 1_556 S
C717 C713 1.495 . S
C717 H723 0.959 . S
C717 H724 0.961 . S
C717 H725 0.960 . S
C718 C716 1.381 . S
C718 C719 1.394 . S
C718 H726 0.930 . S
C719 C718 1.394 . S
C719 C720 1.383 1_556 S
C719 H727 0.929 . S
C720 C719 1.383 1_554 S
C720 C721 1.377 . S
C721 H705 0.930 . S
C721 C720 1.377 . S
C721 C722 1.379 . S
C722 H706 0.931 . S
C722 C716 1.383 1_554 S
C722 C721 1.379 . S
H723 C717 0.959 . S
H724 C717 0.961 . S
H725 C717 0.960 . S
H726 C718 0.930 . S
H727 C719 0.929 . S
H728 C736 0.929 . S
H729 C738 0.930 . S
H730 C740 0.930 . S
H731 C743 0.929 . S
H732 C746 0.930 . S
H733 C748 0.960 . S
H734 C748 0.960 . S
H735 C748 0.960 . S
C736 H728 0.929 . S
C736 C737 1.377 . S
C736 C738 1.384 . S
C737 C736 1.377 . S
C737 C743 1.390 . S
C738 H729 0.930 . S
C738 C736 1.384 . S
C738 C739 1.372 . S
C739 C738 1.372 . S
C739 C740 1.400 . S
C739 C744 1.490 . S
C740 H730 0.930 . S
C740 C739 1.400 . S
C740 C743 1.386 . S
H741 C757 0.930 . S
H742 C758 0.931 . S
C743 H731 0.929 . S
C743 C737 1.390 . S
C743 C740 1.386 . S
C744 C739 1.490 . S
C744 C746 1.395 . S
C744 C747 1.403 . S
H745 C751 0.930 . S
C746 H732 0.930 . S
C746 C744 1.395 . S
C746 C749 1.403 . S
C747 C744 1.403 . S
C747 C748 1.524 . S
C747 C751 1.400 . S
C748 H733 0.960 . S
C748 H734 0.960 . S
C748 H735 0.960 . S
C748 C747 1.524 . S
C749 C746 1.403 . S
C749 C750 1.392 . S
C749 C753 1.495 . S
C750 C749 1.392 . S
C750 C751 1.385 . S
C750 C752 1.478 . S
C751 H745 0.930 . S
C751 C747 1.400 . S
C751 C750 1.385 . S
C752 C750 1.478 . S
C752 C754 1.381 . S
C752 C758 1.383 . S
C753 C749 1.495 . S
C753 H759 0.959 . S
C753 H760 0.961 . S
C753 H761 0.960 . S
C754 C752 1.381 . S
C754 C755 1.394 . S
C754 H762 0.930 . S
C755 C754 1.394 . S
C755 C756 1.383 . S
C755 H763 0.929 . S
C756 C755 1.383 . S
C756 C757 1.377 . S
C757 H741 0.930 . S
C757 C756 1.377 . S
C757 C758 1.379 . S
C758 H742 0.931 . S
C758 C752 1.383 . S
C758 C757 1.379 . S
H759 C753 0.959 . S
H760 C753 0.961 . S
H761 C753 0.960 . S
H762 C754 0.930 . S
H763 C755 0.929 . S
H764 C772 0.929 . S
H765 C774 0.930 . S
H766 C776 0.930 . S
H767 C779 0.929 . S
H768 C782 0.930 . S
H769 C784 0.960 . S
H770 C784 0.960 . S
H771 C784 0.960 . S
C772 H764 0.929 . S
C772 C773 1.377 . S
C772 C774 1.384 . S
C773 C772 1.377 . S
C773 C779 1.390 . S
C774 H765 0.930 . S
C774 C772 1.384 . S
C774 C775 1.372 . S
C775 C774 1.372 . S
C775 C776 1.400 . S
C775 C780 1.490 . S
C776 H766 0.930 . S
C776 C775 1.400 . S
C776 C779 1.386 . S
H777 C793 0.930 . S
H778 C794 0.931 . S
C779 H767 0.929 . S
C779 C773 1.390 . S
C779 C776 1.386 . S
C780 C775 1.490 . S
C780 C782 1.395 . S
C780 C783 1.403 . S
H781 C787 0.930 . S
C782 H768 0.930 . S
C782 C780 1.395 . S
C782 C785 1.403 . S
C783 C780 1.403 . S
C783 C784 1.524 . S
C783 C787 1.400 . S
C784 H769 0.960 . S
C784 H770 0.960 . S
C784 H771 0.960 . S
C784 C783 1.524 . S
C785 C782 1.403 . S
C785 C786 1.392 . S
C785 C789 1.495 . S
C786 C785 1.392 . S
C786 C787 1.385 . S
C786 C788 1.478 . S
C787 H781 0.930 . S
C787 C783 1.400 . S
C787 C786 1.385 . S
C788 C786 1.478 . S
C788 C790 1.381 . S
C788 C794 1.383 . S
C789 C785 1.495 . S
C789 H795 0.959 . S
C789 H796 0.961 . S
C789 H797 0.960 . S
C790 C788 1.381 . S
C790 C791 1.394 . S
C790 H798 0.930 . S
C791 C790 1.394 . S
C791 C792 1.383 . S
C791 H799 0.929 . S
C792 C791 1.383 . S
C792 C793 1.377 . S
C793 H777 0.930 . S
C793 C792 1.377 . S
C793 C794 1.379 . S
C794 H778 0.931 . S
C794 C788 1.383 . S
C794 C793 1.379 . S
H795 C789 0.959 . S
H796 C789 0.961 . S
H797 C789 0.960 . S
H798 C790 0.930 . S
H799 C791 0.929 . S
H800 C808 0.929 . S
H801 C810 0.930 . S
H802 C812 0.930 . S
H803 C815 0.929 . S
H804 C818 0.902 1_655 S
H805 C820 0.960 . S
H806 C820 0.960 . S
H807 C820 0.960 . S
C808 H800 0.929 . S
C808 C809 1.377 1_655 S
C808 C810 1.384 . S
C809 C808 1.377 1_455 S
C809 C815 1.390 . S
C810 H801 0.930 . S
C810 C808 1.384 . S
C810 C811 1.372 1_655 S
C811 C810 1.372 1_455 S
C811 C812 1.400 . S
C811 C816 1.490 . S
C812 H802 0.930 . S
C812 C811 1.400 . S
C812 C815 1.386 . S
H813 C829 0.930 . S
H814 C830 0.931 . S
C815 H803 0.929 . S
C815 C809 1.390 . S
C815 C812 1.386 . S
C816 C811 1.490 . S
C816 C818 1.426 . S
C816 C819 1.403 . S
H817 C823 0.930 . S
C818 H804 0.902 1_455 S
C818 C816 1.426 . S
C818 C821 1.402 . S
C819 C816 1.403 . S
C819 C820 1.524 . S
C819 C823 1.400 . S
C820 H805 0.960 . S
C820 H806 0.960 . S
C820 H807 0.960 . S
C820 C819 1.524 . S
C821 C818 1.402 . S
C821 C822 1.390 . S
C821 C825 1.498 1_454 S
C822 C821 1.390 . S
C822 C823 1.385 . S
C822 C824 1.478 1_554 S
C823 H817 0.930 . S
C823 C819 1.400 . S
C823 C822 1.385 . S
C824 C822 1.478 1_556 S
C824 C826 1.381 1_455 S
C824 C830 1.383 . S
C825 C821 1.498 1_656 S
C825 H831 0.959 . S
C825 H832 0.961 . S
C825 H833 0.960 . S
C826 C824 1.381 1_655 S
C826 C827 1.394 . S
C826 H834 0.930 . S
C827 C826 1.394 . S
C827 C828 1.383 1_655 S
C827 H835 0.929 . S
C828 C827 1.383 1_455 S
C828 C829 1.377 . S
C829 H813 0.930 . S
C829 C828 1.377 . S
C829 C830 1.379 . S
C830 H814 0.931 . S
C830 C824 1.383 . S
C830 C829 1.379 . S
H831 C825 0.959 . S
H832 C825 0.961 . S
H833 C825 0.960 . S
H834 C826 0.930 . S
H835 C827 0.929 . S
H836 C844 0.929 . S
H837 C846 0.930 . S
H838 C848 0.930 . S
H839 C851 0.929 . S
H840 C854 0.930 . S
H841 C856 0.960 . S
H842 C856 0.960 . S
H843 C856 0.960 . S
C844 H836 0.929 . S
C844 C845 1.377 . S
C844 C846 1.384 . S
C845 C844 1.377 . S
C845 C851 1.390 . S
C846 H837 0.930 . S
C846 C844 1.384 . S
C846 C847 1.372 . S
C847 C846 1.372 . S
C847 C848 1.400 . S
C847 C852 1.490 . S
C848 H838 0.930 . S
C848 C847 1.400 . S
C848 C851 1.386 . S
H849 C865 0.930 . S
H850 C866 0.931 . S
C851 H839 0.929 . S
C851 C845 1.390 . S
C851 C848 1.386 . S
C852 C847 1.490 . S
C852 C854 1.395 . S
C852 C855 1.403 . S
H853 C859 0.930 . S
C854 H840 0.930 . S
C854 C852 1.395 . S
C854 C857 1.403 . S
C855 C852 1.403 . S
C855 C856 1.524 . S
C855 C859 1.400 . S
C856 H841 0.960 . S
C856 H842 0.960 . S
C856 H843 0.960 . S
C856 C855 1.524 . S
C857 C854 1.403 . S
C857 C858 1.392 . S
C857 C861 1.495 . S
C858 C857 1.392 . S
C858 C859 1.385 . S
C858 C860 1.478 . S
C859 H853 0.930 . S
C859 C855 1.400 . S
C859 C858 1.385 . S
C860 C858 1.478 . S
C860 C862 1.381 . S
C860 C866 1.383 . S
C861 C857 1.495 . S
C861 H867 0.959 . S
C861 H868 0.961 . S
C861 H869 0.960 . S
C862 C860 1.381 . S
C862 C863 1.394 . S
C862 H870 0.930 . S
C863 C862 1.394 . S
C863 C864 1.383 . S
C863 H871 0.929 . S
C864 C863 1.383 . S
C864 C865 1.377 . S
C865 H849 0.930 . S
C865 C864 1.377 . S
C865 C866 1.379 . S
C866 H850 0.931 . S
C866 C860 1.383 . S
C866 C865 1.379 . S
H867 C861 0.959 . S
H868 C861 0.961 . S
H869 C861 0.960 . S
H870 C862 0.930 . S
H871 C863 0.929 . S
H872 C880 0.929 . S
H873 C882 0.930 . S
H874 C884 0.930 . S
H875 C887 0.929 . S
H876 C890 0.930 . S
H877 C892 0.960 . S
H878 C892 0.960 . S
H879 C892 0.960 . S
C880 H872 0.929 . S
C880 C881 1.377 . S
C880 C882 1.384 . S
C881 C880 1.377 . S
C881 C887 1.390 . S
C882 H873 0.930 . S
C882 C880 1.384 . S
C882 C883 1.372 . S
C883 C882 1.372 . S
C883 C884 1.400 . S
C883 C888 1.490 . S
C884 H874 0.930 . S
C884 C883 1.400 . S
C884 C887 1.386 . S
H885 C901 0.930 . S
H886 C902 0.931 . S
C887 H875 0.929 . S
C887 C881 1.390 . S
C887 C884 1.386 . S
C888 C883 1.490 . S
C888 C890 1.395 . S
C888 C891 1.403 . S
H889 C895 0.930 . S
C890 H876 0.930 . S
C890 C888 1.395 . S
C890 C893 1.403 . S
C891 C888 1.403 . S
C891 C892 1.524 . S
C891 C895 1.400 . S
C892 H877 0.960 . S
C892 H878 0.960 . S
C892 H879 0.960 . S
C892 C891 1.524 . S
C893 C890 1.403 . S
C893 C894 1.392 . S
C893 C897 1.495 . S
C894 C893 1.392 . S
C894 C895 1.385 . S
C894 C896 1.478 . S
C895 H889 0.930 . S
C895 C891 1.400 . S
C895 C894 1.385 . S
C896 C894 1.478 . S
C896 C898 1.381 . S
C896 C902 1.383 . S
C897 C893 1.495 . S
C897 H903 0.959 . S
C897 H904 0.961 . S
C897 H905 0.960 . S
C898 C896 1.381 . S
C898 C899 1.394 . S
C898 H906 0.930 . S
C899 C898 1.394 . S
C899 C900 1.383 . S
C899 H907 0.929 . S
C900 C899 1.383 . S
C900 C901 1.377 . S
C901 H885 0.930 . S
C901 C900 1.377 . S
C901 C902 1.379 . S
C902 H886 0.931 . S
C902 C896 1.383 . S
C902 C901 1.379 . S
H903 C897 0.959 . S
H904 C897 0.961 . S
H905 C897 0.960 . S
H906 C898 0.930 . S
H907 C899 0.929 . S
H908 C916 0.929 . S
H909 C918 0.930 . S
H910 C920 0.930 . S
H911 C923 0.929 . S
H912 C926 0.930 . S
H913 C928 0.960 . S
H914 C928 0.960 . S
H915 C928 0.960 . S
C916 H908 0.929 . S
C916 C917 1.377 . S
C916 C918 1.384 . S
C917 C916 1.377 . S
C917 C923 1.390 . S
C918 H909 0.930 . S
C918 C916 1.384 . S
C918 C919 1.372 . S
C919 C918 1.372 . S
C919 C920 1.400 . S
C919 C924 1.490 . S
C920 H910 0.930 . S
C920 C919 1.400 . S
C920 C923 1.386 . S
H921 C937 0.930 . S
H922 C938 0.931 . S
C923 H911 0.929 . S
C923 C917 1.390 . S
C923 C920 1.386 . S
C924 C919 1.490 . S
C924 C926 1.395 . S
C924 C927 1.403 . S
H925 C931 0.930 . S
C926 H912 0.930 . S
C926 C924 1.395 . S
C926 C929 1.403 . S
C927 C924 1.403 . S
C927 C928 1.524 . S
C927 C931 1.400 . S
C928 H913 0.960 . S
C928 H914 0.960 . S
C928 H915 0.960 . S
C928 C927 1.524 . S
C929 C926 1.403 . S
C929 C930 1.392 . S
C929 C933 1.495 . S
C930 C929 1.392 . S
C930 C931 1.385 . S
C930 C932 1.478 . S
C931 H925 0.930 . S
C931 C927 1.400 . S
C931 C930 1.385 . S
C932 C930 1.478 . S
C932 C934 1.381 . S
C932 C938 1.383 . S
C933 C929 1.495 . S
C933 H939 0.959 . S
C933 H940 0.961 . S
C933 H941 0.960 . S
C934 C932 1.381 . S
C934 C935 1.394 . S
C934 H942 0.930 . S
C935 C934 1.394 . S
C935 C936 1.383 . S
C935 H943 0.929 . S
C936 C935 1.383 . S
C936 C937 1.377 . S
C937 H921 0.930 . S
C937 C936 1.377 . S
C937 C938 1.379 . S
C938 H922 0.931 . S
C938 C932 1.383 . S
C938 C937 1.379 . S
H939 C933 0.959 . S
H940 C933 0.961 . S
H941 C933 0.960 . S
H942 C934 0.930 . S
H943 C935 0.929 . S
H944 C952 0.929 . S
H945 C954 0.930 . S
H946 C956 0.930 . S
H947 C959 0.929 . S
H948 C962 0.930 . S
H949 C964 0.960 . S
H950 C964 0.960 . S
H951 C964 0.960 . S
C952 H944 0.929 . S
C952 C953 1.377 . S
C952 C954 1.384 . S
C953 C952 1.377 . S
C953 C959 1.390 . S
C954 H945 0.930 . S
C954 C952 1.384 . S
C954 C955 1.372 . S
C955 C954 1.372 . S
C955 C956 1.400 . S
C955 C960 1.490 . S
C956 H946 0.930 . S
C956 C955 1.400 . S
C956 C959 1.386 . S
H957 C973 0.930 . S
H958 C974 0.931 . S
C959 H947 0.929 . S
C959 C953 1.390 . S
C959 C956 1.386 . S
C960 C955 1.490 . S
C960 C962 1.395 . S
C960 C963 1.403 . S
H961 C967 0.930 . S
C962 H948 0.930 . S
C962 C960 1.395 . S
C962 C965 1.403 . S
C963 C960 1.403 . S
C963 C964 1.524 . S
C963 C967 1.400 . S
C964 H949 0.960 . S
C964 H950 0.960 . S
C964 H951 0.960 . S
C964 C963 1.524 . S
C965 C962 1.403 . S
C965 C966 1.392 . S
C965 C969 1.495 . S
C966 C965 1.392 . S
C966 C967 1.385 . S
C966 C968 1.478 . S
C967 H961 0.930 . S
C967 C963 1.400 . S
C967 C966 1.385 . S
C968 C966 1.478 . S
C968 C970 1.381 . S
C968 C974 1.383 . S
C969 C965 1.495 . S
C969 H975 0.959 . S
C969 H976 0.961 . S
C969 H977 0.960 . S
C970 C968 1.381 . S
C970 C971 1.394 . S
C970 H978 0.930 . S
C971 C970 1.394 . S
C971 C972 1.383 . S
C971 H979 0.929 . S
C972 C971 1.383 . S
C972 C973 1.377 . S
C973 H957 0.930 . S
C973 C972 1.377 . S
C973 C974 1.379 . S
C974 H958 0.931 . S
C974 C968 1.383 . S
C974 C973 1.379 . S
H975 C969 0.959 . S
H976 C969 0.961 . S
H977 C969 0.960 . S
H978 C970 0.930 . S
H979 C971 0.929 . S
H980 C988 0.929 . S
H981 C990 0.930 . S
H982 C992 0.930 . S
H983 C995 0.929 . S
H984 C998 0.930 . S
H985 C1000 0.960 . S
H986 C1000 0.960 . S
H987 C1000 0.960 . S
C988 H980 0.929 . S
C988 C989 1.377 . S
C988 C990 1.384 . S
C989 C988 1.377 . S
C989 C995 1.390 . S
C990 H981 0.930 . S
C990 C988 1.384 . S
C990 C991 1.372 . S
C991 C990 1.372 . S
C991 C992 1.400 . S
C991 C996 1.490 . S
C992 H982 0.930 . S
C992 C991 1.400 . S
C992 C995 1.386 . S
H993 C1009 0.930 . S
H994 C1010 0.931 . S
C995 H983 0.929 . S
C995 C989 1.390 . S
C995 C992 1.386 . S
C996 C991 1.490 . S
C996 C998 1.395 . S
C996 C999 1.403 . S
H997 C1003 0.930 . S
C998 H984 0.930 . S
C998 C996 1.395 . S
C998 C1001 1.403 . S
C999 C996 1.403 . S
C999 C1000 1.524 . S
C999 C1003 1.400 . S
C1000 H985 0.960 . S
C1000 H986 0.960 . S
C1000 H987 0.960 . S
C1000 C999 1.524 . S
C1001 C998 1.403 . S
C1001 C1002 1.392 . S
C1001 C1005 1.495 . S
C1002 C1001 1.392 . S
C1002 C1003 1.385 . S
C1002 C1004 1.478 . S
C1003 H997 0.930 . S
C1003 C999 1.400 . S
C1003 C1002 1.385 . S
C1004 C1002 1.478 . S
C1004 C1006 1.381 . S
C1004 C1010 1.383 . S
C1005 C1001 1.495 . S
C1005 H1011 0.959 . S
C1005 H1012 0.961 . S
C1005 H1013 0.960 . S
C1006 C1004 1.381 . S
C1006 C1007 1.394 . S
C1006 H1014 0.930 . S
C1007 C1006 1.394 . S
C1007 C1008 1.383 . S
C1007 H1015 0.929 . S
C1008 C1007 1.383 . S
C1008 C1009 1.377 . S
C1009 H993 0.930 . S
C1009 C1008 1.377 . S
C1009 C1010 1.379 . S
C1010 H994 0.931 . S
C1010 C1004 1.383 . S
C1010 C1009 1.379 . S
H1011 C1005 0.959 . S
H1012 C1005 0.961 . S
H1013 C1005 0.960 . S
H1014 C1006 0.930 . S
H1015 C1007 0.929 . S
H1016 C1024 0.929 . S
H1017 C1026 0.930 . S
H1018 C1028 0.930 . S
H1019 C1031 0.929 . S
H1020 C1034 0.930 . S
H1021 C1036 0.960 . S
H1022 C1036 0.960 1_565 S
H1023 C1036 0.960 . S
C1024 H1016 0.929 . S
C1024 C1025 1.377 . S
C1024 C1026 1.384 . S
C1025 C1024 1.377 . S
C1025 C1031 1.390 . S
C1026 H1017 0.930 . S
C1026 C1024 1.384 . S
C1026 C1027 1.372 . S
C1027 C1026 1.372 . S
C1027 C1028 1.400 . S
C1027 C1032 1.490 . S
C1028 H1018 0.930 . S
C1028 C1027 1.400 . S
C1028 C1031 1.386 . S
H1029 C1045 0.930 . S
H1030 C1046 0.931 . S
C1031 H1019 0.929 . S
C1031 C1025 1.390 . S
C1031 C1028 1.386 . S
C1032 C1027 1.490 . S
C1032 C1034 1.395 . S
C1032 C1035 1.403 1_565 S
H1033 C1039 0.930 . S
C1034 H1020 0.930 . S
C1034 C1032 1.395 . S
C1034 C1037 1.403 . S
C1035 C1032 1.403 1_545 S
C1035 C1036 1.524 . S
C1035 C1039 1.400 . S
C1036 H1021 0.960 . S
C1036 H1022 0.960 1_545 S
C1036 H1023 0.960 . S
C1036 C1035 1.524 . S
C1037 C1034 1.403 . S
C1037 C1038 1.392 1_565 S
C1037 C1041 1.495 . S
C1038 C1037 1.392 1_545 S
C1038 C1039 1.385 . S
C1038 C1040 1.478 . S
C1039 H1033 0.930 . S
C1039 C1035 1.400 . S
C1039 C1038 1.385 . S
C1040 C1038 1.478 . S
C1040 C1042 1.381 . S
C1040 C1046 1.383 . S
C1041 C1037 1.495 . S
C1041 H1047 0.959 . S
C1041 H1048 0.974 . S
C1041 H1049 0.960 . S
C1042 C1040 1.381 . S
C1042 C1043 1.394 . S
C1042 H1050 0.930 . S
C1043 C1042 1.394 . S
C1043 C1044 1.383 . S
C1043 H1051 0.929 . S
C1044 C1043 1.383 . S
C1044 C1045 1.377 . S
C1045 H1029 0.930 . S
C1045 C1044 1.377 . S
C1045 C1046 1.379 . S
C1046 H1030 0.931 . S
C1046 C1040 1.383 . S
C1046 C1045 1.379 . S
H1047 C1041 0.959 . S
H1048 C1041 0.974 . S
H1049 C1041 0.960 . S
H1050 C1042 0.930 . S
H1051 C1043 0.929 . S
H1052 C1060 0.929 . S
H1053 C1062 0.930 . S
H1054 C1064 0.930 . S
H1055 C1067 0.929 . S
H1056 C1070 0.930 . S
H1057 C1072 0.960 . S
H1058 C1072 0.996 . S
H1059 C1072 0.960 . S
C1060 H1052 0.929 . S
C1060 C1061 1.373 . S
C1060 C1062 1.384 . S
C1061 C1060 1.373 . S
C1061 C1067 1.394 1_455 S
C1062 H1053 0.930 . S
C1062 C1060 1.384 . S
C1062 C1063 1.418 . S
C1063 C1062 1.418 . S
C1063 C1064 1.353 1_455 S
C1063 C1068 1.492 1_556 S
C1064 H1054 0.930 . S
C1064 C1063 1.353 1_655 S
C1064 C1067 1.386 . S
H1065 C1081 0.930 . S
H1066 C1082 0.931 . S
C1067 H1055 0.929 . S
C1067 C1061 1.394 1_655 S
C1067 C1064 1.386 . S
C1068 C1063 1.492 1_554 S
C1068 C1070 1.395 . S
C1068 C1071 1.403 1_445 S
H1069 C1075 0.930 . S
C1070 H1056 0.930 . S
C1070 C1068 1.395 . S
C1070 C1073 1.403 . S
C1071 C1068 1.403 1_665 S
C1071 C1072 1.524 1_554 S
C1071 C1075 1.400 . S
C1072 H1057 0.960 . S
C1072 H1058 0.996 . S
C1072 H1059 0.960 . S
C1072 C1071 1.524 1_556 S
C1073 C1070 1.403 . S
C1073 C1074 1.392 1_545 S
C1073 C1077 1.495 . S
C1074 C1073 1.392 1_565 S
C1074 C1075 1.385 1_455 S
C1074 C1076 1.478 . S
C1075 H1069 0.930 . S
C1075 C1071 1.400 . S
C1075 C1074 1.385 1_655 S
C1076 C1074 1.478 . S
C1076 C1078 1.381 . S
C1076 C1082 1.383 1_455 S
C1077 C1073 1.495 . S
C1077 H1083 0.959 . S
C1077 H1084 0.961 . S
C1077 H1085 0.960 . S
C1078 C1076 1.381 . S
C1078 C1079 1.394 . S
C1078 H1086 0.930 . S
C1079 C1078 1.394 . S
C1079 C1080 1.390 . S
C1079 H1087 0.929 . S
C1080 C1079 1.390 . S
C1080 C1081 1.370 1_455 S
C1081 H1065 0.930 . S
C1081 C1080 1.370 1_655 S
C1081 C1082 1.379 . S
C1082 H1066 0.931 . S
C1082 C1076 1.383 1_655 S
C1082 C1081 1.379 . S
H1083 C1077 0.959 . S
H1084 C1077 0.961 . S
H1085 C1077 0.960 . S
H1086 C1078 0.930 . S
H1087 C1079 0.929 . S
H1088 C1096 0.929 . S
H1089 C1098 0.930 . S
H1090 C1100 0.930 . S
H1091 C1103 0.929 . S
H1092 C1106 0.927 1_455 S
H1093 C1108 0.960 . S
H1094 C1108 0.960 . S
H1095 C1108 0.960 1_455 S
C1096 H1088 0.929 . S
C1096 C1097 1.377 . S
C1096 C1098 1.384 . S
C1097 C1096 1.377 . S
C1097 C1103 1.390 1_655 S
C1098 H1089 0.930 . S
C1098 C1096 1.384 . S
C1098 C1099 1.372 . S
C1099 C1098 1.372 . S
C1099 C1100 1.400 1_655 S
C1099 C1104 1.490 . S
C1100 H1090 0.930 . S
C1100 C1099 1.400 1_455 S
C1100 C1103 1.386 . S
H1101 C1117 0.930 . S
H1102 C1118 0.931 . S
C1103 H1091 0.929 . S
C1103 C1097 1.390 1_455 S
C1103 C1100 1.386 . S
C1104 C1099 1.490 . S
C1104 C1106 1.397 . S
C1104 C1107 1.403 . S
H1105 C1111 0.930 . S
C1106 H1092 0.927 1_655 S
C1106 C1104 1.397 . S
C1106 C1109 1.403 . S
C1107 C1104 1.403 . S
C1107 C1108 1.524 . S
C1107 C1111 1.400 . S
C1108 H1093 0.960 . S
C1108 H1094 0.960 . S
C1108 H1095 0.960 1_655 S
C1108 C1107 1.524 . S
C1109 C1106 1.403 . S
C1109 C1110 1.392 . S
C1109 C1113 1.496 1_655 S
C1110 C1109 1.392 . S
C1110 C1111 1.385 . S
C1110 C1112 1.478 . S
C1111 H1105 0.930 . S
C1111 C1107 1.400 . S
C1111 C1110 1.385 . S
C1112 C1110 1.478 . S
C1112 C1114 1.381 . S
C1112 C1118 1.383 1_655 S
C1113 C1109 1.496 1_455 S
C1113 H1119 0.959 . S
C1113 H1120 0.961 . S
C1113 H1121 0.960 1_455 S
C1114 C1112 1.381 . S
C1114 C1115 1.394 . S
C1114 H1122 0.930 . S
C1115 C1114 1.394 . S
C1115 C1116 1.383 . S
C1115 H1123 0.929 . S
C1116 C1115 1.383 . S
C1116 C1117 1.377 1_655 S
C1117 H1101 0.930 . S
C1117 C1116 1.377 1_455 S
C1117 C1118 1.379 . S
C1118 H1102 0.931 . S
C1118 C1112 1.383 1_455 S
C1118 C1117 1.379 . S
H1119 C1113 0.959 . S
H1120 C1113 0.961 . S
H1121 C1113 0.960 1_655 S
H1122 C1114 0.930 . S
H1123 C1115 0.929 . S
H1124 C1132 0.929 . S
H1125 C1134 0.930 . S
H1126 C1136 0.930 . S
H1127 C1139 0.929 . S
H1128 C1142 0.930 . S
H1129 C1144 0.960 . S
H1130 C1144 0.960 . S
H1131 C1144 0.960 . S
C1132 H1124 0.929 . S
C1132 C1133 1.377 . S
C1132 C1134 1.384 . S
C1133 C1132 1.377 . S
C1133 C1139 1.390 . S
C1134 H1125 0.930 . S
C1134 C1132 1.384 . S
C1134 C1135 1.372 . S
C1135 C1134 1.372 . S
C1135 C1136 1.400 . S
C1135 C1140 1.490 . S
C1136 H1126 0.930 . S
C1136 C1135 1.400 . S
C1136 C1139 1.386 . S
H1137 C1153 0.930 . S
H1138 C1154 0.931 . S
C1139 H1127 0.929 . S
C1139 C1133 1.390 . S
C1139 C1136 1.386 . S
C1140 C1135 1.490 . S
C1140 C1142 1.395 . S
C1140 C1143 1.403 . S
H1141 C1147 0.930 . S
C1142 H1128 0.930 . S
C1142 C1140 1.395 . S
C1142 C1145 1.403 . S
C1143 C1140 1.403 . S
C1143 C1144 1.524 . S
C1143 C1147 1.400 . S
C1144 H1129 0.960 . S
C1144 H1130 0.960 . S
C1144 H1131 0.960 . S
C1144 C1143 1.524 . S
C1145 C1142 1.403 . S
C1145 C1146 1.392 . S
C1145 C1149 1.495 . S
C1146 C1145 1.392 . S
C1146 C1147 1.385 . S
C1146 C1148 1.478 . S
C1147 H1141 0.930 . S
C1147 C1143 1.400 . S
C1147 C1146 1.385 . S
C1148 C1146 1.478 . S
C1148 C1150 1.381 . S
C1148 C1154 1.383 . S
C1149 C1145 1.495 . S
C1149 H1155 0.959 . S
C1149 H1156 0.961 . S
C1149 H1157 0.960 . S
C1150 C1148 1.381 . S
C1150 C1151 1.394 . S
C1150 H1158 0.930 . S
C1151 C1150 1.394 . S
C1151 C1152 1.383 . S
C1151 H1159 0.929 . S
C1152 C1151 1.383 . S
C1152 C1153 1.377 . S
C1153 H1137 0.930 . S
C1153 C1152 1.377 . S
C1153 C1154 1.379 . S
C1154 H1138 0.931 . S
C1154 C1148 1.383 . S
C1154 C1153 1.379 . S
H1155 C1149 0.959 . S
H1156 C1149 0.961 . S
H1157 C1149 0.960 . S
H1158 C1150 0.930 . S
H1159 C1151 0.929 . S
H1160 C1168 0.929 . S
H1161 C1170 0.930 . S
H1162 C1172 0.930 . S
H1163 C1175 0.929 . S
H1164 C1178 0.930 . S
H1165 C1180 0.946 1_556 S
H1166 C1180 0.960 . S
H1167 C1180 0.960 . S
C1168 H1160 0.929 . S
C1168 C1169 1.377 . S
C1168 C1170 1.384 . S
C1169 C1168 1.377 . S
C1169 C1175 1.390 . S
C1170 H1161 0.930 . S
C1170 C1168 1.384 . S
C1170 C1171 1.372 . S
C1171 C1170 1.372 . S
C1171 C1172 1.400 . S
C1171 C1176 1.490 . S
C1172 H1162 0.930 . S
C1172 C1171 1.400 . S
C1172 C1175 1.386 . S
H1173 C1189 0.930 . S
H1174 C1190 0.931 . S
C1175 H1163 0.929 . S
C1175 C1169 1.390 . S
C1175 C1172 1.386 . S
C1176 C1171 1.490 . S
C1176 C1178 1.395 . S
C1176 C1179 1.403 . S
H1177 C1183 0.930 1_556 S
C1178 H1164 0.930 . S
C1178 C1176 1.395 . S
C1178 C1181 1.403 . S
C1179 C1176 1.403 . S
C1179 C1180 1.524 . S
C1179 C1183 1.400 . S
C1180 H1165 0.946 1_554 S
C1180 H1166 0.960 . S
C1180 H1167 0.960 . S
C1180 C1179 1.524 . S
C1181 C1178 1.403 . S
C1181 C1182 1.392 . S
C1181 C1185 1.495 . S
C1182 C1181 1.392 . S
C1182 C1183 1.385 . S
C1182 C1184 1.478 1_554 S
C1183 H1177 0.930 1_554 S
C1183 C1179 1.400 . S
C1183 C1182 1.385 . S
C1184 C1182 1.478 1_556 S
C1184 C1186 1.381 . S
C1184 C1190 1.383 . S
C1185 C1181 1.495 . S
C1185 H1191 0.959 . S
C1185 H1192 0.961 . S
C1185 H1193 0.960 . S
C1186 C1184 1.381 . S
C1186 C1187 1.394 . S
C1186 H1194 0.930 . S
C1187 C1186 1.394 . S
C1187 C1188 1.383 . S
C1187 H1195 0.929 . S
C1188 C1187 1.383 . S
C1188 C1189 1.377 . S
C1189 H1173 0.930 . S
C1189 C1188 1.377 . S
C1189 C1190 1.379 . S
C1190 H1174 0.931 . S
C1190 C1184 1.383 . S
C1190 C1189 1.379 . S
H1191 C1185 0.959 . S
H1192 C1185 0.961 . S
H1193 C1185 0.960 . S
H1194 C1186 0.930 . S
H1195 C1187 0.929 . S
H1196 C1204 0.929 . S
H1197 C1206 0.930 . S
H1198 C1208 0.930 . S
H1199 C1211 0.929 . S
H1200 C1214 0.930 . S
H1201 C1216 0.960 . S
H1202 C1216 0.960 . S
H1203 C1216 0.960 . S
C1204 H1196 0.929 . S
C1204 C1205 1.377 . S
C1204 C1206 1.384 . S
C1205 C1204 1.377 . S
C1205 C1211 1.390 . S
C1206 H1197 0.930 . S
C1206 C1204 1.384 . S
C1206 C1207 1.372 . S
C1207 C1206 1.372 . S
C1207 C1208 1.400 . S
C1207 C1212 1.490 . S
C1208 H1198 0.930 . S
C1208 C1207 1.400 . S
C1208 C1211 1.386 . S
H1209 C1225 0.930 . S
H1210 C1226 0.931 . S
C1211 H1199 0.929 . S
C1211 C1205 1.390 . S
C1211 C1208 1.386 . S
C1212 C1207 1.490 . S
C1212 C1214 1.395 . S
C1212 C1215 1.403 . S
H1213 C1219 0.930 . S
C1214 H1200 0.930 . S
C1214 C1212 1.395 . S
C1214 C1217 1.403 . S
C1215 C1212 1.403 . S
C1215 C1216 1.524 . S
C1215 C1219 1.400 . S
C1216 H1201 0.960 . S
C1216 H1202 0.960 . S
C1216 H1203 0.960 . S
C1216 C1215 1.524 . S
C1217 C1214 1.403 . S
C1217 C1218 1.392 . S
C1217 C1221 1.495 . S
C1218 C1217 1.392 . S
C1218 C1219 1.385 . S
C1218 C1220 1.478 . S
C1219 H1213 0.930 . S
C1219 C1215 1.400 . S
C1219 C1218 1.385 . S
C1220 C1218 1.478 . S
C1220 C1222 1.381 . S
C1220 C1226 1.383 . S
C1221 C1217 1.495 . S
C1221 H1227 0.959 . S
C1221 H1228 0.961 . S
C1221 H1229 0.960 . S
C1222 C1220 1.381 . S
C1222 C1223 1.394 . S
C1222 H1230 0.930 . S
C1223 C1222 1.394 . S
C1223 C1224 1.383 . S
C1223 H1231 0.929 . S
C1224 C1223 1.383 . S
C1224 C1225 1.377 . S
C1225 H1209 0.930 . S
C1225 C1224 1.377 . S
C1225 C1226 1.379 . S
C1226 H1210 0.931 . S
C1226 C1220 1.383 . S
C1226 C1225 1.379 . S
H1227 C1221 0.959 . S
H1228 C1221 0.961 . S
H1229 C1221 0.960 . S
H1230 C1222 0.930 . S
H1231 C1223 0.929 . S
H1232 C1240 0.929 . S
H1233 C1242 0.930 . S
H1234 C1244 0.930 . S
H1235 C1247 0.929 . S
H1236 C1250 0.930 . S
H1237 C1252 0.960 . S
H1238 C1252 0.960 . S
H1239 C1252 0.960 . S
C1240 H1232 0.929 . S
C1240 C1241 1.377 . S
C1240 C1242 1.384 . S
C1241 C1240 1.377 . S
C1241 C1247 1.390 . S
C1242 H1233 0.930 . S
C1242 C1240 1.384 . S
C1242 C1243 1.372 . S
C1243 C1242 1.372 . S
C1243 C1244 1.400 . S
C1243 C1248 1.490 . S
C1244 H1234 0.930 . S
C1244 C1243 1.400 . S
C1244 C1247 1.386 . S
H1245 C1261 0.930 . S
H1246 C1262 0.931 . S
C1247 H1235 0.929 . S
C1247 C1241 1.390 . S
C1247 C1244 1.386 . S
C1248 C1243 1.490 . S
C1248 C1250 1.395 . S
C1248 C1251 1.403 . S
H1249 C1255 0.930 . S
C1250 H1236 0.930 . S
C1250 C1248 1.395 . S
C1250 C1253 1.403 . S
C1251 C1248 1.403 . S
C1251 C1252 1.524 . S
C1251 C1255 1.400 . S
C1252 H1237 0.960 . S
C1252 H1238 0.960 . S
C1252 H1239 0.960 . S
C1252 C1251 1.524 . S
C1253 C1250 1.403 . S
C1253 C1254 1.392 . S
C1253 C1257 1.495 . S
C1254 C1253 1.392 . S
C1254 C1255 1.385 . S
C1254 C1256 1.478 . S
C1255 H1249 0.930 . S
C1255 C1251 1.400 . S
C1255 C1254 1.385 . S
C1256 C1254 1.478 . S
C1256 C1258 1.381 . S
C1256 C1262 1.383 . S
C1257 C1253 1.495 . S
C1257 H1263 0.959 . S
C1257 H1264 0.961 . S
C1257 H1265 0.960 . S
C1258 C1256 1.381 . S
C1258 C1259 1.394 . S
C1258 H1266 0.930 . S
C1259 C1258 1.394 . S
C1259 C1260 1.383 . S
C1259 H1267 0.929 . S
C1260 C1259 1.383 . S
C1260 C1261 1.377 . S
C1261 H1245 0.930 . S
C1261 C1260 1.377 . S
C1261 C1262 1.379 . S
C1262 H1246 0.931 . S
C1262 C1256 1.383 . S
C1262 C1261 1.379 . S
H1263 C1257 0.959 . S
H1264 C1257 0.961 . S
H1265 C1257 0.960 . S
H1266 C1258 0.930 . S
H1267 C1259 0.929 . S
H1268 C1276 0.929 . S
H1269 C1278 0.930 . S
H1270 C1280 0.930 . S
H1271 C1283 0.929 . S
H1272 C1286 0.930 . S
H1273 C1288 0.960 . S
H1274 C1288 0.960 . S
H1275 C1288 0.960 . S
C1276 H1268 0.929 . S
C1276 C1277 1.377 . S
C1276 C1278 1.384 . S
C1277 C1276 1.377 . S
C1277 C1283 1.390 . S
C1278 H1269 0.930 . S
C1278 C1276 1.384 . S
C1278 C1279 1.372 . S
C1279 C1278 1.372 . S
C1279 C1280 1.400 . S
C1279 C1284 1.490 . S
C1280 H1270 0.930 . S
C1280 C1279 1.400 . S
C1280 C1283 1.386 . S
H1281 C1297 0.930 . S
H1282 C1298 0.931 . S
C1283 H1271 0.929 . S
C1283 C1277 1.390 . S
C1283 C1280 1.386 . S
C1284 C1279 1.490 . S
C1284 C1286 1.395 . S
C1284 C1287 1.403 . S
H1285 C1291 0.930 . S
C1286 H1272 0.930 . S
C1286 C1284 1.395 . S
C1286 C1289 1.403 . S
C1287 C1284 1.403 . S
C1287 C1288 1.524 . S
C1287 C1291 1.400 . S
C1288 H1273 0.960 . S
C1288 H1274 0.960 . S
C1288 H1275 0.960 . S
C1288 C1287 1.524 . S
C1289 C1286 1.403 . S
C1289 C1290 1.392 . S
C1289 C1293 1.495 . S
C1290 C1289 1.392 . S
C1290 C1291 1.385 . S
C1290 C1292 1.478 . S
C1291 H1285 0.930 . S
C1291 C1287 1.400 . S
C1291 C1290 1.385 . S
C1292 C1290 1.478 . S
C1292 C1294 1.381 . S
C1292 C1298 1.383 . S
C1293 C1289 1.495 . S
C1293 H1299 0.959 . S
C1293 H1300 0.961 . S
C1293 H1301 0.960 . S
C1294 C1292 1.381 . S
C1294 C1295 1.394 . S
C1294 H1302 0.930 . S
C1295 C1294 1.394 . S
C1295 C1296 1.383 . S
C1295 H1303 0.929 . S
C1296 C1295 1.383 . S
C1296 C1297 1.377 . S
C1297 H1281 0.930 . S
C1297 C1296 1.377 . S
C1297 C1298 1.379 . S
C1298 H1282 0.931 . S
C1298 C1292 1.383 . S
C1298 C1297 1.379 . S
H1299 C1293 0.959 . S
H1300 C1293 0.961 . S
H1301 C1293 0.960 . S
H1302 C1294 0.930 . S
H1303 C1295 0.929 . S
H1304 C1312 0.929 . S
H1305 C1314 0.930 . S
H1306 C1316 0.930 . S
H1307 C1319 0.929 . S
H1308 C1322 0.930 . S
H1309 C1324 0.960 . S
H1310 C1324 0.960 . S
H1311 C1324 0.960 . S
C1312 H1304 0.929 . S
C1312 C1313 1.377 . S
C1312 C1314 1.384 . S
C1313 C1312 1.377 . S
C1313 C1319 1.390 . S
C1314 H1305 0.930 . S
C1314 C1312 1.384 . S
C1314 C1315 1.372 . S
C1315 C1314 1.372 . S
C1315 C1316 1.400 . S
C1315 C1320 1.490 . S
C1316 H1306 0.930 . S
C1316 C1315 1.400 . S
C1316 C1319 1.386 . S
H1317 C1333 0.930 . S
H1318 C1334 0.931 . S
C1319 H1307 0.929 . S
C1319 C1313 1.390 . S
C1319 C1316 1.386 . S
C1320 C1315 1.490 . S
C1320 C1322 1.395 1_565 S
C1320 C1323 1.403 . S
H1321 C1327 0.930 1_556 S
C1322 H1308 0.930 . S
C1322 C1320 1.395 1_545 S
C1322 C1325 1.403 . S
C1323 C1320 1.403 . S
C1323 C1324 1.524 . S
C1323 C1327 1.400 . S
C1324 H1309 0.960 . S
C1324 H1310 0.960 . S
C1324 H1311 0.960 . S
C1324 C1323 1.524 . S
C1325 C1322 1.403 . S
C1325 C1326 1.392 . S
C1325 C1329 1.495 . S
C1326 C1325 1.392 . S
C1326 C1327 1.385 1_545 S
C1326 C1328 1.478 1_554 S
C1327 H1321 0.930 1_554 S
C1327 C1323 1.400 . S
C1327 C1326 1.385 1_565 S
C1328 C1326 1.478 1_556 S
C1328 C1330 1.381 . S
C1328 C1334 1.383 . S
C1329 C1325 1.495 . S
C1329 H1335 0.959 . S
C1329 H1336 0.961 . S
C1329 H1337 0.960 . S
C1330 C1328 1.381 . S
C1330 C1331 1.394 . S
C1330 H1338 0.930 . S
C1331 C1330 1.394 . S
C1331 C1332 1.383 . S
C1331 H1339 0.929 . S
C1332 C1331 1.383 . S
C1332 C1333 1.377 . S
C1333 H1317 0.930 . S
C1333 C1332 1.377 . S
C1333 C1334 1.379 . S
C1334 H1318 0.931 . S
C1334 C1328 1.383 . S
C1334 C1333 1.379 . S
H1335 C1329 0.959 . S
H1336 C1329 0.961 . S
H1337 C1329 0.960 . S
H1338 C1330 0.930 . S
H1339 C1331 0.929 . S
H1340 C1348 0.929 . S
H1341 C1350 0.930 . S
H1342 C1352 0.930 . S
H1343 C1355 0.929 . S
H1344 C1358 0.930 1_655 S
H1345 C1360 0.960 . S
H1346 C1360 0.960 . S
H1347 C1360 0.960 . S
C1348 H1340 0.929 . S
C1348 C1349 1.377 1_655 S
C1348 C1350 1.384 . S
C1349 C1348 1.377 1_455 S
C1349 C1355 1.390 . S
C1350 H1341 0.930 . S
C1350 C1348 1.384 . S
C1350 C1351 1.372 1_655 S
C1351 C1350 1.372 1_455 S
C1351 C1352 1.400 . S
C1351 C1356 1.490 . S
C1352 H1342 0.930 . S
C1352 C1351 1.400 . S
C1352 C1355 1.386 . S
H1353 C1369 0.930 . S
H1354 C1370 0.931 . S
C1355 H1343 0.929 . S
C1355 C1349 1.390 . S
C1355 C1352 1.386 . S
C1356 C1351 1.490 . S
C1356 C1358 1.395 . S
C1356 C1359 1.403 1_545 S
H1357 C1363 0.930 . S
C1358 H1344 0.930 1_455 S
C1358 C1356 1.395 . S
C1358 C1361 1.403 . S
C1359 C1356 1.403 1_565 S
C1359 C1360 1.524 . S
C1359 C1363 1.400 . S
C1360 H1345 0.960 . S
C1360 H1346 0.960 . S
C1360 H1347 0.960 . S
C1360 C1359 1.524 . S
C1361 C1358 1.403 . S
C1361 C1362 1.392 1_545 S
C1361 C1365 1.495 1_455 S
C1362 C1361 1.392 1_565 S
C1362 C1363 1.385 . S
C1362 C1364 1.478 . S
C1363 H1357 0.930 . S
C1363 C1359 1.400 . S
C1363 C1362 1.385 . S
C1364 C1362 1.478 . S
C1364 C1366 1.381 1_455 S
C1364 C1370 1.383 . S
C1365 C1361 1.495 1_655 S
C1365 H1371 0.959 . S
C1365 H1372 0.947 1_655 S
C1365 H1373 0.960 . S
C1366 C1364 1.381 1_655 S
C1366 C1367 1.394 . S
C1366 H1374 0.930 . S
C1367 C1366 1.394 . S
C1367 C1368 1.383 1_655 S
C1367 H1375 0.929 . S
C1368 C1367 1.383 1_455 S
C1368 C1369 1.377 . S
C1369 H1353 0.930 . S
C1369 C1368 1.377 . S
C1369 C1370 1.379 . S
C1370 H1354 0.931 . S
C1370 C1364 1.383 . S
C1370 C1369 1.379 . S
H1371 C1365 0.959 . S
H1372 C1365 0.947 1_455 S
H1373 C1365 0.960 . S
H1374 C1366 0.930 . S
H1375 C1367 0.929 . S
C233 C131 1.426 . S
C252 C5 1.428 . S
C269 C201 1.427 . S
C288 C19 1.425 . S
C305 C33 1.428 . S
C324 C117 1.422 . S
C341 C47 1.428 . S
C360 C215 1.419 . S
C377 C61 1.428 . S
C396 C145 1.421 . S
C413 C187 1.427 . S
C432 C75 1.425 . S
C449 C159 1.427 . S
C468 C89 1.425 . S
C485 C103 1.428 . S
C504 C173 1.418 . S
C521 C56 1.512 . S
C540 C42 1.482 1_556 S
C557 C168 1.515 . S
C576 C112 1.527 . S
C593 C84 1.508 . S
C612 C14 1.528 . S
C629 C126 1.516 . S
C648 C182 1.498 . S
C665 C0 1.516 . S
C684 C70 1.506 . S
C701 C210 1.515 . S
C720 C140 1.493 . S
C737 C98 1.516 . S
C756 C28 1.522 . S
C773 C154 1.512 . S
C792 C196 1.534 . S
C809 C9 0.287 . S
C828 C65 0.270 . S
C845 C79 0.295 . S
C864 C23 0.298 . S
C881 C93 0.297 . S
C900 C37 0.310 . S
C917 C51 0.298 . S
C936 C107 0.330 . S
C953 C149 0.291 . S
C972 C121 0.301 . S
C989 C163 0.291 . S
C1008 C135 0.303 . S
C1025 C205 0.290 . S
C1044 C177 0.299 . S
C1061 C219 0.282 . S
C1080 C191 0.270 . S
C1097 C67 1.800 1_655 S
C1116 C11 1.799 1_655 S
C1133 C81 1.806 1_556 S
C1152 C25 1.810 . S
C1169 C95 1.806 . S
C1188 C39 1.804 . S
C1205 C53 1.802 . S
C1224 C109 1.805 . S
C1241 C123 1.802 . S
C1260 C151 1.789 . S
C1277 C165 1.802 . S
C1296 C137 1.798 1_556 S
C1313 C207 1.806 . S
C1332 C179 1.809 . S
C1349 C221 1.801 . S
C1368 C193 1.789 . S
