# Generated by pormake.
# Topology wjw, (5)-cn, num edge types: 1
# Building blocks:
#     Node 0, Type 0, BuildingBlock: XOMCOT_clean_sbu_0, # of connection points: 5
#     Node 1, Type 0, BuildingBlock: XOMCOT_clean_sbu_0, # of connection points: 5
#     Node 2, Type 0, BuildingBlock: XOMCOT_clean_sbu_0, # of connection points: 5
#     Node 3, Type 0, BuildingBlock: XOMCOT_clean_sbu_0, # of connection points: 5
#     Node 4, Type 0, BuildingBlock: XOMCOT_clean_sbu_0, # of connection points: 5
#     Node 5, Type 0, BuildingBlock: XOMCOT_clean_sbu_0, # of connection points: 5
#     Node 6, Type 0, BuildingBlock: XOMCOT_clean_sbu_0, # of connection points: 5
#     Node 7, Type 0, BuildingBlock: XOMCOT_clean_sbu_0, # of connection points: 5
#     Node 8, Type 0, BuildingBlock: XOMCOT_clean_sbu_0, # of connection points: 5
#     Node 9, Type 0, BuildingBlock: XOMCOT_clean_sbu_0, # of connection points: 5
#     Node 10, Type 0, BuildingBlock: XOMCOT_clean_sbu_0, # of connection points: 5
#     Node 11, Type 0, BuildingBlock: XOMCOT_clean_sbu_0, # of connection points: 5
#     Edge 12, Type (0, 0), BuildingBlock: AJUNOK_clean_linker_0, # of connection points: 2
#     Edge 13, Type (0, 0), BuildingBlock: AJUNOK_clean_linker_0, # of connection points: 2
#     Edge 14, Type (0, 0), BuildingBlock: AJUNOK_clean_linker_0, # of connection points: 2
#     Edge 15, Type (0, 0), BuildingBlock: AJUNOK_clean_linker_0, # of connection points: 2
#     Edge 16, Type (0, 0), BuildingBlock: AJUNOK_clean_linker_0, # of connection points: 2
#     Edge 17, Type (0, 0), BuildingBlock: AJUNOK_clean_linker_0, # of connection points: 2
#     Edge 18, Type (0, 0), BuildingBlock: AJUNOK_clean_linker_0, # of connection points: 2
#     Edge 19, Type (0, 0), BuildingBlock: AJUNOK_clean_linker_0, # of connection points: 2
#     Edge 20, Type (0, 0), BuildingBlock: AJUNOK_clean_linker_0, # of connection points: 2
#     Edge 21, Type (0, 0), BuildingBlock: AJUNOK_clean_linker_0, # of connection points: 2
#     Edge 22, Type (0, 0), BuildingBlock: AJUNOK_clean_linker_0, # of connection points: 2
#     Edge 23, Type (0, 0), BuildingBlock: AJUNOK_clean_linker_0, # of connection points: 2
#     Edge 24, Type (0, 0), BuildingBlock: AJUNOK_clean_linker_0, # of connection points: 2
#     Edge 25, Type (0, 0), BuildingBlock: AJUNOK_clean_linker_0, # of connection points: 2
#     Edge 26, Type (0, 0), BuildingBlock: AJUNOK_clean_linker_0, # of connection points: 2
#     Edge 27, Type (0, 0), BuildingBlock: AJUNOK_clean_linker_0, # of connection points: 2
#     Edge 28, Type (0, 0), BuildingBlock: AJUNOK_clean_linker_0, # of connection points: 2
#     Edge 29, Type (0, 0), BuildingBlock: AJUNOK_clean_linker_0, # of connection points: 2
#     Edge 30, Type (0, 0), BuildingBlock: AJUNOK_clean_linker_0, # of connection points: 2
#     Edge 31, Type (0, 0), BuildingBlock: AJUNOK_clean_linker_0, # of connection points: 2
#     Edge 32, Type (0, 0), BuildingBlock: AJUNOK_clean_linker_0, # of connection points: 2
#     Edge 33, Type (0, 0), BuildingBlock: AJUNOK_clean_linker_0, # of connection points: 2
#     Edge 34, Type (0, 0), BuildingBlock: AJUNOK_clean_linker_0, # of connection points: 2
#     Edge 35, Type (0, 0), BuildingBlock: AJUNOK_clean_linker_0, # of connection points: 2
#     Edge 36, Type (0, 0), BuildingBlock: AJUNOK_clean_linker_0, # of connection points: 2
#     Edge 37, Type (0, 0), BuildingBlock: AJUNOK_clean_linker_0, # of connection points: 2
#     Edge 38, Type (0, 0), BuildingBlock: AJUNOK_clean_linker_0, # of connection points: 2
#     Edge 39, Type (0, 0), BuildingBlock: AJUNOK_clean_linker_0, # of connection points: 2
#     Edge 40, Type (0, 0), BuildingBlock: AJUNOK_clean_linker_0, # of connection points: 2
#     Edge 41, Type (0, 0), BuildingBlock: AJUNOK_clean_linker_0, # of connection points: 2
# Relax obj value: 0.218
# Max RMSD: 0.190
# Mean RMSD: 0.185
data_MOF--net-wjw--node1-XOMCOT_clean_sbu_0--edge1-AJUNOK_clean_linker_0
_symmetry_space_group_name_H-M    P1
_symmetry_Int_Tables_number       1
_symmetry_cell_setting            triclinic
loop_
_symmetry_equiv_pos_as_xyz
'x, y, z'
_cell_length_a     30.931508
_cell_length_b     30.934447
_cell_length_c     27.096719
_cell_angle_alpha  90.044753
_cell_angle_beta   89.960835
_cell_angle_gamma 119.75601
loop_
_atom_site_label
_atom_site_type_symbol
_atom_site_fract_x
_atom_site_fract_y
_atom_site_fract_z
_atom_type_partial_charge
Co0 Co 0.1543 0.38979 0.30054 0.0
C1 C 0.09602 0.44247 0.30917 0.0
C2 C 0.07399 0.38303 0.36161 0.0
C3 C 0.04477 0.40439 0.36864 0.0
N4 N 0.10632 0.40714 0.32477 0.0
N5 N 0.05849 0.44152 0.33564 0.0
H6 H 0.11621 0.46887 0.28009 0.0
H7 H 0.07181 0.35194 0.38195 0.0
C8 C 0.20809 0.38718 0.39065 0.0
O9 O 0.24975 0.40945 0.36529 0.0
N10 N 0.20063 0.36855 0.2776 0.0
C11 C 0.24162 0.39155 0.24889 0.0
C12 C 0.2691 0.36786 0.25455 0.0
C13 C 0.20244 0.3294 0.29751 0.0
N14 N 0.24475 0.32929 0.28582 0.0
C15 C 0.22857 0.48725 0.26485 0.0
C16 C 0.25495 0.53201 0.35659 0.0
C17 C 0.2824 0.55905 0.31538 0.0
C18 C 0.26762 0.53651 0.26874 0.0
C19 C 0.21582 0.48339 0.3508 0.0
N20 N 0.206 0.4599 0.30604 0.0
H21 H 0.21679 0.47096 0.22866 0.0
H22 H 0.19383 0.46457 0.38282 0.0
H23 H 0.25319 0.42482 0.2276 0.0
H24 H 0.17645 0.3054 0.3253 0.0
O25 O 0.1326 0.38976 0.23381 0.0
O26 O 0.09961 0.32462 0.28429 0.0
O27 O 0.16655 0.37673 0.37066 0.0
C28 C 0.09872 0.34372 0.24175 0.0
H29 H 1.01569 0.39364 0.39602 0.0
H30 H 0.30597 0.38035 0.2398 0.0
H31 H 0.2642 0.54754 0.39341 0.0
H32 H 0.28624 0.55665 0.23555 0.0
Co33 Co 0.77161 0.14035 0.63967 0.0
C34 C 0.65955 0.0881 0.65489 0.0
C35 C 0.69694 0.05593 0.69405 0.0
C36 C 0.64701 0.02787 0.70354 0.0
N37 N 0.70531 0.09443 0.66448 0.0
N38 N 0.62364 0.0482 0.67916 0.0
H39 H 0.652 0.11135 0.63095 0.0
H40 H 0.72558 0.04864 0.70765 0.0
C41 C 0.77966 0.1534 0.7489 0.0
O42 O 0.7355 0.14973 0.74799 0.0
N43 N 0.83851 0.18311 0.61634 0.0
C44 C 0.85514 0.22117 0.58421 0.0
C45 C 0.90653 0.24699 0.58604 0.0
C46 C 0.87953 0.18559 0.63641 0.0
N47 N 0.9218 0.22452 0.619 0.0
C48 C 0.73031 0.20579 0.61872 0.0
C49 C 0.79338 0.28032 0.68244 0.0
C50 C 0.75963 0.28793 0.6548 0.0
C51 C 0.72742 0.24977 0.62262 0.0
C52 C 0.7958 0.23703 0.67633 0.0
N53 N 0.76311 0.19898 0.64697 0.0
H54 H 0.70774 0.17835 0.59149 0.0
H55 H 0.82584 0.23531 0.69362 0.0
H56 H 0.83165 0.23143 0.5636 0.0
H57 H 0.8783 0.16066 0.66505 0.0
O58 O 0.74819 0.12165 0.57263 0.0
O59 O 0.77653 0.0828 0.62024 0.0
O60 O 0.79947 0.14942 0.70904 0.0
C61 C 0.75737 0.08518 0.57827 0.0
H62 H 0.62904 0.99464 0.72609 0.0
H63 H 0.93038 0.28172 0.56729 0.0
H64 H 0.81912 0.30838 0.7078 0.0
H65 H 0.70162 0.25461 0.59944 0.0
Co66 Co 0.635 0.75813 0.96912 0.0
C67 C 0.57692 0.64742 0.9774 0.0
C68 C 0.63965 0.68183 0.02661 0.0
C69 C 0.61513 0.63148 0.03495 0.0
N70 N 0.61549 0.69182 0.99105 0.0
N71 N 0.57579 0.6101 0.00423 0.0
H72 H 0.54951 0.64269 0.94993 0.0
H73 H 0.67253 0.70951 0.04566 0.0
C74 C 0.63308 0.8098 0.06079 0.0
O75 O 0.61068 0.8286 0.0345 0.0
N76 N 0.6589 0.82691 0.94907 0.0
C77 C 0.64106 0.84765 0.91707 0.0
C78 C 0.66684 0.89856 0.92347 0.0
C79 C 0.69733 0.86596 0.97185 0.0
N80 N 0.70153 0.91002 0.95888 0.0
C81 C 0.54098 0.74431 0.93157 0.0
C82 C 0.49106 0.71865 0.02077 0.0
C83 C 0.46893 0.72828 0.98045 0.0
C84 C 0.4936 0.73955 0.93491 0.0
C85 C 0.53887 0.72487 0.01591 0.0
N86 N 0.56513 0.74209 0.9728 0.0
H87 H 0.55839 0.75017 0.89585 0.0
H88 H 0.55529 0.71715 0.04746 0.0
H89 H 0.61093 0.8283 0.89149 0.0
H90 H 0.72013 0.8615 0.9993 0.0
O91 O 0.6366 0.73904 0.90155 0.0
O92 O 0.70025 0.76706 0.95348 0.0
O93 O 0.646 0.78053 0.04047 0.0
C94 C 0.68237 0.75003 0.90975 0.0
H95 H 0.62501 0.61198 0.06185 0.0
H96 H 0.65863 0.9248 0.9053 0.0
H97 H 0.47231 0.70807 0.05615 0.0
H98 H 0.47649 0.74484 0.90232 0.0
Co99 Co 0.88967 0.63498 0.30624 0.0
C100 C 0.94277 0.57451 0.31198 0.0
C101 C 0.97513 0.64116 0.35563 0.0
C102 C 1.00339 0.61873 0.36152 0.0
N103 N 0.9364 0.61317 0.32549 0.0
N104 N 0.98318 0.57705 0.33405 0.0
H105 H 0.91893 0.545 0.28723 0.0
H106 H 0.98222 0.67581 0.37241 0.0
C107 C 0.87712 0.62062 0.41429 0.0
O108 O 0.8786 0.57936 0.407 0.0
N109 N 0.84575 0.6601 0.2885 0.0
C110 C 0.81147 0.64413 0.25226 0.0
C111 C 0.78276 0.6666 0.25822 0.0
C112 C 0.83795 0.69224 0.31549 0.0
N113 N 0.79911 0.69623 0.29844 0.0
C114 C 0.82515 0.53076 0.28116 0.0
C115 C 0.75078 0.51374 0.34806 0.0
C116 C 0.74628 0.47403 0.3197 0.0
C117 C 0.78333 0.48298 0.28495 0.0
C118 C 0.79268 0.5608 0.34262 0.0
N119 N 0.83108 0.56828 0.31203 0.0
H120 H 0.85209 0.53779 0.25254 0.0
H121 H 0.79381 0.59136 0.36293 0.0
H122 H 0.80606 0.61623 0.22511 0.0
H123 H 0.85941 0.71131 0.34786 0.0
O124 O 0.90537 0.63282 0.2377 0.0
O125 O 0.94699 0.6978 0.2871 0.0
O126 O 0.88341 0.6495 0.37796 0.0
C127 C 0.94247 0.67769 0.24375 0.0
H128 H 0.0364 0.632 0.38419 0.0
H129 H 0.75065 0.65961 0.23633 0.0
H130 H 0.72173 0.5086 0.37374 0.0
H131 H 0.77984 0.45347 0.26085 0.0
Co132 Co 0.26854 0.8745 0.63872 0.0
C133 C 0.37734 0.92984 0.65733 0.0
C134 C 0.33789 0.95523 0.70338 0.0
C135 C 0.38787 0.98378 0.71312 0.0
N136 N 0.33119 0.92106 0.66889 0.0
N137 N 0.41253 0.9677 0.68431 0.0
H138 H 0.38504 0.90926 0.62971 0.0
H139 H 0.30888 0.96037 0.71938 0.0
C140 C 0.21547 0.87554 0.73333 0.0
O141 O 0.21541 0.91677 0.72196 0.0
N142 N 0.20472 0.8283 0.60954 0.0
C143 C 0.19319 0.79152 0.57645 0.0
C144 C 0.1421 0.7609 0.57575 0.0
C145 C 0.16049 0.82061 0.62671 0.0
N146 N 0.12189 0.77924 0.60777 0.0
C147 C 0.30038 0.80527 0.60736 0.0
C148 C 0.28757 0.75796 0.69704 0.0
C149 C 0.29961 0.73879 0.65573 0.0
C150 C 0.30772 0.76414 0.61073 0.0
C151 C 0.28119 0.79939 0.69225 0.0
N152 N 0.28473 0.821 0.64719 0.0
H153 H 0.30612 0.82364 0.57216 0.0
H154 H 0.27328 0.81326 0.72546 0.0
H155 H 0.2196 0.7856 0.55579 0.0
H156 H 0.15648 0.84279 0.65516 0.0
O157 O 0.29755 0.89851 0.5747 0.0
O158 O 0.25952 0.93018 0.61847 0.0
O159 O 0.23519 0.85744 0.70486 0.0
C160 C 0.28442 0.93218 0.57884 0.0
H161 H 0.40495 0.01491 0.73846 0.0
H162 H 0.12163 0.72671 0.55495 0.0
H163 H 0.28195 0.74044 0.73286 0.0
H164 H 0.31931 0.75219 0.57822 0.0
Co165 Co 0.38991 0.25305 0.97688 0.0
C166 C 0.44381 0.36523 0.98567 0.0
C167 C 0.37196 0.32839 0.02027 0.0
C168 C 0.39167 0.37869 0.02623 0.0
N169 N 0.40484 0.31965 0.99567 0.0
N170 N 0.43677 0.40165 0.00467 0.0
H171 H 0.47672 0.37227 0.96556 0.0
H172 H 0.33586 0.29979 0.03312 0.0
C173 C 0.39371 0.25655 0.08582 0.0
O174 O 0.43413 0.30008 0.08061 0.0
N175 N 0.37257 0.18649 0.95797 0.0
C176 C 0.39476 0.17333 0.9229 0.0
C177 C 0.37671 0.12278 0.92616 0.0
C178 C 0.34097 0.14412 0.98157 0.0
N179 N 0.34322 0.10482 0.96322 0.0
C180 C 0.49653 0.29695 0.95856 0.0
C181 C 0.51152 0.24134 0.02929 0.0
C182 C 0.55202 0.27404 1.0002 0.0
C183 C 0.54409 0.30209 0.96421 0.0
C184 C 0.46498 0.23694 0.02205 0.0
N185 N 0.45797 0.26608 0.98866 0.0
H186 H 0.49026 0.31606 0.92851 0.0
H187 H 0.43411 0.20809 0.04221 0.0
H188 H 0.42366 0.19903 0.89831 0.0
H189 H 0.31886 0.14238 0.01326 0.0
O190 O 0.39469 0.27181 0.90794 0.0
O191 O 0.3263 0.24209 0.95356 0.0
O192 O 0.37069 0.23075 0.04787 0.0
C193 C 0.34812 0.26013 0.91152 0.0
H194 H 0.37416 0.39709 0.04468 0.0
H195 H 0.38821 0.10113 0.90397 0.0
H196 H 0.51529 0.21799 0.05675 0.0
H197 H 0.57366 0.32603 0.93919 0.0
Co198 Co 0.63307 0.87829 0.36711 0.0
C199 C 0.57756 0.93376 0.36186 0.0
C200 C 0.6405 0.96285 0.31291 0.0
C201 C 0.61871 0.99206 0.30914 0.0
N202 N 0.61462 0.92631 0.3457 0.0
N203 N 0.57917 0.97375 0.33979 0.0
H204 H 0.55096 0.91124 0.38991 0.0
H205 H 0.67349 0.96831 0.29367 0.0
C206 C 0.63747 0.82983 0.27351 0.0
O207 O 0.61554 0.78709 0.2971 0.0
N208 N 0.65499 0.83187 0.38799 0.0
C209 C 0.63721 0.79654 0.4234 0.0
C210 C 0.66272 0.77056 0.42144 0.0
C211 C 0.69311 0.82866 0.36734 0.0
N212 N 0.6976 0.79055 0.38576 0.0
C213 C 0.53626 0.79922 0.39905 0.0
C214 C 0.49297 0.77783 0.30653 0.0
C215 C 0.46674 0.74663 0.34596 0.0
C216 C 0.48803 0.75881 0.39315 0.0
C217 C 0.54064 0.8181 0.31432 0.0
N218 N 0.56364 0.82559 0.35917 0.0
H219 H 0.55136 0.80939 0.43575 0.0
H220 H 0.55926 0.84284 0.28381 0.0
H221 H 0.60765 0.78913 0.44888 0.0
H222 H 0.71585 0.85249 0.33764 0.0
O223 O 0.63085 0.8961 0.43496 0.0
O224 O 0.69731 0.93306 0.38644 0.0
O225 O 0.6482 0.87031 0.29611 0.0
C226 C 0.67696 0.9308 0.42917 0.0
H227 H 0.63081 0.0242 0.28543 0.0
H228 H 0.65432 0.73786 0.44296 0.0
H229 H 0.47679 0.77103 0.26993 0.0
H230 H 0.4681 0.73668 0.42496 0.0
Co231 Co 0.78079 0.63967 0.69901 0.0
C232 C 0.66883 0.58018 0.70083 0.0
C233 C 0.69789 0.64544 0.65555 0.0
C234 C 0.64689 0.6228 0.65507 0.0
N235 N 0.7118 0.61824 0.68334 0.0
N236 N 0.62869 0.58165 0.68332 0.0
H237 H 0.66645 0.55311 0.72717 0.0
H238 H 0.72337 0.67977 0.63704 0.0
C239 C 0.7736 0.62598 0.5905 0.0
O240 O 0.72999 0.58652 0.59894 0.0
N241 N 0.8499 0.66334 0.71443 0.0
C242 C 0.86714 0.64583 0.7504 0.0
C243 C 0.91716 0.66338 0.74245 0.0
C244 C 0.88962 0.69182 0.68556 0.0
N245 N 0.93092 0.69184 0.70145 0.0
C246 C 0.74359 0.53455 0.72271 0.0
C247 C 0.79665 0.51931 0.64927 0.0
C248 C 0.76581 0.47913 0.67966 0.0
C249 C 0.73904 0.48721 0.71702 0.0
C250 C 0.80115 0.56578 0.65716 0.0
N251 N 0.77236 0.57264 0.69118 0.0
H252 H 0.7256 0.54095 0.7537 0.0
H253 H 0.82895 0.59653 0.63601 0.0
H254 H 0.84427 0.61955 0.77848 0.0
H255 H 0.88778 0.70929 0.65167 0.0
O256 O 0.76532 0.63841 0.76861 0.0
O257 O 0.78743 0.70279 0.71874 0.0
O258 O 0.79854 0.6541 0.62653 0.0
C259 C 0.77242 0.68321 0.76228 0.0
H260 H 0.62484 0.63526 0.63498 0.0
H261 H 0.9411 0.65438 0.764 0.0
H262 H 0.81817 0.51537 0.61987 0.0
H263 H 0.71616 0.45775 0.74263 0.0
Co264 Co 0.14564 0.76147 0.02734 0.0
C265 C 0.08877 0.65024 0.02114 0.0
C266 C 0.05625 0.68503 0.97838 0.0
C267 C 0.02525 0.63436 0.97623 0.0
N268 N 0.09658 0.6951 0.00581 0.0
N269 N 0.0456 0.61264 1.00347 0.0
H270 H 0.11252 0.64471 0.04629 0.0
H271 H 0.04935 0.71286 0.96189 0.0
C272 C 0.15006 0.76584 0.91711 0.0
O273 O 0.14716 0.72202 0.91821 0.0
N274 N 0.19287 0.82752 0.04915 0.0
C275 C 0.22788 0.83967 0.08426 0.0
C276 C 0.26009 0.89029 0.08232 0.0
C277 C 0.20348 0.87058 0.02696 0.0
N278 N 0.24466 0.90931 0.04609 0.0
C279 C 0.20919 0.71915 0.04764 0.0
C280 C 0.27946 0.77192 0.97604 0.0
C281 C 0.28656 0.73891 0.00581 0.0
C282 C 0.25098 0.71293 0.04266 0.0
C283 C 0.23796 0.77781 0.983 0.0
N284 N 0.20172 0.74959 0.01654 0.0
H285 H 0.18404 0.70107 0.07801 0.0
H286 H 0.23632 0.80663 0.96221 0.0
H287 H 0.23134 0.81325 0.10766 0.0
H288 H 0.18346 0.87328 0.99548 0.0
O289 O 0.12955 0.74008 0.09553 0.0
O290 O 0.09119 0.7702 0.04976 0.0
O291 O 0.1506 0.78738 0.95759 0.0
C292 C 0.09426 0.75125 0.09153 0.0
H293 H 0.99062 0.61508 0.95596 0.0
H294 H 0.29321 0.9112 0.1045 0.0
H295 H 0.30626 0.79393 0.94788 0.0
H296 H 0.25613 0.68937 0.06872 0.0
Co297 Co 0.39795 0.15113 0.37502 0.0
C298 C 0.45322 0.09645 0.36229 0.0
C299 C 0.38962 0.06951 0.31446 0.0
C300 C 0.40995 0.03903 0.30943 0.0
N301 N 0.41668 0.10531 0.34759 0.0
N302 N 0.44955 0.05577 0.33982 0.0
H303 H 0.48055 0.11796 0.39023 0.0
H304 H 0.35638 0.06492 0.29652 0.0
C305 C 0.38948 0.20521 0.28884 0.0
O306 O 0.41521 0.24534 0.31583 0.0
N307 N 0.37509 0.19499 0.40205 0.0
C308 C 0.39558 0.23264 0.43504 0.0
C309 C 0.37045 0.25903 0.43298 0.0
C310 C 0.33548 0.19702 0.38366 0.0
N311 N 0.33321 0.23706 0.39987 0.0
C312 C 0.49507 0.23115 0.40478 0.0
C313 C 0.53607 0.25425 0.31137 0.0
C314 C 0.56337 0.28532 0.35072 0.0
C315 C 0.54264 0.2724 0.39824 0.0
C316 C 0.48839 0.21384 0.31961 0.0
N317 N 0.46667 0.20522 0.36527 0.0
H318 H 0.48124 0.22 0.44177 0.0
H319 H 0.46857 0.18996 0.28884 0.0
H320 H 0.42758 0.2424 0.45778 0.0
H321 H 0.31224 0.17291 0.35436 0.0
O322 O 0.40518 0.13097 0.44031 0.0
O323 O 0.33534 0.09428 0.39692 0.0
O324 O 0.37879 0.16244 0.3062 0.0
C325 C 0.35932 0.09524 0.43688 0.0
H326 H 0.3966 1.00694 0.28541 0.0
H327 H 0.38087 0.29365 0.45197 0.0
H328 H 0.55132 0.26121 0.27436 0.0
H329 H 0.56236 0.29439 0.43016 0.0
Co330 Co 0.27038 0.38602 0.69856 0.0
C331 C 0.3812 0.44232 0.70153 0.0
C332 C 0.3515 0.38222 0.64909 0.0
C333 C 0.40241 0.40414 0.64866 0.0
N334 N 0.33829 0.40624 0.68194 0.0
N335 N 0.42098 0.44157 0.68184 0.0
H336 H 0.38325 0.46813 0.72967 0.0
H337 H 0.32571 0.35055 0.6273 0.0
C338 C 0.22834 0.39252 0.60273 0.0
O339 O 0.20881 0.4155 0.62706 0.0
N340 N 0.20025 0.36136 0.71411 0.0
C341 C 0.17876 0.36836 0.75445 0.0
C342 C 0.12767 0.34243 0.74849 0.0
C343 C 0.16155 0.32821 0.68636 0.0
N344 N 0.11711 0.31799 0.70508 0.0
C345 C 0.27562 0.47799 0.73226 0.0
C346 C 0.31676 0.53084 0.64635 0.0
C347 C 0.30083 0.55198 0.68269 0.0
C348 C 0.282 0.52589 0.727 0.0
C349 C 0.31015 0.4832 0.65336 0.0
N350 N 0.28606 0.45567 0.69422 0.0
H351 H 0.26246 0.45917 0.76695 0.0
H352 H 0.32261 0.46758 0.62472 0.0
H353 H 0.19809 0.38932 0.78682 0.0
H354 H 0.16569 0.31133 0.65307 0.0
O355 O 0.28506 0.38414 0.76732 0.0
O356 O 0.26105 0.32096 0.71504 0.0
O357 O 0.25356 0.37639 0.62586 0.0
C358 C 0.27548 0.33877 0.75935 0.0
H359 H 0.42418 0.39402 0.62497 0.0
H360 H 0.10044 0.3421 0.77384 0.0
H361 H 0.3336 0.5507 0.61248 0.0
H362 H 0.2711 0.5418 0.75683 0.0
Co363 Co 0.88229 0.25227 0.04001 0.0
C364 C 0.93292 0.36455 0.0324 0.0
C365 C 0.96521 0.33127 0.98695 0.0
C366 C 0.99267 0.3819 0.98136 0.0
N367 N 0.92698 0.32001 0.01808 0.0
N368 N 0.9723 0.40281 0.00977 0.0
H369 H 0.911 0.36961 0.06019 0.0
H370 H 0.97283 0.3042 0.96971 0.0
C371 C 0.86974 0.24884 0.9308 0.0
O372 O 0.87122 0.29196 0.93309 0.0
N373 N 0.8404 0.1841 0.06028 0.0
C374 C 0.80723 0.16578 0.09752 0.0
C375 C 0.78087 0.11441 0.0934 0.0
C376 C 0.83429 0.14416 0.03457 0.0
N377 N 0.79798 0.10129 0.05355 0.0
C378 C 0.81655 0.29171 0.0644 0.0
C379 C 0.7427 0.23269 0.99818 0.0
C380 C 0.73721 0.26832 0.02511 0.0
C381 C 0.77444 0.29746 0.05946 0.0
C382 C 0.78491 0.22808 0.0046 0.0
N383 N 0.82296 0.25955 0.03478 0.0
H384 H 0.8431 0.31199 0.09311 0.0
H385 H 0.78632 0.1982 0.98591 0.0
H386 H 0.80091 0.18819 0.12408 0.0
H387 H 0.85465 0.14627 1.00134 0.0
O388 O 0.90059 0.27261 0.10779 0.0
O389 O 0.94051 0.24783 0.05715 0.0
O390 O 0.87419 0.22827 0.96968 0.0
C391 C 0.93759 0.26451 0.1004 0.0
H392 H 0.0251 0.40186 0.95803 0.0
H393 H 0.74965 0.08901 0.116 0.0
H394 H 0.71432 0.20804 0.97246 0.0
H395 H 0.7704 0.32329 0.08338 0.0
C396 C 0.02732 0.3003 0.12169 0.0
C397 C 0.97748 0.27885 0.13737 0.0
C398 C 0.06662 0.32001 0.15583 0.0
C399 C 0.05725 0.31727 0.20678 0.0
H400 H 0.03617 0.30404 0.08268 0.0
H401 H 0.10458 0.33825 0.14228 0.0
S402 S 0.93345 0.26288 0.26684 0.0
N403 N 0.92093 0.25526 0.20717 0.0
N404 N 0.9947 0.29035 0.27142 0.0
C405 C 1.00758 0.29411 0.22301 0.0
C406 C 0.96766 0.27541 0.18824 0.0
C407 C 0.72954 0.01973 0.45418 0.0
C408 C 0.70266 0.96913 0.46751 0.0
C409 C 0.74806 0.05733 0.49028 0.0
C410 C 0.74179 0.04548 0.54081 0.0
H411 H 0.73417 0.03037 0.41562 0.0
H412 H 0.76689 0.09591 0.4786 0.0
S413 S 0.67618 0.91863 0.59474 0.0
N414 N 0.67142 0.90916 0.53449 0.0
N415 N 0.70822 0.97964 0.6023 0.0
C416 C 0.71676 0.99501 0.55453 0.0
C417 C 0.69663 0.95685 0.51785 0.0
C418 C 0.73907 0.71716 0.88615 0.0
C419 C 0.71079 0.73946 0.87224 0.0
C420 C 0.76036 0.70026 0.85044 0.0
C421 C 0.75561 0.70671 0.79971 0.0
H422 H 0.74263 0.71045 0.92477 0.0
H423 H 0.7799 0.68123 0.86257 0.0
S424 S 0.68743 0.7653 0.74442 0.0
N425 N 0.68016 0.76811 0.8045 0.0
N426 N 0.72189 0.73858 0.73765 0.0
C427 C 0.72929 0.73099 0.78556 0.0
C428 C 0.70642 0.74677 0.82176 0.0
C429 C 0.06844 0.74408 0.1803 0.0
C430 C 0.05562 0.73711 0.13 0.0
C431 C 0.03149 0.72741 0.2171 0.0
C432 C 0.98056 0.70177 0.20474 0.0
H433 H 0.10721 0.76209 0.19125 0.0
H434 H 0.04284 0.73253 0.25547 0.0
S435 S 0.9277 0.67352 0.0784 0.0
N436 N 0.98859 0.70376 0.06978 0.0
N437 N 0.91938 0.67058 0.13878 0.0
C438 C 0.9674 0.69493 0.1546 0.0
C439 C 1.0049 0.71311 0.11724 0.0
C440 C 0.29118 0.03373 0.49315 0.0
C441 C 0.33929 0.05368 0.47291 0.0
C442 C 0.27347 0.9949 0.52831 0.0
C443 C 0.30267 0.97373 0.54279 0.0
H444 H 0.26756 0.04878 0.48244 0.0
H445 H 0.2365 0.98082 0.54356 0.0
S446 S 0.43052 0.01186 0.49917 0.0
N447 N 0.41544 0.04921 0.46983 0.0
N448 N 0.38183 0.97566 0.53371 0.0
C449 C 0.35044 0.99304 0.52206 0.0
C450 C 0.36881 0.03314 0.48766 0.0
C451 C 0.31522 0.28919 0.78535 0.0
C452 C 0.28671 0.31171 0.79745 0.0
C453 C 0.33404 0.27118 0.82237 0.0
C454 C 0.32355 0.27367 0.87247 0.0
H455 H 0.32538 0.288 0.74729 0.0
H456 H 0.35772 0.25611 0.81181 0.0
S457 S 0.24841 0.32695 0.92286 0.0
N458 N 0.24797 0.33454 0.86258 0.0
N459 N 0.28121 0.29877 0.93192 0.0
C460 C 0.29312 0.29403 0.8847 0.0
C461 C 0.27526 0.3136 0.84721 0.0
C462 C 0.18391 0.39868 0.47445 0.0
C463 C 0.21075 0.38348 0.44431 0.0
C464 C 0.19017 0.40146 0.52554 0.0
C465 C 0.22202 0.38732 0.54861 0.0
H466 H 0.15931 0.41038 0.45838 0.0
H467 H 0.16983 0.41508 0.54699 0.0
S468 S 0.29868 0.34216 0.48523 0.0
N469 N 0.26964 0.3533 0.44013 0.0
N470 N 0.27978 0.35604 0.53685 0.0
C471 C 0.24802 0.37055 0.51874 0.0
C472 C 0.24268 0.36914 0.46639 0.0
C473 C 0.78595 0.15099 0.83985 0.0
C474 C 0.8092 0.17147 0.79459 0.0
C475 C 0.80802 0.1742 0.88448 0.0
C476 C 0.85288 0.21984 0.88505 0.0
H477 H 0.74948 0.11789 0.84064 0.0
H478 H 0.78811 0.15782 0.91829 0.0
S479 S 0.93173 0.28613 0.77774 0.0
N480 N 0.88338 0.23651 0.75396 0.0
N481 N 0.92209 0.28249 0.83787 0.0
C482 C 0.87786 0.23932 0.84058 0.0
C483 C 0.85669 0.21444 0.79523 0.0
C484 C 0.64876 0.79217 0.19675 0.0
C485 C 0.64223 0.82945 0.21937 0.0
C486 C 0.64768 0.78728 0.14531 0.0
C487 C 0.63878 0.81873 0.11466 0.0
H488 H 0.65394 0.76602 0.21902 0.0
H489 H 0.65211 0.75747 0.12965 0.0
S490 S 0.62068 0.9233 0.15586 0.0
N491 N 0.62861 0.89966 0.20736 0.0
N492 N 0.62466 0.88947 0.11085 0.0
C493 C 0.63297 0.85673 0.13689 0.0
C494 C 0.63533 0.86245 0.1892 0.0
C495 C 0.78476 0.58304 0.51838 0.0
C496 C 0.79954 0.62782 0.54399 0.0
C497 C 0.81104 0.58137 0.47728 0.0
C498 C 0.85254 0.62458 0.45925 0.0
H499 H 0.75339 0.54838 0.53091 0.0
H500 H 0.79819 0.54586 0.45906 0.0
S501 S 0.90596 0.75156 0.51148 0.0
N502 N 0.85863 0.71665 0.54825 0.0
N503 N 0.90679 0.71373 0.46885 0.0
C504 C 0.86728 0.66991 0.48348 0.0
C505 C 0.84119 0.67145 0.52648 0.0
C506 C 0.18172 0.8454 0.86864 0.0
C507 C 0.16002 0.79306 0.86949 0.0
C508 C 0.19716 0.8722 0.82407 0.0
C509 C 0.19157 0.84754 0.77896 0.0
H510 H 0.18886 0.86609 0.90276 0.0
H511 H 0.21586 0.91249 0.82525 0.0
S512 S 0.12972 0.71083 0.75989 0.0
N513 N 0.12844 0.71756 0.82022 0.0
N514 N 0.15762 0.76775 0.73704 0.0
C515 C 0.16715 0.79518 0.779 0.0
C516 C 0.15135 0.76799 0.82409 0.0
C517 C 0.37677 0.19165 0.14962 0.0
C518 C 0.37916 0.23667 0.13605 0.0
C519 C 0.37626 0.17926 0.19969 0.0
C520 C 0.37803 0.21161 0.23725 0.0
H521 H 0.37905 0.16781 0.12164 0.0
H522 H 0.37803 0.1461 0.2089 0.0
S523 S 0.37442 0.32882 0.21971 0.0
N524 N 0.37638 0.3099 0.16321 0.0
N525 N 0.37424 0.28648 0.2569 0.0
C526 C 0.37562 0.25427 0.22363 0.0
C527 C 0.37657 0.26689 0.17304 0.0
C528 C 1.01278 0.52715 0.37739 0.0
C529 C 1.00007 0.54138 0.33293 0.0
C530 C 0.03179 0.49455 0.37775 0.0
C531 C 0.03959 0.47556 0.33361 0.0
H532 H 1.00781 0.54134 0.41221 0.0
H533 H 0.04114 0.48459 0.41285 0.0
S534 S 1.01226 0.50126 0.20731 0.0
N535 N 0.99621 0.53398 0.24359 0.0
N536 N 0.03264 0.47268 0.24421 0.0
C537 C 0.02712 0.48945 0.28878 0.0
C538 C 1.00698 0.52223 0.28847 0.0
C539 C 0.54343 0.02026 0.6365 0.0
C540 C 0.57104 0.0304 0.6804 0.0
C541 C 0.49129 0.99873 0.63778 0.0
C542 C 0.46556 0.98775 0.68301 0.0
H543 H 0.56219 0.02792 0.60117 0.0
H544 H 0.47098 0.99118 0.6034 0.0
S545 S 0.52122 1.00812 0.80788 0.0
N546 N 0.56917 0.02842 0.7699 0.0
N547 N 0.47158 0.98848 0.77238 0.0
C548 C 0.493 0.99831 0.72695 0.0
C549 C 0.54566 0.01952 0.72562 0.0
C550 C 0.49441 0.47887 0.96046 0.0
C551 C 0.47105 0.45421 0.00446 0.0
C552 C 0.52742 0.5305 0.96003 0.0
C553 C 0.53866 0.55842 1.00379 0.0
H554 H 0.48672 0.45811 0.92631 0.0
H555 H 0.5453 0.54853 0.92577 0.0
S556 S 0.48753 0.51126 0.12825 0.0
N557 N 0.46131 0.46148 0.09249 0.0
N558 N 0.52368 0.55819 0.09172 0.0
C559 C 0.51543 0.53415 0.04778 0.0
C560 C 0.4815 0.48205 0.04812 0.0
C561 C 0.56516 0.04546 0.34503 0.0
C562 C 0.5461 0.99359 0.34615 0.0
C563 C 0.53343 0.0657 0.34532 0.0
C564 C 0.48152 0.03474 0.34597 0.0
H565 H 0.60495 0.07054 0.34294 0.0
H566 H 0.54947 0.10571 0.34284 0.0
S567 S 0.41281 0.89689 0.35358 0.0
N568 N 0.47201 0.91192 0.3512 0.0
N569 N 0.41238 0.95006 0.35195 0.0
C570 C 0.46198 0.98298 0.34932 0.0
C571 C 0.49428 0.96237 0.34947 0.0
C572 C 0.54132 0.56169 0.69231 0.0
C573 C 0.57684 0.54584 0.69042 0.0
C574 C 0.49017 0.52728 0.6925 0.0
C575 C 0.47286 0.4759 0.69033 0.0
H576 H 0.55322 0.60103 0.69228 0.0
H577 H 0.46403 0.54096 0.6917 0.0
S578 S 0.5501 0.4149 0.68997 0.0
N579 N 0.59082 0.47509 0.68969 0.0
N580 N 0.49471 0.41057 0.69108 0.0
C581 C 0.50784 0.45951 0.69127 0.0
C582 C 0.55986 0.49444 0.69114 0.0
C583 C 0.04128 0.48957 0.01126 0.0
C584 C 0.9899 0.45539 0.01399 0.0
C585 C 0.05927 0.54094 0.00967 0.0
C586 C 0.02653 0.5601 0.01033 0.0
H587 H 0.0678 0.47641 0.00948 0.0
H588 H 0.09898 0.56577 0.00597 0.0
S589 S 0.88896 0.48689 0.02186 0.0
N590 N 0.90666 0.44457 0.02017 0.0
N591 N 0.94062 0.54133 0.01822 0.0
C592 C 0.97521 0.52656 0.01528 0.0
C593 C 0.95686 0.47415 0.01701 0.0
C594 C 0.31484 0.33307 0.33282 0.0
C595 C 0.26627 0.30508 0.3139 0.0
C596 C 0.33564 0.31104 0.36257 0.0
C597 C 0.30882 0.26002 0.37436 0.0
H598 H 0.33679 0.37249 0.32495 0.0
H599 H 0.3736 0.33388 0.37519 0.0
S600 S 0.1797 0.17083 0.33537 0.0
N601 N 0.19141 0.22417 0.31009 0.0
N602 N 0.23064 0.18248 0.36582 0.0
C603 C 0.26 0.23176 0.35617 0.0
C604 C 0.23867 0.25437 0.32615 0.0
C605 C 0.97868 0.23697 0.68885 0.0
C606 C 0.97148 0.24345 0.63861 0.0
C607 C 0.02631 0.26079 0.71017 0.0
C608 C 0.0689 0.29055 0.68174 0.0
H609 H 0.94725 0.21464 0.71246 0.0
H610 H 0.02984 0.25616 0.74929 0.0
S611 S 0.07104 0.31223 0.54669 0.0
N612 N 1.01147 0.2769 0.55991 0.0
N613 N 0.10104 0.32127 0.59945 0.0
C614 C 0.06255 0.29456 0.63074 0.0
C615 C 1.01391 0.27103 0.60931 0.0
C616 C 0.76645 0.04853 0.97936 0.0
C617 C 0.7764 0.0532 0.03028 0.0
C618 C 0.74355 1.00188 0.95619 0.0
C619 C 0.73012 0.95795 0.98286 0.0
H620 H 0.77531 0.08114 0.9575 0.0
H621 H 0.73585 1.00019 0.91706 0.0
S622 S 0.75396 0.95178 0.11674 0.0
N623 N 0.77499 1.01146 0.10619 0.0
N624 N 0.73216 0.92343 0.06337 0.0
C625 C 0.74192 0.9626 0.03376 0.0
C626 C 0.76481 1.01027 0.05729 0.0
C627 C 0.75718 0.74628 0.29216 0.0
C628 C 0.77617 0.72199 0.32138 0.0
C629 C 0.73307 0.76997 0.31356 0.0
C630 C 0.7264 0.76976 0.36505 0.0
H631 H 0.76089 0.74679 0.25239 0.0
H632 H 0.71821 0.78728 0.28943 0.0
S633 S 0.76907 0.71122 0.45799 0.0
N634 N 0.78634 0.69886 0.40459 0.0
N635 N 0.74185 0.7441 0.4447 0.0
C636 C 0.74571 0.74608 0.39472 0.0
C637 C 0.77043 0.7221 0.37296 0.0
C638 C 0.0477 0.78297 0.63495 0.0
C639 C 0.07187 0.75523 0.6269 0.0
C640 C 1.00112 0.76173 0.65845 0.0
C641 C 0.97789 0.71251 0.67599 0.0
H642 H 0.06531 0.82152 0.62336 0.0
H643 H 0.98371 0.78427 0.66421 0.0
S644 S 0.02514 0.62389 0.66335 0.0
N645 N 0.06861 0.67569 0.63748 0.0
N646 N 0.98142 0.636 0.68208 0.0
C647 C 1.00135 0.68421 0.66765 0.0
C648 C 0.04826 0.7055 0.64296 0.0
C649 C 0.26804 0.03171 0.99518 0.0
C650 C 0.31896 0.05541 0.98333 0.0
C651 C 0.24392 0.98386 0.01581 0.0
C652 C 0.27031 0.95888 0.02643 0.0
H653 H 0.24677 0.05018 0.98788 0.0
H654 H 0.20451 0.96633 0.02394 0.0
S655 S 0.40428 1.0052 1.00299 0.0
N656 N 0.39505 0.0507 0.98397 0.0
N657 N 0.34975 0.96085 0.02315 0.0
C658 C 0.32129 0.98233 0.01511 0.0
C659 C 0.34563 0.03062 0.99339 0.0
C660 C 0.41569 0.66553 0.30257 0.0
C661 C 0.41843 0.70066 0.33721 0.0
C662 C 0.37129 0.62059 0.29495 0.0
C663 C 0.32761 0.60914 0.32132 0.0
H664 H 0.44858 0.67226 0.28213 0.0
H665 H 0.3717 0.59397 0.26924 0.0
S666 S 0.31408 0.69182 0.4121 0.0
N667 N 0.3733 0.72291 0.39575 0.0
N668 N 0.28921 0.63926 0.38044 0.0
C669 C 0.32949 0.64503 0.35477 0.0
C670 C 0.37501 0.69053 0.36296 0.0
C671 C 0.71876 0.3851 0.6733 0.0
C672 C 0.76436 0.43035 0.67366 0.0
C673 C 0.71708 0.33918 0.66564 0.0
C674 C 0.76095 0.33681 0.65823 0.0
H675 H 0.6841 0.38521 0.67855 0.0
H676 H 0.68133 0.30525 0.66654 0.0
S677 S 0.88983 0.44447 0.6553 0.0
N678 N 0.85452 0.46933 0.66709 0.0
N679 N 0.85109 0.38417 0.64957 0.0
C680 C 0.80661 0.38191 0.6577 0.0
C681 C 0.80839 0.42828 0.66628 0.0
C682 C 0.42224 0.77477 0.98298 0.0
C683 C 0.42175 0.72927 0.98652 0.0
C684 C 0.37869 0.77747 0.98997 0.0
C685 C 0.33249 0.73457 0.99999 0.0
H686 H 0.45683 0.80875 0.97549 0.0
H687 H 0.38153 0.81375 0.98798 0.0
S688 S 0.31155 0.60577 0.01055 0.0
N689 N 0.37196 0.64031 1.0002 0.0
N690 N 0.28938 0.64458 0.01123 0.0
C691 C 0.33166 0.68862 1.00318 0.0
C692 C 0.37638 0.68615 0.99687 0.0
C693 C 0.61716 0.3627 0.3014 0.0
C694 C 0.61209 0.33162 0.3417 0.0
C695 C 0.66128 0.40802 0.29352 0.0
C696 C 0.70195 0.42405 0.32568 0.0
H697 H 0.58624 0.35269 0.27648 0.0
H698 H 0.66315 0.43133 0.26284 0.0
S699 S 0.71029 0.35583 0.43414 0.0
N700 N 0.6538 0.31928 0.41204 0.0
N701 N 0.73584 0.40521 0.39783 0.0
C702 C 0.69813 0.39323 0.36533 0.0
C703 C 0.65344 0.34686 0.37321 0.0
C704 C 0.32549 0.68437 0.70143 0.0
C705 C 0.30257 0.69216 0.66003 0.0
C706 C 0.32529 0.63927 0.70834 0.0
C707 C 0.30266 0.60032 0.67387 0.0
H708 H 0.34355 0.71329 0.72898 0.0
H709 H 0.343 0.63483 0.74092 0.0
S710 S 0.23584 0.60044 0.56026 0.0
N711 N 0.25518 0.65591 0.58486 0.0
N712 N 0.25592 0.57186 0.59736 0.0
C713 C 0.28015 0.60767 0.63206 0.0
C714 C 0.2799 0.65337 0.62521 0.0
C715 C 0.60036 0.22928 0.00976 0.0
C716 C 0.60044 0.27469 0.0053 0.0
C717 C 0.64448 0.22789 0.01678 0.0
C718 C 0.69101 0.27182 0.0193 0.0
H719 H 0.56575 0.19421 0.00766 0.0
H720 H 0.64194 0.19184 0.02059 0.0
S721 S 0.71229 0.4006 0.00894 0.0
N722 N 0.65127 0.36494 0.00404 0.0
N723 N 0.73463 0.3623 0.01579 0.0
C724 C 0.6919 0.31761 0.01458 0.0
C725 C 0.64665 0.31904 0.00761 0.0
loop_
_geom_bond_atom_site_label_1
_geom_bond_atom_site_label_2
_geom_bond_distance
_geom_bond_site_symmetry_2
_ccdc_geom_bond_type
Co0 N4 2.148 . S
Co0 N10 2.128 . S
Co0 N20 2.194 . S
Co0 O25 2.351 . S
Co0 O26 2.155 . S
Co0 O27 2.096 . S
C1 N4 1.301 . S
C1 N5 1.328 . S
C1 H6 0.930 . S
C2 C3 1.333 . S
C2 N4 1.317 . S
C2 H7 0.930 . S
C3 C2 1.333 . S
C3 N5 1.350 . S
C3 H29 0.931 . S
N4 Co0 2.148 . S
N4 C1 1.301 . S
N4 C2 1.317 . S
N5 C1 1.328 . S
N5 C3 1.350 . S
H6 C1 0.930 . S
H7 C2 0.930 . S
C8 O9 1.224 . S
C8 O27 1.247 . S
O9 C8 1.224 . S
N10 Co0 2.128 . S
N10 C11 1.355 . S
N10 C13 1.311 . S
C11 N10 1.355 . S
C11 C12 1.363 . S
C11 H23 0.929 . S
C12 C11 1.363 . S
C12 N14 1.375 . S
C12 H30 0.931 . S
C13 N10 1.311 . S
C13 N14 1.347 . S
C13 H24 0.929 . S
N14 C12 1.375 . S
N14 C13 1.347 . S
C15 C18 1.365 . S
C15 N20 1.328 . S
C15 H21 0.929 . S
C16 C17 1.362 . S
C16 C19 1.378 . S
C16 H31 0.929 . S
C17 C16 1.362 . S
C17 C18 1.366 . S
C18 C15 1.365 . S
C18 C17 1.366 . S
C18 H32 0.930 . S
C19 C16 1.378 . S
C19 N20 1.315 . S
C19 H22 0.930 . S
N20 Co0 2.194 . S
N20 C15 1.328 . S
N20 C19 1.315 . S
H21 C15 0.929 . S
H22 C19 0.930 . S
H23 C11 0.929 . S
H24 C13 0.929 . S
O25 Co0 2.351 . S
O25 C28 1.244 . S
O26 Co0 2.155 . S
O26 C28 1.240 . S
O27 Co0 2.096 . S
O27 C8 1.247 . S
C28 O25 1.244 . S
C28 O26 1.240 . S
H29 C3 0.931 . S
H30 C12 0.931 . S
H31 C16 0.929 . S
H32 C18 0.930 . S
Co33 N37 2.148 . S
Co33 N43 2.128 . S
Co33 N53 2.194 . S
Co33 O58 2.351 . S
Co33 O59 2.155 . S
Co33 O60 2.096 . S
C34 N37 1.301 . S
C34 N38 1.328 . S
C34 H39 0.930 . S
C35 C36 1.333 . S
C35 N37 1.317 . S
C35 H40 0.930 . S
C36 C35 1.333 . S
C36 N38 1.350 . S
C36 H62 0.931 . S
N37 Co33 2.148 . S
N37 C34 1.301 . S
N37 C35 1.317 . S
N38 C34 1.328 . S
N38 C36 1.350 . S
H39 C34 0.930 . S
H40 C35 0.930 . S
C41 O42 1.224 . S
C41 O60 1.247 . S
O42 C41 1.224 . S
N43 Co33 2.128 . S
N43 C44 1.355 . S
N43 C46 1.311 . S
C44 N43 1.355 . S
C44 C45 1.363 . S
C44 H56 0.929 . S
C45 C44 1.363 . S
C45 N47 1.375 . S
C45 H63 0.931 . S
C46 N43 1.311 . S
C46 N47 1.347 . S
C46 H57 0.929 . S
N47 C45 1.375 . S
N47 C46 1.347 . S
C48 C51 1.365 . S
C48 N53 1.328 . S
C48 H54 0.929 . S
C49 C50 1.362 . S
C49 C52 1.378 . S
C49 H64 0.929 . S
C50 C49 1.362 . S
C50 C51 1.366 . S
C51 C48 1.365 . S
C51 C50 1.366 . S
C51 H65 0.930 . S
C52 C49 1.378 . S
C52 N53 1.315 . S
C52 H55 0.930 . S
N53 Co33 2.194 . S
N53 C48 1.328 . S
N53 C52 1.315 . S
H54 C48 0.929 . S
H55 C52 0.930 . S
H56 C44 0.929 . S
H57 C46 0.929 . S
O58 Co33 2.351 . S
O58 C61 1.244 . S
O59 Co33 2.155 . S
O59 C61 1.240 . S
O60 Co33 2.096 . S
O60 C41 1.247 . S
C61 O58 1.244 . S
C61 O59 1.240 . S
H62 C36 0.931 . S
H63 C45 0.931 . S
H64 C49 0.929 . S
H65 C51 0.930 . S
Co66 N70 2.148 . S
Co66 N76 2.128 1_554 S
Co66 N86 2.194 1_554 S
Co66 O91 2.351 1_554 S
Co66 O92 2.155 1_554 S
Co66 O93 2.096 . S
C67 N70 1.301 1_556 S
C67 N71 1.328 1_556 S
C67 H72 0.930 . S
C68 C69 1.333 . S
C68 N70 1.317 . S
C68 H73 0.930 . S
C69 C68 1.333 . S
C69 N71 1.350 . S
C69 H95 0.931 . S
N70 Co66 2.148 . S
N70 C67 1.301 1_554 S
N70 C68 1.317 . S
N71 C67 1.328 1_554 S
N71 C69 1.350 . S
H72 C67 0.930 . S
H73 C68 0.930 . S
C74 O75 1.224 . S
C74 O93 1.247 . S
O75 C74 1.224 . S
N76 Co66 2.128 1_556 S
N76 C77 1.355 . S
N76 C79 1.311 1_556 S
C77 N76 1.355 . S
C77 C78 1.363 . S
C77 H89 0.929 . S
C78 C77 1.363 . S
C78 N80 1.375 . S
C78 H96 0.931 . S
C79 N76 1.311 1_554 S
C79 N80 1.347 1_554 S
C79 H90 0.929 . S
N80 C78 1.375 . S
N80 C79 1.347 1_556 S
C81 C84 1.365 . S
C81 N86 1.328 . S
C81 H87 0.929 . S
C82 C83 1.362 1_554 S
C82 C85 1.378 . S
C82 H97 0.929 . S
C83 C82 1.362 1_556 S
C83 C84 1.366 . S
C84 C81 1.365 . S
C84 C83 1.366 . S
C84 H98 0.930 . S
C85 C82 1.378 . S
C85 N86 1.315 1_554 S
C85 H88 0.930 . S
N86 Co66 2.194 1_556 S
N86 C81 1.328 . S
N86 C85 1.315 1_556 S
H87 C81 0.929 . S
H88 C85 0.930 . S
H89 C77 0.929 . S
H90 C79 0.929 . S
O91 Co66 2.351 1_556 S
O91 C94 1.244 . S
O92 Co66 2.155 1_556 S
O92 C94 1.240 . S
O93 Co66 2.096 . S
O93 C74 1.247 . S
C94 O91 1.244 . S
C94 O92 1.240 . S
H95 C69 0.931 . S
H96 C78 0.931 . S
H97 C82 0.929 . S
H98 C84 0.930 . S
Co99 N103 2.148 . S
Co99 N109 2.128 . S
Co99 N119 2.194 . S
Co99 O124 2.351 . S
Co99 O125 2.155 . S
Co99 O126 2.096 . S
C100 N103 1.301 . S
C100 N104 1.328 . S
C100 H105 0.930 . S
C101 C102 1.333 . S
C101 N103 1.317 . S
C101 H106 0.930 . S
C102 C101 1.333 . S
C102 N104 1.350 . S
C102 H128 0.931 . S
N103 Co99 2.148 . S
N103 C100 1.301 . S
N103 C101 1.317 . S
N104 C100 1.328 . S
N104 C102 1.350 . S
H105 C100 0.930 . S
H106 C101 0.930 . S
C107 O108 1.224 . S
C107 O126 1.247 . S
O108 C107 1.224 . S
N109 Co99 2.128 . S
N109 C110 1.355 . S
N109 C112 1.311 . S
C110 N109 1.355 . S
C110 C111 1.363 . S
C110 H122 0.929 . S
C111 C110 1.363 . S
C111 N113 1.375 . S
C111 H129 0.931 . S
C112 N109 1.311 . S
C112 N113 1.347 . S
C112 H123 0.929 . S
N113 C111 1.375 . S
N113 C112 1.347 . S
C114 C117 1.365 . S
C114 N119 1.328 . S
C114 H120 0.929 . S
C115 C116 1.362 . S
C115 C118 1.378 . S
C115 H130 0.929 . S
C116 C115 1.362 . S
C116 C117 1.366 . S
C117 C114 1.365 . S
C117 C116 1.366 . S
C117 H131 0.930 . S
C118 C115 1.378 . S
C118 N119 1.315 . S
C118 H121 0.930 . S
N119 Co99 2.194 . S
N119 C114 1.328 . S
N119 C118 1.315 . S
H120 C114 0.929 . S
H121 C118 0.930 . S
H122 C110 0.929 . S
H123 C112 0.929 . S
O124 Co99 2.351 . S
O124 C127 1.244 . S
O125 Co99 2.155 . S
O125 C127 1.240 . S
O126 Co99 2.096 . S
O126 C107 1.247 . S
C127 O124 1.244 . S
C127 O125 1.240 . S
H128 C102 0.931 . S
H129 C111 0.931 . S
H130 C115 0.929 . S
H131 C117 0.930 . S
Co132 N136 2.148 . S
Co132 N142 2.128 . S
Co132 N152 2.194 . S
Co132 O157 2.351 . S
Co132 O158 2.155 . S
Co132 O159 2.096 . S
C133 N136 1.301 . S
C133 N137 1.328 . S
C133 H138 0.930 . S
C134 C135 1.333 . S
C134 N136 1.317 . S
C134 H139 0.930 . S
C135 C134 1.333 . S
C135 N137 1.350 . S
C135 H161 0.931 . S
N136 Co132 2.148 . S
N136 C133 1.301 . S
N136 C134 1.317 . S
N137 C133 1.328 . S
N137 C135 1.350 . S
H138 C133 0.930 . S
H139 C134 0.930 . S
C140 O141 1.224 . S
C140 O159 1.247 . S
O141 C140 1.224 . S
N142 Co132 2.128 . S
N142 C143 1.355 . S
N142 C145 1.311 . S
C143 N142 1.355 . S
C143 C144 1.363 . S
C143 H155 0.929 . S
C144 C143 1.363 . S
C144 N146 1.375 . S
C144 H162 0.931 . S
C145 N142 1.311 . S
C145 N146 1.347 . S
C145 H156 0.929 . S
N146 C144 1.375 . S
N146 C145 1.347 . S
C147 C150 1.365 . S
C147 N152 1.328 . S
C147 H153 0.929 . S
C148 C149 1.362 . S
C148 C151 1.378 . S
C148 H163 0.929 . S
C149 C148 1.362 . S
C149 C150 1.366 . S
C150 C147 1.365 . S
C150 C149 1.366 . S
C150 H164 0.930 . S
C151 C148 1.378 . S
C151 N152 1.315 . S
C151 H154 0.930 . S
N152 Co132 2.194 . S
N152 C147 1.328 . S
N152 C151 1.315 . S
H153 C147 0.929 . S
H154 C151 0.930 . S
H155 C143 0.929 . S
H156 C145 0.929 . S
O157 Co132 2.351 . S
O157 C160 1.244 . S
O158 Co132 2.155 . S
O158 C160 1.240 . S
O159 Co132 2.096 . S
O159 C140 1.247 . S
C160 O157 1.244 . S
C160 O158 1.240 . S
H161 C135 0.931 . S
H162 C144 0.931 . S
H163 C148 0.929 . S
H164 C150 0.930 . S
Co165 N169 2.148 . S
Co165 N175 2.128 1_554 S
Co165 N185 2.194 1_554 S
Co165 O190 2.351 1_554 S
Co165 O191 2.155 1_554 S
Co165 O192 2.096 . S
C166 N169 1.301 1_556 S
C166 N170 1.328 1_556 S
C166 H171 0.930 . S
C167 C168 1.333 . S
C167 N169 1.317 . S
C167 H172 0.930 . S
C168 C167 1.333 . S
C168 N170 1.350 . S
C168 H194 0.931 . S
N169 Co165 2.148 . S
N169 C166 1.301 1_554 S
N169 C167 1.317 . S
N170 C166 1.328 1_554 S
N170 C168 1.350 . S
H171 C166 0.930 . S
H172 C167 0.930 . S
C173 O174 1.224 . S
C173 O192 1.247 . S
O174 C173 1.224 . S
N175 Co165 2.128 1_556 S
N175 C176 1.355 . S
N175 C178 1.311 1_556 S
C176 N175 1.355 . S
C176 C177 1.363 . S
C176 H188 0.929 . S
C177 C176 1.363 . S
C177 N179 1.375 . S
C177 H195 0.931 . S
C178 N175 1.311 1_554 S
C178 N179 1.347 1_554 S
C178 H189 0.929 . S
N179 C177 1.375 . S
N179 C178 1.347 1_556 S
C180 C183 1.365 . S
C180 N185 1.328 . S
C180 H186 0.929 . S
C181 C182 1.362 1_554 S
C181 C184 1.378 . S
C181 H196 0.929 . S
C182 C181 1.362 1_556 S
C182 C183 1.366 . S
C183 C180 1.365 . S
C183 C182 1.366 . S
C183 H197 0.930 . S
C184 C181 1.378 . S
C184 N185 1.315 1_554 S
C184 H187 0.930 . S
N185 Co165 2.194 1_556 S
N185 C180 1.328 . S
N185 C184 1.315 1_556 S
H186 C180 0.929 . S
H187 C184 0.930 . S
H188 C176 0.929 . S
H189 C178 0.929 . S
O190 Co165 2.351 1_556 S
O190 C193 1.244 . S
O191 Co165 2.155 1_556 S
O191 C193 1.240 . S
O192 Co165 2.096 . S
O192 C173 1.247 . S
C193 O190 1.244 . S
C193 O191 1.240 . S
H194 C168 0.931 . S
H195 C177 0.931 . S
H196 C181 0.929 . S
H197 C183 0.930 . S
Co198 N202 2.148 . S
Co198 N208 2.128 . S
Co198 N218 2.194 . S
Co198 O223 2.351 . S
Co198 O224 2.155 . S
Co198 O225 2.096 . S
C199 N202 1.301 . S
C199 N203 1.328 . S
C199 H204 0.930 . S
C200 C201 1.333 . S
C200 N202 1.317 . S
C200 H205 0.930 . S
C201 C200 1.333 . S
C201 N203 1.350 . S
C201 H227 0.931 . S
N202 Co198 2.148 . S
N202 C199 1.301 . S
N202 C200 1.317 . S
N203 C199 1.328 . S
N203 C201 1.350 . S
H204 C199 0.930 . S
H205 C200 0.930 . S
C206 O207 1.224 . S
C206 O225 1.247 . S
O207 C206 1.224 . S
N208 Co198 2.128 . S
N208 C209 1.355 . S
N208 C211 1.311 . S
C209 N208 1.355 . S
C209 C210 1.363 . S
C209 H221 0.929 . S
C210 C209 1.363 . S
C210 N212 1.375 . S
C210 H228 0.931 . S
C211 N208 1.311 . S
C211 N212 1.347 . S
C211 H222 0.929 . S
N212 C210 1.375 . S
N212 C211 1.347 . S
C213 C216 1.365 . S
C213 N218 1.328 . S
C213 H219 0.929 . S
C214 C215 1.362 . S
C214 C217 1.378 . S
C214 H229 0.929 . S
C215 C214 1.362 . S
C215 C216 1.366 . S
C216 C213 1.365 . S
C216 C215 1.366 . S
C216 H230 0.930 . S
C217 C214 1.378 . S
C217 N218 1.315 . S
C217 H220 0.930 . S
N218 Co198 2.194 . S
N218 C213 1.328 . S
N218 C217 1.315 . S
H219 C213 0.929 . S
H220 C217 0.930 . S
H221 C209 0.929 . S
H222 C211 0.929 . S
O223 Co198 2.351 . S
O223 C226 1.244 . S
O224 Co198 2.155 . S
O224 C226 1.240 . S
O225 Co198 2.096 . S
O225 C206 1.247 . S
C226 O223 1.244 . S
C226 O224 1.240 . S
H227 C201 0.931 . S
H228 C210 0.931 . S
H229 C214 0.929 . S
H230 C216 0.930 . S
Co231 N235 2.148 . S
Co231 N241 2.128 . S
Co231 N251 2.194 . S
Co231 O256 2.351 . S
Co231 O257 2.155 . S
Co231 O258 2.096 . S
C232 N235 1.301 . S
C232 N236 1.328 . S
C232 H237 0.930 . S
C233 C234 1.333 . S
C233 N235 1.317 . S
C233 H238 0.930 . S
C234 C233 1.333 . S
C234 N236 1.350 . S
C234 H260 0.931 . S
N235 Co231 2.148 . S
N235 C232 1.301 . S
N235 C233 1.317 . S
N236 C232 1.328 . S
N236 C234 1.350 . S
H237 C232 0.930 . S
H238 C233 0.930 . S
C239 O240 1.224 . S
C239 O258 1.247 . S
O240 C239 1.224 . S
N241 Co231 2.128 . S
N241 C242 1.355 . S
N241 C244 1.311 . S
C242 N241 1.355 . S
C242 C243 1.363 . S
C242 H254 0.929 . S
C243 C242 1.363 . S
C243 N245 1.375 . S
C243 H261 0.931 . S
C244 N241 1.311 . S
C244 N245 1.347 . S
C244 H255 0.929 . S
N245 C243 1.375 . S
N245 C244 1.347 . S
C246 C249 1.365 . S
C246 N251 1.328 . S
C246 H252 0.929 . S
C247 C248 1.362 . S
C247 C250 1.378 . S
C247 H262 0.929 . S
C248 C247 1.362 . S
C248 C249 1.366 . S
C249 C246 1.365 . S
C249 C248 1.366 . S
C249 H263 0.930 . S
C250 C247 1.378 . S
C250 N251 1.315 . S
C250 H253 0.930 . S
N251 Co231 2.194 . S
N251 C246 1.328 . S
N251 C250 1.315 . S
H252 C246 0.929 . S
H253 C250 0.930 . S
H254 C242 0.929 . S
H255 C244 0.929 . S
O256 Co231 2.351 . S
O256 C259 1.244 . S
O257 Co231 2.155 . S
O257 C259 1.240 . S
O258 Co231 2.096 . S
O258 C239 1.247 . S
C259 O256 1.244 . S
C259 O257 1.240 . S
H260 C234 0.931 . S
H261 C243 0.931 . S
H262 C247 0.929 . S
H263 C249 0.930 . S
Co264 N268 2.148 . S
Co264 N274 2.128 1_556 S
Co264 N284 2.194 1_556 S
Co264 O289 2.351 1_556 S
Co264 O290 2.155 1_556 S
Co264 O291 2.096 . S
C265 N268 1.301 1_554 S
C265 N269 1.328 1_554 S
C265 H270 0.930 . S
C266 C267 1.333 . S
C266 N268 1.317 . S
C266 H271 0.930 . S
C267 C266 1.333 . S
C267 N269 1.350 . S
C267 H293 0.931 . S
N268 Co264 2.148 . S
N268 C265 1.301 1_556 S
N268 C266 1.317 . S
N269 C265 1.328 1_556 S
N269 C267 1.350 . S
H270 C265 0.930 . S
H271 C266 0.930 . S
C272 O273 1.224 . S
C272 O291 1.247 . S
O273 C272 1.224 . S
N274 Co264 2.128 1_554 S
N274 C275 1.355 . S
N274 C277 1.311 1_554 S
C275 N274 1.355 . S
C275 C276 1.363 . S
C275 H287 0.929 . S
C276 C275 1.363 . S
C276 N278 1.375 . S
C276 H294 0.931 . S
C277 N274 1.311 1_556 S
C277 N278 1.347 1_556 S
C277 H288 0.929 . S
N278 C276 1.375 . S
N278 C277 1.347 1_554 S
C279 C282 1.365 . S
C279 N284 1.328 . S
C279 H285 0.929 . S
C280 C281 1.362 1_556 S
C280 C283 1.378 . S
C280 H295 0.929 . S
C281 C280 1.362 1_554 S
C281 C282 1.366 . S
C282 C279 1.365 . S
C282 C281 1.366 . S
C282 H296 0.930 . S
C283 C280 1.378 . S
C283 N284 1.315 1_556 S
C283 H286 0.930 . S
N284 Co264 2.194 1_554 S
N284 C279 1.328 . S
N284 C283 1.315 1_554 S
H285 C279 0.929 . S
H286 C283 0.930 . S
H287 C275 0.929 . S
H288 C277 0.929 . S
O289 Co264 2.351 1_554 S
O289 C292 1.244 . S
O290 Co264 2.155 1_554 S
O290 C292 1.240 . S
O291 Co264 2.096 . S
O291 C272 1.247 . S
C292 O289 1.244 . S
C292 O290 1.240 . S
H293 C267 0.931 . S
H294 C276 0.931 . S
H295 C280 0.929 . S
H296 C282 0.930 . S
Co297 N301 2.148 . S
Co297 N307 2.128 . S
Co297 N317 2.194 . S
Co297 O322 2.351 . S
Co297 O323 2.155 . S
Co297 O324 2.096 . S
C298 N301 1.301 . S
C298 N302 1.328 . S
C298 H303 0.930 . S
C299 C300 1.333 . S
C299 N301 1.317 . S
C299 H304 0.930 . S
C300 C299 1.333 . S
C300 N302 1.350 . S
C300 H326 0.931 . S
N301 Co297 2.148 . S
N301 C298 1.301 . S
N301 C299 1.317 . S
N302 C298 1.328 . S
N302 C300 1.350 . S
H303 C298 0.930 . S
H304 C299 0.930 . S
C305 O306 1.224 . S
C305 O324 1.247 . S
O306 C305 1.224 . S
N307 Co297 2.128 . S
N307 C308 1.355 . S
N307 C310 1.311 . S
C308 N307 1.355 . S
C308 C309 1.363 . S
C308 H320 0.929 . S
C309 C308 1.363 . S
C309 N311 1.375 . S
C309 H327 0.931 . S
C310 N307 1.311 . S
C310 N311 1.347 . S
C310 H321 0.929 . S
N311 C309 1.375 . S
N311 C310 1.347 . S
C312 C315 1.365 . S
C312 N317 1.328 . S
C312 H318 0.929 . S
C313 C314 1.362 . S
C313 C316 1.378 . S
C313 H328 0.929 . S
C314 C313 1.362 . S
C314 C315 1.366 . S
C315 C312 1.365 . S
C315 C314 1.366 . S
C315 H329 0.930 . S
C316 C313 1.378 . S
C316 N317 1.315 . S
C316 H319 0.930 . S
N317 Co297 2.194 . S
N317 C312 1.328 . S
N317 C316 1.315 . S
H318 C312 0.929 . S
H319 C316 0.930 . S
H320 C308 0.929 . S
H321 C310 0.929 . S
O322 Co297 2.351 . S
O322 C325 1.244 . S
O323 Co297 2.155 . S
O323 C325 1.240 . S
O324 Co297 2.096 . S
O324 C305 1.247 . S
C325 O322 1.244 . S
C325 O323 1.240 . S
H326 C300 0.931 . S
H327 C309 0.931 . S
H328 C313 0.929 . S
H329 C315 0.930 . S
Co330 N334 2.148 . S
Co330 N340 2.128 . S
Co330 N350 2.194 . S
Co330 O355 2.351 . S
Co330 O356 2.155 . S
Co330 O357 2.096 . S
C331 N334 1.301 . S
C331 N335 1.328 . S
C331 H336 0.930 . S
C332 C333 1.333 . S
C332 N334 1.317 . S
C332 H337 0.930 . S
C333 C332 1.333 . S
C333 N335 1.350 . S
C333 H359 0.931 . S
N334 Co330 2.148 . S
N334 C331 1.301 . S
N334 C332 1.317 . S
N335 C331 1.328 . S
N335 C333 1.350 . S
H336 C331 0.930 . S
H337 C332 0.930 . S
C338 O339 1.224 . S
C338 O357 1.247 . S
O339 C338 1.224 . S
N340 Co330 2.128 . S
N340 C341 1.355 . S
N340 C343 1.311 . S
C341 N340 1.355 . S
C341 C342 1.363 . S
C341 H353 0.929 . S
C342 C341 1.363 . S
C342 N344 1.375 . S
C342 H360 0.931 . S
C343 N340 1.311 . S
C343 N344 1.347 . S
C343 H354 0.929 . S
N344 C342 1.375 . S
N344 C343 1.347 . S
C345 C348 1.365 . S
C345 N350 1.328 . S
C345 H351 0.929 . S
C346 C347 1.362 . S
C346 C349 1.378 . S
C346 H361 0.929 . S
C347 C346 1.362 . S
C347 C348 1.366 . S
C348 C345 1.365 . S
C348 C347 1.366 . S
C348 H362 0.930 . S
C349 C346 1.378 . S
C349 N350 1.315 . S
C349 H352 0.930 . S
N350 Co330 2.194 . S
N350 C345 1.328 . S
N350 C349 1.315 . S
H351 C345 0.929 . S
H352 C349 0.930 . S
H353 C341 0.929 . S
H354 C343 0.929 . S
O355 Co330 2.351 . S
O355 C358 1.244 . S
O356 Co330 2.155 . S
O356 C358 1.240 . S
O357 Co330 2.096 . S
O357 C338 1.247 . S
C358 O355 1.244 . S
C358 O356 1.240 . S
H359 C333 0.931 . S
H360 C342 0.931 . S
H361 C346 0.929 . S
H362 C348 0.930 . S
Co363 N367 2.148 . S
Co363 N373 2.128 1_556 S
Co363 N383 2.194 1_556 S
Co363 O388 2.351 1_556 S
Co363 O389 2.155 1_556 S
Co363 O390 2.096 . S
C364 N367 1.301 1_554 S
C364 N368 1.328 1_554 S
C364 H369 0.930 . S
C365 C366 1.333 . S
C365 N367 1.317 . S
C365 H370 0.930 . S
C366 C365 1.333 . S
C366 N368 1.350 . S
C366 H392 0.931 . S
N367 Co363 2.148 . S
N367 C364 1.301 1_556 S
N367 C365 1.317 . S
N368 C364 1.328 1_556 S
N368 C366 1.350 . S
H369 C364 0.930 . S
H370 C365 0.930 . S
C371 O372 1.224 . S
C371 O390 1.247 . S
O372 C371 1.224 . S
N373 Co363 2.128 1_554 S
N373 C374 1.355 . S
N373 C376 1.311 1_554 S
C374 N373 1.355 . S
C374 C375 1.363 . S
C374 H386 0.929 . S
C375 C374 1.363 . S
C375 N377 1.375 . S
C375 H393 0.931 . S
C376 N373 1.311 1_556 S
C376 N377 1.347 1_556 S
C376 H387 0.929 . S
N377 C375 1.375 . S
N377 C376 1.347 1_554 S
C378 C381 1.365 . S
C378 N383 1.328 . S
C378 H384 0.929 . S
C379 C380 1.362 1_556 S
C379 C382 1.378 . S
C379 H394 0.929 . S
C380 C379 1.362 1_554 S
C380 C381 1.366 . S
C381 C378 1.365 . S
C381 C380 1.366 . S
C381 H395 0.930 . S
C382 C379 1.378 . S
C382 N383 1.315 1_556 S
C382 H385 0.930 . S
N383 Co363 2.194 1_554 S
N383 C378 1.328 . S
N383 C382 1.315 1_554 S
H384 C378 0.929 . S
H385 C382 0.930 . S
H386 C374 0.929 . S
H387 C376 0.929 . S
O388 Co363 2.351 1_554 S
O388 C391 1.244 . S
O389 Co363 2.155 1_554 S
O389 C391 1.240 . S
O390 Co363 2.096 . S
O390 C371 1.247 . S
C391 O388 1.244 . S
C391 O389 1.240 . S
H392 C366 0.931 . S
H393 C375 0.931 . S
H394 C379 0.929 . S
H395 C381 0.930 . S
C396 C397 1.369 1_455 S
C396 C398 1.419 . S
C396 H400 0.930 . S
C397 C396 1.369 1_655 S
C397 C406 1.429 . S
C398 C396 1.419 . S
C398 C399 1.363 . S
C398 H401 0.929 . S
C399 C398 1.363 . S
C399 C405 1.428 1_455 S
H400 C396 0.930 . S
H401 C398 0.929 . S
S402 N403 1.613 . S
S402 N404 1.610 . S
N403 S402 1.613 . S
N403 C406 1.350 . S
N404 S402 1.610 . S
N404 C405 1.351 . S
C405 C399 1.428 1_655 S
C405 N404 1.351 . S
C405 C406 1.434 . S
C406 C397 1.429 . S
C406 N403 1.350 . S
C406 C405 1.434 . S
C407 C408 1.369 1_545 S
C407 C409 1.419 . S
C407 H411 0.930 . S
C408 C407 1.369 1_565 S
C408 C417 1.429 . S
C409 C407 1.419 . S
C409 C410 1.363 . S
C409 H412 0.929 . S
C410 C409 1.363 . S
C410 C416 1.428 1_545 S
H411 C407 0.930 . S
H412 C409 0.929 . S
S413 N414 1.613 . S
S413 N415 1.610 . S
N414 S413 1.613 . S
N414 C417 1.350 . S
N415 S413 1.610 . S
N415 C416 1.351 . S
C416 C410 1.428 1_565 S
C416 N415 1.351 . S
C416 C417 1.434 . S
C417 C408 1.429 . S
C417 N414 1.350 . S
C417 C416 1.434 . S
C418 C419 1.369 . S
C418 C420 1.419 . S
C418 H422 0.930 . S
C419 C418 1.369 . S
C419 C428 1.429 . S
C420 C418 1.419 . S
C420 C421 1.363 . S
C420 H423 0.929 . S
C421 C420 1.363 . S
C421 C427 1.428 . S
H422 C418 0.930 . S
H423 C420 0.929 . S
S424 N425 1.613 . S
S424 N426 1.610 . S
N425 S424 1.613 . S
N425 C428 1.350 . S
N426 S424 1.610 . S
N426 C427 1.351 . S
C427 C421 1.428 . S
C427 N426 1.351 . S
C427 C428 1.434 . S
C428 C419 1.429 . S
C428 N425 1.350 . S
C428 C427 1.434 . S
C429 C430 1.369 . S
C429 C431 1.419 . S
C429 H433 0.930 . S
C430 C429 1.369 . S
C430 C439 1.429 1_455 S
C431 C429 1.419 . S
C431 C432 1.363 1_455 S
C431 H434 0.929 . S
C432 C431 1.363 1_655 S
C432 C438 1.428 . S
H433 C429 0.930 . S
H434 C431 0.929 . S
S435 N436 1.613 . S
S435 N437 1.610 . S
N436 S435 1.613 . S
N436 C439 1.350 . S
N437 S435 1.610 . S
N437 C438 1.351 . S
C438 C432 1.428 . S
C438 N437 1.351 . S
C438 C439 1.434 . S
C439 C430 1.429 1_655 S
C439 N436 1.350 . S
C439 C438 1.434 . S
C440 C441 1.369 . S
C440 C442 1.419 1_545 S
C440 H444 0.930 . S
C441 C440 1.369 . S
C441 C450 1.429 . S
C442 C440 1.419 1_565 S
C442 C443 1.363 . S
C442 H445 0.929 . S
C443 C442 1.363 . S
C443 C449 1.428 . S
H444 C440 0.930 . S
H445 C442 0.929 . S
S446 N447 1.613 1_565 S
S446 N448 1.610 . S
N447 S446 1.613 1_545 S
N447 C450 1.350 . S
N448 S446 1.610 . S
N448 C449 1.351 . S
C449 C443 1.428 . S
C449 N448 1.351 . S
C449 C450 1.434 1_565 S
C450 C441 1.429 . S
C450 N447 1.350 . S
C450 C449 1.434 1_545 S
C451 C452 1.369 . S
C451 C453 1.419 . S
C451 H455 0.930 . S
C452 C451 1.369 . S
C452 C461 1.429 . S
C453 C451 1.419 . S
C453 C454 1.363 . S
C453 H456 0.929 . S
C454 C453 1.363 . S
C454 C460 1.428 . S
H455 C451 0.930 . S
H456 C453 0.929 . S
S457 N458 1.613 . S
S457 N459 1.610 . S
N458 S457 1.613 . S
N458 C461 1.350 . S
N459 S457 1.610 . S
N459 C460 1.351 . S
C460 C454 1.428 . S
C460 N459 1.351 . S
C460 C461 1.434 . S
C461 C452 1.429 . S
C461 N458 1.350 . S
C461 C460 1.434 . S
C462 C463 1.369 . S
C462 C464 1.419 . S
C462 H466 0.930 . S
C463 C462 1.369 . S
C463 C472 1.429 . S
C464 C462 1.419 . S
C464 C465 1.363 . S
C464 H467 0.929 . S
C465 C464 1.363 . S
C465 C471 1.428 . S
H466 C462 0.930 . S
H467 C464 0.929 . S
S468 N469 1.613 . S
S468 N470 1.610 . S
N469 S468 1.613 . S
N469 C472 1.350 . S
N470 S468 1.610 . S
N470 C471 1.351 . S
C471 C465 1.428 . S
C471 N470 1.351 . S
C471 C472 1.434 . S
C472 C463 1.429 . S
C472 N469 1.350 . S
C472 C471 1.434 . S
C473 C474 1.369 . S
C473 C475 1.419 . S
C473 H477 0.930 . S
C474 C473 1.369 . S
C474 C483 1.429 . S
C475 C473 1.419 . S
C475 C476 1.363 . S
C475 H478 0.929 . S
C476 C475 1.363 . S
C476 C482 1.428 . S
H477 C473 0.930 . S
H478 C475 0.929 . S
S479 N480 1.613 . S
S479 N481 1.610 . S
N480 S479 1.613 . S
N480 C483 1.350 . S
N481 S479 1.610 . S
N481 C482 1.351 . S
C482 C476 1.428 . S
C482 N481 1.351 . S
C482 C483 1.434 . S
C483 C474 1.429 . S
C483 N480 1.350 . S
C483 C482 1.434 . S
C484 C485 1.369 . S
C484 C486 1.419 . S
C484 H488 0.930 . S
C485 C484 1.369 . S
C485 C494 1.429 . S
C486 C484 1.419 . S
C486 C487 1.363 . S
C486 H489 0.929 . S
C487 C486 1.363 . S
C487 C493 1.428 . S
H488 C484 0.930 . S
H489 C486 0.929 . S
S490 N491 1.613 . S
S490 N492 1.610 . S
N491 S490 1.613 . S
N491 C494 1.350 . S
N492 S490 1.610 . S
N492 C493 1.351 . S
C493 C487 1.428 . S
C493 N492 1.351 . S
C493 C494 1.434 . S
C494 C485 1.429 . S
C494 N491 1.350 . S
C494 C493 1.434 . S
C495 C496 1.369 . S
C495 C497 1.419 . S
C495 H499 0.930 . S
C496 C495 1.369 . S
C496 C505 1.429 . S
C497 C495 1.419 . S
C497 C498 1.363 . S
C497 H500 0.929 . S
C498 C497 1.363 . S
C498 C504 1.428 . S
H499 C495 0.930 . S
H500 C497 0.929 . S
S501 N502 1.613 . S
S501 N503 1.610 . S
N502 S501 1.613 . S
N502 C505 1.350 . S
N503 S501 1.610 . S
N503 C504 1.351 . S
C504 C498 1.428 . S
C504 N503 1.351 . S
C504 C505 1.434 . S
C505 C496 1.429 . S
C505 N502 1.350 . S
C505 C504 1.434 . S
C506 C507 1.369 . S
C506 C508 1.419 . S
C506 H510 0.930 . S
C507 C506 1.369 . S
C507 C516 1.429 . S
C508 C506 1.419 . S
C508 C509 1.363 . S
C508 H511 0.929 . S
C509 C508 1.363 . S
C509 C515 1.428 . S
H510 C506 0.930 . S
H511 C508 0.929 . S
S512 N513 1.613 . S
S512 N514 1.610 . S
N513 S512 1.613 . S
N513 C516 1.350 . S
N514 S512 1.610 . S
N514 C515 1.351 . S
C515 C509 1.428 . S
C515 N514 1.351 . S
C515 C516 1.434 . S
C516 C507 1.429 . S
C516 N513 1.350 . S
C516 C515 1.434 . S
C517 C518 1.369 . S
C517 C519 1.419 . S
C517 H521 0.930 . S
C518 C517 1.369 . S
C518 C527 1.429 . S
C519 C517 1.419 . S
C519 C520 1.363 . S
C519 H522 0.929 . S
C520 C519 1.363 . S
C520 C526 1.428 . S
H521 C517 0.930 . S
H522 C519 0.929 . S
S523 N524 1.613 . S
S523 N525 1.610 . S
N524 S523 1.613 . S
N524 C527 1.350 . S
N525 S523 1.610 . S
N525 C526 1.351 . S
C526 C520 1.428 . S
C526 N525 1.351 . S
C526 C527 1.434 . S
C527 C518 1.429 . S
C527 N524 1.350 . S
C527 C526 1.434 . S
C528 C529 1.369 . S
C528 C530 1.419 1_655 S
C528 H532 0.930 . S
C529 C528 1.369 . S
C529 C538 1.429 . S
C530 C528 1.419 1_455 S
C530 C531 1.363 . S
C530 H533 0.929 . S
C531 C530 1.363 . S
C531 C537 1.428 . S
H532 C528 0.930 . S
H533 C530 0.929 . S
S534 N535 1.613 . S
S534 N536 1.610 1_655 S
N535 S534 1.613 . S
N535 C538 1.350 . S
N536 S534 1.610 1_455 S
N536 C537 1.351 . S
C537 C531 1.428 . S
C537 N536 1.351 . S
C537 C538 1.434 1_455 S
C538 C529 1.429 . S
C538 N535 1.350 . S
C538 C537 1.434 1_655 S
C539 C540 1.369 . S
C539 C541 1.419 1_545 S
C539 H543 0.930 . S
C540 C539 1.369 . S
C540 C549 1.429 . S
C541 C539 1.419 1_565 S
C541 C542 1.363 . S
C541 H544 0.929 . S
C542 C541 1.363 . S
C542 C548 1.428 . S
H543 C539 0.930 . S
H544 C541 0.929 . S
S545 N546 1.613 1_565 S
S545 N547 1.610 . S
N546 S545 1.613 1_545 S
N546 C549 1.350 . S
N547 S545 1.610 . S
N547 C548 1.351 . S
C548 C542 1.428 . S
C548 N547 1.351 . S
C548 C549 1.434 1_565 S
C549 C540 1.429 . S
C549 N546 1.350 . S
C549 C548 1.434 1_545 S
C550 C551 1.369 1_556 S
C550 C552 1.419 . S
C550 H554 0.930 . S
C551 C550 1.369 1_554 S
C551 C560 1.429 . S
C552 C550 1.419 . S
C552 C553 1.363 1_556 S
C552 H555 0.929 . S
C553 C552 1.363 1_554 S
C553 C559 1.428 . S
H554 C550 0.930 . S
H555 C552 0.929 . S
S556 N557 1.613 . S
S556 N558 1.610 . S
N557 S556 1.613 . S
N557 C560 1.350 . S
N558 S556 1.610 . S
N558 C559 1.351 . S
C559 C553 1.428 . S
C559 N558 1.351 . S
C559 C560 1.434 . S
C560 C551 1.429 . S
C560 N557 1.350 . S
C560 C559 1.434 . S
C561 C562 1.369 1_545 S
C561 C563 1.419 . S
C561 H565 0.930 . S
C562 C561 1.369 1_565 S
C562 C571 1.429 . S
C563 C561 1.419 . S
C563 C564 1.363 . S
C563 H566 0.929 . S
C564 C563 1.363 . S
C564 C570 1.428 1_545 S
H565 C561 0.930 . S
H566 C563 0.929 . S
S567 N568 1.613 . S
S567 N569 1.610 . S
N568 S567 1.613 . S
N568 C571 1.350 . S
N569 S567 1.610 . S
N569 C570 1.351 . S
C570 C564 1.428 1_565 S
C570 N569 1.351 . S
C570 C571 1.434 . S
C571 C562 1.429 . S
C571 N568 1.350 . S
C571 C570 1.434 . S
C572 C573 1.369 . S
C572 C574 1.419 . S
C572 H576 0.930 . S
C573 C572 1.369 . S
C573 C582 1.429 . S
C574 C572 1.419 . S
C574 C575 1.363 . S
C574 H577 0.929 . S
C575 C574 1.363 . S
C575 C581 1.428 . S
H576 C572 0.930 . S
H577 C574 0.929 . S
S578 N579 1.613 . S
S578 N580 1.610 . S
N579 S578 1.613 . S
N579 C582 1.350 . S
N580 S578 1.610 . S
N580 C581 1.351 . S
C581 C575 1.428 . S
C581 N580 1.351 . S
C581 C582 1.434 . S
C582 C573 1.429 . S
C582 N579 1.350 . S
C582 C581 1.434 . S
C583 C584 1.369 1_454 S
C583 C585 1.419 . S
C583 H587 0.930 . S
C584 C583 1.369 1_656 S
C584 C593 1.429 . S
C585 C583 1.419 . S
C585 C586 1.363 1_554 S
C585 H588 0.929 . S
C586 C585 1.363 1_556 S
C586 C592 1.428 1_455 S
H587 C583 0.930 . S
H588 C585 0.929 . S
S589 N590 1.613 . S
S589 N591 1.610 . S
N590 S589 1.613 . S
N590 C593 1.350 . S
N591 S589 1.610 . S
N591 C592 1.351 . S
C592 C586 1.428 1_655 S
C592 N591 1.351 . S
C592 C593 1.434 . S
C593 C584 1.429 . S
C593 N590 1.350 . S
C593 C592 1.434 . S
C594 C595 1.369 . S
C594 C596 1.419 . S
C594 H598 0.930 . S
C595 C594 1.369 . S
C595 C604 1.429 . S
C596 C594 1.419 . S
C596 C597 1.363 . S
C596 H599 0.929 . S
C597 C596 1.363 . S
C597 C603 1.428 . S
H598 C594 0.930 . S
H599 C596 0.929 . S
S600 N601 1.613 . S
S600 N602 1.610 . S
N601 S600 1.613 . S
N601 C604 1.350 . S
N602 S600 1.610 . S
N602 C603 1.351 . S
C603 C597 1.428 . S
C603 N602 1.351 . S
C603 C604 1.434 . S
C604 C595 1.429 . S
C604 N601 1.350 . S
C604 C603 1.434 . S
C605 C606 1.369 . S
C605 C607 1.419 1_655 S
C605 H609 0.930 . S
C606 C605 1.369 . S
C606 C615 1.429 . S
C607 C605 1.419 1_455 S
C607 C608 1.363 . S
C607 H610 0.929 . S
C608 C607 1.363 . S
C608 C614 1.428 . S
H609 C605 0.930 . S
H610 C607 0.929 . S
S611 N612 1.613 . S
S611 N613 1.610 1_655 S
N612 S611 1.613 . S
N612 C615 1.350 . S
N613 S611 1.610 1_455 S
N613 C614 1.351 . S
C614 C608 1.428 . S
C614 N613 1.351 . S
C614 C615 1.434 1_455 S
C615 C606 1.429 . S
C615 N612 1.350 . S
C615 C614 1.434 1_655 S
C616 C617 1.369 1_556 S
C616 C618 1.419 1_545 S
C616 H620 0.930 . S
C617 C616 1.369 1_554 S
C617 C626 1.429 . S
C618 C616 1.419 1_565 S
C618 C619 1.363 . S
C618 H621 0.929 . S
C619 C618 1.363 . S
C619 C625 1.428 1_556 S
H620 C616 0.930 . S
H621 C618 0.929 . S
S622 N623 1.613 1_565 S
S622 N624 1.610 . S
N623 S622 1.613 1_545 S
N623 C626 1.350 . S
N624 S622 1.610 . S
N624 C625 1.351 . S
C625 C619 1.428 1_554 S
C625 N624 1.351 . S
C625 C626 1.434 1_565 S
C626 C617 1.429 . S
C626 N623 1.350 . S
C626 C625 1.434 1_545 S
C627 C628 1.369 . S
C627 C629 1.419 . S
C627 H631 0.930 . S
C628 C627 1.369 . S
C628 C637 1.429 . S
C629 C627 1.419 . S
C629 C630 1.363 . S
C629 H632 0.929 . S
C630 C629 1.363 . S
C630 C636 1.428 . S
H631 C627 0.930 . S
H632 C629 0.929 . S
S633 N634 1.613 . S
S633 N635 1.610 . S
N634 S633 1.613 . S
N634 C637 1.350 . S
N635 S633 1.610 . S
N635 C636 1.351 . S
C636 C630 1.428 . S
C636 N635 1.351 . S
C636 C637 1.434 . S
C637 C628 1.429 . S
C637 N634 1.350 . S
C637 C636 1.434 . S
C638 C639 1.369 . S
C638 C640 1.419 1_455 S
C638 H642 0.930 . S
C639 C638 1.369 . S
C639 C648 1.429 . S
C640 C638 1.419 1_655 S
C640 C641 1.363 . S
C640 H643 0.929 . S
C641 C640 1.363 . S
C641 C647 1.428 . S
H642 C638 0.930 . S
H643 C640 0.929 . S
S644 N645 1.613 1_655 S
S644 N646 1.610 . S
N645 S644 1.613 1_455 S
N645 C648 1.350 . S
N646 S644 1.610 . S
N646 C647 1.351 . S
C647 C641 1.428 . S
C647 N646 1.351 . S
C647 C648 1.434 1_655 S
C648 C639 1.429 . S
C648 N645 1.350 . S
C648 C647 1.434 1_455 S
C649 C650 1.369 1_554 S
C649 C651 1.419 1_545 S
C649 H653 0.930 . S
C650 C649 1.369 1_556 S
C650 C659 1.429 . S
C651 C649 1.419 1_565 S
C651 C652 1.363 . S
C651 H654 0.929 . S
C652 C651 1.363 . S
C652 C658 1.428 1_554 S
H653 C649 0.930 . S
H654 C651 0.929 . S
S655 N656 1.613 1_565 S
S655 N657 1.610 . S
N656 S655 1.613 1_545 S
N656 C659 1.350 . S
N657 S655 1.610 . S
N657 C658 1.351 . S
C658 C652 1.428 1_556 S
C658 N657 1.351 . S
C658 C659 1.434 1_565 S
C659 C650 1.429 . S
C659 N656 1.350 . S
C659 C658 1.434 1_545 S
C660 C661 1.369 . S
C660 C662 1.419 . S
C660 H664 0.930 . S
C661 C660 1.369 . S
C661 C670 1.429 . S
C662 C660 1.419 . S
C662 C663 1.363 . S
C662 H665 0.929 . S
C663 C662 1.363 . S
C663 C669 1.428 . S
H664 C660 0.930 . S
H665 C662 0.929 . S
S666 N667 1.613 . S
S666 N668 1.610 . S
N667 S666 1.613 . S
N667 C670 1.350 . S
N668 S666 1.610 . S
N668 C669 1.351 . S
C669 C663 1.428 . S
C669 N668 1.351 . S
C669 C670 1.434 . S
C670 C661 1.429 . S
C670 N667 1.350 . S
C670 C669 1.434 . S
C671 C672 1.369 . S
C671 C673 1.419 . S
C671 H675 0.930 . S
C672 C671 1.369 . S
C672 C681 1.429 . S
C673 C671 1.419 . S
C673 C674 1.363 . S
C673 H676 0.929 . S
C674 C673 1.363 . S
C674 C680 1.428 . S
H675 C671 0.930 . S
H676 C673 0.929 . S
S677 N678 1.613 . S
S677 N679 1.610 . S
N678 S677 1.613 . S
N678 C681 1.350 . S
N679 S677 1.610 . S
N679 C680 1.351 . S
C680 C674 1.428 . S
C680 N679 1.351 . S
C680 C681 1.434 . S
C681 C672 1.429 . S
C681 N678 1.350 . S
C681 C680 1.434 . S
C682 C683 1.369 . S
C682 C684 1.419 . S
C682 H686 0.930 . S
C683 C682 1.369 . S
C683 C692 1.429 1_556 S
C684 C682 1.419 . S
C684 C685 1.363 1_556 S
C684 H687 0.929 . S
C685 C684 1.363 1_554 S
C685 C691 1.428 . S
H686 C682 0.930 . S
H687 C684 0.929 . S
S688 N689 1.613 . S
S688 N690 1.610 . S
N689 S688 1.613 . S
N689 C692 1.350 . S
N690 S688 1.610 . S
N690 C691 1.351 . S
C691 C685 1.428 . S
C691 N690 1.351 . S
C691 C692 1.434 . S
C692 C683 1.429 1_554 S
C692 N689 1.350 . S
C692 C691 1.434 . S
C693 C694 1.369 . S
C693 C695 1.419 . S
C693 H697 0.930 . S
C694 C693 1.369 . S
C694 C703 1.429 . S
C695 C693 1.419 . S
C695 C696 1.363 . S
C695 H698 0.929 . S
C696 C695 1.363 . S
C696 C702 1.428 . S
H697 C693 0.930 . S
H698 C695 0.929 . S
S699 N700 1.613 . S
S699 N701 1.610 . S
N700 S699 1.613 . S
N700 C703 1.350 . S
N701 S699 1.610 . S
N701 C702 1.351 . S
C702 C696 1.428 . S
C702 N701 1.351 . S
C702 C703 1.434 . S
C703 C694 1.429 . S
C703 N700 1.350 . S
C703 C702 1.434 . S
C704 C705 1.369 . S
C704 C706 1.419 . S
C704 H708 0.930 . S
C705 C704 1.369 . S
C705 C714 1.429 . S
C706 C704 1.419 . S
C706 C707 1.363 . S
C706 H709 0.929 . S
C707 C706 1.363 . S
C707 C713 1.428 . S
H708 C704 0.930 . S
H709 C706 0.929 . S
S710 N711 1.613 . S
S710 N712 1.610 . S
N711 S710 1.613 . S
N711 C714 1.350 . S
N712 S710 1.610 . S
N712 C713 1.351 . S
C713 C707 1.428 . S
C713 N712 1.351 . S
C713 C714 1.434 . S
C714 C705 1.429 . S
C714 N711 1.350 . S
C714 C713 1.434 . S
C715 C716 1.369 . S
C715 C717 1.419 1_556 S
C715 H719 0.930 . S
C716 C715 1.369 . S
C716 C725 1.429 . S
C717 C715 1.419 1_554 S
C717 C718 1.363 . S
C717 H720 0.929 . S
C718 C717 1.363 . S
C718 C724 1.428 . S
H719 C715 0.930 . S
H720 C717 0.929 . S
S721 N722 1.613 . S
S721 N723 1.610 1_556 S
N722 S721 1.613 . S
N722 C725 1.350 . S
N723 S721 1.610 1_554 S
N723 C724 1.351 . S
C724 C718 1.428 . S
C724 N723 1.351 . S
C724 C725 1.434 1_554 S
C725 C716 1.429 . S
C725 N722 1.350 . S
C725 C724 1.434 1_556 S
C397 C391 1.791 . S
C399 C28 1.790 . S
C408 C226 1.884 . S
C410 C61 1.887 . S
C419 C94 1.791 . S
C421 C259 1.789 . S
C430 C292 1.793 . S
C432 C127 1.789 . S
C441 C325 1.886 . S
C443 C160 1.885 . S
C452 C358 1.790 . S
C454 C193 1.791 . S
C463 C8 0.844 . S
C465 C338 0.835 . S
C474 C41 0.897 . S
C476 C371 0.915 . S
C485 C206 0.900 . S
C487 C74 0.902 . S
C496 C239 0.823 . S
C498 C107 0.842 . S
C507 C272 0.905 . S
C509 C140 0.900 . S
C518 C173 0.916 . S
C520 C305 0.906 . S
C529 N104 1.296 . S
C531 N5 1.295 . S
C540 N38 1.296 . S
C542 N137 1.297 . S
C551 N170 1.294 . S
C553 N71 1.295 . S
C562 N203 1.297 . S
C564 N302 1.297 . S
C573 N236 1.291 . S
C575 N335 1.291 . S
C584 N368 1.295 . S
C586 N269 1.295 . S
C595 N14 1.111 . S
C597 N311 1.106 . S
C606 N47 1.105 . S
C608 N344 1.111 . S
C617 N377 1.091 . S
C619 N80 1.098 . S
C628 N113 1.109 . S
C630 N212 1.104 . S
C639 N146 1.106 . S
C641 N245 1.106 . S
C650 N179 1.091 . S
C652 N278 1.097 . S
C661 C215 1.834 . S
C663 C17 1.832 . S
C672 C248 1.831 . S
C674 C50 1.835 . S
C683 C83 1.855 . S
C685 C281 1.856 . S
C694 C314 1.837 . S
C696 C116 1.830 . S
C705 C149 1.835 . S
C707 C347 1.832 . S
C716 C182 1.856 . S
C718 C380 1.854 . S
