# Generated by pormake.
# Topology wjk, (5)-cn, num edge types: 1
# Building blocks:
#     Node 0, Type 0, BuildingBlock: XOMCOT_clean_sbu_0, # of connection points: 5
#     Node 1, Type 0, BuildingBlock: XOMCOT_clean_sbu_0, # of connection points: 5
#     Node 2, Type 0, BuildingBlock: XOMCOT_clean_sbu_0, # of connection points: 5
#     Node 3, Type 0, BuildingBlock: XOMCOT_clean_sbu_0, # of connection points: 5
#     Node 4, Type 0, BuildingBlock: XOMCOT_clean_sbu_0, # of connection points: 5
#     Node 5, Type 0, BuildingBlock: XOMCOT_clean_sbu_0, # of connection points: 5
#     Node 6, Type 0, BuildingBlock: XOMCOT_clean_sbu_0, # of connection points: 5
#     Node 7, Type 0, BuildingBlock: XOMCOT_clean_sbu_0, # of connection points: 5
#     Node 8, Type 0, BuildingBlock: XOMCOT_clean_sbu_0, # of connection points: 5
#     Node 9, Type 0, BuildingBlock: XOMCOT_clean_sbu_0, # of connection points: 5
#     Node 10, Type 0, BuildingBlock: XOMCOT_clean_sbu_0, # of connection points: 5
#     Node 11, Type 0, BuildingBlock: XOMCOT_clean_sbu_0, # of connection points: 5
#     Edge 12, Type (0, 0), BuildingBlock: EYOCIG_clean_linker_4, # of connection points: 2
#     Edge 13, Type (0, 0), BuildingBlock: EYOCIG_clean_linker_4, # of connection points: 2
#     Edge 14, Type (0, 0), BuildingBlock: EYOCIG_clean_linker_4, # of connection points: 2
#     Edge 15, Type (0, 0), BuildingBlock: EYOCIG_clean_linker_4, # of connection points: 2
#     Edge 16, Type (0, 0), BuildingBlock: EYOCIG_clean_linker_4, # of connection points: 2
#     Edge 17, Type (0, 0), BuildingBlock: EYOCIG_clean_linker_4, # of connection points: 2
#     Edge 18, Type (0, 0), BuildingBlock: EYOCIG_clean_linker_4, # of connection points: 2
#     Edge 19, Type (0, 0), BuildingBlock: EYOCIG_clean_linker_4, # of connection points: 2
#     Edge 20, Type (0, 0), BuildingBlock: EYOCIG_clean_linker_4, # of connection points: 2
#     Edge 21, Type (0, 0), BuildingBlock: EYOCIG_clean_linker_4, # of connection points: 2
#     Edge 22, Type (0, 0), BuildingBlock: EYOCIG_clean_linker_4, # of connection points: 2
#     Edge 23, Type (0, 0), BuildingBlock: EYOCIG_clean_linker_4, # of connection points: 2
#     Edge 24, Type (0, 0), BuildingBlock: EYOCIG_clean_linker_4, # of connection points: 2
#     Edge 25, Type (0, 0), BuildingBlock: EYOCIG_clean_linker_4, # of connection points: 2
#     Edge 26, Type (0, 0), BuildingBlock: EYOCIG_clean_linker_4, # of connection points: 2
#     Edge 27, Type (0, 0), BuildingBlock: EYOCIG_clean_linker_4, # of connection points: 2
#     Edge 28, Type (0, 0), BuildingBlock: EYOCIG_clean_linker_4, # of connection points: 2
#     Edge 29, Type (0, 0), BuildingBlock: EYOCIG_clean_linker_4, # of connection points: 2
#     Edge 30, Type (0, 0), BuildingBlock: EYOCIG_clean_linker_4, # of connection points: 2
#     Edge 31, Type (0, 0), BuildingBlock: EYOCIG_clean_linker_4, # of connection points: 2
#     Edge 32, Type (0, 0), BuildingBlock: EYOCIG_clean_linker_4, # of connection points: 2
#     Edge 33, Type (0, 0), BuildingBlock: EYOCIG_clean_linker_4, # of connection points: 2
#     Edge 34, Type (0, 0), BuildingBlock: EYOCIG_clean_linker_4, # of connection points: 2
#     Edge 35, Type (0, 0), BuildingBlock: EYOCIG_clean_linker_4, # of connection points: 2
#     Edge 36, Type (0, 0), BuildingBlock: EYOCIG_clean_linker_4, # of connection points: 2
#     Edge 37, Type (0, 0), BuildingBlock: EYOCIG_clean_linker_4, # of connection points: 2
#     Edge 38, Type (0, 0), BuildingBlock: EYOCIG_clean_linker_4, # of connection points: 2
#     Edge 39, Type (0, 0), BuildingBlock: EYOCIG_clean_linker_4, # of connection points: 2
#     Edge 40, Type (0, 0), BuildingBlock: EYOCIG_clean_linker_4, # of connection points: 2
#     Edge 41, Type (0, 0), BuildingBlock: EYOCIG_clean_linker_4, # of connection points: 2
# Relax obj value: 0.591
# Max RMSD: 0.268
# Mean RMSD: 0.268
data_MOF--net-wjk--node1-XOMCOT_clean_sbu_0--edge1-EYOCIG_clean_linker_4
_symmetry_space_group_name_H-M    P1
_symmetry_Int_Tables_number       1
_symmetry_cell_setting            triclinic
loop_
_symmetry_equiv_pos_as_xyz
'x, y, z'
_cell_length_a     27.099777
_cell_length_b     27.101696
_cell_length_c     55.276629
_cell_angle_alpha  90.002388
_cell_angle_beta   90.000848
_cell_angle_gamma 120.01516
loop_
_atom_site_label
_atom_site_type_symbol
_atom_site_fract_x
_atom_site_fract_y
_atom_site_fract_z
_atom_type_partial_charge
Co0 Co 0.22313 0.3008 0.25993 0.0
C1 C 0.33082 0.41022 0.26667 0.0
C2 C 0.28173 0.41699 0.23809 0.0
C3 C 0.33826 0.45903 0.23517 0.0
N4 N 0.2766 0.38413 0.25737 0.0
N5 N 0.36924 0.45358 0.25284 0.0
H6 H 0.34438 0.39311 0.28121 0.0
H7 H 0.24826 0.40825 0.22544 0.0
C8 C 0.14364 0.30415 0.21722 0.0
O9 O 0.18522 0.32761 0.20145 0.0
N10 N 0.17626 0.21896 0.26276 0.0
C11 C 0.19076 0.18409 0.27452 0.0
C12 C 0.15122 0.12874 0.26972 0.0
C13 C 0.12781 0.18371 0.25086 0.0
N14 N 0.11298 0.12935 0.25466 0.0
C15 C 0.31656 0.30939 0.23494 0.0
C16 C 0.26073 0.24807 0.19437 0.0
C17 C 0.3187 0.26746 0.19761 0.0
C18 C 0.34693 0.29932 0.21775 0.0
C19 C 0.23138 0.2585 0.21246 0.0
N20 N 0.25978 0.29044 0.23215 0.0
H21 H 0.33869 0.32825 0.25143 0.0
H22 H 0.18573 0.23768 0.21119 0.0
H23 H 0.22874 0.19695 0.2851 0.0
H24 H 0.10511 0.19664 0.23876 0.0
O25 O 0.27354 0.29723 0.28383 0.0
O26 O 0.20047 0.30811 0.29302 0.0
O27 O 0.15498 0.29928 0.23979 0.0
C28 C 0.24242 0.30127 0.30043 0.0
H29 H 0.35576 0.48794 0.21999 0.0
H30 H 0.15161 0.09104 0.27592 0.0
H31 H 0.23708 0.2193 0.17972 0.0
H32 H 0.39074 0.31096 0.22156 0.0
Co33 Co 0.92971 0.21868 0.59324 0.0
C34 C 0.929 0.32693 0.59996 0.0
C35 C 0.87228 0.2777 0.57162 0.0
C36 C 0.88682 0.33424 0.56872 0.0
N37 N 0.90046 0.27265 0.59075 0.0
N38 N 0.92376 0.36529 0.58623 0.0
H39 H 0.96004 0.34051 0.61436 0.0
H40 H 0.8471 0.24415 0.55908 0.0
C41 C 0.84602 0.13926 0.55076 0.0
O42 O 0.86403 0.18079 0.53497 0.0
N43 N 0.96399 0.17117 0.59599 0.0
C44 C 0.0132 0.18501 0.60776 0.0
C45 C 0.02842 0.14508 0.60283 0.0
C46 C 0.95026 0.12269 0.58401 0.0
N47 N 0.98934 0.10723 0.58772 0.0
C48 C 0.01446 0.31158 0.56795 0.0
C49 C 0.0184 0.25533 0.52724 0.0
C50 C 0.05695 0.31339 0.53023 0.0
C51 C 0.05419 0.34178 0.55049 0.0
C52 C 0.97929 0.22617 0.54558 0.0
N53 N 0.97641 0.2548 0.56532 0.0
H54 H 0.01831 0.33387 0.58446 0.0
H55 H 0.95435 0.18053 0.5444 0.0
H56 H 0.03859 0.22279 0.61841 0.0
H57 H 0.9146 0.1004 0.57188 0.0
O58 O 0.98433 0.26905 0.61697 0.0
O59 O 0.90016 0.19657 0.62641 0.0
O60 O 0.86247 0.15069 0.5733 0.0
C61 C 0.94923 0.23839 0.63368 0.0
H62 H 0.875 0.35167 0.55364 0.0
H63 H 0.06631 0.14497 0.60898 0.0
H64 H 0.02296 0.23154 0.5125 0.0
H65 H 0.08646 0.38565 0.55412 0.0
Co66 Co 0.71815 0.92568 0.92647 0.0
C67 C 0.60836 0.92314 0.93351 0.0
C68 C 0.6024 0.86877 0.90443 0.0
C69 C 0.56049 0.88343 0.9016 0.0
N70 N 0.63474 0.89552 0.92397 0.0
N71 N 0.56543 0.91896 0.91957 0.0
H72 H 0.62519 0.95321 0.94828 0.0
H73 H 0.61168 0.84501 0.89149 0.0
C74 C 0.71543 0.84308 0.88386 0.0
O75 O 0.69263 0.86167 0.86798 0.0
N76 N 0.80003 0.96092 0.92925 0.0
C77 C 0.83487 0.01118 0.94041 0.0
C78 C 0.89023 0.02677 0.93577 0.0
C79 C 0.83528 0.94692 0.91788 0.0
N80 N 0.88965 0.98686 0.9214 0.0
C81 C 0.70855 0.00949 0.9011 0.0
C82 C 0.77266 0.01686 0.86125 0.0
C83 C 0.7529 0.05516 0.86435 0.0
C84 C 0.71928 0.05033 0.88401 0.0
C85 C 0.76138 0.97656 0.87919 0.0
N86 N 0.72831 0.97227 0.89857 0.0
H87 H 0.68887 0.01226 0.91744 0.0
H88 H 0.78257 0.95205 0.87815 0.0
H89 H 0.82193 0.037 0.95042 0.0
H90 H 0.82234 0.91042 0.90629 0.0
O91 O 0.72173 0.97996 0.95023 0.0
O92 O 0.71114 0.8962 0.95963 0.0
O93 O 0.71967 0.8589 0.90647 0.0
C94 C 0.71799 0.94508 0.96693 0.0
H95 H 0.5322 0.87298 0.88624 0.0
H96 H 0.92791 0.06542 0.94158 0.0
H97 H 0.80252 0.02276 0.84696 0.0
H98 H 0.70715 0.08216 0.88771 0.0
Co99 Co 0.80047 0.71499 0.25975 0.0
C100 C 0.69293 0.60547 0.26672 0.0
C101 C 0.74171 0.59889 0.23796 0.0
C102 C 0.68516 0.55691 0.23509 0.0
N103 N 0.74705 0.63162 0.25732 0.0
N104 N 0.65436 0.56224 0.25287 0.0
H105 H 0.67951 0.6226 0.28131 0.0
H106 H 0.77499 0.60784 0.22517 0.0
C107 C 0.88044 0.71167 0.21733 0.0
O108 O 0.83905 0.68857 0.20146 0.0
N109 N 0.84731 0.79682 0.26245 0.0
C110 C 0.83181 0.83191 0.27331 0.0
C111 C 0.87189 0.88716 0.26864 0.0
C112 C 0.89688 0.83179 0.25123 0.0
N113 N 0.91146 0.88623 0.25455 0.0
C114 C 0.70743 0.70553 0.2341 0.0
C115 C 0.76462 0.76842 0.19405 0.0
C116 C 0.70641 0.74837 0.19686 0.0
C117 C 0.67749 0.71565 0.21671 0.0
C118 C 0.79347 0.75785 0.2123 0.0
N119 N 0.76442 0.72512 0.23172 0.0
H120 H 0.68482 0.68625 0.25046 0.0
H121 H 0.8392 0.77911 0.2114 0.0
H122 H 0.79282 0.81919 0.2831 0.0
H123 H 0.92059 0.81859 0.23987 0.0
O124 O 0.74969 0.71893 0.28335 0.0
O125 O 0.8226 0.70813 0.29299 0.0
O126 O 0.86882 0.71617 0.2399 0.0
C127 C 0.78061 0.7152 0.30014 0.0
H128 H 0.6675 0.52823 0.21984 0.0
H129 H 0.87096 0.92501 0.27421 0.0
H130 H 0.78871 0.79781 0.17964 0.0
H131 H 0.63343 0.7035 0.22021 0.0
Co132 Co 0.09318 0.79708 0.59331 0.0
C133 C 0.09385 0.68882 0.5999 0.0
C134 C 0.1509 0.73825 0.5717 0.0
C135 C 0.13644 0.68174 0.56876 0.0
N136 N 0.12248 0.74316 0.59077 0.0
N137 N 0.0993 0.65056 0.58619 0.0
H138 H 0.06273 0.67513 0.61427 0.0
H139 H 0.17632 0.77193 0.55924 0.0
C140 C 0.17678 0.87637 0.55072 0.0
O141 O 0.15906 0.83476 0.53498 0.0
N142 N 0.05878 0.8445 0.59612 0.0
C143 C 1.01051 0.83137 0.60852 0.0
C144 C 0.99473 0.87084 0.60349 0.0
C145 C 0.07136 0.89208 0.58365 0.0
N146 N 0.03249 0.90766 0.58769 0.0
C147 C 1.00776 0.7039 0.5684 0.0
C148 C 1.00417 0.75919 0.5273 0.0
C149 C 0.96534 0.70129 0.53057 0.0
C150 C 0.9679 0.67339 0.55103 0.0
C151 C 0.04339 0.78871 0.54556 0.0
N152 N 0.04607 0.76054 0.56552 0.0
H153 H 1.0039 0.68193 0.585 0.0
H154 H 0.06856 0.83427 0.54414 0.0
H155 H 0.98607 0.7944 0.61973 0.0
H156 H 0.10609 0.91366 0.57103 0.0
O157 O 0.03901 0.74689 0.6172 0.0
O158 O 0.12325 0.81953 0.62641 0.0
O159 O 0.16009 0.86505 0.57323 0.0
C160 C 0.07436 0.77768 0.63381 0.0
H161 H 0.14852 0.66441 0.55373 0.0
H162 H 0.95735 0.87133 0.61009 0.0
H163 H 0.9998 0.78266 0.51238 0.0
H164 H 0.93547 0.62968 0.55485 0.0
Co165 Co 0.30474 0.08937 0.92638 0.0
C166 C 0.41436 0.09166 0.93347 0.0
C167 C 0.42072 0.14642 0.90449 0.0
C168 C 0.46263 0.13174 0.9017 0.0
N169 N 0.38814 0.11944 0.92395 0.0
N170 N 0.45743 0.09597 0.91961 0.0
H171 H 0.39735 0.06143 0.94818 0.0
H172 H 0.41165 0.17044 0.89159 0.0
C173 C 0.30781 0.17217 0.8838 0.0
O174 O 0.33077 0.1537 0.86795 0.0
N175 N 0.22286 0.05421 0.92911 0.0
C176 C 0.18792 1.00391 0.94021 0.0
C177 C 0.1326 0.98851 0.93559 0.0
C178 C 0.18771 0.06841 0.91777 0.0
N179 N 0.1333 0.02857 0.92128 0.0
C180 C 0.31421 1.00546 0.90103 0.0
C181 C 0.25082 0.99871 0.861 0.0
C182 C 0.27064 0.96044 0.86407 0.0
C183 C 0.30373 0.96485 0.88386 0.0
C184 C 0.26178 0.03874 0.87904 0.0
N185 N 0.29462 0.04282 0.89848 0.0
H186 H 0.33367 1.00251 0.9174 0.0
H187 H 0.24061 0.06327 0.87801 0.0
H188 H 0.20076 0.97797 0.95018 0.0
H189 H 0.20075 0.10502 0.90624 0.0
O190 O 0.30097 0.035 0.95012 0.0
O191 O 0.31166 0.11879 0.95954 0.0
O192 O 0.30337 0.15623 0.90639 0.0
C193 C 0.30472 0.06986 0.96682 0.0
H194 H 0.49115 0.14242 0.88641 0.0
H195 H 0.09485 0.94989 0.94137 0.0
H196 H 0.22125 0.99306 0.84663 0.0
H197 H 0.3158 0.93296 0.88755 0.0
Co198 Co 0.71941 0.79745 0.44996 0.0
C199 C 0.6107 0.68885 0.44338 0.0
C200 C 0.6028 0.73821 0.47155 0.0
C201 C 0.56075 0.68167 0.47444 0.0
N202 N 0.63627 0.74317 0.45252 0.0
N203 N 0.56688 0.65055 0.45704 0.0
H204 H 0.62827 0.67524 0.42904 0.0
H205 H 0.61093 0.77188 0.48398 0.0
C206 C 0.71473 0.8762 0.4927 0.0
O207 O 0.69105 0.83449 0.5084 0.0
N208 N 0.8012 0.84538 0.44715 0.0
C209 C 0.83662 0.83302 0.43454 0.0
C210 C 0.89178 0.87258 0.43971 0.0
C211 C 0.83595 0.89263 0.45988 0.0
N212 N 0.89051 0.90871 0.4558 0.0
C213 C 0.71237 0.70435 0.47463 0.0
C214 C 0.77147 0.7594 0.51573 0.0
C215 C 0.75305 0.70172 0.51221 0.0
C216 C 0.72233 0.67388 0.49179 0.0
C217 C 0.76111 0.7889 0.49767 0.0
N218 N 0.73031 0.76087 0.47767 0.0
H219 H 0.6942 0.68249 0.45801 0.0
H220 H 0.78109 0.83439 0.49926 0.0
H221 H 0.82432 0.79648 0.42307 0.0
H222 H 0.82258 0.91361 0.47271 0.0
O223 O 0.72369 0.74762 0.42597 0.0
O224 O 0.71153 0.81993 0.4169 0.0
O225 O 0.72007 0.86506 0.47016 0.0
C226 C 0.71881 0.7783 0.40941 0.0
H227 H 0.5312 0.66431 0.48942 0.0
H228 H 0.92982 0.87358 0.43301 0.0
H229 H 0.79936 0.78282 0.53065 0.0
H230 H 0.71142 0.63035 0.48781 0.0
Co231 Co 0.93001 0.71496 0.78346 0.0
C232 C 0.92877 0.60578 0.77674 0.0
C233 C 0.87238 0.59862 0.80516 0.0
C234 C 0.88691 0.55664 0.8081 0.0
N235 N 0.9004 0.63167 0.78596 0.0
N236 N 0.92365 0.56232 0.79054 0.0
H237 H 0.95969 0.62309 0.76229 0.0
H238 H 0.8474 0.60718 0.81773 0.0
C239 C 0.84664 0.71113 0.82598 0.0
O240 O 0.86468 0.68767 0.84178 0.0
N241 N 0.96472 0.79677 0.7807 0.0
C242 C 0.01459 0.83192 0.76932 0.0
C243 C 0.02987 0.88716 0.77409 0.0
C244 C 0.95068 0.83169 0.79232 0.0
N245 N 0.99017 0.88616 0.78873 0.0
C246 C 0.01454 0.70646 0.80875 0.0
C247 C 0.01893 0.76721 0.84935 0.0
C248 C 0.05727 0.74743 0.84641 0.0
C249 C 0.05432 0.71605 0.8262 0.0
C250 C 0.97983 0.75725 0.83102 0.0
N251 N 0.97667 0.72539 0.81135 0.0
H252 H 0.01824 0.68784 0.79227 0.0
H253 H 0.95511 0.77821 0.8321 0.0
H254 H 0.04034 0.81931 0.75908 0.0
H255 H 0.91447 0.81847 0.80411 0.0
O256 O 0.98445 0.71893 0.75971 0.0
O257 O 0.90045 0.7077 0.7503 0.0
O258 O 0.86298 0.71603 0.80343 0.0
C259 C 0.94944 0.71481 0.74301 0.0
H260 H 0.87527 0.52758 0.82324 0.0
H261 H 0.06819 0.92505 0.76817 0.0
H262 H 0.02367 0.79576 0.86404 0.0
H263 H 0.08647 0.70428 0.8226 0.0
Co264 Co 0.22266 0.92633 0.11657 0.0
C265 C 0.33093 0.9257 0.10991 0.0
C266 C 0.28183 0.86915 0.13831 0.0
C267 C 0.33842 0.8838 0.14121 0.0
N268 N 0.27667 0.89714 0.11914 0.0
N269 N 0.36939 0.92064 0.12365 0.0
H270 H 0.34443 0.95657 0.09545 0.0
H271 H 0.24831 0.84399 0.15087 0.0
C272 C 0.14354 0.84312 0.15928 0.0
O273 O 0.18519 0.8612 0.17502 0.0
N274 N 0.17524 0.96067 0.11373 0.0
C275 C 0.18913 0.00973 0.10182 0.0
C276 C 0.14933 0.02516 0.10668 0.0
C277 C 0.1269 0.94728 0.12576 0.0
N278 N 0.11155 0.98639 0.1219 0.0
C279 C 0.31579 0.01179 0.14147 0.0
C280 C 0.26015 0.01588 0.18237 0.0
C281 C 0.31809 0.05462 0.17915 0.0
C282 C 0.34617 0.05184 0.15879 0.0
C283 C 0.23076 0.97652 0.16414 0.0
N284 N 0.25912 0.97355 0.14431 0.0
H285 H 0.33785 0.01549 0.12491 0.0
H286 H 0.18514 0.95147 0.16545 0.0
H287 H 0.22685 0.03489 0.09111 0.0
H288 H 0.10464 0.91183 0.13799 0.0
O289 O 0.27276 0.98044 0.09264 0.0
O290 O 0.20014 0.89614 0.08349 0.0
O291 O 0.15479 0.85946 0.13673 0.0
C292 C 0.24188 0.94506 0.07605 0.0
H293 H 0.35593 0.87211 0.15629 0.0
H294 H 0.14927 0.06298 0.10041 0.0
H295 H 0.23657 0.02045 0.1972 0.0
H296 H 0.38992 0.08422 0.15501 0.0
Co297 Co 0.30394 0.2186 0.45013 0.0
C298 C 0.41296 0.32685 0.44335 0.0
C299 C 0.42044 0.27773 0.47173 0.0
C300 C 0.46252 0.33426 0.47459 0.0
N301 N 0.38717 0.27263 0.45261 0.0
N302 N 0.45665 0.36525 0.45705 0.0
H303 H 0.3955 0.34039 0.42894 0.0
H304 H 0.41204 0.24422 0.4843 0.0
C305 C 0.30829 0.13944 0.4927 0.0
O306 O 0.33173 0.18103 0.50847 0.0
N307 N 0.22211 0.17088 0.44738 0.0
C308 C 0.18668 0.18381 0.43511 0.0
C309 C 0.13152 0.14405 0.44019 0.0
C310 C 0.18738 0.12309 0.4598 0.0
N311 N 0.13282 0.10724 0.45588 0.0
C312 C 0.31194 0.31167 0.4752 0.0
C313 C 0.25123 0.25581 0.51587 0.0
C314 C 0.27014 0.31365 0.51258 0.0
C315 C 0.3018 0.34193 0.49241 0.0
C316 C 0.26186 0.22657 0.49779 0.0
N317 N 0.29336 0.25495 0.47799 0.0
H318 H 0.33058 0.33382 0.45869 0.0
H319 H 0.24151 0.18101 0.49918 0.0
H320 H 0.19898 0.22084 0.42396 0.0
H321 H 0.20078 0.10157 0.47233 0.0
O322 O 0.29964 0.26879 0.42634 0.0
O323 O 0.31145 0.19637 0.41698 0.0
O324 O 0.30326 0.15076 0.47015 0.0
C325 C 0.30421 0.23815 0.40966 0.0
H326 H 0.49183 0.35174 0.48964 0.0
H327 H 0.09347 0.14339 0.43371 0.0
H328 H 0.2227 0.23211 0.53058 0.0
H329 H 0.31314 0.38564 0.48858 0.0
Co330 Co 0.09337 0.30058 0.78335 0.0
C331 C 0.0944 0.4097 0.77685 0.0
C332 C 0.151 0.4169 0.80518 0.0
C333 C 0.1365 0.45891 0.80817 0.0
N334 N 0.12286 0.38383 0.786 0.0
N335 N 0.09964 0.4532 0.79065 0.0
H336 H 0.06344 0.39244 0.76242 0.0
H337 H 0.17617 0.40843 0.81769 0.0
C338 C 0.17687 0.30437 0.82587 0.0
O339 O 0.1591 0.32808 0.84167 0.0
N340 N 0.05873 0.21877 0.78044 0.0
C341 C 1.00968 0.18378 0.76848 0.0
C342 C 0.99399 0.12847 0.7733 0.0
C343 C 0.07186 0.18363 0.79246 0.0
N344 N 0.03259 0.12922 0.78855 0.0
C345 C 1.00848 0.30857 0.80859 0.0
C346 C 1.00483 0.24874 0.84939 0.0
C347 C 0.96633 0.2683 0.84641 0.0
C348 C 0.96886 0.29916 0.82608 0.0
C349 C 0.04374 0.25847 0.831 0.0
N350 N 0.04655 0.28989 0.81123 0.0
H351 H 1.00464 0.32702 0.79208 0.0
H352 H 0.06863 0.23773 0.83217 0.0
H353 H 0.98467 0.1965 0.75775 0.0
H354 H 0.10724 0.19665 0.80471 0.0
O355 O 0.0391 0.29683 0.75957 0.0
O356 O 0.12319 0.30824 0.75022 0.0
O357 O 0.1603 0.29928 0.80335 0.0
C358 C 0.07426 0.30124 0.7429 0.0
H359 H 0.1483 0.48804 0.82328 0.0
H360 H 0.9561 0.09069 0.76698 0.0
H361 H 1.0004 0.22056 0.86418 0.0
H362 H 0.93659 0.31076 0.82248 0.0
Co363 Co 0.8005 0.08976 0.11669 0.0
C364 C 0.69311 0.09203 0.10974 0.0
C365 C 0.74198 0.14727 0.13853 0.0
C366 C 0.68547 0.13281 0.1414 0.0
N367 N 0.74724 0.11988 0.11915 0.0
N368 N 0.6546 0.09675 0.12361 0.0
H369 H 0.67963 0.06154 0.09513 0.0
H370 H 0.77527 0.17152 0.15132 0.0
C371 C 0.88055 0.17287 0.15917 0.0
O372 O 0.83914 0.15469 0.17503 0.0
N373 N 0.84717 0.05457 0.11396 0.0
C374 C 0.83191 1.00438 0.10277 0.0
C375 C 0.87163 0.98879 0.10754 0.0
C376 C 0.89627 0.06853 0.12547 0.0
N377 N 0.91075 0.02863 0.12201 0.0
C378 C 0.70723 1.00606 0.1422 0.0
C379 C 0.76404 0.99999 0.18231 0.0
C380 C 0.70589 0.96175 0.17937 0.0
C381 C 0.67714 0.96579 0.15951 0.0
C382 C 0.79305 0.03965 0.16415 0.0
N383 N 0.76422 0.04343 0.14467 0.0
H384 H 0.68474 1.00288 0.12583 0.0
H385 H 0.83876 0.06416 0.16516 0.0
H386 H 0.7933 0.97862 0.09267 0.0
H387 H 0.91967 0.10496 0.13711 0.0
O388 O 0.74969 0.03526 0.09302 0.0
O389 O 0.82279 0.11896 0.08348 0.0
O390 O 0.86893 0.15673 0.1366 0.0
C391 C 0.7807 0.07001 0.07626 0.0
H392 H 0.66787 0.14385 0.15666 0.0
H393 H 0.87075 0.95018 0.10176 0.0
H394 H 0.78802 0.99458 0.19673 0.0
H395 H 0.63312 0.93387 0.15592 0.0
C396 C 0.54227 0.51919 0.25357 0.0
C397 C 0.59407 0.539 0.25318 0.0
C398 C 0.48137 0.49696 0.25355 0.0
C399 C 0.42955 0.47704 0.25313 0.0
C400 C 0.03083 0.53838 0.58678 0.0
C401 C 0.06262 0.59022 0.58641 0.0
C402 C 0.99239 0.47745 0.58681 0.0
C403 C 0.96055 0.42562 0.58646 0.0
C404 C 0.50049 0.02694 0.92054 0.0
C405 C 0.48065 0.05891 0.92007 0.0
C406 C 0.52261 0.98819 0.92051 0.0
C407 C 0.54229 0.95609 0.92 0.0
C408 C 0.52301 0.53836 0.4564 0.0
C409 C 0.54314 0.5902 0.45679 0.0
C410 C 0.50039 0.47742 0.45639 0.0
C411 C 0.48028 0.42558 0.45677 0.0
C412 C 0.99243 0.519 0.79 0.0
C413 C 0.96053 0.5389 0.79033 0.0
C414 C 0.031 0.49667 0.79004 0.0
C415 C 0.06288 0.47675 0.79043 0.0
C416 C 0.48155 0.98932 0.1229 0.0
C417 C 0.42972 0.95745 0.12334 0.0
C418 C 0.54247 0.02789 0.12288 0.0
C419 C 0.59429 0.05982 0.12329 0.0
C420 C 0.28103 0.26065 0.36582 0.0
C421 C 0.29251 0.24645 0.38489 0.0
C422 C 0.26434 0.2776 0.3443 0.0
C423 C 0.25037 0.28926 0.32521 0.0
C424 C 0.99501 0.26099 0.67751 0.0
C425 C 0.96935 0.24679 0.65844 0.0
C426 C 0.0286 0.27788 0.69904 0.0
C427 C 0.05422 0.28942 0.71813 0.0
C428 C 0.75824 0.02412 0.03242 0.0
C429 C 0.77231 0.04967 0.05153 0.0
C430 C 0.74151 0.99075 1.01081 0.0
C431 C 0.72998 0.96527 0.99168 0.0
C432 C 0.74165 0.75608 0.36545 0.0
C433 C 0.73028 0.77021 0.38457 0.0
C434 C 0.75827 0.73915 0.3439 0.0
C435 C 0.77228 0.72742 0.32484 0.0
C436 C 0.02896 0.75537 0.6777 0.0
C437 C 0.05456 0.76953 0.65861 0.0
C438 C 0.99533 0.73846 0.69921 0.0
C439 C 0.96963 0.72682 0.71828 0.0
C440 C 0.28092 0.02392 1.01062 0.0
C441 C 0.29259 0.04959 0.99154 0.0
C442 C 0.26404 0.99035 0.03215 0.0
C443 C 0.24995 0.9648 0.05125 0.0
C444 C 0.03343 0.03605 0.23694 0.0
C445 C 0.06872 0.08166 0.24397 0.0
C446 C 0.99233 0.97898 0.23702 0.0
C447 C 0.9565 0.93364 0.24406 0.0
C448 C 1.0021 0.02744 0.56956 0.0
C449 C 0.99226 0.0629 0.5768 0.0
C450 C 0.01823 0.98646 0.56947 0.0
C451 C 0.02873 0.95141 0.57665 0.0
C452 C 0.04008 0.01597 0.90399 0.0
C453 C 0.08565 0.02585 0.91088 0.0
C454 C 0.98296 0.99986 0.90402 0.0
C455 C 0.93737 0.98982 0.91095 0.0
C456 C 0.98317 0.98722 0.47446 0.0
C457 C 0.93778 0.95223 0.46708 0.0
C458 C 0.0403 0.02822 0.47443 0.0
C459 C 0.0856 0.06341 0.46706 0.0
C460 C 1.00265 0.97897 0.80645 0.0
C461 C 0.99289 0.93357 0.79938 0.0
C462 C 0.01874 0.03607 0.80647 0.0
C463 C 0.02908 0.08162 0.79936 0.0
C464 C 0.99086 0.01578 0.13972 0.0
C465 C 0.95535 0.0257 0.13263 0.0
C466 C 0.03188 0.9997 0.13978 0.0
C467 C 0.06726 0.98957 0.13271 0.0
C468 C 0.98586 0.22821 0.18072 0.0
C469 C 0.94025 0.2038 0.16913 0.0
C470 C 0.03845 0.25443 0.19555 0.0
C471 C 0.08403 0.27552 0.20717 0.0
C472 C 0.79068 0.03399 0.52918 0.0
C473 C 0.81514 0.07963 0.54075 0.0
C474 C 0.76442 0.98135 0.5144 0.0
C475 C 0.74334 0.93574 0.50281 0.0
C476 C 0.79129 0.76103 0.84756 0.0
C477 C 0.81574 0.73986 0.83598 0.0
C478 C 0.76504 0.78738 0.86236 0.0
C479 C 0.74396 0.81192 0.87393 0.0
C480 C 0.03837 0.78777 0.18099 0.0
C481 C 0.08396 0.81223 0.16937 0.0
C482 C 0.98577 0.76147 0.19581 0.0
C483 C 0.94015 0.74034 0.20739 0.0
C484 C 0.23212 0.98158 0.52909 0.0
C485 C 0.20762 0.93596 0.54067 0.0
C486 C 0.25846 0.03422 0.51431 0.0
C487 C 0.2796 0.07984 0.50273 0.0
C488 C 0.25824 0.22788 0.86226 0.0
C489 C 0.27929 0.20332 0.87384 0.0
C490 C 0.23203 0.25427 0.84746 0.0
C491 C 0.20764 0.2755 0.83587 0.0
C492 C 0.36611 0.20967 0.18661 0.0
C493 C 0.34183 0.23599 0.18733 0.0
C494 C 0.36597 0.1593 0.19086 0.0
C495 C 0.34155 0.10871 0.18998 0.0
C496 C 0.16166 0.36064 0.51882 0.0
C497 C 0.11105 0.33671 0.51941 0.0
C498 C 0.21182 0.36053 0.52337 0.0
C499 C 0.23839 0.3365 0.52284 0.0
C500 C 0.86188 0.2115 0.85835 0.0
C501 C 0.91246 0.2379 0.85745 0.0
C502 C 0.81168 0.16106 0.85415 0.0
C503 C 0.78559 0.11047 0.85488 0.0
C504 C 0.65902 0.80618 0.1858 0.0
C505 C 0.68341 0.77997 0.18659 0.0
C506 C 0.65882 0.85635 0.1901 0.0
C507 C 0.68299 0.90695 0.18943 0.0
C508 C 0.81061 0.65435 0.52349 0.0
C509 C 0.78428 0.67862 0.52277 0.0
C510 C 0.86067 0.65398 0.51906 0.0
C511 C 0.91128 0.67786 0.51969 0.0
C512 C 0.21221 0.8548 0.85363 0.0
C513 C 0.23846 0.90541 0.85425 0.0
C514 C 0.16198 0.80449 0.858 0.0
C515 C 0.11138 0.7781 0.85723 0.0
loop_
_geom_bond_atom_site_label_1
_geom_bond_atom_site_label_2
_geom_bond_distance
_geom_bond_site_symmetry_2
_ccdc_geom_bond_type
Co0 N4 2.148 . S
Co0 N10 2.128 . S
Co0 N20 2.194 . S
Co0 O25 2.351 . S
Co0 O26 2.155 . S
Co0 O27 2.096 . S
C1 N4 1.301 . S
C1 N5 1.328 . S
C1 H6 0.930 . S
C2 C3 1.333 . S
C2 N4 1.317 . S
C2 H7 0.930 . S
C3 C2 1.333 . S
C3 N5 1.350 . S
C3 H29 0.931 . S
N4 Co0 2.148 . S
N4 C1 1.301 . S
N4 C2 1.317 . S
N5 C1 1.328 . S
N5 C3 1.350 . S
H6 C1 0.930 . S
H7 C2 0.930 . S
C8 O9 1.224 . S
C8 O27 1.247 . S
O9 C8 1.224 . S
N10 Co0 2.128 . S
N10 C11 1.355 . S
N10 C13 1.311 . S
C11 N10 1.355 . S
C11 C12 1.363 . S
C11 H23 0.929 . S
C12 C11 1.363 . S
C12 N14 1.375 . S
C12 H30 0.931 . S
C13 N10 1.311 . S
C13 N14 1.347 . S
C13 H24 0.929 . S
N14 C12 1.375 . S
N14 C13 1.347 . S
C15 C18 1.365 . S
C15 N20 1.328 . S
C15 H21 0.929 . S
C16 C17 1.362 . S
C16 C19 1.378 . S
C16 H31 0.929 . S
C17 C16 1.362 . S
C17 C18 1.366 . S
C18 C15 1.365 . S
C18 C17 1.366 . S
C18 H32 0.930 . S
C19 C16 1.378 . S
C19 N20 1.315 . S
C19 H22 0.930 . S
N20 Co0 2.194 . S
N20 C15 1.328 . S
N20 C19 1.315 . S
H21 C15 0.929 . S
H22 C19 0.930 . S
H23 C11 0.929 . S
H24 C13 0.929 . S
O25 Co0 2.351 . S
O25 C28 1.244 . S
O26 Co0 2.155 . S
O26 C28 1.240 . S
O27 Co0 2.096 . S
O27 C8 1.247 . S
C28 O25 1.244 . S
C28 O26 1.240 . S
H29 C3 0.931 . S
H30 C12 0.931 . S
H31 C16 0.929 . S
H32 C18 0.930 . S
Co33 N37 2.148 . S
Co33 N43 2.128 . S
Co33 N53 2.194 . S
Co33 O58 2.351 . S
Co33 O59 2.155 . S
Co33 O60 2.096 . S
C34 N37 1.301 . S
C34 N38 1.328 . S
C34 H39 0.930 . S
C35 C36 1.333 . S
C35 N37 1.317 . S
C35 H40 0.930 . S
C36 C35 1.333 . S
C36 N38 1.350 . S
C36 H62 0.931 . S
N37 Co33 2.148 . S
N37 C34 1.301 . S
N37 C35 1.317 . S
N38 C34 1.328 . S
N38 C36 1.350 . S
H39 C34 0.930 . S
H40 C35 0.930 . S
C41 O42 1.224 . S
C41 O60 1.247 . S
O42 C41 1.224 . S
N43 Co33 2.128 . S
N43 C44 1.355 . S
N43 C46 1.311 . S
C44 N43 1.355 . S
C44 C45 1.363 . S
C44 H56 0.929 1_655 S
C45 C44 1.363 . S
C45 N47 1.375 . S
C45 H63 0.931 1_655 S
C46 N43 1.311 . S
C46 N47 1.347 . S
C46 H57 0.929 . S
N47 C45 1.375 . S
N47 C46 1.347 . S
C48 C51 1.365 . S
C48 N53 1.328 1_455 S
C48 H54 0.929 . S
C49 C50 1.362 . S
C49 C52 1.378 1_455 S
C49 H64 0.929 . S
C50 C49 1.362 . S
C50 C51 1.366 . S
C51 C48 1.365 . S
C51 C50 1.366 . S
C51 H65 0.930 . S
C52 C49 1.378 1_655 S
C52 N53 1.315 . S
C52 H55 0.930 . S
N53 Co33 2.194 . S
N53 C48 1.328 1_655 S
N53 C52 1.315 . S
H54 C48 0.929 . S
H55 C52 0.930 . S
H56 C44 0.929 1_455 S
H57 C46 0.929 . S
O58 Co33 2.351 . S
O58 C61 1.244 . S
O59 Co33 2.155 . S
O59 C61 1.240 . S
O60 Co33 2.096 . S
O60 C41 1.247 . S
C61 O58 1.244 . S
C61 O59 1.240 . S
H62 C36 0.931 . S
H63 C45 0.931 1_455 S
H64 C49 0.929 . S
H65 C51 0.930 . S
Co66 N70 2.148 . S
Co66 N76 2.128 . S
Co66 N86 2.194 . S
Co66 O91 2.351 . S
Co66 O92 2.155 . S
Co66 O93 2.096 . S
C67 N70 1.301 . S
C67 N71 1.328 . S
C67 H72 0.930 . S
C68 C69 1.333 . S
C68 N70 1.317 . S
C68 H73 0.930 . S
C69 C68 1.333 . S
C69 N71 1.350 . S
C69 H95 0.931 . S
N70 Co66 2.148 . S
N70 C67 1.301 . S
N70 C68 1.317 . S
N71 C67 1.328 . S
N71 C69 1.350 . S
H72 C67 0.930 . S
H73 C68 0.930 . S
C74 O75 1.224 . S
C74 O93 1.247 . S
O75 C74 1.224 . S
N76 Co66 2.128 . S
N76 C77 1.355 . S
N76 C79 1.311 . S
C77 N76 1.355 . S
C77 C78 1.363 . S
C77 H89 0.929 1_565 S
C78 C77 1.363 . S
C78 N80 1.375 . S
C78 H96 0.931 1_565 S
C79 N76 1.311 . S
C79 N80 1.347 . S
C79 H90 0.929 . S
N80 C78 1.375 . S
N80 C79 1.347 . S
C81 C84 1.365 . S
C81 N86 1.328 1_545 S
C81 H87 0.929 . S
C82 C83 1.362 . S
C82 C85 1.378 1_545 S
C82 H97 0.929 . S
C83 C82 1.362 . S
C83 C84 1.366 . S
C84 C81 1.365 . S
C84 C83 1.366 . S
C84 H98 0.930 . S
C85 C82 1.378 1_565 S
C85 N86 1.315 . S
C85 H88 0.930 . S
N86 Co66 2.194 . S
N86 C81 1.328 1_565 S
N86 C85 1.315 . S
H87 C81 0.929 . S
H88 C85 0.930 . S
H89 C77 0.929 1_545 S
H90 C79 0.929 . S
O91 Co66 2.351 . S
O91 C94 1.244 . S
O92 Co66 2.155 . S
O92 C94 1.240 . S
O93 Co66 2.096 . S
O93 C74 1.247 . S
C94 O91 1.244 . S
C94 O92 1.240 . S
H95 C69 0.931 . S
H96 C78 0.931 1_545 S
H97 C82 0.929 . S
H98 C84 0.930 . S
Co99 N103 2.148 . S
Co99 N109 2.128 . S
Co99 N119 2.194 . S
Co99 O124 2.351 . S
Co99 O125 2.155 . S
Co99 O126 2.096 . S
C100 N103 1.301 . S
C100 N104 1.328 . S
C100 H105 0.930 . S
C101 C102 1.333 . S
C101 N103 1.317 . S
C101 H106 0.930 . S
C102 C101 1.333 . S
C102 N104 1.350 . S
C102 H128 0.931 . S
N103 Co99 2.148 . S
N103 C100 1.301 . S
N103 C101 1.317 . S
N104 C100 1.328 . S
N104 C102 1.350 . S
H105 C100 0.930 . S
H106 C101 0.930 . S
C107 O108 1.224 . S
C107 O126 1.247 . S
O108 C107 1.224 . S
N109 Co99 2.128 . S
N109 C110 1.355 . S
N109 C112 1.311 . S
C110 N109 1.355 . S
C110 C111 1.363 . S
C110 H122 0.929 . S
C111 C110 1.363 . S
C111 N113 1.375 . S
C111 H129 0.931 . S
C112 N109 1.311 . S
C112 N113 1.347 . S
C112 H123 0.929 . S
N113 C111 1.375 . S
N113 C112 1.347 . S
C114 C117 1.365 . S
C114 N119 1.328 . S
C114 H120 0.929 . S
C115 C116 1.362 . S
C115 C118 1.378 . S
C115 H130 0.929 . S
C116 C115 1.362 . S
C116 C117 1.366 . S
C117 C114 1.365 . S
C117 C116 1.366 . S
C117 H131 0.930 . S
C118 C115 1.378 . S
C118 N119 1.315 . S
C118 H121 0.930 . S
N119 Co99 2.194 . S
N119 C114 1.328 . S
N119 C118 1.315 . S
H120 C114 0.929 . S
H121 C118 0.930 . S
H122 C110 0.929 . S
H123 C112 0.929 . S
O124 Co99 2.351 . S
O124 C127 1.244 . S
O125 Co99 2.155 . S
O125 C127 1.240 . S
O126 Co99 2.096 . S
O126 C107 1.247 . S
C127 O124 1.244 . S
C127 O125 1.240 . S
H128 C102 0.931 . S
H129 C111 0.931 . S
H130 C115 0.929 . S
H131 C117 0.930 . S
Co132 N136 2.148 . S
Co132 N142 2.128 . S
Co132 N152 2.194 . S
Co132 O157 2.351 . S
Co132 O158 2.155 . S
Co132 O159 2.096 . S
C133 N136 1.301 . S
C133 N137 1.328 . S
C133 H138 0.930 . S
C134 C135 1.333 . S
C134 N136 1.317 . S
C134 H139 0.930 . S
C135 C134 1.333 . S
C135 N137 1.350 . S
C135 H161 0.931 . S
N136 Co132 2.148 . S
N136 C133 1.301 . S
N136 C134 1.317 . S
N137 C133 1.328 . S
N137 C135 1.350 . S
H138 C133 0.930 . S
H139 C134 0.930 . S
C140 O141 1.224 . S
C140 O159 1.247 . S
O141 C140 1.224 . S
N142 Co132 2.128 . S
N142 C143 1.355 . S
N142 C145 1.311 . S
C143 N142 1.355 . S
C143 C144 1.363 . S
C143 H155 0.929 1_455 S
C144 C143 1.363 . S
C144 N146 1.375 . S
C144 H162 0.931 1_455 S
C145 N142 1.311 . S
C145 N146 1.347 . S
C145 H156 0.929 . S
N146 C144 1.375 . S
N146 C145 1.347 . S
C147 C150 1.365 . S
C147 N152 1.328 1_655 S
C147 H153 0.929 . S
C148 C149 1.362 . S
C148 C151 1.378 1_655 S
C148 H163 0.929 . S
C149 C148 1.362 . S
C149 C150 1.366 . S
C150 C147 1.365 . S
C150 C149 1.366 . S
C150 H164 0.930 . S
C151 C148 1.378 1_455 S
C151 N152 1.315 . S
C151 H154 0.930 . S
N152 Co132 2.194 . S
N152 C147 1.328 1_455 S
N152 C151 1.315 . S
H153 C147 0.929 . S
H154 C151 0.930 . S
H155 C143 0.929 1_655 S
H156 C145 0.929 . S
O157 Co132 2.351 . S
O157 C160 1.244 . S
O158 Co132 2.155 . S
O158 C160 1.240 . S
O159 Co132 2.096 . S
O159 C140 1.247 . S
C160 O157 1.244 . S
C160 O158 1.240 . S
H161 C135 0.931 . S
H162 C144 0.931 1_655 S
H163 C148 0.929 . S
H164 C150 0.930 . S
Co165 N169 2.148 . S
Co165 N175 2.128 . S
Co165 N185 2.194 . S
Co165 O190 2.351 . S
Co165 O191 2.155 . S
Co165 O192 2.096 . S
C166 N169 1.301 . S
C166 N170 1.328 . S
C166 H171 0.930 . S
C167 C168 1.333 . S
C167 N169 1.317 . S
C167 H172 0.930 . S
C168 C167 1.333 . S
C168 N170 1.350 . S
C168 H194 0.931 . S
N169 Co165 2.148 . S
N169 C166 1.301 . S
N169 C167 1.317 . S
N170 C166 1.328 . S
N170 C168 1.350 . S
H171 C166 0.930 . S
H172 C167 0.930 . S
C173 O174 1.224 . S
C173 O192 1.247 . S
O174 C173 1.224 . S
N175 Co165 2.128 . S
N175 C176 1.355 . S
N175 C178 1.311 . S
C176 N175 1.355 . S
C176 C177 1.363 . S
C176 H188 0.929 1_545 S
C177 C176 1.363 . S
C177 N179 1.375 . S
C177 H195 0.931 1_545 S
C178 N175 1.311 . S
C178 N179 1.347 . S
C178 H189 0.929 . S
N179 C177 1.375 . S
N179 C178 1.347 . S
C180 C183 1.365 . S
C180 N185 1.328 1_565 S
C180 H186 0.929 . S
C181 C182 1.362 . S
C181 C184 1.378 1_565 S
C181 H196 0.929 . S
C182 C181 1.362 . S
C182 C183 1.366 . S
C183 C180 1.365 . S
C183 C182 1.366 . S
C183 H197 0.930 . S
C184 C181 1.378 1_545 S
C184 N185 1.315 . S
C184 H187 0.930 . S
N185 Co165 2.194 . S
N185 C180 1.328 1_545 S
N185 C184 1.315 . S
H186 C180 0.929 . S
H187 C184 0.930 . S
H188 C176 0.929 1_565 S
H189 C178 0.929 . S
O190 Co165 2.351 . S
O190 C193 1.244 . S
O191 Co165 2.155 . S
O191 C193 1.240 . S
O192 Co165 2.096 . S
O192 C173 1.247 . S
C193 O190 1.244 . S
C193 O191 1.240 . S
H194 C168 0.931 . S
H195 C177 0.931 1_565 S
H196 C181 0.929 . S
H197 C183 0.930 . S
Co198 N202 2.148 . S
Co198 N208 2.128 . S
Co198 N218 2.194 . S
Co198 O223 2.351 . S
Co198 O224 2.155 . S
Co198 O225 2.096 . S
C199 N202 1.301 . S
C199 N203 1.328 . S
C199 H204 0.930 . S
C200 C201 1.333 . S
C200 N202 1.317 . S
C200 H205 0.930 . S
C201 C200 1.333 . S
C201 N203 1.350 . S
C201 H227 0.931 . S
N202 Co198 2.148 . S
N202 C199 1.301 . S
N202 C200 1.317 . S
N203 C199 1.328 . S
N203 C201 1.350 . S
H204 C199 0.930 . S
H205 C200 0.930 . S
C206 O207 1.224 . S
C206 O225 1.247 . S
O207 C206 1.224 . S
N208 Co198 2.128 . S
N208 C209 1.355 . S
N208 C211 1.311 . S
C209 N208 1.355 . S
C209 C210 1.363 . S
C209 H221 0.929 . S
C210 C209 1.363 . S
C210 N212 1.375 . S
C210 H228 0.931 . S
C211 N208 1.311 . S
C211 N212 1.347 . S
C211 H222 0.929 . S
N212 C210 1.375 . S
N212 C211 1.347 . S
C213 C216 1.365 . S
C213 N218 1.328 . S
C213 H219 0.929 . S
C214 C215 1.362 . S
C214 C217 1.378 . S
C214 H229 0.929 . S
C215 C214 1.362 . S
C215 C216 1.366 . S
C216 C213 1.365 . S
C216 C215 1.366 . S
C216 H230 0.930 . S
C217 C214 1.378 . S
C217 N218 1.315 . S
C217 H220 0.930 . S
N218 Co198 2.194 . S
N218 C213 1.328 . S
N218 C217 1.315 . S
H219 C213 0.929 . S
H220 C217 0.930 . S
H221 C209 0.929 . S
H222 C211 0.929 . S
O223 Co198 2.351 . S
O223 C226 1.244 . S
O224 Co198 2.155 . S
O224 C226 1.240 . S
O225 Co198 2.096 . S
O225 C206 1.247 . S
C226 O223 1.244 . S
C226 O224 1.240 . S
H227 C201 0.931 . S
H228 C210 0.931 . S
H229 C214 0.929 . S
H230 C216 0.930 . S
Co231 N235 2.148 . S
Co231 N241 2.128 . S
Co231 N251 2.194 . S
Co231 O256 2.351 . S
Co231 O257 2.155 . S
Co231 O258 2.096 . S
C232 N235 1.301 . S
C232 N236 1.328 . S
C232 H237 0.930 . S
C233 C234 1.333 . S
C233 N235 1.317 . S
C233 H238 0.930 . S
C234 C233 1.333 . S
C234 N236 1.350 . S
C234 H260 0.931 . S
N235 Co231 2.148 . S
N235 C232 1.301 . S
N235 C233 1.317 . S
N236 C232 1.328 . S
N236 C234 1.350 . S
H237 C232 0.930 . S
H238 C233 0.930 . S
C239 O240 1.224 . S
C239 O258 1.247 . S
O240 C239 1.224 . S
N241 Co231 2.128 . S
N241 C242 1.355 . S
N241 C244 1.311 . S
C242 N241 1.355 . S
C242 C243 1.363 . S
C242 H254 0.929 1_655 S
C243 C242 1.363 . S
C243 N245 1.375 . S
C243 H261 0.931 1_655 S
C244 N241 1.311 . S
C244 N245 1.347 . S
C244 H255 0.929 . S
N245 C243 1.375 . S
N245 C244 1.347 . S
C246 C249 1.365 . S
C246 N251 1.328 1_455 S
C246 H252 0.929 . S
C247 C248 1.362 . S
C247 C250 1.378 1_455 S
C247 H262 0.929 . S
C248 C247 1.362 . S
C248 C249 1.366 . S
C249 C246 1.365 . S
C249 C248 1.366 . S
C249 H263 0.930 . S
C250 C247 1.378 1_655 S
C250 N251 1.315 . S
C250 H253 0.930 . S
N251 Co231 2.194 . S
N251 C246 1.328 1_655 S
N251 C250 1.315 . S
H252 C246 0.929 . S
H253 C250 0.930 . S
H254 C242 0.929 1_455 S
H255 C244 0.929 . S
O256 Co231 2.351 . S
O256 C259 1.244 . S
O257 Co231 2.155 . S
O257 C259 1.240 . S
O258 Co231 2.096 . S
O258 C239 1.247 . S
C259 O256 1.244 . S
C259 O257 1.240 . S
H260 C234 0.931 . S
H261 C243 0.931 1_455 S
H262 C247 0.929 . S
H263 C249 0.930 . S
Co264 N268 2.148 . S
Co264 N274 2.128 . S
Co264 N284 2.194 . S
Co264 O289 2.351 . S
Co264 O290 2.155 . S
Co264 O291 2.096 . S
C265 N268 1.301 . S
C265 N269 1.328 . S
C265 H270 0.930 . S
C266 C267 1.333 . S
C266 N268 1.317 . S
C266 H271 0.930 . S
C267 C266 1.333 . S
C267 N269 1.350 . S
C267 H293 0.931 . S
N268 Co264 2.148 . S
N268 C265 1.301 . S
N268 C266 1.317 . S
N269 C265 1.328 . S
N269 C267 1.350 . S
H270 C265 0.930 . S
H271 C266 0.930 . S
C272 O273 1.224 . S
C272 O291 1.247 . S
O273 C272 1.224 . S
N274 Co264 2.128 . S
N274 C275 1.355 . S
N274 C277 1.311 . S
C275 N274 1.355 . S
C275 C276 1.363 . S
C275 H287 0.929 1_565 S
C276 C275 1.363 . S
C276 N278 1.375 . S
C276 H294 0.931 1_565 S
C277 N274 1.311 . S
C277 N278 1.347 . S
C277 H288 0.929 . S
N278 C276 1.375 . S
N278 C277 1.347 . S
C279 C282 1.365 . S
C279 N284 1.328 1_545 S
C279 H285 0.929 . S
C280 C281 1.362 . S
C280 C283 1.378 1_545 S
C280 H295 0.929 . S
C281 C280 1.362 . S
C281 C282 1.366 . S
C282 C279 1.365 . S
C282 C281 1.366 . S
C282 H296 0.930 . S
C283 C280 1.378 1_565 S
C283 N284 1.315 . S
C283 H286 0.930 . S
N284 Co264 2.194 . S
N284 C279 1.328 1_565 S
N284 C283 1.315 . S
H285 C279 0.929 . S
H286 C283 0.930 . S
H287 C275 0.929 1_545 S
H288 C277 0.929 . S
O289 Co264 2.351 . S
O289 C292 1.244 . S
O290 Co264 2.155 . S
O290 C292 1.240 . S
O291 Co264 2.096 . S
O291 C272 1.247 . S
C292 O289 1.244 . S
C292 O290 1.240 . S
H293 C267 0.931 . S
H294 C276 0.931 1_545 S
H295 C280 0.929 . S
H296 C282 0.930 . S
Co297 N301 2.148 . S
Co297 N307 2.128 . S
Co297 N317 2.194 . S
Co297 O322 2.351 . S
Co297 O323 2.155 . S
Co297 O324 2.096 . S
C298 N301 1.301 . S
C298 N302 1.328 . S
C298 H303 0.930 . S
C299 C300 1.333 . S
C299 N301 1.317 . S
C299 H304 0.930 . S
C300 C299 1.333 . S
C300 N302 1.350 . S
C300 H326 0.931 . S
N301 Co297 2.148 . S
N301 C298 1.301 . S
N301 C299 1.317 . S
N302 C298 1.328 . S
N302 C300 1.350 . S
H303 C298 0.930 . S
H304 C299 0.930 . S
C305 O306 1.224 . S
C305 O324 1.247 . S
O306 C305 1.224 . S
N307 Co297 2.128 . S
N307 C308 1.355 . S
N307 C310 1.311 . S
C308 N307 1.355 . S
C308 C309 1.363 . S
C308 H320 0.929 . S
C309 C308 1.363 . S
C309 N311 1.375 . S
C309 H327 0.931 . S
C310 N307 1.311 . S
C310 N311 1.347 . S
C310 H321 0.929 . S
N311 C309 1.375 . S
N311 C310 1.347 . S
C312 C315 1.365 . S
C312 N317 1.328 . S
C312 H318 0.929 . S
C313 C314 1.362 . S
C313 C316 1.378 . S
C313 H328 0.929 . S
C314 C313 1.362 . S
C314 C315 1.366 . S
C315 C312 1.365 . S
C315 C314 1.366 . S
C315 H329 0.930 . S
C316 C313 1.378 . S
C316 N317 1.315 . S
C316 H319 0.930 . S
N317 Co297 2.194 . S
N317 C312 1.328 . S
N317 C316 1.315 . S
H318 C312 0.929 . S
H319 C316 0.930 . S
H320 C308 0.929 . S
H321 C310 0.929 . S
O322 Co297 2.351 . S
O322 C325 1.244 . S
O323 Co297 2.155 . S
O323 C325 1.240 . S
O324 Co297 2.096 . S
O324 C305 1.247 . S
C325 O322 1.244 . S
C325 O323 1.240 . S
H326 C300 0.931 . S
H327 C309 0.931 . S
H328 C313 0.929 . S
H329 C315 0.930 . S
Co330 N334 2.148 . S
Co330 N340 2.128 . S
Co330 N350 2.194 . S
Co330 O355 2.351 . S
Co330 O356 2.155 . S
Co330 O357 2.096 . S
C331 N334 1.301 . S
C331 N335 1.328 . S
C331 H336 0.930 . S
C332 C333 1.333 . S
C332 N334 1.317 . S
C332 H337 0.930 . S
C333 C332 1.333 . S
C333 N335 1.350 . S
C333 H359 0.931 . S
N334 Co330 2.148 . S
N334 C331 1.301 . S
N334 C332 1.317 . S
N335 C331 1.328 . S
N335 C333 1.350 . S
H336 C331 0.930 . S
H337 C332 0.930 . S
C338 O339 1.224 . S
C338 O357 1.247 . S
O339 C338 1.224 . S
N340 Co330 2.128 . S
N340 C341 1.355 . S
N340 C343 1.311 . S
C341 N340 1.355 . S
C341 C342 1.363 . S
C341 H353 0.929 1_455 S
C342 C341 1.363 . S
C342 N344 1.375 . S
C342 H360 0.931 1_455 S
C343 N340 1.311 . S
C343 N344 1.347 . S
C343 H354 0.929 . S
N344 C342 1.375 . S
N344 C343 1.347 . S
C345 C348 1.365 . S
C345 N350 1.328 1_655 S
C345 H351 0.929 . S
C346 C347 1.362 . S
C346 C349 1.378 1_655 S
C346 H361 0.929 . S
C347 C346 1.362 . S
C347 C348 1.366 . S
C348 C345 1.365 . S
C348 C347 1.366 . S
C348 H362 0.930 . S
C349 C346 1.378 1_455 S
C349 N350 1.315 . S
C349 H352 0.930 . S
N350 Co330 2.194 . S
N350 C345 1.328 1_455 S
N350 C349 1.315 . S
H351 C345 0.929 . S
H352 C349 0.930 . S
H353 C341 0.929 1_655 S
H354 C343 0.929 . S
O355 Co330 2.351 . S
O355 C358 1.244 . S
O356 Co330 2.155 . S
O356 C358 1.240 . S
O357 Co330 2.096 . S
O357 C338 1.247 . S
C358 O355 1.244 . S
C358 O356 1.240 . S
H359 C333 0.931 . S
H360 C342 0.931 1_655 S
H361 C346 0.929 . S
H362 C348 0.930 . S
Co363 N367 2.148 . S
Co363 N373 2.128 . S
Co363 N383 2.194 . S
Co363 O388 2.351 . S
Co363 O389 2.155 . S
Co363 O390 2.096 . S
C364 N367 1.301 . S
C364 N368 1.328 . S
C364 H369 0.930 . S
C365 C366 1.333 . S
C365 N367 1.317 . S
C365 H370 0.930 . S
C366 C365 1.333 . S
C366 N368 1.350 . S
C366 H392 0.931 . S
N367 Co363 2.148 . S
N367 C364 1.301 . S
N367 C365 1.317 . S
N368 C364 1.328 . S
N368 C366 1.350 . S
H369 C364 0.930 . S
H370 C365 0.930 . S
C371 O372 1.224 . S
C371 O390 1.247 . S
O372 C371 1.224 . S
N373 Co363 2.128 . S
N373 C374 1.355 . S
N373 C376 1.311 . S
C374 N373 1.355 . S
C374 C375 1.363 . S
C374 H386 0.929 1_545 S
C375 C374 1.363 . S
C375 N377 1.375 . S
C375 H393 0.931 1_545 S
C376 N373 1.311 . S
C376 N377 1.347 . S
C376 H387 0.929 . S
N377 C375 1.375 . S
N377 C376 1.347 . S
C378 C381 1.365 . S
C378 N383 1.328 1_565 S
C378 H384 0.929 . S
C379 C380 1.362 . S
C379 C382 1.378 1_565 S
C379 H394 0.929 . S
C380 C379 1.362 . S
C380 C381 1.366 . S
C381 C378 1.365 . S
C381 C380 1.366 . S
C381 H395 0.930 . S
C382 C379 1.378 1_545 S
C382 N383 1.315 . S
C382 H385 0.930 . S
N383 Co363 2.194 . S
N383 C378 1.328 1_545 S
N383 C382 1.315 . S
H384 C378 0.929 . S
H385 C382 0.930 . S
H386 C374 0.929 1_565 S
H387 C376 0.929 . S
O388 Co363 2.351 . S
O388 C391 1.244 . S
O389 Co363 2.155 . S
O389 C391 1.240 . S
O390 Co363 2.096 . S
O390 C371 1.247 . S
C391 O388 1.244 . S
C391 O389 1.240 . S
H392 C366 0.931 . S
H393 C375 0.931 1_565 S
H394 C379 0.929 . S
H395 C381 0.930 . S
C396 C397 1.170 . S
C396 C398 1.380 . S
C397 C396 1.170 . S
C398 C396 1.380 . S
C398 C399 1.170 . S
C399 C398 1.170 . S
C400 C401 1.170 . S
C400 C402 1.380 1_455 S
C401 C400 1.170 . S
C402 C400 1.380 1_655 S
C402 C403 1.170 . S
C403 C402 1.170 . S
C404 C405 1.170 . S
C404 C406 1.380 1_545 S
C405 C404 1.170 . S
C406 C404 1.380 1_565 S
C406 C407 1.170 . S
C407 C406 1.170 . S
C408 C409 1.170 . S
C408 C410 1.380 . S
C409 C408 1.170 . S
C410 C408 1.380 . S
C410 C411 1.170 . S
C411 C410 1.170 . S
C412 C413 1.170 . S
C412 C414 1.380 1_655 S
C413 C412 1.170 . S
C414 C412 1.380 1_455 S
C414 C415 1.170 . S
C415 C414 1.170 . S
C416 C417 1.170 . S
C416 C418 1.380 1_565 S
C417 C416 1.170 . S
C418 C416 1.380 1_545 S
C418 C419 1.170 . S
C419 C418 1.170 . S
C420 C421 1.170 . S
C420 C422 1.380 . S
C421 C420 1.170 . S
C422 C420 1.380 . S
C422 C423 1.170 . S
C423 C422 1.170 . S
C424 C425 1.170 . S
C424 C426 1.380 1_655 S
C425 C424 1.170 . S
C426 C424 1.380 1_455 S
C426 C427 1.170 . S
C427 C426 1.170 . S
C428 C429 1.170 . S
C428 C430 1.380 1_544 S
C429 C428 1.170 . S
C430 C428 1.380 1_566 S
C430 C431 1.170 . S
C431 C430 1.170 . S
C432 C433 1.170 . S
C432 C434 1.380 . S
C433 C432 1.170 . S
C434 C432 1.380 . S
C434 C435 1.170 . S
C435 C434 1.170 . S
C436 C437 1.170 . S
C436 C438 1.380 1_455 S
C437 C436 1.170 . S
C438 C436 1.380 1_655 S
C438 C439 1.170 . S
C439 C438 1.170 . S
C440 C441 1.170 . S
C440 C442 1.380 1_546 S
C441 C440 1.170 . S
C442 C440 1.380 1_564 S
C442 C443 1.170 . S
C443 C442 1.170 . S
C444 C445 1.170 . S
C444 C446 1.380 1_445 S
C445 C444 1.170 . S
C446 C444 1.380 1_665 S
C446 C447 1.170 . S
C447 C446 1.170 . S
C448 C449 1.170 . S
C448 C450 1.380 1_645 S
C449 C448 1.170 . S
C450 C448 1.380 1_465 S
C450 C451 1.170 . S
C451 C450 1.170 . S
C452 C453 1.170 . S
C452 C454 1.380 1_445 S
C453 C452 1.170 . S
C454 C452 1.380 1_665 S
C454 C455 1.170 . S
C455 C454 1.170 . S
C456 C457 1.170 . S
C456 C458 1.380 1_665 S
C457 C456 1.170 . S
C458 C456 1.380 1_445 S
C458 C459 1.170 . S
C459 C458 1.170 . S
C460 C461 1.170 . S
C460 C462 1.380 1_665 S
C461 C460 1.170 . S
C462 C460 1.380 1_445 S
C462 C463 1.170 . S
C463 C462 1.170 . S
C464 C465 1.170 . S
C464 C466 1.380 1_645 S
C465 C464 1.170 . S
C466 C464 1.380 1_465 S
C466 C467 1.170 . S
C467 C466 1.170 . S
C468 C469 1.170 . S
C468 C470 1.380 1_655 S
C469 C468 1.170 . S
C470 C468 1.380 1_455 S
C470 C471 1.170 . S
C471 C470 1.170 . S
C472 C473 1.170 . S
C472 C474 1.380 1_545 S
C473 C472 1.170 . S
C474 C472 1.380 1_565 S
C474 C475 1.170 . S
C475 C474 1.170 . S
C476 C477 1.170 . S
C476 C478 1.380 . S
C477 C476 1.170 . S
C478 C476 1.380 . S
C478 C479 1.170 . S
C479 C478 1.170 . S
C480 C481 1.170 . S
C480 C482 1.380 1_455 S
C481 C480 1.170 . S
C482 C480 1.380 1_655 S
C482 C483 1.170 . S
C483 C482 1.170 . S
C484 C485 1.170 . S
C484 C486 1.380 1_565 S
C485 C484 1.170 . S
C486 C484 1.380 1_545 S
C486 C487 1.170 . S
C487 C486 1.170 . S
C488 C489 1.170 . S
C488 C490 1.380 . S
C489 C488 1.170 . S
C490 C488 1.380 . S
C490 C491 1.170 . S
C491 C490 1.170 . S
C492 C493 1.170 . S
C492 C494 1.380 . S
C493 C492 1.170 . S
C494 C492 1.380 . S
C494 C495 1.170 . S
C495 C494 1.170 . S
C496 C497 1.170 . S
C496 C498 1.380 . S
C497 C496 1.170 . S
C498 C496 1.380 . S
C498 C499 1.170 . S
C499 C498 1.170 . S
C500 C501 1.170 . S
C500 C502 1.380 . S
C501 C500 1.170 . S
C502 C500 1.380 . S
C502 C503 1.170 . S
C503 C502 1.170 . S
C504 C505 1.170 . S
C504 C506 1.380 . S
C505 C504 1.170 . S
C506 C504 1.380 . S
C506 C507 1.170 . S
C507 C506 1.170 . S
C508 C509 1.170 . S
C508 C510 1.380 . S
C509 C508 1.170 . S
C510 C508 1.380 . S
C510 C511 1.170 . S
C511 C510 1.170 . S
C512 C513 1.170 . S
C512 C514 1.380 . S
C513 C512 1.170 . S
C514 C512 1.380 . S
C514 C515 1.170 . S
C515 C514 1.170 . S
C397 N104 1.952 . S
C399 N5 1.978 . S
C401 N137 1.958 . S
C403 N38 1.973 . S
C405 N170 1.973 . S
C407 N71 1.957 . S
C409 N203 1.971 . S
C411 N302 1.961 . S
C413 N236 1.976 . S
C415 N335 1.956 . S
C417 N269 1.957 . S
C419 N368 1.973 . S
C421 C325 1.820 . S
C423 C28 1.834 . S
C425 C61 1.837 . S
C427 C358 1.835 . S
C429 C391 1.810 . S
C431 C94 1.815 . S
C433 C226 1.829 . S
C435 C127 1.815 . S
C437 C160 1.829 . S
C439 C259 1.814 . S
C441 C193 1.818 . S
C443 C292 1.832 . S
C445 N14 1.044 . S
C447 N113 1.089 . S
C449 N47 1.106 . S
C451 N146 1.014 . S
C453 N179 1.089 . S
C455 N80 1.044 . S
C457 N212 1.062 . S
C459 N311 1.036 . S
C461 N245 1.097 . S
C463 N344 1.033 . S
C465 N377 1.028 . S
C467 N278 1.100 . S
C469 C371 1.829 . S
C471 C8 1.823 . S
C473 C41 1.851 . S
C475 C206 1.863 . S
C477 C239 1.860 . S
C479 C74 1.862 . S
C481 C272 1.835 . S
C483 C107 1.823 . S
C485 C140 1.857 . S
C487 C305 1.863 . S
C489 C173 1.857 . S
C491 C338 1.837 . S
C493 C17 0.372 . S
C495 C281 0.382 . S
C497 C50 0.392 . S
C499 C314 0.268 . S
C501 C347 0.372 . S
C503 C83 0.260 . S
C505 C116 0.307 . S
C507 C380 0.294 . S
C509 C215 0.314 . S
C511 C149 0.407 . S
C513 C182 0.311 . S
C515 C248 0.407 . S
