# Generated by pormake.
# Topology zfy, (5)-cn, num edge types: 1
# Building blocks:
#     Node 0, Type 0, BuildingBlock: BEQFEK_clean_sbu_0, # of connection points: 5
#     Node 1, Type 0, BuildingBlock: BEQFEK_clean_sbu_0, # of connection points: 5
#     Node 2, Type 0, BuildingBlock: BEQFEK_clean_sbu_0, # of connection points: 5
#     Node 3, Type 0, BuildingBlock: BEQFEK_clean_sbu_0, # of connection points: 5
#     Node 4, Type 0, BuildingBlock: BEQFEK_clean_sbu_0, # of connection points: 5
#     Node 5, Type 0, BuildingBlock: BEQFEK_clean_sbu_0, # of connection points: 5
#     Node 6, Type 0, BuildingBlock: BEQFEK_clean_sbu_0, # of connection points: 5
#     Node 7, Type 0, BuildingBlock: BEQFEK_clean_sbu_0, # of connection points: 5
#     Node 8, Type 0, BuildingBlock: BEQFEK_clean_sbu_0, # of connection points: 5
#     Node 9, Type 0, BuildingBlock: BEQFEK_clean_sbu_0, # of connection points: 5
#     Node 10, Type 0, BuildingBlock: BEQFEK_clean_sbu_0, # of connection points: 5
#     Node 11, Type 0, BuildingBlock: BEQFEK_clean_sbu_0, # of connection points: 5
#     Node 12, Type 0, BuildingBlock: BEQFEK_clean_sbu_0, # of connection points: 5
#     Node 13, Type 0, BuildingBlock: BEQFEK_clean_sbu_0, # of connection points: 5
#     Node 14, Type 0, BuildingBlock: BEQFEK_clean_sbu_0, # of connection points: 5
#     Node 15, Type 0, BuildingBlock: BEQFEK_clean_sbu_0, # of connection points: 5
#     Edge 16, Type (0, 0), BuildingBlock: AJUNOK_clean_linker_0, # of connection points: 2
#     Edge 17, Type (0, 0), BuildingBlock: AJUNOK_clean_linker_0, # of connection points: 2
#     Edge 18, Type (0, 0), BuildingBlock: AJUNOK_clean_linker_0, # of connection points: 2
#     Edge 19, Type (0, 0), BuildingBlock: AJUNOK_clean_linker_0, # of connection points: 2
#     Edge 20, Type (0, 0), BuildingBlock: AJUNOK_clean_linker_0, # of connection points: 2
#     Edge 21, Type (0, 0), BuildingBlock: AJUNOK_clean_linker_0, # of connection points: 2
#     Edge 22, Type (0, 0), BuildingBlock: AJUNOK_clean_linker_0, # of connection points: 2
#     Edge 23, Type (0, 0), BuildingBlock: AJUNOK_clean_linker_0, # of connection points: 2
#     Edge 24, Type (0, 0), BuildingBlock: AJUNOK_clean_linker_0, # of connection points: 2
#     Edge 25, Type (0, 0), BuildingBlock: AJUNOK_clean_linker_0, # of connection points: 2
#     Edge 26, Type (0, 0), BuildingBlock: AJUNOK_clean_linker_0, # of connection points: 2
#     Edge 27, Type (0, 0), BuildingBlock: AJUNOK_clean_linker_0, # of connection points: 2
#     Edge 28, Type (0, 0), BuildingBlock: AJUNOK_clean_linker_0, # of connection points: 2
#     Edge 29, Type (0, 0), BuildingBlock: AJUNOK_clean_linker_0, # of connection points: 2
#     Edge 30, Type (0, 0), BuildingBlock: AJUNOK_clean_linker_0, # of connection points: 2
#     Edge 31, Type (0, 0), BuildingBlock: AJUNOK_clean_linker_0, # of connection points: 2
#     Edge 32, Type (0, 0), BuildingBlock: AJUNOK_clean_linker_0, # of connection points: 2
#     Edge 33, Type (0, 0), BuildingBlock: AJUNOK_clean_linker_0, # of connection points: 2
#     Edge 34, Type (0, 0), BuildingBlock: AJUNOK_clean_linker_0, # of connection points: 2
#     Edge 35, Type (0, 0), BuildingBlock: AJUNOK_clean_linker_0, # of connection points: 2
#     Edge 36, Type (0, 0), BuildingBlock: AJUNOK_clean_linker_0, # of connection points: 2
#     Edge 37, Type (0, 0), BuildingBlock: AJUNOK_clean_linker_0, # of connection points: 2
#     Edge 38, Type (0, 0), BuildingBlock: AJUNOK_clean_linker_0, # of connection points: 2
#     Edge 39, Type (0, 0), BuildingBlock: AJUNOK_clean_linker_0, # of connection points: 2
#     Edge 40, Type (0, 0), BuildingBlock: AJUNOK_clean_linker_0, # of connection points: 2
#     Edge 41, Type (0, 0), BuildingBlock: AJUNOK_clean_linker_0, # of connection points: 2
#     Edge 42, Type (0, 0), BuildingBlock: AJUNOK_clean_linker_0, # of connection points: 2
#     Edge 43, Type (0, 0), BuildingBlock: AJUNOK_clean_linker_0, # of connection points: 2
#     Edge 44, Type (0, 0), BuildingBlock: AJUNOK_clean_linker_0, # of connection points: 2
#     Edge 45, Type (0, 0), BuildingBlock: AJUNOK_clean_linker_0, # of connection points: 2
#     Edge 46, Type (0, 0), BuildingBlock: AJUNOK_clean_linker_0, # of connection points: 2
#     Edge 47, Type (0, 0), BuildingBlock: AJUNOK_clean_linker_0, # of connection points: 2
#     Edge 48, Type (0, 0), BuildingBlock: AJUNOK_clean_linker_0, # of connection points: 2
#     Edge 49, Type (0, 0), BuildingBlock: AJUNOK_clean_linker_0, # of connection points: 2
#     Edge 50, Type (0, 0), BuildingBlock: AJUNOK_clean_linker_0, # of connection points: 2
#     Edge 51, Type (0, 0), BuildingBlock: AJUNOK_clean_linker_0, # of connection points: 2
#     Edge 52, Type (0, 0), BuildingBlock: AJUNOK_clean_linker_0, # of connection points: 2
#     Edge 53, Type (0, 0), BuildingBlock: AJUNOK_clean_linker_0, # of connection points: 2
#     Edge 54, Type (0, 0), BuildingBlock: AJUNOK_clean_linker_0, # of connection points: 2
#     Edge 55, Type (0, 0), BuildingBlock: AJUNOK_clean_linker_0, # of connection points: 2
# Relax obj value: 0.231
# Max RMSD: 0.146
# Mean RMSD: 0.146
data_MOF--net-zfy--node1-BEQFEK_clean_sbu_0--edge1-AJUNOK_clean_linker_0
_symmetry_space_group_name_H-M    P1
_symmetry_Int_Tables_number       1
_symmetry_cell_setting            triclinic
loop_
_symmetry_equiv_pos_as_xyz
'x, y, z'
_cell_length_a     42.400104
_cell_length_b     42.401576
_cell_length_c     20.848988
_cell_angle_alpha  89.93764
_cell_angle_beta   89.966992
_cell_angle_gamma 89.99215
loop_
_atom_site_label
_atom_site_type_symbol
_atom_site_fract_x
_atom_site_fract_y
_atom_site_fract_z
_atom_type_partial_charge
Co0 Co 0.31843 0.16316 0.12215 0.0
Co1 Co 0.31609 0.22081 0.02867 0.0
C2 C 0.30182 0.22942 0.16678 0.0
O3 O 0.30696 0.20017 0.17587 0.0
O4 O 0.30639 0.24183 0.11182 0.0
C5 C 0.35859 0.13034 0.2033 0.0
O6 O 0.37468 0.15658 0.19608 0.0
C7 C 0.33824 0.2779 0.96104 0.0
C8 C 0.32144 0.26839 0.86278 0.0
C9 C 0.34003 0.2889 0.8982 0.0
N10 N 0.32033 0.25164 0.96188 0.0
N11 N 0.3098 0.24656 0.90321 0.0
C12 C 0.35586 0.28998 0.01814 0.0
H13 H 0.35741 0.27154 0.05583 0.0
H14 H 0.37988 0.29781 1.00415 0.0
H15 H 0.34307 0.31057 0.03815 0.0
C16 C 0.3718 0.14717 0.03928 0.0
N17 N 0.35075 0.16833 0.06127 0.0
N18 N 0.35315 0.19454 0.0282 0.0
C19 C 0.37799 0.19173 0.98754 0.0
C20 C 0.39049 0.16131 0.99283 0.0
C21 C 0.36965 0.11243 0.05215 0.0
H22 H 0.34574 0.106 0.06928 0.0
H23 H 0.38723 0.10565 0.08883 0.0
H24 H 0.37494 0.09882 0.00797 0.0
O25 O 0.28087 0.1523 0.07598 0.0
O26 O 0.27741 0.19384 0.01036 0.0
H27 H 0.37492 0.22155 0.9049 0.0
H28 H 0.41489 0.21335 0.93084 0.0
C29 C 0.39044 0.21808 0.94711 0.0
H30 H 0.39076 0.24005 0.97551 0.0
H31 H 0.29612 0.22715 0.89008 0.0
O32 O 0.3312 0.12842 0.17896 0.0
C33 C 0.26661 0.16777 0.03257 0.0
Co34 Co 0.61291 0.57369 0.3681 0.0
Co35 Co 0.55758 0.56352 0.27114 0.0
C36 C 0.5512 0.55177 0.41592 0.0
O37 O 0.57919 0.561 0.42779 0.0
O38 O 0.54006 0.55308 0.35895 0.0
C39 C 0.65563 0.59732 0.46638 0.0
O40 O 0.63068 0.60106 0.50301 0.0
C41 C 0.50242 0.59078 0.20692 0.0
C42 C 0.49863 0.56133 0.12007 0.0
C43 C 0.48628 0.58798 0.14932 0.0
N44 N 0.52362 0.5672 0.21097 0.0
N45 N 0.52081 0.54935 0.15938 0.0
C46 C 0.50039 0.61743 0.25366 0.0
H47 H 0.51956 0.61591 0.28974 0.0
H48 H 0.50167 0.64031 0.22782 0.0
H49 H 0.47734 0.61643 0.27879 0.0
C50 C 0.61928 0.63285 0.29701 0.0
N51 N 0.60228 0.60705 0.31208 0.0
N52 N 0.58241 0.60109 0.26539 0.0
C53 C 0.58755 0.622 0.2173 0.0
C54 C 0.6113 0.64273 0.2358 0.0
C55 C 0.64422 0.64697 0.33874 0.0
H56 H 0.6363 0.64682 0.38941 0.0
H57 H 0.64951 0.67159 0.32408 0.0
H58 H 0.66608 0.63292 0.33451 0.0
O59 O 0.62357 0.53553 0.31877 0.0
O60 O 0.58438 0.52672 0.24999 0.0
H61 H 0.5704 0.59388 0.13909 0.0
H62 H 0.58932 0.63034 0.11502 0.0
C63 C 0.57387 0.61907 0.15142 0.0
H64 H 0.55064 0.63106 0.15021 0.0
H65 H 0.53518 0.52997 0.14939 0.0
O66 O 0.65236 0.58514 0.41136 0.0
C67 C 0.61062 0.51893 0.27535 0.0
Co68 Co 0.20774 0.86557 0.61677 0.0
Co69 Co 0.21712 0.8116 0.51586 0.0
C70 C 0.22889 0.80265 0.65977 0.0
O71 O 0.22018 0.83051 0.67455 0.0
O72 O 0.22732 0.79298 0.60187 0.0
C73 C 0.18327 0.90564 0.71841 0.0
O74 O 0.17916 0.87951 0.75128 0.0
C75 C 0.19074 0.75571 0.45359 0.0
C76 C 0.21834 0.75298 0.36397 0.0
C77 C 0.1932 0.73929 0.39621 0.0
N78 N 0.21329 0.77805 0.45496 0.0
N79 N 0.23002 0.77596 0.40166 0.0
C80 C 0.16536 0.75271 0.50313 0.0
H81 H 0.16269 0.77503 0.53027 0.0
H82 H 0.1426 0.74611 0.48055 0.0
H83 H 0.17202 0.73396 0.53769 0.0
C84 C 0.14817 0.87307 0.5458 0.0
N85 N 0.17428 0.85621 0.55949 0.0
N86 N 0.17968 0.83639 0.51244 0.0
C87 C 0.15798 0.84114 0.46581 0.0
C88 C 0.13729 0.86471 0.48546 0.0
C89 C 0.13452 0.89794 0.58829 0.0
H90 H 0.13524 0.88994 0.63883 0.0
H91 H 0.10968 0.90315 0.5753 0.0
H92 H 0.14856 0.9198 0.58309 0.0
O93 O 0.24616 0.87662 0.56792 0.0
O94 O 0.25395 0.83851 0.49605 0.0
H95 H 0.14779 0.84205 0.36413 0.0
H96 H 0.14883 0.80354 0.40042 0.0
C97 C 0.16008 0.82715 0.40006 0.0
H98 H 0.18512 0.82437 0.38582 0.0
H99 H 0.24846 0.79119 0.38965 0.0
O100 O 0.19613 0.90421 0.66356 0.0
C101 C 0.26235 0.86412 0.52319 0.0
Co102 Co 0.91515 0.45785 0.86963 0.0
Co103 Co 0.97069 0.46635 0.77233 0.0
C104 C 0.97916 0.47835 0.91379 0.0
O105 O 0.95086 0.47012 0.92513 0.0
O106 O 0.99046 0.47646 0.8572 0.0
C107 C 0.87941 0.42164 0.95855 0.0
O108 O 0.90509 0.40432 0.96096 0.0
C109 C 0.02814 0.44365 0.70994 0.0
C110 C 0.02557 0.46658 0.61497 0.0
C111 C 0.04257 0.44459 0.6501 0.0
N112 N 1.00358 0.46377 0.7096 0.0
N113 N 1.00261 0.47794 0.65318 0.0
C114 C 0.03467 0.42111 0.76362 0.0
H115 H 1.01311 0.41741 0.79292 0.0
H116 H 0.04335 0.39821 0.74487 0.0
H117 H 0.0531 0.4313 0.79515 0.0
C118 C 0.90409 0.40089 0.79113 0.0
N119 N 0.92257 0.4252 0.80944 0.0
N120 N 0.9461 0.42809 0.76864 0.0
C121 C 0.9435 0.40505 0.72381 0.0
C122 C 0.91706 0.3869 0.73743 0.0
C123 C 0.8714 0.39483 0.81557 0.0
H124 H 0.85988 0.4172 0.82963 0.0
H125 H 0.87274 0.37867 0.85721 0.0
H126 H 0.85649 0.38333 0.77865 0.0
O127 O 0.90323 0.4957 0.8229 0.0
O128 O 0.94266 0.50346 0.75381 0.0
H129 H 0.96524 0.42486 0.64022 0.0
H130 H 0.9551 0.38363 0.63241 0.0
C131 C 0.96401 0.40195 0.66572 0.0
H132 H 0.98806 0.39504 0.68069 0.0
H133 H 0.98515 0.49393 0.63945 0.0
O134 O 0.87935 0.44647 0.92457 0.0
C135 C 0.91638 0.51173 0.77881 0.0
Co136 Co 0.70715 0.8653 0.89341 0.0
Co137 Co 0.71327 0.80873 0.98933 0.0
C138 C 0.72673 0.80112 0.84813 0.0
O139 O 0.71939 0.82971 0.83739 0.0
O140 O 0.72384 0.78945 0.90423 0.0
C141 C 0.66901 0.89949 0.80772 0.0
O142 O 0.65265 0.87318 0.80885 0.0
C143 C 0.68734 0.75198 0.04991 0.0
C144 C 0.71492 0.74825 0.1393 0.0
C145 C 0.69009 0.73465 0.10608 0.0
N146 N 0.70916 0.77507 0.05037 0.0
N147 N 0.72579 0.77249 0.1037 0.0
C148 C 0.66497 0.74626 0.99568 0.0
H149 H 0.66791 0.76441 0.95775 0.0
H150 H 0.64028 0.74648 0.01311 0.0
H151 H 0.6695 0.72253 0.97522 0.0
C152 C 0.65063 0.87762 0.97171 0.0
N153 N 0.67421 0.8583 0.95308 0.0
N154 N 0.67571 0.83416 0.99266 0.0
C155 C 0.65229 0.83712 0.03673 0.0
C156 C 0.63528 0.86434 0.02346 0.0
C157 C 0.64716 0.91139 0.95153 0.0
H158 H 0.67004 0.92125 0.93569 0.0
H159 H 0.62957 0.91292 0.91252 0.0
H160 H 0.63831 0.92612 0.99168 0.0
O161 O 0.7449 0.87649 0.94139 0.0
O162 O 0.75083 0.8361 0.00933 0.0
H163 H 0.67128 0.81259 0.118 0.0
H164 H 0.63155 0.8269 0.1295 0.0
C165 C 0.6482 0.81649 0.0944 0.0
H166 H 0.63851 0.79347 0.07923 0.0
H167 H 0.74398 0.7878 0.11664 0.0
O168 O 0.69506 0.90066 0.83769 0.0
C169 C 0.76017 0.86232 0.98538 0.0
Co170 Co 0.41509 0.45987 0.64688 0.0
Co171 Co 0.46919 0.46702 0.74838 0.0
C172 C 0.48039 0.47897 0.60751 0.0
O173 O 0.45209 0.47168 0.59352 0.0
O174 O 0.49037 0.47648 0.66495 0.0
C175 C 0.3811 0.42387 0.55497 0.0
O176 O 0.40728 0.40729 0.55346 0.0
C177 C 0.52417 0.4422 0.81726 0.0
C178 C 0.52244 0.46896 0.90788 0.0
C179 C 0.53795 0.44423 0.8777 0.0
N180 N 0.50111 0.46397 0.81313 0.0
N181 N 0.5007 0.48035 0.86694 0.0
C182 C 0.53032 0.41799 0.76658 0.0
H183 H 0.51018 0.41661 0.73273 0.0
H184 H 0.53468 0.39454 0.78857 0.0
H185 H 0.55168 0.42488 0.73916 0.0
C186 C 0.40219 0.40256 0.72426 0.0
N187 N 0.42107 0.42693 0.70781 0.0
N188 N 0.44364 0.4296 0.75083 0.0
C189 C 0.43978 0.40666 0.79561 0.0
C190 C 0.41384 0.38848 0.7791 0.0
C191 C 0.37028 0.3962 0.69637 0.0
H192 H 0.35879 0.41848 0.68154 0.0
H193 H 0.37297 0.38026 0.65476 0.0
H194 H 0.35463 0.38426 0.73149 0.0
O195 O 0.40301 0.49815 0.69325 0.0
O196 O 0.44178 0.50459 0.76445 0.0
H197 H 0.46126 0.42753 0.87845 0.0
H198 H 0.44653 0.38812 0.89154 0.0
C199 C 0.45825 0.40395 0.85652 0.0
H200 H 0.48176 0.39391 0.84585 0.0
H201 H 0.48448 0.4982 0.87702 0.0
O202 O 0.38004 0.44853 0.58938 0.0
C203 C 0.41619 0.51377 0.73791 0.0
Co204 Co 0.82346 0.1644 0.38814 0.0
Co205 Co 0.819 0.21906 0.48893 0.0
C206 C 0.80444 0.22994 0.34911 0.0
O207 O 0.81109 0.20149 0.33508 0.0
O208 O 0.80808 0.24007 0.40617 0.0
C209 C 0.86054 0.13118 0.29886 0.0
O210 O 0.87682 0.15752 0.30061 0.0
C211 C 0.8431 0.27575 0.55276 0.0
C212 C 0.82126 0.27228 0.64865 0.0
C213 C 0.84271 0.28976 0.61306 0.0
N214 N 0.82317 0.25103 0.55329 0.0
N215 N 0.80971 0.24949 0.61035 0.0
C216 C 0.86468 0.28306 0.4979 0.0
H217 H 0.86857 0.26169 0.46822 0.0
H218 H 0.88759 0.29233 0.51541 0.0
H219 H 0.8535 0.30123 0.46705 0.0
C220 C 0.88044 0.14991 0.46452 0.0
N221 N 0.85709 0.1699 0.44751 0.0
N222 N 0.8564 0.19355 0.4883 0.0
C223 C 0.88018 0.18974 0.53117 0.0
C224 C 0.89647 0.16226 0.51643 0.0
C225 C 0.88307 0.11637 0.44256 0.0
H226 H 0.85995 0.1073 0.42633 0.0
H227 H 0.90055 0.11499 0.40329 0.0
H228 H 0.89163 0.1009 0.48185 0.0
O229 O 0.78595 0.15263 0.43679 0.0
O230 O 0.7818 0.19144 0.50855 0.0
H231 H 0.86345 0.21168 0.61713 0.0
H232 H 0.90465 0.20084 0.6196 0.0
C233 C 0.88549 0.21011 0.58871 0.0
H234 H 0.89221 0.2341 0.57288 0.0
H235 H 0.79385 0.23192 0.62418 0.0
O236 O 0.83474 0.12964 0.32974 0.0
C237 C 0.77161 0.16596 0.48308 0.0
Co238 Co 0.11528 0.57247 0.14166 0.0
Co239 Co 0.06102 0.56562 0.24304 0.0
C240 C 0.04991 0.55184 0.10371 0.0
O241 O 0.07821 0.5592 0.08977 0.0
O242 O 0.03966 0.55493 0.16082 0.0
C243 C 0.1472 0.61164 0.05362 0.0
O244 O 0.12082 0.62776 0.05782 0.0
C245 C 1.00453 0.58787 0.31062 0.0
C246 C 1.01025 0.56596 0.40593 0.0
C247 C 0.99194 0.58747 0.37223 0.0
N248 N 0.02958 0.56836 0.30891 0.0
N249 N 0.03238 0.55475 0.36562 0.0
C250 C 0.99542 0.60911 0.25631 0.0
H251 H 1.01497 0.61101 0.22108 0.0
H252 H 0.98899 0.63287 0.27438 0.0
H253 H 0.97454 0.59904 0.23167 0.0
C254 C 0.12874 0.62875 0.21998 0.0
N255 N 0.10908 0.60532 0.20211 0.0
N256 N 0.08538 0.60389 0.2428 0.0
C257 C 0.08869 0.62751 0.28618 0.0
C258 C 0.11607 0.64417 0.27231 0.0
C259 C 0.16236 0.6318 0.19855 0.0
H260 H 0.17147 0.60905 0.18036 0.0
H261 H 0.16389 0.65015 0.16095 0.0
H262 H 0.1777 0.63943 0.23877 0.0
O263 O 0.12881 0.53531 0.18899 0.0
O264 O 0.08995 0.52887 0.26025 0.0
H265 H 0.06686 0.61093 0.37251 0.0
H266 H 0.07598 0.65258 0.37304 0.0
C267 C 0.06774 0.63266 0.34299 0.0
H268 H 0.04366 0.63832 0.3263 0.0
H269 H 0.05049 0.53919 0.3779 0.0
O270 O 0.14919 0.5853 0.08242 0.0
C271 C 0.116 0.52013 0.23478 0.0
Co272 Co 0.82332 0.66609 0.62587 0.0
Co273 Co 0.81525 0.71753 0.51923 0.0
C274 C 0.80168 0.73048 0.66013 0.0
O275 O 0.81154 0.7034 0.67722 0.0
O276 O 0.80269 0.73886 0.60139 0.0
C277 C 0.86008 0.63242 0.7174 0.0
O278 O 0.87734 0.65817 0.71673 0.0
C279 C 0.83811 0.77372 0.45146 0.0
C280 C 0.81452 0.76946 0.35759 0.0
C281 C 0.83692 0.787 0.39048 0.0
N282 N 0.81808 0.74908 0.45358 0.0
N283 N 0.80355 0.74711 0.39773 0.0
C284 C 0.86034 0.78186 0.50465 0.0
H285 H 0.86209 0.76209 0.53941 0.0
H286 H 0.88403 0.78762 0.48522 0.0
H287 H 0.85129 0.80293 0.53027 0.0
C288 C 0.88035 0.6522 0.54842 0.0
N289 N 0.85618 0.67141 0.56442 0.0
N290 N 0.85383 0.69386 0.52101 0.0
C291 C 0.87709 0.68992 0.47701 0.0
C292 C 0.89495 0.66375 0.49395 0.0
C293 C 0.88541 0.61977 0.5751 0.0
H294 H 0.86284 0.60937 0.59129 0.0
H295 H 0.90227 0.62123 0.61545 0.0
H296 H 0.89582 0.60378 0.53866 0.0
O297 O 0.78497 0.65332 0.58108 0.0
O298 O 0.78014 0.68741 0.49983 0.0
H299 H 0.85753 0.70933 0.39086 0.0
H300 H 0.89868 0.69872 0.38434 0.0
C301 C 0.8804 0.70866 0.41652 0.0
H302 H 0.88743 0.73307 0.42857 0.0
H303 H 0.78735 0.72951 0.38591 0.0
O304 O 0.83483 0.63172 0.68477 0.0
C305 C 0.7707 0.66336 0.53149 0.0
Co306 Co 0.11387 0.07454 0.87434 0.0
Co307 Co 0.06173 0.0646 0.77012 0.0
C308 C 0.04984 0.05208 0.91142 0.0
O309 O 0.07692 0.06262 0.92627 0.0
O310 O 0.04052 0.05252 0.85323 0.0
C311 C 0.14582 0.11465 0.9611 0.0
O312 O 0.11978 0.13127 0.95624 0.0
C313 C 1.00554 0.08681 0.70192 0.0
C314 C 1.00988 0.06275 0.60859 0.0
C315 C 0.99245 0.0855 0.6408 0.0
N316 N 0.03001 0.06659 0.70467 0.0
N317 N 0.03199 0.05174 0.64918 0.0
C318 C 0.99754 0.10944 0.75453 0.0
H319 H 0.01723 0.11113 0.78941 0.0
H320 H 0.99212 0.1331 0.73456 0.0
H321 H 0.9763 0.10079 0.7802 0.0
C322 C 0.12741 0.12997 0.79297 0.0
N323 N 0.10808 0.10628 0.81123 0.0
N324 N 0.08513 0.10355 0.76914 0.0
C325 C 0.08876 0.12635 0.7239 0.0
C326 C 0.11535 0.14405 0.73854 0.0
C327 C 0.16043 0.13459 0.8168 0.0
H328 H 0.17021 0.1123 0.83594 0.0
H329 H 0.1604 0.15306 0.85422 0.0
H330 H 0.1762 0.14285 0.77771 0.0
O331 O 0.12723 0.03586 0.83188 0.0
O332 O 0.0923 0.0293 0.75263 0.0
H333 H 0.06855 0.10639 0.63897 0.0
H334 H 0.0789 0.14758 0.63139 0.0
C335 C 0.06937 0.12935 0.66426 0.0
H336 H 0.04508 0.13638 0.67728 0.0
H337 H 0.04955 0.03541 0.63777 0.0
O338 O 0.14742 0.0881 0.93314 0.0
C339 C 0.11677 0.02058 0.78393 0.0
Co340 Co 0.70881 0.36867 0.12572 0.0
Co341 Co 0.71246 0.31328 0.02571 0.0
C342 C 0.72987 0.3026 0.16297 0.0
O343 O 0.72316 0.33127 0.17495 0.0
O344 O 0.72526 0.29111 0.1071 0.0
C345 C 0.67144 0.40008 0.21656 0.0
O346 O 0.65612 0.37318 0.21453 0.0
C347 C 0.69583 0.25526 0.953 0.0
C348 C 0.69736 0.27397 0.85423 0.0
C349 C 0.68785 0.24785 0.88948 0.0
N350 N 0.7076 0.2848 0.95446 0.0
N351 N 0.70928 0.29538 0.89502 0.0
C352 C 0.69437 0.23466 0.01121 0.0
H353 H 0.71483 0.23962 0.0427 0.0
H354 H 0.6727 0.24017 0.0389 0.0
H355 H 0.69481 0.20933 0.99794 0.0
C356 C 0.65078 0.38198 0.05375 0.0
N357 N 0.67464 0.36239 0.06945 0.0
N358 N 0.67403 0.33761 0.03162 0.0
C359 C 0.64824 0.33996 0.99333 0.0
C360 C 0.63278 0.36807 0.00643 0.0
C361 C 0.64913 0.41611 0.07209 0.0
H362 H 0.67245 0.42491 0.08783 0.0
H363 H 0.63153 0.41911 0.11081 0.0
H364 H 0.64115 0.43067 0.03089 0.0
O365 O 0.74456 0.38216 0.07543 0.0
O366 O 0.74904 0.34231 0.00617 0.0
H367 H 0.65233 0.32157 0.89852 0.0
H368 H 0.61336 0.31904 0.93156 0.0
C369 C 0.63884 0.31677 0.94298 0.0
H370 H 0.64358 0.29245 0.9597 0.0
H371 H 0.71667 0.31808 0.88269 0.0
O372 O 0.69721 0.40251 0.18589 0.0
C373 C 0.75864 0.36855 0.02932 0.0
Co374 Co 0.41459 0.95977 0.37226 0.0
Co375 Co 0.46912 0.96456 0.27118 0.0
C376 C 0.48028 0.97848 0.41083 0.0
O377 O 0.4518 0.9719 0.4249 0.0
O378 O 0.49038 0.97501 0.35371 0.0
C379 C 0.38206 0.92288 0.46262 0.0
O380 O 0.40887 0.90737 0.46166 0.0
C381 C 0.52494 0.93996 0.20516 0.0
C382 C 0.52163 0.96324 0.1107 0.0
C383 C 0.53839 0.94048 0.14436 0.0
N384 N 0.50087 0.96068 0.20644 0.0
N385 N 0.49951 0.97504 0.15029 0.0
C386 C 0.53233 0.9178 0.259 0.0
H387 H 0.51228 0.91651 0.29318 0.0
H388 H 0.53783 0.89393 0.24023 0.0
H389 H 0.55335 0.9266 0.28509 0.0
C390 C 0.40012 0.90287 0.29565 0.0
N391 N 0.42004 0.92629 0.31252 0.0
N392 N 0.44353 0.92722 0.27127 0.0
C393 C 0.43961 0.90363 0.22805 0.0
C394 C 0.4123 0.88714 0.24316 0.0
C395 C 0.36679 0.89978 0.31875 0.0
H396 H 0.3575 0.92279 0.33513 0.0
H397 H 0.366 0.88236 0.3582 0.0
H398 H 0.35115 0.89092 0.28007 0.0
O399 O 0.40276 0.99742 0.32419 0.0
O400 O 0.4416 1.00187 0.25244 0.0
H401 H 0.46183 0.92104 0.14278 0.0
H402 H 0.44984 0.88025 0.1379 0.0
C403 C 0.45968 0.89865 0.16987 0.0
H404 H 0.48347 0.89092 0.18492 0.0
H405 H 0.48241 0.99168 0.13787 0.0
O406 O 0.37991 0.94838 0.43089 0.0
C407 C 0.41611 1.01195 0.27811 0.0
Co408 Co 0.20892 0.36625 0.39492 0.0
Co409 Co 0.21608 0.31218 0.49663 0.0
C410 C 0.22919 0.30143 0.35604 0.0
O411 O 0.22145 0.32955 0.34151 0.0
O412 O 0.22674 0.29157 0.41355 0.0
C413 C 0.17325 0.40079 0.30327 0.0
O414 O 0.15658 0.37469 0.30111 0.0
C415 C 0.19229 0.25502 0.55855 0.0
C416 C 0.21437 0.25719 0.65427 0.0
C417 C 0.1927 0.2403 0.61816 0.0
N418 N 0.21242 0.27957 0.55992 0.0
N419 N 0.22605 0.28032 0.61684 0.0
C420 C 0.17032 0.24868 0.5039 0.0
H421 H 0.1667 0.2704 0.47508 0.0
H422 H 0.14731 0.23969 0.52158 0.0
H423 H 0.18099 0.23059 0.47218 0.0
C424 C 0.15154 0.37889 0.47172 0.0
N425 N 0.17569 0.35984 0.45477 0.0
N426 N 0.17812 0.33692 0.49714 0.0
C427 C 0.15499 0.34044 0.54152 0.0
C428 C 0.13726 0.36691 0.52615 0.0
C429 C 0.14604 0.41131 0.44537 0.0
H430 H 0.13012 0.40961 0.40345 0.0
H431 H 0.1345 0.42688 0.48113 0.0
H432 H 0.16863 0.42238 0.43121 0.0
O433 O 0.24643 0.37857 0.44286 0.0
O434 O 0.25303 0.34032 0.5153 0.0
H435 H 0.17429 0.32011 0.627 0.0
H436 H 0.13291 0.33007 0.63299 0.0
C437 C 0.15157 0.32081 0.60081 0.0
H438 H 0.14498 0.29648 0.58718 0.0
H439 H 0.24202 0.29765 0.6313 0.0
O440 O 0.19786 0.40154 0.33783 0.0
C441 C 0.26174 0.36613 0.48885 0.0
Co442 Co 0.91292 0.95773 0.13823 0.0
Co443 Co 0.96802 0.96276 0.23819 0.0
C444 C 0.97817 0.97663 0.09769 0.0
O445 O 0.94972 0.96982 0.08399 0.0
O446 O 0.98841 0.9732 0.1547 0.0
C447 C 0.87988 0.91995 0.05043 0.0
O448 O 0.90656 0.9042 0.05202 0.0
C449 C 0.02496 0.93762 0.29974 0.0
C450 C 0.02527 0.96219 0.39301 0.0
C451 C 0.04079 0.93915 0.35796 0.0
N452 N 1.00075 0.95818 0.30108 0.0
N453 N 1.00132 0.97308 0.3567 0.0
C454 C 0.03298 0.91767 0.24281 0.0
H455 H 1.01408 0.90002 0.23485 0.0
H456 H 0.05592 0.90546 0.24915 0.0
H457 H 0.03401 0.93274 0.19934 0.0
C458 C 0.89888 0.90099 0.21607 0.0
N459 N 0.91862 0.92447 0.19847 0.0
N460 N 0.9422 0.92566 0.2394 0.0
C461 C 0.93847 0.90227 0.28322 0.0
C462 C 0.91131 0.88549 0.26859 0.0
C463 C 0.86543 0.89768 0.19391 0.0
H464 H 0.85596 0.92057 0.17721 0.0
H465 H 0.86444 0.87999 0.15505 0.0
H466 H 0.85006 0.889 0.23328 0.0
O467 O 0.90157 0.99571 0.18606 0.0
O468 O 0.94094 1.00052 0.25674 0.0
H469 H 0.9486 0.87988 0.37452 0.0
H470 H 0.98222 0.89032 0.32712 0.0
C471 C 0.9584 0.89801 0.34175 0.0
H472 H 0.96044 0.92071 0.3677 0.0
H473 H 0.98483 0.99003 0.37062 0.0
O474 O 0.87801 0.94588 0.08069 0.0
C475 C 0.91535 1.01051 0.2312 0.0
Co476 Co 0.3202 0.66548 0.89298 0.0
Co477 Co 0.31424 0.72155 0.99018 0.0
C478 C 0.30131 0.73084 0.85017 0.0
O479 O 0.30795 0.70207 0.83944 0.0
O480 O 0.30451 0.74243 0.90622 0.0
C481 C 0.35824 0.63307 0.80435 0.0
O482 O 0.37376 0.65987 0.80591 0.0
C483 C 0.33739 0.77779 0.05773 0.0
C484 C 0.31339 0.77353 0.15126 0.0
C485 C 0.33615 0.79086 0.11886 0.0
N486 N 0.31708 0.75339 0.05516 0.0
N487 N 0.30229 0.75147 0.11077 0.0
C488 C 0.35983 0.7859 1.00479 0.0
H489 H 0.36179 0.76606 0.97032 0.0
H490 H 0.38343 0.7918 0.02443 0.0
H491 H 0.3508 0.80687 0.97876 0.0
C492 C 0.37672 0.65254 0.97072 0.0
N493 N 0.35312 0.67201 0.95287 0.0
N494 N 0.35193 0.69608 0.99259 0.0
C495 C 0.37567 0.69297 0.03587 0.0
C496 C 0.39246 0.66559 0.02227 0.0
C497 C 0.37988 0.61891 0.94954 0.0
H498 H 0.35687 0.60939 0.93367 0.0
H499 H 0.39725 0.61757 0.91004 0.0
H500 H 0.38876 0.6038 0.98912 0.0
O501 O 0.28242 0.65347 0.94 0.0
O502 O 0.27656 0.6939 0.00746 0.0
H503 H 0.35841 0.71627 0.11997 0.0
H504 H 0.39942 0.70493 0.12473 0.0
C505 C 0.38069 0.71399 0.09255 0.0
H506 H 0.38801 0.73761 0.07571 0.0
H507 H 0.28586 0.73401 0.12227 0.0
O508 O 0.33251 0.63083 0.83528 0.0
C509 C 0.26705 0.66777 0.98361 0.0
Co510 Co 0.61997 0.06931 0.64001 0.0
Co511 Co 0.5623 0.0693 0.73415 0.0
C512 C 0.55307 0.0517 0.59815 0.0
O513 O 0.58237 0.05659 0.58865 0.0
O514 O 0.54059 0.05745 0.65267 0.0
C515 C 0.65294 0.10873 0.55747 0.0
O516 O 0.62676 0.12497 0.56411 0.0
C517 C 0.50373 0.0868 0.80518 0.0
C518 C 0.52308 0.08994 0.90322 0.0
C519 C 0.49624 0.09666 0.8676 0.0
N520 N 0.53382 0.07644 0.80457 0.0
N521 N 0.54487 0.07772 0.86365 0.0
C522 C 0.48265 0.08463 0.74787 0.0
H523 H 0.48905 0.06365 0.71895 0.0
H524 H 0.48606 0.10574 0.71716 0.0
H525 H 0.45756 0.08251 0.7624 0.0
C526 C 0.63584 0.12397 0.71909 0.0
N527 N 0.61478 0.10271 0.69769 0.0
N528 N 0.58798 0.10646 0.72788 0.0
C529 C 0.59015 0.13253 0.76508 0.0
C530 C 0.62097 0.14431 0.76166 0.0
C531 C 0.67074 0.12066 0.70955 0.0
H532 H 0.67681 0.09637 0.69421 0.0
H533 H 0.67886 0.1375 0.6725 0.0
H534 H 0.68351 0.12613 0.75467 0.0
O535 O 0.63127 0.03309 0.68955 0.0
O536 O 0.58978 0.03121 0.75558 0.0
H537 H 0.55997 0.13815 0.84668 0.0
H538 H 0.5657 0.17351 0.80055 0.0
C539 C 0.56248 0.14757 0.79748 0.0
H540 H 0.54051 0.14227 0.77066 0.0
H541 H 0.56798 0.07194 0.87629 0.0
O542 O 0.65464 0.08138 0.58218 0.0
C543 C 0.61587 0.01994 0.73449 0.0
C544 C 0.46242 0.11012 0.96167 0.0
C545 C 0.46797 0.11302 0.89525 0.0
C546 C 0.43801 0.12648 0.99222 0.0
C547 C 0.41712 0.14588 0.95781 0.0
H548 H 0.47736 0.09525 0.99105 0.0
H549 H 0.43567 0.12395 0.04367 0.0
S550 S 0.42141 0.16332 0.78363 0.0
N551 N 0.4519 0.14008 0.79729 0.0
N552 N 0.40306 0.16674 0.85306 0.0
C553 C 0.42194 0.14895 0.89131 0.0
C554 C 0.44796 0.13346 0.86044 0.0
C555 C 0.6175 0.69174 0.16905 0.0
C556 C 0.6305 0.66399 0.19469 0.0
C557 C 0.63668 0.71407 0.13767 0.0
C558 C 0.6694 0.70923 0.13091 0.0
H559 H 0.59268 0.69683 0.17572 0.0
H560 H 0.62606 0.73591 0.1216 0.0
S561 S 0.71411 0.63875 0.18344 0.0
N562 N 0.67744 0.63152 0.20576 0.0
N563 N 0.71344 0.67378 0.14871 0.0
C564 C 0.68232 0.68101 0.15414 0.0
C565 C 0.66285 0.65824 0.18531 0.0
C566 C 0.11629 0.91565 0.44226 0.0
C567 C 0.114 0.88257 0.44636 0.0
C568 C 0.09294 0.93362 0.41174 0.0
C569 C 0.06681 0.91918 0.38266 0.0
H570 H 0.13599 0.92785 0.46405 0.0
H571 H 0.09514 0.95908 0.41163 0.0
S572 S 0.0501 0.83329 0.37865 0.0
N573 N 0.08378 0.83606 0.41804 0.0
N574 N 0.04015 0.86974 0.35925 0.0
C575 C 0.06478 0.88604 0.38433 0.0
C576 C 0.0884 0.86775 0.41629 0.0
C577 C 0.8969 0.33201 0.72932 0.0
C578 C 0.90221 0.36128 0.69966 0.0
C579 C 0.87825 0.30886 0.69997 0.0
C580 C 0.86415 0.31411 0.6398 0.0
H581 H 0.90645 0.32736 0.77659 0.0
H582 H 0.87445 0.28681 0.72513 0.0
S583 S 0.86942 0.38762 0.54387 0.0
N584 N 0.89121 0.39479 0.60789 0.0
N585 N 0.85611 0.35124 0.55244 0.0
C586 C 0.86959 0.34318 0.6092 0.0
C587 C 0.88862 0.36681 0.63925 0.0
C588 C 0.61246 0.89055 0.12131 0.0
C589 C 0.60868 0.87913 0.05848 0.0
C590 C 0.58928 0.90975 0.14985 0.0
C591 C 0.56179 0.91837 0.11615 0.0
H592 H 0.63406 0.88585 0.14735 0.0
H593 H 0.59359 0.91897 0.19743 0.0
S594 S 0.5403 0.89291 0.95156 0.0
N595 N 0.57504 0.87654 0.96464 0.0
N596 N 0.53162 0.91249 0.01767 0.0
C597 C 0.55753 0.90629 0.05393 0.0
C598 C 0.58093 0.8867 0.0253 0.0
C599 C 0.36554 0.34269 0.90154 0.0
C600 C 0.36117 0.31346 0.8707 0.0
C601 C 0.38405 0.36658 0.87348 0.0
C602 C 0.39889 0.3619 0.81391 0.0
H603 H 0.35362 0.34765 0.94633 0.0
H604 H 0.3857 0.38924 0.8972 0.0
S605 S 0.39665 0.28937 0.71535 0.0
N606 N 0.3747 0.28095 0.77853 0.0
N607 N 0.40905 0.32588 0.72617 0.0
C608 C 0.39539 0.33266 0.78353 0.0
C609 C 0.37664 0.30844 0.81178 0.0
C610 C 0.94156 0.11647 0.6441 0.0
C611 C 0.96898 0.10711 0.61091 0.0
C612 C 0.91867 0.13572 0.61467 0.0
C613 C 0.92255 0.14636 0.55123 0.0
H614 H 0.93716 0.10797 0.69224 0.0
H615 H 0.89728 0.14126 0.64075 0.0
S616 S 0.99069 0.13038 0.44487 0.0
N617 N 0.99911 0.11141 0.51191 0.0
N618 N 0.95615 0.14731 0.45715 0.0
C619 C 0.9501 0.13785 0.51825 0.0
C620 C 0.97327 0.11829 0.54789 0.0
C621 C 0.14079 0.6973 0.27644 0.0
C622 C 0.13197 0.6696 0.30888 0.0
C623 C 0.16008 0.71991 0.30574 0.0
C624 C 0.17122 0.71573 0.36869 0.0
H625 H 0.13342 0.70107 0.22727 0.0
H626 H 0.16664 0.74071 0.27857 0.0
S627 S 0.15661 0.64627 0.47272 0.0
N628 N 0.13692 0.6385 0.40624 0.0
N629 N 0.17291 0.68126 0.46179 0.0
C630 C 0.16235 0.68827 0.40197 0.0
C631 C 0.14279 0.66511 0.37191 0.0
C632 C 0.91669 0.63542 0.39742 0.0
C633 C 0.92115 0.64806 0.45912 0.0
C634 C 0.93991 0.61635 0.36866 0.0
C635 C 0.96817 0.60906 0.40096 0.0
H636 H 0.89464 0.63926 0.37237 0.0
H637 H 0.93515 0.60631 0.32194 0.0
S638 S 0.99158 0.63794 0.56213 0.0
N639 N 0.9562 0.65314 0.55033 0.0
N640 N 0.99969 0.6174 0.49693 0.0
C641 C 0.97303 0.62223 0.4621 0.0
C642 C 0.94957 0.6417 0.49097 0.0
C643 C 0.13708 0.19837 0.73233 0.0
C644 C 0.13114 0.1695 0.70166 0.0
C645 C 0.15649 0.22125 0.70411 0.0
C646 C 0.17077 0.21615 0.64408 0.0
H647 H 0.12736 0.2029 0.77952 0.0
H648 H 0.16068 0.243 0.72998 0.0
S649 S 0.16425 0.14357 0.54588 0.0
N650 N 0.14194 0.13641 0.60925 0.0
N651 N 0.17837 0.17956 0.55577 0.0
C652 C 0.16478 0.18747 0.61251 0.0
C653 C 0.145 0.16407 0.64145 0.0
C654 C 0.58679 0.41009 0.87524 0.0
C655 C 0.5607 0.42232 0.90897 0.0
C656 C 0.60928 0.39089 0.90598 0.0
C657 C 0.60646 0.38341 0.97146 0.0
H658 H 0.59061 0.41636 0.82553 0.0
H659 H 0.62972 0.38307 0.87915 0.0
S660 S 0.54144 0.40693 0.07994 0.0
N661 N 0.53249 0.42351 0.01063 0.0
N662 N 0.57491 0.38793 0.06798 0.0
C663 C 0.58009 0.39457 1.00505 0.0
C664 C 0.55722 0.41394 0.97397 0.0
C665 C 0.38563 0.86503 0.14511 0.0
C666 C 0.39647 0.86106 0.20836 0.0
C667 C 0.36663 0.842 0.1156 0.0
C668 C 0.35768 0.81439 0.1486 0.0
H669 H 0.39084 0.88657 0.11923 0.0
H670 H 0.35797 0.84643 0.06761 0.0
S671 S 0.38154 0.7924 0.31407 0.0
N672 N 0.39805 0.82716 0.30201 0.0
N673 N 0.36252 0.78398 0.24716 0.0
C674 C 0.36904 0.81002 0.21142 0.0
C675 C 0.38838 0.83331 0.24111 0.0
C676 C 0.08304 0.38892 0.53413 0.0
C677 C 0.11222 0.38294 0.56357 0.0
C678 C 0.06053 0.40841 0.56328 0.0
C679 C 0.06635 0.42266 0.62302 0.0
H680 H 0.07798 0.37916 0.48723 0.0
H681 H 0.03849 0.41265 0.53843 0.0
S682 S 0.13985 0.41584 0.71823 0.0
N683 N 0.14629 0.39356 0.65459 0.0
N684 N 0.10382 0.43009 0.70982 0.0
C685 C 0.09531 0.41659 0.65339 0.0
C686 C 0.11832 0.39676 0.62351 0.0
C687 C 0.88489 0.86234 0.36614 0.0
C688 C 0.89607 0.85889 0.30301 0.0
C689 C 0.8663 0.83874 0.39503 0.0
C690 C 0.85809 0.81109 0.36148 0.0
H691 H 0.88949 0.88389 0.39237 0.0
H692 H 0.85733 0.84277 0.44293 0.0
S693 S 0.88313 0.7904 0.19611 0.0
N694 N 0.8988 0.82546 0.20891 0.0
N695 N 0.86402 0.78125 0.2626 0.0
C696 C 0.86981 0.80726 0.2988 0.0
C697 C 0.88876 0.83111 0.26976 0.0
C698 C 0.43742 0.62168 0.15274 0.0
C699 C 0.4641 0.61068 0.11931 0.0
C700 C 0.41487 0.64096 0.12237 0.0
C701 C 0.4186 0.65023 0.05798 0.0
H702 H 0.43318 0.61416 0.20162 0.0
H703 H 0.39375 0.64743 0.14848 0.0
S704 S 0.48572 0.63029 0.95157 0.0
N705 N 0.49382 0.61211 0.01968 0.0
N706 N 0.45189 0.64869 0.96332 0.0
C707 C 0.44582 0.64048 0.02515 0.0
C708 C 0.46846 0.62063 0.05561 0.0
C709 C 0.65828 0.19004 0.76385 0.0
C710 C 0.63628 0.17108 0.79649 0.0
C711 C 0.67522 0.21378 0.79529 0.0
C712 C 0.67034 0.22061 0.86068 0.0
H713 H 0.66255 0.18661 0.71317 0.0
H714 H 0.69221 0.22711 0.76749 0.0
S715 S 0.6122 0.1804 0.96657 0.0
N716 N 0.6102 0.16095 0.89823 0.0
N717 N 0.63822 0.20873 0.95465 0.0
C718 C 0.64703 0.20297 0.89322 0.0
C719 C 0.63087 0.17759 0.86175 0.0
C720 C 0.27432 0.27861 0.20462 0.0
C721 C 0.28515 0.24786 0.21772 0.0
C722 C 0.25529 0.29513 0.24837 0.0
C723 C 0.24616 0.28176 0.30752 0.0
H724 H 0.28017 0.29003 0.15966 0.0
H725 H 0.24807 0.31885 0.2358 0.0
S726 S 0.26792 0.20176 0.36568 0.0
N727 N 0.28514 0.20465 0.29493 0.0
N728 N 0.24942 0.23557 0.37658 0.0
C729 C 0.25677 0.25098 0.32134 0.0
C730 C 0.27626 0.23416 0.27683 0.0
C731 C 0.48727 0.50253 0.49745 0.0
C732 C 0.50005 0.49566 0.55837 0.0
C733 C 0.5034 0.5215 0.45289 0.0
C734 C 0.53313 0.53464 0.46694 0.0
H735 H 0.46429 0.49356 0.48406 0.0
H736 H 0.49244 0.52563 0.40672 0.0
S737 S 0.57752 0.52367 0.61931 0.0
N738 N 0.54472 0.5034 0.6299 0.0
N739 N 0.57487 0.53899 0.54674 0.0
C740 C 0.5463 0.5279 0.52767 0.0
C741 C 0.5299 0.50842 0.57298 0.0
C742 C 0.25329 0.79585 0.76914 0.0
C743 C 0.24584 0.78305 0.70857 0.0
C744 C 0.27221 0.77944 0.81338 0.0
C745 C 0.28466 0.74941 0.79929 0.0
H746 H 0.24478 0.81902 0.78249 0.0
H747 H 0.27672 0.79034 0.85943 0.0
S748 S 0.27228 0.70505 0.64741 0.0
N749 N 0.25247 0.73815 0.63718 0.0
N750 N 0.28803 0.70756 0.71955 0.0
C751 C 0.27747 0.73633 0.73875 0.0
C752 C 0.25806 0.75298 0.69383 0.0
C753 C 0.02757 0.50744 0.95112 0.0
C754 C 0.99735 0.49533 0.9647 0.0
C755 C 0.04373 0.52659 0.99518 0.0
C756 C 0.03049 0.53465 0.05507 0.0
H757 H 0.03885 0.50242 0.90564 0.0
H758 H 0.06706 0.5348 0.9822 0.0
S759 S 0.95173 0.50949 0.11456 0.0
N760 N 0.95472 0.49309 0.04309 0.0
N761 N 0.98494 0.52905 0.12524 0.0
C762 C 1.00021 0.52282 0.0693 0.0
C763 C 0.98378 0.50316 0.02453 0.0
C764 C 0.77695 0.73746 0.76889 0.0
C765 C 0.78399 0.75004 0.70785 0.0
C766 C 0.75742 0.75346 0.81251 0.0
C767 C 0.74397 0.78293 0.79751 0.0
H768 H 0.78623 0.71472 0.78318 0.0
H769 H 0.75327 0.74268 0.85888 0.0
S770 S 0.75497 0.82662 0.64418 0.0
N771 N 0.77586 0.79411 0.63488 0.0
N772 N 0.73929 0.82414 0.71648 0.0
C773 C 0.75077 0.79586 0.73654 0.0
C774 C 0.77073 0.77953 0.69205 0.0
C775 C 0.75901 0.25358 0.19807 0.0
C776 C 0.74763 0.28399 0.21238 0.0
C777 C 0.77832 0.2369 0.24127 0.0
C778 C 0.7873 0.24982 0.30093 0.0
H779 H 0.7532 0.24252 0.15279 0.0
H780 H 0.78587 0.21341 0.22791 0.0
S781 S 0.76446 0.32896 0.36187 0.0
N782 N 0.74719 0.32645 0.29119 0.0
N783 N 0.78349 0.29536 0.37141 0.0
C784 C 0.77633 0.28034 0.31569 0.0
C785 C 0.7565 0.29727 0.27191 0.0
C786 C 0.98503 1.00223 0.98918 0.0
C787 C 0.99784 0.99393 0.04937 0.0
C788 C 1.00142 0.02178 0.94592 0.0
C789 C 0.03135 0.03421 0.96083 0.0
H790 H 0.96184 0.99393 0.97544 0.0
H791 H 0.9905 0.02705 0.90019 0.0
S792 S 0.07607 0.01912 0.11148 0.0
N793 N 0.04292 0.99929 0.12074 0.0
N794 N 0.07342 0.03605 0.04043 0.0
C795 C 0.04454 0.02598 0.02083 0.0
C796 C 0.02797 1.00584 0.0646 0.0
C797 C 0.487 1.00479 0.51823 0.0
C798 C 0.5002 0.99534 0.45914 0.0
C799 C 0.50373 0.02387 0.56157 0.0
C800 C 0.53453 0.03447 0.54807 0.0
H801 H 0.46325 0.99782 0.53104 0.0
H802 H 0.49242 0.03004 0.60643 0.0
S803 S 0.58028 0.01625 0.40022 0.0
N804 N 0.54634 0.99795 0.38988 0.0
N805 N 0.57762 0.03376 0.47064 0.0
C806 C 0.54809 0.02515 0.48912 0.0
C807 C 0.53106 1.0056 0.44507 0.0
C808 C 0.20142 0.10981 0.99743 0.0
C809 C 0.17544 0.12928 0.98382 0.0
C810 C 0.23095 0.12261 0.01144 0.0
C811 C 0.23588 0.1554 0.01134 0.0
H812 H 0.19902 0.08437 0.99682 0.0
H813 H 0.25018 0.10662 0.02224 0.0
S814 S 0.17573 0.2169 0.97975 0.0
N815 N 0.15644 0.18326 0.97246 0.0
N816 N 0.21242 0.20724 0.9976 0.0
C817 C 0.21023 0.17526 0.9979 0.0
C818 C 0.17986 0.16223 0.98482 0.0
C819 C 0.65841 0.48614 0.2567 0.0
C820 C 0.62539 0.48852 0.2593 0.0
C821 C 0.67317 0.45713 0.24548 0.0
C822 C 0.65547 0.42929 0.23804 0.0
H823 H 0.67296 0.50695 0.26256 0.0
H824 H 0.69865 0.45662 0.24179 0.0
S825 S 0.56817 0.42278 0.24683 0.0
N826 N 0.57536 0.4607 0.25701 0.0
N827 N 0.60296 0.40588 0.23763 0.0
C828 C 0.62237 0.43124 0.2431 0.0
C829 C 0.60736 0.46096 0.25299 0.0
C830 C 0.29622 0.91146 0.50696 0.0
C831 C 0.293 0.87848 0.50733 0.0
C832 C 0.32545 0.92565 0.49492 0.0
C833 C 0.3527 0.90738 0.48467 0.0
H834 H 0.27587 0.92641 0.51498 0.0
H835 H 0.32662 0.95116 0.49286 0.0
S836 S 0.35699 0.81984 0.48601 0.0
N837 N 0.31944 0.82782 0.49922 0.0
N838 N 0.3747 0.85434 0.47891 0.0
C839 C 0.34996 0.87428 0.4876 0.0
C840 C 0.32 0.85987 0.49803 0.0
C841 C 0.90683 0.59847 0.74122 0.0
C842 C 0.87382 0.60219 0.73908 0.0
C843 C 0.92052 0.56879 0.75126 0.0
C844 C 0.90168 0.54199 0.76124 0.0
H845 H 0.92228 0.61839 0.73278 0.0
H846 H 0.946 0.56694 0.7525 0.0
S847 S 0.81424 0.53923 0.76373 0.0
N848 N 0.82274 0.57658 0.74947 0.0
N849 N 0.8485 0.52101 0.77028 0.0
C850 C 0.86872 0.54548 0.76094 0.0
C851 C 0.85478 0.57554 0.74957 0.0
C852 C 0.79407 0.90903 0.00608 0.0
C853 C 0.79065 0.87606 1.00458 0.0
C854 C 0.82329 0.92299 0.0188 0.0
C855 C 0.85039 0.90453 0.02897 0.0
H856 H 0.77391 0.9242 0.99777 0.0
H857 H 0.82458 0.94848 0.02109 0.0
S858 S 0.8541 0.81695 0.02674 0.0
N859 N 0.81668 0.8252 0.01272 0.0
N860 N 0.87199 0.85131 0.0348 0.0
C861 C 0.84742 0.87144 0.02587 0.0
C862 C 0.81743 0.85724 0.01449 0.0
C863 C 0.36923 0.54779 0.75608 0.0
C864 C 0.40219 0.54433 0.75555 0.0
C865 C 0.35522 0.57691 0.7697 0.0
C866 C 0.37367 0.60384 0.78163 0.0
H867 H 0.35412 0.5277 0.7468 0.0
H868 H 0.32972 0.57825 0.77151 0.0
S869 S 0.46123 0.60751 0.78114 0.0
N870 N 0.45302 0.57024 0.76558 0.0
N871 N 0.42685 0.62535 0.78927 0.0
C872 C 0.40675 0.6009 0.77897 0.0
C873 C 0.42098 0.57101 0.76671 0.0
C874 C 0.73628 0.11952 0.49678 0.0
C875 C 0.74142 0.1521 0.50427 0.0
C876 C 0.7073 0.10581 0.51263 0.0
C877 C 0.68212 0.12426 0.53514 0.0
H878 H 0.75492 0.10439 0.47897 0.0
H879 H 0.70464 0.08054 0.50732 0.0
S880 S 0.68331 0.21079 0.56288 0.0
N881 N 0.71899 0.20251 0.53595 0.0
N882 N 0.66415 0.17691 0.56432 0.0
C883 C 0.68675 0.15699 0.54203 0.0
C884 C 0.71654 0.17084 0.52723 0.0
C885 C 0.11242 0.46314 0.26262 0.0
C886 C 0.13088 0.49034 0.25459 0.0
C887 C 0.12649 0.43385 0.27488 0.0
C888 C 0.15945 0.43093 0.28113 0.0
H889 H 0.087 0.46438 0.25801 0.0
H890 H 0.11131 0.41355 0.28141 0.0
S891 S 0.21802 0.49547 0.26438 0.0
N892 N 0.18359 0.51274 0.25269 0.0
N893 N 0.21008 0.45791 0.27783 0.0
C894 C 0.1781 0.45808 0.27317 0.0
C895 C 0.1638 0.48774 0.25948 0.0
C896 C 0.68929 0.62811 0.54225 0.0
C897 C 0.68611 0.61234 0.48328 0.0
C898 C 0.71678 0.64485 0.55709 0.0
C899 C 0.74168 0.64706 0.5129 0.0
H900 H 0.67037 0.62775 0.57716 0.0
H901 H 0.71847 0.65646 0.60325 0.0
S902 S 0.74682 0.60853 0.3543 0.0
N903 N 0.7119 0.59818 0.38239 0.0
N904 N 0.76266 0.6313 0.40979 0.0
C905 C 0.73924 0.6313 0.45432 0.0
C906 C 0.71168 0.61344 0.4397 0.0
C907 C 0.14664 0.98721 0.70699 0.0
C908 C 0.13287 0.99107 0.76746 0.0
C909 C 0.16415 0.96009 0.69278 0.0
C910 C 0.16756 0.9354 0.73785 0.0
H911 H 0.14447 1.00554 0.67101 0.0
H912 H 0.17468 0.95839 0.64562 0.0
S913 S 0.13611 0.93514 0.90401 0.0
N914 N 0.1244 0.96918 0.87371 0.0
N915 N 0.15609 0.91744 0.84633 0.0
C916 C 0.1539 0.93928 0.79879 0.0
C917 C 0.13678 0.96728 0.81368 0.0
C918 C 0.81478 0.36287 0.9964 0.0
C919 C 0.78858 0.38238 0.00745 0.0
C920 C 0.84455 0.37581 0.98376 0.0
C921 C 0.8489 0.40869 0.98026 0.0
H922 H 0.81247 0.33745 0.99929 0.0
H923 H 0.86407 0.35989 0.9751 0.0
S924 S 0.78749 0.46982 1.00508 0.0
N925 N 0.76872 0.43603 0.01464 0.0
N926 N 0.82445 0.46041 0.98905 0.0
C927 C 0.82277 0.4284 0.9909 0.0
C928 C 0.79265 0.41523 1.00484 0.0
C929 C 0.36964 0.04721 0.26478 0.0
C930 C 0.40223 0.04216 0.25722 0.0
C931 C 0.35586 0.07613 0.24879 0.0
C932 C 0.37424 0.10132 0.22602 0.0
H933 H 0.35454 0.02855 0.28265 0.0
H934 H 0.33057 0.07872 0.25409 0.0
S935 S 0.4608 0.10037 0.19837 0.0
N936 N 0.45261 0.0647 0.2255 0.0
N937 N 0.42685 0.11943 0.19678 0.0
C938 C 0.40699 0.09679 0.2192 0.0
C939 C 0.42092 0.06707 0.23419 0.0
C940 C 0.31861 0.36271 0.51799 0.0
C941 C 0.29161 0.38119 0.50763 0.0
C942 C 0.34797 0.3768 0.52944 0.0
C943 C 0.35112 0.40983 0.53275 0.0
H944 H 0.31717 0.33722 0.51589 0.0
H945 H 0.36809 0.36161 0.53789 0.0
S946 S 0.28739 0.46855 0.508 0.0
N947 N 0.26981 0.43406 0.49954 0.0
N948 N 0.32475 0.46057 0.52339 0.0
C949 C 0.32424 0.42852 0.52213 0.0
C950 C 0.29454 0.41419 0.50913 0.0
C951 C 0.85607 0.07503 0.26472 0.0
C952 C 0.87521 0.10152 0.27625 0.0
C953 C 0.86932 0.04556 0.25104 0.0
C954 C 0.90218 0.04128 0.25009 0.0
H955 H 0.83062 0.07699 0.26676 0.0
H956 H 0.85368 0.02586 0.24185 0.0
S957 S 0.96285 0.10296 0.27521 0.0
N958 N 0.92893 0.12167 0.28341 0.0
N959 N 0.95367 0.06589 0.2598 0.0
C960 C 0.92166 0.06747 0.26112 0.0
C961 C 0.90821 0.09773 0.27337 0.0
C962 C 0.2029 0.60794 0.01626 0.0
C963 C 0.17654 0.62679 0.03056 0.0
C964 C 0.23217 0.62145 1.002 0.0
C965 C 0.23641 0.65434 1.00297 0.0
H966 H 0.201 0.58245 0.0166 0.0
H967 H 0.25175 0.60598 0.99081 0.0
S968 S 0.17498 0.71437 0.0362 0.0
N969 N 0.15643 0.6803 0.0429 0.0
N970 N 0.21183 0.70557 0.01789 0.0
C971 C 0.21032 0.67356 0.01686 0.0
C972 C 0.18026 0.65983 0.02989 0.0
C973 C 0.66098 0.98521 0.76116 0.0
C974 C 0.62816 0.98966 0.75819 0.0
C975 C 0.67388 0.95573 0.77549 0.0
C976 C 0.65448 0.92937 0.78618 0.0
H977 H 0.67689 1.00471 0.752 0.0
H978 H 0.69931 0.95361 0.77815 0.0
S979 S 0.56685 0.92857 0.78275 0.0
N980 N 0.5764 0.96552 0.76681 0.0
N981 N 0.60055 0.90964 0.79251 0.0
C982 C 0.62151 0.93341 0.78272 0.0
C983 C 0.60837 0.96372 0.76939 0.0
loop_
_geom_bond_atom_site_label_1
_geom_bond_atom_site_label_2
_geom_bond_distance
_geom_bond_site_symmetry_2
_ccdc_geom_bond_type
Co0 O3 1.970 . S
Co0 N17 1.989 . S
Co0 O25 1.967 . S
Co0 O32 1.920 . S
Co1 O4 1.966 . S
Co1 N10 2.022 1_554 S
Co1 N18 1.993 . S
Co1 O26 1.941 1_554 S
C2 O3 1.258 . S
C2 O4 1.263 . S
O3 Co0 1.970 . S
O3 C2 1.258 . S
O4 Co1 1.966 . S
O4 C2 1.263 . S
C5 O6 1.235 . S
C5 O32 1.289 . S
O6 C5 1.235 . S
C7 C9 1.400 . S
C7 N10 1.351 . S
C7 C12 1.501 1_556 S
C8 C9 1.387 . S
C8 N11 1.341 . S
C9 C7 1.400 . S
C9 C8 1.387 . S
N10 Co1 2.022 1_556 S
N10 C7 1.351 . S
N10 N11 1.365 . S
N11 C8 1.341 . S
N11 N10 1.365 . S
N11 H31 0.862 . S
C12 C7 1.501 1_554 S
C12 H13 0.961 . S
C12 H14 0.961 . S
C12 H15 0.960 . S
H13 C12 0.961 . S
H14 C12 0.961 . S
H15 C12 0.960 . S
C16 N17 1.342 . S
C16 C20 1.401 1_554 S
C16 C21 1.499 . S
N17 Co0 1.989 . S
N17 C16 1.342 . S
N17 N18 1.388 . S
N18 Co1 1.993 . S
N18 N17 1.388 . S
N18 C19 1.346 1_554 S
C19 N18 1.346 1_556 S
C19 C20 1.396 . S
C19 C29 1.510 . S
C20 C16 1.401 1_556 S
C20 C19 1.396 . S
C21 C16 1.499 . S
C21 H22 0.959 . S
C21 H23 0.960 . S
C21 H24 0.961 . S
H22 C21 0.959 . S
H23 C21 0.960 . S
H24 C21 0.961 . S
O25 Co0 1.967 . S
O25 C33 1.258 . S
O26 Co1 1.941 1_556 S
O26 C33 1.266 1_556 S
H27 C29 0.959 . S
H28 C29 0.961 . S
C29 C19 1.510 . S
C29 H27 0.959 . S
C29 H28 0.961 . S
C29 H30 0.960 . S
H30 C29 0.960 . S
H31 N11 0.862 . S
O32 Co0 1.920 . S
O32 C5 1.289 . S
C33 O25 1.258 . S
C33 O26 1.266 1_554 S
Co34 O37 1.970 . S
Co34 N51 1.989 . S
Co34 O59 1.967 . S
Co34 O66 1.920 . S
Co35 O38 1.966 . S
Co35 N44 2.022 . S
Co35 N52 1.993 . S
Co35 O60 1.941 . S
C36 O37 1.258 . S
C36 O38 1.263 . S
O37 Co34 1.970 . S
O37 C36 1.258 . S
O38 Co35 1.966 . S
O38 C36 1.263 . S
C39 O40 1.235 . S
C39 O66 1.289 . S
O40 C39 1.235 . S
C41 C43 1.400 . S
C41 N44 1.351 . S
C41 C46 1.501 . S
C42 C43 1.387 . S
C42 N45 1.341 . S
C43 C41 1.400 . S
C43 C42 1.387 . S
N44 Co35 2.022 . S
N44 C41 1.351 . S
N44 N45 1.365 . S
N45 C42 1.341 . S
N45 N44 1.365 . S
N45 H65 0.862 . S
C46 C41 1.501 . S
C46 H47 0.961 . S
C46 H48 0.961 . S
C46 H49 0.960 . S
H47 C46 0.961 . S
H48 C46 0.961 . S
H49 C46 0.960 . S
C50 N51 1.342 . S
C50 C54 1.401 . S
C50 C55 1.499 . S
N51 Co34 1.989 . S
N51 C50 1.342 . S
N51 N52 1.388 . S
N52 Co35 1.993 . S
N52 N51 1.388 . S
N52 C53 1.346 . S
C53 N52 1.346 . S
C53 C54 1.396 . S
C53 C63 1.510 . S
C54 C50 1.401 . S
C54 C53 1.396 . S
C55 C50 1.499 . S
C55 H56 0.959 . S
C55 H57 0.960 . S
C55 H58 0.961 . S
H56 C55 0.959 . S
H57 C55 0.960 . S
H58 C55 0.961 . S
O59 Co34 1.967 . S
O59 C67 1.258 . S
O60 Co35 1.941 . S
O60 C67 1.266 . S
H61 C63 0.959 . S
H62 C63 0.961 . S
C63 C53 1.510 . S
C63 H61 0.959 . S
C63 H62 0.961 . S
C63 H64 0.960 . S
H64 C63 0.960 . S
H65 N45 0.862 . S
O66 Co34 1.920 . S
O66 C39 1.289 . S
C67 O59 1.258 . S
C67 O60 1.266 . S
Co68 O71 1.970 . S
Co68 N85 1.989 . S
Co68 O93 1.967 . S
Co68 O100 1.920 . S
Co69 O72 1.966 . S
Co69 N78 2.022 . S
Co69 N86 1.993 . S
Co69 O94 1.941 . S
C70 O71 1.258 . S
C70 O72 1.263 . S
O71 Co68 1.970 . S
O71 C70 1.258 . S
O72 Co69 1.966 . S
O72 C70 1.263 . S
C73 O74 1.235 . S
C73 O100 1.289 . S
O74 C73 1.235 . S
C75 C77 1.400 . S
C75 N78 1.351 . S
C75 C80 1.501 . S
C76 C77 1.387 . S
C76 N79 1.341 . S
C77 C75 1.400 . S
C77 C76 1.387 . S
N78 Co69 2.022 . S
N78 C75 1.351 . S
N78 N79 1.365 . S
N79 C76 1.341 . S
N79 N78 1.365 . S
N79 H99 0.862 . S
C80 C75 1.501 . S
C80 H81 0.961 . S
C80 H82 0.961 . S
C80 H83 0.960 . S
H81 C80 0.961 . S
H82 C80 0.961 . S
H83 C80 0.960 . S
C84 N85 1.342 . S
C84 C88 1.401 . S
C84 C89 1.499 . S
N85 Co68 1.989 . S
N85 C84 1.342 . S
N85 N86 1.388 . S
N86 Co69 1.993 . S
N86 N85 1.388 . S
N86 C87 1.346 . S
C87 N86 1.346 . S
C87 C88 1.396 . S
C87 C97 1.510 . S
C88 C84 1.401 . S
C88 C87 1.396 . S
C89 C84 1.499 . S
C89 H90 0.959 . S
C89 H91 0.960 . S
C89 H92 0.961 . S
H90 C89 0.959 . S
H91 C89 0.960 . S
H92 C89 0.961 . S
O93 Co68 1.967 . S
O93 C101 1.258 . S
O94 Co69 1.941 . S
O94 C101 1.266 . S
H95 C97 0.959 . S
H96 C97 0.961 . S
C97 C87 1.510 . S
C97 H95 0.959 . S
C97 H96 0.961 . S
C97 H98 0.960 . S
H98 C97 0.960 . S
H99 N79 0.862 . S
O100 Co68 1.920 . S
O100 C73 1.289 . S
C101 O93 1.258 . S
C101 O94 1.266 . S
Co102 O105 1.970 . S
Co102 N119 1.989 . S
Co102 O127 1.967 . S
Co102 O134 1.920 . S
Co103 O106 1.966 . S
Co103 N112 2.022 . S
Co103 N120 1.993 . S
Co103 O128 1.941 . S
C104 O105 1.258 . S
C104 O106 1.263 . S
O105 Co102 1.970 . S
O105 C104 1.258 . S
O106 Co103 1.966 . S
O106 C104 1.263 . S
C107 O108 1.235 . S
C107 O134 1.289 . S
O108 C107 1.235 . S
C109 C111 1.400 . S
C109 N112 1.351 1_455 S
C109 C114 1.501 . S
C110 C111 1.387 . S
C110 N113 1.341 1_455 S
C111 C109 1.400 . S
C111 C110 1.387 . S
N112 Co103 2.022 . S
N112 C109 1.351 1_655 S
N112 N113 1.365 . S
N113 C110 1.341 1_655 S
N113 N112 1.365 . S
N113 H133 0.862 . S
C114 C109 1.501 . S
C114 H115 0.961 . S
C114 H116 0.961 . S
C114 H117 0.960 . S
H115 C114 0.961 . S
H116 C114 0.961 . S
H117 C114 0.960 . S
C118 N119 1.342 . S
C118 C122 1.401 . S
C118 C123 1.499 . S
N119 Co102 1.989 . S
N119 C118 1.342 . S
N119 N120 1.388 . S
N120 Co103 1.993 . S
N120 N119 1.388 . S
N120 C121 1.346 . S
C121 N120 1.346 . S
C121 C122 1.396 . S
C121 C131 1.510 . S
C122 C118 1.401 . S
C122 C121 1.396 . S
C123 C118 1.499 . S
C123 H124 0.959 . S
C123 H125 0.960 . S
C123 H126 0.961 . S
H124 C123 0.959 . S
H125 C123 0.960 . S
H126 C123 0.961 . S
O127 Co102 1.967 . S
O127 C135 1.258 . S
O128 Co103 1.941 . S
O128 C135 1.266 . S
H129 C131 0.959 . S
H130 C131 0.961 . S
C131 C121 1.510 . S
C131 H129 0.959 . S
C131 H130 0.961 . S
C131 H132 0.960 . S
H132 C131 0.960 . S
H133 N113 0.862 . S
O134 Co102 1.920 . S
O134 C107 1.289 . S
C135 O127 1.258 . S
C135 O128 1.266 . S
Co136 O139 1.970 . S
Co136 N153 1.989 . S
Co136 O161 1.967 . S
Co136 O168 1.920 . S
Co137 O140 1.966 . S
Co137 N146 2.022 1_556 S
Co137 N154 1.993 . S
Co137 O162 1.941 1_556 S
C138 O139 1.258 . S
C138 O140 1.263 . S
O139 Co136 1.970 . S
O139 C138 1.258 . S
O140 Co137 1.966 . S
O140 C138 1.263 . S
C141 O142 1.235 . S
C141 O168 1.289 . S
O142 C141 1.235 . S
C143 C145 1.400 . S
C143 N146 1.351 . S
C143 C148 1.501 1_554 S
C144 C145 1.387 . S
C144 N147 1.341 . S
C145 C143 1.400 . S
C145 C144 1.387 . S
N146 Co137 2.022 1_554 S
N146 C143 1.351 . S
N146 N147 1.365 . S
N147 C144 1.341 . S
N147 N146 1.365 . S
N147 H167 0.862 . S
C148 C143 1.501 1_556 S
C148 H149 0.961 . S
C148 H150 0.961 . S
C148 H151 0.960 . S
H149 C148 0.961 . S
H150 C148 0.961 . S
H151 C148 0.960 . S
C152 N153 1.342 . S
C152 C156 1.401 1_556 S
C152 C157 1.499 . S
N153 Co136 1.989 . S
N153 C152 1.342 . S
N153 N154 1.388 . S
N154 Co137 1.993 . S
N154 N153 1.388 . S
N154 C155 1.346 1_556 S
C155 N154 1.346 1_554 S
C155 C156 1.396 . S
C155 C165 1.510 . S
C156 C152 1.401 1_554 S
C156 C155 1.396 . S
C157 C152 1.499 . S
C157 H158 0.959 . S
C157 H159 0.960 . S
C157 H160 0.961 . S
H158 C157 0.959 . S
H159 C157 0.960 . S
H160 C157 0.961 . S
O161 Co136 1.967 . S
O161 C169 1.258 . S
O162 Co137 1.941 1_554 S
O162 C169 1.266 1_554 S
H163 C165 0.959 . S
H164 C165 0.961 . S
C165 C155 1.510 . S
C165 H163 0.959 . S
C165 H164 0.961 . S
C165 H166 0.960 . S
H166 C165 0.960 . S
H167 N147 0.862 . S
O168 Co136 1.920 . S
O168 C141 1.289 . S
C169 O161 1.258 . S
C169 O162 1.266 1_556 S
Co170 O173 1.970 . S
Co170 N187 1.989 . S
Co170 O195 1.967 . S
Co170 O202 1.920 . S
Co171 O174 1.966 . S
Co171 N180 2.022 . S
Co171 N188 1.993 . S
Co171 O196 1.941 . S
C172 O173 1.258 . S
C172 O174 1.263 . S
O173 Co170 1.970 . S
O173 C172 1.258 . S
O174 Co171 1.966 . S
O174 C172 1.263 . S
C175 O176 1.235 . S
C175 O202 1.289 . S
O176 C175 1.235 . S
C177 C179 1.400 . S
C177 N180 1.351 . S
C177 C182 1.501 . S
C178 C179 1.387 . S
C178 N181 1.341 . S
C179 C177 1.400 . S
C179 C178 1.387 . S
N180 Co171 2.022 . S
N180 C177 1.351 . S
N180 N181 1.365 . S
N181 C178 1.341 . S
N181 N180 1.365 . S
N181 H201 0.862 . S
C182 C177 1.501 . S
C182 H183 0.961 . S
C182 H184 0.961 . S
C182 H185 0.960 . S
H183 C182 0.961 . S
H184 C182 0.961 . S
H185 C182 0.960 . S
C186 N187 1.342 . S
C186 C190 1.401 . S
C186 C191 1.499 . S
N187 Co170 1.989 . S
N187 C186 1.342 . S
N187 N188 1.388 . S
N188 Co171 1.993 . S
N188 N187 1.388 . S
N188 C189 1.346 . S
C189 N188 1.346 . S
C189 C190 1.396 . S
C189 C199 1.510 . S
C190 C186 1.401 . S
C190 C189 1.396 . S
C191 C186 1.499 . S
C191 H192 0.959 . S
C191 H193 0.960 . S
C191 H194 0.961 . S
H192 C191 0.959 . S
H193 C191 0.960 . S
H194 C191 0.961 . S
O195 Co170 1.967 . S
O195 C203 1.258 . S
O196 Co171 1.941 . S
O196 C203 1.266 . S
H197 C199 0.959 . S
H198 C199 0.961 . S
C199 C189 1.510 . S
C199 H197 0.959 . S
C199 H198 0.961 . S
C199 H200 0.960 . S
H200 C199 0.960 . S
H201 N181 0.862 . S
O202 Co170 1.920 . S
O202 C175 1.289 . S
C203 O195 1.258 . S
C203 O196 1.266 . S
Co204 O207 1.970 . S
Co204 N221 1.989 . S
Co204 O229 1.967 . S
Co204 O236 1.920 . S
Co205 O208 1.966 . S
Co205 N214 2.022 . S
Co205 N222 1.993 . S
Co205 O230 1.941 . S
C206 O207 1.258 . S
C206 O208 1.263 . S
O207 Co204 1.970 . S
O207 C206 1.258 . S
O208 Co205 1.966 . S
O208 C206 1.263 . S
C209 O210 1.235 . S
C209 O236 1.289 . S
O210 C209 1.235 . S
C211 C213 1.400 . S
C211 N214 1.351 . S
C211 C216 1.501 . S
C212 C213 1.387 . S
C212 N215 1.341 . S
C213 C211 1.400 . S
C213 C212 1.387 . S
N214 Co205 2.022 . S
N214 C211 1.351 . S
N214 N215 1.365 . S
N215 C212 1.341 . S
N215 N214 1.365 . S
N215 H235 0.862 . S
C216 C211 1.501 . S
C216 H217 0.961 . S
C216 H218 0.961 . S
C216 H219 0.960 . S
H217 C216 0.961 . S
H218 C216 0.961 . S
H219 C216 0.960 . S
C220 N221 1.342 . S
C220 C224 1.401 . S
C220 C225 1.499 . S
N221 Co204 1.989 . S
N221 C220 1.342 . S
N221 N222 1.388 . S
N222 Co205 1.993 . S
N222 N221 1.388 . S
N222 C223 1.346 . S
C223 N222 1.346 . S
C223 C224 1.396 . S
C223 C233 1.510 . S
C224 C220 1.401 . S
C224 C223 1.396 . S
C225 C220 1.499 . S
C225 H226 0.959 . S
C225 H227 0.960 . S
C225 H228 0.961 . S
H226 C225 0.959 . S
H227 C225 0.960 . S
H228 C225 0.961 . S
O229 Co204 1.967 . S
O229 C237 1.258 . S
O230 Co205 1.941 . S
O230 C237 1.266 . S
H231 C233 0.959 . S
H232 C233 0.961 . S
C233 C223 1.510 . S
C233 H231 0.959 . S
C233 H232 0.961 . S
C233 H234 0.960 . S
H234 C233 0.960 . S
H235 N215 0.862 . S
O236 Co204 1.920 . S
O236 C209 1.289 . S
C237 O229 1.258 . S
C237 O230 1.266 . S
Co238 O241 1.970 . S
Co238 N255 1.989 . S
Co238 O263 1.967 . S
Co238 O270 1.920 . S
Co239 O242 1.966 . S
Co239 N248 2.022 . S
Co239 N256 1.993 . S
Co239 O264 1.941 . S
C240 O241 1.258 . S
C240 O242 1.263 . S
O241 Co238 1.970 . S
O241 C240 1.258 . S
O242 Co239 1.966 . S
O242 C240 1.263 . S
C243 O244 1.235 . S
C243 O270 1.289 . S
O244 C243 1.235 . S
C245 C247 1.400 . S
C245 N248 1.351 1_655 S
C245 C250 1.501 . S
C246 C247 1.387 . S
C246 N249 1.341 1_655 S
C247 C245 1.400 . S
C247 C246 1.387 . S
N248 Co239 2.022 . S
N248 C245 1.351 1_455 S
N248 N249 1.365 . S
N249 C246 1.341 1_455 S
N249 N248 1.365 . S
N249 H269 0.862 . S
C250 C245 1.501 . S
C250 H251 0.961 . S
C250 H252 0.961 . S
C250 H253 0.960 . S
H251 C250 0.961 . S
H252 C250 0.961 . S
H253 C250 0.960 . S
C254 N255 1.342 . S
C254 C258 1.401 . S
C254 C259 1.499 . S
N255 Co238 1.989 . S
N255 C254 1.342 . S
N255 N256 1.388 . S
N256 Co239 1.993 . S
N256 N255 1.388 . S
N256 C257 1.346 . S
C257 N256 1.346 . S
C257 C258 1.396 . S
C257 C267 1.510 . S
C258 C254 1.401 . S
C258 C257 1.396 . S
C259 C254 1.499 . S
C259 H260 0.959 . S
C259 H261 0.960 . S
C259 H262 0.961 . S
H260 C259 0.959 . S
H261 C259 0.960 . S
H262 C259 0.961 . S
O263 Co238 1.967 . S
O263 C271 1.258 . S
O264 Co239 1.941 . S
O264 C271 1.266 . S
H265 C267 0.959 . S
H266 C267 0.961 . S
C267 C257 1.510 . S
C267 H265 0.959 . S
C267 H266 0.961 . S
C267 H268 0.960 . S
H268 C267 0.960 . S
H269 N249 0.862 . S
O270 Co238 1.920 . S
O270 C243 1.289 . S
C271 O263 1.258 . S
C271 O264 1.266 . S
Co272 O275 1.970 . S
Co272 N289 1.989 . S
Co272 O297 1.967 . S
Co272 O304 1.920 . S
Co273 O276 1.966 . S
Co273 N282 2.022 . S
Co273 N290 1.993 . S
Co273 O298 1.941 . S
C274 O275 1.258 . S
C274 O276 1.263 . S
O275 Co272 1.970 . S
O275 C274 1.258 . S
O276 Co273 1.966 . S
O276 C274 1.263 . S
C277 O278 1.235 . S
C277 O304 1.289 . S
O278 C277 1.235 . S
C279 C281 1.400 . S
C279 N282 1.351 . S
C279 C284 1.501 . S
C280 C281 1.387 . S
C280 N283 1.341 . S
C281 C279 1.400 . S
C281 C280 1.387 . S
N282 Co273 2.022 . S
N282 C279 1.351 . S
N282 N283 1.365 . S
N283 C280 1.341 . S
N283 N282 1.365 . S
N283 H303 0.862 . S
C284 C279 1.501 . S
C284 H285 0.961 . S
C284 H286 0.961 . S
C284 H287 0.960 . S
H285 C284 0.961 . S
H286 C284 0.961 . S
H287 C284 0.960 . S
C288 N289 1.342 . S
C288 C292 1.401 . S
C288 C293 1.499 . S
N289 Co272 1.989 . S
N289 C288 1.342 . S
N289 N290 1.388 . S
N290 Co273 1.993 . S
N290 N289 1.388 . S
N290 C291 1.346 . S
C291 N290 1.346 . S
C291 C292 1.396 . S
C291 C301 1.510 . S
C292 C288 1.401 . S
C292 C291 1.396 . S
C293 C288 1.499 . S
C293 H294 0.959 . S
C293 H295 0.960 . S
C293 H296 0.961 . S
H294 C293 0.959 . S
H295 C293 0.960 . S
H296 C293 0.961 . S
O297 Co272 1.967 . S
O297 C305 1.258 . S
O298 Co273 1.941 . S
O298 C305 1.266 . S
H299 C301 0.959 . S
H300 C301 0.961 . S
C301 C291 1.510 . S
C301 H299 0.959 . S
C301 H300 0.961 . S
C301 H302 0.960 . S
H302 C301 0.960 . S
H303 N283 0.862 . S
O304 Co272 1.920 . S
O304 C277 1.289 . S
C305 O297 1.258 . S
C305 O298 1.266 . S
Co306 O309 1.970 . S
Co306 N323 1.989 . S
Co306 O331 1.967 . S
Co306 O338 1.920 . S
Co307 O310 1.966 . S
Co307 N316 2.022 . S
Co307 N324 1.993 . S
Co307 O332 1.941 . S
C308 O309 1.258 . S
C308 O310 1.263 . S
O309 Co306 1.970 . S
O309 C308 1.258 . S
O310 Co307 1.966 . S
O310 C308 1.263 . S
C311 O312 1.235 . S
C311 O338 1.289 . S
O312 C311 1.235 . S
C313 C315 1.400 . S
C313 N316 1.351 1_655 S
C313 C318 1.501 . S
C314 C315 1.387 . S
C314 N317 1.341 1_655 S
C315 C313 1.400 . S
C315 C314 1.387 . S
N316 Co307 2.022 . S
N316 C313 1.351 1_455 S
N316 N317 1.365 . S
N317 C314 1.341 1_455 S
N317 N316 1.365 . S
N317 H337 0.862 . S
C318 C313 1.501 . S
C318 H319 0.961 . S
C318 H320 0.961 . S
C318 H321 0.960 . S
H319 C318 0.961 . S
H320 C318 0.961 . S
H321 C318 0.960 . S
C322 N323 1.342 . S
C322 C326 1.401 . S
C322 C327 1.499 . S
N323 Co306 1.989 . S
N323 C322 1.342 . S
N323 N324 1.388 . S
N324 Co307 1.993 . S
N324 N323 1.388 . S
N324 C325 1.346 . S
C325 N324 1.346 . S
C325 C326 1.396 . S
C325 C335 1.510 . S
C326 C322 1.401 . S
C326 C325 1.396 . S
C327 C322 1.499 . S
C327 H328 0.959 . S
C327 H329 0.960 . S
C327 H330 0.961 . S
H328 C327 0.959 . S
H329 C327 0.960 . S
H330 C327 0.961 . S
O331 Co306 1.967 . S
O331 C339 1.258 . S
O332 Co307 1.941 . S
O332 C339 1.266 . S
H333 C335 0.959 . S
H334 C335 0.961 . S
C335 C325 1.510 . S
C335 H333 0.959 . S
C335 H334 0.961 . S
C335 H336 0.960 . S
H336 C335 0.960 . S
H337 N317 0.862 . S
O338 Co306 1.920 . S
O338 C311 1.289 . S
C339 O331 1.258 . S
C339 O332 1.266 . S
Co340 O343 1.970 . S
Co340 N357 1.989 . S
Co340 O365 1.967 . S
Co340 O372 1.920 . S
Co341 O344 1.966 . S
Co341 N350 2.022 1_554 S
Co341 N358 1.993 . S
Co341 O366 1.941 1_554 S
C342 O343 1.258 . S
C342 O344 1.263 . S
O343 Co340 1.970 . S
O343 C342 1.258 . S
O344 Co341 1.966 . S
O344 C342 1.263 . S
C345 O346 1.235 . S
C345 O372 1.289 . S
O346 C345 1.235 . S
C347 C349 1.400 . S
C347 N350 1.351 . S
C347 C352 1.501 1_556 S
C348 C349 1.387 . S
C348 N351 1.341 . S
C349 C347 1.400 . S
C349 C348 1.387 . S
N350 Co341 2.022 1_556 S
N350 C347 1.351 . S
N350 N351 1.365 . S
N351 C348 1.341 . S
N351 N350 1.365 . S
N351 H371 0.862 . S
C352 C347 1.501 1_554 S
C352 H353 0.961 . S
C352 H354 0.961 . S
C352 H355 0.960 . S
H353 C352 0.961 . S
H354 C352 0.961 . S
H355 C352 0.960 . S
C356 N357 1.342 . S
C356 C360 1.401 1_554 S
C356 C361 1.499 . S
N357 Co340 1.989 . S
N357 C356 1.342 . S
N357 N358 1.388 . S
N358 Co341 1.993 . S
N358 N357 1.388 . S
N358 C359 1.346 1_554 S
C359 N358 1.346 1_556 S
C359 C360 1.396 . S
C359 C369 1.510 . S
C360 C356 1.401 1_556 S
C360 C359 1.396 . S
C361 C356 1.499 . S
C361 H362 0.959 . S
C361 H363 0.960 . S
C361 H364 0.961 . S
H362 C361 0.959 . S
H363 C361 0.960 . S
H364 C361 0.961 . S
O365 Co340 1.967 . S
O365 C373 1.258 . S
O366 Co341 1.941 1_556 S
O366 C373 1.266 1_556 S
H367 C369 0.959 . S
H368 C369 0.961 . S
C369 C359 1.510 . S
C369 H367 0.959 . S
C369 H368 0.961 . S
C369 H370 0.960 . S
H370 C369 0.960 . S
H371 N351 0.862 . S
O372 Co340 1.920 . S
O372 C345 1.289 . S
C373 O365 1.258 . S
C373 O366 1.266 1_554 S
Co374 O377 1.970 . S
Co374 N391 1.989 . S
Co374 O399 1.967 . S
Co374 O406 1.920 . S
Co375 O378 1.966 . S
Co375 N384 2.022 . S
Co375 N392 1.993 . S
Co375 O400 1.941 . S
C376 O377 1.258 . S
C376 O378 1.263 . S
O377 Co374 1.970 . S
O377 C376 1.258 . S
O378 Co375 1.966 . S
O378 C376 1.263 . S
C379 O380 1.235 . S
C379 O406 1.289 . S
O380 C379 1.235 . S
C381 C383 1.400 . S
C381 N384 1.351 . S
C381 C386 1.501 . S
C382 C383 1.387 . S
C382 N385 1.341 . S
C383 C381 1.400 . S
C383 C382 1.387 . S
N384 Co375 2.022 . S
N384 C381 1.351 . S
N384 N385 1.365 . S
N385 C382 1.341 . S
N385 N384 1.365 . S
N385 H405 0.862 . S
C386 C381 1.501 . S
C386 H387 0.961 . S
C386 H388 0.961 . S
C386 H389 0.960 . S
H387 C386 0.961 . S
H388 C386 0.961 . S
H389 C386 0.960 . S
C390 N391 1.342 . S
C390 C394 1.401 . S
C390 C395 1.499 . S
N391 Co374 1.989 . S
N391 C390 1.342 . S
N391 N392 1.388 . S
N392 Co375 1.993 . S
N392 N391 1.388 . S
N392 C393 1.346 . S
C393 N392 1.346 . S
C393 C394 1.396 . S
C393 C403 1.510 . S
C394 C390 1.401 . S
C394 C393 1.396 . S
C395 C390 1.499 . S
C395 H396 0.959 . S
C395 H397 0.960 . S
C395 H398 0.961 . S
H396 C395 0.959 . S
H397 C395 0.960 . S
H398 C395 0.961 . S
O399 Co374 1.967 . S
O399 C407 1.258 . S
O400 Co375 1.941 . S
O400 C407 1.266 . S
H401 C403 0.959 . S
H402 C403 0.961 . S
C403 C393 1.510 . S
C403 H401 0.959 . S
C403 H402 0.961 . S
C403 H404 0.960 . S
H404 C403 0.960 . S
H405 N385 0.862 . S
O406 Co374 1.920 . S
O406 C379 1.289 . S
C407 O399 1.258 . S
C407 O400 1.266 . S
Co408 O411 1.970 . S
Co408 N425 1.989 . S
Co408 O433 1.967 . S
Co408 O440 1.920 . S
Co409 O412 1.966 . S
Co409 N418 2.022 . S
Co409 N426 1.993 . S
Co409 O434 1.941 . S
C410 O411 1.258 . S
C410 O412 1.263 . S
O411 Co408 1.970 . S
O411 C410 1.258 . S
O412 Co409 1.966 . S
O412 C410 1.263 . S
C413 O414 1.235 . S
C413 O440 1.289 . S
O414 C413 1.235 . S
C415 C417 1.400 . S
C415 N418 1.351 . S
C415 C420 1.501 . S
C416 C417 1.387 . S
C416 N419 1.341 . S
C417 C415 1.400 . S
C417 C416 1.387 . S
N418 Co409 2.022 . S
N418 C415 1.351 . S
N418 N419 1.365 . S
N419 C416 1.341 . S
N419 N418 1.365 . S
N419 H439 0.862 . S
C420 C415 1.501 . S
C420 H421 0.961 . S
C420 H422 0.961 . S
C420 H423 0.960 . S
H421 C420 0.961 . S
H422 C420 0.961 . S
H423 C420 0.960 . S
C424 N425 1.342 . S
C424 C428 1.401 . S
C424 C429 1.499 . S
N425 Co408 1.989 . S
N425 C424 1.342 . S
N425 N426 1.388 . S
N426 Co409 1.993 . S
N426 N425 1.388 . S
N426 C427 1.346 . S
C427 N426 1.346 . S
C427 C428 1.396 . S
C427 C437 1.510 . S
C428 C424 1.401 . S
C428 C427 1.396 . S
C429 C424 1.499 . S
C429 H430 0.959 . S
C429 H431 0.960 . S
C429 H432 0.961 . S
H430 C429 0.959 . S
H431 C429 0.960 . S
H432 C429 0.961 . S
O433 Co408 1.967 . S
O433 C441 1.258 . S
O434 Co409 1.941 . S
O434 C441 1.266 . S
H435 C437 0.959 . S
H436 C437 0.961 . S
C437 C427 1.510 . S
C437 H435 0.959 . S
C437 H436 0.961 . S
C437 H438 0.960 . S
H438 C437 0.960 . S
H439 N419 0.862 . S
O440 Co408 1.920 . S
O440 C413 1.289 . S
C441 O433 1.258 . S
C441 O434 1.266 . S
Co442 O445 1.970 . S
Co442 N459 1.989 . S
Co442 O467 1.967 . S
Co442 O474 1.920 . S
Co443 O446 1.966 . S
Co443 N452 2.022 . S
Co443 N460 1.993 . S
Co443 O468 1.941 . S
C444 O445 1.258 . S
C444 O446 1.263 . S
O445 Co442 1.970 . S
O445 C444 1.258 . S
O446 Co443 1.966 . S
O446 C444 1.263 . S
C447 O448 1.235 . S
C447 O474 1.289 . S
O448 C447 1.235 . S
C449 C451 1.400 . S
C449 N452 1.351 1_455 S
C449 C454 1.501 . S
C450 C451 1.387 . S
C450 N453 1.341 1_455 S
C451 C449 1.400 . S
C451 C450 1.387 . S
N452 Co443 2.022 . S
N452 C449 1.351 1_655 S
N452 N453 1.365 . S
N453 C450 1.341 1_655 S
N453 N452 1.365 . S
N453 H473 0.862 . S
C454 C449 1.501 . S
C454 H455 0.961 . S
C454 H456 0.961 . S
C454 H457 0.960 . S
H455 C454 0.961 . S
H456 C454 0.961 . S
H457 C454 0.960 . S
C458 N459 1.342 . S
C458 C462 1.401 . S
C458 C463 1.499 . S
N459 Co442 1.989 . S
N459 C458 1.342 . S
N459 N460 1.388 . S
N460 Co443 1.993 . S
N460 N459 1.388 . S
N460 C461 1.346 . S
C461 N460 1.346 . S
C461 C462 1.396 . S
C461 C471 1.510 . S
C462 C458 1.401 . S
C462 C461 1.396 . S
C463 C458 1.499 . S
C463 H464 0.959 . S
C463 H465 0.960 . S
C463 H466 0.961 . S
H464 C463 0.959 . S
H465 C463 0.960 . S
H466 C463 0.961 . S
O467 Co442 1.967 . S
O467 C475 1.258 . S
O468 Co443 1.941 . S
O468 C475 1.266 . S
H469 C471 0.959 . S
H470 C471 0.961 . S
C471 C461 1.510 . S
C471 H469 0.959 . S
C471 H470 0.961 . S
C471 H472 0.960 . S
H472 C471 0.960 . S
H473 N453 0.862 . S
O474 Co442 1.920 . S
O474 C447 1.289 . S
C475 O467 1.258 . S
C475 O468 1.266 . S
Co476 O479 1.970 . S
Co476 N493 1.989 . S
Co476 O501 1.967 . S
Co476 O508 1.920 . S
Co477 O480 1.966 . S
Co477 N486 2.022 1_556 S
Co477 N494 1.993 . S
Co477 O502 1.941 1_556 S
C478 O479 1.258 . S
C478 O480 1.263 . S
O479 Co476 1.970 . S
O479 C478 1.258 . S
O480 Co477 1.966 . S
O480 C478 1.263 . S
C481 O482 1.235 . S
C481 O508 1.289 . S
O482 C481 1.235 . S
C483 C485 1.400 . S
C483 N486 1.351 . S
C483 C488 1.501 1_554 S
C484 C485 1.387 . S
C484 N487 1.341 . S
C485 C483 1.400 . S
C485 C484 1.387 . S
N486 Co477 2.022 1_554 S
N486 C483 1.351 . S
N486 N487 1.365 . S
N487 C484 1.341 . S
N487 N486 1.365 . S
N487 H507 0.862 . S
C488 C483 1.501 1_556 S
C488 H489 0.961 . S
C488 H490 0.961 . S
C488 H491 0.960 . S
H489 C488 0.961 . S
H490 C488 0.961 . S
H491 C488 0.960 . S
C492 N493 1.342 . S
C492 C496 1.401 1_556 S
C492 C497 1.499 . S
N493 Co476 1.989 . S
N493 C492 1.342 . S
N493 N494 1.388 . S
N494 Co477 1.993 . S
N494 N493 1.388 . S
N494 C495 1.346 1_556 S
C495 N494 1.346 1_554 S
C495 C496 1.396 . S
C495 C505 1.510 . S
C496 C492 1.401 1_554 S
C496 C495 1.396 . S
C497 C492 1.499 . S
C497 H498 0.959 . S
C497 H499 0.960 . S
C497 H500 0.961 . S
H498 C497 0.959 . S
H499 C497 0.960 . S
H500 C497 0.961 . S
O501 Co476 1.967 . S
O501 C509 1.258 . S
O502 Co477 1.941 1_554 S
O502 C509 1.266 1_554 S
H503 C505 0.959 . S
H504 C505 0.961 . S
C505 C495 1.510 . S
C505 H503 0.959 . S
C505 H504 0.961 . S
C505 H506 0.960 . S
H506 C505 0.960 . S
H507 N487 0.862 . S
O508 Co476 1.920 . S
O508 C481 1.289 . S
C509 O501 1.258 . S
C509 O502 1.266 1_556 S
Co510 O513 1.970 . S
Co510 N527 1.989 . S
Co510 O535 1.967 . S
Co510 O542 1.920 . S
Co511 O514 1.966 . S
Co511 N520 2.022 . S
Co511 N528 1.993 . S
Co511 O536 1.941 . S
C512 O513 1.258 . S
C512 O514 1.263 . S
O513 Co510 1.970 . S
O513 C512 1.258 . S
O514 Co511 1.966 . S
O514 C512 1.263 . S
C515 O516 1.235 . S
C515 O542 1.289 . S
O516 C515 1.235 . S
C517 C519 1.400 . S
C517 N520 1.351 . S
C517 C522 1.501 . S
C518 C519 1.387 . S
C518 N521 1.341 . S
C519 C517 1.400 . S
C519 C518 1.387 . S
N520 Co511 2.022 . S
N520 C517 1.351 . S
N520 N521 1.365 . S
N521 C518 1.341 . S
N521 N520 1.365 . S
N521 H541 0.862 . S
C522 C517 1.501 . S
C522 H523 0.961 . S
C522 H524 0.961 . S
C522 H525 0.960 . S
H523 C522 0.961 . S
H524 C522 0.961 . S
H525 C522 0.960 . S
C526 N527 1.342 . S
C526 C530 1.401 . S
C526 C531 1.499 . S
N527 Co510 1.989 . S
N527 C526 1.342 . S
N527 N528 1.388 . S
N528 Co511 1.993 . S
N528 N527 1.388 . S
N528 C529 1.346 . S
C529 N528 1.346 . S
C529 C530 1.396 . S
C529 C539 1.510 . S
C530 C526 1.401 . S
C530 C529 1.396 . S
C531 C526 1.499 . S
C531 H532 0.959 . S
C531 H533 0.960 . S
C531 H534 0.961 . S
H532 C531 0.959 . S
H533 C531 0.960 . S
H534 C531 0.961 . S
O535 Co510 1.967 . S
O535 C543 1.258 . S
O536 Co511 1.941 . S
O536 C543 1.266 . S
H537 C539 0.959 . S
H538 C539 0.961 . S
C539 C529 1.510 . S
C539 H537 0.959 . S
C539 H538 0.961 . S
C539 H540 0.960 . S
H540 C539 0.960 . S
H541 N521 0.862 . S
O542 Co510 1.920 . S
O542 C515 1.289 . S
C543 O535 1.258 . S
C543 O536 1.266 . S
C544 C545 1.369 . S
C544 C546 1.419 . S
C544 H548 0.930 . S
C545 C544 1.369 . S
C545 C554 1.429 . S
C546 C544 1.419 . S
C546 C547 1.363 . S
C546 H549 0.929 1_556 S
C547 C546 1.363 . S
C547 C553 1.428 . S
H548 C544 0.930 . S
H549 C546 0.929 1_554 S
S550 N551 1.613 . S
S550 N552 1.610 . S
N551 S550 1.613 . S
N551 C554 1.350 . S
N552 S550 1.610 . S
N552 C553 1.351 . S
C553 C547 1.428 . S
C553 N552 1.351 . S
C553 C554 1.434 . S
C554 C545 1.429 . S
C554 N551 1.350 . S
C554 C553 1.434 . S
C555 C556 1.369 . S
C555 C557 1.419 . S
C555 H559 0.930 . S
C556 C555 1.369 . S
C556 C565 1.429 . S
C557 C555 1.419 . S
C557 C558 1.363 . S
C557 H560 0.929 . S
C558 C557 1.363 . S
C558 C564 1.428 . S
H559 C555 0.930 . S
H560 C557 0.929 . S
S561 N562 1.613 . S
S561 N563 1.610 . S
N562 S561 1.613 . S
N562 C565 1.350 . S
N563 S561 1.610 . S
N563 C564 1.351 . S
C564 C558 1.428 . S
C564 N563 1.351 . S
C564 C565 1.434 . S
C565 C556 1.429 . S
C565 N562 1.350 . S
C565 C564 1.434 . S
C566 C567 1.369 . S
C566 C568 1.419 . S
C566 H570 0.930 . S
C567 C566 1.369 . S
C567 C576 1.429 . S
C568 C566 1.419 . S
C568 C569 1.363 . S
C568 H571 0.929 . S
C569 C568 1.363 . S
C569 C575 1.428 . S
H570 C566 0.930 . S
H571 C568 0.929 . S
S572 N573 1.613 . S
S572 N574 1.610 . S
N573 S572 1.613 . S
N573 C576 1.350 . S
N574 S572 1.610 . S
N574 C575 1.351 . S
C575 C569 1.428 . S
C575 N574 1.351 . S
C575 C576 1.434 . S
C576 C567 1.429 . S
C576 N573 1.350 . S
C576 C575 1.434 . S
C577 C578 1.369 . S
C577 C579 1.419 . S
C577 H581 0.930 . S
C578 C577 1.369 . S
C578 C587 1.429 . S
C579 C577 1.419 . S
C579 C580 1.363 . S
C579 H582 0.929 . S
C580 C579 1.363 . S
C580 C586 1.428 . S
H581 C577 0.930 . S
H582 C579 0.929 . S
S583 N584 1.613 . S
S583 N585 1.610 . S
N584 S583 1.613 . S
N584 C587 1.350 . S
N585 S583 1.610 . S
N585 C586 1.351 . S
C586 C580 1.428 . S
C586 N585 1.351 . S
C586 C587 1.434 . S
C587 C578 1.429 . S
C587 N584 1.350 . S
C587 C586 1.434 . S
C588 C589 1.369 . S
C588 C590 1.419 . S
C588 H592 0.930 . S
C589 C588 1.369 . S
C589 C598 1.429 . S
C590 C588 1.419 . S
C590 C591 1.363 . S
C590 H593 0.929 . S
C591 C590 1.363 . S
C591 C597 1.428 . S
H592 C588 0.930 . S
H593 C590 0.929 . S
S594 N595 1.613 . S
S594 N596 1.610 1_556 S
N595 S594 1.613 . S
N595 C598 1.350 1_556 S
N596 S594 1.610 1_554 S
N596 C597 1.351 . S
C597 C591 1.428 . S
C597 N596 1.351 . S
C597 C598 1.434 . S
C598 C589 1.429 . S
C598 N595 1.350 1_554 S
C598 C597 1.434 . S
C599 C600 1.369 . S
C599 C601 1.419 . S
C599 H603 0.930 . S
C600 C599 1.369 . S
C600 C609 1.429 . S
C601 C599 1.419 . S
C601 C602 1.363 . S
C601 H604 0.929 . S
C602 C601 1.363 . S
C602 C608 1.428 . S
H603 C599 0.930 . S
H604 C601 0.929 . S
S605 N606 1.613 . S
S605 N607 1.610 . S
N606 S605 1.613 . S
N606 C609 1.350 . S
N607 S605 1.610 . S
N607 C608 1.351 . S
C608 C602 1.428 . S
C608 N607 1.351 . S
C608 C609 1.434 . S
C609 C600 1.429 . S
C609 N606 1.350 . S
C609 C608 1.434 . S
C610 C611 1.369 . S
C610 C612 1.419 . S
C610 H614 0.930 . S
C611 C610 1.369 . S
C611 C620 1.429 . S
C612 C610 1.419 . S
C612 C613 1.363 . S
C612 H615 0.929 . S
C613 C612 1.363 . S
C613 C619 1.428 . S
H614 C610 0.930 . S
H615 C612 0.929 . S
S616 N617 1.613 . S
S616 N618 1.610 . S
N617 S616 1.613 . S
N617 C620 1.350 . S
N618 S616 1.610 . S
N618 C619 1.351 . S
C619 C613 1.428 . S
C619 N618 1.351 . S
C619 C620 1.434 . S
C620 C611 1.429 . S
C620 N617 1.350 . S
C620 C619 1.434 . S
C621 C622 1.369 . S
C621 C623 1.419 . S
C621 H625 0.930 . S
C622 C621 1.369 . S
C622 C631 1.429 . S
C623 C621 1.419 . S
C623 C624 1.363 . S
C623 H626 0.929 . S
C624 C623 1.363 . S
C624 C630 1.428 . S
H625 C621 0.930 . S
H626 C623 0.929 . S
S627 N628 1.613 . S
S627 N629 1.610 . S
N628 S627 1.613 . S
N628 C631 1.350 . S
N629 S627 1.610 . S
N629 C630 1.351 . S
C630 C624 1.428 . S
C630 N629 1.351 . S
C630 C631 1.434 . S
C631 C622 1.429 . S
C631 N628 1.350 . S
C631 C630 1.434 . S
C632 C633 1.369 . S
C632 C634 1.419 . S
C632 H636 0.930 . S
C633 C632 1.369 . S
C633 C642 1.429 . S
C634 C632 1.419 . S
C634 C635 1.363 . S
C634 H637 0.929 . S
C635 C634 1.363 . S
C635 C641 1.428 . S
H636 C632 0.930 . S
H637 C634 0.929 . S
S638 N639 1.613 . S
S638 N640 1.610 . S
N639 S638 1.613 . S
N639 C642 1.350 . S
N640 S638 1.610 . S
N640 C641 1.351 . S
C641 C635 1.428 . S
C641 N640 1.351 . S
C641 C642 1.434 . S
C642 C633 1.429 . S
C642 N639 1.350 . S
C642 C641 1.434 . S
C643 C644 1.369 . S
C643 C645 1.419 . S
C643 H647 0.930 . S
C644 C643 1.369 . S
C644 C653 1.429 . S
C645 C643 1.419 . S
C645 C646 1.363 . S
C645 H648 0.929 . S
C646 C645 1.363 . S
C646 C652 1.428 . S
H647 C643 0.930 . S
H648 C645 0.929 . S
S649 N650 1.613 . S
S649 N651 1.610 . S
N650 S649 1.613 . S
N650 C653 1.350 . S
N651 S649 1.610 . S
N651 C652 1.351 . S
C652 C646 1.428 . S
C652 N651 1.351 . S
C652 C653 1.434 . S
C653 C644 1.429 . S
C653 N650 1.350 . S
C653 C652 1.434 . S
C654 C655 1.369 . S
C654 C656 1.419 . S
C654 H658 0.930 . S
C655 C654 1.369 . S
C655 C664 1.429 . S
C656 C654 1.419 . S
C656 C657 1.363 . S
C656 H659 0.929 . S
C657 C656 1.363 . S
C657 C663 1.428 . S
H658 C654 0.930 . S
H659 C656 0.929 . S
S660 N661 1.613 1_554 S
S660 N662 1.610 . S
N661 S660 1.613 1_556 S
N661 C664 1.350 . S
N662 S660 1.610 . S
N662 C663 1.351 1_554 S
C663 C657 1.428 . S
C663 N662 1.351 1_556 S
C663 C664 1.434 . S
C664 C655 1.429 . S
C664 N661 1.350 . S
C664 C663 1.434 . S
C665 C666 1.369 . S
C665 C667 1.419 . S
C665 H669 0.930 . S
C666 C665 1.369 . S
C666 C675 1.429 . S
C667 C665 1.419 . S
C667 C668 1.363 . S
C667 H670 0.929 . S
C668 C667 1.363 . S
C668 C674 1.428 . S
H669 C665 0.930 . S
H670 C667 0.929 . S
S671 N672 1.613 . S
S671 N673 1.610 . S
N672 S671 1.613 . S
N672 C675 1.350 . S
N673 S671 1.610 . S
N673 C674 1.351 . S
C674 C668 1.428 . S
C674 N673 1.351 . S
C674 C675 1.434 . S
C675 C666 1.429 . S
C675 N672 1.350 . S
C675 C674 1.434 . S
C676 C677 1.369 . S
C676 C678 1.419 . S
C676 H680 0.930 . S
C677 C676 1.369 . S
C677 C686 1.429 . S
C678 C676 1.419 . S
C678 C679 1.363 . S
C678 H681 0.929 . S
C679 C678 1.363 . S
C679 C685 1.428 . S
H680 C676 0.930 . S
H681 C678 0.929 . S
S682 N683 1.613 . S
S682 N684 1.610 . S
N683 S682 1.613 . S
N683 C686 1.350 . S
N684 S682 1.610 . S
N684 C685 1.351 . S
C685 C679 1.428 . S
C685 N684 1.351 . S
C685 C686 1.434 . S
C686 C677 1.429 . S
C686 N683 1.350 . S
C686 C685 1.434 . S
C687 C688 1.369 . S
C687 C689 1.419 . S
C687 H691 0.930 . S
C688 C687 1.369 . S
C688 C697 1.429 . S
C689 C687 1.419 . S
C689 C690 1.363 . S
C689 H692 0.929 . S
C690 C689 1.363 . S
C690 C696 1.428 . S
H691 C687 0.930 . S
H692 C689 0.929 . S
S693 N694 1.613 . S
S693 N695 1.610 . S
N694 S693 1.613 . S
N694 C697 1.350 . S
N695 S693 1.610 . S
N695 C696 1.351 . S
C696 C690 1.428 . S
C696 N695 1.351 . S
C696 C697 1.434 . S
C697 C688 1.429 . S
C697 N694 1.350 . S
C697 C696 1.434 . S
C698 C699 1.369 . S
C698 C700 1.419 . S
C698 H702 0.930 . S
C699 C698 1.369 . S
C699 C708 1.429 . S
C700 C698 1.419 . S
C700 C701 1.363 . S
C700 H703 0.929 . S
C701 C700 1.363 . S
C701 C707 1.428 . S
H702 C698 0.930 . S
H703 C700 0.929 . S
S704 N705 1.613 1_556 S
S704 N706 1.610 . S
N705 S704 1.613 1_554 S
N705 C708 1.350 . S
N706 S704 1.610 . S
N706 C707 1.351 1_556 S
C707 C701 1.428 . S
C707 N706 1.351 1_554 S
C707 C708 1.434 . S
C708 C699 1.429 . S
C708 N705 1.350 . S
C708 C707 1.434 . S
C709 C710 1.369 . S
C709 C711 1.419 . S
C709 H713 0.930 . S
C710 C709 1.369 . S
C710 C719 1.429 . S
C711 C709 1.419 . S
C711 C712 1.363 . S
C711 H714 0.929 . S
C712 C711 1.363 . S
C712 C718 1.428 . S
H713 C709 0.930 . S
H714 C711 0.929 . S
S715 N716 1.613 . S
S715 N717 1.610 . S
N716 S715 1.613 . S
N716 C719 1.350 . S
N717 S715 1.610 . S
N717 C718 1.351 . S
C718 C712 1.428 . S
C718 N717 1.351 . S
C718 C719 1.434 . S
C719 C710 1.429 . S
C719 N716 1.350 . S
C719 C718 1.434 . S
C720 C721 1.369 . S
C720 C722 1.419 . S
C720 H724 0.930 . S
C721 C720 1.369 . S
C721 C730 1.429 . S
C722 C720 1.419 . S
C722 C723 1.363 . S
C722 H725 0.929 . S
C723 C722 1.363 . S
C723 C729 1.428 . S
H724 C720 0.930 . S
H725 C722 0.929 . S
S726 N727 1.613 . S
S726 N728 1.610 . S
N727 S726 1.613 . S
N727 C730 1.350 . S
N728 S726 1.610 . S
N728 C729 1.351 . S
C729 C723 1.428 . S
C729 N728 1.351 . S
C729 C730 1.434 . S
C730 C721 1.429 . S
C730 N727 1.350 . S
C730 C729 1.434 . S
C731 C732 1.369 . S
C731 C733 1.419 . S
C731 H735 0.930 . S
C732 C731 1.369 . S
C732 C741 1.429 . S
C733 C731 1.419 . S
C733 C734 1.363 . S
C733 H736 0.929 . S
C734 C733 1.363 . S
C734 C740 1.428 . S
H735 C731 0.930 . S
H736 C733 0.929 . S
S737 N738 1.613 . S
S737 N739 1.610 . S
N738 S737 1.613 . S
N738 C741 1.350 . S
N739 S737 1.610 . S
N739 C740 1.351 . S
C740 C734 1.428 . S
C740 N739 1.351 . S
C740 C741 1.434 . S
C741 C732 1.429 . S
C741 N738 1.350 . S
C741 C740 1.434 . S
C742 C743 1.369 . S
C742 C744 1.419 . S
C742 H746 0.930 . S
C743 C742 1.369 . S
C743 C752 1.429 . S
C744 C742 1.419 . S
C744 C745 1.363 . S
C744 H747 0.929 . S
C745 C744 1.363 . S
C745 C751 1.428 . S
H746 C742 0.930 . S
H747 C744 0.929 . S
S748 N749 1.613 . S
S748 N750 1.610 . S
N749 S748 1.613 . S
N749 C752 1.350 . S
N750 S748 1.610 . S
N750 C751 1.351 . S
C751 C745 1.428 . S
C751 N750 1.351 . S
C751 C752 1.434 . S
C752 C743 1.429 . S
C752 N749 1.350 . S
C752 C751 1.434 . S
C753 C754 1.369 . S
C753 C755 1.419 1_655 S
C753 H757 0.930 . S
C754 C753 1.369 . S
C754 C763 1.429 1_556 S
C755 C753 1.419 1_455 S
C755 C756 1.363 1_556 S
C755 H758 0.929 . S
C756 C755 1.363 1_554 S
C756 C762 1.453 . S
H757 C753 0.930 . S
H758 C755 0.929 . S
S759 N760 1.613 . S
S759 N761 1.610 . S
N760 S759 1.613 . S
N760 C763 1.350 . S
N761 S759 1.610 . S
N761 C762 1.348 1_655 S
C762 C756 1.453 . S
C762 N761 1.348 1_455 S
C762 C763 1.409 1_455 S
C763 C754 1.429 1_554 S
C763 N760 1.350 . S
C763 C762 1.409 1_655 S
C764 C765 1.369 . S
C764 C766 1.419 . S
C764 H768 0.930 . S
C765 C764 1.369 . S
C765 C774 1.429 . S
C766 C764 1.419 . S
C766 C767 1.363 . S
C766 H769 0.929 . S
C767 C766 1.363 . S
C767 C773 1.428 . S
H768 C764 0.930 . S
H769 C766 0.929 . S
S770 N771 1.613 . S
S770 N772 1.610 . S
N771 S770 1.613 . S
N771 C774 1.350 . S
N772 S770 1.610 . S
N772 C773 1.351 . S
C773 C767 1.428 . S
C773 N772 1.351 . S
C773 C774 1.434 . S
C774 C765 1.429 . S
C774 N771 1.350 . S
C774 C773 1.434 . S
C775 C776 1.369 . S
C775 C777 1.419 . S
C775 H779 0.930 . S
C776 C775 1.369 . S
C776 C785 1.429 . S
C777 C775 1.419 . S
C777 C778 1.363 . S
C777 H780 0.929 . S
C778 C777 1.363 . S
C778 C784 1.428 . S
H779 C775 0.930 . S
H780 C777 0.929 . S
S781 N782 1.613 . S
S781 N783 1.610 . S
N782 S781 1.613 . S
N782 C785 1.350 . S
N783 S781 1.610 . S
N783 C784 1.351 . S
C784 C778 1.428 . S
C784 N783 1.351 . S
C784 C785 1.434 . S
C785 C776 1.429 . S
C785 N782 1.350 . S
C785 C784 1.434 . S
C786 C787 1.369 1_556 S
C786 C788 1.419 1_565 S
C786 H790 0.930 . S
C787 C786 1.369 1_554 S
C787 C796 1.429 1_655 S
C788 C786 1.419 1_545 S
C788 C789 1.363 1_655 S
C788 H791 0.929 . S
C789 C788 1.363 1_455 S
C789 C795 1.428 1_556 S
H790 C786 0.930 . S
H791 C788 0.929 . S
S792 N793 1.613 . S
S792 N794 1.610 1_565 S
N793 S792 1.613 . S
N793 C796 1.350 . S
N794 S792 1.610 1_545 S
N794 C795 1.351 . S
C795 C789 1.428 1_554 S
C795 N794 1.351 . S
C795 C796 1.434 1_545 S
C796 C787 1.429 1_455 S
C796 N793 1.350 . S
C796 C795 1.434 1_565 S
C797 C798 1.369 . S
C797 C799 1.419 1_565 S
C797 H801 0.930 . S
C798 C797 1.369 . S
C798 C807 1.429 . S
C799 C797 1.419 1_545 S
C799 C800 1.363 . S
C799 H802 0.929 . S
C800 C799 1.363 . S
C800 C806 1.428 . S
H801 C797 0.930 . S
H802 C799 0.929 . S
S803 N804 1.613 . S
S803 N805 1.610 1_565 S
N804 S803 1.613 . S
N804 C807 1.350 . S
N805 S803 1.610 1_545 S
N805 C806 1.351 . S
C806 C800 1.428 . S
C806 N805 1.351 . S
C806 C807 1.434 1_545 S
C807 C798 1.429 . S
C807 N804 1.350 . S
C807 C806 1.434 1_565 S
C808 C809 1.369 . S
C808 C810 1.419 . S
C808 H812 0.930 . S
C809 C808 1.369 . S
C809 C818 1.424 1_556 S
C810 C808 1.419 . S
C810 C811 1.363 . S
C810 H813 0.929 . S
C811 C810 1.363 . S
C811 C817 1.428 1_556 S
H812 C808 0.930 . S
H813 C810 0.929 . S
S814 N815 1.613 . S
S814 N816 1.610 . S
N815 S814 1.613 . S
N815 C818 1.352 . S
N816 S814 1.610 . S
N816 C817 1.351 . S
C817 C811 1.428 1_554 S
C817 N816 1.351 . S
C817 C818 1.436 . S
C818 C809 1.424 1_554 S
C818 N815 1.352 . S
C818 C817 1.436 . S
C819 C820 1.369 . S
C819 C821 1.419 . S
C819 H823 0.930 . S
C820 C819 1.369 . S
C820 C829 1.429 . S
C821 C819 1.419 . S
C821 C822 1.363 . S
C821 H824 0.929 . S
C822 C821 1.363 . S
C822 C828 1.428 . S
H823 C819 0.930 . S
H824 C821 0.929 . S
S825 N826 1.613 . S
S825 N827 1.610 . S
N826 S825 1.613 . S
N826 C829 1.350 . S
N827 S825 1.610 . S
N827 C828 1.351 . S
C828 C822 1.428 . S
C828 N827 1.351 . S
C828 C829 1.434 . S
C829 C820 1.429 . S
C829 N826 1.350 . S
C829 C828 1.434 . S
C830 C831 1.369 . S
C830 C832 1.419 . S
C830 H834 0.930 . S
C831 C830 1.369 . S
C831 C840 1.429 . S
C832 C830 1.419 . S
C832 C833 1.363 . S
C832 H835 0.929 . S
C833 C832 1.363 . S
C833 C839 1.428 . S
H834 C830 0.930 . S
H835 C832 0.929 . S
S836 N837 1.613 . S
S836 N838 1.610 . S
N837 S836 1.613 . S
N837 C840 1.350 . S
N838 S836 1.610 . S
N838 C839 1.351 . S
C839 C833 1.428 . S
C839 N838 1.351 . S
C839 C840 1.434 . S
C840 C831 1.429 . S
C840 N837 1.350 . S
C840 C839 1.434 . S
C841 C842 1.369 . S
C841 C843 1.419 . S
C841 H845 0.930 . S
C842 C841 1.369 . S
C842 C851 1.429 . S
C843 C841 1.419 . S
C843 C844 1.363 . S
C843 H846 0.929 . S
C844 C843 1.363 . S
C844 C850 1.428 . S
H845 C841 0.930 . S
H846 C843 0.929 . S
S847 N848 1.613 . S
S847 N849 1.610 . S
N848 S847 1.613 . S
N848 C851 1.350 . S
N849 S847 1.610 . S
N849 C850 1.351 . S
C850 C844 1.428 . S
C850 N849 1.351 . S
C850 C851 1.434 . S
C851 C842 1.429 . S
C851 N848 1.350 . S
C851 C850 1.434 . S
C852 C853 1.369 1_556 S
C852 C854 1.420 . S
C852 H856 0.930 . S
C853 C852 1.369 1_554 S
C853 C862 1.429 . S
C854 C852 1.420 . S
C854 C855 1.358 1_556 S
C854 H857 0.932 . S
C855 C854 1.358 1_554 S
C855 C861 1.428 . S
H856 C852 0.930 . S
H857 C854 0.932 . S
S858 N859 1.613 . S
S858 N860 1.610 . S
N859 S858 1.613 . S
N859 C862 1.350 . S
N860 S858 1.610 . S
N860 C861 1.351 . S
C861 C855 1.428 . S
C861 N860 1.351 . S
C861 C862 1.434 . S
C862 C853 1.429 . S
C862 N859 1.350 . S
C862 C861 1.434 . S
C863 C864 1.369 . S
C863 C865 1.419 . S
C863 H867 0.930 . S
C864 C863 1.369 . S
C864 C873 1.429 . S
C865 C863 1.419 . S
C865 C866 1.363 . S
C865 H868 0.929 . S
C866 C865 1.363 . S
C866 C872 1.428 . S
H867 C863 0.930 . S
H868 C865 0.929 . S
S869 N870 1.613 . S
S869 N871 1.610 . S
N870 S869 1.613 . S
N870 C873 1.350 . S
N871 S869 1.610 . S
N871 C872 1.351 . S
C872 C866 1.428 . S
C872 N871 1.351 . S
C872 C873 1.434 . S
C873 C864 1.429 . S
C873 N870 1.350 . S
C873 C872 1.434 . S
C874 C875 1.369 . S
C874 C876 1.419 . S
C874 H878 0.930 . S
C875 C874 1.369 . S
C875 C884 1.429 . S
C876 C874 1.419 . S
C876 C877 1.363 . S
C876 H879 0.929 . S
C877 C876 1.363 . S
C877 C883 1.428 . S
H878 C874 0.930 . S
H879 C876 0.929 . S
S880 N881 1.613 . S
S880 N882 1.610 . S
N881 S880 1.613 . S
N881 C884 1.350 . S
N882 S880 1.610 . S
N882 C883 1.351 . S
C883 C877 1.428 . S
C883 N882 1.351 . S
C883 C884 1.434 . S
C884 C875 1.429 . S
C884 N881 1.350 . S
C884 C883 1.434 . S
C885 C886 1.369 . S
C885 C887 1.419 . S
C885 H889 0.930 . S
C886 C885 1.369 . S
C886 C895 1.429 . S
C887 C885 1.419 . S
C887 C888 1.363 . S
C887 H890 0.929 . S
C888 C887 1.363 . S
C888 C894 1.428 . S
H889 C885 0.930 . S
H890 C887 0.929 . S
S891 N892 1.613 . S
S891 N893 1.610 . S
N892 S891 1.613 . S
N892 C895 1.350 . S
N893 S891 1.610 . S
N893 C894 1.351 . S
C894 C888 1.428 . S
C894 N893 1.351 . S
C894 C895 1.434 . S
C895 C886 1.429 . S
C895 N892 1.350 . S
C895 C894 1.434 . S
C896 C897 1.369 . S
C896 C898 1.419 . S
C896 H900 0.930 . S
C897 C896 1.369 . S
C897 C906 1.429 . S
C898 C896 1.419 . S
C898 C899 1.363 . S
C898 H901 0.929 . S
C899 C898 1.363 . S
C899 C905 1.428 . S
H900 C896 0.930 . S
H901 C898 0.929 . S
S902 N903 1.613 . S
S902 N904 1.610 . S
N903 S902 1.613 . S
N903 C906 1.350 . S
N904 S902 1.610 . S
N904 C905 1.351 . S
C905 C899 1.428 . S
C905 N904 1.351 . S
C905 C906 1.434 . S
C906 C897 1.429 . S
C906 N903 1.350 . S
C906 C905 1.434 . S
C907 C908 1.369 . S
C907 C909 1.419 . S
C907 H911 0.930 . S
C908 C907 1.369 . S
C908 C917 1.429 . S
C909 C907 1.419 . S
C909 C910 1.363 . S
C909 H912 0.929 . S
C910 C909 1.363 . S
C910 C916 1.428 . S
H911 C907 0.930 . S
H912 C909 0.929 . S
S913 N914 1.613 . S
S913 N915 1.610 . S
N914 S913 1.613 . S
N914 C917 1.350 . S
N915 S913 1.610 . S
N915 C916 1.351 . S
C916 C910 1.428 . S
C916 N915 1.351 . S
C916 C917 1.434 . S
C917 C908 1.429 . S
C917 N914 1.350 . S
C917 C916 1.434 . S
C918 C919 1.369 1_554 S
C918 C920 1.419 1_554 S
C918 H922 0.930 . S
C919 C918 1.369 1_556 S
C919 C928 1.429 . S
C920 C918 1.419 1_556 S
C920 C921 1.363 . S
C920 H923 0.929 1_556 S
C921 C920 1.363 . S
C921 C927 1.428 . S
H922 C918 0.930 . S
H923 C920 0.929 1_554 S
S924 N925 1.613 . S
S924 N926 1.610 . S
N925 S924 1.613 . S
N925 C928 1.350 . S
N926 S924 1.610 . S
N926 C927 1.351 . S
C927 C921 1.428 . S
C927 N926 1.351 . S
C927 C928 1.434 . S
C928 C919 1.429 . S
C928 N925 1.350 . S
C928 C927 1.434 . S
C929 C930 1.369 . S
C929 C931 1.419 . S
C929 H933 0.930 . S
C930 C929 1.369 . S
C930 C939 1.429 . S
C931 C929 1.419 . S
C931 C932 1.363 . S
C931 H934 0.929 . S
C932 C931 1.363 . S
C932 C938 1.428 . S
H933 C929 0.930 . S
H934 C931 0.929 . S
S935 N936 1.613 . S
S935 N937 1.610 . S
N936 S935 1.613 . S
N936 C939 1.350 . S
N937 S935 1.610 . S
N937 C938 1.351 . S
C938 C932 1.428 . S
C938 N937 1.351 . S
C938 C939 1.434 . S
C939 C930 1.429 . S
C939 N936 1.350 . S
C939 C938 1.434 . S
C940 C941 1.369 . S
C940 C942 1.419 . S
C940 H944 0.930 . S
C941 C940 1.369 . S
C941 C950 1.429 . S
C942 C940 1.419 . S
C942 C943 1.363 . S
C942 H945 0.929 . S
C943 C942 1.363 . S
C943 C949 1.428 . S
H944 C940 0.930 . S
H945 C942 0.929 . S
S946 N947 1.613 . S
S946 N948 1.610 . S
N947 S946 1.613 . S
N947 C950 1.350 . S
N948 S946 1.610 . S
N948 C949 1.351 . S
C949 C943 1.428 . S
C949 N948 1.351 . S
C949 C950 1.434 . S
C950 C941 1.429 . S
C950 N947 1.350 . S
C950 C949 1.434 . S
C951 C952 1.369 . S
C951 C953 1.419 . S
C951 H955 0.930 . S
C952 C951 1.369 . S
C952 C961 1.429 . S
C953 C951 1.419 . S
C953 C954 1.363 . S
C953 H956 0.929 1_545 S
C954 C953 1.363 . S
C954 C960 1.428 . S
H955 C951 0.930 . S
H956 C953 0.929 1_565 S
S957 N958 1.613 . S
S957 N959 1.610 . S
N958 S957 1.613 . S
N958 C961 1.350 . S
N959 S957 1.610 . S
N959 C960 1.351 . S
C960 C954 1.428 . S
C960 N959 1.351 . S
C960 C961 1.434 . S
C961 C952 1.429 . S
C961 N958 1.350 . S
C961 C960 1.434 . S
C962 C963 1.369 . S
C962 C964 1.419 . S
C962 H966 0.930 . S
C963 C962 1.369 . S
C963 C972 1.429 . S
C964 C962 1.419 . S
C964 C965 1.363 . S
C964 H967 0.929 . S
C965 C964 1.363 . S
C965 C971 1.428 . S
H966 C962 0.930 . S
H967 C964 0.929 . S
S968 N969 1.613 1_556 S
S968 N970 1.610 . S
N969 S968 1.613 1_554 S
N969 C972 1.350 . S
N970 S968 1.610 . S
N970 C971 1.351 1_556 S
C971 C965 1.428 . S
C971 N970 1.351 1_554 S
C971 C972 1.434 . S
C972 C963 1.429 . S
C972 N969 1.350 . S
C972 C971 1.434 . S
C973 C974 1.369 . S
C973 C975 1.419 . S
C973 H977 0.930 1_565 S
C974 C973 1.369 . S
C974 C983 1.429 . S
C975 C973 1.419 . S
C975 C976 1.363 . S
C975 H978 0.929 . S
C976 C975 1.363 . S
C976 C982 1.428 . S
H977 C973 0.930 1_545 S
H978 C975 0.929 . S
S979 N980 1.613 . S
S979 N981 1.610 . S
N980 S979 1.613 . S
N980 C983 1.350 . S
N981 S979 1.610 . S
N981 C982 1.351 . S
C982 C976 1.428 . S
C982 N981 1.351 . S
C982 C983 1.434 . S
C983 C974 1.429 . S
C983 N980 1.350 . S
C983 C982 1.434 . S
C545 C519 1.409 . S
C547 C20 1.498 . S
C556 C54 1.497 . S
C558 C145 1.405 . S
C567 C88 1.500 . S
C569 C451 1.407 . S
C578 C122 1.495 . S
C580 C213 1.411 . S
C589 C156 1.499 . S
C591 C383 1.401 . S
C600 C9 1.400 . S
C602 C190 1.499 . S
C611 C315 1.403 . S
C613 C224 1.500 . S
C622 C258 1.497 . S
C624 C77 1.411 . S
C633 C292 1.498 . S
C635 C247 1.403 . S
C644 C326 1.497 . S
C646 C417 1.410 . S
C655 C179 1.401 . S
C657 C360 1.499 . S
C666 C394 1.500 . S
C668 C485 1.401 . S
C677 C428 1.496 . S
C679 C111 1.411 . S
C688 C462 1.501 . S
C690 C281 1.403 . S
C699 C43 1.401 . S
C701 C496 1.498 . S
C710 C530 1.500 . S
C712 C349 1.407 . S
C721 C2 2.198 . S
C723 C410 2.199 . S
C732 C172 2.197 . S
C734 C36 2.200 . S
C743 C70 2.197 . S
C745 C478 2.200 . S
C754 C104 2.200 . S
C756 C240 2.197 . S
C765 C274 2.199 . S
C767 C138 2.198 . S
C776 C342 2.197 . S
C778 C206 2.200 . S
C787 C444 2.197 . S
C789 C308 2.200 . S
C798 C376 2.198 . S
C800 C512 2.199 . S
C809 C311 1.355 . S
C811 C33 1.461 1_556 S
C820 C67 1.461 . S
C822 C345 1.356 . S
C831 C101 1.461 . S
C833 C379 1.357 . S
C842 C277 1.365 . S
C844 C135 1.458 . S
C853 C169 1.461 1_554 S
C855 C447 1.357 . S
C864 C203 1.462 . S
C866 C481 1.356 . S
C875 C237 1.461 . S
C877 C515 1.358 . S
C886 C271 1.459 . S
C888 C413 1.362 . S
C897 C39 1.359 . S
C899 C305 1.460 . S
C908 C339 1.457 1_565 S
C910 C73 1.366 . S
C919 C373 1.459 1_556 S
C921 C107 1.363 . S
C930 C407 1.457 1_545 S
C932 C5 1.364 . S
C941 C441 1.461 . S
C943 C175 1.358 . S
C952 C209 1.359 . S
C954 C475 1.459 1_545 S
C963 C243 1.358 . S
C965 C509 1.460 1_554 S
C974 C543 1.460 1_565 S
C976 C141 1.359 . S
