# Generated by pormake.
# Topology wfa, (4)-cn, num edge types: 1
# Building blocks:
#     Node 0, Type 0, BuildingBlock: QUQFOY_clean_sbu_1, # of connection points: 4
#     Node 1, Type 0, BuildingBlock: QUQFOY_clean_sbu_1, # of connection points: 4
#     Node 2, Type 0, BuildingBlock: QUQFOY_clean_sbu_1, # of connection points: 4
#     Node 3, Type 0, BuildingBlock: QUQFOY_clean_sbu_1, # of connection points: 4
#     Node 4, Type 0, BuildingBlock: QUQFOY_clean_sbu_1, # of connection points: 4
#     Node 5, Type 0, BuildingBlock: QUQFOY_clean_sbu_1, # of connection points: 4
#     Node 6, Type 0, BuildingBlock: QUQFOY_clean_sbu_1, # of connection points: 4
#     Node 7, Type 0, BuildingBlock: QUQFOY_clean_sbu_1, # of connection points: 4
#     Node 8, Type 0, BuildingBlock: QUQFOY_clean_sbu_1, # of connection points: 4
#     Node 9, Type 0, BuildingBlock: QUQFOY_clean_sbu_1, # of connection points: 4
#     Node 10, Type 0, BuildingBlock: QUQFOY_clean_sbu_1, # of connection points: 4
#     Node 11, Type 0, BuildingBlock: QUQFOY_clean_sbu_1, # of connection points: 4
#     Node 12, Type 0, BuildingBlock: QUQFOY_clean_sbu_1, # of connection points: 4
#     Node 13, Type 0, BuildingBlock: QUQFOY_clean_sbu_1, # of connection points: 4
#     Node 14, Type 0, BuildingBlock: QUQFOY_clean_sbu_1, # of connection points: 4
#     Node 15, Type 0, BuildingBlock: QUQFOY_clean_sbu_1, # of connection points: 4
#     Edge 16, Type (0, 0), BuildingBlock: KIFKEQ_clean_linker_1, # of connection points: 2
#     Edge 17, Type (0, 0), BuildingBlock: KIFKEQ_clean_linker_1, # of connection points: 2
#     Edge 18, Type (0, 0), BuildingBlock: KIFKEQ_clean_linker_1, # of connection points: 2
#     Edge 19, Type (0, 0), BuildingBlock: KIFKEQ_clean_linker_1, # of connection points: 2
#     Edge 20, Type (0, 0), BuildingBlock: KIFKEQ_clean_linker_1, # of connection points: 2
#     Edge 21, Type (0, 0), BuildingBlock: KIFKEQ_clean_linker_1, # of connection points: 2
#     Edge 22, Type (0, 0), BuildingBlock: KIFKEQ_clean_linker_1, # of connection points: 2
#     Edge 23, Type (0, 0), BuildingBlock: KIFKEQ_clean_linker_1, # of connection points: 2
#     Edge 24, Type (0, 0), BuildingBlock: KIFKEQ_clean_linker_1, # of connection points: 2
#     Edge 25, Type (0, 0), BuildingBlock: KIFKEQ_clean_linker_1, # of connection points: 2
#     Edge 26, Type (0, 0), BuildingBlock: KIFKEQ_clean_linker_1, # of connection points: 2
#     Edge 27, Type (0, 0), BuildingBlock: KIFKEQ_clean_linker_1, # of connection points: 2
#     Edge 28, Type (0, 0), BuildingBlock: KIFKEQ_clean_linker_1, # of connection points: 2
#     Edge 29, Type (0, 0), BuildingBlock: KIFKEQ_clean_linker_1, # of connection points: 2
#     Edge 30, Type (0, 0), BuildingBlock: KIFKEQ_clean_linker_1, # of connection points: 2
#     Edge 31, Type (0, 0), BuildingBlock: KIFKEQ_clean_linker_1, # of connection points: 2
#     Edge 32, Type (0, 0), BuildingBlock: KIFKEQ_clean_linker_1, # of connection points: 2
#     Edge 33, Type (0, 0), BuildingBlock: KIFKEQ_clean_linker_1, # of connection points: 2
#     Edge 34, Type (0, 0), BuildingBlock: KIFKEQ_clean_linker_1, # of connection points: 2
#     Edge 35, Type (0, 0), BuildingBlock: KIFKEQ_clean_linker_1, # of connection points: 2
#     Edge 36, Type (0, 0), BuildingBlock: KIFKEQ_clean_linker_1, # of connection points: 2
#     Edge 37, Type (0, 0), BuildingBlock: KIFKEQ_clean_linker_1, # of connection points: 2
#     Edge 38, Type (0, 0), BuildingBlock: KIFKEQ_clean_linker_1, # of connection points: 2
#     Edge 39, Type (0, 0), BuildingBlock: KIFKEQ_clean_linker_1, # of connection points: 2
#     Edge 40, Type (0, 0), BuildingBlock: KIFKEQ_clean_linker_1, # of connection points: 2
#     Edge 41, Type (0, 0), BuildingBlock: KIFKEQ_clean_linker_1, # of connection points: 2
#     Edge 42, Type (0, 0), BuildingBlock: KIFKEQ_clean_linker_1, # of connection points: 2
#     Edge 43, Type (0, 0), BuildingBlock: KIFKEQ_clean_linker_1, # of connection points: 2
#     Edge 44, Type (0, 0), BuildingBlock: KIFKEQ_clean_linker_1, # of connection points: 2
#     Edge 45, Type (0, 0), BuildingBlock: KIFKEQ_clean_linker_1, # of connection points: 2
#     Edge 46, Type (0, 0), BuildingBlock: KIFKEQ_clean_linker_1, # of connection points: 2
#     Edge 47, Type (0, 0), BuildingBlock: KIFKEQ_clean_linker_1, # of connection points: 2
# Relax obj value: 0.082
# Max RMSD: 0.147
# Mean RMSD: 0.147
data_MOF--net-wfa--node1-QUQFOY_clean_sbu_1--edge1-KIFKEQ_clean_linker_1
_symmetry_space_group_name_H-M    P1
_symmetry_Int_Tables_number       1
_symmetry_cell_setting            triclinic
loop_
_symmetry_equiv_pos_as_xyz
'x, y, z'
_cell_length_a     51.157328
_cell_length_b     51.153602
_cell_length_c     24.735873
_cell_angle_alpha  89.982521
_cell_angle_beta   90.013722
_cell_angle_gamma 90.116709
loop_
_atom_site_label
_atom_site_type_symbol
_atom_site_fract_x
_atom_site_fract_y
_atom_site_fract_z
_atom_type_partial_charge
O0 O 0.71158 0.02253 0.12565 0.0
Cd1 Cd 0.70457 0.04763 0.06333 0.0
Cd2 Cd 0.65271 0.0403 0.10597 0.0
O3 O 0.67265 1.01777 0.16295 0.0
O4 O 0.74034 0.04809 0.03105 0.0
O5 O 0.70558 0.03528 0.98542 0.0
C6 C 0.73059 0.03852 0.98743 0.0
C7 C 0.61035 0.02914 0.07541 0.0
C8 C 0.6972 1.01355 0.1631 0.0
C9 C 0.67796 0.09449 0.10976 0.0
O10 O 0.65811 0.07985 0.11627 0.0
O11 O 0.6989 0.08569 0.08895 0.0
O12 O 0.61463 0.03666 0.12427 0.0
O13 O 0.63038 0.02662 0.04407 0.0
O14 O 0.51406 0.71078 0.1282 0.0
Cd15 Cd 0.49023 0.70491 0.06314 0.0
Cd16 Cd 0.49373 0.65214 0.10111 0.0
O17 O 0.5144 0.67087 0.16268 0.0
O18 O 0.49016 0.74033 0.02903 0.0
O19 O 0.50567 0.70546 0.98771 0.0
C20 C 0.5015 0.73034 0.98752 0.0
C21 C 0.50487 0.60957 0.07174 0.0
C22 C 0.52035 0.69505 0.16566 0.0
C23 C 0.44089 0.67891 0.10205 0.0
O24 O 0.45412 0.65803 0.10651 0.0
O25 O 0.45146 0.69991 0.08526 0.0
O26 O 0.4958 0.61392 0.11938 0.0
O27 O 0.50892 0.6296 0.04108 0.0
O28 O 0.8264 0.51071 0.10761 0.0
Cd29 Cd 0.83662 0.48836 0.04284 0.0
Cd30 Cd 0.88636 0.49679 0.09074 0.0
O31 O 0.86454 0.51817 0.14665 0.0
O32 O 0.80254 0.48656 0.0038 0.0
O33 O 0.83764 0.50478 0.96826 0.0
C34 C 0.81308 0.49923 0.96452 0.0
C35 C 0.92858 0.50918 0.06177 0.0
C36 C 0.83971 0.52039 0.146 0.0
C37 C 0.86354 0.44164 0.08846 0.0
O38 O 0.8822 0.45708 0.10005 0.0
O39 O 0.84332 0.44982 0.06389 0.0
O40 O 0.9241 0.50174 0.11064 0.0
O41 O 0.90874 0.51112 0.02969 0.0
O42 O 0.02722 0.82123 0.10721 0.0
Cd43 Cd 0.05026 0.83372 0.04522 0.0
Cd44 Cd 0.03609 0.88185 0.09115 0.0
O45 O 1.01319 0.85846 0.14168 0.0
O46 O 0.05529 0.80047 0.00449 0.0
O47 O 0.03471 0.83448 0.97001 0.0
C48 C 0.04204 0.81044 0.9654 0.0
C49 C 0.02263 0.92246 0.05596 0.0
C50 C 1.01391 0.83354 0.14213 0.0
C51 C 0.09277 0.86401 0.09842 0.0
O52 O 0.07521 0.88066 0.10977 0.0
O53 O 0.08751 0.84387 0.07032 0.0
O54 O 0.02634 0.91906 0.107 0.0
O55 O 0.02506 0.90232 0.02484 0.0
O56 O 0.21495 1.00771 0.38116 0.0
Cd57 Cd 0.20196 0.98499 0.44324 0.0
Cd58 Cd 0.15425 0.99916 0.39639 0.0
O59 O 0.17792 0.02141 0.34521 0.0
O60 O 0.23493 0.98004 0.4849 0.0
O61 O 0.2007 1.00062 0.51834 0.0
C62 C 0.22471 0.99329 0.52368 0.0
C63 C 0.11372 1.01319 0.4309 0.0
C64 C 0.20283 0.02067 0.34537 0.0
C65 C 0.17167 0.94235 0.39051 0.0
O66 O 0.15508 0.95992 0.3789 0.0
O67 O 0.19186 0.94767 0.41844 0.0
O68 O 0.11714 1.00904 0.38002 0.0
O69 O 0.13383 1.01091 0.46218 0.0
O70 O 0.5318 0.21361 0.38145 0.0
Cd71 Cd 0.55388 0.20129 0.44502 0.0
Cd72 Cd 0.54132 0.15316 0.39782 0.0
O73 O 0.51919 0.1762 0.34534 0.0
O74 O 0.55754 0.23444 0.48667 0.0
O75 O 0.53713 0.19978 0.51909 0.0
C76 C 0.5439 0.22397 0.52466 0.0
C77 C 0.5275 0.11256 0.43263 0.0
C78 C 0.51945 0.20112 0.34524 0.0
C79 C 0.59787 0.17188 0.39536 0.0
O80 O 0.5808 0.15489 0.38264 0.0
O81 O 0.59175 0.19196 0.42284 0.0
O82 O 0.53218 0.11577 0.38188 0.0
O83 O 0.52917 0.13287 0.46353 0.0
O84 O 0.32615 0.53229 0.3691 0.0
Cd85 Cd 0.33684 0.55459 0.4337 0.0
Cd86 Cd 0.38638 0.54509 0.3858 0.0
O87 O 0.36413 0.52356 0.33071 0.0
O88 O 0.30297 0.5567 0.47339 0.0
O89 O 0.33795 0.53794 0.50802 0.0
C90 C 0.31347 0.54371 0.51224 0.0
C91 C 0.42841 0.53229 0.41483 0.0
C92 C 0.33926 0.52192 0.33126 0.0
C93 C 0.36471 0.60071 0.38762 0.0
O94 O 0.38289 0.58483 0.37573 0.0
O95 O 0.3444 0.59304 0.41265 0.0
O96 O 0.42399 0.53954 0.36582 0.0
O97 O 0.4086 0.53079 0.44706 0.0
O98 O 1.00256 0.32104 0.37048 0.0
Cd99 Cd 0.97949 0.33318 0.43262 0.0
Cd100 Cd 0.99297 0.3815 0.38666 0.0
O101 O 1.0159 0.35849 0.33565 0.0
O102 O 0.97481 0.2998 0.47313 0.0
O103 O 0.99503 0.33403 0.50786 0.0
C104 C 0.98793 0.30989 0.51231 0.0
C105 C 1.00617 0.42224 0.42191 0.0
C106 C 1.01552 0.33357 0.33526 0.0
C107 C 0.93649 0.36277 0.37981 0.0
O108 O 0.9538 0.37976 0.3685 0.0
O109 O 0.94208 0.34267 0.40771 0.0
O110 O 1.00232 0.41887 0.3709 0.0
O111 O 1.00402 0.40202 0.45294 0.0
O112 O 0.32415 1.00395 0.88244 0.0
Cd113 Cd 0.33663 0.98201 0.9461 0.0
Cd114 Cd 0.38462 0.99453 0.89855 0.0
O115 O 0.3615 1.01656 0.84604 0.0
O116 O 0.30359 0.97846 0.98811 0.0
O117 O 0.33833 0.99892 0.02 0.0
C118 C 0.31415 0.99219 0.02586 0.0
C119 C 0.42523 1.00848 0.93308 0.0
C120 C 0.33658 1.01626 0.84607 0.0
C121 C 0.36596 0.93796 0.89659 0.0
O122 O 0.38292 0.95503 0.88365 0.0
O123 O 0.34593 0.94411 0.92417 0.0
O124 O 0.42197 1.00371 0.88237 0.0
O125 O 0.40496 1.00681 0.96409 0.0
O126 O 0.52884 0.32304 0.8804 0.0
Cd127 Cd 0.5516 0.33562 0.94278 0.0
Cd128 Cd 0.53824 0.38362 0.89601 0.0
O129 O 0.51585 0.36031 0.84438 0.0
O130 O 0.55608 0.30248 0.98412 0.0
O131 O 0.53587 0.33687 0.01782 0.0
C132 C 0.54291 0.31276 0.02294 0.0
C133 C 0.5246 0.42425 0.93066 0.0
C134 C 0.51621 0.33538 0.84446 0.0
C135 C 0.5948 0.36539 0.89066 0.0
O136 O 0.57752 0.38228 0.87901 0.0
O137 O 0.5891 0.34523 0.91837 0.0
O138 O 0.52886 0.42088 0.8798 0.0
O139 O 0.52656 0.40406 0.96181 0.0
O140 O 0.21524 0.53123 0.86875 0.0
Cd141 Cd 0.20314 0.55432 0.9309 0.0
Cd142 Cd 0.15478 0.54087 0.885 0.0
O143 O 0.17777 0.51796 0.83387 0.0
O144 O 0.23655 0.55902 0.97129 0.0
O145 O 0.20233 0.53883 0.0062 0.0
C146 C 0.22648 0.54594 0.01057 0.0
C147 C 0.11407 0.52771 0.92043 0.0
C148 C 0.20269 0.51831 0.83349 0.0
C149 C 0.17352 0.59734 0.87814 0.0
O150 O 0.15652 0.58004 0.86687 0.0
O151 O 0.19365 0.59173 0.90597 0.0
O152 O 0.11739 0.53155 0.8694 0.0
O153 O 0.13432 0.52983 0.95136 0.0
O154 O 1.00237 0.2102 0.87057 0.0
Cd155 Cd 0.97997 0.19954 0.93502 0.0
Cd156 Cd 0.98928 0.15 0.88711 0.0
O157 O 1.01085 0.1722 0.832 0.0
O158 O 0.97788 0.23342 0.97465 0.0
O159 O 0.99646 0.1984 0.00949 0.0
C160 C 0.99074 0.22289 0.01363 0.0
C161 C 1.00205 0.10795 0.91607 0.0
C162 C 1.01264 0.19707 0.83263 0.0
C163 C 0.93377 0.17188 0.88869 0.0
O164 O 0.94956 0.1536 0.87699 0.0
O165 O 0.94153 0.19217 0.91369 0.0
O166 O 0.99478 0.11239 0.86709 0.0
O167 O 1.00357 0.12775 0.94833 0.0
O168 O 0.82739 0.02298 0.62727 0.0
Cd169 Cd 0.83291 0.04684 0.5621 0.0
Cd170 Cd 0.88564 0.0445 0.60001 0.0
O171 O 0.8672 0.02399 0.66217 0.0
O172 O 0.79744 0.04639 0.52822 0.0
O173 O 0.83248 0.03146 0.48659 0.0
C174 C 0.80754 0.03528 0.48656 0.0
C175 C 0.92831 0.03358 0.57086 0.0
C176 C 0.84318 1.01744 0.66513 0.0
C177 C 0.85803 0.09679 0.60045 0.0
O178 O 0.87924 0.08406 0.6045 0.0
O179 O 0.83721 0.08569 0.58418 0.0
O180 O 0.92388 0.04294 0.61824 0.0
O181 O 0.9083 0.02917 0.54033 0.0
O182 O 0.51556 0.82652 0.62669 0.0
Cd183 Cd 0.49043 0.83321 0.56426 0.0
Cd184 Cd 0.49679 0.8851 0.60676 0.0
O185 O 0.51923 0.86548 0.66437 0.0
O186 O 0.49049 0.79743 0.53198 0.0
O187 O 0.50276 0.83238 0.48632 0.0
C188 C 0.49987 0.80733 0.48831 0.0
C189 C 0.50766 0.92752 0.57606 0.0
C190 C 0.52396 0.84102 0.6645 0.0
C191 C 0.44303 0.8591 0.61019 0.0
O192 O 0.45726 0.87927 0.61641 0.0
O193 O 0.45227 0.83826 0.58983 0.0
O194 O 0.49996 0.92326 0.62481 0.0
O195 O 0.51051 0.90745 0.54494 0.0
O196 O 0.71509 0.50885 0.60717 0.0
Cd197 Cd 0.70294 0.48572 0.54504 0.0
Cd198 Cd 0.65456 0.49946 0.59071 0.0
O199 O 0.67769 0.52252 0.64145 0.0
O200 O 0.73633 0.48092 0.5047 0.0
O201 O 0.70228 0.50128 0.46983 0.0
C202 C 0.72638 0.49411 0.46549 0.0
C203 C 0.61387 0.51259 0.55541 0.0
C204 C 0.70261 0.52202 0.64205 0.0
C205 C 0.67291 0.44293 0.59798 0.0
O206 O 0.65609 0.46033 0.60923 0.0
O207 O 0.69306 0.44838 0.57003 0.0
O208 O 0.61725 0.50887 0.60645 0.0
O209 O 0.63405 0.51037 0.52437 0.0
O210 O 0.02575 0.71006 0.6075 0.0
Cd211 Cd 0.04787 0.69939 0.54271 0.0
Cd212 Cd 0.0387 0.64989 0.59098 0.0
O213 O 1.01757 0.6721 0.64666 0.0
O214 O 0.05 0.7333 0.50316 0.0
O215 O 0.03129 0.69829 0.46831 0.0
C216 C 0.0371 0.72278 0.46417 0.0
C217 C 0.02581 0.60778 0.56231 0.0
C218 C 1.01578 0.69696 0.64589 0.0
C219 C 0.09419 0.67187 0.58835 0.0
O220 O 0.07845 0.65352 0.60027 0.0
O221 O 0.08634 0.69216 0.56355 0.0
O222 O 0.03326 0.61225 0.61117 0.0
O223 O 0.02413 0.62758 0.53007 0.0
H224 H 0.63146 0.13098 0.3912 0.0
H225 H 0.61896 0.2091 0.33113 0.0
H226 H 0.66229 0.12276 0.31786 0.0
H227 H 0.64893 0.20045 0.25599 0.0
H228 H 0.64057 0.13211 0.11022 0.0
H229 H 0.63203 0.16132 0.18614 0.0
H230 H 0.70544 0.13916 0.2585 0.0
H231 H 0.71455 0.1108 0.18113 0.0
C232 C 0.63638 0.14681 0.36388 0.0
C233 C 0.62305 0.17067 0.36686 0.0
C234 C 0.65399 0.14214 0.32185 0.0
C235 C 0.65786 0.16099 0.28125 0.0
C236 C 0.64642 0.18575 0.28709 0.0
C237 C 0.62941 0.1907 0.33021 0.0
C238 C 0.65561 0.1348 0.14058 0.0
C239 C 0.67819 0.11928 0.13989 0.0
C240 C 0.65073 0.15147 0.18413 0.0
C241 C 0.66802 0.15226 0.22827 0.0
C242 C 0.69193 0.13896 0.22477 0.0
C243 C 0.69718 0.12288 0.18032 0.0
H244 H 0.32679 0.62062 0.32365 0.0
H245 H 0.40431 0.63608 0.38436 0.0
H246 H 0.33472 0.65051 0.24806 0.0
H247 H 0.41182 0.66676 0.31045 0.0
H248 H 0.4022 0.64233 0.10254 0.0
H249 H 0.37284 0.63461 0.17855 0.0
H250 H 0.39624 0.70812 0.24915 0.0
H251 H 0.42485 0.71637 0.17185 0.0
C252 C 0.34485 0.63171 0.32281 0.0
C253 C 0.36499 0.62611 0.3597 0.0
C254 C 0.34942 0.64867 0.27937 0.0
C255 C 0.37389 0.66082 0.27336 0.0
C256 C 0.39267 0.65787 0.31441 0.0
C257 C 0.3884 0.64035 0.35683 0.0
C258 C 0.39979 0.65759 0.13251 0.0
C259 C 0.41585 0.67985 0.13147 0.0
C260 C 0.38301 0.65318 0.17615 0.0
C261 C 0.38256 0.67066 0.21997 0.0
C262 C 0.39622 0.69441 0.21578 0.0
C263 C 0.41246 0.69916 0.17131 0.0
H264 H 0.90202 0.40519 0.09283 0.0
H265 H 0.82505 0.42334 0.15298 0.0
H266 H 0.90877 0.37536 0.16857 0.0
H267 H 0.83233 0.39443 0.23036 0.0
H268 H 0.91744 0.32572 0.31277 0.0
H269 H 0.88963 0.33459 0.23425 0.0
H270 H 0.87381 0.41176 0.29619 0.0
H271 H 0.90258 0.40337 0.37302 0.0
C272 C 0.88603 0.40166 0.12062 0.0
C273 C 0.86303 0.41644 0.11708 0.0
C274 C 0.88987 0.38465 0.16407 0.0
C275 C 0.8711 0.3828 0.20537 0.0
C276 C 0.84696 0.39541 0.19878 0.0
C277 C 0.84278 0.41181 0.15432 0.0
C278 C 0.90685 0.34403 0.31103 0.0
C279 C 0.912 0.36389 0.34885 0.0
C280 C 0.89108 0.34911 0.26599 0.0
C281 C 0.87964 0.37381 0.25933 0.0
C282 C 0.88215 0.39243 0.3008 0.0
C283 C 0.89855 0.38766 0.34483 0.0
H284 H 0.11221 0.82747 0.16602 0.0
H285 H 0.12625 0.90512 0.1045 0.0
H286 H 0.14042 0.83683 0.24379 0.0
H287 H 0.15546 0.91398 0.18057 0.0
H288 H 0.13053 0.9089 0.38496 0.0
H289 H 0.12142 0.87979 0.30889 0.0
H290 H 0.19848 0.89466 0.2451 0.0
H291 H 0.20809 0.92277 0.32287 0.0
C292 C 0.12268 0.8459 0.16733 0.0
C293 C 0.11726 0.86558 0.12931 0.0
C294 C 0.13866 0.85126 0.21193 0.0
C295 C 0.15006 0.87606 0.21789 0.0
C296 C 0.14715 0.89459 0.17639 0.0
C297 C 0.13052 0.88953 0.13282 0.0
C298 C 0.14605 0.9046 0.35653 0.0
C299 C 0.17004 0.9178 0.35987 0.0
C300 C 0.14086 0.88803 0.31295 0.0
C301 C 0.15929 0.88512 0.27128 0.0
C302 C 0.18414 0.89642 0.2771 0.0
C303 C 0.18964 0.91234 0.32171 0.0
H304 H 0.3286 0.91675 0.83292 0.0
H305 H 0.40691 0.90442 0.89206 0.0
H306 H 0.33713 0.88687 0.75759 0.0
H307 H 0.41502 0.87368 0.81851 0.0
H308 H 0.42726 0.82213 0.68127 0.0
H309 H 0.39896 0.83074 0.75894 0.0
H310 H 0.37571 0.904 0.68735 0.0
H311 H 0.40485 0.89596 0.61108 0.0
C312 C 0.34703 0.90635 0.83177 0.0
C313 C 0.36714 0.91275 0.86819 0.0
C314 C 0.35191 0.88939 0.78853 0.0
C315 C 0.37669 0.87805 0.78233 0.0
C316 C 0.39562 0.88192 0.82276 0.0
C317 C 0.39102 0.89947 0.86492 0.0
C318 C 0.41496 0.83935 0.68068 0.0
C319 C 0.41824 0.85847 0.64038 0.0
C320 C 0.3989 0.84431 0.7253 0.0
C321 C 0.38533 0.86806 0.72914 0.0
C322 C 0.38579 0.88542 0.6851 0.0
C323 C 0.40242 0.88083 0.64135 0.0
H324 H 0.70963 0.42381 0.66556 0.0
H325 H 0.63207 0.40913 0.60422 0.0
H326 H 0.70044 0.39575 0.74364 0.0
H327 H 0.62338 0.38008 0.68062 0.0
H328 H 0.6141 0.32854 0.82369 0.0
H329 H 0.64231 0.33762 0.74584 0.0
H330 H 0.65793 0.41473 0.80861 0.0
H331 H 0.62873 0.40614 0.88478 0.0
C332 C 0.69127 0.41322 0.66697 0.0
C333 C 0.67154 0.41844 0.62893 0.0
C334 C 0.68601 0.39733 0.71176 0.0
C335 C 0.66127 0.38582 0.7179 0.0
C336 C 0.64274 0.38848 0.67634 0.0
C337 C 0.64768 0.40503 0.63257 0.0
C338 C 0.62471 0.34688 0.82231 0.0
C339 C 0.61942 0.36666 0.86018 0.0
C340 C 0.6407 0.35208 0.77765 0.0
C341 C 0.65222 0.37681 0.77148 0.0
C342 C 0.64951 0.39539 0.81293 0.0
C343 C 0.63288 0.39049 0.85657 0.0
H344 H 0.11307 0.70993 0.65321 0.0
H345 H 0.13018 0.63294 0.59183 0.0
H346 H 0.1421 0.70208 0.73017 0.0
H347 H 0.16014 0.62562 0.66715 0.0
H348 H 0.133 0.63134 0.87202 0.0
H349 H 0.12449 0.66034 0.79559 0.0
H350 H 0.20142 0.64439 0.73253 0.0
H351 H 0.21042 0.61636 0.81067 0.0
C352 C 0.1244 0.69206 0.65419 0.0
C353 C 0.11946 0.67199 0.61672 0.0
C354 C 0.14087 0.68755 0.69841 0.0
C355 C 0.15322 0.66326 0.70451 0.0
C356 C 0.15105 0.64463 0.663 0.0
C357 C 0.13397 0.64881 0.61979 0.0
C358 C 0.14864 0.63538 0.84367 0.0
C359 C 0.17238 0.62186 0.84728 0.0
C360 C 0.1438 0.65191 0.79987 0.0
C361 C 0.16232 0.65447 0.75823 0.0
C362 C 0.18699 0.64291 0.76443 0.0
C363 C 0.19214 0.62701 0.80925 0.0
H364 H 0.89836 0.13235 0.88405 0.0
H365 H 0.91409 0.21018 0.82532 0.0
H366 H 0.86809 0.12519 0.80933 0.0
H367 H 0.8846 0.20261 0.74893 0.0
H368 H 0.81987 0.11224 0.66926 0.0
H369 H 0.82727 0.14067 0.74715 0.0
H370 H 0.90096 0.16515 0.67899 0.0
H371 H 0.89408 0.136 0.60233 0.0
C372 C 0.89423 0.1484 0.85678 0.0
C373 C 0.90846 0.17179 0.86042 0.0
C374 C 0.87693 0.14433 0.81388 0.0
C375 C 0.87421 0.16331 0.77314 0.0
C376 C 0.88628 0.18777 0.77997 0.0
C377 C 0.90301 0.19212 0.82388 0.0
C378 C 0.83693 0.12482 0.66935 0.0
C379 C 0.85656 0.12176 0.63005 0.0
C380 C 0.8412 0.14097 0.71418 0.0
C381 C 0.86477 0.15485 0.71928 0.0
C382 C 0.88253 0.15478 0.67592 0.0
C383 C 0.8786 0.13812 0.6319 0.0
H384 H 0.71787 0.03094 0.88097 0.0
H385 H 0.7825 0.02771 0.99293 0.0
H386 H 0.74721 0.01939 0.80716 0.0
H387 H 0.81159 1.01465 0.92019 0.0
H388 H 0.85994 0.03074 0.76575 0.0
H389 H 0.83311 0.03204 0.84647 0.0
H390 H 0.77278 0.98811 0.76393 0.0
H391 H 0.79927 0.98822 0.68208 0.0
C392 C 0.7383 0.02741 0.88985 0.0
C393 C 0.74794 0.03059 0.94251 0.0
C394 C 0.75515 0.02046 0.84765 0.0
C395 C 0.78197 1.016 0.85738 0.0
C396 C 0.79129 0.0184 0.91065 0.0
C397 C 0.77456 0.02585 0.95251 0.0
C398 C 0.84137 0.02051 0.76544 0.0
C399 C 0.83163 1.00957 0.71744 0.0
C400 C 0.8258 0.02134 0.81187 0.0
C401 C 0.80032 1.01078 0.81163 0.0
C402 C 0.79186 0.99728 0.76521 0.0
C403 C 0.80724 0.9969 0.7185 0.0
H404 H 0.5404 0.79065 0.67367 0.0
H405 H 0.52798 0.86065 0.76774 0.0
H406 H 0.53959 0.76462 0.75505 0.0
H407 H 0.52883 0.83464 0.85038 0.0
H408 H 0.48426 0.77924 0.96365 0.0
H409 H 0.49773 0.80744 0.88987 0.0
H410 H 0.55315 0.74886 0.83763 0.0
H411 H 0.53838 0.72004 0.91016 0.0
C412 C 0.53854 0.80067 0.71207 0.0
C413 C 0.53354 0.8277 0.71396 0.0
C414 C 0.53817 0.78563 0.75914 0.0
C415 C 0.53327 0.7973 0.80959 0.0
C416 C 0.53164 0.8248 0.81208 0.0
C417 C 0.53165 0.83986 0.76471 0.0
C418 C 0.49931 0.77238 0.93635 0.0
C419 C 0.51002 0.74729 0.94229 0.0
C420 C 0.50738 0.78875 0.89432 0.0
C421 C 0.52675 0.78068 0.85753 0.0
C422 C 0.53792 0.75572 0.86444 0.0
C423 C 0.52947 0.73913 0.90603 0.0
H424 H 0.82622 0.53363 0.88367 0.0
H425 H 0.76312 0.48482 0.9413 0.0
H426 H 0.7986 0.54861 0.80921 0.0
H427 H 0.73598 0.49892 0.86646 0.0
H428 H 0.6848 0.53236 0.74452 0.0
H429 H 0.71167 0.53325 0.82609 0.0
H430 H 0.78142 0.53203 0.72754 0.0
H431 H 0.75471 0.53231 0.64672 0.0
C432 C 0.80653 0.52599 0.88025 0.0
C433 C 0.79694 0.50789 0.91814 0.0
C434 C 0.79065 0.53461 0.83766 0.0
C435 C 0.76491 0.52517 0.83184 0.0
C436 C 0.7554 0.5072 0.87017 0.0
C437 C 0.77115 0.49878 0.91281 0.0
C438 C 0.70585 0.53343 0.74034 0.0
C439 C 0.71761 0.53175 0.68918 0.0
C440 C 0.7213 0.5335 0.78712 0.0
C441 C 0.74876 0.53182 0.78354 0.0
C442 C 0.76042 0.53322 0.73219 0.0
C443 C 0.74502 0.53331 0.68562 0.0
H444 H 1.00523 0.82098 0.88777 0.0
H445 H 0.06058 0.76232 0.93882 0.0
H446 H 0.99046 0.7922 0.81503 0.0
H447 H 0.04666 0.73405 0.86545 0.0
H448 H 1.00259 0.74839 0.65156 0.0
H449 H 1.00492 0.77572 0.73132 0.0
H450 H 1.01287 0.70685 0.83124 0.0
H451 H 1.01172 0.67943 0.75053 0.0
C452 C 1.01443 0.80207 0.88309 0.0
C453 C 0.03418 0.794 0.91884 0.0
C454 C 1.00593 0.7855 0.8415 0.0
C455 C 1.01714 0.7606 0.83449 0.0
C456 C 0.03701 0.75273 0.87027 0.0
C457 C 0.04531 0.76914 0.91199 0.0
C458 C 1.00409 0.73896 0.69067 0.0
C459 C 1.00754 0.71173 0.69452 0.0
C460 C 1.00537 0.75472 0.73665 0.0
C461 C 1.00987 0.74361 0.78777 0.0
C462 C 1.01024 0.71613 0.79227 0.0
C463 C 1.00912 0.70033 0.74607 0.0
H464 H 0.21262 0.0282 0.60414 0.0
H465 H 0.2736 0.97639 0.54897 0.0
H466 H 0.24063 0.04246 0.67867 0.0
H467 H 0.30113 0.98991 0.62379 0.0
H468 H 0.28454 0.0268 0.84162 0.0
H469 H 0.25743 0.02578 0.7613 0.0
H470 H 0.32672 0.02453 0.66141 0.0
H471 H 0.35398 0.02451 0.74247 0.0
C472 C 0.2319 0.01971 0.60817 0.0
C473 C 0.2408 1.00104 0.57084 0.0
C474 C 0.248 0.02793 0.65077 0.0
C475 C 0.27332 1.01757 0.65707 0.0
C476 C 0.28208 0.99888 0.61959 0.0
C477 C 0.26609 0.9908 0.57701 0.0
C478 C 0.29406 0.02709 0.80249 0.0
C479 C 0.32143 0.02518 0.79849 0.0
C480 C 0.27844 0.02656 0.75624 0.0
C481 C 0.28983 0.02432 0.70479 0.0
C482 C 0.31729 0.02547 0.70055 0.0
C483 C 0.33297 0.02589 0.747 0.0
H484 H 0.50807 0.21118 0.60305 0.0
H485 H 0.55942 0.27331 0.55048 0.0
H486 H 0.49223 0.23895 0.6765 0.0
H487 H 0.54433 0.30061 0.62423 0.0
H488 H 0.50801 0.35272 0.74086 0.0
H489 H 0.50885 0.32545 0.65992 0.0
H490 H 0.5075 0.25617 0.75994 0.0
H491 H 0.5056 0.2833 0.84014 0.0
C492 C 0.51612 0.23066 0.60742 0.0
C493 C 0.53513 0.23996 0.57116 0.0
C494 C 0.50698 0.24663 0.64939 0.0
C495 C 0.51676 0.27219 0.65611 0.0
C496 C 0.53579 0.28135 0.61965 0.0
C497 C 0.54476 0.2655 0.5777 0.0
C498 C 0.50673 0.3317 0.74542 0.0
C499 C 0.50724 0.32019 0.79695 0.0
C500 C 0.50767 0.31601 0.69904 0.0
C501 C 0.50914 0.28857 0.7034 0.0
C502 C 0.50652 0.27716 0.75479 0.0
C503 C 0.50547 0.2928 0.80098 0.0
H504 H 0.26372 0.55826 0.53635 0.0
H505 H 0.32642 0.50864 0.5919 0.0
H506 H 0.23649 0.54356 0.61061 0.0
H507 H 0.29871 0.49307 0.66578 0.0
H508 H 0.25471 0.50777 0.82881 0.0
H509 H 0.28154 0.50882 0.74818 0.0
H510 H 0.21191 0.50879 0.64915 0.0
H511 H 0.18493 0.50889 0.73055 0.0
C512 C 0.27164 0.54402 0.56428 0.0
C513 C 0.29735 0.53483 0.5585 0.0
C514 C 0.25584 0.53525 0.60656 0.0
C515 C 0.2652 0.51685 0.64411 0.0
C516 C 0.29087 0.50738 0.63792 0.0
C517 C 0.3068 0.51635 0.59567 0.0
C518 C 0.24507 0.50718 0.78981 0.0
C519 C 0.21767 0.50886 0.78614 0.0
C520 C 0.26053 0.50772 0.74335 0.0
C521 C 0.24895 0.5097 0.692 0.0
C522 C 0.22149 0.50811 0.68817 0.0
C523 C 0.20597 0.50772 0.73483 0.0
H524 H 0.02443 0.32082 0.59043 0.0
H525 H 0.96974 0.26151 0.5385 0.0
H526 H 0.03909 0.29221 0.66351 0.0
H527 H 0.98354 0.23343 0.61215 0.0
H528 H 0.02587 0.24854 0.82705 0.0
H529 H 0.02419 0.27572 0.74698 0.0
H530 H 1.01728 0.20662 0.64738 0.0
H531 H 1.01776 0.17935 0.72837 0.0
C532 C 1.01536 0.3018 0.59496 0.0
C533 C 0.99581 0.29351 0.5589 0.0
C534 C 0.02381 0.28534 0.63674 0.0
C535 C 1.01273 0.26031 0.64361 0.0
C536 C 0.99309 0.2522 0.60746 0.0
C537 C 0.98485 0.26851 0.56557 0.0
C538 C 0.02474 0.23904 0.78797 0.0
C539 C 0.02134 0.21178 0.78423 0.0
C540 C 0.02384 0.2547 0.74181 0.0
C541 C 0.01979 0.24347 0.69065 0.0
C542 C 0.01955 0.21599 0.68636 0.0
C543 C 0.02028 0.20027 0.73274 0.0
H544 H 0.18573 0.02939 0.24181 0.0
H545 H 0.25505 0.03061 0.34145 0.0
H546 H 0.21309 0.02837 0.16099 0.0
H547 H 0.28225 0.02858 0.26134 0.0
H548 H 0.26467 0.97715 0.05168 0.0
H549 H 0.23752 0.99248 0.12544 0.0
H550 H 0.2997 0.04389 0.17789 0.0
H551 H 0.32731 0.02783 0.10437 0.0
C552 C 0.20676 0.03038 0.24648 0.0
C553 C 0.2182 0.02958 0.29806 0.0
C554 C 0.22249 0.02935 0.20017 0.0
C555 C 0.24989 0.0275 0.20465 0.0
C556 C 0.26128 0.02985 0.25611 0.0
C557 C 0.24561 0.03097 0.30224 0.0
C558 C 0.27262 0.99171 0.07893 0.0
C559 C 0.29826 1.00109 0.0724 0.0
C560 C 0.25686 1.00083 0.12088 0.0
C561 C 0.26621 0.01974 0.15738 0.0
C562 C 0.29188 0.02925 0.15072 0.0
C563 C 0.30775 0.01999 0.10872 0.0
H564 H 0.50882 0.25314 0.34062 0.0
H565 H 0.51113 0.18361 0.24175 0.0
H566 H 0.50986 0.28018 0.2602 0.0
H567 H 0.51111 0.21079 0.16058 0.0
H568 H 0.50792 0.32498 0.10317 0.0
H569 H 0.49341 0.297 0.17756 0.0
H570 H 0.54572 0.23625 0.12285 0.0
H571 H 0.55947 0.26375 0.04814 0.0
C572 C 0.50853 0.24358 0.30153 0.0
C573 C 0.51046 0.21621 0.29763 0.0
C574 C 0.50907 0.25917 0.25521 0.0
C575 C 0.51134 0.24773 0.2038 0.0
C576 C 0.51016 0.22026 0.19968 0.0
C577 C 0.50974 0.20463 0.24619 0.0
C578 C 0.5163 0.30565 0.1072 0.0
C579 C 0.53497 0.29666 0.06997 0.0
C580 C 0.50793 0.28957 0.14973 0.0
C581 C 0.51817 0.2642 0.15606 0.0
C582 C 0.53685 0.25534 0.11864 0.0
C583 C 0.54505 0.27131 0.07611 0.0
H584 H 0.28776 0.50883 0.32573 0.0
H585 H 0.35698 0.51657 0.22704 0.0
H586 H 0.26061 0.51032 0.24561 0.0
H587 H 0.32974 0.51686 0.14602 0.0
H588 H 0.21554 0.50963 0.08908 0.0
H589 H 0.24413 0.49515 0.16234 0.0
H590 H 0.30296 0.5505 0.11028 0.0
H591 H 0.27489 0.56413 0.03646 0.0
C592 C 0.29727 0.50985 0.28665 0.0
C593 C 0.32453 0.51318 0.2829 0.0
C594 C 0.28162 0.51064 0.24047 0.0
C595 C 0.29287 0.51451 0.18927 0.0
C596 C 0.32036 0.51471 0.18501 0.0
C597 C 0.33606 0.5141 0.23142 0.0
C598 C 0.23457 0.5187 0.09349 0.0
C599 C 0.24287 0.53815 0.0572 0.0
C600 C 0.25102 0.51035 0.13537 0.0
C601 C 0.27605 0.52144 0.14212 0.0
C602 C 0.28418 0.54096 0.1057 0.0
C603 C 0.26788 0.54909 0.06372 0.0
H604 H 0.97622 0.27267 0.03759 0.0
H605 H 0.02559 0.20987 0.09365 0.0
H606 H 0.99077 0.29987 0.11204 0.0
H607 H 0.04101 0.23755 0.16772 0.0
H608 H 0.02593 0.28152 0.33062 0.0
H609 H 0.02505 0.25472 0.24995 0.0
H610 H 0.02547 0.32438 0.151 0.0
H611 H 0.0252 0.35133 0.23243 0.0
C612 C 0.99038 0.26472 0.06567 0.0
C613 C 0.99954 0.239 0.05999 0.0
C614 C 0.99906 0.2805 0.10807 0.0
C615 C 1.01734 0.2711 0.14581 0.0
C616 C 0.02678 0.24541 0.13971 0.0
C617 C 1.01791 0.2295 0.09735 0.0
C618 C 0.02664 0.29117 0.29164 0.0
C619 C 0.02502 0.31858 0.28798 0.0
C620 C 0.0262 0.27573 0.24515 0.0
C621 C 0.02438 0.28733 0.1938 0.0
C622 C 0.02603 0.31479 0.19001 0.0
C623 C 0.02632 0.33029 0.2367 0.0
H624 H 0.6776 1.0084 0.26614 0.0
H625 H 0.7478 0.99781 0.17178 0.0
H626 H 0.70358 1.00722 0.34879 0.0
H627 H 0.77378 0.99828 0.25323 0.0
H628 H 0.81833 0.99898 0.40829 0.0
H629 H 0.7897 0.98425 0.33539 0.0
H630 H 0.73031 0.03842 0.38931 0.0
H631 H 0.75833 0.05183 0.4634 0.0
C632 C 0.69844 1.00506 0.26303 0.0
C633 C 0.71065 1.00379 0.21224 0.0
C634 C 0.71347 1.00487 0.31042 0.0
C635 C 0.741 1.00366 0.30792 0.0
C636 C 0.75275 0.99937 0.25733 0.0
C637 C 0.73775 0.99919 0.21022 0.0
C638 C 0.7991 1.00762 0.40447 0.0
C639 C 0.79067 0.02671 0.44126 0.0
C640 C 0.78263 0.99919 0.36267 0.0
C641 C 0.7575 1.01003 0.35609 0.0
C642 C 0.74914 0.02902 0.39346 0.0
C643 C 0.76541 0.03706 0.43568 0.0
H644 H 0.50675 0.82016 0.38171 0.0
H645 H 0.51159 0.75562 0.49365 0.0
H646 H 0.51829 0.79097 0.30764 0.0
H647 H 0.52464 0.72669 0.42061 0.0
H648 H 0.50806 0.6781 0.26668 0.0
H649 H 0.50704 0.70491 0.34746 0.0
H650 H 0.54955 0.7658 0.26348 0.0
H651 H 0.54912 0.73931 0.18163 0.0
C652 C 0.51065 0.79979 0.39052 0.0
C653 C 0.5079 0.79011 0.44327 0.0
C654 C 0.51758 0.78302 0.34817 0.0
C655 C 0.52247 0.75627 0.3578 0.0
C656 C 0.52055 0.74694 0.41115 0.0
C657 C 0.51311 0.76357 0.45318 0.0
C658 C 0.51804 0.69679 0.26605 0.0
C659 C 0.52848 0.70668 0.2177 0.0
C660 C 0.51738 0.71235 0.31251 0.0
C661 C 0.52761 0.73797 0.31192 0.0
C662 C 0.54063 0.7466 0.26506 0.0
C663 C 0.54084 0.73123 0.21834 0.0
H664 H 0.71605 0.53121 0.38838 0.0
H665 H 0.77443 0.47544 0.43877 0.0
H666 H 0.74491 0.54607 0.31587 0.0
H667 H 0.80276 0.48942 0.36555 0.0
H668 H 0.85746 0.52403 0.25055 0.0
H669 H 0.83016 0.52295 0.33142 0.0
H670 H 0.76124 0.53195 0.23204 0.0
H671 H 0.78848 0.53426 0.15216 0.0
C672 C 0.73492 0.52193 0.38359 0.0
C673 C 0.74288 0.50204 0.41908 0.0
C674 C 0.75152 0.53049 0.34212 0.0
C675 C 0.77637 0.51917 0.33494 0.0
C676 C 0.78414 0.49916 0.3705 0.0
C677 C 0.76769 0.49083 0.41212 0.0
C678 C 0.83659 0.52688 0.24626 0.0
C679 C 0.82513 0.52874 0.1948 0.0
C680 C 0.82084 0.52579 0.29255 0.0
C681 C 0.79337 0.52646 0.28823 0.0
C682 C 0.78224 0.53126 0.23725 0.0
C683 C 0.79794 0.53253 0.19119 0.0
H684 H 1.00343 0.85111 0.2447 0.0
H685 H 1.00399 0.78135 0.14642 0.0
H686 H 1.00271 0.8241 0.32609 0.0
H687 H 1.00439 0.75451 0.22709 0.0
H688 H 0.05151 0.77273 0.44082 0.0
H689 H 0.03734 0.79986 0.36603 0.0
H690 H 0.98771 0.73719 0.30883 0.0
H691 H 1.00272 0.70958 0.38331 0.0
C692 C 1.0025 0.83006 0.24037 0.0
C693 C 1.00428 0.81839 0.18913 0.0
C694 C 1.00253 0.81453 0.28704 0.0
C695 C 1.00437 0.78709 0.28327 0.0
C696 C 1.00306 0.7755 0.23185 0.0
C697 C 1.0029 0.79097 0.18538 0.0
C698 C 0.03755 0.76469 0.41235 0.0
C699 C 0.02845 0.73889 0.41774 0.0
C700 C 0.02909 0.78043 0.36975 0.0
C701 C 1.01111 0.77091 0.33148 0.0
C702 C 1.0017 0.74515 0.33728 0.0
C703 C 1.01035 0.72928 0.37987 0.0
H704 H 0.46947 0.02122 0.87695 0.0
H705 H 0.4413 1.00678 0.03869 0.0
H706 H 0.51374 0.02628 0.91155 0.0
H707 H 0.48574 1.01064 0.0733 0.0
H708 H 0.56494 0.04209 0.12653 0.0
H709 H 0.52049 0.03864 0.09265 0.0
H710 H 0.54945 1.00304 0.94595 0.0
H711 H 0.59415 1.00769 0.97918 0.0
C712 C 0.47274 0.01915 0.92 0.0
C713 C 0.45179 1.01369 0.95505 0.0
C714 C 0.49825 0.02176 0.93988 0.0
C715 C 0.50364 0.01864 0.99535 0.0
C716 C 0.48251 1.01356 0.03048 0.0
C717 C 0.45693 1.01128 0.01063 0.0
C718 C 0.56184 0.0334 0.08711 0.0
C719 C 0.58317 0.02515 0.0556 0.0
C720 C 0.53622 0.03129 0.06768 0.0
C721 C 0.53109 0.02058 0.01633 0.0
C722 C 0.55249 1.01189 0.98521 0.0
C723 C 0.57819 1.0143 0.00445 0.0
H724 H 0.51276 0.46863 0.87424 0.0
H725 H 0.52594 0.44032 0.03636 0.0
H726 H 0.50814 0.51295 0.90869 0.0
H727 H 0.52239 0.48481 0.07084 0.0
H728 H 0.49073 0.56427 0.1223 0.0
H729 H 0.49416 0.51977 0.08879 0.0
H730 H 0.53208 0.54835 0.94416 0.0
H731 H 0.5276 0.59311 0.97701 0.0
C732 C 0.51463 0.47186 0.91734 0.0
C733 C 0.51963 0.45086 0.95254 0.0
C734 C 0.51227 0.4974 0.93712 0.0
C735 C 0.51513 0.50275 0.99266 0.0
C736 C 0.51972 0.48159 0.02794 0.0
C737 C 0.52181 0.45598 0.00817 0.0
C738 C 0.49994 0.56109 0.08343 0.0
C739 C 0.50889 0.58234 0.05236 0.0
C740 C 0.50202 0.53544 0.06423 0.0
C741 C 0.51335 0.5302 0.01354 0.0
C742 C 0.52276 0.5515 0.9829 0.0
C743 C 0.52044 0.57723 0.00194 0.0
H744 H 0.94507 0.52977 0.96495 0.0
H745 H 0.97388 0.49761 0.11487 0.0
H746 H 0.98986 0.53413 0.93219 0.0
H747 H 0.01844 0.50078 0.08151 0.0
H748 H 0.09789 0.53131 0.02579 0.0
H749 H 0.05338 0.52831 0.06041 0.0
H750 H 0.02547 0.51012 0.89973 0.0
H751 H 0.0698 0.5143 0.86505 0.0
C752 C 0.96096 0.52364 0.99093 0.0
C753 C 0.95583 0.51344 0.0426 0.0
C754 C 0.98672 0.52587 0.97196 0.0
C755 C 1.00803 0.51764 0.00389 0.0
C756 C 1.00277 0.50772 0.05587 0.0
C757 C 0.97708 0.50579 0.07501 0.0
C758 C 0.08227 0.52644 -0.00201 0.0
C759 C 0.08745 0.52305 0.94265 0.0
C760 C 0.05664 0.52466 0.01784 0.0
C761 C 0.03553 0.51912 0.98297 0.0
C762 C 0.04096 0.51503 0.9278 0.0
C763 C 0.06651 0.51713 0.90791 0.0
H764 H 0.99131 0.06256 0.86245 0.0
H765 H 0.02254 0.09163 0.01306 0.0
H766 H 0.99503 1.018 0.89546 0.0
H767 H 0.02745 0.04684 0.0455 0.0
H768 H 1.00851 0.96636 0.1116 0.0
H769 H 1.00386 1.01071 0.0773 0.0
H770 H 0.02299 0.98353 0.91663 0.0
H771 H 0.02644 0.93898 0.95084 0.0
C772 C 0.9994 0.05942 0.90239 0.0
C773 C 1.00662 0.08074 0.9351 0.0
C774 C 1.00165 0.03373 0.92134 0.0
C775 C 1.01148 0.02853 0.9734 0.0
C776 C 0.01928 0.04993 0.00564 0.0
C777 C 1.01673 0.07568 0.98686 0.0
C778 C 1.01144 0.96982 0.06882 0.0
C779 C 1.01775 0.94906 0.03395 0.0
C780 C 1.00908 0.99538 0.04915 0.0
C781 C 1.01329 1.00102 0.99409 0.0
C782 C 0.01924 0.9801 0.9591 0.0
C783 C 0.02128 0.95445 0.97872 0.0
H784 H 0.09753 1.01208 0.53654 0.0
H785 H 0.06949 0.02524 0.37422 0.0
H786 H 0.053 1.0159 0.57077 0.0
H787 H 0.02515 0.03008 0.40841 0.0
H788 H 0.94489 1.01063 0.47647 0.0
H789 H 0.98969 1.00608 0.44389 0.0
H790 H 1.01809 0.04441 0.5882 0.0
H791 H 0.97354 0.04794 0.62143 0.0
C792 C 0.08192 1.01625 0.50825 0.0
C793 C 0.08712 0.01835 0.45263 0.0
C794 C 0.0563 0.0185 0.52788 0.0
C795 C 0.03521 0.02314 0.49245 0.0
C796 C 0.04064 0.02592 0.43694 0.0
C797 C 0.06619 0.02343 0.41731 0.0
C798 C 0.96074 1.01788 0.50138 0.0
C799 C 0.95556 0.02957 0.55163 0.0
C800 C 0.98649 1.01551 0.4825 0.0
C801 C 1.00774 0.025 0.51315 0.0
C802 C 1.00245 0.03649 0.56366 0.0
C803 C 0.97677 0.03863 0.58269 0.0
H804 H 0.49431 0.97294 0.62677 0.0
H805 H 0.52921 0.94373 0.47992 0.0
H806 H 0.49756 1.01736 0.59264 0.0
H807 H 0.53363 0.9884 0.44644 0.0
H808 H 0.51503 0.06816 0.37675 0.0
H809 H 0.51016 0.02392 0.41163 0.0
H810 H 0.52546 0.05224 0.57327 0.0
H811 H 0.52914 0.09665 0.53838 0.0
C812 C 0.50306 0.97603 0.58741 0.0
C813 C 0.51151 0.9547 0.55612 0.0
C814 C 0.50505 1.00163 0.56783 0.0
C815 C 0.51583 1.00675 0.51654 0.0
C816 C 0.52472 0.98537 0.48563 0.0
C817 C 0.52244 0.95968 0.50503 0.0
C818 C 0.51706 0.06497 0.41984 0.0
C819 C 0.52239 0.086 0.45477 0.0
C820 C 0.51456 0.03948 0.43987 0.0
C821 C 0.51765 0.03419 0.4954 0.0
C822 C 0.52258 0.05539 0.53041 0.0
C823 C 0.52476 0.08096 0.5104 0.0
H824 H 0.56982 0.5264 0.6109 0.0
H825 H 0.59746 0.50866 0.45024 0.0
H826 H 0.52548 0.53077 0.57644 0.0
H827 H 0.55292 0.51183 0.41586 0.0
H828 H 0.47381 0.54313 0.36134 0.0
H829 H 0.51835 0.53958 0.39452 0.0
H830 H 0.48948 0.50708 0.54448 0.0
H831 H 0.44471 0.51184 0.51188 0.0
C832 C 0.56642 0.52345 0.56811 0.0
C833 C 0.58725 0.51729 0.53332 0.0
C834 C 0.54086 0.52565 0.54834 0.0
C835 C 0.5353 0.52142 0.49326 0.0
C836 C 0.55629 0.51561 0.45835 0.0
C837 C 0.58193 0.51372 0.47807 0.0
C838 C 0.47694 0.53506 0.4013 0.0
C839 C 0.45561 0.52778 0.43394 0.0
C840 C 0.50262 0.5329 0.42035 0.0
C841 C 0.5078 0.52311 0.47245 0.0
C842 C 0.48641 0.51524 0.50461 0.0
C843 C 0.46066 0.51769 0.48573 0.0
H844 H 1.00511 0.59134 0.46556 0.0
H845 H 0.03694 0.56245 0.61571 0.0
H846 H 1.00041 0.54654 0.43303 0.0
H847 H 0.03344 0.51788 0.58259 0.0
H848 H 1.00254 0.43856 0.52717 0.0
H849 H 1.00573 0.4831 0.56156 0.0
H850 H 0.02418 0.51073 0.4008 0.0
H851 H 0.01979 0.46638 0.36633 0.0
C852 C 1.01109 0.57543 0.49164 0.0
C853 C 0.02131 0.58054 0.54331 0.0
C854 C 1.00867 0.54967 0.4728 0.0
C855 C 1.01672 0.52832 0.50486 0.0
C856 C 0.02664 0.53357 0.55684 0.0
C857 C 0.02876 0.55927 0.57586 0.0
C858 C 1.0075 0.45413 0.4993 0.0
C859 C 1.0109 0.44886 0.444 0.0
C860 C 1.00939 0.47977 0.51902 0.0
C861 C 1.01506 0.50082 0.48407 0.0
C862 C 0.01916 0.49531 0.42893 0.0
C863 C 1.01695 0.46974 0.40916 0.0
loop_
_geom_bond_atom_site_label_1
_geom_bond_atom_site_label_2
_geom_bond_distance
_geom_bond_site_symmetry_2
_ccdc_geom_bond_type
O0 Cd1 2.223 . S
O0 C8 1.315 . S
Cd1 O0 2.223 . S
Cd1 O4 2.297 1_554 S
Cd1 O5 2.439 1_554 S
Cd1 O11 2.240 . S
Cd2 O3 2.240 . S
Cd2 O10 2.223 . S
Cd2 O12 2.297 . S
Cd2 O13 2.439 . S
O3 Cd2 2.240 . S
O3 C8 1.279 . S
O4 Cd1 2.297 1_556 S
O4 C6 1.247 . S
O5 Cd1 2.439 1_556 S
O5 C6 1.208 . S
C6 O4 1.247 . S
C6 O5 1.208 . S
C7 O12 1.247 . S
C7 O13 1.208 . S
C8 O0 1.315 . S
C8 O3 1.279 . S
C9 O10 1.315 . S
C9 O11 1.279 . S
O10 Cd2 2.223 . S
O10 C9 1.315 . S
O11 Cd1 2.240 . S
O11 C9 1.279 . S
O12 Cd2 2.297 . S
O12 C7 1.247 . S
O13 Cd2 2.439 . S
O13 C7 1.208 . S
O14 Cd15 2.223 . S
O14 C22 1.315 . S
Cd15 O14 2.223 . S
Cd15 O18 2.297 1_554 S
Cd15 O19 2.439 1_554 S
Cd15 O25 2.240 . S
Cd16 O17 2.240 . S
Cd16 O24 2.223 . S
Cd16 O26 2.297 . S
Cd16 O27 2.439 . S
O17 Cd16 2.240 . S
O17 C22 1.279 . S
O18 Cd15 2.297 1_556 S
O18 C20 1.247 . S
O19 Cd15 2.439 1_556 S
O19 C20 1.208 . S
C20 O18 1.247 . S
C20 O19 1.208 . S
C21 O26 1.247 . S
C21 O27 1.208 . S
C22 O14 1.315 . S
C22 O17 1.279 . S
C23 O24 1.315 . S
C23 O25 1.279 . S
O24 Cd16 2.223 . S
O24 C23 1.315 . S
O25 Cd15 2.240 . S
O25 C23 1.279 . S
O26 Cd16 2.297 . S
O26 C21 1.247 . S
O27 Cd16 2.439 . S
O27 C21 1.208 . S
O28 Cd29 2.223 . S
O28 C36 1.315 . S
Cd29 O28 2.223 . S
Cd29 O32 2.297 1_554 S
Cd29 O33 2.439 1_554 S
Cd29 O39 2.240 . S
Cd30 O31 2.240 . S
Cd30 O38 2.223 . S
Cd30 O40 2.297 . S
Cd30 O41 2.439 . S
O31 Cd30 2.240 . S
O31 C36 1.279 . S
O32 Cd29 2.297 1_556 S
O32 C34 1.247 . S
O33 Cd29 2.439 1_556 S
O33 C34 1.208 . S
C34 O32 1.247 . S
C34 O33 1.208 . S
C35 O40 1.247 . S
C35 O41 1.208 . S
C36 O28 1.315 . S
C36 O31 1.279 . S
C37 O38 1.315 . S
C37 O39 1.279 . S
O38 Cd30 2.223 . S
O38 C37 1.315 . S
O39 Cd29 2.240 . S
O39 C37 1.279 . S
O40 Cd30 2.297 . S
O40 C35 1.247 . S
O41 Cd30 2.439 . S
O41 C35 1.208 . S
O42 Cd43 2.223 . S
O42 C50 1.315 . S
Cd43 O42 2.223 . S
Cd43 O46 2.297 1_554 S
Cd43 O47 2.439 1_554 S
Cd43 O53 2.240 . S
Cd44 O45 2.240 . S
Cd44 O52 2.223 . S
Cd44 O54 2.297 . S
Cd44 O55 2.439 . S
O45 Cd44 2.240 . S
O45 C50 1.279 . S
O46 Cd43 2.297 1_556 S
O46 C48 1.247 . S
O47 Cd43 2.439 1_556 S
O47 C48 1.208 . S
C48 O46 1.247 . S
C48 O47 1.208 . S
C49 O54 1.247 . S
C49 O55 1.208 . S
C50 O42 1.315 . S
C50 O45 1.279 . S
C51 O52 1.315 . S
C51 O53 1.279 . S
O52 Cd44 2.223 . S
O52 C51 1.315 . S
O53 Cd43 2.240 . S
O53 C51 1.279 . S
O54 Cd44 2.297 . S
O54 C49 1.247 . S
O55 Cd44 2.439 . S
O55 C49 1.208 . S
O56 Cd57 2.223 . S
O56 C64 1.315 . S
Cd57 O56 2.223 . S
Cd57 O60 2.297 . S
Cd57 O61 2.439 . S
Cd57 O67 2.240 . S
Cd58 O59 2.240 . S
Cd58 O66 2.223 . S
Cd58 O68 2.297 . S
Cd58 O69 2.439 . S
O59 Cd58 2.240 . S
O59 C64 1.279 . S
O60 Cd57 2.297 . S
O60 C62 1.247 . S
O61 Cd57 2.439 . S
O61 C62 1.208 . S
C62 O60 1.247 . S
C62 O61 1.208 . S
C63 O68 1.247 . S
C63 O69 1.208 . S
C64 O56 1.315 . S
C64 O59 1.279 . S
C65 O66 1.315 . S
C65 O67 1.279 . S
O66 Cd58 2.223 . S
O66 C65 1.315 . S
O67 Cd57 2.240 . S
O67 C65 1.279 . S
O68 Cd58 2.297 . S
O68 C63 1.247 . S
O69 Cd58 2.439 . S
O69 C63 1.208 . S
O70 Cd71 2.223 . S
O70 C78 1.315 . S
Cd71 O70 2.223 . S
Cd71 O74 2.297 . S
Cd71 O75 2.439 . S
Cd71 O81 2.240 . S
Cd72 O73 2.240 . S
Cd72 O80 2.223 . S
Cd72 O82 2.297 . S
Cd72 O83 2.439 . S
O73 Cd72 2.240 . S
O73 C78 1.279 . S
O74 Cd71 2.297 . S
O74 C76 1.247 . S
O75 Cd71 2.439 . S
O75 C76 1.208 . S
C76 O74 1.247 . S
C76 O75 1.208 . S
C77 O82 1.247 . S
C77 O83 1.208 . S
C78 O70 1.315 . S
C78 O73 1.279 . S
C79 O80 1.315 . S
C79 O81 1.279 . S
O80 Cd72 2.223 . S
O80 C79 1.315 . S
O81 Cd71 2.240 . S
O81 C79 1.279 . S
O82 Cd72 2.297 . S
O82 C77 1.247 . S
O83 Cd72 2.439 . S
O83 C77 1.208 . S
O84 Cd85 2.223 . S
O84 C92 1.315 . S
Cd85 O84 2.223 . S
Cd85 O88 2.297 . S
Cd85 O89 2.439 . S
Cd85 O95 2.240 . S
Cd86 O87 2.240 . S
Cd86 O94 2.223 . S
Cd86 O96 2.297 . S
Cd86 O97 2.439 . S
O87 Cd86 2.240 . S
O87 C92 1.279 . S
O88 Cd85 2.297 . S
O88 C90 1.247 . S
O89 Cd85 2.439 . S
O89 C90 1.208 . S
C90 O88 1.247 . S
C90 O89 1.208 . S
C91 O96 1.247 . S
C91 O97 1.208 . S
C92 O84 1.315 . S
C92 O87 1.279 . S
C93 O94 1.315 . S
C93 O95 1.279 . S
O94 Cd86 2.223 . S
O94 C93 1.315 . S
O95 Cd85 2.240 . S
O95 C93 1.279 . S
O96 Cd86 2.297 . S
O96 C91 1.247 . S
O97 Cd86 2.439 . S
O97 C91 1.208 . S
O98 Cd99 2.223 . S
O98 C106 1.315 . S
Cd99 O98 2.223 . S
Cd99 O102 2.297 . S
Cd99 O103 2.439 . S
Cd99 O109 2.240 . S
Cd100 O101 2.240 . S
Cd100 O108 2.223 . S
Cd100 O110 2.297 . S
Cd100 O111 2.439 . S
O101 Cd100 2.240 . S
O101 C106 1.279 . S
O102 Cd99 2.297 . S
O102 C104 1.247 . S
O103 Cd99 2.439 . S
O103 C104 1.208 . S
C104 O102 1.247 . S
C104 O103 1.208 . S
C105 O110 1.247 . S
C105 O111 1.208 . S
C106 O98 1.315 . S
C106 O101 1.279 . S
C107 O108 1.315 . S
C107 O109 1.279 . S
O108 Cd100 2.223 . S
O108 C107 1.315 . S
O109 Cd99 2.240 . S
O109 C107 1.279 . S
O110 Cd100 2.297 . S
O110 C105 1.247 . S
O111 Cd100 2.439 . S
O111 C105 1.208 . S
O112 Cd113 2.223 . S
O112 C120 1.315 . S
Cd113 O112 2.223 . S
Cd113 O116 2.297 1_556 S
Cd113 O117 2.439 1_556 S
Cd113 O123 2.240 . S
Cd114 O115 2.240 . S
Cd114 O122 2.223 . S
Cd114 O124 2.297 . S
Cd114 O125 2.439 . S
O115 Cd114 2.240 . S
O115 C120 1.279 . S
O116 Cd113 2.297 1_554 S
O116 C118 1.247 . S
O117 Cd113 2.439 1_554 S
O117 C118 1.208 . S
C118 O116 1.247 . S
C118 O117 1.208 . S
C119 O124 1.247 . S
C119 O125 1.208 . S
C120 O112 1.315 . S
C120 O115 1.279 . S
C121 O122 1.315 . S
C121 O123 1.279 . S
O122 Cd114 2.223 . S
O122 C121 1.315 . S
O123 Cd113 2.240 . S
O123 C121 1.279 . S
O124 Cd114 2.297 . S
O124 C119 1.247 . S
O125 Cd114 2.439 . S
O125 C119 1.208 . S
O126 Cd127 2.223 . S
O126 C134 1.315 . S
Cd127 O126 2.223 . S
Cd127 O130 2.297 1_556 S
Cd127 O131 2.439 1_556 S
Cd127 O137 2.240 . S
Cd128 O129 2.240 . S
Cd128 O136 2.223 . S
Cd128 O138 2.297 . S
Cd128 O139 2.439 . S
O129 Cd128 2.240 . S
O129 C134 1.279 . S
O130 Cd127 2.297 1_554 S
O130 C132 1.247 . S
O131 Cd127 2.439 1_554 S
O131 C132 1.208 . S
C132 O130 1.247 . S
C132 O131 1.208 . S
C133 O138 1.247 . S
C133 O139 1.208 . S
C134 O126 1.315 . S
C134 O129 1.279 . S
C135 O136 1.315 . S
C135 O137 1.279 . S
O136 Cd128 2.223 . S
O136 C135 1.315 . S
O137 Cd127 2.240 . S
O137 C135 1.279 . S
O138 Cd128 2.297 . S
O138 C133 1.247 . S
O139 Cd128 2.439 . S
O139 C133 1.208 . S
O140 Cd141 2.223 . S
O140 C148 1.315 . S
Cd141 O140 2.223 . S
Cd141 O144 2.297 1_556 S
Cd141 O145 2.439 1_556 S
Cd141 O151 2.240 . S
Cd142 O143 2.240 . S
Cd142 O150 2.223 . S
Cd142 O152 2.297 . S
Cd142 O153 2.439 . S
O143 Cd142 2.240 . S
O143 C148 1.279 . S
O144 Cd141 2.297 1_554 S
O144 C146 1.247 . S
O145 Cd141 2.439 1_554 S
O145 C146 1.208 . S
C146 O144 1.247 . S
C146 O145 1.208 . S
C147 O152 1.247 . S
C147 O153 1.208 . S
C148 O140 1.315 . S
C148 O143 1.279 . S
C149 O150 1.315 . S
C149 O151 1.279 . S
O150 Cd142 2.223 . S
O150 C149 1.315 . S
O151 Cd141 2.240 . S
O151 C149 1.279 . S
O152 Cd142 2.297 . S
O152 C147 1.247 . S
O153 Cd142 2.439 . S
O153 C147 1.208 . S
O154 Cd155 2.223 . S
O154 C162 1.315 . S
Cd155 O154 2.223 . S
Cd155 O158 2.297 1_556 S
Cd155 O159 2.439 1_556 S
Cd155 O165 2.240 . S
Cd156 O157 2.240 . S
Cd156 O164 2.223 . S
Cd156 O166 2.297 . S
Cd156 O167 2.439 . S
O157 Cd156 2.240 . S
O157 C162 1.279 . S
O158 Cd155 2.297 1_554 S
O158 C160 1.247 . S
O159 Cd155 2.439 1_554 S
O159 C160 1.208 . S
C160 O158 1.247 . S
C160 O159 1.208 . S
C161 O166 1.247 . S
C161 O167 1.208 . S
C162 O154 1.315 . S
C162 O157 1.279 . S
C163 O164 1.315 . S
C163 O165 1.279 . S
O164 Cd156 2.223 . S
O164 C163 1.315 . S
O165 Cd155 2.240 . S
O165 C163 1.279 . S
O166 Cd156 2.297 . S
O166 C161 1.247 . S
O167 Cd156 2.439 . S
O167 C161 1.208 . S
O168 Cd169 2.223 . S
O168 C176 1.315 . S
Cd169 O168 2.223 . S
Cd169 O172 2.297 . S
Cd169 O173 2.439 . S
Cd169 O179 2.240 . S
Cd170 O171 2.240 . S
Cd170 O178 2.223 . S
Cd170 O180 2.297 . S
Cd170 O181 2.439 . S
O171 Cd170 2.240 . S
O171 C176 1.279 . S
O172 Cd169 2.297 . S
O172 C174 1.247 . S
O173 Cd169 2.439 . S
O173 C174 1.208 . S
C174 O172 1.247 . S
C174 O173 1.208 . S
C175 O180 1.247 . S
C175 O181 1.208 . S
C176 O168 1.315 . S
C176 O171 1.279 . S
C177 O178 1.315 . S
C177 O179 1.279 . S
O178 Cd170 2.223 . S
O178 C177 1.315 . S
O179 Cd169 2.240 . S
O179 C177 1.279 . S
O180 Cd170 2.297 . S
O180 C175 1.247 . S
O181 Cd170 2.439 . S
O181 C175 1.208 . S
O182 Cd183 2.223 . S
O182 C190 1.315 . S
Cd183 O182 2.223 . S
Cd183 O186 2.297 . S
Cd183 O187 2.439 . S
Cd183 O193 2.240 . S
Cd184 O185 2.240 . S
Cd184 O192 2.223 . S
Cd184 O194 2.297 . S
Cd184 O195 2.439 . S
O185 Cd184 2.240 . S
O185 C190 1.279 . S
O186 Cd183 2.297 . S
O186 C188 1.247 . S
O187 Cd183 2.439 . S
O187 C188 1.208 . S
C188 O186 1.247 . S
C188 O187 1.208 . S
C189 O194 1.247 . S
C189 O195 1.208 . S
C190 O182 1.315 . S
C190 O185 1.279 . S
C191 O192 1.315 . S
C191 O193 1.279 . S
O192 Cd184 2.223 . S
O192 C191 1.315 . S
O193 Cd183 2.240 . S
O193 C191 1.279 . S
O194 Cd184 2.297 . S
O194 C189 1.247 . S
O195 Cd184 2.439 . S
O195 C189 1.208 . S
O196 Cd197 2.223 . S
O196 C204 1.315 . S
Cd197 O196 2.223 . S
Cd197 O200 2.297 . S
Cd197 O201 2.439 . S
Cd197 O207 2.240 . S
Cd198 O199 2.240 . S
Cd198 O206 2.223 . S
Cd198 O208 2.297 . S
Cd198 O209 2.439 . S
O199 Cd198 2.240 . S
O199 C204 1.279 . S
O200 Cd197 2.297 . S
O200 C202 1.247 . S
O201 Cd197 2.439 . S
O201 C202 1.208 . S
C202 O200 1.247 . S
C202 O201 1.208 . S
C203 O208 1.247 . S
C203 O209 1.208 . S
C204 O196 1.315 . S
C204 O199 1.279 . S
C205 O206 1.315 . S
C205 O207 1.279 . S
O206 Cd198 2.223 . S
O206 C205 1.315 . S
O207 Cd197 2.240 . S
O207 C205 1.279 . S
O208 Cd198 2.297 . S
O208 C203 1.247 . S
O209 Cd198 2.439 . S
O209 C203 1.208 . S
O210 Cd211 2.223 . S
O210 C218 1.315 . S
Cd211 O210 2.223 . S
Cd211 O214 2.297 . S
Cd211 O215 2.439 . S
Cd211 O221 2.240 . S
Cd212 O213 2.240 . S
Cd212 O220 2.223 . S
Cd212 O222 2.297 . S
Cd212 O223 2.439 . S
O213 Cd212 2.240 . S
O213 C218 1.279 . S
O214 Cd211 2.297 . S
O214 C216 1.247 . S
O215 Cd211 2.439 . S
O215 C216 1.208 . S
C216 O214 1.247 . S
C216 O215 1.208 . S
C217 O222 1.247 . S
C217 O223 1.208 . S
C218 O210 1.315 . S
C218 O213 1.279 . S
C219 O220 1.315 . S
C219 O221 1.279 . S
O220 Cd212 2.223 . S
O220 C219 1.315 . S
O221 Cd211 2.240 . S
O221 C219 1.279 . S
O222 Cd212 2.297 . S
O222 C217 1.247 . S
O223 Cd212 2.439 . S
O223 C217 1.208 . S
H224 C232 0.950 . S
H225 C237 0.950 . S
H226 C234 0.950 . S
H227 C236 0.950 . S
H228 C238 0.950 . S
H229 C240 0.950 . S
H230 C242 0.950 . S
H231 C243 0.950 . S
C232 H224 0.950 . S
C232 C233 1.386 . S
C232 C234 1.391 . S
C233 C232 1.386 . S
C233 C237 1.393 . S
C234 H226 0.950 . S
C234 C232 1.391 . S
C234 C235 1.400 . S
C235 C234 1.400 . S
C235 C236 1.398 . S
C235 C241 1.491 . S
C236 H227 0.950 . S
C236 C235 1.398 . S
C236 C237 1.391 . S
C237 H225 0.950 . S
C237 C233 1.393 . S
C237 C236 1.391 . S
C238 H228 0.950 . S
C238 C239 1.386 . S
C238 C240 1.391 . S
C239 C238 1.386 . S
C239 C243 1.393 . S
C240 H229 0.950 . S
C240 C238 1.391 . S
C240 C241 1.400 . S
C241 C235 1.491 . S
C241 C240 1.400 . S
C241 C242 1.398 . S
C242 H230 0.950 . S
C242 C241 1.398 . S
C242 C243 1.391 . S
C243 H231 0.950 . S
C243 C239 1.393 . S
C243 C242 1.391 . S
H244 C252 0.950 . S
H245 C257 0.950 . S
H246 C254 0.950 . S
H247 C256 0.950 . S
H248 C258 0.950 . S
H249 C260 0.950 . S
H250 C262 0.950 . S
H251 C263 0.950 . S
C252 H244 0.950 . S
C252 C253 1.386 . S
C252 C254 1.391 . S
C253 C252 1.386 . S
C253 C257 1.393 . S
C254 H246 0.950 . S
C254 C252 1.391 . S
C254 C255 1.400 . S
C255 C254 1.400 . S
C255 C256 1.398 . S
C255 C261 1.491 . S
C256 H247 0.950 . S
C256 C255 1.398 . S
C256 C257 1.391 . S
C257 H245 0.950 . S
C257 C253 1.393 . S
C257 C256 1.391 . S
C258 H248 0.950 . S
C258 C259 1.386 . S
C258 C260 1.391 . S
C259 C258 1.386 . S
C259 C263 1.393 . S
C260 H249 0.950 . S
C260 C258 1.391 . S
C260 C261 1.400 . S
C261 C255 1.491 . S
C261 C260 1.400 . S
C261 C262 1.398 . S
C262 H250 0.950 . S
C262 C261 1.398 . S
C262 C263 1.391 . S
C263 H251 0.950 . S
C263 C259 1.393 . S
C263 C262 1.391 . S
H264 C272 0.950 . S
H265 C277 0.950 . S
H266 C274 0.950 . S
H267 C276 0.950 . S
H268 C278 0.950 . S
H269 C280 0.950 . S
H270 C282 0.950 . S
H271 C283 0.950 . S
C272 H264 0.950 . S
C272 C273 1.386 . S
C272 C274 1.391 . S
C273 C272 1.386 . S
C273 C277 1.393 . S
C274 H266 0.950 . S
C274 C272 1.391 . S
C274 C275 1.400 . S
C275 C274 1.400 . S
C275 C276 1.398 . S
C275 C281 1.491 . S
C276 H267 0.950 . S
C276 C275 1.398 . S
C276 C277 1.391 . S
C277 H265 0.950 . S
C277 C273 1.393 . S
C277 C276 1.391 . S
C278 H268 0.950 . S
C278 C279 1.386 . S
C278 C280 1.391 . S
C279 C278 1.386 . S
C279 C283 1.393 . S
C280 H269 0.950 . S
C280 C278 1.391 . S
C280 C281 1.400 . S
C281 C275 1.491 . S
C281 C280 1.400 . S
C281 C282 1.398 . S
C282 H270 0.950 . S
C282 C281 1.398 . S
C282 C283 1.391 . S
C283 H271 0.950 . S
C283 C279 1.393 . S
C283 C282 1.391 . S
H284 C292 0.950 . S
H285 C297 0.950 . S
H286 C294 0.950 . S
H287 C296 0.950 . S
H288 C298 0.950 . S
H289 C300 0.950 . S
H290 C302 0.950 . S
H291 C303 0.950 . S
C292 H284 0.950 . S
C292 C293 1.386 . S
C292 C294 1.391 . S
C293 C292 1.386 . S
C293 C297 1.393 . S
C294 H286 0.950 . S
C294 C292 1.391 . S
C294 C295 1.400 . S
C295 C294 1.400 . S
C295 C296 1.398 . S
C295 C301 1.491 . S
C296 H287 0.950 . S
C296 C295 1.398 . S
C296 C297 1.391 . S
C297 H285 0.950 . S
C297 C293 1.393 . S
C297 C296 1.391 . S
C298 H288 0.950 . S
C298 C299 1.386 . S
C298 C300 1.391 . S
C299 C298 1.386 . S
C299 C303 1.393 . S
C300 H289 0.950 . S
C300 C298 1.391 . S
C300 C301 1.400 . S
C301 C295 1.491 . S
C301 C300 1.400 . S
C301 C302 1.398 . S
C302 H290 0.950 . S
C302 C301 1.398 . S
C302 C303 1.391 . S
C303 H291 0.950 . S
C303 C299 1.393 . S
C303 C302 1.391 . S
H304 C312 0.950 . S
H305 C317 0.950 . S
H306 C314 0.950 . S
H307 C316 0.950 . S
H308 C318 0.950 . S
H309 C320 0.950 . S
H310 C322 0.950 . S
H311 C323 0.950 . S
C312 H304 0.950 . S
C312 C313 1.386 . S
C312 C314 1.391 . S
C313 C312 1.386 . S
C313 C317 1.393 . S
C314 H306 0.950 . S
C314 C312 1.391 . S
C314 C315 1.400 . S
C315 C314 1.400 . S
C315 C316 1.398 . S
C315 C321 1.491 . S
C316 H307 0.950 . S
C316 C315 1.398 . S
C316 C317 1.391 . S
C317 H305 0.950 . S
C317 C313 1.393 . S
C317 C316 1.391 . S
C318 H308 0.950 . S
C318 C319 1.386 . S
C318 C320 1.391 . S
C319 C318 1.386 . S
C319 C323 1.393 . S
C320 H309 0.950 . S
C320 C318 1.391 . S
C320 C321 1.400 . S
C321 C315 1.491 . S
C321 C320 1.400 . S
C321 C322 1.398 . S
C322 H310 0.950 . S
C322 C321 1.398 . S
C322 C323 1.391 . S
C323 H311 0.950 . S
C323 C319 1.393 . S
C323 C322 1.391 . S
H324 C332 0.950 . S
H325 C337 0.950 . S
H326 C334 0.950 . S
H327 C336 0.950 . S
H328 C338 0.950 . S
H329 C340 0.950 . S
H330 C342 0.950 . S
H331 C343 0.950 . S
C332 H324 0.950 . S
C332 C333 1.386 . S
C332 C334 1.391 . S
C333 C332 1.386 . S
C333 C337 1.393 . S
C334 H326 0.950 . S
C334 C332 1.391 . S
C334 C335 1.400 . S
C335 C334 1.400 . S
C335 C336 1.398 . S
C335 C341 1.491 . S
C336 H327 0.950 . S
C336 C335 1.398 . S
C336 C337 1.391 . S
C337 H325 0.950 . S
C337 C333 1.393 . S
C337 C336 1.391 . S
C338 H328 0.950 . S
C338 C339 1.386 . S
C338 C340 1.391 . S
C339 C338 1.386 . S
C339 C343 1.393 . S
C340 H329 0.950 . S
C340 C338 1.391 . S
C340 C341 1.400 . S
C341 C335 1.491 . S
C341 C340 1.400 . S
C341 C342 1.398 . S
C342 H330 0.950 . S
C342 C341 1.398 . S
C342 C343 1.391 . S
C343 H331 0.950 . S
C343 C339 1.393 . S
C343 C342 1.391 . S
H344 C352 0.950 . S
H345 C357 0.950 . S
H346 C354 0.950 . S
H347 C356 0.950 . S
H348 C358 0.950 . S
H349 C360 0.950 . S
H350 C362 0.950 . S
H351 C363 0.950 . S
C352 H344 0.950 . S
C352 C353 1.386 . S
C352 C354 1.391 . S
C353 C352 1.386 . S
C353 C357 1.393 . S
C354 H346 0.950 . S
C354 C352 1.391 . S
C354 C355 1.400 . S
C355 C354 1.400 . S
C355 C356 1.398 . S
C355 C361 1.491 . S
C356 H347 0.950 . S
C356 C355 1.398 . S
C356 C357 1.391 . S
C357 H345 0.950 . S
C357 C353 1.393 . S
C357 C356 1.391 . S
C358 H348 0.950 . S
C358 C359 1.386 . S
C358 C360 1.391 . S
C359 C358 1.386 . S
C359 C363 1.393 . S
C360 H349 0.950 . S
C360 C358 1.391 . S
C360 C361 1.400 . S
C361 C355 1.491 . S
C361 C360 1.400 . S
C361 C362 1.398 . S
C362 H350 0.950 . S
C362 C361 1.398 . S
C362 C363 1.391 . S
C363 H351 0.950 . S
C363 C359 1.393 . S
C363 C362 1.391 . S
H364 C372 0.950 . S
H365 C377 0.950 . S
H366 C374 0.950 . S
H367 C376 0.950 . S
H368 C378 0.950 . S
H369 C380 0.950 . S
H370 C382 0.950 . S
H371 C383 0.950 . S
C372 H364 0.950 . S
C372 C373 1.386 . S
C372 C374 1.391 . S
C373 C372 1.386 . S
C373 C377 1.393 . S
C374 H366 0.950 . S
C374 C372 1.391 . S
C374 C375 1.400 . S
C375 C374 1.400 . S
C375 C376 1.398 . S
C375 C381 1.491 . S
C376 H367 0.950 . S
C376 C375 1.398 . S
C376 C377 1.391 . S
C377 H365 0.950 . S
C377 C373 1.393 . S
C377 C376 1.391 . S
C378 H368 0.950 . S
C378 C379 1.386 . S
C378 C380 1.391 . S
C379 C378 1.386 . S
C379 C383 1.393 . S
C380 H369 0.950 . S
C380 C378 1.391 . S
C380 C381 1.400 . S
C381 C375 1.491 . S
C381 C380 1.400 . S
C381 C382 1.398 . S
C382 H370 0.950 . S
C382 C381 1.398 . S
C382 C383 1.391 . S
C383 H371 0.950 . S
C383 C379 1.393 . S
C383 C382 1.391 . S
H384 C392 0.937 1_565 S
H385 C397 0.950 . S
H386 C394 0.950 1_565 S
H387 C396 0.950 . S
H388 C398 0.950 . S
H389 C400 0.950 . S
H390 C402 0.950 1_565 S
H391 C403 0.950 1_565 S
C392 H384 0.937 1_545 S
C392 C393 1.386 . S
C392 C394 1.391 . S
C393 C392 1.386 . S
C393 C397 1.393 . S
C394 H386 0.950 1_545 S
C394 C392 1.391 . S
C394 C395 1.400 . S
C395 C394 1.400 . S
C395 C396 1.398 . S
C395 C401 1.491 . S
C396 H387 0.950 . S
C396 C395 1.398 . S
C396 C397 1.391 . S
C397 H385 0.950 . S
C397 C393 1.393 . S
C397 C396 1.391 . S
C398 H388 0.950 . S
C398 C399 1.386 . S
C398 C400 1.391 . S
C399 C398 1.386 . S
C399 C403 1.393 . S
C400 H389 0.950 . S
C400 C398 1.391 . S
C400 C401 1.400 . S
C401 C395 1.491 . S
C401 C400 1.400 . S
C401 C402 1.398 . S
C402 H390 0.950 1_545 S
C402 C401 1.398 . S
C402 C403 1.391 . S
C403 H391 0.950 1_545 S
C403 C399 1.393 . S
C403 C402 1.391 . S
H404 C412 0.950 . S
H405 C417 0.950 . S
H406 C414 0.950 . S
H407 C416 0.950 . S
H408 C418 0.950 . S
H409 C420 0.950 . S
H410 C422 0.950 . S
H411 C423 0.950 . S
C412 H404 0.950 . S
C412 C413 1.386 . S
C412 C414 1.391 . S
C413 C412 1.386 . S
C413 C417 1.393 . S
C414 H406 0.950 . S
C414 C412 1.391 . S
C414 C415 1.400 . S
C415 C414 1.400 . S
C415 C416 1.398 . S
C415 C421 1.491 . S
C416 H407 0.950 . S
C416 C415 1.398 . S
C416 C417 1.391 . S
C417 H405 0.950 . S
C417 C413 1.393 . S
C417 C416 1.391 . S
C418 H408 0.950 . S
C418 C419 1.386 . S
C418 C420 1.391 . S
C419 C418 1.386 . S
C419 C423 1.393 . S
C420 H409 0.950 . S
C420 C418 1.391 . S
C420 C421 1.400 . S
C421 C415 1.491 . S
C421 C420 1.400 . S
C421 C422 1.398 . S
C422 H410 0.950 . S
C422 C421 1.398 . S
C422 C423 1.391 . S
C423 H411 0.950 . S
C423 C419 1.393 . S
C423 C422 1.391 . S
H424 C432 0.950 . S
H425 C437 0.950 . S
H426 C434 0.950 . S
H427 C436 0.950 . S
H428 C438 0.950 . S
H429 C440 0.950 . S
H430 C442 0.950 . S
H431 C443 0.950 . S
C432 H424 0.950 . S
C432 C433 1.386 . S
C432 C434 1.391 . S
C433 C432 1.386 . S
C433 C437 1.393 . S
C434 H426 0.950 . S
C434 C432 1.391 . S
C434 C435 1.400 . S
C435 C434 1.400 . S
C435 C436 1.398 . S
C435 C441 1.491 . S
C436 H427 0.950 . S
C436 C435 1.398 . S
C436 C437 1.391 . S
C437 H425 0.950 . S
C437 C433 1.393 . S
C437 C436 1.391 . S
C438 H428 0.950 . S
C438 C439 1.386 . S
C438 C440 1.391 . S
C439 C438 1.386 . S
C439 C443 1.393 . S
C440 H429 0.950 . S
C440 C438 1.391 . S
C440 C441 1.400 . S
C441 C435 1.491 . S
C441 C440 1.400 . S
C441 C442 1.398 . S
C442 H430 0.950 . S
C442 C441 1.398 . S
C442 C443 1.391 . S
C443 H431 0.950 . S
C443 C439 1.393 . S
C443 C442 1.391 . S
H444 C452 0.950 1_655 S
H445 C457 0.950 . S
H446 C454 0.950 1_655 S
H447 C456 0.950 . S
H448 C458 0.950 . S
H449 C460 0.950 . S
H450 C462 0.950 1_655 S
H451 C463 0.950 1_655 S
C452 H444 0.950 1_455 S
C452 C453 1.386 . S
C452 C454 1.391 . S
C453 C452 1.386 . S
C453 C457 1.393 . S
C454 H446 0.950 1_455 S
C454 C452 1.391 . S
C454 C455 1.400 . S
C455 C454 1.400 . S
C455 C456 1.398 . S
C455 C461 1.491 . S
C456 H447 0.950 . S
C456 C455 1.398 . S
C456 C457 1.391 . S
C457 H445 0.950 . S
C457 C453 1.393 . S
C457 C456 1.391 . S
C458 H448 0.950 . S
C458 C459 1.386 . S
C458 C460 1.391 . S
C459 C458 1.386 . S
C459 C463 1.393 . S
C460 H449 0.950 . S
C460 C458 1.391 . S
C460 C461 1.400 . S
C461 C455 1.491 . S
C461 C460 1.400 . S
C461 C462 1.398 . S
C462 H450 0.950 1_455 S
C462 C461 1.398 . S
C462 C463 1.391 . S
C463 H451 0.950 1_455 S
C463 C459 1.393 . S
C463 C462 1.391 . S
H464 C472 0.950 . S
H465 C477 0.950 . S
H466 C474 0.951 . S
H467 C476 0.950 . S
H468 C478 0.950 . S
H469 C480 0.950 . S
H470 C482 0.950 1_545 S
H471 C483 0.950 1_545 S
C472 H464 0.950 . S
C472 C473 1.386 . S
C472 C474 1.391 . S
C473 C472 1.386 . S
C473 C477 1.393 . S
C474 H466 0.951 . S
C474 C472 1.391 . S
C474 C475 1.400 . S
C475 C474 1.400 . S
C475 C476 1.398 . S
C475 C481 1.491 . S
C476 H467 0.950 . S
C476 C475 1.398 . S
C476 C477 1.391 . S
C477 H465 0.950 . S
C477 C473 1.393 . S
C477 C476 1.391 . S
C478 H468 0.950 . S
C478 C479 1.386 . S
C478 C480 1.391 . S
C479 C478 1.386 . S
C479 C483 1.393 . S
C480 H469 0.950 . S
C480 C478 1.391 . S
C480 C481 1.400 . S
C481 C475 1.491 . S
C481 C480 1.400 . S
C481 C482 1.398 . S
C482 H470 0.950 1_565 S
C482 C481 1.398 . S
C482 C483 1.391 . S
C483 H471 0.950 1_565 S
C483 C479 1.393 . S
C483 C482 1.391 . S
H484 C492 0.950 . S
H485 C497 0.950 . S
H486 C494 0.950 . S
H487 C496 0.950 . S
H488 C498 0.950 . S
H489 C500 0.950 . S
H490 C502 0.950 . S
H491 C503 0.950 . S
C492 H484 0.950 . S
C492 C493 1.386 . S
C492 C494 1.391 . S
C493 C492 1.386 . S
C493 C497 1.393 . S
C494 H486 0.950 . S
C494 C492 1.391 . S
C494 C495 1.400 . S
C495 C494 1.400 . S
C495 C496 1.398 . S
C495 C501 1.491 . S
C496 H487 0.950 . S
C496 C495 1.398 . S
C496 C497 1.391 . S
C497 H485 0.950 . S
C497 C493 1.393 . S
C497 C496 1.391 . S
C498 H488 0.950 . S
C498 C499 1.386 . S
C498 C500 1.391 . S
C499 C498 1.386 . S
C499 C503 1.393 . S
C500 H489 0.950 . S
C500 C498 1.391 . S
C500 C501 1.400 . S
C501 C495 1.491 . S
C501 C500 1.400 . S
C501 C502 1.398 . S
C502 H490 0.950 . S
C502 C501 1.398 . S
C502 C503 1.391 . S
C503 H491 0.950 . S
C503 C499 1.393 . S
C503 C502 1.391 . S
H504 C512 0.950 . S
H505 C517 0.950 . S
H506 C514 0.950 . S
H507 C516 0.950 . S
H508 C518 0.950 . S
H509 C520 0.950 . S
H510 C522 0.950 . S
H511 C523 0.950 . S
C512 H504 0.950 . S
C512 C513 1.386 . S
C512 C514 1.391 . S
C513 C512 1.386 . S
C513 C517 1.393 . S
C514 H506 0.950 . S
C514 C512 1.391 . S
C514 C515 1.400 . S
C515 C514 1.400 . S
C515 C516 1.398 . S
C515 C521 1.491 . S
C516 H507 0.950 . S
C516 C515 1.398 . S
C516 C517 1.391 . S
C517 H505 0.950 . S
C517 C513 1.393 . S
C517 C516 1.391 . S
C518 H508 0.950 . S
C518 C519 1.386 . S
C518 C520 1.391 . S
C519 C518 1.386 . S
C519 C523 1.393 . S
C520 H509 0.950 . S
C520 C518 1.391 . S
C520 C521 1.400 . S
C521 C515 1.491 . S
C521 C520 1.400 . S
C521 C522 1.398 . S
C522 H510 0.950 . S
C522 C521 1.398 . S
C522 C523 1.391 . S
C523 H511 0.950 . S
C523 C519 1.393 . S
C523 C522 1.391 . S
H524 C532 0.950 1_455 S
H525 C537 0.950 . S
H526 C534 0.950 1_455 S
H527 C536 0.950 . S
H528 C538 0.950 . S
H529 C540 0.950 . S
H530 C542 0.950 1_455 S
H531 C543 0.950 1_455 S
C532 H524 0.950 1_655 S
C532 C533 1.386 . S
C532 C534 1.391 . S
C533 C532 1.386 . S
C533 C537 1.393 . S
C534 H526 0.950 1_655 S
C534 C532 1.391 . S
C534 C535 1.400 . S
C535 C534 1.400 . S
C535 C536 1.398 . S
C535 C541 1.491 . S
C536 H527 0.950 . S
C536 C535 1.398 . S
C536 C537 1.391 . S
C537 H525 0.950 . S
C537 C533 1.393 . S
C537 C536 1.391 . S
C538 H528 0.950 . S
C538 C539 1.386 . S
C538 C540 1.391 . S
C539 C538 1.386 . S
C539 C543 1.393 . S
C540 H529 0.950 . S
C540 C538 1.391 . S
C540 C541 1.400 . S
C541 C535 1.491 . S
C541 C540 1.400 . S
C541 C542 1.398 . S
C542 H530 0.950 1_655 S
C542 C541 1.398 . S
C542 C543 1.391 . S
C543 H531 0.950 1_655 S
C543 C539 1.393 . S
C543 C542 1.391 . S
H544 C552 0.950 . S
H545 C557 0.950 . S
H546 C554 0.950 . S
H547 C556 0.950 . S
H548 C558 0.950 . S
H549 C560 0.950 . S
H550 C562 0.950 . S
H551 C563 0.950 . S
C552 H544 0.950 . S
C552 C553 1.386 . S
C552 C554 1.391 . S
C553 C552 1.386 . S
C553 C557 1.393 . S
C554 H546 0.950 . S
C554 C552 1.391 . S
C554 C555 1.400 . S
C555 C554 1.400 . S
C555 C556 1.398 . S
C555 C561 1.491 . S
C556 H547 0.950 . S
C556 C555 1.398 . S
C556 C557 1.391 . S
C557 H545 0.950 . S
C557 C553 1.393 . S
C557 C556 1.391 . S
C558 H548 0.950 . S
C558 C559 1.386 . S
C558 C560 1.391 . S
C559 C558 1.386 . S
C559 C563 1.393 . S
C560 H549 0.950 . S
C560 C558 1.391 . S
C560 C561 1.400 . S
C561 C555 1.491 . S
C561 C560 1.400 . S
C561 C562 1.398 . S
C562 H550 0.950 . S
C562 C561 1.398 . S
C562 C563 1.391 . S
C563 H551 0.950 . S
C563 C559 1.393 . S
C563 C562 1.391 . S
H564 C572 0.950 . S
H565 C577 0.950 . S
H566 C574 0.950 . S
H567 C576 0.950 . S
H568 C578 0.950 . S
H569 C580 0.950 . S
H570 C582 0.950 . S
H571 C583 0.950 . S
C572 H564 0.950 . S
C572 C573 1.386 . S
C572 C574 1.391 . S
C573 C572 1.386 . S
C573 C577 1.393 . S
C574 H566 0.950 . S
C574 C572 1.391 . S
C574 C575 1.400 . S
C575 C574 1.400 . S
C575 C576 1.398 . S
C575 C581 1.491 . S
C576 H567 0.950 . S
C576 C575 1.398 . S
C576 C577 1.391 . S
C577 H565 0.950 . S
C577 C573 1.393 . S
C577 C576 1.391 . S
C578 H568 0.950 . S
C578 C579 1.386 . S
C578 C580 1.391 . S
C579 C578 1.386 . S
C579 C583 1.393 . S
C580 H569 0.950 . S
C580 C578 1.391 . S
C580 C581 1.400 . S
C581 C575 1.491 . S
C581 C580 1.400 . S
C581 C582 1.398 . S
C582 H570 0.950 . S
C582 C581 1.398 . S
C582 C583 1.391 . S
C583 H571 0.950 . S
C583 C579 1.393 . S
C583 C582 1.391 . S
H584 C592 0.950 . S
H585 C597 0.950 . S
H586 C594 0.950 . S
H587 C596 0.950 . S
H588 C598 0.950 . S
H589 C600 0.950 . S
H590 C602 0.950 . S
H591 C603 0.950 . S
C592 H584 0.950 . S
C592 C593 1.386 . S
C592 C594 1.391 . S
C593 C592 1.386 . S
C593 C597 1.393 . S
C594 H586 0.950 . S
C594 C592 1.391 . S
C594 C595 1.400 . S
C595 C594 1.400 . S
C595 C596 1.398 . S
C595 C601 1.491 . S
C596 H587 0.950 . S
C596 C595 1.398 . S
C596 C597 1.391 . S
C597 H585 0.950 . S
C597 C593 1.393 . S
C597 C596 1.391 . S
C598 H588 0.950 . S
C598 C599 1.386 . S
C598 C600 1.391 . S
C599 C598 1.386 . S
C599 C603 1.393 . S
C600 H589 0.950 . S
C600 C598 1.391 . S
C600 C601 1.400 . S
C601 C595 1.491 . S
C601 C600 1.400 . S
C601 C602 1.398 . S
C602 H590 0.950 . S
C602 C601 1.398 . S
C602 C603 1.391 . S
C603 H591 0.950 . S
C603 C599 1.393 . S
C603 C602 1.391 . S
H604 C612 0.950 . S
H605 C617 0.950 . S
H606 C614 0.950 . S
H607 C616 0.950 . S
H608 C618 0.950 . S
H609 C620 0.950 . S
H610 C622 0.950 . S
H611 C623 0.950 . S
C612 H604 0.950 . S
C612 C613 1.386 . S
C612 C614 1.391 . S
C613 C612 1.386 . S
C613 C617 1.393 . S
C614 H606 0.950 . S
C614 C612 1.391 . S
C614 C615 1.400 . S
C615 C614 1.400 . S
C615 C616 1.398 . S
C615 C621 1.491 . S
C616 H607 0.950 . S
C616 C615 1.398 . S
C616 C617 1.391 . S
C617 H605 0.950 . S
C617 C613 1.393 . S
C617 C616 1.391 . S
C618 H608 0.950 . S
C618 C619 1.386 . S
C618 C620 1.391 . S
C619 C618 1.386 . S
C619 C623 1.393 . S
C620 H609 0.950 . S
C620 C618 1.391 . S
C620 C621 1.400 . S
C621 C615 1.491 . S
C621 C620 1.400 . S
C621 C622 1.398 . S
C622 H610 0.950 . S
C622 C621 1.398 . S
C622 C623 1.391 . S
C623 H611 0.950 . S
C623 C619 1.393 . S
C623 C622 1.391 . S
H624 C632 0.950 . S
H625 C637 0.950 . S
H626 C634 0.950 . S
H627 C636 0.950 . S
H628 C638 0.950 . S
H629 C640 0.950 . S
H630 C642 0.950 . S
H631 C643 0.950 . S
C632 H624 0.950 . S
C632 C633 1.386 . S
C632 C634 1.391 . S
C633 C632 1.386 . S
C633 C637 1.393 . S
C634 H626 0.950 . S
C634 C632 1.391 . S
C634 C635 1.400 . S
C635 C634 1.400 . S
C635 C636 1.398 . S
C635 C641 1.491 . S
C636 H627 0.950 . S
C636 C635 1.398 . S
C636 C637 1.391 . S
C637 H625 0.950 . S
C637 C633 1.393 . S
C637 C636 1.391 . S
C638 H628 0.950 . S
C638 C639 1.386 . S
C638 C640 1.391 . S
C639 C638 1.386 . S
C639 C643 1.393 . S
C640 H629 0.950 . S
C640 C638 1.391 . S
C640 C641 1.400 . S
C641 C635 1.491 . S
C641 C640 1.400 . S
C641 C642 1.398 . S
C642 H630 0.950 . S
C642 C641 1.398 . S
C642 C643 1.391 . S
C643 H631 0.950 . S
C643 C639 1.393 . S
C643 C642 1.391 . S
H644 C652 0.950 . S
H645 C657 0.950 . S
H646 C654 0.950 . S
H647 C656 0.950 . S
H648 C658 0.950 . S
H649 C660 0.950 . S
H650 C662 0.950 . S
H651 C663 0.950 . S
C652 H644 0.950 . S
C652 C653 1.386 . S
C652 C654 1.391 . S
C653 C652 1.386 . S
C653 C657 1.393 . S
C654 H646 0.950 . S
C654 C652 1.391 . S
C654 C655 1.400 . S
C655 C654 1.400 . S
C655 C656 1.398 . S
C655 C661 1.491 . S
C656 H647 0.950 . S
C656 C655 1.398 . S
C656 C657 1.391 . S
C657 H645 0.950 . S
C657 C653 1.393 . S
C657 C656 1.391 . S
C658 H648 0.950 . S
C658 C659 1.386 . S
C658 C660 1.391 . S
C659 C658 1.386 . S
C659 C663 1.393 . S
C660 H649 0.950 . S
C660 C658 1.391 . S
C660 C661 1.400 . S
C661 C655 1.491 . S
C661 C660 1.400 . S
C661 C662 1.398 . S
C662 H650 0.950 . S
C662 C661 1.398 . S
C662 C663 1.391 . S
C663 H651 0.950 . S
C663 C659 1.393 . S
C663 C662 1.391 . S
H664 C672 0.950 . S
H665 C677 0.950 . S
H666 C674 0.950 . S
H667 C676 0.950 . S
H668 C678 0.950 . S
H669 C680 0.950 . S
H670 C682 0.950 . S
H671 C683 0.950 . S
C672 H664 0.950 . S
C672 C673 1.386 . S
C672 C674 1.391 . S
C673 C672 1.386 . S
C673 C677 1.393 . S
C674 H666 0.950 . S
C674 C672 1.391 . S
C674 C675 1.400 . S
C675 C674 1.400 . S
C675 C676 1.398 . S
C675 C681 1.491 . S
C676 H667 0.950 . S
C676 C675 1.398 . S
C676 C677 1.391 . S
C677 H665 0.950 . S
C677 C673 1.393 . S
C677 C676 1.391 . S
C678 H668 0.950 . S
C678 C679 1.386 . S
C678 C680 1.391 . S
C679 C678 1.386 . S
C679 C683 1.393 . S
C680 H669 0.950 . S
C680 C678 1.391 . S
C680 C681 1.400 . S
C681 C675 1.491 . S
C681 C680 1.400 . S
C681 C682 1.398 . S
C682 H670 0.950 . S
C682 C681 1.398 . S
C682 C683 1.391 . S
C683 H671 0.950 . S
C683 C679 1.393 . S
C683 C682 1.391 . S
H684 C692 0.950 1_655 S
H685 C697 0.950 . S
H686 C694 0.950 1_655 S
H687 C696 0.950 . S
H688 C698 0.950 . S
H689 C700 0.950 . S
H690 C702 0.950 1_655 S
H691 C703 0.950 1_655 S
C692 H684 0.950 1_455 S
C692 C693 1.386 . S
C692 C694 1.391 . S
C693 C692 1.386 . S
C693 C697 1.393 . S
C694 H686 0.950 1_455 S
C694 C692 1.391 . S
C694 C695 1.400 . S
C695 C694 1.400 . S
C695 C696 1.398 . S
C695 C701 1.491 . S
C696 H687 0.950 . S
C696 C695 1.398 . S
C696 C697 1.391 . S
C697 H685 0.950 . S
C697 C693 1.393 . S
C697 C696 1.391 . S
C698 H688 0.950 . S
C698 C699 1.386 . S
C698 C700 1.391 . S
C699 C698 1.386 . S
C699 C703 1.393 . S
C700 H689 0.950 . S
C700 C698 1.391 . S
C700 C701 1.400 . S
C701 C695 1.491 . S
C701 C700 1.400 . S
C701 C702 1.398 . S
C702 H690 0.950 1_455 S
C702 C701 1.398 . S
C702 C703 1.391 . S
C703 H691 0.950 1_455 S
C703 C699 1.393 . S
C703 C702 1.391 . S
H704 C712 0.950 . S
H705 C717 0.951 . S
H706 C714 0.950 . S
H707 C716 0.950 1_545 S
H708 C718 0.950 . S
H709 C720 0.950 . S
H710 C722 0.950 1_565 S
H711 C723 0.951 . S
C712 H704 0.950 . S
C712 C713 1.386 1_545 S
C712 C714 1.391 . S
C713 C712 1.386 1_565 S
C713 C717 1.392 1_556 S
C714 H706 0.950 . S
C714 C712 1.391 . S
C714 C715 1.401 . S
C715 C714 1.401 . S
C715 C716 1.398 1_546 S
C715 C721 1.490 1_546 S
C716 H707 0.950 1_565 S
C716 C715 1.398 1_564 S
C716 C717 1.390 . S
C717 H705 0.951 . S
C717 C713 1.392 1_554 S
C717 C716 1.390 . S
C718 H708 0.950 . S
C718 C719 1.386 1_565 S
C718 C720 1.391 . S
C719 C718 1.386 1_545 S
C719 C723 1.392 1_554 S
C720 H709 0.950 . S
C720 C718 1.391 . S
C720 C721 1.401 . S
C721 C715 1.490 1_564 S
C721 C720 1.401 . S
C721 C722 1.398 1_564 S
C722 H710 0.950 1_545 S
C722 C721 1.398 1_546 S
C722 C723 1.390 . S
C723 H711 0.951 . S
C723 C719 1.392 1_556 S
C723 C722 1.390 . S
H724 C732 0.950 . S
H725 C737 0.950 . S
H726 C734 0.950 . S
H727 C736 0.950 . S
H728 C738 0.950 . S
H729 C740 0.950 . S
H730 C742 0.950 . S
H731 C743 0.950 . S
C732 H724 0.950 . S
C732 C733 1.386 . S
C732 C734 1.391 . S
C733 C732 1.386 . S
C733 C737 1.393 1_556 S
C734 H726 0.950 . S
C734 C732 1.391 . S
C734 C735 1.400 . S
C735 C734 1.400 . S
C735 C736 1.398 1_556 S
C735 C741 1.491 1_556 S
C736 H727 0.950 . S
C736 C735 1.398 1_554 S
C736 C737 1.391 . S
C737 H725 0.950 . S
C737 C733 1.393 1_554 S
C737 C736 1.391 . S
C738 H728 0.950 . S
C738 C739 1.386 . S
C738 C740 1.391 . S
C739 C738 1.386 . S
C739 C743 1.393 1_554 S
C740 H729 0.950 . S
C740 C738 1.391 . S
C740 C741 1.400 . S
C741 C735 1.491 1_554 S
C741 C740 1.400 . S
C741 C742 1.398 1_554 S
C742 H730 0.950 . S
C742 C741 1.398 1_556 S
C742 C743 1.391 . S
C743 H731 0.950 . S
C743 C739 1.393 1_556 S
C743 C742 1.391 . S
H744 C752 0.950 . S
H745 C757 0.950 . S
H746 C754 0.950 . S
H747 C756 0.950 . S
H748 C758 0.950 . S
H749 C760 0.950 . S
H750 C762 0.950 . S
H751 C763 0.950 . S
C752 H744 0.950 . S
C752 C753 1.386 1_556 S
C752 C754 1.391 . S
C753 C752 1.386 1_554 S
C753 C757 1.393 . S
C754 H746 0.950 . S
C754 C752 1.391 . S
C754 C755 1.400 1_556 S
C755 C754 1.400 1_554 S
C755 C756 1.398 . S
C755 C761 1.491 1_654 S
C756 H747 0.950 . S
C756 C755 1.398 . S
C756 C757 1.391 . S
C757 H745 0.950 . S
C757 C753 1.393 . S
C757 C756 1.391 . S
C758 H748 0.950 . S
C758 C759 1.386 1_554 S
C758 C760 1.391 . S
C759 C758 1.386 1_556 S
C759 C763 1.393 . S
C760 H749 0.950 . S
C760 C758 1.391 . S
C760 C761 1.400 1_554 S
C761 C755 1.491 1_456 S
C761 C760 1.400 1_556 S
C761 C762 1.398 . S
C762 H750 0.950 . S
C762 C761 1.398 . S
C762 C763 1.391 . S
C763 H751 0.950 . S
C763 C759 1.393 . S
C763 C762 1.391 . S
H764 C772 0.950 . S
H765 C777 0.950 . S
H766 C774 0.950 . S
H767 C776 0.950 . S
H768 C778 0.950 . S
H769 C780 0.950 . S
H770 C782 0.950 . S
H771 C783 0.950 . S
C772 H764 0.950 . S
C772 C773 1.387 1_655 S
C772 C774 1.391 . S
C773 C772 1.387 1_455 S
C773 C777 1.392 1_556 S
C774 H766 0.950 . S
C774 C772 1.391 . S
C774 C775 1.398 1_655 S
C775 C774 1.398 1_455 S
C775 C776 1.401 1_556 S
C775 C781 1.490 1_446 S
C776 H767 0.950 . S
C776 C775 1.401 1_554 S
C776 C777 1.391 . S
C777 H765 0.950 . S
C777 C773 1.392 1_554 S
C777 C776 1.391 . S
C778 H768 0.950 . S
C778 C779 1.387 1_455 S
C778 C780 1.391 . S
C779 C778 1.387 1_655 S
C779 C783 1.392 1_554 S
C780 H769 0.950 . S
C780 C778 1.391 . S
C780 C781 1.398 1_455 S
C781 C775 1.490 1_664 S
C781 C780 1.398 1_655 S
C781 C782 1.401 1_554 S
C782 H770 0.950 . S
C782 C781 1.401 1_556 S
C782 C783 1.391 . S
C783 H771 0.950 . S
C783 C779 1.392 1_556 S
C783 C782 1.391 . S
H784 C792 0.950 . S
H785 C797 0.950 . S
H786 C794 0.950 . S
H787 C796 0.950 . S
H788 C798 0.950 . S
H789 C800 0.950 . S
H790 C802 0.950 . S
H791 C803 0.950 . S
C792 H784 0.950 . S
C792 C793 1.389 . S
C792 C794 1.391 . S
C793 C792 1.389 . S
C793 C797 1.390 1_565 S
C794 H786 0.950 . S
C794 C792 1.391 . S
C794 C795 1.398 1_565 S
C795 C794 1.398 1_545 S
C795 C796 1.401 . S
C795 C801 1.490 1_445 S
C796 H787 0.950 . S
C796 C795 1.401 . S
C796 C797 1.391 . S
C797 H785 0.950 . S
C797 C793 1.390 1_545 S
C797 C796 1.391 . S
C798 H788 0.950 . S
C798 C799 1.389 . S
C798 C800 1.391 . S
C799 C798 1.389 . S
C799 C803 1.390 1_545 S
C800 H789 0.950 . S
C800 C798 1.391 . S
C800 C801 1.398 1_545 S
C801 C795 1.490 1_665 S
C801 C800 1.398 1_565 S
C801 C802 1.401 . S
C802 H790 0.950 . S
C802 C801 1.401 . S
C802 C803 1.391 . S
C803 H791 0.950 . S
C803 C799 1.390 1_565 S
C803 C802 1.391 . S
H804 C812 0.950 . S
H805 C817 0.950 . S
H806 C814 0.950 . S
H807 C816 0.950 . S
H808 C818 0.950 . S
H809 C820 0.950 . S
H810 C822 0.950 . S
H811 C823 0.950 . S
C812 H804 0.950 . S
C812 C813 1.386 . S
C812 C814 1.391 . S
C813 C812 1.386 . S
C813 C817 1.393 . S
C814 H806 0.950 . S
C814 C812 1.391 . S
C814 C815 1.400 . S
C815 C814 1.400 . S
C815 C816 1.398 . S
C815 C821 1.491 1_565 S
C816 H807 0.950 . S
C816 C815 1.398 . S
C816 C817 1.391 . S
C817 H805 0.950 . S
C817 C813 1.393 . S
C817 C816 1.391 . S
C818 H808 0.950 . S
C818 C819 1.386 . S
C818 C820 1.391 . S
C819 C818 1.386 . S
C819 C823 1.393 . S
C820 H809 0.950 . S
C820 C818 1.391 . S
C820 C821 1.400 . S
C821 C815 1.491 1_545 S
C821 C820 1.400 . S
C821 C822 1.398 . S
C822 H810 0.950 . S
C822 C821 1.398 . S
C822 C823 1.391 . S
C823 H811 0.950 . S
C823 C819 1.393 . S
C823 C822 1.391 . S
H824 C832 0.950 . S
H825 C837 0.950 . S
H826 C834 0.950 . S
H827 C836 0.950 . S
H828 C838 0.950 . S
H829 C840 0.950 . S
H830 C842 0.950 . S
H831 C843 0.950 . S
C832 H824 0.950 . S
C832 C833 1.386 . S
C832 C834 1.391 . S
C833 C832 1.386 . S
C833 C837 1.393 . S
C834 H826 0.950 . S
C834 C832 1.391 . S
C834 C835 1.400 . S
C835 C834 1.400 . S
C835 C836 1.398 . S
C835 C841 1.491 . S
C836 H827 0.950 . S
C836 C835 1.398 . S
C836 C837 1.391 . S
C837 H825 0.950 . S
C837 C833 1.393 . S
C837 C836 1.391 . S
C838 H828 0.950 . S
C838 C839 1.386 . S
C838 C840 1.391 . S
C839 C838 1.386 . S
C839 C843 1.393 . S
C840 H829 0.950 . S
C840 C838 1.391 . S
C840 C841 1.400 . S
C841 C835 1.491 . S
C841 C840 1.400 . S
C841 C842 1.398 . S
C842 H830 0.950 . S
C842 C841 1.398 . S
C842 C843 1.391 . S
C843 H831 0.950 . S
C843 C839 1.393 . S
C843 C842 1.391 . S
H844 C852 0.950 . S
H845 C857 0.950 . S
H846 C854 0.950 . S
H847 C856 0.950 . S
H848 C858 0.950 . S
H849 C860 0.950 . S
H850 C862 0.950 . S
H851 C863 0.950 . S
C852 H844 0.950 . S
C852 C853 1.386 1_655 S
C852 C854 1.391 . S
C853 C852 1.386 1_455 S
C853 C857 1.393 . S
C854 H846 0.950 . S
C854 C852 1.391 . S
C854 C855 1.392 1_655 S
C855 C854 1.392 1_455 S
C855 C856 1.408 . S
C855 C861 1.489 1_455 S
C856 H847 0.950 . S
C856 C855 1.408 . S
C856 C857 1.391 . S
C857 H845 0.950 . S
C857 C853 1.393 . S
C857 C856 1.391 . S
C858 H848 0.950 . S
C858 C859 1.386 1_455 S
C858 C860 1.391 . S
C859 C858 1.386 1_655 S
C859 C863 1.393 . S
C860 H849 0.950 . S
C860 C858 1.391 . S
C860 C861 1.392 1_455 S
C861 C855 1.489 1_655 S
C861 C860 1.392 1_655 S
C861 C862 1.408 . S
C862 H850 0.950 . S
C862 C861 1.408 . S
C862 C863 1.391 . S
C863 H851 0.950 . S
C863 C859 1.393 . S
C863 C862 1.391 . S
C233 C79 0.478 . S
C239 C9 0.526 . S
C253 C93 0.550 . S
C259 C23 0.514 . S
C273 C37 0.483 . S
C279 C107 0.516 . S
C293 C51 0.500 . S
C299 C65 0.554 . S
C313 C121 0.477 . S
C319 C191 0.532 . S
C333 C205 0.483 . S
C339 C135 0.551 . S
C353 C219 0.490 . S
C359 C149 0.507 . S
C373 C163 0.533 . S
C379 C177 0.536 . S
C393 C6 1.582 . S
C399 C176 1.545 . S
C413 C190 1.548 . S
C419 C20 1.580 . S
C433 C34 1.575 . S
C439 C204 1.547 . S
C453 C48 1.582 . S
C459 C218 1.545 . S
C473 C62 1.585 . S
C479 C120 1.535 . S
C493 C76 1.578 . S
C499 C134 1.549 . S
C513 C90 1.586 . S
C519 C148 1.528 . S
C533 C104 1.584 . S
C539 C162 1.540 . S
C553 C64 1.544 . S
C559 C118 1.575 . S
C573 C78 1.535 . S
C579 C132 1.586 . S
C593 C92 1.543 . S
C599 C146 1.582 . S
C613 C160 1.578 . S
C619 C106 1.550 . S
C633 C8 1.549 . S
C639 C174 1.576 . S
C653 C188 1.580 . S
C659 C22 1.529 . S
C673 C202 1.580 . S
C679 C36 1.529 . S
C693 C50 1.531 . S
C699 C216 1.579 . S
C713 C119 1.533 . S
C719 C7 1.533 . S
C733 C133 1.540 . S
C739 C21 1.540 . S
C753 C35 1.525 . S
C759 C147 1.525 . S
C773 C161 1.531 1_455 S
C779 C49 1.531 1_655 S
C793 C63 1.539 . S
C799 C175 1.539 . S
C813 C189 1.532 . S
C819 C77 1.532 . S
C833 C203 1.534 . S
C839 C91 1.534 . S
C853 C217 1.525 . S
C859 C105 1.525 . S
