# Generated by pormake.
# Topology wjn, (5)-cn, num edge types: 1
# Building blocks:
#     Node 0, Type 0, BuildingBlock: BEQFEK_clean_sbu_0, # of connection points: 5
#     Node 1, Type 0, BuildingBlock: BEQFEK_clean_sbu_0, # of connection points: 5
#     Node 2, Type 0, BuildingBlock: BEQFEK_clean_sbu_0, # of connection points: 5
#     Node 3, Type 0, BuildingBlock: BEQFEK_clean_sbu_0, # of connection points: 5
#     Node 4, Type 0, BuildingBlock: BEQFEK_clean_sbu_0, # of connection points: 5
#     Node 5, Type 0, BuildingBlock: BEQFEK_clean_sbu_0, # of connection points: 5
#     Node 6, Type 0, BuildingBlock: BEQFEK_clean_sbu_0, # of connection points: 5
#     Node 7, Type 0, BuildingBlock: BEQFEK_clean_sbu_0, # of connection points: 5
#     Node 8, Type 0, BuildingBlock: BEQFEK_clean_sbu_0, # of connection points: 5
#     Node 9, Type 0, BuildingBlock: BEQFEK_clean_sbu_0, # of connection points: 5
#     Node 10, Type 0, BuildingBlock: BEQFEK_clean_sbu_0, # of connection points: 5
#     Node 11, Type 0, BuildingBlock: BEQFEK_clean_sbu_0, # of connection points: 5
#     Edge 12, Type (0, 0), BuildingBlock: MIFKUJ_clean_linker_0, # of connection points: 2
#     Edge 13, Type (0, 0), BuildingBlock: MIFKUJ_clean_linker_0, # of connection points: 2
#     Edge 14, Type (0, 0), BuildingBlock: MIFKUJ_clean_linker_0, # of connection points: 2
#     Edge 15, Type (0, 0), BuildingBlock: MIFKUJ_clean_linker_0, # of connection points: 2
#     Edge 16, Type (0, 0), BuildingBlock: MIFKUJ_clean_linker_0, # of connection points: 2
#     Edge 17, Type (0, 0), BuildingBlock: MIFKUJ_clean_linker_0, # of connection points: 2
#     Edge 18, Type (0, 0), BuildingBlock: MIFKUJ_clean_linker_0, # of connection points: 2
#     Edge 19, Type (0, 0), BuildingBlock: MIFKUJ_clean_linker_0, # of connection points: 2
#     Edge 20, Type (0, 0), BuildingBlock: MIFKUJ_clean_linker_0, # of connection points: 2
#     Edge 21, Type (0, 0), BuildingBlock: MIFKUJ_clean_linker_0, # of connection points: 2
#     Edge 22, Type (0, 0), BuildingBlock: MIFKUJ_clean_linker_0, # of connection points: 2
#     Edge 23, Type (0, 0), BuildingBlock: MIFKUJ_clean_linker_0, # of connection points: 2
#     Edge 24, Type (0, 0), BuildingBlock: MIFKUJ_clean_linker_0, # of connection points: 2
#     Edge 25, Type (0, 0), BuildingBlock: MIFKUJ_clean_linker_0, # of connection points: 2
#     Edge 26, Type (0, 0), BuildingBlock: MIFKUJ_clean_linker_0, # of connection points: 2
#     Edge 27, Type (0, 0), BuildingBlock: MIFKUJ_clean_linker_0, # of connection points: 2
#     Edge 28, Type (0, 0), BuildingBlock: MIFKUJ_clean_linker_0, # of connection points: 2
#     Edge 29, Type (0, 0), BuildingBlock: MIFKUJ_clean_linker_0, # of connection points: 2
#     Edge 30, Type (0, 0), BuildingBlock: MIFKUJ_clean_linker_0, # of connection points: 2
#     Edge 31, Type (0, 0), BuildingBlock: MIFKUJ_clean_linker_0, # of connection points: 2
#     Edge 32, Type (0, 0), BuildingBlock: MIFKUJ_clean_linker_0, # of connection points: 2
#     Edge 33, Type (0, 0), BuildingBlock: MIFKUJ_clean_linker_0, # of connection points: 2
#     Edge 34, Type (0, 0), BuildingBlock: MIFKUJ_clean_linker_0, # of connection points: 2
#     Edge 35, Type (0, 0), BuildingBlock: MIFKUJ_clean_linker_0, # of connection points: 2
#     Edge 36, Type (0, 0), BuildingBlock: MIFKUJ_clean_linker_0, # of connection points: 2
#     Edge 37, Type (0, 0), BuildingBlock: MIFKUJ_clean_linker_0, # of connection points: 2
#     Edge 38, Type (0, 0), BuildingBlock: MIFKUJ_clean_linker_0, # of connection points: 2
#     Edge 39, Type (0, 0), BuildingBlock: MIFKUJ_clean_linker_0, # of connection points: 2
#     Edge 40, Type (0, 0), BuildingBlock: MIFKUJ_clean_linker_0, # of connection points: 2
#     Edge 41, Type (0, 0), BuildingBlock: MIFKUJ_clean_linker_0, # of connection points: 2
# Relax obj value: 0.365
# Max RMSD: 0.190
# Mean RMSD: 0.190
data_MOF--net-wjn--node1-BEQFEK_clean_sbu_0--edge1-MIFKUJ_clean_linker_0
_symmetry_space_group_name_H-M    P1
_symmetry_Int_Tables_number       1
_symmetry_cell_setting            triclinic
loop_
_symmetry_equiv_pos_as_xyz
'x, y, z'
_cell_length_a     43.270491
_cell_length_b     43.281671
_cell_length_c     98.239367
_cell_angle_alpha  89.986386
_cell_angle_beta   90.006203
_cell_angle_gamma 120.0019
loop_
_atom_site_label
_atom_site_type_symbol
_atom_site_fract_x
_atom_site_fract_y
_atom_site_fract_z
_atom_type_partial_charge
Co0 Co 0.15409 0.42638 0.1018 0.0
Co1 Co 0.21266 0.41249 0.11388 0.0
C2 C 0.20827 0.47743 0.12149 0.0
O3 O 0.18182 0.46817 0.11359 0.0
O4 O 0.22285 0.4583 0.12278 0.0
C5 C 0.1312 0.46725 0.08718 0.0
O6 O 0.1635 0.49312 0.09011 0.0
C7 C 0.28585 0.42971 0.11801 0.0
C8 C 0.28074 0.37814 0.12404 0.0
C9 C 0.30553 0.41359 0.1215 0.0
N10 N 0.25112 0.40485 0.11828 0.0
N11 N 0.24813 0.37408 0.12194 0.0
C12 C 0.29902 0.46847 0.11544 0.0
H13 H 0.29169 0.47952 0.12425 0.0
H14 H 0.28556 0.47143 0.10633 0.0
H15 H 0.32833 0.48429 0.11419 0.0
C16 C 0.18325 0.41792 0.07601 0.0
N17 N 0.18362 0.41962 0.08968 0.0
N18 N 0.20872 0.41388 0.09446 0.0
C19 C 0.22527 0.40841 0.0838 0.0
C20 C 0.20969 0.4111 0.07184 0.0
C21 C 0.15697 0.4211 0.06704 0.0
H22 H 0.12964 0.40457 0.07117 0.0
H23 H 0.16354 0.44935 0.06677 0.0
H24 H 0.15759 0.41248 0.05646 0.0
O25 O 0.12633 0.38328 0.11302 0.0
O26 O 0.16768 0.37304 0.12187 0.0
H27 H 0.24674 0.37778 0.0925 0.0
H28 H 0.26019 0.39145 0.07504 0.0
C29 C 0.25444 0.39959 0.08501 0.0
H30 H 0.27901 0.42337 0.08873 0.0
H31 H 0.22388 0.35032 0.12293 0.0
O32 O 0.12097 0.43583 0.09138 0.0
C33 C 0.13513 0.36493 0.12054 0.0
Co34 Co 0.72596 0.14615 0.43727 0.0
Co35 Co 0.79743 0.20949 0.44791 0.0
C36 C 0.72715 0.20224 0.45568 0.0
O37 O 0.71073 0.17407 0.44853 0.0
O38 O 0.76108 0.21908 0.45649 0.0
C39 C 0.66168 0.11804 0.4226 0.0
O40 O 0.66757 0.15074 0.42401 0.0
C41 C 0.85214 0.2838 0.45203 0.0
C42 C 0.90097 0.28036 0.45493 0.0
C43 C 0.88859 0.30431 0.45428 0.0
N44 N 0.84339 0.24937 0.45146 0.0
N45 N 0.87262 0.24742 0.45328 0.0
C46 C 0.82642 0.29663 0.44922 0.0
H47 H 0.80462 0.27752 0.44248 0.0
H48 H 0.84012 0.32338 0.44438 0.0
H49 H 0.81445 0.29843 0.45896 0.0
C50 C 0.76127 0.17229 0.41079 0.0
N51 N 0.7607 0.1748 0.42443 0.0
N52 N 0.79059 0.20258 0.42859 0.0
C53 C 0.81081 0.2193 0.41755 0.0
C54 C 0.79282 0.20045 0.40597 0.0
C55 C 0.73198 0.14351 0.40248 0.0
H56 H 0.72208 0.11729 0.40749 0.0
H57 H 0.70975 0.14916 0.40159 0.0
H58 H 0.74091 0.14206 0.39207 0.0
O59 O 0.74412 0.12189 0.44886 0.0
O60 O 0.79475 0.16655 0.45699 0.0
H61 H 0.86471 0.24673 0.42466 0.0
H62 H 0.85893 0.25971 0.40775 0.0
C63 C 0.84698 0.25189 0.41806 0.0
H64 H 0.84483 0.2742 0.42258 0.0
H65 H 0.87332 0.22366 0.45315 0.0
O66 O 0.68343 0.10974 0.42776 0.0
C67 C 0.77187 0.13332 0.45624 0.0
Co68 Co 0.60012 0.73916 0.77739 0.0
Co69 Co 0.59183 0.80453 0.78484 0.0
C70 C 0.53993 0.73347 0.79531 0.0
O71 O 0.55834 0.72138 0.78978 0.0
O72 O 0.5484 0.76602 0.7939 0.0
C73 C 0.56806 0.67349 0.76497 0.0
O74 O 0.54127 0.67961 0.76572 0.0
C75 C 0.56839 0.85648 0.79119 0.0
C76 C 0.61095 0.905 0.78128 0.0
C77 C 0.57896 0.89186 0.78824 0.0
N78 N 0.59262 0.84903 0.78589 0.0
N79 N 0.61822 0.87831 0.78017 0.0
C80 C 0.53727 0.83075 0.79962 0.0
H81 H 0.54536 0.81539 0.80631 0.0
H82 H 0.51563 0.81171 0.79282 0.0
H83 H 0.52714 0.84471 0.80612 0.0
C84 C 0.59805 0.76261 0.74962 0.0
N85 N 0.59795 0.76676 0.76317 0.0
N86 N 0.59166 0.79281 0.76594 0.0
C87 C 0.58563 0.80486 0.75407 0.0
C88 C 0.58934 0.78586 0.74336 0.0
C89 C 0.60868 0.7385 0.74267 0.0
H90 H 0.62792 0.73506 0.74902 0.0
H91 H 0.58467 0.71209 0.74089 0.0
H92 H 0.6211 0.74964 0.73264 0.0
O93 O 0.6436 0.76647 0.78765 0.0
O94 O 0.63557 0.81057 0.79502 0.0
H95 H 0.59736 0.85886 0.75287 0.0
H96 H 0.55822 0.82791 0.74353 0.0
C97 C 0.5736 0.83171 0.75304 0.0
H98 H 0.5569 0.82955 0.76195 0.0
H99 H 0.64022 0.87979 0.77519 0.0
O100 O 0.59822 0.69646 0.76972 0.0
C101 C 0.65349 0.7944 0.79473 0.0
Co102 Co 0.85145 0.58681 0.10422 0.0
Co103 Co 0.78395 0.58734 0.11509 0.0
C104 C 0.79689 0.5285 0.12259 0.0
O105 O 0.82579 0.54372 0.11581 0.0
O106 O 0.77651 0.54179 0.12311 0.0
C107 C 0.87456 0.55089 0.0878 0.0
O108 O 0.83999 0.52851 0.088 0.0
C109 C 0.71112 0.56816 0.1235 0.0
C110 C 0.70794 0.6148 0.11625 0.0
C111 C 0.68779 0.58127 0.12202 0.0
N112 N 0.74309 0.59233 0.11842 0.0
N113 N 0.74119 0.62045 0.11438 0.0
C114 C 0.7042 0.53454 0.13046 0.0
H115 H 0.72711 0.54026 0.13713 0.0
H116 H 0.70142 0.51465 0.12272 0.0
H117 H 0.67987 0.52331 0.13688 0.0
C118 C 0.82458 0.59632 0.07802 0.0
N119 N 0.82164 0.59157 0.09159 0.0
N120 N 0.79126 0.58836 0.09572 0.0
C121 C 0.77279 0.58858 0.08461 0.0
C122 C 0.79368 0.59417 0.07312 0.0
C123 C 0.85644 0.6029 0.06977 0.0
H124 H 0.85264 0.57707 0.06602 0.0
H125 H 0.85971 0.61967 0.06075 0.0
H126 H 0.88105 0.61649 0.07599 0.0
O127 O 0.87406 0.62916 0.11564 0.0
O128 O 0.82624 0.62825 0.12456 0.0
H129 H 0.73726 0.60903 0.0866 0.0
H130 H 0.72217 0.57227 0.07498 0.0
C131 C 0.73581 0.58303 0.08486 0.0
H132 H 0.72013 0.56447 0.09318 0.0
H133 H 0.76225 0.64295 0.10985 0.0
O134 O 0.88705 0.57989 0.09444 0.0
C135 C 0.86008 0.64206 0.12354 0.0
Co136 Co 0.2623 0.84833 0.43724 0.0
Co137 Co 0.19497 0.78225 0.44945 0.0
C138 C 0.2677 0.79704 0.45677 0.0
O139 O 0.28087 0.82445 0.44916 0.0
O140 O 0.23406 0.77705 0.45794 0.0
C141 C 0.31902 0.86816 0.41994 0.0
O142 O 0.30582 0.83349 0.42074 0.0
C143 C 0.14183 0.70749 0.45509 0.0
C144 C 0.09202 0.70979 0.45636 0.0
C145 C 0.10509 0.68639 0.4566 0.0
N146 N 0.14988 0.74162 0.45371 0.0
N147 N 0.12006 0.74287 0.45464 0.0
C148 C 0.16925 0.69603 0.45555 0.0
H149 H 0.19019 0.71265 0.46304 0.0
H150 H 0.1822 0.70035 0.44544 0.0
H151 H 0.15765 0.66775 0.45863 0.0
C152 C 0.22429 0.81755 0.41172 0.0
N153 N 0.22687 0.81654 0.42532 0.0
N154 N 0.19959 0.78705 0.43003 0.0
C155 C 0.17952 0.7676 0.41933 0.0
C156 C 0.19487 0.78646 0.40744 0.0
C157 C 0.24786 0.8487 0.40286 0.0
H158 H 0.25939 0.87396 0.40869 0.0
H159 H 0.26952 0.84499 0.39861 0.0
H160 H 0.23233 0.85041 0.39419 0.0
O161 O 0.24335 0.87228 0.44851 0.0
O162 O 0.19647 0.82537 0.45787 0.0
H163 H 0.12609 0.73436 0.42631 0.0
H164 H 0.13564 0.72074 0.41019 0.0
C165 C 0.14655 0.73185 0.4204 0.0
H166 H 0.15275 0.71327 0.42592 0.0
H167 H 0.11874 0.76621 0.45373 0.0
O168 O 0.30405 0.88232 0.42658 0.0
C169 C 0.21662 0.85908 0.45652 0.0
Co170 Co 0.40933 0.26316 0.76846 0.0
Co171 Co 0.40393 0.19306 0.77958 0.0
C172 C 0.46222 0.26322 0.78881 0.0
O173 O 0.44848 0.27778 0.78172 0.0
O174 O 0.44878 0.2295 0.78879 0.0
C175 C 0.45358 0.32228 0.75382 0.0
O176 O 0.47217 0.30597 0.75508 0.0
C177 C 0.41991 0.13739 0.78826 0.0
C178 C 0.37282 0.08853 0.78063 0.0
C179 C 0.40591 0.10086 0.78666 0.0
N180 N 0.39671 0.14629 0.783 0.0
N181 N 0.36829 0.11683 0.77873 0.0
C182 C 0.45368 0.16324 0.79538 0.0
H183 H 0.44835 0.18034 0.80226 0.0
H184 H 0.47382 0.18058 0.78774 0.0
H185 H 0.46445 0.14942 0.80162 0.0
C186 C 0.40655 0.22991 0.74226 0.0
N187 N 0.40704 0.22958 0.75592 0.0
N188 N 0.40707 0.20079 0.7602 0.0
C189 C 0.40814 0.18257 0.74915 0.0
C190 C 0.40799 0.2007 0.73749 0.0
C191 C 0.40203 0.25617 0.73378 0.0
H192 H 0.38736 0.26683 0.73953 0.0
H193 H 0.42865 0.27843 0.73081 0.0
H194 H 0.38716 0.24342 0.72429 0.0
O195 O 0.36423 0.24383 0.77815 0.0
O196 O 0.36212 0.19595 0.78761 0.0
H197 H 0.38356 0.1261 0.75115 0.0
H198 H 0.4216 0.14554 0.73999 0.0
C199 C 0.41065 0.14938 0.74966 0.0
H200 H 0.42778 0.15068 0.75828 0.0
H201 H 0.34643 0.11625 0.77398 0.0
O202 O 0.42236 0.30783 0.75887 0.0
C203 C 0.34922 0.21661 0.78588 0.0
Co204 Co 0.5904 0.85638 0.56607 0.0
Co205 Co 0.58714 0.78654 0.55602 0.0
C206 C 0.53226 0.80509 0.54724 0.0
O207 O 0.54742 0.83365 0.55424 0.0
O208 O 0.54457 0.78382 0.54694 0.0
C209 C 0.56193 0.89253 0.58033 0.0
O210 O 0.53252 0.86145 0.57932 0.0
C211 C 0.5616 0.71193 0.54831 0.0
C212 C 0.60518 0.704 0.55593 0.0
C213 C 0.57159 0.68626 0.55005 0.0
N214 N 0.58762 0.74306 0.55331 0.0
N215 N 0.61387 0.73828 0.55762 0.0
C216 C 0.52911 0.7078 0.54124 0.0
H217 H 0.53712 0.73025 0.53404 0.0
H218 H 0.51063 0.70867 0.54886 0.0
H219 H 0.51522 0.6826 0.53537 0.0
C220 C 0.58952 0.8262 0.59286 0.0
N221 N 0.58969 0.82474 0.5792 0.0
N222 N 0.58584 0.79393 0.57532 0.0
C223 C 0.58137 0.77403 0.58658 0.0
C224 C 0.58342 0.79392 0.59804 0.0
C225 C 0.59748 0.85873 0.60093 0.0
H226 H 0.61678 0.88319 0.59541 0.0
H227 H 0.57242 0.85926 0.60264 0.0
H228 H 0.60892 0.85848 0.61102 0.0
O229 O 0.63348 0.875 0.55513 0.0
O230 O 0.63119 0.82601 0.54697 0.0
H231 H 0.59763 0.73505 0.58516 0.0
H232 H 0.55968 0.72225 0.59606 0.0
C233 C 0.57262 0.73595 0.58641 0.0
H234 H 0.55466 0.72168 0.57775 0.0
H235 H 0.63719 0.75816 0.56215 0.0
O236 O 0.59055 0.89667 0.57508 0.0
C237 C 0.64636 0.85992 0.54786 0.0
Co238 Co 0.72336 0.57036 0.89957 0.0
Co239 Co 0.79477 0.58206 0.88731 0.0
C240 C 0.72419 0.5211 0.87827 0.0
O241 O 0.70811 0.53108 0.88643 0.0
O242 O 0.75815 0.53814 0.87741 0.0
C243 C 0.65915 0.52939 0.91385 0.0
O244 O 0.66507 0.50338 0.91056 0.0
C245 C 0.84993 0.56403 0.88161 0.0
C246 C 0.89801 0.61684 0.87866 0.0
C247 C 0.88627 0.5806 0.87897 0.0
N248 N 0.84068 0.58926 0.88275 0.0
N249 N 0.86944 0.62077 0.88086 0.0
C250 C 0.82486 0.52529 0.88434 0.0
H251 H 0.80264 0.52193 0.89099 0.0
H252 H 0.83905 0.5128 0.88923 0.0
H253 H 0.81338 0.51148 0.87456 0.0
C254 C 0.75871 0.57159 0.92525 0.0
N255 N 0.7581 0.5725 0.91157 0.0
N256 N 0.78859 0.57747 0.90671 0.0
C257 C 0.8097 0.5799 0.91732 0.0
C258 C 0.79108 0.57572 0.92934 0.0
C259 C 0.73011 0.56986 0.93435 0.0
H260 H 0.72036 0.5874 0.93036 0.0
H261 H 0.70758 0.54202 0.9347 0.0
H262 H 0.73991 0.57831 0.9449 0.0
O263 O 0.74131 0.61586 0.88985 0.0
O264 O 0.79181 0.62433 0.8806 0.0
H265 H 0.86277 0.61076 0.90953 0.0
H266 H 0.86014 0.59139 0.92615 0.0
C267 C 0.84711 0.58698 0.91604 0.0
H268 H 0.84681 0.56384 0.91108 0.0
H269 H 0.86971 0.64499 0.88139 0.0
O270 O 0.68084 0.56097 0.90996 0.0
C271 C 0.76891 0.63425 0.88257 0.0
Co272 Co 0.16017 0.72356 0.23309 0.0
Co273 Co 0.21301 0.79908 0.22168 0.0
C274 C 0.21446 0.73222 0.21302 0.0
O275 O 0.19011 0.71266 0.2214 0.0
O276 O 0.22486 0.76534 0.21178 0.0
C277 C 0.13578 0.65729 0.24678 0.0
O278 O 0.16699 0.6616 0.24327 0.0
C279 C 0.28512 0.85951 0.21954 0.0
C280 C 0.27677 0.90178 0.21076 0.0
C281 C 0.30306 0.89489 0.21534 0.0
N282 N 0.24997 0.84636 0.2177 0.0
N283 N 0.24509 0.87172 0.21247 0.0
C284 C 0.30096 0.83767 0.22447 0.0
H285 H 0.30829 0.84356 0.23535 0.0
H286 H 0.32544 0.84427 0.21861 0.0
H287 H 0.28152 0.80881 0.22362 0.0
C288 C 0.18757 0.76001 0.25919 0.0
N289 N 0.18788 0.75987 0.24551 0.0
N290 N 0.2095 0.79234 0.24102 0.0
C291 C 0.22297 0.81446 0.25187 0.0
C292 C 0.20973 0.79441 0.26366 0.0
C293 C 0.16505 0.72812 0.26789 0.0
H294 H 0.13654 0.71677 0.26515 0.0
H295 H 0.17284 0.70766 0.26611 0.0
H296 H 0.1685 0.73497 0.27886 0.0
O297 O 0.1307 0.73683 0.22174 0.0
O298 O 0.16706 0.79188 0.21431 0.0
H299 H 0.23639 0.86438 0.24246 0.0
H300 H 0.24423 0.86691 0.26066 0.0
C301 C 0.24544 0.85418 0.25102 0.0
H302 H 0.27357 0.86156 0.24918 0.0
H303 H 0.22018 0.86846 0.20999 0.0
O304 O 0.12736 0.68031 0.24322 0.0
C305 C 0.13608 0.76433 0.21505 0.0
Co306 Co 0.43481 0.16661 0.561 0.0
Co307 Co 0.40878 0.21833 0.55143 0.0
C308 C 0.47524 0.22246 0.54017 0.0
O309 O 0.47129 0.19709 0.54777 0.0
O310 O 0.45297 0.23349 0.54023 0.0
C311 C 0.48597 0.15395 0.57296 0.0
O312 O 0.50599 0.1884 0.5708 0.0
C313 C 0.4164 0.28868 0.55065 0.0
C314 C 0.36469 0.27875 0.54242 0.0
C315 C 0.39766 0.30561 0.54692 0.0
N316 N 0.3954 0.25349 0.5486 0.0
N317 N 0.36446 0.24762 0.54372 0.0
C318 C 0.45456 0.30565 0.55513 0.0
H319 H 0.47147 0.32976 0.54893 0.0
H320 H 0.46455 0.28665 0.55437 0.0
H321 H 0.45682 0.31394 0.56592 0.0
C322 C 0.42699 0.19087 0.58798 0.0
N323 N 0.42733 0.19316 0.57432 0.0
N324 N 0.41536 0.21449 0.5706 0.0
C325 C 0.4066 0.22616 0.58195 0.0
C326 C 0.41418 0.21185 0.59326 0.0
C327 C 0.43577 0.16658 0.59584 0.0
H328 H 0.42176 0.13948 0.59133 0.0
H329 H 0.46492 0.17699 0.59531 0.0
H330 H 0.42822 0.16479 0.60672 0.0
O331 O 0.38918 0.13471 0.55171 0.0
O332 O 0.37077 0.17149 0.54428 0.0
H333 H 0.36734 0.2375 0.57377 0.0
H334 H 0.37427 0.24454 0.59196 0.0
C335 C 0.38751 0.24698 0.58202 0.0
H336 H 0.407 0.27554 0.58024 0.0
H337 H 0.34341 0.22248 0.5411 0.0
O338 O 0.45332 0.13822 0.56948 0.0
C339 C 0.36663 0.14027 0.54542 0.0
Co340 Co 0.2602 0.40828 0.89786 0.0
Co341 Co 0.19332 0.40897 0.88634 0.0
C342 C 0.26606 0.46653 0.87901 0.0
O343 O 0.27886 0.45092 0.88606 0.0
O344 O 0.2325 0.45404 0.87829 0.0
C345 C 0.31893 0.44324 0.91457 0.0
O346 O 0.30753 0.46625 0.91425 0.0
C347 C 0.14064 0.43145 0.88073 0.0
C348 C 0.09026 0.37974 0.88021 0.0
C349 C 0.10388 0.41626 0.87941 0.0
N350 N 0.1482 0.40512 0.8825 0.0
N351 N 0.118 0.37428 0.88205 0.0
C352 C 0.16856 0.47002 0.87954 0.0
H353 H 0.18796 0.47294 0.87157 0.0
H354 H 0.18323 0.47934 0.88931 0.0
H355 H 0.15721 0.48703 0.87663 0.0
C356 C 0.22343 0.4013 0.92382 0.0
N357 N 0.22561 0.40502 0.91021 0.0
N358 N 0.19843 0.40774 0.90571 0.0
C359 C 0.17891 0.40741 0.91654 0.0
C360 C 0.19428 0.40325 0.9283 0.0
C361 C 0.24798 0.39473 0.93254 0.0
H362 H 0.25869 0.38019 0.92674 0.0
H363 H 0.27027 0.42063 0.93612 0.0
H364 H 0.23381 0.37888 0.94168 0.0
O365 O 0.24025 0.36574 0.88647 0.0
O366 O 0.19412 0.36739 0.87723 0.0
H367 H 0.12503 0.38791 0.9103 0.0
H368 H 0.13688 0.41306 0.92599 0.0
C369 C 0.14652 0.41128 0.9157 0.0
H370 H 0.15284 0.43555 0.90978 0.0
H371 H 0.11627 0.34952 0.88328 0.0
O372 O 0.30201 0.41429 0.90792 0.0
C373 C 0.21369 0.3531 0.8784 0.0
Co374 Co 0.84801 0.26224 0.23089 0.0
Co375 Co 0.78104 0.1947 0.21967 0.0
C376 C 0.79514 0.26677 0.21188 0.0
O377 O 0.82349 0.28041 0.219 0.0
O378 O 0.77483 0.23308 0.21122 0.0
C379 C 0.87277 0.32157 0.24752 0.0
O380 O 0.83852 0.31098 0.24729 0.0
C381 C 0.70618 0.14276 0.21442 0.0
C382 C 0.70681 0.09206 0.21341 0.0
C383 C 0.6844 0.10627 0.21278 0.0
N384 N 0.73997 0.14985 0.21587 0.0
N385 N 0.74025 0.1195 0.21513 0.0
C386 C 0.69483 0.17006 0.21599 0.0
H387 H 0.71345 0.19182 0.22284 0.0
H388 H 0.66733 0.15786 0.22013 0.0
H389 H 0.6954 0.18173 0.20587 0.0
C390 C 0.818 0.22709 0.25707 0.0
N391 N 0.81684 0.22816 0.24342 0.0
N392 N 0.78711 0.20055 0.23904 0.0
C393 C 0.76772 0.1818 0.24998 0.0
C394 C 0.78678 0.19838 0.2617 0.0
C395 C 0.84932 0.25145 0.26572 0.0
H396 H 0.87454 0.26191 0.25991 0.0
H397 H 0.84602 0.27385 0.2694 0.0
H398 H 0.85078 0.23692 0.27478 0.0
O399 O 0.87074 0.24191 0.21973 0.0
O400 O 0.82316 0.19536 0.21057 0.0
H401 H 0.73301 0.12828 0.24337 0.0
H402 H 0.72089 0.139 0.25959 0.0
C403 C 0.7315 0.14932 0.24928 0.0
H404 H 0.71299 0.15591 0.24391 0.0
H405 H 0.76315 0.11743 0.21618 0.0
O406 O 0.88411 0.30417 0.2408 0.0
C407 C 0.85693 0.2151 0.2118 0.0
H408 H 0.63923 0.5099 0.11888 0.0
H409 H 0.57471 0.4806 0.12081 0.0
H410 H 0.5822 0.58191 0.12937 0.0
H411 H 0.64736 0.61106 0.12864 0.0
H412 H 0.53066 0.53317 0.14378 0.0
H413 H 0.56431 0.54413 0.0968 0.0
H414 H 0.59434 0.53713 0.07667 0.0
H415 H 0.53423 0.42323 0.08115 0.0
H416 H 0.50419 0.42958 0.10142 0.0
H417 H 0.35372 0.45494 0.10223 0.0
H418 H 0.41874 0.48363 0.10345 0.0
H419 H 0.41022 0.43423 0.1425 0.0
H420 H 0.34502 0.40662 0.14152 0.0
H421 H 0.46224 0.45859 0.10436 0.0
H422 H 0.48176 0.49035 0.16215 0.0
H423 H 0.45233 0.50402 0.18082 0.0
H424 H 0.40657 0.54434 0.15199 0.0
H425 H 0.43608 0.53135 0.13318 0.0
C426 C 0.62744 0.52582 0.12181 0.0
C427 C 0.64863 0.56273 0.12405 0.0
C428 C 0.59033 0.50907 0.12258 0.0
C429 C 0.5735 0.52909 0.12503 0.0
C430 C 0.59455 0.56586 0.1275 0.0
C431 C 0.63177 0.58252 0.127 0.0
C432 C 0.53403 0.51202 0.12433 0.0
C433 C 0.5157 0.51679 0.13518 0.0
C434 C 0.51448 0.49127 0.11296 0.0
C435 C 0.53224 0.48735 0.1007 0.0
C436 C 0.55765 0.5176 0.09353 0.0
C437 C 0.57466 0.51375 0.0821 0.0
C438 C 0.56625 0.47976 0.07765 0.0
C439 C 0.54074 0.44954 0.08461 0.0
C440 C 0.5237 0.45325 0.09607 0.0
C441 C 0.36583 0.45085 0.1112 0.0
C442 C 0.34463 0.42969 0.12201 0.0
C443 C 0.4029 0.46683 0.1118 0.0
C444 C 0.41939 0.4616 0.12318 0.0
C445 C 0.3981 0.43926 0.13377 0.0
C446 C 0.36095 0.42337 0.13317 0.0
C447 C 0.45886 0.47947 0.12385 0.0
C448 C 0.47718 0.47481 0.113 0.0
C449 C 0.47842 0.50126 0.13499 0.0
C450 C 0.46083 0.50949 0.14625 0.0
C451 C 0.4655 0.50223 0.1598 0.0
C452 C 0.44879 0.50985 0.17041 0.0
C453 C 0.42749 0.52491 0.16759 0.0
C454 C 0.42295 0.53252 0.15416 0.0
C455 C 0.43962 0.52499 0.14352 0.0
H456 H 0.41456 0.53077 0.17581 0.0
H457 H 0.57946 0.47683 0.0688 0.0
H458 H 0.1135 0.63791 0.44159 0.0
H459 H 0.07635 0.57308 0.44199 0.0
H460 H 0.00697 0.58131 0.47152 0.0
H461 H 0.04544 0.64637 0.4717 0.0
H462 H 0.01798 0.52854 0.47821 0.0
H463 H 0.9838 0.56448 0.43768 0.0
H464 H 0.99261 0.59541 0.41573 0.0
H465 H 0.03796 0.53553 0.39875 0.0
H466 H 0.02989 0.50458 0.42068 0.0
H467 H 0.87356 0.35061 0.4677 0.0
H468 H 0.91006 0.41578 0.46852 0.0
H469 H 0.99034 0.41147 0.44389 0.0
H470 H 0.95381 0.34625 0.44298 0.0
H471 H 0.97165 0.46197 0.43493 0.0
H472 H 0.00556 0.42677 0.47636 0.0
H473 H 0.99441 0.39576 0.49842 0.0
H474 H 0.94572 0.4543 0.51364 0.0
H475 H 0.95614 0.48532 0.4916 0.0
C476 C 0.09097 0.62588 0.44847 0.0
C477 C 0.083 0.64708 0.45696 0.0
C478 C 0.06931 0.58883 0.44849 0.0
C479 C 0.03867 0.5723 0.4567 0.0
C480 C 0.03054 0.59346 0.46514 0.0
C481 C 0.05241 0.63057 0.4652 0.0
C482 C 0.01516 0.53297 0.45644 0.0
C483 C 0.00742 0.51406 0.46876 0.0
C484 C 0.00175 0.51397 0.44409 0.0
C485 C 0.00654 0.53244 0.43087 0.0
C486 C 0.99591 0.5581 0.4293 0.0
C487 C 0.00072 0.5756 0.41686 0.0
C488 C 0.01591 0.5675 0.40586 0.0
C489 C 0.02623 0.54181 0.40728 0.0
C490 C 0.02151 0.52425 0.41971 0.0
C491 C 0.89882 0.36361 0.46235 0.0
C492 C 0.91068 0.34354 0.45509 0.0
C493 C 0.91976 0.40075 0.46294 0.0
C494 C 0.95285 0.41835 0.45627 0.0
C495 C 0.96481 0.39833 0.44907 0.0
C496 C 0.94406 0.36116 0.44861 0.0
C497 C 0.97486 0.45772 0.45665 0.0
C498 C 0.9822 0.47657 0.44435 0.0
C499 C 0.9875 0.47665 0.46902 0.0
C500 C 0.98129 0.45808 0.48228 0.0
C501 C 0.99218 0.43279 0.48437 0.0
C502 C 0.98606 0.41527 0.49688 0.0
C503 C 0.96927 0.42298 0.50741 0.0
C504 C 0.95866 0.44831 0.50547 0.0
C505 C 0.9647 0.46589 0.49297 0.0
H506 H 0.96456 0.40939 0.51709 0.0
H507 H 0.01962 0.58109 0.39623 0.0
H508 H 0.37461 0.03064 0.79367 0.0
H509 H 0.40286 0.99395 0.79551 0.0
H510 H 0.50506 0.08596 0.78623 0.0
H511 H 0.47659 0.12169 0.78327 0.0
H512 H 0.4992 0.03423 0.7725 0.0
H513 H 0.47913 0.04741 0.81953 0.0
H514 H 0.44434 0.04469 0.83983 0.0
H515 H 0.37815 0.93141 0.83488 0.0
H516 H 0.41226 0.93351 0.81443 0.0
H517 H 0.60842 0.96305 0.79258 0.0
H518 H 0.57783 0.99763 0.79404 0.0
H519 H 0.47621 0.90099 0.79024 0.0
H520 H 0.50652 0.86644 0.78809 0.0
H521 H 0.48119 0.95333 0.81125 0.0
H522 H 0.50379 0.94319 0.76358 0.0
H523 H 0.54216 0.94834 0.74415 0.0
H524 H 0.60828 0.06056 0.75176 0.0
H525 H 0.57058 0.05594 0.77138 0.0
C526 C 0.40316 0.04304 0.79214 0.0
C527 C 0.42354 0.07944 0.78885 0.0
C528 C 0.41935 0.02212 0.7933 0.0
C529 C 0.45631 0.03732 0.79133 0.0
C530 C 0.4766 0.07364 0.78798 0.0
C531 C 0.46034 0.09432 0.78657 0.0
C532 C 0.47374 0.0152 0.79202 0.0
C533 C 0.49557 0.01701 0.7811 0.0
C534 C 0.46858 0.99204 0.80308 0.0
C535 C 0.44802 0.99068 0.81537 0.0
C536 C 0.45698 0.02196 0.82271 0.0
C537 C 0.43741 0.02052 0.83425 0.0
C538 C 0.40899 0.98791 0.83862 0.0
C539 C 0.40014 0.95666 0.83147 0.0
C540 C 0.41959 0.95795 0.81991 0.0
C541 C 0.57953 0.9491 0.79222 0.0
C542 C 0.55991 0.91185 0.79059 0.0
C543 C 0.56214 0.96887 0.79309 0.0
C544 C 0.52482 0.95174 0.79234 0.0
C545 C 0.50503 0.91454 0.79105 0.0
C546 C 0.52244 0.89478 0.78999 0.0
C547 C 0.50668 0.97298 0.79187 0.0
C548 C 0.4847 0.97079 0.80274 0.0
C549 C 0.51213 0.99628 0.7809 0.0
C550 C 0.53459 -0.00086 0.76903 0.0
C551 C 0.52669 0.9689 0.76118 0.0
C552 C 0.54828 0.97173 0.75012 0.0
C553 C 0.5777 0.00474 0.74674 0.0
C554 C 0.58552 0.035 0.7544 0.0
C555 C 0.56404 0.03229 0.76548 0.0
H556 H 0.59438 0.00689 0.73817 0.0
H557 H 0.39388 0.98686 0.84756 0.0
H558 H 0.59539 0.64135 0.54244 0.0
H559 H 0.56077 0.57629 0.54056 0.0
H560 H 0.46501 0.57827 0.55124 0.0
H561 H 0.49983 0.6427 0.55409 0.0
H562 H 0.46628 0.52901 0.56466 0.0
H563 H 0.48298 0.56133 0.51772 0.0
H564 H 0.51655 0.59155 0.49696 0.0
H565 H 0.57534 0.53604 0.49985 0.0
H566 H 0.54246 0.50583 0.52074 0.0
H567 H 0.38482 0.34318 0.52774 0.0
H568 H 0.40813 0.40778 0.52706 0.0
H569 H 0.46259 0.41937 0.56516 0.0
H570 H 0.43791 0.35507 0.56621 0.0
H571 H 0.47458 0.46123 0.52549 0.0
H572 H 0.46806 0.48683 0.5833 0.0
H573 H 0.42961 0.45631 0.60307 0.0
H574 H 0.3407 0.39586 0.57642 0.0
H575 H 0.37846 0.42636 0.55651 0.0
C576 C 0.56689 0.62785 0.54426 0.0
C577 C 0.55013 0.64728 0.54792 0.0
C578 C 0.54708 0.59073 0.54308 0.0
C579 C 0.51008 0.5724 0.54544 0.0
C580 C 0.4934 0.59181 0.54918 0.0
C581 C 0.51328 0.62881 0.55056 0.0
C582 C 0.48909 0.53287 0.54479 0.0
C583 C 0.46798 0.51425 0.55605 0.0
C584 C 0.49066 0.5135 0.53345 0.0
C585 C 0.51042 0.53152 0.52086 0.0
C586 C 0.50323 0.55574 0.51398 0.0
C587 C 0.52212 0.57285 0.50218 0.0
C588 C 0.54811 0.56577 0.4971 0.0
C589 C 0.55521 0.54151 0.5038 0.0
C590 C 0.53643 0.52435 0.51561 0.0
C591 C 0.40148 0.35957 0.53602 0.0
C592 C 0.41033 0.34425 0.54685 0.0
C593 C 0.41494 0.39642 0.53558 0.0
C594 C 0.43709 0.41839 0.54606 0.0
C595 C 0.44535 0.40295 0.557 0.0
C596 C 0.43176 0.3662 0.55747 0.0
C597 C 0.45246 0.45758 0.54546 0.0
C598 C 0.47261 0.47609 0.53401 0.0
C599 C 0.44926 0.47688 0.55647 0.0
C600 C 0.4262 0.45871 0.56841 0.0
C601 C 0.44026 0.46716 0.58166 0.0
C602 C 0.4186 0.44983 0.59289 0.0
C603 C 0.38276 0.42409 0.591 0.0
C604 C 0.36849 0.41571 0.57787 0.0
C605 C 0.39003 0.43298 0.56661 0.0
H606 H 0.36604 0.41069 0.5997 0.0
H607 H 0.5627 0.57904 0.48796 0.0
H608 H 0.9528 0.60567 0.8893 0.0
H609 H 0.99002 0.57797 0.88809 0.0
H610 H 0.90886 0.49161 0.86432 0.0
H611 H 0.87138 0.51906 0.86569 0.0
H612 H 0.93221 0.46586 0.88328 0.0
H613 H 0.98765 0.55784 0.8499 0.0
H614 H 0.01543 0.61896 0.8407 0.0
H615 H 0.09956 0.65417 0.87022 0.0
H616 H 0.07202 0.59334 0.87973 0.0
H617 H 0.04442 0.39568 0.86408 0.0
H618 H 0.00722 0.42365 0.86292 0.0
H619 H 0.07674 0.5038 0.89162 0.0
H620 H 0.11323 0.47533 0.89317 0.0
H621 H 0.05911 0.53193 0.8689 0.0
H622 H 0.00109 0.43925 0.90258 0.0
H623 H 0.97309 0.37753 0.91119 0.0
H624 H 0.89331 0.34309 0.8799 0.0
H625 H 0.92117 0.40457 0.87099 0.0
C626 C 0.94302 0.58087 0.88376 0.0
C627 C 0.90901 0.56421 0.87777 0.0
C628 C 0.96435 0.56512 0.88303 0.0
C629 C 0.95239 0.53282 0.87601 0.0
C630 C 0.91858 0.51642 0.86985 0.0
C631 C 0.8971 0.53201 0.8707 0.0
C632 C 0.9747 0.51564 0.87547 0.0
C633 C 0.95978 0.48016 0.8799 0.0
C634 C 0.01089 0.53445 0.87131 0.0
C635 C 0.02758 0.57108 0.86561 0.0
C636 C 0.01193 0.57867 0.8545 0.0
C637 C 0.02766 0.61326 0.84922 0.0
C638 C 0.05919 0.64045 0.8549 0.0
C639 C 0.07511 0.63309 0.86585 0.0
C640 C 0.05947 0.59855 0.87118 0.0
C641 C 0.0518 0.41937 0.87009 0.0
C642 C 0.08235 0.43402 0.87837 0.0
C643 C 0.03058 0.43527 0.86942 0.0
C644 C 0.03941 0.4659 0.87712 0.0
C645 C 0.06981 0.48049 0.88545 0.0
C646 C 0.09084 0.46442 0.8862 0.0
C647 C 0.01659 0.4824 0.87675 0.0
C648 C 0.03145 0.51768 0.87216 0.0
C649 C 0.98029 0.46336 0.88065 0.0
C650 C 0.96345 0.42642 0.88603 0.0
C651 C 0.97777 0.41846 0.89746 0.0
C652 C 0.96189 0.38353 0.90241 0.0
C653 C 0.9315 0.35639 0.89607 0.0
C654 C 0.91688 0.36413 0.88479 0.0
C655 C 0.93269 0.39901 0.87979 0.0
H656 H 0.91923 0.32937 0.89992 0.0
H657 H 0.07133 0.66721 0.85079 0.0
H658 H 0.34057 0.9458 0.1963 0.0
H659 H 0.40524 0.98589 0.19521 0.0
H660 H 0.41775 0.94097 0.23261 0.0
H661 H 0.3533 0.90265 0.23416 0.0
H662 H 0.46062 0.00945 0.23279 0.0
H663 H 0.43266 0.91535 0.2007 0.0
H664 H 0.40204 0.87661 0.18103 0.0
H665 H 0.44566 0.96811 0.15474 0.0
H666 H 0.47617 0.00748 0.1743 0.0
H667 H 0.6396 0.04659 0.22689 0.0
H668 H 0.57416 0.01418 0.22652 0.0
H669 H 0.57556 0.08698 0.19621 0.0
H670 H 0.64113 0.11985 0.1967 0.0
H671 H 0.52645 0.00886 0.1915 0.0
H672 H 0.55822 0.10196 0.22467 0.0
H673 H 0.59048 0.13746 0.2448 0.0
H674 H 0.54052 0.04328 0.26966 0.0
H675 H 0.50843 0.00707 0.24961 0.0
C676 C 0.35716 0.94469 0.20432 0.0
C677 C 0.34196 0.92011 0.21505 0.0
C678 C 0.39409 0.9674 0.20364 0.0
C679 C 0.41644 0.96579 0.21365 0.0
C680 C 0.40111 0.94236 0.22467 0.0
C681 C 0.36423 0.91992 0.22541 0.0
C682 C 0.45583 0.98798 0.21259 0.0
C683 C 0.47495 0.00908 0.22379 0.0
C684 C 0.47461 0.98799 0.20077 0.0
C685 C 0.45635 0.96439 0.18899 0.0
C686 C 0.43549 0.92724 0.19074 0.0
C687 C 0.41819 0.90516 0.17961 0.0
C688 C 0.42181 0.9199 0.16665 0.0
C689 C 0.44283 0.95674 0.16479 0.0
C690 C 0.46014 0.97895 0.17589 0.0
C691 C 0.62589 0.0555 0.22011 0.0
C692 C 0.64517 0.08586 0.21195 0.0
C693 C 0.58865 0.0371 0.21993 0.0
C694 C 0.57024 0.04845 0.21141 0.0
C695 C 0.58944 0.07801 0.20288 0.0
C696 C 0.62672 0.09681 0.20323 0.0
C697 C 0.53088 0.02979 0.21172 0.0
C698 C 0.5119 0.0094 0.20041 0.0
C699 C 0.51226 0.02997 0.2235 0.0
C700 C 0.53118 0.05175 0.23561 0.0
C701 C 0.55435 0.08875 0.2344 0.0
C702 C 0.57257 0.10902 0.24581 0.0
C703 C 0.56762 0.09262 0.2585 0.0
C704 C 0.54436 0.05594 0.25982 0.0
C705 C 0.52613 0.03553 0.24844 0.0
H706 H 0.58174 0.10836 0.26732 0.0
H707 H 0.40841 0.90276 0.15804 0.0
H708 H 0.94697 0.59083 0.08553 0.0
H709 H 0.98679 0.57293 0.07523 0.0
H710 H 0.89607 0.47407 0.06194 0.0
H711 H 0.85593 0.4916 0.07242 0.0
H712 H 0.93906 0.46274 0.07738 0.0
H713 H 0.95463 0.53203 0.03831 0.0
H714 H 0.96418 0.58419 0.02488 0.0
H715 H 0.06787 0.64719 0.0428 0.0
H716 H 0.05878 0.59561 0.05651 0.0
H717 H 0.0739 0.42035 0.07214 0.0
H718 H 0.02839 0.43087 0.06194 0.0
H719 H 0.08714 0.54082 0.07491 0.0
H720 H 0.13339 0.53083 0.08456 0.0
H721 H 0.05173 0.53528 0.05184 0.0
H722 H 0.02471 0.47388 0.09598 0.0
H723 H 0.01536 0.42439 0.11111 0.0
H724 H 0.93278 0.34947 0.08466 0.0
H725 H 0.94198 0.39856 0.0693 0.0
C726 C 0.93545 0.56557 0.0802 0.0
C727 C 0.89839 0.5423 0.08002 0.0
C728 C 0.95824 0.55557 0.07414 0.0
C729 C 0.94436 0.52227 0.06772 0.0
C730 C 0.90727 0.49994 0.06679 0.0
C731 C 0.88443 0.50991 0.07287 0.0
C732 C 0.96854 0.50849 0.06439 0.0
C733 C 0.9631 0.47792 0.07137 0.0
C734 C 0.00013 0.52863 0.05675 0.0
C735 C 0.00596 0.55985 0.04847 0.0
C736 C 0.9794 0.55705 0.03946 0.0
C737 C 0.98475 0.58653 0.03178 0.0
C738 C 0.01661 0.61898 0.03299 0.0
C739 C 0.04322 0.62201 0.04186 0.0
C740 C 0.03801 0.59262 0.04957 0.0
C741 C 0.07738 0.44692 0.07255 0.0
C742 C 0.10659 0.47462 0.07941 0.0
C743 C 0.05152 0.45292 0.06667 0.0
C744 C 0.05402 0.4864 0.06795 0.0
C745 C 0.08466 0.51476 0.07382 0.0
C746 C 0.11091 0.50896 0.07944 0.0
C747 C 0.02274 0.4907 0.06535 0.0
C748 C 0.02692 0.51937 0.05732 0.0
C749 C 0.99001 0.46915 0.07217 0.0
C750 C 0.98434 0.43973 0.08143 0.0
C751 C 0.00471 0.44681 0.09337 0.0
C752 C -0.00057 0.41886 0.10198 0.0
C753 C 0.97358 0.38379 0.09882 0.0
C754 C 0.95286 0.37663 0.08707 0.0
C755 C 0.9581 0.40449 0.07841 0.0
H756 H 0.96953 0.36218 0.1055 0.0
H757 H 0.02069 0.64178 0.02704 0.0
H758 H 0.64924 0.0534 0.41335 0.0
H759 H 0.59432 0.00626 0.40313 0.0
H760 H 0.5486 0.07489 0.40475 0.0
H761 H 0.60361 0.12228 0.41464 0.0
H762 H 0.53497 0.97551 0.41644 0.0
H763 H 0.48275 0.05181 0.38245 0.0
H764 H 0.50721 0.10003 0.3654 0.0
H765 H 0.59285 0.07975 0.35702 0.0
H766 H 0.56856 0.03091 0.3738 0.0
H767 H 0.353 0.94025 0.41598 0.0
H768 H 0.41266 0.97754 0.40655 0.0
H769 H 0.41797 0.8835 0.39618 0.0
H770 H 0.35835 0.84592 0.40562 0.0
H771 H 0.45523 0.98532 0.38255 0.0
H772 H 0.4946 0.89682 0.41122 0.0
H773 H 0.47113 0.84969 0.4288 0.0
H774 H 0.41522 0.89701 0.44767 0.0
H775 H 0.43885 0.94469 0.43034 0.0
C776 C 0.62766 0.0586 0.41131 0.0
C777 C 0.63035 0.09122 0.41502 0.0
C778 C 0.59644 0.03175 0.40538 0.0
C779 C 0.56742 0.03707 0.40311 0.0
C780 C 0.57087 0.07037 0.40614 0.0
C781 C 0.60219 0.09733 0.41195 0.0
C782 C 0.53184 0.00651 0.39984 0.0
C783 C 0.51799 0.97713 0.40868 0.0
C784 C 0.50951 0.00874 0.38982 0.0
C785 C 0.52382 0.03767 0.37946 0.0
C786 C 0.50661 0.05736 0.37689 0.0
C787 C 0.52049 0.08488 0.36728 0.0
C788 C 0.55158 0.09297 0.36014 0.0
C789 C 0.5688 0.07349 0.36257 0.0
C790 C 0.55499 0.0459 0.37214 0.0
C791 C 0.36649 0.92746 0.4114 0.0
C792 C 0.35156 0.89026 0.41193 0.0
C793 C 0.40037 0.94879 0.40585 0.0
C794 C 0.41973 0.93318 0.40085 0.0
C795 C 0.40338 0.89593 0.40007 0.0
C796 C 0.36948 0.87457 0.40559 0.0
C797 C 0.45873 0.95554 0.39943 0.0
C798 C 0.47294 0.98325 0.38984 0.0
C799 C 0.48168 0.95189 0.40871 0.0
C800 C 0.46807 0.92394 0.41939 0.0
C801 C 0.47739 0.89718 0.41916 0.0
C802 C 0.46408 0.8704 0.42908 0.0
C803 C 0.44158 0.87027 0.43932 0.0
C804 C 0.43255 0.89707 0.43971 0.0
C805 C 0.44589 0.92396 0.42985 0.0
H806 H 0.43123 0.84948 0.44696 0.0
H807 H 0.56231 0.11433 0.35273 0.0
H808 H 0.42237 0.36255 0.74884 0.0
H809 H 0.45247 0.42513 0.74205 0.0
H810 H 0.55159 0.42492 0.73772 0.0
H811 H 0.52172 0.36229 0.74451 0.0
H812 H 0.555 0.47256 0.75631 0.0
H813 H 0.51958 0.44527 0.71048 0.0
H814 H 0.47925 0.41477 0.6912 0.0
H815 H 0.41361 0.45883 0.70284 0.0
H816 H 0.45318 0.48915 0.72234 0.0
H817 H 0.61982 0.65811 0.7576 0.0
H818 H 0.6111 0.60237 0.74774 0.0
H819 H 0.49718 0.56024 0.74746 0.0
H820 H 0.50571 0.61596 0.75694 0.0
H821 H 0.5171 0.53818 0.72545 0.0
H822 H 0.53984 0.54667 0.77437 0.0
H823 H 0.57542 0.5731 0.79515 0.0
H824 H 0.66031 0.56028 0.77873 0.0
H825 H 0.62536 0.53423 0.75775 0.0
C826 C 0.45037 0.37557 0.74613 0.0
C827 C 0.46987 0.3578 0.74747 0.0
C828 C 0.46746 0.41122 0.7421 0.0
C829 C 0.50422 0.42953 0.73935 0.0
C830 C 0.52317 0.41112 0.73975 0.0
C831 C 0.50607 0.37542 0.74371 0.0
C832 C 0.52351 0.46882 0.73873 0.0
C833 C 0.54769 0.48716 0.74926 0.0
C834 C 0.51334 0.48752 0.72968 0.0
C835 C 0.4894 0.46947 0.71792 0.0
C836 C 0.49643 0.44829 0.70899 0.0
C837 C 0.4737 0.43105 0.69801 0.0
C838 C 0.44388 0.43485 0.6958 0.0
C839 C 0.43675 0.45594 0.70456 0.0
C840 C 0.45937 0.47324 0.71557 0.0
C841 C 0.59296 0.63704 0.75531 0.0
C842 C 0.56337 0.64105 0.75826 0.0
C843 C 0.58806 0.60536 0.74962 0.0
C844 C 0.55349 0.57711 0.74702 0.0
C845 C 0.5241 0.58178 0.74934 0.0
C846 C 0.52899 0.61352 0.75488 0.0
C847 C 0.54713 0.54129 0.74341 0.0
C848 C 0.52547 0.52375 0.73212 0.0
C849 C 0.55909 0.52298 0.7519 0.0
C850 C 0.58027 0.53908 0.76442 0.0
C851 C 0.56624 0.54984 0.77514 0.0
C852 C 0.58626 0.56469 0.78696 0.0
C853 C 0.62018 0.56852 0.78823 0.0
C854 C 0.6341 0.55744 0.7777 0.0
C855 C 0.61423 0.54267 0.76584 0.0
H856 H 0.63561 0.57995 0.7974 0.0
H857 H 0.42632 0.42147 0.68729 0.0
H858 H 0.61963 0.95508 0.58838 0.0
H859 H 0.61961 0.00807 0.59689 0.0
H860 H 0.50439 0.95085 0.59619 0.0
H861 H 0.50426 0.89766 0.58809 0.0
H862 H 0.59655 0.03977 0.58123 0.0
H863 H 0.46837 0.9864 0.6152 0.0
H864 H 0.44046 0.9446 0.6343 0.0
H865 H 0.54202 0.95693 0.64537 0.0
H866 H 0.57073 -0.00074 0.62646 0.0
H867 H 0.45095 0.08347 0.57959 0.0
H868 H 0.47639 0.04906 0.58902 0.0
H869 H 0.57993 0.14423 0.59101 0.0
H870 H 0.55455 0.17909 0.58157 0.0
H871 H 0.51232 0.05098 0.61225 0.0
H872 H 0.63995 0.11914 0.58091 0.0
H873 H 0.66489 0.15304 0.55963 0.0
H874 H 0.56021 0.10227 0.54186 0.0
H875 H 0.53473 0.0682 0.56303 0.0
C876 C 0.59429 0.9536 0.59035 0.0
C877 C 0.56191 0.92255 0.58731 0.0
C878 C 0.59435 0.98379 0.59532 0.0
C879 C 0.56206 0.98342 0.59724 0.0
C880 C 0.52967 0.95161 0.59509 0.0
C881 C 0.5296 0.92131 0.59026 0.0
C882 C 0.56182 0.01731 0.59861 0.0
C883 C 0.57923 0.04293 0.58839 0.0
C884 C 0.53882 0.02115 0.6078 0.0
C885 C 0.52175 0.99608 0.61936 0.0
C886 C 0.48487 0.98051 0.62177 0.0
C887 C 0.46887 0.95662 0.63255 0.0
C888 C 0.48945 0.9481 0.64104 0.0
C889 C 0.52609 0.9635 0.63877 0.0
C890 C 0.54224 0.98741 0.628 0.0
C891 C 0.47907 0.09721 0.58215 0.0
C892 C 0.50093 0.13384 0.5796 0.0
C893 C 0.49349 0.07757 0.58765 0.0
C894 C 0.53002 0.09414 0.59065 0.0
C895 C 0.55169 0.13101 0.58869 0.0
C896 C 0.5372 0.15077 0.58323 0.0
C897 C 0.54541 0.0717 0.59443 0.0
C898 C 0.53099 0.04855 0.60559 0.0
C899 C 0.5708 0.06966 0.58602 0.0
C900 C 0.58546 0.09161 0.57359 0.0
C901 C 0.62229 0.11548 0.57248 0.0
C902 C 0.63651 0.13461 0.56043 0.0
C903 C 0.61416 0.12972 0.54938 0.0
C904 C 0.57749 0.106 0.55042 0.0
C905 C 0.56312 0.08695 0.56246 0.0
H906 H 0.62523 0.14445 0.54005 0.0
H907 H 0.47699 0.92958 0.64937 0.0
H908 H 0.3578 0.5 0.93135 0.0
H909 H 0.41585 0.51755 0.94152 0.0
H910 H 0.41084 0.42236 0.92548 0.0
H911 H 0.35264 0.4043 0.91551 0.0
H912 H 0.44693 0.44295 0.9502 0.0
H913 H 0.44476 0.49638 0.90615 0.0
H914 H 0.42809 0.53203 0.89147 0.0
H915 H 0.48161 0.62123 0.91863 0.0
H916 H 0.49818 0.58586 0.93355 0.0
H917 H 0.59889 0.46532 0.91776 0.0
H918 H 0.54333 0.45487 0.92809 0.0
H919 H 0.59278 0.56635 0.93884 0.0
H920 H 0.64818 0.57716 0.92803 0.0
H921 H 0.53715 0.54882 0.92473 0.0
H922 H 0.55736 0.49883 0.96381 0.0
H923 H 0.57486 0.46239 0.97754 0.0
H924 H 0.48961 0.36683 0.95999 0.0
H925 H 0.47189 0.40264 0.94598 0.0
C926 C 0.36875 0.48246 0.93022 0.0
C927 C 0.35118 0.45124 0.92234 0.0
C928 C 0.40175 0.49241 0.93613 0.0
C929 C 0.41774 0.47147 0.93407 0.0
C930 C 0.39887 0.43883 0.92719 0.0
C931 C 0.3658 0.42876 0.92136 0.0
C932 C 0.45608 0.48602 0.93679 0.0
C933 C 0.4669 0.46624 0.94477 0.0
C934 C 0.48199 0.51711 0.93004 0.0
C935 C 0.47228 0.5384 0.92103 0.0
C936 C 0.45276 0.52353 0.90902 0.0
C937 C 0.44335 0.54367 0.90066 0.0
C938 C 0.45368 0.57884 0.90414 0.0
C939 C 0.47354 0.59396 0.91597 0.0
C940 C 0.48293 0.57389 0.92438 0.0
C941 C 0.59813 0.48745 0.92257 0.0
C942 C 0.6275 0.52215 0.92186 0.0
C943 C 0.56646 0.48138 0.92865 0.0
C944 C 0.56391 0.5098 0.93435 0.0
C945 C 0.59415 0.54405 0.9345 0.0
C946 C 0.62566 0.55022 0.92825 0.0
C947 C 0.52835 0.50484 0.93767 0.0
C948 C 0.51783 0.52642 0.93075 0.0
C949 C 0.50293 0.47539 0.94537 0.0
C950 C 0.51332 0.45353 0.95381 0.0
C951 C 0.54245 0.47005 0.96281 0.0
C952 C 0.5524 0.44949 0.97065 0.0
C953 C 0.53336 0.41232 0.96964 0.0
C954 C 0.5043 0.39563 0.96078 0.0
C955 C 0.49423 0.41606 0.95291 0.0
H956 H 0.54112 0.39645 0.97572 0.0
H957 H 0.44639 0.5944 0.89765 0.0
H958 H 0.07787 0.64887 0.26091 0.0
H959 H 0.03156 0.59432 0.27163 0.0
H960 H 0.09002 0.54087 0.26127 0.0
H961 H 0.13675 0.59549 0.25087 0.0
H962 H 0.99249 0.53859 0.25701 0.0
H963 H 0.06784 0.46966 0.28029 0.0
H964 H 0.12026 0.48623 0.29483 0.0
H965 H 0.11265 0.57426 0.31108 0.0
H966 H 0.05983 0.55793 0.29681 0.0
H967 H 0.94515 0.35233 0.24898 0.0
H968 H 0.98674 0.40983 0.2591 0.0
H969 H 0.8985 0.41941 0.27445 0.0
H970 H 0.85655 0.36198 0.26419 0.0
H971 H 0.0026 0.44697 0.28388 0.0
H972 H 0.91578 0.50213 0.26509 0.0
H973 H 0.8652 0.48658 0.24954 0.0
H974 H 0.89991 0.42967 0.22376 0.0
H975 H 0.9509 0.44532 0.23906 0.0
C976 C 0.08114 0.62564 0.26116 0.0
C977 C 0.11048 0.62608 0.25481 0.0
C978 C 0.05482 0.59462 0.26738 0.0
C979 C 0.05734 0.56355 0.2673 0.0
C980 C 0.08779 0.56468 0.26172 0.0
C981 C 0.11431 0.59581 0.25562 0.0
C982 C 0.02578 0.52866 0.27059 0.0
C983 C 0.99433 0.51898 0.26332 0.0
C984 C 0.02827 0.5029 0.27866 0.0
C985 C 0.05984 0.51258 0.28742 0.0
C986 C 0.07713 0.49238 0.28703 0.0
C987 C 0.10699 0.50178 0.29521 0.0
C988 C 0.1198 0.53129 0.30386 0.0
C989 C 0.10275 0.55145 0.30435 0.0
C990 C 0.07287 0.54216 0.2962 0.0
C991 C 0.93455 0.36631 0.25473 0.0
C992 C 0.89764 0.35324 0.25545 0.0
C993 C 0.95837 0.39896 0.26065 0.0
C994 C 0.94561 0.41896 0.26735 0.0
C995 C 0.90876 0.4044 0.26921 0.0
C996 C 0.88489 0.37178 0.26323 0.0
C997 C 0.97047 0.45716 0.26989 0.0
C998 C 0.00048 0.46725 0.27815 0.0
C999 C 0.96691 0.48351 0.2627 0.0
C1000 C 0.93675 0.47446 0.25331 0.0
C1001 C 0.91259 0.48636 0.25609 0.0
C1002 C 0.88389 0.47755 0.24732 0.0
C1003 C 0.87926 0.45702 0.2357 0.0
C1004 C 0.90345 0.44545 0.23278 0.0
C1005 C 0.93223 0.45428 0.2415 0.0
H1006 H 0.85699 0.45018 0.22894 0.0
H1007 H 0.14293 0.53854 0.31017 0.0
H1008 H 0.2329 0.74724 0.18626 0.0
H1009 H 0.24334 0.71023 0.17005 0.0
H1010 H 0.23723 0.64103 0.20277 0.0
H1011 H 0.22548 0.67708 0.21893 0.0
H1012 H 0.2935 0.65862 0.17985 0.0
H1013 H 0.16794 0.61271 0.18998 0.0
H1014 H 0.11401 0.61791 0.19231 0.0
H1015 H 0.12171 0.64786 0.15023 0.0
H1016 H 0.17643 0.64402 0.1478 0.0
H1017 H 0.24125 0.49262 0.14638 0.0
H1018 H 0.25305 0.54251 0.16137 0.0
H1019 H 0.21561 0.58612 0.13016 0.0
H1020 H 0.20217 0.53549 0.11548 0.0
H1021 H 0.18506 0.58506 0.15215 0.0
H1022 H 0.30714 0.62548 0.14093 0.0
H1023 H 0.36121 0.62058 0.13831 0.0
H1024 H 0.3612 0.60144 0.18119 0.0
H1025 H 0.30684 0.60576 0.18405 0.0
C1026 C 0.23477 0.72471 0.19004 0.0
C1027 C 0.22822 0.71487 0.20382 0.0
C1028 C 0.2407 0.70362 0.18078 0.0
C1029 C 0.24102 0.67295 0.18525 0.0
C1030 C 0.2373 0.66472 0.19917 0.0
C1031 C 0.23043 0.68522 0.20835 0.0
C1032 C 0.24007 0.64682 0.17528 0.0
C1033 C 0.26985 0.64236 0.17379 0.0
C1034 C 0.20935 0.62609 0.16729 0.0
C1035 C 0.17664 0.62872 0.16878 0.0
C1036 C 0.1585 0.62103 0.18129 0.0
C1037 C 0.12775 0.62368 0.18263 0.0
C1038 C 0.11457 0.63348 0.17145 0.0
C1039 C 0.13209 0.64057 0.15891 0.0
C1040 C 0.16302 0.63824 0.15756 0.0
C1041 C 0.23612 0.5132 0.14266 0.0
C1042 C 0.22055 0.51003 0.1298 0.0
C1043 C 0.24304 0.54186 0.15121 0.0
C1044 C 0.23543 0.56837 0.14692 0.0
C1045 C 0.22153 0.566 0.13379 0.0
C1046 C 0.21392 0.53705 0.12537 0.0
C1047 C 0.23879 0.59677 0.15642 0.0
C1048 C 0.20915 0.60154 0.15796 0.0
C1049 C 0.26979 0.61785 0.16434 0.0
C1050 C 0.30272 0.61565 0.16268 0.0
C1051 C 0.31853 0.62001 0.14979 0.0
C1052 C 0.34925 0.61736 0.14826 0.0
C1053 C 0.36457 0.61061 0.15957 0.0
C1054 C 0.34928 0.60663 0.17244 0.0
C1055 C 0.31854 0.60922 0.17402 0.0
H1056 H 0.38833 0.60851 0.15836 0.0
H1057 H 0.09067 0.63534 0.17251 0.0
H1058 H 0.65668 0.18125 0.45254 0.0
H1059 H 0.6204 0.1977 0.46641 0.0
H1060 H 0.71256 0.26673 0.49067 0.0
H1061 H 0.74937 0.25052 0.47672 0.0
H1062 H 0.65283 0.2205 0.50617 0.0
H1063 H 0.68076 0.3039 0.46991 0.0
H1064 H 0.68672 0.32343 0.44601 0.0
H1065 H 0.574 0.25539 0.4401 0.0
H1066 H 0.56742 0.23503 0.46393 0.0
H1067 H 0.54573 0.26512 0.54549 0.0
H1068 H 0.59538 0.2764 0.53035 0.0
H1069 H 0.52024 0.21845 0.49826 0.0
H1070 H 0.47097 0.20923 0.51317 0.0
H1071 H 0.57874 0.26835 0.48732 0.0
H1072 H 0.55169 0.17923 0.5223 0.0
H1073 H 0.54421 0.15923 0.54621 0.0
H1074 H 0.65419 0.2352 0.55421 0.0
H1075 H 0.6621 0.25633 0.53044 0.0
C1076 C 0.66942 0.20019 0.46074 0.0
C1077 C 0.70597 0.21449 0.46353 0.0
C1078 C 0.64862 0.20968 0.46863 0.0
C1079 C 0.66379 0.23359 0.47953 0.0
C1080 C 0.70034 0.24829 0.48228 0.0
C1081 C 0.72135 0.23909 0.47427 0.0
C1082 C 0.64083 0.24161 0.48837 0.0
C1083 C 0.63717 0.23167 0.50213 0.0
C1084 C 0.61985 0.25545 0.48302 0.0
C1085 C 0.62365 0.26776 0.46869 0.0
C1086 C 0.65728 0.29289 0.46349 0.0
C1087 C 0.66076 0.30415 0.44996 0.0
C1088 C 0.63077 0.29061 0.44153 0.0
C1089 C 0.59721 0.26584 0.44664 0.0
C1090 C 0.59358 0.25447 0.46016 0.0
C1091 C 0.54013 0.25609 0.53503 0.0
C1092 C 0.50481 0.23666 0.53038 0.0
C1093 C 0.56838 0.26213 0.52643 0.0
C1094 C 0.56155 0.24738 0.51326 0.0
C1095 C 0.52629 0.23001 0.50836 0.0
C1096 C 0.49813 0.22479 0.51685 0.0
C1097 C 0.59021 0.24667 0.50509 0.0
C1098 C 0.59482 0.25775 0.49144 0.0
C1099 C 0.6118 0.23346 0.5105 0.0
C1100 C 0.60736 0.2197 0.52464 0.0
C1101 C 0.57422 0.19181 0.52918 0.0
C1102 C 0.56986 0.18041 0.54272 0.0
C1103 C 0.59862 0.1962 0.55174 0.0
C1104 C 0.63187 0.22322 0.54723 0.0
C1105 C 0.6363 0.23495 0.53373 0.0
H1106 H 0.59534 0.18716 0.56218 0.0
H1107 H 0.63352 0.29936 0.43106 0.0
H1108 H 0.48256 0.74058 0.80298 0.0
H1109 H 0.4305 0.69832 0.81634 0.0
H1110 H 0.47575 0.62966 0.82034 0.0
H1111 H 0.52654 0.67064 0.80658 0.0
H1112 H 0.41008 0.59057 0.81514 0.0
H1113 H 0.47578 0.68774 0.84667 0.0
H1114 H 0.50451 0.75023 0.85446 0.0
H1115 H 0.40446 0.7481 0.8514 0.0
H1116 H 0.37523 0.68569 0.84344 0.0
H1117 H 0.33704 0.49209 0.87484 0.0
H1118 H 0.37742 0.54071 0.86 0.0
H1119 H 0.29313 0.56227 0.84987 0.0
H1120 H 0.25185 0.51285 0.86463 0.0
H1121 H 0.36948 0.62591 0.85649 0.0
H1122 H 0.3039 0.52353 0.82729 0.0
H1123 H 0.27833 0.46017 0.82109 0.0
H1124 H 0.38298 0.47207 0.82138 0.0
H1125 H 0.40911 0.53538 0.82781 0.0
C1126 C 0.48131 0.71645 0.80673 0.0
C1127 C 0.50865 0.70893 0.80368 0.0
C1128 C 0.45161 0.69236 0.81442 0.0
C1129 C 0.44918 0.66079 0.81949 0.0
C1130 C 0.4767 0.65359 0.81651 0.0
C1131 C 0.50588 0.67718 0.80865 0.0
C1132 C 0.41814 0.63473 0.82779 0.0
C1133 C 0.40141 0.59847 0.8242 0.0
C1134 C 0.40595 0.64482 0.83946 0.0
C1135 C 0.42344 0.68222 0.84431 0.0
C1136 C 0.45998 0.70069 0.84757 0.0
C1137 C 0.47633 0.73608 0.85203 0.0
C1138 C 0.45635 0.75317 0.85338 0.0
C1139 C 0.41992 0.73486 0.85032 0.0
C1140 C 0.40345 0.69948 0.84585 0.0
C1141 C 0.32693 0.50724 0.86958 0.0
C1142 C 0.29099 0.49829 0.87087 0.0
C1143 C 0.35016 0.53506 0.8611 0.0
C1144 C 0.33818 0.55489 0.85381 0.0
C1145 C 0.3028 0.5472 0.85544 0.0
C1146 C 0.27926 0.51889 0.86383 0.0
C1147 C 0.36255 0.58214 0.84396 0.0
C1148 C 0.37791 0.61839 0.84728 0.0
C1149 C 0.37402 0.57211 0.83216 0.0
C1150 C 0.35841 0.53413 0.82813 0.0
C1151 C 0.32142 0.51256 0.82614 0.0
C1152 C 0.30684 0.47667 0.82257 0.0
C1153 C 0.32901 0.46208 0.82086 0.0
C1154 C 0.36583 0.4834 0.82271 0.0
C1155 C 0.38055 0.5193 0.8263 0.0
H1156 H 0.31766 0.43429 0.8181 0.0
H1157 H 0.46906 0.78057 0.85683 0.0
H1158 H 0.74009 0.48991 0.13984 0.0
H1159 H 0.73033 0.44029 0.15465 0.0
H1160 H 0.82534 0.44485 0.13862 0.0
H1161 H 0.83489 0.49372 0.12368 0.0
H1162 H 0.77556 0.37775 0.14212 0.0
H1163 H 0.82612 0.48583 0.16883 0.0
H1164 H 0.82823 0.5395 0.17845 0.0
H1165 H 0.72772 0.47405 0.19836 0.0
H1166 H 0.72482 0.42 0.1887 0.0
H1167 H 0.83209 0.33965 0.21136 0.0
H1168 H 0.82315 0.3791 0.19625 0.0
H1169 H 0.73119 0.28839 0.17867 0.0
H1170 H 0.74033 0.24841 0.19366 0.0
H1171 H 0.77239 0.39495 0.19193 0.0
H1172 H 0.72947 0.3047 0.1445 0.0
H1173 H 0.73535 0.25516 0.13491 0.0
H1174 H 0.83376 0.29166 0.1566 0.0
H1175 H 0.82868 0.34162 0.16616 0.0
C1176 C 0.75867 0.4801 0.13935 0.0
C1177 C 0.78849 0.49615 0.13065 0.0
C1178 C 0.75312 0.45178 0.14786 0.0
C1179 C 0.77738 0.43912 0.1479 0.0
C1180 C 0.80624 0.4541 0.1388 0.0
C1181 C 0.81174 0.48224 0.13029 0.0
C1182 C 0.77419 0.41173 0.15785 0.0
C1183 C 0.77444 0.38133 0.153 0.0
C1184 C 0.77327 0.41654 0.17207 0.0
C1185 C 0.77505 0.44895 0.17792 0.0
C1186 C 0.80435 0.48293 0.17518 0.0
C1187 C 0.80571 0.5134 0.18065 0.0
C1188 C 0.77807 0.5102 0.18897 0.0
C1189 C 0.74907 0.4765 0.19188 0.0
C1190 C 0.74756 0.44594 0.18642 0.0
C1191 C 0.80975 0.32796 0.20437 0.0
C1192 C 0.78716 0.29073 0.20364 0.0
C1193 C 0.80458 0.35066 0.19576 0.0
C1194 C 0.77676 0.33675 0.1862 0.0
C1195 C 0.75316 0.29972 0.18583 0.0
C1196 C 0.75836 0.2769 0.19444 0.0
C1197 C 0.77399 0.3611 0.1762 0.0
C1198 C 0.77267 0.39095 0.18103 0.0
C1199 C 0.77488 0.35627 0.16197 0.0
C1200 C 0.77843 0.32658 0.15617 0.0
C1201 C 0.75239 0.30216 0.14719 0.0
C1202 C 0.75558 0.27402 0.14176 0.0
C1203 C 0.78483 0.27018 0.14519 0.0
C1204 C 0.81104 0.29457 0.154 0.0
C1205 C 0.808 0.32278 0.15943 0.0
H1206 H 0.78724 0.24836 0.14099 0.0
H1207 H 0.77916 0.53382 0.1932 0.0
H1208 H 0.33868 0.8229 0.45242 0.0
H1209 H 0.38106 0.81775 0.46725 0.0
H1210 H 0.29582 0.7528 0.49511 0.0
H1211 H 0.25296 0.75685 0.48002 0.0
H1212 H 0.40114 0.84226 0.49113 0.0
H1213 H 0.31721 0.70036 0.51411 0.0
H1214 H 0.26862 0.64088 0.50726 0.0
H1215 H 0.2988 0.66594 0.46533 0.0
H1216 H 0.34785 0.72536 0.47193 0.0
H1217 H 0.48979 0.83491 0.54952 0.0
H1218 H 0.44185 0.82728 0.53432 0.0
H1219 H 0.45649 0.75222 0.51024 0.0
H1220 H 0.50384 0.75894 0.52567 0.0
H1221 H 0.38782 0.73133 0.51148 0.0
H1222 H 0.49433 0.84057 0.50083 0.0
H1223 H 0.54674 0.89938 0.50576 0.0
H1224 H 0.47796 0.9385 0.51893 0.0
H1225 H 0.42513 0.87974 0.51426 0.0
C1226 C 0.32881 0.80702 0.4616 0.0
C1227 C 0.2924 0.7903 0.46505 0.0
C1228 C 0.35314 0.80422 0.47011 0.0
C1229 C 0.34179 0.78487 0.48234 0.0
C1230 C 0.30527 0.7674 0.48565 0.0
C1231 C 0.28075 0.76979 0.47702 0.0
C1232 C 0.36858 0.78495 0.49191 0.0
C1233 C 0.39813 0.81792 0.49554 0.0
C1234 C 0.36514 0.75327 0.49759 0.0
C1235 C 0.33597 0.71745 0.49352 0.0
C1236 C 0.31356 0.69312 0.50343 0.0
C1237 C 0.28592 0.65943 0.49959 0.0
C1238 C 0.28056 0.64969 0.48586 0.0
C1239 C 0.3029 0.67357 0.47595 0.0
C1240 C 0.33059 0.70728 0.47974 0.0
C1241 C 0.4826 0.81649 0.54107 0.0
C1242 C 0.50093 0.79778 0.53875 0.0
C1243 C 0.45521 0.81222 0.53236 0.0
C1244 C 0.44601 0.78975 0.52095 0.0
C1245 C 0.46315 0.76981 0.51894 0.0
C1246 C 0.49029 0.77372 0.52777 0.0
C1247 C 0.41999 0.78861 0.51075 0.0
C1248 C 0.39067 0.75556 0.50704 0.0
C1249 C 0.4241 0.82014 0.50467 0.0
C1250 C 0.45579 0.85566 0.50731 0.0
C1251 C 0.49039 0.86166 0.50485 0.0
C1252 C 0.52017 0.89498 0.50759 0.0
C1253 C 0.51569 0.92263 0.51268 0.0
C1254 C 0.4814 0.91704 0.515 0.0
C1255 C 0.45152 0.88374 0.5123 0.0
H1256 H 0.53878 0.9484 0.51481 0.0
H1257 H 0.25913 0.6236 0.48291 0.0
H1258 H 0.74576 0.49706 0.85622 0.0
H1259 H 0.70759 0.44856 0.84056 0.0
H1260 H 0.61515 0.42688 0.86438 0.0
H1261 H 0.65273 0.47454 0.88002 0.0
H1262 H 0.61 0.36612 0.85653 0.0
H1263 H 0.63796 0.47819 0.83553 0.0
H1264 H 0.67666 0.53817 0.82591 0.0
H1265 H 0.71872 0.49451 0.79692 0.0
H1266 H 0.68056 0.43432 0.80648 0.0
H1267 H 0.48929 0.33379 0.79415 0.0
H1268 H 0.53916 0.37234 0.8087 0.0
H1269 H 0.5578 0.28519 0.81725 0.0
H1270 H 0.50661 0.24569 0.80291 0.0
H1271 H 0.60659 0.39667 0.80811 0.0
H1272 H 0.59392 0.29686 0.84928 0.0
H1273 H 0.54849 0.2395 0.8592 0.0
H1274 H 0.46617 0.26331 0.84892 0.0
H1275 H 0.51115 0.32094 0.83909 0.0
C1276 C 0.71735 0.48166 0.85819 0.0
C1277 C 0.70232 0.48996 0.86932 0.0
C1278 C 0.69556 0.45403 0.84921 0.0
C1279 C 0.65841 0.43424 0.85122 0.0
C1280 C 0.64368 0.44165 0.86261 0.0
C1281 C 0.66529 0.46916 0.87152 0.0
C1282 C 0.63421 0.40704 0.84121 0.0
C1283 C 0.60955 0.37267 0.84589 0.0
C1284 C 0.63324 0.41557 0.82736 0.0
C1285 C 0.65681 0.45186 0.82184 0.0
C1286 C 0.65577 0.48146 0.8272 0.0
C1287 C 0.67753 0.51547 0.82174 0.0
C1288 C 0.70021 0.52015 0.81084 0.0
C1289 C 0.70121 0.49085 0.80539 0.0
C1290 C 0.67954 0.45679 0.81082 0.0
C1291 C 0.50391 0.32262 0.79908 0.0
C1292 C 0.49369 0.28646 0.7974 0.0
C1293 C 0.53267 0.34488 0.80738 0.0
C1294 C 0.55229 0.3318 0.81418 0.0
C1295 C 0.5428 0.29587 0.81229 0.0
C1296 C 0.51356 0.27331 0.80406 0.0
C1297 C 0.58178 0.35597 0.82349 0.0
C1298 C 0.60755 0.38977 0.81866 0.0
C1299 C 0.58306 0.34728 0.8373 0.0
C1300 C 0.55583 0.31293 0.84331 0.0
C1301 C 0.56612 0.28984 0.84917 0.0
C1302 C 0.54046 0.2573 0.85477 0.0
C1303 C 0.50445 0.2477 0.85464 0.0
C1304 C 0.49404 0.2707 0.84897 0.0
C1305 C 0.5196 0.30329 0.84337 0.0
H1306 H 0.48463 0.22248 0.85897 0.0
H1307 H 0.71691 0.54644 0.80656 0.0
H1308 H 0.15025 0.34779 0.94451 0.0
H1309 H 0.15168 0.34758 0.96949 0.0
H1310 H 0.224 0.46135 0.96937 0.0
H1311 H 0.22273 0.4613 0.94443 0.0
H1312 H 0.25071 0.42711 0.98354 0.0
H1313 H 0.13948 0.42604 0.98186 0.0
H1314 H 0.07728 0.40443 0.97483 0.0
H1315 H 0.04497 0.30268 0.99318 0.0
H1316 H 0.10711 0.32353 1.00017 0.0
H1317 H 0.25217 0.46335 0.05439 0.0
H1318 H 0.24989 0.45927 0.02951 0.0
H1319 H 0.17858 0.34556 0.03229 0.0
H1320 H 0.1808 0.3499 0.05724 0.0
H1321 H 0.151 0.37692 0.01672 0.0
H1322 H 0.26223 0.379 0.01915 0.0
H1323 H 0.32445 0.40103 0.02626 0.0
H1324 H 0.35692 0.50119 0.00651 0.0
H1325 H 0.29478 0.47996 0.99945 0.0
C1326 C 0.16509 0.37287 0.9499 0.0
C1327 C 0.18575 0.40468 0.94269 0.0
C1328 C 0.16618 0.37275 0.96414 0.0
C1329 C 0.18803 0.40447 0.9713 0.0
C1330 C 0.207 0.43659 0.96405 0.0
C1331 C 0.2059 0.43667 0.94985 0.0
C1332 C 0.1939 0.40369 0.98617 0.0
C1333 C 0.22895 0.4166 0.99083 0.0
C1334 C 0.16541 0.38885 0.9956 0.0
C1335 C 0.12803 0.37623 0.99141 0.0
C1336 C 0.11917 0.39895 0.98429 0.0
C1337 C 0.08391 0.38686 0.98033 0.0
C1338 C 0.05721 0.35217 0.98352 0.0
C1339 C 0.0657 0.32953 0.9907 0.0
C1340 C 0.10093 0.34148 0.99467 0.0
C1341 C 0.23736 0.43735 0.04964 0.0
C1342 C 0.21732 0.40681 0.0576 0.0
C1343 C 0.23583 0.43502 0.03545 0.0
C1344 C 0.21408 0.40208 0.02902 0.0
C1345 C 0.19557 0.37121 0.03703 0.0
C1346 C 0.19721 0.37357 0.05124 0.0
C1347 C 0.20786 0.40062 0.01411 0.0
C1348 C 0.17275 0.38727 0.00943 0.0
C1349 C 0.23631 0.41511 0.00465 0.0
C1350 C 0.27375 0.42798 0.00887 0.0
C1351 C 0.28257 0.40584 0.01642 0.0
C1352 C 0.31784 0.41816 0.02042 0.0
C1353 C 0.34461 0.45252 0.01686 0.0
C1354 C 0.33616 0.4746 0.00927 0.0
C1355 C 0.30092 0.46241 0.00525 0.0
H1356 H 0.3719 0.46201 0.01997 0.0
H1357 H 0.02992 0.34286 0.98045 0.0
H1358 H 0.76993 0.23805 0.27776 0.0
H1359 H 0.77011 0.23877 0.30267 0.0
H1360 H 0.78402 0.14677 0.30313 0.0
H1361 H 0.78349 0.14593 0.27807 0.0
H1362 H 0.739 0.14618 0.32408 0.0
H1363 H 0.85757 0.2279 0.3061 0.0
H1364 H 0.90015 0.27762 0.29157 0.0
H1365 H 0.86826 0.34719 0.31006 0.0
H1366 H 0.82582 0.29798 0.32482 0.0
H1367 H 0.81115 0.16302 0.38905 0.0
H1368 H 0.81009 0.16404 0.36411 0.0
H1369 H 0.79368 0.25443 0.36537 0.0
H1370 H 0.79436 0.25311 0.39041 0.0
H1371 H 0.83905 0.25698 0.34367 0.0
H1372 H 0.72282 0.17983 0.36163 0.0
H1373 H 0.67727 0.13205 0.37603 0.0
H1374 H 0.70037 0.05602 0.35749 0.0
H1375 H 0.74611 0.10342 0.34297 0.0
C1376 C 0.77163 0.21719 0.28322 0.0
C1377 C 0.77621 0.19164 0.27612 0.0
C1378 C 0.77221 0.21789 0.29741 0.0
C1379 C 0.77783 0.19329 0.30473 0.0
C1380 C 0.77978 0.16607 0.29766 0.0
C1381 C 0.77915 0.16536 0.2834 0.0
C1382 C 0.78428 0.1977 0.31961 0.0
C1383 C 0.76116 0.17016 0.32835 0.0
C1384 C 0.81253 0.22953 0.32521 0.0
C1385 C 0.83837 0.25923 0.31648 0.0
C1386 C 0.85961 0.25379 0.30704 0.0
C1387 C 0.88377 0.28189 0.2988 0.0
C1388 C 0.88673 0.31547 0.29982 0.0
C1389 C 0.86587 0.32114 0.30924 0.0
C1390 C 0.84191 0.29322 0.3176 0.0
C1391 C 0.80861 0.18385 0.38395 0.0
C1392 C 0.80291 0.20803 0.39151 0.0
C1393 C 0.80764 0.1842 0.36976 0.0
C1394 C 0.80116 0.2089 0.36293 0.0
C1395 C 0.79857 0.2351 0.37047 0.0
C1396 C 0.79923 0.23453 0.38472 0.0
C1397 C 0.79407 0.20524 0.34809 0.0
C1398 C 0.81698 0.23295 0.33939 0.0
C1399 C 0.7653 0.1738 0.34253 0.0
C1400 C 0.73814 0.14523 0.35132 0.0
C1401 C 0.71838 0.15297 0.3607 0.0
C1402 C 0.69241 0.12594 0.36883 0.0
C1403 C 0.68601 0.09105 0.36771 0.0
C1404 C 0.70541 0.08308 0.35837 0.0
C1405 C 0.73128 0.11 0.35015 0.0
H1406 H 0.66597 0.07018 0.37405 0.0
H1407 H 0.90524 0.33709 0.29335 0.0
H1408 H 0.61604 0.76562 0.61348 0.0
H1409 H 0.61231 0.75787 0.63836 0.0
H1410 H 0.5355 0.79376 0.63996 0.0
H1411 H 0.53797 0.79972 0.61529 0.0
H1412 H 0.63124 0.80614 0.65714 0.0
H1413 H 0.48163 0.76213 0.66659 0.0
H1414 H 0.42311 0.72381 0.65581 0.0
H1415 H 0.4641 0.66312 0.63615 0.0
H1416 H 0.5227 0.70074 0.64696 0.0
H1417 H 0.6154 0.84328 0.72604 0.0
H1418 H 0.60975 0.84128 0.70109 0.0
H1419 H 0.54264 0.72673 0.70288 0.0
H1420 H 0.54666 0.72904 0.72762 0.0
H1421 H 0.51916 0.74903 0.68401 0.0
H1422 H 0.63481 0.76929 0.69613 0.0
H1423 H 0.69387 0.80027 0.70718 0.0
H1424 H 0.72165 0.8948 0.68402 0.0
H1425 H 0.66251 0.86452 0.67297 0.0
C1426 C 0.59766 0.77078 0.61917 0.0
C1427 C 0.57743 0.78341 0.61255 0.0
C1428 C 0.59579 0.76675 0.63337 0.0
C1429 C 0.57355 0.77515 0.64108 0.0
C1430 C 0.55242 0.78651 0.6343 0.0
C1431 C 0.55406 0.7902 0.6202 0.0
C1432 C 0.57388 0.77443 0.65622 0.0
C1433 C 0.60672 0.79346 0.66301 0.0
C1434 C 0.54198 0.7575 0.66394 0.0
C1435 C 0.50667 0.73449 0.6575 0.0
C1436 C 0.47811 0.74051 0.66002 0.0
C1437 C 0.44493 0.71893 0.65389 0.0
C1438 C 0.43992 0.69112 0.64527 0.0
C1439 C 0.46805 0.68475 0.64279 0.0
C1440 C 0.50127 0.70623 0.6489 0.0
C1441 C 0.59882 0.8179 0.72106 0.0
C1442 C 0.58199 0.78625 0.72867 0.0
C1443 C 0.59592 0.81666 0.70683 0.0
C1444 C 0.57651 0.7837 0.70005 0.0
C1445 C 0.558 0.75244 0.70779 0.0
C1446 C 0.56055 0.75375 0.72194 0.0
C1447 C 0.57647 0.78119 0.68493 0.0
C1448 C 0.54368 0.76163 0.67815 0.0
C1449 C 0.60847 0.79652 0.67726 0.0
C1450 C 0.64412 0.81475 0.68383 0.0
C1451 C 0.65343 0.79676 0.69346 0.0
C1452 C 0.68692 0.81418 0.69972 0.0
C1453 C 0.71147 0.84951 0.69633 0.0
C1454 C 0.70259 0.86746 0.68665 0.0
C1455 C 0.66909 0.85018 0.68038 0.0
H1456 H 0.73739 0.86295 0.70118 0.0
H1457 H 0.41422 0.67445 0.64053 0.0
H1458 H 0.83801 0.63443 0.9436 0.0
H1459 H 0.84223 0.63949 0.96855 0.0
H1460 H 0.77013 0.52608 0.97201 0.0
H1461 H 0.76612 0.52121 0.94719 0.0
H1462 H 0.78533 0.62429 0.9845 0.0
H1463 H 0.78393 0.49534 0.00188 0.0
H1464 H 0.80918 0.45787 0.99478 0.0
H1465 H 0.89545 0.54767 0.97467 0.0
H1466 H 0.87103 0.5858 0.9818 0.0
H1467 H 0.75155 0.53662 0.05756 0.0
H1468 H 0.7511 0.53432 0.03258 0.0
H1469 H 0.81954 0.6487 0.03119 0.0
H1470 H 0.8193 0.65086 0.0561 0.0
H1471 H 0.80881 0.55205 0.01766 0.0
H1472 H 0.81081 0.68128 1.00079 0.0
H1473 H 0.78529 0.71858 0.00784 0.0
H1474 H 0.69731 0.62781 0.0268 0.0
H1475 H 0.72202 0.58988 0.01971 0.0
C1476 C 0.82439 0.6105 0.94975 0.0
C1477 C 0.80229 0.57735 0.9436 0.0
C1478 C 0.82641 0.61342 0.96396 0.0
C1479 C 0.80652 0.58316 0.97215 0.0
C1480 C 0.78614 0.5497 0.96593 0.0
C1481 C 0.78399 0.54686 0.95176 0.0
C1482 C 0.80387 0.5868 0.98708 0.0
C1483 C 0.79112 0.60901 0.99178 0.0
C1484 C 0.81032 0.566 0.99653 0.0
C1485 C 0.82541 0.54335 0.99227 0.0
C1486 C 0.80836 0.50713 0.99599 0.0
C1487 C 0.82252 0.48576 0.99195 0.0
C1488 C 0.85384 0.50035 0.98424 0.0
C1489 C 0.87112 0.53637 0.98059 0.0
C1490 C 0.85708 0.55785 0.98461 0.0
C1491 C 0.76518 0.5613 0.05184 0.0
C1492 C 0.785 0.59396 0.05862 0.0
C1493 C 0.76534 0.55998 0.03762 0.0
C1494 C 0.78534 0.59133 0.02999 0.0
C1495 C 0.80349 0.62422 0.03681 0.0
C1496 C 0.80323 0.62551 0.05102 0.0
C1497 C 0.78997 0.58932 0.01508 0.0
C1498 C 0.80312 0.56742 0.01038 0.0
C1499 C 0.78383 0.61037 0.00564 0.0
C1500 C 0.76851 0.63284 0.00984 0.0
C1501 C 0.78596 0.66926 0.00642 0.0
C1502 C 0.77164 0.69051 0.01043 0.0
C1503 C 0.73977 0.6756 0.0178 0.0
C1504 C 0.72208 0.63936 0.02114 0.0
C1505 C 0.73626 0.61799 0.01715 0.0
H1506 H 0.72874 0.6921 0.0209 0.0
H1507 H 0.86475 0.48376 0.98113 0.0
H1508 H 0.22985 0.76549 0.39068 0.0
H1509 H 0.23007 0.76793 0.3658 0.0
H1510 H 0.14385 0.79083 0.36686 0.0
H1511 H 0.14366 0.78828 0.39191 0.0
H1512 H 0.13974 0.74479 0.34492 0.0
H1513 H 0.22466 0.86144 0.36345 0.0
H1514 H 0.2747 0.90259 0.37817 0.0
H1515 H 0.34143 0.8661 0.36044 0.0
H1516 H 0.29196 0.82522 0.34543 0.0
H1517 H 0.16651 0.81078 0.27797 0.0
H1518 H 0.16192 0.81091 0.30286 0.0
H1519 H 0.25505 0.79934 0.30638 0.0
H1520 H 0.2597 0.79959 0.28149 0.0
H1521 H 0.25408 0.8416 0.32625 0.0
H1522 H 0.17255 0.72524 0.30834 0.0
H1523 H 0.12384 0.68083 0.29392 0.0
H1524 H 0.05202 0.7122 0.31067 0.0
H1525 H 0.10027 0.75664 0.32526 0.0
C1526 C 0.20996 0.7695 0.38555 0.0
C1527 C 0.18631 0.77608 0.39308 0.0
C1528 C 0.21044 0.77142 0.37138 0.0
C1529 C 0.18746 0.78025 0.36454 0.0
C1530 C 0.16187 0.78409 0.37199 0.0
C1531 C 0.16145 0.78224 0.38624 0.0
C1532 C 0.19217 0.78803 0.34976 0.0
C1533 C 0.16445 0.76634 0.34083 0.0
C1534 C 0.22481 0.81556 0.34443 0.0
C1535 C 0.25458 0.84015 0.3534 0.0
C1536 C 0.25 0.86217 0.36272 0.0
C1537 C 0.2783 0.88555 0.37106 0.0
C1538 C 0.31115 0.88679 0.37031 0.0
C1539 C 0.31594 0.86504 0.36104 0.0
C1540 C 0.28787 0.84195 0.35255 0.0
C1541 C 0.18678 0.8098 0.28412 0.0
C1542 C 0.21384 0.80587 0.27796 0.0
C1543 C 0.18385 0.80928 0.2983 0.0
C1544 C 0.20772 0.80441 0.30646 0.0
C1545 C 0.2363 0.80305 0.30028 0.0
C1546 C 0.2392 0.80355 0.2861 0.0
C1547 C 0.20163 0.79834 0.32133 0.0
C1548 C 0.22916 0.8203 0.3303 0.0
C1549 C 0.16898 0.77073 0.32667 0.0
C1550 C 0.14008 0.74452 0.31776 0.0
C1551 C 0.14642 0.72282 0.30887 0.0
C1552 C 0.11887 0.69756 0.30071 0.0
C1553 C 0.08493 0.69385 0.30132 0.0
C1554 C 0.07836 0.71519 0.31017 0.0
C1555 C 0.10575 0.74032 0.31843 0.0
H1556 H 0.06368 0.67435 0.29496 0.0
H1557 H 0.3329 0.90466 0.37687 0.0
H1558 H 0.35995 0.14455 0.72208 0.0
H1559 H 0.35759 0.14271 0.69704 0.0
H1560 H 0.45902 0.24051 0.69548 0.0
H1561 H 0.46114 0.24236 0.72034 0.0
H1562 H 0.40812 0.24569 0.68143 0.0
H1563 H 0.45119 0.16266 0.6849 0.0
H1564 H 0.45013 0.10806 0.69279 0.0
H1565 H 0.34787 0.04375 0.67394 0.0
H1566 H 0.34809 0.09803 0.6661 0.0
H1567 H 0.45576 0.26249 0.61152 0.0
H1568 H 0.45004 0.25783 0.63637 0.0
H1569 H 0.35037 0.15882 0.63233 0.0
H1570 H 0.35653 0.16344 0.60745 0.0
H1571 H 0.39412 0.15119 0.64931 0.0
H1572 H 0.35266 0.23396 0.64452 0.0
H1573 H 0.3534 0.28844 0.63668 0.0
H1574 H 0.45156 0.3531 0.65815 0.0
H1575 H 0.45175 0.29902 0.66594 0.0
C1576 C 0.38225 0.16478 0.71632 0.0
C1577 C 0.41082 0.19347 0.72302 0.0
C1578 C 0.38082 0.16391 0.70205 0.0
C1579 C 0.40802 0.19169 0.6944 0.0
C1580 C 0.43765 0.21898 0.70117 0.0
C1581 C 0.43903 0.21984 0.71534 0.0
C1582 C 0.40444 0.19437 0.67948 0.0
C1583 C 0.40546 0.2252 0.67438 0.0
C1584 C 0.39964 0.16707 0.67035 0.0
C1585 C 0.39947 0.13442 0.67506 0.0
C1586 C 0.42832 0.13689 0.68255 0.0
C1587 C 0.4279 0.10599 0.68699 0.0
C1588 C 0.3989 0.07245 0.6839 0.0
C1589 C 0.37029 0.06975 0.67634 0.0
C1590 C 0.37055 0.10057 0.6719 0.0
C1591 C 0.43209 0.24047 0.61599 0.0
C1592 C 0.40625 0.21365 0.60772 0.0
C1593 C 0.42886 0.23767 0.63016 0.0
C1594 C 0.39968 0.20799 0.63624 0.0
C1595 C 0.37307 0.18193 0.62788 0.0
C1596 C 0.37633 0.18476 0.61372 0.0
C1597 C 0.39852 0.20289 0.65122 0.0
C1598 C 0.39651 0.17159 0.65635 0.0
C1599 C 0.40234 0.22975 0.6604 0.0
C1600 C 0.40236 0.26239 0.65572 0.0
C1601 C 0.37458 0.25979 0.64748 0.0
C1602 C 0.3748 0.29061 0.64306 0.0
C1603 C 0.40255 0.32421 0.64689 0.0
C1604 C 0.4301 0.32705 0.65518 0.0
C1605 C 0.43004 0.29632 0.65961 0.0
H1606 H 0.40267 0.34803 0.64346 0.0
H1607 H 0.39864 0.04856 0.68734 0.0
H1608 H 0.91846 0.2165 0.21853 0.0
H1609 H 0.96584 0.2245 0.20285 0.0
H1610 H 0.89879 0.21533 0.16875 0.0
H1611 H 0.85057 0.20483 0.18445 0.0
H1612 H 0.94228 0.19375 0.16099 0.0
H1613 H 0.95623 0.29741 0.18479 0.0
H1614 H 0.96052 0.333 0.20505 0.0
H1615 H 0.05247 0.32844 0.21867 0.0
H1616 H 0.04839 0.29237 0.19856 0.0
H1617 H 0.06311 0.33095 0.11648 0.0
H1618 H 0.01646 0.28921 0.13179 0.0
H1619 H 0.0964 0.29099 0.15852 0.0
H1620 H 0.14344 0.33275 0.14317 0.0
H1621 H 0.05065 0.30974 0.17103 0.0
H1622 H 0.04069 0.21505 0.14292 0.0
H1623 H 0.03458 0.18344 0.12134 0.0
H1624 H 0.93342 0.17641 0.11404 0.0
H1625 H 0.93913 0.20844 0.13548 0.0
C1626 C 0.91347 0.21482 0.20767 0.0
C1627 C 0.88111 0.2103 0.20265 0.0
C1628 C 0.9406 0.21967 0.19872 0.0
C1629 C 0.93638 0.22183 0.18462 0.0
C1630 C 0.90284 0.21405 0.17958 0.0
C1631 C 0.87526 0.20803 0.18854 0.0
C1632 C 0.96785 0.23685 0.17539 0.0
C1633 C 0.96597 0.21912 0.16317 0.0
C1634 C -0.00099 0.26985 0.17826 0.0
C1635 C 0.00175 0.29186 0.19027 0.0
C1636 C 0.97724 0.30385 0.19215 0.0
C1637 C 0.97963 0.3241 0.2036 0.0
C1638 C 0.00669 0.33289 0.21316 0.0
C1639 C 0.03148 0.32154 0.21127 0.0
C1640 C 0.02914 0.30119 0.19985 0.0
C1641 C 0.07081 0.32194 0.12547 0.0
C1642 C 0.10702 0.33544 0.12868 0.0
C1643 C 0.04406 0.29785 0.13417 0.0
C1644 C 0.05297 0.2869 0.14626 0.0
C1645 C 0.089 0.29901 0.14919 0.0
C1646 C 0.11582 0.32283 0.14041 0.0
C1647 C 0.02498 0.26684 0.15659 0.0
C1648 C 0.02739 0.2839 0.16899 0.0
C1649 C 0.99408 0.23381 0.15368 0.0
C1650 C 0.99046 0.21436 0.14079 0.0
C1651 C 0.01726 0.20701 0.13667 0.0
C1652 C 0.01384 0.18896 0.12447 0.0
C1653 C 0.98366 0.17797 0.11631 0.0
C1654 C 0.95679 0.18493 0.12036 0.0
C1655 C 0.96008 0.20299 0.13256 0.0
H1656 H 0.98107 0.164 0.10687 0.0
H1657 H 0.00849 0.34856 0.22203 0.0
H1658 H 0.70504 0.9219 0.55498 0.0
H1659 H 0.74453 0.96936 0.53941 0.0
H1660 H 0.69363 0.89945 0.50524 0.0
H1661 H 0.65495 0.85135 0.5209 0.0
H1662 H 0.76303 0.94917 0.49929 0.0
H1663 H 0.65916 0.94759 0.51747 0.0
H1664 H 0.61893 0.94537 0.53571 0.0
H1665 H 0.70301 0.04329 0.55232 0.0
H1666 H 0.74392 0.04576 0.53428 0.0
H1667 H 0.74358 0.06229 0.45157 0.0
H1668 H 0.74032 0.01734 0.46743 0.0
H1669 H 0.80384 0.09986 0.4964 0.0
H1670 H 0.80759 0.14526 0.48044 0.0
H1671 H 0.73717 0.04765 0.50614 0.0
H1672 H 0.8373 0.0523 0.48372 0.0
H1673 H 0.87273 0.05201 0.46413 0.0
H1674 H 0.79012 0.94628 0.45358 0.0
H1675 H 0.75392 0.94611 0.473 0.0
C1676 C 0.7034 0.91622 0.54418 0.0
C1677 C 0.67685 0.88318 0.53909 0.0
C1678 C 0.72582 0.94337 0.53529 0.0
C1679 C 0.72128 0.93825 0.52116 0.0
C1680 C 0.69745 0.90403 0.51611 0.0
C1681 C 0.67542 0.87653 0.52505 0.0
C1682 C 0.73658 0.96955 0.5119 0.0
C1683 C 0.75741 0.97072 0.50075 0.0
C1684 C 0.72937 0.99778 0.51387 0.0
C1685 C 0.70472 0.99662 0.52463 0.0
C1686 C 0.66914 0.96851 0.52507 0.0
C1687 C 0.64621 0.96721 0.53536 0.0
C1688 C 0.65845 0.99411 0.5452 0.0
C1689 C 0.6936 0.02243 0.54472 0.0
C1690 C 0.71668 0.02379 0.53446 0.0
C1691 C 0.75758 0.07098 0.46119 0.0
C1692 C 0.7756 0.10728 0.46482 0.0
C1693 C 0.75588 0.04525 0.47021 0.0
C1694 C 0.77191 0.05527 0.48307 0.0
C1695 C 0.79146 0.09164 0.48648 0.0
C1696 C 0.79364 0.11753 0.47735 0.0
C1697 C 0.76379 0.02748 0.49351 0.0
C1698 C 0.74373 0.02668 0.50484 0.0
C1699 C 0.77107 -0.00065 0.49147 0.0
C1700 C 0.79278 -0.0007 0.47978 0.0
C1701 C 0.82654 0.02909 0.47716 0.0
C1702 C 0.84679 0.02899 0.4661 0.0
C1703 C 0.83366 -0.00083 0.4576 0.0
C1704 C 0.80026 0.96936 0.46017 0.0
C1705 C 0.77988 0.96934 0.47122 0.0
H1706 H 0.84938 -0.00086 0.44904 0.0
H1707 H 0.64066 0.99306 0.55317 0.0
H1708 H 0.65394 0.80367 0.82206 0.0
H1709 H 0.69241 0.79552 0.8381 0.0
H1710 H 0.75814 0.79698 0.80475 0.0
H1711 H 0.71842 0.80315 0.7887 0.0
H1712 H 0.73422 0.73838 0.81724 0.0
H1713 H 0.7915 0.85844 0.83269 0.0
H1714 H 0.79621 0.91444 0.84091 0.0
H1715 H 0.7362 0.86074 0.87665 0.0
H1716 H 0.73068 0.80427 0.86856 0.0
H1717 H 0.81495 0.67277 0.86189 0.0
H1718 H 0.81347 0.71897 0.84796 0.0
H1719 H 0.72934 0.71368 0.87315 0.0
H1720 H 0.73078 0.66792 0.88715 0.0
H1721 H 0.77544 0.78276 0.86404 0.0
H1722 H 0.70759 0.66238 0.84574 0.0
H1723 H 0.70084 0.6054 0.83759 0.0
H1724 H 0.78047 0.66119 0.80696 0.0
H1725 H 0.78799 0.71857 0.81505 0.0
C1726 C 0.67759 0.80399 0.81825 0.0
C1727 C 0.6833 0.804 0.80419 0.0
C1728 C 0.69966 0.79929 0.82743 0.0
C1729 C 0.72821 0.79538 0.82267 0.0
C1730 C 0.73618 0.79961 0.80869 0.0
C1731 C 0.71368 0.80345 0.79952 0.0
C1732 C 0.74496 0.78018 0.83169 0.0
C1733 C 0.74429 0.74893 0.82731 0.0
C1734 C 0.75716 0.79307 0.84501 0.0
C1735 C 0.76052 0.82703 0.84997 0.0
C1736 C 0.77909 0.85849 0.84226 0.0
C1737 C 0.78194 0.89034 0.84691 0.0
C1738 C 0.76648 0.89114 0.85929 0.0
C1739 C 0.74819 0.86009 0.86706 0.0
C1740 C 0.74524 0.82816 0.86246 0.0
C1741 C 0.7967 0.682 0.86465 0.0
C1742 C 0.77255 0.66618 0.87549 0.0
C1743 C 0.79591 0.70843 0.85668 0.0
C1744 C 0.77098 0.71942 0.85943 0.0
C1745 C 0.74878 0.70562 0.87085 0.0
C1746 C 0.74946 0.67919 0.87877 0.0
C1747 C 0.7644 0.74132 0.8495 0.0
C1748 C 0.76653 0.7733 0.85377 0.0
C1749 C 0.75343 0.72922 0.83604 0.0
C1750 C 0.74868 0.69475 0.8311 0.0
C1751 C 0.72382 0.66249 0.83733 0.0
C1752 C 0.71983 0.63014 0.83271 0.0
C1753 C 0.74031 0.6297 0.8218 0.0
C1754 C 0.7647 0.66159 0.81543 0.0
C1755 C 0.76884 0.69403 0.82002 0.0
H1756 H 0.73725 0.60466 0.81826 0.0
H1757 H 0.7687 0.91582 0.86286 0.0
H1758 H 0.07144 0.70571 0.20987 0.0
H1759 H 0.02493 0.70121 0.19465 0.0
H1760 H 0.08531 0.81441 0.1872 0.0
H1761 H 0.13285 0.81929 0.2023 0.0
H1762 H 0.99826 0.77201 0.19135 0.0
H1763 H 0.09819 0.78539 0.16461 0.0
H1764 H 0.14654 0.77306 0.15907 0.0
H1765 H 0.06985 0.6619 0.154 0.0
H1766 H 0.02119 0.67341 0.16 0.0
H1767 H 0.92336 0.69975 0.11685 0.0
H1768 H 0.9704 0.73915 0.13256 0.0
H1769 H 0.8997 0.68721 0.1665 0.0
H1770 H 0.85205 0.64907 0.15068 0.0
H1771 H -0.00116 0.7139 0.14791 0.0
H1772 H 0.93066 0.73405 0.19566 0.0
H1773 H 0.88319 0.74792 0.20091 0.0
H1774 H 0.89798 0.79821 0.16191 0.0
H1775 H 0.94589 0.78511 0.15649 0.0
C1776 C 0.07475 0.72987 0.20521 0.0
C1777 C 0.1061 0.76285 0.20721 0.0
C1778 C 0.04801 0.7272 0.19655 0.0
C1779 C 0.05178 0.75746 0.18985 0.0
C1780 C 0.08195 0.79083 0.19238 0.0
C1781 C 0.10912 0.79349 0.20092 0.0
C1782 C 0.02614 0.75278 0.179 0.0
C1783 C 0.99837 0.7597 0.18175 0.0
C1784 C 0.02689 0.73731 0.16646 0.0
C1785 C 0.05611 0.73021 0.16294 0.0
C1786 C 0.09171 0.75824 0.16254 0.0
C1787 C 0.11918 0.7514 0.1593 0.0
C1788 C 0.11133 0.71668 0.15627 0.0
C1789 C 0.07597 0.68874 0.15645 0.0
C1790 C 0.04843 0.6954 0.15979 0.0
C1791 C 0.91751 0.6978 0.12764 0.0
C1792 C 0.88425 0.67139 0.1326 0.0
C1793 C 0.94441 0.72021 0.13663 0.0
C1794 C 0.93885 0.71607 0.15076 0.0
C1795 C 0.90464 0.69145 0.15567 0.0
C1796 C 0.87738 0.66954 0.14662 0.0
C1797 C 0.97001 0.73257 0.16014 0.0
C1798 C -0.0012 0.72724 0.15725 0.0
C1799 C 0.97029 0.75001 0.1724 0.0
C1800 C 0.94175 0.75837 0.17564 0.0
C1801 C 0.92395 0.74825 0.18823 0.0
C1802 C 0.89691 0.75593 0.19123 0.0
C1803 C 0.88752 0.77386 0.18174 0.0
C1804 C 0.9052 0.78422 0.16923 0.0
C1805 C 0.93226 0.77661 0.16619 0.0
H1806 H 0.86657 0.77976 0.18407 0.0
H1807 H 0.13265 0.71151 0.15372 0.0
H1808 H 0.33677 0.14033 0.52103 0.0
H1809 H 0.29432 0.0883 0.50795 0.0
H1810 H 0.28486 0.01976 0.54158 0.0
H1811 H 0.32922 0.07166 0.55426 0.0
H1812 H 0.29648 0.99446 0.52101 0.0
H1813 H 0.21289 0.03284 0.52913 0.0
H1814 H 0.18959 0.07437 0.53044 0.0
H1815 H 0.20363 0.09209 0.48732 0.0
H1816 H 0.22749 0.05105 0.48577 0.0
H1817 H 0.18559 0.84478 0.48168 0.0
H1818 H 0.1926 0.88892 0.49882 0.0
H1819 H 0.24486 0.97296 0.46919 0.0
H1820 H 0.23846 0.92918 0.45207 0.0
H1821 H 0.20085 0.98375 0.49013 0.0
H1822 H 0.29652 0.95455 0.48454 0.0
H1823 H 0.31737 0.91094 0.48351 0.0
H1824 H 0.27578 0.87371 0.5236 0.0
H1825 H 0.25418 0.91677 0.52475 0.0
C1826 C 0.32501 0.1142 0.5257 0.0
C1827 C 0.33639 0.10988 0.53858 0.0
C1828 C 0.30047 0.0844 0.51826 0.0
C1829 C 0.28596 0.04988 0.52377 0.0
C1830 C 0.29573 0.04597 0.53704 0.0
C1831 C 0.32102 0.07562 0.5443 0.0
C1832 C 0.2645 0.01783 0.51513 0.0
C1833 C 0.27489 0.99184 0.5146 0.0
C1834 C 0.23661 0.01429 0.50649 0.0
C1835 C 0.2222 0.03899 0.50735 0.0
C1836 C 0.21125 0.04577 0.51994 0.0
C1837 C 0.19789 0.0692 0.52072 0.0
C1838 C 0.19518 0.0859 0.50898 0.0
C1839 C 0.20574 0.07914 0.49641 0.0
C1840 C 0.21913 0.05574 0.49557 0.0
C1841 C 0.19741 0.8725 0.47868 0.0
C1842 C 0.21204 0.88366 0.46562 0.0
C1843 C 0.20134 0.89765 0.48848 0.0
C1844 C 0.21951 0.93414 0.48526 0.0
C1845 C 0.23068 0.94489 0.47184 0.0
C1846 C 0.22724 0.91988 0.46211 0.0
C1847 C 0.23319 0.96125 0.49618 0.0
C1848 C 0.22168 0.98626 0.49697 0.0
C1849 C 0.2597 0.96378 0.50524 0.0
C1850 C 0.27342 0.93854 0.50467 0.0
C1851 C 0.29164 0.93689 0.49309 0.0
C1852 C 0.3036 0.9123 0.49249 0.0
C1853 C 0.29781 0.8895 0.50347 0.0
C1854 C 0.28018 0.89134 0.5151 0.0
C1855 C 0.26808 0.91583 0.51573 0.0
H1856 H 0.30707 0.87046 0.50298 0.0
H1857 H 0.18484 0.10404 0.50961 0.0
H1858 H 0.18134 0.33594 0.85339 0.0
H1859 H 0.18528 0.29649 0.83643 0.0
H1860 H 0.23915 0.26547 0.86566 0.0
H1861 H 0.23539 0.30469 0.88256 0.0
H1862 H 0.25118 0.31043 0.828 0.0
H1863 H 0.22764 0.18377 0.85724 0.0
H1864 H 0.18749 0.14312 0.87494 0.0
H1865 H 0.10776 0.17007 0.86404 0.0
H1866 H 0.14718 0.21048 0.84614 0.0
H1867 H 0.33393 0.19555 0.8124 0.0
H1868 H 0.29318 0.20413 0.82718 0.0
H1869 H 0.25421 0.23519 0.79235 0.0
H1870 H 0.29602 0.22829 0.77771 0.0
H1871 H 0.22457 0.18502 0.83095 0.0
H1872 H 0.24994 0.30885 0.79978 0.0
H1873 H 0.29425 0.35222 0.7837 0.0
H1874 H 0.37532 0.33462 0.80099 0.0
H1875 H 0.33165 0.29162 0.8173 0.0
C1876 C 0.19297 0.31983 0.85632 0.0
C1877 C 0.20842 0.32371 0.86925 0.0
C1878 C 0.19529 0.29738 0.84662 0.0
C1879 C 0.21247 0.27801 0.84978 0.0
C1880 C 0.22539 0.27979 0.86302 0.0
C1881 C 0.22344 0.30245 0.87265 0.0
C1882 C 0.22225 0.26077 0.83887 0.0
C1883 C 0.24444 0.28269 0.82842 0.0
C1884 C 0.21464 0.22499 0.83975 0.0
C1885 C 0.19053 0.20038 0.85039 0.0
C1886 C 0.20147 0.18089 0.85856 0.0
C1887 C 0.17884 0.15791 0.86864 0.0
C1888 C 0.14513 0.15408 0.87063 0.0
C1889 C 0.13393 0.17316 0.86252 0.0
C1890 C 0.15644 0.19616 0.85242 0.0
C1891 C 0.31588 0.20317 0.80787 0.0
C1892 C 0.31843 0.21181 0.79398 0.0
C1893 C 0.2926 0.20807 0.81631 0.0
C1894 C 0.27133 0.22125 0.81093 0.0
C1895 C 0.271 0.22587 0.79679 0.0
C1896 C 0.29478 0.22179 0.78842 0.0
C1897 C 0.25357 0.23481 0.82017 0.0
C1898 C 0.23037 0.21243 0.83034 0.0
C1899 C 0.26077 0.27051 0.81926 0.0
C1900 C 0.28739 0.29666 0.80961 0.0
C1901 C 0.27724 0.31432 0.80016 0.0
C1902 C 0.30225 0.33884 0.79102 0.0
C1903 C 0.33754 0.34605 0.79129 0.0
C1904 C 0.34795 0.32891 0.80075 0.0
C1905 C 0.32308 0.30446 0.80995 0.0
H1906 H 0.35684 0.36499 0.78418 0.0
H1907 H 0.12766 0.13629 0.87845 0.0
loop_
_geom_bond_atom_site_label_1
_geom_bond_atom_site_label_2
_geom_bond_distance
_geom_bond_site_symmetry_2
_ccdc_geom_bond_type
Co0 O3 1.970 . S
Co0 N17 1.989 . S
Co0 O25 1.967 . S
Co0 O32 1.920 . S
Co1 O4 1.966 . S
Co1 N10 2.022 . S
Co1 N18 1.993 . S
Co1 O26 1.941 . S
C2 O3 1.258 . S
C2 O4 1.263 . S
O3 Co0 1.970 . S
O3 C2 1.258 . S
O4 Co1 1.966 . S
O4 C2 1.263 . S
C5 O6 1.235 . S
C5 O32 1.289 . S
O6 C5 1.235 . S
C7 C9 1.400 . S
C7 N10 1.351 . S
C7 C12 1.501 . S
C8 C9 1.387 . S
C8 N11 1.341 . S
C9 C7 1.400 . S
C9 C8 1.387 . S
N10 Co1 2.022 . S
N10 C7 1.351 . S
N10 N11 1.365 . S
N11 C8 1.341 . S
N11 N10 1.365 . S
N11 H31 0.862 . S
C12 C7 1.501 . S
C12 H13 0.961 . S
C12 H14 0.961 . S
C12 H15 0.960 . S
H13 C12 0.961 . S
H14 C12 0.961 . S
H15 C12 0.960 . S
C16 N17 1.342 . S
C16 C20 1.401 . S
C16 C21 1.499 . S
N17 Co0 1.989 . S
N17 C16 1.342 . S
N17 N18 1.388 . S
N18 Co1 1.993 . S
N18 N17 1.388 . S
N18 C19 1.346 . S
C19 N18 1.346 . S
C19 C20 1.396 . S
C19 C29 1.510 . S
C20 C16 1.401 . S
C20 C19 1.396 . S
C21 C16 1.499 . S
C21 H22 0.959 . S
C21 H23 0.960 . S
C21 H24 0.961 . S
H22 C21 0.959 . S
H23 C21 0.960 . S
H24 C21 0.961 . S
O25 Co0 1.967 . S
O25 C33 1.258 . S
O26 Co1 1.941 . S
O26 C33 1.266 . S
H27 C29 0.959 . S
H28 C29 0.961 . S
C29 C19 1.510 . S
C29 H27 0.959 . S
C29 H28 0.961 . S
C29 H30 0.960 . S
H30 C29 0.960 . S
H31 N11 0.862 . S
O32 Co0 1.920 . S
O32 C5 1.289 . S
C33 O25 1.258 . S
C33 O26 1.266 . S
Co34 O37 1.970 . S
Co34 N51 1.989 . S
Co34 O59 1.967 . S
Co34 O66 1.920 . S
Co35 O38 1.966 . S
Co35 N44 2.022 . S
Co35 N52 1.993 . S
Co35 O60 1.941 . S
C36 O37 1.258 . S
C36 O38 1.263 . S
O37 Co34 1.970 . S
O37 C36 1.258 . S
O38 Co35 1.966 . S
O38 C36 1.263 . S
C39 O40 1.235 . S
C39 O66 1.289 . S
O40 C39 1.235 . S
C41 C43 1.400 . S
C41 N44 1.351 . S
C41 C46 1.501 . S
C42 C43 1.387 . S
C42 N45 1.341 . S
C43 C41 1.400 . S
C43 C42 1.387 . S
N44 Co35 2.022 . S
N44 C41 1.351 . S
N44 N45 1.365 . S
N45 C42 1.341 . S
N45 N44 1.365 . S
N45 H65 0.862 . S
C46 C41 1.501 . S
C46 H47 0.961 . S
C46 H48 0.961 . S
C46 H49 0.960 . S
H47 C46 0.961 . S
H48 C46 0.961 . S
H49 C46 0.960 . S
C50 N51 1.342 . S
C50 C54 1.401 . S
C50 C55 1.499 . S
N51 Co34 1.989 . S
N51 C50 1.342 . S
N51 N52 1.388 . S
N52 Co35 1.993 . S
N52 N51 1.388 . S
N52 C53 1.346 . S
C53 N52 1.346 . S
C53 C54 1.396 . S
C53 C63 1.510 . S
C54 C50 1.401 . S
C54 C53 1.396 . S
C55 C50 1.499 . S
C55 H56 0.959 . S
C55 H57 0.960 . S
C55 H58 0.961 . S
H56 C55 0.959 . S
H57 C55 0.960 . S
H58 C55 0.961 . S
O59 Co34 1.967 . S
O59 C67 1.258 . S
O60 Co35 1.941 . S
O60 C67 1.266 . S
H61 C63 0.959 . S
H62 C63 0.961 . S
C63 C53 1.510 . S
C63 H61 0.959 . S
C63 H62 0.961 . S
C63 H64 0.960 . S
H64 C63 0.960 . S
H65 N45 0.862 . S
O66 Co34 1.920 . S
O66 C39 1.289 . S
C67 O59 1.258 . S
C67 O60 1.266 . S
Co68 O71 1.970 . S
Co68 N85 1.989 . S
Co68 O93 1.967 . S
Co68 O100 1.920 . S
Co69 O72 1.966 . S
Co69 N78 2.022 . S
Co69 N86 1.993 . S
Co69 O94 1.941 . S
C70 O71 1.258 . S
C70 O72 1.263 . S
O71 Co68 1.970 . S
O71 C70 1.258 . S
O72 Co69 1.966 . S
O72 C70 1.263 . S
C73 O74 1.235 . S
C73 O100 1.289 . S
O74 C73 1.235 . S
C75 C77 1.400 . S
C75 N78 1.351 . S
C75 C80 1.501 . S
C76 C77 1.387 . S
C76 N79 1.341 . S
C77 C75 1.400 . S
C77 C76 1.387 . S
N78 Co69 2.022 . S
N78 C75 1.351 . S
N78 N79 1.365 . S
N79 C76 1.341 . S
N79 N78 1.365 . S
N79 H99 0.862 . S
C80 C75 1.501 . S
C80 H81 0.961 . S
C80 H82 0.961 . S
C80 H83 0.960 . S
H81 C80 0.961 . S
H82 C80 0.961 . S
H83 C80 0.960 . S
C84 N85 1.342 . S
C84 C88 1.401 . S
C84 C89 1.499 . S
N85 Co68 1.989 . S
N85 C84 1.342 . S
N85 N86 1.388 . S
N86 Co69 1.993 . S
N86 N85 1.388 . S
N86 C87 1.346 . S
C87 N86 1.346 . S
C87 C88 1.396 . S
C87 C97 1.510 . S
C88 C84 1.401 . S
C88 C87 1.396 . S
C89 C84 1.499 . S
C89 H90 0.959 . S
C89 H91 0.960 . S
C89 H92 0.961 . S
H90 C89 0.959 . S
H91 C89 0.960 . S
H92 C89 0.961 . S
O93 Co68 1.967 . S
O93 C101 1.258 . S
O94 Co69 1.941 . S
O94 C101 1.266 . S
H95 C97 0.959 . S
H96 C97 0.961 . S
C97 C87 1.510 . S
C97 H95 0.959 . S
C97 H96 0.961 . S
C97 H98 0.960 . S
H98 C97 0.960 . S
H99 N79 0.862 . S
O100 Co68 1.920 . S
O100 C73 1.289 . S
C101 O93 1.258 . S
C101 O94 1.266 . S
Co102 O105 1.970 . S
Co102 N119 1.989 . S
Co102 O127 1.967 . S
Co102 O134 1.920 . S
Co103 O106 1.966 . S
Co103 N112 2.022 . S
Co103 N120 1.993 . S
Co103 O128 1.941 . S
C104 O105 1.258 . S
C104 O106 1.263 . S
O105 Co102 1.970 . S
O105 C104 1.258 . S
O106 Co103 1.966 . S
O106 C104 1.263 . S
C107 O108 1.235 . S
C107 O134 1.289 . S
O108 C107 1.235 . S
C109 C111 1.400 . S
C109 N112 1.351 . S
C109 C114 1.501 . S
C110 C111 1.387 . S
C110 N113 1.341 . S
C111 C109 1.400 . S
C111 C110 1.387 . S
N112 Co103 2.022 . S
N112 C109 1.351 . S
N112 N113 1.365 . S
N113 C110 1.341 . S
N113 N112 1.365 . S
N113 H133 0.862 . S
C114 C109 1.501 . S
C114 H115 0.961 . S
C114 H116 0.961 . S
C114 H117 0.960 . S
H115 C114 0.961 . S
H116 C114 0.961 . S
H117 C114 0.960 . S
C118 N119 1.342 . S
C118 C122 1.401 . S
C118 C123 1.499 . S
N119 Co102 1.989 . S
N119 C118 1.342 . S
N119 N120 1.388 . S
N120 Co103 1.993 . S
N120 N119 1.388 . S
N120 C121 1.346 . S
C121 N120 1.346 . S
C121 C122 1.396 . S
C121 C131 1.510 . S
C122 C118 1.401 . S
C122 C121 1.396 . S
C123 C118 1.499 . S
C123 H124 0.959 . S
C123 H125 0.960 . S
C123 H126 0.961 . S
H124 C123 0.959 . S
H125 C123 0.960 . S
H126 C123 0.961 . S
O127 Co102 1.967 . S
O127 C135 1.258 . S
O128 Co103 1.941 . S
O128 C135 1.266 . S
H129 C131 0.959 . S
H130 C131 0.961 . S
C131 C121 1.510 . S
C131 H129 0.959 . S
C131 H130 0.961 . S
C131 H132 0.960 . S
H132 C131 0.960 . S
H133 N113 0.862 . S
O134 Co102 1.920 . S
O134 C107 1.289 . S
C135 O127 1.258 . S
C135 O128 1.266 . S
Co136 O139 1.970 . S
Co136 N153 1.989 . S
Co136 O161 1.967 . S
Co136 O168 1.920 . S
Co137 O140 1.966 . S
Co137 N146 2.022 . S
Co137 N154 1.993 . S
Co137 O162 1.941 . S
C138 O139 1.258 . S
C138 O140 1.263 . S
O139 Co136 1.970 . S
O139 C138 1.258 . S
O140 Co137 1.966 . S
O140 C138 1.263 . S
C141 O142 1.235 . S
C141 O168 1.289 . S
O142 C141 1.235 . S
C143 C145 1.400 . S
C143 N146 1.351 . S
C143 C148 1.501 . S
C144 C145 1.387 . S
C144 N147 1.341 . S
C145 C143 1.400 . S
C145 C144 1.387 . S
N146 Co137 2.022 . S
N146 C143 1.351 . S
N146 N147 1.365 . S
N147 C144 1.341 . S
N147 N146 1.365 . S
N147 H167 0.862 . S
C148 C143 1.501 . S
C148 H149 0.961 . S
C148 H150 0.961 . S
C148 H151 0.960 . S
H149 C148 0.961 . S
H150 C148 0.961 . S
H151 C148 0.960 . S
C152 N153 1.342 . S
C152 C156 1.401 . S
C152 C157 1.499 . S
N153 Co136 1.989 . S
N153 C152 1.342 . S
N153 N154 1.388 . S
N154 Co137 1.993 . S
N154 N153 1.388 . S
N154 C155 1.346 . S
C155 N154 1.346 . S
C155 C156 1.396 . S
C155 C165 1.510 . S
C156 C152 1.401 . S
C156 C155 1.396 . S
C157 C152 1.499 . S
C157 H158 0.959 . S
C157 H159 0.960 . S
C157 H160 0.961 . S
H158 C157 0.959 . S
H159 C157 0.960 . S
H160 C157 0.961 . S
O161 Co136 1.967 . S
O161 C169 1.258 . S
O162 Co137 1.941 . S
O162 C169 1.266 . S
H163 C165 0.959 . S
H164 C165 0.961 . S
C165 C155 1.510 . S
C165 H163 0.959 . S
C165 H164 0.961 . S
C165 H166 0.960 . S
H166 C165 0.960 . S
H167 N147 0.862 . S
O168 Co136 1.920 . S
O168 C141 1.289 . S
C169 O161 1.258 . S
C169 O162 1.266 . S
Co170 O173 1.970 . S
Co170 N187 1.989 . S
Co170 O195 1.967 . S
Co170 O202 1.920 . S
Co171 O174 1.966 . S
Co171 N180 2.022 . S
Co171 N188 1.993 . S
Co171 O196 1.941 . S
C172 O173 1.258 . S
C172 O174 1.263 . S
O173 Co170 1.970 . S
O173 C172 1.258 . S
O174 Co171 1.966 . S
O174 C172 1.263 . S
C175 O176 1.235 . S
C175 O202 1.289 . S
O176 C175 1.235 . S
C177 C179 1.400 . S
C177 N180 1.351 . S
C177 C182 1.501 . S
C178 C179 1.387 . S
C178 N181 1.341 . S
C179 C177 1.400 . S
C179 C178 1.387 . S
N180 Co171 2.022 . S
N180 C177 1.351 . S
N180 N181 1.365 . S
N181 C178 1.341 . S
N181 N180 1.365 . S
N181 H201 0.862 . S
C182 C177 1.501 . S
C182 H183 0.961 . S
C182 H184 0.961 . S
C182 H185 0.960 . S
H183 C182 0.961 . S
H184 C182 0.961 . S
H185 C182 0.960 . S
C186 N187 1.342 . S
C186 C190 1.401 . S
C186 C191 1.499 . S
N187 Co170 1.989 . S
N187 C186 1.342 . S
N187 N188 1.388 . S
N188 Co171 1.993 . S
N188 N187 1.388 . S
N188 C189 1.346 . S
C189 N188 1.346 . S
C189 C190 1.396 . S
C189 C199 1.510 . S
C190 C186 1.401 . S
C190 C189 1.396 . S
C191 C186 1.499 . S
C191 H192 0.959 . S
C191 H193 0.960 . S
C191 H194 0.961 . S
H192 C191 0.959 . S
H193 C191 0.960 . S
H194 C191 0.961 . S
O195 Co170 1.967 . S
O195 C203 1.258 . S
O196 Co171 1.941 . S
O196 C203 1.266 . S
H197 C199 0.959 . S
H198 C199 0.961 . S
C199 C189 1.510 . S
C199 H197 0.959 . S
C199 H198 0.961 . S
C199 H200 0.960 . S
H200 C199 0.960 . S
H201 N181 0.862 . S
O202 Co170 1.920 . S
O202 C175 1.289 . S
C203 O195 1.258 . S
C203 O196 1.266 . S
Co204 O207 1.970 . S
Co204 N221 1.989 . S
Co204 O229 1.967 . S
Co204 O236 1.920 . S
Co205 O208 1.966 . S
Co205 N214 2.022 . S
Co205 N222 1.993 . S
Co205 O230 1.941 . S
C206 O207 1.258 . S
C206 O208 1.263 . S
O207 Co204 1.970 . S
O207 C206 1.258 . S
O208 Co205 1.966 . S
O208 C206 1.263 . S
C209 O210 1.235 . S
C209 O236 1.289 . S
O210 C209 1.235 . S
C211 C213 1.400 . S
C211 N214 1.351 . S
C211 C216 1.501 . S
C212 C213 1.387 . S
C212 N215 1.341 . S
C213 C211 1.400 . S
C213 C212 1.387 . S
N214 Co205 2.022 . S
N214 C211 1.351 . S
N214 N215 1.365 . S
N215 C212 1.341 . S
N215 N214 1.365 . S
N215 H235 0.862 . S
C216 C211 1.501 . S
C216 H217 0.961 . S
C216 H218 0.961 . S
C216 H219 0.960 . S
H217 C216 0.961 . S
H218 C216 0.961 . S
H219 C216 0.960 . S
C220 N221 1.342 . S
C220 C224 1.401 . S
C220 C225 1.499 . S
N221 Co204 1.989 . S
N221 C220 1.342 . S
N221 N222 1.388 . S
N222 Co205 1.993 . S
N222 N221 1.388 . S
N222 C223 1.346 . S
C223 N222 1.346 . S
C223 C224 1.396 . S
C223 C233 1.510 . S
C224 C220 1.401 . S
C224 C223 1.396 . S
C225 C220 1.499 . S
C225 H226 0.959 . S
C225 H227 0.960 . S
C225 H228 0.961 . S
H226 C225 0.959 . S
H227 C225 0.960 . S
H228 C225 0.961 . S
O229 Co204 1.967 . S
O229 C237 1.258 . S
O230 Co205 1.941 . S
O230 C237 1.266 . S
H231 C233 0.959 . S
H232 C233 0.961 . S
C233 C223 1.510 . S
C233 H231 0.959 . S
C233 H232 0.961 . S
C233 H234 0.960 . S
H234 C233 0.960 . S
H235 N215 0.862 . S
O236 Co204 1.920 . S
O236 C209 1.289 . S
C237 O229 1.258 . S
C237 O230 1.266 . S
Co238 O241 1.970 . S
Co238 N255 1.989 . S
Co238 O263 1.967 . S
Co238 O270 1.920 . S
Co239 O242 1.966 . S
Co239 N248 2.022 . S
Co239 N256 1.993 . S
Co239 O264 1.941 . S
C240 O241 1.258 . S
C240 O242 1.263 . S
O241 Co238 1.970 . S
O241 C240 1.258 . S
O242 Co239 1.966 . S
O242 C240 1.263 . S
C243 O244 1.235 . S
C243 O270 1.289 . S
O244 C243 1.235 . S
C245 C247 1.400 . S
C245 N248 1.351 . S
C245 C250 1.501 . S
C246 C247 1.387 . S
C246 N249 1.341 . S
C247 C245 1.400 . S
C247 C246 1.387 . S
N248 Co239 2.022 . S
N248 C245 1.351 . S
N248 N249 1.365 . S
N249 C246 1.341 . S
N249 N248 1.365 . S
N249 H269 0.862 . S
C250 C245 1.501 . S
C250 H251 0.961 . S
C250 H252 0.961 . S
C250 H253 0.960 . S
H251 C250 0.961 . S
H252 C250 0.961 . S
H253 C250 0.960 . S
C254 N255 1.342 . S
C254 C258 1.401 . S
C254 C259 1.499 . S
N255 Co238 1.989 . S
N255 C254 1.342 . S
N255 N256 1.388 . S
N256 Co239 1.993 . S
N256 N255 1.388 . S
N256 C257 1.346 . S
C257 N256 1.346 . S
C257 C258 1.396 . S
C257 C267 1.510 . S
C258 C254 1.401 . S
C258 C257 1.396 . S
C259 C254 1.499 . S
C259 H260 0.959 . S
C259 H261 0.960 . S
C259 H262 0.961 . S
H260 C259 0.959 . S
H261 C259 0.960 . S
H262 C259 0.961 . S
O263 Co238 1.967 . S
O263 C271 1.258 . S
O264 Co239 1.941 . S
O264 C271 1.266 . S
H265 C267 0.959 . S
H266 C267 0.961 . S
C267 C257 1.510 . S
C267 H265 0.959 . S
C267 H266 0.961 . S
C267 H268 0.960 . S
H268 C267 0.960 . S
H269 N249 0.862 . S
O270 Co238 1.920 . S
O270 C243 1.289 . S
C271 O263 1.258 . S
C271 O264 1.266 . S
Co272 O275 1.970 . S
Co272 N289 1.989 . S
Co272 O297 1.967 . S
Co272 O304 1.920 . S
Co273 O276 1.966 . S
Co273 N282 2.022 . S
Co273 N290 1.993 . S
Co273 O298 1.941 . S
C274 O275 1.258 . S
C274 O276 1.263 . S
O275 Co272 1.970 . S
O275 C274 1.258 . S
O276 Co273 1.966 . S
O276 C274 1.263 . S
C277 O278 1.235 . S
C277 O304 1.289 . S
O278 C277 1.235 . S
C279 C281 1.400 . S
C279 N282 1.351 . S
C279 C284 1.501 . S
C280 C281 1.387 . S
C280 N283 1.341 . S
C281 C279 1.400 . S
C281 C280 1.387 . S
N282 Co273 2.022 . S
N282 C279 1.351 . S
N282 N283 1.365 . S
N283 C280 1.341 . S
N283 N282 1.365 . S
N283 H303 0.862 . S
C284 C279 1.501 . S
C284 H285 0.961 . S
C284 H286 0.961 . S
C284 H287 0.960 . S
H285 C284 0.961 . S
H286 C284 0.961 . S
H287 C284 0.960 . S
C288 N289 1.342 . S
C288 C292 1.401 . S
C288 C293 1.499 . S
N289 Co272 1.989 . S
N289 C288 1.342 . S
N289 N290 1.388 . S
N290 Co273 1.993 . S
N290 N289 1.388 . S
N290 C291 1.346 . S
C291 N290 1.346 . S
C291 C292 1.396 . S
C291 C301 1.510 . S
C292 C288 1.401 . S
C292 C291 1.396 . S
C293 C288 1.499 . S
C293 H294 0.959 . S
C293 H295 0.960 . S
C293 H296 0.961 . S
H294 C293 0.959 . S
H295 C293 0.960 . S
H296 C293 0.961 . S
O297 Co272 1.967 . S
O297 C305 1.258 . S
O298 Co273 1.941 . S
O298 C305 1.266 . S
H299 C301 0.959 . S
H300 C301 0.961 . S
C301 C291 1.510 . S
C301 H299 0.959 . S
C301 H300 0.961 . S
C301 H302 0.960 . S
H302 C301 0.960 . S
H303 N283 0.862 . S
O304 Co272 1.920 . S
O304 C277 1.289 . S
C305 O297 1.258 . S
C305 O298 1.266 . S
Co306 O309 1.970 . S
Co306 N323 1.989 . S
Co306 O331 1.967 . S
Co306 O338 1.920 . S
Co307 O310 1.966 . S
Co307 N316 2.022 . S
Co307 N324 1.993 . S
Co307 O332 1.941 . S
C308 O309 1.258 . S
C308 O310 1.263 . S
O309 Co306 1.970 . S
O309 C308 1.258 . S
O310 Co307 1.966 . S
O310 C308 1.263 . S
C311 O312 1.235 . S
C311 O338 1.289 . S
O312 C311 1.235 . S
C313 C315 1.400 . S
C313 N316 1.351 . S
C313 C318 1.501 . S
C314 C315 1.387 . S
C314 N317 1.341 . S
C315 C313 1.400 . S
C315 C314 1.387 . S
N316 Co307 2.022 . S
N316 C313 1.351 . S
N316 N317 1.365 . S
N317 C314 1.341 . S
N317 N316 1.365 . S
N317 H337 0.862 . S
C318 C313 1.501 . S
C318 H319 0.961 . S
C318 H320 0.961 . S
C318 H321 0.960 . S
H319 C318 0.961 . S
H320 C318 0.961 . S
H321 C318 0.960 . S
C322 N323 1.342 . S
C322 C326 1.401 . S
C322 C327 1.499 . S
N323 Co306 1.989 . S
N323 C322 1.342 . S
N323 N324 1.388 . S
N324 Co307 1.993 . S
N324 N323 1.388 . S
N324 C325 1.346 . S
C325 N324 1.346 . S
C325 C326 1.396 . S
C325 C335 1.510 . S
C326 C322 1.401 . S
C326 C325 1.396 . S
C327 C322 1.499 . S
C327 H328 0.959 . S
C327 H329 0.960 . S
C327 H330 0.961 . S
H328 C327 0.959 . S
H329 C327 0.960 . S
H330 C327 0.961 . S
O331 Co306 1.967 . S
O331 C339 1.258 . S
O332 Co307 1.941 . S
O332 C339 1.266 . S
H333 C335 0.959 . S
H334 C335 0.961 . S
C335 C325 1.510 . S
C335 H333 0.959 . S
C335 H334 0.961 . S
C335 H336 0.960 . S
H336 C335 0.960 . S
H337 N317 0.862 . S
O338 Co306 1.920 . S
O338 C311 1.289 . S
C339 O331 1.258 . S
C339 O332 1.266 . S
Co340 O343 1.970 . S
Co340 N357 1.989 . S
Co340 O365 1.967 . S
Co340 O372 1.920 . S
Co341 O344 1.966 . S
Co341 N350 2.022 . S
Co341 N358 1.993 . S
Co341 O366 1.941 . S
C342 O343 1.258 . S
C342 O344 1.263 . S
O343 Co340 1.970 . S
O343 C342 1.258 . S
O344 Co341 1.966 . S
O344 C342 1.263 . S
C345 O346 1.235 . S
C345 O372 1.289 . S
O346 C345 1.235 . S
C347 C349 1.400 . S
C347 N350 1.351 . S
C347 C352 1.501 . S
C348 C349 1.387 . S
C348 N351 1.341 . S
C349 C347 1.400 . S
C349 C348 1.387 . S
N350 Co341 2.022 . S
N350 C347 1.351 . S
N350 N351 1.365 . S
N351 C348 1.341 . S
N351 N350 1.365 . S
N351 H371 0.862 . S
C352 C347 1.501 . S
C352 H353 0.961 . S
C352 H354 0.961 . S
C352 H355 0.960 . S
H353 C352 0.961 . S
H354 C352 0.961 . S
H355 C352 0.960 . S
C356 N357 1.342 . S
C356 C360 1.401 . S
C356 C361 1.499 . S
N357 Co340 1.989 . S
N357 C356 1.342 . S
N357 N358 1.388 . S
N358 Co341 1.993 . S
N358 N357 1.388 . S
N358 C359 1.346 . S
C359 N358 1.346 . S
C359 C360 1.396 . S
C359 C369 1.510 . S
C360 C356 1.401 . S
C360 C359 1.396 . S
C361 C356 1.499 . S
C361 H362 0.959 . S
C361 H363 0.960 . S
C361 H364 0.961 . S
H362 C361 0.959 . S
H363 C361 0.960 . S
H364 C361 0.961 . S
O365 Co340 1.967 . S
O365 C373 1.258 . S
O366 Co341 1.941 . S
O366 C373 1.266 . S
H367 C369 0.959 . S
H368 C369 0.961 . S
C369 C359 1.510 . S
C369 H367 0.959 . S
C369 H368 0.961 . S
C369 H370 0.960 . S
H370 C369 0.960 . S
H371 N351 0.862 . S
O372 Co340 1.920 . S
O372 C345 1.289 . S
C373 O365 1.258 . S
C373 O366 1.266 . S
Co374 O377 1.970 . S
Co374 N391 1.989 . S
Co374 O399 1.967 . S
Co374 O406 1.920 . S
Co375 O378 1.966 . S
Co375 N384 2.022 . S
Co375 N392 1.993 . S
Co375 O400 1.941 . S
C376 O377 1.258 . S
C376 O378 1.263 . S
O377 Co374 1.970 . S
O377 C376 1.258 . S
O378 Co375 1.966 . S
O378 C376 1.263 . S
C379 O380 1.235 . S
C379 O406 1.289 . S
O380 C379 1.235 . S
C381 C383 1.400 . S
C381 N384 1.351 . S
C381 C386 1.501 . S
C382 C383 1.387 . S
C382 N385 1.341 . S
C383 C381 1.400 . S
C383 C382 1.387 . S
N384 Co375 2.022 . S
N384 C381 1.351 . S
N384 N385 1.365 . S
N385 C382 1.341 . S
N385 N384 1.365 . S
N385 H405 0.862 . S
C386 C381 1.501 . S
C386 H387 0.961 . S
C386 H388 0.961 . S
C386 H389 0.960 . S
H387 C386 0.961 . S
H388 C386 0.961 . S
H389 C386 0.960 . S
C390 N391 1.342 . S
C390 C394 1.401 . S
C390 C395 1.499 . S
N391 Co374 1.989 . S
N391 C390 1.342 . S
N391 N392 1.388 . S
N392 Co375 1.993 . S
N392 N391 1.388 . S
N392 C393 1.346 . S
C393 N392 1.346 . S
C393 C394 1.396 . S
C393 C403 1.510 . S
C394 C390 1.401 . S
C394 C393 1.396 . S
C395 C390 1.499 . S
C395 H396 0.959 . S
C395 H397 0.960 . S
C395 H398 0.961 . S
H396 C395 0.959 . S
H397 C395 0.960 . S
H398 C395 0.961 . S
O399 Co374 1.967 . S
O399 C407 1.258 . S
O400 Co375 1.941 . S
O400 C407 1.266 . S
H401 C403 0.959 . S
H402 C403 0.961 . S
C403 C393 1.510 . S
C403 H401 0.959 . S
C403 H402 0.961 . S
C403 H404 0.960 . S
H404 C403 0.960 . S
H405 N385 0.862 . S
O406 Co374 1.920 . S
O406 C379 1.289 . S
C407 O399 1.258 . S
C407 O400 1.266 . S
H408 C426 0.951 . S
H409 C428 0.951 . S
H410 C430 0.950 . S
H411 C431 0.950 . S
H412 C433 0.950 . S
H413 C436 0.950 . S
H414 C437 0.950 . S
H415 C439 0.950 . S
H416 C440 0.950 . S
H417 C441 0.951 . S
H418 C443 0.951 . S
H419 C445 0.950 . S
H420 C446 0.950 . S
H421 C448 0.950 . S
H422 C451 0.950 . S
H423 C452 0.950 . S
H424 C454 0.950 . S
H425 C455 0.950 . S
C426 H408 0.951 . S
C426 C427 1.366 . S
C426 C428 1.388 . S
C427 C426 1.366 . S
C427 C431 1.385 . S
C428 H409 0.951 . S
C428 C426 1.388 . S
C428 C429 1.366 . S
C429 C428 1.366 . S
C429 C430 1.414 . S
C429 C432 1.499 . S
C430 H410 0.950 . S
C430 C429 1.414 . S
C430 C431 1.374 . S
C431 H411 0.950 . S
C431 C427 1.385 . S
C431 C430 1.374 . S
C432 C429 1.499 . S
C432 C433 1.373 . S
C432 C434 1.389 . S
C433 H412 0.950 . S
C433 C432 1.373 . S
C433 C449 1.377 . S
C434 C432 1.389 . S
C434 C435 1.524 . S
C434 C448 1.377 . S
C435 C434 1.524 . S
C435 C436 1.397 . S
C435 C440 1.363 . S
C436 H413 0.950 . S
C436 C435 1.397 . S
C436 C437 1.334 . S
C437 H414 0.950 . S
C437 C436 1.334 . S
C437 C438 1.287 . S
C438 C437 1.287 . S
C438 C439 1.524 . S
C438 H457 0.913 . S
C439 H415 0.950 . S
C439 C438 1.524 . S
C439 C440 1.415 . S
C440 H416 0.950 . S
C440 C435 1.363 . S
C440 C439 1.415 . S
C441 H417 0.951 . S
C441 C442 1.366 . S
C441 C443 1.388 . S
C442 C441 1.366 . S
C442 C446 1.385 . S
C443 H418 0.951 . S
C443 C441 1.388 . S
C443 C444 1.366 . S
C444 C443 1.366 . S
C444 C445 1.414 . S
C444 C447 1.499 . S
C445 H419 0.950 . S
C445 C444 1.414 . S
C445 C446 1.374 . S
C446 H420 0.950 . S
C446 C442 1.385 . S
C446 C445 1.374 . S
C447 C444 1.499 . S
C447 C448 1.373 . S
C447 C449 1.389 . S
C448 H421 0.950 . S
C448 C434 1.377 . S
C448 C447 1.373 . S
C449 C433 1.377 . S
C449 C447 1.389 . S
C449 C450 1.524 . S
C450 C449 1.524 . S
C450 C451 1.397 . S
C450 C455 1.363 . S
C451 H422 0.950 . S
C451 C450 1.397 . S
C451 C452 1.334 . S
C452 H423 0.950 . S
C452 C451 1.334 . S
C452 C453 1.287 . S
C453 C452 1.287 . S
C453 C454 1.524 . S
C453 H456 0.999 . S
C454 H424 0.950 . S
C454 C453 1.524 . S
C454 C455 1.415 . S
C455 H425 0.950 . S
C455 C450 1.363 . S
C455 C454 1.415 . S
H456 C453 0.999 . S
H457 C438 0.913 . S
H458 C476 0.951 . S
H459 C478 0.951 . S
H460 C480 0.950 . S
H461 C481 0.950 . S
H462 C483 0.950 . S
H463 C486 0.952 . S
H464 C487 0.950 1_655 S
H465 C489 0.950 . S
H466 C490 0.950 . S
H467 C491 0.951 . S
H468 C493 0.951 . S
H469 C495 0.950 . S
H470 C496 0.950 . S
H471 C498 0.950 . S
H472 C501 0.952 . S
H473 C502 0.950 1_455 S
H474 C504 0.950 . S
H475 C505 0.950 . S
C476 H458 0.951 . S
C476 C477 1.366 . S
C476 C478 1.388 . S
C477 C476 1.366 . S
C477 C481 1.385 . S
C478 H459 0.951 . S
C478 C476 1.388 . S
C478 C479 1.366 . S
C479 C478 1.366 . S
C479 C480 1.414 . S
C479 C482 1.499 . S
C480 H460 0.950 . S
C480 C479 1.414 . S
C480 C481 1.374 . S
C481 H461 0.950 . S
C481 C477 1.385 . S
C481 C480 1.374 . S
C482 C479 1.499 . S
C482 C483 1.373 . S
C482 C484 1.389 . S
C483 H462 0.950 . S
C483 C482 1.373 . S
C483 C499 1.377 1_455 S
C484 C482 1.389 . S
C484 C485 1.524 . S
C484 C498 1.377 1_455 S
C485 C484 1.524 . S
C485 C486 1.394 1_455 S
C485 C490 1.363 . S
C486 H463 0.952 . S
C486 C485 1.394 1_655 S
C486 C487 1.335 1_655 S
C487 H464 0.950 1_455 S
C487 C486 1.335 1_455 S
C487 C488 1.287 . S
C488 C487 1.287 . S
C488 C489 1.524 . S
C488 H507 0.913 . S
C489 H465 0.950 . S
C489 C488 1.524 . S
C489 C490 1.415 . S
C490 H466 0.950 . S
C490 C485 1.363 . S
C490 C489 1.415 . S
C491 H467 0.951 . S
C491 C492 1.366 . S
C491 C493 1.388 . S
C492 C491 1.366 . S
C492 C496 1.385 . S
C493 H468 0.951 . S
C493 C491 1.388 . S
C493 C494 1.366 . S
C494 C493 1.366 . S
C494 C495 1.414 . S
C494 C497 1.499 . S
C495 H469 0.950 . S
C495 C494 1.414 . S
C495 C496 1.374 . S
C496 H470 0.950 . S
C496 C492 1.385 . S
C496 C495 1.374 . S
C497 C494 1.499 . S
C497 C498 1.373 . S
C497 C499 1.389 . S
C498 H471 0.950 . S
C498 C484 1.377 1_655 S
C498 C497 1.373 . S
C499 C483 1.377 1_655 S
C499 C497 1.389 . S
C499 C500 1.524 . S
C500 C499 1.524 . S
C500 C501 1.394 1_655 S
C500 C505 1.363 . S
C501 H472 0.952 . S
C501 C500 1.394 1_455 S
C501 C502 1.335 1_455 S
C502 H473 0.950 1_655 S
C502 C501 1.335 1_655 S
C502 C503 1.287 . S
C503 C502 1.287 . S
C503 C504 1.524 . S
C503 H506 0.999 . S
C504 H474 0.950 . S
C504 C503 1.524 . S
C504 C505 1.415 . S
C505 H475 0.950 . S
C505 C500 1.363 . S
C505 C504 1.415 . S
H506 C503 0.999 . S
H507 C488 0.913 . S
H508 C526 0.951 . S
H509 C528 0.951 . S
H510 C530 0.950 . S
H511 C531 0.950 . S
H512 C533 0.950 . S
H513 C536 0.950 . S
H514 C537 0.950 . S
H515 C539 0.950 . S
H516 C540 0.950 . S
H517 C541 0.951 . S
H518 C543 0.951 . S
H519 C545 0.950 . S
H520 C546 0.950 . S
H521 C548 0.950 . S
H522 C551 0.950 . S
H523 C552 0.950 . S
H524 C554 0.950 . S
H525 C555 0.950 . S
C526 H508 0.951 . S
C526 C527 1.366 . S
C526 C528 1.388 . S
C527 C526 1.366 . S
C527 C531 1.385 . S
C528 H509 0.951 . S
C528 C526 1.388 . S
C528 C529 1.366 . S
C529 C528 1.366 . S
C529 C530 1.414 . S
C529 C532 1.499 . S
C530 H510 0.950 . S
C530 C529 1.414 . S
C530 C531 1.374 . S
C531 H511 0.950 . S
C531 C527 1.385 . S
C531 C530 1.374 . S
C532 C529 1.499 . S
C532 C533 1.373 . S
C532 C534 1.389 1_545 S
C533 H512 0.950 . S
C533 C532 1.373 . S
C533 C549 1.377 . S
C534 C532 1.389 1_565 S
C534 C535 1.524 . S
C534 C548 1.377 . S
C535 C534 1.524 . S
C535 C536 1.397 1_565 S
C535 C540 1.363 . S
C536 H513 0.950 . S
C536 C535 1.397 1_545 S
C536 C537 1.334 . S
C537 H514 0.950 . S
C537 C536 1.334 . S
C537 C538 1.287 1_545 S
C538 C537 1.287 1_565 S
C538 C539 1.524 . S
C538 H557 0.913 . S
C539 H515 0.950 . S
C539 C538 1.524 . S
C539 C540 1.415 . S
C540 H516 0.950 . S
C540 C535 1.363 . S
C540 C539 1.415 . S
C541 H517 0.951 . S
C541 C542 1.366 . S
C541 C543 1.388 . S
C542 C541 1.366 . S
C542 C546 1.385 . S
C543 H518 0.951 . S
C543 C541 1.388 . S
C543 C544 1.366 . S
C544 C543 1.366 . S
C544 C545 1.414 . S
C544 C547 1.499 . S
C545 H519 0.950 . S
C545 C544 1.414 . S
C545 C546 1.374 . S
C546 H520 0.950 . S
C546 C542 1.385 . S
C546 C545 1.374 . S
C547 C544 1.499 . S
C547 C548 1.373 . S
C547 C549 1.389 1_565 S
C548 H521 0.950 . S
C548 C534 1.377 . S
C548 C547 1.373 . S
C549 C533 1.377 . S
C549 C547 1.389 1_545 S
C549 C550 1.524 . S
C550 C549 1.524 . S
C550 C551 1.397 1_545 S
C550 C555 1.363 . S
C551 H522 0.950 . S
C551 C550 1.397 1_565 S
C551 C552 1.334 . S
C552 H523 0.950 . S
C552 C551 1.334 . S
C552 C553 1.287 1_565 S
C553 C552 1.287 1_545 S
C553 C554 1.524 . S
C553 H556 0.999 . S
C554 H524 0.950 . S
C554 C553 1.524 . S
C554 C555 1.415 . S
C555 H525 0.950 . S
C555 C550 1.363 . S
C555 C554 1.415 . S
H556 C553 0.999 . S
H557 C538 0.913 . S
H558 C576 0.951 . S
H559 C578 0.951 . S
H560 C580 0.950 . S
H561 C581 0.950 . S
H562 C583 0.950 . S
H563 C586 0.950 . S
H564 C587 0.950 . S
H565 C589 0.950 . S
H566 C590 0.950 . S
H567 C591 0.951 . S
H568 C593 0.951 . S
H569 C595 0.950 . S
H570 C596 0.950 . S
H571 C598 0.950 . S
H572 C601 0.950 . S
H573 C602 0.950 . S
H574 C604 0.950 . S
H575 C605 0.950 . S
C576 H558 0.951 . S
C576 C577 1.366 . S
C576 C578 1.388 . S
C577 C576 1.366 . S
C577 C581 1.385 . S
C578 H559 0.951 . S
C578 C576 1.388 . S
C578 C579 1.366 . S
C579 C578 1.366 . S
C579 C580 1.414 . S
C579 C582 1.499 . S
C580 H560 0.950 . S
C580 C579 1.414 . S
C580 C581 1.374 . S
C581 H561 0.950 . S
C581 C577 1.385 . S
C581 C580 1.374 . S
C582 C579 1.499 . S
C582 C583 1.373 . S
C582 C584 1.389 . S
C583 H562 0.950 . S
C583 C582 1.373 . S
C583 C599 1.377 . S
C584 C582 1.389 . S
C584 C585 1.524 . S
C584 C598 1.377 . S
C585 C584 1.524 . S
C585 C586 1.397 . S
C585 C590 1.363 . S
C586 H563 0.950 . S
C586 C585 1.397 . S
C586 C587 1.334 . S
C587 H564 0.950 . S
C587 C586 1.334 . S
C587 C588 1.287 . S
C588 C587 1.287 . S
C588 C589 1.524 . S
C588 H607 0.913 . S
C589 H565 0.950 . S
C589 C588 1.524 . S
C589 C590 1.415 . S
C590 H566 0.950 . S
C590 C585 1.363 . S
C590 C589 1.415 . S
C591 H567 0.951 . S
C591 C592 1.366 . S
C591 C593 1.388 . S
C592 C591 1.366 . S
C592 C596 1.385 . S
C593 H568 0.951 . S
C593 C591 1.388 . S
C593 C594 1.366 . S
C594 C593 1.366 . S
C594 C595 1.414 . S
C594 C597 1.499 . S
C595 H569 0.950 . S
C595 C594 1.414 . S
C595 C596 1.374 . S
C596 H570 0.950 . S
C596 C592 1.385 . S
C596 C595 1.374 . S
C597 C594 1.499 . S
C597 C598 1.373 . S
C597 C599 1.389 . S
C598 H571 0.950 . S
C598 C584 1.377 . S
C598 C597 1.373 . S
C599 C583 1.377 . S
C599 C597 1.389 . S
C599 C600 1.524 . S
C600 C599 1.524 . S
C600 C601 1.397 . S
C600 C605 1.363 . S
C601 H572 0.950 . S
C601 C600 1.397 . S
C601 C602 1.334 . S
C602 H573 0.950 . S
C602 C601 1.334 . S
C602 C603 1.287 . S
C603 C602 1.287 . S
C603 C604 1.524 . S
C603 H606 0.999 . S
C604 H574 0.950 . S
C604 C603 1.524 . S
C604 C605 1.415 . S
C605 H575 0.950 . S
C605 C600 1.363 . S
C605 C604 1.415 . S
H606 C603 0.999 . S
H607 C588 0.913 . S
H608 C626 0.951 . S
H609 C628 0.951 . S
H610 C630 0.950 . S
H611 C631 0.950 . S
H612 C633 0.950 . S
H613 C636 0.950 1_655 S
H614 C637 0.950 . S
H615 C639 0.950 . S
H616 C640 0.950 . S
H617 C641 0.951 . S
H618 C643 0.951 . S
H619 C645 0.950 . S
H620 C646 0.950 . S
H621 C648 0.950 . S
H622 C651 0.950 1_455 S
H623 C652 0.950 . S
H624 C654 0.950 . S
H625 C655 0.950 . S
C626 H608 0.951 . S
C626 C627 1.366 . S
C626 C628 1.388 . S
C627 C626 1.366 . S
C627 C631 1.385 . S
C628 H609 0.951 . S
C628 C626 1.388 . S
C628 C629 1.366 . S
C629 C628 1.366 . S
C629 C630 1.414 . S
C629 C632 1.499 . S
C630 H610 0.950 . S
C630 C629 1.414 . S
C630 C631 1.374 . S
C631 H611 0.950 . S
C631 C627 1.385 . S
C631 C630 1.374 . S
C632 C629 1.499 . S
C632 C633 1.373 . S
C632 C634 1.389 1_655 S
C633 H612 0.950 . S
C633 C632 1.373 . S
C633 C649 1.377 . S
C634 C632 1.389 1_455 S
C634 C635 1.524 . S
C634 C648 1.377 . S
C635 C634 1.524 . S
C635 C636 1.397 . S
C635 C640 1.363 . S
C636 H613 0.950 1_455 S
C636 C635 1.397 . S
C636 C637 1.334 . S
C637 H614 0.950 . S
C637 C636 1.334 . S
C637 C638 1.287 . S
C638 C637 1.287 . S
C638 C639 1.524 . S
C638 H657 0.913 . S
C639 H615 0.950 . S
C639 C638 1.524 . S
C639 C640 1.415 . S
C640 H616 0.950 . S
C640 C635 1.363 . S
C640 C639 1.415 . S
C641 H617 0.951 . S
C641 C642 1.366 . S
C641 C643 1.388 . S
C642 C641 1.366 . S
C642 C646 1.385 . S
C643 H618 0.951 . S
C643 C641 1.388 . S
C643 C644 1.366 . S
C644 C643 1.366 . S
C644 C645 1.414 . S
C644 C647 1.499 . S
C645 H619 0.950 . S
C645 C644 1.414 . S
C645 C646 1.374 . S
C646 H620 0.950 . S
C646 C642 1.385 . S
C646 C645 1.374 . S
C647 C644 1.499 . S
C647 C648 1.373 . S
C647 C649 1.389 1_455 S
C648 H621 0.950 . S
C648 C634 1.377 . S
C648 C647 1.373 . S
C649 C633 1.377 . S
C649 C647 1.389 1_655 S
C649 C650 1.524 . S
C650 C649 1.524 . S
C650 C651 1.397 . S
C650 C655 1.363 . S
C651 H622 0.950 1_655 S
C651 C650 1.397 . S
C651 C652 1.334 . S
C652 H623 0.950 . S
C652 C651 1.334 . S
C652 C653 1.287 . S
C653 C652 1.287 . S
C653 C654 1.524 . S
C653 H656 0.999 . S
C654 H624 0.950 . S
C654 C653 1.524 . S
C654 C655 1.415 . S
C655 H625 0.950 . S
C655 C650 1.363 . S
C655 C654 1.415 . S
H656 C653 0.999 . S
H657 C638 0.913 . S
H658 C676 0.951 . S
H659 C678 0.951 . S
H660 C680 0.950 . S
H661 C681 0.950 . S
H662 C683 0.950 . S
H663 C686 0.950 . S
H664 C687 0.950 . S
H665 C689 0.950 . S
H666 C690 0.950 . S
H667 C691 0.951 . S
H668 C693 0.951 . S
H669 C695 0.950 . S
H670 C696 0.950 . S
H671 C698 0.950 . S
H672 C701 0.950 . S
H673 C702 0.950 . S
H674 C704 0.950 . S
H675 C705 0.950 . S
C676 H658 0.951 . S
C676 C677 1.366 . S
C676 C678 1.388 . S
C677 C676 1.366 . S
C677 C681 1.385 . S
C678 H659 0.951 . S
C678 C676 1.388 . S
C678 C679 1.366 . S
C679 C678 1.366 . S
C679 C680 1.414 . S
C679 C682 1.499 . S
C680 H660 0.950 . S
C680 C679 1.414 . S
C680 C681 1.374 . S
C681 H661 0.950 . S
C681 C677 1.385 . S
C681 C680 1.374 . S
C682 C679 1.499 . S
C682 C683 1.373 . S
C682 C684 1.389 . S
C683 H662 0.950 . S
C683 C682 1.373 . S
C683 C699 1.377 1_565 S
C684 C682 1.389 . S
C684 C685 1.524 . S
C684 C698 1.377 1_565 S
C685 C684 1.524 . S
C685 C686 1.397 . S
C685 C690 1.363 . S
C686 H663 0.950 . S
C686 C685 1.397 . S
C686 C687 1.334 . S
C687 H664 0.950 . S
C687 C686 1.334 . S
C687 C688 1.287 . S
C688 C687 1.287 . S
C688 C689 1.524 . S
C688 H707 0.913 . S
C689 H665 0.950 . S
C689 C688 1.524 . S
C689 C690 1.415 . S
C690 H666 0.950 . S
C690 C685 1.363 . S
C690 C689 1.415 . S
C691 H667 0.951 . S
C691 C692 1.366 . S
C691 C693 1.388 . S
C692 C691 1.366 . S
C692 C696 1.385 . S
C693 H668 0.951 . S
C693 C691 1.388 . S
C693 C694 1.366 . S
C694 C693 1.366 . S
C694 C695 1.414 . S
C694 C697 1.499 . S
C695 H669 0.950 . S
C695 C694 1.414 . S
C695 C696 1.374 . S
C696 H670 0.950 . S
C696 C692 1.385 . S
C696 C695 1.374 . S
C697 C694 1.499 . S
C697 C698 1.373 . S
C697 C699 1.389 . S
C698 H671 0.950 . S
C698 C684 1.377 1_545 S
C698 C697 1.373 . S
C699 C683 1.377 1_545 S
C699 C697 1.389 . S
C699 C700 1.524 . S
C700 C699 1.524 . S
C700 C701 1.397 . S
C700 C705 1.363 . S
C701 H672 0.950 . S
C701 C700 1.397 . S
C701 C702 1.334 . S
C702 H673 0.950 . S
C702 C701 1.334 . S
C702 C703 1.287 . S
C703 C702 1.287 . S
C703 C704 1.524 . S
C703 H706 0.999 . S
C704 H674 0.950 . S
C704 C703 1.524 . S
C704 C705 1.415 . S
C705 H675 0.950 . S
C705 C700 1.363 . S
C705 C704 1.415 . S
H706 C703 0.999 . S
H707 C688 0.913 . S
H708 C726 0.951 . S
H709 C728 0.951 . S
H710 C730 0.950 . S
H711 C731 0.950 . S
H712 C733 0.950 . S
H713 C736 0.946 1_655 S
H714 C737 0.950 . S
H715 C739 0.950 . S
H716 C740 0.950 . S
H717 C741 0.951 . S
H718 C743 0.951 . S
H719 C745 0.950 . S
H720 C746 0.950 . S
H721 C748 0.950 . S
H722 C751 0.946 1_455 S
H723 C752 0.950 . S
H724 C754 0.950 . S
H725 C755 0.950 . S
C726 H708 0.951 . S
C726 C727 1.366 . S
C726 C728 1.388 . S
C727 C726 1.366 . S
C727 C731 1.385 . S
C728 H709 0.951 . S
C728 C726 1.388 . S
C728 C729 1.366 . S
C729 C728 1.366 . S
C729 C730 1.414 . S
C729 C732 1.499 . S
C730 H710 0.950 . S
C730 C729 1.414 . S
C730 C731 1.374 . S
C731 H711 0.950 . S
C731 C727 1.385 . S
C731 C730 1.374 . S
C732 C729 1.499 . S
C732 C733 1.373 . S
C732 C734 1.389 1_655 S
C733 H712 0.950 . S
C733 C732 1.373 . S
C733 C749 1.377 . S
C734 C732 1.389 1_455 S
C734 C735 1.524 . S
C734 C748 1.377 . S
C735 C734 1.524 . S
C735 C736 1.397 . S
C735 C740 1.363 . S
C736 H713 0.946 1_455 S
C736 C735 1.397 . S
C736 C737 1.334 . S
C737 H714 0.950 . S
C737 C736 1.334 . S
C737 C738 1.287 . S
C738 C737 1.287 . S
C738 C739 1.524 . S
C738 H757 0.913 . S
C739 H715 0.950 . S
C739 C738 1.524 . S
C739 C740 1.415 . S
C740 H716 0.950 . S
C740 C735 1.363 . S
C740 C739 1.415 . S
C741 H717 0.951 . S
C741 C742 1.366 . S
C741 C743 1.388 . S
C742 C741 1.366 . S
C742 C746 1.385 . S
C743 H718 0.951 . S
C743 C741 1.388 . S
C743 C744 1.366 . S
C744 C743 1.366 . S
C744 C745 1.414 . S
C744 C747 1.499 . S
C745 H719 0.950 . S
C745 C744 1.414 . S
C745 C746 1.374 . S
C746 H720 0.950 . S
C746 C742 1.385 . S
C746 C745 1.374 . S
C747 C744 1.499 . S
C747 C748 1.373 . S
C747 C749 1.389 1_455 S
C748 H721 0.950 . S
C748 C734 1.377 . S
C748 C747 1.373 . S
C749 C733 1.377 . S
C749 C747 1.389 1_655 S
C749 C750 1.524 . S
C750 C749 1.524 . S
C750 C751 1.397 . S
C750 C755 1.363 . S
C751 H722 0.946 1_655 S
C751 C750 1.397 . S
C751 C752 1.334 . S
C752 H723 0.950 . S
C752 C751 1.334 . S
C752 C753 1.287 . S
C753 C752 1.287 . S
C753 C754 1.524 . S
C753 H756 0.999 . S
C754 H724 0.950 . S
C754 C753 1.524 . S
C754 C755 1.415 . S
C755 H725 0.950 . S
C755 C750 1.363 . S
C755 C754 1.415 . S
H756 C753 0.999 . S
H757 C738 0.913 . S
H758 C776 0.951 . S
H759 C778 0.951 . S
H760 C780 0.950 . S
H761 C781 0.950 . S
H762 C783 0.946 . S
H763 C786 0.950 . S
H764 C787 0.950 . S
H765 C789 0.950 . S
H766 C790 0.950 . S
H767 C791 0.951 . S
H768 C793 0.951 . S
H769 C795 0.950 . S
H770 C796 0.950 . S
H771 C798 0.946 . S
H772 C801 0.950 . S
H773 C802 0.950 . S
H774 C804 0.950 . S
H775 C805 0.950 . S
C776 H758 0.951 . S
C776 C777 1.366 . S
C776 C778 1.388 . S
C777 C776 1.366 . S
C777 C781 1.385 . S
C778 H759 0.951 . S
C778 C776 1.388 . S
C778 C779 1.366 . S
C779 C778 1.366 . S
C779 C780 1.414 . S
C779 C782 1.499 . S
C780 H760 0.950 . S
C780 C779 1.414 . S
C780 C781 1.374 . S
C781 H761 0.950 . S
C781 C777 1.385 . S
C781 C780 1.374 . S
C782 C779 1.499 . S
C782 C783 1.373 1_545 S
C782 C784 1.389 . S
C783 H762 0.946 . S
C783 C782 1.373 1_565 S
C783 C799 1.376 . S
C784 C782 1.389 . S
C784 C785 1.524 . S
C784 C798 1.376 . S
C785 C784 1.524 . S
C785 C786 1.397 . S
C785 C790 1.363 . S
C786 H763 0.950 . S
C786 C785 1.397 . S
C786 C787 1.334 . S
C787 H764 0.950 . S
C787 C786 1.334 . S
C787 C788 1.287 . S
C788 C787 1.287 . S
C788 C789 1.524 . S
C788 H807 0.913 . S
C789 H765 0.950 . S
C789 C788 1.524 . S
C789 C790 1.415 . S
C790 H766 0.950 . S
C790 C785 1.363 . S
C790 C789 1.415 . S
C791 H767 0.951 . S
C791 C792 1.366 . S
C791 C793 1.388 . S
C792 C791 1.366 . S
C792 C796 1.385 . S
C793 H768 0.951 . S
C793 C791 1.388 . S
C793 C794 1.366 . S
C794 C793 1.366 . S
C794 C795 1.414 . S
C794 C797 1.499 . S
C795 H769 0.950 . S
C795 C794 1.414 . S
C795 C796 1.374 . S
C796 H770 0.950 . S
C796 C792 1.385 . S
C796 C795 1.374 . S
C797 C794 1.499 . S
C797 C798 1.373 1_565 S
C797 C799 1.389 . S
C798 H771 0.946 . S
C798 C784 1.376 . S
C798 C797 1.373 1_545 S
C799 C783 1.376 . S
C799 C797 1.389 . S
C799 C800 1.524 . S
C800 C799 1.524 . S
C800 C801 1.397 . S
C800 C805 1.363 . S
C801 H772 0.950 . S
C801 C800 1.397 . S
C801 C802 1.334 . S
C802 H773 0.950 . S
C802 C801 1.334 . S
C802 C803 1.287 . S
C803 C802 1.287 . S
C803 C804 1.524 . S
C803 H806 0.999 . S
C804 H774 0.950 . S
C804 C803 1.524 . S
C804 C805 1.415 . S
C805 H775 0.950 . S
C805 C800 1.363 . S
C805 C804 1.415 . S
H806 C803 0.999 . S
H807 C788 0.913 . S
H808 C826 0.951 . S
H809 C828 0.951 . S
H810 C830 0.950 . S
H811 C831 0.950 . S
H812 C833 0.950 . S
H813 C836 0.950 . S
H814 C837 0.950 . S
H815 C839 0.950 . S
H816 C840 0.950 . S
H817 C841 0.951 . S
H818 C843 0.951 . S
H819 C845 0.950 . S
H820 C846 0.950 . S
H821 C848 0.950 . S
H822 C851 0.950 . S
H823 C852 0.950 . S
H824 C854 0.950 . S
H825 C855 0.950 . S
C826 H808 0.951 . S
C826 C827 1.366 . S
C826 C828 1.388 . S
C827 C826 1.366 . S
C827 C831 1.385 . S
C828 H809 0.951 . S
C828 C826 1.388 . S
C828 C829 1.366 . S
C829 C828 1.366 . S
C829 C830 1.414 . S
C829 C832 1.499 . S
C830 H810 0.950 . S
C830 C829 1.414 . S
C830 C831 1.374 . S
C831 H811 0.950 . S
C831 C827 1.385 . S
C831 C830 1.374 . S
C832 C829 1.499 . S
C832 C833 1.373 . S
C832 C834 1.389 . S
C833 H812 0.950 . S
C833 C832 1.373 . S
C833 C849 1.377 . S
C834 C832 1.389 . S
C834 C835 1.524 . S
C834 C848 1.377 . S
C835 C834 1.524 . S
C835 C836 1.397 . S
C835 C840 1.363 . S
C836 H813 0.950 . S
C836 C835 1.397 . S
C836 C837 1.334 . S
C837 H814 0.950 . S
C837 C836 1.334 . S
C837 C838 1.287 . S
C838 C837 1.287 . S
C838 C839 1.524 . S
C838 H857 0.913 . S
C839 H815 0.950 . S
C839 C838 1.524 . S
C839 C840 1.415 . S
C840 H816 0.950 . S
C840 C835 1.363 . S
C840 C839 1.415 . S
C841 H817 0.951 . S
C841 C842 1.366 . S
C841 C843 1.388 . S
C842 C841 1.366 . S
C842 C846 1.385 . S
C843 H818 0.951 . S
C843 C841 1.388 . S
C843 C844 1.366 . S
C844 C843 1.366 . S
C844 C845 1.414 . S
C844 C847 1.499 . S
C845 H819 0.950 . S
C845 C844 1.414 . S
C845 C846 1.374 . S
C846 H820 0.950 . S
C846 C842 1.385 . S
C846 C845 1.374 . S
C847 C844 1.499 . S
C847 C848 1.373 . S
C847 C849 1.389 . S
C848 H821 0.950 . S
C848 C834 1.377 . S
C848 C847 1.373 . S
C849 C833 1.377 . S
C849 C847 1.389 . S
C849 C850 1.524 . S
C850 C849 1.524 . S
C850 C851 1.397 . S
C850 C855 1.363 . S
C851 H822 0.950 . S
C851 C850 1.397 . S
C851 C852 1.334 . S
C852 H823 0.950 . S
C852 C851 1.334 . S
C852 C853 1.287 . S
C853 C852 1.287 . S
C853 C854 1.524 . S
C853 H856 0.999 . S
C854 H824 0.950 . S
C854 C853 1.524 . S
C854 C855 1.415 . S
C855 H825 0.950 . S
C855 C850 1.363 . S
C855 C854 1.415 . S
H856 C853 0.999 . S
H857 C838 0.913 . S
H858 C876 0.951 . S
H859 C878 0.951 . S
H860 C880 0.950 . S
H861 C881 0.950 . S
H862 C883 0.950 . S
H863 C886 0.950 . S
H864 C887 0.950 . S
H865 C889 0.950 . S
H866 C890 0.950 . S
H867 C891 0.951 . S
H868 C893 0.951 . S
H869 C895 0.950 . S
H870 C896 0.950 . S
H871 C898 0.950 . S
H872 C901 0.950 . S
H873 C902 0.950 . S
H874 C904 0.950 . S
H875 C905 0.950 . S
C876 H858 0.951 . S
C876 C877 1.366 . S
C876 C878 1.388 . S
C877 C876 1.366 . S
C877 C881 1.385 . S
C878 H859 0.951 . S
C878 C876 1.388 . S
C878 C879 1.366 . S
C879 C878 1.366 . S
C879 C880 1.414 . S
C879 C882 1.499 . S
C880 H860 0.950 . S
C880 C879 1.414 . S
C880 C881 1.374 . S
C881 H861 0.950 . S
C881 C877 1.385 . S
C881 C880 1.374 . S
C882 C879 1.499 . S
C882 C883 1.373 1_565 S
C882 C884 1.389 . S
C883 H862 0.950 . S
C883 C882 1.373 1_545 S
C883 C899 1.377 . S
C884 C882 1.389 . S
C884 C885 1.524 . S
C884 C898 1.377 . S
C885 C884 1.524 . S
C885 C886 1.397 . S
C885 C890 1.363 . S
C886 H863 0.950 . S
C886 C885 1.397 . S
C886 C887 1.334 . S
C887 H864 0.950 . S
C887 C886 1.334 . S
C887 C888 1.287 . S
C888 C887 1.287 . S
C888 C889 1.524 . S
C888 H907 0.913 . S
C889 H865 0.950 . S
C889 C888 1.524 . S
C889 C890 1.415 . S
C890 H866 0.950 . S
C890 C885 1.363 . S
C890 C889 1.415 . S
C891 H867 0.951 . S
C891 C892 1.366 . S
C891 C893 1.388 . S
C892 C891 1.366 . S
C892 C896 1.385 . S
C893 H868 0.951 . S
C893 C891 1.388 . S
C893 C894 1.366 . S
C894 C893 1.366 . S
C894 C895 1.414 . S
C894 C897 1.499 . S
C895 H869 0.950 . S
C895 C894 1.414 . S
C895 C896 1.374 . S
C896 H870 0.950 . S
C896 C892 1.385 . S
C896 C895 1.374 . S
C897 C894 1.499 . S
C897 C898 1.373 1_545 S
C897 C899 1.389 . S
C898 H871 0.950 . S
C898 C884 1.377 . S
C898 C897 1.373 1_565 S
C899 C883 1.377 . S
C899 C897 1.389 . S
C899 C900 1.524 . S
C900 C899 1.524 . S
C900 C901 1.397 . S
C900 C905 1.363 . S
C901 H872 0.950 . S
C901 C900 1.397 . S
C901 C902 1.334 . S
C902 H873 0.950 . S
C902 C901 1.334 . S
C902 C903 1.287 . S
C903 C902 1.287 . S
C903 C904 1.524 . S
C903 H906 0.999 . S
C904 H874 0.950 . S
C904 C903 1.524 . S
C904 C905 1.415 . S
C905 H875 0.950 . S
C905 C900 1.363 . S
C905 C904 1.415 . S
H906 C903 0.999 . S
H907 C888 0.913 . S
H908 C926 0.951 . S
H909 C928 0.951 . S
H910 C930 0.950 . S
H911 C931 0.950 . S
H912 C933 0.950 . S
H913 C936 0.950 . S
H914 C937 0.950 . S
H915 C939 0.950 . S
H916 C940 0.950 . S
H917 C941 0.951 . S
H918 C943 0.951 . S
H919 C945 0.950 . S
H920 C946 0.950 . S
H921 C948 0.950 . S
H922 C951 0.950 . S
H923 C952 0.950 . S
H924 C954 0.950 . S
H925 C955 0.950 . S
C926 H908 0.951 . S
C926 C927 1.366 . S
C926 C928 1.388 . S
C927 C926 1.366 . S
C927 C931 1.385 . S
C928 H909 0.951 . S
C928 C926 1.388 . S
C928 C929 1.366 . S
C929 C928 1.366 . S
C929 C930 1.414 . S
C929 C932 1.499 . S
C930 H910 0.950 . S
C930 C929 1.414 . S
C930 C931 1.374 . S
C931 H911 0.950 . S
C931 C927 1.385 . S
C931 C930 1.374 . S
C932 C929 1.499 . S
C932 C933 1.373 . S
C932 C934 1.389 . S
C933 H912 0.950 . S
C933 C932 1.373 . S
C933 C949 1.377 . S
C934 C932 1.389 . S
C934 C935 1.524 . S
C934 C948 1.377 . S
C935 C934 1.524 . S
C935 C936 1.397 . S
C935 C940 1.363 . S
C936 H913 0.950 . S
C936 C935 1.397 . S
C936 C937 1.334 . S
C937 H914 0.950 . S
C937 C936 1.334 . S
C937 C938 1.287 . S
C938 C937 1.287 . S
C938 C939 1.524 . S
C938 H957 0.913 . S
C939 H915 0.950 . S
C939 C938 1.524 . S
C939 C940 1.415 . S
C940 H916 0.950 . S
C940 C935 1.363 . S
C940 C939 1.415 . S
C941 H917 0.951 . S
C941 C942 1.366 . S
C941 C943 1.388 . S
C942 C941 1.366 . S
C942 C946 1.385 . S
C943 H918 0.951 . S
C943 C941 1.388 . S
C943 C944 1.366 . S
C944 C943 1.366 . S
C944 C945 1.414 . S
C944 C947 1.499 . S
C945 H919 0.950 . S
C945 C944 1.414 . S
C945 C946 1.374 . S
C946 H920 0.950 . S
C946 C942 1.385 . S
C946 C945 1.374 . S
C947 C944 1.499 . S
C947 C948 1.373 . S
C947 C949 1.389 . S
C948 H921 0.950 . S
C948 C934 1.377 . S
C948 C947 1.373 . S
C949 C933 1.377 . S
C949 C947 1.389 . S
C949 C950 1.524 . S
C950 C949 1.524 . S
C950 C951 1.397 . S
C950 C955 1.363 . S
C951 H922 0.950 . S
C951 C950 1.397 . S
C951 C952 1.334 . S
C952 H923 0.950 . S
C952 C951 1.334 . S
C952 C953 1.287 . S
C953 C952 1.287 . S
C953 C954 1.524 . S
C953 H956 0.999 . S
C954 H924 0.950 . S
C954 C953 1.524 . S
C954 C955 1.415 . S
C955 H925 0.950 . S
C955 C950 1.363 . S
C955 C954 1.415 . S
H956 C953 0.999 . S
H957 C938 0.913 . S
H958 C976 0.951 . S
H959 C978 0.951 . S
H960 C980 0.950 . S
H961 C981 0.950 . S
H962 C983 0.950 . S
H963 C986 0.950 . S
H964 C987 0.950 . S
H965 C989 0.950 . S
H966 C990 0.950 . S
H967 C991 0.951 . S
H968 C993 0.951 . S
H969 C995 0.950 . S
H970 C996 0.950 . S
H971 C998 0.950 . S
H972 C1001 0.950 . S
H973 C1002 0.950 . S
H974 C1004 0.950 . S
H975 C1005 0.950 . S
C976 H958 0.951 . S
C976 C977 1.366 . S
C976 C978 1.388 . S
C977 C976 1.366 . S
C977 C981 1.385 . S
C978 H959 0.951 . S
C978 C976 1.388 . S
C978 C979 1.366 . S
C979 C978 1.366 . S
C979 C980 1.414 . S
C979 C982 1.499 . S
C980 H960 0.950 . S
C980 C979 1.414 . S
C980 C981 1.374 . S
C981 H961 0.950 . S
C981 C977 1.385 . S
C981 C980 1.374 . S
C982 C979 1.499 . S
C982 C983 1.373 1_455 S
C982 C984 1.389 . S
C983 H962 0.950 . S
C983 C982 1.373 1_655 S
C983 C999 1.377 . S
C984 C982 1.389 . S
C984 C985 1.524 . S
C984 C998 1.377 . S
C985 C984 1.524 . S
C985 C986 1.397 . S
C985 C990 1.363 . S
C986 H963 0.950 . S
C986 C985 1.397 . S
C986 C987 1.334 . S
C987 H964 0.950 . S
C987 C986 1.334 . S
C987 C988 1.287 . S
C988 C987 1.287 . S
C988 C989 1.524 . S
C988 H1007 0.913 . S
C989 H965 0.950 . S
C989 C988 1.524 . S
C989 C990 1.415 . S
C990 H966 0.950 . S
C990 C985 1.363 . S
C990 C989 1.415 . S
C991 H967 0.951 . S
C991 C992 1.366 . S
C991 C993 1.388 . S
C992 C991 1.366 . S
C992 C996 1.385 . S
C993 H968 0.951 . S
C993 C991 1.388 . S
C993 C994 1.366 . S
C994 C993 1.366 . S
C994 C995 1.414 . S
C994 C997 1.499 . S
C995 H969 0.950 . S
C995 C994 1.414 . S
C995 C996 1.374 . S
C996 H970 0.950 . S
C996 C992 1.385 . S
C996 C995 1.374 . S
C997 C994 1.499 . S
C997 C998 1.373 1_655 S
C997 C999 1.389 . S
C998 H971 0.950 . S
C998 C984 1.377 . S
C998 C997 1.373 1_455 S
C999 C983 1.377 . S
C999 C997 1.389 . S
C999 C1000 1.524 . S
C1000 C999 1.524 . S
C1000 C1001 1.397 . S
C1000 C1005 1.363 . S
C1001 H972 0.950 . S
C1001 C1000 1.397 . S
C1001 C1002 1.334 . S
C1002 H973 0.950 . S
C1002 C1001 1.334 . S
C1002 C1003 1.287 . S
C1003 C1002 1.287 . S
C1003 C1004 1.524 . S
C1003 H1006 0.999 . S
C1004 H974 0.950 . S
C1004 C1003 1.524 . S
C1004 C1005 1.415 . S
C1005 H975 0.950 . S
C1005 C1000 1.363 . S
C1005 C1004 1.415 . S
H1006 C1003 0.999 . S
H1007 C988 0.913 . S
H1008 C1026 0.951 . S
H1009 C1028 0.951 . S
H1010 C1030 0.950 . S
H1011 C1031 0.950 . S
H1012 C1033 0.950 . S
H1013 C1036 0.950 . S
H1014 C1037 0.950 . S
H1015 C1039 0.950 . S
H1016 C1040 0.950 . S
H1017 C1041 0.951 . S
H1018 C1043 0.951 . S
H1019 C1045 0.950 . S
H1020 C1046 0.950 . S
H1021 C1048 0.950 . S
H1022 C1051 0.950 . S
H1023 C1052 0.950 . S
H1024 C1054 0.950 . S
H1025 C1055 0.950 . S
C1026 H1008 0.951 . S
C1026 C1027 1.366 . S
C1026 C1028 1.388 . S
C1027 C1026 1.366 . S
C1027 C1031 1.385 . S
C1028 H1009 0.951 . S
C1028 C1026 1.388 . S
C1028 C1029 1.366 . S
C1029 C1028 1.366 . S
C1029 C1030 1.414 . S
C1029 C1032 1.499 . S
C1030 H1010 0.950 . S
C1030 C1029 1.414 . S
C1030 C1031 1.374 . S
C1031 H1011 0.950 . S
C1031 C1027 1.385 . S
C1031 C1030 1.374 . S
C1032 C1029 1.499 . S
C1032 C1033 1.373 . S
C1032 C1034 1.389 . S
C1033 H1012 0.950 . S
C1033 C1032 1.373 . S
C1033 C1049 1.377 . S
C1034 C1032 1.389 . S
C1034 C1035 1.524 . S
C1034 C1048 1.377 . S
C1035 C1034 1.524 . S
C1035 C1036 1.397 . S
C1035 C1040 1.363 . S
C1036 H1013 0.950 . S
C1036 C1035 1.397 . S
C1036 C1037 1.334 . S
C1037 H1014 0.950 . S
C1037 C1036 1.334 . S
C1037 C1038 1.287 . S
C1038 C1037 1.287 . S
C1038 C1039 1.524 . S
C1038 H1057 0.913 . S
C1039 H1015 0.950 . S
C1039 C1038 1.524 . S
C1039 C1040 1.415 . S
C1040 H1016 0.950 . S
C1040 C1035 1.363 . S
C1040 C1039 1.415 . S
C1041 H1017 0.951 . S
C1041 C1042 1.366 . S
C1041 C1043 1.388 . S
C1042 C1041 1.366 . S
C1042 C1046 1.385 . S
C1043 H1018 0.951 . S
C1043 C1041 1.388 . S
C1043 C1044 1.366 . S
C1044 C1043 1.366 . S
C1044 C1045 1.414 . S
C1044 C1047 1.499 . S
C1045 H1019 0.950 . S
C1045 C1044 1.414 . S
C1045 C1046 1.374 . S
C1046 H1020 0.950 . S
C1046 C1042 1.385 . S
C1046 C1045 1.374 . S
C1047 C1044 1.499 . S
C1047 C1048 1.373 . S
C1047 C1049 1.389 . S
C1048 H1021 0.950 . S
C1048 C1034 1.377 . S
C1048 C1047 1.373 . S
C1049 C1033 1.377 . S
C1049 C1047 1.389 . S
C1049 C1050 1.524 . S
C1050 C1049 1.524 . S
C1050 C1051 1.397 . S
C1050 C1055 1.363 . S
C1051 H1022 0.950 . S
C1051 C1050 1.397 . S
C1051 C1052 1.334 . S
C1052 H1023 0.950 . S
C1052 C1051 1.334 . S
C1052 C1053 1.287 . S
C1053 C1052 1.287 . S
C1053 C1054 1.524 . S
C1053 H1056 0.999 . S
C1054 H1024 0.950 . S
C1054 C1053 1.524 . S
C1054 C1055 1.415 . S
C1055 H1025 0.950 . S
C1055 C1050 1.363 . S
C1055 C1054 1.415 . S
H1056 C1053 0.999 . S
H1057 C1038 0.913 . S
H1058 C1076 0.951 . S
H1059 C1078 0.951 . S
H1060 C1080 0.950 . S
H1061 C1081 0.950 . S
H1062 C1083 0.950 . S
H1063 C1086 0.950 . S
H1064 C1087 0.950 . S
H1065 C1089 0.950 . S
H1066 C1090 0.950 . S
H1067 C1091 0.951 . S
H1068 C1093 0.951 . S
H1069 C1095 0.950 . S
H1070 C1096 0.950 . S
H1071 C1098 0.950 . S
H1072 C1101 0.950 . S
H1073 C1102 0.950 . S
H1074 C1104 0.950 . S
H1075 C1105 0.950 . S
C1076 H1058 0.951 . S
C1076 C1077 1.366 . S
C1076 C1078 1.388 . S
C1077 C1076 1.366 . S
C1077 C1081 1.385 . S
C1078 H1059 0.951 . S
C1078 C1076 1.388 . S
C1078 C1079 1.366 . S
C1079 C1078 1.366 . S
C1079 C1080 1.414 . S
C1079 C1082 1.499 . S
C1080 H1060 0.950 . S
C1080 C1079 1.414 . S
C1080 C1081 1.374 . S
C1081 H1061 0.950 . S
C1081 C1077 1.385 . S
C1081 C1080 1.374 . S
C1082 C1079 1.499 . S
C1082 C1083 1.373 . S
C1082 C1084 1.389 . S
C1083 H1062 0.950 . S
C1083 C1082 1.373 . S
C1083 C1099 1.377 . S
C1084 C1082 1.389 . S
C1084 C1085 1.524 . S
C1084 C1098 1.377 . S
C1085 C1084 1.524 . S
C1085 C1086 1.397 . S
C1085 C1090 1.363 . S
C1086 H1063 0.950 . S
C1086 C1085 1.397 . S
C1086 C1087 1.334 . S
C1087 H1064 0.950 . S
C1087 C1086 1.334 . S
C1087 C1088 1.287 . S
C1088 C1087 1.287 . S
C1088 C1089 1.524 . S
C1088 H1107 0.913 . S
C1089 H1065 0.950 . S
C1089 C1088 1.524 . S
C1089 C1090 1.415 . S
C1090 H1066 0.950 . S
C1090 C1085 1.363 . S
C1090 C1089 1.415 . S
C1091 H1067 0.951 . S
C1091 C1092 1.366 . S
C1091 C1093 1.388 . S
C1092 C1091 1.366 . S
C1092 C1096 1.385 . S
C1093 H1068 0.951 . S
C1093 C1091 1.388 . S
C1093 C1094 1.366 . S
C1094 C1093 1.366 . S
C1094 C1095 1.414 . S
C1094 C1097 1.499 . S
C1095 H1069 0.950 . S
C1095 C1094 1.414 . S
C1095 C1096 1.374 . S
C1096 H1070 0.950 . S
C1096 C1092 1.385 . S
C1096 C1095 1.374 . S
C1097 C1094 1.499 . S
C1097 C1098 1.373 . S
C1097 C1099 1.389 . S
C1098 H1071 0.950 . S
C1098 C1084 1.377 . S
C1098 C1097 1.373 . S
C1099 C1083 1.377 . S
C1099 C1097 1.389 . S
C1099 C1100 1.524 . S
C1100 C1099 1.524 . S
C1100 C1101 1.397 . S
C1100 C1105 1.363 . S
C1101 H1072 0.950 . S
C1101 C1100 1.397 . S
C1101 C1102 1.334 . S
C1102 H1073 0.950 . S
C1102 C1101 1.334 . S
C1102 C1103 1.287 . S
C1103 C1102 1.287 . S
C1103 C1104 1.524 . S
C1103 H1106 0.999 . S
C1104 H1074 0.950 . S
C1104 C1103 1.524 . S
C1104 C1105 1.415 . S
C1105 H1075 0.950 . S
C1105 C1100 1.363 . S
C1105 C1104 1.415 . S
H1106 C1103 0.999 . S
H1107 C1088 0.913 . S
H1108 C1126 0.951 . S
H1109 C1128 0.951 . S
H1110 C1130 0.950 . S
H1111 C1131 0.950 . S
H1112 C1133 0.950 . S
H1113 C1136 0.950 . S
H1114 C1137 0.950 . S
H1115 C1139 0.950 . S
H1116 C1140 0.950 . S
H1117 C1141 0.951 . S
H1118 C1143 0.951 . S
H1119 C1145 0.950 . S
H1120 C1146 0.950 . S
H1121 C1148 0.950 . S
H1122 C1151 0.950 . S
H1123 C1152 0.950 . S
H1124 C1154 0.950 . S
H1125 C1155 0.950 . S
C1126 H1108 0.951 . S
C1126 C1127 1.366 . S
C1126 C1128 1.388 . S
C1127 C1126 1.366 . S
C1127 C1131 1.385 . S
C1128 H1109 0.951 . S
C1128 C1126 1.388 . S
C1128 C1129 1.366 . S
C1129 C1128 1.366 . S
C1129 C1130 1.414 . S
C1129 C1132 1.499 . S
C1130 H1110 0.950 . S
C1130 C1129 1.414 . S
C1130 C1131 1.374 . S
C1131 H1111 0.950 . S
C1131 C1127 1.385 . S
C1131 C1130 1.374 . S
C1132 C1129 1.499 . S
C1132 C1133 1.373 . S
C1132 C1134 1.389 . S
C1133 H1112 0.950 . S
C1133 C1132 1.373 . S
C1133 C1149 1.377 . S
C1134 C1132 1.389 . S
C1134 C1135 1.524 . S
C1134 C1148 1.377 . S
C1135 C1134 1.524 . S
C1135 C1136 1.397 . S
C1135 C1140 1.363 . S
C1136 H1113 0.950 . S
C1136 C1135 1.397 . S
C1136 C1137 1.334 . S
C1137 H1114 0.950 . S
C1137 C1136 1.334 . S
C1137 C1138 1.287 . S
C1138 C1137 1.287 . S
C1138 C1139 1.524 . S
C1138 H1157 0.913 . S
C1139 H1115 0.950 . S
C1139 C1138 1.524 . S
C1139 C1140 1.415 . S
C1140 H1116 0.950 . S
C1140 C1135 1.363 . S
C1140 C1139 1.415 . S
C1141 H1117 0.951 . S
C1141 C1142 1.366 . S
C1141 C1143 1.388 . S
C1142 C1141 1.366 . S
C1142 C1146 1.385 . S
C1143 H1118 0.951 . S
C1143 C1141 1.388 . S
C1143 C1144 1.366 . S
C1144 C1143 1.366 . S
C1144 C1145 1.414 . S
C1144 C1147 1.499 . S
C1145 H1119 0.950 . S
C1145 C1144 1.414 . S
C1145 C1146 1.374 . S
C1146 H1120 0.950 . S
C1146 C1142 1.385 . S
C1146 C1145 1.374 . S
C1147 C1144 1.499 . S
C1147 C1148 1.373 . S
C1147 C1149 1.389 . S
C1148 H1121 0.950 . S
C1148 C1134 1.377 . S
C1148 C1147 1.373 . S
C1149 C1133 1.377 . S
C1149 C1147 1.389 . S
C1149 C1150 1.524 . S
C1150 C1149 1.524 . S
C1150 C1151 1.397 . S
C1150 C1155 1.363 . S
C1151 H1122 0.950 . S
C1151 C1150 1.397 . S
C1151 C1152 1.334 . S
C1152 H1123 0.950 . S
C1152 C1151 1.334 . S
C1152 C1153 1.287 . S
C1153 C1152 1.287 . S
C1153 C1154 1.524 . S
C1153 H1156 0.999 . S
C1154 H1124 0.950 . S
C1154 C1153 1.524 . S
C1154 C1155 1.415 . S
C1155 H1125 0.950 . S
C1155 C1150 1.363 . S
C1155 C1154 1.415 . S
H1156 C1153 0.999 . S
H1157 C1138 0.913 . S
H1158 C1176 0.951 . S
H1159 C1178 0.951 . S
H1160 C1180 0.950 . S
H1161 C1181 0.950 . S
H1162 C1183 0.950 . S
H1163 C1186 0.950 . S
H1164 C1187 0.950 . S
H1165 C1189 0.950 . S
H1166 C1190 0.950 . S
H1167 C1191 0.951 . S
H1168 C1193 0.951 . S
H1169 C1195 0.950 . S
H1170 C1196 0.950 . S
H1171 C1198 0.950 . S
H1172 C1201 0.950 . S
H1173 C1202 0.950 . S
H1174 C1204 0.950 . S
H1175 C1205 0.950 . S
C1176 H1158 0.951 . S
C1176 C1177 1.366 . S
C1176 C1178 1.388 . S
C1177 C1176 1.366 . S
C1177 C1181 1.385 . S
C1178 H1159 0.951 . S
C1178 C1176 1.388 . S
C1178 C1179 1.366 . S
C1179 C1178 1.366 . S
C1179 C1180 1.414 . S
C1179 C1182 1.499 . S
C1180 H1160 0.950 . S
C1180 C1179 1.414 . S
C1180 C1181 1.374 . S
C1181 H1161 0.950 . S
C1181 C1177 1.385 . S
C1181 C1180 1.374 . S
C1182 C1179 1.499 . S
C1182 C1183 1.373 . S
C1182 C1184 1.389 . S
C1183 H1162 0.950 . S
C1183 C1182 1.373 . S
C1183 C1199 1.377 . S
C1184 C1182 1.389 . S
C1184 C1185 1.524 . S
C1184 C1198 1.377 . S
C1185 C1184 1.524 . S
C1185 C1186 1.397 . S
C1185 C1190 1.363 . S
C1186 H1163 0.950 . S
C1186 C1185 1.397 . S
C1186 C1187 1.334 . S
C1187 H1164 0.950 . S
C1187 C1186 1.334 . S
C1187 C1188 1.287 . S
C1188 C1187 1.287 . S
C1188 C1189 1.524 . S
C1188 H1207 0.913 . S
C1189 H1165 0.950 . S
C1189 C1188 1.524 . S
C1189 C1190 1.415 . S
C1190 H1166 0.950 . S
C1190 C1185 1.363 . S
C1190 C1189 1.415 . S
C1191 H1167 0.951 . S
C1191 C1192 1.366 . S
C1191 C1193 1.388 . S
C1192 C1191 1.366 . S
C1192 C1196 1.385 . S
C1193 H1168 0.951 . S
C1193 C1191 1.388 . S
C1193 C1194 1.366 . S
C1194 C1193 1.366 . S
C1194 C1195 1.414 . S
C1194 C1197 1.499 . S
C1195 H1169 0.950 . S
C1195 C1194 1.414 . S
C1195 C1196 1.374 . S
C1196 H1170 0.950 . S
C1196 C1192 1.385 . S
C1196 C1195 1.374 . S
C1197 C1194 1.499 . S
C1197 C1198 1.373 . S
C1197 C1199 1.389 . S
C1198 H1171 0.950 . S
C1198 C1184 1.377 . S
C1198 C1197 1.373 . S
C1199 C1183 1.377 . S
C1199 C1197 1.389 . S
C1199 C1200 1.524 . S
C1200 C1199 1.524 . S
C1200 C1201 1.397 . S
C1200 C1205 1.363 . S
C1201 H1172 0.950 . S
C1201 C1200 1.397 . S
C1201 C1202 1.334 . S
C1202 H1173 0.950 . S
C1202 C1201 1.334 . S
C1202 C1203 1.287 . S
C1203 C1202 1.287 . S
C1203 C1204 1.524 . S
C1203 H1206 0.999 . S
C1204 H1174 0.950 . S
C1204 C1203 1.524 . S
C1204 C1205 1.415 . S
C1205 H1175 0.950 . S
C1205 C1200 1.363 . S
C1205 C1204 1.415 . S
H1206 C1203 0.999 . S
H1207 C1188 0.913 . S
H1208 C1226 0.951 . S
H1209 C1228 0.951 . S
H1210 C1230 0.950 . S
H1211 C1231 0.950 . S
H1212 C1233 0.950 . S
H1213 C1236 0.950 . S
H1214 C1237 0.950 . S
H1215 C1239 0.950 . S
H1216 C1240 0.950 . S
H1217 C1241 0.951 . S
H1218 C1243 0.951 . S
H1219 C1245 0.950 . S
H1220 C1246 0.950 . S
H1221 C1248 0.950 . S
H1222 C1251 0.950 . S
H1223 C1252 0.950 . S
H1224 C1254 0.950 . S
H1225 C1255 0.950 . S
C1226 H1208 0.951 . S
C1226 C1227 1.366 . S
C1226 C1228 1.388 . S
C1227 C1226 1.366 . S
C1227 C1231 1.385 . S
C1228 H1209 0.951 . S
C1228 C1226 1.388 . S
C1228 C1229 1.366 . S
C1229 C1228 1.366 . S
C1229 C1230 1.414 . S
C1229 C1232 1.499 . S
C1230 H1210 0.950 . S
C1230 C1229 1.414 . S
C1230 C1231 1.374 . S
C1231 H1211 0.950 . S
C1231 C1227 1.385 . S
C1231 C1230 1.374 . S
C1232 C1229 1.499 . S
C1232 C1233 1.373 . S
C1232 C1234 1.389 . S
C1233 H1212 0.950 . S
C1233 C1232 1.373 . S
C1233 C1249 1.377 . S
C1234 C1232 1.389 . S
C1234 C1235 1.524 . S
C1234 C1248 1.377 . S
C1235 C1234 1.524 . S
C1235 C1236 1.397 . S
C1235 C1240 1.363 . S
C1236 H1213 0.950 . S
C1236 C1235 1.397 . S
C1236 C1237 1.334 . S
C1237 H1214 0.950 . S
C1237 C1236 1.334 . S
C1237 C1238 1.287 . S
C1238 C1237 1.287 . S
C1238 C1239 1.524 . S
C1238 H1257 0.913 . S
C1239 H1215 0.950 . S
C1239 C1238 1.524 . S
C1239 C1240 1.415 . S
C1240 H1216 0.950 . S
C1240 C1235 1.363 . S
C1240 C1239 1.415 . S
C1241 H1217 0.951 . S
C1241 C1242 1.366 . S
C1241 C1243 1.388 . S
C1242 C1241 1.366 . S
C1242 C1246 1.385 . S
C1243 H1218 0.951 . S
C1243 C1241 1.388 . S
C1243 C1244 1.366 . S
C1244 C1243 1.366 . S
C1244 C1245 1.414 . S
C1244 C1247 1.499 . S
C1245 H1219 0.950 . S
C1245 C1244 1.414 . S
C1245 C1246 1.374 . S
C1246 H1220 0.950 . S
C1246 C1242 1.385 . S
C1246 C1245 1.374 . S
C1247 C1244 1.499 . S
C1247 C1248 1.373 . S
C1247 C1249 1.389 . S
C1248 H1221 0.950 . S
C1248 C1234 1.377 . S
C1248 C1247 1.373 . S
C1249 C1233 1.377 . S
C1249 C1247 1.389 . S
C1249 C1250 1.524 . S
C1250 C1249 1.524 . S
C1250 C1251 1.397 . S
C1250 C1255 1.363 . S
C1251 H1222 0.950 . S
C1251 C1250 1.397 . S
C1251 C1252 1.334 . S
C1252 H1223 0.950 . S
C1252 C1251 1.334 . S
C1252 C1253 1.287 . S
C1253 C1252 1.287 . S
C1253 C1254 1.524 . S
C1253 H1256 0.999 . S
C1254 H1224 0.950 . S
C1254 C1253 1.524 . S
C1254 C1255 1.415 . S
C1255 H1225 0.950 . S
C1255 C1250 1.363 . S
C1255 C1254 1.415 . S
H1256 C1253 0.999 . S
H1257 C1238 0.913 . S
H1258 C1276 0.951 . S
H1259 C1278 0.951 . S
H1260 C1280 0.950 . S
H1261 C1281 0.950 . S
H1262 C1283 0.950 . S
H1263 C1286 0.950 . S
H1264 C1287 0.950 . S
H1265 C1289 0.950 . S
H1266 C1290 0.950 . S
H1267 C1291 0.951 . S
H1268 C1293 0.951 . S
H1269 C1295 0.950 . S
H1270 C1296 0.950 . S
H1271 C1298 0.950 . S
H1272 C1301 0.950 . S
H1273 C1302 0.950 . S
H1274 C1304 0.950 . S
H1275 C1305 0.950 . S
C1276 H1258 0.951 . S
C1276 C1277 1.366 . S
C1276 C1278 1.388 . S
C1277 C1276 1.366 . S
C1277 C1281 1.385 . S
C1278 H1259 0.951 . S
C1278 C1276 1.388 . S
C1278 C1279 1.366 . S
C1279 C1278 1.366 . S
C1279 C1280 1.414 . S
C1279 C1282 1.499 . S
C1280 H1260 0.950 . S
C1280 C1279 1.414 . S
C1280 C1281 1.374 . S
C1281 H1261 0.950 . S
C1281 C1277 1.385 . S
C1281 C1280 1.374 . S
C1282 C1279 1.499 . S
C1282 C1283 1.373 . S
C1282 C1284 1.389 . S
C1283 H1262 0.950 . S
C1283 C1282 1.373 . S
C1283 C1299 1.377 . S
C1284 C1282 1.389 . S
C1284 C1285 1.524 . S
C1284 C1298 1.377 . S
C1285 C1284 1.524 . S
C1285 C1286 1.397 . S
C1285 C1290 1.363 . S
C1286 H1263 0.950 . S
C1286 C1285 1.397 . S
C1286 C1287 1.334 . S
C1287 H1264 0.950 . S
C1287 C1286 1.334 . S
C1287 C1288 1.287 . S
C1288 C1287 1.287 . S
C1288 C1289 1.524 . S
C1288 H1307 0.913 . S
C1289 H1265 0.950 . S
C1289 C1288 1.524 . S
C1289 C1290 1.415 . S
C1290 H1266 0.950 . S
C1290 C1285 1.363 . S
C1290 C1289 1.415 . S
C1291 H1267 0.951 . S
C1291 C1292 1.366 . S
C1291 C1293 1.388 . S
C1292 C1291 1.366 . S
C1292 C1296 1.385 . S
C1293 H1268 0.951 . S
C1293 C1291 1.388 . S
C1293 C1294 1.366 . S
C1294 C1293 1.366 . S
C1294 C1295 1.414 . S
C1294 C1297 1.499 . S
C1295 H1269 0.950 . S
C1295 C1294 1.414 . S
C1295 C1296 1.374 . S
C1296 H1270 0.950 . S
C1296 C1292 1.385 . S
C1296 C1295 1.374 . S
C1297 C1294 1.499 . S
C1297 C1298 1.373 . S
C1297 C1299 1.389 . S
C1298 H1271 0.950 . S
C1298 C1284 1.377 . S
C1298 C1297 1.373 . S
C1299 C1283 1.377 . S
C1299 C1297 1.389 . S
C1299 C1300 1.524 . S
C1300 C1299 1.524 . S
C1300 C1301 1.397 . S
C1300 C1305 1.363 . S
C1301 H1272 0.950 . S
C1301 C1300 1.397 . S
C1301 C1302 1.334 . S
C1302 H1273 0.950 . S
C1302 C1301 1.334 . S
C1302 C1303 1.287 . S
C1303 C1302 1.287 . S
C1303 C1304 1.524 . S
C1303 H1306 0.999 . S
C1304 H1274 0.950 . S
C1304 C1303 1.524 . S
C1304 C1305 1.415 . S
C1305 H1275 0.950 . S
C1305 C1300 1.363 . S
C1305 C1304 1.415 . S
H1306 C1303 0.999 . S
H1307 C1288 0.913 . S
H1308 C1326 0.951 . S
H1309 C1328 0.951 . S
H1310 C1330 0.950 . S
H1311 C1331 0.950 . S
H1312 C1333 0.950 . S
H1313 C1336 0.950 . S
H1314 C1337 0.950 . S
H1315 C1339 0.950 . S
H1316 C1340 0.950 . S
H1317 C1341 0.951 . S
H1318 C1343 0.951 . S
H1319 C1345 0.950 . S
H1320 C1346 0.950 . S
H1321 C1348 0.950 . S
H1322 C1351 0.950 . S
H1323 C1352 0.950 . S
H1324 C1354 0.950 . S
H1325 C1355 0.950 . S
C1326 H1308 0.951 . S
C1326 C1327 1.366 . S
C1326 C1328 1.388 . S
C1327 C1326 1.366 . S
C1327 C1331 1.385 . S
C1328 H1309 0.951 . S
C1328 C1326 1.388 . S
C1328 C1329 1.366 . S
C1329 C1328 1.366 . S
C1329 C1330 1.414 . S
C1329 C1332 1.499 . S
C1330 H1310 0.950 . S
C1330 C1329 1.414 . S
C1330 C1331 1.374 . S
C1331 H1311 0.950 . S
C1331 C1327 1.385 . S
C1331 C1330 1.374 . S
C1332 C1329 1.499 . S
C1332 C1333 1.373 . S
C1332 C1334 1.389 . S
C1333 H1312 0.950 . S
C1333 C1332 1.373 . S
C1333 C1349 1.377 1_556 S
C1334 C1332 1.389 . S
C1334 C1335 1.524 . S
C1334 C1348 1.377 1_556 S
C1335 C1334 1.524 . S
C1335 C1336 1.397 . S
C1335 C1340 1.363 . S
C1336 H1313 0.950 . S
C1336 C1335 1.397 . S
C1336 C1337 1.334 . S
C1337 H1314 0.950 . S
C1337 C1336 1.334 . S
C1337 C1338 1.287 . S
C1338 C1337 1.287 . S
C1338 C1339 1.524 . S
C1338 H1357 0.913 . S
C1339 H1315 0.950 . S
C1339 C1338 1.524 . S
C1339 C1340 1.415 . S
C1340 H1316 0.950 . S
C1340 C1335 1.363 . S
C1340 C1339 1.415 . S
C1341 H1317 0.951 . S
C1341 C1342 1.366 . S
C1341 C1343 1.388 . S
C1342 C1341 1.366 . S
C1342 C1346 1.385 . S
C1343 H1318 0.951 . S
C1343 C1341 1.388 . S
C1343 C1344 1.366 . S
C1344 C1343 1.366 . S
C1344 C1345 1.414 . S
C1344 C1347 1.499 . S
C1345 H1319 0.950 . S
C1345 C1344 1.414 . S
C1345 C1346 1.374 . S
C1346 H1320 0.950 . S
C1346 C1342 1.385 . S
C1346 C1345 1.374 . S
C1347 C1344 1.499 . S
C1347 C1348 1.373 . S
C1347 C1349 1.389 . S
C1348 H1321 0.950 . S
C1348 C1334 1.377 1_554 S
C1348 C1347 1.373 . S
C1349 C1333 1.377 1_554 S
C1349 C1347 1.389 . S
C1349 C1350 1.524 . S
C1350 C1349 1.524 . S
C1350 C1351 1.397 . S
C1350 C1355 1.363 . S
C1351 H1322 0.950 . S
C1351 C1350 1.397 . S
C1351 C1352 1.334 . S
C1352 H1323 0.950 . S
C1352 C1351 1.334 . S
C1352 C1353 1.287 . S
C1353 C1352 1.287 . S
C1353 C1354 1.524 . S
C1353 H1356 0.999 . S
C1354 H1324 0.950 . S
C1354 C1353 1.524 . S
C1354 C1355 1.415 . S
C1355 H1325 0.950 . S
C1355 C1350 1.363 . S
C1355 C1354 1.415 . S
H1356 C1353 0.999 . S
H1357 C1338 0.913 . S
H1358 C1376 0.951 . S
H1359 C1378 0.951 . S
H1360 C1380 0.950 . S
H1361 C1381 0.950 . S
H1362 C1383 0.950 . S
H1363 C1386 0.950 . S
H1364 C1387 0.950 . S
H1365 C1389 0.950 . S
H1366 C1390 0.950 . S
H1367 C1391 0.951 . S
H1368 C1393 0.951 . S
H1369 C1395 0.950 . S
H1370 C1396 0.950 . S
H1371 C1398 0.950 . S
H1372 C1401 0.950 . S
H1373 C1402 0.950 . S
H1374 C1404 0.950 . S
H1375 C1405 0.950 . S
C1376 H1358 0.951 . S
C1376 C1377 1.366 . S
C1376 C1378 1.388 . S
C1377 C1376 1.366 . S
C1377 C1381 1.385 . S
C1378 H1359 0.951 . S
C1378 C1376 1.388 . S
C1378 C1379 1.366 . S
C1379 C1378 1.366 . S
C1379 C1380 1.414 . S
C1379 C1382 1.499 . S
C1380 H1360 0.950 . S
C1380 C1379 1.414 . S
C1380 C1381 1.374 . S
C1381 H1361 0.950 . S
C1381 C1377 1.385 . S
C1381 C1380 1.374 . S
C1382 C1379 1.499 . S
C1382 C1383 1.373 . S
C1382 C1384 1.389 . S
C1383 H1362 0.950 . S
C1383 C1382 1.373 . S
C1383 C1399 1.377 . S
C1384 C1382 1.389 . S
C1384 C1385 1.524 . S
C1384 C1398 1.377 . S
C1385 C1384 1.524 . S
C1385 C1386 1.397 . S
C1385 C1390 1.363 . S
C1386 H1363 0.950 . S
C1386 C1385 1.397 . S
C1386 C1387 1.334 . S
C1387 H1364 0.950 . S
C1387 C1386 1.334 . S
C1387 C1388 1.287 . S
C1388 C1387 1.287 . S
C1388 C1389 1.524 . S
C1388 H1407 0.913 . S
C1389 H1365 0.950 . S
C1389 C1388 1.524 . S
C1389 C1390 1.415 . S
C1390 H1366 0.950 . S
C1390 C1385 1.363 . S
C1390 C1389 1.415 . S
C1391 H1367 0.951 . S
C1391 C1392 1.366 . S
C1391 C1393 1.388 . S
C1392 C1391 1.366 . S
C1392 C1396 1.385 . S
C1393 H1368 0.951 . S
C1393 C1391 1.388 . S
C1393 C1394 1.366 . S
C1394 C1393 1.366 . S
C1394 C1395 1.414 . S
C1394 C1397 1.499 . S
C1395 H1369 0.950 . S
C1395 C1394 1.414 . S
C1395 C1396 1.374 . S
C1396 H1370 0.950 . S
C1396 C1392 1.385 . S
C1396 C1395 1.374 . S
C1397 C1394 1.499 . S
C1397 C1398 1.373 . S
C1397 C1399 1.389 . S
C1398 H1371 0.950 . S
C1398 C1384 1.377 . S
C1398 C1397 1.373 . S
C1399 C1383 1.377 . S
C1399 C1397 1.389 . S
C1399 C1400 1.524 . S
C1400 C1399 1.524 . S
C1400 C1401 1.397 . S
C1400 C1405 1.363 . S
C1401 H1372 0.950 . S
C1401 C1400 1.397 . S
C1401 C1402 1.334 . S
C1402 H1373 0.950 . S
C1402 C1401 1.334 . S
C1402 C1403 1.287 . S
C1403 C1402 1.287 . S
C1403 C1404 1.524 . S
C1403 H1406 0.999 . S
C1404 H1374 0.950 . S
C1404 C1403 1.524 . S
C1404 C1405 1.415 . S
C1405 H1375 0.950 . S
C1405 C1400 1.363 . S
C1405 C1404 1.415 . S
H1406 C1403 0.999 . S
H1407 C1388 0.913 . S
H1408 C1426 0.951 . S
H1409 C1428 0.951 . S
H1410 C1430 0.950 . S
H1411 C1431 0.950 . S
H1412 C1433 0.950 . S
H1413 C1436 0.950 . S
H1414 C1437 0.950 . S
H1415 C1439 0.950 . S
H1416 C1440 0.950 . S
H1417 C1441 0.951 . S
H1418 C1443 0.951 . S
H1419 C1445 0.950 . S
H1420 C1446 0.950 . S
H1421 C1448 0.950 . S
H1422 C1451 0.950 . S
H1423 C1452 0.950 . S
H1424 C1454 0.950 . S
H1425 C1455 0.950 . S
C1426 H1408 0.951 . S
C1426 C1427 1.366 . S
C1426 C1428 1.388 . S
C1427 C1426 1.366 . S
C1427 C1431 1.385 . S
C1428 H1409 0.951 . S
C1428 C1426 1.388 . S
C1428 C1429 1.366 . S
C1429 C1428 1.366 . S
C1429 C1430 1.414 . S
C1429 C1432 1.499 . S
C1430 H1410 0.950 . S
C1430 C1429 1.414 . S
C1430 C1431 1.374 . S
C1431 H1411 0.950 . S
C1431 C1427 1.385 . S
C1431 C1430 1.374 . S
C1432 C1429 1.499 . S
C1432 C1433 1.373 . S
C1432 C1434 1.389 . S
C1433 H1412 0.950 . S
C1433 C1432 1.373 . S
C1433 C1449 1.377 . S
C1434 C1432 1.389 . S
C1434 C1435 1.524 . S
C1434 C1448 1.377 . S
C1435 C1434 1.524 . S
C1435 C1436 1.397 . S
C1435 C1440 1.363 . S
C1436 H1413 0.950 . S
C1436 C1435 1.397 . S
C1436 C1437 1.334 . S
C1437 H1414 0.950 . S
C1437 C1436 1.334 . S
C1437 C1438 1.287 . S
C1438 C1437 1.287 . S
C1438 C1439 1.524 . S
C1438 H1457 0.913 . S
C1439 H1415 0.950 . S
C1439 C1438 1.524 . S
C1439 C1440 1.415 . S
C1440 H1416 0.950 . S
C1440 C1435 1.363 . S
C1440 C1439 1.415 . S
C1441 H1417 0.951 . S
C1441 C1442 1.366 . S
C1441 C1443 1.388 . S
C1442 C1441 1.366 . S
C1442 C1446 1.385 . S
C1443 H1418 0.951 . S
C1443 C1441 1.388 . S
C1443 C1444 1.366 . S
C1444 C1443 1.366 . S
C1444 C1445 1.414 . S
C1444 C1447 1.499 . S
C1445 H1419 0.950 . S
C1445 C1444 1.414 . S
C1445 C1446 1.374 . S
C1446 H1420 0.950 . S
C1446 C1442 1.385 . S
C1446 C1445 1.374 . S
C1447 C1444 1.499 . S
C1447 C1448 1.373 . S
C1447 C1449 1.389 . S
C1448 H1421 0.950 . S
C1448 C1434 1.377 . S
C1448 C1447 1.373 . S
C1449 C1433 1.377 . S
C1449 C1447 1.389 . S
C1449 C1450 1.524 . S
C1450 C1449 1.524 . S
C1450 C1451 1.397 . S
C1450 C1455 1.363 . S
C1451 H1422 0.950 . S
C1451 C1450 1.397 . S
C1451 C1452 1.334 . S
C1452 H1423 0.950 . S
C1452 C1451 1.334 . S
C1452 C1453 1.287 . S
C1453 C1452 1.287 . S
C1453 C1454 1.524 . S
C1453 H1456 0.999 . S
C1454 H1424 0.950 . S
C1454 C1453 1.524 . S
C1454 C1455 1.415 . S
C1455 H1425 0.950 . S
C1455 C1450 1.363 . S
C1455 C1454 1.415 . S
H1456 C1453 0.999 . S
H1457 C1438 0.913 . S
H1458 C1476 0.951 . S
H1459 C1478 0.951 . S
H1460 C1480 0.950 . S
H1461 C1481 0.950 . S
H1462 C1483 0.950 . S
H1463 C1486 0.950 . S
H1464 C1487 0.950 . S
H1465 C1489 0.950 . S
H1466 C1490 0.950 . S
H1467 C1491 0.951 . S
H1468 C1493 0.951 . S
H1469 C1495 0.950 . S
H1470 C1496 0.950 . S
H1471 C1498 0.950 . S
H1472 C1501 0.950 . S
H1473 C1502 0.950 . S
H1474 C1504 0.950 . S
H1475 C1505 0.950 . S
C1476 H1458 0.951 . S
C1476 C1477 1.366 . S
C1476 C1478 1.388 . S
C1477 C1476 1.366 . S
C1477 C1481 1.385 . S
C1478 H1459 0.951 . S
C1478 C1476 1.388 . S
C1478 C1479 1.366 . S
C1479 C1478 1.366 . S
C1479 C1480 1.414 . S
C1479 C1482 1.499 . S
C1480 H1460 0.950 . S
C1480 C1479 1.414 . S
C1480 C1481 1.374 . S
C1481 H1461 0.950 . S
C1481 C1477 1.385 . S
C1481 C1480 1.374 . S
C1482 C1479 1.499 . S
C1482 C1483 1.373 . S
C1482 C1484 1.389 . S
C1483 H1462 0.950 . S
C1483 C1482 1.373 . S
C1483 C1499 1.377 1_556 S
C1484 C1482 1.389 . S
C1484 C1485 1.524 . S
C1484 C1498 1.377 1_556 S
C1485 C1484 1.524 . S
C1485 C1486 1.397 . S
C1485 C1490 1.363 . S
C1486 H1463 0.950 . S
C1486 C1485 1.397 . S
C1486 C1487 1.334 . S
C1487 H1464 0.950 . S
C1487 C1486 1.334 . S
C1487 C1488 1.287 . S
C1488 C1487 1.287 . S
C1488 C1489 1.524 . S
C1488 H1507 0.913 . S
C1489 H1465 0.950 . S
C1489 C1488 1.524 . S
C1489 C1490 1.415 . S
C1490 H1466 0.950 . S
C1490 C1485 1.363 . S
C1490 C1489 1.415 . S
C1491 H1467 0.951 . S
C1491 C1492 1.366 . S
C1491 C1493 1.388 . S
C1492 C1491 1.366 . S
C1492 C1496 1.385 . S
C1493 H1468 0.951 . S
C1493 C1491 1.388 . S
C1493 C1494 1.366 . S
C1494 C1493 1.366 . S
C1494 C1495 1.414 . S
C1494 C1497 1.499 . S
C1495 H1469 0.950 . S
C1495 C1494 1.414 . S
C1495 C1496 1.374 . S
C1496 H1470 0.950 . S
C1496 C1492 1.385 . S
C1496 C1495 1.374 . S
C1497 C1494 1.499 . S
C1497 C1498 1.373 . S
C1497 C1499 1.389 . S
C1498 H1471 0.950 . S
C1498 C1484 1.377 1_554 S
C1498 C1497 1.373 . S
C1499 C1483 1.377 1_554 S
C1499 C1497 1.389 . S
C1499 C1500 1.524 . S
C1500 C1499 1.524 . S
C1500 C1501 1.397 . S
C1500 C1505 1.363 . S
C1501 H1472 0.950 . S
C1501 C1500 1.397 . S
C1501 C1502 1.334 . S
C1502 H1473 0.950 . S
C1502 C1501 1.334 . S
C1502 C1503 1.287 . S
C1503 C1502 1.287 . S
C1503 C1504 1.524 . S
C1503 H1506 0.999 . S
C1504 H1474 0.950 . S
C1504 C1503 1.524 . S
C1504 C1505 1.415 . S
C1505 H1475 0.950 . S
C1505 C1500 1.363 . S
C1505 C1504 1.415 . S
H1506 C1503 0.999 . S
H1507 C1488 0.913 . S
H1508 C1526 0.951 . S
H1509 C1528 0.951 . S
H1510 C1530 0.950 . S
H1511 C1531 0.950 . S
H1512 C1533 0.950 . S
H1513 C1536 0.950 . S
H1514 C1537 0.950 . S
H1515 C1539 0.950 . S
H1516 C1540 0.950 . S
H1517 C1541 0.951 . S
H1518 C1543 0.951 . S
H1519 C1545 0.950 . S
H1520 C1546 0.950 . S
H1521 C1548 0.950 . S
H1522 C1551 0.950 . S
H1523 C1552 0.950 . S
H1524 C1554 0.950 . S
H1525 C1555 0.950 . S
C1526 H1508 0.951 . S
C1526 C1527 1.366 . S
C1526 C1528 1.388 . S
C1527 C1526 1.366 . S
C1527 C1531 1.385 . S
C1528 H1509 0.951 . S
C1528 C1526 1.388 . S
C1528 C1529 1.366 . S
C1529 C1528 1.366 . S
C1529 C1530 1.414 . S
C1529 C1532 1.499 . S
C1530 H1510 0.950 . S
C1530 C1529 1.414 . S
C1530 C1531 1.374 . S
C1531 H1511 0.950 . S
C1531 C1527 1.385 . S
C1531 C1530 1.374 . S
C1532 C1529 1.499 . S
C1532 C1533 1.373 . S
C1532 C1534 1.389 . S
C1533 H1512 0.950 . S
C1533 C1532 1.373 . S
C1533 C1549 1.377 . S
C1534 C1532 1.389 . S
C1534 C1535 1.524 . S
C1534 C1548 1.377 . S
C1535 C1534 1.524 . S
C1535 C1536 1.397 . S
C1535 C1540 1.363 . S
C1536 H1513 0.950 . S
C1536 C1535 1.397 . S
C1536 C1537 1.334 . S
C1537 H1514 0.950 . S
C1537 C1536 1.334 . S
C1537 C1538 1.287 . S
C1538 C1537 1.287 . S
C1538 C1539 1.524 . S
C1538 H1557 0.913 . S
C1539 H1515 0.950 . S
C1539 C1538 1.524 . S
C1539 C1540 1.415 . S
C1540 H1516 0.950 . S
C1540 C1535 1.363 . S
C1540 C1539 1.415 . S
C1541 H1517 0.951 . S
C1541 C1542 1.366 . S
C1541 C1543 1.388 . S
C1542 C1541 1.366 . S
C1542 C1546 1.385 . S
C1543 H1518 0.951 . S
C1543 C1541 1.388 . S
C1543 C1544 1.366 . S
C1544 C1543 1.366 . S
C1544 C1545 1.414 . S
C1544 C1547 1.499 . S
C1545 H1519 0.950 . S
C1545 C1544 1.414 . S
C1545 C1546 1.374 . S
C1546 H1520 0.950 . S
C1546 C1542 1.385 . S
C1546 C1545 1.374 . S
C1547 C1544 1.499 . S
C1547 C1548 1.373 . S
C1547 C1549 1.389 . S
C1548 H1521 0.950 . S
C1548 C1534 1.377 . S
C1548 C1547 1.373 . S
C1549 C1533 1.377 . S
C1549 C1547 1.389 . S
C1549 C1550 1.524 . S
C1550 C1549 1.524 . S
C1550 C1551 1.397 . S
C1550 C1555 1.363 . S
C1551 H1522 0.950 . S
C1551 C1550 1.397 . S
C1551 C1552 1.334 . S
C1552 H1523 0.950 . S
C1552 C1551 1.334 . S
C1552 C1553 1.287 . S
C1553 C1552 1.287 . S
C1553 C1554 1.524 . S
C1553 H1556 0.999 . S
C1554 H1524 0.950 . S
C1554 C1553 1.524 . S
C1554 C1555 1.415 . S
C1555 H1525 0.950 . S
C1555 C1550 1.363 . S
C1555 C1554 1.415 . S
H1556 C1553 0.999 . S
H1557 C1538 0.913 . S
H1558 C1576 0.951 . S
H1559 C1578 0.951 . S
H1560 C1580 0.950 . S
H1561 C1581 0.950 . S
H1562 C1583 0.950 . S
H1563 C1586 0.950 . S
H1564 C1587 0.950 . S
H1565 C1589 0.950 . S
H1566 C1590 0.950 . S
H1567 C1591 0.951 . S
H1568 C1593 0.951 . S
H1569 C1595 0.950 . S
H1570 C1596 0.950 . S
H1571 C1598 0.950 . S
H1572 C1601 0.950 . S
H1573 C1602 0.950 . S
H1574 C1604 0.950 . S
H1575 C1605 0.950 . S
C1576 H1558 0.951 . S
C1576 C1577 1.366 . S
C1576 C1578 1.388 . S
C1577 C1576 1.366 . S
C1577 C1581 1.385 . S
C1578 H1559 0.951 . S
C1578 C1576 1.388 . S
C1578 C1579 1.366 . S
C1579 C1578 1.366 . S
C1579 C1580 1.414 . S
C1579 C1582 1.499 . S
C1580 H1560 0.950 . S
C1580 C1579 1.414 . S
C1580 C1581 1.374 . S
C1581 H1561 0.950 . S
C1581 C1577 1.385 . S
C1581 C1580 1.374 . S
C1582 C1579 1.499 . S
C1582 C1583 1.373 . S
C1582 C1584 1.389 . S
C1583 H1562 0.950 . S
C1583 C1582 1.373 . S
C1583 C1599 1.377 . S
C1584 C1582 1.389 . S
C1584 C1585 1.524 . S
C1584 C1598 1.377 . S
C1585 C1584 1.524 . S
C1585 C1586 1.397 . S
C1585 C1590 1.363 . S
C1586 H1563 0.950 . S
C1586 C1585 1.397 . S
C1586 C1587 1.334 . S
C1587 H1564 0.950 . S
C1587 C1586 1.334 . S
C1587 C1588 1.287 . S
C1588 C1587 1.287 . S
C1588 C1589 1.524 . S
C1588 H1607 0.913 . S
C1589 H1565 0.950 . S
C1589 C1588 1.524 . S
C1589 C1590 1.415 . S
C1590 H1566 0.950 . S
C1590 C1585 1.363 . S
C1590 C1589 1.415 . S
C1591 H1567 0.951 . S
C1591 C1592 1.366 . S
C1591 C1593 1.388 . S
C1592 C1591 1.366 . S
C1592 C1596 1.385 . S
C1593 H1568 0.951 . S
C1593 C1591 1.388 . S
C1593 C1594 1.366 . S
C1594 C1593 1.366 . S
C1594 C1595 1.414 . S
C1594 C1597 1.499 . S
C1595 H1569 0.950 . S
C1595 C1594 1.414 . S
C1595 C1596 1.374 . S
C1596 H1570 0.950 . S
C1596 C1592 1.385 . S
C1596 C1595 1.374 . S
C1597 C1594 1.499 . S
C1597 C1598 1.373 . S
C1597 C1599 1.389 . S
C1598 H1571 0.950 . S
C1598 C1584 1.377 . S
C1598 C1597 1.373 . S
C1599 C1583 1.377 . S
C1599 C1597 1.389 . S
C1599 C1600 1.524 . S
C1600 C1599 1.524 . S
C1600 C1601 1.397 . S
C1600 C1605 1.363 . S
C1601 H1572 0.950 . S
C1601 C1600 1.397 . S
C1601 C1602 1.334 . S
C1602 H1573 0.950 . S
C1602 C1601 1.334 . S
C1602 C1603 1.287 . S
C1603 C1602 1.287 . S
C1603 C1604 1.524 . S
C1603 H1606 0.999 . S
C1604 H1574 0.950 . S
C1604 C1603 1.524 . S
C1604 C1605 1.415 . S
C1605 H1575 0.950 . S
C1605 C1600 1.363 . S
C1605 C1604 1.415 . S
H1606 C1603 0.999 . S
H1607 C1588 0.913 . S
H1608 C1626 0.951 . S
H1609 C1628 0.951 . S
H1610 C1630 0.950 . S
H1611 C1631 0.950 . S
H1612 C1633 0.950 . S
H1613 C1636 0.950 1_655 S
H1614 C1637 0.950 . S
H1615 C1639 0.950 . S
H1616 C1640 0.950 . S
H1617 C1641 0.951 . S
H1618 C1643 0.951 . S
H1619 C1645 0.950 . S
H1620 C1646 0.950 . S
H1621 C1648 0.950 . S
H1622 C1651 0.950 1_455 S
H1623 C1652 0.950 . S
H1624 C1654 0.950 . S
H1625 C1655 0.950 . S
C1626 H1608 0.951 . S
C1626 C1627 1.366 . S
C1626 C1628 1.388 . S
C1627 C1626 1.366 . S
C1627 C1631 1.385 . S
C1628 H1609 0.951 . S
C1628 C1626 1.388 . S
C1628 C1629 1.366 . S
C1629 C1628 1.366 . S
C1629 C1630 1.414 . S
C1629 C1632 1.499 . S
C1630 H1610 0.950 . S
C1630 C1629 1.414 . S
C1630 C1631 1.374 . S
C1631 H1611 0.950 . S
C1631 C1627 1.385 . S
C1631 C1630 1.374 . S
C1632 C1629 1.499 . S
C1632 C1633 1.373 . S
C1632 C1634 1.389 1_655 S
C1633 H1612 0.950 . S
C1633 C1632 1.373 . S
C1633 C1649 1.377 . S
C1634 C1632 1.389 1_455 S
C1634 C1635 1.524 . S
C1634 C1648 1.377 . S
C1635 C1634 1.524 . S
C1635 C1636 1.397 . S
C1635 C1640 1.363 . S
C1636 H1613 0.950 1_455 S
C1636 C1635 1.397 . S
C1636 C1637 1.334 . S
C1637 H1614 0.950 . S
C1637 C1636 1.334 . S
C1637 C1638 1.287 . S
C1638 C1637 1.287 . S
C1638 C1639 1.524 . S
C1638 H1657 0.913 . S
C1639 H1615 0.950 . S
C1639 C1638 1.524 . S
C1639 C1640 1.415 . S
C1640 H1616 0.950 . S
C1640 C1635 1.363 . S
C1640 C1639 1.415 . S
C1641 H1617 0.951 . S
C1641 C1642 1.366 . S
C1641 C1643 1.388 . S
C1642 C1641 1.366 . S
C1642 C1646 1.385 . S
C1643 H1618 0.951 . S
C1643 C1641 1.388 . S
C1643 C1644 1.366 . S
C1644 C1643 1.366 . S
C1644 C1645 1.414 . S
C1644 C1647 1.499 . S
C1645 H1619 0.950 . S
C1645 C1644 1.414 . S
C1645 C1646 1.374 . S
C1646 H1620 0.950 . S
C1646 C1642 1.385 . S
C1646 C1645 1.374 . S
C1647 C1644 1.499 . S
C1647 C1648 1.373 . S
C1647 C1649 1.389 1_455 S
C1648 H1621 0.950 . S
C1648 C1634 1.377 . S
C1648 C1647 1.373 . S
C1649 C1633 1.377 . S
C1649 C1647 1.389 1_655 S
C1649 C1650 1.524 . S
C1650 C1649 1.524 . S
C1650 C1651 1.397 . S
C1650 C1655 1.363 . S
C1651 H1622 0.950 1_655 S
C1651 C1650 1.397 . S
C1651 C1652 1.334 . S
C1652 H1623 0.950 . S
C1652 C1651 1.334 . S
C1652 C1653 1.287 . S
C1653 C1652 1.287 . S
C1653 C1654 1.524 . S
C1653 H1656 0.999 . S
C1654 H1624 0.950 . S
C1654 C1653 1.524 . S
C1654 C1655 1.415 . S
C1655 H1625 0.950 . S
C1655 C1650 1.363 . S
C1655 C1654 1.415 . S
H1656 C1653 0.999 . S
H1657 C1638 0.913 . S
H1658 C1676 0.951 . S
H1659 C1678 0.951 . S
H1660 C1680 0.950 . S
H1661 C1681 0.950 . S
H1662 C1683 0.950 . S
H1663 C1686 0.950 . S
H1664 C1687 0.950 . S
H1665 C1689 0.950 . S
H1666 C1690 0.950 . S
H1667 C1691 0.951 . S
H1668 C1693 0.951 . S
H1669 C1695 0.950 . S
H1670 C1696 0.950 . S
H1671 C1698 0.950 . S
H1672 C1701 0.950 . S
H1673 C1702 0.950 . S
H1674 C1704 0.950 . S
H1675 C1705 0.950 . S
C1676 H1658 0.951 . S
C1676 C1677 1.366 . S
C1676 C1678 1.388 . S
C1677 C1676 1.366 . S
C1677 C1681 1.385 . S
C1678 H1659 0.951 . S
C1678 C1676 1.388 . S
C1678 C1679 1.366 . S
C1679 C1678 1.366 . S
C1679 C1680 1.414 . S
C1679 C1682 1.499 . S
C1680 H1660 0.950 . S
C1680 C1679 1.414 . S
C1680 C1681 1.374 . S
C1681 H1661 0.950 . S
C1681 C1677 1.385 . S
C1681 C1680 1.374 . S
C1682 C1679 1.499 . S
C1682 C1683 1.373 . S
C1682 C1684 1.379 1_565 S
C1683 H1662 0.950 . S
C1683 C1682 1.373 . S
C1683 C1699 1.384 . S
C1684 C1682 1.379 1_545 S
C1684 C1685 1.528 . S
C1684 C1698 1.384 . S
C1685 C1684 1.528 . S
C1685 C1686 1.397 1_545 S
C1685 C1690 1.363 . S
C1686 H1663 0.950 . S
C1686 C1685 1.397 1_565 S
C1686 C1687 1.334 . S
C1687 H1664 0.950 . S
C1687 C1686 1.334 . S
C1687 C1688 1.287 1_565 S
C1688 C1687 1.287 1_545 S
C1688 C1689 1.524 . S
C1688 H1707 0.913 . S
C1689 H1665 0.950 . S
C1689 C1688 1.524 . S
C1689 C1690 1.415 . S
C1690 H1666 0.950 . S
C1690 C1685 1.363 . S
C1690 C1689 1.415 . S
C1691 H1667 0.951 . S
C1691 C1692 1.366 . S
C1691 C1693 1.388 . S
C1692 C1691 1.366 . S
C1692 C1696 1.385 . S
C1693 H1668 0.951 . S
C1693 C1691 1.388 . S
C1693 C1694 1.366 . S
C1694 C1693 1.366 . S
C1694 C1695 1.414 . S
C1694 C1697 1.499 . S
C1695 H1669 0.950 . S
C1695 C1694 1.414 . S
C1695 C1696 1.374 . S
C1696 H1670 0.950 . S
C1696 C1692 1.385 . S
C1696 C1695 1.374 . S
C1697 C1694 1.499 . S
C1697 C1698 1.373 . S
C1697 C1699 1.379 1_545 S
C1698 H1671 0.950 . S
C1698 C1684 1.384 . S
C1698 C1697 1.373 . S
C1699 C1683 1.384 . S
C1699 C1697 1.379 1_565 S
C1699 C1700 1.528 . S
C1700 C1699 1.528 . S
C1700 C1701 1.397 1_565 S
C1700 C1705 1.363 . S
C1701 H1672 0.950 . S
C1701 C1700 1.397 1_545 S
C1701 C1702 1.334 . S
C1702 H1673 0.950 . S
C1702 C1701 1.334 . S
C1702 C1703 1.287 1_545 S
C1703 C1702 1.287 1_565 S
C1703 C1704 1.524 . S
C1703 H1706 0.999 . S
C1704 H1674 0.950 . S
C1704 C1703 1.524 . S
C1704 C1705 1.415 . S
C1705 H1675 0.950 . S
C1705 C1700 1.363 . S
C1705 C1704 1.415 . S
H1706 C1703 0.999 . S
H1707 C1688 0.913 . S
H1708 C1726 0.951 . S
H1709 C1728 0.951 . S
H1710 C1730 0.950 . S
H1711 C1731 0.950 . S
H1712 C1733 0.950 . S
H1713 C1736 0.950 . S
H1714 C1737 0.950 . S
H1715 C1739 0.950 . S
H1716 C1740 0.950 . S
H1717 C1741 0.951 . S
H1718 C1743 0.951 . S
H1719 C1745 0.950 . S
H1720 C1746 0.950 . S
H1721 C1748 0.950 . S
H1722 C1751 0.950 . S
H1723 C1752 0.950 . S
H1724 C1754 0.950 . S
H1725 C1755 0.950 . S
C1726 H1708 0.951 . S
C1726 C1727 1.366 . S
C1726 C1728 1.388 . S
C1727 C1726 1.366 . S
C1727 C1731 1.385 . S
C1728 H1709 0.951 . S
C1728 C1726 1.388 . S
C1728 C1729 1.366 . S
C1729 C1728 1.366 . S
C1729 C1730 1.414 . S
C1729 C1732 1.499 . S
C1730 H1710 0.950 . S
C1730 C1729 1.414 . S
C1730 C1731 1.374 . S
C1731 H1711 0.950 . S
C1731 C1727 1.385 . S
C1731 C1730 1.374 . S
C1732 C1729 1.499 . S
C1732 C1733 1.373 . S
C1732 C1734 1.389 . S
C1733 H1712 0.950 . S
C1733 C1732 1.373 . S
C1733 C1749 1.377 . S
C1734 C1732 1.389 . S
C1734 C1735 1.524 . S
C1734 C1748 1.377 . S
C1735 C1734 1.524 . S
C1735 C1736 1.397 . S
C1735 C1740 1.363 . S
C1736 H1713 0.950 . S
C1736 C1735 1.397 . S
C1736 C1737 1.334 . S
C1737 H1714 0.950 . S
C1737 C1736 1.334 . S
C1737 C1738 1.287 . S
C1738 C1737 1.287 . S
C1738 C1739 1.524 . S
C1738 H1757 0.913 . S
C1739 H1715 0.950 . S
C1739 C1738 1.524 . S
C1739 C1740 1.415 . S
C1740 H1716 0.950 . S
C1740 C1735 1.363 . S
C1740 C1739 1.415 . S
C1741 H1717 0.951 . S
C1741 C1742 1.366 . S
C1741 C1743 1.388 . S
C1742 C1741 1.366 . S
C1742 C1746 1.385 . S
C1743 H1718 0.951 . S
C1743 C1741 1.388 . S
C1743 C1744 1.366 . S
C1744 C1743 1.366 . S
C1744 C1745 1.414 . S
C1744 C1747 1.499 . S
C1745 H1719 0.950 . S
C1745 C1744 1.414 . S
C1745 C1746 1.374 . S
C1746 H1720 0.950 . S
C1746 C1742 1.385 . S
C1746 C1745 1.374 . S
C1747 C1744 1.499 . S
C1747 C1748 1.373 . S
C1747 C1749 1.389 . S
C1748 H1721 0.950 . S
C1748 C1734 1.377 . S
C1748 C1747 1.373 . S
C1749 C1733 1.377 . S
C1749 C1747 1.389 . S
C1749 C1750 1.524 . S
C1750 C1749 1.524 . S
C1750 C1751 1.397 . S
C1750 C1755 1.363 . S
C1751 H1722 0.950 . S
C1751 C1750 1.397 . S
C1751 C1752 1.334 . S
C1752 H1723 0.950 . S
C1752 C1751 1.334 . S
C1752 C1753 1.287 . S
C1753 C1752 1.287 . S
C1753 C1754 1.524 . S
C1753 H1756 0.999 . S
C1754 H1724 0.950 . S
C1754 C1753 1.524 . S
C1754 C1755 1.415 . S
C1755 H1725 0.950 . S
C1755 C1750 1.363 . S
C1755 C1754 1.415 . S
H1756 C1753 0.999 . S
H1757 C1738 0.913 . S
H1758 C1776 0.951 . S
H1759 C1778 0.951 . S
H1760 C1780 0.950 . S
H1761 C1781 0.950 . S
H1762 C1783 0.950 . S
H1763 C1786 0.950 . S
H1764 C1787 0.950 . S
H1765 C1789 0.950 . S
H1766 C1790 0.950 . S
H1767 C1791 0.951 . S
H1768 C1793 0.951 . S
H1769 C1795 0.950 . S
H1770 C1796 0.950 . S
H1771 C1798 0.950 . S
H1772 C1801 0.950 . S
H1773 C1802 0.950 . S
H1774 C1804 0.950 . S
H1775 C1805 0.950 . S
C1776 H1758 0.951 . S
C1776 C1777 1.366 . S
C1776 C1778 1.388 . S
C1777 C1776 1.366 . S
C1777 C1781 1.385 . S
C1778 H1759 0.951 . S
C1778 C1776 1.388 . S
C1778 C1779 1.366 . S
C1779 C1778 1.366 . S
C1779 C1780 1.414 . S
C1779 C1782 1.499 . S
C1780 H1760 0.950 . S
C1780 C1779 1.414 . S
C1780 C1781 1.374 . S
C1781 H1761 0.950 . S
C1781 C1777 1.385 . S
C1781 C1780 1.374 . S
C1782 C1779 1.499 . S
C1782 C1783 1.373 . S
C1782 C1784 1.389 . S
C1783 H1762 0.950 . S
C1783 C1782 1.373 . S
C1783 C1799 1.377 1_455 S
C1784 C1782 1.389 . S
C1784 C1785 1.524 . S
C1784 C1798 1.377 1_455 S
C1785 C1784 1.524 . S
C1785 C1786 1.397 . S
C1785 C1790 1.363 . S
C1786 H1763 0.950 . S
C1786 C1785 1.397 . S
C1786 C1787 1.334 . S
C1787 H1764 0.950 . S
C1787 C1786 1.334 . S
C1787 C1788 1.287 . S
C1788 C1787 1.287 . S
C1788 C1789 1.524 . S
C1788 H1807 0.913 . S
C1789 H1765 0.950 . S
C1789 C1788 1.524 . S
C1789 C1790 1.415 . S
C1790 H1766 0.950 . S
C1790 C1785 1.363 . S
C1790 C1789 1.415 . S
C1791 H1767 0.951 . S
C1791 C1792 1.366 . S
C1791 C1793 1.388 . S
C1792 C1791 1.366 . S
C1792 C1796 1.385 . S
C1793 H1768 0.951 . S
C1793 C1791 1.388 . S
C1793 C1794 1.366 . S
C1794 C1793 1.366 . S
C1794 C1795 1.414 . S
C1794 C1797 1.499 . S
C1795 H1769 0.950 . S
C1795 C1794 1.414 . S
C1795 C1796 1.374 . S
C1796 H1770 0.950 . S
C1796 C1792 1.385 . S
C1796 C1795 1.374 . S
C1797 C1794 1.499 . S
C1797 C1798 1.373 . S
C1797 C1799 1.389 . S
C1798 H1771 0.950 . S
C1798 C1784 1.377 1_655 S
C1798 C1797 1.373 . S
C1799 C1783 1.377 1_655 S
C1799 C1797 1.389 . S
C1799 C1800 1.524 . S
C1800 C1799 1.524 . S
C1800 C1801 1.397 . S
C1800 C1805 1.363 . S
C1801 H1772 0.950 . S
C1801 C1800 1.397 . S
C1801 C1802 1.334 . S
C1802 H1773 0.950 . S
C1802 C1801 1.334 . S
C1802 C1803 1.287 . S
C1803 C1802 1.287 . S
C1803 C1804 1.524 . S
C1803 H1806 0.999 . S
C1804 H1774 0.950 . S
C1804 C1803 1.524 . S
C1804 C1805 1.415 . S
C1805 H1775 0.950 . S
C1805 C1800 1.363 . S
C1805 C1804 1.415 . S
H1806 C1803 0.999 . S
H1807 C1788 0.913 . S
H1808 C1826 0.951 . S
H1809 C1828 0.951 . S
H1810 C1830 0.950 . S
H1811 C1831 0.950 . S
H1812 C1833 0.950 . S
H1813 C1836 0.950 . S
H1814 C1837 0.950 . S
H1815 C1839 0.950 . S
H1816 C1840 0.950 . S
H1817 C1841 0.951 . S
H1818 C1843 0.951 . S
H1819 C1845 0.950 . S
H1820 C1846 0.950 . S
H1821 C1848 0.950 . S
H1822 C1851 0.950 . S
H1823 C1852 0.950 . S
H1824 C1854 0.950 . S
H1825 C1855 0.950 . S
C1826 H1808 0.951 . S
C1826 C1827 1.366 . S
C1826 C1828 1.388 . S
C1827 C1826 1.366 . S
C1827 C1831 1.385 . S
C1828 H1809 0.951 . S
C1828 C1826 1.388 . S
C1828 C1829 1.366 . S
C1829 C1828 1.366 . S
C1829 C1830 1.414 . S
C1829 C1832 1.499 . S
C1830 H1810 0.950 . S
C1830 C1829 1.414 . S
C1830 C1831 1.374 . S
C1831 H1811 0.950 . S
C1831 C1827 1.385 . S
C1831 C1830 1.374 . S
C1832 C1829 1.499 . S
C1832 C1833 1.373 . S
C1832 C1834 1.389 . S
C1833 H1812 0.950 . S
C1833 C1832 1.373 . S
C1833 C1849 1.377 1_545 S
C1834 C1832 1.389 . S
C1834 C1835 1.524 . S
C1834 C1848 1.377 1_545 S
C1835 C1834 1.524 . S
C1835 C1836 1.397 . S
C1835 C1840 1.363 . S
C1836 H1813 0.950 . S
C1836 C1835 1.397 . S
C1836 C1837 1.334 . S
C1837 H1814 0.950 . S
C1837 C1836 1.334 . S
C1837 C1838 1.287 . S
C1838 C1837 1.287 . S
C1838 C1839 1.524 . S
C1838 H1857 0.913 . S
C1839 H1815 0.950 . S
C1839 C1838 1.524 . S
C1839 C1840 1.415 . S
C1840 H1816 0.950 . S
C1840 C1835 1.363 . S
C1840 C1839 1.415 . S
C1841 H1817 0.951 . S
C1841 C1842 1.366 . S
C1841 C1843 1.388 . S
C1842 C1841 1.366 . S
C1842 C1846 1.385 . S
C1843 H1818 0.951 . S
C1843 C1841 1.388 . S
C1843 C1844 1.366 . S
C1844 C1843 1.366 . S
C1844 C1845 1.414 . S
C1844 C1847 1.499 . S
C1845 H1819 0.950 . S
C1845 C1844 1.414 . S
C1845 C1846 1.374 . S
C1846 H1820 0.950 . S
C1846 C1842 1.385 . S
C1846 C1845 1.374 . S
C1847 C1844 1.499 . S
C1847 C1848 1.373 . S
C1847 C1849 1.389 . S
C1848 H1821 0.950 . S
C1848 C1834 1.377 1_565 S
C1848 C1847 1.373 . S
C1849 C1833 1.377 1_565 S
C1849 C1847 1.389 . S
C1849 C1850 1.524 . S
C1850 C1849 1.524 . S
C1850 C1851 1.397 . S
C1850 C1855 1.363 . S
C1851 H1822 0.950 . S
C1851 C1850 1.397 . S
C1851 C1852 1.334 . S
C1852 H1823 0.950 . S
C1852 C1851 1.334 . S
C1852 C1853 1.287 . S
C1853 C1852 1.287 . S
C1853 C1854 1.524 . S
C1853 H1856 0.999 . S
C1854 H1824 0.950 . S
C1854 C1853 1.524 . S
C1854 C1855 1.415 . S
C1855 H1825 0.950 . S
C1855 C1850 1.363 . S
C1855 C1854 1.415 . S
H1856 C1853 0.999 . S
H1857 C1838 0.913 . S
H1858 C1876 0.951 . S
H1859 C1878 0.951 . S
H1860 C1880 0.950 . S
H1861 C1881 0.950 . S
H1862 C1883 0.950 . S
H1863 C1886 0.950 . S
H1864 C1887 0.950 . S
H1865 C1889 0.950 . S
H1866 C1890 0.950 . S
H1867 C1891 0.951 . S
H1868 C1893 0.951 . S
H1869 C1895 0.950 . S
H1870 C1896 0.950 . S
H1871 C1898 0.950 . S
H1872 C1901 0.950 . S
H1873 C1902 0.950 . S
H1874 C1904 0.950 . S
H1875 C1905 0.950 . S
C1876 H1858 0.951 . S
C1876 C1877 1.366 . S
C1876 C1878 1.388 . S
C1877 C1876 1.366 . S
C1877 C1881 1.385 . S
C1878 H1859 0.951 . S
C1878 C1876 1.388 . S
C1878 C1879 1.366 . S
C1879 C1878 1.366 . S
C1879 C1880 1.414 . S
C1879 C1882 1.499 . S
C1880 H1860 0.950 . S
C1880 C1879 1.414 . S
C1880 C1881 1.374 . S
C1881 H1861 0.950 . S
C1881 C1877 1.385 . S
C1881 C1880 1.374 . S
C1882 C1879 1.499 . S
C1882 C1883 1.373 . S
C1882 C1884 1.389 . S
C1883 H1862 0.950 . S
C1883 C1882 1.373 . S
C1883 C1899 1.377 . S
C1884 C1882 1.389 . S
C1884 C1885 1.524 . S
C1884 C1898 1.377 . S
C1885 C1884 1.524 . S
C1885 C1886 1.397 . S
C1885 C1890 1.363 . S
C1886 H1863 0.950 . S
C1886 C1885 1.397 . S
C1886 C1887 1.334 . S
C1887 H1864 0.950 . S
C1887 C1886 1.334 . S
C1887 C1888 1.287 . S
C1888 C1887 1.287 . S
C1888 C1889 1.524 . S
C1888 H1907 0.913 . S
C1889 H1865 0.950 . S
C1889 C1888 1.524 . S
C1889 C1890 1.415 . S
C1890 H1866 0.950 . S
C1890 C1885 1.363 . S
C1890 C1889 1.415 . S
C1891 H1867 0.951 . S
C1891 C1892 1.366 . S
C1891 C1893 1.388 . S
C1892 C1891 1.366 . S
C1892 C1896 1.385 . S
C1893 H1868 0.951 . S
C1893 C1891 1.388 . S
C1893 C1894 1.366 . S
C1894 C1893 1.366 . S
C1894 C1895 1.414 . S
C1894 C1897 1.499 . S
C1895 H1869 0.950 . S
C1895 C1894 1.414 . S
C1895 C1896 1.374 . S
C1896 H1870 0.950 . S
C1896 C1892 1.385 . S
C1896 C1895 1.374 . S
C1897 C1894 1.499 . S
C1897 C1898 1.373 . S
C1897 C1899 1.389 . S
C1898 H1871 0.950 . S
C1898 C1884 1.377 . S
C1898 C1897 1.373 . S
C1899 C1883 1.377 . S
C1899 C1897 1.389 . S
C1899 C1900 1.524 . S
C1900 C1899 1.524 . S
C1900 C1901 1.397 . S
C1900 C1905 1.363 . S
C1901 H1872 0.950 . S
C1901 C1900 1.397 . S
C1901 C1902 1.334 . S
C1902 H1873 0.950 . S
C1902 C1901 1.334 . S
C1902 C1903 1.287 . S
C1903 C1902 1.287 . S
C1903 C1904 1.524 . S
C1903 H1906 0.999 . S
C1904 H1874 0.950 . S
C1904 C1903 1.524 . S
C1904 C1905 1.415 . S
C1905 H1875 0.950 . S
C1905 C1900 1.363 . S
C1905 C1904 1.415 . S
H1906 C1903 0.999 . S
H1907 C1888 0.913 . S
C427 C111 1.392 . S
C442 C9 1.392 . S
C477 C145 1.392 . S
C492 C43 1.392 . S
C527 C179 1.392 . S
C542 C77 1.392 . S
C577 C213 1.392 . S
C592 C315 1.392 . S
C627 C247 1.392 . S
C642 C349 1.392 . S
C677 C281 1.392 . S
C692 C383 1.392 . S
C727 C107 0.371 . S
C742 C5 0.371 . S
C777 C39 0.374 . S
C792 C141 0.375 . S
C827 C175 0.372 . S
C842 C73 0.374 . S
C877 C209 0.374 . S
C892 C311 0.375 . S
C927 C345 0.375 . S
C942 C243 0.374 . S
C977 C277 0.374 . S
C992 C379 0.375 . S
C1027 C274 1.177 . S
C1042 C2 1.176 . S
C1077 C36 1.177 . S
C1092 C308 1.177 . S
C1127 C70 1.176 . S
C1142 C342 1.177 . S
C1177 C104 1.177 . S
C1192 C376 1.176 . S
C1227 C138 1.176 . S
C1242 C206 1.177 . S
C1277 C240 1.177 . S
C1292 C172 1.176 . S
C1327 C360 1.671 . S
C1342 C20 1.671 . S
C1377 C394 1.671 . S
C1392 C54 1.671 . S
C1427 C224 1.671 . S
C1442 C88 1.671 . S
C1477 C258 1.671 . S
C1492 C122 1.670 . S
C1527 C156 1.671 . S
C1542 C292 1.671 . S
C1577 C190 1.671 . S
C1592 C326 1.670 . S
C1627 C407 0.945 . S
C1642 C33 0.945 . S
C1677 C237 0.946 . S
C1692 C67 0.944 . S
C1727 C101 0.945 . S
C1742 C271 0.946 . S
C1777 C305 0.945 . S
C1792 C135 0.945 . S
C1827 C339 0.944 . S
C1842 C169 0.946 . S
C1877 C373 0.945 . S
C1892 C203 0.946 . S
