# Generated by pormake.
# Topology wgc, (5)-cn, num edge types: 1
# Building blocks:
#     Node 0, Type 0, BuildingBlock: BEQFEK_clean_sbu_0, # of connection points: 5
#     Node 1, Type 0, BuildingBlock: BEQFEK_clean_sbu_0, # of connection points: 5
#     Node 2, Type 0, BuildingBlock: BEQFEK_clean_sbu_0, # of connection points: 5
#     Node 3, Type 0, BuildingBlock: BEQFEK_clean_sbu_0, # of connection points: 5
#     Node 4, Type 0, BuildingBlock: BEQFEK_clean_sbu_0, # of connection points: 5
#     Node 5, Type 0, BuildingBlock: BEQFEK_clean_sbu_0, # of connection points: 5
#     Node 6, Type 0, BuildingBlock: BEQFEK_clean_sbu_0, # of connection points: 5
#     Node 7, Type 0, BuildingBlock: BEQFEK_clean_sbu_0, # of connection points: 5
#     Node 8, Type 0, BuildingBlock: BEQFEK_clean_sbu_0, # of connection points: 5
#     Node 9, Type 0, BuildingBlock: BEQFEK_clean_sbu_0, # of connection points: 5
#     Node 10, Type 0, BuildingBlock: BEQFEK_clean_sbu_0, # of connection points: 5
#     Node 11, Type 0, BuildingBlock: BEQFEK_clean_sbu_0, # of connection points: 5
#     Node 12, Type 0, BuildingBlock: BEQFEK_clean_sbu_0, # of connection points: 5
#     Node 13, Type 0, BuildingBlock: BEQFEK_clean_sbu_0, # of connection points: 5
#     Node 14, Type 0, BuildingBlock: BEQFEK_clean_sbu_0, # of connection points: 5
#     Node 15, Type 0, BuildingBlock: BEQFEK_clean_sbu_0, # of connection points: 5
#     Edge 16, Type (0, 0), BuildingBlock: KIFKEQ_clean_linker_1, # of connection points: 2
#     Edge 17, Type (0, 0), BuildingBlock: KIFKEQ_clean_linker_1, # of connection points: 2
#     Edge 18, Type (0, 0), BuildingBlock: KIFKEQ_clean_linker_1, # of connection points: 2
#     Edge 19, Type (0, 0), BuildingBlock: KIFKEQ_clean_linker_1, # of connection points: 2
#     Edge 20, Type (0, 0), BuildingBlock: KIFKEQ_clean_linker_1, # of connection points: 2
#     Edge 21, Type (0, 0), BuildingBlock: KIFKEQ_clean_linker_1, # of connection points: 2
#     Edge 22, Type (0, 0), BuildingBlock: KIFKEQ_clean_linker_1, # of connection points: 2
#     Edge 23, Type (0, 0), BuildingBlock: KIFKEQ_clean_linker_1, # of connection points: 2
#     Edge 24, Type (0, 0), BuildingBlock: KIFKEQ_clean_linker_1, # of connection points: 2
#     Edge 25, Type (0, 0), BuildingBlock: KIFKEQ_clean_linker_1, # of connection points: 2
#     Edge 26, Type (0, 0), BuildingBlock: KIFKEQ_clean_linker_1, # of connection points: 2
#     Edge 27, Type (0, 0), BuildingBlock: KIFKEQ_clean_linker_1, # of connection points: 2
#     Edge 28, Type (0, 0), BuildingBlock: KIFKEQ_clean_linker_1, # of connection points: 2
#     Edge 29, Type (0, 0), BuildingBlock: KIFKEQ_clean_linker_1, # of connection points: 2
#     Edge 30, Type (0, 0), BuildingBlock: KIFKEQ_clean_linker_1, # of connection points: 2
#     Edge 31, Type (0, 0), BuildingBlock: KIFKEQ_clean_linker_1, # of connection points: 2
#     Edge 32, Type (0, 0), BuildingBlock: KIFKEQ_clean_linker_1, # of connection points: 2
#     Edge 33, Type (0, 0), BuildingBlock: KIFKEQ_clean_linker_1, # of connection points: 2
#     Edge 34, Type (0, 0), BuildingBlock: KIFKEQ_clean_linker_1, # of connection points: 2
#     Edge 35, Type (0, 0), BuildingBlock: KIFKEQ_clean_linker_1, # of connection points: 2
#     Edge 36, Type (0, 0), BuildingBlock: KIFKEQ_clean_linker_1, # of connection points: 2
#     Edge 37, Type (0, 0), BuildingBlock: KIFKEQ_clean_linker_1, # of connection points: 2
#     Edge 38, Type (0, 0), BuildingBlock: KIFKEQ_clean_linker_1, # of connection points: 2
#     Edge 39, Type (0, 0), BuildingBlock: KIFKEQ_clean_linker_1, # of connection points: 2
#     Edge 40, Type (0, 0), BuildingBlock: KIFKEQ_clean_linker_1, # of connection points: 2
#     Edge 41, Type (0, 0), BuildingBlock: KIFKEQ_clean_linker_1, # of connection points: 2
#     Edge 42, Type (0, 0), BuildingBlock: KIFKEQ_clean_linker_1, # of connection points: 2
#     Edge 43, Type (0, 0), BuildingBlock: KIFKEQ_clean_linker_1, # of connection points: 2
#     Edge 44, Type (0, 0), BuildingBlock: KIFKEQ_clean_linker_1, # of connection points: 2
#     Edge 45, Type (0, 0), BuildingBlock: KIFKEQ_clean_linker_1, # of connection points: 2
#     Edge 46, Type (0, 0), BuildingBlock: KIFKEQ_clean_linker_1, # of connection points: 2
#     Edge 47, Type (0, 0), BuildingBlock: KIFKEQ_clean_linker_1, # of connection points: 2
#     Edge 48, Type (0, 0), BuildingBlock: KIFKEQ_clean_linker_1, # of connection points: 2
#     Edge 49, Type (0, 0), BuildingBlock: KIFKEQ_clean_linker_1, # of connection points: 2
#     Edge 50, Type (0, 0), BuildingBlock: KIFKEQ_clean_linker_1, # of connection points: 2
#     Edge 51, Type (0, 0), BuildingBlock: KIFKEQ_clean_linker_1, # of connection points: 2
#     Edge 52, Type (0, 0), BuildingBlock: KIFKEQ_clean_linker_1, # of connection points: 2
#     Edge 53, Type (0, 0), BuildingBlock: KIFKEQ_clean_linker_1, # of connection points: 2
#     Edge 54, Type (0, 0), BuildingBlock: KIFKEQ_clean_linker_1, # of connection points: 2
#     Edge 55, Type (0, 0), BuildingBlock: KIFKEQ_clean_linker_1, # of connection points: 2
# Relax obj value: 0.141
# Max RMSD: 0.131
# Mean RMSD: 0.131
data_MOF--net-wgc--node1-BEQFEK_clean_sbu_0--edge1-KIFKEQ_clean_linker_1
_symmetry_space_group_name_H-M    P1
_symmetry_Int_Tables_number       1
_symmetry_cell_setting            triclinic
loop_
_symmetry_equiv_pos_as_xyz
'x, y, z'
_cell_length_a     40.709481
_cell_length_b     40.769327
_cell_length_c     56.049085
_cell_angle_alpha  90.01588
_cell_angle_beta   90.025078
_cell_angle_gamma 89.971593
loop_
_atom_site_label
_atom_site_type_symbol
_atom_site_fract_x
_atom_site_fract_y
_atom_site_fract_z
_atom_type_partial_charge
Co0 Co 0.23011 0.11663 0.01148 0.0
Co1 Co 0.30507 0.10067 0.00569 0.0
C2 C 0.26704 0.12212 0.96421 0.0
O3 O 0.24188 0.12293 0.97766 0.0
O4 O 0.2953 0.11462 0.97243 0.0
C5 C 0.17815 0.16219 0.00631 0.0
O6 O 0.2021 0.18131 0.99903 0.0
C7 C 0.37269 0.0787 0.99433 0.0
C8 C 0.3939 0.0745 0.03048 0.0
C9 C 0.40087 0.0695 0.00662 0.0
N10 N 0.35033 0.08932 0.01026 0.0
N11 N 0.36313 0.08632 0.03183 0.0
C12 C 0.36642 0.0762 0.96811 0.0
H13 H 0.34578 0.05896 0.96493 0.0
H14 H 0.35883 0.10056 0.9612 0.0
H15 H 0.38853 0.06774 0.95831 0.0
C16 C 0.25568 0.16126 0.04866 0.0
N17 N 0.26011 0.13878 0.03137 0.0
N18 N 0.29181 0.13401 0.02806 0.0
C19 C 0.30849 0.15452 0.04265 0.0
C20 C 0.28615 0.17201 0.05635 0.0
C21 C 0.22291 0.1711 0.05841 0.0
H22 H 0.20507 0.15073 0.05649 0.0
H23 H 0.2137 0.19265 0.04834 0.0
H24 H 0.22492 0.1781 0.0775 0.0
O25 O 0.22933 0.06969 0.01852 0.0
O26 O 0.28163 0.05837 0.01113 0.0
H27 H 0.35672 0.14697 0.05679 0.0
H28 H 0.35012 0.18678 0.04435 0.0
C29 C 0.34477 0.16029 0.04188 0.0
H30 H 0.3552 0.15201 0.02463 0.0
H31 H 0.35028 0.09078 0.04759 0.0
O32 O 0.18482 0.1336 0.01392 0.0
C33 C 0.25265 0.0492 0.01643 0.0
Co34 Co 0.12548 0.77053 0.99325 0.0
Co35 Co 0.09607 0.69899 0.99231 0.0
C36 C 0.12019 0.72726 0.03731 0.0
O37 O 0.12729 0.75326 0.02593 0.0
O38 O 0.10762 0.70235 0.02697 0.0
C39 C 0.17216 0.81782 0.0091 0.0
O40 O 0.17795 0.79562 0.02552 0.0
C41 C 0.0747 0.62891 0.99534 0.0
C42 C 0.05237 0.62374 0.95958 0.0
C43 C 0.05832 0.60685 0.98057 0.0
N44 N 0.0781 0.65746 0.9835 0.0
N45 N 0.06454 0.65412 0.96222 0.0
C46 C 0.08814 0.62278 0.01976 0.0
H47 H 0.06974 0.63065 0.03319 0.0
H48 H 0.11084 0.63733 0.02254 0.0
H49 H 0.09353 0.59634 0.02242 0.0
C50 C 0.1687 0.74214 0.95657 0.0
N51 N 0.14369 0.73961 0.97213 0.0
N52 N 0.1324 0.70936 0.97199 0.0
C53 C 0.15003 0.69166 0.95612 0.0
C54 C 0.17356 0.71188 0.9459 0.0
C55 C 0.18699 0.77326 0.9517 0.0
H56 H 0.16933 0.79381 0.94968 0.0
H57 H 0.20311 0.77885 0.96714 0.0
H58 H 0.20226 0.77133 0.93537 0.0
O59 O 0.07896 0.78041 0.98581 0.0
O60 O 0.05933 0.72974 0.98687 0.0
H61 H 0.12471 0.65271 0.9386 0.0
H62 H 0.16772 0.64489 0.9434 0.0
C63 C 0.1453 0.65588 0.95135 0.0
H64 H 0.13909 0.64289 0.96814 0.0
H65 H 0.06355 0.67275 0.94947 0.0
O66 O 0.15101 0.81204 0.99293 0.0
C67 C 0.05496 0.76047 0.98458 0.0
Co68 Co 0.76938 0.88083 0.011 0.0
Co69 Co 0.6947 0.90008 0.00728 0.0
C70 C 0.73133 0.88056 0.96428 0.0
O71 O 0.75676 0.87762 0.97726 0.0
O72 O 0.70368 0.88861 0.97324 0.0
C73 C 0.82073 0.83726 0.99968 0.0
O74 O 0.79702 0.82354 0.9873 0.0
C75 C 0.62731 0.92284 0.99625 0.0
C76 C 0.60661 0.92822 0.03246 0.0
C77 C 0.59943 0.93277 0.00857 0.0
N78 N 0.64973 0.91231 0.01218 0.0
N79 N 0.63724 0.91598 0.03378 0.0
C80 C 0.63314 0.92432 0.96993 0.0
H81 H 0.65423 0.94081 0.96627 0.0
H82 H 0.63981 0.89952 0.96337 0.0
H83 H 0.61111 0.93311 0.96018 0.0
C84 C 0.7435 0.83451 0.04653 0.0
N85 N 0.73901 0.85832 0.03025 0.0
N86 N 0.7074 0.86477 0.02819 0.0
C87 C 0.69076 0.84431 0.04284 0.0
C88 C 0.71311 0.82484 0.05505 0.0
C89 C 0.77646 0.82245 0.05448 0.0
H90 H 0.79415 0.84311 0.05506 0.0
H91 H 0.78558 0.80411 0.04144 0.0
H92 H 0.77511 0.81075 0.07233 0.0
O93 O 0.77175 0.92727 0.01952 0.0
O94 O 0.71948 0.941 0.0147 0.0
H95 H 0.64476 0.85548 0.05933 0.0
H96 H 0.64715 0.81517 0.04687 0.0
C97 C 0.65418 0.84118 0.04395 0.0
H98 H 0.64275 0.85012 0.02722 0.0
H99 H 0.65018 0.91158 0.04952 0.0
O100 O 0.81413 0.86187 0.01276 0.0
C101 C 0.7491 0.94873 0.01936 0.0
Co102 Co 0.87304 0.22915 0.9938 0.0
Co103 Co 0.90339 0.29988 0.99192 0.0
C104 C 0.87621 0.27332 0.03701 0.0
O105 O 0.86853 0.24714 0.02602 0.0
O106 O 0.89035 0.29722 0.02645 0.0
C107 C 0.82327 0.18255 0.0058 0.0
O108 O 0.81057 0.20711 0.01787 0.0
C109 C 0.93339 0.36624 0.99642 0.0
C110 C 0.95032 0.37291 0.95925 0.0
C111 C 0.95124 0.3871 0.98166 0.0
N112 N 0.92241 0.34096 0.98314 0.0
N113 N 0.93256 0.34528 0.96097 0.0
C114 C 0.93036 0.36783 0.02299 0.0
H115 H 0.93758 0.34388 0.03081 0.0
H116 H 0.90429 0.37228 0.02776 0.0
H117 H 0.94589 0.38751 0.03069 0.0
C118 C 0.83179 0.25612 0.9553 0.0
N119 N 0.85625 0.25908 0.9713 0.0
N120 N 0.86754 0.28934 0.97099 0.0
C121 C 0.85015 0.30671 0.95476 0.0
C122 C 0.82703 0.28618 0.9443 0.0
C123 C 0.8139 0.2248 0.95032 0.0
H124 H 0.83133 0.20389 0.95074 0.0
H125 H 0.79514 0.22087 0.96438 0.0
H126 H 0.80149 0.22549 0.9327 0.0
O127 O 0.91977 0.21887 0.9886 0.0
O128 O 0.94049 0.26907 0.9874 0.0
H129 H 0.87215 0.34651 0.93591 0.0
H130 H 0.83027 0.35361 0.94447 0.0
C131 C 0.85392 0.34269 0.95034 0.0
H132 H 0.86255 0.35529 0.96672 0.0
H133 H 0.92871 0.32845 0.94723 0.0
O134 O 0.84909 0.18718 0.99353 0.0
C135 C 0.94416 0.23812 0.98666 0.0
Co136 Co 0.23075 0.37418 0.24114 0.0
Co137 Co 0.30338 0.40037 0.24309 0.0
C138 C 0.27041 0.37772 0.28694 0.0
O139 O 0.24498 0.37158 0.27455 0.0
O140 O 0.29659 0.38915 0.27755 0.0
C141 C 0.18044 0.32873 0.25309 0.0
O142 O 0.2033 0.31662 0.2671 0.0
C143 C 0.36889 0.43182 0.25006 0.0
C144 C 0.38366 0.43771 0.21239 0.0
C145 C 0.39327 0.44507 0.23548 0.0
N146 N 0.34639 0.41696 0.23606 0.0
N147 N 0.35541 0.42086 0.21361 0.0
C148 C 0.3643 0.43744 0.27623 0.0
H149 H 0.33783 0.43703 0.28086 0.0
H150 H 0.37682 0.41755 0.28623 0.0
H151 H 0.37498 0.4613 0.28174 0.0
C152 C 0.259 0.33002 0.20532 0.0
N153 N 0.26207 0.35438 0.22132 0.0
N154 N 0.29305 0.36354 0.22272 0.0
C155 C 0.31082 0.34432 0.20785 0.0
C156 C 0.28976 0.32281 0.19624 0.0
C157 C 0.22687 0.31513 0.19818 0.0
H158 H 0.20774 0.33445 0.19709 0.0
H159 H 0.21928 0.29715 0.21197 0.0
H160 H 0.22867 0.30238 0.18073 0.0
O161 O 0.22392 0.42014 0.23269 0.0
O162 O 0.27482 0.43867 0.2359 0.0
H163 H 0.35498 0.35858 0.19003 0.0
H164 H 0.35662 0.31885 0.20346 0.0
C165 C 0.34747 0.34429 0.20595 0.0
H166 H 0.35877 0.35498 0.22218 0.0
H167 H 0.34121 0.41379 0.199 0.0
O168 O 0.18746 0.35253 0.2394 0.0
C169 C 0.24443 0.44356 0.232 0.0
Co170 Co 0.37742 0.77037 0.76039 0.0
Co171 Co 0.40321 0.69779 0.75814 0.0
C172 C 0.37677 0.72919 0.71499 0.0
O173 O 0.37262 0.75496 0.72741 0.0
O174 O 0.38789 0.70282 0.72432 0.0
C175 C 0.32853 0.8181 0.74994 0.0
O176 O 0.31565 0.79389 0.73761 0.0
C177 C 0.42967 0.63001 0.75124 0.0
C178 C 0.45092 0.62216 0.7871 0.0
C179 C 0.44831 0.60814 0.76471 0.0
N180 N 0.42163 0.65568 0.76524 0.0
N181 N 0.43439 0.65066 0.78661 0.0
C182 C 0.4231 0.62875 0.72499 0.0
H183 H 0.42922 0.65277 0.71683 0.0
H184 H 0.39652 0.62429 0.72204 0.0
H185 H 0.43756 0.60917 0.71613 0.0
C186 C 0.33758 0.743 0.79938 0.0
N187 N 0.35982 0.73952 0.78185 0.0
N188 N 0.36919 0.70865 0.78058 0.0
C189 C 0.3525 0.6913 0.79719 0.0
C190 C 0.33222 0.71262 0.80984 0.0
C191 C 0.32093 0.77479 0.80516 0.0
H192 H 0.3397 0.79413 0.80799 0.0
H193 H 0.30553 0.78221 0.78978 0.0
H194 H 0.30489 0.77297 0.82107 0.0
O195 O 0.42432 0.77827 0.76627 0.0
O196 O 0.4417 0.72713 0.76216 0.0
H197 H 0.37707 0.65188 0.81476 0.0
H198 H 0.33445 0.64424 0.80913 0.0
C199 C 0.357 0.65539 0.80162 0.0
H200 H 0.36358 0.64263 0.78482 0.0
H201 H 0.43306 0.66749 0.8006 0.0
O202 O 0.35444 0.813 0.76206 0.0
C203 C 0.44753 0.75745 0.76543 0.0
Co204 Co 0.77221 0.61601 0.23785 0.0
Co205 Co 0.69759 0.59913 0.24351 0.0
C206 C 0.73624 0.61844 0.28548 0.0
O207 O 0.761 0.62036 0.27175 0.0
O208 O 0.70784 0.61116 0.27736 0.0
C209 C 0.82389 0.66122 0.24397 0.0
O210 O 0.79996 0.67983 0.252 0.0
C211 C 0.62847 0.58013 0.25418 0.0
C212 C 0.60919 0.5747 0.21751 0.0
C213 C 0.60056 0.57184 0.24126 0.0
N214 N 0.65235 0.58826 0.23864 0.0
N215 N 0.64069 0.58444 0.2168 0.0
C216 C 0.6328 0.57953 0.28065 0.0
H217 H 0.65314 0.56254 0.28528 0.0
H218 H 0.63997 0.60435 0.28689 0.0
H219 H 0.60995 0.57177 0.28985 0.0
C220 C 0.74623 0.66207 0.20192 0.0
N221 N 0.742 0.63899 0.21879 0.0
N222 N 0.71037 0.6337 0.22195 0.0
C223 C 0.69349 0.65433 0.20755 0.0
C224 C 0.71567 0.67259 0.19428 0.0
C225 C 0.7789 0.67246 0.19231 0.0
H226 H 0.78813 0.69347 0.20295 0.0
H227 H 0.77677 0.68042 0.17344 0.0
H228 H 0.79679 0.65202 0.1936 0.0
O229 O 0.77316 0.56964 0.22975 0.0
O230 O 0.72098 0.55717 0.23625 0.0
H231 H 0.64603 0.64453 0.19286 0.0
H232 H 0.65073 0.685 0.20467 0.0
C233 C 0.65701 0.65882 0.20768 0.0
H234 H 0.64642 0.6507 0.22491 0.0
H235 H 0.6546 0.58756 0.20133 0.0
O236 O 0.81727 0.63309 0.23554 0.0
C237 C 0.75015 0.54868 0.23084 0.0
Co238 Co 0.62695 0.22699 0.75634 0.0
Co239 Co 0.59731 0.29862 0.75704 0.0
C240 C 0.61689 0.26861 0.71177 0.0
O241 O 0.62374 0.24297 0.72359 0.0
O242 O 0.60784 0.29497 0.72213 0.0
C243 C 0.66887 0.17736 0.73696 0.0
O244 O 0.66891 0.19691 0.71837 0.0
C245 C 0.57272 0.36703 0.75158 0.0
C246 C 0.54623 0.37242 0.7858 0.0
C247 C 0.55243 0.38813 0.76439 0.0
N248 N 0.57812 0.34008 0.76494 0.0
N249 N 0.56237 0.34367 0.78539 0.0
C250 C 0.58339 0.37024 0.72615 0.0
H251 H 0.57127 0.35087 0.71539 0.0
H252 H 0.6103 0.36618 0.72496 0.0
H253 H 0.577 0.39452 0.71857 0.0
C254 C 0.66984 0.25578 0.79297 0.0
N255 N 0.64601 0.25881 0.77652 0.0
N256 N 0.63437 0.28895 0.77694 0.0
C257 C 0.65065 0.30612 0.79386 0.0
C258 C 0.67349 0.28551 0.80475 0.0
C259 C 0.68848 0.22466 0.79726 0.0
H260 H 0.69869 0.21567 0.78012 0.0
H261 H 0.70898 0.22818 0.81004 0.0
H262 H 0.67142 0.20566 0.80413 0.0
O263 O 0.58167 0.21667 0.76583 0.0
O264 O 0.56117 0.26709 0.7637 0.0
H265 H 0.62012 0.33995 0.81258 0.0
H266 H 0.66243 0.35222 0.81105 0.0
C267 C 0.64219 0.34046 0.80099 0.0
H268 H 0.63645 0.35527 0.78492 0.0
H269 H 0.56152 0.32579 0.7987 0.0
O270 O 0.65311 0.18564 0.75564 0.0
C271 C 0.55751 0.23641 0.767 0.0
Co272 Co 0.72682 0.62372 0.50566 0.0
Co273 Co 0.79821 0.59502 0.50722 0.0
C274 C 0.77184 0.62381 0.46272 0.0
O275 O 0.74539 0.62985 0.4739 0.0
O276 O 0.79623 0.61018 0.47311 0.0
C277 C 0.68085 0.67574 0.49711 0.0
O278 O 0.70677 0.69321 0.49138 0.0
C279 C 0.86891 0.57522 0.50452 0.0
C280 C 0.87276 0.54827 0.53863 0.0
C281 C 0.89055 0.55728 0.51865 0.0
N282 N 0.83973 0.57667 0.5158 0.0
N283 N 0.84227 0.5603 0.53605 0.0
C284 C 0.87591 0.59158 0.4812 0.0
H285 H 0.86844 0.57497 0.46648 0.0
H286 H 0.86143 0.61454 0.47967 0.0
H287 H 0.90248 0.59713 0.47938 0.0
C288 C 0.75148 0.6611 0.54726 0.0
N289 N 0.75572 0.63955 0.52932 0.0
N290 N 0.78629 0.62898 0.52938 0.0
C291 C 0.80272 0.64413 0.5472 0.0
C292 C 0.78113 0.66478 0.55925 0.0
C293 C 0.71984 0.6787 0.552 0.0
H294 H 0.69892 0.66149 0.55003 0.0
H295 H 0.7169 0.69856 0.53867 0.0
H296 H 0.71918 0.69004 0.56993 0.0
O297 O 0.71737 0.57678 0.50961 0.0
O298 O 0.76808 0.55699 0.51028 0.0
H299 H 0.83919 0.61461 0.56411 0.0
H300 H 0.84868 0.65749 0.56419 0.0
C301 C 0.83786 0.63745 0.55342 0.0
H302 H 0.85251 0.63407 0.53694 0.0
H303 H 0.823 0.55725 0.54813 0.0
O304 O 0.68434 0.64665 0.50482 0.0
C305 C 0.73715 0.55273 0.51088 0.0
Co306 Co 0.61453 0.26789 0.48565 0.0
Co307 Co 0.5975 0.19328 0.49151 0.0
C308 C 0.61389 0.2329 0.53358 0.0
O309 O 0.61612 0.25768 0.51993 0.0
O310 O 0.60811 0.20431 0.52532 0.0
C311 C 0.66023 0.31916 0.49242 0.0
O312 O 0.67821 0.29517 0.50104 0.0
C313 C 0.57549 0.12598 0.50363 0.0
C314 C 0.57269 0.10357 0.4678 0.0
C315 C 0.56684 0.09738 0.49168 0.0
N316 N 0.58649 0.14786 0.4875 0.0
N317 N 0.58438 0.13432 0.46612 0.0
C318 C 0.57242 0.13295 0.52973 0.0
H319 H 0.55426 0.15292 0.53244 0.0
H320 H 0.59639 0.14168 0.53669 0.0
H321 H 0.56473 0.11086 0.53984 0.0
C322 C 0.66308 0.24097 0.45167 0.0
N323 N 0.63876 0.2371 0.46768 0.0
N324 N 0.63325 0.20554 0.47091 0.0
C325 C 0.65501 0.18843 0.45757 0.0
C326 C 0.67422 0.21034 0.44486 0.0
C327 C 0.67459 0.27331 0.44225 0.0
H328 H 0.65425 0.29141 0.44249 0.0
H329 H 0.69487 0.28248 0.45366 0.0
H330 H 0.68411 0.27073 0.42378 0.0
O331 O 0.56855 0.26873 0.47601 0.0
O332 O 0.55589 0.21676 0.48301 0.0
H333 H 0.64659 0.14095 0.44264 0.0
H334 H 0.6859 0.14574 0.45643 0.0
C335 C 0.65946 0.15203 0.45811 0.0
H336 H 0.64974 0.14161 0.47495 0.0
H337 H 0.58949 0.1466 0.45023 0.0
O338 O 0.63227 0.31279 0.48348 0.0
C339 C 0.54755 0.24574 0.47701 0.0
Co340 Co 0.26842 0.37185 0.50455 0.0
Co341 Co 0.19775 0.40282 0.50722 0.0
C342 C 0.22374 0.37635 0.46171 0.0
O343 O 0.25003 0.36817 0.4724 0.0
O344 O 0.20008 0.39048 0.47259 0.0
C345 C 0.31426 0.32133 0.49223 0.0
O346 O 0.28919 0.30873 0.48065 0.0
C347 C 0.13161 0.43356 0.50303 0.0
C348 C 0.12544 0.45064 0.54021 0.0
C349 C 0.11105 0.45169 0.51786 0.0
N350 N 0.15689 0.42228 0.51622 0.0
N351 N 0.15288 0.43256 0.53839 0.0
C352 C 0.1299 0.43067 0.47645 0.0
H353 H 0.15405 0.43721 0.46862 0.0
H354 H 0.12468 0.40479 0.47163 0.0
H355 H 0.11065 0.44678 0.46878 0.0
C356 C 0.24163 0.33088 0.54322 0.0
N357 N 0.23848 0.35506 0.52707 0.0
N358 N 0.20829 0.3667 0.52775 0.0
C359 C 0.19121 0.34983 0.54439 0.0
C360 C 0.21185 0.32678 0.5547 0.0
C361 C 0.27282 0.31253 0.54787 0.0
H362 H 0.29387 0.3298 0.54798 0.0
H363 H 0.27677 0.29453 0.53331 0.0
H364 H 0.27185 0.29918 0.56511 0.0
O365 O 0.27915 0.41836 0.51031 0.0
O366 O 0.22895 0.43921 0.51216 0.0
H367 H 0.15295 0.37293 0.56426 0.0
H368 H 0.14445 0.33123 0.55614 0.0
C369 C 0.15556 0.35452 0.54981 0.0
H370 H 0.14225 0.36326 0.53376 0.0
H371 H 0.16985 0.42861 0.55205 0.0
O372 O 0.31023 0.34737 0.50436 0.0
C373 C 0.25994 0.44269 0.51283 0.0
Co374 Co 0.37766 0.72954 0.4907 0.0
Co375 Co 0.39727 0.80372 0.4951 0.0
C376 C 0.3758 0.76654 0.53761 0.0
O377 O 0.37243 0.7415 0.52433 0.0
O378 O 0.38502 0.79408 0.52905 0.0
C379 C 0.33203 0.6776 0.49666 0.0
O380 O 0.31313 0.70113 0.50492 0.0
C381 C 0.4205 0.87101 0.50617 0.0
C382 C 0.42451 0.89188 0.46992 0.0
C383 C 0.42992 0.89894 0.49373 0.0
N384 N 0.40939 0.84871 0.49038 0.0
N385 N 0.41229 0.8613 0.46875 0.0
C386 C 0.42309 0.86498 0.53242 0.0
H387 H 0.44005 0.84412 0.53563 0.0
H388 H 0.39864 0.85789 0.53944 0.0
H389 H 0.43198 0.88702 0.54208 0.0
C390 C 0.33265 0.75591 0.45421 0.0
N391 N 0.35609 0.75993 0.47088 0.0
N392 N 0.36221 0.79144 0.47366 0.0
C393 C 0.34161 0.80849 0.45932 0.0
C394 C 0.32259 0.78652 0.44638 0.0
C395 C 0.32136 0.7233 0.4451 0.0
H396 H 0.34143 0.70501 0.44647 0.0
H397 H 0.30027 0.71481 0.456 0.0
H398 H 0.3132 0.72512 0.42625 0.0
O399 O 0.42439 0.72723 0.48388 0.0
O400 O 0.4388 0.77933 0.48799 0.0
H401 H 0.35102 0.85589 0.44447 0.0
H402 H 0.31107 0.8514 0.45728 0.0
C403 C 0.33738 0.84495 0.45962 0.0
H404 H 0.34641 0.85543 0.47666 0.0
H405 H 0.40737 0.84844 0.45306 0.0
O406 O 0.36012 0.68467 0.48829 0.0
C407 C 0.44619 0.74947 0.48403 0.0
Co408 Co 0.73231 0.87919 0.73965 0.0
Co409 Co 0.80703 0.89719 0.74416 0.0
C410 C 0.76981 0.87872 0.78681 0.0
O411 O 0.74451 0.87643 0.7736 0.0
O412 O 0.79787 0.88574 0.77807 0.0
C413 C 0.68157 0.83482 0.75022 0.0
O414 O 0.70551 0.82088 0.76225 0.0
C415 C 0.87404 0.92114 0.75489 0.0
C416 C 0.89556 0.92351 0.71876 0.0
C417 C 0.90217 0.93009 0.74248 0.0
N418 N 0.85205 0.90916 0.73919 0.0
N419 N 0.86502 0.91106 0.71762 0.0
C420 C 0.86751 0.92494 0.781 0.0
H421 H 0.84591 0.94118 0.78358 0.0
H422 H 0.8613 0.90065 0.78868 0.0
H423 H 0.88907 0.93517 0.79055 0.0
C424 C 0.75814 0.83171 0.70489 0.0
N425 N 0.76264 0.85603 0.72077 0.0
N426 N 0.7943 0.86183 0.72325 0.0
C427 C 0.81094 0.84033 0.70936 0.0
C428 C 0.78852 0.82096 0.69718 0.0
C429 C 0.72529 0.81942 0.69694 0.0
H430 H 0.70765 0.84009 0.6957 0.0
H431 H 0.71593 0.80165 0.71028 0.0
H432 H 0.72699 0.80685 0.67941 0.0
O433 O 0.73021 0.92551 0.73063 0.0
O434 O 0.78236 0.93843 0.73722 0.0
H435 H 0.85778 0.84873 0.69332 0.0
H436 H 0.85371 0.8096 0.70738 0.0
C437 C 0.84742 0.836 0.70909 0.0
H438 H 0.85856 0.84589 0.72564 0.0
H439 H 0.85245 0.90535 0.70196 0.0
O440 O 0.68774 0.86015 0.73779 0.0
C441 C 0.75309 0.94664 0.73184 0.0
Co442 Co 0.87421 0.26834 0.25627 0.0
Co443 Co 0.90134 0.19638 0.25577 0.0
C444 C 0.87558 0.22635 0.21165 0.0
O445 O 0.86966 0.2523 0.22345 0.0
O446 O 0.88799 0.20097 0.2215 0.0
C447 C 0.82506 0.31535 0.24511 0.0
O448 O 0.81223 0.29074 0.23318 0.0
C449 C 0.92531 0.12789 0.24965 0.0
C450 C 0.9511 0.12193 0.28414 0.0
C451 C 0.94526 0.10659 0.26255 0.0
N452 N 0.91972 0.15461 0.26319 0.0
N453 N 0.93508 0.1507 0.28377 0.0
C454 C 0.91528 0.12516 0.22406 0.0
H455 H 0.92598 0.14593 0.2139 0.0
H456 H 0.88816 0.12721 0.22274 0.0
H457 H 0.92355 0.10176 0.21595 0.0
C458 C 0.83427 0.24161 0.29555 0.0
N459 N 0.85647 0.23788 0.27801 0.0
N460 N 0.86671 0.20725 0.27757 0.0
C461 C 0.85096 0.19037 0.29488 0.0
C462 C 0.83012 0.21172 0.30702 0.0
C463 C 0.81685 0.27323 0.3006 0.0
H464 H 0.83517 0.29285 0.30393 0.0
H465 H 0.80232 0.2803 0.28469 0.0
H466 H 0.79984 0.27136 0.31596 0.0
O467 O 0.9212 0.27688 0.26255 0.0
O468 O 0.93917 0.22571 0.2607 0.0
H469 H 0.87961 0.15389 0.31252 0.0
H470 H 0.83688 0.14385 0.31049 0.0
C471 C 0.85768 0.15521 0.30083 0.0
H472 H 0.86266 0.1411 0.2843 0.0
H473 H 0.93583 0.16844 0.29719 0.0
O474 O 0.85099 0.31072 0.2573 0.0
C475 C 0.94458 0.2562 0.26322 0.0
Co476 Co 0.27022 0.12031 0.74183 0.0
Co477 Co 0.19574 0.10074 0.74419 0.0
C478 C 0.22976 0.12463 0.78723 0.0
O479 O 0.25579 0.12723 0.77486 0.0
O480 O 0.20289 0.11481 0.77794 0.0
C481 C 0.32213 0.16572 0.74969 0.0
O482 O 0.29832 0.18446 0.75773 0.0
C483 C 0.12785 0.07825 0.75401 0.0
C484 C 0.10944 0.07001 0.71742 0.0
C485 C 0.10082 0.06721 0.74119 0.0
N486 N 0.15116 0.08776 0.73844 0.0
N487 N 0.14004 0.08235 0.71662 0.0
C488 C 0.1321 0.07869 0.78051 0.0
H489 H 0.15296 0.06253 0.78548 0.0
H490 H 0.13836 0.10394 0.78633 0.0
H491 H 0.10951 0.07055 0.78986 0.0
C492 C 0.24617 0.16273 0.70294 0.0
N493 N 0.241 0.14065 0.72036 0.0
N494 N 0.20929 0.13474 0.72228 0.0
C495 C 0.19315 0.15438 0.70673 0.0
C496 C 0.21603 0.17222 0.69367 0.0
C497 C 0.27939 0.1755 0.69623 0.0
H498 H 0.29757 0.15522 0.69645 0.0
H499 H 0.28708 0.19406 0.70956 0.0
H500 H 0.27937 0.18741 0.67847 0.0
O501 O 0.27327 0.07325 0.73593 0.0
O502 O 0.22092 0.05925 0.73917 0.0
H503 H 0.14856 0.14135 0.68896 0.0
H504 H 0.14863 0.18191 0.70094 0.0
C505 C 0.15657 0.15637 0.7044 0.0
H506 H 0.14444 0.14764 0.7209 0.0
H507 H 0.1539 0.08572 0.70117 0.0
O508 O 0.31531 0.13797 0.74066 0.0
C509 C 0.25092 0.05153 0.73606 0.0
Co510 Co 0.12866 0.7293 0.25539 0.0
Co511 Co 0.09672 0.79931 0.25728 0.0
C512 C 0.12441 0.77301 0.21219 0.0
O513 O 0.13306 0.74724 0.22324 0.0
O514 O 0.10956 0.79644 0.22276 0.0
C515 C 0.14639 0.66898 0.23804 0.0
O516 O 0.123 0.67779 0.22319 0.0
C517 C 0.0689 0.86604 0.2512 0.0
C518 C 0.04719 0.87336 0.28698 0.0
C519 C 0.04988 0.88754 0.26464 0.0
N520 N 0.07711 0.84042 0.26514 0.0
N521 N 0.06409 0.84507 0.28647 0.0
C522 C 0.07557 0.8674 0.22497 0.0
H523 H 0.0666 0.84451 0.21648 0.0
H524 H 0.10248 0.86874 0.22201 0.0
H525 H 0.06339 0.88865 0.21635 0.0
C526 C 0.16827 0.75667 0.29451 0.0
N527 N 0.14462 0.75954 0.27791 0.0
N528 N 0.13247 0.78947 0.2784 0.0
C529 C 0.14834 0.8067 0.29547 0.0
C530 C 0.17149 0.78645 0.30622 0.0
C531 C 0.18617 0.72538 0.29967 0.0
H532 H 0.20472 0.72113 0.2855 0.0
H533 H 0.19867 0.72616 0.31725 0.0
H534 H 0.16866 0.70454 0.29936 0.0
O535 O 0.08212 0.71814 0.26068 0.0
O536 O 0.06041 0.76798 0.26221 0.0
H537 H 0.12234 0.84416 0.31419 0.0
H538 H 0.16477 0.85359 0.30864 0.0
C539 C 0.14244 0.84213 0.30091 0.0
H540 H 0.13518 0.85547 0.28451 0.0
H541 H 0.06562 0.82818 0.30042 0.0
O542 O 0.1539 0.6881 0.2551 0.0
C543 C 0.05742 0.73697 0.26294 0.0
H544 H 0.21133 0.14356 0.94212 0.0
H545 H 0.31139 0.11388 0.92777 0.0
H546 H 0.20102 0.14849 0.89956 0.0
H547 H 0.30081 0.11849 0.88502 0.0
H548 H 0.27987 0.15482 0.8107 0.0
H549 H 0.28868 0.15823 0.85349 0.0
H550 H 0.19526 0.11089 0.86562 0.0
H551 H 0.18613 0.10776 0.82257 0.0
C552 C 0.23124 0.13824 0.9299 0.0
C553 C 0.26221 0.12813 0.93839 0.0
C554 C 0.2252 0.14092 0.90548 0.0
C555 C 0.24997 0.13365 0.88892 0.0
C556 C 0.28127 0.12456 0.89736 0.0
C557 C 0.28734 0.12184 0.92185 0.0
C558 C 0.26096 0.14543 0.82245 0.0
C559 C 0.23237 0.13072 0.8132 0.0
C560 C 0.26617 0.14723 0.84699 0.0
C561 C 0.24293 0.13443 0.86293 0.0
C562 C 0.21358 0.12113 0.85377 0.0
C563 C 0.20833 0.11932 0.82912 0.0
H564 H 0.07593 0.70958 0.07145 0.0
H565 H 0.17303 0.74963 0.06147 0.0
H566 H 0.07844 0.72408 0.11398 0.0
H567 H 0.17575 0.76372 0.1038 0.0
H568 H 0.17492 0.74737 0.18695 0.0
H569 H 0.1753 0.73405 0.14448 0.0
H570 H 0.08113 0.78139 0.13615 0.0
H571 H 0.08097 0.79525 0.17879 0.0
C572 C 0.09812 0.72057 0.07853 0.0
C573 C 0.12438 0.72833 0.06336 0.0
C574 C 0.09935 0.72936 0.10267 0.0
C575 C 0.1271 0.74546 0.11199 0.0
C576 C 0.15405 0.75144 0.09704 0.0
C577 C 0.15257 0.74324 0.0729 0.0
C578 C 0.15474 0.75575 0.1759 0.0
C579 C 0.12803 0.77255 0.18605 0.0
C580 C 0.15487 0.74793 0.15167 0.0
C581 C 0.128 0.75621 0.13721 0.0
C582 C 0.10191 0.77433 0.14708 0.0
C583 C 0.10208 0.78274 0.17131 0.0
H584 H 0.78443 0.85548 0.94106 0.0
H585 H 0.68767 0.89575 0.92846 0.0
H586 H 0.7939 0.85236 0.8984 0.0
H587 H 0.69751 0.89304 0.88547 0.0
H588 H 0.71524 0.85668 0.80991 0.0
H589 H 0.70531 0.8545 0.8526 0.0
H590 H 0.8035 0.89047 0.86566 0.0
H591 H 0.81375 0.89224 0.82274 0.0
C592 C 0.76506 0.86359 0.92919 0.0
C593 C 0.73528 0.87605 0.93822 0.0
C594 C 0.77066 0.86197 0.90469 0.0
C595 C 0.74666 0.87276 0.88855 0.0
C596 C 0.71644 0.88431 0.89748 0.0
C597 C 0.71078 0.88591 0.9221 0.0
C598 C 0.73489 0.86395 0.82184 0.0
C599 C 0.76532 0.87478 0.81287 0.0
C600 C 0.72904 0.86288 0.84633 0.0
C601 C 0.75346 0.87257 0.86252 0.0
C602 C 0.78424 0.88257 0.85363 0.0
C603 C 0.79013 0.88363 0.82905 0.0
H604 H 0.82366 0.25069 0.06151 0.0
H605 H 0.92001 0.29289 0.07092 0.0
H606 H 0.82144 0.23747 0.10405 0.0
H607 H 0.91812 0.27884 0.11352 0.0
H608 H 0.91678 0.20368 0.177 0.0
H609 H 0.91539 0.21868 0.13455 0.0
H610 H 0.82368 0.2696 0.14557 0.0
H611 H 0.82545 0.25537 0.18794 0.0
C612 C 0.84399 0.25786 0.07285 0.0
C613 C 0.87186 0.2731 0.06308 0.0
C614 C 0.84281 0.25008 0.09709 0.0
C615 C 0.86983 0.25667 0.11185 0.0
C616 C 0.89717 0.27317 0.10234 0.0
C617 C 0.89803 0.28167 0.07814 0.0
C618 C 0.89596 0.21733 0.17016 0.0
C619 C 0.87111 0.2282 0.18561 0.0
C620 C 0.89542 0.22634 0.14605 0.0
C621 C 0.86967 0.24569 0.137 0.0
C622 C 0.84385 0.25481 0.15217 0.0
C623 C 0.84477 0.24648 0.17631 0.0
H624 H 0.29253 0.41886 0.32187 0.0
H625 H 0.23974 0.32844 0.31028 0.0
H626 H 0.27724 0.41726 0.36428 0.0
H627 H 0.22518 0.32648 0.35257 0.0
H628 H 0.24571 0.32433 0.43636 0.0
H629 H 0.25817 0.32303 0.39369 0.0
H630 H 0.21716 0.42006 0.38582 0.0
H631 H 0.20384 0.42103 0.42857 0.0
C632 C 0.27845 0.39827 0.32853 0.0
C633 C 0.26743 0.37369 0.31294 0.0
C634 C 0.26931 0.3976 0.35262 0.0
C635 C 0.24968 0.37197 0.36147 0.0
C636 C 0.24019 0.34654 0.34611 0.0
C637 C 0.24866 0.34759 0.32201 0.0
C638 C 0.23845 0.34494 0.42534 0.0
C639 C 0.22353 0.37264 0.4356 0.0
C640 C 0.24579 0.34428 0.40104 0.0
C641 C 0.23908 0.37165 0.38669 0.0
C642 C 0.22289 0.39884 0.39669 0.0
C643 C 0.21482 0.39919 0.42097 0.0
H644 H 0.39407 0.68572 0.67948 0.0
H645 H 0.34691 0.77937 0.69143 0.0
H646 H 0.39104 0.69508 0.63638 0.0
H647 H 0.34389 0.78845 0.64872 0.0
H648 H 0.38728 0.81064 0.57389 0.0
H649 H 0.38445 0.8001 0.6168 0.0
H650 H 0.35129 0.70131 0.60296 0.0
H651 H 0.35411 0.71159 0.56035 0.0
C652 C 0.38259 0.70796 0.67297 0.0
C653 C 0.37101 0.73185 0.68895 0.0
C654 C 0.38088 0.71336 0.6483 0.0
C655 C 0.36763 0.74276 0.63921 0.0
C656 C 0.35484 0.76591 0.65518 0.0
C657 C 0.35641 0.7605 0.6797 0.0
C658 C 0.37901 0.78684 0.58001 0.0
C659 C 0.37108 0.762 0.56363 0.0
C660 C 0.37737 0.78077 0.60458 0.0
C661 C 0.3679 0.74974 0.61322 0.0
C662 C 0.35918 0.72525 0.59686 0.0
C663 C 0.36063 0.73132 0.5724 0.0
H664 H 0.81368 0.59867 0.42872 0.0
H665 H 0.7286 0.66103 0.43756 0.0
H666 H 0.80554 0.5999 0.38542 0.0
H667 H 0.72062 0.66211 0.39463 0.0
H668 H 0.6914 0.61523 0.32222 0.0
H669 H 0.70267 0.62001 0.36497 0.0
H670 H 0.80527 0.63702 0.34995 0.0
H671 H 0.7943 0.63227 0.30752 0.0
C672 C 0.79376 0.61319 0.42145 0.0
C673 C 0.77163 0.62943 0.43662 0.0
C674 C 0.789 0.6138 0.39668 0.0
C675 C 0.76202 0.6306 0.38672 0.0
C676 C 0.74112 0.64834 0.40182 0.0
C677 C 0.74593 0.64788 0.42643 0.0
C678 C 0.71628 0.62025 0.32803 0.0
C679 C 0.74187 0.62328 0.31139 0.0
C680 C 0.72275 0.62307 0.3525 0.0
C681 C 0.75493 0.62877 0.36078 0.0
C682 C 0.78035 0.63222 0.34413 0.0
C683 C 0.7739 0.62966 0.31977 0.0
H684 H 0.60101 0.28944 0.55733 0.0
H685 H 0.63213 0.18934 0.56841 0.0
H686 H 0.60239 0.29922 0.59999 0.0
H687 H 0.63574 0.19959 0.6112 0.0
H688 H 0.60259 0.2142 0.68673 0.0
H689 H 0.60289 0.20631 0.64408 0.0
H690 H 0.63302 0.30724 0.63442 0.0
H691 H 0.63059 0.31556 0.67771 0.0
C692 C 0.60869 0.26961 0.56894 0.0
C693 C 0.6163 0.23852 0.55956 0.0
C694 C 0.60975 0.27534 0.59346 0.0
C695 C 0.61908 0.25027 0.60927 0.0
C696 C 0.62762 0.21935 0.59973 0.0
C697 C 0.6258 0.21342 0.57518 0.0
C698 C 0.6093 0.23479 0.67552 0.0
C699 C 0.61679 0.26549 0.68554 0.0
C700 C 0.6098 0.23014 0.65095 0.0
C701 C 0.61853 0.25588 0.63558 0.0
C702 C 0.62586 0.28684 0.64562 0.0
C703 C 0.62462 0.29169 0.6704 0.0
H704 H 0.28446 -0.001 0.99416 0.0
H705 H 0.20364 0.01993 0.04178 0.0
H706 H 0.26787 0.94127 0.9928 0.0
H707 H 0.18779 0.962 0.04089 0.0
H708 H 0.1968 0.84724 0.04879 0.0
H709 H 0.21964 0.90259 0.05209 0.0
H710 H 0.20698 0.91644 0.97634 0.0
H711 H 0.18321 0.86135 0.973 0.0
C712 C 0.2636 0.99114 0.00471 0.0
C713 C 0.24525 0.01389 0.01805 0.0
C714 C 0.25408 0.95825 0.0038 0.0
C715 C 0.22662 0.94751 0.0167 0.0
C716 C 0.20915 0.96987 0.03088 0.0
C717 C 0.21816 0.0029 0.03134 0.0
C718 C 0.19916 0.86198 0.0328 0.0
C719 C 0.18815 0.85015 0.01064 0.0
C720 C 0.21211 0.89357 0.03474 0.0
C721 C 0.21501 0.91345 0.01446 0.0
C722 C 0.20508 0.9013 0.99216 0.0
C723 C 0.19139 0.86998 0.9903 0.0
H724 H 0.99884 0.72459 0.97979 0.0
H725 H 0.03369 0.8244 0.9861 0.0
H726 H 0.94257 0.74374 0.98265 0.0
H727 H 0.97695 0.84369 0.98834 0.0
H728 H 0.8755 0.85883 0.02331 0.0
H729 H 0.93223 0.84143 0.01721 0.0
H730 H 0.90026 0.77394 0.96246 0.0
H731 H 0.8436 0.79068 0.96896 0.0
C732 C 0.99451 0.75072 0.98139 0.0
C733 C 0.02086 0.77294 0.98288 0.0
C734 C 0.96215 0.76172 0.98292 0.0
C735 C 0.95524 0.79522 0.98591 0.0
C736 C 0.9815 0.81764 0.98646 0.0
C737 C 0.01399 0.80662 0.98493 0.0
C738 C 0.88059 0.84018 0.01005 0.0
C739 C 0.85502 0.826 0.99673 0.0
C740 C 0.91314 0.83045 0.00638 0.0
C741 C 0.92081 0.80639 0.98927 0.0
C742 C 0.89518 0.79226 0.97597 0.0
C743 C 0.86268 0.80189 0.97969 0.0
H744 H 0.80991 0.97443 0.0279 0.0
H745 H 0.70857 0.00235 0.01649 0.0
H746 H 0.82606 0.0318 0.02607 0.0
H747 H 0.72502 0.05987 0.01447 0.0
H748 H 0.76945 0.16293 0.03149 0.0
H749 H 0.75015 0.10673 0.03775 0.0
H750 H 0.82732 0.07072 0.99182 0.0
H751 H 0.84669 0.12644 0.98565 0.0
C752 C 0.79099 0.99279 0.0253 0.0
C753 C 0.75799 0.98373 0.02203 0.0
C754 C 0.80031 0.02564 0.02411 0.0
C755 C 0.77686 0.05018 0.0197 0.0
C756 C 0.7436 0.04143 0.01788 0.0
C757 C 0.73423 0.00847 0.01899 0.0
C758 C 0.78214 0.14301 0.02263 0.0
C759 C 0.80971 0.14911 0.00819 0.0
C760 C 0.77107 0.1109 0.02621 0.0
C761 C 0.78755 0.0844 0.01555 0.0
C762 C 0.81457 0.09064 0.00067 0.0
C763 C 0.82549 0.12261 0.99699 0.0
H764 H 0.12452 0.12316 0.00073 0.0
H765 H 0.1542 0.22459 0.00511 0.0
H766 H 0.0682 0.14 0.99316 0.0
H767 H 0.09748 0.24173 0.99913 0.0
H768 H 0.99924 0.26631 0.96809 0.0
H769 H 0.05561 0.2469 0.97152 0.0
H770 H 0.02133 0.16144 0.00994 0.0
H771 H 0.96502 0.17995 0.00504 0.0
C772 C 0.11881 0.14912 0.00051 0.0
C773 C 0.14366 0.1726 0.00354 0.0
C774 C 0.08644 0.15884 0.99624 0.0
C775 C 0.07801 0.19232 0.99546 0.0
C776 C 0.10298 0.21576 0.99899 0.0
C777 C 0.13549 0.20599 0.0027 0.0
C778 C 0.00384 0.2431 0.97689 0.0
C779 C 0.97778 0.2246 0.98624 0.0
C780 C 0.0362 0.23211 0.97915 0.0
C781 C 0.04333 0.20274 0.99134 0.0
C782 C 0.017 0.18389 0.00013 0.0
C783 C 0.9846 0.19453 0.99738 0.0
H784 H 0.19509 0.64255 0.2657 0.0
H785 H 0.13581 0.62367 0.20316 0.0
H786 H 0.22093 0.58885 0.26123 0.0
H787 H 0.16199 0.57037 0.19854 0.0
H788 H 0.18199 0.46298 0.2212 0.0
H789 H 0.16043 0.51858 0.22069 0.0
H790 H 0.25755 0.5566 0.23483 0.0
H791 H 0.27922 0.5008 0.2357 0.0
C792 C 0.18778 0.62707 0.25091 0.0
C793 C 0.16322 0.6372 0.23491 0.0
C794 C 0.20275 0.59645 0.24824 0.0
C795 C 0.1934 0.57541 0.22956 0.0
C796 C 0.16939 0.5859 0.21327 0.0
C797 C 0.15447 0.61648 0.21591 0.0
C798 C 0.19887 0.48316 0.22393 0.0
C799 C 0.23228 0.47742 0.22868 0.0
C800 C 0.18652 0.51506 0.22351 0.0
C801 C 0.20728 0.54191 0.22787 0.0
C802 C 0.24091 0.53631 0.23174 0.0
C803 C 0.25333 0.50437 0.23206 0.0
H804 H 0.62618 0.8588 0.7288 0.0
H805 H 0.65997 0.78349 0.77724 0.0
H806 H 0.56979 0.84015 0.73424 0.0
H807 H 0.60354 0.76527 0.78299 0.0
H808 H 0.47029 0.82061 0.76793 0.0
H809 H 0.52713 0.83907 0.76509 0.0
H810 H 0.55964 0.73834 0.76092 0.0
H811 H 0.50305 0.71981 0.76423 0.0
C812 C 0.62159 0.83826 0.74059 0.0
C813 C 0.64755 0.8226 0.75257 0.0
C814 C 0.58925 0.82777 0.74387 0.0
C815 C 0.58219 0.80138 0.75917 0.0
C816 C 0.60821 0.7855 0.77093 0.0
C817 C 0.64054 0.796 0.76767 0.0
C818 C 0.48958 0.80239 0.7667 0.0
C819 C 0.48207 0.76874 0.76621 0.0
C820 C 0.52212 0.81298 0.76486 0.0
C821 C 0.54783 0.79017 0.76254 0.0
C822 C 0.54042 0.75653 0.76285 0.0
C823 C 0.50792 0.74593 0.76466 0.0
H824 H 0.84954 0.37197 0.26377 0.0
H825 H 0.76941 0.33413 0.22123 0.0
H826 H 0.8294 0.42748 0.25763 0.0
H827 H 0.7493 0.39009 0.21506 0.0
H828 H 0.70953 0.49559 0.23681 0.0
H829 H 0.72586 0.43796 0.23919 0.0
H830 H 0.82567 0.46476 0.22202 0.0
H831 H 0.80969 0.52211 0.21972 0.0
C832 C 0.82752 0.37546 0.25321 0.0
C833 C 0.81117 0.34866 0.24287 0.0
C834 C 0.81615 0.40728 0.24954 0.0
C835 C 0.78809 0.41304 0.23558 0.0
C836 C 0.77103 0.38626 0.22587 0.0
C837 C 0.78257 0.35431 0.22939 0.0
C838 C 0.73484 0.48912 0.23314 0.0
C839 C 0.7584 0.51352 0.22841 0.0
C840 C 0.74413 0.45614 0.23448 0.0
C841 C 0.77712 0.44709 0.23122 0.0
C842 C 0.8002 0.47121 0.22511 0.0
C843 C 0.79096 0.50405 0.22366 0.0
H844 H 0.37448 0.12544 0.75627 0.0
H845 H 0.34739 0.22755 0.75148 0.0
H846 H 0.43104 0.14081 0.76436 0.0
H847 H 0.40446 0.24327 0.75777 0.0
H848 H 0.50395 0.26646 0.78637 0.0
H849 H 0.44705 0.24818 0.78446 0.0
H850 H 0.4783 0.16018 0.74762 0.0
H851 H 0.53507 0.17754 0.75121 0.0
C852 C 0.38085 0.15124 0.75653 0.0
C853 C 0.35668 0.17534 0.75315 0.0
C854 C 0.41336 0.16013 0.76108 0.0
C855 C 0.42268 0.19337 0.76172 0.0
C856 C 0.39832 0.21744 0.75802 0.0
C857 C 0.36561 0.20851 0.75411 0.0
C858 C 0.49854 0.24288 0.77836 0.0
C859 C 0.52385 0.22336 0.76902 0.0
C860 C 0.46588 0.23255 0.77694 0.0
C861 C 0.45771 0.20286 0.76552 0.0
C862 C 0.48336 0.18291 0.75689 0.0
C863 C 0.51606 0.19288 0.75888 0.0
H864 H 0.76576 0.49775 0.52927 0.0
H865 H 0.67969 0.53158 0.49158 0.0
H866 H 0.74635 0.44142 0.52605 0.0
H867 H 0.66128 0.47536 0.48678 0.0
H868 H 0.62179 0.37327 0.49693 0.0
H869 H 0.63923 0.42943 0.50392 0.0
H870 H 0.74085 0.39865 0.49946 0.0
H871 H 0.72302 0.34207 0.4942 0.0
C872 C 0.74267 0.49305 0.52028 0.0
C873 C 0.72416 0.51898 0.51076 0.0
C874 C 0.73167 0.46072 0.51815 0.0
C875 C 0.70232 0.45351 0.5059 0.0
C876 C 0.68364 0.47972 0.49672 0.0
C877 C 0.69425 0.51207 0.49938 0.0
C878 C 0.64785 0.37863 0.49738 0.0
C879 C 0.6711 0.35343 0.49497 0.0
C880 C 0.65793 0.41091 0.50129 0.0
C881 C 0.69156 0.4189 0.50226 0.0
C882 C 0.71477 0.39354 0.49941 0.0
C883 C 0.70462 0.3611 0.49612 0.0
H884 H 0.49424 0.20529 0.48289 0.0
H885 H 0.52104 0.30494 0.46494 0.0
H886 H 0.43656 0.22176 0.48513 0.0
H887 H 0.46362 0.32107 0.46711 0.0
H888 H 0.3716 0.34566 0.50989 0.0
H889 H 0.42692 0.32536 0.50304 0.0
H890 H 0.38812 0.24516 0.46135 0.0
H891 H 0.33228 0.2655 0.46821 0.0
C892 C 0.48782 0.23051 0.47896 0.0
C893 C 0.51234 0.2539 0.47408 0.0
C894 C 0.4548 0.23988 0.48022 0.0
C895 C 0.4458 0.27279 0.47674 0.0
C896 C 0.47002 0.29566 0.47037 0.0
C897 C 0.5029 0.28633 0.469 0.0
C898 C 0.37472 0.32361 0.49935 0.0
C899 C 0.34753 0.3073 0.48948 0.0
C900 C 0.40646 0.31214 0.49527 0.0
C901 C 0.41179 0.28398 0.48136 0.0
C902 C 0.38464 0.26697 0.4721 0.0
C903 C 0.35275 0.27864 0.47602 0.0
H904 H 0.26997 0.65284 0.4994 0.0
H905 H 0.37214 0.62452 0.50016 0.0
H906 H 0.25401 0.59573 0.50469 0.0
H907 H 0.35656 0.5678 0.50703 0.0
H908 H 0.31707 0.46482 0.49348 0.0
H909 H 0.33478 0.52148 0.48961 0.0
H910 H 0.25124 0.5528 0.53161 0.0
H911 H 0.23257 0.49619 0.53401 0.0
C912 C 0.28898 0.63435 0.50088 0.0
C913 C 0.32222 0.643 0.4992 0.0
C914 C 0.27992 0.60162 0.50419 0.0
C915 C 0.30396 0.57692 0.50648 0.0
C916 C 0.33728 0.58585 0.50491 0.0
C917 C 0.34627 0.61844 0.50105 0.0
C918 C 0.30281 0.48383 0.50216 0.0
C919 C 0.27342 0.47619 0.51397 0.0
C920 C 0.31296 0.51641 0.5 0.0
C921 C 0.2943 0.54201 0.51007 0.0
C922 C 0.26577 0.53398 0.52299 0.0
C923 C 0.25525 0.50148 0.52466 0.0
H924 H 0.4714 0.68891 0.49169 0.0
H925 H 0.49967 0.7878 0.47315 0.0
H926 H 0.52833 0.67287 0.4933 0.0
H927 H 0.5574 0.77117 0.47321 0.0
H928 H 0.65758 0.73791 0.50398 0.0
H929 H 0.60105 0.75692 0.4984 0.0
H930 H 0.57435 0.66085 0.47178 0.0
H931 H 0.62982 0.64167 0.47921 0.0
C932 C 0.48985 0.7071 0.48733 0.0
C933 C 0.48101 0.73962 0.48222 0.0
C934 C 0.52271 0.69782 0.4881 0.0
C935 C 0.54776 0.72059 0.48319 0.0
C936 C 0.53888 0.75304 0.47743 0.0
C937 C 0.5058 0.76254 0.47717 0.0
C938 C 0.63939 0.72105 0.49699 0.0
C939 C 0.64764 0.68825 0.49246 0.0
C940 C 0.6071 0.73193 0.49356 0.0
C941 C 0.5828 0.71032 0.48494 0.0
C942 C 0.59191 0.67795 0.47924 0.0
C943 C 0.62377 0.66692 0.48335 0.0
H944 H 0.70116 0.97355 0.70803 0.0
H945 H 0.78575 0.9988 0.75089 0.0
H946 H 0.6839 0.03105 0.70822 0.0
H947 H 0.76793 0.05613 0.75146 0.0
H948 H 0.68869 0.13767 0.77358 0.0
H949 H 0.7128 0.08272 0.77045 0.0
H950 H 0.70848 0.0889 0.69366 0.0
H951 H 0.68507 0.14395 0.69665 0.0
C952 C 0.71623 0.99143 0.71724 0.0
C953 C 0.74478 0.98172 0.72943 0.0
C954 C 0.70638 0.02424 0.71732 0.0
C955 C 0.72455 0.04777 0.72998 0.0
C956 C 0.7535 0.0383 0.74169 0.0
C957 C 0.76375 0.0056 0.7412 0.0
C958 C 0.69316 0.12737 0.75606 0.0
C959 C 0.68495 0.145 0.73537 0.0
C960 C 0.70708 0.09611 0.75428 0.0
C961 C 0.71238 0.08178 0.73181 0.0
C962 C 0.70451 0.0995 0.71116 0.0
C963 C 0.69124 0.13098 0.71291 0.0
H964 H 0.12732 0.34949 0.2274 0.0
H965 H 0.15593 0.28209 0.28321 0.0
H966 H 0.07029 0.33261 0.23201 0.0
H967 H 0.09875 0.26566 0.28808 0.0
H968 H 0.96777 0.31935 0.26213 0.0
H969 H 0.02509 0.3369 0.26085 0.0
H970 H 0.05643 0.23592 0.26628 0.0
H971 H 0.99947 0.21841 0.26805 0.0
C972 C 0.12146 0.33104 0.24064 0.0
C973 C 0.14617 0.31708 0.25492 0.0
C974 C 0.08873 0.32163 0.24344 0.0
C975 C 0.07999 0.29802 0.26055 0.0
C976 C 0.10475 0.28376 0.27463 0.0
C977 C 0.13751 0.29319 0.27184 0.0
C978 C 0.9869 0.30095 0.26338 0.0
C979 C 0.97902 0.26748 0.26505 0.0
C980 C 0.01971 0.31098 0.26244 0.0
C981 C 0.04525 0.28775 0.26324 0.0
C982 C 0.03734 0.25443 0.2658 0.0
C983 C 0.00463 0.24441 0.26669 0.0
H984 H 0.35146 0.87383 0.77108 0.0
H985 H 0.27431 0.83801 0.7249 0.0
H986 H 0.33121 0.92955 0.76603 0.0
H987 H 0.25422 0.89406 0.7197 0.0
H988 H 0.21123 0.99736 0.73971 0.0
H989 H 0.2285 0.9401 0.74278 0.0
H990 H 0.32947 0.96942 0.73274 0.0
H991 H 0.3125 0.02644 0.72991 0.0
C992 C 0.33009 0.87781 0.75993 0.0
C993 C 0.3146 0.85151 0.74829 0.0
C994 C 0.31864 0.90977 0.7569 0.0
C995 C 0.29139 0.91618 0.74222 0.0
C996 C 0.27523 0.88982 0.73115 0.0
C997 C 0.2868 0.85776 0.7341 0.0
C998 C 0.23707 0.99155 0.73786 0.0
C999 C 0.26051 0.01655 0.7348 0.0
C1000 C 0.24692 0.95876 0.73959 0.0
C1001 C 0.28037 0.95041 0.73837 0.0
C1002 C 0.30358 0.97523 0.73426 0.0
C1003 C 0.29379 0.0079 0.73246 0.0
H1004 H 0.03672 0.67949 0.24344 0.0
H1005 H 0.00296 0.76341 0.28352 0.0
H1006 H 0.98039 0.66081 0.23891 0.0
H1007 H 0.94666 0.74376 0.28047 0.0
H1008 H 0.84771 0.72351 0.24682 0.0
H1009 H 0.9045 0.74031 0.25286 0.0
H1010 H 0.93393 0.63834 0.25578 0.0
H1011 H 0.87751 0.62191 0.24816 0.0
C1012 C 0.01725 0.69342 0.25188 0.0
C1013 C 0.02411 0.72293 0.26374 0.0
C1014 C 0.98487 0.6827 0.24934 0.0
C1015 C 0.95869 0.70091 0.25909 0.0
C1016 C 0.96595 0.72956 0.27209 0.0
C1017 C 0.99826 0.74065 0.27413 0.0
C1018 C 0.86646 0.7048 0.24858 0.0
C1019 C 0.85833 0.67149 0.24686 0.0
C1020 C 0.899 0.71435 0.25233 0.0
C1021 C 0.92401 0.69071 0.25502 0.0
C1022 C 0.91562 0.65731 0.25337 0.0
C1023 C 0.88322 0.64784 0.24907 0.0
H1024 H 0.40343 0.01262 0.98114 0.0
H1025 H 0.46425 0.08622 0.01435 0.0
H1026 H 0.45202 0.97799 0.97483 0.0
H1027 H 0.51283 0.05208 0.00763 0.0
H1028 H 0.59714 0.98865 0.98196 0.0
H1029 H 0.54869 0.02305 0.97452 0.0
H1030 H 0.48748 0.95088 0.00908 0.0
H1031 H 0.53593 0.91698 0.01691 0.0
C1032 C 0.42737 0.02186 0.98624 0.0
C1033 C 0.43033 0.05214 0.99798 0.0
C1034 C 0.45505 0.00201 0.9828 0.0
C1035 C 0.48612 0.01244 0.99069 0.0
C1036 C 0.48925 0.04365 0.00109 0.0
C1037 C 0.46153 0.06313 0.00498 0.0
C1038 C 0.57315 0.97977 0.98725 0.0
C1039 C 0.57004 0.9501 0.99976 0.0
C1040 C 0.54555 -0.00052 0.98315 0.0
C1041 C 0.51439 0.98952 0.99114 0.0
C1042 C 0.51113 0.95892 0.00243 0.0
C1043 C 0.53878 0.9396 0.00697 0.0
H1044 H 0.05842 0.55735 0.94868 0.0
H1045 H 0.03307 0.57953 0.0217 0.0
H1046 H 0.03543 0.50283 0.95304 0.0
H1047 H 0.01068 0.52407 0.02641 0.0
H1048 H 0.93272 0.44086 0.0079 0.0
H1049 H 0.96267 0.49285 0.01144 0.0
H1050 H 0.04381 0.45086 0.97221 0.0
H1051 H 0.01358 0.39966 0.96819 0.0
C1052 C 0.04849 0.55028 0.96586 0.0
C1053 C 0.04796 0.57258 0.98492 0.0
C1054 C 0.03549 0.51889 0.96844 0.0
C1055 C 0.02142 0.50891 0.99016 0.0
C1056 C 0.02133 0.53103 0.00945 0.0
C1057 C 0.03457 0.5626 0.00686 0.0
C1058 C 0.95727 0.44267 0.00057 0.0
C1059 C 0.97083 0.41644 0.98767 0.0
C1060 C 0.97445 0.47236 0.0026 0.0
C1061 C 0.00546 0.47616 0.99179 0.0
C1062 C 0.01971 0.44903 0.98027 0.0
C1063 C 0.00247 0.41966 0.97805 0.0
H1064 H 0.54061 0.59826 0.23423 0.0
H1065 H 0.58953 0.5147 0.26513 0.0
H1066 H 0.48777 0.57076 0.2385 0.0
H1067 H 0.53683 0.48608 0.26832 0.0
H1068 H 0.4335 0.44398 0.27538 0.0
H1069 H 0.48141 0.47878 0.28312 0.0
H1070 H 0.46572 0.52761 0.21562 0.0
H1071 H 0.41762 0.49436 0.20858 0.0
C1072 C 0.53981 0.57423 0.24247 0.0
C1073 C 0.56888 0.55856 0.24943 0.0
C1074 C 0.50966 0.55827 0.24467 0.0
C1075 C 0.50806 0.52582 0.25319 0.0
C1076 C 0.53704 0.51106 0.26179 0.0
C1077 C 0.56724 0.5274 0.25999 0.0
C1078 C 0.43983 0.46279 0.26257 0.0
C1079 C 0.42143 0.46668 0.24152 0.0
C1080 C 0.46752 0.48248 0.26686 0.0
C1081 C 0.47733 0.50634 0.25014 0.0
C1082 C 0.4586 0.5102 0.22925 0.0
C1083 C 0.43112 0.49073 0.22503 0.0
H1084 H 0.48836 0.40489 0.76797 0.0
H1085 H 0.58253 0.44238 0.74567 0.0
H1086 H 0.4638 0.45884 0.76191 0.0
H1087 H 0.55791 0.49666 0.73942 0.0
H1088 H 0.51049 0.59011 0.77545 0.0
H1089 H 0.53628 0.53685 0.76929 0.0
H1090 H 0.44946 0.50301 0.73245 0.0
H1091 H 0.42351 0.55668 0.73879 0.0
C1092 C 0.50362 0.4246 0.76126 0.0
C1093 C 0.53725 0.41951 0.75713 0.0
C1094 C 0.48952 0.45543 0.75761 0.0
C1095 C 0.50889 0.48202 0.75015 0.0
C1096 C 0.54238 0.47662 0.7452 0.0
C1097 C 0.55642 0.44557 0.74858 0.0
C1098 C 0.49716 0.57149 0.76563 0.0
C1099 C 0.46507 0.5775 0.75752 0.0
C1100 C 0.51203 0.54106 0.76193 0.0
C1101 C 0.49493 0.51572 0.75036 0.0
C1102 C 0.46321 0.52209 0.74146 0.0
C1103 C 0.44845 0.55281 0.74491 0.0
H1104 H 0.93905 0.55585 0.55133 0.0
H1105 H 0.91954 0.53586 0.47705 0.0
H1106 H 0.99407 0.53366 0.54705 0.0
H1107 H 0.97539 0.51399 0.47251 0.0
H1108 H 0.05764 0.43423 0.49074 0.0
H1109 H 0.00575 0.46445 0.48709 0.0
H1110 H 0.04687 0.54379 0.52857 0.0
H1111 H 0.09808 0.51341 0.53254 0.0
C1112 C 0.94684 0.54728 0.53393 0.0
C1113 C 0.92517 0.54794 0.51448 0.0
C1114 C 0.97847 0.53473 0.53141 0.0
C1115 C 0.98924 0.52222 0.50938 0.0
C1116 C 0.96778 0.52343 0.48971 0.0
C1117 C 0.936 0.53633 0.49221 0.0
C1118 C 0.05572 0.45849 0.49851 0.0
C1119 C 0.08172 0.47148 0.51199 0.0
C1120 C 0.02608 0.47581 0.49642 0.0
C1121 C 0.02207 0.50635 0.5078 0.0
C1122 C 0.04893 0.52006 0.51999 0.0
C1123 C 0.07828 0.50272 0.52221 0.0
H1124 H 0.5104 0.09514 0.51787 0.0
H1125 H 0.58312 0.03391 0.48395 0.0
H1126 H 0.47611 0.04672 0.52526 0.0
H1127 H 0.54924 0.98551 0.49166 0.0
H1128 H 0.48706 0.90153 0.51904 0.0
H1129 H 0.52173 0.95005 0.52531 0.0
H1130 H 0.44747 0.01073 0.49248 0.0
H1131 H 0.41331 0.96223 0.48583 0.0
C1132 C 0.51955 0.07117 0.5128 0.0
C1133 C 0.5495 0.06806 0.50059 0.0
C1134 C 0.49986 0.04357 0.51687 0.0
C1135 C 0.51009 0.0124 0.5091 0.0
C1136 C 0.54096 0.00915 0.49813 0.0
C1137 C 0.56028 0.03679 0.49366 0.0
C1138 C 0.47781 0.92543 0.51391 0.0
C1139 C 0.44746 0.92837 0.5022 0.0
C1140 C 0.49768 0.95308 0.51733 0.0
C1141 C 0.48721 0.98411 0.50944 0.0
C1142 C 0.45596 0.9872 0.49903 0.0
C1143 C 0.43646 0.95951 0.49517 0.0
H1144 H 0.96589 0.91341 0.73617 0.0
H1145 H 0.90365 0.9886 0.76595 0.0
H1146 H 0.01412 0.94807 0.74286 0.0
H1147 H 0.95188 0.02373 0.77219 0.0
H1148 H 0.03785 0.08241 0.73045 0.0
H1149 H 0.98903 0.0489 0.73782 0.0
H1150 H 0.04827 0.97895 0.77645 0.0
H1151 H 0.09707 0.01302 0.7695 0.0
C1152 C 0.96275 0.93703 0.74475 0.0
C1153 C 0.93129 0.94827 0.75083 0.0
C1154 C 0.99027 0.9568 0.74864 0.0
C1155 C 0.98667 0.98852 0.75809 0.0
C1156 C 0.95527 -0.00069 0.76498 0.0
C1157 C 0.9278 0.97919 0.76157 0.0
C1158 C 0.04015 0.06041 0.74117 0.0
C1159 C 0.07097 0.05041 0.74967 0.0
C1160 C 0.01228 0.0413 0.74544 0.0
C1161 C 0.01493 0.0114 0.75775 0.0
C1162 C 0.04561 0.00198 0.76701 0.0
C1163 C 0.0734 0.02151 0.76318 0.0
H1164 H 0.91582 0.05267 0.24281 0.0
H1165 H 0.00918 0.09014 0.26695 0.0
H1166 H 0.94068 0.99838 0.23698 0.0
H1167 H 0.03395 0.03628 0.26131 0.0
H1168 H 0.07541 0.93912 0.23951 0.0
H1169 H 0.0493 0.9924 0.23226 0.0
H1170 H 0.96134 0.95831 0.26747 0.0
H1171 H 0.98728 0.90523 0.2744 0.0
C1172 C 0.94182 0.04946 0.2462 0.0
C1173 C 0.96069 0.07546 0.25521 0.0
C1174 C 0.95598 0.01844 0.24306 0.0
C1175 C 0.98927 0.0131 0.24869 0.0
C1176 C 0.0084 0.03967 0.2565 0.0
C1177 C 0.99418 0.07044 0.2599 0.0
C1178 C 0.05019 0.94281 0.24504 0.0
C1179 C 0.03323 0.91811 0.25736 0.0
C1180 C 0.03534 0.97331 0.24108 0.0
C1181 C 0.00325 0.97949 0.24926 0.0
C1182 C 0.98588 0.95418 0.26063 0.0
C1183 C 0.00082 0.9239 0.26479 0.0
H1184 H 0.27923 0.25706 0.19508 0.0
H1185 H 0.31596 0.33773 0.15312 0.0
H1186 H 0.28426 0.22062 0.16043 0.0
H1187 H 0.32031 0.30152 0.11824 0.0
H1188 H 0.26394 0.23459 0.06081 0.0
H1189 H 0.27127 0.27146 0.09498 0.0
H1190 H 0.33014 0.19795 0.13029 0.0
H1191 H 0.3233 0.16135 0.09584 0.0
C1192 C 0.28895 0.26672 0.17852 0.0
C1193 C 0.29732 0.29997 0.17661 0.0
C1194 C 0.29187 0.24598 0.15878 0.0
C1195 C 0.30258 0.25838 0.13673 0.0
C1196 C 0.31194 0.29146 0.13506 0.0
C1197 C 0.30965 0.31204 0.15496 0.0
C1198 C 0.27882 0.22663 0.07576 0.0
C1199 C 0.29309 0.19532 0.07584 0.0
C1200 C 0.28316 0.24768 0.09518 0.0
C1201 C 0.30129 0.23746 0.11518 0.0
C1202 C 0.31608 0.20633 0.11505 0.0
C1203 C 0.3123 0.18554 0.09539 0.0
H1204 H 0.33699 0.74106 0.85325 0.0
H1205 H 0.28102 0.66946 0.81391 0.0
H1206 H 0.29964 0.73584 0.88681 0.0
H1207 H 0.24456 0.66216 0.84819 0.0
H1208 H 0.16176 0.69436 0.89996 0.0
H1209 H 0.20188 0.68954 0.86774 0.0
H1210 H 0.28041 0.7053 0.91856 0.0
H1211 H 0.23982 0.71212 0.95022 0.0
C1212 C 0.31696 0.72363 0.85208 0.0
C1213 C 0.31175 0.70576 0.83106 0.0
C1214 C 0.29567 0.72029 0.87142 0.0
C1215 C 0.26887 0.69851 0.8704 0.0
C1216 C 0.26456 0.67954 0.84959 0.0
C1217 C 0.2857 0.6833 0.83005 0.0
C1218 C 0.18769 0.69632 0.90411 0.0
C1219 C 0.19792 0.70381 0.92734 0.0
C1220 C 0.21076 0.69339 0.88573 0.0
C1221 C 0.24457 0.69741 0.89036 0.0
C1222 C 0.25465 0.70294 0.91408 0.0
C1223 C 0.23152 0.70651 0.93231 0.0
H1224 H 0.68299 0.83753 0.0972 0.0
H1225 H 0.72958 0.7603 0.05693 0.0
H1226 H 0.67855 0.80081 0.13179 0.0
H1227 H 0.72438 0.72327 0.09126 0.0
H1228 H 0.68124 0.66115 0.15363 0.0
H1229 H 0.67544 0.69789 0.11914 0.0
H1230 H 0.72888 0.7731 0.15695 0.0
H1231 H 0.73539 0.73605 0.19112 0.0
C1232 C 0.69156 0.81245 0.09565 0.0
C1233 C 0.70658 0.80153 0.07458 0.0
C1234 C 0.68917 0.7916 0.11538 0.0
C1235 C 0.70109 0.75932 0.11407 0.0
C1236 C 0.71477 0.748 0.09259 0.0
C1237 C 0.71782 0.76908 0.07305 0.0
C1238 C 0.69122 0.68574 0.15461 0.0
C1239 C 0.7087 0.69598 0.17487 0.0
C1240 C 0.68806 0.70659 0.13493 0.0
C1241 C 0.70167 0.73823 0.13551 0.0
C1242 C 0.71795 0.7489 0.1562 0.0
C1243 C 0.72175 0.72779 0.17564 0.0
H1244 H 0.71965 0.33325 0.81262 0.0
H1245 H 0.67185 0.25067 0.84575 0.0
H1246 H 0.75456 0.33991 0.84792 0.0
H1247 H 0.70761 0.25575 0.88024 0.0
H1248 H 0.76085 0.27952 0.94667 0.0
H1249 H 0.72123 0.28556 0.91429 0.0
H1250 H 0.79984 0.31429 0.86676 0.0
H1251 H 0.83894 0.30975 0.89972 0.0
C1252 C 0.71645 0.31677 0.82759 0.0
C1253 C 0.69314 0.29148 0.82656 0.0
C1254 C 0.73667 0.32027 0.84769 0.0
C1255 C 0.73408 0.29835 0.86705 0.0
C1256 C 0.71008 0.27354 0.86602 0.0
C1257 C 0.68977 0.27031 0.84611 0.0
C1258 C 0.76938 0.28767 0.92935 0.0
C1259 C 0.8028 0.29395 0.92551 0.0
C1260 C 0.74682 0.29089 0.91072 0.0
C1261 C 0.7573 0.29983 0.88767 0.0
C1262 C 0.79069 0.30763 0.88423 0.0
C1263 C 0.81318 0.30492 0.90304 0.0
H1264 H 0.74941 0.66169 0.60172 0.0
H1265 H 0.82691 0.71306 0.56509 0.0
H1266 H 0.75534 0.69809 0.6358 0.0
H1267 H 0.83518 0.74798 0.59999 0.0
H1268 H 0.80968 0.83148 0.65211 0.0
H1269 H 0.81161 0.79194 0.61948 0.0
H1270 H 0.78455 0.71466 0.66867 0.0
H1271 H 0.78046 0.7551 0.7007 0.0
C1272 C 0.76811 0.68059 0.6012 0.0
C1273 C 0.78746 0.68486 0.58077 0.0
C1274 C 0.77193 0.70122 0.6209 0.0
C1275 C 0.79578 0.72626 0.62086 0.0
C1276 C 0.81611 0.72951 0.60063 0.0
C1277 C 0.81177 0.70922 0.58072 0.0
C1278 C 0.80464 0.80589 0.65583 0.0
C1279 C 0.79495 0.79609 0.6787 0.0
C1280 C 0.80588 0.7831 0.6372 0.0
C1281 C 0.79796 0.74988 0.64121 0.0
C1282 C 0.78998 0.74003 0.66462 0.0
C1283 C 0.78803 0.76302 0.68309 0.0
H1284 H 0.83375 0.24449 0.34893 0.0
H1285 H 0.78234 0.16552 0.314 0.0
H1286 H 0.79762 0.23979 0.38318 0.0
H1287 H 0.74766 0.15851 0.34919 0.0
H1288 H 0.6638 0.18711 0.40032 0.0
H1289 H 0.70362 0.18315 0.36795 0.0
H1290 H 0.78083 0.21236 0.41669 0.0
H1291 H 0.74012 0.2185 0.44837 0.0
C1292 C 0.81502 0.22562 0.34888 0.0
C1293 C 0.81064 0.20553 0.32883 0.0
C1294 C 0.79449 0.22255 0.36868 0.0
C1295 C 0.76944 0.19874 0.36916 0.0
C1296 C 0.76618 0.17756 0.34941 0.0
C1297 C 0.78638 0.18114 0.32936 0.0
C1298 C 0.68943 0.19223 0.40399 0.0
C1299 C 0.69915 0.20313 0.4266 0.0
C1300 C 0.71238 0.18979 0.38552 0.0
C1301 C 0.74567 0.19768 0.38947 0.0
C1302 C 0.75541 0.2069 0.41267 0.0
C1303 C 0.73227 0.21007 0.43095 0.0
H1304 H 0.23926 0.16416 0.64889 0.0
H1305 H 0.18012 0.22896 0.69188 0.0
H1306 H 0.23395 0.20121 0.61515 0.0
H1307 H 0.17228 0.2651 0.65757 0.0
H1308 H 0.20311 0.34191 0.60131 0.0
H1309 H 0.20029 0.3038 0.63485 0.0
H1310 H 0.20094 0.22224 0.58537 0.0
H1311 H 0.20596 0.26072 0.55219 0.0
C1312 C 0.22464 0.18621 0.65092 0.0
C1313 C 0.21017 0.19381 0.67291 0.0
C1314 C 0.22115 0.2073 0.63148 0.0
C1315 C 0.20252 0.2363 0.63342 0.0
C1316 C 0.18718 0.24331 0.65539 0.0
C1317 C 0.1912 0.22238 0.67499 0.0
C1318 C 0.20218 0.31579 0.59779 0.0
C1319 C 0.20478 0.304 0.5744 0.0
C1320 C 0.2004 0.29388 0.61694 0.0
C1321 C 0.20071 0.25972 0.61298 0.0
C1322 C 0.20152 0.24824 0.58926 0.0
C1323 C 0.20398 0.27017 0.5702 0.0
H1324 H 0.25965 0.76462 0.44305 0.0
H1325 H 0.3318 0.82376 0.40671 0.0
H1326 H 0.22214 0.77076 0.40917 0.0
H1327 H 0.29438 0.82983 0.37269 0.0
H1328 H 0.23784 0.78046 0.30783 0.0
H1329 H 0.27356 0.78661 0.34271 0.0
H1330 H 0.18968 0.8143 0.38537 0.0
H1331 H 0.15405 0.80841 0.35027 0.0
C1332 C 0.26721 0.77931 0.42791 0.0
C1333 C 0.29851 0.79366 0.42735 0.0
C1334 C 0.24574 0.78299 0.40863 0.0
C1335 C 0.25543 0.80071 0.38831 0.0
C1336 C 0.28639 0.81595 0.38811 0.0
C1337 C 0.30766 0.81268 0.40757 0.0
C1338 C 0.22725 0.78838 0.3246 0.0
C1339 C 0.19336 0.79391 0.32653 0.0
C1340 C 0.24762 0.79205 0.34449 0.0
C1341 C 0.23434 0.80087 0.36673 0.0
C1342 C 0.2005 0.80735 0.36845 0.0
C1343 C 0.1802 0.80417 0.34842 0.0
loop_
_geom_bond_atom_site_label_1
_geom_bond_atom_site_label_2
_geom_bond_distance
_geom_bond_site_symmetry_2
_ccdc_geom_bond_type
Co0 O3 1.970 1_554 S
Co0 N17 1.989 . S
Co0 O25 1.967 . S
Co0 O32 1.920 . S
Co1 O4 1.966 1_554 S
Co1 N10 2.022 . S
Co1 N18 1.993 . S
Co1 O26 1.941 . S
C2 O3 1.258 . S
C2 O4 1.263 . S
O3 Co0 1.970 1_556 S
O3 C2 1.258 . S
O4 Co1 1.966 1_556 S
O4 C2 1.263 . S
C5 O6 1.225 1_554 S
C5 O32 1.300 . S
O6 C5 1.225 1_556 S
C7 C9 1.400 . S
C7 N10 1.351 . S
C7 C12 1.501 1_554 S
C8 C9 1.387 . S
C8 N11 1.341 . S
C9 C7 1.400 . S
C9 C8 1.387 . S
N10 Co1 2.022 . S
N10 C7 1.351 . S
N10 N11 1.365 . S
N11 C8 1.341 . S
N11 N10 1.365 . S
N11 H31 0.862 . S
C12 C7 1.501 1_556 S
C12 H13 0.961 . S
C12 H14 0.961 . S
C12 H15 0.960 . S
H13 C12 0.961 . S
H14 C12 0.961 . S
H15 C12 0.960 . S
C16 N17 1.342 . S
C16 C20 1.401 . S
C16 C21 1.499 . S
N17 Co0 1.989 . S
N17 C16 1.342 . S
N17 N18 1.388 . S
N18 Co1 1.993 . S
N18 N17 1.388 . S
N18 C19 1.346 . S
C19 N18 1.346 . S
C19 C20 1.396 . S
C19 C29 1.510 . S
C20 C16 1.401 . S
C20 C19 1.396 . S
C21 C16 1.499 . S
C21 H22 0.959 . S
C21 H23 0.960 . S
C21 H24 0.961 . S
H22 C21 0.959 . S
H23 C21 0.960 . S
H24 C21 0.961 . S
O25 Co0 1.967 . S
O25 C33 1.258 . S
O26 Co1 1.941 . S
O26 C33 1.266 . S
H27 C29 0.959 . S
H28 C29 0.961 . S
C29 C19 1.510 . S
C29 H27 0.959 . S
C29 H28 0.961 . S
C29 H30 0.960 . S
H30 C29 0.960 . S
H31 N11 0.862 . S
O32 Co0 1.920 . S
O32 C5 1.300 . S
C33 O25 1.258 . S
C33 O26 1.266 . S
Co34 O37 1.970 1_556 S
Co34 N51 1.989 . S
Co34 O59 1.967 . S
Co34 O66 1.920 . S
Co35 O38 1.966 1_556 S
Co35 N44 2.022 . S
Co35 N52 1.993 . S
Co35 O60 1.941 . S
C36 O37 1.258 . S
C36 O38 1.263 . S
O37 Co34 1.970 1_554 S
O37 C36 1.258 . S
O38 Co35 1.966 1_554 S
O38 C36 1.263 . S
C39 O40 1.225 1_556 S
C39 O66 1.300 . S
O40 C39 1.225 1_554 S
C41 C43 1.400 . S
C41 N44 1.351 . S
C41 C46 1.501 1_556 S
C42 C43 1.387 . S
C42 N45 1.341 . S
C43 C41 1.400 . S
C43 C42 1.387 . S
N44 Co35 2.022 . S
N44 C41 1.351 . S
N44 N45 1.365 . S
N45 C42 1.341 . S
N45 N44 1.365 . S
N45 H65 0.862 . S
C46 C41 1.501 1_554 S
C46 H47 0.961 . S
C46 H48 0.961 . S
C46 H49 0.960 . S
H47 C46 0.961 . S
H48 C46 0.961 . S
H49 C46 0.960 . S
C50 N51 1.342 . S
C50 C54 1.401 . S
C50 C55 1.499 . S
N51 Co34 1.989 . S
N51 C50 1.342 . S
N51 N52 1.388 . S
N52 Co35 1.993 . S
N52 N51 1.388 . S
N52 C53 1.346 . S
C53 N52 1.346 . S
C53 C54 1.396 . S
C53 C63 1.510 . S
C54 C50 1.401 . S
C54 C53 1.396 . S
C55 C50 1.499 . S
C55 H56 0.959 . S
C55 H57 0.960 . S
C55 H58 0.961 . S
H56 C55 0.959 . S
H57 C55 0.960 . S
H58 C55 0.961 . S
O59 Co34 1.967 . S
O59 C67 1.258 . S
O60 Co35 1.941 . S
O60 C67 1.266 . S
H61 C63 0.959 . S
H62 C63 0.961 . S
C63 C53 1.510 . S
C63 H61 0.959 . S
C63 H62 0.961 . S
C63 H64 0.960 . S
H64 C63 0.960 . S
H65 N45 0.862 . S
O66 Co34 1.920 . S
O66 C39 1.300 . S
C67 O59 1.258 . S
C67 O60 1.266 . S
Co68 O71 1.970 1_554 S
Co68 N85 1.989 . S
Co68 O93 1.967 . S
Co68 O100 1.920 . S
Co69 O72 1.966 1_554 S
Co69 N78 2.022 . S
Co69 N86 1.993 . S
Co69 O94 1.941 . S
C70 O71 1.258 . S
C70 O72 1.263 . S
O71 Co68 1.970 1_556 S
O71 C70 1.258 . S
O72 Co69 1.966 1_556 S
O72 C70 1.263 . S
C73 O74 1.225 1_554 S
C73 O100 1.300 . S
O74 C73 1.225 1_556 S
C75 C77 1.400 . S
C75 N78 1.351 . S
C75 C80 1.501 1_554 S
C76 C77 1.387 . S
C76 N79 1.341 . S
C77 C75 1.400 . S
C77 C76 1.387 . S
N78 Co69 2.022 . S
N78 C75 1.351 . S
N78 N79 1.365 . S
N79 C76 1.341 . S
N79 N78 1.365 . S
N79 H99 0.862 . S
C80 C75 1.501 1_556 S
C80 H81 0.961 . S
C80 H82 0.961 . S
C80 H83 0.960 . S
H81 C80 0.961 . S
H82 C80 0.961 . S
H83 C80 0.960 . S
C84 N85 1.342 . S
C84 C88 1.401 . S
C84 C89 1.499 . S
N85 Co68 1.989 . S
N85 C84 1.342 . S
N85 N86 1.388 . S
N86 Co69 1.993 . S
N86 N85 1.388 . S
N86 C87 1.346 . S
C87 N86 1.346 . S
C87 C88 1.396 . S
C87 C97 1.510 . S
C88 C84 1.401 . S
C88 C87 1.396 . S
C89 C84 1.499 . S
C89 H90 0.959 . S
C89 H91 0.960 . S
C89 H92 0.961 . S
H90 C89 0.959 . S
H91 C89 0.960 . S
H92 C89 0.961 . S
O93 Co68 1.967 . S
O93 C101 1.258 . S
O94 Co69 1.941 . S
O94 C101 1.266 . S
H95 C97 0.959 . S
H96 C97 0.961 . S
C97 C87 1.510 . S
C97 H95 0.959 . S
C97 H96 0.961 . S
C97 H98 0.960 . S
H98 C97 0.960 . S
H99 N79 0.862 . S
O100 Co68 1.920 . S
O100 C73 1.300 . S
C101 O93 1.258 . S
C101 O94 1.266 . S
Co102 O105 1.970 1_556 S
Co102 N119 1.989 . S
Co102 O127 1.967 . S
Co102 O134 1.920 . S
Co103 O106 1.966 1_556 S
Co103 N112 2.022 . S
Co103 N120 1.993 . S
Co103 O128 1.941 . S
C104 O105 1.258 . S
C104 O106 1.263 . S
O105 Co102 1.970 1_554 S
O105 C104 1.258 . S
O106 Co103 1.966 1_554 S
O106 C104 1.263 . S
C107 O108 1.225 1_556 S
C107 O134 1.300 . S
O108 C107 1.225 1_554 S
C109 C111 1.400 . S
C109 N112 1.351 . S
C109 C114 1.501 1_556 S
C110 C111 1.387 . S
C110 N113 1.341 . S
C111 C109 1.400 . S
C111 C110 1.387 . S
N112 Co103 2.022 . S
N112 C109 1.351 . S
N112 N113 1.365 . S
N113 C110 1.341 . S
N113 N112 1.365 . S
N113 H133 0.862 . S
C114 C109 1.501 1_554 S
C114 H115 0.961 . S
C114 H116 0.961 . S
C114 H117 0.960 . S
H115 C114 0.961 . S
H116 C114 0.961 . S
H117 C114 0.960 . S
C118 N119 1.342 . S
C118 C122 1.401 . S
C118 C123 1.499 . S
N119 Co102 1.989 . S
N119 C118 1.342 . S
N119 N120 1.388 . S
N120 Co103 1.993 . S
N120 N119 1.388 . S
N120 C121 1.346 . S
C121 N120 1.346 . S
C121 C122 1.396 . S
C121 C131 1.510 . S
C122 C118 1.401 . S
C122 C121 1.396 . S
C123 C118 1.499 . S
C123 H124 0.959 . S
C123 H125 0.960 . S
C123 H126 0.961 . S
H124 C123 0.959 . S
H125 C123 0.960 . S
H126 C123 0.961 . S
O127 Co102 1.967 . S
O127 C135 1.258 . S
O128 Co103 1.941 . S
O128 C135 1.266 . S
H129 C131 0.959 . S
H130 C131 0.961 . S
C131 C121 1.510 . S
C131 H129 0.959 . S
C131 H130 0.961 . S
C131 H132 0.960 . S
H132 C131 0.960 . S
H133 N113 0.862 . S
O134 Co102 1.920 . S
O134 C107 1.300 . S
C135 O127 1.258 . S
C135 O128 1.266 . S
Co136 O139 1.970 . S
Co136 N153 1.989 . S
Co136 O161 1.967 . S
Co136 O168 1.920 . S
Co137 O140 1.966 . S
Co137 N146 2.022 . S
Co137 N154 1.993 . S
Co137 O162 1.941 . S
C138 O139 1.258 . S
C138 O140 1.263 . S
O139 Co136 1.970 . S
O139 C138 1.258 . S
O140 Co137 1.966 . S
O140 C138 1.263 . S
C141 O142 1.235 . S
C141 O168 1.289 . S
O142 C141 1.235 . S
C143 C145 1.400 . S
C143 N146 1.351 . S
C143 C148 1.501 . S
C144 C145 1.387 . S
C144 N147 1.341 . S
C145 C143 1.400 . S
C145 C144 1.387 . S
N146 Co137 2.022 . S
N146 C143 1.351 . S
N146 N147 1.365 . S
N147 C144 1.341 . S
N147 N146 1.365 . S
N147 H167 0.862 . S
C148 C143 1.501 . S
C148 H149 0.961 . S
C148 H150 0.961 . S
C148 H151 0.960 . S
H149 C148 0.961 . S
H150 C148 0.961 . S
H151 C148 0.960 . S
C152 N153 1.342 . S
C152 C156 1.401 . S
C152 C157 1.499 . S
N153 Co136 1.989 . S
N153 C152 1.342 . S
N153 N154 1.388 . S
N154 Co137 1.993 . S
N154 N153 1.388 . S
N154 C155 1.346 . S
C155 N154 1.346 . S
C155 C156 1.396 . S
C155 C165 1.510 . S
C156 C152 1.401 . S
C156 C155 1.396 . S
C157 C152 1.499 . S
C157 H158 0.959 . S
C157 H159 0.960 . S
C157 H160 0.961 . S
H158 C157 0.959 . S
H159 C157 0.960 . S
H160 C157 0.961 . S
O161 Co136 1.967 . S
O161 C169 1.258 . S
O162 Co137 1.941 . S
O162 C169 1.266 . S
H163 C165 0.959 . S
H164 C165 0.961 . S
C165 C155 1.510 . S
C165 H163 0.959 . S
C165 H164 0.961 . S
C165 H166 0.960 . S
H166 C165 0.960 . S
H167 N147 0.862 . S
O168 Co136 1.920 . S
O168 C141 1.289 . S
C169 O161 1.258 . S
C169 O162 1.266 . S
Co170 O173 1.970 . S
Co170 N187 1.989 . S
Co170 O195 1.967 . S
Co170 O202 1.920 . S
Co171 O174 1.966 . S
Co171 N180 2.022 . S
Co171 N188 1.993 . S
Co171 O196 1.941 . S
C172 O173 1.258 . S
C172 O174 1.263 . S
O173 Co170 1.970 . S
O173 C172 1.258 . S
O174 Co171 1.966 . S
O174 C172 1.263 . S
C175 O176 1.235 . S
C175 O202 1.289 . S
O176 C175 1.235 . S
C177 C179 1.400 . S
C177 N180 1.351 . S
C177 C182 1.501 . S
C178 C179 1.387 . S
C178 N181 1.341 . S
C179 C177 1.400 . S
C179 C178 1.387 . S
N180 Co171 2.022 . S
N180 C177 1.351 . S
N180 N181 1.365 . S
N181 C178 1.341 . S
N181 N180 1.365 . S
N181 H201 0.862 . S
C182 C177 1.501 . S
C182 H183 0.961 . S
C182 H184 0.961 . S
C182 H185 0.960 . S
H183 C182 0.961 . S
H184 C182 0.961 . S
H185 C182 0.960 . S
C186 N187 1.342 . S
C186 C190 1.401 . S
C186 C191 1.499 . S
N187 Co170 1.989 . S
N187 C186 1.342 . S
N187 N188 1.388 . S
N188 Co171 1.993 . S
N188 N187 1.388 . S
N188 C189 1.346 . S
C189 N188 1.346 . S
C189 C190 1.396 . S
C189 C199 1.510 . S
C190 C186 1.401 . S
C190 C189 1.396 . S
C191 C186 1.499 . S
C191 H192 0.959 . S
C191 H193 0.960 . S
C191 H194 0.961 . S
H192 C191 0.959 . S
H193 C191 0.960 . S
H194 C191 0.961 . S
O195 Co170 1.967 . S
O195 C203 1.258 . S
O196 Co171 1.941 . S
O196 C203 1.266 . S
H197 C199 0.959 . S
H198 C199 0.961 . S
C199 C189 1.510 . S
C199 H197 0.959 . S
C199 H198 0.961 . S
C199 H200 0.960 . S
H200 C199 0.960 . S
H201 N181 0.862 . S
O202 Co170 1.920 . S
O202 C175 1.289 . S
C203 O195 1.258 . S
C203 O196 1.266 . S
Co204 O207 1.970 . S
Co204 N221 1.989 . S
Co204 O229 1.967 . S
Co204 O236 1.920 . S
Co205 O208 1.966 . S
Co205 N214 2.022 . S
Co205 N222 1.993 . S
Co205 O230 1.941 . S
C206 O207 1.258 . S
C206 O208 1.263 . S
O207 Co204 1.970 . S
O207 C206 1.258 . S
O208 Co205 1.966 . S
O208 C206 1.263 . S
C209 O210 1.235 . S
C209 O236 1.289 . S
O210 C209 1.235 . S
C211 C213 1.400 . S
C211 N214 1.351 . S
C211 C216 1.501 . S
C212 C213 1.387 . S
C212 N215 1.341 . S
C213 C211 1.400 . S
C213 C212 1.387 . S
N214 Co205 2.022 . S
N214 C211 1.351 . S
N214 N215 1.365 . S
N215 C212 1.341 . S
N215 N214 1.365 . S
N215 H235 0.862 . S
C216 C211 1.501 . S
C216 H217 0.961 . S
C216 H218 0.961 . S
C216 H219 0.960 . S
H217 C216 0.961 . S
H218 C216 0.961 . S
H219 C216 0.960 . S
C220 N221 1.342 . S
C220 C224 1.401 . S
C220 C225 1.499 . S
N221 Co204 1.989 . S
N221 C220 1.342 . S
N221 N222 1.388 . S
N222 Co205 1.993 . S
N222 N221 1.388 . S
N222 C223 1.346 . S
C223 N222 1.346 . S
C223 C224 1.396 . S
C223 C233 1.510 . S
C224 C220 1.401 . S
C224 C223 1.396 . S
C225 C220 1.499 . S
C225 H226 0.959 . S
C225 H227 0.960 . S
C225 H228 0.961 . S
H226 C225 0.959 . S
H227 C225 0.960 . S
H228 C225 0.961 . S
O229 Co204 1.967 . S
O229 C237 1.258 . S
O230 Co205 1.941 . S
O230 C237 1.266 . S
H231 C233 0.959 . S
H232 C233 0.961 . S
C233 C223 1.510 . S
C233 H231 0.959 . S
C233 H232 0.961 . S
C233 H234 0.960 . S
H234 C233 0.960 . S
H235 N215 0.862 . S
O236 Co204 1.920 . S
O236 C209 1.289 . S
C237 O229 1.258 . S
C237 O230 1.266 . S
Co238 O241 1.970 . S
Co238 N255 1.989 . S
Co238 O263 1.967 . S
Co238 O270 1.920 . S
Co239 O242 1.966 . S
Co239 N248 2.022 . S
Co239 N256 1.993 . S
Co239 O264 1.941 . S
C240 O241 1.258 . S
C240 O242 1.263 . S
O241 Co238 1.970 . S
O241 C240 1.258 . S
O242 Co239 1.966 . S
O242 C240 1.263 . S
C243 O244 1.235 . S
C243 O270 1.289 . S
O244 C243 1.235 . S
C245 C247 1.400 . S
C245 N248 1.351 . S
C245 C250 1.501 . S
C246 C247 1.387 . S
C246 N249 1.341 . S
C247 C245 1.400 . S
C247 C246 1.387 . S
N248 Co239 2.022 . S
N248 C245 1.351 . S
N248 N249 1.365 . S
N249 C246 1.341 . S
N249 N248 1.365 . S
N249 H269 0.862 . S
C250 C245 1.501 . S
C250 H251 0.961 . S
C250 H252 0.961 . S
C250 H253 0.960 . S
H251 C250 0.961 . S
H252 C250 0.961 . S
H253 C250 0.960 . S
C254 N255 1.342 . S
C254 C258 1.401 . S
C254 C259 1.499 . S
N255 Co238 1.989 . S
N255 C254 1.342 . S
N255 N256 1.388 . S
N256 Co239 1.993 . S
N256 N255 1.388 . S
N256 C257 1.346 . S
C257 N256 1.346 . S
C257 C258 1.396 . S
C257 C267 1.510 . S
C258 C254 1.401 . S
C258 C257 1.396 . S
C259 C254 1.499 . S
C259 H260 0.959 . S
C259 H261 0.960 . S
C259 H262 0.961 . S
H260 C259 0.959 . S
H261 C259 0.960 . S
H262 C259 0.961 . S
O263 Co238 1.967 . S
O263 C271 1.258 . S
O264 Co239 1.941 . S
O264 C271 1.266 . S
H265 C267 0.959 . S
H266 C267 0.961 . S
C267 C257 1.510 . S
C267 H265 0.959 . S
C267 H266 0.961 . S
C267 H268 0.960 . S
H268 C267 0.960 . S
H269 N249 0.862 . S
O270 Co238 1.920 . S
O270 C243 1.289 . S
C271 O263 1.258 . S
C271 O264 1.266 . S
Co272 O275 1.970 . S
Co272 N289 1.989 . S
Co272 O297 1.967 . S
Co272 O304 1.920 . S
Co273 O276 1.966 . S
Co273 N282 2.022 . S
Co273 N290 1.993 . S
Co273 O298 1.941 . S
C274 O275 1.258 . S
C274 O276 1.263 . S
O275 Co272 1.970 . S
O275 C274 1.258 . S
O276 Co273 1.966 . S
O276 C274 1.263 . S
C277 O278 1.235 . S
C277 O304 1.289 . S
O278 C277 1.235 . S
C279 C281 1.400 . S
C279 N282 1.351 . S
C279 C284 1.501 . S
C280 C281 1.387 . S
C280 N283 1.341 . S
C281 C279 1.400 . S
C281 C280 1.387 . S
N282 Co273 2.022 . S
N282 C279 1.351 . S
N282 N283 1.365 . S
N283 C280 1.341 . S
N283 N282 1.365 . S
N283 H303 0.862 . S
C284 C279 1.501 . S
C284 H285 0.961 . S
C284 H286 0.961 . S
C284 H287 0.960 . S
H285 C284 0.961 . S
H286 C284 0.961 . S
H287 C284 0.960 . S
C288 N289 1.342 . S
C288 C292 1.401 . S
C288 C293 1.499 . S
N289 Co272 1.989 . S
N289 C288 1.342 . S
N289 N290 1.388 . S
N290 Co273 1.993 . S
N290 N289 1.388 . S
N290 C291 1.346 . S
C291 N290 1.346 . S
C291 C292 1.396 . S
C291 C301 1.510 . S
C292 C288 1.401 . S
C292 C291 1.396 . S
C293 C288 1.499 . S
C293 H294 0.959 . S
C293 H295 0.960 . S
C293 H296 0.961 . S
H294 C293 0.959 . S
H295 C293 0.960 . S
H296 C293 0.961 . S
O297 Co272 1.967 . S
O297 C305 1.258 . S
O298 Co273 1.941 . S
O298 C305 1.266 . S
H299 C301 0.959 . S
H300 C301 0.961 . S
C301 C291 1.510 . S
C301 H299 0.959 . S
C301 H300 0.961 . S
C301 H302 0.960 . S
H302 C301 0.960 . S
H303 N283 0.862 . S
O304 Co272 1.920 . S
O304 C277 1.289 . S
C305 O297 1.258 . S
C305 O298 1.266 . S
Co306 O309 1.970 . S
Co306 N323 1.989 . S
Co306 O331 1.967 . S
Co306 O338 1.920 . S
Co307 O310 1.966 . S
Co307 N316 2.022 . S
Co307 N324 1.993 . S
Co307 O332 1.941 . S
C308 O309 1.258 . S
C308 O310 1.263 . S
O309 Co306 1.970 . S
O309 C308 1.258 . S
O310 Co307 1.966 . S
O310 C308 1.263 . S
C311 O312 1.235 . S
C311 O338 1.289 . S
O312 C311 1.235 . S
C313 C315 1.400 . S
C313 N316 1.351 . S
C313 C318 1.501 . S
C314 C315 1.387 . S
C314 N317 1.341 . S
C315 C313 1.400 . S
C315 C314 1.387 . S
N316 Co307 2.022 . S
N316 C313 1.351 . S
N316 N317 1.365 . S
N317 C314 1.341 . S
N317 N316 1.365 . S
N317 H337 0.862 . S
C318 C313 1.501 . S
C318 H319 0.961 . S
C318 H320 0.961 . S
C318 H321 0.960 . S
H319 C318 0.961 . S
H320 C318 0.961 . S
H321 C318 0.960 . S
C322 N323 1.342 . S
C322 C326 1.401 . S
C322 C327 1.499 . S
N323 Co306 1.989 . S
N323 C322 1.342 . S
N323 N324 1.388 . S
N324 Co307 1.993 . S
N324 N323 1.388 . S
N324 C325 1.346 . S
C325 N324 1.346 . S
C325 C326 1.396 . S
C325 C335 1.510 . S
C326 C322 1.401 . S
C326 C325 1.396 . S
C327 C322 1.499 . S
C327 H328 0.959 . S
C327 H329 0.960 . S
C327 H330 0.961 . S
H328 C327 0.959 . S
H329 C327 0.960 . S
H330 C327 0.961 . S
O331 Co306 1.967 . S
O331 C339 1.258 . S
O332 Co307 1.941 . S
O332 C339 1.266 . S
H333 C335 0.959 . S
H334 C335 0.961 . S
C335 C325 1.510 . S
C335 H333 0.959 . S
C335 H334 0.961 . S
C335 H336 0.960 . S
H336 C335 0.960 . S
H337 N317 0.862 . S
O338 Co306 1.920 . S
O338 C311 1.289 . S
C339 O331 1.258 . S
C339 O332 1.266 . S
Co340 O343 1.970 . S
Co340 N357 1.989 . S
Co340 O365 1.967 . S
Co340 O372 1.920 . S
Co341 O344 1.966 . S
Co341 N350 2.022 . S
Co341 N358 1.993 . S
Co341 O366 1.941 . S
C342 O343 1.258 . S
C342 O344 1.263 . S
O343 Co340 1.970 . S
O343 C342 1.258 . S
O344 Co341 1.966 . S
O344 C342 1.263 . S
C345 O346 1.235 . S
C345 O372 1.289 . S
O346 C345 1.235 . S
C347 C349 1.400 . S
C347 N350 1.351 . S
C347 C352 1.501 . S
C348 C349 1.387 . S
C348 N351 1.341 . S
C349 C347 1.400 . S
C349 C348 1.387 . S
N350 Co341 2.022 . S
N350 C347 1.351 . S
N350 N351 1.365 . S
N351 C348 1.341 . S
N351 N350 1.365 . S
N351 H371 0.862 . S
C352 C347 1.501 . S
C352 H353 0.961 . S
C352 H354 0.961 . S
C352 H355 0.960 . S
H353 C352 0.961 . S
H354 C352 0.961 . S
H355 C352 0.960 . S
C356 N357 1.342 . S
C356 C360 1.401 . S
C356 C361 1.499 . S
N357 Co340 1.989 . S
N357 C356 1.342 . S
N357 N358 1.388 . S
N358 Co341 1.993 . S
N358 N357 1.388 . S
N358 C359 1.346 . S
C359 N358 1.346 . S
C359 C360 1.396 . S
C359 C369 1.510 . S
C360 C356 1.401 . S
C360 C359 1.396 . S
C361 C356 1.499 . S
C361 H362 0.959 . S
C361 H363 0.960 . S
C361 H364 0.961 . S
H362 C361 0.959 . S
H363 C361 0.960 . S
H364 C361 0.961 . S
O365 Co340 1.967 . S
O365 C373 1.258 . S
O366 Co341 1.941 . S
O366 C373 1.266 . S
H367 C369 0.959 . S
H368 C369 0.961 . S
C369 C359 1.510 . S
C369 H367 0.959 . S
C369 H368 0.961 . S
C369 H370 0.960 . S
H370 C369 0.960 . S
H371 N351 0.862 . S
O372 Co340 1.920 . S
O372 C345 1.289 . S
C373 O365 1.258 . S
C373 O366 1.266 . S
Co374 O377 1.970 . S
Co374 N391 1.989 . S
Co374 O399 1.967 . S
Co374 O406 1.920 . S
Co375 O378 1.966 . S
Co375 N384 2.022 . S
Co375 N392 1.993 . S
Co375 O400 1.941 . S
C376 O377 1.258 . S
C376 O378 1.263 . S
O377 Co374 1.970 . S
O377 C376 1.258 . S
O378 Co375 1.966 . S
O378 C376 1.263 . S
C379 O380 1.235 . S
C379 O406 1.289 . S
O380 C379 1.235 . S
C381 C383 1.400 . S
C381 N384 1.351 . S
C381 C386 1.501 . S
C382 C383 1.387 . S
C382 N385 1.341 . S
C383 C381 1.400 . S
C383 C382 1.387 . S
N384 Co375 2.022 . S
N384 C381 1.351 . S
N384 N385 1.365 . S
N385 C382 1.341 . S
N385 N384 1.365 . S
N385 H405 0.862 . S
C386 C381 1.501 . S
C386 H387 0.961 . S
C386 H388 0.961 . S
C386 H389 0.960 . S
H387 C386 0.961 . S
H388 C386 0.961 . S
H389 C386 0.960 . S
C390 N391 1.342 . S
C390 C394 1.401 . S
C390 C395 1.499 . S
N391 Co374 1.989 . S
N391 C390 1.342 . S
N391 N392 1.388 . S
N392 Co375 1.993 . S
N392 N391 1.388 . S
N392 C393 1.346 . S
C393 N392 1.346 . S
C393 C394 1.396 . S
C393 C403 1.510 . S
C394 C390 1.401 . S
C394 C393 1.396 . S
C395 C390 1.499 . S
C395 H396 0.959 . S
C395 H397 0.960 . S
C395 H398 0.961 . S
H396 C395 0.959 . S
H397 C395 0.960 . S
H398 C395 0.961 . S
O399 Co374 1.967 . S
O399 C407 1.258 . S
O400 Co375 1.941 . S
O400 C407 1.266 . S
H401 C403 0.959 . S
H402 C403 0.961 . S
C403 C393 1.510 . S
C403 H401 0.959 . S
C403 H402 0.961 . S
C403 H404 0.960 . S
H404 C403 0.960 . S
H405 N385 0.862 . S
O406 Co374 1.920 . S
O406 C379 1.289 . S
C407 O399 1.258 . S
C407 O400 1.266 . S
Co408 O411 1.970 . S
Co408 N425 1.989 . S
Co408 O433 1.967 . S
Co408 O440 1.920 . S
Co409 O412 1.966 . S
Co409 N418 2.022 . S
Co409 N426 1.993 . S
Co409 O434 1.941 . S
C410 O411 1.258 . S
C410 O412 1.263 . S
O411 Co408 1.970 . S
O411 C410 1.258 . S
O412 Co409 1.966 . S
O412 C410 1.263 . S
C413 O414 1.235 . S
C413 O440 1.289 . S
O414 C413 1.235 . S
C415 C417 1.400 . S
C415 N418 1.351 . S
C415 C420 1.501 . S
C416 C417 1.387 . S
C416 N419 1.341 . S
C417 C415 1.400 . S
C417 C416 1.387 . S
N418 Co409 2.022 . S
N418 C415 1.351 . S
N418 N419 1.365 . S
N419 C416 1.341 . S
N419 N418 1.365 . S
N419 H439 0.862 . S
C420 C415 1.501 . S
C420 H421 0.961 . S
C420 H422 0.961 . S
C420 H423 0.960 . S
H421 C420 0.961 . S
H422 C420 0.961 . S
H423 C420 0.960 . S
C424 N425 1.342 . S
C424 C428 1.401 . S
C424 C429 1.499 . S
N425 Co408 1.989 . S
N425 C424 1.342 . S
N425 N426 1.388 . S
N426 Co409 1.993 . S
N426 N425 1.388 . S
N426 C427 1.346 . S
C427 N426 1.346 . S
C427 C428 1.396 . S
C427 C437 1.510 . S
C428 C424 1.401 . S
C428 C427 1.396 . S
C429 C424 1.499 . S
C429 H430 0.959 . S
C429 H431 0.960 . S
C429 H432 0.961 . S
H430 C429 0.959 . S
H431 C429 0.960 . S
H432 C429 0.961 . S
O433 Co408 1.967 . S
O433 C441 1.258 . S
O434 Co409 1.941 . S
O434 C441 1.266 . S
H435 C437 0.959 . S
H436 C437 0.961 . S
C437 C427 1.510 . S
C437 H435 0.959 . S
C437 H436 0.961 . S
C437 H438 0.960 . S
H438 C437 0.960 . S
H439 N419 0.862 . S
O440 Co408 1.920 . S
O440 C413 1.289 . S
C441 O433 1.258 . S
C441 O434 1.266 . S
Co442 O445 1.970 . S
Co442 N459 1.989 . S
Co442 O467 1.967 . S
Co442 O474 1.920 . S
Co443 O446 1.966 . S
Co443 N452 2.022 . S
Co443 N460 1.993 . S
Co443 O468 1.941 . S
C444 O445 1.258 . S
C444 O446 1.263 . S
O445 Co442 1.970 . S
O445 C444 1.258 . S
O446 Co443 1.966 . S
O446 C444 1.263 . S
C447 O448 1.235 . S
C447 O474 1.289 . S
O448 C447 1.235 . S
C449 C451 1.400 . S
C449 N452 1.351 . S
C449 C454 1.501 . S
C450 C451 1.387 . S
C450 N453 1.341 . S
C451 C449 1.400 . S
C451 C450 1.387 . S
N452 Co443 2.022 . S
N452 C449 1.351 . S
N452 N453 1.365 . S
N453 C450 1.341 . S
N453 N452 1.365 . S
N453 H473 0.862 . S
C454 C449 1.501 . S
C454 H455 0.961 . S
C454 H456 0.961 . S
C454 H457 0.960 . S
H455 C454 0.961 . S
H456 C454 0.961 . S
H457 C454 0.960 . S
C458 N459 1.342 . S
C458 C462 1.401 . S
C458 C463 1.499 . S
N459 Co442 1.989 . S
N459 C458 1.342 . S
N459 N460 1.388 . S
N460 Co443 1.993 . S
N460 N459 1.388 . S
N460 C461 1.346 . S
C461 N460 1.346 . S
C461 C462 1.396 . S
C461 C471 1.510 . S
C462 C458 1.401 . S
C462 C461 1.396 . S
C463 C458 1.499 . S
C463 H464 0.959 . S
C463 H465 0.960 . S
C463 H466 0.961 . S
H464 C463 0.959 . S
H465 C463 0.960 . S
H466 C463 0.961 . S
O467 Co442 1.967 . S
O467 C475 1.258 . S
O468 Co443 1.941 . S
O468 C475 1.266 . S
H469 C471 0.959 . S
H470 C471 0.961 . S
C471 C461 1.510 . S
C471 H469 0.959 . S
C471 H470 0.961 . S
C471 H472 0.960 . S
H472 C471 0.960 . S
H473 N453 0.862 . S
O474 Co442 1.920 . S
O474 C447 1.289 . S
C475 O467 1.258 . S
C475 O468 1.266 . S
Co476 O479 1.970 . S
Co476 N493 1.989 . S
Co476 O501 1.967 . S
Co476 O508 1.920 . S
Co477 O480 1.966 . S
Co477 N486 2.022 . S
Co477 N494 1.993 . S
Co477 O502 1.941 . S
C478 O479 1.258 . S
C478 O480 1.263 . S
O479 Co476 1.970 . S
O479 C478 1.258 . S
O480 Co477 1.966 . S
O480 C478 1.263 . S
C481 O482 1.235 . S
C481 O508 1.289 . S
O482 C481 1.235 . S
C483 C485 1.400 . S
C483 N486 1.351 . S
C483 C488 1.501 . S
C484 C485 1.387 . S
C484 N487 1.341 . S
C485 C483 1.400 . S
C485 C484 1.387 . S
N486 Co477 2.022 . S
N486 C483 1.351 . S
N486 N487 1.365 . S
N487 C484 1.341 . S
N487 N486 1.365 . S
N487 H507 0.862 . S
C488 C483 1.501 . S
C488 H489 0.961 . S
C488 H490 0.961 . S
C488 H491 0.960 . S
H489 C488 0.961 . S
H490 C488 0.961 . S
H491 C488 0.960 . S
C492 N493 1.342 . S
C492 C496 1.401 . S
C492 C497 1.499 . S
N493 Co476 1.989 . S
N493 C492 1.342 . S
N493 N494 1.388 . S
N494 Co477 1.993 . S
N494 N493 1.388 . S
N494 C495 1.346 . S
C495 N494 1.346 . S
C495 C496 1.396 . S
C495 C505 1.510 . S
C496 C492 1.401 . S
C496 C495 1.396 . S
C497 C492 1.499 . S
C497 H498 0.959 . S
C497 H499 0.960 . S
C497 H500 0.961 . S
H498 C497 0.959 . S
H499 C497 0.960 . S
H500 C497 0.961 . S
O501 Co476 1.967 . S
O501 C509 1.258 . S
O502 Co477 1.941 . S
O502 C509 1.266 . S
H503 C505 0.959 . S
H504 C505 0.961 . S
C505 C495 1.510 . S
C505 H503 0.959 . S
C505 H504 0.961 . S
C505 H506 0.960 . S
H506 C505 0.960 . S
H507 N487 0.862 . S
O508 Co476 1.920 . S
O508 C481 1.289 . S
C509 O501 1.258 . S
C509 O502 1.266 . S
Co510 O513 1.970 . S
Co510 N527 1.989 . S
Co510 O535 1.967 . S
Co510 O542 1.920 . S
Co511 O514 1.966 . S
Co511 N520 2.022 . S
Co511 N528 1.993 . S
Co511 O536 1.941 . S
C512 O513 1.258 . S
C512 O514 1.263 . S
O513 Co510 1.970 . S
O513 C512 1.258 . S
O514 Co511 1.966 . S
O514 C512 1.263 . S
C515 O516 1.235 . S
C515 O542 1.289 . S
O516 C515 1.235 . S
C517 C519 1.400 . S
C517 N520 1.351 . S
C517 C522 1.501 . S
C518 C519 1.387 . S
C518 N521 1.341 . S
C519 C517 1.400 . S
C519 C518 1.387 . S
N520 Co511 2.022 . S
N520 C517 1.351 . S
N520 N521 1.365 . S
N521 C518 1.341 . S
N521 N520 1.365 . S
N521 H541 0.862 . S
C522 C517 1.501 . S
C522 H523 0.961 . S
C522 H524 0.961 . S
C522 H525 0.960 . S
H523 C522 0.961 . S
H524 C522 0.961 . S
H525 C522 0.960 . S
C526 N527 1.342 . S
C526 C530 1.401 . S
C526 C531 1.499 . S
N527 Co510 1.989 . S
N527 C526 1.342 . S
N527 N528 1.388 . S
N528 Co511 1.993 . S
N528 N527 1.388 . S
N528 C529 1.346 . S
C529 N528 1.346 . S
C529 C530 1.396 . S
C529 C539 1.510 . S
C530 C526 1.401 . S
C530 C529 1.396 . S
C531 C526 1.499 . S
C531 H532 0.959 . S
C531 H533 0.960 . S
C531 H534 0.961 . S
H532 C531 0.959 . S
H533 C531 0.960 . S
H534 C531 0.961 . S
O535 Co510 1.967 . S
O535 C543 1.258 . S
O536 Co511 1.941 . S
O536 C543 1.266 . S
H537 C539 0.959 . S
H538 C539 0.961 . S
C539 C529 1.510 . S
C539 H537 0.959 . S
C539 H538 0.961 . S
C539 H540 0.960 . S
H540 C539 0.960 . S
H541 N521 0.862 . S
O542 Co510 1.920 . S
O542 C515 1.289 . S
C543 O535 1.258 . S
C543 O536 1.266 . S
H544 C552 0.950 . S
H545 C557 0.950 . S
H546 C554 0.950 . S
H547 C556 0.950 . S
H548 C558 0.950 . S
H549 C560 0.950 . S
H550 C562 0.950 . S
H551 C563 0.950 . S
C552 H544 0.950 . S
C552 C553 1.386 . S
C552 C554 1.391 . S
C553 C552 1.386 . S
C553 C557 1.393 . S
C554 H546 0.950 . S
C554 C552 1.391 . S
C554 C555 1.400 . S
C555 C554 1.400 . S
C555 C556 1.398 . S
C555 C561 1.491 . S
C556 H547 0.950 . S
C556 C555 1.398 . S
C556 C557 1.391 . S
C557 H545 0.950 . S
C557 C553 1.393 . S
C557 C556 1.391 . S
C558 H548 0.950 . S
C558 C559 1.386 . S
C558 C560 1.391 . S
C559 C558 1.386 . S
C559 C563 1.393 . S
C560 H549 0.950 . S
C560 C558 1.391 . S
C560 C561 1.400 . S
C561 C555 1.491 . S
C561 C560 1.400 . S
C561 C562 1.398 . S
C562 H550 0.950 . S
C562 C561 1.398 . S
C562 C563 1.391 . S
C563 H551 0.950 . S
C563 C559 1.393 . S
C563 C562 1.391 . S
H564 C572 0.950 . S
H565 C577 0.950 . S
H566 C574 0.950 . S
H567 C576 0.950 . S
H568 C578 0.950 . S
H569 C580 0.950 . S
H570 C582 0.950 . S
H571 C583 0.950 . S
C572 H564 0.950 . S
C572 C573 1.386 . S
C572 C574 1.391 . S
C573 C572 1.386 . S
C573 C577 1.393 . S
C574 H566 0.950 . S
C574 C572 1.391 . S
C574 C575 1.400 . S
C575 C574 1.400 . S
C575 C576 1.398 . S
C575 C581 1.491 . S
C576 H567 0.950 . S
C576 C575 1.398 . S
C576 C577 1.391 . S
C577 H565 0.950 . S
C577 C573 1.393 . S
C577 C576 1.391 . S
C578 H568 0.950 . S
C578 C579 1.386 . S
C578 C580 1.391 . S
C579 C578 1.386 . S
C579 C583 1.393 . S
C580 H569 0.950 . S
C580 C578 1.391 . S
C580 C581 1.400 . S
C581 C575 1.491 . S
C581 C580 1.400 . S
C581 C582 1.398 . S
C582 H570 0.950 . S
C582 C581 1.398 . S
C582 C583 1.391 . S
C583 H571 0.950 . S
C583 C579 1.393 . S
C583 C582 1.391 . S
H584 C592 0.950 . S
H585 C597 0.950 . S
H586 C594 0.950 . S
H587 C596 0.950 . S
H588 C598 0.950 . S
H589 C600 0.950 . S
H590 C602 0.950 . S
H591 C603 0.950 . S
C592 H584 0.950 . S
C592 C593 1.386 . S
C592 C594 1.391 . S
C593 C592 1.386 . S
C593 C597 1.393 . S
C594 H586 0.950 . S
C594 C592 1.391 . S
C594 C595 1.400 . S
C595 C594 1.400 . S
C595 C596 1.398 . S
C595 C601 1.491 . S
C596 H587 0.950 . S
C596 C595 1.398 . S
C596 C597 1.391 . S
C597 H585 0.950 . S
C597 C593 1.393 . S
C597 C596 1.391 . S
C598 H588 0.950 . S
C598 C599 1.386 . S
C598 C600 1.391 . S
C599 C598 1.386 . S
C599 C603 1.393 . S
C600 H589 0.950 . S
C600 C598 1.391 . S
C600 C601 1.400 . S
C601 C595 1.491 . S
C601 C600 1.400 . S
C601 C602 1.398 . S
C602 H590 0.950 . S
C602 C601 1.398 . S
C602 C603 1.391 . S
C603 H591 0.950 . S
C603 C599 1.393 . S
C603 C602 1.391 . S
H604 C612 0.950 . S
H605 C617 0.950 . S
H606 C614 0.950 . S
H607 C616 0.950 . S
H608 C618 0.950 . S
H609 C620 0.950 . S
H610 C622 0.950 . S
H611 C623 0.950 . S
C612 H604 0.950 . S
C612 C613 1.386 . S
C612 C614 1.391 . S
C613 C612 1.386 . S
C613 C617 1.393 . S
C614 H606 0.950 . S
C614 C612 1.391 . S
C614 C615 1.400 . S
C615 C614 1.400 . S
C615 C616 1.398 . S
C615 C621 1.491 . S
C616 H607 0.950 . S
C616 C615 1.398 . S
C616 C617 1.391 . S
C617 H605 0.950 . S
C617 C613 1.393 . S
C617 C616 1.391 . S
C618 H608 0.950 . S
C618 C619 1.386 . S
C618 C620 1.391 . S
C619 C618 1.386 . S
C619 C623 1.393 . S
C620 H609 0.950 . S
C620 C618 1.391 . S
C620 C621 1.400 . S
C621 C615 1.491 . S
C621 C620 1.400 . S
C621 C622 1.398 . S
C622 H610 0.950 . S
C622 C621 1.398 . S
C622 C623 1.391 . S
C623 H611 0.950 . S
C623 C619 1.393 . S
C623 C622 1.391 . S
H624 C632 0.950 . S
H625 C637 0.950 . S
H626 C634 0.950 . S
H627 C636 0.950 . S
H628 C638 0.950 . S
H629 C640 0.950 . S
H630 C642 0.950 . S
H631 C643 0.950 . S
C632 H624 0.950 . S
C632 C633 1.386 . S
C632 C634 1.391 . S
C633 C632 1.386 . S
C633 C637 1.393 . S
C634 H626 0.950 . S
C634 C632 1.391 . S
C634 C635 1.400 . S
C635 C634 1.400 . S
C635 C636 1.398 . S
C635 C641 1.491 . S
C636 H627 0.950 . S
C636 C635 1.398 . S
C636 C637 1.391 . S
C637 H625 0.950 . S
C637 C633 1.393 . S
C637 C636 1.391 . S
C638 H628 0.950 . S
C638 C639 1.386 . S
C638 C640 1.391 . S
C639 C638 1.386 . S
C639 C643 1.393 . S
C640 H629 0.950 . S
C640 C638 1.391 . S
C640 C641 1.400 . S
C641 C635 1.491 . S
C641 C640 1.400 . S
C641 C642 1.398 . S
C642 H630 0.950 . S
C642 C641 1.398 . S
C642 C643 1.391 . S
C643 H631 0.950 . S
C643 C639 1.393 . S
C643 C642 1.391 . S
H644 C652 0.950 . S
H645 C657 0.950 . S
H646 C654 0.950 . S
H647 C656 0.950 . S
H648 C658 0.950 . S
H649 C660 0.950 . S
H650 C662 0.950 . S
H651 C663 0.950 . S
C652 H644 0.950 . S
C652 C653 1.386 . S
C652 C654 1.391 . S
C653 C652 1.386 . S
C653 C657 1.393 . S
C654 H646 0.950 . S
C654 C652 1.391 . S
C654 C655 1.400 . S
C655 C654 1.400 . S
C655 C656 1.398 . S
C655 C661 1.491 . S
C656 H647 0.950 . S
C656 C655 1.398 . S
C656 C657 1.391 . S
C657 H645 0.950 . S
C657 C653 1.393 . S
C657 C656 1.391 . S
C658 H648 0.950 . S
C658 C659 1.386 . S
C658 C660 1.391 . S
C659 C658 1.386 . S
C659 C663 1.393 . S
C660 H649 0.950 . S
C660 C658 1.391 . S
C660 C661 1.400 . S
C661 C655 1.491 . S
C661 C660 1.400 . S
C661 C662 1.398 . S
C662 H650 0.950 . S
C662 C661 1.398 . S
C662 C663 1.391 . S
C663 H651 0.950 . S
C663 C659 1.393 . S
C663 C662 1.391 . S
H664 C672 0.950 . S
H665 C677 0.950 . S
H666 C674 0.950 . S
H667 C676 0.950 . S
H668 C678 0.950 . S
H669 C680 0.950 . S
H670 C682 0.950 . S
H671 C683 0.950 . S
C672 H664 0.950 . S
C672 C673 1.386 . S
C672 C674 1.391 . S
C673 C672 1.386 . S
C673 C677 1.393 . S
C674 H666 0.950 . S
C674 C672 1.391 . S
C674 C675 1.400 . S
C675 C674 1.400 . S
C675 C676 1.398 . S
C675 C681 1.491 . S
C676 H667 0.950 . S
C676 C675 1.398 . S
C676 C677 1.391 . S
C677 H665 0.950 . S
C677 C673 1.393 . S
C677 C676 1.391 . S
C678 H668 0.950 . S
C678 C679 1.386 . S
C678 C680 1.391 . S
C679 C678 1.386 . S
C679 C683 1.393 . S
C680 H669 0.950 . S
C680 C678 1.391 . S
C680 C681 1.400 . S
C681 C675 1.491 . S
C681 C680 1.400 . S
C681 C682 1.398 . S
C682 H670 0.950 . S
C682 C681 1.398 . S
C682 C683 1.391 . S
C683 H671 0.950 . S
C683 C679 1.393 . S
C683 C682 1.391 . S
H684 C692 0.950 . S
H685 C697 0.950 . S
H686 C694 0.950 . S
H687 C696 0.950 . S
H688 C698 0.950 . S
H689 C700 0.950 . S
H690 C702 0.950 . S
H691 C703 0.950 . S
C692 H684 0.950 . S
C692 C693 1.386 . S
C692 C694 1.391 . S
C693 C692 1.386 . S
C693 C697 1.393 . S
C694 H686 0.950 . S
C694 C692 1.391 . S
C694 C695 1.400 . S
C695 C694 1.400 . S
C695 C696 1.398 . S
C695 C701 1.491 . S
C696 H687 0.950 . S
C696 C695 1.398 . S
C696 C697 1.391 . S
C697 H685 0.950 . S
C697 C693 1.393 . S
C697 C696 1.391 . S
C698 H688 0.950 . S
C698 C699 1.386 . S
C698 C700 1.391 . S
C699 C698 1.386 . S
C699 C703 1.393 . S
C700 H689 0.950 . S
C700 C698 1.391 . S
C700 C701 1.400 . S
C701 C695 1.491 . S
C701 C700 1.400 . S
C701 C702 1.398 . S
C702 H690 0.950 . S
C702 C701 1.398 . S
C702 C703 1.391 . S
C703 H691 0.950 . S
C703 C699 1.393 . S
C703 C702 1.391 . S
H704 C712 0.950 1_545 S
H705 C717 0.950 1_545 S
H706 C714 0.950 . S
H707 C716 0.950 . S
H708 C718 0.950 . S
H709 C720 0.950 . S
H710 C722 0.950 . S
H711 C723 0.950 . S
C712 H704 0.950 1_565 S
C712 C713 1.386 1_566 S
C712 C714 1.391 . S
C713 C712 1.386 1_544 S
C713 C717 1.393 1_545 S
C714 H706 0.950 . S
C714 C712 1.391 . S
C714 C715 1.400 1_556 S
C715 C714 1.400 1_554 S
C715 C716 1.398 . S
C715 C721 1.491 . S
C716 H707 0.950 . S
C716 C715 1.398 . S
C716 C717 1.391 . S
C717 H705 0.950 1_565 S
C717 C713 1.393 1_565 S
C717 C716 1.391 . S
C718 H708 0.950 . S
C718 C719 1.386 1_554 S
C718 C720 1.391 . S
C719 C718 1.386 1_556 S
C719 C723 1.393 . S
C720 H709 0.950 . S
C720 C718 1.391 . S
C720 C721 1.400 . S
C721 C715 1.491 . S
C721 C720 1.400 . S
C721 C722 1.398 1_554 S
C722 H710 0.950 . S
C722 C721 1.398 1_556 S
C722 C723 1.391 . S
C723 H711 0.950 . S
C723 C719 1.393 . S
C723 C722 1.391 . S
H724 C732 0.950 . S
H725 C737 0.950 . S
H726 C734 0.950 . S
H727 C736 0.950 . S
H728 C738 0.950 . S
H729 C740 0.950 . S
H730 C742 0.950 . S
H731 C743 0.950 . S
C732 H724 0.950 . S
C732 C733 1.386 1_655 S
C732 C734 1.391 . S
C733 C732 1.386 1_455 S
C733 C737 1.393 1_556 S
C734 H726 0.950 . S
C734 C732 1.391 . S
C734 C735 1.400 . S
C735 C734 1.400 . S
C735 C736 1.398 1_556 S
C735 C741 1.491 . S
C736 H727 0.950 . S
C736 C735 1.398 1_554 S
C736 C737 1.391 1_655 S
C737 H725 0.950 . S
C737 C733 1.393 1_554 S
C737 C736 1.391 1_455 S
C738 H728 0.950 . S
C738 C739 1.401 . S
C738 C740 1.391 . S
C739 C738 1.401 . S
C739 C743 1.375 1_554 S
C740 H729 0.950 . S
C740 C738 1.391 . S
C740 C741 1.400 1_554 S
C741 C735 1.491 . S
C741 C740 1.400 1_556 S
C741 C742 1.398 . S
C742 H730 0.950 . S
C742 C741 1.398 . S
C742 C743 1.391 . S
C743 H731 0.950 . S
C743 C739 1.375 1_556 S
C743 C742 1.391 . S
H744 C752 0.950 . S
H745 C757 0.950 . S
H746 C754 0.950 . S
H747 C756 0.950 1_556 S
H748 C758 0.950 . S
H749 C760 0.950 . S
H750 C762 0.950 . S
H751 C763 0.950 . S
C752 H744 0.950 . S
C752 C753 1.386 . S
C752 C754 1.391 1_565 S
C753 C752 1.386 . S
C753 C757 1.393 1_565 S
C754 H746 0.950 . S
C754 C752 1.391 1_545 S
C754 C755 1.400 . S
C755 C754 1.400 . S
C755 C756 1.398 . S
C755 C761 1.491 . S
C756 H747 0.950 1_554 S
C756 C755 1.398 . S
C756 C757 1.391 . S
C757 H745 0.950 . S
C757 C753 1.393 1_545 S
C757 C756 1.391 . S
C758 H748 0.950 . S
C758 C759 1.386 1_556 S
C758 C760 1.391 . S
C759 C758 1.386 1_554 S
C759 C763 1.393 . S
C760 H749 0.950 . S
C760 C758 1.391 . S
C760 C761 1.400 1_556 S
C761 C755 1.491 . S
C761 C760 1.400 1_554 S
C761 C762 1.398 . S
C762 H750 0.950 . S
C762 C761 1.398 . S
C762 C763 1.391 . S
C763 H751 0.950 . S
C763 C759 1.393 . S
C763 C762 1.391 . S
H764 C772 0.950 . S
H765 C777 0.950 . S
H766 C774 0.950 . S
H767 C776 0.950 . S
H768 C778 0.950 . S
H769 C780 0.950 . S
H770 C782 0.941 1_554 S
H771 C783 0.950 1_554 S
C772 H764 0.950 . S
C772 C773 1.386 . S
C772 C774 1.391 . S
C773 C772 1.386 . S
C773 C777 1.393 1_554 S
C774 H766 0.950 . S
C774 C772 1.391 . S
C774 C775 1.400 1_554 S
C775 C774 1.400 1_556 S
C775 C776 1.398 . S
C775 C781 1.491 . S
C776 H767 0.950 . S
C776 C775 1.398 . S
C776 C777 1.391 . S
C777 H765 0.950 . S
C777 C773 1.393 1_556 S
C777 C776 1.391 . S
C778 H768 0.950 . S
C778 C779 1.386 1_455 S
C778 C780 1.391 . S
C779 C778 1.386 1_655 S
C779 C783 1.393 . S
C780 H769 0.950 . S
C780 C778 1.391 . S
C780 C781 1.400 . S
C781 C775 1.491 . S
C781 C780 1.400 . S
C781 C782 1.405 . S
C782 H770 0.941 1_556 S
C782 C781 1.405 . S
C782 C783 1.393 1_455 S
C783 H771 0.950 1_556 S
C783 C779 1.393 . S
C783 C782 1.393 1_655 S
H784 C792 0.950 . S
H785 C797 0.950 . S
H786 C794 0.950 . S
H787 C796 0.950 . S
H788 C798 0.950 . S
H789 C800 0.950 . S
H790 C802 0.950 . S
H791 C803 0.950 . S
C792 H784 0.950 . S
C792 C793 1.386 . S
C792 C794 1.391 . S
C793 C792 1.386 . S
C793 C797 1.393 . S
C794 H786 0.950 . S
C794 C792 1.391 . S
C794 C795 1.400 . S
C795 C794 1.400 . S
C795 C796 1.398 . S
C795 C801 1.491 . S
C796 H787 0.950 . S
C796 C795 1.398 . S
C796 C797 1.391 . S
C797 H785 0.950 . S
C797 C793 1.393 . S
C797 C796 1.391 . S
C798 H788 0.950 . S
C798 C799 1.386 . S
C798 C800 1.391 . S
C799 C798 1.386 . S
C799 C803 1.393 . S
C800 H789 0.950 . S
C800 C798 1.391 . S
C800 C801 1.400 . S
C801 C795 1.491 . S
C801 C800 1.400 . S
C801 C802 1.398 . S
C802 H790 0.950 . S
C802 C801 1.398 . S
C802 C803 1.391 . S
C803 H791 0.950 . S
C803 C799 1.393 . S
C803 C802 1.391 . S
H804 C812 0.950 . S
H805 C817 0.950 . S
H806 C814 0.950 . S
H807 C816 0.950 . S
H808 C818 0.950 . S
H809 C820 0.950 . S
H810 C822 0.950 . S
H811 C823 0.950 . S
C812 H804 0.950 . S
C812 C813 1.386 . S
C812 C814 1.391 . S
C813 C812 1.386 . S
C813 C817 1.393 . S
C814 H806 0.950 . S
C814 C812 1.391 . S
C814 C815 1.400 . S
C815 C814 1.400 . S
C815 C816 1.398 . S
C815 C821 1.491 . S
C816 H807 0.950 . S
C816 C815 1.398 . S
C816 C817 1.391 . S
C817 H805 0.950 . S
C817 C813 1.393 . S
C817 C816 1.391 . S
C818 H808 0.950 . S
C818 C819 1.386 . S
C818 C820 1.391 . S
C819 C818 1.386 . S
C819 C823 1.393 . S
C820 H809 0.950 . S
C820 C818 1.391 . S
C820 C821 1.400 . S
C821 C815 1.491 . S
C821 C820 1.400 . S
C821 C822 1.398 . S
C822 H810 0.950 . S
C822 C821 1.398 . S
C822 C823 1.391 . S
C823 H811 0.950 . S
C823 C819 1.393 . S
C823 C822 1.391 . S
H824 C832 0.950 . S
H825 C837 0.950 . S
H826 C834 0.950 . S
H827 C836 0.950 . S
H828 C838 0.950 . S
H829 C840 0.950 . S
H830 C842 0.950 . S
H831 C843 0.950 . S
C832 H824 0.950 . S
C832 C833 1.386 . S
C832 C834 1.391 . S
C833 C832 1.386 . S
C833 C837 1.393 . S
C834 H826 0.950 . S
C834 C832 1.391 . S
C834 C835 1.400 . S
C835 C834 1.400 . S
C835 C836 1.398 . S
C835 C841 1.491 . S
C836 H827 0.950 . S
C836 C835 1.398 . S
C836 C837 1.391 . S
C837 H825 0.950 . S
C837 C833 1.393 . S
C837 C836 1.391 . S
C838 H828 0.950 . S
C838 C839 1.386 . S
C838 C840 1.391 . S
C839 C838 1.386 . S
C839 C843 1.393 . S
C840 H829 0.950 . S
C840 C838 1.391 . S
C840 C841 1.400 . S
C841 C835 1.491 . S
C841 C840 1.400 . S
C841 C842 1.398 . S
C842 H830 0.950 . S
C842 C841 1.398 . S
C842 C843 1.391 . S
C843 H831 0.950 . S
C843 C839 1.393 . S
C843 C842 1.391 . S
H844 C852 0.950 . S
H845 C857 0.950 . S
H846 C854 0.950 . S
H847 C856 0.950 . S
H848 C858 0.950 . S
H849 C860 0.950 . S
H850 C862 0.950 . S
H851 C863 0.950 . S
C852 H844 0.950 . S
C852 C853 1.386 . S
C852 C854 1.391 . S
C853 C852 1.386 . S
C853 C857 1.393 . S
C854 H846 0.950 . S
C854 C852 1.391 . S
C854 C855 1.400 . S
C855 C854 1.400 . S
C855 C856 1.398 . S
C855 C861 1.491 . S
C856 H847 0.950 . S
C856 C855 1.398 . S
C856 C857 1.391 . S
C857 H845 0.950 . S
C857 C853 1.393 . S
C857 C856 1.391 . S
C858 H848 0.950 . S
C858 C859 1.386 . S
C858 C860 1.391 . S
C859 C858 1.386 . S
C859 C863 1.393 . S
C860 H849 0.950 . S
C860 C858 1.391 . S
C860 C861 1.400 . S
C861 C855 1.491 . S
C861 C860 1.400 . S
C861 C862 1.398 . S
C862 H850 0.950 . S
C862 C861 1.398 . S
C862 C863 1.391 . S
C863 H851 0.950 . S
C863 C859 1.393 . S
C863 C862 1.391 . S
H864 C872 0.950 . S
H865 C877 0.950 . S
H866 C874 0.950 . S
H867 C876 0.950 . S
H868 C878 0.950 . S
H869 C880 0.950 . S
H870 C882 0.950 . S
H871 C883 0.950 . S
C872 H864 0.950 . S
C872 C873 1.386 . S
C872 C874 1.391 . S
C873 C872 1.386 . S
C873 C877 1.393 . S
C874 H866 0.950 . S
C874 C872 1.391 . S
C874 C875 1.400 . S
C875 C874 1.400 . S
C875 C876 1.398 . S
C875 C881 1.491 . S
C876 H867 0.950 . S
C876 C875 1.398 . S
C876 C877 1.391 . S
C877 H865 0.950 . S
C877 C873 1.393 . S
C877 C876 1.391 . S
C878 H868 0.950 . S
C878 C879 1.386 . S
C878 C880 1.391 . S
C879 C878 1.386 . S
C879 C883 1.393 . S
C880 H869 0.950 . S
C880 C878 1.391 . S
C880 C881 1.400 . S
C881 C875 1.491 . S
C881 C880 1.400 . S
C881 C882 1.398 . S
C882 H870 0.950 . S
C882 C881 1.398 . S
C882 C883 1.391 . S
C883 H871 0.950 . S
C883 C879 1.393 . S
C883 C882 1.391 . S
H884 C892 0.950 . S
H885 C897 0.950 . S
H886 C894 0.950 . S
H887 C896 0.950 . S
H888 C898 0.950 . S
H889 C900 0.950 . S
H890 C902 0.950 . S
H891 C903 0.950 . S
C892 H884 0.950 . S
C892 C893 1.386 . S
C892 C894 1.391 . S
C893 C892 1.386 . S
C893 C897 1.393 . S
C894 H886 0.950 . S
C894 C892 1.391 . S
C894 C895 1.400 . S
C895 C894 1.400 . S
C895 C896 1.398 . S
C895 C901 1.491 . S
C896 H887 0.950 . S
C896 C895 1.398 . S
C896 C897 1.391 . S
C897 H885 0.950 . S
C897 C893 1.393 . S
C897 C896 1.391 . S
C898 H888 0.950 . S
C898 C899 1.386 . S
C898 C900 1.391 . S
C899 C898 1.386 . S
C899 C903 1.393 . S
C900 H889 0.950 . S
C900 C898 1.391 . S
C900 C901 1.400 . S
C901 C895 1.491 . S
C901 C900 1.400 . S
C901 C902 1.398 . S
C902 H890 0.950 . S
C902 C901 1.398 . S
C902 C903 1.391 . S
C903 H891 0.950 . S
C903 C899 1.393 . S
C903 C902 1.391 . S
H904 C912 0.950 . S
H905 C917 0.950 . S
H906 C914 0.950 . S
H907 C916 0.950 . S
H908 C918 0.950 . S
H909 C920 0.950 . S
H910 C922 0.950 . S
H911 C923 0.950 . S
C912 H904 0.950 . S
C912 C913 1.386 . S
C912 C914 1.391 . S
C913 C912 1.386 . S
C913 C917 1.393 . S
C914 H906 0.950 . S
C914 C912 1.391 . S
C914 C915 1.400 . S
C915 C914 1.400 . S
C915 C916 1.398 . S
C915 C921 1.491 . S
C916 H907 0.950 . S
C916 C915 1.398 . S
C916 C917 1.391 . S
C917 H905 0.950 . S
C917 C913 1.393 . S
C917 C916 1.391 . S
C918 H908 0.950 . S
C918 C919 1.386 . S
C918 C920 1.391 . S
C919 C918 1.386 . S
C919 C923 1.393 . S
C920 H909 0.950 . S
C920 C918 1.391 . S
C920 C921 1.400 . S
C921 C915 1.491 . S
C921 C920 1.400 . S
C921 C922 1.398 . S
C922 H910 0.950 . S
C922 C921 1.398 . S
C922 C923 1.391 . S
C923 H911 0.950 . S
C923 C919 1.393 . S
C923 C922 1.391 . S
H924 C932 0.950 . S
H925 C937 0.950 . S
H926 C934 0.950 . S
H927 C936 0.950 . S
H928 C938 0.950 . S
H929 C940 0.950 . S
H930 C942 0.950 . S
H931 C943 0.950 . S
C932 H924 0.950 . S
C932 C933 1.386 . S
C932 C934 1.391 . S
C933 C932 1.386 . S
C933 C937 1.393 . S
C934 H926 0.950 . S
C934 C932 1.391 . S
C934 C935 1.400 . S
C935 C934 1.400 . S
C935 C936 1.398 . S
C935 C941 1.491 . S
C936 H927 0.950 . S
C936 C935 1.398 . S
C936 C937 1.391 . S
C937 H925 0.950 . S
C937 C933 1.393 . S
C937 C936 1.391 . S
C938 H928 0.950 . S
C938 C939 1.386 . S
C938 C940 1.391 . S
C939 C938 1.386 . S
C939 C943 1.393 . S
C940 H929 0.950 . S
C940 C938 1.391 . S
C940 C941 1.400 . S
C941 C935 1.491 . S
C941 C940 1.400 . S
C941 C942 1.398 . S
C942 H930 0.950 . S
C942 C941 1.398 . S
C942 C943 1.391 . S
C943 H931 0.950 . S
C943 C939 1.393 . S
C943 C942 1.391 . S
H944 C952 0.950 1_565 S
H945 C957 0.950 1_565 S
H946 C954 0.950 . S
H947 C956 0.950 . S
H948 C958 0.950 . S
H949 C960 0.950 . S
H950 C962 0.950 . S
H951 C963 0.950 . S
C952 H944 0.950 1_545 S
C952 C953 1.386 1_545 S
C952 C954 1.391 . S
C953 C952 1.386 1_565 S
C953 C957 1.393 1_565 S
C954 H946 0.950 . S
C954 C952 1.391 . S
C954 C955 1.400 . S
C955 C954 1.400 . S
C955 C956 1.398 . S
C955 C961 1.491 . S
C956 H947 0.950 . S
C956 C955 1.398 . S
C956 C957 1.391 . S
C957 H945 0.950 1_545 S
C957 C953 1.393 1_545 S
C957 C956 1.391 . S
C958 H948 0.950 . S
C958 C959 1.386 . S
C958 C960 1.391 . S
C959 C958 1.386 . S
C959 C963 1.393 . S
C960 H949 0.950 . S
C960 C958 1.391 . S
C960 C961 1.400 . S
C961 C955 1.491 . S
C961 C960 1.400 . S
C961 C962 1.398 . S
C962 H950 0.950 . S
C962 C961 1.398 . S
C962 C963 1.391 . S
C963 H951 0.950 . S
C963 C959 1.393 . S
C963 C962 1.391 . S
H964 C972 0.950 . S
H965 C977 0.950 . S
H966 C974 0.950 . S
H967 C976 0.950 . S
H968 C978 0.950 1_655 S
H969 C980 0.950 . S
H970 C982 0.950 . S
H971 C983 0.950 1_655 S
C972 H964 0.950 . S
C972 C973 1.386 . S
C972 C974 1.391 . S
C973 C972 1.386 . S
C973 C977 1.393 . S
C974 H966 0.950 . S
C974 C972 1.391 . S
C974 C975 1.400 . S
C975 C974 1.400 . S
C975 C976 1.398 . S
C975 C981 1.491 . S
C976 H967 0.950 . S
C976 C975 1.398 . S
C976 C977 1.391 . S
C977 H965 0.950 . S
C977 C973 1.393 . S
C977 C976 1.391 . S
C978 H968 0.950 1_455 S
C978 C979 1.386 1_455 S
C978 C980 1.391 . S
C979 C978 1.386 1_655 S
C979 C983 1.393 1_655 S
C980 H969 0.950 . S
C980 C978 1.391 . S
C980 C981 1.400 . S
C981 C975 1.491 . S
C981 C980 1.400 . S
C981 C982 1.398 . S
C982 H970 0.950 . S
C982 C981 1.398 . S
C982 C983 1.391 . S
C983 H971 0.950 1_455 S
C983 C979 1.393 1_455 S
C983 C982 1.391 . S
H984 C992 0.950 . S
H985 C997 0.950 . S
H986 C994 0.950 . S
H987 C996 0.950 . S
H988 C998 0.950 . S
H989 C1000 0.950 . S
H990 C1002 0.950 . S
H991 C1003 0.950 . S
C992 H984 0.950 . S
C992 C993 1.386 . S
C992 C994 1.391 . S
C993 C992 1.386 . S
C993 C997 1.393 . S
C994 H986 0.950 . S
C994 C992 1.391 . S
C994 C995 1.400 . S
C995 C994 1.400 . S
C995 C996 1.398 . S
C995 C1001 1.491 . S
C996 H987 0.950 . S
C996 C995 1.398 . S
C996 C997 1.391 . S
C997 H985 0.950 . S
C997 C993 1.393 . S
C997 C996 1.391 . S
C998 H988 0.950 . S
C998 C999 1.386 1_565 S
C998 C1000 1.391 . S
C999 C998 1.386 1_545 S
C999 C1003 1.393 . S
C1000 H989 0.950 . S
C1000 C998 1.391 . S
C1000 C1001 1.400 . S
C1001 C995 1.491 . S
C1001 C1000 1.400 . S
C1001 C1002 1.398 . S
C1002 H990 0.950 . S
C1002 C1001 1.398 . S
C1002 C1003 1.391 1_565 S
C1003 H991 0.950 . S
C1003 C999 1.393 . S
C1003 C1002 1.391 1_545 S
H1004 C1012 0.950 . S
H1005 C1017 0.950 . S
H1006 C1014 0.950 . S
H1007 C1016 0.950 . S
H1008 C1018 0.950 . S
H1009 C1020 0.950 . S
H1010 C1022 0.950 . S
H1011 C1023 0.950 . S
C1012 H1004 0.950 . S
C1012 C1013 1.386 . S
C1012 C1014 1.391 1_455 S
C1013 C1012 1.386 . S
C1013 C1017 1.393 1_455 S
C1014 H1006 0.950 . S
C1014 C1012 1.391 1_655 S
C1014 C1015 1.400 . S
C1015 C1014 1.400 . S
C1015 C1016 1.398 . S
C1015 C1021 1.491 . S
C1016 H1007 0.950 . S
C1016 C1015 1.398 . S
C1016 C1017 1.391 . S
C1017 H1005 0.950 . S
C1017 C1013 1.393 1_655 S
C1017 C1016 1.391 . S
C1018 H1008 0.950 . S
C1018 C1019 1.386 . S
C1018 C1020 1.391 . S
C1019 C1018 1.386 . S
C1019 C1023 1.393 . S
C1020 H1009 0.950 . S
C1020 C1018 1.391 . S
C1020 C1021 1.400 . S
C1021 C1015 1.491 . S
C1021 C1020 1.400 . S
C1021 C1022 1.398 . S
C1022 H1010 0.950 . S
C1022 C1021 1.398 . S
C1022 C1023 1.391 . S
C1023 H1011 0.950 . S
C1023 C1019 1.393 . S
C1023 C1022 1.391 . S
H1024 C1032 0.950 . S
H1025 C1037 0.950 . S
H1026 C1034 0.950 . S
H1027 C1036 0.950 . S
H1028 C1038 0.950 . S
H1029 C1040 0.950 . S
H1030 C1042 0.950 . S
H1031 C1043 0.950 . S
C1032 H1024 0.950 . S
C1032 C1033 1.386 . S
C1032 C1034 1.391 1_545 S
C1033 C1032 1.386 . S
C1033 C1037 1.393 . S
C1034 H1026 0.950 . S
C1034 C1032 1.391 1_565 S
C1034 C1035 1.400 1_565 S
C1035 C1034 1.400 1_545 S
C1035 C1036 1.398 . S
C1035 C1041 1.491 1_545 S
C1036 H1027 0.950 . S
C1036 C1035 1.398 . S
C1036 C1037 1.391 . S
C1037 H1025 0.950 . S
C1037 C1033 1.393 . S
C1037 C1036 1.391 . S
C1038 H1028 0.950 . S
C1038 C1039 1.386 . S
C1038 C1040 1.391 1_565 S
C1039 C1038 1.386 . S
C1039 C1043 1.393 . S
C1040 H1029 0.950 . S
C1040 C1038 1.391 1_545 S
C1040 C1041 1.400 1_545 S
C1041 C1035 1.491 1_565 S
C1041 C1040 1.400 1_565 S
C1041 C1042 1.398 . S
C1042 H1030 0.950 . S
C1042 C1041 1.398 . S
C1042 C1043 1.391 . S
C1043 H1031 0.950 . S
C1043 C1039 1.393 . S
C1043 C1042 1.391 . S
H1044 C1052 0.950 . S
H1045 C1057 0.950 . S
H1046 C1054 0.950 . S
H1047 C1056 0.966 . S
H1048 C1058 0.950 . S
H1049 C1060 0.950 . S
H1050 C1062 0.950 . S
H1051 C1063 0.950 . S
C1052 H1044 0.950 . S
C1052 C1053 1.386 . S
C1052 C1054 1.391 . S
C1053 C1052 1.386 . S
C1053 C1057 1.393 . S
C1054 H1046 0.950 . S
C1054 C1052 1.391 . S
C1054 C1055 1.400 . S
C1055 C1054 1.400 . S
C1055 C1056 1.398 1_455 S
C1055 C1061 1.491 1_455 S
C1056 H1047 0.966 . S
C1056 C1055 1.398 1_655 S
C1056 C1057 1.391 1_655 S
C1057 H1045 0.950 . S
C1057 C1053 1.393 . S
C1057 C1056 1.391 1_455 S
C1058 H1048 0.950 . S
C1058 C1059 1.386 . S
C1058 C1060 1.391 . S
C1059 C1058 1.386 . S
C1059 C1063 1.393 . S
C1060 H1049 0.950 . S
C1060 C1058 1.391 . S
C1060 C1061 1.400 . S
C1061 C1055 1.491 1_655 S
C1061 C1060 1.400 . S
C1061 C1062 1.398 1_655 S
C1062 H1050 0.950 . S
C1062 C1061 1.398 1_455 S
C1062 C1063 1.391 1_455 S
C1063 H1051 0.950 . S
C1063 C1059 1.393 . S
C1063 C1062 1.391 1_655 S
H1064 C1072 0.950 . S
H1065 C1077 0.950 . S
H1066 C1074 0.950 . S
H1067 C1076 0.950 . S
H1068 C1078 0.950 . S
H1069 C1080 0.950 . S
H1070 C1082 0.950 . S
H1071 C1083 0.950 . S
C1072 H1064 0.950 . S
C1072 C1073 1.386 . S
C1072 C1074 1.391 . S
C1073 C1072 1.386 . S
C1073 C1077 1.393 . S
C1074 H1066 0.950 . S
C1074 C1072 1.391 . S
C1074 C1075 1.400 . S
C1075 C1074 1.400 . S
C1075 C1076 1.398 . S
C1075 C1081 1.491 . S
C1076 H1067 0.950 . S
C1076 C1075 1.398 . S
C1076 C1077 1.391 . S
C1077 H1065 0.950 . S
C1077 C1073 1.393 . S
C1077 C1076 1.391 . S
C1078 H1068 0.950 . S
C1078 C1079 1.386 . S
C1078 C1080 1.391 . S
C1079 C1078 1.386 . S
C1079 C1083 1.393 . S
C1080 H1069 0.950 . S
C1080 C1078 1.391 . S
C1080 C1081 1.400 . S
C1081 C1075 1.491 . S
C1081 C1080 1.400 . S
C1081 C1082 1.398 . S
C1082 H1070 0.950 . S
C1082 C1081 1.398 . S
C1082 C1083 1.391 . S
C1083 H1071 0.950 . S
C1083 C1079 1.393 . S
C1083 C1082 1.391 . S
H1084 C1092 0.950 . S
H1085 C1097 0.950 . S
H1086 C1094 0.950 . S
H1087 C1096 0.950 . S
H1088 C1098 0.950 . S
H1089 C1100 0.950 . S
H1090 C1102 0.950 . S
H1091 C1103 0.950 . S
C1092 H1084 0.950 . S
C1092 C1093 1.386 . S
C1092 C1094 1.391 . S
C1093 C1092 1.386 . S
C1093 C1097 1.393 . S
C1094 H1086 0.950 . S
C1094 C1092 1.391 . S
C1094 C1095 1.400 . S
C1095 C1094 1.400 . S
C1095 C1096 1.398 . S
C1095 C1101 1.491 . S
C1096 H1087 0.950 . S
C1096 C1095 1.398 . S
C1096 C1097 1.391 . S
C1097 H1085 0.950 . S
C1097 C1093 1.393 . S
C1097 C1096 1.391 . S
C1098 H1088 0.950 . S
C1098 C1099 1.386 . S
C1098 C1100 1.391 . S
C1099 C1098 1.386 . S
C1099 C1103 1.393 . S
C1100 H1089 0.950 . S
C1100 C1098 1.391 . S
C1100 C1101 1.400 . S
C1101 C1095 1.491 . S
C1101 C1100 1.400 . S
C1101 C1102 1.398 . S
C1102 H1090 0.950 . S
C1102 C1101 1.398 . S
C1102 C1103 1.391 . S
C1103 H1091 0.950 . S
C1103 C1099 1.393 . S
C1103 C1102 1.391 . S
H1104 C1112 0.950 . S
H1105 C1117 0.950 . S
H1106 C1114 0.950 1_455 S
H1107 C1116 0.950 . S
H1108 C1118 0.950 . S
H1109 C1120 0.950 1_655 S
H1110 C1122 0.950 . S
H1111 C1123 0.950 . S
C1112 H1104 0.950 . S
C1112 C1113 1.386 . S
C1112 C1114 1.391 . S
C1113 C1112 1.386 . S
C1113 C1117 1.393 . S
C1114 H1106 0.950 1_655 S
C1114 C1112 1.391 . S
C1114 C1115 1.400 . S
C1115 C1114 1.400 . S
C1115 C1116 1.398 . S
C1115 C1121 1.491 1_655 S
C1116 H1107 0.950 . S
C1116 C1115 1.398 . S
C1116 C1117 1.391 . S
C1117 H1105 0.950 . S
C1117 C1113 1.393 . S
C1117 C1116 1.391 . S
C1118 H1108 0.950 . S
C1118 C1119 1.386 . S
C1118 C1120 1.391 . S
C1119 C1118 1.386 . S
C1119 C1123 1.393 . S
C1120 H1109 0.950 1_455 S
C1120 C1118 1.391 . S
C1120 C1121 1.400 . S
C1121 C1115 1.491 1_455 S
C1121 C1120 1.400 . S
C1121 C1122 1.398 . S
C1122 H1110 0.950 . S
C1122 C1121 1.398 . S
C1122 C1123 1.391 . S
C1123 H1111 0.950 . S
C1123 C1119 1.393 . S
C1123 C1122 1.391 . S
H1124 C1132 0.950 . S
H1125 C1137 0.950 . S
H1126 C1134 0.950 . S
H1127 C1136 0.950 1_565 S
H1128 C1138 0.950 . S
H1129 C1140 0.950 . S
H1130 C1142 0.950 1_545 S
H1131 C1143 0.950 . S
C1132 H1124 0.950 . S
C1132 C1133 1.386 . S
C1132 C1134 1.391 . S
C1133 C1132 1.386 . S
C1133 C1137 1.393 . S
C1134 H1126 0.950 . S
C1134 C1132 1.391 . S
C1134 C1135 1.400 . S
C1135 C1134 1.400 . S
C1135 C1136 1.398 . S
C1135 C1141 1.491 1_545 S
C1136 H1127 0.950 1_545 S
C1136 C1135 1.398 . S
C1136 C1137 1.391 . S
C1137 H1125 0.950 . S
C1137 C1133 1.393 . S
C1137 C1136 1.391 . S
C1138 H1128 0.950 . S
C1138 C1139 1.386 . S
C1138 C1140 1.391 . S
C1139 C1138 1.386 . S
C1139 C1143 1.393 . S
C1140 H1129 0.950 . S
C1140 C1138 1.391 . S
C1140 C1141 1.400 . S
C1141 C1135 1.491 1_565 S
C1141 C1140 1.400 . S
C1141 C1142 1.398 . S
C1142 H1130 0.950 1_565 S
C1142 C1141 1.398 . S
C1142 C1143 1.391 . S
C1143 H1131 0.950 . S
C1143 C1139 1.393 . S
C1143 C1142 1.391 . S
H1144 C1152 0.950 . S
H1145 C1157 0.950 . S
H1146 C1154 0.950 1_455 S
H1147 C1156 0.950 . S
H1148 C1158 0.950 . S
H1149 C1160 0.950 1_655 S
H1150 C1162 0.950 . S
H1151 C1163 0.950 . S
C1152 H1144 0.950 . S
C1152 C1153 1.386 . S
C1152 C1154 1.391 . S
C1153 C1152 1.386 . S
C1153 C1157 1.393 . S
C1154 H1146 0.950 1_655 S
C1154 C1152 1.391 . S
C1154 C1155 1.400 . S
C1155 C1154 1.400 . S
C1155 C1156 1.398 1_565 S
C1155 C1161 1.491 1_665 S
C1156 H1147 0.950 . S
C1156 C1155 1.398 1_545 S
C1156 C1157 1.391 1_545 S
C1157 H1145 0.950 . S
C1157 C1153 1.393 . S
C1157 C1156 1.391 1_565 S
C1158 H1148 0.950 . S
C1158 C1159 1.386 . S
C1158 C1160 1.391 . S
C1159 C1158 1.386 . S
C1159 C1163 1.393 . S
C1160 H1149 0.950 1_455 S
C1160 C1158 1.391 . S
C1160 C1161 1.400 . S
C1161 C1155 1.491 1_445 S
C1161 C1160 1.400 . S
C1161 C1162 1.398 1_545 S
C1162 H1150 0.950 . S
C1162 C1161 1.398 1_565 S
C1162 C1163 1.391 1_565 S
C1163 H1151 0.950 . S
C1163 C1159 1.393 . S
C1163 C1162 1.391 1_545 S
H1164 C1172 0.950 . S
H1165 C1177 0.950 . S
H1166 C1174 0.950 1_565 S
H1167 C1176 0.950 1_455 S
H1168 C1178 0.950 . S
H1169 C1180 0.950 1_545 S
H1170 C1182 0.950 1_655 S
H1171 C1183 0.950 . S
C1172 H1164 0.950 . S
C1172 C1173 1.386 . S
C1172 C1174 1.391 . S
C1173 C1172 1.386 . S
C1173 C1177 1.393 . S
C1174 H1166 0.950 1_545 S
C1174 C1172 1.391 . S
C1174 C1175 1.400 . S
C1175 C1174 1.400 . S
C1175 C1176 1.398 . S
C1175 C1181 1.491 1_645 S
C1176 H1167 0.950 1_655 S
C1176 C1175 1.398 . S
C1176 C1177 1.391 . S
C1177 H1165 0.950 . S
C1177 C1173 1.393 . S
C1177 C1176 1.391 . S
C1178 H1168 0.950 . S
C1178 C1179 1.386 . S
C1178 C1180 1.391 . S
C1179 C1178 1.386 . S
C1179 C1183 1.393 . S
C1180 H1169 0.950 1_565 S
C1180 C1178 1.391 . S
C1180 C1181 1.400 . S
C1181 C1175 1.491 1_465 S
C1181 C1180 1.400 . S
C1181 C1182 1.398 . S
C1182 H1170 0.950 1_455 S
C1182 C1181 1.398 . S
C1182 C1183 1.391 . S
C1183 H1171 0.950 . S
C1183 C1179 1.393 . S
C1183 C1182 1.391 . S
H1184 C1192 0.950 . S
H1185 C1197 0.950 . S
H1186 C1194 0.950 . S
H1187 C1196 0.950 . S
H1188 C1198 0.950 . S
H1189 C1200 0.950 . S
H1190 C1202 0.950 . S
H1191 C1203 0.950 . S
C1192 H1184 0.950 . S
C1192 C1193 1.386 . S
C1192 C1194 1.391 . S
C1193 C1192 1.386 . S
C1193 C1197 1.393 . S
C1194 H1186 0.950 . S
C1194 C1192 1.391 . S
C1194 C1195 1.400 . S
C1195 C1194 1.400 . S
C1195 C1196 1.398 . S
C1195 C1201 1.491 . S
C1196 H1187 0.950 . S
C1196 C1195 1.398 . S
C1196 C1197 1.391 . S
C1197 H1185 0.950 . S
C1197 C1193 1.393 . S
C1197 C1196 1.391 . S
C1198 H1188 0.950 . S
C1198 C1199 1.386 . S
C1198 C1200 1.391 . S
C1199 C1198 1.386 . S
C1199 C1203 1.393 . S
C1200 H1189 0.950 . S
C1200 C1198 1.391 . S
C1200 C1201 1.400 . S
C1201 C1195 1.491 . S
C1201 C1200 1.400 . S
C1201 C1202 1.398 . S
C1202 H1190 0.950 . S
C1202 C1201 1.398 . S
C1202 C1203 1.391 . S
C1203 H1191 0.950 . S
C1203 C1199 1.393 . S
C1203 C1202 1.391 . S
H1204 C1212 0.950 . S
H1205 C1217 0.950 . S
H1206 C1214 0.950 . S
H1207 C1216 0.950 . S
H1208 C1218 0.950 . S
H1209 C1220 0.950 . S
H1210 C1222 0.950 . S
H1211 C1223 0.950 . S
C1212 H1204 0.950 . S
C1212 C1213 1.386 . S
C1212 C1214 1.391 . S
C1213 C1212 1.386 . S
C1213 C1217 1.393 . S
C1214 H1206 0.950 . S
C1214 C1212 1.391 . S
C1214 C1215 1.400 . S
C1215 C1214 1.400 . S
C1215 C1216 1.398 . S
C1215 C1221 1.491 . S
C1216 H1207 0.950 . S
C1216 C1215 1.398 . S
C1216 C1217 1.391 . S
C1217 H1205 0.950 . S
C1217 C1213 1.393 . S
C1217 C1216 1.391 . S
C1218 H1208 0.950 . S
C1218 C1219 1.386 . S
C1218 C1220 1.391 . S
C1219 C1218 1.386 . S
C1219 C1223 1.393 . S
C1220 H1209 0.950 . S
C1220 C1218 1.391 . S
C1220 C1221 1.400 . S
C1221 C1215 1.491 . S
C1221 C1220 1.400 . S
C1221 C1222 1.398 . S
C1222 H1210 0.950 . S
C1222 C1221 1.398 . S
C1222 C1223 1.391 . S
C1223 H1211 0.950 . S
C1223 C1219 1.393 . S
C1223 C1222 1.391 . S
H1224 C1232 0.950 . S
H1225 C1237 0.950 . S
H1226 C1234 0.950 . S
H1227 C1236 0.950 . S
H1228 C1238 0.950 . S
H1229 C1240 0.950 . S
H1230 C1242 0.950 . S
H1231 C1243 0.950 . S
C1232 H1224 0.950 . S
C1232 C1233 1.386 . S
C1232 C1234 1.391 . S
C1233 C1232 1.386 . S
C1233 C1237 1.393 . S
C1234 H1226 0.950 . S
C1234 C1232 1.391 . S
C1234 C1235 1.400 . S
C1235 C1234 1.400 . S
C1235 C1236 1.398 . S
C1235 C1241 1.491 . S
C1236 H1227 0.950 . S
C1236 C1235 1.398 . S
C1236 C1237 1.391 . S
C1237 H1225 0.950 . S
C1237 C1233 1.393 . S
C1237 C1236 1.391 . S
C1238 H1228 0.950 . S
C1238 C1239 1.386 . S
C1238 C1240 1.391 . S
C1239 C1238 1.386 . S
C1239 C1243 1.393 . S
C1240 H1229 0.950 . S
C1240 C1238 1.391 . S
C1240 C1241 1.400 . S
C1241 C1235 1.491 . S
C1241 C1240 1.400 . S
C1241 C1242 1.398 . S
C1242 H1230 0.950 . S
C1242 C1241 1.398 . S
C1242 C1243 1.391 . S
C1243 H1231 0.950 . S
C1243 C1239 1.393 . S
C1243 C1242 1.391 . S
H1244 C1252 0.950 . S
H1245 C1257 0.950 . S
H1246 C1254 0.950 . S
H1247 C1256 0.950 . S
H1248 C1258 0.950 . S
H1249 C1260 0.950 . S
H1250 C1262 0.950 . S
H1251 C1263 0.950 . S
C1252 H1244 0.950 . S
C1252 C1253 1.386 . S
C1252 C1254 1.391 . S
C1253 C1252 1.386 . S
C1253 C1257 1.393 . S
C1254 H1246 0.950 . S
C1254 C1252 1.391 . S
C1254 C1255 1.400 . S
C1255 C1254 1.400 . S
C1255 C1256 1.398 . S
C1255 C1261 1.491 . S
C1256 H1247 0.950 . S
C1256 C1255 1.398 . S
C1256 C1257 1.391 . S
C1257 H1245 0.950 . S
C1257 C1253 1.393 . S
C1257 C1256 1.391 . S
C1258 H1248 0.950 . S
C1258 C1259 1.386 . S
C1258 C1260 1.391 . S
C1259 C1258 1.386 . S
C1259 C1263 1.393 . S
C1260 H1249 0.950 . S
C1260 C1258 1.391 . S
C1260 C1261 1.400 . S
C1261 C1255 1.491 . S
C1261 C1260 1.400 . S
C1261 C1262 1.398 . S
C1262 H1250 0.950 . S
C1262 C1261 1.398 . S
C1262 C1263 1.391 . S
C1263 H1251 0.950 . S
C1263 C1259 1.393 . S
C1263 C1262 1.391 . S
H1264 C1272 0.950 . S
H1265 C1277 0.950 . S
H1266 C1274 0.950 . S
H1267 C1276 0.950 . S
H1268 C1278 0.950 . S
H1269 C1280 0.950 . S
H1270 C1282 0.950 . S
H1271 C1283 0.950 . S
C1272 H1264 0.950 . S
C1272 C1273 1.386 . S
C1272 C1274 1.391 . S
C1273 C1272 1.386 . S
C1273 C1277 1.393 . S
C1274 H1266 0.950 . S
C1274 C1272 1.391 . S
C1274 C1275 1.400 . S
C1275 C1274 1.400 . S
C1275 C1276 1.398 . S
C1275 C1281 1.491 . S
C1276 H1267 0.950 . S
C1276 C1275 1.398 . S
C1276 C1277 1.391 . S
C1277 H1265 0.950 . S
C1277 C1273 1.393 . S
C1277 C1276 1.391 . S
C1278 H1268 0.950 . S
C1278 C1279 1.386 . S
C1278 C1280 1.391 . S
C1279 C1278 1.386 . S
C1279 C1283 1.393 . S
C1280 H1269 0.950 . S
C1280 C1278 1.391 . S
C1280 C1281 1.400 . S
C1281 C1275 1.491 . S
C1281 C1280 1.400 . S
C1281 C1282 1.398 . S
C1282 H1270 0.950 . S
C1282 C1281 1.398 . S
C1282 C1283 1.391 . S
C1283 H1271 0.950 . S
C1283 C1279 1.393 . S
C1283 C1282 1.391 . S
H1284 C1292 0.950 . S
H1285 C1297 0.950 . S
H1286 C1294 0.950 . S
H1287 C1296 0.950 . S
H1288 C1298 0.950 . S
H1289 C1300 0.950 . S
H1290 C1302 0.950 . S
H1291 C1303 0.950 . S
C1292 H1284 0.950 . S
C1292 C1293 1.386 . S
C1292 C1294 1.391 . S
C1293 C1292 1.386 . S
C1293 C1297 1.393 . S
C1294 H1286 0.950 . S
C1294 C1292 1.391 . S
C1294 C1295 1.400 . S
C1295 C1294 1.400 . S
C1295 C1296 1.398 . S
C1295 C1301 1.491 . S
C1296 H1287 0.950 . S
C1296 C1295 1.398 . S
C1296 C1297 1.391 . S
C1297 H1285 0.950 . S
C1297 C1293 1.393 . S
C1297 C1296 1.391 . S
C1298 H1288 0.950 . S
C1298 C1299 1.386 . S
C1298 C1300 1.391 . S
C1299 C1298 1.386 . S
C1299 C1303 1.393 . S
C1300 H1289 0.950 . S
C1300 C1298 1.391 . S
C1300 C1301 1.400 . S
C1301 C1295 1.491 . S
C1301 C1300 1.400 . S
C1301 C1302 1.398 . S
C1302 H1290 0.950 . S
C1302 C1301 1.398 . S
C1302 C1303 1.391 . S
C1303 H1291 0.950 . S
C1303 C1299 1.393 . S
C1303 C1302 1.391 . S
H1304 C1312 0.950 . S
H1305 C1317 0.950 . S
H1306 C1314 0.950 . S
H1307 C1316 0.950 . S
H1308 C1318 0.950 . S
H1309 C1320 0.950 . S
H1310 C1322 0.950 . S
H1311 C1323 0.950 . S
C1312 H1304 0.950 . S
C1312 C1313 1.386 . S
C1312 C1314 1.391 . S
C1313 C1312 1.386 . S
C1313 C1317 1.393 . S
C1314 H1306 0.950 . S
C1314 C1312 1.391 . S
C1314 C1315 1.400 . S
C1315 C1314 1.400 . S
C1315 C1316 1.398 . S
C1315 C1321 1.491 . S
C1316 H1307 0.950 . S
C1316 C1315 1.398 . S
C1316 C1317 1.391 . S
C1317 H1305 0.950 . S
C1317 C1313 1.393 . S
C1317 C1316 1.391 . S
C1318 H1308 0.950 . S
C1318 C1319 1.386 . S
C1318 C1320 1.391 . S
C1319 C1318 1.386 . S
C1319 C1323 1.393 . S
C1320 H1309 0.950 . S
C1320 C1318 1.391 . S
C1320 C1321 1.400 . S
C1321 C1315 1.491 . S
C1321 C1320 1.400 . S
C1321 C1322 1.398 . S
C1322 H1310 0.950 . S
C1322 C1321 1.398 . S
C1322 C1323 1.391 . S
C1323 H1311 0.950 . S
C1323 C1319 1.393 . S
C1323 C1322 1.391 . S
H1324 C1332 0.950 . S
H1325 C1337 0.950 . S
H1326 C1334 0.950 . S
H1327 C1336 0.950 . S
H1328 C1338 0.950 . S
H1329 C1340 0.950 . S
H1330 C1342 0.950 . S
H1331 C1343 0.950 . S
C1332 H1324 0.950 . S
C1332 C1333 1.386 . S
C1332 C1334 1.391 . S
C1333 C1332 1.386 . S
C1333 C1337 1.393 . S
C1334 H1326 0.950 . S
C1334 C1332 1.391 . S
C1334 C1335 1.400 . S
C1335 C1334 1.400 . S
C1335 C1336 1.398 . S
C1335 C1341 1.491 . S
C1336 H1327 0.950 . S
C1336 C1335 1.398 . S
C1336 C1337 1.391 . S
C1337 H1325 0.950 . S
C1337 C1333 1.393 . S
C1337 C1336 1.391 . S
C1338 H1328 0.950 . S
C1338 C1339 1.386 . S
C1338 C1340 1.391 . S
C1339 C1338 1.386 . S
C1339 C1343 1.393 . S
C1340 H1329 0.950 . S
C1340 C1338 1.391 . S
C1340 C1341 1.400 . S
C1341 C1335 1.491 . S
C1341 C1340 1.400 . S
C1341 C1342 1.398 . S
C1342 H1330 0.950 . S
C1342 C1341 1.398 . S
C1342 C1343 1.391 . S
C1343 H1331 0.950 . S
C1343 C1339 1.393 . S
C1343 C1342 1.391 . S
C553 C2 1.504 . S
C559 C478 1.504 . S
C573 C36 1.515 . S
C579 C512 1.515 . S
C593 C70 1.514 . S
C599 C410 1.514 . S
C613 C104 1.502 . S
C619 C444 1.502 . S
C633 C138 1.502 . S
C639 C342 1.502 . S
C653 C172 1.506 . S
C659 C376 1.506 . S
C673 C274 1.504 . S
C679 C206 1.503 . S
C693 C308 1.515 . S
C699 C240 1.515 . S
C713 C33 0.914 . S
C719 C39 0.927 . S
C733 C67 0.906 . S
C739 C73 0.921 . S
C753 C101 0.906 . S
C759 C107 0.909 1_554 S
C773 C5 0.921 . S
C779 C135 0.926 . S
C793 C515 0.926 . S
C799 C169 0.915 . S
C813 C413 0.910 . S
C819 C203 0.918 . S
C833 C447 0.909 . S
C839 C237 0.912 . S
C853 C481 0.918 . S
C859 C271 0.926 . S
C873 C305 0.924 . S
C879 C311 0.923 . S
C893 C339 0.914 . S
C899 C345 0.909 . S
C913 C379 0.920 . S
C919 C373 0.926 . S
C933 C407 0.918 . S
C939 C277 0.926 . S
C953 C441 0.916 . S
C959 C243 0.910 . S
C973 C141 0.909 . S
C979 C475 0.915 . S
C993 C175 0.909 . S
C999 C509 0.911 . S
C1013 C543 0.923 . S
C1019 C209 0.924 . S
C1033 C9 1.504 . S
C1039 C77 1.491 . S
C1053 C43 1.501 . S
C1059 C111 1.488 . S
C1073 C213 1.473 . S
C1079 C145 1.480 . S
C1093 C247 1.474 . S
C1099 C179 1.485 . S
C1113 C281 1.477 . S
C1119 C349 1.489 . S
C1133 C315 1.481 . S
C1139 C383 1.494 . S
C1153 C417 1.483 . S
C1159 C485 1.496 . S
C1173 C451 1.507 . S
C1179 C519 1.495 . S
C1193 C156 1.998 . S
C1199 C20 2.004 . S
C1213 C190 1.992 . S
C1219 C54 1.998 . S
C1233 C88 1.992 . S
C1239 C224 1.991 . S
C1253 C258 2.008 . S
C1259 C122 2.005 . S
C1273 C292 2.006 . S
C1279 C428 2.000 . S
C1293 C462 1.993 . S
C1299 C326 1.998 . S
C1313 C496 2.003 . S
C1319 C360 1.997 . S
C1333 C394 1.993 . S
C1339 C530 1.991 . S
