# Generated by pormake.
# Topology unm, (4)-cn, num edge types: 1
# Building blocks:
#     Node 0, Type 0, BuildingBlock: CEKHIL_clean_sbu_0, # of connection points: 4
#     Node 1, Type 0, BuildingBlock: CEKHIL_clean_sbu_0, # of connection points: 4
#     Node 2, Type 0, BuildingBlock: CEKHIL_clean_sbu_0, # of connection points: 4
#     Node 3, Type 0, BuildingBlock: CEKHIL_clean_sbu_0, # of connection points: 4
#     Node 4, Type 0, BuildingBlock: CEKHIL_clean_sbu_0, # of connection points: 4
#     Node 5, Type 0, BuildingBlock: CEKHIL_clean_sbu_0, # of connection points: 4
#     Node 6, Type 0, BuildingBlock: CEKHIL_clean_sbu_0, # of connection points: 4
#     Node 7, Type 0, BuildingBlock: CEKHIL_clean_sbu_0, # of connection points: 4
#     Edge 8, Type (0, 0), BuildingBlock: FUNLAD_clean_linker_0, # of connection points: 2
#     Edge 9, Type (0, 0), BuildingBlock: FUNLAD_clean_linker_0, # of connection points: 2
#     Edge 10, Type (0, 0), BuildingBlock: FUNLAD_clean_linker_0, # of connection points: 2
#     Edge 11, Type (0, 0), BuildingBlock: FUNLAD_clean_linker_0, # of connection points: 2
#     Edge 12, Type (0, 0), BuildingBlock: FUNLAD_clean_linker_0, # of connection points: 2
#     Edge 13, Type (0, 0), BuildingBlock: FUNLAD_clean_linker_0, # of connection points: 2
#     Edge 14, Type (0, 0), BuildingBlock: FUNLAD_clean_linker_0, # of connection points: 2
#     Edge 15, Type (0, 0), BuildingBlock: FUNLAD_clean_linker_0, # of connection points: 2
#     Edge 16, Type (0, 0), BuildingBlock: FUNLAD_clean_linker_0, # of connection points: 2
#     Edge 17, Type (0, 0), BuildingBlock: FUNLAD_clean_linker_0, # of connection points: 2
#     Edge 18, Type (0, 0), BuildingBlock: FUNLAD_clean_linker_0, # of connection points: 2
#     Edge 19, Type (0, 0), BuildingBlock: FUNLAD_clean_linker_0, # of connection points: 2
#     Edge 20, Type (0, 0), BuildingBlock: FUNLAD_clean_linker_0, # of connection points: 2
#     Edge 21, Type (0, 0), BuildingBlock: FUNLAD_clean_linker_0, # of connection points: 2
#     Edge 22, Type (0, 0), BuildingBlock: FUNLAD_clean_linker_0, # of connection points: 2
#     Edge 23, Type (0, 0), BuildingBlock: FUNLAD_clean_linker_0, # of connection points: 2
# Relax obj value: 0.187
# Max RMSD: 0.152
# Mean RMSD: 0.152
data_MOF--net-unm--node1-CEKHIL_clean_sbu_0--edge1-FUNLAD_clean_linker_0
_symmetry_space_group_name_H-M    P1
_symmetry_Int_Tables_number       1
_symmetry_cell_setting            triclinic
loop_
_symmetry_equiv_pos_as_xyz
'x, y, z'
_cell_length_a     29.157735
_cell_length_b     29.190995
_cell_length_c     50.756482
_cell_angle_alpha  90.005738
_cell_angle_beta   90.000381
_cell_angle_gamma 90.018695
loop_
_atom_site_label
_atom_site_type_symbol
_atom_site_fract_x
_atom_site_fract_y
_atom_site_fract_z
_atom_type_partial_charge
Co0 Co 0.1875 0.25814 0.17587 0.0
O1 O 0.24142 0.22307 0.18558 0.0
O2 O 0.24029 0.29757 0.17761 0.0
C3 C 0.13846 0.23024 0.20664 0.0
O4 O 0.14074 0.30734 0.1674 0.0
Co5 Co 0.09672 0.21498 0.15567 0.0
O6 O 0.07071 0.27695 0.16183 0.0
C7 C 0.17566 0.22343 0.1194 0.0
C8 C 0.26355 0.2618 0.1848 0.0
C9 C 0.09714 0.31139 0.16457 0.0
O10 O 0.19835 0.24631 0.13685 0.0
O11 O 0.13659 0.20511 0.12408 0.0
O12 O 0.16859 0.2612 0.21287 0.0
O13 O 0.14269 0.21345 0.1832 0.0
Co14 Co 0.23777 0.68884 0.67721 0.0
O15 O 0.27379 0.74354 0.68334 0.0
O16 O 0.19843 0.74182 0.6783 0.0
C17 C 0.26949 0.64453 0.70899 0.0
O18 O 0.18796 0.64075 0.6724 0.0
Co19 Co 0.28005 0.59617 0.65938 0.0
O20 O 0.21923 0.57074 0.66878 0.0
C21 C 0.26114 0.66798 0.61963 0.0
C22 C 0.23505 0.76564 0.68328 0.0
C23 C 0.18452 0.59683 0.67134 0.0
O24 O 0.24493 0.69486 0.63754 0.0
O25 O 0.27844 0.62864 0.62465 0.0
O26 O 0.23883 0.67511 0.71487 0.0
O27 O 0.28376 0.64537 0.68486 0.0
Co28 Co 0.82638 0.75228 0.17823 0.0
O29 O 0.77482 0.7906 0.1877 0.0
O30 O 0.77025 0.71733 0.17671 0.0
C31 C 0.87381 0.77338 0.21159 0.0
O32 O 0.87029 0.70065 0.16924 0.0
Co33 Co 0.92184 0.79163 0.16276 0.0
O34 O 0.94244 0.72721 0.16659 0.0
C35 C 0.84662 0.79175 0.1236 0.0
C36 C 0.74958 0.75425 0.18463 0.0
C37 C 0.91376 0.69427 0.16713 0.0
O38 O 0.8205 0.76892 0.13941 0.0
O39 O 0.88613 0.807 0.1303 0.0
O40 O 0.84119 0.74388 0.21563 0.0
O41 O 0.87334 0.79264 0.18868 0.0
Co42 Co 0.75964 0.30435 0.67649 0.0
O43 O 0.7244 0.25138 0.68709 0.0
O44 O 0.7968 0.24973 0.67411 0.0
C45 C 0.7408 0.35085 0.71053 0.0
O46 O 0.80811 0.35083 0.66588 0.0
Co47 Co 0.71311 0.39697 0.66224 0.0
O48 O 0.77662 0.42109 0.66506 0.0
C49 C 0.71234 0.3214 0.62356 0.0
C50 C 0.7615 0.22764 0.68323 0.0
C51 C 0.81145 0.39472 0.6644 0.0
O52 O 0.73913 0.2975 0.63841 0.0
O53 O 0.69515 0.35984 0.63064 0.0
O54 O 0.77183 0.31934 0.71333 0.0
O55 O 0.71835 0.34935 0.68856 0.0
Co56 Co 0.69 0.24423 0.32771 0.0
O57 O 0.74397 0.27849 0.31808 0.0
O58 O 0.74398 0.20563 0.33012 0.0
C59 C 0.64465 0.2654 0.29369 0.0
O60 O 0.64087 0.19723 0.3371 0.0
Co61 Co 0.6 0.29524 0.34253 0.0
O62 O 0.57287 0.23375 0.33684 0.0
C63 C 0.6729 0.28637 0.38244 0.0
C64 C 0.76697 0.24096 0.32175 0.0
C65 C 0.59663 0.1971 0.33723 0.0
O66 O 0.69678 0.26216 0.3662 0.0
O67 O 0.63486 0.30527 0.37607 0.0
O68 O 0.67577 0.23407 0.29064 0.0
O69 O 0.6467 0.28743 0.31581 0.0
Co70 Co 0.25989 0.19349 0.8265 0.0
O71 O 0.22269 0.2438 0.81456 0.0
O72 O 0.2948 0.25 0.82765 0.0
C73 C 0.243 0.14427 0.79344 0.0
O74 O 0.30956 0.14901 0.8383 0.0
Co75 Co 0.21445 0.10121 0.84278 0.0
O76 O 0.27844 0.07853 0.84023 0.0
C77 C 0.21284 0.17903 0.87983 0.0
C78 C 0.25856 0.26954 0.81779 0.0
C79 C 0.3131 0.10517 0.84047 0.0
O80 O 0.23896 0.20238 0.86433 0.0
O81 O 0.19622 0.13984 0.8737 0.0
O82 O 0.27307 0.17654 0.79007 0.0
O83 O 0.22015 0.14657 0.81524 0.0
Co84 Co 0.32744 0.75938 0.33043 0.0
O85 O 0.27625 0.72151 0.32021 0.0
O86 O 0.27208 0.79601 0.32776 0.0
C87 C 0.37848 0.73363 0.30015 0.0
O88 O 0.37326 0.80986 0.33958 0.0
Co89 Co 0.41717 0.71493 0.35204 0.0
O90 O 0.44218 0.77714 0.34637 0.0
C91 C 0.33951 0.73089 0.38825 0.0
C92 C 0.25161 0.75854 0.3204 0.0
C93 C 0.41693 0.81239 0.34342 0.0
O94 O 0.31536 0.74806 0.36938 0.0
O95 O 0.37961 0.71403 0.38496 0.0
O96 O 0.34731 0.76331 0.29368 0.0
O97 O 0.37368 0.71602 0.32337 0.0
Co98 Co 0.73236 0.8045 0.8289 0.0
O99 O 0.76715 0.75122 0.81845 0.0
O100 O 0.69471 0.7501 0.83136 0.0
C101 C 0.7516 0.85049 0.79469 0.0
O102 O 0.68453 0.85179 0.83953 0.0
Co103 Co 0.78055 0.89664 0.84268 0.0
O104 O 0.71736 0.9215 0.84071 0.0
C105 C 0.77775 0.82243 0.88239 0.0
C106 C 0.7299 0.72772 0.82231 0.0
C107 C 0.68209 0.89572 0.84151 0.0
O108 O 0.75259 0.7977 0.86704 0.0
O109 O 0.79496 0.86089 0.87532 0.0
O110 O 0.72024 0.81927 0.79202 0.0
O111 O 0.77419 0.84888 0.8166 0.0
C112 C 0.17247 0.18917 0.07433 0.0
C113 C 0.19268 0.22065 0.09182 0.0
C114 C 0.18246 0.19031 0.04748 0.0
C115 C 0.21278 0.22322 0.03719 0.0
C116 C 0.23542 0.2528 0.05478 0.0
C117 C 0.22532 0.25172 0.08187 0.0
C118 C 0.22114 0.22642 0.00825 0.0
C119 C 0.18753 0.21745 0.99065 0.0
C120 C 0.19366 0.21326 0.96158 0.0
C121 C 0.15961 0.18983 0.94737 0.0
C122 C 0.16497 0.18076 0.92056 0.0
C123 C 0.20424 0.1956 0.90702 0.0
H124 H 0.25866 0.24927 0.95785 0.0
C125 C 0.23719 0.22156 0.92073 0.0
C126 C 0.23214 0.23012 0.94783 0.0
H127 H 0.2679 0.23338 0.91082 0.0
H128 H 0.14789 0.16409 0.08127 0.0
H129 H 0.16602 0.16544 0.03477 0.0
H130 H 0.25967 0.27786 0.04745 0.0
H131 H 0.24164 0.27637 0.09478 0.0
H132 H 0.25527 0.23574 1.00166 0.0
H133 H 0.15341 0.20994 0.99811 0.0
H134 H 0.12936 0.17682 0.95727 0.0
H135 H 0.13879 0.16095 0.91057 0.0
C136 C 0.25995 0.7267 0.58307 0.0
C137 C 0.25724 0.68091 0.59149 0.0
C138 C 0.25848 0.73728 0.55608 0.0
C139 C 0.25322 0.70224 0.53719 0.0
C140 C 0.2483 0.65693 0.54581 0.0
C141 C 0.25088 0.64631 0.57256 0.0
C142 C 0.25481 0.71094 0.50834 0.0
C143 C 0.28404 0.74127 0.49758 0.0
C144 C 0.29573 0.74085 0.46908 0.0
C145 C 0.34157 0.74795 0.46194 0.0
C146 C 0.35523 0.74434 0.43571 0.0
C147 C 0.32315 0.73479 0.41578 0.0
H148 H 0.22736 0.72714 0.45409 0.0
C149 C 0.27673 0.72965 0.42262 0.0
C150 C 0.26316 0.73205 0.44917 0.0
H151 H 0.25127 0.72272 0.4076 0.0
H152 H 0.26445 0.75407 0.59725 0.0
H153 H 0.26155 0.77271 0.55002 0.0
H154 H 0.244 0.62935 0.53173 0.0
H155 H 0.24785 0.61075 0.57843 0.0
H156 H 0.23703 0.68689 0.49556 0.0
H157 H 0.3054 0.762 0.51047 0.0
H158 H 0.36728 0.75498 0.47683 0.0
H159 H 0.39113 0.74934 0.43101 0.0
C160 C 0.80169 0.76876 0.08293 0.0
C161 C 0.83348 0.79784 0.09549 0.0
C162 C 0.79622 0.77006 0.05537 0.0
C163 C 0.82252 0.80055 0.04 0.0
C164 C 0.8524 0.83089 0.05284 0.0
C165 C 0.85764 0.82976 0.08008 0.0
C166 C 0.82265 0.80108 0.01064 0.0
C167 C 0.78875 0.78555 0.99485 0.0
C168 C 0.7893 0.79228 0.96557 0.0
C169 C 0.76075 0.76546 0.94936 0.0
C170 C 0.75835 0.77343 0.92207 0.0
C171 C 0.7843 0.80871 0.91041 0.0
H172 H 0.83702 0.84987 0.96506 0.0
C173 C 0.81363 0.83464 0.92658 0.0
C174 C 0.81578 0.82695 0.95365 0.0
H175 H 0.834 0.86231 0.9185 0.0
H176 H 0.78276 0.74354 0.09419 0.0
H177 H 0.77305 0.74589 0.0462 0.0
H178 H 0.87279 0.85507 0.04164 0.0
H179 H 0.88212 0.85304 0.08897 0.0
H180 H 0.85269 0.81654 1.00173 0.0
H181 H 0.75919 0.76863 0.00346 0.0
H182 H 0.73962 0.73878 0.95789 0.0
H183 H 0.73504 0.75302 0.91031 0.0
C184 C 0.66173 0.31574 0.42846 0.0
C185 C 0.68747 0.28943 0.41053 0.0
C186 C 0.67135 0.31466 0.4554 0.0
C187 C 0.7069 0.28701 0.46531 0.0
C188 C 0.73425 0.26257 0.44736 0.0
C189 C 0.72451 0.2635 0.42027 0.0
C190 C 0.71649 0.2842 0.49417 0.0
C191 C 0.68303 0.2887 0.51239 0.0
C192 C 0.69057 0.29191 0.5414 0.0
C193 C 0.65639 0.31308 0.55661 0.0
C194 C 0.66275 0.32065 0.58351 0.0
C195 C 0.70318 0.30643 0.59613 0.0
H196 H 0.75696 0.25815 0.54333 0.0
C197 C 0.73641 0.28272 0.58136 0.0
C198 C 0.73033 0.27573 0.55418 0.0
H199 H 0.76798 0.27144 0.59054 0.0
H200 H 0.63336 0.33668 0.42178 0.0
H201 H 0.65079 0.3357 0.46839 0.0
H202 H 0.76242 0.24168 0.45438 0.0
H203 H 0.74524 0.24293 0.4071 0.0
H204 H 0.75173 0.27867 0.50026 0.0
H205 H 0.64789 0.29294 0.5057 0.0
H206 H 0.62518 0.32544 0.54746 0.0
H207 H 0.63635 0.33875 0.59433 0.0
C208 C 0.33607 0.22814 0.20342 0.0
C209 C 0.31171 0.26622 0.1939 0.0
C210 C 0.37984 0.23356 0.21444 0.0
C211 C 0.40019 0.27729 0.21612 0.0
C212 C 0.37606 0.31508 0.20614 0.0
C213 C 0.33253 0.30964 0.19503 0.0
C214 C 0.4449 0.28538 0.22963 0.0
C215 C 0.47756 0.25308 0.23238 0.0
C216 C 0.52148 0.26052 0.24682 0.0
C217 C 0.55883 0.23188 0.24115 0.0
C218 C 0.59953 0.23509 0.25557 0.0
C219 C 0.60375 0.26672 0.27632 0.0
H220 H 0.49781 0.31518 0.2726 0.0
C221 C 0.56686 0.29625 0.28168 0.0
C222 C 0.52608 0.29317 0.26713 0.0
H223 H 0.56889 0.32073 0.29767 0.0
H224 H 0.32083 0.1943 0.20305 0.0
H225 H 0.3967 0.20366 0.22248 0.0
H226 H 0.39068 0.34916 0.20726 0.0
H227 H 0.31471 0.33978 0.18798 0.0
H228 H 0.45144 0.31979 0.23685 0.0
H229 H 0.47278 0.21995 0.22303 0.0
H230 H 0.5563 0.20631 0.22573 0.0
H231 H 0.62719 0.21167 0.25096 0.0
C232 C 0.27117 0.83848 0.69951 0.0
C233 C 0.23194 0.81437 0.69134 0.0
C234 C 0.26731 0.88246 0.71033 0.0
C235 C 0.22401 0.9034 0.71311 0.0
C236 C 0.18506 0.8797 0.70422 0.0
C237 C 0.18894 0.83584 0.69336 0.0
C238 C 0.21761 0.94803 0.72694 0.0
C239 C 0.25104 0.97955 0.72986 0.0
C240 C 0.24538 0.02273 0.74521 0.0
C241 C 0.27483 0.05964 0.73991 0.0
C242 C 0.2729 0.09965 0.75501 0.0
C243 C 0.24179 0.10353 0.77604 0.0
H244 H 0.19112 0.99885 0.77126 0.0
C245 C 0.21182 0.06692 0.78121 0.0
C246 C 0.21359 0.0269 0.76601 0.0
H247 H 0.18772 0.06872 0.79741 0.0
H248 H 0.30476 0.82275 0.69843 0.0
H249 H 0.29814 0.89889 0.71747 0.0
H250 H 0.15127 0.89478 0.70618 0.0
H251 H 0.15797 0.8182 0.68735 0.0
H252 H 0.18361 0.9553 0.7346 0.0
H253 H 0.2838 0.97432 0.72016 0.0
H254 H 0.29985 0.05735 0.72418 0.0
H255 H 0.29664 0.12713 0.75056 0.0
C256 C 0.42583 0.75028 0.25999 0.0
C257 C 0.42174 0.72966 0.28493 0.0
C258 C 0.46829 0.75189 0.24709 0.0
C259 C 0.50762 0.73338 0.25907 0.0
C260 C 0.50324 0.71168 0.28361 0.0
C261 C 0.46066 0.70918 0.29623 0.0
C262 C 0.5541 0.73942 0.24757 0.0
C263 C 0.56257 0.73959 0.22148 0.0
C264 C 0.60972 0.74554 0.21098 0.0
C265 C 0.62543 0.71707 0.19061 0.0
C266 C 0.67072 0.72046 0.18161 0.0
C267 C 0.70059 0.75348 0.19219 0.0
H268 H 0.62773 0.8022 0.23657 0.0
C269 C 0.68412 0.78348 0.21166 0.0
C270 C 0.63927 0.77923 0.22118 0.0
H271 H 0.70642 0.80914 0.22025 0.0
H272 H 0.39649 0.76643 0.25076 0.0
H273 H 0.47062 0.76948 0.22836 0.0
H274 H 0.53303 0.69718 0.29327 0.0
H275 H 0.45876 0.6928 0.31532 0.0
H276 H 0.58277 0.74208 0.26119 0.0
H277 H 0.53508 0.73221 0.20767 0.0
H278 H 0.60312 0.69113 0.1823 0.0
H279 H 0.6825 0.69695 0.16654 0.0
C280 C 0.72625 0.15604 0.70161 0.0
C281 C 0.7648 0.179 0.69149 0.0
C282 C 0.73041 0.11204 0.71232 0.0
C283 C 0.77333 0.0899 0.71314 0.0
C284 C 0.8116 0.11253 0.70248 0.0
C285 C 0.80737 0.15642 0.69162 0.0
C286 C 0.78005 0.04507 0.7267 0.0
C287 C 0.74626 0.01406 0.73011 0.0
C288 C 0.75168 0.97076 0.74538 0.0
C289 C 0.72102 0.93459 0.74064 0.0
C290 C 0.72227 0.89482 0.75597 0.0
C291 C 0.75391 0.89046 0.77671 0.0
H292 H 0.80768 0.99341 0.77053 0.0
C293 C 0.78526 0.92619 0.78121 0.0
C294 C 0.78419 0.96596 0.76575 0.0
H295 H 0.80985 0.92401 0.79716 0.0
H296 H 0.69303 0.17261 0.70201 0.0
H297 H 0.70025 0.09645 0.72092 0.0
H298 H 0.84511 0.09653 0.70297 0.0
H299 H 0.83783 0.17323 0.68415 0.0
H300 H 0.81436 0.03725 0.7337 0.0
H301 H 0.71314 0.02 0.72095 0.0
H302 H 0.69544 0.93738 0.72523 0.0
H303 H 0.69749 0.86803 0.75203 0.0
C304 C 0.83427 0.26906 0.29601 0.0
C305 C 0.816 0.23785 0.3143 0.0
C306 C 0.87928 0.26438 0.28696 0.0
C307 C 0.90738 0.2289 0.29638 0.0
C308 C 0.88989 0.1988 0.31549 0.0
C309 C 0.84429 0.20274 0.32407 0.0
C310 C 0.95485 0.22319 0.28625 0.0
C311 C 0.96393 0.22539 0.26027 0.0
C312 C 0.01064 0.22144 0.24883 0.0
C313 C 0.01578 0.20058 0.22412 0.0
C314 C 0.05811 0.20096 0.21122 0.0
C315 C 0.096 0.22364 0.22234 0.0
H316 H 0.04597 0.25891 0.27963 0.0
C317 C 0.09129 0.24335 0.2475 0.0
C318 C 0.04907 0.24194 0.26074 0.0
H319 H 0.11983 0.26107 0.2566 0.0
H320 H 0.81334 0.29642 0.28806 0.0
H321 H 0.89215 0.28859 0.27256 0.0
H322 H 0.91107 0.1714 0.32318 0.0
H323 H 0.83115 0.17827 0.33823 0.0
H324 H 0.98206 0.21501 0.3001 0.0
H325 H 0.93552 0.22894 0.24653 0.0
H326 H 0.98668 0.18464 0.21451 0.0
H327 H 0.06048 0.18507 0.19201 0.0
C328 C 0.29839 0.56491 0.71713 0.0
C329 C 0.27916 0.60564 0.72691 0.0
C330 C 0.30161 0.52607 0.73315 0.0
C331 C 0.28662 0.52749 0.75946 0.0
C332 C 0.27022 0.56897 0.76976 0.0
C333 C 0.26592 0.60755 0.75354 0.0
C334 C 0.28616 0.48555 0.776 0.0
C335 C 0.26987 0.44571 0.76648 0.0
C336 C 0.26553 0.40319 0.78231 0.0
C337 C 0.22892 0.37349 0.77691 0.0
C338 C 0.22554 0.33122 0.78961 0.0
C339 C 0.25944 0.31705 0.80753 0.0
H340 H 0.32758 0.41202 0.80532 0.0
C341 C 0.29575 0.34712 0.8134 0.0
C342 C 0.29857 0.39007 0.80106 0.0
H343 H 0.32249 0.33703 0.82702 0.0
H344 H 0.30943 0.56238 0.69683 0.0
H345 H 0.31531 0.49472 0.72488 0.0
H346 H 0.25883 0.57095 0.79005 0.0
H347 H 0.25131 0.63857 0.7617 0.0
H348 H 0.29528 0.48841 0.79669 0.0
H349 H 0.2563 0.44487 0.74652 0.0
H350 H 0.20312 0.38274 0.7625 0.0
H351 H 0.19728 0.30883 0.78449 0.0
C352 C 0.17347 0.7945 0.31531 0.0
C353 C 0.20415 0.75852 0.3099 0.0
C354 C 0.13014 0.79581 0.30323 0.0
C355 C 0.11733 0.7617 0.28507 0.0
C356 C 0.14778 0.72561 0.27998 0.0
C357 C 0.19036 0.72361 0.29254 0.0
C358 C 0.07452 0.76484 0.26931 0.0
C359 C 0.0339 0.77852 0.27918 0.0
C360 C 0.99207 0.77983 0.26243 0.0
C361 C 0.95049 0.76189 0.27184 0.0
C362 C 0.91171 0.76028 0.25549 0.0
C363 C 0.91351 0.77787 0.22971 0.0
H364 H 0.02491 0.81333 0.22935 0.0
C365 C 0.95459 0.7979 0.22086 0.0
C366 C 0.99355 0.7984 0.23692 0.0
H367 H 0.95714 0.81223 0.20127 0.0
H368 H 0.18324 0.82196 0.32852 0.0
H369 H 0.10758 0.82445 0.30721 0.0
H370 H 0.13883 0.69909 0.26594 0.0
H371 H 0.21329 0.69562 0.28776 0.0
H372 H 0.07608 0.75298 0.24902 0.0
H373 H 0.03064 0.78585 0.30008 0.0
H374 H 0.94843 0.74772 0.29153 0.0
H375 H 0.88048 0.74491 0.26294 0.0
C376 C 0.70709 0.42649 0.72405 0.0
C377 C 0.7385 0.39081 0.72853 0.0
C378 C 0.70797 0.46614 0.73962 0.0
C379 C 0.74034 0.47091 0.76006 0.0
C380 C 0.77111 0.43482 0.76475 0.0
C381 C 0.77006 0.39515 0.74931 0.0
C382 C 0.7455 0.5141 0.77549 0.0
C383 C 0.71163 0.54504 0.77886 0.0
C384 C 0.71818 0.58988 0.79249 0.0
C385 C 0.67976 0.61263 0.80288 0.0
C386 C 0.68388 0.65656 0.81373 0.0
C387 C 0.72651 0.67904 0.81413 0.0
H388 H 0.79144 0.59628 0.78522 0.0
C389 C 0.76519 0.65592 0.80431 0.0
C390 C 0.76113 0.61192 0.79359 0.0
H391 H 0.79849 0.67239 0.80412 0.0
H392 H 0.68257 0.42433 0.70807 0.0
H393 H 0.68442 0.49354 0.73487 0.0
H394 H 0.79662 0.43759 0.7802 0.0
H395 H 0.79489 0.36842 0.75322 0.0
H396 H 0.77852 0.52003 0.78478 0.0
H397 H 0.67741 0.53722 0.77172 0.0
H398 H 0.64621 0.59671 0.80216 0.0
H399 H 0.65332 0.67349 0.82097 0.0
C400 C 0.9783 0.63825 0.16234 0.0
C401 C 0.93109 0.64676 0.16501 0.0
C402 C 0.99472 0.59347 0.16052 0.0
C403 C 0.96428 0.55608 0.16158 0.0
C404 C 0.91709 0.56457 0.16372 0.0
C405 C 0.90063 0.60938 0.16555 0.0
C406 C 0.98048 0.50799 0.1599 0.0
C407 C 0.02246 0.49496 0.16803 0.0
C408 C 0.04002 0.44732 0.16642 0.0
C409 C 0.08757 0.44053 0.16775 0.0
C410 C 0.10602 0.39652 0.16684 0.0
C411 C 0.07725 0.35803 0.16474 0.0
H412 H 0.97416 0.4123 0.16409 0.0
C413 C 0.02955 0.36468 0.16348 0.0
C414 C 0.01106 0.40884 0.16439 0.0
H415 H 0.00637 0.33577 0.16214 0.0
H416 H 0.00272 0.66619 0.16155 0.0
H417 H 0.0312 0.58851 0.15786 0.0
H418 H 0.89289 0.5364 0.16429 0.0
H419 H 0.86401 0.61463 0.16745 0.0
H420 H 0.95658 0.48289 0.15218 0.0
H421 H 0.04573 0.52041 0.17608 0.0
H422 H 0.11069 0.46947 0.16946 0.0
H423 H 0.14293 0.39278 0.16793 0.0
C424 C 0.86289 0.4634 0.66206 0.0
C425 C 0.85765 0.41552 0.6624 0.0
C426 C 0.9065 0.48312 0.66141 0.0
C427 C 0.94592 0.45534 0.66124 0.0
C428 C 0.94068 0.40757 0.66075 0.0
C429 C 0.89706 0.38781 0.66146 0.0
C430 C 0.99292 0.47486 0.66119 0.0
C431 C 0.00312 0.51619 0.67147 0.0
C432 C 0.05012 0.53574 0.67176 0.0
C433 C 0.05526 0.58345 0.67346 0.0
C434 C 0.09883 0.60333 0.67355 0.0
C435 C 0.13832 0.57581 0.67215 0.0
H436 H 0.08731 0.47112 0.67072 0.0
C437 C 0.13319 0.52795 0.67112 0.0
C438 C 0.08963 0.50809 0.67101 0.0
H439 H 0.16284 0.50564 0.67037 0.0
H440 H 0.83332 0.48583 0.66248 0.0
H441 H 0.90898 0.52008 0.66078 0.0
H442 H 0.97047 0.3854 0.6603 0.0
H443 H 0.89435 0.3508 0.66153 0.0
H444 H 0.01991 0.45371 0.65291 0.0
H445 H 0.97603 0.5372 0.67979 0.0
H446 H 0.02542 0.60551 0.67437 0.0
H447 H 0.10145 0.64031 0.67451 0.0
C448 C 0.59515 0.11128 0.34085 0.0
C449 C 0.57173 0.1529 0.33739 0.0
C450 C 0.57124 0.06975 0.34054 0.0
C451 C 0.52336 0.06907 0.33681 0.0
C452 C 0.50019 0.11056 0.33297 0.0
C453 C 0.52397 0.15201 0.33341 0.0
C454 C 0.49665 0.02583 0.33587 0.0
C455 C 0.5096 0.98758 0.34862 0.0
C456 C 0.48417 0.94359 0.34721 0.0
C457 C 0.50821 0.90313 0.35261 0.0
C458 C 0.48629 0.8608 0.35132 0.0
C459 C 0.43945 0.85781 0.34487 0.0
H460 H 0.41691 0.97139 0.33763 0.0
C461 C 0.41498 0.89838 0.33993 0.0
C462 C 0.43708 0.94091 0.34112 0.0
H463 H 0.3788 0.89734 0.33512 0.0
H464 H 0.63197 0.1107 0.34367 0.0
H465 H 0.5906 0.03836 0.34267 0.0
H466 H 0.46344 0.11098 0.32976 0.0
H467 H 0.5048 0.18334 0.33037 0.0
H468 H 0.46514 0.02611 0.3245 0.0
H469 H 0.541 0.98778 0.36012 0.0
H470 H 0.54435 0.90418 0.35756 0.0
H471 H 0.5063 0.83037 0.35544 0.0
C472 C 0.36409 0.03641 0.84311 0.0
C473 C 0.35924 0.08434 0.84278 0.0
C474 C 0.40743 0.01629 0.84405 0.0
C475 C 0.44713 0.04366 0.84497 0.0
C476 C 0.44231 0.09153 0.84472 0.0
C477 C 0.39886 0.11171 0.84371 0.0
C478 C 0.494 0.02367 0.8447 0.0
C479 C 0.50344 0.9803 0.85208 0.0
C480 C 0.5498 0.95955 0.85006 0.0
C481 C 0.55349 0.91176 0.84783 0.0
C482 C 0.59636 0.89089 0.84517 0.0
C483 C 0.63658 0.91744 0.84491 0.0
H484 H 0.58896 0.02279 0.85312 0.0
C485 C 0.63292 0.96523 0.8478 0.0
C486 C 0.59009 0.98605 0.85046 0.0
H487 H 0.66318 0.98676 0.84803 0.0
H488 H 0.3344 0.01417 0.84211 0.0
H489 H 0.40935 0.97934 0.84325 0.0
H490 H 0.4723 0.11345 0.84517 0.0
H491 H 0.39644 0.14873 0.84339 0.0
H492 H 0.52142 0.0457 0.83775 0.0
H493 H 0.47612 0.95818 0.85905 0.0
H494 H 0.52302 0.89049 0.84772 0.0
H495 H 0.59786 0.85398 0.84313 0.0
loop_
_geom_bond_atom_site_label_1
_geom_bond_atom_site_label_2
_geom_bond_distance
_geom_bond_site_symmetry_2
_ccdc_geom_bond_type
Co0 O1 2.216 . S
Co0 O2 2.091 . S
Co0 O4 2.004 . S
Co0 O10 2.021 . S
Co0 O12 2.137 . S
Co0 O13 2.244 . S
O1 Co0 2.216 . S
O1 C8 1.247 . S
O2 Co0 2.091 . S
O2 C8 1.261 . S
C3 O12 1.247 . S
C3 O13 1.272 . S
O4 Co0 2.004 . S
O4 C9 1.259 . S
Co5 O6 2.061 . S
Co5 O11 2.052 . S
Co5 O13 2.135 . S
O6 Co5 2.061 . S
O6 C9 1.235 . S
C7 O10 1.238 . S
C7 O11 1.241 . S
C8 O1 1.247 . S
C8 O2 1.261 . S
C9 O4 1.259 . S
C9 O6 1.235 . S
O10 Co0 2.021 . S
O10 C7 1.238 . S
O11 Co5 2.052 . S
O11 C7 1.241 . S
O12 Co0 2.137 . S
O12 C3 1.247 . S
O13 Co0 2.244 . S
O13 C3 1.272 . S
O13 Co5 2.135 . S
Co14 O15 2.216 . S
Co14 O16 2.091 . S
Co14 O18 2.004 . S
Co14 O24 2.021 . S
Co14 O26 2.137 . S
Co14 O27 2.244 . S
O15 Co14 2.216 . S
O15 C22 1.247 . S
O16 Co14 2.091 . S
O16 C22 1.261 . S
C17 O26 1.247 . S
C17 O27 1.272 . S
O18 Co14 2.004 . S
O18 C23 1.259 . S
Co19 O20 2.061 . S
Co19 O25 2.052 . S
Co19 O27 2.135 . S
O20 Co19 2.061 . S
O20 C23 1.235 . S
C21 O24 1.238 . S
C21 O25 1.241 . S
C22 O15 1.247 . S
C22 O16 1.261 . S
C23 O18 1.259 . S
C23 O20 1.235 . S
O24 Co14 2.021 . S
O24 C21 1.238 . S
O25 Co19 2.052 . S
O25 C21 1.241 . S
O26 Co14 2.137 . S
O26 C17 1.247 . S
O27 Co14 2.244 . S
O27 C17 1.272 . S
O27 Co19 2.135 . S
Co28 O29 2.216 . S
Co28 O30 2.091 . S
Co28 O32 2.004 . S
Co28 O38 2.021 . S
Co28 O40 2.137 . S
Co28 O41 2.244 . S
O29 Co28 2.216 . S
O29 C36 1.247 . S
O30 Co28 2.091 . S
O30 C36 1.261 . S
C31 O40 1.247 . S
C31 O41 1.272 . S
O32 Co28 2.004 . S
O32 C37 1.259 . S
Co33 O34 2.061 . S
Co33 O39 2.052 . S
Co33 O41 2.135 . S
O34 Co33 2.061 . S
O34 C37 1.235 . S
C35 O38 1.238 . S
C35 O39 1.241 . S
C36 O29 1.247 . S
C36 O30 1.261 . S
C37 O32 1.259 . S
C37 O34 1.235 . S
O38 Co28 2.021 . S
O38 C35 1.238 . S
O39 Co33 2.052 . S
O39 C35 1.241 . S
O40 Co28 2.137 . S
O40 C31 1.247 . S
O41 Co28 2.244 . S
O41 C31 1.272 . S
O41 Co33 2.135 . S
Co42 O43 2.216 . S
Co42 O44 2.091 . S
Co42 O46 2.004 . S
Co42 O52 2.021 . S
Co42 O54 2.137 . S
Co42 O55 2.244 . S
O43 Co42 2.216 . S
O43 C50 1.247 . S
O44 Co42 2.091 . S
O44 C50 1.261 . S
C45 O54 1.247 . S
C45 O55 1.272 . S
O46 Co42 2.004 . S
O46 C51 1.259 . S
Co47 O48 2.061 . S
Co47 O53 2.052 . S
Co47 O55 2.135 . S
O48 Co47 2.061 . S
O48 C51 1.235 . S
C49 O52 1.238 . S
C49 O53 1.241 . S
C50 O43 1.247 . S
C50 O44 1.261 . S
C51 O46 1.259 . S
C51 O48 1.235 . S
O52 Co42 2.021 . S
O52 C49 1.238 . S
O53 Co47 2.052 . S
O53 C49 1.241 . S
O54 Co42 2.137 . S
O54 C45 1.247 . S
O55 Co42 2.244 . S
O55 C45 1.272 . S
O55 Co47 2.135 . S
Co56 O57 2.216 . S
Co56 O58 2.091 . S
Co56 O60 2.004 . S
Co56 O66 2.021 . S
Co56 O68 2.137 . S
Co56 O69 2.244 . S
O57 Co56 2.216 . S
O57 C64 1.247 . S
O58 Co56 2.091 . S
O58 C64 1.261 . S
C59 O68 1.247 . S
C59 O69 1.272 . S
O60 Co56 2.004 . S
O60 C65 1.259 . S
Co61 O62 2.061 . S
Co61 O67 2.052 . S
Co61 O69 2.135 . S
O62 Co61 2.061 . S
O62 C65 1.235 . S
C63 O66 1.238 . S
C63 O67 1.241 . S
C64 O57 1.247 . S
C64 O58 1.261 . S
C65 O60 1.259 . S
C65 O62 1.235 . S
O66 Co56 2.021 . S
O66 C63 1.238 . S
O67 Co61 2.052 . S
O67 C63 1.241 . S
O68 Co56 2.137 . S
O68 C59 1.247 . S
O69 Co56 2.244 . S
O69 C59 1.272 . S
O69 Co61 2.135 . S
Co70 O71 2.216 . S
Co70 O72 2.091 . S
Co70 O74 2.004 . S
Co70 O80 2.021 . S
Co70 O82 2.137 . S
Co70 O83 2.244 . S
O71 Co70 2.216 . S
O71 C78 1.247 . S
O72 Co70 2.091 . S
O72 C78 1.261 . S
C73 O82 1.247 . S
C73 O83 1.272 . S
O74 Co70 2.004 . S
O74 C79 1.259 . S
Co75 O76 2.061 . S
Co75 O81 2.052 . S
Co75 O83 2.135 . S
O76 Co75 2.061 . S
O76 C79 1.235 . S
C77 O80 1.238 . S
C77 O81 1.241 . S
C78 O71 1.247 . S
C78 O72 1.261 . S
C79 O74 1.259 . S
C79 O76 1.235 . S
O80 Co70 2.021 . S
O80 C77 1.238 . S
O81 Co75 2.052 . S
O81 C77 1.241 . S
O82 Co70 2.137 . S
O82 C73 1.247 . S
O83 Co70 2.244 . S
O83 C73 1.272 . S
O83 Co75 2.135 . S
Co84 O85 2.216 . S
Co84 O86 2.091 . S
Co84 O88 2.004 . S
Co84 O94 2.021 . S
Co84 O96 2.137 . S
Co84 O97 2.244 . S
O85 Co84 2.216 . S
O85 C92 1.247 . S
O86 Co84 2.091 . S
O86 C92 1.261 . S
C87 O96 1.247 . S
C87 O97 1.272 . S
O88 Co84 2.004 . S
O88 C93 1.259 . S
Co89 O90 2.061 . S
Co89 O95 2.052 . S
Co89 O97 2.135 . S
O90 Co89 2.061 . S
O90 C93 1.235 . S
C91 O94 1.238 . S
C91 O95 1.241 . S
C92 O85 1.247 . S
C92 O86 1.261 . S
C93 O88 1.259 . S
C93 O90 1.235 . S
O94 Co84 2.021 . S
O94 C91 1.238 . S
O95 Co89 2.052 . S
O95 C91 1.241 . S
O96 Co84 2.137 . S
O96 C87 1.247 . S
O97 Co84 2.244 . S
O97 C87 1.272 . S
O97 Co89 2.135 . S
Co98 O99 2.216 . S
Co98 O100 2.091 . S
Co98 O102 2.004 . S
Co98 O108 2.021 . S
Co98 O110 2.137 . S
Co98 O111 2.244 . S
O99 Co98 2.216 . S
O99 C106 1.247 . S
O100 Co98 2.091 . S
O100 C106 1.261 . S
C101 O110 1.247 . S
C101 O111 1.272 . S
O102 Co98 2.004 . S
O102 C107 1.259 . S
Co103 O104 2.061 . S
Co103 O109 2.052 . S
Co103 O111 2.135 . S
O104 Co103 2.061 . S
O104 C107 1.235 . S
C105 O108 1.238 . S
C105 O109 1.241 . S
C106 O99 1.247 . S
C106 O100 1.261 . S
C107 O102 1.259 . S
C107 O104 1.235 . S
O108 Co98 2.021 . S
O108 C105 1.238 . S
O109 Co103 2.052 . S
O109 C105 1.241 . S
O110 Co98 2.137 . S
O110 C101 1.247 . S
O111 Co98 2.244 . S
O111 C101 1.272 . S
O111 Co103 2.135 . S
C112 C113 1.386 . S
C112 C114 1.383 . S
C112 H128 0.951 . S
C113 C112 1.386 . S
C113 C117 1.383 . S
C114 C112 1.383 . S
C114 C115 1.402 . S
C114 H129 0.951 . S
C115 C114 1.402 . S
C115 C116 1.375 . S
C115 C118 1.481 . S
C116 C115 1.375 . S
C116 C117 1.367 . S
C116 H130 0.951 . S
C117 C113 1.383 . S
C117 C116 1.367 . S
C117 H131 0.950 . S
C118 C115 1.481 . S
C118 C119 1.297 1_554 S
C118 H132 0.950 1_554 S
C119 C118 1.297 1_556 S
C119 C120 1.479 . S
C119 H133 0.950 . S
C120 C119 1.479 . S
C120 C121 1.375 . S
C120 C126 1.404 . S
C121 C120 1.375 . S
C121 C122 1.369 . S
C121 H134 0.950 . S
C122 C121 1.369 . S
C122 C123 1.392 . S
C122 H135 0.951 . S
C123 C122 1.392 . S
C123 C125 1.384 . S
H124 C126 0.949 . S
C125 C123 1.384 . S
C125 C126 1.385 . S
C125 H127 0.950 . S
C126 C120 1.404 . S
C126 H124 0.949 . S
C126 C125 1.385 . S
H127 C125 0.950 . S
H128 C112 0.951 . S
H129 C114 0.951 . S
H130 C116 0.951 . S
H131 C117 0.950 . S
H132 C118 0.950 1_556 S
H133 C119 0.950 . S
H134 C121 0.950 . S
H135 C122 0.951 . S
C136 C137 1.386 . S
C136 C138 1.383 . S
C136 H152 0.951 . S
C137 C136 1.386 . S
C137 C141 1.383 . S
C138 C136 1.383 . S
C138 C139 1.402 . S
C138 H153 0.951 . S
C139 C138 1.402 . S
C139 C140 1.375 . S
C139 C142 1.481 . S
C140 C139 1.375 . S
C140 C141 1.367 . S
C140 H154 0.951 . S
C141 C137 1.383 . S
C141 C140 1.367 . S
C141 H155 0.950 . S
C142 C139 1.481 . S
C142 C143 1.297 . S
C142 H156 0.950 . S
C143 C142 1.297 . S
C143 C144 1.479 . S
C143 H157 0.950 . S
C144 C143 1.479 . S
C144 C145 1.375 . S
C144 C150 1.404 . S
C145 C144 1.375 . S
C145 C146 1.369 . S
C145 H158 0.950 . S
C146 C145 1.369 . S
C146 C147 1.392 . S
C146 H159 0.951 . S
C147 C146 1.392 . S
C147 C149 1.384 . S
H148 C150 0.949 . S
C149 C147 1.384 . S
C149 C150 1.385 . S
C149 H151 0.950 . S
C150 C144 1.404 . S
C150 H148 0.949 . S
C150 C149 1.385 . S
H151 C149 0.950 . S
H152 C136 0.951 . S
H153 C138 0.951 . S
H154 C140 0.951 . S
H155 C141 0.950 . S
H156 C142 0.950 . S
H157 C143 0.950 . S
H158 C145 0.950 . S
H159 C146 0.951 . S
C160 C161 1.386 . S
C160 C162 1.383 . S
C160 H176 0.951 . S
C161 C160 1.386 . S
C161 C165 1.383 . S
C162 C160 1.383 . S
C162 C163 1.402 . S
C162 H177 0.951 . S
C163 C162 1.402 . S
C163 C164 1.375 . S
C163 C166 1.481 . S
C164 C163 1.375 . S
C164 C165 1.367 . S
C164 H178 0.951 . S
C165 C161 1.383 . S
C165 C164 1.367 . S
C165 H179 0.950 . S
C166 C163 1.481 . S
C166 C167 1.297 1_554 S
C166 H180 0.950 1_554 S
C167 C166 1.297 1_556 S
C167 C168 1.479 . S
C167 H181 0.950 1_556 S
C168 C167 1.479 . S
C168 C169 1.375 . S
C168 C174 1.404 . S
C169 C168 1.375 . S
C169 C170 1.369 . S
C169 H182 0.950 . S
C170 C169 1.369 . S
C170 C171 1.392 . S
C170 H183 0.951 . S
C171 C170 1.392 . S
C171 C173 1.384 . S
H172 C174 0.949 . S
C173 C171 1.384 . S
C173 C174 1.385 . S
C173 H175 0.950 . S
C174 C168 1.404 . S
C174 H172 0.949 . S
C174 C173 1.385 . S
H175 C173 0.950 . S
H176 C160 0.951 . S
H177 C162 0.951 . S
H178 C164 0.951 . S
H179 C165 0.950 . S
H180 C166 0.950 1_556 S
H181 C167 0.950 1_554 S
H182 C169 0.950 . S
H183 C170 0.951 . S
C184 C185 1.386 . S
C184 C186 1.383 . S
C184 H200 0.951 . S
C185 C184 1.386 . S
C185 C189 1.383 . S
C186 C184 1.383 . S
C186 C187 1.402 . S
C186 H201 0.951 . S
C187 C186 1.402 . S
C187 C188 1.375 . S
C187 C190 1.481 . S
C188 C187 1.375 . S
C188 C189 1.367 . S
C188 H202 0.951 . S
C189 C185 1.383 . S
C189 C188 1.367 . S
C189 H203 0.950 . S
C190 C187 1.481 . S
C190 C191 1.297 . S
C190 H204 0.950 . S
C191 C190 1.297 . S
C191 C192 1.479 . S
C191 H205 0.950 . S
C192 C191 1.479 . S
C192 C193 1.375 . S
C192 C198 1.404 . S
C193 C192 1.375 . S
C193 C194 1.369 . S
C193 H206 0.950 . S
C194 C193 1.369 . S
C194 C195 1.392 . S
C194 H207 0.951 . S
C195 C194 1.392 . S
C195 C197 1.384 . S
H196 C198 0.949 . S
C197 C195 1.384 . S
C197 C198 1.385 . S
C197 H199 0.950 . S
C198 C192 1.404 . S
C198 H196 0.949 . S
C198 C197 1.385 . S
H199 C197 0.950 . S
H200 C184 0.951 . S
H201 C186 0.951 . S
H202 C188 0.951 . S
H203 C189 0.950 . S
H204 C190 0.950 . S
H205 C191 0.950 . S
H206 C193 0.950 . S
H207 C194 0.951 . S
C208 C209 1.386 . S
C208 C210 1.383 . S
C208 H224 0.951 . S
C209 C208 1.386 . S
C209 C213 1.383 . S
C210 C208 1.383 . S
C210 C211 1.402 . S
C210 H225 0.951 . S
C211 C210 1.402 . S
C211 C212 1.375 . S
C211 C214 1.481 . S
C212 C211 1.375 . S
C212 C213 1.367 . S
C212 H226 0.951 . S
C213 C209 1.383 . S
C213 C212 1.367 . S
C213 H227 0.950 . S
C214 C211 1.481 . S
C214 C215 1.297 . S
C214 H228 0.950 . S
C215 C214 1.297 . S
C215 C216 1.479 . S
C215 H229 0.950 . S
C216 C215 1.479 . S
C216 C217 1.375 . S
C216 C222 1.404 . S
C217 C216 1.375 . S
C217 C218 1.369 . S
C217 H230 0.950 . S
C218 C217 1.369 . S
C218 C219 1.392 . S
C218 H231 0.951 . S
C219 C218 1.392 . S
C219 C221 1.384 . S
H220 C222 0.949 . S
C221 C219 1.384 . S
C221 C222 1.385 . S
C221 H223 0.950 . S
C222 C216 1.404 . S
C222 H220 0.949 . S
C222 C221 1.385 . S
H223 C221 0.950 . S
H224 C208 0.951 . S
H225 C210 0.951 . S
H226 C212 0.951 . S
H227 C213 0.950 . S
H228 C214 0.950 . S
H229 C215 0.950 . S
H230 C217 0.950 . S
H231 C218 0.951 . S
C232 C233 1.386 . S
C232 C234 1.383 . S
C232 H248 0.951 . S
C233 C232 1.386 . S
C233 C237 1.383 . S
C234 C232 1.383 . S
C234 C235 1.402 . S
C234 H249 0.951 . S
C235 C234 1.402 . S
C235 C236 1.375 . S
C235 C238 1.481 . S
C236 C235 1.375 . S
C236 C237 1.367 . S
C236 H250 0.951 . S
C237 C233 1.383 . S
C237 C236 1.367 . S
C237 H251 0.950 . S
C238 C235 1.481 . S
C238 C239 1.297 . S
C238 H252 0.950 . S
C239 C238 1.297 . S
C239 C240 1.479 . S
C239 H253 0.950 . S
C240 C239 1.479 . S
C240 C241 1.375 1_565 S
C240 C246 1.404 1_565 S
C241 C240 1.375 1_545 S
C241 C242 1.369 . S
C241 H254 0.950 . S
C242 C241 1.369 . S
C242 C243 1.392 . S
C242 H255 0.951 . S
C243 C242 1.392 . S
C243 C245 1.384 . S
H244 C246 0.949 1_565 S
C245 C243 1.384 . S
C245 C246 1.385 . S
C245 H247 0.950 . S
C246 C240 1.404 1_545 S
C246 H244 0.949 1_545 S
C246 C245 1.385 . S
H247 C245 0.950 . S
H248 C232 0.951 . S
H249 C234 0.951 . S
H250 C236 0.951 . S
H251 C237 0.950 . S
H252 C238 0.950 . S
H253 C239 0.950 . S
H254 C241 0.950 . S
H255 C242 0.951 . S
C256 C257 1.386 . S
C256 C258 1.383 . S
C256 H272 0.951 . S
C257 C256 1.386 . S
C257 C261 1.383 . S
C258 C256 1.383 . S
C258 C259 1.402 . S
C258 H273 0.951 . S
C259 C258 1.402 . S
C259 C260 1.375 . S
C259 C262 1.481 . S
C260 C259 1.375 . S
C260 C261 1.367 . S
C260 H274 0.951 . S
C261 C257 1.383 . S
C261 C260 1.367 . S
C261 H275 0.950 . S
C262 C259 1.481 . S
C262 C263 1.297 . S
C262 H276 0.950 . S
C263 C262 1.297 . S
C263 C264 1.479 . S
C263 H277 0.950 . S
C264 C263 1.479 . S
C264 C265 1.375 . S
C264 C270 1.404 . S
C265 C264 1.375 . S
C265 C266 1.369 . S
C265 H278 0.950 . S
C266 C265 1.369 . S
C266 C267 1.392 . S
C266 H279 0.951 . S
C267 C266 1.392 . S
C267 C269 1.384 . S
H268 C270 0.949 . S
C269 C267 1.384 . S
C269 C270 1.385 . S
C269 H271 0.950 . S
C270 C264 1.404 . S
C270 H268 0.949 . S
C270 C269 1.385 . S
H271 C269 0.950 . S
H272 C256 0.951 . S
H273 C258 0.951 . S
H274 C260 0.951 . S
H275 C261 0.950 . S
H276 C262 0.950 . S
H277 C263 0.950 . S
H278 C265 0.950 . S
H279 C266 0.951 . S
C280 C281 1.386 . S
C280 C282 1.383 . S
C280 H296 0.951 . S
C281 C280 1.386 . S
C281 C285 1.383 . S
C282 C280 1.383 . S
C282 C283 1.402 . S
C282 H297 0.951 . S
C283 C282 1.402 . S
C283 C284 1.375 . S
C283 C286 1.481 . S
C284 C283 1.375 . S
C284 C285 1.367 . S
C284 H298 0.951 . S
C285 C281 1.383 . S
C285 C284 1.367 . S
C285 H299 0.950 . S
C286 C283 1.481 . S
C286 C287 1.297 . S
C286 H300 0.950 . S
C287 C286 1.297 . S
C287 C288 1.479 . S
C287 H301 0.950 . S
C288 C287 1.479 . S
C288 C289 1.378 . S
C288 C294 1.404 1_545 S
C289 C288 1.378 . S
C289 C290 1.359 1_545 S
C289 H302 0.958 . S
C290 C289 1.359 1_565 S
C290 C291 1.392 . S
C290 H303 0.951 . S
C291 C290 1.392 . S
C291 C293 1.384 . S
H292 C294 0.949 . S
C293 C291 1.384 . S
C293 C294 1.385 . S
C293 H295 0.950 . S
C294 C288 1.404 1_565 S
C294 H292 0.949 . S
C294 C293 1.385 . S
H295 C293 0.950 . S
H296 C280 0.951 . S
H297 C282 0.951 . S
H298 C284 0.951 . S
H299 C285 0.950 . S
H300 C286 0.950 . S
H301 C287 0.950 . S
H302 C289 0.958 . S
H303 C290 0.951 . S
C304 C305 1.386 . S
C304 C306 1.383 . S
C304 H320 0.951 . S
C305 C304 1.386 . S
C305 C309 1.383 . S
C306 C304 1.383 . S
C306 C307 1.402 . S
C306 H321 0.951 . S
C307 C306 1.402 . S
C307 C308 1.375 . S
C307 C310 1.481 . S
C308 C307 1.375 . S
C308 C309 1.367 . S
C308 H322 0.951 . S
C309 C305 1.383 . S
C309 C308 1.367 . S
C309 H323 0.950 . S
C310 C307 1.481 . S
C310 C311 1.297 . S
C310 H324 0.950 . S
C311 C310 1.297 . S
C311 C312 1.479 . S
C311 H325 0.950 . S
C312 C311 1.479 . S
C312 C313 1.375 . S
C312 C318 1.404 1_655 S
C313 C312 1.375 . S
C313 C314 1.369 1_655 S
C313 H326 0.950 . S
C314 C313 1.369 1_455 S
C314 C315 1.392 . S
C314 H327 0.951 . S
C315 C314 1.392 . S
C315 C317 1.384 . S
H316 C318 0.949 . S
C317 C315 1.384 . S
C317 C318 1.385 . S
C317 H319 0.950 . S
C318 C312 1.404 1_455 S
C318 H316 0.949 . S
C318 C317 1.385 . S
H319 C317 0.950 . S
H320 C304 0.951 . S
H321 C306 0.951 . S
H322 C308 0.951 . S
H323 C309 0.950 . S
H324 C310 0.950 . S
H325 C311 0.950 . S
H326 C313 0.950 . S
H327 C314 0.951 . S
C328 C329 1.386 . S
C328 C330 1.383 . S
C328 H344 0.951 . S
C329 C328 1.386 . S
C329 C333 1.383 . S
C330 C328 1.383 . S
C330 C331 1.402 . S
C330 H345 0.951 . S
C331 C330 1.402 . S
C331 C332 1.375 . S
C331 C334 1.481 . S
C332 C331 1.375 . S
C332 C333 1.367 . S
C332 H346 0.951 . S
C333 C329 1.383 . S
C333 C332 1.367 . S
C333 H347 0.950 . S
C334 C331 1.481 . S
C334 C335 1.297 . S
C334 H348 0.950 . S
C335 C334 1.297 . S
C335 C336 1.479 . S
C335 H349 0.950 . S
C336 C335 1.479 . S
C336 C337 1.375 . S
C336 C342 1.404 . S
C337 C336 1.375 . S
C337 C338 1.369 . S
C337 H350 0.950 . S
C338 C337 1.369 . S
C338 C339 1.392 . S
C338 H351 0.951 . S
C339 C338 1.392 . S
C339 C341 1.384 . S
H340 C342 0.949 . S
C341 C339 1.384 . S
C341 C342 1.385 . S
C341 H343 0.950 . S
C342 C336 1.404 . S
C342 H340 0.949 . S
C342 C341 1.385 . S
H343 C341 0.950 . S
H344 C328 0.951 . S
H345 C330 0.951 . S
H346 C332 0.951 . S
H347 C333 0.950 . S
H348 C334 0.950 . S
H349 C335 0.950 . S
H350 C337 0.950 . S
H351 C338 0.951 . S
C352 C353 1.386 . S
C352 C354 1.383 . S
C352 H368 0.951 . S
C353 C352 1.386 . S
C353 C357 1.383 . S
C354 C352 1.383 . S
C354 C355 1.402 . S
C354 H369 0.951 . S
C355 C354 1.402 . S
C355 C356 1.375 . S
C355 C358 1.481 . S
C356 C355 1.375 . S
C356 C357 1.367 . S
C356 H370 0.951 . S
C357 C353 1.383 . S
C357 C356 1.367 . S
C357 H371 0.950 . S
C358 C355 1.481 . S
C358 C359 1.297 . S
C358 H372 0.950 . S
C359 C358 1.297 . S
C359 C360 1.479 . S
C359 H373 0.950 . S
C360 C359 1.479 . S
C360 C361 1.375 1_455 S
C360 C366 1.404 . S
C361 C360 1.375 1_655 S
C361 C362 1.369 . S
C361 H374 0.950 . S
C362 C361 1.369 . S
C362 C363 1.392 . S
C362 H375 0.951 . S
C363 C362 1.392 . S
C363 C365 1.384 . S
H364 C366 0.949 . S
C365 C363 1.384 . S
C365 C366 1.385 1_655 S
C365 H367 0.950 . S
C366 C360 1.404 . S
C366 H364 0.949 . S
C366 C365 1.385 1_455 S
H367 C365 0.950 . S
H368 C352 0.951 . S
H369 C354 0.951 . S
H370 C356 0.951 . S
H371 C357 0.950 . S
H372 C358 0.950 . S
H373 C359 0.950 . S
H374 C361 0.950 . S
H375 C362 0.951 . S
C376 C377 1.386 . S
C376 C378 1.383 . S
C376 H392 0.951 . S
C377 C376 1.386 . S
C377 C381 1.383 . S
C378 C376 1.383 . S
C378 C379 1.402 . S
C378 H393 0.951 . S
C379 C378 1.402 . S
C379 C380 1.375 . S
C379 C382 1.481 . S
C380 C379 1.375 . S
C380 C381 1.367 . S
C380 H394 0.951 . S
C381 C377 1.383 . S
C381 C380 1.367 . S
C381 H395 0.950 . S
C382 C379 1.481 . S
C382 C383 1.297 . S
C382 H396 0.950 . S
C383 C382 1.297 . S
C383 C384 1.479 . S
C383 H397 0.950 . S
C384 C383 1.479 . S
C384 C385 1.375 . S
C384 C390 1.404 . S
C385 C384 1.375 . S
C385 C386 1.369 . S
C385 H398 0.950 . S
C386 C385 1.369 . S
C386 C387 1.392 . S
C386 H399 0.951 . S
C387 C386 1.392 . S
C387 C389 1.384 . S
H388 C390 0.949 . S
C389 C387 1.384 . S
C389 C390 1.385 . S
C389 H391 0.950 . S
C390 C384 1.404 . S
C390 H388 0.949 . S
C390 C389 1.385 . S
H391 C389 0.950 . S
H392 C376 0.951 . S
H393 C378 0.951 . S
H394 C380 0.951 . S
H395 C381 0.950 . S
H396 C382 0.950 . S
H397 C383 0.950 . S
H398 C385 0.950 . S
H399 C386 0.951 . S
C400 C401 1.386 . S
C400 C402 1.383 . S
C400 H416 0.951 . S
C401 C400 1.386 . S
C401 C405 1.383 . S
C402 C400 1.383 . S
C402 C403 1.402 . S
C402 H417 0.951 . S
C403 C402 1.402 . S
C403 C404 1.375 . S
C403 C406 1.481 . S
C404 C403 1.375 . S
C404 C405 1.367 . S
C404 H418 0.951 . S
C405 C401 1.383 . S
C405 C404 1.367 . S
C405 H419 0.950 . S
C406 C403 1.481 . S
C406 C407 1.297 1_655 S
C406 H420 0.950 . S
C407 C406 1.297 1_455 S
C407 C408 1.479 . S
C407 H421 0.950 . S
C408 C407 1.479 . S
C408 C409 1.375 . S
C408 C414 1.404 . S
C409 C408 1.375 . S
C409 C410 1.369 . S
C409 H422 0.950 . S
C410 C409 1.369 . S
C410 C411 1.392 . S
C410 H423 0.951 . S
C411 C410 1.392 . S
C411 C413 1.384 . S
H412 C414 0.949 . S
C413 C411 1.384 . S
C413 C414 1.385 . S
C413 H415 0.950 . S
C414 C408 1.404 . S
C414 H412 0.949 . S
C414 C413 1.385 . S
H415 C413 0.950 . S
H416 C400 0.951 . S
H417 C402 0.951 . S
H418 C404 0.951 . S
H419 C405 0.950 . S
H420 C406 0.950 . S
H421 C407 0.950 . S
H422 C409 0.950 . S
H423 C410 0.951 . S
C424 C425 1.386 . S
C424 C426 1.383 . S
C424 H440 0.951 . S
C425 C424 1.386 . S
C425 C429 1.383 . S
C426 C424 1.383 . S
C426 C427 1.402 . S
C426 H441 0.951 . S
C427 C426 1.402 . S
C427 C428 1.375 . S
C427 C430 1.481 1_655 S
C428 C427 1.375 . S
C428 C429 1.367 . S
C428 H442 0.951 1_655 S
C429 C425 1.383 . S
C429 C428 1.367 . S
C429 H443 0.950 . S
C430 C427 1.481 1_455 S
C430 C431 1.297 1_455 S
C430 H444 0.950 . S
C431 C430 1.297 1_655 S
C431 C432 1.479 1_655 S
C431 H445 0.950 . S
C432 C431 1.479 1_455 S
C432 C433 1.375 . S
C432 C438 1.404 . S
C433 C432 1.375 . S
C433 C434 1.369 . S
C433 H446 0.950 1_455 S
C434 C433 1.369 . S
C434 C435 1.392 . S
C434 H447 0.951 . S
C435 C434 1.392 . S
C435 C437 1.384 . S
H436 C438 0.949 . S
C437 C435 1.384 . S
C437 C438 1.385 . S
C437 H439 0.950 . S
C438 C432 1.404 . S
C438 H436 0.949 . S
C438 C437 1.385 . S
H439 C437 0.950 . S
H440 C424 0.951 . S
H441 C426 0.951 . S
H442 C428 0.951 1_455 S
H443 C429 0.950 . S
H444 C430 0.950 . S
H445 C431 0.950 . S
H446 C433 0.950 1_655 S
H447 C434 0.951 . S
C448 C449 1.386 . S
C448 C450 1.383 . S
C448 H464 0.951 . S
C449 C448 1.386 . S
C449 C453 1.383 . S
C450 C448 1.383 . S
C450 C451 1.402 . S
C450 H465 0.951 . S
C451 C450 1.402 . S
C451 C452 1.375 . S
C451 C454 1.481 . S
C452 C451 1.375 . S
C452 C453 1.367 . S
C452 H466 0.951 . S
C453 C449 1.383 . S
C453 C452 1.367 . S
C453 H467 0.950 . S
C454 C451 1.481 . S
C454 C455 1.297 1_545 S
C454 H468 0.950 . S
C455 C454 1.297 1_565 S
C455 C456 1.479 . S
C455 H469 0.950 . S
C456 C455 1.479 . S
C456 C457 1.375 . S
C456 C462 1.404 . S
C457 C456 1.375 . S
C457 C458 1.369 . S
C457 H470 0.950 . S
C458 C457 1.369 . S
C458 C459 1.392 . S
C458 H471 0.951 . S
C459 C458 1.392 . S
C459 C461 1.384 . S
H460 C462 0.949 1_545 S
C461 C459 1.384 . S
C461 C462 1.385 . S
C461 H463 0.950 . S
C462 C456 1.404 . S
C462 H460 0.949 1_565 S
C462 C461 1.385 . S
H463 C461 0.950 . S
H464 C448 0.951 . S
H465 C450 0.951 . S
H466 C452 0.951 . S
H467 C453 0.950 . S
H468 C454 0.950 . S
H469 C455 0.950 . S
H470 C457 0.950 . S
H471 C458 0.951 . S
C472 C473 1.386 . S
C472 C474 1.383 . S
C472 H488 0.951 . S
C473 C472 1.386 . S
C473 C477 1.383 . S
C474 C472 1.383 . S
C474 C475 1.402 . S
C474 H489 0.951 . S
C475 C474 1.402 . S
C475 C476 1.375 . S
C475 C478 1.481 . S
C476 C475 1.375 . S
C476 C477 1.367 . S
C476 H490 0.951 . S
C477 C473 1.383 . S
C477 C476 1.367 . S
C477 H491 0.950 . S
C478 C475 1.481 . S
C478 C479 1.297 1_545 S
C478 H492 0.950 . S
C479 C478 1.297 1_565 S
C479 C480 1.479 . S
C479 H493 0.950 . S
C480 C479 1.479 . S
C480 C481 1.375 . S
C480 C486 1.404 . S
C481 C480 1.375 . S
C481 C482 1.369 . S
C481 H494 0.950 . S
C482 C481 1.369 . S
C482 C483 1.392 . S
C482 H495 0.951 . S
C483 C482 1.392 . S
C483 C485 1.384 . S
H484 C486 0.949 . S
C485 C483 1.384 . S
C485 C486 1.385 . S
C485 H487 0.950 . S
C486 C480 1.404 . S
C486 H484 0.949 . S
C486 C485 1.385 . S
H487 C485 0.950 . S
H488 C472 0.951 . S
H489 C474 0.951 . S
H490 C476 0.951 . S
H491 C477 0.950 . S
H492 C478 0.950 . S
H493 C479 0.950 . S
H494 C481 0.950 . S
H495 C482 0.951 . S
C113 C7 1.267 . S
C123 C77 1.288 . S
C137 C21 1.256 . S
C147 C91 1.254 . S
C161 C35 1.257 . S
C171 C105 1.240 . S
C185 C63 1.309 . S
C195 C49 1.321 . S
C209 C8 1.639 . S
C219 C59 1.605 . S
C233 C22 1.634 . S
C243 C73 1.622 . S
C257 C87 1.605 . S
C267 C36 1.651 . S
C281 C50 1.641 . S
C291 C101 1.597 . S
C305 C64 1.652 . S
C315 C3 1.578 . S
C329 C17 1.638 . S
C339 C78 1.615 . S
C353 C92 1.632 . S
C363 C31 1.644 . S
C377 C45 1.607 . S
C387 C106 1.637 . S
C401 C37 0.491 . S
C411 C9 0.589 . S
C425 C51 0.524 . S
C435 C23 0.541 . S
C449 C65 0.389 . S
C459 C93 0.546 . S
C473 C79 0.574 . S
C483 C107 0.376 . S
