# Generated by pormake.
# Topology wji, (4)-cn, num edge types: 1
# Building blocks:
#     Node 0, Type 0, BuildingBlock: QUQFOY_clean_sbu_1, # of connection points: 4
#     Node 1, Type 0, BuildingBlock: QUQFOY_clean_sbu_1, # of connection points: 4
#     Node 2, Type 0, BuildingBlock: QUQFOY_clean_sbu_1, # of connection points: 4
#     Node 3, Type 0, BuildingBlock: QUQFOY_clean_sbu_1, # of connection points: 4
#     Node 4, Type 0, BuildingBlock: QUQFOY_clean_sbu_1, # of connection points: 4
#     Node 5, Type 0, BuildingBlock: QUQFOY_clean_sbu_1, # of connection points: 4
#     Node 6, Type 0, BuildingBlock: QUQFOY_clean_sbu_1, # of connection points: 4
#     Node 7, Type 0, BuildingBlock: QUQFOY_clean_sbu_1, # of connection points: 4
#     Node 8, Type 0, BuildingBlock: QUQFOY_clean_sbu_1, # of connection points: 4
#     Node 9, Type 0, BuildingBlock: QUQFOY_clean_sbu_1, # of connection points: 4
#     Node 10, Type 0, BuildingBlock: QUQFOY_clean_sbu_1, # of connection points: 4
#     Node 11, Type 0, BuildingBlock: QUQFOY_clean_sbu_1, # of connection points: 4
#     Edge 12, Type (0, 0), BuildingBlock: ZUJKAS_clean_linker_0, # of connection points: 2
#     Edge 13, Type (0, 0), BuildingBlock: ZUJKAS_clean_linker_0, # of connection points: 2
#     Edge 14, Type (0, 0), BuildingBlock: ZUJKAS_clean_linker_0, # of connection points: 2
#     Edge 15, Type (0, 0), BuildingBlock: ZUJKAS_clean_linker_0, # of connection points: 2
#     Edge 16, Type (0, 0), BuildingBlock: ZUJKAS_clean_linker_0, # of connection points: 2
#     Edge 17, Type (0, 0), BuildingBlock: ZUJKAS_clean_linker_0, # of connection points: 2
#     Edge 18, Type (0, 0), BuildingBlock: ZUJKAS_clean_linker_0, # of connection points: 2
#     Edge 19, Type (0, 0), BuildingBlock: ZUJKAS_clean_linker_0, # of connection points: 2
#     Edge 20, Type (0, 0), BuildingBlock: ZUJKAS_clean_linker_0, # of connection points: 2
#     Edge 21, Type (0, 0), BuildingBlock: ZUJKAS_clean_linker_0, # of connection points: 2
#     Edge 22, Type (0, 0), BuildingBlock: ZUJKAS_clean_linker_0, # of connection points: 2
#     Edge 23, Type (0, 0), BuildingBlock: ZUJKAS_clean_linker_0, # of connection points: 2
#     Edge 24, Type (0, 0), BuildingBlock: ZUJKAS_clean_linker_0, # of connection points: 2
#     Edge 25, Type (0, 0), BuildingBlock: ZUJKAS_clean_linker_0, # of connection points: 2
#     Edge 26, Type (0, 0), BuildingBlock: ZUJKAS_clean_linker_0, # of connection points: 2
#     Edge 27, Type (0, 0), BuildingBlock: ZUJKAS_clean_linker_0, # of connection points: 2
#     Edge 28, Type (0, 0), BuildingBlock: ZUJKAS_clean_linker_0, # of connection points: 2
#     Edge 29, Type (0, 0), BuildingBlock: ZUJKAS_clean_linker_0, # of connection points: 2
#     Edge 30, Type (0, 0), BuildingBlock: ZUJKAS_clean_linker_0, # of connection points: 2
#     Edge 31, Type (0, 0), BuildingBlock: ZUJKAS_clean_linker_0, # of connection points: 2
#     Edge 32, Type (0, 0), BuildingBlock: ZUJKAS_clean_linker_0, # of connection points: 2
#     Edge 33, Type (0, 0), BuildingBlock: ZUJKAS_clean_linker_0, # of connection points: 2
#     Edge 34, Type (0, 0), BuildingBlock: ZUJKAS_clean_linker_0, # of connection points: 2
#     Edge 35, Type (0, 0), BuildingBlock: ZUJKAS_clean_linker_0, # of connection points: 2
# Relax obj value: 0.272
# Max RMSD: 0.191
# Mean RMSD: 0.191
data_MOF--net-wji--node1-QUQFOY_clean_sbu_1--edge1-ZUJKAS_clean_linker_0
_symmetry_space_group_name_H-M    P1
_symmetry_Int_Tables_number       1
_symmetry_cell_setting            triclinic
loop_
_symmetry_equiv_pos_as_xyz
'x, y, z'
_cell_length_a     79.801174
_cell_length_b     79.806103
_cell_length_c     27.917812
_cell_angle_alpha  89.994544
_cell_angle_beta   89.990892
_cell_angle_gamma 119.99166
loop_
_atom_site_label
_atom_site_type_symbol
_atom_site_fract_x
_atom_site_fract_y
_atom_site_fract_z
_atom_type_partial_charge
O0 O 0.39709 0.31479 0.46622 0.0
Cd1 Cd 0.4102 0.30708 0.41463 0.0
Cd2 Cd 0.43908 0.34407 0.42443 0.0
O3 O 0.42419 0.3408 0.4877 0.0
O4 O 0.40143 0.27909 0.42336 0.0
O5 O 0.43148 0.30258 0.43726 0.0
C6 C 0.41862 0.28437 0.43903 0.0
C7 C 0.47248 0.36656 0.42675 0.0
C8 C 0.40637 0.32883 0.49471 0.0
C9 C 0.41348 0.33202 0.33453 0.0
O10 O 0.42579 0.34526 0.36168 0.0
O11 O 0.40632 0.31432 0.34611 0.0
O12 O 0.45965 0.37172 0.43039 0.0
O13 O 0.46645 0.34832 0.42229 0.0
O14 O 0.08715 0.39141 0.62695 0.0
Cd15 Cd 0.10822 0.40603 0.5767 0.0
Cd16 Cd 0.09967 0.43427 0.58997 0.0
O17 O 0.08821 0.41815 0.65172 0.0
O18 O 0.1287 0.39881 0.5836 0.0
O19 O 0.13294 0.42766 0.60312 0.0
C20 C 0.13943 0.41569 0.6025 0.0
C21 C 0.11028 0.46749 0.5979 0.0
C22 C 0.08242 0.40025 0.65694 0.0
C23 C 0.08673 0.41038 0.49759 0.0
O24 O 0.08539 0.42207 0.52619 0.0
O25 O 0.09755 0.40341 0.50801 0.0
O26 O 0.0923 0.45448 0.59992 0.0
O27 O 0.12263 0.46175 0.5913 0.0
O28 O 0.69485 0.08418 0.80253 0.0
Cd29 Cd 0.70515 0.10348 0.74682 0.0
Cd30 Cd 0.66728 0.09563 0.74214 0.0
O31 O 0.66623 0.08205 0.8059 0.0
O32 O 0.73325 0.12111 0.7596 0.0
O33 O 0.71147 0.13058 0.76264 0.0
C34 C 0.7291 0.13445 0.76942 0.0
C35 C 0.6452 0.10702 0.73641 0.0
C36 C 0.6785 0.07786 0.82259 0.0
C37 C 0.68346 0.08186 0.66087 0.0
O38 O 0.66937 0.08237 0.68069 0.0
O39 O 0.70026 0.09084 0.6795 0.0
O40 O 0.63972 0.0889 0.73636 0.0
O41 O 0.6635 0.11908 0.74008 0.0
O42 O 0.61798 0.69656 0.96276 0.0
Cd43 Cd 0.60112 0.69997 0.91247 0.0
Cd44 Cd 0.5755 0.66486 0.93848 0.0
O45 O 0.59243 0.67345 -0.00056 0.0
O46 O 0.60677 0.72734 0.91292 0.0
O47 O 0.57957 0.70263 0.94097 0.0
C48 C 0.59053 0.72111 0.93535 0.0
C49 C 0.54206 0.64369 0.94664 0.0
C50 C 0.6105 0.68544 0.99855 0.0
C51 C 0.59669 0.67081 0.84403 0.0
O52 O 0.58763 0.65965 0.87887 0.0
O53 O 0.60134 0.68856 0.84587 0.0
O54 O 0.55448 0.63833 0.9558 0.0
O55 O 0.54859 0.66142 0.93379 0.0
O56 O 0.92342 0.60925 0.14 0.0
Cd57 Cd 0.90425 0.60059 0.08404 0.0
Cd58 Cd 0.91263 0.57083 0.07727 0.0
O59 O 0.92583 0.58291 0.14164 0.0
O60 O 0.88665 0.61103 0.09752 0.0
O61 O 0.87704 0.57974 0.09884 0.0
C62 C 0.87321 0.59349 0.10635 0.0
C63 C 0.90209 0.53755 0.07067 0.0
C64 C 0.92981 0.59916 0.15933 0.0
C65 C 0.92626 0.60154 0.99774 0.0
O66 O 0.92593 0.58686 0.01658 0.0
O67 O 0.91703 0.60897 0.01704 0.0
O68 O 0.92008 0.55054 0.07083 0.0
O69 O 0.88966 0.54334 0.07418 0.0
O70 O 0.31346 0.92577 0.30149 0.0
Cd71 Cd 0.30747 0.90553 0.24914 0.0
Cd72 Cd 0.34331 0.91316 0.26673 0.0
O73 O 0.33731 0.92242 0.33033 0.0
O74 O 0.27954 0.88553 0.25366 0.0
O75 O 0.30339 0.88009 0.27296 0.0
C76 C 0.28503 0.87412 0.2717 0.0
C77 C 0.36474 0.90103 0.27179 0.0
C78 C 0.32573 0.92892 0.33418 0.0
C79 C 0.33492 0.92887 0.17538 0.0
O80 O 0.34709 0.92986 0.20632 0.0
O81 O 0.31694 0.91723 0.18177 0.0
O82 O 0.3703 0.91898 0.27896 0.0
O83 O 0.3467 0.88959 0.26204 0.0
O84 O 0.69957 0.61799 0.36506 0.0
Cd85 Cd 0.70338 0.60201 0.41715 0.0
Cd86 Cd 0.66844 0.57574 0.39161 0.0
O87 O 0.67709 0.59179 0.32919 0.0
O88 O 0.73099 0.60853 0.41623 0.0
O89 O 0.70665 0.58036 0.39183 0.0
C90 C 0.72511 0.59193 0.39594 0.0
C91 C 0.64721 0.54223 0.38578 0.0
C92 C 0.6888 0.60992 0.32905 0.0
C93 C 0.67415 0.59786 0.48464 0.0
O94 O 0.66311 0.58847 0.4499 0.0
O95 O 0.69196 0.60271 0.48332 0.0
O96 O 0.6419 0.55457 0.37515 0.0
O97 O 0.66495 0.54887 0.39874 0.0
O98 O 0.08618 0.69141 0.53039 0.0
Cd99 Cd 0.10586 0.70279 0.58515 0.0
Cd100 Cd 0.09789 0.6647 0.59445 0.0
O101 O 0.08331 0.66246 0.53165 0.0
O102 O 0.12269 0.73082 0.57 0.0
O103 O 0.13323 0.70988 0.56945 0.0
C104 C 0.13647 0.72721 0.56123 0.0
C105 C 0.10903 0.64241 0.60066 0.0
C106 C 0.07926 0.67453 0.51304 0.0
C107 C 0.08517 0.68255 0.67394 0.0
O108 O 0.08565 0.66811 0.65625 0.0
O109 O 0.09366 0.69887 0.65278 0.0
O110 O 0.09099 0.63717 0.60267 0.0
O111 O 0.12117 0.66061 0.59521 0.0
O112 O 0.395 0.08574 0.70643 0.0
Cd113 Cd 0.40957 0.10663 0.75719 0.0
Cd114 Cd 0.43759 0.09815 0.74161 0.0
O115 O 0.42161 0.08708 0.67963 0.0
O116 O 0.40169 0.12662 0.75069 0.0
O117 O 0.43099 0.13188 0.7324 0.0
C118 C 0.41864 0.13791 0.73279 0.0
C119 C 0.47088 0.10897 0.73451 0.0
C120 C 0.40365 0.08116 0.67547 0.0
C121 C 0.41382 0.08449 0.83427 0.0
O122 O 0.42518 0.08318 0.80445 0.0
O123 O 0.40716 0.09571 0.8256 0.0
O124 O 0.45794 0.091 0.73139 0.0
O125 O 0.46503 0.1212 0.74148 0.0
O126 O 0.31546 0.39351 0.87067 0.0
Cd127 Cd 0.30868 0.40727 0.92263 0.0
Cd128 Cd 0.34531 0.43564 0.91051 0.0
O129 O 0.34064 0.42081 0.84653 0.0
O130 O 0.28085 0.39961 0.91636 0.0
O131 O 0.30508 0.42889 0.8984 0.0
C132 C 0.28668 0.41665 0.89883 0.0
C133 C 0.36728 0.46912 0.9077 0.0
C134 C 0.32877 0.4029 0.84039 0.0
C135 C 0.33445 0.41052 0.00059 0.0
O136 O 0.34748 0.4223 0.97212 0.0
O137 O 0.31668 0.40395 0.99077 0.0
O138 O 0.37269 0.45656 0.90182 0.0
O139 O 0.3491 0.46276 0.91472 0.0
O140 O 0.92755 0.3106 0.03396 0.0
Cd141 Cd 0.90707 0.30362 0.08609 0.0
Cd142 Cd 0.91482 0.34044 0.07383 0.0
O143 O 0.92582 0.3361 0.01078 0.0
O144 O 0.88748 0.27565 0.07902 0.0
O145 O 0.88142 0.29935 0.0631 0.0
C146 C 0.8758 0.28106 0.06246 0.0
C147 C 0.90386 0.36283 0.06781 0.0
C148 C 0.93172 0.32414 0.00425 0.0
C149 C 0.92883 0.32953 0.16485 0.0
O150 O 0.92955 0.34248 0.13689 0.0
O151 O 0.9184 0.31172 0.15416 0.0
O152 O 0.92187 0.36797 0.06497 0.0
O153 O 0.89169 0.34469 0.07419 0.0
O154 O 0.61273 0.9218 0.19627 0.0
Cd155 Cd 0.60194 0.90172 0.25031 0.0
Cd156 Cd 0.57277 0.91049 0.2534 0.0
O157 O 0.58642 0.92413 0.19064 0.0
O158 O 0.61093 0.8828 0.23883 0.0
O159 O 0.58037 0.87554 0.23079 0.0
C160 C 0.59341 0.87053 0.2262 0.0
C161 C 0.53937 0.89974 0.25461 0.0
C162 C 0.6031 0.9284 0.17543 0.0
C163 C 0.60133 0.92286 0.33694 0.0
O164 O 0.58737 0.92328 0.3161 0.0
O165 O 0.60871 0.9134 0.31869 0.0
O166 O 0.55226 0.91777 0.2549 0.0
O167 O 0.54534 0.8874 0.25402 0.0
H168 H 0.37025 0.4258 0.04107 0.0
H169 H 0.38125 0.41049 0.09925 0.0
H170 H 0.32329 0.36196 0.1101 0.0
H171 H 0.31206 0.37724 0.05184 0.0
H172 H 0.36626 0.39534 0.19756 0.0
H173 H 0.35934 0.33955 0.06661 0.0
H174 H 0.36069 0.36187 0.04795 0.0
H175 H 0.3389 0.34306 0.07442 0.0
C176 C 0.35974 0.41201 0.05633 0.0
C177 C 0.34027 0.40272 0.04164 0.0
C178 C 0.36608 0.40327 0.08953 0.0
C179 C 0.35315 0.38498 0.10835 0.0
C180 C 0.33354 0.376 0.09549 0.0
H181 H 0.37877 0.31035 0.28819 0.0
H182 H 0.36334 0.32227 0.23238 0.0
C183 C 0.32712 0.38483 0.06253 0.0
C184 C 0.36051 0.3752 0.14019 0.0
H185 H 0.37175 0.33911 0.14277 0.0
C186 C 0.36737 0.38298 0.18576 0.0
C187 C 0.36184 0.35902 0.1247 0.0
C188 C 0.35492 0.35035 0.07568 0.0
C189 C 0.37565 0.37509 0.21624 0.0
C190 C 0.37767 0.35934 0.20012 0.0
C191 C 0.37035 0.35125 0.15495 0.0
C192 C 0.38772 0.35144 0.22942 0.0
C193 C 0.38195 0.3836 0.26568 0.0
C194 C 0.40688 0.36358 0.24433 0.0
C195 C 0.41569 0.35685 0.27624 0.0
C196 C 0.40562 0.33772 0.29339 0.0
C197 C 0.38695 0.32514 0.27558 0.0
C198 C 0.37806 0.33197 0.24389 0.0
H199 H 0.37419 0.39119 0.27756 0.0
H200 H 0.3794 0.37225 0.29239 0.0
H201 H 0.39765 0.39434 0.26513 0.0
H202 H 0.41486 0.37848 0.23244 0.0
H203 H 0.43015 0.36687 0.28885 0.0
H204 H 0.07492 0.37666 0.44778 0.0
H205 H 0.04795 0.36139 0.39122 0.0
H206 H 0.04084 0.41148 0.3978 0.0
H207 H 0.06737 0.42656 0.45527 0.0
H208 H 0.00726 0.37894 0.41363 0.0
H209 H 0.04149 0.36894 0.25147 0.0
H210 H 0.04528 0.3586 0.30456 0.0
H211 H 0.05548 0.38439 0.30038 0.0
C212 C 0.06795 0.38464 0.43619 0.0
C213 C 0.07333 0.40285 0.45608 0.0
C214 C 0.05251 0.37588 0.40376 0.0
C215 C 0.04236 0.3853 0.38993 0.0
C216 C 0.04837 0.40388 0.40796 0.0
H217 H 0.94723 0.36495 0.20796 0.0
H218 H 0.97353 0.37682 0.2663 0.0
C219 C 0.06363 0.41254 0.44068 0.0
C220 C 0.02459 0.37533 0.35987 0.0
H221 H 0.00717 0.3535 0.25154 0.0
C222 C 0.00729 0.37344 0.37814 0.0
C223 C 0.02452 0.36797 0.31367 0.0
C224 C 0.04272 0.37021 0.29111 0.0
C225 C 0.99006 0.36455 0.35148 0.0
C226 C 0.99007 0.3574 0.3052 0.0
C227 C 0.0072 0.3589 0.2872 0.0
C228 C 0.97278 0.34948 0.27368 0.0
C229 C 0.97192 0.36283 0.37299 0.0
C230 C 0.96341 0.33006 0.25895 0.0
C231 C 0.94816 0.32313 0.22586 0.0
C232 C 0.94228 0.33563 0.20628 0.0
C233 C 0.95133 0.35492 0.22238 0.0
C234 C 0.96638 0.36174 0.25578 0.0
H235 H 0.97312 0.36482 0.41248 0.0
H236 H 0.96936 0.37415 0.35739 0.0
H237 H 0.95916 0.34852 0.36468 0.0
H238 H 0.96818 0.32038 0.27227 0.0
H239 H 0.94166 0.30827 0.21387 0.0
H240 H 0.63733 0.93504 0.37555 0.0
H241 H 0.65442 0.96104 0.43425 0.0
H242 H 0.60376 0.96683 0.44902 0.0
H243 H 0.58661 0.94088 0.39124 0.0
H244 H 0.66224 0.999 0.42302 0.0
H245 H 0.61934 0.96727 0.58761 0.0
H246 H 0.61792 0.95272 0.53657 0.0
H247 H 0.60437 0.96522 0.53748 0.0
C248 C 0.62966 0.94148 0.39232 0.0
C249 C 0.61056 0.93581 0.37871 0.0
C250 C 0.6395 0.95645 0.42559 0.0
C251 C 0.63034 0.96581 0.44634 0.0
C252 C 0.61105 0.95962 0.43423 0.0
H253 H 0.65085 0.06473 0.60607 0.0
H254 H 0.64053 0.03731 0.55204 0.0
C255 C 0.60126 0.94478 0.40096 0.0
C256 C 0.64118 0.98302 0.47773 0.0
H257 H 0.63849 1.00199 0.58517 0.0
C258 C 0.65729 0.99957 0.45883 0.0
C259 C 0.63473 0.98377 0.52447 0.0
C260 C 0.61826 0.96622 0.54792 0.0
C261 C 0.66643 0.01712 0.48445 0.0
C262 C 0.65936 0.01806 0.5302 0.0
C263 C 0.64378 1.0013 0.54984 0.0
C264 C 0.6671 0.03642 0.55755 0.0
C265 C 0.683 0.03476 0.46165 0.0
C266 C 0.68577 0.04548 0.57746 0.0
C267 C 0.69181 0.06133 0.60846 0.0
C268 C 0.67919 0.06825 0.62029 0.0
C269 C 0.66094 0.05978 0.59798 0.0
C270 C 0.65496 0.04402 0.56715 0.0
H271 H 0.68486 0.03238 0.42327 0.0
H272 H 0.68069 0.04733 0.46462 0.0
H273 H 0.69661 0.03848 0.48082 0.0
H274 H 0.69531 0.03973 0.57088 0.0
H275 H 0.70588 0.06738 0.62529 0.0
H276 H 0.6904 0.61326 0.57256 0.0
H277 H 0.67723 0.62524 0.63483 0.0
H278 H 0.62781 0.61093 0.5453 0.0
H279 H 0.6403 0.59828 0.48454 0.0
H280 H 0.66941 0.65385 0.63556 0.0
H281 H 0.60082 0.58573 0.66617 0.0
H282 H 0.62024 0.5866 0.63128 0.0
H283 H 0.60338 0.59262 0.60437 0.0
C284 C 0.67659 0.61243 0.56657 0.0
C285 C 0.66629 0.60452 0.52385 0.0
C286 C 0.66911 0.61935 0.60206 0.0
C287 C 0.65127 0.61861 0.59532 0.0
C288 C 0.64123 0.61107 0.55226 0.0
H289 H 0.61265 0.68784 0.75705 0.0
H290 H 0.62583 0.67568 0.69544 0.0
C291 C 0.64849 0.6039 0.51732 0.0
C292 C 0.64327 0.62614 0.63238 0.0
H293 H 0.60214 0.61456 0.69513 0.0
C294 C 0.65475 0.6452 0.64896 0.0
C295 C 0.62422 0.61482 0.65044 0.0
C296 C 0.61155 0.59375 0.63752 0.0
C297 C 0.64764 0.65332 0.68242 0.0
C298 C 0.62825 0.64231 0.69856 0.0
C299 C 0.61689 0.62318 0.68234 0.0
C300 C 0.61971 0.64975 0.7345 0.0
C301 C 0.66119 0.67342 0.70098 0.0
C302 C 0.61102 0.63887 0.77591 0.0
C303 C 0.603 0.64549 0.81027 0.0
C304 C 0.60362 0.66331 0.80455 0.0
C305 C 0.61201 0.67411 0.76269 0.0
C306 C 0.61977 0.66727 0.72771 0.0
H307 H 0.67659 0.67746 0.6962 0.0
H308 H 0.6588 0.684 0.6807 0.0
H309 H 0.65862 0.67468 0.73956 0.0
H310 H 0.61069 0.62531 0.78214 0.0
H311 H 0.59677 0.63678 0.8421 0.0
H312 H 0.06896 0.65129 0.73348 0.0
H313 H 0.04258 0.64234 0.79008 0.0
H314 H 0.04481 0.69672 0.76477 0.0
H315 H 0.07119 0.70573 0.70708 0.0
H316 H 0.03834 0.65882 0.87318 0.0
H317 H 0.98875 0.65691 0.73029 0.0
H318 H 0.01165 0.65854 0.71696 0.0
H319 H 0.01093 0.67946 0.73776 0.0
C320 C 0.0641 0.66153 0.74038 0.0
C321 C 0.07212 0.67918 0.71531 0.0
C322 C 0.04896 0.65636 0.77279 0.0
C323 C 0.04139 0.66864 0.78086 0.0
C324 C 0.05013 0.68681 0.75827 0.0
H325 H 0.93917 0.63821 0.96215 0.0
H326 H 0.96678 0.6564 0.90809 0.0
C327 C 0.06537 0.69205 0.72575 0.0
C328 C 0.02389 0.6618 0.81144 0.0
H329 H 0.97558 0.64709 0.80749 0.0
C330 C 0.02469 0.65648 0.85894 0.0
C331 C 0.00602 0.6587 0.79282 0.0
C332 C 1.00412 0.66354 0.74159 0.0
C333 C 0.00807 0.64772 0.88787 0.0
C334 C 0.99012 0.64397 0.86873 0.0
C335 C 0.98939 0.64998 0.82195 0.0
C336 C 0.97186 0.63255 0.89595 0.0
C337 C 0.00976 0.64215 0.93855 0.0
C338 C 0.96507 0.61292 0.90514 0.0
C339 C 0.94931 0.60249 0.93558 0.0
C340 C 0.93996 0.61147 0.95761 0.0
C341 C 0.94598 0.63083 0.94575 0.0
C342 C 0.96182 0.64128 0.91508 0.0
H343 H 0.02497 0.64993 0.9514 0.0
H344 H 1.00074 0.64525 0.9633 0.0
H345 H 1.00448 0.62639 0.94001 0.0
H346 H 0.97245 0.60584 0.89013 0.0
H347 H 0.94503 0.58759 0.94354 0.0
H348 H 0.42584 0.05948 0.86274 0.0
H349 H 0.41048 0.03325 0.92076 0.0
H350 H 0.36951 0.05148 0.95657 0.0
H351 H 0.38478 0.07793 0.89807 0.0
H352 H 0.38611 0.04063 0.03774 0.0
H353 H 0.35565 0.98512 0.89421 0.0
H354 H 0.38112 1.00204 0.88896 0.0
H355 H 0.3641 0.01043 0.88329 0.0
C356 C 0.41372 0.05815 0.88327 0.0
C357 C 0.40647 0.07079 0.87535 0.0
C358 C 0.40488 0.04303 0.91626 0.0
C359 C 0.38862 0.04018 0.94217 0.0
C360 C 0.38195 0.05335 0.93653 0.0
H361 H 0.31331 0.93499 0.1079 0.0
H362 H 0.32498 0.96175 0.0502 0.0
C363 C 0.39076 0.06851 0.90325 0.0
C364 C 0.37844 0.02311 0.97414 0.0
H365 H 0.35414 0.97363 0.97374 0.0
C366 C 0.37897 0.02599 0.02379 0.0
C367 C 0.36891 0.00401 0.95578 0.0
C368 C 0.3672 1.00012 0.90262 0.0
C369 C 0.3709 0.01024 0.05567 0.0
C370 C 0.36221 0.99115 0.03739 0.0
C371 C 0.36096 0.98827 0.98767 0.0
C372 C 0.35512 0.97412 0.06955 0.0
C373 C 0.37187 0.01412 0.10877 0.0
C374 C 0.36826 0.9718 0.09812 0.0
C375 C 0.3617 0.95651 0.13068 0.0
C376 C 0.3418 0.94314 0.13549 0.0
C377 C 0.32871 0.94498 0.10517 0.0
C378 C 0.33534 0.96031 0.07233 0.0
H379 H 0.37458 0.02894 0.11642 0.0
H380 H 0.35823 1.00347 0.12673 0.0
H381 H 0.38388 0.01275 0.12457 0.0
H382 H 0.38363 0.98207 0.09586 0.0
H383 H 0.37225 0.95554 0.15315 0.0
H384 H 0.61072 0.52472 0.34953 0.0
H385 H 0.58568 0.49085 0.3566 0.0
H386 H 0.62587 0.47815 0.42845 0.0
H387 H 0.6512 0.51231 0.42177 0.0
H388 H 0.58407 0.45568 0.32622 0.0
H389 H 0.58028 0.4615 0.52446 0.0
H390 H 0.59239 0.48259 0.48659 0.0
H391 H 0.60344 0.4682 0.49848 0.0
C392 C 0.61436 0.51474 0.36644 0.0
C393 C 0.63292 0.52125 0.38548 0.0
C394 C 0.60002 0.49535 0.37029 0.0
C395 C 0.60385 0.48204 0.39349 0.0
C396 C 0.62257 0.48826 0.41088 0.0
H397 H 0.50366 0.36215 0.40391 0.0
H398 H 0.53776 0.38784 0.39793 0.0
C399 C 0.63704 0.50774 0.40684 0.0
C400 C 0.5877 0.46207 0.40162 0.0
H401 H 0.55618 0.43322 0.48812 0.0
C402 C 0.57818 0.45051 0.36167 0.0
C403 C 0.58001 0.45551 0.44794 0.0
C404 C 0.58941 0.46755 0.49198 0.0
C405 C 0.56064 0.433 0.36659 0.0
C406 C 0.55253 0.42688 0.41272 0.0
C407 C 0.56255 0.43793 0.45287 0.0
C408 C 0.5324 0.41081 0.41928 0.0
C409 C 0.55025 0.42183 0.32225 0.0
C410 C 0.51826 0.41518 0.43429 0.0
C411 C 0.49894 0.40067 0.43764 0.0
C412 C 0.49329 0.38139 0.42635 0.0
C413 C 0.50756 0.37687 0.41279 0.0
C414 C 0.52701 0.39151 0.40916 0.0
H415 H 0.55756 0.4296 0.28882 0.0
H416 H 0.54965 0.40763 0.32235 0.0
H417 H 0.53514 0.41901 0.32198 0.0
H418 H 0.52212 0.42997 0.44228 0.0
H419 H 0.48836 0.40466 0.44845 0.0
H420 H 0.14596 0.49957 0.58073 0.0
H421 H 0.15449 0.53374 0.58628 0.0
H422 H 0.09625 0.51601 0.63106 0.0
H423 H 0.08766 0.48222 0.6256 0.0
H424 H 0.13534 0.55159 0.53552 0.0
H425 H 0.1308 0.5567 0.7322 0.0
H426 H 0.13403 0.53818 0.70366 0.0
H427 H 0.11034 0.53559 0.7077 0.0
C428 C 0.13506 0.50302 0.59216 0.0
C429 C 0.11615 0.48819 0.60279 0.0
C430 C 0.13994 0.5225 0.59525 0.0
C431 C 0.12606 0.52738 0.60979 0.0
C432 C 0.10727 0.51258 0.62064 0.0
H433 H 0.08642 0.60437 0.62232 0.0
H434 H 0.09551 0.57949 0.62561 0.0
C435 C 0.10237 0.49324 0.6172 0.0
C436 C 0.13047 0.54775 0.61154 0.0
H437 H 0.12577 0.57926 0.68522 0.0
C438 C 0.13384 0.55797 0.56838 0.0
C439 C 0.12857 0.55601 0.65452 0.0
C440 C 0.12593 0.54613 0.70224 0.0
C441 C 0.13368 0.57551 0.56654 0.0
C442 C 0.13025 0.58298 0.60903 0.0
C443 C 0.12833 0.57346 0.65266 0.0
C444 C 0.12557 0.59876 0.60794 0.0
C445 C 0.13571 0.58519 0.51879 0.0
C446 C 0.13956 0.61797 0.59729 0.0
C447 C 0.1344 0.63239 0.59548 0.0
C448 C 0.11516 0.62773 0.60411 0.0
C449 C 0.10135 0.60849 0.6153 0.0
C450 C 0.10651 0.59422 0.61732 0.0
H451 H 0.13694 0.57678 0.48865 0.0
H452 H 0.12304 0.58711 0.51232 0.0
H453 H 0.14882 0.59976 0.51909 0.0
H454 H 0.1544 0.62177 0.59033 0.0
H455 H 0.14536 0.64708 0.58682 0.0
H456 H 0.48601 0.08625 0.71093 0.0
H457 H 0.51989 0.09502 0.70757 0.0
H458 H 0.537 0.15376 0.74595 0.0
H459 H 0.50274 0.14503 0.74964 0.0
H460 H 0.55059 0.12498 0.64965 0.0
H461 H 0.56399 0.13566 0.84639 0.0
H462 H 0.53978 0.12236 0.82233 0.0
H463 H 0.5535 0.14816 0.81609 0.0
C464 C 0.4969 0.10108 0.71861 0.0
C465 C 0.49165 0.11493 0.73078 0.0
C466 C 0.5163 0.10607 0.71653 0.0
C467 C 0.53093 0.12498 0.72681 0.0
C468 C 0.52588 0.13902 0.73834 0.0
H469 H 0.64999 0.14334 0.75122 0.0
H470 H 0.6249 0.15268 0.74603 0.0
C471 C 0.50634 0.13404 0.74023 0.0
C472 C 0.55133 0.12944 0.72586 0.0
H473 H 0.58751 0.13393 0.79959 0.0
C474 C 0.55889 0.12742 0.68227 0.0
C475 C 0.56215 0.1327 0.76842 0.0
C476 C 0.55454 0.1348 0.81616 0.0
C477 C 0.57642 0.12735 0.68054 0.0
C478 C 0.58649 0.12909 0.72358 0.0
C479 C 0.57971 0.13259 0.76668 0.0
C480 C 0.60209 0.12417 0.72546 0.0
C481 C 0.58357 0.12445 0.63296 0.0
C482 C 0.59747 0.10508 0.71617 0.0
C483 C 0.61157 0.09971 0.71949 0.0
C484 C 0.63069 0.11334 0.73211 0.0
C485 C 0.6354 0.13255 0.74121 0.0
C486 C 0.62112 0.1379 0.73831 0.0
H487 H 0.57783 0.12917 0.60276 0.0
H488 H 0.59963 0.13255 0.63141 0.0
H489 H 0.57854 0.10885 0.62807 0.0
H490 H 0.5828 0.0942 0.70694 0.0
H491 H 0.60741 0.0848 0.71223 0.0
H492 H 0.51194 0.64736 0.91105 0.0
H493 H 0.4777 0.62208 0.90678 0.0
H494 H 0.49084 0.58262 0.98088 0.0
H495 H 0.52479 0.6076 0.98538 0.0
H496 H 0.46417 0.58656 0.86019 0.0
H497 H 0.44232 0.57474 0.05063 0.0
H498 H 0.4635 0.59642 0.02974 0.0
H499 H 0.46454 0.57474 0.04083 0.0
C500 C 0.50743 0.63341 0.92723 0.0
C501 C 0.52108 0.62947 0.94851 0.0
C502 C 0.48789 0.61899 0.9247 0.0
C503 C 0.48167 0.60056 0.94412 0.0
C504 C 0.4952 0.59685 0.96658 0.0
H505 H 0.40452 0.48593 0.87718 0.0
H506 H 0.42956 0.51982 0.8829 0.0
C507 C 0.51467 0.61113 0.9688 0.0
C508 C 0.46157 0.58447 0.93706 0.0
H509 H 0.42384 0.5477 0.99719 0.0
C510 C 0.45513 0.57831 0.89012 0.0
C511 C 0.44965 0.57385 0.97605 0.0
C512 C 0.45527 0.58039 0.02714 0.0
C513 C 0.43781 0.561 0.88129 0.0
C514 C 0.42677 0.54951 0.92038 0.0
C515 C 0.43242 0.55642 0.96722 0.0
C516 C 0.41084 0.52933 0.91365 0.0
C517 C 0.43182 0.55479 0.83016 0.0
C518 C 0.39195 0.52335 0.92943 0.0
C519 C 0.37747 0.50384 0.92607 0.0
C520 C 0.3818 0.49002 0.90771 0.0
C521 C 0.40068 0.49618 0.89149 0.0
C522 C 0.41501 0.5156 0.89441 0.0
H523 H 0.43796 0.56742 0.80554 0.0
H524 H 0.43736 0.54512 0.81882 0.0
H525 H 0.41583 0.54676 0.82646 0.0
H526 H 0.3885 0.53371 0.94482 0.0
H527 H 0.36308 0.4995 0.93911 0.0
H528 H 0.86787 0.35859 0.08451 0.0
H529 H 0.85889 0.38393 0.07992 0.0
H530 H 0.91726 0.42545 0.03837 0.0
H531 H 0.92629 0.40055 0.04282 0.0
H532 H 0.87694 0.42046 0.13228 0.0
H533 H 0.88325 0.43175 0.93616 0.0
H534 H 0.88023 0.40994 0.96394 0.0
H535 H 0.90373 0.43136 0.96148 0.0
C536 C 0.87871 0.3731 0.07404 0.0
C537 C 0.89778 0.37754 0.06392 0.0
C538 C 0.87357 0.38753 0.07149 0.0
C539 C 0.88735 0.40647 0.05805 0.0
C540 C 0.90631 0.41085 0.04789 0.0
H541 H 0.92554 0.52278 0.05244 0.0
H542 H 0.91698 0.48897 0.04816 0.0
C543 C 0.91147 0.39658 0.05075 0.0
C544 C 0.88261 0.42222 0.05655 0.0
H545 H 0.88746 0.45883 0.98412 0.0
C546 C 0.87864 0.42857 0.09971 0.0
C547 C 0.88477 0.4327 0.01395 0.0
C548 C 0.88804 0.42598 0.96616 0.0
C549 C 0.87843 0.44608 0.10202 0.0
C550 C 0.88215 0.45731 0.06003 0.0
C551 C 0.88468 0.45021 0.0163 0.0
C552 C 0.88653 0.47766 0.06196 0.0
C553 C 0.87571 0.45321 0.14981 0.0
C554 C 0.87216 0.48252 0.07079 0.0
C555 C 0.87701 0.50202 0.07312 0.0
C556 C 0.89632 0.51684 0.06686 0.0
C557 C 0.91055 0.51177 0.0576 0.0
C558 C 0.90569 0.49243 0.05503 0.0
H559 H 0.87396 0.4432 0.17952 0.0
H560 H 0.88834 0.46767 0.1577 0.0
H561 H 0.86268 0.45481 0.14852 0.0
H562 H 0.85725 0.47128 0.07589 0.0
H563 H 0.86574 0.50547 0.08028 0.0
H564 H 0.40135 0.92057 0.30679 0.0
H565 H 0.42608 0.91119 0.30385 0.0
H566 H 0.38556 0.85709 0.23737 0.0
H567 H 0.36045 0.86641 0.24026 0.0
H568 H 0.42542 0.87606 0.34113 0.0
H569 H 0.43326 0.88543 0.14285 0.0
H570 H 0.42187 0.896 0.17786 0.0
H571 H 0.40952 0.87039 0.16789 0.0
C572 C 0.39757 0.90658 0.29187 0.0
C573 C 0.37896 0.89428 0.27343 0.0
C574 C 0.41172 0.90122 0.29041 0.0
C575 C 0.40767 0.88352 0.27016 0.0
C576 C 0.38897 0.87087 0.25292 0.0
H577 H 0.5078 0.86327 0.26721 0.0
H578 H 0.47349 0.85451 0.26959 0.0
C579 C 0.37466 0.87619 0.25471 0.0
C580 C 0.42362 0.87922 0.26507 0.0
H581 H 0.45717 0.88236 0.18414 0.0
C582 C 0.43209 0.87687 0.30672 0.0
C583 C 0.43234 0.88047 0.2201 0.0
C584 C 0.42392 0.88328 0.17444 0.0
C585 C 0.44965 0.87679 0.30481 0.0
C586 C 0.45891 0.87915 0.26016 0.0
C587 C 0.4499 0.88041 0.21824 0.0
C588 C 0.47927 0.88368 0.25724 0.0
C589 C 0.45893 0.87557 0.35073 0.0
C590 C 0.49371 0.90288 0.24919 0.0
C591 C 0.51312 0.90791 0.24815 0.0
C592 C 0.51857 0.89381 0.25477 0.0
C593 C 0.50404 0.87445 0.26202 0.0
C594 C 0.48449 0.86943 0.26344 0.0
H595 H 0.44997 0.87403 0.38268 0.0
H596 H 0.46126 0.86299 0.34923 0.0
H597 H 0.47332 0.88878 0.35499 0.0
H598 H 0.48994 0.91408 0.2444 0.0
H599 H 0.52389 0.92294 0.24225 0.0
H600 H 0.34092 0.41626 0.75009 0.0
H601 H 0.34972 0.40072 0.68715 0.0
H602 H 0.33456 0.35212 0.78091 0.0
H603 H 0.32439 0.36698 0.84215 0.0
H604 H 0.37733 0.39436 0.68788 0.0
H605 H 0.3121 0.32297 0.66288 0.0
H606 H 0.3116 0.3419 0.69695 0.0
H607 H 0.31911 0.32626 0.72458 0.0
C608 C 0.33899 0.40201 0.75653 0.0
C609 C 0.33187 0.3927 0.8006 0.0
C610 C 0.34406 0.39316 0.72073 0.0
C611 C 0.3426 0.37508 0.72889 0.0
C612 C 0.33521 0.36569 0.77286 0.0
H613 H 0.42026 0.34549 0.58177 0.0
H614 H 0.40397 0.35517 0.64068 0.0
C615 C 0.32953 0.37427 0.80806 0.0
C616 C 0.3507 0.3671 0.69358 0.0
H617 H 0.34221 0.32566 0.63703 0.0
C618 C 0.36948 0.3794 0.67626 0.0
C619 C 0.34048 0.34763 0.67782 0.0
C620 C 0.31964 0.33404 0.69116 0.0
C621 C 0.37841 0.37279 0.64424 0.0
C622 C 0.36874 0.35298 0.63123 0.0
C623 C 0.34982 0.34074 0.64782 0.0
C624 C 0.37773 0.34492 0.59897 0.0
C625 C 0.39788 0.38732 0.62384 0.0
C626 C 0.36784 0.33458 0.55784 0.0
C627 C 0.37683 0.32834 0.52524 0.0
C628 C 0.39598 0.33267 0.53279 0.0
C629 C 0.40557 0.34222 0.57493 0.0
C630 C 0.39635 0.34794 0.60826 0.0
H631 H 0.40007 0.40221 0.6246 0.0
H632 H 0.40949 0.38738 0.64584 0.0
H633 H 0.3995 0.38379 0.58627 0.0
H634 H 0.35342 0.33193 0.55002 0.0
H635 H 0.36915 0.32105 0.49288 0.0
H636 H 0.93106 0.33748 0.91502 0.0
H637 H 0.95508 0.34577 0.85149 0.0
H638 H 0.98712 0.32788 0.94233 0.0
H639 H 0.96239 0.31828 0.00423 0.0
H640 H 0.9896 0.37237 0.85273 0.0
H641 H 0.9921 0.3054 0.822 0.0
H642 H 0.97323 0.30562 0.85704 0.0
H643 H 0.99618 0.31187 0.88403 0.0
C644 C 0.943 0.33487 0.92073 0.0
C645 C 0.94489 0.32716 0.96419 0.0
C646 C 0.95673 0.33964 0.88457 0.0
C647 C 0.97285 0.33724 0.89172 0.0
C648 C 0.97454 0.32926 0.93507 0.0
H649 H 0.08082 0.41287 0.74642 0.0
H650 H 0.0549 0.39643 0.80532 0.0
C651 C 0.96048 0.32392 0.97064 0.0
C652 C 0.98882 0.34499 0.85613 0.0
H653 H 0.02025 0.33506 0.79677 0.0
C654 C 0.99608 0.36406 0.84002 0.0
C655 C 0.99722 0.33416 0.83893 0.0
C656 C 0.9891 0.31307 0.85104 0.0
C657 C 0.01159 0.37269 0.80789 0.0
C658 C 0.0209 0.36236 0.79346 0.0
C659 C 0.01342 0.34315 0.8087 0.0
C660 C 0.03798 0.37107 0.76131 0.0
C661 C 0.01741 0.3926 0.78894 0.0
C662 C 0.03788 0.3616 0.71882 0.0
C663 C 0.05307 0.37065 0.68608 0.0
C664 C 0.06838 0.38943 0.69499 0.0
C665 C 0.06901 0.39847 0.73857 0.0
C666 C 0.05411 0.38918 0.77192 0.0
H667 H 1.00519 0.39552 0.79061 0.0
H668 H 0.02929 0.40365 0.81131 0.0
H669 H 0.02246 0.39437 0.75125 0.0
H670 H 0.02569 0.34755 0.71002 0.0
H671 H 0.05226 0.36341 0.65261 0.0
H672 H 0.58642 0.9451 0.12328 0.0
H673 H 0.60186 0.97078 0.06382 0.0
H674 H 0.655 0.96953 0.07876 0.0
H675 H 0.63965 0.94365 0.13826 0.0
H676 H 0.63571 0.00734 0.08396 0.0
H677 H 0.64632 0.96854 0.93167 0.0
H678 H 0.6292 0.956 0.97921 0.0
H679 H 0.6546 0.96573 0.98944 0.0
C680 C 0.60131 0.95006 0.11352 0.0
C681 C 0.61183 0.94236 0.13565 0.0
C682 C 0.6101 0.96476 0.0796 0.0
C683 C 0.6295 0.97195 0.06693 0.0
C684 C 0.63993 0.96397 0.08775 0.0
H685 H 0.70018 0.06406 0.86475 0.0
H686 H 0.69007 0.03968 0.92802 0.0
C687 C 0.63114 0.94923 0.12179 0.0
C688 C 0.63902 0.98861 0.03408 0.0
H689 H 0.65851 1.00204 0.92237 0.0
C690 C 0.64077 0.00624 0.04866 0.0
C691 C 0.64573 0.98708 0.98838 0.0
C692 C 0.6438 0.96831 0.97086 0.0
C693 C 0.64885 0.02239 0.01838 0.0
C694 C 0.655 0.02071 0.97207 0.0
C695 C 0.65375 1.00323 0.95796 0.0
C696 C 0.66169 0.03651 0.93664 0.0
C697 C 0.65074 0.04111 0.03621 0.0
C698 C 0.64907 0.04281 0.92084 0.0
C699 C 0.65478 0.05672 0.88485 0.0
C700 C 0.67318 0.06448 0.86372 0.0
C701 C 0.68593 0.0584 0.88033 0.0
C702 C 0.68018 0.04446 0.91637 0.0
H703 H 0.65086 0.04172 0.07598 0.0
H704 H 0.66416 0.05378 0.02248 0.0
H705 H 0.63819 0.04227 0.02343 0.0
H706 H 0.63459 0.03656 0.93543 0.0
H707 H 0.64457 0.06102 0.87279 0.0
H708 H 0.64808 0.69445 0.98958 0.0
H709 H 0.66611 0.68547 0.04466 0.0
H710 H 0.61939 0.66523 0.14681 0.0
H711 H 0.60088 0.67327 0.09084 0.0
H712 H 0.67998 0.69271 0.13398 0.0
H713 H 0.62086 0.6166 0.12046 0.0
H714 H 0.62167 0.63553 0.08362 0.0
H715 H 0.61246 0.63199 0.14394 0.0
C716 C 0.64182 0.68843 0.02418 0.0
C717 C 0.62296 0.68422 0.0357 0.0
C718 C 0.65213 0.68329 0.05557 0.0
C719 C 0.64381 0.67411 0.09912 0.0
C720 C 0.62578 0.67168 0.11263 0.0
H721 H 0.69535 0.6467 0.33455 0.0
H722 H 0.68737 0.66371 0.27428 0.0
C723 C 0.61529 0.67641 0.08085 0.0
C724 C 0.6532 0.66565 0.12845 0.0
H725 H 0.6447 0.6234 0.17984 0.0
C726 C 0.67235 0.67753 0.14382 0.0
C727 C 0.64345 0.6457 0.13989 0.0
C728 C 0.62357 0.63168 0.12066 0.0
C729 C 0.6818 0.6701 0.17174 0.0
C730 C 0.67156 0.65043 0.18588 0.0
C731 C 0.65258 0.63851 0.16933 0.0
C732 C 0.67962 0.64183 0.21942 0.0
C733 C 0.70271 0.68336 0.18502 0.0
C734 C 0.67794 0.62383 0.20892 0.0
C735 C 0.68186 0.61378 0.24395 0.0
C736 C 0.68794 0.62176 0.28975 0.0
C737 C 0.69091 0.64034 0.29928 0.0
C738 C 0.68649 0.65015 0.26465 0.0
H739 H 0.71019 0.69489 0.15773 0.0
H740 H 0.7034 0.69054 0.21958 0.0
H741 H 0.71065 0.67531 0.18882 0.0
H742 H 0.6727 0.61711 0.17427 0.0
H743 H 0.67953 0.5995 0.23573 0.0
H744 H 0.0614 0.63947 0.46788 0.0
H745 H 0.03583 0.62817 0.4077 0.0
H746 H 0.03923 0.68382 0.40889 0.0
H747 H 0.06499 0.6954 0.46875 0.0
H748 H 1.00004 0.62672 0.42158 0.0
H749 H 0.04023 0.67247 0.26533 0.0
H750 H 0.05228 0.66911 0.31608 0.0
H751 H 0.04286 0.68533 0.32021 0.0
C752 C 0.05693 0.64942 0.45491 0.0
C753 C 0.06522 0.66834 0.47318 0.0
C754 C 0.04229 0.64291 0.42061 0.0
C755 C 0.03577 0.6552 0.40377 0.0
C756 C 0.04429 0.67422 0.42098 0.0
H757 H 0.94454 0.63483 0.20099 0.0
H758 H 0.96905 0.64864 0.26407 0.0
C759 C 0.05897 0.68078 0.45529 0.0
C760 C 0.01928 0.64769 0.37026 0.0
H761 H 0.00632 0.6528 0.25716 0.0
C762 C 1.00138 0.63239 0.38561 0.0
C763 C 0.02112 0.65528 0.32361 0.0
C764 C 0.04018 0.67135 0.30501 0.0
C765 C 0.98522 0.6244 0.35533 0.0
C766 C 0.98715 0.63174 0.30838 0.0
C767 C 1.00494 0.64727 0.29331 0.0
C768 C 0.97118 0.62287 0.27339 0.0
C769 C 0.9662 0.60825 0.37389 0.0
C770 C 0.96425 0.60379 0.25816 0.0
C771 C 0.95028 0.59584 0.22221 0.0
C772 C 0.94309 0.60691 0.20066 0.0
C773 C 0.94975 0.6259 0.2169 0.0
C774 C 0.96376 0.63384 0.25282 0.0
H775 H 0.96575 0.60797 0.41368 0.0
H776 H 0.95389 0.60966 0.36029 0.0
H777 H 0.96425 0.59419 0.36139 0.0
H778 H 0.97006 0.59522 0.27307 0.0
H779 H 0.94551 0.5812 0.21049 0.0
H780 H 0.33694 0.92751 0.42544 0.0
H781 H 0.34506 0.95171 0.48837 0.0
H782 H 0.33007 0.98492 0.39339 0.0
H783 H 0.32067 0.96009 0.33194 0.0
H784 H 0.37279 0.98583 0.48652 0.0
H785 H 0.30738 0.99172 0.51139 0.0
H786 H 0.30694 0.97219 0.47788 0.0
H787 H 0.31429 0.99518 0.44959 0.0
C788 C 0.33487 0.93972 0.41869 0.0
C789 C 0.32812 0.94195 0.37411 0.0
C790 C 0.33955 0.95356 0.45451 0.0
C791 C 0.338 0.9701 0.44596 0.0
C792 C 0.3308 0.97205 0.40166 0.0
H793 H 0.416 0.07831 0.58648 0.0
H794 H 0.39891 0.05202 0.52888 0.0
C795 C 0.32557 0.95791 0.36635 0.0
C796 C 0.34605 0.98627 0.48096 0.0
H797 H 0.33752 0.01939 0.53649 0.0
C798 C 0.36491 0.99295 0.49794 0.0
C799 C 0.33579 0.99551 0.49644 0.0
C800 C 0.31491 0.98811 0.48324 0.0
C801 C 0.3739 0.00872 0.52919 0.0
C802 C 0.36418 0.01884 0.54185 0.0
C803 C 0.34515 0.01193 0.52585 0.0
C804 C 0.37334 0.03621 0.57298 0.0
C805 C 0.39354 0.014 0.54906 0.0
C806 C 0.36402 0.03686 0.615 0.0
C807 C 0.37347 0.05224 0.64702 0.0
C808 C 0.39251 0.06702 0.63785 0.0
C809 C 0.40141 0.06693 0.59459 0.0
C810 C 0.39174 0.05182 0.56197 0.0
H811 H 0.3959 1.0014 0.54867 0.0
H812 H 0.40495 0.02547 0.52648 0.0
H813 H 0.39531 0.01939 0.58642 0.0
H814 H 0.34976 0.02508 0.62406 0.0
H815 H 0.36631 0.05196 0.68022 0.0
H816 H 0.4509 0.29158 0.49015 0.0
H817 H 0.45544 0.26862 0.53896 0.0
H818 H 0.39993 0.22233 0.4927 0.0
H819 H 0.39529 0.24508 0.44379 0.0
H820 H 0.43097 0.24657 0.61464 0.0
H821 H 0.43541 0.19916 0.4762 0.0
H822 H 0.43893 0.22284 0.46263 0.0
H823 H 0.4149 0.20251 0.46933 0.0
C824 C 0.43983 0.27644 0.48954 0.0
C825 C 0.42274 0.27017 0.4629 0.0
C826 C 0.44242 0.26335 0.51767 0.0
C827 C 0.4281 0.24372 0.51923 0.0
C828 C 0.41132 0.23733 0.49147 0.0
H829 H 0.39635 0.15508 0.73121 0.0
H830 H 0.40099 0.1824 0.682 0.0
C831 C 0.40867 0.2504 0.46359 0.0
C832 C 0.42996 0.23014 0.5524 0.0
H833 H 0.42939 0.18707 0.55646 0.0
C834 C 0.43085 0.23367 0.6019 0.0
C835 C 0.42998 0.2134 0.53582 0.0
C836 C 0.42994 0.20929 0.48307 0.0
C837 C 0.43101 0.22054 0.63526 0.0
C838 C 0.43009 0.20334 0.61872 0.0
C839 C 0.42996 0.20019 0.56918 0.0
C840 C 0.42833 0.188 0.65208 0.0
C841 C 0.43208 0.22515 0.68794 0.0
C842 C 0.44218 0.18204 0.65187 0.0
C843 C 0.43959 0.16641 0.68015 0.0
C844 C 0.42295 0.15626 0.70876 0.0
C845 C 0.40938 0.16262 0.70988 0.0
C846 C 0.41204 0.1783 0.68182 0.0
H847 H 0.43815 0.24089 0.69416 0.0
H848 H 0.41728 0.21744 0.70336 0.0
H849 H 0.44108 0.22035 0.70738 0.0
H850 H 0.45482 0.18926 0.62905 0.0
H851 H 0.45025 0.16182 0.67812 0.0
H852 H 0.2938 0.44163 0.82486 0.0
H853 H 0.27005 0.4445 0.77574 0.0
H854 H 0.22438 0.40473 0.86946 0.0
H855 H 0.24804 0.40087 0.91678 0.0
H856 H 0.21376 0.39413 0.78484 0.0
H857 H 0.24181 0.47287 0.7851 0.0
H858 H 0.25985 0.46768 0.76345 0.0
H859 H 0.25137 0.46176 0.82439 0.0
C860 C 0.27874 0.43384 0.83561 0.0
C861 C 0.27279 0.42109 0.87483 0.0
C862 C 0.26513 0.43557 0.80757 0.0
C863 C 0.24532 0.42509 0.81904 0.0
C864 C 0.23952 0.41299 0.85961 0.0
H865 H 0.15658 0.44075 0.67681 0.0
H866 H 0.18263 0.44351 0.72834 0.0
C867 C 0.25306 0.41087 0.88688 0.0
C868 C 0.2305 0.42528 0.78658 0.0
H869 H 0.21895 0.45479 0.72312 0.0
C870 C 0.21485 0.40745 0.77187 0.0
C871 C 0.23162 0.44258 0.76975 0.0
C872 C 0.24696 0.46227 0.78695 0.0
C873 C 0.20049 0.40639 0.74085 0.0
C874 C 0.20224 0.42365 0.72168 0.0
C875 C 0.21773 0.44151 0.73686 0.0
C876 C 0.18776 0.42344 0.6874 0.0
C877 C 0.1833 0.38671 0.73035 0.0
C878 C 0.18241 0.41192 0.64589 0.0
C879 C 0.16721 0.40999 0.61698 0.0
C880 C 0.1575 0.42012 0.62795 0.0
C881 C 0.16384 0.43282 0.66729 0.0
C882 C 0.17872 0.43436 0.69689 0.0
H883 H 0.18103 0.37617 0.75917 0.0
H884 H 0.16982 0.38741 0.72645 0.0
H885 H 0.18592 0.38106 0.69656 0.0
H886 H 0.18963 0.40394 0.63651 0.0
H887 H 0.16277 0.40024 0.58663 0.0
H888 H 0.85165 0.28848 0.00802 0.0
H889 H 0.82437 0.26548 0.95876 0.0
H890 H 0.8317 0.2188 0.01167 0.0
H891 H 0.85893 0.24162 0.06093 0.0
H892 H 0.82744 0.24189 0.88612 0.0
H893 H 0.77275 0.19761 0.02336 0.0
H894 H 0.79304 0.22133 0.03607 0.0
H895 H 0.79635 0.20067 0.03365 0.0
C896 C 0.8472 0.27326 0.01001 0.0
C897 C 0.85748 0.2669 0.03856 0.0
C898 C 0.83166 0.26015 0.98161 0.0
C899 C 0.82591 0.2404 0.98173 0.0
C900 C 0.83568 0.23392 0.0115 0.0
H901 H 0.76795 0.14837 0.7787 0.0
H902 H 0.791 0.17577 0.82721 0.0
C903 C 0.8513 0.24702 0.0396 0.0
C904 C 0.81069 0.22677 0.94824 0.0
H905 H 0.76708 0.18484 0.94396 0.0
C906 C 0.81415 0.22953 0.89874 0.0
C907 C 0.79329 0.21072 0.96469 0.0
C908 C 0.78848 0.20743 0.01733 0.0
C909 C 0.801 0.21628 0.86536 0.0
C910 C 0.78399 0.19981 0.88191 0.0
C911 C 0.78018 0.19742 0.93132 0.0
C912 C 0.77039 0.18442 0.84877 0.0
C913 C 0.80545 0.21991 0.81263 0.0
C914 C 0.75116 0.18026 0.84437 0.0
C915 C 0.73794 0.16465 0.81627 0.0
C916 C 0.74366 0.15273 0.79267 0.0
C917 C 0.76308 0.15729 0.79617 0.0
C918 C 0.7763 0.17298 0.82386 0.0
H919 H 0.81641 0.23525 0.80533 0.0
H920 H 0.81127 0.21069 0.79963 0.0
H921 H 0.79214 0.21612 0.79188 0.0
H922 H 0.74628 0.18886 0.86346 0.0
H923 H 0.72307 0.16146 0.81471 0.0
H924 H 0.61213 0.84995 0.23646 0.0
H925 H 0.60812 0.82275 0.18755 0.0
H926 H 0.56211 0.82386 0.10904 0.0
H927 H 0.56528 0.85025 0.15997 0.0
H928 H 0.5538 0.78846 0.11682 0.0
H929 H 0.62996 0.82994 0.05743 0.0
H930 H 0.62849 0.82656 0.12102 0.0
H931 H 0.61907 0.84063 0.0936 0.0
C932 C 0.60093 0.84415 0.20931 0.0
C933 C 0.58909 0.8523 0.20188 0.0
C934 C 0.59881 0.82875 0.1809 0.0
C935 C 0.58531 0.82166 0.14321 0.0
C936 C 0.57278 0.82914 0.13745 0.0
H937 H 0.60285 0.7587 0.91094 0.0
H938 H 0.59909 0.78261 0.95746 0.0
C939 C 0.57456 0.84421 0.16672 0.0
C940 C 0.58461 0.80691 0.10904 0.0
H941 H 0.613 0.79642 0.03793 0.0
C942 C 0.56674 0.79028 0.09929 0.0
C943 C 0.60135 0.80942 0.08489 0.0
C944 C 0.62073 0.82771 0.08933 0.0
C945 C 0.56522 0.77599 0.06713 0.0
C946 C 0.58217 0.7779 0.0455 0.0
C947 C 0.59996 0.79471 0.05462 0.0
C948 C 0.58207 0.7627 0.01396 0.0
C949 C 0.54534 0.7593 0.05593 0.0
C950 C 0.57339 0.74334 0.02921 0.0
C951 C 0.57501 0.72953 0.00176 0.0
C952 C 0.5859 0.73488 0.95923 0.0
C953 C 0.59429 0.75413 0.94344 0.0
C954 C 0.59223 0.76783 0.97024 0.0
H955 H 0.5341 0.76352 0.06027 0.0
H956 H 0.54449 0.75391 0.01884 0.0
H957 H 0.54184 0.7473 0.08135 0.0
H958 H 0.56605 0.739 0.0634 0.0
H959 H 0.56869 0.71489 0.01538 0.0
H960 H 0.71733 0.56157 0.33654 0.0
H961 H 0.74043 0.55729 0.2878 0.0
H962 H 0.7876 0.60814 0.352 0.0
H963 H 0.76465 0.61253 0.40087 0.0
H964 H 0.76586 0.5851 0.22106 0.0
H965 H 0.80627 0.5684 0.35643 0.0
H966 H 0.78289 0.56591 0.36853 0.0
H967 H 0.80433 0.58936 0.37026 0.0
C968 C 0.73264 0.57159 0.34116 0.0
C969 C 0.73912 0.58738 0.37273 0.0
C970 C 0.74583 0.56917 0.31306 0.0
C971 C 0.76576 0.58232 0.31641 0.0
C972 C 0.77232 0.59763 0.3493 0.0
H973 H 0.8598 0.61871 0.11853 0.0
H974 H 0.83207 0.61391 0.16631 0.0
C975 C 0.75915 0.60014 0.37718 0.0
C976 C 0.77956 0.58103 0.2829 0.0
H977 H 0.82055 0.5776 0.27869 0.0
C978 C 0.77769 0.58324 0.23361 0.0
C979 C 0.79491 0.57846 0.2992 0.0
C980 C 0.79718 0.57521 0.35145 0.0
C981 C 0.79116 0.58368 0.20042 0.0
C982 C 0.80699 0.58197 0.21697 0.0
C983 C 0.80846 0.57902 0.26604 0.0
C984 C 0.82269 0.58415 0.18435 0.0
C985 C 0.78842 0.58608 0.14792 0.0
C986 C 0.82661 0.56897 0.17831 0.0
C987 C 0.84243 0.57163 0.15069 0.0
C988 C 0.85481 0.58963 0.12919 0.0
C989 C 0.85052 0.60463 0.13434 0.0
C990 C 0.83464 0.60191 0.1616 0.0
H991 H 0.77323 0.58207 0.13978 0.0
H992 H 0.79791 0.60145 0.13769 0.0
H993 H 0.79242 0.57711 0.12555 0.0
H994 H 0.81762 0.55517 0.19572 0.0
H995 H 0.8454 0.55982 0.14782 0.0
H996 H 0.16537 0.72246 0.52212 0.0
H997 H 0.19299 0.74596 0.47441 0.0
H998 H 0.17588 0.78866 0.49831 0.0
H999 H 0.14832 0.76537 0.54595 0.0
H1000 H 0.18988 0.76436 0.3894 0.0
H1001 H 0.23447 0.81795 0.52834 0.0
H1002 H 0.2158 0.79361 0.54286 0.0
H1003 H 0.20948 0.81167 0.52807 0.0
C1004 C 0.16769 0.73697 0.51802 0.0
C1005 C 0.15464 0.74204 0.53802 0.0
C1006 C 0.18344 0.75035 0.49053 0.0
C1007 C 0.18658 0.76911 0.48306 0.0
C1008 C 0.17392 0.77437 0.50416 0.0
H1009 H 0.24551 0.85588 0.26739 0.0
H1010 H 0.22229 0.82872 0.31643 0.0
C1011 C 0.15812 0.761 0.53133 0.0
C1012 C 0.20232 0.78284 0.45082 0.0
H1013 H 0.24258 0.82778 0.44693 0.0
C1014 C 0.20152 0.77814 0.40205 0.0
C1015 C 0.21757 0.80077 0.46738 0.0
C1016 C 0.21956 0.80629 0.5196 0.0
C1017 C 0.21517 0.79119 0.36917 0.0
C1018 C 0.22997 0.8094 0.38545 0.0
C1019 C 0.23117 0.81383 0.43446 0.0
C1020 C 0.24391 0.82441 0.35205 0.0
C1021 C 0.21363 0.78547 0.31718 0.0
C1022 C 0.26377 0.83086 0.35534 0.0
C1023 C 0.27709 0.84629 0.32699 0.0
C1024 C 0.27081 0.85577 0.29538 0.0
C1025 C 0.25084 0.84886 0.29117 0.0
C1026 C 0.23753 0.83332 0.31915 0.0
H1027 H 0.20433 0.7696 0.31224 0.0
H1028 H 0.20719 0.79276 0.29661 0.0
H1029 H 0.22817 0.79011 0.30196 0.0
H1030 H 0.269 0.82423 0.38064 0.0
H1031 H 0.29237 0.85133 0.33147 0.0
loop_
_geom_bond_atom_site_label_1
_geom_bond_atom_site_label_2
_geom_bond_distance
_geom_bond_site_symmetry_2
_ccdc_geom_bond_type
O0 Cd1 2.223 . S
O0 C8 1.315 . S
Cd1 O0 2.223 . S
Cd1 O4 2.297 . S
Cd1 O5 2.439 . S
Cd1 O11 2.240 . S
Cd2 O3 2.240 . S
Cd2 O10 2.223 . S
Cd2 O12 2.297 . S
Cd2 O13 2.439 . S
O3 Cd2 2.240 . S
O3 C8 1.279 . S
O4 Cd1 2.297 . S
O4 C6 1.247 . S
O5 Cd1 2.439 . S
O5 C6 1.208 . S
C6 O4 1.247 . S
C6 O5 1.208 . S
C7 O12 1.247 . S
C7 O13 1.208 . S
C8 O0 1.315 . S
C8 O3 1.279 . S
C9 O10 1.315 . S
C9 O11 1.279 . S
O10 Cd2 2.223 . S
O10 C9 1.315 . S
O11 Cd1 2.240 . S
O11 C9 1.279 . S
O12 Cd2 2.297 . S
O12 C7 1.247 . S
O13 Cd2 2.439 . S
O13 C7 1.208 . S
O14 Cd15 2.223 . S
O14 C22 1.315 . S
Cd15 O14 2.223 . S
Cd15 O18 2.297 . S
Cd15 O19 2.439 . S
Cd15 O25 2.240 . S
Cd16 O17 2.240 . S
Cd16 O24 2.223 . S
Cd16 O26 2.297 . S
Cd16 O27 2.439 . S
O17 Cd16 2.240 . S
O17 C22 1.279 . S
O18 Cd15 2.297 . S
O18 C20 1.247 . S
O19 Cd15 2.439 . S
O19 C20 1.208 . S
C20 O18 1.247 . S
C20 O19 1.208 . S
C21 O26 1.247 . S
C21 O27 1.208 . S
C22 O14 1.315 . S
C22 O17 1.279 . S
C23 O24 1.315 . S
C23 O25 1.279 . S
O24 Cd16 2.223 . S
O24 C23 1.315 . S
O25 Cd15 2.240 . S
O25 C23 1.279 . S
O26 Cd16 2.297 . S
O26 C21 1.247 . S
O27 Cd16 2.439 . S
O27 C21 1.208 . S
O28 Cd29 2.223 . S
O28 C36 1.315 . S
Cd29 O28 2.223 . S
Cd29 O32 2.297 . S
Cd29 O33 2.439 . S
Cd29 O39 2.240 . S
Cd30 O31 2.240 . S
Cd30 O38 2.223 . S
Cd30 O40 2.297 . S
Cd30 O41 2.439 . S
O31 Cd30 2.240 . S
O31 C36 1.279 . S
O32 Cd29 2.297 . S
O32 C34 1.247 . S
O33 Cd29 2.439 . S
O33 C34 1.208 . S
C34 O32 1.247 . S
C34 O33 1.208 . S
C35 O40 1.247 . S
C35 O41 1.208 . S
C36 O28 1.315 . S
C36 O31 1.279 . S
C37 O38 1.315 . S
C37 O39 1.279 . S
O38 Cd30 2.223 . S
O38 C37 1.315 . S
O39 Cd29 2.240 . S
O39 C37 1.279 . S
O40 Cd30 2.297 . S
O40 C35 1.247 . S
O41 Cd30 2.439 . S
O41 C35 1.208 . S
O42 Cd43 2.223 . S
O42 C50 1.315 . S
Cd43 O42 2.223 . S
Cd43 O46 2.297 . S
Cd43 O47 2.439 . S
Cd43 O53 2.240 . S
Cd44 O45 2.240 . S
Cd44 O52 2.223 . S
Cd44 O54 2.297 . S
Cd44 O55 2.439 . S
O45 Cd44 2.240 . S
O45 C50 1.279 . S
O46 Cd43 2.297 . S
O46 C48 1.247 . S
O47 Cd43 2.439 . S
O47 C48 1.208 . S
C48 O46 1.247 . S
C48 O47 1.208 . S
C49 O54 1.247 . S
C49 O55 1.208 . S
C50 O42 1.315 . S
C50 O45 1.279 . S
C51 O52 1.315 . S
C51 O53 1.279 . S
O52 Cd44 2.223 . S
O52 C51 1.315 . S
O53 Cd43 2.240 . S
O53 C51 1.279 . S
O54 Cd44 2.297 . S
O54 C49 1.247 . S
O55 Cd44 2.439 . S
O55 C49 1.208 . S
O56 Cd57 2.223 . S
O56 C64 1.315 . S
Cd57 O56 2.223 . S
Cd57 O60 2.297 . S
Cd57 O61 2.439 . S
Cd57 O67 2.240 . S
Cd58 O59 2.240 . S
Cd58 O66 2.223 . S
Cd58 O68 2.297 . S
Cd58 O69 2.439 . S
O59 Cd58 2.240 . S
O59 C64 1.279 . S
O60 Cd57 2.297 . S
O60 C62 1.247 . S
O61 Cd57 2.439 . S
O61 C62 1.208 . S
C62 O60 1.247 . S
C62 O61 1.208 . S
C63 O68 1.247 . S
C63 O69 1.208 . S
C64 O56 1.315 . S
C64 O59 1.279 . S
C65 O66 1.315 . S
C65 O67 1.279 . S
O66 Cd58 2.223 . S
O66 C65 1.315 . S
O67 Cd57 2.240 . S
O67 C65 1.279 . S
O68 Cd58 2.297 . S
O68 C63 1.247 . S
O69 Cd58 2.439 . S
O69 C63 1.208 . S
O70 Cd71 2.223 . S
O70 C78 1.315 . S
Cd71 O70 2.223 . S
Cd71 O74 2.297 . S
Cd71 O75 2.439 . S
Cd71 O81 2.240 . S
Cd72 O73 2.240 . S
Cd72 O80 2.223 . S
Cd72 O82 2.297 . S
Cd72 O83 2.439 . S
O73 Cd72 2.240 . S
O73 C78 1.279 . S
O74 Cd71 2.297 . S
O74 C76 1.247 . S
O75 Cd71 2.439 . S
O75 C76 1.208 . S
C76 O74 1.247 . S
C76 O75 1.208 . S
C77 O82 1.247 . S
C77 O83 1.208 . S
C78 O70 1.315 . S
C78 O73 1.279 . S
C79 O80 1.315 . S
C79 O81 1.279 . S
O80 Cd72 2.223 . S
O80 C79 1.315 . S
O81 Cd71 2.240 . S
O81 C79 1.279 . S
O82 Cd72 2.297 . S
O82 C77 1.247 . S
O83 Cd72 2.439 . S
O83 C77 1.208 . S
O84 Cd85 2.223 . S
O84 C92 1.315 . S
Cd85 O84 2.223 . S
Cd85 O88 2.297 . S
Cd85 O89 2.439 . S
Cd85 O95 2.240 . S
Cd86 O87 2.240 . S
Cd86 O94 2.223 . S
Cd86 O96 2.297 . S
Cd86 O97 2.439 . S
O87 Cd86 2.240 . S
O87 C92 1.279 . S
O88 Cd85 2.297 . S
O88 C90 1.247 . S
O89 Cd85 2.439 . S
O89 C90 1.208 . S
C90 O88 1.247 . S
C90 O89 1.208 . S
C91 O96 1.247 . S
C91 O97 1.208 . S
C92 O84 1.315 . S
C92 O87 1.279 . S
C93 O94 1.315 . S
C93 O95 1.279 . S
O94 Cd86 2.223 . S
O94 C93 1.315 . S
O95 Cd85 2.240 . S
O95 C93 1.279 . S
O96 Cd86 2.297 . S
O96 C91 1.247 . S
O97 Cd86 2.439 . S
O97 C91 1.208 . S
O98 Cd99 2.223 . S
O98 C106 1.315 . S
Cd99 O98 2.223 . S
Cd99 O102 2.297 . S
Cd99 O103 2.439 . S
Cd99 O109 2.240 . S
Cd100 O101 2.240 . S
Cd100 O108 2.223 . S
Cd100 O110 2.297 . S
Cd100 O111 2.439 . S
O101 Cd100 2.240 . S
O101 C106 1.279 . S
O102 Cd99 2.297 . S
O102 C104 1.247 . S
O103 Cd99 2.439 . S
O103 C104 1.208 . S
C104 O102 1.247 . S
C104 O103 1.208 . S
C105 O110 1.247 . S
C105 O111 1.208 . S
C106 O98 1.315 . S
C106 O101 1.279 . S
C107 O108 1.315 . S
C107 O109 1.279 . S
O108 Cd100 2.223 . S
O108 C107 1.315 . S
O109 Cd99 2.240 . S
O109 C107 1.279 . S
O110 Cd100 2.297 . S
O110 C105 1.247 . S
O111 Cd100 2.439 . S
O111 C105 1.208 . S
O112 Cd113 2.223 . S
O112 C120 1.315 . S
Cd113 O112 2.223 . S
Cd113 O116 2.297 . S
Cd113 O117 2.439 . S
Cd113 O123 2.240 . S
Cd114 O115 2.240 . S
Cd114 O122 2.223 . S
Cd114 O124 2.297 . S
Cd114 O125 2.439 . S
O115 Cd114 2.240 . S
O115 C120 1.279 . S
O116 Cd113 2.297 . S
O116 C118 1.247 . S
O117 Cd113 2.439 . S
O117 C118 1.208 . S
C118 O116 1.247 . S
C118 O117 1.208 . S
C119 O124 1.247 . S
C119 O125 1.208 . S
C120 O112 1.315 . S
C120 O115 1.279 . S
C121 O122 1.315 . S
C121 O123 1.279 . S
O122 Cd114 2.223 . S
O122 C121 1.315 . S
O123 Cd113 2.240 . S
O123 C121 1.279 . S
O124 Cd114 2.297 . S
O124 C119 1.247 . S
O125 Cd114 2.439 . S
O125 C119 1.208 . S
O126 Cd127 2.223 . S
O126 C134 1.315 . S
Cd127 O126 2.223 . S
Cd127 O130 2.297 . S
Cd127 O131 2.439 . S
Cd127 O137 2.240 . S
Cd128 O129 2.240 . S
Cd128 O136 2.223 . S
Cd128 O138 2.297 . S
Cd128 O139 2.439 . S
O129 Cd128 2.240 . S
O129 C134 1.279 . S
O130 Cd127 2.297 . S
O130 C132 1.247 . S
O131 Cd127 2.439 . S
O131 C132 1.208 . S
C132 O130 1.247 . S
C132 O131 1.208 . S
C133 O138 1.247 . S
C133 O139 1.208 . S
C134 O126 1.315 . S
C134 O129 1.279 . S
C135 O136 1.315 . S
C135 O137 1.279 . S
O136 Cd128 2.223 . S
O136 C135 1.315 . S
O137 Cd127 2.240 . S
O137 C135 1.279 . S
O138 Cd128 2.297 . S
O138 C133 1.247 . S
O139 Cd128 2.439 . S
O139 C133 1.208 . S
O140 Cd141 2.223 . S
O140 C148 1.315 . S
Cd141 O140 2.223 . S
Cd141 O144 2.297 . S
Cd141 O145 2.439 . S
Cd141 O151 2.240 . S
Cd142 O143 2.240 . S
Cd142 O150 2.223 . S
Cd142 O152 2.297 . S
Cd142 O153 2.439 . S
O143 Cd142 2.240 . S
O143 C148 1.279 . S
O144 Cd141 2.297 . S
O144 C146 1.247 . S
O145 Cd141 2.439 . S
O145 C146 1.208 . S
C146 O144 1.247 . S
C146 O145 1.208 . S
C147 O152 1.247 . S
C147 O153 1.208 . S
C148 O140 1.315 . S
C148 O143 1.279 . S
C149 O150 1.315 . S
C149 O151 1.279 . S
O150 Cd142 2.223 . S
O150 C149 1.315 . S
O151 Cd141 2.240 . S
O151 C149 1.279 . S
O152 Cd142 2.297 . S
O152 C147 1.247 . S
O153 Cd142 2.439 . S
O153 C147 1.208 . S
O154 Cd155 2.223 . S
O154 C162 1.315 . S
Cd155 O154 2.223 . S
Cd155 O158 2.297 . S
Cd155 O159 2.439 . S
Cd155 O165 2.240 . S
Cd156 O157 2.240 . S
Cd156 O164 2.223 . S
Cd156 O166 2.297 . S
Cd156 O167 2.439 . S
O157 Cd156 2.240 . S
O157 C162 1.279 . S
O158 Cd155 2.297 . S
O158 C160 1.247 . S
O159 Cd155 2.439 . S
O159 C160 1.208 . S
C160 O158 1.247 . S
C160 O159 1.208 . S
C161 O166 1.247 . S
C161 O167 1.208 . S
C162 O154 1.315 . S
C162 O157 1.279 . S
C163 O164 1.315 . S
C163 O165 1.279 . S
O164 Cd156 2.223 . S
O164 C163 1.315 . S
O165 Cd155 2.240 . S
O165 C163 1.279 . S
O166 Cd156 2.297 . S
O166 C161 1.247 . S
O167 Cd156 2.439 . S
O167 C161 1.208 . S
H168 C176 0.929 . S
H169 C178 0.930 . S
H170 C180 0.930 . S
H171 C183 0.929 . S
H172 C186 0.930 . S
H173 C188 0.960 . S
H174 C188 0.960 . S
H175 C188 0.960 . S
C176 H168 0.929 . S
C176 C177 1.377 . S
C176 C178 1.384 . S
C177 C176 1.377 . S
C177 C183 1.390 . S
C178 H169 0.930 . S
C178 C176 1.384 . S
C178 C179 1.372 . S
C179 C178 1.372 . S
C179 C180 1.400 . S
C179 C184 1.490 . S
C180 H170 0.930 . S
C180 C179 1.400 . S
C180 C183 1.386 . S
H181 C197 0.930 . S
H182 C198 0.931 . S
C183 H171 0.929 . S
C183 C177 1.390 . S
C183 C180 1.386 . S
C184 C179 1.490 . S
C184 C186 1.395 . S
C184 C187 1.403 . S
H185 C191 0.930 . S
C186 H172 0.930 . S
C186 C184 1.395 . S
C186 C189 1.403 . S
C187 C184 1.403 . S
C187 C188 1.524 . S
C187 C191 1.400 . S
C188 H173 0.960 . S
C188 H174 0.960 . S
C188 H175 0.960 . S
C188 C187 1.524 . S
C189 C186 1.403 . S
C189 C190 1.392 . S
C189 C193 1.495 . S
C190 C189 1.392 . S
C190 C191 1.385 . S
C190 C192 1.478 . S
C191 H185 0.930 . S
C191 C187 1.400 . S
C191 C190 1.385 . S
C192 C190 1.478 . S
C192 C194 1.381 . S
C192 C198 1.383 . S
C193 C189 1.495 . S
C193 H199 0.959 . S
C193 H200 0.961 . S
C193 H201 0.960 . S
C194 C192 1.381 . S
C194 C195 1.394 . S
C194 H202 0.930 . S
C195 C194 1.394 . S
C195 C196 1.383 . S
C195 H203 0.929 . S
C196 C195 1.383 . S
C196 C197 1.377 . S
C197 H181 0.930 . S
C197 C196 1.377 . S
C197 C198 1.379 . S
C198 H182 0.931 . S
C198 C192 1.383 . S
C198 C197 1.379 . S
H199 C193 0.959 . S
H200 C193 0.961 . S
H201 C193 0.960 . S
H202 C194 0.930 . S
H203 C195 0.929 . S
H204 C212 0.929 . S
H205 C214 0.930 . S
H206 C216 0.930 . S
H207 C219 0.929 . S
H208 C222 0.930 . S
H209 C224 0.960 . S
H210 C224 0.960 . S
H211 C224 0.960 . S
C212 H204 0.929 . S
C212 C213 1.377 . S
C212 C214 1.384 . S
C213 C212 1.377 . S
C213 C219 1.390 . S
C214 H205 0.930 . S
C214 C212 1.384 . S
C214 C215 1.372 . S
C215 C214 1.372 . S
C215 C216 1.400 . S
C215 C220 1.490 . S
C216 H206 0.930 . S
C216 C215 1.400 . S
C216 C219 1.386 . S
H217 C233 0.930 . S
H218 C234 0.931 . S
C219 H207 0.929 . S
C219 C213 1.390 . S
C219 C216 1.386 . S
C220 C215 1.490 . S
C220 C222 1.395 1_455 S
C220 C223 1.403 . S
H221 C227 0.930 . S
C222 H208 0.930 . S
C222 C220 1.395 1_655 S
C222 C225 1.403 . S
C223 C220 1.403 . S
C223 C224 1.524 . S
C223 C227 1.400 . S
C224 H209 0.960 . S
C224 H210 0.960 . S
C224 H211 0.960 . S
C224 C223 1.524 . S
C225 C222 1.403 . S
C225 C226 1.392 . S
C225 C229 1.495 . S
C226 C225 1.392 . S
C226 C227 1.385 1_655 S
C226 C228 1.478 . S
C227 H221 0.930 . S
C227 C223 1.400 . S
C227 C226 1.385 1_455 S
C228 C226 1.478 . S
C228 C230 1.381 . S
C228 C234 1.383 . S
C229 C225 1.495 . S
C229 H235 0.959 . S
C229 H236 0.961 . S
C229 H237 0.960 . S
C230 C228 1.381 . S
C230 C231 1.394 . S
C230 H238 0.930 . S
C231 C230 1.394 . S
C231 C232 1.383 . S
C231 H239 0.929 . S
C232 C231 1.383 . S
C232 C233 1.377 . S
C233 H217 0.930 . S
C233 C232 1.377 . S
C233 C234 1.379 . S
C234 H218 0.931 . S
C234 C228 1.383 . S
C234 C233 1.379 . S
H235 C229 0.959 . S
H236 C229 0.961 . S
H237 C229 0.960 . S
H238 C230 0.930 . S
H239 C231 0.929 . S
H240 C248 0.929 . S
H241 C250 0.930 . S
H242 C252 0.930 . S
H243 C255 0.929 . S
H244 C258 0.930 . S
H245 C260 0.960 . S
H246 C260 0.960 . S
H247 C260 0.960 . S
C248 H240 0.929 . S
C248 C249 1.377 . S
C248 C250 1.384 . S
C249 C248 1.377 . S
C249 C255 1.390 . S
C250 H241 0.930 . S
C250 C248 1.384 . S
C250 C251 1.372 . S
C251 C250 1.372 . S
C251 C252 1.400 . S
C251 C256 1.490 . S
C252 H242 0.930 . S
C252 C251 1.400 . S
C252 C255 1.386 . S
H253 C269 0.930 . S
H254 C270 0.931 . S
C255 H243 0.929 . S
C255 C249 1.390 . S
C255 C252 1.386 . S
C256 C251 1.490 . S
C256 C258 1.395 1_565 S
C256 C259 1.403 . S
H257 C263 0.942 . S
C258 H244 0.930 . S
C258 C256 1.395 1_545 S
C258 C261 1.403 . S
C259 C256 1.403 . S
C259 C260 1.524 . S
C259 C263 1.395 . S
C260 H245 0.960 . S
C260 H246 0.960 . S
C260 H247 0.960 . S
C260 C259 1.524 . S
C261 C258 1.403 . S
C261 C262 1.392 . S
C261 C265 1.495 . S
C262 C261 1.392 . S
C262 C263 1.388 1_545 S
C262 C264 1.478 . S
C263 H257 0.942 . S
C263 C259 1.395 . S
C263 C262 1.388 1_565 S
C264 C262 1.478 . S
C264 C266 1.381 . S
C264 C270 1.383 . S
C265 C261 1.495 . S
C265 H271 0.959 . S
C265 H272 0.961 . S
C265 H273 0.960 . S
C266 C264 1.381 . S
C266 C267 1.394 . S
C266 H274 0.930 . S
C267 C266 1.394 . S
C267 C268 1.383 . S
C267 H275 0.929 . S
C268 C267 1.383 . S
C268 C269 1.377 . S
C269 H253 0.930 . S
C269 C268 1.377 . S
C269 C270 1.379 . S
C270 H254 0.931 . S
C270 C264 1.383 . S
C270 C269 1.379 . S
H271 C265 0.959 . S
H272 C265 0.961 . S
H273 C265 0.960 . S
H274 C266 0.930 . S
H275 C267 0.929 . S
H276 C284 0.929 . S
H277 C286 0.930 . S
H278 C288 0.930 . S
H279 C291 0.929 . S
H280 C294 0.930 . S
H281 C296 0.960 . S
H282 C296 0.960 . S
H283 C296 0.960 . S
C284 H276 0.929 . S
C284 C285 1.377 . S
C284 C286 1.384 . S
C285 C284 1.377 . S
C285 C291 1.390 . S
C286 H277 0.930 . S
C286 C284 1.384 . S
C286 C287 1.372 . S
C287 C286 1.372 . S
C287 C288 1.400 . S
C287 C292 1.490 . S
C288 H278 0.930 . S
C288 C287 1.400 . S
C288 C291 1.386 . S
H289 C305 0.930 . S
H290 C306 0.931 . S
C291 H279 0.929 . S
C291 C285 1.390 . S
C291 C288 1.386 . S
C292 C287 1.490 . S
C292 C294 1.395 . S
C292 C295 1.403 . S
H293 C299 0.930 . S
C294 H280 0.930 . S
C294 C292 1.395 . S
C294 C297 1.403 . S
C295 C292 1.403 . S
C295 C296 1.524 . S
C295 C299 1.400 . S
C296 H281 0.960 . S
C296 H282 0.960 . S
C296 H283 0.960 . S
C296 C295 1.524 . S
C297 C294 1.403 . S
C297 C298 1.392 . S
C297 C301 1.495 . S
C298 C297 1.392 . S
C298 C299 1.385 . S
C298 C300 1.478 . S
C299 H293 0.930 . S
C299 C295 1.400 . S
C299 C298 1.385 . S
C300 C298 1.478 . S
C300 C302 1.381 . S
C300 C306 1.383 . S
C301 C297 1.495 . S
C301 H307 0.959 . S
C301 H308 0.961 . S
C301 H309 0.960 . S
C302 C300 1.381 . S
C302 C303 1.394 . S
C302 H310 0.930 . S
C303 C302 1.394 . S
C303 C304 1.383 . S
C303 H311 0.929 . S
C304 C303 1.383 . S
C304 C305 1.377 . S
C305 H289 0.930 . S
C305 C304 1.377 . S
C305 C306 1.379 . S
C306 H290 0.931 . S
C306 C300 1.383 . S
C306 C305 1.379 . S
H307 C301 0.959 . S
H308 C301 0.961 . S
H309 C301 0.960 . S
H310 C302 0.930 . S
H311 C303 0.929 . S
H312 C320 0.929 . S
H313 C322 0.930 . S
H314 C324 0.930 . S
H315 C327 0.929 . S
H316 C330 0.930 . S
H317 C332 0.960 . S
H318 C332 0.960 . S
H319 C332 0.960 1_455 S
C320 H312 0.929 . S
C320 C321 1.377 . S
C320 C322 1.384 . S
C321 C320 1.377 . S
C321 C327 1.390 . S
C322 H313 0.930 . S
C322 C320 1.384 . S
C322 C323 1.372 . S
C323 C322 1.372 . S
C323 C324 1.400 . S
C323 C328 1.490 . S
C324 H314 0.930 . S
C324 C323 1.400 . S
C324 C327 1.386 . S
H325 C341 0.930 . S
H326 C342 0.931 . S
C327 H315 0.929 . S
C327 C321 1.390 . S
C327 C324 1.386 . S
C328 C323 1.490 . S
C328 C330 1.395 . S
C328 C331 1.403 1_455 S
H329 C335 0.930 . S
C330 H316 0.930 . S
C330 C328 1.395 . S
C330 C333 1.403 . S
C331 C328 1.403 1_655 S
C331 C332 1.524 . S
C331 C335 1.400 . S
C332 H317 0.960 . S
C332 H318 0.960 . S
C332 H319 0.960 1_655 S
C332 C331 1.524 . S
C333 C330 1.403 . S
C333 C334 1.392 1_455 S
C333 C337 1.495 . S
C334 C333 1.392 1_655 S
C334 C335 1.385 . S
C334 C336 1.478 . S
C335 H329 0.930 . S
C335 C331 1.400 . S
C335 C334 1.385 . S
C336 C334 1.478 . S
C336 C338 1.381 . S
C336 C342 1.383 . S
C337 C333 1.495 . S
C337 H343 0.959 . S
C337 H344 0.961 . S
C337 H345 0.960 1_455 S
C338 C336 1.381 . S
C338 C339 1.394 . S
C338 H346 0.930 . S
C339 C338 1.394 . S
C339 C340 1.383 . S
C339 H347 0.929 . S
C340 C339 1.383 . S
C340 C341 1.377 . S
C341 H325 0.930 . S
C341 C340 1.377 . S
C341 C342 1.379 . S
C342 H326 0.931 . S
C342 C336 1.383 . S
C342 C341 1.379 . S
H343 C337 0.959 . S
H344 C337 0.961 . S
H345 C337 0.960 1_655 S
H346 C338 0.930 . S
H347 C339 0.929 . S
H348 C356 0.929 . S
H349 C358 0.930 . S
H350 C360 0.930 . S
H351 C363 0.929 . S
H352 C366 0.930 . S
H353 C368 0.960 . S
H354 C368 0.960 . S
H355 C368 0.960 . S
C356 H348 0.929 . S
C356 C357 1.377 . S
C356 C358 1.384 . S
C357 C356 1.377 . S
C357 C363 1.390 . S
C358 H349 0.930 . S
C358 C356 1.384 . S
C358 C359 1.372 . S
C359 C358 1.372 . S
C359 C360 1.400 . S
C359 C364 1.490 . S
C360 H350 0.930 . S
C360 C359 1.400 . S
C360 C363 1.386 . S
H361 C377 0.930 . S
H362 C378 0.931 . S
C363 H351 0.929 . S
C363 C357 1.390 . S
C363 C360 1.386 . S
C364 C359 1.490 . S
C364 C366 1.395 1_556 S
C364 C367 1.403 1_545 S
H365 C371 0.929 1_556 S
C366 H352 0.930 . S
C366 C364 1.395 1_554 S
C366 C369 1.403 . S
C367 C364 1.403 1_565 S
C367 C368 1.524 . S
C367 C371 1.391 1_556 S
C368 H353 0.960 . S
C368 H354 0.960 . S
C368 H355 0.960 . S
C368 C367 1.524 . S
C369 C366 1.403 . S
C369 C370 1.392 1_545 S
C369 C373 1.495 . S
C370 C369 1.392 1_565 S
C370 C371 1.395 . S
C370 C372 1.478 . S
C371 H365 0.929 1_554 S
C371 C367 1.391 1_554 S
C371 C370 1.395 . S
C372 C370 1.478 . S
C372 C374 1.381 . S
C372 C378 1.383 . S
C373 C369 1.495 . S
C373 H379 0.959 . S
C373 H380 0.961 . S
C373 H381 0.960 . S
C374 C372 1.381 . S
C374 C375 1.394 . S
C374 H382 0.930 . S
C375 C374 1.394 . S
C375 C376 1.383 . S
C375 H383 0.929 . S
C376 C375 1.383 . S
C376 C377 1.377 . S
C377 H361 0.930 . S
C377 C376 1.377 . S
C377 C378 1.379 . S
C378 H362 0.931 . S
C378 C372 1.383 . S
C378 C377 1.379 . S
H379 C373 0.959 . S
H380 C373 0.961 . S
H381 C373 0.960 . S
H382 C374 0.930 . S
H383 C375 0.929 . S
H384 C392 0.929 . S
H385 C394 0.930 . S
H386 C396 0.930 . S
H387 C399 0.929 . S
H388 C402 0.930 . S
H389 C404 0.960 . S
H390 C404 0.960 . S
H391 C404 0.960 . S
C392 H384 0.929 . S
C392 C393 1.377 . S
C392 C394 1.384 . S
C393 C392 1.377 . S
C393 C399 1.390 . S
C394 H385 0.930 . S
C394 C392 1.384 . S
C394 C395 1.372 . S
C395 C394 1.372 . S
C395 C396 1.400 . S
C395 C400 1.490 . S
C396 H386 0.930 . S
C396 C395 1.400 . S
C396 C399 1.386 . S
H397 C413 0.930 . S
H398 C414 0.931 . S
C399 H387 0.929 . S
C399 C393 1.390 . S
C399 C396 1.386 . S
C400 C395 1.490 . S
C400 C402 1.395 . S
C400 C403 1.403 . S
H401 C407 0.930 . S
C402 H388 0.930 . S
C402 C400 1.395 . S
C402 C405 1.403 . S
C403 C400 1.403 . S
C403 C404 1.524 . S
C403 C407 1.400 . S
C404 H389 0.960 . S
C404 H390 0.960 . S
C404 H391 0.960 . S
C404 C403 1.524 . S
C405 C402 1.403 . S
C405 C406 1.392 . S
C405 C409 1.495 . S
C406 C405 1.392 . S
C406 C407 1.385 . S
C406 C408 1.478 . S
C407 H401 0.930 . S
C407 C403 1.400 . S
C407 C406 1.385 . S
C408 C406 1.478 . S
C408 C410 1.381 . S
C408 C414 1.383 . S
C409 C405 1.495 . S
C409 H415 0.959 . S
C409 H416 0.961 . S
C409 H417 0.960 . S
C410 C408 1.381 . S
C410 C411 1.394 . S
C410 H418 0.930 . S
C411 C410 1.394 . S
C411 C412 1.383 . S
C411 H419 0.929 . S
C412 C411 1.383 . S
C412 C413 1.377 . S
C413 H397 0.930 . S
C413 C412 1.377 . S
C413 C414 1.379 . S
C414 H398 0.931 . S
C414 C408 1.383 . S
C414 C413 1.379 . S
H415 C409 0.959 . S
H416 C409 0.961 . S
H417 C409 0.960 . S
H418 C410 0.930 . S
H419 C411 0.929 . S
H420 C428 0.929 . S
H421 C430 0.930 . S
H422 C432 0.930 . S
H423 C435 0.929 . S
H424 C438 0.930 . S
H425 C440 0.960 . S
H426 C440 0.960 . S
H427 C440 0.960 . S
C428 H420 0.929 . S
C428 C429 1.377 . S
C428 C430 1.384 . S
C429 C428 1.377 . S
C429 C435 1.390 . S
C430 H421 0.930 . S
C430 C428 1.384 . S
C430 C431 1.372 . S
C431 C430 1.372 . S
C431 C432 1.400 . S
C431 C436 1.490 . S
C432 H422 0.930 . S
C432 C431 1.400 . S
C432 C435 1.386 . S
H433 C449 0.930 . S
H434 C450 0.931 . S
C435 H423 0.929 . S
C435 C429 1.390 . S
C435 C432 1.386 . S
C436 C431 1.490 . S
C436 C438 1.395 . S
C436 C439 1.403 . S
H437 C443 0.930 . S
C438 H424 0.930 . S
C438 C436 1.395 . S
C438 C441 1.403 . S
C439 C436 1.403 . S
C439 C440 1.524 . S
C439 C443 1.400 . S
C440 H425 0.960 . S
C440 H426 0.960 . S
C440 H427 0.960 . S
C440 C439 1.524 . S
C441 C438 1.403 . S
C441 C442 1.392 . S
C441 C445 1.495 . S
C442 C441 1.392 . S
C442 C443 1.385 . S
C442 C444 1.478 . S
C443 H437 0.930 . S
C443 C439 1.400 . S
C443 C442 1.385 . S
C444 C442 1.478 . S
C444 C446 1.381 . S
C444 C450 1.383 . S
C445 C441 1.495 . S
C445 H451 0.959 . S
C445 H452 0.961 . S
C445 H453 0.960 . S
C446 C444 1.381 . S
C446 C447 1.394 . S
C446 H454 0.930 . S
C447 C446 1.394 . S
C447 C448 1.383 . S
C447 H455 0.929 . S
C448 C447 1.383 . S
C448 C449 1.377 . S
C449 H433 0.930 . S
C449 C448 1.377 . S
C449 C450 1.379 . S
C450 H434 0.931 . S
C450 C444 1.383 . S
C450 C449 1.379 . S
H451 C445 0.959 . S
H452 C445 0.961 . S
H453 C445 0.960 . S
H454 C446 0.930 . S
H455 C447 0.929 . S
H456 C464 0.929 . S
H457 C466 0.930 . S
H458 C468 0.930 . S
H459 C471 0.929 . S
H460 C474 0.930 . S
H461 C476 0.960 . S
H462 C476 0.960 . S
H463 C476 0.960 . S
C464 H456 0.929 . S
C464 C465 1.377 . S
C464 C466 1.384 . S
C465 C464 1.377 . S
C465 C471 1.390 . S
C466 H457 0.930 . S
C466 C464 1.384 . S
C466 C467 1.372 . S
C467 C466 1.372 . S
C467 C468 1.400 . S
C467 C472 1.490 . S
C468 H458 0.930 . S
C468 C467 1.400 . S
C468 C471 1.386 . S
H469 C485 0.930 . S
H470 C486 0.931 . S
C471 H459 0.929 . S
C471 C465 1.390 . S
C471 C468 1.386 . S
C472 C467 1.490 . S
C472 C474 1.395 . S
C472 C475 1.403 . S
H473 C479 0.930 . S
C474 H460 0.930 . S
C474 C472 1.395 . S
C474 C477 1.403 . S
C475 C472 1.403 . S
C475 C476 1.524 . S
C475 C479 1.400 . S
C476 H461 0.960 . S
C476 H462 0.960 . S
C476 H463 0.960 . S
C476 C475 1.524 . S
C477 C474 1.403 . S
C477 C478 1.392 . S
C477 C481 1.495 . S
C478 C477 1.392 . S
C478 C479 1.385 . S
C478 C480 1.478 . S
C479 H473 0.930 . S
C479 C475 1.400 . S
C479 C478 1.385 . S
C480 C478 1.478 . S
C480 C482 1.381 . S
C480 C486 1.383 . S
C481 C477 1.495 . S
C481 H487 0.959 . S
C481 H488 0.961 . S
C481 H489 0.960 . S
C482 C480 1.381 . S
C482 C483 1.394 . S
C482 H490 0.930 . S
C483 C482 1.394 . S
C483 C484 1.383 . S
C483 H491 0.929 . S
C484 C483 1.383 . S
C484 C485 1.377 . S
C485 H469 0.930 . S
C485 C484 1.377 . S
C485 C486 1.379 . S
C486 H470 0.931 . S
C486 C480 1.383 . S
C486 C485 1.379 . S
H487 C481 0.959 . S
H488 C481 0.961 . S
H489 C481 0.960 . S
H490 C482 0.930 . S
H491 C483 0.929 . S
H492 C500 0.929 . S
H493 C502 0.930 . S
H494 C504 0.930 . S
H495 C507 0.929 . S
H496 C510 0.930 . S
H497 C512 0.960 1_554 S
H498 C512 0.960 1_554 S
H499 C512 0.960 . S
C500 H492 0.929 . S
C500 C501 1.377 . S
C500 C502 1.384 . S
C501 C500 1.377 . S
C501 C507 1.390 . S
C502 H493 0.930 . S
C502 C500 1.384 . S
C502 C503 1.372 . S
C503 C502 1.372 . S
C503 C504 1.400 . S
C503 C508 1.490 . S
C504 H494 0.930 . S
C504 C503 1.400 . S
C504 C507 1.386 . S
H505 C521 0.930 . S
H506 C522 0.931 . S
C507 H495 0.929 . S
C507 C501 1.390 . S
C507 C504 1.386 . S
C508 C503 1.490 . S
C508 C510 1.395 . S
C508 C511 1.403 . S
H509 C515 0.930 . S
C510 H496 0.930 . S
C510 C508 1.395 . S
C510 C513 1.403 . S
C511 C508 1.403 . S
C511 C512 1.524 . S
C511 C515 1.400 . S
C512 H497 0.960 1_556 S
C512 H498 0.960 1_556 S
C512 H499 0.960 . S
C512 C511 1.524 . S
C513 C510 1.403 . S
C513 C514 1.392 . S
C513 C517 1.495 . S
C514 C513 1.392 . S
C514 C515 1.385 . S
C514 C516 1.478 . S
C515 H509 0.930 . S
C515 C511 1.400 . S
C515 C514 1.385 . S
C516 C514 1.478 . S
C516 C518 1.381 . S
C516 C522 1.383 . S
C517 C513 1.495 . S
C517 H523 0.959 . S
C517 H524 0.961 . S
C517 H525 0.960 . S
C518 C516 1.381 . S
C518 C519 1.394 . S
C518 H526 0.930 . S
C519 C518 1.394 . S
C519 C520 1.383 . S
C519 H527 0.929 . S
C520 C519 1.383 . S
C520 C521 1.377 . S
C521 H505 0.930 . S
C521 C520 1.377 . S
C521 C522 1.379 . S
C522 H506 0.931 . S
C522 C516 1.383 . S
C522 C521 1.379 . S
H523 C517 0.959 . S
H524 C517 0.961 . S
H525 C517 0.960 . S
H526 C518 0.930 . S
H527 C519 0.929 . S
H528 C536 0.929 . S
H529 C538 0.930 . S
H530 C540 0.930 . S
H531 C543 0.929 . S
H532 C546 0.930 . S
H533 C548 0.960 . S
H534 C548 0.960 . S
H535 C548 0.960 . S
C536 H528 0.929 . S
C536 C537 1.377 . S
C536 C538 1.384 . S
C537 C536 1.377 . S
C537 C543 1.390 . S
C538 H529 0.930 . S
C538 C536 1.384 . S
C538 C539 1.372 . S
C539 C538 1.372 . S
C539 C540 1.400 . S
C539 C544 1.490 . S
C540 H530 0.930 . S
C540 C539 1.400 . S
C540 C543 1.386 . S
H541 C557 0.930 . S
H542 C558 0.931 . S
C543 H531 0.929 . S
C543 C537 1.390 . S
C543 C540 1.386 . S
C544 C539 1.490 . S
C544 C546 1.395 . S
C544 C547 1.403 . S
H545 C551 0.930 . S
C546 H532 0.930 . S
C546 C544 1.395 . S
C546 C549 1.403 . S
C547 C544 1.403 . S
C547 C548 1.524 . S
C547 C551 1.400 . S
C548 H533 0.960 . S
C548 H534 0.960 . S
C548 H535 0.960 . S
C548 C547 1.524 . S
C549 C546 1.403 . S
C549 C550 1.392 . S
C549 C553 1.495 . S
C550 C549 1.392 . S
C550 C551 1.385 . S
C550 C552 1.478 . S
C551 H545 0.930 . S
C551 C547 1.400 . S
C551 C550 1.385 . S
C552 C550 1.478 . S
C552 C554 1.381 . S
C552 C558 1.383 . S
C553 C549 1.495 . S
C553 H559 0.959 . S
C553 H560 0.961 . S
C553 H561 0.960 . S
C554 C552 1.381 . S
C554 C555 1.394 . S
C554 H562 0.930 . S
C555 C554 1.394 . S
C555 C556 1.383 . S
C555 H563 0.929 . S
C556 C555 1.383 . S
C556 C557 1.377 . S
C557 H541 0.930 . S
C557 C556 1.377 . S
C557 C558 1.379 . S
C558 H542 0.931 . S
C558 C552 1.383 . S
C558 C557 1.379 . S
H559 C553 0.959 . S
H560 C553 0.961 . S
H561 C553 0.960 . S
H562 C554 0.930 . S
H563 C555 0.929 . S
H564 C572 0.929 . S
H565 C574 0.930 . S
H566 C576 0.930 . S
H567 C579 0.929 . S
H568 C582 0.930 . S
H569 C584 0.960 . S
H570 C584 0.960 . S
H571 C584 0.960 . S
C572 H564 0.929 . S
C572 C573 1.377 . S
C572 C574 1.384 . S
C573 C572 1.377 . S
C573 C579 1.390 . S
C574 H565 0.930 . S
C574 C572 1.384 . S
C574 C575 1.372 . S
C575 C574 1.372 . S
C575 C576 1.400 . S
C575 C580 1.490 . S
C576 H566 0.930 . S
C576 C575 1.400 . S
C576 C579 1.386 . S
H577 C593 0.930 . S
H578 C594 0.931 . S
C579 H567 0.929 . S
C579 C573 1.390 . S
C579 C576 1.386 . S
C580 C575 1.490 . S
C580 C582 1.395 . S
C580 C583 1.403 . S
H581 C587 0.930 . S
C582 H568 0.930 . S
C582 C580 1.395 . S
C582 C585 1.403 . S
C583 C580 1.403 . S
C583 C584 1.524 . S
C583 C587 1.400 . S
C584 H569 0.960 . S
C584 H570 0.960 . S
C584 H571 0.960 . S
C584 C583 1.524 . S
C585 C582 1.403 . S
C585 C586 1.392 . S
C585 C589 1.495 . S
C586 C585 1.392 . S
C586 C587 1.385 . S
C586 C588 1.478 . S
C587 H581 0.930 . S
C587 C583 1.400 . S
C587 C586 1.385 . S
C588 C586 1.478 . S
C588 C590 1.381 . S
C588 C594 1.383 . S
C589 C585 1.495 . S
C589 H595 0.959 . S
C589 H596 0.961 . S
C589 H597 0.960 . S
C590 C588 1.381 . S
C590 C591 1.394 . S
C590 H598 0.930 . S
C591 C590 1.394 . S
C591 C592 1.383 . S
C591 H599 0.929 . S
C592 C591 1.383 . S
C592 C593 1.377 . S
C593 H577 0.930 . S
C593 C592 1.377 . S
C593 C594 1.379 . S
C594 H578 0.931 . S
C594 C588 1.383 . S
C594 C593 1.379 . S
H595 C589 0.959 . S
H596 C589 0.961 . S
H597 C589 0.960 . S
H598 C590 0.930 . S
H599 C591 0.929 . S
H600 C608 0.929 . S
H601 C610 0.930 . S
H602 C612 0.930 . S
H603 C615 0.929 . S
H604 C618 0.930 . S
H605 C620 0.960 . S
H606 C620 0.960 . S
H607 C620 0.960 . S
C608 H600 0.929 . S
C608 C609 1.377 . S
C608 C610 1.384 . S
C609 C608 1.377 . S
C609 C615 1.390 . S
C610 H601 0.930 . S
C610 C608 1.384 . S
C610 C611 1.372 . S
C611 C610 1.372 . S
C611 C612 1.400 . S
C611 C616 1.490 . S
C612 H602 0.930 . S
C612 C611 1.400 . S
C612 C615 1.386 . S
H613 C629 0.930 . S
H614 C630 0.931 . S
C615 H603 0.929 . S
C615 C609 1.390 . S
C615 C612 1.386 . S
C616 C611 1.490 . S
C616 C618 1.395 . S
C616 C619 1.403 . S
H617 C623 0.930 . S
C618 H604 0.930 . S
C618 C616 1.395 . S
C618 C621 1.403 . S
C619 C616 1.403 . S
C619 C620 1.524 . S
C619 C623 1.400 . S
C620 H605 0.960 . S
C620 H606 0.960 . S
C620 H607 0.960 . S
C620 C619 1.524 . S
C621 C618 1.403 . S
C621 C622 1.392 . S
C621 C625 1.495 . S
C622 C621 1.392 . S
C622 C623 1.385 . S
C622 C624 1.478 . S
C623 H617 0.930 . S
C623 C619 1.400 . S
C623 C622 1.385 . S
C624 C622 1.478 . S
C624 C626 1.381 . S
C624 C630 1.383 . S
C625 C621 1.495 . S
C625 H631 0.959 . S
C625 H632 0.961 . S
C625 H633 0.960 . S
C626 C624 1.381 . S
C626 C627 1.394 . S
C626 H634 0.930 . S
C627 C626 1.394 . S
C627 C628 1.383 . S
C627 H635 0.929 . S
C628 C627 1.383 . S
C628 C629 1.377 . S
C629 H613 0.930 . S
C629 C628 1.377 . S
C629 C630 1.379 . S
C630 H614 0.931 . S
C630 C624 1.383 . S
C630 C629 1.379 . S
H631 C625 0.959 . S
H632 C625 0.961 . S
H633 C625 0.960 . S
H634 C626 0.930 . S
H635 C627 0.929 . S
H636 C644 0.929 . S
H637 C646 0.930 . S
H638 C648 0.930 . S
H639 C651 0.929 1_554 S
H640 C654 0.930 . S
H641 C656 0.960 1_455 S
H642 C656 0.960 . S
H643 C656 0.960 . S
C644 H636 0.929 . S
C644 C645 1.377 . S
C644 C646 1.384 . S
C645 C644 1.377 . S
C645 C651 1.390 . S
C646 H637 0.930 . S
C646 C644 1.384 . S
C646 C647 1.372 . S
C647 C646 1.372 . S
C647 C648 1.400 . S
C647 C652 1.490 . S
C648 H638 0.930 . S
C648 C647 1.400 . S
C648 C651 1.386 . S
H649 C665 0.930 . S
H650 C666 0.931 . S
C651 H639 0.929 1_556 S
C651 C645 1.390 . S
C651 C648 1.386 . S
C652 C647 1.490 . S
C652 C654 1.395 . S
C652 C655 1.403 . S
H653 C659 0.930 . S
C654 H640 0.930 . S
C654 C652 1.395 . S
C654 C657 1.388 1_655 S
C655 C652 1.403 . S
C655 C656 1.524 . S
C655 C659 1.400 1_655 S
C656 H641 0.960 1_655 S
C656 H642 0.960 . S
C656 H643 0.960 . S
C656 C655 1.524 . S
C657 C654 1.388 1_455 S
C657 C658 1.419 . S
C657 C661 1.484 . S
C658 C657 1.419 . S
C658 C659 1.385 . S
C658 C660 1.478 . S
C659 H653 0.930 . S
C659 C655 1.400 1_455 S
C659 C658 1.385 . S
C660 C658 1.478 . S
C660 C662 1.381 . S
C660 C666 1.383 . S
C661 C657 1.484 . S
C661 H667 0.959 1_455 S
C661 H668 0.961 . S
C661 H669 0.958 1_455 S
C662 C660 1.381 . S
C662 C663 1.394 . S
C662 H670 0.930 . S
C663 C662 1.394 . S
C663 C664 1.383 . S
C663 H671 0.929 . S
C664 C663 1.383 . S
C664 C665 1.377 . S
C665 H649 0.930 . S
C665 C664 1.377 . S
C665 C666 1.379 . S
C666 H650 0.931 . S
C666 C660 1.383 . S
C666 C665 1.379 . S
H667 C661 0.959 1_655 S
H668 C661 0.961 . S
H669 C661 0.958 1_655 S
H670 C662 0.930 . S
H671 C663 0.929 . S
H672 C680 0.929 . S
H673 C682 0.930 . S
H674 C684 0.930 . S
H675 C687 0.929 . S
H676 C690 0.930 . S
H677 C692 0.960 . S
H678 C692 0.960 . S
H679 C692 0.955 1_554 S
C680 H672 0.929 . S
C680 C681 1.377 . S
C680 C682 1.384 . S
C681 C680 1.377 . S
C681 C687 1.390 . S
C682 H673 0.930 . S
C682 C680 1.384 . S
C682 C683 1.372 . S
C683 C682 1.372 . S
C683 C684 1.400 . S
C683 C688 1.490 . S
C684 H674 0.930 . S
C684 C683 1.400 . S
C684 C687 1.386 . S
H685 C701 0.930 . S
H686 C702 0.931 . S
C687 H675 0.929 . S
C687 C681 1.390 . S
C687 C684 1.386 . S
C688 C683 1.490 . S
C688 C690 1.395 1_565 S
C688 C691 1.403 1_554 S
H689 C695 0.930 . S
C690 H676 0.930 . S
C690 C688 1.395 1_545 S
C690 C693 1.403 . S
C691 C688 1.403 1_556 S
C691 C692 1.524 . S
C691 C695 1.400 . S
C692 H677 0.960 . S
C692 H678 0.960 . S
C692 H679 0.955 1_556 S
C692 C691 1.524 . S
C693 C690 1.403 . S
C693 C694 1.392 1_554 S
C693 C697 1.495 . S
C694 C693 1.392 1_556 S
C694 C695 1.385 1_545 S
C694 C696 1.478 . S
C695 H689 0.930 . S
C695 C691 1.400 . S
C695 C694 1.385 1_565 S
C696 C694 1.478 . S
C696 C698 1.381 . S
C696 C702 1.383 . S
C697 C693 1.495 . S
C697 H703 0.959 . S
C697 H704 0.961 . S
C697 H705 0.960 . S
C698 C696 1.381 . S
C698 C699 1.394 . S
C698 H706 0.930 . S
C699 C698 1.394 . S
C699 C700 1.383 . S
C699 H707 0.929 . S
C700 C699 1.383 . S
C700 C701 1.377 . S
C701 H685 0.930 . S
C701 C700 1.377 . S
C701 C702 1.379 . S
C702 H686 0.931 . S
C702 C696 1.383 . S
C702 C701 1.379 . S
H703 C697 0.959 . S
H704 C697 0.961 . S
H705 C697 0.960 . S
H706 C698 0.930 . S
H707 C699 0.929 . S
H708 C716 0.929 1_556 S
H709 C718 0.930 . S
H710 C720 0.930 . S
H711 C723 0.929 . S
H712 C726 0.930 . S
H713 C728 0.960 . S
H714 C728 0.960 . S
H715 C728 0.960 . S
C716 H708 0.929 1_554 S
C716 C717 1.377 . S
C716 C718 1.384 . S
C717 C716 1.377 . S
C717 C723 1.390 . S
C718 H709 0.930 . S
C718 C716 1.384 . S
C718 C719 1.372 . S
C719 C718 1.372 . S
C719 C720 1.400 . S
C719 C724 1.490 . S
C720 H710 0.930 . S
C720 C719 1.400 . S
C720 C723 1.386 . S
H721 C737 0.930 . S
H722 C738 0.931 . S
C723 H711 0.929 . S
C723 C717 1.390 . S
C723 C720 1.386 . S
C724 C719 1.490 . S
C724 C726 1.395 . S
C724 C727 1.403 . S
H725 C731 0.930 . S
C726 H712 0.930 . S
C726 C724 1.395 . S
C726 C729 1.403 . S
C727 C724 1.403 . S
C727 C728 1.524 . S
C727 C731 1.400 . S
C728 H713 0.960 . S
C728 H714 0.960 . S
C728 H715 0.960 . S
C728 C727 1.524 . S
C729 C726 1.403 . S
C729 C730 1.392 . S
C729 C733 1.495 . S
C730 C729 1.392 . S
C730 C731 1.385 . S
C730 C732 1.478 . S
C731 H725 0.930 . S
C731 C727 1.400 . S
C731 C730 1.385 . S
C732 C730 1.478 . S
C732 C734 1.381 . S
C732 C738 1.383 . S
C733 C729 1.495 . S
C733 H739 0.959 . S
C733 H740 0.961 . S
C733 H741 0.960 . S
C734 C732 1.381 . S
C734 C735 1.394 . S
C734 H742 0.930 . S
C735 C734 1.394 . S
C735 C736 1.383 . S
C735 H743 0.929 . S
C736 C735 1.383 . S
C736 C737 1.377 . S
C737 H721 0.930 . S
C737 C736 1.377 . S
C737 C738 1.379 . S
C738 H722 0.931 . S
C738 C732 1.383 . S
C738 C737 1.379 . S
H739 C733 0.959 . S
H740 C733 0.961 . S
H741 C733 0.960 . S
H742 C734 0.930 . S
H743 C735 0.929 . S
H744 C752 0.929 . S
H745 C754 0.930 . S
H746 C756 0.930 . S
H747 C759 0.929 . S
H748 C762 0.930 . S
H749 C764 0.960 . S
H750 C764 0.960 . S
H751 C764 0.960 . S
C752 H744 0.929 . S
C752 C753 1.377 . S
C752 C754 1.384 . S
C753 C752 1.377 . S
C753 C759 1.390 . S
C754 H745 0.930 . S
C754 C752 1.384 . S
C754 C755 1.372 . S
C755 C754 1.372 . S
C755 C756 1.400 . S
C755 C760 1.490 . S
C756 H746 0.930 . S
C756 C755 1.400 . S
C756 C759 1.386 . S
H757 C773 0.930 . S
H758 C774 0.931 . S
C759 H747 0.929 . S
C759 C753 1.390 . S
C759 C756 1.386 . S
C760 C755 1.490 . S
C760 C762 1.395 1_455 S
C760 C763 1.403 . S
H761 C767 0.930 . S
C762 H748 0.930 . S
C762 C760 1.395 1_655 S
C762 C765 1.403 . S
C763 C760 1.403 . S
C763 C764 1.524 . S
C763 C767 1.400 . S
C764 H749 0.960 . S
C764 H750 0.960 . S
C764 H751 0.960 . S
C764 C763 1.524 . S
C765 C762 1.403 . S
C765 C766 1.392 . S
C765 C769 1.495 . S
C766 C765 1.392 . S
C766 C767 1.385 1_655 S
C766 C768 1.478 . S
C767 H761 0.930 . S
C767 C763 1.400 . S
C767 C766 1.385 1_455 S
C768 C766 1.478 . S
C768 C770 1.381 . S
C768 C774 1.383 . S
C769 C765 1.495 . S
C769 H775 0.959 . S
C769 H776 0.961 . S
C769 H777 0.960 . S
C770 C768 1.381 . S
C770 C771 1.394 . S
C770 H778 0.930 . S
C771 C770 1.394 . S
C771 C772 1.383 . S
C771 H779 0.929 . S
C772 C771 1.383 . S
C772 C773 1.377 . S
C773 H757 0.930 . S
C773 C772 1.377 . S
C773 C774 1.379 . S
C774 H758 0.931 . S
C774 C768 1.383 . S
C774 C773 1.379 . S
H775 C769 0.959 . S
H776 C769 0.961 . S
H777 C769 0.960 . S
H778 C770 0.930 . S
H779 C771 0.929 . S
H780 C788 0.929 . S
H781 C790 0.930 . S
H782 C792 0.930 . S
H783 C795 0.929 . S
H784 C798 0.930 . S
H785 C800 0.960 . S
H786 C800 0.960 1_565 S
H787 C800 0.960 . S
C788 H780 0.929 . S
C788 C789 1.377 . S
C788 C790 1.384 . S
C789 C788 1.377 . S
C789 C795 1.390 . S
C790 H781 0.930 . S
C790 C788 1.384 . S
C790 C791 1.372 . S
C791 C790 1.372 . S
C791 C792 1.400 . S
C791 C796 1.490 . S
C792 H782 0.930 . S
C792 C791 1.400 . S
C792 C795 1.386 . S
H793 C809 0.930 . S
H794 C810 0.931 . S
C795 H783 0.929 . S
C795 C789 1.390 . S
C795 C792 1.386 . S
C796 C791 1.490 . S
C796 C798 1.395 . S
C796 C799 1.403 1_565 S
H797 C803 0.930 . S
C798 H784 0.930 . S
C798 C796 1.395 . S
C798 C801 1.403 . S
C799 C796 1.403 1_545 S
C799 C800 1.524 . S
C799 C803 1.400 . S
C800 H785 0.960 . S
C800 H786 0.960 1_545 S
C800 H787 0.960 . S
C800 C799 1.524 . S
C801 C798 1.403 . S
C801 C802 1.392 1_565 S
C801 C805 1.495 . S
C802 C801 1.392 1_545 S
C802 C803 1.385 . S
C802 C804 1.478 . S
C803 H797 0.930 . S
C803 C799 1.400 . S
C803 C802 1.385 . S
C804 C802 1.478 . S
C804 C806 1.381 . S
C804 C810 1.383 . S
C805 C801 1.495 . S
C805 H811 0.959 . S
C805 H812 0.961 1_565 S
C805 H813 0.960 . S
C806 C804 1.381 . S
C806 C807 1.394 . S
C806 H814 0.930 . S
C807 C806 1.394 . S
C807 C808 1.383 . S
C807 H815 0.929 . S
C808 C807 1.383 . S
C808 C809 1.377 . S
C809 H793 0.930 . S
C809 C808 1.377 . S
C809 C810 1.379 . S
C810 H794 0.931 . S
C810 C804 1.383 . S
C810 C809 1.379 . S
H811 C805 0.959 . S
H812 C805 0.961 1_545 S
H813 C805 0.960 . S
H814 C806 0.930 . S
H815 C807 0.929 . S
H816 C824 0.929 . S
H817 C826 0.930 . S
H818 C828 0.930 . S
H819 C831 0.929 . S
H820 C834 0.930 . S
H821 C836 0.960 . S
H822 C836 0.960 . S
H823 C836 0.960 . S
C824 H816 0.929 . S
C824 C825 1.377 . S
C824 C826 1.384 . S
C825 C824 1.377 . S
C825 C831 1.390 . S
C826 H817 0.930 . S
C826 C824 1.384 . S
C826 C827 1.372 . S
C827 C826 1.372 . S
C827 C828 1.400 . S
C827 C832 1.490 . S
C828 H818 0.930 . S
C828 C827 1.400 . S
C828 C831 1.386 . S
H829 C845 0.930 . S
H830 C846 0.931 . S
C831 H819 0.929 . S
C831 C825 1.390 . S
C831 C828 1.386 . S
C832 C827 1.490 . S
C832 C834 1.395 . S
C832 C835 1.403 . S
H833 C839 0.930 . S
C834 H820 0.930 . S
C834 C832 1.395 . S
C834 C837 1.403 . S
C835 C832 1.403 . S
C835 C836 1.524 . S
C835 C839 1.400 . S
C836 H821 0.960 . S
C836 H822 0.960 . S
C836 H823 0.960 . S
C836 C835 1.524 . S
C837 C834 1.403 . S
C837 C838 1.392 . S
C837 C841 1.495 . S
C838 C837 1.392 . S
C838 C839 1.385 . S
C838 C840 1.478 . S
C839 H833 0.930 . S
C839 C835 1.400 . S
C839 C838 1.385 . S
C840 C838 1.478 . S
C840 C842 1.381 . S
C840 C846 1.383 . S
C841 C837 1.495 . S
C841 H847 0.959 . S
C841 H848 0.961 . S
C841 H849 0.960 . S
C842 C840 1.381 . S
C842 C843 1.394 . S
C842 H850 0.930 . S
C843 C842 1.394 . S
C843 C844 1.383 . S
C843 H851 0.929 . S
C844 C843 1.383 . S
C844 C845 1.377 . S
C845 H829 0.930 . S
C845 C844 1.377 . S
C845 C846 1.379 . S
C846 H830 0.931 . S
C846 C840 1.383 . S
C846 C845 1.379 . S
H847 C841 0.959 . S
H848 C841 0.961 . S
H849 C841 0.960 . S
H850 C842 0.930 . S
H851 C843 0.929 . S
H852 C860 0.929 . S
H853 C862 0.930 . S
H854 C864 0.930 . S
H855 C867 0.929 . S
H856 C870 0.930 . S
H857 C872 0.960 . S
H858 C872 0.960 . S
H859 C872 0.960 . S
C860 H852 0.929 . S
C860 C861 1.377 . S
C860 C862 1.384 . S
C861 C860 1.377 . S
C861 C867 1.390 . S
C862 H853 0.930 . S
C862 C860 1.384 . S
C862 C863 1.372 . S
C863 C862 1.372 . S
C863 C864 1.400 . S
C863 C868 1.490 . S
C864 H854 0.930 . S
C864 C863 1.400 . S
C864 C867 1.386 . S
H865 C881 0.930 . S
H866 C882 0.931 . S
C867 H855 0.929 . S
C867 C861 1.390 . S
C867 C864 1.386 . S
C868 C863 1.490 . S
C868 C870 1.395 . S
C868 C871 1.403 . S
H869 C875 0.930 . S
C870 H856 0.930 . S
C870 C868 1.395 . S
C870 C873 1.403 . S
C871 C868 1.403 . S
C871 C872 1.524 . S
C871 C875 1.400 . S
C872 H857 0.960 . S
C872 H858 0.960 . S
C872 H859 0.960 . S
C872 C871 1.524 . S
C873 C870 1.403 . S
C873 C874 1.392 . S
C873 C877 1.495 . S
C874 C873 1.392 . S
C874 C875 1.385 . S
C874 C876 1.478 . S
C875 H869 0.930 . S
C875 C871 1.400 . S
C875 C874 1.385 . S
C876 C874 1.478 . S
C876 C878 1.381 . S
C876 C882 1.383 . S
C877 C873 1.495 . S
C877 H883 0.959 . S
C877 H884 0.961 . S
C877 H885 0.960 . S
C878 C876 1.381 . S
C878 C879 1.394 . S
C878 H886 0.930 . S
C879 C878 1.394 . S
C879 C880 1.383 . S
C879 H887 0.929 . S
C880 C879 1.383 . S
C880 C881 1.377 . S
C881 H865 0.930 . S
C881 C880 1.377 . S
C881 C882 1.379 . S
C882 H866 0.931 . S
C882 C876 1.383 . S
C882 C881 1.379 . S
H883 C877 0.959 . S
H884 C877 0.961 . S
H885 C877 0.960 . S
H886 C878 0.930 . S
H887 C879 0.929 . S
H888 C896 0.929 . S
H889 C898 0.930 . S
H890 C900 0.930 . S
H891 C903 0.929 . S
H892 C906 0.930 . S
H893 C908 0.960 . S
H894 C908 0.960 . S
H895 C908 0.960 . S
C896 H888 0.929 . S
C896 C897 1.377 1_556 S
C896 C898 1.384 . S
C897 C896 1.377 1_554 S
C897 C903 1.390 . S
C898 H889 0.930 . S
C898 C896 1.384 . S
C898 C899 1.372 . S
C899 C898 1.372 . S
C899 C900 1.400 . S
C899 C904 1.490 . S
C900 H890 0.930 . S
C900 C899 1.400 . S
C900 C903 1.386 1_556 S
H901 C917 0.930 . S
H902 C918 0.931 . S
C903 H891 0.929 . S
C903 C897 1.390 . S
C903 C900 1.386 1_554 S
C904 C899 1.490 . S
C904 C906 1.395 . S
C904 C907 1.403 . S
H905 C911 0.930 . S
C906 H892 0.930 . S
C906 C904 1.395 . S
C906 C909 1.403 . S
C907 C904 1.403 . S
C907 C908 1.524 1_556 S
C907 C911 1.400 . S
C908 H893 0.960 . S
C908 H894 0.960 . S
C908 H895 0.960 . S
C908 C907 1.524 1_554 S
C909 C906 1.403 . S
C909 C910 1.392 . S
C909 C913 1.495 . S
C910 C909 1.392 . S
C910 C911 1.385 . S
C910 C912 1.478 . S
C911 H905 0.930 . S
C911 C907 1.400 . S
C911 C910 1.385 . S
C912 C910 1.478 . S
C912 C914 1.381 . S
C912 C918 1.383 . S
C913 C909 1.495 . S
C913 H919 0.959 . S
C913 H920 0.961 . S
C913 H921 0.960 . S
C914 C912 1.381 . S
C914 C915 1.394 . S
C914 H922 0.930 . S
C915 C914 1.394 . S
C915 C916 1.383 . S
C915 H923 0.929 . S
C916 C915 1.383 . S
C916 C917 1.377 . S
C917 H901 0.930 . S
C917 C916 1.377 . S
C917 C918 1.379 . S
C918 H902 0.931 . S
C918 C912 1.383 . S
C918 C917 1.379 . S
H919 C913 0.959 . S
H920 C913 0.961 . S
H921 C913 0.960 . S
H922 C914 0.930 . S
H923 C915 0.929 . S
H924 C932 0.929 . S
H925 C934 0.930 . S
H926 C936 0.930 . S
H927 C939 0.929 . S
H928 C942 0.930 . S
H929 C944 0.960 . S
H930 C944 0.960 . S
H931 C944 0.960 . S
C932 H924 0.929 . S
C932 C933 1.377 . S
C932 C934 1.384 . S
C933 C932 1.377 . S
C933 C939 1.390 . S
C934 H925 0.930 . S
C934 C932 1.384 . S
C934 C935 1.372 . S
C935 C934 1.372 . S
C935 C936 1.400 . S
C935 C940 1.490 . S
C936 H926 0.930 . S
C936 C935 1.400 . S
C936 C939 1.386 . S
H937 C953 0.930 . S
H938 C954 0.931 . S
C939 H927 0.929 . S
C939 C933 1.390 . S
C939 C936 1.386 . S
C940 C935 1.490 . S
C940 C942 1.395 . S
C940 C943 1.403 . S
H941 C947 0.930 . S
C942 H928 0.930 . S
C942 C940 1.395 . S
C942 C945 1.403 . S
C943 C940 1.403 . S
C943 C944 1.524 . S
C943 C947 1.400 . S
C944 H929 0.960 . S
C944 H930 0.960 . S
C944 H931 0.960 . S
C944 C943 1.524 . S
C945 C942 1.403 . S
C945 C946 1.392 . S
C945 C949 1.495 . S
C946 C945 1.392 . S
C946 C947 1.385 . S
C946 C948 1.478 . S
C947 H941 0.930 . S
C947 C943 1.400 . S
C947 C946 1.385 . S
C948 C946 1.478 . S
C948 C950 1.381 . S
C948 C954 1.383 1_554 S
C949 C945 1.495 . S
C949 H955 0.959 . S
C949 H956 0.961 . S
C949 H957 0.960 . S
C950 C948 1.381 . S
C950 C951 1.394 . S
C950 H958 0.930 . S
C951 C950 1.394 . S
C951 C952 1.383 1_554 S
C951 H959 0.929 . S
C952 C951 1.383 1_556 S
C952 C953 1.377 . S
C953 H937 0.930 . S
C953 C952 1.377 . S
C953 C954 1.379 . S
C954 H938 0.931 . S
C954 C948 1.383 1_556 S
C954 C953 1.379 . S
H955 C949 0.959 . S
H956 C949 0.961 . S
H957 C949 0.960 . S
H958 C950 0.930 . S
H959 C951 0.929 . S
H960 C968 0.929 . S
H961 C970 0.930 . S
H962 C972 0.930 . S
H963 C975 0.929 . S
H964 C978 0.930 . S
H965 C980 0.960 . S
H966 C980 0.960 . S
H967 C980 0.960 . S
C968 H960 0.929 . S
C968 C969 1.377 . S
C968 C970 1.384 . S
C969 C968 1.377 . S
C969 C975 1.390 . S
C970 H961 0.930 . S
C970 C968 1.384 . S
C970 C971 1.372 . S
C971 C970 1.372 . S
C971 C972 1.400 . S
C971 C976 1.490 . S
C972 H962 0.930 . S
C972 C971 1.400 . S
C972 C975 1.386 . S
H973 C989 0.930 . S
H974 C990 0.931 . S
C975 H963 0.929 . S
C975 C969 1.390 . S
C975 C972 1.386 . S
C976 C971 1.490 . S
C976 C978 1.395 . S
C976 C979 1.403 . S
H977 C983 0.930 . S
C978 H964 0.930 . S
C978 C976 1.395 . S
C978 C981 1.403 . S
C979 C976 1.403 . S
C979 C980 1.524 . S
C979 C983 1.400 . S
C980 H965 0.960 . S
C980 H966 0.960 . S
C980 H967 0.960 . S
C980 C979 1.524 . S
C981 C978 1.403 . S
C981 C982 1.392 . S
C981 C985 1.495 . S
C982 C981 1.392 . S
C982 C983 1.385 . S
C982 C984 1.478 . S
C983 H977 0.930 . S
C983 C979 1.400 . S
C983 C982 1.385 . S
C984 C982 1.478 . S
C984 C986 1.381 . S
C984 C990 1.383 . S
C985 C981 1.495 . S
C985 H991 0.959 . S
C985 H992 0.961 . S
C985 H993 0.960 . S
C986 C984 1.381 . S
C986 C987 1.394 . S
C986 H994 0.930 . S
C987 C986 1.394 . S
C987 C988 1.383 . S
C987 H995 0.929 . S
C988 C987 1.383 . S
C988 C989 1.377 . S
C989 H973 0.930 . S
C989 C988 1.377 . S
C989 C990 1.379 . S
C990 H974 0.931 . S
C990 C984 1.383 . S
C990 C989 1.379 . S
H991 C985 0.959 . S
H992 C985 0.961 . S
H993 C985 0.960 . S
H994 C986 0.930 . S
H995 C987 0.929 . S
H996 C1004 0.929 . S
H997 C1006 0.930 . S
H998 C1008 0.930 . S
H999 C1011 0.929 . S
H1000 C1014 0.930 . S
H1001 C1016 0.960 . S
H1002 C1016 0.960 . S
H1003 C1016 0.960 . S
C1004 H996 0.929 . S
C1004 C1005 1.377 . S
C1004 C1006 1.384 . S
C1005 C1004 1.377 . S
C1005 C1011 1.390 . S
C1006 H997 0.930 . S
C1006 C1004 1.384 . S
C1006 C1007 1.372 . S
C1007 C1006 1.372 . S
C1007 C1008 1.400 . S
C1007 C1012 1.490 . S
C1008 H998 0.930 . S
C1008 C1007 1.400 . S
C1008 C1011 1.386 . S
H1009 C1025 0.930 . S
H1010 C1026 0.931 . S
C1011 H999 0.929 . S
C1011 C1005 1.390 . S
C1011 C1008 1.386 . S
C1012 C1007 1.490 . S
C1012 C1014 1.395 . S
C1012 C1015 1.403 . S
H1013 C1019 0.930 . S
C1014 H1000 0.930 . S
C1014 C1012 1.395 . S
C1014 C1017 1.403 . S
C1015 C1012 1.403 . S
C1015 C1016 1.524 . S
C1015 C1019 1.400 . S
C1016 H1001 0.960 . S
C1016 H1002 0.960 . S
C1016 H1003 0.960 . S
C1016 C1015 1.524 . S
C1017 C1014 1.403 . S
C1017 C1018 1.392 . S
C1017 C1021 1.495 . S
C1018 C1017 1.392 . S
C1018 C1019 1.385 . S
C1018 C1020 1.478 . S
C1019 H1013 0.930 . S
C1019 C1015 1.400 . S
C1019 C1018 1.385 . S
C1020 C1018 1.478 . S
C1020 C1022 1.381 . S
C1020 C1026 1.383 . S
C1021 C1017 1.495 . S
C1021 H1027 0.959 . S
C1021 H1028 0.961 . S
C1021 H1029 0.960 . S
C1022 C1020 1.381 . S
C1022 C1023 1.394 . S
C1022 H1030 0.930 . S
C1023 C1022 1.394 . S
C1023 C1024 1.383 . S
C1023 H1031 0.929 . S
C1024 C1023 1.383 . S
C1024 C1025 1.377 . S
C1025 H1009 0.930 . S
C1025 C1024 1.377 . S
C1025 C1026 1.379 . S
C1026 H1010 0.931 . S
C1026 C1020 1.383 . S
C1026 C1025 1.379 . S
H1027 C1021 0.959 . S
H1028 C1021 0.961 . S
H1029 C1021 0.960 . S
H1030 C1022 0.930 . S
H1031 C1023 0.929 . S
C177 C135 1.644 1_554 S
C196 C9 1.626 . S
C213 C23 1.652 . S
C232 C149 1.639 . S
C249 C163 1.650 . S
C268 C37 1.662 . S
C285 C93 1.644 . S
C304 C51 1.657 . S
C321 C107 1.644 . S
C340 C65 1.626 1_556 S
C357 C121 1.642 . S
C376 C79 1.646 . S
C393 C91 1.632 . S
C412 C7 1.658 . S
C429 C21 1.633 . S
C448 C105 1.638 . S
C465 C119 1.630 . S
C484 C35 1.664 . S
C501 C49 1.635 . S
C520 C133 1.628 . S
C537 C147 1.631 . S
C556 C63 1.646 . S
C573 C77 1.630 . S
C592 C161 1.665 . S
C609 C134 1.470 . S
C628 C8 1.467 . S
C645 C148 1.469 1_556 S
C664 C22 1.465 . S
C681 C162 1.468 . S
C700 C36 1.458 . S
C717 C50 1.471 1_554 S
C736 C92 1.470 . S
C753 C106 1.468 . S
C772 C64 1.459 . S
C789 C78 1.470 . S
C808 C120 1.468 . S
C825 C6 1.056 . S
C844 C118 1.038 . S
C861 C132 1.056 . S
C880 C20 1.030 . S
C897 C146 1.054 . S
C916 C34 1.049 . S
C933 C160 1.048 . S
C952 C48 1.070 . S
C969 C90 1.057 . S
C988 C62 1.033 . S
C1005 C104 1.049 . S
C1024 C76 1.069 . S
