# Generated by pormake.
# Topology wjh, (4)-cn, num edge types: 1
# Building blocks:
#     Node 0, Type 0, BuildingBlock: AZAVOO_clean_sbu_0, # of connection points: 4
#     Node 1, Type 0, BuildingBlock: AZAVOO_clean_sbu_0, # of connection points: 4
#     Node 2, Type 0, BuildingBlock: AZAVOO_clean_sbu_0, # of connection points: 4
#     Node 3, Type 0, BuildingBlock: AZAVOO_clean_sbu_0, # of connection points: 4
#     Node 4, Type 0, BuildingBlock: AZAVOO_clean_sbu_0, # of connection points: 4
#     Node 5, Type 0, BuildingBlock: AZAVOO_clean_sbu_0, # of connection points: 4
#     Node 6, Type 0, BuildingBlock: AZAVOO_clean_sbu_0, # of connection points: 4
#     Node 7, Type 0, BuildingBlock: AZAVOO_clean_sbu_0, # of connection points: 4
#     Node 8, Type 0, BuildingBlock: AZAVOO_clean_sbu_0, # of connection points: 4
#     Node 9, Type 0, BuildingBlock: AZAVOO_clean_sbu_0, # of connection points: 4
#     Node 10, Type 0, BuildingBlock: AZAVOO_clean_sbu_0, # of connection points: 4
#     Node 11, Type 0, BuildingBlock: AZAVOO_clean_sbu_0, # of connection points: 4
#     Edge 12, Type (0, 0), BuildingBlock: XIVTED_clean_linker_0, # of connection points: 2
#     Edge 13, Type (0, 0), BuildingBlock: XIVTED_clean_linker_0, # of connection points: 2
#     Edge 14, Type (0, 0), BuildingBlock: XIVTED_clean_linker_0, # of connection points: 2
#     Edge 15, Type (0, 0), BuildingBlock: XIVTED_clean_linker_0, # of connection points: 2
#     Edge 16, Type (0, 0), BuildingBlock: XIVTED_clean_linker_0, # of connection points: 2
#     Edge 17, Type (0, 0), BuildingBlock: XIVTED_clean_linker_0, # of connection points: 2
#     Edge 18, Type (0, 0), BuildingBlock: XIVTED_clean_linker_0, # of connection points: 2
#     Edge 19, Type (0, 0), BuildingBlock: XIVTED_clean_linker_0, # of connection points: 2
#     Edge 20, Type (0, 0), BuildingBlock: XIVTED_clean_linker_0, # of connection points: 2
#     Edge 21, Type (0, 0), BuildingBlock: XIVTED_clean_linker_0, # of connection points: 2
#     Edge 22, Type (0, 0), BuildingBlock: XIVTED_clean_linker_0, # of connection points: 2
#     Edge 23, Type (0, 0), BuildingBlock: XIVTED_clean_linker_0, # of connection points: 2
#     Edge 24, Type (0, 0), BuildingBlock: XIVTED_clean_linker_0, # of connection points: 2
#     Edge 25, Type (0, 0), BuildingBlock: XIVTED_clean_linker_0, # of connection points: 2
#     Edge 26, Type (0, 0), BuildingBlock: XIVTED_clean_linker_0, # of connection points: 2
#     Edge 27, Type (0, 0), BuildingBlock: XIVTED_clean_linker_0, # of connection points: 2
#     Edge 28, Type (0, 0), BuildingBlock: XIVTED_clean_linker_0, # of connection points: 2
#     Edge 29, Type (0, 0), BuildingBlock: XIVTED_clean_linker_0, # of connection points: 2
#     Edge 30, Type (0, 0), BuildingBlock: XIVTED_clean_linker_0, # of connection points: 2
#     Edge 31, Type (0, 0), BuildingBlock: XIVTED_clean_linker_0, # of connection points: 2
#     Edge 32, Type (0, 0), BuildingBlock: XIVTED_clean_linker_0, # of connection points: 2
#     Edge 33, Type (0, 0), BuildingBlock: XIVTED_clean_linker_0, # of connection points: 2
#     Edge 34, Type (0, 0), BuildingBlock: XIVTED_clean_linker_0, # of connection points: 2
#     Edge 35, Type (0, 0), BuildingBlock: XIVTED_clean_linker_0, # of connection points: 2
# Relax obj value: 0.170
# Max RMSD: 0.150
# Mean RMSD: 0.150
data_MOF--net-wjh--node1-AZAVOO_clean_sbu_0--edge1-XIVTED_clean_linker_0
_symmetry_space_group_name_H-M    P1
_symmetry_Int_Tables_number       1
_symmetry_cell_setting            triclinic
loop_
_symmetry_equiv_pos_as_xyz
'x, y, z'
_cell_length_a     63.449996
_cell_length_b     63.517566
_cell_length_c     23.853709
_cell_angle_alpha  90.100344
_cell_angle_beta   89.950776
_cell_angle_gamma 120.0498
loop_
_atom_site_label
_atom_site_type_symbol
_atom_site_fract_x
_atom_site_fract_y
_atom_site_fract_z
_atom_type_partial_charge
Mg0 Mg 0.45173 0.11167 0.068 0.0
O1 O 0.47558 0.10388 0.12738 0.0
O2 O 0.46606 0.0653 0.11425 0.0
Mg3 Mg 0.43702 0.04876 0.04547 0.0
C4 C 0.47829 0.08577 0.13911 0.0
C5 C 0.47743 0.16634 0.04607 0.0
O6 O 0.46778 0.15723 0.99696 0.0
O7 O 0.47566 0.11456 0.99345 0.0
O8 O 0.46373 0.07524 0.98124 0.0
O9 O 0.42163 0.09629 0.13283 0.0
O10 O 0.42589 0.07547 0.06373 0.0
C11 C 0.47626 0.09749 0.9664 0.0
C12 C 0.41431 0.07576 0.10739 0.0
O13 O 0.4746 0.15193 0.08597 0.0
Mg14 Mg 0.34398 0.46832 0.21663 0.0
O15 O 0.36644 0.49353 0.28917 0.0
O16 O 0.40574 0.51183 0.26492 0.0
Mg17 Mg 0.40826 0.49859 0.17778 0.0
C18 C 0.38892 0.50825 0.29952 0.0
C19 C 0.29233 0.45973 0.21951 0.0
O20 O 0.29579 0.4579 0.16582 0.0
O21 O 0.34929 0.50088 0.16634 0.0
O22 O 0.38883 0.51838 0.14464 0.0
O23 O 0.34814 0.43847 0.25342 0.0
O24 O 0.37333 0.4649 0.19102 0.0
C25 C 0.36842 0.51782 0.14345 0.0
C26 C 0.36788 0.44685 0.22397 0.0
O27 O 0.30936 0.46413 0.2538 0.0
Mg28 Mg 0.83759 0.36053 0.40094 0.0
O29 O 0.85161 0.39082 0.46806 0.0
O30 O 0.88807 0.42061 0.43997 0.0
Mg31 Mg 0.8954 0.41125 0.35255 0.0
C32 C 0.8709 0.41133 0.47597 0.0
C33 C 0.79602 0.33725 0.49307 0.0
O34 O 0.81431 0.34546 0.52848 0.0
O35 O 0.82588 0.38155 0.34495 0.0
O36 O 0.86207 0.41246 0.31858 0.0
O37 O 0.8591 0.34551 0.44124 0.0
O38 O 0.87264 0.37254 0.37263 0.0
C39 C 0.83881 0.40131 0.31836 0.0
C40 C 0.87673 0.35989 0.40836 0.0
O41 O 0.80028 0.34118 0.44101 0.0
Mg42 Mg 0.51925 0.88033 0.56062 0.0
O43 O 0.49907 0.88752 0.632 0.0
O44 O 0.48924 0.91468 0.60102 0.0
Mg45 Mg 0.50526 0.92656 0.51318 0.0
C46 C 0.48893 0.90038 0.63892 0.0
C47 C 0.51734 0.84307 0.65227 0.0
O48 O 0.5284 0.86215 0.68526 0.0
O49 O 0.48436 0.85905 0.51103 0.0
O50 O 0.47761 0.88848 0.48062 0.0
O51 O 0.55534 0.91027 0.59078 0.0
O52 O 0.53202 0.9147 0.52869 0.0
C53 C 0.47191 0.86615 0.48333 0.0
C54 C 0.55182 0.9243 0.5574 0.0
O55 O 0.51218 0.84563 0.60232 0.0
Mg56 Mg 0.64265 0.5225 0.71558 0.0
O57 O 0.61933 0.49838 0.78827 0.0
O58 O 0.58018 0.48086 0.76312 0.0
Mg59 Mg 0.5787 0.49344 0.67465 0.0
C60 C 0.59672 0.48442 0.79851 0.0
C61 C 0.69541 0.54613 0.75931 0.0
O62 O 0.69514 0.5656 0.74182 0.0
O63 O 0.6368 0.48935 0.66664 0.0
O64 O 0.59743 0.47256 0.64395 0.0
O65 O 0.63922 0.55293 0.75096 0.0
O66 O 0.61408 0.5267 0.68788 0.0
C67 C 0.61756 0.47255 0.64372 0.0
C68 C 0.61963 0.54476 0.72102 0.0
O69 O 0.67618 0.52553 0.75553 0.0
Mg70 Mg 0.14379 0.61214 0.92692 0.0
O71 O 0.13137 0.5851 0.00104 0.0
O72 O 0.09599 0.55275 0.97585 0.0
Mg73 Mg 0.08758 0.5575 0.88549 0.0
C74 C 0.11288 0.56429 0.01164 0.0
C75 C 0.19692 0.65015 0.93312 0.0
O76 O 0.19206 0.6477 0.87918 0.0
O77 O 0.15761 0.59048 0.87939 0.0
O78 O 0.12218 0.55774 0.85564 0.0
O79 O 0.12061 0.62699 0.95798 0.0
O80 O 0.1086 0.59699 0.89659 0.0
C81 C 0.14545 0.56978 0.85569 0.0
C82 C 0.1036 0.61076 0.92649 0.0
O83 O 0.1804 0.6362 0.96713 0.0
Mg84 Mg 0.88292 0.53506 0.92255 0.0
O85 O 0.8834 0.51058 0.85181 0.0
O86 O 0.90847 0.49709 0.87693 0.0
Mg87 Mg 0.9211 0.51014 0.96631 0.0
C88 C 0.89414 0.49852 0.84165 0.0
C89 C 0.85072 0.55516 0.87935 0.0
O90 O 0.86906 0.57515 0.89992 0.0
O91 O 0.85702 0.50192 0.97324 0.0
O92 O 0.88153 0.48749 0.99711 0.0
O93 O 0.91661 0.56668 0.88775 0.0
O94 O 0.91612 0.54157 0.95273 0.0
C95 C 0.86075 0.48618 -0.00273 0.0
C96 C 0.92841 0.55994 0.92054 0.0
O97 O 0.85139 0.53554 0.88079 0.0
Mg98 Mg 0.3576 0.86553 0.08568 0.0
O99 O 0.38462 0.87779 0.01152 0.0
O100 O 0.41992 0.90863 0.04227 0.0
Mg101 Mg 0.41457 0.91832 0.13144 0.0
C102 C 0.40704 0.89359 0.00405 0.0
C103 C 0.32206 0.81179 0.07727 0.0
O104 O 0.32491 0.81615 0.13142 0.0
O105 O 0.37764 0.8493 0.13042 0.0
O106 O 0.41112 0.88241 0.16156 0.0
O107 O 0.34423 0.89091 0.06155 0.0
O108 O 0.37484 0.90012 0.11922 0.0
C109 C 0.39761 0.85934 0.15759 0.0
C110 C 0.36109 0.90664 0.09427 0.0
O111 O 0.33323 0.8294 0.04342 0.0
Mg112 Mg 0.50718 0.36204 0.25666 0.0
O113 O 0.52748 0.38914 0.18575 0.0
O114 O 0.53522 0.42604 0.21294 0.0
Mg115 Mg 0.52048 0.42251 0.3016 0.0
C116 C 0.5363 0.41183 0.17667 0.0
C117 C 0.50939 0.32858 0.16276 0.0
O118 O 0.50098 0.33985 0.13184 0.0
O119 O 0.54219 0.37598 0.30622 0.0
O120 O 0.54901 0.41284 0.33125 0.0
O121 O 0.47218 0.35638 0.22187 0.0
O122 O 0.4939 0.3839 0.28641 0.0
C123 C 0.55505 0.39643 0.33042 0.0
C124 C 0.47541 0.37442 0.25329 0.0
O125 O 0.51377 0.334 0.21431 0.0
Mg126 Mg 0.09789 0.4377 0.44934 0.0
O127 O 0.09854 0.46496 0.38459 0.0
O128 O 0.07271 0.47704 0.41288 0.0
Mg129 Mg 0.05851 0.46039 0.49907 0.0
C130 C 0.08779 0.47718 0.37724 0.0
C131 C 0.13346 0.4385 0.35568 0.0
O132 O 0.1159 0.43547 0.32158 0.0
O133 O 0.1224 0.46852 0.50755 0.0
O134 O 0.09747 0.48202 0.53466 0.0
O135 O 0.06528 0.40767 0.40694 0.0
O136 O 0.06376 0.42964 0.47729 0.0
C137 C 0.1182 0.48325 0.53501 0.0
C138 C 0.05245 0.41291 0.44039 0.0
O139 O 0.13087 0.43967 0.40815 0.0
Mg140 Mg 0.62471 0.1314 0.566 0.0
O141 O 0.59909 0.11891 0.48872 0.0
O142 O 0.57316 0.07907 0.49896 0.0
Mg143 Mg 0.58007 0.06685 0.58327 0.0
C144 C 0.58135 0.09875 0.47103 0.0
C145 C 0.64897 0.18546 0.58485 0.0
O146 O 0.64572 0.17621 0.63548 0.0
O147 O 0.59513 0.13207 0.61873 0.0
O148 O 0.56892 0.09207 0.6259 0.0
O149 O 0.64857 0.11902 0.52418 0.0
O150 O 0.61764 0.09664 0.58068 0.0
C151 C 0.57511 0.1142 0.63594 0.0
C152 C 0.63467 0.09843 0.54867 0.0
O153 O 0.64087 0.17107 0.54317 0.0
Mg154 Mg 0.48054 0.62934 0.76265 0.0
O155 O 0.45915 0.60564 0.68662 0.0
O156 O 0.44848 0.56734 0.70906 0.0
Mg157 Mg 0.46275 0.56651 0.79576 0.0
C158 C 0.44861 0.58292 0.67515 0.0
C159 C 0.48717 0.67898 0.76684 0.0
O160 O 0.49531 0.67578 0.81487 0.0
O161 O 0.44556 0.61606 0.8119 0.0
O162 O 0.43619 0.57785 0.83077 0.0
O163 O 0.51474 0.63403 0.72598 0.0
O164 O 0.4912 0.60461 0.7849 0.0
C165 C 0.43163 0.59527 0.83352 0.0
C166 C 0.51002 0.61443 0.75276 0.0
O167 O 0.4784 0.66169 0.73145 0.0
H168 H 0.48575 0.05023 0.18336 0.0
H169 H 0.58466 0.13709 0.40984 0.0
H170 H 0.51021 0.12686 0.19802 0.0
H171 H 0.5496 0.05872 0.41059 0.0
H172 H 0.56133 0.13469 0.32572 0.0
H173 H 0.51279 0.05408 0.26009 0.0
C174 C 0.49688 0.06793 0.20245 0.0
C175 C 0.49555 0.08823 0.18417 0.0
C176 C 0.55886 0.11806 0.34424 0.0
C177 C 0.52668 0.09275 0.27255 0.0
C178 C 0.57226 0.11941 0.39212 0.0
C179 C 0.569 0.09807 0.41766 0.0
C180 C 0.54226 0.09521 0.32151 0.0
C181 C 0.5526 0.07566 0.39281 0.0
C182 C 0.51232 0.07009 0.24647 0.0
C183 C 0.51051 0.11068 0.21077 0.0
N184 N 0.53986 0.07484 0.34632 0.0
N185 N 0.52541 0.11232 0.25368 0.0
H186 H 0.43103 0.55024 0.32465 0.0
H187 H 0.40981 0.53848 0.65117 0.0
H188 H 0.36274 0.49642 0.39731 0.0
H189 H 0.46062 0.60686 0.5743 0.0
H190 H 0.39305 0.52202 0.55876 0.0
H191 H 0.44331 0.57064 0.41565 0.0
C192 C 0.41858 0.54276 0.35971 0.0
C193 C 0.39589 0.52147 0.35353 0.0
C194 C 0.40766 0.54072 0.56213 0.0
C195 C 0.40993 0.54466 0.45768 0.0
C196 C 0.41729 0.55009 0.61478 0.0
C197 C 0.43672 0.57401 0.62023 0.0
C198 C 0.41788 0.55517 0.51438 0.0
C199 C 0.44561 0.58833 0.57183 0.0
C200 C 0.42555 0.55451 0.41148 0.0
C201 C 0.3804 0.51275 0.40023 0.0
N202 N 0.43637 0.57856 0.52068 0.0
N203 N 0.38784 0.5242 0.45057 0.0
H204 H 0.85448 0.48185 0.77213 0.0
H205 H 0.91347 0.44501 0.52468 0.0
H206 H 0.92438 0.48629 0.78737 0.0
H207 H 0.83559 0.40769 0.5488 0.0
H208 H 0.91875 0.46632 0.61347 0.0
H209 H 0.84812 0.46032 0.68249 0.0
C210 C 0.86851 0.47839 0.75652 0.0
C211 C 0.88999 0.48583 0.78724 0.0
C212 C 0.90051 0.45347 0.59927 0.0
C213 C 0.88294 0.46161 0.6849 0.0
C214 C 0.89745 0.44139 0.54849 0.0
C215 C 0.87403 0.42453 0.52929 0.0
C216 C 0.88002 0.44906 0.63072 0.0
C217 C 0.85396 0.42047 0.56218 0.0
C218 C 0.8648 0.46602 0.70567 0.0
C219 C 0.9075 0.48077 0.76525 0.0
N220 N 0.8574 0.4328 0.61121 0.0
N221 N 0.90368 0.46916 0.71522 0.0
H222 H 0.45021 0.90729 0.6557 0.0
H223 H 0.45468 0.90727 0.9864 0.0
H224 H 0.49856 0.88932 0.74341 0.0
H225 H 0.38643 0.88097 0.8993 0.0
H226 H 0.47422 0.90787 0.89729 0.0
H227 H 0.4295 0.90463 0.74452 0.0
C228 C 0.4565 0.90285 0.69367 0.0
C229 C 0.47616 0.89854 0.69224 0.0
C230 C 0.45497 0.90194 0.89782 0.0
C231 C 0.4528 0.89587 0.79375 0.0
C232 C 0.44383 0.90173 0.94847 0.0
C233 C 0.41889 0.89408 0.95019 0.0
C234 C 0.44123 0.89505 0.84827 0.0
C235 C 0.40568 0.8869 0.89981 0.0
C236 C 0.4446 0.90121 0.74413 0.0
C237 C 0.48344 0.89269 0.74263 0.0
N238 N 0.41707 0.88782 0.85071 0.0
N239 N 0.47194 0.89181 0.79152 0.0
H240 H 0.5704 0.45878 0.15189 0.0
H241 H 0.55508 0.4422 0.82405 0.0
H242 H 0.52741 0.3879 0.07637 0.0
H243 H 0.62127 0.49918 0.89816 0.0
H244 H 0.542 0.42344 0.91654 0.0
H245 H 0.58691 0.47563 0.05935 0.0
C246 C 0.56451 0.44676 0.11586 0.0
C247 C 0.54746 0.42192 0.1217 0.0
C248 C 0.55946 0.43994 0.91238 0.0
C249 C 0.56601 0.44112 0.01603 0.0
C250 C 0.56688 0.45072 0.85978 0.0
C251 C 0.58926 0.4723 0.85356 0.0
C252 C 0.57427 0.45113 0.95923 0.0
C253 C 0.60391 0.4825 0.90116 0.0
C254 C 0.57402 0.45636 0.06323 0.0
C255 C 0.54057 0.40713 0.07371 0.0
N256 N 0.59602 0.47198 0.95223 0.0
N257 N 0.54964 0.41703 0.02268 0.0
H258 H 0.05844 0.49199 0.32874 0.0
H259 H 0.14916 0.57009 0.08398 0.0
H260 H 0.12736 0.49481 0.30686 0.0
H261 H 0.07102 0.53292 0.0659 0.0
H262 H 0.14399 0.54972 0.17488 0.0
H263 H 0.06541 0.51446 0.24115 0.0
C264 C 0.07513 0.49748 0.30574 0.0
C265 C 0.09232 0.49144 0.32507 0.0
C266 C 0.12806 0.54613 0.15083 0.0
C267 C 0.10046 0.51739 0.22512 0.0
C268 C 0.13097 0.5578 0.09928 0.0
C269 C 0.11048 0.55308 0.06731 0.0
C270 C 0.10451 0.53019 0.17094 0.0
C271 C 0.08731 0.53693 0.08895 0.0
C272 C 0.07902 0.51021 0.25567 0.0
C273 C 0.11357 0.49896 0.29328 0.0
N274 N 0.08495 0.5262 0.13953 0.0
N275 N 0.11713 0.51169 0.24491 0.0
H276 H 0.52643 0.30196 0.21564 0.0
H277 H 0.48046 0.2014 0.97453 0.0
H278 H 0.49674 0.30828 0.05785 0.0
H279 H 0.49996 0.19132 0.14168 0.0
H280 H 0.49413 0.24383 -0.00266 0.0
H281 H 0.52465 0.2649 0.18178 0.0
C282 C 0.51975 0.29569 0.17362 0.0
C283 C 0.5113 0.308 0.13986 0.0
C284 C 0.49566 0.23239 0.02879 0.0
C285 C 0.50914 0.26549 0.10097 0.0
C286 C 0.48791 0.20817 0.0158 0.0
C287 C 0.48868 0.19269 0.05662 0.0
C288 C 0.50428 0.24116 0.08292 0.0
C289 C 0.4987 0.20252 0.10919 0.0
C290 C 0.51874 0.2745 0.15433 0.0
C291 C 0.50316 0.2992 0.08553 0.0
N292 N 0.50588 0.22607 0.12101 0.0
N293 N 0.50201 0.27829 0.06797 0.0
H294 H 0.27901 0.46165 0.32757 0.0
H295 H 0.14631 0.43754 0.24608 0.0
H296 H 0.25244 0.45081 0.1573 0.0
H297 H 0.17307 0.44569 0.41575 0.0
H298 H 0.18503 0.4427 0.21196 0.0
H299 H 0.24022 0.45632 0.36006 0.0
C300 C 0.26501 0.45815 0.29699 0.0
C301 C 0.26895 0.45664 0.23965 0.0
C302 C 0.18237 0.44332 0.25664 0.0
C303 C 0.22444 0.45051 0.27656 0.0
C304 C 0.16028 0.44036 0.27612 0.0
C305 C 0.15644 0.44117 0.33382 0.0
C306 C 0.20069 0.44714 0.2952 0.0
C307 C 0.17519 0.44492 0.37089 0.0
C308 C 0.24283 0.45508 0.31557 0.0
C309 C 0.25015 0.45208 0.20193 0.0
N310 N 0.19647 0.44778 0.35092 0.0
N311 N 0.22868 0.44918 0.22106 0.0
H312 H 0.67622 0.21981 0.66346 0.0
H313 H 0.75449 0.3177 0.43021 0.0
H314 H 0.65946 0.21103 0.4866 0.0
H315 H 0.78013 0.31828 0.59818 0.0
H316 H 0.71443 0.28456 0.45677 0.0
H317 H 0.70879 0.26142 0.64578 0.0
C318 C 0.67908 0.22675 0.62103 0.0
C319 C 0.66544 0.21177 0.5762 0.0
C320 C 0.72872 0.29216 0.48803 0.0
C321 C 0.70265 0.2593 0.55587 0.0
C322 C 0.75163 0.3111 0.47296 0.0
C323 C 0.77086 0.3204 0.51173 0.0
C324 C 0.72501 0.2824 0.54222 0.0
C325 C 0.76593 0.3114 0.56672 0.0
C326 C 0.69772 0.2505 0.61102 0.0
C327 C 0.66981 0.22182 0.52225 0.0
N328 N 0.74354 0.29262 0.58015 0.0
N329 N 0.68825 0.24489 0.51348 0.0
H330 H 0.49102 0.80016 0.59657 0.0
H331 H 0.5077 0.72015 0.83119 0.0
H332 H 0.52914 0.8301 0.75234 0.0
H333 H 0.47226 0.69196 0.67195 0.0
H334 H 0.51351 0.75997 0.80621 0.0
H335 H 0.48183 0.75995 0.62678 0.0
C336 C 0.49746 0.79829 0.63727 0.0
C337 C 0.51105 0.81859 0.67187 0.0
C338 C 0.50437 0.74505 0.77686 0.0
C339 C 0.50054 0.77239 0.70672 0.0
C340 C 0.50101 0.72229 0.79108 0.0
C341 C 0.48957 0.70273 0.75342 0.0
C342 C 0.49622 0.74826 0.72465 0.0
C343 C 0.48126 0.70655 0.70214 0.0
C344 C 0.49216 0.77526 0.65451 0.0
C345 C 0.51869 0.81496 0.7243 0.0
N346 N 0.48482 0.7289 0.6892 0.0
N347 N 0.51342 0.79227 0.74007 0.0
H348 H 0.70277 0.50877 0.78819 0.0
H349 H 0.84297 0.59371 0.86772 0.0
H350 H 0.73986 0.58709 0.77548 0.0
H351 H 0.80804 0.51586 0.84566 0.0
H352 H 0.80509 0.59206 0.83932 0.0
H353 H 0.74086 0.51142 0.81644 0.0
C354 C 0.71892 0.52656 0.79157 0.0
C355 C 0.71816 0.54776 0.77928 0.0
C356 C 0.80581 0.57539 0.84052 0.0
C357 C 0.76191 0.55089 0.81145 0.0
C358 C 0.82739 0.57631 0.85666 0.0
C359 C 0.82863 0.55488 0.85916 0.0
C360 C 0.78534 0.55287 0.82725 0.0
C361 C 0.80792 0.53284 0.84437 0.0
C362 C 0.7407 0.52805 0.80748 0.0
C363 C 0.73966 0.5703 0.78442 0.0
N364 N 0.78712 0.5324 0.82932 0.0
N365 N 0.76072 0.57128 0.80015 0.0
H366 H 0.23369 0.68607 0.87164 0.0
H367 H 0.29541 0.77066 0.13923 0.0
H368 H 0.21101 0.66317 0.04218 0.0
H369 H 0.31273 0.79591 0.96833 0.0
H370 H 0.26826 0.72961 0.10461 0.0
H371 H 0.267 0.72449 0.90676 0.0
C372 C 0.2359 0.68897 0.91652 0.0
C373 C 0.21933 0.67152 0.95403 0.0
C374 C 0.27808 0.7441 0.07467 0.0
C375 C 0.25728 0.71554 0.99441 0.0
C376 C 0.29356 0.76757 0.09438 0.0
C377 C 0.30617 0.78679 0.05657 0.0
C378 C 0.27517 0.73978 0.0167 0.0
C379 C 0.3032 0.78166 -0.00105 0.0
C380 C 0.25488 0.71096 0.93651 0.0
C381 C 0.22321 0.6762 0.01172 0.0
N382 N 0.2879 0.75865 0.98076 0.0
N383 N 0.24165 0.69789 0.03013 0.0
H384 H 0.52592 0.08993 0.63543 0.0
H385 H 0.47351 0.06494 0.88884 0.0
H386 H 0.58795 0.14758 0.7208 0.0
H387 H 0.51108 0.14209 0.92393 0.0
H388 H 0.4955 0.073 0.80154 0.0
H389 H 0.49965 0.08934 0.71086 0.0
C390 C 0.5339 0.10275 0.66975 0.0
C391 C 0.55909 0.11845 0.67282 0.0
C392 C 0.49863 0.08827 0.82763 0.0
C393 C 0.52946 0.11705 0.76023 0.0
C394 C 0.48633 0.08367 0.87813 0.0
C395 C 0.49038 0.10289 0.91388 0.0
C396 C 0.51527 0.11229 0.81228 0.0
C397 C 0.50735 0.12676 0.89741 0.0
C398 C 0.51899 0.10225 0.71294 0.0
C399 C 0.56857 0.13504 0.71749 0.0
N400 N 0.51946 0.13081 0.8478 0.0
N401 N 0.55374 0.13356 0.76044 0.0
H402 H 0.43201 0.6265 0.91231 0.0
H403 H 0.33273 0.51012 0.06892 0.0
H404 H 0.38615 0.55583 0.83907 0.0
H405 H 0.4007 0.56627 0.13739 0.0
H406 H 0.33788 0.53679 0.98952 0.0
H407 H 0.4054 0.61393 0.99478 0.0
C408 C 0.41568 0.60877 0.91244 0.0
C409 C 0.41153 0.59183 0.87003 0.0
C410 C 0.35109 0.54362 0.02325 0.0
C411 C 0.38131 0.57749 0.96337 0.0
C412 C 0.34817 0.52846 0.06847 0.0
C413 C 0.36674 0.5359 0.10844 0.0
C414 C 0.37259 0.56623 0.01876 0.0
C415 C 0.38634 0.55977 0.10633 0.0
C416 C 0.40056 0.6016 0.95948 0.0
C417 C 0.39018 0.56912 0.87188 0.0
N418 N 0.38902 0.57398 0.06148 0.0
N419 N 0.37609 0.56238 0.91854 0.0
H420 H 0.84642 0.43818 0.00526 0.0
H421 H 0.84632 0.44714 0.3088 0.0
H422 H 0.83385 0.49356 0.07508 0.0
H423 H 0.80596 0.3753 0.23731 0.0
H424 H 0.83695 0.46361 0.22605 0.0
H425 H 0.82622 0.41245 0.08646 0.0
C426 C 0.83856 0.44449 0.03682 0.0
C427 C 0.84198 0.46802 0.03422 0.0
C428 C 0.82931 0.44411 0.22933 0.0
C429 C 0.81987 0.43929 0.12775 0.0
C430 C 0.83473 0.43478 0.27642 0.0
C431 C 0.82705 0.40997 0.27919 0.0
C432 C 0.81714 0.42863 0.18395 0.0
C433 C 0.8122 0.39459 0.23631 0.0
C434 C 0.82699 0.42982 0.08305 0.0
C435 C 0.8316 0.4755 0.07598 0.0
N436 N 0.80843 0.40429 0.18927 0.0
N437 N 0.82175 0.46152 0.1223 0.0
H438 H 0.42643 0.85935 0.46854 0.0
H439 H 0.44117 0.86147 0.17138 0.0
H440 H 0.47542 0.83578 0.40887 0.0
H441 H 0.36699 0.82477 0.23028 0.0
H442 H 0.45307 0.84758 0.25477 0.0
H443 H 0.40152 0.84203 0.38451 0.0
C444 C 0.43136 0.84966 0.43866 0.0
C445 C 0.45299 0.84911 0.44495 0.0
C446 C 0.434 0.84168 0.24835 0.0
C447 C 0.42539 0.83031 0.34829 0.0
C448 C 0.42727 0.84965 0.20088 0.0
C449 C 0.40319 0.84441 0.19465 0.0
C450 C 0.41673 0.82947 0.29067 0.0
C451 C 0.38579 0.8292 0.23399 0.0
C452 C 0.41715 0.83973 0.39086 0.0
C453 C 0.45881 0.83655 0.40513 0.0
N454 N 0.39305 0.82302 0.2817 0.0
N455 N 0.44557 0.82843 0.35718 0.0
H456 H 0.58462 0.42426 0.63782 0.0
H457 H 0.59983 0.43676 0.3359 0.0
H458 H 0.65306 0.47941 0.5694 0.0
H459 H 0.55606 0.36552 0.40766 0.0
H460 H 0.62644 0.44888 0.41756 0.0
H461 H 0.57983 0.39793 0.55864 0.0
C462 C 0.59905 0.43044 0.60694 0.0
C463 C 0.61891 0.45416 0.609 0.0
C464 C 0.61163 0.43025 0.41473 0.0
C465 C 0.61316 0.42469 0.51732 0.0
C466 C 0.59645 0.42339 0.36804 0.0
C467 C 0.57553 0.40037 0.36608 0.0
C468 C 0.60505 0.41433 0.4606 0.0
C469 C 0.57191 0.38358 0.40829 0.0
C470 C 0.5964 0.4154 0.56175 0.0
C471 C 0.63727 0.46131 0.56858 0.0
N472 N 0.58601 0.39118 0.45508 0.0
N473 N 0.63354 0.44695 0.52307 0.0
H474 H 0.14367 0.47353 0.6121 0.0
H475 H 0.17799 0.59577 0.77441 0.0
H476 H 0.13348 0.53128 0.54844 0.0
H477 H 0.13938 0.52432 0.84809 0.0
H478 H 0.18466 0.57795 0.68964 0.0
H479 H 0.16464 0.49879 0.69429 0.0
C480 C 0.14679 0.49191 0.61434 0.0
C481 C 0.13663 0.50036 0.5743 0.0
C482 C 0.17576 0.56641 0.72548 0.0
C483 C 0.16077 0.52918 0.66666 0.0
C484 C 0.17208 0.57653 0.77388 0.0
C485 C 0.15782 0.56133 0.81758 0.0
C486 C 0.16546 0.5411 0.72175 0.0
C487 C 0.15024 0.53651 0.81477 0.0
C488 C 0.15868 0.50622 0.66108 0.0
C489 C 0.14086 0.52414 0.57904 0.0
N490 N 0.15381 0.52704 0.76706 0.0
N491 N 0.15242 0.53768 0.62491 0.0
H492 H 0.41904 0.0538 0.19988 0.0
H493 H 0.33688 0.92748 0.04493 0.0
H494 H 0.37096 0.0439 0.06252 0.0
H495 H 0.39112 0.94046 0.17031 0.0
H496 H 0.34197 0.96757 0.06544 0.0
H497 H 0.40019 0.00959 0.20802 0.0
C498 C 0.40355 0.04224 0.17359 0.0
C499 C 0.39636 0.05229 0.1307 0.0
C500 C 0.35262 0.96154 0.08871 0.0
C501 C 0.37569 0.00203 0.13743 0.0
C502 C 0.34987 0.93876 0.07666 0.0
C503 C 0.36398 0.93085 0.10505 0.0
C504 C 0.36956 0.97645 0.1295 0.0
C505 C 0.38023 0.94602 0.1465 0.0
C506 C 0.39313 0.01703 0.17735 0.0
C507 C 0.37679 0.03666 0.09638 0.0
N508 N 0.38269 0.96813 0.15716 0.0
N509 N 0.36746 0.01226 0.09961 0.0
H510 H 0.46516 0.39756 0.33556 0.0
H511 H 0.39836 0.44657 0.14422 0.0
H512 H 0.44923 0.37487 0.16277 0.0
H513 H 0.37374 0.42345 0.31353 0.0
H514 H 0.42423 0.42813 0.15095 0.0
H515 H 0.43836 0.41496 0.32912 0.0
C516 C 0.45605 0.39632 0.29627 0.0
C517 C 0.45927 0.38476 0.24961 0.0
C518 C 0.41313 0.42713 0.18649 0.0
C519 C 0.42922 0.40493 0.24185 0.0
C520 C 0.39854 0.43773 0.18289 0.0
C521 C 0.38394 0.43644 0.22842 0.0
C522 C 0.41358 0.41581 0.23647 0.0
C523 C 0.38468 0.4247 0.27747 0.0
C524 C 0.44075 0.40611 0.29278 0.0
C525 C 0.44705 0.38353 0.19971 0.0
N526 N 0.3995 0.41501 0.28047 0.0
N527 N 0.43272 0.39377 0.19688 0.0
H528 H 0.02424 0.39135 0.34766 0.0
H529 H 0.8984 0.35378 0.50147 0.0
H530 H 0.02028 0.40812 0.52139 0.0
H531 H 0.91097 0.37402 0.3269 0.0
H532 H 0.94094 0.36333 0.50955 0.0
H533 H 0.98003 0.37454 0.33973 0.0
C534 C 0.01402 0.39125 0.38417 0.0
C535 C 0.02583 0.4013 0.43507 0.0
C536 C 0.93421 0.36542 0.46945 0.0
C537 C 0.97563 0.38189 0.4266 0.0
C538 C 0.91003 0.35991 0.46479 0.0
C539 C 0.90137 0.36336 0.41361 0.0
C540 C 0.9495 0.37388 0.42228 0.0
C541 C 0.9171 0.37139 0.36727 0.0
C542 C 0.98892 0.38175 0.37961 0.0
C543 C 0.01183 0.40077 0.48121 0.0
N544 N 0.94044 0.37637 0.37265 0.0
N545 N 0.98743 0.39118 0.47593 0.0
H546 H 0.5918 0.95285 0.62292 0.0
H547 H 0.62181 0.07257 0.45178 0.0
H548 H 0.55342 0.95469 0.47534 0.0
H549 H 0.64648 0.07329 0.62024 0.0
H550 H 0.60712 0.02882 0.44633 0.0
H551 H 0.62086 -0.00362 0.61055 0.0
C552 C 0.58955 0.96238 0.58789 0.0
C553 C 0.5699 0.95032 0.55083 0.0
C554 C 0.61649 0.0387 0.48383 0.0
C555 C 0.6032 -0.00029 0.53576 0.0
C556 C 0.62521 0.06369 0.48649 0.0
C557 C 0.63544 0.07631 0.53634 0.0
C558 C 0.61791 0.02649 0.53159 0.0
C559 C 0.6388 0.06401 0.58098 0.0
C560 C 0.60618 0.98712 0.58066 0.0
C561 C 0.568 0.9634 0.50565 0.0
N562 N 0.62969 0.03963 0.57796 0.0
N563 N 0.58434 0.9874 0.49958 0.0
H564 H 0.61237 0.56583 0.81328 0.0
H565 H 0.53716 0.61661 0.66176 0.0
H566 H 0.59011 0.54656 0.64113 0.0
H567 H 0.51808 0.58763 0.82935 0.0
H568 H 0.56377 0.59896 0.65359 0.0
H569 H 0.58469 0.58227 0.8209 0.0
C570 C 0.60174 0.56519 0.77713 0.0
C571 C 0.60338 0.55487 0.72655 0.0
C572 C 0.55366 0.59648 0.69198 0.0
C573 C 0.57239 0.57387 0.73466 0.0
C574 C 0.53861 0.60655 0.69673 0.0
C575 C 0.52546 0.60344 0.74622 0.0
C576 C 0.55602 0.58394 0.73765 0.0
C577 C 0.52785 0.59025 0.79039 0.0
C578 C 0.58595 0.57441 0.78159 0.0
C579 C 0.58919 0.5543 0.68091 0.0
N580 N 0.54313 0.58119 0.78537 0.0
N581 N 0.57443 0.56395 0.68581 0.0
H582 H 0.07995 0.62029 0.01015 0.0
H583 H 0.95959 0.58153 0.83225 0.0
H584 H 0.07142 0.59359 0.84044 0.0
H585 H 0.95756 0.5653 0.00837 0.0
H586 H 0.00396 0.59797 0.83292 0.0
H587 H 0.03765 0.61186 0.00804 0.0
C588 C 0.06925 0.61293 0.97237 0.0
C589 C 0.07892 0.60733 0.92564 0.0
C590 C -0.0063 0.59104 0.8714 0.0
C591 C 0.03124 0.59829 0.92253 0.0
C592 C 0.96856 0.58179 0.87108 0.0
C593 C 0.95508 0.57191 0.92019 0.0
C594 C 0.00526 0.5909 0.92149 0.0
C595 C 0.96739 0.57254 0.96952 0.0
C596 C 0.04524 0.60812 0.97122 0.0
C597 C 0.06442 0.59783 0.87758 0.0
N598 N -0.00815 0.58192 0.96899 0.0
N599 N 0.04126 0.59364 0.87717 0.0
loop_
_geom_bond_atom_site_label_1
_geom_bond_atom_site_label_2
_geom_bond_distance
_geom_bond_site_symmetry_2
_ccdc_geom_bond_type
Mg0 O1 2.028 . S
Mg0 O7 1.986 . S
Mg0 O9 2.114 . S
Mg0 O10 2.251 . S
Mg0 O13 2.010 . S
O1 Mg0 2.028 . S
O1 C4 1.250 . S
O2 Mg3 2.028 . S
O2 C4 1.248 . S
Mg3 O2 2.028 . S
Mg3 O8 2.032 . S
Mg3 O10 2.079 . S
C4 O1 1.250 . S
C4 O2 1.248 . S
C5 O6 1.264 . S
C5 O13 1.249 . S
O6 C5 1.264 . S
O7 Mg0 1.986 . S
O7 C11 1.246 1_554 S
O8 Mg3 2.032 . S
O8 C11 1.259 1_554 S
O9 Mg0 2.114 . S
O9 C12 1.252 . S
O10 Mg0 2.251 . S
O10 Mg3 2.079 . S
O10 C12 1.273 . S
C11 O7 1.246 1_556 S
C11 O8 1.259 1_556 S
C12 O9 1.252 . S
C12 O10 1.273 . S
O13 Mg0 2.010 . S
O13 C5 1.249 . S
Mg14 O15 2.028 . S
Mg14 O21 1.986 . S
Mg14 O23 2.114 . S
Mg14 O24 2.251 . S
Mg14 O27 2.010 . S
O15 Mg14 2.028 . S
O15 C18 1.250 . S
O16 Mg17 2.028 . S
O16 C18 1.248 . S
Mg17 O16 2.028 . S
Mg17 O22 2.032 . S
Mg17 O24 2.079 . S
C18 O15 1.250 . S
C18 O16 1.248 . S
C19 O20 1.264 . S
C19 O27 1.249 . S
O20 C19 1.264 . S
O21 Mg14 1.986 . S
O21 C25 1.246 . S
O22 Mg17 2.032 . S
O22 C25 1.259 . S
O23 Mg14 2.114 . S
O23 C26 1.252 . S
O24 Mg14 2.251 . S
O24 Mg17 2.079 . S
O24 C26 1.273 . S
C25 O21 1.246 . S
C25 O22 1.259 . S
C26 O23 1.252 . S
C26 O24 1.273 . S
O27 Mg14 2.010 . S
O27 C19 1.249 . S
Mg28 O29 2.028 . S
Mg28 O35 1.986 . S
Mg28 O37 2.114 . S
Mg28 O38 2.251 . S
Mg28 O41 2.010 . S
O29 Mg28 2.028 . S
O29 C32 1.250 . S
O30 Mg31 2.028 . S
O30 C32 1.248 . S
Mg31 O30 2.028 . S
Mg31 O36 2.032 . S
Mg31 O38 2.079 . S
C32 O29 1.250 . S
C32 O30 1.248 . S
C33 O34 1.264 . S
C33 O41 1.249 . S
O34 C33 1.264 . S
O35 Mg28 1.986 . S
O35 C39 1.246 . S
O36 Mg31 2.032 . S
O36 C39 1.259 . S
O37 Mg28 2.114 . S
O37 C40 1.252 . S
O38 Mg28 2.251 . S
O38 Mg31 2.079 . S
O38 C40 1.273 . S
C39 O35 1.246 . S
C39 O36 1.259 . S
C40 O37 1.252 . S
C40 O38 1.273 . S
O41 Mg28 2.010 . S
O41 C33 1.249 . S
Mg42 O43 2.028 . S
Mg42 O49 1.986 . S
Mg42 O51 2.114 . S
Mg42 O52 2.251 . S
Mg42 O55 2.010 . S
O43 Mg42 2.028 . S
O43 C46 1.250 . S
O44 Mg45 2.028 . S
O44 C46 1.248 . S
Mg45 O44 2.028 . S
Mg45 O50 2.032 . S
Mg45 O52 2.079 . S
C46 O43 1.250 . S
C46 O44 1.248 . S
C47 O48 1.264 . S
C47 O55 1.249 . S
O48 C47 1.264 . S
O49 Mg42 1.986 . S
O49 C53 1.246 . S
O50 Mg45 2.032 . S
O50 C53 1.259 . S
O51 Mg42 2.114 . S
O51 C54 1.252 . S
O52 Mg42 2.251 . S
O52 Mg45 2.079 . S
O52 C54 1.273 . S
C53 O49 1.246 . S
C53 O50 1.259 . S
C54 O51 1.252 . S
C54 O52 1.273 . S
O55 Mg42 2.010 . S
O55 C47 1.249 . S
Mg56 O57 2.028 . S
Mg56 O63 1.986 . S
Mg56 O65 2.114 . S
Mg56 O66 2.251 . S
Mg56 O69 2.010 . S
O57 Mg56 2.028 . S
O57 C60 1.250 . S
O58 Mg59 2.028 . S
O58 C60 1.248 . S
Mg59 O58 2.028 . S
Mg59 O64 2.032 . S
Mg59 O66 2.079 . S
C60 O57 1.250 . S
C60 O58 1.248 . S
C61 O62 1.264 . S
C61 O69 1.249 . S
O62 C61 1.264 . S
O63 Mg56 1.986 . S
O63 C67 1.246 . S
O64 Mg59 2.032 . S
O64 C67 1.259 . S
O65 Mg56 2.114 . S
O65 C68 1.252 . S
O66 Mg56 2.251 . S
O66 Mg59 2.079 . S
O66 C68 1.273 . S
C67 O63 1.246 . S
C67 O64 1.259 . S
C68 O65 1.252 . S
C68 O66 1.273 . S
O69 Mg56 2.010 . S
O69 C61 1.249 . S
Mg70 O71 2.028 . S
Mg70 O77 1.986 . S
Mg70 O79 2.114 . S
Mg70 O80 2.251 . S
Mg70 O83 2.010 . S
O71 Mg70 2.028 . S
O71 C74 1.250 . S
O72 Mg73 2.028 . S
O72 C74 1.248 . S
Mg73 O72 2.028 . S
Mg73 O78 2.032 . S
Mg73 O80 2.079 . S
C74 O71 1.250 . S
C74 O72 1.248 . S
C75 O76 1.264 . S
C75 O83 1.249 . S
O76 C75 1.264 . S
O77 Mg70 1.986 . S
O77 C81 1.246 . S
O78 Mg73 2.032 . S
O78 C81 1.259 . S
O79 Mg70 2.114 . S
O79 C82 1.252 . S
O80 Mg70 2.251 . S
O80 Mg73 2.079 . S
O80 C82 1.273 . S
C81 O77 1.246 . S
C81 O78 1.259 . S
C82 O79 1.252 . S
C82 O80 1.273 . S
O83 Mg70 2.010 . S
O83 C75 1.249 . S
Mg84 O85 2.028 . S
Mg84 O91 1.986 . S
Mg84 O93 2.114 . S
Mg84 O94 2.251 . S
Mg84 O97 2.010 . S
O85 Mg84 2.028 . S
O85 C88 1.250 . S
O86 Mg87 2.028 . S
O86 C88 1.248 . S
Mg87 O86 2.028 . S
Mg87 O92 2.032 . S
Mg87 O94 2.079 . S
C88 O85 1.250 . S
C88 O86 1.248 . S
C89 O90 1.264 . S
C89 O97 1.249 . S
O90 C89 1.264 . S
O91 Mg84 1.986 . S
O91 C95 1.239 1_556 S
O92 Mg87 2.032 . S
O92 C95 1.254 1_556 S
O93 Mg84 2.114 . S
O93 C96 1.252 . S
O94 Mg84 2.251 . S
O94 Mg87 2.079 . S
O94 C96 1.273 . S
C95 O91 1.239 1_554 S
C95 O92 1.254 1_554 S
C96 O93 1.252 . S
C96 O94 1.273 . S
O97 Mg84 2.010 . S
O97 C89 1.249 . S
Mg98 O99 2.028 . S
Mg98 O105 1.986 . S
Mg98 O107 2.114 . S
Mg98 O108 2.251 . S
Mg98 O111 2.010 . S
O99 Mg98 2.028 . S
O99 C102 1.250 1_554 S
O100 Mg101 2.028 . S
O100 C102 1.248 1_554 S
Mg101 O100 2.028 . S
Mg101 O106 2.032 . S
Mg101 O108 2.079 . S
C102 O99 1.250 1_556 S
C102 O100 1.248 1_556 S
C103 O104 1.264 . S
C103 O111 1.249 . S
O104 C103 1.264 . S
O105 Mg98 1.986 . S
O105 C109 1.246 . S
O106 Mg101 2.032 . S
O106 C109 1.259 . S
O107 Mg98 2.114 . S
O107 C110 1.252 . S
O108 Mg98 2.251 . S
O108 Mg101 2.079 . S
O108 C110 1.273 . S
C109 O105 1.246 . S
C109 O106 1.259 . S
C110 O107 1.252 . S
C110 O108 1.273 . S
O111 Mg98 2.010 . S
O111 C103 1.249 . S
Mg112 O113 2.028 . S
Mg112 O119 1.986 . S
Mg112 O121 2.114 . S
Mg112 O122 2.251 . S
Mg112 O125 2.010 . S
O113 Mg112 2.028 . S
O113 C116 1.250 . S
O114 Mg115 2.028 . S
O114 C116 1.248 . S
Mg115 O114 2.028 . S
Mg115 O120 2.032 . S
Mg115 O122 2.079 . S
C116 O113 1.250 . S
C116 O114 1.248 . S
C117 O118 1.264 . S
C117 O125 1.249 . S
O118 C117 1.264 . S
O119 Mg112 1.986 . S
O119 C123 1.246 . S
O120 Mg115 2.032 . S
O120 C123 1.259 . S
O121 Mg112 2.114 . S
O121 C124 1.252 . S
O122 Mg112 2.251 . S
O122 Mg115 2.079 . S
O122 C124 1.273 . S
C123 O119 1.246 . S
C123 O120 1.259 . S
C124 O121 1.252 . S
C124 O122 1.273 . S
O125 Mg112 2.010 . S
O125 C117 1.249 . S
Mg126 O127 2.028 . S
Mg126 O133 1.986 . S
Mg126 O135 2.114 . S
Mg126 O136 2.251 . S
Mg126 O139 2.010 . S
O127 Mg126 2.028 . S
O127 C130 1.250 . S
O128 Mg129 2.028 . S
O128 C130 1.248 . S
Mg129 O128 2.028 . S
Mg129 O134 2.032 . S
Mg129 O136 2.079 . S
C130 O127 1.250 . S
C130 O128 1.248 . S
C131 O132 1.264 . S
C131 O139 1.249 . S
O132 C131 1.264 . S
O133 Mg126 1.986 . S
O133 C137 1.246 . S
O134 Mg129 2.032 . S
O134 C137 1.259 . S
O135 Mg126 2.114 . S
O135 C138 1.252 . S
O136 Mg126 2.251 . S
O136 Mg129 2.079 . S
O136 C138 1.273 . S
C137 O133 1.246 . S
C137 O134 1.259 . S
C138 O135 1.252 . S
C138 O136 1.273 . S
O139 Mg126 2.010 . S
O139 C131 1.249 . S
Mg140 O141 2.028 . S
Mg140 O147 1.986 . S
Mg140 O149 2.114 . S
Mg140 O150 2.251 . S
Mg140 O153 2.010 . S
O141 Mg140 2.028 . S
O141 C144 1.250 . S
O142 Mg143 2.028 . S
O142 C144 1.248 . S
Mg143 O142 2.028 . S
Mg143 O148 2.032 . S
Mg143 O150 2.079 . S
C144 O141 1.250 . S
C144 O142 1.248 . S
C145 O146 1.264 . S
C145 O153 1.249 . S
O146 C145 1.264 . S
O147 Mg140 1.986 . S
O147 C151 1.246 . S
O148 Mg143 2.032 . S
O148 C151 1.259 . S
O149 Mg140 2.114 . S
O149 C152 1.252 . S
O150 Mg140 2.251 . S
O150 Mg143 2.079 . S
O150 C152 1.273 . S
C151 O147 1.246 . S
C151 O148 1.259 . S
C152 O149 1.252 . S
C152 O150 1.273 . S
O153 Mg140 2.010 . S
O153 C145 1.249 . S
Mg154 O155 2.028 . S
Mg154 O161 1.986 . S
Mg154 O163 2.114 . S
Mg154 O164 2.251 . S
Mg154 O167 2.010 . S
O155 Mg154 2.028 . S
O155 C158 1.250 . S
O156 Mg157 2.028 . S
O156 C158 1.248 . S
Mg157 O156 2.028 . S
Mg157 O162 2.032 . S
Mg157 O164 2.079 . S
C158 O155 1.250 . S
C158 O156 1.248 . S
C159 O160 1.264 . S
C159 O167 1.249 . S
O160 C159 1.264 . S
O161 Mg154 1.986 . S
O161 C165 1.246 . S
O162 Mg157 2.032 . S
O162 C165 1.259 . S
O163 Mg154 2.114 . S
O163 C166 1.252 . S
O164 Mg154 2.251 . S
O164 Mg157 2.079 . S
O164 C166 1.273 . S
C165 O161 1.246 . S
C165 O162 1.259 . S
C166 O163 1.252 . S
C166 O164 1.273 . S
O167 Mg154 2.010 . S
O167 C159 1.249 . S
H168 C174 0.930 . S
H169 C178 0.930 . S
H170 C183 0.929 . S
H171 C181 0.929 . S
H172 C176 0.929 . S
H173 C182 0.929 . S
C174 H168 0.930 . S
C174 C175 1.367 . S
C174 C182 1.378 . S
C175 C174 1.367 . S
C175 C183 1.433 . S
C176 H172 0.929 . S
C176 C178 1.378 . S
C176 C180 1.350 . S
C177 C180 1.463 . S
C177 C182 1.350 . S
C177 N185 1.427 . S
C178 H169 0.930 . S
C178 C176 1.378 . S
C178 C179 1.367 . S
C179 C178 1.367 . S
C179 C181 1.433 . S
C180 C176 1.350 . S
C180 C177 1.463 . S
C180 N184 1.427 . S
C181 H171 0.929 . S
C181 C179 1.433 . S
C181 N184 1.384 . S
C182 H173 0.929 . S
C182 C174 1.378 . S
C182 C177 1.350 . S
C183 H170 0.929 . S
C183 C175 1.433 . S
C183 N185 1.384 . S
N184 C180 1.427 . S
N184 C181 1.384 . S
N185 C177 1.427 . S
N185 C183 1.384 . S
H186 C192 0.930 . S
H187 C196 0.930 . S
H188 C201 0.929 . S
H189 C199 0.929 . S
H190 C194 0.929 . S
H191 C200 0.929 . S
C192 H186 0.930 . S
C192 C193 1.367 . S
C192 C200 1.378 . S
C193 C192 1.367 . S
C193 C201 1.433 . S
C194 H190 0.929 . S
C194 C196 1.378 . S
C194 C198 1.350 . S
C195 C198 1.463 . S
C195 C200 1.350 . S
C195 N203 1.427 . S
C196 H187 0.930 . S
C196 C194 1.378 . S
C196 C197 1.367 . S
C197 C196 1.367 . S
C197 C199 1.433 . S
C198 C194 1.350 . S
C198 C195 1.463 . S
C198 N202 1.427 . S
C199 H189 0.929 . S
C199 C197 1.433 . S
C199 N202 1.384 . S
C200 H191 0.929 . S
C200 C192 1.378 . S
C200 C195 1.350 . S
C201 H188 0.929 . S
C201 C193 1.433 . S
C201 N203 1.384 . S
N202 C198 1.427 . S
N202 C199 1.384 . S
N203 C195 1.427 . S
N203 C201 1.384 . S
H204 C210 0.930 . S
H205 C214 0.930 . S
H206 C219 0.929 . S
H207 C217 0.929 . S
H208 C212 0.929 . S
H209 C218 0.929 . S
C210 H204 0.930 . S
C210 C211 1.367 . S
C210 C218 1.378 . S
C211 C210 1.367 . S
C211 C219 1.433 . S
C212 H208 0.929 . S
C212 C214 1.378 . S
C212 C216 1.350 . S
C213 C216 1.463 . S
C213 C218 1.350 . S
C213 N221 1.427 . S
C214 H205 0.930 . S
C214 C212 1.378 . S
C214 C215 1.367 . S
C215 C214 1.367 . S
C215 C217 1.433 . S
C216 C212 1.350 . S
C216 C213 1.463 . S
C216 N220 1.427 . S
C217 H207 0.929 . S
C217 C215 1.433 . S
C217 N220 1.384 . S
C218 H209 0.929 . S
C218 C210 1.378 . S
C218 C213 1.350 . S
C219 H206 0.929 . S
C219 C211 1.433 . S
C219 N221 1.384 . S
N220 C216 1.427 . S
N220 C217 1.384 . S
N221 C213 1.427 . S
N221 C219 1.384 . S
H222 C228 0.930 . S
H223 C232 0.930 . S
H224 C237 0.929 . S
H225 C235 0.929 . S
H226 C230 0.929 . S
H227 C236 0.929 . S
C228 H222 0.930 . S
C228 C229 1.367 . S
C228 C236 1.378 . S
C229 C228 1.367 . S
C229 C237 1.433 . S
C230 H226 0.929 . S
C230 C232 1.378 . S
C230 C234 1.350 . S
C231 C234 1.463 . S
C231 C236 1.350 . S
C231 N239 1.427 . S
C232 H223 0.930 . S
C232 C230 1.378 . S
C232 C233 1.367 . S
C233 C232 1.367 . S
C233 C235 1.433 . S
C234 C230 1.350 . S
C234 C231 1.463 . S
C234 N238 1.427 . S
C235 H225 0.929 . S
C235 C233 1.433 . S
C235 N238 1.384 . S
C236 H227 0.929 . S
C236 C228 1.378 . S
C236 C231 1.350 . S
C237 H224 0.929 . S
C237 C229 1.433 . S
C237 N239 1.384 . S
N238 C234 1.427 . S
N238 C235 1.384 . S
N239 C231 1.427 . S
N239 C237 1.384 . S
H240 C246 0.930 . S
H241 C250 0.930 . S
H242 C255 0.929 . S
H243 C253 0.929 . S
H244 C248 0.929 . S
H245 C254 0.929 . S
C246 H240 0.930 . S
C246 C247 1.367 . S
C246 C254 1.378 . S
C247 C246 1.367 . S
C247 C255 1.433 . S
C248 H244 0.929 . S
C248 C250 1.378 . S
C248 C252 1.350 . S
C249 C252 1.463 1_554 S
C249 C254 1.350 . S
C249 N257 1.427 . S
C250 H241 0.930 . S
C250 C248 1.378 . S
C250 C251 1.367 . S
C251 C250 1.367 . S
C251 C253 1.433 . S
C252 C248 1.350 . S
C252 C249 1.463 1_556 S
C252 N256 1.427 . S
C253 H243 0.929 . S
C253 C251 1.433 . S
C253 N256 1.384 . S
C254 H245 0.929 . S
C254 C246 1.378 . S
C254 C249 1.350 . S
C255 H242 0.929 . S
C255 C247 1.433 . S
C255 N257 1.384 . S
N256 C252 1.427 . S
N256 C253 1.384 . S
N257 C249 1.427 . S
N257 C255 1.384 . S
H258 C264 0.930 . S
H259 C268 0.930 . S
H260 C273 0.929 . S
H261 C271 0.929 . S
H262 C266 0.929 . S
H263 C272 0.929 . S
C264 H258 0.930 . S
C264 C265 1.367 . S
C264 C272 1.378 . S
C265 C264 1.367 . S
C265 C273 1.433 . S
C266 H262 0.929 . S
C266 C268 1.378 . S
C266 C270 1.350 . S
C267 C270 1.463 . S
C267 C272 1.350 . S
C267 N275 1.427 . S
C268 H259 0.930 . S
C268 C266 1.378 . S
C268 C269 1.367 . S
C269 C268 1.367 . S
C269 C271 1.433 . S
C270 C266 1.350 . S
C270 C267 1.463 . S
C270 N274 1.427 . S
C271 H261 0.929 . S
C271 C269 1.433 . S
C271 N274 1.384 . S
C272 H263 0.929 . S
C272 C264 1.378 . S
C272 C267 1.350 . S
C273 H260 0.929 . S
C273 C265 1.433 . S
C273 N275 1.384 . S
N274 C270 1.427 . S
N274 C271 1.384 . S
N275 C267 1.427 . S
N275 C273 1.384 . S
H276 C282 0.930 . S
H277 C286 0.930 . S
H278 C291 0.929 . S
H279 C289 0.929 . S
H280 C284 0.929 . S
H281 C290 0.929 . S
C282 H276 0.930 . S
C282 C283 1.367 . S
C282 C290 1.378 . S
C283 C282 1.367 . S
C283 C291 1.433 . S
C284 H280 0.929 . S
C284 C286 1.378 . S
C284 C288 1.350 . S
C285 C288 1.463 . S
C285 C290 1.350 . S
C285 N293 1.427 . S
C286 H277 0.930 . S
C286 C284 1.378 . S
C286 C287 1.367 . S
C287 C286 1.367 . S
C287 C289 1.433 . S
C288 C284 1.350 . S
C288 C285 1.463 . S
C288 N292 1.427 . S
C289 H279 0.929 . S
C289 C287 1.433 . S
C289 N292 1.384 . S
C290 H281 0.929 . S
C290 C282 1.378 . S
C290 C285 1.350 . S
C291 H278 0.929 . S
C291 C283 1.433 . S
C291 N293 1.384 . S
N292 C288 1.427 . S
N292 C289 1.384 . S
N293 C285 1.427 . S
N293 C291 1.384 . S
H294 C300 0.930 . S
H295 C304 0.930 . S
H296 C309 0.929 . S
H297 C307 0.929 . S
H298 C302 0.929 . S
H299 C308 0.929 . S
C300 H294 0.930 . S
C300 C301 1.367 . S
C300 C308 1.378 . S
C301 C300 1.367 . S
C301 C309 1.433 . S
C302 H298 0.929 . S
C302 C304 1.378 . S
C302 C306 1.350 . S
C303 C306 1.463 . S
C303 C308 1.350 . S
C303 N311 1.427 . S
C304 H295 0.930 . S
C304 C302 1.378 . S
C304 C305 1.367 . S
C305 C304 1.367 . S
C305 C307 1.433 . S
C306 C302 1.350 . S
C306 C303 1.463 . S
C306 N310 1.427 . S
C307 H297 0.929 . S
C307 C305 1.433 . S
C307 N310 1.384 . S
C308 H299 0.929 . S
C308 C300 1.378 . S
C308 C303 1.350 . S
C309 H296 0.929 . S
C309 C301 1.433 . S
C309 N311 1.384 . S
N310 C306 1.427 . S
N310 C307 1.384 . S
N311 C303 1.427 . S
N311 C309 1.384 . S
H312 C318 0.930 . S
H313 C322 0.930 . S
H314 C327 0.929 . S
H315 C325 0.929 . S
H316 C320 0.929 . S
H317 C326 0.929 . S
C318 H312 0.930 . S
C318 C319 1.367 . S
C318 C326 1.378 . S
C319 C318 1.367 . S
C319 C327 1.433 . S
C320 H316 0.929 . S
C320 C322 1.378 . S
C320 C324 1.350 . S
C321 C324 1.463 . S
C321 C326 1.350 . S
C321 N329 1.427 . S
C322 H313 0.930 . S
C322 C320 1.378 . S
C322 C323 1.367 . S
C323 C322 1.367 . S
C323 C325 1.433 . S
C324 C320 1.350 . S
C324 C321 1.463 . S
C324 N328 1.427 . S
C325 H315 0.929 . S
C325 C323 1.433 . S
C325 N328 1.384 . S
C326 H317 0.929 . S
C326 C318 1.378 . S
C326 C321 1.350 . S
C327 H314 0.929 . S
C327 C319 1.433 . S
C327 N329 1.384 . S
N328 C324 1.427 . S
N328 C325 1.384 . S
N329 C321 1.427 . S
N329 C327 1.384 . S
H330 C336 0.930 . S
H331 C340 0.930 . S
H332 C345 0.929 . S
H333 C343 0.929 . S
H334 C338 0.929 . S
H335 C344 0.929 . S
C336 H330 0.930 . S
C336 C337 1.367 . S
C336 C344 1.378 . S
C337 C336 1.367 . S
C337 C345 1.433 . S
C338 H334 0.929 . S
C338 C340 1.378 . S
C338 C342 1.350 . S
C339 C342 1.463 . S
C339 C344 1.350 . S
C339 N347 1.427 . S
C340 H331 0.930 . S
C340 C338 1.378 . S
C340 C341 1.367 . S
C341 C340 1.367 . S
C341 C343 1.433 . S
C342 C338 1.350 . S
C342 C339 1.463 . S
C342 N346 1.427 . S
C343 H333 0.929 . S
C343 C341 1.433 . S
C343 N346 1.384 . S
C344 H335 0.929 . S
C344 C336 1.378 . S
C344 C339 1.350 . S
C345 H332 0.929 . S
C345 C337 1.433 . S
C345 N347 1.384 . S
N346 C342 1.427 . S
N346 C343 1.384 . S
N347 C339 1.427 . S
N347 C345 1.384 . S
H348 C354 0.930 . S
H349 C358 0.930 . S
H350 C363 0.929 . S
H351 C361 0.929 . S
H352 C356 0.929 . S
H353 C362 0.929 . S
C354 H348 0.930 . S
C354 C355 1.367 . S
C354 C362 1.378 . S
C355 C354 1.367 . S
C355 C363 1.433 . S
C356 H352 0.929 . S
C356 C358 1.378 . S
C356 C360 1.350 . S
C357 C360 1.463 . S
C357 C362 1.350 . S
C357 N365 1.427 . S
C358 H349 0.930 . S
C358 C356 1.378 . S
C358 C359 1.367 . S
C359 C358 1.367 . S
C359 C361 1.433 . S
C360 C356 1.350 . S
C360 C357 1.463 . S
C360 N364 1.427 . S
C361 H351 0.929 . S
C361 C359 1.433 . S
C361 N364 1.384 . S
C362 H353 0.929 . S
C362 C354 1.378 . S
C362 C357 1.350 . S
C363 H350 0.929 . S
C363 C355 1.433 . S
C363 N365 1.384 . S
N364 C360 1.427 . S
N364 C361 1.384 . S
N365 C357 1.427 . S
N365 C363 1.384 . S
H366 C372 0.930 . S
H367 C376 0.930 . S
H368 C381 0.929 . S
H369 C379 0.929 . S
H370 C374 0.929 . S
H371 C380 0.929 . S
C372 H366 0.930 . S
C372 C373 1.367 . S
C372 C380 1.378 . S
C373 C372 1.367 . S
C373 C381 1.433 1_556 S
C374 H370 0.929 . S
C374 C376 1.378 . S
C374 C378 1.350 . S
C375 C378 1.463 1_556 S
C375 C380 1.350 . S
C375 N383 1.427 1_556 S
C376 H367 0.930 . S
C376 C374 1.378 . S
C376 C377 1.367 . S
C377 C376 1.367 . S
C377 C379 1.433 1_554 S
C378 C374 1.350 . S
C378 C375 1.463 1_554 S
C378 N382 1.427 1_554 S
C379 H369 0.929 . S
C379 C377 1.433 1_556 S
C379 N382 1.384 . S
C380 H371 0.929 . S
C380 C372 1.378 . S
C380 C375 1.350 . S
C381 H368 0.929 . S
C381 C373 1.433 1_554 S
C381 N383 1.384 . S
N382 C378 1.427 1_556 S
N382 C379 1.384 . S
N383 C375 1.427 1_554 S
N383 C381 1.384 . S
H384 C390 0.930 . S
H385 C394 0.930 . S
H386 C399 0.929 . S
H387 C397 0.929 . S
H388 C392 0.929 . S
H389 C398 0.929 . S
C390 H384 0.930 . S
C390 C391 1.367 . S
C390 C398 1.378 . S
C391 C390 1.367 . S
C391 C399 1.433 . S
C392 H388 0.929 . S
C392 C394 1.378 . S
C392 C396 1.350 . S
C393 C396 1.463 . S
C393 C398 1.350 . S
C393 N401 1.427 . S
C394 H385 0.930 . S
C394 C392 1.378 . S
C394 C395 1.367 . S
C395 C394 1.367 . S
C395 C397 1.433 . S
C396 C392 1.350 . S
C396 C393 1.463 . S
C396 N400 1.427 . S
C397 H387 0.929 . S
C397 C395 1.433 . S
C397 N400 1.384 . S
C398 H389 0.929 . S
C398 C390 1.378 . S
C398 C393 1.350 . S
C399 H386 0.929 . S
C399 C391 1.433 . S
C399 N401 1.384 . S
N400 C396 1.427 . S
N400 C397 1.384 . S
N401 C393 1.427 . S
N401 C399 1.384 . S
H402 C408 0.930 . S
H403 C412 0.930 . S
H404 C417 0.929 . S
H405 C415 0.929 . S
H406 C410 0.929 . S
H407 C416 0.929 . S
C408 H402 0.930 . S
C408 C409 1.367 . S
C408 C416 1.378 . S
C409 C408 1.367 . S
C409 C417 1.433 . S
C410 H406 0.929 . S
C410 C412 1.378 . S
C410 C414 1.350 . S
C411 C414 1.463 1_556 S
C411 C416 1.350 . S
C411 N419 1.427 . S
C412 H403 0.930 . S
C412 C410 1.378 . S
C412 C413 1.367 . S
C413 C412 1.367 . S
C413 C415 1.433 . S
C414 C410 1.350 . S
C414 C411 1.463 1_554 S
C414 N418 1.427 . S
C415 H405 0.929 . S
C415 C413 1.433 . S
C415 N418 1.384 . S
C416 H407 0.929 . S
C416 C408 1.378 . S
C416 C411 1.350 . S
C417 H404 0.929 . S
C417 C409 1.433 . S
C417 N419 1.384 . S
N418 C414 1.427 . S
N418 C415 1.384 . S
N419 C411 1.427 . S
N419 C417 1.384 . S
H420 C426 0.930 . S
H421 C430 0.930 . S
H422 C435 0.929 . S
H423 C433 0.929 . S
H424 C428 0.929 . S
H425 C434 0.929 . S
C426 H420 0.930 . S
C426 C427 1.367 . S
C426 C434 1.378 . S
C427 C426 1.367 . S
C427 C435 1.433 . S
C428 H424 0.929 . S
C428 C430 1.378 . S
C428 C432 1.350 . S
C429 C432 1.463 . S
C429 C434 1.350 . S
C429 N437 1.427 . S
C430 H421 0.930 . S
C430 C428 1.378 . S
C430 C431 1.367 . S
C431 C430 1.367 . S
C431 C433 1.433 . S
C432 C428 1.350 . S
C432 C429 1.463 . S
C432 N436 1.427 . S
C433 H423 0.929 . S
C433 C431 1.433 . S
C433 N436 1.384 . S
C434 H425 0.929 . S
C434 C426 1.378 . S
C434 C429 1.350 . S
C435 H422 0.929 . S
C435 C427 1.433 . S
C435 N437 1.384 . S
N436 C432 1.427 . S
N436 C433 1.384 . S
N437 C429 1.427 . S
N437 C435 1.384 . S
H438 C444 0.930 . S
H439 C448 0.930 . S
H440 C453 0.929 . S
H441 C451 0.929 . S
H442 C446 0.929 . S
H443 C452 0.929 . S
C444 H438 0.930 . S
C444 C445 1.367 . S
C444 C452 1.378 . S
C445 C444 1.367 . S
C445 C453 1.433 . S
C446 H442 0.929 . S
C446 C448 1.378 . S
C446 C450 1.350 . S
C447 C450 1.463 . S
C447 C452 1.350 . S
C447 N455 1.427 . S
C448 H439 0.930 . S
C448 C446 1.378 . S
C448 C449 1.367 . S
C449 C448 1.367 . S
C449 C451 1.433 . S
C450 C446 1.350 . S
C450 C447 1.463 . S
C450 N454 1.427 . S
C451 H441 0.929 . S
C451 C449 1.433 . S
C451 N454 1.384 . S
C452 H443 0.929 . S
C452 C444 1.378 . S
C452 C447 1.350 . S
C453 H440 0.929 . S
C453 C445 1.433 . S
C453 N455 1.384 . S
N454 C450 1.427 . S
N454 C451 1.384 . S
N455 C447 1.427 . S
N455 C453 1.384 . S
H456 C462 0.930 . S
H457 C466 0.930 . S
H458 C471 0.929 . S
H459 C469 0.929 . S
H460 C464 0.929 . S
H461 C470 0.929 . S
C462 H456 0.930 . S
C462 C463 1.367 . S
C462 C470 1.378 . S
C463 C462 1.367 . S
C463 C471 1.433 . S
C464 H460 0.929 . S
C464 C466 1.378 . S
C464 C468 1.350 . S
C465 C468 1.463 . S
C465 C470 1.350 . S
C465 N473 1.427 . S
C466 H457 0.930 . S
C466 C464 1.378 . S
C466 C467 1.367 . S
C467 C466 1.367 . S
C467 C469 1.433 . S
C468 C464 1.350 . S
C468 C465 1.463 . S
C468 N472 1.427 . S
C469 H459 0.929 . S
C469 C467 1.433 . S
C469 N472 1.384 . S
C470 H461 0.929 . S
C470 C462 1.378 . S
C470 C465 1.350 . S
C471 H458 0.929 . S
C471 C463 1.433 . S
C471 N473 1.384 . S
N472 C468 1.427 . S
N472 C469 1.384 . S
N473 C465 1.427 . S
N473 C471 1.384 . S
H474 C480 0.930 . S
H475 C484 0.930 . S
H476 C489 0.929 . S
H477 C487 0.929 . S
H478 C482 0.929 . S
H479 C488 0.929 . S
C480 H474 0.930 . S
C480 C481 1.367 . S
C480 C488 1.378 . S
C481 C480 1.367 . S
C481 C489 1.433 . S
C482 H478 0.929 . S
C482 C484 1.378 . S
C482 C486 1.350 . S
C483 C486 1.463 . S
C483 C488 1.350 . S
C483 N491 1.427 . S
C484 H475 0.930 . S
C484 C482 1.378 . S
C484 C485 1.367 . S
C485 C484 1.367 . S
C485 C487 1.433 . S
C486 C482 1.350 . S
C486 C483 1.463 . S
C486 N490 1.427 . S
C487 H477 0.929 . S
C487 C485 1.433 . S
C487 N490 1.384 . S
C488 H479 0.929 . S
C488 C480 1.378 . S
C488 C483 1.350 . S
C489 H476 0.929 . S
C489 C481 1.433 . S
C489 N491 1.384 . S
N490 C486 1.427 . S
N490 C487 1.384 . S
N491 C483 1.427 . S
N491 C489 1.384 . S
H492 C498 0.930 . S
H493 C502 0.930 1_556 S
H494 C507 0.929 . S
H495 C505 0.929 . S
H496 C500 0.929 1_556 S
H497 C506 0.929 . S
C498 H492 0.930 . S
C498 C499 1.367 . S
C498 C506 1.378 . S
C499 C498 1.367 . S
C499 C507 1.433 . S
C500 H496 0.929 1_554 S
C500 C502 1.378 . S
C500 C504 1.350 . S
C501 C504 1.463 1_545 S
C501 C506 1.350 . S
C501 N509 1.427 . S
C502 H493 0.930 1_554 S
C502 C500 1.378 . S
C502 C503 1.367 . S
C503 C502 1.367 . S
C503 C505 1.433 . S
C504 C500 1.350 . S
C504 C501 1.463 1_565 S
C504 N508 1.427 . S
C505 H495 0.929 . S
C505 C503 1.433 . S
C505 N508 1.384 . S
C506 H497 0.929 . S
C506 C498 1.378 . S
C506 C501 1.350 . S
C507 H494 0.929 . S
C507 C499 1.433 . S
C507 N509 1.384 . S
N508 C504 1.427 . S
N508 C505 1.384 . S
N509 C501 1.427 . S
N509 C507 1.384 . S
H510 C516 0.930 . S
H511 C520 0.930 . S
H512 C525 0.929 . S
H513 C523 0.929 . S
H514 C518 0.929 . S
H515 C524 0.929 . S
C516 H510 0.930 . S
C516 C517 1.367 . S
C516 C524 1.378 . S
C517 C516 1.367 . S
C517 C525 1.433 . S
C518 H514 0.929 . S
C518 C520 1.378 . S
C518 C522 1.350 . S
C519 C522 1.463 . S
C519 C524 1.350 . S
C519 N527 1.427 . S
C520 H511 0.930 . S
C520 C518 1.378 . S
C520 C521 1.367 . S
C521 C520 1.367 . S
C521 C523 1.433 . S
C522 C518 1.350 . S
C522 C519 1.463 . S
C522 N526 1.427 . S
C523 H513 0.929 . S
C523 C521 1.433 . S
C523 N526 1.384 . S
C524 H515 0.929 . S
C524 C516 1.378 . S
C524 C519 1.350 . S
C525 H512 0.929 . S
C525 C517 1.433 . S
C525 N527 1.384 . S
N526 C522 1.427 . S
N526 C523 1.384 . S
N527 C519 1.427 . S
N527 C525 1.384 . S
H528 C534 0.930 . S
H529 C538 0.930 . S
H530 C543 0.929 . S
H531 C541 0.929 . S
H532 C536 0.929 . S
H533 C542 0.929 . S
C534 H528 0.930 . S
C534 C535 1.367 . S
C534 C542 1.378 . S
C535 C534 1.367 . S
C535 C543 1.433 . S
C536 H532 0.929 . S
C536 C538 1.378 . S
C536 C540 1.350 . S
C537 C540 1.463 1_455 S
C537 C542 1.350 . S
C537 N545 1.427 . S
C538 H529 0.930 . S
C538 C536 1.378 . S
C538 C539 1.367 . S
C539 C538 1.367 . S
C539 C541 1.433 . S
C540 C536 1.350 . S
C540 C537 1.463 1_655 S
C540 N544 1.427 . S
C541 H531 0.929 . S
C541 C539 1.433 . S
C541 N544 1.384 . S
C542 H533 0.929 . S
C542 C534 1.378 . S
C542 C537 1.350 . S
C543 H530 0.929 . S
C543 C535 1.433 . S
C543 N545 1.384 . S
N544 C540 1.427 . S
N544 C541 1.384 . S
N545 C537 1.427 . S
N545 C543 1.384 . S
H546 C552 0.930 . S
H547 C556 0.930 . S
H548 C561 0.929 . S
H549 C559 0.929 . S
H550 C554 0.929 . S
H551 C560 0.929 . S
C552 H546 0.930 . S
C552 C553 1.367 . S
C552 C560 1.378 . S
C553 C552 1.367 . S
C553 C561 1.433 . S
C554 H550 0.929 . S
C554 C556 1.378 . S
C554 C558 1.350 . S
C555 C558 1.463 1_565 S
C555 C560 1.350 . S
C555 N563 1.427 . S
C556 H547 0.930 . S
C556 C554 1.378 . S
C556 C557 1.367 . S
C557 C556 1.367 . S
C557 C559 1.433 . S
C558 C554 1.350 . S
C558 C555 1.463 1_545 S
C558 N562 1.427 . S
C559 H549 0.929 . S
C559 C557 1.433 . S
C559 N562 1.384 . S
C560 H551 0.929 . S
C560 C552 1.378 . S
C560 C555 1.350 . S
C561 H548 0.929 . S
C561 C553 1.433 . S
C561 N563 1.384 . S
N562 C558 1.427 . S
N562 C559 1.384 . S
N563 C555 1.427 . S
N563 C561 1.384 . S
H564 C570 0.930 . S
H565 C574 0.930 . S
H566 C579 0.929 . S
H567 C577 0.929 . S
H568 C572 0.929 . S
H569 C578 0.929 . S
C570 H564 0.930 . S
C570 C571 1.367 . S
C570 C578 1.378 . S
C571 C570 1.367 . S
C571 C579 1.433 . S
C572 H568 0.929 . S
C572 C574 1.378 . S
C572 C576 1.350 . S
C573 C576 1.463 . S
C573 C578 1.350 . S
C573 N581 1.427 . S
C574 H565 0.930 . S
C574 C572 1.378 . S
C574 C575 1.367 . S
C575 C574 1.367 . S
C575 C577 1.433 . S
C576 C572 1.350 . S
C576 C573 1.463 . S
C576 N580 1.427 . S
C577 H567 0.929 . S
C577 C575 1.433 . S
C577 N580 1.384 . S
C578 H569 0.929 . S
C578 C570 1.378 . S
C578 C573 1.350 . S
C579 H566 0.929 . S
C579 C571 1.433 . S
C579 N581 1.384 . S
N580 C576 1.427 . S
N580 C577 1.384 . S
N581 C573 1.427 . S
N581 C579 1.384 . S
H582 C588 0.930 . S
H583 C592 0.930 . S
H584 C597 0.929 . S
H585 C595 0.929 . S
H586 C590 0.929 . S
H587 C596 0.929 . S
C588 H582 0.930 . S
C588 C589 1.367 . S
C588 C596 1.378 . S
C589 C588 1.367 . S
C589 C597 1.433 . S
C590 H586 0.929 . S
C590 C592 1.378 . S
C590 C594 1.350 . S
C591 C594 1.463 1_455 S
C591 C596 1.350 . S
C591 N599 1.427 . S
C592 H583 0.930 . S
C592 C590 1.378 . S
C592 C593 1.367 . S
C593 C592 1.367 . S
C593 C595 1.433 . S
C594 C590 1.350 . S
C594 C591 1.463 1_655 S
C594 N598 1.427 . S
C595 H585 0.929 . S
C595 C593 1.433 . S
C595 N598 1.384 . S
C596 H587 0.929 . S
C596 C588 1.378 . S
C596 C591 1.350 . S
C597 H584 0.929 . S
C597 C589 1.433 . S
C597 N599 1.384 . S
N598 C594 1.427 . S
N598 C595 1.384 . S
N599 C591 1.427 . S
N599 C597 1.384 . S
C175 C4 1.595 . S
C179 C144 1.604 . S
C193 C18 1.598 . S
C197 C158 1.597 . S
C211 C88 1.607 . S
C215 C32 1.597 . S
C229 C46 1.596 . S
C233 C102 1.600 . S
C247 C116 1.599 . S
C251 C60 1.596 . S
C265 C130 1.596 . S
C269 C74 1.606 1_554 S
C283 C117 1.076 . S
C287 C5 1.061 . S
C301 C19 1.079 . S
C305 C131 1.063 . S
C319 C145 1.057 . S
C323 C33 1.068 . S
C337 C47 1.088 . S
C341 C159 1.079 . S
C355 C61 1.074 . S
C359 C89 1.059 . S
C373 C75 1.061 . S
C377 C103 1.058 . S
C391 C151 1.371 . S
C395 C11 1.358 . S
C409 C165 1.372 . S
C413 C25 1.361 . S
C427 C95 1.376 . S
C431 C39 1.359 . S
C445 C53 1.371 . S
C449 C109 1.358 . S
C463 C67 1.363 . S
C467 C123 1.358 . S
C481 C137 1.371 . S
C485 C81 1.367 . S
C499 C12 1.116 . S
C503 C110 1.117 . S
C517 C124 1.113 . S
C521 C26 1.113 . S
C535 C138 1.115 . S
C539 C40 1.118 . S
C553 C54 1.121 . S
C557 C152 1.110 . S
C571 C68 1.115 . S
C575 C166 1.117 . S
C589 C82 1.119 . S
C593 C96 1.113 . S
