# Generated by pormake.
# Topology yfz, (5)-cn, num edge types: 1
# Building blocks:
#     Node 0, Type 0, BuildingBlock: XOMCOT_clean_sbu_0, # of connection points: 5
#     Node 1, Type 0, BuildingBlock: XOMCOT_clean_sbu_0, # of connection points: 5
#     Node 2, Type 0, BuildingBlock: XOMCOT_clean_sbu_0, # of connection points: 5
#     Node 3, Type 0, BuildingBlock: XOMCOT_clean_sbu_0, # of connection points: 5
#     Node 4, Type 0, BuildingBlock: XOMCOT_clean_sbu_0, # of connection points: 5
#     Node 5, Type 0, BuildingBlock: XOMCOT_clean_sbu_0, # of connection points: 5
#     Node 6, Type 0, BuildingBlock: XOMCOT_clean_sbu_0, # of connection points: 5
#     Node 7, Type 0, BuildingBlock: XOMCOT_clean_sbu_0, # of connection points: 5
#     Edge 8, Type (0, 0), BuildingBlock: OJICUG_clean_linker_0, # of connection points: 2
#     Edge 9, Type (0, 0), BuildingBlock: OJICUG_clean_linker_0, # of connection points: 2
#     Edge 10, Type (0, 0), BuildingBlock: OJICUG_clean_linker_0, # of connection points: 2
#     Edge 11, Type (0, 0), BuildingBlock: OJICUG_clean_linker_0, # of connection points: 2
#     Edge 12, Type (0, 0), BuildingBlock: OJICUG_clean_linker_0, # of connection points: 2
#     Edge 13, Type (0, 0), BuildingBlock: OJICUG_clean_linker_0, # of connection points: 2
#     Edge 14, Type (0, 0), BuildingBlock: OJICUG_clean_linker_0, # of connection points: 2
#     Edge 15, Type (0, 0), BuildingBlock: OJICUG_clean_linker_0, # of connection points: 2
#     Edge 16, Type (0, 0), BuildingBlock: OJICUG_clean_linker_0, # of connection points: 2
#     Edge 17, Type (0, 0), BuildingBlock: OJICUG_clean_linker_0, # of connection points: 2
#     Edge 18, Type (0, 0), BuildingBlock: OJICUG_clean_linker_0, # of connection points: 2
#     Edge 19, Type (0, 0), BuildingBlock: OJICUG_clean_linker_0, # of connection points: 2
#     Edge 20, Type (0, 0), BuildingBlock: OJICUG_clean_linker_0, # of connection points: 2
#     Edge 21, Type (0, 0), BuildingBlock: OJICUG_clean_linker_0, # of connection points: 2
#     Edge 22, Type (0, 0), BuildingBlock: OJICUG_clean_linker_0, # of connection points: 2
#     Edge 23, Type (0, 0), BuildingBlock: OJICUG_clean_linker_0, # of connection points: 2
#     Edge 24, Type (0, 0), BuildingBlock: OJICUG_clean_linker_0, # of connection points: 2
#     Edge 25, Type (0, 0), BuildingBlock: OJICUG_clean_linker_0, # of connection points: 2
#     Edge 26, Type (0, 0), BuildingBlock: OJICUG_clean_linker_0, # of connection points: 2
#     Edge 27, Type (0, 0), BuildingBlock: OJICUG_clean_linker_0, # of connection points: 2
# Relax obj value: 0.171
# Max RMSD: 0.156
# Mean RMSD: 0.156
data_MOF--net-yfz--node1-XOMCOT_clean_sbu_0--edge1-OJICUG_clean_linker_0
_symmetry_space_group_name_H-M    P1
_symmetry_Int_Tables_number       1
_symmetry_cell_setting            triclinic
loop_
_symmetry_equiv_pos_as_xyz
'x, y, z'
_cell_length_a     38.247726
_cell_length_b     38.254354
_cell_length_c     13.530304
_cell_angle_alpha  89.998303
_cell_angle_beta   90.029839
_cell_angle_gamma 90.031677
loop_
_atom_site_label
_atom_site_type_symbol
_atom_site_fract_x
_atom_site_fract_y
_atom_site_fract_z
_atom_type_partial_charge
Co0 Co 0.55485 0.108 0.3124 0.0
C1 C 0.54644 0.114 0.09486 0.0
C2 C 0.51724 0.07052 0.14972 0.0
C3 C 0.51405 0.07144 0.04842 0.0
N4 N 0.53854 0.09665 0.17907 0.0
N5 N 0.53281 0.09866 0.01358 0.0
H6 H 0.56294 0.13686 0.09292 0.0
H7 H 0.5046 0.05177 0.19706 0.0
C8 C 0.52768 0.03659 0.37252 0.0
O9 O 0.55081 0.02129 0.31536 0.0
N10 N 0.56953 0.12012 0.44458 0.0
C11 C 0.60045 0.13333 0.47405 0.0
C12 C 0.60022 0.1358 0.57571 0.0
C13 C 0.55069 0.1156 0.5276 0.0
N14 N 0.56891 0.12444 0.60933 0.0
C15 C 0.61503 0.08038 0.21292 0.0
C16 C 0.64381 0.04624 0.37305 0.0
C17 C 0.66392 0.05038 0.28712 0.0
C18 C 0.64855 0.0664 0.20529 0.0
C19 C 0.6097 0.05969 0.37662 0.0
N20 N 0.5959 0.07753 0.2979 0.0
H21 H 0.60613 0.09609 0.15243 0.0
H22 H 0.59522 0.05753 0.44493 0.0
H23 H 0.62202 0.1395 0.42539 0.0
H24 H 0.5242 0.10577 0.52785 0.0
O25 O 0.57676 0.14979 0.26518 0.0
O26 O 0.52181 0.14693 0.31638 0.0
O27 O 0.52448 0.06988 0.37226 0.0
C28 C 0.54761 0.16596 0.28299 0.0
H29 H 0.49972 0.05271 1.00433 0.0
H30 H 0.622 0.14406 0.62109 0.0
H31 H 0.65494 0.03426 0.4384 0.0
H32 H 0.66351 0.07107 0.13858 0.0
Co33 Co 0.37256 0.55486 0.81123 0.0
C34 C 0.36422 0.54241 0.59501 0.0
C35 C 0.4123 0.52068 0.64779 0.0
C36 C 0.41115 0.51709 0.54666 0.0
N37 N 0.38323 0.53743 0.67845 0.0
N38 N 0.38111 0.53127 0.51308 0.0
H39 H 0.33957 0.55609 0.59337 0.0
H40 H 0.43379 0.51264 0.69378 0.0
C41 C 0.44398 0.5301 0.87849 0.0
O42 O 0.45883 0.55586 0.8301 0.0
N43 N 0.36076 0.56978 0.944 0.0
C44 C 0.3449 0.59942 0.97358 0.0
C45 C 0.34205 0.59875 0.07528 0.0
C46 C 0.36624 0.55115 0.02712 0.0
N47 N 0.35564 0.56835 0.10898 0.0
C48 C 0.40579 0.6105 0.70005 0.0
C49 C 0.42801 0.64937 0.85947 0.0
C50 C 0.42812 0.66506 0.76531 0.0
C51 C 0.41925 0.64385 0.68481 0.0
C52 C 0.4162 0.61478 0.87103 0.0
N53 N 0.40308 0.59623 0.79252 0.0
H54 H 0.39578 0.59766 0.63591 0.0
H55 H 0.41621 0.60372 0.94443 0.0
H56 H 0.33678 0.62035 0.92498 0.0
H57 H 0.37751 0.52528 0.02724 0.0
O58 O 0.33067 0.57656 0.76416 0.0
O59 O 0.33353 0.52192 0.81811 0.0
O60 O 0.41106 0.52473 0.87071 0.0
C61 C 0.31444 0.54759 0.78423 0.0
H62 H 0.43198 0.5067 0.50133 0.0
H63 H 0.33156 0.61955 0.12051 0.0
H64 H 0.43512 0.66399 0.92488 0.0
H65 H 0.42063 0.65343 0.60968 0.0
Co66 Co 0.92541 0.3721 0.31381 0.0
C67 C 0.93319 0.36633 0.09611 0.0
C68 C 0.96482 0.40793 0.15179 0.0
C69 C 0.96818 0.40687 0.05054 0.0
N70 N 0.94186 0.38318 0.18052 0.0
N71 N 0.94789 0.38083 0.0151 0.0
H72 H 0.91558 0.34432 0.09404 0.0
H73 H 0.97872 0.42562 0.19966 0.0
C74 C 0.95304 0.4436 0.37031 0.0
O75 O 0.93048 0.45844 0.31032 0.0
N76 N 0.91064 0.3602 0.44595 0.0
C77 C 0.87965 0.34717 0.47545 0.0
C78 C 0.87993 0.34467 0.57712 0.0
C79 C 0.92954 0.36463 0.52893 0.0
N80 N 0.91131 0.35586 0.61063 0.0
C81 C 0.86495 0.39939 0.2145 0.0
C82 C 0.83682 0.43447 0.37378 0.0
C83 C 0.81641 0.42995 0.28849 0.0
C84 C 0.83147 0.41345 0.20703 0.0
C85 C 0.87094 0.42097 0.37707 0.0
N86 N 0.88441 0.40263 0.29883 0.0
H87 H 0.87353 0.38329 0.15457 0.0
H88 H 0.88566 0.4234 0.44495 0.0
H89 H 0.85803 0.34109 0.4268 0.0
H90 H 0.95609 0.37431 0.52924 0.0
O91 O 0.90349 0.33026 0.26683 0.0
O92 O 0.95841 0.33312 0.31838 0.0
O93 O 0.95575 0.4103 0.37347 0.0
C94 C 0.93264 0.31409 0.28481 0.0
H95 H 0.98398 0.42455 1.00708 0.0
H96 H 0.85817 0.33649 0.62264 0.0
H97 H 0.82591 0.44679 0.43891 0.0
H98 H 0.81627 0.40847 0.14088 0.0
Co99 Co 0.10843 0.92515 0.81585 0.0
C100 C 0.11443 0.93298 0.59819 0.0
C101 C 0.07311 0.96495 0.6537 0.0
C102 C 0.07424 0.96833 0.55247 0.0
N103 N 0.09761 0.94174 0.68252 0.0
N104 N 0.10009 0.94782 0.51714 0.0
H105 H 0.1363 0.91523 0.59622 0.0
H106 H 0.05555 0.97901 0.70152 0.0
C107 C 0.03694 0.95292 0.8711 0.0
O108 O 0.02214 0.93054 0.81047 0.0
N109 N 0.12009 0.91023 0.94806 0.0
C110 C 0.13286 0.87916 0.97762 0.0
C111 C 0.13537 0.87942 0.07929 0.0
C112 C 0.11582 0.92917 0.03099 0.0
N113 N 0.12447 0.9109 0.11275 0.0
C114 C 0.08114 0.86481 0.716 0.0
C115 C 0.04545 0.83681 0.87442 0.0
C116 C 0.05006 0.81642 0.78917 0.0
C117 C 0.06689 0.83142 0.70814 0.0
C118 C 0.05916 0.87085 0.87808 0.0
N119 N 0.07777 0.88425 0.80026 0.0
H120 H 0.09749 0.87331 0.6565 0.0
H121 H 0.05666 0.88555 0.94594 0.0
H122 H 0.13878 0.85751 0.929 0.0
H123 H 0.10639 0.95579 0.03118 0.0
O124 O 0.15027 0.90319 0.76934 0.0
O125 O 0.14746 0.95808 0.82116 0.0
O126 O 0.07025 0.95547 0.87513 0.0
C127 C 0.16647 0.9323 0.78778 0.0
H128 H 0.05673 0.98429 0.50895 0.0
H129 H 0.1434 0.85762 0.12483 0.0
H130 H 0.03289 0.82594 0.93924 0.0
H131 H 0.07198 0.81623 0.64209 0.0
Co132 Co 0.55474 0.37445 0.20905 0.0
C133 C 0.54206 0.36609 0.42516 0.0
C134 C 0.52115 0.41455 0.37254 0.0
C135 C 0.51753 0.41342 0.47365 0.0
N136 N 0.53736 0.38519 0.34179 0.0
N137 N 0.53118 0.38313 0.50712 0.0
H138 H 0.55537 0.34123 0.42674 0.0
H139 H 0.51365 0.43626 0.32663 0.0
C140 C 0.52993 0.44571 0.14027 0.0
O141 O 0.55615 0.4607 0.18632 0.0
N142 N 0.56957 0.36261 0.0762 0.0
C143 C 0.59907 0.34648 0.04661 0.0
C144 C 0.59834 0.34358 0.94493 0.0
C145 C 0.55095 0.36818 0.99309 0.0
N146 N 0.56804 0.35739 0.91123 0.0
C147 C 0.61038 0.40773 0.32042 0.0
C148 C 0.64975 0.42899 0.16104 0.0
C149 C 0.66536 0.42911 0.25534 0.0
C150 C 0.64392 0.42076 0.33576 0.0
C151 C 0.61501 0.41762 0.14932 0.0
N152 N 0.5962 0.40491 0.22782 0.0
H153 H 0.59733 0.39808 0.38466 0.0
H154 H 0.60404 0.4176 0.07578 0.0
H155 H 0.61994 0.33819 0.0952 0.0
H156 H 0.52515 0.37962 0.99294 0.0
O157 O 0.57641 0.33257 0.25606 0.0
O158 O 0.52173 0.33551 0.20215 0.0
O159 O 0.52449 0.41286 0.14975 0.0
C160 C 0.54742 0.31639 0.23584 0.0
H161 H 0.50754 0.43443 0.51908 0.0
H162 H 0.61903 0.33288 0.89969 0.0
H163 H 0.66452 0.43573 0.09562 0.0
H164 H 0.65342 0.4222 0.41097 0.0
Co165 Co 0.10588 0.55506 0.70842 0.0
C166 C 0.114 0.54215 0.92453 0.0
C167 C 0.06506 0.52236 0.87167 0.0
C168 C 0.06601 0.51881 0.97284 0.0
N169 N 0.09487 0.53776 0.84104 0.0
N170 N 0.09661 0.53177 1.00645 0.0
H171 H 0.13915 0.55492 0.92625 0.0
H172 H 0.04312 0.51559 0.82559 0.0
C173 C 0.03485 0.53036 0.63637 0.0
O174 O 0.01963 0.55706 0.67933 0.0
N175 N 0.11794 0.56979 0.57556 0.0
C176 C 0.13431 0.59916 0.54592 0.0
C177 C 0.13712 0.59846 0.44421 0.0
C178 C 0.11214 0.55125 0.4924 0.0
N179 N 0.123 0.56829 0.41052 0.0
C180 C 0.07217 0.6105 0.81938 0.0
C181 C 0.05162 0.65022 0.65992 0.0
C182 C 0.05096 0.66556 0.75451 0.0
C183 C 0.05899 0.64395 0.83483 0.0
C184 C 0.06312 0.61555 0.64798 0.0
N185 N 0.07542 0.59653 0.72665 0.0
H186 H 0.08157 0.59737 0.88379 0.0
H187 H 0.06347 0.6048 0.57424 0.0
H188 H 0.14279 0.61996 0.59449 0.0
H189 H 0.10046 0.52555 0.49218 0.0
O190 O 0.14773 0.57676 0.75597 0.0
O191 O 0.14485 0.52208 0.70234 0.0
O192 O 0.06754 0.52469 0.64892 0.0
C193 C 0.16394 0.54777 0.73628 0.0
H194 H 0.04468 0.50948 0.01824 0.0
H195 H 0.14793 0.61909 0.39892 0.0
H196 H 0.04517 0.66513 0.59452 0.0
H197 H 0.05718 0.65326 0.91015 0.0
Co198 Co 0.92555 0.1057 0.2081 0.0
C199 C 0.93847 0.11381 0.42423 0.0
C200 C 0.95807 0.06481 0.37153 0.0
C201 C 0.96164 0.06577 0.47268 0.0
N202 N 0.94278 0.09466 0.34079 0.0
N203 N 0.94881 0.09641 0.5062 0.0
H204 H 0.92581 0.139 0.42585 0.0
H205 H 0.96476 0.04285 0.32553 0.0
C206 C 0.95014 0.03469 0.13636 0.0
O207 O 0.92342 0.01948 0.17929 0.0
N208 N 0.91089 0.11778 0.07517 0.0
C209 C 0.88155 0.13418 0.04545 0.0
C210 C 0.88228 0.13702 0.94374 0.0
C211 C 0.92944 0.11199 0.99209 0.0
N212 N 0.91244 0.12289 0.91016 0.0
C213 C 0.86993 0.07219 0.3187 0.0
C214 C 0.83034 0.0516 0.15891 0.0
C215 C 0.81488 0.05114 0.2533 0.0
C216 C 0.8364 0.05916 0.33385 0.0
C217 C 0.86508 0.06297 0.1473 0.0
N218 N 0.88404 0.07529 0.2261 0.0
H219 H 0.88302 0.08166 0.38314 0.0
H220 H 0.87593 0.06323 0.07369 0.0
H221 H 0.86074 0.14266 0.09395 0.0
H222 H 0.95513 0.10029 0.99194 0.0
O223 O 0.90386 0.14751 0.25549 0.0
O224 O 0.95859 0.14465 0.20212 0.0
O225 O 0.95587 0.06737 0.1488 0.0
C226 C 0.93287 0.16372 0.23578 0.0
H227 H 0.9709 0.04443 0.51813 0.0
H228 H 0.86167 0.14785 0.89838 0.0
H229 H 0.81547 0.04513 0.09342 0.0
H230 H 0.82694 0.0575 0.40905 0.0
Co231 Co 0.37468 0.92542 0.7075 0.0
C232 C 0.36849 0.93427 0.9249 0.0
C233 C 0.41314 0.96182 0.87054 0.0
C234 C 0.41223 0.965 0.97184 0.0
N235 N 0.38619 0.94162 0.84084 0.0
N236 N 0.38427 0.94728 1.00632 0.0
H237 H 0.34512 0.91849 0.92679 0.0
H238 H 0.43256 0.97354 0.82352 0.0
C239 C 0.44585 0.95271 0.64473 0.0
O240 O 0.46156 0.92907 0.69929 0.0
N241 N 0.36239 0.91085 0.57527 0.0
C242 C 0.34898 0.88002 0.54583 0.0
C243 C 0.34646 0.88028 0.44417 0.0
C244 C 0.36696 0.92968 0.49221 0.0
N245 N 0.35797 0.91152 0.41048 0.0
C246 C 0.40273 0.86548 0.80715 0.0
C247 C 0.43556 0.83603 0.64593 0.0
C248 C 0.43156 0.81606 0.7322 0.0
C249 C 0.41629 0.83178 0.81459 0.0
C250 C 0.42254 0.87029 0.64248 0.0
N251 N 0.40523 0.88441 0.72167 0.0
H252 H 0.38751 0.87469 0.86829 0.0
H253 H 0.42454 0.88465 0.5739 0.0
H254 H 0.34273 0.85847 0.59449 0.0
H255 H 0.37692 0.95611 0.49192 0.0
O256 O 0.33303 0.90333 0.75493 0.0
O257 O 0.33566 0.95834 0.70403 0.0
O258 O 0.41258 0.95604 0.64752 0.0
C259 C 0.31675 0.93245 0.73734 0.0
H260 H 0.43153 0.97842 0.01627 0.0
H261 H 0.33806 0.85855 0.39886 0.0
H262 H 0.44701 0.82464 0.58019 0.0
H263 H 0.41178 0.81698 0.8817 0.0
C264 C 0.49913 0.96272 0.54113 0.0
C265 C 0.46676 0.97476 0.57655 0.0
H266 H 0.54322 0.9724 0.44747 0.0
C267 C 0.45423 1.00726 0.54318 0.0
H268 H 0.50936 0.93766 0.56461 0.0
C269 C 0.47397 0.02749 0.47707 0.0
C270 C 0.50614 0.01516 0.44076 0.0
H271 H 0.42934 0.0172 0.56892 0.0
H272 H 0.4639 0.05262 0.45361 0.0
C273 C 0.51838 0.98249 0.47324 0.0
C274 C 0.47437 0.45491 0.04256 0.0
C275 C 0.5072 0.46708 0.07467 0.0
H276 H 0.42833 0.46538 0.95629 0.0
C277 C 0.51896 0.49977 0.04078 0.0
H278 H 0.46458 0.4298 0.06707 0.0
C279 C 0.49863 0.51971 0.97601 0.0
C280 C 0.46568 0.50781 0.94442 0.0
H281 H 0.5442 0.50987 0.06322 0.0
H282 H 0.50864 0.54476 0.95168 0.0
C283 C 0.45364 0.47526 0.97897 0.0
C284 C 1.0055 0.45271 0.48048 0.0
C285 C 0.97464 0.46565 0.43711 0.0
H286 H 0.04908 0.46312 0.57646 0.0
C287 C 0.96376 0.4997 0.46086 0.0
H288 H 0.01454 0.42654 0.46388 0.0
C289 C 0.98301 0.52024 0.52694 0.0
C290 C 0.01403 0.50755 0.56963 0.0
H291 H 0.93999 0.51038 0.42954 0.0
H292 H 0.97377 0.54636 0.54344 0.0
C293 C 0.02524 0.47362 0.54506 0.0
C294 C 1.00697 0.02497 0.04595 0.0
C295 C 0.97294 0.01388 0.06978 0.0
H296 H 0.05416 0.01417 0.96553 0.0
C297 C 0.96013 0.98299 0.02653 0.0
H298 H 0.01756 0.04869 0.07782 0.0
C299 C 0.98069 0.96376 0.96059 0.0
C300 C 0.01486 0.97452 0.93761 0.0
H301 H 0.93392 0.97387 0.04248 0.0
H302 H 0.96993 0.94009 0.92881 0.0
C303 C 0.02789 1.00523 0.98154 0.0
C304 C 0.57718 0.22307 0.26177 0.0
C305 C 0.54573 0.20438 0.27011 0.0
H306 H 0.60208 0.27245 0.24515 0.0
C307 C 0.51392 0.22286 0.26639 0.0
H308 H 0.60219 0.20983 0.26474 0.0
C309 C 0.51386 0.25945 0.25371 0.0
C310 C 0.54562 0.2779 0.24677 0.0
H311 H 0.48927 0.20909 0.27249 0.0
H312 H 0.48917 0.27326 0.25076 0.0
C313 C 0.57713 0.25919 0.25098 0.0
C314 C 0.22085 0.51409 0.75347 0.0
C315 C 0.20241 0.54589 0.74853 0.0
H316 H 0.27121 0.48935 0.77058 0.0
C317 C 0.22114 0.57734 0.7557 0.0
H318 H 0.20704 0.48944 0.74831 0.0
C319 C 0.25727 0.5773 0.76686 0.0
C320 C 0.27595 0.54579 0.7726 0.0
H321 H 0.20792 0.60235 0.75168 0.0
H322 H 0.27055 0.60226 0.77186 0.0
C323 C 0.25744 0.51404 0.76651 0.0
C324 C 0.96642 0.22065 0.25451 0.0
C325 C 0.93467 0.20219 0.2474 0.0
H326 H 0.99099 0.271 0.27383 0.0
C327 C 0.90315 0.22088 0.25206 0.0
H328 H 0.99111 0.20686 0.25123 0.0
C329 C 0.90309 0.25698 0.26338 0.0
C330 C 0.93453 0.27567 0.27178 0.0
H331 H 0.8782 0.20761 0.24615 0.0
H332 H 0.87807 0.2702 0.26662 0.0
C333 C 0.96635 0.25722 0.2677 0.0
C334 C 0.25985 0.96598 0.75557 0.0
C335 C 0.27835 0.93422 0.75059 0.0
H336 H 0.20948 0.9906 0.77309 0.0
C337 C 0.25972 0.90271 0.75824 0.0
H338 H 0.27358 0.99066 0.74999 0.0
C339 C 0.22363 0.90267 0.76982 0.0
C340 C 0.2049 0.93414 0.77552 0.0
H341 H 0.27299 0.87774 0.75422 0.0
H342 H 0.21042 0.87768 0.77516 0.0
C343 C 0.2233 0.96594 0.76902 0.0
C344 C 0.45419 0.76055 0.80975 0.0
C345 C 0.43669 0.77759 0.73205 0.0
H346 H 0.46681 0.71187 0.87931 0.0
C347 C 0.41893 0.75739 0.66185 0.0
H348 H 0.46791 0.77562 0.86536 0.0
C349 C 0.41701 0.72115 0.6717 0.0
C350 C 0.43366 0.70366 0.7508 0.0
H351 H 0.40442 0.76983 0.60272 0.0
H352 H 0.4007 0.70733 0.61941 0.0
C353 C 0.45309 0.72397 0.81834 0.0
C354 C 0.75755 0.41895 0.35981 0.0
C355 C 0.77806 0.43597 0.28893 0.0
H356 H 0.70716 0.4018 0.40278 0.0
C357 C 0.76132 0.45341 0.21061 0.0
H358 H 0.76975 0.4045 0.41945 0.0
C359 C 0.72472 0.45292 0.20199 0.0
C360 C 0.70405 0.43414 0.27009 0.0
H361 H 0.77664 0.46655 0.15446 0.0
H362 H 0.71288 0.46656 0.14048 0.0
C363 C 0.72125 0.41762 0.34993 0.0
C364 C 0.06055 0.75751 0.86066 0.0
C365 C 0.04385 0.77811 0.78938 0.0
H366 H 0.07752 0.70708 0.90364 0.0
C367 C 0.02668 0.76148 0.71036 0.0
H368 H 0.07478 0.76963 0.92089 0.0
C369 C 0.02721 0.72491 0.70133 0.0
C370 C 0.04575 0.70417 0.76977 0.0
H371 H 0.01378 0.77688 0.65391 0.0
H372 H 0.01383 0.71316 0.63921 0.0
C373 C 0.06191 0.72124 0.85043 0.0
C374 C 0.7555 0.02742 0.20004 0.0
C375 C 0.77622 0.04617 0.2681 0.0
H376 H 0.70354 0.0138 0.15277 0.0
C377 C 0.75913 0.06274 0.34793 0.0
H378 H 0.7673 0.01376 0.13852 0.0
C379 C 0.72285 0.06147 0.35791 0.0
C380 C 0.70227 0.04445 0.28714 0.0
H381 H 0.77331 0.07854 0.40071 0.0
H382 H 0.71072 0.07595 0.41759 0.0
C383 C 0.71892 0.02696 0.20879 0.0
C384 C 0.57609 0.13681 0.78786 0.0
C385 C 0.55825 0.11976 0.71097 0.0
H386 H 0.58264 0.14353 0.94249 0.0
C387 C 0.53056 0.09709 0.73548 0.0
H388 H 0.59715 0.15485 0.7723 0.0
C389 C 0.52153 0.09107 0.83407 0.0
C390 C 0.54016 0.10719 0.91133 0.0
H391 H 0.51625 0.08312 0.67901 0.0
H392 H 0.50019 0.07332 0.84909 0.0
C393 C 0.56731 0.13052 0.88645 0.0
C394 C 0.38897 0.52063 0.33371 0.0
C395 C 0.3722 0.53853 0.41106 0.0
H396 H 0.39772 0.51622 0.17896 0.0
C397 C 0.34835 0.56522 0.38654 0.0
H398 H 0.40709 0.49962 0.34893 0.0
C399 C 0.34229 0.57438 0.28789 0.0
C400 C 0.36007 0.55735 0.21071 0.0
H401 H 0.335 0.57997 0.4432 0.0
H402 H 0.32391 0.59516 0.27267 0.0
C403 C 0.38319 0.53001 0.23523 0.0
C404 C 0.91382 0.34863 0.88736 0.0
C405 C 0.94048 0.37253 0.91263 0.0
H406 H 0.88421 0.32415 0.77282 0.0
C407 C 0.95849 0.38941 0.83547 0.0
H408 H 0.89907 0.33484 0.94302 0.0
C409 C 0.94933 0.38357 0.73687 0.0
C410 C 0.9221 0.36039 0.71218 0.0
H411 H 0.97936 0.40769 0.85042 0.0
H412 H 0.96312 0.39809 0.68048 0.0
C413 C 0.90488 0.34261 0.78874 0.0
C414 C 0.0974 0.94934 0.23892 0.0
C415 C 0.12012 0.92176 0.21428 0.0
H416 H 0.07381 0.97976 0.35241 0.0
C417 C 0.13762 0.90427 0.2909 0.0
H418 H 0.08311 0.96336 0.18252 0.0
C419 C 0.13175 0.9133 0.3895 0.0
C420 C 0.1083 0.94032 0.4147 0.0
H421 H 0.15575 0.88331 0.27507 0.0
H422 H 0.14528 0.89832 0.44522 0.0
C423 C 0.09173 0.95859 0.3375 0.0
C424 C 0.52058 0.39107 0.68646 0.0
C425 C 0.53832 0.37412 0.60913 0.0
H426 H 0.51627 0.3999 0.8412 0.0
C427 C 0.56476 0.35 0.63368 0.0
H428 H 0.49975 0.4094 0.67118 0.0
C429 C 0.57386 0.34387 0.73235 0.0
C430 C 0.55703 0.36185 0.8095 0.0
H431 H 0.57936 0.33649 0.57702 0.0
H432 H 0.59447 0.32529 0.74761 0.0
C433 C 0.52991 0.38522 0.78495 0.0
C434 C 0.0884 0.52143 0.18582 0.0
C435 C 0.10569 0.53884 0.10847 0.0
H436 H 0.07949 0.51731 0.3406 0.0
C437 C 0.13026 0.56489 0.13296 0.0
H438 H 0.06969 0.50091 0.17055 0.0
C439 C 0.13654 0.57393 0.23162 0.0
C440 C 0.11828 0.5574 0.3088 0.0
H441 H 0.14402 0.57926 0.07625 0.0
H442 H 0.15548 0.59422 0.24687 0.0
C443 C 0.09442 0.53068 0.2843 0.0
C444 C 0.91591 0.13023 0.63264 0.0
C445 C 0.94182 0.10553 0.60819 0.0
H446 H 0.88673 0.15556 0.74652 0.0
C447 C 0.95914 0.08815 0.68558 0.0
H448 H 0.90163 0.14406 0.57591 0.0
C449 C 0.94992 0.0942 0.78404 0.0
C450 C 0.92333 0.11817 0.80848 0.0
H451 H 0.97955 0.06936 0.67035 0.0
H452 H 0.9632 0.0792 0.84037 0.0
C453 C 0.90691 0.13653 0.73128 0.0
C454 C 0.38536 0.94987 0.2843 0.0
C455 C 0.36272 0.92214 0.3088 0.0
H456 H 0.4092 0.98018 0.17058 0.0
C457 C 0.34581 0.90421 0.23181 0.0
H458 H 0.39921 0.96428 0.34079 0.0
C459 C 0.35224 0.91288 0.13322 0.0
C460 C 0.37555 0.94006 0.10845 0.0
H461 H 0.3278 0.88311 0.24728 0.0
H462 H 0.33943 0.89745 0.07702 0.0
C463 C 0.3915 0.95881 0.1857 0.0
loop_
_geom_bond_atom_site_label_1
_geom_bond_atom_site_label_2
_geom_bond_distance
_geom_bond_site_symmetry_2
_ccdc_geom_bond_type
Co0 N4 2.148 . S
Co0 N10 2.128 . S
Co0 N20 2.194 . S
Co0 O25 2.351 . S
Co0 O26 2.155 . S
Co0 O27 2.096 . S
C1 N4 1.301 . S
C1 N5 1.328 . S
C1 H6 0.930 . S
C2 C3 1.333 . S
C2 N4 1.317 . S
C2 H7 0.930 . S
C3 C2 1.333 . S
C3 N5 1.350 . S
C3 H29 0.931 1_554 S
N4 Co0 2.148 . S
N4 C1 1.301 . S
N4 C2 1.317 . S
N5 C1 1.328 . S
N5 C3 1.350 . S
H6 C1 0.930 . S
H7 C2 0.930 . S
C8 O9 1.224 . S
C8 O27 1.247 . S
O9 C8 1.224 . S
N10 Co0 2.128 . S
N10 C11 1.355 . S
N10 C13 1.311 . S
C11 N10 1.355 . S
C11 C12 1.363 . S
C11 H23 0.929 . S
C12 C11 1.363 . S
C12 N14 1.375 . S
C12 H30 0.931 . S
C13 N10 1.311 . S
C13 N14 1.347 . S
C13 H24 0.929 . S
N14 C12 1.375 . S
N14 C13 1.347 . S
C15 C18 1.365 . S
C15 N20 1.328 . S
C15 H21 0.929 . S
C16 C17 1.362 . S
C16 C19 1.378 . S
C16 H31 0.929 . S
C17 C16 1.362 . S
C17 C18 1.366 . S
C18 C15 1.365 . S
C18 C17 1.366 . S
C18 H32 0.930 . S
C19 C16 1.378 . S
C19 N20 1.315 . S
C19 H22 0.930 . S
N20 Co0 2.194 . S
N20 C15 1.328 . S
N20 C19 1.315 . S
H21 C15 0.929 . S
H22 C19 0.930 . S
H23 C11 0.929 . S
H24 C13 0.929 . S
O25 Co0 2.351 . S
O25 C28 1.244 . S
O26 Co0 2.155 . S
O26 C28 1.240 . S
O27 Co0 2.096 . S
O27 C8 1.247 . S
C28 O25 1.244 . S
C28 O26 1.240 . S
H29 C3 0.931 1_556 S
H30 C12 0.931 . S
H31 C16 0.929 . S
H32 C18 0.930 . S
Co33 N37 2.148 . S
Co33 N43 2.128 . S
Co33 N53 2.194 . S
Co33 O58 2.351 . S
Co33 O59 2.155 . S
Co33 O60 2.096 . S
C34 N37 1.301 . S
C34 N38 1.328 . S
C34 H39 0.930 . S
C35 C36 1.333 . S
C35 N37 1.317 . S
C35 H40 0.930 . S
C36 C35 1.333 . S
C36 N38 1.350 . S
C36 H62 0.931 . S
N37 Co33 2.148 . S
N37 C34 1.301 . S
N37 C35 1.317 . S
N38 C34 1.328 . S
N38 C36 1.350 . S
H39 C34 0.930 . S
H40 C35 0.930 . S
C41 O42 1.224 . S
C41 O60 1.247 . S
O42 C41 1.224 . S
N43 Co33 2.128 . S
N43 C44 1.355 . S
N43 C46 1.311 1_556 S
C44 N43 1.355 . S
C44 C45 1.363 1_556 S
C44 H56 0.929 . S
C45 C44 1.363 1_554 S
C45 N47 1.375 . S
C45 H63 0.931 . S
C46 N43 1.311 1_554 S
C46 N47 1.347 . S
C46 H57 0.929 . S
N47 C45 1.375 . S
N47 C46 1.347 . S
C48 C51 1.365 . S
C48 N53 1.328 . S
C48 H54 0.929 . S
C49 C50 1.362 . S
C49 C52 1.378 . S
C49 H64 0.929 . S
C50 C49 1.362 . S
C50 C51 1.366 . S
C51 C48 1.365 . S
C51 C50 1.366 . S
C51 H65 0.930 . S
C52 C49 1.378 . S
C52 N53 1.315 . S
C52 H55 0.930 . S
N53 Co33 2.194 . S
N53 C48 1.328 . S
N53 C52 1.315 . S
H54 C48 0.929 . S
H55 C52 0.930 . S
H56 C44 0.929 . S
H57 C46 0.929 . S
O58 Co33 2.351 . S
O58 C61 1.244 . S
O59 Co33 2.155 . S
O59 C61 1.240 . S
O60 Co33 2.096 . S
O60 C41 1.247 . S
C61 O58 1.244 . S
C61 O59 1.240 . S
H62 C36 0.931 . S
H63 C45 0.931 . S
H64 C49 0.929 . S
H65 C51 0.930 . S
Co66 N70 2.148 . S
Co66 N76 2.128 . S
Co66 N86 2.194 . S
Co66 O91 2.351 . S
Co66 O92 2.155 . S
Co66 O93 2.096 . S
C67 N70 1.301 . S
C67 N71 1.328 . S
C67 H72 0.930 . S
C68 C69 1.333 . S
C68 N70 1.317 . S
C68 H73 0.930 . S
C69 C68 1.333 . S
C69 N71 1.350 . S
C69 H95 0.931 1_554 S
N70 Co66 2.148 . S
N70 C67 1.301 . S
N70 C68 1.317 . S
N71 C67 1.328 . S
N71 C69 1.350 . S
H72 C67 0.930 . S
H73 C68 0.930 . S
C74 O75 1.224 . S
C74 O93 1.247 . S
O75 C74 1.224 . S
N76 Co66 2.128 . S
N76 C77 1.355 . S
N76 C79 1.311 . S
C77 N76 1.355 . S
C77 C78 1.363 . S
C77 H89 0.929 . S
C78 C77 1.363 . S
C78 N80 1.375 . S
C78 H96 0.931 . S
C79 N76 1.311 . S
C79 N80 1.347 . S
C79 H90 0.929 . S
N80 C78 1.375 . S
N80 C79 1.347 . S
C81 C84 1.365 . S
C81 N86 1.328 . S
C81 H87 0.929 . S
C82 C83 1.362 . S
C82 C85 1.378 . S
C82 H97 0.929 . S
C83 C82 1.362 . S
C83 C84 1.366 . S
C84 C81 1.365 . S
C84 C83 1.366 . S
C84 H98 0.930 . S
C85 C82 1.378 . S
C85 N86 1.315 . S
C85 H88 0.930 . S
N86 Co66 2.194 . S
N86 C81 1.328 . S
N86 C85 1.315 . S
H87 C81 0.929 . S
H88 C85 0.930 . S
H89 C77 0.929 . S
H90 C79 0.929 . S
O91 Co66 2.351 . S
O91 C94 1.244 . S
O92 Co66 2.155 . S
O92 C94 1.240 . S
O93 Co66 2.096 . S
O93 C74 1.247 . S
C94 O91 1.244 . S
C94 O92 1.240 . S
H95 C69 0.931 1_556 S
H96 C78 0.931 . S
H97 C82 0.929 . S
H98 C84 0.930 . S
Co99 N103 2.148 . S
Co99 N109 2.128 . S
Co99 N119 2.194 . S
Co99 O124 2.351 . S
Co99 O125 2.155 . S
Co99 O126 2.096 . S
C100 N103 1.301 . S
C100 N104 1.328 . S
C100 H105 0.930 . S
C101 C102 1.333 . S
C101 N103 1.317 . S
C101 H106 0.930 . S
C102 C101 1.333 . S
C102 N104 1.350 . S
C102 H128 0.931 . S
N103 Co99 2.148 . S
N103 C100 1.301 . S
N103 C101 1.317 . S
N104 C100 1.328 . S
N104 C102 1.350 . S
H105 C100 0.930 . S
H106 C101 0.930 . S
C107 O108 1.224 . S
C107 O126 1.247 . S
O108 C107 1.224 . S
N109 Co99 2.128 . S
N109 C110 1.355 . S
N109 C112 1.311 1_556 S
C110 N109 1.355 . S
C110 C111 1.363 1_556 S
C110 H122 0.929 . S
C111 C110 1.363 1_554 S
C111 N113 1.375 . S
C111 H129 0.931 . S
C112 N109 1.311 1_554 S
C112 N113 1.347 . S
C112 H123 0.929 . S
N113 C111 1.375 . S
N113 C112 1.347 . S
C114 C117 1.365 . S
C114 N119 1.328 . S
C114 H120 0.929 . S
C115 C116 1.362 . S
C115 C118 1.378 . S
C115 H130 0.929 . S
C116 C115 1.362 . S
C116 C117 1.366 . S
C117 C114 1.365 . S
C117 C116 1.366 . S
C117 H131 0.930 . S
C118 C115 1.378 . S
C118 N119 1.315 . S
C118 H121 0.930 . S
N119 Co99 2.194 . S
N119 C114 1.328 . S
N119 C118 1.315 . S
H120 C114 0.929 . S
H121 C118 0.930 . S
H122 C110 0.929 . S
H123 C112 0.929 . S
O124 Co99 2.351 . S
O124 C127 1.244 . S
O125 Co99 2.155 . S
O125 C127 1.240 . S
O126 Co99 2.096 . S
O126 C107 1.247 . S
C127 O124 1.244 . S
C127 O125 1.240 . S
H128 C102 0.931 . S
H129 C111 0.931 . S
H130 C115 0.929 . S
H131 C117 0.930 . S
Co132 N136 2.148 . S
Co132 N142 2.128 . S
Co132 N152 2.194 . S
Co132 O157 2.351 . S
Co132 O158 2.155 . S
Co132 O159 2.096 . S
C133 N136 1.301 . S
C133 N137 1.328 . S
C133 H138 0.930 . S
C134 C135 1.333 . S
C134 N136 1.317 . S
C134 H139 0.930 . S
C135 C134 1.333 . S
C135 N137 1.350 . S
C135 H161 0.931 . S
N136 Co132 2.148 . S
N136 C133 1.301 . S
N136 C134 1.317 . S
N137 C133 1.328 . S
N137 C135 1.350 . S
H138 C133 0.930 . S
H139 C134 0.930 . S
C140 O141 1.224 . S
C140 O159 1.247 . S
O141 C140 1.224 . S
N142 Co132 2.128 . S
N142 C143 1.355 . S
N142 C145 1.311 1_554 S
C143 N142 1.355 . S
C143 C144 1.363 1_554 S
C143 H155 0.929 . S
C144 C143 1.363 1_556 S
C144 N146 1.375 . S
C144 H162 0.931 . S
C145 N142 1.311 1_556 S
C145 N146 1.347 . S
C145 H156 0.929 . S
N146 C144 1.375 . S
N146 C145 1.347 . S
C147 C150 1.365 . S
C147 N152 1.328 . S
C147 H153 0.929 . S
C148 C149 1.362 . S
C148 C151 1.378 . S
C148 H163 0.929 . S
C149 C148 1.362 . S
C149 C150 1.366 . S
C150 C147 1.365 . S
C150 C149 1.366 . S
C150 H164 0.930 . S
C151 C148 1.378 . S
C151 N152 1.315 . S
C151 H154 0.930 . S
N152 Co132 2.194 . S
N152 C147 1.328 . S
N152 C151 1.315 . S
H153 C147 0.929 . S
H154 C151 0.930 . S
H155 C143 0.929 . S
H156 C145 0.929 . S
O157 Co132 2.351 . S
O157 C160 1.244 . S
O158 Co132 2.155 . S
O158 C160 1.240 . S
O159 Co132 2.096 . S
O159 C140 1.247 . S
C160 O157 1.244 . S
C160 O158 1.240 . S
H161 C135 0.931 . S
H162 C144 0.931 . S
H163 C148 0.929 . S
H164 C150 0.930 . S
Co165 N169 2.148 . S
Co165 N175 2.128 . S
Co165 N185 2.194 . S
Co165 O190 2.351 . S
Co165 O191 2.155 . S
Co165 O192 2.096 . S
C166 N169 1.301 . S
C166 N170 1.328 . S
C166 H171 0.930 . S
C167 C168 1.333 . S
C167 N169 1.317 . S
C167 H172 0.930 . S
C168 C167 1.333 . S
C168 N170 1.350 . S
C168 H194 0.931 1_556 S
N169 Co165 2.148 . S
N169 C166 1.301 . S
N169 C167 1.317 . S
N170 C166 1.328 . S
N170 C168 1.350 . S
H171 C166 0.930 . S
H172 C167 0.930 . S
C173 O174 1.224 . S
C173 O192 1.247 . S
O174 C173 1.224 . S
N175 Co165 2.128 . S
N175 C176 1.355 . S
N175 C178 1.311 . S
C176 N175 1.355 . S
C176 C177 1.363 . S
C176 H188 0.929 . S
C177 C176 1.363 . S
C177 N179 1.375 . S
C177 H195 0.931 . S
C178 N175 1.311 . S
C178 N179 1.347 . S
C178 H189 0.929 . S
N179 C177 1.375 . S
N179 C178 1.347 . S
C180 C183 1.365 . S
C180 N185 1.328 . S
C180 H186 0.929 . S
C181 C182 1.362 . S
C181 C184 1.378 . S
C181 H196 0.929 . S
C182 C181 1.362 . S
C182 C183 1.366 . S
C183 C180 1.365 . S
C183 C182 1.366 . S
C183 H197 0.930 . S
C184 C181 1.378 . S
C184 N185 1.315 . S
C184 H187 0.930 . S
N185 Co165 2.194 . S
N185 C180 1.328 . S
N185 C184 1.315 . S
H186 C180 0.929 . S
H187 C184 0.930 . S
H188 C176 0.929 . S
H189 C178 0.929 . S
O190 Co165 2.351 . S
O190 C193 1.244 . S
O191 Co165 2.155 . S
O191 C193 1.240 . S
O192 Co165 2.096 . S
O192 C173 1.247 . S
C193 O190 1.244 . S
C193 O191 1.240 . S
H194 C168 0.931 1_554 S
H195 C177 0.931 . S
H196 C181 0.929 . S
H197 C183 0.930 . S
Co198 N202 2.148 . S
Co198 N208 2.128 . S
Co198 N218 2.194 . S
Co198 O223 2.351 . S
Co198 O224 2.155 . S
Co198 O225 2.096 . S
C199 N202 1.301 . S
C199 N203 1.328 . S
C199 H204 0.930 . S
C200 C201 1.333 . S
C200 N202 1.317 . S
C200 H205 0.930 . S
C201 C200 1.333 . S
C201 N203 1.350 . S
C201 H227 0.931 . S
N202 Co198 2.148 . S
N202 C199 1.301 . S
N202 C200 1.317 . S
N203 C199 1.328 . S
N203 C201 1.350 . S
H204 C199 0.930 . S
H205 C200 0.930 . S
C206 O207 1.224 . S
C206 O225 1.247 . S
O207 C206 1.224 . S
N208 Co198 2.128 . S
N208 C209 1.355 . S
N208 C211 1.311 1_554 S
C209 N208 1.355 . S
C209 C210 1.363 1_554 S
C209 H221 0.929 . S
C210 C209 1.363 1_556 S
C210 N212 1.375 . S
C210 H228 0.931 . S
C211 N208 1.311 1_556 S
C211 N212 1.347 . S
C211 H222 0.929 . S
N212 C210 1.375 . S
N212 C211 1.347 . S
C213 C216 1.365 . S
C213 N218 1.328 . S
C213 H219 0.929 . S
C214 C215 1.362 . S
C214 C217 1.378 . S
C214 H229 0.929 . S
C215 C214 1.362 . S
C215 C216 1.366 . S
C216 C213 1.365 . S
C216 C215 1.366 . S
C216 H230 0.930 . S
C217 C214 1.378 . S
C217 N218 1.315 . S
C217 H220 0.930 . S
N218 Co198 2.194 . S
N218 C213 1.328 . S
N218 C217 1.315 . S
H219 C213 0.929 . S
H220 C217 0.930 . S
H221 C209 0.929 . S
H222 C211 0.929 . S
O223 Co198 2.351 . S
O223 C226 1.244 . S
O224 Co198 2.155 . S
O224 C226 1.240 . S
O225 Co198 2.096 . S
O225 C206 1.247 . S
C226 O223 1.244 . S
C226 O224 1.240 . S
H227 C201 0.931 . S
H228 C210 0.931 . S
H229 C214 0.929 . S
H230 C216 0.930 . S
Co231 N235 2.148 . S
Co231 N241 2.128 . S
Co231 N251 2.194 . S
Co231 O256 2.351 . S
Co231 O257 2.155 . S
Co231 O258 2.096 . S
C232 N235 1.301 . S
C232 N236 1.328 . S
C232 H237 0.930 . S
C233 C234 1.333 . S
C233 N235 1.317 . S
C233 H238 0.930 . S
C234 C233 1.333 . S
C234 N236 1.350 . S
C234 H260 0.931 1_556 S
N235 Co231 2.148 . S
N235 C232 1.301 . S
N235 C233 1.317 . S
N236 C232 1.328 . S
N236 C234 1.350 . S
H237 C232 0.930 . S
H238 C233 0.930 . S
C239 O240 1.224 . S
C239 O258 1.247 . S
O240 C239 1.224 . S
N241 Co231 2.128 . S
N241 C242 1.355 . S
N241 C244 1.311 . S
C242 N241 1.355 . S
C242 C243 1.363 . S
C242 H254 0.929 . S
C243 C242 1.363 . S
C243 N245 1.375 . S
C243 H261 0.931 . S
C244 N241 1.311 . S
C244 N245 1.347 . S
C244 H255 0.929 . S
N245 C243 1.375 . S
N245 C244 1.347 . S
C246 C249 1.365 . S
C246 N251 1.328 . S
C246 H252 0.929 . S
C247 C248 1.362 . S
C247 C250 1.378 . S
C247 H262 0.929 . S
C248 C247 1.362 . S
C248 C249 1.366 . S
C249 C246 1.365 . S
C249 C248 1.366 . S
C249 H263 0.930 . S
C250 C247 1.378 . S
C250 N251 1.315 . S
C250 H253 0.930 . S
N251 Co231 2.194 . S
N251 C246 1.328 . S
N251 C250 1.315 . S
H252 C246 0.929 . S
H253 C250 0.930 . S
H254 C242 0.929 . S
H255 C244 0.929 . S
O256 Co231 2.351 . S
O256 C259 1.244 . S
O257 Co231 2.155 . S
O257 C259 1.240 . S
O258 Co231 2.096 . S
O258 C239 1.247 . S
C259 O256 1.244 . S
C259 O257 1.240 . S
H260 C234 0.931 1_554 S
H261 C243 0.931 . S
H262 C247 0.929 . S
H263 C249 0.930 . S
C264 C265 1.387 . S
C264 H268 0.950 . S
C264 C273 1.390 . S
C265 C264 1.387 . S
C265 C267 1.387 1_565 S
H266 C273 0.950 . S
C267 C265 1.387 1_545 S
C267 C269 1.390 . S
C267 H271 0.950 . S
H268 C264 0.950 . S
C269 C267 1.390 . S
C269 C270 1.387 . S
C269 H272 0.950 . S
C270 C269 1.387 . S
C270 C273 1.387 1_545 S
H271 C267 0.950 . S
H272 C269 0.950 . S
C273 C264 1.390 . S
C273 H266 0.950 . S
C273 C270 1.387 1_565 S
C274 C275 1.387 . S
C274 H278 0.950 . S
C274 C283 1.390 1_554 S
C275 C274 1.387 . S
C275 C277 1.387 . S
H276 C283 0.950 . S
C277 C275 1.387 . S
C277 C279 1.390 1_554 S
C277 H281 0.950 . S
H278 C274 0.950 . S
C279 C277 1.390 1_556 S
C279 C280 1.387 . S
C279 H282 0.950 . S
C280 C279 1.387 . S
C280 C283 1.387 . S
H281 C277 0.950 . S
H282 C279 0.950 . S
C283 C274 1.390 1_556 S
C283 H276 0.950 . S
C283 C280 1.387 . S
C284 C285 1.387 . S
C284 H288 0.950 . S
C284 C293 1.390 1_655 S
C285 C284 1.387 . S
C285 C287 1.387 . S
H286 C293 0.950 . S
C287 C285 1.387 . S
C287 C289 1.390 1_655 S
C287 H291 0.950 . S
H288 C284 0.950 . S
C289 C287 1.390 1_455 S
C289 C290 1.387 . S
C289 H292 0.950 . S
C290 C289 1.387 . S
C290 C293 1.387 . S
H291 C287 0.950 . S
H292 C289 0.950 . S
C293 C284 1.390 1_455 S
C293 H286 0.950 . S
C293 C290 1.387 . S
C294 C295 1.387 1_465 S
C294 H298 0.950 . S
C294 C303 1.390 . S
C295 C294 1.387 1_645 S
C295 C297 1.387 1_554 S
H296 C303 0.950 . S
C297 C295 1.387 1_556 S
C297 C299 1.390 . S
C297 H301 0.950 . S
H298 C294 0.950 . S
C299 C297 1.390 . S
C299 C300 1.387 1_645 S
C299 H302 0.950 . S
C300 C299 1.387 1_465 S
C300 C303 1.387 1_556 S
H301 C297 0.950 . S
H302 C299 0.950 . S
C303 C294 1.390 . S
C303 H296 0.950 . S
C303 C300 1.387 1_554 S
C304 C305 1.387 . S
C304 H308 0.950 . S
C304 C313 1.390 . S
C305 C304 1.387 . S
C305 C307 1.387 . S
H306 C313 0.950 . S
C307 C305 1.387 . S
C307 C309 1.390 . S
C307 H311 0.950 . S
H308 C304 0.950 . S
C309 C307 1.390 . S
C309 C310 1.387 . S
C309 H312 0.950 . S
C310 C309 1.387 . S
C310 C313 1.387 . S
H311 C307 0.950 . S
H312 C309 0.950 . S
C313 C304 1.390 . S
C313 H306 0.950 . S
C313 C310 1.387 . S
C314 C315 1.387 . S
C314 H318 0.950 . S
C314 C323 1.390 . S
C315 C314 1.387 . S
C315 C317 1.387 . S
H316 C323 0.950 . S
C317 C315 1.387 . S
C317 C319 1.390 . S
C317 H321 0.950 . S
H318 C314 0.950 . S
C319 C317 1.390 . S
C319 C320 1.387 . S
C319 H322 0.950 . S
C320 C319 1.387 . S
C320 C323 1.387 . S
H321 C317 0.950 . S
H322 C319 0.950 . S
C323 C314 1.390 . S
C323 H316 0.950 . S
C323 C320 1.387 . S
C324 C325 1.387 . S
C324 H328 0.950 . S
C324 C333 1.390 . S
C325 C324 1.387 . S
C325 C327 1.387 . S
H326 C333 0.950 . S
C327 C325 1.387 . S
C327 C329 1.390 . S
C327 H331 0.950 . S
H328 C324 0.950 . S
C329 C327 1.390 . S
C329 C330 1.387 . S
C329 H332 0.950 . S
C330 C329 1.387 . S
C330 C333 1.387 . S
H331 C327 0.950 . S
H332 C329 0.950 . S
C333 C324 1.390 . S
C333 H326 0.950 . S
C333 C330 1.387 . S
C334 C335 1.387 . S
C334 H338 0.950 . S
C334 C343 1.390 . S
C335 C334 1.387 . S
C335 C337 1.387 . S
H336 C343 0.950 . S
C337 C335 1.387 . S
C337 C339 1.390 . S
C337 H341 0.950 . S
H338 C334 0.950 . S
C339 C337 1.390 . S
C339 C340 1.387 . S
C339 H342 0.950 . S
C340 C339 1.387 . S
C340 C343 1.387 . S
H341 C337 0.950 . S
H342 C339 0.950 . S
C343 C334 1.390 . S
C343 H336 0.950 . S
C343 C340 1.387 . S
C344 C345 1.387 . S
C344 H348 0.950 . S
C344 C353 1.390 . S
C345 C344 1.387 . S
C345 C347 1.387 . S
H346 C353 0.950 . S
C347 C345 1.387 . S
C347 C349 1.390 . S
C347 H351 0.950 . S
H348 C344 0.950 . S
C349 C347 1.390 . S
C349 C350 1.387 . S
C349 H352 0.950 . S
C350 C349 1.387 . S
C350 C353 1.387 . S
H351 C347 0.950 . S
H352 C349 0.950 . S
C353 C344 1.390 . S
C353 H346 0.950 . S
C353 C350 1.387 . S
C354 C355 1.387 . S
C354 H358 0.950 . S
C354 C363 1.390 . S
C355 C354 1.387 . S
C355 C357 1.387 . S
H356 C363 0.950 . S
C357 C355 1.387 . S
C357 C359 1.390 . S
C357 H361 0.950 . S
H358 C354 0.950 . S
C359 C357 1.390 . S
C359 C360 1.387 . S
C359 H362 0.950 . S
C360 C359 1.387 . S
C360 C363 1.387 . S
H361 C357 0.950 . S
H362 C359 0.950 . S
C363 C354 1.390 . S
C363 H356 0.950 . S
C363 C360 1.387 . S
C364 C365 1.387 . S
C364 H368 0.950 . S
C364 C373 1.390 . S
C365 C364 1.387 . S
C365 C367 1.387 . S
H366 C373 0.950 . S
C367 C365 1.387 . S
C367 C369 1.390 . S
C367 H371 0.946 1_455 S
H368 C364 0.950 . S
C369 C367 1.390 . S
C369 C370 1.387 . S
C369 H372 0.946 1_455 S
C370 C369 1.387 . S
C370 C373 1.387 . S
H371 C367 0.946 1_655 S
H372 C369 0.946 1_655 S
C373 C364 1.390 . S
C373 H366 0.950 . S
C373 C370 1.387 . S
C374 C375 1.387 . S
C374 H378 0.946 1_545 S
C374 C383 1.390 . S
C375 C374 1.387 . S
C375 C377 1.387 . S
H376 C383 0.946 1_565 S
C377 C375 1.387 . S
C377 C379 1.390 . S
C377 H381 0.950 . S
H378 C374 0.946 1_565 S
C379 C377 1.390 . S
C379 C380 1.387 . S
C379 H382 0.950 . S
C380 C379 1.387 . S
C380 C383 1.387 . S
H381 C377 0.950 . S
H382 C379 0.950 . S
C383 C374 1.390 . S
C383 H376 0.946 1_545 S
C383 C380 1.387 . S
C384 C385 1.387 . S
C384 H388 0.950 . S
C384 C393 1.390 . S
C385 C384 1.387 . S
C385 C387 1.387 . S
H386 C393 0.950 . S
C387 C385 1.387 . S
C387 C389 1.390 . S
C387 H391 0.950 . S
H388 C384 0.950 . S
C389 C387 1.390 . S
C389 C390 1.387 . S
C389 H392 0.950 . S
C390 C389 1.387 . S
C390 C393 1.387 . S
H391 C387 0.950 . S
H392 C389 0.950 . S
C393 C384 1.390 . S
C393 H386 0.950 . S
C393 C390 1.387 . S
C394 C395 1.387 . S
C394 H398 0.950 . S
C394 C403 1.390 . S
C395 C394 1.387 . S
C395 C397 1.387 . S
H396 C403 0.950 . S
C397 C395 1.387 . S
C397 C399 1.390 . S
C397 H401 0.950 . S
H398 C394 0.950 . S
C399 C397 1.390 . S
C399 C400 1.387 . S
C399 H402 0.950 . S
C400 C399 1.387 . S
C400 C403 1.387 . S
H401 C397 0.950 . S
H402 C399 0.950 . S
C403 C394 1.390 . S
C403 H396 0.950 . S
C403 C400 1.387 . S
C404 C405 1.387 . S
C404 H408 0.950 . S
C404 C413 1.390 . S
C405 C404 1.387 . S
C405 C407 1.387 . S
H406 C413 0.950 . S
C407 C405 1.387 . S
C407 C409 1.390 . S
C407 H411 0.950 . S
H408 C404 0.950 . S
C409 C407 1.390 . S
C409 C410 1.387 . S
C409 H412 0.950 . S
C410 C409 1.387 . S
C410 C413 1.387 . S
H411 C407 0.950 . S
H412 C409 0.950 . S
C413 C404 1.390 . S
C413 H406 0.950 . S
C413 C410 1.387 . S
C414 C415 1.387 . S
C414 H418 0.950 . S
C414 C423 1.390 . S
C415 C414 1.387 . S
C415 C417 1.387 . S
H416 C423 0.950 . S
C417 C415 1.387 . S
C417 C419 1.390 . S
C417 H421 0.950 . S
H418 C414 0.950 . S
C419 C417 1.390 . S
C419 C420 1.387 . S
C419 H422 0.950 . S
C420 C419 1.387 . S
C420 C423 1.387 . S
H421 C417 0.950 . S
H422 C419 0.950 . S
C423 C414 1.390 . S
C423 H416 0.950 . S
C423 C420 1.387 . S
C424 C425 1.387 . S
C424 H428 0.950 . S
C424 C433 1.390 . S
C425 C424 1.387 . S
C425 C427 1.387 . S
H426 C433 0.950 . S
C427 C425 1.387 . S
C427 C429 1.390 . S
C427 H431 0.950 . S
H428 C424 0.950 . S
C429 C427 1.390 . S
C429 C430 1.387 . S
C429 H432 0.950 . S
C430 C429 1.387 . S
C430 C433 1.387 . S
H431 C427 0.950 . S
H432 C429 0.950 . S
C433 C424 1.390 . S
C433 H426 0.950 . S
C433 C430 1.387 . S
C434 C435 1.387 . S
C434 H438 0.950 . S
C434 C443 1.390 . S
C435 C434 1.387 . S
C435 C437 1.387 . S
H436 C443 0.950 . S
C437 C435 1.387 . S
C437 C439 1.390 . S
C437 H441 0.950 . S
H438 C434 0.950 . S
C439 C437 1.390 . S
C439 C440 1.387 . S
C439 H442 0.950 . S
C440 C439 1.387 . S
C440 C443 1.387 . S
H441 C437 0.950 . S
H442 C439 0.950 . S
C443 C434 1.390 . S
C443 H436 0.950 . S
C443 C440 1.387 . S
C444 C445 1.387 . S
C444 H448 0.950 . S
C444 C453 1.390 . S
C445 C444 1.387 . S
C445 C447 1.387 . S
H446 C453 0.950 . S
C447 C445 1.387 . S
C447 C449 1.390 . S
C447 H451 0.950 . S
H448 C444 0.950 . S
C449 C447 1.390 . S
C449 C450 1.387 . S
C449 H452 0.950 . S
C450 C449 1.387 . S
C450 C453 1.387 . S
H451 C447 0.950 . S
H452 C449 0.950 . S
C453 C444 1.390 . S
C453 H446 0.950 . S
C453 C450 1.387 . S
C454 C455 1.387 . S
C454 H458 0.950 . S
C454 C463 1.390 . S
C455 C454 1.387 . S
C455 C457 1.387 . S
H456 C463 0.950 . S
C457 C455 1.387 . S
C457 C459 1.390 . S
C457 H461 0.950 . S
H458 C454 0.950 . S
C459 C457 1.390 . S
C459 C460 1.387 . S
C459 H462 0.950 . S
C460 C459 1.387 . S
C460 C463 1.387 . S
H461 C457 0.950 . S
H462 C459 0.950 . S
C463 C454 1.390 . S
C463 H456 0.950 . S
C463 C460 1.387 . S
C265 C239 1.262 . S
C270 C8 1.262 . S
C275 C140 1.259 . S
C280 C41 1.259 . S
C285 C74 1.259 . S
C290 C173 1.259 . S
C295 C206 1.260 . S
C300 C107 1.260 . S
C305 C28 1.544 . S
C310 C160 1.544 . S
C315 C193 1.545 . S
C320 C61 1.545 . S
C325 C226 1.545 . S
C330 C94 1.545 . S
C335 C259 1.545 . S
C340 C127 1.545 . S
C345 C248 1.586 . S
C350 C50 1.586 . S
C355 C83 1.585 . S
C360 C149 1.585 . S
C365 C116 1.585 . S
C370 C182 1.585 . S
C375 C215 1.586 . S
C380 C17 1.586 . S
C385 N14 1.349 . S
C390 N5 1.351 1_556 S
C395 N38 1.350 . S
C400 N47 1.349 . S
C405 N71 1.351 1_556 S
C410 N80 1.350 . S
C415 N113 1.349 . S
C420 N104 1.350 . S
C425 N137 1.351 . S
C430 N146 1.350 . S
C435 N170 1.350 1_554 S
C440 N179 1.349 . S
C445 N203 1.351 . S
C450 N212 1.349 . S
C455 N245 1.349 . S
C460 N236 1.350 1_554 S
