# Generated by pormake.
# Topology sow, (4)-cn, num edge types: 1
# Building blocks:
#     Node 0, Type 0, BuildingBlock: ICAMEG_clean_sbu_1, # of connection points: 4
#     Node 1, Type 0, BuildingBlock: ICAMEG_clean_sbu_1, # of connection points: 4
#     Node 2, Type 0, BuildingBlock: ICAMEG_clean_sbu_1, # of connection points: 4
#     Node 3, Type 0, BuildingBlock: ICAMEG_clean_sbu_1, # of connection points: 4
#     Node 4, Type 0, BuildingBlock: ICAMEG_clean_sbu_1, # of connection points: 4
#     Node 5, Type 0, BuildingBlock: ICAMEG_clean_sbu_1, # of connection points: 4
#     Node 6, Type 0, BuildingBlock: ICAMEG_clean_sbu_1, # of connection points: 4
#     Node 7, Type 0, BuildingBlock: ICAMEG_clean_sbu_1, # of connection points: 4
#     Edge 8, Type (0, 0), BuildingBlock: KIFKEQ_clean_linker_1, # of connection points: 2
#     Edge 9, Type (0, 0), BuildingBlock: KIFKEQ_clean_linker_1, # of connection points: 2
#     Edge 10, Type (0, 0), BuildingBlock: KIFKEQ_clean_linker_1, # of connection points: 2
#     Edge 11, Type (0, 0), BuildingBlock: KIFKEQ_clean_linker_1, # of connection points: 2
#     Edge 12, Type (0, 0), BuildingBlock: KIFKEQ_clean_linker_1, # of connection points: 2
#     Edge 13, Type (0, 0), BuildingBlock: KIFKEQ_clean_linker_1, # of connection points: 2
#     Edge 14, Type (0, 0), BuildingBlock: KIFKEQ_clean_linker_1, # of connection points: 2
#     Edge 15, Type (0, 0), BuildingBlock: KIFKEQ_clean_linker_1, # of connection points: 2
#     Edge 16, Type (0, 0), BuildingBlock: KIFKEQ_clean_linker_1, # of connection points: 2
#     Edge 17, Type (0, 0), BuildingBlock: KIFKEQ_clean_linker_1, # of connection points: 2
#     Edge 18, Type (0, 0), BuildingBlock: KIFKEQ_clean_linker_1, # of connection points: 2
#     Edge 19, Type (0, 0), BuildingBlock: KIFKEQ_clean_linker_1, # of connection points: 2
#     Edge 20, Type (0, 0), BuildingBlock: KIFKEQ_clean_linker_1, # of connection points: 2
#     Edge 21, Type (0, 0), BuildingBlock: KIFKEQ_clean_linker_1, # of connection points: 2
#     Edge 22, Type (0, 0), BuildingBlock: KIFKEQ_clean_linker_1, # of connection points: 2
#     Edge 23, Type (0, 0), BuildingBlock: KIFKEQ_clean_linker_1, # of connection points: 2
# Relax obj value: 0.053
# Max RMSD: 0.148
# Mean RMSD: 0.148
data_MOF--net-sow--node1-ICAMEG_clean_sbu_1--edge1-KIFKEQ_clean_linker_1
_symmetry_space_group_name_H-M    P1
_symmetry_Int_Tables_number       1
_symmetry_cell_setting            triclinic
loop_
_symmetry_equiv_pos_as_xyz
'x, y, z'
_cell_length_a     43.409015
_cell_length_b     19.17102
_cell_length_c     27.020551
_cell_angle_alpha  90.000093
_cell_angle_beta   90.073411
_cell_angle_gamma 90.00343
loop_
_atom_site_label
_atom_site_type_symbol
_atom_site_fract_x
_atom_site_fract_y
_atom_site_fract_z
_atom_type_partial_charge
Co0 Co 0.1251 0.27408 0.04493 0.0
Co1 Co 0.14272 0.14929 0.1323 0.0
O2 O 0.15439 0.22035 0.08436 0.0
C3 C 0.16665 0.21086 0.9714 0.0
O4 O 0.16291 0.15164 0.99502 0.0
C5 C 0.18133 0.24451 0.19215 0.0
O6 O 0.16381 0.296 0.17677 0.0
O7 O 0.11309 0.21414 0.16456 0.0
O8 O 0.09621 0.28212 0.10214 0.0
H9 H 0.0688 0.00684 0.23355 0.0
H10 H 0.19061 0.31774 0.0491 0.0
O11 O 0.15313 0.26587 0.98646 0.0
H12 H 0.13169 0.51716 0.11474 0.0
H13 H 0.09626 0.45549 0.91842 0.0
H14 H 0.0571 0.2757 0.03266 0.0
H15 H 0.10495 0.41075 0.08651 0.0
H16 H 0.13209 0.38746 0.97038 0.0
O17 O 0.17628 0.1824 0.17745 0.0
H18 H 0.08355 0.09527 0.17165 0.0
H19 H 0.17827 0.05314 0.19764 0.0
H20 H 0.02044 0.34283 0.98171 0.0
H21 H 0.21826 0.42337 0.0765 0.0
H22 H 0.03998 0.4335 0.92405 0.0
H23 H 0.18876 0.52398 0.10967 0.0
O24 O 0.10306 0.18813 0.02403 0.0
H25 H 0.24455 0.08043 0.05858 0.0
H26 H 0.13879 0.00271 0.0958 0.0
H27 H 0.17451 0.92249 0.05346 0.0
H28 H 0.22777 0.96134 0.03444 0.0
H29 H 0.20793 0.15934 0.10029 0.0
H30 H 0.16454 0.96458 0.26009 0.0
H31 H 0.10945 0.94082 0.27827 0.0
O32 O 0.10879 0.11491 0.08837 0.0
C33 C 0.09475 0.25944 0.14645 0.0
C34 C 0.09288 0.01656 0.22583 0.0
C35 C 0.14662 0.99291 0.24077 0.0
N36 N 0.13173 0.07893 0.18075 0.0
C37 C 0.10137 0.06643 0.19072 0.0
C38 C 0.15425 0.04319 0.20544 0.0
C39 C 0.1157 0.97958 0.25095 0.0
C40 C 0.17759 0.36154 0.06311 0.0
N41 N 0.1462 0.35828 0.0659 0.0
C42 C 0.19339 0.4211 0.07875 0.0
C43 C 0.17682 0.4775 0.09742 0.0
C44 C 0.1448 0.47369 0.10029 0.0
C45 C 0.12979 0.41326 0.08436 0.0
C46 C 0.08746 0.41624 0.94349 0.0
C47 C 0.06576 0.31541 0.00797 0.0
C48 C 0.10764 0.37748 0.97294 0.0
N49 N 0.09667 0.32805 0.00484 0.0
C50 C 0.0449 0.3531 0.97906 0.0
C51 C 0.05588 0.4039 0.94668 0.0
C52 C 0.09636 0.13226 0.04732 0.0
C53 C 0.22139 0.06293 0.06667 0.0
C54 C 0.1619 0.02006 0.08755 0.0
C55 C 0.18206 0.97433 0.0637 0.0
C56 C 0.21197 0.9961 0.05314 0.0
N57 N 0.17128 0.0856 0.10059 0.0
C58 C 0.2006 0.10725 0.09048 0.0
Co59 Co 0.37412 0.22963 0.54721 0.0
Co60 Co 0.35907 0.35836 0.63299 0.0
O61 O 0.34601 0.28706 0.58611 0.0
C62 C 0.33419 0.29451 0.47148 0.0
O63 O 0.34121 0.35517 0.49105 0.0
C64 C 0.31911 0.26662 0.69279 0.0
O65 O 0.33379 0.21331 0.67347 0.0
O66 O 0.38817 0.29241 0.66542 0.0
O67 O 0.4033 0.22053 0.60414 0.0
H68 H 0.43604 0.49843 0.73028 0.0
H69 H 0.3079 0.1916 0.55236 0.0
O70 O 0.34559 0.2386 0.48926 0.0
H71 H 0.3638 0.98937 0.62065 0.0
H72 H 0.39874 0.04233 0.42283 0.0
H73 H 0.44198 0.22091 0.53436 0.0
H74 H 0.39215 0.0926 0.5907 0.0
H75 H 0.36454 0.11528 0.47413 0.0
O76 O 0.32596 0.32859 0.67985 0.0
H77 H 0.41938 0.4095 0.66992 0.0
H78 H 0.32559 0.45858 0.69796 0.0
H79 H 0.47702 0.14883 0.48403 0.0
H80 H 0.27867 0.08916 0.5814 0.0
H81 H 0.45543 0.05873 0.42774 0.0
H82 H 0.30665 0.98718 0.61596 0.0
O83 O 0.39772 0.31299 0.52497 0.0
H84 H 0.25715 0.43119 0.56123 0.0
H85 H 0.36408 0.50407 0.59501 0.0
H86 H 0.3286 0.5856 0.55325 0.0
H87 H 0.27469 0.54933 0.53619 0.0
H88 H 0.29355 0.35096 0.60237 0.0
H89 H 0.34122 0.54758 0.75898 0.0
H90 H 0.39681 0.56813 0.77533 0.0
O91 O 0.39272 0.38938 0.58764 0.0
C92 C 0.40553 0.24478 0.64795 0.0
C93 C 0.41175 0.49011 0.72336 0.0
C94 C 0.35853 0.51763 0.73952 0.0
N95 N 0.37156 0.42924 0.68017 0.0
C96 C 0.40218 0.43998 0.68912 0.0
C97 C 0.34982 0.46707 0.70501 0.0
C98 C 0.38973 0.52915 0.74866 0.0
C99 C 0.32027 0.14716 0.56691 0.0
N100 N 0.35171 0.14792 0.56957 0.0
C101 C 0.30358 0.08942 0.5835 0.0
C102 C 0.31929 0.03226 0.60296 0.0
C103 C 0.35135 0.03348 0.60563 0.0
C104 C 0.36728 0.09214 0.58873 0.0
C105 C 0.40843 0.08132 0.44729 0.0
C106 C 0.43241 0.18153 0.51023 0.0
C107 C 0.38918 0.12288 0.47635 0.0
N108 N 0.40127 0.17198 0.5075 0.0
C109 C 0.45237 0.141 0.48169 0.0
C110 C 0.44024 0.09053 0.45007 0.0
C111 C 0.40493 0.36958 0.54706 0.0
C112 C 0.28058 0.44761 0.56851 0.0
C113 C 0.34072 0.48777 0.58747 0.0
C114 C 0.3207 0.53424 0.56396 0.0
C115 C 0.29044 0.51388 0.55445 0.0
N116 N 0.33086 0.42292 0.60125 0.0
C117 C 0.30125 0.40252 0.59195 0.0
Co118 Co 0.62497 0.23707 0.95767 0.0
Co119 Co 0.64209 0.35223 0.86448 0.0
O120 O 0.65456 0.28648 0.91586 0.0
C121 C 0.66845 0.29977 0.02921 0.0
O122 O 0.66558 0.3586 0.00476 0.0
C123 C 0.68398 0.25725 0.81023 0.0
O124 O 0.66924 0.2044 0.8301 0.0
O125 O 0.61443 0.28129 0.83443 0.0
O126 O 0.595 0.22799 0.90158 0.0
H127 H 0.56633 0.47549 0.75417 0.0
H128 H 0.6896 0.18748 0.95297 0.0
O129 O 0.65388 0.24561 0.01511 0.0
H130 H 0.62658 0.99003 0.89428 0.0
H131 H 0.5947 0.06424 0.08919 0.0
H132 H 0.55727 0.24328 0.97272 0.0
H133 H 0.60199 0.1 0.92047 0.0
H134 H 0.63098 0.12636 0.03453 0.0
O135 O 0.67653 0.31956 0.8213 0.0
H136 H 0.58234 0.39446 0.82025 0.0
H137 H 0.67614 0.44816 0.79697 0.0
H138 H 0.52018 0.1821 0.02642 0.0
H139 H 0.71513 0.07822 0.92761 0.0
H140 H 0.53884 0.09179 0.08518 0.0
H141 H 0.68354 0.97861 0.89788 0.0
O142 O 0.60481 0.32622 0.97673 0.0
H143 H 0.74187 0.43856 0.93648 0.0
H144 H 0.63471 0.50105 0.89482 0.0
H145 H 0.66856 0.58883 0.93359 0.0
H146 H 0.72258 0.55782 0.95455 0.0
H147 H 0.70708 0.35205 0.89827 0.0
H148 H 0.66117 0.52942 0.73036 0.0
H149 H 0.60589 0.54366 0.7087 0.0
O150 O 0.60701 0.38678 0.90577 0.0
C151 C 0.5946 0.24231 0.85548 0.0
C152 C 0.59048 0.46994 0.76338 0.0
C153 C 0.6437 0.50013 0.74998 0.0
N154 N 0.63011 0.41705 0.81278 0.0
C155 C 0.59967 0.42427 0.80087 0.0
C156 C 0.65205 0.45396 0.78768 0.0
C157 C 0.61269 0.50811 0.73785 0.0
C158 C 0.67569 0.14412 0.94053 0.0
N159 N 0.64434 0.14998 0.93846 0.0
C160 C 0.69028 0.0825 0.92602 0.0
C161 C 0.67255 0.02666 0.90927 0.0
C162 C 0.64058 0.03306 0.90721 0.0
C163 C 0.62679 0.09551 0.92196 0.0
C164 C 0.58628 0.10333 0.06364 0.0
C165 C 0.56555 0.20372 0.99791 0.0
C166 C 0.60671 0.13875 0.03265 0.0
N167 N 0.59621 0.1879 1.00009 0.0
C168 C 0.54445 0.1694 0.02836 0.0
C169 C 0.55494 0.11881 0.06136 0.0
C170 C 0.5962 0.3765 0.94906 0.0
C171 C 0.71839 0.45272 0.92742 0.0
C172 C 0.65813 0.48702 0.9041 0.0
C173 C 0.67722 0.53702 0.92589 0.0
C174 C 0.70754 0.51961 0.9376 0.0
N175 N 0.66895 0.42156 0.89413 0.0
C176 C 0.69863 0.40407 0.90559 0.0
Co177 Co 0.87566 0.26979 0.45613 0.0
Co178 Co 0.85999 0.14405 0.36819 0.0
O179 O 0.84718 0.21403 0.41635 0.0
C180 C 0.83499 0.20318 0.52974 0.0
O181 O 0.83894 0.14442 0.50562 0.0
C182 C 0.81991 0.23773 0.30964 0.0
O183 O 0.83463 0.29051 0.32968 0.0
O184 O 0.88902 0.21084 0.33668 0.0
O185 O 0.90446 0.28059 0.39903 0.0
H186 H 0.93652 0.00707 0.26819 0.0
H187 H 0.80954 0.3085 0.45263 0.0
O188 O 0.84787 0.25898 0.51468 0.0
H189 H 0.86525 0.5125 0.38682 0.0
H190 H 0.90169 0.45285 0.58303 0.0
H191 H 0.94359 0.27658 0.46857 0.0
H192 H 0.89365 0.40815 0.41473 0.0
H193 H 0.86693 0.38222 0.53095 0.0
O194 O 0.82674 0.17543 0.32187 0.0
H195 H 0.92012 0.09409 0.33003 0.0
H196 H 0.82621 0.04582 0.30192 0.0
H197 H 0.9792 0.34639 0.51965 0.0
H198 H 0.78024 0.41202 0.42558 0.0
H199 H 0.95828 0.43532 0.57742 0.0
H200 H 0.80812 0.51489 0.39228 0.0
O201 O 0.89901 0.18547 0.47678 0.0
H202 H 0.75814 0.06901 0.43868 0.0
H203 H 0.8651 0.99738 0.40425 0.0
H204 H 0.82971 0.91472 0.44493 0.0
H205 H 0.77581 0.95039 0.46237 0.0
H206 H 0.79445 0.15038 0.39862 0.0
H207 H 0.84158 0.95867 0.23948 0.0
H208 H 0.8971 0.9387 0.22239 0.0
O209 O 0.89382 0.11129 0.41287 0.0
C210 C 0.9065 0.25778 0.35483 0.0
C211 C 0.91226 0.01514 0.27542 0.0
C212 C 0.85898 0.98805 0.25926 0.0
N213 N 0.87226 0.07464 0.31984 0.0
C214 C 0.90284 0.0642 0.31049 0.0
C215 C 0.85041 0.03756 0.29458 0.0
C216 C 0.89013 0.97685 0.2497 0.0
C217 C 0.82185 0.35333 0.43862 0.0
N218 N 0.85327 0.35245 0.43553 0.0
C219 C 0.80513 0.41167 0.42316 0.0
C220 C 0.82079 0.46934 0.40441 0.0
C221 C 0.85284 0.46801 0.40131 0.0
C222 C 0.86879 0.40873 0.41705 0.0
C223 C 0.91109 0.41439 0.55792 0.0
C224 C 0.93432 0.3155 0.49332 0.0
C225 C 0.89152 0.37415 0.5284 0.0
N226 N 0.90324 0.32571 0.49643 0.0
C227 C 0.95459 0.35472 0.52229 0.0
C228 C 0.94284 0.40454 0.55474 0.0
C229 C 0.90613 0.12963 0.45379 0.0
C230 C 0.78157 0.05286 0.43122 0.0
C231 C 0.84173 0.01341 0.41193 0.0
C232 C 0.82176 0.9663 0.43483 0.0
C233 C 0.7915 0.98631 0.44454 0.0
N234 N 0.83182 0.07857 0.39896 0.0
C235 C 0.80218 0.09858 0.40836 0.0
Co236 Co 0.8628 0.83443 0.85698 0.0
Co237 Co 0.87599 0.72241 0.95362 0.0
O238 O 0.84807 0.77413 0.91011 0.0
C239 C 0.81785 0.74432 0.80444 0.0
O240 O 0.83086 0.68994 0.82536 0.0
C241 C 0.83451 0.79516 0.02338 0.0
O242 O 0.83866 0.85224 0.99738 0.0
O243 O 0.89873 0.80923 0.97065 0.0
O244 O 0.89894 0.86507 0.89767 0.0
H245 H 0.97866 0.65532 0.02557 0.0
H246 H 0.79805 0.84769 0.8902 0.0
O247 O 0.82732 0.80562 0.81438 0.0
H248 H 0.84456 0.07896 0.91856 0.0
H249 H 0.85021 0.00655 0.71757 0.0
H250 H 0.92388 0.86303 0.81221 0.0
H251 H 0.87531 0.98321 0.88288 0.0
H252 H 0.83232 0.93226 0.78632 0.0
O253 O 0.8474 0.73835 0.01045 0.0
H254 H 0.94366 0.71925 0.96976 0.0
H255 H 0.86645 0.61665 0.033 0.0
H256 H 0.94278 0.93691 0.744 0.0
H257 H 0.76634 0.94226 0.92544 0.0
H258 H 0.90582 0.00935 0.69613 0.0
H259 H 0.78962 0.05883 0.93991 0.0
O260 O 0.8879 0.75711 0.82933 0.0
H261 H 0.78123 0.57675 0.92637 0.0
H262 H 0.89478 0.58015 0.9203 0.0
H263 H 0.86689 0.47304 0.89665 0.0
H264 H 0.80969 0.47088 0.89975 0.0
H265 H 0.81003 0.68293 0.94927 0.0
H266 H 0.9006 0.55198 0.0898 0.0
H267 H 0.95716 0.57093 0.08614 0.0
O268 O 0.90578 0.7058 0.89834 0.0
C269 C 0.90912 0.85601 0.94155 0.0
C270 C 0.95407 0.64636 0.02737 0.0
C271 C 0.91026 0.58844 0.06346 0.0
N272 N 0.90308 0.67112 0.9977 0.0
C273 C 0.93414 0.68224 0.99572 0.0
C274 C 0.89103 0.62528 0.03125 0.0
C275 C 0.94199 0.59909 0.06138 0.0
C276 C 0.80825 0.89847 0.89601 0.0
N277 N 0.83843 0.91001 0.88429 0.0
C278 C 0.79023 0.95172 0.91615 0.0
C279 C 0.80332 0.01709 0.92434 0.0
C280 C 0.83415 0.0284 0.9124 0.0
C281 C 0.85148 0.97391 0.89236 0.0
C282 C 0.86655 0.97535 0.73823 0.0
C283 C 0.90768 0.89476 0.79179 0.0
C284 C 0.85655 0.93311 0.77715 0.0
N285 N 0.87708 0.89383 0.80356 0.0
C286 C 0.91851 0.93634 0.7531 0.0
C287 C 0.89776 0.97691 0.72623 0.0
C288 C 0.90663 0.71695 0.85183 0.0
C289 C 0.80615 0.57698 0.92504 0.0
C290 C 0.86989 0.57968 0.92156 0.0
C291 C 0.85422 0.51883 0.90825 0.0
C292 C 0.82213 0.51763 0.91002 0.0
N293 N 0.85404 0.63761 0.93639 0.0
C294 C 0.82259 0.63685 0.93815 0.0
Co295 Co 0.64042 0.66103 0.35859 0.0
Co296 Co 0.62518 0.77878 0.45154 0.0
O297 O 0.65371 0.72547 0.41028 0.0
C298 C 0.68336 0.75385 0.30456 0.0
O299 O 0.66926 0.80746 0.32458 0.0
C300 C 0.6653 0.70694 0.52387 0.0
O301 O 0.66115 0.64953 0.49823 0.0
O302 O 0.60162 0.69304 0.46878 0.0
O303 O 0.60497 0.62856 0.39964 0.0
H304 H 0.52141 0.85025 0.51643 0.0
H305 H 0.70536 0.65706 0.39246 0.0
O306 O 0.67523 0.69194 0.31555 0.0
H307 H 0.66405 0.4224 0.42678 0.0
H308 H 0.65737 0.48377 0.22379 0.0
H309 H 0.58022 0.62334 0.31384 0.0
H310 H 0.63124 0.51254 0.38842 0.0
H311 H 0.67329 0.56329 0.29089 0.0
O312 O 0.65267 0.76372 0.5101 0.0
H313 H 0.55727 0.78392 0.46362 0.0
H314 H 0.63359 0.88636 0.53006 0.0
H315 H 0.56327 0.54415 0.24725 0.0
H316 H 0.7391 0.56818 0.43034 0.0
H317 H 0.60199 0.47367 0.20169 0.0
H318 H 0.71843 0.44994 0.44781 0.0
O319 O 0.61357 0.73355 0.32871 0.0
H320 H 0.72105 0.92154 0.42702 0.0
H321 H 0.60766 0.92049 0.41543 0.0
H322 H 0.63643 0.02633 0.39176 0.0
H323 H 0.69356 0.0273 0.39762 0.0
H324 H 0.69139 0.81668 0.45 0.0
H325 H 0.59856 0.95341 0.58391 0.0
H326 H 0.54202 0.93576 0.5771 0.0
O327 O 0.59674 0.79464 0.39425 0.0
C328 C 0.59319 0.64184 0.44182 0.0
C329 C 0.54599 0.85864 0.51959 0.0
C330 C 0.58929 0.91647 0.55751 0.0
N331 N 0.59746 0.83186 0.49334 0.0
C332 C 0.56641 0.82141 0.48966 0.0
C333 C 0.60901 0.8783 0.52697 0.0
C334 C 0.55757 0.90655 0.55366 0.0
C335 C 0.6963 0.60551 0.39958 0.0
N336 N 0.66643 0.58989 0.38801 0.0
C337 C 0.71546 0.55551 0.42121 0.0
C338 C 0.70384 0.4892 0.43108 0.0
C339 C 0.67332 0.47373 0.41931 0.0
C340 C 0.65482 0.52505 0.39774 0.0
C341 C 0.64027 0.51405 0.24346 0.0
C342 C 0.59718 0.59245 0.29446 0.0
C343 C 0.64915 0.55921 0.28146 0.0
N344 N 0.62767 0.59737 0.30662 0.0
C345 C 0.58746 0.54786 0.25667 0.0
C346 C 0.60919 0.50839 0.23109 0.0
C347 C 0.59547 0.7778 0.34859 0.0
C348 C 0.69617 0.92184 0.4245 0.0
C349 C 0.63251 0.92046 0.41794 0.0
C350 C 0.64868 0.98059 0.40459 0.0
C351 C 0.68072 0.98113 0.40792 0.0
N352 N 0.64783 0.8626 0.43434 0.0
C353 C 0.67924 0.86271 0.43763 0.0
Co354 Co 0.3601 0.65324 0.13705 0.0
Co355 Co 0.37386 0.78476 0.05252 0.0
O356 O 0.34647 0.72391 0.09013 0.0
C357 C 0.31933 0.74353 0.19659 0.0
O358 O 0.33338 0.79743 0.17691 0.0
C359 C 0.33752 0.71297 0.97521 0.0
O360 O 0.34543 0.65377 0.9961 0.0
O361 O 0.40044 0.70475 0.03251 0.0
O362 O 0.3939 0.62368 0.09177 0.0
H363 H 0.47583 0.87899 0.99526 0.0
H364 H 0.29453 0.65817 0.10647 0.0
O365 O 0.32681 0.68181 0.18393 0.0
H366 H 0.33122 0.42468 0.05767 0.0
H367 H 0.34373 0.46357 0.26321 0.0
H368 H 0.4208 0.60464 0.17407 0.0
H369 H 0.36617 0.50774 0.09908 0.0
H370 H 0.32741 0.55171 0.20203 0.0
O371 O 0.34719 0.77064 0.99282 0.0
H372 H 0.44156 0.80255 0.04376 0.0
H373 H 0.36298 0.89672 0.97803 0.0
H374 H 0.43814 0.51669 0.23465 0.0
H375 H 0.25867 0.57644 0.06563 0.0
H376 H 0.39946 0.44548 0.27973 0.0
H377 H 0.27699 0.45881 0.04087 0.0
O378 O 0.38877 0.72009 0.16946 0.0
H379 H 0.27364 0.90982 0.08062 0.0
H380 H 0.38669 0.92529 0.09522 0.0
H381 H 0.35457 0.02417 0.12266 0.0
H382 H 0.2976 0.01684 0.1153 0.0
H383 H 0.30658 0.81221 0.05369 0.0
H384 H 0.3964 0.97384 0.92848 0.0
H385 H 0.45326 0.96544 0.93711 0.0
O386 O 0.401 0.79942 0.11137 0.0
C387 C 0.40726 0.64676 0.05306 0.0
C388 C 0.45109 0.88336 0.99132 0.0
C389 C 0.40651 0.93652 0.95379 0.0
N390 N 0.40032 0.84567 0.01412 0.0
C391 C 0.43157 0.84038 0.01882 0.0
C392 C 0.38771 0.89264 0.98188 0.0
C393 C 0.43841 0.93179 0.95866 0.0
C394 C 0.3026 0.60687 0.09611 0.0
N395 N 0.33236 0.58761 0.10536 0.0
C396 C 0.28222 0.56092 0.07285 0.0
C397 C 0.29253 0.49495 0.05891 0.0
C398 C 0.32296 0.47579 0.0683 0.0
C399 C 0.34268 0.52311 0.09162 0.0
C400 C 0.3608 0.49418 0.24373 0.0
C401 C 0.40384 0.57349 0.19328 0.0
C402 C 0.3517 0.54425 0.20912 0.0
N403 N 0.37314 0.5829 0.18424 0.0
C404 C 0.41379 0.52393 0.22765 0.0
C405 C 0.39208 0.48404 0.25297 0.0
C406 C 0.40425 0.77245 0.15424 0.0
C407 C 0.29843 0.91384 0.08372 0.0
C408 C 0.36192 0.92171 0.09195 0.0
C409 C 0.34385 0.9779 0.10747 0.0
C410 C 0.31189 0.97378 0.10331 0.0
N411 N 0.34853 0.86321 0.07258 0.0
C412 C 0.31721 0.85879 0.06841 0.0
Co413 Co 0.14154 0.8333 0.64157 0.0
Co414 Co 0.12547 0.71965 0.54699 0.0
O415 O 0.15448 0.77026 0.58902 0.0
C416 C 0.18437 0.73971 0.69547 0.0
O417 O 0.16799 0.68647 0.67986 0.0
C418 C 0.16703 0.78891 0.47598 0.0
O419 O 0.16327 0.84656 0.50148 0.0
O420 O 0.10357 0.8075 0.52986 0.0
O421 O 0.1055 0.86651 0.60158 0.0
H422 H 0.02121 0.6577 0.47876 0.0
H423 H 0.20616 0.83919 0.60623 0.0
O424 O 0.17715 0.80164 0.68293 0.0
H425 H 0.16388 0.07426 0.57654 0.0
H426 H 0.15964 0.0067 0.77855 0.0
H427 H 0.08169 0.87006 0.68767 0.0
H428 H 0.13168 0.98244 0.6141 0.0
H429 H 0.17502 0.92861 0.71035 0.0
O430 O 0.15366 0.73287 0.48933 0.0
H431 H 0.05763 0.72046 0.53289 0.0
H432 H 0.13281 0.61203 0.4683 0.0
H433 H 0.06529 0.94783 0.75539 0.0
H434 H 0.23929 0.92976 0.56918 0.0
H435 H 0.10441 0.01686 0.80135 0.0
H436 H 0.21814 0.04822 0.55402 0.0
O437 O 0.11504 0.75956 0.67095 0.0
H438 H 0.21874 0.56898 0.5737 0.0
H439 H 0.10533 0.57913 0.58186 0.0
H440 H 0.13217 0.47081 0.60588 0.0
H441 H 0.18929 0.46525 0.60173 0.0
H442 H 0.191 0.67639 0.55036 0.0
H443 H 0.09723 0.54846 0.41314 0.0
H444 H 0.04097 0.57093 0.41835 0.0
O445 O 0.09625 0.7059 0.60337 0.0
C446 C 0.09446 0.85636 0.55835 0.0
C447 C 0.04566 0.64719 0.47631 0.0
C448 C 0.08833 0.58596 0.43943 0.0
N449 N 0.09727 0.6693 0.50421 0.0
C450 C 0.06638 0.68238 0.50701 0.0
C451 C 0.10836 0.62217 0.47072 0.0
C452 C 0.05676 0.59858 0.44237 0.0
C453 C 0.19688 0.8908 0.60014 0.0
N454 N 0.16707 0.90559 0.61253 0.0
C455 C 0.2157 0.94177 0.57896 0.0
C456 C 0.20381 0.00821 0.57039 0.0
C457 C 0.17336 0.02283 0.58298 0.0
C458 C 0.1552 0.97056 0.60408 0.0
C459 C 0.14237 0.97706 0.7587 0.0
C460 C 0.09883 0.90032 0.70723 0.0
C461 C 0.15094 0.93271 0.72008 0.0
N462 N 0.12923 0.89543 0.69467 0.0
C463 C 0.08941 0.9441 0.74566 0.0
C464 C 0.11138 0.98275 0.77147 0.0
C465 C 0.09584 0.71916 0.64962 0.0
C466 C 0.19385 0.57068 0.57547 0.0
C467 C 0.13019 0.57715 0.58009 0.0
C468 C 0.14526 0.51564 0.59364 0.0
C469 C 0.17731 0.51253 0.59128 0.0
N470 N 0.14658 0.63386 0.56442 0.0
C471 C 0.178 0.63127 0.56214 0.0
H472 H 0.29352 0.36476 0.75274 0.0
H473 H 0.29148 0.14398 0.72058 0.0
H474 H 0.25618 0.34796 0.81822 0.0
H475 H 0.25293 0.12733 0.7854 0.0
H476 H 0.21071 0.11714 0.94255 0.0
H477 H 0.24665 0.12817 0.87352 0.0
H478 H 0.20379 0.32326 0.83208 0.0
H479 H 0.1689 0.31349 0.90195 0.0
C480 C 0.2848 0.31262 0.75925 0.0
C481 C 0.29547 0.25569 0.73139 0.0
C482 C 0.26316 0.30301 0.79672 0.0
C483 C 0.25129 0.23632 0.80701 0.0
C484 C 0.26183 0.17928 0.7789 0.0
C485 C 0.28379 0.18885 0.74157 0.0
C486 C 0.20894 0.16216 0.91848 0.0
C487 C 0.18719 0.21477 0.92792 0.0
C488 C 0.22942 0.16834 0.87874 0.0
C489 C 0.22835 0.22695 0.8474 0.0
C490 C 0.20583 0.27825 0.85608 0.0
C491 C 0.18567 0.2725 0.89603 0.0
H492 H 0.18887 0.3581 0.25245 0.0
H493 H 0.22928 0.15902 0.2153 0.0
H494 H 0.22652 0.3726 0.31882 0.0
H495 H 0.26764 0.17463 0.27992 0.0
H496 H 0.30569 0.17857 0.43557 0.0
H497 H 0.26999 0.17031 0.36669 0.0
H498 H 0.2789 0.39206 0.34111 0.0
H499 H 0.31382 0.40067 0.41181 0.0
C500 C 0.20612 0.318 0.25795 0.0
C501 C 0.2059 0.25708 0.22904 0.0
C502 C 0.22782 0.32641 0.29587 0.0
C503 C 0.24997 0.27439 0.30528 0.0
C504 C 0.25046 0.21494 0.27475 0.0
C505 C 0.22858 0.20616 0.23739 0.0
C506 C 0.3001 0.22562 0.41525 0.0
C507 C 0.31266 0.29026 0.4291 0.0
C508 C 0.27975 0.22083 0.37539 0.0
C509 C 0.2717 0.2804 0.34783 0.0
C510 C 0.28428 0.3452 0.36175 0.0
C511 C 0.30443 0.35012 0.40212 0.0
H512 H 0.79346 0.14069 0.24955 0.0
H513 H 0.79336 0.36157 0.28148 0.0
H514 H 0.75648 0.15913 0.1836 0.0
H515 H 0.7552 0.37993 0.2161 0.0
H516 H 0.66966 0.19758 0.09908 0.0
H517 H 0.70432 0.18644 0.16921 0.0
H518 H 0.74917 0.37906 0.12765 0.0
H519 H 0.71348 0.39149 0.05818 0.0
C520 C 0.78525 0.19322 0.24289 0.0
C521 C 0.79637 0.24967 0.27085 0.0
C522 C 0.76382 0.20379 0.20513 0.0
C523 C 0.75261 0.27101 0.19458 0.0
C524 C 0.76358 0.32757 0.22279 0.0
C525 C 0.78531 0.31702 0.26046 0.0
C526 C 0.68683 0.23776 0.10496 0.0
C527 C 0.68897 0.29517 0.07285 0.0
C528 C 0.70686 0.23119 0.1451 0.0
C529 C 0.72987 0.28136 0.15387 0.0
C530 C 0.73157 0.33973 0.12235 0.0
C531 C 0.71123 0.3467 0.08235 0.0
H532 H 0.71078 0.35489 0.75138 0.0
H533 H 0.71121 0.13375 0.78247 0.0
H534 H 0.74806 0.33756 0.68614 0.0
H535 H 0.74983 0.11649 0.71767 0.0
H536 H 0.83417 0.30314 0.60106 0.0
H537 H 0.8002 0.31144 0.67212 0.0
H538 H 0.75604 0.11851 0.62915 0.0
H539 H 0.79114 0.10884 0.5588 0.0
C540 C 0.71916 0.30251 0.74476 0.0
C541 C 0.70799 0.24569 0.77225 0.0
C542 C 0.74079 0.2926 0.70739 0.0
C543 C 0.75223 0.22566 0.69674 0.0
C544 C 0.74129 0.16867 0.72452 0.0
C545 C 0.71931 0.17857 0.76184 0.0
C546 C 0.81732 0.26227 0.60688 0.0
C547 C 0.81513 0.20568 0.57409 0.0
C548 C 0.7977 0.26716 0.64755 0.0
C549 C 0.775 0.2162 0.65609 0.0
C550 C 0.77339 0.15843 0.62401 0.0
C551 C 0.79337 0.15306 0.58352 0.0
H552 H 0.79057 0.89122 0.04969 0.0
H553 H 0.83393 0.70002 0.09779 0.0
H554 H 0.75543 0.88531 0.12035 0.0
H555 H 0.79992 0.69547 0.16888 0.0
H556 H 0.71011 0.65428 0.24733 0.0
H557 H 0.74742 0.66935 0.18188 0.0
H558 H 0.74933 0.89138 0.20961 0.0
H559 H 0.71073 0.8764 0.2748 0.0
C560 C 0.79286 0.84853 0.0757 0.0
C561 C 0.81468 0.79555 0.06781 0.0
C562 C 0.77286 0.84532 0.11633 0.0
C563 C 0.77454 0.78938 0.15 0.0
C564 C 0.79737 0.73829 0.14305 0.0
C565 C 0.817 0.74104 0.10233 0.0
C566 C 0.71852 0.70641 0.23987 0.0
C567 C 0.70742 0.76414 0.26645 0.0
C568 C 0.74016 0.71503 0.20236 0.0
C569 C 0.75166 0.78154 0.19063 0.0
C570 C 0.74076 0.83949 0.2174 0.0
C571 C 0.7188 0.83088 0.25493 0.0
H572 H 0.66786 0.8056 0.59609 0.0
H573 H 0.70762 0.60847 0.55235 0.0
H574 H 0.70212 0.8101 0.66709 0.0
H575 H 0.74294 0.61416 0.6228 0.0
H576 H 0.79276 0.84481 0.74584 0.0
H577 H 0.75498 0.83144 0.68067 0.0
H578 H 0.74897 0.61069 0.71179 0.0
H579 H 0.788 0.62383 0.77663 0.0
C580 C 0.68402 0.76323 0.60158 0.0
C581 C 0.68523 0.70699 0.56833 0.0
C582 C 0.70381 0.76595 0.64224 0.0
C583 C 0.72566 0.713 0.6504 0.0
C584 C 0.72626 0.65558 0.61792 0.0
C585 C 0.70614 0.65249 0.57738 0.0
C586 C 0.78334 0.79333 0.73916 0.0
C587 C 0.79345 0.73536 0.76657 0.0
C588 C 0.76143 0.78573 0.70183 0.0
C589 C 0.74867 0.72004 0.69106 0.0
C590 C 0.75853 0.66193 0.71876 0.0
C591 C 0.78075 0.6695 0.7561 0.0
H592 H 0.30684 0.82426 0.93673 0.0
H593 H 0.32075 0.60303 0.91604 0.0
H594 H 0.27175 0.82625 0.86686 0.0
H595 H 0.28643 0.60543 0.84429 0.0
H596 H 0.1953 0.62692 0.75527 0.0
H597 H 0.23369 0.6176 0.82108 0.0
H598 H 0.27008 0.81948 0.78018 0.0
H599 H 0.23099 0.82984 0.71618 0.0
C600 C 0.30269 0.7761 0.91683 0.0
C601 C 0.31665 0.71351 0.93189 0.0
C602 C 0.28269 0.7773 0.87639 0.0
C603 C 0.2764 0.71612 0.84942 0.0
C604 C 0.29046 0.6534 0.86444 0.0
C605 C 0.31026 0.65206 0.90541 0.0
C606 C 0.21174 0.66889 0.76012 0.0
C607 C 0.20989 0.72946 0.73101 0.0
C608 C 0.23384 0.6635 0.79773 0.0
C609 C 0.25476 0.71828 0.80657 0.0
C610 C 0.25383 0.77713 0.7755 0.0
C611 C 0.23154 0.78288 0.73849 0.0
H612 H 0.2939 0.64405 0.25556 0.0
H613 H 0.29144 0.86543 0.22552 0.0
H614 H 0.25645 0.65921 0.32105 0.0
H615 H 0.25284 0.88043 0.29055 0.0
H616 H 0.2109 0.8845 0.449 0.0
H617 H 0.24673 0.87665 0.37946 0.0
H618 H 0.20367 0.68378 0.33364 0.0
H619 H 0.16887 0.69039 0.40373 0.0
C620 C 0.28508 0.69598 0.26255 0.0
C621 C 0.29564 0.75354 0.23524 0.0
C622 C 0.2634 0.70464 0.30002 0.0
C623 C 0.25138 0.77099 0.31092 0.0
C624 C 0.26184 0.82871 0.28347 0.0
C625 C 0.28382 0.82008 0.24605 0.0
C626 C 0.20905 0.84071 0.42383 0.0
C627 C 0.18733 0.78765 0.43214 0.0
C628 C 0.22946 0.83636 0.38384 0.0
C629 C 0.22834 0.77914 0.35123 0.0
C630 C 0.20574 0.72766 0.35867 0.0
C631 C 0.18565 0.73162 0.39877 0.0
H632 H 0.03562 0.25306 0.11731 0.0
H633 H 0.09309 0.30698 0.24169 0.0
H634 H 0.99003 0.26655 0.16768 0.0
H635 H 0.04729 0.32768 0.29192 0.0
H636 H 0.96557 0.25575 0.38471 0.0
H637 H 0.01116 0.26967 0.3344 0.0
H638 H 0.95371 0.32533 0.2091 0.0
H639 H 0.90798 0.30417 0.25934 0.0
C640 C 0.03829 0.27036 0.15525 0.0
C641 C 0.06768 0.27893 0.17584 0.0
C642 C 0.01205 0.27872 0.18433 0.0
C643 C 0.01451 0.29795 0.23453 0.0
C644 C 0.04418 0.31073 0.25405 0.0
C645 C 0.07053 0.29979 0.22527 0.0
C646 C 0.96285 0.27209 0.34657 0.0
C647 C 0.93345 0.27887 0.3257 0.0
C648 C 0.98909 0.28062 0.31749 0.0
C649 C 0.98659 0.29818 0.267 0.0
C650 C 0.95687 0.30956 0.24721 0.0
C651 C 0.93056 0.29843 0.27601 0.0
H652 H 0.4646 0.24448 0.61811 0.0
H653 H 0.40694 0.20134 0.74413 0.0
H654 H 0.5102 0.23018 0.6686 0.0
H655 H 0.45262 0.17987 0.79462 0.0
H656 H 0.59201 0.19115 0.7612 0.0
H657 H 0.54586 0.1711 0.7116 0.0
H658 H 0.48964 0.23781 0.83534 0.0
H659 H 0.53551 0.25081 0.88524 0.0
C660 C 0.46185 0.22928 0.65648 0.0
C661 C 0.43244 0.22403 0.67743 0.0
C662 C 0.48808 0.22051 0.68565 0.0
C663 C 0.48557 0.20421 0.73635 0.0
C664 C 0.45581 0.19456 0.75632 0.0
C665 C 0.42952 0.2059 0.72739 0.0
C666 C 0.56959 0.19967 0.77774 0.0
C667 C 0.56718 0.22214 0.82689 0.0
C668 C 0.54305 0.18913 0.74926 0.0
C669 C 0.51358 0.20382 0.76875 0.0
C670 C 0.51149 0.2243 0.81873 0.0
C671 C 0.53792 0.23232 0.84755 0.0
H672 H 0.09428 0.67058 0.74475 0.0
H673 H 0.0368 0.7171 0.61877 0.0
H674 H 0.0485 0.64585 0.79405 0.0
H675 H 0.99121 0.69931 0.66814 0.0
H676 H 0.90918 0.66237 0.75848 0.0
H677 H 0.95547 0.63906 0.71011 0.0
H678 H 0.01148 0.70388 0.83482 0.0
H679 H 0.96546 0.72015 0.88351 0.0
C680 C 0.07176 0.6751 0.72769 0.0
C681 C 0.06896 0.69552 0.67812 0.0
C682 C 0.04542 0.66179 0.75596 0.0
C683 C 0.01571 0.67159 0.73575 0.0
C684 C 0.0133 0.68955 0.68534 0.0
C685 C 0.03958 0.70037 0.6568 0.0
C686 C 0.93156 0.66951 0.77557 0.0
C687 C 0.93388 0.69276 0.82456 0.0
C688 C 0.95818 0.65713 0.74779 0.0
C689 C 0.98764 0.67082 0.76782 0.0
C690 C 0.98962 0.69125 0.8178 0.0
C691 C 0.96309 0.70111 0.84594 0.0
H692 H 0.45232 0.85713 0.12774 0.0
H693 H 0.41426 0.74478 0.25229 0.0
H694 H 0.49925 0.8792 0.17498 0.0
H695 H 0.46103 0.76797 0.29946 0.0
H696 H 0.54382 0.84518 0.38159 0.0
H697 H 0.49609 0.86408 0.33586 0.0
H698 H 0.53937 0.7874 0.20285 0.0
H699 H 0.58704 0.76744 0.2484 0.0
C700 C 0.45359 0.83854 0.16552 0.0
C701 C 0.42968 0.79816 0.18596 0.0
C702 C 0.48052 0.85114 0.19245 0.0
C703 C 0.48379 0.82489 0.24064 0.0
C704 C 0.45901 0.78922 0.26244 0.0
C705 C 0.43228 0.77564 0.2353 0.0
C706 C 0.54347 0.83376 0.34236 0.0
C707 C 0.56917 0.80367 0.31885 0.0
C708 C 0.51606 0.84448 0.31629 0.0
C709 C 0.51401 0.82664 0.26603 0.0
C710 C 0.54039 0.80198 0.24155 0.0
C711 C 0.56766 0.79026 0.26774 0.0
H712 H 0.05523 0.16396 0.9739 0.0
H713 H 0.07907 0.00188 0.0784 0.0
H714 H 0.00967 0.09904 0.94984 0.0
H715 H 0.03417 0.93511 0.05252 0.0
H716 H 0.93408 0.86802 0.03469 0.0
H717 H 0.97982 0.93367 0.05891 0.0
H718 H 0.99174 0.00106 0.90742 0.0
H719 H 0.9455 0.93876 0.88392 0.0
C720 C 0.05111 0.11382 0.99112 0.0
C721 C 0.07087 0.08835 0.0282 0.0
C722 C 0.02493 0.0763 0.97715 0.0
C723 C 0.01802 0.01176 0.99935 0.0
C724 C 0.03833 0.98525 0.03534 0.0
C725 C 0.06434 0.02323 0.04978 0.0
C726 C 0.94632 0.89747 0.00672 0.0
C727 C 0.93593 0.89837 0.95744 0.0
C728 C 0.97277 0.93456 0.02046 0.0
C729 C 0.98966 0.97268 0.98512 0.0
C730 C 0.97913 0.97351 0.93591 0.0
C731 C 0.95255 0.93734 0.92235 0.0
H732 H 0.56039 0.54857 0.38656 0.0
H733 H 0.56549 0.63813 0.53315 0.0
H734 H 0.51412 0.48615 0.40943 0.0
H735 H 0.51984 0.57228 0.55709 0.0
H736 H 0.42083 0.50327 0.57177 0.0
H737 H 0.46621 0.56793 0.54602 0.0
H738 H 0.49435 0.39364 0.45506 0.0
H739 H 0.44814 0.33071 0.47872 0.0
C740 C 0.55196 0.55409 0.42404 0.0
C741 C 0.56673 0.59861 0.45799 0.0
C742 C 0.52536 0.51781 0.43728 0.0
C743 C 0.513 0.52405 0.48514 0.0
C744 C 0.52824 0.56723 0.51956 0.0
C745 C 0.55466 0.60447 0.50604 0.0
C746 C 0.43646 0.47913 0.54568 0.0
C747 C 0.43075 0.41173 0.52728 0.0
C748 C 0.46277 0.51594 0.53138 0.0
C749 C 0.4843 0.48593 0.49885 0.0
C750 C 0.4782 0.41903 0.47967 0.0
C751 C 0.45164 0.38268 0.49337 0.0
H752 H 0.42299 0.51202 0.07471 0.0
H753 H 0.45199 0.69033 0.98865 0.0
H754 H 0.46905 0.44938 0.04972 0.0
H755 H 0.49878 0.62885 0.96545 0.0
H756 H 0.56499 0.47385 0.89478 0.0
H757 H 0.51894 0.53735 0.91772 0.0
H758 H 0.52274 0.44627 0.06398 0.0
H759 H 0.5682 0.3798 0.04014 0.0
C760 C 0.43914 0.53787 0.05032 0.0
C761 C 0.4337 0.60627 0.03365 0.0
C762 C 0.46582 0.50217 0.03646 0.0
C763 C 0.48795 0.53419 0.00603 0.0
C764 C 0.48216 0.6021 0.98849 0.0
C765 C 0.45528 0.63752 0.00187 0.0
C766 C 0.55622 0.46756 0.93201 0.0
C767 C 0.57033 0.42132 0.96554 0.0
C768 C 0.52976 0.50442 0.94526 0.0
C769 C 0.51687 0.4968 0.99264 0.0
C770 C 0.53159 0.45233 0.02678 0.0
C771 C 0.5579 0.41474 0.01331 0.0
H772 H 0.05973 0.94339 0.61559 0.0
H773 H 0.06853 0.86652 0.46589 0.0
H774 H 0.01337 0.0058 0.59263 0.0
H775 H 0.02278 0.9322 0.44212 0.0
H776 H 0.92343 0.99842 0.42481 0.0
H777 H 0.96878 0.93334 0.45054 0.0
H778 H 0.99408 0.10149 0.54922 0.0
H779 H 0.94799 0.16477 0.5254 0.0
C780 C 0.0521 0.94072 0.57748 0.0
C781 C 0.06794 0.89979 0.54259 0.0
C782 C 0.02545 0.97692 0.56421 0.0
C783 C 0.01411 0.97413 0.51549 0.0
C784 C 0.0304 0.9345 0.48026 0.0
C785 C 0.05687 0.8974 0.49373 0.0
C786 C 0.93843 0.02109 0.45253 0.0
C787 C 0.93196 0.08689 0.47305 0.0
C788 C 0.96471 0.98408 0.46687 0.0
C789 C 0.98542 0.01228 0.50162 0.0
C790 C 0.97856 0.0775 0.52285 0.0
C791 C 0.95207 0.11406 0.50903 0.0
loop_
_geom_bond_atom_site_label_1
_geom_bond_atom_site_label_2
_geom_bond_distance
_geom_bond_site_symmetry_2
_ccdc_geom_bond_type
Co0 O2 2.143 . S
Co0 O8 2.074 . S
Co0 O11 2.093 1_554 S
Co0 O24 2.097 . S
Co0 N41 2.151 . S
Co0 N49 2.214 . S
Co1 O2 2.160 . S
Co1 O7 2.058 . S
Co1 O17 2.057 . S
Co1 O32 2.037 . S
Co1 N36 2.145 . S
Co1 N57 2.257 . S
O2 Co0 2.143 . S
O2 Co1 2.160 . S
C3 O4 1.275 1_556 S
C3 O11 1.225 . S
O4 C3 1.275 1_554 S
C5 O6 1.245 . S
C5 O17 1.232 . S
O6 C5 1.245 . S
O7 Co1 2.058 . S
O7 C33 1.269 . S
O8 Co0 2.074 . S
O8 C33 1.257 . S
H9 C34 0.934 . S
H10 C40 0.930 . S
O11 Co0 2.093 1_556 S
O11 C3 1.225 . S
H12 C44 0.929 . S
H13 C46 0.930 . S
H14 C47 0.930 . S
H15 C45 0.929 . S
H16 C48 0.928 . S
O17 Co1 2.057 . S
O17 C5 1.232 . S
H18 C37 0.929 . S
H19 C38 0.929 . S
H20 C50 0.931 . S
H21 C42 0.929 . S
H22 C51 0.930 . S
H23 C43 0.931 . S
O24 Co0 2.097 . S
O24 C52 1.214 . S
H25 C53 0.929 . S
H26 C54 0.929 . S
H27 C55 0.930 . S
H28 C56 0.929 1_565 S
H29 C58 0.930 . S
H30 C35 0.930 . S
H31 C39 0.930 . S
O32 Co1 2.037 . S
O32 C52 1.234 . S
C33 O7 1.269 . S
C33 O8 1.257 . S
C34 H9 0.934 . S
C34 C37 1.388 . S
C34 C39 1.418 1_545 S
C35 H30 0.930 . S
C35 C38 1.404 . S
C35 C39 1.353 1_545 S
N36 Co1 2.145 . S
N36 C37 1.397 . S
N36 C38 1.334 . S
C37 H18 0.929 . S
C37 C34 1.388 . S
C37 N36 1.397 . S
C38 H19 0.929 . S
C38 C35 1.404 . S
C38 N36 1.334 . S
C39 H31 0.930 . S
C39 C34 1.418 1_565 S
C39 C35 1.353 1_565 S
C40 H10 0.930 . S
C40 N41 1.330 . S
C40 C42 1.446 . S
N41 Co0 2.151 . S
N41 C40 1.330 . S
N41 C45 1.418 . S
C42 H21 0.929 . S
C42 C40 1.446 . S
C42 C43 1.332 . S
C43 H23 0.931 . S
C43 C42 1.332 . S
C43 C44 1.267 . S
C44 H12 0.929 . S
C44 C43 1.267 . S
C44 C45 1.251 . S
C45 H15 0.929 . S
C45 N41 1.418 . S
C45 C44 1.251 . S
C46 H13 0.930 . S
C46 C48 1.406 . S
C46 C51 1.261 . S
C47 H14 0.930 . S
C47 N49 1.325 . S
C47 C50 1.357 1_554 S
C48 H16 0.928 . S
C48 C46 1.406 . S
C48 N49 1.261 1_556 S
N49 Co0 2.214 . S
N49 C47 1.325 . S
N49 C48 1.261 1_554 S
C50 H20 0.931 . S
C50 C47 1.357 1_556 S
C50 C51 1.312 . S
C51 H22 0.930 . S
C51 C46 1.261 . S
C51 C50 1.312 . S
C52 O24 1.214 . S
C52 O32 1.234 . S
C53 H25 0.929 . S
C53 C56 1.391 . S
C53 C58 1.391 . S
C54 H26 0.929 . S
C54 C55 1.390 1_545 S
C54 N57 1.391 . S
C55 H27 0.930 . S
C55 C54 1.390 1_565 S
C55 C56 1.392 1_565 S
C56 H28 0.929 1_545 S
C56 C53 1.391 . S
C56 C55 1.392 1_545 S
N57 Co1 2.257 . S
N57 C54 1.391 . S
N57 C58 1.388 . S
C58 H29 0.930 . S
C58 C53 1.391 . S
C58 N57 1.388 . S
Co59 O61 2.143 . S
Co59 O67 2.074 . S
Co59 O70 2.093 . S
Co59 O83 2.097 . S
Co59 N100 2.151 . S
Co59 N108 2.214 . S
Co60 O61 2.160 . S
Co60 O66 2.058 . S
Co60 O76 2.057 . S
Co60 O91 2.037 . S
Co60 N95 2.145 . S
Co60 N116 2.257 . S
O61 Co59 2.143 . S
O61 Co60 2.160 . S
C62 O63 1.278 . S
C62 O70 1.224 . S
O63 C62 1.278 . S
C64 O65 1.245 . S
C64 O76 1.232 . S
O65 C64 1.245 . S
O66 Co60 2.058 . S
O66 C92 1.269 . S
O67 Co59 2.074 . S
O67 C92 1.257 . S
H68 C93 0.930 . S
H69 C99 0.930 . S
O70 Co59 2.093 . S
O70 C62 1.224 . S
H71 C103 0.929 . S
H72 C105 0.930 . S
H73 C106 0.930 . S
H74 C104 0.929 . S
H75 C107 0.928 . S
O76 Co60 2.057 . S
O76 C64 1.232 . S
H77 C96 0.929 . S
H78 C97 0.929 . S
H79 C109 0.931 . S
H80 C101 0.932 . S
H81 C110 0.930 . S
H82 C102 0.931 . S
O83 Co59 2.097 . S
O83 C111 1.214 . S
H84 C112 0.929 . S
H85 C113 0.929 . S
H86 C114 0.930 . S
H87 C115 0.929 . S
H88 C117 0.930 . S
H89 C94 0.930 . S
H90 C98 0.930 . S
O91 Co60 2.037 . S
O91 C111 1.234 . S
C92 O66 1.269 . S
C92 O67 1.257 . S
C93 H68 0.930 . S
C93 C96 1.388 . S
C93 C98 1.418 . S
C94 H89 0.930 . S
C94 C97 1.404 . S
C94 C98 1.353 . S
N95 Co60 2.145 . S
N95 C96 1.397 . S
N95 C97 1.334 . S
C96 H77 0.929 . S
C96 C93 1.388 . S
C96 N95 1.397 . S
C97 H78 0.929 . S
C97 C94 1.404 . S
C97 N95 1.334 . S
C98 H90 0.930 . S
C98 C93 1.418 . S
C98 C94 1.353 . S
C99 H69 0.930 . S
C99 N100 1.330 . S
C99 C101 1.438 1_545 S
N100 Co59 2.151 . S
N100 C99 1.330 . S
N100 C104 1.418 . S
C101 H80 0.932 . S
C101 C99 1.438 1_565 S
C101 C102 1.337 . S
C102 H82 0.931 . S
C102 C101 1.337 . S
C102 C103 1.267 . S
C103 H71 0.929 . S
C103 C102 1.267 . S
C103 C104 1.251 1_565 S
C104 H74 0.929 . S
C104 N100 1.418 . S
C104 C103 1.251 1_545 S
C105 H72 0.930 . S
C105 C107 1.406 . S
C105 C110 1.261 . S
C106 H73 0.930 . S
C106 N108 1.325 . S
C106 C109 1.357 . S
C107 H75 0.928 . S
C107 C105 1.406 . S
C107 N108 1.261 . S
N108 Co59 2.214 . S
N108 C106 1.325 . S
N108 C107 1.261 . S
C109 H79 0.931 . S
C109 C106 1.357 . S
C109 C110 1.312 . S
C110 H81 0.930 . S
C110 C105 1.261 . S
C110 C109 1.312 . S
C111 O83 1.214 . S
C111 O91 1.234 . S
C112 H84 0.929 . S
C112 C115 1.391 . S
C112 C117 1.391 . S
C113 H85 0.929 . S
C113 C114 1.390 . S
C113 N116 1.391 . S
C114 H86 0.930 . S
C114 C113 1.390 . S
C114 C115 1.392 . S
C115 H87 0.929 . S
C115 C112 1.391 . S
C115 C114 1.392 . S
N116 Co60 2.257 . S
N116 C113 1.391 . S
N116 C117 1.388 . S
C117 H88 0.930 . S
C117 C112 1.391 . S
C117 N116 1.388 . S
Co118 O120 2.143 . S
Co118 O126 2.074 . S
Co118 O129 2.093 1_556 S
Co118 O142 2.097 . S
Co118 N159 2.151 . S
Co118 N167 2.214 . S
Co119 O120 2.160 . S
Co119 O125 2.058 . S
Co119 O135 2.057 . S
Co119 O150 2.037 . S
Co119 N154 2.145 . S
Co119 N175 2.257 . S
O120 Co118 2.143 . S
O120 Co119 2.160 . S
C121 O122 1.275 1_554 S
C121 O129 1.225 . S
O122 C121 1.275 1_556 S
C123 O124 1.245 . S
C123 O135 1.232 . S
O124 C123 1.245 . S
O125 Co119 2.058 . S
O125 C151 1.269 . S
O126 Co118 2.074 . S
O126 C151 1.257 . S
H127 C152 0.930 . S
H128 C158 0.930 . S
O129 Co118 2.093 1_554 S
O129 C121 1.225 . S
H130 C162 0.929 . S
H131 C164 0.930 . S
H132 C165 0.930 . S
H133 C163 0.929 . S
H134 C166 0.928 . S
O135 Co119 2.057 . S
O135 C123 1.232 . S
H136 C155 0.929 . S
H137 C156 0.929 . S
H138 C168 0.931 . S
H139 C160 0.932 . S
H140 C169 0.930 . S
H141 C161 0.931 . S
O142 Co118 2.097 . S
O142 C170 1.214 . S
H143 C171 0.929 . S
H144 C172 0.929 . S
H145 C173 0.930 . S
H146 C174 0.929 . S
H147 C176 0.930 . S
H148 C153 0.930 . S
H149 C157 0.930 . S
O150 Co119 2.037 . S
O150 C170 1.234 . S
C151 O125 1.269 . S
C151 O126 1.257 . S
C152 H127 0.930 . S
C152 C155 1.388 . S
C152 C157 1.418 . S
C153 H148 0.930 . S
C153 C156 1.404 . S
C153 C157 1.353 . S
N154 Co119 2.145 . S
N154 C155 1.397 . S
N154 C156 1.334 . S
C155 H136 0.929 . S
C155 C152 1.388 . S
C155 N154 1.397 . S
C156 H137 0.929 . S
C156 C153 1.404 . S
C156 N154 1.334 . S
C157 H149 0.930 . S
C157 C152 1.418 . S
C157 C153 1.353 . S
C158 H128 0.930 . S
C158 N159 1.330 . S
C158 C160 1.439 1_545 S
N159 Co118 2.151 . S
N159 C158 1.330 . S
N159 C163 1.418 . S
C160 H139 0.932 . S
C160 C158 1.439 1_565 S
C160 C161 1.336 . S
C161 H141 0.931 . S
C161 C160 1.336 . S
C161 C162 1.267 . S
C162 H130 0.929 . S
C162 C161 1.267 . S
C162 C163 1.251 1_565 S
C163 H133 0.929 . S
C163 N159 1.418 . S
C163 C162 1.251 1_545 S
C164 H131 0.930 . S
C164 C166 1.406 . S
C164 C169 1.261 . S
C165 H132 0.930 . S
C165 N167 1.325 . S
C165 C168 1.357 1_556 S
C166 H134 0.928 . S
C166 C164 1.406 . S
C166 N167 1.261 1_554 S
N167 Co118 2.214 . S
N167 C165 1.325 . S
N167 C166 1.261 1_556 S
C168 H138 0.931 . S
C168 C165 1.357 1_554 S
C168 C169 1.312 . S
C169 H140 0.930 . S
C169 C164 1.261 . S
C169 C168 1.312 . S
C170 O142 1.214 . S
C170 O150 1.234 . S
C171 H143 0.929 . S
C171 C174 1.391 . S
C171 C176 1.391 . S
C172 H144 0.929 . S
C172 C173 1.390 . S
C172 N175 1.391 . S
C173 H145 0.930 . S
C173 C172 1.390 . S
C173 C174 1.392 . S
C174 H146 0.929 . S
C174 C171 1.391 . S
C174 C173 1.392 . S
N175 Co119 2.257 . S
N175 C172 1.391 . S
N175 C176 1.388 . S
C176 H147 0.930 . S
C176 C171 1.391 . S
C176 N175 1.388 . S
Co177 O179 2.143 . S
Co177 O185 2.074 . S
Co177 O188 2.093 . S
Co177 O201 2.097 . S
Co177 N218 2.151 . S
Co177 N226 2.214 . S
Co178 O179 2.160 . S
Co178 O184 2.058 . S
Co178 O194 2.057 . S
Co178 O209 2.037 . S
Co178 N213 2.145 . S
Co178 N234 2.257 . S
O179 Co177 2.143 . S
O179 Co178 2.160 . S
C180 O181 1.278 . S
C180 O188 1.224 . S
O181 C180 1.278 . S
C182 O183 1.245 . S
C182 O194 1.232 . S
O183 C182 1.245 . S
O184 Co178 2.058 . S
O184 C210 1.269 . S
O185 Co177 2.074 . S
O185 C210 1.257 . S
H186 C211 0.934 . S
H187 C217 0.930 . S
O188 Co177 2.093 . S
O188 C180 1.224 . S
H189 C221 0.929 . S
H190 C223 0.930 . S
H191 C224 0.930 . S
H192 C222 0.929 . S
H193 C225 0.928 . S
O194 Co178 2.057 . S
O194 C182 1.232 . S
H195 C214 0.929 . S
H196 C215 0.929 . S
H197 C227 0.931 . S
H198 C219 0.929 . S
H199 C228 0.930 . S
H200 C220 0.931 . S
O201 Co177 2.097 . S
O201 C229 1.214 . S
H202 C230 0.929 . S
H203 C231 0.929 . S
H204 C232 0.930 . S
H205 C233 0.929 1_565 S
H206 C235 0.930 . S
H207 C212 0.930 . S
H208 C216 0.930 . S
O209 Co178 2.037 . S
O209 C229 1.234 . S
C210 O184 1.269 . S
C210 O185 1.257 . S
C211 H186 0.934 . S
C211 C214 1.388 . S
C211 C216 1.418 1_545 S
C212 H207 0.930 . S
C212 C215 1.404 . S
C212 C216 1.353 1_545 S
N213 Co178 2.145 . S
N213 C214 1.397 . S
N213 C215 1.334 . S
C214 H195 0.929 . S
C214 C211 1.388 . S
C214 N213 1.397 . S
C215 H196 0.929 . S
C215 C212 1.404 . S
C215 N213 1.334 . S
C216 H208 0.930 . S
C216 C211 1.418 1_565 S
C216 C212 1.353 1_565 S
C217 H187 0.930 . S
C217 N218 1.330 . S
C217 C219 1.446 . S
N218 Co177 2.151 . S
N218 C217 1.330 . S
N218 C222 1.418 . S
C219 H198 0.929 . S
C219 C217 1.446 . S
C219 C220 1.332 . S
C220 H200 0.931 . S
C220 C219 1.332 . S
C220 C221 1.267 . S
C221 H189 0.929 . S
C221 C220 1.267 . S
C221 C222 1.251 . S
C222 H192 0.929 . S
C222 N218 1.418 . S
C222 C221 1.251 . S
C223 H190 0.930 . S
C223 C225 1.406 . S
C223 C228 1.261 . S
C224 H191 0.930 . S
C224 N226 1.325 . S
C224 C227 1.357 . S
C225 H193 0.928 . S
C225 C223 1.406 . S
C225 N226 1.261 . S
N226 Co177 2.214 . S
N226 C224 1.325 . S
N226 C225 1.261 . S
C227 H197 0.931 . S
C227 C224 1.357 . S
C227 C228 1.312 . S
C228 H199 0.930 . S
C228 C223 1.261 . S
C228 C227 1.312 . S
C229 O201 1.214 . S
C229 O209 1.234 . S
C230 H202 0.929 . S
C230 C233 1.391 . S
C230 C235 1.391 . S
C231 H203 0.929 . S
C231 C232 1.390 1_545 S
C231 N234 1.391 . S
C232 H204 0.930 . S
C232 C231 1.390 1_565 S
C232 C233 1.392 1_565 S
C233 H205 0.929 1_545 S
C233 C230 1.391 . S
C233 C232 1.392 1_545 S
N234 Co178 2.257 . S
N234 C231 1.391 . S
N234 C235 1.388 . S
C235 H206 0.930 . S
C235 C230 1.391 . S
C235 N234 1.388 . S
Co236 O238 2.143 . S
Co236 O244 2.074 . S
Co236 O247 2.093 . S
Co236 O260 2.097 . S
Co236 N277 2.151 . S
Co236 N285 2.214 . S
Co237 O238 2.160 . S
Co237 O243 2.058 . S
Co237 O253 2.057 . S
Co237 O268 2.037 . S
Co237 N272 2.145 . S
Co237 N293 2.257 . S
O238 Co236 2.143 . S
O238 Co237 2.160 . S
C239 O240 1.278 . S
C239 O247 1.224 . S
O240 C239 1.278 . S
C241 O242 1.245 . S
C241 O253 1.232 . S
O242 C241 1.245 . S
O243 Co237 2.058 . S
O243 C269 1.269 . S
O244 Co236 2.074 . S
O244 C269 1.257 . S
H245 C270 0.930 . S
H246 C276 0.930 . S
O247 Co236 2.093 . S
O247 C239 1.224 . S
H248 C280 0.929 . S
H249 C282 0.930 1_545 S
H250 C283 0.930 . S
H251 C281 0.929 . S
H252 C284 0.928 . S
O253 Co237 2.057 . S
O253 C241 1.232 . S
H254 C273 0.929 . S
H255 C274 0.929 . S
H256 C286 0.931 . S
H257 C278 0.929 . S
H258 C287 0.930 1_545 S
H259 C279 0.931 . S
O260 Co236 2.097 . S
O260 C288 1.214 . S
H261 C289 0.929 . S
H262 C290 0.929 . S
H263 C291 0.930 . S
H264 C292 0.929 . S
H265 C294 0.930 . S
H266 C271 0.930 . S
H267 C275 0.930 . S
O268 Co237 2.037 . S
O268 C288 1.234 . S
C269 O243 1.269 . S
C269 O244 1.257 . S
C270 H245 0.930 . S
C270 C273 1.388 1_554 S
C270 C275 1.418 . S
C271 H266 0.930 . S
C271 C274 1.404 . S
C271 C275 1.353 . S
N272 Co237 2.145 . S
N272 C273 1.397 . S
N272 C274 1.334 1_556 S
C273 H254 0.929 . S
C273 C270 1.388 1_556 S
C273 N272 1.397 . S
C274 H255 0.929 . S
C274 C271 1.404 . S
C274 N272 1.334 1_554 S
C275 H267 0.930 . S
C275 C270 1.418 . S
C275 C271 1.353 . S
C276 H246 0.930 . S
C276 N277 1.330 . S
C276 C278 1.446 . S
N277 Co236 2.151 . S
N277 C276 1.330 . S
N277 C281 1.418 . S
C278 H257 0.929 . S
C278 C276 1.446 . S
C278 C279 1.332 1_565 S
C279 H259 0.931 . S
C279 C278 1.332 1_545 S
C279 C280 1.267 . S
C280 H248 0.929 . S
C280 C279 1.267 . S
C280 C281 1.251 1_545 S
C281 H251 0.929 . S
C281 N277 1.418 . S
C281 C280 1.251 1_565 S
C282 H249 0.930 1_565 S
C282 C284 1.406 . S
C282 C287 1.261 . S
C283 H250 0.930 . S
C283 N285 1.325 . S
C283 C286 1.357 . S
C284 H252 0.928 . S
C284 C282 1.406 . S
C284 N285 1.261 . S
N285 Co236 2.214 . S
N285 C283 1.325 . S
N285 C284 1.261 . S
C286 H256 0.931 . S
C286 C283 1.357 . S
C286 C287 1.312 . S
C287 H258 0.930 1_565 S
C287 C282 1.261 . S
C287 C286 1.312 . S
C288 O260 1.214 . S
C288 O268 1.234 . S
C289 H261 0.929 . S
C289 C292 1.391 . S
C289 C294 1.391 . S
C290 H262 0.929 . S
C290 C291 1.390 . S
C290 N293 1.391 . S
C291 H263 0.930 . S
C291 C290 1.390 . S
C291 C292 1.392 . S
C292 H264 0.929 . S
C292 C289 1.391 . S
C292 C291 1.392 . S
N293 Co237 2.257 . S
N293 C290 1.391 . S
N293 C294 1.388 . S
C294 H265 0.930 . S
C294 C289 1.391 . S
C294 N293 1.388 . S
Co295 O297 2.143 . S
Co295 O303 2.074 . S
Co295 O306 2.093 . S
Co295 O319 2.097 . S
Co295 N336 2.151 . S
Co295 N344 2.214 . S
Co296 O297 2.160 . S
Co296 O302 2.058 . S
Co296 O312 2.057 . S
Co296 O327 2.037 . S
Co296 N331 2.145 . S
Co296 N352 2.257 . S
O297 Co295 2.143 . S
O297 Co296 2.160 . S
C298 O299 1.278 . S
C298 O306 1.224 . S
O299 C298 1.278 . S
C300 O301 1.245 . S
C300 O312 1.232 . S
O301 C300 1.245 . S
O302 Co296 2.058 . S
O302 C328 1.269 . S
O303 Co295 2.074 . S
O303 C328 1.257 . S
H304 C329 0.930 . S
H305 C335 0.930 . S
O306 Co295 2.093 . S
O306 C298 1.224 . S
H307 C339 0.929 . S
H308 C341 0.930 . S
H309 C342 0.930 . S
H310 C340 0.929 . S
H311 C343 0.928 . S
O312 Co296 2.057 . S
O312 C300 1.232 . S
H313 C332 0.929 . S
H314 C333 0.929 . S
H315 C345 0.931 . S
H316 C337 0.929 . S
H317 C346 0.930 . S
H318 C338 0.931 . S
O319 Co295 2.097 . S
O319 C347 1.214 . S
H320 C348 0.929 . S
H321 C349 0.929 . S
H322 C350 0.930 . S
H323 C351 0.929 . S
H324 C353 0.930 . S
H325 C330 0.930 . S
H326 C334 0.930 . S
O327 Co296 2.037 . S
O327 C347 1.234 . S
C328 O302 1.269 . S
C328 O303 1.257 . S
C329 H304 0.930 . S
C329 C332 1.388 . S
C329 C334 1.418 . S
C330 H325 0.930 . S
C330 C333 1.404 . S
C330 C334 1.353 . S
N331 Co296 2.145 . S
N331 C332 1.397 . S
N331 C333 1.334 . S
C332 H313 0.929 . S
C332 C329 1.388 . S
C332 N331 1.397 . S
C333 H314 0.929 . S
C333 C330 1.404 . S
C333 N331 1.334 . S
C334 H326 0.930 . S
C334 C329 1.418 . S
C334 C330 1.353 . S
C335 H305 0.930 . S
C335 N336 1.330 . S
C335 C337 1.446 . S
N336 Co295 2.151 . S
N336 C335 1.330 . S
N336 C340 1.418 . S
C337 H316 0.929 . S
C337 C335 1.446 . S
C337 C338 1.332 . S
C338 H318 0.931 . S
C338 C337 1.332 . S
C338 C339 1.267 . S
C339 H307 0.929 . S
C339 C338 1.267 . S
C339 C340 1.251 . S
C340 H310 0.929 . S
C340 N336 1.418 . S
C340 C339 1.251 . S
C341 H308 0.930 . S
C341 C343 1.406 . S
C341 C346 1.261 . S
C342 H309 0.930 . S
C342 N344 1.325 . S
C342 C345 1.357 . S
C343 H311 0.928 . S
C343 C341 1.406 . S
C343 N344 1.261 . S
N344 Co295 2.214 . S
N344 C342 1.325 . S
N344 C343 1.261 . S
C345 H315 0.931 . S
C345 C342 1.357 . S
C345 C346 1.312 . S
C346 H317 0.930 . S
C346 C341 1.261 . S
C346 C345 1.312 . S
C347 O319 1.214 . S
C347 O327 1.234 . S
C348 H320 0.929 . S
C348 C351 1.391 1_565 S
C348 C353 1.391 . S
C349 H321 0.929 . S
C349 C350 1.390 1_565 S
C349 N352 1.391 . S
C350 H322 0.930 . S
C350 C349 1.390 1_545 S
C350 C351 1.392 . S
C351 H323 0.929 . S
C351 C348 1.391 1_545 S
C351 C350 1.392 . S
N352 Co296 2.257 . S
N352 C349 1.391 . S
N352 C353 1.388 . S
C353 H324 0.930 . S
C353 C348 1.391 . S
C353 N352 1.388 . S
Co354 O356 2.143 . S
Co354 O362 2.074 . S
Co354 O365 2.093 . S
Co354 O378 2.097 . S
Co354 N395 2.151 . S
Co354 N403 2.214 . S
Co355 O356 2.160 . S
Co355 O361 2.058 . S
Co355 O371 2.057 . S
Co355 O386 2.037 . S
Co355 N390 2.145 . S
Co355 N411 2.257 . S
O356 Co354 2.143 . S
O356 Co355 2.160 . S
C357 O358 1.278 . S
C357 O365 1.224 . S
O358 C357 1.278 . S
C359 O360 1.245 . S
C359 O371 1.232 . S
O360 C359 1.245 . S
O361 Co355 2.058 . S
O361 C387 1.269 . S
O362 Co354 2.074 . S
O362 C387 1.257 . S
H363 C388 0.930 . S
H364 C394 0.930 . S
O365 Co354 2.093 . S
O365 C357 1.224 . S
H366 C398 0.929 . S
H367 C400 0.930 . S
H368 C401 0.930 . S
H369 C399 0.929 . S
H370 C402 0.928 . S
O371 Co355 2.057 . S
O371 C359 1.232 . S
H372 C391 0.929 . S
H373 C392 0.929 . S
H374 C404 0.931 . S
H375 C396 0.929 . S
H376 C405 0.930 . S
H377 C397 0.931 . S
O378 Co354 2.097 . S
O378 C406 1.214 . S
H379 C407 0.929 . S
H380 C408 0.929 . S
H381 C409 0.930 . S
H382 C410 0.929 . S
H383 C412 0.930 . S
H384 C389 0.930 . S
H385 C393 0.930 . S
O386 Co355 2.037 . S
O386 C406 1.234 . S
C387 O361 1.269 . S
C387 O362 1.257 . S
C388 H363 0.930 . S
C388 C391 1.388 1_556 S
C388 C393 1.418 . S
C389 H384 0.930 . S
C389 C392 1.404 . S
C389 C393 1.353 . S
N390 Co355 2.145 . S
N390 C391 1.397 . S
N390 C392 1.334 1_554 S
C391 H372 0.929 . S
C391 C388 1.388 1_554 S
C391 N390 1.397 . S
C392 H373 0.929 . S
C392 C389 1.404 . S
C392 N390 1.334 1_556 S
C393 H385 0.930 . S
C393 C388 1.418 . S
C393 C389 1.353 . S
C394 H364 0.930 . S
C394 N395 1.330 . S
C394 C396 1.446 . S
N395 Co354 2.151 . S
N395 C394 1.330 . S
N395 C399 1.418 . S
C396 H375 0.929 . S
C396 C394 1.446 . S
C396 C397 1.332 . S
C397 H377 0.931 . S
C397 C396 1.332 . S
C397 C398 1.267 . S
C398 H366 0.929 . S
C398 C397 1.267 . S
C398 C399 1.251 . S
C399 H369 0.929 . S
C399 N395 1.418 . S
C399 C398 1.251 . S
C400 H367 0.930 . S
C400 C402 1.406 . S
C400 C405 1.261 . S
C401 H368 0.930 . S
C401 N403 1.325 . S
C401 C404 1.357 . S
C402 H370 0.928 . S
C402 C400 1.406 . S
C402 N403 1.261 . S
N403 Co354 2.214 . S
N403 C401 1.325 . S
N403 C402 1.261 . S
C404 H374 0.931 . S
C404 C401 1.357 . S
C404 C405 1.312 . S
C405 H376 0.930 . S
C405 C400 1.261 . S
C405 C404 1.312 . S
C406 O378 1.214 . S
C406 O386 1.234 . S
C407 H379 0.929 . S
C407 C410 1.391 1_565 S
C407 C412 1.391 . S
C408 H380 0.929 . S
C408 C409 1.390 1_565 S
C408 N411 1.391 . S
C409 H381 0.930 . S
C409 C408 1.390 1_545 S
C409 C410 1.392 . S
C410 H382 0.929 . S
C410 C407 1.391 1_545 S
C410 C409 1.392 . S
N411 Co355 2.257 . S
N411 C408 1.391 . S
N411 C412 1.388 . S
C412 H383 0.930 . S
C412 C407 1.391 . S
C412 N411 1.388 . S
Co413 O415 2.143 . S
Co413 O421 2.074 . S
Co413 O424 2.093 . S
Co413 O437 2.097 . S
Co413 N454 2.151 . S
Co413 N462 2.214 . S
Co414 O415 2.160 . S
Co414 O420 2.058 . S
Co414 O430 2.057 . S
Co414 O445 2.037 . S
Co414 N449 2.145 . S
Co414 N470 2.257 . S
O415 Co413 2.143 . S
O415 Co414 2.160 . S
C416 O417 1.278 . S
C416 O424 1.224 . S
O417 C416 1.278 . S
C418 O419 1.245 . S
C418 O430 1.232 . S
O419 C418 1.245 . S
O420 Co414 2.058 . S
O420 C446 1.269 . S
O421 Co413 2.074 . S
O421 C446 1.257 . S
H422 C447 0.930 . S
H423 C453 0.930 . S
O424 Co413 2.093 . S
O424 C416 1.224 . S
H425 C457 0.929 . S
H426 C459 0.930 1_545 S
H427 C460 0.930 . S
H428 C458 0.929 . S
H429 C461 0.928 . S
O430 Co414 2.057 . S
O430 C418 1.232 . S
H431 C450 0.929 . S
H432 C451 0.929 . S
H433 C463 0.931 . S
H434 C455 0.929 . S
H435 C464 0.930 1_545 S
H436 C456 0.931 . S
O437 Co413 2.097 . S
O437 C465 1.214 . S
H438 C466 0.929 . S
H439 C467 0.929 . S
H440 C468 0.930 . S
H441 C469 0.929 . S
H442 C471 0.930 . S
H443 C448 0.930 . S
H444 C452 0.930 . S
O445 Co414 2.037 . S
O445 C465 1.234 . S
C446 O420 1.269 . S
C446 O421 1.257 . S
C447 H422 0.930 . S
C447 C450 1.388 . S
C447 C452 1.418 . S
C448 H443 0.930 . S
C448 C451 1.404 . S
C448 C452 1.353 . S
N449 Co414 2.145 . S
N449 C450 1.397 . S
N449 C451 1.334 . S
C450 H431 0.929 . S
C450 C447 1.388 . S
C450 N449 1.397 . S
C451 H432 0.929 . S
C451 C448 1.404 . S
C451 N449 1.334 . S
C452 H444 0.930 . S
C452 C447 1.418 . S
C452 C448 1.353 . S
C453 H423 0.930 . S
C453 N454 1.330 . S
C453 C455 1.446 . S
N454 Co413 2.151 . S
N454 C453 1.330 . S
N454 C458 1.418 . S
C455 H434 0.929 . S
C455 C453 1.446 . S
C455 C456 1.332 1_565 S
C456 H436 0.931 . S
C456 C455 1.332 1_545 S
C456 C457 1.267 . S
C457 H425 0.929 . S
C457 C456 1.267 . S
C457 C458 1.251 1_545 S
C458 H428 0.929 . S
C458 N454 1.418 . S
C458 C457 1.251 1_565 S
C459 H426 0.930 1_565 S
C459 C461 1.406 . S
C459 C464 1.261 . S
C460 H427 0.930 . S
C460 N462 1.325 . S
C460 C463 1.357 . S
C461 H429 0.928 . S
C461 C459 1.406 . S
C461 N462 1.261 . S
N462 Co413 2.214 . S
N462 C460 1.325 . S
N462 C461 1.261 . S
C463 H433 0.931 . S
C463 C460 1.357 . S
C463 C464 1.312 . S
C464 H435 0.930 1_565 S
C464 C459 1.261 . S
C464 C463 1.312 . S
C465 O437 1.214 . S
C465 O445 1.234 . S
C466 H438 0.929 . S
C466 C469 1.391 . S
C466 C471 1.391 . S
C467 H439 0.929 . S
C467 C468 1.390 . S
C467 N470 1.391 . S
C468 H440 0.930 . S
C468 C467 1.390 . S
C468 C469 1.392 . S
C469 H441 0.929 . S
C469 C466 1.391 . S
C469 C468 1.392 . S
N470 Co414 2.257 . S
N470 C467 1.391 . S
N470 C471 1.388 . S
C471 H442 0.930 . S
C471 C466 1.391 . S
C471 N470 1.388 . S
H472 C480 0.950 . S
H473 C485 0.950 . S
H474 C482 0.950 . S
H475 C484 0.950 . S
H476 C486 0.950 . S
H477 C488 0.950 . S
H478 C490 0.950 . S
H479 C491 0.950 . S
C480 H472 0.950 . S
C480 C481 1.386 . S
C480 C482 1.391 . S
C481 C480 1.386 . S
C481 C485 1.393 . S
C482 H474 0.950 . S
C482 C480 1.391 . S
C482 C483 1.400 . S
C483 C482 1.400 . S
C483 C484 1.398 . S
C483 C489 1.491 . S
C484 H475 0.950 . S
C484 C483 1.398 . S
C484 C485 1.391 . S
C485 H473 0.950 . S
C485 C481 1.393 . S
C485 C484 1.391 . S
C486 H476 0.950 . S
C486 C487 1.386 . S
C486 C488 1.391 . S
C487 C486 1.386 . S
C487 C491 1.393 . S
C488 H477 0.950 . S
C488 C486 1.391 . S
C488 C489 1.400 . S
C489 C483 1.491 . S
C489 C488 1.400 . S
C489 C490 1.398 . S
C490 H478 0.950 . S
C490 C489 1.398 . S
C490 C491 1.391 . S
C491 H479 0.950 . S
C491 C487 1.393 . S
C491 C490 1.391 . S
H492 C500 0.950 . S
H493 C505 0.950 . S
H494 C502 0.950 . S
H495 C504 0.950 . S
H496 C506 0.950 . S
H497 C508 0.950 . S
H498 C510 0.950 . S
H499 C511 0.950 . S
C500 H492 0.950 . S
C500 C501 1.386 . S
C500 C502 1.391 . S
C501 C500 1.386 . S
C501 C505 1.393 . S
C502 H494 0.950 . S
C502 C500 1.391 . S
C502 C503 1.400 . S
C503 C502 1.400 . S
C503 C504 1.398 . S
C503 C509 1.491 . S
C504 H495 0.950 . S
C504 C503 1.398 . S
C504 C505 1.391 . S
C505 H493 0.950 . S
C505 C501 1.393 . S
C505 C504 1.391 . S
C506 H496 0.950 . S
C506 C507 1.386 . S
C506 C508 1.391 . S
C507 C506 1.386 . S
C507 C511 1.393 . S
C508 H497 0.950 . S
C508 C506 1.391 . S
C508 C509 1.400 . S
C509 C503 1.491 . S
C509 C508 1.400 . S
C509 C510 1.398 . S
C510 H498 0.950 . S
C510 C509 1.398 . S
C510 C511 1.391 . S
C511 H499 0.950 . S
C511 C507 1.393 . S
C511 C510 1.391 . S
H512 C520 0.950 . S
H513 C525 0.950 . S
H514 C522 0.950 . S
H515 C524 0.950 . S
H516 C526 0.950 . S
H517 C528 0.950 . S
H518 C530 0.950 . S
H519 C531 0.950 . S
C520 H512 0.950 . S
C520 C521 1.386 . S
C520 C522 1.391 . S
C521 C520 1.386 . S
C521 C525 1.393 . S
C522 H514 0.950 . S
C522 C520 1.391 . S
C522 C523 1.400 . S
C523 C522 1.400 . S
C523 C524 1.398 . S
C523 C529 1.491 . S
C524 H515 0.950 . S
C524 C523 1.398 . S
C524 C525 1.391 . S
C525 H513 0.950 . S
C525 C521 1.393 . S
C525 C524 1.391 . S
C526 H516 0.950 . S
C526 C527 1.386 . S
C526 C528 1.391 . S
C527 C526 1.386 . S
C527 C531 1.393 . S
C528 H517 0.950 . S
C528 C526 1.391 . S
C528 C529 1.400 . S
C529 C523 1.491 . S
C529 C528 1.400 . S
C529 C530 1.398 . S
C530 H518 0.950 . S
C530 C529 1.398 . S
C530 C531 1.391 . S
C531 H519 0.950 . S
C531 C527 1.393 . S
C531 C530 1.391 . S
H532 C540 0.950 . S
H533 C545 0.950 . S
H534 C542 0.950 . S
H535 C544 0.950 . S
H536 C546 0.950 . S
H537 C548 0.950 . S
H538 C550 0.950 . S
H539 C551 0.950 . S
C540 H532 0.950 . S
C540 C541 1.386 . S
C540 C542 1.391 . S
C541 C540 1.386 . S
C541 C545 1.393 . S
C542 H534 0.950 . S
C542 C540 1.391 . S
C542 C543 1.400 . S
C543 C542 1.400 . S
C543 C544 1.398 . S
C543 C549 1.491 . S
C544 H535 0.950 . S
C544 C543 1.398 . S
C544 C545 1.391 . S
C545 H533 0.950 . S
C545 C541 1.393 . S
C545 C544 1.391 . S
C546 H536 0.950 . S
C546 C547 1.386 . S
C546 C548 1.391 . S
C547 C546 1.386 . S
C547 C551 1.393 . S
C548 H537 0.950 . S
C548 C546 1.391 . S
C548 C549 1.400 . S
C549 C543 1.491 . S
C549 C548 1.400 . S
C549 C550 1.398 . S
C550 H538 0.950 . S
C550 C549 1.398 . S
C550 C551 1.391 . S
C551 H539 0.950 . S
C551 C547 1.393 . S
C551 C550 1.391 . S
H552 C560 0.950 . S
H553 C565 0.950 . S
H554 C562 0.950 . S
H555 C564 0.950 . S
H556 C566 0.950 . S
H557 C568 0.950 . S
H558 C570 0.950 . S
H559 C571 0.950 . S
C560 H552 0.950 . S
C560 C561 1.386 . S
C560 C562 1.391 . S
C561 C560 1.386 . S
C561 C565 1.393 . S
C562 H554 0.950 . S
C562 C560 1.391 . S
C562 C563 1.400 . S
C563 C562 1.400 . S
C563 C564 1.398 . S
C563 C569 1.491 . S
C564 H555 0.950 . S
C564 C563 1.398 . S
C564 C565 1.391 . S
C565 H553 0.950 . S
C565 C561 1.393 . S
C565 C564 1.391 . S
C566 H556 0.950 . S
C566 C567 1.386 . S
C566 C568 1.391 . S
C567 C566 1.386 . S
C567 C571 1.393 . S
C568 H557 0.950 . S
C568 C566 1.391 . S
C568 C569 1.400 . S
C569 C563 1.491 . S
C569 C568 1.400 . S
C569 C570 1.398 . S
C570 H558 0.950 . S
C570 C569 1.398 . S
C570 C571 1.391 . S
C571 H559 0.950 . S
C571 C567 1.393 . S
C571 C570 1.391 . S
H572 C580 0.950 . S
H573 C585 0.950 . S
H574 C582 0.950 . S
H575 C584 0.950 . S
H576 C586 0.950 . S
H577 C588 0.950 . S
H578 C590 0.950 . S
H579 C591 0.950 . S
C580 H572 0.950 . S
C580 C581 1.386 . S
C580 C582 1.391 . S
C581 C580 1.386 . S
C581 C585 1.393 . S
C582 H574 0.950 . S
C582 C580 1.391 . S
C582 C583 1.400 . S
C583 C582 1.400 . S
C583 C584 1.398 . S
C583 C589 1.491 . S
C584 H575 0.950 . S
C584 C583 1.398 . S
C584 C585 1.391 . S
C585 H573 0.950 . S
C585 C581 1.393 . S
C585 C584 1.391 . S
C586 H576 0.950 . S
C586 C587 1.386 . S
C586 C588 1.391 . S
C587 C586 1.386 . S
C587 C591 1.393 . S
C588 H577 0.950 . S
C588 C586 1.391 . S
C588 C589 1.400 . S
C589 C583 1.491 . S
C589 C588 1.400 . S
C589 C590 1.398 . S
C590 H578 0.950 . S
C590 C589 1.398 . S
C590 C591 1.391 . S
C591 H579 0.950 . S
C591 C587 1.393 . S
C591 C590 1.391 . S
H592 C600 0.950 . S
H593 C605 0.950 . S
H594 C602 0.950 . S
H595 C604 0.950 . S
H596 C606 0.950 . S
H597 C608 0.950 . S
H598 C610 0.950 . S
H599 C611 0.950 . S
C600 H592 0.950 . S
C600 C601 1.386 . S
C600 C602 1.391 . S
C601 C600 1.386 . S
C601 C605 1.393 . S
C602 H594 0.950 . S
C602 C600 1.391 . S
C602 C603 1.400 . S
C603 C602 1.400 . S
C603 C604 1.398 . S
C603 C609 1.491 . S
C604 H595 0.950 . S
C604 C603 1.398 . S
C604 C605 1.391 . S
C605 H593 0.950 . S
C605 C601 1.393 . S
C605 C604 1.391 . S
C606 H596 0.950 . S
C606 C607 1.386 . S
C606 C608 1.391 . S
C607 C606 1.386 . S
C607 C611 1.393 . S
C608 H597 0.950 . S
C608 C606 1.391 . S
C608 C609 1.400 . S
C609 C603 1.491 . S
C609 C608 1.400 . S
C609 C610 1.398 . S
C610 H598 0.950 . S
C610 C609 1.398 . S
C610 C611 1.391 . S
C611 H599 0.950 . S
C611 C607 1.393 . S
C611 C610 1.391 . S
H612 C620 0.950 . S
H613 C625 0.950 . S
H614 C622 0.950 . S
H615 C624 0.950 . S
H616 C626 0.950 . S
H617 C628 0.950 . S
H618 C630 0.950 . S
H619 C631 0.950 . S
C620 H612 0.950 . S
C620 C621 1.386 . S
C620 C622 1.391 . S
C621 C620 1.386 . S
C621 C625 1.393 . S
C622 H614 0.950 . S
C622 C620 1.391 . S
C622 C623 1.400 . S
C623 C622 1.400 . S
C623 C624 1.398 . S
C623 C629 1.491 . S
C624 H615 0.950 . S
C624 C623 1.398 . S
C624 C625 1.391 . S
C625 H613 0.950 . S
C625 C621 1.393 . S
C625 C624 1.391 . S
C626 H616 0.950 . S
C626 C627 1.386 . S
C626 C628 1.391 . S
C627 C626 1.386 . S
C627 C631 1.393 . S
C628 H617 0.950 . S
C628 C626 1.391 . S
C628 C629 1.400 . S
C629 C623 1.491 . S
C629 C628 1.400 . S
C629 C630 1.398 . S
C630 H618 0.950 . S
C630 C629 1.398 . S
C630 C631 1.391 . S
C631 H619 0.950 . S
C631 C627 1.393 . S
C631 C630 1.391 . S
H632 C640 0.950 . S
H633 C645 0.950 . S
H634 C642 0.963 . S
H635 C644 0.950 . S
H636 C646 0.950 . S
H637 C648 0.963 . S
H638 C650 0.950 . S
H639 C651 0.950 . S
C640 H632 0.950 . S
C640 C641 1.386 . S
C640 C642 1.391 . S
C641 C640 1.386 . S
C641 C645 1.393 . S
C642 H634 0.963 . S
C642 C640 1.391 . S
C642 C643 1.400 . S
C643 C642 1.400 . S
C643 C644 1.398 . S
C643 C649 1.491 1_455 S
C644 H635 0.950 . S
C644 C643 1.398 . S
C644 C645 1.391 . S
C645 H633 0.950 . S
C645 C641 1.393 . S
C645 C644 1.391 . S
C646 H636 0.950 . S
C646 C647 1.386 . S
C646 C648 1.391 . S
C647 C646 1.386 . S
C647 C651 1.393 . S
C648 H637 0.963 . S
C648 C646 1.391 . S
C648 C649 1.400 . S
C649 C643 1.491 1_655 S
C649 C648 1.400 . S
C649 C650 1.398 . S
C650 H638 0.950 . S
C650 C649 1.398 . S
C650 C651 1.391 . S
C651 H639 0.950 . S
C651 C647 1.393 . S
C651 C650 1.391 . S
H652 C660 0.950 . S
H653 C665 0.950 . S
H654 C662 0.950 . S
H655 C664 0.950 . S
H656 C666 0.950 . S
H657 C668 0.950 . S
H658 C670 0.950 . S
H659 C671 0.950 . S
C660 H652 0.950 . S
C660 C661 1.386 . S
C660 C662 1.391 . S
C661 C660 1.386 . S
C661 C665 1.393 . S
C662 H654 0.950 . S
C662 C660 1.391 . S
C662 C663 1.400 . S
C663 C662 1.400 . S
C663 C664 1.398 . S
C663 C669 1.491 . S
C664 H655 0.950 . S
C664 C663 1.398 . S
C664 C665 1.391 . S
C665 H653 0.950 . S
C665 C661 1.393 . S
C665 C664 1.391 . S
C666 H656 0.950 . S
C666 C667 1.386 . S
C666 C668 1.391 . S
C667 C666 1.386 . S
C667 C671 1.393 . S
C668 H657 0.950 . S
C668 C666 1.391 . S
C668 C669 1.400 . S
C669 C663 1.491 . S
C669 C668 1.400 . S
C669 C670 1.398 . S
C670 H658 0.950 . S
C670 C669 1.398 . S
C670 C671 1.391 . S
C671 H659 0.950 . S
C671 C667 1.393 . S
C671 C670 1.391 . S
H672 C680 0.950 . S
H673 C685 0.950 . S
H674 C682 0.950 . S
H675 C684 0.950 1_655 S
H676 C686 0.950 . S
H677 C688 0.950 . S
H678 C690 0.950 1_455 S
H679 C691 0.950 . S
C680 H672 0.950 . S
C680 C681 1.386 . S
C680 C682 1.391 . S
C681 C680 1.386 . S
C681 C685 1.393 . S
C682 H674 0.950 . S
C682 C680 1.391 . S
C682 C683 1.400 . S
C683 C682 1.400 . S
C683 C684 1.398 . S
C683 C689 1.491 1_455 S
C684 H675 0.950 1_455 S
C684 C683 1.398 . S
C684 C685 1.391 . S
C685 H673 0.950 . S
C685 C681 1.393 . S
C685 C684 1.391 . S
C686 H676 0.950 . S
C686 C687 1.386 . S
C686 C688 1.391 . S
C687 C686 1.386 . S
C687 C691 1.393 . S
C688 H677 0.950 . S
C688 C686 1.391 . S
C688 C689 1.400 . S
C689 C683 1.491 1_655 S
C689 C688 1.400 . S
C689 C690 1.398 . S
C690 H678 0.950 1_655 S
C690 C689 1.398 . S
C690 C691 1.391 . S
C691 H679 0.950 . S
C691 C687 1.393 . S
C691 C690 1.391 . S
H692 C700 0.950 . S
H693 C705 0.950 . S
H694 C702 0.950 . S
H695 C704 0.950 . S
H696 C706 0.950 . S
H697 C708 0.950 . S
H698 C710 0.950 . S
H699 C711 0.950 . S
C700 H692 0.950 . S
C700 C701 1.386 . S
C700 C702 1.391 . S
C701 C700 1.386 . S
C701 C705 1.393 . S
C702 H694 0.950 . S
C702 C700 1.391 . S
C702 C703 1.400 . S
C703 C702 1.400 . S
C703 C704 1.398 . S
C703 C709 1.491 . S
C704 H695 0.950 . S
C704 C703 1.398 . S
C704 C705 1.391 . S
C705 H693 0.950 . S
C705 C701 1.393 . S
C705 C704 1.391 . S
C706 H696 0.950 . S
C706 C707 1.386 . S
C706 C708 1.391 . S
C707 C706 1.386 . S
C707 C711 1.393 . S
C708 H697 0.950 . S
C708 C706 1.391 . S
C708 C709 1.400 . S
C709 C703 1.491 . S
C709 C708 1.400 . S
C709 C710 1.398 . S
C710 H698 0.950 . S
C710 C709 1.398 . S
C710 C711 1.391 . S
C711 H699 0.950 . S
C711 C707 1.393 . S
C711 C710 1.391 . S
H712 C720 0.950 1_556 S
H713 C725 0.950 . S
H714 C722 0.950 1_565 S
H715 C724 0.950 1_655 S
H716 C726 0.950 1_554 S
H717 C728 0.950 1_545 S
H718 C730 0.950 1_455 S
H719 C731 0.950 . S
C720 H712 0.950 1_554 S
C720 C721 1.386 . S
C720 C722 1.391 1_554 S
C721 C720 1.386 . S
C721 C725 1.393 . S
C722 H714 0.950 1_545 S
C722 C720 1.391 1_556 S
C722 C723 1.400 1_556 S
C723 C722 1.400 1_554 S
C723 C724 1.398 . S
C723 C729 1.491 1_444 S
C724 H715 0.950 1_455 S
C724 C723 1.398 . S
C724 C725 1.391 . S
C725 H713 0.950 . S
C725 C721 1.393 . S
C725 C724 1.391 . S
C726 H716 0.950 1_556 S
C726 C727 1.386 . S
C726 C728 1.391 1_556 S
C727 C726 1.386 . S
C727 C731 1.393 . S
C728 H717 0.950 1_565 S
C728 C726 1.391 1_554 S
C728 C729 1.400 1_554 S
C729 C723 1.491 1_666 S
C729 C728 1.400 1_556 S
C729 C730 1.398 . S
C730 H718 0.950 1_655 S
C730 C729 1.398 . S
C730 C731 1.391 . S
C731 H719 0.950 . S
C731 C727 1.393 . S
C731 C730 1.391 . S
H732 C740 0.950 . S
H733 C745 0.950 . S
H734 C742 0.950 . S
H735 C744 0.950 . S
H736 C746 0.950 . S
H737 C748 0.950 . S
H738 C750 0.950 . S
H739 C751 0.950 . S
C740 H732 0.950 . S
C740 C741 1.386 . S
C740 C742 1.391 . S
C741 C740 1.386 . S
C741 C745 1.393 . S
C742 H734 0.950 . S
C742 C740 1.391 . S
C742 C743 1.400 . S
C743 C742 1.400 . S
C743 C744 1.398 . S
C743 C749 1.491 . S
C744 H735 0.950 . S
C744 C743 1.398 . S
C744 C745 1.391 . S
C745 H733 0.950 . S
C745 C741 1.393 . S
C745 C744 1.391 . S
C746 H736 0.950 . S
C746 C747 1.386 . S
C746 C748 1.391 . S
C747 C746 1.386 . S
C747 C751 1.393 . S
C748 H737 0.950 . S
C748 C746 1.391 . S
C748 C749 1.400 . S
C749 C743 1.491 . S
C749 C748 1.400 . S
C749 C750 1.398 . S
C750 H738 0.950 . S
C750 C749 1.398 . S
C750 C751 1.391 . S
C751 H739 0.950 . S
C751 C747 1.393 . S
C751 C750 1.391 . S
H752 C760 0.950 . S
H753 C765 0.950 1_556 S
H754 C762 0.950 . S
H755 C764 0.950 . S
H756 C766 0.950 . S
H757 C768 0.950 . S
H758 C770 0.950 . S
H759 C771 0.950 1_554 S
C760 H752 0.950 . S
C760 C761 1.386 . S
C760 C762 1.391 . S
C761 C760 1.386 . S
C761 C765 1.393 . S
C762 H754 0.950 . S
C762 C760 1.391 . S
C762 C763 1.400 . S
C763 C762 1.400 . S
C763 C764 1.398 1_554 S
C763 C769 1.491 1_554 S
C764 H755 0.950 . S
C764 C763 1.398 1_556 S
C764 C765 1.391 1_556 S
C765 H753 0.950 1_554 S
C765 C761 1.393 . S
C765 C764 1.391 1_554 S
C766 H756 0.950 . S
C766 C767 1.386 . S
C766 C768 1.391 . S
C767 C766 1.386 . S
C767 C771 1.393 . S
C768 H757 0.950 . S
C768 C766 1.391 . S
C768 C769 1.400 . S
C769 C763 1.491 1_556 S
C769 C768 1.400 . S
C769 C770 1.398 1_556 S
C770 H758 0.950 . S
C770 C769 1.398 1_554 S
C770 C771 1.391 1_554 S
C771 H759 0.950 1_556 S
C771 C767 1.393 . S
C771 C770 1.391 1_556 S
H772 C780 0.950 . S
H773 C785 0.950 . S
H774 C782 0.950 1_655 S
H775 C784 0.950 1_545 S
H776 C786 0.950 . S
H777 C788 0.950 1_455 S
H778 C790 0.950 1_565 S
H779 C791 0.950 . S
C780 H772 0.950 . S
C780 C781 1.386 . S
C780 C782 1.391 . S
C781 C780 1.386 . S
C781 C785 1.393 . S
C782 H774 0.950 1_455 S
C782 C780 1.391 . S
C782 C783 1.400 . S
C783 C782 1.400 . S
C783 C784 1.398 . S
C783 C789 1.491 1_465 S
C784 H775 0.950 1_565 S
C784 C783 1.398 . S
C784 C785 1.391 . S
C785 H773 0.950 . S
C785 C781 1.393 . S
C785 C784 1.391 . S
C786 H776 0.950 . S
C786 C787 1.386 . S
C786 C788 1.391 . S
C787 C786 1.386 . S
C787 C791 1.393 . S
C788 H777 0.950 1_655 S
C788 C786 1.391 . S
C788 C789 1.400 . S
C789 C783 1.491 1_645 S
C789 C788 1.400 . S
C789 C790 1.398 . S
C790 H778 0.950 1_545 S
C790 C789 1.398 . S
C790 C791 1.391 . S
C791 H779 0.950 . S
C791 C787 1.393 . S
C791 C790 1.391 . S
C481 C64 1.633 . S
C487 C3 1.606 . S
C501 C5 1.629 . S
C507 C62 1.585 . S
C521 C182 1.629 . S
C527 C121 1.589 . S
C541 C123 1.630 . S
C547 C180 1.586 . S
C561 C241 1.612 1_554 S
C567 C298 1.623 . S
C581 C300 1.602 . S
C587 C239 1.622 . S
C601 C359 1.610 1_556 S
C607 C416 1.611 . S
C621 C357 1.610 . S
C627 C418 1.606 . S
C641 C33 0.711 . S
C647 C210 0.733 . S
C661 C92 0.730 . S
C667 C151 0.714 . S
C681 C465 0.720 . S
C687 C288 0.747 . S
C701 C406 0.728 . S
C707 C347 0.720 . S
C721 C52 1.534 . S
C727 C269 1.526 . S
C741 C328 1.533 . S
C747 C111 1.538 . S
C761 C387 1.527 . S
C767 C170 1.535 . S
C781 C446 1.529 . S
C787 C229 1.536 . S
