# Generated by pormake.
# Topology uoh, (4)-cn, num edge types: 1
# Building blocks:
#     Node 0, Type 0, BuildingBlock: QUQFOY_clean_sbu_3, # of connection points: 4
#     Node 1, Type 0, BuildingBlock: QUQFOY_clean_sbu_3, # of connection points: 4
#     Node 2, Type 0, BuildingBlock: QUQFOY_clean_sbu_3, # of connection points: 4
#     Node 3, Type 0, BuildingBlock: QUQFOY_clean_sbu_3, # of connection points: 4
#     Node 4, Type 0, BuildingBlock: QUQFOY_clean_sbu_3, # of connection points: 4
#     Node 5, Type 0, BuildingBlock: QUQFOY_clean_sbu_3, # of connection points: 4
#     Node 6, Type 0, BuildingBlock: QUQFOY_clean_sbu_3, # of connection points: 4
#     Node 7, Type 0, BuildingBlock: QUQFOY_clean_sbu_3, # of connection points: 4
#     Node 8, Type 0, BuildingBlock: QUQFOY_clean_sbu_3, # of connection points: 4
#     Node 9, Type 0, BuildingBlock: QUQFOY_clean_sbu_3, # of connection points: 4
#     Node 10, Type 0, BuildingBlock: QUQFOY_clean_sbu_3, # of connection points: 4
#     Node 11, Type 0, BuildingBlock: QUQFOY_clean_sbu_3, # of connection points: 4
#     Node 12, Type 0, BuildingBlock: QUQFOY_clean_sbu_3, # of connection points: 4
#     Node 13, Type 0, BuildingBlock: QUQFOY_clean_sbu_3, # of connection points: 4
#     Node 14, Type 0, BuildingBlock: QUQFOY_clean_sbu_3, # of connection points: 4
#     Node 15, Type 0, BuildingBlock: QUQFOY_clean_sbu_3, # of connection points: 4
#     Node 16, Type 0, BuildingBlock: QUQFOY_clean_sbu_3, # of connection points: 4
#     Node 17, Type 0, BuildingBlock: QUQFOY_clean_sbu_3, # of connection points: 4
#     Node 18, Type 0, BuildingBlock: QUQFOY_clean_sbu_3, # of connection points: 4
#     Node 19, Type 0, BuildingBlock: QUQFOY_clean_sbu_3, # of connection points: 4
#     Node 20, Type 0, BuildingBlock: QUQFOY_clean_sbu_3, # of connection points: 4
#     Node 21, Type 0, BuildingBlock: QUQFOY_clean_sbu_3, # of connection points: 4
#     Node 22, Type 0, BuildingBlock: QUQFOY_clean_sbu_3, # of connection points: 4
#     Node 23, Type 0, BuildingBlock: QUQFOY_clean_sbu_3, # of connection points: 4
#     Node 24, Type 0, BuildingBlock: QUQFOY_clean_sbu_3, # of connection points: 4
#     Node 25, Type 0, BuildingBlock: QUQFOY_clean_sbu_3, # of connection points: 4
#     Node 26, Type 0, BuildingBlock: QUQFOY_clean_sbu_3, # of connection points: 4
#     Node 27, Type 0, BuildingBlock: QUQFOY_clean_sbu_3, # of connection points: 4
#     Node 28, Type 0, BuildingBlock: QUQFOY_clean_sbu_3, # of connection points: 4
#     Node 29, Type 0, BuildingBlock: QUQFOY_clean_sbu_3, # of connection points: 4
#     Node 30, Type 0, BuildingBlock: QUQFOY_clean_sbu_3, # of connection points: 4
#     Node 31, Type 0, BuildingBlock: QUQFOY_clean_sbu_3, # of connection points: 4
#     Node 32, Type 0, BuildingBlock: QUQFOY_clean_sbu_3, # of connection points: 4
#     Node 33, Type 0, BuildingBlock: QUQFOY_clean_sbu_3, # of connection points: 4
#     Node 34, Type 0, BuildingBlock: QUQFOY_clean_sbu_3, # of connection points: 4
#     Node 35, Type 0, BuildingBlock: QUQFOY_clean_sbu_3, # of connection points: 4
#     Edge 36, Type (0, 0), BuildingBlock: AJUNOK_clean_linker_0, # of connection points: 2
#     Edge 37, Type (0, 0), BuildingBlock: AJUNOK_clean_linker_0, # of connection points: 2
#     Edge 38, Type (0, 0), BuildingBlock: AJUNOK_clean_linker_0, # of connection points: 2
#     Edge 39, Type (0, 0), BuildingBlock: AJUNOK_clean_linker_0, # of connection points: 2
#     Edge 40, Type (0, 0), BuildingBlock: AJUNOK_clean_linker_0, # of connection points: 2
#     Edge 41, Type (0, 0), BuildingBlock: AJUNOK_clean_linker_0, # of connection points: 2
#     Edge 42, Type (0, 0), BuildingBlock: AJUNOK_clean_linker_0, # of connection points: 2
#     Edge 43, Type (0, 0), BuildingBlock: AJUNOK_clean_linker_0, # of connection points: 2
#     Edge 44, Type (0, 0), BuildingBlock: AJUNOK_clean_linker_0, # of connection points: 2
#     Edge 45, Type (0, 0), BuildingBlock: AJUNOK_clean_linker_0, # of connection points: 2
#     Edge 46, Type (0, 0), BuildingBlock: AJUNOK_clean_linker_0, # of connection points: 2
#     Edge 47, Type (0, 0), BuildingBlock: AJUNOK_clean_linker_0, # of connection points: 2
#     Edge 48, Type (0, 0), BuildingBlock: AJUNOK_clean_linker_0, # of connection points: 2
#     Edge 49, Type (0, 0), BuildingBlock: AJUNOK_clean_linker_0, # of connection points: 2
#     Edge 50, Type (0, 0), BuildingBlock: AJUNOK_clean_linker_0, # of connection points: 2
#     Edge 51, Type (0, 0), BuildingBlock: AJUNOK_clean_linker_0, # of connection points: 2
#     Edge 52, Type (0, 0), BuildingBlock: AJUNOK_clean_linker_0, # of connection points: 2
#     Edge 53, Type (0, 0), BuildingBlock: AJUNOK_clean_linker_0, # of connection points: 2
#     Edge 54, Type (0, 0), BuildingBlock: AJUNOK_clean_linker_0, # of connection points: 2
#     Edge 55, Type (0, 0), BuildingBlock: AJUNOK_clean_linker_0, # of connection points: 2
#     Edge 56, Type (0, 0), BuildingBlock: AJUNOK_clean_linker_0, # of connection points: 2
#     Edge 57, Type (0, 0), BuildingBlock: AJUNOK_clean_linker_0, # of connection points: 2
#     Edge 58, Type (0, 0), BuildingBlock: AJUNOK_clean_linker_0, # of connection points: 2
#     Edge 59, Type (0, 0), BuildingBlock: AJUNOK_clean_linker_0, # of connection points: 2
#     Edge 60, Type (0, 0), BuildingBlock: AJUNOK_clean_linker_0, # of connection points: 2
#     Edge 61, Type (0, 0), BuildingBlock: AJUNOK_clean_linker_0, # of connection points: 2
#     Edge 62, Type (0, 0), BuildingBlock: AJUNOK_clean_linker_0, # of connection points: 2
#     Edge 63, Type (0, 0), BuildingBlock: AJUNOK_clean_linker_0, # of connection points: 2
#     Edge 64, Type (0, 0), BuildingBlock: AJUNOK_clean_linker_0, # of connection points: 2
#     Edge 65, Type (0, 0), BuildingBlock: AJUNOK_clean_linker_0, # of connection points: 2
#     Edge 66, Type (0, 0), BuildingBlock: AJUNOK_clean_linker_0, # of connection points: 2
#     Edge 67, Type (0, 0), BuildingBlock: AJUNOK_clean_linker_0, # of connection points: 2
#     Edge 68, Type (0, 0), BuildingBlock: AJUNOK_clean_linker_0, # of connection points: 2
#     Edge 69, Type (0, 0), BuildingBlock: AJUNOK_clean_linker_0, # of connection points: 2
#     Edge 70, Type (0, 0), BuildingBlock: AJUNOK_clean_linker_0, # of connection points: 2
#     Edge 71, Type (0, 0), BuildingBlock: AJUNOK_clean_linker_0, # of connection points: 2
#     Edge 72, Type (0, 0), BuildingBlock: AJUNOK_clean_linker_0, # of connection points: 2
#     Edge 73, Type (0, 0), BuildingBlock: AJUNOK_clean_linker_0, # of connection points: 2
#     Edge 74, Type (0, 0), BuildingBlock: AJUNOK_clean_linker_0, # of connection points: 2
#     Edge 75, Type (0, 0), BuildingBlock: AJUNOK_clean_linker_0, # of connection points: 2
#     Edge 76, Type (0, 0), BuildingBlock: AJUNOK_clean_linker_0, # of connection points: 2
#     Edge 77, Type (0, 0), BuildingBlock: AJUNOK_clean_linker_0, # of connection points: 2
#     Edge 78, Type (0, 0), BuildingBlock: AJUNOK_clean_linker_0, # of connection points: 2
#     Edge 79, Type (0, 0), BuildingBlock: AJUNOK_clean_linker_0, # of connection points: 2
#     Edge 80, Type (0, 0), BuildingBlock: AJUNOK_clean_linker_0, # of connection points: 2
#     Edge 81, Type (0, 0), BuildingBlock: AJUNOK_clean_linker_0, # of connection points: 2
#     Edge 82, Type (0, 0), BuildingBlock: AJUNOK_clean_linker_0, # of connection points: 2
#     Edge 83, Type (0, 0), BuildingBlock: AJUNOK_clean_linker_0, # of connection points: 2
#     Edge 84, Type (0, 0), BuildingBlock: AJUNOK_clean_linker_0, # of connection points: 2
#     Edge 85, Type (0, 0), BuildingBlock: AJUNOK_clean_linker_0, # of connection points: 2
#     Edge 86, Type (0, 0), BuildingBlock: AJUNOK_clean_linker_0, # of connection points: 2
#     Edge 87, Type (0, 0), BuildingBlock: AJUNOK_clean_linker_0, # of connection points: 2
#     Edge 88, Type (0, 0), BuildingBlock: AJUNOK_clean_linker_0, # of connection points: 2
#     Edge 89, Type (0, 0), BuildingBlock: AJUNOK_clean_linker_0, # of connection points: 2
#     Edge 90, Type (0, 0), BuildingBlock: AJUNOK_clean_linker_0, # of connection points: 2
#     Edge 91, Type (0, 0), BuildingBlock: AJUNOK_clean_linker_0, # of connection points: 2
#     Edge 92, Type (0, 0), BuildingBlock: AJUNOK_clean_linker_0, # of connection points: 2
#     Edge 93, Type (0, 0), BuildingBlock: AJUNOK_clean_linker_0, # of connection points: 2
#     Edge 94, Type (0, 0), BuildingBlock: AJUNOK_clean_linker_0, # of connection points: 2
#     Edge 95, Type (0, 0), BuildingBlock: AJUNOK_clean_linker_0, # of connection points: 2
#     Edge 96, Type (0, 0), BuildingBlock: AJUNOK_clean_linker_0, # of connection points: 2
#     Edge 97, Type (0, 0), BuildingBlock: AJUNOK_clean_linker_0, # of connection points: 2
#     Edge 98, Type (0, 0), BuildingBlock: AJUNOK_clean_linker_0, # of connection points: 2
#     Edge 99, Type (0, 0), BuildingBlock: AJUNOK_clean_linker_0, # of connection points: 2
#     Edge 100, Type (0, 0), BuildingBlock: AJUNOK_clean_linker_0, # of connection points: 2
#     Edge 101, Type (0, 0), BuildingBlock: AJUNOK_clean_linker_0, # of connection points: 2
#     Edge 102, Type (0, 0), BuildingBlock: AJUNOK_clean_linker_0, # of connection points: 2
#     Edge 103, Type (0, 0), BuildingBlock: AJUNOK_clean_linker_0, # of connection points: 2
#     Edge 104, Type (0, 0), BuildingBlock: AJUNOK_clean_linker_0, # of connection points: 2
#     Edge 105, Type (0, 0), BuildingBlock: AJUNOK_clean_linker_0, # of connection points: 2
#     Edge 106, Type (0, 0), BuildingBlock: AJUNOK_clean_linker_0, # of connection points: 2
#     Edge 107, Type (0, 0), BuildingBlock: AJUNOK_clean_linker_0, # of connection points: 2
# Relax obj value: 0.088
# Max RMSD: 0.144
# Mean RMSD: 0.144
data_MOF--net-uoh--node1-QUQFOY_clean_sbu_3--edge1-AJUNOK_clean_linker_0
_symmetry_space_group_name_H-M    P1
_symmetry_Int_Tables_number       1
_symmetry_cell_setting            triclinic
loop_
_symmetry_equiv_pos_as_xyz
'x, y, z'
_cell_length_a     67.837149
_cell_length_b     67.842971
_cell_length_c     21.303872
_cell_angle_alpha  90.048725
_cell_angle_beta   90.068898
_cell_angle_gamma 120.0222
loop_
_atom_site_label
_atom_site_type_symbol
_atom_site_fract_x
_atom_site_fract_y
_atom_site_fract_z
_atom_type_partial_charge
C0 C 0.21551 0.09621 0.16016 0.0
O1 O 0.21787 0.0835 0.19953 0.0
Cd2 Cd 0.2343 0.09936 0.30068 0.0
O3 O 0.21978 0.11599 0.17603 0.0
Cd4 Cd 0.2315 0.14204 0.26441 0.0
C5 C 0.28197 0.14491 0.23987 0.0
O6 O 0.21428 0.11604 0.35288 0.0
O7 O 0.23989 0.15102 0.37345 0.0
O8 O 0.20057 0.14794 0.23611 0.0
C9 C 0.22448 0.13181 0.39326 0.0
O10 O 0.2734 0.12578 0.2677 0.0
C11 C 0.21245 0.16946 0.23263 0.0
O12 O 0.27024 0.15459 0.23176 0.0
O13 O 0.23364 0.1784 0.24376 0.0
C14 C 0.89446 0.11714 0.14985 0.0
O15 O 0.90784 0.13122 0.19033 0.0
Cd16 Cd 0.89079 0.13513 0.28444 0.0
O17 O 0.87401 0.10294 0.16457 0.0
Cd18 Cd 0.84802 0.09046 0.25433 0.0
C19 C 0.84678 0.13668 0.20799 0.0
O20 O 0.87285 0.10059 0.34566 0.0
O21 O 0.83951 0.09679 0.35979 0.0
O22 O 0.84215 0.05273 0.24375 0.0
C23 C 0.8574 0.09834 0.38359 0.0
O24 O 0.86584 0.14736 0.23633 0.0
C25 C 0.82057 0.04271 0.24198 0.0
O26 O 0.83585 0.11503 0.207 0.0
O27 O 0.81151 0.0552 0.24283 0.0
C28 C 0.86686 0.77013 0.15845 0.0
O29 O 0.85212 0.76864 0.1977 0.0
Cd30 Cd 0.8505 0.75134 0.29771 0.0
O31 O 0.88181 0.7651 0.17467 0.0
Cd32 Cd 0.89551 0.75305 0.26356 0.0
C33 C 0.84743 0.70327 0.2352 0.0
O34 O 0.88712 0.77106 0.35017 0.0
O35 O 0.89535 0.74484 0.37322 0.0
O36 O 0.93172 0.7848 0.23738 0.0
C37 C 0.89229 0.76091 0.39159 0.0
O38 O 0.83715 0.71224 0.26261 0.0
C39 C 0.94251 0.77402 0.2368 0.0
O40 O 0.86896 0.71448 0.22871 0.0
O41 O 0.93103 0.75268 0.24679 0.0
C42 C 0.10751 0.24226 0.25218 0.0
O43 O 0.0959 0.24563 0.21126 0.0
Cd44 Cd 0.11348 0.26178 0.11183 0.0
O45 O 0.12678 0.24469 0.23782 0.0
Cd46 Cd 0.1528 0.253 0.14912 0.0
C47 C 0.16302 0.30582 0.17527 0.0
O48 O 0.12688 0.23932 0.05913 0.0
O49 O 0.16265 0.26206 0.03992 0.0
O50 O 0.15128 0.21775 0.17298 0.0
C51 C 0.14279 0.24879 0.01897 0.0
O52 O 0.14386 0.29867 0.14834 0.0
C53 C 0.17262 0.22601 0.17794 0.0
O54 O 0.17117 0.29267 0.18289 0.0
O55 O 0.18508 0.2474 0.17051 0.0
C56 C 0.7579 0.86645 0.3021 0.0
O57 O 0.75645 0.85198 0.26186 0.0
Cd58 Cd 0.7396 0.85167 0.16203 0.0
O59 O 0.75347 0.88188 0.28656 0.0
Cd60 Cd 0.7429 0.89726 0.19803 0.0
C61 C 0.69256 0.85039 0.22712 0.0
O62 O 0.76029 0.88831 0.1106 0.0
O63 O 0.73475 0.89759 0.08834 0.0
O64 O 0.77578 0.93222 0.22748 0.0
C65 C 0.75055 0.89418 0.06965 0.0
O66 O 0.70117 0.83988 0.19919 0.0
C67 C 0.76628 0.94425 0.22682 0.0
O68 O 0.70409 0.87193 0.23378 0.0
O69 O 0.74508 0.93409 0.21437 0.0
C70 C 0.11996 0.88899 0.29092 0.0
O71 O 0.13534 0.90101 0.25149 0.0
Cd72 Cd 0.13567 0.88333 0.1539 0.0
O73 O 0.10377 0.86946 0.2754 0.0
Cd74 Cd 0.08824 0.84328 0.18671 0.0
C75 C 0.13212 0.83609 0.22484 0.0
O76 O 0.10011 0.86927 0.09771 0.0
O77 O 0.08957 0.83396 0.07826 0.0
O78 O 0.05287 0.84189 0.20704 0.0
C79 C 0.09437 0.8534 0.05765 0.0
O80 O 0.14418 0.85493 0.1965 0.0
C81 C 0.04081 0.82035 0.2084 0.0
O82 O 0.11066 0.8275 0.22863 0.0
O83 O 0.05113 0.80917 0.20156 0.0
C84 C 0.76261 0.89144 0.8038 0.0
O85 O 0.76082 0.90428 0.76369 0.0
Cd86 Cd 0.74164 0.88683 0.66698 0.0
O87 O 0.75781 0.87144 0.78845 0.0
Cd88 Cd 0.74578 0.84551 0.69909 0.0
C89 C 0.69639 0.84171 0.73908 0.0
O90 O 0.76091 0.87071 0.60871 0.0
O91 O 0.73372 0.83607 0.59184 0.0
O92 O 0.77816 0.84113 0.71754 0.0
C93 C 0.74956 0.85467 0.5699 0.0
O94 O 0.70399 0.86061 0.71041 0.0
C95 C 0.76713 0.81953 0.71907 0.0
O96 O 0.70826 0.83202 0.74213 0.0
O97 O 0.74562 0.80982 0.71339 0.0
C98 C 0.10158 0.8687 0.7904 0.0
O99 O 0.08837 0.8546 0.74962 0.0
Cd100 Cd 0.10398 0.85329 0.64964 0.0
O101 O 0.12162 0.88394 0.77534 0.0
Cd102 Cd 0.14751 0.89896 0.6857 0.0
C103 C 0.14942 0.8512 0.71482 0.0
O104 O 0.12083 0.89003 0.59944 0.0
O105 O 0.15511 0.8982 0.57521 0.0
O106 O 0.15187 0.93523 0.712 0.0
C107 C 0.13577 0.89473 0.55729 0.0
O108 O 0.13016 0.84093 0.68732 0.0
C109 C 0.17348 0.94616 0.71184 0.0
O110 O 0.15991 0.87277 0.72089 0.0
O111 O 0.1834 0.93476 0.70159 0.0
C112 C 0.12538 0.24626 0.75185 0.0
O113 O 0.13979 0.24886 0.70999 0.0
Cd114 Cd 0.13776 0.26303 0.60809 0.0
O115 O 0.10837 0.24848 0.73782 0.0
Cd116 Cd 0.09045 0.25596 0.64734 0.0
C117 C 0.1341 0.30916 0.66226 0.0
O118 O 0.10105 0.23945 0.56094 0.0
O119 O 0.08861 0.26217 0.53589 0.0
O120 O 0.0559 0.22234 0.677 0.0
C121 C 0.09466 0.24811 0.51827 0.0
O122 O 0.14553 0.30116 0.63633 0.0
C123 C 0.04376 0.23171 0.6794 0.0
O124 O 0.113 0.29624 0.67351 0.0
O125 O 0.0536 0.25292 0.66782 0.0
C126 C 0.89172 0.77215 0.65769 0.0
O127 O 0.90508 0.77044 0.69615 0.0
Cd128 Cd 0.88945 0.75269 0.79588 0.0
O129 O 0.87166 0.76662 0.67421 0.0
Cd130 Cd 0.84616 0.75329 0.76329 0.0
C131 C 0.8451 0.70424 0.73354 0.0
O132 O 0.87195 0.77122 0.85192 0.0
O133 O 0.83777 0.74354 0.87149 0.0
O134 O 0.83971 0.78403 0.74006 0.0
C135 C 0.8562 0.76019 0.89164 0.0
O136 O 0.86437 0.71349 0.76097 0.0
C137 C 0.81815 0.77217 0.73943 0.0
O138 O 0.83448 0.71513 0.72702 0.0
O139 O 0.80936 0.75087 0.74797 0.0
C140 C 0.21845 0.11868 0.66063 0.0
O141 O 0.21937 0.13298 0.70072 0.0
Cd142 Cd 0.23635 0.13536 0.80163 0.0
O143 O 0.22402 0.10403 0.67606 0.0
Cd144 Cd 0.23684 0.09127 0.76653 0.0
C145 C 0.2858 0.14088 0.74243 0.0
O146 O 0.21743 0.09849 0.85199 0.0
O147 O 0.24441 0.09169 0.8773 0.0
O148 O 0.20695 0.0538 0.73999 0.0
C149 C 0.2278 0.09404 0.89445 0.0
O150 O 0.27598 0.15042 0.76928 0.0
C151 C 0.21914 0.04445 0.74031 0.0
O152 O 0.2753 0.11938 0.73483 0.0
O153 O 0.2403 0.05729 0.7508 0.0
C154 C 0.87092 0.09964 0.65122 0.0
O155 O 0.85669 0.08638 0.69148 0.0
Cd156 Cd 0.85605 0.10086 0.79379 0.0
O157 O 0.8864 0.11953 0.66652 0.0
Cd158 Cd 0.90084 0.1448 0.7572 0.0
C159 C 0.85191 0.1447 0.72844 0.0
O160 O 0.89332 0.11804 0.84248 0.0
O161 O 0.9006 0.15203 0.86767 0.0
O162 O 0.93852 0.15334 0.72807 0.0
C163 C 0.8983 0.13307 0.8847 0.0
O164 O 0.84198 0.12574 0.75724 0.0
C165 C 0.94707 0.17482 0.72827 0.0
O166 O 0.87345 0.15549 0.72256 0.0
O167 O 0.93377 0.1824 0.74093 0.0
C168 C 0.88299 0.42629 0.49581 0.0
O169 O 0.88407 0.41263 0.53442 0.0
Cd170 Cd 0.90302 0.42764 0.63294 0.0
O171 O 0.88924 0.44657 0.51231 0.0
Cd172 Cd 0.90324 0.47198 0.60227 0.0
C173 C 0.95153 0.47149 0.56857 0.0
O174 O 0.88518 0.4456 0.68857 0.0
O175 O 0.91334 0.47916 0.71131 0.0
O176 O 0.87166 0.47742 0.58277 0.0
C177 C 0.89641 0.46065 0.72986 0.0
O178 O 0.94203 0.45223 0.5959 0.0
C179 C 0.88262 0.49897 0.58629 0.0
O180 O 0.94113 0.48269 0.5634 0.0
O181 O 0.9041 0.5085 0.59332 0.0
C182 C 0.55707 0.42871 0.38094 0.0
O183 O 0.57578 0.44695 0.39024 0.0
Cd184 Cd 0.57925 0.46987 0.48018 0.0
O185 O 0.54146 0.42173 0.42193 0.0
Cd186 Cd 0.53625 0.43274 0.52661 0.0
C187 C 0.53221 0.47495 0.46027 0.0
O188 O 0.57332 0.44834 0.57591 0.0
O189 O 0.55079 0.45943 0.61301 0.0
O190 O 0.52419 0.39539 0.56743 0.0
C191 C 0.56772 0.45656 0.62144 0.0
O192 O 0.5539 0.4857 0.45991 0.0
C193 C 0.50428 0.39075 0.58279 0.0
O194 O 0.52126 0.45462 0.48015 0.0
O195 O 0.49878 0.40576 0.57147 0.0
C196 C 0.53883 0.11006 0.48157 0.0
O197 O 0.52349 0.10877 0.51819 0.0
Cd198 Cd 0.51918 0.08961 0.61642 0.0
O199 O 0.55251 0.1036 0.49972 0.0
Cd200 Cd 0.56334 0.08901 0.58861 0.0
C201 C 0.51494 0.04167 0.54892 0.0
O202 O 0.55511 0.1078 0.67303 0.0
O203 O 0.5608 0.08002 0.69812 0.0
O204 O 0.60092 0.11897 0.56604 0.0
C205 C 0.5591 0.09703 0.71526 0.0
O206 O 0.50484 0.05108 0.57483 0.0
C207 C 0.61021 0.10675 0.56733 0.0
O208 O 0.53657 0.05178 0.54777 0.0
O209 O 0.5973 0.08556 0.57692 0.0
C210 C 0.75744 0.55025 0.69482 0.0
O211 O 0.74515 0.5527 0.65415 0.0
Cd212 Cd 0.75982 0.56874 0.55321 0.0
O213 O 0.77703 0.55355 0.67989 0.0
Cd214 Cd 0.80165 0.56419 0.58624 0.0
C215 C 0.80716 0.6156 0.61165 0.0
O216 O 0.77407 0.54693 0.50114 0.0
O217 O 0.80814 0.57307 0.47578 0.0
O218 O 0.80879 0.53332 0.60455 0.0
C219 C 0.78877 0.55714 0.45849 0.0
O220 O 0.78783 0.60759 0.58493 0.0
C221 C 0.83033 0.54531 0.60056 0.0
O222 O 0.81611 0.60319 0.61924 0.0
O223 O 0.83871 0.56663 0.59376 0.0
C224 C 0.44081 0.22056 0.69824 0.0
O225 O 0.44054 0.2064 0.65874 0.0
Cd226 Cd 0.42304 0.2041 0.55857 0.0
O227 O 0.43444 0.23452 0.68237 0.0
Cd228 Cd 0.42181 0.24887 0.59639 0.0
C229 C 0.3738 0.19919 0.6232 0.0
O230 O 0.44026 0.24101 0.50984 0.0
O231 O 0.41363 0.24854 0.48621 0.0
O232 O 0.45378 0.284 0.62915 0.0
C233 C 0.42945 0.24509 0.46788 0.0
O234 O 0.38433 0.19045 0.59597 0.0
C235 C 0.44414 0.29587 0.62635 0.0
O236 O 0.38337 0.2207 0.63075 0.0
O237 O 0.4231 0.28551 0.61169 0.0
C238 C 0.78307 0.22442 0.63004 0.0
O239 O 0.79847 0.23743 0.59192 0.0
Cd240 Cd 0.8014 0.21984 0.49697 0.0
O241 O 0.76851 0.20429 0.61381 0.0
Cd242 Cd 0.75586 0.17775 0.52655 0.0
C243 C 0.80166 0.17519 0.57236 0.0
O244 O 0.76616 0.20332 0.4372 0.0
O245 O 0.75861 0.16871 0.41916 0.0
O246 O 0.71938 0.17376 0.54506 0.0
C247 C 0.76142 0.18742 0.39793 0.0
O248 O 0.81293 0.19426 0.54455 0.0
C249 C 0.70849 0.15216 0.54637 0.0
O250 O 0.78003 0.16491 0.5728 0.0
O251 O 0.71998 0.14215 0.54015 0.0
C252 C 0.43673 0.23744 0.20084 0.0
O253 O 0.43313 0.24958 0.16237 0.0
Cd254 Cd 0.41671 0.23423 0.06163 0.0
O255 O 0.43382 0.21819 0.18401 0.0
Cd256 Cd 0.42308 0.19382 0.09096 0.0
C257 C 0.37104 0.18593 0.11974 0.0
O258 O 0.4393 0.22146 0.00607 0.0
O259 O 0.41393 0.1869 -0.01886 0.0
O260 O 0.45585 0.18998 0.10953 0.0
C261 C 0.42955 0.2064 0.96376 0.0
O262 O 0.37837 0.20524 0.09365 0.0
C263 C 0.44549 0.16846 0.10468 0.0
O264 O 0.38405 0.1776 0.12614 0.0
O265 O 0.42402 0.15842 0.09719 0.0
C266 C 0.76217 0.19937 0.13072 0.0
O267 O 0.74933 0.1843 0.09141 0.0
Cd268 Cd 0.76558 0.18356 -0.00819 0.0
O269 O 0.7817 0.2152 0.11414 0.0
Cd270 Cd 0.80668 0.22969 0.02347 0.0
C271 C 0.81224 0.18445 0.05662 0.0
O272 O 0.77976 0.21956 0.93726 0.0
O273 O 0.81442 0.22867 0.91397 0.0
O274 O 0.81116 0.26619 0.04717 0.0
C275 C 0.7951 0.22515 0.89578 0.0
O276 O 0.793 0.17272 0.02976 0.0
C277 C 0.83278 0.27681 0.04682 0.0
O278 O 0.82132 0.20593 0.06061 0.0
O279 O 0.84243 0.26515 0.03731 0.0
C280 C 0.77241 0.5485 0.19254 0.0
O281 O 0.78684 0.54971 0.15254 0.0
Cd282 Cd 0.78845 0.56637 0.05175 0.0
O283 O 0.75753 0.55378 0.17736 0.0
Cd284 Cd 0.74282 0.56561 0.08948 0.0
C285 C 0.79166 0.61503 0.11387 0.0
O286 O 0.75149 0.54745 0.00302 0.0
O287 O 0.74287 0.57326 -0.02107 0.0
O288 O 0.70704 0.53395 0.12043 0.0
C289 C 0.74675 0.5577 0.96093 0.0
O290 O 0.8011 0.60519 0.08661 0.0
C291 C 0.69558 0.54404 0.11717 0.0
O292 O 0.77018 0.60451 0.12242 0.0
O293 O 0.70648 0.56513 0.10359 0.0
C294 C 0.56306 0.11235 -0.02031 0.0
O295 O 0.57609 0.10948 0.01663 0.0
Cd296 Cd 0.55995 0.09005 0.11346 0.0
O297 O 0.54341 0.10783 -0.00235 0.0
Cd298 Cd 0.51861 0.09528 0.08846 0.0
C299 C 0.51324 0.04558 0.04307 0.0
O300 O 0.54551 0.11006 0.17492 0.0
O301 O 0.51113 0.08302 0.1955 0.0
O302 O 0.51559 0.12871 0.07707 0.0
C303 C 0.53009 0.09901 0.21533 0.0
O304 O 0.53246 0.05282 0.06982 0.0
C305 C 0.49407 0.11864 0.08107 0.0
O306 O 0.50382 0.05775 0.04256 0.0
O307 O 0.48355 0.09701 0.08398 0.0
C308 C 0.88336 0.45005 -0.00454 0.0
O309 O 0.88578 0.4655 0.03357 0.0
Cd310 Cd 0.90201 0.46651 0.13525 0.0
O311 O 0.88774 0.43477 0.01265 0.0
Cd312 Cd 0.89977 0.4217 0.1022 0.0
C313 C 0.95018 0.469 0.07785 0.0
O314 O 0.88171 0.43013 0.18911 0.0
O315 O 0.90805 0.42184 0.21092 0.0
O316 O 0.86879 0.38481 0.07669 0.0
C317 C 0.8918 0.4245 0.22964 0.0
O318 O 0.9414 0.47953 0.1048 0.0
C319 C 0.88046 0.37491 0.07594 0.0
O320 O 0.93851 0.44757 0.06974 0.0
O321 O 0.90173 0.38718 0.08579 0.0
C322 C 0.56052 0.43559 0.87948 0.0
O323 O 0.54535 0.41502 0.88862 0.0
Cd324 Cd 0.52291 0.40747 -0.01767 0.0
O325 O 0.5655 0.45014 0.9228 0.0
Cd326 Cd 0.55641 0.45201 0.03175 0.0
C327 C 0.51007 0.45016 0.97334 0.0
O328 O 0.54567 0.41504 0.07658 0.0
O329 O 0.53194 0.43439 0.12055 0.0
O330 O 0.5952 0.46565 0.06022 0.0
C331 C 0.53706 0.41882 0.12479 0.0
O332 O 0.50247 0.42883 0.96859 0.0
C333 C 0.59952 0.48495 0.08075 0.0
O334 O 0.53006 0.46325 -0.00597 0.0
O335 O 0.58344 0.48945 0.07887 0.0
C336 C 0.54557 0.76422 0.80601 0.0
O337 O 0.54697 0.75049 0.8437 0.0
Cd338 Cd 0.56423 0.76455 0.94452 0.0
O339 O 0.55112 0.78422 0.82368 0.0
Cd340 Cd 0.56427 0.80919 0.91465 0.0
C341 C 0.6128 0.80923 0.88318 0.0
O342 O 0.54488 0.78159 -0.00241 0.0
O343 O 0.57204 0.81506 0.02519 0.0
O344 O 0.53456 0.81713 0.89025 0.0
C345 C 0.55516 0.79605 0.04091 0.0
O346 O 0.60333 0.78972 0.9091 0.0
C347 C 0.54682 0.83864 0.89346 0.0
O348 O 0.60226 0.82027 0.87876 0.0
O349 O 0.56792 0.84674 0.90437 0.0
C350 C 0.23025 0.77978 0.79918 0.0
O351 O 0.24371 0.7957 0.83551 0.0
Cd352 Cd 0.22772 0.80044 0.93092 0.0
O353 O 0.2103 0.7655 0.81725 0.0
Cd354 Cd 0.18554 0.75507 0.90755 0.0
C355 C 0.18227 0.80025 0.85916 0.0
O356 O 0.21193 0.76656 -0.00476 0.0
O357 O 0.17802 0.76121 0.01299 0.0
O358 O 0.18223 0.71848 0.89981 0.0
C359 C 0.19619 0.76265 0.03418 0.0
O360 O 0.20153 0.81164 0.88617 0.0
C361 C 0.16074 0.70708 0.9048 0.0
O362 O 0.17203 0.77859 0.85904 0.0
O363 O 0.15021 0.71821 0.90564 0.0
C364 C 0.23415 0.46471 0.71323 0.0
O365 O 0.21899 0.47018 0.72175 0.0
Cd366 Cd 0.19423 0.45273 0.81047 0.0
O367 O 0.2377 0.45364 0.75528 0.0
Cd368 Cd 0.22551 0.43838 0.86002 0.0
C369 C 0.18093 0.39813 0.78156 0.0
O370 O 0.21566 0.46455 0.9086 0.0
O371 O 0.20047 0.4307 0.94852 0.0
O372 O 0.26422 0.4591 0.89514 0.0
C373 C 0.20656 0.45158 0.95552 0.0
O374 O 0.17336 0.41192 0.78059 0.0
C375 C 0.26602 0.44191 0.90925 0.0
O376 O 0.19987 0.40372 0.80746 0.0
O377 O 0.24845 0.42242 0.90186 0.0
C378 C 0.43007 0.89626 0.96064 0.0
O379 O 0.41691 0.89765 0.92076 0.0
Cd380 Cd 0.43366 0.91625 0.82318 0.0
O381 O 0.45015 0.90144 0.94512 0.0
Cd382 Cd 0.47606 0.91361 0.85615 0.0
C383 C 0.47858 0.96283 0.89267 0.0
O384 O 0.45013 0.89678 0.76766 0.0
O385 O 0.48453 0.9238 0.74752 0.0
O386 O 0.48011 0.88134 0.87797 0.0
C387 C 0.4658 0.90749 0.72757 0.0
O388 O 0.45943 0.95436 0.86482 0.0
C389 C 0.50171 0.89196 0.87805 0.0
O390 O 0.48893 0.95158 0.89643 0.0
O391 O 0.51176 0.91342 0.87041 0.0
C392 C 0.10511 0.53088 0.03575 0.0
O393 O 0.10194 0.51582 -0.00465 0.0
Cd394 Cd 0.08463 0.51493 0.89642 0.0
O395 O 0.10199 0.54727 0.02089 0.0
Cd396 Cd 0.09112 0.56133 0.92845 0.0
C397 C 0.03936 0.51732 0.95876 0.0
O398 O 0.1064 0.55019 0.84017 0.0
O399 O 0.08007 0.55849 0.82 0.0
O400 O 0.1238 0.5983 0.94464 0.0
C401 C 0.0958 0.55523 0.7999 0.0
O402 O 0.04651 0.50543 0.93115 0.0
C403 C 0.11312 0.60917 0.94077 0.0
O404 O 0.05243 0.53864 0.96565 0.0
O405 O 0.09159 0.59744 0.93531 0.0
C406 C 0.438 0.53783 -0.01798 0.0
O407 O 0.45215 0.55088 0.94123 0.0
Cd408 Cd 0.45234 0.53601 0.83862 0.0
O409 O 0.42273 0.51775 0.96725 0.0
Cd410 Cd 0.40613 0.491 0.8796 0.0
C411 C 0.45409 0.48825 0.89064 0.0
O412 O 0.41476 0.51838 0.79496 0.0
O413 O 0.40333 0.48363 0.76744 0.0
O414 O 0.37278 0.48968 0.92051 0.0
C415 C 0.40928 0.50383 0.75115 0.0
O416 O 0.46341 0.50797 0.86592 0.0
C417 C 0.35996 0.46824 0.9186 0.0
O418 O 0.43282 0.47753 0.90266 0.0
O419 O 0.36886 0.45667 0.89942 0.0
C420 C 0.10476 0.54929 0.53317 0.0
O421 O 0.10434 0.56262 0.49207 0.0
Cd422 Cd 0.08865 0.54735 0.39033 0.0
O423 O 0.09977 0.52918 0.5184 0.0
Cd424 Cd 0.08947 0.50291 0.43043 0.0
C425 C 0.03959 0.5017 0.44981 0.0
O426 O 0.10795 0.52941 0.34372 0.0
O427 O 0.08222 0.49482 0.32009 0.0
O428 O 0.12183 0.50051 0.46404 0.0
C429 C 0.09793 0.51417 0.30196 0.0
O430 O 0.0496 0.52095 0.42241 0.0
C431 C 0.11267 0.47903 0.45999 0.0
O432 O 0.05014 0.49088 0.46046 0.0
O433 O 0.09163 0.46802 0.4455 0.0
C434 C 0.42525 0.52493 0.48597 0.0
O435 O 0.41382 0.50981 0.4451 0.0
Cd436 Cd 0.42806 0.51146 0.34062 0.0
O437 O 0.4439 0.54251 0.47084 0.0
Cd438 Cd 0.46758 0.5594 0.37654 0.0
C439 C 0.47972 0.51724 0.38288 0.0
O440 O 0.43968 0.54729 0.29075 0.0
O441 O 0.47487 0.55979 0.26583 0.0
O442 O 0.46898 0.59483 0.39934 0.0
C443 C 0.45471 0.55342 0.24813 0.0
O444 O 0.45998 0.50524 0.35901 0.0
C445 C 0.49051 0.60702 0.39799 0.0
O446 O 0.48702 0.53799 0.39729 0.0
O447 O 0.50163 0.59672 0.38965 0.0
C448 C 0.45218 0.89477 0.46136 0.0
O449 O 0.46696 0.89692 0.42134 0.0
Cd450 Cd 0.46761 0.91527 0.32424 0.0
O451 O 0.43644 0.89877 0.44583 0.0
Cd452 Cd 0.42134 0.90947 0.35678 0.0
C453 C 0.46584 0.95975 0.3961 0.0
O454 O 0.43202 0.89448 0.2673 0.0
O455 O 0.42305 0.9205 0.249 0.0
O456 O 0.38546 0.87623 0.37719 0.0
C457 C 0.42653 0.905 0.22794 0.0
O458 O 0.47757 0.95256 0.36783 0.0
C459 C 0.374 0.88635 0.37758 0.0
O460 O 0.44431 0.94739 0.39908 0.0
O461 O 0.38492 0.90784 0.37057 0.0
C462 C 0.22907 0.46423 0.21327 0.0
O463 O 0.24887 0.4674 0.22347 0.0
Cd464 Cd 0.25376 0.44913 0.31374 0.0
O465 O 0.21368 0.45456 0.25457 0.0
Cd466 Cd 0.20989 0.44018 0.36174 0.0
C467 C 0.20865 0.39561 0.29216 0.0
O468 O 0.24682 0.46413 0.40978 0.0
O469 O 0.22619 0.43054 0.44942 0.0
O470 O 0.19525 0.46394 0.39797 0.0
C471 C 0.2423 0.4509 0.45633 0.0
O472 O 0.23023 0.40798 0.28909 0.0
C473 C 0.17597 0.44793 0.41541 0.0
O474 O 0.19693 0.4035 0.31627 0.0
O475 O 0.17215 0.42773 0.40807 0.0
C476 C 0.54101 0.78166 0.30515 0.0
O477 O 0.54373 0.79724 0.3432 0.0
Cd478 Cd 0.56312 0.80059 0.44024 0.0
O479 O 0.54573 0.76652 0.32177 0.0
Cd480 Cd 0.55869 0.75379 0.4113 0.0
C481 C 0.6082 0.79982 0.36917 0.0
O482 O 0.54352 0.76534 0.49792 0.0
O483 O 0.57022 0.75764 0.51951 0.0
O484 O 0.52597 0.71671 0.39676 0.0
C485 C 0.5546 0.76122 0.53892 0.0
O486 O 0.60062 0.8113 0.39695 0.0
C487 C 0.53675 0.7059 0.3982 0.0
O488 O 0.59634 0.77819 0.36714 0.0
O489 O 0.55833 0.7177 0.40229 0.0
C490 C 0.20376 0.75697 0.29978 0.0
O491 O 0.18879 0.74275 0.3369 0.0
Cd492 Cd 0.18483 0.75718 0.43625 0.0
O493 O 0.21769 0.77699 0.31836 0.0
Cd494 Cd 0.22875 0.80154 0.40932 0.0
C495 C 0.18048 0.80116 0.37224 0.0
O496 O 0.22071 0.77432 0.49314 0.0
O497 O 0.22595 0.80763 0.51865 0.0
O498 O 0.26673 0.80989 0.38776 0.0
C499 C 0.22476 0.78912 0.53541 0.0
O500 O 0.17025 0.78155 0.39757 0.0
C501 C 0.27566 0.83138 0.39052 0.0
O502 O 0.20211 0.81242 0.37055 0.0
O503 O 0.26235 0.8392 0.39983 0.0
C504 C 0.22815 0.08028 0.00269 0.0
C505 C 0.22097 0.09158 0.96111 0.0
C506 C 0.2241 0.0797 0.06726 0.0
C507 C 0.21304 0.09071 0.09261 0.0
H508 H 0.23767 0.07247 -0.01445 0.0
H509 H 0.2312 0.07206 0.09779 0.0
S510 S 0.18819 0.12 0.00333 0.0
N511 N 0.2 0.1118 0.94922 0.0
N512 N 0.1928 0.11109 0.07093 0.0
C513 C 0.20436 0.10066 0.05119 0.0
C514 C 0.20824 0.10102 -0.01468 0.0
C515 C 0.88812 0.10646 0.97541 0.0
C516 C 0.90072 0.12861 0.9512 0.0
C517 C 0.88777 0.10246 0.04004 0.0
C518 C 0.90037 0.12042 0.08244 0.0
H519 H 0.8774 0.09232 0.94479 0.0
H520 H 0.87657 0.08539 0.05727 0.0
S521 S 0.93912 0.18098 0.04072 0.0
N522 N 0.9282 0.16828 0.97307 0.0
N523 N 0.9279 0.16078 0.09435 0.0
C524 C 0.91463 0.14232 0.05795 0.0
C525 C 0.91464 0.14643 -0.00766 0.0
C526 C 0.88338 0.78009 0.05123 0.0
C527 C 0.86441 0.77309 0.09082 0.0
C528 C 0.88075 0.77698 -0.01384 0.0
C529 C 0.85902 0.76641 0.95867 0.0
H530 H 0.90028 0.78686 0.071 0.0
H531 H 0.89569 0.78164 0.95776 0.0
S532 S 0.80426 0.74831 0.04018 0.0
N533 N 0.82348 0.75775 0.09683 0.0
N534 N 0.8185 0.75168 0.97451 0.0
C535 C 0.84011 0.76096 -0.00296 0.0
C536 C 0.84282 0.76444 0.06318 0.0
C537 C 0.08776 0.24874 0.34175 0.0
C538 C 0.10078 0.23938 0.3191 0.0
C539 C 0.08531 0.25081 0.4063 0.0
C540 C 0.09556 0.24337 0.45073 0.0
H541 H 0.08049 0.25574 0.30955 0.0
H542 H 0.07586 0.25894 0.42138 0.0
S543 S 0.12872 0.21472 0.4155 0.0
N544 N 0.12215 0.22054 0.34595 0.0
N545 N 0.11732 0.22417 0.46732 0.0
C546 C 0.10731 0.23256 0.4287 0.0
C547 C 0.10998 0.23063 0.3629 0.0
C548 C 0.76819 0.8822 0.41026 0.0
C549 C 0.76042 0.86337 0.36962 0.0
C550 C 0.76548 0.87932 0.47534 0.0
C551 C 0.75452 0.85746 0.50199 0.0
H552 H 0.77549 0.89927 0.39141 0.0
H553 H 0.771 0.89425 0.5046 0.0
S554 S 0.73354 0.80275 0.4169 0.0
N555 N 0.74332 0.82227 0.36123 0.0
N556 N 0.73799 0.81679 0.48358 0.0
C557 C 0.74794 0.83857 0.46229 0.0
C558 C 0.75101 0.84154 0.39607 0.0
C559 C 0.14926 0.90679 0.44768 0.0
C560 C 0.13102 0.89597 0.49008 0.0
C561 C 0.14546 0.90642 0.383 0.0
C562 C 0.12326 0.89492 0.35828 0.0
H563 H 0.16669 0.91503 0.46435 0.0
H564 H 0.16007 0.91385 0.35205 0.0
S565 S 0.06956 0.86642 0.44955 0.0
N566 N 0.08986 0.87552 0.50316 0.0
N567 N 0.08273 0.87449 0.38131 0.0
C568 C 0.10483 0.88533 0.40035 0.0
C569 C 0.1087 0.88592 0.46634 0.0
C570 C 0.76706 0.88464 -0.02218 0.0
C571 C 0.75722 0.89686 0.00289 0.0
C572 C 0.77078 0.88466 0.91317 0.0
C573 C 0.7651 0.89717 0.87143 0.0
H574 H 0.77074 0.87398 0.00777 0.0
H575 H 0.77697 0.87379 0.8954 0.0
S576 S 0.74274 0.93524 0.91552 0.0
N577 N 0.74465 0.92413 -0.01742 0.0
N578 N 0.75186 0.92439 0.86112 0.0
C579 C 0.7572 0.91109 0.89676 0.0
C580 C 0.7531 0.9108 0.9625 0.0
C581 C 0.10665 0.87944 0.96519 0.0
C582 C 0.09352 0.8574 -0.01019 0.0
C583 C 0.10788 0.88324 0.90034 0.0
C584 C 0.0957 0.86521 0.85785 0.0
H585 H 0.1169 0.89371 -0.00406 0.0
H586 H 0.1192 0.9003 0.88325 0.0
S587 S 0.05635 0.80477 0.89947 0.0
N588 N 0.06633 0.81766 0.96748 0.0
N589 N 0.0684 0.82482 0.84564 0.0
C590 C 0.08122 0.84335 0.88225 0.0
C591 C 0.08025 0.83943 0.94824 0.0
C592 C 0.11199 0.23734 0.86298 0.0
C593 C 0.12957 0.24353 0.81882 0.0
C594 C 0.11621 0.23822 0.92762 0.0
C595 C 0.13824 0.24561 0.95067 0.0
H596 H 0.0949 0.23244 0.84764 0.0
H597 H 0.10226 0.23396 0.95971 0.0
S598 S 0.18978 0.26133 0.85524 0.0
N599 N 0.16955 0.25544 0.80309 0.0
N600 N 0.17748 0.25728 0.92452 0.0
C601 C 0.15576 0.25075 0.90719 0.0
C602 C 0.15142 0.24961 0.8413 0.0
C603 C 0.90741 0.76106 0.49831 0.0
C604 C 0.89518 0.76766 0.45835 0.0
C605 C 0.90843 0.76496 0.56305 0.0
C606 C 0.89695 0.77525 0.59013 0.0
H607 H 0.9156 0.75208 0.4798 0.0
H608 H 0.91675 0.75823 0.59239 0.0
S609 S 0.86533 0.79857 0.5054 0.0
N610 N 0.87367 0.78742 0.44973 0.0
N611 N 0.8752 0.79431 0.57182 0.0
C612 C 0.88612 0.78345 0.55029 0.0
C613 C 0.88531 0.77974 0.48424 0.0
C614 C 0.20935 0.103 0.55183 0.0
C615 C 0.21501 0.12129 0.59325 0.0
C616 C 0.21125 0.10625 0.4867 0.0
C617 C 0.21927 0.12797 0.46086 0.0
H618 H 0.20442 0.08625 0.56996 0.0
H619 H 0.20765 0.09191 0.45674 0.0
S620 S 0.23334 0.18083 0.54791 0.0
N621 N 0.22653 0.16139 0.60301 0.0
N622 N 0.23041 0.16751 0.48068 0.0
C623 C 0.22351 0.14607 0.50132 0.0
C624 C 0.22123 0.14271 0.56754 0.0
C625 C 0.88294 0.09791 0.54203 0.0
C626 C 0.86585 0.09511 0.58413 0.0
C627 C 0.87988 0.09849 0.47709 0.0
C628 C 0.85988 0.09695 0.45228 0.0
H629 H 0.89899 0.10029 0.55954 0.0
H630 H 0.89355 0.10075 0.44631 0.0
S631 S 0.81075 0.09112 0.54447 0.0
N632 N 0.82866 0.0915 0.59762 0.0
N633 N 0.82293 0.09304 0.47595 0.0
C634 C 0.84264 0.0941 0.49435 0.0
C635 C 0.84563 0.09308 0.56022 0.0
C636 C 0.87668 0.43432 0.32379 0.0
C637 C 0.88515 0.42128 0.29618 0.0
C638 C 0.87388 0.43419 0.3889 0.0
C639 C 0.87914 0.42077 0.42829 0.0
H640 H 0.87361 0.44578 0.29552 0.0
H641 H 0.86889 0.44575 0.40882 0.0
S642 S 0.89742 0.38012 0.37671 0.0
N643 N 0.89555 0.39211 0.31128 0.0
N644 N 0.89004 0.39164 0.43367 0.0
C645 C 0.88539 0.40592 0.40035 0.0
C646 C 0.88855 0.4063 0.3342 0.0
C647 C 0.52348 0.4063 0.23256 0.0
C648 C 0.54069 0.41257 0.18773 0.0
C649 C 0.52865 0.40892 0.2966 0.0
C650 C 0.55135 0.41864 0.31751 0.0
H651 H 0.50628 0.40126 0.21793 0.0
H652 H 0.51508 0.40557 0.3292 0.0
S653 S 0.60181 0.4336 0.21869 0.0
N654 N 0.58057 0.4252 0.16824 0.0
N655 N 0.59049 0.43091 0.289 0.0
C656 C 0.56828 0.42258 0.27339 0.0
C657 C 0.56289 0.41934 0.20818 0.0
C658 C 0.51621 0.10333 0.38466 0.0
C659 C 0.53766 0.11336 0.4138 0.0
C660 C 0.51405 0.09924 0.32001 0.0
C661 C 0.53326 0.1054 0.28222 0.0
H662 H 0.50085 0.09693 0.41247 0.0
H663 H 0.4971 0.09055 0.29985 0.0
S664 S 0.59347 0.13536 0.33488 0.0
N665 N 0.57863 0.13159 0.39964 0.0
N666 N 0.5746 0.12438 0.27751 0.0
C667 C 0.55494 0.11719 0.30999 0.0
C668 C 0.55712 0.12108 0.376 0.0
C669 C 0.76342 0.54272 0.80618 0.0
C670 C 0.75102 0.5477 0.7621 0.0
C671 C 0.76115 0.54492 0.87083 0.0
C672 C 0.74669 0.55253 0.89361 0.0
H673 H 0.77571 0.53801 0.79063 0.0
H674 H 0.77166 0.54175 0.90293 0.0
S675 S 0.70813 0.5648 0.79913 0.0
N676 N 0.72181 0.55817 0.74685 0.0
N677 N 0.71795 0.56265 0.86817 0.0
C678 C 0.73317 0.55621 0.85054 0.0
C679 C 0.73517 0.55363 0.78483 0.0
C680 C 0.43409 0.1961 0.79129 0.0
C681 C 0.44368 0.21804 0.76567 0.0
C682 C 0.43021 0.19262 0.85586 0.0
C683 C 0.43611 0.21099 0.89707 0.0
H684 H 0.42796 0.18134 0.76095 0.0
H685 H 0.42183 0.17531 0.8733 0.0
S686 S 0.4649 0.2721 0.85386 0.0
N687 N 0.46122 0.25861 0.78652 0.0
N688 N 0.45436 0.25214 0.90832 0.0
C689 C 0.44742 0.23318 0.87256 0.0
C690 C 0.45111 0.23669 0.80669 0.0
C691 C 0.8069 0.24162 0.72465 0.0
C692 C 0.78512 0.2299 0.69749 0.0
C693 C 0.80985 0.24056 0.78932 0.0
C694 C 0.7911 0.22806 0.82916 0.0
H695 H 0.82193 0.25012 0.6954 0.0
H696 H 0.82704 0.24893 0.80781 0.0
S697 S 0.73027 0.19768 0.78212 0.0
N698 N 0.74432 0.20776 0.71577 0.0
N699 N 0.74982 0.20614 0.83776 0.0
C700 C 0.7691 0.21801 0.80331 0.0
C701 C 0.76613 0.21888 0.73731 0.0
C702 C 0.42728 0.25654 0.35825 0.0
C703 C 0.43467 0.24562 0.40042 0.0
C704 C 0.4299 0.25553 0.29343 0.0
C705 C 0.43968 0.24323 0.26831 0.0
H706 H 0.4188 0.26542 0.37529 0.0
H707 H 0.42287 0.26322 0.26283 0.0
S708 S 0.46427 0.21392 0.35876 0.0
N709 N 0.45425 0.22405 0.41281 0.0
N710 N 0.45881 0.22178 0.29063 0.0
C711 C 0.4484 0.2334 0.31004 0.0
C712 C 0.44599 0.23468 0.37621 0.0
C713 C 0.7694 0.21217 0.30396 0.0
C714 C 0.7586 0.1903 0.33047 0.0
C715 C 0.76881 0.21512 0.23911 0.0
C716 C 0.75711 0.19634 0.19858 0.0
H717 H 0.77931 0.22705 0.33305 0.0
H718 H 0.77855 0.23219 0.22025 0.0
S719 S 0.72301 0.13576 0.24625 0.0
N720 N 0.73365 0.14973 0.31254 0.0
N721 N 0.73238 0.15529 0.19063 0.0
C722 C 0.74469 0.17452 0.22518 0.0
C723 C 0.74556 0.17149 0.29115 0.0
C724 C 0.80163 0.55785 0.34872 0.0
C725 C 0.78361 0.55143 0.39138 0.0
C726 C 0.79762 0.5548 0.28405 0.0
C727 C 0.77547 0.54558 0.25973 0.0
H728 H 0.81907 0.56593 0.36523 0.0
H729 H 0.81213 0.56115 0.25286 0.0
S730 S 0.72218 0.52354 0.35172 0.0
N731 N 0.74259 0.53328 0.40513 0.0
N732 N 0.73509 0.528 0.28323 0.0
C733 C 0.75718 0.53779 0.30201 0.0
C734 C 0.76123 0.5406 0.36797 0.0
C735 C 0.57551 0.09813 0.8205 0.0
C736 C 0.56313 0.1047 0.78116 0.0
C737 C 0.57785 0.10321 0.88462 0.0
C738 C 0.56753 0.11467 0.91176 0.0
H739 H 0.58281 0.08831 0.8021 0.0
H740 H 0.58619 0.09644 0.91372 0.0
S741 S 0.53617 0.13842 0.82774 0.0
N742 N 0.54285 0.1257 0.77245 0.0
N743 N 0.54681 0.13479 0.89363 0.0
C744 C 0.55664 0.12287 0.87218 0.0
C745 C 0.5545 0.11795 0.80666 0.0
C746 C 0.89734 0.47656 0.83591 0.0
C747 C 0.88956 0.45743 0.79644 0.0
C748 C 0.89293 0.47409 0.90041 0.0
C749 C 0.88091 0.4524 0.9277 0.0
H750 H 0.90756 0.49359 0.81725 0.0
H751 H 0.90054 0.48923 0.92955 0.0
S752 S 0.85425 0.397 0.84401 0.0
N753 N 0.86702 0.41616 0.78828 0.0
N754 N 0.85917 0.41154 0.90999 0.0
C755 C 0.87164 0.4332 0.88822 0.0
C756 C 0.87588 0.4357 0.82241 0.0
C757 C 0.57071 0.43347 0.70636 0.0
C758 C 0.57388 0.45456 0.68601 0.0
C759 C 0.56817 0.42792 0.77024 0.0
C760 C 0.56921 0.4435 0.81552 0.0
H761 H 0.56792 0.42036 0.67257 0.0
H762 H 0.56389 0.41084 0.78382 0.0
S763 S 0.58121 0.50247 0.78552 0.0
N764 N 0.5806 0.49195 0.71518 0.0
N765 N 0.57683 0.48213 0.83563 0.0
C766 C 0.5749 0.46558 0.7958 0.0
C767 C 0.57695 0.47095 0.73076 0.0
C768 C 0.55211 0.74703 0.71127 0.0
C769 C 0.54262 0.7593 0.73826 0.0
C770 C 0.55547 0.74741 0.64644 0.0
C771 C 0.54911 0.75974 0.60629 0.0
H772 H 0.55844 0.73837 0.74065 0.0
H773 H 0.56367 0.73845 0.62789 0.0
S774 S 0.52076 0.79214 0.65315 0.0
N775 N 0.52498 0.78236 0.71979 0.0
N776 N 0.53084 0.78266 0.59747 0.0
C777 C 0.53807 0.77069 0.63219 0.0
C778 C 0.53493 0.77056 0.69835 0.0
C779 C 0.24263 0.80503 0.6388 0.0
C780 C 0.22948 0.78584 0.60085 0.0
C781 C 0.2454 0.80274 0.70289 0.0
C782 C 0.23471 0.78119 0.73135 0.0
H783 H 0.25015 0.82203 0.61939 0.0
H784 H 0.25425 0.81807 0.73104 0.0
S785 S 0.20155 0.72549 0.65091 0.0
N786 N 0.20827 0.7445 0.59454 0.0
N787 N 0.21298 0.74021 0.71578 0.0
C788 C 0.22318 0.7618 0.693 0.0
C789 C 0.22063 0.76412 0.62748 0.0
C790 C 0.24417 0.477 0.54013 0.0
C791 C 0.24861 0.45983 0.52035 0.0
C792 C 0.24163 0.48016 0.604 0.0
C793 C 0.24387 0.46649 0.64988 0.0
H794 H 0.2403 0.48643 0.50601 0.0
H795 H 0.23619 0.49213 0.61702 0.0
S796 S 0.26037 0.42257 0.62127 0.0
N797 N 0.2584 0.43139 0.55058 0.0
N798 N 0.25474 0.4378 0.67087 0.0
C799 C 0.25117 0.45125 0.63059 0.0
C800 C 0.2532 0.44774 0.56558 0.0
C801 C 0.43656 0.8869 0.06882 0.0
C802 C 0.42437 0.89331 0.02813 0.0
C803 C 0.43637 0.88977 0.13385 0.0
C804 C 0.42427 0.89951 0.16035 0.0
H805 H 0.44729 0.88068 0.05005 0.0
H806 H 0.44673 0.88545 0.16313 0.0
S807 S 0.38697 0.91609 0.0755 0.0
N808 N 0.39779 0.9074 0.01985 0.0
N809 N 0.39761 0.91302 0.14209 0.0
C810 C 0.41074 0.9045 0.12076 0.0
C811 C 0.41067 0.90126 0.0546 0.0
C812 C 0.11352 0.54506 0.14633 0.0
C813 C 0.10816 0.52737 0.10295 0.0
C814 C 0.11133 0.54094 0.2111 0.0
C815 C 0.10338 0.51892 0.2347 0.0
H816 H 0.11842 0.56203 0.13012 0.0
H817 H 0.11468 0.55484 0.24257 0.0
S818 S 0.09053 0.46745 0.1424 0.0
N819 N 0.0973 0.48753 0.08928 0.0
N820 N 0.09288 0.47982 0.21091 0.0
C821 C 0.09953 0.50144 0.19241 0.0
C822 C 0.10207 0.50567 0.12653 0.0
C823 C 0.4627 0.55988 0.07212 0.0
C824 C 0.44087 0.54462 0.04885 0.0
C825 C 0.46676 0.56319 0.13674 0.0
C826 C 0.44912 0.55161 0.1805 0.0
H827 H 0.47703 0.56839 0.04046 0.0
H828 H 0.48406 0.57443 0.1525 0.0
S829 S 0.38827 0.51217 0.14324 0.0
N830 N 0.40092 0.51948 0.07416 0.0
N831 N 0.40855 0.52596 0.19577 0.0
C832 C 0.42691 0.5375 0.15777 0.0
C833 C 0.4228 0.53393 0.09188 0.0
C834 C 0.11096 0.5445 0.70746 0.0
C835 C 0.10105 0.55667 0.73232 0.0
C836 C 0.11373 0.5436 0.64261 0.0
C837 C 0.10706 0.55518 0.6005 0.0
H838 H 0.11558 0.53467 0.73795 0.0
H839 H 0.12021 0.53293 0.62516 0.0
S840 S 0.08328 0.59216 0.64297 0.0
N841 N 0.08675 0.58249 0.71075 0.0
N842 N 0.09219 0.58101 0.58883 0.0
C843 C 0.09874 0.56882 0.62518 0.0
C844 C 0.0956 0.56946 0.69115 0.0
C845 C 0.40139 0.49298 0.63808 0.0
C846 C 0.41136 0.51019 0.68392 0.0
C847 C 0.40482 0.4981 0.57397 0.0
C848 C 0.41862 0.52062 0.55305 0.0
H849 H 0.39127 0.47529 0.65176 0.0
H850 H 0.39746 0.48411 0.54078 0.0
S851 S 0.44669 0.57221 0.65373 0.0
N852 N 0.43404 0.55091 0.70378 0.0
N853 N 0.44074 0.56051 0.5832 0.0
C854 C 0.42778 0.53813 0.59826 0.0
C855 C 0.42408 0.53293 0.66367 0.0
C856 C 0.44045 0.88961 0.63494 0.0
C857 C 0.4625 0.90111 0.66052 0.0
C858 C 0.43709 0.88567 0.57025 0.0
C859 C 0.45564 0.89278 0.52901 0.0
H860 H 0.42573 0.88467 0.66454 0.0
H861 H 0.41989 0.87811 0.55204 0.0
S862 S 0.51658 0.9202 0.57425 0.0
N863 N 0.503 0.91708 0.64103 0.0
N864 N 0.49668 0.90949 0.51948 0.0
C865 C 0.47765 0.90253 0.55476 0.0
C866 C 0.48109 0.90683 0.62053 0.0
C867 C 0.19978 0.45254 0.12946 0.0
C868 C 0.22244 0.46692 0.14911 0.0
C869 C 0.19409 0.44924 0.0657 0.0
C870 C 0.21069 0.46077 0.01965 0.0
H871 H 0.1867 0.44208 0.16301 0.0
H872 H 0.17699 0.43639 0.05225 0.0
S873 S 0.27143 0.5035 0.04662 0.0
N874 N 0.26086 0.49507 0.11769 0.0
N875 N 0.24995 0.48938 -0.00236 0.0
C876 C 0.23278 0.47713 0.03871 0.0
C877 C 0.23873 0.48011 0.10364 0.0
C878 C 0.55356 0.80985 0.14785 0.0
C879 C 0.5476 0.79146 0.10677 0.0
C880 C 0.54886 0.80631 0.21203 0.0
C881 C 0.53842 0.78427 0.23751 0.0
H882 H 0.56265 0.8272 0.13071 0.0
H883 H 0.55513 0.82108 0.24233 0.0
S884 S 0.5165 0.73022 0.14872 0.0
N885 N 0.52821 0.7503 0.09479 0.0
N886 N 0.51983 0.74365 0.21603 0.0
C887 C 0.5308 0.76564 0.19629 0.0
C888 C 0.53531 0.76924 0.13071 0.0
C889 C 0.2215 0.76564 0.19426 0.0
C890 C 0.20207 0.75286 0.23164 0.0
C891 C 0.21957 0.76802 0.12969 0.0
C892 C 0.19812 0.75804 0.10069 0.0
H893 H 0.23821 0.77499 0.21572 0.0
H894 H 0.23486 0.77875 0.10305 0.0
S895 S 0.14235 0.71998 0.17561 0.0
N896 N 0.16099 0.72782 0.23351 0.0
N897 N 0.15733 0.73247 0.11211 0.0
C898 C 0.17872 0.74381 0.13652 0.0
C899 C 0.18072 0.74108 0.20206 0.0
C900 C 0.20573 0.22102 0.20497 0.0
C901 C 0.18241 0.21127 0.1912 0.0
C902 C 0.21534 0.20738 0.21793 0.0
C903 C 0.202 0.18348 0.2174 0.0
H904 H 0.21667 0.23934 0.2062 0.0
H905 H 0.23335 0.21568 0.22877 0.0
S906 S 0.14017 0.14946 0.18158 0.0
N907 N 0.14628 0.17619 0.17621 0.0
N908 N 0.16432 0.15061 0.20032 0.0
C909 C 0.17869 0.17349 0.20298 0.0
C910 C 0.1689 0.18737 0.18997 0.0
C911 C 0.77032 0.98297 0.22165 0.0
C912 C 0.7798 0.96919 0.23578 0.0
C913 C 0.78355 0.00677 0.22425 0.0
C914 C 0.80673 0.01761 0.24073 0.0
H915 H 0.7527 0.97537 0.20709 0.0
H916 H 0.77564 0.01673 0.21212 0.0
S917 S 0.83917 0.98923 0.28793 0.0
N918 N 0.81342 0.96815 0.27122 0.0
N919 N 0.83822 0.01274 0.27565 0.0
C920 C 0.81623 0.00401 0.25683 0.0
C921 C 0.80278 0.97984 0.25453 0.0
C922 C 0.97917 0.77383 0.22697 0.0
C923 C 0.96746 0.78606 0.22769 0.0
C924 C 0.00291 0.78504 0.22092 0.0
C925 C 0.01581 0.80888 0.2157 0.0
H926 H 0.96998 0.75546 0.23138 0.0
H927 H 0.01118 0.7749 0.22057 0.0
S928 S 0.99331 0.84882 0.21428 0.0
N929 N 0.97059 0.82339 0.22193 0.0
N930 N 0.01507 0.84437 0.21092 0.0
C931 C 0.0043 0.82131 0.21611 0.0
C932 C 0.98016 0.80992 0.22196 0.0
C933 C 0.81539 0.80705 0.7266 0.0
C934 C 0.80427 0.78323 0.73225 0.0
C935 C 0.80314 0.81848 0.72299 0.0
C936 C 0.77923 0.80659 0.72458 0.0
H937 H 0.8338 0.81713 0.72548 0.0
H938 H 0.81263 0.83685 0.7187 0.0
S939 S 0.74179 0.74398 0.73801 0.0
N940 N 0.76788 0.74798 0.73879 0.0
N941 N 0.74472 0.76957 0.73154 0.0
C942 C 0.76777 0.78271 0.72967 0.0
C943 C 0.78032 0.77101 0.73357 0.0
C944 C 0.18468 0.00632 0.72872 0.0
C945 C 0.20854 0.01954 0.73193 0.0
C946 C 0.1737 0.98269 0.72317 0.0
C947 C 0.18607 0.97116 0.72016 0.0
H948 H 0.17421 0.01422 0.73098 0.0
H949 H 0.15528 0.97344 0.72077 0.0
S950 S 0.24899 -0.00223 0.72627 0.0
N951 N 0.24435 0.0194 0.73174 0.0
N952 N 0.22361 0.97474 0.72066 0.0
C953 C 0.20999 0.9841 0.72311 0.0
C954 C 0.22124 0.00832 0.72914 0.0
C955 C 0.98563 0.18055 0.70751 0.0
C956 C 0.97156 0.19007 0.71574 0.0
C957 C 0.00891 0.19425 0.69651 0.0
C958 C 0.01915 0.21807 0.69294 0.0
H959 H 0.97867 0.1623 0.70972 0.0
H960 H 0.0189 0.18597 0.69028 0.0
S961 S 0.98995 0.25163 0.71186 0.0
N962 N 0.96955 0.22489 0.72021 0.0
N963 N 0.0135 0.25073 0.69909 0.0
C964 C 0.00535 0.22792 0.70121 0.0
C965 C 0.98153 0.21391 0.71272 0.0
C966 C 0.83377 0.51059 0.59559 0.0
C967 C 0.84455 0.53445 0.59873 0.0
C968 C 0.84632 0.49952 0.58992 0.0
C969 C 0.87026 0.51177 0.58764 0.0
H970 H 0.81538 0.50024 0.59687 0.0
H971 H 0.83705 0.48109 0.58807 0.0
S972 S 0.90689 0.57463 0.59405 0.0
N973 N 0.88066 0.57014 0.59875 0.0
N974 N 0.90438 0.54918 0.58884 0.0
C975 C 0.88137 0.53568 0.59076 0.0
C976 C 0.8685 0.54704 0.59617 0.0
C977 C 0.44989 0.33453 0.60299 0.0
C978 C 0.45787 0.32096 0.6305 0.0
C979 C 0.4647 0.35779 0.59184 0.0
C980 C 0.48791 0.36807 0.60754 0.0
H981 H 0.43254 0.32688 0.58594 0.0
H982 H 0.45829 0.36732 0.56677 0.0
S983 S 0.51602 0.34127 0.69328 0.0
N984 N 0.48955 0.32049 0.68297 0.0
N985 N 0.51732 0.36402 0.66109 0.0
C986 C 0.49554 0.35523 0.64046 0.0
C987 C 0.4805 0.3317 0.65228 0.0
C988 C 0.64835 0.14115 0.55787 0.0
C989 C 0.63512 0.11729 0.5608 0.0
C990 C 0.67199 0.15208 0.55397 0.0
C991 C 0.68347 0.13965 0.55247 0.0
H992 H 0.64046 0.15163 0.55908 0.0
H993 H 0.68128 0.1705 0.55183 0.0
S994 S 0.65677 0.07674 0.55816 0.0
N995 N 0.63514 0.08142 0.56166 0.0
N996 N 0.67987 0.1021 0.5538 0.0
C997 C 0.67052 0.11574 0.55507 0.0
C998 C 0.64628 0.10454 0.55933 0.0
C999 C 0.44637 0.1323 0.09141 0.0
C1000 C 0.4581 0.15593 0.10233 0.0
C1001 C 0.45812 0.12037 0.0839 0.0
C1002 C 0.48203 0.13166 0.08661 0.0
H1003 H 0.42798 0.12293 0.08786 0.0
H1004 H 0.44837 0.10218 0.07561 0.0
S1005 S 0.52077 0.19332 0.11675 0.0
N1006 N 0.495 0.19009 0.1175 0.0
N1007 N 0.51704 0.16775 0.10296 0.0
C1008 C 0.49397 0.15526 0.09819 0.0
C1009 C 0.48201 0.16736 0.10627 0.0
C1010 C 0.8454 0.33743 0.06233 0.0
C1011 C 0.86927 0.35005 0.06691 0.0
C1012 C 0.83391 0.3138 0.0565 0.0
C1013 C 0.84577 0.30176 0.05465 0.0
H1014 H 0.83536 0.34579 0.06377 0.0
H1015 H 0.8155 0.30496 0.05314 0.0
S1016 S 0.90846 0.32674 0.0641 0.0
N1017 N 0.90452 0.34882 0.06882 0.0
N1018 N 0.8828 0.30417 0.05738 0.0
C1019 C 0.86968 0.31411 0.05872 0.0
C1020 C 0.88145 0.3383 0.06494 0.0
C1021 C 0.65992 0.50728 0.13379 0.0
C1022 C 0.6704 0.53073 0.12106 0.0
C1023 C 0.63664 0.49289 0.12419 0.0
C1024 C 0.62275 0.50135 0.10246 0.0
H1025 H 0.66994 0.49964 0.14787 0.0
H1026 H 0.62967 0.47479 0.13116 0.0
S1027 S 0.64094 0.56184 0.07144 0.0
N1028 N 0.66459 0.56219 0.09226 0.0
N1029 N 0.62048 0.53494 0.07524 0.0
C1030 C 0.63249 0.52499 0.09486 0.0
C1031 C 0.65642 0.53974 0.10398 0.0
C1032 C 0.50169 0.85543 0.88163 0.0
C1033 C 0.51415 0.87934 0.88318 0.0
C1034 C 0.51255 0.84262 0.88385 0.0
C1035 C 0.53637 0.85314 0.88816 0.0
H1036 H 0.48328 0.84636 0.87817 0.0
H1037 H 0.50203 0.82425 0.88269 0.0
S1038 S 0.57701 0.91535 0.89385 0.0
N1039 N 0.55171 0.9132 0.88904 0.0
N1040 N 0.57226 0.88898 0.89386 0.0
C1041 C 0.54917 0.87708 0.88981 0.0
C1042 C 0.53803 0.89021 0.88719 0.0
C1043 C 0.11346 0.64571 0.92163 0.0
C1044 C 0.1254 0.63429 0.93635 0.0
C1045 C 0.12498 0.66924 0.91094 0.0
C1046 C 0.14886 0.68217 0.91416 0.0
H1047 H 0.09508 0.63638 0.91719 0.0
H1048 H 0.1151 0.6773 0.89955 0.0
S1049 S 0.18802 0.66068 0.95524 0.0
N1050 N 0.1624 0.63793 0.95671 0.0
N1051 N 0.18402 0.68199 0.93622 0.0
C1052 C 0.16098 0.67102 0.93005 0.0
C1053 C 0.14925 0.64714 0.94135 0.0
C1054 C 0.30452 0.46575 0.95408 0.0
C1055 C 0.28841 0.44501 0.92685 0.0
C1056 C 0.32752 0.47214 0.95649 0.0
C1057 C 0.33532 0.45813 0.93102 0.0
H1058 H 0.29955 0.47778 0.97032 0.0
H1059 H 0.33942 0.48888 0.97474 0.0
S1060 S 0.29928 0.4003 0.86443 0.0
N1061 N 0.28115 0.40901 0.88199 0.0
N1062 N 0.32464 0.42114 0.88581 0.0
C1063 C 0.31908 0.43633 0.9094 0.0
C1064 C 0.29551 0.42973 0.90744 0.0
C1065 C 0.15036 0.48216 0.47673 0.0
C1066 C 0.12706 0.46832 0.46281 0.0
C1067 C 0.16584 0.47475 0.46481 0.0
C1068 C 0.15864 0.4531 0.43932 0.0
H1069 H 0.15702 0.49944 0.49342 0.0
H1070 H 0.18377 0.48652 0.47303 0.0
S1071 S 0.09907 0.40876 0.4046 0.0
N1072 N 0.09713 0.4308 0.42948 0.0
N1073 N 0.12639 0.41674 0.40795 0.0
C1074 C 0.13517 0.43823 0.43079 0.0
C1075 C 0.11932 0.44587 0.44239 0.0
C1076 C 0.52579 0.6453 0.39502 0.0
C1077 C 0.50198 0.63216 0.40138 0.0
C1078 C 0.53689 0.66913 0.39365 0.0
C1079 C 0.52461 0.68072 0.39825 0.0
H1080 H 0.53596 0.63716 0.39035 0.0
H1081 H 0.55524 0.6785 0.38857 0.0
S1082 S 0.46202 0.6543 0.41815 0.0
N1083 N 0.46653 0.63259 0.41426 0.0
N1084 N 0.48734 0.67725 0.41133 0.0
C1085 C 0.50081 0.6678 0.40537 0.0
C1086 C 0.48952 0.64356 0.40711 0.0
C1087 C 0.33796 0.84934 0.38268 0.0
C1088 C 0.34895 0.87324 0.38249 0.0
C1089 C 0.3143 0.83612 0.38436 0.0
C1090 C 0.30058 0.84621 0.38628 0.0
H1091 H 0.34766 0.84062 0.381 0.0
H1092 H 0.30678 0.81778 0.38456 0.0
S1093 S 0.32086 0.90818 0.38702 0.0
N1094 N 0.34435 0.9066 0.38445 0.0
N1095 N 0.29963 0.88161 0.3881 0.0
C1096 C 0.31126 0.87012 0.38637 0.0
C1097 C 0.3355 0.88366 0.38438 0.0
C1098 C 0.314 0.17587 0.17908 0.0
C1099 C 0.30501 0.15506 0.21146 0.0
C1100 C 0.33498 0.1853 0.14831 0.0
C1101 C 0.34801 0.1744 0.1485 0.0
H1102 H 0.30474 0.18502 0.1771 0.0
H1103 H 0.34111 0.20148 0.12474 0.0
S1104 S 0.33208 0.11926 0.22537 0.0
N1105 N 0.31074 0.1236 0.24111 0.0
N1106 N 0.35019 0.14136 0.1833 0.0
C1107 C 0.33921 0.15348 0.18036 0.0
C1108 C 0.31778 0.14385 0.21186 0.0
C1109 C 0.80984 0.1489 0.0989 0.0
C1110 C 0.8224 0.17269 0.09136 0.0
C1111 C 0.81764 0.13754 0.13757 0.0
C1112 C 0.83839 0.14945 0.17044 0.0
H1113 H 0.79352 0.13888 0.07579 0.0
H1114 H 0.80723 0.11923 0.14162 0.0
S1115 S 0.87841 0.2119 0.16465 0.0
N1116 N 0.85712 0.20776 0.1185 0.0
N1117 N 0.87178 0.18648 0.19117 0.0
C1118 C 0.85134 0.17325 0.16261 0.0
C1119 C 0.8434 0.18483 0.12305 0.0
C1120 C 0.79649 0.64743 0.1816 0.0
C1121 C 0.8062 0.63801 0.14179 0.0
C1122 C 0.81 0.66819 0.21259 0.0
C1123 C 0.83383 0.6805 0.20524 0.0
H1124 H 0.77829 0.63858 0.18968 0.0
H1125 H 0.80157 0.67464 0.24244 0.0
S1126 S 0.86779 0.66368 0.1049 0.0
N1127 N 0.84126 0.64296 0.09575 0.0
N1128 N 0.86655 0.68182 0.15407 0.0
C1129 C 0.84379 0.67136 0.16532 0.0
C1130 C 0.83002 0.65023 0.13355 0.0
C1131 C 0.20904 0.36167 0.24578 0.0
C1132 C 0.19681 0.37252 0.26357 0.0
C1133 C 0.1981 0.34015 0.21687 0.0
C1134 C 0.17462 0.32888 0.20362 0.0
H1135 H 0.22718 0.3698 0.25445 0.0
H1136 H 0.20815 0.33237 0.20445 0.0
S1137 S 0.1347 0.34971 0.24145 0.0
N1138 N 0.15971 0.37005 0.2663 0.0
N1139 N 0.13939 0.32997 0.21185 0.0
C1140 C 0.16221 0.33955 0.22114 0.0
C1141 C 0.17323 0.36124 0.25117 0.0
C1142 C 0.64325 0.83592 0.33774 0.0
C1143 C 0.62989 0.81204 0.33341 0.0
C1144 C 0.66297 0.84818 0.3016 0.0
C1145 C 0.67025 0.83715 0.25942 0.0
H1146 H 0.6385 0.84535 0.36936 0.0
H1147 H 0.67276 0.86647 0.30778 0.0
S1148 S 0.64085 0.7749 0.22802 0.0
N1149 N 0.62506 0.77784 0.28189 0.0
N1150 N 0.66203 0.80084 0.21402 0.0
C1151 C 0.65688 0.81328 0.25389 0.0
C1152 C 0.6368 0.80076 0.2909 0.0
C1153 C 0.17915 0.83006 0.30255 0.0
C1154 C 0.16736 0.80984 0.33752 0.0
C1155 C 0.1676 0.83787 0.26483 0.0
C1156 C 0.14369 0.82592 0.26046 0.0
H1157 H 0.19757 0.83996 0.30361 0.0
H1158 H 0.17765 0.85367 0.23954 0.0
S1159 S 0.10457 0.77186 0.34222 0.0
N1160 N 0.13024 0.77785 0.36503 0.0
N1161 N 0.10851 0.79262 0.2943 0.0
C1162 C 0.13159 0.80561 0.29505 0.0
C1163 C 0.14341 0.7976 0.33355 0.0
C1164 C 0.66223 0.84383 0.77321 0.0
C1165 C 0.67481 0.83248 0.77504 0.0
C1166 C 0.64275 0.83667 0.81001 0.0
C1167 C 0.6349 0.81778 0.85031 0.0
H1168 H 0.66746 0.85851 0.7432 0.0
H1169 H 0.63359 0.84587 0.80585 0.0
S1170 S 0.66205 0.78248 0.8745 0.0
N1171 N 0.67825 0.80159 0.82193 0.0
N1172 N 0.64163 0.78813 0.89105 0.0
C1173 C 0.64742 0.80637 0.85323 0.0
C1174 C 0.66731 0.81365 0.8156 0.0
C1175 C 0.1846 0.83653 0.82364 0.0
C1176 C 0.17309 0.81256 0.82258 0.0
C1177 C 0.17732 0.84882 0.78696 0.0
C1178 C 0.15816 0.83771 0.74745 0.0
H1179 H 0.19946 0.84604 0.85313 0.0
H1180 H 0.18664 0.8672 0.7906 0.0
S1181 S 0.12238 0.77512 0.72531 0.0
N1182 N 0.14179 0.77814 0.77714 0.0
N1183 N 0.1281 0.80117 0.70822 0.0
C1184 C 0.14662 0.81372 0.74517 0.0
C1185 C 0.15403 0.80118 0.78274 0.0
C1186 C 0.14508 0.3634 0.74589 0.0
C1187 C 0.16896 0.37625 0.74748 0.0
C1188 C 0.13383 0.34202 0.71625 0.0
C1189 C 0.1461 0.33295 0.68621 0.0
H1190 H 0.13504 0.36956 0.76938 0.0
H1191 H 0.11542 0.33234 0.71817 0.0
S1192 S 0.20908 0.36172 0.67031 0.0
N1193 N 0.20452 0.37955 0.71198 0.0
N1194 N 0.18364 0.33977 0.65561 0.0
C1195 C 0.17004 0.34636 0.68478 0.0
C1196 C 0.1814 0.36787 0.71563 0.0
C1197 C 0.81468 0.6715 0.67299 0.0
C1198 C 0.83583 0.68142 0.70409 0.0
C1199 C 0.80595 0.65062 0.64174 0.0
C1200 C 0.81795 0.63867 0.64021 0.0
H1201 H 0.80468 0.6799 0.67253 0.0
H1202 H 0.78943 0.64369 0.61939 0.0
S1203 S 0.87453 0.6575 0.71252 0.0
N1204 N 0.86888 0.67784 0.73017 0.0
N1205 N 0.85247 0.63862 0.67146 0.0
C1206 C 0.83927 0.64847 0.67054 0.0
C1207 C 0.84817 0.66978 0.7025 0.0
C1208 C 0.31896 0.17916 0.71525 0.0
C1209 C 0.30871 0.15525 0.71408 0.0
C1210 C 0.33968 0.19316 0.68477 0.0
C1211 C 0.3511 0.1839 0.65166 0.0
H1212 H 0.31083 0.18726 0.73937 0.0
H1213 H 0.3468 0.21143 0.68751 0.0
S1214 S 0.33178 0.12224 0.63501 0.0
N1215 N 0.31184 0.12292 0.6776 0.0
N1216 N 0.3506 0.14908 0.62023 0.0
C1217 C 0.34109 0.15997 0.65029 0.0
C1218 C 0.32001 0.14572 0.68154 0.0
C1219 C 0.84937 0.17361 0.66146 0.0
C1220 C 0.83825 0.15257 0.69294 0.0
C1221 C 0.8375 0.18041 0.62143 0.0
C1222 C 0.81394 0.16651 0.61101 0.0
H1223 H 0.86752 0.18491 0.66707 0.0
H1224 H 0.84695 0.19688 0.59894 0.0
S1225 S 0.77667 0.10956 0.68131 0.0
N1226 N 0.80216 0.11771 0.71049 0.0
N1227 N 0.77989 0.13053 0.63535 0.0
C1228 C 0.80253 0.14541 0.64226 0.0
C1229 C 0.81464 0.13848 0.68324 0.0
C1230 C 0.00749 0.47563 0.52044 0.0
C1231 C 0.01643 0.49335 0.47605 0.0
C1232 C 0.98674 0.46898 0.5507 0.0
C1233 C 0.97403 0.47978 0.53805 0.0
H1234 H 0.01677 0.46705 0.533 0.0
H1235 H 0.98072 0.45529 0.5846 0.0
S1236 S 0.98909 0.52618 0.42259 0.0
N1237 N 0.0103 0.5209 0.41875 0.0
N1238 N 0.97147 0.50848 0.47573 0.0
C1239 C 0.98256 0.49729 0.49298 0.0
C1240 C 0.00365 0.50401 0.46193 0.0
C1241 C 0.51579 0.51957 0.42213 0.0
C1242 C 0.49357 0.50643 0.39778 0.0
C1243 C 0.52852 0.50942 0.44078 0.0
C1244 C 0.51937 0.48574 0.43658 0.0
H1245 H 0.52335 0.5378 0.42776 0.0
H1246 H 0.54537 0.52011 0.46028 0.0
S1247 S 0.46287 0.44382 0.37133 0.0
N1248 N 0.46366 0.46847 0.36687 0.0
N1249 N 0.48747 0.44959 0.4024 0.0
C1250 C 0.49751 0.4725 0.41062 0.0
C1251 C 0.48465 0.48279 0.39106 0.0
C1252 C 0.51327 0.0115 0.47794 0.0
C1253 C 0.50167 0.02019 0.51279 0.0
C1254 C 0.50158 0.99251 0.43884 0.0
C1255 C 0.47772 0.98122 0.4329 0.0
H1256 H 0.53164 0.01954 0.4802 0.0
H1257 H 0.51144 0.9865 0.41376 0.0
S1258 S 0.43909 -0.00293 0.51371 0.0
N1259 N 0.46478 0.016 0.53854 0.0
N1260 N 0.44282 0.98025 0.46515 0.0
C1261 C 0.46583 0.98971 0.46736 0.0
C1262 C 0.47777 0.00912 0.50731 0.0
C1263 C 0.51477 0.0116 0.00378 0.0
C1264 C 0.50334 0.0241 0.00612 0.0
C1265 C 0.50706 0.99233 0.96552 0.0
C1266 C 0.48749 0.98461 0.92781 0.0
H1267 H 0.53002 0.01678 0.03143 0.0
H1268 H 0.51644 0.98329 0.96624 0.0
S1269 S 0.4513 0.01131 0.916 0.0
N1270 N 0.47138 0.02739 0.96676 0.0
N1271 N 0.45686 0.99119 0.8949 0.0
C1272 C 0.47588 -0.00302 0.92941 0.0
C1273 C 0.48374 0.01664 0.96857 0.0
C1274 C 0.98196 0.47023 0.01549 0.0
C1275 C 0.97333 0.4819 0.05024 0.0
C1276 C 0.003 0.48188 -0.01494 0.0
C1277 C 0.01643 0.50576 -0.01198 0.0
H1278 H 0.97234 0.45186 0.01114 0.0
H1279 H 0.00879 0.47195 0.95935 0.0
S1280 S 0.00174 0.54456 0.07297 0.0
N1281 N 0.97997 0.51886 0.08591 0.0
N1282 N 0.01952 0.54077 0.02873 0.0
C1283 C 0.00805 0.51773 0.02262 0.0
C1284 C 0.98656 0.50581 0.05375 0.0
C1285 C 0.47218 0.44649 0.94838 0.0
C1286 C 0.49604 0.46002 0.95183 0.0
C1287 C 0.45871 0.45563 0.92808 0.0
C1288 C 0.46862 0.47857 0.90948 0.0
H1289 H 0.46379 0.42876 0.96224 0.0
H1290 H 0.4404 0.44462 0.92702 0.0
S1291 S 0.5306 0.52091 0.90705 0.0
N1292 N 0.5291 0.49732 0.93314 0.0
N1293 N 0.50402 0.51447 0.89477 0.0
C1294 C 0.49256 0.49216 0.91174 0.0
C1295 C 0.50619 0.48291 0.933 0.0
loop_
_geom_bond_atom_site_label_1
_geom_bond_atom_site_label_2
_geom_bond_distance
_geom_bond_site_symmetry_2
_ccdc_geom_bond_type
C0 O1 1.306 . S
C0 O3 1.160 . S
O1 C0 1.306 . S
O1 Cd2 2.228 . S
Cd2 O1 2.228 . S
Cd2 O6 2.273 . S
Cd2 O10 2.277 . S
O3 C0 1.160 . S
O3 Cd4 2.203 . S
Cd4 O3 2.203 . S
Cd4 O6 2.411 . S
Cd4 O7 2.333 . S
Cd4 O8 2.352 . S
Cd4 O12 2.277 . S
Cd4 O13 2.356 . S
C5 O10 1.209 . S
C5 O12 1.226 . S
O6 Cd2 2.273 . S
O6 Cd4 2.411 . S
O6 C9 1.320 . S
O7 Cd4 2.333 . S
O7 C9 1.214 . S
O8 Cd4 2.352 . S
O8 C11 1.258 . S
C9 O6 1.320 . S
C9 O7 1.214 . S
O10 Cd2 2.277 . S
O10 C5 1.209 . S
C11 O8 1.258 . S
C11 O13 1.282 . S
O12 Cd4 2.277 . S
O12 C5 1.226 . S
O13 Cd4 2.356 . S
O13 C11 1.282 . S
C14 O15 1.306 . S
C14 O17 1.160 . S
O15 C14 1.306 . S
O15 Cd16 2.228 . S
Cd16 O15 2.228 . S
Cd16 O20 2.273 . S
Cd16 O24 2.277 . S
O17 C14 1.160 . S
O17 Cd18 2.203 . S
Cd18 O17 2.203 . S
Cd18 O20 2.411 . S
Cd18 O21 2.333 . S
Cd18 O22 2.352 . S
Cd18 O26 2.277 . S
Cd18 O27 2.356 . S
C19 O24 1.209 . S
C19 O26 1.226 . S
O20 Cd16 2.273 . S
O20 Cd18 2.411 . S
O20 C23 1.320 . S
O21 Cd18 2.333 . S
O21 C23 1.214 . S
O22 Cd18 2.352 . S
O22 C25 1.258 . S
C23 O20 1.320 . S
C23 O21 1.214 . S
O24 Cd16 2.277 . S
O24 C19 1.209 . S
C25 O22 1.258 . S
C25 O27 1.282 . S
O26 Cd18 2.277 . S
O26 C19 1.226 . S
O27 Cd18 2.356 . S
O27 C25 1.282 . S
C28 O29 1.306 . S
C28 O31 1.160 . S
O29 C28 1.306 . S
O29 Cd30 2.228 . S
Cd30 O29 2.228 . S
Cd30 O34 2.273 . S
Cd30 O38 2.277 . S
O31 C28 1.160 . S
O31 Cd32 2.203 . S
Cd32 O31 2.203 . S
Cd32 O34 2.411 . S
Cd32 O35 2.333 . S
Cd32 O36 2.352 . S
Cd32 O40 2.277 . S
Cd32 O41 2.356 . S
C33 O38 1.209 . S
C33 O40 1.226 . S
O34 Cd30 2.273 . S
O34 Cd32 2.411 . S
O34 C37 1.320 . S
O35 Cd32 2.333 . S
O35 C37 1.214 . S
O36 Cd32 2.352 . S
O36 C39 1.258 . S
C37 O34 1.320 . S
C37 O35 1.214 . S
O38 Cd30 2.277 . S
O38 C33 1.209 . S
C39 O36 1.258 . S
C39 O41 1.282 . S
O40 Cd32 2.277 . S
O40 C33 1.226 . S
O41 Cd32 2.356 . S
O41 C39 1.282 . S
C42 O43 1.306 . S
C42 O45 1.160 . S
O43 C42 1.306 . S
O43 Cd44 2.228 . S
Cd44 O43 2.228 . S
Cd44 O48 2.273 . S
Cd44 O52 2.277 . S
O45 C42 1.160 . S
O45 Cd46 2.203 . S
Cd46 O45 2.203 . S
Cd46 O48 2.411 . S
Cd46 O49 2.333 . S
Cd46 O50 2.352 . S
Cd46 O54 2.277 . S
Cd46 O55 2.356 . S
C47 O52 1.209 . S
C47 O54 1.226 . S
O48 Cd44 2.273 . S
O48 Cd46 2.411 . S
O48 C51 1.320 . S
O49 Cd46 2.333 . S
O49 C51 1.214 . S
O50 Cd46 2.352 . S
O50 C53 1.258 . S
C51 O48 1.320 . S
C51 O49 1.214 . S
O52 Cd44 2.277 . S
O52 C47 1.209 . S
C53 O50 1.258 . S
C53 O55 1.282 . S
O54 Cd46 2.277 . S
O54 C47 1.226 . S
O55 Cd46 2.356 . S
O55 C53 1.282 . S
C56 O57 1.306 . S
C56 O59 1.160 . S
O57 C56 1.306 . S
O57 Cd58 2.228 . S
Cd58 O57 2.228 . S
Cd58 O62 2.273 . S
Cd58 O66 2.277 . S
O59 C56 1.160 . S
O59 Cd60 2.203 . S
Cd60 O59 2.203 . S
Cd60 O62 2.411 . S
Cd60 O63 2.333 . S
Cd60 O64 2.352 . S
Cd60 O68 2.277 . S
Cd60 O69 2.356 . S
C61 O66 1.209 . S
C61 O68 1.226 . S
O62 Cd58 2.273 . S
O62 Cd60 2.411 . S
O62 C65 1.320 . S
O63 Cd60 2.333 . S
O63 C65 1.214 . S
O64 Cd60 2.352 . S
O64 C67 1.258 . S
C65 O62 1.320 . S
C65 O63 1.214 . S
O66 Cd58 2.277 . S
O66 C61 1.209 . S
C67 O64 1.258 . S
C67 O69 1.282 . S
O68 Cd60 2.277 . S
O68 C61 1.226 . S
O69 Cd60 2.356 . S
O69 C67 1.282 . S
C70 O71 1.306 . S
C70 O73 1.160 . S
O71 C70 1.306 . S
O71 Cd72 2.228 . S
Cd72 O71 2.228 . S
Cd72 O76 2.273 . S
Cd72 O80 2.277 . S
O73 C70 1.160 . S
O73 Cd74 2.203 . S
Cd74 O73 2.203 . S
Cd74 O76 2.411 . S
Cd74 O77 2.333 . S
Cd74 O78 2.352 . S
Cd74 O82 2.277 . S
Cd74 O83 2.356 . S
C75 O80 1.209 . S
C75 O82 1.226 . S
O76 Cd72 2.273 . S
O76 Cd74 2.411 . S
O76 C79 1.320 . S
O77 Cd74 2.333 . S
O77 C79 1.214 . S
O78 Cd74 2.352 . S
O78 C81 1.258 . S
C79 O76 1.320 . S
C79 O77 1.214 . S
O80 Cd72 2.277 . S
O80 C75 1.209 . S
C81 O78 1.258 . S
C81 O83 1.282 . S
O82 Cd74 2.277 . S
O82 C75 1.226 . S
O83 Cd74 2.356 . S
O83 C81 1.282 . S
C84 O85 1.306 . S
C84 O87 1.160 . S
O85 C84 1.306 . S
O85 Cd86 2.228 . S
Cd86 O85 2.228 . S
Cd86 O90 2.273 . S
Cd86 O94 2.277 . S
O87 C84 1.160 . S
O87 Cd88 2.203 . S
Cd88 O87 2.203 . S
Cd88 O90 2.411 . S
Cd88 O91 2.333 . S
Cd88 O92 2.352 . S
Cd88 O96 2.277 . S
Cd88 O97 2.356 . S
C89 O94 1.209 . S
C89 O96 1.226 . S
O90 Cd86 2.273 . S
O90 Cd88 2.411 . S
O90 C93 1.320 . S
O91 Cd88 2.333 . S
O91 C93 1.214 . S
O92 Cd88 2.352 . S
O92 C95 1.258 . S
C93 O90 1.320 . S
C93 O91 1.214 . S
O94 Cd86 2.277 . S
O94 C89 1.209 . S
C95 O92 1.258 . S
C95 O97 1.282 . S
O96 Cd88 2.277 . S
O96 C89 1.226 . S
O97 Cd88 2.356 . S
O97 C95 1.282 . S
C98 O99 1.306 . S
C98 O101 1.160 . S
O99 C98 1.306 . S
O99 Cd100 2.228 . S
Cd100 O99 2.228 . S
Cd100 O104 2.273 . S
Cd100 O108 2.277 . S
O101 C98 1.160 . S
O101 Cd102 2.203 . S
Cd102 O101 2.203 . S
Cd102 O104 2.411 . S
Cd102 O105 2.333 . S
Cd102 O106 2.352 . S
Cd102 O110 2.277 . S
Cd102 O111 2.356 . S
C103 O108 1.209 . S
C103 O110 1.226 . S
O104 Cd100 2.273 . S
O104 Cd102 2.411 . S
O104 C107 1.320 . S
O105 Cd102 2.333 . S
O105 C107 1.214 . S
O106 Cd102 2.352 . S
O106 C109 1.258 . S
C107 O104 1.320 . S
C107 O105 1.214 . S
O108 Cd100 2.277 . S
O108 C103 1.209 . S
C109 O106 1.258 . S
C109 O111 1.282 . S
O110 Cd102 2.277 . S
O110 C103 1.226 . S
O111 Cd102 2.356 . S
O111 C109 1.282 . S
C112 O113 1.306 . S
C112 O115 1.160 . S
O113 C112 1.306 . S
O113 Cd114 2.228 . S
Cd114 O113 2.228 . S
Cd114 O118 2.273 . S
Cd114 O122 2.277 . S
O115 C112 1.160 . S
O115 Cd116 2.203 . S
Cd116 O115 2.203 . S
Cd116 O118 2.411 . S
Cd116 O119 2.333 . S
Cd116 O120 2.352 . S
Cd116 O124 2.277 . S
Cd116 O125 2.356 . S
C117 O122 1.209 . S
C117 O124 1.226 . S
O118 Cd114 2.273 . S
O118 Cd116 2.411 . S
O118 C121 1.320 . S
O119 Cd116 2.333 . S
O119 C121 1.214 . S
O120 Cd116 2.352 . S
O120 C123 1.258 . S
C121 O118 1.320 . S
C121 O119 1.214 . S
O122 Cd114 2.277 . S
O122 C117 1.209 . S
C123 O120 1.258 . S
C123 O125 1.282 . S
O124 Cd116 2.277 . S
O124 C117 1.226 . S
O125 Cd116 2.356 . S
O125 C123 1.282 . S
C126 O127 1.306 . S
C126 O129 1.160 . S
O127 C126 1.306 . S
O127 Cd128 2.228 . S
Cd128 O127 2.228 . S
Cd128 O132 2.273 . S
Cd128 O136 2.277 . S
O129 C126 1.160 . S
O129 Cd130 2.203 . S
Cd130 O129 2.203 . S
Cd130 O132 2.411 . S
Cd130 O133 2.333 . S
Cd130 O134 2.352 . S
Cd130 O138 2.277 . S
Cd130 O139 2.356 . S
C131 O136 1.209 . S
C131 O138 1.226 . S
O132 Cd128 2.273 . S
O132 Cd130 2.411 . S
O132 C135 1.320 . S
O133 Cd130 2.333 . S
O133 C135 1.214 . S
O134 Cd130 2.352 . S
O134 C137 1.258 . S
C135 O132 1.320 . S
C135 O133 1.214 . S
O136 Cd128 2.277 . S
O136 C131 1.209 . S
C137 O134 1.258 . S
C137 O139 1.282 . S
O138 Cd130 2.277 . S
O138 C131 1.226 . S
O139 Cd130 2.356 . S
O139 C137 1.282 . S
C140 O141 1.306 . S
C140 O143 1.160 . S
O141 C140 1.306 . S
O141 Cd142 2.228 . S
Cd142 O141 2.228 . S
Cd142 O146 2.273 . S
Cd142 O150 2.277 . S
O143 C140 1.160 . S
O143 Cd144 2.203 . S
Cd144 O143 2.203 . S
Cd144 O146 2.411 . S
Cd144 O147 2.333 . S
Cd144 O148 2.352 . S
Cd144 O152 2.277 . S
Cd144 O153 2.356 . S
C145 O150 1.209 . S
C145 O152 1.226 . S
O146 Cd142 2.273 . S
O146 Cd144 2.411 . S
O146 C149 1.320 . S
O147 Cd144 2.333 . S
O147 C149 1.214 . S
O148 Cd144 2.352 . S
O148 C151 1.258 . S
C149 O146 1.320 . S
C149 O147 1.214 . S
O150 Cd142 2.277 . S
O150 C145 1.209 . S
C151 O148 1.258 . S
C151 O153 1.282 . S
O152 Cd144 2.277 . S
O152 C145 1.226 . S
O153 Cd144 2.356 . S
O153 C151 1.282 . S
C154 O155 1.306 . S
C154 O157 1.160 . S
O155 C154 1.306 . S
O155 Cd156 2.228 . S
Cd156 O155 2.228 . S
Cd156 O160 2.273 . S
Cd156 O164 2.277 . S
O157 C154 1.160 . S
O157 Cd158 2.203 . S
Cd158 O157 2.203 . S
Cd158 O160 2.411 . S
Cd158 O161 2.333 . S
Cd158 O162 2.352 . S
Cd158 O166 2.277 . S
Cd158 O167 2.356 . S
C159 O164 1.209 . S
C159 O166 1.226 . S
O160 Cd156 2.273 . S
O160 Cd158 2.411 . S
O160 C163 1.320 . S
O161 Cd158 2.333 . S
O161 C163 1.214 . S
O162 Cd158 2.352 . S
O162 C165 1.258 . S
C163 O160 1.320 . S
C163 O161 1.214 . S
O164 Cd156 2.277 . S
O164 C159 1.209 . S
C165 O162 1.258 . S
C165 O167 1.282 . S
O166 Cd158 2.277 . S
O166 C159 1.226 . S
O167 Cd158 2.356 . S
O167 C165 1.282 . S
C168 O169 1.306 . S
C168 O171 1.160 . S
O169 C168 1.306 . S
O169 Cd170 2.228 . S
Cd170 O169 2.228 . S
Cd170 O174 2.273 . S
Cd170 O178 2.277 . S
O171 C168 1.160 . S
O171 Cd172 2.203 . S
Cd172 O171 2.203 . S
Cd172 O174 2.411 . S
Cd172 O175 2.333 . S
Cd172 O176 2.352 . S
Cd172 O180 2.277 . S
Cd172 O181 2.356 . S
C173 O178 1.209 . S
C173 O180 1.226 . S
O174 Cd170 2.273 . S
O174 Cd172 2.411 . S
O174 C177 1.320 . S
O175 Cd172 2.333 . S
O175 C177 1.214 . S
O176 Cd172 2.352 . S
O176 C179 1.258 . S
C177 O174 1.320 . S
C177 O175 1.214 . S
O178 Cd170 2.277 . S
O178 C173 1.209 . S
C179 O176 1.258 . S
C179 O181 1.282 . S
O180 Cd172 2.277 . S
O180 C173 1.226 . S
O181 Cd172 2.356 . S
O181 C179 1.282 . S
C182 O183 1.306 . S
C182 O185 1.160 . S
O183 C182 1.306 . S
O183 Cd184 2.228 . S
Cd184 O183 2.228 . S
Cd184 O188 2.273 . S
Cd184 O192 2.277 . S
O185 C182 1.160 . S
O185 Cd186 2.203 . S
Cd186 O185 2.203 . S
Cd186 O188 2.411 . S
Cd186 O189 2.333 . S
Cd186 O190 2.352 . S
Cd186 O194 2.277 . S
Cd186 O195 2.356 . S
C187 O192 1.209 . S
C187 O194 1.226 . S
O188 Cd184 2.273 . S
O188 Cd186 2.411 . S
O188 C191 1.320 . S
O189 Cd186 2.333 . S
O189 C191 1.214 . S
O190 Cd186 2.352 . S
O190 C193 1.258 . S
C191 O188 1.320 . S
C191 O189 1.214 . S
O192 Cd184 2.277 . S
O192 C187 1.209 . S
C193 O190 1.258 . S
C193 O195 1.282 . S
O194 Cd186 2.277 . S
O194 C187 1.226 . S
O195 Cd186 2.356 . S
O195 C193 1.282 . S
C196 O197 1.306 . S
C196 O199 1.160 . S
O197 C196 1.306 . S
O197 Cd198 2.228 . S
Cd198 O197 2.228 . S
Cd198 O202 2.273 . S
Cd198 O206 2.277 . S
O199 C196 1.160 . S
O199 Cd200 2.203 . S
Cd200 O199 2.203 . S
Cd200 O202 2.411 . S
Cd200 O203 2.333 . S
Cd200 O204 2.352 . S
Cd200 O208 2.277 . S
Cd200 O209 2.356 . S
C201 O206 1.209 . S
C201 O208 1.226 . S
O202 Cd198 2.273 . S
O202 Cd200 2.411 . S
O202 C205 1.320 . S
O203 Cd200 2.333 . S
O203 C205 1.214 . S
O204 Cd200 2.352 . S
O204 C207 1.258 . S
C205 O202 1.320 . S
C205 O203 1.214 . S
O206 Cd198 2.277 . S
O206 C201 1.209 . S
C207 O204 1.258 . S
C207 O209 1.282 . S
O208 Cd200 2.277 . S
O208 C201 1.226 . S
O209 Cd200 2.356 . S
O209 C207 1.282 . S
C210 O211 1.306 . S
C210 O213 1.160 . S
O211 C210 1.306 . S
O211 Cd212 2.228 . S
Cd212 O211 2.228 . S
Cd212 O216 2.273 . S
Cd212 O220 2.277 . S
O213 C210 1.160 . S
O213 Cd214 2.203 . S
Cd214 O213 2.203 . S
Cd214 O216 2.411 . S
Cd214 O217 2.333 . S
Cd214 O218 2.352 . S
Cd214 O222 2.277 . S
Cd214 O223 2.356 . S
C215 O220 1.209 . S
C215 O222 1.226 . S
O216 Cd212 2.273 . S
O216 Cd214 2.411 . S
O216 C219 1.320 . S
O217 Cd214 2.333 . S
O217 C219 1.214 . S
O218 Cd214 2.352 . S
O218 C221 1.258 . S
C219 O216 1.320 . S
C219 O217 1.214 . S
O220 Cd212 2.277 . S
O220 C215 1.209 . S
C221 O218 1.258 . S
C221 O223 1.282 . S
O222 Cd214 2.277 . S
O222 C215 1.226 . S
O223 Cd214 2.356 . S
O223 C221 1.282 . S
C224 O225 1.306 . S
C224 O227 1.160 . S
O225 C224 1.306 . S
O225 Cd226 2.228 . S
Cd226 O225 2.228 . S
Cd226 O230 2.273 . S
Cd226 O234 2.277 . S
O227 C224 1.160 . S
O227 Cd228 2.203 . S
Cd228 O227 2.203 . S
Cd228 O230 2.411 . S
Cd228 O231 2.333 . S
Cd228 O232 2.352 . S
Cd228 O236 2.277 . S
Cd228 O237 2.356 . S
C229 O234 1.209 . S
C229 O236 1.226 . S
O230 Cd226 2.273 . S
O230 Cd228 2.411 . S
O230 C233 1.320 . S
O231 Cd228 2.333 . S
O231 C233 1.214 . S
O232 Cd228 2.352 . S
O232 C235 1.258 . S
C233 O230 1.320 . S
C233 O231 1.214 . S
O234 Cd226 2.277 . S
O234 C229 1.209 . S
C235 O232 1.258 . S
C235 O237 1.282 . S
O236 Cd228 2.277 . S
O236 C229 1.226 . S
O237 Cd228 2.356 . S
O237 C235 1.282 . S
C238 O239 1.306 . S
C238 O241 1.160 . S
O239 C238 1.306 . S
O239 Cd240 2.228 . S
Cd240 O239 2.228 . S
Cd240 O244 2.273 . S
Cd240 O248 2.277 . S
O241 C238 1.160 . S
O241 Cd242 2.203 . S
Cd242 O241 2.203 . S
Cd242 O244 2.411 . S
Cd242 O245 2.333 . S
Cd242 O246 2.352 . S
Cd242 O250 2.277 . S
Cd242 O251 2.356 . S
C243 O248 1.209 . S
C243 O250 1.226 . S
O244 Cd240 2.273 . S
O244 Cd242 2.411 . S
O244 C247 1.320 . S
O245 Cd242 2.333 . S
O245 C247 1.214 . S
O246 Cd242 2.352 . S
O246 C249 1.258 . S
C247 O244 1.320 . S
C247 O245 1.214 . S
O248 Cd240 2.277 . S
O248 C243 1.209 . S
C249 O246 1.258 . S
C249 O251 1.282 . S
O250 Cd242 2.277 . S
O250 C243 1.226 . S
O251 Cd242 2.356 . S
O251 C249 1.282 . S
C252 O253 1.306 . S
C252 O255 1.160 . S
O253 C252 1.306 . S
O253 Cd254 2.228 . S
Cd254 O253 2.228 . S
Cd254 O258 2.273 . S
Cd254 O262 2.277 . S
O255 C252 1.160 . S
O255 Cd256 2.203 . S
Cd256 O255 2.203 . S
Cd256 O258 2.411 . S
Cd256 O259 2.333 . S
Cd256 O260 2.352 . S
Cd256 O264 2.277 . S
Cd256 O265 2.356 . S
C257 O262 1.209 . S
C257 O264 1.226 . S
O258 Cd254 2.273 . S
O258 Cd256 2.411 . S
O258 C261 1.320 . S
O259 Cd256 2.333 . S
O259 C261 1.214 . S
O260 Cd256 2.352 . S
O260 C263 1.258 . S
C261 O258 1.320 . S
C261 O259 1.214 . S
O262 Cd254 2.277 . S
O262 C257 1.209 . S
C263 O260 1.258 . S
C263 O265 1.282 . S
O264 Cd256 2.277 . S
O264 C257 1.226 . S
O265 Cd256 2.356 . S
O265 C263 1.282 . S
C266 O267 1.306 . S
C266 O269 1.160 . S
O267 C266 1.306 . S
O267 Cd268 2.228 . S
Cd268 O267 2.228 . S
Cd268 O272 2.273 . S
Cd268 O276 2.277 . S
O269 C266 1.160 . S
O269 Cd270 2.203 . S
Cd270 O269 2.203 . S
Cd270 O272 2.411 . S
Cd270 O273 2.333 . S
Cd270 O274 2.352 . S
Cd270 O278 2.277 . S
Cd270 O279 2.356 . S
C271 O276 1.209 . S
C271 O278 1.226 . S
O272 Cd268 2.273 . S
O272 Cd270 2.411 . S
O272 C275 1.320 . S
O273 Cd270 2.333 . S
O273 C275 1.214 . S
O274 Cd270 2.352 . S
O274 C277 1.258 . S
C275 O272 1.320 . S
C275 O273 1.214 . S
O276 Cd268 2.277 . S
O276 C271 1.209 . S
C277 O274 1.258 . S
C277 O279 1.282 . S
O278 Cd270 2.277 . S
O278 C271 1.226 . S
O279 Cd270 2.356 . S
O279 C277 1.282 . S
C280 O281 1.306 . S
C280 O283 1.160 . S
O281 C280 1.306 . S
O281 Cd282 2.228 . S
Cd282 O281 2.228 . S
Cd282 O286 2.273 . S
Cd282 O290 2.277 . S
O283 C280 1.160 . S
O283 Cd284 2.203 . S
Cd284 O283 2.203 . S
Cd284 O286 2.411 . S
Cd284 O287 2.333 . S
Cd284 O288 2.352 . S
Cd284 O292 2.277 . S
Cd284 O293 2.356 . S
C285 O290 1.209 . S
C285 O292 1.226 . S
O286 Cd282 2.273 . S
O286 Cd284 2.411 . S
O286 C289 1.320 . S
O287 Cd284 2.333 . S
O287 C289 1.214 . S
O288 Cd284 2.352 . S
O288 C291 1.258 . S
C289 O286 1.320 . S
C289 O287 1.214 . S
O290 Cd282 2.277 . S
O290 C285 1.209 . S
C291 O288 1.258 . S
C291 O293 1.282 . S
O292 Cd284 2.277 . S
O292 C285 1.226 . S
O293 Cd284 2.356 . S
O293 C291 1.282 . S
C294 O295 1.306 . S
C294 O297 1.160 . S
O295 C294 1.306 . S
O295 Cd296 2.228 1_556 S
Cd296 O295 2.228 1_554 S
Cd296 O300 2.273 . S
Cd296 O304 2.277 . S
O297 C294 1.160 . S
O297 Cd298 2.203 1_556 S
Cd298 O297 2.203 1_554 S
Cd298 O300 2.411 . S
Cd298 O301 2.333 . S
Cd298 O302 2.352 . S
Cd298 O306 2.277 . S
Cd298 O307 2.356 . S
C299 O304 1.209 . S
C299 O306 1.226 . S
O300 Cd296 2.273 . S
O300 Cd298 2.411 . S
O300 C303 1.320 . S
O301 Cd298 2.333 . S
O301 C303 1.214 . S
O302 Cd298 2.352 . S
O302 C305 1.258 . S
C303 O300 1.320 . S
C303 O301 1.214 . S
O304 Cd296 2.277 . S
O304 C299 1.209 . S
C305 O302 1.258 . S
C305 O307 1.282 . S
O306 Cd298 2.277 . S
O306 C299 1.226 . S
O307 Cd298 2.356 . S
O307 C305 1.282 . S
C308 O309 1.306 . S
C308 O311 1.160 . S
O309 C308 1.306 . S
O309 Cd310 2.228 1_556 S
Cd310 O309 2.228 1_554 S
Cd310 O314 2.273 . S
Cd310 O318 2.277 . S
O311 C308 1.160 . S
O311 Cd312 2.203 1_556 S
Cd312 O311 2.203 1_554 S
Cd312 O314 2.411 . S
Cd312 O315 2.333 . S
Cd312 O316 2.352 . S
Cd312 O320 2.277 . S
Cd312 O321 2.356 . S
C313 O318 1.209 . S
C313 O320 1.226 . S
O314 Cd310 2.273 . S
O314 Cd312 2.411 . S
O314 C317 1.320 . S
O315 Cd312 2.333 . S
O315 C317 1.214 . S
O316 Cd312 2.352 . S
O316 C319 1.258 . S
C317 O314 1.320 . S
C317 O315 1.214 . S
O318 Cd310 2.277 . S
O318 C313 1.209 . S
C319 O316 1.258 . S
C319 O321 1.282 . S
O320 Cd312 2.277 . S
O320 C313 1.226 . S
O321 Cd312 2.356 . S
O321 C319 1.282 . S
C322 O323 1.306 . S
C322 O325 1.160 . S
O323 C322 1.306 . S
O323 Cd324 2.228 1_556 S
Cd324 O323 2.228 1_554 S
Cd324 O328 2.273 . S
Cd324 O332 2.277 . S
O325 C322 1.160 . S
O325 Cd326 2.203 1_556 S
Cd326 O325 2.203 1_554 S
Cd326 O328 2.411 . S
Cd326 O329 2.333 . S
Cd326 O330 2.352 . S
Cd326 O334 2.277 . S
Cd326 O335 2.356 . S
C327 O332 1.209 . S
C327 O334 1.226 . S
O328 Cd324 2.273 . S
O328 Cd326 2.411 . S
O328 C331 1.320 . S
O329 Cd326 2.333 . S
O329 C331 1.214 . S
O330 Cd326 2.352 . S
O330 C333 1.258 . S
C331 O328 1.320 . S
C331 O329 1.214 . S
O332 Cd324 2.277 . S
O332 C327 1.209 . S
C333 O330 1.258 . S
C333 O335 1.282 . S
O334 Cd326 2.277 . S
O334 C327 1.226 . S
O335 Cd326 2.356 . S
O335 C333 1.282 . S
C336 O337 1.306 . S
C336 O339 1.160 . S
O337 C336 1.306 . S
O337 Cd338 2.228 . S
Cd338 O337 2.228 . S
Cd338 O342 2.273 . S
Cd338 O346 2.277 . S
O339 C336 1.160 . S
O339 Cd340 2.203 . S
Cd340 O339 2.203 . S
Cd340 O342 2.411 . S
Cd340 O343 2.333 . S
Cd340 O344 2.352 . S
Cd340 O348 2.277 . S
Cd340 O349 2.356 . S
C341 O346 1.209 . S
C341 O348 1.226 . S
O342 Cd338 2.273 . S
O342 Cd340 2.411 . S
O342 C345 1.320 . S
O343 Cd340 2.333 . S
O343 C345 1.214 . S
O344 Cd340 2.352 . S
O344 C347 1.258 . S
C345 O342 1.320 . S
C345 O343 1.214 . S
O346 Cd338 2.277 . S
O346 C341 1.209 . S
C347 O344 1.258 . S
C347 O349 1.282 . S
O348 Cd340 2.277 . S
O348 C341 1.226 . S
O349 Cd340 2.356 . S
O349 C347 1.282 . S
C350 O351 1.306 . S
C350 O353 1.160 . S
O351 C350 1.306 . S
O351 Cd352 2.228 . S
Cd352 O351 2.228 . S
Cd352 O356 2.273 . S
Cd352 O360 2.277 . S
O353 C350 1.160 . S
O353 Cd354 2.203 . S
Cd354 O353 2.203 . S
Cd354 O356 2.411 . S
Cd354 O357 2.333 . S
Cd354 O358 2.352 . S
Cd354 O362 2.277 . S
Cd354 O363 2.356 . S
C355 O360 1.209 . S
C355 O362 1.226 . S
O356 Cd352 2.273 . S
O356 Cd354 2.411 . S
O356 C359 1.320 . S
O357 Cd354 2.333 . S
O357 C359 1.214 . S
O358 Cd354 2.352 . S
O358 C361 1.258 . S
C359 O356 1.320 . S
C359 O357 1.214 . S
O360 Cd352 2.277 . S
O360 C355 1.209 . S
C361 O358 1.258 . S
C361 O363 1.282 . S
O362 Cd354 2.277 . S
O362 C355 1.226 . S
O363 Cd354 2.356 . S
O363 C361 1.282 . S
C364 O365 1.306 . S
C364 O367 1.160 . S
O365 C364 1.306 . S
O365 Cd366 2.228 . S
Cd366 O365 2.228 . S
Cd366 O370 2.273 . S
Cd366 O374 2.277 . S
O367 C364 1.160 . S
O367 Cd368 2.203 . S
Cd368 O367 2.203 . S
Cd368 O370 2.411 . S
Cd368 O371 2.333 . S
Cd368 O372 2.352 . S
Cd368 O376 2.277 . S
Cd368 O377 2.356 . S
C369 O374 1.209 . S
C369 O376 1.226 . S
O370 Cd366 2.273 . S
O370 Cd368 2.411 . S
O370 C373 1.320 . S
O371 Cd368 2.333 . S
O371 C373 1.214 . S
O372 Cd368 2.352 . S
O372 C375 1.258 . S
C373 O370 1.320 . S
C373 O371 1.214 . S
O374 Cd366 2.277 . S
O374 C369 1.209 . S
C375 O372 1.258 . S
C375 O377 1.282 . S
O376 Cd368 2.277 . S
O376 C369 1.226 . S
O377 Cd368 2.356 . S
O377 C375 1.282 . S
C378 O379 1.306 . S
C378 O381 1.160 . S
O379 C378 1.306 . S
O379 Cd380 2.228 1_554 S
Cd380 O379 2.228 1_556 S
Cd380 O384 2.273 . S
Cd380 O388 2.277 . S
O381 C378 1.160 . S
O381 Cd382 2.203 1_554 S
Cd382 O381 2.203 1_556 S
Cd382 O384 2.411 . S
Cd382 O385 2.333 . S
Cd382 O386 2.352 . S
Cd382 O390 2.277 . S
Cd382 O391 2.356 . S
C383 O388 1.209 . S
C383 O390 1.226 . S
O384 Cd380 2.273 . S
O384 Cd382 2.411 . S
O384 C387 1.320 . S
O385 Cd382 2.333 . S
O385 C387 1.214 . S
O386 Cd382 2.352 . S
O386 C389 1.258 . S
C387 O384 1.320 . S
C387 O385 1.214 . S
O388 Cd380 2.277 . S
O388 C383 1.209 . S
C389 O386 1.258 . S
C389 O391 1.282 . S
O390 Cd382 2.277 . S
O390 C383 1.226 . S
O391 Cd382 2.356 . S
O391 C389 1.282 . S
C392 O393 1.306 . S
C392 O395 1.160 . S
O393 C392 1.306 . S
O393 Cd394 2.228 1_554 S
Cd394 O393 2.228 1_556 S
Cd394 O398 2.273 . S
Cd394 O402 2.277 . S
O395 C392 1.160 . S
O395 Cd396 2.203 1_554 S
Cd396 O395 2.203 1_556 S
Cd396 O398 2.411 . S
Cd396 O399 2.333 . S
Cd396 O400 2.352 . S
Cd396 O404 2.277 . S
Cd396 O405 2.356 . S
C397 O402 1.209 . S
C397 O404 1.226 . S
O398 Cd394 2.273 . S
O398 Cd396 2.411 . S
O398 C401 1.320 . S
O399 Cd396 2.333 . S
O399 C401 1.214 . S
O400 Cd396 2.352 . S
O400 C403 1.258 . S
C401 O398 1.320 . S
C401 O399 1.214 . S
O402 Cd394 2.277 . S
O402 C397 1.209 . S
C403 O400 1.258 . S
C403 O405 1.282 . S
O404 Cd396 2.277 . S
O404 C397 1.226 . S
O405 Cd396 2.356 . S
O405 C403 1.282 . S
C406 O407 1.306 . S
C406 O409 1.160 . S
O407 C406 1.306 . S
O407 Cd408 2.228 1_554 S
Cd408 O407 2.228 1_556 S
Cd408 O412 2.273 . S
Cd408 O416 2.277 . S
O409 C406 1.160 . S
O409 Cd410 2.203 1_554 S
Cd410 O409 2.203 1_556 S
Cd410 O412 2.411 . S
Cd410 O413 2.333 . S
Cd410 O414 2.352 . S
Cd410 O418 2.277 . S
Cd410 O419 2.356 . S
C411 O416 1.209 . S
C411 O418 1.226 . S
O412 Cd408 2.273 . S
O412 Cd410 2.411 . S
O412 C415 1.320 . S
O413 Cd410 2.333 . S
O413 C415 1.214 . S
O414 Cd410 2.352 . S
O414 C417 1.258 . S
C415 O412 1.320 . S
C415 O413 1.214 . S
O416 Cd408 2.277 . S
O416 C411 1.209 . S
C417 O414 1.258 . S
C417 O419 1.282 . S
O418 Cd410 2.277 . S
O418 C411 1.226 . S
O419 Cd410 2.356 . S
O419 C417 1.282 . S
C420 O421 1.306 . S
C420 O423 1.160 . S
O421 C420 1.306 . S
O421 Cd422 2.228 . S
Cd422 O421 2.228 . S
Cd422 O426 2.273 . S
Cd422 O430 2.277 . S
O423 C420 1.160 . S
O423 Cd424 2.203 . S
Cd424 O423 2.203 . S
Cd424 O426 2.411 . S
Cd424 O427 2.333 . S
Cd424 O428 2.352 . S
Cd424 O432 2.277 . S
Cd424 O433 2.356 . S
C425 O430 1.209 . S
C425 O432 1.226 . S
O426 Cd422 2.273 . S
O426 Cd424 2.411 . S
O426 C429 1.320 . S
O427 Cd424 2.333 . S
O427 C429 1.214 . S
O428 Cd424 2.352 . S
O428 C431 1.258 . S
C429 O426 1.320 . S
C429 O427 1.214 . S
O430 Cd422 2.277 . S
O430 C425 1.209 . S
C431 O428 1.258 . S
C431 O433 1.282 . S
O432 Cd424 2.277 . S
O432 C425 1.226 . S
O433 Cd424 2.356 . S
O433 C431 1.282 . S
C434 O435 1.306 . S
C434 O437 1.160 . S
O435 C434 1.306 . S
O435 Cd436 2.228 . S
Cd436 O435 2.228 . S
Cd436 O440 2.273 . S
Cd436 O444 2.277 . S
O437 C434 1.160 . S
O437 Cd438 2.203 . S
Cd438 O437 2.203 . S
Cd438 O440 2.411 . S
Cd438 O441 2.333 . S
Cd438 O442 2.352 . S
Cd438 O446 2.277 . S
Cd438 O447 2.356 . S
C439 O444 1.209 . S
C439 O446 1.226 . S
O440 Cd436 2.273 . S
O440 Cd438 2.411 . S
O440 C443 1.320 . S
O441 Cd438 2.333 . S
O441 C443 1.214 . S
O442 Cd438 2.352 . S
O442 C445 1.258 . S
C443 O440 1.320 . S
C443 O441 1.214 . S
O444 Cd436 2.277 . S
O444 C439 1.209 . S
C445 O442 1.258 . S
C445 O447 1.282 . S
O446 Cd438 2.277 . S
O446 C439 1.226 . S
O447 Cd438 2.356 . S
O447 C445 1.282 . S
C448 O449 1.306 . S
C448 O451 1.160 . S
O449 C448 1.306 . S
O449 Cd450 2.228 . S
Cd450 O449 2.228 . S
Cd450 O454 2.273 . S
Cd450 O458 2.277 . S
O451 C448 1.160 . S
O451 Cd452 2.203 . S
Cd452 O451 2.203 . S
Cd452 O454 2.411 . S
Cd452 O455 2.333 . S
Cd452 O456 2.352 . S
Cd452 O460 2.277 . S
Cd452 O461 2.356 . S
C453 O458 1.209 . S
C453 O460 1.226 . S
O454 Cd450 2.273 . S
O454 Cd452 2.411 . S
O454 C457 1.320 . S
O455 Cd452 2.333 . S
O455 C457 1.214 . S
O456 Cd452 2.352 . S
O456 C459 1.258 . S
C457 O454 1.320 . S
C457 O455 1.214 . S
O458 Cd450 2.277 . S
O458 C453 1.209 . S
C459 O456 1.258 . S
C459 O461 1.282 . S
O460 Cd452 2.277 . S
O460 C453 1.226 . S
O461 Cd452 2.356 . S
O461 C459 1.282 . S
C462 O463 1.306 . S
C462 O465 1.160 . S
O463 C462 1.306 . S
O463 Cd464 2.228 . S
Cd464 O463 2.228 . S
Cd464 O468 2.273 . S
Cd464 O472 2.277 . S
O465 C462 1.160 . S
O465 Cd466 2.203 . S
Cd466 O465 2.203 . S
Cd466 O468 2.411 . S
Cd466 O469 2.333 . S
Cd466 O470 2.352 . S
Cd466 O474 2.277 . S
Cd466 O475 2.356 . S
C467 O472 1.209 . S
C467 O474 1.226 . S
O468 Cd464 2.273 . S
O468 Cd466 2.411 . S
O468 C471 1.320 . S
O469 Cd466 2.333 . S
O469 C471 1.214 . S
O470 Cd466 2.352 . S
O470 C473 1.258 . S
C471 O468 1.320 . S
C471 O469 1.214 . S
O472 Cd464 2.277 . S
O472 C467 1.209 . S
C473 O470 1.258 . S
C473 O475 1.282 . S
O474 Cd466 2.277 . S
O474 C467 1.226 . S
O475 Cd466 2.356 . S
O475 C473 1.282 . S
C476 O477 1.306 . S
C476 O479 1.160 . S
O477 C476 1.306 . S
O477 Cd478 2.228 . S
Cd478 O477 2.228 . S
Cd478 O482 2.273 . S
Cd478 O486 2.277 . S
O479 C476 1.160 . S
O479 Cd480 2.203 . S
Cd480 O479 2.203 . S
Cd480 O482 2.411 . S
Cd480 O483 2.333 . S
Cd480 O484 2.352 . S
Cd480 O488 2.277 . S
Cd480 O489 2.356 . S
C481 O486 1.209 . S
C481 O488 1.226 . S
O482 Cd478 2.273 . S
O482 Cd480 2.411 . S
O482 C485 1.320 . S
O483 Cd480 2.333 . S
O483 C485 1.214 . S
O484 Cd480 2.352 . S
O484 C487 1.258 . S
C485 O482 1.320 . S
C485 O483 1.214 . S
O486 Cd478 2.277 . S
O486 C481 1.209 . S
C487 O484 1.258 . S
C487 O489 1.282 . S
O488 Cd480 2.277 . S
O488 C481 1.226 . S
O489 Cd480 2.356 . S
O489 C487 1.282 . S
C490 O491 1.306 . S
C490 O493 1.160 . S
O491 C490 1.306 . S
O491 Cd492 2.228 . S
Cd492 O491 2.228 . S
Cd492 O496 2.273 . S
Cd492 O500 2.277 . S
O493 C490 1.160 . S
O493 Cd494 2.203 . S
Cd494 O493 2.203 . S
Cd494 O496 2.411 . S
Cd494 O497 2.333 . S
Cd494 O498 2.352 . S
Cd494 O502 2.277 . S
Cd494 O503 2.356 . S
C495 O500 1.209 . S
C495 O502 1.226 . S
O496 Cd492 2.273 . S
O496 Cd494 2.411 . S
O496 C499 1.320 . S
O497 Cd494 2.333 . S
O497 C499 1.214 . S
O498 Cd494 2.352 . S
O498 C501 1.258 . S
C499 O496 1.320 . S
C499 O497 1.214 . S
O500 Cd492 2.277 . S
O500 C495 1.209 . S
C501 O498 1.258 . S
C501 O503 1.282 . S
O502 Cd494 2.277 . S
O502 C495 1.226 . S
O503 Cd494 2.356 . S
O503 C501 1.282 . S
C504 C505 1.369 . S
C504 C506 1.419 . S
C504 H508 0.930 . S
C505 C504 1.369 . S
C505 C514 1.429 . S
C506 C504 1.419 . S
C506 C507 1.363 1_556 S
C506 H509 0.929 1_556 S
C507 C506 1.363 1_554 S
C507 C513 1.428 1_554 S
H508 C504 0.930 . S
H509 C506 0.929 1_554 S
S510 N511 1.613 . S
S510 N512 1.610 1_556 S
N511 S510 1.613 . S
N511 C514 1.350 . S
N512 S510 1.610 1_554 S
N512 C513 1.351 1_554 S
C513 C507 1.428 1_556 S
C513 N512 1.351 1_556 S
C513 C514 1.434 . S
C514 C505 1.429 . S
C514 N511 1.350 . S
C514 C513 1.434 . S
C515 C516 1.369 . S
C515 C517 1.419 . S
C515 H519 0.930 . S
C516 C515 1.369 . S
C516 C525 1.429 . S
C517 C515 1.419 . S
C517 C518 1.363 1_556 S
C517 H520 0.929 1_556 S
C518 C517 1.363 1_554 S
C518 C524 1.428 1_554 S
H519 C515 0.930 . S
H520 C517 0.929 1_554 S
S521 N522 1.613 . S
S521 N523 1.610 1_556 S
N522 S521 1.613 . S
N522 C525 1.350 . S
N523 S521 1.610 1_554 S
N523 C524 1.351 1_554 S
C524 C518 1.428 1_556 S
C524 N523 1.351 1_556 S
C524 C525 1.434 . S
C525 C516 1.429 . S
C525 N522 1.350 . S
C525 C524 1.434 . S
C526 C527 1.369 1_556 S
C526 C528 1.419 . S
C526 H530 0.930 1_556 S
C527 C526 1.369 1_554 S
C527 C536 1.429 1_554 S
C528 C526 1.419 . S
C528 C529 1.363 . S
C528 H531 0.929 . S
C529 C528 1.363 . S
C529 C535 1.428 . S
H530 C526 0.930 1_554 S
H531 C528 0.929 . S
S532 N533 1.613 1_556 S
S532 N534 1.610 . S
N533 S532 1.613 1_554 S
N533 C536 1.350 1_554 S
N534 S532 1.610 . S
N534 C535 1.351 . S
C535 C529 1.428 . S
C535 N534 1.351 . S
C535 C536 1.434 . S
C536 C527 1.429 1_556 S
C536 N533 1.350 1_556 S
C536 C535 1.434 . S
C537 C538 1.369 . S
C537 C539 1.419 . S
C537 H541 0.930 . S
C538 C537 1.369 . S
C538 C547 1.429 . S
C539 C537 1.419 . S
C539 C540 1.363 . S
C539 H542 0.929 . S
C540 C539 1.363 . S
C540 C546 1.428 . S
H541 C537 0.930 . S
H542 C539 0.929 . S
S543 N544 1.613 . S
S543 N545 1.610 . S
N544 S543 1.613 . S
N544 C547 1.350 . S
N545 S543 1.610 . S
N545 C546 1.351 . S
C546 C540 1.428 . S
C546 N545 1.351 . S
C546 C547 1.434 . S
C547 C538 1.429 . S
C547 N544 1.350 . S
C547 C546 1.434 . S
C548 C549 1.369 . S
C548 C550 1.419 . S
C548 H552 0.930 . S
C549 C548 1.369 . S
C549 C558 1.429 . S
C550 C548 1.419 . S
C550 C551 1.363 . S
C550 H553 0.929 . S
C551 C550 1.363 . S
C551 C557 1.428 . S
H552 C548 0.930 . S
H553 C550 0.929 . S
S554 N555 1.613 . S
S554 N556 1.610 . S
N555 S554 1.613 . S
N555 C558 1.350 . S
N556 S554 1.610 . S
N556 C557 1.351 . S
C557 C551 1.428 . S
C557 N556 1.351 . S
C557 C558 1.434 . S
C558 C549 1.429 . S
C558 N555 1.350 . S
C558 C557 1.434 . S
C559 C560 1.369 . S
C559 C561 1.419 . S
C559 H563 0.930 . S
C560 C559 1.369 . S
C560 C569 1.429 . S
C561 C559 1.419 . S
C561 C562 1.363 . S
C561 H564 0.929 . S
C562 C561 1.363 . S
C562 C568 1.428 . S
H563 C559 0.930 . S
H564 C561 0.929 . S
S565 N566 1.613 . S
S565 N567 1.610 . S
N566 S565 1.613 . S
N566 C569 1.350 . S
N567 S565 1.610 . S
N567 C568 1.351 . S
C568 C562 1.428 . S
C568 N567 1.351 . S
C568 C569 1.434 . S
C569 C560 1.429 . S
C569 N566 1.350 . S
C569 C568 1.434 . S
C570 C571 1.369 . S
C570 C572 1.419 . S
C570 H574 0.930 . S
C571 C570 1.369 . S
C571 C580 1.429 . S
C572 C570 1.419 . S
C572 C573 1.363 1_554 S
C572 H575 0.929 1_554 S
C573 C572 1.363 1_556 S
C573 C579 1.428 1_556 S
H574 C570 0.930 . S
H575 C572 0.929 1_556 S
S576 N577 1.613 . S
S576 N578 1.610 1_554 S
N577 S576 1.613 . S
N577 C580 1.350 . S
N578 S576 1.610 1_556 S
N578 C579 1.351 1_556 S
C579 C573 1.428 1_554 S
C579 N578 1.351 1_554 S
C579 C580 1.434 . S
C580 C571 1.429 . S
C580 N577 1.350 . S
C580 C579 1.434 . S
C581 C582 1.369 . S
C581 C583 1.419 . S
C581 H585 0.930 . S
C582 C581 1.369 . S
C582 C591 1.429 . S
C583 C581 1.419 . S
C583 C584 1.363 1_554 S
C583 H586 0.929 1_554 S
C584 C583 1.363 1_556 S
C584 C590 1.428 1_556 S
H585 C581 0.930 . S
H586 C583 0.929 1_556 S
S587 N588 1.613 . S
S587 N589 1.610 1_554 S
N588 S587 1.613 . S
N588 C591 1.350 . S
N589 S587 1.610 1_556 S
N589 C590 1.351 1_556 S
C590 C584 1.428 1_554 S
C590 N589 1.351 1_554 S
C590 C591 1.434 . S
C591 C582 1.429 . S
C591 N588 1.350 . S
C591 C590 1.434 . S
C592 C593 1.369 1_554 S
C592 C594 1.419 . S
C592 H596 0.930 1_554 S
C593 C592 1.369 1_556 S
C593 C602 1.429 1_556 S
C594 C592 1.419 . S
C594 C595 1.363 . S
C594 H597 0.929 . S
C595 C594 1.363 . S
C595 C601 1.428 . S
H596 C592 0.930 1_556 S
H597 C594 0.929 . S
S598 N599 1.613 1_554 S
S598 N600 1.610 . S
N599 S598 1.613 1_556 S
N599 C602 1.350 1_556 S
N600 S598 1.610 . S
N600 C601 1.351 . S
C601 C595 1.428 . S
C601 N600 1.351 . S
C601 C602 1.434 . S
C602 C593 1.429 1_554 S
C602 N599 1.350 1_554 S
C602 C601 1.434 . S
C603 C604 1.369 . S
C603 C605 1.419 . S
C603 H607 0.930 . S
C604 C603 1.369 . S
C604 C613 1.429 . S
C605 C603 1.419 . S
C605 C606 1.363 . S
C605 H608 0.929 . S
C606 C605 1.363 . S
C606 C612 1.428 . S
H607 C603 0.930 . S
H608 C605 0.929 . S
S609 N610 1.613 . S
S609 N611 1.610 . S
N610 S609 1.613 . S
N610 C613 1.350 . S
N611 S609 1.610 . S
N611 C612 1.351 . S
C612 C606 1.428 . S
C612 N611 1.351 . S
C612 C613 1.434 . S
C613 C604 1.429 . S
C613 N610 1.350 . S
C613 C612 1.434 . S
C614 C615 1.369 . S
C614 C616 1.419 . S
C614 H618 0.930 . S
C615 C614 1.369 . S
C615 C624 1.429 . S
C616 C614 1.419 . S
C616 C617 1.363 . S
C616 H619 0.929 . S
C617 C616 1.363 . S
C617 C623 1.428 . S
H618 C614 0.930 . S
H619 C616 0.929 . S
S620 N621 1.613 . S
S620 N622 1.610 . S
N621 S620 1.613 . S
N621 C624 1.350 . S
N622 S620 1.610 . S
N622 C623 1.351 . S
C623 C617 1.428 . S
C623 N622 1.351 . S
C623 C624 1.434 . S
C624 C615 1.429 . S
C624 N621 1.350 . S
C624 C623 1.434 . S
C625 C626 1.369 . S
C625 C627 1.419 . S
C625 H629 0.930 . S
C626 C625 1.369 . S
C626 C635 1.429 . S
C627 C625 1.419 . S
C627 C628 1.363 . S
C627 H630 0.929 . S
C628 C627 1.363 . S
C628 C634 1.428 . S
H629 C625 0.930 . S
H630 C627 0.929 . S
S631 N632 1.613 . S
S631 N633 1.610 . S
N632 S631 1.613 . S
N632 C635 1.350 . S
N633 S631 1.610 . S
N633 C634 1.351 . S
C634 C628 1.428 . S
C634 N633 1.351 . S
C634 C635 1.434 . S
C635 C626 1.429 . S
C635 N632 1.350 . S
C635 C634 1.434 . S
C636 C637 1.369 . S
C636 C638 1.419 . S
C636 H640 0.930 . S
C637 C636 1.369 . S
C637 C646 1.429 . S
C638 C636 1.419 . S
C638 C639 1.363 . S
C638 H641 0.929 . S
C639 C638 1.363 . S
C639 C645 1.428 . S
H640 C636 0.930 . S
H641 C638 0.929 . S
S642 N643 1.613 . S
S642 N644 1.610 . S
N643 S642 1.613 . S
N643 C646 1.350 . S
N644 S642 1.610 . S
N644 C645 1.351 . S
C645 C639 1.428 . S
C645 N644 1.351 . S
C645 C646 1.434 . S
C646 C637 1.429 . S
C646 N643 1.350 . S
C646 C645 1.434 . S
C647 C648 1.369 . S
C647 C649 1.419 . S
C647 H651 0.930 . S
C648 C647 1.369 . S
C648 C657 1.429 . S
C649 C647 1.419 . S
C649 C650 1.363 . S
C649 H652 0.929 . S
C650 C649 1.363 . S
C650 C656 1.428 . S
H651 C647 0.930 . S
H652 C649 0.929 . S
S653 N654 1.613 . S
S653 N655 1.610 . S
N654 S653 1.613 . S
N654 C657 1.350 . S
N655 S653 1.610 . S
N655 C656 1.351 . S
C656 C650 1.428 . S
C656 N655 1.351 . S
C656 C657 1.434 . S
C657 C648 1.429 . S
C657 N654 1.350 . S
C657 C656 1.434 . S
C658 C659 1.369 . S
C658 C660 1.419 . S
C658 H662 0.930 . S
C659 C658 1.369 . S
C659 C668 1.429 . S
C660 C658 1.419 . S
C660 C661 1.363 . S
C660 H663 0.929 . S
C661 C660 1.363 . S
C661 C667 1.428 . S
H662 C658 0.930 . S
H663 C660 0.929 . S
S664 N665 1.613 . S
S664 N666 1.610 . S
N665 S664 1.613 . S
N665 C668 1.350 . S
N666 S664 1.610 . S
N666 C667 1.351 . S
C667 C661 1.428 . S
C667 N666 1.351 . S
C667 C668 1.434 . S
C668 C659 1.429 . S
C668 N665 1.350 . S
C668 C667 1.434 . S
C669 C670 1.369 . S
C669 C671 1.419 . S
C669 H673 0.930 . S
C670 C669 1.369 . S
C670 C679 1.429 . S
C671 C669 1.419 . S
C671 C672 1.363 . S
C671 H674 0.929 . S
C672 C671 1.363 . S
C672 C678 1.428 . S
H673 C669 0.930 . S
H674 C671 0.929 . S
S675 N676 1.613 . S
S675 N677 1.610 . S
N676 S675 1.613 . S
N676 C679 1.350 . S
N677 S675 1.610 . S
N677 C678 1.351 . S
C678 C672 1.428 . S
C678 N677 1.351 . S
C678 C679 1.434 . S
C679 C670 1.429 . S
C679 N676 1.350 . S
C679 C678 1.434 . S
C680 C681 1.369 . S
C680 C682 1.419 . S
C680 H684 0.930 . S
C681 C680 1.369 . S
C681 C690 1.429 . S
C682 C680 1.419 . S
C682 C683 1.363 . S
C682 H685 0.929 . S
C683 C682 1.363 . S
C683 C689 1.428 . S
H684 C680 0.930 . S
H685 C682 0.929 . S
S686 N687 1.613 . S
S686 N688 1.610 . S
N687 S686 1.613 . S
N687 C690 1.350 . S
N688 S686 1.610 . S
N688 C689 1.351 . S
C689 C683 1.428 . S
C689 N688 1.351 . S
C689 C690 1.434 . S
C690 C681 1.429 . S
C690 N687 1.350 . S
C690 C689 1.434 . S
C691 C692 1.369 . S
C691 C693 1.419 . S
C691 H695 0.930 . S
C692 C691 1.369 . S
C692 C701 1.429 . S
C693 C691 1.419 . S
C693 C694 1.363 . S
C693 H696 0.929 . S
C694 C693 1.363 . S
C694 C700 1.428 . S
H695 C691 0.930 . S
H696 C693 0.929 . S
S697 N698 1.613 . S
S697 N699 1.610 . S
N698 S697 1.613 . S
N698 C701 1.350 . S
N699 S697 1.610 . S
N699 C700 1.351 . S
C700 C694 1.428 . S
C700 N699 1.351 . S
C700 C701 1.434 . S
C701 C692 1.429 . S
C701 N698 1.350 . S
C701 C700 1.434 . S
C702 C703 1.369 . S
C702 C704 1.419 . S
C702 H706 0.930 . S
C703 C702 1.369 . S
C703 C712 1.429 . S
C704 C702 1.419 . S
C704 C705 1.363 . S
C704 H707 0.929 . S
C705 C704 1.363 . S
C705 C711 1.428 . S
H706 C702 0.930 . S
H707 C704 0.929 . S
S708 N709 1.613 . S
S708 N710 1.610 . S
N709 S708 1.613 . S
N709 C712 1.350 . S
N710 S708 1.610 . S
N710 C711 1.351 . S
C711 C705 1.428 . S
C711 N710 1.351 . S
C711 C712 1.434 . S
C712 C703 1.429 . S
C712 N709 1.350 . S
C712 C711 1.434 . S
C713 C714 1.369 . S
C713 C715 1.419 . S
C713 H717 0.930 . S
C714 C713 1.369 . S
C714 C723 1.429 . S
C715 C713 1.419 . S
C715 C716 1.363 . S
C715 H718 0.929 . S
C716 C715 1.363 . S
C716 C722 1.428 . S
H717 C713 0.930 . S
H718 C715 0.929 . S
S719 N720 1.613 . S
S719 N721 1.610 . S
N720 S719 1.613 . S
N720 C723 1.350 . S
N721 S719 1.610 . S
N721 C722 1.351 . S
C722 C716 1.428 . S
C722 N721 1.351 . S
C722 C723 1.434 . S
C723 C714 1.429 . S
C723 N720 1.350 . S
C723 C722 1.434 . S
C724 C725 1.369 . S
C724 C726 1.419 . S
C724 H728 0.930 . S
C725 C724 1.369 . S
C725 C734 1.429 . S
C726 C724 1.419 . S
C726 C727 1.363 . S
C726 H729 0.929 . S
C727 C726 1.363 . S
C727 C733 1.428 . S
H728 C724 0.930 . S
H729 C726 0.929 . S
S730 N731 1.613 . S
S730 N732 1.610 . S
N731 S730 1.613 . S
N731 C734 1.350 . S
N732 S730 1.610 . S
N732 C733 1.351 . S
C733 C727 1.428 . S
C733 N732 1.351 . S
C733 C734 1.434 . S
C734 C725 1.429 . S
C734 N731 1.350 . S
C734 C733 1.434 . S
C735 C736 1.369 . S
C735 C737 1.419 . S
C735 H739 0.930 . S
C736 C735 1.369 . S
C736 C745 1.429 . S
C737 C735 1.419 . S
C737 C738 1.363 . S
C737 H740 0.929 . S
C738 C737 1.363 . S
C738 C744 1.428 . S
H739 C735 0.930 . S
H740 C737 0.929 . S
S741 N742 1.613 . S
S741 N743 1.610 . S
N742 S741 1.613 . S
N742 C745 1.350 . S
N743 S741 1.610 . S
N743 C744 1.351 . S
C744 C738 1.428 . S
C744 N743 1.351 . S
C744 C745 1.434 . S
C745 C736 1.429 . S
C745 N742 1.350 . S
C745 C744 1.434 . S
C746 C747 1.369 . S
C746 C748 1.419 . S
C746 H750 0.930 . S
C747 C746 1.369 . S
C747 C756 1.429 . S
C748 C746 1.419 . S
C748 C749 1.363 . S
C748 H751 0.929 . S
C749 C748 1.363 . S
C749 C755 1.428 . S
H750 C746 0.930 . S
H751 C748 0.929 . S
S752 N753 1.613 . S
S752 N754 1.610 . S
N753 S752 1.613 . S
N753 C756 1.350 . S
N754 S752 1.610 . S
N754 C755 1.351 . S
C755 C749 1.428 . S
C755 N754 1.351 . S
C755 C756 1.434 . S
C756 C747 1.429 . S
C756 N753 1.350 . S
C756 C755 1.434 . S
C757 C758 1.369 . S
C757 C759 1.419 . S
C757 H761 0.930 . S
C758 C757 1.369 . S
C758 C767 1.429 . S
C759 C757 1.419 . S
C759 C760 1.363 . S
C759 H762 0.929 . S
C760 C759 1.363 . S
C760 C766 1.428 . S
H761 C757 0.930 . S
H762 C759 0.929 . S
S763 N764 1.613 . S
S763 N765 1.610 . S
N764 S763 1.613 . S
N764 C767 1.350 . S
N765 S763 1.610 . S
N765 C766 1.351 . S
C766 C760 1.428 . S
C766 N765 1.351 . S
C766 C767 1.434 . S
C767 C758 1.429 . S
C767 N764 1.350 . S
C767 C766 1.434 . S
C768 C769 1.369 . S
C768 C770 1.419 . S
C768 H772 0.930 . S
C769 C768 1.369 . S
C769 C778 1.429 . S
C770 C768 1.419 . S
C770 C771 1.363 . S
C770 H773 0.929 . S
C771 C770 1.363 . S
C771 C777 1.428 . S
H772 C768 0.930 . S
H773 C770 0.929 . S
S774 N775 1.613 . S
S774 N776 1.610 . S
N775 S774 1.613 . S
N775 C778 1.350 . S
N776 S774 1.610 . S
N776 C777 1.351 . S
C777 C771 1.428 . S
C777 N776 1.351 . S
C777 C778 1.434 . S
C778 C769 1.429 . S
C778 N775 1.350 . S
C778 C777 1.434 . S
C779 C780 1.369 . S
C779 C781 1.419 . S
C779 H783 0.930 . S
C780 C779 1.369 . S
C780 C789 1.429 . S
C781 C779 1.419 . S
C781 C782 1.363 . S
C781 H784 0.929 . S
C782 C781 1.363 . S
C782 C788 1.428 . S
H783 C779 0.930 . S
H784 C781 0.929 . S
S785 N786 1.613 . S
S785 N787 1.610 . S
N786 S785 1.613 . S
N786 C789 1.350 . S
N787 S785 1.610 . S
N787 C788 1.351 . S
C788 C782 1.428 . S
C788 N787 1.351 . S
C788 C789 1.434 . S
C789 C780 1.429 . S
C789 N786 1.350 . S
C789 C788 1.434 . S
C790 C791 1.369 . S
C790 C792 1.419 . S
C790 H794 0.930 . S
C791 C790 1.369 . S
C791 C800 1.429 . S
C792 C790 1.419 . S
C792 C793 1.363 . S
C792 H795 0.929 . S
C793 C792 1.363 . S
C793 C799 1.428 . S
H794 C790 0.930 . S
H795 C792 0.929 . S
S796 N797 1.613 . S
S796 N798 1.610 . S
N797 S796 1.613 . S
N797 C800 1.350 . S
N798 S796 1.610 . S
N798 C799 1.351 . S
C799 C793 1.428 . S
C799 N798 1.351 . S
C799 C800 1.434 . S
C800 C791 1.429 . S
C800 N797 1.350 . S
C800 C799 1.434 . S
C801 C802 1.369 . S
C801 C803 1.419 . S
C801 H805 0.930 . S
C802 C801 1.369 . S
C802 C811 1.429 . S
C803 C801 1.419 . S
C803 C804 1.363 . S
C803 H806 0.929 . S
C804 C803 1.363 . S
C804 C810 1.428 . S
H805 C801 0.930 . S
H806 C803 0.929 . S
S807 N808 1.613 . S
S807 N809 1.610 . S
N808 S807 1.613 . S
N808 C811 1.350 . S
N809 S807 1.610 . S
N809 C810 1.351 . S
C810 C804 1.428 . S
C810 N809 1.351 . S
C810 C811 1.434 . S
C811 C802 1.429 . S
C811 N808 1.350 . S
C811 C810 1.434 . S
C812 C813 1.369 . S
C812 C814 1.419 . S
C812 H816 0.930 . S
C813 C812 1.369 . S
C813 C822 1.429 . S
C814 C812 1.419 . S
C814 C815 1.363 . S
C814 H817 0.929 . S
C815 C814 1.363 . S
C815 C821 1.428 . S
H816 C812 0.930 . S
H817 C814 0.929 . S
S818 N819 1.613 . S
S818 N820 1.610 . S
N819 S818 1.613 . S
N819 C822 1.350 . S
N820 S818 1.610 . S
N820 C821 1.351 . S
C821 C815 1.428 . S
C821 N820 1.351 . S
C821 C822 1.434 . S
C822 C813 1.429 . S
C822 N819 1.350 . S
C822 C821 1.434 . S
C823 C824 1.369 . S
C823 C825 1.419 . S
C823 H827 0.930 . S
C824 C823 1.369 . S
C824 C833 1.429 . S
C825 C823 1.419 . S
C825 C826 1.363 . S
C825 H828 0.929 . S
C826 C825 1.363 . S
C826 C832 1.428 . S
H827 C823 0.930 . S
H828 C825 0.929 . S
S829 N830 1.613 . S
S829 N831 1.610 . S
N830 S829 1.613 . S
N830 C833 1.350 . S
N831 S829 1.610 . S
N831 C832 1.351 . S
C832 C826 1.428 . S
C832 N831 1.351 . S
C832 C833 1.434 . S
C833 C824 1.429 . S
C833 N830 1.350 . S
C833 C832 1.434 . S
C834 C835 1.369 . S
C834 C836 1.419 . S
C834 H838 0.930 . S
C835 C834 1.369 . S
C835 C844 1.429 . S
C836 C834 1.419 . S
C836 C837 1.363 . S
C836 H839 0.929 . S
C837 C836 1.363 . S
C837 C843 1.428 . S
H838 C834 0.930 . S
H839 C836 0.929 . S
S840 N841 1.613 . S
S840 N842 1.610 . S
N841 S840 1.613 . S
N841 C844 1.350 . S
N842 S840 1.610 . S
N842 C843 1.351 . S
C843 C837 1.428 . S
C843 N842 1.351 . S
C843 C844 1.434 . S
C844 C835 1.429 . S
C844 N841 1.350 . S
C844 C843 1.434 . S
C845 C846 1.369 . S
C845 C847 1.419 . S
C845 H849 0.930 . S
C846 C845 1.369 . S
C846 C855 1.429 . S
C847 C845 1.419 . S
C847 C848 1.363 . S
C847 H850 0.929 . S
C848 C847 1.363 . S
C848 C854 1.428 . S
H849 C845 0.930 . S
H850 C847 0.929 . S
S851 N852 1.613 . S
S851 N853 1.610 . S
N852 S851 1.613 . S
N852 C855 1.350 . S
N853 S851 1.610 . S
N853 C854 1.351 . S
C854 C848 1.428 . S
C854 N853 1.351 . S
C854 C855 1.434 . S
C855 C846 1.429 . S
C855 N852 1.350 . S
C855 C854 1.434 . S
C856 C857 1.369 . S
C856 C858 1.419 . S
C856 H860 0.930 . S
C857 C856 1.369 . S
C857 C866 1.429 . S
C858 C856 1.419 . S
C858 C859 1.363 . S
C858 H861 0.929 . S
C859 C858 1.363 . S
C859 C865 1.428 . S
H860 C856 0.930 . S
H861 C858 0.929 . S
S862 N863 1.613 . S
S862 N864 1.610 . S
N863 S862 1.613 . S
N863 C866 1.350 . S
N864 S862 1.610 . S
N864 C865 1.351 . S
C865 C859 1.428 . S
C865 N864 1.351 . S
C865 C866 1.434 . S
C866 C857 1.429 . S
C866 N863 1.350 . S
C866 C865 1.434 . S
C867 C868 1.369 . S
C867 C869 1.419 . S
C867 H871 0.930 . S
C868 C867 1.369 . S
C868 C877 1.429 . S
C869 C867 1.419 . S
C869 C870 1.363 . S
C869 H872 0.929 . S
C870 C869 1.363 . S
C870 C876 1.428 . S
H871 C867 0.930 . S
H872 C869 0.929 . S
S873 N874 1.613 . S
S873 N875 1.610 . S
N874 S873 1.613 . S
N874 C877 1.350 . S
N875 S873 1.610 . S
N875 C876 1.351 . S
C876 C870 1.428 . S
C876 N875 1.351 . S
C876 C877 1.434 . S
C877 C868 1.429 . S
C877 N874 1.350 . S
C877 C876 1.434 . S
C878 C879 1.369 . S
C878 C880 1.419 . S
C878 H882 0.930 . S
C879 C878 1.369 . S
C879 C888 1.429 . S
C880 C878 1.419 . S
C880 C881 1.363 . S
C880 H883 0.929 . S
C881 C880 1.363 . S
C881 C887 1.428 . S
H882 C878 0.930 . S
H883 C880 0.929 . S
S884 N885 1.613 . S
S884 N886 1.610 . S
N885 S884 1.613 . S
N885 C888 1.350 . S
N886 S884 1.610 . S
N886 C887 1.351 . S
C887 C881 1.428 . S
C887 N886 1.351 . S
C887 C888 1.434 . S
C888 C879 1.429 . S
C888 N885 1.350 . S
C888 C887 1.434 . S
C889 C890 1.369 . S
C889 C891 1.419 . S
C889 H893 0.930 . S
C890 C889 1.369 . S
C890 C899 1.429 . S
C891 C889 1.419 . S
C891 C892 1.363 . S
C891 H894 0.929 . S
C892 C891 1.363 . S
C892 C898 1.428 . S
H893 C889 0.930 . S
H894 C891 0.929 . S
S895 N896 1.613 . S
S895 N897 1.610 . S
N896 S895 1.613 . S
N896 C899 1.350 . S
N897 S895 1.610 . S
N897 C898 1.351 . S
C898 C892 1.428 . S
C898 N897 1.351 . S
C898 C899 1.434 . S
C899 C890 1.429 . S
C899 N896 1.350 . S
C899 C898 1.434 . S
C900 C901 1.369 . S
C900 C902 1.419 . S
C900 H904 0.930 . S
C901 C900 1.369 . S
C901 C910 1.429 . S
C902 C900 1.419 . S
C902 C903 1.363 . S
C902 H905 0.929 . S
C903 C902 1.363 . S
C903 C909 1.428 . S
H904 C900 0.930 . S
H905 C902 0.929 . S
S906 N907 1.613 . S
S906 N908 1.610 . S
N907 S906 1.613 . S
N907 C910 1.350 . S
N908 S906 1.610 . S
N908 C909 1.351 . S
C909 C903 1.428 . S
C909 N908 1.351 . S
C909 C910 1.434 . S
C910 C901 1.429 . S
C910 N907 1.350 . S
C910 C909 1.434 . S
C911 C912 1.369 . S
C911 C913 1.419 1_565 S
C911 H915 0.930 . S
C912 C911 1.369 . S
C912 C921 1.429 . S
C913 C911 1.419 1_545 S
C913 C914 1.363 . S
C913 H916 0.929 . S
C914 C913 1.363 . S
C914 C920 1.428 . S
H915 C911 0.930 . S
H916 C913 0.929 . S
S917 N918 1.613 1_545 S
S917 N919 1.610 . S
N918 S917 1.613 1_565 S
N918 C921 1.350 . S
N919 S917 1.610 . S
N919 C920 1.351 . S
C920 C914 1.428 . S
C920 N919 1.351 . S
C920 C921 1.434 1_545 S
C921 C912 1.429 . S
C921 N918 1.350 . S
C921 C920 1.434 1_565 S
C922 C923 1.369 . S
C922 C924 1.419 1_655 S
C922 H926 0.930 . S
C923 C922 1.369 . S
C923 C932 1.429 . S
C924 C922 1.419 1_455 S
C924 C925 1.363 . S
C924 H927 0.929 . S
C925 C924 1.363 . S
C925 C931 1.428 . S
H926 C922 0.930 . S
H927 C924 0.929 . S
S928 N929 1.621 . S
S928 N930 1.587 1_655 S
N929 S928 1.621 . S
N929 C932 1.350 . S
N930 S928 1.587 1_455 S
N930 C931 1.351 . S
C931 C925 1.428 . S
C931 N930 1.351 . S
C931 C932 1.434 1_455 S
C932 C923 1.429 . S
C932 N929 1.350 . S
C932 C931 1.434 1_655 S
C933 C934 1.369 . S
C933 C935 1.419 . S
C933 H937 0.930 . S
C934 C933 1.369 . S
C934 C943 1.429 . S
C935 C933 1.419 . S
C935 C936 1.363 . S
C935 H938 0.929 . S
C936 C935 1.363 . S
C936 C942 1.428 . S
H937 C933 0.930 . S
H938 C935 0.929 . S
S939 N940 1.613 . S
S939 N941 1.610 . S
N940 S939 1.613 . S
N940 C943 1.350 . S
N941 S939 1.610 . S
N941 C942 1.351 . S
C942 C936 1.428 . S
C942 N941 1.351 . S
C942 C943 1.434 . S
C943 C934 1.429 . S
C943 N940 1.350 . S
C943 C942 1.434 . S
C944 C945 1.369 . S
C944 C946 1.419 1_545 S
C944 H948 0.930 . S
C945 C944 1.369 . S
C945 C954 1.429 . S
C946 C944 1.419 1_565 S
C946 C947 1.363 . S
C946 H949 0.929 . S
C947 C946 1.363 . S
C947 C953 1.428 . S
H948 C944 0.930 . S
H949 C946 0.929 . S
S950 N951 1.613 1_565 S
S950 N952 1.610 . S
N951 S950 1.613 1_545 S
N951 C954 1.350 . S
N952 S950 1.610 . S
N952 C953 1.351 . S
C953 C947 1.428 . S
C953 N952 1.351 . S
C953 C954 1.434 1_565 S
C954 C945 1.429 . S
C954 N951 1.350 . S
C954 C953 1.434 1_545 S
C955 C956 1.369 . S
C955 C957 1.419 1_655 S
C955 H959 0.930 . S
C956 C955 1.369 . S
C956 C965 1.429 . S
C957 C955 1.419 1_455 S
C957 C958 1.363 . S
C957 H960 0.929 . S
C958 C957 1.363 . S
C958 C964 1.428 . S
H959 C955 0.930 . S
H960 C957 0.929 . S
S961 N962 1.613 1_455 S
S961 N963 1.610 . S
N962 S961 1.613 1_655 S
N962 C965 1.350 . S
N963 S961 1.610 . S
N963 C964 1.351 . S
C964 C958 1.428 . S
C964 N963 1.351 . S
C964 C965 1.434 1_455 S
C965 C956 1.429 . S
C965 N962 1.350 . S
C965 C964 1.434 1_655 S
C966 C967 1.369 . S
C966 C968 1.419 . S
C966 H970 0.930 . S
C967 C966 1.369 . S
C967 C976 1.429 . S
C968 C966 1.419 . S
C968 C969 1.363 . S
C968 H971 0.929 . S
C969 C968 1.363 . S
C969 C975 1.428 . S
H970 C966 0.930 . S
H971 C968 0.929 . S
S972 N973 1.613 . S
S972 N974 1.610 . S
N973 S972 1.613 . S
N973 C976 1.350 . S
N974 S972 1.610 . S
N974 C975 1.351 . S
C975 C969 1.428 . S
C975 N974 1.351 . S
C975 C976 1.434 . S
C976 C967 1.429 . S
C976 N973 1.350 . S
C976 C975 1.434 . S
C977 C978 1.369 . S
C977 C979 1.419 . S
C977 H981 0.930 . S
C978 C977 1.369 . S
C978 C987 1.429 . S
C979 C977 1.419 . S
C979 C980 1.363 . S
C979 H982 0.929 . S
C980 C979 1.363 . S
C980 C986 1.428 . S
H981 C977 0.930 . S
H982 C979 0.929 . S
S983 N984 1.613 . S
S983 N985 1.610 . S
N984 S983 1.613 . S
N984 C987 1.350 . S
N985 S983 1.610 . S
N985 C986 1.351 . S
C986 C980 1.428 . S
C986 N985 1.351 . S
C986 C987 1.434 . S
C987 C978 1.429 . S
C987 N984 1.350 . S
C987 C986 1.434 . S
C988 C989 1.369 . S
C988 C990 1.419 . S
C988 H992 0.930 . S
C989 C988 1.369 . S
C989 C998 1.429 . S
C990 C988 1.419 . S
C990 C991 1.363 . S
C990 H993 0.929 . S
C991 C990 1.363 . S
C991 C997 1.428 . S
H992 C988 0.930 . S
H993 C990 0.929 . S
S994 N995 1.613 . S
S994 N996 1.610 . S
N995 S994 1.613 . S
N995 C998 1.350 . S
N996 S994 1.610 . S
N996 C997 1.351 . S
C997 C991 1.428 . S
C997 N996 1.351 . S
C997 C998 1.434 . S
C998 C989 1.429 . S
C998 N995 1.350 . S
C998 C997 1.434 . S
C999 C1000 1.369 . S
C999 C1001 1.419 . S
C999 H1003 0.930 . S
C1000 C999 1.369 . S
C1000 C1009 1.429 . S
C1001 C999 1.419 . S
C1001 C1002 1.363 . S
C1001 H1004 0.929 . S
C1002 C1001 1.363 . S
C1002 C1008 1.428 . S
H1003 C999 0.930 . S
H1004 C1001 0.929 . S
S1005 N1006 1.613 . S
S1005 N1007 1.610 . S
N1006 S1005 1.613 . S
N1006 C1009 1.350 . S
N1007 S1005 1.610 . S
N1007 C1008 1.351 . S
C1008 C1002 1.428 . S
C1008 N1007 1.351 . S
C1008 C1009 1.434 . S
C1009 C1000 1.429 . S
C1009 N1006 1.350 . S
C1009 C1008 1.434 . S
C1010 C1011 1.369 . S
C1010 C1012 1.419 . S
C1010 H1014 0.930 . S
C1011 C1010 1.369 . S
C1011 C1020 1.429 . S
C1012 C1010 1.419 . S
C1012 C1013 1.363 . S
C1012 H1015 0.929 . S
C1013 C1012 1.363 . S
C1013 C1019 1.428 . S
H1014 C1010 0.930 . S
H1015 C1012 0.929 . S
S1016 N1017 1.613 . S
S1016 N1018 1.610 . S
N1017 S1016 1.613 . S
N1017 C1020 1.350 . S
N1018 S1016 1.610 . S
N1018 C1019 1.351 . S
C1019 C1013 1.428 . S
C1019 N1018 1.351 . S
C1019 C1020 1.434 . S
C1020 C1011 1.429 . S
C1020 N1017 1.350 . S
C1020 C1019 1.434 . S
C1021 C1022 1.369 . S
C1021 C1023 1.419 . S
C1021 H1025 0.930 . S
C1022 C1021 1.369 . S
C1022 C1031 1.429 . S
C1023 C1021 1.419 . S
C1023 C1024 1.363 . S
C1023 H1026 0.929 . S
C1024 C1023 1.363 . S
C1024 C1030 1.428 . S
H1025 C1021 0.930 . S
H1026 C1023 0.929 . S
S1027 N1028 1.613 . S
S1027 N1029 1.610 . S
N1028 S1027 1.613 . S
N1028 C1031 1.350 . S
N1029 S1027 1.610 . S
N1029 C1030 1.351 . S
C1030 C1024 1.428 . S
C1030 N1029 1.351 . S
C1030 C1031 1.434 . S
C1031 C1022 1.429 . S
C1031 N1028 1.350 . S
C1031 C1030 1.434 . S
C1032 C1033 1.369 . S
C1032 C1034 1.419 . S
C1032 H1036 0.930 . S
C1033 C1032 1.369 . S
C1033 C1042 1.429 . S
C1034 C1032 1.419 . S
C1034 C1035 1.363 . S
C1034 H1037 0.929 . S
C1035 C1034 1.363 . S
C1035 C1041 1.428 . S
H1036 C1032 0.930 . S
H1037 C1034 0.929 . S
S1038 N1039 1.613 . S
S1038 N1040 1.610 1_554 S
N1039 S1038 1.613 . S
N1039 C1042 1.350 1_554 S
N1040 S1038 1.610 1_556 S
N1040 C1041 1.351 . S
C1041 C1035 1.428 . S
C1041 N1040 1.351 . S
C1041 C1042 1.434 . S
C1042 C1033 1.429 . S
C1042 N1039 1.350 1_556 S
C1042 C1041 1.434 . S
C1043 C1044 1.369 . S
C1043 C1045 1.419 . S
C1043 H1047 0.930 . S
C1044 C1043 1.369 . S
C1044 C1053 1.429 . S
C1045 C1043 1.419 . S
C1045 C1046 1.363 . S
C1045 H1048 0.929 . S
C1046 C1045 1.363 . S
C1046 C1052 1.428 . S
H1047 C1043 0.930 . S
H1048 C1045 0.929 . S
S1049 N1050 1.613 . S
S1049 N1051 1.610 . S
N1050 S1049 1.613 . S
N1050 C1053 1.350 1_554 S
N1051 S1049 1.610 . S
N1051 C1052 1.351 1_554 S
C1052 C1046 1.428 . S
C1052 N1051 1.351 1_556 S
C1052 C1053 1.434 . S
C1053 C1044 1.429 . S
C1053 N1050 1.350 1_556 S
C1053 C1052 1.434 . S
C1054 C1055 1.369 . S
C1054 C1056 1.419 . S
C1054 H1058 0.930 . S
C1055 C1054 1.369 . S
C1055 C1064 1.429 . S
C1056 C1054 1.419 . S
C1056 C1057 1.363 . S
C1056 H1059 0.929 1_556 S
C1057 C1056 1.363 . S
C1057 C1063 1.428 . S
H1058 C1054 0.930 . S
H1059 C1056 0.929 1_554 S
S1060 N1061 1.613 . S
S1060 N1062 1.610 . S
N1061 S1060 1.613 . S
N1061 C1064 1.350 . S
N1062 S1060 1.610 . S
N1062 C1063 1.351 . S
C1063 C1057 1.428 . S
C1063 N1062 1.351 . S
C1063 C1064 1.434 . S
C1064 C1055 1.429 . S
C1064 N1061 1.350 . S
C1064 C1063 1.434 . S
C1065 C1066 1.369 . S
C1065 C1067 1.419 . S
C1065 H1069 0.930 . S
C1066 C1065 1.369 . S
C1066 C1075 1.429 . S
C1067 C1065 1.419 . S
C1067 C1068 1.363 . S
C1067 H1070 0.929 . S
C1068 C1067 1.363 . S
C1068 C1074 1.428 . S
H1069 C1065 0.930 . S
H1070 C1067 0.929 . S
S1071 N1072 1.613 . S
S1071 N1073 1.610 . S
N1072 S1071 1.613 . S
N1072 C1075 1.350 . S
N1073 S1071 1.610 . S
N1073 C1074 1.351 . S
C1074 C1068 1.428 . S
C1074 N1073 1.351 . S
C1074 C1075 1.434 . S
C1075 C1066 1.429 . S
C1075 N1072 1.350 . S
C1075 C1074 1.434 . S
C1076 C1077 1.369 . S
C1076 C1078 1.419 . S
C1076 H1080 0.930 . S
C1077 C1076 1.369 . S
C1077 C1086 1.429 . S
C1078 C1076 1.419 . S
C1078 C1079 1.363 . S
C1078 H1081 0.929 . S
C1079 C1078 1.363 . S
C1079 C1085 1.428 . S
H1080 C1076 0.930 . S
H1081 C1078 0.929 . S
S1082 N1083 1.613 . S
S1082 N1084 1.610 . S
N1083 S1082 1.613 . S
N1083 C1086 1.350 . S
N1084 S1082 1.610 . S
N1084 C1085 1.351 . S
C1085 C1079 1.428 . S
C1085 N1084 1.351 . S
C1085 C1086 1.434 . S
C1086 C1077 1.429 . S
C1086 N1083 1.350 . S
C1086 C1085 1.434 . S
C1087 C1088 1.369 . S
C1087 C1089 1.419 . S
C1087 H1091 0.930 . S
C1088 C1087 1.369 . S
C1088 C1097 1.429 . S
C1089 C1087 1.419 . S
C1089 C1090 1.363 . S
C1089 H1092 0.929 . S
C1090 C1089 1.363 . S
C1090 C1096 1.428 . S
H1091 C1087 0.930 . S
H1092 C1089 0.929 . S
S1093 N1094 1.613 . S
S1093 N1095 1.610 . S
N1094 S1093 1.613 . S
N1094 C1097 1.350 . S
N1095 S1093 1.610 . S
N1095 C1096 1.351 . S
C1096 C1090 1.428 . S
C1096 N1095 1.351 . S
C1096 C1097 1.434 . S
C1097 C1088 1.429 . S
C1097 N1094 1.350 . S
C1097 C1096 1.434 . S
C1098 C1099 1.369 . S
C1098 C1100 1.419 . S
C1098 H1102 0.930 . S
C1099 C1098 1.369 . S
C1099 C1108 1.429 . S
C1100 C1098 1.419 . S
C1100 C1101 1.363 . S
C1100 H1103 0.929 . S
C1101 C1100 1.363 . S
C1101 C1107 1.428 . S
H1102 C1098 0.930 . S
H1103 C1100 0.929 . S
S1104 N1105 1.613 . S
S1104 N1106 1.610 . S
N1105 S1104 1.613 . S
N1105 C1108 1.350 . S
N1106 S1104 1.610 . S
N1106 C1107 1.351 . S
C1107 C1101 1.428 . S
C1107 N1106 1.351 . S
C1107 C1108 1.434 . S
C1108 C1099 1.429 . S
C1108 N1105 1.350 . S
C1108 C1107 1.434 . S
C1109 C1110 1.369 . S
C1109 C1111 1.419 . S
C1109 H1113 0.930 . S
C1110 C1109 1.369 . S
C1110 C1119 1.429 . S
C1111 C1109 1.419 . S
C1111 C1112 1.363 . S
C1111 H1114 0.929 . S
C1112 C1111 1.363 . S
C1112 C1118 1.428 . S
H1113 C1109 0.930 . S
H1114 C1111 0.929 . S
S1115 N1116 1.613 . S
S1115 N1117 1.610 . S
N1116 S1115 1.613 . S
N1116 C1119 1.350 . S
N1117 S1115 1.610 . S
N1117 C1118 1.351 . S
C1118 C1112 1.428 . S
C1118 N1117 1.351 . S
C1118 C1119 1.434 . S
C1119 C1110 1.429 . S
C1119 N1116 1.350 . S
C1119 C1118 1.434 . S
C1120 C1121 1.369 . S
C1120 C1122 1.419 . S
C1120 H1124 0.930 . S
C1121 C1120 1.369 . S
C1121 C1130 1.429 . S
C1122 C1120 1.419 . S
C1122 C1123 1.363 . S
C1122 H1125 0.929 . S
C1123 C1122 1.363 . S
C1123 C1129 1.428 . S
H1124 C1120 0.930 . S
H1125 C1122 0.929 . S
S1126 N1127 1.613 . S
S1126 N1128 1.610 . S
N1127 S1126 1.613 . S
N1127 C1130 1.350 . S
N1128 S1126 1.610 . S
N1128 C1129 1.351 . S
C1129 C1123 1.428 . S
C1129 N1128 1.351 . S
C1129 C1130 1.434 . S
C1130 C1121 1.429 . S
C1130 N1127 1.350 . S
C1130 C1129 1.434 . S
C1131 C1132 1.369 . S
C1131 C1133 1.419 . S
C1131 H1135 0.930 . S
C1132 C1131 1.369 . S
C1132 C1141 1.429 . S
C1133 C1131 1.419 . S
C1133 C1134 1.363 . S
C1133 H1136 0.929 . S
C1134 C1133 1.363 . S
C1134 C1140 1.428 . S
H1135 C1131 0.930 . S
H1136 C1133 0.929 . S
S1137 N1138 1.613 . S
S1137 N1139 1.610 . S
N1138 S1137 1.613 . S
N1138 C1141 1.350 . S
N1139 S1137 1.610 . S
N1139 C1140 1.351 . S
C1140 C1134 1.428 . S
C1140 N1139 1.351 . S
C1140 C1141 1.434 . S
C1141 C1132 1.429 . S
C1141 N1138 1.350 . S
C1141 C1140 1.434 . S
C1142 C1143 1.369 . S
C1142 C1144 1.419 . S
C1142 H1146 0.930 . S
C1143 C1142 1.369 . S
C1143 C1152 1.429 . S
C1144 C1142 1.419 . S
C1144 C1145 1.363 . S
C1144 H1147 0.929 . S
C1145 C1144 1.363 . S
C1145 C1151 1.428 . S
H1146 C1142 0.930 . S
H1147 C1144 0.929 . S
S1148 N1149 1.613 . S
S1148 N1150 1.610 . S
N1149 S1148 1.613 . S
N1149 C1152 1.350 . S
N1150 S1148 1.610 . S
N1150 C1151 1.351 . S
C1151 C1145 1.428 . S
C1151 N1150 1.351 . S
C1151 C1152 1.434 . S
C1152 C1143 1.429 . S
C1152 N1149 1.350 . S
C1152 C1151 1.434 . S
C1153 C1154 1.369 . S
C1153 C1155 1.419 . S
C1153 H1157 0.930 . S
C1154 C1153 1.369 . S
C1154 C1163 1.429 . S
C1155 C1153 1.419 . S
C1155 C1156 1.363 . S
C1155 H1158 0.929 . S
C1156 C1155 1.363 . S
C1156 C1162 1.428 . S
H1157 C1153 0.930 . S
H1158 C1155 0.929 . S
S1159 N1160 1.613 . S
S1159 N1161 1.610 . S
N1160 S1159 1.613 . S
N1160 C1163 1.350 . S
N1161 S1159 1.610 . S
N1161 C1162 1.351 . S
C1162 C1156 1.428 . S
C1162 N1161 1.351 . S
C1162 C1163 1.434 . S
C1163 C1154 1.429 . S
C1163 N1160 1.350 . S
C1163 C1162 1.434 . S
C1164 C1165 1.369 . S
C1164 C1166 1.419 . S
C1164 H1168 0.930 . S
C1165 C1164 1.369 . S
C1165 C1174 1.429 . S
C1166 C1164 1.419 . S
C1166 C1167 1.363 . S
C1166 H1169 0.929 . S
C1167 C1166 1.363 . S
C1167 C1173 1.428 . S
H1168 C1164 0.930 . S
H1169 C1166 0.929 . S
S1170 N1171 1.613 . S
S1170 N1172 1.610 . S
N1171 S1170 1.613 . S
N1171 C1174 1.350 . S
N1172 S1170 1.610 . S
N1172 C1173 1.351 . S
C1173 C1167 1.428 . S
C1173 N1172 1.351 . S
C1173 C1174 1.434 . S
C1174 C1165 1.429 . S
C1174 N1171 1.350 . S
C1174 C1173 1.434 . S
C1175 C1176 1.369 . S
C1175 C1177 1.419 . S
C1175 H1179 0.930 . S
C1176 C1175 1.369 . S
C1176 C1185 1.429 . S
C1177 C1175 1.419 . S
C1177 C1178 1.363 . S
C1177 H1180 0.929 . S
C1178 C1177 1.363 . S
C1178 C1184 1.428 . S
H1179 C1175 0.930 . S
H1180 C1177 0.929 . S
S1181 N1182 1.613 . S
S1181 N1183 1.610 . S
N1182 S1181 1.613 . S
N1182 C1185 1.350 . S
N1183 S1181 1.610 . S
N1183 C1184 1.351 . S
C1184 C1178 1.428 . S
C1184 N1183 1.351 . S
C1184 C1185 1.434 . S
C1185 C1176 1.429 . S
C1185 N1182 1.350 . S
C1185 C1184 1.434 . S
C1186 C1187 1.369 . S
C1186 C1188 1.419 . S
C1186 H1190 0.930 . S
C1187 C1186 1.369 . S
C1187 C1196 1.429 . S
C1188 C1186 1.419 . S
C1188 C1189 1.363 . S
C1188 H1191 0.929 . S
C1189 C1188 1.363 . S
C1189 C1195 1.428 . S
H1190 C1186 0.930 . S
H1191 C1188 0.929 . S
S1192 N1193 1.613 . S
S1192 N1194 1.610 . S
N1193 S1192 1.613 . S
N1193 C1196 1.350 . S
N1194 S1192 1.610 . S
N1194 C1195 1.351 . S
C1195 C1189 1.428 . S
C1195 N1194 1.351 . S
C1195 C1196 1.434 . S
C1196 C1187 1.429 . S
C1196 N1193 1.350 . S
C1196 C1195 1.434 . S
C1197 C1198 1.369 . S
C1197 C1199 1.419 . S
C1197 H1201 0.930 . S
C1198 C1197 1.369 . S
C1198 C1207 1.429 . S
C1199 C1197 1.419 . S
C1199 C1200 1.363 . S
C1199 H1202 0.929 . S
C1200 C1199 1.363 . S
C1200 C1206 1.428 . S
H1201 C1197 0.930 . S
H1202 C1199 0.929 . S
S1203 N1204 1.613 . S
S1203 N1205 1.610 . S
N1204 S1203 1.613 . S
N1204 C1207 1.350 . S
N1205 S1203 1.610 . S
N1205 C1206 1.351 . S
C1206 C1200 1.428 . S
C1206 N1205 1.351 . S
C1206 C1207 1.434 . S
C1207 C1198 1.429 . S
C1207 N1204 1.350 . S
C1207 C1206 1.434 . S
C1208 C1209 1.369 . S
C1208 C1210 1.419 . S
C1208 H1212 0.930 . S
C1209 C1208 1.369 . S
C1209 C1218 1.429 . S
C1210 C1208 1.419 . S
C1210 C1211 1.363 . S
C1210 H1213 0.929 . S
C1211 C1210 1.363 . S
C1211 C1217 1.428 . S
H1212 C1208 0.930 . S
H1213 C1210 0.929 . S
S1214 N1215 1.613 . S
S1214 N1216 1.610 . S
N1215 S1214 1.613 . S
N1215 C1218 1.350 . S
N1216 S1214 1.610 . S
N1216 C1217 1.351 . S
C1217 C1211 1.428 . S
C1217 N1216 1.351 . S
C1217 C1218 1.434 . S
C1218 C1209 1.429 . S
C1218 N1215 1.350 . S
C1218 C1217 1.434 . S
C1219 C1220 1.369 . S
C1219 C1221 1.419 . S
C1219 H1223 0.930 . S
C1220 C1219 1.369 . S
C1220 C1229 1.429 . S
C1221 C1219 1.419 . S
C1221 C1222 1.363 . S
C1221 H1224 0.929 . S
C1222 C1221 1.363 . S
C1222 C1228 1.428 . S
H1223 C1219 0.930 . S
H1224 C1221 0.929 . S
S1225 N1226 1.613 . S
S1225 N1227 1.610 . S
N1226 S1225 1.613 . S
N1226 C1229 1.350 . S
N1227 S1225 1.610 . S
N1227 C1228 1.351 . S
C1228 C1222 1.428 . S
C1228 N1227 1.351 . S
C1228 C1229 1.434 . S
C1229 C1220 1.429 . S
C1229 N1226 1.350 . S
C1229 C1228 1.434 . S
C1230 C1231 1.369 . S
C1230 C1232 1.419 1_455 S
C1230 H1234 0.930 . S
C1231 C1230 1.369 . S
C1231 C1240 1.429 . S
C1232 C1230 1.419 1_655 S
C1232 C1233 1.363 . S
C1232 H1235 0.929 . S
C1233 C1232 1.363 . S
C1233 C1239 1.428 . S
H1234 C1230 0.930 . S
H1235 C1232 0.929 . S
S1236 N1237 1.613 . S
S1236 N1238 1.610 1_455 S
N1237 S1236 1.613 . S
N1237 C1240 1.350 . S
N1238 S1236 1.610 1_655 S
N1238 C1239 1.351 . S
C1239 C1233 1.428 . S
C1239 N1238 1.351 . S
C1239 C1240 1.434 1_655 S
C1240 C1231 1.429 . S
C1240 N1237 1.350 . S
C1240 C1239 1.434 1_455 S
C1241 C1242 1.369 . S
C1241 C1243 1.419 . S
C1241 H1245 0.930 . S
C1242 C1241 1.369 . S
C1242 C1251 1.429 . S
C1243 C1241 1.419 . S
C1243 C1244 1.363 . S
C1243 H1246 0.929 . S
C1244 C1243 1.363 . S
C1244 C1250 1.428 . S
H1245 C1241 0.930 . S
H1246 C1243 0.929 . S
S1247 N1248 1.613 . S
S1247 N1249 1.610 . S
N1248 S1247 1.613 . S
N1248 C1251 1.350 . S
N1249 S1247 1.610 . S
N1249 C1250 1.351 . S
C1250 C1244 1.428 . S
C1250 N1249 1.351 . S
C1250 C1251 1.434 . S
C1251 C1242 1.429 . S
C1251 N1248 1.350 . S
C1251 C1250 1.434 . S
C1252 C1253 1.369 . S
C1252 C1254 1.419 1_545 S
C1252 H1256 0.930 . S
C1253 C1252 1.369 . S
C1253 C1262 1.429 . S
C1254 C1252 1.419 1_565 S
C1254 C1255 1.363 . S
C1254 H1257 0.929 . S
C1255 C1254 1.363 . S
C1255 C1261 1.428 . S
H1256 C1252 0.930 . S
H1257 C1254 0.929 . S
S1258 N1259 1.613 . S
S1258 N1260 1.610 1_545 S
N1259 S1258 1.613 . S
N1259 C1262 1.350 . S
N1260 S1258 1.610 1_565 S
N1260 C1261 1.351 . S
C1261 C1255 1.428 . S
C1261 N1260 1.351 . S
C1261 C1262 1.434 1_565 S
C1262 C1253 1.429 . S
C1262 N1259 1.350 . S
C1262 C1261 1.434 1_545 S
C1263 C1264 1.369 . S
C1263 C1265 1.419 1_545 S
C1263 H1267 0.930 . S
C1264 C1263 1.369 . S
C1264 C1273 1.429 1_554 S
C1265 C1263 1.419 1_565 S
C1265 C1266 1.363 1_554 S
C1265 H1268 0.929 . S
C1266 C1265 1.363 1_556 S
C1266 C1272 1.428 . S
H1267 C1263 0.930 . S
H1268 C1265 0.929 . S
S1269 N1270 1.613 . S
S1269 N1271 1.610 1_545 S
N1270 S1269 1.613 . S
N1270 C1273 1.350 . S
N1271 S1269 1.610 1_565 S
N1271 C1272 1.351 . S
C1272 C1266 1.428 . S
C1272 N1271 1.351 . S
C1272 C1273 1.434 1_565 S
C1273 C1264 1.429 1_556 S
C1273 N1270 1.350 . S
C1273 C1272 1.434 1_545 S
C1274 C1275 1.369 . S
C1274 C1276 1.419 1_654 S
C1274 H1278 0.930 . S
C1275 C1274 1.369 . S
C1275 C1284 1.429 . S
C1276 C1274 1.419 1_456 S
C1276 C1277 1.363 . S
C1276 H1279 0.929 . S
C1277 C1276 1.363 . S
C1277 C1283 1.428 . S
H1278 C1274 0.930 . S
H1279 C1276 0.929 . S
S1280 N1281 1.613 1_556 S
S1280 N1282 1.610 1_655 S
N1281 S1280 1.613 1_554 S
N1281 C1284 1.350 . S
N1282 S1280 1.610 1_455 S
N1282 C1283 1.351 . S
C1283 C1277 1.428 . S
C1283 N1282 1.351 . S
C1283 C1284 1.434 1_456 S
C1284 C1275 1.429 . S
C1284 N1281 1.350 . S
C1284 C1283 1.434 1_654 S
C1285 C1286 1.369 . S
C1285 C1287 1.419 . S
C1285 H1289 0.930 . S
C1286 C1285 1.369 . S
C1286 C1295 1.429 1_554 S
C1287 C1285 1.419 . S
C1287 C1288 1.363 1_554 S
C1287 H1290 0.929 . S
C1288 C1287 1.363 1_556 S
C1288 C1294 1.428 . S
H1289 C1285 0.930 . S
H1290 C1287 0.929 . S
S1291 N1292 1.613 . S
S1291 N1293 1.610 . S
N1292 S1291 1.613 . S
N1292 C1295 1.350 . S
N1293 S1291 1.610 . S
N1293 C1294 1.351 . S
C1294 C1288 1.428 . S
C1294 N1293 1.351 . S
C1294 C1295 1.434 . S
C1295 C1286 1.429 1_556 S
C1295 N1292 1.350 . S
C1295 C1294 1.434 . S
C505 C149 1.304 . S
C507 C0 1.315 . S
C516 C163 1.297 . S
C518 C14 1.311 . S
C527 C28 1.311 . S
C529 C135 1.296 . S
C538 C42 1.318 . S
C540 C121 1.301 . S
C549 C56 1.310 . S
C551 C93 1.297 . S
C560 C107 1.305 . S
C562 C70 1.314 . S
C571 C65 1.294 . S
C573 C84 1.316 . S
C582 C79 1.297 . S
C584 C98 1.311 . S
C593 C112 1.310 . S
C595 C51 1.297 . S
C604 C37 1.304 . S
C606 C126 1.315 . S
C615 C140 1.318 . S
C617 C9 1.300 . S
C626 C154 1.309 . S
C628 C23 1.298 . S
C637 C317 1.295 . S
C639 C168 1.316 . S
C648 C331 1.301 . S
C650 C182 1.317 . S
C659 C196 1.309 . S
C661 C303 1.302 . S
C670 C210 1.318 . S
C672 C289 1.297 1_556 S
C681 C224 1.313 . S
C683 C261 1.304 1_556 S
C692 C238 1.309 . S
C694 C275 1.302 1_556 S
C703 C233 1.298 . S
C705 C252 1.317 . S
C714 C247 1.294 . S
C716 C266 1.313 . S
C725 C219 1.302 . S
C727 C280 1.316 . S
C736 C205 1.303 . S
C738 C294 1.316 . S
C747 C177 1.304 . S
C749 C308 1.314 . S
C758 C191 1.301 . S
C760 C322 1.310 . S
C769 C336 1.318 . S
C771 C485 1.299 . S
C780 C499 1.304 . S
C782 C350 1.315 . S
C791 C471 1.299 . S
C793 C364 1.310 . S
C802 C378 1.310 . S
C804 C457 1.297 . S
C813 C392 1.317 . S
C815 C429 1.296 . S
C824 C406 1.311 . S
C826 C443 1.303 . S
C835 C401 1.301 . S
C837 C420 1.310 . S
C846 C415 1.305 . S
C848 C434 1.314 . S
C857 C387 1.301 . S
C859 C448 1.310 . S
C868 C462 1.318 . S
C870 C373 1.300 1_554 S
C879 C345 1.305 1_554 S
C881 C476 1.312 . S
C890 C490 1.315 . S
C892 C359 1.295 1_554 S
C901 C53 1.496 . S
C903 C11 1.498 . S
C912 C67 1.499 . S
C914 C25 1.496 . S
C923 C39 1.498 . S
C925 C81 1.497 . S
C934 C137 1.496 . S
C936 C95 1.496 . S
C945 C151 1.497 . S
C947 C109 1.495 . S
C956 C165 1.496 . S
C958 C123 1.495 . S
C967 C221 1.494 . S
C969 C179 1.497 . S
C978 C235 1.495 . S
C980 C193 1.498 . S
C989 C207 1.497 . S
C991 C249 1.495 . S
C1000 C263 1.498 . S
C1002 C305 1.497 . S
C1011 C319 1.496 . S
C1013 C277 1.495 . S
C1022 C291 1.497 . S
C1024 C333 1.495 . S
C1033 C389 1.496 . S
C1035 C347 1.495 . S
C1044 C403 1.498 . S
C1046 C361 1.495 . S
C1055 C375 1.498 . S
C1057 C417 1.495 . S
C1066 C431 1.495 . S
C1068 C473 1.496 . S
C1077 C445 1.495 . S
C1079 C487 1.498 . S
C1088 C459 1.494 . S
C1090 C501 1.497 . S
C1099 C5 1.504 . S
C1101 C257 1.502 . S
C1110 C271 1.504 . S
C1112 C19 1.502 . S
C1121 C285 1.501 . S
C1123 C33 1.504 . S
C1132 C467 1.505 . S
C1134 C47 1.502 . S
C1143 C481 1.505 . S
C1145 C61 1.501 . S
C1154 C495 1.502 . S
C1156 C75 1.504 . S
C1165 C89 1.505 . S
C1167 C341 1.501 . S
C1176 C355 1.504 . S
C1178 C103 1.502 . S
C1187 C369 1.502 . S
C1189 C117 1.504 . S
C1198 C131 1.501 . S
C1200 C215 1.505 . S
C1209 C145 1.505 . S
C1211 C229 1.501 . S
C1220 C159 1.501 . S
C1222 C243 1.504 . S
C1231 C425 1.501 . S
C1233 C173 1.504 . S
C1242 C439 1.502 . S
C1244 C187 1.504 . S
C1253 C201 1.501 . S
C1255 C453 1.504 . S
C1264 C299 1.502 . S
C1266 C383 1.504 . S
C1275 C313 1.501 . S
C1277 C397 1.504 . S
C1286 C327 1.504 . S
C1288 C411 1.502 . S
