# Generated by pormake.
# Topology uos, (4)-cn, num edge types: 1
# Building blocks:
#     Node 0, Type 0, BuildingBlock: QUQFOY_clean_sbu_1, # of connection points: 4
#     Node 1, Type 0, BuildingBlock: QUQFOY_clean_sbu_1, # of connection points: 4
#     Node 2, Type 0, BuildingBlock: QUQFOY_clean_sbu_1, # of connection points: 4
#     Node 3, Type 0, BuildingBlock: QUQFOY_clean_sbu_1, # of connection points: 4
#     Node 4, Type 0, BuildingBlock: QUQFOY_clean_sbu_1, # of connection points: 4
#     Node 5, Type 0, BuildingBlock: QUQFOY_clean_sbu_1, # of connection points: 4
#     Node 6, Type 0, BuildingBlock: QUQFOY_clean_sbu_1, # of connection points: 4
#     Node 7, Type 0, BuildingBlock: QUQFOY_clean_sbu_1, # of connection points: 4
#     Node 8, Type 0, BuildingBlock: QUQFOY_clean_sbu_1, # of connection points: 4
#     Node 9, Type 0, BuildingBlock: QUQFOY_clean_sbu_1, # of connection points: 4
#     Node 10, Type 0, BuildingBlock: QUQFOY_clean_sbu_1, # of connection points: 4
#     Node 11, Type 0, BuildingBlock: QUQFOY_clean_sbu_1, # of connection points: 4
#     Node 12, Type 0, BuildingBlock: QUQFOY_clean_sbu_1, # of connection points: 4
#     Node 13, Type 0, BuildingBlock: QUQFOY_clean_sbu_1, # of connection points: 4
#     Node 14, Type 0, BuildingBlock: QUQFOY_clean_sbu_1, # of connection points: 4
#     Node 15, Type 0, BuildingBlock: QUQFOY_clean_sbu_1, # of connection points: 4
#     Node 16, Type 0, BuildingBlock: QUQFOY_clean_sbu_1, # of connection points: 4
#     Node 17, Type 0, BuildingBlock: QUQFOY_clean_sbu_1, # of connection points: 4
#     Node 18, Type 0, BuildingBlock: QUQFOY_clean_sbu_1, # of connection points: 4
#     Node 19, Type 0, BuildingBlock: QUQFOY_clean_sbu_1, # of connection points: 4
#     Node 20, Type 0, BuildingBlock: QUQFOY_clean_sbu_1, # of connection points: 4
#     Node 21, Type 0, BuildingBlock: QUQFOY_clean_sbu_1, # of connection points: 4
#     Node 22, Type 0, BuildingBlock: QUQFOY_clean_sbu_1, # of connection points: 4
#     Node 23, Type 0, BuildingBlock: QUQFOY_clean_sbu_1, # of connection points: 4
#     Node 24, Type 0, BuildingBlock: QUQFOY_clean_sbu_1, # of connection points: 4
#     Node 25, Type 0, BuildingBlock: QUQFOY_clean_sbu_1, # of connection points: 4
#     Node 26, Type 0, BuildingBlock: QUQFOY_clean_sbu_1, # of connection points: 4
#     Node 27, Type 0, BuildingBlock: QUQFOY_clean_sbu_1, # of connection points: 4
#     Node 28, Type 0, BuildingBlock: QUQFOY_clean_sbu_1, # of connection points: 4
#     Node 29, Type 0, BuildingBlock: QUQFOY_clean_sbu_1, # of connection points: 4
#     Node 30, Type 0, BuildingBlock: QUQFOY_clean_sbu_1, # of connection points: 4
#     Node 31, Type 0, BuildingBlock: QUQFOY_clean_sbu_1, # of connection points: 4
#     Edge 32, Type (0, 0), BuildingBlock: AJUNOK_clean_linker_0, # of connection points: 2
#     Edge 33, Type (0, 0), BuildingBlock: AJUNOK_clean_linker_0, # of connection points: 2
#     Edge 34, Type (0, 0), BuildingBlock: AJUNOK_clean_linker_0, # of connection points: 2
#     Edge 35, Type (0, 0), BuildingBlock: AJUNOK_clean_linker_0, # of connection points: 2
#     Edge 36, Type (0, 0), BuildingBlock: AJUNOK_clean_linker_0, # of connection points: 2
#     Edge 37, Type (0, 0), BuildingBlock: AJUNOK_clean_linker_0, # of connection points: 2
#     Edge 38, Type (0, 0), BuildingBlock: AJUNOK_clean_linker_0, # of connection points: 2
#     Edge 39, Type (0, 0), BuildingBlock: AJUNOK_clean_linker_0, # of connection points: 2
#     Edge 40, Type (0, 0), BuildingBlock: AJUNOK_clean_linker_0, # of connection points: 2
#     Edge 41, Type (0, 0), BuildingBlock: AJUNOK_clean_linker_0, # of connection points: 2
#     Edge 42, Type (0, 0), BuildingBlock: AJUNOK_clean_linker_0, # of connection points: 2
#     Edge 43, Type (0, 0), BuildingBlock: AJUNOK_clean_linker_0, # of connection points: 2
#     Edge 44, Type (0, 0), BuildingBlock: AJUNOK_clean_linker_0, # of connection points: 2
#     Edge 45, Type (0, 0), BuildingBlock: AJUNOK_clean_linker_0, # of connection points: 2
#     Edge 46, Type (0, 0), BuildingBlock: AJUNOK_clean_linker_0, # of connection points: 2
#     Edge 47, Type (0, 0), BuildingBlock: AJUNOK_clean_linker_0, # of connection points: 2
#     Edge 48, Type (0, 0), BuildingBlock: AJUNOK_clean_linker_0, # of connection points: 2
#     Edge 49, Type (0, 0), BuildingBlock: AJUNOK_clean_linker_0, # of connection points: 2
#     Edge 50, Type (0, 0), BuildingBlock: AJUNOK_clean_linker_0, # of connection points: 2
#     Edge 51, Type (0, 0), BuildingBlock: AJUNOK_clean_linker_0, # of connection points: 2
#     Edge 52, Type (0, 0), BuildingBlock: AJUNOK_clean_linker_0, # of connection points: 2
#     Edge 53, Type (0, 0), BuildingBlock: AJUNOK_clean_linker_0, # of connection points: 2
#     Edge 54, Type (0, 0), BuildingBlock: AJUNOK_clean_linker_0, # of connection points: 2
#     Edge 55, Type (0, 0), BuildingBlock: AJUNOK_clean_linker_0, # of connection points: 2
#     Edge 56, Type (0, 0), BuildingBlock: AJUNOK_clean_linker_0, # of connection points: 2
#     Edge 57, Type (0, 0), BuildingBlock: AJUNOK_clean_linker_0, # of connection points: 2
#     Edge 58, Type (0, 0), BuildingBlock: AJUNOK_clean_linker_0, # of connection points: 2
#     Edge 59, Type (0, 0), BuildingBlock: AJUNOK_clean_linker_0, # of connection points: 2
#     Edge 60, Type (0, 0), BuildingBlock: AJUNOK_clean_linker_0, # of connection points: 2
#     Edge 61, Type (0, 0), BuildingBlock: AJUNOK_clean_linker_0, # of connection points: 2
#     Edge 62, Type (0, 0), BuildingBlock: AJUNOK_clean_linker_0, # of connection points: 2
#     Edge 63, Type (0, 0), BuildingBlock: AJUNOK_clean_linker_0, # of connection points: 2
#     Edge 64, Type (0, 0), BuildingBlock: AJUNOK_clean_linker_0, # of connection points: 2
#     Edge 65, Type (0, 0), BuildingBlock: AJUNOK_clean_linker_0, # of connection points: 2
#     Edge 66, Type (0, 0), BuildingBlock: AJUNOK_clean_linker_0, # of connection points: 2
#     Edge 67, Type (0, 0), BuildingBlock: AJUNOK_clean_linker_0, # of connection points: 2
#     Edge 68, Type (0, 0), BuildingBlock: AJUNOK_clean_linker_0, # of connection points: 2
#     Edge 69, Type (0, 0), BuildingBlock: AJUNOK_clean_linker_0, # of connection points: 2
#     Edge 70, Type (0, 0), BuildingBlock: AJUNOK_clean_linker_0, # of connection points: 2
#     Edge 71, Type (0, 0), BuildingBlock: AJUNOK_clean_linker_0, # of connection points: 2
#     Edge 72, Type (0, 0), BuildingBlock: AJUNOK_clean_linker_0, # of connection points: 2
#     Edge 73, Type (0, 0), BuildingBlock: AJUNOK_clean_linker_0, # of connection points: 2
#     Edge 74, Type (0, 0), BuildingBlock: AJUNOK_clean_linker_0, # of connection points: 2
#     Edge 75, Type (0, 0), BuildingBlock: AJUNOK_clean_linker_0, # of connection points: 2
#     Edge 76, Type (0, 0), BuildingBlock: AJUNOK_clean_linker_0, # of connection points: 2
#     Edge 77, Type (0, 0), BuildingBlock: AJUNOK_clean_linker_0, # of connection points: 2
#     Edge 78, Type (0, 0), BuildingBlock: AJUNOK_clean_linker_0, # of connection points: 2
#     Edge 79, Type (0, 0), BuildingBlock: AJUNOK_clean_linker_0, # of connection points: 2
#     Edge 80, Type (0, 0), BuildingBlock: AJUNOK_clean_linker_0, # of connection points: 2
#     Edge 81, Type (0, 0), BuildingBlock: AJUNOK_clean_linker_0, # of connection points: 2
#     Edge 82, Type (0, 0), BuildingBlock: AJUNOK_clean_linker_0, # of connection points: 2
#     Edge 83, Type (0, 0), BuildingBlock: AJUNOK_clean_linker_0, # of connection points: 2
#     Edge 84, Type (0, 0), BuildingBlock: AJUNOK_clean_linker_0, # of connection points: 2
#     Edge 85, Type (0, 0), BuildingBlock: AJUNOK_clean_linker_0, # of connection points: 2
#     Edge 86, Type (0, 0), BuildingBlock: AJUNOK_clean_linker_0, # of connection points: 2
#     Edge 87, Type (0, 0), BuildingBlock: AJUNOK_clean_linker_0, # of connection points: 2
#     Edge 88, Type (0, 0), BuildingBlock: AJUNOK_clean_linker_0, # of connection points: 2
#     Edge 89, Type (0, 0), BuildingBlock: AJUNOK_clean_linker_0, # of connection points: 2
#     Edge 90, Type (0, 0), BuildingBlock: AJUNOK_clean_linker_0, # of connection points: 2
#     Edge 91, Type (0, 0), BuildingBlock: AJUNOK_clean_linker_0, # of connection points: 2
#     Edge 92, Type (0, 0), BuildingBlock: AJUNOK_clean_linker_0, # of connection points: 2
#     Edge 93, Type (0, 0), BuildingBlock: AJUNOK_clean_linker_0, # of connection points: 2
#     Edge 94, Type (0, 0), BuildingBlock: AJUNOK_clean_linker_0, # of connection points: 2
#     Edge 95, Type (0, 0), BuildingBlock: AJUNOK_clean_linker_0, # of connection points: 2
# Relax obj value: 0.058
# Max RMSD: 0.127
# Mean RMSD: 0.127
data_MOF--net-uos--node1-QUQFOY_clean_sbu_1--edge1-AJUNOK_clean_linker_0
_symmetry_space_group_name_H-M    P1
_symmetry_Int_Tables_number       1
_symmetry_cell_setting            triclinic
loop_
_symmetry_equiv_pos_as_xyz
'x, y, z'
_cell_length_a     67.735542
_cell_length_b     67.729777
_cell_length_c     18.104685
_cell_angle_alpha  89.999978
_cell_angle_beta   90.020785
_cell_angle_gamma 90.005794
loop_
_atom_site_label
_atom_site_type_symbol
_atom_site_fract_x
_atom_site_fract_y
_atom_site_fract_z
_atom_type_partial_charge
O0 O 0.15949 0.12583 0.22198 0.0
Cd1 Cd 0.17523 0.13292 0.12914 0.0
Cd2 Cd 0.16931 0.1713 0.18883 0.0
O3 O 0.1495 0.15575 0.2529 0.0
O4 O 0.17254 0.10986 0.06046 0.0
O5 O 0.15999 0.1393 0.03641 0.0
C6 C 0.16208 0.12099 0.01777 0.0
C7 C 0.16283 0.20537 0.17486 0.0
C8 C 0.14937 0.13719 0.26294 0.0
C9 C 0.21074 0.15253 0.18957 0.0
O10 O 0.19875 0.16589 0.20995 0.0
O11 O 0.20485 0.13818 0.14979 0.0
O12 O 0.167 0.19757 0.23758 0.0
O13 O 0.16177 0.1937 0.1187 0.0
O14 O 0.12227 0.91369 0.44962 0.0
Cd15 Cd 0.1119 0.92887 0.3591 0.0
Cd16 Cd 0.07752 0.9206 0.43366 0.0
O17 O 0.09452 0.89946 0.48389 0.0
O18 O 0.13502 0.92943 0.2902 0.0
O19 O 0.10744 0.91346 0.26477 0.0
C20 C 0.12531 0.918 0.24638 0.0
C21 C 0.0437 0.91375 0.41903 0.0
C22 C 0.11305 0.90156 0.49045 0.0
C23 C 0.09353 0.96238 0.43585 0.0
O24 O 0.08323 0.94918 0.46741 0.0
O25 O 0.10433 0.95801 0.38067 0.0
O26 O 0.05172 0.91597 0.48281 0.0
O27 O 0.05505 0.91494 0.36199 0.0
O28 O 0.34679 0.87258 0.71269 0.0
Cd29 Cd 0.32722 0.86754 0.62813 0.0
Cd30 Cd 0.33034 0.82728 0.68919 0.0
O31 O 0.3501 0.84208 0.75516 0.0
O32 O 0.32903 0.89135 0.56282 0.0
O33 O 0.33894 0.86166 0.52809 0.0
C34 C 0.33722 0.88028 0.51366 0.0
C35 C 0.33514 0.79277 0.68551 0.0
C36 C 0.3544 0.86031 0.75742 0.0
C37 C 0.29052 0.84904 0.69095 0.0
O38 O 0.30119 0.83409 0.70469 0.0
O39 O 0.29774 0.86411 0.65867 0.0
O40 O 0.33018 0.80199 0.74447 0.0
O41 O 0.33784 0.80323 0.62688 0.0
O42 O 0.37863 0.0963 0.95889 0.0
Cd43 Cd 0.38372 0.07717 0.87317 0.0
Cd44 Cd 0.42338 0.07941 0.93133 0.0
O45 O 0.40928 0.09895 1.00024 0.0
O46 O 0.36038 0.07985 0.8059 0.0
O47 O 0.39051 0.08931 0.77479 0.0
C48 C 0.37193 0.08823 0.75876 0.0
C49 C 0.45755 0.08516 0.91796 0.0
C50 C 0.39111 0.10338 0.00405 0.0
C51 C 0.4013 0.04001 0.93609 0.0
O52 O 0.41666 0.05023 0.94885 0.0
O53 O 0.3865 0.0476 0.90322 0.0
O54 O 0.44973 0.08004 0.97958 0.0
O55 O 0.4459 0.08728 0.86218 0.0
O56 O 0.16052 0.87593 0.78838 0.0
Cd57 Cd 0.17606 0.86821 0.88081 0.0
Cd58 Cd 0.17003 0.83038 0.81458 0.0
O59 O 0.15072 0.84652 0.75035 0.0
O60 O 0.17436 0.89196 0.9464 0.0
O61 O 0.16102 0.86326 0.97552 0.0
C62 C 0.16388 0.88164 0.99157 0.0
C63 C 0.16344 0.79626 0.82627 0.0
C64 C 0.15083 0.86519 0.74376 0.0
C65 C 0.21152 0.84905 0.81803 0.0
O66 O 0.19954 0.83592 0.79557 0.0
O67 O 0.20563 0.863 0.85968 0.0
O68 O 0.16792 0.8043 0.76428 0.0
O69 O 0.16206 0.80773 0.88289 0.0
O70 O 0.3799 0.90472 0.04924 0.0
Cd71 Cd 0.38485 0.92432 0.1337 0.0
Cd72 Cd 0.42468 0.92229 0.07446 0.0
O73 O 0.41047 0.90247 0.00698 0.0
O74 O 0.36094 0.92246 0.19845 0.0
O75 O 0.39064 0.91293 0.23446 0.0
C76 C 0.37199 0.91455 0.24832 0.0
C77 C 0.45884 0.91623 0.08621 0.0
C78 C 0.39237 0.89775 0.00386 0.0
C79 C 0.4022 0.96141 0.06796 0.0
O80 O 0.4177 0.95137 0.05561 0.0
O81 O 0.38754 0.95372 0.10141 0.0
O82 O 0.45085 0.92136 0.02489 0.0
O83 O 0.44746 0.91465 0.14297 0.0
O84 O 0.3457 0.12938 0.29546 0.0
Cd85 Cd 0.32651 0.13536 0.38016 0.0
Cd86 Cd 0.32988 0.17493 0.31683 0.0
O87 O 0.34933 0.15963 0.25125 0.0
O88 O 0.32842 0.11214 0.44841 0.0
O89 O 0.33883 0.14205 0.47837 0.0
C90 C 0.33719 0.12356 0.49507 0.0
C91 C 0.33644 0.20904 0.32389 0.0
C92 C 0.3534 0.14135 0.24985 0.0
C93 C 0.28984 0.15387 0.31626 0.0
O94 O 0.30055 0.16869 0.30089 0.0
O95 O 0.29702 0.13901 0.35009 0.0
O96 O 0.33113 0.20057 0.26371 0.0
O97 O 0.33808 0.19814 0.38197 0.0
O98 O 0.12157 0.08934 0.55612 0.0
Cd99 Cd 0.1118 0.07374 0.64668 0.0
Cd100 Cd 0.0767 0.08205 0.57591 0.0
O101 O 0.09344 0.10383 0.52818 0.0
O102 O 0.13444 0.07413 0.71806 0.0
O103 O 0.10608 0.08916 0.73973 0.0
C104 C 0.124 0.08543 0.76007 0.0
C105 C 0.04265 0.08856 0.58655 0.0
C106 C 0.11189 0.10194 0.51879 0.0
C107 C 0.09356 0.04053 0.56891 0.0
O108 O 0.08285 0.0538 0.53971 0.0
O109 O 0.10453 0.04457 0.62399 0.0
O110 O 0.05127 0.08664 0.52382 0.0
O111 O 0.05345 0.08703 0.64499 0.0
O112 O 0.84784 0.86866 0.79791 0.0
Cd113 Cd 0.82855 0.86347 0.88319 0.0
Cd114 Cd 0.83108 0.82374 0.81989 0.0
O115 O 0.85087 0.83834 0.75341 0.0
O116 O 0.83086 0.8871 0.94947 0.0
O117 O 0.84056 0.8572 0.98246 0.0
C118 C 0.83923 0.87581 0.99754 0.0
C119 C 0.83623 0.78936 0.83168 0.0
C120 C 0.85523 0.85656 0.75201 0.0
C121 C 0.79158 0.84603 0.81801 0.0
O122 O 0.80203 0.83101 0.80265 0.0
O123 O 0.79899 0.86059 0.85292 0.0
O124 O 0.83149 0.7975 0.77016 0.0
O125 O 0.83845 0.80082 0.88798 0.0
O126 O 0.878 0.09425 0.54722 0.0
Cd127 Cd 0.88362 0.07489 0.63203 0.0
Cd128 Cd 0.92342 0.0786 0.57222 0.0
O129 O 0.90844 0.09781 0.50468 0.0
O130 O 0.85992 0.07637 0.69808 0.0
O131 O 0.88947 0.08691 0.73175 0.0
C132 C 0.87092 0.08489 0.74673 0.0
C133 C 0.95728 0.08586 0.58472 0.0
C134 C 0.89017 0.10186 0.50213 0.0
C135 C 0.90273 0.03839 0.56865 0.0
O136 O 0.91758 0.04924 0.555 0.0
O137 O 0.88763 0.04543 0.60134 0.0
O138 O 0.94961 0.0805 0.5231 0.0
O139 O 0.94575 0.08705 0.64121 0.0
O140 O 0.65486 0.13003 0.29472 0.0
Cd141 Cd 0.67418 0.13526 0.3799 0.0
Cd142 Cd 0.67111 0.17517 0.31921 0.0
O143 O 0.65142 0.16054 0.25251 0.0
O144 O 0.67187 0.11188 0.44723 0.0
O145 O 0.66209 0.14189 0.47854 0.0
C146 C 0.66342 0.12333 0.49454 0.0
C147 C 0.66559 0.20947 0.32991 0.0
C148 C 0.64725 0.14229 0.24992 0.0
C149 C 0.71092 0.15342 0.31641 0.0
O150 O 0.70025 0.16836 0.30215 0.0
O151 O 0.70372 0.13852 0.34987 0.0
O152 O 0.67047 0.20126 0.26871 0.0
O153 O 0.66349 0.19814 0.3866 0.0
O154 O 0.62396 0.90764 0.05381 0.0
Cd155 Cd 0.61789 0.92679 0.13861 0.0
Cd156 Cd 0.57836 0.9225 0.07832 0.0
O157 O 0.59352 0.90298 0.01261 0.0
O158 O 0.64105 0.92503 0.20719 0.0
O159 O 0.61117 0.91447 0.23674 0.0
C160 C 0.62964 0.9162 0.2537 0.0
C161 C 0.54427 0.91586 0.08811 0.0
C162 C 0.61191 0.89948 0.00958 0.0
C163 C 0.59895 0.96285 0.0731 0.0
O164 O 0.58434 0.95173 0.05895 0.0
O165 O 0.61392 0.95619 0.10774 0.0
O166 O 0.55247 0.92074 0.02696 0.0
O167 O 0.55542 0.91464 0.14564 0.0
O168 O 0.84519 0.12791 0.21099 0.0
Cd169 Cd 0.82618 0.13329 0.12481 0.0
Cd170 Cd 0.83018 0.17368 0.18517 0.0
O171 O 0.84965 0.15851 0.25101 0.0
O172 O 0.82769 0.10936 0.05987 0.0
O173 O 0.83839 0.13876 0.02512 0.0
C174 C 0.83628 0.12017 0.01085 0.0
C175 C 0.83583 0.20813 0.18177 0.0
C176 C 0.85311 0.14013 0.2552 0.0
C177 C 0.78992 0.15251 0.18785 0.0
O178 O 0.80099 0.16715 0.20184 0.0
O179 O 0.79669 0.13741 0.15438 0.0
O180 O 0.8307 0.19902 0.24076 0.0
O181 O 0.83801 0.19766 0.12285 0.0
O182 O 0.62262 0.09663 0.95981 0.0
Cd183 Cd 0.61744 0.07742 0.87423 0.0
Cd184 Cd 0.57755 0.08107 0.92981 0.0
O185 O 0.59175 0.10103 0.99662 0.0
O186 O 0.64062 0.07979 0.80609 0.0
O187 O 0.6105 0.08959 0.7761 0.0
C188 C 0.62901 0.08829 0.75935 0.0
C189 C 0.54328 0.08646 0.91721 0.0
C190 C 0.61007 0.10465 0.0024 0.0
C191 C 0.59885 0.04109 0.938 0.0
O192 O 0.584 0.05201 0.95056 0.0
O193 O 0.61392 0.04794 0.90462 0.0
O194 O 0.55136 0.082 0.97909 0.0
O195 O 0.55474 0.08826 0.86078 0.0
O196 O 0.65778 0.87523 0.71844 0.0
Cd197 Cd 0.67637 0.86966 0.63132 0.0
Cd198 Cd 0.67177 0.8298 0.68528 0.0
O199 O 0.65271 0.84439 0.75443 0.0
O200 O 0.67414 0.89284 0.56315 0.0
O201 O 0.66344 0.86294 0.53439 0.0
C202 C 0.66507 0.88141 0.5173 0.0
C203 C 0.66522 0.79577 0.67215 0.0
C204 C 0.64963 0.86278 0.76111 0.0
C205 C 0.7125 0.84967 0.69058 0.0
O206 O 0.70116 0.83516 0.70336 0.0
O207 O 0.70593 0.86513 0.6589 0.0
O208 O 0.67032 0.80356 0.73385 0.0
O209 O 0.66341 0.80741 0.61621 0.0
O210 O 0.87892 0.90361 0.46307 0.0
Cd211 Cd 0.88419 0.92279 0.37732 0.0
Cd212 Cd 0.92395 0.91921 0.43284 0.0
O213 O 0.9098 0.8992 0.49949 0.0
O214 O 0.86121 0.92026 0.30822 0.0
O215 O 0.89142 0.91044 0.2798 0.0
C216 C 0.87295 0.91167 0.26223 0.0
C217 C 0.95807 0.91346 0.41848 0.0
C218 C 0.89151 0.89555 0.50545 0.0
C219 C 0.90283 0.95925 0.44052 0.0
O220 O 0.91763 0.94831 0.45369 0.0
O221 O 0.8878 0.95235 0.40694 0.0
O222 O 0.9503 0.91791 0.48091 0.0
O223 O 0.9464 0.91196 0.36249 0.0
O224 O 0.64975 0.63197 0.70939 0.0
Cd225 Cd 0.67077 0.63517 0.62843 0.0
Cd226 Cd 0.66847 0.67574 0.68475 0.0
O227 O 0.64799 0.6625 0.75202 0.0
O228 O 0.66708 0.61062 0.56828 0.0
O229 O 0.6624 0.64066 0.5233 0.0
C230 C 0.66164 0.62175 0.51423 0.0
C231 C 0.66392 0.71008 0.67153 0.0
C232 C 0.6426 0.64458 0.75375 0.0
C233 C 0.7075 0.65257 0.695 0.0
O234 O 0.69735 0.66815 0.70409 0.0
O235 O 0.69995 0.63734 0.66477 0.0
O236 O 0.66857 0.70203 0.73327 0.0
O237 O 0.66165 0.69858 0.61543 0.0
O238 O 0.62383 0.41197 0.96043 0.0
Cd239 Cd 0.6157 0.42754 0.86866 0.0
Cd240 Cd 0.57815 0.42285 0.93997 0.0
O241 O 0.59447 0.40318 0.00219 0.0
O242 O 0.63882 0.42506 0.80015 0.0
O243 O 0.60955 0.41232 0.77541 0.0
C244 C 0.62787 0.41454 0.7572 0.0
C245 C 0.54387 0.41626 0.93375 0.0
C246 C 0.61318 0.40268 0.00639 0.0
C247 C 0.59823 0.46371 0.93372 0.0
O248 O 0.58472 0.45231 0.95753 0.0
O249 O 0.61149 0.45725 0.89015 0.0
O250 O 0.55255 0.42115 0.99407 0.0
O251 O 0.55468 0.41491 0.87533 0.0
O252 O 0.84161 0.37337 0.21302 0.0
Cd253 Cd 0.82589 0.36496 0.12056 0.0
Cd254 Cd 0.8318 0.32855 0.19202 0.0
O255 O 0.85378 0.34426 0.24305 0.0
O256 O 0.82719 0.38839 0.0529 0.0
O257 O 0.84111 0.35983 0.02616 0.0
C258 C 0.83788 0.37804 0.00853 0.0
C259 C 0.83678 0.2941 0.18567 0.0
C260 C 0.85313 0.36282 0.25196 0.0
C261 C 0.79112 0.34772 0.19339 0.0
O262 O 0.80347 0.33609 0.22312 0.0
O263 O 0.79625 0.35898 0.14044 0.0
O264 O 0.83423 0.30325 0.24697 0.0
O265 O 0.83681 0.30459 0.12621 0.0
O266 O 0.8766 0.5867 0.45739 0.0
Cd267 Cd 0.8873 0.57235 0.36553 0.0
Cd268 Cd 0.92143 0.58103 0.44107 0.0
O269 O 0.90394 0.6019 0.49061 0.0
O270 O 0.86462 0.57241 0.29433 0.0
O271 O 0.89232 0.58874 0.27415 0.0
C272 C 0.87455 0.58446 0.25357 0.0
C273 C 0.95536 0.58814 0.43111 0.0
C274 C 0.88553 0.5991 0.49806 0.0
C275 C 0.9058 0.53906 0.44132 0.0
O276 O 0.91572 0.5524 0.47375 0.0
O277 O 0.89533 0.54321 0.385 0.0
O278 O 0.94677 0.58567 0.49366 0.0
O279 O 0.94455 0.58696 0.37258 0.0
O280 O 0.66201 0.37411 0.29926 0.0
Cd281 Cd 0.67714 0.36408 0.39036 0.0
Cd282 Cd 0.67067 0.32944 0.31328 0.0
O283 O 0.64933 0.3459 0.26144 0.0
O284 O 0.67613 0.3868 0.4612 0.0
O285 O 0.66129 0.35835 0.48252 0.0
C286 C 0.66473 0.37633 0.50265 0.0
C287 C 0.66488 0.29534 0.32647 0.0
C288 C 0.65059 0.36455 0.25661 0.0
C289 C 0.71186 0.34712 0.3162 0.0
O290 O 0.69932 0.33626 0.2835 0.0
O291 O 0.70668 0.35778 0.37081 0.0
O292 O 0.66744 0.30351 0.26314 0.0
O293 O 0.6651 0.30668 0.38374 0.0
O294 O 0.88084 0.40993 0.54674 0.0
Cd295 Cd 0.88962 0.42535 0.63924 0.0
Cd296 Cd 0.92588 0.4191 0.56724 0.0
O297 O 0.90974 0.39794 0.51305 0.0
O298 O 0.86592 0.42484 0.70574 0.0
O299 O 0.89396 0.41015 0.73439 0.0
C300 C 0.8758 0.41397 0.75101 0.0
C301 C 0.96001 0.41306 0.58019 0.0
C302 C 0.89113 0.39873 0.50564 0.0
C303 C 0.90766 0.46017 0.56759 0.0
O304 O 0.91927 0.4478 0.53774 0.0
O305 O 0.89607 0.45485 0.61929 0.0
O306 O 0.95184 0.4159 0.51704 0.0
O307 O 0.94869 0.41323 0.63747 0.0
O308 O 0.83693 0.62367 0.79566 0.0
Cd309 Cd 0.82154 0.6318 0.88799 0.0
Cd310 Cd 0.82794 0.66939 0.82276 0.0
O311 O 0.84716 0.65303 0.75904 0.0
O312 O 0.82413 0.60907 0.95809 0.0
O313 O 0.83714 0.63842 0.97971 0.0
C314 C 0.83491 0.62021 0.99951 0.0
C315 C 0.83497 0.70346 0.83308 0.0
C316 C 0.84688 0.63437 0.7518 0.0
C317 C 0.78619 0.6512 0.826 0.0
O318 O 0.79836 0.66418 0.80371 0.0
O319 O 0.79191 0.63715 0.86753 0.0
O320 O 0.83034 0.6953 0.77146 0.0
O321 O 0.8362 0.69215 0.89018 0.0
O322 O 0.61898 0.60085 0.04686 0.0
Cd323 Cd 0.61615 0.57986 0.12819 0.0
Cd324 Cd 0.57555 0.58085 0.07573 0.0
O325 O 0.58834 0.60077 0.00495 0.0
O326 O 0.6404 0.58393 0.18986 0.0
O327 O 0.6101 0.58794 0.23309 0.0
C328 C 0.62895 0.58891 0.2436 0.0
C329 C 0.54139 0.58628 0.08856 0.0
C330 C 0.606 0.60688 1.00163 0.0
C331 C 0.59915 0.54241 0.06447 0.0
O332 O 0.58301 0.55183 0.05852 0.0
O333 O 0.61445 0.55068 0.09158 0.0
O334 O 0.54924 0.58073 0.02759 0.0
O335 O 0.55288 0.58847 0.14473 0.0
O336 O 0.33819 0.37357 0.29515 0.0
Cd337 Cd 0.32315 0.36324 0.3861 0.0
Cd338 Cd 0.33074 0.32863 0.31101 0.0
O339 O 0.35204 0.34558 0.26149 0.0
O340 O 0.32399 0.3856 0.4586 0.0
O341 O 0.33928 0.35724 0.47727 0.0
C342 C 0.33567 0.37508 0.49881 0.0
C343 C 0.33745 0.29463 0.32036 0.0
C344 C 0.35026 0.36413 0.25475 0.0
C345 C 0.2891 0.34516 0.31151 0.0
O346 O 0.30208 0.33472 0.27933 0.0
O347 O 0.29379 0.35601 0.36625 0.0
O348 O 0.33483 0.30328 0.25802 0.0
O349 O 0.33654 0.30539 0.37906 0.0
O350 O 0.37708 0.5953 0.0473 0.0
Cd351 Cd 0.38251 0.5759 0.13187 0.0
Cd352 Cd 0.42226 0.57919 0.07516 0.0
O353 O 0.4077 0.5984 0.00627 0.0
O354 O 0.35858 0.57716 0.19673 0.0
O355 O 0.38803 0.58752 0.23247 0.0
C356 C 0.36942 0.58545 0.24642 0.0
C357 C 0.45617 0.58612 0.08764 0.0
C358 C 0.38947 0.60256 0.00227 0.0
C359 C 0.40129 0.53943 0.06697 0.0
O360 O 0.41655 0.5499 0.05605 0.0
O361 O 0.38619 0.54663 0.09911 0.0
O362 O 0.44839 0.58087 0.02612 0.0
O363 O 0.44469 0.58745 0.1442 0.0
O364 O 0.15273 0.63073 0.79897 0.0
Cd365 Cd 0.17205 0.63635 0.88379 0.0
Cd366 Cd 0.16894 0.67595 0.81918 0.0
O367 O 0.1491 0.66095 0.75411 0.0
O368 O 0.16993 0.61295 0.95127 0.0
O369 O 0.15997 0.64288 0.98267 0.0
C370 C 0.1614 0.62433 0.99864 0.0
C371 C 0.16348 0.71033 0.82921 0.0
C372 C 0.14502 0.64266 0.75317 0.0
C373 C 0.2087 0.65405 0.81733 0.0
O374 O 0.19802 0.66888 0.80157 0.0
O375 O 0.20156 0.63949 0.85302 0.0
O376 O 0.16821 0.702 0.76804 0.0
O377 O 0.16148 0.69907 0.88617 0.0
O378 O 0.12539 0.40973 0.53402 0.0
Cd379 Cd 0.11817 0.42579 0.62608 0.0
Cd380 Cd 0.0799 0.41951 0.56668 0.0
O381 O 0.09551 0.39929 0.50469 0.0
O382 O 0.14093 0.42307 0.69623 0.0
O383 O 0.11134 0.41067 0.71865 0.0
C384 C 0.12959 0.41267 0.73831 0.0
C385 C 0.04582 0.41302 0.57979 0.0
C386 C 0.11405 0.39922 0.49431 0.0
C387 C 0.09854 0.46103 0.56363 0.0
O388 O 0.08529 0.44887 0.54356 0.0
O389 O 0.11283 0.45537 0.60417 0.0
O390 O 0.05378 0.41692 0.51714 0.0
O391 O 0.05733 0.41228 0.63648 0.0
O392 O 0.3432 0.62663 0.71058 0.0
Cd393 Cd 0.32379 0.63197 0.6257 0.0
Cd394 Cd 0.328 0.67235 0.68492 0.0
O395 O 0.34756 0.65725 0.75049 0.0
O396 O 0.32542 0.60833 0.55947 0.0
O397 O 0.33581 0.63799 0.52631 0.0
C398 C 0.33391 0.61943 0.51109 0.0
C399 C 0.33357 0.70678 0.68285 0.0
C400 C 0.35129 0.63892 0.75408 0.0
C401 C 0.28761 0.65139 0.6882 0.0
O402 O 0.29876 0.66603 0.70122 0.0
O403 O 0.29433 0.63607 0.65597 0.0
O404 O 0.32834 0.69748 0.74126 0.0
O405 O 0.33599 0.69647 0.62368 0.0
O406 O 0.12033 0.59642 0.46275 0.0
Cd407 Cd 0.115 0.57746 0.37651 0.0
Cd408 Cd 0.07499 0.57994 0.43648 0.0
O409 O 0.08975 0.59918 0.50468 0.0
O410 O 0.13827 0.58002 0.3087 0.0
O411 O 0.10823 0.58998 0.27867 0.0
C412 C 0.12676 0.58871 0.26214 0.0
C413 C 0.04088 0.58648 0.42802 0.0
C414 C 0.10795 0.60351 0.50822 0.0
C415 C 0.09663 0.54021 0.43692 0.0
O416 O 0.08147 0.55058 0.45101 0.0
O417 O 0.11162 0.5478 0.40523 0.0
O418 O 0.04911 0.58082 0.4882 0.0
O419 O 0.05197 0.58837 0.3706 0.0
O420 O 0.16055 0.37035 0.19988 0.0
Cd421 Cd 0.17609 0.36094 0.10866 0.0
Cd422 Cd 0.16899 0.3254 0.18255 0.0
O423 O 0.14743 0.34189 0.23295 0.0
O424 O 0.1755 0.38403 0.03912 0.0
O425 O 0.16074 0.35571 0.01478 0.0
C426 C 0.16435 0.37377 0.99598 0.0
C427 C 0.163 0.29122 0.17106 0.0
C428 C 0.14872 0.36049 0.23999 0.0
C429 C 0.21019 0.34339 0.18482 0.0
O430 O 0.19745 0.33223 0.21493 0.0
O431 O 0.20549 0.35435 0.13041 0.0
O432 O 0.16537 0.29966 0.23399 0.0
O433 O 0.16363 0.3023 0.11315 0.0
O434 O 0.37789 0.41007 0.95674 0.0
Cd435 Cd 0.38598 0.42547 0.86461 0.0
Cd436 Cd 0.4236 0.42087 0.93719 0.0
O437 O 0.40718 0.40134 0.99967 0.0
O438 O 0.36262 0.42315 0.79697 0.0
O439 O 0.39172 0.41027 0.77086 0.0
C440 C 0.37336 0.41261 0.75339 0.0
C441 C 0.45799 0.4148 0.93237 0.0
C442 C 0.38846 0.40094 0.00349 0.0
C443 C 0.40339 0.4616 0.9304 0.0
O444 O 0.41689 0.45025 0.95448 0.0
O445 O 0.39021 0.45515 0.8864 0.0
O446 O 0.44907 0.41947 0.99238 0.0
O447 O 0.44736 0.41323 0.87356 0.0
C448 C 0.26032 0.13572 0.26649 0.0
C449 C 0.26926 0.15359 0.28792 0.0
C450 C 0.2417 0.13549 0.232 0.0
C451 C 0.23122 0.1531 0.21873 0.0
H452 H 0.26793 0.12183 0.27486 0.0
H453 H 0.23531 0.12138 0.21701 0.0
S454 S 0.24805 0.20379 0.26521 0.0
N455 N 0.26613 0.18934 0.29365 0.0
N456 N 0.23124 0.18889 0.22987 0.0
C457 C 0.23998 0.17103 0.24039 0.0
C458 C 0.25894 0.17128 0.27472 0.0
C459 C 0.09312 0.98482 0.54537 0.0
C460 C 0.09388 0.98247 0.468 0.0
C461 C 0.09352 0.00362 0.57809 0.0
C462 C 0.09406 0.02073 0.53447 0.0
H463 H 0.09245 0.97199 0.58104 0.0
H464 H 0.09295 0.00477 0.63774 0.0
S465 S 0.09645 0.0227 0.32971 0.0
N466 N 0.09576 0.99887 0.349 0.0
N467 N 0.09571 0.03422 0.41008 0.0
C468 C 0.09481 0.01861 0.45711 0.0
C469 C 0.09495 0.99947 0.42395 0.0
C470 C 0.2424 0.86657 0.77764 0.0
C471 C 0.232 0.84881 0.78888 0.0
C472 C 0.26099 0.8667 0.74295 0.0
C473 C 0.26996 0.84906 0.71926 0.0
H474 H 0.23598 0.88051 0.79439 0.0
H475 H 0.26857 0.88067 0.73622 0.0
S476 S 0.24891 0.7986 0.73606 0.0
N477 N 0.2321 0.81314 0.77341 0.0
N478 N 0.26691 0.81336 0.70915 0.0
C479 C 0.25969 0.83122 0.73037 0.0
C480 C 0.24078 0.8311 0.76495 0.0
C481 C 0.41847 0.00983 0.98203 0.0
C482 C 0.40063 0.01957 0.96587 0.0
C483 C 0.41871 0.99135 0.01646 0.0
C484 C 0.40112 0.98175 0.03719 0.0
H485 H 0.43249 0.01658 0.96813 0.0
H486 H 0.43291 0.98453 0.02692 0.0
S487 S 0.35034 0.00091 0.00803 0.0
N488 N 0.3648 0.01825 0.97355 0.0
N489 N 0.36523 0.98341 0.03863 0.0
C490 C 0.38311 0.9913 0.02167 0.0
C491 C 0.38286 0.01016 0.98572 0.0
C492 C 0.76191 0.86509 0.77366 0.0
C493 C 0.77108 0.84685 0.78866 0.0
C494 C 0.7433 0.86601 0.73918 0.0
C495 C 0.73306 0.84871 0.71916 0.0
H496 H 0.76931 0.87879 0.78742 0.0
H497 H 0.73672 0.88036 0.72957 0.0
S498 S 0.75056 0.79722 0.74648 0.0
N499 N 0.76836 0.81108 0.78089 0.0
N500 N 0.73366 0.81279 0.71638 0.0
C501 C 0.7421 0.8304 0.73392 0.0
C502 C 0.76099 0.82947 0.7686 0.0
C503 C 0.8851 0.98965 0.48597 0.0
C504 C 0.90291 0.97974 0.47041 0.0
C505 C 0.88505 0.0083 0.52046 0.0
C506 C 0.9028 0.01781 0.53992 0.0
H507 H 0.87109 0.98285 0.47256 0.0
H508 H 0.871 0.01547 0.53048 0.0
S509 S 0.95344 0.99818 0.51135 0.0
N510 N 0.93879 0.98098 0.47733 0.0
N511 N 0.93865 0.01573 0.54178 0.0
C512 C 0.92068 0.00802 0.52469 0.0
C513 C 0.92074 0.9891 0.49003 0.0
C514 C 0.7407 0.13531 0.26784 0.0
C515 C 0.73146 0.15319 0.2875 0.0
C516 C 0.75929 0.13514 0.23303 0.0
C517 C 0.76941 0.15283 0.21732 0.0
H518 H 0.73335 0.12137 0.27798 0.0
H519 H 0.76592 0.12103 0.21958 0.0
S520 S 0.75169 0.20359 0.25869 0.0
N521 N 0.73401 0.18901 0.28944 0.0
N522 N 0.76863 0.18873 0.22424 0.0
C523 C 0.7603 0.17078 0.23705 0.0
C524 C 0.74145 0.17094 0.27211 0.0
C525 C 0.61661 0.01127 0.98809 0.0
C526 C 0.59881 0.02075 0.96899 0.0
C527 C 0.61662 0.99289 0.02448 0.0
C528 C 0.59884 0.98322 0.04237 0.0
H529 H 0.63063 0.01825 0.97617 0.0
H530 H 0.63067 0.98605 0.0373 0.0
S531 S 0.54821 0.00172 0.00407 0.0
N532 N 0.56292 0.01892 0.97053 0.0
N533 N 0.56295 0.98466 0.03856 0.0
C534 C 0.58096 0.99256 0.02343 0.0
C535 C 0.58095 0.01121 0.98682 0.0
C536 C 0.7364 0.63443 0.7504 0.0
C537 C 0.72788 0.65221 0.72556 0.0
C538 C 0.75491 0.63425 0.7858 0.0
C539 C 0.7657 0.65179 0.79675 0.0
H540 H 0.72856 0.62061 0.74369 0.0
H541 H 0.761 0.6202 0.80316 0.0
S542 S 0.75001 0.70224 0.74169 0.0
N543 N 0.73178 0.68781 0.71446 0.0
N544 N 0.76637 0.68742 0.78029 0.0
C545 C 0.75733 0.66963 0.77206 0.0
C546 C 0.73851 0.66984 0.73665 0.0
C547 C 0.58184 0.49278 0.99214 0.0
C548 C 0.59908 0.48417 0.96319 0.0
C549 C 0.58222 0.51132 0.02622 0.0
C550 C 0.59992 0.52204 0.03399 0.0
H551 H 0.56783 0.48512 0.98851 0.0
H552 H 0.56844 0.5173 0.04672 0.0
S553 S 0.64933 0.50606 0.96872 0.0
N554 N 0.6345 0.48776 0.94506 0.0
N555 N 0.63522 0.52266 0.00971 0.0
C556 C 0.61735 0.5136 0.00587 0.0
C557 C 0.61693 0.49472 0.97012 0.0
C558 C 0.73529 0.34657 0.20953 0.0
C559 C 0.73221 0.34811 0.28641 0.0
C560 C 0.75436 0.34718 0.17912 0.0
C561 C 0.77102 0.34876 0.22476 0.0
H562 H 0.72283 0.34499 0.17243 0.0
H563 H 0.75609 0.34582 0.11986 0.0
S564 S 0.77109 0.35372 0.42889 0.0
N565 N 0.74747 0.35203 0.4069 0.0
N566 N 0.78334 0.35238 0.35016 0.0
C567 C 0.76817 0.35045 0.30152 0.0
C568 C 0.74876 0.35036 0.33227 0.0
C569 C 0.90936 0.48339 0.46048 0.0
C570 C 0.90675 0.48044 0.53702 0.0
C571 C 0.90847 0.50234 0.42915 0.0
C572 C 0.90553 0.51904 0.47361 0.0
H573 H 0.91191 0.47091 0.42428 0.0
H574 H 0.91057 0.50397 0.37014 0.0
S575 S 0.89754 0.51941 0.67641 0.0
N576 N 0.90048 0.49583 0.65584 0.0
N577 N 0.89958 0.53151 0.59756 0.0
C578 C 0.90287 0.51632 0.55007 0.0
C579 C 0.90325 0.497 0.58164 0.0
C580 C 0.26602 0.34436 0.20384 0.0
C581 C 0.26881 0.34537 0.28097 0.0
C582 C 0.24703 0.34424 0.17264 0.0
C583 C 0.23017 0.34449 0.21763 0.0
H584 H 0.27864 0.34382 0.16716 0.0
H585 H 0.24554 0.34347 0.11312 0.0
S586 S 0.22935 0.34746 0.42237 0.0
N587 N 0.25307 0.34725 0.40119 0.0
N588 N 0.21738 0.34624 0.34299 0.0
C589 C 0.23273 0.34555 0.29475 0.0
C590 C 0.25206 0.34622 0.32634 0.0
C591 C 0.41897 0.5093 0.0231 0.0
C592 C 0.40099 0.5192 0.03536 0.0
C593 C 0.41958 0.49099 0.98732 0.0
C594 C 0.40228 0.48191 0.96088 0.0
H595 H 0.43276 0.51575 0.04142 0.0
H596 H 0.43378 0.48387 0.98036 0.0
S597 S 0.35138 0.50168 0.97806 0.0
N598 N 0.36539 0.51856 0.0179 0.0
N599 N 0.36656 0.48415 0.94983 0.0
C600 C 0.38418 0.49167 0.97214 0.0
C601 C 0.38352 0.51025 0.00978 0.0
C602 C 0.25708 0.63463 0.73731 0.0
C603 C 0.26707 0.65205 0.71714 0.0
C604 C 0.23852 0.63531 0.77226 0.0
C605 C 0.22917 0.65345 0.78758 0.0
H606 H 0.26382 0.62036 0.72748 0.0
H607 H 0.2313 0.62154 0.78611 0.0
S608 S 0.24903 0.70333 0.74523 0.0
N609 N 0.26605 0.68797 0.71459 0.0
N610 N 0.23147 0.68925 0.77998 0.0
C611 C 0.23902 0.67094 0.76738 0.0
C612 C 0.25784 0.67026 0.73221 0.0
C613 C 0.11531 0.49232 0.52249 0.0
C614 C 0.09782 0.48147 0.53374 0.0
C615 C 0.11498 0.51096 0.48809 0.0
C616 C 0.09711 0.51956 0.46467 0.0
H617 H 0.12942 0.48624 0.5392 0.0
H618 H 0.12876 0.51888 0.48149 0.0
S619 S 0.04721 0.49728 0.48123 0.0
N620 N 0.06215 0.48077 0.51825 0.0
N621 N 0.06152 0.51567 0.45461 0.0
C622 C 0.07955 0.50885 0.47563 0.0
C623 C 0.0799 0.48987 0.50989 0.0
C624 C 0.15926 0.09487 0.92012 0.0
C625 C 0.15222 0.11256 0.95131 0.0
C626 C 0.14992 0.08616 0.85898 0.0
C627 C 0.13287 0.09451 0.82727 0.0
H628 H 0.17223 0.08772 0.94273 0.0
H629 H 0.15612 0.07268 0.83658 0.0
S630 S 0.10814 0.14058 0.88894 0.0
N631 N 0.12701 0.13809 0.94597 0.0
N632 N 0.10927 0.12154 0.83212 0.0
C633 C 0.12551 0.11209 0.85841 0.0
C634 C 0.13524 0.12116 0.91997 0.0
C635 C 0.13773 0.8824 0.09007 0.0
C636 C 0.15455 0.89096 0.05739 0.0
C637 C 0.12802 0.89153 0.14964 0.0
C638 C 0.13492 0.90941 0.17979 0.0
H639 H 0.13183 0.86866 0.06884 0.0
H640 H 0.1152 0.88429 0.17309 0.0
S641 S 0.17842 0.9379 0.11473 0.0
N642 N 0.17761 0.91849 0.05967 0.0
N643 N 0.15963 0.93538 0.17202 0.0
C644 C 0.15176 0.91808 0.1478 0.0
C645 C 0.16149 0.90894 0.08658 0.0
C646 C 0.37133 0.88952 0.35031 0.0
C647 C 0.36323 0.90648 0.31717 0.0
C648 C 0.36248 0.88078 0.41248 0.0
C649 C 0.34547 0.88897 0.44498 0.0
H650 H 0.3844 0.88268 0.32714 0.0
H651 H 0.36924 0.86774 0.4361 0.0
S652 S 0.31868 0.93353 0.38027 0.0
N653 N 0.33716 0.9311 0.32145 0.0
N654 N 0.32095 0.91514 0.43956 0.0
C655 C 0.33737 0.90607 0.41291 0.0
C656 C 0.34612 0.91469 0.34868 0.0
C657 C 0.34634 0.08958 0.6589 0.0
C658 C 0.36375 0.0972 0.6904 0.0
C659 C 0.3378 0.09826 0.59606 0.0
C660 C 0.34599 0.11527 0.56354 0.0
H661 H 0.33932 0.07668 0.68259 0.0
H662 H 0.32457 0.09168 0.57315 0.0
S663 S 0.39131 0.14126 0.62544 0.0
N664 N 0.38889 0.12276 0.6842 0.0
N665 N 0.37254 0.13939 0.56759 0.0
C666 C 0.36327 0.12318 0.59498 0.0
C667 C 0.37223 0.11406 0.65792 0.0
C668 C 0.83967 0.90154 0.09708 0.0
C669 C 0.84784 0.88433 0.066 0.0
C670 C 0.84794 0.91033 0.16022 0.0
C671 C 0.86508 0.90262 0.19347 0.0
H672 H 0.82663 0.90818 0.07287 0.0
H673 H 0.84094 0.92338 0.18281 0.0
S674 S 0.89252 0.85808 0.13254 0.0
N675 N 0.8741 0.85995 0.07316 0.0
N676 N 0.88998 0.87678 0.19028 0.0
C677 C 0.87357 0.88558 0.16233 0.0
C678 C 0.86485 0.87635 0.09911 0.0
C679 C 0.86158 0.11919 0.90967 0.0
C680 C 0.84451 0.11121 0.94251 0.0
C681 C 0.87038 0.11022 0.84782 0.0
C682 C 0.86218 0.09321 0.81531 0.0
H683 H 0.86842 0.13226 0.93276 0.0
H684 H 0.88348 0.11692 0.82443 0.0
S685 S 0.81741 0.06667 0.87936 0.0
N686 N 0.8198 0.08521 0.93793 0.0
N687 N 0.83592 0.06879 0.82055 0.0
C688 C 0.84501 0.0852 0.84716 0.0
C689 C 0.83629 0.09408 0.91102 0.0
C690 C 0.65426 0.08929 0.6582 0.0
C691 C 0.63709 0.09716 0.69063 0.0
C692 C 0.6627 0.09789 0.59503 0.0
C693 C 0.65467 0.11505 0.56311 0.0
H694 H 0.66115 0.07626 0.68144 0.0
H695 H 0.67575 0.09112 0.57144 0.0
S696 S 0.61 0.14169 0.62744 0.0
N697 N 0.61233 0.12311 0.68587 0.0
N698 N 0.62852 0.13959 0.56868 0.0
C699 C 0.63763 0.1232 0.59545 0.0
C700 C 0.62875 0.11417 0.6587 0.0
C701 C 0.6638 0.90689 0.41695 0.0
C702 C 0.65601 0.88964 0.44913 0.0
C703 C 0.6551 0.91543 0.35417 0.0
C704 C 0.63792 0.90742 0.32227 0.0
H705 H 0.67686 0.91376 0.44004 0.0
H706 H 0.66182 0.92853 0.33075 0.0
S707 S 0.61142 0.86259 0.38611 0.0
N708 N 0.63006 0.86486 0.44429 0.0
N709 N 0.61343 0.88122 0.32771 0.0
C710 C 0.62982 0.89032 0.35441 0.0
C711 C 0.63895 0.88135 0.41735 0.0
C712 C 0.66065 0.61869 0.3763 0.0
C713 C 0.65349 0.61298 0.44588 0.0
C714 C 0.65294 0.61039 0.31118 0.0
C715 C 0.63732 0.59667 0.31339 0.0
H716 H 0.67244 0.62945 0.37224 0.0
H717 H 0.65895 0.6151 0.25858 0.0
S718 S 0.61305 0.57734 0.48191 0.0
N719 N 0.63005 0.5927 0.51337 0.0
N720 N 0.61488 0.57792 0.39092 0.0
C721 C 0.62986 0.59108 0.38261 0.0
C722 C 0.63814 0.59902 0.4489 0.0
C723 C 0.65433 0.41178 0.66105 0.0
C724 C 0.63653 0.40469 0.6912 0.0
C725 C 0.66338 0.40239 0.60078 0.0
C726 C 0.65525 0.38525 0.56892 0.0
H727 H 0.66132 0.42481 0.68388 0.0
H728 H 0.67694 0.40861 0.57921 0.0
S729 S 0.60899 0.36042 0.6278 0.0
N730 N 0.61113 0.37938 0.68461 0.0
N731 N 0.6283 0.36154 0.57231 0.0
C732 C 0.63755 0.37786 0.59893 0.0
C733 C 0.62814 0.38764 0.65963 0.0
C734 C 0.87365 0.38797 0.84997 0.0
C735 C 0.8662 0.40537 0.81774 0.0
C736 C 0.86414 0.37895 0.9103 0.0
C737 C 0.84698 0.38716 0.94177 0.0
H738 H 0.88678 0.38105 0.8277 0.0
H739 H 0.87049 0.36561 0.93317 0.0
S740 S 0.82158 0.43274 0.87871 0.0
N741 N 0.84054 0.43045 0.82212 0.0
N742 N 0.82297 0.41381 0.9359 0.0
C743 C 0.83947 0.40464 0.91039 0.0
C744 C 0.84897 0.41365 0.84836 0.0
C745 C 0.84836 0.58504 0.1557 0.0
C746 C 0.86523 0.59371 0.18753 0.0
C747 C 0.83863 0.59381 0.09561 0.0
C748 C 0.84509 0.61186 0.06548 0.0
H749 H 0.84263 0.57125 0.17714 0.0
H750 H 0.82584 0.58638 0.07284 0.0
S751 S 0.88838 0.6409 0.12911 0.0
N752 N 0.88796 0.6215 0.18436 0.0
N753 N 0.8695 0.63813 0.07231 0.0
C754 C 0.86185 0.62081 0.09709 0.0
C755 C 0.87198 0.6117 0.15769 0.0
C756 C 0.33725 0.40078 0.59832 0.0
C757 C 0.34533 0.3838 0.56518 0.0
C758 C 0.34649 0.41001 0.65859 0.0
C759 C 0.36444 0.40291 0.68749 0.0
H760 H 0.32359 0.40702 0.57773 0.0
H761 H 0.33953 0.42292 0.68238 0.0
S762 S 0.39193 0.35899 0.62052 0.0
N763 N 0.3724 0.36021 0.56608 0.0
N764 N 0.38992 0.37774 0.67836 0.0
C765 C 0.37277 0.386 0.65467 0.0
C766 C 0.36317 0.37639 0.59396 0.0
C767 C 0.35938 0.61909 0.41056 0.0
C768 C 0.34233 0.61082 0.4425 0.0
C769 C 0.36841 0.61043 0.34859 0.0
C770 C 0.36046 0.59344 0.31507 0.0
H771 H 0.36604 0.63215 0.43448 0.0
H772 H 0.38149 0.61735 0.32589 0.0
S773 S 0.31588 0.56617 0.37661 0.0
N774 N 0.31793 0.58455 0.43607 0.0
N775 N 0.33448 0.5687 0.31841 0.0
C776 C 0.34331 0.58514 0.34602 0.0
C777 C 0.33437 0.5937 0.41002 0.0
C778 C 0.16066 0.59873 0.09868 0.0
C779 C 0.15264 0.61595 0.06709 0.0
C780 C 0.15215 0.58999 0.16149 0.0
C781 C 0.13494 0.59777 0.19391 0.0
H782 H 0.17373 0.59202 0.07505 0.0
H783 H 0.15903 0.57692 0.18441 0.0
S784 S 0.10791 0.64244 0.13169 0.0
N785 N 0.12649 0.64047 0.0731 0.0
N786 N 0.11019 0.62374 0.18959 0.0
C787 C 0.12664 0.61486 0.16238 0.0
C788 C 0.13558 0.62403 0.09949 0.0
C789 C 0.15541 0.40954 0.83704 0.0
C790 C 0.13774 0.40269 0.80507 0.0
C791 C 0.16393 0.40001 0.89817 0.0
C792 C 0.15539 0.38294 0.92909 0.0
H793 H 0.16272 0.42248 0.81497 0.0
H794 H 0.17742 0.40603 0.92111 0.0
S795 S 0.10921 0.35875 0.8656 0.0
N796 N 0.11197 0.3777 0.80914 0.0
N797 N 0.12816 0.3596 0.92292 0.0
C798 C 0.1378 0.37581 0.89731 0.0
C799 C 0.12892 0.38574 0.83578 0.0
C800 C 0.15855 0.25878 0.23362 0.0
C801 C 0.16062 0.26941 0.1673 0.0
C802 C 0.15846 0.23816 0.23452 0.0
C803 C 0.1604 0.22711 0.16914 0.0
H804 H 0.15747 0.26642 0.28606 0.0
H805 H 0.15734 0.23084 0.28756 0.0
S806 S 0.16467 0.24763 0.97972 0.0
N807 N 0.16344 0.26729 0.03353 0.0
N808 N 0.16324 0.22833 0.03528 0.0
C809 C 0.16154 0.23745 0.1018 0.0
C810 C 0.16167 0.25863 0.10087 0.0
C811 C 0.99055 0.90802 0.47862 0.0
C812 C 0.97976 0.91092 0.41316 0.0
C813 C 0.01115 0.90806 0.47875 0.0
C814 C 0.02199 0.91107 0.41345 0.0
H815 H 0.98303 0.9062 0.531 0.0
H816 H 0.0186 0.90627 0.53129 0.0
S817 S 0.00087 0.91772 0.22583 0.0
N818 N 0.98139 0.91555 0.2801 0.0
N819 N 0.02036 0.91571 0.28027 0.0
C820 C 0.01146 0.913 0.34672 0.0
C821 C 0.9903 0.91289 0.34659 0.0
C822 C 0.3386 0.76024 0.61923 0.0
C823 C 0.33664 0.77088 0.68567 0.0
C824 C 0.33819 0.73946 0.61858 0.0
C825 C 0.33582 0.7286 0.68432 0.0
H826 H 0.33992 0.76798 0.56713 0.0
H827 H 0.33923 0.73191 0.56599 0.0
S828 S 0.3318 0.7494 0.87384 0.0
N829 N 0.33353 0.76885 0.8195 0.0
N830 N 0.33278 0.73015 0.81827 0.0
C831 C 0.33461 0.7391 0.75135 0.0
C832 C 0.33502 0.76014 0.75201 0.0
C833 C 0.49011 0.08891 0.97938 0.0
C834 C 0.47926 0.08784 0.91329 0.0
C835 C 0.5107 0.08925 0.9792 0.0
C836 C 0.5215 0.08853 0.9129 0.0
H837 H 0.48268 0.08904 0.03236 0.0
H838 H 0.5182 0.08962 0.03206 0.0
S839 S 0.50025 0.08715 0.72399 0.0
N840 N 0.4808 0.08726 0.77905 0.0
N841 N 0.51977 0.08789 0.77868 0.0
C842 C 0.51091 0.08838 0.84595 0.0
C843 C 0.48974 0.08804 0.84615 0.0
C844 C 0.16101 0.76345 0.76499 0.0
C845 C 0.1611 0.77446 0.83088 0.0
C846 C 0.16108 0.74283 0.7657 0.0
C847 C 0.16123 0.73215 0.83235 0.0
H848 H 0.16135 0.77079 0.71182 0.0
H849 H 0.16145 0.73523 0.71307 0.0
S850 S 0.16009 0.75376 0.02071 0.0
N851 N 0.16024 0.77311 0.96514 0.0
N852 N 0.16035 0.73415 0.96647 0.0
C853 C 0.16047 0.74288 0.89893 0.0
C854 C 0.16041 0.76406 0.8982 0.0
C855 C 0.49106 0.91663 0.1556 0.0
C856 C 0.48045 0.91305 0.09005 0.0
C857 C 0.51185 0.91651 0.15608 0.0
C858 C 0.52262 0.91277 0.09103 0.0
H859 H 0.4833 0.92051 0.20585 0.0
H860 H 0.51949 0.92031 0.20668 0.0
S861 S 0.50172 0.89892 0.90864 0.0
N862 N 0.48227 0.90309 0.96118 0.0
N863 N 0.52107 0.90283 0.96208 0.0
C864 C 0.51211 0.90779 0.02669 0.0
C865 C 0.49109 0.90793 0.02619 0.0
C866 C 0.33677 0.24162 0.39054 0.0
C867 C 0.33961 0.23068 0.3253 0.0
C868 C 0.33698 0.2624 0.38957 0.0
C869 C 0.3401 0.27288 0.32338 0.0
H870 H 0.33347 0.23413 0.44194 0.0
H871 H 0.33385 0.27025 0.44035 0.0
S872 S 0.35147 0.25098 0.14007 0.0
N873 N 0.34789 0.23182 0.19469 0.0
N874 N 0.3484 0.27061 0.1928 0.0
C875 C 0.34423 0.26202 0.2589 0.0
C876 C 0.34395 0.24099 0.25988 0.0
C877 C 0.98949 0.08536 0.65375 0.0
C878 C 0.97875 0.08971 0.58922 0.0
C879 C 0.01027 0.08598 0.65406 0.0
C880 C 0.02091 0.09107 0.58995 0.0
H881 H 0.98188 0.08045 0.70304 0.0
H882 H 0.01802 0.08155 0.70371 0.0
S883 S 0.99941 0.10724 0.4111 0.0
N884 N 0.98014 0.1017 0.46281 0.0
N885 N 0.01892 0.10306 0.46341 0.0
C886 C 0.0102 0.09684 0.52693 0.0
C887 C 0.98918 0.09611 0.52656 0.0
C888 C 0.838 0.736 0.77021 0.0
C889 C 0.83768 0.72523 0.83664 0.0
C890 C 0.83825 0.75661 0.76987 0.0
C891 C 0.83822 0.76754 0.83597 0.0
H892 H 0.83757 0.72848 0.71741 0.0
H893 H 0.83803 0.76403 0.71686 0.0
S894 S 0.83894 0.7466 0.02542 0.0
N895 N 0.8385 0.72705 0.97084 0.0
N896 N 0.83902 0.76601 0.97019 0.0
C897 C 0.83879 0.75704 0.9031 0.0
C898 C 0.83851 0.73586 0.90345 0.0
C899 C 0.66233 0.24188 0.26662 0.0
C900 C 0.66321 0.23124 0.33325 0.0
C901 C 0.66212 0.26249 0.26577 0.0
C902 C 0.66286 0.27353 0.33155 0.0
H903 H 0.66219 0.23424 0.214 0.0
H904 H 0.66187 0.26978 0.21255 0.0
S905 S 0.66386 0.2529 0.52153 0.0
N906 N 0.66367 0.23327 0.46738 0.0
N907 N 0.66336 0.27223 0.46589 0.0
C908 C 0.66292 0.26315 0.399 0.0
C909 C 0.66307 0.24198 0.39985 0.0
C910 C 0.83799 0.26168 0.11742 0.0
C911 C 0.83862 0.27222 0.1845 0.0
C912 C 0.83784 0.2409 0.1164 0.0
C913 C 0.83824 0.22993 0.18244 0.0
H914 H 0.83705 0.26951 0.06538 0.0
H915 H 0.83674 0.23343 0.06367 0.0
S916 S 0.84211 0.25034 0.37244 0.0
N917 N 0.84126 0.26992 0.31842 0.0
N918 N 0.84092 0.23118 0.31642 0.0
C919 C 0.83974 0.2403 0.2496 0.0
C920 C 0.83994 0.26134 0.25066 0.0
C921 C 0.66123 0.74265 0.73346 0.0
C922 C 0.66192 0.73186 0.66718 0.0
C923 C 0.66148 0.76324 0.73361 0.0
C924 C 0.66244 0.77409 0.66748 0.0
H925 H 0.66094 0.73517 0.78634 0.0
H926 H 0.66139 0.77068 0.78659 0.0
S927 S 0.66297 0.75306 0.47821 0.0
N928 N 0.66237 0.73355 0.53295 0.0
N929 N 0.66287 0.77252 0.53323 0.0
C930 C 0.6622 0.76359 0.60035 0.0
C931 C 0.66194 0.74242 0.6002 0.0
C932 C 0.51142 0.4147 0.86579 0.0
C933 C 0.52212 0.41328 0.93231 0.0
C934 C 0.49062 0.41432 0.86545 0.0
C935 C 0.47983 0.41249 0.9316 0.0
H936 H 0.51909 0.41691 0.81398 0.0
H937 H 0.48298 0.41626 0.81338 0.0
S938 S 0.50091 0.40527 0.11914 0.0
N939 N 0.52032 0.40781 0.06497 0.0
N940 N 0.48154 0.40709 0.06431 0.0
C941 C 0.49042 0.40991 0.9978 0.0
C942 C 0.51148 0.4103 0.99815 0.0
C943 C 0.98757 0.58713 0.36186 0.0
C944 C 0.9771 0.5908 0.42771 0.0
C945 C 0.00835 0.58674 0.36099 0.0
C946 C 0.01929 0.58991 0.42601 0.0
H947 H 0.9797 0.58368 0.31141 0.0
H948 H 0.01582 0.583 0.31 0.0
S949 S 0.99909 0.60335 0.60982 0.0
N950 N 0.97944 0.60007 0.55736 0.0
N951 N 0.01822 0.59916 0.55568 0.0
C952 C 0.00901 0.59483 0.4909 0.0
C953 C 0.98799 0.59532 0.49176 0.0
C954 C 0.99259 0.40846 0.5191 0.0
C955 C 0.98179 0.41065 0.58493 0.0
C956 C 0.01321 0.40841 0.51902 0.0
C957 C 0.02407 0.41053 0.58478 0.0
H958 H 0.9851 0.40726 0.4664 0.0
H959 H 0.02067 0.40719 0.4663 0.0
S960 S 0.00303 0.41515 0.77324 0.0
N961 N 0.98352 0.41375 0.71868 0.0
N962 N 0.02248 0.41365 0.7185 0.0
C963 C 0.01355 0.41178 0.65167 0.0
C964 C 0.99238 0.41185 0.65177 0.0
C965 C 0.48833 0.58561 0.15717 0.0
C966 C 0.47771 0.58953 0.09191 0.0
C967 C 0.50913 0.5856 0.15738 0.0
C968 C 0.51982 0.58949 0.09233 0.0
H969 H 0.48059 0.58151 0.20721 0.0
H970 H 0.51682 0.58153 0.20759 0.0
S971 S 0.4989 0.6043 0.91111 0.0
N972 N 0.47946 0.60007 0.96366 0.0
N973 N 0.51826 0.60002 0.96405 0.0
C974 C 0.50931 0.59486 0.02846 0.0
C975 C 0.48831 0.59489 0.02826 0.0
C976 C 0.14665 0.11141 0.35986 0.0
C977 C 0.1392 0.1288 0.32785 0.0
C978 C 0.13816 0.10338 0.42334 0.0
C979 C 0.12163 0.1122 0.45674 0.0
H980 H 0.15935 0.10401 0.33625 0.0
H981 H 0.14433 0.08983 0.44516 0.0
S982 S 0.09654 0.15804 0.39513 0.0
N983 N 0.11459 0.15487 0.33494 0.0
N984 N 0.09821 0.13943 0.45376 0.0
C985 C 0.11402 0.12964 0.42558 0.0
C986 C 0.12292 0.13804 0.36134 0.0
C987 C 0.1158 0.87438 0.58371 0.0
C988 C 0.12346 0.89174 0.55204 0.0
C989 C 0.12472 0.86575 0.64575 0.0
C990 C 0.14129 0.8745 0.67926 0.0
H991 H 0.1028 0.86742 0.56049 0.0
H992 H 0.11844 0.85233 0.66827 0.0
S993 S 0.16721 0.91988 0.61717 0.0
N994 N 0.14883 0.91717 0.55825 0.0
N995 N 0.16535 0.90117 0.67509 0.0
C996 C 0.14913 0.8918 0.64789 0.0
C997 C 0.14031 0.90036 0.58415 0.0
C998 C 0.3709 0.87139 0.95168 0.0
C999 C 0.3852 0.88611 0.94091 0.0
C1000 C 0.36191 0.86209 0.89131 0.0
C1001 C 0.3665 0.86775 0.81859 0.0
H1002 H 0.36629 0.86741 0.00702 0.0
H1003 H 0.35051 0.85122 0.90166 0.0
S1004 S 0.40346 0.90498 0.76117 0.0
N1005 N 0.40434 0.90517 0.85236 0.0
N1006 N 0.38671 0.88828 0.73887 0.0
C1007 C 0.38114 0.88204 0.8071 0.0
C1008 C 0.39072 0.89107 0.86841 0.0
C1009 C 0.37005 0.13003 0.05598 0.0
C1010 C 0.38394 0.11494 0.06703 0.0
C1011 C 0.36114 0.13945 0.11618 0.0
C1012 C 0.36535 0.13354 0.18895 0.0
H1013 H 0.36576 0.13427 1.00053 0.0
H1014 H 0.35009 0.15067 0.10558 0.0
S1015 S 0.40109 0.09519 0.24693 0.0
N1016 N 0.40225 0.09516 0.15578 0.0
N1017 N 0.38474 0.1123 0.26899 0.0
C1018 C 0.37955 0.11882 0.20071 0.0
C1019 C 0.38906 0.10965 0.13959 0.0
C1020 C 0.86985 0.8693 0.5572 0.0
C1021 C 0.88453 0.88364 0.56792 0.0
C1022 C 0.86138 0.85952 0.61751 0.0
C1023 C 0.86688 0.86432 0.69023 0.0
H1024 H 0.86462 0.86594 0.50204 0.0
H1025 H 0.84967 0.84895 0.60738 0.0
S1026 S 0.905 0.9004 0.74725 0.0
N1027 N 0.90491 0.9015 0.65609 0.0
N1028 N 0.88823 0.88374 0.7697 0.0
C1029 C 0.88184 0.87828 0.70153 0.0
C1030 C 0.89089 0.88779 0.64016 0.0
C1031 C 0.87843 0.11744 0.30735 0.0
C1032 C 0.86453 0.13255 0.31803 0.0
C1033 C 0.88762 0.10837 0.36776 0.0
C1034 C 0.88263 0.11369 0.44047 0.0
H1035 H 0.8819 0.11237 0.25211 0.0
H1036 H 0.89792 0.09643 0.35761 0.0
S1037 S 0.84757 0.15271 0.49759 0.0
N1038 N 0.8469 0.15307 0.40638 0.0
N1039 N 0.86355 0.13528 0.52004 0.0
C1040 C 0.8691 0.12902 0.45184 0.0
C1041 C 0.8602 0.13867 0.39043 0.0
C1042 C 0.6406 0.14006 0.11558 0.0
C1043 C 0.63542 0.1348 0.18816 0.0
C1044 C 0.63183 0.13068 0.05496 0.0
C1045 C 0.61716 0.11631 0.06531 0.0
H1046 H 0.65227 0.15068 0.10568 0.0
H1047 H 0.63684 0.13435 0.99981 0.0
S1048 S 0.59747 0.09846 0.24433 0.0
N1049 N 0.61438 0.11494 0.26722 0.0
N1050 N 0.59714 0.09794 0.1531 0.0
C1051 C 0.61112 0.11172 0.13754 0.0
C1052 C 0.62047 0.12081 0.19917 0.0
C1053 C 0.62343 0.88414 0.81447 0.0
C1054 C 0.63828 0.86996 0.82454 0.0
C1055 C 0.61401 0.89273 0.87532 0.0
C1056 C 0.61969 0.88787 0.94778 0.0
H1057 H 0.61935 0.88886 0.75934 0.0
H1058 H 0.60295 0.904 0.86562 0.0
S1059 S 0.65749 0.85128 0.00309 0.0
N1060 N 0.65767 0.85076 0.91184 0.0
N1061 N 0.64057 0.8677 0.0264 0.0
C1062 C 0.63424 0.87346 0.9585 0.0
C1063 C 0.64339 0.86427 0.89667 0.0
C1064 C 0.62606 0.63418 0.9483 0.0
C1065 C 0.61225 0.61895 0.93833 0.0
C1066 C 0.63467 0.64361 0.88746 0.0
C1067 C 0.6302 0.63761 0.81498 0.0
H1068 H 0.63071 0.63837 0.00339 0.0
H1069 H 0.64586 0.65474 0.89735 0.0
S1070 S 0.59418 0.59925 0.75948 0.0
N1071 N 0.59347 0.59922 0.85068 0.0
N1072 N 0.61037 0.6164 0.73635 0.0
C1073 C 0.61585 0.62297 0.80427 0.0
C1074 C 0.60667 0.61377 0.86607 0.0
C1075 C 0.62337 0.36696 0.16333 0.0
C1076 C 0.64055 0.37491 0.19545 0.0
C1077 C 0.61443 0.37603 0.10218 0.0
C1078 C 0.62271 0.393 0.07001 0.0
H1079 H 0.61678 0.35366 0.18563 0.0
H1080 H 0.60114 0.36955 0.07925 0.0
S1081 S 0.66743 0.41976 0.13363 0.0
N1082 N 0.66529 0.40097 0.19106 0.0
N1083 N 0.64873 0.41772 0.07574 0.0
C1084 C 0.63984 0.40111 0.10172 0.0
C1085 C 0.64869 0.39215 0.16462 0.0
C1086 C 0.86449 0.39691 0.41151 0.0
C1087 C 0.88163 0.38866 0.44263 0.0
C1088 C 0.85585 0.38879 0.34836 0.0
C1089 C 0.86378 0.37188 0.31454 0.0
H1090 H 0.85785 0.41001 0.43522 0.0
H1091 H 0.84257 0.39563 0.32687 0.0
S1092 S 0.90841 0.34448 0.37463 0.0
N1093 N 0.90635 0.36269 0.4348 0.0
N1094 N 0.88973 0.34706 0.31676 0.0
C1095 C 0.88084 0.36335 0.34527 0.0
C1096 C 0.88987 0.37185 0.40908 0.0
C1097 C 0.87272 0.63462 0.65287 0.0
C1098 C 0.85676 0.62514 0.68778 0.0
C1099 C 0.88183 0.62627 0.59073 0.0
C1100 C 0.87499 0.60842 0.56034 0.0
H1101 H 0.87834 0.64847 0.67415 0.0
H1102 H 0.89429 0.63388 0.56625 0.0
S1103 S 0.83341 0.57795 0.63019 0.0
N1104 N 0.83438 0.597 0.68684 0.0
N1105 N 0.8513 0.58152 0.56985 0.0
C1106 C 0.85888 0.59894 0.59417 0.0
C1107 C 0.84985 0.60723 0.658 0.0
C1108 C 0.37782 0.36617 0.16288 0.0
C1109 C 0.36058 0.37434 0.19385 0.0
C1110 C 0.38693 0.37487 0.10137 0.0
C1111 C 0.37878 0.39169 0.06768 0.0
H1112 H 0.38429 0.35294 0.18621 0.0
H1113 H 0.40021 0.3682 0.07929 0.0
S1114 S 0.33418 0.41911 0.12843 0.0
N1115 N 0.33608 0.40058 0.18715 0.0
N1116 N 0.35296 0.41665 0.07116 0.0
C1117 C 0.36167 0.40009 0.09846 0.0
C1118 C 0.35264 0.39149 0.16172 0.0
C1119 C 0.36792 0.6286 0.94873 0.0
C1120 C 0.38216 0.6138 0.93867 0.0
C1121 C 0.35887 0.6376 0.88791 0.0
C1122 C 0.3633 0.63152 0.81552 0.0
H1123 H 0.36347 0.63293 0.00389 0.0
H1124 H 0.34757 0.64862 0.8977 0.0
S1125 S 0.39993 0.59379 0.76002 0.0
N1126 N 0.401 0.59412 0.85118 0.0
N1127 N 0.38321 0.61044 0.73684 0.0
C1128 C 0.37781 0.61708 0.80471 0.0
C1129 C 0.38747 0.60836 0.86645 0.0
C1130 C 0.13796 0.63992 0.61917 0.0
C1131 C 0.13321 0.63467 0.69218 0.0
C1132 C 0.1293 0.63012 0.55927 0.0
C1133 C 0.11517 0.61527 0.57074 0.0
H1134 H 0.14922 0.65091 0.60835 0.0
H1135 H 0.13394 0.63389 0.50377 0.0
S1136 S 0.09669 0.59719 0.75126 0.0
N1137 N 0.11312 0.61428 0.77282 0.0
N1138 N 0.09608 0.59643 0.66008 0.0
C1139 C 0.10954 0.61063 0.64341 0.0
C1140 C 0.11879 0.62019 0.70431 0.0
C1141 C 0.14739 0.38729 0.33335 0.0
C1142 C 0.13869 0.37038 0.30218 0.0
C1143 C 0.13951 0.39612 0.39645 0.0
C1144 C 0.12239 0.38865 0.43022 0.0
H1145 H 0.16072 0.39352 0.30998 0.0
H1146 H 0.1468 0.40913 0.41826 0.0
S1147 S 0.09362 0.34498 0.36939 0.0
N1148 N 0.11193 0.3465 0.30942 0.0
N1149 N 0.09673 0.36353 0.42744 0.0
C1150 C 0.1133 0.37194 0.39911 0.0
C1151 C 0.12156 0.36269 0.33532 0.0
loop_
_geom_bond_atom_site_label_1
_geom_bond_atom_site_label_2
_geom_bond_distance
_geom_bond_site_symmetry_2
_ccdc_geom_bond_type
O0 Cd1 2.223 . S
O0 C8 1.315 . S
Cd1 O0 2.223 . S
Cd1 O4 2.297 . S
Cd1 O5 2.439 . S
Cd1 O11 2.240 . S
Cd2 O3 2.240 . S
Cd2 O10 2.223 . S
Cd2 O12 2.297 . S
Cd2 O13 2.439 . S
O3 Cd2 2.240 . S
O3 C8 1.279 . S
O4 Cd1 2.297 . S
O4 C6 1.247 1_554 S
O5 Cd1 2.439 . S
O5 C6 1.208 1_554 S
C6 O4 1.247 1_556 S
C6 O5 1.208 1_556 S
C7 O12 1.247 . S
C7 O13 1.208 . S
C8 O0 1.315 . S
C8 O3 1.279 . S
C9 O10 1.315 . S
C9 O11 1.279 . S
O10 Cd2 2.223 . S
O10 C9 1.315 . S
O11 Cd1 2.240 . S
O11 C9 1.279 . S
O12 Cd2 2.297 . S
O12 C7 1.247 . S
O13 Cd2 2.439 . S
O13 C7 1.208 . S
O14 Cd15 2.223 . S
O14 C22 1.315 . S
Cd15 O14 2.223 . S
Cd15 O18 2.297 . S
Cd15 O19 2.439 . S
Cd15 O25 2.240 . S
Cd16 O17 2.240 . S
Cd16 O24 2.223 . S
Cd16 O26 2.297 . S
Cd16 O27 2.439 . S
O17 Cd16 2.240 . S
O17 C22 1.279 . S
O18 Cd15 2.297 . S
O18 C20 1.247 . S
O19 Cd15 2.439 . S
O19 C20 1.208 . S
C20 O18 1.247 . S
C20 O19 1.208 . S
C21 O26 1.247 . S
C21 O27 1.208 . S
C22 O14 1.315 . S
C22 O17 1.279 . S
C23 O24 1.315 . S
C23 O25 1.279 . S
O24 Cd16 2.223 . S
O24 C23 1.315 . S
O25 Cd15 2.240 . S
O25 C23 1.279 . S
O26 Cd16 2.297 . S
O26 C21 1.247 . S
O27 Cd16 2.439 . S
O27 C21 1.208 . S
O28 Cd29 2.223 . S
O28 C36 1.315 . S
Cd29 O28 2.223 . S
Cd29 O32 2.297 . S
Cd29 O33 2.439 . S
Cd29 O39 2.240 . S
Cd30 O31 2.240 . S
Cd30 O38 2.223 . S
Cd30 O40 2.297 . S
Cd30 O41 2.439 . S
O31 Cd30 2.240 . S
O31 C36 1.279 . S
O32 Cd29 2.297 . S
O32 C34 1.247 . S
O33 Cd29 2.439 . S
O33 C34 1.208 . S
C34 O32 1.247 . S
C34 O33 1.208 . S
C35 O40 1.247 . S
C35 O41 1.208 . S
C36 O28 1.315 . S
C36 O31 1.279 . S
C37 O38 1.315 . S
C37 O39 1.279 . S
O38 Cd30 2.223 . S
O38 C37 1.315 . S
O39 Cd29 2.240 . S
O39 C37 1.279 . S
O40 Cd30 2.297 . S
O40 C35 1.247 . S
O41 Cd30 2.439 . S
O41 C35 1.208 . S
O42 Cd43 2.223 . S
O42 C50 1.315 . S
Cd43 O42 2.223 . S
Cd43 O46 2.297 . S
Cd43 O47 2.439 . S
Cd43 O53 2.240 . S
Cd44 O45 2.240 . S
Cd44 O52 2.223 1_556 S
Cd44 O54 2.297 . S
Cd44 O55 2.439 . S
O45 Cd44 2.240 . S
O45 C50 1.279 . S
O46 Cd43 2.297 . S
O46 C48 1.247 . S
O47 Cd43 2.439 . S
O47 C48 1.208 . S
C48 O46 1.247 . S
C48 O47 1.208 . S
C49 O54 1.247 . S
C49 O55 1.208 . S
C50 O42 1.315 . S
C50 O45 1.279 . S
C51 O52 1.315 1_556 S
C51 O53 1.279 . S
O52 Cd44 2.223 1_554 S
O52 C51 1.315 1_554 S
O53 Cd43 2.240 . S
O53 C51 1.279 . S
O54 Cd44 2.297 . S
O54 C49 1.247 . S
O55 Cd44 2.439 . S
O55 C49 1.208 . S
O56 Cd57 2.223 . S
O56 C64 1.315 . S
Cd57 O56 2.223 . S
Cd57 O60 2.297 . S
Cd57 O61 2.439 . S
Cd57 O67 2.240 . S
Cd58 O59 2.240 . S
Cd58 O66 2.223 . S
Cd58 O68 2.297 . S
Cd58 O69 2.439 . S
O59 Cd58 2.240 . S
O59 C64 1.279 . S
O60 Cd57 2.297 . S
O60 C62 1.247 1_556 S
O61 Cd57 2.439 . S
O61 C62 1.208 1_556 S
C62 O60 1.247 1_554 S
C62 O61 1.208 1_554 S
C63 O68 1.247 . S
C63 O69 1.208 . S
C64 O56 1.315 . S
C64 O59 1.279 . S
C65 O66 1.315 . S
C65 O67 1.279 . S
O66 Cd58 2.223 . S
O66 C65 1.315 . S
O67 Cd57 2.240 . S
O67 C65 1.279 . S
O68 Cd58 2.297 . S
O68 C63 1.247 . S
O69 Cd58 2.439 . S
O69 C63 1.208 . S
O70 Cd71 2.223 . S
O70 C78 1.315 . S
Cd71 O70 2.223 . S
Cd71 O74 2.297 . S
Cd71 O75 2.439 . S
Cd71 O81 2.240 . S
Cd72 O73 2.240 . S
Cd72 O80 2.223 1_554 S
Cd72 O82 2.297 . S
Cd72 O83 2.439 . S
O73 Cd72 2.240 . S
O73 C78 1.279 . S
O74 Cd71 2.297 . S
O74 C76 1.247 . S
O75 Cd71 2.439 . S
O75 C76 1.208 . S
C76 O74 1.247 . S
C76 O75 1.208 . S
C77 O82 1.247 . S
C77 O83 1.208 . S
C78 O70 1.315 . S
C78 O73 1.279 . S
C79 O80 1.315 1_554 S
C79 O81 1.279 . S
O80 Cd72 2.223 1_556 S
O80 C79 1.315 1_556 S
O81 Cd71 2.240 . S
O81 C79 1.279 . S
O82 Cd72 2.297 . S
O82 C77 1.247 . S
O83 Cd72 2.439 . S
O83 C77 1.208 . S
O84 Cd85 2.223 . S
O84 C92 1.315 . S
Cd85 O84 2.223 . S
Cd85 O88 2.297 . S
Cd85 O89 2.439 . S
Cd85 O95 2.240 . S
Cd86 O87 2.240 . S
Cd86 O94 2.223 . S
Cd86 O96 2.297 . S
Cd86 O97 2.439 . S
O87 Cd86 2.240 . S
O87 C92 1.279 . S
O88 Cd85 2.297 . S
O88 C90 1.247 . S
O89 Cd85 2.439 . S
O89 C90 1.208 . S
C90 O88 1.247 . S
C90 O89 1.208 . S
C91 O96 1.247 . S
C91 O97 1.208 . S
C92 O84 1.315 . S
C92 O87 1.279 . S
C93 O94 1.315 . S
C93 O95 1.279 . S
O94 Cd86 2.223 . S
O94 C93 1.315 . S
O95 Cd85 2.240 . S
O95 C93 1.279 . S
O96 Cd86 2.297 . S
O96 C91 1.247 . S
O97 Cd86 2.439 . S
O97 C91 1.208 . S
O98 Cd99 2.223 . S
O98 C106 1.315 . S
Cd99 O98 2.223 . S
Cd99 O102 2.297 . S
Cd99 O103 2.439 . S
Cd99 O109 2.240 . S
Cd100 O101 2.240 . S
Cd100 O108 2.223 . S
Cd100 O110 2.297 . S
Cd100 O111 2.439 . S
O101 Cd100 2.240 . S
O101 C106 1.279 . S
O102 Cd99 2.297 . S
O102 C104 1.247 . S
O103 Cd99 2.439 . S
O103 C104 1.208 . S
C104 O102 1.247 . S
C104 O103 1.208 . S
C105 O110 1.247 . S
C105 O111 1.208 . S
C106 O98 1.315 . S
C106 O101 1.279 . S
C107 O108 1.315 . S
C107 O109 1.279 . S
O108 Cd100 2.223 . S
O108 C107 1.315 . S
O109 Cd99 2.240 . S
O109 C107 1.279 . S
O110 Cd100 2.297 . S
O110 C105 1.247 . S
O111 Cd100 2.439 . S
O111 C105 1.208 . S
O112 Cd113 2.223 . S
O112 C120 1.315 . S
Cd113 O112 2.223 . S
Cd113 O116 2.297 . S
Cd113 O117 2.439 . S
Cd113 O123 2.240 . S
Cd114 O115 2.240 . S
Cd114 O122 2.223 . S
Cd114 O124 2.297 . S
Cd114 O125 2.439 . S
O115 Cd114 2.240 . S
O115 C120 1.279 . S
O116 Cd113 2.297 . S
O116 C118 1.247 1_556 S
O117 Cd113 2.439 . S
O117 C118 1.208 1_556 S
C118 O116 1.247 1_554 S
C118 O117 1.208 1_554 S
C119 O124 1.247 . S
C119 O125 1.208 . S
C120 O112 1.315 . S
C120 O115 1.279 . S
C121 O122 1.315 . S
C121 O123 1.279 . S
O122 Cd114 2.223 . S
O122 C121 1.315 . S
O123 Cd113 2.240 . S
O123 C121 1.279 . S
O124 Cd114 2.297 . S
O124 C119 1.247 . S
O125 Cd114 2.439 . S
O125 C119 1.208 . S
O126 Cd127 2.223 . S
O126 C134 1.315 . S
Cd127 O126 2.223 . S
Cd127 O130 2.297 . S
Cd127 O131 2.439 . S
Cd127 O137 2.240 . S
Cd128 O129 2.240 . S
Cd128 O136 2.223 . S
Cd128 O138 2.297 . S
Cd128 O139 2.439 . S
O129 Cd128 2.240 . S
O129 C134 1.279 . S
O130 Cd127 2.297 . S
O130 C132 1.247 . S
O131 Cd127 2.439 . S
O131 C132 1.208 . S
C132 O130 1.247 . S
C132 O131 1.208 . S
C133 O138 1.247 . S
C133 O139 1.208 . S
C134 O126 1.315 . S
C134 O129 1.279 . S
C135 O136 1.315 . S
C135 O137 1.279 . S
O136 Cd128 2.223 . S
O136 C135 1.315 . S
O137 Cd127 2.240 . S
O137 C135 1.279 . S
O138 Cd128 2.297 . S
O138 C133 1.247 . S
O139 Cd128 2.439 . S
O139 C133 1.208 . S
O140 Cd141 2.223 . S
O140 C148 1.315 . S
Cd141 O140 2.223 . S
Cd141 O144 2.297 . S
Cd141 O145 2.439 . S
Cd141 O151 2.240 . S
Cd142 O143 2.240 . S
Cd142 O150 2.223 . S
Cd142 O152 2.297 . S
Cd142 O153 2.439 . S
O143 Cd142 2.240 . S
O143 C148 1.279 . S
O144 Cd141 2.297 . S
O144 C146 1.247 . S
O145 Cd141 2.439 . S
O145 C146 1.208 . S
C146 O144 1.247 . S
C146 O145 1.208 . S
C147 O152 1.247 . S
C147 O153 1.208 . S
C148 O140 1.315 . S
C148 O143 1.279 . S
C149 O150 1.315 . S
C149 O151 1.279 . S
O150 Cd142 2.223 . S
O150 C149 1.315 . S
O151 Cd141 2.240 . S
O151 C149 1.279 . S
O152 Cd142 2.297 . S
O152 C147 1.247 . S
O153 Cd142 2.439 . S
O153 C147 1.208 . S
O154 Cd155 2.223 . S
O154 C162 1.315 . S
Cd155 O154 2.223 . S
Cd155 O158 2.297 . S
Cd155 O159 2.439 . S
Cd155 O165 2.240 . S
Cd156 O157 2.240 . S
Cd156 O164 2.223 1_554 S
Cd156 O166 2.297 . S
Cd156 O167 2.439 . S
O157 Cd156 2.240 . S
O157 C162 1.279 . S
O158 Cd155 2.297 . S
O158 C160 1.247 . S
O159 Cd155 2.439 . S
O159 C160 1.208 . S
C160 O158 1.247 . S
C160 O159 1.208 . S
C161 O166 1.247 . S
C161 O167 1.208 . S
C162 O154 1.315 . S
C162 O157 1.279 . S
C163 O164 1.315 1_554 S
C163 O165 1.279 . S
O164 Cd156 2.223 1_556 S
O164 C163 1.315 1_556 S
O165 Cd155 2.240 . S
O165 C163 1.279 . S
O166 Cd156 2.297 . S
O166 C161 1.247 . S
O167 Cd156 2.439 . S
O167 C161 1.208 . S
O168 Cd169 2.223 . S
O168 C176 1.315 . S
Cd169 O168 2.223 . S
Cd169 O172 2.297 . S
Cd169 O173 2.439 . S
Cd169 O179 2.240 . S
Cd170 O171 2.240 . S
Cd170 O178 2.223 . S
Cd170 O180 2.297 . S
Cd170 O181 2.439 . S
O171 Cd170 2.240 . S
O171 C176 1.279 . S
O172 Cd169 2.297 . S
O172 C174 1.247 1_554 S
O173 Cd169 2.439 . S
O173 C174 1.208 1_554 S
C174 O172 1.247 1_556 S
C174 O173 1.208 1_556 S
C175 O180 1.247 . S
C175 O181 1.208 . S
C176 O168 1.315 . S
C176 O171 1.279 . S
C177 O178 1.315 . S
C177 O179 1.279 . S
O178 Cd170 2.223 . S
O178 C177 1.315 . S
O179 Cd169 2.240 . S
O179 C177 1.279 . S
O180 Cd170 2.297 . S
O180 C175 1.247 . S
O181 Cd170 2.439 . S
O181 C175 1.208 . S
O182 Cd183 2.223 . S
O182 C190 1.315 . S
Cd183 O182 2.223 . S
Cd183 O186 2.297 . S
Cd183 O187 2.439 . S
Cd183 O193 2.240 . S
Cd184 O185 2.240 . S
Cd184 O192 2.223 1_556 S
Cd184 O194 2.297 . S
Cd184 O195 2.439 . S
O185 Cd184 2.240 . S
O185 C190 1.279 . S
O186 Cd183 2.297 . S
O186 C188 1.247 . S
O187 Cd183 2.439 . S
O187 C188 1.208 . S
C188 O186 1.247 . S
C188 O187 1.208 . S
C189 O194 1.247 . S
C189 O195 1.208 . S
C190 O182 1.315 . S
C190 O185 1.279 . S
C191 O192 1.315 1_556 S
C191 O193 1.279 . S
O192 Cd184 2.223 1_554 S
O192 C191 1.315 1_554 S
O193 Cd183 2.240 . S
O193 C191 1.279 . S
O194 Cd184 2.297 . S
O194 C189 1.247 . S
O195 Cd184 2.439 . S
O195 C189 1.208 . S
O196 Cd197 2.223 . S
O196 C204 1.315 . S
Cd197 O196 2.223 . S
Cd197 O200 2.297 . S
Cd197 O201 2.439 . S
Cd197 O207 2.240 . S
Cd198 O199 2.240 . S
Cd198 O206 2.223 . S
Cd198 O208 2.297 . S
Cd198 O209 2.439 . S
O199 Cd198 2.240 . S
O199 C204 1.279 . S
O200 Cd197 2.297 . S
O200 C202 1.247 . S
O201 Cd197 2.439 . S
O201 C202 1.208 . S
C202 O200 1.247 . S
C202 O201 1.208 . S
C203 O208 1.247 . S
C203 O209 1.208 . S
C204 O196 1.315 . S
C204 O199 1.279 . S
C205 O206 1.315 . S
C205 O207 1.279 . S
O206 Cd198 2.223 . S
O206 C205 1.315 . S
O207 Cd197 2.240 . S
O207 C205 1.279 . S
O208 Cd198 2.297 . S
O208 C203 1.247 . S
O209 Cd198 2.439 . S
O209 C203 1.208 . S
O210 Cd211 2.223 . S
O210 C218 1.315 . S
Cd211 O210 2.223 . S
Cd211 O214 2.297 . S
Cd211 O215 2.439 . S
Cd211 O221 2.240 . S
Cd212 O213 2.240 . S
Cd212 O220 2.223 . S
Cd212 O222 2.297 . S
Cd212 O223 2.439 . S
O213 Cd212 2.240 . S
O213 C218 1.279 . S
O214 Cd211 2.297 . S
O214 C216 1.247 . S
O215 Cd211 2.439 . S
O215 C216 1.208 . S
C216 O214 1.247 . S
C216 O215 1.208 . S
C217 O222 1.247 . S
C217 O223 1.208 . S
C218 O210 1.315 . S
C218 O213 1.279 . S
C219 O220 1.315 . S
C219 O221 1.279 . S
O220 Cd212 2.223 . S
O220 C219 1.315 . S
O221 Cd211 2.240 . S
O221 C219 1.279 . S
O222 Cd212 2.297 . S
O222 C217 1.247 . S
O223 Cd212 2.439 . S
O223 C217 1.208 . S
O224 Cd225 2.223 . S
O224 C232 1.315 . S
Cd225 O224 2.223 . S
Cd225 O228 2.297 . S
Cd225 O229 2.439 . S
Cd225 O235 2.240 . S
Cd226 O227 2.240 . S
Cd226 O234 2.223 . S
Cd226 O236 2.297 . S
Cd226 O237 2.439 . S
O227 Cd226 2.240 . S
O227 C232 1.279 . S
O228 Cd225 2.297 . S
O228 C230 1.247 . S
O229 Cd225 2.439 . S
O229 C230 1.208 . S
C230 O228 1.247 . S
C230 O229 1.208 . S
C231 O236 1.247 . S
C231 O237 1.208 . S
C232 O224 1.315 . S
C232 O227 1.279 . S
C233 O234 1.315 . S
C233 O235 1.279 . S
O234 Cd226 2.223 . S
O234 C233 1.315 . S
O235 Cd225 2.240 . S
O235 C233 1.279 . S
O236 Cd226 2.297 . S
O236 C231 1.247 . S
O237 Cd226 2.439 . S
O237 C231 1.208 . S
O238 Cd239 2.223 . S
O238 C246 1.315 . S
Cd239 O238 2.223 . S
Cd239 O242 2.297 . S
Cd239 O243 2.439 . S
Cd239 O249 2.240 . S
Cd240 O241 2.240 . S
Cd240 O248 2.223 1_556 S
Cd240 O250 2.297 . S
Cd240 O251 2.439 . S
O241 Cd240 2.240 . S
O241 C246 1.279 . S
O242 Cd239 2.297 . S
O242 C244 1.247 . S
O243 Cd239 2.439 . S
O243 C244 1.208 . S
C244 O242 1.247 . S
C244 O243 1.208 . S
C245 O250 1.247 . S
C245 O251 1.208 . S
C246 O238 1.315 . S
C246 O241 1.279 . S
C247 O248 1.315 1_556 S
C247 O249 1.279 . S
O248 Cd240 2.223 1_554 S
O248 C247 1.315 1_554 S
O249 Cd239 2.240 . S
O249 C247 1.279 . S
O250 Cd240 2.297 . S
O250 C245 1.247 . S
O251 Cd240 2.439 . S
O251 C245 1.208 . S
O252 Cd253 2.223 . S
O252 C260 1.315 . S
Cd253 O252 2.223 . S
Cd253 O256 2.297 . S
Cd253 O257 2.439 . S
Cd253 O263 2.240 . S
Cd254 O255 2.240 . S
Cd254 O262 2.223 . S
Cd254 O264 2.297 . S
Cd254 O265 2.439 . S
O255 Cd254 2.240 . S
O255 C260 1.279 . S
O256 Cd253 2.297 . S
O256 C258 1.247 1_554 S
O257 Cd253 2.439 . S
O257 C258 1.208 1_554 S
C258 O256 1.247 1_556 S
C258 O257 1.208 1_556 S
C259 O264 1.247 . S
C259 O265 1.208 . S
C260 O252 1.315 . S
C260 O255 1.279 . S
C261 O262 1.315 . S
C261 O263 1.279 . S
O262 Cd254 2.223 . S
O262 C261 1.315 . S
O263 Cd253 2.240 . S
O263 C261 1.279 . S
O264 Cd254 2.297 . S
O264 C259 1.247 . S
O265 Cd254 2.439 . S
O265 C259 1.208 . S
O266 Cd267 2.223 . S
O266 C274 1.315 . S
Cd267 O266 2.223 . S
Cd267 O270 2.297 . S
Cd267 O271 2.439 . S
Cd267 O277 2.240 . S
Cd268 O269 2.240 . S
Cd268 O276 2.223 . S
Cd268 O278 2.297 . S
Cd268 O279 2.439 . S
O269 Cd268 2.240 . S
O269 C274 1.279 . S
O270 Cd267 2.297 . S
O270 C272 1.247 . S
O271 Cd267 2.439 . S
O271 C272 1.208 . S
C272 O270 1.247 . S
C272 O271 1.208 . S
C273 O278 1.247 . S
C273 O279 1.208 . S
C274 O266 1.315 . S
C274 O269 1.279 . S
C275 O276 1.315 . S
C275 O277 1.279 . S
O276 Cd268 2.223 . S
O276 C275 1.315 . S
O277 Cd267 2.240 . S
O277 C275 1.279 . S
O278 Cd268 2.297 . S
O278 C273 1.247 . S
O279 Cd268 2.439 . S
O279 C273 1.208 . S
O280 Cd281 2.223 . S
O280 C288 1.315 . S
Cd281 O280 2.223 . S
Cd281 O284 2.297 . S
Cd281 O285 2.439 . S
Cd281 O291 2.240 . S
Cd282 O283 2.240 . S
Cd282 O290 2.223 . S
Cd282 O292 2.297 . S
Cd282 O293 2.439 . S
O283 Cd282 2.240 . S
O283 C288 1.279 . S
O284 Cd281 2.297 . S
O284 C286 1.247 . S
O285 Cd281 2.439 . S
O285 C286 1.208 . S
C286 O284 1.247 . S
C286 O285 1.208 . S
C287 O292 1.247 . S
C287 O293 1.208 . S
C288 O280 1.315 . S
C288 O283 1.279 . S
C289 O290 1.315 . S
C289 O291 1.279 . S
O290 Cd282 2.223 . S
O290 C289 1.315 . S
O291 Cd281 2.240 . S
O291 C289 1.279 . S
O292 Cd282 2.297 . S
O292 C287 1.247 . S
O293 Cd282 2.439 . S
O293 C287 1.208 . S
O294 Cd295 2.223 . S
O294 C302 1.315 . S
Cd295 O294 2.223 . S
Cd295 O298 2.297 . S
Cd295 O299 2.439 . S
Cd295 O305 2.240 . S
Cd296 O297 2.240 . S
Cd296 O304 2.223 . S
Cd296 O306 2.297 . S
Cd296 O307 2.439 . S
O297 Cd296 2.240 . S
O297 C302 1.279 . S
O298 Cd295 2.297 . S
O298 C300 1.247 . S
O299 Cd295 2.439 . S
O299 C300 1.208 . S
C300 O298 1.247 . S
C300 O299 1.208 . S
C301 O306 1.247 . S
C301 O307 1.208 . S
C302 O294 1.315 . S
C302 O297 1.279 . S
C303 O304 1.315 . S
C303 O305 1.279 . S
O304 Cd296 2.223 . S
O304 C303 1.315 . S
O305 Cd295 2.240 . S
O305 C303 1.279 . S
O306 Cd296 2.297 . S
O306 C301 1.247 . S
O307 Cd296 2.439 . S
O307 C301 1.208 . S
O308 Cd309 2.223 . S
O308 C316 1.315 . S
Cd309 O308 2.223 . S
Cd309 O312 2.297 . S
Cd309 O313 2.439 . S
Cd309 O319 2.240 . S
Cd310 O311 2.240 . S
Cd310 O318 2.223 . S
Cd310 O320 2.297 . S
Cd310 O321 2.439 . S
O311 Cd310 2.240 . S
O311 C316 1.279 . S
O312 Cd309 2.297 . S
O312 C314 1.247 1_556 S
O313 Cd309 2.439 . S
O313 C314 1.208 1_556 S
C314 O312 1.247 1_554 S
C314 O313 1.208 1_554 S
C315 O320 1.247 . S
C315 O321 1.208 . S
C316 O308 1.315 . S
C316 O311 1.279 . S
C317 O318 1.315 . S
C317 O319 1.279 . S
O318 Cd310 2.223 . S
O318 C317 1.315 . S
O319 Cd309 2.240 . S
O319 C317 1.279 . S
O320 Cd310 2.297 . S
O320 C315 1.247 . S
O321 Cd310 2.439 . S
O321 C315 1.208 . S
O322 Cd323 2.223 . S
O322 C330 1.315 . S
Cd323 O322 2.223 . S
Cd323 O326 2.297 . S
Cd323 O327 2.439 . S
Cd323 O333 2.240 . S
Cd324 O325 2.240 . S
Cd324 O332 2.223 1_554 S
Cd324 O334 2.297 . S
Cd324 O335 2.439 . S
O325 Cd324 2.240 . S
O325 C330 1.279 . S
O326 Cd323 2.297 . S
O326 C328 1.247 . S
O327 Cd323 2.439 . S
O327 C328 1.208 . S
C328 O326 1.247 . S
C328 O327 1.208 . S
C329 O334 1.247 . S
C329 O335 1.208 . S
C330 O322 1.315 . S
C330 O325 1.279 . S
C331 O332 1.315 1_554 S
C331 O333 1.279 . S
O332 Cd324 2.223 1_556 S
O332 C331 1.315 1_556 S
O333 Cd323 2.240 . S
O333 C331 1.279 . S
O334 Cd324 2.297 . S
O334 C329 1.247 . S
O335 Cd324 2.439 . S
O335 C329 1.208 . S
O336 Cd337 2.223 . S
O336 C344 1.315 . S
Cd337 O336 2.223 . S
Cd337 O340 2.297 . S
Cd337 O341 2.439 . S
Cd337 O347 2.240 . S
Cd338 O339 2.240 . S
Cd338 O346 2.223 . S
Cd338 O348 2.297 . S
Cd338 O349 2.439 . S
O339 Cd338 2.240 . S
O339 C344 1.279 . S
O340 Cd337 2.297 . S
O340 C342 1.247 . S
O341 Cd337 2.439 . S
O341 C342 1.208 . S
C342 O340 1.247 . S
C342 O341 1.208 . S
C343 O348 1.247 . S
C343 O349 1.208 . S
C344 O336 1.315 . S
C344 O339 1.279 . S
C345 O346 1.315 . S
C345 O347 1.279 . S
O346 Cd338 2.223 . S
O346 C345 1.315 . S
O347 Cd337 2.240 . S
O347 C345 1.279 . S
O348 Cd338 2.297 . S
O348 C343 1.247 . S
O349 Cd338 2.439 . S
O349 C343 1.208 . S
O350 Cd351 2.223 . S
O350 C358 1.315 . S
Cd351 O350 2.223 . S
Cd351 O354 2.297 . S
Cd351 O355 2.439 . S
Cd351 O361 2.240 . S
Cd352 O353 2.240 . S
Cd352 O360 2.223 1_554 S
Cd352 O362 2.297 . S
Cd352 O363 2.439 . S
O353 Cd352 2.240 . S
O353 C358 1.279 . S
O354 Cd351 2.297 . S
O354 C356 1.247 . S
O355 Cd351 2.439 . S
O355 C356 1.208 . S
C356 O354 1.247 . S
C356 O355 1.208 . S
C357 O362 1.247 . S
C357 O363 1.208 . S
C358 O350 1.315 . S
C358 O353 1.279 . S
C359 O360 1.315 1_554 S
C359 O361 1.279 . S
O360 Cd352 2.223 1_556 S
O360 C359 1.315 1_556 S
O361 Cd351 2.240 . S
O361 C359 1.279 . S
O362 Cd352 2.297 . S
O362 C357 1.247 . S
O363 Cd352 2.439 . S
O363 C357 1.208 . S
O364 Cd365 2.223 . S
O364 C372 1.315 . S
Cd365 O364 2.223 . S
Cd365 O368 2.297 . S
Cd365 O369 2.439 . S
Cd365 O375 2.240 . S
Cd366 O367 2.240 . S
Cd366 O374 2.223 . S
Cd366 O376 2.297 . S
Cd366 O377 2.439 . S
O367 Cd366 2.240 . S
O367 C372 1.279 . S
O368 Cd365 2.297 . S
O368 C370 1.247 1_556 S
O369 Cd365 2.439 . S
O369 C370 1.208 1_556 S
C370 O368 1.247 1_554 S
C370 O369 1.208 1_554 S
C371 O376 1.247 . S
C371 O377 1.208 . S
C372 O364 1.315 . S
C372 O367 1.279 . S
C373 O374 1.315 . S
C373 O375 1.279 . S
O374 Cd366 2.223 . S
O374 C373 1.315 . S
O375 Cd365 2.240 . S
O375 C373 1.279 . S
O376 Cd366 2.297 . S
O376 C371 1.247 . S
O377 Cd366 2.439 . S
O377 C371 1.208 . S
O378 Cd379 2.223 . S
O378 C386 1.315 . S
Cd379 O378 2.223 . S
Cd379 O382 2.297 . S
Cd379 O383 2.439 . S
Cd379 O389 2.240 . S
Cd380 O381 2.240 . S
Cd380 O388 2.223 . S
Cd380 O390 2.297 . S
Cd380 O391 2.439 . S
O381 Cd380 2.240 . S
O381 C386 1.279 . S
O382 Cd379 2.297 . S
O382 C384 1.247 . S
O383 Cd379 2.439 . S
O383 C384 1.208 . S
C384 O382 1.247 . S
C384 O383 1.208 . S
C385 O390 1.247 . S
C385 O391 1.208 . S
C386 O378 1.315 . S
C386 O381 1.279 . S
C387 O388 1.315 . S
C387 O389 1.279 . S
O388 Cd380 2.223 . S
O388 C387 1.315 . S
O389 Cd379 2.240 . S
O389 C387 1.279 . S
O390 Cd380 2.297 . S
O390 C385 1.247 . S
O391 Cd380 2.439 . S
O391 C385 1.208 . S
O392 Cd393 2.223 . S
O392 C400 1.315 . S
Cd393 O392 2.223 . S
Cd393 O396 2.297 . S
Cd393 O397 2.439 . S
Cd393 O403 2.240 . S
Cd394 O395 2.240 . S
Cd394 O402 2.223 . S
Cd394 O404 2.297 . S
Cd394 O405 2.439 . S
O395 Cd394 2.240 . S
O395 C400 1.279 . S
O396 Cd393 2.297 . S
O396 C398 1.247 . S
O397 Cd393 2.439 . S
O397 C398 1.208 . S
C398 O396 1.247 . S
C398 O397 1.208 . S
C399 O404 1.247 . S
C399 O405 1.208 . S
C400 O392 1.315 . S
C400 O395 1.279 . S
C401 O402 1.315 . S
C401 O403 1.279 . S
O402 Cd394 2.223 . S
O402 C401 1.315 . S
O403 Cd393 2.240 . S
O403 C401 1.279 . S
O404 Cd394 2.297 . S
O404 C399 1.247 . S
O405 Cd394 2.439 . S
O405 C399 1.208 . S
O406 Cd407 2.223 . S
O406 C414 1.315 . S
Cd407 O406 2.223 . S
Cd407 O410 2.297 . S
Cd407 O411 2.439 . S
Cd407 O417 2.240 . S
Cd408 O409 2.240 . S
Cd408 O416 2.223 . S
Cd408 O418 2.297 . S
Cd408 O419 2.439 . S
O409 Cd408 2.240 . S
O409 C414 1.279 . S
O410 Cd407 2.297 . S
O410 C412 1.247 . S
O411 Cd407 2.439 . S
O411 C412 1.208 . S
C412 O410 1.247 . S
C412 O411 1.208 . S
C413 O418 1.247 . S
C413 O419 1.208 . S
C414 O406 1.315 . S
C414 O409 1.279 . S
C415 O416 1.315 . S
C415 O417 1.279 . S
O416 Cd408 2.223 . S
O416 C415 1.315 . S
O417 Cd407 2.240 . S
O417 C415 1.279 . S
O418 Cd408 2.297 . S
O418 C413 1.247 . S
O419 Cd408 2.439 . S
O419 C413 1.208 . S
O420 Cd421 2.223 . S
O420 C428 1.315 . S
Cd421 O420 2.223 . S
Cd421 O424 2.297 . S
Cd421 O425 2.439 . S
Cd421 O431 2.240 . S
Cd422 O423 2.240 . S
Cd422 O430 2.223 . S
Cd422 O432 2.297 . S
Cd422 O433 2.439 . S
O423 Cd422 2.240 . S
O423 C428 1.279 . S
O424 Cd421 2.297 . S
O424 C426 1.247 1_554 S
O425 Cd421 2.439 . S
O425 C426 1.208 1_554 S
C426 O424 1.247 1_556 S
C426 O425 1.208 1_556 S
C427 O432 1.247 . S
C427 O433 1.208 . S
C428 O420 1.315 . S
C428 O423 1.279 . S
C429 O430 1.315 . S
C429 O431 1.279 . S
O430 Cd422 2.223 . S
O430 C429 1.315 . S
O431 Cd421 2.240 . S
O431 C429 1.279 . S
O432 Cd422 2.297 . S
O432 C427 1.247 . S
O433 Cd422 2.439 . S
O433 C427 1.208 . S
O434 Cd435 2.223 . S
O434 C442 1.315 . S
Cd435 O434 2.223 . S
Cd435 O438 2.297 . S
Cd435 O439 2.439 . S
Cd435 O445 2.240 . S
Cd436 O437 2.240 . S
Cd436 O444 2.223 1_556 S
Cd436 O446 2.297 . S
Cd436 O447 2.439 . S
O437 Cd436 2.240 . S
O437 C442 1.279 . S
O438 Cd435 2.297 . S
O438 C440 1.247 . S
O439 Cd435 2.439 . S
O439 C440 1.208 . S
C440 O438 1.247 . S
C440 O439 1.208 . S
C441 O446 1.247 . S
C441 O447 1.208 . S
C442 O434 1.315 . S
C442 O437 1.279 . S
C443 O444 1.315 1_556 S
C443 O445 1.279 . S
O444 Cd436 2.223 1_554 S
O444 C443 1.315 1_554 S
O445 Cd435 2.240 . S
O445 C443 1.279 . S
O446 Cd436 2.297 . S
O446 C441 1.247 . S
O447 Cd436 2.439 . S
O447 C441 1.208 . S
C448 C449 1.369 . S
C448 C450 1.419 . S
C448 H452 0.930 . S
C449 C448 1.369 . S
C449 C458 1.429 . S
C450 C448 1.419 . S
C450 C451 1.363 . S
C450 H453 0.929 . S
C451 C450 1.363 . S
C451 C457 1.428 . S
H452 C448 0.930 . S
H453 C450 0.929 . S
S454 N455 1.613 . S
S454 N456 1.610 . S
N455 S454 1.613 . S
N455 C458 1.350 . S
N456 S454 1.610 . S
N456 C457 1.351 . S
C457 C451 1.428 . S
C457 N456 1.351 . S
C457 C458 1.434 . S
C458 C449 1.429 . S
C458 N455 1.350 . S
C458 C457 1.434 . S
C459 C460 1.369 . S
C459 C461 1.419 1_565 S
C459 H463 0.930 . S
C460 C459 1.369 . S
C460 C469 1.429 . S
C461 C459 1.419 1_545 S
C461 C462 1.363 . S
C461 H464 0.929 . S
C462 C461 1.363 . S
C462 C468 1.428 . S
H463 C459 0.930 . S
H464 C461 0.929 . S
S465 N466 1.613 1_545 S
S465 N467 1.610 . S
N466 S465 1.613 1_565 S
N466 C469 1.350 . S
N467 S465 1.610 . S
N467 C468 1.351 . S
C468 C462 1.428 . S
C468 N467 1.351 . S
C468 C469 1.434 1_545 S
C469 C460 1.429 . S
C469 N466 1.350 . S
C469 C468 1.434 1_565 S
C470 C471 1.369 . S
C470 C472 1.419 . S
C470 H474 0.930 . S
C471 C470 1.369 . S
C471 C480 1.429 . S
C472 C470 1.419 . S
C472 C473 1.363 . S
C472 H475 0.929 . S
C473 C472 1.363 . S
C473 C479 1.428 . S
H474 C470 0.930 . S
H475 C472 0.929 . S
S476 N477 1.613 . S
S476 N478 1.610 . S
N477 S476 1.613 . S
N477 C480 1.350 . S
N478 S476 1.610 . S
N478 C479 1.351 . S
C479 C473 1.428 . S
C479 N478 1.351 . S
C479 C480 1.434 . S
C480 C471 1.429 . S
C480 N477 1.350 . S
C480 C479 1.434 . S
C481 C482 1.369 . S
C481 C483 1.419 1_545 S
C481 H485 0.930 . S
C482 C481 1.369 . S
C482 C491 1.429 1_556 S
C483 C481 1.419 1_565 S
C483 C484 1.363 1_556 S
C483 H486 0.929 . S
C484 C483 1.363 1_554 S
C484 C490 1.428 . S
H485 C481 0.930 . S
H486 C483 0.929 . S
S487 N488 1.613 . S
S487 N489 1.610 1_545 S
N488 S487 1.613 . S
N488 C491 1.350 . S
N489 S487 1.610 1_565 S
N489 C490 1.351 . S
C490 C484 1.428 . S
C490 N489 1.351 . S
C490 C491 1.434 1_565 S
C491 C482 1.429 1_554 S
C491 N488 1.350 . S
C491 C490 1.434 1_545 S
C492 C493 1.369 . S
C492 C494 1.419 . S
C492 H496 0.930 . S
C493 C492 1.369 . S
C493 C502 1.429 . S
C494 C492 1.419 . S
C494 C495 1.363 . S
C494 H497 0.929 . S
C495 C494 1.363 . S
C495 C501 1.428 . S
H496 C492 0.930 . S
H497 C494 0.929 . S
S498 N499 1.613 . S
S498 N500 1.610 . S
N499 S498 1.613 . S
N499 C502 1.350 . S
N500 S498 1.610 . S
N500 C501 1.351 . S
C501 C495 1.428 . S
C501 N500 1.351 . S
C501 C502 1.434 . S
C502 C493 1.429 . S
C502 N499 1.350 . S
C502 C501 1.434 . S
C503 C504 1.369 . S
C503 C505 1.419 1_565 S
C503 H507 0.930 . S
C504 C503 1.369 . S
C504 C513 1.429 . S
C505 C503 1.419 1_545 S
C505 C506 1.363 . S
C505 H508 0.929 . S
C506 C505 1.363 . S
C506 C512 1.428 . S
H507 C503 0.930 . S
H508 C505 0.929 . S
S509 N510 1.613 . S
S509 N511 1.610 1_565 S
N510 S509 1.613 . S
N510 C513 1.350 . S
N511 S509 1.610 1_545 S
N511 C512 1.351 . S
C512 C506 1.428 . S
C512 N511 1.351 . S
C512 C513 1.434 1_545 S
C513 C504 1.429 . S
C513 N510 1.350 . S
C513 C512 1.434 1_565 S
C514 C515 1.369 . S
C514 C516 1.419 . S
C514 H518 0.930 . S
C515 C514 1.369 . S
C515 C524 1.429 . S
C516 C514 1.419 . S
C516 C517 1.363 . S
C516 H519 0.929 . S
C517 C516 1.363 . S
C517 C523 1.428 . S
H518 C514 0.930 . S
H519 C516 0.929 . S
S520 N521 1.613 . S
S520 N522 1.610 . S
N521 S520 1.613 . S
N521 C524 1.350 . S
N522 S520 1.610 . S
N522 C523 1.351 . S
C523 C517 1.428 . S
C523 N522 1.351 . S
C523 C524 1.434 . S
C524 C515 1.429 . S
C524 N521 1.350 . S
C524 C523 1.434 . S
C525 C526 1.369 . S
C525 C527 1.419 1_545 S
C525 H529 0.930 . S
C526 C525 1.369 . S
C526 C535 1.429 1_556 S
C527 C525 1.419 1_565 S
C527 C528 1.363 1_556 S
C527 H530 0.929 . S
C528 C527 1.363 1_554 S
C528 C534 1.428 . S
H529 C525 0.930 . S
H530 C527 0.929 . S
S531 N532 1.613 . S
S531 N533 1.610 1_545 S
N532 S531 1.613 . S
N532 C535 1.350 . S
N533 S531 1.610 1_565 S
N533 C534 1.351 . S
C534 C528 1.428 . S
C534 N533 1.351 . S
C534 C535 1.434 1_565 S
C535 C526 1.429 1_554 S
C535 N532 1.350 . S
C535 C534 1.434 1_545 S
C536 C537 1.369 . S
C536 C538 1.419 . S
C536 H540 0.930 . S
C537 C536 1.369 . S
C537 C546 1.429 . S
C538 C536 1.419 . S
C538 C539 1.363 . S
C538 H541 0.929 . S
C539 C538 1.363 . S
C539 C545 1.428 . S
H540 C536 0.930 . S
H541 C538 0.929 . S
S542 N543 1.613 . S
S542 N544 1.610 . S
N543 S542 1.613 . S
N543 C546 1.350 . S
N544 S542 1.610 . S
N544 C545 1.351 . S
C545 C539 1.428 . S
C545 N544 1.351 . S
C545 C546 1.434 . S
C546 C537 1.429 . S
C546 N543 1.350 . S
C546 C545 1.434 . S
C547 C548 1.369 1_554 S
C547 C549 1.419 . S
C547 H551 0.930 . S
C548 C547 1.369 1_556 S
C548 C557 1.429 . S
C549 C547 1.419 . S
C549 C550 1.363 . S
C549 H552 0.929 . S
C550 C549 1.363 . S
C550 C556 1.428 1_554 S
H551 C547 0.930 . S
H552 C549 0.929 . S
S553 N554 1.613 . S
S553 N555 1.610 . S
N554 S553 1.613 . S
N554 C557 1.350 . S
N555 S553 1.610 . S
N555 C556 1.351 . S
C556 C550 1.428 1_556 S
C556 N555 1.351 . S
C556 C557 1.434 . S
C557 C548 1.429 . S
C557 N554 1.350 . S
C557 C556 1.434 . S
C558 C559 1.369 . S
C558 C560 1.419 . S
C558 H562 0.930 . S
C559 C558 1.369 . S
C559 C568 1.429 . S
C560 C558 1.419 . S
C560 C561 1.363 . S
C560 H563 0.929 . S
C561 C560 1.363 . S
C561 C567 1.428 . S
H562 C558 0.930 . S
H563 C560 0.929 . S
S564 N565 1.613 . S
S564 N566 1.610 . S
N565 S564 1.613 . S
N565 C568 1.350 . S
N566 S564 1.610 . S
N566 C567 1.351 . S
C567 C561 1.428 . S
C567 N566 1.351 . S
C567 C568 1.434 . S
C568 C559 1.429 . S
C568 N565 1.350 . S
C568 C567 1.434 . S
C569 C570 1.369 . S
C569 C571 1.419 . S
C569 H573 0.930 . S
C570 C569 1.369 . S
C570 C579 1.429 . S
C571 C569 1.419 . S
C571 C572 1.363 . S
C571 H574 0.929 . S
C572 C571 1.363 . S
C572 C578 1.428 . S
H573 C569 0.930 . S
H574 C571 0.929 . S
S575 N576 1.613 . S
S575 N577 1.610 . S
N576 S575 1.613 . S
N576 C579 1.350 . S
N577 S575 1.610 . S
N577 C578 1.351 . S
C578 C572 1.428 . S
C578 N577 1.351 . S
C578 C579 1.434 . S
C579 C570 1.429 . S
C579 N576 1.350 . S
C579 C578 1.434 . S
C580 C581 1.369 . S
C580 C582 1.419 . S
C580 H584 0.930 . S
C581 C580 1.369 . S
C581 C590 1.429 . S
C582 C580 1.419 . S
C582 C583 1.363 . S
C582 H585 0.929 . S
C583 C582 1.363 . S
C583 C589 1.428 . S
H584 C580 0.930 . S
H585 C582 0.929 . S
S586 N587 1.613 . S
S586 N588 1.610 . S
N587 S586 1.613 . S
N587 C590 1.350 . S
N588 S586 1.610 . S
N588 C589 1.351 . S
C589 C583 1.428 . S
C589 N588 1.351 . S
C589 C590 1.434 . S
C590 C581 1.429 . S
C590 N587 1.350 . S
C590 C589 1.434 . S
C591 C592 1.369 . S
C591 C593 1.419 . S
C591 H595 0.930 . S
C592 C591 1.369 . S
C592 C601 1.429 1_554 S
C593 C591 1.419 . S
C593 C594 1.363 1_554 S
C593 H596 0.929 . S
C594 C593 1.363 1_556 S
C594 C600 1.428 . S
H595 C591 0.930 . S
H596 C593 0.929 . S
S597 N598 1.613 . S
S597 N599 1.610 . S
N598 S597 1.613 . S
N598 C601 1.350 . S
N599 S597 1.610 . S
N599 C600 1.351 . S
C600 C594 1.428 . S
C600 N599 1.351 . S
C600 C601 1.434 . S
C601 C592 1.429 1_556 S
C601 N598 1.350 . S
C601 C600 1.434 . S
C602 C603 1.369 . S
C602 C604 1.419 . S
C602 H606 0.930 . S
C603 C602 1.369 . S
C603 C612 1.429 . S
C604 C602 1.419 . S
C604 C605 1.363 . S
C604 H607 0.929 . S
C605 C604 1.363 . S
C605 C611 1.428 . S
H606 C602 0.930 . S
H607 C604 0.929 . S
S608 N609 1.613 . S
S608 N610 1.610 . S
N609 S608 1.613 . S
N609 C612 1.350 . S
N610 S608 1.610 . S
N610 C611 1.351 . S
C611 C605 1.428 . S
C611 N610 1.351 . S
C611 C612 1.434 . S
C612 C603 1.429 . S
C612 N609 1.350 . S
C612 C611 1.434 . S
C613 C614 1.369 . S
C613 C615 1.419 . S
C613 H617 0.930 . S
C614 C613 1.369 . S
C614 C623 1.429 . S
C615 C613 1.419 . S
C615 C616 1.363 . S
C615 H618 0.929 . S
C616 C615 1.363 . S
C616 C622 1.428 . S
H617 C613 0.930 . S
H618 C615 0.929 . S
S619 N620 1.613 . S
S619 N621 1.610 . S
N620 S619 1.613 . S
N620 C623 1.350 . S
N621 S619 1.610 . S
N621 C622 1.351 . S
C622 C616 1.428 . S
C622 N621 1.351 . S
C622 C623 1.434 . S
C623 C614 1.429 . S
C623 N620 1.350 . S
C623 C622 1.434 . S
C624 C625 1.369 . S
C624 C626 1.419 . S
C624 H628 0.930 . S
C625 C624 1.369 . S
C625 C634 1.429 . S
C626 C624 1.419 . S
C626 C627 1.363 . S
C626 H629 0.929 . S
C627 C626 1.363 . S
C627 C633 1.428 . S
H628 C624 0.930 . S
H629 C626 0.929 . S
S630 N631 1.613 1_556 S
S630 N632 1.610 . S
N631 S630 1.613 1_554 S
N631 C634 1.350 1_554 S
N632 S630 1.610 . S
N632 C633 1.351 . S
C633 C627 1.428 . S
C633 N632 1.351 . S
C633 C634 1.434 . S
C634 C625 1.429 . S
C634 N631 1.350 1_556 S
C634 C633 1.434 . S
C635 C636 1.369 . S
C635 C637 1.419 . S
C635 H639 0.930 . S
C636 C635 1.369 . S
C636 C645 1.429 . S
C637 C635 1.419 . S
C637 C638 1.363 . S
C637 H640 0.929 . S
C638 C637 1.363 . S
C638 C644 1.428 . S
H639 C635 0.930 . S
H640 C637 0.929 . S
S641 N642 1.613 1_554 S
S641 N643 1.610 . S
N642 S641 1.613 1_556 S
N642 C645 1.350 1_556 S
N643 S641 1.610 . S
N643 C644 1.351 . S
C644 C638 1.428 . S
C644 N643 1.351 . S
C644 C645 1.434 . S
C645 C636 1.429 . S
C645 N642 1.350 1_554 S
C645 C644 1.434 . S
C646 C647 1.369 . S
C646 C648 1.419 . S
C646 H650 0.930 . S
C647 C646 1.369 . S
C647 C656 1.429 . S
C648 C646 1.419 . S
C648 C649 1.363 . S
C648 H651 0.929 . S
C649 C648 1.363 . S
C649 C655 1.428 . S
H650 C646 0.930 . S
H651 C648 0.929 . S
S652 N653 1.613 . S
S652 N654 1.610 . S
N653 S652 1.613 . S
N653 C656 1.350 . S
N654 S652 1.610 . S
N654 C655 1.351 . S
C655 C649 1.428 . S
C655 N654 1.351 . S
C655 C656 1.434 . S
C656 C647 1.429 . S
C656 N653 1.350 . S
C656 C655 1.434 . S
C657 C658 1.369 . S
C657 C659 1.419 . S
C657 H661 0.930 . S
C658 C657 1.369 . S
C658 C667 1.429 . S
C659 C657 1.419 . S
C659 C660 1.363 . S
C659 H662 0.929 . S
C660 C659 1.363 . S
C660 C666 1.428 . S
H661 C657 0.930 . S
H662 C659 0.929 . S
S663 N664 1.613 . S
S663 N665 1.610 . S
N664 S663 1.613 . S
N664 C667 1.350 . S
N665 S663 1.610 . S
N665 C666 1.351 . S
C666 C660 1.428 . S
C666 N665 1.351 . S
C666 C667 1.434 . S
C667 C658 1.429 . S
C667 N664 1.350 . S
C667 C666 1.434 . S
C668 C669 1.369 . S
C668 C670 1.419 . S
C668 H672 0.930 . S
C669 C668 1.369 . S
C669 C678 1.429 . S
C670 C668 1.419 . S
C670 C671 1.363 . S
C670 H673 0.929 . S
C671 C670 1.363 . S
C671 C677 1.428 . S
H672 C668 0.930 . S
H673 C670 0.929 . S
S674 N675 1.613 . S
S674 N676 1.610 . S
N675 S674 1.613 . S
N675 C678 1.350 . S
N676 S674 1.610 . S
N676 C677 1.351 . S
C677 C671 1.428 . S
C677 N676 1.351 . S
C677 C678 1.434 . S
C678 C669 1.429 . S
C678 N675 1.350 . S
C678 C677 1.434 . S
C679 C680 1.369 . S
C679 C681 1.419 . S
C679 H683 0.930 . S
C680 C679 1.369 . S
C680 C689 1.429 . S
C681 C679 1.419 . S
C681 C682 1.363 . S
C681 H684 0.929 . S
C682 C681 1.363 . S
C682 C688 1.428 . S
H683 C679 0.930 . S
H684 C681 0.929 . S
S685 N686 1.613 . S
S685 N687 1.610 . S
N686 S685 1.613 . S
N686 C689 1.350 . S
N687 S685 1.610 . S
N687 C688 1.351 . S
C688 C682 1.428 . S
C688 N687 1.351 . S
C688 C689 1.434 . S
C689 C680 1.429 . S
C689 N686 1.350 . S
C689 C688 1.434 . S
C690 C691 1.369 . S
C690 C692 1.419 . S
C690 H694 0.930 . S
C691 C690 1.369 . S
C691 C700 1.429 . S
C692 C690 1.419 . S
C692 C693 1.363 . S
C692 H695 0.929 . S
C693 C692 1.363 . S
C693 C699 1.428 . S
H694 C690 0.930 . S
H695 C692 0.929 . S
S696 N697 1.613 . S
S696 N698 1.610 . S
N697 S696 1.613 . S
N697 C700 1.350 . S
N698 S696 1.610 . S
N698 C699 1.351 . S
C699 C693 1.428 . S
C699 N698 1.351 . S
C699 C700 1.434 . S
C700 C691 1.429 . S
C700 N697 1.350 . S
C700 C699 1.434 . S
C701 C702 1.369 . S
C701 C703 1.419 . S
C701 H705 0.930 . S
C702 C701 1.369 . S
C702 C711 1.429 . S
C703 C701 1.419 . S
C703 C704 1.363 . S
C703 H706 0.929 . S
C704 C703 1.363 . S
C704 C710 1.428 . S
H705 C701 0.930 . S
H706 C703 0.929 . S
S707 N708 1.613 . S
S707 N709 1.610 . S
N708 S707 1.613 . S
N708 C711 1.350 . S
N709 S707 1.610 . S
N709 C710 1.351 . S
C710 C704 1.428 . S
C710 N709 1.351 . S
C710 C711 1.434 . S
C711 C702 1.429 . S
C711 N708 1.350 . S
C711 C710 1.434 . S
C712 C713 1.369 . S
C712 C714 1.419 . S
C712 H716 0.930 . S
C713 C712 1.369 . S
C713 C722 1.429 . S
C714 C712 1.419 . S
C714 C715 1.363 . S
C714 H717 0.929 . S
C715 C714 1.363 . S
C715 C721 1.428 . S
H716 C712 0.930 . S
H717 C714 0.929 . S
S718 N719 1.613 . S
S718 N720 1.610 . S
N719 S718 1.613 . S
N719 C722 1.350 . S
N720 S718 1.610 . S
N720 C721 1.351 . S
C721 C715 1.428 . S
C721 N720 1.351 . S
C721 C722 1.434 . S
C722 C713 1.429 . S
C722 N719 1.350 . S
C722 C721 1.434 . S
C723 C724 1.369 . S
C723 C725 1.419 . S
C723 H727 0.930 . S
C724 C723 1.369 . S
C724 C733 1.429 . S
C725 C723 1.419 . S
C725 C726 1.363 . S
C725 H728 0.929 . S
C726 C725 1.363 . S
C726 C732 1.428 . S
H727 C723 0.930 . S
H728 C725 0.929 . S
S729 N730 1.613 . S
S729 N731 1.610 . S
N730 S729 1.613 . S
N730 C733 1.350 . S
N731 S729 1.610 . S
N731 C732 1.351 . S
C732 C726 1.428 . S
C732 N731 1.351 . S
C732 C733 1.434 . S
C733 C724 1.429 . S
C733 N730 1.350 . S
C733 C732 1.434 . S
C734 C735 1.369 . S
C734 C736 1.419 . S
C734 H738 0.930 . S
C735 C734 1.369 . S
C735 C744 1.429 . S
C736 C734 1.419 . S
C736 C737 1.363 . S
C736 H739 0.929 . S
C737 C736 1.363 . S
C737 C743 1.428 . S
H738 C734 0.930 . S
H739 C736 0.929 . S
S740 N741 1.613 . S
S740 N742 1.610 . S
N741 S740 1.613 . S
N741 C744 1.350 . S
N742 S740 1.610 . S
N742 C743 1.351 . S
C743 C737 1.428 . S
C743 N742 1.351 . S
C743 C744 1.434 . S
C744 C735 1.429 . S
C744 N741 1.350 . S
C744 C743 1.434 . S
C745 C746 1.369 . S
C745 C747 1.419 . S
C745 H749 0.930 . S
C746 C745 1.369 . S
C746 C755 1.429 . S
C747 C745 1.419 . S
C747 C748 1.363 . S
C747 H750 0.929 . S
C748 C747 1.363 . S
C748 C754 1.428 . S
H749 C745 0.930 . S
H750 C747 0.929 . S
S751 N752 1.613 . S
S751 N753 1.610 . S
N752 S751 1.613 . S
N752 C755 1.350 . S
N753 S751 1.610 . S
N753 C754 1.351 . S
C754 C748 1.428 . S
C754 N753 1.351 . S
C754 C755 1.434 . S
C755 C746 1.429 . S
C755 N752 1.350 . S
C755 C754 1.434 . S
C756 C757 1.369 . S
C756 C758 1.419 . S
C756 H760 0.930 . S
C757 C756 1.369 . S
C757 C766 1.429 . S
C758 C756 1.419 . S
C758 C759 1.363 . S
C758 H761 0.929 . S
C759 C758 1.363 . S
C759 C765 1.428 . S
H760 C756 0.930 . S
H761 C758 0.929 . S
S762 N763 1.613 . S
S762 N764 1.610 . S
N763 S762 1.613 . S
N763 C766 1.350 . S
N764 S762 1.610 . S
N764 C765 1.351 . S
C765 C759 1.428 . S
C765 N764 1.351 . S
C765 C766 1.434 . S
C766 C757 1.429 . S
C766 N763 1.350 . S
C766 C765 1.434 . S
C767 C768 1.369 . S
C767 C769 1.419 . S
C767 H771 0.930 . S
C768 C767 1.369 . S
C768 C777 1.429 . S
C769 C767 1.419 . S
C769 C770 1.363 . S
C769 H772 0.929 . S
C770 C769 1.363 . S
C770 C776 1.428 . S
H771 C767 0.930 . S
H772 C769 0.929 . S
S773 N774 1.613 . S
S773 N775 1.610 . S
N774 S773 1.613 . S
N774 C777 1.350 . S
N775 S773 1.610 . S
N775 C776 1.351 . S
C776 C770 1.428 . S
C776 N775 1.351 . S
C776 C777 1.434 . S
C777 C768 1.429 . S
C777 N774 1.350 . S
C777 C776 1.434 . S
C778 C779 1.369 . S
C778 C780 1.419 . S
C778 H782 0.930 . S
C779 C778 1.369 . S
C779 C788 1.429 . S
C780 C778 1.419 . S
C780 C781 1.363 . S
C780 H783 0.929 . S
C781 C780 1.363 . S
C781 C787 1.428 . S
H782 C778 0.930 . S
H783 C780 0.929 . S
S784 N785 1.613 . S
S784 N786 1.610 . S
N785 S784 1.613 . S
N785 C788 1.350 . S
N786 S784 1.610 . S
N786 C787 1.351 . S
C787 C781 1.428 . S
C787 N786 1.351 . S
C787 C788 1.434 . S
C788 C779 1.429 . S
C788 N785 1.350 . S
C788 C787 1.434 . S
C789 C790 1.369 . S
C789 C791 1.419 . S
C789 H793 0.930 . S
C790 C789 1.369 . S
C790 C799 1.429 . S
C791 C789 1.419 . S
C791 C792 1.363 . S
C791 H794 0.929 . S
C792 C791 1.363 . S
C792 C798 1.428 . S
H793 C789 0.930 . S
H794 C791 0.929 . S
S795 N796 1.613 . S
S795 N797 1.610 1_556 S
N796 S795 1.613 . S
N796 C799 1.350 . S
N797 S795 1.610 1_554 S
N797 C798 1.351 1_554 S
C798 C792 1.428 . S
C798 N797 1.351 1_556 S
C798 C799 1.434 . S
C799 C790 1.429 . S
C799 N796 1.350 . S
C799 C798 1.434 . S
C800 C801 1.369 . S
C800 C802 1.419 . S
C800 H804 0.930 . S
C801 C800 1.369 . S
C801 C810 1.429 . S
C802 C800 1.419 . S
C802 C803 1.363 . S
C802 H805 0.929 . S
C803 C802 1.363 . S
C803 C809 1.428 . S
H804 C800 0.930 . S
H805 C802 0.929 . S
S806 N807 1.613 1_556 S
S806 N808 1.610 1_556 S
N807 S806 1.613 1_554 S
N807 C810 1.350 . S
N808 S806 1.610 1_554 S
N808 C809 1.351 . S
C809 C803 1.428 . S
C809 N808 1.351 . S
C809 C810 1.434 . S
C810 C801 1.429 . S
C810 N807 1.350 . S
C810 C809 1.434 . S
C811 C812 1.369 . S
C811 C813 1.419 1_655 S
C811 H815 0.930 . S
C812 C811 1.369 . S
C812 C821 1.429 . S
C813 C811 1.419 1_455 S
C813 C814 1.363 . S
C813 H816 0.929 . S
C814 C813 1.363 . S
C814 C820 1.428 . S
H815 C811 0.930 . S
H816 C813 0.929 . S
S817 N818 1.618 1_455 S
S817 N819 1.606 . S
N818 S817 1.618 1_655 S
N818 C821 1.350 . S
N819 S817 1.606 . S
N819 C820 1.351 . S
C820 C814 1.428 . S
C820 N819 1.351 . S
C820 C821 1.434 1_455 S
C821 C812 1.429 . S
C821 N818 1.350 . S
C821 C820 1.434 1_655 S
C822 C823 1.369 . S
C822 C824 1.419 . S
C822 H826 0.930 . S
C823 C822 1.369 . S
C823 C832 1.429 . S
C824 C822 1.419 . S
C824 C825 1.363 . S
C824 H827 0.929 . S
C825 C824 1.363 . S
C825 C831 1.428 . S
H826 C822 0.930 . S
H827 C824 0.929 . S
S828 N829 1.613 . S
S828 N830 1.610 . S
N829 S828 1.613 . S
N829 C832 1.350 . S
N830 S828 1.610 . S
N830 C831 1.351 . S
C831 C825 1.428 . S
C831 N830 1.351 . S
C831 C832 1.434 . S
C832 C823 1.429 . S
C832 N829 1.350 . S
C832 C831 1.434 . S
C833 C834 1.369 . S
C833 C835 1.419 . S
C833 H837 0.930 . S
C834 C833 1.369 . S
C834 C843 1.429 . S
C835 C833 1.419 . S
C835 C836 1.363 . S
C835 H838 0.929 . S
C836 C835 1.363 . S
C836 C842 1.428 . S
H837 C833 0.930 . S
H838 C835 0.929 . S
S839 N840 1.613 . S
S839 N841 1.610 . S
N840 S839 1.613 . S
N840 C843 1.350 . S
N841 S839 1.610 . S
N841 C842 1.351 . S
C842 C836 1.428 . S
C842 N841 1.351 . S
C842 C843 1.434 . S
C843 C834 1.429 . S
C843 N840 1.350 . S
C843 C842 1.434 . S
C844 C845 1.369 . S
C844 C846 1.419 . S
C844 H848 0.930 . S
C845 C844 1.369 . S
C845 C854 1.429 . S
C846 C844 1.419 . S
C846 C847 1.363 . S
C846 H849 0.929 . S
C847 C846 1.363 . S
C847 C853 1.428 . S
H848 C844 0.930 . S
H849 C846 0.929 . S
S850 N851 1.613 . S
S850 N852 1.610 . S
N851 S850 1.613 . S
N851 C854 1.350 . S
N852 S850 1.610 . S
N852 C853 1.351 . S
C853 C847 1.428 . S
C853 N852 1.351 . S
C853 C854 1.434 . S
C854 C845 1.429 . S
C854 N851 1.350 . S
C854 C853 1.434 . S
C855 C856 1.369 . S
C855 C857 1.419 . S
C855 H859 0.930 . S
C856 C855 1.369 . S
C856 C865 1.429 . S
C857 C855 1.419 . S
C857 C858 1.363 . S
C857 H860 0.929 . S
C858 C857 1.363 . S
C858 C864 1.428 . S
H859 C855 0.930 . S
H860 C857 0.929 . S
S861 N862 1.613 . S
S861 N863 1.610 . S
N862 S861 1.613 . S
N862 C865 1.350 . S
N863 S861 1.610 . S
N863 C864 1.351 . S
C864 C858 1.428 . S
C864 N863 1.351 . S
C864 C865 1.434 . S
C865 C856 1.429 . S
C865 N862 1.350 . S
C865 C864 1.434 . S
C866 C867 1.369 . S
C866 C868 1.419 . S
C866 H870 0.930 . S
C867 C866 1.369 . S
C867 C876 1.429 . S
C868 C866 1.419 . S
C868 C869 1.363 . S
C868 H871 0.929 . S
C869 C868 1.363 . S
C869 C875 1.428 . S
H870 C866 0.930 . S
H871 C868 0.929 . S
S872 N873 1.613 . S
S872 N874 1.610 . S
N873 S872 1.613 . S
N873 C876 1.350 . S
N874 S872 1.610 . S
N874 C875 1.351 . S
C875 C869 1.428 . S
C875 N874 1.351 . S
C875 C876 1.434 . S
C876 C867 1.429 . S
C876 N873 1.350 . S
C876 C875 1.434 . S
C877 C878 1.369 . S
C877 C879 1.419 1_655 S
C877 H881 0.930 . S
C878 C877 1.369 . S
C878 C887 1.429 . S
C879 C877 1.419 1_455 S
C879 C880 1.363 . S
C879 H882 0.929 . S
C880 C879 1.363 . S
C880 C886 1.428 . S
H881 C877 0.930 . S
H882 C879 0.929 . S
S883 N884 1.618 1_455 S
S883 N885 1.606 . S
N884 S883 1.618 1_655 S
N884 C887 1.350 . S
N885 S883 1.606 . S
N885 C886 1.351 . S
C886 C880 1.428 . S
C886 N885 1.351 . S
C886 C887 1.434 1_455 S
C887 C878 1.429 . S
C887 N884 1.350 . S
C887 C886 1.434 1_655 S
C888 C889 1.369 . S
C888 C890 1.419 . S
C888 H892 0.930 . S
C889 C888 1.369 . S
C889 C898 1.429 . S
C890 C888 1.419 . S
C890 C891 1.363 . S
C890 H893 0.929 . S
C891 C890 1.363 . S
C891 C897 1.428 . S
H892 C888 0.930 . S
H893 C890 0.929 . S
S894 N895 1.613 . S
S894 N896 1.610 . S
N895 S894 1.613 . S
N895 C898 1.350 1_554 S
N896 S894 1.610 . S
N896 C897 1.351 1_554 S
C897 C891 1.428 . S
C897 N896 1.351 1_556 S
C897 C898 1.434 . S
C898 C889 1.429 . S
C898 N895 1.350 1_556 S
C898 C897 1.434 . S
C899 C900 1.369 . S
C899 C901 1.419 . S
C899 H903 0.930 . S
C900 C899 1.369 . S
C900 C909 1.429 . S
C901 C899 1.419 . S
C901 C902 1.363 . S
C901 H904 0.929 . S
C902 C901 1.363 . S
C902 C908 1.428 . S
H903 C899 0.930 . S
H904 C901 0.929 . S
S905 N906 1.613 . S
S905 N907 1.610 . S
N906 S905 1.613 . S
N906 C909 1.350 . S
N907 S905 1.610 . S
N907 C908 1.351 . S
C908 C902 1.428 . S
C908 N907 1.351 . S
C908 C909 1.434 . S
C909 C900 1.429 . S
C909 N906 1.350 . S
C909 C908 1.434 . S
C910 C911 1.369 . S
C910 C912 1.419 . S
C910 H914 0.930 . S
C911 C910 1.369 . S
C911 C920 1.429 . S
C912 C910 1.419 . S
C912 C913 1.363 . S
C912 H915 0.929 . S
C913 C912 1.363 . S
C913 C919 1.428 . S
H914 C910 0.930 . S
H915 C912 0.929 . S
S916 N917 1.613 . S
S916 N918 1.610 . S
N917 S916 1.613 . S
N917 C920 1.350 . S
N918 S916 1.610 . S
N918 C919 1.351 . S
C919 C913 1.428 . S
C919 N918 1.351 . S
C919 C920 1.434 . S
C920 C911 1.429 . S
C920 N917 1.350 . S
C920 C919 1.434 . S
C921 C922 1.369 . S
C921 C923 1.419 . S
C921 H925 0.930 . S
C922 C921 1.369 . S
C922 C931 1.429 . S
C923 C921 1.419 . S
C923 C924 1.363 . S
C923 H926 0.929 . S
C924 C923 1.363 . S
C924 C930 1.428 . S
H925 C921 0.930 . S
H926 C923 0.929 . S
S927 N928 1.613 . S
S927 N929 1.610 . S
N928 S927 1.613 . S
N928 C931 1.350 . S
N929 S927 1.610 . S
N929 C930 1.351 . S
C930 C924 1.428 . S
C930 N929 1.351 . S
C930 C931 1.434 . S
C931 C922 1.429 . S
C931 N928 1.350 . S
C931 C930 1.434 . S
C932 C933 1.369 . S
C932 C934 1.419 . S
C932 H936 0.930 . S
C933 C932 1.369 . S
C933 C942 1.429 . S
C934 C932 1.419 . S
C934 C935 1.363 . S
C934 H937 0.929 . S
C935 C934 1.363 . S
C935 C941 1.428 . S
H936 C932 0.930 . S
H937 C934 0.929 . S
S938 N939 1.613 . S
S938 N940 1.610 . S
N939 S938 1.613 . S
N939 C942 1.350 . S
N940 S938 1.610 . S
N940 C941 1.351 . S
C941 C935 1.428 . S
C941 N940 1.351 . S
C941 C942 1.434 . S
C942 C933 1.429 . S
C942 N939 1.350 . S
C942 C941 1.434 . S
C943 C944 1.369 . S
C943 C945 1.419 1_655 S
C943 H947 0.930 . S
C944 C943 1.369 . S
C944 C953 1.429 . S
C945 C943 1.419 1_455 S
C945 C946 1.363 . S
C945 H948 0.929 . S
C946 C945 1.363 . S
C946 C952 1.428 . S
H947 C943 0.930 . S
H948 C945 0.929 . S
S949 N950 1.618 1_455 S
S949 N951 1.606 . S
N950 S949 1.618 1_655 S
N950 C953 1.350 . S
N951 S949 1.606 . S
N951 C952 1.351 . S
C952 C946 1.428 . S
C952 N951 1.351 . S
C952 C953 1.434 1_455 S
C953 C944 1.429 . S
C953 N950 1.350 . S
C953 C952 1.434 1_655 S
C954 C955 1.369 . S
C954 C956 1.419 1_655 S
C954 H958 0.930 . S
C955 C954 1.369 . S
C955 C964 1.429 . S
C956 C954 1.419 1_455 S
C956 C957 1.363 . S
C956 H959 0.929 . S
C957 C956 1.363 . S
C957 C963 1.428 . S
H958 C954 0.930 . S
H959 C956 0.929 . S
S960 N961 1.618 1_455 S
S960 N962 1.606 . S
N961 S960 1.618 1_655 S
N961 C964 1.350 . S
N962 S960 1.606 . S
N962 C963 1.351 . S
C963 C957 1.428 . S
C963 N962 1.351 . S
C963 C964 1.434 1_455 S
C964 C955 1.429 . S
C964 N961 1.350 . S
C964 C963 1.434 1_655 S
C965 C966 1.369 . S
C965 C967 1.419 . S
C965 H969 0.930 . S
C966 C965 1.369 . S
C966 C975 1.429 . S
C967 C965 1.419 . S
C967 C968 1.363 . S
C967 H970 0.929 . S
C968 C967 1.363 . S
C968 C974 1.428 . S
H969 C965 0.930 . S
H970 C967 0.929 . S
S971 N972 1.613 . S
S971 N973 1.610 . S
N972 S971 1.613 . S
N972 C975 1.350 . S
N973 S971 1.610 . S
N973 C974 1.351 . S
C974 C968 1.428 . S
C974 N973 1.351 . S
C974 C975 1.434 . S
C975 C966 1.429 . S
C975 N972 1.350 . S
C975 C974 1.434 . S
C976 C977 1.369 . S
C976 C978 1.419 . S
C976 H980 0.930 . S
C977 C976 1.369 . S
C977 C986 1.429 . S
C978 C976 1.419 . S
C978 C979 1.363 . S
C978 H981 0.929 . S
C979 C978 1.363 . S
C979 C985 1.428 . S
H980 C976 0.930 . S
H981 C978 0.929 . S
S982 N983 1.613 . S
S982 N984 1.610 . S
N983 S982 1.613 . S
N983 C986 1.350 . S
N984 S982 1.610 . S
N984 C985 1.351 . S
C985 C979 1.428 . S
C985 N984 1.351 . S
C985 C986 1.434 . S
C986 C977 1.429 . S
C986 N983 1.350 . S
C986 C985 1.434 . S
C987 C988 1.369 . S
C987 C989 1.419 . S
C987 H991 0.930 . S
C988 C987 1.369 . S
C988 C997 1.429 . S
C989 C987 1.419 . S
C989 C990 1.363 . S
C989 H992 0.929 . S
C990 C989 1.363 . S
C990 C996 1.428 . S
H991 C987 0.930 . S
H992 C989 0.929 . S
S993 N994 1.613 . S
S993 N995 1.610 . S
N994 S993 1.613 . S
N994 C997 1.350 . S
N995 S993 1.610 . S
N995 C996 1.351 . S
C996 C990 1.428 . S
C996 N995 1.351 . S
C996 C997 1.434 . S
C997 C988 1.429 . S
C997 N994 1.350 . S
C997 C996 1.434 . S
C998 C999 1.369 . S
C998 C1000 1.419 . S
C998 H1002 0.930 . S
C999 C998 1.369 . S
C999 C1008 1.429 . S
C1000 C998 1.419 . S
C1000 C1001 1.363 . S
C1000 H1003 0.929 . S
C1001 C1000 1.363 . S
C1001 C1007 1.428 . S
H1002 C998 0.930 . S
H1003 C1000 0.929 . S
S1004 N1005 1.613 . S
S1004 N1006 1.610 . S
N1005 S1004 1.613 . S
N1005 C1008 1.350 . S
N1006 S1004 1.610 . S
N1006 C1007 1.351 . S
C1007 C1001 1.428 . S
C1007 N1006 1.351 . S
C1007 C1008 1.434 . S
C1008 C999 1.429 . S
C1008 N1005 1.350 . S
C1008 C1007 1.434 . S
C1009 C1010 1.369 . S
C1009 C1011 1.419 . S
C1009 H1013 0.930 . S
C1010 C1009 1.369 . S
C1010 C1019 1.429 . S
C1011 C1009 1.419 . S
C1011 C1012 1.363 . S
C1011 H1014 0.929 . S
C1012 C1011 1.363 . S
C1012 C1018 1.428 . S
H1013 C1009 0.930 . S
H1014 C1011 0.929 . S
S1015 N1016 1.613 . S
S1015 N1017 1.610 . S
N1016 S1015 1.613 . S
N1016 C1019 1.350 . S
N1017 S1015 1.610 . S
N1017 C1018 1.351 . S
C1018 C1012 1.428 . S
C1018 N1017 1.351 . S
C1018 C1019 1.434 . S
C1019 C1010 1.429 . S
C1019 N1016 1.350 . S
C1019 C1018 1.434 . S
C1020 C1021 1.369 . S
C1020 C1022 1.419 . S
C1020 H1024 0.930 . S
C1021 C1020 1.369 . S
C1021 C1030 1.429 . S
C1022 C1020 1.419 . S
C1022 C1023 1.363 . S
C1022 H1025 0.929 . S
C1023 C1022 1.363 . S
C1023 C1029 1.428 . S
H1024 C1020 0.930 . S
H1025 C1022 0.929 . S
S1026 N1027 1.613 . S
S1026 N1028 1.610 . S
N1027 S1026 1.613 . S
N1027 C1030 1.350 . S
N1028 S1026 1.610 . S
N1028 C1029 1.351 . S
C1029 C1023 1.428 . S
C1029 N1028 1.351 . S
C1029 C1030 1.434 . S
C1030 C1021 1.429 . S
C1030 N1027 1.350 . S
C1030 C1029 1.434 . S
C1031 C1032 1.369 . S
C1031 C1033 1.419 . S
C1031 H1035 0.930 . S
C1032 C1031 1.369 . S
C1032 C1041 1.429 . S
C1033 C1031 1.419 . S
C1033 C1034 1.363 . S
C1033 H1036 0.929 . S
C1034 C1033 1.363 . S
C1034 C1040 1.428 . S
H1035 C1031 0.930 . S
H1036 C1033 0.929 . S
S1037 N1038 1.613 . S
S1037 N1039 1.610 . S
N1038 S1037 1.613 . S
N1038 C1041 1.350 . S
N1039 S1037 1.610 . S
N1039 C1040 1.351 . S
C1040 C1034 1.428 . S
C1040 N1039 1.351 . S
C1040 C1041 1.434 . S
C1041 C1032 1.429 . S
C1041 N1038 1.350 . S
C1041 C1040 1.434 . S
C1042 C1043 1.369 . S
C1042 C1044 1.419 . S
C1042 H1046 0.930 . S
C1043 C1042 1.369 . S
C1043 C1052 1.429 . S
C1044 C1042 1.419 . S
C1044 C1045 1.363 . S
C1044 H1047 0.929 . S
C1045 C1044 1.363 . S
C1045 C1051 1.428 . S
H1046 C1042 0.930 . S
H1047 C1044 0.929 . S
S1048 N1049 1.613 . S
S1048 N1050 1.610 . S
N1049 S1048 1.613 . S
N1049 C1052 1.350 . S
N1050 S1048 1.610 . S
N1050 C1051 1.351 . S
C1051 C1045 1.428 . S
C1051 N1050 1.351 . S
C1051 C1052 1.434 . S
C1052 C1043 1.429 . S
C1052 N1049 1.350 . S
C1052 C1051 1.434 . S
C1053 C1054 1.369 . S
C1053 C1055 1.419 . S
C1053 H1057 0.930 . S
C1054 C1053 1.369 . S
C1054 C1063 1.429 . S
C1055 C1053 1.419 . S
C1055 C1056 1.363 . S
C1055 H1058 0.929 . S
C1056 C1055 1.363 . S
C1056 C1062 1.428 . S
H1057 C1053 0.930 . S
H1058 C1055 0.929 . S
S1059 N1060 1.613 . S
S1059 N1061 1.610 1_556 S
N1060 S1059 1.613 . S
N1060 C1063 1.350 . S
N1061 S1059 1.610 1_554 S
N1061 C1062 1.351 1_554 S
C1062 C1056 1.428 . S
C1062 N1061 1.351 1_556 S
C1062 C1063 1.434 . S
C1063 C1054 1.429 . S
C1063 N1060 1.350 . S
C1063 C1062 1.434 . S
C1064 C1065 1.369 . S
C1064 C1066 1.419 . S
C1064 H1068 0.930 . S
C1065 C1064 1.369 . S
C1065 C1074 1.429 . S
C1066 C1064 1.419 . S
C1066 C1067 1.363 . S
C1066 H1069 0.929 . S
C1067 C1066 1.363 . S
C1067 C1073 1.428 . S
H1068 C1064 0.930 . S
H1069 C1066 0.929 . S
S1070 N1071 1.613 . S
S1070 N1072 1.610 . S
N1071 S1070 1.613 . S
N1071 C1074 1.350 . S
N1072 S1070 1.610 . S
N1072 C1073 1.351 . S
C1073 C1067 1.428 . S
C1073 N1072 1.351 . S
C1073 C1074 1.434 . S
C1074 C1065 1.429 . S
C1074 N1071 1.350 . S
C1074 C1073 1.434 . S
C1075 C1076 1.369 . S
C1075 C1077 1.419 . S
C1075 H1079 0.930 . S
C1076 C1075 1.369 . S
C1076 C1085 1.429 . S
C1077 C1075 1.419 . S
C1077 C1078 1.363 . S
C1077 H1080 0.929 . S
C1078 C1077 1.363 . S
C1078 C1084 1.428 . S
H1079 C1075 0.930 . S
H1080 C1077 0.929 . S
S1081 N1082 1.613 . S
S1081 N1083 1.610 . S
N1082 S1081 1.613 . S
N1082 C1085 1.350 . S
N1083 S1081 1.610 . S
N1083 C1084 1.351 . S
C1084 C1078 1.428 . S
C1084 N1083 1.351 . S
C1084 C1085 1.434 . S
C1085 C1076 1.429 . S
C1085 N1082 1.350 . S
C1085 C1084 1.434 . S
C1086 C1087 1.369 . S
C1086 C1088 1.419 . S
C1086 H1090 0.930 . S
C1087 C1086 1.369 . S
C1087 C1096 1.429 . S
C1088 C1086 1.419 . S
C1088 C1089 1.363 . S
C1088 H1091 0.929 . S
C1089 C1088 1.363 . S
C1089 C1095 1.428 . S
H1090 C1086 0.930 . S
H1091 C1088 0.929 . S
S1092 N1093 1.613 . S
S1092 N1094 1.610 . S
N1093 S1092 1.613 . S
N1093 C1096 1.350 . S
N1094 S1092 1.610 . S
N1094 C1095 1.351 . S
C1095 C1089 1.428 . S
C1095 N1094 1.351 . S
C1095 C1096 1.434 . S
C1096 C1087 1.429 . S
C1096 N1093 1.350 . S
C1096 C1095 1.434 . S
C1097 C1098 1.369 . S
C1097 C1099 1.419 . S
C1097 H1101 0.930 . S
C1098 C1097 1.369 . S
C1098 C1107 1.429 . S
C1099 C1097 1.419 . S
C1099 C1100 1.363 . S
C1099 H1102 0.929 . S
C1100 C1099 1.363 . S
C1100 C1106 1.428 . S
H1101 C1097 0.930 . S
H1102 C1099 0.929 . S
S1103 N1104 1.613 . S
S1103 N1105 1.610 . S
N1104 S1103 1.613 . S
N1104 C1107 1.350 . S
N1105 S1103 1.610 . S
N1105 C1106 1.351 . S
C1106 C1100 1.428 . S
C1106 N1105 1.351 . S
C1106 C1107 1.434 . S
C1107 C1098 1.429 . S
C1107 N1104 1.350 . S
C1107 C1106 1.434 . S
C1108 C1109 1.369 . S
C1108 C1110 1.419 . S
C1108 H1112 0.930 . S
C1109 C1108 1.369 . S
C1109 C1118 1.429 . S
C1110 C1108 1.419 . S
C1110 C1111 1.363 . S
C1110 H1113 0.929 . S
C1111 C1110 1.363 . S
C1111 C1117 1.428 . S
H1112 C1108 0.930 . S
H1113 C1110 0.929 . S
S1114 N1115 1.613 . S
S1114 N1116 1.610 . S
N1115 S1114 1.613 . S
N1115 C1118 1.350 . S
N1116 S1114 1.610 . S
N1116 C1117 1.351 . S
C1117 C1111 1.428 . S
C1117 N1116 1.351 . S
C1117 C1118 1.434 . S
C1118 C1109 1.429 . S
C1118 N1115 1.350 . S
C1118 C1117 1.434 . S
C1119 C1120 1.369 . S
C1119 C1121 1.419 . S
C1119 H1123 0.930 . S
C1120 C1119 1.369 . S
C1120 C1129 1.429 . S
C1121 C1119 1.419 . S
C1121 C1122 1.363 . S
C1121 H1124 0.929 . S
C1122 C1121 1.363 . S
C1122 C1128 1.428 . S
H1123 C1119 0.930 . S
H1124 C1121 0.929 . S
S1125 N1126 1.613 . S
S1125 N1127 1.610 . S
N1126 S1125 1.613 . S
N1126 C1129 1.350 . S
N1127 S1125 1.610 . S
N1127 C1128 1.351 . S
C1128 C1122 1.428 . S
C1128 N1127 1.351 . S
C1128 C1129 1.434 . S
C1129 C1120 1.429 . S
C1129 N1126 1.350 . S
C1129 C1128 1.434 . S
C1130 C1131 1.369 . S
C1130 C1132 1.419 . S
C1130 H1134 0.930 . S
C1131 C1130 1.369 . S
C1131 C1140 1.429 . S
C1132 C1130 1.419 . S
C1132 C1133 1.363 . S
C1132 H1135 0.929 . S
C1133 C1132 1.363 . S
C1133 C1139 1.428 . S
H1134 C1130 0.930 . S
H1135 C1132 0.929 . S
S1136 N1137 1.613 . S
S1136 N1138 1.610 . S
N1137 S1136 1.613 . S
N1137 C1140 1.350 . S
N1138 S1136 1.610 . S
N1138 C1139 1.351 . S
C1139 C1133 1.428 . S
C1139 N1138 1.351 . S
C1139 C1140 1.434 . S
C1140 C1131 1.429 . S
C1140 N1137 1.350 . S
C1140 C1139 1.434 . S
C1141 C1142 1.369 . S
C1141 C1143 1.419 . S
C1141 H1145 0.930 . S
C1142 C1141 1.369 . S
C1142 C1151 1.429 . S
C1143 C1141 1.419 . S
C1143 C1144 1.363 . S
C1143 H1146 0.929 . S
C1144 C1143 1.363 . S
C1144 C1150 1.428 . S
H1145 C1141 0.930 . S
H1146 C1143 0.929 . S
S1147 N1148 1.613 . S
S1147 N1149 1.610 . S
N1148 S1147 1.613 . S
N1148 C1151 1.350 . S
N1149 S1147 1.610 . S
N1149 C1150 1.351 . S
C1150 C1144 1.428 . S
C1150 N1149 1.351 . S
C1150 C1151 1.434 . S
C1151 C1142 1.429 . S
C1151 N1148 1.350 . S
C1151 C1150 1.434 . S
C449 C93 1.381 . S
C451 C9 1.382 . S
C460 C23 1.384 . S
C462 C107 1.384 . S
C471 C65 1.381 . S
C473 C37 1.382 . S
C482 C51 1.384 . S
C484 C79 1.384 . S
C493 C121 1.382 . S
C495 C205 1.382 . S
C504 C219 1.384 . S
C506 C135 1.384 . S
C515 C149 1.382 . S
C517 C177 1.382 . S
C526 C191 1.382 . S
C528 C163 1.383 . S
C537 C233 1.381 . S
C539 C317 1.382 . S
C548 C247 1.388 . S
C550 C331 1.387 . S
C559 C289 1.387 . S
C561 C261 1.386 . S
C570 C303 1.386 . S
C572 C275 1.385 . S
C581 C345 1.384 . S
C583 C429 1.384 . S
C592 C359 1.388 . S
C594 C443 1.387 . S
C603 C401 1.381 . S
C605 C373 1.382 . S
C614 C387 1.382 . S
C616 C415 1.383 . S
C625 C6 1.341 . S
C627 C104 1.341 . S
C636 C62 1.340 . S
C638 C20 1.340 . S
C647 C76 1.340 . S
C649 C34 1.341 . S
C658 C48 1.344 . S
C660 C90 1.344 . S
C669 C118 1.346 . S
C671 C216 1.345 . S
C680 C174 1.338 . S
C682 C132 1.339 . S
C691 C188 1.346 . S
C693 C146 1.344 . S
C702 C202 1.345 . S
C704 C160 1.345 . S
C713 C230 1.340 . S
C715 C328 1.340 . S
C724 C244 1.344 . S
C726 C286 1.344 . S
C735 C300 1.340 . S
C737 C258 1.341 . S
C746 C272 1.341 . S
C748 C314 1.341 . S
C757 C342 1.343 . S
C759 C440 1.344 . S
C768 C398 1.339 . S
C770 C356 1.339 . S
C779 C370 1.346 . S
C781 C412 1.345 . S
C790 C384 1.342 . S
C792 C426 1.343 . S
C801 C427 1.568 . S
C803 C7 1.567 . S
C812 C217 1.568 . S
C814 C21 1.567 . S
C823 C35 1.560 . S
C825 C399 1.561 . S
C834 C49 1.566 . S
C836 C189 1.566 . S
C845 C63 1.566 . S
C847 C371 1.565 . S
C856 C77 1.563 . S
C858 C161 1.563 . S
C867 C91 1.560 . S
C869 C343 1.561 . S
C878 C133 1.561 . S
C880 C105 1.562 . S
C889 C315 1.568 . S
C891 C119 1.567 . S
C900 C147 1.561 . S
C902 C287 1.562 . S
C911 C259 1.561 . S
C913 C175 1.562 . S
C922 C231 1.567 . S
C924 C203 1.566 . S
C933 C245 1.561 . S
C935 C441 1.562 . S
C944 C273 1.560 . S
C946 C413 1.561 . S
C955 C301 1.567 . S
C957 C385 1.566 . S
C966 C357 1.560 . S
C968 C329 1.561 . S
C977 C8 1.958 . S
C979 C106 1.957 . S
C988 C22 1.957 . S
C990 C64 1.957 . S
C999 C78 1.958 1_556 S
C1001 C36 1.956 . S
C1010 C50 1.958 1_554 S
C1012 C92 1.956 . S
C1021 C218 1.958 . S
C1023 C120 1.957 . S
C1032 C176 1.958 . S
C1034 C134 1.957 . S
C1043 C148 1.956 . S
C1045 C190 1.958 1_554 S
C1054 C204 1.958 . S
C1056 C162 1.956 1_556 S
C1065 C330 1.959 1_556 S
C1067 C232 1.957 . S
C1076 C288 1.956 . S
C1078 C246 1.958 1_554 S
C1087 C302 1.958 . S
C1089 C260 1.958 . S
C1098 C316 1.956 . S
C1100 C274 1.958 . S
C1109 C344 1.957 . S
C1111 C442 1.957 1_554 S
C1120 C358 1.959 1_556 S
C1122 C400 1.956 . S
C1131 C372 1.956 . S
C1133 C414 1.958 . S
C1142 C428 1.957 . S
C1144 C386 1.958 . S
