# Generated by pormake.
# Topology rac, (4)-cn, num edge types: 1
# Building blocks:
#     Node 0, Type 0, BuildingBlock: QUQFOY_clean_sbu_3, # of connection points: 4
#     Node 1, Type 0, BuildingBlock: QUQFOY_clean_sbu_3, # of connection points: 4
#     Node 2, Type 0, BuildingBlock: QUQFOY_clean_sbu_3, # of connection points: 4
#     Node 3, Type 0, BuildingBlock: QUQFOY_clean_sbu_3, # of connection points: 4
#     Node 4, Type 0, BuildingBlock: QUQFOY_clean_sbu_3, # of connection points: 4
#     Node 5, Type 0, BuildingBlock: QUQFOY_clean_sbu_3, # of connection points: 4
#     Node 6, Type 0, BuildingBlock: QUQFOY_clean_sbu_3, # of connection points: 4
#     Node 7, Type 0, BuildingBlock: QUQFOY_clean_sbu_3, # of connection points: 4
#     Edge 8, Type (0, 0), BuildingBlock: MIFKUJ_clean_linker_0, # of connection points: 2
#     Edge 9, Type (0, 0), BuildingBlock: MIFKUJ_clean_linker_0, # of connection points: 2
#     Edge 10, Type (0, 0), BuildingBlock: MIFKUJ_clean_linker_0, # of connection points: 2
#     Edge 11, Type (0, 0), BuildingBlock: MIFKUJ_clean_linker_0, # of connection points: 2
#     Edge 12, Type (0, 0), BuildingBlock: MIFKUJ_clean_linker_0, # of connection points: 2
#     Edge 13, Type (0, 0), BuildingBlock: MIFKUJ_clean_linker_0, # of connection points: 2
#     Edge 14, Type (0, 0), BuildingBlock: MIFKUJ_clean_linker_0, # of connection points: 2
#     Edge 15, Type (0, 0), BuildingBlock: MIFKUJ_clean_linker_0, # of connection points: 2
#     Edge 16, Type (0, 0), BuildingBlock: MIFKUJ_clean_linker_0, # of connection points: 2
#     Edge 17, Type (0, 0), BuildingBlock: MIFKUJ_clean_linker_0, # of connection points: 2
#     Edge 18, Type (0, 0), BuildingBlock: MIFKUJ_clean_linker_0, # of connection points: 2
#     Edge 19, Type (0, 0), BuildingBlock: MIFKUJ_clean_linker_0, # of connection points: 2
#     Edge 20, Type (0, 0), BuildingBlock: MIFKUJ_clean_linker_0, # of connection points: 2
#     Edge 21, Type (0, 0), BuildingBlock: MIFKUJ_clean_linker_0, # of connection points: 2
#     Edge 22, Type (0, 0), BuildingBlock: MIFKUJ_clean_linker_0, # of connection points: 2
#     Edge 23, Type (0, 0), BuildingBlock: MIFKUJ_clean_linker_0, # of connection points: 2
# Relax obj value: 0.236
# Max RMSD: 0.071
# Mean RMSD: 0.071
data_MOF--net-rac--node1-QUQFOY_clean_sbu_3--edge1-MIFKUJ_clean_linker_0
_symmetry_space_group_name_H-M    P1
_symmetry_Int_Tables_number       1
_symmetry_cell_setting            triclinic
loop_
_symmetry_equiv_pos_as_xyz
'x, y, z'
_cell_length_a     56.213284
_cell_length_b     28.428876
_cell_length_c     49.991626
_cell_angle_alpha  88.657771
_cell_angle_beta   90.247334
_cell_angle_gamma 89.959761
loop_
_atom_site_label
_atom_site_type_symbol
_atom_site_fract_x
_atom_site_fract_y
_atom_site_fract_z
_atom_type_partial_charge
C0 C 0.3303 0.28774 0.09637 0.0
O1 O 0.31123 0.31005 0.09105 0.0
Cd2 Cd 0.29418 0.31404 0.04752 0.0
O3 O 0.34322 0.27223 0.07756 0.0
Cd4 Cd 0.34532 0.27939 0.02738 0.0
C5 C 0.30207 0.19658 0.02985 0.0
O6 O 0.3222 0.34913 0.01848 0.0
O7 O 0.32595 0.30312 -0.01503 0.0
O8 O 0.37862 0.32849 0.03812 0.0
C9 C 0.31892 0.3422 -0.00621 0.0
O10 O 0.28979 0.23172 0.03705 0.0
C11 C 0.3925 0.31577 0.01972 0.0
O12 O 0.32432 0.20108 0.02481 0.0
O13 O 0.38561 0.28117 0.0058 0.0
C14 C 0.14182 0.69155 0.09474 0.0
O15 O 0.16301 0.68218 0.08785 0.0
Cd16 Cd 0.17812 0.67392 0.04349 0.0
O17 O 0.12524 0.6957 0.07728 0.0
Cd18 Cd 0.11988 0.68929 0.02765 0.0
C19 C 0.15829 0.78307 0.01973 0.0
O20 O 0.14966 0.63146 0.01992 0.0
O21 O 0.13599 0.66595 -0.01584 0.0
O22 O 0.08994 0.63164 0.03989 0.0
C23 C 0.15001 0.63578 -0.00535 0.0
O24 O 0.1745 0.75311 0.02542 0.0
C25 C 0.07429 0.6442 0.02281 0.0
O26 O 0.13612 0.77219 0.0209 0.0
O27 O 0.0787 0.68152 0.00901 0.0
C28 C 0.32908 0.17556 0.37489 0.0
O29 O 0.3089 0.15924 0.38159 0.0
Cd30 Cd 0.29541 0.15165 0.42673 0.0
O31 O 0.34435 0.18606 0.39273 0.0
Cd32 Cd 0.34861 0.18023 0.44263 0.0
C33 C 0.30631 0.2657 0.44705 0.0
O34 O 0.32477 0.11105 0.45194 0.0
O35 O 0.33155 0.15524 0.48568 0.0
O36 O 0.38267 0.13382 0.42986 0.0
C37 C 0.32339 0.11694 0.47694 0.0
O38 O 0.29234 0.2317 0.44213 0.0
C39 C 0.39639 0.14537 0.44878 0.0
O40 O 0.32896 0.26 0.44663 0.0
O41 O 0.38897 0.17781 0.46387 0.0
C42 C 0.14261 0.79041 0.37216 0.0
O43 O 0.16171 0.81169 0.37803 0.0
Cd44 Cd 0.17743 0.81254 0.42234 0.0
O45 O 0.12904 0.77427 0.39061 0.0
Cd46 Cd 0.12561 0.77707 0.44061 0.0
C47 C 0.16873 0.69359 0.43945 0.0
O48 O 0.14917 0.84523 0.45123 0.0
O49 O 0.14406 0.79486 0.48371 0.0
O50 O 0.09202 0.82649 0.42882 0.0
C51 C 0.15193 0.83459 0.47583 0.0
O52 O 0.18134 0.72939 0.43323 0.0
C53 C 0.07805 0.81219 0.44711 0.0
O54 O 0.14625 0.69787 0.44304 0.0
O55 O 0.08514 0.77715 0.46149 0.0
C56 C 0.63912 0.68857 0.87376 0.0
O57 O 0.65914 0.67076 0.88015 0.0
Cd58 Cd 0.67375 0.65866 0.92461 0.0
O59 O 0.62396 0.69877 0.89167 0.0
Cd60 Cd 0.61931 0.6917 0.94151 0.0
C61 C 0.66382 0.77371 0.9455 0.0
O62 O 0.64323 0.62345 0.94995 0.0
O63 O 0.63679 0.66511 -0.01538 0.0
O64 O 0.58619 0.64338 0.92867 0.0
C65 C 0.64575 0.62833 0.97492 0.0
O66 O 0.67687 0.73882 0.93955 0.0
C67 C 0.57153 0.65644 0.94622 0.0
O68 O 0.64107 0.76959 0.94629 0.0
O69 O 0.57811 0.69037 0.96083 0.0
C70 C 0.8337 0.28743 0.87088 0.0
O71 O 0.81556 0.31144 0.87698 0.0
Cd72 Cd 0.80157 0.31694 0.92167 0.0
O73 O 0.84715 0.26971 0.88913 0.0
Cd74 Cd 0.85136 0.27468 0.93914 0.0
C75 C 0.80501 0.19863 0.94242 0.0
O76 O 0.83244 0.34925 0.94762 0.0
O77 O 0.83351 0.29994 0.98117 0.0
O78 O 0.8871 0.31632 0.92684 0.0
C79 C 0.82971 0.34153 0.97248 0.0
O80 O 0.79358 0.23597 0.93599 0.0
C81 C 0.90022 0.30159 0.94595 0.0
O82 O 0.82779 0.19934 0.94411 0.0
O83 O 0.89162 0.26886 0.96092 0.0
C84 C 0.64005 0.77256 0.5925 0.0
O85 O 0.65981 0.79053 0.58552 0.0
Cd86 Cd 0.67363 0.79887 0.54073 0.0
O87 O 0.62489 0.76017 0.57492 0.0
Cd88 Cd 0.62002 0.76363 0.52489 0.0
C89 C 0.66488 0.68248 0.52182 0.0
O90 O 0.64251 0.83375 0.5157 0.0
O91 O 0.6369 0.79026 0.4816 0.0
O92 O 0.58498 0.80722 0.53759 0.0
C93 C 0.64478 0.82844 0.49077 0.0
O94 O 0.67778 0.71802 0.52696 0.0
C95 C 0.57147 0.79439 0.51876 0.0
O96 O 0.6421 0.68601 0.5213 0.0
O97 O 0.57956 0.76255 0.50369 0.0
C98 C 0.83536 0.16808 0.59428 0.0
O99 O 0.81727 0.14361 0.58849 0.0
Cd100 Cd 0.80244 0.13871 0.54393 0.0
O101 O 0.84846 0.18559 0.57579 0.0
Cd102 Cd 0.85233 0.18016 0.52592 0.0
C103 C 0.80658 0.25773 0.5245 0.0
O104 O 0.83233 0.10701 0.51661 0.0
O105 O 0.83342 0.15791 0.48381 0.0
O106 O 0.88783 0.13702 0.53837 0.0
C107 C 0.829 0.11627 0.49195 0.0
O108 O 0.79506 0.22053 0.53082 0.0
C109 C 0.90098 0.1516 0.51939 0.0
O110 O 0.82929 0.25639 0.52211 0.0
O111 O 0.89246 0.18442 0.50431 0.0
H112 H 0.26307 0.16991 0.05772 0.0
H113 H 0.23896 0.09978 0.05303 0.0
H114 H 0.28734 0.04855 -0.00634 0.0
H115 H 0.31192 0.11994 -0.00177 0.0
H116 H 0.23922 0.04193 0.97827 0.0
H117 H 0.2867 -0.0031 0.05392 0.0
H118 H 0.30571 0.00653 0.09799 0.0
H119 H 0.23708 0.01811 0.13461 0.0
H120 H 0.21763 0.00936 0.09068 0.0
H121 H 0.19074 0.80896 0.9827 0.0
H122 H 0.21386 0.88167 0.98133 0.0
H123 H 0.16983 0.9378 0.04343 0.0
H124 H 0.14647 0.86458 0.04468 0.0
H125 H 0.21699 0.94062 0.05636 0.0
H126 H 0.16952 -0.01238 0.98093 0.0
H127 H 0.15025 0.97973 0.93688 0.0
H128 H 0.21858 0.96477 0.89996 0.0
H129 H 0.23827 0.9719 0.94388 0.0
C130 C 0.26882 0.1437 0.04375 0.0
C131 C 0.28947 0.15069 0.02829 0.0
C132 C 0.25498 0.10339 0.04118 0.0
C133 C 0.26132 0.06865 0.0231 0.0
C134 C 0.28211 0.07491 0.00778 0.0
C135 C 0.29624 0.11546 0.01054 0.0
C136 C 0.24556 0.02685 0.02009 0.0
C137 C 0.23471 0.01915 -0.00479 0.0
C138 C 0.23907 -0.00199 0.04238 0.0
C139 C 0.2507 0.00283 0.06893 0.0
C140 C 0.27565 0.00185 0.07133 0.0
C141 C 0.28651 0.00711 0.0963 0.0
C142 C 0.27261 0.01302 0.11907 0.0
C143 C 0.24782 0.01356 0.11694 0.0
C144 C 0.23687 0.00841 0.09201 0.0
C145 C 0.18537 0.83761 -0.00472 0.0
C146 C 0.16657 0.83146 0.01349 0.0
C147 C 0.19869 0.87913 -0.00542 0.0
C148 C 0.19368 0.91537 0.0123 0.0
C149 C 0.17403 0.91037 0.02954 0.0
C150 C 0.16046 0.86885 0.03 0.0
C151 C 0.21044 0.95586 0.01458 0.0
C152 C 0.22152 0.96325 0.03937 0.0
C153 C 0.21714 -0.01569 -0.0078 0.0
C154 C 0.20536 0.97982 0.96576 0.0
C155 C 0.18044 -0.0178 0.96346 0.0
C156 C 0.16943 0.97797 0.9385 0.0
C157 C 0.18318 0.97163 0.91565 0.0
C158 C 0.20796 0.96962 0.91769 0.0
C159 C 0.21905 0.9738 0.94261 0.0
H160 H 0.17463 0.96838 0.89634 0.0
H161 H 0.28104 0.01709 0.13839 0.0
H162 H 0.21352 0.67428 0.42283 0.0
H163 H 0.23554 0.60123 0.42651 0.0
H164 H 0.17541 0.53343 0.46417 0.0
H165 H 0.15279 0.60783 0.46067 0.0
H166 H 0.21907 0.51241 0.48995 0.0
H167 H 0.18759 0.50857 0.40153 0.0
H168 H 0.17785 0.53985 0.35639 0.0
H169 H 0.2522 0.55702 0.33945 0.0
H170 H 0.26239 0.52659 0.38468 0.0
H171 H 0.26434 0.28112 0.47164 0.0
H172 H 0.24161 0.35402 0.47301 0.0
H173 H 0.29901 0.42831 0.43376 0.0
H174 H 0.32209 0.35464 0.43238 0.0
H175 H 0.25538 0.44455 0.40915 0.0
H176 H 0.28648 0.44909 0.49835 0.0
H177 H 0.2957 0.41817 0.5437 0.0
H178 H 0.22123 0.39843 0.55902 0.0
H179 H 0.21157 0.42863 0.5136 0.0
C180 C 0.20473 0.64407 0.43194 0.0
C181 C 0.18122 0.64724 0.44147 0.0
C182 C 0.21746 0.60204 0.4339 0.0
C183 C 0.20715 0.56157 0.44536 0.0
C184 C 0.18373 0.56424 0.45515 0.0
C185 C 0.17077 0.60667 0.45304 0.0
C186 C 0.22132 0.51715 0.44702 0.0
C187 C 0.22664 0.49701 0.47225 0.0
C188 C 0.23178 0.49774 0.42398 0.0
C189 C 0.22575 0.51563 0.39662 0.0
C190 C 0.20187 0.51934 0.38827 0.0
C191 C 0.19626 0.53688 0.36264 0.0
C192 C 0.21439 0.5505 0.34508 0.0
C193 C 0.23817 0.54648 0.35309 0.0
C194 C 0.24388 0.52905 0.37871 0.0
C195 C 0.27239 0.31314 0.46376 0.0
C196 C 0.29508 0.31208 0.45194 0.0
C197 C 0.25934 0.35491 0.46461 0.0
C198 C 0.26853 0.39684 0.45354 0.0
C199 C 0.29154 0.39639 0.44246 0.0
C200 C 0.30482 0.35443 0.4419 0.0
C201 C 0.25333 0.43998 0.45212 0.0
C202 C 0.24778 0.45984 0.42687 0.0
C203 C 0.24257 0.4589 0.47512 0.0
C204 C 0.24832 0.44072 0.50246 0.0
C205 C 0.27208 0.43778 0.5113 0.0
C206 C 0.27738 0.42046 0.53704 0.0
C207 C 0.25906 0.40623 0.55421 0.0
C208 C 0.2354 0.40941 0.54569 0.0
C209 C 0.23 0.42667 0.51996 0.0
H210 H 0.26321 0.39284 0.57414 0.0
H211 H 0.21001 0.56408 0.32526 0.0
H212 H 0.64512 0.86418 0.94824 0.0
H213 H 0.66759 0.93811 0.95187 0.0
H214 H 0.73321 0.85949 0.95609 0.0
H215 H 0.7112 0.78659 0.95333 0.0
H216 H 0.73627 0.92779 -0.01089 0.0
H217 H 0.7114 0.91506 0.89659 0.0
H218 H 0.68196 0.90812 0.86014 0.0
H219 H 0.64915 0.03736 0.88322 0.0
H220 H 0.67823 0.04476 0.92001 0.0
H221 H 0.8207 0.1062 0.94834 0.0
H222 H 0.79598 0.03497 0.9524 0.0
H223 H 0.73268 0.12078 0.95069 0.0
H224 H 0.75688 0.19115 0.94642 0.0
H225 H 0.72712 0.05091 0.91795 0.0
H226 H 0.75323 0.06595 0.0089 0.0
H227 H 0.78249 0.07299 0.04548 0.0
H228 H 0.81296 0.93985 0.02551 0.0
H229 H 0.78406 0.9323 -0.01144 0.0
C230 C 0.66429 0.86274 0.95031 0.0
C231 C 0.67625 0.81925 0.95021 0.0
C232 C 0.67718 0.90506 0.95217 0.0
C233 C 0.70226 0.90465 0.95383 0.0
C234 C 0.71398 0.86113 0.95479 0.0
C235 C 0.70123 0.81922 0.95304 0.0
C236 C 0.71672 0.94892 0.95363 0.0
C237 C 0.73435 0.95451 0.9734 0.0
C238 C 0.71413 -0.01555 0.93347 0.0
C239 C 0.69681 0.98018 0.91122 0.0
C240 C 0.69781 0.94183 0.89399 0.0
C241 C 0.68121 0.93784 0.87326 0.0
C242 C 0.66365 0.9722 0.86944 0.0
C243 C 0.66273 0.01073 0.88625 0.0
C244 C 0.67927 0.01485 0.90703 0.0
C245 C 0.80154 0.10983 0.94907 0.0
C246 C 0.7909 0.15461 0.94691 0.0
C247 C 0.78738 0.06907 0.95143 0.0
C248 C 0.76234 0.07233 0.95187 0.0
C249 C 0.75186 0.11705 0.95021 0.0
C250 C 0.76587 0.15746 0.94782 0.0
C251 C 0.74679 0.0296 0.9533 0.0
C252 C 0.72898 0.0243 0.93373 0.0
C253 C 0.74925 -0.00566 0.97361 0.0
C254 C 0.76665 -0.00119 -0.00421 0.0
C255 C 0.7663 0.03836 0.01216 0.0
C256 C 0.78279 0.0424 0.03299 0.0
C257 C 0.79961 0.00695 0.03777 0.0
C258 C 0.79994 0.96732 0.02176 0.0
C259 C 0.7835 0.96312 0.00089 0.0
H260 H 0.81236 0.01014 0.05391 0.0
H261 H 0.65077 0.96906 0.85343 0.0
H262 H 0.71152 0.67076 0.5097 0.0
H263 H 0.73418 0.59835 0.50745 0.0
H264 H 0.67044 0.51768 0.52217 0.0
H265 H 0.64734 0.59114 0.52494 0.0
H266 H 0.70701 0.48611 0.55339 0.0
H267 H 0.69699 0.52067 0.4601 0.0
H268 H 0.69767 0.56957 0.41872 0.0
H269 H 0.77304 0.58883 0.42738 0.0
H270 H 0.77277 0.54056 0.46903 0.0
H271 H 0.75841 0.26752 0.52559 0.0
H272 H 0.7348 0.33885 0.52276 0.0
H273 H 0.79852 0.42154 0.51284 0.0
H274 H 0.82275 0.34923 0.5156 0.0
H275 H 0.76163 0.45129 0.47864 0.0
H276 H 0.77147 0.41767 0.57226 0.0
H277 H 0.77085 0.36805 0.61337 0.0
H278 H 0.6957 0.34684 0.60393 0.0
H279 H 0.69592 0.39574 0.5625 0.0
C280 C 0.7021 0.63773 0.51226 0.0
C281 C 0.67748 0.637 0.51757 0.0
C282 C 0.71518 0.59613 0.51079 0.0
C283 C 0.70411 0.55227 0.51437 0.0
C284 C 0.67943 0.55108 0.51925 0.0
C285 C 0.66618 0.59306 0.52065 0.0
C286 C 0.71877 0.50829 0.51416 0.0
C287 C 0.7186 0.4781 0.5368 0.0
C288 C 0.73457 0.49837 0.49293 0.0
C289 C 0.73482 0.52729 0.46782 0.0
C290 C 0.71369 0.53562 0.45329 0.0
C291 C 0.714 0.56318 0.42977 0.0
C292 C 0.73538 0.58238 0.42046 0.0
C293 C 0.7565 0.57396 0.43463 0.0
C294 C 0.75628 0.54645 0.45818 0.0
C295 C 0.76764 0.30068 0.52276 0.0
C296 C 0.79268 0.30235 0.52106 0.0
C297 C 0.75397 0.34165 0.52122 0.0
C298 C 0.7648 0.38578 0.51805 0.0
C299 C 0.78974 0.38786 0.51546 0.0
C300 C 0.80358 0.34652 0.51706 0.0
C301 C 0.74982 0.42926 0.51783 0.0
C302 C 0.74997 0.45932 0.49516 0.0
C303 C 0.734 0.43908 0.53903 0.0
C304 C 0.73375 0.41006 0.56412 0.0
C305 C 0.75483 0.40215 0.57883 0.0
C306 C 0.75456 0.37419 0.60221 0.0
C307 C 0.73326 0.35421 0.61122 0.0
C308 C 0.71219 0.36229 0.59691 0.0
C309 C 0.71237 0.39017 0.57349 0.0
H310 H 0.73309 0.33254 0.62932 0.0
H311 H 0.73559 0.60371 0.40224 0.0
H312 H 0.36479 0.22805 0.11669 0.0
H313 H 0.37236 0.20765 0.16392 0.0
H314 H 0.31774 0.30498 0.18719 0.0
H315 H 0.31023 0.32577 0.14041 0.0
H316 H 0.35559 0.30924 0.22032 0.0
H317 H 0.30559 0.1888 0.18145 0.0
H318 H 0.29651 0.12691 0.14914 0.0
H319 H 0.35827 0.04935 0.17529 0.0
H320 H 0.36784 0.11108 0.20756 0.0
H321 H 0.30023 0.15807 0.33221 0.0
H322 H 0.30792 0.17452 0.28505 0.0
H323 H 0.37791 0.22585 0.30465 0.0
H324 H 0.37019 0.21018 0.35224 0.0
H325 H 0.33946 0.14449 0.24975 0.0
H326 H 0.39043 0.3177 0.26057 0.0
H327 H 0.39545 0.38164 0.29268 0.0
H328 H 0.32503 0.35652 0.32271 0.0
H329 H 0.31951 0.29284 0.29057 0.0
C330 C 0.35463 0.24554 0.1319 0.0
C331 C 0.33675 0.27823 0.12475 0.0
C332 C 0.35894 0.23376 0.15886 0.0
C333 C 0.34547 0.25453 0.17904 0.0
C334 C 0.32838 0.28858 0.17196 0.0
C335 C 0.32401 0.30021 0.14515 0.0
C336 C 0.3478 0.23908 0.20748 0.0
C337 C 0.35241 0.27307 0.22675 0.0
C338 C 0.34344 0.192 0.21589 0.0
C339 C 0.33759 0.15478 0.19666 0.0
C340 C 0.31731 0.15869 0.18017 0.0
C341 C 0.31206 0.12363 0.16189 0.0
C342 C 0.32686 0.08432 0.16009 0.0
C343 C 0.34686 0.07988 0.17666 0.0
C344 C 0.3522 0.11487 0.19495 0.0
C345 C 0.31734 0.17265 0.32659 0.0
C346 C 0.33452 0.18318 0.3461 0.0
C347 C 0.32176 0.18178 0.29953 0.0
C348 C 0.34342 0.20169 0.29129 0.0
C349 C 0.36096 0.21094 0.31058 0.0
C350 C 0.35652 0.20191 0.33777 0.0
C351 C 0.34682 0.21484 0.26264 0.0
C352 C 0.3433 0.1804 0.24333 0.0
C353 C 0.35171 0.26171 0.25419 0.0
C354 C 0.3547 0.30017 0.27342 0.0
C355 C 0.37602 0.32591 0.27401 0.0
C356 C 0.37895 0.36209 0.2922 0.0
C357 C 0.36061 0.373 0.3098 0.0
C358 C 0.33926 0.3479 0.30915 0.0
C359 C 0.33623 0.31173 0.29097 0.0
H360 H 0.36292 0.401 0.32388 0.0
H361 H 0.3228 0.05726 0.1459 0.0
H362 H 0.106 0.73848 0.35127 0.0
H363 H 0.09872 0.72145 0.3041 0.0
H364 H 0.15915 0.80677 0.28155 0.0
H365 H 0.16634 0.8244 0.32831 0.0
H366 H 0.12348 0.82224 0.24755 0.0
H367 H 0.16355 0.68757 0.2868 0.0
H368 H 0.1692 0.62137 0.319 0.0
H369 H 0.10313 0.56074 0.29366 0.0
H370 H 0.09696 0.62695 0.26153 0.0
H371 H 0.17383 0.71105 0.13392 0.0
H372 H 0.16601 0.72699 0.18081 0.0
H373 H 0.09101 0.70546 0.16783 0.0
H374 H 0.09857 0.69048 0.12033 0.0
H375 H 0.1261 0.65632 0.21893 0.0
H376 H 0.08897 0.79594 0.17643 0.0
H377 H 0.08882 0.8613 0.14308 0.0
H378 H 0.15521 0.91126 0.17431 0.0
H379 H 0.15589 0.8457 0.20758 0.0
C380 C 0.11758 0.75399 0.33624 0.0
C381 C 0.13684 0.78259 0.34362 0.0
C382 C 0.11345 0.74407 0.3093 0.0
C383 C 0.12853 0.76248 0.28931 0.0
C384 C 0.14725 0.79222 0.2966 0.0
C385 C 0.1514 0.8021 0.32342 0.0
C386 C 0.12561 0.74965 0.26086 0.0
C387 C 0.12384 0.7859 0.24138 0.0
C388 C 0.126 0.70224 0.2527 0.0
C389 C 0.12963 0.6625 0.27203 0.0
C390 C 0.15012 0.66033 0.28827 0.0
C391 C 0.15345 0.62278 0.30647 0.0
C392 C 0.13649 0.58696 0.30844 0.0
C393 C 0.11622 0.58857 0.29216 0.0
C394 C 0.1128 0.62609 0.27395 0.0
C395 C 0.15565 0.70946 0.14095 0.0
C396 C 0.1368 0.69954 0.12335 0.0
C397 C 0.15124 0.71862 0.16776 0.0
C398 C 0.12798 0.71745 0.17764 0.0
C399 C 0.10909 0.70659 0.16043 0.0
C400 C 0.11344 0.69818 0.13336 0.0
C401 C 0.12387 0.72887 0.20593 0.0
C402 C 0.12478 0.69245 0.2253 0.0
C403 C 0.12307 0.77607 0.21404 0.0
C404 C 0.1226 0.81569 0.19426 0.0
C405 C 0.10364 0.8206 0.17599 0.0
C406 C 0.10343 0.85773 0.15715 0.0
C407 C 0.12203 0.89034 0.15653 0.0
C408 C 0.14083 0.88595 0.1748 0.0
C409 C 0.14113 0.84884 0.19366 0.0
H410 H 0.12184 0.91906 0.14193 0.0
H411 H 0.1391 0.5579 0.32253 0.0
H412 H 0.67108 0.7 0.83353 0.0
H413 H 0.66317 0.71796 0.78637 0.0
H414 H 0.58774 0.71735 0.80155 0.0
H415 H 0.59552 0.70032 0.84931 0.0
H416 H 0.60917 0.66047 0.75343 0.0
H417 H 0.60242 0.81386 0.79163 0.0
H418 H 0.61517 0.87812 0.82071 0.0
H419 H 0.68121 0.88923 0.77822 0.0
H420 H 0.66903 0.82449 0.74915 0.0
H421 H 0.59847 0.7426 0.61639 0.0
H422 H 0.59088 0.73169 0.66442 0.0
H423 H 0.66269 0.77543 0.68176 0.0
H424 H 0.6702 0.78736 0.63426 0.0
H425 H 0.63356 0.81529 0.71478 0.0
H426 H 0.64514 0.65783 0.68253 0.0
H427 H 0.63646 0.58969 0.65446 0.0
H428 H 0.56559 0.5824 0.686 0.0
H429 H 0.57378 0.65094 0.71403 0.0
C430 C 0.65278 0.70354 0.82692 0.0
C431 C 0.63391 0.69874 0.84516 0.0
C432 C 0.64831 0.71388 0.79998 0.0
C433 C 0.62491 0.71898 0.7906 0.0
C434 C 0.60592 0.71349 0.80853 0.0
C435 C 0.6104 0.70398 0.83573 0.0
C436 C 0.62083 0.73061 0.76198 0.0
C437 C 0.61384 0.69466 0.74491 0.0
C438 C 0.62755 0.77485 0.75103 0.0
C439 C 0.63486 0.81408 0.76833 0.0
C440 C 0.61974 0.82972 0.78863 0.0
C441 C 0.62685 0.86629 0.80509 0.0
C442 C 0.649 0.88768 0.80133 0.0
C443 C 0.66406 0.87261 0.7811 0.0
C444 C 0.65705 0.83602 0.7646 0.0
C445 C 0.61261 0.74996 0.63047 0.0
C446 C 0.63496 0.76582 0.62143 0.0
C447 C 0.60826 0.7436 0.65791 0.0
C448 C 0.62626 0.7525 0.67673 0.0
C449 C 0.64846 0.76859 0.66768 0.0
C450 C 0.65276 0.77522 0.64042 0.0
C451 C 0.62249 0.74473 0.70592 0.0
C452 C 0.62815 0.78143 0.72316 0.0
C453 C 0.61492 0.7009 0.71697 0.0
C454 C 0.60996 0.65987 0.70008 0.0
C455 C 0.62764 0.64195 0.68329 0.0
C456 C 0.62282 0.60322 0.66743 0.0
C457 C 0.60046 0.58184 0.66837 0.0
C458 C 0.58288 0.59908 0.68524 0.0
C459 C 0.5876 0.63786 0.70112 0.0
H460 H 0.59676 0.55184 0.65608 0.0
H461 H 0.65447 0.916 0.81405 0.0
H462 H 0.81628 0.12459 0.63839 0.0
H463 H 0.82071 0.14658 0.68498 0.0
H464 H 0.86934 0.25716 0.66148 0.0
H465 H 0.8654 0.23465 0.61462 0.0
H466 H 0.88304 0.21647 0.70849 0.0
H467 H 0.81208 0.28388 0.67204 0.0
H468 H 0.77372 0.28503 0.64791 0.0
H469 H 0.74445 0.18805 0.70609 0.0
H470 H 0.78276 0.18586 0.73039 0.0
H471 H 0.81726 0.33824 0.82782 0.0
H472 H 0.82255 0.32196 0.78058 0.0
H473 H 0.86547 0.20063 0.80173 0.0
H474 H 0.86094 0.21791 0.84921 0.0
H475 H 0.80737 0.25339 0.75425 0.0
H476 H 0.9027 0.17365 0.75067 0.0
H477 H 0.94165 0.18363 0.77274 0.0
H478 H 0.92335 0.32559 0.79179 0.0
H479 H 0.88445 0.3167 0.76953 0.0
C480 C 0.82814 0.15328 0.64309 0.0
C481 C 0.84026 0.17826 0.62272 0.0
C482 C 0.83062 0.16584 0.66976 0.0
C483 C 0.84498 0.2041 0.67666 0.0
C484 C 0.85809 0.22762 0.65659 0.0
C485 C 0.85577 0.21478 0.62982 0.0
C486 C 0.84496 0.22114 0.70451 0.0
C487 C 0.86654 0.22456 0.71856 0.0
C488 C 0.82348 0.23308 0.71738 0.0
C489 C 0.80035 0.2344 0.70291 0.0
C490 C 0.79751 0.26254 0.67959 0.0
C491 C 0.77577 0.26343 0.66589 0.0
C492 C 0.75668 0.23655 0.67543 0.0
C493 C 0.75927 0.20881 0.69871 0.0
C494 C 0.78098 0.20778 0.71248 0.0
C495 C 0.82807 0.30837 0.82244 0.0
C496 C 0.83861 0.27923 0.84227 0.0
C497 C 0.83105 0.29905 0.79538 0.0
C498 C 0.84443 0.26009 0.78746 0.0
C499 C 0.85539 0.23138 0.80723 0.0
C500 C 0.85271 0.24115 0.83439 0.0
C501 C 0.84547 0.24805 0.75866 0.0
C502 C 0.82398 0.24544 0.74434 0.0
C503 C 0.86712 0.2385 0.74539 0.0
C504 C 0.89055 0.24429 0.75867 0.0
C505 C 0.90702 0.20704 0.75949 0.0
C506 C 0.92909 0.21251 0.77204 0.0
C507 C 0.93494 0.25516 0.78374 0.0
C508 C 0.91876 0.29251 0.78283 0.0
C509 C 0.89669 0.28724 0.77028 0.0
H510 H 0.95203 0.25931 0.79346 0.0
H511 H 0.73986 0.23729 0.6648 0.0
H512 H 0.41004 0.38913 0.04766 0.0
H513 H 0.43954 0.44695 0.03331 0.0
H514 H 0.45244 0.36889 0.96193 0.0
H515 H 0.42242 0.31052 0.9761 0.0
H516 H 0.49442 0.40464 -0.01448 0.0
H517 H 0.4189 0.46162 0.95585 0.0
H518 H 0.37656 0.4834 0.95922 0.0
H519 H 0.39394 0.58596 0.01787 0.0
H520 H 0.43638 0.56442 0.01509 0.0
H521 H 0.55344 0.58718 0.91545 0.0
H522 H 0.52248 0.53048 0.92711 0.0
H523 H 0.50895 0.60328 0.00016 0.0
H524 H 0.54029 0.66056 -0.01136 0.0
H525 H 0.46684 0.56993 0.97425 0.0
H526 H 0.54304 0.51049 0.00347 0.0
H527 H 0.58524 0.48937 -0.00217 0.0
H528 H 0.56602 0.39079 0.93767 0.0
H529 H 0.5237 0.4119 0.94265 0.0
C530 C 0.41934 0.38362 0.02906 0.0
C531 C 0.41371 0.34508 0.01298 0.0
C532 C 0.43614 0.41704 0.02081 0.0
C533 C 0.4479 0.41286 -0.00369 0.0
C534 C 0.44345 0.37303 0.98086 0.0
C535 C 0.42639 0.33954 -0.01096 0.0
C536 C 0.46422 0.45104 -0.01323 0.0
C537 C 0.4883 0.44061 0.98266 0.0
C538 C 0.45636 0.49827 0.98347 0.0
C539 C 0.43082 0.51104 -0.01454 0.0
C540 C 0.41368 0.48848 0.96967 0.0
C541 C 0.38966 0.50087 0.97142 0.0
C542 C 0.38256 0.53594 -0.0112 0.0
C543 C 0.39947 0.55875 0.00444 0.0
C544 C 0.42351 0.5465 0.00276 0.0
C545 C 0.54366 0.59183 0.93381 0.0
C546 C 0.54953 0.62841 0.9512 0.0
C547 C 0.52598 0.55912 0.9405 0.0
C548 C 0.51366 0.56202 0.96474 0.0
C549 C 0.51832 0.60019 0.9814 0.0
C550 C 0.53618 0.63303 0.97475 0.0
C551 C 0.49705 0.52355 0.97319 0.0
C552 C 0.47292 0.53394 0.97709 0.0
C553 C 0.50482 0.4762 0.9761 0.0
C554 C 0.53022 0.46312 0.97325 0.0
C555 C 0.54782 0.48459 -0.01111 0.0
C556 C 0.57176 0.47258 -0.01417 0.0
C557 C 0.57831 0.43885 0.96735 0.0
C558 C 0.56092 0.41696 0.95195 0.0
C559 C 0.53696 0.42891 0.95489 0.0
H560 H 0.59686 0.4296 0.96501 0.0
H561 H 0.36397 0.54552 -0.00991 0.0
H562 H 0.06046 0.56637 0.05159 0.0
H563 H 0.03146 0.50701 0.03904 0.0
H564 H 0.01285 0.58956 0.96859 0.0
H565 H 0.04197 0.64966 0.98115 0.0
H566 H 0.97352 0.54865 -0.00861 0.0
H567 H 0.05043 0.49813 0.96365 0.0
H568 H 0.09306 0.47921 0.9687 0.0
H569 H 0.07644 0.37213 0.02766 0.0
H570 H 0.03371 0.39089 0.02325 0.0
H571 H 0.92161 0.3704 0.91593 0.0
H572 H 0.9518 0.42596 0.93025 0.0
H573 H 0.9592 0.34974 0.00534 0.0
H574 H 0.92843 0.29385 -0.00873 0.0
H575 H 0.00408 0.38619 0.98089 0.0
H576 H 0.92632 0.43778 0.00737 0.0
H577 H 0.88388 0.45579 -0.00029 0.0
H578 H 0.90266 0.56103 0.94052 0.0
H579 H 0.94523 0.54304 0.9475 0.0
C580 C 0.04998 0.57244 0.03361 0.0
C581 C 0.05369 0.61284 0.01731 0.0
C582 C 0.03346 0.53817 0.02637 0.0
C583 C 0.02028 0.54317 0.00256 0.0
C584 C 0.02291 0.5847 -0.01303 0.0
C585 C 0.03952 0.61916 -0.00577 0.0
C586 C 0.00453 0.50418 -0.00642 0.0
C587 C 0.9803 0.51331 -0.01116 0.0
C588 C 0.01319 0.45767 -0.0094 0.0
C589 C 0.03887 0.44626 -0.00668 0.0
C590 C 0.05588 0.47082 0.97787 0.0
C591 C 0.08006 0.46008 0.98058 0.0
C592 C 0.08745 0.42457 -0.00147 0.0
C593 C 0.07068 0.39968 0.01378 0.0
C594 C 0.04647 0.41033 0.01118 0.0
C595 C 0.92994 0.36462 0.9353 0.0
C596 C 0.9224 0.32766 0.95251 0.0
C597 C 0.94719 0.39667 0.94349 0.0
C598 C 0.95751 0.3925 0.96901 0.0
C599 C 0.9514 0.35372 -0.01443 0.0
C600 C 0.93388 0.32166 0.97746 0.0
C601 C 0.97317 0.43077 0.97885 0.0
C602 C -0.00265 0.42152 0.98364 0.0
C603 C 0.96452 0.47723 0.98169 0.0
C604 C 0.93896 0.48874 0.97777 0.0
C605 C 0.9214 0.46451 -0.00744 0.0
C606 C 0.89732 0.47473 -0.01163 0.0
C607 C 0.89057 0.50944 0.96959 0.0
C608 C 0.90791 0.53411 0.95504 0.0
C609 C 0.93202 0.52393 0.95912 0.0
H610 H 0.87192 0.51729 0.96636 0.0
H611 H 0.10618 0.41627 0.00058 0.0
H612 H 0.54673 0.80106 0.47124 0.0
H613 H 0.51605 0.85933 0.45911 0.0
H614 H 0.5163 0.90872 0.54 0.0
H615 H 0.54679 0.85074 0.55221 0.0
H616 H 0.47128 0.90927 0.51902 0.0
H617 H 0.54909 0.96393 0.49293 0.0
H618 H 0.58766 0.95879 0.46986 0.0
H619 H 0.55168 0.9527 0.39408 0.0
H620 H 0.51286 0.95706 0.41676 0.0
H621 H 0.42042 0.13554 0.49658 0.0
H622 H 0.45001 0.07501 0.50859 0.0
H623 H 0.44968 0.02774 0.42727 0.0
H624 H 0.42023 0.0879 0.4152 0.0
H625 H 0.49439 0.0254 0.44816 0.0
H626 H 0.41677 0.97134 0.47352 0.0
H627 H 0.3779 0.975 0.49608 0.0
H628 H 0.41296 0.97889 0.57248 0.0
H629 H 0.45208 0.9759 0.55033 0.0
C630 C 0.53976 0.82341 0.48662 0.0
C631 C 0.54929 0.82128 0.51268 0.0
C632 C 0.52238 0.85708 0.4796 0.0
C633 C 0.51413 0.88911 0.49852 0.0
C634 C 0.5224 0.88467 0.52499 0.0
C635 C 0.53986 0.85138 0.53195 0.0
C636 C 0.49826 0.92929 0.49052 0.0
C637 C 0.47646 0.93489 0.50371 0.0
C638 C 0.50475 0.96252 0.47026 0.0
C639 C 0.52807 0.96031 0.45657 0.0
C640 C 0.5494 0.96113 0.47137 0.0
C641 C 0.57131 0.95841 0.45836 0.0
C642 C 0.57212 0.95529 0.43053 0.0
C643 C 0.55102 0.95503 0.41564 0.0
C644 C 0.52906 0.95764 0.42856 0.0
C645 C 0.42713 0.11309 0.48111 0.0
C646 C 0.41793 0.11658 0.45493 0.0
C647 C 0.44386 0.07812 0.48806 0.0
C648 C 0.4518 0.04615 0.46895 0.0
C649 C 0.44379 0.05171 0.44243 0.0
C650 C 0.42696 0.08627 0.43554 0.0
C651 C 0.46742 0.00546 0.47669 0.0
C652 C 0.48919 -0.00022 0.46346 0.0
C653 C 0.46085 0.97209 0.49685 0.0
C654 C 0.43736 0.97394 0.51024 0.0
C655 C 0.4162 0.9734 0.49512 0.0
C656 C 0.39413 0.97526 0.50783 0.0
C657 C 0.39297 0.97732 0.53569 0.0
C658 C 0.41389 0.97739 0.55089 0.0
C659 C 0.43602 0.97558 0.53827 0.0
H660 H 0.37586 0.97876 0.54549 0.0
H661 H 0.5891 0.95318 0.42049 0.0
H662 H 0.92643 0.15221 0.4724 0.0
H663 H 0.95743 0.09606 0.45989 0.0
H664 H 0.95575 0.03401 0.5394 0.0
H665 H 0.92522 0.09016 0.55206 0.0
H666 H 0.0003 0.03489 0.52124 0.0
H667 H 0.92384 -0.01295 0.48773 0.0
H668 H 0.88646 -0.00262 0.46221 0.0
H669 H 0.92611 0.01727 0.3896 0.0
H670 H 0.96374 0.00776 0.41476 0.0
H671 H 0.05248 0.81342 0.49394 0.0
H672 H 0.0224 0.8716 0.50636 0.0
H673 H 0.02566 0.93415 0.42705 0.0
H674 H 0.05546 0.87625 0.41455 0.0
H675 H 0.98054 0.93341 0.44487 0.0
H676 H 0.05696 0.98083 0.47826 0.0
H677 H 0.0944 0.9718 0.50379 0.0
H678 H 0.05492 0.95292 0.57659 0.0
H679 H 0.01722 0.96126 0.55143 0.0
C680 C 0.93315 0.12748 0.48742 0.0
C681 C 0.92323 0.12563 0.51321 0.0
C682 C 0.9507 0.09498 0.48016 0.0
C683 C 0.95862 0.05996 0.49852 0.0
C684 C 0.94991 0.06033 0.52479 0.0
C685 C 0.93241 0.09261 0.53201 0.0
C686 C 0.97476 0.02113 0.49018 0.0
C687 C -0.00416 0.01245 0.50471 0.0
C688 C 0.96921 -0.00801 0.46837 0.0
C689 C 0.94661 -0.00283 0.45317 0.0
C690 C 0.92458 -0.00606 0.46634 0.0
C691 C 0.90336 -0.00039 0.45195 0.0
C692 C 0.90392 0.00809 0.42431 0.0
C693 C 0.92571 0.01078 0.41101 0.0
C694 C 0.94699 0.00523 0.42533 0.0
C695 C 0.04633 0.8388 0.47896 0.0
C696 C 0.05644 0.84017 0.45326 0.0
C697 C 0.02932 0.87242 0.48616 0.0
C698 C 0.02204 0.90796 0.46779 0.0
C699 C 0.03101 0.90739 0.44165 0.0
C700 C 0.04807 0.87411 0.43452 0.0
C701 C 0.00606 0.94713 0.47597 0.0
C702 C 0.98501 0.95585 0.46141 0.0
C703 C 0.01163 0.97629 0.49775 0.0
C704 C 0.03427 0.97116 0.51292 0.0
C705 C 0.05626 0.97436 0.49968 0.0
C706 C 0.07753 0.96944 0.51409 0.0
C707 C 0.07704 0.96167 0.54178 0.0
C708 C 0.05527 0.95887 0.55513 0.0
C709 C 0.03395 0.96372 0.54081 0.0
H710 H 0.09353 0.95794 0.5529 0.0
H711 H 0.88747 0.01248 0.4132 0.0
H712 H 0.14885 0.61521 0.94142 0.0
H713 H 0.17953 0.57307 0.91623 0.0
H714 H 0.22337 0.5646 -0.01279 0.0
H715 H 0.19285 0.60478 0.01242 0.0
H716 H 0.24769 0.59036 0.93434 0.0
H717 H 0.19245 0.47203 0.98149 0.0
H718 H 0.15139 0.44225 -0.01348 0.0
H719 H 0.14538 0.43017 0.90128 0.0
H720 H 0.18636 0.46029 0.89584 0.0
H721 H 0.30798 0.43157 0.00622 0.0
H722 H 0.28283 0.48643 0.98139 0.0
H723 H 0.27452 0.38629 0.91843 0.0
H724 H 0.29982 0.3302 0.94372 0.0
H725 H 0.23224 0.41853 0.93573 0.0
H726 H 0.30052 0.49182 0.90199 0.0
H727 H 0.34206 0.51949 0.90265 0.0
H728 H 0.32454 0.61927 0.96261 0.0
H729 H 0.28301 0.59182 0.9627 0.0
C730 C 0.16518 0.60463 0.95144 0.0
C731 C 0.16849 0.61279 0.97886 0.0
C732 C 0.18265 0.58099 0.93704 0.0
C733 C 0.20375 0.56657 0.94985 0.0
C734 C 0.20732 0.57623 0.97694 0.0
C735 C 0.18977 0.59868 -0.00861 0.0
C736 C 0.22118 0.536 0.9369 0.0
C737 C 0.24445 0.5528 0.9337 0.0
C738 C 0.21659 0.48742 0.93502 0.0
C739 C 0.1923 0.46837 0.93827 0.0
C740 C 0.18232 0.46295 0.96387 0.0
C741 C 0.15908 0.44612 0.96679 0.0
C742 C 0.14578 0.43433 0.94423 0.0
C743 C 0.1557 0.43932 0.91872 0.0
C744 C 0.17891 0.45627 0.91571 0.0
C745 C 0.30113 0.42132 -0.01308 0.0
C746 C 0.30567 0.37651 0.97701 0.0
C747 C 0.28699 0.45302 0.97252 0.0
C748 C 0.27718 0.44084 0.94775 0.0
C749 C 0.2822 0.39653 0.93732 0.0
C750 C 0.29656 0.36462 0.95179 0.0
C751 C 0.25919 0.47258 0.93539 0.0
C752 C 0.23572 0.45601 0.93399 0.0
C753 C 0.2637 0.52146 0.93281 0.0
C754 C 0.28849 0.53991 0.93215 0.0
C755 C 0.30549 0.51975 0.91529 0.0
C756 C 0.32907 0.53534 0.91558 0.0
C757 C 0.33592 0.57119 0.93261 0.0
C758 C 0.31918 0.59166 0.94933 0.0
C759 C 0.29557 0.57621 0.94913 0.0
H760 H 0.35421 0.58304 0.9329 0.0
H761 H 0.12779 0.42132 0.94652 0.0
H762 H 0.30766 0.12949 0.5282 0.0
H763 H 0.28096 0.07747 0.55398 0.0
H764 H 0.28184 0.97873 0.4897 0.0
H765 H 0.30843 0.02971 0.46431 0.0
H766 H 0.23743 0.05642 0.53994 0.0
H767 H 0.27501 0.87232 0.50716 0.0
H768 H 0.31414 0.83346 0.50626 0.0
H769 H 0.34021 0.92622 0.56622 0.0
H770 H 0.30111 0.96523 0.56789 0.0
H771 H 0.1669 0.92366 0.46539 0.0
H772 H 0.19488 0.9694 0.49114 0.0
H773 H 0.19811 0.85877 0.5517 0.0
H774 H 0.16999 0.81214 0.52558 0.0
H775 H 0.2412 0.88237 0.53636 0.0
H776 H 0.17866 0.96718 0.57023 0.0
H777 H 0.13959 0.00636 0.57167 0.0
H778 H 0.16358 0.11144 0.51494 0.0
H779 H 0.20261 0.07247 0.51266 0.0
C780 C 0.30253 0.09618 0.51993 0.0
C781 C 0.30988 0.08383 0.49415 0.0
C782 C 0.28735 0.0665 0.53468 0.0
C783 C 0.27967 0.02388 0.52397 0.0
C784 C 0.28797 0.01077 0.49875 0.0
C785 C 0.30295 0.04031 0.48406 0.0
C786 C 0.26026 -0.00398 0.53648 0.0
C787 C 0.23825 0.01832 0.53988 0.0
C788 C 0.2616 0.94635 0.5381 0.0
C789 C 0.28496 0.92165 0.53775 0.0
C790 C 0.28893 0.88408 0.52047 0.0
C791 C 0.31118 0.86213 0.51972 0.0
C792 C 0.32965 0.87735 0.53617 0.0
C793 C 0.3259 0.91449 0.55346 0.0
C794 C 0.30369 0.93655 0.55431 0.0
C795 C 0.1732 0.90932 0.4844 0.0
C796 C 0.16647 0.86418 0.49334 0.0
C797 C 0.189 0.93577 0.49933 0.0
C798 C 0.19834 0.91783 0.5236 0.0
C799 C 0.19094 0.87343 0.53316 0.0
C800 C 0.17494 0.84688 0.51821 0.0
C801 C 0.21829 0.94316 0.53623 0.0
C802 C 0.24041 0.92032 0.53785 0.0
C803 C 0.21706 -0.00772 0.53987 0.0
C804 C 0.19373 0.0169 0.54143 0.0
C805 C 0.17563 -0.0014 0.55801 0.0
C806 C 0.15345 0.02076 0.55895 0.0
C807 C 0.14913 0.06142 0.54346 0.0
C808 C 0.16699 0.08003 0.52701 0.0
C809 C 0.18919 0.05796 0.52595 0.0
H810 H 0.13192 0.07847 0.54418 0.0
H811 H 0.34688 0.86041 0.5355 0.0
H812 H 0.67131 0.65193 0.01947 0.0
H813 H 0.70714 0.61152 0.03647 0.0
H814 H 0.69549 0.50022 0.98078 0.0
H815 H 0.66011 0.54039 0.96352 0.0
H816 H 0.72224 0.50792 0.05299 0.0
H817 H 0.74212 0.51308 0.94012 0.0
H818 H 0.73196 0.56236 0.90041 0.0
H819 H 0.72474 0.68303 0.94982 0.0
H820 H 0.73532 0.63467 -0.01027 0.0
H821 H 0.79251 0.32773 0.00604 0.0
H822 H 0.76697 0.38864 0.02388 0.0
H823 H 0.81569 0.49538 -0.00542 0.0
H824 H 0.84018 0.4342 0.97484 0.0
H825 H 0.77697 0.51445 0.97538 0.0
H826 H 0.79821 0.48182 0.06442 0.0
H827 H 0.80832 0.43578 0.10527 0.0
H828 H 0.73768 0.37856 0.10755 0.0
H829 H 0.72721 0.42363 0.06648 0.0
C830 C 0.67598 0.61804 0.01153 0.0
C831 C 0.66331 0.59959 -0.01017 0.0
C832 C 0.69633 0.59497 0.02137 0.0
C833 C 0.70394 0.55332 0.00963 0.0
C834 C 0.68984 0.5325 -0.01003 0.0
C835 C 0.66975 0.5556 0.98001 0.0
C836 C 0.72846 0.5361 0.01339 0.0
C837 C 0.73455 0.50959 0.03636 0.0
C838 C 0.74472 0.54041 -0.00795 0.0
C839 C 0.7394 0.57018 0.96792 0.0
C840 C 0.73859 0.55022 0.94247 0.0
C841 C 0.73273 0.57798 0.91993 0.0
C842 C 0.72769 0.62578 0.92259 0.0
C843 C 0.72863 0.64599 0.94778 0.0
C844 C 0.73454 0.61842 0.97036 0.0
C845 C 0.79805 0.36416 0.00416 0.0
C846 C 0.81797 0.37666 -0.01116 0.0
C847 C 0.78359 0.39909 0.01463 0.0
C848 C 0.78931 0.44693 0.01067 0.0
C849 C 0.81072 0.45886 -0.00228 0.0
C850 C 0.8247 0.42402 -0.01355 0.0
C851 C 0.77081 0.48343 0.01467 0.0
C852 C 0.76555 0.51371 -0.00718 0.0
C853 C 0.75584 0.48349 0.03746 0.0
C854 C 0.76193 0.45618 0.06226 0.0
C855 C 0.78485 0.45922 0.07351 0.0
C856 C 0.79065 0.43329 0.09674 0.0
C857 C 0.77366 0.40426 0.109 0.0
C858 C 0.75082 0.40113 0.09806 0.0
C859 C 0.74492 0.42697 0.07483 0.0
H860 H 0.77819 0.3842 0.12698 0.0
H861 H 0.72305 0.64716 0.90514 0.0
H862 H 0.66916 0.80787 0.44511 0.0
H863 H 0.70334 0.85172 0.42701 0.0
H864 H 0.69109 0.96116 0.48361 0.0
H865 H 0.65729 0.91768 0.5019 0.0
H866 H 0.71578 0.96086 0.41206 0.0
H867 H 0.73884 0.9444 0.52333 0.0
H868 H 0.73045 0.89111 0.56182 0.0
H869 H 0.72466 0.77444 0.50917 0.0
H870 H 0.73349 0.82689 0.47046 0.0
H871 H 0.78984 0.13491 0.46178 0.0
H872 H 0.76251 0.07705 0.4437 0.0
H873 H 0.81172 0.96576 0.46588 0.0
H874 H 0.83811 0.02371 0.48591 0.0
H875 H 0.7738 0.94622 0.4869 0.0
H876 H 0.79081 -0.01068 0.39774 0.0
H877 H 0.79878 0.04069 0.3584 0.0
H878 H 0.7282 0.09774 0.36273 0.0
H879 H 0.71989 0.04729 0.40234 0.0
C880 C 0.67327 0.84209 0.453 0.0
C881 C 0.661 0.85904 0.47528 0.0
C882 C 0.69266 0.86715 0.44252 0.0
C883 C 0.6997 0.9093 0.45419 0.0
C884 C 0.68582 0.92861 0.47441 0.0
C885 C 0.66667 0.90356 0.48498 0.0
C886 C 0.72387 0.92797 0.45016 0.0
C887 C 0.72881 0.95743 0.42805 0.0
C888 C 0.74097 0.92175 0.47068 0.0
C889 C 0.73669 0.88961 0.49401 0.0
C890 C 0.73599 0.9073 0.52001 0.0
C891 C 0.73113 0.87726 0.54186 0.0
C892 C 0.72702 0.82944 0.53794 0.0
C893 C 0.72784 0.8115 0.51217 0.0
C894 C 0.73276 0.84137 0.49028 0.0
C895 C 0.79504 0.0982 0.46204 0.0
C896 C 0.81576 0.08336 0.47542 0.0
C897 C 0.77954 0.06505 0.45143 0.0
C898 C 0.78498 0.01676 0.45329 0.0
C899 C 0.80698 0.00268 0.46435 0.0
C900 C 0.82205 0.03566 0.47579 0.0
C901 C 0.76597 0.98137 0.44903 0.0
C902 C 0.76166 0.94876 0.47 0.0
C903 C 0.74994 -0.01602 0.42703 0.0
C904 C 0.75475 0.01447 0.40311 0.0
C905 C 0.77702 0.01301 0.39042 0.0
C906 C 0.78159 0.04196 0.36805 0.0
C907 C 0.76401 0.07247 0.35808 0.0
C908 C 0.7418 0.07404 0.37045 0.0
C909 C 0.73712 0.04517 0.39284 0.0
H910 H 0.76759 0.09487 0.34076 0.0
H911 H 0.72317 0.80628 0.55486 0.0
loop_
_geom_bond_atom_site_label_1
_geom_bond_atom_site_label_2
_geom_bond_distance
_geom_bond_site_symmetry_2
_ccdc_geom_bond_type
C0 O1 1.306 . S
C0 O3 1.160 . S
O1 C0 1.306 . S
O1 Cd2 2.228 . S
Cd2 O1 2.228 . S
Cd2 O6 2.273 . S
Cd2 O10 2.277 . S
O3 C0 1.160 . S
O3 Cd4 2.203 . S
Cd4 O3 2.203 . S
Cd4 O6 2.411 . S
Cd4 O7 2.333 . S
Cd4 O8 2.352 . S
Cd4 O12 2.277 . S
Cd4 O13 2.356 . S
C5 O10 1.209 . S
C5 O12 1.226 . S
O6 Cd2 2.273 . S
O6 Cd4 2.411 . S
O6 C9 1.320 . S
O7 Cd4 2.333 . S
O7 C9 1.214 . S
O8 Cd4 2.352 . S
O8 C11 1.258 . S
C9 O6 1.320 . S
C9 O7 1.214 . S
O10 Cd2 2.277 . S
O10 C5 1.209 . S
C11 O8 1.258 . S
C11 O13 1.282 . S
O12 Cd4 2.277 . S
O12 C5 1.226 . S
O13 Cd4 2.356 . S
O13 C11 1.282 . S
C14 O15 1.306 . S
C14 O17 1.160 . S
O15 C14 1.306 . S
O15 Cd16 2.228 . S
Cd16 O15 2.228 . S
Cd16 O20 2.273 . S
Cd16 O24 2.277 . S
O17 C14 1.160 . S
O17 Cd18 2.203 . S
Cd18 O17 2.203 . S
Cd18 O20 2.411 . S
Cd18 O21 2.333 . S
Cd18 O22 2.352 . S
Cd18 O26 2.277 . S
Cd18 O27 2.356 . S
C19 O24 1.209 . S
C19 O26 1.226 . S
O20 Cd16 2.273 . S
O20 Cd18 2.411 . S
O20 C23 1.320 . S
O21 Cd18 2.333 . S
O21 C23 1.214 . S
O22 Cd18 2.352 . S
O22 C25 1.258 . S
C23 O20 1.320 . S
C23 O21 1.214 . S
O24 Cd16 2.277 . S
O24 C19 1.209 . S
C25 O22 1.258 . S
C25 O27 1.282 . S
O26 Cd18 2.277 . S
O26 C19 1.226 . S
O27 Cd18 2.356 . S
O27 C25 1.282 . S
C28 O29 1.306 . S
C28 O31 1.160 . S
O29 C28 1.306 . S
O29 Cd30 2.228 . S
Cd30 O29 2.228 . S
Cd30 O34 2.273 . S
Cd30 O38 2.277 . S
O31 C28 1.160 . S
O31 Cd32 2.203 . S
Cd32 O31 2.203 . S
Cd32 O34 2.411 . S
Cd32 O35 2.333 . S
Cd32 O36 2.352 . S
Cd32 O40 2.277 . S
Cd32 O41 2.356 . S
C33 O38 1.209 . S
C33 O40 1.226 . S
O34 Cd30 2.273 . S
O34 Cd32 2.411 . S
O34 C37 1.320 . S
O35 Cd32 2.333 . S
O35 C37 1.214 . S
O36 Cd32 2.352 . S
O36 C39 1.258 . S
C37 O34 1.320 . S
C37 O35 1.214 . S
O38 Cd30 2.277 . S
O38 C33 1.209 . S
C39 O36 1.258 . S
C39 O41 1.282 . S
O40 Cd32 2.277 . S
O40 C33 1.226 . S
O41 Cd32 2.356 . S
O41 C39 1.282 . S
C42 O43 1.306 . S
C42 O45 1.160 . S
O43 C42 1.306 . S
O43 Cd44 2.228 . S
Cd44 O43 2.228 . S
Cd44 O48 2.273 . S
Cd44 O52 2.277 . S
O45 C42 1.160 . S
O45 Cd46 2.203 . S
Cd46 O45 2.203 . S
Cd46 O48 2.411 . S
Cd46 O49 2.333 . S
Cd46 O50 2.352 . S
Cd46 O54 2.277 . S
Cd46 O55 2.356 . S
C47 O52 1.209 . S
C47 O54 1.226 . S
O48 Cd44 2.273 . S
O48 Cd46 2.411 . S
O48 C51 1.320 . S
O49 Cd46 2.333 . S
O49 C51 1.214 . S
O50 Cd46 2.352 . S
O50 C53 1.258 . S
C51 O48 1.320 . S
C51 O49 1.214 . S
O52 Cd44 2.277 . S
O52 C47 1.209 . S
C53 O50 1.258 . S
C53 O55 1.282 . S
O54 Cd46 2.277 . S
O54 C47 1.226 . S
O55 Cd46 2.356 . S
O55 C53 1.282 . S
C56 O57 1.306 . S
C56 O59 1.160 . S
O57 C56 1.306 . S
O57 Cd58 2.228 . S
Cd58 O57 2.228 . S
Cd58 O62 2.273 . S
Cd58 O66 2.277 . S
O59 C56 1.160 . S
O59 Cd60 2.203 . S
Cd60 O59 2.203 . S
Cd60 O62 2.411 . S
Cd60 O63 2.333 . S
Cd60 O64 2.352 . S
Cd60 O68 2.277 . S
Cd60 O69 2.356 . S
C61 O66 1.209 . S
C61 O68 1.226 . S
O62 Cd58 2.273 . S
O62 Cd60 2.411 . S
O62 C65 1.320 . S
O63 Cd60 2.333 . S
O63 C65 1.214 . S
O64 Cd60 2.352 . S
O64 C67 1.258 . S
C65 O62 1.320 . S
C65 O63 1.214 . S
O66 Cd58 2.277 . S
O66 C61 1.209 . S
C67 O64 1.258 . S
C67 O69 1.282 . S
O68 Cd60 2.277 . S
O68 C61 1.226 . S
O69 Cd60 2.356 . S
O69 C67 1.282 . S
C70 O71 1.306 . S
C70 O73 1.160 . S
O71 C70 1.306 . S
O71 Cd72 2.228 . S
Cd72 O71 2.228 . S
Cd72 O76 2.273 . S
Cd72 O80 2.277 . S
O73 C70 1.160 . S
O73 Cd74 2.203 . S
Cd74 O73 2.203 . S
Cd74 O76 2.411 . S
Cd74 O77 2.333 . S
Cd74 O78 2.352 . S
Cd74 O82 2.277 . S
Cd74 O83 2.356 . S
C75 O80 1.209 . S
C75 O82 1.226 . S
O76 Cd72 2.273 . S
O76 Cd74 2.411 . S
O76 C79 1.320 . S
O77 Cd74 2.333 . S
O77 C79 1.214 . S
O78 Cd74 2.352 . S
O78 C81 1.258 . S
C79 O76 1.320 . S
C79 O77 1.214 . S
O80 Cd72 2.277 . S
O80 C75 1.209 . S
C81 O78 1.258 . S
C81 O83 1.282 . S
O82 Cd74 2.277 . S
O82 C75 1.226 . S
O83 Cd74 2.356 . S
O83 C81 1.282 . S
C84 O85 1.306 . S
C84 O87 1.160 . S
O85 C84 1.306 . S
O85 Cd86 2.228 . S
Cd86 O85 2.228 . S
Cd86 O90 2.273 . S
Cd86 O94 2.277 . S
O87 C84 1.160 . S
O87 Cd88 2.203 . S
Cd88 O87 2.203 . S
Cd88 O90 2.411 . S
Cd88 O91 2.333 . S
Cd88 O92 2.352 . S
Cd88 O96 2.277 . S
Cd88 O97 2.356 . S
C89 O94 1.209 . S
C89 O96 1.226 . S
O90 Cd86 2.273 . S
O90 Cd88 2.411 . S
O90 C93 1.320 . S
O91 Cd88 2.333 . S
O91 C93 1.214 . S
O92 Cd88 2.352 . S
O92 C95 1.258 . S
C93 O90 1.320 . S
C93 O91 1.214 . S
O94 Cd86 2.277 . S
O94 C89 1.209 . S
C95 O92 1.258 . S
C95 O97 1.282 . S
O96 Cd88 2.277 . S
O96 C89 1.226 . S
O97 Cd88 2.356 . S
O97 C95 1.282 . S
C98 O99 1.306 . S
C98 O101 1.160 . S
O99 C98 1.306 . S
O99 Cd100 2.228 . S
Cd100 O99 2.228 . S
Cd100 O104 2.273 . S
Cd100 O108 2.277 . S
O101 C98 1.160 . S
O101 Cd102 2.203 . S
Cd102 O101 2.203 . S
Cd102 O104 2.411 . S
Cd102 O105 2.333 . S
Cd102 O106 2.352 . S
Cd102 O110 2.277 . S
Cd102 O111 2.356 . S
C103 O108 1.209 . S
C103 O110 1.226 . S
O104 Cd100 2.273 . S
O104 Cd102 2.411 . S
O104 C107 1.320 . S
O105 Cd102 2.333 . S
O105 C107 1.214 . S
O106 Cd102 2.352 . S
O106 C109 1.258 . S
C107 O104 1.320 . S
C107 O105 1.214 . S
O108 Cd100 2.277 . S
O108 C103 1.209 . S
C109 O106 1.258 . S
C109 O111 1.282 . S
O110 Cd102 2.277 . S
O110 C103 1.226 . S
O111 Cd102 2.356 . S
O111 C109 1.282 . S
H112 C130 0.951 . S
H113 C132 0.951 . S
H114 C134 0.950 1_556 S
H115 C135 0.950 1_556 S
H116 C137 0.950 . S
H117 C140 0.950 . S
H118 C141 0.950 . S
H119 C143 0.950 . S
H120 C144 0.950 . S
H121 C145 0.951 1_556 S
H122 C147 0.951 1_556 S
H123 C149 0.950 . S
H124 C150 0.950 . S
H125 C152 0.950 . S
H126 C155 0.950 . S
H127 C156 0.950 . S
H128 C158 0.950 . S
H129 C159 0.950 . S
C130 H112 0.951 . S
C130 C131 1.366 . S
C130 C132 1.388 . S
C131 C130 1.366 . S
C131 C135 1.385 . S
C132 H113 0.951 . S
C132 C130 1.388 . S
C132 C133 1.366 . S
C133 C132 1.366 . S
C133 C134 1.414 . S
C133 C136 1.499 . S
C134 H114 0.950 1_554 S
C134 C133 1.414 . S
C134 C135 1.374 . S
C135 H115 0.950 1_554 S
C135 C131 1.385 . S
C135 C134 1.374 . S
C136 C133 1.499 . S
C136 C137 1.373 . S
C136 C138 1.389 1_545 S
C137 H116 0.950 . S
C137 C136 1.373 . S
C137 C153 1.377 . S
C138 C136 1.389 1_565 S
C138 C139 1.524 . S
C138 C152 1.377 . S
C139 C138 1.524 . S
C139 C140 1.397 . S
C139 C144 1.363 . S
C140 H117 0.950 . S
C140 C139 1.397 . S
C140 C141 1.334 . S
C141 H118 0.950 . S
C141 C140 1.334 . S
C141 C142 1.287 . S
C142 C141 1.287 . S
C142 C143 1.524 . S
C142 H161 0.913 . S
C143 H119 0.950 . S
C143 C142 1.524 . S
C143 C144 1.415 . S
C144 H120 0.950 . S
C144 C139 1.363 . S
C144 C143 1.415 . S
C145 H121 0.951 1_554 S
C145 C146 1.366 . S
C145 C147 1.388 . S
C146 C145 1.366 . S
C146 C150 1.385 . S
C147 H122 0.951 1_554 S
C147 C145 1.388 . S
C147 C148 1.366 . S
C148 C147 1.366 . S
C148 C149 1.414 . S
C148 C151 1.499 . S
C149 H123 0.950 . S
C149 C148 1.414 . S
C149 C150 1.374 . S
C150 H124 0.950 . S
C150 C146 1.385 . S
C150 C149 1.374 . S
C151 C148 1.499 . S
C151 C152 1.373 . S
C151 C153 1.389 1_565 S
C152 H125 0.950 . S
C152 C138 1.377 . S
C152 C151 1.373 . S
C153 C137 1.377 . S
C153 C151 1.389 1_545 S
C153 C154 1.524 . S
C154 C153 1.524 . S
C154 C155 1.397 . S
C154 C159 1.363 1_554 S
C155 H126 0.950 . S
C155 C154 1.397 . S
C155 C156 1.334 . S
C156 H127 0.950 . S
C156 C155 1.334 . S
C156 C157 1.287 1_554 S
C157 C156 1.287 1_556 S
C157 C158 1.524 . S
C157 H160 0.999 . S
C158 H128 0.950 . S
C158 C157 1.524 . S
C158 C159 1.415 . S
C159 H129 0.950 . S
C159 C154 1.363 1_556 S
C159 C158 1.415 . S
H160 C157 0.999 . S
H161 C142 0.913 . S
H162 C180 0.951 . S
H163 C182 0.951 . S
H164 C184 0.950 . S
H165 C185 0.950 . S
H166 C187 0.950 . S
H167 C190 0.950 . S
H168 C191 0.950 . S
H169 C193 0.950 . S
H170 C194 0.950 . S
H171 C195 0.951 . S
H172 C197 0.951 . S
H173 C199 0.950 . S
H174 C200 0.950 . S
H175 C202 0.950 . S
H176 C205 0.950 . S
H177 C206 0.950 . S
H178 C208 0.950 . S
H179 C209 0.950 . S
C180 H162 0.951 . S
C180 C181 1.366 . S
C180 C182 1.388 . S
C181 C180 1.366 . S
C181 C185 1.385 . S
C182 H163 0.951 . S
C182 C180 1.388 . S
C182 C183 1.366 . S
C183 C182 1.366 . S
C183 C184 1.414 . S
C183 C186 1.499 . S
C184 H164 0.950 . S
C184 C183 1.414 . S
C184 C185 1.374 . S
C185 H165 0.950 . S
C185 C181 1.385 . S
C185 C184 1.374 . S
C186 C183 1.499 . S
C186 C187 1.373 . S
C186 C188 1.389 . S
C187 H166 0.950 . S
C187 C186 1.373 . S
C187 C203 1.377 . S
C188 C186 1.389 . S
C188 C189 1.524 . S
C188 C202 1.377 . S
C189 C188 1.524 . S
C189 C190 1.397 . S
C189 C194 1.363 . S
C190 H167 0.950 . S
C190 C189 1.397 . S
C190 C191 1.334 . S
C191 H168 0.950 . S
C191 C190 1.334 . S
C191 C192 1.287 . S
C192 C191 1.287 . S
C192 C193 1.524 . S
C192 H211 0.913 . S
C193 H169 0.950 . S
C193 C192 1.524 . S
C193 C194 1.415 . S
C194 H170 0.950 . S
C194 C189 1.363 . S
C194 C193 1.415 . S
C195 H171 0.951 . S
C195 C196 1.366 . S
C195 C197 1.388 . S
C196 C195 1.366 . S
C196 C200 1.385 . S
C197 H172 0.951 . S
C197 C195 1.388 . S
C197 C198 1.366 . S
C198 C197 1.366 . S
C198 C199 1.414 . S
C198 C201 1.499 . S
C199 H173 0.950 . S
C199 C198 1.414 . S
C199 C200 1.374 . S
C200 H174 0.950 . S
C200 C196 1.385 . S
C200 C199 1.374 . S
C201 C198 1.499 . S
C201 C202 1.373 . S
C201 C203 1.389 . S
C202 H175 0.950 . S
C202 C188 1.377 . S
C202 C201 1.373 . S
C203 C187 1.377 . S
C203 C201 1.389 . S
C203 C204 1.524 . S
C204 C203 1.524 . S
C204 C205 1.397 . S
C204 C209 1.363 . S
C205 H176 0.950 . S
C205 C204 1.397 . S
C205 C206 1.334 . S
C206 H177 0.950 . S
C206 C205 1.334 . S
C206 C207 1.287 . S
C207 C206 1.287 . S
C207 C208 1.524 . S
C207 H210 0.999 . S
C208 H178 0.950 . S
C208 C207 1.524 . S
C208 C209 1.415 . S
C209 H179 0.950 . S
C209 C204 1.363 . S
C209 C208 1.415 . S
H210 C207 0.999 . S
H211 C192 0.913 . S
H212 C230 0.951 . S
H213 C232 0.951 . S
H214 C234 0.950 . S
H215 C235 0.950 . S
H216 C237 0.950 . S
H217 C240 0.950 . S
H218 C241 0.950 . S
H219 C243 0.950 . S
H220 C244 0.950 . S
H221 C245 0.951 . S
H222 C247 0.951 . S
H223 C249 0.950 . S
H224 C250 0.950 . S
H225 C252 0.950 . S
H226 C255 0.950 . S
H227 C256 0.950 . S
H228 C258 0.950 . S
H229 C259 0.950 1_556 S
C230 H212 0.951 . S
C230 C231 1.366 . S
C230 C232 1.388 . S
C231 C230 1.366 . S
C231 C235 1.385 . S
C232 H213 0.951 . S
C232 C230 1.388 . S
C232 C233 1.366 . S
C233 C232 1.366 . S
C233 C234 1.414 . S
C233 C236 1.499 . S
C234 H214 0.950 . S
C234 C233 1.414 . S
C234 C235 1.374 . S
C235 H215 0.950 . S
C235 C231 1.385 . S
C235 C234 1.374 . S
C236 C233 1.499 . S
C236 C237 1.373 . S
C236 C238 1.389 1_565 S
C237 H216 0.950 . S
C237 C236 1.373 . S
C237 C253 1.377 . S
C238 C236 1.389 1_545 S
C238 C239 1.524 . S
C238 C252 1.377 . S
C239 C238 1.524 . S
C239 C240 1.397 1_545 S
C239 C244 1.363 . S
C240 H217 0.950 . S
C240 C239 1.397 1_565 S
C240 C241 1.334 . S
C241 H218 0.950 . S
C241 C240 1.334 . S
C241 C242 1.287 1_565 S
C242 C241 1.287 1_545 S
C242 C243 1.524 . S
C242 H261 0.913 . S
C243 H219 0.950 . S
C243 C242 1.524 . S
C243 C244 1.415 . S
C244 H220 0.950 . S
C244 C239 1.363 . S
C244 C243 1.415 . S
C245 H221 0.951 . S
C245 C246 1.366 . S
C245 C247 1.388 . S
C246 C245 1.366 . S
C246 C250 1.385 . S
C247 H222 0.951 . S
C247 C245 1.388 . S
C247 C248 1.366 . S
C248 C247 1.366 . S
C248 C249 1.414 . S
C248 C251 1.499 . S
C249 H223 0.950 . S
C249 C248 1.414 . S
C249 C250 1.374 . S
C250 H224 0.950 . S
C250 C246 1.385 . S
C250 C249 1.374 . S
C251 C248 1.499 . S
C251 C252 1.373 . S
C251 C253 1.389 1_545 S
C252 H225 0.950 . S
C252 C238 1.377 . S
C252 C251 1.373 . S
C253 C237 1.377 . S
C253 C251 1.389 1_565 S
C253 C254 1.524 1_556 S
C254 C253 1.524 1_554 S
C254 C255 1.397 1_565 S
C254 C259 1.363 . S
C255 H226 0.950 . S
C255 C254 1.397 1_545 S
C255 C256 1.334 . S
C256 H227 0.950 . S
C256 C255 1.334 . S
C256 C257 1.287 1_545 S
C257 C256 1.287 1_565 S
C257 C258 1.524 . S
C257 H260 0.999 . S
C258 H228 0.950 . S
C258 C257 1.524 . S
C258 C259 1.415 . S
C259 H229 0.950 1_554 S
C259 C254 1.363 . S
C259 C258 1.415 . S
H260 C257 0.999 . S
H261 C242 0.913 . S
H262 C280 0.951 . S
H263 C282 0.951 . S
H264 C284 0.950 . S
H265 C285 0.950 . S
H266 C287 0.950 . S
H267 C290 0.950 . S
H268 C291 0.950 . S
H269 C293 0.950 . S
H270 C294 0.950 . S
H271 C295 0.951 . S
H272 C297 0.951 . S
H273 C299 0.950 . S
H274 C300 0.950 . S
H275 C302 0.950 . S
H276 C305 0.950 . S
H277 C306 0.950 . S
H278 C308 0.950 . S
H279 C309 0.950 . S
C280 H262 0.951 . S
C280 C281 1.366 . S
C280 C282 1.388 . S
C281 C280 1.366 . S
C281 C285 1.385 . S
C282 H263 0.951 . S
C282 C280 1.388 . S
C282 C283 1.366 . S
C283 C282 1.366 . S
C283 C284 1.414 . S
C283 C286 1.499 . S
C284 H264 0.950 . S
C284 C283 1.414 . S
C284 C285 1.374 . S
C285 H265 0.950 . S
C285 C281 1.385 . S
C285 C284 1.374 . S
C286 C283 1.499 . S
C286 C287 1.373 . S
C286 C288 1.389 . S
C287 H266 0.950 . S
C287 C286 1.373 . S
C287 C303 1.377 . S
C288 C286 1.389 . S
C288 C289 1.524 . S
C288 C302 1.377 . S
C289 C288 1.524 . S
C289 C290 1.397 . S
C289 C294 1.363 . S
C290 H267 0.950 . S
C290 C289 1.397 . S
C290 C291 1.334 . S
C291 H268 0.950 . S
C291 C290 1.334 . S
C291 C292 1.287 . S
C292 C291 1.287 . S
C292 C293 1.524 . S
C292 H311 0.913 . S
C293 H269 0.950 . S
C293 C292 1.524 . S
C293 C294 1.415 . S
C294 H270 0.950 . S
C294 C289 1.363 . S
C294 C293 1.415 . S
C295 H271 0.951 . S
C295 C296 1.366 . S
C295 C297 1.388 . S
C296 C295 1.366 . S
C296 C300 1.385 . S
C297 H272 0.951 . S
C297 C295 1.388 . S
C297 C298 1.366 . S
C298 C297 1.366 . S
C298 C299 1.414 . S
C298 C301 1.499 . S
C299 H273 0.950 . S
C299 C298 1.414 . S
C299 C300 1.374 . S
C300 H274 0.950 . S
C300 C296 1.385 . S
C300 C299 1.374 . S
C301 C298 1.499 . S
C301 C302 1.373 . S
C301 C303 1.389 . S
C302 H275 0.950 . S
C302 C288 1.377 . S
C302 C301 1.373 . S
C303 C287 1.377 . S
C303 C301 1.389 . S
C303 C304 1.524 . S
C304 C303 1.524 . S
C304 C305 1.397 . S
C304 C309 1.363 . S
C305 H276 0.950 . S
C305 C304 1.397 . S
C305 C306 1.334 . S
C306 H277 0.950 . S
C306 C305 1.334 . S
C306 C307 1.287 . S
C307 C306 1.287 . S
C307 C308 1.524 . S
C307 H310 0.999 . S
C308 H278 0.950 . S
C308 C307 1.524 . S
C308 C309 1.415 . S
C309 H279 0.950 . S
C309 C304 1.363 . S
C309 C308 1.415 . S
H310 C307 0.999 . S
H311 C292 0.913 . S
H312 C330 0.951 . S
H313 C332 0.951 . S
H314 C334 0.950 . S
H315 C335 0.950 . S
H316 C337 0.950 . S
H317 C340 0.950 . S
H318 C341 0.950 . S
H319 C343 0.950 . S
H320 C344 0.950 . S
H321 C345 0.951 . S
H322 C347 0.951 . S
H323 C349 0.950 . S
H324 C350 0.950 . S
H325 C352 0.950 . S
H326 C355 0.950 . S
H327 C356 0.950 . S
H328 C358 0.950 . S
H329 C359 0.950 . S
C330 H312 0.951 . S
C330 C331 1.366 . S
C330 C332 1.388 . S
C331 C330 1.366 . S
C331 C335 1.385 . S
C332 H313 0.951 . S
C332 C330 1.388 . S
C332 C333 1.366 . S
C333 C332 1.366 . S
C333 C334 1.414 . S
C333 C336 1.499 . S
C334 H314 0.950 . S
C334 C333 1.414 . S
C334 C335 1.374 . S
C335 H315 0.950 . S
C335 C331 1.385 . S
C335 C334 1.374 . S
C336 C333 1.499 . S
C336 C337 1.373 . S
C336 C338 1.389 . S
C337 H316 0.950 . S
C337 C336 1.373 . S
C337 C353 1.377 . S
C338 C336 1.389 . S
C338 C339 1.524 . S
C338 C352 1.377 . S
C339 C338 1.524 . S
C339 C340 1.397 . S
C339 C344 1.363 . S
C340 H317 0.950 . S
C340 C339 1.397 . S
C340 C341 1.334 . S
C341 H318 0.950 . S
C341 C340 1.334 . S
C341 C342 1.287 . S
C342 C341 1.287 . S
C342 C343 1.524 . S
C342 H361 0.913 . S
C343 H319 0.950 . S
C343 C342 1.524 . S
C343 C344 1.415 . S
C344 H320 0.950 . S
C344 C339 1.363 . S
C344 C343 1.415 . S
C345 H321 0.951 . S
C345 C346 1.366 . S
C345 C347 1.388 . S
C346 C345 1.366 . S
C346 C350 1.385 . S
C347 H322 0.951 . S
C347 C345 1.388 . S
C347 C348 1.366 . S
C348 C347 1.366 . S
C348 C349 1.414 . S
C348 C351 1.499 . S
C349 H323 0.950 . S
C349 C348 1.414 . S
C349 C350 1.374 . S
C350 H324 0.950 . S
C350 C346 1.385 . S
C350 C349 1.374 . S
C351 C348 1.499 . S
C351 C352 1.373 . S
C351 C353 1.389 . S
C352 H325 0.950 . S
C352 C338 1.377 . S
C352 C351 1.373 . S
C353 C337 1.377 . S
C353 C351 1.389 . S
C353 C354 1.524 . S
C354 C353 1.524 . S
C354 C355 1.397 . S
C354 C359 1.363 . S
C355 H326 0.950 . S
C355 C354 1.397 . S
C355 C356 1.334 . S
C356 H327 0.950 . S
C356 C355 1.334 . S
C356 C357 1.287 . S
C357 C356 1.287 . S
C357 C358 1.524 . S
C357 H360 0.999 . S
C358 H328 0.950 . S
C358 C357 1.524 . S
C358 C359 1.415 . S
C359 H329 0.950 . S
C359 C354 1.363 . S
C359 C358 1.415 . S
H360 C357 0.999 . S
H361 C342 0.913 . S
H362 C380 0.951 . S
H363 C382 0.951 . S
H364 C384 0.950 . S
H365 C385 0.950 . S
H366 C387 0.950 . S
H367 C390 0.950 . S
H368 C391 0.950 . S
H369 C393 0.950 . S
H370 C394 0.950 . S
H371 C395 0.951 . S
H372 C397 0.951 . S
H373 C399 0.950 . S
H374 C400 0.950 . S
H375 C402 0.950 . S
H376 C405 0.950 . S
H377 C406 0.950 . S
H378 C408 0.950 . S
H379 C409 0.950 . S
C380 H362 0.951 . S
C380 C381 1.366 . S
C380 C382 1.388 . S
C381 C380 1.366 . S
C381 C385 1.385 . S
C382 H363 0.951 . S
C382 C380 1.388 . S
C382 C383 1.366 . S
C383 C382 1.366 . S
C383 C384 1.414 . S
C383 C386 1.499 . S
C384 H364 0.950 . S
C384 C383 1.414 . S
C384 C385 1.374 . S
C385 H365 0.950 . S
C385 C381 1.385 . S
C385 C384 1.374 . S
C386 C383 1.499 . S
C386 C387 1.373 . S
C386 C388 1.389 . S
C387 H366 0.950 . S
C387 C386 1.373 . S
C387 C403 1.377 . S
C388 C386 1.389 . S
C388 C389 1.524 . S
C388 C402 1.377 . S
C389 C388 1.524 . S
C389 C390 1.397 . S
C389 C394 1.363 . S
C390 H367 0.950 . S
C390 C389 1.397 . S
C390 C391 1.334 . S
C391 H368 0.950 . S
C391 C390 1.334 . S
C391 C392 1.287 . S
C392 C391 1.287 . S
C392 C393 1.524 . S
C392 H411 0.913 . S
C393 H369 0.950 . S
C393 C392 1.524 . S
C393 C394 1.415 . S
C394 H370 0.950 . S
C394 C389 1.363 . S
C394 C393 1.415 . S
C395 H371 0.951 . S
C395 C396 1.366 . S
C395 C397 1.388 . S
C396 C395 1.366 . S
C396 C400 1.385 . S
C397 H372 0.951 . S
C397 C395 1.388 . S
C397 C398 1.366 . S
C398 C397 1.366 . S
C398 C399 1.414 . S
C398 C401 1.499 . S
C399 H373 0.950 . S
C399 C398 1.414 . S
C399 C400 1.374 . S
C400 H374 0.950 . S
C400 C396 1.385 . S
C400 C399 1.374 . S
C401 C398 1.499 . S
C401 C402 1.373 . S
C401 C403 1.389 . S
C402 H375 0.950 . S
C402 C388 1.377 . S
C402 C401 1.373 . S
C403 C387 1.377 . S
C403 C401 1.389 . S
C403 C404 1.524 . S
C404 C403 1.524 . S
C404 C405 1.397 . S
C404 C409 1.363 . S
C405 H376 0.950 . S
C405 C404 1.397 . S
C405 C406 1.334 . S
C406 H377 0.950 . S
C406 C405 1.334 . S
C406 C407 1.287 . S
C407 C406 1.287 . S
C407 C408 1.524 . S
C407 H410 0.999 . S
C408 H378 0.950 . S
C408 C407 1.524 . S
C408 C409 1.415 . S
C409 H379 0.950 . S
C409 C404 1.363 . S
C409 C408 1.415 . S
H410 C407 0.999 . S
H411 C392 0.913 . S
H412 C430 0.951 . S
H413 C432 0.951 . S
H414 C434 0.950 . S
H415 C435 0.950 . S
H416 C437 0.950 . S
H417 C440 0.950 . S
H418 C441 0.950 . S
H419 C443 0.950 . S
H420 C444 0.950 . S
H421 C445 0.951 . S
H422 C447 0.951 . S
H423 C449 0.950 . S
H424 C450 0.950 . S
H425 C452 0.950 . S
H426 C455 0.950 . S
H427 C456 0.950 . S
H428 C458 0.950 . S
H429 C459 0.950 . S
C430 H412 0.951 . S
C430 C431 1.366 . S
C430 C432 1.388 . S
C431 C430 1.366 . S
C431 C435 1.385 . S
C432 H413 0.951 . S
C432 C430 1.388 . S
C432 C433 1.366 . S
C433 C432 1.366 . S
C433 C434 1.414 . S
C433 C436 1.499 . S
C434 H414 0.950 . S
C434 C433 1.414 . S
C434 C435 1.374 . S
C435 H415 0.950 . S
C435 C431 1.385 . S
C435 C434 1.374 . S
C436 C433 1.499 . S
C436 C437 1.373 . S
C436 C438 1.389 . S
C437 H416 0.950 . S
C437 C436 1.373 . S
C437 C453 1.377 . S
C438 C436 1.389 . S
C438 C439 1.524 . S
C438 C452 1.377 . S
C439 C438 1.524 . S
C439 C440 1.397 . S
C439 C444 1.363 . S
C440 H417 0.950 . S
C440 C439 1.397 . S
C440 C441 1.334 . S
C441 H418 0.950 . S
C441 C440 1.334 . S
C441 C442 1.287 . S
C442 C441 1.287 . S
C442 C443 1.524 . S
C442 H461 0.913 . S
C443 H419 0.950 . S
C443 C442 1.524 . S
C443 C444 1.415 . S
C444 H420 0.950 . S
C444 C439 1.363 . S
C444 C443 1.415 . S
C445 H421 0.951 . S
C445 C446 1.366 . S
C445 C447 1.388 . S
C446 C445 1.366 . S
C446 C450 1.385 . S
C447 H422 0.951 . S
C447 C445 1.388 . S
C447 C448 1.366 . S
C448 C447 1.366 . S
C448 C449 1.414 . S
C448 C451 1.499 . S
C449 H423 0.950 . S
C449 C448 1.414 . S
C449 C450 1.374 . S
C450 H424 0.950 . S
C450 C446 1.385 . S
C450 C449 1.374 . S
C451 C448 1.499 . S
C451 C452 1.373 . S
C451 C453 1.389 . S
C452 H425 0.950 . S
C452 C438 1.377 . S
C452 C451 1.373 . S
C453 C437 1.377 . S
C453 C451 1.389 . S
C453 C454 1.524 . S
C454 C453 1.524 . S
C454 C455 1.397 . S
C454 C459 1.363 . S
C455 H426 0.950 . S
C455 C454 1.397 . S
C455 C456 1.334 . S
C456 H427 0.950 . S
C456 C455 1.334 . S
C456 C457 1.287 . S
C457 C456 1.287 . S
C457 C458 1.524 . S
C457 H460 0.999 . S
C458 H428 0.950 . S
C458 C457 1.524 . S
C458 C459 1.415 . S
C459 H429 0.950 . S
C459 C454 1.363 . S
C459 C458 1.415 . S
H460 C457 0.999 . S
H461 C442 0.913 . S
H462 C480 0.951 . S
H463 C482 0.951 . S
H464 C484 0.950 . S
H465 C485 0.950 . S
H466 C487 0.950 . S
H467 C490 0.950 . S
H468 C491 0.950 . S
H469 C493 0.950 . S
H470 C494 0.950 . S
H471 C495 0.951 . S
H472 C497 0.951 . S
H473 C499 0.950 . S
H474 C500 0.950 . S
H475 C502 0.950 . S
H476 C505 0.950 . S
H477 C506 0.950 . S
H478 C508 0.950 . S
H479 C509 0.950 . S
C480 H462 0.951 . S
C480 C481 1.366 . S
C480 C482 1.388 . S
C481 C480 1.366 . S
C481 C485 1.385 . S
C482 H463 0.951 . S
C482 C480 1.388 . S
C482 C483 1.366 . S
C483 C482 1.366 . S
C483 C484 1.414 . S
C483 C486 1.499 . S
C484 H464 0.950 . S
C484 C483 1.414 . S
C484 C485 1.374 . S
C485 H465 0.950 . S
C485 C481 1.385 . S
C485 C484 1.374 . S
C486 C483 1.499 . S
C486 C487 1.373 . S
C486 C488 1.389 . S
C487 H466 0.950 . S
C487 C486 1.373 . S
C487 C503 1.377 . S
C488 C486 1.389 . S
C488 C489 1.524 . S
C488 C502 1.377 . S
C489 C488 1.524 . S
C489 C490 1.397 . S
C489 C494 1.363 . S
C490 H467 0.950 . S
C490 C489 1.397 . S
C490 C491 1.334 . S
C491 H468 0.950 . S
C491 C490 1.334 . S
C491 C492 1.287 . S
C492 C491 1.287 . S
C492 C493 1.524 . S
C492 H511 0.913 . S
C493 H469 0.950 . S
C493 C492 1.524 . S
C493 C494 1.415 . S
C494 H470 0.950 . S
C494 C489 1.363 . S
C494 C493 1.415 . S
C495 H471 0.951 . S
C495 C496 1.366 . S
C495 C497 1.388 . S
C496 C495 1.366 . S
C496 C500 1.385 . S
C497 H472 0.951 . S
C497 C495 1.388 . S
C497 C498 1.366 . S
C498 C497 1.366 . S
C498 C499 1.414 . S
C498 C501 1.499 . S
C499 H473 0.950 . S
C499 C498 1.414 . S
C499 C500 1.374 . S
C500 H474 0.950 . S
C500 C496 1.385 . S
C500 C499 1.374 . S
C501 C498 1.499 . S
C501 C502 1.373 . S
C501 C503 1.389 . S
C502 H475 0.950 . S
C502 C488 1.377 . S
C502 C501 1.373 . S
C503 C487 1.377 . S
C503 C501 1.389 . S
C503 C504 1.524 . S
C504 C503 1.524 . S
C504 C505 1.397 . S
C504 C509 1.363 . S
C505 H476 0.950 . S
C505 C504 1.397 . S
C505 C506 1.334 . S
C506 H477 0.950 . S
C506 C505 1.334 . S
C506 C507 1.287 . S
C507 C506 1.287 . S
C507 C508 1.524 . S
C507 H510 0.999 . S
C508 H478 0.950 . S
C508 C507 1.524 . S
C508 C509 1.415 . S
C509 H479 0.950 . S
C509 C504 1.363 . S
C509 C508 1.415 . S
H510 C507 0.999 . S
H511 C492 0.913 . S
H512 C530 0.951 . S
H513 C532 0.951 . S
H514 C534 0.950 . S
H515 C535 0.950 . S
H516 C537 0.950 . S
H517 C540 0.950 . S
H518 C541 0.950 . S
H519 C543 0.950 . S
H520 C544 0.950 . S
H521 C545 0.951 . S
H522 C547 0.951 . S
H523 C549 0.950 . S
H524 C550 0.950 . S
H525 C552 0.950 . S
H526 C555 0.950 . S
H527 C556 0.950 . S
H528 C558 0.950 . S
H529 C559 0.950 . S
C530 H512 0.951 . S
C530 C531 1.366 . S
C530 C532 1.388 . S
C531 C530 1.366 . S
C531 C535 1.385 . S
C532 H513 0.951 . S
C532 C530 1.388 . S
C532 C533 1.366 . S
C533 C532 1.366 . S
C533 C534 1.414 . S
C533 C536 1.499 . S
C534 H514 0.950 . S
C534 C533 1.414 . S
C534 C535 1.374 . S
C535 H515 0.950 . S
C535 C531 1.385 . S
C535 C534 1.374 . S
C536 C533 1.499 . S
C536 C537 1.373 . S
C536 C538 1.389 1_554 S
C537 H516 0.950 . S
C537 C536 1.373 . S
C537 C553 1.377 . S
C538 C536 1.389 1_556 S
C538 C539 1.524 . S
C538 C552 1.377 . S
C539 C538 1.524 . S
C539 C540 1.397 . S
C539 C544 1.363 . S
C540 H517 0.950 . S
C540 C539 1.397 . S
C540 C541 1.334 . S
C541 H518 0.950 . S
C541 C540 1.334 . S
C541 C542 1.287 . S
C542 C541 1.287 . S
C542 C543 1.524 . S
C542 H561 0.913 . S
C543 H519 0.950 . S
C543 C542 1.524 . S
C543 C544 1.415 . S
C544 H520 0.950 . S
C544 C539 1.363 . S
C544 C543 1.415 . S
C545 H521 0.951 . S
C545 C546 1.366 . S
C545 C547 1.388 . S
C546 C545 1.366 . S
C546 C550 1.385 . S
C547 H522 0.951 . S
C547 C545 1.388 . S
C547 C548 1.366 . S
C548 C547 1.366 . S
C548 C549 1.414 . S
C548 C551 1.499 . S
C549 H523 0.950 . S
C549 C548 1.414 . S
C549 C550 1.374 . S
C550 H524 0.950 . S
C550 C546 1.385 . S
C550 C549 1.374 . S
C551 C548 1.499 . S
C551 C552 1.373 . S
C551 C553 1.389 1_556 S
C552 H525 0.950 . S
C552 C538 1.377 . S
C552 C551 1.373 . S
C553 C537 1.377 . S
C553 C551 1.389 1_554 S
C553 C554 1.524 . S
C554 C553 1.524 . S
C554 C555 1.397 . S
C554 C559 1.363 . S
C555 H526 0.950 . S
C555 C554 1.397 . S
C555 C556 1.334 . S
C556 H527 0.950 . S
C556 C555 1.334 . S
C556 C557 1.287 . S
C557 C556 1.287 . S
C557 C558 1.524 . S
C557 H560 0.999 . S
C558 H528 0.950 . S
C558 C557 1.524 . S
C558 C559 1.415 . S
C559 H529 0.950 . S
C559 C554 1.363 . S
C559 C558 1.415 . S
H560 C557 0.999 . S
H561 C542 0.913 . S
H562 C580 0.951 . S
H563 C582 0.951 . S
H564 C584 0.950 . S
H565 C585 0.950 . S
H566 C587 0.950 . S
H567 C590 0.950 . S
H568 C591 0.950 . S
H569 C593 0.950 . S
H570 C594 0.950 . S
H571 C595 0.951 . S
H572 C597 0.951 . S
H573 C599 0.950 . S
H574 C600 0.950 . S
H575 C602 0.950 . S
H576 C605 0.950 . S
H577 C606 0.950 . S
H578 C608 0.950 . S
H579 C609 0.950 . S
C580 H562 0.951 . S
C580 C581 1.366 . S
C580 C582 1.388 . S
C581 C580 1.366 . S
C581 C585 1.385 1_554 S
C582 H563 0.951 . S
C582 C580 1.388 . S
C582 C583 1.366 . S
C583 C582 1.366 . S
C583 C584 1.414 1_554 S
C583 C586 1.499 . S
C584 H564 0.950 . S
C584 C583 1.414 1_556 S
C584 C585 1.374 . S
C585 H565 0.950 . S
C585 C581 1.385 1_556 S
C585 C584 1.374 . S
C586 C583 1.499 . S
C586 C587 1.373 1_455 S
C586 C588 1.390 . S
C587 H566 0.950 . S
C587 C586 1.373 1_655 S
C587 C603 1.376 1_554 S
C588 C586 1.390 . S
C588 C589 1.524 1_554 S
C588 C602 1.376 1_554 S
C589 C588 1.524 1_556 S
C589 C590 1.397 . S
C589 C594 1.363 1_556 S
C590 H567 0.950 . S
C590 C589 1.397 . S
C590 C591 1.334 . S
C591 H568 0.950 . S
C591 C590 1.334 . S
C591 C592 1.287 . S
C592 C591 1.287 . S
C592 C593 1.524 1_556 S
C592 H611 0.913 . S
C593 H569 0.950 . S
C593 C592 1.524 1_554 S
C593 C594 1.415 . S
C594 H570 0.950 . S
C594 C589 1.363 1_554 S
C594 C593 1.415 . S
C595 H571 0.951 . S
C595 C596 1.366 . S
C595 C597 1.388 . S
C596 C595 1.366 . S
C596 C600 1.385 1_556 S
C597 H572 0.951 . S
C597 C595 1.388 . S
C597 C598 1.366 . S
C598 C597 1.366 . S
C598 C599 1.414 1_556 S
C598 C601 1.499 . S
C599 H573 0.950 . S
C599 C598 1.414 1_554 S
C599 C600 1.374 . S
C600 H574 0.950 . S
C600 C596 1.385 1_554 S
C600 C599 1.374 . S
C601 C598 1.499 . S
C601 C602 1.373 1_655 S
C601 C603 1.390 . S
C602 H575 0.950 . S
C602 C588 1.376 1_556 S
C602 C601 1.373 1_455 S
C603 C587 1.376 1_556 S
C603 C601 1.390 . S
C603 C604 1.524 1_556 S
C604 C603 1.524 1_554 S
C604 C605 1.397 . S
C604 C609 1.363 1_554 S
C605 H576 0.950 . S
C605 C604 1.397 . S
C605 C606 1.334 . S
C606 H577 0.950 . S
C606 C605 1.334 . S
C606 C607 1.287 . S
C607 C606 1.287 . S
C607 C608 1.524 1_554 S
C607 H610 0.999 . S
C608 H578 0.950 . S
C608 C607 1.524 1_556 S
C608 C609 1.415 . S
C609 H579 0.950 . S
C609 C604 1.363 1_556 S
C609 C608 1.415 . S
H610 C607 0.999 . S
H611 C592 0.913 . S
H612 C630 0.951 . S
H613 C632 0.951 . S
H614 C634 0.950 . S
H615 C635 0.950 . S
H616 C637 0.950 . S
H617 C640 0.950 . S
H618 C641 0.950 . S
H619 C643 0.949 1_565 S
H620 C644 0.950 . S
H621 C645 0.951 . S
H622 C647 0.951 . S
H623 C649 0.950 . S
H624 C650 0.950 . S
H625 C652 0.950 . S
H626 C655 0.950 . S
H627 C656 0.950 . S
H628 C658 0.949 1_545 S
H629 C659 0.950 . S
C630 H612 0.951 . S
C630 C631 1.366 . S
C630 C632 1.388 . S
C631 C630 1.366 . S
C631 C635 1.385 . S
C632 H613 0.951 . S
C632 C630 1.388 . S
C632 C633 1.366 . S
C633 C632 1.366 . S
C633 C634 1.414 . S
C633 C636 1.499 . S
C634 H614 0.950 . S
C634 C633 1.414 . S
C634 C635 1.374 . S
C635 H615 0.950 . S
C635 C631 1.385 . S
C635 C634 1.374 . S
C636 C633 1.499 . S
C636 C637 1.373 . S
C636 C638 1.389 . S
C637 H616 0.950 . S
C637 C636 1.373 . S
C637 C653 1.377 1_565 S
C638 C636 1.389 . S
C638 C639 1.524 . S
C638 C652 1.377 1_565 S
C639 C638 1.524 . S
C639 C640 1.397 1_565 S
C639 C644 1.363 . S
C640 H617 0.950 . S
C640 C639 1.397 1_545 S
C640 C641 1.334 . S
C641 H618 0.950 . S
C641 C640 1.334 . S
C641 C642 1.287 . S
C642 C641 1.287 . S
C642 C643 1.524 . S
C642 H661 0.913 . S
C643 H619 0.949 1_545 S
C643 C642 1.524 . S
C643 C644 1.415 1_545 S
C644 H620 0.950 . S
C644 C639 1.363 . S
C644 C643 1.415 1_565 S
C645 H621 0.951 . S
C645 C646 1.366 . S
C645 C647 1.388 . S
C646 C645 1.366 . S
C646 C650 1.385 . S
C647 H622 0.951 . S
C647 C645 1.388 . S
C647 C648 1.366 . S
C648 C647 1.366 . S
C648 C649 1.414 . S
C648 C651 1.499 . S
C649 H623 0.950 . S
C649 C648 1.414 . S
C649 C650 1.374 . S
C650 H624 0.950 . S
C650 C646 1.385 . S
C650 C649 1.374 . S
C651 C648 1.499 . S
C651 C652 1.373 . S
C651 C653 1.389 . S
C652 H625 0.950 . S
C652 C638 1.377 1_545 S
C652 C651 1.373 . S
C653 C637 1.377 1_545 S
C653 C651 1.389 . S
C653 C654 1.524 . S
C654 C653 1.524 . S
C654 C655 1.397 1_545 S
C654 C659 1.363 . S
C655 H626 0.950 . S
C655 C654 1.397 1_565 S
C655 C656 1.334 . S
C656 H627 0.950 . S
C656 C655 1.334 . S
C656 C657 1.287 . S
C657 C656 1.287 . S
C657 C658 1.524 . S
C657 H660 0.999 . S
C658 H628 0.949 1_565 S
C658 C657 1.524 . S
C658 C659 1.415 1_565 S
C659 H629 0.950 . S
C659 C654 1.363 . S
C659 C658 1.415 1_545 S
H660 C657 0.999 . S
H661 C642 0.913 . S
H662 C680 0.951 . S
H663 C682 0.951 . S
H664 C684 0.950 . S
H665 C685 0.950 . S
H666 C687 0.950 . S
H667 C690 0.950 . S
H668 C691 0.950 . S
H669 C693 0.950 . S
H670 C694 0.950 . S
H671 C695 0.951 . S
H672 C697 0.951 . S
H673 C699 0.950 . S
H674 C700 0.950 . S
H675 C702 0.950 . S
H676 C705 0.950 . S
H677 C706 0.950 . S
H678 C708 0.950 . S
H679 C709 0.950 . S
C680 H662 0.951 . S
C680 C681 1.366 . S
C680 C682 1.388 . S
C681 C680 1.366 . S
C681 C685 1.385 . S
C682 H663 0.951 . S
C682 C680 1.388 . S
C682 C683 1.366 . S
C683 C682 1.366 . S
C683 C684 1.414 . S
C683 C686 1.499 . S
C684 H664 0.950 . S
C684 C683 1.414 . S
C684 C685 1.374 . S
C685 H665 0.950 . S
C685 C681 1.385 . S
C685 C684 1.374 . S
C686 C683 1.499 . S
C686 C687 1.373 1_545 S
C686 C688 1.389 1_655 S
C687 H666 0.950 . S
C687 C686 1.373 1_565 S
C687 C703 1.377 . S
C688 C686 1.389 1_455 S
C688 C689 1.524 . S
C688 C702 1.377 . S
C689 C688 1.524 . S
C689 C690 1.397 1_455 S
C689 C694 1.363 . S
C690 H667 0.950 . S
C690 C689 1.397 1_655 S
C690 C691 1.334 . S
C691 H668 0.950 . S
C691 C690 1.334 . S
C691 C692 1.287 1_655 S
C692 C691 1.287 1_455 S
C692 C693 1.524 . S
C692 H711 0.913 . S
C693 H669 0.950 . S
C693 C692 1.524 . S
C693 C694 1.415 . S
C694 H670 0.950 . S
C694 C689 1.363 . S
C694 C693 1.415 . S
C695 H671 0.951 . S
C695 C696 1.366 . S
C695 C697 1.388 . S
C696 C695 1.366 . S
C696 C700 1.385 . S
C697 H672 0.951 . S
C697 C695 1.388 . S
C697 C698 1.366 . S
C698 C697 1.366 . S
C698 C699 1.414 . S
C698 C701 1.499 . S
C699 H673 0.950 . S
C699 C698 1.414 . S
C699 C700 1.374 . S
C700 H674 0.950 . S
C700 C696 1.385 . S
C700 C699 1.374 . S
C701 C698 1.499 . S
C701 C702 1.373 1_565 S
C701 C703 1.389 1_455 S
C702 H675 0.950 . S
C702 C688 1.377 . S
C702 C701 1.373 1_545 S
C703 C687 1.377 . S
C703 C701 1.389 1_655 S
C703 C704 1.524 . S
C704 C703 1.524 . S
C704 C705 1.397 1_655 S
C704 C709 1.363 . S
C705 H676 0.950 . S
C705 C704 1.397 1_455 S
C705 C706 1.334 . S
C706 H677 0.950 . S
C706 C705 1.334 . S
C706 C707 1.287 1_455 S
C707 C706 1.287 1_655 S
C707 C708 1.524 . S
C707 H710 0.999 . S
C708 H678 0.950 . S
C708 C707 1.524 . S
C708 C709 1.415 . S
C709 H679 0.950 . S
C709 C704 1.363 . S
C709 C708 1.415 . S
H710 C707 0.999 . S
H711 C692 0.913 . S
H712 C730 0.951 . S
H713 C732 0.951 . S
H714 C734 0.950 . S
H715 C735 0.950 . S
H716 C737 0.950 . S
H717 C740 0.950 . S
H718 C741 0.950 . S
H719 C743 0.950 . S
H720 C744 0.950 . S
H721 C745 0.951 . S
H722 C747 0.951 . S
H723 C749 0.950 . S
H724 C750 0.950 . S
H725 C752 0.950 . S
H726 C755 0.950 . S
H727 C756 0.950 . S
H728 C758 0.950 . S
H729 C759 0.950 1_554 S
C730 H712 0.951 . S
C730 C731 1.366 . S
C730 C732 1.388 . S
C731 C730 1.366 . S
C731 C735 1.385 . S
C732 H713 0.951 . S
C732 C730 1.388 . S
C732 C733 1.366 . S
C733 C732 1.366 . S
C733 C734 1.414 . S
C733 C736 1.499 . S
C734 H714 0.950 . S
C734 C733 1.414 . S
C734 C735 1.374 . S
C735 H715 0.950 . S
C735 C731 1.385 . S
C735 C734 1.374 . S
C736 C733 1.499 . S
C736 C737 1.373 . S
C736 C738 1.389 . S
C737 H716 0.950 . S
C737 C736 1.373 . S
C737 C753 1.377 . S
C738 C736 1.389 . S
C738 C739 1.524 . S
C738 C752 1.377 . S
C739 C738 1.524 . S
C739 C740 1.397 . S
C739 C744 1.363 . S
C740 H717 0.950 . S
C740 C739 1.397 . S
C740 C741 1.334 . S
C741 H718 0.950 . S
C741 C740 1.334 . S
C741 C742 1.287 . S
C742 C741 1.287 . S
C742 C743 1.524 . S
C742 H761 0.913 . S
C743 H719 0.950 . S
C743 C742 1.524 . S
C743 C744 1.415 . S
C744 H720 0.950 . S
C744 C739 1.363 . S
C744 C743 1.415 . S
C745 H721 0.951 . S
C745 C746 1.366 . S
C745 C747 1.388 . S
C746 C745 1.366 . S
C746 C750 1.385 . S
C747 H722 0.951 . S
C747 C745 1.388 . S
C747 C748 1.366 . S
C748 C747 1.366 . S
C748 C749 1.414 . S
C748 C751 1.499 . S
C749 H723 0.950 . S
C749 C748 1.414 . S
C749 C750 1.374 . S
C750 H724 0.950 . S
C750 C746 1.385 . S
C750 C749 1.374 . S
C751 C748 1.499 . S
C751 C752 1.373 . S
C751 C753 1.389 . S
C752 H725 0.950 . S
C752 C738 1.377 . S
C752 C751 1.373 . S
C753 C737 1.377 . S
C753 C751 1.389 . S
C753 C754 1.524 1_554 S
C754 C753 1.524 1_556 S
C754 C755 1.397 . S
C754 C759 1.363 . S
C755 H726 0.950 . S
C755 C754 1.397 . S
C755 C756 1.334 . S
C756 H727 0.950 . S
C756 C755 1.334 . S
C756 C757 1.287 . S
C757 C756 1.287 . S
C757 C758 1.524 . S
C757 H760 0.999 . S
C758 H728 0.950 . S
C758 C757 1.524 . S
C758 C759 1.415 . S
C759 H729 0.950 1_556 S
C759 C754 1.363 . S
C759 C758 1.415 . S
H760 C757 0.999 . S
H761 C742 0.913 . S
H762 C780 0.951 . S
H763 C782 0.951 . S
H764 C784 0.950 . S
H765 C785 0.950 . S
H766 C787 0.950 . S
H767 C790 0.950 1_545 S
H768 C791 0.950 . S
H769 C793 0.950 . S
H770 C794 0.950 . S
H771 C795 0.951 . S
H772 C797 0.951 . S
H773 C799 0.950 . S
H774 C800 0.950 . S
H775 C802 0.950 . S
H776 C805 0.950 1_565 S
H777 C806 0.950 . S
H778 C808 0.950 . S
H779 C809 0.950 . S
C780 H762 0.951 . S
C780 C781 1.366 . S
C780 C782 1.388 . S
C781 C780 1.366 . S
C781 C785 1.385 . S
C782 H763 0.951 . S
C782 C780 1.388 . S
C782 C783 1.366 . S
C783 C782 1.366 . S
C783 C784 1.414 . S
C783 C786 1.499 . S
C784 H764 0.950 . S
C784 C783 1.414 . S
C784 C785 1.374 . S
C785 H765 0.950 . S
C785 C781 1.385 . S
C785 C784 1.374 . S
C786 C783 1.499 . S
C786 C787 1.373 . S
C786 C788 1.389 1_545 S
C787 H766 0.950 . S
C787 C786 1.373 . S
C787 C803 1.377 . S
C788 C786 1.389 1_565 S
C788 C789 1.524 . S
C788 C802 1.377 . S
C789 C788 1.524 . S
C789 C790 1.397 . S
C789 C794 1.363 . S
C790 H767 0.950 1_565 S
C790 C789 1.397 . S
C790 C791 1.334 . S
C791 H768 0.950 . S
C791 C790 1.334 . S
C791 C792 1.287 . S
C792 C791 1.287 . S
C792 C793 1.524 . S
C792 H811 0.913 . S
C793 H769 0.950 . S
C793 C792 1.524 . S
C793 C794 1.415 . S
C794 H770 0.950 . S
C794 C789 1.363 . S
C794 C793 1.415 . S
C795 H771 0.951 . S
C795 C796 1.366 . S
C795 C797 1.388 . S
C796 C795 1.366 . S
C796 C800 1.385 . S
C797 H772 0.951 . S
C797 C795 1.388 . S
C797 C798 1.366 . S
C798 C797 1.366 . S
C798 C799 1.414 . S
C798 C801 1.499 . S
C799 H773 0.950 . S
C799 C798 1.414 . S
C799 C800 1.374 . S
C800 H774 0.950 . S
C800 C796 1.385 . S
C800 C799 1.374 . S
C801 C798 1.499 . S
C801 C802 1.373 . S
C801 C803 1.389 1_565 S
C802 H775 0.950 . S
C802 C788 1.377 . S
C802 C801 1.373 . S
C803 C787 1.377 . S
C803 C801 1.389 1_545 S
C803 C804 1.524 . S
C804 C803 1.524 . S
C804 C805 1.397 . S
C804 C809 1.363 . S
C805 H776 0.950 1_545 S
C805 C804 1.397 . S
C805 C806 1.334 . S
C806 H777 0.950 . S
C806 C805 1.334 . S
C806 C807 1.287 . S
C807 C806 1.287 . S
C807 C808 1.524 . S
C807 H810 0.999 . S
C808 H778 0.950 . S
C808 C807 1.524 . S
C808 C809 1.415 . S
C809 H779 0.950 . S
C809 C804 1.363 . S
C809 C808 1.415 . S
H810 C807 0.999 . S
H811 C792 0.913 . S
H812 C830 0.951 . S
H813 C832 0.951 . S
H814 C834 0.950 . S
H815 C835 0.950 . S
H816 C837 0.950 1_554 S
H817 C840 0.950 . S
H818 C841 0.950 . S
H819 C843 0.950 . S
H820 C844 0.950 . S
H821 C845 0.951 . S
H822 C847 0.951 . S
H823 C849 0.950 . S
H824 C850 0.950 . S
H825 C852 0.950 . S
H826 C855 0.950 . S
H827 C856 0.950 . S
H828 C858 0.950 . S
H829 C859 0.950 . S
C830 H812 0.951 . S
C830 C831 1.366 . S
C830 C832 1.388 . S
C831 C830 1.366 . S
C831 C835 1.385 . S
C832 H813 0.951 . S
C832 C830 1.388 . S
C832 C833 1.366 . S
C833 C832 1.366 . S
C833 C834 1.414 . S
C833 C836 1.499 . S
C834 H814 0.950 . S
C834 C833 1.414 . S
C834 C835 1.374 . S
C835 H815 0.950 . S
C835 C831 1.385 . S
C835 C834 1.374 . S
C836 C833 1.499 . S
C836 C837 1.373 . S
C836 C838 1.389 . S
C837 H816 0.950 1_556 S
C837 C836 1.373 . S
C837 C853 1.377 . S
C838 C836 1.389 . S
C838 C839 1.524 . S
C838 C852 1.377 . S
C839 C838 1.524 . S
C839 C840 1.397 . S
C839 C844 1.363 . S
C840 H817 0.950 . S
C840 C839 1.397 . S
C840 C841 1.334 . S
C841 H818 0.950 . S
C841 C840 1.334 . S
C841 C842 1.287 . S
C842 C841 1.287 . S
C842 C843 1.524 . S
C842 H861 0.913 . S
C843 H819 0.950 . S
C843 C842 1.524 . S
C843 C844 1.415 . S
C844 H820 0.950 . S
C844 C839 1.363 . S
C844 C843 1.415 . S
C845 H821 0.951 . S
C845 C846 1.366 . S
C845 C847 1.388 . S
C846 C845 1.366 . S
C846 C850 1.385 . S
C847 H822 0.951 . S
C847 C845 1.388 . S
C847 C848 1.366 . S
C848 C847 1.366 . S
C848 C849 1.414 . S
C848 C851 1.499 . S
C849 H823 0.950 . S
C849 C848 1.414 . S
C849 C850 1.374 . S
C850 H824 0.950 . S
C850 C846 1.385 . S
C850 C849 1.374 . S
C851 C848 1.499 . S
C851 C852 1.373 . S
C851 C853 1.389 . S
C852 H825 0.950 . S
C852 C838 1.377 . S
C852 C851 1.373 . S
C853 C837 1.377 . S
C853 C851 1.389 . S
C853 C854 1.524 1_556 S
C854 C853 1.524 1_554 S
C854 C855 1.397 . S
C854 C859 1.363 . S
C855 H826 0.950 . S
C855 C854 1.397 . S
C855 C856 1.334 . S
C856 H827 0.950 . S
C856 C855 1.334 . S
C856 C857 1.287 . S
C857 C856 1.287 . S
C857 C858 1.524 . S
C857 H860 0.999 . S
C858 H828 0.950 . S
C858 C857 1.524 . S
C858 C859 1.415 . S
C859 H829 0.950 . S
C859 C854 1.363 . S
C859 C858 1.415 . S
H860 C857 0.999 . S
H861 C842 0.913 . S
H862 C880 0.951 . S
H863 C882 0.951 . S
H864 C884 0.950 . S
H865 C885 0.950 . S
H866 C887 0.950 . S
H867 C890 0.950 . S
H868 C891 0.950 . S
H869 C893 0.950 . S
H870 C894 0.950 . S
H871 C895 0.951 . S
H872 C897 0.951 . S
H873 C899 0.950 . S
H874 C900 0.950 . S
H875 C902 0.950 . S
H876 C905 0.950 . S
H877 C906 0.950 . S
H878 C908 0.950 . S
H879 C909 0.950 . S
C880 H862 0.951 . S
C880 C881 1.366 . S
C880 C882 1.388 . S
C881 C880 1.366 . S
C881 C885 1.385 . S
C882 H863 0.951 . S
C882 C880 1.388 . S
C882 C883 1.366 . S
C883 C882 1.366 . S
C883 C884 1.414 . S
C883 C886 1.499 . S
C884 H864 0.950 . S
C884 C883 1.414 . S
C884 C885 1.374 . S
C885 H865 0.950 . S
C885 C881 1.385 . S
C885 C884 1.374 . S
C886 C883 1.499 . S
C886 C887 1.373 . S
C886 C888 1.389 . S
C887 H866 0.950 . S
C887 C886 1.373 . S
C887 C903 1.377 1_565 S
C888 C886 1.389 . S
C888 C889 1.524 . S
C888 C902 1.377 1_565 S
C889 C888 1.524 . S
C889 C890 1.397 . S
C889 C894 1.363 . S
C890 H867 0.950 . S
C890 C889 1.397 . S
C890 C891 1.334 . S
C891 H868 0.950 . S
C891 C890 1.334 . S
C891 C892 1.287 . S
C892 C891 1.287 . S
C892 C893 1.524 . S
C892 H911 0.913 . S
C893 H869 0.950 . S
C893 C892 1.524 . S
C893 C894 1.415 . S
C894 H870 0.950 . S
C894 C889 1.363 . S
C894 C893 1.415 . S
C895 H871 0.951 . S
C895 C896 1.366 . S
C895 C897 1.388 . S
C896 C895 1.366 . S
C896 C900 1.385 . S
C897 H872 0.951 . S
C897 C895 1.388 . S
C897 C898 1.366 . S
C898 C897 1.366 . S
C898 C899 1.414 . S
C898 C901 1.499 . S
C899 H873 0.950 . S
C899 C898 1.414 . S
C899 C900 1.374 . S
C900 H874 0.950 . S
C900 C896 1.385 . S
C900 C899 1.374 . S
C901 C898 1.499 . S
C901 C902 1.373 . S
C901 C903 1.389 . S
C902 H875 0.950 . S
C902 C888 1.377 1_545 S
C902 C901 1.373 . S
C903 C887 1.377 1_545 S
C903 C901 1.389 . S
C903 C904 1.524 . S
C904 C903 1.524 . S
C904 C905 1.397 . S
C904 C909 1.363 . S
C905 H876 0.950 . S
C905 C904 1.397 . S
C905 C906 1.334 . S
C906 H877 0.950 . S
C906 C905 1.334 . S
C906 C907 1.287 . S
C907 C906 1.287 . S
C907 C908 1.524 . S
C907 H910 0.999 . S
C908 H878 0.950 . S
C908 C907 1.524 . S
C908 C909 1.415 . S
C909 H879 0.950 . S
C909 C904 1.363 . S
C909 C908 1.415 . S
H910 C907 0.999 . S
H911 C892 0.913 . S
C131 C5 1.582 . S
C146 C19 1.581 . S
C181 C47 1.582 . S
C196 C33 1.582 . S
C231 C61 1.582 . S
C246 C75 1.581 . S
C281 C89 1.582 . S
C296 C103 1.582 . S
C331 C0 1.617 . S
C346 C28 1.617 . S
C381 C42 1.617 . S
C396 C14 1.617 . S
C431 C56 1.617 . S
C446 C84 1.617 . S
C481 C98 1.617 . S
C496 C70 1.617 . S
C531 C11 1.341 . S
C546 C67 1.341 . S
C581 C25 1.341 . S
C596 C81 1.341 . S
C631 C95 1.341 . S
C646 C39 1.341 . S
C681 C109 1.341 . S
C696 C53 1.341 . S
C731 C23 0.757 . S
C746 C9 0.757 . S
C781 C37 0.758 . S
C796 C51 0.757 . S
C831 C65 0.757 . S
C846 C79 0.757 . S
C881 C93 0.758 . S
C896 C107 0.757 . S
