# Generated by pormake.
# Topology som, (6)-cn, num edge types: 1
# Building blocks:
#     Node 0, Type 0, BuildingBlock: CUKXOW_clean_sbu_0, # of connection points: 6
#     Node 1, Type 0, BuildingBlock: CUKXOW_clean_sbu_0, # of connection points: 6
#     Node 2, Type 0, BuildingBlock: CUKXOW_clean_sbu_0, # of connection points: 6
#     Node 3, Type 0, BuildingBlock: CUKXOW_clean_sbu_0, # of connection points: 6
#     Node 4, Type 0, BuildingBlock: CUKXOW_clean_sbu_0, # of connection points: 6
#     Node 5, Type 0, BuildingBlock: CUKXOW_clean_sbu_0, # of connection points: 6
#     Node 6, Type 0, BuildingBlock: CUKXOW_clean_sbu_0, # of connection points: 6
#     Node 7, Type 0, BuildingBlock: CUKXOW_clean_sbu_0, # of connection points: 6
#     Node 8, Type 0, BuildingBlock: CUKXOW_clean_sbu_0, # of connection points: 6
#     Node 9, Type 0, BuildingBlock: CUKXOW_clean_sbu_0, # of connection points: 6
#     Node 10, Type 0, BuildingBlock: CUKXOW_clean_sbu_0, # of connection points: 6
#     Node 11, Type 0, BuildingBlock: CUKXOW_clean_sbu_0, # of connection points: 6
#     Node 12, Type 0, BuildingBlock: CUKXOW_clean_sbu_0, # of connection points: 6
#     Node 13, Type 0, BuildingBlock: CUKXOW_clean_sbu_0, # of connection points: 6
#     Node 14, Type 0, BuildingBlock: CUKXOW_clean_sbu_0, # of connection points: 6
#     Node 15, Type 0, BuildingBlock: CUKXOW_clean_sbu_0, # of connection points: 6
#     Node 16, Type 0, BuildingBlock: CUKXOW_clean_sbu_0, # of connection points: 6
#     Node 17, Type 0, BuildingBlock: CUKXOW_clean_sbu_0, # of connection points: 6
#     Node 18, Type 0, BuildingBlock: CUKXOW_clean_sbu_0, # of connection points: 6
#     Node 19, Type 0, BuildingBlock: CUKXOW_clean_sbu_0, # of connection points: 6
#     Node 20, Type 0, BuildingBlock: CUKXOW_clean_sbu_0, # of connection points: 6
#     Node 21, Type 0, BuildingBlock: CUKXOW_clean_sbu_0, # of connection points: 6
#     Node 22, Type 0, BuildingBlock: CUKXOW_clean_sbu_0, # of connection points: 6
#     Node 23, Type 0, BuildingBlock: CUKXOW_clean_sbu_0, # of connection points: 6
#     Node 24, Type 0, BuildingBlock: CUKXOW_clean_sbu_0, # of connection points: 6
#     Node 25, Type 0, BuildingBlock: CUKXOW_clean_sbu_0, # of connection points: 6
#     Node 26, Type 0, BuildingBlock: CUKXOW_clean_sbu_0, # of connection points: 6
#     Node 27, Type 0, BuildingBlock: CUKXOW_clean_sbu_0, # of connection points: 6
#     Node 28, Type 0, BuildingBlock: CUKXOW_clean_sbu_0, # of connection points: 6
#     Node 29, Type 0, BuildingBlock: CUKXOW_clean_sbu_0, # of connection points: 6
#     Node 30, Type 0, BuildingBlock: CUKXOW_clean_sbu_0, # of connection points: 6
#     Node 31, Type 0, BuildingBlock: CUKXOW_clean_sbu_0, # of connection points: 6
#     Edge 32, Type (0, 0), None
#     Edge 33, Type (0, 0), None
#     Edge 34, Type (0, 0), None
#     Edge 35, Type (0, 0), None
#     Edge 36, Type (0, 0), None
#     Edge 37, Type (0, 0), None
#     Edge 38, Type (0, 0), None
#     Edge 39, Type (0, 0), None
#     Edge 40, Type (0, 0), None
#     Edge 41, Type (0, 0), None
#     Edge 42, Type (0, 0), None
#     Edge 43, Type (0, 0), None
#     Edge 44, Type (0, 0), None
#     Edge 45, Type (0, 0), None
#     Edge 46, Type (0, 0), None
#     Edge 47, Type (0, 0), None
#     Edge 48, Type (0, 0), None
#     Edge 49, Type (0, 0), None
#     Edge 50, Type (0, 0), None
#     Edge 51, Type (0, 0), None
#     Edge 52, Type (0, 0), None
#     Edge 53, Type (0, 0), None
#     Edge 54, Type (0, 0), None
#     Edge 55, Type (0, 0), None
#     Edge 56, Type (0, 0), None
#     Edge 57, Type (0, 0), None
#     Edge 58, Type (0, 0), None
#     Edge 59, Type (0, 0), None
#     Edge 60, Type (0, 0), None
#     Edge 61, Type (0, 0), None
#     Edge 62, Type (0, 0), None
#     Edge 63, Type (0, 0), None
#     Edge 64, Type (0, 0), None
#     Edge 65, Type (0, 0), None
#     Edge 66, Type (0, 0), None
#     Edge 67, Type (0, 0), None
#     Edge 68, Type (0, 0), None
#     Edge 69, Type (0, 0), None
#     Edge 70, Type (0, 0), None
#     Edge 71, Type (0, 0), None
#     Edge 72, Type (0, 0), None
#     Edge 73, Type (0, 0), None
#     Edge 74, Type (0, 0), None
#     Edge 75, Type (0, 0), None
#     Edge 76, Type (0, 0), None
#     Edge 77, Type (0, 0), None
#     Edge 78, Type (0, 0), None
#     Edge 79, Type (0, 0), None
#     Edge 80, Type (0, 0), None
#     Edge 81, Type (0, 0), None
#     Edge 82, Type (0, 0), None
#     Edge 83, Type (0, 0), None
#     Edge 84, Type (0, 0), None
#     Edge 85, Type (0, 0), None
#     Edge 86, Type (0, 0), None
#     Edge 87, Type (0, 0), None
#     Edge 88, Type (0, 0), None
#     Edge 89, Type (0, 0), None
#     Edge 90, Type (0, 0), None
#     Edge 91, Type (0, 0), None
#     Edge 92, Type (0, 0), None
#     Edge 93, Type (0, 0), None
#     Edge 94, Type (0, 0), None
#     Edge 95, Type (0, 0), None
#     Edge 96, Type (0, 0), None
#     Edge 97, Type (0, 0), None
#     Edge 98, Type (0, 0), None
#     Edge 99, Type (0, 0), None
#     Edge 100, Type (0, 0), None
#     Edge 101, Type (0, 0), None
#     Edge 102, Type (0, 0), None
#     Edge 103, Type (0, 0), None
#     Edge 104, Type (0, 0), None
#     Edge 105, Type (0, 0), None
#     Edge 106, Type (0, 0), None
#     Edge 107, Type (0, 0), None
#     Edge 108, Type (0, 0), None
#     Edge 109, Type (0, 0), None
#     Edge 110, Type (0, 0), None
#     Edge 111, Type (0, 0), None
#     Edge 112, Type (0, 0), None
#     Edge 113, Type (0, 0), None
#     Edge 114, Type (0, 0), None
#     Edge 115, Type (0, 0), None
#     Edge 116, Type (0, 0), None
#     Edge 117, Type (0, 0), None
#     Edge 118, Type (0, 0), None
#     Edge 119, Type (0, 0), None
#     Edge 120, Type (0, 0), None
#     Edge 121, Type (0, 0), None
#     Edge 122, Type (0, 0), None
#     Edge 123, Type (0, 0), None
#     Edge 124, Type (0, 0), None
#     Edge 125, Type (0, 0), None
#     Edge 126, Type (0, 0), None
#     Edge 127, Type (0, 0), None
# Relax obj value: 0.144
# Max RMSD: 0.192
# Mean RMSD: 0.192
data_MOF--net-som--node1-CUKXOW_clean_sbu_0--edge1-none
_symmetry_space_group_name_H-M    P1
_symmetry_Int_Tables_number       1
_symmetry_cell_setting            triclinic
loop_
_symmetry_equiv_pos_as_xyz
'x, y, z'
_cell_length_a     5.9666252
_cell_length_b     38.677941
_cell_length_c     55.595821
_cell_angle_alpha  90.027812
_cell_angle_beta   89.961108
_cell_angle_gamma 90.000068
loop_
_atom_site_label
_atom_site_type_symbol
_atom_site_fract_x
_atom_site_fract_y
_atom_site_fract_z
_atom_type_partial_charge
Tb0 Tb 0.12662 0.45482 0.0552 0.0
C1 C 0.18795 0.49403 0.10422 0.0
Tb2 Tb 0.11507 0.53462 0.05483 0.0
O3 O 0.48461 0.45427 0.06382 0.0
O4 O 0.34139 0.49534 0.04452 0.0
O5 O 0.13581 0.46421 0.09376 0.0
C6 C 0.19032 0.60233 0.05782 0.0
O7 O 0.19981 0.52393 0.09247 0.0
C8 C 0.72785 0.50352 0.05507 0.0
C9 C 0.09259 0.49593 0.00534 0.0
O10 O 0.34494 0.57876 0.0569 0.0
O11 O 0.9947 0.58794 0.05715 0.0
O12 O 0.75975 0.53341 0.04518 0.0
O13 O 0.90197 0.49397 0.06589 0.0
O14 O 0.14351 0.5254 0.01633 0.0
O15 O 1.0619 0.46625 0.01705 0.0
C16 C 0.99615 0.389 0.05264 0.0
O17 O 0.20261 0.39951 0.05227 0.0
O18 O 0.86309 0.41538 0.05437 0.0
C19 C 0.51592 0.48495 0.05492 0.0
Tb20 Tb 0.29397 0.78705 0.0552 0.0
C21 C 0.23042 0.74795 0.10419 0.0
Tb22 Tb 0.30561 0.70724 0.05486 0.0
O23 O 0.93568 0.78765 0.06374 0.0
O24 O 1.07949 0.74651 0.04453 0.0
O25 O 0.28454 0.77771 0.09376 0.0
C26 C 0.22962 0.63955 0.05783 0.0
O27 O 0.21754 0.71807 0.09241 0.0
C28 C 0.69268 0.73836 0.05504 0.0
C29 C 0.32964 0.74582 0.00533 0.0
O30 O 0.42517 0.65399 0.05835 0.0
O31 O 1.0756 0.66306 0.05577 0.0
O32 O 0.66078 0.70846 0.04512 0.0
O33 O 0.51854 0.74792 0.06589 0.0
O34 O 0.2808 0.71628 0.01633 0.0
O35 O 0.35792 0.77559 0.01702 0.0
C36 C 0.42451 0.85287 0.05263 0.0
O37 O 0.55767 0.82646 0.05396 0.0
O38 O 0.21797 0.84239 0.05265 0.0
C39 C 0.90463 0.75693 0.05489 0.0
Tb40 Tb 0.12242 0.78715 0.17908 0.0
C41 C 0.18708 0.74798 0.13013 0.0
Tb42 Tb 0.1108 0.70733 0.17943 0.0
O43 O 0.48075 0.78773 0.17057 0.0
O44 O 0.33683 0.74662 0.18977 0.0
O45 O 0.13234 0.77774 0.14053 0.0
C46 C 0.18731 0.63965 0.1765 0.0
O47 O 0.2003 0.71814 0.14192 0.0
C48 C 0.72372 0.73844 0.17926 0.0
C49 C 1.08469 0.74598 0.22893 0.0
O50 O 0.99203 0.65411 0.17538 0.0
O51 O 0.34074 0.66314 0.17913 0.0
O52 O 0.75565 0.70856 0.18918 0.0
O53 O 0.89785 0.748 0.1684 0.0
O54 O 0.13336 0.7164 0.21797 0.0
O55 O 1.05741 0.77575 0.21723 0.0
C56 C 0.99196 0.85297 0.1817 0.0
O57 O 0.85882 0.82658 0.18016 0.0
O58 O 0.19846 0.84247 0.18184 0.0
C59 C 0.51178 0.75703 0.17943 0.0
Tb60 Tb 0.28972 0.45492 0.17924 0.0
C61 C 0.2294 0.49406 0.13019 0.0
Tb62 Tb 0.30129 0.5347 0.17961 0.0
O63 O 0.93176 0.45435 0.17061 0.0
O64 O 1.07488 0.49545 0.1899 0.0
O65 O 0.28104 0.46424 0.14068 0.0
C66 C 0.22658 0.60243 0.17659 0.0
O67 O 0.21784 0.52399 0.14194 0.0
C68 C 0.68852 0.5036 0.17935 0.0
C69 C 0.32162 0.49609 0.22912 0.0
O70 O 1.07187 0.57884 0.17692 0.0
O71 O 0.42195 0.58805 0.17787 0.0
O72 O 0.65669 0.53352 0.18923 0.0
O73 O 0.51437 0.49404 0.16854 0.0
O74 O 0.27054 0.52551 0.21809 0.0
O75 O 0.35332 0.4664 0.21742 0.0
C76 C 0.42034 0.3891 0.18176 0.0
O77 O 0.21381 0.39959 0.18196 0.0
O78 O 0.55342 0.4155 0.18025 0.0
C79 C 0.90044 0.48504 0.17948 0.0
Tb80 Tb 1.05807 0.45709 0.92953 0.0
C81 C 1.08058 0.49578 0.97901 0.0
Tb82 Tb 1.04654 0.53688 0.92915 0.0
O83 O 0.41338 0.45819 0.93911 0.0
O84 O 0.27148 0.49776 0.91843 0.0
O85 O 1.02961 0.46631 0.96802 0.0
C86 C 0.17669 0.60272 0.9317 0.0
O87 O 0.11127 0.52545 0.9673 0.0
C88 C 0.65738 0.50666 0.92939 0.0
C89 C 0.98509 0.49767 0.88013 0.0
O90 O 0.97027 0.59219 0.93207 0.0
O91 O 0.30988 0.57636 0.92998 0.0
O92 O 0.68844 0.53734 0.9205 0.0
O93 O 0.8321 0.4964 0.9398 0.0
O94 O 1.03731 0.5275 0.89059 0.0
O95 O 0.9733 0.46777 0.89189 0.0
C96 C 0.98255 0.38938 0.92653 0.0
O97 O 0.82802 0.41298 0.9274 0.0
O98 O 0.17822 0.40375 0.92725 0.0
C99 C 0.44551 0.48807 0.92922 0.0
Tb100 Tb 0.8668 0.2845 0.92949 0.0
C101 C 0.84256 0.24592 0.97901 0.0
Tb102 Tb 0.8784 0.20468 0.92914 0.0
O103 O 0.51165 0.28338 0.93917 0.0
O104 O 0.65356 0.24379 0.91842 0.0
O105 O 0.89134 0.27546 0.96802 0.0
C106 C 0.74816 0.13886 0.93171 0.0
O107 O 0.81435 0.21615 0.96732 0.0
C108 C 0.26762 0.2349 0.92942 0.0
C109 C 0.94236 0.24378 0.88016 0.0
O110 O 0.61488 0.16525 0.93035 0.0
O111 O 0.95466 0.14936 0.93172 0.0
O112 O 0.23682 0.20417 0.92058 0.0
O113 O 0.09254 0.2452 0.93978 0.0
O114 O 0.88807 0.21403 0.89059 0.0
O115 O 0.95516 0.27366 0.89195 0.0
C116 C 0.94311 0.35217 0.92652 0.0
O117 O 0.74752 0.33775 0.92594 0.0
O118 O 0.097 0.32865 0.92862 0.0
C119 C 0.47951 0.2535 0.92924 0.0
Tb120 Tb 1.0627 0.28441 0.80494 0.0
C121 C 0.089 0.24576 0.75543 0.0
Tb122 Tb 1.05111 0.20459 0.80528 0.0
O123 O 0.41782 0.28329 0.79524 0.0
O124 O 0.27594 0.24372 0.81599 0.0
O125 O 1.04038 0.27534 0.7664 0.0
C126 C 0.18128 0.13876 0.80267 0.0
O127 O 0.1162 0.21599 0.76713 0.0
C128 C 0.66187 0.23481 0.80497 0.0
C129 C 0.98605 0.24375 0.85423 0.0
O130 O 0.31452 0.16513 0.80424 0.0
O131 O 0.97482 0.14928 0.8025 0.0
O132 O 0.69265 0.2041 0.81383 0.0
O133 O 0.83704 0.24509 0.79462 0.0
O134 O 1.04096 0.21399 0.84383 0.0
O135 O 0.97289 0.2736 0.84243 0.0
C136 C 0.98585 0.35208 0.80786 0.0
O137 O 0.18115 0.33763 0.80904 0.0
O138 O 0.83257 0.32858 0.80518 0.0
C139 C 0.44999 0.25342 0.80517 0.0
Tb140 Tb 0.87145 0.457 0.80474 0.0
C141 C 0.85108 0.49562 0.75524 0.0
Tb142 Tb 0.883 0.53679 0.80512 0.0
O143 O 0.51606 0.45808 0.79519 0.0
O144 O 0.65807 0.49769 0.81585 0.0
O145 O 0.9022 0.4662 0.76627 0.0
C146 C 0.75272 0.60262 0.80261 0.0
O147 O 0.81936 0.5253 0.76694 0.0
C148 C 0.27214 0.50656 0.80492 0.0
C149 C 0.94345 0.49764 0.85416 0.0
O150 O 0.9592 0.59211 0.80241 0.0
O151 O 0.6195 0.57623 0.80411 0.0
O152 O 0.24107 0.53727 0.81379 0.0
O153 O 0.09751 0.49629 0.79449 0.0
O154 O 0.89174 0.52746 0.84368 0.0
O155 O 0.95493 0.46771 0.84242 0.0
C156 C 0.94644 0.38929 0.80777 0.0
O157 O 0.10105 0.4129 0.8075 0.0
O158 O 0.75103 0.40364 0.80644 0.0
C159 C 0.48401 0.48798 0.80507 0.0
Tb160 Tb 0.13597 0.95461 0.55512 0.0
C161 C 0.2029 0.99367 0.60405 0.0
Tb162 Tb 0.12455 0.03444 0.55484 0.0
O163 O 0.4943 0.95402 0.5636 0.0
O164 O 0.35048 0.99515 0.54443 0.0
O165 O 0.14715 0.96395 0.59367 0.0
C166 C 0.20202 0.10208 0.55782 0.0
O167 O 0.21662 0.02351 0.59225 0.0
C168 C 0.73734 0.00336 0.55499 0.0
C169 C 0.09499 -0.00411 0.50533 0.0
O170 O 1.00756 0.08758 0.55996 0.0
O171 O 0.35404 0.07866 0.55415 0.0
O172 O 0.76946 0.03327 0.5451 0.0
O173 O 0.91141 0.99377 0.56583 0.0
O174 O 0.14361 0.02548 0.51627 0.0
O175 O 1.06907 0.96608 0.51702 0.0
C176 C 1.00529 0.8888 0.55262 0.0
O177 O 0.21165 0.89932 0.55191 0.0
O178 O 0.87247 0.91516 0.55465 0.0
C179 C 0.52547 0.98472 0.55474 0.0
Tb180 Tb 0.30371 0.28683 0.55527 0.0
C181 C 0.24545 0.24759 0.60433 0.0
Tb182 Tb 0.31547 0.20705 0.55484 0.0
O183 O 0.94571 0.2874 0.56394 0.0
O184 O 0.08896 0.2463 0.54463 0.0
O185 O 0.29624 0.27744 0.59383 0.0
C186 C 0.24138 0.13929 0.55778 0.0
O187 O 0.23424 0.21765 0.5926 0.0
C188 C 0.70266 0.23816 0.55515 0.0
C189 C 0.33245 0.24577 0.50535 0.0
O190 O 0.08702 0.16293 0.55855 0.0
O191 O 0.43597 0.15365 0.55544 0.0
O192 O 0.67116 0.20823 0.5453 0.0
O193 O 0.52833 0.24771 0.56594 0.0
O194 O 0.28117 0.21637 0.51641 0.0
O195 O 0.36559 0.27541 0.51704 0.0
C196 C 0.43402 0.35265 0.55265 0.0
O197 O 0.56733 0.32623 0.5537 0.0
O198 O 0.2275 0.34218 0.55298 0.0
C199 C 0.91457 0.25669 0.55508 0.0
Tb200 Tb 0.14058 0.28678 0.67926 0.0
C201 C 0.20404 0.24761 0.6303 0.0
Tb202 Tb 0.12898 0.20695 0.6796 0.0
O203 O 0.49895 0.28735 0.67074 0.0
O204 O 0.35501 0.24625 0.68993 0.0
O205 O 0.1488 0.27733 0.64072 0.0
C206 C 0.2056 0.13929 0.67655 0.0
O207 O 0.21842 0.21778 0.6421 0.0
C208 C 0.74193 0.23807 0.67944 0.0
C209 C 0.10304 0.24562 0.72911 0.0
O210 O 1.01037 0.15376 0.67537 0.0
O211 O 0.3589 0.16276 0.67933 0.0
O212 O 0.77386 0.20819 0.68937 0.0
O213 O 0.91603 0.24763 0.66858 0.0
O214 O 0.15131 0.21602 0.71815 0.0
O215 O 1.0761 0.2754 0.71742 0.0
C216 C 1.0104 0.35262 0.68175 0.0
O217 O 0.8771 0.32622 0.68055 0.0
O218 O 0.2169 0.34213 0.68166 0.0
C219 C 0.52996 0.25665 0.67959 0.0
Tb220 Tb 0.30793 0.95455 0.67903 0.0
C221 C 0.24635 0.99369 0.62999 0.0
Tb222 Tb 0.31953 0.03433 0.67941 0.0
O223 O 0.95002 0.95398 0.6704 0.0
O224 O 0.09311 0.99508 0.68971 0.0
O225 O 0.29746 0.96384 0.64046 0.0
C226 C 0.2449 0.10207 0.67652 0.0
O227 O 0.23598 0.02364 0.64173 0.0
C228 C 0.70679 0.00324 0.67913 0.0
C229 C 0.34018 0.99573 0.72891 0.0
O230 O 0.09021 0.07847 0.67668 0.0
O231 O 0.44022 0.08769 0.67786 0.0
O232 O 0.67499 0.03316 0.689 0.0
O233 O 0.53261 0.99367 0.66833 0.0
O234 O 0.28857 0.02513 0.71788 0.0
O235 O 0.37224 0.96607 0.7172 0.0
C236 C 0.43867 0.88876 0.68167 0.0
O237 O 0.23222 0.89926 0.68215 0.0
O238 O 0.5716 0.91512 0.67978 0.0
C239 C 0.91868 0.98467 0.67929 0.0
Tb240 Tb 1.04873 0.95725 0.4295 0.0
C241 C 1.0785 0.9958 0.47902 0.0
Tb242 Tb 1.03733 0.03708 0.42923 0.0
O243 O 0.40379 0.95832 0.4392 0.0
O244 O 0.26217 -0.00205 0.41849 0.0
O245 O 1.02994 0.9662 0.46808 0.0
C246 C 0.16769 0.10291 0.43172 0.0
O247 O 0.1043 0.02561 0.46732 0.0
C248 C 0.64795 0.00687 0.42957 0.0
C249 C 0.9701 -0.00198 0.3803 0.0
O250 O 0.96137 0.09237 0.43243 0.0
O251 O 0.30064 0.07656 0.42969 0.0
O252 O 0.67887 0.03759 0.42072 0.0
O253 O 0.82316 -0.00343 0.43989 0.0
O254 O 1.02605 0.02774 0.39068 0.0
O255 O 0.95637 0.96819 0.39211 0.0
C256 C 0.9709 0.88962 0.42652 0.0
O257 O 0.16535 0.90411 0.42432 0.0
O258 O 0.81908 0.91306 0.43026 0.0
C259 C 0.43614 0.98821 0.4293 0.0
Tb260 Tb 0.85707 0.78468 0.42951 0.0
C261 C 0.84008 0.74595 0.479 0.0
Tb262 Tb 0.8688 0.70489 0.42907 0.0
O263 O 0.50137 0.7836 0.43898 0.0
O264 O 0.6439 0.74398 0.41838 0.0
O265 O 0.89142 0.77534 0.46794 0.0
C266 C 0.73879 0.63906 0.43169 0.0
O267 O 0.8069 0.71631 0.4673 0.0
C268 C 0.25781 0.73513 0.42923 0.0
C269 C 0.92726 0.74414 0.38002 0.0
O270 O 0.60536 0.66546 0.43063 0.0
O271 O 0.94528 0.64955 0.43137 0.0
O272 O 0.22691 0.70441 0.42037 0.0
O273 O 1.08322 0.74539 0.43969 0.0
O274 O 0.87642 0.71429 0.39051 0.0
O275 O 0.93835 0.77408 0.39175 0.0
C276 C 0.93141 0.85242 0.42657 0.0
O277 O 1.08564 0.82877 0.42574 0.0
O278 O 0.73683 0.83808 0.42897 0.0
C279 C 0.46966 0.75368 0.42913 0.0
Tb280 Tb 1.04442 0.78478 0.30476 0.0
C281 C 1.07063 0.74612 0.25525 0.0
Tb282 Tb 1.03285 0.70495 0.3051 0.0
O283 O 0.39951 0.78365 0.29505 0.0
O284 O 0.25767 0.74408 0.31581 0.0
O285 O 1.02241 0.77573 0.26622 0.0
C286 C 0.16271 0.6391 0.30262 0.0
O287 O 0.09746 0.71634 0.26694 0.0
C288 C 0.64359 0.73518 0.30481 0.0
C289 C 0.96898 0.74412 0.35405 0.0
O290 O 0.29614 0.66549 0.30385 0.0
O291 O 0.95626 0.64962 0.30268 0.0
O292 O 0.67435 0.70447 0.31365 0.0
O293 O 0.81876 0.74546 0.29446 0.0
O294 O 1.02442 0.7144 0.34364 0.0
O295 O 0.95462 0.77395 0.34225 0.0
C296 C 0.96745 0.85243 0.30782 0.0
O297 O 0.16269 0.83798 0.30908 0.0
O298 O 0.81433 0.82895 0.30496 0.0
C299 C 0.43169 0.75378 0.30498 0.0
Tb300 Tb 0.85316 0.95737 0.30494 0.0
C301 C 0.83257 -0.00402 0.25545 0.0
Tb302 Tb 0.86473 0.03715 0.30533 0.0
O303 O 0.49771 0.95844 0.29542 0.0
O304 O 0.63978 -0.00194 0.31606 0.0
O305 O 0.88421 0.96659 0.26648 0.0
C306 C 0.73432 0.10296 0.3027 0.0
O307 O 0.80045 0.02564 0.26716 0.0
C308 C 0.25385 0.00693 0.30512 0.0
C309 C 0.92641 -0.00199 0.35437 0.0
O310 O 0.94074 0.09244 0.30223 0.0
O311 O 0.60126 0.07661 0.30457 0.0
O312 O 0.22276 0.03764 0.314 0.0
O313 O 1.07923 -0.00334 0.29468 0.0
O314 O 0.87525 0.02786 0.3439 0.0
O315 O 0.9367 0.96806 0.34263 0.0
C316 C 0.92802 0.88964 0.30784 0.0
O317 O 1.08262 0.91326 0.30776 0.0
O318 O 0.73269 0.904 0.30642 0.0
C319 C 0.46568 0.98835 0.30529 0.0
Tb320 Tb 0.63613 0.45461 0.55512 0.0
C321 C 0.70316 0.49368 0.60405 0.0
Tb322 Tb 0.62469 0.53444 0.55484 0.0
O323 O 0.99445 0.45402 0.5636 0.0
O324 O 0.85063 0.49515 0.54443 0.0
O325 O 0.64732 0.46396 0.59367 0.0
C326 C 0.70199 0.60209 0.55781 0.0
O327 O 0.71695 0.52351 0.59224 0.0
C328 C 0.2375 0.50336 0.55499 0.0
C329 C 0.59504 0.49589 0.50533 0.0
O330 O 0.50765 0.58756 0.56001 0.0
O331 O 0.85399 0.57868 0.55409 0.0
O332 O 0.26961 0.53327 0.54509 0.0
O333 O 0.41155 0.49377 0.56583 0.0
O334 O 0.64361 0.52549 0.51627 0.0
O335 O 0.56919 0.46608 0.51702 0.0
C336 C 0.50556 0.38879 0.55263 0.0
O337 O 0.7119 0.39932 0.55191 0.0
O338 O 0.37269 0.41515 0.55465 0.0
C339 C 1.02562 0.48472 0.55474 0.0
Tb340 Tb 0.80332 0.78684 0.55526 0.0
C341 C 0.74514 0.74759 0.60432 0.0
Tb342 Tb 0.81509 0.70706 0.55482 0.0
O343 O 0.44533 0.78741 0.56393 0.0
O344 O 0.58856 0.74632 0.54462 0.0
O345 O 0.79585 0.77744 0.59382 0.0
C346 C 0.74123 0.6393 0.55776 0.0
O347 O 0.73396 0.71765 0.59258 0.0
C348 C 0.20227 0.73817 0.55514 0.0
C349 C 0.83196 0.74579 0.50533 0.0
O350 O 0.58683 0.66293 0.55859 0.0
O351 O 0.93572 0.65367 0.55537 0.0
O352 O 0.17078 0.70825 0.54529 0.0
O353 O 1.02794 0.74772 0.56593 0.0
O354 O 0.7806 0.7164 0.5164 0.0
O355 O 0.86515 0.77543 0.51703 0.0
C356 C 0.9337 0.85266 0.55265 0.0
O357 O 1.06699 0.82624 0.55369 0.0
O358 O 0.72716 0.8422 0.55298 0.0
C359 C 0.41418 0.7567 0.55507 0.0
Tb360 Tb 0.64041 0.78678 0.67925 0.0
C361 C 0.70378 0.74761 0.63029 0.0
Tb362 Tb 0.62883 0.70695 0.67959 0.0
O363 O 0.99879 0.78735 0.67074 0.0
O364 O 0.85485 0.74624 0.68992 0.0
O365 O 0.64854 0.77733 0.64071 0.0
C366 C 0.70559 0.63929 0.67654 0.0
O367 O 0.71819 0.71778 0.64209 0.0
C368 C 0.24176 0.73806 0.67943 0.0
C369 C 0.60294 0.74561 0.72911 0.0
O370 O 0.51032 0.65375 0.67537 0.0
O371 O 0.85885 0.66277 0.67931 0.0
O372 O 0.2737 0.70818 0.68936 0.0
O373 O 0.41587 0.74762 0.66858 0.0
O374 O 0.65117 0.71601 0.71814 0.0
O375 O 0.57599 0.7754 0.71742 0.0
C376 C 0.51022 0.85262 0.68174 0.0
O377 O 0.37692 0.82621 0.68056 0.0
O378 O 0.71673 0.84213 0.68163 0.0
C379 C 1.0298 0.75665 0.67959 0.0
Tb380 Tb 0.80817 0.45456 0.67903 0.0
C381 C 0.74663 0.49369 0.62999 0.0
Tb382 Tb 0.81976 0.53434 0.67941 0.0
O383 O 0.45026 0.45399 0.67039 0.0
O384 O 0.59336 0.49509 0.6897 0.0
O385 O 0.79776 0.46384 0.64046 0.0
C386 C 0.74499 0.60208 0.67651 0.0
O387 O 0.73623 0.52364 0.64173 0.0
C388 C 0.20703 0.50325 0.67913 0.0
C389 C 0.84043 0.49573 0.7289 0.0
O390 O 0.59034 0.57847 0.67668 0.0
O391 O 0.94034 0.5877 0.67785 0.0
O392 O 0.17523 0.53317 0.68899 0.0
O393 O 1.03285 0.49368 0.66833 0.0
O394 O 0.78886 0.52513 0.71788 0.0
O395 O 0.87244 0.46607 0.71719 0.0
C396 C 0.93886 0.38876 0.68166 0.0
O397 O 0.73241 0.39927 0.68213 0.0
O398 O 1.07182 0.41513 0.6798 0.0
C399 C 0.41892 0.48468 0.67928 0.0
Tb400 Tb 0.54857 0.45725 0.42951 0.0
C401 C 0.57847 0.4958 0.47902 0.0
Tb402 Tb 0.53715 0.53708 0.42923 0.0
O403 O 0.90361 0.45832 0.4392 0.0
O404 O 0.762 0.49795 0.41849 0.0
O405 O 0.52996 0.4662 0.46808 0.0
C406 C 0.66741 0.60291 0.43171 0.0
O407 O 0.60417 0.52561 0.46732 0.0
C408 C 0.14778 0.50687 0.42957 0.0
C409 C 0.46977 0.49802 0.38031 0.0
O410 O 0.46111 0.59236 0.43244 0.0
O411 O 0.8004 0.57657 0.42968 0.0
O412 O 0.17869 0.53759 0.42072 0.0
O413 O 0.32299 0.49657 0.43989 0.0
O414 O 0.52583 0.52773 0.39068 0.0
O415 O 0.45597 0.46819 0.39212 0.0
C416 C 0.4709 0.38962 0.42653 0.0
O417 O 0.66521 0.40412 0.42425 0.0
O418 O 0.31912 0.41303 0.43034 0.0
C419 C 0.93597 0.48822 0.4293 0.0
Tb420 Tb 0.35744 0.28466 0.42953 0.0
C421 C 0.34058 0.24593 0.47901 0.0
Tb422 Tb 0.36918 0.20488 0.42908 0.0
O423 O 1.00174 0.28358 0.43899 0.0
O424 O 0.14428 0.24397 0.41839 0.0
O425 O 0.39202 0.27532 0.46795 0.0
C426 C 0.23911 0.13905 0.43169 0.0
O427 O 0.30731 0.2163 0.46731 0.0
C428 C 0.75818 0.23512 0.42924 0.0
C429 C 0.42757 0.24414 0.38003 0.0
O430 O 0.1057 0.16545 0.43063 0.0
O431 O 0.44562 0.14954 0.43138 0.0
O432 O 0.72728 0.2044 0.42038 0.0
O433 O 0.58361 0.24537 0.4397 0.0
O434 O 0.37682 0.21428 0.39052 0.0
O435 O 0.4386 0.27407 0.39177 0.0
C436 C 0.43154 0.35241 0.42659 0.0
O437 O 0.5858 0.32877 0.42568 0.0
O438 O 0.23708 0.33806 0.42906 0.0
C439 C 0.97003 0.25367 0.42914 0.0
Tb440 Tb 0.54459 0.28479 0.30477 0.0
C441 C 0.57075 0.24613 0.25526 0.0
Tb442 Tb 0.53303 0.20496 0.30511 0.0
O443 O 0.89969 0.28366 0.29506 0.0
O444 O 0.75784 0.24409 0.31582 0.0
O445 O 0.52258 0.27573 0.26623 0.0
C446 C 0.66293 0.1391 0.30263 0.0
O447 O 0.59759 0.21634 0.26695 0.0
C448 C 0.14376 0.23519 0.30481 0.0
C449 C 0.46924 0.24412 0.35406 0.0
O450 O 0.79635 0.1655 0.30384 0.0
O451 O 0.45647 0.14962 0.3027 0.0
O452 O 0.17453 0.20447 0.31366 0.0
O453 O 0.31894 0.24546 0.29447 0.0
O454 O 0.52468 0.2144 0.34365 0.0
O455 O 0.45486 0.27395 0.34226 0.0
C456 C 0.46743 0.35243 0.30783 0.0
O457 O 0.66272 0.33799 0.30908 0.0
O458 O 0.31437 0.32894 0.30497 0.0
C459 C 0.93186 0.25379 0.30499 0.0
Tb460 Tb 0.35285 0.45736 0.30495 0.0
C461 C 0.33224 0.49597 0.25546 0.0
Tb462 Tb 0.36442 0.53714 0.30533 0.0
O463 O 0.99739 0.45843 0.29543 0.0
O464 O 0.13947 0.49805 0.31606 0.0
O465 O 0.38386 0.46658 0.26648 0.0
C466 C 0.23408 0.60296 0.30271 0.0
O467 O 0.30017 0.52563 0.26717 0.0
C468 C 0.75353 0.50692 0.30512 0.0
C469 C 0.42605 0.498 0.35437 0.0
O470 O 0.44048 0.59243 0.30225 0.0
O471 O 0.10097 0.5766 0.30456 0.0
O472 O 0.72245 0.53763 0.31401 0.0
O473 O 0.57891 0.49665 0.29469 0.0
O474 O 0.37489 0.52786 0.3439 0.0
O475 O 0.43635 0.46805 0.34263 0.0
C476 C 0.42789 0.38964 0.30785 0.0
O477 O 0.58243 0.41326 0.30776 0.0
O478 O 0.23252 0.40398 0.30643 0.0
C479 C 0.96536 0.48834 0.3053 0.0
Tb480 Tb 0.62664 0.95482 0.0552 0.0
C481 C 0.68804 0.99403 0.10422 0.0
Tb482 Tb 0.6151 0.03462 0.05483 0.0
O483 O 0.98464 0.95427 0.06382 0.0
O484 O 0.84141 0.99534 0.04452 0.0
O485 O 0.63589 0.96421 0.09376 0.0
C486 C 0.69041 0.10233 0.05782 0.0
O487 O 0.69989 0.02393 0.09246 0.0
C488 C 0.22788 0.00352 0.05507 0.0
C489 C 0.59259 -0.00407 0.00534 0.0
O490 O 0.84501 0.07875 0.05689 0.0
O491 O 0.49478 0.08794 0.05716 0.0
O492 O 0.25978 0.03341 0.04518 0.0
O493 O 0.402 0.99397 0.06589 0.0
O494 O 0.64351 0.0254 0.01633 0.0
O495 O 0.56192 0.96625 0.01705 0.0
C496 C 0.4961 0.889 0.05265 0.0
O497 O 0.70257 0.89951 0.05226 0.0
O498 O 0.36307 0.91538 0.05438 0.0
C499 C 1.01595 0.98495 0.05492 0.0
Tb500 Tb 0.79415 0.28704 0.05521 0.0
C501 C 0.73061 0.24795 0.10419 0.0
Tb502 Tb 0.80578 0.20724 0.05487 0.0
O503 O 0.43586 0.28764 0.06375 0.0
O504 O 0.57967 0.2465 0.04454 0.0
O505 O 0.78471 0.27771 0.09377 0.0
C506 C 0.72975 0.13955 0.05783 0.0
O507 O 0.71775 0.21807 0.09242 0.0
C508 C 0.19286 0.23835 0.05505 0.0
C509 C 0.82986 0.24582 0.00534 0.0
O510 O 0.92531 0.15398 0.05834 0.0
O511 O 0.57574 0.16306 0.05579 0.0
O512 O 0.16096 0.20846 0.04513 0.0
O513 O 1.01872 0.24792 0.0659 0.0
O514 O 0.78098 0.21628 0.01634 0.0
O515 O 0.85814 0.27559 0.01703 0.0
C516 C 0.9246 0.35287 0.05265 0.0
O517 O 1.0578 0.32646 0.05398 0.0
O518 O 0.71808 0.34238 0.05265 0.0
C519 C 0.40481 0.25693 0.0549 0.0
Tb520 Tb 0.62254 0.28715 0.17909 0.0
C521 C 0.68726 0.24798 0.13013 0.0
Tb522 Tb 0.61093 0.20733 0.17944 0.0
O523 O 0.98087 0.28773 0.17057 0.0
O524 O 0.83695 0.24663 0.18978 0.0
O525 O 0.63255 0.27775 0.14054 0.0
C526 C 0.68745 0.13965 0.17651 0.0
O527 O 0.70045 0.21814 0.14193 0.0
C528 C 0.22385 0.23844 0.17926 0.0
C529 C 0.58479 0.24599 0.22894 0.0
O530 O 0.49217 0.15411 0.17539 0.0
O531 O 0.84088 0.16314 0.17914 0.0
O532 O 0.25577 0.20856 0.18919 0.0
O533 O 0.39799 0.248 0.16841 0.0
O534 O 0.63349 0.2164 0.21798 0.0
O535 O 0.55752 0.27575 0.21724 0.0
C536 C 0.49197 0.35297 0.18169 0.0
O537 O 0.35888 0.32657 0.18014 0.0
O538 O 0.69848 0.34248 0.18186 0.0
C539 C 1.01191 0.25703 0.17944 0.0
Tb540 Tb 0.78989 0.95492 0.17924 0.0
C541 C 0.72952 0.99406 0.13019 0.0
Tb542 Tb 0.80146 0.03471 0.17961 0.0
O543 O 0.43194 0.95435 0.1706 0.0
O544 O 0.57505 0.99545 0.1899 0.0
O545 O 0.78115 0.96425 0.14067 0.0
C546 C 0.72673 0.10244 0.17659 0.0
O547 O 0.718 0.024 0.14193 0.0
C548 C 0.18869 0.00361 0.17935 0.0
C549 C 0.82192 -0.0039 0.22912 0.0
O550 O 0.57203 0.07884 0.17691 0.0
O551 O 0.92211 0.08806 0.17787 0.0
O552 O 0.15686 0.03353 0.18922 0.0
O553 O 1.01454 0.99404 0.16854 0.0
O554 O 0.77075 0.02551 0.21809 0.0
O555 O 0.85361 0.96641 0.21741 0.0
C556 C 0.9204 0.8891 0.18174 0.0
O557 O 0.7139 0.8996 0.18198 0.0
O558 O 1.05352 0.9155 0.18022 0.0
C559 C 0.40062 0.98505 0.17948 0.0
Tb560 Tb 0.55804 0.95709 0.92953 0.0
C561 C 0.58057 0.99578 0.97901 0.0
Tb562 Tb 0.54652 0.03689 0.92915 0.0
O563 O 0.91335 0.95819 0.93911 0.0
O564 O 0.77144 -0.00224 0.91843 0.0
O565 O 0.52961 0.96631 0.96802 0.0
C566 C 0.67673 0.10272 0.93169 0.0
O567 O 0.61125 0.02545 0.9673 0.0
C568 C 0.15735 0.00666 0.92939 0.0
C569 C 0.48501 -0.00233 0.88013 0.0
O570 O 0.4703 0.09219 0.93208 0.0
O571 O 0.8099 0.07635 0.92997 0.0
O572 O 0.18841 0.03735 0.9205 0.0
O573 O 0.33208 -0.0036 0.9398 0.0
O574 O 0.53723 0.0275 0.89059 0.0
O575 O 0.47323 0.96777 0.89189 0.0
C576 C 0.48246 0.88939 0.92653 0.0
O577 O 0.32795 0.91298 0.92741 0.0
O578 O 0.67814 0.90375 0.92724 0.0
C579 C 0.94548 0.98807 0.92922 0.0
Tb580 Tb 0.36662 0.7845 0.92948 0.0
C581 C 0.34233 0.74592 0.979 0.0
Tb582 Tb 0.37823 0.70469 0.92914 0.0
O583 O 1.01147 0.78338 0.93916 0.0
O584 O 0.15338 0.74379 0.91841 0.0
O585 O 0.39116 0.77547 0.96801 0.0
C586 C 0.24807 0.63886 0.93169 0.0
O587 O 0.31414 0.71615 0.96731 0.0
C588 C 0.76744 0.73491 0.92941 0.0
C589 C 0.44217 0.74378 0.88016 0.0
O590 O 0.11475 0.66525 0.93033 0.0
O591 O 0.45455 0.64937 0.93172 0.0
O592 O 0.73664 0.70418 0.92057 0.0
O593 O 0.59237 0.7452 0.93978 0.0
O594 O 0.38789 0.71403 0.89058 0.0
O595 O 0.45496 0.77366 0.89194 0.0
C596 C 0.44299 0.85218 0.92651 0.0
O597 O 0.24739 0.83776 0.92594 0.0
O598 O 0.59686 0.82865 0.92861 0.0
C599 C 0.97934 0.7535 0.92923 0.0
Tb600 Tb 0.56258 0.78441 0.80493 0.0
C601 C 0.58892 0.74576 0.75543 0.0
Tb602 Tb 0.551 0.70458 0.80527 0.0
O603 O 0.91771 0.78328 0.79523 0.0
O604 O 0.77583 0.74371 0.81598 0.0
O605 O 0.54028 0.77534 0.76639 0.0
C606 C 0.68126 0.63876 0.80268 0.0
O607 O 0.61611 0.71599 0.76713 0.0
C608 C 0.16176 0.7348 0.80497 0.0
C609 C 0.48587 0.74375 0.85422 0.0
O610 O 0.81447 0.66513 0.80425 0.0
O611 O 0.47479 0.64927 0.80248 0.0
O612 O 0.19253 0.70409 0.81382 0.0
O613 O 0.33693 0.74508 0.79461 0.0
O614 O 0.54077 0.71399 0.84383 0.0
O615 O 0.47274 0.7736 0.84242 0.0
C616 C 0.48572 0.85207 0.80786 0.0
O617 O 0.68103 0.83763 0.80904 0.0
O618 O 0.33246 0.82857 0.80517 0.0
C619 C 0.94988 0.75341 0.80516 0.0
Tb620 Tb 0.37132 0.957 0.80475 0.0
C621 C 0.35086 0.99562 0.75524 0.0
Tb622 Tb 0.38286 0.03679 0.80512 0.0
O623 O 1.01592 0.95807 0.7952 0.0
O624 O 0.15793 -0.00231 0.81585 0.0
O625 O 0.40206 0.9662 0.76627 0.0
C626 C 0.25268 0.10262 0.80262 0.0
O627 O 0.31913 0.0253 0.76695 0.0
C628 C 0.772 0.00656 0.80492 0.0
C629 C 0.44335 -0.00236 0.85417 0.0
O630 O 0.45914 0.0921 0.80239 0.0
O631 O 0.11942 0.07624 0.80414 0.0
O632 O 0.74093 0.03726 0.81379 0.0
O633 O 0.59738 -0.00372 0.79449 0.0
O634 O 0.39165 0.02746 0.84368 0.0
O635 O 0.4548 0.96771 0.84242 0.0
C636 C 0.44631 0.88928 0.80777 0.0
O637 O 0.60092 0.9129 0.8075 0.0
O638 O 0.25091 0.90364 0.80643 0.0
C639 C 0.98387 0.98798 0.80508 0.0
loop_
_geom_bond_atom_site_label_1
_geom_bond_atom_site_label_2
_geom_bond_distance
_geom_bond_site_symmetry_2
_ccdc_geom_bond_type
Tb0 O3 2.453 . S
Tb0 O4 2.596 . S
Tb0 O5 2.374 . S
Tb0 O13 2.343 1_455 S
Tb0 O15 2.353 . S
Tb0 O17 2.427 1_455 S
Tb0 O18 2.513 1_455 S
C1 O5 1.251 . S
C1 O7 1.263 1_455 S
Tb2 O4 2.343 1_655 S
Tb2 O7 2.353 . S
Tb2 O10 2.427 1_655 S
Tb2 O11 2.513 1_655 S
Tb2 O12 2.453 . S
Tb2 O13 2.596 . S
Tb2 O14 2.374 . S
O3 Tb0 2.453 . S
O3 C19 1.245 . S
O4 Tb0 2.596 . S
O4 Tb2 2.343 1_455 S
O4 C19 1.259 . S
O5 Tb0 2.374 . S
O5 C1 1.251 . S
C6 O10 1.275 . S
C6 O11 1.246 . S
O7 C1 1.263 1_655 S
O7 Tb2 2.353 . S
C8 O12 1.245 . S
C8 O13 1.259 . S
C9 O14 1.250 . S
C9 O15 1.263 1_655 S
O10 Tb2 2.427 1_455 S
O10 C6 1.275 . S
O11 Tb2 2.513 1_455 S
O11 C6 1.246 . S
O12 Tb2 2.453 . S
O12 C8 1.245 . S
O13 Tb0 2.343 1_655 S
O13 Tb2 2.596 . S
O13 C8 1.259 . S
O14 Tb2 2.374 . S
O14 C9 1.250 . S
O15 Tb0 2.353 . S
O15 C9 1.263 1_455 S
C16 O17 1.275 . S
C16 O18 1.246 . S
O17 Tb0 2.427 1_655 S
O17 C16 1.275 . S
O18 Tb0 2.513 1_655 S
O18 C16 1.246 . S
C19 O3 1.245 . S
C19 O4 1.259 . S
Tb20 O23 2.453 1_455 S
Tb20 O24 2.596 . S
Tb20 O25 2.374 . S
Tb20 O33 2.343 . S
Tb20 O35 2.353 . S
Tb20 O37 2.427 . S
Tb20 O38 2.513 . S
C21 O25 1.251 . S
C21 O27 1.263 . S
Tb22 O24 2.343 . S
Tb22 O27 2.353 . S
Tb22 O30 2.427 . S
Tb22 O31 2.513 . S
Tb22 O32 2.453 . S
Tb22 O33 2.596 . S
Tb22 O34 2.374 . S
O23 Tb20 2.453 1_655 S
O23 C39 1.245 . S
O24 Tb20 2.596 . S
O24 Tb22 2.343 . S
O24 C39 1.259 1_455 S
O25 Tb20 2.374 . S
O25 C21 1.251 . S
C26 O30 1.275 . S
C26 O31 1.246 . S
O27 C21 1.263 . S
O27 Tb22 2.353 . S
C28 O32 1.245 . S
C28 O33 1.259 . S
C29 O34 1.250 . S
C29 O35 1.263 . S
O30 Tb22 2.427 . S
O30 C26 1.275 . S
O31 Tb22 2.513 . S
O31 C26 1.246 . S
O32 Tb22 2.453 . S
O32 C28 1.245 . S
O33 Tb20 2.343 . S
O33 Tb22 2.596 . S
O33 C28 1.259 . S
O34 Tb22 2.374 . S
O34 C29 1.250 . S
O35 Tb20 2.353 . S
O35 C29 1.263 . S
C36 O37 1.275 . S
C36 O38 1.246 . S
O37 Tb20 2.427 . S
O37 C36 1.275 . S
O38 Tb20 2.513 . S
O38 C36 1.246 . S
C39 O23 1.245 . S
C39 O24 1.259 1_655 S
Tb40 O43 2.453 . S
Tb40 O44 2.596 . S
Tb40 O45 2.374 . S
Tb40 O53 2.343 1_455 S
Tb40 O55 2.353 . S
Tb40 O57 2.427 1_455 S
Tb40 O58 2.513 1_455 S
C41 O45 1.251 . S
C41 O47 1.263 1_455 S
Tb42 O44 2.343 1_655 S
Tb42 O47 2.353 . S
Tb42 O50 2.427 1_655 S
Tb42 O51 2.513 1_655 S
Tb42 O52 2.453 . S
Tb42 O53 2.596 . S
Tb42 O54 2.374 . S
O43 Tb40 2.453 . S
O43 C59 1.245 . S
O44 Tb40 2.596 . S
O44 Tb42 2.343 1_455 S
O44 C59 1.259 . S
O45 Tb40 2.374 . S
O45 C41 1.251 . S
C46 O50 1.275 . S
C46 O51 1.246 . S
O47 C41 1.263 1_655 S
O47 Tb42 2.353 . S
C48 O52 1.245 . S
C48 O53 1.259 . S
C49 O54 1.250 . S
C49 O55 1.263 1_655 S
O50 Tb42 2.427 1_455 S
O50 C46 1.275 . S
O51 Tb42 2.513 1_455 S
O51 C46 1.246 . S
O52 Tb42 2.453 . S
O52 C48 1.245 . S
O53 Tb40 2.343 1_655 S
O53 Tb42 2.596 . S
O53 C48 1.259 . S
O54 Tb42 2.374 . S
O54 C49 1.250 . S
O55 Tb40 2.353 . S
O55 C49 1.263 1_455 S
C56 O57 1.275 . S
C56 O58 1.246 . S
O57 Tb40 2.427 1_655 S
O57 C56 1.275 . S
O58 Tb40 2.513 1_655 S
O58 C56 1.246 . S
C59 O43 1.245 . S
C59 O44 1.259 . S
Tb60 O63 2.453 1_455 S
Tb60 O64 2.596 . S
Tb60 O65 2.374 . S
Tb60 O73 2.343 . S
Tb60 O75 2.353 . S
Tb60 O77 2.427 . S
Tb60 O78 2.513 . S
C61 O65 1.251 . S
C61 O67 1.263 . S
Tb62 O64 2.343 . S
Tb62 O67 2.353 . S
Tb62 O70 2.427 . S
Tb62 O71 2.513 . S
Tb62 O72 2.453 . S
Tb62 O73 2.596 . S
Tb62 O74 2.374 . S
O63 Tb60 2.453 1_655 S
O63 C79 1.245 . S
O64 Tb60 2.596 . S
O64 Tb62 2.343 . S
O64 C79 1.259 1_455 S
O65 Tb60 2.374 . S
O65 C61 1.251 . S
C66 O70 1.275 . S
C66 O71 1.246 . S
O67 C61 1.263 . S
O67 Tb62 2.353 . S
C68 O72 1.245 . S
C68 O73 1.259 . S
C69 O74 1.250 . S
C69 O75 1.263 . S
O70 Tb62 2.427 . S
O70 C66 1.275 . S
O71 Tb62 2.513 . S
O71 C66 1.246 . S
O72 Tb62 2.453 . S
O72 C68 1.245 . S
O73 Tb60 2.343 . S
O73 Tb62 2.596 . S
O73 C68 1.259 . S
O74 Tb62 2.374 . S
O74 C69 1.250 . S
O75 Tb60 2.353 . S
O75 C69 1.263 . S
C76 O77 1.275 . S
C76 O78 1.246 . S
O77 Tb60 2.427 . S
O77 C76 1.275 . S
O78 Tb60 2.513 . S
O78 C76 1.246 . S
C79 O63 1.245 . S
C79 O64 1.259 1_655 S
Tb80 O83 2.453 . S
Tb80 O84 2.596 . S
Tb80 O85 2.374 . S
Tb80 O93 2.343 1_455 S
Tb80 O95 2.353 . S
Tb80 O97 2.427 1_455 S
Tb80 O98 2.513 1_455 S
C81 O85 1.251 . S
C81 O87 1.263 1_455 S
Tb82 O84 2.343 1_655 S
Tb82 O87 2.353 . S
Tb82 O90 2.427 1_655 S
Tb82 O91 2.513 1_655 S
Tb82 O92 2.453 . S
Tb82 O93 2.596 . S
Tb82 O94 2.374 . S
O83 Tb80 2.453 . S
O83 C99 1.245 . S
O84 Tb80 2.596 . S
O84 Tb82 2.343 1_455 S
O84 C99 1.259 . S
O85 Tb80 2.374 . S
O85 C81 1.251 . S
C86 O90 1.275 . S
C86 O91 1.246 . S
O87 C81 1.263 1_655 S
O87 Tb82 2.353 . S
C88 O92 1.245 . S
C88 O93 1.259 . S
C89 O94 1.250 . S
C89 O95 1.263 1_655 S
O90 Tb82 2.427 1_455 S
O90 C86 1.275 . S
O91 Tb82 2.513 1_455 S
O91 C86 1.246 . S
O92 Tb82 2.453 . S
O92 C88 1.245 . S
O93 Tb80 2.343 1_655 S
O93 Tb82 2.596 . S
O93 C88 1.259 . S
O94 Tb82 2.374 . S
O94 C89 1.250 . S
O95 Tb80 2.353 . S
O95 C89 1.263 1_455 S
C96 O97 1.275 . S
C96 O98 1.246 . S
O97 Tb80 2.427 1_655 S
O97 C96 1.275 . S
O98 Tb80 2.513 1_655 S
O98 C96 1.246 . S
C99 O83 1.245 . S
C99 O84 1.259 . S
Tb100 O103 2.453 . S
Tb100 O104 2.596 . S
Tb100 O105 2.374 . S
Tb100 O113 2.343 . S
Tb100 O115 2.353 . S
Tb100 O117 2.427 . S
Tb100 O118 2.513 . S
C101 O105 1.251 . S
C101 O107 1.263 . S
Tb102 O104 2.343 . S
Tb102 O107 2.353 . S
Tb102 O110 2.427 . S
Tb102 O111 2.513 . S
Tb102 O112 2.453 1_655 S
Tb102 O113 2.596 . S
Tb102 O114 2.374 . S
O103 Tb100 2.453 . S
O103 C119 1.245 . S
O104 Tb100 2.596 . S
O104 Tb102 2.343 . S
O104 C119 1.259 . S
O105 Tb100 2.374 . S
O105 C101 1.251 . S
C106 O110 1.275 . S
C106 O111 1.246 . S
O107 C101 1.263 . S
O107 Tb102 2.353 . S
C108 O112 1.245 . S
C108 O113 1.259 1_455 S
C109 O114 1.250 . S
C109 O115 1.263 . S
O110 Tb102 2.427 . S
O110 C106 1.275 . S
O111 Tb102 2.513 . S
O111 C106 1.246 . S
O112 Tb102 2.453 1_455 S
O112 C108 1.245 . S
O113 Tb100 2.343 . S
O113 Tb102 2.596 . S
O113 C108 1.259 1_655 S
O114 Tb102 2.374 . S
O114 C109 1.250 . S
O115 Tb100 2.353 . S
O115 C109 1.263 . S
C116 O117 1.275 . S
C116 O118 1.246 . S
O117 Tb100 2.427 . S
O117 C116 1.275 . S
O118 Tb100 2.513 . S
O118 C116 1.246 . S
C119 O103 1.245 . S
C119 O104 1.259 . S
Tb120 O123 2.453 . S
Tb120 O124 2.596 . S
Tb120 O125 2.374 . S
Tb120 O133 2.343 1_455 S
Tb120 O135 2.353 . S
Tb120 O137 2.427 1_455 S
Tb120 O138 2.513 1_455 S
C121 O125 1.251 . S
C121 O127 1.263 1_455 S
Tb122 O124 2.343 1_655 S
Tb122 O127 2.353 . S
Tb122 O130 2.427 1_655 S
Tb122 O131 2.513 1_655 S
Tb122 O132 2.453 . S
Tb122 O133 2.596 . S
Tb122 O134 2.374 . S
O123 Tb120 2.453 . S
O123 C139 1.245 . S
O124 Tb120 2.596 . S
O124 Tb122 2.343 1_455 S
O124 C139 1.259 . S
O125 Tb120 2.374 . S
O125 C121 1.251 . S
C126 O130 1.275 . S
C126 O131 1.246 . S
O127 C121 1.263 1_655 S
O127 Tb122 2.353 . S
C128 O132 1.245 . S
C128 O133 1.259 . S
C129 O134 1.250 . S
C129 O135 1.263 1_655 S
O130 Tb122 2.427 1_455 S
O130 C126 1.275 . S
O131 Tb122 2.513 1_455 S
O131 C126 1.246 . S
O132 Tb122 2.453 . S
O132 C128 1.245 . S
O133 Tb120 2.343 1_655 S
O133 Tb122 2.596 . S
O133 C128 1.259 . S
O134 Tb122 2.374 . S
O134 C129 1.250 . S
O135 Tb120 2.353 . S
O135 C129 1.263 1_455 S
C136 O137 1.275 . S
C136 O138 1.246 . S
O137 Tb120 2.427 1_655 S
O137 C136 1.275 . S
O138 Tb120 2.513 1_655 S
O138 C136 1.246 . S
C139 O123 1.245 . S
C139 O124 1.259 . S
Tb140 O143 2.453 . S
Tb140 O144 2.596 . S
Tb140 O145 2.374 . S
Tb140 O153 2.343 . S
Tb140 O155 2.353 . S
Tb140 O157 2.427 . S
Tb140 O158 2.513 . S
C141 O145 1.251 . S
C141 O147 1.263 . S
Tb142 O144 2.343 . S
Tb142 O147 2.353 . S
Tb142 O150 2.427 . S
Tb142 O151 2.513 . S
Tb142 O152 2.453 1_655 S
Tb142 O153 2.596 . S
Tb142 O154 2.374 . S
O143 Tb140 2.453 . S
O143 C159 1.245 . S
O144 Tb140 2.596 . S
O144 Tb142 2.343 . S
O144 C159 1.259 . S
O145 Tb140 2.374 . S
O145 C141 1.251 . S
C146 O150 1.275 . S
C146 O151 1.246 . S
O147 C141 1.263 . S
O147 Tb142 2.353 . S
C148 O152 1.245 . S
C148 O153 1.259 1_455 S
C149 O154 1.250 . S
C149 O155 1.263 . S
O150 Tb142 2.427 . S
O150 C146 1.275 . S
O151 Tb142 2.513 . S
O151 C146 1.246 . S
O152 Tb142 2.453 1_455 S
O152 C148 1.245 . S
O153 Tb140 2.343 . S
O153 Tb142 2.596 . S
O153 C148 1.259 1_655 S
O154 Tb142 2.374 . S
O154 C149 1.250 . S
O155 Tb140 2.353 . S
O155 C149 1.263 . S
C156 O157 1.275 . S
C156 O158 1.246 . S
O157 Tb140 2.427 . S
O157 C156 1.275 . S
O158 Tb140 2.513 . S
O158 C156 1.246 . S
C159 O143 1.245 . S
C159 O144 1.259 . S
Tb160 O163 2.453 . S
Tb160 O164 2.596 1_565 S
Tb160 O165 2.374 . S
Tb160 O173 2.343 1_455 S
Tb160 O175 2.353 . S
Tb160 O177 2.427 1_455 S
Tb160 O178 2.513 1_455 S
C161 O165 1.251 . S
C161 O167 1.263 1_465 S
Tb162 O164 2.343 1_655 S
Tb162 O167 2.353 . S
Tb162 O170 2.427 1_655 S
Tb162 O171 2.513 1_655 S
Tb162 O172 2.453 . S
Tb162 O173 2.596 1_545 S
Tb162 O174 2.374 . S
O163 Tb160 2.453 . S
O163 C179 1.245 1_565 S
O164 Tb160 2.596 1_545 S
O164 Tb162 2.343 1_455 S
O164 C179 1.259 . S
O165 Tb160 2.374 . S
O165 C161 1.251 . S
C166 O170 1.275 . S
C166 O171 1.246 . S
O167 C161 1.263 1_645 S
O167 Tb162 2.353 . S
C168 O172 1.245 1_565 S
C168 O173 1.259 . S
C169 O174 1.250 . S
C169 O175 1.263 1_645 S
O170 Tb162 2.427 1_455 S
O170 C166 1.275 . S
O171 Tb162 2.513 1_455 S
O171 C166 1.246 . S
O172 Tb162 2.453 . S
O172 C168 1.245 1_545 S
O173 Tb160 2.343 1_655 S
O173 Tb162 2.596 1_565 S
O173 C168 1.259 . S
O174 Tb162 2.374 . S
O174 C169 1.250 . S
O175 Tb160 2.353 . S
O175 C169 1.263 1_465 S
C176 O177 1.275 . S
C176 O178 1.246 . S
O177 Tb160 2.427 1_655 S
O177 C176 1.275 . S
O178 Tb160 2.513 1_655 S
O178 C176 1.246 . S
C179 O163 1.245 1_545 S
C179 O164 1.259 . S
Tb180 O183 2.453 1_455 S
Tb180 O184 2.596 . S
Tb180 O185 2.374 . S
Tb180 O193 2.343 . S
Tb180 O195 2.353 . S
Tb180 O197 2.427 . S
Tb180 O198 2.513 . S
C181 O185 1.251 . S
C181 O187 1.263 . S
Tb182 O184 2.343 . S
Tb182 O187 2.353 . S
Tb182 O190 2.427 . S
Tb182 O191 2.513 . S
Tb182 O192 2.453 . S
Tb182 O193 2.596 . S
Tb182 O194 2.374 . S
O183 Tb180 2.453 1_655 S
O183 C199 1.245 . S
O184 Tb180 2.596 . S
O184 Tb182 2.343 . S
O184 C199 1.259 1_455 S
O185 Tb180 2.374 . S
O185 C181 1.251 . S
C186 O190 1.275 . S
C186 O191 1.246 . S
O187 C181 1.263 . S
O187 Tb182 2.353 . S
C188 O192 1.245 . S
C188 O193 1.259 . S
C189 O194 1.250 . S
C189 O195 1.263 . S
O190 Tb182 2.427 . S
O190 C186 1.275 . S
O191 Tb182 2.513 . S
O191 C186 1.246 . S
O192 Tb182 2.453 . S
O192 C188 1.245 . S
O193 Tb180 2.343 . S
O193 Tb182 2.596 . S
O193 C188 1.259 . S
O194 Tb182 2.374 . S
O194 C189 1.250 . S
O195 Tb180 2.353 . S
O195 C189 1.263 . S
C196 O197 1.275 . S
C196 O198 1.246 . S
O197 Tb180 2.427 . S
O197 C196 1.275 . S
O198 Tb180 2.513 . S
O198 C196 1.246 . S
C199 O183 1.245 . S
C199 O184 1.259 1_655 S
Tb200 O203 2.453 . S
Tb200 O204 2.596 . S
Tb200 O205 2.374 . S
Tb200 O213 2.343 1_455 S
Tb200 O215 2.353 . S
Tb200 O217 2.427 1_455 S
Tb200 O218 2.513 1_455 S
C201 O205 1.251 . S
C201 O207 1.263 1_455 S
Tb202 O204 2.343 1_655 S
Tb202 O207 2.353 . S
Tb202 O210 2.427 1_655 S
Tb202 O211 2.513 1_655 S
Tb202 O212 2.453 . S
Tb202 O213 2.596 . S
Tb202 O214 2.374 . S
O203 Tb200 2.453 . S
O203 C219 1.245 . S
O204 Tb200 2.596 . S
O204 Tb202 2.343 1_455 S
O204 C219 1.259 . S
O205 Tb200 2.374 . S
O205 C201 1.251 . S
C206 O210 1.275 . S
C206 O211 1.246 . S
O207 C201 1.263 1_655 S
O207 Tb202 2.353 . S
C208 O212 1.245 . S
C208 O213 1.259 . S
C209 O214 1.250 . S
C209 O215 1.263 1_655 S
O210 Tb202 2.427 1_455 S
O210 C206 1.275 . S
O211 Tb202 2.513 1_455 S
O211 C206 1.246 . S
O212 Tb202 2.453 . S
O212 C208 1.245 . S
O213 Tb200 2.343 1_655 S
O213 Tb202 2.596 . S
O213 C208 1.259 . S
O214 Tb202 2.374 . S
O214 C209 1.250 . S
O215 Tb200 2.353 . S
O215 C209 1.263 1_455 S
C216 O217 1.275 . S
C216 O218 1.246 . S
O217 Tb200 2.427 1_655 S
O217 C216 1.275 . S
O218 Tb200 2.513 1_655 S
O218 C216 1.246 . S
C219 O203 1.245 . S
C219 O204 1.259 . S
Tb220 O223 2.453 1_455 S
Tb220 O224 2.596 1_565 S
Tb220 O225 2.374 . S
Tb220 O233 2.343 . S
Tb220 O235 2.353 . S
Tb220 O237 2.427 . S
Tb220 O238 2.513 . S
C221 O225 1.251 . S
C221 O227 1.263 1_565 S
Tb222 O224 2.343 . S
Tb222 O227 2.353 . S
Tb222 O230 2.427 . S
Tb222 O231 2.513 . S
Tb222 O232 2.453 . S
Tb222 O233 2.596 1_545 S
Tb222 O234 2.374 . S
O223 Tb220 2.453 1_655 S
O223 C239 1.245 1_565 S
O224 Tb220 2.596 1_545 S
O224 Tb222 2.343 . S
O224 C239 1.259 1_455 S
O225 Tb220 2.374 . S
O225 C221 1.251 . S
C226 O230 1.275 . S
C226 O231 1.246 . S
O227 C221 1.263 1_545 S
O227 Tb222 2.353 . S
C228 O232 1.245 1_565 S
C228 O233 1.259 . S
C229 O234 1.250 . S
C229 O235 1.263 1_545 S
O230 Tb222 2.427 . S
O230 C226 1.275 . S
O231 Tb222 2.513 . S
O231 C226 1.246 . S
O232 Tb222 2.453 . S
O232 C228 1.245 1_545 S
O233 Tb220 2.343 . S
O233 Tb222 2.596 1_565 S
O233 C228 1.259 . S
O234 Tb222 2.374 . S
O234 C229 1.250 . S
O235 Tb220 2.353 . S
O235 C229 1.263 1_565 S
C236 O237 1.275 . S
C236 O238 1.246 . S
O237 Tb220 2.427 . S
O237 C236 1.275 . S
O238 Tb220 2.513 . S
O238 C236 1.246 . S
C239 O223 1.245 1_545 S
C239 O224 1.259 1_655 S
Tb240 O243 2.453 . S
Tb240 O244 2.596 1_565 S
Tb240 O245 2.374 . S
Tb240 O253 2.343 1_455 S
Tb240 O255 2.353 . S
Tb240 O257 2.427 1_455 S
Tb240 O258 2.513 1_455 S
C241 O245 1.251 . S
C241 O247 1.263 1_465 S
Tb242 O244 2.343 1_655 S
Tb242 O247 2.353 . S
Tb242 O250 2.427 1_655 S
Tb242 O251 2.513 1_655 S
Tb242 O252 2.453 . S
Tb242 O253 2.596 1_545 S
Tb242 O254 2.374 . S
O243 Tb240 2.453 . S
O243 C259 1.245 1_565 S
O244 Tb240 2.596 1_545 S
O244 Tb242 2.343 1_455 S
O244 C259 1.259 . S
O245 Tb240 2.374 . S
O245 C241 1.251 . S
C246 O250 1.275 . S
C246 O251 1.246 . S
O247 C241 1.263 1_645 S
O247 Tb242 2.353 . S
C248 O252 1.245 1_565 S
C248 O253 1.259 . S
C249 O254 1.250 . S
C249 O255 1.263 1_645 S
O250 Tb242 2.427 1_455 S
O250 C246 1.275 . S
O251 Tb242 2.513 1_455 S
O251 C246 1.246 . S
O252 Tb242 2.453 . S
O252 C248 1.245 1_545 S
O253 Tb240 2.343 1_655 S
O253 Tb242 2.596 1_565 S
O253 C248 1.259 . S
O254 Tb242 2.374 . S
O254 C249 1.250 . S
O255 Tb240 2.353 . S
O255 C249 1.263 1_465 S
C256 O257 1.275 . S
C256 O258 1.246 . S
O257 Tb240 2.427 1_655 S
O257 C256 1.275 . S
O258 Tb240 2.513 1_655 S
O258 C256 1.246 . S
C259 O243 1.245 1_545 S
C259 O244 1.259 . S
Tb260 O263 2.453 . S
Tb260 O264 2.596 . S
Tb260 O265 2.374 . S
Tb260 O273 2.343 . S
Tb260 O275 2.353 . S
Tb260 O277 2.427 . S
Tb260 O278 2.513 . S
C261 O265 1.251 . S
C261 O267 1.263 . S
Tb262 O264 2.343 . S
Tb262 O267 2.353 . S
Tb262 O270 2.427 . S
Tb262 O271 2.513 . S
Tb262 O272 2.453 1_655 S
Tb262 O273 2.596 . S
Tb262 O274 2.374 . S
O263 Tb260 2.453 . S
O263 C279 1.245 . S
O264 Tb260 2.596 . S
O264 Tb262 2.343 . S
O264 C279 1.259 . S
O265 Tb260 2.374 . S
O265 C261 1.251 . S
C266 O270 1.275 . S
C266 O271 1.246 . S
O267 C261 1.263 . S
O267 Tb262 2.353 . S
C268 O272 1.245 . S
C268 O273 1.259 1_455 S
C269 O274 1.250 . S
C269 O275 1.263 . S
O270 Tb262 2.427 . S
O270 C266 1.275 . S
O271 Tb262 2.513 . S
O271 C266 1.246 . S
O272 Tb262 2.453 1_455 S
O272 C268 1.245 . S
O273 Tb260 2.343 . S
O273 Tb262 2.596 . S
O273 C268 1.259 1_655 S
O274 Tb262 2.374 . S
O274 C269 1.250 . S
O275 Tb260 2.353 . S
O275 C269 1.263 . S
C276 O277 1.275 . S
C276 O278 1.246 . S
O277 Tb260 2.427 . S
O277 C276 1.275 . S
O278 Tb260 2.513 . S
O278 C276 1.246 . S
C279 O263 1.245 . S
C279 O264 1.259 . S
Tb280 O283 2.453 . S
Tb280 O284 2.596 . S
Tb280 O285 2.374 . S
Tb280 O293 2.343 1_455 S
Tb280 O295 2.353 . S
Tb280 O297 2.427 1_455 S
Tb280 O298 2.513 1_455 S
C281 O285 1.251 . S
C281 O287 1.263 1_455 S
Tb282 O284 2.343 1_655 S
Tb282 O287 2.353 . S
Tb282 O290 2.427 1_655 S
Tb282 O291 2.513 1_655 S
Tb282 O292 2.453 . S
Tb282 O293 2.596 . S
Tb282 O294 2.374 . S
O283 Tb280 2.453 . S
O283 C299 1.245 . S
O284 Tb280 2.596 . S
O284 Tb282 2.343 1_455 S
O284 C299 1.259 . S
O285 Tb280 2.374 . S
O285 C281 1.251 . S
C286 O290 1.275 . S
C286 O291 1.246 . S
O287 C281 1.263 1_655 S
O287 Tb282 2.353 . S
C288 O292 1.245 . S
C288 O293 1.259 . S
C289 O294 1.250 . S
C289 O295 1.263 1_655 S
O290 Tb282 2.427 1_455 S
O290 C286 1.275 . S
O291 Tb282 2.513 1_455 S
O291 C286 1.246 . S
O292 Tb282 2.453 . S
O292 C288 1.245 . S
O293 Tb280 2.343 1_655 S
O293 Tb282 2.596 . S
O293 C288 1.259 . S
O294 Tb282 2.374 . S
O294 C289 1.250 . S
O295 Tb280 2.353 . S
O295 C289 1.263 1_455 S
C296 O297 1.275 . S
C296 O298 1.246 . S
O297 Tb280 2.427 1_655 S
O297 C296 1.275 . S
O298 Tb280 2.513 1_655 S
O298 C296 1.246 . S
C299 O283 1.245 . S
C299 O284 1.259 . S
Tb300 O303 2.453 . S
Tb300 O304 2.596 1_565 S
Tb300 O305 2.374 . S
Tb300 O313 2.343 . S
Tb300 O315 2.353 . S
Tb300 O317 2.427 . S
Tb300 O318 2.513 . S
C301 O305 1.251 . S
C301 O307 1.263 1_565 S
Tb302 O304 2.343 . S
Tb302 O307 2.353 . S
Tb302 O310 2.427 . S
Tb302 O311 2.513 . S
Tb302 O312 2.453 1_655 S
Tb302 O313 2.596 1_545 S
Tb302 O314 2.374 . S
O303 Tb300 2.453 . S
O303 C319 1.245 1_565 S
O304 Tb300 2.596 1_545 S
O304 Tb302 2.343 . S
O304 C319 1.259 . S
O305 Tb300 2.374 . S
O305 C301 1.251 . S
C306 O310 1.275 . S
C306 O311 1.246 . S
O307 C301 1.263 1_545 S
O307 Tb302 2.353 . S
C308 O312 1.245 1_565 S
C308 O313 1.259 1_455 S
C309 O314 1.250 . S
C309 O315 1.263 1_545 S
O310 Tb302 2.427 . S
O310 C306 1.275 . S
O311 Tb302 2.513 . S
O311 C306 1.246 . S
O312 Tb302 2.453 1_455 S
O312 C308 1.245 1_545 S
O313 Tb300 2.343 . S
O313 Tb302 2.596 1_565 S
O313 C308 1.259 1_655 S
O314 Tb302 2.374 . S
O314 C309 1.250 . S
O315 Tb300 2.353 . S
O315 C309 1.263 1_565 S
C316 O317 1.275 . S
C316 O318 1.246 . S
O317 Tb300 2.427 . S
O317 C316 1.275 . S
O318 Tb300 2.513 . S
O318 C316 1.246 . S
C319 O303 1.245 1_545 S
C319 O304 1.259 . S
Tb320 O323 2.453 . S
Tb320 O324 2.596 . S
Tb320 O325 2.374 . S
Tb320 O333 2.343 . S
Tb320 O335 2.353 . S
Tb320 O337 2.427 . S
Tb320 O338 2.513 . S
C321 O325 1.251 . S
C321 O327 1.263 . S
Tb322 O324 2.343 . S
Tb322 O327 2.353 . S
Tb322 O330 2.427 . S
Tb322 O331 2.513 . S
Tb322 O332 2.453 . S
Tb322 O333 2.596 . S
Tb322 O334 2.374 . S
O323 Tb320 2.453 . S
O323 C339 1.245 . S
O324 Tb320 2.596 . S
O324 Tb322 2.343 . S
O324 C339 1.259 . S
O325 Tb320 2.374 . S
O325 C321 1.251 . S
C326 O330 1.275 . S
C326 O331 1.246 . S
O327 C321 1.263 . S
O327 Tb322 2.353 . S
C328 O332 1.245 . S
C328 O333 1.259 . S
C329 O334 1.250 . S
C329 O335 1.263 . S
O330 Tb322 2.427 . S
O330 C326 1.275 . S
O331 Tb322 2.513 . S
O331 C326 1.246 . S
O332 Tb322 2.453 . S
O332 C328 1.245 . S
O333 Tb320 2.343 . S
O333 Tb322 2.596 . S
O333 C328 1.259 . S
O334 Tb322 2.374 . S
O334 C329 1.250 . S
O335 Tb320 2.353 . S
O335 C329 1.263 . S
C336 O337 1.275 . S
C336 O338 1.246 . S
O337 Tb320 2.427 . S
O337 C336 1.275 . S
O338 Tb320 2.513 . S
O338 C336 1.246 . S
C339 O323 1.245 . S
C339 O324 1.259 . S
Tb340 O343 2.453 . S
Tb340 O344 2.596 . S
Tb340 O345 2.374 . S
Tb340 O353 2.343 . S
Tb340 O355 2.353 . S
Tb340 O357 2.427 . S
Tb340 O358 2.513 . S
C341 O345 1.251 . S
C341 O347 1.263 . S
Tb342 O344 2.343 . S
Tb342 O347 2.353 . S
Tb342 O350 2.427 . S
Tb342 O351 2.513 . S
Tb342 O352 2.453 1_655 S
Tb342 O353 2.596 . S
Tb342 O354 2.374 . S
O343 Tb340 2.453 . S
O343 C359 1.245 . S
O344 Tb340 2.596 . S
O344 Tb342 2.343 . S
O344 C359 1.259 . S
O345 Tb340 2.374 . S
O345 C341 1.251 . S
C346 O350 1.275 . S
C346 O351 1.246 . S
O347 C341 1.263 . S
O347 Tb342 2.353 . S
C348 O352 1.245 . S
C348 O353 1.259 1_455 S
C349 O354 1.250 . S
C349 O355 1.263 . S
O350 Tb342 2.427 . S
O350 C346 1.275 . S
O351 Tb342 2.513 . S
O351 C346 1.246 . S
O352 Tb342 2.453 1_455 S
O352 C348 1.245 . S
O353 Tb340 2.343 . S
O353 Tb342 2.596 . S
O353 C348 1.259 1_655 S
O354 Tb342 2.374 . S
O354 C349 1.250 . S
O355 Tb340 2.353 . S
O355 C349 1.263 . S
C356 O357 1.275 . S
C356 O358 1.246 . S
O357 Tb340 2.427 . S
O357 C356 1.275 . S
O358 Tb340 2.513 . S
O358 C356 1.246 . S
C359 O343 1.245 . S
C359 O344 1.259 . S
Tb360 O363 2.453 . S
Tb360 O364 2.596 . S
Tb360 O365 2.374 . S
Tb360 O373 2.343 . S
Tb360 O375 2.353 . S
Tb360 O377 2.427 . S
Tb360 O378 2.513 . S
C361 O365 1.251 . S
C361 O367 1.263 . S
Tb362 O364 2.343 . S
Tb362 O367 2.353 . S
Tb362 O370 2.427 . S
Tb362 O371 2.513 . S
Tb362 O372 2.453 . S
Tb362 O373 2.596 . S
Tb362 O374 2.374 . S
O363 Tb360 2.453 . S
O363 C379 1.245 . S
O364 Tb360 2.596 . S
O364 Tb362 2.343 . S
O364 C379 1.259 . S
O365 Tb360 2.374 . S
O365 C361 1.251 . S
C366 O370 1.275 . S
C366 O371 1.246 . S
O367 C361 1.263 . S
O367 Tb362 2.353 . S
C368 O372 1.245 . S
C368 O373 1.259 . S
C369 O374 1.250 . S
C369 O375 1.263 . S
O370 Tb362 2.427 . S
O370 C366 1.275 . S
O371 Tb362 2.513 . S
O371 C366 1.246 . S
O372 Tb362 2.453 . S
O372 C368 1.245 . S
O373 Tb360 2.343 . S
O373 Tb362 2.596 . S
O373 C368 1.259 . S
O374 Tb362 2.374 . S
O374 C369 1.250 . S
O375 Tb360 2.353 . S
O375 C369 1.263 . S
C376 O377 1.275 . S
C376 O378 1.246 . S
O377 Tb360 2.427 . S
O377 C376 1.275 . S
O378 Tb360 2.513 . S
O378 C376 1.246 . S
C379 O363 1.245 . S
C379 O364 1.259 . S
Tb380 O383 2.453 . S
Tb380 O384 2.596 . S
Tb380 O385 2.374 . S
Tb380 O393 2.343 . S
Tb380 O395 2.353 . S
Tb380 O397 2.427 . S
Tb380 O398 2.513 . S
C381 O385 1.251 . S
C381 O387 1.263 . S
Tb382 O384 2.343 . S
Tb382 O387 2.353 . S
Tb382 O390 2.427 . S
Tb382 O391 2.513 . S
Tb382 O392 2.453 1_655 S
Tb382 O393 2.596 . S
Tb382 O394 2.374 . S
O383 Tb380 2.453 . S
O383 C399 1.245 . S
O384 Tb380 2.596 . S
O384 Tb382 2.343 . S
O384 C399 1.259 . S
O385 Tb380 2.374 . S
O385 C381 1.251 . S
C386 O390 1.275 . S
C386 O391 1.246 . S
O387 C381 1.263 . S
O387 Tb382 2.353 . S
C388 O392 1.245 . S
C388 O393 1.259 1_455 S
C389 O394 1.250 . S
C389 O395 1.263 . S
O390 Tb382 2.427 . S
O390 C386 1.275 . S
O391 Tb382 2.513 . S
O391 C386 1.246 . S
O392 Tb382 2.453 1_455 S
O392 C388 1.245 . S
O393 Tb380 2.343 . S
O393 Tb382 2.596 . S
O393 C388 1.259 1_655 S
O394 Tb382 2.374 . S
O394 C389 1.250 . S
O395 Tb380 2.353 . S
O395 C389 1.263 . S
C396 O397 1.275 . S
C396 O398 1.246 . S
O397 Tb380 2.427 . S
O397 C396 1.275 . S
O398 Tb380 2.513 . S
O398 C396 1.246 . S
C399 O383 1.245 . S
C399 O384 1.259 . S
Tb400 O403 2.453 . S
Tb400 O404 2.596 . S
Tb400 O405 2.374 . S
Tb400 O413 2.343 . S
Tb400 O415 2.353 . S
Tb400 O417 2.427 . S
Tb400 O418 2.513 . S
C401 O405 1.251 . S
C401 O407 1.263 . S
Tb402 O404 2.343 . S
Tb402 O407 2.353 . S
Tb402 O410 2.427 . S
Tb402 O411 2.513 . S
Tb402 O412 2.453 . S
Tb402 O413 2.596 . S
Tb402 O414 2.374 . S
O403 Tb400 2.453 . S
O403 C419 1.245 . S
O404 Tb400 2.596 . S
O404 Tb402 2.343 . S
O404 C419 1.259 . S
O405 Tb400 2.374 . S
O405 C401 1.251 . S
C406 O410 1.275 . S
C406 O411 1.246 . S
O407 C401 1.263 . S
O407 Tb402 2.353 . S
C408 O412 1.245 . S
C408 O413 1.259 . S
C409 O414 1.250 . S
C409 O415 1.263 . S
O410 Tb402 2.427 . S
O410 C406 1.275 . S
O411 Tb402 2.513 . S
O411 C406 1.246 . S
O412 Tb402 2.453 . S
O412 C408 1.245 . S
O413 Tb400 2.343 . S
O413 Tb402 2.596 . S
O413 C408 1.259 . S
O414 Tb402 2.374 . S
O414 C409 1.250 . S
O415 Tb400 2.353 . S
O415 C409 1.263 . S
C416 O417 1.275 . S
C416 O418 1.246 . S
O417 Tb400 2.427 . S
O417 C416 1.275 . S
O418 Tb400 2.513 . S
O418 C416 1.246 . S
C419 O403 1.245 . S
C419 O404 1.259 . S
Tb420 O423 2.453 1_455 S
Tb420 O424 2.596 . S
Tb420 O425 2.374 . S
Tb420 O433 2.343 . S
Tb420 O435 2.353 . S
Tb420 O437 2.427 . S
Tb420 O438 2.513 . S
C421 O425 1.251 . S
C421 O427 1.263 . S
Tb422 O424 2.343 . S
Tb422 O427 2.353 . S
Tb422 O430 2.427 . S
Tb422 O431 2.513 . S
Tb422 O432 2.453 . S
Tb422 O433 2.596 . S
Tb422 O434 2.374 . S
O423 Tb420 2.453 1_655 S
O423 C439 1.245 . S
O424 Tb420 2.596 . S
O424 Tb422 2.343 . S
O424 C439 1.259 1_455 S
O425 Tb420 2.374 . S
O425 C421 1.251 . S
C426 O430 1.275 . S
C426 O431 1.246 . S
O427 C421 1.263 . S
O427 Tb422 2.353 . S
C428 O432 1.245 . S
C428 O433 1.259 . S
C429 O434 1.250 . S
C429 O435 1.263 . S
O430 Tb422 2.427 . S
O430 C426 1.275 . S
O431 Tb422 2.513 . S
O431 C426 1.246 . S
O432 Tb422 2.453 . S
O432 C428 1.245 . S
O433 Tb420 2.343 . S
O433 Tb422 2.596 . S
O433 C428 1.259 . S
O434 Tb422 2.374 . S
O434 C429 1.250 . S
O435 Tb420 2.353 . S
O435 C429 1.263 . S
C436 O437 1.275 . S
C436 O438 1.246 . S
O437 Tb420 2.427 . S
O437 C436 1.275 . S
O438 Tb420 2.513 . S
O438 C436 1.246 . S
C439 O423 1.245 . S
C439 O424 1.259 1_655 S
Tb440 O443 2.453 . S
Tb440 O444 2.596 . S
Tb440 O445 2.374 . S
Tb440 O453 2.343 . S
Tb440 O455 2.353 . S
Tb440 O457 2.427 . S
Tb440 O458 2.513 . S
C441 O445 1.251 . S
C441 O447 1.263 . S
Tb442 O444 2.343 . S
Tb442 O447 2.353 . S
Tb442 O450 2.427 . S
Tb442 O451 2.513 . S
Tb442 O452 2.453 . S
Tb442 O453 2.596 . S
Tb442 O454 2.374 . S
O443 Tb440 2.453 . S
O443 C459 1.245 . S
O444 Tb440 2.596 . S
O444 Tb442 2.343 . S
O444 C459 1.259 . S
O445 Tb440 2.374 . S
O445 C441 1.251 . S
C446 O450 1.275 . S
C446 O451 1.246 . S
O447 C441 1.263 . S
O447 Tb442 2.353 . S
C448 O452 1.245 . S
C448 O453 1.259 . S
C449 O454 1.250 . S
C449 O455 1.263 . S
O450 Tb442 2.427 . S
O450 C446 1.275 . S
O451 Tb442 2.513 . S
O451 C446 1.246 . S
O452 Tb442 2.453 . S
O452 C448 1.245 . S
O453 Tb440 2.343 . S
O453 Tb442 2.596 . S
O453 C448 1.259 . S
O454 Tb442 2.374 . S
O454 C449 1.250 . S
O455 Tb440 2.353 . S
O455 C449 1.263 . S
C456 O457 1.275 . S
C456 O458 1.246 . S
O457 Tb440 2.427 . S
O457 C456 1.275 . S
O458 Tb440 2.513 . S
O458 C456 1.246 . S
C459 O443 1.245 . S
C459 O444 1.259 . S
Tb460 O463 2.453 1_455 S
Tb460 O464 2.596 . S
Tb460 O465 2.374 . S
Tb460 O473 2.343 . S
Tb460 O475 2.353 . S
Tb460 O477 2.427 . S
Tb460 O478 2.513 . S
C461 O465 1.251 . S
C461 O467 1.263 . S
Tb462 O464 2.343 . S
Tb462 O467 2.353 . S
Tb462 O470 2.427 . S
Tb462 O471 2.513 . S
Tb462 O472 2.453 . S
Tb462 O473 2.596 . S
Tb462 O474 2.374 . S
O463 Tb460 2.453 1_655 S
O463 C479 1.245 . S
O464 Tb460 2.596 . S
O464 Tb462 2.343 . S
O464 C479 1.259 1_455 S
O465 Tb460 2.374 . S
O465 C461 1.251 . S
C466 O470 1.275 . S
C466 O471 1.246 . S
O467 C461 1.263 . S
O467 Tb462 2.353 . S
C468 O472 1.245 . S
C468 O473 1.259 . S
C469 O474 1.250 . S
C469 O475 1.263 . S
O470 Tb462 2.427 . S
O470 C466 1.275 . S
O471 Tb462 2.513 . S
O471 C466 1.246 . S
O472 Tb462 2.453 . S
O472 C468 1.245 . S
O473 Tb460 2.343 . S
O473 Tb462 2.596 . S
O473 C468 1.259 . S
O474 Tb462 2.374 . S
O474 C469 1.250 . S
O475 Tb460 2.353 . S
O475 C469 1.263 . S
C476 O477 1.275 . S
C476 O478 1.246 . S
O477 Tb460 2.427 . S
O477 C476 1.275 . S
O478 Tb460 2.513 . S
O478 C476 1.246 . S
C479 O463 1.245 . S
C479 O464 1.259 1_655 S
Tb480 O483 2.453 . S
Tb480 O484 2.596 1_565 S
Tb480 O485 2.374 . S
Tb480 O493 2.343 . S
Tb480 O495 2.353 . S
Tb480 O497 2.427 . S
Tb480 O498 2.513 . S
C481 O485 1.251 . S
C481 O487 1.263 1_565 S
Tb482 O484 2.343 . S
Tb482 O487 2.353 . S
Tb482 O490 2.427 . S
Tb482 O491 2.513 . S
Tb482 O492 2.453 . S
Tb482 O493 2.596 1_545 S
Tb482 O494 2.374 . S
O483 Tb480 2.453 . S
O483 C499 1.245 1_565 S
O484 Tb480 2.596 1_545 S
O484 Tb482 2.343 . S
O484 C499 1.259 . S
O485 Tb480 2.374 . S
O485 C481 1.251 . S
C486 O490 1.275 . S
C486 O491 1.246 . S
O487 C481 1.263 1_545 S
O487 Tb482 2.353 . S
C488 O492 1.245 1_565 S
C488 O493 1.259 . S
C489 O494 1.250 . S
C489 O495 1.263 1_545 S
O490 Tb482 2.427 . S
O490 C486 1.275 . S
O491 Tb482 2.513 . S
O491 C486 1.246 . S
O492 Tb482 2.453 . S
O492 C488 1.245 1_545 S
O493 Tb480 2.343 . S
O493 Tb482 2.596 1_565 S
O493 C488 1.259 . S
O494 Tb482 2.374 . S
O494 C489 1.250 . S
O495 Tb480 2.353 . S
O495 C489 1.263 1_565 S
C496 O497 1.275 . S
C496 O498 1.246 . S
O497 Tb480 2.427 . S
O497 C496 1.275 . S
O498 Tb480 2.513 . S
O498 C496 1.246 . S
C499 O483 1.245 1_545 S
C499 O484 1.259 . S
Tb500 O503 2.453 . S
Tb500 O504 2.596 . S
Tb500 O505 2.374 . S
Tb500 O513 2.343 . S
Tb500 O515 2.353 . S
Tb500 O517 2.427 . S
Tb500 O518 2.513 . S
C501 O505 1.251 . S
C501 O507 1.263 . S
Tb502 O504 2.343 . S
Tb502 O507 2.353 . S
Tb502 O510 2.427 . S
Tb502 O511 2.513 . S
Tb502 O512 2.453 1_655 S
Tb502 O513 2.596 . S
Tb502 O514 2.374 . S
O503 Tb500 2.453 . S
O503 C519 1.245 . S
O504 Tb500 2.596 . S
O504 Tb502 2.343 . S
O504 C519 1.259 . S
O505 Tb500 2.374 . S
O505 C501 1.251 . S
C506 O510 1.275 . S
C506 O511 1.246 . S
O507 C501 1.263 . S
O507 Tb502 2.353 . S
C508 O512 1.245 . S
C508 O513 1.259 1_455 S
C509 O514 1.250 . S
C509 O515 1.263 . S
O510 Tb502 2.427 . S
O510 C506 1.275 . S
O511 Tb502 2.513 . S
O511 C506 1.246 . S
O512 Tb502 2.453 1_455 S
O512 C508 1.245 . S
O513 Tb500 2.343 . S
O513 Tb502 2.596 . S
O513 C508 1.259 1_655 S
O514 Tb502 2.374 . S
O514 C509 1.250 . S
O515 Tb500 2.353 . S
O515 C509 1.263 . S
C516 O517 1.275 . S
C516 O518 1.246 . S
O517 Tb500 2.427 . S
O517 C516 1.275 . S
O518 Tb500 2.513 . S
O518 C516 1.246 . S
C519 O503 1.245 . S
C519 O504 1.259 . S
Tb520 O523 2.453 . S
Tb520 O524 2.596 . S
Tb520 O525 2.374 . S
Tb520 O533 2.343 . S
Tb520 O535 2.353 . S
Tb520 O537 2.427 . S
Tb520 O538 2.513 . S
C521 O525 1.251 . S
C521 O527 1.263 . S
Tb522 O524 2.343 . S
Tb522 O527 2.353 . S
Tb522 O530 2.427 . S
Tb522 O531 2.513 . S
Tb522 O532 2.453 . S
Tb522 O533 2.596 . S
Tb522 O534 2.374 . S
O523 Tb520 2.453 . S
O523 C539 1.245 . S
O524 Tb520 2.596 . S
O524 Tb522 2.343 . S
O524 C539 1.259 . S
O525 Tb520 2.374 . S
O525 C521 1.251 . S
C526 O530 1.275 . S
C526 O531 1.246 . S
O527 C521 1.263 . S
O527 Tb522 2.353 . S
C528 O532 1.245 . S
C528 O533 1.259 . S
C529 O534 1.250 . S
C529 O535 1.263 . S
O530 Tb522 2.427 . S
O530 C526 1.275 . S
O531 Tb522 2.513 . S
O531 C526 1.246 . S
O532 Tb522 2.453 . S
O532 C528 1.245 . S
O533 Tb520 2.343 . S
O533 Tb522 2.596 . S
O533 C528 1.259 . S
O534 Tb522 2.374 . S
O534 C529 1.250 . S
O535 Tb520 2.353 . S
O535 C529 1.263 . S
C536 O537 1.275 . S
C536 O538 1.246 . S
O537 Tb520 2.427 . S
O537 C536 1.275 . S
O538 Tb520 2.513 . S
O538 C536 1.246 . S
C539 O523 1.245 . S
C539 O524 1.259 . S
Tb540 O543 2.453 . S
Tb540 O544 2.596 1_565 S
Tb540 O545 2.374 . S
Tb540 O553 2.343 . S
Tb540 O555 2.353 . S
Tb540 O557 2.427 . S
Tb540 O558 2.513 . S
C541 O545 1.251 . S
C541 O547 1.263 1_565 S
Tb542 O544 2.343 . S
Tb542 O547 2.353 . S
Tb542 O550 2.427 . S
Tb542 O551 2.513 . S
Tb542 O552 2.453 1_655 S
Tb542 O553 2.596 1_545 S
Tb542 O554 2.374 . S
O543 Tb540 2.453 . S
O543 C559 1.245 1_565 S
O544 Tb540 2.596 1_545 S
O544 Tb542 2.343 . S
O544 C559 1.259 . S
O545 Tb540 2.374 . S
O545 C541 1.251 . S
C546 O550 1.275 . S
C546 O551 1.246 . S
O547 C541 1.263 1_545 S
O547 Tb542 2.353 . S
C548 O552 1.245 1_565 S
C548 O553 1.259 1_455 S
C549 O554 1.250 . S
C549 O555 1.263 1_545 S
O550 Tb542 2.427 . S
O550 C546 1.275 . S
O551 Tb542 2.513 . S
O551 C546 1.246 . S
O552 Tb542 2.453 1_455 S
O552 C548 1.245 1_545 S
O553 Tb540 2.343 . S
O553 Tb542 2.596 1_565 S
O553 C548 1.259 1_655 S
O554 Tb542 2.374 . S
O554 C549 1.250 . S
O555 Tb540 2.353 . S
O555 C549 1.263 1_565 S
C556 O557 1.275 . S
C556 O558 1.246 . S
O557 Tb540 2.427 . S
O557 C556 1.275 . S
O558 Tb540 2.513 . S
O558 C556 1.246 . S
C559 O543 1.245 1_545 S
C559 O544 1.259 . S
Tb560 O563 2.453 . S
Tb560 O564 2.596 1_565 S
Tb560 O565 2.374 . S
Tb560 O573 2.343 . S
Tb560 O575 2.353 . S
Tb560 O577 2.427 . S
Tb560 O578 2.513 . S
C561 O565 1.251 . S
C561 O567 1.263 1_565 S
Tb562 O564 2.343 . S
Tb562 O567 2.353 . S
Tb562 O570 2.427 . S
Tb562 O571 2.513 . S
Tb562 O572 2.453 . S
Tb562 O573 2.596 1_545 S
Tb562 O574 2.374 . S
O563 Tb560 2.453 . S
O563 C579 1.245 1_565 S
O564 Tb560 2.596 1_545 S
O564 Tb562 2.343 . S
O564 C579 1.259 . S
O565 Tb560 2.374 . S
O565 C561 1.251 . S
C566 O570 1.275 . S
C566 O571 1.246 . S
O567 C561 1.263 1_545 S
O567 Tb562 2.353 . S
C568 O572 1.245 1_565 S
C568 O573 1.259 . S
C569 O574 1.250 . S
C569 O575 1.263 1_545 S
O570 Tb562 2.427 . S
O570 C566 1.275 . S
O571 Tb562 2.513 . S
O571 C566 1.246 . S
O572 Tb562 2.453 . S
O572 C568 1.245 1_545 S
O573 Tb560 2.343 . S
O573 Tb562 2.596 1_565 S
O573 C568 1.259 . S
O574 Tb562 2.374 . S
O574 C569 1.250 . S
O575 Tb560 2.353 . S
O575 C569 1.263 1_565 S
C576 O577 1.275 . S
C576 O578 1.246 . S
O577 Tb560 2.427 . S
O577 C576 1.275 . S
O578 Tb560 2.513 . S
O578 C576 1.246 . S
C579 O563 1.245 1_545 S
C579 O564 1.259 . S
Tb580 O583 2.453 1_455 S
Tb580 O584 2.596 . S
Tb580 O585 2.374 . S
Tb580 O593 2.343 . S
Tb580 O595 2.353 . S
Tb580 O597 2.427 . S
Tb580 O598 2.513 . S
C581 O585 1.251 . S
C581 O587 1.263 . S
Tb582 O584 2.343 . S
Tb582 O587 2.353 . S
Tb582 O590 2.427 . S
Tb582 O591 2.513 . S
Tb582 O592 2.453 . S
Tb582 O593 2.596 . S
Tb582 O594 2.374 . S
O583 Tb580 2.453 1_655 S
O583 C599 1.245 . S
O584 Tb580 2.596 . S
O584 Tb582 2.343 . S
O584 C599 1.259 1_455 S
O585 Tb580 2.374 . S
O585 C581 1.251 . S
C586 O590 1.275 . S
C586 O591 1.246 . S
O587 C581 1.263 . S
O587 Tb582 2.353 . S
C588 O592 1.245 . S
C588 O593 1.259 . S
C589 O594 1.250 . S
C589 O595 1.263 . S
O590 Tb582 2.427 . S
O590 C586 1.275 . S
O591 Tb582 2.513 . S
O591 C586 1.246 . S
O592 Tb582 2.453 . S
O592 C588 1.245 . S
O593 Tb580 2.343 . S
O593 Tb582 2.596 . S
O593 C588 1.259 . S
O594 Tb582 2.374 . S
O594 C589 1.250 . S
O595 Tb580 2.353 . S
O595 C589 1.263 . S
C596 O597 1.275 . S
C596 O598 1.246 . S
O597 Tb580 2.427 . S
O597 C596 1.275 . S
O598 Tb580 2.513 . S
O598 C596 1.246 . S
C599 O583 1.245 . S
C599 O584 1.259 1_655 S
Tb600 O603 2.453 . S
Tb600 O604 2.596 . S
Tb600 O605 2.374 . S
Tb600 O613 2.343 . S
Tb600 O615 2.353 . S
Tb600 O617 2.427 . S
Tb600 O618 2.513 . S
C601 O605 1.251 . S
C601 O607 1.263 . S
Tb602 O604 2.343 . S
Tb602 O607 2.353 . S
Tb602 O610 2.427 . S
Tb602 O611 2.513 . S
Tb602 O612 2.453 . S
Tb602 O613 2.596 . S
Tb602 O614 2.374 . S
O603 Tb600 2.453 . S
O603 C619 1.245 . S
O604 Tb600 2.596 . S
O604 Tb602 2.343 . S
O604 C619 1.259 . S
O605 Tb600 2.374 . S
O605 C601 1.251 . S
C606 O610 1.275 . S
C606 O611 1.246 . S
O607 C601 1.263 . S
O607 Tb602 2.353 . S
C608 O612 1.245 . S
C608 O613 1.259 . S
C609 O614 1.250 . S
C609 O615 1.263 . S
O610 Tb602 2.427 . S
O610 C606 1.275 . S
O611 Tb602 2.513 . S
O611 C606 1.246 . S
O612 Tb602 2.453 . S
O612 C608 1.245 . S
O613 Tb600 2.343 . S
O613 Tb602 2.596 . S
O613 C608 1.259 . S
O614 Tb602 2.374 . S
O614 C609 1.250 . S
O615 Tb600 2.353 . S
O615 C609 1.263 . S
C616 O617 1.275 . S
C616 O618 1.246 . S
O617 Tb600 2.427 . S
O617 C616 1.275 . S
O618 Tb600 2.513 . S
O618 C616 1.246 . S
C619 O603 1.245 . S
C619 O604 1.259 . S
Tb620 O623 2.453 1_455 S
Tb620 O624 2.596 1_565 S
Tb620 O625 2.374 . S
Tb620 O633 2.343 . S
Tb620 O635 2.353 . S
Tb620 O637 2.427 . S
Tb620 O638 2.513 . S
C621 O625 1.251 . S
C621 O627 1.263 1_565 S
Tb622 O624 2.343 . S
Tb622 O627 2.353 . S
Tb622 O630 2.427 . S
Tb622 O631 2.513 . S
Tb622 O632 2.453 . S
Tb622 O633 2.596 1_545 S
Tb622 O634 2.374 . S
O623 Tb620 2.453 1_655 S
O623 C639 1.245 1_565 S
O624 Tb620 2.596 1_545 S
O624 Tb622 2.343 . S
O624 C639 1.259 1_455 S
O625 Tb620 2.374 . S
O625 C621 1.251 . S
C626 O630 1.275 . S
C626 O631 1.246 . S
O627 C621 1.263 1_545 S
O627 Tb622 2.353 . S
C628 O632 1.245 1_565 S
C628 O633 1.259 . S
C629 O634 1.250 . S
C629 O635 1.263 1_545 S
O630 Tb622 2.427 . S
O630 C626 1.275 . S
O631 Tb622 2.513 . S
O631 C626 1.246 . S
O632 Tb622 2.453 . S
O632 C628 1.245 1_545 S
O633 Tb620 2.343 . S
O633 Tb622 2.596 1_565 S
O633 C628 1.259 . S
O634 Tb622 2.374 . S
O634 C629 1.250 . S
O635 Tb620 2.353 . S
O635 C629 1.263 1_565 S
C636 O637 1.275 . S
C636 O638 1.246 . S
O637 Tb620 2.427 . S
O637 C636 1.275 . S
O638 Tb620 2.513 . S
O638 C636 1.246 . S
C639 O623 1.245 1_545 S
C639 O624 1.259 1_655 S
C16 C516 1.864 . S
C496 C36 1.838 . S
C556 C56 1.838 . S
C76 C536 1.864 . S
C86 C586 1.864 . S
C106 C566 1.838 . S
C126 C626 1.838 . S
C606 C146 1.864 . S
C176 C356 1.838 . S
C196 C336 1.864 . S
C216 C396 1.864 . S
C376 C236 1.838 . S
C246 C426 1.838 . S
C266 C406 1.864 . S
C466 C286 1.864 . S
C306 C446 1.838 . S
C1 C61 1.496 . S
C21 C41 1.499 . S
C149 C89 1.496 . S
C129 C109 1.499 . S
C161 C221 1.491 . S
C181 C201 1.491 . S
C249 C309 1.491 . S
C289 C269 1.491 . S
C321 C381 1.496 . S
C341 C361 1.498 . S
C469 C409 1.496 . S
C429 C449 1.498 . S
C541 C481 1.491 . S
C501 C521 1.492 . S
C629 C569 1.491 . S
C609 C589 1.492 . S
C26 C6 2.143 . S
C46 C66 2.142 . S
C116 C96 2.142 . S
C156 C136 2.142 . S
C166 C186 2.164 . S
C206 C226 2.165 . S
C276 C256 2.164 . S
C296 C316 2.165 . S
C326 C346 2.143 . S
C386 C366 2.143 . S
C416 C436 2.143 . S
C456 C476 2.143 . S
C486 C506 2.164 . S
C526 C546 2.164 . S
C596 C576 2.164 . S
C616 C636 2.164 . S
C8 C19 1.911 . S
C28 C39 1.911 . S
C48 C59 1.911 . S
C79 C68 1.911 . S
C88 C99 1.911 . S
C119 C108 1.911 . S
C128 C139 1.911 . S
C148 C159 1.911 . S
C179 C168 1.910 1_545 S
C188 C199 1.911 . S
C208 C219 1.911 . S
C239 C228 1.910 1_545 S
C248 C259 1.910 1_565 S
C279 C268 1.911 . S
C299 C288 1.911 . S
C308 C319 1.910 1_565 S
C328 C339 1.911 1_455 S
C359 C348 1.911 . S
C379 C368 1.911 1_655 S
C388 C399 1.911 . S
C419 C408 1.911 1_655 S
C439 C428 1.911 . S
C448 C459 1.911 1_455 S
C479 C468 1.911 . S
C499 C488 1.910 1_645 S
C508 C519 1.911 . S
C539 C528 1.911 1_655 S
C559 C548 1.910 1_545 S
C579 C568 1.910 1_645 S
C599 C588 1.911 . S
C608 C619 1.911 1_455 S
C628 C639 1.910 1_565 S
C9 C81 1.535 1_654 S
C581 C29 1.538 1_556 S
C281 C49 1.539 1_455 S
C69 C461 1.535 . S
C101 C509 1.538 1_556 S
C121 C209 1.539 1_455 S
C141 C389 1.535 . S
C169 C241 1.527 1_645 S
C421 C189 1.539 . S
C621 C229 1.527 1_565 S
C261 C349 1.539 . S
C549 C301 1.527 1_545 S
C329 C401 1.534 . S
C601 C369 1.539 . S
C441 C529 1.539 . S
C489 C561 1.528 1_544 S
