# Generated by pormake.
# Topology umv, (4)-cn, num edge types: 1
# Building blocks:
#     Node 0, Type 0, BuildingBlock: CEKHIL_clean_sbu_0, # of connection points: 4
#     Node 1, Type 0, BuildingBlock: CEKHIL_clean_sbu_0, # of connection points: 4
#     Node 2, Type 0, BuildingBlock: CEKHIL_clean_sbu_0, # of connection points: 4
#     Node 3, Type 0, BuildingBlock: CEKHIL_clean_sbu_0, # of connection points: 4
#     Node 4, Type 0, BuildingBlock: CEKHIL_clean_sbu_0, # of connection points: 4
#     Node 5, Type 0, BuildingBlock: CEKHIL_clean_sbu_0, # of connection points: 4
#     Node 6, Type 0, BuildingBlock: CEKHIL_clean_sbu_0, # of connection points: 4
#     Node 7, Type 0, BuildingBlock: CEKHIL_clean_sbu_0, # of connection points: 4
#     Node 8, Type 0, BuildingBlock: CEKHIL_clean_sbu_0, # of connection points: 4
#     Node 9, Type 0, BuildingBlock: CEKHIL_clean_sbu_0, # of connection points: 4
#     Node 10, Type 0, BuildingBlock: CEKHIL_clean_sbu_0, # of connection points: 4
#     Node 11, Type 0, BuildingBlock: CEKHIL_clean_sbu_0, # of connection points: 4
#     Node 12, Type 0, BuildingBlock: CEKHIL_clean_sbu_0, # of connection points: 4
#     Node 13, Type 0, BuildingBlock: CEKHIL_clean_sbu_0, # of connection points: 4
#     Node 14, Type 0, BuildingBlock: CEKHIL_clean_sbu_0, # of connection points: 4
#     Node 15, Type 0, BuildingBlock: CEKHIL_clean_sbu_0, # of connection points: 4
#     Node 16, Type 0, BuildingBlock: CEKHIL_clean_sbu_0, # of connection points: 4
#     Node 17, Type 0, BuildingBlock: CEKHIL_clean_sbu_0, # of connection points: 4
#     Node 18, Type 0, BuildingBlock: CEKHIL_clean_sbu_0, # of connection points: 4
#     Node 19, Type 0, BuildingBlock: CEKHIL_clean_sbu_0, # of connection points: 4
#     Node 20, Type 0, BuildingBlock: CEKHIL_clean_sbu_0, # of connection points: 4
#     Node 21, Type 0, BuildingBlock: CEKHIL_clean_sbu_0, # of connection points: 4
#     Node 22, Type 0, BuildingBlock: CEKHIL_clean_sbu_0, # of connection points: 4
#     Node 23, Type 0, BuildingBlock: CEKHIL_clean_sbu_0, # of connection points: 4
#     Node 24, Type 0, BuildingBlock: CEKHIL_clean_sbu_0, # of connection points: 4
#     Node 25, Type 0, BuildingBlock: CEKHIL_clean_sbu_0, # of connection points: 4
#     Node 26, Type 0, BuildingBlock: CEKHIL_clean_sbu_0, # of connection points: 4
#     Node 27, Type 0, BuildingBlock: CEKHIL_clean_sbu_0, # of connection points: 4
#     Node 28, Type 0, BuildingBlock: CEKHIL_clean_sbu_0, # of connection points: 4
#     Node 29, Type 0, BuildingBlock: CEKHIL_clean_sbu_0, # of connection points: 4
#     Node 30, Type 0, BuildingBlock: CEKHIL_clean_sbu_0, # of connection points: 4
#     Node 31, Type 0, BuildingBlock: CEKHIL_clean_sbu_0, # of connection points: 4
#     Edge 32, Type (0, 0), BuildingBlock: EZIPEK_clean_linker_0, # of connection points: 2
#     Edge 33, Type (0, 0), BuildingBlock: EZIPEK_clean_linker_0, # of connection points: 2
#     Edge 34, Type (0, 0), BuildingBlock: EZIPEK_clean_linker_0, # of connection points: 2
#     Edge 35, Type (0, 0), BuildingBlock: EZIPEK_clean_linker_0, # of connection points: 2
#     Edge 36, Type (0, 0), BuildingBlock: EZIPEK_clean_linker_0, # of connection points: 2
#     Edge 37, Type (0, 0), BuildingBlock: EZIPEK_clean_linker_0, # of connection points: 2
#     Edge 38, Type (0, 0), BuildingBlock: EZIPEK_clean_linker_0, # of connection points: 2
#     Edge 39, Type (0, 0), BuildingBlock: EZIPEK_clean_linker_0, # of connection points: 2
#     Edge 40, Type (0, 0), BuildingBlock: EZIPEK_clean_linker_0, # of connection points: 2
#     Edge 41, Type (0, 0), BuildingBlock: EZIPEK_clean_linker_0, # of connection points: 2
#     Edge 42, Type (0, 0), BuildingBlock: EZIPEK_clean_linker_0, # of connection points: 2
#     Edge 43, Type (0, 0), BuildingBlock: EZIPEK_clean_linker_0, # of connection points: 2
#     Edge 44, Type (0, 0), BuildingBlock: EZIPEK_clean_linker_0, # of connection points: 2
#     Edge 45, Type (0, 0), BuildingBlock: EZIPEK_clean_linker_0, # of connection points: 2
#     Edge 46, Type (0, 0), BuildingBlock: EZIPEK_clean_linker_0, # of connection points: 2
#     Edge 47, Type (0, 0), BuildingBlock: EZIPEK_clean_linker_0, # of connection points: 2
#     Edge 48, Type (0, 0), BuildingBlock: EZIPEK_clean_linker_0, # of connection points: 2
#     Edge 49, Type (0, 0), BuildingBlock: EZIPEK_clean_linker_0, # of connection points: 2
#     Edge 50, Type (0, 0), BuildingBlock: EZIPEK_clean_linker_0, # of connection points: 2
#     Edge 51, Type (0, 0), BuildingBlock: EZIPEK_clean_linker_0, # of connection points: 2
#     Edge 52, Type (0, 0), BuildingBlock: EZIPEK_clean_linker_0, # of connection points: 2
#     Edge 53, Type (0, 0), BuildingBlock: EZIPEK_clean_linker_0, # of connection points: 2
#     Edge 54, Type (0, 0), BuildingBlock: EZIPEK_clean_linker_0, # of connection points: 2
#     Edge 55, Type (0, 0), BuildingBlock: EZIPEK_clean_linker_0, # of connection points: 2
#     Edge 56, Type (0, 0), BuildingBlock: EZIPEK_clean_linker_0, # of connection points: 2
#     Edge 57, Type (0, 0), BuildingBlock: EZIPEK_clean_linker_0, # of connection points: 2
#     Edge 58, Type (0, 0), BuildingBlock: EZIPEK_clean_linker_0, # of connection points: 2
#     Edge 59, Type (0, 0), BuildingBlock: EZIPEK_clean_linker_0, # of connection points: 2
#     Edge 60, Type (0, 0), BuildingBlock: EZIPEK_clean_linker_0, # of connection points: 2
#     Edge 61, Type (0, 0), BuildingBlock: EZIPEK_clean_linker_0, # of connection points: 2
#     Edge 62, Type (0, 0), BuildingBlock: EZIPEK_clean_linker_0, # of connection points: 2
#     Edge 63, Type (0, 0), BuildingBlock: EZIPEK_clean_linker_0, # of connection points: 2
#     Edge 64, Type (0, 0), BuildingBlock: EZIPEK_clean_linker_0, # of connection points: 2
#     Edge 65, Type (0, 0), BuildingBlock: EZIPEK_clean_linker_0, # of connection points: 2
#     Edge 66, Type (0, 0), BuildingBlock: EZIPEK_clean_linker_0, # of connection points: 2
#     Edge 67, Type (0, 0), BuildingBlock: EZIPEK_clean_linker_0, # of connection points: 2
#     Edge 68, Type (0, 0), BuildingBlock: EZIPEK_clean_linker_0, # of connection points: 2
#     Edge 69, Type (0, 0), BuildingBlock: EZIPEK_clean_linker_0, # of connection points: 2
#     Edge 70, Type (0, 0), BuildingBlock: EZIPEK_clean_linker_0, # of connection points: 2
#     Edge 71, Type (0, 0), BuildingBlock: EZIPEK_clean_linker_0, # of connection points: 2
#     Edge 72, Type (0, 0), BuildingBlock: EZIPEK_clean_linker_0, # of connection points: 2
#     Edge 73, Type (0, 0), BuildingBlock: EZIPEK_clean_linker_0, # of connection points: 2
#     Edge 74, Type (0, 0), BuildingBlock: EZIPEK_clean_linker_0, # of connection points: 2
#     Edge 75, Type (0, 0), BuildingBlock: EZIPEK_clean_linker_0, # of connection points: 2
#     Edge 76, Type (0, 0), BuildingBlock: EZIPEK_clean_linker_0, # of connection points: 2
#     Edge 77, Type (0, 0), BuildingBlock: EZIPEK_clean_linker_0, # of connection points: 2
#     Edge 78, Type (0, 0), BuildingBlock: EZIPEK_clean_linker_0, # of connection points: 2
#     Edge 79, Type (0, 0), BuildingBlock: EZIPEK_clean_linker_0, # of connection points: 2
#     Edge 80, Type (0, 0), BuildingBlock: EZIPEK_clean_linker_0, # of connection points: 2
#     Edge 81, Type (0, 0), BuildingBlock: EZIPEK_clean_linker_0, # of connection points: 2
#     Edge 82, Type (0, 0), BuildingBlock: EZIPEK_clean_linker_0, # of connection points: 2
#     Edge 83, Type (0, 0), BuildingBlock: EZIPEK_clean_linker_0, # of connection points: 2
#     Edge 84, Type (0, 0), BuildingBlock: EZIPEK_clean_linker_0, # of connection points: 2
#     Edge 85, Type (0, 0), BuildingBlock: EZIPEK_clean_linker_0, # of connection points: 2
#     Edge 86, Type (0, 0), BuildingBlock: EZIPEK_clean_linker_0, # of connection points: 2
#     Edge 87, Type (0, 0), BuildingBlock: EZIPEK_clean_linker_0, # of connection points: 2
#     Edge 88, Type (0, 0), BuildingBlock: EZIPEK_clean_linker_0, # of connection points: 2
#     Edge 89, Type (0, 0), BuildingBlock: EZIPEK_clean_linker_0, # of connection points: 2
#     Edge 90, Type (0, 0), BuildingBlock: EZIPEK_clean_linker_0, # of connection points: 2
#     Edge 91, Type (0, 0), BuildingBlock: EZIPEK_clean_linker_0, # of connection points: 2
#     Edge 92, Type (0, 0), BuildingBlock: EZIPEK_clean_linker_0, # of connection points: 2
#     Edge 93, Type (0, 0), BuildingBlock: EZIPEK_clean_linker_0, # of connection points: 2
#     Edge 94, Type (0, 0), BuildingBlock: EZIPEK_clean_linker_0, # of connection points: 2
#     Edge 95, Type (0, 0), BuildingBlock: EZIPEK_clean_linker_0, # of connection points: 2
# Relax obj value: 0.126
# Max RMSD: 0.110
# Mean RMSD: 0.110
data_MOF--net-umv--node1-CEKHIL_clean_sbu_0--edge1-EZIPEK_clean_linker_0
_symmetry_space_group_name_H-M    P1
_symmetry_Int_Tables_number       1
_symmetry_cell_setting            triclinic
loop_
_symmetry_equiv_pos_as_xyz
'x, y, z'
_cell_length_a     76.879523
_cell_length_b     18.499797
_cell_length_c     42.349655
_cell_angle_alpha  90.033937
_cell_angle_beta   90.027943
_cell_angle_gamma 90.003281
loop_
_atom_site_label
_atom_site_type_symbol
_atom_site_fract_x
_atom_site_fract_y
_atom_site_fract_z
_atom_type_partial_charge
Co0 Co 0.06091 0.10138 0.31202 0.0
O1 O 0.03612 0.12522 0.3109 0.0
O2 O 0.05445 0.14831 0.27235 0.0
C3 C 0.05722 0.98915 0.33478 0.0
O4 O 0.08733 0.08906 0.30376 0.0
Co5 Co 0.08071 0.06486 0.37559 0.0
O6 O 0.10187 0.06574 0.34903 0.0
C7 C 0.06615 0.20864 0.36204 0.0
C8 C 0.03878 0.15483 0.28349 0.0
C9 C 0.10161 0.07989 0.3196 0.0
O10 O 0.06569 0.19652 0.3322 0.0
O11 O 0.06879 0.15967 0.38284 0.0
O12 O 0.05537 -0.00288 0.3043 0.0
O13 O 0.06086 0.04779 0.34907 0.0
Co14 Co 0.21315 0.13464 0.31403 0.0
O15 O 0.2383 0.11833 0.31461 0.0
O16 O 0.22134 0.09191 0.27447 0.0
C17 C 0.21425 0.24566 0.33839 0.0
O18 O 0.18666 0.14027 0.30442 0.0
Co19 Co 0.19195 0.15726 0.37715 0.0
O20 O 0.17134 0.15798 0.34939 0.0
C21 C 0.21027 0.02075 0.36129 0.0
C22 C 0.23679 0.08854 0.28696 0.0
C23 C 0.1721 0.14642 0.31978 0.0
O24 O 0.20976 0.03705 0.33201 0.0
O25 O 0.2051 0.06465 0.38273 0.0
O26 O 0.21695 0.24038 0.30801 0.0
O27 O 0.21153 0.185 0.35174 0.0
Co28 Co 0.06114 0.14013 0.9423 0.0
O29 O 0.03617 0.11893 0.94294 0.0
O30 O 0.05405 0.0961 0.98226 0.0
C31 C 0.05887 0.25153 0.91929 0.0
O32 O 0.08753 0.15058 0.95166 0.0
Co33 Co 0.08182 0.16875 0.87951 0.0
O34 O 0.1028 0.16606 0.90669 0.0
C35 C 0.0684 0.02463 0.89517 0.0
C36 C 0.0384 0.09086 0.97081 0.0
C37 C 0.1021 0.15592 0.93641 0.0
O38 O 0.06559 0.04286 0.92395 0.0
O39 O 0.07296 0.0682 0.87328 0.0
O40 O 0.0566 0.24463 0.94968 0.0
O41 O 0.06157 0.19247 0.90438 0.0
Co42 Co 0.21307 0.1111 0.94257 0.0
O43 O 0.23792 0.13499 0.94321 0.0
O44 O 0.2198 0.15823 0.98212 0.0
C45 C 0.21604 -0.00163 0.92103 0.0
O46 O 0.18674 0.09923 0.95192 0.0
Co47 Co 0.1925 0.0746 0.88031 0.0
O48 O 0.17152 0.07649 0.90747 0.0
C49 C 0.20433 0.22246 0.89417 0.0
C50 C 0.23545 0.16402 0.97083 0.0
C51 C 0.1722 0.09059 0.93688 0.0
O52 O 0.20804 0.20643 0.92287 0.0
O53 O 0.1998 0.17692 0.873 0.0
O54 O 0.21813 0.00756 0.95135 0.0
O55 O 0.21301 0.05602 0.90533 0.0
Co56 Co 0.95968 0.88374 0.69624 0.0
O57 O 0.98465 0.86379 0.69778 0.0
O58 O 0.96634 0.83809 0.7361 0.0
C59 C 0.96182 -0.00348 0.6746 0.0
O60 O 0.9331 0.89218 0.70391 0.0
Co61 Co 0.94043 0.91346 0.63186 0.0
O62 O 0.91896 0.9052 0.65747 0.0
C63 C 0.95352 0.76935 0.64801 0.0
C64 C 0.98212 0.83393 0.72517 0.0
C65 C 0.91896 0.89544 0.68724 0.0
O66 O 0.95584 0.78716 0.67695 0.0
O67 O 0.94951 0.8133 0.62591 0.0
O68 O 0.96367 0.98812 0.70501 0.0
O69 O 0.95972 0.938 0.65896 0.0
Co70 Co 0.80736 0.84108 0.69603 0.0
O71 O 0.78229 0.85805 0.6979 0.0
O72 O 0.80048 0.89333 0.73428 0.0
C73 C 0.80587 0.72492 0.67784 0.0
O74 O 0.83401 0.83709 0.70335 0.0
Co75 Co 0.82662 0.80171 0.63263 0.0
O76 O 0.84818 0.8107 0.65806 0.0
C77 C 0.8117 0.94541 0.64358 0.0
C78 C 0.78449 0.89323 0.72412 0.0
C79 C 0.84816 0.82812 0.68717 0.0
O80 O 0.81044 0.93416 0.67337 0.0
O81 O 0.81517 0.89638 0.62323 0.0
O82 O 0.80414 0.73773 0.708 0.0
O83 O 0.8075 0.78097 0.66055 0.0
Co84 Co 0.96291 0.86834 0.06705 0.0
O85 O 0.98723 0.89951 0.06609 0.0
O86 O 0.96902 0.91223 0.02641 0.0
C87 C 0.96816 0.75965 0.09157 0.0
O88 O 0.93678 0.84672 0.05901 0.0
Co89 Co 0.94406 0.83334 0.13217 0.0
O90 O 0.92312 0.82514 0.10539 0.0
C91 C 0.95363 0.98131 0.11349 0.0
C92 C 0.9845 0.9238 0.03775 0.0
C93 C 0.92284 0.83593 0.07567 0.0
O94 O 0.95622 0.96363 0.08459 0.0
O95 O 0.95081 0.93707 0.13608 0.0
O96 O 0.97019 0.76601 0.0611 0.0
O97 O 0.96376 0.81844 0.1051 0.0
Co98 Co 0.8103 0.87797 0.06753 0.0
O99 O 0.78523 0.86595 0.06273 0.0
O100 O 0.80398 0.84645 0.02504 0.0
C101 C 0.80949 0.98344 0.09567 0.0
O102 O 0.83722 0.88034 0.06273 0.0
Co103 Co 0.82818 0.88067 0.13399 0.0
O104 O 0.85027 0.88995 0.11029 0.0
C105 C 0.81428 0.74531 0.10692 0.0
C106 C 0.78782 0.84318 0.03406 0.0
C107 C 0.85101 0.88401 0.08036 0.0
O108 O 0.81172 0.77518 0.08016 0.0
O109 O 0.81917 0.77905 0.13178 0.0
O110 O 0.80845 0.9848 0.06492 0.0
O111 O 0.80993 0.92019 0.10794 0.0
Co112 Co 0.05951 0.61333 0.81637 0.0
O113 O 0.0346 0.63471 0.81478 0.0
O114 O 0.05311 0.66141 0.77689 0.0
C115 C 0.05671 0.50033 0.83723 0.0
O116 O 0.08606 0.60368 0.80857 0.0
Co117 Co 0.07899 0.57752 0.87981 0.0
O118 O 0.10037 0.57697 0.85362 0.0
C119 C 0.06683 0.72461 0.86547 0.0
C120 C 0.03729 0.66547 0.78764 0.0
C121 C 0.10028 0.59296 0.82436 0.0
O122 O 0.06383 0.70848 0.83654 0.0
O123 O 0.07081 0.67892 0.88695 0.0
O124 O 0.05511 0.5097 0.80682 0.0
O125 O 0.05916 0.55789 0.85331 0.0
Co126 Co 0.21202 0.63585 0.81738 0.0
O127 O 0.23685 0.61173 0.81582 0.0
O128 O 0.21842 0.59031 0.77721 0.0
C129 C 0.2153 0.74771 0.83963 0.0
O130 O 0.18554 0.64827 0.80916 0.0
Co131 Co 0.19231 0.66992 0.88085 0.0
O132 O 0.17102 0.67002 0.85449 0.0
C133 C 0.20385 0.52262 0.86525 0.0
C134 C 0.23417 0.58406 0.78802 0.0
C135 C 0.17124 0.65686 0.82497 0.0
O136 O 0.20714 0.53989 0.83653 0.0
O137 O 0.19971 0.56732 0.88702 0.0
O138 O 0.21705 0.73965 0.80918 0.0
O139 O 0.21243 0.68948 0.85501 0.0
Co140 Co 0.05702 0.62626 0.44497 0.0
O141 O 0.03211 0.60505 0.44701 0.0
O142 O 0.05 0.5938 0.48672 0.0
C143 C 0.0548 0.73157 0.41613 0.0
O144 O 0.08341 0.63927 0.45347 0.0
Co145 Co 0.07771 0.63805 0.38093 0.0
O146 O 0.09847 0.65043 0.40799 0.0
C147 C 0.06388 0.49881 0.40435 0.0
C148 C 0.03426 0.58547 0.47629 0.0
C149 C 0.09787 0.64524 0.43795 0.0
O150 O 0.06114 0.52457 0.43197 0.0
O151 O 0.06858 0.53666 0.38054 0.0
O152 O 0.05231 0.73158 0.44661 0.0
O153 O 0.0577 0.66858 0.40483 0.0
Co154 Co 0.20941 0.6123 0.4454 0.0
O155 O 0.23439 0.63283 0.44605 0.0
O156 O 0.21679 0.65041 0.48627 0.0
C157 C 0.21171 0.50415 0.41899 0.0
O158 O 0.18296 0.60255 0.45459 0.0
Co159 Co 0.18788 0.59014 0.38253 0.0
O160 O 0.16748 0.58111 0.41021 0.0
C161 C 0.20246 0.73276 0.40119 0.0
C162 C 0.23231 0.65781 0.47452 0.0
C163 C 0.16837 0.59319 0.43972 0.0
O164 O 0.20566 0.7114 0.42935 0.0
O165 O 0.19636 0.692 0.37938 0.0
O166 O 0.21406 0.50726 0.44951 0.0
O167 O 0.20839 0.56536 0.40641 0.0
Co168 Co 0.96343 0.38897 0.19299 0.0
O169 O 0.98794 0.36032 0.1936 0.0
O170 O 0.96966 0.34156 0.23274 0.0
C171 C 0.96816 0.49964 0.16995 0.0
O172 O 0.93723 0.40667 0.20147 0.0
Co173 Co 0.94398 0.42762 0.12893 0.0
O174 O 0.92298 0.42949 0.1558 0.0
C175 C 0.95409 0.27862 0.14525 0.0
C176 C 0.9852 0.33237 0.22129 0.0
C177 C 0.92306 0.41594 0.18529 0.0
O178 O 0.95723 0.29473 0.17411 0.0
O179 O 0.95073 0.32412 0.12336 0.0
O180 O 0.97017 0.49159 0.20036 0.0
O181 O 0.96391 0.44158 0.15567 0.0
Co182 Co 0.81177 0.35028 0.19454 0.0
O183 O 0.78666 0.36784 0.19666 0.0
O184 O 0.80545 0.40502 0.23235 0.0
C185 C 0.81034 0.23279 0.17784 0.0
O186 O 0.83842 0.3475 0.20141 0.0
Co187 Co 0.83072 0.30736 0.13137 0.0
O188 O 0.85244 0.3214 0.15598 0.0
C189 C 0.81511 0.45004 0.14039 0.0
C190 C 0.78949 0.40532 0.22216 0.0
C191 C 0.85251 0.33997 0.18496 0.0
O192 O 0.8146 0.44151 0.17042 0.0
O193 O 0.81827 0.39922 0.12074 0.0
O194 O 0.80874 0.24761 0.20786 0.0
O195 O 0.81176 0.28773 0.15983 0.0
Co196 Co 0.95961 0.35462 0.56937 0.0
O197 O 0.98425 0.37686 0.56461 0.0
O198 O 0.96477 0.39759 0.52829 0.0
C199 C 0.96351 0.24417 0.59206 0.0
O200 O 0.93288 0.34218 0.56462 0.0
Co201 Co 0.94261 0.32489 0.63565 0.0
O202 O 0.92049 0.31917 0.61182 0.0
C203 C 0.954 0.47054 0.61693 0.0
C204 C 0.981 0.40248 0.53665 0.0
C205 C 0.91934 0.33212 0.58234 0.0
O206 O 0.9558 0.45196 0.58794 0.0
O207 O 0.95069 0.42712 0.63961 0.0
O208 O 0.96401 0.25049 0.56139 0.0
O209 O 0.96147 0.30327 0.60726 0.0
Co210 Co 0.80658 0.37043 0.56858 0.0
O211 O 0.78173 0.35443 0.56216 0.0
O212 O 0.80177 0.3337 0.52612 0.0
C213 C 0.80431 0.47788 0.59469 0.0
O214 O 0.83354 0.37618 0.56614 0.0
Co215 Co 0.82274 0.38231 0.63649 0.0
O216 O 0.84518 0.39602 0.6143 0.0
C217 C 0.81092 0.2423 0.61081 0.0
C218 C 0.78554 0.32796 0.53458 0.0
C219 C 0.84678 0.38572 0.58469 0.0
O220 O 0.80853 0.26949 0.58347 0.0
O221 O 0.815 0.27879 0.6354 0.0
O222 O 0.80401 0.47663 0.56387 0.0
O223 O 0.80489 0.41589 0.60805 0.0
Co224 Co 0.5593 0.10737 0.81655 0.0
O225 O 0.53458 0.1327 0.81416 0.0
O226 O 0.55394 0.16178 0.7782 0.0
C227 C 0.55529 0.99225 0.83411 0.0
O228 O 0.58587 0.09487 0.80963 0.0
Co229 Co 0.57767 0.05912 0.87953 0.0
O230 O 0.59944 0.06136 0.8545 0.0
C231 C 0.56688 0.20967 0.8692 0.0
C232 C 0.53798 0.16706 0.78809 0.0
C233 C 0.59986 0.08164 0.82576 0.0
O234 O 0.564 0.19866 0.83974 0.0
O235 O 0.5706 0.16059 0.88931 0.0
O236 O 0.55425 0.00602 0.80393 0.0
O237 O 0.55795 0.047 0.85184 0.0
Co238 Co 0.71184 0.14464 0.81457 0.0
O239 O 0.73696 0.12927 0.81163 0.0
O240 O 0.71832 0.08878 0.77704 0.0
C241 C 0.71318 0.26274 0.83024 0.0
O242 O 0.68504 0.14595 0.8086 0.0
Co243 Co 0.69332 0.18987 0.87786 0.0
O244 O 0.6714 0.17836 0.85364 0.0
C245 C 0.70855 0.04578 0.86942 0.0
C246 C 0.73446 0.09112 0.7863 0.0
C247 C 0.67107 0.15693 0.82505 0.0
O248 O 0.70953 0.05394 0.83938 0.0
O249 O 0.70514 0.09681 0.88885 0.0
O250 O 0.71443 0.24675 0.80029 0.0
O251 O 0.71202 0.20857 0.84876 0.0
Co252 Co 0.55746 0.13228 0.438 0.0
O253 O 0.53281 0.10737 0.43979 0.0
O254 O 0.55142 0.08688 0.47826 0.0
C255 C 0.55383 0.24337 0.4156 0.0
O256 O 0.58398 0.14593 0.44515 0.0
Co257 Co 0.57599 0.16489 0.37316 0.0
O258 O 0.59747 0.16974 0.39894 0.0
C259 C 0.56562 0.0174 0.39102 0.0
C260 C 0.53569 0.07904 0.46736 0.0
C261 C 0.5979 0.15631 0.42844 0.0
O262 O 0.56245 0.03614 0.41955 0.0
O263 O 0.5692 0.06108 0.36855 0.0
O264 O 0.55238 0.23592 0.44613 0.0
O265 O 0.55649 0.18486 0.40029 0.0
Co266 Co 0.71037 0.11617 0.43491 0.0
O267 O 0.73531 0.13358 0.43887 0.0
O268 O 0.7165 0.14857 0.47746 0.0
C269 C 0.71213 0.01085 0.4068 0.0
O270 O 0.68353 0.10831 0.4402 0.0
Co271 Co 0.69227 0.11171 0.36872 0.0
O272 O 0.67031 0.10106 0.39268 0.0
C273 C 0.70581 0.24787 0.3952 0.0
C274 C 0.73237 0.15686 0.46734 0.0
C275 C 0.66969 0.10431 0.42269 0.0
O276 O 0.70778 0.21864 0.42224 0.0
O277 O 0.70145 0.21322 0.37025 0.0
O278 O 0.71351 0.00991 0.4375 0.0
O279 O 0.71092 0.07396 0.39448 0.0
Co280 Co 0.46398 0.87535 0.18702 0.0
O281 O 0.48906 0.86143 0.1911 0.0
O282 O 0.47029 0.83984 0.22907 0.0
C283 C 0.46521 0.98208 0.16003 0.0
O284 O 0.43704 0.88 0.19185 0.0
Co285 Co 0.44613 0.88227 0.12048 0.0
O286 O 0.42415 0.89382 0.14431 0.0
C287 C 0.45938 0.74478 0.14622 0.0
C288 C 0.48626 0.83488 0.21903 0.0
C289 C 0.42331 0.88661 0.17417 0.0
O290 O 0.46192 0.77348 0.17323 0.0
O291 O 0.45472 0.77988 0.12159 0.0
O292 O 0.46642 0.98184 0.19077 0.0
O293 O 0.46442 0.91954 0.14713 0.0
Co294 Co 0.31076 0.85651 0.19061 0.0
O295 O 0.28606 0.88036 0.19485 0.0
O296 O 0.30602 0.90888 0.22983 0.0
C297 C 0.30661 0.74212 0.17195 0.0
O298 O 0.33747 0.84452 0.19578 0.0
Co299 Co 0.3279 0.81246 0.12591 0.0
O300 O 0.35001 0.8108 0.14998 0.0
C301 C 0.31762 0.96262 0.13891 0.0
C302 C 0.28985 0.91352 0.22105 0.0
C303 C 0.35106 0.83032 0.17878 0.0
O304 O 0.31486 0.94934 0.16822 0.0
O305 O 0.32116 0.91509 0.11796 0.0
O306 O 0.30616 0.75419 0.20232 0.0
O307 O 0.30882 0.79802 0.15473 0.0
Co308 Co 0.46077 0.86558 0.5664 0.0
O309 O 0.48574 0.88044 0.56049 0.0
O310 O 0.46598 0.9016 0.52401 0.0
C311 C 0.46256 0.75821 0.59279 0.0
O312 O 0.43382 0.86126 0.56311 0.0
Co313 Co 0.444 0.85517 0.63385 0.0
O314 O 0.42161 0.84563 0.61107 0.0
C315 C 0.45678 0.9939 0.60862 0.0
C316 C 0.48217 0.90672 0.53276 0.0
C317 C 0.42036 0.85459 0.58133 0.0
O318 O 0.45899 0.96671 0.58122 0.0
O319 O 0.4525 0.95759 0.63312 0.0
O320 O 0.46311 0.75912 0.56198 0.0
O321 O 0.46201 0.82039 0.60601 0.0
Co322 Co 0.30828 0.87956 0.56885 0.0
O323 O 0.28384 0.85111 0.56725 0.0
O324 O 0.30233 0.8365 0.52804 0.0
C325 C 0.30361 0.98827 0.59379 0.0
O326 O 0.33451 0.89884 0.56159 0.0
Co327 Co 0.32671 0.90972 0.63482 0.0
O328 O 0.34787 0.91715 0.60855 0.0
C329 C 0.31743 0.76284 0.61393 0.0
C330 C 0.28674 0.82607 0.53909 0.0
C331 C 0.34834 0.90756 0.57875 0.0
O332 O 0.31442 0.78309 0.58556 0.0
O333 O 0.32051 0.80509 0.63718 0.0
O334 O 0.30165 0.98269 0.56327 0.0
O335 O 0.30746 0.9286 0.60715 0.0
Co336 Co 0.56133 0.60733 0.31419 0.0
O337 O 0.53655 0.63192 0.31342 0.0
O338 O 0.55484 0.65547 0.27481 0.0
C339 C 0.55812 0.49426 0.33509 0.0
O340 O 0.58773 0.59474 0.30552 0.0
Co341 Co 0.58105 0.57101 0.3774 0.0
O342 O 0.60232 0.57756 0.35117 0.0
C343 C 0.56877 0.71746 0.36347 0.0
C344 C 0.53918 0.66182 0.28606 0.0
C345 C 0.60206 0.58924 0.32153 0.0
O346 O 0.56631 0.70204 0.3343 0.0
O347 O 0.57266 0.67169 0.38491 0.0
O348 O 0.55615 0.5042 0.30479 0.0
O349 O 0.56107 0.5516 0.35111 0.0
Co350 Co 0.71339 0.64479 0.30801 0.0
O351 O 0.73837 0.62511 0.30537 0.0
O352 O 0.71921 0.58992 0.26994 0.0
C353 C 0.71557 0.76187 0.32479 0.0
O354 O 0.68669 0.65017 0.30189 0.0
Co355 Co 0.69519 0.6896 0.37168 0.0
O356 O 0.67322 0.68136 0.34726 0.0
C357 C 0.70919 0.54395 0.36184 0.0
C358 C 0.73522 0.58829 0.27983 0.0
C359 C 0.67278 0.66139 0.31846 0.0
O360 O 0.71014 0.55344 0.3319 0.0
O361 O 0.70638 0.59463 0.38176 0.0
O362 O 0.71679 0.74719 0.29471 0.0
O363 O 0.71405 0.70698 0.3428 0.0
Co364 Co 0.56066 0.63211 0.93956 0.0
O365 O 0.53594 0.60782 0.94127 0.0
O366 O 0.55425 0.5915 0.9806 0.0
C367 C 0.55771 0.74093 0.91438 0.0
O368 O 0.58711 0.64637 0.94705 0.0
Co369 Co 0.57946 0.6518 0.87404 0.0
O370 O 0.60092 0.65002 0.89995 0.0
C371 C 0.56802 0.50953 0.89587 0.0
C372 C 0.53865 0.58196 0.96937 0.0
C373 C 0.60112 0.64701 0.93001 0.0
O374 O 0.56556 0.53328 0.92387 0.0
O375 O 0.57164 0.54897 0.872 0.0
O376 O 0.55567 0.73691 0.94492 0.0
O377 O 0.56025 0.68025 0.90059 0.0
Co378 Co 0.71367 0.61625 0.94095 0.0
O379 O 0.73869 0.62978 0.94566 0.0
O380 O 0.71997 0.64649 0.98366 0.0
C381 C 0.71479 0.5119 0.91208 0.0
O382 O 0.68678 0.61137 0.94566 0.0
Co383 Co 0.69597 0.61576 0.8743 0.0
O384 O 0.67395 0.60244 0.89784 0.0
C385 C 0.70935 0.75055 0.90267 0.0
C386 C 0.73609 0.65122 0.97452 0.0
C387 C 0.67309 0.60668 0.92783 0.0
O388 O 0.71182 0.7196 0.92923 0.0
O389 O 0.70474 0.71764 0.87743 0.0
O390 O 0.71593 0.50951 0.9428 0.0
O391 O 0.71418 0.5756 0.90024 0.0
Co392 Co 0.46223 0.39597 0.69513 0.0
O393 O 0.4875 0.38366 0.69657 0.0
O394 O 0.4699 0.34555 0.73341 0.0
C395 C 0.46257 0.51209 0.67661 0.0
O396 O 0.43562 0.39562 0.70317 0.0
Co397 Co 0.44198 0.43234 0.63237 0.0
O398 O 0.42076 0.42023 0.65843 0.0
C399 C 0.45781 0.29014 0.64298 0.0
C400 C 0.48581 0.34886 0.723 0.0
C401 C 0.42123 0.40251 0.68749 0.0
O402 O 0.45972 0.30199 0.67267 0.0
O403 O 0.45388 0.3388 0.62275 0.0
O404 O 0.46461 0.5 0.70676 0.0
O405 O 0.46126 0.45558 0.65951 0.0
Co406 Co 0.31047 0.35948 0.69475 0.0
O407 O 0.28602 0.38931 0.69448 0.0
O408 O 0.30392 0.40753 0.73423 0.0
C409 C 0.3055 0.24854 0.6721 0.0
O410 O 0.33657 0.34075 0.70431 0.0
Co411 Co 0.33061 0.31662 0.63195 0.0
O412 O 0.35131 0.31487 0.65953 0.0
C413 C 0.31996 0.46628 0.64597 0.0
C414 C 0.28847 0.41676 0.72238 0.0
C415 C 0.35092 0.32987 0.68889 0.0
O416 O 0.31701 0.45282 0.67519 0.0
O417 O 0.32337 0.41896 0.62485 0.0
O418 O 0.30333 0.25746 0.70243 0.0
O419 O 0.31019 0.30576 0.65768 0.0
Co420 Co 0.46379 0.34588 0.05996 0.0
O421 O 0.48874 0.36499 0.05628 0.0
O422 O 0.46919 0.39964 0.02146 0.0
C423 C 0.46605 0.22938 0.07723 0.0
O424 O 0.43706 0.34056 0.05477 0.0
Co425 Co 0.44622 0.30333 0.12449 0.0
O426 O 0.42403 0.31135 0.10079 0.0
C427 C 0.46049 0.44799 0.11349 0.0
C428 C 0.48532 0.40106 0.03067 0.0
C429 C 0.42332 0.33005 0.07186 0.0
O430 O 0.46092 0.43788 0.08355 0.0
O431 O 0.45782 0.39792 0.13373 0.0
O432 O 0.46699 0.2431 0.04703 0.0
O433 O 0.46476 0.2848 0.09502 0.0
Co434 Co 0.31175 0.38102 0.06712 0.0
O435 O 0.28694 0.35657 0.06539 0.0
O436 O 0.30531 0.3383 0.02638 0.0
C437 C 0.30872 0.49144 0.09101 0.0
O438 O 0.33815 0.39445 0.05911 0.0
Co439 Co 0.33118 0.40766 0.13166 0.0
O440 O 0.35252 0.40299 0.10552 0.0
C441 C 0.3195 0.26318 0.11301 0.0
C442 C 0.28962 0.33056 0.03728 0.0
C443 C 0.35238 0.39651 0.07557 0.0
O444 O 0.3167 0.28363 0.08456 0.0
O445 O 0.3234 0.30522 0.13588 0.0
O446 O 0.3067 0.48547 0.06051 0.0
O447 O 0.31146 0.43184 0.10549 0.0
C448 C 0.12451 0.17016 0.30347 0.0
C449 C 0.11893 0.09684 0.30512 0.0
C450 C 0.14942 0.05663 0.30258 0.0
C451 C 0.155 0.12985 0.30446 0.0
N452 N 0.14854 0.25523 0.29726 0.0
N453 N 0.12533 0.97151 0.29715 0.0
C454 C 0.14267 0.18622 0.30143 0.0
C455 C 0.13122 0.04049 0.30136 0.0
N456 N 0.11252 0.22433 0.30618 0.0
N457 N 0.16151 0.00264 0.30422 0.0
H458 H 0.11206 0.95956 0.29618 0.0
H459 H 0.13333 0.92769 0.29203 0.0
H460 H 0.17485 0.01287 0.30383 0.0
H461 H 0.15846 0.94819 0.30683 0.0
H462 H 0.1157 0.27856 0.30915 0.0
H463 H 0.09916 0.21461 0.30647 0.0
H464 H 0.14049 0.29916 0.29257 0.0
H465 H 0.1618 0.26702 0.29577 0.0
C466 C 0.14249 0.05196 0.95606 0.0
C467 C 0.15511 0.10725 0.9524 0.0
C468 C 0.13186 0.19865 0.95307 0.0
C469 C 0.11922 0.14284 0.95244 0.0
N470 N 0.11224 0.01998 0.96575 0.0
N471 N 0.16225 0.23287 0.9593 0.0
C472 C 0.12449 0.07057 0.9583 0.0
C473 C 0.14991 0.18064 0.95513 0.0
N474 N 0.14777 0.98159 0.95622 0.0
N475 N 0.12652 0.26871 0.95048 0.0
H476 H 0.17546 0.22089 0.96098 0.0
H477 H 0.15938 0.28692 0.9637 0.0
H478 H 0.11341 0.28278 0.95198 0.0
H479 H 0.13487 0.31205 0.94652 0.0
H480 H 0.13932 0.93776 0.95462 0.0
H481 H 0.16088 0.96768 0.95752 0.0
H482 H 0.1152 0.96734 0.97253 0.0
H483 H 0.09908 0.03277 0.96777 0.0
C484 C 0.8959 0.80918 0.70656 0.0
C485 C 0.90151 0.88158 0.70172 0.0
C486 C 0.87104 0.92159 0.69904 0.0
C487 C 0.86547 0.84839 0.70077 0.0
N488 N 0.87175 0.72635 0.71581 0.0
N489 N 0.89483 0.00783 0.70421 0.0
C490 C 0.8777 0.79345 0.70791 0.0
C491 C 0.88912 0.9382 0.70174 0.0
N492 N 0.90799 0.75516 0.708 0.0
N493 N 0.85916 0.97464 0.69282 0.0
H494 H 0.90799 0.01992 0.70719 0.0
H495 H 0.88662 0.0522 0.70662 0.0
H496 H 0.84581 0.96478 0.69196 0.0
H497 H 0.86251 0.02763 0.68724 0.0
H498 H 0.90491 0.70039 0.70762 0.0
H499 H 0.92132 0.76544 0.70849 0.0
H500 H 0.87972 0.68427 0.72333 0.0
H501 H 0.85848 0.71532 0.71773 0.0
C502 C 0.89788 0.90921 0.05301 0.0
C503 C 0.90496 0.84078 0.06158 0.0
C504 C 0.87564 0.79588 0.07316 0.0
C505 C 0.8686 0.86575 0.06718 0.0
N506 N 0.87197 0.98258 0.04342 0.0
N507 N 0.90024 0.71391 0.06817 0.0
C508 C 0.8794 0.92019 0.05411 0.0
C509 C 0.89359 0.78231 0.06735 0.0
N510 N 0.90887 0.96469 0.04572 0.0
N511 N 0.86544 0.74381 0.08656 0.0
H512 H 0.91341 0.70384 0.064 0.0
H513 H 0.89259 0.66759 0.0697 0.0
H514 H 0.85231 0.75187 0.09144 0.0
H515 H 0.87019 0.6946 0.0948 0.0
H516 H 0.90491 0.01808 0.04297 0.0
H517 H 0.92225 0.95742 0.0433 0.0
H518 H 0.87876 0.02298 0.0316 0.0
H519 H 0.85856 0.99093 0.04411 0.0
C520 C 0.12341 0.68373 0.80966 0.0
C521 C 0.11769 0.61059 0.81021 0.0
C522 C 0.1481 0.56962 0.80643 0.0
C523 C 0.15384 0.64226 0.81014 0.0
N524 N 0.14759 0.7682 0.80425 0.0
N525 N 0.1238 0.48662 0.79856 0.0
C526 C 0.14161 0.6993 0.80799 0.0
C527 C 0.12986 0.55436 0.80499 0.0
N528 N 0.11147 0.73806 0.8124 0.0
N529 N 0.16008 0.51513 0.8059 0.0
H530 H 0.11053 0.47635 0.79612 0.0
H531 H 0.13166 0.44289 0.79267 0.0
H532 H 0.17343 0.52486 0.80539 0.0
H533 H 0.15695 0.46048 0.8068 0.0
H534 H 0.11469 0.79209 0.81592 0.0
H535 H 0.09811 0.72861 0.81208 0.0
H536 H 0.13965 0.81292 0.80058 0.0
H537 H 0.16083 0.77907 0.80162 0.0
C538 C 0.1213 0.56509 0.46026 0.0
C539 C 0.1151 0.63614 0.45411 0.0
C540 C 0.14512 0.68151 0.45498 0.0
C541 C 0.15132 0.60904 0.45526 0.0
N542 N 0.14624 0.48378 0.46552 0.0
N543 N 0.12019 0.76358 0.45469 0.0
C544 C 0.13962 0.55145 0.46076 0.0
C545 C 0.1268 0.69506 0.45477 0.0
N546 N 0.10954 0.51078 0.46436 0.0
N547 N 0.15686 0.73668 0.45295 0.0
H548 H 0.1068 0.77319 0.45505 0.0
H549 H 0.12763 0.81035 0.45629 0.0
H550 H 0.1702 0.72755 0.45458 0.0
H551 H 0.15363 0.79077 0.44987 0.0
H552 H 0.11269 0.45651 0.46701 0.0
H553 H 0.09629 0.52141 0.46628 0.0
H554 H 0.13883 0.43777 0.46961 0.0
H555 H 0.15963 0.47447 0.4666 0.0
C556 C 0.89275 0.45619 0.19782 0.0
C557 C 0.90553 0.40115 0.19944 0.0
C558 C 0.8822 0.31088 0.20659 0.0
C559 C 0.8697 0.36353 0.19809 0.0
N560 N 0.86258 0.48801 0.18762 0.0
N561 N 0.9126 0.27531 0.20733 0.0
C562 C 0.8748 0.43712 0.19507 0.0
C563 C 0.90031 0.32843 0.20528 0.0
N564 N 0.89798 0.52672 0.19845 0.0
N565 N 0.87664 0.24407 0.21579 0.0
H566 H 0.92589 0.28604 0.20788 0.0
H567 H 0.90971 0.22035 0.2072 0.0
H568 H 0.86344 0.23151 0.21747 0.0
H569 H 0.88483 0.20416 0.22469 0.0
H570 H 0.88947 0.57035 0.19976 0.0
H571 H 0.91108 0.54095 0.20061 0.0
H572 H 0.86556 0.54085 0.18117 0.0
H573 H 0.84932 0.4764 0.18674 0.0
C574 C 0.88943 0.28234 0.57596 0.0
C575 C 0.90113 0.33937 0.56963 0.0
C576 C 0.87588 0.41947 0.56018 0.0
C577 C 0.86476 0.36674 0.57374 0.0
N578 N 0.86139 0.24796 0.59664 0.0
N579 N 0.90554 0.4626 0.55294 0.0
C580 C 0.87161 0.29768 0.58168 0.0
C581 C 0.89436 0.4078 0.56021 0.0
N582 N 0.89551 0.21318 0.57658 0.0
N583 N 0.86877 0.4807 0.54771 0.0
H584 H 0.91894 0.45507 0.55126 0.0
H585 H 0.90167 0.51599 0.5497 0.0
H586 H 0.85536 0.48932 0.54733 0.0
H587 H 0.87586 0.51931 0.53533 0.0
H588 H 0.8875 0.16797 0.57859 0.0
H589 H 0.9084 0.20163 0.57103 0.0
H590 H 0.86619 0.20007 0.60619 0.0
H591 H 0.84832 0.25705 0.6017 0.0
C592 C 0.64841 0.06027 0.81714 0.0
C593 C 0.65366 0.13323 0.81284 0.0
C594 C 0.62302 0.16877 0.80545 0.0
C595 C 0.61768 0.09663 0.81241 0.0
N596 N 0.62528 0.97103 0.81363 0.0
N597 N 0.64687 0.2514 0.79339 0.0
C598 C 0.63046 0.04153 0.81444 0.0
C599 C 0.6412 0.1856 0.80371 0.0
N600 N 0.66047 0.00957 0.82564 0.0
N601 N 0.61084 0.22206 0.8024 0.0
H602 H 0.66009 0.26325 0.79131 0.0
H603 H 0.63876 0.29094 0.78398 0.0
H604 H 0.59752 0.21207 0.80231 0.0
H605 H 0.61385 0.27684 0.8013 0.0
H606 H 0.65726 0.95773 0.83322 0.0
H607 H 0.67376 0.02053 0.82651 0.0
H608 H 0.63383 0.92748 0.8125 0.0
H609 H 0.61226 0.957 0.81056 0.0
C610 C 0.64536 0.19035 0.43554 0.0
C611 C 0.65205 0.11866 0.4364 0.0
C612 C 0.62233 0.07267 0.44491 0.0
C613 C 0.61571 0.14426 0.44201 0.0
N614 N 0.6213 0.27066 0.44768 0.0
N615 N 0.64773 0.99417 0.45007 0.0
C616 C 0.62744 0.20288 0.44186 0.0
C617 C 0.64077 0.06063 0.4441 0.0
N618 N 0.65585 0.24605 0.42643 0.0
N619 N 0.61096 0.01614 0.44672 0.0
H620 H 0.66113 0.98525 0.44981 0.0
H621 H 0.64052 0.95006 0.45789 0.0
H622 H 0.59757 0.02369 0.44874 0.0
H623 H 0.61466 0.96214 0.4452 0.0
H624 H 0.6513 0.29809 0.42195 0.0
H625 H 0.66892 0.23861 0.42092 0.0
H626 H 0.62928 0.31585 0.45011 0.0
H627 H 0.60837 0.27905 0.45408 0.0
C628 C 0.38107 0.784 0.18887 0.0
C629 C 0.36919 0.84202 0.19125 0.0
C630 C 0.39418 0.92548 0.19663 0.0
C631 C 0.40558 0.86945 0.18689 0.0
N632 N 0.40948 0.74485 0.17158 0.0
N633 N 0.36437 0.96932 0.19991 0.0
C634 C 0.39896 0.7982 0.18304 0.0
C635 C 0.37573 0.91312 0.19662 0.0
N636 N 0.3751 0.71503 0.19207 0.0
N637 N 0.40104 0.99048 0.20543 0.0
H638 H 0.35096 0.96201 0.20121 0.0
H639 H 0.36813 0.02336 0.2001 0.0
H640 H 0.41443 -0.00045 0.20585 0.0
H641 H 0.39374 0.0325 0.215 0.0
H642 H 0.38321 0.66995 0.19301 0.0
H643 H 0.36216 0.70472 0.19777 0.0
H644 H 0.40494 0.694 0.16493 0.0
H645 H 0.42253 0.75346 0.1663 0.0
C646 C 0.37786 0.95858 0.57079 0.0
C647 C 0.36623 0.90097 0.56507 0.0
C648 C 0.39143 0.82019 0.55664 0.0
C649 C 0.40256 0.8738 0.56947 0.0
N650 N 0.40607 0.99418 0.59061 0.0
N651 N 0.36177 0.77619 0.55077 0.0
C652 C 0.39575 0.94363 0.57639 0.0
C653 C 0.37298 0.83185 0.55664 0.0
N654 N 0.37154 0.0275 0.57185 0.0
N655 N 0.3985 0.7579 0.54509 0.0
H656 H 0.34835 0.78338 0.54942 0.0
H657 H 0.36567 0.72255 0.54852 0.0
H658 H 0.4119 0.74897 0.54493 0.0
H659 H 0.39136 0.71855 0.53321 0.0
H660 H 0.37946 0.07308 0.57333 0.0
H661 H 0.3584 0.03878 0.56788 0.0
H662 H 0.40141 0.04303 0.59943 0.0
H663 H 0.41911 0.98487 0.59582 0.0
C664 C 0.64295 0.69005 0.29679 0.0
C665 C 0.65537 0.6378 0.30628 0.0
C666 C 0.6321 0.54647 0.30866 0.0
C667 C 0.61946 0.60188 0.30648 0.0
N668 N 0.61251 0.72582 0.29447 0.0
N669 N 0.66215 0.51407 0.31913 0.0
C670 C 0.62478 0.67332 0.29858 0.0
C671 C 0.65009 0.56489 0.31086 0.0
N672 N 0.64866 0.75543 0.2861 0.0
N673 N 0.62673 0.47616 0.3086 0.0
H674 H 0.67546 0.5248 0.31952 0.0
H675 H 0.65899 0.46231 0.32685 0.0
H676 H 0.61365 0.4625 0.3058 0.0
H677 H 0.63516 0.43216 0.30785 0.0
H678 H 0.64058 0.79521 0.27682 0.0
H679 H 0.66188 0.76668 0.28368 0.0
H680 H 0.61536 0.78057 0.29234 0.0
H681 H 0.59922 0.71471 0.29419 0.0
C682 C 0.64798 0.69132 0.93687 0.0
C683 C 0.65533 0.62128 0.94093 0.0
C684 C 0.62606 0.57237 0.95082 0.0
C685 C 0.61879 0.64157 0.94458 0.0
N686 N 0.62288 0.76967 0.94386 0.0
N687 N 0.65212 0.50043 0.96061 0.0
C688 C 0.62987 0.70205 0.94198 0.0
C689 C 0.64458 0.56355 0.95113 0.0
N690 N 0.65809 0.74656 0.92592 0.0
N691 N 0.6152 0.51466 0.95469 0.0
H692 H 0.6656 0.49436 0.9616 0.0
H693 H 0.64523 0.45728 0.9702 0.0
H694 H 0.60172 0.52059 0.95591 0.0
H695 H 0.61943 0.46125 0.95561 0.0
H696 H 0.65317 0.79665 0.91914 0.0
H697 H 0.67133 0.74041 0.92149 0.0
H698 H 0.63031 0.81674 0.94442 0.0
H699 H 0.60968 0.77747 0.94855 0.0
C700 C 0.38102 0.28754 0.70148 0.0
C701 C 0.36838 0.34304 0.70374 0.0
C702 C 0.39199 0.43214 0.71094 0.0
C703 C 0.40427 0.37925 0.70161 0.0
N704 N 0.41106 0.25473 0.69068 0.0
N705 N 0.36162 0.46801 0.71444 0.0
C706 C 0.39899 0.30593 0.69849 0.0
C707 C 0.37381 0.41509 0.71051 0.0
N708 N 0.37559 0.21726 0.70171 0.0
N709 N 0.39785 0.49874 0.71989 0.0
H710 H 0.34835 0.45719 0.7158 0.0
H711 H 0.3645 0.5229 0.71545 0.0
H712 H 0.4111 0.51092 0.72073 0.0
H713 H 0.38995 0.53919 0.72913 0.0
H714 H 0.38398 0.17313 0.70243 0.0
H715 H 0.36247 0.20364 0.70408 0.0
H716 H 0.40796 0.20205 0.68414 0.0
H717 H 0.42435 0.26594 0.68967 0.0
C718 C 0.38216 0.4419 0.06256 0.0
C719 C 0.36978 0.38548 0.06047 0.0
C720 C 0.39358 0.299 0.05064 0.0
C721 C 0.4058 0.35229 0.05989 0.0
N722 N 0.41214 0.47657 0.07249 0.0
N723 N 0.3633 0.26081 0.04916 0.0
C724 C 0.40023 0.42485 0.06449 0.0
C725 C 0.37537 0.31435 0.05273 0.0
N726 N 0.37645 0.51175 0.06276 0.0
N727 N 0.39951 0.23398 0.0399 0.0
H728 H 0.34996 0.27103 0.04917 0.0
H729 H 0.36639 0.20621 0.0473 0.0
H730 H 0.41277 0.22368 0.03725 0.0
H731 H 0.39154 0.19363 0.03076 0.0
H732 H 0.38466 0.55646 0.06203 0.0
H733 H 0.3633 0.52439 0.06027 0.0
H734 H 0.40882 0.52825 0.08012 0.0
H735 H 0.42549 0.46671 0.07269 0.0
C736 C 1.00921 0.16817 0.2569 0.0
C737 C 0.02505 0.20012 0.26729 0.0
C738 C 0.01405 0.3199 0.25008 0.0
C739 C 0.99877 0.28712 0.23778 0.0
N740 N 0.98287 0.17848 0.22541 0.0
N741 N 0.04317 0.30636 0.2717 0.0
C742 C 0.99661 0.21084 0.24028 0.0
C743 C 0.02766 0.27595 0.26311 0.0
N744 N 1.00616 0.09671 0.26294 0.0
N745 N 0.01521 0.39367 0.25058 0.0
H746 H 0.05291 0.27822 0.28355 0.0
H747 H 0.04685 0.35871 0.26572 0.0
H748 H 1.00562 0.42723 0.24117 0.0
H749 H 0.02491 0.4221 0.26241 0.0
H750 H 0.99411 0.07202 0.25978 0.0
H751 H 0.01543 0.06252 0.27292 0.0
H752 H 0.98159 0.12281 0.22271 0.0
H753 H 0.97328 0.20742 0.21348 0.0
C754 C 0.26066 0.99139 0.28749 0.0
C755 C 0.25155 0.04764 0.27123 0.0
C756 C 0.26757 0.01603 0.2224 0.0
C757 C 0.27671 0.95989 0.23856 0.0
N758 N 0.2834 0.89982 0.28755 0.0
N759 N 0.24927 0.12326 0.22527 0.0
C760 C 0.27375 0.94984 0.27146 0.0
C761 C 0.25575 0.06214 0.23917 0.0
N762 N 0.25618 0.97453 0.31787 0.0
N763 N 0.27039 0.02641 0.19089 0.0
H764 H 0.24122 0.15969 0.23708 0.0
H765 H 0.2531 0.1421 0.20321 0.0
H766 H 0.28047 0.00156 0.17864 0.0
H767 H 0.26243 0.0578 0.17651 0.0
H768 H 0.26037 0.92832 0.32961 0.0
H769 H 0.24719 0.00352 0.3311 0.0
H770 H 0.28404 0.897 0.31206 0.0
H771 H 0.29154 0.86259 0.27648 0.0
C772 C 0.01738 0.98435 0.97401 0.0
C773 C 0.02423 0.04908 0.98759 0.0
C774 C 1.00398 0.03442 0.03256 0.0
C775 C 0.99806 0.96714 0.02015 0.0
N776 N 1.0007 0.87351 0.98104 0.0
N777 N 0.02527 0.13164 0.03156 0.0
C778 C 1.0051 0.94125 0.99124 0.0
C779 C 0.01793 0.07255 0.01747 0.0
N780 N 0.02276 0.96341 0.94464 0.0
N781 N 0.99559 0.06401 0.05791 0.0
H782 H 0.03453 0.16406 0.02047 0.0
H783 H 0.02298 0.14627 0.05493 0.0
H784 H 0.98513 0.03887 0.06903 0.0
H785 H 0.99784 0.11611 0.06625 0.0
H786 H 0.0168 0.92275 0.93153 0.0
H787 H 0.03273 0.98917 0.93245 0.0
H788 H 1.00673 0.84729 0.96226 0.0
H789 H 0.99185 0.84062 0.99293 0.0
C790 C 0.25785 0.17746 0.01464 0.0
C791 C 0.24944 0.20663 0.98766 0.0
C792 C 0.26669 0.31917 0.99406 0.0
C793 C 0.27589 0.28789 0.01975 0.0
N794 N 0.28268 0.18133 0.04994 0.0
N795 N 0.24677 0.30337 0.94991 0.0
C796 C 0.27207 0.21548 0.02885 0.0
C797 C 0.25421 0.27691 0.97681 0.0
N798 N 0.25219 0.11336 0.02694 0.0
N799 N 0.2695 0.39021 0.98678 0.0
H800 H 0.23685 0.27641 0.93806 0.0
H801 H 0.25097 0.34982 0.93836 0.0
H802 H 0.2787 0.42192 0.99848 0.0
H803 H 0.26205 0.41929 0.97069 0.0
H804 H 0.25627 0.09342 0.04872 0.0
H805 H 0.24241 0.08243 0.01647 0.0
H806 H 0.28186 0.12646 0.05518 0.0
H807 H 0.29348 0.20637 0.05987 0.0
C808 C 0.01167 0.82562 0.75216 0.0
C809 C 0.99621 0.79099 0.74157 0.0
C810 C 1.00837 0.67308 0.75868 0.0
C811 C 0.02329 0.70843 0.77112 0.0
N812 N 0.03801 0.81976 0.78385 0.0
N813 N 0.97925 0.68167 0.73655 0.0
C814 C 0.02467 0.78507 0.76878 0.0
C815 C 0.99438 0.71472 0.74553 0.0
N816 N 0.01401 0.89763 0.74626 0.0
N817 N 1.00796 0.59917 0.75812 0.0
H818 H 0.9693 0.70824 0.72459 0.0
H819 H 0.97607 0.62863 0.7423 0.0
H820 H 0.01788 0.56725 0.76751 0.0
H821 H 0.99856 0.56908 0.7463 0.0
H822 H 0.02578 0.92438 0.74953 0.0
H823 H 1.00441 0.93026 0.73627 0.0
H824 H 0.03867 0.87558 0.78669 0.0
H825 H 0.04786 0.79254 0.79584 0.0
C826 C 0.74692 0.03028 0.73725 0.0
C827 C 0.74863 0.04652 0.76996 0.0
C828 C 0.77188 0.9537 0.77312 0.0
C829 C 0.77025 0.93765 0.74039 0.0
N830 N 0.75096 0.94441 0.69496 0.0
N831 N 0.76799 0.03991 0.81528 0.0
C832 C 0.75633 0.97128 0.7234 0.0
C833 C 0.76256 0.01295 0.7869 0.0
N834 N 0.73734 0.0754 0.71853 0.0
N835 N 0.78126 0.90811 0.79197 0.0
H836 H 0.76315 0.08665 0.82552 0.0
H837 H 0.77915 0.02174 0.82674 0.0
H838 H 0.78683 0.86047 0.78353 0.0
H839 H 0.78136 0.91164 0.81653 0.0
H840 H 0.7372 0.07209 0.69397 0.0
H841 H 0.73155 0.12249 0.72709 0.0
H842 H 0.73985 0.96266 0.68337 0.0
H843 H 0.75572 0.89737 0.68485 0.0
C844 C 0.74572 0.73647 0.01946 0.0
C845 C 0.75005 0.69265 0.9929 0.0
C846 C 0.77811 0.75807 0.9892 0.0
C847 C 0.7738 0.80181 0.01578 0.0
N848 N 0.75007 0.85068 0.04626 0.0
N849 N 0.77379 0.64383 0.96244 0.0
C850 C 0.75663 0.796 0.02816 0.0
C851 C 0.76722 0.69849 0.98054 0.0
N852 N 0.73203 0.71798 0.03832 0.0
N853 N 0.79175 0.77675 0.97025 0.0
H854 H 0.76718 0.59522 0.95908 0.0
H855 H 0.78671 0.64198 0.95507 0.0
H856 H 0.79828 0.82579 0.97248 0.0
H857 H 0.79461 0.75001 0.94922 0.0
H858 H 0.72916 0.74476 0.05933 0.0
H859 H 0.72546 0.66906 0.03607 0.0
H860 H 0.73715 0.85258 0.05363 0.0
H861 H 0.75668 0.8993 0.0496 0.0
C862 C 0.25693 0.57164 0.74456 0.0
C863 C 0.24799 0.54134 0.77077 0.0
C864 C 0.26638 0.43177 0.7666 0.0
C865 C 0.27458 0.45993 0.73916 0.0
N866 N 0.27664 0.55445 0.70018 0.0
N867 N 0.2418 0.4365 0.80247 0.0
C868 C 0.26947 0.52916 0.72756 0.0
C869 C 0.25213 0.46983 0.78069 0.0
N870 N 0.25384 0.64205 0.73656 0.0
N871 N 0.27223 0.36841 0.77937 0.0
H872 H 0.231 0.4616 0.81241 0.0
H873 H 0.24282 0.38206 0.8084 0.0
H874 H 0.28191 0.33701 0.76892 0.0
H875 H 0.26835 0.34941 0.80141 0.0
H876 H 0.26111 0.67062 0.72003 0.0
H877 H 0.24461 0.6739 0.74809 0.0
H878 H 0.27216 0.59986 0.68818 0.0
H879 H 0.28662 0.52764 0.68838 0.0
C880 C 0.02433 0.49644 0.5195 0.0
C881 C 0.02012 0.5456 0.49469 0.0
C882 C 0.99046 0.49287 0.4932 0.0
C883 C 0.99482 0.44326 0.51779 0.0
N884 N 0.01853 0.37941 0.54249 0.0
N885 N 0.99689 0.60722 0.46773 0.0
C886 C 0.01251 0.43989 0.52757 0.0
C887 C 1.00253 0.54827 0.48423 0.0
N888 N 0.03889 0.50639 0.53744 0.0
N889 N 0.97553 0.48372 0.47616 0.0
H890 H 1.00476 0.65222 0.46378 0.0
H891 H 0.98387 0.61623 0.46214 0.0
H892 H 0.96773 0.43804 0.47802 0.0
H893 H 0.97244 0.51472 0.45642 0.0
H894 H 0.04173 0.47478 0.55715 0.0
H895 H 0.04641 0.55304 0.53656 0.0
H896 H 0.03164 0.37114 0.54759 0.0
H897 H 1.01097 0.33301 0.54517 0.0
C898 C 0.26258 0.66786 0.49883 0.0
C899 C 0.24635 0.70051 0.49123 0.0
C900 C 0.2575 0.81731 0.51172 0.0
C901 C 0.27315 0.78334 0.52149 0.0
N902 N 0.28961 0.6737 0.5286 0.0
N903 N 0.22775 0.80584 0.4933 0.0
C904 C 0.27547 0.70798 0.51598 0.0
C905 C 0.24364 0.77501 0.49867 0.0
N906 N 0.26571 0.59814 0.48978 0.0
N907 N 0.25618 0.89094 0.51359 0.0
H908 H 0.21763 0.77931 0.48188 0.0
H909 H 0.22417 0.85645 0.50185 0.0
H910 H 0.26601 0.92349 0.52291 0.0
H911 H 0.24611 0.92059 0.5035 0.0
H912 H 0.27792 0.57396 0.49087 0.0
H913 H 0.25628 0.56531 0.47941 0.0
H914 H 0.2911 0.61778 0.52899 0.0
H915 H 0.29934 0.70074 0.54103 0.0
C916 C 0.77747 0.52893 0.23769 0.0
C917 C 0.77554 0.45213 0.23699 0.0
C918 C 0.747 0.46466 0.26364 0.0
C919 C 0.74897 0.54142 0.26446 0.0
N920 N 0.76478 0.64731 0.24848 0.0
N921 N 0.75962 0.34623 0.25263 0.0
C922 C 0.76397 0.57357 0.25073 0.0
C923 C 0.76049 0.41997 0.25056 0.0
N924 N 0.79237 0.55938 0.22605 0.0
N925 N 0.73208 0.43432 0.27525 0.0
H926 H 0.76921 0.31216 0.24356 0.0
H927 H 0.75014 0.3181 0.26506 0.0
H928 H 0.72253 0.46377 0.28699 0.0
H929 H 0.72864 0.38041 0.27229 0.0
H930 H 0.79581 0.61327 0.2291 0.0
H931 H 0.8019 0.53008 0.2142 0.0
H932 H 0.77421 0.67537 0.23587 0.0
H933 H 0.75518 0.68137 0.25748 0.0
C934 C 0.77516 0.21002 0.50939 0.0
C935 C 0.77235 0.28489 0.51585 0.0
C936 C 0.74272 0.27383 0.49349 0.0
C937 C 0.74589 0.19997 0.48531 0.0
N938 N 0.76604 0.10045 0.4823 0.0
N939 N 0.75456 0.39055 0.50929 0.0
C940 C 0.76243 0.16922 0.49217 0.0
C941 C 0.75637 0.31721 0.50675 0.0
N942 N 0.78957 0.17634 0.52128 0.0
N943 N 0.72664 0.30328 0.48845 0.0
H944 H 0.76429 0.4239 0.51838 0.0
H945 H 0.74418 0.41946 0.49984 0.0
H946 H 0.71669 0.27687 0.47649 0.0
H947 H 0.72273 0.35279 0.49772 0.0
H948 H 0.79129 0.12053 0.52126 0.0
H949 H 0.79936 0.2033 0.53346 0.0
H950 H 0.77849 0.07832 0.4824 0.0
H951 H 0.75673 0.06637 0.47233 0.0
C952 C 0.50169 0.30889 0.77343 0.0
C953 C 0.50083 0.31053 0.73974 0.0
C954 C 0.52318 0.21419 0.73838 0.0
C955 C 0.52477 0.21517 0.77175 0.0
N956 N 0.51865 0.27949 0.82011 0.0
N957 N 0.51691 0.28356 0.69166 0.0
C958 C 0.51479 0.26668 0.78909 0.0
C959 C 0.5134 0.26912 0.72261 0.0
N960 N 0.49043 0.34997 0.79076 0.0
N961 N 0.53047 0.15915 0.72143 0.0
H962 H 0.51167 0.32674 0.6793 0.0
H963 H 0.527 0.25846 0.67939 0.0
H964 H 0.53714 0.11639 0.73195 0.0
H965 H 0.52815 0.15179 0.69738 0.0
H966 H 0.48854 0.3428 0.81492 0.0
H967 H 0.48273 0.39047 0.78092 0.0
H968 H 0.5132 0.32147 0.83318 0.0
H969 H 0.5287 0.25345 0.83201 0.0
C970 C 0.51119 0.91681 0.50415 0.0
C971 C 0.49547 0.94984 0.51432 0.0
C972 C 0.50576 0.06666 0.49237 0.0
C973 C 0.52198 0.03484 0.48419 0.0
N974 N 0.5405 0.92946 0.48315 0.0
N975 N 0.47866 0.05899 0.52148 0.0
C976 C 0.52481 0.95991 0.49051 0.0
C977 C 0.49293 0.02535 0.50903 0.0
N978 N 0.51275 0.84329 0.50615 0.0
N979 N 0.50253 0.13692 0.48421 0.0
H980 H 0.46861 0.03159 0.53267 0.0
H981 H 0.4772 0.11485 0.52268 0.0
H982 H 0.51197 0.17121 0.47486 0.0
H983 H 0.49024 0.1605 0.48512 0.0
H984 H 0.52292 0.81384 0.49632 0.0
H985 H 0.50304 0.8104 0.5156 0.0
H986 H 0.54439 0.87841 0.49064 0.0
H987 H 0.55016 0.95635 0.47054 0.0
C988 C 0.50764 0.7291 0.22166 0.0
C989 C 0.49996 0.7911 0.23634 0.0
C990 C 0.51857 0.76972 0.28321 0.0
C991 C 0.52534 0.7054 0.26931 0.0
N992 N 0.52414 0.61758 0.22755 0.0
N993 N 0.49687 0.86549 0.28273 0.0
C994 C 0.51934 0.68375 0.23906 0.0
C995 C 0.50499 0.80949 0.2677 0.0
N996 N 0.50379 0.71281 0.19096 0.0
N997 N 0.5258 0.79521 0.31053 0.0
H998 H 0.48797 0.89944 0.27156 0.0
H999 H 0.4982 0.876 0.30677 0.0
H1000 H 0.53578 0.76844 0.32232 0.0
H1001 H 0.52302 0.84563 0.32019 0.0
H1002 H 0.5107 0.67533 0.17759 0.0
H1003 H 0.4943 0.73927 0.17789 0.0
H1004 H 0.51867 0.59391 0.20758 0.0
H1005 H 0.53256 0.58292 0.23956 0.0
C1006 C 0.49652 0.52363 0.01204 0.0
C1007 C 0.49888 0.44734 0.01454 0.0
C1008 C 0.52805 0.46067 0.99053 0.0
C1009 C 0.52516 0.53621 0.98597 0.0
N1010 N 0.50568 0.63791 0.98903 0.0
N1011 N 0.51577 0.34202 1.00161 0.0
C1012 C 0.50906 0.56694 0.99561 0.0
C1013 C 0.51441 0.41569 1.00272 0.0
N1014 N 0.48271 0.55562 0.02684 0.0
N1015 N 0.54386 0.4314 0.98311 0.0
H1016 H 0.50607 0.30755 0.00996 0.0
H1017 H 0.52571 0.3147 0.98996 0.0
H1018 H 0.5538 0.46044 0.97233 0.0
H1019 H 0.5476 0.37931 0.98942 0.0
H1020 H 0.48138 0.6113 0.02945 0.0
H1021 H 0.47327 0.52669 0.03911 0.0
H1022 H 0.49346 0.66141 0.9916 0.0
H1023 H 0.51487 0.6726 0.9791 0.0
C1024 C 0.04942 0.39844 0.37565 0.0
C1025 C 0.06144 0.42147 0.39894 0.0
C1026 C 0.07706 0.30839 0.3954 0.0
C1027 C 0.06454 0.2828 0.37356 0.0
N1028 N 0.03624 0.29634 0.34925 0.0
N1029 N 0.08184 0.38741 0.4396 0.0
C1030 C 0.04992 0.3257 0.36537 0.0
C1031 C 0.07368 0.37291 0.41174 0.0
N1032 N 0.03758 0.446 0.3635 0.0
N1033 N 0.09254 0.27319 0.39951 0.0
H1034 H 0.07831 0.43094 0.45373 0.0
H1035 H 0.09008 0.35059 0.45071 0.0
H1036 H 0.09613 0.22797 0.3863 0.0
H1037 H 0.10258 0.29401 0.41334 0.0
H1038 H 0.02999 0.43475 0.3437 0.0
H1039 H 0.03591 0.49804 0.37255 0.0
H1040 H 0.02465 0.32381 0.345 0.0
H1041 H 0.03579 0.24211 0.34282 0.0
C1042 C 0.21566 0.81631 0.36196 0.0
C1043 C 0.20803 0.80569 0.39214 0.0
C1044 C 0.21405 0.9308 0.40393 0.0
C1045 C 0.21478 0.9461 0.37121 0.0
N1046 N 0.21896 0.89668 0.31803 0.0
N1047 N 0.19834 0.85985 0.44147 0.0
C1048 C 0.21653 0.88715 0.3497 0.0
C1049 C 0.20695 0.86455 0.41339 0.0
N1050 N 0.22301 0.75992 0.3459 0.0
N1051 N 0.22015 0.97876 0.42575 0.0
H1052 H 0.19143 0.81435 0.44847 0.0
H1053 H 0.19658 0.90461 0.45614 0.0
H1054 H 0.22698 0.02517 0.41914 0.0
H1055 H 0.22045 0.96694 0.44985 0.0
H1056 H 0.22998 0.7668 0.325 0.0
H1057 H 0.22427 0.70832 0.35557 0.0
H1058 H 0.21741 0.85458 0.30188 0.0
H1059 H 0.22271 0.94485 0.30754 0.0
C1060 C 0.08323 0.90674 0.89149 0.0
C1061 C 0.06793 0.94819 0.88739 0.0
C1062 C 0.05153 0.84175 0.87141 0.0
C1063 C 0.06706 0.8009 0.87386 0.0
N1064 N 0.09823 0.79439 0.88112 0.0
N1065 N 0.03849 0.9607 0.86849 0.0
C1066 C 0.08308 0.83314 0.88269 0.0
C1067 C 0.05233 0.91739 0.87586 0.0
N1068 N 0.09788 0.93797 0.90379 0.0
N1069 N 0.036 0.8078 0.86599 0.0
H1070 H 0.03855 0.0165 0.87215 0.0
H1071 H 0.02745 0.94238 0.85671 0.0
H1072 H 0.03494 0.75205 0.86283 0.0
H1073 H 0.02401 0.83377 0.86714 0.0
H1074 H 0.10872 0.90888 0.91124 0.0
H1075 H 0.0989 0.99329 0.90814 0.0
H1076 H 0.11053 0.81718 0.88363 0.0
H1077 H 0.09875 0.73996 0.87482 0.0
C1078 C 0.22003 0.40977 0.87593 0.0
C1079 C 0.20393 0.44625 0.87329 0.0
C1080 C 0.18801 0.33569 0.88515 0.0
C1081 C 0.20411 0.29848 0.88559 0.0
N1082 N 0.23492 0.29468 0.87507 0.0
N1083 N 0.17253 0.44575 0.87224 0.0
C1084 C 0.22001 0.33389 0.87915 0.0
C1085 C 0.18786 0.40982 0.8771 0.0
N1086 N 0.23526 0.44799 0.87651 0.0
N1087 N 0.17299 0.30032 0.89297 0.0
H1088 H 0.17188 0.501 0.86753 0.0
H1089 H 0.16046 0.42043 0.87095 0.0
H1090 H 0.17248 0.24488 0.89731 0.0
H1091 H 0.16115 0.32614 0.89688 0.0
H1092 H 0.24726 0.4248 0.88172 0.0
H1093 H 0.23573 0.5041 0.87415 0.0
H1094 H 0.24653 0.31704 0.86704 0.0
H1095 H 0.23533 0.23854 0.87739 0.0
C1096 C 0.96996 0.65601 0.6391 0.0
C1097 C 0.95384 0.69293 0.64023 0.0
C1098 C 0.93812 0.58487 0.62411 0.0
C1099 C 0.95412 0.54708 0.62436 0.0
N1100 N 0.98489 0.54084 0.63503 0.0
N1101 N 0.92243 0.69312 0.63873 0.0
C1102 C 0.96998 0.58094 0.63269 0.0
C1103 C 0.93785 0.65768 0.63397 0.0
N1104 N 0.98517 0.69332 0.64322 0.0
N1105 N 0.92326 0.55114 0.61407 0.0
H1106 H 0.92168 0.74717 0.64559 0.0
H1107 H 0.91032 0.66799 0.63821 0.0
H1108 H 0.92277 0.49636 0.60834 0.0
H1109 H 0.91162 0.57797 0.60957 0.0
H1110 H 0.99745 0.6712 0.63964 0.0
H1111 H 0.98556 0.74844 0.64839 0.0
H1112 H 0.99652 0.56044 0.64423 0.0
H1113 H 0.9854 0.48594 0.62943 0.0
C1114 C 0.82399 0.04914 0.61406 0.0
C1115 C 0.81029 0.01965 0.63232 0.0
C1116 C 0.79564 0.13632 0.63357 0.0
C1117 C 0.80903 0.16432 0.61417 0.0
N1118 N 0.83209 0.14075 0.57658 0.0
N1119 N 0.781 0.02895 0.65245 0.0
C1120 C 0.82189 0.11854 0.60113 0.0
C1121 C 0.79543 0.06136 0.64005 0.0
N1122 N 0.83948 0.01347 0.61086 0.0
N1123 N 0.78323 0.18127 0.64574 0.0
H1124 H 0.78024 0.97335 0.65618 0.0
H1125 H 0.76926 0.05575 0.65605 0.0
H1126 H 0.78225 0.23566 0.63946 0.0
H1127 H 0.77441 0.16538 0.66306 0.0
H1128 H 0.85038 0.03692 0.6004 0.0
H1129 H 0.84215 0.96412 0.62171 0.0
H1130 H 0.84058 0.10609 0.56478 0.0
H1131 H 0.83081 0.19099 0.56578 0.0
C1132 C 0.93792 0.1692 0.12978 0.0
C1133 C 0.95399 0.20284 0.13691 0.0
C1134 C 0.96957 0.08941 0.13111 0.0
C1135 C 0.95377 0.05729 0.12131 0.0
N1136 N 0.92324 0.06432 0.10842 0.0
N1137 N 0.98534 0.20046 0.14041 0.0
C1138 C 0.93801 0.09654 0.11972 0.0
C1139 C 0.96992 0.16452 0.1366 0.0
N1140 N 0.92262 0.20587 0.13391 0.0
N1141 N 0.98407 0.04779 0.13574 0.0
H1142 H 0.98609 0.25599 0.14448 0.0
H1143 H 0.99746 0.17658 0.13705 0.0
H1144 H 0.98442 0.99248 0.13092 0.0
H1145 H 0.9954 0.06687 0.14632 0.0
H1146 H 0.91042 0.18173 0.13252 0.0
H1147 H 0.92206 0.25973 0.14115 0.0
H1148 H 0.91187 0.09237 0.10318 0.0
H1149 H 0.92265 0.00968 0.10245 0.0
C1150 C 0.79863 0.56538 0.13676 0.0
C1151 C 0.81324 0.52316 0.12801 0.0
C1152 C 0.82398 0.62082 0.0951 0.0
C1153 C 0.81172 0.66742 0.10936 0.0
N1154 N 0.7869 0.68588 0.14328 0.0
N1155 N 0.84174 0.51578 0.10367 0.0
C1156 C 0.79881 0.6402 0.13002 0.0
C1157 C 0.82638 0.5517 0.10816 0.0
N1158 N 0.78451 0.53366 0.1506 0.0
N1159 N 0.83341 0.64217 0.06943 0.0
H1160 H 0.84475 0.4669 0.11461 0.0
H1161 H 0.8523 0.53874 0.09194 0.0
H1162 H 0.83181 0.69215 0.05854 0.0
H1163 H 0.84146 0.607 0.05693 0.0
H1164 H 0.77294 0.56098 0.15523 0.0
H1165 H 0.78375 0.47818 0.15468 0.0
H1166 H 0.77859 0.67061 0.16152 0.0
H1167 H 0.78589 0.7402 0.13689 0.0
C1168 C 0.55192 0.31817 0.88948 0.0
C1169 C 0.56749 0.28407 0.87987 0.0
C1170 C 0.58382 0.39579 0.88603 0.0
C1171 C 0.56784 0.43178 0.89147 0.0
N1172 N 0.53658 0.43111 0.89705 0.0
N1173 N 0.59827 0.28642 0.86888 0.0
C1174 C 0.55184 0.39404 0.89321 0.0
C1175 C 0.58351 0.32159 0.87834 0.0
N1176 N 0.5374 0.27771 0.89542 0.0
N1177 N 0.59922 0.43227 0.88912 0.0
H1178 H 0.59873 0.23077 0.86499 0.0
H1179 H 0.6099 0.31244 0.86347 0.0
H1180 H 0.59993 0.48727 0.89437 0.0
H1181 H 0.61137 0.40742 0.88886 0.0
H1182 H 0.5261 0.29844 0.90551 0.0
H1183 H 0.53709 0.22169 0.89251 0.0
H1184 H 0.52434 0.40746 0.89516 0.0
H1185 H 0.53605 0.48704 0.9 0.0
C1186 C 0.69956 0.87487 0.91475 0.0
C1187 C 0.71198 0.82855 0.9008 0.0
C1188 C 0.72523 0.93107 0.87405 0.0
C1189 C 0.71043 0.97283 0.88212 0.0
N1190 N 0.68175 0.97964 0.90581 0.0
N1191 N 0.73733 0.81099 0.86819 0.0
C1192 C 0.69717 0.94399 0.90165 0.0
C1193 C 0.72512 0.85625 0.88081 0.0
N1194 N 0.69006 0.85331 0.94028 0.0
N1195 N 0.73947 0.96331 0.86089 0.0
H1196 H 0.73834 0.7567 0.87465 0.0
H1197 H 0.74594 0.82656 0.85046 0.0
H1198 H 0.74013 0.01888 0.857 0.0
H1199 H 0.75117 0.93646 0.85692 0.0
H1200 H 0.6818 0.88811 0.95253 0.0
H1201 H 0.69191 0.80374 0.95142 0.0
H1202 H 0.67114 0.95645 0.91731 0.0
H1203 H 0.67877 0.02856 0.89488 0.0
C1204 C 0.5522 0.82308 0.3825 0.0
C1205 C 0.56817 0.79302 0.37239 0.0
C1206 C 0.58278 0.90905 0.37734 0.0
C1207 C 0.56642 0.94054 0.38434 0.0
N1208 N 0.53528 0.93184 0.39057 0.0
N1209 N 0.5985 0.80408 0.35871 0.0
C1210 C 0.55102 0.89875 0.38633 0.0
C1211 C 0.58345 0.83503 0.36942 0.0
N1212 N 0.53834 0.77905 0.38883 0.0
N1213 N 0.59768 0.9493 0.37953 0.0
H1214 H 0.59979 0.74866 0.35483 0.0
H1215 H 0.60948 0.83339 0.35217 0.0
H1216 H 0.59774 0.00426 0.385 0.0
H1217 H 0.61014 0.92753 0.37831 0.0
H1218 H 0.52691 0.79688 0.39945 0.0
H1219 H 0.5387 0.72317 0.38553 0.0
H1220 H 0.5234 0.9051 0.38891 0.0
H1221 H 0.53393 0.98759 0.39335 0.0
C1222 C 0.69774 0.37508 0.40657 0.0
C1223 C 0.70925 0.32532 0.39228 0.0
C1224 C 0.72384 0.42414 0.36497 0.0
C1225 C 0.70988 0.46997 0.37373 0.0
N1226 N 0.6814 0.48379 0.39767 0.0
N1227 N 0.7339 0.30101 0.3586 0.0
C1228 C 0.69628 0.44446 0.39336 0.0
C1229 C 0.72256 0.34942 0.37168 0.0
N1230 N 0.68829 0.35693 0.43266 0.0
N1231 N 0.73843 0.45231 0.35125 0.0
H1232 H 0.73425 0.24666 0.36516 0.0
H1233 H 0.74243 0.3142 0.34039 0.0
H1234 H 0.74 0.50749 0.34711 0.0
H1235 H 0.7496 0.42218 0.3467 0.0
H1236 H 0.68072 0.39427 0.44496 0.0
H1237 H 0.68969 0.30786 0.44435 0.0
H1238 H 0.67054 0.46322 0.40935 0.0
H1239 H 0.67903 0.53309 0.38657 0.0
C1240 C 0.4759 0.56616 0.11579 0.0
C1241 C 0.46174 0.52206 0.1251 0.0
C1242 C 0.45045 0.61887 0.15789 0.0
C1243 C 0.46218 0.66702 0.14313 0.0
N1244 N 0.48664 0.68803 0.10861 0.0
N1245 N 0.43343 0.51148 0.14996 0.0
C1246 C 0.47514 0.64112 0.12223 0.0
C1247 C 0.44847 0.54933 0.14502 0.0
N1248 N 0.49021 0.53611 0.10185 0.0
N1249 N 0.44124 0.63873 0.18405 0.0
H1250 H 0.43073 0.46199 0.13925 0.0
H1251 H 0.42278 0.53335 0.16182 0.0
H1252 H 0.44278 0.68836 0.19526 0.0
H1253 H 0.43357 0.60245 0.19674 0.0
H1254 H 0.50153 0.56491 0.09695 0.0
H1255 H 0.49139 0.48069 0.09787 0.0
H1256 H 0.49495 0.67345 0.09027 0.0
H1257 H 0.48733 0.74255 0.11482 0.0
C1258 C 0.3025 0.07504 0.12398 0.0
C1259 C 0.31825 0.03786 0.1294 0.0
C1260 C 0.33501 0.14781 0.12107 0.0
C1261 C 0.3191 0.18618 0.1193 0.0
N1262 N 0.28784 0.19049 0.12406 0.0
N1263 N 0.34952 0.03598 0.13472 0.0
C1264 C 0.30284 0.15106 0.12212 0.0
C1265 C 0.33457 0.07329 0.12824 0.0
N1266 N 0.2874 0.03745 0.11952 0.0
N1267 N 0.35042 0.18242 0.1153 0.0
H1268 H 0.34976 0.9803 0.13855 0.0
H1269 H 0.36158 0.06042 0.13797 0.0
H1270 H 0.35127 0.23788 0.11118 0.0
H1271 H 0.36225 0.15582 0.11259 0.0
H1272 H 0.2758 0.06158 0.11236 0.0
H1273 H 0.28683 0.98111 0.12041 0.0
H1274 H 0.27581 0.16779 0.12951 0.0
H1275 H 0.28762 0.24679 0.12254 0.0
C1276 C 0.44484 0.18777 0.61333 0.0
C1277 C 0.45873 0.21559 0.6317 0.0
C1278 C 0.47273 0.09751 0.63201 0.0
C1279 C 0.45924 0.07155 0.61228 0.0
N1280 N 0.43659 0.09942 0.57447 0.0
N1281 N 0.48804 0.20286 0.65122 0.0
C1282 C 0.44669 0.11911 0.59956 0.0
C1283 C 0.47337 0.17221 0.63897 0.0
N1284 N 0.42943 0.22422 0.61076 0.0
N1285 N 0.48487 0.05098 0.64396 0.0
H1286 H 0.4891 0.25833 0.65496 0.0
H1287 H 0.49965 0.17477 0.65445 0.0
H1288 H 0.48554 -0.00329 0.63732 0.0
H1289 H 0.49374 0.06552 0.66146 0.0
H1290 H 0.41847 0.20188 0.6 0.0
H1291 H 0.42686 0.27264 0.62247 0.0
H1292 H 0.42826 0.13547 0.56309 0.0
H1293 H 0.43789 0.05014 0.56284 0.0
C1294 C 0.30343 0.57068 0.62608 0.0
C1295 C 0.31948 0.54085 0.63593 0.0
C1296 C 0.33454 0.654 0.62613 0.0
C1297 C 0.31816 0.68599 0.61996 0.0
N1298 N 0.28685 0.67945 0.6162 0.0
N1299 N 0.35019 0.55095 0.64686 0.0
C1300 C 0.30253 0.6456 0.62022 0.0
C1301 C 0.33506 0.58149 0.6363 0.0
N1302 N 0.28923 0.5271 0.62191 0.0
N1303 N 0.34952 0.69244 0.6213 0.0
H1304 H 0.35122 0.49645 0.65288 0.0
H1305 H 0.3615 0.58015 0.65131 0.0
H1306 H 0.34959 0.74624 0.61393 0.0
H1307 H 0.3619 0.6698 0.62214 0.0
H1308 H 0.27768 0.54441 0.61154 0.0
H1309 H 0.28936 0.47182 0.6268 0.0
H1310 H 0.27491 0.6542 0.61967 0.0
H1311 H 0.2857 0.73458 0.61151 0.0
C1312 C 0.05286 0.78988 0.36127 0.0
C1313 C 0.05434 0.79741 0.39492 0.0
C1314 C 0.05146 0.92755 0.38697 0.0
C1315 C 0.05476 0.92099 0.35389 0.0
N1316 N 0.06212 0.83909 0.31119 0.0
N1317 N 0.06016 0.88199 0.43765 0.0
C1318 C 0.05659 0.85021 0.34139 0.0
C1319 C 0.0552 0.86866 0.40726 0.0
N1320 N 0.04674 0.72766 0.34793 0.0
N1321 N 0.04388 0.98814 0.39921 0.0
H1322 H 0.06519 0.84259 0.45259 0.0
H1323 H 0.06167 0.93449 0.44626 0.0
H1324 H 0.03845 0.02842 0.38509 0.0
H1325 H 0.0406 0.99239 0.42305 0.0
H1326 H 0.04471 0.72263 0.32367 0.0
H1327 H 0.041 0.68629 0.36091 0.0
H1328 H 0.06482 0.78751 0.3025 0.0
H1329 H 0.06585 0.88062 0.29612 0.0
C1330 C 0.21276 0.36669 0.41126 0.0
C1331 C 0.21342 0.43758 0.3986 0.0
C1332 C 0.2128 0.38373 0.34529 0.0
C1333 C 0.21496 0.3135 0.3581 0.0
N1334 N 0.22504 0.24836 0.4047 0.0
N1335 N 0.22203 0.50681 0.35209 0.0
C1336 C 0.21735 0.30769 0.39153 0.0
C1337 C 0.21577 0.44455 0.36515 0.0
N1338 N 0.20738 0.35394 0.44143 0.0
N1339 N 0.20763 0.39391 0.31481 0.0
H1340 H 0.22736 0.54862 0.36543 0.0
H1341 H 0.22462 0.51142 0.32799 0.0
H1342 H 0.20398 0.35194 0.29987 0.0
H1343 H 0.2049 0.4452 0.30584 0.0
H1344 H 0.20591 0.30161 0.45024 0.0
H1345 H 0.20216 0.39366 0.45601 0.0
H1346 H 0.22764 0.24492 0.42883 0.0
H1347 H 0.23131 0.20885 0.39136 0.0
C1348 C 0.07235 0.39556 0.86091 0.0
C1349 C 0.05634 0.42965 0.85399 0.0
C1350 C 0.04167 0.34998 0.89233 0.0
C1351 C 0.05803 0.32072 0.90124 0.0
N1352 N 0.08918 0.32603 0.89856 0.0
N1353 N 0.02587 0.4453 0.86512 0.0
C1354 C 0.07344 0.3465 0.8867 0.0
C1355 C 0.041 0.4084 0.87027 0.0
N1356 N 0.0865 0.40978 0.84249 0.0
N1357 N 0.02675 0.32044 0.90417 0.0
H1358 H 0.02472 0.48524 0.84784 0.0
H1359 H 0.01475 0.43879 0.87885 0.0
H1360 H 0.0268 0.27986 0.92127 0.0
H1361 H 0.01438 0.33329 0.89589 0.0
H1362 H 0.09831 0.38261 0.8445 0.0
H1363 H 0.08571 0.44387 0.82295 0.0
H1364 H 0.10102 0.34697 0.89092 0.0
H1365 H 0.09009 0.29392 0.91866 0.0
C1366 C 0.20049 0.8979 0.89362 0.0
C1367 C 0.21645 0.92767 0.90407 0.0
C1368 C 0.23217 0.84246 0.86957 0.0
C1369 C 0.21607 0.81773 0.85706 0.0
N1370 N 0.18514 0.83172 0.85279 0.0
N1371 N 0.24762 0.93413 0.89979 0.0
C1372 C 0.20029 0.84851 0.86786 0.0
C1373 C 0.23236 0.90141 0.89146 0.0
N1374 N 0.18553 0.91564 0.90907 0.0
N1375 N 0.24723 0.80835 0.86112 0.0
H1376 H 0.24826 0.97474 0.91687 0.0
H1377 H 0.25946 0.92361 0.88877 0.0
H1378 H 0.24761 0.76766 0.84405 0.0
H1379 H 0.25914 0.81774 0.87206 0.0
H1380 H 0.17352 0.8918 0.90446 0.0
H1381 H 0.18568 0.94871 0.92898 0.0
H1382 H 0.17327 0.85645 0.85766 0.0
H1383 H 0.18496 0.79842 0.83294 0.0
C1384 C 0.94941 0.13216 0.61256 0.0
C1385 C 0.9645 0.17514 0.60998 0.0
C1386 C 0.9781 0.10432 0.65278 0.0
C1387 C 0.9622 0.06676 0.65733 0.0
N1388 N 0.93152 0.0605 0.64742 0.0
N1389 N 0.99288 0.20767 0.62966 0.0
C1390 C 0.94752 0.08515 0.63878 0.0
C1391 C 0.97876 0.16291 0.6308 0.0
N1392 N 0.93688 0.13573 0.58983 0.0
N1393 N 0.9927 0.08238 0.66848 0.0
H1394 H 0.99432 0.2476 0.61245 0.0
H1395 H 1.00274 0.20734 0.64653 0.0
H1396 H 0.99253 0.04143 0.6854 0.0
H1397 H 1.0051 0.10189 0.66351 0.0
H1398 H 0.92636 0.10022 0.58901 0.0
H1399 H 0.93808 0.16887 0.57004 0.0
H1400 H 0.92002 0.07633 0.63639 0.0
H1401 H 0.92979 0.03195 0.66835 0.0
C1402 C 0.78887 0.56329 0.63152 0.0
C1403 C 0.8042 0.54442 0.61459 0.0
C1404 C 0.82104 0.62747 0.64797 0.0
C1405 C 0.80552 0.65257 0.66231 0.0
N1406 N 0.77432 0.64902 0.66614 0.0
N1407 N 0.83446 0.56572 0.60367 0.0
C1408 C 0.78933 0.62128 0.65382 0.0
C1409 C 0.82018 0.57875 0.62195 0.0
N1410 N 0.77388 0.52525 0.62645 0.0
N1411 N 0.83666 0.6491 0.66001 0.0
H1412 H 0.834 0.53188 0.58401 0.0
H1413 H 0.84617 0.59348 0.60604 0.0
H1414 H 0.83738 0.68155 0.6801 0.0
H1415 H 0.8486 0.62889 0.65253 0.0
H1416 H 0.76285 0.53022 0.64054 0.0
H1417 H 0.77276 0.48571 0.60898 0.0
H1418 H 0.76197 0.63519 0.65808 0.0
H1419 H 0.77429 0.68885 0.6836 0.0
C1420 C 0.97367 0.56181 0.11784 0.0
C1421 C 0.97072 0.56776 0.15108 0.0
C1422 C 0.97291 0.69852 0.14439 0.0
C1423 C 0.97056 0.69213 0.11096 0.0
N1424 N 0.96526 0.60958 0.06728 0.0
N1425 N 0.96441 0.64906 0.19467 0.0
C1426 C 0.96993 0.62152 0.09793 0.0
C1427 C 0.96941 0.63815 0.16414 0.0
N1428 N 0.9809 0.50096 0.10517 0.0
N1429 N 0.97947 0.7603 0.15745 0.0
H1430 H 0.96062 0.60775 0.20979 0.0
H1431 H 0.96215 0.7007 0.20371 0.0
H1432 H 0.98473 0.80199 0.14395 0.0
H1433 H 0.98218 0.76474 0.18152 0.0
H1434 H 0.98406 0.49698 0.08127 0.0
H1435 H 0.98619 0.45984 0.11901 0.0
H1436 H 0.96359 0.55752 0.05827 0.0
H1437 H 0.96099 0.64991 0.05208 0.0
C1438 C 0.82593 0.13344 0.14976 0.0
C1439 C 0.81024 0.15932 0.16323 0.0
C1440 C 0.79393 0.06827 0.13276 0.0
C1441 C 0.80943 0.04865 0.1165 0.0
N1442 N 0.83994 0.06775 0.10708 0.0
N1443 N 0.77904 0.15526 0.16632 0.0
C1444 C 0.82538 0.08274 0.12437 0.0
C1445 C 0.79416 0.12722 0.15461 0.0
N1446 N 0.8414 0.1566 0.16193 0.0
N1447 N 0.77898 0.03007 0.12747 0.0
H1448 H 0.77884 0.19572 0.18349 0.0
H1449 H 0.76675 0.14097 0.15807 0.0
H1450 H 0.77803 0.98953 0.11042 0.0
H1451 H 0.76779 0.03573 0.1411 0.0
H1452 H 0.85346 0.13624 0.15518 0.0
H1453 H 0.8419 0.19109 0.18139 0.0
H1454 H 0.85166 0.09528 0.10964 0.0
H1455 H 0.83982 0.03191 0.08809 0.0
C1456 C 0.5405 0.84265 0.88946 0.0
C1457 C 0.55675 0.80871 0.89527 0.0
C1458 C 0.56983 0.87964 0.85227 0.0
C1459 C 0.5543 0.91962 0.84902 0.0
N1460 N 0.525 0.94384 0.86602 0.0
N1461 N 0.58765 0.80708 0.88697 0.0
C1462 C 0.53964 0.90222 0.86803 0.0
C1463 C 0.57161 0.83033 0.87779 0.0
N1464 N 0.52581 0.81671 0.90366 0.0
N1465 N 0.58293 0.88912 0.83098 0.0
H1466 H 0.5893 0.77663 0.90738 0.0
H1467 H 0.59923 0.82536 0.87701 0.0
H1468 H 0.58179 0.92452 0.81192 0.0
H1469 H 0.59399 0.85657 0.83036 0.0
H1470 H 0.51332 0.83367 0.89773 0.0
H1471 H 0.52604 0.77477 0.9201 0.0
H1472 H 0.51466 0.94011 0.8818 0.0
H1473 H 0.52358 0.98463 0.84918 0.0
C1474 C 0.73006 0.42727 0.87448 0.0
C1475 C 0.71465 0.44727 0.89091 0.0
C1476 C 0.69789 0.36341 0.85768 0.0
C1477 C 0.71348 0.33669 0.84424 0.0
N1478 N 0.74468 0.3395 0.84093 0.0
N1479 N 0.68418 0.42842 0.90076 0.0
C1480 C 0.72965 0.36821 0.85271 0.0
C1481 C 0.69862 0.4137 0.88316 0.0
N1482 N 0.74509 0.46506 0.87958 0.0
N1483 N 0.68235 0.34119 0.84549 0.0
H1484 H 0.68452 0.46328 0.92005 0.0
H1485 H 0.6724 0.40129 0.89821 0.0
H1486 H 0.68175 0.30684 0.826 0.0
H1487 H 0.67037 0.36233 0.85226 0.0
H1488 H 0.75623 0.45891 0.86587 0.0
H1489 H 0.74614 0.50579 0.89653 0.0
H1490 H 0.75702 0.35338 0.84907 0.0
H1491 H 0.74474 0.29893 0.82379 0.0
C1492 C 0.57173 0.39899 0.36857 0.0
C1493 C 0.5569 0.42354 0.35185 0.0
C1494 C 0.53921 0.3321 0.37924 0.0
C1495 C 0.55379 0.31327 0.39822 0.0
N1496 N 0.58296 0.33869 0.41504 0.0
N1497 N 0.5259 0.41937 0.34374 0.0
C1498 C 0.56974 0.35004 0.39415 0.0
C1499 C 0.54043 0.39147 0.35775 0.0
N1500 N 0.58784 0.42038 0.35895 0.0
N1501 N 0.52425 0.29251 0.3815 0.0
H1502 H 0.52643 0.46088 0.32711 0.0
H1503 H 0.5133 0.40418 0.34984 0.0
H1504 H 0.52259 0.25179 0.39828 0.0
H1505 H 0.51388 0.29763 0.36584 0.0
H1506 H 0.59938 0.40018 0.36838 0.0
H1507 H 0.5895 0.45182 0.3388 0.0
H1508 H 0.59446 0.36843 0.41499 0.0
H1509 H 0.58149 0.30482 0.43452 0.0
C1510 C 0.69788 0.91534 0.37325 0.0
C1511 C 0.71331 0.94562 0.38607 0.0
C1512 C 0.73076 0.86301 0.35313 0.0
C1513 C 0.71529 0.83532 0.33932 0.0
N1514 N 0.68457 0.8456 0.33102 0.0
N1515 N 0.74454 0.95647 0.38485 0.0
C1516 C 0.69899 0.86517 0.34775 0.0
C1517 C 0.7298 0.9219 0.37494 0.0
N1518 N 0.6822 0.9324 0.38638 0.0
N1519 N 0.74633 0.83117 0.34614 0.0
H1520 H 0.74441 -0.00257 0.4018 0.0
H1521 H 0.75677 0.94757 0.37503 0.0
H1522 H 0.74754 0.79101 0.32895 0.0
H1523 H 0.75783 0.84213 0.35821 0.0
H1524 H 0.67053 0.9078 0.38006 0.0
H1525 H 0.68118 0.96607 0.406 0.0
H1526 H 0.67237 0.86903 0.33406 0.0
H1527 H 0.68539 0.81084 0.31169 0.0
C1528 C 0.48205 0.12811 0.10384 0.0
C1529 C 0.46614 0.15649 0.0922 0.0
C1530 C 0.44997 0.07917 0.12917 0.0
C1531 C 0.46578 0.048 0.13976 0.0
N1532 N 0.49681 0.03475 0.13407 0.0
N1533 N 0.43511 0.14824 0.08852 0.0
C1534 C 0.48182 0.07005 0.12609 0.0
C1535 C 0.45014 0.12835 0.10327 0.0
N1536 N 0.49739 0.15857 0.09443 0.0
N1537 N 0.43485 0.06343 0.14459 0.0
H1538 H 0.43523 0.1819 0.0688 0.0
H1539 H 0.42299 0.12595 0.09354 0.0
H1540 H 0.43457 0.03007 0.1644 0.0
H1541 H 0.42303 0.08869 0.13988 0.0
H1542 H 0.50934 0.14709 0.10484 0.0
H1543 H 0.49801 0.19816 0.07691 0.0
H1544 H 0.50858 0.04223 0.12238 0.0
H1545 H 0.49727 0.99479 0.15142 0.0
C1546 C 0.32101 0.62971 0.15289 0.0
C1547 C 0.30557 0.6702 0.15626 0.0
C1548 C 0.29171 0.59472 0.11524 0.0
C1549 C 0.3079 0.56028 0.10944 0.0
N1550 N 0.3388 0.55836 0.11765 0.0
N1551 N 0.27637 0.69599 0.13899 0.0
C1552 C 0.32277 0.58139 0.12701 0.0
C1553 C 0.29093 0.65392 0.13693 0.0
N1554 N 0.33401 0.63741 0.17451 0.0
N1555 N 0.27701 0.56951 0.10084 0.0
H1556 H 0.27498 0.7364 0.15603 0.0
H1557 H 0.26607 0.69297 0.12307 0.0
H1558 H 0.2772 0.52798 0.08418 0.0
H1559 H 0.26453 0.58673 0.10677 0.0
H1560 H 0.34499 0.60438 0.17492 0.0
H1561 H 0.3328 0.67148 0.19403 0.0
H1562 H 0.35038 0.57621 0.1278 0.0
H1563 H 0.3404 0.52874 0.09697 0.0
C1564 C 0.44673 0.60894 0.64736 0.0
C1565 C 0.46254 0.58412 0.66079 0.0
C1566 C 0.47861 0.67281 0.62871 0.0
C1567 C 0.46295 0.69194 0.61287 0.0
N1568 N 0.43242 0.67203 0.60426 0.0
N1569 N 0.4938 0.58757 0.66262 0.0
C1570 C 0.44709 0.65811 0.62141 0.0
C1571 C 0.47856 0.61521 0.65119 0.0
N1572 N 0.43136 0.58639 0.6601 0.0
N1573 N 0.49354 0.71041 0.6225 0.0
H1574 H 0.49418 0.54817 0.68023 0.0
H1575 H 0.50599 0.60101 0.6537 0.0
H1576 H 0.49434 0.74967 0.60488 0.0
H1577 H 0.50486 0.70542 0.63581 0.0
H1578 H 0.41925 0.6062 0.65333 0.0
H1579 H 0.43097 0.55306 0.67994 0.0
H1580 H 0.4207 0.6448 0.60739 0.0
H1581 H 0.43246 0.70644 0.58479 0.0
C1582 C 0.29949 0.05002 0.64676 0.0
C1583 C 0.30179 0.05601 0.6133 0.0
C1584 C 0.29948 0.18663 0.62014 0.0
C1585 C 0.30246 0.18056 0.65336 0.0
N1586 N 0.30832 0.09907 0.69701 0.0
N1587 N 0.30763 0.13793 0.56964 0.0
C1588 C 0.30337 0.11017 0.66646 0.0
C1589 C 0.30286 0.1265 0.60026 0.0
N1590 N 0.2926 0.98902 0.65991 0.0
N1591 N 0.29258 0.24813 0.60746 0.0
H1592 H 0.31178 0.09724 0.5545 0.0
H1593 H 0.30956 0.1898 0.56063 0.0
H1594 H 0.28759 0.28989 0.62131 0.0
H1595 H 0.28941 0.2523 0.58357 0.0
H1596 H 0.28993 0.985 0.68399 0.0
H1597 H 0.28702 0.94786 0.64648 0.0
H1598 H 0.31032 0.04732 0.7061 0.0
H1599 H 0.31229 0.14021 0.7121 0.0
loop_
_geom_bond_atom_site_label_1
_geom_bond_atom_site_label_2
_geom_bond_distance
_geom_bond_site_symmetry_2
_ccdc_geom_bond_type
Co0 O1 2.216 . S
Co0 O2 2.091 . S
Co0 O4 2.004 . S
Co0 O10 2.021 . S
Co0 O12 2.137 . S
Co0 O13 2.244 . S
O1 Co0 2.216 . S
O1 C8 1.247 . S
O2 Co0 2.091 . S
O2 C8 1.261 . S
C3 O12 1.247 . S
C3 O13 1.272 . S
O4 Co0 2.004 . S
O4 C9 1.259 . S
Co5 O6 2.061 . S
Co5 O11 2.052 . S
Co5 O13 2.135 . S
O6 Co5 2.061 . S
O6 C9 1.235 . S
C7 O10 1.238 . S
C7 O11 1.241 . S
C8 O1 1.247 . S
C8 O2 1.261 . S
C9 O4 1.259 . S
C9 O6 1.235 . S
O10 Co0 2.021 . S
O10 C7 1.238 . S
O11 Co5 2.052 . S
O11 C7 1.241 . S
O12 Co0 2.137 . S
O12 C3 1.247 . S
O13 Co0 2.244 . S
O13 C3 1.272 . S
O13 Co5 2.135 . S
Co14 O15 2.216 . S
Co14 O16 2.091 . S
Co14 O18 2.004 . S
Co14 O24 2.021 . S
Co14 O26 2.137 . S
Co14 O27 2.244 . S
O15 Co14 2.216 . S
O15 C22 1.247 . S
O16 Co14 2.091 . S
O16 C22 1.261 . S
C17 O26 1.247 . S
C17 O27 1.272 . S
O18 Co14 2.004 . S
O18 C23 1.259 . S
Co19 O20 2.061 . S
Co19 O25 2.052 . S
Co19 O27 2.135 . S
O20 Co19 2.061 . S
O20 C23 1.235 . S
C21 O24 1.238 1_565 S
C21 O25 1.241 1_565 S
C22 O15 1.247 . S
C22 O16 1.261 . S
C23 O18 1.259 . S
C23 O20 1.235 . S
O24 Co14 2.021 . S
O24 C21 1.238 1_545 S
O25 Co19 2.052 . S
O25 C21 1.241 1_545 S
O26 Co14 2.137 . S
O26 C17 1.247 . S
O27 Co14 2.244 . S
O27 C17 1.272 . S
O27 Co19 2.135 . S
Co28 O29 2.216 . S
Co28 O30 2.091 . S
Co28 O32 2.004 . S
Co28 O38 2.021 . S
Co28 O40 2.137 . S
Co28 O41 2.244 . S
O29 Co28 2.216 . S
O29 C36 1.247 . S
O30 Co28 2.091 . S
O30 C36 1.261 . S
C31 O40 1.247 . S
C31 O41 1.272 . S
O32 Co28 2.004 . S
O32 C37 1.259 . S
Co33 O34 2.061 . S
Co33 O39 2.052 . S
Co33 O41 2.135 . S
O34 Co33 2.061 . S
O34 C37 1.235 . S
C35 O38 1.238 1_565 S
C35 O39 1.241 1_565 S
C36 O29 1.247 . S
C36 O30 1.261 . S
C37 O32 1.259 . S
C37 O34 1.235 . S
O38 Co28 2.021 . S
O38 C35 1.238 1_545 S
O39 Co33 2.052 . S
O39 C35 1.241 1_545 S
O40 Co28 2.137 . S
O40 C31 1.247 . S
O41 Co28 2.244 . S
O41 C31 1.272 . S
O41 Co33 2.135 . S
Co42 O43 2.216 . S
Co42 O44 2.091 . S
Co42 O46 2.004 . S
Co42 O52 2.021 . S
Co42 O54 2.137 . S
Co42 O55 2.244 . S
O43 Co42 2.216 . S
O43 C50 1.247 . S
O44 Co42 2.091 . S
O44 C50 1.261 . S
C45 O54 1.247 . S
C45 O55 1.272 . S
O46 Co42 2.004 . S
O46 C51 1.259 . S
Co47 O48 2.061 . S
Co47 O53 2.052 . S
Co47 O55 2.135 . S
O48 Co47 2.061 . S
O48 C51 1.235 . S
C49 O52 1.238 . S
C49 O53 1.241 . S
C50 O43 1.247 . S
C50 O44 1.261 . S
C51 O46 1.259 . S
C51 O48 1.235 . S
O52 Co42 2.021 . S
O52 C49 1.238 . S
O53 Co47 2.052 . S
O53 C49 1.241 . S
O54 Co42 2.137 . S
O54 C45 1.247 . S
O55 Co42 2.244 . S
O55 C45 1.272 . S
O55 Co47 2.135 . S
Co56 O57 2.216 . S
Co56 O58 2.091 . S
Co56 O60 2.004 . S
Co56 O66 2.021 . S
Co56 O68 2.137 . S
Co56 O69 2.244 . S
O57 Co56 2.216 . S
O57 C64 1.247 . S
O58 Co56 2.091 . S
O58 C64 1.261 . S
C59 O68 1.247 . S
C59 O69 1.272 . S
O60 Co56 2.004 . S
O60 C65 1.259 . S
Co61 O62 2.061 . S
Co61 O67 2.052 . S
Co61 O69 2.135 . S
O62 Co61 2.061 . S
O62 C65 1.235 . S
C63 O66 1.238 . S
C63 O67 1.241 . S
C64 O57 1.247 . S
C64 O58 1.261 . S
C65 O60 1.259 . S
C65 O62 1.235 . S
O66 Co56 2.021 . S
O66 C63 1.238 . S
O67 Co61 2.052 . S
O67 C63 1.241 . S
O68 Co56 2.137 . S
O68 C59 1.247 . S
O69 Co56 2.244 . S
O69 C59 1.272 . S
O69 Co61 2.135 . S
Co70 O71 2.216 . S
Co70 O72 2.091 . S
Co70 O74 2.004 . S
Co70 O80 2.021 . S
Co70 O82 2.137 . S
Co70 O83 2.244 . S
O71 Co70 2.216 . S
O71 C78 1.247 . S
O72 Co70 2.091 . S
O72 C78 1.261 . S
C73 O82 1.247 . S
C73 O83 1.272 . S
O74 Co70 2.004 . S
O74 C79 1.259 . S
Co75 O76 2.061 . S
Co75 O81 2.052 . S
Co75 O83 2.135 . S
O76 Co75 2.061 . S
O76 C79 1.235 . S
C77 O80 1.238 1_545 S
C77 O81 1.241 1_545 S
C78 O71 1.247 . S
C78 O72 1.261 . S
C79 O74 1.259 . S
C79 O76 1.235 . S
O80 Co70 2.021 . S
O80 C77 1.238 1_565 S
O81 Co75 2.052 . S
O81 C77 1.241 1_565 S
O82 Co70 2.137 . S
O82 C73 1.247 . S
O83 Co70 2.244 . S
O83 C73 1.272 . S
O83 Co75 2.135 . S
Co84 O85 2.216 . S
Co84 O86 2.091 . S
Co84 O88 2.004 . S
Co84 O94 2.021 . S
Co84 O96 2.137 . S
Co84 O97 2.244 . S
O85 Co84 2.216 . S
O85 C92 1.247 . S
O86 Co84 2.091 . S
O86 C92 1.261 . S
C87 O96 1.247 . S
C87 O97 1.272 . S
O88 Co84 2.004 . S
O88 C93 1.259 . S
Co89 O90 2.061 . S
Co89 O95 2.052 . S
Co89 O97 2.135 . S
O90 Co89 2.061 . S
O90 C93 1.235 . S
C91 O94 1.238 1_545 S
C91 O95 1.241 1_545 S
C92 O85 1.247 . S
C92 O86 1.261 . S
C93 O88 1.259 . S
C93 O90 1.235 . S
O94 Co84 2.021 . S
O94 C91 1.238 1_565 S
O95 Co89 2.052 . S
O95 C91 1.241 1_565 S
O96 Co84 2.137 . S
O96 C87 1.247 . S
O97 Co84 2.244 . S
O97 C87 1.272 . S
O97 Co89 2.135 . S
Co98 O99 2.216 . S
Co98 O100 2.091 . S
Co98 O102 2.004 . S
Co98 O108 2.021 . S
Co98 O110 2.137 . S
Co98 O111 2.244 . S
O99 Co98 2.216 . S
O99 C106 1.247 . S
O100 Co98 2.091 . S
O100 C106 1.261 . S
C101 O110 1.247 . S
C101 O111 1.272 . S
O102 Co98 2.004 . S
O102 C107 1.259 . S
Co103 O104 2.061 . S
Co103 O109 2.052 . S
Co103 O111 2.135 . S
O104 Co103 2.061 . S
O104 C107 1.235 . S
C105 O108 1.238 . S
C105 O109 1.241 . S
C106 O99 1.247 . S
C106 O100 1.261 . S
C107 O102 1.259 . S
C107 O104 1.235 . S
O108 Co98 2.021 . S
O108 C105 1.238 . S
O109 Co103 2.052 . S
O109 C105 1.241 . S
O110 Co98 2.137 . S
O110 C101 1.247 . S
O111 Co98 2.244 . S
O111 C101 1.272 . S
O111 Co103 2.135 . S
Co112 O113 2.216 . S
Co112 O114 2.091 . S
Co112 O116 2.004 . S
Co112 O122 2.021 . S
Co112 O124 2.137 . S
Co112 O125 2.244 . S
O113 Co112 2.216 . S
O113 C120 1.247 . S
O114 Co112 2.091 . S
O114 C120 1.261 . S
C115 O124 1.247 . S
C115 O125 1.272 . S
O116 Co112 2.004 . S
O116 C121 1.259 . S
Co117 O118 2.061 . S
Co117 O123 2.052 . S
Co117 O125 2.135 . S
O118 Co117 2.061 . S
O118 C121 1.235 . S
C119 O122 1.238 . S
C119 O123 1.241 . S
C120 O113 1.247 . S
C120 O114 1.261 . S
C121 O116 1.259 . S
C121 O118 1.235 . S
O122 Co112 2.021 . S
O122 C119 1.238 . S
O123 Co117 2.052 . S
O123 C119 1.241 . S
O124 Co112 2.137 . S
O124 C115 1.247 . S
O125 Co112 2.244 . S
O125 C115 1.272 . S
O125 Co117 2.135 . S
Co126 O127 2.216 . S
Co126 O128 2.091 . S
Co126 O130 2.004 . S
Co126 O136 2.021 . S
Co126 O138 2.137 . S
Co126 O139 2.244 . S
O127 Co126 2.216 . S
O127 C134 1.247 . S
O128 Co126 2.091 . S
O128 C134 1.261 . S
C129 O138 1.247 . S
C129 O139 1.272 . S
O130 Co126 2.004 . S
O130 C135 1.259 . S
Co131 O132 2.061 . S
Co131 O137 2.052 . S
Co131 O139 2.135 . S
O132 Co131 2.061 . S
O132 C135 1.235 . S
C133 O136 1.238 . S
C133 O137 1.241 . S
C134 O127 1.247 . S
C134 O128 1.261 . S
C135 O130 1.259 . S
C135 O132 1.235 . S
O136 Co126 2.021 . S
O136 C133 1.238 . S
O137 Co131 2.052 . S
O137 C133 1.241 . S
O138 Co126 2.137 . S
O138 C129 1.247 . S
O139 Co126 2.244 . S
O139 C129 1.272 . S
O139 Co131 2.135 . S
Co140 O141 2.216 . S
Co140 O142 2.091 . S
Co140 O144 2.004 . S
Co140 O150 2.021 . S
Co140 O152 2.137 . S
Co140 O153 2.244 . S
O141 Co140 2.216 . S
O141 C148 1.247 . S
O142 Co140 2.091 . S
O142 C148 1.261 . S
C143 O152 1.247 . S
C143 O153 1.272 . S
O144 Co140 2.004 . S
O144 C149 1.259 . S
Co145 O146 2.061 . S
Co145 O151 2.052 . S
Co145 O153 2.135 . S
O146 Co145 2.061 . S
O146 C149 1.235 . S
C147 O150 1.238 . S
C147 O151 1.241 . S
C148 O141 1.247 . S
C148 O142 1.261 . S
C149 O144 1.259 . S
C149 O146 1.235 . S
O150 Co140 2.021 . S
O150 C147 1.238 . S
O151 Co145 2.052 . S
O151 C147 1.241 . S
O152 Co140 2.137 . S
O152 C143 1.247 . S
O153 Co140 2.244 . S
O153 C143 1.272 . S
O153 Co145 2.135 . S
Co154 O155 2.216 . S
Co154 O156 2.091 . S
Co154 O158 2.004 . S
Co154 O164 2.021 . S
Co154 O166 2.137 . S
Co154 O167 2.244 . S
O155 Co154 2.216 . S
O155 C162 1.247 . S
O156 Co154 2.091 . S
O156 C162 1.261 . S
C157 O166 1.247 . S
C157 O167 1.272 . S
O158 Co154 2.004 . S
O158 C163 1.259 . S
Co159 O160 2.061 . S
Co159 O165 2.052 . S
Co159 O167 2.135 . S
O160 Co159 2.061 . S
O160 C163 1.235 . S
C161 O164 1.238 . S
C161 O165 1.241 . S
C162 O155 1.247 . S
C162 O156 1.261 . S
C163 O158 1.259 . S
C163 O160 1.235 . S
O164 Co154 2.021 . S
O164 C161 1.238 . S
O165 Co159 2.052 . S
O165 C161 1.241 . S
O166 Co154 2.137 . S
O166 C157 1.247 . S
O167 Co154 2.244 . S
O167 C157 1.272 . S
O167 Co159 2.135 . S
Co168 O169 2.216 . S
Co168 O170 2.091 . S
Co168 O172 2.004 . S
Co168 O178 2.021 . S
Co168 O180 2.137 . S
Co168 O181 2.244 . S
O169 Co168 2.216 . S
O169 C176 1.247 . S
O170 Co168 2.091 . S
O170 C176 1.261 . S
C171 O180 1.247 . S
C171 O181 1.272 . S
O172 Co168 2.004 . S
O172 C177 1.259 . S
Co173 O174 2.061 . S
Co173 O179 2.052 . S
Co173 O181 2.135 . S
O174 Co173 2.061 . S
O174 C177 1.235 . S
C175 O178 1.238 . S
C175 O179 1.241 . S
C176 O169 1.247 . S
C176 O170 1.261 . S
C177 O172 1.259 . S
C177 O174 1.235 . S
O178 Co168 2.021 . S
O178 C175 1.238 . S
O179 Co173 2.052 . S
O179 C175 1.241 . S
O180 Co168 2.137 . S
O180 C171 1.247 . S
O181 Co168 2.244 . S
O181 C171 1.272 . S
O181 Co173 2.135 . S
Co182 O183 2.216 . S
Co182 O184 2.091 . S
Co182 O186 2.004 . S
Co182 O192 2.021 . S
Co182 O194 2.137 . S
Co182 O195 2.244 . S
O183 Co182 2.216 . S
O183 C190 1.247 . S
O184 Co182 2.091 . S
O184 C190 1.261 . S
C185 O194 1.247 . S
C185 O195 1.272 . S
O186 Co182 2.004 . S
O186 C191 1.259 . S
Co187 O188 2.061 . S
Co187 O193 2.052 . S
Co187 O195 2.135 . S
O188 Co187 2.061 . S
O188 C191 1.235 . S
C189 O192 1.238 . S
C189 O193 1.241 . S
C190 O183 1.247 . S
C190 O184 1.261 . S
C191 O186 1.259 . S
C191 O188 1.235 . S
O192 Co182 2.021 . S
O192 C189 1.238 . S
O193 Co187 2.052 . S
O193 C189 1.241 . S
O194 Co182 2.137 . S
O194 C185 1.247 . S
O195 Co182 2.244 . S
O195 C185 1.272 . S
O195 Co187 2.135 . S
Co196 O197 2.216 . S
Co196 O198 2.091 . S
Co196 O200 2.004 . S
Co196 O206 2.021 . S
Co196 O208 2.137 . S
Co196 O209 2.244 . S
O197 Co196 2.216 . S
O197 C204 1.247 . S
O198 Co196 2.091 . S
O198 C204 1.261 . S
C199 O208 1.247 . S
C199 O209 1.272 . S
O200 Co196 2.004 . S
O200 C205 1.259 . S
Co201 O202 2.061 . S
Co201 O207 2.052 . S
Co201 O209 2.135 . S
O202 Co201 2.061 . S
O202 C205 1.235 . S
C203 O206 1.238 . S
C203 O207 1.241 . S
C204 O197 1.247 . S
C204 O198 1.261 . S
C205 O200 1.259 . S
C205 O202 1.235 . S
O206 Co196 2.021 . S
O206 C203 1.238 . S
O207 Co201 2.052 . S
O207 C203 1.241 . S
O208 Co196 2.137 . S
O208 C199 1.247 . S
O209 Co196 2.244 . S
O209 C199 1.272 . S
O209 Co201 2.135 . S
Co210 O211 2.216 . S
Co210 O212 2.091 . S
Co210 O214 2.004 . S
Co210 O220 2.021 . S
Co210 O222 2.137 . S
Co210 O223 2.244 . S
O211 Co210 2.216 . S
O211 C218 1.247 . S
O212 Co210 2.091 . S
O212 C218 1.261 . S
C213 O222 1.247 . S
C213 O223 1.272 . S
O214 Co210 2.004 . S
O214 C219 1.259 . S
Co215 O216 2.061 . S
Co215 O221 2.052 . S
Co215 O223 2.135 . S
O216 Co215 2.061 . S
O216 C219 1.235 . S
C217 O220 1.238 . S
C217 O221 1.241 . S
C218 O211 1.247 . S
C218 O212 1.261 . S
C219 O214 1.259 . S
C219 O216 1.235 . S
O220 Co210 2.021 . S
O220 C217 1.238 . S
O221 Co215 2.052 . S
O221 C217 1.241 . S
O222 Co210 2.137 . S
O222 C213 1.247 . S
O223 Co210 2.244 . S
O223 C213 1.272 . S
O223 Co215 2.135 . S
Co224 O225 2.216 . S
Co224 O226 2.091 . S
Co224 O228 2.004 . S
Co224 O234 2.021 . S
Co224 O236 2.137 . S
Co224 O237 2.244 . S
O225 Co224 2.216 . S
O225 C232 1.247 . S
O226 Co224 2.091 . S
O226 C232 1.261 . S
C227 O236 1.247 . S
C227 O237 1.272 . S
O228 Co224 2.004 . S
O228 C233 1.259 . S
Co229 O230 2.061 . S
Co229 O235 2.052 . S
Co229 O237 2.135 . S
O230 Co229 2.061 . S
O230 C233 1.235 . S
C231 O234 1.238 . S
C231 O235 1.241 . S
C232 O225 1.247 . S
C232 O226 1.261 . S
C233 O228 1.259 . S
C233 O230 1.235 . S
O234 Co224 2.021 . S
O234 C231 1.238 . S
O235 Co229 2.052 . S
O235 C231 1.241 . S
O236 Co224 2.137 . S
O236 C227 1.247 . S
O237 Co224 2.244 . S
O237 C227 1.272 . S
O237 Co229 2.135 . S
Co238 O239 2.216 . S
Co238 O240 2.091 . S
Co238 O242 2.004 . S
Co238 O248 2.021 . S
Co238 O250 2.137 . S
Co238 O251 2.244 . S
O239 Co238 2.216 . S
O239 C246 1.247 . S
O240 Co238 2.091 . S
O240 C246 1.261 . S
C241 O250 1.247 . S
C241 O251 1.272 . S
O242 Co238 2.004 . S
O242 C247 1.259 . S
Co243 O244 2.061 . S
Co243 O249 2.052 . S
Co243 O251 2.135 . S
O244 Co243 2.061 . S
O244 C247 1.235 . S
C245 O248 1.238 1_565 S
C245 O249 1.241 1_565 S
C246 O239 1.247 . S
C246 O240 1.261 . S
C247 O242 1.259 . S
C247 O244 1.235 . S
O248 Co238 2.021 . S
O248 C245 1.238 1_545 S
O249 Co243 2.052 . S
O249 C245 1.241 1_545 S
O250 Co238 2.137 . S
O250 C241 1.247 . S
O251 Co238 2.244 . S
O251 C241 1.272 . S
O251 Co243 2.135 . S
Co252 O253 2.216 . S
Co252 O254 2.091 . S
Co252 O256 2.004 . S
Co252 O262 2.021 . S
Co252 O264 2.137 . S
Co252 O265 2.244 . S
O253 Co252 2.216 . S
O253 C260 1.247 . S
O254 Co252 2.091 . S
O254 C260 1.261 . S
C255 O264 1.247 . S
C255 O265 1.272 . S
O256 Co252 2.004 . S
O256 C261 1.259 . S
Co257 O258 2.061 . S
Co257 O263 2.052 . S
Co257 O265 2.135 . S
O258 Co257 2.061 . S
O258 C261 1.235 . S
C259 O262 1.238 1_565 S
C259 O263 1.241 1_565 S
C260 O253 1.247 . S
C260 O254 1.261 . S
C261 O256 1.259 . S
C261 O258 1.235 . S
O262 Co252 2.021 . S
O262 C259 1.238 1_545 S
O263 Co257 2.052 . S
O263 C259 1.241 1_545 S
O264 Co252 2.137 . S
O264 C255 1.247 . S
O265 Co252 2.244 . S
O265 C255 1.272 . S
O265 Co257 2.135 . S
Co266 O267 2.216 . S
Co266 O268 2.091 . S
Co266 O270 2.004 . S
Co266 O276 2.021 . S
Co266 O278 2.137 . S
Co266 O279 2.244 . S
O267 Co266 2.216 . S
O267 C274 1.247 . S
O268 Co266 2.091 . S
O268 C274 1.261 . S
C269 O278 1.247 . S
C269 O279 1.272 . S
O270 Co266 2.004 . S
O270 C275 1.259 . S
Co271 O272 2.061 . S
Co271 O277 2.052 . S
Co271 O279 2.135 . S
O272 Co271 2.061 . S
O272 C275 1.235 . S
C273 O276 1.238 . S
C273 O277 1.241 . S
C274 O267 1.247 . S
C274 O268 1.261 . S
C275 O270 1.259 . S
C275 O272 1.235 . S
O276 Co266 2.021 . S
O276 C273 1.238 . S
O277 Co271 2.052 . S
O277 C273 1.241 . S
O278 Co266 2.137 . S
O278 C269 1.247 . S
O279 Co266 2.244 . S
O279 C269 1.272 . S
O279 Co271 2.135 . S
Co280 O281 2.216 . S
Co280 O282 2.091 . S
Co280 O284 2.004 . S
Co280 O290 2.021 . S
Co280 O292 2.137 . S
Co280 O293 2.244 . S
O281 Co280 2.216 . S
O281 C288 1.247 . S
O282 Co280 2.091 . S
O282 C288 1.261 . S
C283 O292 1.247 . S
C283 O293 1.272 . S
O284 Co280 2.004 . S
O284 C289 1.259 . S
Co285 O286 2.061 . S
Co285 O291 2.052 . S
Co285 O293 2.135 . S
O286 Co285 2.061 . S
O286 C289 1.235 . S
C287 O290 1.238 . S
C287 O291 1.241 . S
C288 O281 1.247 . S
C288 O282 1.261 . S
C289 O284 1.259 . S
C289 O286 1.235 . S
O290 Co280 2.021 . S
O290 C287 1.238 . S
O291 Co285 2.052 . S
O291 C287 1.241 . S
O292 Co280 2.137 . S
O292 C283 1.247 . S
O293 Co280 2.244 . S
O293 C283 1.272 . S
O293 Co285 2.135 . S
Co294 O295 2.216 . S
Co294 O296 2.091 . S
Co294 O298 2.004 . S
Co294 O304 2.021 . S
Co294 O306 2.137 . S
Co294 O307 2.244 . S
O295 Co294 2.216 . S
O295 C302 1.247 . S
O296 Co294 2.091 . S
O296 C302 1.261 . S
C297 O306 1.247 . S
C297 O307 1.272 . S
O298 Co294 2.004 . S
O298 C303 1.259 . S
Co299 O300 2.061 . S
Co299 O305 2.052 . S
Co299 O307 2.135 . S
O300 Co299 2.061 . S
O300 C303 1.235 . S
C301 O304 1.238 1_545 S
C301 O305 1.241 1_545 S
C302 O295 1.247 . S
C302 O296 1.261 . S
C303 O298 1.259 . S
C303 O300 1.235 . S
O304 Co294 2.021 . S
O304 C301 1.238 1_565 S
O305 Co299 2.052 . S
O305 C301 1.241 1_565 S
O306 Co294 2.137 . S
O306 C297 1.247 . S
O307 Co294 2.244 . S
O307 C297 1.272 . S
O307 Co299 2.135 . S
Co308 O309 2.216 . S
Co308 O310 2.091 . S
Co308 O312 2.004 . S
Co308 O318 2.021 . S
Co308 O320 2.137 . S
Co308 O321 2.244 . S
O309 Co308 2.216 . S
O309 C316 1.247 . S
O310 Co308 2.091 . S
O310 C316 1.261 . S
C311 O320 1.247 . S
C311 O321 1.272 . S
O312 Co308 2.004 . S
O312 C317 1.259 . S
Co313 O314 2.061 . S
Co313 O319 2.052 . S
Co313 O321 2.135 . S
O314 Co313 2.061 . S
O314 C317 1.235 . S
C315 O318 1.238 1_545 S
C315 O319 1.241 1_545 S
C316 O309 1.247 . S
C316 O310 1.261 . S
C317 O312 1.259 . S
C317 O314 1.235 . S
O318 Co308 2.021 . S
O318 C315 1.238 1_565 S
O319 Co313 2.052 . S
O319 C315 1.241 1_565 S
O320 Co308 2.137 . S
O320 C311 1.247 . S
O321 Co308 2.244 . S
O321 C311 1.272 . S
O321 Co313 2.135 . S
Co322 O323 2.216 . S
Co322 O324 2.091 . S
Co322 O326 2.004 . S
Co322 O332 2.021 . S
Co322 O334 2.137 . S
Co322 O335 2.244 . S
O323 Co322 2.216 . S
O323 C330 1.247 . S
O324 Co322 2.091 . S
O324 C330 1.261 . S
C325 O334 1.247 . S
C325 O335 1.272 . S
O326 Co322 2.004 . S
O326 C331 1.259 . S
Co327 O328 2.061 . S
Co327 O333 2.052 . S
Co327 O335 2.135 . S
O328 Co327 2.061 . S
O328 C331 1.235 . S
C329 O332 1.238 . S
C329 O333 1.241 . S
C330 O323 1.247 . S
C330 O324 1.261 . S
C331 O326 1.259 . S
C331 O328 1.235 . S
O332 Co322 2.021 . S
O332 C329 1.238 . S
O333 Co327 2.052 . S
O333 C329 1.241 . S
O334 Co322 2.137 . S
O334 C325 1.247 . S
O335 Co322 2.244 . S
O335 C325 1.272 . S
O335 Co327 2.135 . S
Co336 O337 2.216 . S
Co336 O338 2.091 . S
Co336 O340 2.004 . S
Co336 O346 2.021 . S
Co336 O348 2.137 . S
Co336 O349 2.244 . S
O337 Co336 2.216 . S
O337 C344 1.247 . S
O338 Co336 2.091 . S
O338 C344 1.261 . S
C339 O348 1.247 . S
C339 O349 1.272 . S
O340 Co336 2.004 . S
O340 C345 1.259 . S
Co341 O342 2.061 . S
Co341 O347 2.052 . S
Co341 O349 2.135 . S
O342 Co341 2.061 . S
O342 C345 1.235 . S
C343 O346 1.238 . S
C343 O347 1.241 . S
C344 O337 1.247 . S
C344 O338 1.261 . S
C345 O340 1.259 . S
C345 O342 1.235 . S
O346 Co336 2.021 . S
O346 C343 1.238 . S
O347 Co341 2.052 . S
O347 C343 1.241 . S
O348 Co336 2.137 . S
O348 C339 1.247 . S
O349 Co336 2.244 . S
O349 C339 1.272 . S
O349 Co341 2.135 . S
Co350 O351 2.216 . S
Co350 O352 2.091 . S
Co350 O354 2.004 . S
Co350 O360 2.021 . S
Co350 O362 2.137 . S
Co350 O363 2.244 . S
O351 Co350 2.216 . S
O351 C358 1.247 . S
O352 Co350 2.091 . S
O352 C358 1.261 . S
C353 O362 1.247 . S
C353 O363 1.272 . S
O354 Co350 2.004 . S
O354 C359 1.259 . S
Co355 O356 2.061 . S
Co355 O361 2.052 . S
Co355 O363 2.135 . S
O356 Co355 2.061 . S
O356 C359 1.235 . S
C357 O360 1.238 . S
C357 O361 1.241 . S
C358 O351 1.247 . S
C358 O352 1.261 . S
C359 O354 1.259 . S
C359 O356 1.235 . S
O360 Co350 2.021 . S
O360 C357 1.238 . S
O361 Co355 2.052 . S
O361 C357 1.241 . S
O362 Co350 2.137 . S
O362 C353 1.247 . S
O363 Co350 2.244 . S
O363 C353 1.272 . S
O363 Co355 2.135 . S
Co364 O365 2.216 . S
Co364 O366 2.091 . S
Co364 O368 2.004 . S
Co364 O374 2.021 . S
Co364 O376 2.137 . S
Co364 O377 2.244 . S
O365 Co364 2.216 . S
O365 C372 1.247 . S
O366 Co364 2.091 . S
O366 C372 1.261 . S
C367 O376 1.247 . S
C367 O377 1.272 . S
O368 Co364 2.004 . S
O368 C373 1.259 . S
Co369 O370 2.061 . S
Co369 O375 2.052 . S
Co369 O377 2.135 . S
O370 Co369 2.061 . S
O370 C373 1.235 . S
C371 O374 1.238 . S
C371 O375 1.241 . S
C372 O365 1.247 . S
C372 O366 1.261 . S
C373 O368 1.259 . S
C373 O370 1.235 . S
O374 Co364 2.021 . S
O374 C371 1.238 . S
O375 Co369 2.052 . S
O375 C371 1.241 . S
O376 Co364 2.137 . S
O376 C367 1.247 . S
O377 Co364 2.244 . S
O377 C367 1.272 . S
O377 Co369 2.135 . S
Co378 O379 2.216 . S
Co378 O380 2.091 . S
Co378 O382 2.004 . S
Co378 O388 2.021 . S
Co378 O390 2.137 . S
Co378 O391 2.244 . S
O379 Co378 2.216 . S
O379 C386 1.247 . S
O380 Co378 2.091 . S
O380 C386 1.261 . S
C381 O390 1.247 . S
C381 O391 1.272 . S
O382 Co378 2.004 . S
O382 C387 1.259 . S
Co383 O384 2.061 . S
Co383 O389 2.052 . S
Co383 O391 2.135 . S
O384 Co383 2.061 . S
O384 C387 1.235 . S
C385 O388 1.238 . S
C385 O389 1.241 . S
C386 O379 1.247 . S
C386 O380 1.261 . S
C387 O382 1.259 . S
C387 O384 1.235 . S
O388 Co378 2.021 . S
O388 C385 1.238 . S
O389 Co383 2.052 . S
O389 C385 1.241 . S
O390 Co378 2.137 . S
O390 C381 1.247 . S
O391 Co378 2.244 . S
O391 C381 1.272 . S
O391 Co383 2.135 . S
Co392 O393 2.216 . S
Co392 O394 2.091 . S
Co392 O396 2.004 . S
Co392 O402 2.021 . S
Co392 O404 2.137 . S
Co392 O405 2.244 . S
O393 Co392 2.216 . S
O393 C400 1.247 . S
O394 Co392 2.091 . S
O394 C400 1.261 . S
C395 O404 1.247 . S
C395 O405 1.272 . S
O396 Co392 2.004 . S
O396 C401 1.259 . S
Co397 O398 2.061 . S
Co397 O403 2.052 . S
Co397 O405 2.135 . S
O398 Co397 2.061 . S
O398 C401 1.235 . S
C399 O402 1.238 . S
C399 O403 1.241 . S
C400 O393 1.247 . S
C400 O394 1.261 . S
C401 O396 1.259 . S
C401 O398 1.235 . S
O402 Co392 2.021 . S
O402 C399 1.238 . S
O403 Co397 2.052 . S
O403 C399 1.241 . S
O404 Co392 2.137 . S
O404 C395 1.247 . S
O405 Co392 2.244 . S
O405 C395 1.272 . S
O405 Co397 2.135 . S
Co406 O407 2.216 . S
Co406 O408 2.091 . S
Co406 O410 2.004 . S
Co406 O416 2.021 . S
Co406 O418 2.137 . S
Co406 O419 2.244 . S
O407 Co406 2.216 . S
O407 C414 1.247 . S
O408 Co406 2.091 . S
O408 C414 1.261 . S
C409 O418 1.247 . S
C409 O419 1.272 . S
O410 Co406 2.004 . S
O410 C415 1.259 . S
Co411 O412 2.061 . S
Co411 O417 2.052 . S
Co411 O419 2.135 . S
O412 Co411 2.061 . S
O412 C415 1.235 . S
C413 O416 1.238 . S
C413 O417 1.241 . S
C414 O407 1.247 . S
C414 O408 1.261 . S
C415 O410 1.259 . S
C415 O412 1.235 . S
O416 Co406 2.021 . S
O416 C413 1.238 . S
O417 Co411 2.052 . S
O417 C413 1.241 . S
O418 Co406 2.137 . S
O418 C409 1.247 . S
O419 Co406 2.244 . S
O419 C409 1.272 . S
O419 Co411 2.135 . S
Co420 O421 2.216 . S
Co420 O422 2.091 . S
Co420 O424 2.004 . S
Co420 O430 2.021 . S
Co420 O432 2.137 . S
Co420 O433 2.244 . S
O421 Co420 2.216 . S
O421 C428 1.247 . S
O422 Co420 2.091 . S
O422 C428 1.261 . S
C423 O432 1.247 . S
C423 O433 1.272 . S
O424 Co420 2.004 . S
O424 C429 1.259 . S
Co425 O426 2.061 . S
Co425 O431 2.052 . S
Co425 O433 2.135 . S
O426 Co425 2.061 . S
O426 C429 1.235 . S
C427 O430 1.238 . S
C427 O431 1.241 . S
C428 O421 1.247 . S
C428 O422 1.261 . S
C429 O424 1.259 . S
C429 O426 1.235 . S
O430 Co420 2.021 . S
O430 C427 1.238 . S
O431 Co425 2.052 . S
O431 C427 1.241 . S
O432 Co420 2.137 . S
O432 C423 1.247 . S
O433 Co420 2.244 . S
O433 C423 1.272 . S
O433 Co425 2.135 . S
Co434 O435 2.216 . S
Co434 O436 2.091 . S
Co434 O438 2.004 . S
Co434 O444 2.021 . S
Co434 O446 2.137 . S
Co434 O447 2.244 . S
O435 Co434 2.216 . S
O435 C442 1.247 . S
O436 Co434 2.091 . S
O436 C442 1.261 . S
C437 O446 1.247 . S
C437 O447 1.272 . S
O438 Co434 2.004 . S
O438 C443 1.259 . S
Co439 O440 2.061 . S
Co439 O445 2.052 . S
Co439 O447 2.135 . S
O440 Co439 2.061 . S
O440 C443 1.235 . S
C441 O444 1.238 . S
C441 O445 1.241 . S
C442 O435 1.247 . S
C442 O436 1.261 . S
C443 O438 1.259 . S
C443 O440 1.235 . S
O444 Co434 2.021 . S
O444 C441 1.238 . S
O445 Co439 2.052 . S
O445 C441 1.241 . S
O446 Co434 2.137 . S
O446 C437 1.247 . S
O447 Co434 2.244 . S
O447 C437 1.272 . S
O447 Co439 2.135 . S
C448 C449 1.363 . S
C448 C454 1.379 . S
C448 N456 1.356 . S
C449 C448 1.363 . S
C449 C455 1.363 . S
C450 C451 1.363 . S
C450 C455 1.379 . S
C450 N457 1.356 . S
C451 C450 1.363 . S
C451 C454 1.363 . S
N452 C454 1.356 . S
N452 H464 0.984 . S
N452 H465 0.985 . S
N453 C455 1.356 . S
N453 H458 0.984 . S
N453 H459 0.985 . S
C454 C448 1.379 . S
C454 C451 1.363 . S
C454 N452 1.356 . S
C455 C449 1.363 . S
C455 C450 1.379 . S
C455 N453 1.356 . S
N456 C448 1.356 . S
N456 H462 0.984 . S
N456 H463 0.984 . S
N457 C450 1.356 . S
N457 H460 0.984 . S
N457 H461 0.985 . S
H458 N453 0.984 . S
H459 N453 0.985 . S
H460 N457 0.984 . S
H461 N457 0.985 . S
H462 N456 0.984 . S
H463 N456 0.984 . S
H464 N452 0.984 . S
H465 N452 0.985 . S
C466 C467 1.363 . S
C466 C472 1.379 . S
C466 N474 1.356 . S
C467 C466 1.363 . S
C467 C473 1.363 . S
C468 C469 1.363 . S
C468 C473 1.379 . S
C468 N475 1.356 . S
C469 C468 1.363 . S
C469 C472 1.363 . S
N470 C472 1.356 . S
N470 H482 0.984 . S
N470 H483 0.985 . S
N471 C473 1.356 . S
N471 H476 0.984 . S
N471 H477 0.985 . S
C472 C466 1.379 . S
C472 C469 1.363 . S
C472 N470 1.356 . S
C473 C467 1.363 . S
C473 C468 1.379 . S
C473 N471 1.356 . S
N474 C466 1.356 . S
N474 H480 0.984 . S
N474 H481 0.984 . S
N475 C468 1.356 . S
N475 H478 0.984 . S
N475 H479 0.985 . S
H476 N471 0.984 . S
H477 N471 0.985 . S
H478 N475 0.984 . S
H479 N475 0.985 . S
H480 N474 0.984 . S
H481 N474 0.984 . S
H482 N470 0.984 . S
H483 N470 0.985 . S
C484 C485 1.363 . S
C484 C490 1.379 . S
C484 N492 1.356 . S
C485 C484 1.363 . S
C485 C491 1.363 . S
C486 C487 1.363 . S
C486 C491 1.379 . S
C486 N493 1.356 . S
C487 C486 1.363 . S
C487 C490 1.363 . S
N488 C490 1.356 . S
N488 H500 0.984 . S
N488 H501 0.985 . S
N489 C491 1.356 . S
N489 H494 0.984 . S
N489 H495 0.985 . S
C490 C484 1.379 . S
C490 C487 1.363 . S
C490 N488 1.356 . S
C491 C485 1.363 . S
C491 C486 1.379 . S
C491 N489 1.356 . S
N492 C484 1.356 . S
N492 H498 0.984 . S
N492 H499 0.984 . S
N493 C486 1.356 . S
N493 H496 0.984 . S
N493 H497 0.985 . S
H494 N489 0.984 . S
H495 N489 0.985 . S
H496 N493 0.984 . S
H497 N493 0.985 . S
H498 N492 0.984 . S
H499 N492 0.984 . S
H500 N488 0.984 . S
H501 N488 0.985 . S
C502 C503 1.363 . S
C502 C508 1.379 . S
C502 N510 1.356 . S
C503 C502 1.363 . S
C503 C509 1.363 . S
C504 C505 1.363 . S
C504 C509 1.379 . S
C504 N511 1.356 . S
C505 C504 1.363 . S
C505 C508 1.363 . S
N506 C508 1.356 . S
N506 H518 0.984 . S
N506 H519 0.985 . S
N507 C509 1.356 . S
N507 H512 0.984 . S
N507 H513 0.985 . S
C508 C502 1.379 . S
C508 C505 1.363 . S
C508 N506 1.356 . S
C509 C503 1.363 . S
C509 C504 1.379 . S
C509 N507 1.356 . S
N510 C502 1.356 . S
N510 H516 0.984 . S
N510 H517 0.984 . S
N511 C504 1.356 . S
N511 H514 0.984 . S
N511 H515 0.985 . S
H512 N507 0.984 . S
H513 N507 0.985 . S
H514 N511 0.984 . S
H515 N511 0.985 . S
H516 N510 0.984 . S
H517 N510 0.984 . S
H518 N506 0.984 . S
H519 N506 0.985 . S
C520 C521 1.363 . S
C520 C526 1.379 . S
C520 N528 1.356 . S
C521 C520 1.363 . S
C521 C527 1.363 . S
C522 C523 1.363 . S
C522 C527 1.379 . S
C522 N529 1.356 . S
C523 C522 1.363 . S
C523 C526 1.363 . S
N524 C526 1.356 . S
N524 H536 0.984 . S
N524 H537 0.985 . S
N525 C527 1.356 . S
N525 H530 0.984 . S
N525 H531 0.985 . S
C526 C520 1.379 . S
C526 C523 1.363 . S
C526 N524 1.356 . S
C527 C521 1.363 . S
C527 C522 1.379 . S
C527 N525 1.356 . S
N528 C520 1.356 . S
N528 H534 0.984 . S
N528 H535 0.984 . S
N529 C522 1.356 . S
N529 H532 0.984 . S
N529 H533 0.985 . S
H530 N525 0.984 . S
H531 N525 0.985 . S
H532 N529 0.984 . S
H533 N529 0.985 . S
H534 N528 0.984 . S
H535 N528 0.984 . S
H536 N524 0.984 . S
H537 N524 0.985 . S
C538 C539 1.363 . S
C538 C544 1.379 . S
C538 N546 1.356 . S
C539 C538 1.363 . S
C539 C545 1.363 . S
C540 C541 1.363 . S
C540 C545 1.379 . S
C540 N547 1.356 . S
C541 C540 1.363 . S
C541 C544 1.363 . S
N542 C544 1.356 . S
N542 H554 0.984 . S
N542 H555 0.985 . S
N543 C545 1.356 . S
N543 H548 0.984 . S
N543 H549 0.985 . S
C544 C538 1.379 . S
C544 C541 1.363 . S
C544 N542 1.356 . S
C545 C539 1.363 . S
C545 C540 1.379 . S
C545 N543 1.356 . S
N546 C538 1.356 . S
N546 H552 0.984 . S
N546 H553 0.984 . S
N547 C540 1.356 . S
N547 H550 0.984 . S
N547 H551 0.985 . S
H548 N543 0.984 . S
H549 N543 0.985 . S
H550 N547 0.984 . S
H551 N547 0.985 . S
H552 N546 0.984 . S
H553 N546 0.984 . S
H554 N542 0.984 . S
H555 N542 0.985 . S
C556 C557 1.363 . S
C556 C562 1.379 . S
C556 N564 1.356 . S
C557 C556 1.363 . S
C557 C563 1.363 . S
C558 C559 1.363 . S
C558 C563 1.379 . S
C558 N565 1.356 . S
C559 C558 1.363 . S
C559 C562 1.363 . S
N560 C562 1.356 . S
N560 H572 0.984 . S
N560 H573 0.985 . S
N561 C563 1.356 . S
N561 H566 0.984 . S
N561 H567 0.985 . S
C562 C556 1.379 . S
C562 C559 1.363 . S
C562 N560 1.356 . S
C563 C557 1.363 . S
C563 C558 1.379 . S
C563 N561 1.356 . S
N564 C556 1.356 . S
N564 H570 0.984 . S
N564 H571 0.984 . S
N565 C558 1.356 . S
N565 H568 0.984 . S
N565 H569 0.985 . S
H566 N561 0.984 . S
H567 N561 0.985 . S
H568 N565 0.984 . S
H569 N565 0.985 . S
H570 N564 0.984 . S
H571 N564 0.984 . S
H572 N560 0.984 . S
H573 N560 0.985 . S
C574 C575 1.363 . S
C574 C580 1.379 . S
C574 N582 1.356 . S
C575 C574 1.363 . S
C575 C581 1.363 . S
C576 C577 1.363 . S
C576 C581 1.379 . S
C576 N583 1.356 . S
C577 C576 1.363 . S
C577 C580 1.363 . S
N578 C580 1.356 . S
N578 H590 0.984 . S
N578 H591 0.985 . S
N579 C581 1.356 . S
N579 H584 0.984 . S
N579 H585 0.985 . S
C580 C574 1.379 . S
C580 C577 1.363 . S
C580 N578 1.356 . S
C581 C575 1.363 . S
C581 C576 1.379 . S
C581 N579 1.356 . S
N582 C574 1.356 . S
N582 H588 0.984 . S
N582 H589 0.984 . S
N583 C576 1.356 . S
N583 H586 0.984 . S
N583 H587 0.985 . S
H584 N579 0.984 . S
H585 N579 0.985 . S
H586 N583 0.984 . S
H587 N583 0.985 . S
H588 N582 0.984 . S
H589 N582 0.984 . S
H590 N578 0.984 . S
H591 N578 0.985 . S
C592 C593 1.363 . S
C592 C598 1.379 . S
C592 N600 1.356 . S
C593 C592 1.363 . S
C593 C599 1.363 . S
C594 C595 1.363 . S
C594 C599 1.379 . S
C594 N601 1.356 . S
C595 C594 1.363 . S
C595 C598 1.363 . S
N596 C598 1.356 . S
N596 H608 0.984 . S
N596 H609 0.985 . S
N597 C599 1.356 . S
N597 H602 0.984 . S
N597 H603 0.985 . S
C598 C592 1.379 . S
C598 C595 1.363 . S
C598 N596 1.356 . S
C599 C593 1.363 . S
C599 C594 1.379 . S
C599 N597 1.356 . S
N600 C592 1.356 . S
N600 H606 0.984 . S
N600 H607 0.984 . S
N601 C594 1.356 . S
N601 H604 0.984 . S
N601 H605 0.985 . S
H602 N597 0.984 . S
H603 N597 0.985 . S
H604 N601 0.984 . S
H605 N601 0.985 . S
H606 N600 0.984 . S
H607 N600 0.984 . S
H608 N596 0.984 . S
H609 N596 0.985 . S
C610 C611 1.363 . S
C610 C616 1.379 . S
C610 N618 1.356 . S
C611 C610 1.363 . S
C611 C617 1.363 . S
C612 C613 1.363 . S
C612 C617 1.379 . S
C612 N619 1.356 . S
C613 C612 1.363 . S
C613 C616 1.363 . S
N614 C616 1.356 . S
N614 H626 0.984 . S
N614 H627 0.985 . S
N615 C617 1.356 . S
N615 H620 0.984 . S
N615 H621 0.985 . S
C616 C610 1.379 . S
C616 C613 1.363 . S
C616 N614 1.356 . S
C617 C611 1.363 . S
C617 C612 1.379 . S
C617 N615 1.356 . S
N618 C610 1.356 . S
N618 H624 0.984 . S
N618 H625 0.984 . S
N619 C612 1.356 . S
N619 H622 0.984 . S
N619 H623 0.985 . S
H620 N615 0.984 . S
H621 N615 0.985 . S
H622 N619 0.984 . S
H623 N619 0.985 . S
H624 N618 0.984 . S
H625 N618 0.984 . S
H626 N614 0.984 . S
H627 N614 0.985 . S
C628 C629 1.363 . S
C628 C634 1.379 . S
C628 N636 1.356 . S
C629 C628 1.363 . S
C629 C635 1.363 . S
C630 C631 1.363 . S
C630 C635 1.379 . S
C630 N637 1.356 . S
C631 C630 1.363 . S
C631 C634 1.363 . S
N632 C634 1.356 . S
N632 H644 0.984 . S
N632 H645 0.985 . S
N633 C635 1.356 . S
N633 H638 0.984 . S
N633 H639 0.985 . S
C634 C628 1.379 . S
C634 C631 1.363 . S
C634 N632 1.356 . S
C635 C629 1.363 . S
C635 C630 1.379 . S
C635 N633 1.356 . S
N636 C628 1.356 . S
N636 H642 0.984 . S
N636 H643 0.984 . S
N637 C630 1.356 . S
N637 H640 0.984 . S
N637 H641 0.985 . S
H638 N633 0.984 . S
H639 N633 0.985 . S
H640 N637 0.984 . S
H641 N637 0.985 . S
H642 N636 0.984 . S
H643 N636 0.984 . S
H644 N632 0.984 . S
H645 N632 0.985 . S
C646 C647 1.363 . S
C646 C652 1.379 . S
C646 N654 1.356 . S
C647 C646 1.363 . S
C647 C653 1.363 . S
C648 C649 1.363 . S
C648 C653 1.379 . S
C648 N655 1.356 . S
C649 C648 1.363 . S
C649 C652 1.363 . S
N650 C652 1.356 . S
N650 H662 0.984 . S
N650 H663 0.985 . S
N651 C653 1.356 . S
N651 H656 0.984 . S
N651 H657 0.985 . S
C652 C646 1.379 . S
C652 C649 1.363 . S
C652 N650 1.356 . S
C653 C647 1.363 . S
C653 C648 1.379 . S
C653 N651 1.356 . S
N654 C646 1.356 . S
N654 H660 0.984 . S
N654 H661 0.984 . S
N655 C648 1.356 . S
N655 H658 0.984 . S
N655 H659 0.985 . S
H656 N651 0.984 . S
H657 N651 0.985 . S
H658 N655 0.984 . S
H659 N655 0.985 . S
H660 N654 0.984 . S
H661 N654 0.984 . S
H662 N650 0.984 . S
H663 N650 0.985 . S
C664 C665 1.363 . S
C664 C670 1.379 . S
C664 N672 1.356 . S
C665 C664 1.363 . S
C665 C671 1.363 . S
C666 C667 1.363 . S
C666 C671 1.379 . S
C666 N673 1.356 . S
C667 C666 1.363 . S
C667 C670 1.363 . S
N668 C670 1.356 . S
N668 H680 0.984 . S
N668 H681 0.985 . S
N669 C671 1.356 . S
N669 H674 0.984 . S
N669 H675 0.985 . S
C670 C664 1.379 . S
C670 C667 1.363 . S
C670 N668 1.356 . S
C671 C665 1.363 . S
C671 C666 1.379 . S
C671 N669 1.356 . S
N672 C664 1.356 . S
N672 H678 0.984 . S
N672 H679 0.984 . S
N673 C666 1.356 . S
N673 H676 0.984 . S
N673 H677 0.985 . S
H674 N669 0.984 . S
H675 N669 0.985 . S
H676 N673 0.984 . S
H677 N673 0.985 . S
H678 N672 0.984 . S
H679 N672 0.984 . S
H680 N668 0.984 . S
H681 N668 0.985 . S
C682 C683 1.363 . S
C682 C688 1.379 . S
C682 N690 1.356 . S
C683 C682 1.363 . S
C683 C689 1.363 . S
C684 C685 1.363 . S
C684 C689 1.379 . S
C684 N691 1.356 . S
C685 C684 1.363 . S
C685 C688 1.363 . S
N686 C688 1.356 . S
N686 H698 0.984 . S
N686 H699 0.985 . S
N687 C689 1.356 . S
N687 H692 0.984 . S
N687 H693 0.985 . S
C688 C682 1.379 . S
C688 C685 1.363 . S
C688 N686 1.356 . S
C689 C683 1.363 . S
C689 C684 1.379 . S
C689 N687 1.356 . S
N690 C682 1.356 . S
N690 H696 0.984 . S
N690 H697 0.984 . S
N691 C684 1.356 . S
N691 H694 0.984 . S
N691 H695 0.985 . S
H692 N687 0.984 . S
H693 N687 0.985 . S
H694 N691 0.984 . S
H695 N691 0.985 . S
H696 N690 0.984 . S
H697 N690 0.984 . S
H698 N686 0.984 . S
H699 N686 0.985 . S
C700 C701 1.363 . S
C700 C706 1.379 . S
C700 N708 1.356 . S
C701 C700 1.363 . S
C701 C707 1.363 . S
C702 C703 1.363 . S
C702 C707 1.379 . S
C702 N709 1.356 . S
C703 C702 1.363 . S
C703 C706 1.363 . S
N704 C706 1.356 . S
N704 H716 0.984 . S
N704 H717 0.985 . S
N705 C707 1.356 . S
N705 H710 0.984 . S
N705 H711 0.985 . S
C706 C700 1.379 . S
C706 C703 1.363 . S
C706 N704 1.356 . S
C707 C701 1.363 . S
C707 C702 1.379 . S
C707 N705 1.356 . S
N708 C700 1.356 . S
N708 H714 0.984 . S
N708 H715 0.984 . S
N709 C702 1.356 . S
N709 H712 0.984 . S
N709 H713 0.985 . S
H710 N705 0.984 . S
H711 N705 0.985 . S
H712 N709 0.984 . S
H713 N709 0.985 . S
H714 N708 0.984 . S
H715 N708 0.984 . S
H716 N704 0.984 . S
H717 N704 0.985 . S
C718 C719 1.363 . S
C718 C724 1.379 . S
C718 N726 1.356 . S
C719 C718 1.363 . S
C719 C725 1.363 . S
C720 C721 1.363 . S
C720 C725 1.379 . S
C720 N727 1.356 . S
C721 C720 1.363 . S
C721 C724 1.363 . S
N722 C724 1.356 . S
N722 H734 0.984 . S
N722 H735 0.985 . S
N723 C725 1.356 . S
N723 H728 0.984 . S
N723 H729 0.985 1_554 S
C724 C718 1.379 . S
C724 C721 1.363 . S
C724 N722 1.356 . S
C725 C719 1.363 . S
C725 C720 1.379 . S
C725 N723 1.356 . S
N726 C718 1.356 . S
N726 H732 0.984 . S
N726 H733 0.984 . S
N727 C720 1.356 . S
N727 H730 0.984 . S
N727 H731 0.985 1_554 S
H728 N723 0.984 . S
H729 N723 0.985 1_556 S
H730 N727 0.984 . S
H731 N727 0.985 1_556 S
H732 N726 0.984 . S
H733 N726 0.984 . S
H734 N722 0.984 . S
H735 N722 0.985 . S
C736 C737 1.363 1_655 S
C736 C742 1.379 . S
C736 N744 1.356 . S
C737 C736 1.363 1_455 S
C737 C743 1.363 . S
C738 C739 1.363 1_455 S
C738 C743 1.379 . S
C738 N745 1.356 . S
C739 C738 1.363 1_655 S
C739 C742 1.363 . S
N740 C742 1.356 . S
N740 H752 0.984 . S
N740 H753 0.985 . S
N741 C743 1.356 . S
N741 H746 0.984 . S
N741 H747 0.985 . S
C742 C736 1.379 . S
C742 C739 1.363 . S
C742 N740 1.356 . S
C743 C737 1.363 . S
C743 C738 1.379 . S
C743 N741 1.356 . S
N744 C736 1.356 . S
N744 H750 0.984 . S
N744 H751 0.984 1_655 S
N745 C738 1.356 . S
N745 H748 0.984 1_455 S
N745 H749 0.985 . S
H746 N741 0.984 . S
H747 N741 0.985 . S
H748 N745 0.984 1_655 S
H749 N745 0.985 . S
H750 N744 0.984 . S
H751 N744 0.984 1_455 S
H752 N740 0.984 . S
H753 N740 0.985 . S
C754 C755 1.363 . S
C754 C760 1.379 1_545 S
C754 N762 1.356 . S
C755 C754 1.363 . S
C755 C761 1.363 . S
C756 C757 1.363 . S
C756 C761 1.379 1_565 S
C756 N763 1.356 . S
C757 C756 1.363 . S
C757 C760 1.363 . S
N758 C760 1.356 . S
N758 H770 0.984 . S
N758 H771 0.985 . S
N759 C761 1.356 . S
N759 H764 0.984 . S
N759 H765 0.985 . S
C760 C754 1.379 1_565 S
C760 C757 1.363 . S
C760 N758 1.356 . S
C761 C755 1.363 . S
C761 C756 1.379 1_545 S
C761 N759 1.356 . S
N762 C754 1.356 . S
N762 H768 0.984 . S
N762 H769 0.984 . S
N763 C756 1.356 . S
N763 H766 0.984 . S
N763 H767 0.985 . S
H764 N759 0.984 . S
H765 N759 0.985 . S
H766 N763 0.984 . S
H767 N763 0.985 . S
H768 N762 0.984 . S
H769 N762 0.984 . S
H770 N758 0.984 . S
H771 N758 0.985 . S
C772 C773 1.363 1_565 S
C772 C778 1.379 1_455 S
C772 N780 1.356 1_565 S
C773 C772 1.363 1_545 S
C773 C779 1.363 1_556 S
C774 C775 1.363 1_545 S
C774 C779 1.379 1_655 S
C774 N781 1.356 1_545 S
C775 C774 1.363 1_565 S
C775 C778 1.363 1_554 S
N776 C778 1.356 . S
N776 H788 0.984 . S
N776 H789 0.985 . S
N777 C779 1.356 . S
N777 H782 0.984 . S
N777 H783 0.985 . S
C778 C772 1.379 1_655 S
C778 C775 1.363 1_556 S
C778 N776 1.356 . S
C779 C773 1.363 1_554 S
C779 C774 1.379 1_455 S
C779 N777 1.356 . S
N780 C772 1.356 1_545 S
N780 H786 0.984 1_545 S
N780 H787 0.984 . S
N781 C774 1.356 1_565 S
N781 H784 0.984 . S
N781 H785 0.985 1_565 S
H782 N777 0.984 . S
H783 N777 0.985 . S
H784 N781 0.984 . S
H785 N781 0.985 1_545 S
H786 N780 0.984 1_565 S
H787 N780 0.984 . S
H788 N776 0.984 . S
H789 N776 0.985 . S
C790 C791 1.363 1_554 S
C790 C796 1.379 . S
C790 N798 1.356 . S
C791 C790 1.363 1_556 S
C791 C797 1.363 . S
C792 C793 1.363 1_556 S
C792 C797 1.379 . S
C792 N799 1.356 . S
C793 C792 1.363 1_554 S
C793 C796 1.363 . S
N794 C796 1.356 . S
N794 H806 0.984 . S
N794 H807 0.985 . S
N795 C797 1.356 . S
N795 H800 0.984 . S
N795 H801 0.985 . S
C796 C790 1.379 . S
C796 C793 1.363 . S
C796 N794 1.356 . S
C797 C791 1.363 . S
C797 C792 1.379 . S
C797 N795 1.356 . S
N798 C790 1.356 . S
N798 H804 0.984 . S
N798 H805 0.984 . S
N799 C792 1.356 . S
N799 H802 0.984 . S
N799 H803 0.985 . S
H800 N795 0.984 . S
H801 N795 0.985 . S
H802 N799 0.984 . S
H803 N799 0.985 . S
H804 N798 0.984 . S
H805 N798 0.984 . S
H806 N794 0.984 . S
H807 N794 0.985 . S
C808 C809 1.363 1_455 S
C808 C814 1.379 . S
C808 N816 1.356 . S
C809 C808 1.363 1_655 S
C809 C815 1.363 . S
C810 C811 1.363 1_655 S
C810 C815 1.379 . S
C810 N817 1.356 . S
C811 C810 1.363 1_455 S
C811 C814 1.363 . S
N812 C814 1.356 . S
N812 H824 0.984 . S
N812 H825 0.985 . S
N813 C815 1.356 . S
N813 H818 0.984 . S
N813 H819 0.985 . S
C814 C808 1.379 . S
C814 C811 1.363 . S
C814 N812 1.356 . S
C815 C809 1.363 . S
C815 C810 1.379 . S
C815 N813 1.356 . S
N816 C808 1.356 . S
N816 H822 0.981 . S
N816 H823 0.988 1_455 S
N817 C810 1.356 . S
N817 H820 0.988 1_655 S
N817 H821 0.981 . S
H818 N813 0.984 . S
H819 N813 0.985 . S
H820 N817 0.988 1_455 S
H821 N817 0.981 . S
H822 N816 0.981 . S
H823 N816 0.988 1_655 S
H824 N812 0.984 . S
H825 N812 0.985 . S
C826 C827 1.363 . S
C826 C832 1.379 1_545 S
C826 N834 1.356 . S
C827 C826 1.363 . S
C827 C833 1.363 . S
C828 C829 1.363 . S
C828 C833 1.379 1_565 S
C828 N835 1.356 . S
C829 C828 1.363 . S
C829 C832 1.363 . S
N830 C832 1.356 . S
N830 H842 0.984 . S
N830 H843 0.985 . S
N831 C833 1.356 . S
N831 H836 0.984 . S
N831 H837 0.985 . S
C832 C826 1.379 1_565 S
C832 C829 1.363 . S
C832 N830 1.356 . S
C833 C827 1.363 . S
C833 C828 1.379 1_545 S
C833 N831 1.356 . S
N834 C826 1.356 . S
N834 H840 0.984 . S
N834 H841 0.984 . S
N835 C828 1.356 . S
N835 H838 0.984 . S
N835 H839 0.985 . S
H836 N831 0.984 . S
H837 N831 0.985 . S
H838 N835 0.984 . S
H839 N835 0.985 . S
H840 N834 0.984 . S
H841 N834 0.984 . S
H842 N830 0.984 . S
H843 N830 0.985 . S
C844 C845 1.363 1_554 S
C844 C850 1.379 . S
C844 N852 1.356 . S
C845 C844 1.363 1_556 S
C845 C851 1.363 . S
C846 C847 1.363 1_556 S
C846 C851 1.379 . S
C846 N853 1.356 . S
C847 C846 1.363 1_554 S
C847 C850 1.363 . S
N848 C850 1.356 . S
N848 H860 0.984 . S
N848 H861 0.985 . S
N849 C851 1.356 . S
N849 H854 0.984 . S
N849 H855 0.985 . S
C850 C844 1.379 . S
C850 C847 1.363 . S
C850 N848 1.356 . S
C851 C845 1.363 . S
C851 C846 1.379 . S
C851 N849 1.356 . S
N852 C844 1.356 . S
N852 H858 0.984 . S
N852 H859 0.984 . S
N853 C846 1.356 . S
N853 H856 0.984 . S
N853 H857 0.985 . S
H854 N849 0.984 . S
H855 N849 0.985 . S
H856 N853 0.984 . S
H857 N853 0.985 . S
H858 N852 0.984 . S
H859 N852 0.984 . S
H860 N848 0.984 . S
H861 N848 0.985 . S
C862 C863 1.363 . S
C862 C868 1.379 . S
C862 N870 1.356 . S
C863 C862 1.363 . S
C863 C869 1.363 . S
C864 C865 1.363 . S
C864 C869 1.379 . S
C864 N871 1.356 . S
C865 C864 1.363 . S
C865 C868 1.363 . S
N866 C868 1.356 . S
N866 H878 0.984 . S
N866 H879 0.985 . S
N867 C869 1.356 . S
N867 H872 0.984 . S
N867 H873 0.985 . S
C868 C862 1.379 . S
C868 C865 1.363 . S
C868 N866 1.356 . S
C869 C863 1.363 . S
C869 C864 1.379 . S
C869 N867 1.356 . S
N870 C862 1.356 . S
N870 H876 0.984 . S
N870 H877 0.984 . S
N871 C864 1.356 . S
N871 H874 0.984 . S
N871 H875 0.985 . S
H872 N867 0.984 . S
H873 N867 0.985 . S
H874 N871 0.984 . S
H875 N871 0.985 . S
H876 N870 0.984 . S
H877 N870 0.984 . S
H878 N866 0.984 . S
H879 N866 0.985 . S
C880 C881 1.363 . S
C880 C886 1.379 . S
C880 N888 1.356 . S
C881 C880 1.363 . S
C881 C887 1.363 1_455 S
C882 C883 1.363 . S
C882 C887 1.379 . S
C882 N889 1.356 . S
C883 C882 1.363 . S
C883 C886 1.363 1_655 S
N884 C886 1.356 . S
N884 H896 0.984 . S
N884 H897 0.985 1_455 S
N885 C887 1.356 . S
N885 H890 0.984 1_655 S
N885 H891 0.985 . S
C886 C880 1.379 . S
C886 C883 1.363 1_455 S
C886 N884 1.356 . S
C887 C881 1.363 1_655 S
C887 C882 1.379 . S
C887 N885 1.356 . S
N888 C880 1.356 . S
N888 H894 0.984 . S
N888 H895 0.984 . S
N889 C882 1.356 . S
N889 H892 0.984 . S
N889 H893 0.985 . S
H890 N885 0.984 1_455 S
H891 N885 0.985 . S
H892 N889 0.984 . S
H893 N889 0.985 . S
H894 N888 0.984 . S
H895 N888 0.984 . S
H896 N884 0.984 . S
H897 N884 0.985 1_655 S
C898 C899 1.363 . S
C898 C904 1.379 . S
C898 N906 1.356 . S
C899 C898 1.363 . S
C899 C905 1.363 . S
C900 C901 1.363 . S
C900 C905 1.379 . S
C900 N907 1.356 . S
C901 C900 1.363 . S
C901 C904 1.363 . S
N902 C904 1.356 . S
N902 H914 0.984 . S
N902 H915 0.985 . S
N903 C905 1.356 . S
N903 H908 0.984 . S
N903 H909 0.985 . S
C904 C898 1.379 . S
C904 C901 1.363 . S
C904 N902 1.356 . S
C905 C899 1.363 . S
C905 C900 1.379 . S
C905 N903 1.356 . S
N906 C898 1.356 . S
N906 H912 0.984 . S
N906 H913 0.984 . S
N907 C900 1.356 . S
N907 H910 0.984 . S
N907 H911 0.985 . S
H908 N903 0.984 . S
H909 N903 0.985 . S
H910 N907 0.984 . S
H911 N907 0.985 . S
H912 N906 0.984 . S
H913 N906 0.984 . S
H914 N902 0.984 . S
H915 N902 0.985 . S
C916 C917 1.363 . S
C916 C922 1.379 . S
C916 N924 1.356 . S
C917 C916 1.363 . S
C917 C923 1.363 . S
C918 C919 1.363 . S
C918 C923 1.379 . S
C918 N925 1.356 . S
C919 C918 1.363 . S
C919 C922 1.363 . S
N920 C922 1.356 . S
N920 H932 0.984 . S
N920 H933 0.985 . S
N921 C923 1.356 . S
N921 H926 0.984 . S
N921 H927 0.985 . S
C922 C916 1.379 . S
C922 C919 1.363 . S
C922 N920 1.356 . S
C923 C917 1.363 . S
C923 C918 1.379 . S
C923 N921 1.356 . S
N924 C916 1.356 . S
N924 H930 0.984 . S
N924 H931 0.984 . S
N925 C918 1.356 . S
N925 H928 0.984 . S
N925 H929 0.985 . S
H926 N921 0.984 . S
H927 N921 0.985 . S
H928 N925 0.984 . S
H929 N925 0.985 . S
H930 N924 0.984 . S
H931 N924 0.984 . S
H932 N920 0.984 . S
H933 N920 0.985 . S
C934 C935 1.363 . S
C934 C940 1.379 . S
C934 N942 1.356 . S
C935 C934 1.363 . S
C935 C941 1.363 . S
C936 C937 1.363 . S
C936 C941 1.379 . S
C936 N943 1.356 . S
C937 C936 1.363 . S
C937 C940 1.363 . S
N938 C940 1.356 . S
N938 H950 0.984 . S
N938 H951 0.985 . S
N939 C941 1.356 . S
N939 H944 0.984 . S
N939 H945 0.985 . S
C940 C934 1.379 . S
C940 C937 1.363 . S
C940 N938 1.356 . S
C941 C935 1.363 . S
C941 C936 1.379 . S
C941 N939 1.356 . S
N942 C934 1.356 . S
N942 H948 0.984 . S
N942 H949 0.984 . S
N943 C936 1.356 . S
N943 H946 0.984 . S
N943 H947 0.985 . S
H944 N939 0.984 . S
H945 N939 0.985 . S
H946 N943 0.984 . S
H947 N943 0.985 . S
H948 N942 0.984 . S
H949 N942 0.984 . S
H950 N938 0.984 . S
H951 N938 0.985 . S
C952 C953 1.363 . S
C952 C958 1.379 . S
C952 N960 1.356 . S
C953 C952 1.363 . S
C953 C959 1.363 . S
C954 C955 1.363 . S
C954 C959 1.379 . S
C954 N961 1.356 . S
C955 C954 1.363 . S
C955 C958 1.363 . S
N956 C958 1.356 . S
N956 H968 0.984 . S
N956 H969 0.985 . S
N957 C959 1.356 . S
N957 H962 0.984 . S
N957 H963 0.985 . S
C958 C952 1.379 . S
C958 C955 1.363 . S
C958 N956 1.356 . S
C959 C953 1.363 . S
C959 C954 1.379 . S
C959 N957 1.356 . S
N960 C952 1.356 . S
N960 H966 0.984 . S
N960 H967 0.984 . S
N961 C954 1.356 . S
N961 H964 0.984 . S
N961 H965 0.985 . S
H962 N957 0.984 . S
H963 N957 0.985 . S
H964 N961 0.984 . S
H965 N961 0.985 . S
H966 N960 0.984 . S
H967 N960 0.984 . S
H968 N956 0.984 . S
H969 N956 0.985 . S
C970 C971 1.363 . S
C970 C976 1.379 . S
C970 N978 1.356 . S
C971 C970 1.363 . S
C971 C977 1.363 1_565 S
C972 C973 1.363 . S
C972 C977 1.379 . S
C972 N979 1.356 . S
C973 C972 1.363 . S
C973 C976 1.363 1_545 S
N974 C976 1.356 . S
N974 H986 0.984 . S
N974 H987 0.985 1_565 S
N975 C977 1.356 . S
N975 H980 0.984 1_545 S
N975 H981 0.985 . S
C976 C970 1.379 . S
C976 C973 1.363 1_565 S
C976 N974 1.356 . S
C977 C971 1.363 1_545 S
C977 C972 1.379 . S
C977 N975 1.356 . S
N978 C970 1.356 . S
N978 H984 0.984 . S
N978 H985 0.984 . S
N979 C972 1.356 . S
N979 H982 0.984 . S
N979 H983 0.985 . S
H980 N975 0.984 1_565 S
H981 N975 0.985 . S
H982 N979 0.984 . S
H983 N979 0.985 . S
H984 N978 0.984 . S
H985 N978 0.984 . S
H986 N974 0.984 . S
H987 N974 0.985 1_545 S
C988 C989 1.363 . S
C988 C994 1.379 . S
C988 N996 1.356 . S
C989 C988 1.363 . S
C989 C995 1.363 . S
C990 C991 1.363 . S
C990 C995 1.379 . S
C990 N997 1.356 . S
C991 C990 1.363 . S
C991 C994 1.363 . S
N992 C994 1.356 . S
N992 H1004 0.984 . S
N992 H1005 0.985 . S
N993 C995 1.356 . S
N993 H998 0.984 . S
N993 H999 0.985 . S
C994 C988 1.379 . S
C994 C991 1.363 . S
C994 N992 1.356 . S
C995 C989 1.363 . S
C995 C990 1.379 . S
C995 N993 1.356 . S
N996 C988 1.356 . S
N996 H1002 0.984 . S
N996 H1003 0.984 . S
N997 C990 1.356 . S
N997 H1000 0.984 . S
N997 H1001 0.985 . S
H998 N993 0.984 . S
H999 N993 0.985 . S
H1000 N997 0.984 . S
H1001 N997 0.985 . S
H1002 N996 0.984 . S
H1003 N996 0.984 . S
H1004 N992 0.984 . S
H1005 N992 0.985 . S
C1006 C1007 1.363 . S
C1006 C1012 1.379 1_554 S
C1006 N1014 1.356 . S
C1007 C1006 1.363 . S
C1007 C1013 1.363 . S
C1008 C1009 1.363 . S
C1008 C1013 1.379 1_556 S
C1008 N1015 1.356 . S
C1009 C1008 1.363 . S
C1009 C1012 1.363 . S
N1010 C1012 1.356 . S
N1010 H1022 0.984 . S
N1010 H1023 0.985 . S
N1011 C1013 1.356 . S
N1011 H1016 0.984 . S
N1011 H1017 0.985 . S
C1012 C1006 1.379 1_556 S
C1012 C1009 1.363 . S
C1012 N1010 1.356 . S
C1013 C1007 1.363 . S
C1013 C1008 1.379 1_554 S
C1013 N1011 1.356 . S
N1014 C1006 1.356 . S
N1014 H1020 0.984 . S
N1014 H1021 0.984 . S
N1015 C1008 1.356 . S
N1015 H1018 0.984 . S
N1015 H1019 0.985 . S
H1016 N1011 0.984 . S
H1017 N1011 0.985 . S
H1018 N1015 0.984 . S
H1019 N1015 0.985 . S
H1020 N1014 0.984 . S
H1021 N1014 0.984 . S
H1022 N1010 0.984 . S
H1023 N1010 0.985 . S
C1024 C1025 1.363 . S
C1024 C1030 1.379 . S
C1024 N1032 1.356 . S
C1025 C1024 1.363 . S
C1025 C1031 1.363 . S
C1026 C1027 1.363 . S
C1026 C1031 1.379 . S
C1026 N1033 1.356 . S
C1027 C1026 1.363 . S
C1027 C1030 1.363 . S
N1028 C1030 1.356 . S
N1028 H1040 0.984 . S
N1028 H1041 0.985 . S
N1029 C1031 1.356 . S
N1029 H1034 0.984 . S
N1029 H1035 0.985 . S
C1030 C1024 1.379 . S
C1030 C1027 1.363 . S
C1030 N1028 1.356 . S
C1031 C1025 1.363 . S
C1031 C1026 1.379 . S
C1031 N1029 1.356 . S
N1032 C1024 1.356 . S
N1032 H1038 0.984 . S
N1032 H1039 0.984 . S
N1033 C1026 1.356 . S
N1033 H1036 0.984 . S
N1033 H1037 0.985 . S
H1034 N1029 0.984 . S
H1035 N1029 0.985 . S
H1036 N1033 0.984 . S
H1037 N1033 0.985 . S
H1038 N1032 0.984 . S
H1039 N1032 0.984 . S
H1040 N1028 0.984 . S
H1041 N1028 0.985 . S
C1042 C1043 1.363 . S
C1042 C1048 1.379 . S
C1042 N1050 1.356 . S
C1043 C1042 1.363 . S
C1043 C1049 1.363 . S
C1044 C1045 1.363 . S
C1044 C1049 1.379 . S
C1044 N1051 1.356 1_565 S
C1045 C1044 1.363 . S
C1045 C1048 1.363 . S
N1046 C1048 1.356 . S
N1046 H1058 0.984 . S
N1046 H1059 0.985 . S
N1047 C1049 1.356 . S
N1047 H1052 0.984 . S
N1047 H1053 0.985 . S
C1048 C1042 1.379 . S
C1048 C1045 1.363 . S
C1048 N1046 1.356 . S
C1049 C1043 1.363 . S
C1049 C1044 1.379 . S
C1049 N1047 1.356 . S
N1050 C1042 1.356 . S
N1050 H1056 0.984 . S
N1050 H1057 0.984 . S
N1051 C1044 1.356 1_545 S
N1051 H1054 0.984 . S
N1051 H1055 0.985 . S
H1052 N1047 0.984 . S
H1053 N1047 0.985 . S
H1054 N1051 0.984 . S
H1055 N1051 0.985 . S
H1056 N1050 0.984 . S
H1057 N1050 0.984 . S
H1058 N1046 0.984 . S
H1059 N1046 0.985 . S
C1060 C1061 1.363 . S
C1060 C1066 1.379 . S
C1060 N1068 1.356 . S
C1061 C1060 1.363 . S
C1061 C1067 1.363 . S
C1062 C1063 1.363 . S
C1062 C1067 1.379 . S
C1062 N1069 1.356 . S
C1063 C1062 1.363 . S
C1063 C1066 1.363 . S
N1064 C1066 1.356 . S
N1064 H1076 0.984 . S
N1064 H1077 0.985 . S
N1065 C1067 1.356 . S
N1065 H1070 0.984 1_565 S
N1065 H1071 0.985 . S
C1066 C1060 1.379 . S
C1066 C1063 1.363 . S
C1066 N1064 1.356 . S
C1067 C1061 1.363 . S
C1067 C1062 1.379 . S
C1067 N1065 1.356 . S
N1068 C1060 1.356 . S
N1068 H1074 0.984 . S
N1068 H1075 0.984 . S
N1069 C1062 1.356 . S
N1069 H1072 0.984 . S
N1069 H1073 0.985 . S
H1070 N1065 0.984 1_545 S
H1071 N1065 0.985 . S
H1072 N1069 0.984 . S
H1073 N1069 0.985 . S
H1074 N1068 0.984 . S
H1075 N1068 0.984 . S
H1076 N1064 0.984 . S
H1077 N1064 0.985 . S
C1078 C1079 1.363 . S
C1078 C1084 1.379 . S
C1078 N1086 1.356 . S
C1079 C1078 1.363 . S
C1079 C1085 1.363 . S
C1080 C1081 1.363 . S
C1080 C1085 1.379 . S
C1080 N1087 1.356 . S
C1081 C1080 1.363 . S
C1081 C1084 1.363 . S
N1082 C1084 1.356 . S
N1082 H1094 0.984 . S
N1082 H1095 0.985 . S
N1083 C1085 1.356 . S
N1083 H1088 0.984 . S
N1083 H1089 0.985 . S
C1084 C1078 1.379 . S
C1084 C1081 1.363 . S
C1084 N1082 1.356 . S
C1085 C1079 1.363 . S
C1085 C1080 1.379 . S
C1085 N1083 1.356 . S
N1086 C1078 1.356 . S
N1086 H1092 0.984 . S
N1086 H1093 0.984 . S
N1087 C1080 1.356 . S
N1087 H1090 0.984 . S
N1087 H1091 0.985 . S
H1088 N1083 0.984 . S
H1089 N1083 0.985 . S
H1090 N1087 0.984 . S
H1091 N1087 0.985 . S
H1092 N1086 0.984 . S
H1093 N1086 0.984 . S
H1094 N1082 0.984 . S
H1095 N1082 0.985 . S
C1096 C1097 1.363 . S
C1096 C1102 1.379 . S
C1096 N1104 1.356 . S
C1097 C1096 1.363 . S
C1097 C1103 1.363 . S
C1098 C1099 1.363 . S
C1098 C1103 1.379 . S
C1098 N1105 1.356 . S
C1099 C1098 1.363 . S
C1099 C1102 1.363 . S
N1100 C1102 1.356 . S
N1100 H1112 0.984 . S
N1100 H1113 0.985 . S
N1101 C1103 1.356 . S
N1101 H1106 0.984 . S
N1101 H1107 0.985 . S
C1102 C1096 1.379 . S
C1102 C1099 1.363 . S
C1102 N1100 1.356 . S
C1103 C1097 1.363 . S
C1103 C1098 1.379 . S
C1103 N1101 1.356 . S
N1104 C1096 1.356 . S
N1104 H1110 0.984 . S
N1104 H1111 0.984 . S
N1105 C1098 1.356 . S
N1105 H1108 0.984 . S
N1105 H1109 0.985 . S
H1106 N1101 0.984 . S
H1107 N1101 0.985 . S
H1108 N1105 0.984 . S
H1109 N1105 0.985 . S
H1110 N1104 0.984 . S
H1111 N1104 0.984 . S
H1112 N1100 0.984 . S
H1113 N1100 0.985 . S
C1114 C1115 1.363 . S
C1114 C1120 1.379 . S
C1114 N1122 1.356 . S
C1115 C1114 1.363 . S
C1115 C1121 1.363 . S
C1116 C1117 1.363 . S
C1116 C1121 1.379 . S
C1116 N1123 1.356 . S
C1117 C1116 1.363 . S
C1117 C1120 1.363 . S
N1118 C1120 1.356 . S
N1118 H1130 0.984 . S
N1118 H1131 0.985 . S
N1119 C1121 1.356 . S
N1119 H1124 0.984 . S
N1119 H1125 0.985 . S
C1120 C1114 1.379 . S
C1120 C1117 1.363 . S
C1120 N1118 1.356 . S
C1121 C1115 1.363 . S
C1121 C1116 1.379 . S
C1121 N1119 1.356 . S
N1122 C1114 1.356 . S
N1122 H1128 0.983 1_545 S
N1122 H1129 0.984 1_545 S
N1123 C1116 1.356 . S
N1123 H1126 0.984 . S
N1123 H1127 0.985 . S
H1124 N1119 0.984 . S
H1125 N1119 0.985 . S
H1126 N1123 0.984 . S
H1127 N1123 0.985 . S
H1128 N1122 0.983 1_565 S
H1129 N1122 0.984 1_565 S
H1130 N1118 0.984 . S
H1131 N1118 0.985 . S
C1132 C1133 1.363 . S
C1132 C1138 1.379 . S
C1132 N1140 1.356 . S
C1133 C1132 1.363 . S
C1133 C1139 1.363 . S
C1134 C1135 1.363 . S
C1134 C1139 1.379 . S
C1134 N1141 1.356 . S
C1135 C1134 1.363 . S
C1135 C1138 1.363 . S
N1136 C1138 1.356 . S
N1136 H1148 0.984 . S
N1136 H1149 0.985 . S
N1137 C1139 1.356 . S
N1137 H1142 0.984 . S
N1137 H1143 0.985 . S
C1138 C1132 1.379 . S
C1138 C1135 1.363 . S
C1138 N1136 1.356 . S
C1139 C1133 1.363 . S
C1139 C1134 1.379 . S
C1139 N1137 1.356 . S
N1140 C1132 1.356 . S
N1140 H1146 0.984 . S
N1140 H1147 0.984 . S
N1141 C1134 1.356 . S
N1141 H1144 0.984 1_545 S
N1141 H1145 0.985 . S
H1142 N1137 0.984 . S
H1143 N1137 0.985 . S
H1144 N1141 0.984 1_565 S
H1145 N1141 0.985 . S
H1146 N1140 0.984 . S
H1147 N1140 0.984 . S
H1148 N1136 0.984 . S
H1149 N1136 0.985 . S
C1150 C1151 1.363 . S
C1150 C1156 1.379 . S
C1150 N1158 1.356 . S
C1151 C1150 1.363 . S
C1151 C1157 1.363 . S
C1152 C1153 1.363 . S
C1152 C1157 1.379 . S
C1152 N1159 1.356 . S
C1153 C1152 1.363 . S
C1153 C1156 1.363 . S
N1154 C1156 1.356 . S
N1154 H1166 0.984 . S
N1154 H1167 0.985 . S
N1155 C1157 1.356 . S
N1155 H1160 0.984 . S
N1155 H1161 0.985 . S
C1156 C1150 1.379 . S
C1156 C1153 1.363 . S
C1156 N1154 1.356 . S
C1157 C1151 1.363 . S
C1157 C1152 1.379 . S
C1157 N1155 1.356 . S
N1158 C1150 1.356 . S
N1158 H1164 0.984 . S
N1158 H1165 0.984 . S
N1159 C1152 1.356 . S
N1159 H1162 0.984 . S
N1159 H1163 0.985 . S
H1160 N1155 0.984 . S
H1161 N1155 0.985 . S
H1162 N1159 0.984 . S
H1163 N1159 0.985 . S
H1164 N1158 0.984 . S
H1165 N1158 0.984 . S
H1166 N1154 0.984 . S
H1167 N1154 0.985 . S
C1168 C1169 1.363 . S
C1168 C1174 1.379 . S
C1168 N1176 1.356 . S
C1169 C1168 1.363 . S
C1169 C1175 1.363 . S
C1170 C1171 1.363 . S
C1170 C1175 1.379 . S
C1170 N1177 1.356 . S
C1171 C1170 1.363 . S
C1171 C1174 1.363 . S
N1172 C1174 1.356 . S
N1172 H1184 0.984 . S
N1172 H1185 0.985 . S
N1173 C1175 1.356 . S
N1173 H1178 0.984 . S
N1173 H1179 0.985 . S
C1174 C1168 1.379 . S
C1174 C1171 1.363 . S
C1174 N1172 1.356 . S
C1175 C1169 1.363 . S
C1175 C1170 1.379 . S
C1175 N1173 1.356 . S
N1176 C1168 1.356 . S
N1176 H1182 0.984 . S
N1176 H1183 0.984 . S
N1177 C1170 1.356 . S
N1177 H1180 0.984 . S
N1177 H1181 0.985 . S
H1178 N1173 0.984 . S
H1179 N1173 0.985 . S
H1180 N1177 0.984 . S
H1181 N1177 0.985 . S
H1182 N1176 0.984 . S
H1183 N1176 0.984 . S
H1184 N1172 0.984 . S
H1185 N1172 0.985 . S
C1186 C1187 1.363 . S
C1186 C1192 1.379 . S
C1186 N1194 1.356 . S
C1187 C1186 1.363 . S
C1187 C1193 1.363 . S
C1188 C1189 1.363 . S
C1188 C1193 1.379 . S
C1188 N1195 1.356 . S
C1189 C1188 1.363 . S
C1189 C1192 1.363 . S
N1190 C1192 1.356 . S
N1190 H1202 0.983 1_565 S
N1190 H1203 0.985 1_565 S
N1191 C1193 1.356 . S
N1191 H1196 0.984 . S
N1191 H1197 0.985 . S
C1192 C1186 1.379 . S
C1192 C1189 1.363 . S
C1192 N1190 1.356 . S
C1193 C1187 1.363 . S
C1193 C1188 1.379 . S
C1193 N1191 1.356 . S
N1194 C1186 1.356 . S
N1194 H1200 0.984 . S
N1194 H1201 0.984 . S
N1195 C1188 1.356 . S
N1195 H1198 0.984 . S
N1195 H1199 0.985 . S
H1196 N1191 0.984 . S
H1197 N1191 0.985 . S
H1198 N1195 0.984 . S
H1199 N1195 0.985 . S
H1200 N1194 0.984 . S
H1201 N1194 0.984 . S
H1202 N1190 0.983 1_545 S
H1203 N1190 0.985 1_545 S
C1204 C1205 1.363 . S
C1204 C1210 1.379 . S
C1204 N1212 1.356 . S
C1205 C1204 1.363 . S
C1205 C1211 1.363 . S
C1206 C1207 1.363 . S
C1206 C1211 1.379 . S
C1206 N1213 1.356 . S
C1207 C1206 1.363 . S
C1207 C1210 1.363 . S
N1208 C1210 1.356 . S
N1208 H1220 0.984 . S
N1208 H1221 0.985 . S
N1209 C1211 1.356 . S
N1209 H1214 0.984 . S
N1209 H1215 0.985 . S
C1210 C1204 1.379 . S
C1210 C1207 1.363 . S
C1210 N1208 1.356 . S
C1211 C1205 1.363 . S
C1211 C1206 1.379 . S
C1211 N1209 1.356 . S
N1212 C1204 1.356 . S
N1212 H1218 0.984 . S
N1212 H1219 0.984 . S
N1213 C1206 1.356 . S
N1213 H1216 0.984 1_565 S
N1213 H1217 0.985 . S
H1214 N1209 0.984 . S
H1215 N1209 0.985 . S
H1216 N1213 0.984 1_545 S
H1217 N1213 0.985 . S
H1218 N1212 0.984 . S
H1219 N1212 0.984 . S
H1220 N1208 0.984 . S
H1221 N1208 0.985 . S
C1222 C1223 1.363 . S
C1222 C1228 1.379 . S
C1222 N1230 1.356 . S
C1223 C1222 1.363 . S
C1223 C1229 1.363 . S
C1224 C1225 1.363 . S
C1224 C1229 1.379 . S
C1224 N1231 1.356 . S
C1225 C1224 1.363 . S
C1225 C1228 1.363 . S
N1226 C1228 1.356 . S
N1226 H1238 0.984 . S
N1226 H1239 0.985 . S
N1227 C1229 1.356 . S
N1227 H1232 0.984 . S
N1227 H1233 0.985 . S
C1228 C1222 1.379 . S
C1228 C1225 1.363 . S
C1228 N1226 1.356 . S
C1229 C1223 1.363 . S
C1229 C1224 1.379 . S
C1229 N1227 1.356 . S
N1230 C1222 1.356 . S
N1230 H1236 0.984 . S
N1230 H1237 0.984 . S
N1231 C1224 1.356 . S
N1231 H1234 0.984 . S
N1231 H1235 0.985 . S
H1232 N1227 0.984 . S
H1233 N1227 0.985 . S
H1234 N1231 0.984 . S
H1235 N1231 0.985 . S
H1236 N1230 0.984 . S
H1237 N1230 0.984 . S
H1238 N1226 0.984 . S
H1239 N1226 0.985 . S
C1240 C1241 1.363 . S
C1240 C1246 1.379 . S
C1240 N1248 1.356 . S
C1241 C1240 1.363 . S
C1241 C1247 1.363 . S
C1242 C1243 1.363 . S
C1242 C1247 1.379 . S
C1242 N1249 1.356 . S
C1243 C1242 1.363 . S
C1243 C1246 1.363 . S
N1244 C1246 1.356 . S
N1244 H1256 0.984 . S
N1244 H1257 0.985 . S
N1245 C1247 1.356 . S
N1245 H1250 0.984 . S
N1245 H1251 0.985 . S
C1246 C1240 1.379 . S
C1246 C1243 1.363 . S
C1246 N1244 1.356 . S
C1247 C1241 1.363 . S
C1247 C1242 1.379 . S
C1247 N1245 1.356 . S
N1248 C1240 1.356 . S
N1248 H1254 0.984 . S
N1248 H1255 0.984 . S
N1249 C1242 1.356 . S
N1249 H1252 0.984 . S
N1249 H1253 0.985 . S
H1250 N1245 0.984 . S
H1251 N1245 0.985 . S
H1252 N1249 0.984 . S
H1253 N1249 0.985 . S
H1254 N1248 0.984 . S
H1255 N1248 0.984 . S
H1256 N1244 0.984 . S
H1257 N1244 0.985 . S
C1258 C1259 1.363 . S
C1258 C1264 1.379 . S
C1258 N1266 1.356 . S
C1259 C1258 1.363 . S
C1259 C1265 1.363 . S
C1260 C1261 1.363 . S
C1260 C1265 1.379 . S
C1260 N1267 1.356 . S
C1261 C1260 1.363 . S
C1261 C1264 1.363 . S
N1262 C1264 1.356 . S
N1262 H1274 0.984 . S
N1262 H1275 0.985 . S
N1263 C1265 1.356 . S
N1263 H1268 0.984 1_545 S
N1263 H1269 0.985 1_545 S
C1264 C1258 1.379 . S
C1264 C1261 1.363 . S
C1264 N1262 1.356 . S
C1265 C1259 1.363 . S
C1265 C1260 1.379 . S
C1265 N1263 1.356 . S
N1266 C1258 1.356 . S
N1266 H1272 0.984 . S
N1266 H1273 0.984 . S
N1267 C1260 1.356 . S
N1267 H1270 0.984 . S
N1267 H1271 0.985 . S
H1268 N1263 0.984 1_565 S
H1269 N1263 0.985 1_565 S
H1270 N1267 0.984 . S
H1271 N1267 0.985 . S
H1272 N1266 0.984 . S
H1273 N1266 0.984 . S
H1274 N1262 0.984 . S
H1275 N1262 0.985 . S
C1276 C1277 1.363 . S
C1276 C1282 1.379 . S
C1276 N1284 1.356 . S
C1277 C1276 1.363 . S
C1277 C1283 1.363 . S
C1278 C1279 1.363 . S
C1278 C1283 1.379 . S
C1278 N1285 1.356 1_545 S
C1279 C1278 1.363 . S
C1279 C1282 1.363 . S
N1280 C1282 1.356 . S
N1280 H1292 0.984 . S
N1280 H1293 0.985 . S
N1281 C1283 1.356 . S
N1281 H1286 0.984 . S
N1281 H1287 0.985 . S
C1282 C1276 1.379 . S
C1282 C1279 1.363 . S
C1282 N1280 1.356 . S
C1283 C1277 1.363 . S
C1283 C1278 1.379 . S
C1283 N1281 1.356 . S
N1284 C1276 1.356 . S
N1284 H1290 0.984 . S
N1284 H1291 0.984 . S
N1285 C1278 1.356 1_565 S
N1285 H1288 0.984 . S
N1285 H1289 0.985 . S
H1286 N1281 0.984 . S
H1287 N1281 0.985 . S
H1288 N1285 0.984 . S
H1289 N1285 0.985 . S
H1290 N1284 0.984 . S
H1291 N1284 0.984 . S
H1292 N1280 0.984 . S
H1293 N1280 0.985 . S
C1294 C1295 1.363 . S
C1294 C1300 1.379 . S
C1294 N1302 1.356 . S
C1295 C1294 1.363 . S
C1295 C1301 1.363 . S
C1296 C1297 1.363 . S
C1296 C1301 1.379 . S
C1296 N1303 1.356 . S
C1297 C1296 1.363 . S
C1297 C1300 1.363 . S
N1298 C1300 1.356 . S
N1298 H1310 0.984 . S
N1298 H1311 0.985 . S
N1299 C1301 1.356 . S
N1299 H1304 0.984 . S
N1299 H1305 0.985 . S
C1300 C1294 1.379 . S
C1300 C1297 1.363 . S
C1300 N1298 1.356 . S
C1301 C1295 1.363 . S
C1301 C1296 1.379 . S
C1301 N1299 1.356 . S
N1302 C1294 1.356 . S
N1302 H1308 0.984 . S
N1302 H1309 0.984 . S
N1303 C1296 1.356 . S
N1303 H1306 0.984 . S
N1303 H1307 0.985 . S
H1304 N1299 0.984 . S
H1305 N1299 0.985 . S
H1306 N1303 0.984 . S
H1307 N1303 0.985 . S
H1308 N1302 0.984 . S
H1309 N1302 0.984 . S
H1310 N1298 0.984 . S
H1311 N1298 0.985 . S
C1312 C1313 1.363 . S
C1312 C1318 1.379 . S
C1312 N1320 1.356 . S
C1313 C1312 1.363 . S
C1313 C1319 1.363 . S
C1314 C1315 1.363 . S
C1314 C1319 1.379 . S
C1314 N1321 1.356 1_565 S
C1315 C1314 1.363 . S
C1315 C1318 1.363 . S
N1316 C1318 1.356 . S
N1316 H1328 0.984 . S
N1316 H1329 0.985 . S
N1317 C1319 1.356 . S
N1317 H1322 0.984 . S
N1317 H1323 0.985 . S
C1318 C1312 1.379 . S
C1318 C1315 1.363 . S
C1318 N1316 1.356 . S
C1319 C1313 1.363 . S
C1319 C1314 1.379 . S
C1319 N1317 1.356 . S
N1320 C1312 1.356 . S
N1320 H1326 0.984 . S
N1320 H1327 0.984 . S
N1321 C1314 1.356 1_545 S
N1321 H1324 0.984 . S
N1321 H1325 0.985 . S
H1322 N1317 0.984 . S
H1323 N1317 0.985 . S
H1324 N1321 0.984 . S
H1325 N1321 0.985 . S
H1326 N1320 0.984 . S
H1327 N1320 0.984 . S
H1328 N1316 0.984 . S
H1329 N1316 0.985 . S
C1330 C1331 1.363 . S
C1330 C1336 1.379 . S
C1330 N1338 1.356 . S
C1331 C1330 1.363 . S
C1331 C1337 1.363 . S
C1332 C1333 1.363 . S
C1332 C1337 1.379 . S
C1332 N1339 1.356 . S
C1333 C1332 1.363 . S
C1333 C1336 1.363 . S
N1334 C1336 1.356 . S
N1334 H1346 0.984 . S
N1334 H1347 0.985 . S
N1335 C1337 1.356 . S
N1335 H1340 0.984 . S
N1335 H1341 0.985 . S
C1336 C1330 1.379 . S
C1336 C1333 1.363 . S
C1336 N1334 1.356 . S
C1337 C1331 1.363 . S
C1337 C1332 1.379 . S
C1337 N1335 1.356 . S
N1338 C1330 1.356 . S
N1338 H1344 0.984 . S
N1338 H1345 0.984 . S
N1339 C1332 1.356 . S
N1339 H1342 0.984 . S
N1339 H1343 0.985 . S
H1340 N1335 0.984 . S
H1341 N1335 0.985 . S
H1342 N1339 0.984 . S
H1343 N1339 0.985 . S
H1344 N1338 0.984 . S
H1345 N1338 0.984 . S
H1346 N1334 0.984 . S
H1347 N1334 0.985 . S
C1348 C1349 1.363 . S
C1348 C1354 1.379 . S
C1348 N1356 1.356 . S
C1349 C1348 1.363 . S
C1349 C1355 1.363 . S
C1350 C1351 1.363 . S
C1350 C1355 1.379 . S
C1350 N1357 1.356 . S
C1351 C1350 1.363 . S
C1351 C1354 1.363 . S
N1352 C1354 1.356 . S
N1352 H1364 0.984 . S
N1352 H1365 0.985 . S
N1353 C1355 1.356 . S
N1353 H1358 0.984 . S
N1353 H1359 0.985 . S
C1354 C1348 1.379 . S
C1354 C1351 1.363 . S
C1354 N1352 1.356 . S
C1355 C1349 1.363 . S
C1355 C1350 1.379 . S
C1355 N1353 1.356 . S
N1356 C1348 1.356 . S
N1356 H1362 0.984 . S
N1356 H1363 0.984 . S
N1357 C1350 1.356 . S
N1357 H1360 0.984 . S
N1357 H1361 0.985 . S
H1358 N1353 0.984 . S
H1359 N1353 0.985 . S
H1360 N1357 0.984 . S
H1361 N1357 0.985 . S
H1362 N1356 0.984 . S
H1363 N1356 0.984 . S
H1364 N1352 0.984 . S
H1365 N1352 0.985 . S
C1366 C1367 1.363 . S
C1366 C1372 1.379 . S
C1366 N1374 1.356 . S
C1367 C1366 1.363 . S
C1367 C1373 1.363 . S
C1368 C1369 1.363 . S
C1368 C1373 1.379 . S
C1368 N1375 1.356 . S
C1369 C1368 1.363 . S
C1369 C1372 1.363 . S
N1370 C1372 1.356 . S
N1370 H1382 0.984 . S
N1370 H1383 0.985 . S
N1371 C1373 1.356 . S
N1371 H1376 0.984 . S
N1371 H1377 0.985 . S
C1372 C1366 1.379 . S
C1372 C1369 1.363 . S
C1372 N1370 1.356 . S
C1373 C1367 1.363 . S
C1373 C1368 1.379 . S
C1373 N1371 1.356 . S
N1374 C1366 1.356 . S
N1374 H1380 0.982 1_565 S
N1374 H1381 0.984 1_565 S
N1375 C1368 1.356 . S
N1375 H1378 0.984 . S
N1375 H1379 0.985 . S
H1376 N1371 0.984 . S
H1377 N1371 0.985 . S
H1378 N1375 0.984 . S
H1379 N1375 0.985 . S
H1380 N1374 0.982 1_545 S
H1381 N1374 0.984 1_545 S
H1382 N1370 0.984 . S
H1383 N1370 0.985 . S
C1384 C1385 1.363 . S
C1384 C1390 1.379 . S
C1384 N1392 1.356 . S
C1385 C1384 1.363 . S
C1385 C1391 1.363 . S
C1386 C1387 1.363 . S
C1386 C1391 1.379 . S
C1386 N1393 1.356 . S
C1387 C1386 1.363 . S
C1387 C1390 1.363 . S
N1388 C1390 1.368 . S
N1388 H1400 0.982 1_545 S
N1388 H1401 0.976 1_545 S
N1389 C1391 1.356 . S
N1389 H1394 0.984 . S
N1389 H1395 0.985 . S
C1390 C1384 1.379 . S
C1390 C1387 1.363 . S
C1390 N1388 1.368 . S
C1391 C1385 1.363 . S
C1391 C1386 1.379 . S
C1391 N1389 1.356 . S
N1392 C1384 1.356 . S
N1392 H1398 0.984 . S
N1392 H1399 0.984 . S
N1393 C1386 1.356 . S
N1393 H1396 0.984 . S
N1393 H1397 0.985 . S
H1394 N1389 0.984 . S
H1395 N1389 0.985 . S
H1396 N1393 0.984 . S
H1397 N1393 0.985 . S
H1398 N1392 0.984 . S
H1399 N1392 0.984 . S
H1400 N1388 0.982 1_565 S
H1401 N1388 0.976 1_565 S
C1402 C1403 1.363 . S
C1402 C1408 1.379 . S
C1402 N1410 1.356 . S
C1403 C1402 1.363 . S
C1403 C1409 1.363 . S
C1404 C1405 1.363 . S
C1404 C1409 1.379 . S
C1404 N1411 1.356 . S
C1405 C1404 1.363 . S
C1405 C1408 1.363 . S
N1406 C1408 1.356 . S
N1406 H1418 0.984 . S
N1406 H1419 0.985 . S
N1407 C1409 1.356 . S
N1407 H1412 0.984 . S
N1407 H1413 0.985 . S
C1408 C1402 1.379 . S
C1408 C1405 1.363 . S
C1408 N1406 1.356 . S
C1409 C1403 1.363 . S
C1409 C1404 1.379 . S
C1409 N1407 1.356 . S
N1410 C1402 1.356 . S
N1410 H1416 0.984 . S
N1410 H1417 0.984 . S
N1411 C1404 1.356 . S
N1411 H1414 0.984 . S
N1411 H1415 0.985 . S
H1412 N1407 0.984 . S
H1413 N1407 0.985 . S
H1414 N1411 0.984 . S
H1415 N1411 0.985 . S
H1416 N1410 0.984 . S
H1417 N1410 0.984 . S
H1418 N1406 0.984 . S
H1419 N1406 0.985 . S
C1420 C1421 1.363 . S
C1420 C1426 1.379 . S
C1420 N1428 1.356 . S
C1421 C1420 1.363 . S
C1421 C1427 1.363 . S
C1422 C1423 1.363 . S
C1422 C1427 1.379 . S
C1422 N1429 1.356 . S
C1423 C1422 1.363 . S
C1423 C1426 1.363 . S
N1424 C1426 1.356 . S
N1424 H1436 0.984 . S
N1424 H1437 0.985 . S
N1425 C1427 1.356 . S
N1425 H1430 0.984 . S
N1425 H1431 0.985 . S
C1426 C1420 1.379 . S
C1426 C1423 1.363 . S
C1426 N1424 1.356 . S
C1427 C1421 1.363 . S
C1427 C1422 1.379 . S
C1427 N1425 1.356 . S
N1428 C1420 1.356 . S
N1428 H1434 0.984 . S
N1428 H1435 0.984 . S
N1429 C1422 1.356 . S
N1429 H1432 0.984 . S
N1429 H1433 0.985 . S
H1430 N1425 0.984 . S
H1431 N1425 0.985 . S
H1432 N1429 0.984 . S
H1433 N1429 0.985 . S
H1434 N1428 0.984 . S
H1435 N1428 0.984 . S
H1436 N1424 0.984 . S
H1437 N1424 0.985 . S
C1438 C1439 1.363 . S
C1438 C1444 1.379 . S
C1438 N1446 1.356 . S
C1439 C1438 1.363 . S
C1439 C1445 1.363 . S
C1440 C1441 1.363 . S
C1440 C1445 1.379 . S
C1440 N1447 1.356 . S
C1441 C1440 1.363 . S
C1441 C1444 1.363 . S
N1442 C1444 1.356 . S
N1442 H1454 0.984 . S
N1442 H1455 0.985 1_545 S
N1443 C1445 1.356 . S
N1443 H1448 0.984 . S
N1443 H1449 0.985 . S
C1444 C1438 1.379 . S
C1444 C1441 1.363 . S
C1444 N1442 1.356 . S
C1445 C1439 1.363 . S
C1445 C1440 1.379 . S
C1445 N1443 1.356 . S
N1446 C1438 1.356 . S
N1446 H1452 0.984 . S
N1446 H1453 0.984 . S
N1447 C1440 1.356 . S
N1447 H1450 0.984 . S
N1447 H1451 0.985 . S
H1448 N1443 0.984 . S
H1449 N1443 0.985 . S
H1450 N1447 0.984 . S
H1451 N1447 0.985 . S
H1452 N1446 0.984 . S
H1453 N1446 0.984 . S
H1454 N1442 0.984 . S
H1455 N1442 0.985 1_565 S
C1456 C1457 1.363 . S
C1456 C1462 1.379 . S
C1456 N1464 1.356 . S
C1457 C1456 1.363 . S
C1457 C1463 1.363 . S
C1458 C1459 1.363 . S
C1458 C1463 1.379 . S
C1458 N1465 1.356 . S
C1459 C1458 1.363 . S
C1459 C1462 1.363 . S
N1460 C1462 1.356 1_545 S
N1460 H1472 0.984 . S
N1460 H1473 0.985 . S
N1461 C1463 1.356 . S
N1461 H1466 0.984 . S
N1461 H1467 0.985 . S
C1462 C1456 1.379 . S
C1462 C1459 1.363 . S
C1462 N1460 1.356 1_565 S
C1463 C1457 1.363 . S
C1463 C1458 1.379 . S
C1463 N1461 1.356 . S
N1464 C1456 1.356 . S
N1464 H1470 0.984 . S
N1464 H1471 0.984 . S
N1465 C1458 1.356 . S
N1465 H1468 0.984 . S
N1465 H1469 0.985 . S
H1466 N1461 0.984 . S
H1467 N1461 0.985 . S
H1468 N1465 0.984 . S
H1469 N1465 0.985 . S
H1470 N1464 0.984 . S
H1471 N1464 0.984 . S
H1472 N1460 0.984 . S
H1473 N1460 0.985 . S
C1474 C1475 1.363 . S
C1474 C1480 1.379 . S
C1474 N1482 1.356 . S
C1475 C1474 1.363 . S
C1475 C1481 1.363 . S
C1476 C1477 1.363 . S
C1476 C1481 1.379 . S
C1476 N1483 1.356 . S
C1477 C1476 1.363 . S
C1477 C1480 1.363 . S
N1478 C1480 1.356 . S
N1478 H1490 0.984 . S
N1478 H1491 0.985 . S
N1479 C1481 1.356 . S
N1479 H1484 0.984 . S
N1479 H1485 0.985 . S
C1480 C1474 1.379 . S
C1480 C1477 1.363 . S
C1480 N1478 1.356 . S
C1481 C1475 1.363 . S
C1481 C1476 1.379 . S
C1481 N1479 1.356 . S
N1482 C1474 1.356 . S
N1482 H1488 0.984 . S
N1482 H1489 0.984 . S
N1483 C1476 1.356 . S
N1483 H1486 0.984 . S
N1483 H1487 0.985 . S
H1484 N1479 0.984 . S
H1485 N1479 0.985 . S
H1486 N1483 0.984 . S
H1487 N1483 0.985 . S
H1488 N1482 0.984 . S
H1489 N1482 0.984 . S
H1490 N1478 0.984 . S
H1491 N1478 0.985 . S
C1492 C1493 1.363 . S
C1492 C1498 1.379 . S
C1492 N1500 1.356 . S
C1493 C1492 1.363 . S
C1493 C1499 1.363 . S
C1494 C1495 1.363 . S
C1494 C1499 1.379 . S
C1494 N1501 1.356 . S
C1495 C1494 1.363 . S
C1495 C1498 1.363 . S
N1496 C1498 1.356 . S
N1496 H1508 0.984 . S
N1496 H1509 0.985 . S
N1497 C1499 1.356 . S
N1497 H1502 0.984 . S
N1497 H1503 0.985 . S
C1498 C1492 1.379 . S
C1498 C1495 1.363 . S
C1498 N1496 1.356 . S
C1499 C1493 1.363 . S
C1499 C1494 1.379 . S
C1499 N1497 1.356 . S
N1500 C1492 1.356 . S
N1500 H1506 0.984 . S
N1500 H1507 0.984 . S
N1501 C1494 1.356 . S
N1501 H1504 0.984 . S
N1501 H1505 0.985 . S
H1502 N1497 0.984 . S
H1503 N1497 0.985 . S
H1504 N1501 0.984 . S
H1505 N1501 0.985 . S
H1506 N1500 0.984 . S
H1507 N1500 0.984 . S
H1508 N1496 0.984 . S
H1509 N1496 0.985 . S
C1510 C1511 1.363 . S
C1510 C1516 1.379 . S
C1510 N1518 1.356 1_565 S
C1511 C1510 1.363 . S
C1511 C1517 1.363 . S
C1512 C1513 1.363 . S
C1512 C1517 1.379 . S
C1512 N1519 1.356 . S
C1513 C1512 1.363 . S
C1513 C1516 1.363 . S
N1514 C1516 1.356 . S
N1514 H1526 0.984 . S
N1514 H1527 0.985 . S
N1515 C1517 1.356 . S
N1515 H1520 0.984 . S
N1515 H1521 0.985 . S
C1516 C1510 1.379 . S
C1516 C1513 1.363 . S
C1516 N1514 1.356 . S
C1517 C1511 1.363 . S
C1517 C1512 1.379 . S
C1517 N1515 1.356 . S
N1518 C1510 1.356 1_545 S
N1518 H1524 0.984 . S
N1518 H1525 0.984 . S
N1519 C1512 1.356 . S
N1519 H1522 0.984 . S
N1519 H1523 0.985 . S
H1520 N1515 0.984 . S
H1521 N1515 0.985 . S
H1522 N1519 0.984 . S
H1523 N1519 0.985 . S
H1524 N1518 0.984 . S
H1525 N1518 0.984 . S
H1526 N1514 0.984 . S
H1527 N1514 0.985 . S
C1528 C1529 1.363 . S
C1528 C1534 1.379 . S
C1528 N1536 1.356 . S
C1529 C1528 1.363 . S
C1529 C1535 1.363 . S
C1530 C1531 1.363 . S
C1530 C1535 1.379 . S
C1530 N1537 1.356 . S
C1531 C1530 1.363 . S
C1531 C1534 1.363 . S
N1532 C1534 1.356 . S
N1532 H1544 0.984 . S
N1532 H1545 0.985 . S
N1533 C1535 1.356 . S
N1533 H1538 0.984 . S
N1533 H1539 0.985 . S
C1534 C1528 1.379 . S
C1534 C1531 1.363 . S
C1534 N1532 1.356 . S
C1535 C1529 1.363 . S
C1535 C1530 1.379 . S
C1535 N1533 1.356 . S
N1536 C1528 1.356 . S
N1536 H1542 0.984 . S
N1536 H1543 0.984 . S
N1537 C1530 1.356 . S
N1537 H1540 0.984 1_545 S
N1537 H1541 0.985 1_545 S
H1538 N1533 0.984 . S
H1539 N1533 0.985 . S
H1540 N1537 0.984 1_565 S
H1541 N1537 0.985 1_565 S
H1542 N1536 0.984 . S
H1543 N1536 0.984 . S
H1544 N1532 0.984 . S
H1545 N1532 0.985 . S
C1546 C1547 1.363 . S
C1546 C1552 1.379 . S
C1546 N1554 1.356 . S
C1547 C1546 1.363 . S
C1547 C1553 1.363 . S
C1548 C1549 1.363 . S
C1548 C1553 1.379 . S
C1548 N1555 1.356 . S
C1549 C1548 1.363 . S
C1549 C1552 1.363 . S
N1550 C1552 1.356 . S
N1550 H1562 0.984 . S
N1550 H1563 0.985 . S
N1551 C1553 1.356 . S
N1551 H1556 0.984 . S
N1551 H1557 0.985 . S
C1552 C1546 1.379 . S
C1552 C1549 1.363 . S
C1552 N1550 1.356 . S
C1553 C1547 1.363 . S
C1553 C1548 1.379 . S
C1553 N1551 1.356 . S
N1554 C1546 1.356 . S
N1554 H1560 0.984 . S
N1554 H1561 0.984 . S
N1555 C1548 1.356 . S
N1555 H1558 0.984 . S
N1555 H1559 0.985 . S
H1556 N1551 0.984 . S
H1557 N1551 0.985 . S
H1558 N1555 0.984 . S
H1559 N1555 0.985 . S
H1560 N1554 0.984 . S
H1561 N1554 0.984 . S
H1562 N1550 0.984 . S
H1563 N1550 0.985 . S
C1564 C1565 1.363 . S
C1564 C1570 1.379 . S
C1564 N1572 1.356 . S
C1565 C1564 1.363 . S
C1565 C1571 1.363 . S
C1566 C1567 1.363 . S
C1566 C1571 1.379 . S
C1566 N1573 1.356 . S
C1567 C1566 1.363 . S
C1567 C1570 1.363 . S
N1568 C1570 1.356 . S
N1568 H1580 0.984 . S
N1568 H1581 0.985 . S
N1569 C1571 1.356 . S
N1569 H1574 0.984 . S
N1569 H1575 0.985 . S
C1570 C1564 1.379 . S
C1570 C1567 1.363 . S
C1570 N1568 1.356 . S
C1571 C1565 1.363 . S
C1571 C1566 1.379 . S
C1571 N1569 1.356 . S
N1572 C1564 1.356 . S
N1572 H1578 0.984 . S
N1572 H1579 0.984 . S
N1573 C1566 1.356 . S
N1573 H1576 0.984 . S
N1573 H1577 0.985 . S
H1574 N1569 0.984 . S
H1575 N1569 0.985 . S
H1576 N1573 0.984 . S
H1577 N1573 0.985 . S
H1578 N1572 0.984 . S
H1579 N1572 0.984 . S
H1580 N1568 0.984 . S
H1581 N1568 0.985 . S
C1582 C1583 1.363 . S
C1582 C1588 1.379 . S
C1582 N1590 1.356 1_545 S
C1583 C1582 1.363 . S
C1583 C1589 1.363 . S
C1584 C1585 1.363 . S
C1584 C1589 1.379 . S
C1584 N1591 1.356 . S
C1585 C1584 1.363 . S
C1585 C1588 1.363 . S
N1586 C1588 1.356 . S
N1586 H1598 0.984 . S
N1586 H1599 0.985 . S
N1587 C1589 1.356 . S
N1587 H1592 0.984 . S
N1587 H1593 0.985 . S
C1588 C1582 1.379 . S
C1588 C1585 1.363 . S
C1588 N1586 1.356 . S
C1589 C1583 1.363 . S
C1589 C1584 1.379 . S
C1589 N1587 1.356 . S
N1590 C1582 1.356 1_565 S
N1590 H1596 0.984 . S
N1590 H1597 0.984 . S
N1591 C1584 1.356 . S
N1591 H1594 0.984 . S
N1591 H1595 0.985 . S
H1592 N1587 0.984 . S
H1593 N1587 0.985 . S
H1594 N1591 0.984 . S
H1595 N1591 0.985 . S
H1596 N1590 0.984 . S
H1597 N1590 0.984 . S
H1598 N1586 0.984 . S
H1599 N1586 0.985 . S
C449 C9 1.428 . S
C451 C23 1.428 . S
C467 C51 1.428 . S
C469 C37 1.428 . S
C485 C65 1.428 . S
C487 C79 1.428 . S
C503 C93 1.428 . S
C505 C107 1.428 . S
C521 C121 1.428 . S
C523 C135 1.428 . S
C539 C149 1.428 . S
C541 C163 1.428 . S
C557 C177 1.428 . S
C559 C191 1.428 . S
C575 C205 1.428 . S
C577 C219 1.428 . S
C593 C247 1.428 . S
C595 C233 1.428 . S
C611 C275 1.428 . S
C613 C261 1.428 . S
C629 C303 1.428 . S
C631 C289 1.428 . S
C647 C331 1.428 . S
C649 C317 1.428 . S
C665 C359 1.428 . S
C667 C345 1.428 . S
C683 C387 1.428 . S
C685 C373 1.428 . S
C701 C415 1.428 . S
C703 C401 1.428 . S
C719 C443 1.428 . S
C721 C429 1.428 . S
C737 C8 1.559 . S
C739 C176 1.559 . S
C755 C22 1.559 . S
C757 C302 1.559 . S
C773 C36 1.559 . S
C775 C92 1.559 . S
C791 C50 1.559 . S
C793 C442 1.559 . S
C809 C64 1.559 . S
C811 C120 1.559 . S
C827 C246 1.559 . S
C829 C78 1.559 . S
C845 C386 1.559 . S
C847 C106 1.559 . S
C863 C134 1.559 . S
C865 C414 1.559 . S
C881 C148 1.559 . S
C883 C204 1.559 . S
C899 C162 1.559 . S
C901 C330 1.559 . S
C917 C190 1.559 . S
C919 C358 1.559 . S
C935 C218 1.559 . S
C937 C274 1.559 . S
C953 C400 1.559 . S
C955 C232 1.559 . S
C971 C316 1.559 . S
C973 C260 1.559 . S
C989 C288 1.559 . S
C991 C344 1.559 . S
C1007 C428 1.559 . S
C1009 C372 1.559 . S
C1025 C147 0.980 . S
C1027 C7 0.980 . S
C1043 C161 0.980 . S
C1045 C21 0.980 . S
C1061 C35 0.980 . S
C1063 C119 0.980 . S
C1079 C133 0.980 . S
C1081 C49 0.980 . S
C1097 C63 0.980 . S
C1099 C203 0.980 . S
C1115 C77 0.980 . S
C1117 C217 0.980 . S
C1133 C175 0.980 . S
C1135 C91 0.980 . S
C1151 C189 0.980 . S
C1153 C105 0.980 . S
C1169 C231 0.980 . S
C1171 C371 0.980 . S
C1187 C385 0.980 . S
C1189 C245 0.980 . S
C1205 C343 0.980 . S
C1207 C259 0.980 . S
C1223 C273 0.980 . S
C1225 C357 0.980 . S
C1241 C427 0.980 . S
C1243 C287 0.980 . S
C1259 C301 0.980 . S
C1261 C441 0.980 . S
C1277 C399 0.980 . S
C1279 C315 0.980 . S
C1295 C413 0.980 . S
C1297 C329 0.980 . S
C1313 C143 1.584 . S
C1315 C3 1.584 1_565 S
C1331 C157 1.584 . S
C1333 C17 1.584 . S
C1349 C115 1.584 . S
C1351 C31 1.584 . S
C1367 C45 1.584 1_565 S
C1369 C129 1.584 . S
C1385 C199 1.584 . S
C1387 C59 1.584 1_545 S
C1403 C213 1.584 . S
C1405 C73 1.584 . S
C1421 C171 1.584 . S
C1423 C87 1.584 . S
C1439 C185 1.584 . S
C1441 C101 1.584 1_545 S
C1457 C367 1.584 . S
C1459 C227 1.584 1_565 S
C1475 C381 1.584 . S
C1477 C241 1.584 . S
C1493 C339 1.584 . S
C1495 C255 1.584 . S
C1511 C269 1.584 1_565 S
C1513 C353 1.584 . S
C1529 C423 1.584 . S
C1531 C283 1.584 1_545 S
C1547 C297 1.584 . S
C1549 C437 1.584 . S
C1565 C395 1.584 . S
C1567 C311 1.584 . S
C1583 C325 1.584 1_545 S
C1585 C409 1.584 . S
