# Generated by pormake.
# Topology fcg, (5)-cn, num edge types: 1
# Building blocks:
#     Node 0, Type 0, BuildingBlock: BEQFEK_clean_sbu_0, # of connection points: 5
#     Node 1, Type 0, BuildingBlock: BEQFEK_clean_sbu_0, # of connection points: 5
#     Node 2, Type 0, BuildingBlock: BEQFEK_clean_sbu_0, # of connection points: 5
#     Node 3, Type 0, BuildingBlock: BEQFEK_clean_sbu_0, # of connection points: 5
#     Node 4, Type 0, BuildingBlock: BEQFEK_clean_sbu_0, # of connection points: 5
#     Node 5, Type 0, BuildingBlock: BEQFEK_clean_sbu_0, # of connection points: 5
#     Node 6, Type 0, BuildingBlock: BEQFEK_clean_sbu_0, # of connection points: 5
#     Node 7, Type 0, BuildingBlock: BEQFEK_clean_sbu_0, # of connection points: 5
#     Node 8, Type 0, BuildingBlock: BEQFEK_clean_sbu_0, # of connection points: 5
#     Node 9, Type 0, BuildingBlock: BEQFEK_clean_sbu_0, # of connection points: 5
#     Node 10, Type 0, BuildingBlock: BEQFEK_clean_sbu_0, # of connection points: 5
#     Node 11, Type 0, BuildingBlock: BEQFEK_clean_sbu_0, # of connection points: 5
#     Node 12, Type 0, BuildingBlock: BEQFEK_clean_sbu_0, # of connection points: 5
#     Node 13, Type 0, BuildingBlock: BEQFEK_clean_sbu_0, # of connection points: 5
#     Node 14, Type 0, BuildingBlock: BEQFEK_clean_sbu_0, # of connection points: 5
#     Node 15, Type 0, BuildingBlock: BEQFEK_clean_sbu_0, # of connection points: 5
#     Node 16, Type 0, BuildingBlock: BEQFEK_clean_sbu_0, # of connection points: 5
#     Node 17, Type 0, BuildingBlock: BEQFEK_clean_sbu_0, # of connection points: 5
#     Node 18, Type 0, BuildingBlock: BEQFEK_clean_sbu_0, # of connection points: 5
#     Node 19, Type 0, BuildingBlock: BEQFEK_clean_sbu_0, # of connection points: 5
#     Node 20, Type 0, BuildingBlock: BEQFEK_clean_sbu_0, # of connection points: 5
#     Node 21, Type 0, BuildingBlock: BEQFEK_clean_sbu_0, # of connection points: 5
#     Node 22, Type 0, BuildingBlock: BEQFEK_clean_sbu_0, # of connection points: 5
#     Node 23, Type 0, BuildingBlock: BEQFEK_clean_sbu_0, # of connection points: 5
#     Node 24, Type 0, BuildingBlock: BEQFEK_clean_sbu_0, # of connection points: 5
#     Node 25, Type 0, BuildingBlock: BEQFEK_clean_sbu_0, # of connection points: 5
#     Node 26, Type 0, BuildingBlock: BEQFEK_clean_sbu_0, # of connection points: 5
#     Node 27, Type 0, BuildingBlock: BEQFEK_clean_sbu_0, # of connection points: 5
#     Node 28, Type 0, BuildingBlock: BEQFEK_clean_sbu_0, # of connection points: 5
#     Node 29, Type 0, BuildingBlock: BEQFEK_clean_sbu_0, # of connection points: 5
#     Node 30, Type 0, BuildingBlock: BEQFEK_clean_sbu_0, # of connection points: 5
#     Node 31, Type 0, BuildingBlock: BEQFEK_clean_sbu_0, # of connection points: 5
#     Node 32, Type 0, BuildingBlock: BEQFEK_clean_sbu_0, # of connection points: 5
#     Node 33, Type 0, BuildingBlock: BEQFEK_clean_sbu_0, # of connection points: 5
#     Node 34, Type 0, BuildingBlock: BEQFEK_clean_sbu_0, # of connection points: 5
#     Node 35, Type 0, BuildingBlock: BEQFEK_clean_sbu_0, # of connection points: 5
#     Node 36, Type 0, BuildingBlock: BEQFEK_clean_sbu_0, # of connection points: 5
#     Node 37, Type 0, BuildingBlock: BEQFEK_clean_sbu_0, # of connection points: 5
#     Node 38, Type 0, BuildingBlock: BEQFEK_clean_sbu_0, # of connection points: 5
#     Node 39, Type 0, BuildingBlock: BEQFEK_clean_sbu_0, # of connection points: 5
#     Node 40, Type 0, BuildingBlock: BEQFEK_clean_sbu_0, # of connection points: 5
#     Node 41, Type 0, BuildingBlock: BEQFEK_clean_sbu_0, # of connection points: 5
#     Node 42, Type 0, BuildingBlock: BEQFEK_clean_sbu_0, # of connection points: 5
#     Node 43, Type 0, BuildingBlock: BEQFEK_clean_sbu_0, # of connection points: 5
#     Node 44, Type 0, BuildingBlock: BEQFEK_clean_sbu_0, # of connection points: 5
#     Node 45, Type 0, BuildingBlock: BEQFEK_clean_sbu_0, # of connection points: 5
#     Node 46, Type 0, BuildingBlock: BEQFEK_clean_sbu_0, # of connection points: 5
#     Node 47, Type 0, BuildingBlock: BEQFEK_clean_sbu_0, # of connection points: 5
#     Edge 48, Type (0, 0), BuildingBlock: OJICUG_clean_linker_0, # of connection points: 2
#     Edge 49, Type (0, 0), BuildingBlock: OJICUG_clean_linker_0, # of connection points: 2
#     Edge 50, Type (0, 0), BuildingBlock: OJICUG_clean_linker_0, # of connection points: 2
#     Edge 51, Type (0, 0), BuildingBlock: OJICUG_clean_linker_0, # of connection points: 2
#     Edge 52, Type (0, 0), BuildingBlock: OJICUG_clean_linker_0, # of connection points: 2
#     Edge 53, Type (0, 0), BuildingBlock: OJICUG_clean_linker_0, # of connection points: 2
#     Edge 54, Type (0, 0), BuildingBlock: OJICUG_clean_linker_0, # of connection points: 2
#     Edge 55, Type (0, 0), BuildingBlock: OJICUG_clean_linker_0, # of connection points: 2
#     Edge 56, Type (0, 0), BuildingBlock: OJICUG_clean_linker_0, # of connection points: 2
#     Edge 57, Type (0, 0), BuildingBlock: OJICUG_clean_linker_0, # of connection points: 2
#     Edge 58, Type (0, 0), BuildingBlock: OJICUG_clean_linker_0, # of connection points: 2
#     Edge 59, Type (0, 0), BuildingBlock: OJICUG_clean_linker_0, # of connection points: 2
#     Edge 60, Type (0, 0), BuildingBlock: OJICUG_clean_linker_0, # of connection points: 2
#     Edge 61, Type (0, 0), BuildingBlock: OJICUG_clean_linker_0, # of connection points: 2
#     Edge 62, Type (0, 0), BuildingBlock: OJICUG_clean_linker_0, # of connection points: 2
#     Edge 63, Type (0, 0), BuildingBlock: OJICUG_clean_linker_0, # of connection points: 2
#     Edge 64, Type (0, 0), BuildingBlock: OJICUG_clean_linker_0, # of connection points: 2
#     Edge 65, Type (0, 0), BuildingBlock: OJICUG_clean_linker_0, # of connection points: 2
#     Edge 66, Type (0, 0), BuildingBlock: OJICUG_clean_linker_0, # of connection points: 2
#     Edge 67, Type (0, 0), BuildingBlock: OJICUG_clean_linker_0, # of connection points: 2
#     Edge 68, Type (0, 0), BuildingBlock: OJICUG_clean_linker_0, # of connection points: 2
#     Edge 69, Type (0, 0), BuildingBlock: OJICUG_clean_linker_0, # of connection points: 2
#     Edge 70, Type (0, 0), BuildingBlock: OJICUG_clean_linker_0, # of connection points: 2
#     Edge 71, Type (0, 0), BuildingBlock: OJICUG_clean_linker_0, # of connection points: 2
#     Edge 72, Type (0, 0), BuildingBlock: OJICUG_clean_linker_0, # of connection points: 2
#     Edge 73, Type (0, 0), BuildingBlock: OJICUG_clean_linker_0, # of connection points: 2
#     Edge 74, Type (0, 0), BuildingBlock: OJICUG_clean_linker_0, # of connection points: 2
#     Edge 75, Type (0, 0), BuildingBlock: OJICUG_clean_linker_0, # of connection points: 2
#     Edge 76, Type (0, 0), BuildingBlock: OJICUG_clean_linker_0, # of connection points: 2
#     Edge 77, Type (0, 0), BuildingBlock: OJICUG_clean_linker_0, # of connection points: 2
#     Edge 78, Type (0, 0), BuildingBlock: OJICUG_clean_linker_0, # of connection points: 2
#     Edge 79, Type (0, 0), BuildingBlock: OJICUG_clean_linker_0, # of connection points: 2
#     Edge 80, Type (0, 0), BuildingBlock: OJICUG_clean_linker_0, # of connection points: 2
#     Edge 81, Type (0, 0), BuildingBlock: OJICUG_clean_linker_0, # of connection points: 2
#     Edge 82, Type (0, 0), BuildingBlock: OJICUG_clean_linker_0, # of connection points: 2
#     Edge 83, Type (0, 0), BuildingBlock: OJICUG_clean_linker_0, # of connection points: 2
#     Edge 84, Type (0, 0), BuildingBlock: OJICUG_clean_linker_0, # of connection points: 2
#     Edge 85, Type (0, 0), BuildingBlock: OJICUG_clean_linker_0, # of connection points: 2
#     Edge 86, Type (0, 0), BuildingBlock: OJICUG_clean_linker_0, # of connection points: 2
#     Edge 87, Type (0, 0), BuildingBlock: OJICUG_clean_linker_0, # of connection points: 2
#     Edge 88, Type (0, 0), BuildingBlock: OJICUG_clean_linker_0, # of connection points: 2
#     Edge 89, Type (0, 0), BuildingBlock: OJICUG_clean_linker_0, # of connection points: 2
#     Edge 90, Type (0, 0), BuildingBlock: OJICUG_clean_linker_0, # of connection points: 2
#     Edge 91, Type (0, 0), BuildingBlock: OJICUG_clean_linker_0, # of connection points: 2
#     Edge 92, Type (0, 0), BuildingBlock: OJICUG_clean_linker_0, # of connection points: 2
#     Edge 93, Type (0, 0), BuildingBlock: OJICUG_clean_linker_0, # of connection points: 2
#     Edge 94, Type (0, 0), BuildingBlock: OJICUG_clean_linker_0, # of connection points: 2
#     Edge 95, Type (0, 0), BuildingBlock: OJICUG_clean_linker_0, # of connection points: 2
#     Edge 96, Type (0, 0), BuildingBlock: OJICUG_clean_linker_0, # of connection points: 2
#     Edge 97, Type (0, 0), BuildingBlock: OJICUG_clean_linker_0, # of connection points: 2
#     Edge 98, Type (0, 0), BuildingBlock: OJICUG_clean_linker_0, # of connection points: 2
#     Edge 99, Type (0, 0), BuildingBlock: OJICUG_clean_linker_0, # of connection points: 2
#     Edge 100, Type (0, 0), BuildingBlock: OJICUG_clean_linker_0, # of connection points: 2
#     Edge 101, Type (0, 0), BuildingBlock: OJICUG_clean_linker_0, # of connection points: 2
#     Edge 102, Type (0, 0), BuildingBlock: OJICUG_clean_linker_0, # of connection points: 2
#     Edge 103, Type (0, 0), BuildingBlock: OJICUG_clean_linker_0, # of connection points: 2
#     Edge 104, Type (0, 0), BuildingBlock: OJICUG_clean_linker_0, # of connection points: 2
#     Edge 105, Type (0, 0), BuildingBlock: OJICUG_clean_linker_0, # of connection points: 2
#     Edge 106, Type (0, 0), BuildingBlock: OJICUG_clean_linker_0, # of connection points: 2
#     Edge 107, Type (0, 0), BuildingBlock: OJICUG_clean_linker_0, # of connection points: 2
#     Edge 108, Type (0, 0), BuildingBlock: OJICUG_clean_linker_0, # of connection points: 2
#     Edge 109, Type (0, 0), BuildingBlock: OJICUG_clean_linker_0, # of connection points: 2
#     Edge 110, Type (0, 0), BuildingBlock: OJICUG_clean_linker_0, # of connection points: 2
#     Edge 111, Type (0, 0), BuildingBlock: OJICUG_clean_linker_0, # of connection points: 2
#     Edge 112, Type (0, 0), BuildingBlock: OJICUG_clean_linker_0, # of connection points: 2
#     Edge 113, Type (0, 0), BuildingBlock: OJICUG_clean_linker_0, # of connection points: 2
#     Edge 114, Type (0, 0), BuildingBlock: OJICUG_clean_linker_0, # of connection points: 2
#     Edge 115, Type (0, 0), BuildingBlock: OJICUG_clean_linker_0, # of connection points: 2
#     Edge 116, Type (0, 0), BuildingBlock: OJICUG_clean_linker_0, # of connection points: 2
#     Edge 117, Type (0, 0), BuildingBlock: OJICUG_clean_linker_0, # of connection points: 2
#     Edge 118, Type (0, 0), BuildingBlock: OJICUG_clean_linker_0, # of connection points: 2
#     Edge 119, Type (0, 0), BuildingBlock: OJICUG_clean_linker_0, # of connection points: 2
#     Edge 120, Type (0, 0), BuildingBlock: OJICUG_clean_linker_0, # of connection points: 2
#     Edge 121, Type (0, 0), BuildingBlock: OJICUG_clean_linker_0, # of connection points: 2
#     Edge 122, Type (0, 0), BuildingBlock: OJICUG_clean_linker_0, # of connection points: 2
#     Edge 123, Type (0, 0), BuildingBlock: OJICUG_clean_linker_0, # of connection points: 2
#     Edge 124, Type (0, 0), BuildingBlock: OJICUG_clean_linker_0, # of connection points: 2
#     Edge 125, Type (0, 0), BuildingBlock: OJICUG_clean_linker_0, # of connection points: 2
#     Edge 126, Type (0, 0), BuildingBlock: OJICUG_clean_linker_0, # of connection points: 2
#     Edge 127, Type (0, 0), BuildingBlock: OJICUG_clean_linker_0, # of connection points: 2
#     Edge 128, Type (0, 0), BuildingBlock: OJICUG_clean_linker_0, # of connection points: 2
#     Edge 129, Type (0, 0), BuildingBlock: OJICUG_clean_linker_0, # of connection points: 2
#     Edge 130, Type (0, 0), BuildingBlock: OJICUG_clean_linker_0, # of connection points: 2
#     Edge 131, Type (0, 0), BuildingBlock: OJICUG_clean_linker_0, # of connection points: 2
#     Edge 132, Type (0, 0), BuildingBlock: OJICUG_clean_linker_0, # of connection points: 2
#     Edge 133, Type (0, 0), BuildingBlock: OJICUG_clean_linker_0, # of connection points: 2
#     Edge 134, Type (0, 0), BuildingBlock: OJICUG_clean_linker_0, # of connection points: 2
#     Edge 135, Type (0, 0), BuildingBlock: OJICUG_clean_linker_0, # of connection points: 2
#     Edge 136, Type (0, 0), BuildingBlock: OJICUG_clean_linker_0, # of connection points: 2
#     Edge 137, Type (0, 0), BuildingBlock: OJICUG_clean_linker_0, # of connection points: 2
#     Edge 138, Type (0, 0), BuildingBlock: OJICUG_clean_linker_0, # of connection points: 2
#     Edge 139, Type (0, 0), BuildingBlock: OJICUG_clean_linker_0, # of connection points: 2
#     Edge 140, Type (0, 0), BuildingBlock: OJICUG_clean_linker_0, # of connection points: 2
#     Edge 141, Type (0, 0), BuildingBlock: OJICUG_clean_linker_0, # of connection points: 2
#     Edge 142, Type (0, 0), BuildingBlock: OJICUG_clean_linker_0, # of connection points: 2
#     Edge 143, Type (0, 0), BuildingBlock: OJICUG_clean_linker_0, # of connection points: 2
#     Edge 144, Type (0, 0), BuildingBlock: OJICUG_clean_linker_0, # of connection points: 2
#     Edge 145, Type (0, 0), BuildingBlock: OJICUG_clean_linker_0, # of connection points: 2
#     Edge 146, Type (0, 0), BuildingBlock: OJICUG_clean_linker_0, # of connection points: 2
#     Edge 147, Type (0, 0), BuildingBlock: OJICUG_clean_linker_0, # of connection points: 2
#     Edge 148, Type (0, 0), BuildingBlock: OJICUG_clean_linker_0, # of connection points: 2
#     Edge 149, Type (0, 0), BuildingBlock: OJICUG_clean_linker_0, # of connection points: 2
#     Edge 150, Type (0, 0), BuildingBlock: OJICUG_clean_linker_0, # of connection points: 2
#     Edge 151, Type (0, 0), BuildingBlock: OJICUG_clean_linker_0, # of connection points: 2
#     Edge 152, Type (0, 0), BuildingBlock: OJICUG_clean_linker_0, # of connection points: 2
#     Edge 153, Type (0, 0), BuildingBlock: OJICUG_clean_linker_0, # of connection points: 2
#     Edge 154, Type (0, 0), BuildingBlock: OJICUG_clean_linker_0, # of connection points: 2
#     Edge 155, Type (0, 0), BuildingBlock: OJICUG_clean_linker_0, # of connection points: 2
#     Edge 156, Type (0, 0), BuildingBlock: OJICUG_clean_linker_0, # of connection points: 2
#     Edge 157, Type (0, 0), BuildingBlock: OJICUG_clean_linker_0, # of connection points: 2
#     Edge 158, Type (0, 0), BuildingBlock: OJICUG_clean_linker_0, # of connection points: 2
#     Edge 159, Type (0, 0), BuildingBlock: OJICUG_clean_linker_0, # of connection points: 2
#     Edge 160, Type (0, 0), BuildingBlock: OJICUG_clean_linker_0, # of connection points: 2
#     Edge 161, Type (0, 0), BuildingBlock: OJICUG_clean_linker_0, # of connection points: 2
#     Edge 162, Type (0, 0), BuildingBlock: OJICUG_clean_linker_0, # of connection points: 2
#     Edge 163, Type (0, 0), BuildingBlock: OJICUG_clean_linker_0, # of connection points: 2
#     Edge 164, Type (0, 0), BuildingBlock: OJICUG_clean_linker_0, # of connection points: 2
#     Edge 165, Type (0, 0), BuildingBlock: OJICUG_clean_linker_0, # of connection points: 2
#     Edge 166, Type (0, 0), BuildingBlock: OJICUG_clean_linker_0, # of connection points: 2
#     Edge 167, Type (0, 0), BuildingBlock: OJICUG_clean_linker_0, # of connection points: 2
# Relax obj value: 0.230
# Max RMSD: 0.175
# Mean RMSD: 0.175
data_MOF--net-fcg--node1-BEQFEK_clean_sbu_0--edge1-OJICUG_clean_linker_0
_symmetry_space_group_name_H-M    P1
_symmetry_Int_Tables_number       1
_symmetry_cell_setting            triclinic
loop_
_symmetry_equiv_pos_as_xyz
'x, y, z'
_cell_length_a     50.762629
_cell_length_b     50.766672
_cell_length_c     50.749276
_cell_angle_alpha  89.986053
_cell_angle_beta   89.998209
_cell_angle_gamma 89.993891
loop_
_atom_site_label
_atom_site_type_symbol
_atom_site_fract_x
_atom_site_fract_y
_atom_site_fract_z
_atom_type_partial_charge
Co0 Co 0.15712 0.29035 0.15129 0.0
Co1 Co 0.10254 0.31865 0.16003 0.0
C2 C 0.11063 0.26182 0.17282 0.0
O3 O 0.13366 0.26259 0.16336 0.0
O4 O 0.09601 0.28213 0.17315 0.0
C5 C 0.18174 0.25017 0.1238 0.0
O6 O 0.15679 0.24579 0.11851 0.0
C7 C 0.04744 0.32381 0.14761 0.0
C8 C 0.03649 0.36336 0.16195 0.0
C9 C 0.02634 0.34113 0.14965 0.0
N10 N 0.06881 0.33513 0.15829 0.0
N11 N 0.06223 0.35882 0.16682 0.0
C12 C 0.04822 0.29757 0.13413 0.0
H13 H 0.06837 0.29347 0.12669 0.0
H14 H 0.034 0.2969 0.11754 0.0
H15 H 0.04313 0.28194 0.14854 0.0
C16 C 0.15259 0.31595 0.09956 0.0
N17 N 0.14288 0.31033 0.1236 0.0
N18 N 0.11954 0.32124 0.12631 0.0
C19 C 0.11348 0.33387 0.10361 0.0
C20 C 0.13424 0.33091 0.08599 0.0
C21 C 0.17854 0.30614 0.08946 0.0
H22 H 0.19348 0.30677 0.10538 0.0
H23 H 0.17621 0.28551 0.08272 0.0
H24 H 0.18584 0.31778 0.07255 0.0
O25 O 0.16293 0.31207 0.18379 0.0
O26 O 0.12489 0.33387 0.18857 0.0
H27 H 0.08541 0.36272 0.11624 0.0
H28 H 0.0904 0.36167 0.081 0.0
C29 C 0.08895 0.34959 0.09917 0.0
H30 H 0.07195 0.33603 0.09724 0.0
H31 H 0.07527 0.37186 0.17591 0.0
O32 O 0.18798 0.26984 0.13817 0.0
C33 C 0.14806 0.32799 0.19661 0.0
Co34 Co 0.71257 0.15668 0.15452 0.0
Co35 Co 0.68564 0.10103 0.16215 0.0
C36 C 0.74152 0.1096 0.17599 0.0
O37 O 0.73974 0.13313 0.16793 0.0
O38 O 0.72203 0.09392 0.17503 0.0
C39 C 0.75278 0.18021 0.12646 0.0
O40 O 0.75693 0.1551 0.12182 0.0
C41 C 0.67705 0.04468 0.15346 0.0
C42 C 0.63399 0.04046 0.15821 0.0
C43 C 0.65659 0.02656 0.15172 0.0
N44 N 0.66691 0.06826 0.16003 0.0
N45 N 0.64117 0.06559 0.16295 0.0
C46 C 0.70601 0.03973 0.15065 0.0
H47 H 0.71577 0.04393 0.16974 0.0
H48 H 0.71437 0.05342 0.1358 0.0
H49 H 0.7106 0.01913 0.14523 0.0
C50 C 0.68962 0.15146 0.10219 0.0
N51 N 0.6936 0.14204 0.1266 0.0
N52 N 0.68428 0.11796 0.12827 0.0
C53 C 0.67475 0.11099 0.10432 0.0
C54 C 0.67809 0.13204 0.08699 0.0
C55 C 0.6955 0.17915 0.0938 0.0
H56 H 0.69373 0.19277 0.11078 0.0
H57 H 0.71581 0.1802 0.08585 0.0
H58 H 0.68175 0.18552 0.07803 0.0
O59 O 0.69021 0.16326 0.18589 0.0
O60 O 0.67084 0.12402 0.19102 0.0
H61 H 0.64594 0.08073 0.10923 0.0
H62 H 0.65979 0.08231 0.07645 0.0
C63 C 0.66419 0.08429 0.09776 0.0
H64 H 0.67883 0.06911 0.10343 0.0
H65 H 0.62846 0.08101 0.1678 0.0
O66 O 0.73338 0.187 0.14094 0.0
C67 C 0.67528 0.1476 0.19885 0.0
Co68 Co 0.84746 0.71539 0.15346 0.0
Co69 Co 0.90135 0.6855 0.16219 0.0
C70 C 0.89443 0.74252 0.17544 0.0
O71 O 0.8716 0.74251 0.16548 0.0
O72 O 0.9084 0.72174 0.17607 0.0
C73 C 0.8229 0.75644 0.12663 0.0
O74 O 0.84782 0.76143 0.12182 0.0
C75 C 0.95671 0.67587 0.14894 0.0
C76 C 0.96417 0.63664 0.16614 0.0
C77 C 0.97614 0.65675 0.15197 0.0
N78 N 0.93441 0.66727 0.16045 0.0
N79 N 0.93898 0.64375 0.1706 0.0
C80 C 0.95944 0.70253 0.13657 0.0
H81 H 0.94257 0.71532 0.14167 0.0
H82 H 0.95981 0.7005 0.11483 0.0
H83 H 0.97811 0.71196 0.14293 0.0
C84 C 0.85121 0.68971 0.1018 0.0
N85 N 0.86127 0.69523 0.12572 0.0
N86 N 0.88421 0.68351 0.12844 0.0
C87 C 0.88954 0.67023 0.10592 0.0
C88 C 0.86881 0.67378 0.08839 0.0
C89 C 0.82553 0.70029 0.09177 0.0
H90 H 0.81041 0.69927 0.1075 0.0
H91 H 0.82824 0.72115 0.08594 0.0
H92 H 0.81828 0.6895 0.07428 0.0
O93 O 0.84102 0.6936 0.18586 0.0
O94 O 0.87836 0.67061 0.19041 0.0
H95 H 0.91599 0.64014 0.11922 0.0
H96 H 0.91068 0.64042 0.084 0.0
C97 C 0.91304 0.65294 0.10177 0.0
H98 H 0.93077 0.66538 0.09923 0.0
H99 H 0.92496 0.63263 0.18075 0.0
O100 O 0.81681 0.73631 0.14044 0.0
C101 C 0.85537 0.67708 0.1985 0.0
Co102 Co 0.29048 0.84427 0.15249 0.0
Co103 Co 0.31899 0.89881 0.16123 0.0
C104 C 0.2621 0.89121 0.17351 0.0
O105 O 0.26292 0.86802 0.16448 0.0
O106 O 0.28241 0.9058 0.17376 0.0
C107 C 0.25023 0.82033 0.12452 0.0
O108 O 0.24628 0.84535 0.11925 0.0
C109 C 0.32452 0.95387 0.1487 0.0
C110 C 0.36396 0.96475 0.16338 0.0
C111 C 0.34186 0.97495 0.15087 0.0
N112 N 0.3357 0.93248 0.15951 0.0
N113 N 0.35933 0.93902 0.16824 0.0
C114 C 0.29839 0.95315 0.135 0.0
H115 H 0.29431 0.93302 0.12753 0.0
H116 H 0.2979 0.96737 0.11839 0.0
H117 H 0.28265 0.95829 0.14926 0.0
C118 C 0.31652 0.84855 0.10094 0.0
N119 N 0.3108 0.85836 0.12492 0.0
N120 N 0.32175 0.88167 0.1276 0.0
C121 C 0.3345 0.88763 0.10493 0.0
C122 C 0.33158 0.86682 0.08737 0.0
C123 C 0.30669 0.82259 0.09088 0.0
H124 H 0.30696 0.80777 0.10692 0.0
H125 H 0.28619 0.82502 0.08377 0.0
H126 H 0.31857 0.81509 0.07423 0.0
O127 O 0.31199 0.83814 0.1851 0.0
O128 O 0.33357 0.87627 0.19007 0.0
H129 H 0.36329 0.91575 0.11759 0.0
H130 H 0.36245 0.91056 0.08237 0.0
C131 C 0.35026 0.91212 0.10046 0.0
H132 H 0.33673 0.92912 0.09834 0.0
H133 H 0.37227 0.92597 0.17748 0.0
O134 O 0.26965 0.81375 0.1391 0.0
C135 C 0.32772 0.85306 0.19807 0.0
Co136 Co 0.15187 0.71609 0.85216 0.0
Co137 Co 0.09833 0.68575 0.8433 0.0
C138 C 0.10532 0.74294 0.82971 0.0
O139 O 0.12771 0.74348 0.84064 0.0
O140 O 0.09176 0.72188 0.82881 0.0
C141 C 0.17748 0.75674 0.87887 0.0
O142 O 0.15271 0.76232 0.88385 0.0
C143 C 0.04291 0.67624 0.85652 0.0
C144 C 0.03535 0.63714 0.83908 0.0
C145 C 0.02346 0.65717 0.85339 0.0
N146 N 0.06518 0.66767 0.84496 0.0
N147 N 0.06055 0.64423 0.83465 0.0
C148 C 0.04015 0.70286 0.86893 0.0
H149 H 0.05694 0.71572 0.86366 0.0
H150 H 0.0399 0.70081 0.89067 0.0
H151 H 0.02137 0.7122 0.86271 0.0
C152 C 0.14819 0.69041 0.90391 0.0
N153 N 0.13822 0.69578 0.87991 0.0
N154 N 0.11537 0.6839 0.87713 0.0
C155 C 0.11 0.67067 0.89968 0.0
C156 C 0.13062 0.67442 0.91732 0.0
C157 C 0.17372 0.70121 0.91407 0.0
H158 H 0.18898 0.70012 0.89849 0.0
H159 H 0.17084 0.7221 0.9197 0.0
H160 H 0.18088 0.69062 0.93171 0.0
O161 O 0.15792 0.69459 0.81941 0.0
O162 O 0.12121 0.67058 0.81521 0.0
H163 H 0.0836 0.64059 0.8863 0.0
H164 H 0.089 0.64071 0.92151 0.0
C165 C 0.08656 0.6533 0.9038 0.0
H166 H 0.0688 0.66569 0.90645 0.0
H167 H 0.07454 0.63316 0.82442 0.0
O168 O 0.18297 0.73652 0.86496 0.0
C169 C 0.1439 0.67774 0.80686 0.0
Co170 Co 0.28775 0.15423 0.85081 0.0
Co171 Co 0.31741 0.10033 0.842 0.0
C172 C 0.2605 0.10777 0.82815 0.0
O173 O 0.26031 0.13034 0.83869 0.0
O174 O 0.28131 0.09384 0.82754 0.0
C175 C 0.24744 0.17888 0.87832 0.0
O176 O 0.24277 0.15395 0.88343 0.0
C177 C 0.32657 0.04481 0.85494 0.0
C178 C 0.36623 0.03748 0.83871 0.0
C179 C 0.34582 0.02546 0.85237 0.0
N180 N 0.3354 0.06716 0.84371 0.0
N181 N 0.35917 0.06266 0.83411 0.0
C182 C 0.29963 0.04197 0.86666 0.0
H183 H 0.28681 0.05866 0.86105 0.0
H184 H 0.3011 0.04183 0.88845 0.0
H185 H 0.29052 0.02315 0.86026 0.0
C186 C 0.31332 0.15018 0.90261 0.0
N187 N 0.30783 0.14031 0.87859 0.0
N188 N 0.31924 0.11721 0.8759 0.0
C189 C 0.33213 0.11153 0.89857 0.0
C190 C 0.32874 0.13223 0.91616 0.0
C191 C 0.3033 0.17609 0.91263 0.0
H192 H 0.30394 0.19102 0.8967 0.0
H193 H 0.28265 0.17365 0.91928 0.0
H194 H 0.31484 0.18344 0.92959 0.0
O195 O 0.30949 0.16054 0.81835 0.0
O196 O 0.33265 0.12331 0.81397 0.0
H197 H 0.36101 0.08962 0.92098 0.0
H198 H 0.33603 0.07016 0.90499 0.0
C199 C 0.34887 0.08767 0.9029 0.0
H200 H 0.36201 0.08464 0.88573 0.0
H201 H 0.37052 0.07674 0.82432 0.0
O202 O 0.26713 0.18498 0.86393 0.0
C203 C 0.32605 0.14622 0.80575 0.0
Co204 Co 0.84847 0.28753 0.8493 0.0
Co205 Co 0.90184 0.31814 0.84073 0.0
C206 C 0.89533 0.26128 0.82632 0.0
O207 O 0.87275 0.26065 0.83683 0.0
O208 O 0.90894 0.28229 0.82592 0.0
C209 C 0.82418 0.24625 0.87583 0.0
O210 O 0.84914 0.24138 0.88061 0.0
C211 C 0.9572 0.32779 0.85366 0.0
C212 C 0.96457 0.36708 0.83655 0.0
C213 C 0.97661 0.34687 0.8505 0.0
N214 N 0.9348 0.33649 0.84245 0.0
N215 N 0.9393 0.36006 0.83236 0.0
C216 C 0.96013 0.30099 0.86567 0.0
H217 H 0.94307 0.28832 0.86085 0.0
H218 H 0.96111 0.30275 0.88741 0.0
H219 H 0.97862 0.29159 0.85874 0.0
C220 C 0.85224 0.31233 0.90145 0.0
N221 N 0.86214 0.30742 0.87732 0.0
N222 N 0.88501 0.3193 0.87472 0.0
C223 C 0.8905 0.33197 0.89756 0.0
C224 C 0.86992 0.32789 0.91517 0.0
C225 C 0.82657 0.30165 0.91139 0.0
H226 H 0.81149 0.30259 0.89563 0.0
H227 H 0.82935 0.28083 0.91733 0.0
H228 H 0.81925 0.31253 0.92881 0.0
O229 O 0.84175 0.30954 0.81713 0.0
O230 O 0.87859 0.33332 0.81287 0.0
H231 H 0.91704 0.36224 0.88487 0.0
H232 H 0.91172 0.36123 0.92009 0.0
C233 C 0.91404 0.3491 0.90205 0.0
H234 H 0.93174 0.33655 0.90434 0.0
H235 H 0.92522 0.37122 0.82236 0.0
O236 O 0.81798 0.26638 0.8621 0.0
C237 C 0.85577 0.32644 0.80465 0.0
Co238 Co 0.70789 0.84186 0.85146 0.0
Co239 Co 0.68059 0.89686 0.84224 0.0
C240 C 0.73723 0.88786 0.8296 0.0
O241 O 0.73612 0.86486 0.83915 0.0
O242 O 0.71718 0.90282 0.82935 0.0
C243 C 0.74679 0.81782 0.88075 0.0
O244 O 0.75031 0.84288 0.88615 0.0
C245 C 0.67612 0.95237 0.85339 0.0
C246 C 0.63671 0.96345 0.83875 0.0
C247 C 0.65909 0.97366 0.85072 0.0
N248 N 0.66449 0.93086 0.84334 0.0
N249 N 0.64088 0.93751 0.83464 0.0
C250 C 0.70238 0.95161 0.86682 0.0
H251 H 0.70631 0.93159 0.87468 0.0
H252 H 0.70322 0.96616 0.88312 0.0
H253 H 0.71803 0.95626 0.85229 0.0
C254 C 0.68186 0.84717 0.90303 0.0
N255 N 0.68776 0.85659 0.87892 0.0
N256 N 0.67766 0.88029 0.87618 0.0
C257 C 0.66553 0.88695 0.89899 0.0
C258 C 0.66783 0.86616 0.91671 0.0
C259 C 0.69044 0.82078 0.91313 0.0
H260 H 0.69059 0.80619 0.8969 0.0
H261 H 0.71054 0.82251 0.92149 0.0
H262 H 0.67738 0.8134 0.92894 0.0
O263 O 0.68649 0.83586 0.81879 0.0
O264 O 0.66556 0.87433 0.81362 0.0
H265 H 0.63776 0.91624 0.88671 0.0
H266 H 0.63927 0.9114 0.92197 0.0
C267 C 0.65105 0.91219 0.90356 0.0
H268 H 0.6654 0.92857 0.9051 0.0
H269 H 0.62766 0.92441 0.82589 0.0
O270 O 0.72805 0.81114 0.86536 0.0
C271 C 0.6711 0.85103 0.80569 0.0
Co272 Co 0.15345 0.15481 0.28657 0.0
Co273 Co 0.16218 0.10122 0.31698 0.0
C274 C 0.17598 0.10786 0.25999 0.0
O275 O 0.16572 0.13056 0.25961 0.0
O276 O 0.17648 0.09412 0.28093 0.0
C277 C 0.12678 0.17928 0.24533 0.0
O278 O 0.12209 0.15434 0.24029 0.0
C279 C 0.14894 0.04591 0.32664 0.0
C280 C 0.16655 0.03822 0.36565 0.0
C281 C 0.15219 0.02638 0.34561 0.0
N282 N 0.16049 0.06817 0.33525 0.0
N283 N 0.17089 0.06347 0.35865 0.0
C284 C 0.1365 0.04321 0.30001 0.0
H285 H 0.14133 0.06024 0.2873 0.0
H286 H 0.11478 0.0425 0.30211 0.0
H287 H 0.14305 0.02467 0.29045 0.0
C288 C 0.10152 0.15094 0.31176 0.0
N289 N 0.12559 0.14103 0.30662 0.0
N290 N 0.12831 0.11818 0.31854 0.0
C291 C 0.10565 0.11276 0.33154 0.0
C292 C 0.088 0.13333 0.32759 0.0
C293 C 0.09144 0.1765 0.30093 0.0
H294 H 0.10707 0.1917 0.30194 0.0
H295 H 0.08572 0.17361 0.28005 0.0
H296 H 0.07387 0.18373 0.31159 0.0
O297 O 0.18574 0.16149 0.3085 0.0
O298 O 0.19021 0.12442 0.33192 0.0
H299 H 0.11887 0.08634 0.36172 0.0
H300 H 0.08368 0.09188 0.36149 0.0
C301 C 0.10142 0.08936 0.34895 0.0
H302 H 0.09872 0.0716 0.33657 0.0
H303 H 0.18117 0.07742 0.36972 0.0
O304 O 0.1405 0.18538 0.26551 0.0
C305 C 0.19832 0.14734 0.32523 0.0
Co306 Co 0.8491 0.1535 0.28815 0.0
Co307 Co 0.90294 0.16256 0.31784 0.0
C308 C 0.89553 0.17624 0.26088 0.0
O309 O 0.87293 0.16577 0.26083 0.0
O310 O 0.90953 0.17693 0.28165 0.0
C311 C 0.8245 0.12637 0.24748 0.0
O312 O 0.84943 0.12168 0.24239 0.0
C313 C 0.9584 0.14963 0.32706 0.0
C314 C 0.96614 0.16695 0.36618 0.0
C315 C 0.97796 0.15277 0.34601 0.0
N316 N 0.93613 0.16105 0.33582 0.0
N317 N 0.94086 0.17128 0.35928 0.0
C318 C 0.96107 0.13736 0.30034 0.0
H319 H 0.94407 0.14238 0.28766 0.0
H320 H 0.96169 0.11563 0.30229 0.0
H321 H 0.97964 0.14391 0.29083 0.0
C322 C 0.85337 0.10171 0.3135 0.0
N323 N 0.86317 0.12577 0.30814 0.0
N324 N 0.88619 0.12857 0.31969 0.0
C325 C 0.89186 0.10592 0.33263 0.0
C326 C 0.87126 0.08823 0.32905 0.0
C327 C 0.82761 0.0916 0.3032 0.0
H328 H 0.81249 0.10732 0.30416 0.0
H329 H 0.83018 0.08548 0.28239 0.0
H330 H 0.82043 0.07426 0.31428 0.0
O331 O 0.84254 0.1858 0.30999 0.0
O332 O 0.87979 0.19051 0.33306 0.0
H333 H 0.9187 0.11909 0.36243 0.0
H334 H 0.91337 0.08388 0.36207 0.0
C335 C 0.91557 0.10171 0.3496 0.0
H336 H 0.93314 0.0992 0.33692 0.0
H337 H 0.9269 0.18141 0.37048 0.0
O338 O 0.81843 0.14032 0.2675 0.0
C339 C 0.85677 0.1985 0.32654 0.0
Co340 Co 0.85028 0.84994 0.28785 0.0
Co341 Co 0.84122 0.90334 0.31831 0.0
C342 C 0.82702 0.89636 0.2613 0.0
O343 O 0.83801 0.874 0.26063 0.0
O344 O 0.82632 0.90992 0.28236 0.0
C345 C 0.87746 0.82521 0.24721 0.0
O346 O 0.88223 0.85012 0.24212 0.0
C347 C 0.85426 0.95876 0.32764 0.0
C348 C 0.83756 0.96627 0.36708 0.0
C349 C 0.85151 0.97818 0.3468 0.0
N350 N 0.84286 0.93648 0.33639 0.0
N351 N 0.83299 0.94108 0.36004 0.0
C352 C 0.86622 0.96154 0.30079 0.0
H353 H 0.86069 0.94481 0.28798 0.0
H354 H 0.88799 0.96169 0.30245 0.0
H355 H 0.85992 0.98035 0.29159 0.0
C356 C 0.90222 0.85406 0.31307 0.0
N357 N 0.87809 0.86383 0.30789 0.0
N358 N 0.87525 0.88669 0.31974 0.0
C359 C 0.89791 0.89229 0.33268 0.0
C360 C 0.91566 0.87181 0.3288 0.0
C361 C 0.91242 0.82844 0.3025 0.0
H362 H 0.89676 0.81325 0.30335 0.0
H363 H 0.9185 0.83125 0.28172 0.0
H364 H 0.92979 0.82122 0.31348 0.0
O365 O 0.81796 0.84332 0.30975 0.0
O366 O 0.81353 0.88005 0.33368 0.0
H367 H 0.8847 0.91861 0.36292 0.0
H368 H 0.91994 0.91348 0.36235 0.0
C369 C 0.90205 0.91577 0.34998 0.0
H370 H 0.90442 0.93354 0.33755 0.0
H371 H 0.823 0.92707 0.3713 0.0
O372 O 0.86336 0.81922 0.26717 0.0
C373 C 0.80542 0.85722 0.3267 0.0
Co374 Co 0.15392 0.85059 0.28669 0.0
Co375 Co 0.10044 0.84209 0.31721 0.0
C376 C 0.10702 0.8281 0.26018 0.0
O377 O 0.12962 0.83855 0.25967 0.0
O378 O 0.09337 0.82754 0.28119 0.0
C379 C 0.17878 0.87683 0.24541 0.0
O380 O 0.15392 0.88169 0.24016 0.0
C381 C 0.04516 0.85543 0.32704 0.0
C382 C 0.03784 0.8384 0.36639 0.0
C383 C 0.02584 0.85252 0.34627 0.0
N384 N 0.06748 0.84394 0.33559 0.0
N385 N 0.063 0.83389 0.35918 0.0
C386 C 0.04224 0.86756 0.30029 0.0
H387 H 0.05903 0.86233 0.28742 0.0
H388 H 0.04184 0.88931 0.30211 0.0
H389 H 0.02349 0.86112 0.29106 0.0
C390 C 0.15031 0.90262 0.31172 0.0
N391 N 0.14034 0.87855 0.30671 0.0
N392 N 0.11751 0.87592 0.31866 0.0
C393 C 0.11215 0.89865 0.33158 0.0
C394 C 0.13275 0.91625 0.32753 0.0
C395 C 0.17583 0.91262 0.30075 0.0
H396 H 0.19105 0.897 0.30188 0.0
H397 H 0.1729 0.91812 0.27982 0.0
H398 H 0.18308 0.93029 0.31123 0.0
O399 O 0.16033 0.81819 0.30852 0.0
O400 O 0.12346 0.81403 0.3323 0.0
H401 H 0.08578 0.88568 0.36189 0.0
H402 H 0.09126 0.92087 0.36133 0.0
C403 C 0.08876 0.90302 0.34895 0.0
H404 H 0.07098 0.90558 0.33657 0.0
H405 H 0.07705 0.82375 0.37027 0.0
O406 O 0.18465 0.86323 0.26573 0.0
C407 C 0.14624 0.80572 0.32537 0.0
Co408 Co 0.15272 0.84604 0.71447 0.0
Co409 Co 0.16094 0.90131 0.68687 0.0
C410 C 0.17448 0.89303 0.74307 0.0
O411 O 0.16582 0.86968 0.74178 0.0
O412 O 0.1739 0.9083 0.72323 0.0
C413 C 0.1243 0.82246 0.7546 0.0
O414 O 0.11947 0.84758 0.75853 0.0
C415 C 0.15148 0.95748 0.67813 0.0
C416 C 0.15991 0.96245 0.63571 0.0
C417 C 0.15121 0.9759 0.65784 0.0
N418 N 0.15933 0.93417 0.66826 0.0
N419 N 0.16444 0.93729 0.64292 0.0
C420 C 0.1463 0.96188 0.70686 0.0
H421 H 0.16455 0.95764 0.71807 0.0
H422 H 0.13096 0.9479 0.71374 0.0
H423 H 0.14035 0.98234 0.7114 0.0
C424 C 0.10084 0.85088 0.68934 0.0
N425 N 0.12493 0.86056 0.69481 0.0
N426 N 0.1271 0.88443 0.685 0.0
C427 C 0.10387 0.89101 0.67365 0.0
C428 C 0.08658 0.86987 0.67595 0.0
C429 C 0.09135 0.82421 0.69773 0.0
H430 H 0.10782 0.80989 0.6974 0.0
H431 H 0.08338 0.82552 0.71803 0.0
H432 H 0.07539 0.81681 0.68486 0.0
O433 O 0.18467 0.83944 0.69237 0.0
O434 O 0.18954 0.87831 0.67217 0.0
H435 H 0.11282 0.91946 0.64395 0.0
H436 H 0.07824 0.91731 0.65192 0.0
C437 C 0.09848 0.91664 0.66017 0.0
H438 H 0.10097 0.93298 0.67443 0.0
H439 H 0.17074 0.92217 0.63048 0.0
O440 O 0.13903 0.81568 0.73538 0.0
C441 C 0.19751 0.85488 0.67705 0.0
Co442 Co 0.15587 0.15229 0.71291 0.0
Co443 Co 0.10111 0.16069 0.68438 0.0
C444 C 0.10859 0.17361 0.74102 0.0
O445 O 0.13185 0.16468 0.74014 0.0
O446 O 0.09378 0.17351 0.72081 0.0
C447 C 0.17996 0.12454 0.75341 0.0
O448 O 0.15494 0.11946 0.75766 0.0
C449 C 0.04519 0.15073 0.67513 0.0
C450 C 0.04021 0.16042 0.63297 0.0
C451 C 0.0268 0.15094 0.65481 0.0
N452 N 0.06843 0.15909 0.66554 0.0
N453 N 0.06533 0.16492 0.64035 0.0
C454 C 0.0408 0.14472 0.7037 0.0
H455 H 0.04446 0.16281 0.71537 0.0
H456 H 0.0552 0.12964 0.71028 0.0
H457 H 0.02051 0.13807 0.708 0.0
C458 C 0.1516 0.10058 0.68739 0.0
N459 N 0.14179 0.12462 0.69282 0.0
N460 N 0.11821 0.12696 0.68238 0.0
C461 C 0.11197 0.1039 0.6705 0.0
C462 C 0.133 0.08654 0.67322 0.0
C463 C 0.17788 0.0909 0.69674 0.0
H464 H 0.19245 0.10715 0.69631 0.0
H465 H 0.17591 0.08361 0.71724 0.0
H466 H 0.1854 0.07445 0.6846 0.0
O467 O 0.16224 0.18462 0.69131 0.0
O468 O 0.12397 0.18945 0.67001 0.0
H469 H 0.08422 0.11374 0.64041 0.0
H470 H 0.0866 0.0789 0.64702 0.0
C471 C 0.08679 0.09878 0.6561 0.0
H472 H 0.07003 0.10048 0.67 0.0
H473 H 0.0804 0.17177 0.62815 0.0
O474 O 0.18638 0.139 0.73385 0.0
C475 C 0.14717 0.19752 0.67567 0.0
Co476 Co 0.85109 0.15622 0.71164 0.0
Co477 Co 0.84206 0.10211 0.68259 0.0
C478 C 0.82891 0.10987 0.73952 0.0
O479 O 0.83909 0.13262 0.73943 0.0
O480 O 0.82838 0.0958 0.71884 0.0
C481 C 0.87903 0.18082 0.75156 0.0
O482 O 0.88435 0.15586 0.75584 0.0
C483 C 0.85355 0.04679 0.67817 0.0
C484 C 0.83977 0.03562 0.63848 0.0
C485 C 0.85132 0.02551 0.66113 0.0
N486 N 0.84364 0.06825 0.66633 0.0
N487 N 0.83546 0.06155 0.64254 0.0
C488 C 0.86646 0.04754 0.7047 0.0
H489 H 0.8745 0.06748 0.70864 0.0
H490 H 0.88251 0.03276 0.70599 0.0
H491 H 0.85155 0.04319 0.72009 0.0
C492 C 0.90282 0.15164 0.68591 0.0
N493 N 0.87872 0.14204 0.69147 0.0
N494 N 0.87591 0.11879 0.68042 0.0
C495 C 0.89861 0.11262 0.66786 0.0
C496 C 0.91633 0.13328 0.67091 0.0
C497 C 0.91302 0.17757 0.69569 0.0
H498 H 0.89711 0.19251 0.69529 0.0
H499 H 0.92005 0.17516 0.71622 0.0
H500 H 0.92977 0.1849 0.68384 0.0
O501 O 0.81849 0.16217 0.69 0.0
O502 O 0.81384 0.12471 0.66721 0.0
H503 H 0.88611 0.08491 0.63863 0.0
H504 H 0.92143 0.08915 0.64055 0.0
C505 C 0.90295 0.08806 0.65218 0.0
H506 H 0.90413 0.07098 0.66574 0.0
H507 H 0.82692 0.07461 0.62914 0.0
O508 O 0.86436 0.18707 0.7321 0.0
C509 C 0.80573 0.1477 0.67367 0.0
Co510 Co 0.84485 0.84716 0.71543 0.0
Co511 Co 0.90112 0.84041 0.68918 0.0
C512 C 0.89205 0.82716 0.74516 0.0
O513 O 0.86837 0.83463 0.74293 0.0
O514 O 0.90798 0.82814 0.72586 0.0
C515 C 0.81958 0.87387 0.75583 0.0
O516 O 0.84443 0.87926 0.76064 0.0
C517 C 0.95757 0.84987 0.68109 0.0
C518 C 0.96217 0.84487 0.63809 0.0
C519 C 0.97585 0.85164 0.66074 0.0
N520 N 0.93412 0.843 0.67081 0.0
N521 N 0.93703 0.83994 0.64512 0.0
C522 C 0.96228 0.8529 0.71008 0.0
H523 H 0.95775 0.83398 0.72 0.0
H524 H 0.9487 0.86801 0.71814 0.0
H525 H 0.98291 0.8581 0.71481 0.0
C526 C 0.84955 0.89953 0.69227 0.0
N527 N 0.85929 0.87531 0.69656 0.0
N528 N 0.8834 0.87383 0.68721 0.0
C529 C 0.88997 0.89767 0.67718 0.0
C530 C 0.86871 0.91474 0.68027 0.0
C531 C 0.82189 0.90774 0.69847 0.0
H532 H 0.80835 0.8907 0.69665 0.0
H533 H 0.82101 0.91537 0.71892 0.0
H534 H 0.81529 0.92363 0.68497 0.0
O535 O 0.83943 0.81547 0.69309 0.0
O536 O 0.87901 0.81103 0.67422 0.0
H537 H 0.92011 0.89282 0.64821 0.0
H538 H 0.91827 0.92569 0.66176 0.0
C539 C 0.91655 0.90441 0.66638 0.0
H540 H 0.93187 0.89906 0.68098 0.0
H541 H 0.92177 0.83483 0.63232 0.0
O542 O 0.81372 0.85975 0.73587 0.0
C543 C 0.85552 0.80278 0.67837 0.0
Co544 Co 0.29052 0.15336 0.15592 0.0
Co545 Co 0.31875 0.16106 0.10093 0.0
C546 C 0.26268 0.17566 0.10882 0.0
O547 O 0.26354 0.16688 0.13216 0.0
O548 O 0.28268 0.1748 0.09376 0.0
C549 C 0.25019 0.12547 0.17962 0.0
O550 O 0.24604 0.12069 0.15453 0.0
C551 C 0.32702 0.15137 0.04488 0.0
C552 C 0.36958 0.15872 0.0395 0.0
C553 C 0.34709 0.15065 0.02626 0.0
N554 N 0.3373 0.15893 0.06809 0.0
N555 N 0.36274 0.16335 0.06476 0.0
C556 C 0.29814 0.1469 0.04073 0.0
H557 H 0.2877 0.16597 0.0429 0.0
H558 H 0.2905 0.13344 0.05618 0.0
H559 H 0.29352 0.13897 0.02097 0.0
C560 C 0.31337 0.10085 0.15092 0.0
N561 N 0.30953 0.12529 0.14149 0.0
N562 N 0.31963 0.12712 0.11772 0.0
C563 C 0.32966 0.10329 0.11101 0.0
C564 C 0.32572 0.08586 0.13185 0.0
C565 C 0.30673 0.09223 0.17837 0.0
H566 H 0.30817 0.10907 0.1922 0.0
H567 H 0.28639 0.0843 0.17878 0.0
H568 H 0.32028 0.07639 0.185 0.0
O569 O 0.31301 0.18472 0.1626 0.0
O570 O 0.33384 0.18948 0.12404 0.0
H571 H 0.35891 0.1098 0.08143 0.0
H572 H 0.34764 0.07606 0.08348 0.0
C573 C 0.34153 0.097 0.08479 0.0
H574 H 0.32695 0.10109 0.06907 0.0
H575 H 0.37547 0.16931 0.07977 0.0
O576 O 0.26957 0.14002 0.1863 0.0
C577 C 0.32866 0.19744 0.14743 0.0
Co578 Co 0.2894 0.84953 0.84792 0.0
Co579 Co 0.31813 0.84055 0.90244 0.0
C580 C 0.26155 0.82739 0.89496 0.0
O581 O 0.2624 0.8365 0.87177 0.0
O582 O 0.28175 0.82741 0.90977 0.0
C583 C 0.24843 0.87696 0.82426 0.0
O584 O 0.24391 0.88146 0.84934 0.0
C585 C 0.32749 0.8501 0.95837 0.0
C586 C 0.36954 0.83999 0.96335 0.0
C587 C 0.34777 0.84957 0.97679 0.0
N588 N 0.33703 0.84182 0.93509 0.0
N589 N 0.36216 0.83574 0.93818 0.0
C590 C 0.29897 0.85634 0.96274 0.0
H591 H 0.28718 0.83831 0.95916 0.0
H592 H 0.2925 0.87139 0.94826 0.0
H593 H 0.29472 0.86312 0.983 0.0
C594 C 0.31457 0.90128 0.85274 0.0
N595 N 0.30921 0.87716 0.86236 0.0
N596 N 0.3199 0.87454 0.88581 0.0
C597 C 0.33195 0.89748 0.89213 0.0
C598 C 0.32904 0.91506 0.8713 0.0
C599 C 0.30499 0.91121 0.82663 0.0
H600 H 0.30582 0.89523 0.81177 0.0
H601 H 0.2843 0.91789 0.82872 0.0
H602 H 0.31666 0.92813 0.81939 0.0
O603 O 0.31142 0.81769 0.8409 0.0
O604 O 0.33276 0.81235 0.87909 0.0
H605 H 0.36241 0.88705 0.91927 0.0
H606 H 0.35618 0.92199 0.91728 0.0
C607 C 0.34687 0.90222 0.91709 0.0
H608 H 0.33325 0.90055 0.93409 0.0
H609 H 0.37431 0.82887 0.92308 0.0
O610 O 0.26831 0.86305 0.81766 0.0
C611 C 0.32725 0.80473 0.85569 0.0
Co612 Co 0.15228 0.2875 0.84715 0.0
Co613 Co 0.16101 0.31772 0.90083 0.0
C614 C 0.17438 0.26072 0.89433 0.0
O615 O 0.16436 0.26051 0.87151 0.0
O616 O 0.17493 0.28159 0.90815 0.0
C617 C 0.12512 0.24647 0.82299 0.0
O618 O 0.12033 0.24173 0.84798 0.0
C619 C 0.1483 0.32802 0.95618 0.0
C620 C 0.16542 0.36742 0.9629 0.0
C621 C 0.15148 0.34742 0.97529 0.0
N622 N 0.15949 0.33636 0.93363 0.0
N623 N 0.16959 0.35999 0.93775 0.0
C624 C 0.13618 0.30131 0.95951 0.0
H625 H 0.14103 0.28833 0.94271 0.0
H626 H 0.11445 0.30318 0.96032 0.0
H627 H 0.14299 0.29218 0.97819 0.0
C628 C 0.10047 0.31305 0.85095 0.0
N629 N 0.12452 0.30778 0.86086 0.0
N630 N 0.12722 0.31951 0.8838 0.0
C631 C 0.10456 0.33248 0.88931 0.0
C632 C 0.08694 0.32873 0.86869 0.0
C633 C 0.09038 0.3024 0.82532 0.0
H634 H 0.10614 0.3031 0.81022 0.0
H635 H 0.08422 0.28165 0.82819 0.0
H636 H 0.07309 0.31342 0.81795 0.0
O637 O 0.18479 0.30911 0.84049 0.0
O638 O 0.18921 0.33231 0.8777 0.0
H639 H 0.11752 0.36258 0.91589 0.0
H640 H 0.08231 0.36183 0.91073 0.0
C641 C 0.10027 0.34955 0.91294 0.0
H642 H 0.09797 0.33696 0.93061 0.0
H643 H 0.17954 0.37094 0.92347 0.0
O644 O 0.13912 0.26639 0.8167 0.0
C645 C 0.19742 0.32565 0.85481 0.0
Co646 Co 0.7133 0.15191 0.84418 0.0
Co647 Co 0.68558 0.15958 0.89929 0.0
C648 C 0.74193 0.17337 0.89092 0.0
O649 O 0.74083 0.16466 0.8676 0.0
O650 O 0.72194 0.17292 0.90598 0.0
C651 C 0.75356 0.12452 0.81992 0.0
O652 O 0.75764 0.11919 0.84491 0.0
C653 C 0.68053 0.14821 0.95482 0.0
C654 C 0.63974 0.15958 0.96466 0.0
C655 C 0.66266 0.14932 0.97555 0.0
N656 N 0.66885 0.15748 0.93297 0.0
N657 N 0.64442 0.16423 0.9389 0.0
C658 C 0.70772 0.13671 0.95486 0.0
H659 H 0.71281 0.1292 0.93497 0.0
H660 H 0.7093 0.12047 0.96942 0.0
H661 H 0.72212 0.15232 0.96001 0.0
C662 C 0.69003 0.09947 0.84908 0.0
N663 N 0.69419 0.12382 0.85859 0.0
N664 N 0.68379 0.1258 0.88222 0.0
C665 C 0.67301 0.10223 0.88867 0.0
C666 C 0.67698 0.08473 0.86791 0.0
C667 C 0.69709 0.09071 0.82179 0.0
H668 H 0.69577 0.10747 0.80785 0.0
H669 H 0.7175 0.08292 0.82173 0.0
H670 H 0.68373 0.07476 0.81504 0.0
O671 O 0.69105 0.18378 0.83828 0.0
O672 O 0.67022 0.18833 0.87688 0.0
H673 H 0.6449 0.11134 0.91875 0.0
H674 H 0.65095 0.07648 0.91466 0.0
C675 C 0.66013 0.09628 0.91451 0.0
H676 H 0.67509 0.09704 0.93037 0.0
H677 H 0.63095 0.17192 0.92539 0.0
O678 O 0.73401 0.13896 0.81346 0.0
C679 C 0.67548 0.19647 0.85357 0.0
Co680 Co 0.84753 0.71486 0.85214 0.0
Co681 Co 0.83828 0.68247 0.90419 0.0
C682 C 0.8232 0.73948 0.89879 0.0
O683 O 0.83485 0.74125 0.87683 0.0
O684 O 0.82245 0.71786 0.91142 0.0
C685 C 0.87391 0.75672 0.82843 0.0
O686 O 0.87788 0.76199 0.85345 0.0
C687 C 0.85158 0.67285 0.95923 0.0
C688 C 0.83446 0.63367 0.96712 0.0
C689 C 0.8487 0.65389 0.9788 0.0
N690 N 0.83999 0.66406 0.93708 0.0
N691 N 0.82987 0.64057 0.94187 0.0
C692 C 0.86371 0.69963 0.96177 0.0
H693 H 0.85846 0.71226 0.9448 0.0
H694 H 0.88546 0.69782 0.96218 0.0
H695 H 0.85729 0.7091 0.9804 0.0
C696 C 0.89989 0.69052 0.85608 0.0
N697 N 0.87554 0.69491 0.86568 0.0
N698 N 0.87256 0.68211 0.888 0.0
C699 C 0.89533 0.66926 0.8934 0.0
C700 C 0.91331 0.67427 0.87337 0.0
C701 C 0.91029 0.70219 0.83102 0.0
H702 H 0.89505 0.70115 0.81542 0.0
H703 H 0.91546 0.7231 0.83453 0.0
H704 H 0.92828 0.6921 0.82396 0.0
O705 O 0.81553 0.69273 0.8446 0.0
O706 O 0.81121 0.66715 0.88024 0.0
H707 H 0.88183 0.6381 0.91852 0.0
H708 H 0.91706 0.63844 0.91319 0.0
C709 C 0.89934 0.65091 0.91611 0.0
H710 H 0.90201 0.66253 0.93438 0.0
H711 H 0.81964 0.62936 0.928 0.0
O712 O 0.86061 0.73637 0.82205 0.0
C713 C 0.80314 0.67499 0.85766 0.0
Co714 Co 0.71153 0.85037 0.15784 0.0
Co715 Co 0.68385 0.84164 0.10258 0.0
C716 C 0.74028 0.82893 0.1108 0.0
O717 O 0.73892 0.83764 0.13413 0.0
O718 O 0.7204 0.82916 0.09556 0.0
C719 C 0.75154 0.87891 0.18163 0.0
O720 O 0.75553 0.8839 0.15655 0.0
C721 C 0.67453 0.85044 0.04619 0.0
C722 C 0.63208 0.84187 0.04191 0.0
C723 C 0.65401 0.85039 0.02801 0.0
N724 N 0.66499 0.84292 0.06976 0.0
N725 N 0.63962 0.83773 0.06704 0.0
C726 C 0.70318 0.85561 0.0413 0.0
H727 H 0.7146 0.83772 0.04644 0.0
H728 H 0.70999 0.87175 0.05438 0.0
H729 H 0.7075 0.86048 0.02051 0.0
C730 C 0.68573 0.90187 0.15293 0.0
N731 N 0.69147 0.87784 0.14329 0.0
N732 N 0.68158 0.87546 0.11947 0.0
C733 C 0.6699 0.89851 0.11288 0.0
C734 C 0.67205 0.91589 0.13396 0.0
C735 C 0.69425 0.91159 0.17948 0.0
H736 H 0.69403 0.89521 0.19393 0.0
H737 H 0.71453 0.91955 0.17799 0.0
H738 H 0.6814 0.92758 0.18684 0.0
O739 O 0.6899 0.81819 0.16452 0.0
O740 O 0.66963 0.81291 0.12574 0.0
H741 H 0.64007 0.88929 0.08467 0.0
H742 H 0.64805 0.92388 0.08641 0.0
C743 C 0.6563 0.90366 0.08725 0.0
H744 H 0.67047 0.90097 0.07085 0.0
H745 H 0.6274 0.83162 0.08241 0.0
O746 O 0.73228 0.86415 0.18827 0.0
C747 C 0.6747 0.80509 0.14919 0.0
Co748 Co 0.15254 0.71314 0.15596 0.0
Co749 Co 0.161 0.6839 0.10162 0.0
C750 C 0.17477 0.74047 0.1088 0.0
O751 O 0.16535 0.74017 0.1319 0.0
O752 O 0.17454 0.72003 0.09434 0.0
C753 C 0.12477 0.75375 0.1798 0.0
O754 O 0.11994 0.75803 0.15473 0.0
C755 C 0.15013 0.67529 0.04592 0.0
C756 C 0.16109 0.63364 0.03968 0.0
C757 C 0.15065 0.65549 0.027 0.0
N758 N 0.15926 0.66542 0.06874 0.0
N759 N 0.16583 0.64052 0.06491 0.0
C760 C 0.14316 0.70376 0.04241 0.0
H761 H 0.16127 0.71576 0.04472 0.0
H762 H 0.12922 0.70986 0.05811 0.0
H763 H 0.13473 0.70814 0.0228 0.0
C764 C 0.10064 0.6879 0.15169 0.0
N765 N 0.12472 0.6932 0.14189 0.0
N766 N 0.12715 0.68233 0.1185 0.0
C767 C 0.10417 0.67026 0.11241 0.0
C768 C 0.0867 0.67334 0.1333 0.0
C769 C 0.09086 0.69758 0.17782 0.0
H770 H 0.10699 0.69707 0.19253 0.0
H771 H 0.08384 0.71814 0.17562 0.0
H772 H 0.07418 0.68575 0.18535 0.0
O773 O 0.18466 0.6912 0.16269 0.0
O774 O 0.18935 0.66925 0.12475 0.0
H775 H 0.11484 0.63999 0.08513 0.0
H776 H 0.07978 0.64519 0.08797 0.0
C777 C 0.09927 0.65508 0.08763 0.0
H778 H 0.10007 0.66868 0.07055 0.0
H779 H 0.17341 0.6282 0.07953 0.0
O780 O 0.13918 0.73421 0.18635 0.0
C781 C 0.19741 0.67516 0.14792 0.0
Co782 Co 0.84826 0.28951 0.15566 0.0
Co783 Co 0.84037 0.31696 0.10019 0.0
C784 C 0.82649 0.2609 0.10869 0.0
O785 O 0.83501 0.26227 0.1321 0.0
O786 O 0.82722 0.28064 0.09329 0.0
C787 C 0.87647 0.24951 0.1798 0.0
O788 O 0.8812 0.24508 0.15474 0.0
C789 C 0.84999 0.32513 0.044 0.0
C790 C 0.84239 0.36764 0.03861 0.0
C791 C 0.85061 0.34521 0.02537 0.0
N792 N 0.84234 0.33536 0.06722 0.0
N793 N 0.83777 0.36077 0.06387 0.0
C794 C 0.85467 0.29629 0.03984 0.0
H795 H 0.83573 0.28568 0.04233 0.0
H796 H 0.86842 0.2888 0.0551 0.0
H797 H 0.86235 0.29173 0.01996 0.0
C798 C 0.90055 0.31268 0.15032 0.0
N799 N 0.87613 0.30859 0.14096 0.0
N800 N 0.87425 0.31834 0.11704 0.0
C801 C 0.89802 0.32838 0.11017 0.0
C802 C 0.91547 0.32481 0.13105 0.0
C803 C 0.90926 0.30636 0.17781 0.0
H804 H 0.89244 0.30787 0.19167 0.0
H805 H 0.91729 0.28606 0.17841 0.0
H806 H 0.92505 0.32005 0.18425 0.0
O807 O 0.81674 0.31187 0.16215 0.0
O808 O 0.81174 0.33192 0.12321 0.0
H809 H 0.89141 0.35713 0.08013 0.0
H810 H 0.92519 0.34604 0.08236 0.0
C811 C 0.90428 0.33986 0.08376 0.0
H812 H 0.90026 0.32502 0.06828 0.0
H813 H 0.83173 0.37348 0.07887 0.0
O814 O 0.86182 0.2689 0.18625 0.0
C815 C 0.80388 0.32713 0.14673 0.0
Co816 Co 0.65461 0.78728 0.65165 0.0
Co817 Co 0.60018 0.81642 0.65985 0.0
C818 C 0.60766 0.75932 0.6726 0.0
O819 O 0.63055 0.75962 0.66276 0.0
O820 O 0.59345 0.77995 0.67323 0.0
C821 C 0.68032 0.7472 0.62447 0.0
O822 O 0.65556 0.74225 0.61881 0.0
C823 C 0.54465 0.82612 0.64661 0.0
C824 C 0.5374 0.86529 0.66402 0.0
C825 C 0.52532 0.84531 0.64981 0.0
N826 N 0.56704 0.83457 0.65806 0.0
N827 N 0.56258 0.85807 0.66833 0.0
C828 C 0.54165 0.7995 0.63426 0.0
H829 H 0.55851 0.7866 0.63921 0.0
H830 H 0.54103 0.80154 0.61252 0.0
H831 H 0.52297 0.79019 0.64079 0.0
C832 C 0.65125 0.81348 0.60011 0.0
N833 N 0.64105 0.80776 0.62394 0.0
N834 N 0.61782 0.81898 0.62637 0.0
C835 C 0.61241 0.83202 0.60372 0.0
C836 C 0.6334 0.82891 0.5864 0.0
C837 C 0.67721 0.80334 0.59034 0.0
H838 H 0.69199 0.80399 0.60639 0.0
H839 H 0.67474 0.78267 0.58378 0.0
H840 H 0.68477 0.81473 0.57337 0.0
O841 O 0.66009 0.80839 0.68467 0.0
O842 O 0.62251 0.83104 0.68874 0.0
H843 H 0.58484 0.86136 0.61638 0.0
H844 H 0.59051 0.86084 0.58123 0.0
C845 C 0.58839 0.84846 0.59913 0.0
H846 H 0.57111 0.83539 0.59659 0.0
H847 H 0.57667 0.86907 0.67849 0.0
O848 O 0.68586 0.76697 0.63898 0.0
C849 C 0.64531 0.82451 0.6973 0.0
Co850 Co 0.20923 0.66062 0.65418 0.0
Co851 Co 0.18227 0.60515 0.66206 0.0
C852 C 0.23859 0.61401 0.67527 0.0
O853 O 0.2371 0.63741 0.66681 0.0
O854 O 0.2188 0.59871 0.67482 0.0
C855 C 0.24856 0.6845 0.62541 0.0
O856 O 0.25199 0.65942 0.62005 0.0
C857 C 0.17757 0.54956 0.65089 0.0
C858 C 0.1373 0.53922 0.66357 0.0
C859 C 0.16005 0.52857 0.65272 0.0
N860 N 0.16584 0.5713 0.66035 0.0
N861 N 0.14172 0.56507 0.66788 0.0
C862 C 0.20446 0.54985 0.63873 0.0
H863 H 0.20922 0.56984 0.63126 0.0
H864 H 0.20575 0.53546 0.62232 0.0
H865 H 0.2193 0.54471 0.65394 0.0
C866 C 0.18557 0.65538 0.6019 0.0
N867 N 0.18987 0.64599 0.6263 0.0
N868 N 0.17999 0.62213 0.62825 0.0
C869 C 0.16951 0.61542 0.60461 0.0
C870 C 0.17312 0.63624 0.5871 0.0
C871 C 0.19201 0.68279 0.59306 0.0
H872 H 0.19085 0.69669 0.60985 0.0
H873 H 0.21219 0.6832 0.58471 0.0
H874 H 0.17817 0.6893 0.57742 0.0
O875 O 0.18723 0.66647 0.68627 0.0
O876 O 0.16715 0.62751 0.69102 0.0
H877 H 0.1428 0.58416 0.61404 0.0
H878 H 0.14741 0.58933 0.57908 0.0
C879 C 0.15731 0.58929 0.59855 0.0
H880 H 0.17283 0.57396 0.59834 0.0
H881 H 0.1283 0.57842 0.67592 0.0
O882 O 0.2297 0.69129 0.64061 0.0
C883 C 0.17207 0.65091 0.69913 0.0
Co884 Co 0.34506 0.21197 0.65299 0.0
Co885 Co 0.39929 0.18288 0.66127 0.0
C886 C 0.39204 0.23968 0.67448 0.0
O887 O 0.36895 0.23935 0.66514 0.0
O888 O 0.40634 0.21916 0.67454 0.0
C889 C 0.32088 0.25262 0.62584 0.0
O890 O 0.34586 0.25676 0.62051 0.0
C891 C 0.45433 0.17765 0.64869 0.0
C892 C 0.46536 0.13807 0.66288 0.0
C893 C 0.47549 0.1604 0.65073 0.0
N894 N 0.43296 0.16621 0.65926 0.0
N895 N 0.43958 0.14249 0.66768 0.0
C896 C 0.45354 0.20398 0.6354 0.0
H897 H 0.43342 0.20808 0.62787 0.0
H898 H 0.46785 0.20482 0.61889 0.0
H899 H 0.45851 0.21953 0.64993 0.0
C900 C 0.34906 0.18673 0.60099 0.0
N901 N 0.3589 0.19195 0.62508 0.0
N902 N 0.38213 0.18078 0.62758 0.0
C903 C 0.38801 0.1684 0.6047 0.0
C904 C 0.36723 0.17179 0.58716 0.0
C905 C 0.32317 0.1969 0.59109 0.0
H906 H 0.30831 0.19636 0.60709 0.0
H907 H 0.3257 0.21753 0.58441 0.0
H908 H 0.31565 0.18541 0.57418 0.0
O909 O 0.33904 0.19021 0.68546 0.0
O910 O 0.37684 0.16796 0.68997 0.0
H911 H 0.41598 0.13926 0.61691 0.0
H912 H 0.41078 0.14068 0.58169 0.0
C913 C 0.41241 0.15257 0.59997 0.0
H914 H 0.42948 0.16604 0.59807 0.0
H915 H 0.42656 0.12938 0.67672 0.0
O916 O 0.31445 0.23293 0.64011 0.0
C917 C 0.3538 0.17413 0.69819 0.0
Co918 Co 0.78919 0.3468 0.65262 0.0
Co919 Co 0.81781 0.4014 0.66124 0.0
C920 C 0.7613 0.39383 0.6747 0.0
O921 O 0.76213 0.37064 0.66562 0.0
O922 O 0.78146 0.40869 0.67445 0.0
C923 C 0.74841 0.32307 0.62508 0.0
O924 O 0.74388 0.34813 0.62051 0.0
C925 C 0.82713 0.45724 0.65094 0.0
C926 C 0.86907 0.46245 0.66132 0.0
C927 C 0.84738 0.47569 0.6513 0.0
N928 N 0.83662 0.43412 0.65972 0.0
N929 N 0.86169 0.43736 0.66597 0.0
C930 C 0.79868 0.46147 0.64429 0.0
H931 H 0.78662 0.45763 0.66209 0.0
H932 H 0.79255 0.44709 0.629 0.0
H933 H 0.79442 0.48176 0.63761 0.0
C934 C 0.81435 0.35139 0.60074 0.0
N935 N 0.809 0.36111 0.62485 0.0
N936 N 0.81964 0.38459 0.62731 0.0
C937 C 0.83165 0.39081 0.60431 0.0
C938 C 0.82875 0.36992 0.58681 0.0
C939 C 0.80481 0.32523 0.59094 0.0
H940 H 0.80558 0.31048 0.60703 0.0
H941 H 0.78416 0.32728 0.58414 0.0
H942 H 0.81655 0.31788 0.57412 0.0
O943 O 0.81114 0.33992 0.68462 0.0
O944 O 0.83233 0.37821 0.68969 0.0
H945 H 0.8619 0.41817 0.61477 0.0
H946 H 0.85615 0.41569 0.57976 0.0
C947 C 0.84657 0.41574 0.59942 0.0
H948 H 0.83288 0.43272 0.60064 0.0
H949 H 0.8738 0.42239 0.67319 0.0
O950 O 0.76818 0.3165 0.63916 0.0
C951 C 0.82683 0.35488 0.69755 0.0
Co952 Co 0.65422 0.21476 0.35058 0.0
Co953 Co 0.60023 0.18518 0.3417 0.0
C954 C 0.60773 0.242 0.32771 0.0
O955 O 0.63041 0.24198 0.33802 0.0
O956 O 0.59361 0.22131 0.3272 0.0
C957 C 0.6788 0.25571 0.37739 0.0
O958 O 0.65385 0.26069 0.38213 0.0
C959 C 0.54472 0.17577 0.35444 0.0
C960 C 0.53745 0.13634 0.33763 0.0
C961 C 0.52537 0.15659 0.35146 0.0
N962 N 0.56713 0.16706 0.34327 0.0
N963 N 0.56267 0.14342 0.33333 0.0
C964 C 0.54173 0.20261 0.36635 0.0
H965 H 0.5586 0.2154 0.36119 0.0
H966 H 0.54111 0.20095 0.38811 0.0
H967 H 0.52307 0.21183 0.35965 0.0
C968 C 0.64982 0.18975 0.40253 0.0
N969 N 0.64005 0.19501 0.37843 0.0
N970 N 0.617 0.18352 0.37569 0.0
C971 C 0.61127 0.17073 0.39841 0.0
C972 C 0.63188 0.17432 0.41607 0.0
C973 C 0.67561 0.2 0.41261 0.0
H974 H 0.69072 0.19893 0.39688 0.0
H975 H 0.67311 0.22084 0.41863 0.0
H976 H 0.68273 0.18894 0.42999 0.0
O977 O 0.66069 0.19264 0.31846 0.0
O978 O 0.62332 0.16974 0.31388 0.0
H979 H 0.58446 0.1408 0.38551 0.0
H980 H 0.58951 0.1417 0.42075 0.0
C981 C 0.58748 0.15389 0.40271 0.0
H982 H 0.56993 0.16666 0.40488 0.0
H983 H 0.5768 0.13221 0.32345 0.0
O984 O 0.68492 0.23558 0.36362 0.0
C985 C 0.64637 0.17606 0.30588 0.0
Co986 Co 0.78883 0.65588 0.35048 0.0
Co987 Co 0.8172 0.60112 0.34148 0.0
C988 C 0.76054 0.60902 0.32874 0.0
O989 O 0.7615 0.63218 0.33787 0.0
O990 O 0.78071 0.59419 0.32861 0.0
C991 C 0.74826 0.68008 0.37807 0.0
O992 O 0.74352 0.65508 0.38278 0.0
C993 C 0.82575 0.54503 0.35132 0.0
C994 C 0.86784 0.53952 0.34174 0.0
C995 C 0.84584 0.52639 0.35124 0.0
N996 N 0.83562 0.56814 0.34291 0.0
N997 N 0.86077 0.5647 0.33711 0.0
C998 C 0.79713 0.54102 0.35737 0.0
H999 H 0.78542 0.54548 0.33949 0.0
H1000 H 0.79095 0.55503 0.37297 0.0
H1001 H 0.79246 0.5206 0.36336 0.0
C1002 C 0.81442 0.65105 0.40208 0.0
N1003 N 0.8088 0.64141 0.37802 0.0
N1004 N 0.81937 0.61791 0.37538 0.0
C1005 C 0.83161 0.6116 0.39823 0.0
C1006 C 0.82896 0.63247 0.41579 0.0
C1007 C 0.80496 0.67718 0.41206 0.0
H1008 H 0.80582 0.69204 0.39608 0.0
H1009 H 0.78428 0.67517 0.41876 0.0
H1010 H 0.81667 0.68436 0.42897 0.0
O1011 O 0.81058 0.66258 0.31831 0.0
O1012 O 0.83174 0.62429 0.313 0.0
H1013 H 0.86193 0.5844 0.38761 0.0
H1014 H 0.85594 0.58638 0.42259 0.0
C1015 C 0.84649 0.5866 0.40288 0.0
H1016 H 0.83282 0.56965 0.4013 0.0
H1017 H 0.87317 0.57961 0.33027 0.0
O1018 O 0.76812 0.6864 0.364 0.0
C1019 C 0.82622 0.64766 0.30527 0.0
Co1020 Co 0.34845 0.78622 0.35029 0.0
Co1021 Co 0.4022 0.81633 0.34163 0.0
C1022 C 0.39535 0.75931 0.32811 0.0
O1023 O 0.37265 0.75911 0.33836 0.0
O1024 O 0.40918 0.78019 0.32744 0.0
C1025 C 0.32348 0.74501 0.37662 0.0
O1026 O 0.34833 0.73966 0.38144 0.0
C1027 C 0.45763 0.82603 0.35472 0.0
C1028 C 0.4647 0.86559 0.33814 0.0
C1029 C 0.4769 0.84536 0.35194 0.0
N1030 N 0.43522 0.83464 0.34344 0.0
N1031 N 0.43956 0.85835 0.33364 0.0
C1032 C 0.46059 0.79922 0.36671 0.0
H1033 H 0.44388 0.78633 0.36134 0.0
H1034 H 0.46083 0.80094 0.38848 0.0
H1035 H 0.47938 0.79007 0.36029 0.0
C1036 C 0.35217 0.8116 0.40211 0.0
N1037 N 0.36217 0.8063 0.37811 0.0
N1038 N 0.38508 0.81809 0.37542 0.0
C1039 C 0.39045 0.8312 0.39804 0.0
C1040 C 0.36977 0.82746 0.41561 0.0
C1041 C 0.32657 0.80085 0.41214 0.0
H1042 H 0.31135 0.80209 0.39652 0.0
H1043 H 0.32934 0.7799 0.41762 0.0
H1044 H 0.31943 0.81137 0.42984 0.0
O1045 O 0.34209 0.80797 0.31786 0.0
O1046 O 0.37921 0.83131 0.31346 0.0
H1047 H 0.41678 0.86148 0.38498 0.0
H1048 H 0.4117 0.86072 0.42023 0.0
C1049 C 0.41395 0.84845 0.40227 0.0
H1050 H 0.43172 0.83598 0.40452 0.0
H1051 H 0.42541 0.86952 0.32374 0.0
O1052 O 0.31767 0.76539 0.36307 0.0
C1053 C 0.35632 0.82461 0.30526 0.0
Co1054 Co 0.21335 0.34662 0.34836 0.0
Co1055 Co 0.18602 0.40209 0.34073 0.0
C1056 C 0.24196 0.39375 0.32661 0.0
O1057 O 0.24046 0.37027 0.33491 0.0
O1058 O 0.22232 0.40929 0.3276 0.0
C1059 C 0.25342 0.3229 0.37657 0.0
O1060 O 0.25761 0.34799 0.3813 0.0
C1061 C 0.1768 0.45839 0.34935 0.0
C1062 C 0.13378 0.46219 0.34393 0.0
C1063 C 0.15614 0.47633 0.35068 0.0
N1064 N 0.16699 0.43469 0.34272 0.0
N1065 N 0.14127 0.4371 0.33942 0.0
C1066 C 0.20567 0.46362 0.35254 0.0
H1067 H 0.21573 0.4595 0.33359 0.0
H1068 H 0.21397 0.45 0.36749 0.0
H1069 H 0.20997 0.48427 0.35804 0.0
C1070 C 0.1902 0.35168 0.40065 0.0
N1071 N 0.19428 0.36118 0.37629 0.0
N1072 N 0.18478 0.38519 0.3746 0.0
C1073 C 0.17501 0.39203 0.3985 0.0
C1074 C 0.1784 0.37099 0.41581 0.0
C1075 C 0.19609 0.32398 0.40899 0.0
H1076 H 0.19444 0.3104 0.39195 0.0
H1077 H 0.21636 0.32294 0.41705 0.0
H1078 H 0.18225 0.31751 0.42465 0.0
O1079 O 0.19102 0.33997 0.31698 0.0
O1080 O 0.17126 0.37904 0.31199 0.0
H1081 H 0.14587 0.42196 0.39339 0.0
H1082 H 0.15952 0.42053 0.42626 0.0
C1083 C 0.16408 0.41861 0.40498 0.0
H1084 H 0.17857 0.43396 0.39942 0.0
H1085 H 0.12879 0.42156 0.33442 0.0
O1086 O 0.23411 0.31624 0.36191 0.0
C1087 C 0.17591 0.35552 0.3041 0.0
Co1088 Co 0.65252 0.6541 0.78706 0.0
Co1089 Co 0.66085 0.5999 0.81655 0.0
C1090 C 0.67519 0.60725 0.75995 0.0
O1091 O 0.66538 0.63016 0.76003 0.0
O1092 O 0.67524 0.593 0.78055 0.0
C1093 C 0.62532 0.67808 0.74609 0.0
O1094 O 0.62067 0.65304 0.74153 0.0
C1095 C 0.64794 0.54441 0.82598 0.0
C1096 C 0.66417 0.53726 0.86569 0.0
C1097 C 0.6506 0.52511 0.84529 0.0
N1098 N 0.65904 0.56684 0.83476 0.0
N1099 N 0.66862 0.56245 0.85857 0.0
C1100 C 0.63634 0.54138 0.799 0.0
H1101 H 0.64164 0.55818 0.78621 0.0
H1102 H 0.61456 0.54081 0.80041 0.0
H1103 H 0.64312 0.52268 0.78991 0.0
C1104 C 0.60045 0.64993 0.81191 0.0
N1105 N 0.6245 0.64002 0.8067 0.0
N1106 N 0.62699 0.61685 0.81804 0.0
C1107 C 0.60415 0.61117 0.83061 0.0
C1108 C 0.58666 0.63194 0.82706 0.0
C1109 C 0.59064 0.67592 0.80191 0.0
H1110 H 0.60662 0.69077 0.80274 0.0
H1111 H 0.58415 0.67359 0.78119 0.0
H1112 H 0.57361 0.6833 0.81333 0.0
O1113 O 0.68448 0.66074 0.80944 0.0
O1114 O 0.68881 0.62301 0.83181 0.0
H1115 H 0.61653 0.58412 0.86055 0.0
H1116 H 0.58133 0.58923 0.85914 0.0
C1117 C 0.59954 0.58726 0.84721 0.0
H1118 H 0.59755 0.56981 0.83428 0.0
H1119 H 0.67835 0.5766 0.86987 0.0
O1120 O 0.63936 0.68454 0.76593 0.0
C1121 C 0.69694 0.64613 0.82586 0.0
Co1122 Co 0.34644 0.65383 0.78851 0.0
Co1123 Co 0.40188 0.66123 0.81589 0.0
C1124 C 0.39353 0.67521 0.75983 0.0
O1125 O 0.37005 0.667 0.76135 0.0
O1126 O 0.409 0.67437 0.77951 0.0
C1127 C 0.32167 0.62728 0.74775 0.0
O1128 O 0.34657 0.62239 0.74271 0.0
C1129 C 0.45797 0.65147 0.82423 0.0
C1130 C 0.46312 0.65862 0.86686 0.0
C1131 C 0.47647 0.65064 0.8444 0.0
N1132 N 0.43471 0.659 0.83442 0.0
N1133 N 0.43791 0.66331 0.8599 0.0
C1134 C 0.46228 0.64709 0.79535 0.0
H1135 H 0.4597 0.6661 0.78489 0.0
H1136 H 0.44717 0.63329 0.78768 0.0
H1137 H 0.48223 0.63961 0.79078 0.0
C1138 C 0.35146 0.60128 0.81118 0.0
N1139 N 0.36094 0.62568 0.80729 0.0
N1140 N 0.38478 0.62744 0.81722 0.0
C1141 C 0.39146 0.60362 0.82727 0.0
C1142 C 0.37055 0.58626 0.8235 0.0
C1143 C 0.32405 0.59272 0.80438 0.0
H1144 H 0.31019 0.6095 0.80622 0.0
H1145 H 0.32364 0.58535 0.78383 0.0
H1146 H 0.31746 0.57655 0.81755 0.0
O1147 O 0.34019 0.68518 0.81103 0.0
O1148 O 0.37916 0.68999 0.831 0.0
H1149 H 0.4212 0.60986 0.8564 0.0
H1150 H 0.41917 0.57625 0.8448 0.0
C1151 C 0.41776 0.59724 0.83891 0.0
H1152 H 0.43338 0.60152 0.82427 0.0
H1153 H 0.42284 0.66922 0.87258 0.0
O1154 O 0.31566 0.6411 0.76787 0.0
C1155 C 0.35567 0.69793 0.8263 0.0
Co1156 Co 0.35028 0.34532 0.78925 0.0
Co1157 Co 0.34172 0.3992 0.81884 0.0
C1158 C 0.32846 0.39219 0.76189 0.0
O1159 O 0.33828 0.3693 0.76184 0.0
O1160 O 0.3282 0.40617 0.78264 0.0
C1161 C 0.37744 0.32095 0.74861 0.0
O1162 O 0.38266 0.34589 0.74417 0.0
C1163 C 0.35422 0.45423 0.82396 0.0
C1164 C 0.33991 0.46538 0.86347 0.0
C1165 C 0.35211 0.47544 0.84113 0.0
N1166 N 0.34365 0.43289 0.83545 0.0
N1167 N 0.33515 0.43958 0.85913 0.0
C1168 C 0.36758 0.45336 0.79766 0.0
H1169 H 0.37515 0.43324 0.79367 0.0
H1170 H 0.38407 0.4677 0.79682 0.0
H1171 H 0.35308 0.45825 0.78205 0.0
C1172 C 0.40218 0.34929 0.81472 0.0
N1173 N 0.37809 0.35909 0.80944 0.0
N1174 N 0.37544 0.38217 0.82087 0.0
C1175 C 0.3982 0.38798 0.8335 0.0
C1176 C 0.41583 0.36731 0.83 0.0
C1177 C 0.41225 0.32355 0.80431 0.0
H1178 H 0.39641 0.30854 0.80491 0.0
H1179 H 0.41869 0.32628 0.78362 0.0
H1180 H 0.42936 0.31614 0.81558 0.0
O1181 O 0.3177 0.3392 0.81087 0.0
O1182 O 0.31319 0.37661 0.83377 0.0
H1183 H 0.38563 0.41549 0.86292 0.0
H1184 H 0.42088 0.41049 0.86169 0.0
C1185 C 0.40268 0.41219 0.84969 0.0
H1186 H 0.40457 0.42946 0.83645 0.0
H1187 H 0.32609 0.42661 0.87226 0.0
O1188 O 0.36323 0.31467 0.76839 0.0
C1189 C 0.30497 0.35369 0.8272 0.0
Co1190 Co 0.65534 0.34912 0.78849 0.0
Co1191 Co 0.60088 0.34026 0.81747 0.0
C1192 C 0.60826 0.32726 0.76073 0.0
O1193 O 0.63135 0.33664 0.7613 0.0
O1194 O 0.5937 0.32713 0.78112 0.0
C1195 C 0.67956 0.37675 0.74781 0.0
O1196 O 0.65456 0.38146 0.74309 0.0
C1197 C 0.54495 0.35019 0.82647 0.0
C1198 C 0.53951 0.33963 0.86836 0.0
C1199 C 0.52632 0.34952 0.84656 0.0
N1200 N 0.56809 0.34167 0.83615 0.0
N1201 N 0.56472 0.33534 0.86119 0.0
C1202 C 0.54088 0.35673 0.79797 0.0
H1203 H 0.54423 0.33873 0.78606 0.0
H1204 H 0.55568 0.37156 0.79171 0.0
H1205 H 0.52078 0.36392 0.79364 0.0
C1206 C 0.65081 0.40079 0.81402 0.0
N1207 N 0.64112 0.37671 0.80859 0.0
N1208 N 0.6177 0.37413 0.81935 0.0
C1209 C 0.61147 0.39703 0.8315 0.0
C1210 C 0.63232 0.41458 0.82859 0.0
C1211 C 0.67687 0.41073 0.80435 0.0
H1212 H 0.69171 0.39473 0.80504 0.0
H1213 H 0.67469 0.41752 0.78371 0.0
H1214 H 0.68419 0.42758 0.81607 0.0
O1215 O 0.66196 0.31684 0.81017 0.0
O1216 O 0.624 0.31185 0.832 0.0
H1217 H 0.58423 0.38644 0.86182 0.0
H1218 H 0.58651 0.42145 0.85604 0.0
C1219 C 0.58655 0.4018 0.84647 0.0
H1220 H 0.56955 0.40045 0.83282 0.0
H1221 H 0.57966 0.32823 0.8734 0.0
O1222 O 0.68586 0.36258 0.76762 0.0
C1223 C 0.64721 0.30393 0.8261 0.0
Co1224 Co 0.65223 0.34892 0.21426 0.0
Co1225 Co 0.66123 0.40261 0.18414 0.0
C1226 C 0.67521 0.39535 0.24114 0.0
O1227 O 0.6645 0.37285 0.24154 0.0
O1228 O 0.67588 0.40911 0.2202 0.0
C1229 C 0.62511 0.3241 0.25494 0.0
O1230 O 0.62026 0.34902 0.25993 0.0
C1231 C 0.64814 0.45805 0.17506 0.0
C1232 C 0.66537 0.46593 0.13592 0.0
C1233 C 0.65119 0.47766 0.15615 0.0
N1234 N 0.6596 0.43583 0.16623 0.0
N1235 N 0.66979 0.44065 0.14276 0.0
C1236 C 0.63589 0.46058 0.2018 0.0
H1237 H 0.64109 0.44361 0.21446 0.0
H1238 H 0.61415 0.46099 0.19988 0.0
H1239 H 0.64227 0.4792 0.21132 0.0
C1240 C 0.60037 0.35313 0.18896 0.0
N1241 N 0.62443 0.36295 0.19429 0.0
N1242 N 0.62728 0.38585 0.18252 0.0
C1243 C 0.60469 0.39144 0.16945 0.0
C1244 C 0.58698 0.37089 0.17317 0.0
C1245 C 0.59018 0.32749 0.19949 0.0
H1246 H 0.60584 0.3123 0.19856 0.0
H1247 H 0.58418 0.33024 0.2203 0.0
H1248 H 0.57276 0.3203 0.18856 0.0
O1249 O 0.68451 0.3425 0.19223 0.0
O1250 O 0.68896 0.37949 0.16867 0.0
H1251 H 0.61806 0.41788 0.13937 0.0
H1252 H 0.58283 0.41264 0.13965 0.0
C1253 C 0.60061 0.41495 0.15217 0.0
H1254 H 0.59809 0.43268 0.16462 0.0
H1255 H 0.67993 0.42675 0.1315 0.0
O1256 O 0.63916 0.3181 0.23496 0.0
C1257 C 0.69704 0.35658 0.17539 0.0
Co1258 Co 0.65327 0.65293 0.21595 0.0
Co1259 Co 0.59984 0.66192 0.1855 0.0
C1260 C 0.60661 0.67581 0.24254 0.0
O1261 O 0.6291 0.66509 0.24305 0.0
O1262 O 0.59299 0.67653 0.22152 0.0
C1263 C 0.67777 0.62593 0.2569 0.0
O1264 O 0.65284 0.62124 0.26196 0.0
C1265 C 0.54448 0.64893 0.17572 0.0
C1266 C 0.53726 0.66589 0.13632 0.0
C1267 C 0.52519 0.65185 0.15645 0.0
N1268 N 0.56684 0.66033 0.16717 0.0
N1269 N 0.56242 0.67036 0.14356 0.0
C1270 C 0.5415 0.63684 0.20248 0.0
H1271 H 0.55819 0.6422 0.21542 0.0
H1272 H 0.54123 0.61508 0.20071 0.0
H1273 H 0.52267 0.6432 0.21161 0.0
C1274 C 0.64933 0.60107 0.19063 0.0
N1275 N 0.63947 0.62515 0.19584 0.0
N1276 N 0.61662 0.62796 0.18396 0.0
C1277 C 0.61112 0.60533 0.17093 0.0
C1278 C 0.63166 0.58763 0.17481 0.0
C1279 C 0.67492 0.59092 0.20132 0.0
H1280 H 0.69011 0.60657 0.2004 0.0
H1281 H 0.67207 0.58499 0.22214 0.0
H1282 H 0.68215 0.57346 0.19047 0.0
O1283 O 0.65991 0.68534 0.19417 0.0
O1284 O 0.62308 0.68975 0.17037 0.0
H1285 H 0.58485 0.61855 0.14065 0.0
H1286 H 0.59003 0.58332 0.14117 0.0
C1287 C 0.58769 0.60118 0.15357 0.0
H1288 H 0.56989 0.59876 0.16596 0.0
H1289 H 0.57652 0.68039 0.13245 0.0
O1290 O 0.68387 0.63983 0.23685 0.0
C1291 C 0.64591 0.6979 0.17731 0.0
Co1292 Co 0.34958 0.6537 0.21466 0.0
Co1293 Co 0.34074 0.60046 0.18393 0.0
C1294 C 0.32648 0.60707 0.24093 0.0
O1295 O 0.33749 0.62941 0.24179 0.0
O1296 O 0.3258 0.59369 0.21976 0.0
C1297 C 0.37715 0.6779 0.25523 0.0
O1298 O 0.3821 0.65291 0.25977 0.0
C1299 C 0.3539 0.54511 0.17467 0.0
C1300 C 0.33756 0.5376 0.13508 0.0
C1301 C 0.35134 0.52568 0.15549 0.0
N1302 N 0.34255 0.56738 0.16581 0.0
N1303 N 0.33289 0.56278 0.14208 0.0
C1304 C 0.36569 0.54239 0.2016 0.0
H1305 H 0.36008 0.55914 0.21435 0.0
H1306 H 0.38747 0.54229 0.20007 0.0
H1307 H 0.35935 0.5236 0.21081 0.0
C1308 C 0.40145 0.65001 0.1892 0.0
N1309 N 0.3774 0.64009 0.19443 0.0
N1310 N 0.37469 0.61722 0.18258 0.0
C1311 C 0.39737 0.61173 0.16964 0.0
C1312 C 0.415 0.63232 0.17349 0.0
C1313 C 0.41149 0.67573 0.19968 0.0
H1314 H 0.39562 0.69071 0.19922 0.0
H1315 H 0.41807 0.67292 0.22031 0.0
H1316 H 0.42852 0.68324 0.18836 0.0
O1317 O 0.31714 0.66029 0.19291 0.0
O1318 O 0.31297 0.6237 0.1687 0.0
H1319 H 0.38442 0.58537 0.13934 0.0
H1320 H 0.41965 0.59049 0.14018 0.0
C1321 C 0.40167 0.58822 0.15242 0.0
H1322 H 0.40393 0.57047 0.1649 0.0
H1323 H 0.32299 0.57679 0.13073 0.0
O1324 O 0.36273 0.68421 0.23562 0.0
C1325 C 0.30468 0.64641 0.17587 0.0
Co1326 Co 0.34797 0.34987 0.21282 0.0
Co1327 Co 0.40268 0.34135 0.18435 0.0
C1328 C 0.39502 0.32834 0.241 0.0
O1329 O 0.37182 0.33738 0.24008 0.0
O1330 O 0.40987 0.32837 0.22082 0.0
C1331 C 0.32371 0.37733 0.25343 0.0
O1332 O 0.3487 0.38216 0.25807 0.0
C1333 C 0.45845 0.35195 0.17541 0.0
C1334 C 0.46417 0.34116 0.13362 0.0
C1335 C 0.47712 0.35145 0.15537 0.0
N1336 N 0.43548 0.34297 0.16575 0.0
N1337 N 0.43902 0.33649 0.14078 0.0
C1338 C 0.46231 0.35883 0.20386 0.0
H1339 H 0.45914 0.34092 0.21595 0.0
H1340 H 0.44731 0.37355 0.20991 0.0
H1341 H 0.4823 0.36632 0.20818 0.0
C1342 C 0.35227 0.40152 0.18729 0.0
N1343 N 0.36213 0.37754 0.19285 0.0
N1344 N 0.38564 0.37512 0.18225 0.0
C1345 C 0.39174 0.39805 0.17004 0.0
C1346 C 0.37072 0.41542 0.17277 0.0
C1347 C 0.32605 0.41125 0.19677 0.0
H1348 H 0.31137 0.39512 0.19601 0.0
H1349 H 0.32804 0.41808 0.21742 0.0
H1350 H 0.31866 0.42803 0.18498 0.0
O1351 O 0.34156 0.31766 0.19106 0.0
O1352 O 0.37982 0.31277 0.16974 0.0
H1353 H 0.41925 0.38749 0.13995 0.0
H1354 H 0.41649 0.42252 0.14536 0.0
C1355 C 0.41667 0.40296 0.15513 0.0
H1356 H 0.43361 0.40199 0.16886 0.0
H1357 H 0.42423 0.32905 0.12858 0.0
O1358 O 0.3174 0.36316 0.23363 0.0
C1359 C 0.35657 0.3048 0.17534 0.0
Co1360 Co 0.78982 0.65092 0.65484 0.0
Co1361 Co 0.81995 0.6605 0.60135 0.0
C1362 C 0.76296 0.67441 0.60865 0.0
O1363 O 0.76255 0.66345 0.63102 0.0
O1364 O 0.78391 0.67532 0.59495 0.0
C1365 C 0.74921 0.62344 0.67894 0.0
O1366 O 0.7447 0.61863 0.65392 0.0
C1367 C 0.82863 0.64784 0.54579 0.0
C1368 C 0.86799 0.66453 0.53788 0.0
C1369 C 0.84752 0.65073 0.52611 0.0
N1370 N 0.83772 0.65904 0.56804 0.0
N1371 N 0.86131 0.6689 0.56321 0.0
C1372 C 0.80176 0.63589 0.54335 0.0
H1373 H 0.78924 0.64114 0.56038 0.0
H1374 H 0.80344 0.61413 0.54291 0.0
H1375 H 0.7922 0.64244 0.52479 0.0
C1376 C 0.81508 0.59911 0.65023 0.0
N1377 N 0.80979 0.62327 0.64063 0.0
N1378 N 0.82151 0.62631 0.61773 0.0
C1379 C 0.83445 0.6037 0.61189 0.0
C1380 C 0.83073 0.58581 0.6323 0.0
C1381 C 0.8047 0.58876 0.67588 0.0
H1382 H 0.8054 0.6044 0.69109 0.0
H1383 H 0.784 0.58242 0.67312 0.0
H1384 H 0.81592 0.57152 0.68306 0.0
O1385 O 0.81179 0.68307 0.66164 0.0
O1386 O 0.83546 0.68804 0.62477 0.0
H1387 H 0.86451 0.61709 0.58545 0.0
H1388 H 0.86392 0.5818 0.59029 0.0
C1389 C 0.85157 0.59973 0.58824 0.0
H1390 H 0.839 0.59754 0.57054 0.0
H1391 H 0.87277 0.67875 0.57715 0.0
O1392 O 0.76898 0.63759 0.68535 0.0
C1393 C 0.82863 0.69582 0.64778 0.0
Co1394 Co 0.78964 0.35037 0.34631 0.0
Co1395 Co 0.81763 0.34175 0.40136 0.0
C1396 C 0.76112 0.32859 0.39309 0.0
O1397 O 0.76216 0.33766 0.36989 0.0
O1398 O 0.78118 0.3287 0.40808 0.0
C1399 C 0.74948 0.37828 0.32196 0.0
O1400 O 0.74505 0.38325 0.34698 0.0
C1401 C 0.82578 0.35168 0.45754 0.0
C1402 C 0.86781 0.34205 0.46336 0.0
C1403 C 0.84571 0.35151 0.47635 0.0
N1404 N 0.83583 0.34332 0.43448 0.0
N1405 N 0.86095 0.33752 0.4381 0.0
C1406 C 0.79713 0.35769 0.46134 0.0
H1407 H 0.7855 0.33971 0.4571 0.0
H1408 H 0.79094 0.37305 0.44705 0.0
H1409 H 0.79236 0.36399 0.48165 0.0
C1410 C 0.81508 0.40209 0.3511 0.0
N1411 N 0.80945 0.37805 0.36081 0.0
N1412 N 0.81974 0.37559 0.38446 0.0
C1413 C 0.83173 0.39855 0.39082 0.0
C1414 C 0.82925 0.416 0.36981 0.0
C1415 C 0.80598 0.41187 0.32475 0.0
H1416 H 0.80662 0.39568 0.31012 0.0
H1417 H 0.78544 0.41906 0.32654 0.0
H1418 H 0.8181 0.42841 0.3174 0.0
O1419 O 0.81158 0.31826 0.33991 0.0
O1420 O 0.83247 0.31325 0.37841 0.0
H1421 H 0.86172 0.38831 0.41854 0.0
H1422 H 0.85547 0.42322 0.41629 0.0
C1423 C 0.84619 0.40344 0.41602 0.0
H1424 H 0.83228 0.40181 0.43278 0.0
H1425 H 0.87346 0.33068 0.42328 0.0
O1426 O 0.76905 0.3638 0.31563 0.0
C1427 C 0.82716 0.30536 0.35503 0.0
Co1428 Co 0.6534 0.79031 0.34662 0.0
Co1429 Co 0.66204 0.81852 0.4015 0.0
C1430 C 0.67506 0.762 0.39366 0.0
O1431 O 0.66611 0.76297 0.37041 0.0
O1432 O 0.67491 0.78211 0.40858 0.0
C1433 C 0.62508 0.75018 0.32275 0.0
O1434 O 0.62019 0.74602 0.34783 0.0
C1435 C 0.65197 0.82699 0.45745 0.0
C1436 C 0.66236 0.86883 0.46338 0.0
C1437 C 0.65247 0.84687 0.47629 0.0
N1438 N 0.66057 0.83693 0.43445 0.0
N1439 N 0.66681 0.86194 0.43811 0.0
C1440 C 0.6455 0.79843 0.46119 0.0
H1441 H 0.66369 0.78668 0.45835 0.0
H1442 H 0.63116 0.79214 0.44593 0.0
H1443 H 0.63775 0.79396 0.48105 0.0
C1444 C 0.60169 0.81582 0.35132 0.0
N1445 N 0.62576 0.81028 0.361 0.0
N1446 N 0.62819 0.82058 0.38465 0.0
C1447 C 0.60517 0.83244 0.39105 0.0
C1448 C 0.58772 0.82987 0.37008 0.0
C1449 C 0.59192 0.80676 0.32497 0.0
H1450 H 0.60817 0.8071 0.3104 0.0
H1451 H 0.58436 0.78636 0.32681 0.0
H1452 H 0.57562 0.81914 0.31749 0.0
O1453 O 0.68556 0.81212 0.33997 0.0
O1454 O 0.69059 0.83306 0.37843 0.0
H1455 H 0.61542 0.86217 0.41905 0.0
H1456 H 0.58047 0.8562 0.41647 0.0
C1457 C 0.6002 0.84678 0.41631 0.0
H1458 H 0.60157 0.83274 0.43299 0.0
H1459 H 0.67394 0.87433 0.42332 0.0
O1460 O 0.63976 0.76951 0.31617 0.0
C1461 C 0.69848 0.82769 0.35507 0.0
Co1462 Co 0.2108 0.65248 0.34414 0.0
Co1463 Co 0.18313 0.6613 0.39914 0.0
C1464 C 0.23986 0.67334 0.39098 0.0
O1465 O 0.23858 0.66455 0.36769 0.0
O1466 O 0.21983 0.67346 0.40598 0.0
C1467 C 0.25045 0.62381 0.32018 0.0
O1468 O 0.25418 0.61844 0.34522 0.0
C1469 C 0.177 0.65003 0.45461 0.0
C1470 C 0.13724 0.66464 0.46436 0.0
C1471 C 0.15925 0.65265 0.47533 0.0
N1472 N 0.16611 0.66012 0.43272 0.0
N1473 N 0.14228 0.6688 0.43859 0.0
C1474 C 0.20328 0.63662 0.45473 0.0
H1475 H 0.20788 0.62878 0.43484 0.0
H1476 H 0.20364 0.62031 0.4693 0.0
H1477 H 0.21876 0.65115 0.45991 0.0
C1478 C 0.18466 0.60104 0.34884 0.0
N1479 N 0.19048 0.62505 0.35851 0.0
N1480 N 0.18017 0.6276 0.38215 0.0
C1481 C 0.16795 0.60475 0.3885 0.0
C1482 C 0.17041 0.58726 0.36756 0.0
C1483 C 0.19357 0.59112 0.32249 0.0
H1484 H 0.19359 0.60739 0.30793 0.0
H1485 H 0.2138 0.58312 0.32434 0.0
H1486 H 0.18079 0.57512 0.31503 0.0
O1487 O 0.18948 0.68511 0.33794 0.0
O1488 O 0.16877 0.69028 0.37652 0.0
H1489 H 0.13985 0.61664 0.41764 0.0
H1490 H 0.14169 0.58143 0.41263 0.0
C1491 C 0.1533 0.59993 0.41361 0.0
H1492 H 0.16754 0.59842 0.4301 0.0
H1493 H 0.12951 0.67755 0.42505 0.0
O1494 O 0.23137 0.63881 0.31357 0.0
C1495 C 0.17419 0.69822 0.35319 0.0
Co1496 Co 0.34993 0.21534 0.34763 0.0
Co1497 Co 0.34076 0.18534 0.40143 0.0
C1498 C 0.32727 0.24228 0.39443 0.0
O1499 O 0.33753 0.24242 0.37171 0.0
O1500 O 0.32668 0.22147 0.40836 0.0
C1501 C 0.37733 0.25622 0.32336 0.0
O1502 O 0.38184 0.26119 0.34835 0.0
C1503 C 0.35304 0.17539 0.45704 0.0
C1504 C 0.33595 0.136 0.46384 0.0
C1505 C 0.34975 0.15608 0.47624 0.0
N1506 N 0.34204 0.16692 0.43444 0.0
N1507 N 0.33195 0.1433 0.43862 0.0
C1508 C 0.36509 0.20213 0.46032 0.0
H1509 H 0.36022 0.21507 0.44348 0.0
H1510 H 0.38683 0.20031 0.46116 0.0
H1511 H 0.35825 0.21128 0.47897 0.0
C1512 C 0.40169 0.18989 0.35201 0.0
N1513 N 0.37758 0.1952 0.36173 0.0
N1514 N 0.37472 0.18358 0.38472 0.0
C1515 C 0.39735 0.17066 0.39046 0.0
C1516 C 0.4151 0.1743 0.36992 0.0
C1517 C 0.41192 0.20032 0.32634 0.0
H1518 H 0.39625 0.1995 0.31116 0.0
H1519 H 0.41808 0.22108 0.32907 0.0
H1520 H 0.42925 0.18924 0.31915 0.0
O1521 O 0.31762 0.19352 0.34074 0.0
O1522 O 0.31282 0.17052 0.37804 0.0
H1523 H 0.38424 0.14064 0.41708 0.0
H1524 H 0.41951 0.14148 0.41221 0.0
C1525 C 0.40149 0.15371 0.4142 0.0
H1526 H 0.40359 0.16639 0.43183 0.0
H1527 H 0.32214 0.13225 0.42432 0.0
O1528 O 0.36336 0.23626 0.31713 0.0
C1529 C 0.30489 0.17699 0.35498 0.0
Co1530 Co 0.2125 0.34973 0.65814 0.0
Co1531 Co 0.18423 0.34242 0.60331 0.0
C1532 C 0.24049 0.32781 0.61133 0.0
O1533 O 0.23986 0.33682 0.63456 0.0
O1534 O 0.22031 0.32845 0.59655 0.0
C1535 C 0.25286 0.37713 0.68208 0.0
O1536 O 0.25669 0.38245 0.65704 0.0
C1537 C 0.17951 0.35413 0.5479 0.0
C1538 C 0.13873 0.34305 0.53769 0.0
C1539 C 0.16179 0.35322 0.52702 0.0
N1540 N 0.1676 0.34482 0.56961 0.0
N1541 N 0.14318 0.33824 0.56347 0.0
C1542 C 0.20676 0.36543 0.54813 0.0
H1543 H 0.21178 0.37275 0.56811 0.0
H1544 H 0.20855 0.38178 0.53372 0.0
H1545 H 0.22111 0.34977 0.54297 0.0
C1546 C 0.18945 0.40228 0.6537 0.0
N1547 N 0.19342 0.37796 0.64402 0.0
N1548 N 0.18293 0.37621 0.62041 0.0
C1549 C 0.17237 0.39993 0.61411 0.0
C1550 C 0.17653 0.41727 0.63498 0.0
C1551 C 0.19641 0.41071 0.68113 0.0
H1552 H 0.19504 0.39379 0.69487 0.0
H1553 H 0.21681 0.41851 0.68137 0.0
H1554 H 0.18301 0.42656 0.68801 0.0
O1555 O 0.19013 0.31797 0.66403 0.0
O1556 O 0.16867 0.31377 0.62573 0.0
H1557 H 0.14419 0.39121 0.58398 0.0
H1558 H 0.15051 0.42601 0.58827 0.0
C1559 C 0.15953 0.40613 0.58831 0.0
H1560 H 0.17448 0.40535 0.57244 0.0
H1561 H 0.12957 0.33056 0.57683 0.0
O1562 O 0.23344 0.36259 0.68872 0.0
C1563 C 0.17427 0.30545 0.6489 0.0
Co1564 Co 0.6537 0.21335 0.6559 0.0
Co1565 Co 0.66116 0.18562 0.60061 0.0
C1566 C 0.67506 0.24172 0.60855 0.0
O1567 O 0.66679 0.24043 0.63205 0.0
O1568 O 0.67419 0.22192 0.59325 0.0
C1569 C 0.62581 0.25369 0.67973 0.0
O1570 O 0.62098 0.25794 0.65466 0.0
C1571 C 0.65134 0.17694 0.54461 0.0
C1572 C 0.65874 0.13435 0.5396 0.0
C1573 C 0.65058 0.15671 0.52619 0.0
N1574 N 0.659 0.16689 0.56789 0.0
N1575 N 0.66346 0.14143 0.56478 0.0
C1576 C 0.64677 0.20577 0.5402 0.0
H1577 H 0.66578 0.21631 0.54245 0.0
H1578 H 0.63316 0.21347 0.55548 0.0
H1579 H 0.63898 0.2102 0.52033 0.0
C1580 C 0.60137 0.19005 0.65118 0.0
N1581 N 0.6257 0.19415 0.64158 0.0
N1582 N 0.62742 0.18424 0.61773 0.0
C1583 C 0.60363 0.17406 0.61114 0.0
C1584 C 0.58634 0.17769 0.63214 0.0
C1585 C 0.5929 0.19658 0.67869 0.0
H1586 H 0.60984 0.19517 0.69241 0.0
H1587 H 0.58493 0.21691 0.67921 0.0
H1588 H 0.57715 0.18297 0.68539 0.0
O1589 O 0.68534 0.19112 0.66233 0.0
O1590 O 0.69001 0.17092 0.62345 0.0
H1591 H 0.6099 0.14498 0.58136 0.0
H1592 H 0.57624 0.15643 0.58352 0.0
C1593 C 0.59721 0.16241 0.58485 0.0
H1594 H 0.60137 0.17707 0.56922 0.0
H1595 H 0.66949 0.12884 0.57989 0.0
O1596 O 0.64035 0.23425 0.68633 0.0
C1597 C 0.6981 0.17584 0.64684 0.0
Co1598 Co 0.34929 0.78804 0.65289 0.0
Co1599 Co 0.33987 0.81968 0.60036 0.0
C1600 C 0.32518 0.76264 0.6066 0.0
O1601 O 0.33701 0.76117 0.62849 0.0
O1602 O 0.32421 0.78411 0.59374 0.0
C1603 C 0.37611 0.74678 0.67711 0.0
O1604 O 0.38057 0.74169 0.65213 0.0
C1605 C 0.35289 0.82865 0.54505 0.0
C1606 C 0.33575 0.86776 0.53689 0.0
C1607 C 0.34989 0.84742 0.52531 0.0
N1608 N 0.34145 0.83765 0.5672 0.0
N1609 N 0.33132 0.86111 0.56223 0.0
C1610 C 0.365 0.80184 0.54268 0.0
H1611 H 0.35979 0.78934 0.55977 0.0
H1612 H 0.38675 0.80363 0.54219 0.0
H1613 H 0.35851 0.79222 0.52415 0.0
C1614 C 0.40148 0.81275 0.64868 0.0
N1615 N 0.37715 0.80809 0.63916 0.0
N1616 N 0.37413 0.82047 0.6166 0.0
C1617 C 0.39686 0.83327 0.61095 0.0
C1618 C 0.41486 0.8287 0.63108 0.0
C1619 C 0.41192 0.80152 0.67392 0.0
H1620 H 0.39656 0.80239 0.68941 0.0
H1621 H 0.41755 0.78069 0.67063 0.0
H1622 H 0.42964 0.81203 0.68101 0.0
O1623 O 0.31696 0.80991 0.65988 0.0
O1624 O 0.31264 0.8352 0.62403 0.0
H1625 H 0.38338 0.86389 0.58516 0.0
H1626 H 0.41863 0.86355 0.59038 0.0
C1627 C 0.40086 0.85107 0.5878 0.0
H1628 H 0.40341 0.83902 0.5698 0.0
H1629 H 0.32119 0.87247 0.57606 0.0
O1630 O 0.36239 0.76692 0.68331 0.0
C1631 C 0.30449 0.82744 0.64661 0.0
C1632 C 0.12199 0.33313 0.01272 0.0
C1633 C 0.14462 0.34638 0.00372 0.0
H1634 H 0.10094 0.3179 0.04613 0.0
C1635 C 0.16151 0.35798 0.02235 0.0
H1636 H 0.10774 0.32523 0.99903 0.0
C1637 C 0.15711 0.35445 0.0493 0.0
C1638 C 0.13583 0.33918 0.05811 0.0
H1639 H 0.17883 0.36876 0.01611 0.0
H1640 H 0.17102 0.36263 0.06326 0.0
C1641 C 0.11773 0.32941 0.0397 0.0
C1642 C 0.69527 0.14185 0.04227 0.0
C1643 C 0.67432 0.13325 0.0581 0.0
H1644 H 0.70782 0.15495 0.00453 0.0
C1645 C 0.64967 0.12868 0.04646 0.0
H1646 H 0.71449 0.14555 0.05078 0.0
C1647 C 0.64596 0.1334 0.01946 0.0
C1648 C 0.66688 0.14263 0.00373 0.0
H1649 H 0.63312 0.12239 0.05838 0.0
H1650 H 0.62665 0.13019 0.01096 0.0
C1651 C 0.69154 0.14681 0.01554 0.0
C1652 C 0.84438 0.6497 0.05309 0.0
C1653 C 0.86635 0.66454 0.06088 0.0
H1654 H 0.82151 0.63489 0.02088 0.0
C1655 C 0.88438 0.67301 0.04176 0.0
H1656 H 0.83046 0.64259 0.06764 0.0
C1657 C 0.8794 0.66847 0.01503 0.0
C1658 C 0.85618 0.65563 0.00701 0.0
H1659 H 0.90167 0.68417 0.04741 0.0
H1660 H 0.89354 0.67544 1.00073 0.0
C1661 C 0.83932 0.64528 0.02638 0.0
C1662 C 0.35847 0.83938 0.02371 0.0
C1663 C 0.34673 0.85621 0.00517 0.0
H1664 H 0.36328 0.82998 0.06465 0.0
C1665 C 0.33359 0.87891 0.01406 0.0
H1666 H 0.36923 0.82207 0.01738 0.0
C1667 C 0.32998 0.88326 0.04105 0.0
C1668 C 0.33982 0.86518 0.05948 0.0
H1669 H 0.32549 0.89291 1.00015 0.0
H1670 H 0.31846 0.90005 0.04745 0.0
C1671 C 0.35505 0.84386 0.05068 0.0
C1672 C 0.12 0.6696 0.99074 0.0
C1673 C 0.14336 0.65709 0.9988 0.0
H1674 H 0.0976 0.68488 0.95822 0.0
C1675 C 0.16026 0.64661 0.97958 0.0
H1676 H 0.10599 0.67673 0.00517 0.0
C1677 C 0.15512 0.65069 0.95283 0.0
C1678 C 0.13303 0.66532 0.94489 0.0
H1679 H 0.17811 0.63637 0.98525 0.0
H1680 H 0.16908 0.64354 0.93835 0.0
C1681 C 0.11494 0.67385 0.96396 0.0
C1682 C 0.32754 0.11658 0.96275 0.0
C1683 C 0.33735 0.13424 0.94391 0.0
H1684 H 0.32346 0.10764 0.00386 0.0
C1685 C 0.35292 0.15554 0.95217 0.0
H1686 H 0.3157 0.09986 0.95675 0.0
C1687 C 0.35692 0.16029 0.97902 0.0
C1688 C 0.34533 0.14383 0.99797 0.0
H1689 H 0.361 0.16918 0.93787 0.0
H1690 H 0.36804 0.1775 0.98496 0.0
C1691 C 0.33162 0.12127 0.98961 0.0
C1692 C 0.84119 0.35522 0.97811 0.0
C1693 C 0.85758 0.34357 0.99709 0.0
H1694 H 0.83257 0.3596 0.93693 0.0
C1695 C 0.88026 0.33003 0.98876 0.0
H1696 H 0.82386 0.36619 0.98402 0.0
C1697 C 0.88522 0.32628 0.96189 0.0
C1698 C 0.86767 0.3362 0.943 0.0
H1699 H 0.89383 0.32181 0.00304 0.0
H1700 H 0.90206 0.31461 0.9559 0.0
C1701 C 0.84617 0.35151 0.95126 0.0
C1702 C 0.64143 0.84062 0.98141 0.0
C1703 C 0.65476 0.85675 0.9995 0.0
H1704 H 0.63468 0.83143 0.9407 0.0
C1705 C 0.66899 0.87856 0.99003 0.0
H1706 H 0.62981 0.82405 0.98817 0.0
C1707 C 0.67194 0.88262 0.9629 0.0
C1708 C 0.66038 0.86516 0.94488 0.0
H1709 H 0.67837 0.8921 0.00358 0.0
H1710 H 0.68424 0.89865 0.95603 0.0
C1711 C 0.64421 0.84481 0.95431 0.0
C1712 C 0.05218 0.15752 0.35111 0.0
C1713 C 0.06033 0.13562 0.33636 0.0
H1714 H 0.01964 0.18017 0.36551 0.0
C1715 C 0.04143 0.11756 0.32749 0.0
H1716 H 0.06653 0.17149 0.3585 0.0
C1717 C 0.0146 0.1224 0.3316 0.0
C1718 C 0.00626 0.14552 0.34443 0.0
H1719 H 0.04735 0.10034 0.31637 0.0
H1720 H 1.0005 0.10821 0.32437 0.0
C1721 C 0.02538 0.16244 0.35512 0.0
C1722 C 0.88187 0.01476 0.33214 0.0
C1723 C 0.859 0.00644 0.34542 0.0
H1724 H 0.9038 0.04753 0.31671 0.0
C1725 C 0.84253 0.02557 0.35679 0.0
H1726 H 0.89577 1.00065 0.32436 0.0
C1727 C 0.84757 0.05237 0.353 0.0
C1728 C 0.86914 0.06053 0.33777 0.0
H1729 H 0.82501 0.01985 0.36755 0.0
H1730 H 0.83389 0.06674 0.36088 0.0
C1731 C 0.88683 0.04161 0.32823 0.0
C1732 C 0.98907 0.88282 0.33197 0.0
C1733 C 0.99754 0.85985 0.34501 0.0
H1734 H 0.95616 0.9047 0.31678 0.0
C1735 C 0.97851 0.84312 0.35618 0.0
H1736 H 0.0031 0.89688 0.32435 0.0
C1737 C 0.95168 0.84803 0.35244 0.0
C1738 C 0.94339 0.86971 0.33744 0.0
H1739 H 0.98435 0.82552 0.36675 0.0
H1740 H 0.9374 0.83417 0.36016 0.0
C1741 C 0.96219 0.88764 0.32811 0.0
C1742 C 0.15708 0.95216 0.35078 0.0
C1743 C 0.1351 0.94396 0.33617 0.0
H1744 H 0.17977 0.98474 0.365 0.0
C1745 C 0.11697 0.96283 0.32737 0.0
H1746 H 0.1711 0.93784 0.35812 0.0
C1747 C 0.1218 0.98968 0.33141 0.0
C1748 C 0.14497 0.99807 0.3441 0.0
H1749 H 0.09968 0.95687 0.31636 0.0
H1750 H 0.10753 0.00374 0.32424 0.0
C1751 C 0.16199 0.97897 0.35471 0.0
C1752 C 0.02277 0.84358 0.64826 0.0
C1753 C 0.00416 0.85855 0.6622 0.0
H1754 H 0.06376 0.83583 0.64142 0.0
C1755 C 0.01291 0.87981 0.67766 0.0
H1756 H 0.01653 0.82743 0.63578 0.0
C1757 C 0.03988 0.88452 0.68096 0.0
C1758 C 0.05845 0.86825 0.66856 0.0
H1759 H 0.99892 0.89242 0.68767 0.0
H1760 H 0.04623 0.90011 0.69407 0.0
C1761 C 0.04971 0.84837 0.65146 0.0
C1762 C 0.11754 0.03996 0.67655 0.0
C1763 C 0.13476 0.05851 0.6655 0.0
H1764 H 0.10877 0.99901 0.68211 0.0
C1765 C 0.15553 0.04979 0.64947 0.0
H1766 H 0.10121 0.04629 0.68876 0.0
C1767 C 0.16029 0.02285 0.64625 0.0
C1768 C 0.14432 0.00423 0.65902 0.0
H1769 H 0.16878 0.06384 0.64037 0.0
H1770 H 0.17715 0.01662 0.63474 0.0
C1771 C 0.12216 0.01299 0.67315 0.0
C1772 C 0.98967 0.12152 0.66924 0.0
C1773 C 0.99847 0.14411 0.65583 0.0
H1774 H 0.95635 0.10037 0.68453 0.0
C1775 C 0.97986 0.16065 0.64379 0.0
H1776 H 0.00363 0.10772 0.6776 0.0
C1777 C 0.95293 0.15604 0.64717 0.0
C1778 C 0.9442 0.13486 0.66265 0.0
H1779 H 0.98612 0.17787 0.63283 0.0
H1780 H 0.9389 0.16975 0.63875 0.0
C1781 C 0.9627 0.11703 0.6728 0.0
C1782 C 0.86667 0.98101 0.64571 0.0
C1783 C 0.8578 0.99747 0.66619 0.0
H1784 H 0.87755 0.94167 0.63418 0.0
C1785 C 0.85382 0.98657 0.6913 0.0
H1786 H 0.86969 0.98883 0.62608 0.0
C1787 C 0.85865 0.95996 0.69592 0.0
C1788 C 0.86708 0.94343 0.67546 0.0
H1789 H 0.84601 0.99826 0.70729 0.0
H1790 H 0.85511 0.95212 0.71546 0.0
C1791 C 0.87139 0.95416 0.65034 0.0
C1792 C 0.35495 0.04584 0.13037 0.0
C1793 C 0.32983 0.05705 0.13316 0.0
H1794 H 0.37845 0.01079 0.13381 0.0
C1795 C 0.30862 0.04091 0.14042 0.0
H1796 H 0.37168 0.05803 0.1252 0.0
C1797 C 0.31247 0.01429 0.14578 0.0
C1798 C 0.33759 0.00292 0.14346 0.0
H1799 H 0.28908 0.04915 0.14286 0.0
H1800 H 0.29587 0.00303 0.15286 0.0
C1801 C 0.35881 0.01895 0.13556 0.0
C1802 C 0.33053 0.98857 0.88212 0.0
C1803 C 0.34451 0.99716 0.85974 0.0
H1804 H 0.31473 0.95554 0.90336 0.0
C1805 C 0.35673 0.97822 0.84365 0.0
H1806 H 0.32212 0.0025 0.89581 0.0
C1807 C 0.35317 0.95136 0.84852 0.0
C1808 C 0.33728 0.94293 0.8695 0.0
H1809 H 0.36806 0.98413 0.82655 0.0
H1810 H 0.36182 0.93715 0.83515 0.0
C1811 C 0.32678 0.96167 0.88684 0.0
C1812 C 0.04051 0.32831 0.88487 0.0
C1813 C 0.05919 0.33731 0.86662 0.0
H1814 H 0.9997 0.32508 0.8947 0.0
C1815 C 0.05076 0.35213 0.84487 0.0
H1816 H 0.04665 0.31713 0.90199 0.0
C1817 C 0.0239 0.35611 0.84028 0.0
C1818 C 0.00499 0.34533 0.8574 0.0
H1819 H 0.06494 0.35965 0.83079 0.0
H1820 H 0.01793 0.36658 0.82267 0.0
C1821 C 0.01362 0.3324 0.88036 0.0
C1822 C 0.68907 0.01271 0.85495 0.0
C1823 C 0.66377 0.00178 0.85734 0.0
H1824 H 0.71302 0.04723 0.85747 0.0
C1825 C 0.64272 0.01834 0.86459 0.0
H1826 H 0.70556 1.00105 0.84828 0.0
C1827 C 0.64696 0.04526 0.86921 0.0
C1828 C 0.6723 0.05599 0.86659 0.0
H1829 H 0.62293 0.01055 0.86631 0.0
H1830 H 0.63036 0.05782 0.87391 0.0
C1831 C 0.69331 0.03938 0.85982 0.0
C1832 C 0.97609 0.64763 0.8439 0.0
C1833 C 0.99517 0.65847 0.86078 0.0
H1834 H 0.93494 0.64385 0.835 0.0
C1835 C 0.98679 0.67111 0.884 0.0
H1836 H 0.98186 0.63741 0.82608 0.0
C1837 C 0.95992 0.6748 0.88903 0.0
C1838 C 0.94105 0.66574 0.87103 0.0
H1839 H 1.00088 0.67852 0.89812 0.0
H1840 H 0.95393 0.68579 0.90632 0.0
C1841 C 0.94927 0.65125 0.84898 0.0
C1842 C 0.67663 0.96249 0.11896 0.0
C1843 C 0.66446 0.94396 0.13544 0.0
H1844 H 0.68314 0.00342 0.11081 0.0
C1845 C 0.64746 0.95273 0.15542 0.0
H1846 H 0.68967 0.95611 0.10331 0.0
C1847 C 0.64418 0.97968 0.16009 0.0
C1848 C 0.65794 0.99825 0.14489 0.0
H1849 H 0.63762 0.9387 0.16814 0.0
H1850 H 0.63182 0.98597 0.17632 0.0
C1851 C 0.67325 0.98945 0.12355 0.0
C1852 C 0.04012 0.67545 0.11761 0.0
C1853 C 0.05879 0.66524 0.13521 0.0
H1854 H 0.99934 0.67987 0.1083 0.0
C1855 C 0.05026 0.64963 0.15636 0.0
H1856 H 0.04632 0.68724 0.10093 0.0
C1857 C 0.02337 0.6461 0.16113 0.0
C1858 C 0.00449 0.65804 0.14474 0.0
H1859 H 0.06441 0.64114 0.1699 0.0
H1860 H 0.0174 0.635 0.17835 0.0
C1861 C 0.01319 0.67171 0.12222 0.0
C1862 C 0.98706 0.31167 0.14484 0.0
C1863 C 0.99839 0.33677 0.14229 0.0
H1864 H 0.9522 0.28825 0.14222 0.0
C1865 C 0.98234 0.35792 0.13424 0.0
H1866 H 0.99835 0.29513 0.15204 0.0
C1867 C 0.95544 0.35401 0.12916 0.0
C1868 C 0.94427 0.32893 0.13221 0.0
H1869 H 0.99049 0.37755 0.13231 0.0
H1870 H 0.94323 0.37069 0.12388 0.0
C1871 C 0.96042 0.30777 0.13959 0.0
C1872 C 0.65736 0.85253 0.55041 0.0
C1873 C 0.63564 0.83753 0.55865 0.0
H1874 H 0.67984 0.86697 0.51767 0.0
C1875 C 0.61766 0.82836 0.53979 0.0
H1876 H 0.67119 0.86025 0.56472 0.0
C1877 C 0.62245 0.8324 0.51294 0.0
C1878 C 0.64548 0.84533 0.50458 0.0
H1879 H 0.60057 0.81705 0.54576 0.0
H1880 H 0.60849 0.82483 0.49869 0.0
C1881 C 0.66227 0.85638 0.52357 0.0
C1882 C 0.18784 0.64837 0.51542 0.0
C1883 C 0.16293 0.64602 0.50361 0.0
H1884 H 0.21051 0.64607 0.55082 0.0
C1885 C 0.14129 0.6389 0.51946 0.0
H1886 H 0.20476 0.65494 0.50432 0.0
C1887 C 0.14455 0.63444 0.54657 0.0
C1888 C 0.16948 0.63712 0.55818 0.0
H1889 H 0.12179 0.63718 0.51098 0.0
H1890 H 0.1275 0.62988 0.55856 0.0
C1891 C 0.1911 0.64369 0.54227 0.0
C1892 C 0.37915 0.17039 0.51376 0.0
C1893 C 0.35653 0.15717 0.50471 0.0
H1894 H 0.40032 0.18528 0.54725 0.0
C1895 C 0.33965 0.14547 0.5233 0.0
H1896 H 0.39337 0.17839 0.5001 0.0
C1897 C 0.34411 0.14879 0.55028 0.0
C1898 C 0.36546 0.16391 0.55917 0.0
H1899 H 0.32232 0.13473 0.51702 0.0
H1900 H 0.33022 0.14051 0.56421 0.0
C1901 C 0.3835 0.17386 0.54078 0.0
C1902 C 0.8527 0.34701 0.5504 0.0
C1903 C 0.83691 0.36806 0.55888 0.0
H1904 H 0.86757 0.32513 0.51748 0.0
C1905 C 0.82655 0.38554 0.54015 0.0
H1906 H 0.8613 0.33358 0.5646 0.0
C1907 C 0.83036 0.38089 0.51323 0.0
C1908 C 0.84418 0.35845 0.50467 0.0
H1909 H 0.81457 0.4021 0.54629 0.0
H1910 H 0.82196 0.3945 0.4991 0.0
C1911 C 0.8563 0.34222 0.52351 0.0
C1912 C 0.62101 0.17179 0.48953 0.0
C1913 C 0.64363 0.15819 0.49792 0.0
H1914 H 0.59948 0.18744 0.45661 0.0
C1915 C 0.66007 0.14651 0.47901 0.0
H1916 H 0.60741 0.18003 0.50376 0.0
C1917 C 0.65525 0.15032 0.45215 0.0
C1918 C 0.63388 0.16579 0.44384 0.0
H1919 H 0.67734 0.13549 0.48499 0.0
H1920 H 0.66889 0.14222 0.43787 0.0
C1921 C 0.61623 0.17567 0.46265 0.0
C1922 C 0.82751 0.6167 0.46238 0.0
C1923 C 0.83752 0.63426 0.44358 0.0
H1924 H 0.82374 0.60731 0.50323 0.0
C1925 C 0.85341 0.65529 0.45189 0.0
H1926 H 0.81549 0.60012 0.45636 0.0
C1927 C 0.85744 0.65995 0.47873 0.0
C1928 C 0.84572 0.6436 0.49776 0.0
H1929 H 0.86173 0.66881 0.43762 0.0
H1930 H 0.86875 0.67708 0.48455 0.0
C1931 C 0.83176 0.62121 0.48926 0.0
C1932 C 0.38041 0.83256 0.489 0.0
C1933 C 0.35724 0.84548 0.49707 0.0
H1934 H 0.40261 0.81686 0.45657 0.0
C1935 C 0.34034 0.85582 0.47772 0.0
H1936 H 0.39456 0.82557 0.50327 0.0
C1937 C 0.34535 0.8514 0.451 0.0
C1938 C 0.36731 0.83656 0.44316 0.0
H1939 H 0.32257 0.86626 0.48325 0.0
H1940 H 0.33141 0.85853 0.43649 0.0
C1941 C 0.38534 0.82803 0.46225 0.0
C1942 C 0.19106 0.35584 0.48732 0.0
C1943 C 0.16629 0.35999 0.4989 0.0
H1944 H 0.2144 0.35729 0.45234 0.0
C1945 C 0.14553 0.36931 0.483 0.0
H1946 H 0.20723 0.34762 0.49844 0.0
C1947 C 0.14953 0.37414 0.45605 0.0
C1948 C 0.17431 0.36963 0.44466 0.0
H1949 H 0.12614 0.37249 0.49132 0.0
H1950 H 0.1331 0.38048 0.44399 0.0
C1951 C 0.19508 0.36094 0.46066 0.0
C1952 C 0.52363 0.66004 0.85474 0.0
C1953 C 0.50474 0.64376 0.84281 0.0
H1954 H 0.56475 0.66871 0.85935 0.0
C1955 C 0.51316 0.62129 0.82898 0.0
H1956 H 0.51763 0.67718 0.86596 0.0
C1957 C 0.54004 0.61651 0.82516 0.0
C1958 C 0.55883 0.634 0.83535 0.0
H1959 H 0.49895 0.60779 0.82055 0.0
H1960 H 0.54611 0.59987 0.81325 0.0
C1961 C 0.55049 0.65522 0.851 0.0
C1962 C 0.3724 0.54656 0.85315 0.0
C1963 C 0.36915 0.55749 0.82796 0.0
H1964 H 0.36952 0.51174 0.87707 0.0
C1965 C 0.36156 0.54113 0.80704 0.0
H1966 H 0.37784 0.55893 0.86966 0.0
C1967 C 0.35639 0.51452 0.81127 0.0
C1968 C 0.35922 0.50342 0.83646 0.0
H1969 H 0.35879 0.54915 0.78745 0.0
H1970 H 0.34908 0.50305 0.7949 0.0
C1971 C 0.36739 0.51969 0.85738 0.0
C1972 C 0.48918 0.3791 0.83242 0.0
C1973 C 0.49795 0.35621 0.84533 0.0
H1974 H 0.45592 0.40057 0.81743 0.0
C1975 C 0.4793 0.33926 0.85671 0.0
H1976 H 0.50317 0.39317 0.82459 0.0
C1977 C 0.45237 0.34387 0.8532 0.0
C1978 C 0.4437 0.36545 0.83825 0.0
H1979 H 0.48552 0.3218 0.86728 0.0
H1980 H 0.43832 0.3299 0.86115 0.0
C1981 C 0.46223 0.38359 0.82874 0.0
C1982 C 0.6551 0.45104 0.8525 0.0
C1983 C 0.63408 0.44247 0.83674 0.0
H1984 H 0.67691 0.48394 0.86728 0.0
C1985 C 0.61654 0.46111 0.82638 0.0
H1986 H 0.66862 0.4369 0.86106 0.0
C1987 C 0.62108 0.48804 0.83013 0.0
C1988 C 0.64347 0.49676 0.84398 0.0
H1989 H 0.59997 0.45488 0.81444 0.0
H1990 H 0.60723 0.50188 0.82183 0.0
C1991 C 0.65979 0.47793 0.85606 0.0
C1992 C 0.54045 0.38676 0.17331 0.0
C1993 C 0.55934 0.36874 0.1643 0.0
H1994 H 0.49932 0.39578 0.17689 0.0
C1995 C 0.55117 0.3469 0.14944 0.0
H1996 H 0.54638 0.40392 0.18453 0.0
C1997 C 0.52436 0.34188 0.14565 0.0
C1998 C 0.50534 0.35867 0.15664 0.0
H1999 H 0.56552 0.333 0.14191 0.0
H2000 H 0.51852 0.32419 0.13524 0.0
C2001 C 0.51361 0.38185 0.16935 0.0
C2002 C 0.62083 0.51422 0.1708 0.0
C2003 C 0.64388 0.50594 0.15779 0.0
H2004 H 0.5988 0.54691 0.18622 0.0
C2005 C 0.66068 0.52511 0.14699 0.0
H2006 H 0.60672 0.50009 0.17814 0.0
C2007 C 0.65572 0.55189 0.15104 0.0
C2008 C 0.63391 0.55998 0.16597 0.0
H2009 H 0.67835 0.51943 0.13647 0.0
H2010 H 0.66961 0.56628 0.14357 0.0
C2011 C 0.61595 0.54104 0.17496 0.0
C2012 C 0.46157 0.61665 0.17445 0.0
C2013 C 0.44276 0.63449 0.16497 0.0
H2014 H 0.50248 0.60751 0.17841 0.0
C2015 C 0.45105 0.65615 0.14995 0.0
H2016 H 0.45554 0.5996 0.18579 0.0
C2017 C 0.47789 0.66112 0.14632 0.0
C2018 C 0.49691 0.64447 0.15763 0.0
H2019 H 0.43677 0.66994 0.1421 0.0
H2020 H 0.48373 0.6787 0.13572 0.0
C2021 C 0.48845 0.62152 0.17069 0.0
C2022 C 0.38125 0.48898 0.17084 0.0
C2023 C 0.35879 0.49741 0.15691 0.0
H2024 H 0.40265 0.45611 0.18675 0.0
C2025 C 0.3427 0.47836 0.14488 0.0
H2026 H 0.39494 0.50299 0.17911 0.0
C2027 C 0.34767 0.45154 0.14858 0.0
C2028 C 0.36873 0.44326 0.16444 0.0
H2029 H 0.32555 0.48415 0.13359 0.0
H2030 H 0.33432 0.43723 0.14005 0.0
C2031 C 0.38606 0.46211 0.17474 0.0
C2032 C 0.8334 0.51244 0.62115 0.0
C2033 C 0.84639 0.50395 0.64411 0.0
H2034 H 0.81831 0.54545 0.59936 0.0
C2035 C 0.85797 0.52279 0.6607 0.0
H2036 H 0.82539 0.49828 0.60735 0.0
C2037 C 0.85448 0.54966 0.65576 0.0
C2038 C 0.83938 0.55807 0.63418 0.0
H2039 H 0.8686 0.51678 0.67821 0.0
H2040 H 0.86243 0.56388 0.66955 0.0
C2041 C 0.82976 0.53934 0.61631 0.0
C2042 C 0.85345 0.4524 0.34716 0.0
C2043 C 0.83743 0.44391 0.36805 0.0
H2044 H 0.86834 0.48533 0.32531 0.0
C2045 C 0.82683 0.46263 0.38538 0.0
H2046 H 0.86226 0.43822 0.33386 0.0
C2047 C 0.83058 0.48954 0.3807 0.0
C2048 C 0.84453 0.4981 0.35834 0.0
H2049 H 0.81469 0.45648 0.40183 0.0
H2050 H 0.82197 0.50365 0.39419 0.0
C2051 C 0.85694 0.47929 0.34231 0.0
C2052 C 0.54119 0.8267 0.38578 0.0
C2053 C 0.55969 0.83768 0.36847 0.0
H2054 H 0.5005 0.82141 0.39499 0.0
C2055 C 0.55091 0.85372 0.34775 0.0
H2056 H 0.54758 0.81454 0.40212 0.0
C2057 C 0.52397 0.85695 0.34307 0.0
C2058 C 0.50528 0.84428 0.35913 0.0
H2059 H 0.56492 0.86279 0.33444 0.0
H2060 H 0.51782 0.86842 0.32616 0.0
C2061 C 0.5142 0.83015 0.38128 0.0
C2062 C 0.14352 0.52301 0.34156 0.0
C2063 C 0.15711 0.50472 0.35724 0.0
H2064 H 0.13682 0.56385 0.33292 0.0
C2065 C 0.17188 0.51385 0.37882 0.0
H2066 H 0.13157 0.51645 0.32514 0.0
C2067 C 0.1749 0.5409 0.38322 0.0
C2068 C 0.16296 0.55915 0.36625 0.0
H2069 H 0.18164 0.50009 0.39189 0.0
H2070 H 0.18753 0.54754 0.39909 0.0
C2071 C 0.14648 0.55003 0.34601 0.0
C2072 C 0.48843 0.17111 0.38141 0.0
C2073 C 0.49702 0.15798 0.35855 0.0
H2074 H 0.45541 0.18643 0.40301 0.0
C2075 C 0.4781 0.1468 0.34171 0.0
H2076 H 0.50237 0.17873 0.39556 0.0
C2077 C 0.45125 0.15062 0.34641 0.0
C2078 C 0.44284 0.16569 0.36799 0.0
H2079 H 0.48405 0.13616 0.32419 0.0
H2080 H 0.43705 0.14285 0.33249 0.0
C2081 C 0.46153 0.17505 0.38602 0.0
C2082 C 0.18945 0.48898 0.6489 0.0
C2083 C 0.1644 0.50038 0.64608 0.0
H2084 H 0.21292 0.45414 0.6464 0.0
C2085 C 0.14324 0.48421 0.63827 0.0
H2086 H 0.206 0.50025 0.65606 0.0
C2087 C 0.14712 0.45725 0.63353 0.0
C2088 C 0.17224 0.44609 0.6365 0.0
H2089 H 0.12362 0.49234 0.6362 0.0
H2090 H 0.1304 0.44501 0.62845 0.0
C2091 C 0.19337 0.46231 0.64381 0.0
C2092 C 0.54656 0.14815 0.63035 0.0
C2093 C 0.55757 0.1733 0.6336 0.0
H2094 H 0.51167 0.12435 0.63326 0.0
C2095 C 0.54127 0.19425 0.64122 0.0
H2096 H 0.55888 0.13161 0.62488 0.0
C2097 C 0.51466 0.19011 0.64643 0.0
C2098 C 0.50348 0.16497 0.6436 0.0
H2099 H 0.54934 0.21382 0.64397 0.0
H2100 H 0.50325 0.20651 0.65376 0.0
C2101 C 0.51969 0.144 0.6354 0.0
C2102 C 0.48826 0.83135 0.61967 0.0
C2103 C 0.49695 0.84414 0.64268 0.0
H2104 H 0.45509 0.81664 0.59783 0.0
C2105 C 0.47809 0.85527 0.65964 0.0
H2106 H 0.50215 0.82375 0.60545 0.0
C2107 C 0.4512 0.85176 0.65486 0.0
C2108 C 0.44267 0.83709 0.63306 0.0
H2109 H 0.4841 0.86564 0.6773 0.0
H2110 H 0.43706 0.85943 0.6689 0.0
C2111 C 0.46131 0.82775 0.61496 0.0
C2112 C 0.14832 0.36236 0.2633 0.0
C2113 C 0.16739 0.34774 0.27714 0.0
H2114 H 0.12737 0.36783 0.22697 0.0
C2115 C 0.18067 0.32738 0.26382 0.0
H2116 H 0.13793 0.37837 0.27284 0.0
C2117 C 0.17523 0.32189 0.23737 0.0
C2118 C 0.15602 0.33631 0.22356 0.0
H2119 H 0.1958 0.31596 0.27362 0.0
H2120 H 0.18572 0.30588 0.22795 0.0
C2121 C 0.14251 0.35653 0.2369 0.0
C2122 C 0.67377 0.18198 0.26522 0.0
C2123 C 0.65473 0.16743 0.27913 0.0
H2124 H 0.69443 0.18779 0.22899 0.0
C2125 C 0.64169 0.14677 0.26599 0.0
H2126 H 0.68391 0.19831 0.27447 0.0
C2127 C 0.64775 0.14069 0.2397 0.0
C2128 C 0.66661 0.15547 0.22575 0.0
H2129 H 0.62669 0.13535 0.276 0.0
H2130 H 0.63769 0.12437 0.23033 0.0
C2131 C 0.67947 0.17622 0.23888 0.0
C2132 C 0.86043 0.64807 0.2385 0.0
C2133 C 0.847 0.6684 0.22525 0.0
H2134 H 0.86471 0.62573 0.27413 0.0
C2135 C 0.82745 0.68244 0.239 0.0
H2136 H 0.8758 0.63702 0.22864 0.0
C2137 C 0.82159 0.67645 0.26528 0.0
C2138 C 0.83486 0.65599 0.27849 0.0
H2139 H 0.81698 0.69851 0.22965 0.0
H2140 H 0.80622 0.68755 0.27506 0.0
C2141 C 0.85428 0.64179 0.2647 0.0
C2142 C 0.36155 0.85327 0.26503 0.0
C2143 C 0.34803 0.83309 0.27842 0.0
H2144 H 0.36607 0.87521 0.2292 0.0
C2145 C 0.32851 0.81896 0.26472 0.0
H2146 H 0.3769 0.86438 0.27484 0.0
C2147 C 0.32278 0.82471 0.23834 0.0
C2148 C 0.33617 0.84498 0.22499 0.0
H2149 H 0.31796 0.803 0.27418 0.0
H2150 H 0.30744 0.81353 0.2286 0.0
C2151 C 0.35555 0.85928 0.23874 0.0
C2152 C 0.13904 0.64911 0.76653 0.0
C2153 C 0.15206 0.66965 0.77986 0.0
H2154 H 0.13483 0.62721 0.73061 0.0
C2155 C 0.17086 0.68455 0.76596 0.0
H2156 H 0.12422 0.63742 0.77649 0.0
C2157 C 0.17639 0.67918 0.73948 0.0
C2158 C 0.16356 0.65852 0.72617 0.0
H2159 H 0.18098 0.70081 0.77536 0.0
H2160 H 0.19119 0.69097 0.72961 0.0
C2161 C 0.14489 0.64346 0.7401 0.0
C2162 C 0.36012 0.14638 0.73891 0.0
C2163 C 0.34586 0.16582 0.7252 0.0
H2164 H 0.36539 0.12516 0.77508 0.0
C2165 C 0.32585 0.17947 0.73869 0.0
H2166 H 0.37586 0.13567 0.72928 0.0
C2167 C 0.32032 0.17394 0.76515 0.0
C2168 C 0.33441 0.15436 0.77882 0.0
H2169 H 0.31472 0.19488 0.72899 0.0
H2170 H 0.30456 0.18468 0.77471 0.0
C2171 C 0.35433 0.14058 0.76531 0.0
C2172 C 0.85469 0.36122 0.73818 0.0
C2173 C 0.83545 0.34676 0.7244 0.0
H2174 H 0.87598 0.36648 0.77431 0.0
C2175 C 0.82227 0.32633 0.73772 0.0
H2176 H 0.86505 0.37728 0.72867 0.0
C2177 C 0.82802 0.32062 0.76409 0.0
C2178 C 0.84739 0.33493 0.77783 0.0
H2179 H 0.80703 0.31503 0.72796 0.0
H2180 H 0.81763 0.30454 0.77352 0.0
C2181 C 0.86073 0.35524 0.76448 0.0
C2182 C 0.6768 0.82316 0.7652 0.0
C2183 C 0.66312 0.84325 0.77854 0.0
H2184 H 0.68261 0.80214 0.72911 0.0
C2185 C 0.64415 0.85784 0.76451 0.0
H2186 H 0.69186 0.81178 0.77515 0.0
C2187 C 0.63889 0.85234 0.73794 0.0
C2188 C 0.65278 0.83242 0.72456 0.0
H2189 H 0.63344 0.87365 0.77403 0.0
H2190 H 0.62385 0.86368 0.7279 0.0
C2191 C 0.67184 0.81795 0.73856 0.0
C2192 C 0.23848 0.14214 0.35396 0.0
C2193 C 0.22503 0.15584 0.33394 0.0
H2194 H 0.2742 0.13773 0.37607 0.0
C2195 C 0.23855 0.17581 0.32024 0.0
H2196 H 0.22884 0.12646 0.36475 0.0
C2197 C 0.26479 0.18182 0.32629 0.0
C2198 C 0.2782 0.16827 0.34643 0.0
H2199 H 0.22904 0.18651 0.30442 0.0
H2200 H 0.27439 0.19753 0.31548 0.0
C2201 C 0.26464 0.1484 0.36025 0.0
C2202 C 0.85535 0.26494 0.36134 0.0
C2203 C 0.83594 0.27856 0.34695 0.0
H2204 H 0.87698 0.22899 0.36648 0.0
C2205 C 0.82279 0.26515 0.32657 0.0
H2206 H 0.86569 0.27453 0.37736 0.0
C2207 C 0.82874 0.23885 0.32082 0.0
C2208 C 0.84828 0.22526 0.33504 0.0
H2209 H 0.80742 0.27479 0.31532 0.0
H2210 H 0.81834 0.22935 0.30478 0.0
C2211 C 0.86161 0.23871 0.35531 0.0
C2212 C 0.73866 0.82342 0.32648 0.0
C2213 C 0.72531 0.83642 0.34701 0.0
H2214 H 0.77442 0.8191 0.30459 0.0
C2215 C 0.73903 0.85561 0.36159 0.0
H2216 H 0.72894 0.80823 0.31508 0.0
C2217 C 0.76528 0.86182 0.3556 0.0
C2218 C 0.77865 0.84868 0.33516 0.0
H2219 H 0.72951 0.86582 0.37773 0.0
H2220 H 0.77506 0.87702 0.36693 0.0
C2221 C 0.76498 0.82934 0.32075 0.0
C2222 C 0.1791 0.73849 0.32483 0.0
C2223 C 0.1659 0.72524 0.34531 0.0
H2224 H 0.18395 0.7743 0.30312 0.0
C2225 C 0.14693 0.73917 0.35998 0.0
H2226 H 0.19414 0.7286 0.31338 0.0
C2227 C 0.14112 0.76554 0.35412 0.0
C2228 C 0.15444 0.77882 0.33373 0.0
H2229 H 0.13658 0.72972 0.37607 0.0
H2230 H 0.12606 0.77549 0.3655 0.0
C2231 C 0.17358 0.76493 0.31925 0.0
C2232 C 0.26408 0.82069 0.67439 0.0
C2233 C 0.27773 0.83565 0.65545 0.0
H2234 H 0.22806 0.81438 0.69538 0.0
C2235 C 0.26431 0.85643 0.64289 0.0
H2236 H 0.27354 0.80426 0.68418 0.0
C2237 C 0.23805 0.8622 0.64928 0.0
C2238 C 0.22436 0.84708 0.66808 0.0
H2239 H 0.27406 0.86819 0.62798 0.0
H2240 H 0.2285 0.8786 0.63951 0.0
C2241 C 0.23774 0.82621 0.6805 0.0
C2242 C 0.14088 0.23824 0.64786 0.0
C2243 C 0.15494 0.22459 0.66751 0.0
H2244 H 0.13567 0.27449 0.62668 0.0
C2245 C 0.17451 0.23822 0.68161 0.0
H2246 H 0.12546 0.22847 0.63682 0.0
C2247 C 0.17978 0.26475 0.67637 0.0
C2248 C 0.16594 0.27839 0.65658 0.0
H2249 H 0.18543 0.22857 0.6972 0.0
H2250 H 0.19521 0.2744 0.68752 0.0
C2251 C 0.1465 0.26473 0.64228 0.0
C2252 C 0.76527 0.14243 0.64532 0.0
C2253 C 0.77876 0.15581 0.66553 0.0
H2254 H 0.72921 0.13797 0.6237 0.0
C2255 C 0.76504 0.17496 0.68012 0.0
H2256 H 0.7751 0.12734 0.63388 0.0
C2257 C 0.73857 0.18048 0.67481 0.0
C2258 C 0.7251 0.1673 0.65448 0.0
H2259 H 0.77457 0.18536 0.69613 0.0
H2260 H 0.72884 0.19556 0.68635 0.0
C2261 C 0.73884 0.14828 0.6397 0.0
C2262 C 0.85757 0.73608 0.64395 0.0
C2263 C 0.83695 0.72252 0.65662 0.0
H2264 H 0.87956 0.77207 0.64065 0.0
C2265 C 0.82212 0.73596 0.67578 0.0
H2266 H 0.86922 0.72645 0.62889 0.0
C2267 C 0.82751 0.76226 0.68192 0.0
C2268 C 0.84818 0.77584 0.6694 0.0
H2269 H 0.80581 0.72638 0.68567 0.0
H2270 H 0.81571 0.77179 0.69693 0.0
C2271 C 0.8633 0.76234 0.65047 0.0
C2272 C 0.36245 0.26442 0.147 0.0
C2273 C 0.34863 0.27787 0.16693 0.0
H2274 H 0.36726 0.22844 0.1253 0.0
C2275 C 0.32909 0.26418 0.18102 0.0
H2276 H 0.37784 0.27425 0.13596 0.0
C2277 C 0.32361 0.23776 0.17547 0.0
C2278 C 0.33721 0.22433 0.15538 0.0
H2279 H 0.31834 0.27368 0.19682 0.0
H2280 H 0.30821 0.22805 0.18662 0.0
C2281 C 0.35662 0.23804 0.14111 0.0
C2282 C 0.35606 0.76456 0.86079 0.0
C2283 C 0.3359 0.77803 0.8473 0.0
H2284 H 0.37807 0.72867 0.86497 0.0
C2285 C 0.32182 0.7645 0.82765 0.0
H2286 H 0.36711 0.77428 0.87624 0.0
C2287 C 0.32753 0.73821 0.82179 0.0
C2288 C 0.34779 0.72475 0.83509 0.0
H2289 H 0.30587 0.77403 0.81714 0.0
H2290 H 0.31634 0.72862 0.80636 0.0
C2291 C 0.36213 0.73832 0.85456 0.0
C2292 C 0.26421 0.35973 0.8549 0.0
C2293 C 0.27797 0.34562 0.8354 0.0
H2294 H 0.22802 0.36486 0.87606 0.0
C2295 C 0.26452 0.32568 0.8216 0.0
H2296 H 0.27379 0.37542 0.86573 0.0
C2297 C 0.23806 0.32008 0.82706 0.0
C2298 C 0.22435 0.33403 0.8467 0.0
H2299 H 0.27427 0.31466 0.80614 0.0
H2300 H 0.22853 0.30436 0.81621 0.0
C2301 C 0.23782 0.35389 0.86061 0.0
C2302 C 0.64166 0.26346 0.85441 0.0
C2303 C 0.65533 0.27701 0.83442 0.0
H2304 H 0.63702 0.2274 0.87602 0.0
C2305 C 0.67484 0.2634 0.82022 0.0
H2306 H 0.62629 0.27322 0.86555 0.0
C2307 C 0.68042 0.23697 0.82568 0.0
C2308 C 0.66695 0.22344 0.84578 0.0
H2309 H 0.68548 0.27298 0.80439 0.0
H2310 H 0.69578 0.22733 0.81443 0.0
C2311 C 0.64758 0.23708 0.8602 0.0
C2312 C 0.76306 0.64591 0.86128 0.0
C2313 C 0.77659 0.66647 0.8485 0.0
H2314 H 0.72736 0.62361 0.86455 0.0
C2315 C 0.76321 0.6809 0.82894 0.0
H2316 H 0.77258 0.63455 0.87664 0.0
C2317 C 0.73703 0.67503 0.82244 0.0
C2318 C 0.72355 0.65438 0.83511 0.0
H2319 H 0.77276 0.69715 0.81894 0.0
H2320 H 0.72756 0.68642 0.80709 0.0
C2321 C 0.73697 0.63984 0.85455 0.0
C2322 C 0.6791 0.76495 0.17782 0.0
C2323 C 0.66616 0.77818 0.15716 0.0
H2324 H 0.68357 0.72922 0.19975 0.0
C2325 C 0.64723 0.76429 0.14241 0.0
H2326 H 0.6941 0.77481 0.18935 0.0
C2327 C 0.64122 0.73798 0.14835 0.0
C2328 C 0.6543 0.72473 0.1689 0.0
H2329 H 0.63707 0.77372 0.12618 0.0
H2330 H 0.6262 0.72806 0.13689 0.0
C2331 C 0.67339 0.73857 0.18348 0.0
C2332 C 0.26412 0.67415 0.18188 0.0
C2333 C 0.2778 0.65476 0.16754 0.0
H2334 H 0.228 0.69513 0.18759 0.0
C2335 C 0.26435 0.64134 0.14734 0.0
H2336 H 0.27362 0.6846 0.19787 0.0
C2337 C 0.23802 0.64732 0.14151 0.0
C2338 C 0.22429 0.66659 0.15598 0.0
H2339 H 0.27413 0.62608 0.13608 0.0
H2340 H 0.22845 0.63689 0.12554 0.0
C2341 C 0.23771 0.67986 0.17629 0.0
C2342 C 0.76389 0.32313 0.1755 0.0
C2343 C 0.77706 0.33593 0.15472 0.0
H2344 H 0.72831 0.31887 0.19767 0.0
C2345 C 0.76318 0.35489 0.13998 0.0
H2346 H 0.77372 0.3081 0.18704 0.0
C2347 C 0.73694 0.36107 0.1461 0.0
C2348 C 0.72376 0.34809 0.16679 0.0
H2349 H 0.77257 0.36492 0.12366 0.0
H2350 H 0.727 0.37612 0.13468 0.0
C2351 C 0.73759 0.32898 0.18132 0.0
C2352 C 0.11541 0.19388 0.19989 0.0
C2353 C 0.1171 0.19956 0.22694 0.0
H2354 H 0.11151 0.20972 0.1609 0.0
C2355 C 0.11069 0.22491 0.23585 0.0
H2356 H 0.12017 0.17442 0.19254 0.0
C2357 C 0.10443 0.24475 0.21777 0.0
C2358 C 0.10529 0.23966 0.19056 0.0
H2359 H 0.11153 0.22963 0.25665 0.0
H2360 H 0.10157 0.26465 0.22496 0.0
C2361 C 0.11003 0.21391 0.18179 0.0
C2362 C 0.77898 0.10981 0.23853 0.0
C2363 C 0.80418 0.11641 0.22934 0.0
H2364 H 0.7392 0.10037 0.22805 0.0
C2365 C 0.80962 0.1147 0.20224 0.0
H2366 H 0.77445 0.11066 0.25938 0.0
C2367 C 0.78946 0.10914 0.18436 0.0
C2368 C 0.76385 0.10422 0.19342 0.0
H2369 H 0.82897 0.11963 0.1947 0.0
H2370 H 0.7934 0.11066 0.16343 0.0
C2371 C 0.75902 0.10335 0.22067 0.0
C2372 C 0.89974 0.75937 0.22054 0.0
C2373 C 0.90001 0.76448 0.19332 0.0
H2374 H 0.89143 0.7746 0.25912 0.0
C2375 C 0.89626 0.79035 0.1844 0.0
H2376 H 0.90185 0.7394 0.22781 0.0
C2377 C 0.89057 0.81047 0.20229 0.0
C2378 C 0.88762 0.8048 0.22924 0.0
H2379 H 0.89566 0.79457 0.16348 0.0
H2380 H 0.8865 0.83002 0.19476 0.0
C2381 C 0.8932 0.77933 0.23837 0.0
C2382 C 0.24458 0.89838 0.21813 0.0
C2383 C 0.23978 0.89695 0.1909 0.0
H2384 H 0.22903 0.89215 0.25698 0.0
C2385 C 0.2141 0.89216 0.18194 0.0
H2386 H 0.26442 0.90131 0.22547 0.0
C2387 C 0.19385 0.88726 0.19992 0.0
C2388 C 0.19925 0.88611 0.22706 0.0
H2389 H 0.21013 0.89027 0.16104 0.0
H2390 H 0.17445 0.88243 0.19247 0.0
C2391 C 0.22453 0.89258 0.23612 0.0
C2392 C 0.1042 0.79041 0.81856 0.0
C2393 C 0.10042 0.7642 0.81073 0.0
H2394 H 0.1144 0.82955 0.80665 0.0
C2395 C 0.10119 0.75792 0.78376 0.0
H2396 H 0.10441 0.79555 0.83929 0.0
C2397 C 0.10821 0.77705 0.76518 0.0
C2398 C 0.11375 0.80287 0.77328 0.0
H2399 H 0.09908 0.73768 0.77731 0.0
H2400 H 0.11035 0.77141 0.7447 0.0
C2401 C 0.11036 0.8097 0.79991 0.0
C2402 C 0.19334 0.11206 0.79894 0.0
C2403 C 0.19985 0.11471 0.77215 0.0
H2404 H 0.20798 0.10728 0.8383 0.0
C2405 C 0.22563 0.10915 0.76391 0.0
H2406 H 0.17355 0.11616 0.80579 0.0
C2407 C 0.24501 0.10277 0.78244 0.0
C2408 C 0.23902 0.10267 0.80949 0.0
H2409 H 0.23101 0.11075 0.74331 0.0
H2410 H 0.26519 0.10057 0.77582 0.0
C2411 C 0.21289 0.10656 0.81753 0.0
C2412 C 0.89377 0.22674 0.76197 0.0
C2413 C 0.88886 0.20082 0.77019 0.0
H2414 H 0.90173 0.26641 0.77393 0.0
C2415 C 0.89212 0.19424 0.7969 0.0
H2416 H 0.89169 0.23218 0.74143 0.0
C2417 C 0.89756 0.2138 0.81548 0.0
C2418 C 0.90076 0.24004 0.8075 0.0
H2419 H 0.88854 0.17434 0.80373 0.0
H2420 H 0.89728 0.20879 0.83624 0.0
C2421 C 0.90007 0.24615 0.78048 0.0
C2422 C 0.75398 0.89434 0.78449 0.0
C2423 C 0.75931 0.89291 0.81165 0.0
H2424 H 0.76889 0.8885 0.74532 0.0
C2425 C 0.78515 0.88808 0.8201 0.0
H2426 H 0.73401 0.89727 0.77754 0.0
C2427 C 0.80511 0.88348 0.80171 0.0
C2428 C 0.79927 0.88259 0.77464 0.0
H2429 H 0.78952 0.88616 0.84092 0.0
H2430 H 0.82469 0.87877 0.80876 0.0
C2431 C 0.77375 0.88881 0.7661 0.0
C2432 C 0.20489 0.11208 0.19285 0.0
C2433 C 0.23163 0.11506 0.19937 0.0
H2434 H 0.16562 0.10685 0.20753 0.0
C2435 C 0.23999 0.10935 0.22509 0.0
H2436 H 0.19798 0.11625 0.17309 0.0
C2437 C 0.22156 0.10266 0.24446 0.0
C2438 C 0.19452 0.10241 0.23852 0.0
H2439 H 0.26056 0.11116 0.23046 0.0
H2440 H 0.22823 0.10047 0.26463 0.0
C2441 C 0.1864 0.10626 0.21239 0.0
C2442 C 0.89053 0.20452 0.19349 0.0
C2443 C 0.88711 0.23128 0.19976 0.0
H2444 H 0.89652 0.16549 0.20851 0.0
C2445 C 0.89269 0.23994 0.2254 0.0
H2446 H 0.88647 0.19736 0.1738 0.0
C2447 C 0.89974 0.22181 0.24493 0.0
C2448 C 0.90052 0.19472 0.23923 0.0
H2449 H 0.89053 0.26053 0.23059 0.0
H2450 H 0.90185 0.22868 0.26504 0.0
C2451 C 0.89673 0.18631 0.21319 0.0
C2452 C 0.76235 0.89424 0.22727 0.0
C2453 C 0.77033 0.88903 0.20133 0.0
H2454 H 0.77465 0.90268 0.26675 0.0
C2455 C 0.79698 0.89223 0.19449 0.0
H2456 H 0.74187 0.89221 0.23293 0.0
C2457 C 0.81573 0.8979 0.21383 0.0
C2458 C 0.80799 0.9014 0.24012 0.0
H2459 H 0.80364 0.88841 0.17457 0.0
H2460 H 0.83644 0.89759 0.20864 0.0
C2461 C 0.78103 0.90078 0.24646 0.0
C2462 C 0.10233 0.78238 0.24482 0.0
C2463 C 0.10169 0.8094 0.2388 0.0
H2464 H 0.11111 0.74342 0.23087 0.0
C2465 C 0.1053 0.81747 0.21262 0.0
H2466 H 0.10035 0.77575 0.26503 0.0
C2467 C 0.11117 0.79899 0.19309 0.0
C2468 C 0.11446 0.77228 0.19965 0.0
H2469 H 0.10561 0.83824 0.20768 0.0
H2470 H 0.1151 0.8059 0.17328 0.0
C2471 C 0.10906 0.76396 0.22545 0.0
C2472 C 0.18412 0.89307 0.79087 0.0
C2473 C 0.19242 0.89834 0.76506 0.0
H2474 H 0.19565 0.8826 0.83007 0.0
C2475 C 0.21952 0.89981 0.75958 0.0
H2476 H 0.16333 0.89113 0.79533 0.0
C2477 C 0.238 0.89361 0.77906 0.0
C2478 C 0.22959 0.88669 0.80445 0.0
H2479 H 0.22635 0.90309 0.73961 0.0
H2480 H 0.25874 0.8932 0.77401 0.0
C2481 C 0.20261 0.88779 0.81056 0.0
C2482 C 0.10787 0.18282 0.78887 0.0
C2483 C 0.10313 0.19144 0.76306 0.0
H2484 H 0.11819 0.19378 0.82827 0.0
C2485 C 0.10236 0.21861 0.75779 0.0
H2486 H 0.10929 0.16196 0.79319 0.0
C2487 C 0.10879 0.23678 0.77749 0.0
C2488 C 0.11524 0.22801 0.80288 0.0
H2489 H 0.09951 0.22568 0.73784 0.0
H2490 H 0.10973 0.25754 0.77261 0.0
C2491 C 0.1134 0.20101 0.80876 0.0
C2492 C 0.81835 0.10909 0.78717 0.0
C2493 C 0.81046 0.10455 0.7611 0.0
H2494 H 0.80619 0.11853 0.82644 0.0
C2495 C 0.78344 0.10339 0.75512 0.0
H2496 H 0.83907 0.11073 0.79205 0.0
C2497 C 0.76466 0.10915 0.77444 0.0
C2498 C 0.77267 0.1153 0.80015 0.0
H2499 H 0.77692 0.10063 0.73497 0.0
H2500 H 0.74401 0.10979 0.76907 0.0
C2501 C 0.79955 0.11392 0.80668 0.0
C2502 C 0.89156 0.81959 0.7932 0.0
C2503 C 0.89746 0.81026 0.76788 0.0
H2504 H 0.87978 0.80964 0.83247 0.0
C2505 C 0.89897 0.78298 0.7635 0.0
H2506 H 0.88953 0.84054 0.79678 0.0
C2507 C 0.89206 0.76532 0.78347 0.0
C2508 C 0.88436 0.77475 0.80827 0.0
H2509 H 0.90274 0.77538 0.7439 0.0
H2510 H 0.89168 0.74441 0.77921 0.0
C2511 C 0.88552 0.80192 0.81341 0.0
C2512 C 0.19539 0.20444 0.1126 0.0
C2513 C 0.20172 0.23133 0.11444 0.0
H2514 H 0.2103 0.16507 0.10893 0.0
C2515 C 0.22742 0.2396 0.10858 0.0
H2516 H 0.17565 0.19759 0.11699 0.0
C2517 C 0.24689 0.22103 0.10264 0.0
C2518 C 0.24107 0.19397 0.1033 0.0
H2519 H 0.23266 0.26026 0.10958 0.0
H2520 H 0.26702 0.22769 0.10016 0.0
C2521 C 0.21503 0.18584 0.10758 0.0
C2522 C 0.24391 0.78261 0.9005 0.0
C2523 C 0.23925 0.8099 0.90049 0.0
H2524 H 0.22799 0.7442 0.89272 0.0
C2525 C 0.21355 0.81921 0.89655 0.0
H2526 H 0.26375 0.77504 0.90271 0.0
C2527 C 0.19312 0.80161 0.89112 0.0
C2528 C 0.19829 0.77452 0.88858 0.0
H2529 H 0.2097 0.84019 0.89569 0.0
H2530 H 0.17369 0.80941 0.88697 0.0
C2531 C 0.22363 0.76504 0.89421 0.0
C2532 C 0.20222 0.19308 0.89095 0.0
C2533 C 0.22911 0.19909 0.88821 0.0
H2534 H 0.16316 0.20848 0.8956 0.0
C2535 C 0.23784 0.22473 0.89367 0.0
H2536 H 0.19502 0.17339 0.88695 0.0
C2537 C 0.21968 0.24448 0.89993 0.0
C2538 C 0.19254 0.239 0.90001 0.0
H2539 H 0.25853 0.22972 0.89202 0.0
H2540 H 0.22666 0.26455 0.90197 0.0
C2541 C 0.18401 0.21299 0.89633 0.0
C2542 C 0.75885 0.21821 0.89781 0.0
C2543 C 0.76403 0.19105 0.8965 0.0
H2544 H 0.77386 0.25722 0.89133 0.0
C2545 C 0.7898 0.18241 0.89161 0.0
H2546 H 0.73893 0.22529 0.9008 0.0
C2547 C 0.80977 0.20063 0.88654 0.0
C2548 C 0.80401 0.22768 0.88529 0.0
H2549 H 0.79402 0.16156 0.88978 0.0
H2550 H 0.82926 0.19342 0.88164 0.0
C2551 C 0.77864 0.23643 0.89184 0.0
C2552 C 0.75794 0.77203 0.89535 0.0
C2553 C 0.76553 0.79827 0.89123 0.0
H2554 H 0.77081 0.7326 0.90306 0.0
C2555 C 0.79185 0.80561 0.89581 0.0
H2556 H 0.73771 0.76598 0.89227 0.0
C2557 C 0.81079 0.78653 0.90169 0.0
C2558 C 0.80354 0.75999 0.90399 0.0
H2559 H 0.7982 0.82577 0.89288 0.0
H2560 H 0.83136 0.79219 0.90239 0.0
C2561 C 0.77678 0.75308 0.90209 0.0
C2562 C 0.77736 0.76602 0.11038 0.0
C2563 C 0.80263 0.7749 0.11711 0.0
H2564 H 0.73767 0.77694 0.10105 0.0
C2565 C 0.80825 0.80199 0.11588 0.0
H2566 H 0.77269 0.7452 0.11088 0.0
C2567 C 0.78822 0.82011 0.1106 0.0
C2568 C 0.76254 0.81133 0.10548 0.0
H2569 H 0.82766 0.8093 0.12092 0.0
H2570 H 0.79232 0.84097 0.11243 0.0
C2571 C 0.75753 0.78413 0.1042 0.0
C2572 C 0.18556 0.78801 0.10769 0.0
C2573 C 0.19335 0.76188 0.10334 0.0
H2574 H 0.19777 0.82717 0.11739 0.0
C2575 C 0.22036 0.75573 0.10275 0.0
H2576 H 0.16484 0.79301 0.10897 0.0
C2577 C 0.23914 0.77491 0.10891 0.0
C2578 C 0.23118 0.80067 0.1149 0.0
H2579 H 0.22678 0.73553 0.10019 0.0
H2580 H 0.25973 0.7694 0.10999 0.0
C2581 C 0.20438 0.80737 0.11293 0.0
C2582 C 0.79836 0.19358 0.11438 0.0
C2583 C 0.77145 0.19984 0.11612 0.0
H2584 H 0.83761 0.20864 0.11011 0.0
C2585 C 0.76297 0.22521 0.10927 0.0
H2586 H 0.80535 0.17407 0.11949 0.0
C2587 C 0.78137 0.24458 0.10256 0.0
C2588 C 0.80848 0.23899 0.10345 0.0
H2589 H 0.74227 0.23034 0.11015 0.0
H2590 H 0.77455 0.26456 0.0994 0.0
C2591 C 0.8168 0.21317 0.10858 0.0
C2592 C 0.60698 0.71156 0.68235 0.0
C2593 C 0.60243 0.73747 0.69077 0.0
H2594 H 0.61747 0.67229 0.69355 0.0
C2595 C 0.60214 0.743 0.71791 0.0
H2596 H 0.60802 0.70702 0.66151 0.0
C2597 C 0.60886 0.72349 0.73619 0.0
C2598 C 0.61516 0.69801 0.72758 0.0
H2599 H 0.59943 0.76302 0.72483 0.0
H2600 H 0.61016 0.72858 0.75688 0.0
C2601 C 0.61283 0.69186 0.70067 0.0
C2602 C 0.30679 0.61817 0.70195 0.0
C2603 C 0.30136 0.61835 0.7291 0.0
H2604 H 0.29056 0.61629 0.66297 0.0
C2605 C 0.27612 0.61142 0.73792 0.0
H2606 H 0.32617 0.62341 0.6947 0.0
C2607 C 0.25613 0.60605 0.71975 0.0
C2608 C 0.26097 0.60837 0.69258 0.0
H2609 H 0.27161 0.61117 0.75879 0.0
H2610 H 0.23632 0.60268 0.72697 0.0
C2611 C 0.2866 0.61372 0.6838 0.0
C2612 C 0.39877 0.25579 0.71968 0.0
C2613 C 0.39775 0.26143 0.69258 0.0
H2614 H 0.39214 0.27023 0.7589 0.0
C2615 C 0.39332 0.28741 0.68433 0.0
H2616 H 0.40141 0.23572 0.72646 0.0
C2617 C 0.38838 0.30714 0.70285 0.0
C2618 C 0.3868 0.30095 0.7298 0.0
H2619 H 0.39174 0.29202 0.66354 0.0
H2620 H 0.38382 0.32681 0.69592 0.0
C2621 C 0.39291 0.27535 0.73818 0.0
C2622 C 0.7135 0.3947 0.6842 0.0
C2623 C 0.73938 0.39917 0.69275 0.0
H2624 H 0.6741 0.38448 0.69522 0.0
C2625 C 0.74479 0.39948 0.71991 0.0
H2626 H 0.70907 0.39361 0.66334 0.0
C2627 C 0.72514 0.39293 0.7381 0.0
C2628 C 0.69965 0.38678 0.72938 0.0
H2629 H 0.76479 0.40209 0.72691 0.0
H2630 H 0.73011 0.39165 0.75883 0.0
C2631 C 0.69367 0.38904 0.70243 0.0
C2632 C 0.60617 0.28974 0.31806 0.0
C2633 C 0.60255 0.26376 0.30942 0.0
H2634 H 0.61582 0.32934 0.30731 0.0
C2635 C 0.60314 0.25834 0.28227 0.0
H2636 H 0.60653 0.29421 0.33893 0.0
C2637 C 0.60974 0.27813 0.26424 0.0
C2638 C 0.61508 0.30375 0.2731 0.0
H2639 H 0.60117 0.23828 0.27522 0.0
H2640 H 0.6117 0.27317 0.24357 0.0
C2641 C 0.61193 0.30968 0.29998 0.0
C2642 C 0.71261 0.60836 0.32008 0.0
C2643 C 0.73831 0.60365 0.31113 0.0
H2644 H 0.6731 0.61875 0.30963 0.0
C2645 C 0.74326 0.603 0.28389 0.0
H2646 H 0.70855 0.60969 0.341 0.0
C2647 C 0.72335 0.60951 0.26598 0.0
C2648 C 0.69807 0.61594 0.27508 0.0
H2649 H 0.76312 0.60016 0.27657 0.0
H2650 H 0.72798 0.61053 0.24516 0.0
C2651 C 0.69251 0.61398 0.30214 0.0
C2652 C 0.39701 0.71163 0.31833 0.0
C2653 C 0.40069 0.73764 0.3098 0.0
H2654 H 0.38696 0.67217 0.30745 0.0
C2655 C 0.40003 0.74321 0.28267 0.0
H2656 H 0.39672 0.70706 0.33919 0.0
C2657 C 0.39313 0.72358 0.26461 0.0
C2658 C 0.38761 0.69798 0.2734 0.0
H2659 H 0.40207 0.76329 0.2757 0.0
H2660 H 0.39105 0.72867 0.24398 0.0
C2661 C 0.39097 0.69184 0.3002 0.0
C2662 C 0.2586 0.39991 0.28156 0.0
C2663 C 0.26396 0.3991 0.30872 0.0
H2664 H 0.27331 0.39268 0.24255 0.0
C2665 C 0.28977 0.39429 0.31726 0.0
H2666 H 0.23862 0.40279 0.27457 0.0
C2667 C 0.30961 0.38885 0.29897 0.0
C2668 C 0.30366 0.38713 0.27198 0.0
H2669 H 0.29414 0.3928 0.33811 0.0
H2670 H 0.32914 0.38404 0.30614 0.0
C2671 C 0.27824 0.39356 0.2633 0.0
C2672 C 0.72062 0.60154 0.74411 0.0
C2673 C 0.69353 0.60176 0.73835 0.0
H2674 H 0.75968 0.6092 0.7298 0.0
C2675 C 0.68529 0.60577 0.71229 0.0
H2676 H 0.72737 0.59922 0.76424 0.0
C2677 C 0.70375 0.61115 0.6926 0.0
C2678 C 0.7306 0.61356 0.69891 0.0
H2679 H 0.66449 0.60672 0.70758 0.0
H2680 H 0.69677 0.6154 0.67288 0.0
C2681 C 0.73903 0.6078 0.72458 0.0
C2682 C 0.39409 0.68372 0.71191 0.0
C2683 C 0.39897 0.69272 0.73756 0.0
H2684 H 0.38337 0.69407 0.67246 0.0
C2685 C 0.39961 0.71995 0.74246 0.0
H2686 H 0.39274 0.66279 0.7079 0.0
C2687 C 0.39293 0.73781 0.72257 0.0
C2688 C 0.3863 0.72866 0.69736 0.0
H2689 H 0.40256 0.72729 0.7623 0.0
H2690 H 0.39189 0.75863 0.72717 0.0
C2691 C 0.38828 0.7016 0.69182 0.0
C2692 C 0.28294 0.3987 0.74661 0.0
C2693 C 0.30993 0.39778 0.74046 0.0
H2694 H 0.24349 0.39187 0.73295 0.0
C2695 C 0.31768 0.39336 0.71432 0.0
H2696 H 0.27653 0.40135 0.76681 0.0
C2697 C 0.2988 0.38831 0.69495 0.0
C2698 C 0.27199 0.38662 0.70168 0.0
H2699 H 0.33838 0.39187 0.70931 0.0
H2700 H 0.30536 0.38376 0.67515 0.0
C2701 C 0.26409 0.39273 0.72743 0.0
C2702 C 0.60916 0.26369 0.72503 0.0
C2703 C 0.61554 0.27224 0.69954 0.0
H2704 H 0.59971 0.27514 0.76453 0.0
C2705 C 0.61334 0.29913 0.69332 0.0
H2706 H 0.61039 0.24301 0.73016 0.0
C2707 C 0.60756 0.3175 0.71298 0.0
C2708 C 0.60293 0.30913 0.7389 0.0
H2709 H 0.61806 0.30618 0.67373 0.0
H2710 H 0.60872 0.33832 0.70841 0.0
C2711 C 0.60248 0.28201 0.74449 0.0
C2712 C 0.70418 0.39135 0.30838 0.0
C2713 C 0.73095 0.38829 0.30196 0.0
H2714 H 0.66493 0.39653 0.29362 0.0
C2715 C 0.73932 0.39356 0.27616 0.0
H2716 H 0.69723 0.38748 0.3282 0.0
C2717 C 0.72092 0.40003 0.25668 0.0
C2718 C 0.69386 0.40051 0.2626 0.0
H2719 H 0.7599 0.39166 0.27083 0.0
H2720 H 0.7276 0.40198 0.23649 0.0
C2721 C 0.68572 0.39695 0.28875 0.0
C2722 C 0.60239 0.72162 0.2578 0.0
C2723 C 0.60151 0.69461 0.26389 0.0
H2724 H 0.61152 0.76052 0.27166 0.0
C2725 C 0.60504 0.68657 0.29008 0.0
H2726 H 0.60048 0.72821 0.23758 0.0
C2727 C 0.61107 0.70504 0.30956 0.0
C2728 C 0.61459 0.73171 0.30295 0.0
H2729 H 0.60516 0.66581 0.29507 0.0
H2730 H 0.61493 0.69815 0.3294 0.0
C2731 C 0.60928 0.74002 0.27713 0.0
C2732 C 0.2616 0.60881 0.27453 0.0
C2733 C 0.26939 0.61388 0.30055 0.0
H2734 H 0.27418 0.60065 0.23509 0.0
C2735 C 0.29601 0.61074 0.30755 0.0
H2736 H 0.24114 0.6108 0.26876 0.0
C2737 C 0.31491 0.60527 0.28831 0.0
C2738 C 0.30734 0.6019 0.26196 0.0
H2739 H 0.30251 0.61446 0.32755 0.0
H2740 H 0.33557 0.60561 0.29364 0.0
C2741 C 0.28042 0.60245 0.25544 0.0
C2742 C 0.40066 0.28336 0.25802 0.0
C2743 C 0.40036 0.31057 0.26313 0.0
H2744 H 0.39261 0.24464 0.27305 0.0
C2745 C 0.39576 0.31939 0.2889 0.0
H2746 H 0.40339 0.27614 0.2381 0.0
C2747 C 0.38989 0.30139 0.30889 0.0
C2748 C 0.38757 0.2744 0.30316 0.0
H2749 H 0.39468 0.34029 0.2931 0.0
H2750 H 0.38521 0.30882 0.32834 0.0
C2751 C 0.39391 0.2654 0.27781 0.0
C2752 C 0.71522 0.68416 0.60639 0.0
C2753 C 0.74128 0.69281 0.60346 0.0
H2754 H 0.67536 0.69487 0.61494 0.0
C2755 C 0.74671 0.71995 0.60437 0.0
H2756 H 0.71074 0.66329 0.60648 0.0
C2757 C 0.72674 0.73795 0.61049 0.0
C2758 C 0.70096 0.72907 0.61502 0.0
H2759 H 0.76681 0.727 0.60294 0.0
H2760 H 0.73163 0.7586 0.61266 0.0
C2761 C 0.69513 0.70221 0.61164 0.0
C2762 C 0.72441 0.26544 0.39338 0.0
C2763 C 0.69903 0.27422 0.38691 0.0
H2764 H 0.76411 0.27652 0.40244 0.0
C2765 C 0.69327 0.30126 0.38835 0.0
H2766 H 0.7292 0.24465 0.39271 0.0
C2767 C 0.71324 0.31946 0.39358 0.0
C2768 C 0.73901 0.3108 0.39843 0.0
H2769 H 0.67378 0.30851 0.38352 0.0
H2770 H 0.70899 0.34031 0.39193 0.0
C2771 C 0.74419 0.28362 0.3995 0.0
C2772 C 0.73831 0.72552 0.39432 0.0
C2773 C 0.72965 0.70013 0.38773 0.0
H2774 H 0.72703 0.76515 0.40341 0.0
C2775 C 0.70263 0.69426 0.38906 0.0
H2776 H 0.75908 0.73038 0.39373 0.0
C2777 C 0.68433 0.71415 0.39424 0.0
C2778 C 0.69286 0.73994 0.39915 0.0
H2779 H 0.69548 0.67476 0.38413 0.0
H2780 H 0.66349 0.70983 0.39246 0.0
C2781 C 0.72002 0.74521 0.4004 0.0
C2782 C 0.30822 0.69948 0.38651 0.0
C2783 C 0.30296 0.72666 0.38577 0.0
H2784 H 0.29177 0.66066 0.38918 0.0
C2785 C 0.27778 0.73575 0.39254 0.0
H2786 H 0.32755 0.692 0.38142 0.0
C2787 C 0.25768 0.71781 0.39829 0.0
C2788 C 0.26234 0.69057 0.39653 0.0
H2789 H 0.27339 0.75664 0.39241 0.0
H2790 H 0.23791 0.72521 0.40151 0.0
C2791 C 0.28792 0.68155 0.39136 0.0
C2792 C 0.26344 0.27753 0.39296 0.0
C2793 C 0.27191 0.30314 0.38703 0.0
H2794 H 0.27502 0.238 0.40207 0.0
C2795 C 0.29871 0.30953 0.38981 0.0
H2796 H 0.24283 0.27227 0.3913 0.0
C2797 C 0.31712 0.28993 0.39566 0.0
C2798 C 0.30887 0.26389 0.39975 0.0
H2799 H 0.30571 0.32922 0.38546 0.0
H2800 H 0.33792 0.29466 0.39493 0.0
C2801 C 0.28179 0.2581 0.39969 0.0
C2802 C 0.3076 0.29856 0.61512 0.0
C2803 C 0.30108 0.27169 0.61661 0.0
H2804 H 0.29295 0.33806 0.61184 0.0
C2805 C 0.27536 0.26366 0.61054 0.0
H2806 H 0.32736 0.30522 0.61966 0.0
C2807 C 0.25603 0.28241 0.60474 0.0
C2808 C 0.26202 0.30943 0.60576 0.0
H2809 H 0.26999 0.24301 0.61128 0.0
H2810 H 0.23587 0.2759 0.60209 0.0
C2811 C 0.28809 0.31734 0.61023 0.0
C2812 C 0.73838 0.27783 0.60836 0.0
C2813 C 0.72979 0.30321 0.61507 0.0
H2814 H 0.72699 0.23832 0.59891 0.0
C2815 C 0.70281 0.30925 0.6135 0.0
H2816 H 0.75912 0.27284 0.60911 0.0
C2817 C 0.68446 0.2895 0.608 0.0
C2818 C 0.69292 0.26369 0.60301 0.0
H2819 H 0.69572 0.32875 0.61851 0.0
H2820 H 0.66364 0.2939 0.60966 0.0
C2821 C 0.72005 0.25829 0.60196 0.0
C2822 C 0.25987 0.73012 0.6104 0.0
C2823 C 0.26743 0.70394 0.61496 0.0
H2824 H 0.27278 0.76942 0.60211 0.0
C2825 C 0.29378 0.69654 0.6107 0.0
H2826 H 0.2396 0.7362 0.61322 0.0
C2827 C 0.31276 0.71551 0.60464 0.0
C2828 C 0.30552 0.74201 0.60182 0.0
H2829 H 0.3001 0.67642 0.61398 0.0
H2830 H 0.33333 0.70984 0.60413 0.0
C2831 C 0.27875 0.74896 0.60347 0.0
loop_
_geom_bond_atom_site_label_1
_geom_bond_atom_site_label_2
_geom_bond_distance
_geom_bond_site_symmetry_2
_ccdc_geom_bond_type
Co0 O3 1.970 . S
Co0 N17 1.989 . S
Co0 O25 1.967 . S
Co0 O32 1.920 . S
Co1 O4 1.966 . S
Co1 N10 2.022 . S
Co1 N18 1.993 . S
Co1 O26 1.941 . S
C2 O3 1.258 . S
C2 O4 1.263 . S
O3 Co0 1.970 . S
O3 C2 1.258 . S
O4 Co1 1.966 . S
O4 C2 1.263 . S
C5 O6 1.235 . S
C5 O32 1.289 . S
O6 C5 1.235 . S
C7 C9 1.400 . S
C7 N10 1.351 . S
C7 C12 1.501 . S
C8 C9 1.387 . S
C8 N11 1.341 . S
C9 C7 1.400 . S
C9 C8 1.387 . S
N10 Co1 2.022 . S
N10 C7 1.351 . S
N10 N11 1.365 . S
N11 C8 1.341 . S
N11 N10 1.365 . S
N11 H31 0.862 . S
C12 C7 1.501 . S
C12 H13 0.961 . S
C12 H14 0.961 . S
C12 H15 0.960 . S
H13 C12 0.961 . S
H14 C12 0.961 . S
H15 C12 0.960 . S
C16 N17 1.342 . S
C16 C20 1.401 . S
C16 C21 1.499 . S
N17 Co0 1.989 . S
N17 C16 1.342 . S
N17 N18 1.388 . S
N18 Co1 1.993 . S
N18 N17 1.388 . S
N18 C19 1.346 . S
C19 N18 1.346 . S
C19 C20 1.396 . S
C19 C29 1.510 . S
C20 C16 1.401 . S
C20 C19 1.396 . S
C21 C16 1.499 . S
C21 H22 0.959 . S
C21 H23 0.960 . S
C21 H24 0.961 . S
H22 C21 0.959 . S
H23 C21 0.960 . S
H24 C21 0.961 . S
O25 Co0 1.967 . S
O25 C33 1.258 . S
O26 Co1 1.941 . S
O26 C33 1.266 . S
H27 C29 0.959 . S
H28 C29 0.961 . S
C29 C19 1.510 . S
C29 H27 0.959 . S
C29 H28 0.961 . S
C29 H30 0.960 . S
H30 C29 0.960 . S
H31 N11 0.862 . S
O32 Co0 1.920 . S
O32 C5 1.289 . S
C33 O25 1.258 . S
C33 O26 1.266 . S
Co34 O37 1.970 . S
Co34 N51 1.989 . S
Co34 O59 1.967 . S
Co34 O66 1.920 . S
Co35 O38 1.966 . S
Co35 N44 2.022 . S
Co35 N52 1.993 . S
Co35 O60 1.941 . S
C36 O37 1.258 . S
C36 O38 1.263 . S
O37 Co34 1.970 . S
O37 C36 1.258 . S
O38 Co35 1.966 . S
O38 C36 1.263 . S
C39 O40 1.235 . S
C39 O66 1.289 . S
O40 C39 1.235 . S
C41 C43 1.400 . S
C41 N44 1.351 . S
C41 C46 1.501 . S
C42 C43 1.387 . S
C42 N45 1.341 . S
C43 C41 1.400 . S
C43 C42 1.387 . S
N44 Co35 2.022 . S
N44 C41 1.351 . S
N44 N45 1.365 . S
N45 C42 1.341 . S
N45 N44 1.365 . S
N45 H65 0.862 . S
C46 C41 1.501 . S
C46 H47 0.961 . S
C46 H48 0.961 . S
C46 H49 0.960 . S
H47 C46 0.961 . S
H48 C46 0.961 . S
H49 C46 0.960 . S
C50 N51 1.342 . S
C50 C54 1.401 . S
C50 C55 1.499 . S
N51 Co34 1.989 . S
N51 C50 1.342 . S
N51 N52 1.388 . S
N52 Co35 1.993 . S
N52 N51 1.388 . S
N52 C53 1.346 . S
C53 N52 1.346 . S
C53 C54 1.396 . S
C53 C63 1.510 . S
C54 C50 1.401 . S
C54 C53 1.396 . S
C55 C50 1.499 . S
C55 H56 0.959 . S
C55 H57 0.960 . S
C55 H58 0.961 . S
H56 C55 0.959 . S
H57 C55 0.960 . S
H58 C55 0.961 . S
O59 Co34 1.967 . S
O59 C67 1.258 . S
O60 Co35 1.941 . S
O60 C67 1.266 . S
H61 C63 0.959 . S
H62 C63 0.961 . S
C63 C53 1.510 . S
C63 H61 0.959 . S
C63 H62 0.961 . S
C63 H64 0.960 . S
H64 C63 0.960 . S
H65 N45 0.862 . S
O66 Co34 1.920 . S
O66 C39 1.289 . S
C67 O59 1.258 . S
C67 O60 1.266 . S
Co68 O71 1.970 . S
Co68 N85 1.989 . S
Co68 O93 1.967 . S
Co68 O100 1.920 . S
Co69 O72 1.966 . S
Co69 N78 2.022 . S
Co69 N86 1.993 . S
Co69 O94 1.941 . S
C70 O71 1.258 . S
C70 O72 1.263 . S
O71 Co68 1.970 . S
O71 C70 1.258 . S
O72 Co69 1.966 . S
O72 C70 1.263 . S
C73 O74 1.235 . S
C73 O100 1.289 . S
O74 C73 1.235 . S
C75 C77 1.400 . S
C75 N78 1.351 . S
C75 C80 1.501 . S
C76 C77 1.387 . S
C76 N79 1.341 . S
C77 C75 1.400 . S
C77 C76 1.387 . S
N78 Co69 2.022 . S
N78 C75 1.351 . S
N78 N79 1.365 . S
N79 C76 1.341 . S
N79 N78 1.365 . S
N79 H99 0.862 . S
C80 C75 1.501 . S
C80 H81 0.961 . S
C80 H82 0.961 . S
C80 H83 0.960 . S
H81 C80 0.961 . S
H82 C80 0.961 . S
H83 C80 0.960 . S
C84 N85 1.342 . S
C84 C88 1.401 . S
C84 C89 1.499 . S
N85 Co68 1.989 . S
N85 C84 1.342 . S
N85 N86 1.388 . S
N86 Co69 1.993 . S
N86 N85 1.388 . S
N86 C87 1.346 . S
C87 N86 1.346 . S
C87 C88 1.396 . S
C87 C97 1.510 . S
C88 C84 1.401 . S
C88 C87 1.396 . S
C89 C84 1.499 . S
C89 H90 0.959 . S
C89 H91 0.960 . S
C89 H92 0.961 . S
H90 C89 0.959 . S
H91 C89 0.960 . S
H92 C89 0.961 . S
O93 Co68 1.967 . S
O93 C101 1.258 . S
O94 Co69 1.941 . S
O94 C101 1.266 . S
H95 C97 0.959 . S
H96 C97 0.961 . S
C97 C87 1.510 . S
C97 H95 0.959 . S
C97 H96 0.961 . S
C97 H98 0.960 . S
H98 C97 0.960 . S
H99 N79 0.862 . S
O100 Co68 1.920 . S
O100 C73 1.289 . S
C101 O93 1.258 . S
C101 O94 1.266 . S
Co102 O105 1.970 . S
Co102 N119 1.989 . S
Co102 O127 1.967 . S
Co102 O134 1.920 . S
Co103 O106 1.966 . S
Co103 N112 2.022 . S
Co103 N120 1.993 . S
Co103 O128 1.941 . S
C104 O105 1.258 . S
C104 O106 1.263 . S
O105 Co102 1.970 . S
O105 C104 1.258 . S
O106 Co103 1.966 . S
O106 C104 1.263 . S
C107 O108 1.235 . S
C107 O134 1.289 . S
O108 C107 1.235 . S
C109 C111 1.400 . S
C109 N112 1.351 . S
C109 C114 1.501 . S
C110 C111 1.387 . S
C110 N113 1.341 . S
C111 C109 1.400 . S
C111 C110 1.387 . S
N112 Co103 2.022 . S
N112 C109 1.351 . S
N112 N113 1.365 . S
N113 C110 1.341 . S
N113 N112 1.365 . S
N113 H133 0.862 . S
C114 C109 1.501 . S
C114 H115 0.961 . S
C114 H116 0.961 . S
C114 H117 0.960 . S
H115 C114 0.961 . S
H116 C114 0.961 . S
H117 C114 0.960 . S
C118 N119 1.342 . S
C118 C122 1.401 . S
C118 C123 1.499 . S
N119 Co102 1.989 . S
N119 C118 1.342 . S
N119 N120 1.388 . S
N120 Co103 1.993 . S
N120 N119 1.388 . S
N120 C121 1.346 . S
C121 N120 1.346 . S
C121 C122 1.396 . S
C121 C131 1.510 . S
C122 C118 1.401 . S
C122 C121 1.396 . S
C123 C118 1.499 . S
C123 H124 0.959 . S
C123 H125 0.960 . S
C123 H126 0.961 . S
H124 C123 0.959 . S
H125 C123 0.960 . S
H126 C123 0.961 . S
O127 Co102 1.967 . S
O127 C135 1.258 . S
O128 Co103 1.941 . S
O128 C135 1.266 . S
H129 C131 0.959 . S
H130 C131 0.961 . S
C131 C121 1.510 . S
C131 H129 0.959 . S
C131 H130 0.961 . S
C131 H132 0.960 . S
H132 C131 0.960 . S
H133 N113 0.862 . S
O134 Co102 1.920 . S
O134 C107 1.289 . S
C135 O127 1.258 . S
C135 O128 1.266 . S
Co136 O139 1.970 . S
Co136 N153 1.989 . S
Co136 O161 1.967 . S
Co136 O168 1.920 . S
Co137 O140 1.966 . S
Co137 N146 2.022 . S
Co137 N154 1.993 . S
Co137 O162 1.941 . S
C138 O139 1.258 . S
C138 O140 1.263 . S
O139 Co136 1.970 . S
O139 C138 1.258 . S
O140 Co137 1.966 . S
O140 C138 1.263 . S
C141 O142 1.235 . S
C141 O168 1.289 . S
O142 C141 1.235 . S
C143 C145 1.400 . S
C143 N146 1.351 . S
C143 C148 1.501 . S
C144 C145 1.387 . S
C144 N147 1.341 . S
C145 C143 1.400 . S
C145 C144 1.387 . S
N146 Co137 2.022 . S
N146 C143 1.351 . S
N146 N147 1.365 . S
N147 C144 1.341 . S
N147 N146 1.365 . S
N147 H167 0.862 . S
C148 C143 1.501 . S
C148 H149 0.961 . S
C148 H150 0.961 . S
C148 H151 0.960 . S
H149 C148 0.961 . S
H150 C148 0.961 . S
H151 C148 0.960 . S
C152 N153 1.342 . S
C152 C156 1.401 . S
C152 C157 1.499 . S
N153 Co136 1.989 . S
N153 C152 1.342 . S
N153 N154 1.388 . S
N154 Co137 1.993 . S
N154 N153 1.388 . S
N154 C155 1.346 . S
C155 N154 1.346 . S
C155 C156 1.396 . S
C155 C165 1.510 . S
C156 C152 1.401 . S
C156 C155 1.396 . S
C157 C152 1.499 . S
C157 H158 0.959 . S
C157 H159 0.960 . S
C157 H160 0.961 . S
H158 C157 0.959 . S
H159 C157 0.960 . S
H160 C157 0.961 . S
O161 Co136 1.967 . S
O161 C169 1.258 . S
O162 Co137 1.941 . S
O162 C169 1.266 . S
H163 C165 0.959 . S
H164 C165 0.961 . S
C165 C155 1.510 . S
C165 H163 0.959 . S
C165 H164 0.961 . S
C165 H166 0.960 . S
H166 C165 0.960 . S
H167 N147 0.862 . S
O168 Co136 1.920 . S
O168 C141 1.289 . S
C169 O161 1.258 . S
C169 O162 1.266 . S
Co170 O173 1.970 . S
Co170 N187 1.989 . S
Co170 O195 1.967 . S
Co170 O202 1.920 . S
Co171 O174 1.966 . S
Co171 N180 2.022 . S
Co171 N188 1.993 . S
Co171 O196 1.941 . S
C172 O173 1.258 . S
C172 O174 1.263 . S
O173 Co170 1.970 . S
O173 C172 1.258 . S
O174 Co171 1.966 . S
O174 C172 1.263 . S
C175 O176 1.235 . S
C175 O202 1.289 . S
O176 C175 1.235 . S
C177 C179 1.400 . S
C177 N180 1.351 . S
C177 C182 1.501 . S
C178 C179 1.387 . S
C178 N181 1.341 . S
C179 C177 1.400 . S
C179 C178 1.387 . S
N180 Co171 2.022 . S
N180 C177 1.351 . S
N180 N181 1.365 . S
N181 C178 1.341 . S
N181 N180 1.365 . S
N181 H201 0.862 . S
C182 C177 1.501 . S
C182 H183 0.961 . S
C182 H184 0.961 . S
C182 H185 0.960 . S
H183 C182 0.961 . S
H184 C182 0.961 . S
H185 C182 0.960 . S
C186 N187 1.342 . S
C186 C190 1.401 . S
C186 C191 1.499 . S
N187 Co170 1.989 . S
N187 C186 1.342 . S
N187 N188 1.388 . S
N188 Co171 1.993 . S
N188 N187 1.388 . S
N188 C189 1.346 . S
C189 N188 1.346 . S
C189 C190 1.396 . S
C189 C199 1.510 . S
C190 C186 1.401 . S
C190 C189 1.396 . S
C191 C186 1.499 . S
C191 H192 0.959 . S
C191 H193 0.960 . S
C191 H194 0.961 . S
H192 C191 0.959 . S
H193 C191 0.960 . S
H194 C191 0.961 . S
O195 Co170 1.967 . S
O195 C203 1.258 . S
O196 Co171 1.941 . S
O196 C203 1.266 . S
H197 C199 0.959 . S
H198 C199 0.961 . S
C199 C189 1.510 . S
C199 H197 0.959 . S
C199 H198 0.961 . S
C199 H200 0.960 . S
H200 C199 0.960 . S
H201 N181 0.862 . S
O202 Co170 1.920 . S
O202 C175 1.289 . S
C203 O195 1.258 . S
C203 O196 1.266 . S
Co204 O207 1.970 . S
Co204 N221 1.989 . S
Co204 O229 1.967 . S
Co204 O236 1.920 . S
Co205 O208 1.966 . S
Co205 N214 2.022 . S
Co205 N222 1.993 . S
Co205 O230 1.941 . S
C206 O207 1.258 . S
C206 O208 1.263 . S
O207 Co204 1.970 . S
O207 C206 1.258 . S
O208 Co205 1.966 . S
O208 C206 1.263 . S
C209 O210 1.235 . S
C209 O236 1.289 . S
O210 C209 1.235 . S
C211 C213 1.400 . S
C211 N214 1.351 . S
C211 C216 1.501 . S
C212 C213 1.387 . S
C212 N215 1.341 . S
C213 C211 1.400 . S
C213 C212 1.387 . S
N214 Co205 2.022 . S
N214 C211 1.351 . S
N214 N215 1.365 . S
N215 C212 1.341 . S
N215 N214 1.365 . S
N215 H235 0.862 . S
C216 C211 1.501 . S
C216 H217 0.961 . S
C216 H218 0.961 . S
C216 H219 0.960 . S
H217 C216 0.961 . S
H218 C216 0.961 . S
H219 C216 0.960 . S
C220 N221 1.342 . S
C220 C224 1.401 . S
C220 C225 1.499 . S
N221 Co204 1.989 . S
N221 C220 1.342 . S
N221 N222 1.388 . S
N222 Co205 1.993 . S
N222 N221 1.388 . S
N222 C223 1.346 . S
C223 N222 1.346 . S
C223 C224 1.396 . S
C223 C233 1.510 . S
C224 C220 1.401 . S
C224 C223 1.396 . S
C225 C220 1.499 . S
C225 H226 0.959 . S
C225 H227 0.960 . S
C225 H228 0.961 . S
H226 C225 0.959 . S
H227 C225 0.960 . S
H228 C225 0.961 . S
O229 Co204 1.967 . S
O229 C237 1.258 . S
O230 Co205 1.941 . S
O230 C237 1.266 . S
H231 C233 0.959 . S
H232 C233 0.961 . S
C233 C223 1.510 . S
C233 H231 0.959 . S
C233 H232 0.961 . S
C233 H234 0.960 . S
H234 C233 0.960 . S
H235 N215 0.862 . S
O236 Co204 1.920 . S
O236 C209 1.289 . S
C237 O229 1.258 . S
C237 O230 1.266 . S
Co238 O241 1.970 . S
Co238 N255 1.989 . S
Co238 O263 1.967 . S
Co238 O270 1.920 . S
Co239 O242 1.966 . S
Co239 N248 2.022 . S
Co239 N256 1.993 . S
Co239 O264 1.941 . S
C240 O241 1.258 . S
C240 O242 1.263 . S
O241 Co238 1.970 . S
O241 C240 1.258 . S
O242 Co239 1.966 . S
O242 C240 1.263 . S
C243 O244 1.235 . S
C243 O270 1.289 . S
O244 C243 1.235 . S
C245 C247 1.400 . S
C245 N248 1.351 . S
C245 C250 1.501 . S
C246 C247 1.387 . S
C246 N249 1.341 . S
C247 C245 1.400 . S
C247 C246 1.387 . S
N248 Co239 2.022 . S
N248 C245 1.351 . S
N248 N249 1.365 . S
N249 C246 1.341 . S
N249 N248 1.365 . S
N249 H269 0.862 . S
C250 C245 1.501 . S
C250 H251 0.961 . S
C250 H252 0.961 . S
C250 H253 0.960 . S
H251 C250 0.961 . S
H252 C250 0.961 . S
H253 C250 0.960 . S
C254 N255 1.342 . S
C254 C258 1.401 . S
C254 C259 1.499 . S
N255 Co238 1.989 . S
N255 C254 1.342 . S
N255 N256 1.388 . S
N256 Co239 1.993 . S
N256 N255 1.388 . S
N256 C257 1.346 . S
C257 N256 1.346 . S
C257 C258 1.396 . S
C257 C267 1.510 . S
C258 C254 1.401 . S
C258 C257 1.396 . S
C259 C254 1.499 . S
C259 H260 0.959 . S
C259 H261 0.960 . S
C259 H262 0.961 . S
H260 C259 0.959 . S
H261 C259 0.960 . S
H262 C259 0.961 . S
O263 Co238 1.967 . S
O263 C271 1.258 . S
O264 Co239 1.941 . S
O264 C271 1.266 . S
H265 C267 0.959 . S
H266 C267 0.961 . S
C267 C257 1.510 . S
C267 H265 0.959 . S
C267 H266 0.961 . S
C267 H268 0.960 . S
H268 C267 0.960 . S
H269 N249 0.862 . S
O270 Co238 1.920 . S
O270 C243 1.289 . S
C271 O263 1.258 . S
C271 O264 1.266 . S
Co272 O275 1.970 . S
Co272 N289 1.989 . S
Co272 O297 1.967 . S
Co272 O304 1.920 . S
Co273 O276 1.966 . S
Co273 N282 2.022 . S
Co273 N290 1.993 . S
Co273 O298 1.941 . S
C274 O275 1.258 . S
C274 O276 1.263 . S
O275 Co272 1.970 . S
O275 C274 1.258 . S
O276 Co273 1.966 . S
O276 C274 1.263 . S
C277 O278 1.235 . S
C277 O304 1.289 . S
O278 C277 1.235 . S
C279 C281 1.400 . S
C279 N282 1.351 . S
C279 C284 1.501 . S
C280 C281 1.387 . S
C280 N283 1.341 . S
C281 C279 1.400 . S
C281 C280 1.387 . S
N282 Co273 2.022 . S
N282 C279 1.351 . S
N282 N283 1.365 . S
N283 C280 1.341 . S
N283 N282 1.365 . S
N283 H303 0.862 . S
C284 C279 1.501 . S
C284 H285 0.961 . S
C284 H286 0.961 . S
C284 H287 0.960 . S
H285 C284 0.961 . S
H286 C284 0.961 . S
H287 C284 0.960 . S
C288 N289 1.342 . S
C288 C292 1.401 . S
C288 C293 1.499 . S
N289 Co272 1.989 . S
N289 C288 1.342 . S
N289 N290 1.388 . S
N290 Co273 1.993 . S
N290 N289 1.388 . S
N290 C291 1.346 . S
C291 N290 1.346 . S
C291 C292 1.396 . S
C291 C301 1.510 . S
C292 C288 1.401 . S
C292 C291 1.396 . S
C293 C288 1.499 . S
C293 H294 0.959 . S
C293 H295 0.960 . S
C293 H296 0.961 . S
H294 C293 0.959 . S
H295 C293 0.960 . S
H296 C293 0.961 . S
O297 Co272 1.967 . S
O297 C305 1.258 . S
O298 Co273 1.941 . S
O298 C305 1.266 . S
H299 C301 0.959 . S
H300 C301 0.961 . S
C301 C291 1.510 . S
C301 H299 0.959 . S
C301 H300 0.961 . S
C301 H302 0.960 . S
H302 C301 0.960 . S
H303 N283 0.862 . S
O304 Co272 1.920 . S
O304 C277 1.289 . S
C305 O297 1.258 . S
C305 O298 1.266 . S
Co306 O309 1.970 . S
Co306 N323 1.989 . S
Co306 O331 1.967 . S
Co306 O338 1.920 . S
Co307 O310 1.966 . S
Co307 N316 2.022 . S
Co307 N324 1.993 . S
Co307 O332 1.941 . S
C308 O309 1.258 . S
C308 O310 1.263 . S
O309 Co306 1.970 . S
O309 C308 1.258 . S
O310 Co307 1.966 . S
O310 C308 1.263 . S
C311 O312 1.235 . S
C311 O338 1.289 . S
O312 C311 1.235 . S
C313 C315 1.400 . S
C313 N316 1.351 . S
C313 C318 1.501 . S
C314 C315 1.387 . S
C314 N317 1.341 . S
C315 C313 1.400 . S
C315 C314 1.387 . S
N316 Co307 2.022 . S
N316 C313 1.351 . S
N316 N317 1.365 . S
N317 C314 1.341 . S
N317 N316 1.365 . S
N317 H337 0.862 . S
C318 C313 1.501 . S
C318 H319 0.961 . S
C318 H320 0.961 . S
C318 H321 0.960 . S
H319 C318 0.961 . S
H320 C318 0.961 . S
H321 C318 0.960 . S
C322 N323 1.342 . S
C322 C326 1.401 . S
C322 C327 1.499 . S
N323 Co306 1.989 . S
N323 C322 1.342 . S
N323 N324 1.388 . S
N324 Co307 1.993 . S
N324 N323 1.388 . S
N324 C325 1.346 . S
C325 N324 1.346 . S
C325 C326 1.396 . S
C325 C335 1.510 . S
C326 C322 1.401 . S
C326 C325 1.396 . S
C327 C322 1.499 . S
C327 H328 0.959 . S
C327 H329 0.960 . S
C327 H330 0.961 . S
H328 C327 0.959 . S
H329 C327 0.960 . S
H330 C327 0.961 . S
O331 Co306 1.967 . S
O331 C339 1.258 . S
O332 Co307 1.941 . S
O332 C339 1.266 . S
H333 C335 0.959 . S
H334 C335 0.961 . S
C335 C325 1.510 . S
C335 H333 0.959 . S
C335 H334 0.961 . S
C335 H336 0.960 . S
H336 C335 0.960 . S
H337 N317 0.862 . S
O338 Co306 1.920 . S
O338 C311 1.289 . S
C339 O331 1.258 . S
C339 O332 1.266 . S
Co340 O343 1.970 . S
Co340 N357 1.989 . S
Co340 O365 1.967 . S
Co340 O372 1.920 . S
Co341 O344 1.966 . S
Co341 N350 2.022 . S
Co341 N358 1.993 . S
Co341 O366 1.941 . S
C342 O343 1.258 . S
C342 O344 1.263 . S
O343 Co340 1.970 . S
O343 C342 1.258 . S
O344 Co341 1.966 . S
O344 C342 1.263 . S
C345 O346 1.235 . S
C345 O372 1.289 . S
O346 C345 1.235 . S
C347 C349 1.400 . S
C347 N350 1.351 . S
C347 C352 1.501 . S
C348 C349 1.387 . S
C348 N351 1.341 . S
C349 C347 1.400 . S
C349 C348 1.387 . S
N350 Co341 2.022 . S
N350 C347 1.351 . S
N350 N351 1.365 . S
N351 C348 1.341 . S
N351 N350 1.365 . S
N351 H371 0.862 . S
C352 C347 1.501 . S
C352 H353 0.961 . S
C352 H354 0.961 . S
C352 H355 0.960 . S
H353 C352 0.961 . S
H354 C352 0.961 . S
H355 C352 0.960 . S
C356 N357 1.342 . S
C356 C360 1.401 . S
C356 C361 1.499 . S
N357 Co340 1.989 . S
N357 C356 1.342 . S
N357 N358 1.388 . S
N358 Co341 1.993 . S
N358 N357 1.388 . S
N358 C359 1.346 . S
C359 N358 1.346 . S
C359 C360 1.396 . S
C359 C369 1.510 . S
C360 C356 1.401 . S
C360 C359 1.396 . S
C361 C356 1.499 . S
C361 H362 0.959 . S
C361 H363 0.960 . S
C361 H364 0.961 . S
H362 C361 0.959 . S
H363 C361 0.960 . S
H364 C361 0.961 . S
O365 Co340 1.967 . S
O365 C373 1.258 . S
O366 Co341 1.941 . S
O366 C373 1.266 . S
H367 C369 0.959 . S
H368 C369 0.961 . S
C369 C359 1.510 . S
C369 H367 0.959 . S
C369 H368 0.961 . S
C369 H370 0.960 . S
H370 C369 0.960 . S
H371 N351 0.862 . S
O372 Co340 1.920 . S
O372 C345 1.289 . S
C373 O365 1.258 . S
C373 O366 1.266 . S
Co374 O377 1.970 . S
Co374 N391 1.989 . S
Co374 O399 1.967 . S
Co374 O406 1.920 . S
Co375 O378 1.966 . S
Co375 N384 2.022 . S
Co375 N392 1.993 . S
Co375 O400 1.941 . S
C376 O377 1.258 . S
C376 O378 1.263 . S
O377 Co374 1.970 . S
O377 C376 1.258 . S
O378 Co375 1.966 . S
O378 C376 1.263 . S
C379 O380 1.235 . S
C379 O406 1.289 . S
O380 C379 1.235 . S
C381 C383 1.400 . S
C381 N384 1.351 . S
C381 C386 1.501 . S
C382 C383 1.387 . S
C382 N385 1.341 . S
C383 C381 1.400 . S
C383 C382 1.387 . S
N384 Co375 2.022 . S
N384 C381 1.351 . S
N384 N385 1.365 . S
N385 C382 1.341 . S
N385 N384 1.365 . S
N385 H405 0.862 . S
C386 C381 1.501 . S
C386 H387 0.961 . S
C386 H388 0.961 . S
C386 H389 0.960 . S
H387 C386 0.961 . S
H388 C386 0.961 . S
H389 C386 0.960 . S
C390 N391 1.342 . S
C390 C394 1.401 . S
C390 C395 1.499 . S
N391 Co374 1.989 . S
N391 C390 1.342 . S
N391 N392 1.388 . S
N392 Co375 1.993 . S
N392 N391 1.388 . S
N392 C393 1.346 . S
C393 N392 1.346 . S
C393 C394 1.396 . S
C393 C403 1.510 . S
C394 C390 1.401 . S
C394 C393 1.396 . S
C395 C390 1.499 . S
C395 H396 0.959 . S
C395 H397 0.960 . S
C395 H398 0.961 . S
H396 C395 0.959 . S
H397 C395 0.960 . S
H398 C395 0.961 . S
O399 Co374 1.967 . S
O399 C407 1.258 . S
O400 Co375 1.941 . S
O400 C407 1.266 . S
H401 C403 0.959 . S
H402 C403 0.961 . S
C403 C393 1.510 . S
C403 H401 0.959 . S
C403 H402 0.961 . S
C403 H404 0.960 . S
H404 C403 0.960 . S
H405 N385 0.862 . S
O406 Co374 1.920 . S
O406 C379 1.289 . S
C407 O399 1.258 . S
C407 O400 1.266 . S
Co408 O411 1.970 . S
Co408 N425 1.989 . S
Co408 O433 1.967 . S
Co408 O440 1.920 . S
Co409 O412 1.966 . S
Co409 N418 2.022 . S
Co409 N426 1.993 . S
Co409 O434 1.941 . S
C410 O411 1.258 . S
C410 O412 1.263 . S
O411 Co408 1.970 . S
O411 C410 1.258 . S
O412 Co409 1.966 . S
O412 C410 1.263 . S
C413 O414 1.235 . S
C413 O440 1.289 . S
O414 C413 1.235 . S
C415 C417 1.400 . S
C415 N418 1.351 . S
C415 C420 1.501 . S
C416 C417 1.387 . S
C416 N419 1.341 . S
C417 C415 1.400 . S
C417 C416 1.387 . S
N418 Co409 2.022 . S
N418 C415 1.351 . S
N418 N419 1.365 . S
N419 C416 1.341 . S
N419 N418 1.365 . S
N419 H439 0.862 . S
C420 C415 1.501 . S
C420 H421 0.961 . S
C420 H422 0.961 . S
C420 H423 0.960 . S
H421 C420 0.961 . S
H422 C420 0.961 . S
H423 C420 0.960 . S
C424 N425 1.342 . S
C424 C428 1.401 . S
C424 C429 1.499 . S
N425 Co408 1.989 . S
N425 C424 1.342 . S
N425 N426 1.388 . S
N426 Co409 1.993 . S
N426 N425 1.388 . S
N426 C427 1.346 . S
C427 N426 1.346 . S
C427 C428 1.396 . S
C427 C437 1.510 . S
C428 C424 1.401 . S
C428 C427 1.396 . S
C429 C424 1.499 . S
C429 H430 0.959 . S
C429 H431 0.960 . S
C429 H432 0.961 . S
H430 C429 0.959 . S
H431 C429 0.960 . S
H432 C429 0.961 . S
O433 Co408 1.967 . S
O433 C441 1.258 . S
O434 Co409 1.941 . S
O434 C441 1.266 . S
H435 C437 0.959 . S
H436 C437 0.961 . S
C437 C427 1.510 . S
C437 H435 0.959 . S
C437 H436 0.961 . S
C437 H438 0.960 . S
H438 C437 0.960 . S
H439 N419 0.862 . S
O440 Co408 1.920 . S
O440 C413 1.289 . S
C441 O433 1.258 . S
C441 O434 1.266 . S
Co442 O445 1.970 . S
Co442 N459 1.989 . S
Co442 O467 1.967 . S
Co442 O474 1.920 . S
Co443 O446 1.966 . S
Co443 N452 2.022 . S
Co443 N460 1.993 . S
Co443 O468 1.941 . S
C444 O445 1.258 . S
C444 O446 1.263 . S
O445 Co442 1.970 . S
O445 C444 1.258 . S
O446 Co443 1.966 . S
O446 C444 1.263 . S
C447 O448 1.235 . S
C447 O474 1.289 . S
O448 C447 1.235 . S
C449 C451 1.400 . S
C449 N452 1.351 . S
C449 C454 1.501 . S
C450 C451 1.387 . S
C450 N453 1.341 . S
C451 C449 1.400 . S
C451 C450 1.387 . S
N452 Co443 2.022 . S
N452 C449 1.351 . S
N452 N453 1.365 . S
N453 C450 1.341 . S
N453 N452 1.365 . S
N453 H473 0.862 . S
C454 C449 1.501 . S
C454 H455 0.961 . S
C454 H456 0.961 . S
C454 H457 0.960 . S
H455 C454 0.961 . S
H456 C454 0.961 . S
H457 C454 0.960 . S
C458 N459 1.342 . S
C458 C462 1.401 . S
C458 C463 1.499 . S
N459 Co442 1.989 . S
N459 C458 1.342 . S
N459 N460 1.388 . S
N460 Co443 1.993 . S
N460 N459 1.388 . S
N460 C461 1.346 . S
C461 N460 1.346 . S
C461 C462 1.396 . S
C461 C471 1.510 . S
C462 C458 1.401 . S
C462 C461 1.396 . S
C463 C458 1.499 . S
C463 H464 0.959 . S
C463 H465 0.960 . S
C463 H466 0.961 . S
H464 C463 0.959 . S
H465 C463 0.960 . S
H466 C463 0.961 . S
O467 Co442 1.967 . S
O467 C475 1.258 . S
O468 Co443 1.941 . S
O468 C475 1.266 . S
H469 C471 0.959 . S
H470 C471 0.961 . S
C471 C461 1.510 . S
C471 H469 0.959 . S
C471 H470 0.961 . S
C471 H472 0.960 . S
H472 C471 0.960 . S
H473 N453 0.862 . S
O474 Co442 1.920 . S
O474 C447 1.289 . S
C475 O467 1.258 . S
C475 O468 1.266 . S
Co476 O479 1.970 . S
Co476 N493 1.989 . S
Co476 O501 1.967 . S
Co476 O508 1.920 . S
Co477 O480 1.966 . S
Co477 N486 2.022 . S
Co477 N494 1.993 . S
Co477 O502 1.941 . S
C478 O479 1.258 . S
C478 O480 1.263 . S
O479 Co476 1.970 . S
O479 C478 1.258 . S
O480 Co477 1.966 . S
O480 C478 1.263 . S
C481 O482 1.235 . S
C481 O508 1.289 . S
O482 C481 1.235 . S
C483 C485 1.400 . S
C483 N486 1.351 . S
C483 C488 1.501 . S
C484 C485 1.387 . S
C484 N487 1.341 . S
C485 C483 1.400 . S
C485 C484 1.387 . S
N486 Co477 2.022 . S
N486 C483 1.351 . S
N486 N487 1.365 . S
N487 C484 1.341 . S
N487 N486 1.365 . S
N487 H507 0.862 . S
C488 C483 1.501 . S
C488 H489 0.961 . S
C488 H490 0.961 . S
C488 H491 0.960 . S
H489 C488 0.961 . S
H490 C488 0.961 . S
H491 C488 0.960 . S
C492 N493 1.342 . S
C492 C496 1.401 . S
C492 C497 1.499 . S
N493 Co476 1.989 . S
N493 C492 1.342 . S
N493 N494 1.388 . S
N494 Co477 1.993 . S
N494 N493 1.388 . S
N494 C495 1.346 . S
C495 N494 1.346 . S
C495 C496 1.396 . S
C495 C505 1.510 . S
C496 C492 1.401 . S
C496 C495 1.396 . S
C497 C492 1.499 . S
C497 H498 0.959 . S
C497 H499 0.960 . S
C497 H500 0.961 . S
H498 C497 0.959 . S
H499 C497 0.960 . S
H500 C497 0.961 . S
O501 Co476 1.967 . S
O501 C509 1.258 . S
O502 Co477 1.941 . S
O502 C509 1.266 . S
H503 C505 0.959 . S
H504 C505 0.961 . S
C505 C495 1.510 . S
C505 H503 0.959 . S
C505 H504 0.961 . S
C505 H506 0.960 . S
H506 C505 0.960 . S
H507 N487 0.862 . S
O508 Co476 1.920 . S
O508 C481 1.289 . S
C509 O501 1.258 . S
C509 O502 1.266 . S
Co510 O513 1.970 . S
Co510 N527 1.989 . S
Co510 O535 1.967 . S
Co510 O542 1.920 . S
Co511 O514 1.966 . S
Co511 N520 2.022 . S
Co511 N528 1.993 . S
Co511 O536 1.941 . S
C512 O513 1.258 . S
C512 O514 1.263 . S
O513 Co510 1.970 . S
O513 C512 1.258 . S
O514 Co511 1.966 . S
O514 C512 1.263 . S
C515 O516 1.235 . S
C515 O542 1.289 . S
O516 C515 1.235 . S
C517 C519 1.400 . S
C517 N520 1.351 . S
C517 C522 1.501 . S
C518 C519 1.387 . S
C518 N521 1.341 . S
C519 C517 1.400 . S
C519 C518 1.387 . S
N520 Co511 2.022 . S
N520 C517 1.351 . S
N520 N521 1.365 . S
N521 C518 1.341 . S
N521 N520 1.365 . S
N521 H541 0.862 . S
C522 C517 1.501 . S
C522 H523 0.961 . S
C522 H524 0.961 . S
C522 H525 0.960 . S
H523 C522 0.961 . S
H524 C522 0.961 . S
H525 C522 0.960 . S
C526 N527 1.342 . S
C526 C530 1.401 . S
C526 C531 1.499 . S
N527 Co510 1.989 . S
N527 C526 1.342 . S
N527 N528 1.388 . S
N528 Co511 1.993 . S
N528 N527 1.388 . S
N528 C529 1.346 . S
C529 N528 1.346 . S
C529 C530 1.396 . S
C529 C539 1.510 . S
C530 C526 1.401 . S
C530 C529 1.396 . S
C531 C526 1.499 . S
C531 H532 0.959 . S
C531 H533 0.960 . S
C531 H534 0.961 . S
H532 C531 0.959 . S
H533 C531 0.960 . S
H534 C531 0.961 . S
O535 Co510 1.967 . S
O535 C543 1.258 . S
O536 Co511 1.941 . S
O536 C543 1.266 . S
H537 C539 0.959 . S
H538 C539 0.961 . S
C539 C529 1.510 . S
C539 H537 0.959 . S
C539 H538 0.961 . S
C539 H540 0.960 . S
H540 C539 0.960 . S
H541 N521 0.862 . S
O542 Co510 1.920 . S
O542 C515 1.289 . S
C543 O535 1.258 . S
C543 O536 1.266 . S
Co544 O547 1.970 . S
Co544 N561 1.989 . S
Co544 O569 1.967 . S
Co544 O576 1.920 . S
Co545 O548 1.966 . S
Co545 N554 2.022 . S
Co545 N562 1.993 . S
Co545 O570 1.941 . S
C546 O547 1.258 . S
C546 O548 1.263 . S
O547 Co544 1.970 . S
O547 C546 1.258 . S
O548 Co545 1.966 . S
O548 C546 1.263 . S
C549 O550 1.235 . S
C549 O576 1.289 . S
O550 C549 1.235 . S
C551 C553 1.400 . S
C551 N554 1.351 . S
C551 C556 1.501 . S
C552 C553 1.387 . S
C552 N555 1.341 . S
C553 C551 1.400 . S
C553 C552 1.387 . S
N554 Co545 2.022 . S
N554 C551 1.351 . S
N554 N555 1.365 . S
N555 C552 1.341 . S
N555 N554 1.365 . S
N555 H575 0.862 . S
C556 C551 1.501 . S
C556 H557 0.961 . S
C556 H558 0.961 . S
C556 H559 0.960 . S
H557 C556 0.961 . S
H558 C556 0.961 . S
H559 C556 0.960 . S
C560 N561 1.342 . S
C560 C564 1.401 . S
C560 C565 1.499 . S
N561 Co544 1.989 . S
N561 C560 1.342 . S
N561 N562 1.388 . S
N562 Co545 1.993 . S
N562 N561 1.388 . S
N562 C563 1.346 . S
C563 N562 1.346 . S
C563 C564 1.396 . S
C563 C573 1.510 . S
C564 C560 1.401 . S
C564 C563 1.396 . S
C565 C560 1.499 . S
C565 H566 0.959 . S
C565 H567 0.960 . S
C565 H568 0.961 . S
H566 C565 0.959 . S
H567 C565 0.960 . S
H568 C565 0.961 . S
O569 Co544 1.967 . S
O569 C577 1.258 . S
O570 Co545 1.941 . S
O570 C577 1.266 . S
H571 C573 0.959 . S
H572 C573 0.961 . S
C573 C563 1.510 . S
C573 H571 0.959 . S
C573 H572 0.961 . S
C573 H574 0.960 . S
H574 C573 0.960 . S
H575 N555 0.862 . S
O576 Co544 1.920 . S
O576 C549 1.289 . S
C577 O569 1.258 . S
C577 O570 1.266 . S
Co578 O581 1.970 . S
Co578 N595 1.989 . S
Co578 O603 1.967 . S
Co578 O610 1.920 . S
Co579 O582 1.966 . S
Co579 N588 2.022 . S
Co579 N596 1.993 . S
Co579 O604 1.941 . S
C580 O581 1.258 . S
C580 O582 1.263 . S
O581 Co578 1.970 . S
O581 C580 1.258 . S
O582 Co579 1.966 . S
O582 C580 1.263 . S
C583 O584 1.235 . S
C583 O610 1.289 . S
O584 C583 1.235 . S
C585 C587 1.400 . S
C585 N588 1.351 . S
C585 C590 1.501 . S
C586 C587 1.387 . S
C586 N589 1.341 . S
C587 C585 1.400 . S
C587 C586 1.387 . S
N588 Co579 2.022 . S
N588 C585 1.351 . S
N588 N589 1.365 . S
N589 C586 1.341 . S
N589 N588 1.365 . S
N589 H609 0.862 . S
C590 C585 1.501 . S
C590 H591 0.961 . S
C590 H592 0.961 . S
C590 H593 0.960 . S
H591 C590 0.961 . S
H592 C590 0.961 . S
H593 C590 0.960 . S
C594 N595 1.342 . S
C594 C598 1.401 . S
C594 C599 1.499 . S
N595 Co578 1.989 . S
N595 C594 1.342 . S
N595 N596 1.388 . S
N596 Co579 1.993 . S
N596 N595 1.388 . S
N596 C597 1.346 . S
C597 N596 1.346 . S
C597 C598 1.396 . S
C597 C607 1.510 . S
C598 C594 1.401 . S
C598 C597 1.396 . S
C599 C594 1.499 . S
C599 H600 0.959 . S
C599 H601 0.960 . S
C599 H602 0.961 . S
H600 C599 0.959 . S
H601 C599 0.960 . S
H602 C599 0.961 . S
O603 Co578 1.967 . S
O603 C611 1.258 . S
O604 Co579 1.941 . S
O604 C611 1.266 . S
H605 C607 0.959 . S
H606 C607 0.961 . S
C607 C597 1.510 . S
C607 H605 0.959 . S
C607 H606 0.961 . S
C607 H608 0.960 . S
H608 C607 0.960 . S
H609 N589 0.862 . S
O610 Co578 1.920 . S
O610 C583 1.289 . S
C611 O603 1.258 . S
C611 O604 1.266 . S
Co612 O615 1.970 . S
Co612 N629 1.989 . S
Co612 O637 1.967 . S
Co612 O644 1.920 . S
Co613 O616 1.966 . S
Co613 N622 2.022 . S
Co613 N630 1.993 . S
Co613 O638 1.941 . S
C614 O615 1.258 . S
C614 O616 1.263 . S
O615 Co612 1.970 . S
O615 C614 1.258 . S
O616 Co613 1.966 . S
O616 C614 1.263 . S
C617 O618 1.235 . S
C617 O644 1.289 . S
O618 C617 1.235 . S
C619 C621 1.400 . S
C619 N622 1.351 . S
C619 C624 1.501 . S
C620 C621 1.387 . S
C620 N623 1.341 . S
C621 C619 1.400 . S
C621 C620 1.387 . S
N622 Co613 2.022 . S
N622 C619 1.351 . S
N622 N623 1.365 . S
N623 C620 1.341 . S
N623 N622 1.365 . S
N623 H643 0.862 . S
C624 C619 1.501 . S
C624 H625 0.961 . S
C624 H626 0.961 . S
C624 H627 0.960 . S
H625 C624 0.961 . S
H626 C624 0.961 . S
H627 C624 0.960 . S
C628 N629 1.342 . S
C628 C632 1.401 . S
C628 C633 1.499 . S
N629 Co612 1.989 . S
N629 C628 1.342 . S
N629 N630 1.388 . S
N630 Co613 1.993 . S
N630 N629 1.388 . S
N630 C631 1.346 . S
C631 N630 1.346 . S
C631 C632 1.396 . S
C631 C641 1.510 . S
C632 C628 1.401 . S
C632 C631 1.396 . S
C633 C628 1.499 . S
C633 H634 0.959 . S
C633 H635 0.960 . S
C633 H636 0.961 . S
H634 C633 0.959 . S
H635 C633 0.960 . S
H636 C633 0.961 . S
O637 Co612 1.967 . S
O637 C645 1.258 . S
O638 Co613 1.941 . S
O638 C645 1.266 . S
H639 C641 0.959 . S
H640 C641 0.961 . S
C641 C631 1.510 . S
C641 H639 0.959 . S
C641 H640 0.961 . S
C641 H642 0.960 . S
H642 C641 0.960 . S
H643 N623 0.862 . S
O644 Co612 1.920 . S
O644 C617 1.289 . S
C645 O637 1.258 . S
C645 O638 1.266 . S
Co646 O649 1.970 . S
Co646 N663 1.989 . S
Co646 O671 1.967 . S
Co646 O678 1.920 . S
Co647 O650 1.966 . S
Co647 N656 2.022 . S
Co647 N664 1.993 . S
Co647 O672 1.941 . S
C648 O649 1.258 . S
C648 O650 1.263 . S
O649 Co646 1.970 . S
O649 C648 1.258 . S
O650 Co647 1.966 . S
O650 C648 1.263 . S
C651 O652 1.235 . S
C651 O678 1.289 . S
O652 C651 1.235 . S
C653 C655 1.400 . S
C653 N656 1.351 . S
C653 C658 1.501 . S
C654 C655 1.387 . S
C654 N657 1.341 . S
C655 C653 1.400 . S
C655 C654 1.387 . S
N656 Co647 2.022 . S
N656 C653 1.351 . S
N656 N657 1.365 . S
N657 C654 1.341 . S
N657 N656 1.365 . S
N657 H677 0.862 . S
C658 C653 1.501 . S
C658 H659 0.961 . S
C658 H660 0.961 . S
C658 H661 0.960 . S
H659 C658 0.961 . S
H660 C658 0.961 . S
H661 C658 0.960 . S
C662 N663 1.342 . S
C662 C666 1.401 . S
C662 C667 1.499 . S
N663 Co646 1.989 . S
N663 C662 1.342 . S
N663 N664 1.388 . S
N664 Co647 1.993 . S
N664 N663 1.388 . S
N664 C665 1.346 . S
C665 N664 1.346 . S
C665 C666 1.396 . S
C665 C675 1.510 . S
C666 C662 1.401 . S
C666 C665 1.396 . S
C667 C662 1.499 . S
C667 H668 0.959 . S
C667 H669 0.960 . S
C667 H670 0.961 . S
H668 C667 0.959 . S
H669 C667 0.960 . S
H670 C667 0.961 . S
O671 Co646 1.967 . S
O671 C679 1.258 . S
O672 Co647 1.941 . S
O672 C679 1.266 . S
H673 C675 0.959 . S
H674 C675 0.961 . S
C675 C665 1.510 . S
C675 H673 0.959 . S
C675 H674 0.961 . S
C675 H676 0.960 . S
H676 C675 0.960 . S
H677 N657 0.862 . S
O678 Co646 1.920 . S
O678 C651 1.289 . S
C679 O671 1.258 . S
C679 O672 1.266 . S
Co680 O683 1.970 . S
Co680 N697 1.989 . S
Co680 O705 1.967 . S
Co680 O712 1.920 . S
Co681 O684 1.966 . S
Co681 N690 2.022 . S
Co681 N698 1.993 . S
Co681 O706 1.941 . S
C682 O683 1.258 . S
C682 O684 1.263 . S
O683 Co680 1.970 . S
O683 C682 1.258 . S
O684 Co681 1.966 . S
O684 C682 1.263 . S
C685 O686 1.235 . S
C685 O712 1.289 . S
O686 C685 1.235 . S
C687 C689 1.400 . S
C687 N690 1.351 . S
C687 C692 1.501 . S
C688 C689 1.387 . S
C688 N691 1.341 . S
C689 C687 1.400 . S
C689 C688 1.387 . S
N690 Co681 2.022 . S
N690 C687 1.351 . S
N690 N691 1.365 . S
N691 C688 1.341 . S
N691 N690 1.365 . S
N691 H711 0.862 . S
C692 C687 1.501 . S
C692 H693 0.961 . S
C692 H694 0.961 . S
C692 H695 0.960 . S
H693 C692 0.961 . S
H694 C692 0.961 . S
H695 C692 0.960 . S
C696 N697 1.342 . S
C696 C700 1.401 . S
C696 C701 1.499 . S
N697 Co680 1.989 . S
N697 C696 1.342 . S
N697 N698 1.388 . S
N698 Co681 1.993 . S
N698 N697 1.388 . S
N698 C699 1.346 . S
C699 N698 1.346 . S
C699 C700 1.396 . S
C699 C709 1.510 . S
C700 C696 1.401 . S
C700 C699 1.396 . S
C701 C696 1.499 . S
C701 H702 0.959 . S
C701 H703 0.960 . S
C701 H704 0.961 . S
H702 C701 0.959 . S
H703 C701 0.960 . S
H704 C701 0.961 . S
O705 Co680 1.967 . S
O705 C713 1.258 . S
O706 Co681 1.941 . S
O706 C713 1.266 . S
H707 C709 0.959 . S
H708 C709 0.961 . S
C709 C699 1.510 . S
C709 H707 0.959 . S
C709 H708 0.961 . S
C709 H710 0.960 . S
H710 C709 0.960 . S
H711 N691 0.862 . S
O712 Co680 1.920 . S
O712 C685 1.289 . S
C713 O705 1.258 . S
C713 O706 1.266 . S
Co714 O717 1.970 . S
Co714 N731 1.989 . S
Co714 O739 1.967 . S
Co714 O746 1.920 . S
Co715 O718 1.966 . S
Co715 N724 2.022 . S
Co715 N732 1.993 . S
Co715 O740 1.941 . S
C716 O717 1.258 . S
C716 O718 1.263 . S
O717 Co714 1.970 . S
O717 C716 1.258 . S
O718 Co715 1.966 . S
O718 C716 1.263 . S
C719 O720 1.235 . S
C719 O746 1.289 . S
O720 C719 1.235 . S
C721 C723 1.400 . S
C721 N724 1.351 . S
C721 C726 1.501 . S
C722 C723 1.387 . S
C722 N725 1.341 . S
C723 C721 1.400 . S
C723 C722 1.387 . S
N724 Co715 2.022 . S
N724 C721 1.351 . S
N724 N725 1.365 . S
N725 C722 1.341 . S
N725 N724 1.365 . S
N725 H745 0.862 . S
C726 C721 1.501 . S
C726 H727 0.961 . S
C726 H728 0.961 . S
C726 H729 0.960 . S
H727 C726 0.961 . S
H728 C726 0.961 . S
H729 C726 0.960 . S
C730 N731 1.342 . S
C730 C734 1.401 . S
C730 C735 1.499 . S
N731 Co714 1.989 . S
N731 C730 1.342 . S
N731 N732 1.388 . S
N732 Co715 1.993 . S
N732 N731 1.388 . S
N732 C733 1.346 . S
C733 N732 1.346 . S
C733 C734 1.396 . S
C733 C743 1.510 . S
C734 C730 1.401 . S
C734 C733 1.396 . S
C735 C730 1.499 . S
C735 H736 0.959 . S
C735 H737 0.960 . S
C735 H738 0.961 . S
H736 C735 0.959 . S
H737 C735 0.960 . S
H738 C735 0.961 . S
O739 Co714 1.967 . S
O739 C747 1.258 . S
O740 Co715 1.941 . S
O740 C747 1.266 . S
H741 C743 0.959 . S
H742 C743 0.961 . S
C743 C733 1.510 . S
C743 H741 0.959 . S
C743 H742 0.961 . S
C743 H744 0.960 . S
H744 C743 0.960 . S
H745 N725 0.862 . S
O746 Co714 1.920 . S
O746 C719 1.289 . S
C747 O739 1.258 . S
C747 O740 1.266 . S
Co748 O751 1.970 . S
Co748 N765 1.989 . S
Co748 O773 1.967 . S
Co748 O780 1.920 . S
Co749 O752 1.966 . S
Co749 N758 2.022 . S
Co749 N766 1.993 . S
Co749 O774 1.941 . S
C750 O751 1.258 . S
C750 O752 1.263 . S
O751 Co748 1.970 . S
O751 C750 1.258 . S
O752 Co749 1.966 . S
O752 C750 1.263 . S
C753 O754 1.235 . S
C753 O780 1.289 . S
O754 C753 1.235 . S
C755 C757 1.400 . S
C755 N758 1.351 . S
C755 C760 1.501 . S
C756 C757 1.387 . S
C756 N759 1.341 . S
C757 C755 1.400 . S
C757 C756 1.387 . S
N758 Co749 2.022 . S
N758 C755 1.351 . S
N758 N759 1.365 . S
N759 C756 1.341 . S
N759 N758 1.365 . S
N759 H779 0.862 . S
C760 C755 1.501 . S
C760 H761 0.961 . S
C760 H762 0.961 . S
C760 H763 0.960 . S
H761 C760 0.961 . S
H762 C760 0.961 . S
H763 C760 0.960 . S
C764 N765 1.342 . S
C764 C768 1.401 . S
C764 C769 1.499 . S
N765 Co748 1.989 . S
N765 C764 1.342 . S
N765 N766 1.388 . S
N766 Co749 1.993 . S
N766 N765 1.388 . S
N766 C767 1.346 . S
C767 N766 1.346 . S
C767 C768 1.396 . S
C767 C777 1.510 . S
C768 C764 1.401 . S
C768 C767 1.396 . S
C769 C764 1.499 . S
C769 H770 0.959 . S
C769 H771 0.960 . S
C769 H772 0.961 . S
H770 C769 0.959 . S
H771 C769 0.960 . S
H772 C769 0.961 . S
O773 Co748 1.967 . S
O773 C781 1.258 . S
O774 Co749 1.941 . S
O774 C781 1.266 . S
H775 C777 0.959 . S
H776 C777 0.961 . S
C777 C767 1.510 . S
C777 H775 0.959 . S
C777 H776 0.961 . S
C777 H778 0.960 . S
H778 C777 0.960 . S
H779 N759 0.862 . S
O780 Co748 1.920 . S
O780 C753 1.289 . S
C781 O773 1.258 . S
C781 O774 1.266 . S
Co782 O785 1.970 . S
Co782 N799 1.989 . S
Co782 O807 1.967 . S
Co782 O814 1.920 . S
Co783 O786 1.966 . S
Co783 N792 2.022 . S
Co783 N800 1.993 . S
Co783 O808 1.941 . S
C784 O785 1.258 . S
C784 O786 1.263 . S
O785 Co782 1.970 . S
O785 C784 1.258 . S
O786 Co783 1.966 . S
O786 C784 1.263 . S
C787 O788 1.235 . S
C787 O814 1.289 . S
O788 C787 1.235 . S
C789 C791 1.400 . S
C789 N792 1.351 . S
C789 C794 1.501 . S
C790 C791 1.387 . S
C790 N793 1.341 . S
C791 C789 1.400 . S
C791 C790 1.387 . S
N792 Co783 2.022 . S
N792 C789 1.351 . S
N792 N793 1.365 . S
N793 C790 1.341 . S
N793 N792 1.365 . S
N793 H813 0.862 . S
C794 C789 1.501 . S
C794 H795 0.961 . S
C794 H796 0.961 . S
C794 H797 0.960 . S
H795 C794 0.961 . S
H796 C794 0.961 . S
H797 C794 0.960 . S
C798 N799 1.342 . S
C798 C802 1.401 . S
C798 C803 1.499 . S
N799 Co782 1.989 . S
N799 C798 1.342 . S
N799 N800 1.388 . S
N800 Co783 1.993 . S
N800 N799 1.388 . S
N800 C801 1.346 . S
C801 N800 1.346 . S
C801 C802 1.396 . S
C801 C811 1.510 . S
C802 C798 1.401 . S
C802 C801 1.396 . S
C803 C798 1.499 . S
C803 H804 0.959 . S
C803 H805 0.960 . S
C803 H806 0.961 . S
H804 C803 0.959 . S
H805 C803 0.960 . S
H806 C803 0.961 . S
O807 Co782 1.967 . S
O807 C815 1.258 . S
O808 Co783 1.941 . S
O808 C815 1.266 . S
H809 C811 0.959 . S
H810 C811 0.961 . S
C811 C801 1.510 . S
C811 H809 0.959 . S
C811 H810 0.961 . S
C811 H812 0.960 . S
H812 C811 0.960 . S
H813 N793 0.862 . S
O814 Co782 1.920 . S
O814 C787 1.289 . S
C815 O807 1.258 . S
C815 O808 1.266 . S
Co816 O819 1.970 . S
Co816 N833 1.989 . S
Co816 O841 1.967 . S
Co816 O848 1.920 . S
Co817 O820 1.966 . S
Co817 N826 2.022 . S
Co817 N834 1.993 . S
Co817 O842 1.941 . S
C818 O819 1.258 . S
C818 O820 1.263 . S
O819 Co816 1.970 . S
O819 C818 1.258 . S
O820 Co817 1.966 . S
O820 C818 1.263 . S
C821 O822 1.235 . S
C821 O848 1.289 . S
O822 C821 1.235 . S
C823 C825 1.400 . S
C823 N826 1.351 . S
C823 C828 1.501 . S
C824 C825 1.387 . S
C824 N827 1.341 . S
C825 C823 1.400 . S
C825 C824 1.387 . S
N826 Co817 2.022 . S
N826 C823 1.351 . S
N826 N827 1.365 . S
N827 C824 1.341 . S
N827 N826 1.365 . S
N827 H847 0.862 . S
C828 C823 1.501 . S
C828 H829 0.961 . S
C828 H830 0.961 . S
C828 H831 0.960 . S
H829 C828 0.961 . S
H830 C828 0.961 . S
H831 C828 0.960 . S
C832 N833 1.342 . S
C832 C836 1.401 . S
C832 C837 1.499 . S
N833 Co816 1.989 . S
N833 C832 1.342 . S
N833 N834 1.388 . S
N834 Co817 1.993 . S
N834 N833 1.388 . S
N834 C835 1.346 . S
C835 N834 1.346 . S
C835 C836 1.396 . S
C835 C845 1.510 . S
C836 C832 1.401 . S
C836 C835 1.396 . S
C837 C832 1.499 . S
C837 H838 0.959 . S
C837 H839 0.960 . S
C837 H840 0.961 . S
H838 C837 0.959 . S
H839 C837 0.960 . S
H840 C837 0.961 . S
O841 Co816 1.967 . S
O841 C849 1.258 . S
O842 Co817 1.941 . S
O842 C849 1.266 . S
H843 C845 0.959 . S
H844 C845 0.961 . S
C845 C835 1.510 . S
C845 H843 0.959 . S
C845 H844 0.961 . S
C845 H846 0.960 . S
H846 C845 0.960 . S
H847 N827 0.862 . S
O848 Co816 1.920 . S
O848 C821 1.289 . S
C849 O841 1.258 . S
C849 O842 1.266 . S
Co850 O853 1.970 . S
Co850 N867 1.989 . S
Co850 O875 1.967 . S
Co850 O882 1.920 . S
Co851 O854 1.966 . S
Co851 N860 2.022 . S
Co851 N868 1.993 . S
Co851 O876 1.941 . S
C852 O853 1.258 . S
C852 O854 1.263 . S
O853 Co850 1.970 . S
O853 C852 1.258 . S
O854 Co851 1.966 . S
O854 C852 1.263 . S
C855 O856 1.235 . S
C855 O882 1.289 . S
O856 C855 1.235 . S
C857 C859 1.400 . S
C857 N860 1.351 . S
C857 C862 1.501 . S
C858 C859 1.387 . S
C858 N861 1.341 . S
C859 C857 1.400 . S
C859 C858 1.387 . S
N860 Co851 2.022 . S
N860 C857 1.351 . S
N860 N861 1.365 . S
N861 C858 1.341 . S
N861 N860 1.365 . S
N861 H881 0.862 . S
C862 C857 1.501 . S
C862 H863 0.961 . S
C862 H864 0.961 . S
C862 H865 0.960 . S
H863 C862 0.961 . S
H864 C862 0.961 . S
H865 C862 0.960 . S
C866 N867 1.342 . S
C866 C870 1.401 . S
C866 C871 1.499 . S
N867 Co850 1.989 . S
N867 C866 1.342 . S
N867 N868 1.388 . S
N868 Co851 1.993 . S
N868 N867 1.388 . S
N868 C869 1.346 . S
C869 N868 1.346 . S
C869 C870 1.396 . S
C869 C879 1.510 . S
C870 C866 1.401 . S
C870 C869 1.396 . S
C871 C866 1.499 . S
C871 H872 0.959 . S
C871 H873 0.960 . S
C871 H874 0.961 . S
H872 C871 0.959 . S
H873 C871 0.960 . S
H874 C871 0.961 . S
O875 Co850 1.967 . S
O875 C883 1.258 . S
O876 Co851 1.941 . S
O876 C883 1.266 . S
H877 C879 0.959 . S
H878 C879 0.961 . S
C879 C869 1.510 . S
C879 H877 0.959 . S
C879 H878 0.961 . S
C879 H880 0.960 . S
H880 C879 0.960 . S
H881 N861 0.862 . S
O882 Co850 1.920 . S
O882 C855 1.289 . S
C883 O875 1.258 . S
C883 O876 1.266 . S
Co884 O887 1.970 . S
Co884 N901 1.989 . S
Co884 O909 1.967 . S
Co884 O916 1.920 . S
Co885 O888 1.966 . S
Co885 N894 2.022 . S
Co885 N902 1.993 . S
Co885 O910 1.941 . S
C886 O887 1.258 . S
C886 O888 1.263 . S
O887 Co884 1.970 . S
O887 C886 1.258 . S
O888 Co885 1.966 . S
O888 C886 1.263 . S
C889 O890 1.235 . S
C889 O916 1.289 . S
O890 C889 1.235 . S
C891 C893 1.400 . S
C891 N894 1.351 . S
C891 C896 1.501 . S
C892 C893 1.387 . S
C892 N895 1.341 . S
C893 C891 1.400 . S
C893 C892 1.387 . S
N894 Co885 2.022 . S
N894 C891 1.351 . S
N894 N895 1.365 . S
N895 C892 1.341 . S
N895 N894 1.365 . S
N895 H915 0.862 . S
C896 C891 1.501 . S
C896 H897 0.961 . S
C896 H898 0.961 . S
C896 H899 0.960 . S
H897 C896 0.961 . S
H898 C896 0.961 . S
H899 C896 0.960 . S
C900 N901 1.342 . S
C900 C904 1.401 . S
C900 C905 1.499 . S
N901 Co884 1.989 . S
N901 C900 1.342 . S
N901 N902 1.388 . S
N902 Co885 1.993 . S
N902 N901 1.388 . S
N902 C903 1.346 . S
C903 N902 1.346 . S
C903 C904 1.396 . S
C903 C913 1.510 . S
C904 C900 1.401 . S
C904 C903 1.396 . S
C905 C900 1.499 . S
C905 H906 0.959 . S
C905 H907 0.960 . S
C905 H908 0.961 . S
H906 C905 0.959 . S
H907 C905 0.960 . S
H908 C905 0.961 . S
O909 Co884 1.967 . S
O909 C917 1.258 . S
O910 Co885 1.941 . S
O910 C917 1.266 . S
H911 C913 0.959 . S
H912 C913 0.961 . S
C913 C903 1.510 . S
C913 H911 0.959 . S
C913 H912 0.961 . S
C913 H914 0.960 . S
H914 C913 0.960 . S
H915 N895 0.862 . S
O916 Co884 1.920 . S
O916 C889 1.289 . S
C917 O909 1.258 . S
C917 O910 1.266 . S
Co918 O921 1.970 . S
Co918 N935 1.989 . S
Co918 O943 1.967 . S
Co918 O950 1.920 . S
Co919 O922 1.966 . S
Co919 N928 2.022 . S
Co919 N936 1.993 . S
Co919 O944 1.941 . S
C920 O921 1.258 . S
C920 O922 1.263 . S
O921 Co918 1.970 . S
O921 C920 1.258 . S
O922 Co919 1.966 . S
O922 C920 1.263 . S
C923 O924 1.235 . S
C923 O950 1.289 . S
O924 C923 1.235 . S
C925 C927 1.400 . S
C925 N928 1.351 . S
C925 C930 1.501 . S
C926 C927 1.387 . S
C926 N929 1.341 . S
C927 C925 1.400 . S
C927 C926 1.387 . S
N928 Co919 2.022 . S
N928 C925 1.351 . S
N928 N929 1.365 . S
N929 C926 1.341 . S
N929 N928 1.365 . S
N929 H949 0.862 . S
C930 C925 1.501 . S
C930 H931 0.961 . S
C930 H932 0.961 . S
C930 H933 0.960 . S
H931 C930 0.961 . S
H932 C930 0.961 . S
H933 C930 0.960 . S
C934 N935 1.342 . S
C934 C938 1.401 . S
C934 C939 1.499 . S
N935 Co918 1.989 . S
N935 C934 1.342 . S
N935 N936 1.388 . S
N936 Co919 1.993 . S
N936 N935 1.388 . S
N936 C937 1.346 . S
C937 N936 1.346 . S
C937 C938 1.396 . S
C937 C947 1.510 . S
C938 C934 1.401 . S
C938 C937 1.396 . S
C939 C934 1.499 . S
C939 H940 0.959 . S
C939 H941 0.960 . S
C939 H942 0.961 . S
H940 C939 0.959 . S
H941 C939 0.960 . S
H942 C939 0.961 . S
O943 Co918 1.967 . S
O943 C951 1.258 . S
O944 Co919 1.941 . S
O944 C951 1.266 . S
H945 C947 0.959 . S
H946 C947 0.961 . S
C947 C937 1.510 . S
C947 H945 0.959 . S
C947 H946 0.961 . S
C947 H948 0.960 . S
H948 C947 0.960 . S
H949 N929 0.862 . S
O950 Co918 1.920 . S
O950 C923 1.289 . S
C951 O943 1.258 . S
C951 O944 1.266 . S
Co952 O955 1.970 . S
Co952 N969 1.989 . S
Co952 O977 1.967 . S
Co952 O984 1.920 . S
Co953 O956 1.966 . S
Co953 N962 2.022 . S
Co953 N970 1.993 . S
Co953 O978 1.941 . S
C954 O955 1.258 . S
C954 O956 1.263 . S
O955 Co952 1.970 . S
O955 C954 1.258 . S
O956 Co953 1.966 . S
O956 C954 1.263 . S
C957 O958 1.235 . S
C957 O984 1.289 . S
O958 C957 1.235 . S
C959 C961 1.400 . S
C959 N962 1.351 . S
C959 C964 1.501 . S
C960 C961 1.387 . S
C960 N963 1.341 . S
C961 C959 1.400 . S
C961 C960 1.387 . S
N962 Co953 2.022 . S
N962 C959 1.351 . S
N962 N963 1.365 . S
N963 C960 1.341 . S
N963 N962 1.365 . S
N963 H983 0.862 . S
C964 C959 1.501 . S
C964 H965 0.961 . S
C964 H966 0.961 . S
C964 H967 0.960 . S
H965 C964 0.961 . S
H966 C964 0.961 . S
H967 C964 0.960 . S
C968 N969 1.342 . S
C968 C972 1.401 . S
C968 C973 1.499 . S
N969 Co952 1.989 . S
N969 C968 1.342 . S
N969 N970 1.388 . S
N970 Co953 1.993 . S
N970 N969 1.388 . S
N970 C971 1.346 . S
C971 N970 1.346 . S
C971 C972 1.396 . S
C971 C981 1.510 . S
C972 C968 1.401 . S
C972 C971 1.396 . S
C973 C968 1.499 . S
C973 H974 0.959 . S
C973 H975 0.960 . S
C973 H976 0.961 . S
H974 C973 0.959 . S
H975 C973 0.960 . S
H976 C973 0.961 . S
O977 Co952 1.967 . S
O977 C985 1.258 . S
O978 Co953 1.941 . S
O978 C985 1.266 . S
H979 C981 0.959 . S
H980 C981 0.961 . S
C981 C971 1.510 . S
C981 H979 0.959 . S
C981 H980 0.961 . S
C981 H982 0.960 . S
H982 C981 0.960 . S
H983 N963 0.862 . S
O984 Co952 1.920 . S
O984 C957 1.289 . S
C985 O977 1.258 . S
C985 O978 1.266 . S
Co986 O989 1.970 . S
Co986 N1003 1.989 . S
Co986 O1011 1.967 . S
Co986 O1018 1.920 . S
Co987 O990 1.966 . S
Co987 N996 2.022 . S
Co987 N1004 1.993 . S
Co987 O1012 1.941 . S
C988 O989 1.258 . S
C988 O990 1.263 . S
O989 Co986 1.970 . S
O989 C988 1.258 . S
O990 Co987 1.966 . S
O990 C988 1.263 . S
C991 O992 1.235 . S
C991 O1018 1.289 . S
O992 C991 1.235 . S
C993 C995 1.400 . S
C993 N996 1.351 . S
C993 C998 1.501 . S
C994 C995 1.387 . S
C994 N997 1.341 . S
C995 C993 1.400 . S
C995 C994 1.387 . S
N996 Co987 2.022 . S
N996 C993 1.351 . S
N996 N997 1.365 . S
N997 C994 1.341 . S
N997 N996 1.365 . S
N997 H1017 0.862 . S
C998 C993 1.501 . S
C998 H999 0.961 . S
C998 H1000 0.961 . S
C998 H1001 0.960 . S
H999 C998 0.961 . S
H1000 C998 0.961 . S
H1001 C998 0.960 . S
C1002 N1003 1.342 . S
C1002 C1006 1.401 . S
C1002 C1007 1.499 . S
N1003 Co986 1.989 . S
N1003 C1002 1.342 . S
N1003 N1004 1.388 . S
N1004 Co987 1.993 . S
N1004 N1003 1.388 . S
N1004 C1005 1.346 . S
C1005 N1004 1.346 . S
C1005 C1006 1.396 . S
C1005 C1015 1.510 . S
C1006 C1002 1.401 . S
C1006 C1005 1.396 . S
C1007 C1002 1.499 . S
C1007 H1008 0.959 . S
C1007 H1009 0.960 . S
C1007 H1010 0.961 . S
H1008 C1007 0.959 . S
H1009 C1007 0.960 . S
H1010 C1007 0.961 . S
O1011 Co986 1.967 . S
O1011 C1019 1.258 . S
O1012 Co987 1.941 . S
O1012 C1019 1.266 . S
H1013 C1015 0.959 . S
H1014 C1015 0.961 . S
C1015 C1005 1.510 . S
C1015 H1013 0.959 . S
C1015 H1014 0.961 . S
C1015 H1016 0.960 . S
H1016 C1015 0.960 . S
H1017 N997 0.862 . S
O1018 Co986 1.920 . S
O1018 C991 1.289 . S
C1019 O1011 1.258 . S
C1019 O1012 1.266 . S
Co1020 O1023 1.970 . S
Co1020 N1037 1.989 . S
Co1020 O1045 1.967 . S
Co1020 O1052 1.920 . S
Co1021 O1024 1.966 . S
Co1021 N1030 2.022 . S
Co1021 N1038 1.993 . S
Co1021 O1046 1.941 . S
C1022 O1023 1.258 . S
C1022 O1024 1.263 . S
O1023 Co1020 1.970 . S
O1023 C1022 1.258 . S
O1024 Co1021 1.966 . S
O1024 C1022 1.263 . S
C1025 O1026 1.235 . S
C1025 O1052 1.289 . S
O1026 C1025 1.235 . S
C1027 C1029 1.400 . S
C1027 N1030 1.351 . S
C1027 C1032 1.501 . S
C1028 C1029 1.387 . S
C1028 N1031 1.341 . S
C1029 C1027 1.400 . S
C1029 C1028 1.387 . S
N1030 Co1021 2.022 . S
N1030 C1027 1.351 . S
N1030 N1031 1.365 . S
N1031 C1028 1.341 . S
N1031 N1030 1.365 . S
N1031 H1051 0.862 . S
C1032 C1027 1.501 . S
C1032 H1033 0.961 . S
C1032 H1034 0.961 . S
C1032 H1035 0.960 . S
H1033 C1032 0.961 . S
H1034 C1032 0.961 . S
H1035 C1032 0.960 . S
C1036 N1037 1.342 . S
C1036 C1040 1.401 . S
C1036 C1041 1.499 . S
N1037 Co1020 1.989 . S
N1037 C1036 1.342 . S
N1037 N1038 1.388 . S
N1038 Co1021 1.993 . S
N1038 N1037 1.388 . S
N1038 C1039 1.346 . S
C1039 N1038 1.346 . S
C1039 C1040 1.396 . S
C1039 C1049 1.510 . S
C1040 C1036 1.401 . S
C1040 C1039 1.396 . S
C1041 C1036 1.499 . S
C1041 H1042 0.959 . S
C1041 H1043 0.960 . S
C1041 H1044 0.961 . S
H1042 C1041 0.959 . S
H1043 C1041 0.960 . S
H1044 C1041 0.961 . S
O1045 Co1020 1.967 . S
O1045 C1053 1.258 . S
O1046 Co1021 1.941 . S
O1046 C1053 1.266 . S
H1047 C1049 0.959 . S
H1048 C1049 0.961 . S
C1049 C1039 1.510 . S
C1049 H1047 0.959 . S
C1049 H1048 0.961 . S
C1049 H1050 0.960 . S
H1050 C1049 0.960 . S
H1051 N1031 0.862 . S
O1052 Co1020 1.920 . S
O1052 C1025 1.289 . S
C1053 O1045 1.258 . S
C1053 O1046 1.266 . S
Co1054 O1057 1.970 . S
Co1054 N1071 1.989 . S
Co1054 O1079 1.967 . S
Co1054 O1086 1.920 . S
Co1055 O1058 1.966 . S
Co1055 N1064 2.022 . S
Co1055 N1072 1.993 . S
Co1055 O1080 1.941 . S
C1056 O1057 1.258 . S
C1056 O1058 1.263 . S
O1057 Co1054 1.970 . S
O1057 C1056 1.258 . S
O1058 Co1055 1.966 . S
O1058 C1056 1.263 . S
C1059 O1060 1.235 . S
C1059 O1086 1.289 . S
O1060 C1059 1.235 . S
C1061 C1063 1.400 . S
C1061 N1064 1.351 . S
C1061 C1066 1.501 . S
C1062 C1063 1.387 . S
C1062 N1065 1.341 . S
C1063 C1061 1.400 . S
C1063 C1062 1.387 . S
N1064 Co1055 2.022 . S
N1064 C1061 1.351 . S
N1064 N1065 1.365 . S
N1065 C1062 1.341 . S
N1065 N1064 1.365 . S
N1065 H1085 0.862 . S
C1066 C1061 1.501 . S
C1066 H1067 0.961 . S
C1066 H1068 0.961 . S
C1066 H1069 0.960 . S
H1067 C1066 0.961 . S
H1068 C1066 0.961 . S
H1069 C1066 0.960 . S
C1070 N1071 1.342 . S
C1070 C1074 1.401 . S
C1070 C1075 1.499 . S
N1071 Co1054 1.989 . S
N1071 C1070 1.342 . S
N1071 N1072 1.388 . S
N1072 Co1055 1.993 . S
N1072 N1071 1.388 . S
N1072 C1073 1.346 . S
C1073 N1072 1.346 . S
C1073 C1074 1.396 . S
C1073 C1083 1.510 . S
C1074 C1070 1.401 . S
C1074 C1073 1.396 . S
C1075 C1070 1.499 . S
C1075 H1076 0.959 . S
C1075 H1077 0.960 . S
C1075 H1078 0.961 . S
H1076 C1075 0.959 . S
H1077 C1075 0.960 . S
H1078 C1075 0.961 . S
O1079 Co1054 1.967 . S
O1079 C1087 1.258 . S
O1080 Co1055 1.941 . S
O1080 C1087 1.266 . S
H1081 C1083 0.959 . S
H1082 C1083 0.961 . S
C1083 C1073 1.510 . S
C1083 H1081 0.959 . S
C1083 H1082 0.961 . S
C1083 H1084 0.960 . S
H1084 C1083 0.960 . S
H1085 N1065 0.862 . S
O1086 Co1054 1.920 . S
O1086 C1059 1.289 . S
C1087 O1079 1.258 . S
C1087 O1080 1.266 . S
Co1088 O1091 1.970 . S
Co1088 N1105 1.989 . S
Co1088 O1113 1.967 . S
Co1088 O1120 1.920 . S
Co1089 O1092 1.966 . S
Co1089 N1098 2.022 . S
Co1089 N1106 1.993 . S
Co1089 O1114 1.941 . S
C1090 O1091 1.258 . S
C1090 O1092 1.263 . S
O1091 Co1088 1.970 . S
O1091 C1090 1.258 . S
O1092 Co1089 1.966 . S
O1092 C1090 1.263 . S
C1093 O1094 1.235 . S
C1093 O1120 1.289 . S
O1094 C1093 1.235 . S
C1095 C1097 1.400 . S
C1095 N1098 1.351 . S
C1095 C1100 1.501 . S
C1096 C1097 1.387 . S
C1096 N1099 1.341 . S
C1097 C1095 1.400 . S
C1097 C1096 1.387 . S
N1098 Co1089 2.022 . S
N1098 C1095 1.351 . S
N1098 N1099 1.365 . S
N1099 C1096 1.341 . S
N1099 N1098 1.365 . S
N1099 H1119 0.862 . S
C1100 C1095 1.501 . S
C1100 H1101 0.961 . S
C1100 H1102 0.961 . S
C1100 H1103 0.960 . S
H1101 C1100 0.961 . S
H1102 C1100 0.961 . S
H1103 C1100 0.960 . S
C1104 N1105 1.342 . S
C1104 C1108 1.401 . S
C1104 C1109 1.499 . S
N1105 Co1088 1.989 . S
N1105 C1104 1.342 . S
N1105 N1106 1.388 . S
N1106 Co1089 1.993 . S
N1106 N1105 1.388 . S
N1106 C1107 1.346 . S
C1107 N1106 1.346 . S
C1107 C1108 1.396 . S
C1107 C1117 1.510 . S
C1108 C1104 1.401 . S
C1108 C1107 1.396 . S
C1109 C1104 1.499 . S
C1109 H1110 0.959 . S
C1109 H1111 0.960 . S
C1109 H1112 0.961 . S
H1110 C1109 0.959 . S
H1111 C1109 0.960 . S
H1112 C1109 0.961 . S
O1113 Co1088 1.967 . S
O1113 C1121 1.258 . S
O1114 Co1089 1.941 . S
O1114 C1121 1.266 . S
H1115 C1117 0.959 . S
H1116 C1117 0.961 . S
C1117 C1107 1.510 . S
C1117 H1115 0.959 . S
C1117 H1116 0.961 . S
C1117 H1118 0.960 . S
H1118 C1117 0.960 . S
H1119 N1099 0.862 . S
O1120 Co1088 1.920 . S
O1120 C1093 1.289 . S
C1121 O1113 1.258 . S
C1121 O1114 1.266 . S
Co1122 O1125 1.970 . S
Co1122 N1139 1.989 . S
Co1122 O1147 1.967 . S
Co1122 O1154 1.920 . S
Co1123 O1126 1.966 . S
Co1123 N1132 2.022 . S
Co1123 N1140 1.993 . S
Co1123 O1148 1.941 . S
C1124 O1125 1.258 . S
C1124 O1126 1.263 . S
O1125 Co1122 1.970 . S
O1125 C1124 1.258 . S
O1126 Co1123 1.966 . S
O1126 C1124 1.263 . S
C1127 O1128 1.235 . S
C1127 O1154 1.289 . S
O1128 C1127 1.235 . S
C1129 C1131 1.400 . S
C1129 N1132 1.351 . S
C1129 C1134 1.501 . S
C1130 C1131 1.387 . S
C1130 N1133 1.341 . S
C1131 C1129 1.400 . S
C1131 C1130 1.387 . S
N1132 Co1123 2.022 . S
N1132 C1129 1.351 . S
N1132 N1133 1.365 . S
N1133 C1130 1.341 . S
N1133 N1132 1.365 . S
N1133 H1153 0.862 . S
C1134 C1129 1.501 . S
C1134 H1135 0.961 . S
C1134 H1136 0.961 . S
C1134 H1137 0.960 . S
H1135 C1134 0.961 . S
H1136 C1134 0.961 . S
H1137 C1134 0.960 . S
C1138 N1139 1.342 . S
C1138 C1142 1.401 . S
C1138 C1143 1.499 . S
N1139 Co1122 1.989 . S
N1139 C1138 1.342 . S
N1139 N1140 1.388 . S
N1140 Co1123 1.993 . S
N1140 N1139 1.388 . S
N1140 C1141 1.346 . S
C1141 N1140 1.346 . S
C1141 C1142 1.396 . S
C1141 C1151 1.510 . S
C1142 C1138 1.401 . S
C1142 C1141 1.396 . S
C1143 C1138 1.499 . S
C1143 H1144 0.959 . S
C1143 H1145 0.960 . S
C1143 H1146 0.961 . S
H1144 C1143 0.959 . S
H1145 C1143 0.960 . S
H1146 C1143 0.961 . S
O1147 Co1122 1.967 . S
O1147 C1155 1.258 . S
O1148 Co1123 1.941 . S
O1148 C1155 1.266 . S
H1149 C1151 0.959 . S
H1150 C1151 0.961 . S
C1151 C1141 1.510 . S
C1151 H1149 0.959 . S
C1151 H1150 0.961 . S
C1151 H1152 0.960 . S
H1152 C1151 0.960 . S
H1153 N1133 0.862 . S
O1154 Co1122 1.920 . S
O1154 C1127 1.289 . S
C1155 O1147 1.258 . S
C1155 O1148 1.266 . S
Co1156 O1159 1.970 . S
Co1156 N1173 1.989 . S
Co1156 O1181 1.967 . S
Co1156 O1188 1.920 . S
Co1157 O1160 1.966 . S
Co1157 N1166 2.022 . S
Co1157 N1174 1.993 . S
Co1157 O1182 1.941 . S
C1158 O1159 1.258 . S
C1158 O1160 1.263 . S
O1159 Co1156 1.970 . S
O1159 C1158 1.258 . S
O1160 Co1157 1.966 . S
O1160 C1158 1.263 . S
C1161 O1162 1.235 . S
C1161 O1188 1.289 . S
O1162 C1161 1.235 . S
C1163 C1165 1.400 . S
C1163 N1166 1.351 . S
C1163 C1168 1.501 . S
C1164 C1165 1.387 . S
C1164 N1167 1.341 . S
C1165 C1163 1.400 . S
C1165 C1164 1.387 . S
N1166 Co1157 2.022 . S
N1166 C1163 1.351 . S
N1166 N1167 1.365 . S
N1167 C1164 1.341 . S
N1167 N1166 1.365 . S
N1167 H1187 0.862 . S
C1168 C1163 1.501 . S
C1168 H1169 0.961 . S
C1168 H1170 0.961 . S
C1168 H1171 0.960 . S
H1169 C1168 0.961 . S
H1170 C1168 0.961 . S
H1171 C1168 0.960 . S
C1172 N1173 1.342 . S
C1172 C1176 1.401 . S
C1172 C1177 1.499 . S
N1173 Co1156 1.989 . S
N1173 C1172 1.342 . S
N1173 N1174 1.388 . S
N1174 Co1157 1.993 . S
N1174 N1173 1.388 . S
N1174 C1175 1.346 . S
C1175 N1174 1.346 . S
C1175 C1176 1.396 . S
C1175 C1185 1.510 . S
C1176 C1172 1.401 . S
C1176 C1175 1.396 . S
C1177 C1172 1.499 . S
C1177 H1178 0.959 . S
C1177 H1179 0.960 . S
C1177 H1180 0.961 . S
H1178 C1177 0.959 . S
H1179 C1177 0.960 . S
H1180 C1177 0.961 . S
O1181 Co1156 1.967 . S
O1181 C1189 1.258 . S
O1182 Co1157 1.941 . S
O1182 C1189 1.266 . S
H1183 C1185 0.959 . S
H1184 C1185 0.961 . S
C1185 C1175 1.510 . S
C1185 H1183 0.959 . S
C1185 H1184 0.961 . S
C1185 H1186 0.960 . S
H1186 C1185 0.960 . S
H1187 N1167 0.862 . S
O1188 Co1156 1.920 . S
O1188 C1161 1.289 . S
C1189 O1181 1.258 . S
C1189 O1182 1.266 . S
Co1190 O1193 1.970 . S
Co1190 N1207 1.989 . S
Co1190 O1215 1.967 . S
Co1190 O1222 1.920 . S
Co1191 O1194 1.966 . S
Co1191 N1200 2.022 . S
Co1191 N1208 1.993 . S
Co1191 O1216 1.941 . S
C1192 O1193 1.258 . S
C1192 O1194 1.263 . S
O1193 Co1190 1.970 . S
O1193 C1192 1.258 . S
O1194 Co1191 1.966 . S
O1194 C1192 1.263 . S
C1195 O1196 1.235 . S
C1195 O1222 1.289 . S
O1196 C1195 1.235 . S
C1197 C1199 1.400 . S
C1197 N1200 1.351 . S
C1197 C1202 1.501 . S
C1198 C1199 1.387 . S
C1198 N1201 1.341 . S
C1199 C1197 1.400 . S
C1199 C1198 1.387 . S
N1200 Co1191 2.022 . S
N1200 C1197 1.351 . S
N1200 N1201 1.365 . S
N1201 C1198 1.341 . S
N1201 N1200 1.365 . S
N1201 H1221 0.862 . S
C1202 C1197 1.501 . S
C1202 H1203 0.961 . S
C1202 H1204 0.961 . S
C1202 H1205 0.960 . S
H1203 C1202 0.961 . S
H1204 C1202 0.961 . S
H1205 C1202 0.960 . S
C1206 N1207 1.342 . S
C1206 C1210 1.401 . S
C1206 C1211 1.499 . S
N1207 Co1190 1.989 . S
N1207 C1206 1.342 . S
N1207 N1208 1.388 . S
N1208 Co1191 1.993 . S
N1208 N1207 1.388 . S
N1208 C1209 1.346 . S
C1209 N1208 1.346 . S
C1209 C1210 1.396 . S
C1209 C1219 1.510 . S
C1210 C1206 1.401 . S
C1210 C1209 1.396 . S
C1211 C1206 1.499 . S
C1211 H1212 0.959 . S
C1211 H1213 0.960 . S
C1211 H1214 0.961 . S
H1212 C1211 0.959 . S
H1213 C1211 0.960 . S
H1214 C1211 0.961 . S
O1215 Co1190 1.967 . S
O1215 C1223 1.258 . S
O1216 Co1191 1.941 . S
O1216 C1223 1.266 . S
H1217 C1219 0.959 . S
H1218 C1219 0.961 . S
C1219 C1209 1.510 . S
C1219 H1217 0.959 . S
C1219 H1218 0.961 . S
C1219 H1220 0.960 . S
H1220 C1219 0.960 . S
H1221 N1201 0.862 . S
O1222 Co1190 1.920 . S
O1222 C1195 1.289 . S
C1223 O1215 1.258 . S
C1223 O1216 1.266 . S
Co1224 O1227 1.970 . S
Co1224 N1241 1.989 . S
Co1224 O1249 1.967 . S
Co1224 O1256 1.920 . S
Co1225 O1228 1.966 . S
Co1225 N1234 2.022 . S
Co1225 N1242 1.993 . S
Co1225 O1250 1.941 . S
C1226 O1227 1.258 . S
C1226 O1228 1.263 . S
O1227 Co1224 1.970 . S
O1227 C1226 1.258 . S
O1228 Co1225 1.966 . S
O1228 C1226 1.263 . S
C1229 O1230 1.235 . S
C1229 O1256 1.289 . S
O1230 C1229 1.235 . S
C1231 C1233 1.400 . S
C1231 N1234 1.351 . S
C1231 C1236 1.501 . S
C1232 C1233 1.387 . S
C1232 N1235 1.341 . S
C1233 C1231 1.400 . S
C1233 C1232 1.387 . S
N1234 Co1225 2.022 . S
N1234 C1231 1.351 . S
N1234 N1235 1.365 . S
N1235 C1232 1.341 . S
N1235 N1234 1.365 . S
N1235 H1255 0.862 . S
C1236 C1231 1.501 . S
C1236 H1237 0.961 . S
C1236 H1238 0.961 . S
C1236 H1239 0.960 . S
H1237 C1236 0.961 . S
H1238 C1236 0.961 . S
H1239 C1236 0.960 . S
C1240 N1241 1.342 . S
C1240 C1244 1.401 . S
C1240 C1245 1.499 . S
N1241 Co1224 1.989 . S
N1241 C1240 1.342 . S
N1241 N1242 1.388 . S
N1242 Co1225 1.993 . S
N1242 N1241 1.388 . S
N1242 C1243 1.346 . S
C1243 N1242 1.346 . S
C1243 C1244 1.396 . S
C1243 C1253 1.510 . S
C1244 C1240 1.401 . S
C1244 C1243 1.396 . S
C1245 C1240 1.499 . S
C1245 H1246 0.959 . S
C1245 H1247 0.960 . S
C1245 H1248 0.961 . S
H1246 C1245 0.959 . S
H1247 C1245 0.960 . S
H1248 C1245 0.961 . S
O1249 Co1224 1.967 . S
O1249 C1257 1.258 . S
O1250 Co1225 1.941 . S
O1250 C1257 1.266 . S
H1251 C1253 0.959 . S
H1252 C1253 0.961 . S
C1253 C1243 1.510 . S
C1253 H1251 0.959 . S
C1253 H1252 0.961 . S
C1253 H1254 0.960 . S
H1254 C1253 0.960 . S
H1255 N1235 0.862 . S
O1256 Co1224 1.920 . S
O1256 C1229 1.289 . S
C1257 O1249 1.258 . S
C1257 O1250 1.266 . S
Co1258 O1261 1.970 . S
Co1258 N1275 1.989 . S
Co1258 O1283 1.967 . S
Co1258 O1290 1.920 . S
Co1259 O1262 1.966 . S
Co1259 N1268 2.022 . S
Co1259 N1276 1.993 . S
Co1259 O1284 1.941 . S
C1260 O1261 1.258 . S
C1260 O1262 1.263 . S
O1261 Co1258 1.970 . S
O1261 C1260 1.258 . S
O1262 Co1259 1.966 . S
O1262 C1260 1.263 . S
C1263 O1264 1.235 . S
C1263 O1290 1.289 . S
O1264 C1263 1.235 . S
C1265 C1267 1.400 . S
C1265 N1268 1.351 . S
C1265 C1270 1.501 . S
C1266 C1267 1.387 . S
C1266 N1269 1.341 . S
C1267 C1265 1.400 . S
C1267 C1266 1.387 . S
N1268 Co1259 2.022 . S
N1268 C1265 1.351 . S
N1268 N1269 1.365 . S
N1269 C1266 1.341 . S
N1269 N1268 1.365 . S
N1269 H1289 0.862 . S
C1270 C1265 1.501 . S
C1270 H1271 0.961 . S
C1270 H1272 0.961 . S
C1270 H1273 0.960 . S
H1271 C1270 0.961 . S
H1272 C1270 0.961 . S
H1273 C1270 0.960 . S
C1274 N1275 1.342 . S
C1274 C1278 1.401 . S
C1274 C1279 1.499 . S
N1275 Co1258 1.989 . S
N1275 C1274 1.342 . S
N1275 N1276 1.388 . S
N1276 Co1259 1.993 . S
N1276 N1275 1.388 . S
N1276 C1277 1.346 . S
C1277 N1276 1.346 . S
C1277 C1278 1.396 . S
C1277 C1287 1.510 . S
C1278 C1274 1.401 . S
C1278 C1277 1.396 . S
C1279 C1274 1.499 . S
C1279 H1280 0.959 . S
C1279 H1281 0.960 . S
C1279 H1282 0.961 . S
H1280 C1279 0.959 . S
H1281 C1279 0.960 . S
H1282 C1279 0.961 . S
O1283 Co1258 1.967 . S
O1283 C1291 1.258 . S
O1284 Co1259 1.941 . S
O1284 C1291 1.266 . S
H1285 C1287 0.959 . S
H1286 C1287 0.961 . S
C1287 C1277 1.510 . S
C1287 H1285 0.959 . S
C1287 H1286 0.961 . S
C1287 H1288 0.960 . S
H1288 C1287 0.960 . S
H1289 N1269 0.862 . S
O1290 Co1258 1.920 . S
O1290 C1263 1.289 . S
C1291 O1283 1.258 . S
C1291 O1284 1.266 . S
Co1292 O1295 1.970 . S
Co1292 N1309 1.989 . S
Co1292 O1317 1.967 . S
Co1292 O1324 1.920 . S
Co1293 O1296 1.966 . S
Co1293 N1302 2.022 . S
Co1293 N1310 1.993 . S
Co1293 O1318 1.941 . S
C1294 O1295 1.258 . S
C1294 O1296 1.263 . S
O1295 Co1292 1.970 . S
O1295 C1294 1.258 . S
O1296 Co1293 1.966 . S
O1296 C1294 1.263 . S
C1297 O1298 1.235 . S
C1297 O1324 1.289 . S
O1298 C1297 1.235 . S
C1299 C1301 1.400 . S
C1299 N1302 1.351 . S
C1299 C1304 1.501 . S
C1300 C1301 1.387 . S
C1300 N1303 1.341 . S
C1301 C1299 1.400 . S
C1301 C1300 1.387 . S
N1302 Co1293 2.022 . S
N1302 C1299 1.351 . S
N1302 N1303 1.365 . S
N1303 C1300 1.341 . S
N1303 N1302 1.365 . S
N1303 H1323 0.862 . S
C1304 C1299 1.501 . S
C1304 H1305 0.961 . S
C1304 H1306 0.961 . S
C1304 H1307 0.960 . S
H1305 C1304 0.961 . S
H1306 C1304 0.961 . S
H1307 C1304 0.960 . S
C1308 N1309 1.342 . S
C1308 C1312 1.401 . S
C1308 C1313 1.499 . S
N1309 Co1292 1.989 . S
N1309 C1308 1.342 . S
N1309 N1310 1.388 . S
N1310 Co1293 1.993 . S
N1310 N1309 1.388 . S
N1310 C1311 1.346 . S
C1311 N1310 1.346 . S
C1311 C1312 1.396 . S
C1311 C1321 1.510 . S
C1312 C1308 1.401 . S
C1312 C1311 1.396 . S
C1313 C1308 1.499 . S
C1313 H1314 0.959 . S
C1313 H1315 0.960 . S
C1313 H1316 0.961 . S
H1314 C1313 0.959 . S
H1315 C1313 0.960 . S
H1316 C1313 0.961 . S
O1317 Co1292 1.967 . S
O1317 C1325 1.258 . S
O1318 Co1293 1.941 . S
O1318 C1325 1.266 . S
H1319 C1321 0.959 . S
H1320 C1321 0.961 . S
C1321 C1311 1.510 . S
C1321 H1319 0.959 . S
C1321 H1320 0.961 . S
C1321 H1322 0.960 . S
H1322 C1321 0.960 . S
H1323 N1303 0.862 . S
O1324 Co1292 1.920 . S
O1324 C1297 1.289 . S
C1325 O1317 1.258 . S
C1325 O1318 1.266 . S
Co1326 O1329 1.970 . S
Co1326 N1343 1.989 . S
Co1326 O1351 1.967 . S
Co1326 O1358 1.920 . S
Co1327 O1330 1.966 . S
Co1327 N1336 2.022 . S
Co1327 N1344 1.993 . S
Co1327 O1352 1.941 . S
C1328 O1329 1.258 . S
C1328 O1330 1.263 . S
O1329 Co1326 1.970 . S
O1329 C1328 1.258 . S
O1330 Co1327 1.966 . S
O1330 C1328 1.263 . S
C1331 O1332 1.235 . S
C1331 O1358 1.289 . S
O1332 C1331 1.235 . S
C1333 C1335 1.400 . S
C1333 N1336 1.351 . S
C1333 C1338 1.501 . S
C1334 C1335 1.387 . S
C1334 N1337 1.341 . S
C1335 C1333 1.400 . S
C1335 C1334 1.387 . S
N1336 Co1327 2.022 . S
N1336 C1333 1.351 . S
N1336 N1337 1.365 . S
N1337 C1334 1.341 . S
N1337 N1336 1.365 . S
N1337 H1357 0.862 . S
C1338 C1333 1.501 . S
C1338 H1339 0.961 . S
C1338 H1340 0.961 . S
C1338 H1341 0.960 . S
H1339 C1338 0.961 . S
H1340 C1338 0.961 . S
H1341 C1338 0.960 . S
C1342 N1343 1.342 . S
C1342 C1346 1.401 . S
C1342 C1347 1.499 . S
N1343 Co1326 1.989 . S
N1343 C1342 1.342 . S
N1343 N1344 1.388 . S
N1344 Co1327 1.993 . S
N1344 N1343 1.388 . S
N1344 C1345 1.346 . S
C1345 N1344 1.346 . S
C1345 C1346 1.396 . S
C1345 C1355 1.510 . S
C1346 C1342 1.401 . S
C1346 C1345 1.396 . S
C1347 C1342 1.499 . S
C1347 H1348 0.959 . S
C1347 H1349 0.960 . S
C1347 H1350 0.961 . S
H1348 C1347 0.959 . S
H1349 C1347 0.960 . S
H1350 C1347 0.961 . S
O1351 Co1326 1.967 . S
O1351 C1359 1.258 . S
O1352 Co1327 1.941 . S
O1352 C1359 1.266 . S
H1353 C1355 0.959 . S
H1354 C1355 0.961 . S
C1355 C1345 1.510 . S
C1355 H1353 0.959 . S
C1355 H1354 0.961 . S
C1355 H1356 0.960 . S
H1356 C1355 0.960 . S
H1357 N1337 0.862 . S
O1358 Co1326 1.920 . S
O1358 C1331 1.289 . S
C1359 O1351 1.258 . S
C1359 O1352 1.266 . S
Co1360 O1363 1.970 . S
Co1360 N1377 1.989 . S
Co1360 O1385 1.967 . S
Co1360 O1392 1.920 . S
Co1361 O1364 1.966 . S
Co1361 N1370 2.022 . S
Co1361 N1378 1.993 . S
Co1361 O1386 1.941 . S
C1362 O1363 1.258 . S
C1362 O1364 1.263 . S
O1363 Co1360 1.970 . S
O1363 C1362 1.258 . S
O1364 Co1361 1.966 . S
O1364 C1362 1.263 . S
C1365 O1366 1.235 . S
C1365 O1392 1.289 . S
O1366 C1365 1.235 . S
C1367 C1369 1.400 . S
C1367 N1370 1.351 . S
C1367 C1372 1.501 . S
C1368 C1369 1.387 . S
C1368 N1371 1.341 . S
C1369 C1367 1.400 . S
C1369 C1368 1.387 . S
N1370 Co1361 2.022 . S
N1370 C1367 1.351 . S
N1370 N1371 1.365 . S
N1371 C1368 1.341 . S
N1371 N1370 1.365 . S
N1371 H1391 0.862 . S
C1372 C1367 1.501 . S
C1372 H1373 0.961 . S
C1372 H1374 0.961 . S
C1372 H1375 0.960 . S
H1373 C1372 0.961 . S
H1374 C1372 0.961 . S
H1375 C1372 0.960 . S
C1376 N1377 1.342 . S
C1376 C1380 1.401 . S
C1376 C1381 1.499 . S
N1377 Co1360 1.989 . S
N1377 C1376 1.342 . S
N1377 N1378 1.388 . S
N1378 Co1361 1.993 . S
N1378 N1377 1.388 . S
N1378 C1379 1.346 . S
C1379 N1378 1.346 . S
C1379 C1380 1.396 . S
C1379 C1389 1.510 . S
C1380 C1376 1.401 . S
C1380 C1379 1.396 . S
C1381 C1376 1.499 . S
C1381 H1382 0.959 . S
C1381 H1383 0.960 . S
C1381 H1384 0.961 . S
H1382 C1381 0.959 . S
H1383 C1381 0.960 . S
H1384 C1381 0.961 . S
O1385 Co1360 1.967 . S
O1385 C1393 1.258 . S
O1386 Co1361 1.941 . S
O1386 C1393 1.266 . S
H1387 C1389 0.959 . S
H1388 C1389 0.961 . S
C1389 C1379 1.510 . S
C1389 H1387 0.959 . S
C1389 H1388 0.961 . S
C1389 H1390 0.960 . S
H1390 C1389 0.960 . S
H1391 N1371 0.862 . S
O1392 Co1360 1.920 . S
O1392 C1365 1.289 . S
C1393 O1385 1.258 . S
C1393 O1386 1.266 . S
Co1394 O1397 1.970 . S
Co1394 N1411 1.989 . S
Co1394 O1419 1.967 . S
Co1394 O1426 1.920 . S
Co1395 O1398 1.966 . S
Co1395 N1404 2.022 . S
Co1395 N1412 1.993 . S
Co1395 O1420 1.941 . S
C1396 O1397 1.258 . S
C1396 O1398 1.263 . S
O1397 Co1394 1.970 . S
O1397 C1396 1.258 . S
O1398 Co1395 1.966 . S
O1398 C1396 1.263 . S
C1399 O1400 1.235 . S
C1399 O1426 1.289 . S
O1400 C1399 1.235 . S
C1401 C1403 1.400 . S
C1401 N1404 1.351 . S
C1401 C1406 1.501 . S
C1402 C1403 1.387 . S
C1402 N1405 1.341 . S
C1403 C1401 1.400 . S
C1403 C1402 1.387 . S
N1404 Co1395 2.022 . S
N1404 C1401 1.351 . S
N1404 N1405 1.365 . S
N1405 C1402 1.341 . S
N1405 N1404 1.365 . S
N1405 H1425 0.862 . S
C1406 C1401 1.501 . S
C1406 H1407 0.961 . S
C1406 H1408 0.961 . S
C1406 H1409 0.960 . S
H1407 C1406 0.961 . S
H1408 C1406 0.961 . S
H1409 C1406 0.960 . S
C1410 N1411 1.342 . S
C1410 C1414 1.401 . S
C1410 C1415 1.499 . S
N1411 Co1394 1.989 . S
N1411 C1410 1.342 . S
N1411 N1412 1.388 . S
N1412 Co1395 1.993 . S
N1412 N1411 1.388 . S
N1412 C1413 1.346 . S
C1413 N1412 1.346 . S
C1413 C1414 1.396 . S
C1413 C1423 1.510 . S
C1414 C1410 1.401 . S
C1414 C1413 1.396 . S
C1415 C1410 1.499 . S
C1415 H1416 0.959 . S
C1415 H1417 0.960 . S
C1415 H1418 0.961 . S
H1416 C1415 0.959 . S
H1417 C1415 0.960 . S
H1418 C1415 0.961 . S
O1419 Co1394 1.967 . S
O1419 C1427 1.258 . S
O1420 Co1395 1.941 . S
O1420 C1427 1.266 . S
H1421 C1423 0.959 . S
H1422 C1423 0.961 . S
C1423 C1413 1.510 . S
C1423 H1421 0.959 . S
C1423 H1422 0.961 . S
C1423 H1424 0.960 . S
H1424 C1423 0.960 . S
H1425 N1405 0.862 . S
O1426 Co1394 1.920 . S
O1426 C1399 1.289 . S
C1427 O1419 1.258 . S
C1427 O1420 1.266 . S
Co1428 O1431 1.970 . S
Co1428 N1445 1.989 . S
Co1428 O1453 1.967 . S
Co1428 O1460 1.920 . S
Co1429 O1432 1.966 . S
Co1429 N1438 2.022 . S
Co1429 N1446 1.993 . S
Co1429 O1454 1.941 . S
C1430 O1431 1.258 . S
C1430 O1432 1.263 . S
O1431 Co1428 1.970 . S
O1431 C1430 1.258 . S
O1432 Co1429 1.966 . S
O1432 C1430 1.263 . S
C1433 O1434 1.235 . S
C1433 O1460 1.289 . S
O1434 C1433 1.235 . S
C1435 C1437 1.400 . S
C1435 N1438 1.351 . S
C1435 C1440 1.501 . S
C1436 C1437 1.387 . S
C1436 N1439 1.341 . S
C1437 C1435 1.400 . S
C1437 C1436 1.387 . S
N1438 Co1429 2.022 . S
N1438 C1435 1.351 . S
N1438 N1439 1.365 . S
N1439 C1436 1.341 . S
N1439 N1438 1.365 . S
N1439 H1459 0.862 . S
C1440 C1435 1.501 . S
C1440 H1441 0.961 . S
C1440 H1442 0.961 . S
C1440 H1443 0.960 . S
H1441 C1440 0.961 . S
H1442 C1440 0.961 . S
H1443 C1440 0.960 . S
C1444 N1445 1.342 . S
C1444 C1448 1.401 . S
C1444 C1449 1.499 . S
N1445 Co1428 1.989 . S
N1445 C1444 1.342 . S
N1445 N1446 1.388 . S
N1446 Co1429 1.993 . S
N1446 N1445 1.388 . S
N1446 C1447 1.346 . S
C1447 N1446 1.346 . S
C1447 C1448 1.396 . S
C1447 C1457 1.510 . S
C1448 C1444 1.401 . S
C1448 C1447 1.396 . S
C1449 C1444 1.499 . S
C1449 H1450 0.959 . S
C1449 H1451 0.960 . S
C1449 H1452 0.961 . S
H1450 C1449 0.959 . S
H1451 C1449 0.960 . S
H1452 C1449 0.961 . S
O1453 Co1428 1.967 . S
O1453 C1461 1.258 . S
O1454 Co1429 1.941 . S
O1454 C1461 1.266 . S
H1455 C1457 0.959 . S
H1456 C1457 0.961 . S
C1457 C1447 1.510 . S
C1457 H1455 0.959 . S
C1457 H1456 0.961 . S
C1457 H1458 0.960 . S
H1458 C1457 0.960 . S
H1459 N1439 0.862 . S
O1460 Co1428 1.920 . S
O1460 C1433 1.289 . S
C1461 O1453 1.258 . S
C1461 O1454 1.266 . S
Co1462 O1465 1.970 . S
Co1462 N1479 1.989 . S
Co1462 O1487 1.967 . S
Co1462 O1494 1.920 . S
Co1463 O1466 1.966 . S
Co1463 N1472 2.022 . S
Co1463 N1480 1.993 . S
Co1463 O1488 1.941 . S
C1464 O1465 1.258 . S
C1464 O1466 1.263 . S
O1465 Co1462 1.970 . S
O1465 C1464 1.258 . S
O1466 Co1463 1.966 . S
O1466 C1464 1.263 . S
C1467 O1468 1.235 . S
C1467 O1494 1.289 . S
O1468 C1467 1.235 . S
C1469 C1471 1.400 . S
C1469 N1472 1.351 . S
C1469 C1474 1.501 . S
C1470 C1471 1.387 . S
C1470 N1473 1.341 . S
C1471 C1469 1.400 . S
C1471 C1470 1.387 . S
N1472 Co1463 2.022 . S
N1472 C1469 1.351 . S
N1472 N1473 1.365 . S
N1473 C1470 1.341 . S
N1473 N1472 1.365 . S
N1473 H1493 0.862 . S
C1474 C1469 1.501 . S
C1474 H1475 0.961 . S
C1474 H1476 0.961 . S
C1474 H1477 0.960 . S
H1475 C1474 0.961 . S
H1476 C1474 0.961 . S
H1477 C1474 0.960 . S
C1478 N1479 1.342 . S
C1478 C1482 1.401 . S
C1478 C1483 1.499 . S
N1479 Co1462 1.989 . S
N1479 C1478 1.342 . S
N1479 N1480 1.388 . S
N1480 Co1463 1.993 . S
N1480 N1479 1.388 . S
N1480 C1481 1.346 . S
C1481 N1480 1.346 . S
C1481 C1482 1.396 . S
C1481 C1491 1.510 . S
C1482 C1478 1.401 . S
C1482 C1481 1.396 . S
C1483 C1478 1.499 . S
C1483 H1484 0.959 . S
C1483 H1485 0.960 . S
C1483 H1486 0.961 . S
H1484 C1483 0.959 . S
H1485 C1483 0.960 . S
H1486 C1483 0.961 . S
O1487 Co1462 1.967 . S
O1487 C1495 1.258 . S
O1488 Co1463 1.941 . S
O1488 C1495 1.266 . S
H1489 C1491 0.959 . S
H1490 C1491 0.961 . S
C1491 C1481 1.510 . S
C1491 H1489 0.959 . S
C1491 H1490 0.961 . S
C1491 H1492 0.960 . S
H1492 C1491 0.960 . S
H1493 N1473 0.862 . S
O1494 Co1462 1.920 . S
O1494 C1467 1.289 . S
C1495 O1487 1.258 . S
C1495 O1488 1.266 . S
Co1496 O1499 1.970 . S
Co1496 N1513 1.989 . S
Co1496 O1521 1.967 . S
Co1496 O1528 1.920 . S
Co1497 O1500 1.966 . S
Co1497 N1506 2.022 . S
Co1497 N1514 1.993 . S
Co1497 O1522 1.941 . S
C1498 O1499 1.258 . S
C1498 O1500 1.263 . S
O1499 Co1496 1.970 . S
O1499 C1498 1.258 . S
O1500 Co1497 1.966 . S
O1500 C1498 1.263 . S
C1501 O1502 1.235 . S
C1501 O1528 1.289 . S
O1502 C1501 1.235 . S
C1503 C1505 1.400 . S
C1503 N1506 1.351 . S
C1503 C1508 1.501 . S
C1504 C1505 1.387 . S
C1504 N1507 1.341 . S
C1505 C1503 1.400 . S
C1505 C1504 1.387 . S
N1506 Co1497 2.022 . S
N1506 C1503 1.351 . S
N1506 N1507 1.365 . S
N1507 C1504 1.341 . S
N1507 N1506 1.365 . S
N1507 H1527 0.862 . S
C1508 C1503 1.501 . S
C1508 H1509 0.961 . S
C1508 H1510 0.961 . S
C1508 H1511 0.960 . S
H1509 C1508 0.961 . S
H1510 C1508 0.961 . S
H1511 C1508 0.960 . S
C1512 N1513 1.342 . S
C1512 C1516 1.401 . S
C1512 C1517 1.499 . S
N1513 Co1496 1.989 . S
N1513 C1512 1.342 . S
N1513 N1514 1.388 . S
N1514 Co1497 1.993 . S
N1514 N1513 1.388 . S
N1514 C1515 1.346 . S
C1515 N1514 1.346 . S
C1515 C1516 1.396 . S
C1515 C1525 1.510 . S
C1516 C1512 1.401 . S
C1516 C1515 1.396 . S
C1517 C1512 1.499 . S
C1517 H1518 0.959 . S
C1517 H1519 0.960 . S
C1517 H1520 0.961 . S
H1518 C1517 0.959 . S
H1519 C1517 0.960 . S
H1520 C1517 0.961 . S
O1521 Co1496 1.967 . S
O1521 C1529 1.258 . S
O1522 Co1497 1.941 . S
O1522 C1529 1.266 . S
H1523 C1525 0.959 . S
H1524 C1525 0.961 . S
C1525 C1515 1.510 . S
C1525 H1523 0.959 . S
C1525 H1524 0.961 . S
C1525 H1526 0.960 . S
H1526 C1525 0.960 . S
H1527 N1507 0.862 . S
O1528 Co1496 1.920 . S
O1528 C1501 1.289 . S
C1529 O1521 1.258 . S
C1529 O1522 1.266 . S
Co1530 O1533 1.970 . S
Co1530 N1547 1.989 . S
Co1530 O1555 1.967 . S
Co1530 O1562 1.920 . S
Co1531 O1534 1.966 . S
Co1531 N1540 2.022 . S
Co1531 N1548 1.993 . S
Co1531 O1556 1.941 . S
C1532 O1533 1.258 . S
C1532 O1534 1.263 . S
O1533 Co1530 1.970 . S
O1533 C1532 1.258 . S
O1534 Co1531 1.966 . S
O1534 C1532 1.263 . S
C1535 O1536 1.235 . S
C1535 O1562 1.289 . S
O1536 C1535 1.235 . S
C1537 C1539 1.400 . S
C1537 N1540 1.351 . S
C1537 C1542 1.501 . S
C1538 C1539 1.387 . S
C1538 N1541 1.341 . S
C1539 C1537 1.400 . S
C1539 C1538 1.387 . S
N1540 Co1531 2.022 . S
N1540 C1537 1.351 . S
N1540 N1541 1.365 . S
N1541 C1538 1.341 . S
N1541 N1540 1.365 . S
N1541 H1561 0.862 . S
C1542 C1537 1.501 . S
C1542 H1543 0.961 . S
C1542 H1544 0.961 . S
C1542 H1545 0.960 . S
H1543 C1542 0.961 . S
H1544 C1542 0.961 . S
H1545 C1542 0.960 . S
C1546 N1547 1.342 . S
C1546 C1550 1.401 . S
C1546 C1551 1.499 . S
N1547 Co1530 1.989 . S
N1547 C1546 1.342 . S
N1547 N1548 1.388 . S
N1548 Co1531 1.993 . S
N1548 N1547 1.388 . S
N1548 C1549 1.346 . S
C1549 N1548 1.346 . S
C1549 C1550 1.396 . S
C1549 C1559 1.510 . S
C1550 C1546 1.401 . S
C1550 C1549 1.396 . S
C1551 C1546 1.499 . S
C1551 H1552 0.959 . S
C1551 H1553 0.960 . S
C1551 H1554 0.961 . S
H1552 C1551 0.959 . S
H1553 C1551 0.960 . S
H1554 C1551 0.961 . S
O1555 Co1530 1.967 . S
O1555 C1563 1.258 . S
O1556 Co1531 1.941 . S
O1556 C1563 1.266 . S
H1557 C1559 0.959 . S
H1558 C1559 0.961 . S
C1559 C1549 1.510 . S
C1559 H1557 0.959 . S
C1559 H1558 0.961 . S
C1559 H1560 0.960 . S
H1560 C1559 0.960 . S
H1561 N1541 0.862 . S
O1562 Co1530 1.920 . S
O1562 C1535 1.289 . S
C1563 O1555 1.258 . S
C1563 O1556 1.266 . S
Co1564 O1567 1.970 . S
Co1564 N1581 1.989 . S
Co1564 O1589 1.967 . S
Co1564 O1596 1.920 . S
Co1565 O1568 1.966 . S
Co1565 N1574 2.022 . S
Co1565 N1582 1.993 . S
Co1565 O1590 1.941 . S
C1566 O1567 1.258 . S
C1566 O1568 1.263 . S
O1567 Co1564 1.970 . S
O1567 C1566 1.258 . S
O1568 Co1565 1.966 . S
O1568 C1566 1.263 . S
C1569 O1570 1.235 . S
C1569 O1596 1.289 . S
O1570 C1569 1.235 . S
C1571 C1573 1.400 . S
C1571 N1574 1.351 . S
C1571 C1576 1.501 . S
C1572 C1573 1.387 . S
C1572 N1575 1.341 . S
C1573 C1571 1.400 . S
C1573 C1572 1.387 . S
N1574 Co1565 2.022 . S
N1574 C1571 1.351 . S
N1574 N1575 1.365 . S
N1575 C1572 1.341 . S
N1575 N1574 1.365 . S
N1575 H1595 0.862 . S
C1576 C1571 1.501 . S
C1576 H1577 0.961 . S
C1576 H1578 0.961 . S
C1576 H1579 0.960 . S
H1577 C1576 0.961 . S
H1578 C1576 0.961 . S
H1579 C1576 0.960 . S
C1580 N1581 1.342 . S
C1580 C1584 1.401 . S
C1580 C1585 1.499 . S
N1581 Co1564 1.989 . S
N1581 C1580 1.342 . S
N1581 N1582 1.388 . S
N1582 Co1565 1.993 . S
N1582 N1581 1.388 . S
N1582 C1583 1.346 . S
C1583 N1582 1.346 . S
C1583 C1584 1.396 . S
C1583 C1593 1.510 . S
C1584 C1580 1.401 . S
C1584 C1583 1.396 . S
C1585 C1580 1.499 . S
C1585 H1586 0.959 . S
C1585 H1587 0.960 . S
C1585 H1588 0.961 . S
H1586 C1585 0.959 . S
H1587 C1585 0.960 . S
H1588 C1585 0.961 . S
O1589 Co1564 1.967 . S
O1589 C1597 1.258 . S
O1590 Co1565 1.941 . S
O1590 C1597 1.266 . S
H1591 C1593 0.959 . S
H1592 C1593 0.961 . S
C1593 C1583 1.510 . S
C1593 H1591 0.959 . S
C1593 H1592 0.961 . S
C1593 H1594 0.960 . S
H1594 C1593 0.960 . S
H1595 N1575 0.862 . S
O1596 Co1564 1.920 . S
O1596 C1569 1.289 . S
C1597 O1589 1.258 . S
C1597 O1590 1.266 . S
Co1598 O1601 1.970 . S
Co1598 N1615 1.989 . S
Co1598 O1623 1.967 . S
Co1598 O1630 1.920 . S
Co1599 O1602 1.966 . S
Co1599 N1608 2.022 . S
Co1599 N1616 1.993 . S
Co1599 O1624 1.941 . S
C1600 O1601 1.258 . S
C1600 O1602 1.263 . S
O1601 Co1598 1.970 . S
O1601 C1600 1.258 . S
O1602 Co1599 1.966 . S
O1602 C1600 1.263 . S
C1603 O1604 1.235 . S
C1603 O1630 1.289 . S
O1604 C1603 1.235 . S
C1605 C1607 1.400 . S
C1605 N1608 1.351 . S
C1605 C1610 1.501 . S
C1606 C1607 1.387 . S
C1606 N1609 1.341 . S
C1607 C1605 1.400 . S
C1607 C1606 1.387 . S
N1608 Co1599 2.022 . S
N1608 C1605 1.351 . S
N1608 N1609 1.365 . S
N1609 C1606 1.341 . S
N1609 N1608 1.365 . S
N1609 H1629 0.862 . S
C1610 C1605 1.501 . S
C1610 H1611 0.961 . S
C1610 H1612 0.961 . S
C1610 H1613 0.960 . S
H1611 C1610 0.961 . S
H1612 C1610 0.961 . S
H1613 C1610 0.960 . S
C1614 N1615 1.342 . S
C1614 C1618 1.401 . S
C1614 C1619 1.499 . S
N1615 Co1598 1.989 . S
N1615 C1614 1.342 . S
N1615 N1616 1.388 . S
N1616 Co1599 1.993 . S
N1616 N1615 1.388 . S
N1616 C1617 1.346 . S
C1617 N1616 1.346 . S
C1617 C1618 1.396 . S
C1617 C1627 1.510 . S
C1618 C1614 1.401 . S
C1618 C1617 1.396 . S
C1619 C1614 1.499 . S
C1619 H1620 0.959 . S
C1619 H1621 0.960 . S
C1619 H1622 0.961 . S
H1620 C1619 0.959 . S
H1621 C1619 0.960 . S
H1622 C1619 0.961 . S
O1623 Co1598 1.967 . S
O1623 C1631 1.258 . S
O1624 Co1599 1.941 . S
O1624 C1631 1.266 . S
H1625 C1627 0.959 . S
H1626 C1627 0.961 . S
C1627 C1617 1.510 . S
C1627 H1625 0.959 . S
C1627 H1626 0.961 . S
C1627 H1628 0.960 . S
H1628 C1627 0.960 . S
H1629 N1609 0.862 . S
O1630 Co1598 1.920 . S
O1630 C1603 1.289 . S
C1631 O1623 1.258 . S
C1631 O1624 1.266 . S
C1632 C1633 1.387 . S
C1632 H1636 0.950 . S
C1632 C1641 1.390 . S
C1633 C1632 1.387 . S
C1633 C1635 1.387 . S
H1634 C1641 0.950 . S
C1635 C1633 1.387 . S
C1635 C1637 1.390 . S
C1635 H1639 0.950 . S
H1636 C1632 0.950 . S
C1637 C1635 1.390 . S
C1637 C1638 1.387 . S
C1637 H1640 0.950 . S
C1638 C1637 1.387 . S
C1638 C1641 1.387 . S
H1639 C1635 0.950 . S
H1640 C1637 0.950 . S
C1641 C1632 1.390 . S
C1641 H1634 0.950 . S
C1641 C1638 1.387 . S
C1642 C1643 1.387 . S
C1642 H1646 0.950 . S
C1642 C1651 1.390 . S
C1643 C1642 1.387 . S
C1643 C1645 1.387 . S
H1644 C1651 0.950 . S
C1645 C1643 1.387 . S
C1645 C1647 1.390 . S
C1645 H1649 0.950 . S
H1646 C1642 0.950 . S
C1647 C1645 1.390 . S
C1647 C1648 1.387 . S
C1647 H1650 0.950 . S
C1648 C1647 1.387 . S
C1648 C1651 1.387 . S
H1649 C1645 0.950 . S
H1650 C1647 0.950 . S
C1651 C1642 1.390 . S
C1651 H1644 0.950 . S
C1651 C1648 1.387 . S
C1652 C1653 1.387 . S
C1652 H1656 0.950 . S
C1652 C1661 1.390 . S
C1653 C1652 1.387 . S
C1653 C1655 1.387 . S
H1654 C1661 0.950 . S
C1655 C1653 1.387 . S
C1655 C1657 1.390 . S
C1655 H1659 0.950 . S
H1656 C1652 0.950 . S
C1657 C1655 1.390 . S
C1657 C1658 1.387 . S
C1657 H1660 0.950 . S
C1658 C1657 1.387 . S
C1658 C1661 1.387 . S
H1659 C1655 0.950 . S
H1660 C1657 0.950 . S
C1661 C1652 1.390 . S
C1661 H1654 0.950 . S
C1661 C1658 1.387 . S
C1662 C1663 1.387 . S
C1662 H1666 0.950 . S
C1662 C1671 1.390 . S
C1663 C1662 1.387 . S
C1663 C1665 1.387 . S
H1664 C1671 0.950 . S
C1665 C1663 1.387 . S
C1665 C1667 1.390 . S
C1665 H1669 0.950 . S
H1666 C1662 0.950 . S
C1667 C1665 1.390 . S
C1667 C1668 1.387 . S
C1667 H1670 0.950 . S
C1668 C1667 1.387 . S
C1668 C1671 1.387 . S
H1669 C1665 0.950 . S
H1670 C1667 0.950 . S
C1671 C1662 1.390 . S
C1671 H1664 0.950 . S
C1671 C1668 1.387 . S
C1672 C1673 1.387 . S
C1672 H1676 0.950 . S
C1672 C1681 1.390 . S
C1673 C1672 1.387 . S
C1673 C1675 1.387 . S
H1674 C1681 0.950 . S
C1675 C1673 1.387 . S
C1675 C1677 1.390 . S
C1675 H1679 0.950 . S
H1676 C1672 0.950 . S
C1677 C1675 1.390 . S
C1677 C1678 1.387 . S
C1677 H1680 0.950 . S
C1678 C1677 1.387 . S
C1678 C1681 1.387 . S
H1679 C1675 0.950 . S
H1680 C1677 0.950 . S
C1681 C1672 1.390 . S
C1681 H1674 0.950 . S
C1681 C1678 1.387 . S
C1682 C1683 1.387 . S
C1682 H1686 0.950 . S
C1682 C1691 1.390 . S
C1683 C1682 1.387 . S
C1683 C1685 1.387 . S
H1684 C1691 0.976 . S
C1685 C1683 1.387 . S
C1685 C1687 1.390 . S
C1685 H1689 0.950 . S
H1686 C1682 0.950 . S
C1687 C1685 1.390 . S
C1687 C1688 1.387 . S
C1687 H1690 0.950 . S
C1688 C1687 1.387 . S
C1688 C1691 1.387 . S
H1689 C1685 0.950 . S
H1690 C1687 0.950 . S
C1691 C1682 1.390 . S
C1691 H1684 0.976 . S
C1691 C1688 1.387 . S
C1692 C1693 1.387 . S
C1692 H1696 0.950 . S
C1692 C1701 1.390 . S
C1693 C1692 1.387 . S
C1693 C1695 1.387 . S
H1694 C1701 0.950 . S
C1695 C1693 1.387 . S
C1695 C1697 1.390 . S
C1695 H1699 0.950 . S
H1696 C1692 0.950 . S
C1697 C1695 1.390 . S
C1697 C1698 1.387 . S
C1697 H1700 0.950 . S
C1698 C1697 1.387 . S
C1698 C1701 1.387 . S
H1699 C1695 0.950 . S
H1700 C1697 0.950 . S
C1701 C1692 1.390 . S
C1701 H1694 0.950 . S
C1701 C1698 1.387 . S
C1702 C1703 1.387 . S
C1702 H1706 0.950 . S
C1702 C1711 1.390 . S
C1703 C1702 1.387 . S
C1703 C1705 1.387 . S
H1704 C1711 0.950 . S
C1705 C1703 1.387 . S
C1705 C1707 1.390 . S
C1705 H1709 0.950 . S
H1706 C1702 0.950 . S
C1707 C1705 1.390 . S
C1707 C1708 1.387 . S
C1707 H1710 0.950 . S
C1708 C1707 1.387 . S
C1708 C1711 1.387 . S
H1709 C1705 0.950 . S
H1710 C1707 0.950 . S
C1711 C1702 1.390 . S
C1711 H1704 0.950 . S
C1711 C1708 1.387 . S
C1712 C1713 1.387 . S
C1712 H1716 0.950 . S
C1712 C1721 1.390 . S
C1713 C1712 1.387 . S
C1713 C1715 1.387 . S
H1714 C1721 0.950 . S
C1715 C1713 1.387 . S
C1715 C1717 1.390 . S
C1715 H1719 0.950 . S
H1716 C1712 0.950 . S
C1717 C1715 1.390 . S
C1717 C1718 1.387 . S
C1717 H1720 0.950 . S
C1718 C1717 1.387 . S
C1718 C1721 1.387 . S
H1719 C1715 0.950 . S
H1720 C1717 0.950 . S
C1721 C1712 1.390 . S
C1721 H1714 0.950 . S
C1721 C1718 1.387 . S
C1722 C1723 1.387 . S
C1722 H1726 0.950 . S
C1722 C1731 1.390 . S
C1723 C1722 1.387 . S
C1723 C1725 1.387 . S
H1724 C1731 0.950 . S
C1725 C1723 1.387 . S
C1725 C1727 1.390 . S
C1725 H1729 0.950 . S
H1726 C1722 0.950 . S
C1727 C1725 1.390 . S
C1727 C1728 1.387 . S
C1727 H1730 0.950 . S
C1728 C1727 1.387 . S
C1728 C1731 1.387 . S
H1729 C1725 0.950 . S
H1730 C1727 0.950 . S
C1731 C1722 1.390 . S
C1731 H1724 0.950 . S
C1731 C1728 1.387 . S
C1732 C1733 1.387 . S
C1732 H1736 0.950 . S
C1732 C1741 1.390 . S
C1733 C1732 1.387 . S
C1733 C1735 1.387 . S
H1734 C1741 0.950 . S
C1735 C1733 1.387 . S
C1735 C1737 1.390 . S
C1735 H1739 0.950 . S
H1736 C1732 0.950 . S
C1737 C1735 1.390 . S
C1737 C1738 1.387 . S
C1737 H1740 0.950 . S
C1738 C1737 1.387 . S
C1738 C1741 1.387 . S
H1739 C1735 0.950 . S
H1740 C1737 0.950 . S
C1741 C1732 1.390 . S
C1741 H1734 0.950 . S
C1741 C1738 1.387 . S
C1742 C1743 1.387 . S
C1742 H1746 0.950 . S
C1742 C1751 1.390 . S
C1743 C1742 1.387 . S
C1743 C1745 1.387 . S
H1744 C1751 0.950 . S
C1745 C1743 1.387 . S
C1745 C1747 1.390 . S
C1745 H1749 0.950 . S
H1746 C1742 0.950 . S
C1747 C1745 1.390 . S
C1747 C1748 1.387 . S
C1747 H1750 0.950 . S
C1748 C1747 1.387 . S
C1748 C1751 1.387 . S
H1749 C1745 0.950 . S
H1750 C1747 0.950 . S
C1751 C1742 1.390 . S
C1751 H1744 0.950 . S
C1751 C1748 1.387 . S
C1752 C1753 1.387 . S
C1752 H1756 0.950 . S
C1752 C1761 1.390 . S
C1753 C1752 1.387 . S
C1753 C1755 1.387 . S
H1754 C1761 0.950 . S
C1755 C1753 1.387 . S
C1755 C1757 1.390 . S
C1755 H1759 0.950 . S
H1756 C1752 0.950 . S
C1757 C1755 1.390 . S
C1757 C1758 1.387 . S
C1757 H1760 0.950 . S
C1758 C1757 1.387 . S
C1758 C1761 1.387 . S
H1759 C1755 0.950 . S
H1760 C1757 0.950 . S
C1761 C1752 1.390 . S
C1761 H1754 0.950 . S
C1761 C1758 1.387 . S
C1762 C1763 1.387 . S
C1762 H1766 0.950 . S
C1762 C1771 1.390 . S
C1763 C1762 1.387 . S
C1763 C1765 1.387 . S
H1764 C1771 0.950 . S
C1765 C1763 1.387 . S
C1765 C1767 1.390 . S
C1765 H1769 0.950 . S
H1766 C1762 0.950 . S
C1767 C1765 1.390 . S
C1767 C1768 1.387 . S
C1767 H1770 0.950 . S
C1768 C1767 1.387 . S
C1768 C1771 1.387 . S
H1769 C1765 0.950 . S
H1770 C1767 0.950 . S
C1771 C1762 1.390 . S
C1771 H1764 0.950 . S
C1771 C1768 1.387 . S
C1772 C1773 1.387 . S
C1772 H1776 0.950 . S
C1772 C1781 1.390 . S
C1773 C1772 1.387 . S
C1773 C1775 1.387 . S
H1774 C1781 0.950 . S
C1775 C1773 1.387 . S
C1775 C1777 1.390 . S
C1775 H1779 0.950 . S
H1776 C1772 0.950 . S
C1777 C1775 1.390 . S
C1777 C1778 1.387 . S
C1777 H1780 0.950 . S
C1778 C1777 1.387 . S
C1778 C1781 1.387 . S
H1779 C1775 0.950 . S
H1780 C1777 0.950 . S
C1781 C1772 1.390 . S
C1781 H1774 0.950 . S
C1781 C1778 1.387 . S
C1782 C1783 1.387 . S
C1782 H1786 0.975 . S
C1782 C1791 1.390 . S
C1783 C1782 1.387 . S
C1783 C1785 1.387 . S
H1784 C1791 0.950 . S
C1785 C1783 1.387 . S
C1785 C1787 1.390 . S
C1785 H1789 0.950 . S
H1786 C1782 0.975 . S
C1787 C1785 1.390 . S
C1787 C1788 1.387 . S
C1787 H1790 0.950 . S
C1788 C1787 1.387 . S
C1788 C1791 1.387 . S
H1789 C1785 0.950 . S
H1790 C1787 0.950 . S
C1791 C1782 1.390 . S
C1791 H1784 0.950 . S
C1791 C1788 1.387 . S
C1792 C1793 1.387 . S
C1792 H1796 0.950 . S
C1792 C1801 1.390 . S
C1793 C1792 1.387 . S
C1793 C1795 1.387 . S
H1794 C1801 0.950 . S
C1795 C1793 1.387 . S
C1795 C1797 1.390 . S
C1795 H1799 0.950 . S
H1796 C1792 0.950 . S
C1797 C1795 1.390 . S
C1797 C1798 1.387 . S
C1797 H1800 0.950 . S
C1798 C1797 1.387 . S
C1798 C1801 1.387 . S
H1799 C1795 0.950 . S
H1800 C1797 0.950 . S
C1801 C1792 1.390 . S
C1801 H1794 0.950 . S
C1801 C1798 1.387 . S
C1802 C1803 1.387 . S
C1802 H1806 0.950 . S
C1802 C1811 1.390 . S
C1803 C1802 1.387 . S
C1803 C1805 1.387 . S
H1804 C1811 0.950 . S
C1805 C1803 1.387 . S
C1805 C1807 1.390 . S
C1805 H1809 0.950 . S
H1806 C1802 0.950 . S
C1807 C1805 1.390 . S
C1807 C1808 1.387 . S
C1807 H1810 0.950 . S
C1808 C1807 1.387 . S
C1808 C1811 1.387 . S
H1809 C1805 0.950 . S
H1810 C1807 0.950 . S
C1811 C1802 1.390 . S
C1811 H1804 0.950 . S
C1811 C1808 1.387 . S
C1812 C1813 1.387 . S
C1812 H1816 0.950 . S
C1812 C1821 1.390 . S
C1813 C1812 1.387 . S
C1813 C1815 1.387 . S
H1814 C1821 0.950 . S
C1815 C1813 1.387 . S
C1815 C1817 1.390 . S
C1815 H1819 0.950 . S
H1816 C1812 0.950 . S
C1817 C1815 1.390 . S
C1817 C1818 1.387 . S
C1817 H1820 0.950 . S
C1818 C1817 1.387 . S
C1818 C1821 1.387 . S
H1819 C1815 0.950 . S
H1820 C1817 0.950 . S
C1821 C1812 1.390 . S
C1821 H1814 0.950 . S
C1821 C1818 1.387 . S
C1822 C1823 1.387 . S
C1822 H1826 0.950 . S
C1822 C1831 1.390 . S
C1823 C1822 1.387 . S
C1823 C1825 1.387 . S
H1824 C1831 0.950 . S
C1825 C1823 1.387 . S
C1825 C1827 1.390 . S
C1825 H1829 0.950 . S
H1826 C1822 0.950 . S
C1827 C1825 1.390 . S
C1827 C1828 1.387 . S
C1827 H1830 0.950 . S
C1828 C1827 1.387 . S
C1828 C1831 1.387 . S
H1829 C1825 0.950 . S
H1830 C1827 0.950 . S
C1831 C1822 1.390 . S
C1831 H1824 0.950 . S
C1831 C1828 1.387 . S
C1832 C1833 1.387 . S
C1832 H1836 0.950 . S
C1832 C1841 1.390 . S
C1833 C1832 1.387 . S
C1833 C1835 1.387 . S
H1834 C1841 0.950 . S
C1835 C1833 1.387 . S
C1835 C1837 1.390 . S
C1835 H1839 0.950 . S
H1836 C1832 0.950 . S
C1837 C1835 1.390 . S
C1837 C1838 1.387 . S
C1837 H1840 0.950 . S
C1838 C1837 1.387 . S
C1838 C1841 1.387 . S
H1839 C1835 0.950 . S
H1840 C1837 0.950 . S
C1841 C1832 1.390 . S
C1841 H1834 0.950 . S
C1841 C1838 1.387 . S
C1842 C1843 1.387 . S
C1842 H1846 0.950 . S
C1842 C1851 1.390 . S
C1843 C1842 1.387 . S
C1843 C1845 1.387 . S
H1844 C1851 0.950 . S
C1845 C1843 1.387 . S
C1845 C1847 1.390 . S
C1845 H1849 0.950 . S
H1846 C1842 0.950 . S
C1847 C1845 1.390 . S
C1847 C1848 1.387 . S
C1847 H1850 0.950 . S
C1848 C1847 1.387 . S
C1848 C1851 1.387 . S
H1849 C1845 0.950 . S
H1850 C1847 0.950 . S
C1851 C1842 1.390 . S
C1851 H1844 0.950 . S
C1851 C1848 1.387 . S
C1852 C1853 1.387 . S
C1852 H1856 0.950 . S
C1852 C1861 1.390 . S
C1853 C1852 1.387 . S
C1853 C1855 1.387 . S
H1854 C1861 0.950 . S
C1855 C1853 1.387 . S
C1855 C1857 1.390 . S
C1855 H1859 0.950 . S
H1856 C1852 0.950 . S
C1857 C1855 1.390 . S
C1857 C1858 1.387 . S
C1857 H1860 0.950 . S
C1858 C1857 1.387 . S
C1858 C1861 1.387 . S
H1859 C1855 0.950 . S
H1860 C1857 0.950 . S
C1861 C1852 1.390 . S
C1861 H1854 0.950 . S
C1861 C1858 1.387 . S
C1862 C1863 1.387 . S
C1862 H1866 0.950 . S
C1862 C1871 1.390 . S
C1863 C1862 1.387 . S
C1863 C1865 1.387 . S
H1864 C1871 0.950 . S
C1865 C1863 1.387 . S
C1865 C1867 1.390 . S
C1865 H1869 0.950 . S
H1866 C1862 0.950 . S
C1867 C1865 1.390 . S
C1867 C1868 1.387 . S
C1867 H1870 0.950 . S
C1868 C1867 1.387 . S
C1868 C1871 1.387 . S
H1869 C1865 0.950 . S
H1870 C1867 0.950 . S
C1871 C1862 1.390 . S
C1871 H1864 0.950 . S
C1871 C1868 1.387 . S
C1872 C1873 1.387 . S
C1872 H1876 0.950 . S
C1872 C1881 1.390 . S
C1873 C1872 1.387 . S
C1873 C1875 1.387 . S
H1874 C1881 0.950 . S
C1875 C1873 1.387 . S
C1875 C1877 1.390 . S
C1875 H1879 0.950 . S
H1876 C1872 0.950 . S
C1877 C1875 1.390 . S
C1877 C1878 1.387 . S
C1877 H1880 0.950 . S
C1878 C1877 1.387 . S
C1878 C1881 1.387 . S
H1879 C1875 0.950 . S
H1880 C1877 0.950 . S
C1881 C1872 1.390 . S
C1881 H1874 0.950 . S
C1881 C1878 1.387 . S
C1882 C1883 1.387 . S
C1882 H1886 0.950 . S
C1882 C1891 1.390 . S
C1883 C1882 1.387 . S
C1883 C1885 1.387 . S
H1884 C1891 0.950 . S
C1885 C1883 1.387 . S
C1885 C1887 1.390 . S
C1885 H1889 0.950 . S
H1886 C1882 0.950 . S
C1887 C1885 1.390 . S
C1887 C1888 1.387 . S
C1887 H1890 0.950 . S
C1888 C1887 1.387 . S
C1888 C1891 1.387 . S
H1889 C1885 0.950 . S
H1890 C1887 0.950 . S
C1891 C1882 1.390 . S
C1891 H1884 0.950 . S
C1891 C1888 1.387 . S
C1892 C1893 1.387 . S
C1892 H1896 0.950 . S
C1892 C1901 1.390 . S
C1893 C1892 1.387 . S
C1893 C1895 1.387 . S
H1894 C1901 0.950 . S
C1895 C1893 1.387 . S
C1895 C1897 1.390 . S
C1895 H1899 0.950 . S
H1896 C1892 0.950 . S
C1897 C1895 1.390 . S
C1897 C1898 1.387 . S
C1897 H1900 0.950 . S
C1898 C1897 1.387 . S
C1898 C1901 1.387 . S
H1899 C1895 0.950 . S
H1900 C1897 0.950 . S
C1901 C1892 1.390 . S
C1901 H1894 0.950 . S
C1901 C1898 1.387 . S
C1902 C1903 1.387 . S
C1902 H1906 0.950 . S
C1902 C1911 1.390 . S
C1903 C1902 1.387 . S
C1903 C1905 1.387 . S
H1904 C1911 0.950 . S
C1905 C1903 1.387 . S
C1905 C1907 1.390 . S
C1905 H1909 0.950 . S
H1906 C1902 0.950 . S
C1907 C1905 1.390 . S
C1907 C1908 1.387 . S
C1907 H1910 0.950 . S
C1908 C1907 1.387 . S
C1908 C1911 1.387 . S
H1909 C1905 0.950 . S
H1910 C1907 0.950 . S
C1911 C1902 1.390 . S
C1911 H1904 0.950 . S
C1911 C1908 1.387 . S
C1912 C1913 1.387 . S
C1912 H1916 0.950 . S
C1912 C1921 1.390 . S
C1913 C1912 1.387 . S
C1913 C1915 1.387 . S
H1914 C1921 0.950 . S
C1915 C1913 1.387 . S
C1915 C1917 1.390 . S
C1915 H1919 0.950 . S
H1916 C1912 0.950 . S
C1917 C1915 1.390 . S
C1917 C1918 1.387 . S
C1917 H1920 0.950 . S
C1918 C1917 1.387 . S
C1918 C1921 1.387 . S
H1919 C1915 0.950 . S
H1920 C1917 0.950 . S
C1921 C1912 1.390 . S
C1921 H1914 0.950 . S
C1921 C1918 1.387 . S
C1922 C1923 1.387 . S
C1922 H1926 0.950 . S
C1922 C1931 1.390 . S
C1923 C1922 1.387 . S
C1923 C1925 1.387 . S
H1924 C1931 0.950 . S
C1925 C1923 1.387 . S
C1925 C1927 1.390 . S
C1925 H1929 0.950 . S
H1926 C1922 0.950 . S
C1927 C1925 1.390 . S
C1927 C1928 1.387 . S
C1927 H1930 0.950 . S
C1928 C1927 1.387 . S
C1928 C1931 1.387 . S
H1929 C1925 0.950 . S
H1930 C1927 0.950 . S
C1931 C1922 1.390 . S
C1931 H1924 0.950 . S
C1931 C1928 1.387 . S
C1932 C1933 1.387 . S
C1932 H1936 0.950 . S
C1932 C1941 1.390 . S
C1933 C1932 1.387 . S
C1933 C1935 1.387 . S
H1934 C1941 0.950 . S
C1935 C1933 1.387 . S
C1935 C1937 1.390 . S
C1935 H1939 0.950 . S
H1936 C1932 0.950 . S
C1937 C1935 1.390 . S
C1937 C1938 1.387 . S
C1937 H1940 0.950 . S
C1938 C1937 1.387 . S
C1938 C1941 1.387 . S
H1939 C1935 0.950 . S
H1940 C1937 0.950 . S
C1941 C1932 1.390 . S
C1941 H1934 0.950 . S
C1941 C1938 1.387 . S
C1942 C1943 1.387 . S
C1942 H1946 0.950 . S
C1942 C1951 1.390 . S
C1943 C1942 1.387 . S
C1943 C1945 1.387 . S
H1944 C1951 0.950 . S
C1945 C1943 1.387 . S
C1945 C1947 1.390 . S
C1945 H1949 0.950 . S
H1946 C1942 0.950 . S
C1947 C1945 1.390 . S
C1947 C1948 1.387 . S
C1947 H1950 0.950 . S
C1948 C1947 1.387 . S
C1948 C1951 1.387 . S
H1949 C1945 0.950 . S
H1950 C1947 0.950 . S
C1951 C1942 1.390 . S
C1951 H1944 0.950 . S
C1951 C1948 1.387 . S
C1952 C1953 1.387 . S
C1952 H1956 0.950 . S
C1952 C1961 1.390 . S
C1953 C1952 1.387 . S
C1953 C1955 1.387 . S
H1954 C1961 0.950 . S
C1955 C1953 1.387 . S
C1955 C1957 1.390 . S
C1955 H1959 0.950 . S
H1956 C1952 0.950 . S
C1957 C1955 1.390 . S
C1957 C1958 1.387 . S
C1957 H1960 0.950 . S
C1958 C1957 1.387 . S
C1958 C1961 1.387 . S
H1959 C1955 0.950 . S
H1960 C1957 0.950 . S
C1961 C1952 1.390 . S
C1961 H1954 0.950 . S
C1961 C1958 1.387 . S
C1962 C1963 1.387 . S
C1962 H1966 0.950 . S
C1962 C1971 1.390 . S
C1963 C1962 1.387 . S
C1963 C1965 1.387 . S
H1964 C1971 0.950 . S
C1965 C1963 1.387 . S
C1965 C1967 1.390 . S
C1965 H1969 0.950 . S
H1966 C1962 0.950 . S
C1967 C1965 1.390 . S
C1967 C1968 1.387 . S
C1967 H1970 0.950 . S
C1968 C1967 1.387 . S
C1968 C1971 1.387 . S
H1969 C1965 0.950 . S
H1970 C1967 0.950 . S
C1971 C1962 1.390 . S
C1971 H1964 0.950 . S
C1971 C1968 1.387 . S
C1972 C1973 1.387 . S
C1972 H1976 0.950 . S
C1972 C1981 1.390 . S
C1973 C1972 1.387 . S
C1973 C1975 1.387 . S
H1974 C1981 0.950 . S
C1975 C1973 1.387 . S
C1975 C1977 1.390 . S
C1975 H1979 0.950 . S
H1976 C1972 0.950 . S
C1977 C1975 1.390 . S
C1977 C1978 1.387 . S
C1977 H1980 0.950 . S
C1978 C1977 1.387 . S
C1978 C1981 1.387 . S
H1979 C1975 0.950 . S
H1980 C1977 0.950 . S
C1981 C1972 1.390 . S
C1981 H1974 0.950 . S
C1981 C1978 1.387 . S
C1982 C1983 1.387 . S
C1982 H1986 0.950 . S
C1982 C1991 1.390 . S
C1983 C1982 1.387 . S
C1983 C1985 1.387 . S
H1984 C1991 0.950 . S
C1985 C1983 1.387 . S
C1985 C1987 1.390 . S
C1985 H1989 0.950 . S
H1986 C1982 0.950 . S
C1987 C1985 1.390 . S
C1987 C1988 1.387 . S
C1987 H1990 0.950 . S
C1988 C1987 1.387 . S
C1988 C1991 1.387 . S
H1989 C1985 0.950 . S
H1990 C1987 0.950 . S
C1991 C1982 1.390 . S
C1991 H1984 0.950 . S
C1991 C1988 1.387 . S
C1992 C1993 1.387 . S
C1992 H1996 0.950 . S
C1992 C2001 1.390 . S
C1993 C1992 1.387 . S
C1993 C1995 1.387 . S
H1994 C2001 0.950 . S
C1995 C1993 1.387 . S
C1995 C1997 1.390 . S
C1995 H1999 0.950 . S
H1996 C1992 0.950 . S
C1997 C1995 1.390 . S
C1997 C1998 1.387 . S
C1997 H2000 0.950 . S
C1998 C1997 1.387 . S
C1998 C2001 1.387 . S
H1999 C1995 0.950 . S
H2000 C1997 0.950 . S
C2001 C1992 1.390 . S
C2001 H1994 0.950 . S
C2001 C1998 1.387 . S
C2002 C2003 1.387 . S
C2002 H2006 0.950 . S
C2002 C2011 1.390 . S
C2003 C2002 1.387 . S
C2003 C2005 1.387 . S
H2004 C2011 0.950 . S
C2005 C2003 1.387 . S
C2005 C2007 1.390 . S
C2005 H2009 0.950 . S
H2006 C2002 0.950 . S
C2007 C2005 1.390 . S
C2007 C2008 1.387 . S
C2007 H2010 0.950 . S
C2008 C2007 1.387 . S
C2008 C2011 1.387 . S
H2009 C2005 0.950 . S
H2010 C2007 0.950 . S
C2011 C2002 1.390 . S
C2011 H2004 0.950 . S
C2011 C2008 1.387 . S
C2012 C2013 1.387 . S
C2012 H2016 0.950 . S
C2012 C2021 1.390 . S
C2013 C2012 1.387 . S
C2013 C2015 1.387 . S
H2014 C2021 0.950 . S
C2015 C2013 1.387 . S
C2015 C2017 1.390 . S
C2015 H2019 0.950 . S
H2016 C2012 0.950 . S
C2017 C2015 1.390 . S
C2017 C2018 1.387 . S
C2017 H2020 0.950 . S
C2018 C2017 1.387 . S
C2018 C2021 1.387 . S
H2019 C2015 0.950 . S
H2020 C2017 0.950 . S
C2021 C2012 1.390 . S
C2021 H2014 0.950 . S
C2021 C2018 1.387 . S
C2022 C2023 1.387 . S
C2022 H2026 0.950 . S
C2022 C2031 1.390 . S
C2023 C2022 1.387 . S
C2023 C2025 1.387 . S
H2024 C2031 0.950 . S
C2025 C2023 1.387 . S
C2025 C2027 1.390 . S
C2025 H2029 0.950 . S
H2026 C2022 0.950 . S
C2027 C2025 1.390 . S
C2027 C2028 1.387 . S
C2027 H2030 0.950 . S
C2028 C2027 1.387 . S
C2028 C2031 1.387 . S
H2029 C2025 0.950 . S
H2030 C2027 0.950 . S
C2031 C2022 1.390 . S
C2031 H2024 0.950 . S
C2031 C2028 1.387 . S
C2032 C2033 1.387 . S
C2032 H2036 0.950 . S
C2032 C2041 1.390 . S
C2033 C2032 1.387 . S
C2033 C2035 1.387 . S
H2034 C2041 0.950 . S
C2035 C2033 1.387 . S
C2035 C2037 1.390 . S
C2035 H2039 0.950 . S
H2036 C2032 0.950 . S
C2037 C2035 1.390 . S
C2037 C2038 1.387 . S
C2037 H2040 0.950 . S
C2038 C2037 1.387 . S
C2038 C2041 1.387 . S
H2039 C2035 0.950 . S
H2040 C2037 0.950 . S
C2041 C2032 1.390 . S
C2041 H2034 0.950 . S
C2041 C2038 1.387 . S
C2042 C2043 1.387 . S
C2042 H2046 0.950 . S
C2042 C2051 1.390 . S
C2043 C2042 1.387 . S
C2043 C2045 1.387 . S
H2044 C2051 0.950 . S
C2045 C2043 1.387 . S
C2045 C2047 1.390 . S
C2045 H2049 0.950 . S
H2046 C2042 0.950 . S
C2047 C2045 1.390 . S
C2047 C2048 1.387 . S
C2047 H2050 0.950 . S
C2048 C2047 1.387 . S
C2048 C2051 1.387 . S
H2049 C2045 0.950 . S
H2050 C2047 0.950 . S
C2051 C2042 1.390 . S
C2051 H2044 0.950 . S
C2051 C2048 1.387 . S
C2052 C2053 1.387 . S
C2052 H2056 0.950 . S
C2052 C2061 1.390 . S
C2053 C2052 1.387 . S
C2053 C2055 1.387 . S
H2054 C2061 0.950 . S
C2055 C2053 1.387 . S
C2055 C2057 1.390 . S
C2055 H2059 0.950 . S
H2056 C2052 0.950 . S
C2057 C2055 1.390 . S
C2057 C2058 1.387 . S
C2057 H2060 0.950 . S
C2058 C2057 1.387 . S
C2058 C2061 1.387 . S
H2059 C2055 0.950 . S
H2060 C2057 0.950 . S
C2061 C2052 1.390 . S
C2061 H2054 0.950 . S
C2061 C2058 1.387 . S
C2062 C2063 1.387 . S
C2062 H2066 0.950 . S
C2062 C2071 1.390 . S
C2063 C2062 1.387 . S
C2063 C2065 1.387 . S
H2064 C2071 0.950 . S
C2065 C2063 1.387 . S
C2065 C2067 1.390 . S
C2065 H2069 0.950 . S
H2066 C2062 0.950 . S
C2067 C2065 1.390 . S
C2067 C2068 1.387 . S
C2067 H2070 0.950 . S
C2068 C2067 1.387 . S
C2068 C2071 1.387 . S
H2069 C2065 0.950 . S
H2070 C2067 0.950 . S
C2071 C2062 1.390 . S
C2071 H2064 0.950 . S
C2071 C2068 1.387 . S
C2072 C2073 1.387 . S
C2072 H2076 0.950 . S
C2072 C2081 1.390 . S
C2073 C2072 1.387 . S
C2073 C2075 1.387 . S
H2074 C2081 0.950 . S
C2075 C2073 1.387 . S
C2075 C2077 1.390 . S
C2075 H2079 0.950 . S
H2076 C2072 0.950 . S
C2077 C2075 1.390 . S
C2077 C2078 1.387 . S
C2077 H2080 0.950 . S
C2078 C2077 1.387 . S
C2078 C2081 1.387 . S
H2079 C2075 0.950 . S
H2080 C2077 0.950 . S
C2081 C2072 1.390 . S
C2081 H2074 0.950 . S
C2081 C2078 1.387 . S
C2082 C2083 1.387 . S
C2082 H2086 0.950 . S
C2082 C2091 1.390 . S
C2083 C2082 1.387 . S
C2083 C2085 1.387 . S
H2084 C2091 0.950 . S
C2085 C2083 1.387 . S
C2085 C2087 1.390 . S
C2085 H2089 0.950 . S
H2086 C2082 0.950 . S
C2087 C2085 1.390 . S
C2087 C2088 1.387 . S
C2087 H2090 0.950 . S
C2088 C2087 1.387 . S
C2088 C2091 1.387 . S
H2089 C2085 0.950 . S
H2090 C2087 0.950 . S
C2091 C2082 1.390 . S
C2091 H2084 0.950 . S
C2091 C2088 1.387 . S
C2092 C2093 1.387 . S
C2092 H2096 0.950 . S
C2092 C2101 1.390 . S
C2093 C2092 1.387 . S
C2093 C2095 1.387 . S
H2094 C2101 0.950 . S
C2095 C2093 1.387 . S
C2095 C2097 1.390 . S
C2095 H2099 0.950 . S
H2096 C2092 0.950 . S
C2097 C2095 1.390 . S
C2097 C2098 1.387 . S
C2097 H2100 0.950 . S
C2098 C2097 1.387 . S
C2098 C2101 1.387 . S
H2099 C2095 0.950 . S
H2100 C2097 0.950 . S
C2101 C2092 1.390 . S
C2101 H2094 0.950 . S
C2101 C2098 1.387 . S
C2102 C2103 1.387 . S
C2102 H2106 0.950 . S
C2102 C2111 1.390 . S
C2103 C2102 1.387 . S
C2103 C2105 1.387 . S
H2104 C2111 0.950 . S
C2105 C2103 1.387 . S
C2105 C2107 1.390 . S
C2105 H2109 0.950 . S
H2106 C2102 0.950 . S
C2107 C2105 1.390 . S
C2107 C2108 1.387 . S
C2107 H2110 0.950 . S
C2108 C2107 1.387 . S
C2108 C2111 1.387 . S
H2109 C2105 0.950 . S
H2110 C2107 0.950 . S
C2111 C2102 1.390 . S
C2111 H2104 0.950 . S
C2111 C2108 1.387 . S
C2112 C2113 1.387 . S
C2112 H2116 0.950 . S
C2112 C2121 1.390 . S
C2113 C2112 1.387 . S
C2113 C2115 1.387 . S
H2114 C2121 0.950 . S
C2115 C2113 1.387 . S
C2115 C2117 1.390 . S
C2115 H2119 0.950 . S
H2116 C2112 0.950 . S
C2117 C2115 1.390 . S
C2117 C2118 1.387 . S
C2117 H2120 0.950 . S
C2118 C2117 1.387 . S
C2118 C2121 1.387 . S
H2119 C2115 0.950 . S
H2120 C2117 0.950 . S
C2121 C2112 1.390 . S
C2121 H2114 0.950 . S
C2121 C2118 1.387 . S
C2122 C2123 1.387 . S
C2122 H2126 0.950 . S
C2122 C2131 1.390 . S
C2123 C2122 1.387 . S
C2123 C2125 1.387 . S
H2124 C2131 0.950 . S
C2125 C2123 1.387 . S
C2125 C2127 1.390 . S
C2125 H2129 0.950 . S
H2126 C2122 0.950 . S
C2127 C2125 1.390 . S
C2127 C2128 1.387 . S
C2127 H2130 0.950 . S
C2128 C2127 1.387 . S
C2128 C2131 1.387 . S
H2129 C2125 0.950 . S
H2130 C2127 0.950 . S
C2131 C2122 1.390 . S
C2131 H2124 0.950 . S
C2131 C2128 1.387 . S
C2132 C2133 1.387 . S
C2132 H2136 0.950 . S
C2132 C2141 1.390 . S
C2133 C2132 1.387 . S
C2133 C2135 1.387 . S
H2134 C2141 0.950 . S
C2135 C2133 1.387 . S
C2135 C2137 1.390 . S
C2135 H2139 0.950 . S
H2136 C2132 0.950 . S
C2137 C2135 1.390 . S
C2137 C2138 1.387 . S
C2137 H2140 0.950 . S
C2138 C2137 1.387 . S
C2138 C2141 1.387 . S
H2139 C2135 0.950 . S
H2140 C2137 0.950 . S
C2141 C2132 1.390 . S
C2141 H2134 0.950 . S
C2141 C2138 1.387 . S
C2142 C2143 1.387 . S
C2142 H2146 0.950 . S
C2142 C2151 1.390 . S
C2143 C2142 1.387 . S
C2143 C2145 1.387 . S
H2144 C2151 0.950 . S
C2145 C2143 1.387 . S
C2145 C2147 1.390 . S
C2145 H2149 0.950 . S
H2146 C2142 0.950 . S
C2147 C2145 1.390 . S
C2147 C2148 1.387 . S
C2147 H2150 0.950 . S
C2148 C2147 1.387 . S
C2148 C2151 1.387 . S
H2149 C2145 0.950 . S
H2150 C2147 0.950 . S
C2151 C2142 1.390 . S
C2151 H2144 0.950 . S
C2151 C2148 1.387 . S
C2152 C2153 1.387 . S
C2152 H2156 0.950 . S
C2152 C2161 1.390 . S
C2153 C2152 1.387 . S
C2153 C2155 1.387 . S
H2154 C2161 0.950 . S
C2155 C2153 1.387 . S
C2155 C2157 1.390 . S
C2155 H2159 0.950 . S
H2156 C2152 0.950 . S
C2157 C2155 1.390 . S
C2157 C2158 1.387 . S
C2157 H2160 0.950 . S
C2158 C2157 1.387 . S
C2158 C2161 1.387 . S
H2159 C2155 0.950 . S
H2160 C2157 0.950 . S
C2161 C2152 1.390 . S
C2161 H2154 0.950 . S
C2161 C2158 1.387 . S
C2162 C2163 1.387 . S
C2162 H2166 0.950 . S
C2162 C2171 1.390 . S
C2163 C2162 1.387 . S
C2163 C2165 1.387 . S
H2164 C2171 0.950 . S
C2165 C2163 1.387 . S
C2165 C2167 1.390 . S
C2165 H2169 0.950 . S
H2166 C2162 0.950 . S
C2167 C2165 1.390 . S
C2167 C2168 1.387 . S
C2167 H2170 0.950 . S
C2168 C2167 1.387 . S
C2168 C2171 1.387 . S
H2169 C2165 0.950 . S
H2170 C2167 0.950 . S
C2171 C2162 1.390 . S
C2171 H2164 0.950 . S
C2171 C2168 1.387 . S
C2172 C2173 1.387 . S
C2172 H2176 0.950 . S
C2172 C2181 1.390 . S
C2173 C2172 1.387 . S
C2173 C2175 1.387 . S
H2174 C2181 0.950 . S
C2175 C2173 1.387 . S
C2175 C2177 1.390 . S
C2175 H2179 0.950 . S
H2176 C2172 0.950 . S
C2177 C2175 1.390 . S
C2177 C2178 1.387 . S
C2177 H2180 0.950 . S
C2178 C2177 1.387 . S
C2178 C2181 1.387 . S
H2179 C2175 0.950 . S
H2180 C2177 0.950 . S
C2181 C2172 1.390 . S
C2181 H2174 0.950 . S
C2181 C2178 1.387 . S
C2182 C2183 1.387 . S
C2182 H2186 0.950 . S
C2182 C2191 1.390 . S
C2183 C2182 1.387 . S
C2183 C2185 1.387 . S
H2184 C2191 0.950 . S
C2185 C2183 1.387 . S
C2185 C2187 1.390 . S
C2185 H2189 0.950 . S
H2186 C2182 0.950 . S
C2187 C2185 1.390 . S
C2187 C2188 1.387 . S
C2187 H2190 0.950 . S
C2188 C2187 1.387 . S
C2188 C2191 1.387 . S
H2189 C2185 0.950 . S
H2190 C2187 0.950 . S
C2191 C2182 1.390 . S
C2191 H2184 0.950 . S
C2191 C2188 1.387 . S
C2192 C2193 1.387 . S
C2192 H2196 0.950 . S
C2192 C2201 1.390 . S
C2193 C2192 1.387 . S
C2193 C2195 1.387 . S
H2194 C2201 0.950 . S
C2195 C2193 1.387 . S
C2195 C2197 1.390 . S
C2195 H2199 0.950 . S
H2196 C2192 0.950 . S
C2197 C2195 1.390 . S
C2197 C2198 1.387 . S
C2197 H2200 0.950 . S
C2198 C2197 1.387 . S
C2198 C2201 1.387 . S
H2199 C2195 0.950 . S
H2200 C2197 0.950 . S
C2201 C2192 1.390 . S
C2201 H2194 0.950 . S
C2201 C2198 1.387 . S
C2202 C2203 1.387 . S
C2202 H2206 0.950 . S
C2202 C2211 1.390 . S
C2203 C2202 1.387 . S
C2203 C2205 1.387 . S
H2204 C2211 0.950 . S
C2205 C2203 1.387 . S
C2205 C2207 1.390 . S
C2205 H2209 0.950 . S
H2206 C2202 0.950 . S
C2207 C2205 1.390 . S
C2207 C2208 1.387 . S
C2207 H2210 0.950 . S
C2208 C2207 1.387 . S
C2208 C2211 1.387 . S
H2209 C2205 0.950 . S
H2210 C2207 0.950 . S
C2211 C2202 1.390 . S
C2211 H2204 0.950 . S
C2211 C2208 1.387 . S
C2212 C2213 1.387 . S
C2212 H2216 0.950 . S
C2212 C2221 1.390 . S
C2213 C2212 1.387 . S
C2213 C2215 1.387 . S
H2214 C2221 0.950 . S
C2215 C2213 1.387 . S
C2215 C2217 1.390 . S
C2215 H2219 0.950 . S
H2216 C2212 0.950 . S
C2217 C2215 1.390 . S
C2217 C2218 1.387 . S
C2217 H2220 0.950 . S
C2218 C2217 1.387 . S
C2218 C2221 1.387 . S
H2219 C2215 0.950 . S
H2220 C2217 0.950 . S
C2221 C2212 1.390 . S
C2221 H2214 0.950 . S
C2221 C2218 1.387 . S
C2222 C2223 1.387 . S
C2222 H2226 0.950 . S
C2222 C2231 1.390 . S
C2223 C2222 1.387 . S
C2223 C2225 1.387 . S
H2224 C2231 0.950 . S
C2225 C2223 1.387 . S
C2225 C2227 1.390 . S
C2225 H2229 0.950 . S
H2226 C2222 0.950 . S
C2227 C2225 1.390 . S
C2227 C2228 1.387 . S
C2227 H2230 0.950 . S
C2228 C2227 1.387 . S
C2228 C2231 1.387 . S
H2229 C2225 0.950 . S
H2230 C2227 0.950 . S
C2231 C2222 1.390 . S
C2231 H2224 0.950 . S
C2231 C2228 1.387 . S
C2232 C2233 1.387 . S
C2232 H2236 0.950 . S
C2232 C2241 1.390 . S
C2233 C2232 1.387 . S
C2233 C2235 1.387 . S
H2234 C2241 0.950 . S
C2235 C2233 1.387 . S
C2235 C2237 1.390 . S
C2235 H2239 0.950 . S
H2236 C2232 0.950 . S
C2237 C2235 1.390 . S
C2237 C2238 1.387 . S
C2237 H2240 0.950 . S
C2238 C2237 1.387 . S
C2238 C2241 1.387 . S
H2239 C2235 0.950 . S
H2240 C2237 0.950 . S
C2241 C2232 1.390 . S
C2241 H2234 0.950 . S
C2241 C2238 1.387 . S
C2242 C2243 1.387 . S
C2242 H2246 0.950 . S
C2242 C2251 1.390 . S
C2243 C2242 1.387 . S
C2243 C2245 1.387 . S
H2244 C2251 0.950 . S
C2245 C2243 1.387 . S
C2245 C2247 1.390 . S
C2245 H2249 0.950 . S
H2246 C2242 0.950 . S
C2247 C2245 1.390 . S
C2247 C2248 1.387 . S
C2247 H2250 0.950 . S
C2248 C2247 1.387 . S
C2248 C2251 1.387 . S
H2249 C2245 0.950 . S
H2250 C2247 0.950 . S
C2251 C2242 1.390 . S
C2251 H2244 0.950 . S
C2251 C2248 1.387 . S
C2252 C2253 1.387 . S
C2252 H2256 0.950 . S
C2252 C2261 1.390 . S
C2253 C2252 1.387 . S
C2253 C2255 1.387 . S
H2254 C2261 0.950 . S
C2255 C2253 1.387 . S
C2255 C2257 1.390 . S
C2255 H2259 0.950 . S
H2256 C2252 0.950 . S
C2257 C2255 1.390 . S
C2257 C2258 1.387 . S
C2257 H2260 0.950 . S
C2258 C2257 1.387 . S
C2258 C2261 1.387 . S
H2259 C2255 0.950 . S
H2260 C2257 0.950 . S
C2261 C2252 1.390 . S
C2261 H2254 0.950 . S
C2261 C2258 1.387 . S
C2262 C2263 1.387 . S
C2262 H2266 0.950 . S
C2262 C2271 1.390 . S
C2263 C2262 1.387 . S
C2263 C2265 1.387 . S
H2264 C2271 0.950 . S
C2265 C2263 1.387 . S
C2265 C2267 1.390 . S
C2265 H2269 0.950 . S
H2266 C2262 0.950 . S
C2267 C2265 1.390 . S
C2267 C2268 1.387 . S
C2267 H2270 0.950 . S
C2268 C2267 1.387 . S
C2268 C2271 1.387 . S
H2269 C2265 0.950 . S
H2270 C2267 0.950 . S
C2271 C2262 1.390 . S
C2271 H2264 0.950 . S
C2271 C2268 1.387 . S
C2272 C2273 1.387 . S
C2272 H2276 0.950 . S
C2272 C2281 1.390 . S
C2273 C2272 1.387 . S
C2273 C2275 1.387 . S
H2274 C2281 0.950 . S
C2275 C2273 1.387 . S
C2275 C2277 1.390 . S
C2275 H2279 0.950 . S
H2276 C2272 0.950 . S
C2277 C2275 1.390 . S
C2277 C2278 1.387 . S
C2277 H2280 0.950 . S
C2278 C2277 1.387 . S
C2278 C2281 1.387 . S
H2279 C2275 0.950 . S
H2280 C2277 0.950 . S
C2281 C2272 1.390 . S
C2281 H2274 0.950 . S
C2281 C2278 1.387 . S
C2282 C2283 1.387 . S
C2282 H2286 0.950 . S
C2282 C2291 1.390 . S
C2283 C2282 1.387 . S
C2283 C2285 1.387 . S
H2284 C2291 0.950 . S
C2285 C2283 1.387 . S
C2285 C2287 1.390 . S
C2285 H2289 0.950 . S
H2286 C2282 0.950 . S
C2287 C2285 1.390 . S
C2287 C2288 1.387 . S
C2287 H2290 0.950 . S
C2288 C2287 1.387 . S
C2288 C2291 1.387 . S
H2289 C2285 0.950 . S
H2290 C2287 0.950 . S
C2291 C2282 1.390 . S
C2291 H2284 0.950 . S
C2291 C2288 1.387 . S
C2292 C2293 1.387 . S
C2292 H2296 0.950 . S
C2292 C2301 1.390 . S
C2293 C2292 1.387 . S
C2293 C2295 1.387 . S
H2294 C2301 0.950 . S
C2295 C2293 1.387 . S
C2295 C2297 1.390 . S
C2295 H2299 0.950 . S
H2296 C2292 0.950 . S
C2297 C2295 1.390 . S
C2297 C2298 1.387 . S
C2297 H2300 0.950 . S
C2298 C2297 1.387 . S
C2298 C2301 1.387 . S
H2299 C2295 0.950 . S
H2300 C2297 0.950 . S
C2301 C2292 1.390 . S
C2301 H2294 0.950 . S
C2301 C2298 1.387 . S
C2302 C2303 1.387 . S
C2302 H2306 0.950 . S
C2302 C2311 1.390 . S
C2303 C2302 1.387 . S
C2303 C2305 1.387 . S
H2304 C2311 0.950 . S
C2305 C2303 1.387 . S
C2305 C2307 1.390 . S
C2305 H2309 0.950 . S
H2306 C2302 0.950 . S
C2307 C2305 1.390 . S
C2307 C2308 1.387 . S
C2307 H2310 0.950 . S
C2308 C2307 1.387 . S
C2308 C2311 1.387 . S
H2309 C2305 0.950 . S
H2310 C2307 0.950 . S
C2311 C2302 1.390 . S
C2311 H2304 0.950 . S
C2311 C2308 1.387 . S
C2312 C2313 1.387 . S
C2312 H2316 0.950 . S
C2312 C2321 1.390 . S
C2313 C2312 1.387 . S
C2313 C2315 1.387 . S
H2314 C2321 0.950 . S
C2315 C2313 1.387 . S
C2315 C2317 1.390 . S
C2315 H2319 0.950 . S
H2316 C2312 0.950 . S
C2317 C2315 1.390 . S
C2317 C2318 1.387 . S
C2317 H2320 0.950 . S
C2318 C2317 1.387 . S
C2318 C2321 1.387 . S
H2319 C2315 0.950 . S
H2320 C2317 0.950 . S
C2321 C2312 1.390 . S
C2321 H2314 0.950 . S
C2321 C2318 1.387 . S
C2322 C2323 1.387 . S
C2322 H2326 0.950 . S
C2322 C2331 1.390 . S
C2323 C2322 1.387 . S
C2323 C2325 1.387 . S
H2324 C2331 0.950 . S
C2325 C2323 1.387 . S
C2325 C2327 1.390 . S
C2325 H2329 0.950 . S
H2326 C2322 0.950 . S
C2327 C2325 1.390 . S
C2327 C2328 1.387 . S
C2327 H2330 0.950 . S
C2328 C2327 1.387 . S
C2328 C2331 1.387 . S
H2329 C2325 0.950 . S
H2330 C2327 0.950 . S
C2331 C2322 1.390 . S
C2331 H2324 0.950 . S
C2331 C2328 1.387 . S
C2332 C2333 1.387 . S
C2332 H2336 0.950 . S
C2332 C2341 1.390 . S
C2333 C2332 1.387 . S
C2333 C2335 1.387 . S
H2334 C2341 0.950 . S
C2335 C2333 1.387 . S
C2335 C2337 1.390 . S
C2335 H2339 0.950 . S
H2336 C2332 0.950 . S
C2337 C2335 1.390 . S
C2337 C2338 1.387 . S
C2337 H2340 0.950 . S
C2338 C2337 1.387 . S
C2338 C2341 1.387 . S
H2339 C2335 0.950 . S
H2340 C2337 0.950 . S
C2341 C2332 1.390 . S
C2341 H2334 0.950 . S
C2341 C2338 1.387 . S
C2342 C2343 1.387 . S
C2342 H2346 0.950 . S
C2342 C2351 1.390 . S
C2343 C2342 1.387 . S
C2343 C2345 1.387 . S
H2344 C2351 0.950 . S
C2345 C2343 1.387 . S
C2345 C2347 1.390 . S
C2345 H2349 0.950 . S
H2346 C2342 0.950 . S
C2347 C2345 1.390 . S
C2347 C2348 1.387 . S
C2347 H2350 0.950 . S
C2348 C2347 1.387 . S
C2348 C2351 1.387 . S
H2349 C2345 0.950 . S
H2350 C2347 0.950 . S
C2351 C2342 1.390 . S
C2351 H2344 0.950 . S
C2351 C2348 1.387 . S
C2352 C2353 1.387 . S
C2352 H2356 0.950 . S
C2352 C2361 1.390 . S
C2353 C2352 1.387 . S
C2353 C2355 1.387 . S
H2354 C2361 0.950 . S
C2355 C2353 1.387 . S
C2355 C2357 1.390 . S
C2355 H2359 0.950 . S
H2356 C2352 0.950 . S
C2357 C2355 1.390 . S
C2357 C2358 1.387 . S
C2357 H2360 0.950 . S
C2358 C2357 1.387 . S
C2358 C2361 1.387 . S
H2359 C2355 0.950 . S
H2360 C2357 0.950 . S
C2361 C2352 1.390 . S
C2361 H2354 0.950 . S
C2361 C2358 1.387 . S
C2362 C2363 1.387 . S
C2362 H2366 0.950 . S
C2362 C2371 1.390 . S
C2363 C2362 1.387 . S
C2363 C2365 1.387 . S
H2364 C2371 0.950 . S
C2365 C2363 1.387 . S
C2365 C2367 1.390 . S
C2365 H2369 0.950 . S
H2366 C2362 0.950 . S
C2367 C2365 1.390 . S
C2367 C2368 1.387 . S
C2367 H2370 0.950 . S
C2368 C2367 1.387 . S
C2368 C2371 1.387 . S
H2369 C2365 0.950 . S
H2370 C2367 0.950 . S
C2371 C2362 1.390 . S
C2371 H2364 0.950 . S
C2371 C2368 1.387 . S
C2372 C2373 1.387 . S
C2372 H2376 0.950 . S
C2372 C2381 1.390 . S
C2373 C2372 1.387 . S
C2373 C2375 1.387 . S
H2374 C2381 0.950 . S
C2375 C2373 1.387 . S
C2375 C2377 1.390 . S
C2375 H2379 0.950 . S
H2376 C2372 0.950 . S
C2377 C2375 1.390 . S
C2377 C2378 1.387 . S
C2377 H2380 0.950 . S
C2378 C2377 1.387 . S
C2378 C2381 1.387 . S
H2379 C2375 0.950 . S
H2380 C2377 0.950 . S
C2381 C2372 1.390 . S
C2381 H2374 0.950 . S
C2381 C2378 1.387 . S
C2382 C2383 1.387 . S
C2382 H2386 0.950 . S
C2382 C2391 1.390 . S
C2383 C2382 1.387 . S
C2383 C2385 1.387 . S
H2384 C2391 0.950 . S
C2385 C2383 1.387 . S
C2385 C2387 1.390 . S
C2385 H2389 0.950 . S
H2386 C2382 0.950 . S
C2387 C2385 1.390 . S
C2387 C2388 1.387 . S
C2387 H2390 0.950 . S
C2388 C2387 1.387 . S
C2388 C2391 1.387 . S
H2389 C2385 0.950 . S
H2390 C2387 0.950 . S
C2391 C2382 1.390 . S
C2391 H2384 0.950 . S
C2391 C2388 1.387 . S
C2392 C2393 1.387 . S
C2392 H2396 0.950 . S
C2392 C2401 1.390 . S
C2393 C2392 1.387 . S
C2393 C2395 1.387 . S
H2394 C2401 0.950 . S
C2395 C2393 1.387 . S
C2395 C2397 1.390 . S
C2395 H2399 0.950 . S
H2396 C2392 0.950 . S
C2397 C2395 1.390 . S
C2397 C2398 1.387 . S
C2397 H2400 0.950 . S
C2398 C2397 1.387 . S
C2398 C2401 1.387 . S
H2399 C2395 0.950 . S
H2400 C2397 0.950 . S
C2401 C2392 1.390 . S
C2401 H2394 0.950 . S
C2401 C2398 1.387 . S
C2402 C2403 1.387 . S
C2402 H2406 0.950 . S
C2402 C2411 1.390 . S
C2403 C2402 1.387 . S
C2403 C2405 1.387 . S
H2404 C2411 0.950 . S
C2405 C2403 1.387 . S
C2405 C2407 1.390 . S
C2405 H2409 0.950 . S
H2406 C2402 0.950 . S
C2407 C2405 1.390 . S
C2407 C2408 1.387 . S
C2407 H2410 0.950 . S
C2408 C2407 1.387 . S
C2408 C2411 1.387 . S
H2409 C2405 0.950 . S
H2410 C2407 0.950 . S
C2411 C2402 1.390 . S
C2411 H2404 0.950 . S
C2411 C2408 1.387 . S
C2412 C2413 1.387 . S
C2412 H2416 0.950 . S
C2412 C2421 1.390 . S
C2413 C2412 1.387 . S
C2413 C2415 1.387 . S
H2414 C2421 0.950 . S
C2415 C2413 1.387 . S
C2415 C2417 1.390 . S
C2415 H2419 0.950 . S
H2416 C2412 0.950 . S
C2417 C2415 1.390 . S
C2417 C2418 1.387 . S
C2417 H2420 0.950 . S
C2418 C2417 1.387 . S
C2418 C2421 1.387 . S
H2419 C2415 0.950 . S
H2420 C2417 0.950 . S
C2421 C2412 1.390 . S
C2421 H2414 0.950 . S
C2421 C2418 1.387 . S
C2422 C2423 1.387 . S
C2422 H2426 0.950 . S
C2422 C2431 1.390 . S
C2423 C2422 1.387 . S
C2423 C2425 1.387 . S
H2424 C2431 0.950 . S
C2425 C2423 1.387 . S
C2425 C2427 1.390 . S
C2425 H2429 0.950 . S
H2426 C2422 0.950 . S
C2427 C2425 1.390 . S
C2427 C2428 1.387 . S
C2427 H2430 0.950 . S
C2428 C2427 1.387 . S
C2428 C2431 1.387 . S
H2429 C2425 0.950 . S
H2430 C2427 0.950 . S
C2431 C2422 1.390 . S
C2431 H2424 0.950 . S
C2431 C2428 1.387 . S
C2432 C2433 1.387 . S
C2432 H2436 0.950 . S
C2432 C2441 1.390 . S
C2433 C2432 1.387 . S
C2433 C2435 1.387 . S
H2434 C2441 0.950 . S
C2435 C2433 1.387 . S
C2435 C2437 1.390 . S
C2435 H2439 0.950 . S
H2436 C2432 0.950 . S
C2437 C2435 1.390 . S
C2437 C2438 1.387 . S
C2437 H2440 0.950 . S
C2438 C2437 1.387 . S
C2438 C2441 1.387 . S
H2439 C2435 0.950 . S
H2440 C2437 0.950 . S
C2441 C2432 1.390 . S
C2441 H2434 0.950 . S
C2441 C2438 1.387 . S
C2442 C2443 1.387 . S
C2442 H2446 0.950 . S
C2442 C2451 1.390 . S
C2443 C2442 1.387 . S
C2443 C2445 1.387 . S
H2444 C2451 0.950 . S
C2445 C2443 1.387 . S
C2445 C2447 1.390 . S
C2445 H2449 0.950 . S
H2446 C2442 0.950 . S
C2447 C2445 1.390 . S
C2447 C2448 1.387 . S
C2447 H2450 0.950 . S
C2448 C2447 1.387 . S
C2448 C2451 1.387 . S
H2449 C2445 0.950 . S
H2450 C2447 0.950 . S
C2451 C2442 1.390 . S
C2451 H2444 0.950 . S
C2451 C2448 1.387 . S
C2452 C2453 1.387 . S
C2452 H2456 0.950 . S
C2452 C2461 1.390 . S
C2453 C2452 1.387 . S
C2453 C2455 1.387 . S
H2454 C2461 0.950 . S
C2455 C2453 1.387 . S
C2455 C2457 1.390 . S
C2455 H2459 0.950 . S
H2456 C2452 0.950 . S
C2457 C2455 1.390 . S
C2457 C2458 1.387 . S
C2457 H2460 0.950 . S
C2458 C2457 1.387 . S
C2458 C2461 1.387 . S
H2459 C2455 0.950 . S
H2460 C2457 0.950 . S
C2461 C2452 1.390 . S
C2461 H2454 0.950 . S
C2461 C2458 1.387 . S
C2462 C2463 1.387 . S
C2462 H2466 0.950 . S
C2462 C2471 1.390 . S
C2463 C2462 1.387 . S
C2463 C2465 1.387 . S
H2464 C2471 0.950 . S
C2465 C2463 1.387 . S
C2465 C2467 1.390 . S
C2465 H2469 0.950 . S
H2466 C2462 0.950 . S
C2467 C2465 1.390 . S
C2467 C2468 1.387 . S
C2467 H2470 0.950 . S
C2468 C2467 1.387 . S
C2468 C2471 1.387 . S
H2469 C2465 0.950 . S
H2470 C2467 0.950 . S
C2471 C2462 1.390 . S
C2471 H2464 0.950 . S
C2471 C2468 1.387 . S
C2472 C2473 1.387 . S
C2472 H2476 0.950 . S
C2472 C2481 1.390 . S
C2473 C2472 1.387 . S
C2473 C2475 1.387 . S
H2474 C2481 0.950 . S
C2475 C2473 1.387 . S
C2475 C2477 1.390 . S
C2475 H2479 0.950 . S
H2476 C2472 0.950 . S
C2477 C2475 1.390 . S
C2477 C2478 1.387 . S
C2477 H2480 0.950 . S
C2478 C2477 1.387 . S
C2478 C2481 1.387 . S
H2479 C2475 0.950 . S
H2480 C2477 0.950 . S
C2481 C2472 1.390 . S
C2481 H2474 0.950 . S
C2481 C2478 1.387 . S
C2482 C2483 1.387 . S
C2482 H2486 0.950 . S
C2482 C2491 1.390 . S
C2483 C2482 1.387 . S
C2483 C2485 1.387 . S
H2484 C2491 0.950 . S
C2485 C2483 1.387 . S
C2485 C2487 1.390 . S
C2485 H2489 0.950 . S
H2486 C2482 0.950 . S
C2487 C2485 1.390 . S
C2487 C2488 1.387 . S
C2487 H2490 0.950 . S
C2488 C2487 1.387 . S
C2488 C2491 1.387 . S
H2489 C2485 0.950 . S
H2490 C2487 0.950 . S
C2491 C2482 1.390 . S
C2491 H2484 0.950 . S
C2491 C2488 1.387 . S
C2492 C2493 1.387 . S
C2492 H2496 0.950 . S
C2492 C2501 1.390 . S
C2493 C2492 1.387 . S
C2493 C2495 1.387 . S
H2494 C2501 0.950 . S
C2495 C2493 1.387 . S
C2495 C2497 1.390 . S
C2495 H2499 0.950 . S
H2496 C2492 0.950 . S
C2497 C2495 1.390 . S
C2497 C2498 1.387 . S
C2497 H2500 0.950 . S
C2498 C2497 1.387 . S
C2498 C2501 1.387 . S
H2499 C2495 0.950 . S
H2500 C2497 0.950 . S
C2501 C2492 1.390 . S
C2501 H2494 0.950 . S
C2501 C2498 1.387 . S
C2502 C2503 1.387 . S
C2502 H2506 0.950 . S
C2502 C2511 1.390 . S
C2503 C2502 1.387 . S
C2503 C2505 1.387 . S
H2504 C2511 0.950 . S
C2505 C2503 1.387 . S
C2505 C2507 1.390 . S
C2505 H2509 0.950 . S
H2506 C2502 0.950 . S
C2507 C2505 1.390 . S
C2507 C2508 1.387 . S
C2507 H2510 0.950 . S
C2508 C2507 1.387 . S
C2508 C2511 1.387 . S
H2509 C2505 0.950 . S
H2510 C2507 0.950 . S
C2511 C2502 1.390 . S
C2511 H2504 0.950 . S
C2511 C2508 1.387 . S
C2512 C2513 1.387 . S
C2512 H2516 0.950 . S
C2512 C2521 1.390 . S
C2513 C2512 1.387 . S
C2513 C2515 1.387 . S
H2514 C2521 0.950 . S
C2515 C2513 1.387 . S
C2515 C2517 1.390 . S
C2515 H2519 0.950 . S
H2516 C2512 0.950 . S
C2517 C2515 1.390 . S
C2517 C2518 1.387 . S
C2517 H2520 0.950 . S
C2518 C2517 1.387 . S
C2518 C2521 1.387 . S
H2519 C2515 0.950 . S
H2520 C2517 0.950 . S
C2521 C2512 1.390 . S
C2521 H2514 0.950 . S
C2521 C2518 1.387 . S
C2522 C2523 1.387 . S
C2522 H2526 0.950 . S
C2522 C2531 1.390 . S
C2523 C2522 1.387 . S
C2523 C2525 1.387 . S
H2524 C2531 0.950 . S
C2525 C2523 1.387 . S
C2525 C2527 1.390 . S
C2525 H2529 0.950 . S
H2526 C2522 0.950 . S
C2527 C2525 1.390 . S
C2527 C2528 1.387 . S
C2527 H2530 0.950 . S
C2528 C2527 1.387 . S
C2528 C2531 1.387 . S
H2529 C2525 0.950 . S
H2530 C2527 0.950 . S
C2531 C2522 1.390 . S
C2531 H2524 0.950 . S
C2531 C2528 1.387 . S
C2532 C2533 1.387 . S
C2532 H2536 0.950 . S
C2532 C2541 1.390 . S
C2533 C2532 1.387 . S
C2533 C2535 1.387 . S
H2534 C2541 0.950 . S
C2535 C2533 1.387 . S
C2535 C2537 1.390 . S
C2535 H2539 0.950 . S
H2536 C2532 0.950 . S
C2537 C2535 1.390 . S
C2537 C2538 1.387 . S
C2537 H2540 0.950 . S
C2538 C2537 1.387 . S
C2538 C2541 1.387 . S
H2539 C2535 0.950 . S
H2540 C2537 0.950 . S
C2541 C2532 1.390 . S
C2541 H2534 0.950 . S
C2541 C2538 1.387 . S
C2542 C2543 1.387 . S
C2542 H2546 0.950 . S
C2542 C2551 1.390 . S
C2543 C2542 1.387 . S
C2543 C2545 1.387 . S
H2544 C2551 0.950 . S
C2545 C2543 1.387 . S
C2545 C2547 1.390 . S
C2545 H2549 0.950 . S
H2546 C2542 0.950 . S
C2547 C2545 1.390 . S
C2547 C2548 1.387 . S
C2547 H2550 0.950 . S
C2548 C2547 1.387 . S
C2548 C2551 1.387 . S
H2549 C2545 0.950 . S
H2550 C2547 0.950 . S
C2551 C2542 1.390 . S
C2551 H2544 0.950 . S
C2551 C2548 1.387 . S
C2552 C2553 1.387 . S
C2552 H2556 0.950 . S
C2552 C2561 1.390 . S
C2553 C2552 1.387 . S
C2553 C2555 1.387 . S
H2554 C2561 0.950 . S
C2555 C2553 1.387 . S
C2555 C2557 1.390 . S
C2555 H2559 0.950 . S
H2556 C2552 0.950 . S
C2557 C2555 1.390 . S
C2557 C2558 1.387 . S
C2557 H2560 0.950 . S
C2558 C2557 1.387 . S
C2558 C2561 1.387 . S
H2559 C2555 0.950 . S
H2560 C2557 0.950 . S
C2561 C2552 1.390 . S
C2561 H2554 0.950 . S
C2561 C2558 1.387 . S
C2562 C2563 1.387 . S
C2562 H2566 0.950 . S
C2562 C2571 1.390 . S
C2563 C2562 1.387 . S
C2563 C2565 1.387 . S
H2564 C2571 0.950 . S
C2565 C2563 1.387 . S
C2565 C2567 1.390 . S
C2565 H2569 0.950 . S
H2566 C2562 0.950 . S
C2567 C2565 1.390 . S
C2567 C2568 1.387 . S
C2567 H2570 0.950 . S
C2568 C2567 1.387 . S
C2568 C2571 1.387 . S
H2569 C2565 0.950 . S
H2570 C2567 0.950 . S
C2571 C2562 1.390 . S
C2571 H2564 0.950 . S
C2571 C2568 1.387 . S
C2572 C2573 1.387 . S
C2572 H2576 0.950 . S
C2572 C2581 1.390 . S
C2573 C2572 1.387 . S
C2573 C2575 1.387 . S
H2574 C2581 0.950 . S
C2575 C2573 1.387 . S
C2575 C2577 1.390 . S
C2575 H2579 0.950 . S
H2576 C2572 0.950 . S
C2577 C2575 1.390 . S
C2577 C2578 1.387 . S
C2577 H2580 0.950 . S
C2578 C2577 1.387 . S
C2578 C2581 1.387 . S
H2579 C2575 0.950 . S
H2580 C2577 0.950 . S
C2581 C2572 1.390 . S
C2581 H2574 0.950 . S
C2581 C2578 1.387 . S
C2582 C2583 1.387 . S
C2582 H2586 0.950 . S
C2582 C2591 1.390 . S
C2583 C2582 1.387 . S
C2583 C2585 1.387 . S
H2584 C2591 0.950 . S
C2585 C2583 1.387 . S
C2585 C2587 1.390 . S
C2585 H2589 0.950 . S
H2586 C2582 0.950 . S
C2587 C2585 1.390 . S
C2587 C2588 1.387 . S
C2587 H2590 0.950 . S
C2588 C2587 1.387 . S
C2588 C2591 1.387 . S
H2589 C2585 0.950 . S
H2590 C2587 0.950 . S
C2591 C2582 1.390 . S
C2591 H2584 0.950 . S
C2591 C2588 1.387 . S
C2592 C2593 1.387 . S
C2592 H2596 0.950 . S
C2592 C2601 1.390 . S
C2593 C2592 1.387 . S
C2593 C2595 1.387 . S
H2594 C2601 0.950 . S
C2595 C2593 1.387 . S
C2595 C2597 1.390 . S
C2595 H2599 0.950 . S
H2596 C2592 0.950 . S
C2597 C2595 1.390 . S
C2597 C2598 1.387 . S
C2597 H2600 0.950 . S
C2598 C2597 1.387 . S
C2598 C2601 1.387 . S
H2599 C2595 0.950 . S
H2600 C2597 0.950 . S
C2601 C2592 1.390 . S
C2601 H2594 0.950 . S
C2601 C2598 1.387 . S
C2602 C2603 1.387 . S
C2602 H2606 0.950 . S
C2602 C2611 1.390 . S
C2603 C2602 1.387 . S
C2603 C2605 1.387 . S
H2604 C2611 0.950 . S
C2605 C2603 1.387 . S
C2605 C2607 1.390 . S
C2605 H2609 0.950 . S
H2606 C2602 0.950 . S
C2607 C2605 1.390 . S
C2607 C2608 1.387 . S
C2607 H2610 0.950 . S
C2608 C2607 1.387 . S
C2608 C2611 1.387 . S
H2609 C2605 0.950 . S
H2610 C2607 0.950 . S
C2611 C2602 1.390 . S
C2611 H2604 0.950 . S
C2611 C2608 1.387 . S
C2612 C2613 1.387 . S
C2612 H2616 0.950 . S
C2612 C2621 1.390 . S
C2613 C2612 1.387 . S
C2613 C2615 1.387 . S
H2614 C2621 0.950 . S
C2615 C2613 1.387 . S
C2615 C2617 1.390 . S
C2615 H2619 0.950 . S
H2616 C2612 0.950 . S
C2617 C2615 1.390 . S
C2617 C2618 1.387 . S
C2617 H2620 0.950 . S
C2618 C2617 1.387 . S
C2618 C2621 1.387 . S
H2619 C2615 0.950 . S
H2620 C2617 0.950 . S
C2621 C2612 1.390 . S
C2621 H2614 0.950 . S
C2621 C2618 1.387 . S
C2622 C2623 1.387 . S
C2622 H2626 0.950 . S
C2622 C2631 1.390 . S
C2623 C2622 1.387 . S
C2623 C2625 1.387 . S
H2624 C2631 0.950 . S
C2625 C2623 1.387 . S
C2625 C2627 1.390 . S
C2625 H2629 0.950 . S
H2626 C2622 0.950 . S
C2627 C2625 1.390 . S
C2627 C2628 1.387 . S
C2627 H2630 0.950 . S
C2628 C2627 1.387 . S
C2628 C2631 1.387 . S
H2629 C2625 0.950 . S
H2630 C2627 0.950 . S
C2631 C2622 1.390 . S
C2631 H2624 0.950 . S
C2631 C2628 1.387 . S
C2632 C2633 1.387 . S
C2632 H2636 0.950 . S
C2632 C2641 1.390 . S
C2633 C2632 1.387 . S
C2633 C2635 1.387 . S
H2634 C2641 0.950 . S
C2635 C2633 1.387 . S
C2635 C2637 1.390 . S
C2635 H2639 0.950 . S
H2636 C2632 0.950 . S
C2637 C2635 1.390 . S
C2637 C2638 1.387 . S
C2637 H2640 0.950 . S
C2638 C2637 1.387 . S
C2638 C2641 1.387 . S
H2639 C2635 0.950 . S
H2640 C2637 0.950 . S
C2641 C2632 1.390 . S
C2641 H2634 0.950 . S
C2641 C2638 1.387 . S
C2642 C2643 1.387 . S
C2642 H2646 0.950 . S
C2642 C2651 1.390 . S
C2643 C2642 1.387 . S
C2643 C2645 1.387 . S
H2644 C2651 0.950 . S
C2645 C2643 1.387 . S
C2645 C2647 1.390 . S
C2645 H2649 0.950 . S
H2646 C2642 0.950 . S
C2647 C2645 1.390 . S
C2647 C2648 1.387 . S
C2647 H2650 0.950 . S
C2648 C2647 1.387 . S
C2648 C2651 1.387 . S
H2649 C2645 0.950 . S
H2650 C2647 0.950 . S
C2651 C2642 1.390 . S
C2651 H2644 0.950 . S
C2651 C2648 1.387 . S
C2652 C2653 1.387 . S
C2652 H2656 0.950 . S
C2652 C2661 1.390 . S
C2653 C2652 1.387 . S
C2653 C2655 1.387 . S
H2654 C2661 0.950 . S
C2655 C2653 1.387 . S
C2655 C2657 1.390 . S
C2655 H2659 0.950 . S
H2656 C2652 0.950 . S
C2657 C2655 1.390 . S
C2657 C2658 1.387 . S
C2657 H2660 0.950 . S
C2658 C2657 1.387 . S
C2658 C2661 1.387 . S
H2659 C2655 0.950 . S
H2660 C2657 0.950 . S
C2661 C2652 1.390 . S
C2661 H2654 0.950 . S
C2661 C2658 1.387 . S
C2662 C2663 1.387 . S
C2662 H2666 0.950 . S
C2662 C2671 1.390 . S
C2663 C2662 1.387 . S
C2663 C2665 1.387 . S
H2664 C2671 0.950 . S
C2665 C2663 1.387 . S
C2665 C2667 1.390 . S
C2665 H2669 0.950 . S
H2666 C2662 0.950 . S
C2667 C2665 1.390 . S
C2667 C2668 1.387 . S
C2667 H2670 0.950 . S
C2668 C2667 1.387 . S
C2668 C2671 1.387 . S
H2669 C2665 0.950 . S
H2670 C2667 0.950 . S
C2671 C2662 1.390 . S
C2671 H2664 0.950 . S
C2671 C2668 1.387 . S
C2672 C2673 1.387 . S
C2672 H2676 0.950 . S
C2672 C2681 1.390 . S
C2673 C2672 1.387 . S
C2673 C2675 1.387 . S
H2674 C2681 0.950 . S
C2675 C2673 1.387 . S
C2675 C2677 1.390 . S
C2675 H2679 0.950 . S
H2676 C2672 0.950 . S
C2677 C2675 1.390 . S
C2677 C2678 1.387 . S
C2677 H2680 0.950 . S
C2678 C2677 1.387 . S
C2678 C2681 1.387 . S
H2679 C2675 0.950 . S
H2680 C2677 0.950 . S
C2681 C2672 1.390 . S
C2681 H2674 0.950 . S
C2681 C2678 1.387 . S
C2682 C2683 1.387 . S
C2682 H2686 0.950 . S
C2682 C2691 1.390 . S
C2683 C2682 1.387 . S
C2683 C2685 1.387 . S
H2684 C2691 0.950 . S
C2685 C2683 1.387 . S
C2685 C2687 1.390 . S
C2685 H2689 0.950 . S
H2686 C2682 0.950 . S
C2687 C2685 1.390 . S
C2687 C2688 1.387 . S
C2687 H2690 0.950 . S
C2688 C2687 1.387 . S
C2688 C2691 1.387 . S
H2689 C2685 0.950 . S
H2690 C2687 0.950 . S
C2691 C2682 1.390 . S
C2691 H2684 0.950 . S
C2691 C2688 1.387 . S
C2692 C2693 1.387 . S
C2692 H2696 0.950 . S
C2692 C2701 1.390 . S
C2693 C2692 1.387 . S
C2693 C2695 1.387 . S
H2694 C2701 0.950 . S
C2695 C2693 1.387 . S
C2695 C2697 1.390 . S
C2695 H2699 0.950 . S
H2696 C2692 0.950 . S
C2697 C2695 1.390 . S
C2697 C2698 1.387 . S
C2697 H2700 0.950 . S
C2698 C2697 1.387 . S
C2698 C2701 1.387 . S
H2699 C2695 0.950 . S
H2700 C2697 0.950 . S
C2701 C2692 1.390 . S
C2701 H2694 0.950 . S
C2701 C2698 1.387 . S
C2702 C2703 1.387 . S
C2702 H2706 0.950 . S
C2702 C2711 1.390 . S
C2703 C2702 1.387 . S
C2703 C2705 1.387 . S
H2704 C2711 0.950 . S
C2705 C2703 1.387 . S
C2705 C2707 1.390 . S
C2705 H2709 0.950 . S
H2706 C2702 0.950 . S
C2707 C2705 1.390 . S
C2707 C2708 1.387 . S
C2707 H2710 0.950 . S
C2708 C2707 1.387 . S
C2708 C2711 1.387 . S
H2709 C2705 0.950 . S
H2710 C2707 0.950 . S
C2711 C2702 1.390 . S
C2711 H2704 0.950 . S
C2711 C2708 1.387 . S
C2712 C2713 1.387 . S
C2712 H2716 0.950 . S
C2712 C2721 1.390 . S
C2713 C2712 1.387 . S
C2713 C2715 1.387 . S
H2714 C2721 0.950 . S
C2715 C2713 1.387 . S
C2715 C2717 1.390 . S
C2715 H2719 0.950 . S
H2716 C2712 0.950 . S
C2717 C2715 1.390 . S
C2717 C2718 1.387 . S
C2717 H2720 0.950 . S
C2718 C2717 1.387 . S
C2718 C2721 1.387 . S
H2719 C2715 0.950 . S
H2720 C2717 0.950 . S
C2721 C2712 1.390 . S
C2721 H2714 0.950 . S
C2721 C2718 1.387 . S
C2722 C2723 1.387 . S
C2722 H2726 0.950 . S
C2722 C2731 1.390 . S
C2723 C2722 1.387 . S
C2723 C2725 1.387 . S
H2724 C2731 0.950 . S
C2725 C2723 1.387 . S
C2725 C2727 1.390 . S
C2725 H2729 0.950 . S
H2726 C2722 0.950 . S
C2727 C2725 1.390 . S
C2727 C2728 1.387 . S
C2727 H2730 0.950 . S
C2728 C2727 1.387 . S
C2728 C2731 1.387 . S
H2729 C2725 0.950 . S
H2730 C2727 0.950 . S
C2731 C2722 1.390 . S
C2731 H2724 0.950 . S
C2731 C2728 1.387 . S
C2732 C2733 1.387 . S
C2732 H2736 0.950 . S
C2732 C2741 1.390 . S
C2733 C2732 1.387 . S
C2733 C2735 1.387 . S
H2734 C2741 0.950 . S
C2735 C2733 1.387 . S
C2735 C2737 1.390 . S
C2735 H2739 0.950 . S
H2736 C2732 0.950 . S
C2737 C2735 1.390 . S
C2737 C2738 1.387 . S
C2737 H2740 0.950 . S
C2738 C2737 1.387 . S
C2738 C2741 1.387 . S
H2739 C2735 0.950 . S
H2740 C2737 0.950 . S
C2741 C2732 1.390 . S
C2741 H2734 0.950 . S
C2741 C2738 1.387 . S
C2742 C2743 1.387 . S
C2742 H2746 0.950 . S
C2742 C2751 1.390 . S
C2743 C2742 1.387 . S
C2743 C2745 1.387 . S
H2744 C2751 0.950 . S
C2745 C2743 1.387 . S
C2745 C2747 1.390 . S
C2745 H2749 0.950 . S
H2746 C2742 0.950 . S
C2747 C2745 1.390 . S
C2747 C2748 1.387 . S
C2747 H2750 0.950 . S
C2748 C2747 1.387 . S
C2748 C2751 1.387 . S
H2749 C2745 0.950 . S
H2750 C2747 0.950 . S
C2751 C2742 1.390 . S
C2751 H2744 0.950 . S
C2751 C2748 1.387 . S
C2752 C2753 1.387 . S
C2752 H2756 0.950 . S
C2752 C2761 1.390 . S
C2753 C2752 1.387 . S
C2753 C2755 1.387 . S
H2754 C2761 0.950 . S
C2755 C2753 1.387 . S
C2755 C2757 1.390 . S
C2755 H2759 0.950 . S
H2756 C2752 0.950 . S
C2757 C2755 1.390 . S
C2757 C2758 1.387 . S
C2757 H2760 0.950 . S
C2758 C2757 1.387 . S
C2758 C2761 1.387 . S
H2759 C2755 0.950 . S
H2760 C2757 0.950 . S
C2761 C2752 1.390 . S
C2761 H2754 0.950 . S
C2761 C2758 1.387 . S
C2762 C2763 1.387 . S
C2762 H2766 0.950 . S
C2762 C2771 1.390 . S
C2763 C2762 1.387 . S
C2763 C2765 1.387 . S
H2764 C2771 0.950 . S
C2765 C2763 1.387 . S
C2765 C2767 1.390 . S
C2765 H2769 0.950 . S
H2766 C2762 0.950 . S
C2767 C2765 1.390 . S
C2767 C2768 1.387 . S
C2767 H2770 0.950 . S
C2768 C2767 1.387 . S
C2768 C2771 1.387 . S
H2769 C2765 0.950 . S
H2770 C2767 0.950 . S
C2771 C2762 1.390 . S
C2771 H2764 0.950 . S
C2771 C2768 1.387 . S
C2772 C2773 1.387 . S
C2772 H2776 0.950 . S
C2772 C2781 1.390 . S
C2773 C2772 1.387 . S
C2773 C2775 1.387 . S
H2774 C2781 0.950 . S
C2775 C2773 1.387 . S
C2775 C2777 1.390 . S
C2775 H2779 0.950 . S
H2776 C2772 0.950 . S
C2777 C2775 1.390 . S
C2777 C2778 1.387 . S
C2777 H2780 0.950 . S
C2778 C2777 1.387 . S
C2778 C2781 1.387 . S
H2779 C2775 0.950 . S
H2780 C2777 0.950 . S
C2781 C2772 1.390 . S
C2781 H2774 0.950 . S
C2781 C2778 1.387 . S
C2782 C2783 1.387 . S
C2782 H2786 0.950 . S
C2782 C2791 1.390 . S
C2783 C2782 1.387 . S
C2783 C2785 1.387 . S
H2784 C2791 0.950 . S
C2785 C2783 1.387 . S
C2785 C2787 1.390 . S
C2785 H2789 0.950 . S
H2786 C2782 0.950 . S
C2787 C2785 1.390 . S
C2787 C2788 1.387 . S
C2787 H2790 0.950 . S
C2788 C2787 1.387 . S
C2788 C2791 1.387 . S
H2789 C2785 0.950 . S
H2790 C2787 0.950 . S
C2791 C2782 1.390 . S
C2791 H2784 0.950 . S
C2791 C2788 1.387 . S
C2792 C2793 1.387 . S
C2792 H2796 0.950 . S
C2792 C2801 1.390 . S
C2793 C2792 1.387 . S
C2793 C2795 1.387 . S
H2794 C2801 0.950 . S
C2795 C2793 1.387 . S
C2795 C2797 1.390 . S
C2795 H2799 0.950 . S
H2796 C2792 0.950 . S
C2797 C2795 1.390 . S
C2797 C2798 1.387 . S
C2797 H2800 0.950 . S
C2798 C2797 1.387 . S
C2798 C2801 1.387 . S
H2799 C2795 0.950 . S
H2800 C2797 0.950 . S
C2801 C2792 1.390 . S
C2801 H2794 0.950 . S
C2801 C2798 1.387 . S
C2802 C2803 1.387 . S
C2802 H2806 0.950 . S
C2802 C2811 1.390 . S
C2803 C2802 1.387 . S
C2803 C2805 1.387 . S
H2804 C2811 0.950 . S
C2805 C2803 1.387 . S
C2805 C2807 1.390 . S
C2805 H2809 0.950 . S
H2806 C2802 0.950 . S
C2807 C2805 1.390 . S
C2807 C2808 1.387 . S
C2807 H2810 0.950 . S
C2808 C2807 1.387 . S
C2808 C2811 1.387 . S
H2809 C2805 0.950 . S
H2810 C2807 0.950 . S
C2811 C2802 1.390 . S
C2811 H2804 0.950 . S
C2811 C2808 1.387 . S
C2812 C2813 1.387 . S
C2812 H2816 0.950 . S
C2812 C2821 1.390 . S
C2813 C2812 1.387 . S
C2813 C2815 1.387 . S
H2814 C2821 0.950 . S
C2815 C2813 1.387 . S
C2815 C2817 1.390 . S
C2815 H2819 0.950 . S
H2816 C2812 0.950 . S
C2817 C2815 1.390 . S
C2817 C2818 1.387 . S
C2817 H2820 0.950 . S
C2818 C2817 1.387 . S
C2818 C2821 1.387 . S
H2819 C2815 0.950 . S
H2820 C2817 0.950 . S
C2821 C2812 1.390 . S
C2821 H2814 0.950 . S
C2821 C2818 1.387 . S
C2822 C2823 1.387 . S
C2822 H2826 0.950 . S
C2822 C2831 1.390 . S
C2823 C2822 1.387 . S
C2823 C2825 1.387 . S
H2824 C2831 0.950 . S
C2825 C2823 1.387 . S
C2825 C2827 1.390 . S
C2825 H2829 0.950 . S
H2826 C2822 0.950 . S
C2827 C2825 1.390 . S
C2827 C2828 1.387 . S
C2827 H2830 0.950 . S
C2828 C2827 1.387 . S
C2828 C2831 1.387 . S
H2829 C2825 0.950 . S
H2830 C2827 0.950 . S
C2831 C2822 1.390 . S
C2831 H2824 0.950 . S
C2831 C2828 1.387 . S
C1633 C621 1.639 1_554 S
C1638 C20 1.639 . S
C1643 C54 1.639 . S
C1648 C655 1.639 1_554 S
C1653 C88 1.640 . S
C1658 C689 1.639 1_554 S
C1663 C587 1.639 1_554 S
C1668 C122 1.640 . S
C1673 C757 1.638 1_556 S
C1678 C156 1.639 . S
C1683 C190 1.638 . S
C1688 C553 1.637 1_556 S
C1693 C791 1.639 1_556 S
C1698 C224 1.640 . S
C1703 C723 1.639 1_556 S
C1708 C258 1.640 . S
C1713 C292 1.640 . S
C1718 C315 1.639 1_455 S
C1723 C349 1.638 1_545 S
C1728 C326 1.639 . S
C1733 C383 1.638 1_655 S
C1738 C360 1.638 . S
C1743 C394 1.640 . S
C1748 C281 1.639 1_565 S
C1753 C519 1.639 1_455 S
C1758 C428 1.640 . S
C1763 C462 1.638 . S
C1768 C417 1.638 1_545 S
C1773 C451 1.638 1_655 S
C1778 C496 1.638 . S
C1783 C485 1.638 1_565 S
C1788 C530 1.638 . S
C1793 C564 1.639 . S
C1798 C111 1.638 1_545 S
C1803 C179 1.638 1_565 S
C1808 C598 1.638 . S
C1813 C632 1.638 . S
C1818 C213 1.638 1_455 S
C1823 C247 1.639 1_545 S
C1828 C666 1.639 . S
C1833 C145 1.639 1_655 S
C1838 C700 1.640 . S
C1843 C734 1.638 . S
C1848 C43 1.638 1_565 S
C1853 C768 1.638 . S
C1858 C77 1.638 1_455 S
C1863 C9 1.639 1_655 S
C1868 C802 1.639 . S
C1873 C836 1.640 . S
C1878 C1437 1.639 . S
C1883 C1471 1.639 . S
C1888 C870 1.639 . S
C1893 C1505 1.638 . S
C1898 C904 1.639 . S
C1903 C938 1.640 . S
C1908 C1403 1.639 . S
C1913 C1573 1.638 . S
C1918 C972 1.638 . S
C1923 C1006 1.639 . S
C1928 C1369 1.638 . S
C1933 C1607 1.638 . S
C1938 C1040 1.639 . S
C1943 C1539 1.639 . S
C1948 C1074 1.640 . S
C1953 C1131 1.639 . S
C1958 C1108 1.640 . S
C1963 C1142 1.639 . S
C1968 C1165 1.638 . S
C1973 C1199 1.638 . S
C1978 C1176 1.638 . S
C1983 C1210 1.640 . S
C1988 C1097 1.638 . S
C1993 C1244 1.638 . S
C1998 C1335 1.638 . S
C2003 C1233 1.638 . S
C2008 C1278 1.639 . S
C2013 C1312 1.638 . S
C2018 C1267 1.638 . S
C2023 C1301 1.638 . S
C2028 C1346 1.638 . S
C2033 C927 1.639 . S
C2038 C1380 1.639 . S
C2043 C1414 1.640 . S
C2048 C995 1.639 . S
C2053 C1448 1.639 . S
C2058 C1029 1.639 . S
C2063 C1063 1.639 . S
C2068 C1482 1.640 . S
C2073 C961 1.638 . S
C2078 C1516 1.638 . S
C2083 C859 1.639 . S
C2088 C1550 1.639 . S
C2093 C1584 1.639 . S
C2098 C893 1.638 . S
C2103 C825 1.638 . S
C2108 C1618 1.638 . S
C2113 C1087 1.442 . S
C2118 C33 1.441 . S
C2123 C985 1.440 . S
C2128 C67 1.439 . S
C2133 C101 1.444 . S
C2138 C1019 1.444 . S
C2143 C1053 1.443 . S
C2148 C135 1.444 . S
C2153 C169 1.444 . S
C2158 C883 1.444 . S
C2163 C917 1.444 . S
C2168 C203 1.444 . S
C2173 C951 1.444 . S
C2178 C237 1.443 . S
C2183 C271 1.442 . S
C2188 C849 1.441 . S
C2193 C305 1.444 . S
C2198 C1529 1.444 . S
C2203 C1427 1.444 . S
C2208 C339 1.444 . S
C2213 C1461 1.439 . S
C2218 C373 1.439 . S
C2223 C1495 1.440 . S
C2228 C407 1.439 . S
C2233 C1631 1.439 . S
C2238 C441 1.439 . S
C2243 C475 1.443 . S
C2248 C1563 1.444 . S
C2253 C509 1.444 . S
C2258 C1597 1.444 . S
C2263 C1393 1.442 . S
C2268 C543 1.441 . S
C2273 C1359 1.440 . S
C2278 C577 1.441 . S
C2283 C611 1.443 . S
C2288 C1155 1.444 . S
C2293 C1189 1.444 . S
C2298 C645 1.444 . S
C2303 C1223 1.444 . S
C2308 C679 1.444 . S
C2313 C713 1.441 . S
C2318 C1121 1.440 . S
C2323 C747 1.439 . S
C2328 C1291 1.439 . S
C2333 C1325 1.439 . S
C2338 C781 1.439 . S
C2343 C815 1.439 . S
C2348 C1257 1.440 . S
C2353 C277 1.402 . S
C2358 C2 1.515 . S
C2363 C311 1.403 . S
C2368 C36 1.514 . S
C2373 C70 1.512 . S
C2378 C345 1.400 . S
C2383 C104 1.514 . S
C2388 C379 1.403 . S
C2393 C138 1.514 . S
C2398 C413 1.400 . S
C2403 C447 1.399 . S
C2408 C172 1.514 . S
C2413 C481 1.401 . S
C2418 C206 1.513 . S
C2423 C240 1.514 . S
C2428 C515 1.403 . S
C2433 C549 1.398 . S
C2438 C274 1.513 . S
C2443 C787 1.400 . S
C2448 C308 1.514 . S
C2453 C719 1.402 . S
C2458 C342 1.513 . S
C2463 C376 1.512 . S
C2468 C753 1.399 . S
C2473 C410 1.513 . S
C2478 C583 1.399 . S
C2483 C444 1.514 . S
C2488 C617 1.400 . S
C2493 C478 1.513 . S
C2498 C651 1.398 . S
C2503 C512 1.514 . S
C2508 C685 1.400 . S
C2513 C5 1.399 . S
C2518 C546 1.513 . S
C2523 C580 1.514 . S
C2528 C141 1.403 . S
C2533 C175 1.399 . S
C2538 C614 1.513 . S
C2543 C648 1.512 . S
C2548 C209 1.398 . S
C2553 C243 1.403 . S
C2558 C682 1.514 . S
C2563 C73 1.403 . S
C2568 C716 1.515 . S
C2573 C750 1.515 . S
C2578 C107 1.401 . S
C2583 C39 1.399 . S
C2588 C784 1.513 . S
C2593 C818 1.515 . S
C2598 C1093 1.401 . S
C2603 C1127 1.398 . S
C2608 C852 1.513 . S
C2613 C886 1.514 . S
C2618 C1161 1.403 . S
C2623 C920 1.513 . S
C2628 C1195 1.398 . S
C2633 C954 1.514 . S
C2638 C1229 1.401 . S
C2643 C988 1.512 . S
C2648 C1263 1.398 . S
C2653 C1022 1.515 . S
C2658 C1297 1.403 . S
C2663 C1056 1.514 . S
C2668 C1331 1.403 . S
C2673 C1090 1.511 . S
C2678 C1365 1.399 . S
C2683 C1124 1.515 . S
C2688 C1603 1.403 . S
C2693 C1158 1.513 . S
C2698 C1535 1.402 . S
C2703 C1569 1.403 . S
C2708 C1192 1.514 . S
C2713 C1399 1.400 . S
C2718 C1226 1.514 . S
C2723 C1260 1.512 . S
C2728 C1433 1.400 . S
C2733 C1467 1.403 . S
C2738 C1294 1.514 . S
C2743 C1328 1.512 . S
C2748 C1501 1.401 . S
C2753 C1362 1.512 . S
C2758 C821 1.398 . S
C2763 C957 1.403 . S
C2768 C1396 1.514 . S
C2773 C991 1.403 . S
C2778 C1430 1.514 . S
C2783 C1025 1.398 . S
C2788 C1464 1.512 . S
C2793 C1059 1.403 . S
C2798 C1498 1.514 . S
C2803 C889 1.399 . S
C2808 C1532 1.513 . S
C2813 C923 1.400 . S
C2818 C1566 1.512 . S
C2823 C855 1.403 . S
C2828 C1600 1.514 . S
