# Generated by pormake.
# Topology snl, (6)-cn, num edge types: 1
# Building blocks:
#     Node 0, Type 0, BuildingBlock: INOVEN_clean_sbu_0, # of connection points: 6
#     Node 1, Type 0, BuildingBlock: INOVEN_clean_sbu_0, # of connection points: 6
#     Node 2, Type 0, BuildingBlock: INOVEN_clean_sbu_0, # of connection points: 6
#     Node 3, Type 0, BuildingBlock: INOVEN_clean_sbu_0, # of connection points: 6
#     Node 4, Type 0, BuildingBlock: INOVEN_clean_sbu_0, # of connection points: 6
#     Node 5, Type 0, BuildingBlock: INOVEN_clean_sbu_0, # of connection points: 6
#     Node 6, Type 0, BuildingBlock: INOVEN_clean_sbu_0, # of connection points: 6
#     Node 7, Type 0, BuildingBlock: INOVEN_clean_sbu_0, # of connection points: 6
#     Node 8, Type 0, BuildingBlock: INOVEN_clean_sbu_0, # of connection points: 6
#     Node 9, Type 0, BuildingBlock: INOVEN_clean_sbu_0, # of connection points: 6
#     Node 10, Type 0, BuildingBlock: INOVEN_clean_sbu_0, # of connection points: 6
#     Node 11, Type 0, BuildingBlock: INOVEN_clean_sbu_0, # of connection points: 6
#     Node 12, Type 0, BuildingBlock: INOVEN_clean_sbu_0, # of connection points: 6
#     Node 13, Type 0, BuildingBlock: INOVEN_clean_sbu_0, # of connection points: 6
#     Node 14, Type 0, BuildingBlock: INOVEN_clean_sbu_0, # of connection points: 6
#     Node 15, Type 0, BuildingBlock: INOVEN_clean_sbu_0, # of connection points: 6
#     Edge 16, Type (0, 0), None
#     Edge 17, Type (0, 0), None
#     Edge 18, Type (0, 0), None
#     Edge 19, Type (0, 0), None
#     Edge 20, Type (0, 0), None
#     Edge 21, Type (0, 0), None
#     Edge 22, Type (0, 0), None
#     Edge 23, Type (0, 0), None
#     Edge 24, Type (0, 0), None
#     Edge 25, Type (0, 0), None
#     Edge 26, Type (0, 0), None
#     Edge 27, Type (0, 0), None
#     Edge 28, Type (0, 0), None
#     Edge 29, Type (0, 0), None
#     Edge 30, Type (0, 0), None
#     Edge 31, Type (0, 0), None
#     Edge 32, Type (0, 0), None
#     Edge 33, Type (0, 0), None
#     Edge 34, Type (0, 0), None
#     Edge 35, Type (0, 0), None
#     Edge 36, Type (0, 0), None
#     Edge 37, Type (0, 0), None
#     Edge 38, Type (0, 0), None
#     Edge 39, Type (0, 0), None
#     Edge 40, Type (0, 0), None
#     Edge 41, Type (0, 0), None
#     Edge 42, Type (0, 0), None
#     Edge 43, Type (0, 0), None
#     Edge 44, Type (0, 0), None
#     Edge 45, Type (0, 0), None
#     Edge 46, Type (0, 0), None
#     Edge 47, Type (0, 0), None
#     Edge 48, Type (0, 0), None
#     Edge 49, Type (0, 0), None
#     Edge 50, Type (0, 0), None
#     Edge 51, Type (0, 0), None
#     Edge 52, Type (0, 0), None
#     Edge 53, Type (0, 0), None
#     Edge 54, Type (0, 0), None
#     Edge 55, Type (0, 0), None
#     Edge 56, Type (0, 0), None
#     Edge 57, Type (0, 0), None
#     Edge 58, Type (0, 0), None
#     Edge 59, Type (0, 0), None
#     Edge 60, Type (0, 0), None
#     Edge 61, Type (0, 0), None
#     Edge 62, Type (0, 0), None
#     Edge 63, Type (0, 0), None
# Relax obj value: 0.223
# Max RMSD: 0.322
# Mean RMSD: 0.301
data_MOF--net-snl--node1-INOVEN_clean_sbu_0--edge1-none
_symmetry_space_group_name_H-M    P1
_symmetry_Int_Tables_number       1
_symmetry_cell_setting            triclinic
loop_
_symmetry_equiv_pos_as_xyz
'x, y, z'
_cell_length_a     24.530415
_cell_length_b     24.195942
_cell_length_c     15.906318
_cell_angle_alpha  98.508262
_cell_angle_beta   91.885545
_cell_angle_gamma 90.882805
loop_
_atom_site_label
_atom_site_type_symbol
_atom_site_fract_x
_atom_site_fract_y
_atom_site_fract_z
_atom_type_partial_charge
Gd0 Gd 0.16079 0.65623 0.17675 0.0
Gd1 Gd 0.10079 0.62193 0.29902 0.0
C2 C 0.02706 0.65274 0.15596 0.0
C3 C 0.20042 0.67423 1.03539 0.0
C4 C 0.17797 0.66478 0.94861 0.0
C5 C 0.19815 0.69671 0.8903 0.0
C6 C 0.1342 0.62712 0.92486 0.0
C7 C 0.13498 0.65048 0.78236 0.0
C8 C 0.1119 0.62101 0.84222 0.0
C9 C 0.17824 0.68832 0.80646 0.0
C10 C 0.13486 0.74786 0.28865 0.0
C11 C 0.22859 0.64276 0.34946 0.0
C12 C 0.05669 0.6038 0.43683 0.0
C13 C 0.07703 0.6157 0.52522 0.0
C14 C 0.04382 0.64377 0.58707 0.0
C15 C 0.13068 0.60266 0.54762 0.0
C16 C 0.11538 0.64024 0.69391 0.0
C17 C 0.14975 0.61494 0.63164 0.0
C18 C 0.06251 0.65504 0.67156 0.0
C19 C 0.11019 0.53864 0.15942 0.0
O20 O 0.07234 0.63869 0.11479 0.0
O21 O 0.03355 0.66489 0.23849 0.0
O22 O 0.17597 0.71238 0.08607 0.0
O23 O 0.21067 0.62954 1.06956 0.0
O24 O 0.18408 0.73321 0.2701 0.0
O25 O 0.1042 0.7065 0.26017 0.0
O26 O 0.17917 0.64305 0.37824 0.0
O27 O 0.2339 0.64243 0.26654 0.0
O28 O 0.08106 0.56479 0.38674 0.0
O29 O 0.04734 0.6481 0.40163 0.0
O30 O 0.06633 0.55011 0.20108 0.0
O31 O 0.14833 0.56999 0.19676 0.0
H32 H 0.22834 0.72901 0.9111 0.0
H33 H 0.11711 0.60298 0.97001 0.0
H34 H 0.07753 0.59265 0.82442 0.0
H35 H 0.19579 0.71182 0.76072 0.0
H36 H 0.00364 0.65724 0.57 0.0
H37 H 0.15766 0.58236 0.50065 0.0
H38 H 0.1909 0.60376 0.64839 0.0
H39 H 0.03605 0.67562 0.71921 0.0
Gd40 Gd 0.67272 0.87367 0.47624 0.0
Gd41 Gd 0.61925 0.91483 0.35807 0.0
C42 C 0.5379 0.87481 0.47271 0.0
C43 C 0.71011 0.85599 0.62264 0.0
C44 C 0.69121 0.87238 0.7094 0.0
C45 C 0.64044 0.85354 0.73361 0.0
C46 C 0.72388 0.908 0.76864 0.0
C47 C 0.65755 0.90197 0.87731 0.0
C48 C 0.70791 0.92161 0.85222 0.0
C49 C 0.62358 0.86863 0.81644 0.0
C50 C 0.64699 0.78343 0.3594 0.0
C51 C 0.7362 0.87987 0.30329 0.0
C52 C 0.59368 0.95819 0.22479 0.0
C53 C 0.60841 0.94335 0.13557 0.0
C54 C 0.64151 0.98032 0.09904 0.0
C55 C 0.59264 0.89176 0.08783 0.0
C56 C 0.64051 0.91616 0.96641 0.0
C57 C 0.60885 0.87814 1.00423 0.0
C58 C 0.65647 0.96752 1.01495 0.0
C59 C 0.62919 0.99157 0.50739 0.0
O60 O 0.58259 0.88523 0.52314 0.0
O61 O 0.54558 0.87022 0.39107 0.0
O62 O 0.67982 0.81975 0.57234 0.0
O63 O 0.72878 0.89628 0.58473 0.0
O64 O 0.69583 0.79706 0.38932 0.0
O65 O 0.61639 0.82468 0.38079 0.0
O66 O 0.68593 0.87843 0.27502 0.0
O67 O 0.74441 0.8856 0.38728 0.0
O68 O 0.63449 0.97659 0.27666 0.0
O69 O 0.56095 0.92396 0.25631 0.0
O70 O 0.58537 0.98 0.46048 0.0
O71 O 0.66704 0.96252 0.47186 0.0
H72 H 0.61346 0.82738 0.68866 0.0
H73 H 0.76242 0.92449 0.7508 0.0
H74 H 0.73566 0.94679 0.89714 0.0
H75 H 0.58374 0.85426 0.83237 0.0
H76 H 0.65611 0.01922 0.13582 0.0
H77 H 0.56824 0.86168 0.1151 0.0
H78 H 0.59719 0.83742 0.96996 0.0
H79 H 0.68029 0.99826 0.98825 0.0
Gd80 Gd 0.3411 0.39093 0.64106 0.0
Gd81 Gd 0.38442 0.43069 0.7774 0.0
C82 C 0.47139 0.38992 0.6561 0.0
C83 C 0.29755 0.37211 0.48717 0.0
C84 C 0.32099 0.3798 0.40436 0.0
C85 C 0.29384 0.35817 0.32747 0.0
C86 C 0.37042 0.40962 0.40135 0.0
C87 C 0.36072 0.40301 0.24672 0.0
C88 C 0.38984 0.42161 0.32368 0.0
C89 C 0.31368 0.36918 0.24963 0.0
C90 C 0.37173 0.30151 0.71892 0.0
C91 C 0.26645 0.40578 0.81279 0.0
C92 C 0.41617 0.47949 0.92671 0.0
C93 C 0.40327 0.46153 1.01031 0.0
C94 C 0.44432 0.44645 1.06595 0.0
C95 C 0.34877 0.45685 1.03372 0.0
C96 C 0.37647 0.42186 0.16474 0.0
C97 C 0.33577 0.43769 0.1094 0.0
C98 C 0.43127 0.42694 0.14228 0.0
C99 C 0.39525 0.50038 0.62036 0.0
O100 O 0.43065 0.39765 0.60362 0.0
O101 O 0.461 0.39088 0.73575 0.0
O102 O 0.31878 0.33338 0.52558 0.0
O103 O 0.28992 0.41749 0.54021 0.0
O104 O 0.38406 0.3094 0.64325 0.0
O105 O 0.34719 0.34426 0.75283 0.0
O106 O 0.31429 0.4075 0.84899 0.0
O107 O 0.26418 0.40238 0.72784 0.0
O108 O 0.37486 0.49644 0.88383 0.0
O109 O 0.44841 0.4475 0.87743 0.0
O110 O 0.36102 0.48369 0.67442 0.0
O111 O 0.36346 0.48263 0.67428 0.0
H112 H 0.25668 0.33364 0.32774 0.0
H113 H 0.39336 0.42497 0.45942 0.0
H114 H 0.42649 0.44725 0.32444 0.0
H115 H 0.29173 0.35181 0.1914 0.0
H116 H 0.48644 0.44968 1.05035 0.0
H117 H 0.31565 0.46958 0.99481 0.0
H118 H 0.29356 0.43715 0.12583 0.0
H119 H 0.46403 0.41555 0.18327 0.0
Gd120 Gd 0.88491 0.09241 0.87349 0.0
Gd121 Gd 0.85406 0.15497 1.0096 0.0
C122 C 0.88712 0.23165 0.88998 0.0
C123 C 0.90145 0.05127 0.71721 0.0
C124 C 0.89362 0.07225 0.6349 0.0
C125 C 0.93623 0.10128 0.60197 0.0
C126 C 0.84405 0.06275 0.58776 0.0
C127 C 0.87918 0.11285 0.47855 0.0
C128 C 0.83684 0.08319 0.51063 0.0
C129 C 0.92923 0.12103 0.5242 0.0
C130 C 0.97275 0.1035 0.98046 0.0
C131 C 0.8656 0.03038 1.03782 0.0
C132 C 0.83051 0.19314 0.16251 0.0
C133 C 0.84743 0.17667 0.2446 0.0
C134 C 0.81263 0.18781 0.31193 0.0
C135 C 0.89563 0.14746 0.2556 0.0
C136 C 0.87009 0.13654 0.39887 0.0
C137 C 0.9069 0.12742 0.3325 0.0
C138 C 0.82352 0.16808 0.38852 0.0
C139 C 0.77341 0.13812 0.8785 0.0
O140 O 0.87543 0.18362 0.83915 0.0
O141 O 0.89364 0.22885 0.97052 0.0
O142 O 0.9394 0.07633 0.76897 0.0
O143 O 0.85773 0.03972 0.75654 0.0
O144 O 0.95149 0.05655 0.94383 0.0
O145 O 0.94143 0.1433 0.96772 0.0
O146 O 0.87248 0.0814 0.07526 0.0
O147 O 0.8633 0.0219 0.95287 0.0
O148 O 0.79875 0.15753 0.11331 0.0
O149 O 0.86776 0.21644 0.12177 0.0
O150 O 0.7855 0.18568 0.92475 0.0
O151 O 0.80127 0.10159 0.90757 0.0
H152 H 0.97499 0.10897 0.63655 0.0
H153 H 0.81076 0.03969 0.61046 0.0
H154 H 0.79829 0.07535 0.47541 0.0
H155 H 0.96243 0.14385 0.50079 0.0
H156 H 0.77712 0.21206 0.30398 0.0
H157 H 0.92392 0.13929 0.20463 0.0
H158 H 0.94342 0.10361 0.33927 0.0
H159 H 0.79562 0.17744 0.43973 0.0
Gd160 Gd 0.14951 0.3904 1.03504 0.0
Gd161 Gd 0.09896 0.43333 0.91603 0.0
C162 C 0.019 0.37979 1.01516 0.0
C163 C 0.17871 0.36596 0.18317 0.0
C164 C 0.15922 0.37911 0.27086 0.0
C165 C 0.12543 0.34075 0.30423 0.0
C166 C 0.17484 0.42939 0.32262 0.0
C167 C 0.12153 0.40359 0.43788 0.0
C168 C 0.15614 0.44147 0.40508 0.0
C169 C 0.10699 0.3527 0.3871 0.0
C170 C 0.13494 0.30319 0.90792 0.0
C171 C 0.21827 0.40697 0.8689 0.0
C172 C 0.06495 0.47398 0.7836 0.0
C173 C 0.07033 0.45258 0.69317 0.0
C174 C 0.06803 0.48989 0.63423 0.0
C175 C 0.08587 0.39716 0.66688 0.0
C176 C 0.10027 0.4183 0.52439 0.0
C177 C 0.10095 0.38012 0.58294 0.0
C178 C 0.08143 0.47236 0.55012 0.0
C179 C 0.10878 0.50784 1.06888 0.0
O180 O 0.0579 0.39994 0.07135 0.0
O181 O 0.03572 0.37072 0.93758 0.0
O182 O 0.14648 0.33458 0.12887 0.0
O183 O 0.2009 0.40661 0.14985 0.0
O184 O 0.18121 0.31888 0.94614 0.0
O185 O 0.10099 0.34143 0.92855 0.0
O186 O 0.16969 0.40827 0.83533 0.0
O187 O 0.2231 0.40688 0.95285 0.0
O188 O 0.11149 0.48845 0.82331 0.0
O189 O 0.03328 0.44573 0.82704 0.0
O190 O 0.06442 0.49643 1.02283 0.0
O191 O 0.14621 0.47951 1.03198 0.0
H192 H 0.11274 0.30166 0.26593 0.0
H193 H 0.20157 0.45947 0.2996 0.0
H194 H 0.16906 0.48048 0.44352 0.0
H195 H 0.0804 0.32274 0.41067 0.0
H196 H 0.05558 0.53246 0.65332 0.0
H197 H 0.08869 0.36787 0.7121 0.0
H198 H 0.1152 0.33801 0.56491 0.0
H199 H 0.07773 0.50109 0.50479 0.0
Gd200 Gd 0.89224 0.92366 0.25894 0.0
Gd201 Gd 0.86019 0.85763 0.11522 0.0
C202 C 0.89385 0.78488 0.24261 0.0
C203 C 0.91435 0.9627 0.41717 0.0
C204 C 0.90901 0.93584 0.4939 0.0
C205 C 0.94213 0.95293 0.56669 0.0
C206 C 0.8736 0.88976 0.49239 0.0
C207 C 0.8993 0.88242 0.6399 0.0
C208 C 0.86964 0.86266 0.56351 0.0
C209 C 0.93681 0.92719 0.63946 0.0
C210 C 0.97659 0.91937 0.15616 0.0
C211 C 0.867 0.98376 0.09132 0.0
C212 C 0.83929 0.81415 0.95958 0.0
C213 C 0.85732 0.82845 0.87778 0.0
C214 C 0.82026 0.82273 0.80861 0.0
C215 C 0.9103 0.84907 0.86805 0.0
C216 C 0.88738 0.8598 0.72053 0.0
C217 C 0.92517 0.86471 0.79026 0.0
C218 C 0.83554 0.83653 0.7308 0.0
C219 C 0.78079 0.87092 0.2396 0.0
O220 O 0.88151 0.83235 0.29106 0.0
O221 O 0.9016 0.78764 0.16299 0.0
O222 O 0.95062 0.94054 0.36525 0.0
O223 O 0.86892 0.97294 0.37736 0.0
O224 O 0.95468 0.9646 0.19217 0.0
O225 O 0.9473 0.87695 0.16685 0.0
O226 O 0.87426 0.93331 1.05306 0.0
O227 O 0.86662 0.99211 0.17658 0.0
O228 O 0.80696 0.84958 1.00205 0.0
O229 O 0.87624 0.79487 1.00789 0.0
O230 O 0.79 0.82482 0.18977 0.0
O231 O 0.80926 0.90866 0.21502 0.0
H232 H 0.97139 0.987 0.56793 0.0
H233 H 0.84888 0.87449 0.43604 0.0
H234 H 0.84263 0.82649 0.55793 0.0
H235 H 0.96093 0.94402 0.69581 0.0
H236 H 0.77889 0.80802 0.8146 0.0
H237 H 0.93988 0.85403 0.92085 0.0
H238 H 0.96613 0.8807 0.7854 0.0
H239 H 0.8052 0.83093 0.68001 0.0
Gd240 Gd 0.38893 0.60132 0.39204 0.0
Gd241 Gd 0.36154 0.67163 0.53464 0.0
C242 C 0.38953 0.73884 0.39229 0.0
C243 C 0.39961 0.55742 0.23566 0.0
C244 C 0.39492 0.5814 0.15526 0.0
C245 C 0.441 0.60515 0.12277 0.0
C246 C 0.34455 0.58169 0.11079 0.0
C247 C 0.38698 0.62693 1.00185 0.0
C248 C 0.34086 0.60344 1.03428 0.0
C249 C 0.4371 0.62762 1.04681 0.0
C250 C 0.48079 0.62965 0.48862 0.0
C251 C 0.37949 0.54345 0.56337 0.0
C252 C 0.35284 0.71809 0.68956 0.0
C253 C 0.3655 0.69738 0.77055 0.0
C254 C 0.33017 0.70972 0.83715 0.0
C255 C 0.41049 0.66331 0.7812 0.0
C256 C 0.38172 0.65253 0.92306 0.0
C257 C 0.41851 0.64094 0.85705 0.0
C258 C 0.33836 0.68822 0.91301 0.0
C259 C 0.27658 0.65267 0.41312 0.0
O260 O 0.37763 0.68895 0.34709 0.0
O261 O 0.39602 0.74119 0.47462 0.0
O262 O 0.44063 0.57589 0.28662 0.0
O263 O 0.35487 0.55175 0.2764 0.0
O264 O 0.46445 0.57884 0.46144 0.0
O265 O 0.44258 0.66203 0.47378 0.0
O266 O 0.37777 0.59562 0.59874 0.0
O267 O 0.38012 0.53265 0.47867 0.0
O268 O 0.31137 0.69385 0.64408 0.0
O269 O 0.39432 0.72746 0.64401 0.0
O270 O 0.28822 0.70024 0.46013 0.0
O271 O 0.30712 0.61594 0.43814 0.0
H272 H 0.48001 0.60718 0.15682 0.0
H273 H 0.30814 0.56407 0.13408 0.0
H274 H 0.30201 0.60136 0.99963 0.0
H275 H 0.47292 0.64673 1.02423 0.0
H276 H 0.29583 0.7357 0.82949 0.0
H277 H 0.43871 0.65306 0.73054 0.0
H278 H 0.45247 0.61355 0.86324 0.0
H279 H 0.31065 0.69918 0.96409 0.0
Gd280 Gd 0.65887 0.14317 0.6396 0.0
Gd281 Gd 0.60635 0.0906 0.7459 0.0
C282 C 0.52347 0.12601 0.61719 0.0
C283 C 0.6894 0.15865 0.49174 0.0
C284 C 0.66002 0.15097 0.40883 0.0
C285 C 0.67403 0.18522 0.35044 0.0
C286 C 0.61889 0.11006 0.38667 0.0
C287 C 0.61435 0.13194 0.24147 0.0
C288 C 0.59625 0.10047 0.30363 0.0
C289 C 0.65128 0.17672 0.26819 0.0
C290 C 0.63065 0.22692 0.75685 0.0
C291 C 0.72978 0.1274 0.8082 0.0
C292 C 0.56385 0.06447 0.88193 0.0
C293 C 0.57713 0.07974 0.97326 0.0
C294 C 0.54295 0.06297 1.03378 0.0
C295 C 0.62185 0.11503 1.0005 0.0
C296 C 0.59905 0.11605 0.14884 0.0
C297 C 0.63366 0.13149 0.08663 0.0
C298 C 0.5528 0.082 0.12064 0.0
C299 C 0.6266 0.01829 0.59967 0.0
O300 O 0.56718 0.1554 0.60107 0.0
O301 O 0.53069 0.08833 0.66676 0.0
O302 O 0.67359 0.19931 0.54798 0.0
O303 O 0.69939 0.11316 0.52369 0.0
O304 O 0.68093 0.21661 0.73671 0.0
O305 O 0.60064 0.18323 0.72968 0.0
O306 O 0.68631 0.09871 0.82177 0.0
O307 O 0.7318 0.14906 0.73631 0.0
O308 O 0.59821 0.03237 0.83729 0.0
O309 O 0.54859 0.10639 0.84436 0.0
O310 O 0.58133 0.02066 0.63938 0.0
O311 O 0.66022 0.05287 0.64241 0.0
H312 H 0.7035 0.21816 0.36964 0.0
H313 H 0.60518 0.08486 0.4328 0.0
H314 H 0.56634 0.06702 0.28842 0.0
H315 H 0.66393 0.20478 0.22551 0.0
H316 H 0.5079 0.0362 1.01357 0.0
H317 H 0.64791 0.13036 0.95558 0.0
H318 H 0.67098 0.15548 0.10307 0.0
H319 H 0.52417 0.06948 0.16482 0.0
Gd320 Gd 0.88663 0.42014 0.87207 0.0
Gd321 Gd 0.83008 0.3716 0.98243 0.0
C322 C 0.76649 0.3851 0.80447 0.0
C323 C 0.9311 0.42584 0.72962 0.0
C324 C 0.90876 0.41374 0.64203 0.0
C325 C 0.93182 0.43994 0.57914 0.0
C326 C 0.86328 0.37784 0.62103 0.0
C327 C 0.86183 0.39944 0.4766 0.0
C328 C 0.84012 0.3705 0.53862 0.0
C329 C 0.90849 0.43344 0.4971 0.0
C330 C 0.86456 0.49753 1.01135 0.0
C331 C 0.96288 0.40031 1.01736 0.0
C332 C 0.78683 0.36099 0.12526 0.0
C333 C 0.80379 0.37323 0.21636 0.0
C334 C 0.81391 0.32852 0.2604 0.0
C335 C 0.8088 0.42793 0.26086 0.0
C336 C 0.83868 0.39109 0.38887 0.0
C337 C 0.82589 0.4367 0.34689 0.0
C338 C 0.83158 0.33691 0.34526 0.0
C339 C 0.86702 0.28681 0.87153 0.0
O340 O 0.80685 0.41989 0.7989 0.0
O341 O 0.76431 0.35986 0.87306 0.0
O342 O 0.91141 0.46947 0.77652 0.0
O343 O 0.93609 0.38261 0.7698 0.0
O344 O 0.9091 0.49622 0.96897 0.0
O345 O 0.83157 0.46051 0.97152 0.0
O346 O 0.92064 0.36844 1.03278 0.0
O347 O 0.95613 0.43435 0.96207 0.0
O348 O 0.81146 0.32034 0.07912 0.0
O349 O 0.77842 0.40352 0.08528 0.0
O350 O 0.8157 0.29419 0.88803 0.0
O351 O 0.89372 0.33148 0.90337 0.0
H352 H 0.96746 0.46605 0.59433 0.0
H353 H 0.84573 0.3555 0.66805 0.0
H354 H 0.80527 0.34243 0.52348 0.0
H355 H 0.92732 0.45428 0.44938 0.0
H356 H 0.80629 0.28697 0.22917 0.0
H357 H 0.79959 0.46369 0.22968 0.0
H358 H 0.8289 0.47885 0.38089 0.0
H359 H 0.84044 0.3011 0.37655 0.0
Gd360 Gd 0.39163 0.11825 0.75203 0.0
Gd361 Gd 0.33442 0.149 0.62255 0.0
C362 C 0.26987 0.14584 0.79798 0.0
C363 C 0.43563 0.09181 0.88889 0.0
C364 C 0.4158 0.09381 0.97503 0.0
C365 C 0.37611 0.05545 0.99385 0.0
C366 C 0.43557 0.13608 1.03891 0.0
C367 C 0.37744 0.10093 0.14024 0.0
C368 C 0.41649 0.13975 0.12057 0.0
C369 C 0.35703 0.05907 0.07589 0.0
C370 C 0.379 0.0326 0.6137 0.0
C371 C 0.46896 0.15198 0.62744 0.0
C372 C 0.29444 0.15341 0.47277 0.0
C373 C 0.31611 0.13413 0.38953 0.0
C374 C 0.37208 0.13983 0.37701 0.0
C375 C 0.28135 0.10985 0.32224 0.0
C376 C 0.35702 0.10621 0.22712 0.0
C377 C 0.3016 0.09631 0.24107 0.0
C378 C 0.39245 0.12542 0.29672 0.0
C379 C 0.35576 0.24411 0.73096 0.0
O380 O 0.31808 0.13753 0.82936 0.0
O381 O 0.26376 0.14769 0.71502 0.0
O382 O 0.41246 0.05522 0.82975 0.0
O383 O 0.44383 0.14016 0.86411 0.0
O384 O 0.42384 0.04746 0.65666 0.0
O385 O 0.34204 0.06386 0.64706 0.0
O386 O 0.42511 0.13458 0.57831 0.0
O387 O 0.45913 0.16678 0.70723 0.0
O388 O 0.32122 0.19517 0.51811 0.0
O389 O 0.28043 0.11424 0.51655 0.0
O390 O 0.30778 0.22808 0.6998 0.0
O391 O 0.38871 0.20443 0.712 0.0
H392 H 0.35943 0.02296 0.9453 0.0
H393 H 0.46588 0.16642 1.0257 0.0
H394 H 0.43178 0.1738 0.16779 0.0
H395 H 0.32647 0.02902 0.08878 0.0
H396 H 0.40003 0.15694 0.42864 0.0
H397 H 0.23835 0.10317 0.3318 0.0
H398 H 0.27342 0.0804 0.1891 0.0
H399 H 0.4358 0.13093 0.28885 0.0
Gd400 Gd 0.66121 0.65629 0.51575 0.0
Gd401 Gd 0.6152 0.59564 0.36274 0.0
C402 C 0.63788 0.52756 0.52621 0.0
C403 C 0.67849 0.70206 0.67252 0.0
C404 C 0.6597 0.68528 0.75265 0.0
C405 C 0.671 0.71873 0.83113 0.0
C406 C 0.62976 0.63525 0.7509 0.0
C407 C 0.62862 0.64837 0.90573 0.0
C408 C 0.61528 0.61652 0.82612 0.0
C409 C 0.65551 0.70063 0.90696 0.0
C410 C 0.73192 0.64121 0.38026 0.0
C411 C 0.62868 0.72843 0.37827 0.0
C412 C 0.59654 0.54619 0.20973 0.0
C413 C 0.60333 0.5727 0.13237 0.0
C414 C 0.56657 0.5616 1.06253 0.0
C415 C 0.64562 0.61215 0.13001 0.0
C416 C 0.61723 0.62539 0.98614 0.0
C417 C 0.65233 0.6383 1.05833 0.0
C418 C 0.57328 0.58762 0.9903 0.0
C419 C 0.53643 0.6428 0.46444 0.0
O420 O 0.66219 0.57377 0.56271 0.0
O421 O 0.61582 0.52441 0.44724 0.0
O422 O 0.71298 0.66864 0.63055 0.0
O423 O 0.64 0.71754 0.62276 0.0
O424 O 0.73023 0.68629 0.43577 0.0
O425 O 0.70041 0.60567 0.40441 0.0
O426 O 0.6368 0.68164 0.32639 0.0
O427 O 0.62256 0.72568 0.459 0.0
O428 O 0.55738 0.56545 0.25856 0.0
O429 O 0.64147 0.5395 0.25327 0.0
O430 O 0.54125 0.64818 0.38526 0.0
O431 O 0.57767 0.61717 0.4879 0.0
H432 H 0.69233 0.75851 0.83396 0.0
H433 H 0.6177 0.6101 0.69135 0.0
H434 H 0.59492 0.57613 0.82119 0.0
H435 H 0.66508 0.72758 0.96633 0.0
H436 H 0.53279 0.53267 1.06363 0.0
H437 H 0.67389 0.62269 0.18372 0.0
H438 H 0.68601 0.66768 1.05939 0.0
H439 H 0.54388 0.57779 0.93778 0.0
Gd440 Gd 0.14944 0.86451 0.11922 0.0
Gd441 Gd 0.1262 0.93746 0.2641 0.0
C442 C 0.14562 0.99281 0.09494 0.0
C443 C 0.15819 0.81736 0.96472 0.0
C444 C 0.1474 0.83953 0.8842 0.0
C445 C 0.18585 0.83124 0.82124 0.0
C446 C 0.10164 0.87219 0.87158 0.0
C447 C 0.13501 0.88884 0.73476 0.0
C448 C 0.09542 0.89649 0.79713 0.0
C449 C 0.1799 0.85547 0.74711 0.0
C450 C 0.23335 0.88236 0.24246 0.0
C451 C 0.1197 0.80152 0.26207 0.0
C452 C 0.1183 0.98268 0.42055 0.0
C453 C 0.12213 0.95966 0.50205 0.0
C454 C 0.07901 0.92725 0.52698 0.0
C455 C 0.16889 0.96999 0.55592 0.0
C456 C 0.12975 0.91497 0.65639 0.0
C457 C 0.17285 0.94743 0.63199 0.0
C458 C 0.08261 0.90558 0.60366 0.0
C459 C 0.03691 0.92215 0.15872 0.0
O460 O 0.13894 0.9415 1.05696 0.0
O461 O 0.14824 1.00308 0.17969 0.0
O462 O 0.2001 0.83967 1.01123 0.0
O463 O 0.11594 0.80925 1.00951 0.0
O464 O 0.21958 0.83385 0.2 0.0
O465 O 0.20511 0.91878 0.21368 0.0
O466 O 0.134 0.85029 0.30749 0.0
O467 O 0.11076 0.799 0.18033 0.0
O468 O 0.07611 0.96643 0.37033 0.0
O469 O 0.16323 0.98523 0.37912 0.0
O470 O 0.05805 0.97002 0.19238 0.0
O471 O 0.06784 0.88345 0.17637 0.0
H472 H 0.22068 0.8062 0.83088 0.0
H473 H 0.07132 0.87984 0.91972 0.0
H474 H 0.06047 0.92227 0.78909 0.0
H475 H 0.21012 0.84797 0.69895 0.0
H476 H 0.0425 0.91813 0.48693 0.0
H477 H 0.20254 0.99522 0.539 0.0
H478 H 0.20951 0.95554 0.67209 0.0
H479 H 0.04917 0.88014 0.62067 0.0
Gd480 Gd 0.88967 0.59442 0.25174 0.0
Gd481 Gd 0.83679 0.6463 0.1391 0.0
C482 C 0.77122 0.62975 0.30857 0.0
C483 C 0.93043 0.58135 0.39846 0.0
C484 C 0.90827 0.59396 0.48388 0.0
C485 C 0.93093 0.57004 0.55115 0.0
C486 C 0.86529 0.63125 0.49937 0.0
C487 C 0.86361 0.61499 0.64672 0.0
C488 C 0.84319 0.64166 0.57979 0.0
C489 C 0.90867 0.57989 0.63178 0.0
C490 C 0.86586 0.5205 0.10553 0.0
C491 C 0.97249 0.62618 0.13046 0.0
C492 C 0.79281 0.66103 0.993 0.0
C493 C 0.80522 0.64658 0.90201 0.0
C494 C 0.80329 0.68814 0.84985 0.0
C495 C 0.81939 0.59242 0.86618 0.0
C496 C 0.83969 0.6251 0.73252 0.0
C497 C 0.83569 0.58173 0.78194 0.0
C498 C 0.82135 0.67816 0.76659 0.0
C499 C 0.8725 0.72941 0.25889 0.0
O500 O 0.80929 0.59358 0.31539 0.0
O501 O 0.7714 0.65743 0.24234 0.0
O502 O 0.90639 0.54046 0.34674 0.0
O503 O 0.9406 0.62512 0.36173 0.0
O504 O 0.91087 0.52196 0.15131 0.0
O505 O 0.83399 0.55631 0.14364 0.0
O506 O 0.93009 0.65624 0.1094 0.0
O507 O 0.96268 0.58681 0.17555 0.0
O508 O 0.8251 0.6977 1.03901 0.0
O509 O 0.77988 0.61979 1.0332 0.0
O510 O 0.82134 0.72105 0.2348 0.0
O511 O 0.89903 0.68561 0.23059 0.0
H512 H 0.9669 0.54507 0.54119 0.0
H513 H 0.84922 0.65303 0.44966 0.0
H514 H 0.81007 0.67052 0.5889 0.0
H515 H 0.92751 0.56098 0.68276 0.0
H516 H 0.7879 0.72838 0.87447 0.0
H517 H 0.81784 0.55843 0.90287 0.0
H518 H 0.845 0.53954 0.75509 0.0
H519 H 0.82195 0.71221 0.72967 0.0
Gd520 Gd 0.15199 0.15873 1.02068 0.0
Gd521 Gd 0.12256 0.1095 0.88654 0.0
C522 C 0.14158 0.03966 1.04351 0.0
C523 C 0.19491 0.19662 0.16991 0.0
C524 C 0.17126 0.19958 0.25504 0.0
C525 C 0.20289 0.21828 0.32886 0.0
C526 C 0.11924 0.17639 0.26332 0.0
C527 C 0.13566 0.17983 0.41686 0.0
C528 C 0.10158 0.1668 0.34296 0.0
C529 C 0.18487 0.20958 0.40888 0.0
C530 C 0.22583 0.16355 0.85902 0.0
C531 C 0.119 0.24629 0.92038 0.0
C532 C 0.10176 0.07901 0.7241 0.0
C533 C 0.10929 0.10639 0.6474 0.0
C534 C 0.08161 0.08528 0.57086 0.0
C535 C 0.14099 0.15551 0.65073 0.0
C536 C 0.12285 0.15772 0.49853 0.0
C537 C 0.14767 0.18088 0.57766 0.0
C538 C 0.08854 0.11007 0.49748 0.0
C539 C 0.03308 0.1062 0.97984 0.0
O540 O 0.12646 0.08737 0.08172 0.0
O541 O 0.14953 0.03629 0.96012 0.0
O542 O 0.20096 0.14584 0.13144 0.0
O543 O 0.17472 0.22898 0.11832 0.0
O544 O 0.21112 0.13191 0.91544 0.0
O545 O 0.20991 0.13421 0.91504 0.0
O546 O 0.12486 0.20218 0.86243 0.0
O547 O 0.11845 0.2383 0.99881 0.0
O548 O 0.06664 0.10241 0.77675 0.0
O549 O 0.1454 0.06422 0.76383 0.0
O550 O 0.05631 0.06323 0.93891 0.0
O551 O 0.06268 0.1499 0.97962 0.0
H552 H 0.24315 0.2363 0.32433 0.0
H553 H 0.09318 0.16308 0.20749 0.0
H554 H 0.06173 0.1475 0.34533 0.0
H555 H 0.21172 0.22319 0.46325 0.0
H556 H 0.05486 0.04896 0.56747 0.0
H557 H 0.16059 0.17453 0.70992 0.0
H558 H 0.17246 0.21868 0.58412 0.0
H559 H 0.068 0.09013 0.43955 0.0
Gd560 Gd 0.6463 0.35306 0.60008 0.0
Gd561 Gd 0.61702 0.42097 0.74352 0.0
C562 C 0.63463 0.48037 0.57831 0.0
C563 C 0.66559 0.31155 0.44581 0.0
C564 C 0.64981 0.32921 0.36393 0.0
C565 C 0.68235 0.3145 0.29412 0.0
C566 C 0.60369 0.36204 0.35495 0.0
C567 C 0.62595 0.36741 0.20886 0.0
C568 C 0.59227 0.38183 0.27793 0.0
C569 C 0.66948 0.3318 0.21648 0.0
C570 C 0.7267 0.37269 0.72943 0.0
C571 C 0.6136 0.28185 0.73285 0.0
C572 C 0.60656 0.46392 0.90002 0.0
C573 C 0.61081 0.43878 0.97897 0.0
C574 C 0.57417 0.39623 0.99414 0.0
C575 C 0.65275 0.45655 1.03939 0.0
C576 C 0.61926 0.39263 0.13083 0.0
C577 C 0.65697 0.43353 0.11465 0.0
C578 C 0.57794 0.37385 0.07019 0.0
C579 C 0.52827 0.40022 0.63784 0.0
O580 O 0.62465 0.42947 0.54059 0.0
O581 O 0.64082 0.48885 0.66277 0.0
O582 O 0.70032 0.34445 0.49402 0.0
O583 O 0.6262 0.29308 0.48811 0.0
O584 O 0.71528 0.32415 0.68542 0.0
O585 O 0.69808 0.40815 0.69927 0.0
O586 O 0.62512 0.33075 0.78175 0.0
O587 O 0.60839 0.28182 0.65085 0.0
O588 O 0.56509 0.44779 0.84839 0.0
O589 O 0.65183 0.46807 0.86032 0.0
O590 O 0.54593 0.44957 0.67134 0.0
O591 O 0.56342 0.36491 0.65369 0.0
H592 H 0.71769 0.28928 0.29937 0.0
H593 H 0.57725 0.37332 0.40763 0.0
H594 H 0.55813 0.40917 0.27283 0.0
H595 H 0.69393 0.31801 0.16244 0.0
H596 H 0.54206 0.38067 0.94794 0.0
H597 H 0.68197 0.48864 1.02874 0.0
H598 H 0.68946 0.44797 0.16083 0.0
H599 H 0.54915 0.3415 0.0812 0.0
Gd600 Gd 0.39683 0.93004 0.37571 0.0
Gd601 Gd 0.34832 0.87706 0.48006 0.0
C602 C 0.27532 0.89379 0.31455 0.0
C603 C 0.43725 0.95548 0.23769 0.0
C604 C 0.42182 0.94359 0.1467 0.0
C605 C 0.46122 0.9468 0.08597 0.0
C606 C 0.36896 0.92495 0.11972 0.0
C607 C 0.3954 0.91118 0.97237 0.0
C608 C 0.35565 0.90972 1.03376 0.0
C609 C 0.4485 0.9302 0.99945 0.0
C610 C 0.38019 1.00271 0.52296 0.0
C611 C 0.48351 0.89766 0.49524 0.0
C612 C 0.31618 0.85743 0.62572 0.0
C613 C 0.34053 0.86948 0.71161 0.0
C614 C 0.32124 0.8398 0.7729 0.0
C615 C 0.3826 0.90948 0.73316 0.0
C616 C 0.38018 0.89419 0.88096 0.0
C617 C 0.4026 0.92154 0.81746 0.0
C618 C 0.34044 0.85186 0.8569 0.0
C619 C 0.37362 0.7929 0.3639 0.0
O620 O 0.31496 0.929 0.30785 0.0
O621 O 0.27659 0.86656 0.38092 0.0
O622 O 0.40563 0.98871 0.28584 0.0
O623 O 0.4512 0.91167 0.27192 0.0
O624 O 0.42455 0.99957 0.48088 0.0
O625 O 0.3453 0.96826 0.48282 0.0
O626 O 0.44175 0.86501 0.50979 0.0
O627 O 0.4723 0.93882 0.45447 0.0
O628 O 0.3411 0.82093 0.57334 0.0
O629 O 0.30092 0.90061 0.59154 0.0
O630 O 0.32349 0.80441 0.38325 0.0
O631 O 0.40447 0.83641 0.38872 0.0
H632 H 0.50188 0.96179 0.10567 0.0
H633 H 0.33746 0.92235 0.16426 0.0
H634 H 0.31376 0.89743 1.01574 0.0
H635 H 0.48036 0.93179 0.95431 0.0
H636 H 0.29116 0.80709 0.75436 0.0
H637 H 0.39941 0.93161 0.68528 0.0
H638 H 0.43429 0.95326 0.83308 0.0
H639 H 0.32377 0.82823 0.90309 0.0
loop_
_geom_bond_atom_site_label_1
_geom_bond_atom_site_label_2
_geom_bond_distance
_geom_bond_site_symmetry_2
_ccdc_geom_bond_type
Gd0 C3 2.818 1_554 S
Gd0 O20 2.377 . S
Gd0 O22 2.448 1_554 S
Gd0 O23 2.506 1_554 S
Gd0 O24 2.435 . S
Gd0 O25 2.717 . S
Gd0 O27 2.395 . S
Gd0 O31 2.327 . S
Gd1 C12 2.818 . S
Gd1 O21 2.395 . S
Gd1 O25 2.327 . S
Gd1 O26 2.377 . S
Gd1 O28 2.448 . S
Gd1 O29 2.506 . S
Gd1 O30 2.435 . S
Gd1 O31 2.717 . S
C2 O20 1.240 . S
C2 O21 1.240 . S
C3 Gd0 2.818 1_556 S
C3 C4 1.510 . S
C3 O22 1.249 . S
C3 O23 1.252 . S
C4 C3 1.510 . S
C4 C5 1.404 . S
C4 C6 1.352 . S
C5 C4 1.404 . S
C5 C9 1.389 . S
C5 H32 0.930 . S
C6 C4 1.352 . S
C6 C8 1.374 . S
C6 H33 0.931 . S
C7 C8 1.359 . S
C7 C9 1.364 . S
C8 C6 1.374 . S
C8 C7 1.359 . S
C8 H34 0.931 . S
C9 C5 1.389 . S
C9 C7 1.364 . S
C9 H35 0.931 . S
C10 O24 1.256 . S
C10 O25 1.257 . S
C11 O26 1.240 . S
C11 O27 1.240 . S
C12 Gd1 2.818 . S
C12 C13 1.510 . S
C12 O28 1.249 . S
C12 O29 1.252 . S
C13 C12 1.510 . S
C13 C14 1.404 . S
C13 C15 1.352 . S
C14 C13 1.404 . S
C14 C18 1.389 . S
C14 H36 0.930 . S
C15 C13 1.352 . S
C15 C17 1.374 . S
C15 H37 0.931 . S
C16 C17 1.359 . S
C16 C18 1.364 . S
C17 C15 1.374 . S
C17 C16 1.359 . S
C17 H38 0.931 . S
C18 C14 1.389 . S
C18 C16 1.364 . S
C18 H39 0.931 . S
C19 O30 1.256 . S
C19 O31 1.257 . S
O20 Gd0 2.377 . S
O20 C2 1.240 . S
O21 Gd1 2.395 . S
O21 C2 1.240 . S
O22 Gd0 2.448 1_556 S
O22 C3 1.249 . S
O23 Gd0 2.506 1_556 S
O23 C3 1.252 . S
O24 Gd0 2.435 . S
O24 C10 1.256 . S
O25 Gd0 2.717 . S
O25 Gd1 2.327 . S
O25 C10 1.257 . S
O26 Gd1 2.377 . S
O26 C11 1.240 . S
O27 Gd0 2.395 . S
O27 C11 1.240 . S
O28 Gd1 2.448 . S
O28 C12 1.249 . S
O29 Gd1 2.506 . S
O29 C12 1.252 . S
O30 Gd1 2.435 . S
O30 C19 1.256 . S
O31 Gd0 2.327 . S
O31 Gd1 2.717 . S
O31 C19 1.257 . S
H32 C5 0.930 . S
H33 C6 0.931 . S
H34 C8 0.931 . S
H35 C9 0.931 . S
H36 C14 0.930 . S
H37 C15 0.931 . S
H38 C17 0.931 . S
H39 C18 0.931 . S
Gd40 C43 2.818 . S
Gd40 O60 2.377 . S
Gd40 O62 2.448 . S
Gd40 O63 2.506 . S
Gd40 O64 2.435 . S
Gd40 O65 2.717 . S
Gd40 O67 2.395 . S
Gd40 O71 2.327 . S
Gd41 C52 2.818 . S
Gd41 O61 2.395 . S
Gd41 O65 2.327 . S
Gd41 O66 2.377 . S
Gd41 O68 2.448 . S
Gd41 O69 2.506 . S
Gd41 O70 2.435 . S
Gd41 O71 2.717 . S
C42 O60 1.240 . S
C42 O61 1.240 . S
C43 Gd40 2.818 . S
C43 C44 1.510 . S
C43 O62 1.249 . S
C43 O63 1.252 . S
C44 C43 1.510 . S
C44 C45 1.404 . S
C44 C46 1.352 . S
C45 C44 1.404 . S
C45 C49 1.389 . S
C45 H72 0.930 . S
C46 C44 1.352 . S
C46 C48 1.374 . S
C46 H73 0.931 . S
C47 C48 1.359 . S
C47 C49 1.364 . S
C48 C46 1.374 . S
C48 C47 1.359 . S
C48 H74 0.931 . S
C49 C45 1.389 . S
C49 C47 1.364 . S
C49 H75 0.931 . S
C50 O64 1.256 . S
C50 O65 1.257 . S
C51 O66 1.240 . S
C51 O67 1.240 . S
C52 Gd41 2.818 . S
C52 C53 1.510 . S
C52 O68 1.249 . S
C52 O69 1.252 . S
C53 C52 1.510 . S
C53 C54 1.404 . S
C53 C55 1.352 . S
C54 C53 1.404 . S
C54 C58 1.389 1_554 S
C54 H76 0.930 . S
C55 C53 1.352 . S
C55 C57 1.374 1_554 S
C55 H77 0.931 . S
C56 C57 1.359 . S
C56 C58 1.364 . S
C57 C55 1.374 1_556 S
C57 C56 1.359 . S
C57 H78 0.931 . S
C58 C54 1.389 1_556 S
C58 C56 1.364 . S
C58 H79 0.931 . S
C59 O70 1.256 . S
C59 O71 1.257 . S
O60 Gd40 2.377 . S
O60 C42 1.240 . S
O61 Gd41 2.395 . S
O61 C42 1.240 . S
O62 Gd40 2.448 . S
O62 C43 1.249 . S
O63 Gd40 2.506 . S
O63 C43 1.252 . S
O64 Gd40 2.435 . S
O64 C50 1.256 . S
O65 Gd40 2.717 . S
O65 Gd41 2.327 . S
O65 C50 1.257 . S
O66 Gd41 2.377 . S
O66 C51 1.240 . S
O67 Gd40 2.395 . S
O67 C51 1.240 . S
O68 Gd41 2.448 . S
O68 C52 1.249 . S
O69 Gd41 2.506 . S
O69 C52 1.252 . S
O70 Gd41 2.435 . S
O70 C59 1.256 . S
O71 Gd40 2.327 . S
O71 Gd41 2.717 . S
O71 C59 1.257 . S
H72 C45 0.930 . S
H73 C46 0.931 . S
H74 C48 0.931 . S
H75 C49 0.931 . S
H76 C54 0.930 . S
H77 C55 0.931 . S
H78 C57 0.931 . S
H79 C58 0.931 . S
Gd80 C83 2.818 . S
Gd80 O100 2.377 . S
Gd80 O102 2.448 . S
Gd80 O103 2.506 . S
Gd80 O104 2.435 . S
Gd80 O105 2.717 . S
Gd80 O107 2.395 . S
Gd80 O111 2.327 . S
Gd81 C92 2.818 . S
Gd81 O101 2.395 . S
Gd81 O105 2.327 . S
Gd81 O106 2.377 . S
Gd81 O108 2.448 . S
Gd81 O109 2.506 . S
Gd81 O110 2.435 . S
Gd81 O111 2.717 . S
C82 O100 1.240 . S
C82 O101 1.240 . S
C83 Gd80 2.818 . S
C83 C84 1.510 . S
C83 O102 1.249 . S
C83 O103 1.252 . S
C84 C83 1.510 . S
C84 C85 1.404 . S
C84 C86 1.352 . S
C85 C84 1.404 . S
C85 C89 1.389 . S
C85 H112 0.930 . S
C86 C84 1.352 . S
C86 C88 1.374 . S
C86 H113 0.931 . S
C87 C88 1.359 . S
C87 C89 1.364 . S
C88 C86 1.374 . S
C88 C87 1.359 . S
C88 H114 0.931 . S
C89 C85 1.389 . S
C89 C87 1.364 . S
C89 H115 0.931 . S
C90 O104 1.256 . S
C90 O105 1.257 . S
C91 O106 1.240 . S
C91 O107 1.240 . S
C92 Gd81 2.818 . S
C92 C93 1.510 . S
C92 O108 1.249 . S
C92 O109 1.252 . S
C93 C92 1.510 . S
C93 C94 1.404 1_556 S
C93 C95 1.352 . S
C94 C93 1.404 1_554 S
C94 C98 1.389 . S
C94 H116 0.930 1_554 S
C95 C93 1.352 . S
C95 C97 1.374 1_556 S
C95 H117 0.931 . S
C96 C97 1.359 . S
C96 C98 1.364 . S
C97 C95 1.374 1_554 S
C97 C96 1.359 . S
C97 H118 0.931 . S
C98 C94 1.389 . S
C98 C96 1.364 . S
C98 H119 0.931 . S
C99 O110 1.256 . S
C99 O111 1.257 . S
O100 Gd80 2.377 . S
O100 C82 1.240 . S
O101 Gd81 2.395 . S
O101 C82 1.240 . S
O102 Gd80 2.448 . S
O102 C83 1.249 . S
O103 Gd80 2.506 . S
O103 C83 1.252 . S
O104 Gd80 2.435 . S
O104 C90 1.256 . S
O105 Gd80 2.717 . S
O105 Gd81 2.327 . S
O105 C90 1.257 . S
O106 Gd81 2.377 . S
O106 C91 1.240 . S
O107 Gd80 2.395 . S
O107 C91 1.240 . S
O108 Gd81 2.448 . S
O108 C92 1.249 . S
O109 Gd81 2.506 . S
O109 C92 1.252 . S
O110 Gd81 2.435 . S
O110 C99 1.256 . S
O111 Gd80 2.327 . S
O111 Gd81 2.717 . S
O111 C99 1.257 . S
H112 C85 0.930 . S
H113 C86 0.931 . S
H114 C88 0.931 . S
H115 C89 0.931 . S
H116 C94 0.930 1_556 S
H117 C95 0.931 . S
H118 C97 0.931 . S
H119 C98 0.931 . S
Gd120 C123 2.818 . S
Gd120 O140 2.377 . S
Gd120 O142 2.448 . S
Gd120 O143 2.506 . S
Gd120 O144 2.435 . S
Gd120 O145 2.717 . S
Gd120 O147 2.400 . S
Gd120 O151 2.327 . S
Gd121 C132 2.818 1_556 S
Gd121 O141 2.395 . S
Gd121 O145 2.327 . S
Gd121 O146 2.377 . S
Gd121 O148 2.448 1_556 S
Gd121 O149 2.506 1_556 S
Gd121 O150 2.435 . S
Gd121 O151 2.717 . S
C122 O140 1.240 . S
C122 O141 1.240 . S
C123 Gd120 2.818 . S
C123 C124 1.510 . S
C123 O142 1.249 . S
C123 O143 1.252 . S
C124 C123 1.510 . S
C124 C125 1.404 . S
C124 C126 1.352 . S
C125 C124 1.404 . S
C125 C129 1.389 . S
C125 H152 0.930 . S
C126 C124 1.352 . S
C126 C128 1.374 . S
C126 H153 0.931 . S
C127 C128 1.359 . S
C127 C129 1.364 . S
C128 C126 1.374 . S
C128 C127 1.359 . S
C128 H154 0.931 . S
C129 C125 1.389 . S
C129 C127 1.364 . S
C129 H155 0.931 . S
C130 O144 1.256 . S
C130 O145 1.257 . S
C131 O146 1.240 . S
C131 O147 1.239 . S
C132 Gd121 2.818 1_554 S
C132 C133 1.510 . S
C132 O148 1.249 . S
C132 O149 1.252 . S
C133 C132 1.510 . S
C133 C134 1.404 . S
C133 C135 1.352 . S
C134 C133 1.404 . S
C134 C138 1.389 . S
C134 H156 0.930 . S
C135 C133 1.352 . S
C135 C137 1.374 . S
C135 H157 0.931 . S
C136 C137 1.359 . S
C136 C138 1.364 . S
C137 C135 1.374 . S
C137 C136 1.359 . S
C137 H158 0.931 . S
C138 C134 1.389 . S
C138 C136 1.364 . S
C138 H159 0.931 . S
C139 O150 1.256 . S
C139 O151 1.257 . S
O140 Gd120 2.377 . S
O140 C122 1.240 . S
O141 Gd121 2.395 . S
O141 C122 1.240 . S
O142 Gd120 2.448 . S
O142 C123 1.249 . S
O143 Gd120 2.506 . S
O143 C123 1.252 . S
O144 Gd120 2.435 . S
O144 C130 1.256 . S
O145 Gd120 2.717 . S
O145 Gd121 2.327 . S
O145 C130 1.257 . S
O146 Gd121 2.377 . S
O146 C131 1.240 . S
O147 Gd120 2.400 . S
O147 C131 1.239 . S
O148 Gd121 2.448 1_554 S
O148 C132 1.249 . S
O149 Gd121 2.506 1_554 S
O149 C132 1.252 . S
O150 Gd121 2.435 . S
O150 C139 1.256 . S
O151 Gd120 2.327 . S
O151 Gd121 2.717 . S
O151 C139 1.257 . S
H152 C125 0.930 . S
H153 C126 0.931 . S
H154 C128 0.931 . S
H155 C129 0.931 . S
H156 C134 0.930 . S
H157 C135 0.931 . S
H158 C137 0.931 . S
H159 C138 0.931 . S
Gd160 C163 2.818 1_556 S
Gd160 O180 2.377 . S
Gd160 O182 2.448 1_556 S
Gd160 O183 2.506 1_556 S
Gd160 O184 2.435 . S
Gd160 O185 2.717 . S
Gd160 O187 2.395 . S
Gd160 O191 2.327 . S
Gd161 C172 2.818 . S
Gd161 O181 2.395 . S
Gd161 O185 2.327 . S
Gd161 O186 2.377 . S
Gd161 O188 2.448 . S
Gd161 O189 2.506 . S
Gd161 O190 2.435 . S
Gd161 O191 2.717 . S
C162 O180 1.240 . S
C162 O181 1.240 . S
C163 Gd160 2.818 1_554 S
C163 C164 1.510 . S
C163 O182 1.249 . S
C163 O183 1.252 . S
C164 C163 1.510 . S
C164 C165 1.404 . S
C164 C166 1.352 . S
C165 C164 1.404 . S
C165 C169 1.389 . S
C165 H192 0.930 . S
C166 C164 1.352 . S
C166 C168 1.374 . S
C166 H193 0.931 . S
C167 C168 1.359 . S
C167 C169 1.364 . S
C168 C166 1.374 . S
C168 C167 1.359 . S
C168 H194 0.931 . S
C169 C165 1.389 . S
C169 C167 1.364 . S
C169 H195 0.931 . S
C170 O184 1.256 . S
C170 O185 1.257 . S
C171 O186 1.240 . S
C171 O187 1.240 . S
C172 Gd161 2.818 . S
C172 C173 1.510 . S
C172 O188 1.249 . S
C172 O189 1.252 . S
C173 C172 1.510 . S
C173 C174 1.404 . S
C173 C175 1.352 . S
C174 C173 1.404 . S
C174 C178 1.389 . S
C174 H196 0.930 . S
C175 C173 1.352 . S
C175 C177 1.374 . S
C175 H197 0.931 . S
C176 C177 1.359 . S
C176 C178 1.364 . S
C177 C175 1.374 . S
C177 C176 1.359 . S
C177 H198 0.931 . S
C178 C174 1.389 . S
C178 C176 1.364 . S
C178 H199 0.931 . S
C179 O190 1.256 . S
C179 O191 1.257 . S
O180 Gd160 2.377 . S
O180 C162 1.240 . S
O181 Gd161 2.395 . S
O181 C162 1.240 . S
O182 Gd160 2.448 1_554 S
O182 C163 1.249 . S
O183 Gd160 2.506 1_554 S
O183 C163 1.252 . S
O184 Gd160 2.435 . S
O184 C170 1.256 . S
O185 Gd160 2.717 . S
O185 Gd161 2.327 . S
O185 C170 1.257 . S
O186 Gd161 2.377 . S
O186 C171 1.240 . S
O187 Gd160 2.395 . S
O187 C171 1.240 . S
O188 Gd161 2.448 . S
O188 C172 1.249 . S
O189 Gd161 2.506 . S
O189 C172 1.252 . S
O190 Gd161 2.435 . S
O190 C179 1.256 . S
O191 Gd160 2.327 . S
O191 Gd161 2.717 . S
O191 C179 1.257 . S
H192 C165 0.930 . S
H193 C166 0.931 . S
H194 C168 0.931 . S
H195 C169 0.931 . S
H196 C174 0.930 . S
H197 C175 0.931 . S
H198 C177 0.931 . S
H199 C178 0.931 . S
Gd200 C203 2.818 . S
Gd200 O220 2.377 . S
Gd200 O222 2.448 . S
Gd200 O223 2.506 . S
Gd200 O224 2.435 . S
Gd200 O225 2.717 . S
Gd200 O227 2.395 . S
Gd200 O231 2.327 . S
Gd201 C212 2.818 1_554 S
Gd201 O221 2.395 . S
Gd201 O225 2.327 . S
Gd201 O226 2.377 . S
Gd201 O228 2.448 1_554 S
Gd201 O229 2.506 1_554 S
Gd201 O230 2.435 . S
Gd201 O231 2.717 . S
C202 O220 1.240 . S
C202 O221 1.240 . S
C203 Gd200 2.818 . S
C203 C204 1.510 . S
C203 O222 1.249 . S
C203 O223 1.252 . S
C204 C203 1.510 . S
C204 C205 1.404 . S
C204 C206 1.352 . S
C205 C204 1.404 . S
C205 C209 1.389 . S
C205 H232 0.930 . S
C206 C204 1.352 . S
C206 C208 1.374 . S
C206 H233 0.931 . S
C207 C208 1.359 . S
C207 C209 1.364 . S
C208 C206 1.374 . S
C208 C207 1.359 . S
C208 H234 0.931 . S
C209 C205 1.389 . S
C209 C207 1.364 . S
C209 H235 0.931 . S
C210 O224 1.256 . S
C210 O225 1.257 . S
C211 O226 1.240 . S
C211 O227 1.240 . S
C212 Gd201 2.818 1_556 S
C212 C213 1.510 . S
C212 O228 1.249 . S
C212 O229 1.252 . S
C213 C212 1.510 . S
C213 C214 1.404 . S
C213 C215 1.352 . S
C214 C213 1.404 . S
C214 C218 1.389 . S
C214 H236 0.930 . S
C215 C213 1.352 . S
C215 C217 1.374 . S
C215 H237 0.931 . S
C216 C217 1.359 . S
C216 C218 1.364 . S
C217 C215 1.374 . S
C217 C216 1.359 . S
C217 H238 0.931 . S
C218 C214 1.389 . S
C218 C216 1.364 . S
C218 H239 0.931 . S
C219 O230 1.256 . S
C219 O231 1.257 . S
O220 Gd200 2.377 . S
O220 C202 1.240 . S
O221 Gd201 2.395 . S
O221 C202 1.240 . S
O222 Gd200 2.448 . S
O222 C203 1.249 . S
O223 Gd200 2.506 . S
O223 C203 1.252 . S
O224 Gd200 2.435 . S
O224 C210 1.256 . S
O225 Gd200 2.717 . S
O225 Gd201 2.327 . S
O225 C210 1.257 . S
O226 Gd201 2.377 . S
O226 C211 1.240 . S
O227 Gd200 2.395 . S
O227 C211 1.240 . S
O228 Gd201 2.448 1_556 S
O228 C212 1.249 . S
O229 Gd201 2.506 1_556 S
O229 C212 1.252 . S
O230 Gd201 2.435 . S
O230 C219 1.256 . S
O231 Gd200 2.327 . S
O231 Gd201 2.717 . S
O231 C219 1.257 . S
H232 C205 0.930 . S
H233 C206 0.931 . S
H234 C208 0.931 . S
H235 C209 0.931 . S
H236 C214 0.930 . S
H237 C215 0.931 . S
H238 C217 0.931 . S
H239 C218 0.931 . S
Gd240 C243 2.818 . S
Gd240 O260 2.377 . S
Gd240 O262 2.448 . S
Gd240 O263 2.506 . S
Gd240 O264 2.435 . S
Gd240 O265 2.717 . S
Gd240 O267 2.395 . S
Gd240 O271 2.327 . S
Gd241 C252 2.818 . S
Gd241 O261 2.395 . S
Gd241 O265 2.327 . S
Gd241 O266 2.377 . S
Gd241 O268 2.448 . S
Gd241 O269 2.506 . S
Gd241 O270 2.435 . S
Gd241 O271 2.717 . S
C242 O260 1.240 . S
C242 O261 1.240 . S
C243 Gd240 2.818 . S
C243 C244 1.510 . S
C243 O262 1.249 . S
C243 O263 1.252 . S
C244 C243 1.510 . S
C244 C245 1.404 . S
C244 C246 1.352 . S
C245 C244 1.404 . S
C245 C249 1.389 1_554 S
C245 H272 0.930 . S
C246 C244 1.352 . S
C246 C248 1.374 1_554 S
C246 H273 0.931 . S
C247 C248 1.359 . S
C247 C249 1.364 . S
C248 C246 1.374 1_556 S
C248 C247 1.359 . S
C248 H274 0.931 . S
C249 C245 1.389 1_556 S
C249 C247 1.364 . S
C249 H275 0.931 . S
C250 O264 1.256 . S
C250 O265 1.257 . S
C251 O266 1.240 . S
C251 O267 1.240 . S
C252 Gd241 2.818 . S
C252 C253 1.510 . S
C252 O268 1.249 . S
C252 O269 1.252 . S
C253 C252 1.510 . S
C253 C254 1.404 . S
C253 C255 1.352 . S
C254 C253 1.404 . S
C254 C258 1.389 . S
C254 H276 0.930 . S
C255 C253 1.352 . S
C255 C257 1.374 . S
C255 H277 0.931 . S
C256 C257 1.359 . S
C256 C258 1.364 . S
C257 C255 1.374 . S
C257 C256 1.359 . S
C257 H278 0.931 . S
C258 C254 1.389 . S
C258 C256 1.364 . S
C258 H279 0.931 . S
C259 O270 1.256 . S
C259 O271 1.257 . S
O260 Gd240 2.377 . S
O260 C242 1.240 . S
O261 Gd241 2.395 . S
O261 C242 1.240 . S
O262 Gd240 2.448 . S
O262 C243 1.249 . S
O263 Gd240 2.506 . S
O263 C243 1.252 . S
O264 Gd240 2.435 . S
O264 C250 1.256 . S
O265 Gd240 2.717 . S
O265 Gd241 2.327 . S
O265 C250 1.257 . S
O266 Gd241 2.377 . S
O266 C251 1.240 . S
O267 Gd240 2.395 . S
O267 C251 1.240 . S
O268 Gd241 2.448 . S
O268 C252 1.249 . S
O269 Gd241 2.506 . S
O269 C252 1.252 . S
O270 Gd241 2.435 . S
O270 C259 1.256 . S
O271 Gd240 2.327 . S
O271 Gd241 2.717 . S
O271 C259 1.257 . S
H272 C245 0.930 . S
H273 C246 0.931 . S
H274 C248 0.931 . S
H275 C249 0.931 . S
H276 C254 0.930 . S
H277 C255 0.931 . S
H278 C257 0.931 . S
H279 C258 0.931 . S
Gd280 C283 2.818 . S
Gd280 O300 2.377 . S
Gd280 O302 2.448 . S
Gd280 O303 2.506 . S
Gd280 O304 2.435 . S
Gd280 O305 2.717 . S
Gd280 O307 2.395 . S
Gd280 O311 2.327 . S
Gd281 C292 2.818 . S
Gd281 O301 2.395 . S
Gd281 O305 2.327 . S
Gd281 O306 2.377 . S
Gd281 O308 2.448 . S
Gd281 O309 2.506 . S
Gd281 O310 2.435 . S
Gd281 O311 2.717 . S
C282 O300 1.240 . S
C282 O301 1.240 . S
C283 Gd280 2.818 . S
C283 C284 1.510 . S
C283 O302 1.249 . S
C283 O303 1.252 . S
C284 C283 1.510 . S
C284 C285 1.404 . S
C284 C286 1.352 . S
C285 C284 1.404 . S
C285 C289 1.389 . S
C285 H312 0.930 . S
C286 C284 1.352 . S
C286 C288 1.374 . S
C286 H313 0.931 . S
C287 C288 1.359 . S
C287 C289 1.364 . S
C288 C286 1.374 . S
C288 C287 1.359 . S
C288 H314 0.931 . S
C289 C285 1.389 . S
C289 C287 1.364 . S
C289 H315 0.931 . S
C290 O304 1.256 . S
C290 O305 1.257 . S
C291 O306 1.240 . S
C291 O307 1.240 . S
C292 Gd281 2.818 . S
C292 C293 1.510 . S
C292 O308 1.249 . S
C292 O309 1.252 . S
C293 C292 1.510 . S
C293 C294 1.404 . S
C293 C295 1.352 . S
C294 C293 1.404 . S
C294 C298 1.389 1_556 S
C294 H316 0.930 . S
C295 C293 1.352 . S
C295 C297 1.374 1_556 S
C295 H317 0.931 . S
C296 C297 1.359 . S
C296 C298 1.364 . S
C297 C295 1.374 1_554 S
C297 C296 1.359 . S
C297 H318 0.931 . S
C298 C294 1.389 1_554 S
C298 C296 1.364 . S
C298 H319 0.931 . S
C299 O310 1.256 . S
C299 O311 1.257 . S
O300 Gd280 2.377 . S
O300 C282 1.240 . S
O301 Gd281 2.395 . S
O301 C282 1.240 . S
O302 Gd280 2.448 . S
O302 C283 1.249 . S
O303 Gd280 2.506 . S
O303 C283 1.252 . S
O304 Gd280 2.435 . S
O304 C290 1.256 . S
O305 Gd280 2.717 . S
O305 Gd281 2.327 . S
O305 C290 1.257 . S
O306 Gd281 2.377 . S
O306 C291 1.240 . S
O307 Gd280 2.395 . S
O307 C291 1.240 . S
O308 Gd281 2.448 . S
O308 C292 1.249 . S
O309 Gd281 2.506 . S
O309 C292 1.252 . S
O310 Gd281 2.435 . S
O310 C299 1.256 . S
O311 Gd280 2.327 . S
O311 Gd281 2.717 . S
O311 C299 1.257 . S
H312 C285 0.930 . S
H313 C286 0.931 . S
H314 C288 0.931 . S
H315 C289 0.931 . S
H316 C294 0.930 . S
H317 C295 0.931 . S
H318 C297 0.931 . S
H319 C298 0.931 . S
Gd320 C323 2.818 . S
Gd320 O340 2.377 . S
Gd320 O342 2.448 . S
Gd320 O343 2.506 . S
Gd320 O344 2.435 . S
Gd320 O345 2.717 . S
Gd320 O347 2.395 . S
Gd320 O351 2.327 . S
Gd321 C332 2.818 1_556 S
Gd321 O341 2.395 . S
Gd321 O345 2.327 . S
Gd321 O346 2.377 . S
Gd321 O348 2.448 1_556 S
Gd321 O349 2.506 1_556 S
Gd321 O350 2.435 . S
Gd321 O351 2.717 . S
C322 O340 1.240 . S
C322 O341 1.240 . S
C323 Gd320 2.818 . S
C323 C324 1.510 . S
C323 O342 1.249 . S
C323 O343 1.252 . S
C324 C323 1.510 . S
C324 C325 1.404 . S
C324 C326 1.352 . S
C325 C324 1.404 . S
C325 C329 1.389 . S
C325 H352 0.930 . S
C326 C324 1.352 . S
C326 C328 1.374 . S
C326 H353 0.931 . S
C327 C328 1.359 . S
C327 C329 1.364 . S
C328 C326 1.374 . S
C328 C327 1.359 . S
C328 H354 0.931 . S
C329 C325 1.389 . S
C329 C327 1.364 . S
C329 H355 0.931 . S
C330 O344 1.256 . S
C330 O345 1.257 . S
C331 O346 1.240 . S
C331 O347 1.240 . S
C332 Gd321 2.818 1_554 S
C332 C333 1.510 . S
C332 O348 1.249 . S
C332 O349 1.252 . S
C333 C332 1.510 . S
C333 C334 1.404 . S
C333 C335 1.352 . S
C334 C333 1.404 . S
C334 C338 1.389 . S
C334 H356 0.930 . S
C335 C333 1.352 . S
C335 C337 1.374 . S
C335 H357 0.931 . S
C336 C337 1.359 . S
C336 C338 1.364 . S
C337 C335 1.374 . S
C337 C336 1.359 . S
C337 H358 0.931 . S
C338 C334 1.389 . S
C338 C336 1.364 . S
C338 H359 0.931 . S
C339 O350 1.256 . S
C339 O351 1.257 . S
O340 Gd320 2.377 . S
O340 C322 1.240 . S
O341 Gd321 2.395 . S
O341 C322 1.240 . S
O342 Gd320 2.448 . S
O342 C323 1.249 . S
O343 Gd320 2.506 . S
O343 C323 1.252 . S
O344 Gd320 2.435 . S
O344 C330 1.256 . S
O345 Gd320 2.717 . S
O345 Gd321 2.327 . S
O345 C330 1.257 . S
O346 Gd321 2.377 . S
O346 C331 1.240 . S
O347 Gd320 2.395 . S
O347 C331 1.240 . S
O348 Gd321 2.448 1_554 S
O348 C332 1.249 . S
O349 Gd321 2.506 1_554 S
O349 C332 1.252 . S
O350 Gd321 2.435 . S
O350 C339 1.256 . S
O351 Gd320 2.327 . S
O351 Gd321 2.717 . S
O351 C339 1.257 . S
H352 C325 0.930 . S
H353 C326 0.931 . S
H354 C328 0.931 . S
H355 C329 0.931 . S
H356 C334 0.930 . S
H357 C335 0.931 . S
H358 C337 0.931 . S
H359 C338 0.931 . S
Gd360 C363 2.818 . S
Gd360 O380 2.377 . S
Gd360 O382 2.448 . S
Gd360 O383 2.506 . S
Gd360 O384 2.435 . S
Gd360 O385 2.717 . S
Gd360 O387 2.395 . S
Gd360 O391 2.327 . S
Gd361 C372 2.818 . S
Gd361 O381 2.395 . S
Gd361 O385 2.327 . S
Gd361 O386 2.377 . S
Gd361 O388 2.448 . S
Gd361 O389 2.506 . S
Gd361 O390 2.435 . S
Gd361 O391 2.717 . S
C362 O380 1.240 . S
C362 O381 1.240 . S
C363 Gd360 2.818 . S
C363 C364 1.510 . S
C363 O382 1.249 . S
C363 O383 1.252 . S
C364 C363 1.510 . S
C364 C365 1.404 . S
C364 C366 1.352 . S
C365 C364 1.404 . S
C365 C369 1.389 1_556 S
C365 H392 0.930 . S
C366 C364 1.352 . S
C366 C368 1.374 1_556 S
C366 H393 0.931 . S
C367 C368 1.359 . S
C367 C369 1.364 . S
C368 C366 1.374 1_554 S
C368 C367 1.359 . S
C368 H394 0.931 . S
C369 C365 1.389 1_554 S
C369 C367 1.364 . S
C369 H395 0.931 . S
C370 O384 1.256 . S
C370 O385 1.257 . S
C371 O386 1.240 . S
C371 O387 1.240 . S
C372 Gd361 2.818 . S
C372 C373 1.510 . S
C372 O388 1.249 . S
C372 O389 1.252 . S
C373 C372 1.510 . S
C373 C374 1.404 . S
C373 C375 1.352 . S
C374 C373 1.404 . S
C374 C378 1.389 . S
C374 H396 0.930 . S
C375 C373 1.352 . S
C375 C377 1.374 . S
C375 H397 0.931 . S
C376 C377 1.359 . S
C376 C378 1.364 . S
C377 C375 1.374 . S
C377 C376 1.359 . S
C377 H398 0.931 . S
C378 C374 1.389 . S
C378 C376 1.364 . S
C378 H399 0.931 . S
C379 O390 1.256 . S
C379 O391 1.257 . S
O380 Gd360 2.377 . S
O380 C362 1.240 . S
O381 Gd361 2.395 . S
O381 C362 1.240 . S
O382 Gd360 2.448 . S
O382 C363 1.249 . S
O383 Gd360 2.506 . S
O383 C363 1.252 . S
O384 Gd360 2.435 . S
O384 C370 1.256 . S
O385 Gd360 2.717 . S
O385 Gd361 2.327 . S
O385 C370 1.257 . S
O386 Gd361 2.377 . S
O386 C371 1.240 . S
O387 Gd360 2.395 . S
O387 C371 1.240 . S
O388 Gd361 2.448 . S
O388 C372 1.249 . S
O389 Gd361 2.506 . S
O389 C372 1.252 . S
O390 Gd361 2.435 . S
O390 C379 1.256 . S
O391 Gd360 2.327 . S
O391 Gd361 2.717 . S
O391 C379 1.257 . S
H392 C365 0.930 . S
H393 C366 0.931 . S
H394 C368 0.931 . S
H395 C369 0.931 . S
H396 C374 0.930 . S
H397 C375 0.931 . S
H398 C377 0.931 . S
H399 C378 0.931 . S
Gd400 C403 2.818 . S
Gd400 O420 2.377 . S
Gd400 O422 2.448 . S
Gd400 O423 2.506 . S
Gd400 O424 2.435 . S
Gd400 O425 2.717 . S
Gd400 O427 2.395 . S
Gd400 O431 2.327 . S
Gd401 C412 2.818 . S
Gd401 O421 2.395 . S
Gd401 O425 2.327 . S
Gd401 O426 2.377 . S
Gd401 O428 2.448 . S
Gd401 O429 2.506 . S
Gd401 O430 2.435 . S
Gd401 O431 2.717 . S
C402 O420 1.240 . S
C402 O421 1.240 . S
C403 Gd400 2.818 . S
C403 C404 1.510 . S
C403 O422 1.249 . S
C403 O423 1.252 . S
C404 C403 1.510 . S
C404 C405 1.404 . S
C404 C406 1.352 . S
C405 C404 1.404 . S
C405 C409 1.389 . S
C405 H432 0.930 . S
C406 C404 1.352 . S
C406 C408 1.374 . S
C406 H433 0.931 . S
C407 C408 1.359 . S
C407 C409 1.364 . S
C408 C406 1.374 . S
C408 C407 1.359 . S
C408 H434 0.931 . S
C409 C405 1.389 . S
C409 C407 1.364 . S
C409 H435 0.931 . S
C410 O424 1.256 . S
C410 O425 1.257 . S
C411 O426 1.240 . S
C411 O427 1.240 . S
C412 Gd401 2.818 . S
C412 C413 1.510 . S
C412 O428 1.249 . S
C412 O429 1.252 . S
C413 C412 1.510 . S
C413 C414 1.404 . S
C413 C415 1.352 . S
C414 C413 1.404 . S
C414 C418 1.389 1_554 S
C414 H436 0.930 . S
C415 C413 1.352 . S
C415 C417 1.374 1_554 S
C415 H437 0.931 . S
C416 C417 1.359 . S
C416 C418 1.364 . S
C417 C415 1.374 1_556 S
C417 C416 1.359 . S
C417 H438 0.931 . S
C418 C414 1.389 1_556 S
C418 C416 1.364 . S
C418 H439 0.931 . S
C419 O430 1.256 . S
C419 O431 1.257 . S
O420 Gd400 2.377 . S
O420 C402 1.240 . S
O421 Gd401 2.395 . S
O421 C402 1.240 . S
O422 Gd400 2.448 . S
O422 C403 1.249 . S
O423 Gd400 2.506 . S
O423 C403 1.252 . S
O424 Gd400 2.435 . S
O424 C410 1.256 . S
O425 Gd400 2.717 . S
O425 Gd401 2.327 . S
O425 C410 1.257 . S
O426 Gd401 2.377 . S
O426 C411 1.240 . S
O427 Gd400 2.395 . S
O427 C411 1.240 . S
O428 Gd401 2.448 . S
O428 C412 1.249 . S
O429 Gd401 2.506 . S
O429 C412 1.252 . S
O430 Gd401 2.435 . S
O430 C419 1.256 . S
O431 Gd400 2.327 . S
O431 Gd401 2.717 . S
O431 C419 1.257 . S
H432 C405 0.930 . S
H433 C406 0.931 . S
H434 C408 0.931 . S
H435 C409 0.931 . S
H436 C414 0.930 . S
H437 C415 0.931 . S
H438 C417 0.931 . S
H439 C418 0.931 . S
Gd440 C443 2.818 1_554 S
Gd440 O460 2.377 . S
Gd440 O462 2.448 1_554 S
Gd440 O463 2.506 1_554 S
Gd440 O464 2.435 . S
Gd440 O465 2.717 . S
Gd440 O467 2.395 . S
Gd440 O471 2.327 . S
Gd441 C452 2.818 . S
Gd441 O461 2.395 . S
Gd441 O465 2.327 . S
Gd441 O466 2.377 . S
Gd441 O468 2.448 . S
Gd441 O469 2.506 . S
Gd441 O470 2.435 . S
Gd441 O471 2.717 . S
C442 O460 1.240 . S
C442 O461 1.240 . S
C443 Gd440 2.818 1_556 S
C443 C444 1.510 . S
C443 O462 1.249 . S
C443 O463 1.252 . S
C444 C443 1.510 . S
C444 C445 1.404 . S
C444 C446 1.352 . S
C445 C444 1.404 . S
C445 C449 1.389 . S
C445 H472 0.930 . S
C446 C444 1.352 . S
C446 C448 1.374 . S
C446 H473 0.931 . S
C447 C448 1.359 . S
C447 C449 1.364 . S
C448 C446 1.374 . S
C448 C447 1.359 . S
C448 H474 0.931 . S
C449 C445 1.389 . S
C449 C447 1.364 . S
C449 H475 0.931 . S
C450 O464 1.256 . S
C450 O465 1.257 . S
C451 O466 1.240 . S
C451 O467 1.240 . S
C452 Gd441 2.818 . S
C452 C453 1.510 . S
C452 O468 1.249 . S
C452 O469 1.252 . S
C453 C452 1.510 . S
C453 C454 1.404 . S
C453 C455 1.352 . S
C454 C453 1.404 . S
C454 C458 1.389 . S
C454 H476 0.930 . S
C455 C453 1.352 . S
C455 C457 1.374 . S
C455 H477 0.931 . S
C456 C457 1.359 . S
C456 C458 1.364 . S
C457 C455 1.374 . S
C457 C456 1.359 . S
C457 H478 0.931 . S
C458 C454 1.389 . S
C458 C456 1.364 . S
C458 H479 0.931 . S
C459 O470 1.256 . S
C459 O471 1.257 . S
O460 Gd440 2.377 . S
O460 C442 1.240 . S
O461 Gd441 2.395 . S
O461 C442 1.240 . S
O462 Gd440 2.448 1_556 S
O462 C443 1.249 . S
O463 Gd440 2.506 1_556 S
O463 C443 1.252 . S
O464 Gd440 2.435 . S
O464 C450 1.256 . S
O465 Gd440 2.717 . S
O465 Gd441 2.327 . S
O465 C450 1.257 . S
O466 Gd441 2.377 . S
O466 C451 1.240 . S
O467 Gd440 2.395 . S
O467 C451 1.240 . S
O468 Gd441 2.448 . S
O468 C452 1.249 . S
O469 Gd441 2.506 . S
O469 C452 1.252 . S
O470 Gd441 2.435 . S
O470 C459 1.256 . S
O471 Gd440 2.327 . S
O471 Gd441 2.717 . S
O471 C459 1.257 . S
H472 C445 0.930 . S
H473 C446 0.931 . S
H474 C448 0.931 . S
H475 C449 0.931 . S
H476 C454 0.930 . S
H477 C455 0.931 . S
H478 C457 0.931 . S
H479 C458 0.931 . S
Gd480 C483 2.818 . S
Gd480 O500 2.377 . S
Gd480 O502 2.448 . S
Gd480 O503 2.506 . S
Gd480 O504 2.435 . S
Gd480 O505 2.717 . S
Gd480 O507 2.395 . S
Gd480 O511 2.327 . S
Gd481 C492 2.818 1_554 S
Gd481 O501 2.395 . S
Gd481 O505 2.327 . S
Gd481 O506 2.377 . S
Gd481 O508 2.448 1_554 S
Gd481 O509 2.506 1_554 S
Gd481 O510 2.435 . S
Gd481 O511 2.717 . S
C482 O500 1.240 . S
C482 O501 1.240 . S
C483 Gd480 2.818 . S
C483 C484 1.510 . S
C483 O502 1.249 . S
C483 O503 1.252 . S
C484 C483 1.510 . S
C484 C485 1.404 . S
C484 C486 1.352 . S
C485 C484 1.404 . S
C485 C489 1.389 . S
C485 H512 0.930 . S
C486 C484 1.352 . S
C486 C488 1.374 . S
C486 H513 0.931 . S
C487 C488 1.359 . S
C487 C489 1.364 . S
C488 C486 1.374 . S
C488 C487 1.359 . S
C488 H514 0.931 . S
C489 C485 1.389 . S
C489 C487 1.364 . S
C489 H515 0.931 . S
C490 O504 1.256 . S
C490 O505 1.257 . S
C491 O506 1.240 . S
C491 O507 1.240 . S
C492 Gd481 2.818 1_556 S
C492 C493 1.510 . S
C492 O508 1.249 . S
C492 O509 1.252 . S
C493 C492 1.510 . S
C493 C494 1.404 . S
C493 C495 1.352 . S
C494 C493 1.404 . S
C494 C498 1.389 . S
C494 H516 0.930 . S
C495 C493 1.352 . S
C495 C497 1.374 . S
C495 H517 0.931 . S
C496 C497 1.359 . S
C496 C498 1.364 . S
C497 C495 1.374 . S
C497 C496 1.359 . S
C497 H518 0.931 . S
C498 C494 1.389 . S
C498 C496 1.364 . S
C498 H519 0.931 . S
C499 O510 1.256 . S
C499 O511 1.257 . S
O500 Gd480 2.377 . S
O500 C482 1.240 . S
O501 Gd481 2.395 . S
O501 C482 1.240 . S
O502 Gd480 2.448 . S
O502 C483 1.249 . S
O503 Gd480 2.506 . S
O503 C483 1.252 . S
O504 Gd480 2.435 . S
O504 C490 1.256 . S
O505 Gd480 2.717 . S
O505 Gd481 2.327 . S
O505 C490 1.257 . S
O506 Gd481 2.377 . S
O506 C491 1.240 . S
O507 Gd480 2.395 . S
O507 C491 1.240 . S
O508 Gd481 2.448 1_556 S
O508 C492 1.249 . S
O509 Gd481 2.506 1_556 S
O509 C492 1.252 . S
O510 Gd481 2.435 . S
O510 C499 1.256 . S
O511 Gd480 2.327 . S
O511 Gd481 2.717 . S
O511 C499 1.257 . S
H512 C485 0.930 . S
H513 C486 0.931 . S
H514 C488 0.931 . S
H515 C489 0.931 . S
H516 C494 0.930 . S
H517 C495 0.931 . S
H518 C497 0.931 . S
H519 C498 0.931 . S
Gd520 C523 2.818 1_556 S
Gd520 O540 2.377 . S
Gd520 O542 2.448 1_556 S
Gd520 O543 2.506 1_556 S
Gd520 O544 2.435 . S
Gd520 O545 2.717 . S
Gd520 O547 2.395 . S
Gd520 O551 2.327 . S
Gd521 C532 2.818 . S
Gd521 O541 2.394 . S
Gd521 O545 2.327 . S
Gd521 O546 2.377 . S
Gd521 O548 2.448 . S
Gd521 O549 2.506 . S
Gd521 O550 2.435 . S
Gd521 O551 2.717 . S
C522 O540 1.240 . S
C522 O541 1.240 . S
C523 Gd520 2.818 1_554 S
C523 C524 1.510 . S
C523 O542 1.249 . S
C523 O543 1.252 . S
C524 C523 1.510 . S
C524 C525 1.404 . S
C524 C526 1.352 . S
C525 C524 1.404 . S
C525 C529 1.389 . S
C525 H552 0.930 . S
C526 C524 1.352 . S
C526 C528 1.374 . S
C526 H553 0.931 . S
C527 C528 1.359 . S
C527 C529 1.364 . S
C528 C526 1.374 . S
C528 C527 1.359 . S
C528 H554 0.931 . S
C529 C525 1.389 . S
C529 C527 1.364 . S
C529 H555 0.931 . S
C530 O544 1.256 . S
C530 O545 1.257 . S
C531 O546 1.240 . S
C531 O547 1.240 . S
C532 Gd521 2.818 . S
C532 C533 1.510 . S
C532 O548 1.249 . S
C532 O549 1.252 . S
C533 C532 1.510 . S
C533 C534 1.404 . S
C533 C535 1.352 . S
C534 C533 1.404 . S
C534 C538 1.389 . S
C534 H556 0.930 . S
C535 C533 1.352 . S
C535 C537 1.374 . S
C535 H557 0.931 . S
C536 C537 1.359 . S
C536 C538 1.364 . S
C537 C535 1.374 . S
C537 C536 1.359 . S
C537 H558 0.931 . S
C538 C534 1.389 . S
C538 C536 1.364 . S
C538 H559 0.931 . S
C539 O550 1.256 . S
C539 O551 1.257 . S
O540 Gd520 2.377 . S
O540 C522 1.240 . S
O541 Gd521 2.394 . S
O541 C522 1.240 . S
O542 Gd520 2.448 1_554 S
O542 C523 1.249 . S
O543 Gd520 2.506 1_554 S
O543 C523 1.252 . S
O544 Gd520 2.435 . S
O544 C530 1.256 . S
O545 Gd520 2.717 . S
O545 Gd521 2.327 . S
O545 C530 1.257 . S
O546 Gd521 2.377 . S
O546 C531 1.240 . S
O547 Gd520 2.395 . S
O547 C531 1.240 . S
O548 Gd521 2.448 . S
O548 C532 1.249 . S
O549 Gd521 2.506 . S
O549 C532 1.252 . S
O550 Gd521 2.435 . S
O550 C539 1.256 . S
O551 Gd520 2.327 . S
O551 Gd521 2.717 . S
O551 C539 1.257 . S
H552 C525 0.930 . S
H553 C526 0.931 . S
H554 C528 0.931 . S
H555 C529 0.931 . S
H556 C534 0.930 . S
H557 C535 0.931 . S
H558 C537 0.931 . S
H559 C538 0.931 . S
Gd560 C563 2.818 . S
Gd560 O580 2.377 . S
Gd560 O582 2.448 . S
Gd560 O583 2.506 . S
Gd560 O584 2.435 . S
Gd560 O585 2.717 . S
Gd560 O587 2.395 . S
Gd560 O591 2.327 . S
Gd561 C572 2.818 . S
Gd561 O581 2.395 . S
Gd561 O585 2.327 . S
Gd561 O586 2.377 . S
Gd561 O588 2.448 . S
Gd561 O589 2.506 . S
Gd561 O590 2.435 . S
Gd561 O591 2.717 . S
C562 O580 1.240 . S
C562 O581 1.240 . S
C563 Gd560 2.818 . S
C563 C564 1.510 . S
C563 O582 1.249 . S
C563 O583 1.252 . S
C564 C563 1.510 . S
C564 C565 1.404 . S
C564 C566 1.352 . S
C565 C564 1.404 . S
C565 C569 1.389 . S
C565 H592 0.930 . S
C566 C564 1.352 . S
C566 C568 1.374 . S
C566 H593 0.931 . S
C567 C568 1.359 . S
C567 C569 1.364 . S
C568 C566 1.374 . S
C568 C567 1.359 . S
C568 H594 0.931 . S
C569 C565 1.389 . S
C569 C567 1.364 . S
C569 H595 0.931 . S
C570 O584 1.256 . S
C570 O585 1.257 . S
C571 O586 1.240 . S
C571 O587 1.240 . S
C572 Gd561 2.818 . S
C572 C573 1.510 . S
C572 O588 1.249 . S
C572 O589 1.252 . S
C573 C572 1.510 . S
C573 C574 1.404 . S
C573 C575 1.352 . S
C574 C573 1.404 . S
C574 C578 1.389 1_556 S
C574 H596 0.930 . S
C575 C573 1.352 . S
C575 C577 1.374 1_556 S
C575 H597 0.931 . S
C576 C577 1.359 . S
C576 C578 1.364 . S
C577 C575 1.374 1_554 S
C577 C576 1.359 . S
C577 H598 0.931 . S
C578 C574 1.389 1_554 S
C578 C576 1.364 . S
C578 H599 0.931 . S
C579 O590 1.256 . S
C579 O591 1.257 . S
O580 Gd560 2.377 . S
O580 C562 1.240 . S
O581 Gd561 2.395 . S
O581 C562 1.240 . S
O582 Gd560 2.448 . S
O582 C563 1.249 . S
O583 Gd560 2.506 . S
O583 C563 1.252 . S
O584 Gd560 2.435 . S
O584 C570 1.256 . S
O585 Gd560 2.717 . S
O585 Gd561 2.327 . S
O585 C570 1.257 . S
O586 Gd561 2.377 . S
O586 C571 1.240 . S
O587 Gd560 2.395 . S
O587 C571 1.240 . S
O588 Gd561 2.448 . S
O588 C572 1.249 . S
O589 Gd561 2.506 . S
O589 C572 1.252 . S
O590 Gd561 2.435 . S
O590 C579 1.256 . S
O591 Gd560 2.327 . S
O591 Gd561 2.717 . S
O591 C579 1.257 . S
H592 C565 0.930 . S
H593 C566 0.931 . S
H594 C568 0.931 . S
H595 C569 0.931 . S
H596 C574 0.930 . S
H597 C575 0.931 . S
H598 C577 0.931 . S
H599 C578 0.931 . S
Gd600 C603 2.818 . S
Gd600 O620 2.377 . S
Gd600 O622 2.448 . S
Gd600 O623 2.506 . S
Gd600 O624 2.435 . S
Gd600 O625 2.717 . S
Gd600 O627 2.395 . S
Gd600 O631 2.327 . S
Gd601 C612 2.818 . S
Gd601 O621 2.395 . S
Gd601 O625 2.327 . S
Gd601 O626 2.377 . S
Gd601 O628 2.448 . S
Gd601 O629 2.506 . S
Gd601 O630 2.435 . S
Gd601 O631 2.717 . S
C602 O620 1.240 . S
C602 O621 1.240 . S
C603 Gd600 2.818 . S
C603 C604 1.510 . S
C603 O622 1.249 . S
C603 O623 1.252 . S
C604 C603 1.510 . S
C604 C605 1.404 . S
C604 C606 1.352 . S
C605 C604 1.404 . S
C605 C609 1.389 1_554 S
C605 H632 0.930 . S
C606 C604 1.352 . S
C606 C608 1.374 1_554 S
C606 H633 0.931 . S
C607 C608 1.359 . S
C607 C609 1.364 . S
C608 C606 1.374 1_556 S
C608 C607 1.359 . S
C608 H634 0.931 . S
C609 C605 1.389 1_556 S
C609 C607 1.364 . S
C609 H635 0.931 . S
C610 O624 1.256 . S
C610 O625 1.257 . S
C611 O626 1.240 . S
C611 O627 1.240 . S
C612 Gd601 2.818 . S
C612 C613 1.510 . S
C612 O628 1.249 . S
C612 O629 1.252 . S
C613 C612 1.510 . S
C613 C614 1.404 . S
C613 C615 1.352 . S
C614 C613 1.404 . S
C614 C618 1.389 . S
C614 H636 0.930 . S
C615 C613 1.352 . S
C615 C617 1.374 . S
C615 H637 0.931 . S
C616 C617 1.359 . S
C616 C618 1.364 . S
C617 C615 1.374 . S
C617 C616 1.359 . S
C617 H638 0.931 . S
C618 C614 1.389 . S
C618 C616 1.364 . S
C618 H639 0.931 . S
C619 O630 1.256 . S
C619 O631 1.257 . S
O620 Gd600 2.377 . S
O620 C602 1.240 . S
O621 Gd601 2.395 . S
O621 C602 1.240 . S
O622 Gd600 2.448 . S
O622 C603 1.249 . S
O623 Gd600 2.506 . S
O623 C603 1.252 . S
O624 Gd600 2.435 . S
O624 C610 1.256 . S
O625 Gd600 2.717 . S
O625 Gd601 2.327 . S
O625 C610 1.257 . S
O626 Gd601 2.377 . S
O626 C611 1.240 . S
O627 Gd600 2.395 . S
O627 C611 1.240 . S
O628 Gd601 2.448 . S
O628 C612 1.249 . S
O629 Gd601 2.506 . S
O629 C612 1.252 . S
O630 Gd601 2.435 . S
O630 C619 1.256 . S
O631 Gd600 2.327 . S
O631 Gd601 2.717 . S
O631 C619 1.257 . S
H632 C605 0.930 . S
H633 C606 0.931 . S
H634 C608 0.931 . S
H635 C609 0.931 . S
H636 C614 0.930 . S
H637 C615 0.931 . S
H638 C617 0.931 . S
H639 C618 0.931 . S
C7 C16 2.624 . S
C56 C47 2.440 . S
C87 C96 3.412 . S
C127 C136 2.137 . S
C167 C176 2.492 . S
C216 C207 2.292 . S
C256 C247 1.933 . S
C296 C287 2.650 . S
C336 C327 2.382 . S
C376 C367 2.343 . S
C416 C407 2.731 . S
C456 C447 1.990 . S
C496 C487 2.605 . S
C536 C527 2.616 . S
C567 C576 2.116 . S
C607 C616 2.899 . S
C10 C451 1.867 . S
C42 C611 2.062 . S
C90 C379 1.682 . S
C130 C539 1.792 1_655 S
C170 C531 1.999 . S
C459 C210 1.754 1_455 S
C242 C619 1.804 . S
C282 C371 2.208 . S
C122 C339 1.929 . S
C50 C411 1.878 . S
C499 C202 1.936 . S
C290 C571 1.751 . S
C331 C162 2.172 1_655 S
C250 C419 1.856 . S
C82 C579 2.146 . S
C2 C491 2.096 1_455 S
C19 C179 2.978 1_554 S
C51 C219 3.148 . S
C99 C251 3.582 . S
C139 C291 3.091 . S
C490 C330 3.207 1_554 S
C530 C362 3.596 . S
C402 C562 2.745 . S
C602 C450 2.908 . S
C59 C299 3.031 1_565 S
C171 C91 2.755 . S
C211 C131 3.153 1_564 S
C11 C259 3.142 . S
C610 C370 2.822 1_565 S
C482 C410 3.112 . S
C522 C442 3.180 1_546 S
C570 C322 3.309 . S
