# Generated by pormake.
# Topology eci, (8)-cn, num edge types: 1
# Building blocks:
#     Node 0, Type 0, BuildingBlock: TAGTUT_clean_sbu_1, # of connection points: 8
#     Node 1, Type 0, BuildingBlock: TAGTUT_clean_sbu_1, # of connection points: 8
#     Node 2, Type 0, BuildingBlock: TAGTUT_clean_sbu_1, # of connection points: 8
#     Node 3, Type 0, BuildingBlock: TAGTUT_clean_sbu_1, # of connection points: 8
#     Edge 4, Type (0, 0), BuildingBlock: TEMPAE_clean_linker_10, # of connection points: 2
#     Edge 5, Type (0, 0), BuildingBlock: TEMPAE_clean_linker_10, # of connection points: 2
#     Edge 6, Type (0, 0), BuildingBlock: TEMPAE_clean_linker_10, # of connection points: 2
#     Edge 7, Type (0, 0), BuildingBlock: TEMPAE_clean_linker_10, # of connection points: 2
#     Edge 8, Type (0, 0), BuildingBlock: TEMPAE_clean_linker_10, # of connection points: 2
#     Edge 9, Type (0, 0), BuildingBlock: TEMPAE_clean_linker_10, # of connection points: 2
#     Edge 10, Type (0, 0), BuildingBlock: TEMPAE_clean_linker_10, # of connection points: 2
#     Edge 11, Type (0, 0), BuildingBlock: TEMPAE_clean_linker_10, # of connection points: 2
#     Edge 12, Type (0, 0), BuildingBlock: TEMPAE_clean_linker_10, # of connection points: 2
#     Edge 13, Type (0, 0), BuildingBlock: TEMPAE_clean_linker_10, # of connection points: 2
#     Edge 14, Type (0, 0), BuildingBlock: TEMPAE_clean_linker_10, # of connection points: 2
#     Edge 15, Type (0, 0), BuildingBlock: TEMPAE_clean_linker_10, # of connection points: 2
#     Edge 16, Type (0, 0), BuildingBlock: TEMPAE_clean_linker_10, # of connection points: 2
#     Edge 17, Type (0, 0), BuildingBlock: TEMPAE_clean_linker_10, # of connection points: 2
#     Edge 18, Type (0, 0), BuildingBlock: TEMPAE_clean_linker_10, # of connection points: 2
#     Edge 19, Type (0, 0), BuildingBlock: TEMPAE_clean_linker_10, # of connection points: 2
# Relax obj value: 0.210
# Max RMSD: 0.267
# Mean RMSD: 0.257
data_MOF--net-eci--node1-TAGTUT_clean_sbu_1--edge1-TEMPAE_clean_linker_10
_symmetry_space_group_name_H-M    P1
_symmetry_Int_Tables_number       1
_symmetry_cell_setting            triclinic
loop_
_symmetry_equiv_pos_as_xyz
'x, y, z'
_cell_length_a     28.570121
_cell_length_b     31.010371
_cell_length_c     19.068575
_cell_angle_alpha  94.15126
_cell_angle_beta   93.295785
_cell_angle_gamma 90.217503
loop_
_atom_site_label
_atom_site_type_symbol
_atom_site_fract_x
_atom_site_fract_y
_atom_site_fract_z
_atom_type_partial_charge
C0 C 0.84882 0.6614 0.13784 0.0
C1 C 0.86997 0.77726 0.28161 0.0
C2 C 0.76352 0.85751 0.07524 0.0
Mg3 Mg 0.91301 0.74153 0.14538 0.0
O4 O 0.86108 0.76151 0.09391 0.0
Mg5 Mg 0.79839 0.76032 0.13409 0.0
Mg6 Mg 0.85898 0.81561 0.04586 0.0
O7 O 0.85428 0.86789 -0.00959 0.0
Mg8 Mg 0.79874 0.87122 0.93014 0.0
Mg9 Mg 0.9159 0.86392 0.94599 0.0
C10 C 0.9657 0.78391 0.02298 0.0
C11 C 0.93669 0.88747 0.1136 0.0
O12 O 0.81294 0.6862 0.14488 0.0
O13 O 0.8905 0.67604 0.13451 0.0
O14 O 0.83072 0.77756 0.24607 0.0
O15 O 0.9078 0.76536 0.25368 0.0
O16 O 0.96652 0.7636 0.07948 0.0
O17 O 0.92735 0.79734 -0.00696 0.0
C18 C 0.77326 0.75396 0.96655 0.0
O19 O 0.80783 0.77934 0.95845 0.0
O20 O 0.76447 0.74274 0.02714 0.0
O21 O 0.89404 0.93078 0.90767 0.0
O22 O 0.81513 0.93668 0.90734 0.0
O23 O 0.88622 0.83351 0.8415 0.0
C24 C 0.85595 0.9524 0.89867 0.0
O25 O 0.80826 0.8323 0.83174 0.0
O26 O 0.75316 0.84684 0.01008 0.0
C27 C 0.8479 0.82413 0.80622 0.0
O28 O 0.79358 0.83461 0.10843 0.0
O29 O 0.90845 0.85745 0.12907 0.0
O30 O 0.94381 0.89401 0.04976 0.0
C31 C 0.74028 0.16835 0.02351 0.0
C32 C 0.67567 0.27384 0.91763 0.0
C33 C 0.74914 0.37269 0.14852 0.0
Mg34 Mg 0.64916 0.22011 0.03908 0.0
O35 O 0.69154 0.25087 0.10369 0.0
Mg36 Mg 0.74863 0.27589 0.06656 0.0
Mg37 Mg 0.66763 0.30197 0.15768 0.0
O38 O 0.64212 0.35301 0.21302 0.0
Mg39 Mg 0.68274 0.38274 0.28079 0.0
Mg40 Mg 0.58746 0.32388 0.25213 0.0
C41 C 0.58398 0.23392 0.16869 0.0
C42 C 0.56783 0.32486 0.0822 0.0
O43 O 0.76532 0.20314 0.03469 0.0
O44 O 0.69548 0.16795 0.02318 0.0
O45 O 0.71328 0.28451 0.95468 0.0
O46 O 0.64375 0.25094 0.94129 0.0
O47 O 0.58965 0.21637 0.10652 0.0
O48 O 0.61421 0.25976 0.20138 0.0
C49 C 0.76557 0.27644 0.23617 0.0
O50 O 0.72384 0.28996 0.24411 0.0
O51 O 0.78169 0.26846 0.17552 0.0
O52 O 0.56707 0.39255 0.29509 0.0
O53 O 0.63306 0.43309 0.30717 0.0
O54 O 0.62397 0.31505 0.36175 0.0
C55 C 0.58854 0.4288 0.31095 0.0
O56 O 0.69418 0.34681 0.37377 0.0
O57 O 0.73908 0.38945 0.2096 0.0
C58 C 0.66216 0.32432 0.39796 0.0
O59 O 0.72313 0.34381 0.11315 0.0
O60 O 0.61052 0.31458 0.07231 0.0
O61 O 0.5527 0.33115 0.14406 0.0
C62 C 0.27097 0.22473 0.37646 0.0
C63 C 0.13687 0.19283 0.2948 0.0
C64 C 0.06943 0.29141 0.50934 0.0
Mg65 Mg 0.19429 0.16244 0.4179 0.0
O66 O 0.18507 0.21163 0.47905 0.0
Mg67 Mg 0.16903 0.2651 0.42994 0.0
Mg68 Mg 0.12867 0.20738 0.53326 0.0
O69 O 0.07149 0.20249 0.5881 0.0
Mg70 Mg 0.05288 0.24981 0.64839 0.0
Mg71 Mg 0.08485 0.14617 0.63045 0.0
C72 C 0.17595 0.11276 0.55389 0.0
C73 C 0.06722 0.12313 0.46362 0.0
O74 O 0.24438 0.2577 0.38832 0.0
O75 O 0.25841 0.18602 0.38614 0.0
O76 O 0.14299 0.22971 0.32773 0.0
O77 O 0.14873 0.15836 0.32325 0.0
O78 O 0.19054 0.11296 0.49149 0.0
O79 O 0.15879 0.14674 0.5859 0.0
C80 C 0.18847 0.2963 0.59321 0.0
O81 O 0.16473 0.2639 0.61236 0.0
O82 O 0.19492 0.30104 0.52883 0.0
O83 O 0.0098 0.15331 0.66504 0.0
O84 O 0.98462 0.22238 0.66716 0.0
O85 O 0.11077 0.17781 0.73704 0.0
C86 C 0.97778 0.18189 0.67353 0.0
O87 O 0.09223 0.24766 0.74742 0.0
O88 O 0.07485 0.29792 0.57653 0.0
C89 C 0.11028 0.21415 0.7727 0.0
O90 O 0.09453 0.26293 0.47669 0.0
O91 O 0.09332 0.1553 0.45187 0.0
O92 O 0.05844 0.11444 0.52581 0.0
C93 C 0.28456 0.81583 0.61684 0.0
C94 C 0.34227 0.70688 0.49305 0.0
C95 C 0.2625 0.61056 0.70514 0.0
Mg96 Mg 0.37291 0.75988 0.63216 0.0
O97 O 0.33166 0.72539 0.67651 0.0
Mg98 Mg 0.27055 0.70665 0.62959 0.0
Mg99 Mg 0.34829 0.67404 0.72581 0.0
O100 O 0.36425 0.62314 0.78017 0.0
Mg101 Mg 0.31824 0.60533 0.83996 0.0
Mg102 Mg 0.42683 0.64202 0.82486 0.0
C103 C 0.44604 0.73182 0.75398 0.0
C104 C 0.43637 0.62715 0.65451 0.0
O105 O 0.25985 0.7807 0.61062 0.0
O106 O 0.32921 0.8159 0.62862 0.0
O107 O 0.30499 0.69443 0.52067 0.0
O108 O 0.37316 0.73098 0.52754 0.0
O109 O 0.43677 0.75346 0.6999 0.0
O110 O 0.4145 0.70922 0.78079 0.0
C111 C 0.25798 0.71917 0.79667 0.0
O112 O 0.29827 0.70254 0.80992 0.0
O113 O 0.24069 0.72142 0.73406 0.0
O114 O 0.42863 0.57199 0.85726 0.0
O115 O 0.35458 0.54492 0.8517 0.0
O116 O 0.39924 0.66277 0.93496 0.0
C117 C 0.39925 0.54072 0.86055 0.0
O118 O 0.32435 0.64298 0.93808 0.0
O119 O 0.26032 0.62458 0.76914 0.0
C120 C 0.36128 0.66097 0.96718 0.0
O121 O 0.28507 0.63388 0.66425 0.0
O122 O 0.39772 0.64705 0.6438 0.0
O123 O 0.45313 0.62136 0.71686 0.0
C124 C 0.88917 0.75374 0.40143 0.0
C125 C 0.86945 0.78457 0.35866 0.0
C126 C 0.88328 0.75649 0.47417 0.0
C127 C 0.8586 0.79184 0.50504 0.0
C128 C 0.83955 0.82364 0.46207 0.0
C129 C 0.84435 0.81908 0.38902 0.0
C130 C 0.90298 0.72135 0.51785 0.0
C131 C 0.8147 0.86273 0.49333 0.0
C132 C 0.81393 0.79062 0.68973 0.0
C133 C 0.85093 0.81154 0.73022 0.0
C134 C 0.81641 0.78262 0.61633 0.0
C135 C 0.85599 0.79737 0.58287 0.0
C136 C 0.8933 0.81841 0.62372 0.0
C137 C 0.89065 0.82453 0.69671 0.0
C138 C 0.77663 0.75881 0.57454 0.0
C139 C 0.93547 0.83587 0.59016 0.0
H140 H 0.90756 0.72644 0.37746 0.0
H141 H 0.82874 0.84262 0.35556 0.0
H142 H 0.9308 0.7349 0.55623 0.0
H143 H 0.87507 0.70812 0.54851 0.0
H144 H 0.9181 0.69441 0.48502 0.0
H145 H 0.80227 0.88464 0.4527 0.0
H146 H 0.78416 0.85245 0.52153 0.0
H147 H 0.83871 0.88118 0.53251 0.0
H148 H 0.78317 0.78062 0.71532 0.0
H149 H 0.91918 0.8414 0.72726 0.0
H150 H 0.79041 0.73102 0.54219 0.0
H151 H 0.75899 0.78055 0.5378 0.0
H152 H 0.75013 0.74669 0.60892 0.0
H153 H 0.95363 0.80928 0.56096 0.0
H154 H 0.96108 0.85225 0.62947 0.0
H155 H 0.92399 0.85934 0.55151 0.0
C156 C 0.7085 0.30564 0.50811 0.0
C157 C 0.66551 0.31475 0.47327 0.0
C158 C 0.71127 0.29879 0.58059 0.0
C159 C 0.67048 0.30311 0.6197 0.0
C160 C 0.62725 0.31316 0.58473 0.0
C161 C 0.62516 0.31798 0.51195 0.0
C162 C 0.75774 0.28668 0.61517 0.0
C163 C 0.58323 0.31954 0.62442 0.0
C164 C 0.65976 0.24908 0.79136 0.0
C165 C 0.67229 0.2827 0.84219 0.0
C166 C 0.66052 0.25496 0.71903 0.0
C167 C 0.67232 0.296 0.69668 0.0
C168 C 0.68395 0.33043 0.74798 0.0
C169 C 0.68481 0.32309 0.82017 0.0
C170 C 0.64936 0.21698 0.66652 0.0
C171 C 0.69488 0.37512 0.72665 0.0
H172 H 0.73979 0.30332 0.47848 0.0
H173 H 0.59196 0.32587 0.48562 0.0
H174 H 0.76977 0.31256 0.65541 0.0
H175 H 0.75381 0.25665 0.64268 0.0
H176 H 0.78525 0.28157 0.5766 0.0
H177 H 0.55308 0.3298 0.59028 0.0
H178 H 0.57353 0.28904 0.64709 0.0
H179 H 0.58946 0.34435 0.66897 0.0
H180 H 0.65094 0.21757 0.80829 0.0
H181 H 0.69463 0.34907 0.85947 0.0
H182 H 0.67836 0.21207 0.63051 0.0
H183 H 0.61725 0.22357 0.63368 0.0
H184 H 0.64385 0.18657 0.69246 0.0
H185 H 0.72575 0.37407 0.6939 0.0
H186 H 0.70219 0.39859 0.77285 0.0
H187 H 0.66489 0.38706 0.69405 0.0
C188 C 0.09201 0.23858 0.89458 0.0
C189 C 0.1201 0.21393 0.84927 0.0
C190 C 0.09259 0.23172 0.96637 0.0
C191 C 0.123 0.20034 -0.00626 0.0
C192 C 0.15271 0.17642 0.94875 0.0
C193 C 0.15048 0.18315 0.87671 0.0
C194 C 0.06014 0.25759 0.01277 0.0
C195 C 0.18673 0.14376 0.97667 0.0
C196 C 0.15917 0.22243 0.18571 0.0
C197 C 0.13171 0.19273 0.21774 0.0
C198 C 0.1576 0.22409 0.11287 0.0
C199 C 0.12695 0.19591 0.07065 0.0
C200 C 0.09932 0.16532 0.10229 0.0
C201 C 0.10264 0.16355 0.17605 0.0
C202 C 0.18853 0.25639 0.08128 0.0
C203 C 0.06579 0.13523 0.05842 0.0
H204 H 0.06759 0.26163 0.87328 0.0
H205 H 0.1718 0.16372 0.8415 0.0
H206 H 0.03851 0.23551 0.04111 0.0
H207 H 0.08094 0.27829 0.05312 0.0
H208 H 0.03639 0.27861 0.98235 0.0
H209 H 0.20703 0.12752 0.93448 0.0
H210 H 0.2117 0.15993 0.01705 0.0
H211 H 0.16759 0.11876 0.00271 0.0
H212 H 0.18278 0.2442 0.21795 0.0
H213 H 0.08194 0.14029 0.20103 0.0
H214 H 0.16653 0.28047 0.05475 0.0
H215 H 0.20984 0.23976 0.04079 0.0
H216 H 0.21263 0.27396 0.12148 0.0
H217 H 0.03962 0.15433 0.0288 0.0
H218 H 0.04692 0.11336 0.09103 0.0
H219 H 0.08505 0.11532 0.01908 0.0
C220 C 0.32091 0.68894 0.07358 0.0
C221 C 0.36168 0.67326 0.04348 0.0
C222 C 0.31832 0.69426 0.14701 0.0
C223 C 0.3569 0.68224 0.19129 0.0
C224 C 0.39833 0.66676 0.16107 0.0
C225 C 0.40046 0.66305 0.08746 0.0
C226 C 0.27409 0.71226 0.17713 0.0
C227 C 0.43972 0.6525 0.20637 0.0
C228 C 0.36781 0.73074 0.37978 0.0
C229 C 0.34744 0.69856 0.41657 0.0
C230 C 0.37085 0.72583 0.30663 0.0
C231 C 0.35441 0.68719 0.26927 0.0
C232 C 0.33502 0.65394 0.3063 0.0
C233 C 0.33096 0.66035 0.37958 0.0
C234 C 0.39077 0.76246 0.26916 0.0
C235 C 0.31866 0.61167 0.26851 0.0
H236 H 0.29079 0.69652 0.03954 0.0
H237 H 0.43161 0.64991 0.06426 0.0
H238 H 0.25769 0.68782 0.20785 0.0
H239 H 0.28263 0.741 0.21383 0.0
H240 H 0.24808 0.72173 0.13555 0.0
H241 H 0.46998 0.64277 0.17488 0.0
H242 H 0.45124 0.6788 0.24619 0.0
H243 H 0.42921 0.62462 0.23544 0.0
H244 H 0.38008 0.76062 0.40805 0.0
H245 H 0.3155 0.63537 0.40802 0.0
H246 H 0.36436 0.77319 0.22924 0.0
H247 H 0.42182 0.7513 0.24079 0.0
H248 H 0.40134 0.7907 0.30592 0.0
H249 H 0.28958 0.6175 0.22934 0.0
H250 H 0.30639 0.5884 0.30527 0.0
H251 H 0.34764 0.59669 0.23923 0.0
C252 C 0.53052 0.72293 0.72979 0.0
C253 C 0.49602 0.729 0.77907 0.0
C254 C 0.5785 0.72292 0.75101 0.0
C255 C 0.59263 0.73074 0.82321 0.0
C256 C 0.55779 0.73627 0.87336 0.0
C257 C 0.50987 0.73454 0.85077 0.0
C258 C 0.61407 0.715 0.69601 0.0
C259 C 0.57116 0.74544 0.95075 0.0
C260 C 0.71327 0.70419 0.90431 0.0
C261 C 0.73557 0.74483 0.91051 0.0
C262 C 0.66806 0.69838 0.87139 0.0
C263 C 0.64369 0.73443 0.84635 0.0
C264 C 0.66727 0.77488 0.84829 0.0
C265 C 0.71315 0.77938 0.87931 0.0
C266 C 0.64531 0.65421 0.8677 0.0
C267 C 0.64265 0.81444 0.82332 0.0
H268 H 0.51986 0.71801 0.67426 0.0
H269 H 0.48328 0.73932 0.88888 0.0
H270 H 0.63535 0.74466 0.69246 0.0
H271 H 0.63852 0.68909 0.71118 0.0
H272 H 0.5973 0.70554 0.64309 0.0
H273 H 0.54003 0.74948 0.98288 0.0
H274 H 0.59268 0.71869 0.97044 0.0
H275 H 0.59286 0.77535 0.95875 0.0
H276 H 0.73013 0.67745 0.92907 0.0
H277 H 0.72949 0.81105 0.88517 0.0
H278 H 0.62735 0.64646 0.81512 0.0
H279 H 0.6184 0.6538 0.90732 0.0
H280 H 0.6712 0.6285 0.87832 0.0
H281 H 0.62655 0.8077 0.76933 0.0
H282 H 0.66678 0.84264 0.82346 0.0
H283 H 0.6139 0.82325 0.8583 0.0
C284 C 0.74476 0.09205 0.98087 0.0
C285 C 0.76218 0.12598 0.02725 0.0
C286 C 0.74834 0.04919 -0.00134 0.0
C287 C 0.76969 0.04009 0.06508 0.0
C288 C 0.78975 0.07442 0.11056 0.0
C289 C 0.78668 0.11693 0.09007 0.0
C290 C 0.72506 0.01454 0.94859 0.0
C291 C 0.81158 0.06773 0.183 0.0
C292 C 0.72519 0.92862 0.09672 0.0
C293 C 0.76629 0.90457 0.09272 0.0
C294 C 0.72671 0.97389 0.0978 0.0
C295 C 0.76965 0.99485 0.08628 0.0
C296 C 0.81165 0.97072 0.08751 0.0
C297 C 0.80943 0.92627 0.09564 0.0
C298 C 0.68185 0.99826 0.10949 0.0
C299 C 0.8589 0.99057 0.07715 0.0
H300 H 0.72481 0.09939 0.9331 0.0
H301 H 0.79902 0.14345 0.12682 0.0
H302 H 0.74473 0.98381 0.94846 0.0
H303 H 0.68924 0.00827 0.96489 0.0
H304 H 0.72097 0.02494 0.89414 0.0
H305 H 0.80017 0.09346 0.22181 0.0
H306 H 0.80277 0.03594 0.20213 0.0
H307 H 0.85026 0.07068 0.18192 0.0
H308 H 0.69177 0.91206 0.09801 0.0
H309 H 0.84142 0.90819 0.0988 0.0
H310 H 0.65482 0.98788 0.06747 0.0
H311 H 0.6863 0.03388 0.11171 0.0
H312 H 0.66801 0.98967 0.15996 0.0
H313 H 0.85639 0.01874 0.04449 0.0
H314 H 0.88227 0.96648 0.05155 0.0
H315 H 0.87586 0.0012 0.12935 0.0
C316 C 0.34653 0.19392 0.34037 0.0
C317 C 0.31739 0.23013 0.34812 0.0
C318 C 0.38936 0.19648 0.3096 0.0
C319 C 0.40383 0.23637 0.28658 0.0
C320 C 0.37532 0.27341 0.29514 0.0
C321 C 0.3321 0.26984 0.32588 0.0
C322 C 0.41901 0.1563 0.30141 0.0
C323 C 0.39042 0.31652 0.27164 0.0
C324 C 0.53416 0.24223 0.27061 0.0
C325 C 0.53778 0.23223 0.19828 0.0
C326 C 0.4905 0.2461 0.29949 0.0
C327 C 0.44955 0.23877 0.25503 0.0
C328 C 0.45282 0.22858 0.18192 0.0
C329 C 0.49712 0.22542 0.15425 0.0
C330 C 0.48829 0.25708 0.37776 0.0
C331 C 0.40963 0.22029 0.1333 0.0
H332 H 0.33577 0.16308 0.35776 0.0
H333 H 0.30974 0.29787 0.33165 0.0
H334 H 0.42582 0.14891 0.24513 0.0
H335 H 0.45347 0.16175 0.33063 0.0
H336 H 0.40207 0.12758 0.32111 0.0
H337 H 0.36427 0.34223 0.28239 0.0
H338 H 0.42445 0.32663 0.299 0.0
H339 H 0.39584 0.31367 0.21434 0.0
H340 H 0.56565 0.24736 0.30475 0.0
H341 H 0.49987 0.21846 0.0981 0.0
H342 H 0.47483 0.22878 0.40306 0.0
H343 H 0.46369 0.28412 0.38785 0.0
H344 H 0.52316 0.2663 0.40341 0.0
H345 H 0.39119 0.19088 0.14754 0.0
H346 H 0.41814 0.2157 0.07714 0.0
H347 H 0.38493 0.24764 0.13934 0.0
C348 C 0.28355 0.89278 0.5867 0.0
C349 C 0.26084 0.85817 0.61416 0.0
C350 C 0.26298 0.9338 0.58643 0.0
C351 C 0.21906 0.94092 0.61622 0.0
C352 C 0.19634 0.90628 0.64547 0.0
C353 C 0.21719 0.8651 0.64314 0.0
C354 C 0.28809 0.96941 0.5532 0.0
C355 C 0.1502 0.91273 0.67938 0.0
C356 C 0.19758 0.06168 0.64651 0.0
C357 C 0.1739 0.0698 0.58256 0.0
C358 C 0.20875 0.01894 0.66191 0.0
C359 C 0.19625 0.98403 0.61181 0.0
C360 C 0.16808 0.99212 0.55076 0.0
C361 C 0.1572 0.03482 0.53719 0.0
C362 C 0.23753 0.01162 0.72872 0.0
C363 C 0.15374 0.95635 0.49562 0.0
H364 H 0.31733 0.88757 0.56447 0.0
H365 H 0.19995 0.83861 0.66574 0.0
H366 H 0.26557 0.9812 0.50931 0.0
H367 H 0.29509 0.99719 0.59243 0.0
H368 H 0.32193 0.95857 0.53229 0.0
H369 H 0.1393 0.88374 0.70554 0.0
H370 H 0.15269 0.94078 0.71902 0.0
H371 H 0.12243 0.92005 0.63903 0.0
H372 H 0.21068 0.08866 0.68159 0.0
H373 H 0.13861 0.04108 0.48795 0.0
H374 H 0.27469 0.00665 0.71639 0.0
H375 H 0.22539 0.9822 0.75237 0.0
H376 H 0.23591 0.0397 0.76812 0.0
H377 H 0.18484 0.94582 0.46672 0.0
H378 H 0.1264 0.96697 0.45685 0.0
H379 H 0.14027 0.92786 0.5203 0.0
C380 C 0.05105 0.79864 0.03797 0.0
C381 C 0.01121 0.79004 -0.00748 0.0
C382 C 0.09626 0.79357 0.0139 0.0
C383 C 0.1016 0.77869 0.94303 0.0
C384 C 0.06146 0.77294 0.89573 0.0
C385 C 0.01655 0.77914 0.92104 0.0
C386 C 0.13811 0.80152 0.06534 0.0
C387 C 0.06574 0.75716 0.81961 0.0
C388 C 0.21573 0.78015 0.85205 0.0
C389 C 0.22903 0.73673 0.85268 0.0
C390 C 0.17603 0.79523 0.88574 0.0
C391 C 0.14857 0.7658 0.91943 0.0
C392 C 0.16404 0.72264 0.92484 0.0
C393 C 0.20444 0.70861 0.89147 0.0
C394 C 0.16154 0.8417 0.8802 0.0
C395 C 0.13574 0.69026 0.96045 0.0
H396 H 0.04678 0.80736 0.09335 0.0
H397 H 0.9857 0.77216 0.88616 0.0
H398 H 0.15398 0.77016 0.0777 0.0
H399 H 0.16534 0.82067 0.04198 0.0
H400 H 0.12837 0.81884 0.1154 0.0
H401 H 0.03152 0.75699 0.78881 0.0
H402 H 0.09075 0.7778 0.79451 0.0
H403 H 0.0798 0.72379 0.81677 0.0
H404 H 0.23454 0.80161 0.82081 0.0
H405 H 0.2143 0.67484 0.89043 0.0
H406 H 0.1499 0.85589 0.93133 0.0
H407 H 0.13154 0.84312 0.84085 0.0
H408 H 0.19051 0.86189 0.86343 0.0
H409 H 0.12739 0.70344 0.01386 0.0
H410 H 0.15443 0.65915 0.96509 0.0
H411 H 0.10197 0.68376 0.92965 0.0
C412 C 0.7725 0.41626 0.0537 0.0
C413 C 0.78551 0.39572 0.11474 0.0
C414 C 0.79169 0.45682 0.04298 0.0
C415 C 0.82437 0.47632 0.09452 0.0
C416 C 0.84376 0.45174 0.1486 0.0
C417 C 0.82431 0.41119 0.15753 0.0
C418 C 0.77178 0.48121 0.98262 0.0
C419 C 0.87927 0.47082 0.20404 0.0
C420 C 0.87355 0.58943 0.0868 0.0
C421 C 0.84193 0.61417 0.12649 0.0
C422 C 0.86747 0.54467 0.07343 0.0
C423 C 0.8296 0.52406 0.10209 0.0
C424 C 0.79733 0.5489 0.1418 0.0
C425 C 0.8036 0.59381 0.15276 0.0
C426 C 0.90177 0.51952 0.02935 0.0
C427 C 0.75657 0.52797 0.17384 0.0
H428 H 0.74275 0.40399 0.02011 0.0
H429 H 0.83467 0.39474 0.20426 0.0
H430 H 0.74322 0.5025 0.0013 0.0
H431 H 0.79888 0.50194 0.96225 0.0
H432 H 0.75689 0.45878 0.93882 0.0
H433 H 0.89729 0.44533 0.2333 0.0
H434 H 0.90599 0.49035 0.18044 0.0
H435 H 0.86108 0.49254 0.24236 0.0
H436 H 0.90284 0.60518 0.06513 0.0
H437 H 0.77906 0.61288 0.18307 0.0
H438 H 0.88291 0.4972 -0.01089 0.0
H439 H 0.92417 0.4995 0.06336 0.0
H440 H 0.92488 0.5411 0.00234 0.0
H441 H 0.73374 0.51057 0.13191 0.0
H442 H 0.73492 0.55187 0.20349 0.0
H443 H 0.76968 0.50381 0.21027 0.0
C444 C 0.82712 0.24041 0.3064 0.0
C445 C 0.79906 0.27658 0.29694 0.0
C446 C 0.86768 0.24363 0.35131 0.0
C447 C 0.88113 0.28445 0.38467 0.0
C448 C 0.85117 0.32042 0.37861 0.0
C449 C 0.80991 0.31583 0.3353 0.0
C450 C 0.89786 0.20414 0.35877 0.0
C451 C 0.8648 0.36468 0.41187 0.0
C452 C 0.98276 0.28942 0.52132 0.0
C453 C 0.02095 0.29462 0.47934 0.0
C454 C 0.93684 0.2864 0.49146 0.0
C455 C 0.92889 0.29041 0.41845 0.0
C456 C 0.96702 0.2981 0.37649 0.0
C457 C 0.01277 0.29932 0.40732 0.0
C458 C 0.8972 0.27693 0.53736 0.0
C459 C 0.95963 0.30387 0.29866 0.0
H460 H 0.81854 0.21021 0.27597 0.0
H461 H 0.78847 0.34392 0.3264 0.0
H462 H 0.92962 0.2071 0.32857 0.0
H463 H 0.90968 0.20137 0.41472 0.0
H464 H 0.87898 0.17392 0.33878 0.0
H465 H 0.87882 0.36283 0.46699 0.0
H466 H 0.89294 0.3783 0.3821 0.0
H467 H 0.83473 0.3873 0.41139 0.0
H468 H 0.98878 0.28582 0.57711 0.0
H469 H 0.04226 0.30351 0.37503 0.0
H470 H 0.88141 0.24493 0.51978 0.0
H471 H 0.86915 0.3013 0.53212 0.0
H472 H 0.90906 0.27662 0.59383 0.0
H473 H 0.94677 0.27312 0.27066 0.0
H474 H 0.99239 0.31364 0.27513 0.0
H475 H 0.93256 0.32874 0.28948 0.0
C476 C 0.25033 0.34767 0.64279 0.0
C477 C 0.20311 0.33451 0.64074 0.0
C478 C 0.26365 0.39149 0.65605 0.0
C479 C 0.22883 0.42347 0.66591 0.0
C480 C 0.18142 0.41004 0.6686 0.0
C481 C 0.16927 0.36581 0.65662 0.0
C482 C 0.31476 0.40371 0.6549 0.0
C483 C 0.14296 0.4427 0.67907 0.0
C484 C 0.25737 0.53633 0.7503 0.0
C485 C 0.25906 0.56206 0.69224 0.0
C486 C 0.25024 0.49139 0.74212 0.0
C487 C 0.24176 0.47085 0.67407 0.0
C488 C 0.24366 0.49609 0.61477 0.0
C489 C 0.25294 0.54123 0.62446 0.0
C490 C 0.25068 0.46604 0.80693 0.0
C491 C 0.23432 0.47562 0.54113 0.0
H492 H 0.27658 0.324 0.62826 0.0
H493 H 0.13261 0.35634 0.65273 0.0
H494 H 0.32072 0.41957 0.60584 0.0
H495 H 0.32509 0.42716 0.69984 0.0
H496 H 0.3379 0.37507 0.65702 0.0
H497 H 0.10809 0.42714 0.68181 0.0
H498 H 0.15062 0.46348 0.72824 0.0
H499 H 0.14127 0.46413 0.63483 0.0
H500 H 0.26076 0.55124 0.80337 0.0
H501 H 0.2534 0.56041 0.5792 0.0
H502 H 0.27441 0.43792 0.80105 0.0
H503 H 0.21502 0.45324 0.81354 0.0
H504 H 0.26228 0.48601 0.85559 0.0
H505 H 0.25896 0.44862 0.5311 0.0
H506 H 0.2379 0.49914 0.50045 0.0
H507 H 0.19831 0.46176 0.53552 0.0
C508 C 0.00036 0.08522 0.39659 0.0
C509 C 0.04876 0.0927 0.40579 0.0
C510 C 0.98212 0.05096 0.35075 0.0
C511 C 0.01323 0.02218 0.31622 0.0
C512 C 0.06228 0.02968 0.3257 0.0
C513 C 0.0794 0.06555 0.3691 0.0
C514 C 0.9296 0.04559 0.33936 0.0
C515 C 0.0967 -0.00073 0.2913 0.0
C516 C 0.96285 0.91297 0.23946 0.0
C517 C 0.95742 0.92015 0.16773 0.0
C518 C 0.98209 0.94551 0.28865 0.0
C519 C 0.99438 0.98646 0.26568 0.0
C520 C 0.98812 0.99388 0.19363 0.0
C521 C 0.97084 0.96056 0.14578 0.0
C522 C 0.98956 0.93608 0.36496 0.0
C523 C -0.00122 0.03742 0.16692 0.0
H524 H 0.9768 0.10604 0.42589 0.0
H525 H 0.11687 0.07107 0.37726 0.0
H526 H 0.91918 0.04504 0.28232 0.0
H527 H 0.9185 0.01428 0.35796 0.0
H528 H 0.91034 0.07198 0.36751 0.0
H529 H 0.13362 0.00761 0.30867 0.0
H530 H 0.08943 0.96559 0.30391 0.0
H531 H 0.09266 0.00014 0.23323 0.0
H532 H 0.95273 0.88195 0.25688 0.0
H533 H 0.96662 0.96693 0.09065 0.0
H534 H 0.96783 0.95798 0.39798 0.0
H535 H 0.02675 0.94231 0.38312 0.0
H536 H 0.98044 0.90212 0.37386 0.0
H537 H 0.9786 0.06303 0.19524 0.0
H538 H 0.99004 0.03839 0.10952 0.0
H539 H 0.03649 0.04551 0.17733 0.0
C540 C 0.51647 0.45902 0.36354 0.0
C541 C 0.56161 0.46578 0.34084 0.0
C542 C 0.49393 0.49142 0.40378 0.0
C543 C 0.51687 0.53162 0.42106 0.0
C544 C 0.56009 0.54021 0.39203 0.0
C545 C 0.58226 0.50701 0.35275 0.0
C546 C 0.44733 0.48132 0.4327 0.0
C547 C 0.58437 0.5835 0.40653 0.0
C548 C 0.44559 0.61487 0.52432 0.0
C549 C 0.46052 0.60725 0.59377 0.0
C550 C 0.46536 0.59235 0.46674 0.0
C551 C 0.50002 0.56084 0.47927 0.0
C552 C 0.5165 0.5544 0.54918 0.0
C553 C 0.4969 0.57795 0.60538 0.0
C554 C 0.44738 0.6012 0.39321 0.0
C555 C 0.55328 0.52097 0.56503 0.0
H556 H 0.49982 0.42753 0.35371 0.0
H557 H 0.61663 0.51289 0.33391 0.0
H558 H 0.45201 0.47919 0.49054 0.0
H559 H 0.42206 0.50761 0.42313 0.0
H560 H 0.432 0.45031 0.40882 0.0
H561 H 0.61326 0.58754 0.37092 0.0
H562 H 0.55893 0.61012 0.40038 0.0
H563 H 0.5993 0.58656 0.4617 0.0
H564 H 0.41776 0.63774 0.51474 0.0
H565 H 0.50887 0.57194 0.65874 0.0
H566 H 0.41622 0.58043 0.37788 0.0
H567 H 0.47407 0.5943 0.35396 0.0
H568 H 0.43628 0.63539 0.39093 0.0
H569 H 0.53991 0.48828 0.54602 0.0
H570 H 0.56316 0.52087 0.62222 0.0
H571 H 0.58532 0.52705 0.53697 0.0
C572 C 0.91621 0.12645 0.66259 0.0
C573 C 0.93291 0.1658 0.69524 0.0
C574 C 0.88953 0.0986 0.6989 0.0
C575 C 0.87846 0.11127 0.76885 0.0
C576 C 0.8877 0.15428 0.79658 0.0
C577 C 0.91569 0.18119 0.75956 0.0
C578 C 0.88009 0.05325 0.66644 0.0
C579 C 0.8732 0.17008 0.86871 0.0
C580 C 0.82056 0.0171 0.84502 0.0
C581 C 0.85962 0.99675 0.87564 0.0
C582 C 0.82487 0.0575 0.81709 0.0
C583 C 0.86977 0.07669 0.8165 0.0
C584 C 0.9089 0.05739 0.85076 0.0
C585 C 0.90313 0.018 0.88077 0.0
C586 C 0.78192 0.0789 0.78594 0.0
C587 C 0.9577 0.07653 0.85124 0.0
H588 H 0.92911 0.11509 0.61213 0.0
H589 H 0.92824 0.21193 0.78451 0.0
H590 H 0.90363 0.03035 0.69318 0.0
H591 H 0.84349 0.04318 0.6733 0.0
H592 H 0.88626 0.05028 0.60929 0.0
H593 H 0.86743 0.20556 0.87184 0.0
H594 H 0.84073 0.15359 0.88231 0.0
H595 H 0.9015 0.16338 0.90865 0.0
H596 H 0.78709 0.00048 0.83968 0.0
H597 H 0.93333 0.00288 0.90555 0.0
H598 H 0.7864 0.08523 0.73022 0.0
H599 H 0.77697 0.1107 0.81509 0.0
H600 H 0.74969 0.05908 0.78851 0.0
H601 H 0.96863 0.07741 0.79643 0.0
H602 H 0.98406 0.05778 0.88125 0.0
H603 H 0.95813 0.11022 0.87501 0.0
C604 C 0.48747 0.33779 0.03266 0.0
C605 C 0.53545 0.33349 0.02203 0.0
C606 C 0.45839 0.35992 0.98631 0.0
C607 C 0.4781 0.37767 0.92842 0.0
C608 C 0.52354 0.36514 0.90958 0.0
C609 C 0.55237 0.3436 0.95758 0.0
C610 C 0.40886 0.36995 0.00538 0.0
C611 C 0.54371 0.37959 0.84374 0.0
C612 C 0.40054 0.46023 0.84134 0.0
C613 C 0.41851 0.49857 0.8762 0.0
C614 C 0.42083 0.42023 0.85458 0.0
C615 C 0.45885 0.41893 0.9055 0.0
C616 C 0.47665 0.45793 0.94104 0.0
C617 C 0.45673 0.49721 0.9249 0.0
C618 C 0.40131 0.38023 0.81315 0.0
C619 C 0.51605 0.45843 -0.00229 0.0
H620 H 0.47356 0.32763 0.08064 0.0
H621 H 0.58896 0.33848 0.94743 0.0
H622 H 0.407 0.40414 0.0267 0.0
H623 H 0.38443 0.36579 0.95801 0.0
H624 H 0.39692 0.3489 0.04572 0.0
H625 H 0.57205 0.35765 0.82599 0.0
H626 H 0.51598 0.38077 0.80064 0.0
H627 H 0.55889 0.41255 0.85458 0.0
H628 H 0.37133 0.4616 0.80269 0.0
H629 H 0.4704 0.52705 0.95178 0.0
H630 H 0.41716 0.34981 0.83001 0.0
H631 H 0.4074 0.38264 0.75658 0.0
H632 H 0.36275 0.37854 0.81759 0.0
H633 H 0.50739 0.43687 0.03917 0.0
H634 H 0.5232 0.49133 0.02322 0.0
H635 H 0.54874 0.44645 0.97467 0.0
loop_
_geom_bond_atom_site_label_1
_geom_bond_atom_site_label_2
_geom_bond_distance
_geom_bond_site_symmetry_2
_ccdc_geom_bond_type
C0 O12 1.241 . S
C0 O13 1.280 . S
C1 O14 1.277 . S
C1 O15 1.245 . S
C2 O26 1.247 1_554 S
C2 O28 1.289 . S
Mg3 O4 1.926 . S
Mg3 O13 1.984 . S
Mg3 O15 1.988 . S
Mg3 O16 2.061 . S
O4 Mg3 1.926 . S
O4 Mg5 1.986 . S
O4 Mg6 1.917 . S
Mg5 O4 1.986 . S
Mg5 O12 2.042 . S
Mg5 O14 2.041 . S
Mg5 O20 2.038 . S
Mg5 O28 2.238 . S
Mg6 O4 1.917 . S
Mg6 O7 1.917 1_554 S
Mg6 O17 2.106 1_554 S
Mg6 O19 2.079 1_554 S
Mg6 O28 2.106 . S
Mg6 O29 2.079 . S
O7 Mg6 1.917 1_556 S
O7 Mg8 1.926 . S
O7 Mg9 1.986 . S
Mg8 O7 1.926 . S
Mg8 O22 1.984 . S
Mg8 O25 1.988 . S
Mg8 O26 2.061 . S
Mg9 O7 1.986 . S
Mg9 O17 2.238 . S
Mg9 O21 2.042 . S
Mg9 O23 2.041 . S
Mg9 O30 2.038 1_556 S
C10 O16 1.247 1_556 S
C10 O17 1.289 . S
C11 O29 1.245 . S
C11 O30 1.274 . S
O12 C0 1.241 . S
O12 Mg5 2.042 . S
O13 C0 1.280 . S
O13 Mg3 1.984 . S
O14 C1 1.277 . S
O14 Mg5 2.041 . S
O15 C1 1.245 . S
O15 Mg3 1.988 . S
O16 Mg3 2.061 . S
O16 C10 1.247 1_554 S
O17 Mg6 2.106 1_556 S
O17 Mg9 2.238 . S
O17 C10 1.289 . S
C18 O19 1.245 . S
C18 O20 1.274 1_556 S
O19 Mg6 2.079 1_556 S
O19 C18 1.245 . S
O20 Mg5 2.038 . S
O20 C18 1.274 1_554 S
O21 Mg9 2.042 . S
O21 C24 1.241 . S
O22 Mg8 1.984 . S
O22 C24 1.280 . S
O23 Mg9 2.041 . S
O23 C27 1.277 . S
C24 O21 1.241 . S
C24 O22 1.280 . S
O25 Mg8 1.988 . S
O25 C27 1.245 . S
O26 C2 1.247 1_556 S
O26 Mg8 2.061 . S
C27 O23 1.277 . S
C27 O25 1.245 . S
O28 C2 1.289 . S
O28 Mg5 2.238 . S
O28 Mg6 2.106 . S
O29 Mg6 2.079 . S
O29 C11 1.245 . S
O30 Mg9 2.038 1_554 S
O30 C11 1.274 . S
C31 O43 1.241 . S
C31 O44 1.280 . S
C32 O45 1.277 . S
C32 O46 1.245 . S
C33 O57 1.247 . S
C33 O59 1.289 . S
Mg34 O35 1.926 . S
Mg34 O44 1.984 . S
Mg34 O46 1.988 . S
Mg34 O47 2.061 . S
O35 Mg34 1.926 . S
O35 Mg36 1.986 . S
O35 Mg37 1.917 . S
Mg36 O35 1.986 . S
Mg36 O43 2.042 . S
Mg36 O45 2.041 . S
Mg36 O51 2.038 . S
Mg36 O59 2.238 . S
Mg37 O35 1.917 . S
Mg37 O38 1.917 . S
Mg37 O48 2.106 . S
Mg37 O50 2.079 . S
Mg37 O59 2.106 . S
Mg37 O60 2.079 . S
O38 Mg37 1.917 . S
O38 Mg39 1.926 . S
O38 Mg40 1.986 . S
Mg39 O38 1.926 . S
Mg39 O53 1.984 . S
Mg39 O56 1.988 . S
Mg39 O57 2.061 . S
Mg40 O38 1.986 . S
Mg40 O48 2.238 . S
Mg40 O52 2.042 . S
Mg40 O54 2.041 . S
Mg40 O61 2.038 . S
C41 O47 1.247 . S
C41 O48 1.289 . S
C42 O60 1.245 . S
C42 O61 1.274 . S
O43 C31 1.241 . S
O43 Mg36 2.042 . S
O44 C31 1.280 . S
O44 Mg34 1.984 . S
O45 C32 1.277 . S
O45 Mg36 2.041 . S
O46 C32 1.245 . S
O46 Mg34 1.988 . S
O47 Mg34 2.061 . S
O47 C41 1.247 . S
O48 Mg37 2.106 . S
O48 Mg40 2.238 . S
O48 C41 1.289 . S
C49 O50 1.245 . S
C49 O51 1.274 . S
O50 Mg37 2.079 . S
O50 C49 1.245 . S
O51 Mg36 2.038 . S
O51 C49 1.274 . S
O52 Mg40 2.042 . S
O52 C55 1.241 . S
O53 Mg39 1.984 . S
O53 C55 1.280 . S
O54 Mg40 2.041 . S
O54 C58 1.277 . S
C55 O52 1.241 . S
C55 O53 1.280 . S
O56 Mg39 1.988 . S
O56 C58 1.245 . S
O57 C33 1.247 . S
O57 Mg39 2.061 . S
C58 O54 1.277 . S
C58 O56 1.245 . S
O59 C33 1.289 . S
O59 Mg36 2.238 . S
O59 Mg37 2.106 . S
O60 Mg37 2.079 . S
O60 C42 1.245 . S
O61 Mg40 2.038 . S
O61 C42 1.274 . S
C62 O74 1.241 . S
C62 O75 1.280 . S
C63 O76 1.277 . S
C63 O77 1.245 . S
C64 O88 1.247 . S
C64 O90 1.289 . S
Mg65 O66 1.926 . S
Mg65 O75 1.984 . S
Mg65 O77 1.988 . S
Mg65 O78 2.061 . S
O66 Mg65 1.926 . S
O66 Mg67 1.986 . S
O66 Mg68 1.917 . S
Mg67 O66 1.986 . S
Mg67 O74 2.042 . S
Mg67 O76 2.041 . S
Mg67 O82 2.038 . S
Mg67 O90 2.238 . S
Mg68 O66 1.917 . S
Mg68 O69 1.917 . S
Mg68 O79 2.106 . S
Mg68 O81 2.079 . S
Mg68 O90 2.106 . S
Mg68 O91 2.079 . S
O69 Mg68 1.917 . S
O69 Mg70 1.926 . S
O69 Mg71 1.986 . S
Mg70 O69 1.926 . S
Mg70 O84 1.984 . S
Mg70 O87 1.988 . S
Mg70 O88 2.061 . S
Mg71 O69 1.986 . S
Mg71 O79 2.238 . S
Mg71 O83 2.042 . S
Mg71 O85 2.041 . S
Mg71 O92 2.038 . S
C72 O78 1.247 . S
C72 O79 1.289 . S
C73 O91 1.245 . S
C73 O92 1.274 . S
O74 C62 1.241 . S
O74 Mg67 2.042 . S
O75 C62 1.280 . S
O75 Mg65 1.984 . S
O76 C63 1.277 . S
O76 Mg67 2.041 . S
O77 C63 1.245 . S
O77 Mg65 1.988 . S
O78 Mg65 2.061 . S
O78 C72 1.247 . S
O79 Mg68 2.106 . S
O79 Mg71 2.238 . S
O79 C72 1.289 . S
C80 O81 1.245 . S
C80 O82 1.274 . S
O81 Mg68 2.079 . S
O81 C80 1.245 . S
O82 Mg67 2.038 . S
O82 C80 1.274 . S
O83 Mg71 2.042 . S
O83 C86 1.241 . S
O84 Mg70 1.984 . S
O84 C86 1.280 . S
O85 Mg71 2.041 . S
O85 C89 1.277 . S
C86 O83 1.241 . S
C86 O84 1.280 . S
O87 Mg70 1.988 . S
O87 C89 1.245 . S
O88 C64 1.247 . S
O88 Mg70 2.061 . S
C89 O85 1.277 . S
C89 O87 1.245 . S
O90 C64 1.289 . S
O90 Mg67 2.238 . S
O90 Mg68 2.106 . S
O91 Mg68 2.079 . S
O91 C73 1.245 . S
O92 Mg71 2.038 . S
O92 C73 1.274 . S
C93 O105 1.241 . S
C93 O106 1.280 . S
C94 O107 1.277 . S
C94 O108 1.245 . S
C95 O119 1.247 . S
C95 O121 1.289 . S
Mg96 O97 1.926 . S
Mg96 O106 1.984 . S
Mg96 O108 1.988 . S
Mg96 O109 2.061 . S
O97 Mg96 1.926 . S
O97 Mg98 1.986 . S
O97 Mg99 1.917 . S
Mg98 O97 1.986 . S
Mg98 O105 2.042 . S
Mg98 O107 2.041 . S
Mg98 O113 2.038 . S
Mg98 O121 2.238 . S
Mg99 O97 1.917 . S
Mg99 O100 1.917 . S
Mg99 O110 2.106 . S
Mg99 O112 2.079 . S
Mg99 O121 2.106 . S
Mg99 O122 2.079 . S
O100 Mg99 1.917 . S
O100 Mg101 1.926 . S
O100 Mg102 1.986 . S
Mg101 O100 1.926 . S
Mg101 O115 1.984 . S
Mg101 O118 1.988 . S
Mg101 O119 2.061 . S
Mg102 O100 1.986 . S
Mg102 O110 2.238 . S
Mg102 O114 2.042 . S
Mg102 O116 2.041 . S
Mg102 O123 2.038 . S
C103 O109 1.247 . S
C103 O110 1.289 . S
C104 O122 1.245 . S
C104 O123 1.274 . S
O105 C93 1.241 . S
O105 Mg98 2.042 . S
O106 C93 1.280 . S
O106 Mg96 1.984 . S
O107 C94 1.277 . S
O107 Mg98 2.041 . S
O108 C94 1.245 . S
O108 Mg96 1.988 . S
O109 Mg96 2.061 . S
O109 C103 1.247 . S
O110 Mg99 2.106 . S
O110 Mg102 2.238 . S
O110 C103 1.289 . S
C111 O112 1.245 . S
C111 O113 1.274 . S
O112 Mg99 2.079 . S
O112 C111 1.245 . S
O113 Mg98 2.038 . S
O113 C111 1.274 . S
O114 Mg102 2.042 . S
O114 C117 1.241 . S
O115 Mg101 1.984 . S
O115 C117 1.280 . S
O116 Mg102 2.041 . S
O116 C120 1.277 . S
C117 O114 1.241 . S
C117 O115 1.280 . S
O118 Mg101 1.988 . S
O118 C120 1.245 . S
O119 C95 1.247 . S
O119 Mg101 2.061 . S
C120 O116 1.277 . S
C120 O118 1.245 . S
O121 C95 1.289 . S
O121 Mg98 2.238 . S
O121 Mg99 2.106 . S
O122 Mg99 2.079 . S
O122 C104 1.245 . S
O123 Mg102 2.038 . S
O123 C104 1.274 . S
C124 C125 1.391 . S
C124 C126 1.394 . S
C124 H140 0.931 . S
C125 C124 1.391 . S
C125 C129 1.376 . S
C126 C124 1.394 . S
C126 C127 1.369 . S
C126 C130 1.531 . S
C127 C126 1.369 . S
C127 C128 1.410 . S
C127 C135 1.503 . S
C128 C127 1.410 . S
C128 C129 1.392 . S
C128 C131 1.511 . S
C129 C125 1.376 . S
C129 C128 1.392 . S
C129 H141 0.929 . S
C130 C126 1.531 . S
C130 H142 0.960 . S
C130 H143 0.962 . S
C130 H144 0.960 . S
C131 C128 1.511 . S
C131 H145 0.961 . S
C131 H146 0.961 . S
C131 H147 0.961 . S
C132 C133 1.370 . S
C132 C134 1.363 . S
C132 H148 0.931 . S
C133 C132 1.370 . S
C133 C137 1.408 . S
C134 C132 1.363 . S
C134 C135 1.370 . S
C134 C138 1.524 . S
C135 C127 1.503 . S
C135 C134 1.370 . S
C135 C136 1.403 . S
C136 C135 1.403 . S
C136 C137 1.404 . S
C136 C139 1.539 . S
C137 C133 1.408 . S
C137 C136 1.404 . S
C137 H149 0.930 . S
C138 C134 1.524 . S
C138 H150 0.956 . S
C138 H151 0.961 . S
C138 H152 0.961 . S
C139 C136 1.539 . S
C139 H153 0.958 . S
C139 H154 0.961 . S
C139 H155 0.960 . S
H140 C124 0.931 . S
H141 C129 0.929 . S
H142 C130 0.960 . S
H143 C130 0.962 . S
H144 C130 0.960 . S
H145 C131 0.961 . S
H146 C131 0.961 . S
H147 C131 0.961 . S
H148 C132 0.931 . S
H149 C137 0.930 . S
H150 C138 0.956 . S
H151 C138 0.961 . S
H152 C138 0.961 . S
H153 C139 0.958 . S
H154 C139 0.961 . S
H155 C139 0.960 . S
C156 C157 1.391 . S
C156 C158 1.394 . S
C156 H172 0.931 . S
C157 C156 1.391 . S
C157 C161 1.376 . S
C158 C156 1.394 . S
C158 C159 1.369 . S
C158 C162 1.531 . S
C159 C158 1.369 . S
C159 C160 1.410 . S
C159 C167 1.503 . S
C160 C159 1.410 . S
C160 C161 1.392 . S
C160 C163 1.511 . S
C161 C157 1.376 . S
C161 C160 1.392 . S
C161 H173 0.929 . S
C162 C158 1.531 . S
C162 H174 0.960 . S
C162 H175 0.962 . S
C162 H176 0.960 . S
C163 C160 1.511 . S
C163 H177 0.961 . S
C163 H178 0.961 . S
C163 H179 0.961 . S
C164 C165 1.370 . S
C164 C166 1.363 . S
C164 H180 0.931 . S
C165 C164 1.370 . S
C165 C169 1.408 . S
C166 C164 1.363 . S
C166 C167 1.370 . S
C166 C170 1.524 . S
C167 C159 1.503 . S
C167 C166 1.370 . S
C167 C168 1.403 . S
C168 C167 1.403 . S
C168 C169 1.404 . S
C168 C171 1.539 . S
C169 C165 1.408 . S
C169 C168 1.404 . S
C169 H181 0.930 . S
C170 C166 1.524 . S
C170 H182 0.956 . S
C170 H183 0.961 . S
C170 H184 0.961 . S
C171 C168 1.539 . S
C171 H185 0.958 . S
C171 H186 0.961 . S
C171 H187 0.960 . S
H172 C156 0.931 . S
H173 C161 0.929 . S
H174 C162 0.960 . S
H175 C162 0.962 . S
H176 C162 0.960 . S
H177 C163 0.961 . S
H178 C163 0.961 . S
H179 C163 0.961 . S
H180 C164 0.931 . S
H181 C169 0.930 . S
H182 C170 0.956 . S
H183 C170 0.961 . S
H184 C170 0.961 . S
H185 C171 0.958 . S
H186 C171 0.961 . S
H187 C171 0.960 . S
C188 C189 1.391 . S
C188 C190 1.394 . S
C188 H204 0.931 . S
C189 C188 1.391 . S
C189 C193 1.376 . S
C190 C188 1.394 . S
C190 C191 1.369 . S
C190 C194 1.531 . S
C191 C190 1.369 . S
C191 C192 1.410 . S
C191 C199 1.503 1_556 S
C192 C191 1.410 . S
C192 C193 1.392 . S
C192 C195 1.511 . S
C193 C189 1.376 . S
C193 C192 1.392 . S
C193 H205 0.929 . S
C194 C190 1.531 . S
C194 H206 0.960 . S
C194 H207 0.962 . S
C194 H208 0.960 . S
C195 C192 1.511 . S
C195 H209 0.961 . S
C195 H210 0.961 1_556 S
C195 H211 0.961 . S
C196 C197 1.370 . S
C196 C198 1.363 . S
C196 H212 0.931 . S
C197 C196 1.370 . S
C197 C201 1.408 . S
C198 C196 1.363 . S
C198 C199 1.370 . S
C198 C202 1.524 . S
C199 C191 1.503 1_554 S
C199 C198 1.370 . S
C199 C200 1.403 . S
C200 C199 1.403 . S
C200 C201 1.404 . S
C200 C203 1.539 . S
C201 C197 1.408 . S
C201 C200 1.404 . S
C201 H213 0.930 . S
C202 C198 1.524 . S
C202 H214 0.956 1_554 S
C202 H215 0.961 1_554 S
C202 H216 0.961 . S
C203 C200 1.539 . S
C203 H217 0.958 . S
C203 H218 0.961 . S
C203 H219 0.960 1_554 S
H204 C188 0.931 . S
H205 C193 0.929 . S
H206 C194 0.960 . S
H207 C194 0.962 . S
H208 C194 0.960 . S
H209 C195 0.961 . S
H210 C195 0.961 1_554 S
H211 C195 0.961 . S
H212 C196 0.931 . S
H213 C201 0.930 . S
H214 C202 0.956 1_556 S
H215 C202 0.961 1_556 S
H216 C202 0.961 . S
H217 C203 0.958 . S
H218 C203 0.961 . S
H219 C203 0.960 1_556 S
C220 C221 1.391 . S
C220 C222 1.394 . S
C220 H236 0.931 . S
C221 C220 1.391 . S
C221 C225 1.376 . S
C222 C220 1.394 . S
C222 C223 1.369 . S
C222 C226 1.531 . S
C223 C222 1.369 . S
C223 C224 1.410 . S
C223 C231 1.503 . S
C224 C223 1.410 . S
C224 C225 1.392 . S
C224 C227 1.511 . S
C225 C221 1.376 . S
C225 C224 1.392 . S
C225 H237 0.929 . S
C226 C222 1.531 . S
C226 H238 0.960 . S
C226 H239 0.962 . S
C226 H240 0.960 . S
C227 C224 1.511 . S
C227 H241 0.961 . S
C227 H242 0.961 . S
C227 H243 0.961 . S
C228 C229 1.370 . S
C228 C230 1.363 . S
C228 H244 0.931 . S
C229 C228 1.370 . S
C229 C233 1.408 . S
C230 C228 1.363 . S
C230 C231 1.370 . S
C230 C234 1.524 . S
C231 C223 1.503 . S
C231 C230 1.370 . S
C231 C232 1.403 . S
C232 C231 1.403 . S
C232 C233 1.404 . S
C232 C235 1.539 . S
C233 C229 1.408 . S
C233 C232 1.404 . S
C233 H245 0.930 . S
C234 C230 1.524 . S
C234 H246 0.956 . S
C234 H247 0.961 . S
C234 H248 0.961 . S
C235 C232 1.539 . S
C235 H249 0.958 . S
C235 H250 0.961 . S
C235 H251 0.960 . S
H236 C220 0.931 . S
H237 C225 0.929 . S
H238 C226 0.960 . S
H239 C226 0.962 . S
H240 C226 0.960 . S
H241 C227 0.961 . S
H242 C227 0.961 . S
H243 C227 0.961 . S
H244 C228 0.931 . S
H245 C233 0.930 . S
H246 C234 0.956 . S
H247 C234 0.961 . S
H248 C234 0.961 . S
H249 C235 0.958 . S
H250 C235 0.961 . S
H251 C235 0.960 . S
C252 C253 1.391 . S
C252 C254 1.394 . S
C252 H268 0.931 . S
C253 C252 1.391 . S
C253 C257 1.376 . S
C254 C252 1.394 . S
C254 C255 1.369 . S
C254 C258 1.531 . S
C255 C254 1.369 . S
C255 C256 1.410 . S
C255 C263 1.503 . S
C256 C255 1.410 . S
C256 C257 1.392 . S
C256 C259 1.511 . S
C257 C253 1.376 . S
C257 C256 1.392 . S
C257 H269 0.929 . S
C258 C254 1.531 . S
C258 H270 0.960 . S
C258 H271 0.962 . S
C258 H272 0.960 . S
C259 C256 1.511 . S
C259 H273 0.961 . S
C259 H274 0.961 . S
C259 H275 0.961 . S
C260 C261 1.370 . S
C260 C262 1.363 . S
C260 H276 0.931 . S
C261 C260 1.370 . S
C261 C265 1.408 . S
C262 C260 1.363 . S
C262 C263 1.370 . S
C262 C266 1.524 . S
C263 C255 1.503 . S
C263 C262 1.370 . S
C263 C264 1.403 . S
C264 C263 1.403 . S
C264 C265 1.404 . S
C264 C267 1.539 . S
C265 C261 1.408 . S
C265 C264 1.404 . S
C265 H277 0.930 . S
C266 C262 1.524 . S
C266 H278 0.956 . S
C266 H279 0.961 . S
C266 H280 0.961 1_556 S
C267 C264 1.539 . S
C267 H281 0.958 . S
C267 H282 0.961 . S
C267 H283 0.960 . S
H268 C252 0.931 . S
H269 C257 0.929 . S
H270 C258 0.960 . S
H271 C258 0.962 . S
H272 C258 0.960 . S
H273 C259 0.961 . S
H274 C259 0.961 . S
H275 C259 0.961 . S
H276 C260 0.931 . S
H277 C265 0.930 . S
H278 C266 0.956 . S
H279 C266 0.961 . S
H280 C266 0.961 1_554 S
H281 C267 0.958 . S
H282 C267 0.961 . S
H283 C267 0.960 . S
C284 C285 1.391 . S
C284 C286 1.394 . S
C284 H300 0.931 . S
C285 C284 1.391 . S
C285 C289 1.376 . S
C286 C284 1.394 . S
C286 C287 1.369 . S
C286 C290 1.531 1_554 S
C287 C286 1.369 . S
C287 C288 1.410 . S
C287 C295 1.503 . S
C288 C287 1.410 . S
C288 C289 1.392 . S
C288 C291 1.511 . S
C289 C285 1.376 . S
C289 C288 1.392 . S
C289 H301 0.929 . S
C290 C286 1.531 1_556 S
C290 H302 0.960 . S
C290 H303 0.962 . S
C290 H304 0.960 . S
C291 C288 1.511 . S
C291 H305 0.961 . S
C291 H306 0.961 . S
C291 H307 0.961 . S
C292 C293 1.370 . S
C292 C294 1.363 1_565 S
C292 H308 0.931 . S
C293 C292 1.370 . S
C293 C297 1.408 . S
C294 C292 1.363 1_545 S
C294 C295 1.370 . S
C294 C298 1.524 . S
C295 C287 1.503 . S
C295 C294 1.370 . S
C295 C296 1.403 . S
C296 C295 1.403 . S
C296 C297 1.404 1_545 S
C296 C299 1.539 . S
C297 C293 1.408 . S
C297 C296 1.404 1_565 S
C297 H309 0.930 . S
C298 C294 1.524 . S
C298 H310 0.956 . S
C298 H311 0.961 . S
C298 H312 0.961 . S
C299 C296 1.539 . S
C299 H313 0.958 1_554 S
C299 H314 0.961 . S
C299 H315 0.960 . S
H300 C284 0.931 . S
H301 C289 0.929 . S
H302 C290 0.960 . S
H303 C290 0.962 . S
H304 C290 0.960 . S
H305 C291 0.961 . S
H306 C291 0.961 . S
H307 C291 0.961 . S
H308 C292 0.931 . S
H309 C297 0.930 . S
H310 C298 0.956 . S
H311 C298 0.961 . S
H312 C298 0.961 . S
H313 C299 0.958 1_556 S
H314 C299 0.961 . S
H315 C299 0.960 . S
C316 C317 1.391 . S
C316 C318 1.394 . S
C316 H332 0.931 . S
C317 C316 1.391 . S
C317 C321 1.376 . S
C318 C316 1.394 . S
C318 C319 1.369 . S
C318 C322 1.531 . S
C319 C318 1.369 . S
C319 C320 1.410 . S
C319 C327 1.503 . S
C320 C319 1.410 . S
C320 C321 1.392 . S
C320 C323 1.511 . S
C321 C317 1.376 . S
C321 C320 1.392 . S
C321 H333 0.929 . S
C322 C318 1.531 . S
C322 H334 0.960 . S
C322 H335 0.962 . S
C322 H336 0.960 . S
C323 C320 1.511 . S
C323 H337 0.961 . S
C323 H338 0.961 . S
C323 H339 0.961 . S
C324 C325 1.370 . S
C324 C326 1.363 . S
C324 H340 0.931 . S
C325 C324 1.370 . S
C325 C329 1.408 . S
C326 C324 1.363 . S
C326 C327 1.370 . S
C326 C330 1.524 . S
C327 C319 1.503 . S
C327 C326 1.370 . S
C327 C328 1.403 . S
C328 C327 1.403 . S
C328 C329 1.404 . S
C328 C331 1.539 . S
C329 C325 1.408 . S
C329 C328 1.404 . S
C329 H341 0.930 . S
C330 C326 1.524 . S
C330 H342 0.956 . S
C330 H343 0.961 . S
C330 H344 0.961 . S
C331 C328 1.539 . S
C331 H345 0.958 . S
C331 H346 0.961 . S
C331 H347 0.960 . S
H332 C316 0.931 . S
H333 C321 0.929 . S
H334 C322 0.960 . S
H335 C322 0.962 . S
H336 C322 0.960 . S
H337 C323 0.961 . S
H338 C323 0.961 . S
H339 C323 0.961 . S
H340 C324 0.931 . S
H341 C329 0.930 . S
H342 C330 0.956 . S
H343 C330 0.961 . S
H344 C330 0.961 . S
H345 C331 0.958 . S
H346 C331 0.961 . S
H347 C331 0.960 . S
C348 C349 1.391 . S
C348 C350 1.394 . S
C348 H364 0.931 . S
C349 C348 1.391 . S
C349 C353 1.376 . S
C350 C348 1.394 . S
C350 C351 1.369 . S
C350 C354 1.531 . S
C351 C350 1.369 . S
C351 C352 1.410 . S
C351 C359 1.503 . S
C352 C351 1.410 . S
C352 C353 1.392 . S
C352 C355 1.511 . S
C353 C349 1.376 . S
C353 C352 1.392 . S
C353 H365 0.929 . S
C354 C350 1.531 . S
C354 H366 0.960 . S
C354 H367 0.962 . S
C354 H368 0.960 . S
C355 C352 1.511 . S
C355 H369 0.961 . S
C355 H370 0.961 . S
C355 H371 0.961 . S
C356 C357 1.370 . S
C356 C358 1.363 1_545 S
C356 H372 0.931 . S
C357 C356 1.370 . S
C357 C361 1.408 . S
C358 C356 1.363 1_565 S
C358 C359 1.370 . S
C358 C362 1.524 . S
C359 C351 1.503 . S
C359 C358 1.370 . S
C359 C360 1.403 . S
C360 C359 1.403 . S
C360 C361 1.404 1_565 S
C360 C363 1.539 . S
C361 C357 1.408 . S
C361 C360 1.404 1_545 S
C361 H373 0.930 . S
C362 C358 1.524 . S
C362 H374 0.956 . S
C362 H375 0.961 . S
C362 H376 0.961 . S
C363 C360 1.539 . S
C363 H377 0.958 . S
C363 H378 0.961 . S
C363 H379 0.960 . S
H364 C348 0.931 . S
H365 C353 0.929 . S
H366 C354 0.960 . S
H367 C354 0.962 . S
H368 C354 0.960 . S
H369 C355 0.961 . S
H370 C355 0.961 . S
H371 C355 0.961 . S
H372 C356 0.931 . S
H373 C361 0.930 . S
H374 C362 0.956 . S
H375 C362 0.961 . S
H376 C362 0.961 . S
H377 C363 0.958 . S
H378 C363 0.961 . S
H379 C363 0.960 . S
C380 C381 1.391 1_455 S
C380 C382 1.394 . S
C380 H396 0.931 1_556 S
C381 C380 1.391 1_655 S
C381 C385 1.376 . S
C382 C380 1.394 . S
C382 C383 1.369 . S
C382 C386 1.531 1_556 S
C383 C382 1.369 . S
C383 C384 1.410 . S
C383 C391 1.503 . S
C384 C383 1.410 . S
C384 C385 1.392 1_455 S
C384 C387 1.511 . S
C385 C381 1.376 . S
C385 C384 1.392 1_655 S
C385 H397 0.929 . S
C386 C382 1.531 1_554 S
C386 H398 0.960 . S
C386 H399 0.962 . S
C386 H400 0.960 . S
C387 C384 1.511 . S
C387 H401 0.961 . S
C387 H402 0.961 . S
C387 H403 0.961 . S
C388 C389 1.370 . S
C388 C390 1.363 . S
C388 H404 0.931 . S
C389 C388 1.370 . S
C389 C393 1.408 . S
C390 C388 1.363 . S
C390 C391 1.370 . S
C390 C394 1.524 . S
C391 C383 1.503 . S
C391 C390 1.370 . S
C391 C392 1.403 . S
C392 C391 1.403 . S
C392 C393 1.404 . S
C392 C395 1.539 . S
C393 C389 1.408 . S
C393 C392 1.404 . S
C393 H405 0.930 . S
C394 C390 1.524 . S
C394 H406 0.956 . S
C394 H407 0.961 . S
C394 H408 0.961 . S
C395 C392 1.539 . S
C395 H409 0.958 . S
C395 H410 0.961 . S
C395 H411 0.960 . S
H396 C380 0.931 1_554 S
H397 C385 0.929 . S
H398 C386 0.960 . S
H399 C386 0.962 . S
H400 C386 0.960 . S
H401 C387 0.961 . S
H402 C387 0.961 . S
H403 C387 0.961 . S
H404 C388 0.931 . S
H405 C393 0.930 . S
H406 C394 0.956 . S
H407 C394 0.961 . S
H408 C394 0.961 . S
H409 C395 0.958 . S
H410 C395 0.961 . S
H411 C395 0.960 . S
C412 C413 1.391 . S
C412 C414 1.394 . S
C412 H428 0.931 . S
C413 C412 1.391 . S
C413 C417 1.376 . S
C414 C412 1.394 . S
C414 C415 1.369 . S
C414 C418 1.531 . S
C415 C414 1.369 . S
C415 C416 1.410 . S
C415 C423 1.503 . S
C416 C415 1.410 . S
C416 C417 1.392 . S
C416 C419 1.511 . S
C417 C413 1.376 . S
C417 C416 1.392 . S
C417 H429 0.929 . S
C418 C414 1.531 . S
C418 H430 0.960 . S
C418 H431 0.962 . S
C418 H432 0.960 . S
C419 C416 1.511 . S
C419 H433 0.961 . S
C419 H434 0.961 . S
C419 H435 0.961 . S
C420 C421 1.370 . S
C420 C422 1.363 . S
C420 H436 0.931 . S
C421 C420 1.370 . S
C421 C425 1.408 . S
C422 C420 1.363 . S
C422 C423 1.370 . S
C422 C426 1.524 . S
C423 C415 1.503 . S
C423 C422 1.370 . S
C423 C424 1.403 . S
C424 C423 1.403 . S
C424 C425 1.404 . S
C424 C427 1.539 . S
C425 C421 1.408 . S
C425 C424 1.404 . S
C425 H437 0.930 . S
C426 C422 1.524 . S
C426 H438 0.956 . S
C426 H439 0.961 . S
C426 H440 0.961 . S
C427 C424 1.539 . S
C427 H441 0.958 . S
C427 H442 0.961 . S
C427 H443 0.960 . S
H428 C412 0.931 . S
H429 C417 0.929 . S
H430 C418 0.960 . S
H431 C418 0.962 . S
H432 C418 0.960 . S
H433 C419 0.961 . S
H434 C419 0.961 . S
H435 C419 0.961 . S
H436 C420 0.931 . S
H437 C425 0.930 . S
H438 C426 0.956 . S
H439 C426 0.961 . S
H440 C426 0.961 . S
H441 C427 0.958 . S
H442 C427 0.961 . S
H443 C427 0.960 . S
C444 C445 1.391 . S
C444 C446 1.394 . S
C444 H460 0.931 . S
C445 C444 1.391 . S
C445 C449 1.376 . S
C446 C444 1.394 . S
C446 C447 1.369 . S
C446 C450 1.531 . S
C447 C446 1.369 . S
C447 C448 1.410 . S
C447 C455 1.503 . S
C448 C447 1.410 . S
C448 C449 1.392 . S
C448 C451 1.511 . S
C449 C445 1.376 . S
C449 C448 1.392 . S
C449 H461 0.929 . S
C450 C446 1.531 . S
C450 H462 0.960 . S
C450 H463 0.962 . S
C450 H464 0.960 . S
C451 C448 1.511 . S
C451 H465 0.961 . S
C451 H466 0.961 . S
C451 H467 0.961 . S
C452 C453 1.370 1_655 S
C452 C454 1.363 . S
C452 H468 0.931 . S
C453 C452 1.370 1_455 S
C453 C457 1.408 . S
C454 C452 1.363 . S
C454 C455 1.370 . S
C454 C458 1.524 . S
C455 C447 1.503 . S
C455 C454 1.370 . S
C455 C456 1.403 . S
C456 C455 1.403 . S
C456 C457 1.404 1_655 S
C456 C459 1.539 . S
C457 C453 1.408 . S
C457 C456 1.404 1_455 S
C457 H469 0.930 . S
C458 C454 1.524 . S
C458 H470 0.956 . S
C458 H471 0.961 . S
C458 H472 0.961 . S
C459 C456 1.539 . S
C459 H473 0.958 . S
C459 H474 0.961 . S
C459 H475 0.960 . S
H460 C444 0.931 . S
H461 C449 0.929 . S
H462 C450 0.960 . S
H463 C450 0.962 . S
H464 C450 0.960 . S
H465 C451 0.961 . S
H466 C451 0.961 . S
H467 C451 0.961 . S
H468 C452 0.931 . S
H469 C457 0.930 . S
H470 C458 0.956 . S
H471 C458 0.961 . S
H472 C458 0.961 . S
H473 C459 0.958 . S
H474 C459 0.961 . S
H475 C459 0.960 . S
C476 C477 1.391 . S
C476 C478 1.394 . S
C476 H492 0.931 . S
C477 C476 1.391 . S
C477 C481 1.376 . S
C478 C476 1.394 . S
C478 C479 1.369 . S
C478 C482 1.531 . S
C479 C478 1.369 . S
C479 C480 1.410 . S
C479 C487 1.503 . S
C480 C479 1.410 . S
C480 C481 1.392 . S
C480 C483 1.511 . S
C481 C477 1.376 . S
C481 C480 1.392 . S
C481 H493 0.929 . S
C482 C478 1.531 . S
C482 H494 0.960 . S
C482 H495 0.962 . S
C482 H496 0.960 . S
C483 C480 1.511 . S
C483 H497 0.961 . S
C483 H498 0.961 . S
C483 H499 0.961 . S
C484 C485 1.370 . S
C484 C486 1.363 . S
C484 H500 0.931 . S
C485 C484 1.370 . S
C485 C489 1.408 . S
C486 C484 1.363 . S
C486 C487 1.370 . S
C486 C490 1.524 . S
C487 C479 1.503 . S
C487 C486 1.370 . S
C487 C488 1.403 . S
C488 C487 1.403 . S
C488 C489 1.404 . S
C488 C491 1.539 . S
C489 C485 1.408 . S
C489 C488 1.404 . S
C489 H501 0.930 . S
C490 C486 1.524 . S
C490 H502 0.956 . S
C490 H503 0.961 . S
C490 H504 0.961 . S
C491 C488 1.539 . S
C491 H505 0.958 . S
C491 H506 0.961 . S
C491 H507 0.960 . S
H492 C476 0.931 . S
H493 C481 0.929 . S
H494 C482 0.960 . S
H495 C482 0.962 . S
H496 C482 0.960 . S
H497 C483 0.961 . S
H498 C483 0.961 . S
H499 C483 0.961 . S
H500 C484 0.931 . S
H501 C489 0.930 . S
H502 C490 0.956 . S
H503 C490 0.961 . S
H504 C490 0.961 . S
H505 C491 0.958 . S
H506 C491 0.961 . S
H507 C491 0.960 . S
C508 C509 1.391 . S
C508 C510 1.394 . S
C508 H524 0.931 . S
C509 C508 1.391 . S
C509 C513 1.376 . S
C510 C508 1.394 . S
C510 C511 1.369 . S
C510 C514 1.531 1_445 S
C511 C510 1.369 . S
C511 C512 1.410 . S
C511 C519 1.503 1_445 S
C512 C511 1.410 . S
C512 C513 1.392 . S
C512 C515 1.511 . S
C513 C509 1.376 . S
C513 C512 1.392 . S
C513 H525 0.929 . S
C514 C510 1.531 1_665 S
C514 H526 0.960 . S
C514 H527 0.962 . S
C514 H528 0.960 1_565 S
C515 C512 1.511 . S
C515 H529 0.961 . S
C515 H530 0.960 1_545 S
C515 H531 0.961 . S
C516 C517 1.370 . S
C516 C518 1.363 1_655 S
C516 H532 0.931 . S
C517 C516 1.370 . S
C517 C521 1.408 . S
C518 C516 1.363 1_455 S
C518 C519 1.370 1_455 S
C518 C522 1.524 . S
C519 C511 1.503 1_665 S
C519 C518 1.370 1_655 S
C519 C520 1.403 . S
C520 C519 1.403 . S
C520 C521 1.404 . S
C520 C523 1.539 1_565 S
C521 C517 1.408 . S
C521 C520 1.404 . S
C521 H533 0.930 . S
C522 C518 1.524 . S
C522 H534 0.956 . S
C522 H535 0.961 . S
C522 H536 0.961 . S
C523 C520 1.539 1_545 S
C523 H537 0.958 . S
C523 H538 0.961 . S
C523 H539 0.960 . S
H524 C508 0.931 . S
H525 C513 0.929 . S
H526 C514 0.960 . S
H527 C514 0.962 . S
H528 C514 0.960 1_545 S
H529 C515 0.961 . S
H530 C515 0.960 1_565 S
H531 C515 0.961 . S
H532 C516 0.931 . S
H533 C521 0.930 . S
H534 C522 0.956 . S
H535 C522 0.961 . S
H536 C522 0.961 . S
H537 C523 0.958 . S
H538 C523 0.961 . S
H539 C523 0.960 . S
C540 C541 1.391 . S
C540 C542 1.394 . S
C540 H556 0.931 . S
C541 C540 1.391 . S
C541 C545 1.376 . S
C542 C540 1.394 . S
C542 C543 1.369 . S
C542 C546 1.531 . S
C543 C542 1.369 . S
C543 C544 1.410 . S
C543 C551 1.503 . S
C544 C543 1.410 . S
C544 C545 1.392 . S
C544 C547 1.511 . S
C545 C541 1.376 . S
C545 C544 1.392 . S
C545 H557 0.929 . S
C546 C542 1.531 . S
C546 H558 0.960 . S
C546 H559 0.962 . S
C546 H560 0.960 . S
C547 C544 1.511 . S
C547 H561 0.961 . S
C547 H562 0.961 . S
C547 H563 0.961 . S
C548 C549 1.370 . S
C548 C550 1.363 . S
C548 H564 0.931 . S
C549 C548 1.370 . S
C549 C553 1.408 . S
C550 C548 1.363 . S
C550 C551 1.370 . S
C550 C554 1.524 . S
C551 C543 1.503 . S
C551 C550 1.370 . S
C551 C552 1.403 . S
C552 C551 1.403 . S
C552 C553 1.404 . S
C552 C555 1.539 . S
C553 C549 1.408 . S
C553 C552 1.404 . S
C553 H565 0.930 . S
C554 C550 1.524 . S
C554 H566 0.956 . S
C554 H567 0.961 . S
C554 H568 0.961 . S
C555 C552 1.539 . S
C555 H569 0.958 . S
C555 H570 0.961 . S
C555 H571 0.960 . S
H556 C540 0.931 . S
H557 C545 0.929 . S
H558 C546 0.960 . S
H559 C546 0.962 . S
H560 C546 0.960 . S
H561 C547 0.961 . S
H562 C547 0.961 . S
H563 C547 0.961 . S
H564 C548 0.931 . S
H565 C553 0.930 . S
H566 C554 0.956 . S
H567 C554 0.961 . S
H568 C554 0.961 . S
H569 C555 0.958 . S
H570 C555 0.961 . S
H571 C555 0.960 . S
C572 C573 1.391 . S
C572 C574 1.394 . S
C572 H588 0.931 . S
C573 C572 1.391 . S
C573 C577 1.376 1_655 S
C574 C572 1.394 . S
C574 C575 1.369 . S
C574 C578 1.531 . S
C575 C574 1.369 . S
C575 C576 1.410 1_655 S
C575 C583 1.503 . S
C576 C575 1.410 1_455 S
C576 C577 1.392 . S
C576 C579 1.511 . S
C577 C573 1.376 1_455 S
C577 C576 1.392 . S
C577 H589 0.929 . S
C578 C574 1.531 . S
C578 H590 0.960 1_545 S
C578 H591 0.962 . S
C578 H592 0.960 1_545 S
C579 C576 1.511 . S
C579 H593 0.961 . S
C579 H594 0.961 . S
C579 H595 0.961 . S
C580 C581 1.370 1_545 S
C580 C582 1.363 . S
C580 H596 0.931 . S
C581 C580 1.370 1_565 S
C581 C585 1.408 . S
C582 C580 1.363 . S
C582 C583 1.370 . S
C582 C586 1.524 . S
C583 C575 1.503 . S
C583 C582 1.370 . S
C583 C584 1.403 1_545 S
C584 C583 1.403 1_565 S
C584 C585 1.404 . S
C584 C587 1.539 . S
C585 C581 1.408 . S
C585 C584 1.404 . S
C585 H597 0.930 . S
C586 C582 1.524 . S
C586 H598 0.956 . S
C586 H599 0.961 . S
C586 H600 0.961 . S
C587 C584 1.539 . S
C587 H601 0.958 . S
C587 H602 0.961 1_655 S
C587 H603 0.960 1_655 S
H588 C572 0.931 . S
H589 C577 0.929 . S
H590 C578 0.960 1_565 S
H591 C578 0.962 . S
H592 C578 0.960 1_565 S
H593 C579 0.961 . S
H594 C579 0.961 . S
H595 C579 0.961 . S
H596 C580 0.931 . S
H597 C585 0.930 . S
H598 C586 0.956 . S
H599 C586 0.961 . S
H600 C586 0.961 . S
H601 C587 0.958 . S
H602 C587 0.961 1_455 S
H603 C587 0.960 1_455 S
C604 C605 1.391 . S
C604 C606 1.394 . S
C604 H620 0.931 . S
C605 C604 1.391 . S
C605 C609 1.376 . S
C606 C604 1.394 . S
C606 C607 1.369 . S
C606 C610 1.531 . S
C607 C606 1.369 . S
C607 C608 1.410 . S
C607 C615 1.503 . S
C608 C607 1.410 . S
C608 C609 1.392 . S
C608 C611 1.511 1_554 S
C609 C605 1.376 . S
C609 C608 1.392 . S
C609 H621 0.929 . S
C610 C606 1.531 . S
C610 H622 0.960 . S
C610 H623 0.962 . S
C610 H624 0.960 . S
C611 C608 1.511 1_556 S
C611 H625 0.961 . S
C611 H626 0.961 . S
C611 H627 0.961 . S
C612 C613 1.370 . S
C612 C614 1.363 . S
C612 H628 0.931 . S
C613 C612 1.370 . S
C613 C617 1.408 . S
C614 C612 1.363 . S
C614 C615 1.370 1_556 S
C614 C618 1.524 1_556 S
C615 C607 1.503 . S
C615 C614 1.370 1_554 S
C615 C616 1.403 1_554 S
C616 C615 1.403 1_556 S
C616 C617 1.404 . S
C616 C619 1.539 1_556 S
C617 C613 1.408 . S
C617 C616 1.404 . S
C617 H629 0.930 . S
C618 C614 1.524 1_554 S
C618 H630 0.956 . S
C618 H631 0.961 . S
C618 H632 0.961 1_554 S
C619 C616 1.539 1_554 S
C619 H633 0.958 . S
C619 H634 0.961 1_554 S
C619 H635 0.960 . S
H620 C604 0.931 . S
H621 C609 0.929 . S
H622 C610 0.960 . S
H623 C610 0.962 . S
H624 C610 0.960 . S
H625 C611 0.961 . S
H626 C611 0.961 . S
H627 C611 0.961 . S
H628 C612 0.931 . S
H629 C617 0.930 . S
H630 C618 0.956 . S
H631 C618 0.961 . S
H632 C618 0.961 1_556 S
H633 C619 0.958 . S
H634 C619 0.961 1_556 S
H635 C619 0.960 . S
C125 C1 1.535 . S
C133 C27 1.500 . S
C157 C58 1.517 . S
C165 C32 1.538 1_556 S
C189 C89 1.514 . S
C197 C63 1.517 . S
C221 C120 1.515 1_554 S
C229 C94 1.547 . S
C253 C103 1.593 . S
C261 C18 1.629 . S
C285 C31 1.338 . S
C293 C2 1.253 . S
C317 C62 1.311 . S
C325 C41 1.198 . S
C349 C93 1.901 . S
C357 C72 1.729 . S
C381 C10 2.135 . S
C389 C111 2.147 . S
C413 C33 1.651 . S
C421 C0 1.727 . S
C445 C49 1.466 . S
C453 C64 1.548 . S
C477 C80 2.101 . S
C485 C95 2.227 . S
C509 C73 1.058 . S
C517 C11 1.050 . S
C541 C55 0.660 . S
C549 C104 0.680 . S
C573 C86 0.688 1_655 S
C581 C24 0.643 . S
C605 C42 0.670 . S
C613 C117 0.691 . S
