# Generated by pormake.
# Topology smu, (6)-cn, num edge types: 1
# Building blocks:
#     Node 0, Type 0, BuildingBlock: UKALOJ_clean_sbu_0, # of connection points: 6
#     Node 1, Type 0, BuildingBlock: UKALOJ_clean_sbu_0, # of connection points: 6
#     Node 2, Type 0, BuildingBlock: UKALOJ_clean_sbu_0, # of connection points: 6
#     Node 3, Type 0, BuildingBlock: UKALOJ_clean_sbu_0, # of connection points: 6
#     Node 4, Type 0, BuildingBlock: UKALOJ_clean_sbu_0, # of connection points: 6
#     Node 5, Type 0, BuildingBlock: UKALOJ_clean_sbu_0, # of connection points: 6
#     Edge 6, Type (0, 0), BuildingBlock: KIFKEQ_clean_linker_1, # of connection points: 2
#     Edge 7, Type (0, 0), BuildingBlock: KIFKEQ_clean_linker_1, # of connection points: 2
#     Edge 8, Type (0, 0), BuildingBlock: KIFKEQ_clean_linker_1, # of connection points: 2
#     Edge 9, Type (0, 0), BuildingBlock: KIFKEQ_clean_linker_1, # of connection points: 2
#     Edge 10, Type (0, 0), BuildingBlock: KIFKEQ_clean_linker_1, # of connection points: 2
#     Edge 11, Type (0, 0), BuildingBlock: KIFKEQ_clean_linker_1, # of connection points: 2
#     Edge 12, Type (0, 0), BuildingBlock: KIFKEQ_clean_linker_1, # of connection points: 2
#     Edge 13, Type (0, 0), BuildingBlock: KIFKEQ_clean_linker_1, # of connection points: 2
#     Edge 14, Type (0, 0), BuildingBlock: KIFKEQ_clean_linker_1, # of connection points: 2
#     Edge 15, Type (0, 0), BuildingBlock: KIFKEQ_clean_linker_1, # of connection points: 2
#     Edge 16, Type (0, 0), BuildingBlock: KIFKEQ_clean_linker_1, # of connection points: 2
#     Edge 17, Type (0, 0), BuildingBlock: KIFKEQ_clean_linker_1, # of connection points: 2
#     Edge 18, Type (0, 0), BuildingBlock: KIFKEQ_clean_linker_1, # of connection points: 2
#     Edge 19, Type (0, 0), BuildingBlock: KIFKEQ_clean_linker_1, # of connection points: 2
#     Edge 20, Type (0, 0), BuildingBlock: KIFKEQ_clean_linker_1, # of connection points: 2
#     Edge 21, Type (0, 0), BuildingBlock: KIFKEQ_clean_linker_1, # of connection points: 2
#     Edge 22, Type (0, 0), BuildingBlock: KIFKEQ_clean_linker_1, # of connection points: 2
#     Edge 23, Type (0, 0), BuildingBlock: KIFKEQ_clean_linker_1, # of connection points: 2
# Relax obj value: 0.183
# Max RMSD: 0.229
# Mean RMSD: 0.229
data_MOF--net-smu--node1-UKALOJ_clean_sbu_0--edge1-KIFKEQ_clean_linker_1
_symmetry_space_group_name_H-M    P1
_symmetry_Int_Tables_number       1
_symmetry_cell_setting            triclinic
loop_
_symmetry_equiv_pos_as_xyz
'x, y, z'
_cell_length_a     27.988212
_cell_length_b     28.008785
_cell_length_c     40.292672
_cell_angle_alpha  89.997478
_cell_angle_beta   89.929995
_cell_angle_gamma 120.0174
loop_
_atom_site_label
_atom_site_type_symbol
_atom_site_fract_x
_atom_site_fract_y
_atom_site_fract_z
_atom_type_partial_charge
Zn0 Zn 0.32652 0.06471 0.30113 0.0
O1 O 0.26636 0.08751 0.30814 0.0
C2 C 0.24158 0.95633 0.28048 0.0
Zn3 Zn 0.32037 0.06304 0.24584 0.0
C4 C 0.25002 0.10019 0.28199 0.0
O5 O 0.26493 0.09215 0.25374 0.0
C6 C 0.40414 0.03672 0.26509 0.0
O7 O 0.38187 0.14515 0.23937 0.0
O8 O 0.38381 0.14948 0.29403 0.0
N9 N 0.29989 0.05377 0.19633 0.0
C10 C 0.32507 0.05273 0.16794 0.0
C11 C 0.242 0.02908 0.15578 0.0
N12 N 0.24847 0.03944 0.18854 0.0
N13 N 0.2894 0.03708 0.14218 0.0
C14 C 0.3124 0.04718 0.37798 0.0
C15 C 0.39501 0.09733 0.39485 0.0
N16 N 0.3439 0.07202 0.35105 0.0
N17 N 0.39516 0.10331 0.36166 0.0
N18 N 0.34363 0.06198 0.4058 0.0
H19 H 0.23291 0.02036 0.35548 0.0
H20 H 0.232 0.01524 0.40021 0.0
H21 H 0.24092 0.96723 0.37499 0.0
C22 C 0.25095 0.01071 0.37709 0.0
C23 C 0.38249 0.06197 0.16629 0.0
H24 H 0.39998 0.07321 0.14096 0.0
H25 H 0.38159 0.0233 0.17349 0.0
H26 H 0.40943 0.09502 0.18388 0.0
O27 O 0.37859 0.03773 0.2393 0.0
O28 O 0.38929 0.0449 0.29336 0.0
C29 C 0.39898 0.17321 0.26591 0.0
O30 O 0.26675 0.98092 0.30679 0.0
O31 O 0.25706 0.98137 0.25288 0.0
Zn32 Zn 0.72844 0.66214 0.24458 0.0
O33 O 0.74989 0.60072 0.23823 0.0
C34 C 0.61914 0.57846 0.26303 0.0
Zn35 Zn 0.72508 0.65502 0.2999 0.0
C36 C 0.76096 0.58331 0.26463 0.0
O37 O 0.75226 0.59795 0.29286 0.0
C38 C 0.7008 0.7401 0.28001 0.0
O39 O 0.80779 0.71466 0.30784 0.0
O40 O 0.81287 0.71763 0.25338 0.0
N41 N 0.7125 0.63618 0.34969 0.0
C42 C 0.72307 0.66735 0.37726 0.0
C43 C 0.67389 0.58337 0.39204 0.0
N44 N 0.68233 0.58403 0.35908 0.0
N45 N 0.69922 0.63512 0.40409 0.0
C46 C 0.7176 0.6592 0.16623 0.0
C47 C 0.78103 0.74109 0.15507 0.0
N48 N 0.74147 0.68364 0.19526 0.0
N49 N 0.78081 0.73443 0.1881 0.0
N50 N 0.74167 0.69466 0.14058 0.0
H51 H 0.67751 0.57502 0.18289 0.0
H52 H 0.67471 0.58343 0.13847 0.0
H53 H 0.63241 0.59741 0.16608 0.0
C54 C 0.67314 0.60018 0.16315 0.0
C55 C 0.75244 0.7291 0.37767 0.0
H56 H 0.78775 0.74499 0.39509 0.0
H57 H 0.72393 0.74291 0.38688 0.0
H58 H 0.76814 0.74689 0.35286 0.0
O59 O 0.70099 0.71406 0.30571 0.0
O60 O 0.7096 0.72565 0.25181 0.0
C61 C 0.83635 0.73181 0.2815 0.0
O62 O 0.64496 0.60386 0.23698 0.0
O63 O 0.64305 0.59326 0.29102 0.0
Zn64 Zn 0.91743 0.25842 0.30244 0.0
O65 O 0.89114 0.17515 0.30959 0.0
C66 C 0.02881 0.28323 0.28352 0.0
Zn67 Zn 0.92417 0.25233 0.24741 0.0
C68 C 0.88743 0.14633 0.2844 0.0
O69 O 0.90187 0.16913 0.25605 0.0
C70 C 0.94643 0.36257 0.26589 0.0
O71 O 0.84063 0.22535 0.24036 0.0
O72 O 0.8337 0.23497 0.29412 0.0
N73 N 0.93582 0.24191 0.19798 0.0
C74 C 0.9382 0.26827 0.16938 0.0
C75 C 0.96391 0.2101 0.15831 0.0
N76 N 0.95141 0.20556 0.19081 0.0
N77 N 0.95594 0.2491 0.14421 0.0
C78 C 0.93275 0.26139 0.37959 0.0
C79 C 0.88539 0.29742 0.39571 0.0
N80 N 0.90935 0.26916 0.35235 0.0
N81 N 0.87978 0.29134 0.36251 0.0
N82 N 0.9188 0.27935 0.40715 0.0
H83 H 0.9565 0.20587 0.35776 0.0
H84 H 0.96071 0.21021 0.40251 0.0
H85 H 0.01102 0.26588 0.37741 0.0
C86 C 0.9669 0.23388 0.37927 0.0
C87 C 0.92772 0.31553 0.16684 0.0
H88 H 0.8932 0.30857 0.18349 0.0
H89 H 0.91784 0.32123 0.14104 0.0
H90 H 0.96541 0.35383 0.17464 0.0
O91 O 0.9435 0.3347 0.2403 0.0
O92 O 0.94073 0.34113 0.29446 0.0
C93 C 0.8113 0.22073 0.2656 0.0
O94 O 0.00065 0.2792 0.30921 0.0
O95 O 0.00703 0.27705 0.2551 0.0
Zn96 Zn 0.06021 0.32271 0.79977 0.0
O97 O 0.14447 0.38062 0.80579 0.0
C98 C 0.03924 0.41134 0.78356 0.0
Zn99 Zn 0.06547 0.33498 0.74468 0.0
C100 C 0.17319 0.40159 0.77976 0.0
O101 O 0.15008 0.39117 0.75142 0.0
C102 C 0.95408 0.25013 0.76449 0.0
O103 O 0.08747 0.27548 0.73534 0.0
O104 O 0.08327 0.2626 0.78928 0.0
N105 N 0.07088 0.35494 0.69508 0.0
C106 C 0.05124 0.32419 0.66727 0.0
C107 C 0.08276 0.40807 0.65329 0.0
N108 N 0.09081 0.40704 0.68618 0.0
N109 N 0.05819 0.35662 0.64077 0.0
C110 C 0.05459 0.32574 0.87803 0.0
C111 C 0.03296 0.24303 0.88943 0.0
N112 N 0.05183 0.30034 0.849 0.0
N113 N 0.03844 0.24902 0.85628 0.0
N114 N 0.04258 0.29045 0.90376 0.0
H115 H 0.10214 0.40975 0.86138 0.0
H116 H 0.09074 0.40175 0.90578 0.0
H117 H 0.03524 0.39036 0.87832 0.0
C118 C 0.07201 0.38551 0.88112 0.0
C119 C 0.02169 0.26243 0.66628 0.0
H120 H 0.04694 0.249 0.65216 0.0
H121 H 0.98178 0.24659 0.6531 0.0
H122 H 0.01436 0.24421 0.69136 0.0
O123 O 0.9816 0.27634 0.73911 0.0
O124 O 0.97661 0.2632 0.79291 0.0
C125 C 0.09403 0.25201 0.76043 0.0
O126 O 0.04008 0.38472 0.80887 0.0
O127 O 0.04635 0.39693 0.75492 0.0
Zn128 Zn 0.25288 0.92871 0.79823 0.0
O129 O 0.23181 0.84662 0.8067 0.0
C130 C 0.3629 0.95369 0.77971 0.0
Zn131 Zn 0.25705 0.92266 0.74316 0.0
C132 C 0.22117 0.81684 0.78093 0.0
O133 O 0.22987 0.83864 0.75221 0.0
C134 C 0.2807 0.03267 0.76052 0.0
O135 O 0.17416 0.89924 0.73571 0.0
O136 O 0.16821 0.89934 0.79013 0.0
N137 N 0.26772 0.91288 0.69366 0.0
C138 C 0.25702 0.93255 0.66574 0.0
C139 C 0.30361 0.89462 0.65152 0.0
N140 N 0.29624 0.88891 0.68464 0.0
N141 N 0.27909 0.92157 0.63905 0.0
C142 C 0.26664 0.93953 0.87592 0.0
C143 C 0.21302 0.97081 0.88734 0.0
N144 N 0.24227 0.94092 0.84731 0.0
N145 N 0.20873 0.95997 0.85462 0.0
N146 N 0.24907 0.95837 0.90136 0.0
H147 H 0.30446 0.89336 0.8592 0.0
H148 H 0.31299 0.90939 0.90302 0.0
H149 H 0.3515 0.96253 0.87319 0.0
C150 C 0.31119 0.92494 0.87807 0.0
C151 C 0.22982 0.96695 0.66478 0.0
H152 H 0.21105 0.96703 0.6889 0.0
H153 H 0.19728 0.95106 0.64547 0.0
H154 H 0.26093 0.00982 0.65784 0.0
O155 O 0.28086 0.00559 0.73533 0.0
O156 O 0.27163 0.01043 0.78903 0.0
C157 C 0.14524 0.88904 0.76181 0.0
O158 O 0.33648 0.95427 0.80521 0.0
O159 O 0.33962 0.94343 0.75148 0.0
Zn160 Zn 0.65387 0.73233 0.74224 0.0
O161 O 0.7104 0.81561 0.73468 0.0
C162 C 0.74085 0.70819 0.76128 0.0
Zn163 Zn 0.66645 0.73837 0.7972 0.0
C164 C 0.73521 0.84463 0.75985 0.0
O165 O 0.72687 0.82189 0.78822 0.0
C166 C 0.57922 0.62791 0.77921 0.0
O167 O 0.60943 0.76461 0.80417 0.0
O168 O 0.59317 0.75529 0.75042 0.0
N169 N 0.68836 0.74967 0.84645 0.0
C170 C 0.66294 0.72651 0.87543 0.0
C171 C 0.74664 0.785 0.8866 0.0
N172 N 0.74028 0.78596 0.85361 0.0
N173 N 0.69887 0.7479 0.90107 0.0
C174 C 0.66623 0.72875 0.66514 0.0
C175 C 0.58277 0.69223 0.64908 0.0
N176 N 0.63497 0.72089 0.69239 0.0
N177 N 0.58317 0.69839 0.68227 0.0
N178 N 0.63435 0.71057 0.63761 0.0
H179 H 0.74548 0.78473 0.68686 0.0
H180 H 0.74537 0.78019 0.64212 0.0
H181 H 0.7403 0.72479 0.66731 0.0
C182 C 0.72794 0.75659 0.6654 0.0
C183 C 0.60271 0.68547 0.87851 0.0
H184 H 0.57916 0.69216 0.85872 0.0
H185 H 0.58678 0.68864 0.90316 0.0
H186 H 0.5965 0.64333 0.87572 0.0
O187 O 0.60393 0.65576 0.80486 0.0
O188 O 0.59489 0.64957 0.75067 0.0
C189 C 0.58477 0.76926 0.77898 0.0
O190 O 0.71671 0.71202 0.73559 0.0
O191 O 0.72511 0.71436 0.78969 0.0
H192 H 0.28843 0.05554 0.93209 0.0
H193 H 0.24837 0.88731 0.94711 0.0
H194 H 0.30787 0.0742 0.99117 0.0
H195 H 0.26979 0.90593 1.0063 0.0
H196 H 0.22486 0.94139 0.11132 0.0
H197 H 0.2246 0.92174 0.05231 0.0
H198 H 0.36614 0.0841 0.03765 0.0
H199 H 0.36452 0.10395 0.09679 0.0
C200 C 0.28523 0.023 0.9481 0.0
C201 C 0.26774 0.97031 0.93515 0.0
C202 C 0.29674 0.03366 0.98187 0.0
C203 C 0.29055 0.99162 1.00359 0.0
C204 C 0.27469 0.93919 0.99033 0.0
C205 C 0.26316 0.92861 0.95643 0.0
C206 C 0.2564 0.97235 0.09544 0.0
C207 C 0.29514 0.0238 0.1085 0.0
C208 C 0.25661 0.96107 0.0617 0.0
C209 C 0.29544 0.00128 0.04013 0.0
C210 C 0.33545 0.0523 0.0535 0.0
C211 C 0.33512 0.06352 0.08737 0.0
H212 H 0.58899 0.72545 0.58253 0.0
H213 H 0.70921 0.68256 0.61566 0.0
H214 H 0.607 0.71146 0.52489 0.0
H215 H 0.72861 0.67049 0.55827 0.0
H216 H 0.77972 0.69929 0.44746 0.0
H217 H 0.76718 0.72334 0.50422 0.0
H218 H 0.59039 0.62834 0.49158 0.0
H219 H 0.6034 0.60482 0.43503 0.0
C220 C 0.61992 0.71397 0.57745 0.0
C221 C 0.64872 0.70668 0.60368 0.0
C222 C 0.63015 0.70585 0.54453 0.0
C223 C 0.66953 0.69026 0.53705 0.0
C224 C 0.69888 0.68364 0.5632 0.0
C225 C 0.68817 0.69116 0.59615 0.0
C226 C 0.73838 0.68441 0.45682 0.0
C227 C 0.69247 0.6508 0.43698 0.0
C228 C 0.73112 0.69765 0.48929 0.0
C229 C 0.67778 0.67797 0.50228 0.0
C230 C 0.63197 0.64475 0.48215 0.0
C231 C 0.63929 0.63097 0.44995 0.0
H232 H 0.05719 0.29035 0.11864 0.0
H233 H 0.89169 0.2516 0.09492 0.0
H234 H 0.08399 0.31209 0.06044 0.0
H235 H 0.9177 0.2723 0.0362 0.0
H236 H 0.99114 0.33964 0.93352 0.0
H237 H 0.97398 0.34087 0.99319 0.0
H238 H 0.06238 0.2539 1.01216 0.0
H239 H 0.08023 0.25404 0.95298 0.0
C240 C 0.02688 0.28746 0.10084 0.0
C241 C 0.97263 0.26973 0.11105 0.0
C242 C 0.04198 0.29951 0.06754 0.0
C243 C 0.00286 0.29335 0.04353 0.0
C244 C 0.94901 0.27803 0.05406 0.0
C245 C 0.93401 0.2662 0.08758 0.0
C246 C 0.00819 0.32236 0.95066 0.0
C247 C 0.03786 0.29758 0.93878 0.0
C248 C -0.00226 0.32233 0.98474 0.0
C249 C 0.01697 0.29769 1.00754 0.0
C250 C 0.04775 0.27415 0.9955 0.0
C251 C 0.05781 0.27392 0.96159 0.0
H252 H 0.38547 0.12242 0.46119 0.0
H253 H 0.27201 0.95769 0.4271 0.0
H254 H 0.3675 0.08967 0.51867 0.0
H255 H 0.25253 0.92544 0.48435 0.0
H256 H 0.19855 0.90187 0.5951 0.0
H257 H 0.21085 0.93787 0.53815 0.0
H258 H 0.38759 0.02469 0.55182 0.0
H259 H 0.37479 0.98852 0.60851 0.0
C260 C 0.35599 0.07946 0.46602 0.0
C261 C 0.32905 0.04308 0.43959 0.0
C262 C 0.34581 0.0607 0.49884 0.0
C263 C 0.30832 0.00507 0.50598 0.0
C264 C 0.28077 0.96877 0.47963 0.0
C265 C 0.29149 0.98743 0.44678 0.0
C266 C 0.23979 0.92907 0.58582 0.0
C267 C 0.28577 0.94297 0.60595 0.0
C268 C 0.24692 0.94933 0.55332 0.0
C269 C 0.30019 0.98435 0.54064 0.0
C270 C 0.34607 -0.0016 0.56104 0.0
C271 C 0.33889 0.97752 0.59328 0.0
H272 H 0.64116 0.64648 0.93035 0.0
H273 H 0.74581 0.81982 0.95082 0.0
H274 H 0.64477 0.62546 0.98921 0.0
H275 H 0.75067 0.79882 1.00902 0.0
H276 H 0.81539 0.73638 0.0912 0.0
H277 H 0.79709 0.74411 0.03288 0.0
H278 H 0.62197 0.65094 0.05181 0.0
H279 H 0.64043 0.64443 0.1108 0.0
C280 C 0.66342 0.68015 0.94751 0.0
C281 C 0.69276 0.73497 0.93602 0.0
C282 C 0.6659 0.66805 0.98111 0.0
C283 C 0.69853 0.71049 1.00349 0.0
C284 C 0.72577 0.76526 0.9922 0.0
C285 C 0.72285 0.7773 0.95896 0.0
C286 C 0.77298 0.71673 0.08283 0.0
C287 C 0.72946 0.68947 0.10556 0.0
C288 C 0.7625 0.72132 0.04952 0.0
C289 C 0.70814 0.69861 0.03797 0.0
C290 C 0.66426 0.66857 0.06013 0.0
C291 C 0.67484 0.66441 0.09379 0.0
H292 H 0.02173 0.30748 0.4291 0.0
H293 H 0.85853 0.26489 0.46227 0.0
H294 H 0.05317 0.3201 0.48647 0.0
H295 H 0.89058 0.27958 0.51986 0.0
H296 H -0.00602 0.38775 0.60913 0.0
H297 H 0.95783 0.3638 0.55257 0.0
H298 H 0.03815 0.26731 0.54098 0.0
H299 H 0.07432 0.29168 0.59777 0.0
C300 C -0.00796 0.29904 0.44861 0.0
C301 C 0.93705 0.28344 0.44109 0.0
C302 C 0.01028 0.3069 0.48154 0.0
C303 C 0.97431 0.30062 0.50769 0.0
C304 C 0.91933 0.28494 0.50022 0.0
C305 C 0.90095 0.27641 0.46732 0.0
C306 C 0.00358 0.36125 0.59444 0.0
C307 C 0.03635 0.34106 0.60775 0.0
C308 C 0.98265 0.3472 0.56223 0.0
C309 C -0.00514 0.31338 0.54241 0.0
C310 C 0.02805 0.29344 0.55569 0.0
C311 C 0.04834 0.3069 0.58818 0.0
H312 H 0.46583 0.02694 0.31418 0.0
H313 H 0.46686 0.05851 0.20915 0.0
H314 H 0.56537 0.06522 0.31269 0.0
H315 H 0.56618 0.099 0.20794 0.0
H316 H 0.7488 0.15613 0.21441 0.0
H317 H 0.64901 0.09662 0.21316 0.0
H318 H 0.63709 0.15897 0.30917 0.0
H319 H 0.73699 0.21664 0.31097 0.0
C320 C 0.48706 0.04069 0.29059 0.0
C321 C 0.45861 0.04084 0.26194 0.0
C322 C 0.54422 0.06341 0.28983 0.0
C323 C 0.57399 0.08714 0.26048 0.0
C324 C 0.54472 0.08149 0.23105 0.0
C325 C 0.48748 0.05809 0.23173 0.0
C326 C 0.72476 0.15756 0.23508 0.0
C327 C 0.75068 0.19122 0.26276 0.0
C328 C 0.66755 0.12322 0.23442 0.0
C329 C 0.63501 0.12227 0.26128 0.0
C330 C 0.66096 0.15733 0.28848 0.0
C331 C 0.71817 0.19113 0.28931 0.0
H332 H 0.56869 0.51829 0.20711 0.0
H333 H 0.55542 0.51545 0.31405 0.0
H334 H 0.50526 0.41908 0.2056 0.0
H335 H 0.49549 0.41698 0.31284 0.0
H336 H 0.37956 0.23838 0.30597 0.0
H337 H 0.41589 0.33692 0.30138 0.0
H338 H 0.51552 0.34275 0.21749 0.0
H339 H 0.47523 0.24272 0.22079 0.0
C340 C 0.55111 0.49683 0.23021 0.0
C341 C 0.56803 0.52451 0.26075 0.0
C342 C 0.5155 0.43976 0.2294 0.0
C343 C 0.49657 0.4095 0.25913 0.0
C344 C 0.50893 0.43841 0.28934 0.0
C345 C 0.5437 0.49528 0.29009 0.0
C346 C 0.40968 0.26095 0.28676 0.0
C347 C 0.42595 0.23351 0.26427 0.0
C348 C 0.43038 0.31747 0.284 0.0
C349 C 0.46918 0.34828 0.25928 0.0
C350 C 0.48504 0.32045 0.23653 0.0
C351 C 0.46291 0.26337 0.23872 0.0
H352 H 0.93577 0.4108 0.20913 0.0
H353 H 0.94542 0.42702 0.31593 0.0
H354 H 0.89959 0.47378 0.20626 0.0
H355 H 0.90662 0.48665 0.31337 0.0
H356 H 0.84623 0.60384 0.30421 0.0
H357 H 0.90773 0.56658 0.30046 0.0
H358 H 0.81323 0.46519 0.21748 0.0
H359 H 0.75412 0.5064 0.21991 0.0
C360 C 0.93152 0.42882 0.23191 0.0
C361 C 0.94243 0.41299 0.26281 0.0
C362 C 0.90988 0.46424 0.23032 0.0
C363 C 0.8985 0.48413 0.2596 0.0
C364 C 0.91477 0.47254 0.29017 0.0
C365 C 0.93703 0.43793 0.2917 0.0
C366 C 0.83841 0.57322 0.28533 0.0
C367 C 0.79461 0.55664 0.26291 0.0
C368 C 0.8738 0.55193 0.28309 0.0
C369 C 0.86528 0.5122 0.25897 0.0
C370 C 0.82171 0.49626 0.23612 0.0
C371 C 0.78718 0.51899 0.23778 0.0
H372 H 0.03512 0.47518 0.73432 0.0
H373 H 0.05457 0.4713 0.84048 0.0
H374 H 0.07275 0.57344 0.73645 0.0
H375 H 0.08957 0.57035 0.84307 0.0
H376 H 0.23238 0.749 0.8253 0.0
H377 H 0.17409 0.64871 0.82943 0.0
H378 H 0.07147 0.65185 0.7501 0.0
H379 H 0.1322 0.75055 0.74451 0.0
C380 C 0.04546 0.49507 0.75839 0.0
C381 C 0.04303 0.46557 0.78712 0.0
C382 C 0.06699 0.55182 0.75969 0.0
C383 C 0.08558 0.58044 0.78989 0.0
C384 C 0.07733 0.54993 0.81923 0.0
C385 C 0.05635 0.49295 0.81785 0.0
C386 C 0.19768 0.72768 0.8086 0.0
C387 C 0.18773 0.75671 0.78385 0.0
C388 C 0.16364 0.67046 0.81127 0.0
C389 C 0.1181 0.64177 0.78987 0.0
C390 C 0.10696 0.67193 0.7663 0.0
C391 C 0.14186 0.72853 0.76299 0.0
H392 H 0.40127 0.92987 0.83583 0.0
H393 H 0.43677 0.96615 0.73154 0.0
H394 H 0.45999 0.88929 0.83718 0.0
H395 H 0.49784 0.9277 0.73317 0.0
H396 H 0.51624 0.77535 0.73327 0.0
H397 H 0.4745 0.83339 0.73547 0.0
H398 H 0.54541 0.89158 0.83263 0.0
H399 H 0.58521 0.83174 0.83095 0.0
C400 C 0.42351 0.93144 0.81351 0.0
C401 C 0.41333 0.95 0.78339 0.0
C402 C 0.45721 0.90792 0.81425 0.0
C403 C 0.48207 0.90348 0.78498 0.0
C404 C 0.47752 0.92859 0.75586 0.0
C405 C 0.44323 0.95141 0.75503 0.0
C406 C 0.52228 0.80001 0.75526 0.0
C407 C 0.55367 0.79872 0.78198 0.0
C408 C 0.49918 0.83402 0.75633 0.0
C409 C 0.50755 0.86806 0.78397 0.0
C410 C 0.538 0.86582 0.81101 0.0
C411 C 0.56058 0.83128 0.8101 0.0
H412 H 0.24201 0.4763 0.82564 0.0
H413 H 0.23905 0.3842 0.73912 0.0
H414 H 0.34243 0.51892 0.82813 0.0
H415 H 0.33806 0.42245 0.74297 0.0
H416 H 0.51474 0.56343 0.72895 0.0
H417 H 0.4166 0.50232 0.73125 0.0
H418 H 0.42136 0.51336 0.83847 0.0
H419 H 0.52025 0.57829 0.83582 0.0
C420 C 0.26307 0.46511 0.80732 0.0
C421 C 0.23351 0.42863 0.78158 0.0
C422 C 0.32044 0.48863 0.80901 0.0
C423 C 0.34887 0.47455 0.78558 0.0
C424 C 0.31824 0.43581 0.76082 0.0
C425 C 0.26143 0.41388 0.75853 0.0
C426 C 0.49527 0.55189 0.75315 0.0
C427 C 0.52518 0.57689 0.78214 0.0
C428 C 0.43852 0.51633 0.75453 0.0
C429 C 0.41031 0.50369 0.78505 0.0
C430 C 0.44133 0.52368 0.81442 0.0
C431 C 0.49827 0.5602 0.81297 0.0
H432 H 0.17406 0.09381 0.32728 0.0
H433 H 0.27159 0.18645 0.24294 0.0
H434 H 0.13401 0.15383 0.33055 0.0
H435 H 0.23538 0.24877 0.2475 0.0
H436 H 0.09364 0.28436 0.23299 0.0
H437 H 0.15484 0.24735 0.23503 0.0
H438 H 0.14397 0.2408 0.34223 0.0
H439 H 0.07973 0.27549 0.3399 0.0
C440 C 0.18694 0.1272 0.3096 0.0
C441 C 0.22422 0.13453 0.2842 0.0
C442 C 0.16491 0.16225 0.31175 0.0
C443 C 0.18118 0.20617 0.28912 0.0
C444 C 0.22061 0.21462 0.26475 0.0
C445 C 0.24123 0.17876 0.26203 0.0
C446 C 0.10534 0.27651 0.25713 0.0
C447 C 0.08035 0.2812 0.28624 0.0
C448 C 0.14086 0.25531 0.25834 0.0
C449 C 0.15325 0.23944 0.28879 0.0
C450 C 0.13369 0.25069 0.31826 0.0
C451 C 0.09744 0.27134 0.31698 0.0
H452 H 0.90129 0.71559 0.23928 0.0
H453 H 0.90629 0.80383 0.32824 0.0
H454 H 0.0002 0.7532 0.24219 0.0
H455 H 0.00672 0.84517 0.33006 0.0
H456 H 0.18391 0.89939 0.3359 0.0
H457 H 0.08492 0.83483 0.33834 0.0
H458 H 0.07787 0.83657 0.23111 0.0
H459 H 0.17608 0.89832 0.22879 0.0
C460 C 0.92399 0.74418 0.2591 0.0
C461 C 0.89666 0.75821 0.28305 0.0
C462 C 0.98071 0.76558 0.26086 0.0
C463 C 0.01178 0.80282 0.28609 0.0
C464 C 0.9841 0.81603 0.31051 0.0
C465 C 0.92681 0.79324 0.30924 0.0
C466 C 0.16141 0.88448 0.3129 0.0
C467 C 0.18759 0.90512 0.28221 0.0
C468 C 0.10452 0.84802 0.31428 0.0
C469 C 0.07301 0.83171 0.285 0.0
C470 C 0.10045 0.84794 0.25427 0.0
C471 C 0.15713 0.88375 0.25291 0.0
H472 H 0.81994 0.08272 0.33438 0.0
H473 H 0.88673 0.0735 0.23939 0.0
H474 H 0.75956 0.98306 0.33424 0.0
H475 H 0.82825 0.97374 0.23986 0.0
H476 H 0.69522 0.80435 0.23096 0.0
H477 H 0.73423 0.90381 0.23382 0.0
H478 H 0.75984 0.89916 0.3393 0.0
H479 H 0.71828 0.7998 0.33671 0.0
C480 C 0.8226 0.05923 0.31381 0.0
C481 C 0.85812 0.0858 0.28689 0.0
C482 C 0.78775 0.00213 0.31366 0.0
C483 C 0.78825 0.97045 0.28677 0.0
C484 C 0.82544 -0.00298 0.26048 0.0
C485 C 0.8597 0.0541 0.26044 0.0
C486 C 0.7073 0.82437 0.25495 0.0
C487 C 0.70505 0.79448 0.28345 0.0
C488 C 0.73044 0.88146 0.25652 0.0
C489 C 0.75224 0.90964 0.28653 0.0
C490 C 0.74395 0.87892 0.3157 0.0
C491 C 0.72002 0.82173 0.31421 0.0
H492 H 0.09971 0.18292 0.80568 0.0
H493 H 0.15527 0.25186 0.70781 0.0
H494 H 0.15809 0.14163 0.80329 0.0
H495 H 0.21549 0.21235 0.7059 0.0
H496 H 0.25639 0.06949 0.70388 0.0
H497 H 0.21461 0.12721 0.70187 0.0
H498 H 0.25324 0.16741 0.80557 0.0
H499 H 0.29266 0.10726 0.80793 0.0
C500 C 0.1242 0.18895 0.78358 0.0
C501 C 0.12272 0.22033 0.7569 0.0
C502 C 0.15842 0.16612 0.7824 0.0
C503 C 0.19251 0.17479 0.7547 0.0
C504 C 0.18977 0.20486 0.72758 0.0
C505 C 0.15499 0.22719 0.7286 0.0
C506 C 0.25758 0.09195 0.726 0.0
C507 C 0.27636 0.08262 0.7563 0.0
C508 C 0.23346 0.1251 0.72486 0.0
C509 C 0.22873 0.15024 0.75389 0.0
C510 C 0.25429 0.14675 0.78309 0.0
C511 C 0.27764 0.11298 0.78434 0.0
H512 H 0.07597 0.89466 0.71617 0.0
H513 H 0.08028 0.80412 0.80164 0.0
H514 H 0.97575 0.83518 0.71325 0.0
H515 H 0.98153 0.74211 0.79744 0.0
H516 H 0.80471 0.70794 0.81186 0.0
H517 H 0.9028 0.74424 0.80963 0.0
H518 H 0.89805 0.74862 0.70237 0.0
H519 H 0.79921 0.71475 0.70489 0.0
C520 C 0.05527 0.86181 0.73417 0.0
C521 C 0.08507 0.85496 0.75979 0.0
C522 C -0.0019 0.82704 0.73222 0.0
C523 C 0.97021 0.78382 0.75528 0.0
C524 C 0.00107 0.77576 0.77986 0.0
C525 C 0.05766 0.81142 0.78239 0.0
C526 C 0.82413 0.7152 0.78768 0.0
C527 C 0.79437 0.71012 0.75858 0.0
C528 C 0.8808 0.73597 0.78635 0.0
C529 C 0.90893 0.75099 0.75581 0.0
C530 C 0.878 0.73939 0.7264 0.0
C531 C 0.82115 0.71922 0.72779 0.0
H532 H 0.91352 0.1911 0.70739 0.0
H533 H 0.88113 0.1865 0.81258 0.0
H534 H 0.85538 0.09175 0.70459 0.0
H535 H 0.82044 0.08709 0.80946 0.0
H536 H 0.80526 0.91813 0.80536 0.0
H537 H 0.84569 0.01776 0.8046 0.0
H538 H 0.77103 0.00731 0.70898 0.0
H539 H 0.73248 0.90773 0.70918 0.0
C540 C 0.89215 0.16919 0.72968 0.0
C541 C 0.90329 0.19638 0.76043 0.0
C542 C 0.85872 0.112 0.72807 0.0
C543 C 0.83501 0.08125 0.75709 0.0
C544 C 0.84003 0.10945 0.78692 0.0
C545 C 0.8741 0.16652 0.78862 0.0
C546 C 0.79814 0.93723 0.78399 0.0
C547 C 0.76599 0.9052 0.75729 0.0
C548 C 0.82047 -0.00576 0.78377 0.0
C549 C 0.81054 0.02046 0.75704 0.0
C550 C 0.77954 0.98849 0.72992 0.0
C551 C 0.75772 0.93145 0.72997 0.0
loop_
_geom_bond_atom_site_label_1
_geom_bond_atom_site_label_2
_geom_bond_distance
_geom_bond_site_symmetry_2
_ccdc_geom_bond_type
Zn0 O1 2.055 . S
Zn0 O8 2.046 . S
Zn0 N16 2.036 . S
Zn0 O28 2.053 . S
Zn0 O30 2.066 . S
O1 Zn0 2.055 . S
O1 C4 1.259 . S
C2 O30 1.256 . S
C2 O31 1.244 . S
Zn3 O5 2.046 . S
Zn3 O7 2.055 . S
Zn3 N9 2.036 . S
Zn3 O27 2.066 . S
Zn3 O31 2.053 . S
C4 O1 1.259 . S
C4 O5 1.254 . S
O5 Zn3 2.046 . S
O5 C4 1.254 . S
C6 O27 1.256 . S
C6 O28 1.244 . S
O7 Zn3 2.055 . S
O7 C29 1.259 . S
O8 Zn0 2.046 . S
O8 C29 1.254 . S
N9 Zn3 2.036 . S
N9 C10 1.298 . S
N9 N12 1.398 . S
C10 N9 1.298 . S
C10 N13 1.367 . S
C10 C23 1.481 . S
C11 N12 1.299 . S
C11 N13 1.379 . S
N12 N9 1.398 . S
N12 C11 1.299 . S
N13 C10 1.367 . S
N13 C11 1.379 . S
C14 N16 1.298 . S
C14 N18 1.367 . S
C14 C22 1.481 . S
C15 N17 1.299 . S
C15 N18 1.379 . S
N16 Zn0 2.036 . S
N16 C14 1.298 . S
N16 N17 1.398 . S
N17 C15 1.299 . S
N17 N16 1.398 . S
N18 C14 1.367 . S
N18 C15 1.379 . S
H19 C22 0.980 . S
H20 C22 0.981 . S
H21 C22 0.981 . S
C22 C14 1.481 . S
C22 H19 0.980 . S
C22 H20 0.981 . S
C22 H21 0.981 . S
C23 C10 1.481 . S
C23 H24 0.980 . S
C23 H25 0.981 . S
C23 H26 0.981 . S
H24 C23 0.980 . S
H25 C23 0.981 . S
H26 C23 0.981 . S
O27 Zn3 2.066 . S
O27 C6 1.256 . S
O28 Zn0 2.053 . S
O28 C6 1.244 . S
C29 O7 1.259 . S
C29 O8 1.254 . S
O30 Zn0 2.066 . S
O30 C2 1.256 . S
O31 C2 1.244 . S
O31 Zn3 2.053 . S
Zn32 O33 2.055 . S
Zn32 O40 2.046 . S
Zn32 N48 2.036 . S
Zn32 O60 2.053 . S
Zn32 O62 2.066 . S
O33 Zn32 2.055 . S
O33 C36 1.259 . S
C34 O62 1.256 . S
C34 O63 1.244 . S
Zn35 O37 2.046 . S
Zn35 O39 2.055 . S
Zn35 N41 2.036 . S
Zn35 O59 2.066 . S
Zn35 O63 2.053 . S
C36 O33 1.259 . S
C36 O37 1.254 . S
O37 Zn35 2.046 . S
O37 C36 1.254 . S
C38 O59 1.256 . S
C38 O60 1.244 . S
O39 Zn35 2.055 . S
O39 C61 1.259 . S
O40 Zn32 2.046 . S
O40 C61 1.254 . S
N41 Zn35 2.036 . S
N41 C42 1.298 . S
N41 N44 1.398 . S
C42 N41 1.298 . S
C42 N45 1.367 . S
C42 C55 1.481 . S
C43 N44 1.299 . S
C43 N45 1.379 . S
N44 N41 1.398 . S
N44 C43 1.299 . S
N45 C42 1.367 . S
N45 C43 1.379 . S
C46 N48 1.298 . S
C46 N50 1.367 . S
C46 C54 1.481 . S
C47 N49 1.299 . S
C47 N50 1.379 . S
N48 Zn32 2.036 . S
N48 C46 1.298 . S
N48 N49 1.398 . S
N49 C47 1.299 . S
N49 N48 1.398 . S
N50 C46 1.367 . S
N50 C47 1.379 . S
H51 C54 0.980 . S
H52 C54 0.981 . S
H53 C54 0.981 . S
C54 C46 1.481 . S
C54 H51 0.980 . S
C54 H52 0.981 . S
C54 H53 0.981 . S
C55 C42 1.481 . S
C55 H56 0.980 . S
C55 H57 0.981 . S
C55 H58 0.981 . S
H56 C55 0.980 . S
H57 C55 0.981 . S
H58 C55 0.981 . S
O59 Zn35 2.066 . S
O59 C38 1.256 . S
O60 Zn32 2.053 . S
O60 C38 1.244 . S
C61 O39 1.259 . S
C61 O40 1.254 . S
O62 Zn32 2.066 . S
O62 C34 1.256 . S
O63 C34 1.244 . S
O63 Zn35 2.053 . S
Zn64 O65 2.055 . S
Zn64 O72 2.046 . S
Zn64 N80 2.036 . S
Zn64 O92 2.053 . S
Zn64 O94 2.066 . S
O65 Zn64 2.055 . S
O65 C68 1.259 . S
C66 O94 1.256 . S
C66 O95 1.244 . S
Zn67 O69 2.046 . S
Zn67 O71 2.055 . S
Zn67 N73 2.036 . S
Zn67 O91 2.066 . S
Zn67 O95 2.053 . S
C68 O65 1.259 . S
C68 O69 1.254 . S
O69 Zn67 2.046 . S
O69 C68 1.254 . S
C70 O91 1.256 . S
C70 O92 1.244 . S
O71 Zn67 2.055 . S
O71 C93 1.259 . S
O72 Zn64 2.046 . S
O72 C93 1.254 . S
N73 Zn67 2.036 . S
N73 C74 1.298 . S
N73 N76 1.398 . S
C74 N73 1.298 . S
C74 N77 1.367 . S
C74 C87 1.481 . S
C75 N76 1.299 . S
C75 N77 1.379 . S
N76 N73 1.398 . S
N76 C75 1.299 . S
N77 C74 1.367 . S
N77 C75 1.379 . S
C78 N80 1.298 . S
C78 N82 1.367 . S
C78 C86 1.481 . S
C79 N81 1.299 . S
C79 N82 1.379 . S
N80 Zn64 2.036 . S
N80 C78 1.298 . S
N80 N81 1.398 . S
N81 C79 1.299 . S
N81 N80 1.398 . S
N82 C78 1.367 . S
N82 C79 1.379 . S
H83 C86 0.980 . S
H84 C86 0.981 . S
H85 C86 0.981 . S
C86 C78 1.481 . S
C86 H83 0.980 . S
C86 H84 0.981 . S
C86 H85 0.981 . S
C87 C74 1.481 . S
C87 H88 0.980 . S
C87 H89 0.981 . S
C87 H90 0.981 . S
H88 C87 0.980 . S
H89 C87 0.981 . S
H90 C87 0.981 . S
O91 Zn67 2.066 . S
O91 C70 1.256 . S
O92 Zn64 2.053 . S
O92 C70 1.244 . S
C93 O71 1.259 . S
C93 O72 1.254 . S
O94 Zn64 2.066 . S
O94 C66 1.256 . S
O95 C66 1.244 . S
O95 Zn67 2.053 . S
Zn96 O97 2.055 . S
Zn96 O104 2.046 . S
Zn96 N112 2.036 . S
Zn96 O124 2.053 . S
Zn96 O126 2.066 . S
O97 Zn96 2.055 . S
O97 C100 1.259 . S
C98 O126 1.256 . S
C98 O127 1.244 . S
Zn99 O101 2.046 . S
Zn99 O103 2.055 . S
Zn99 N105 2.036 . S
Zn99 O123 2.066 . S
Zn99 O127 2.053 . S
C100 O97 1.259 . S
C100 O101 1.254 . S
O101 Zn99 2.046 . S
O101 C100 1.254 . S
C102 O123 1.256 . S
C102 O124 1.244 . S
O103 Zn99 2.055 . S
O103 C125 1.259 . S
O104 Zn96 2.046 . S
O104 C125 1.254 . S
N105 Zn99 2.036 . S
N105 C106 1.298 . S
N105 N108 1.398 . S
C106 N105 1.298 . S
C106 N109 1.367 . S
C106 C119 1.481 . S
C107 N108 1.299 . S
C107 N109 1.379 . S
N108 N105 1.398 . S
N108 C107 1.299 . S
N109 C106 1.367 . S
N109 C107 1.379 . S
C110 N112 1.298 . S
C110 N114 1.367 . S
C110 C118 1.481 . S
C111 N113 1.299 . S
C111 N114 1.379 . S
N112 Zn96 2.036 . S
N112 C110 1.298 . S
N112 N113 1.398 . S
N113 C111 1.299 . S
N113 N112 1.398 . S
N114 C110 1.367 . S
N114 C111 1.379 . S
H115 C118 0.980 . S
H116 C118 0.981 . S
H117 C118 0.981 . S
C118 C110 1.481 . S
C118 H115 0.980 . S
C118 H116 0.981 . S
C118 H117 0.981 . S
C119 C106 1.481 . S
C119 H120 0.980 . S
C119 H121 0.981 . S
C119 H122 0.981 . S
H120 C119 0.980 . S
H121 C119 0.981 . S
H122 C119 0.981 . S
O123 Zn99 2.066 . S
O123 C102 1.256 . S
O124 Zn96 2.053 . S
O124 C102 1.244 . S
C125 O103 1.259 . S
C125 O104 1.254 . S
O126 Zn96 2.066 . S
O126 C98 1.256 . S
O127 C98 1.244 . S
O127 Zn99 2.053 . S
Zn128 O129 2.055 . S
Zn128 O136 2.046 . S
Zn128 N144 2.036 . S
Zn128 O156 2.053 . S
Zn128 O158 2.066 . S
O129 Zn128 2.055 . S
O129 C132 1.259 . S
C130 O158 1.256 . S
C130 O159 1.244 . S
Zn131 O133 2.046 . S
Zn131 O135 2.055 . S
Zn131 N137 2.036 . S
Zn131 O155 2.066 . S
Zn131 O159 2.053 . S
C132 O129 1.259 . S
C132 O133 1.254 . S
O133 Zn131 2.046 . S
O133 C132 1.254 . S
C134 O155 1.256 . S
C134 O156 1.244 . S
O135 Zn131 2.055 . S
O135 C157 1.259 . S
O136 Zn128 2.046 . S
O136 C157 1.254 . S
N137 Zn131 2.036 . S
N137 C138 1.298 . S
N137 N140 1.398 . S
C138 N137 1.298 . S
C138 N141 1.367 . S
C138 C151 1.481 . S
C139 N140 1.299 . S
C139 N141 1.379 . S
N140 N137 1.398 . S
N140 C139 1.299 . S
N141 C138 1.367 . S
N141 C139 1.379 . S
C142 N144 1.298 . S
C142 N146 1.367 . S
C142 C150 1.481 . S
C143 N145 1.299 . S
C143 N146 1.379 . S
N144 Zn128 2.036 . S
N144 C142 1.298 . S
N144 N145 1.398 . S
N145 C143 1.299 . S
N145 N144 1.398 . S
N146 C142 1.367 . S
N146 C143 1.379 . S
H147 C150 0.980 . S
H148 C150 0.981 . S
H149 C150 0.981 . S
C150 C142 1.481 . S
C150 H147 0.980 . S
C150 H148 0.981 . S
C150 H149 0.981 . S
C151 C138 1.481 . S
C151 H152 0.980 . S
C151 H153 0.981 . S
C151 H154 0.981 . S
H152 C151 0.980 . S
H153 C151 0.981 . S
H154 C151 0.981 . S
O155 Zn131 2.066 . S
O155 C134 1.256 . S
O156 Zn128 2.053 . S
O156 C134 1.244 . S
C157 O135 1.259 . S
C157 O136 1.254 . S
O158 Zn128 2.066 . S
O158 C130 1.256 . S
O159 C130 1.244 . S
O159 Zn131 2.053 . S
Zn160 O161 2.055 . S
Zn160 O168 2.046 . S
Zn160 N176 2.036 . S
Zn160 O188 2.053 . S
Zn160 O190 2.066 . S
O161 Zn160 2.055 . S
O161 C164 1.259 . S
C162 O190 1.256 . S
C162 O191 1.244 . S
Zn163 O165 2.046 . S
Zn163 O167 2.055 . S
Zn163 N169 2.036 . S
Zn163 O187 2.066 . S
Zn163 O191 2.053 . S
C164 O161 1.259 . S
C164 O165 1.254 . S
O165 Zn163 2.046 . S
O165 C164 1.254 . S
C166 O187 1.256 . S
C166 O188 1.244 . S
O167 Zn163 2.055 . S
O167 C189 1.259 . S
O168 Zn160 2.046 . S
O168 C189 1.254 . S
N169 Zn163 2.036 . S
N169 C170 1.298 . S
N169 N172 1.398 . S
C170 N169 1.298 . S
C170 N173 1.367 . S
C170 C183 1.481 . S
C171 N172 1.299 . S
C171 N173 1.379 . S
N172 N169 1.398 . S
N172 C171 1.299 . S
N173 C170 1.367 . S
N173 C171 1.379 . S
C174 N176 1.298 . S
C174 N178 1.367 . S
C174 C182 1.481 . S
C175 N177 1.299 . S
C175 N178 1.379 . S
N176 Zn160 2.036 . S
N176 C174 1.298 . S
N176 N177 1.398 . S
N177 C175 1.299 . S
N177 N176 1.398 . S
N178 C174 1.367 . S
N178 C175 1.379 . S
H179 C182 0.980 . S
H180 C182 0.981 . S
H181 C182 0.981 . S
C182 C174 1.481 . S
C182 H179 0.980 . S
C182 H180 0.981 . S
C182 H181 0.981 . S
C183 C170 1.481 . S
C183 H184 0.980 . S
C183 H185 0.981 . S
C183 H186 0.981 . S
H184 C183 0.980 . S
H185 C183 0.981 . S
H186 C183 0.981 . S
O187 Zn163 2.066 . S
O187 C166 1.256 . S
O188 Zn160 2.053 . S
O188 C166 1.244 . S
C189 O167 1.259 . S
C189 O168 1.254 . S
O190 Zn160 2.066 . S
O190 C162 1.256 . S
O191 C162 1.244 . S
O191 Zn163 2.053 . S
H192 C200 0.950 . S
H193 C205 0.950 . S
H194 C202 0.950 . S
H195 C204 0.950 . S
H196 C206 0.950 . S
H197 C208 0.950 . S
H198 C210 0.950 . S
H199 C211 0.950 . S
C200 H192 0.950 . S
C200 C201 1.386 . S
C200 C202 1.391 1_565 S
C201 C200 1.386 . S
C201 C205 1.393 . S
C202 H194 0.950 . S
C202 C200 1.391 1_545 S
C202 C203 1.400 1_545 S
C203 C202 1.400 1_565 S
C203 C204 1.398 . S
C203 C209 1.491 1_566 S
C204 H195 0.950 . S
C204 C203 1.398 . S
C204 C205 1.391 . S
C205 H193 0.950 . S
C205 C201 1.393 . S
C205 C204 1.391 . S
C206 H196 0.950 . S
C206 C207 1.386 . S
C206 C208 1.391 1_545 S
C207 C206 1.386 . S
C207 C211 1.393 . S
C208 H197 0.950 . S
C208 C206 1.391 1_565 S
C208 C209 1.400 1_565 S
C209 C203 1.491 1_544 S
C209 C208 1.400 1_545 S
C209 C210 1.398 . S
C210 H198 0.950 . S
C210 C209 1.398 . S
C210 C211 1.391 . S
C211 H199 0.950 . S
C211 C207 1.393 . S
C211 C210 1.391 . S
H212 C220 0.950 . S
H213 C225 0.950 . S
H214 C222 0.950 . S
H215 C224 0.950 . S
H216 C226 0.950 . S
H217 C228 0.950 . S
H218 C230 0.950 . S
H219 C231 0.950 . S
C220 H212 0.950 . S
C220 C221 1.386 . S
C220 C222 1.391 . S
C221 C220 1.386 . S
C221 C225 1.393 . S
C222 H214 0.950 . S
C222 C220 1.391 . S
C222 C223 1.400 . S
C223 C222 1.400 . S
C223 C224 1.398 . S
C223 C229 1.491 . S
C224 H215 0.950 . S
C224 C223 1.398 . S
C224 C225 1.391 . S
C225 H213 0.950 . S
C225 C221 1.393 . S
C225 C224 1.391 . S
C226 H216 0.950 . S
C226 C227 1.386 . S
C226 C228 1.391 . S
C227 C226 1.386 . S
C227 C231 1.393 . S
C228 H217 0.950 . S
C228 C226 1.391 . S
C228 C229 1.400 . S
C229 C223 1.491 . S
C229 C228 1.400 . S
C229 C230 1.398 . S
C230 H218 0.950 . S
C230 C229 1.398 . S
C230 C231 1.391 . S
C231 H219 0.950 . S
C231 C227 1.393 . S
C231 C230 1.391 . S
H232 C240 0.950 . S
H233 C245 0.950 . S
H234 C242 0.950 . S
H235 C244 0.939 1_556 S
H236 C246 0.950 . S
H237 C248 0.950 . S
H238 C250 0.939 1_554 S
H239 C251 0.950 . S
C240 H232 0.950 . S
C240 C241 1.386 . S
C240 C242 1.391 1_655 S
C241 C240 1.386 . S
C241 C245 1.393 . S
C242 H234 0.950 . S
C242 C240 1.391 1_455 S
C242 C243 1.400 1_455 S
C243 C242 1.400 1_655 S
C243 C244 1.398 . S
C243 C249 1.491 1_654 S
C244 H235 0.939 1_554 S
C244 C243 1.398 . S
C244 C245 1.391 . S
C245 H233 0.950 . S
C245 C241 1.393 . S
C245 C244 1.391 . S
C246 H236 0.950 . S
C246 C247 1.386 . S
C246 C248 1.391 1_455 S
C247 C246 1.386 . S
C247 C251 1.393 . S
C248 H237 0.950 . S
C248 C246 1.391 1_655 S
C248 C249 1.400 1_655 S
C249 C243 1.491 1_456 S
C249 C248 1.400 1_455 S
C249 C250 1.398 . S
C250 H238 0.939 1_556 S
C250 C249 1.398 . S
C250 C251 1.391 . S
C251 H239 0.950 . S
C251 C247 1.393 . S
C251 C250 1.391 . S
H252 C260 0.950 . S
H253 C265 0.950 . S
H254 C262 0.950 . S
H255 C264 0.950 1_565 S
H256 C266 0.950 . S
H257 C268 0.950 . S
H258 C270 0.950 1_545 S
H259 C271 0.950 . S
C260 H252 0.950 . S
C260 C261 1.386 . S
C260 C262 1.391 . S
C261 C260 1.386 . S
C261 C265 1.393 . S
C262 H254 0.950 . S
C262 C260 1.391 . S
C262 C263 1.400 . S
C263 C262 1.400 . S
C263 C264 1.398 . S
C263 C269 1.491 1_545 S
C264 H255 0.950 1_545 S
C264 C263 1.398 . S
C264 C265 1.391 . S
C265 H253 0.950 . S
C265 C261 1.393 . S
C265 C264 1.391 . S
C266 H256 0.950 . S
C266 C267 1.386 . S
C266 C268 1.391 . S
C267 C266 1.386 . S
C267 C271 1.393 . S
C268 H257 0.950 . S
C268 C266 1.391 . S
C268 C269 1.400 . S
C269 C263 1.491 1_565 S
C269 C268 1.400 . S
C269 C270 1.398 . S
C270 H258 0.950 1_565 S
C270 C269 1.398 . S
C270 C271 1.391 . S
C271 H259 0.950 . S
C271 C267 1.393 . S
C271 C270 1.391 . S
H272 C280 0.950 . S
H273 C285 0.950 . S
H274 C282 0.950 . S
H275 C284 0.950 . S
H276 C286 0.950 . S
H277 C288 0.950 . S
H278 C290 0.950 . S
H279 C291 0.950 . S
C280 H272 0.950 . S
C280 C281 1.386 . S
C280 C282 1.391 . S
C281 C280 1.386 . S
C281 C285 1.393 . S
C282 H274 0.950 . S
C282 C280 1.391 . S
C282 C283 1.400 . S
C283 C282 1.400 . S
C283 C284 1.398 . S
C283 C289 1.491 1_556 S
C284 H275 0.950 . S
C284 C283 1.398 . S
C284 C285 1.391 . S
C285 H273 0.950 . S
C285 C281 1.393 . S
C285 C284 1.391 . S
C286 H276 0.950 . S
C286 C287 1.386 . S
C286 C288 1.391 . S
C287 C286 1.386 . S
C287 C291 1.393 . S
C288 H277 0.950 . S
C288 C286 1.391 . S
C288 C289 1.400 . S
C289 C283 1.491 1_554 S
C289 C288 1.400 . S
C289 C290 1.398 . S
C290 H278 0.950 . S
C290 C289 1.398 . S
C290 C291 1.391 . S
C291 H279 0.950 . S
C291 C287 1.393 . S
C291 C290 1.391 . S
H292 C300 0.950 1_455 S
H293 C305 0.950 . S
H294 C302 0.950 . S
H295 C304 0.950 . S
H296 C306 0.950 1_655 S
H297 C308 0.950 . S
H298 C310 0.950 . S
H299 C311 0.950 . S
C300 H292 0.950 1_655 S
C300 C301 1.386 . S
C300 C302 1.391 1_655 S
C301 C300 1.386 . S
C301 C305 1.393 . S
C302 H294 0.950 . S
C302 C300 1.391 1_455 S
C302 C303 1.400 1_455 S
C303 C302 1.400 1_655 S
C303 C304 1.398 . S
C303 C309 1.491 1_655 S
C304 H295 0.950 . S
C304 C303 1.398 . S
C304 C305 1.391 . S
C305 H293 0.950 . S
C305 C301 1.393 . S
C305 C304 1.391 . S
C306 H296 0.950 1_455 S
C306 C307 1.386 . S
C306 C308 1.391 1_455 S
C307 C306 1.386 . S
C307 C311 1.393 . S
C308 H297 0.950 . S
C308 C306 1.391 1_655 S
C308 C309 1.400 1_655 S
C309 C303 1.491 1_455 S
C309 C308 1.400 1_455 S
C309 C310 1.398 . S
C310 H298 0.950 . S
C310 C309 1.398 . S
C310 C311 1.391 . S
C311 H299 0.950 . S
C311 C307 1.393 . S
C311 C310 1.391 . S
H312 C320 0.950 . S
H313 C325 0.950 . S
H314 C322 0.950 . S
H315 C324 0.950 . S
H316 C326 0.950 . S
H317 C328 0.950 . S
H318 C330 0.950 . S
H319 C331 0.950 . S
C320 H312 0.950 . S
C320 C321 1.386 . S
C320 C322 1.391 . S
C321 C320 1.386 . S
C321 C325 1.393 . S
C322 H314 0.950 . S
C322 C320 1.391 . S
C322 C323 1.400 . S
C323 C322 1.400 . S
C323 C324 1.398 . S
C323 C329 1.491 . S
C324 H315 0.950 . S
C324 C323 1.398 . S
C324 C325 1.391 . S
C325 H313 0.950 . S
C325 C321 1.393 . S
C325 C324 1.391 . S
C326 H316 0.950 . S
C326 C327 1.386 . S
C326 C328 1.391 . S
C327 C326 1.386 . S
C327 C331 1.393 . S
C328 H317 0.950 . S
C328 C326 1.391 . S
C328 C329 1.400 . S
C329 C323 1.491 . S
C329 C328 1.400 . S
C329 C330 1.398 . S
C330 H318 0.950 . S
C330 C329 1.398 . S
C330 C331 1.391 . S
C331 H319 0.950 . S
C331 C327 1.393 . S
C331 C330 1.391 . S
H332 C340 0.950 . S
H333 C345 0.950 . S
H334 C342 0.950 . S
H335 C344 0.950 . S
H336 C346 0.950 . S
H337 C348 0.950 . S
H338 C350 0.950 . S
H339 C351 0.950 . S
C340 H332 0.950 . S
C340 C341 1.386 . S
C340 C342 1.391 . S
C341 C340 1.386 . S
C341 C345 1.393 . S
C342 H334 0.950 . S
C342 C340 1.391 . S
C342 C343 1.400 . S
C343 C342 1.400 . S
C343 C344 1.398 . S
C343 C349 1.491 . S
C344 H335 0.950 . S
C344 C343 1.398 . S
C344 C345 1.391 . S
C345 H333 0.950 . S
C345 C341 1.393 . S
C345 C344 1.391 . S
C346 H336 0.950 . S
C346 C347 1.386 . S
C346 C348 1.391 . S
C347 C346 1.386 . S
C347 C351 1.393 . S
C348 H337 0.950 . S
C348 C346 1.391 . S
C348 C349 1.400 . S
C349 C343 1.491 . S
C349 C348 1.400 . S
C349 C350 1.398 . S
C350 H338 0.950 . S
C350 C349 1.398 . S
C350 C351 1.391 . S
C351 H339 0.950 . S
C351 C347 1.393 . S
C351 C350 1.391 . S
H352 C360 0.950 . S
H353 C365 0.950 . S
H354 C362 0.950 . S
H355 C364 0.950 . S
H356 C366 0.950 . S
H357 C368 0.950 . S
H358 C370 0.950 . S
H359 C371 0.950 . S
C360 H352 0.950 . S
C360 C361 1.386 . S
C360 C362 1.391 . S
C361 C360 1.386 . S
C361 C365 1.393 . S
C362 H354 0.950 . S
C362 C360 1.391 . S
C362 C363 1.400 . S
C363 C362 1.400 . S
C363 C364 1.398 . S
C363 C369 1.491 . S
C364 H355 0.950 . S
C364 C363 1.398 . S
C364 C365 1.391 . S
C365 H353 0.950 . S
C365 C361 1.393 . S
C365 C364 1.391 . S
C366 H356 0.950 . S
C366 C367 1.386 . S
C366 C368 1.391 . S
C367 C366 1.386 . S
C367 C371 1.393 . S
C368 H357 0.950 . S
C368 C366 1.391 . S
C368 C369 1.400 . S
C369 C363 1.491 . S
C369 C368 1.400 . S
C369 C370 1.398 . S
C370 H358 0.950 . S
C370 C369 1.398 . S
C370 C371 1.391 . S
C371 H359 0.950 . S
C371 C367 1.393 . S
C371 C370 1.391 . S
H372 C380 0.950 . S
H373 C385 0.950 . S
H374 C382 0.950 . S
H375 C384 0.950 . S
H376 C386 0.950 . S
H377 C388 0.950 . S
H378 C390 0.950 . S
H379 C391 0.950 . S
C380 H372 0.950 . S
C380 C381 1.386 . S
C380 C382 1.391 . S
C381 C380 1.386 . S
C381 C385 1.393 . S
C382 H374 0.950 . S
C382 C380 1.391 . S
C382 C383 1.400 . S
C383 C382 1.400 . S
C383 C384 1.398 . S
C383 C389 1.491 . S
C384 H375 0.950 . S
C384 C383 1.398 . S
C384 C385 1.391 . S
C385 H373 0.950 . S
C385 C381 1.393 . S
C385 C384 1.391 . S
C386 H376 0.950 . S
C386 C387 1.386 . S
C386 C388 1.391 . S
C387 C386 1.386 . S
C387 C391 1.393 . S
C388 H377 0.950 . S
C388 C386 1.391 . S
C388 C389 1.400 . S
C389 C383 1.491 . S
C389 C388 1.400 . S
C389 C390 1.398 . S
C390 H378 0.950 . S
C390 C389 1.398 . S
C390 C391 1.391 . S
C391 H379 0.950 . S
C391 C387 1.393 . S
C391 C390 1.391 . S
H392 C400 0.950 . S
H393 C405 0.950 . S
H394 C402 0.950 . S
H395 C404 0.950 . S
H396 C406 0.950 . S
H397 C408 0.950 . S
H398 C410 0.950 . S
H399 C411 0.950 . S
C400 H392 0.950 . S
C400 C401 1.386 . S
C400 C402 1.391 . S
C401 C400 1.386 . S
C401 C405 1.393 . S
C402 H394 0.950 . S
C402 C400 1.391 . S
C402 C403 1.400 . S
C403 C402 1.400 . S
C403 C404 1.398 . S
C403 C409 1.491 . S
C404 H395 0.950 . S
C404 C403 1.398 . S
C404 C405 1.391 . S
C405 H393 0.950 . S
C405 C401 1.393 . S
C405 C404 1.391 . S
C406 H396 0.950 . S
C406 C407 1.386 . S
C406 C408 1.391 . S
C407 C406 1.386 . S
C407 C411 1.393 . S
C408 H397 0.950 . S
C408 C406 1.391 . S
C408 C409 1.400 . S
C409 C403 1.491 . S
C409 C408 1.400 . S
C409 C410 1.398 . S
C410 H398 0.950 . S
C410 C409 1.398 . S
C410 C411 1.391 . S
C411 H399 0.950 . S
C411 C407 1.393 . S
C411 C410 1.391 . S
H412 C420 0.950 . S
H413 C425 0.950 . S
H414 C422 0.950 . S
H415 C424 0.950 . S
H416 C426 0.950 . S
H417 C428 0.950 . S
H418 C430 0.950 . S
H419 C431 0.950 . S
C420 H412 0.950 . S
C420 C421 1.386 . S
C420 C422 1.391 . S
C421 C420 1.386 . S
C421 C425 1.393 . S
C422 H414 0.950 . S
C422 C420 1.391 . S
C422 C423 1.400 . S
C423 C422 1.400 . S
C423 C424 1.398 . S
C423 C429 1.491 . S
C424 H415 0.950 . S
C424 C423 1.398 . S
C424 C425 1.391 . S
C425 H413 0.950 . S
C425 C421 1.393 . S
C425 C424 1.391 . S
C426 H416 0.950 . S
C426 C427 1.386 . S
C426 C428 1.391 . S
C427 C426 1.386 . S
C427 C431 1.393 . S
C428 H417 0.950 . S
C428 C426 1.391 . S
C428 C429 1.400 . S
C429 C423 1.491 . S
C429 C428 1.400 . S
C429 C430 1.398 . S
C430 H418 0.950 . S
C430 C429 1.398 . S
C430 C431 1.391 . S
C431 H419 0.950 . S
C431 C427 1.393 . S
C431 C430 1.391 . S
H432 C440 0.950 . S
H433 C445 0.950 . S
H434 C442 0.950 . S
H435 C444 0.950 . S
H436 C446 0.950 . S
H437 C448 0.950 . S
H438 C450 0.950 . S
H439 C451 0.950 1_655 S
C440 H432 0.950 . S
C440 C441 1.386 . S
C440 C442 1.391 . S
C441 C440 1.386 . S
C441 C445 1.393 . S
C442 H434 0.950 . S
C442 C440 1.391 . S
C442 C443 1.400 . S
C443 C442 1.400 . S
C443 C444 1.398 . S
C443 C449 1.491 . S
C444 H435 0.950 . S
C444 C443 1.398 . S
C444 C445 1.391 . S
C445 H433 0.950 . S
C445 C441 1.393 . S
C445 C444 1.391 . S
C446 H436 0.950 . S
C446 C447 1.386 . S
C446 C448 1.391 . S
C447 C446 1.386 . S
C447 C451 1.393 . S
C448 H437 0.950 . S
C448 C446 1.391 . S
C448 C449 1.400 . S
C449 C443 1.491 . S
C449 C448 1.400 . S
C449 C450 1.398 . S
C450 H438 0.950 . S
C450 C449 1.398 . S
C450 C451 1.391 . S
C451 H439 0.950 1_455 S
C451 C447 1.393 . S
C451 C450 1.391 . S
H452 C460 0.950 . S
H453 C465 0.950 . S
H454 C462 0.950 . S
H455 C464 0.952 1_455 S
H456 C466 0.950 1_545 S
H457 C468 0.950 . S
H458 C470 0.950 . S
H459 C471 0.950 . S
C460 H452 0.950 . S
C460 C461 1.386 . S
C460 C462 1.391 1_655 S
C461 C460 1.386 . S
C461 C465 1.393 . S
C462 H454 0.950 . S
C462 C460 1.391 1_455 S
C462 C463 1.400 . S
C463 C462 1.400 . S
C463 C464 1.387 1_455 S
C463 C469 1.491 . S
C464 H455 0.952 1_655 S
C464 C463 1.387 1_655 S
C464 C465 1.400 . S
C465 H453 0.950 . S
C465 C461 1.393 . S
C465 C464 1.400 . S
C466 H456 0.950 1_565 S
C466 C467 1.386 . S
C466 C468 1.391 . S
C467 C466 1.386 . S
C467 C471 1.393 . S
C468 H457 0.950 . S
C468 C466 1.391 . S
C468 C469 1.400 . S
C469 C463 1.491 . S
C469 C468 1.400 . S
C469 C470 1.398 . S
C470 H458 0.950 . S
C470 C469 1.398 . S
C470 C471 1.391 . S
C471 H459 0.950 . S
C471 C467 1.393 . S
C471 C470 1.391 . S
H472 C480 0.950 . S
H473 C485 0.950 . S
H474 C482 0.950 . S
H475 C484 0.950 . S
H476 C486 0.950 . S
H477 C488 0.950 . S
H478 C490 0.950 . S
H479 C491 0.950 . S
C480 H472 0.950 . S
C480 C481 1.386 . S
C480 C482 1.391 1_545 S
C481 C480 1.386 . S
C481 C485 1.393 . S
C482 H474 0.950 . S
C482 C480 1.391 1_565 S
C482 C483 1.400 . S
C483 C482 1.400 . S
C483 C484 1.398 . S
C483 C489 1.491 . S
C484 H475 0.950 . S
C484 C483 1.398 . S
C484 C485 1.391 1_565 S
C485 H473 0.950 . S
C485 C481 1.393 . S
C485 C484 1.391 1_545 S
C486 H476 0.950 . S
C486 C487 1.386 . S
C486 C488 1.391 . S
C487 C486 1.386 . S
C487 C491 1.393 . S
C488 H477 0.950 . S
C488 C486 1.391 . S
C488 C489 1.400 . S
C489 C483 1.491 . S
C489 C488 1.400 . S
C489 C490 1.398 . S
C490 H478 0.950 . S
C490 C489 1.398 . S
C490 C491 1.391 . S
C491 H479 0.950 . S
C491 C487 1.393 . S
C491 C490 1.391 . S
H492 C500 0.950 . S
H493 C505 0.950 . S
H494 C502 0.950 . S
H495 C504 0.950 . S
H496 C506 0.950 . S
H497 C508 0.950 . S
H498 C510 0.950 . S
H499 C511 0.950 1_565 S
C500 H492 0.950 . S
C500 C501 1.386 . S
C500 C502 1.391 . S
C501 C500 1.386 . S
C501 C505 1.393 . S
C502 H494 0.950 . S
C502 C500 1.391 . S
C502 C503 1.400 . S
C503 C502 1.400 . S
C503 C504 1.398 . S
C503 C509 1.491 . S
C504 H495 0.950 . S
C504 C503 1.398 . S
C504 C505 1.391 . S
C505 H493 0.950 . S
C505 C501 1.393 . S
C505 C504 1.391 . S
C506 H496 0.950 . S
C506 C507 1.386 . S
C506 C508 1.391 . S
C507 C506 1.386 . S
C507 C511 1.393 . S
C508 H497 0.950 . S
C508 C506 1.391 . S
C508 C509 1.400 . S
C509 C503 1.491 . S
C509 C508 1.400 . S
C509 C510 1.398 . S
C510 H498 0.950 . S
C510 C509 1.398 . S
C510 C511 1.391 . S
C511 H499 0.950 1_545 S
C511 C507 1.393 . S
C511 C510 1.391 . S
H512 C520 0.950 . S
H513 C525 0.950 . S
H514 C522 0.950 . S
H515 C524 0.950 . S
H516 C526 0.950 . S
H517 C528 0.950 . S
H518 C530 0.950 . S
H519 C531 0.950 . S
C520 H512 0.950 . S
C520 C521 1.386 . S
C520 C522 1.391 1_455 S
C521 C520 1.386 . S
C521 C525 1.393 . S
C522 H514 0.950 . S
C522 C520 1.391 1_655 S
C522 C523 1.400 . S
C523 C522 1.400 . S
C523 C524 1.398 . S
C523 C529 1.491 . S
C524 H515 0.950 . S
C524 C523 1.398 . S
C524 C525 1.391 1_655 S
C525 H513 0.950 . S
C525 C521 1.393 . S
C525 C524 1.391 1_455 S
C526 H516 0.950 . S
C526 C527 1.386 . S
C526 C528 1.391 . S
C527 C526 1.386 . S
C527 C531 1.393 . S
C528 H517 0.950 . S
C528 C526 1.391 . S
C528 C529 1.400 . S
C529 C523 1.491 . S
C529 C528 1.400 . S
C529 C530 1.398 . S
C530 H518 0.950 . S
C530 C529 1.398 . S
C530 C531 1.391 . S
C531 H519 0.950 . S
C531 C527 1.393 . S
C531 C530 1.391 . S
H532 C540 0.950 . S
H533 C545 0.950 1_455 S
H534 C542 0.950 . S
H535 C544 0.950 . S
H536 C546 0.950 . S
H537 C548 0.950 . S
H538 C550 0.950 . S
H539 C551 0.950 . S
C540 H532 0.950 . S
C540 C541 1.386 . S
C540 C542 1.391 . S
C541 C540 1.386 . S
C541 C545 1.393 . S
C542 H534 0.950 . S
C542 C540 1.391 . S
C542 C543 1.400 . S
C543 C542 1.400 . S
C543 C544 1.398 . S
C543 C549 1.491 . S
C544 H535 0.950 . S
C544 C543 1.398 . S
C544 C545 1.391 . S
C545 H533 0.950 1_655 S
C545 C541 1.393 . S
C545 C544 1.391 . S
C546 H536 0.950 . S
C546 C547 1.386 . S
C546 C548 1.391 1_565 S
C547 C546 1.386 . S
C547 C551 1.393 . S
C548 H537 0.950 . S
C548 C546 1.391 1_545 S
C548 C549 1.400 . S
C549 C543 1.491 . S
C549 C548 1.400 . S
C549 C550 1.398 . S
C550 H538 0.950 . S
C550 C549 1.398 . S
C550 C551 1.391 1_545 S
C551 H539 0.950 . S
C551 C547 1.393 . S
C551 C550 1.391 1_565 S
C201 N146 1.869 . S
C207 N13 1.882 . S
C221 N178 1.744 . S
C227 N45 1.731 . S
C241 N77 1.865 . S
C247 N114 1.881 . S
C261 N18 1.742 . S
C267 N141 1.734 . S
C281 N173 1.853 . S
C287 N50 1.862 . S
C301 N82 1.731 . S
C307 N109 1.744 . S
C321 C6 1.298 . S
C327 C93 1.315 . S
C341 C34 1.278 . S
C347 C29 1.304 . S
C361 C70 1.276 . S
C367 C36 1.300 . S
C381 C98 1.293 . S
C387 C132 1.311 . S
C401 C130 1.281 . S
C407 C189 1.302 . S
C421 C100 1.300 . S
C427 C166 1.273 . S
C441 C4 0.870 . S
C447 C66 0.859 1_455 S
C461 C61 0.876 . S
C467 C2 0.874 1_565 S
C481 C68 0.861 . S
C487 C38 0.847 . S
C501 C125 0.877 . S
C507 C134 0.869 1_545 S
C521 C157 0.861 . S
C527 C162 0.847 . S
C541 C102 0.854 1_655 S
C547 C164 0.864 . S
