# Generated by pormake.
# Topology xfw, (5)-cn, num edge types: 1
# Building blocks:
#     Node 0, Type 0, BuildingBlock: XOMCOT_clean_sbu_1, # of connection points: 5
#     Node 1, Type 0, BuildingBlock: XOMCOT_clean_sbu_1, # of connection points: 5
#     Node 2, Type 0, BuildingBlock: XOMCOT_clean_sbu_1, # of connection points: 5
#     Node 3, Type 0, BuildingBlock: XOMCOT_clean_sbu_1, # of connection points: 5
#     Node 4, Type 0, BuildingBlock: XOMCOT_clean_sbu_1, # of connection points: 5
#     Node 5, Type 0, BuildingBlock: XOMCOT_clean_sbu_1, # of connection points: 5
#     Node 6, Type 0, BuildingBlock: XOMCOT_clean_sbu_1, # of connection points: 5
#     Node 7, Type 0, BuildingBlock: XOMCOT_clean_sbu_1, # of connection points: 5
#     Edge 8, Type (0, 0), BuildingBlock: AJUNOK_clean_linker_0, # of connection points: 2
#     Edge 9, Type (0, 0), BuildingBlock: AJUNOK_clean_linker_0, # of connection points: 2
#     Edge 10, Type (0, 0), BuildingBlock: AJUNOK_clean_linker_0, # of connection points: 2
#     Edge 11, Type (0, 0), BuildingBlock: AJUNOK_clean_linker_0, # of connection points: 2
#     Edge 12, Type (0, 0), BuildingBlock: AJUNOK_clean_linker_0, # of connection points: 2
#     Edge 13, Type (0, 0), BuildingBlock: AJUNOK_clean_linker_0, # of connection points: 2
#     Edge 14, Type (0, 0), BuildingBlock: AJUNOK_clean_linker_0, # of connection points: 2
#     Edge 15, Type (0, 0), BuildingBlock: AJUNOK_clean_linker_0, # of connection points: 2
#     Edge 16, Type (0, 0), BuildingBlock: AJUNOK_clean_linker_0, # of connection points: 2
#     Edge 17, Type (0, 0), BuildingBlock: AJUNOK_clean_linker_0, # of connection points: 2
#     Edge 18, Type (0, 0), BuildingBlock: AJUNOK_clean_linker_0, # of connection points: 2
#     Edge 19, Type (0, 0), BuildingBlock: AJUNOK_clean_linker_0, # of connection points: 2
#     Edge 20, Type (0, 0), BuildingBlock: AJUNOK_clean_linker_0, # of connection points: 2
#     Edge 21, Type (0, 0), BuildingBlock: AJUNOK_clean_linker_0, # of connection points: 2
#     Edge 22, Type (0, 0), BuildingBlock: AJUNOK_clean_linker_0, # of connection points: 2
#     Edge 23, Type (0, 0), BuildingBlock: AJUNOK_clean_linker_0, # of connection points: 2
#     Edge 24, Type (0, 0), BuildingBlock: AJUNOK_clean_linker_0, # of connection points: 2
#     Edge 25, Type (0, 0), BuildingBlock: AJUNOK_clean_linker_0, # of connection points: 2
#     Edge 26, Type (0, 0), BuildingBlock: AJUNOK_clean_linker_0, # of connection points: 2
#     Edge 27, Type (0, 0), BuildingBlock: AJUNOK_clean_linker_0, # of connection points: 2
# Relax obj value: 0.609
# Max RMSD: 0.303
# Mean RMSD: 0.303
data_MOF--net-xfw--node1-XOMCOT_clean_sbu_1--edge1-AJUNOK_clean_linker_0
_symmetry_space_group_name_H-M    P1
_symmetry_Int_Tables_number       1
_symmetry_cell_setting            triclinic
loop_
_symmetry_equiv_pos_as_xyz
'x, y, z'
_cell_length_a     19.877454
_cell_length_b     19.813426
_cell_length_c     47.192904
_cell_angle_alpha  89.94048
_cell_angle_beta   89.826651
_cell_angle_gamma 89.488655
loop_
_atom_site_label
_atom_site_type_symbol
_atom_site_fract_x
_atom_site_fract_y
_atom_site_fract_z
_atom_type_partial_charge
C0 C 0.34902 1.00935 0.58523 0.0
C1 C 0.34863 0.96278 0.56378 0.0
N2 N 0.28515 0.95736 0.55427 0.0
N3 N 0.28588 0.03237 0.58987 0.0
C4 C 0.24786 0.99901 0.57084 0.0
H5 H 0.39342 0.0276 0.59573 0.0
Co6 Co 0.26549 0.10387 0.61425 0.0
C7 C 0.12642 0.08215 0.63713 0.0
O8 O 0.11877 0.1478 0.63955 0.0
N9 N 0.24847 0.17585 0.63905 0.0
C10 C 0.2407 0.27599 0.66015 0.0
C11 C 0.24947 0.24316 0.63458 0.0
C12 C 0.24008 0.16915 0.66734 0.0
N13 N 0.23403 0.22899 0.68055 0.0
O14 O 0.3195 0.06042 0.64295 0.0
H15 H 0.25777 0.26702 0.61429 0.0
H16 H 0.23935 0.12094 0.67814 0.0
O17 O 0.18219 0.05787 0.62736 0.0
C18 C 0.37592 0.08967 0.64665 0.0
O19 O 0.38464 0.14889 0.63469 0.0
N20 N 0.22015 0.1474 0.58419 0.0
C21 C 0.18018 0.19737 0.53134 0.0
C22 C 0.13455 0.16398 0.54902 0.0
C23 C 0.15569 0.13816 0.57499 0.0
C24 C 0.26494 0.18092 0.56752 0.0
C25 C 0.24632 0.20579 0.54092 0.0
H26 H 0.12073 0.1069 0.58607 0.0
H27 H 0.31663 0.18517 0.57436 0.0
H28 H 0.1946 1.00792 0.56796 0.0
H29 H 0.39227 0.93665 0.55531 0.0
H30 H 0.23976 0.33001 0.66354 0.0
H31 H 0.08306 0.15588 0.54249 0.0
H32 H 0.28414 0.22905 0.52768 0.0
C33 C 0.01333 0.66825 0.4013 0.0
C34 C 0.96779 0.66521 0.42312 0.0
N35 N 0.94625 0.72827 0.42871 0.0
N36 N 0.02106 0.73301 0.39319 0.0
C37 C 0.97855 0.76848 0.4101 0.0
H38 H 0.04322 0.62641 0.39345 0.0
Co39 Co 0.0909 0.75564 0.36869 0.0
C40 C 0.07494 0.89711 0.3508 0.0
O41 O 0.14052 0.90105 0.35366 0.0
N42 N 0.16193 0.77377 0.34327 0.0
C43 C 0.2595 0.77984 0.32016 0.0
C44 C 0.22946 0.76956 0.34616 0.0
C45 C 0.15251 0.78624 0.31535 0.0
N46 N 0.2108 0.79077 0.30092 0.0
O47 O 0.04738 0.70366 0.33986 0.0
H48 H 0.25577 0.75744 0.36547 0.0
H49 H 0.10338 0.78942 0.30557 0.0
O50 O 0.04523 0.84098 0.35637 0.0
C51 C 0.07574 0.64638 0.33573 0.0
O52 O 0.13585 0.63634 0.34657 0.0
N53 N 0.1337 0.79979 0.39924 0.0
C54 C 0.18625 0.84025 0.45116 0.0
C55 C 0.13616 0.87848 0.43799 0.0
C56 C 0.11015 0.85724 0.4122 0.0
C57 C 0.18096 0.76075 0.41249 0.0
C58 C 0.20924 0.78086 0.43822 0.0
H59 H 0.06843 0.88577 0.40389 0.0
H60 H 0.19514 0.71247 0.40351 0.0
H61 H 0.9753 0.82291 0.41057 0.0
H62 H 0.95634 0.62109 0.43575 0.0
H63 H 0.3129 0.77803 0.31563 0.0
H64 H 0.11657 0.92408 0.44778 0.0
H65 H 0.24717 0.7495 0.44827 0.0
C66 C 0.66388 0.98235 0.57091 0.0
C67 C 0.66848 0.03001 0.54996 0.0
N68 N 0.72748 0.06243 0.55275 0.0
N69 N 0.71959 0.9843 0.58693 0.0
C70 C 0.75692 0.03451 0.57586 0.0
H71 H 0.62435 0.94561 0.57331 0.0
Co72 Co 0.73615 0.91824 0.6136 0.0
C73 C 0.87451 0.93393 0.63446 0.0
O74 O 0.87727 0.86772 0.63437 0.0
N75 N 0.74898 0.85074 0.64125 0.0
C76 C 0.76374 0.75825 0.6674 0.0
C77 C 0.75378 0.78273 0.64032 0.0
C78 C 0.75474 0.86584 0.66904 0.0
N79 N 0.76414 0.81095 0.68545 0.0
O80 O 0.6786 0.96655 0.63938 0.0
H81 H 0.75171 0.75242 0.62137 0.0
H82 H 0.75293 0.91693 0.67708 0.0
O83 O 0.81933 0.9643 0.62744 0.0
C84 C 0.62079 0.93914 0.64085 0.0
O85 O 0.61252 0.88094 0.62803 0.0
N86 N 0.78605 0.87093 0.58565 0.0
C87 C 0.8358 0.81564 0.53533 0.0
C88 C 0.86951 0.86816 0.5487 0.0
C89 C 0.84303 0.89621 0.57332 0.0
C90 C 0.75162 0.82077 0.57241 0.0
C91 C 0.77586 0.79195 0.54723 0.0
H92 H 0.86646 0.94139 0.58091 0.0
H93 H 0.70331 0.80536 0.58067 0.0
H94 H 0.80568 0.0482 0.58396 0.0
H95 H 0.63326 0.03663 0.53271 0.0
H96 H 0.77222 0.70597 0.67304 0.0
H97 H 0.9143 0.88981 0.53934 0.0
H98 H 0.74752 0.75257 0.53692 0.0
C99 C 0.98765 0.36655 0.40748 0.0
C100 C 0.03587 0.36274 0.4281 0.0
N101 N 0.06097 0.2993 0.42866 0.0
N102 N 0.98154 0.30583 0.39509 0.0
C103 C 0.02734 0.26588 0.40816 0.0
H104 H 0.95537 0.40956 0.40322 0.0
Co105 Co 0.91098 0.28932 0.37073 0.0
C106 C 0.92721 0.15158 0.34708 0.0
O107 O 0.86141 0.14731 0.34817 0.0
N108 N 0.8388 0.27671 0.34568 0.0
C109 C 0.74146 0.26257 0.32319 0.0
C110 C 0.77164 0.27026 0.34936 0.0
C111 C 0.84769 0.27406 0.31735 0.0
N112 N 0.78977 0.26608 0.30325 0.0
O113 O 0.95403 0.34619 0.34327 0.0
H114 H 0.74602 0.27015 0.36956 0.0
H115 H 0.89651 0.27533 0.30714 0.0
O116 O 0.95568 0.20629 0.35545 0.0
C117 C 0.92528 0.40395 0.34168 0.0
O118 O 0.86873 0.41314 0.35571 0.0
N119 N 0.86914 0.24047 0.40005 0.0
C120 C 0.82629 0.19633 0.45335 0.0
C121 C 0.86848 0.15593 0.43654 0.0
C122 C 0.89094 0.17964 0.41048 0.0
C123 C 0.82665 0.27979 0.41581 0.0
C124 C 0.80423 0.25858 0.44247 0.0
H125 H 0.92958 0.15042 0.40017 0.0
H126 H 0.81306 0.32964 0.40827 0.0
H127 H 0.03291 0.21246 0.40401 0.0
H128 H 0.04657 0.40212 0.44325 0.0
H129 H 0.6885 0.25501 0.31913 0.0
H130 H 0.88584 0.10692 0.44377 0.0
H131 H 0.77196 0.29164 0.45485 0.0
C132 C 0.68776 0.08446 0.06457 0.0
C133 C 0.67641 0.03952 0.0431 0.0
N134 N 0.70647 0.98009 0.04962 0.0
N135 N 0.72531 0.05412 0.08458 0.0
C136 C 0.7342 0.99022 0.07544 0.0
H137 H 0.6736 0.13729 0.06475 0.0
Co138 Co 0.76268 0.10024 0.11468 0.0
C139 C 0.87848 0.98674 0.12391 0.0
O140 O 0.8609 0.92325 0.12604 0.0
N141 N 0.79915 0.14746 0.14497 0.0
C142 C 0.87146 0.19733 0.17381 0.0
C143 C 0.86414 0.16498 0.14827 0.0
C144 C 0.76805 0.1695 0.16875 0.0
N145 N 0.81085 0.20012 0.18657 0.0
O146 O 0.70155 0.05404 0.13939 0.0
H147 H 0.90402 0.15367 0.13332 0.0
H148 H 0.71527 0.16267 0.17331 0.0
O149 O 0.83285 0.03177 0.12026 0.0
C150 C 0.64376 0.08277 0.13883 0.0
O151 O 0.63867 0.1415 0.12598 0.0
N152 N 0.81687 0.14661 0.08903 0.0
C153 C 0.86764 0.21343 0.04197 0.0
C154 C 0.88234 0.14511 0.04638 0.0
C155 C 0.85624 0.11251 0.07 0.0
C156 C 0.80362 0.21373 0.08558 0.0
C157 C 0.82915 0.24853 0.06217 0.0
H158 H 0.863 0.05869 0.0716 0.0
H159 H 0.77001 0.23934 0.10018 0.0
H160 H 0.76241 0.95311 0.08725 0.0
H161 H 0.65274 0.0519 0.02312 0.0
H162 H 0.91817 0.21483 0.18282 0.0
H163 H 0.91177 0.11653 0.0311 0.0
H164 H 0.81632 0.3013 0.05918 0.0
C165 C 0.03783 0.38036 0.90886 0.0
C166 C 0.9963 0.38372 0.93203 0.0
N167 N 0.9784 0.32049 0.93889 0.0
N168 N 0.0455 0.31548 0.90069 0.0
C169 C 1.00764 0.28014 0.91922 0.0
H170 H 0.06384 0.4226 0.89956 0.0
Co171 Co 0.10873 0.29264 0.87308 0.0
C172 C 0.08448 0.15321 0.85198 0.0
O173 O 0.15028 0.14799 0.85043 0.0
N174 N 0.17358 0.27545 0.8448 0.0
C175 C 0.26678 0.2695 0.81862 0.0
C176 C 0.24148 0.27751 0.84564 0.0
C177 C 0.15907 0.26715 0.81703 0.0
N178 N 0.21468 0.2625 0.80077 0.0
O179 O 0.06076 0.35071 0.84693 0.0
H180 H 0.27119 0.28634 0.86433 0.0
H181 H 0.1083 0.26618 0.80881 0.0
O182 O 0.0574 0.20882 0.86108 0.0
C183 C 0.09014 0.4073 0.84321 0.0
O184 O 0.15148 0.41373 0.85312 0.0
N185 N 0.15703 0.24282 0.9008 0.0
C186 C 0.22227 0.18797 0.94786 0.0
C187 C 0.16941 0.1539 0.93506 0.0
C188 C 0.13668 0.18263 0.91205 0.0
C189 C 0.20681 0.2781 0.91387 0.0
C190 C 0.24065 0.25135 0.93741 0.0
H191 H 0.09259 0.15737 0.90482 0.0
H192 H 0.21903 0.32819 0.90644 0.0
H193 H 1.0049 0.22575 0.91959 0.0
H194 H 0.98266 0.42898 0.9436 0.0
H195 H 0.31931 0.26942 0.81251 0.0
H196 H 0.15174 0.1063 0.94349 0.0
H197 H 0.28021 0.27992 0.94742 0.0
C198 C 0.3807 0.98983 0.07569 0.0
C199 C 0.38376 0.03463 0.0535 0.0
N200 N 0.32057 0.05368 0.04715 0.0
N201 N 0.31577 0.98027 0.083 0.0
C202 C 0.28017 0.01986 0.06511 0.0
H203 H 0.423 0.96334 0.08497 0.0
Co204 Co 0.28838 0.91843 0.11016 0.0
C205 C 0.17018 1.00752 0.13211 0.0
O206 O 0.19933 0.03237 0.15471 0.0
N207 N 0.26283 0.85628 0.13775 0.0
C208 C 0.25398 0.76112 0.16233 0.0
C209 C 0.26753 0.78844 0.13611 0.0
C210 C 0.24657 0.86905 0.16502 0.0
N211 N 0.2407 0.81205 0.18043 0.0
O212 O 0.33795 0.96899 0.13783 0.0
H213 H 0.28312 0.76081 0.11742 0.0
H214 H 0.24428 0.91918 0.17397 0.0
O215 O 0.20322 0.96783 0.11582 0.0
C216 C 0.394 0.9389 0.14275 0.0
O217 O 0.40156 0.87694 0.13328 0.0
N218 N 0.24662 0.86701 0.08204 0.0
C219 C 0.19096 0.80192 0.03543 0.0
C220 C 0.15054 0.82178 0.05848 0.0
C221 C 0.17954 0.8531 0.08184 0.0
C222 C 0.28748 0.8439 0.06086 0.0
C223 C 0.26072 0.81108 0.03733 0.0
H224 H 0.14771 0.86722 0.09948 0.0
H225 H 0.34109 0.85232 0.06194 0.0
H226 H 0.22588 0.02091 0.06406 0.0
H227 H 0.42842 0.04948 0.04196 0.0
H228 H 0.25603 0.70813 0.16791 0.0
H229 H 0.09656 0.81489 0.05824 0.0
H230 H 0.29439 0.79358 0.02079 0.0
C231 C 0.96108 0.66441 0.91371 0.0
C232 C 1.00557 0.65457 0.93555 0.0
N233 N 0.044 0.70993 0.93776 0.0
N234 N 0.97121 0.72567 0.90211 0.0
C235 C 0.02265 0.75195 0.91698 0.0
H236 H 0.92137 0.63046 0.9077 0.0
Co237 Co 0.91431 0.76261 0.87483 0.0
C238 C 0.9882 0.87627 0.84842 0.0
O239 O 0.98386 0.84584 0.82379 0.0
N240 N 0.85588 0.79896 0.84723 0.0
C241 C 0.79725 0.87473 0.82236 0.0
C242 C 0.82657 0.86082 0.84809 0.0
C243 C 0.84235 0.77599 0.82088 0.0
N244 N 0.80711 0.82106 0.80542 0.0
O245 O 0.96474 0.71309 0.84675 0.0
H246 H 0.83009 0.89562 0.86564 0.0
H247 H 0.86208 0.72961 0.81209 0.0
O248 O 0.96893 0.84536 0.87081 0.0
C249 C 0.93795 0.6549 0.84426 0.0
O250 O 0.87824 0.64607 0.85566 0.0
N251 N 0.86414 0.80282 0.90382 0.0
C252 C 0.79704 0.83596 0.95368 0.0
C253 C 0.85894 0.86519 0.9471 0.0
C254 C 0.89198 0.84746 0.92228 0.0
C255 C 0.80267 0.77555 0.90928 0.0
C256 C 0.76758 0.79211 0.93414 0.0
H257 H 0.94172 0.86694 0.91898 0.0
H258 H 0.78223 0.73864 0.89487 0.0
H259 H 0.0405 0.80289 0.91411 0.0
H260 H 1.00719 0.61143 0.94963 0.0
H261 H 0.77333 0.92172 0.81612 0.0
H262 H 0.88262 0.90033 0.96148 0.0
H263 H 0.71945 0.76909 0.93853 0.0
C264 C 0.19803 0.89618 0.52765 0.0
C265 C 0.26317 0.92322 0.52901 0.0
C266 C 0.17392 0.86732 0.50257 0.0
C267 C 0.21454 0.86368 0.47819 0.0
H268 H 0.16521 0.89826 0.54598 0.0
H269 H 0.12283 0.84888 0.50204 0.0
S270 S 0.38631 0.93091 0.46965 0.0
N271 N 0.36613 0.94771 0.50288 0.0
N272 N 0.32117 0.891 0.45629 0.0
C273 C 0.27965 0.8897 0.47922 0.0
C274 C 0.30397 0.92002 0.50452 0.0
C275 C 0.82438 0.79373 0.48326 0.0
C276 C 0.86248 0.78883 0.50831 0.0
C277 C 0.8521 0.77449 0.45701 0.0
C278 C 0.91816 0.74927 0.45528 0.0
H279 H 0.77363 0.81408 0.48391 0.0
H280 H 0.82203 0.77918 0.438 0.0
S281 S 0.03763 0.72521 0.51454 0.0
N282 N 0.96898 0.75622 0.52965 0.0
N283 N 0.02056 0.71977 0.48039 0.0
C284 C 0.95624 0.74353 0.48014 0.0
C285 C 0.92847 0.7634 0.50667 0.0
C286 C 0.71306 0.14523 0.51421 0.0
C287 C 0.75615 0.10657 0.53161 0.0
C288 C 0.73673 0.17711 0.48971 0.0
C289 C 0.80475 0.17242 0.48179 0.0
H290 H 0.65977 0.14831 0.51886 0.0
H291 H 0.7007 0.20252 0.47612 0.0
S292 S 0.94145 0.08887 0.52269 0.0
N293 N 0.87221 0.07208 0.54065 0.0
N294 N 0.91719 0.13584 0.49563 0.0
C295 C 0.84972 0.13948 0.50035 0.0
C296 C 0.82541 0.10581 0.52507 0.0
C297 C 0.1156 0.1807 0.48636 0.0
C298 C 0.15818 0.22123 0.50289 0.0
C299 C 0.08705 0.20493 0.4612 0.0
C300 C 0.10055 0.27047 0.45133 0.0
H301 H 0.10247 0.13038 0.49334 0.0
H302 H 0.05144 0.17321 0.45031 0.0
S303 S 0.21634 0.39327 0.48438 0.0
N304 N 0.21645 0.32835 0.50632 0.0
N305 N 0.16633 0.37207 0.45805 0.0
C306 C 0.14714 0.3095 0.46645 0.0
C307 C 0.1752 0.28534 0.4924 0.0
C308 C 0.70137 0.88509 0.9812 0.0
C309 C 0.76459 0.85331 0.98091 0.0
C310 C 0.67918 0.92043 0.00521 0.0
C311 C 0.7201 0.92646 0.0295 0.0
H312 H 0.67138 0.88737 0.96208 0.0
H313 H 0.6317 0.94737 0.00391 0.0
S314 S 0.88242 0.83525 0.04115 0.0
N315 N 0.861 0.81626 0.00839 0.0
N316 N 0.82163 0.88482 0.05315 0.0
C317 C 0.77978 0.88725 0.03048 0.0
C318 C 0.80152 0.85032 0.00618 0.0
C319 C 0.87537 0.21747 0.98926 0.0
C320 C 0.89063 0.24637 0.01566 0.0
C321 C 0.90254 0.24336 0.96413 0.0
C322 C 0.94584 0.29897 0.96458 0.0
H323 H 0.84316 0.17373 0.9881 0.0
H324 H 0.89055 0.21914 0.94424 0.0
S325 S 1.00218 0.39157 0.02858 0.0
N326 N 0.9511 0.3332 0.04094 0.0
N327 N 1.00334 0.38156 -0.00615 0.0
C328 C 0.9603 0.32918 0.99088 0.0
C329 C 0.9323 0.30294 0.01641 0.0
C330 C 0.25114 0.18848 -0.00058 0.0
C331 C 0.25514 0.15711 0.97273 0.0
C332 C 0.27302 0.15453 0.02392 0.0
C333 C 0.30015 0.08902 0.02217 0.0
H334 H 0.22863 0.23824 0.00148 0.0
H335 H 0.26818 0.17903 0.04433 0.0
S336 S 0.32438 0.98682 0.95741 0.0
N337 N 0.29003 0.058 0.94602 0.0
N338 N 0.33178 0.99496 0.99209 0.0
C339 C 0.30612 0.05815 -0.00437 0.0
C340 C 0.28345 0.0921 0.97086 0.0
C341 C 0.0699 0.70533 0.98882 0.0
C342 C 0.08662 0.72696 0.9613 0.0
C343 C 0.10572 0.72763 0.01244 0.0
C344 C 0.15947 0.77293 0.00961 0.0
H345 H 0.02708 0.673 0.99232 0.0
H346 H 0.09012 0.71023 0.03319 0.0
S347 S 0.22733 0.83911 0.94167 0.0
N348 N 0.16426 0.79063 0.93218 0.0
N349 N 0.23 0.83557 0.97661 0.0
C350 C 0.17856 0.7927 0.98203 0.0
C351 C 0.14237 0.7692 0.95792 0.0
C352 C 0.49754 0.94348 0.65103 0.0
C353 C 0.56025 0.9763 0.65114 0.0
C354 C 0.43693 0.97988 0.653 0.0
C355 C 0.43676 0.05061 0.65506 0.0
H356 H 0.49481 0.88962 0.64735 0.0
H357 H 0.39026 0.95285 0.65028 0.0
S358 S 0.58694 0.15884 0.66366 0.0
N359 N 0.61822 0.08219 0.65893 0.0
N360 N 0.50437 0.15068 0.66289 0.0
C361 C 0.49897 0.08303 0.65883 0.0
C362 C 0.56077 0.0459 0.65677 0.0
C363 C 0.06843 0.52254 0.3269 0.0
C364 C 0.03602 0.58619 0.32772 0.0
C365 C 0.03183 0.4625 0.32853 0.0
C366 C 0.96139 0.46393 0.33088 0.0
H367 H 0.12283 0.51886 0.3273 0.0
H368 H 0.05935 0.41526 0.33035 0.0
S369 S 0.85156 0.61613 0.32628 0.0
N370 N 0.92878 0.64606 0.32555 0.0
N371 N 0.85995 0.53327 0.3281 0.0
C372 C 0.92808 0.52664 0.328 0.0
C373 C 0.96538 0.58784 0.32649 0.0
C374 C 0.51871 0.08179 0.14499 0.0
C375 C 0.581 0.0474 0.14725 0.0
C376 C 0.45737 0.04739 0.14633 0.0
C377 C 0.45575 0.97707 0.15005 0.0
H378 H 0.51712 0.13536 0.14041 0.0
H379 H 0.4114 0.07551 0.1423 0.0
S380 S 0.60378 0.86505 0.16267 0.0
N381 N 0.6365 0.94031 0.15738 0.0
N382 N 0.5215 0.87569 0.16039 0.0
C383 C 0.51731 0.94311 0.1552 0.0
C384 C 0.57985 0.97818 0.15368 0.0
C385 C 0.08435 0.53292 0.83746 0.0
C386 C 0.05199 0.46983 0.83561 0.0
C387 C 0.04775 0.59385 0.83755 0.0
C388 C 0.9773 0.59418 0.83559 0.0
H389 H 0.13815 0.53544 0.84081 0.0
H390 H 0.07451 0.64036 0.84133 0.0
S391 S 0.86954 0.44448 0.82396 0.0
N392 N 0.94619 0.41274 0.82729 0.0
N393 N 0.87751 0.52705 0.82689 0.0
C394 C 0.94505 0.53214 0.83066 0.0
C395 C 0.9823 0.47003 0.83079 0.0
C396 C 1.0042 0.06942 0.64923 0.0
C397 C 0.06463 0.04039 0.63876 0.0
C398 C 0.94263 0.03532 0.64771 0.0
C399 C 0.93923 0.97041 0.63608 0.0
H400 H 1.00399 0.1197 0.65821 0.0
H401 H 0.89756 0.05983 0.65577 0.0
S402 S 0.08166 0.87218 0.60488 0.0
N403 N 0.11613 0.94283 0.61592 0.0
N404 N 1.0012 0.87866 0.61321 0.0
C405 C 0.99925 0.94036 0.62581 0.0
C406 C 0.06174 0.97521 0.6272 0.0
C407 C 0.06888 0.02296 0.35306 0.0
C408 C 0.03704 0.96129 0.34684 0.0
C409 C 0.03426 0.08474 0.35162 0.0
C410 C 0.96632 0.08769 0.34368 0.0
H411 H 0.12065 0.02367 0.36014 0.0
H412 H 0.06039 0.13009 0.35785 0.0
S413 S 0.86215 0.94164 0.32159 0.0
N414 N 0.93543 0.90762 0.33017 0.0
N415 N 0.87017 0.0236 0.32669 0.0
C416 C 0.93485 0.02669 0.33584 0.0
C417 C 0.9701 0.96359 0.33769 0.0
C418 C 0.05319 0.0263 0.15203 0.0
C419 C 0.09536 1.01361 0.12845 0.0
C420 C 0.98255 0.02132 0.15006 0.0
C421 C 0.95122 1.00367 0.12445 0.0
H422 H 0.07493 0.03694 0.17254 0.0
H423 H 0.95243 0.02856 0.169 0.0
S424 S 0.03687 0.97273 0.05575 0.0
N425 N 0.09865 0.98953 0.07789 0.0
N426 N 0.96708 0.97709 0.07474 0.0
C427 C 0.99223 0.99364 0.10052 0.0
C428 C 0.06388 0.99959 0.10236 0.0
C429 C 0.05068 0.97468 0.82815 0.0
C430 C 1.00778 0.94909 0.84926 0.0
C431 C 0.07051 0.04254 0.82807 0.0
C432 C 0.04733 0.08871 0.8487 0.0
H433 H 0.07095 0.94147 0.81196 0.0
H434 H 0.1066 0.0585 0.81223 0.0
S435 S 0.92743 0.05018 0.90671 0.0
N436 N 0.93779 0.97757 0.89003 0.0
N437 N 0.9748 0.10502 0.88965 0.0
C438 C 1.00134 0.06507 0.86901 0.0
C439 C 0.98185 0.99536 0.86939 0.0
C440 C 0.26653 0.28613 0.72476 0.0
C441 C 0.22609 0.23937 0.71052 0.0
C442 C 0.26281 0.29322 0.75431 0.0
C443 C 0.2176 0.25473 0.77049 0.0
H444 H 0.30245 0.31605 0.71303 0.0
H445 H 0.29516 0.32933 0.7646 0.0
S446 S 0.09917 0.12701 0.74307 0.0
N447 N 0.13843 0.1552 0.71457 0.0
N448 N 0.1311 0.16883 0.77006 0.0
C449 C 0.17598 0.20875 0.7564 0.0
C450 C 0.18039 0.20094 0.72642 0.0
C451 C 0.27126 0.76133 0.22644 0.0
C452 C 0.23207 0.80726 0.21066 0.0
C453 C 0.26498 0.75716 0.25599 0.0
C454 C 0.21858 0.79803 0.27075 0.0
H455 H 0.30772 0.72907 0.21589 0.0
H456 H 0.29576 0.72086 0.26734 0.0
S457 S 0.10417 0.92643 0.23931 0.0
N458 N 0.14539 0.89444 0.21192 0.0
N459 N 0.13342 0.88646 0.2675 0.0
C460 C 0.17903 0.84411 0.25523 0.0
C461 C 0.18593 0.84886 0.22519 0.0
C462 C 0.81483 0.87092 0.75785 0.0
C463 C 0.79509 0.81762 0.77549 0.0
C464 C 0.80571 0.8676 0.7285 0.0
C465 C 0.77544 0.81126 0.71567 0.0
H466 H 0.83874 0.91489 0.76681 0.0
H467 H 0.82322 0.90941 0.71578 0.0
S468 S 0.71254 0.65964 0.75331 0.0
N469 N 0.74395 0.7073 0.77864 0.0
N470 N 0.72395 0.70173 0.72347 0.0
C471 C 0.75522 0.75765 0.73327 0.0
C472 C 0.76566 0.76073 0.76317 0.0
C473 C 0.75132 0.20053 0.26214 0.0
C474 C 0.78437 0.257 0.27319 0.0
C475 C 0.75743 0.18379 0.23334 0.0
C476 C 0.7969 0.22303 0.21488 0.0
H477 H 0.72408 0.16708 0.27614 0.0
H478 H 0.7343 0.13795 0.2258 0.0
S479 S 0.88328 0.3822 0.23271 0.0
N480 N 0.85051 0.35657 0.26303 0.0
N481 N 0.8619 0.32522 0.20893 0.0
C482 C 0.82615 0.28204 0.22537 0.0
C483 C 0.81986 0.29903 0.25455 0.0
loop_
_geom_bond_atom_site_label_1
_geom_bond_atom_site_label_2
_geom_bond_distance
_geom_bond_site_symmetry_2
_ccdc_geom_bond_type
C0 C1 1.351 . S
C0 N3 1.368 . S
C0 H5 0.931 . S
C1 C0 1.351 . S
C1 N2 1.373 1_545 S
C1 H29 0.930 . S
N2 C1 1.373 1_565 S
N2 C4 1.340 . S
N3 C0 1.368 . S
N3 C4 1.321 1_545 S
N3 Co6 2.135 . S
C4 N2 1.340 . S
C4 N3 1.321 1_565 S
C4 H28 0.930 . S
H5 C0 0.931 . S
Co6 N3 2.135 . S
Co6 N9 2.121 . S
Co6 O14 2.055 . S
Co6 O17 2.039 . S
Co6 N20 2.140 . S
C7 O8 1.227 . S
C7 O17 1.265 . S
O8 C7 1.227 . S
N9 Co6 2.121 . S
N9 C11 1.375 . S
N9 C12 1.313 . S
C10 C11 1.338 . S
C10 N13 1.377 . S
C10 H30 0.930 . S
C11 N9 1.375 . S
C11 C10 1.338 . S
C11 H15 0.931 . S
C12 N9 1.313 . S
C12 N13 1.344 . S
C12 H16 0.930 . S
N13 C10 1.377 . S
N13 C12 1.344 . S
O14 Co6 2.055 . S
O14 C18 1.253 . S
H15 C11 0.931 . S
H16 C12 0.930 . S
O17 Co6 2.039 . S
O17 C7 1.265 . S
C18 O14 1.253 . S
C18 O19 1.227 . S
O19 C18 1.227 . S
N20 Co6 2.140 . S
N20 C23 1.346 . S
N20 C24 1.345 . S
C21 C22 1.387 . S
C21 C25 1.391 . S
C22 C21 1.387 . S
C22 C23 1.369 . S
C22 H31 0.929 . S
C23 N20 1.346 . S
C23 C22 1.369 . S
C23 H26 0.928 . S
C24 N20 1.345 . S
C24 C25 1.371 . S
C24 H27 0.931 . S
C25 C21 1.391 . S
C25 C24 1.371 . S
C25 H32 0.930 . S
H26 C23 0.928 . S
H27 C24 0.931 . S
H28 C4 0.930 . S
H29 C1 0.930 . S
H30 C10 0.930 . S
H31 C22 0.929 . S
H32 C25 0.930 . S
C33 C34 1.351 . S
C33 N36 1.368 . S
C33 H38 0.931 . S
C34 C33 1.351 . S
C34 N35 1.373 1_455 S
C34 H62 0.930 . S
N35 C34 1.373 1_655 S
N35 C37 1.340 . S
N36 C33 1.368 . S
N36 C37 1.321 1_455 S
N36 Co39 2.135 . S
C37 N35 1.340 . S
C37 N36 1.321 1_655 S
C37 H61 0.930 . S
H38 C33 0.931 . S
Co39 N36 2.135 . S
Co39 N42 2.121 . S
Co39 O47 2.055 . S
Co39 O50 2.039 . S
Co39 N53 2.140 . S
C40 O41 1.227 . S
C40 O50 1.265 . S
O41 C40 1.227 . S
N42 Co39 2.121 . S
N42 C44 1.375 . S
N42 C45 1.313 . S
C43 C44 1.338 . S
C43 N46 1.377 . S
C43 H63 0.930 . S
C44 N42 1.375 . S
C44 C43 1.338 . S
C44 H48 0.931 . S
C45 N42 1.313 . S
C45 N46 1.344 . S
C45 H49 0.930 . S
N46 C43 1.377 . S
N46 C45 1.344 . S
O47 Co39 2.055 . S
O47 C51 1.253 . S
H48 C44 0.931 . S
H49 C45 0.930 . S
O50 Co39 2.039 . S
O50 C40 1.265 . S
C51 O47 1.253 . S
C51 O52 1.227 . S
O52 C51 1.227 . S
N53 Co39 2.140 . S
N53 C56 1.346 . S
N53 C57 1.345 . S
C54 C55 1.387 . S
C54 C58 1.391 . S
C55 C54 1.387 . S
C55 C56 1.369 . S
C55 H64 0.929 . S
C56 N53 1.346 . S
C56 C55 1.369 . S
C56 H59 0.928 . S
C57 N53 1.345 . S
C57 C58 1.371 . S
C57 H60 0.931 . S
C58 C54 1.391 . S
C58 C57 1.371 . S
C58 H65 0.930 . S
H59 C56 0.928 . S
H60 C57 0.931 . S
H61 C37 0.930 . S
H62 C34 0.930 . S
H63 C43 0.930 . S
H64 C55 0.929 . S
H65 C58 0.930 . S
C66 C67 1.351 . S
C66 N69 1.368 . S
C66 H71 0.931 . S
C67 C66 1.351 . S
C67 N68 1.373 1_565 S
C67 H95 0.930 . S
N68 C67 1.373 1_545 S
N68 C70 1.340 . S
N69 C66 1.368 . S
N69 C70 1.321 1_565 S
N69 Co72 2.135 . S
C70 N68 1.340 . S
C70 N69 1.321 1_545 S
C70 H94 0.930 . S
H71 C66 0.931 . S
Co72 N69 2.135 . S
Co72 N75 2.121 . S
Co72 O80 2.055 . S
Co72 O83 2.039 . S
Co72 N86 2.140 . S
C73 O74 1.227 . S
C73 O83 1.265 . S
O74 C73 1.227 . S
N75 Co72 2.121 . S
N75 C77 1.375 . S
N75 C78 1.313 . S
C76 C77 1.338 . S
C76 N79 1.377 . S
C76 H96 0.930 . S
C77 N75 1.375 . S
C77 C76 1.338 . S
C77 H81 0.931 . S
C78 N75 1.313 . S
C78 N79 1.344 . S
C78 H82 0.930 . S
N79 C76 1.377 . S
N79 C78 1.344 . S
O80 Co72 2.055 . S
O80 C84 1.253 . S
H81 C77 0.931 . S
H82 C78 0.930 . S
O83 Co72 2.039 . S
O83 C73 1.265 . S
C84 O80 1.253 . S
C84 O85 1.227 . S
O85 C84 1.227 . S
N86 Co72 2.140 . S
N86 C89 1.346 . S
N86 C90 1.345 . S
C87 C88 1.387 . S
C87 C91 1.391 . S
C88 C87 1.387 . S
C88 C89 1.369 . S
C88 H97 0.929 . S
C89 N86 1.346 . S
C89 C88 1.369 . S
C89 H92 0.928 . S
C90 N86 1.345 . S
C90 C91 1.371 . S
C90 H93 0.931 . S
C91 C87 1.391 . S
C91 C90 1.371 . S
C91 H98 0.930 . S
H92 C89 0.928 . S
H93 C90 0.931 . S
H94 C70 0.930 . S
H95 C67 0.930 . S
H96 C76 0.930 . S
H97 C88 0.929 . S
H98 C91 0.930 . S
C99 C100 1.351 . S
C99 N102 1.368 . S
C99 H104 0.931 . S
C100 C99 1.351 . S
C100 N101 1.373 1_655 S
C100 H128 0.930 . S
N101 C100 1.373 1_455 S
N101 C103 1.340 . S
N102 C99 1.368 . S
N102 C103 1.321 1_655 S
N102 Co105 2.135 . S
C103 N101 1.340 . S
C103 N102 1.321 1_455 S
C103 H127 0.930 . S
H104 C99 0.931 . S
Co105 N102 2.135 . S
Co105 N108 2.121 . S
Co105 O113 2.055 . S
Co105 O116 2.039 . S
Co105 N119 2.140 . S
C106 O107 1.227 . S
C106 O116 1.265 . S
O107 C106 1.227 . S
N108 Co105 2.121 . S
N108 C110 1.375 . S
N108 C111 1.313 . S
C109 C110 1.338 . S
C109 N112 1.377 . S
C109 H129 0.930 . S
C110 N108 1.375 . S
C110 C109 1.338 . S
C110 H114 0.931 . S
C111 N108 1.313 . S
C111 N112 1.344 . S
C111 H115 0.930 . S
N112 C109 1.377 . S
N112 C111 1.344 . S
O113 Co105 2.055 . S
O113 C117 1.253 . S
H114 C110 0.931 . S
H115 C111 0.930 . S
O116 Co105 2.039 . S
O116 C106 1.265 . S
C117 O113 1.253 . S
C117 O118 1.227 . S
O118 C117 1.227 . S
N119 Co105 2.140 . S
N119 C122 1.346 . S
N119 C123 1.345 . S
C120 C121 1.387 . S
C120 C124 1.391 . S
C121 C120 1.387 . S
C121 C122 1.369 . S
C121 H130 0.929 . S
C122 N119 1.346 . S
C122 C121 1.369 . S
C122 H125 0.928 . S
C123 N119 1.345 . S
C123 C124 1.371 . S
C123 H126 0.931 . S
C124 C120 1.391 . S
C124 C123 1.371 . S
C124 H131 0.930 . S
H125 C122 0.928 . S
H126 C123 0.931 . S
H127 C103 0.930 . S
H128 C100 0.930 . S
H129 C109 0.930 . S
H130 C121 0.929 . S
H131 C124 0.930 . S
C132 C133 1.351 . S
C132 N135 1.368 . S
C132 H137 0.931 . S
C133 C132 1.351 . S
C133 N134 1.373 1_545 S
C133 H161 0.930 . S
N134 C133 1.373 1_565 S
N134 C136 1.340 . S
N135 C132 1.368 . S
N135 C136 1.321 1_545 S
N135 Co138 2.135 . S
C136 N134 1.340 . S
C136 N135 1.321 1_565 S
C136 H160 0.930 . S
H137 C132 0.931 . S
Co138 N135 2.135 . S
Co138 N141 2.121 . S
Co138 O146 2.055 . S
Co138 O149 2.039 . S
Co138 N152 2.140 . S
C139 O140 1.227 . S
C139 O149 1.265 . S
O140 C139 1.227 . S
N141 Co138 2.121 . S
N141 C143 1.375 . S
N141 C144 1.313 . S
C142 C143 1.338 . S
C142 N145 1.377 . S
C142 H162 0.930 . S
C143 N141 1.375 . S
C143 C142 1.338 . S
C143 H147 0.931 . S
C144 N141 1.313 . S
C144 N145 1.344 . S
C144 H148 0.930 . S
N145 C142 1.377 . S
N145 C144 1.344 . S
O146 Co138 2.055 . S
O146 C150 1.253 . S
H147 C143 0.931 . S
H148 C144 0.930 . S
O149 Co138 2.039 . S
O149 C139 1.265 . S
C150 O146 1.253 . S
C150 O151 1.227 . S
O151 C150 1.227 . S
N152 Co138 2.140 . S
N152 C155 1.346 . S
N152 C156 1.345 . S
C153 C154 1.387 . S
C153 C157 1.391 . S
C154 C153 1.387 . S
C154 C155 1.369 . S
C154 H163 0.929 . S
C155 N152 1.346 . S
C155 C154 1.369 . S
C155 H158 0.928 . S
C156 N152 1.345 . S
C156 C157 1.371 . S
C156 H159 0.931 . S
C157 C153 1.391 . S
C157 C156 1.371 . S
C157 H164 0.930 . S
H158 C155 0.928 . S
H159 C156 0.931 . S
H160 C136 0.930 . S
H161 C133 0.930 . S
H162 C142 0.930 . S
H163 C154 0.929 . S
H164 C157 0.930 . S
C165 C166 1.351 . S
C165 N168 1.368 . S
C165 H170 0.931 . S
C166 C165 1.351 . S
C166 N167 1.373 1_455 S
C166 H194 0.930 . S
N167 C166 1.373 1_655 S
N167 C169 1.340 . S
N168 C165 1.368 . S
N168 C169 1.321 1_455 S
N168 Co171 2.135 . S
C169 N167 1.340 . S
C169 N168 1.321 1_655 S
C169 H193 0.930 . S
H170 C165 0.931 . S
Co171 N168 2.135 . S
Co171 N174 2.121 . S
Co171 O179 2.055 . S
Co171 O182 2.039 . S
Co171 N185 2.140 . S
C172 O173 1.227 . S
C172 O182 1.265 . S
O173 C172 1.227 . S
N174 Co171 2.121 . S
N174 C176 1.375 . S
N174 C177 1.313 . S
C175 C176 1.338 . S
C175 N178 1.377 . S
C175 H195 0.930 . S
C176 N174 1.375 . S
C176 C175 1.338 . S
C176 H180 0.931 . S
C177 N174 1.313 . S
C177 N178 1.344 . S
C177 H181 0.930 . S
N178 C175 1.377 . S
N178 C177 1.344 . S
O179 Co171 2.055 . S
O179 C183 1.253 . S
H180 C176 0.931 . S
H181 C177 0.930 . S
O182 Co171 2.039 . S
O182 C172 1.265 . S
C183 O179 1.253 . S
C183 O184 1.227 . S
O184 C183 1.227 . S
N185 Co171 2.140 . S
N185 C188 1.346 . S
N185 C189 1.345 . S
C186 C187 1.387 . S
C186 C190 1.391 . S
C187 C186 1.387 . S
C187 C188 1.369 . S
C187 H196 0.929 . S
C188 N185 1.346 . S
C188 C187 1.369 . S
C188 H191 0.928 . S
C189 N185 1.345 . S
C189 C190 1.371 . S
C189 H192 0.931 . S
C190 C186 1.391 . S
C190 C189 1.371 . S
C190 H197 0.930 . S
H191 C188 0.928 . S
H192 C189 0.931 . S
H193 C169 0.930 . S
H194 C166 0.930 . S
H195 C175 0.930 . S
H196 C187 0.929 . S
H197 C190 0.930 . S
C198 C199 1.351 . S
C198 N201 1.368 . S
C198 H203 0.931 . S
C199 C198 1.351 . S
C199 N200 1.373 1_565 S
C199 H227 0.930 . S
N200 C199 1.373 1_545 S
N200 C202 1.340 . S
N201 C198 1.368 . S
N201 C202 1.321 1_565 S
N201 Co204 2.135 . S
C202 N200 1.340 . S
C202 N201 1.321 1_545 S
C202 H226 0.930 . S
H203 C198 0.931 . S
Co204 N201 2.135 . S
Co204 N207 2.121 . S
Co204 O212 2.055 . S
Co204 O215 2.039 . S
Co204 N218 2.140 . S
C205 O206 1.227 . S
C205 O215 1.265 . S
O206 C205 1.227 . S
N207 Co204 2.121 . S
N207 C209 1.375 . S
N207 C210 1.313 . S
C208 C209 1.338 . S
C208 N211 1.377 . S
C208 H228 0.930 . S
C209 N207 1.375 . S
C209 C208 1.338 . S
C209 H213 0.931 . S
C210 N207 1.313 . S
C210 N211 1.344 . S
C210 H214 0.930 . S
N211 C208 1.377 . S
N211 C210 1.344 . S
O212 Co204 2.055 . S
O212 C216 1.253 . S
H213 C209 0.931 . S
H214 C210 0.930 . S
O215 Co204 2.039 . S
O215 C205 1.265 . S
C216 O212 1.253 . S
C216 O217 1.227 . S
O217 C216 1.227 . S
N218 Co204 2.140 . S
N218 C221 1.346 . S
N218 C222 1.345 . S
C219 C220 1.387 . S
C219 C223 1.391 . S
C220 C219 1.387 . S
C220 C221 1.369 . S
C220 H229 0.929 . S
C221 N218 1.346 . S
C221 C220 1.369 . S
C221 H224 0.928 . S
C222 N218 1.345 . S
C222 C223 1.371 . S
C222 H225 0.931 . S
C223 C219 1.391 . S
C223 C222 1.371 . S
C223 H230 0.930 . S
H224 C221 0.928 . S
H225 C222 0.931 . S
H226 C202 0.930 . S
H227 C199 0.930 . S
H228 C208 0.930 . S
H229 C220 0.929 . S
H230 C223 0.930 . S
C231 C232 1.351 . S
C231 N234 1.368 . S
C231 H236 0.931 . S
C232 C231 1.351 . S
C232 N233 1.373 1_655 S
C232 H260 0.930 . S
N233 C232 1.373 1_455 S
N233 C235 1.340 . S
N234 C231 1.368 . S
N234 C235 1.321 1_655 S
N234 Co237 2.135 . S
C235 N233 1.340 . S
C235 N234 1.321 1_455 S
C235 H259 0.930 . S
H236 C231 0.931 . S
Co237 N234 2.135 . S
Co237 N240 2.121 . S
Co237 O245 2.055 . S
Co237 O248 2.039 . S
Co237 N251 2.140 . S
C238 O239 1.227 . S
C238 O248 1.265 . S
O239 C238 1.227 . S
N240 Co237 2.121 . S
N240 C242 1.375 . S
N240 C243 1.313 . S
C241 C242 1.338 . S
C241 N244 1.377 . S
C241 H261 0.930 . S
C242 N240 1.375 . S
C242 C241 1.338 . S
C242 H246 0.931 . S
C243 N240 1.313 . S
C243 N244 1.344 . S
C243 H247 0.930 . S
N244 C241 1.377 . S
N244 C243 1.344 . S
O245 Co237 2.055 . S
O245 C249 1.253 . S
H246 C242 0.931 . S
H247 C243 0.930 . S
O248 Co237 2.039 . S
O248 C238 1.265 . S
C249 O245 1.253 . S
C249 O250 1.227 . S
O250 C249 1.227 . S
N251 Co237 2.140 . S
N251 C254 1.346 . S
N251 C255 1.345 . S
C252 C253 1.387 . S
C252 C256 1.391 . S
C253 C252 1.387 . S
C253 C254 1.369 . S
C253 H262 0.929 . S
C254 N251 1.346 . S
C254 C253 1.369 . S
C254 H257 0.928 . S
C255 N251 1.345 . S
C255 C256 1.371 . S
C255 H258 0.931 . S
C256 C252 1.391 . S
C256 C255 1.371 . S
C256 H263 0.930 . S
H257 C254 0.928 . S
H258 C255 0.931 . S
H259 C235 0.930 . S
H260 C232 0.930 . S
H261 C241 0.930 . S
H262 C253 0.929 . S
H263 C256 0.930 . S
C264 C265 1.369 . S
C264 C266 1.419 . S
C264 H268 0.930 . S
C265 C264 1.369 . S
C265 C274 1.429 . S
C266 C264 1.419 . S
C266 C267 1.363 . S
C266 H269 0.929 . S
C267 C266 1.363 . S
C267 C273 1.428 . S
H268 C264 0.930 . S
H269 C266 0.929 . S
S270 N271 1.613 . S
S270 N272 1.610 1_545 S
N271 S270 1.613 . S
N271 C274 1.350 1_545 S
N272 S270 1.610 1_565 S
N272 C273 1.351 . S
C273 C267 1.428 . S
C273 N272 1.351 . S
C273 C274 1.434 . S
C274 C265 1.429 . S
C274 N271 1.350 1_565 S
C274 C273 1.434 . S
C275 C276 1.369 . S
C275 C277 1.419 . S
C275 H279 0.930 . S
C276 C275 1.369 . S
C276 C285 1.429 . S
C277 C275 1.419 . S
C277 C278 1.363 . S
C277 H280 0.929 . S
C278 C277 1.363 . S
C278 C284 1.428 . S
H279 C275 0.930 . S
H280 C277 0.929 . S
S281 N282 1.613 1_455 S
S281 N283 1.610 . S
N282 S281 1.613 1_655 S
N282 C285 1.350 . S
N283 S281 1.610 . S
N283 C284 1.351 1_455 S
C284 C278 1.428 . S
C284 N283 1.351 1_655 S
C284 C285 1.434 . S
C285 C276 1.429 . S
C285 N282 1.350 . S
C285 C284 1.434 . S
C286 C287 1.369 . S
C286 C288 1.419 . S
C286 H290 0.930 . S
C287 C286 1.369 . S
C287 C296 1.429 . S
C288 C286 1.419 . S
C288 C289 1.363 . S
C288 H291 0.929 . S
C289 C288 1.363 . S
C289 C295 1.428 . S
H290 C286 0.930 . S
H291 C288 0.929 . S
S292 N293 1.613 . S
S292 N294 1.610 . S
N293 S292 1.613 . S
N293 C296 1.350 . S
N294 S292 1.610 . S
N294 C295 1.351 . S
C295 C289 1.428 . S
C295 N294 1.351 . S
C295 C296 1.434 . S
C296 C287 1.429 . S
C296 N293 1.350 . S
C296 C295 1.434 . S
C297 C298 1.369 . S
C297 C299 1.419 . S
C297 H301 0.930 . S
C298 C297 1.369 . S
C298 C307 1.429 . S
C299 C297 1.419 . S
C299 C300 1.363 . S
C299 H302 0.929 . S
C300 C299 1.363 . S
C300 C306 1.428 . S
H301 C297 0.930 . S
H302 C299 0.929 . S
S303 N304 1.613 . S
S303 N305 1.610 . S
N304 S303 1.613 . S
N304 C307 1.350 . S
N305 S303 1.610 . S
N305 C306 1.351 . S
C306 C300 1.428 . S
C306 N305 1.351 . S
C306 C307 1.434 . S
C307 C298 1.429 . S
C307 N304 1.350 . S
C307 C306 1.434 . S
C308 C309 1.369 . S
C308 C310 1.419 . S
C308 H312 0.930 . S
C309 C308 1.369 . S
C309 C318 1.429 . S
C310 C308 1.419 . S
C310 C311 1.363 1_556 S
C310 H313 0.929 1_556 S
C311 C310 1.363 1_554 S
C311 C317 1.428 . S
H312 C308 0.930 . S
H313 C310 0.929 1_554 S
S314 N315 1.613 . S
S314 N316 1.610 1_556 S
N315 S314 1.613 . S
N315 C318 1.350 . S
N316 S314 1.610 1_554 S
N316 C317 1.351 . S
C317 C311 1.428 . S
C317 N316 1.351 . S
C317 C318 1.434 1_554 S
C318 C309 1.429 . S
C318 N315 1.350 . S
C318 C317 1.434 1_556 S
C319 C320 1.369 . S
C319 C321 1.419 1_554 S
C319 H323 0.930 1_554 S
C320 C319 1.369 . S
C320 C329 1.429 . S
C321 C319 1.419 1_556 S
C321 C322 1.363 . S
C321 H324 0.929 . S
C322 C321 1.363 . S
C322 C328 1.428 1_556 S
H323 C319 0.930 1_556 S
H324 C321 0.929 . S
S325 N326 1.613 . S
S325 N327 1.610 1_655 S
N326 S325 1.613 . S
N326 C329 1.350 . S
N327 S325 1.610 1_455 S
N327 C328 1.351 1_455 S
C328 C322 1.428 1_554 S
C328 N327 1.351 1_655 S
C328 C329 1.434 . S
C329 C320 1.429 . S
C329 N326 1.350 . S
C329 C328 1.434 . S
C330 C331 1.369 . S
C330 C332 1.419 1_556 S
C330 H334 0.930 . S
C331 C330 1.369 . S
C331 C340 1.429 . S
C332 C330 1.419 1_554 S
C332 C333 1.363 . S
C332 H335 0.929 . S
C333 C332 1.363 . S
C333 C339 1.428 1_554 S
H334 C330 0.930 . S
H335 C332 0.929 . S
S336 N337 1.613 . S
S336 N338 1.610 . S
N337 S336 1.613 . S
N337 C340 1.350 . S
N338 S336 1.610 . S
N338 C339 1.351 . S
C339 C333 1.428 1_556 S
C339 N338 1.351 . S
C339 C340 1.434 . S
C340 C331 1.429 . S
C340 N337 1.350 . S
C340 C339 1.434 . S
C341 C342 1.369 . S
C341 C343 1.419 1_556 S
C341 H345 0.930 . S
C342 C341 1.369 . S
C342 C351 1.429 1_556 S
C343 C341 1.419 1_554 S
C343 C344 1.363 . S
C343 H346 0.929 . S
C344 C343 1.363 . S
C344 C350 1.428 . S
H345 C341 0.930 . S
H346 C343 0.929 . S
S347 N348 1.613 . S
S347 N349 1.610 . S
N348 S347 1.613 . S
N348 C351 1.350 . S
N349 S347 1.610 . S
N349 C350 1.351 . S
C350 C344 1.428 . S
C350 N349 1.351 . S
C350 C351 1.434 . S
C351 C342 1.429 1_554 S
C351 N348 1.350 . S
C351 C350 1.434 . S
C352 C353 1.369 . S
C352 C354 1.419 . S
C352 H356 0.930 . S
C353 C352 1.369 . S
C353 C362 1.429 1_565 S
C354 C352 1.419 . S
C354 C355 1.363 1_565 S
C354 H357 0.929 . S
C355 C354 1.363 1_545 S
C355 C361 1.428 . S
H356 C352 0.930 . S
H357 C354 0.929 . S
S358 N359 1.613 . S
S358 N360 1.610 . S
N359 S358 1.613 . S
N359 C362 1.350 . S
N360 S358 1.610 . S
N360 C361 1.351 . S
C361 C355 1.428 . S
C361 N360 1.351 . S
C361 C362 1.434 . S
C362 C353 1.429 1_545 S
C362 N359 1.350 . S
C362 C361 1.434 . S
C363 C364 1.369 . S
C363 C365 1.419 . S
C363 H367 0.930 . S
C364 C363 1.369 . S
C364 C373 1.429 1_455 S
C365 C363 1.419 . S
C365 C366 1.363 1_455 S
C365 H368 0.929 . S
C366 C365 1.363 1_655 S
C366 C372 1.428 . S
H367 C363 0.930 . S
H368 C365 0.929 . S
S369 N370 1.613 . S
S369 N371 1.610 . S
N370 S369 1.613 . S
N370 C373 1.350 . S
N371 S369 1.610 . S
N371 C372 1.351 . S
C372 C366 1.428 . S
C372 N371 1.351 . S
C372 C373 1.434 . S
C373 C364 1.429 1_655 S
C373 N370 1.350 . S
C373 C372 1.434 . S
C374 C375 1.369 . S
C374 C376 1.419 1_545 S
C374 H378 0.930 . S
C375 C374 1.369 . S
C375 C384 1.429 . S
C376 C374 1.419 1_565 S
C376 C377 1.363 . S
C376 H379 0.929 . S
C377 C376 1.363 . S
C377 C383 1.428 . S
H378 C374 0.930 . S
H379 C376 0.929 . S
S380 N381 1.613 1_565 S
S380 N382 1.610 . S
N381 S380 1.613 1_545 S
N381 C384 1.350 . S
N382 S380 1.610 . S
N382 C383 1.351 . S
C383 C377 1.428 . S
C383 N382 1.351 . S
C383 C384 1.434 1_565 S
C384 C375 1.429 . S
C384 N381 1.350 . S
C384 C383 1.434 1_545 S
C385 C386 1.369 . S
C385 C387 1.419 1_455 S
C385 H389 0.930 . S
C386 C385 1.369 . S
C386 C395 1.429 . S
C387 C385 1.419 1_655 S
C387 C388 1.363 . S
C387 H390 0.929 . S
C388 C387 1.363 . S
C388 C394 1.428 . S
H389 C385 0.930 . S
H390 C387 0.929 . S
S391 N392 1.613 . S
S391 N393 1.610 . S
N392 S391 1.613 . S
N392 C395 1.350 1_655 S
N393 S391 1.610 . S
N393 C394 1.351 . S
C394 C388 1.428 . S
C394 N393 1.351 . S
C394 C395 1.434 1_655 S
C395 C386 1.429 . S
C395 N392 1.350 1_455 S
C395 C394 1.434 1_455 S
C396 C397 1.371 . S
C396 C398 1.417 1_445 S
C396 H400 0.930 . S
C397 C396 1.371 . S
C397 C406 1.429 . S
C398 C396 1.417 1_665 S
C398 C399 1.363 . S
C398 H401 0.929 . S
C399 C398 1.363 . S
C399 C405 1.428 1_565 S
H400 C396 0.930 . S
H401 C398 0.929 . S
S402 N403 1.613 1_655 S
S402 N404 1.610 . S
N403 S402 1.613 1_455 S
N403 C406 1.350 . S
N404 S402 1.610 . S
N404 C405 1.351 . S
C405 C399 1.428 1_545 S
C405 N404 1.351 . S
C405 C406 1.435 1_655 S
C406 C397 1.429 . S
C406 N403 1.350 . S
C406 C405 1.435 1_455 S
C407 C408 1.369 . S
C407 C409 1.419 1_465 S
C407 H411 0.930 . S
C408 C407 1.369 . S
C408 C417 1.429 . S
C409 C407 1.419 1_645 S
C409 C410 1.363 . S
C409 H412 0.929 . S
C410 C409 1.363 . S
C410 C416 1.428 . S
H411 C407 0.930 . S
H412 C409 0.929 . S
S413 N414 1.609 1_545 S
S413 N415 1.615 1_455 S
N414 S413 1.609 1_565 S
N414 C417 1.350 . S
N415 S413 1.615 1_655 S
N415 C416 1.351 . S
C416 C410 1.428 . S
C416 N415 1.351 . S
C416 C417 1.434 1_645 S
C417 C408 1.429 . S
C417 N414 1.350 . S
C417 C416 1.434 1_465 S
C418 C419 1.369 . S
C418 C420 1.419 1_455 S
C418 H422 0.930 . S
C419 C418 1.369 . S
C419 C428 1.429 1_565 S
C420 C418 1.419 1_655 S
C420 C421 1.363 1_565 S
C420 H423 0.929 . S
C421 C420 1.363 1_545 S
C421 C427 1.428 . S
H422 C418 0.930 . S
H423 C420 0.929 . S
S424 N425 1.613 . S
S424 N426 1.610 1_455 S
N425 S424 1.613 . S
N425 C428 1.350 . S
N426 S424 1.610 1_655 S
N426 C427 1.351 . S
C427 C421 1.428 . S
C427 N426 1.351 . S
C427 C428 1.434 1_655 S
C428 C419 1.429 1_545 S
C428 N425 1.350 . S
C428 C427 1.434 1_455 S
C429 C430 1.369 1_455 S
C429 C431 1.419 1_565 S
C429 H433 0.930 . S
C430 C429 1.369 1_655 S
C430 C439 1.429 . S
C431 C429 1.419 1_545 S
C431 C432 1.363 . S
C431 H434 0.929 . S
C432 C431 1.363 . S
C432 C438 1.428 1_455 S
H433 C429 0.930 . S
H434 C431 0.929 . S
S435 N436 1.613 1_545 S
S435 N437 1.610 . S
N436 S435 1.613 1_565 S
N436 C439 1.350 . S
N437 S435 1.610 . S
N437 C438 1.351 . S
C438 C432 1.428 1_655 S
C438 N437 1.351 . S
C438 C439 1.434 1_545 S
C439 C430 1.429 . S
C439 N436 1.350 . S
C439 C438 1.434 1_565 S
C440 C441 1.369 . S
C440 C442 1.419 . S
C440 H444 0.930 . S
C441 C440 1.369 . S
C441 C450 1.429 . S
C442 C440 1.419 . S
C442 C443 1.363 . S
C442 H445 0.929 . S
C443 C442 1.363 . S
C443 C449 1.428 . S
H444 C440 0.930 . S
H445 C442 0.929 . S
S446 N447 1.613 . S
S446 N448 1.610 . S
N447 S446 1.613 . S
N447 C450 1.350 . S
N448 S446 1.610 . S
N448 C449 1.351 . S
C449 C443 1.428 . S
C449 N448 1.351 . S
C449 C450 1.434 . S
C450 C441 1.429 . S
C450 N447 1.350 . S
C450 C449 1.434 . S
C451 C452 1.369 . S
C451 C453 1.419 . S
C451 H455 0.930 . S
C452 C451 1.369 . S
C452 C461 1.429 . S
C453 C451 1.419 . S
C453 C454 1.363 . S
C453 H456 0.929 . S
C454 C453 1.363 . S
C454 C460 1.428 . S
H455 C451 0.930 . S
H456 C453 0.929 . S
S457 N458 1.613 . S
S457 N459 1.610 . S
N458 S457 1.613 . S
N458 C461 1.350 . S
N459 S457 1.610 . S
N459 C460 1.351 . S
C460 C454 1.428 . S
C460 N459 1.351 . S
C460 C461 1.434 . S
C461 C452 1.429 . S
C461 N458 1.350 . S
C461 C460 1.434 . S
C462 C463 1.369 . S
C462 C464 1.419 . S
C462 H466 0.930 . S
C463 C462 1.369 . S
C463 C472 1.429 . S
C464 C462 1.419 . S
C464 C465 1.363 . S
C464 H467 0.929 . S
C465 C464 1.363 . S
C465 C471 1.428 . S
H466 C462 0.930 . S
H467 C464 0.929 . S
S468 N469 1.613 . S
S468 N470 1.610 . S
N469 S468 1.613 . S
N469 C472 1.350 . S
N470 S468 1.610 . S
N470 C471 1.351 . S
C471 C465 1.428 . S
C471 N470 1.351 . S
C471 C472 1.434 . S
C472 C463 1.429 . S
C472 N469 1.350 . S
C472 C471 1.434 . S
C473 C474 1.369 . S
C473 C475 1.419 . S
C473 H477 0.930 . S
C474 C473 1.369 . S
C474 C483 1.429 . S
C475 C473 1.419 . S
C475 C476 1.363 . S
C475 H478 0.929 . S
C476 C475 1.363 . S
C476 C482 1.428 . S
H477 C473 0.930 . S
H478 C475 0.929 . S
S479 N480 1.613 . S
S479 N481 1.610 . S
N480 S479 1.613 . S
N480 C483 1.350 . S
N481 S479 1.610 . S
N481 C482 1.351 . S
C482 C476 1.428 . S
C482 N481 1.351 . S
C482 C483 1.434 . S
C483 C474 1.429 . S
C483 N480 1.350 . S
C483 C482 1.434 . S
C265 N2 1.312 . S
C267 C54 1.138 . S
C276 C87 1.133 . S
C278 N35 1.314 . S
C287 N68 1.320 . S
C289 C120 1.129 . S
C298 C21 1.144 . S
C300 N101 1.309 . S
C309 C252 1.132 . S
C311 N134 1.316 . S
C320 C153 1.135 . S
C322 N167 1.314 . S
C331 C186 1.126 . S
C333 N200 1.319 . S
C342 N233 1.320 . S
C344 C219 1.129 . S
C353 C84 1.612 . S
C355 C18 1.619 . S
C364 C51 1.612 . S
C366 C117 1.617 . S
C375 C150 1.615 . S
C377 C216 1.619 . S
C386 C183 1.611 . S
C388 C249 1.617 . S
C397 C7 1.234 . S
C399 C73 1.238 . S
C408 C40 1.243 . S
C410 C106 1.245 . S
C419 C205 1.244 . S
C421 C139 1.236 . S
C430 C238 1.236 . S
C432 C172 1.244 . S
C441 N13 1.673 . S
C443 N178 1.674 . S
C452 N211 1.670 . S
C454 N46 1.672 . S
C463 N244 1.679 . S
C465 N79 1.677 . S
C474 N112 1.678 . S
C476 N145 1.675 . S
