# Generated by pormake.
# Topology rob, (6)-cn, num edge types: 1
# Building blocks:
#     Node 0, Type 0, BuildingBlock: INOVEN_clean_sbu_0, # of connection points: 6
#     Node 1, Type 0, BuildingBlock: INOVEN_clean_sbu_0, # of connection points: 6
#     Node 2, Type 0, BuildingBlock: INOVEN_clean_sbu_0, # of connection points: 6
#     Node 3, Type 0, BuildingBlock: INOVEN_clean_sbu_0, # of connection points: 6
#     Edge 4, Type (0, 0), BuildingBlock: EZIPEK_clean_linker_0, # of connection points: 2
#     Edge 5, Type (0, 0), BuildingBlock: EZIPEK_clean_linker_0, # of connection points: 2
#     Edge 6, Type (0, 0), BuildingBlock: EZIPEK_clean_linker_0, # of connection points: 2
#     Edge 7, Type (0, 0), BuildingBlock: EZIPEK_clean_linker_0, # of connection points: 2
#     Edge 8, Type (0, 0), BuildingBlock: EZIPEK_clean_linker_0, # of connection points: 2
#     Edge 9, Type (0, 0), BuildingBlock: EZIPEK_clean_linker_0, # of connection points: 2
#     Edge 10, Type (0, 0), BuildingBlock: EZIPEK_clean_linker_0, # of connection points: 2
#     Edge 11, Type (0, 0), BuildingBlock: EZIPEK_clean_linker_0, # of connection points: 2
#     Edge 12, Type (0, 0), BuildingBlock: EZIPEK_clean_linker_0, # of connection points: 2
#     Edge 13, Type (0, 0), BuildingBlock: EZIPEK_clean_linker_0, # of connection points: 2
#     Edge 14, Type (0, 0), BuildingBlock: EZIPEK_clean_linker_0, # of connection points: 2
#     Edge 15, Type (0, 0), BuildingBlock: EZIPEK_clean_linker_0, # of connection points: 2
# Relax obj value: 0.212
# Max RMSD: 0.236
# Mean RMSD: 0.236
data_MOF--net-rob--node1-INOVEN_clean_sbu_0--edge1-EZIPEK_clean_linker_0
_symmetry_space_group_name_H-M    P1
_symmetry_Int_Tables_number       1
_symmetry_cell_setting            triclinic
loop_
_symmetry_equiv_pos_as_xyz
'x, y, z'
_cell_length_a     13.801858
_cell_length_b     15.472503
_cell_length_c     29.194739
_cell_angle_alpha  90.0996
_cell_angle_beta   130.98999
_cell_angle_gamma 90.055971
loop_
_atom_site_label
_atom_site_type_symbol
_atom_site_fract_x
_atom_site_fract_y
_atom_site_fract_z
_atom_type_partial_charge
Gd0 Gd 0.17633 0.32001 0.99275 0.0
Gd1 Gd 0.38648 0.20717 0.01508 0.0
C2 C 0.43402 0.2667 0.13152 0.0
C3 C 1.01151 0.37483 1.00067 0.0
C4 C 1.00878 0.37397 0.05063 0.0
C5 C 0.06989 0.43979 0.09482 0.0
C6 C 0.95016 0.30535 0.05627 0.0
C7 C 1.01434 0.36858 0.14904 0.0
C8 C 0.95392 0.30231 0.10532 0.0
C9 C 0.07255 0.43705 0.1434 0.0
C10 C 0.34341 0.40531 0.99035 0.0
C11 C 0.12684 0.2596 0.876 0.0
C12 C 0.55089 0.15385 0.00655 0.0
C13 C 0.54922 0.15271 0.95522 0.0
C14 C 0.48337 0.08739 0.91071 0.0
C15 C 0.60799 0.21979 0.94851 0.0
C16 C 0.53406 0.15654 0.85389 0.0
C17 C 0.59956 0.22206 0.8981 0.0
C18 C 0.47636 0.08919 0.86078 0.0
C19 C 0.22063 0.1221 0.0182 0.0
O20 O 0.31519 0.29634 0.0937 0.0
O21 O 0.49214 0.23552 0.11289 0.0
O22 O 0.09742 0.42505 0.0081 0.0
O23 O 1.00105 0.2997 0.97693 0.0
O24 O 0.22527 0.42931 0.95994 0.0
O25 O 0.37071 0.34504 0.02624 0.0
O26 O 0.2438 0.22674 0.91354 0.0
O27 O 0.07087 0.29431 0.89479 0.0
O28 O 0.47035 0.10201 1.00248 0.0
O29 O 0.55774 0.23026 0.02795 0.0
O30 O 0.33901 0.09843 0.0488 0.0
O31 O 0.19271 0.18196 0.9819 0.0
H32 H 0.11789 0.49287 0.09265 0.0
H33 H 0.90295 0.25331 0.02328 0.0
H34 H 0.90929 0.24848 0.1091 0.0
H35 H 0.12269 0.48754 0.17744 0.0
H36 H 0.43525 0.03544 0.91374 0.0
H37 H 0.65881 0.27137 0.98174 0.0
H38 H 0.64469 0.27474 0.89368 0.0
H39 H 0.42356 0.03878 0.82679 0.0
Gd40 Gd 0.67533 0.81982 0.99278 0.0
Gd41 Gd 0.88766 0.70928 0.01532 0.0
C42 C 0.93646 0.77027 0.1318 0.0
C43 C 0.51123 0.87261 1.00167 0.0
C44 C 0.51267 0.87316 0.05294 0.0
C45 C 0.57957 0.93771 0.098 0.0
C46 C 0.45226 0.80645 0.05892 0.0
C47 C 0.52665 0.86855 0.15391 0.0
C48 C 0.45989 0.80388 0.10911 0.0
C49 C 0.58615 0.93546 0.1478 0.0
C50 C 0.83833 0.90677 0.98848 0.0
C51 C 0.62682 0.75925 0.87635 0.0
C52 C 0.05221 0.65515 0.00694 0.0
C53 C 0.05411 0.65528 0.95666 0.0
C54 C 0.99602 0.58777 0.91371 0.0
C55 C 0.10949 0.72466 0.94965 0.0
C56 C 0.04613 0.65968 0.85748 0.0
C57 C 0.10474 0.7271 0.90029 0.0
C58 C 0.99271 0.58978 0.86487 0.0
C59 C 0.72454 0.62285 0.02003 0.0
O60 O 0.81736 0.79943 0.09413 0.0
O61 O 0.99402 0.73862 0.11301 0.0
O62 O 0.59228 0.92446 0.00617 0.0
O63 O 0.50383 0.79652 0.97975 0.0
O64 O 0.71959 0.92919 0.95807 0.0
O65 O 0.86826 0.84707 0.02519 0.0
O66 O 0.74638 0.73089 0.91406 0.0
O67 O 0.56894 0.79025 0.89512 0.0
O68 O 0.96792 0.60436 1.00048 0.0
O69 O 0.0614 0.73067 0.02996 0.0
O70 O 0.84343 0.60061 0.05065 0.0
O71 O 0.69498 0.682 0.98306 0.0
H72 H 0.62875 0.98944 0.09547 0.0
H73 H 0.4006 0.75548 0.02525 0.0
H74 H 0.41333 0.75158 0.11293 0.0
H75 H 0.63985 0.98522 0.18225 0.0
H76 H 0.95087 0.53392 0.91703 0.0
H77 H 0.15475 0.77783 0.98175 0.0
H78 H 0.14641 0.7817 0.89535 0.0
H79 H 0.94607 0.53752 0.83207 0.0
Gd80 Gd 0.38684 0.8155 0.516 0.0
Gd81 Gd 0.17333 0.70421 0.49171 0.0
C82 C 0.12852 0.76478 0.37627 0.0
C83 C 0.55344 0.86917 0.50891 0.0
C84 C 0.55559 0.86948 0.45874 0.0
C85 C 0.49672 0.9366 0.41582 0.0
C86 C 0.6117 0.80076 0.45171 0.0
C87 C 0.55058 0.86684 0.36045 0.0
C88 C 0.60808 0.79904 0.40268 0.0
C89 C 0.49493 0.93547 0.36748 0.0
C90 C 0.22169 0.90194 0.51909 0.0
C91 C 0.43201 0.75505 0.6314 0.0
C92 C 1.00728 0.65071 0.49922 0.0
C93 C 1.0059 0.6516 0.54964 0.0
C94 C 0.07004 0.58725 0.59463 0.0
C95 C 0.94571 0.71931 0.55495 0.0
C96 C 1.01507 0.6586 0.64914 0.0
C97 C 0.95089 0.72304 0.60442 0.0
C98 C 0.07413 0.59062 0.64367 0.0
C99 C 0.33893 0.61807 0.48878 0.0
O100 O 0.2475 0.79447 0.41466 0.0
O101 O 0.06953 0.73257 0.3942 0.0
O102 O 0.47012 0.9203 0.50289 0.0
O103 O 0.56082 0.79341 0.53101 0.0
O104 O 0.34092 0.92441 0.55045 0.0
O105 O 0.19279 0.84225 0.48234 0.0
O106 O 0.31287 0.72559 0.59309 0.0
O107 O 0.49091 0.78694 0.61338 0.0
O108 O 0.09085 0.59958 0.50545 0.0
O109 O 0.99899 0.72604 0.47644 0.0
O110 O 0.21996 0.59509 0.45762 0.0
O111 O 0.36718 0.67765 0.52543 0.0
H112 H 0.44974 0.98946 0.41875 0.0
H113 H 0.65675 0.74759 0.48357 0.0
H114 H 0.65061 0.74505 0.39778 0.0
H115 H 0.44727 0.9873 0.33463 0.0
H116 H 0.11932 0.53492 0.59274 0.0
H117 H 0.89646 0.77029 0.52142 0.0
H118 H 0.90507 0.77625 0.60791 0.0
H119 H 0.12572 0.54098 0.6781 0.0
Gd120 Gd 0.88693 0.31734 0.51563 0.0
Gd121 Gd 0.67537 0.20506 0.49227 0.0
C122 C 0.62771 0.26609 0.37629 0.0
C123 C 0.05107 0.37162 0.50708 0.0
C124 C 0.05016 0.37188 0.45596 0.0
C125 C 0.98599 0.43726 0.41174 0.0
C126 C 0.10825 0.30433 0.44923 0.0
C127 C 0.03755 0.36756 0.35536 0.0
C128 C 0.10114 0.30186 0.39919 0.0
C129 C 0.98044 0.43531 0.36225 0.0
C130 C 0.72222 0.40284 0.51943 0.0
C131 C 0.93439 0.25702 0.63156 0.0
C132 C 0.51005 0.14971 0.49981 0.0
C133 C 0.50658 0.15046 0.54954 0.0
C134 C 0.56764 0.08501 0.59371 0.0
C135 C 0.44688 0.21855 0.55488 0.0
C136 C 0.5097 0.15542 0.64723 0.0
C137 C 0.44956 0.22144 0.60362 0.0
C138 C 0.5687 0.08735 0.64181 0.0
C139 C 0.84054 0.11987 0.48853 0.0
O140 O 0.74627 0.2965 0.41427 0.0
O141 O 0.57002 0.23308 0.39464 0.0
O142 O 0.96891 0.42267 0.5021 0.0
O143 O 0.05952 0.29577 0.52936 0.0
O144 O 0.84108 0.42591 0.55033 0.0
O145 O 0.69325 0.34322 0.48264 0.0
O146 O 0.81515 0.22765 0.59352 0.0
O147 O 0.99277 0.28848 0.61316 0.0
O148 O 0.59615 0.09984 0.50732 0.0
O149 O 0.49989 0.22481 0.47631 0.0
O150 O 0.72161 0.09684 0.45743 0.0
O151 O 0.8689 0.17923 0.52534 0.0
H152 H 0.93801 0.48941 0.41463 0.0
H153 H 0.1576 0.25261 0.48217 0.0
H154 H 0.14572 0.24885 0.39473 0.0
H155 H 0.92912 0.4859 0.32855 0.0
H156 H 0.61689 0.03254 0.59193 0.0
H157 H 0.3998 0.27035 0.52194 0.0
H158 H 0.40442 0.27498 0.60726 0.0
H159 H 0.61837 0.03695 0.67572 0.0
C160 C 0.60197 0.57663 0.05241 0.0
C161 C 0.62906 0.56598 0.01341 0.0
C162 C 0.46989 0.4491 0.9595 0.0
C163 C 0.44113 0.46082 0.99783 0.0
N164 N 0.46143 0.54556 0.07305 0.0
N165 N 0.6091 0.48172 0.93818 0.0
C166 C 0.50243 0.52721 0.0423 0.0
C167 C 0.56824 0.49946 0.96908 0.0
N168 N 0.67626 0.63073 0.10124 0.0
N169 N 0.39876 0.39261 0.91198 0.0
H170 H 0.68068 0.51719 0.94389 0.0
H171 H 0.58005 0.42801 0.91033 0.0
H172 H 0.32678 0.35506 0.90387 0.0
H173 H 0.40303 0.38768 0.87779 0.0
H174 H 0.67199 0.63486 0.13546 0.0
H175 H 0.75171 0.66566 0.11077 0.0
H176 H 0.49099 0.59949 0.1008 0.0
H177 H 0.38926 0.51066 0.06716 0.0
C178 C 0.49846 0.49713 0.54106 0.0
C179 C 0.43557 0.56209 0.49588 0.0
C180 C 0.56298 0.52391 0.4673 0.0
C181 C 0.62589 0.45897 0.51249 0.0
N182 N 0.67387 0.3955 0.60066 0.0
N183 N 0.3874 0.62538 0.40763 0.0
C184 C 0.59883 0.44853 0.55152 0.0
C185 C 0.46258 0.57248 0.45683 0.0
N186 N 0.45808 0.47928 0.57213 0.0
N187 N 0.60328 0.54173 0.43619 0.0
H188 H 0.3114 0.65963 0.39788 0.0
H189 H 0.39163 0.62925 0.3734 0.0
H190 H 0.67646 0.50761 0.44259 0.0
H191 H 0.57214 0.59456 0.40761 0.0
H192 H 0.48912 0.4264 0.60067 0.0
H193 H 0.38485 0.51339 0.56569 0.0
H194 H 0.66955 0.39156 0.63486 0.0
H195 H 0.74978 0.36118 0.61037 0.0
C196 C 0.10029 0.07518 0.05156 0.0
C197 C 0.1237 0.06639 0.01106 0.0
C198 C 0.95736 0.95428 0.95451 0.0
C199 C 0.93378 0.96329 0.99493 0.0
N200 N 0.96215 0.04403 0.07359 0.0
N201 N 0.09446 0.98633 0.93195 0.0
C202 C 0.99973 0.02696 0.04124 0.0
C203 C 0.05738 1.00295 0.96456 0.0
N204 N 0.17903 0.12603 0.10193 0.0
N205 N 0.87957 0.90245 0.90461 0.0
H206 H 0.16757 0.02039 0.93816 0.0
H207 H 0.06072 0.93443 0.90219 0.0
H208 H 0.80426 0.8678 0.89541 0.0
H209 H 0.88117 0.89979 0.86949 0.0
H210 H 0.17721 0.12832 0.13698 0.0
H211 H 0.25552 0.15974 0.11166 0.0
H212 H 0.99575 0.09618 0.10315 0.0
H213 H 0.88853 1.01033 0.06716 0.0
C214 C 0.96446 0.07357 0.45687 0.0
C215 C 0.9371 0.06356 0.4958 0.0
C216 C 0.09838 0.94872 0.55102 0.0
C217 C 0.12552 0.95855 0.51199 0.0
N218 N 0.10499 0.0415 0.43632 0.0
N219 N 0.95833 0.98102 0.57181 0.0
C220 C 0.06382 0.02392 0.46708 0.0
C221 C 0.99901 0.99833 0.54081 0.0
N222 N 0.89099 0.12756 0.40818 0.0
N223 N 0.17237 0.89516 0.59992 0.0
H224 H 0.88579 0.01582 0.56556 0.0
H225 H 0.98834 0.92793 0.60009 0.0
H226 H 0.24722 0.85977 0.60933 0.0
H227 H 0.16825 0.89165 0.63421 0.0
H228 H 0.89508 0.13105 0.37389 0.0
H229 H 0.81692 0.16367 0.39908 0.0
H230 H 0.07504 0.09463 0.40808 0.0
H231 H 0.17797 1.00694 0.44281 0.0
C232 C 0.54946 0.18651 0.28276 0.0
C233 C 0.56399 0.2656 0.31119 0.0
C234 C 0.51438 0.34576 0.22543 0.0
C235 C 0.49808 0.26619 0.19673 0.0
N236 N 0.51109 0.10919 0.20223 0.0
N237 N 0.54099 0.42 0.30664 0.0
C238 C 0.51934 0.18685 0.22643 0.0
C239 C 0.54148 0.3453 0.28171 0.0
N240 N 0.56465 0.1094 0.30938 0.0
N241 N 0.50907 0.42148 0.19979 0.0
H242 H 0.55641 0.42056 0.34673 0.0
H243 H 0.51446 0.47996 0.28551 0.0
H244 H 0.49383 0.4231 0.15976 0.0
H245 H 0.53076 0.48179 0.22032 0.0
H246 H 0.55762 0.04994 0.29048 0.0
H247 H 0.57933 0.10475 0.34893 0.0
H248 H 0.49309 0.10159 0.16185 0.0
H249 H 0.49309 0.10159 0.16185 0.0
C250 C 0.65368 0.86106 0.26682 0.0
C251 C 0.53307 0.86676 0.20694 0.0
C252 C 0.4243 0.86223 0.24776 0.0
C253 C 0.54523 0.86545 0.30778 0.0
N254 N 0.77758 0.87888 0.37315 0.0
N255 N 0.30515 0.89369 0.14169 0.0
C256 C 0.65998 0.86821 0.317 0.0
C257 C 0.41859 0.87314 0.19768 0.0
N258 N 0.76399 0.8489 0.27655 0.0
N259 N 0.31511 0.8454 0.23834 0.0
H260 H 0.29731 0.9056 0.10422 0.0
H261 H 0.22158 0.90765 0.1339 0.0
H262 H 0.31525 0.83397 0.27358 0.0
H263 H 0.22637 0.83399 0.19549 0.0
H264 H 0.85395 0.84529 0.32007 0.0
H265 H 0.76495 0.83798 0.24159 0.0
H266 H 0.7927 0.88864 0.4128 0.0
H267 H 0.7927 0.88864 0.4128 0.0
C268 C 0.54195 0.67834 0.78235 0.0
C269 C 0.56136 0.75859 0.81098 0.0
C270 C 0.51227 0.83613 0.72483 0.0
C271 C 0.4949 0.75631 0.69642 0.0
N272 N 0.51121 0.60139 0.70085 0.0
N273 N 0.55124 0.91549 0.80487 0.0
C274 C 0.51421 0.67718 0.72591 0.0
C275 C 0.54191 0.83721 0.78103 0.0
N276 N 0.54503 0.60369 0.80827 0.0
N277 N 0.50027 0.9126 0.69833 0.0
H278 H 0.56865 0.92395 0.84506 0.0
H279 H 0.56865 0.92395 0.84506 0.0
H280 H 0.48653 0.91622 0.65898 0.0
H281 H 0.5095 0.97256 0.71727 0.0
H282 H 0.52141 0.54307 0.78796 0.0
H283 H 0.56057 0.60354 0.84839 0.0
H284 H 0.53491 0.54149 0.72185 0.0
H285 H 0.49542 0.5995 0.66067 0.0
C286 C 0.63548 0.16448 0.7597 0.0
C287 C 0.51477 0.15821 0.6998 0.0
C288 C 0.40636 0.16103 0.74079 0.0
C289 C 0.52727 0.1579 0.80074 0.0
N290 N 0.75637 0.13574 0.86621 0.0
N291 N 0.28308 0.1404 0.63473 0.0
C292 C 0.6419 0.15389 0.80998 0.0
C293 C 0.40025 0.15339 0.69068 0.0
N294 N 0.74363 0.18388 0.76875 0.0
N295 N 0.29562 0.17123 0.73093 0.0
H296 H 0.26828 0.13031 0.59518 0.0
H297 H 0.26828 0.13031 0.59518 0.0
H298 H 0.29429 0.1827 0.76573 0.0
H299 H 0.20546 0.17273 0.68739 0.0
H300 H 0.83159 0.19786 0.81135 0.0
H301 H 0.7428 0.195 0.73326 0.0
H302 H 0.84045 0.12372 0.87407 0.0
H303 H 0.76497 0.12376 0.90388 0.0
C304 C 1.01786 0.68873 0.22499 0.0
C305 C 1.00056 0.76872 0.19698 0.0
C306 C 0.04669 0.84607 0.28307 0.0
C307 C 0.0652 0.76563 0.31117 0.0
N308 N 0.05748 0.60864 0.30474 0.0
N309 N 1.01774 0.92358 0.20237 0.0
C310 C 0.04705 0.68719 0.2811 0.0
C311 C 1.01993 0.84761 0.22687 0.0
N312 N 1.00613 0.61251 0.19816 0.0
N313 N 0.04969 0.92057 0.30924 0.0
H314 H 1.00279 0.92564 0.16242 0.0
H315 H 0.04148 0.98343 0.22366 0.0
H316 H 0.06473 0.92054 0.34922 0.0
H317 H 1.02647 0.98123 0.28924 0.0
H318 H 1.01453 0.55238 0.21658 0.0
H319 H 0.99371 0.60933 0.15915 0.0
H320 H 0.07512 0.59966 0.34492 0.0
H321 H 0.07512 0.59966 0.34492 0.0
C322 C 0.91064 0.36252 0.24241 0.0
C323 C 0.03141 0.36586 0.30241 0.0
C324 C 0.14012 0.36022 0.26157 0.0
C325 C 1.01946 0.36599 0.20163 0.0
N326 N 0.7878 0.38331 0.13649 0.0
N327 N 0.26065 0.38836 0.36827 0.0
C328 C 0.90483 0.37039 0.19242 0.0
C329 C 0.14626 0.37031 0.31184 0.0
N330 N 0.79971 0.35199 0.23239 0.0
N331 N 0.24848 0.34182 0.27063 0.0
H332 H 0.26904 0.39961 0.40598 0.0
H333 H 0.34496 0.40087 0.3764 0.0
H334 H 0.24784 0.33114 0.23515 0.0
H335 H 0.33657 0.32842 0.31321 0.0
H336 H 0.70963 0.35024 0.1888 0.0
H337 H 0.79814 0.3405 0.26708 0.0
H338 H 0.77321 0.39371 0.09704 0.0
H339 H 0.77321 0.39371 0.09704 0.0
C340 C 1.01908 0.33871 0.7258 0.0
C341 C 0.99808 0.25853 0.69673 0.0
C342 C 0.03544 0.18121 0.78042 0.0
C343 C 0.06277 0.26091 0.81082 0.0
N344 N 0.08512 0.41587 0.81424 0.0
N345 N 1.00655 0.10322 0.69995 0.0
C346 C 0.05457 0.33976 0.78369 0.0
C347 C 1.01181 0.17961 0.72512 0.0
N348 N 1.00013 0.41443 0.69703 0.0
N349 N 1.0278 0.10753 0.80369 0.0
H350 H 0.9931 0.10061 0.6604 0.0
H351 H 1.02737 0.04343 0.72084 0.0
H352 H 0.0409 0.10781 0.84318 0.0
H353 H 0.9966 0.04823 0.78128 0.0
H354 H 0.99041 0.47419 0.70998 0.0
H355 H 0.98994 0.4174 0.65863 0.0
H356 H 0.10403 0.4732 0.80278 0.0
H357 H 0.09596 0.42113 0.85276 0.0
C358 C 0.14379 0.67013 0.76186 0.0
C359 C 1.0224 0.6625 0.70237 0.0
C360 C 0.91661 0.6664 0.74456 0.0
C361 C 0.03839 0.66262 0.80414 0.0
N362 N 0.26783 0.64345 0.86896 0.0
N363 N 0.79432 0.63614 0.63793 0.0
C364 C 0.15224 0.6598 0.81274 0.0
C365 C 0.90882 0.65601 0.69385 0.0
N366 N 0.25059 0.68993 0.76986 0.0
N367 N 0.80865 0.6825 0.73628 0.0
H368 H 0.78485 0.62535 0.59989 0.0
H369 H 0.71122 0.62214 0.63058 0.0
H370 H 0.81052 0.69297 0.77216 0.0
H371 H 0.71924 0.69398 0.69385 0.0
H372 H 0.3391 0.70417 0.81211 0.0
H373 H 0.24801 0.70077 0.73382 0.0
H374 H 0.35165 0.63182 0.8765 0.0
H375 H 0.2779 0.63303 0.90718 0.0
loop_
_geom_bond_atom_site_label_1
_geom_bond_atom_site_label_2
_geom_bond_distance
_geom_bond_site_symmetry_2
_ccdc_geom_bond_type
Gd0 C3 2.818 1_556 S
Gd0 O20 2.377 1_556 S
Gd0 O22 2.448 1_556 S
Gd0 O23 2.506 1_556 S
Gd0 O24 2.435 1_556 S
Gd0 O25 2.717 1_556 S
Gd0 O27 2.395 . S
Gd0 O31 2.327 . S
Gd1 C12 2.818 1_554 S
Gd1 O21 2.395 . S
Gd1 O25 2.327 . S
Gd1 O26 2.377 1_554 S
Gd1 O28 2.448 1_554 S
Gd1 O29 2.506 1_554 S
Gd1 O30 2.435 1_554 S
Gd1 O31 2.717 1_554 S
C2 O20 1.240 . S
C2 O21 1.240 . S
C3 Gd0 2.818 1_554 S
C3 C4 1.510 . S
C3 O22 1.249 . S
C3 O23 1.252 . S
C4 C3 1.510 . S
C4 C5 1.404 . S
C4 C6 1.352 . S
C5 C4 1.404 . S
C5 C9 1.389 . S
C5 H32 0.930 . S
C6 C4 1.352 . S
C6 C8 1.374 . S
C6 H33 0.931 . S
C7 C8 1.359 . S
C7 C9 1.364 . S
C8 C6 1.374 . S
C8 C7 1.359 . S
C8 H34 0.931 . S
C9 C5 1.389 . S
C9 C7 1.364 . S
C9 H35 0.931 . S
C10 O24 1.256 . S
C10 O25 1.257 . S
C11 O26 1.240 . S
C11 O27 1.240 . S
C12 Gd1 2.818 1_556 S
C12 C13 1.510 . S
C12 O28 1.249 . S
C12 O29 1.252 . S
C13 C12 1.510 . S
C13 C14 1.404 . S
C13 C15 1.352 . S
C14 C13 1.404 . S
C14 C18 1.389 . S
C14 H36 0.930 . S
C15 C13 1.352 . S
C15 C17 1.374 . S
C15 H37 0.931 . S
C16 C17 1.359 . S
C16 C18 1.364 . S
C17 C15 1.374 . S
C17 C16 1.359 . S
C17 H38 0.931 . S
C18 C14 1.389 . S
C18 C16 1.364 . S
C18 H39 0.931 1_545 S
C19 O30 1.256 . S
C19 O31 1.257 . S
O20 Gd0 2.377 1_554 S
O20 C2 1.240 . S
O21 Gd1 2.395 . S
O21 C2 1.240 . S
O22 Gd0 2.448 1_554 S
O22 C3 1.249 . S
O23 Gd0 2.506 1_554 S
O23 C3 1.252 . S
O24 Gd0 2.435 1_554 S
O24 C10 1.256 . S
O25 Gd0 2.717 1_554 S
O25 Gd1 2.327 . S
O25 C10 1.257 . S
O26 Gd1 2.377 1_556 S
O26 C11 1.240 . S
O27 Gd0 2.395 . S
O27 C11 1.240 . S
O28 Gd1 2.448 1_556 S
O28 C12 1.249 . S
O29 Gd1 2.506 1_556 S
O29 C12 1.252 . S
O30 Gd1 2.435 1_556 S
O30 C19 1.256 . S
O31 Gd0 2.327 . S
O31 Gd1 2.717 1_556 S
O31 C19 1.257 . S
H32 C5 0.930 . S
H33 C6 0.931 . S
H34 C8 0.931 . S
H35 C9 0.931 . S
H36 C14 0.930 . S
H37 C15 0.931 . S
H38 C17 0.931 . S
H39 C18 0.931 1_565 S
Gd40 C43 2.818 1_556 S
Gd40 O60 2.377 1_556 S
Gd40 O62 2.448 1_556 S
Gd40 O63 2.506 1_556 S
Gd40 O64 2.435 1_556 S
Gd40 O65 2.717 1_556 S
Gd40 O67 2.395 . S
Gd40 O71 2.327 . S
Gd41 C52 2.818 1_554 S
Gd41 O61 2.395 . S
Gd41 O65 2.327 . S
Gd41 O66 2.377 1_554 S
Gd41 O68 2.448 1_554 S
Gd41 O69 2.506 1_554 S
Gd41 O70 2.435 1_554 S
Gd41 O71 2.717 1_554 S
C42 O60 1.240 . S
C42 O61 1.240 . S
C43 Gd40 2.818 1_554 S
C43 C44 1.510 . S
C43 O62 1.249 . S
C43 O63 1.252 . S
C44 C43 1.510 . S
C44 C45 1.404 . S
C44 C46 1.352 . S
C45 C44 1.404 . S
C45 C49 1.389 . S
C45 H72 0.930 . S
C46 C44 1.352 . S
C46 C48 1.374 . S
C46 H73 0.931 . S
C47 C48 1.359 . S
C47 C49 1.364 . S
C48 C46 1.374 . S
C48 C47 1.359 . S
C48 H74 0.931 . S
C49 C45 1.389 . S
C49 C47 1.364 . S
C49 H75 0.931 1_565 S
C50 O64 1.256 . S
C50 O65 1.257 . S
C51 O66 1.240 . S
C51 O67 1.240 . S
C52 Gd41 2.818 1_556 S
C52 C53 1.510 . S
C52 O68 1.249 . S
C52 O69 1.252 . S
C53 C52 1.510 . S
C53 C54 1.404 . S
C53 C55 1.352 . S
C54 C53 1.404 . S
C54 C58 1.389 . S
C54 H76 0.930 . S
C55 C53 1.352 . S
C55 C57 1.374 . S
C55 H77 0.931 . S
C56 C57 1.359 . S
C56 C58 1.364 . S
C57 C55 1.374 . S
C57 C56 1.359 . S
C57 H78 0.931 . S
C58 C54 1.389 . S
C58 C56 1.364 . S
C58 H79 0.931 . S
C59 O70 1.256 . S
C59 O71 1.257 . S
O60 Gd40 2.377 1_554 S
O60 C42 1.240 . S
O61 Gd41 2.395 . S
O61 C42 1.240 . S
O62 Gd40 2.448 1_554 S
O62 C43 1.249 . S
O63 Gd40 2.506 1_554 S
O63 C43 1.252 . S
O64 Gd40 2.435 1_554 S
O64 C50 1.256 . S
O65 Gd40 2.717 1_554 S
O65 Gd41 2.327 . S
O65 C50 1.257 . S
O66 Gd41 2.377 1_556 S
O66 C51 1.240 . S
O67 Gd40 2.395 . S
O67 C51 1.240 . S
O68 Gd41 2.448 1_556 S
O68 C52 1.249 . S
O69 Gd41 2.506 1_556 S
O69 C52 1.252 . S
O70 Gd41 2.435 1_556 S
O70 C59 1.256 . S
O71 Gd40 2.327 . S
O71 Gd41 2.717 1_556 S
O71 C59 1.257 . S
H72 C45 0.930 . S
H73 C46 0.931 . S
H74 C48 0.931 . S
H75 C49 0.931 1_545 S
H76 C54 0.930 . S
H77 C55 0.931 . S
H78 C57 0.931 . S
H79 C58 0.931 . S
Gd80 C83 2.818 . S
Gd80 O100 2.377 . S
Gd80 O102 2.448 . S
Gd80 O103 2.506 . S
Gd80 O104 2.435 . S
Gd80 O105 2.717 . S
Gd80 O107 2.395 . S
Gd80 O111 2.327 . S
Gd81 C92 2.818 . S
Gd81 O101 2.395 . S
Gd81 O105 2.327 . S
Gd81 O106 2.377 . S
Gd81 O108 2.448 . S
Gd81 O109 2.506 . S
Gd81 O110 2.435 . S
Gd81 O111 2.717 . S
C82 O100 1.240 . S
C82 O101 1.240 . S
C83 Gd80 2.818 . S
C83 C84 1.510 . S
C83 O102 1.249 . S
C83 O103 1.252 . S
C84 C83 1.510 . S
C84 C85 1.404 . S
C84 C86 1.352 . S
C85 C84 1.404 . S
C85 C89 1.389 . S
C85 H112 0.930 . S
C86 C84 1.352 . S
C86 C88 1.374 . S
C86 H113 0.931 . S
C87 C88 1.359 . S
C87 C89 1.364 . S
C88 C86 1.374 . S
C88 C87 1.359 . S
C88 H114 0.931 . S
C89 C85 1.389 . S
C89 C87 1.364 . S
C89 H115 0.931 1_565 S
C90 O104 1.256 . S
C90 O105 1.257 . S
C91 O106 1.240 . S
C91 O107 1.240 . S
C92 Gd81 2.818 . S
C92 C93 1.510 . S
C92 O108 1.249 . S
C92 O109 1.252 . S
C93 C92 1.510 . S
C93 C94 1.404 . S
C93 C95 1.352 . S
C94 C93 1.404 . S
C94 C98 1.389 . S
C94 H116 0.930 . S
C95 C93 1.352 . S
C95 C97 1.374 . S
C95 H117 0.931 . S
C96 C97 1.359 . S
C96 C98 1.364 . S
C97 C95 1.374 . S
C97 C96 1.359 . S
C97 H118 0.931 . S
C98 C94 1.389 . S
C98 C96 1.364 . S
C98 H119 0.931 . S
C99 O110 1.256 . S
C99 O111 1.257 . S
O100 Gd80 2.377 . S
O100 C82 1.240 . S
O101 Gd81 2.395 . S
O101 C82 1.240 . S
O102 Gd80 2.448 . S
O102 C83 1.249 . S
O103 Gd80 2.506 . S
O103 C83 1.252 . S
O104 Gd80 2.435 . S
O104 C90 1.256 . S
O105 Gd80 2.717 . S
O105 Gd81 2.327 . S
O105 C90 1.257 . S
O106 Gd81 2.377 . S
O106 C91 1.240 . S
O107 Gd80 2.395 . S
O107 C91 1.240 . S
O108 Gd81 2.448 . S
O108 C92 1.249 . S
O109 Gd81 2.506 . S
O109 C92 1.252 . S
O110 Gd81 2.435 . S
O110 C99 1.256 . S
O111 Gd80 2.327 . S
O111 Gd81 2.717 . S
O111 C99 1.257 . S
H112 C85 0.930 . S
H113 C86 0.931 . S
H114 C88 0.931 . S
H115 C89 0.931 1_545 S
H116 C94 0.930 . S
H117 C95 0.931 . S
H118 C97 0.931 . S
H119 C98 0.931 . S
Gd120 C123 2.818 . S
Gd120 O140 2.377 . S
Gd120 O142 2.448 . S
Gd120 O143 2.506 . S
Gd120 O144 2.435 . S
Gd120 O145 2.717 . S
Gd120 O147 2.395 . S
Gd120 O151 2.327 . S
Gd121 C132 2.818 . S
Gd121 O141 2.395 . S
Gd121 O145 2.327 . S
Gd121 O146 2.377 . S
Gd121 O148 2.448 . S
Gd121 O149 2.506 . S
Gd121 O150 2.435 . S
Gd121 O151 2.717 . S
C122 O140 1.240 . S
C122 O141 1.240 . S
C123 Gd120 2.818 . S
C123 C124 1.510 . S
C123 O142 1.249 . S
C123 O143 1.252 . S
C124 C123 1.510 . S
C124 C125 1.404 . S
C124 C126 1.352 . S
C125 C124 1.404 . S
C125 C129 1.389 . S
C125 H152 0.930 . S
C126 C124 1.352 . S
C126 C128 1.374 . S
C126 H153 0.931 . S
C127 C128 1.359 . S
C127 C129 1.364 . S
C128 C126 1.374 . S
C128 C127 1.359 . S
C128 H154 0.931 . S
C129 C125 1.389 . S
C129 C127 1.364 . S
C129 H155 0.931 . S
C130 O144 1.256 . S
C130 O145 1.257 . S
C131 O146 1.240 . S
C131 O147 1.240 . S
C132 Gd121 2.818 . S
C132 C133 1.510 . S
C132 O148 1.249 . S
C132 O149 1.252 . S
C133 C132 1.510 . S
C133 C134 1.404 . S
C133 C135 1.352 . S
C134 C133 1.404 . S
C134 C138 1.389 . S
C134 H156 0.930 . S
C135 C133 1.352 . S
C135 C137 1.374 . S
C135 H157 0.931 . S
C136 C137 1.359 . S
C136 C138 1.364 . S
C137 C135 1.374 . S
C137 C136 1.359 . S
C137 H158 0.931 . S
C138 C134 1.389 . S
C138 C136 1.364 . S
C138 H159 0.931 1_545 S
C139 O150 1.256 . S
C139 O151 1.257 . S
O140 Gd120 2.377 . S
O140 C122 1.240 . S
O141 Gd121 2.395 . S
O141 C122 1.240 . S
O142 Gd120 2.448 . S
O142 C123 1.249 . S
O143 Gd120 2.506 . S
O143 C123 1.252 . S
O144 Gd120 2.435 . S
O144 C130 1.256 . S
O145 Gd120 2.717 . S
O145 Gd121 2.327 . S
O145 C130 1.257 . S
O146 Gd121 2.377 . S
O146 C131 1.240 . S
O147 Gd120 2.395 . S
O147 C131 1.240 . S
O148 Gd121 2.448 . S
O148 C132 1.249 . S
O149 Gd121 2.506 . S
O149 C132 1.252 . S
O150 Gd121 2.435 . S
O150 C139 1.256 . S
O151 Gd120 2.327 . S
O151 Gd121 2.717 . S
O151 C139 1.257 . S
H152 C125 0.930 . S
H153 C126 0.931 . S
H154 C128 0.931 . S
H155 C129 0.931 . S
H156 C134 0.930 . S
H157 C135 0.931 . S
H158 C137 0.931 . S
H159 C138 0.931 1_565 S
C160 C161 1.363 1_554 S
C160 C166 1.379 . S
C160 N168 1.356 . S
C161 C160 1.363 1_556 S
C161 C167 1.363 . S
C162 C163 1.363 1_556 S
C162 C167 1.379 . S
C162 N169 1.356 . S
C163 C162 1.363 1_554 S
C163 C166 1.363 . S
N164 C166 1.356 . S
N164 H176 0.984 . S
N164 H177 0.985 . S
N165 C167 1.356 . S
N165 H170 0.984 . S
N165 H171 0.985 . S
C166 C160 1.379 . S
C166 C163 1.363 . S
C166 N164 1.356 . S
C167 C161 1.363 . S
C167 C162 1.379 . S
C167 N165 1.356 . S
N168 C160 1.356 . S
N168 H174 0.984 . S
N168 H175 0.984 . S
N169 C162 1.356 . S
N169 H172 0.984 . S
N169 H173 0.985 . S
H170 N165 0.984 . S
H171 N165 0.985 . S
H172 N169 0.984 . S
H173 N169 0.985 . S
H174 N168 0.984 . S
H175 N168 0.984 . S
H176 N164 0.984 . S
H177 N164 0.985 . S
C178 C179 1.363 . S
C178 C184 1.379 . S
C178 N186 1.356 . S
C179 C178 1.363 . S
C179 C185 1.363 . S
C180 C181 1.363 . S
C180 C185 1.379 . S
C180 N187 1.356 . S
C181 C180 1.363 . S
C181 C184 1.363 . S
N182 C184 1.356 . S
N182 H194 0.984 . S
N182 H195 0.985 . S
N183 C185 1.356 . S
N183 H188 0.984 . S
N183 H189 0.985 . S
C184 C178 1.379 . S
C184 C181 1.363 . S
C184 N182 1.356 . S
C185 C179 1.363 . S
C185 C180 1.379 . S
C185 N183 1.356 . S
N186 C178 1.356 . S
N186 H192 0.984 . S
N186 H193 0.984 . S
N187 C180 1.356 . S
N187 H190 0.984 . S
N187 H191 0.985 . S
H188 N183 0.984 . S
H189 N183 0.985 . S
H190 N187 0.984 . S
H191 N187 0.985 . S
H192 N186 0.984 . S
H193 N186 0.984 . S
H194 N182 0.984 . S
H195 N182 0.985 . S
C196 C197 1.363 1_554 S
C196 C202 1.379 . S
C196 N204 1.356 . S
C197 C196 1.363 1_556 S
C197 C203 1.363 1_445 S
C198 C199 1.363 1_556 S
C198 C203 1.379 . S
C198 N205 1.356 . S
C199 C198 1.363 1_554 S
C199 C202 1.363 1_665 S
N200 C202 1.356 . S
N200 H212 0.984 . S
N200 H213 0.985 1_445 S
N201 C203 1.356 . S
N201 H206 0.984 1_665 S
N201 H207 0.985 . S
C202 C196 1.379 . S
C202 C199 1.363 1_445 S
C202 N200 1.356 . S
C203 C197 1.363 1_665 S
C203 C198 1.379 . S
C203 N201 1.356 . S
N204 C196 1.356 . S
N204 H210 0.984 . S
N204 H211 0.984 . S
N205 C198 1.356 . S
N205 H208 0.984 . S
N205 H209 0.985 . S
H206 N201 0.984 1_445 S
H207 N201 0.985 . S
H208 N205 0.984 . S
H209 N205 0.985 . S
H210 N204 0.984 . S
H211 N204 0.984 . S
H212 N200 0.984 . S
H213 N200 0.985 1_665 S
C214 C215 1.363 . S
C214 C220 1.379 . S
C214 N222 1.356 . S
C215 C214 1.363 . S
C215 C221 1.363 1_645 S
C216 C217 1.363 . S
C216 C221 1.379 . S
C216 N223 1.356 . S
C217 C216 1.363 . S
C217 C220 1.363 1_465 S
N218 C220 1.356 . S
N218 H230 0.984 . S
N218 H231 0.985 1_645 S
N219 C221 1.356 . S
N219 H224 0.984 1_465 S
N219 H225 0.985 . S
C220 C214 1.379 . S
C220 C217 1.363 1_645 S
C220 N218 1.356 . S
C221 C215 1.363 1_465 S
C221 C216 1.379 . S
C221 N219 1.356 . S
N222 C214 1.356 . S
N222 H228 0.984 . S
N222 H229 0.984 . S
N223 C216 1.356 . S
N223 H226 0.984 . S
N223 H227 0.985 . S
H224 N219 0.984 1_645 S
H225 N219 0.985 . S
H226 N223 0.984 . S
H227 N223 0.985 . S
H228 N222 0.984 . S
H229 N222 0.984 . S
H230 N218 0.984 . S
H231 N218 0.985 1_465 S
C232 C233 1.363 . S
C232 C238 1.379 . S
C232 N240 1.356 . S
C233 C232 1.363 . S
C233 C239 1.363 . S
C234 C235 1.363 . S
C234 C239 1.379 . S
C234 N241 1.356 . S
C235 C234 1.363 . S
C235 C238 1.363 . S
N236 C238 1.356 . S
N236 H248 0.984 . S
N236 H249 0.985 . S
N237 C239 1.356 . S
N237 H242 0.984 . S
N237 H243 0.985 . S
C238 C232 1.379 . S
C238 C235 1.363 . S
C238 N236 1.356 . S
C239 C233 1.363 . S
C239 C234 1.379 . S
C239 N237 1.356 . S
N240 C232 1.356 . S
N240 H246 0.984 . S
N240 H247 0.984 . S
N241 C234 1.356 . S
N241 H244 0.984 . S
N241 H245 0.985 . S
H242 N237 0.984 . S
H243 N237 0.985 . S
H244 N241 0.984 . S
H245 N241 0.985 . S
H246 N240 0.984 . S
H247 N240 0.984 . S
H248 N236 0.984 . S
H249 N236 0.985 . S
C250 C251 1.363 . S
C250 C256 1.379 . S
C250 N258 1.356 1_565 S
C251 C250 1.363 . S
C251 C257 1.363 . S
C252 C253 1.363 . S
C252 C257 1.379 . S
C252 N259 1.356 . S
C253 C252 1.363 . S
C253 C256 1.363 . S
N254 C256 1.356 1_545 S
N254 H266 0.984 . S
N254 H267 0.985 . S
N255 C257 1.356 . S
N255 H260 0.984 . S
N255 H261 0.985 . S
C256 C250 1.379 . S
C256 C253 1.363 . S
C256 N254 1.356 1_565 S
C257 C251 1.363 . S
C257 C252 1.379 . S
C257 N255 1.356 . S
N258 C250 1.356 1_545 S
N258 H264 0.984 . S
N258 H265 0.984 . S
N259 C252 1.356 . S
N259 H262 0.984 . S
N259 H263 0.985 . S
H260 N255 0.984 . S
H261 N255 0.985 . S
H262 N259 0.984 . S
H263 N259 0.985 . S
H264 N258 0.984 . S
H265 N258 0.984 . S
H266 N254 0.984 . S
H267 N254 0.985 . S
C268 C269 1.363 . S
C268 C274 1.379 . S
C268 N276 1.356 . S
C269 C268 1.363 . S
C269 C275 1.363 . S
C270 C271 1.363 . S
C270 C275 1.379 . S
C270 N277 1.356 . S
C271 C270 1.363 . S
C271 C274 1.363 . S
N272 C274 1.356 . S
N272 H284 0.984 . S
N272 H285 0.985 . S
N273 C275 1.356 . S
N273 H278 0.984 . S
N273 H279 0.985 . S
C274 C268 1.379 . S
C274 C271 1.363 . S
C274 N272 1.356 . S
C275 C269 1.363 . S
C275 C270 1.379 . S
C275 N273 1.356 . S
N276 C268 1.356 . S
N276 H282 0.984 . S
N276 H283 0.984 . S
N277 C270 1.356 . S
N277 H280 0.984 . S
N277 H281 0.985 . S
H278 N273 0.984 . S
H279 N273 0.985 . S
H280 N277 0.984 . S
H281 N277 0.985 . S
H282 N276 0.984 . S
H283 N276 0.984 . S
H284 N272 0.984 . S
H285 N272 0.985 . S
C286 C287 1.363 . S
C286 C292 1.379 . S
C286 N294 1.356 . S
C287 C286 1.363 . S
C287 C293 1.363 . S
C288 C289 1.363 . S
C288 C293 1.379 . S
C288 N295 1.356 1_545 S
C289 C288 1.363 . S
C289 C292 1.363 . S
N290 C292 1.356 . S
N290 H302 0.984 . S
N290 H303 0.985 . S
N291 C293 1.356 1_565 S
N291 H296 0.984 . S
N291 H297 0.985 . S
C292 C286 1.379 . S
C292 C289 1.363 . S
C292 N290 1.356 . S
C293 C287 1.363 . S
C293 C288 1.379 . S
C293 N291 1.356 1_545 S
N294 C286 1.356 . S
N294 H300 0.984 . S
N294 H301 0.984 . S
N295 C288 1.356 1_565 S
N295 H298 0.984 . S
N295 H299 0.985 . S
H296 N291 0.984 . S
H297 N291 0.985 . S
H298 N295 0.984 . S
H299 N295 0.985 . S
H300 N294 0.984 . S
H301 N294 0.984 . S
H302 N290 0.984 . S
H303 N290 0.985 . S
C304 C305 1.363 . S
C304 C310 1.379 . S
C304 N312 1.356 . S
C305 C304 1.363 . S
C305 C311 1.363 1_655 S
C306 C307 1.363 . S
C306 C311 1.379 . S
C306 N313 1.356 . S
C307 C306 1.363 . S
C307 C310 1.363 1_455 S
N308 C310 1.356 . S
N308 H320 0.984 . S
N308 H321 0.985 . S
N309 C311 1.356 . S
N309 H314 0.984 . S
N309 H315 0.985 . S
C310 C304 1.379 . S
C310 C307 1.363 1_655 S
C310 N308 1.356 . S
C311 C305 1.363 1_455 S
C311 C306 1.379 . S
C311 N309 1.356 . S
N312 C304 1.356 . S
N312 H318 0.984 . S
N312 H319 0.984 . S
N313 C306 1.356 . S
N313 H316 0.984 . S
N313 H317 0.985 . S
H314 N309 0.984 . S
H315 N309 0.985 . S
H316 N313 0.984 . S
H317 N313 0.985 . S
H318 N312 0.984 . S
H319 N312 0.984 . S
H320 N308 0.984 . S
H321 N308 0.985 . S
C322 C323 1.363 1_655 S
C322 C328 1.379 . S
C322 N330 1.356 . S
C323 C322 1.363 1_455 S
C323 C329 1.363 . S
C324 C325 1.363 1_455 S
C324 C329 1.379 . S
C324 N331 1.356 . S
C325 C324 1.363 1_655 S
C325 C328 1.363 . S
N326 C328 1.356 . S
N326 H338 0.984 . S
N326 H339 0.985 . S
N327 C329 1.356 . S
N327 H332 0.984 . S
N327 H333 0.985 . S
C328 C322 1.379 . S
C328 C325 1.363 . S
C328 N326 1.356 . S
C329 C323 1.363 . S
C329 C324 1.379 . S
C329 N327 1.356 . S
N330 C322 1.356 . S
N330 H336 0.984 . S
N330 H337 0.984 . S
N331 C324 1.356 . S
N331 H334 0.984 . S
N331 H335 0.985 . S
H332 N327 0.984 . S
H333 N327 0.985 . S
H334 N331 0.984 . S
H335 N331 0.985 . S
H336 N330 0.984 . S
H337 N330 0.984 . S
H338 N326 0.984 . S
H339 N326 0.985 . S
C340 C341 1.363 1_455 S
C340 C346 1.379 . S
C340 N348 1.356 . S
C341 C340 1.363 1_655 S
C341 C347 1.363 . S
C342 C343 1.363 1_655 S
C342 C347 1.379 . S
C342 N349 1.356 . S
C343 C342 1.363 1_455 S
C343 C346 1.363 . S
N344 C346 1.356 . S
N344 H356 0.984 . S
N344 H357 0.985 . S
N345 C347 1.356 . S
N345 H350 0.984 . S
N345 H351 0.985 . S
C346 C340 1.379 . S
C346 C343 1.363 . S
C346 N344 1.356 . S
C347 C341 1.363 . S
C347 C342 1.379 . S
C347 N345 1.356 . S
N348 C340 1.356 . S
N348 H354 0.984 . S
N348 H355 0.984 . S
N349 C342 1.356 . S
N349 H352 0.984 . S
N349 H353 0.985 . S
H350 N345 0.984 . S
H351 N345 0.985 . S
H352 N349 0.984 . S
H353 N349 0.985 . S
H354 N348 0.984 . S
H355 N348 0.984 . S
H356 N344 0.984 . S
H357 N344 0.985 . S
C358 C359 1.363 1_455 S
C358 C364 1.379 . S
C358 N366 1.356 . S
C359 C358 1.363 1_655 S
C359 C365 1.363 . S
C360 C361 1.363 1_655 S
C360 C365 1.379 . S
C360 N367 1.356 . S
C361 C360 1.363 1_455 S
C361 C364 1.363 . S
N362 C364 1.356 . S
N362 H374 0.984 . S
N362 H375 0.985 . S
N363 C365 1.356 . S
N363 H368 0.984 . S
N363 H369 0.985 . S
C364 C358 1.379 . S
C364 C361 1.363 . S
C364 N362 1.356 . S
C365 C359 1.363 . S
C365 C360 1.379 . S
C365 N363 1.356 . S
N366 C358 1.356 . S
N366 H372 0.984 . S
N366 H373 0.984 . S
N367 C360 1.356 . S
N367 H370 0.984 . S
N367 H371 0.985 . S
H368 N363 0.984 . S
H369 N363 0.985 . S
H370 N367 0.984 . S
H371 N367 0.985 . S
H372 N366 0.984 . S
H373 N366 0.984 . S
H374 N362 0.984 . S
H375 N362 0.985 . S
C161 C59 1.707 . S
C163 C10 1.707 . S
C179 C99 1.707 . S
C181 C130 1.707 . S
C197 C19 1.707 . S
C199 C50 1.707 . S
C215 C139 1.707 . S
C217 C90 1.707 . S
C233 C122 1.817 . S
C235 C2 1.815 . S
C251 C47 1.203 . S
C253 C87 1.200 . S
C269 C51 1.818 . S
C271 C91 1.820 . S
C287 C136 1.203 . S
C289 C16 1.205 . S
C305 C42 1.817 . S
C307 C82 1.815 . S
C323 C127 1.203 1_455 S
C325 C7 1.200 1_655 S
C341 C131 1.818 . S
C343 C11 1.820 . S
C359 C96 1.203 1_655 S
C361 C56 1.205 1_455 S
