# Generated by pormake.
# Topology smc, (6)-cn, num edge types: 1
# Building blocks:
#     Node 0, Type 0, BuildingBlock: PAMTUU_clean_sbu_0, # of connection points: 6
#     Node 1, Type 0, BuildingBlock: PAMTUU_clean_sbu_0, # of connection points: 6
#     Node 2, Type 0, BuildingBlock: PAMTUU_clean_sbu_0, # of connection points: 6
#     Node 3, Type 0, BuildingBlock: PAMTUU_clean_sbu_0, # of connection points: 6
#     Node 4, Type 0, BuildingBlock: PAMTUU_clean_sbu_0, # of connection points: 6
#     Node 5, Type 0, BuildingBlock: PAMTUU_clean_sbu_0, # of connection points: 6
#     Node 6, Type 0, BuildingBlock: PAMTUU_clean_sbu_0, # of connection points: 6
#     Node 7, Type 0, BuildingBlock: PAMTUU_clean_sbu_0, # of connection points: 6
#     Node 8, Type 0, BuildingBlock: PAMTUU_clean_sbu_0, # of connection points: 6
#     Edge 9, Type (0, 0), BuildingBlock: TEMPAE_clean_linker_10, # of connection points: 2
#     Edge 10, Type (0, 0), BuildingBlock: TEMPAE_clean_linker_10, # of connection points: 2
#     Edge 11, Type (0, 0), BuildingBlock: TEMPAE_clean_linker_10, # of connection points: 2
#     Edge 12, Type (0, 0), BuildingBlock: TEMPAE_clean_linker_10, # of connection points: 2
#     Edge 13, Type (0, 0), BuildingBlock: TEMPAE_clean_linker_10, # of connection points: 2
#     Edge 14, Type (0, 0), BuildingBlock: TEMPAE_clean_linker_10, # of connection points: 2
#     Edge 15, Type (0, 0), BuildingBlock: TEMPAE_clean_linker_10, # of connection points: 2
#     Edge 16, Type (0, 0), BuildingBlock: TEMPAE_clean_linker_10, # of connection points: 2
#     Edge 17, Type (0, 0), BuildingBlock: TEMPAE_clean_linker_10, # of connection points: 2
#     Edge 18, Type (0, 0), BuildingBlock: TEMPAE_clean_linker_10, # of connection points: 2
#     Edge 19, Type (0, 0), BuildingBlock: TEMPAE_clean_linker_10, # of connection points: 2
#     Edge 20, Type (0, 0), BuildingBlock: TEMPAE_clean_linker_10, # of connection points: 2
#     Edge 21, Type (0, 0), BuildingBlock: TEMPAE_clean_linker_10, # of connection points: 2
#     Edge 22, Type (0, 0), BuildingBlock: TEMPAE_clean_linker_10, # of connection points: 2
#     Edge 23, Type (0, 0), BuildingBlock: TEMPAE_clean_linker_10, # of connection points: 2
#     Edge 24, Type (0, 0), BuildingBlock: TEMPAE_clean_linker_10, # of connection points: 2
#     Edge 25, Type (0, 0), BuildingBlock: TEMPAE_clean_linker_10, # of connection points: 2
#     Edge 26, Type (0, 0), BuildingBlock: TEMPAE_clean_linker_10, # of connection points: 2
#     Edge 27, Type (0, 0), BuildingBlock: TEMPAE_clean_linker_10, # of connection points: 2
#     Edge 28, Type (0, 0), BuildingBlock: TEMPAE_clean_linker_10, # of connection points: 2
#     Edge 29, Type (0, 0), BuildingBlock: TEMPAE_clean_linker_10, # of connection points: 2
#     Edge 30, Type (0, 0), BuildingBlock: TEMPAE_clean_linker_10, # of connection points: 2
#     Edge 31, Type (0, 0), BuildingBlock: TEMPAE_clean_linker_10, # of connection points: 2
#     Edge 32, Type (0, 0), BuildingBlock: TEMPAE_clean_linker_10, # of connection points: 2
#     Edge 33, Type (0, 0), BuildingBlock: TEMPAE_clean_linker_10, # of connection points: 2
#     Edge 34, Type (0, 0), BuildingBlock: TEMPAE_clean_linker_10, # of connection points: 2
#     Edge 35, Type (0, 0), BuildingBlock: TEMPAE_clean_linker_10, # of connection points: 2
# Relax obj value: 0.295
# Max RMSD: 0.345
# Mean RMSD: 0.309
data_MOF--net-smc--node1-PAMTUU_clean_sbu_0--edge1-TEMPAE_clean_linker_10
_symmetry_space_group_name_H-M    P1
_symmetry_Int_Tables_number       1
_symmetry_cell_setting            triclinic
loop_
_symmetry_equiv_pos_as_xyz
'x, y, z'
_cell_length_a     43.302513
_cell_length_b     32.908647
_cell_length_c     40.421478
_cell_angle_alpha  90.711776
_cell_angle_beta   90.452413
_cell_angle_gamma 119.47985
loop_
_atom_site_label
_atom_site_type_symbol
_atom_site_fract_x
_atom_site_fract_y
_atom_site_fract_z
_atom_type_partial_charge
Tb0 Tb 0.07275 0.41223 0.99172 0.0
Tb1 Tb 1.03935 0.47119 0.02386 0.0
C2 C 1.01996 0.4305 0.95073 0.0
C3 C 0.14219 0.39815 0.95741 0.0
C4 C 0.21144 0.46929 0.94478 0.0
C5 C 0.18751 0.44651 0.91847 0.0
C6 C 0.15321 0.41081 0.92472 0.0
C7 C 0.16712 0.41873 0.98349 0.0
C8 C 0.20149 0.45395 0.97718 0.0
C9 C 0.10399 0.37409 0.96439 0.0
O10 O 0.11761 0.48361 0.99708 0.0
O11 O 0.08664 0.52332 0.99924 0.0
O12 O 0.08025 0.47768 0.05969 0.0
O13 O 0.08035 0.41036 0.04534 0.0
O14 O 1.01848 0.51647 0.01865 0.0
O15 O 1.02165 0.49008 0.06647 0.0
O16 O 1.00922 0.40062 0.04137 0.0
O17 O 1.01644 0.36207 0.99764 0.0
O18 O 0.05196 0.43553 0.95108 0.0
O19 O 1.00701 0.43631 0.9787 0.0
C20 C 0.11667 0.52297 0.9959 0.0
O21 O 0.09504 0.36814 0.99541 0.0
O22 O 0.08649 0.39028 0.94811 0.0
C23 C 0.08788 0.44452 0.06682 0.0
C24 C 0.97283 0.50159 0.05702 0.0
C25 C 0.90504 0.48802 0.07205 0.0
C26 C 0.93066 0.49945 0.09722 0.0
C27 C 0.96431 0.50641 0.08972 0.0
C28 C 0.94662 0.48775 0.03204 0.0
C29 C 0.91303 0.48126 0.0395 0.0
C30 C 1.00943 0.51273 0.04965 0.0
C31 C 0.99739 0.36344 0.0223 0.0
H32 H 0.19502 0.45726 0.89322 0.0
H33 H 0.13447 0.39565 0.90422 0.0
H34 H 0.15952 0.41011 1.00901 0.0
H35 H 0.21971 0.47094 0.99781 0.0
H36 H 0.9253 0.50539 0.12243 0.0
H37 H 0.98407 0.51687 0.10938 0.0
H38 H 0.95228 0.48313 1.00665 0.0
H39 H 0.89359 0.47219 0.01971 0.0
Tb40 Tb 0.63901 0.64011 0.02436 0.0
Tb41 Tb 0.57181 0.60114 0.9811 0.0
C42 C 0.57429 0.60511 0.05948 0.0
C43 C 0.7027 0.64495 0.08681 0.0
C44 C 0.73119 0.59081 0.11194 0.0
C45 C 0.75308 0.639 0.10688 0.0
C46 C 0.7389 0.66578 0.09447 0.0
C47 C 0.68017 0.59797 0.09451 0.0
C48 C 0.6943 0.57112 0.10718 0.0
C49 C 0.69039 0.66934 0.06489 0.0
O50 O 0.6238 0.56208 0.01771 0.0
O51 O 0.56991 0.53315 0.99149 0.0
O52 O 0.61551 0.62053 0.94397 0.0
O53 O 0.66478 0.6594 0.97683 0.0
O54 O 0.51632 0.56004 0.97704 0.0
O55 O 0.54819 0.59565 0.93477 0.0
O56 O 0.57887 0.67206 0.98542 0.0
O57 O 0.62511 0.70079 0.02254 0.0
O58 O 0.59586 0.59013 0.05258 0.0
O59 O 0.56406 0.61948 0.03343 0.0
C60 C 0.594 0.52479 1.00547 0.0
O61 O 0.69249 0.66148 0.03356 0.0
O62 O 0.66022 0.66701 0.07184 0.0
C63 C 0.65061 0.64543 0.94734 0.0
C64 C 0.49469 0.59624 0.93982 0.0
C65 C 0.45227 0.63681 0.92476 0.0
C66 C 0.47321 0.63204 0.9003 0.0
C67 C 0.49393 0.61153 0.9077 0.0
C68 C 0.47585 0.60406 0.96486 0.0
C69 C 0.45478 0.62399 0.95738 0.0
C70 C 0.51639 0.57409 0.94688 0.0
C71 C 0.60045 0.7065 1.00537 0.0
H72 H 0.78162 0.65544 0.10978 0.0
H73 H 0.75666 0.70188 0.08837 0.0
H74 H 0.65206 0.58124 0.08861 0.0
H75 H 0.67661 0.53437 0.11133 0.0
H76 H 0.47221 0.64203 0.87505 0.0
H77 H 0.50886 0.60678 0.88811 0.0
H78 H 0.47649 0.59357 0.99003 0.0
H79 H 0.43866 0.62637 0.97684 0.0
Tb80 Tb 0.48677 1.03906 1.00903 0.0
Tb81 Tb 0.56194 0.09508 0.04006 0.0
C82 C 0.54418 0.09515 0.96098 0.0
C83 C 0.3935 0.94073 0.99325 0.0
C84 C 0.33738 0.84581 0.99367 0.0
C85 C 0.36467 0.86095 0.97028 0.0
C86 C 0.3922 0.90759 0.97002 0.0
C87 C 0.3665 0.92561 0.01686 0.0
C88 C 0.33894 0.87894 0.01711 0.0
C89 C 0.42168 0.9911 0.99203 0.0
O90 O 0.50607 0.98548 1.00417 0.0
O91 O 0.5547 1.02257 0.03774 0.0
O92 O 0.5231 0.07894 0.08152 0.0
O93 O 0.48343 1.01132 0.05782 0.0
O94 O 0.61115 0.09849 0.03897 0.0
O95 O 0.60129 0.14034 0.07471 0.0
O96 O 0.55924 0.15844 0.02995 0.0
O97 O 0.50074 0.11872 0.01316 0.0
O98 O 0.51619 0.05491 0.96465 0.0
O99 O 0.56434 0.11805 0.98717 0.0
C100 C 0.5335 0.9852 0.01959 0.0
O101 O 0.4328 1.01421 0.02003 0.0
O102 O 0.44799 1.00199 0.9721 0.0
C103 C 0.49319 1.03875 0.08376 0.0
C104 C 0.66153 0.1652 0.0596 0.0
C105 C 0.73475 0.21315 0.04703 0.0
C106 C 0.72215 0.19131 0.07742 0.0
C107 C 0.68587 0.16772 0.08368 0.0
C108 C 0.67408 0.18956 0.02999 0.0
C109 C 0.71061 0.2138 0.02386 0.0
C110 C 0.62426 0.12908 0.06319 0.0
C111 C 0.53087 0.16027 0.02028 0.0
H112 H 0.36491 0.83666 0.95211 0.0
H113 H 0.41235 0.91769 0.95135 0.0
H114 H 0.36638 0.95009 0.03495 0.0
H115 H 0.31834 0.86919 0.03527 0.0
H116 H 0.74032 0.19075 0.09577 0.0
H117 H 0.67669 0.1487 0.10649 0.0
H118 H 0.65561 0.18743 0.0109 0.0
H119 H 0.71978 0.23042 1.00024 0.0
Tb120 Tb 0.74166 0.76866 0.33743 0.0
Tb121 Tb 0.67889 0.80604 0.35644 0.0
C122 C 0.6846 0.75733 0.28345 0.0
C123 C 0.84665 0.79609 0.3323 0.0
C124 C 0.92468 0.82757 0.33029 0.0
C125 C 0.89772 0.7832 0.31761 0.0
C126 C 0.86018 0.76801 0.31865 0.0
C127 C 0.87351 0.84035 0.34475 0.0
C128 C 0.91082 0.8554 0.34387 0.0
C129 C 0.80599 0.78169 0.33329 0.0
O130 O 0.74776 0.83335 0.31836 0.0
O131 O 0.73032 0.8675 0.35664 0.0
O132 O 0.71302 0.81849 0.40197 0.0
O133 O 0.73415 0.76697 0.39063 0.0
O134 O 0.65621 0.84513 0.33751 0.0
O135 O 0.6346 0.80443 0.38177 0.0
O136 O 0.65917 0.73688 0.37467 0.0
O137 O 0.68602 0.7046 0.34198 0.0
O138 O 0.71412 0.75556 0.28977 0.0
O139 O 0.66981 0.77332 0.30537 0.0
C140 C 0.75489 0.86924 0.33743 0.0
O141 O 0.79664 0.81039 0.34653 0.0
O142 O 0.77775 0.74275 0.3227 0.0
C143 C 0.73115 0.79677 0.41059 0.0
C144 C 0.60353 0.84687 0.35936 0.0
C145 C 0.54764 0.87198 0.35573 0.0
C146 C 0.55262 0.85043 0.38392 0.0
C147 C 0.57976 0.83794 0.3856 0.0
C148 C 0.59882 0.8688 0.3314 0.0
C149 C 0.57161 0.88092 0.32959 0.0
C150 C 0.63145 0.83109 0.35973 0.0
C151 C 0.65743 0.70153 0.35793 0.0
H152 H 0.90546 0.75928 0.30699 0.0
H153 H 0.84164 0.73385 0.3085 0.0
H154 H 0.8657 0.86427 0.35535 0.0
H155 H 0.92892 0.88994 0.35363 0.0
H156 H 0.53494 0.84208 0.40463 0.0
H157 H 0.58184 0.8207 0.40747 0.0
H158 H 0.61606 0.87621 0.31041 0.0
H159 H 0.56963 0.89782 0.30751 0.0
Tb160 Tb 0.28936 0.99295 0.32437 0.0
Tb161 Tb 0.25401 0.89067 0.32815 0.0
C162 C 0.30122 0.94771 0.26396 0.0
C163 C 0.32591 0.11668 0.35038 0.0
C164 C 0.32612 0.18785 0.38917 0.0
C165 C 0.35573 0.1969 0.37006 0.0
C166 C 0.35555 0.16145 0.35069 0.0
C167 C 0.29754 0.10651 0.37137 0.0
C168 C 0.29763 0.14191 0.39069 0.0
C169 C 0.3251 0.08077 0.32837 0.0
O170 O 0.2305 0.97055 0.31528 0.0
O171 O 0.21132 0.90489 0.34368 0.0
O172 O 0.26524 0.90939 0.38176 0.0
O173 O 0.27149 0.98145 0.37496 0.0
O174 O 0.20912 0.8458 0.30094 0.0
O175 O 0.23485 0.8187 0.33379 0.0
O176 O 0.30273 0.89451 0.34336 0.0
O177 O 0.33276 0.97211 0.33096 0.0
O178 O 0.29565 0.98159 0.2728 0.0
O179 O 0.28877 0.91065 0.28299 0.0
C180 C 0.20329 0.93393 0.32921 0.0
O181 O 0.33429 0.05293 0.34236 0.0
O182 O 0.29693 0.05813 0.30949 0.0
C183 C 0.27042 0.94955 0.39461 0.0
C184 C 0.2065 0.77626 0.28363 0.0
C185 C 0.18093 0.69749 0.24194 0.0
C186 C 0.20781 0.70697 0.26576 0.0
C187 C 0.2201 0.74577 0.2868 0.0
C188 C 0.18442 0.77108 0.25627 0.0
C189 C 0.17209 0.73221 0.23525 0.0
C190 C 0.21073 0.80908 0.31054 0.0
C191 C 0.33294 0.93292 0.33979 0.0
H192 H 0.37809 0.23194 0.36866 0.0
H193 H 0.37799 0.16936 0.33509 0.0
H194 H 0.27474 0.07172 0.37177 0.0
H195 H 0.27424 0.13396 0.40484 0.0
H196 H 0.21581 0.68138 0.27145 0.0
H197 H 0.23771 0.74945 0.30721 0.0
H198 H 0.174 0.7947 0.2528 0.0
H199 H 0.15204 0.72629 0.21669 0.0
Tb200 Tb 0.13658 0.35451 0.34598 0.0
Tb201 Tb 0.20899 0.45194 0.37134 0.0
C202 C 0.18574 0.42601 0.29598 0.0
C203 C 0.05846 0.23591 0.32556 0.0
C204 C 0.99755 0.14962 0.3339 0.0
C205 C 1.01394 0.16139 0.30302 0.0
C206 C 1.04422 0.20432 0.2989 0.0
C207 C 1.04357 0.22331 0.35702 0.0
C208 C 1.01315 0.18008 0.3612 0.0
C209 C 0.08671 0.28294 0.31883 0.0
O210 O 0.16459 0.33349 0.37962 0.0
O211 O 0.21584 0.39235 0.36134 0.0
O212 O 0.17203 0.428 0.41575 0.0
O213 O 0.12219 0.35984 0.3962 0.0
O214 O 0.25441 0.51774 0.36206 0.0
O215 O 0.25369 0.47804 0.40392 0.0
O216 O 0.16905 0.47377 0.37109 0.0
O217 O 0.12742 0.41241 0.33823 0.0
O218 O 0.17412 0.38343 0.3061 0.0
O219 O 0.20011 0.46046 0.31806 0.0
C220 C 0.19899 0.35451 0.3785 0.0
O221 O 0.08324 0.3172 0.33132 0.0
O222 O 0.11913 0.29035 0.32117 0.0
C223 C 0.13905 0.39141 0.41979 0.0
C224 C 0.31186 0.52609 0.37874 0.0
C225 C 0.38684 0.555 0.36969 0.0
C226 C 0.36345 0.51339 0.38618 0.0
C227 C 0.32702 0.49949 0.39077 0.0
C228 C 0.33503 0.56727 0.36195 0.0
C229 C 0.37147 0.58136 0.35754 0.0
C230 C 0.27349 0.5141 0.38581 0.0
C231 C 0.13928 0.45327 0.35323 0.0
H232 H 1.00247 0.13808 0.28177 0.0
H233 H 0.05565 0.21367 0.27453 0.0
H234 H 0.05451 0.24753 0.37785 0.0
H235 H 1.00077 0.17158 0.38519 0.0
H236 H 0.37343 0.49183 0.39651 0.0
H237 H 0.3109 0.46809 0.40437 0.0
H238 H 0.32504 0.58932 0.3525 0.0
H239 H 0.38759 0.61319 0.34431 0.0
Tb240 Tb 0.4109 0.06044 0.68116 0.0
Tb241 Tb 0.39238 0.14174 0.69264 0.0
C242 C 0.37357 0.0833 0.62448 0.0
C243 C 0.45114 0.98938 0.69825 0.0
C244 C 0.51488 1.01851 0.73296 0.0
C245 C 0.5108 1.00136 0.70017 0.0
C246 C 0.47902 0.98692 0.68289 0.0
C247 C 0.45308 0.99833 0.73256 0.0
C248 C 0.48478 1.01248 0.7499 0.0
C249 C 0.4259 0.99577 0.67758 0.0
O250 O 0.46222 0.12785 0.68243 0.0
O251 O 0.43935 0.17217 0.66294 0.0
O252 O 0.4316 0.1503 0.73218 0.0
O253 O 0.41579 0.07365 0.73428 0.0
O254 O 0.38032 0.19183 0.67416 0.0
O255 O 0.38495 0.18477 0.72661 0.0
O256 O 0.35036 0.08128 0.71586 0.0
O257 O 0.35251 1.02726 0.68202 0.0
O258 O 0.39933 0.07469 0.63168 0.0
O259 O 0.36233 0.1024 0.64712 0.0
C260 C 0.46687 0.16724 0.66946 0.0
O261 O 0.39807 0.99189 0.69254 0.0
O262 O 0.44041 1.03267 0.65913 0.0
C263 C 0.43194 0.11546 0.74783 0.0
C264 C 0.34418 0.20773 0.70934 0.0
C265 C 0.28304 0.21435 0.72244 0.0
C266 C 0.31702 0.2526 0.7287 0.0
C267 C 0.34729 0.24929 0.72216 0.0
C268 C 0.31038 0.16919 0.70318 0.0
C269 C 0.27997 0.17257 0.70953 0.0
C270 C 0.37653 0.20505 0.70363 0.0
C271 C 0.33454 1.03991 0.70172 0.0
H272 H 0.53337 1.00518 0.68634 0.0
H273 H 0.47789 0.97968 0.65654 0.0
H274 H 0.43169 0.99972 0.74526 0.0
H275 H 0.48693 1.02433 0.77536 0.0
H276 H 0.32021 0.28541 0.73819 0.0
H277 H 0.3732 0.27924 0.72717 0.0
H278 H 0.30757 0.13662 0.69359 0.0
H279 H 0.2541 0.14247 0.70469 0.0
Tb280 Tb 0.958 0.31079 0.69312 0.0
Tb281 Tb 0.88885 0.27412 0.65403 0.0
C282 C 0.896 0.27929 0.73276 0.0
C283 C 1.03878 0.32681 0.73629 0.0
C284 C 0.08881 0.29632 0.74395 0.0
C285 C 0.09788 0.34263 0.75209 0.0
C286 C 0.07304 0.35775 0.74823 0.0
C287 C 1.02911 0.28008 0.72955 0.0
C288 C 0.05389 0.2649 0.73342 0.0
C289 C 1.01478 0.34461 0.72734 0.0
O290 O 0.94192 0.2327 0.68815 0.0
O291 O 0.88924 0.20656 0.66049 0.0
O292 O 0.9302 0.29829 0.61397 0.0
O293 O 0.97767 0.30789 0.64469 0.0
O294 O 0.8364 0.21974 0.65123 0.0
O295 O 0.85604 0.27557 0.61595 0.0
O296 O 0.89437 0.34367 0.6609 0.0
O297 O 0.94541 0.37303 0.69175 0.0
O298 O 0.91745 0.26437 0.72519 0.0
O299 O 0.88426 0.2928 0.70728 0.0
C300 C 0.91222 0.19658 0.675 0.0
O301 O 1.01343 0.3517 0.69593 0.0
O302 O 0.98324 0.32343 0.73989 0.0
C303 C 0.96384 0.3078 0.61587 0.0
C304 C 0.79826 0.24687 0.63597 0.0
C305 C 0.73842 0.24243 0.66556 0.0
C306 C 0.73464 0.21287 0.63847 0.0
C307 C 0.76444 0.21504 0.62384 0.0
C308 C 0.80226 0.27949 0.66075 0.0
C309 C 0.7725 0.27743 0.67538 0.0
C310 C 0.82812 0.23983 0.62788 0.0
C311 C 0.91925 0.37905 0.6778 0.0
H312 H 0.12444 0.36747 0.76068 0.0
H313 H 0.08094 0.39398 0.75346 0.0
H314 H 1.00282 0.25577 0.72007 0.0
H315 H 1.04616 0.22917 0.72665 0.0
H316 H 0.70874 0.18511 0.63055 0.0
H317 H 0.76095 0.1894 0.60495 0.0
H318 H 0.8282 0.30407 0.67066 0.0
H319 H 0.77616 0.30087 0.69596 0.0
Tb320 Tb 0.80394 0.70879 0.67951 0.0
Tb321 Tb 0.88416 0.77336 0.69445 0.0
C322 C 0.84662 0.75834 0.6213 0.0
C323 C 0.71302 0.603 0.67412 0.0
C324 C 0.66545 0.50437 0.67583 0.0
C325 C 0.7026 0.52275 0.67573 0.0
C326 C 0.72601 0.57131 0.67492 0.0
C327 C 0.67613 0.58494 0.67443 0.0
C328 C 0.65272 0.5365 0.67526 0.0
C329 C 0.73732 0.6545 0.67179 0.0
O330 O 0.82394 0.65587 0.67612 0.0
O331 O 0.87998 0.7024 0.69612 0.0
O332 O 0.85399 0.76553 0.74203 0.0
O333 O 0.81187 0.69259 0.72925 0.0
O334 O 0.9333 0.79414 0.67283 0.0
O335 O 0.93055 0.8143 0.72421 0.0
O336 O 0.87596 0.8332 0.69226 0.0
O337 O 0.81592 0.78831 0.6814 0.0
O338 O 0.82509 0.71655 0.63102 0.0
O339 O 0.87028 0.78801 0.64316 0.0
C340 C 0.85524 0.66043 0.68565 0.0
O341 O 0.7522 0.67757 0.69912 0.0
O342 O 0.76008 0.66827 0.64795 0.0
C343 C 0.82595 0.72599 0.75128 0.0
C344 C 0.99025 0.84098 0.70094 0.0
C345 C 0.06547 0.8828 0.70228 0.0
C346 C 1.04636 0.87429 0.73186 0.0
C347 C 1.00919 0.85381 0.73119 0.0
C348 C 1.00937 0.84992 0.67143 0.0
C349 C 1.04642 0.87067 0.67208 0.0
C350 C 0.95076 0.81593 0.69975 0.0
C351 C 0.84557 0.83161 0.68623 0.0
H352 H 0.71372 0.49965 0.67656 0.0
H353 H 0.75431 0.58407 0.67472 0.0
H354 H 0.66529 0.60839 0.67362 0.0
H355 H 0.62449 0.52424 0.67477 0.0
H356 H 0.06018 0.8836 0.75556 0.0
H357 H 0.99524 0.84721 0.75434 0.0
H358 H 0.99565 0.84038 0.64768 0.0
H359 H 0.06009 0.87619 0.64884 0.0
C360 C 0.40986 0.66558 0.93813 0.0
C361 C 0.42235 0.64453 0.91549 0.0
C362 C 0.37382 0.6529 0.93807 0.0
C363 C 0.35055 0.61848 0.91507 0.0
C364 C 0.36465 0.60606 0.88781 0.0
C365 C 0.40068 0.61934 0.88833 0.0
C366 C 0.3599 0.66983 0.96597 0.0
C367 C 0.34093 0.57106 0.86175 0.0
C368 C 0.27673 0.50948 0.95152 0.0
C369 C 0.24671 0.50933 0.93863 0.0
C370 C 0.31062 0.54614 0.9452 0.0
C371 C 0.31449 0.58395 0.9257 0.0
C372 C 0.2841 0.58509 0.9139 0.0
C373 C 0.25037 0.54738 0.92036 0.0
C374 C 0.34225 0.54323 0.95845 0.0
C375 C 0.28716 0.62594 0.89473 0.0
H376 H 0.42705 0.68722 0.95823 0.0
H377 H 0.41017 0.60392 0.87003 0.0
H378 H 0.33679 0.67314 0.9576 0.0
H379 H 0.35102 0.64421 0.98622 0.0
H380 H 0.38077 0.70406 0.97612 0.0
H381 H 0.35576 0.57343 0.83889 0.0
H382 H 0.33021 0.53529 0.87151 0.0
H383 H 0.31817 0.57618 0.85528 0.0
H384 H 0.27366 0.48005 0.96578 0.0
H385 H 0.22684 0.54766 0.91131 0.0
H386 H 0.35917 0.57426 0.97429 0.0
H387 H 0.35862 0.54259 0.93768 0.0
H388 H 0.33434 0.51156 0.97337 0.0
H389 H 0.29704 0.65689 0.91151 0.0
H390 H 0.26125 0.61882 0.88394 0.0
H391 H 0.30658 0.63525 0.87456 0.0
C392 C 0.55815 0.93222 0.04433 0.0
C393 C 0.54174 0.94281 0.01763 0.0
C394 C 0.56726 0.89517 0.04345 0.0
C395 C 0.56248 0.86692 0.01425 0.0
C396 C 0.54658 0.87829 0.98681 0.0
C397 C 0.53598 0.91403 0.98908 0.0
C398 C 0.58191 0.8867 0.07494 0.0
C399 C 0.54092 0.85356 0.95386 0.0
C400 C 0.61796 0.79674 0.01506 0.0
C401 C 0.59245 0.74886 1.00964 0.0
C402 C 0.60917 0.83434 0.01581 0.0
C403 C 0.57315 0.82612 0.01272 0.0
C404 C 0.54736 0.77743 1.00835 0.0
C405 C 0.55716 0.7412 1.00607 0.0
C406 C 0.6397 0.88343 0.01927 0.0
C407 C 0.50831 0.76185 1.00618 0.0
H408 H 0.56352 0.9528 0.06694 0.0
H409 H 0.52409 0.92043 0.9675 0.0
H410 H 0.57836 0.85097 0.07586 0.0
H411 H 0.61062 0.91241 0.07709 0.0
H412 H 0.56893 0.89216 0.09682 0.0
H413 H 0.54722 0.87854 0.93339 0.0
H414 H 0.5573 0.83637 0.95111 0.0
H415 H 0.5125 0.82686 0.95097 0.0
H416 H 0.6455 0.80556 0.01762 0.0
H417 H 0.53617 0.70553 1.00188 0.0
H418 H 0.64865 0.89047 0.04555 0.0
H419 H 0.63267 0.90998 0.0112 0.0
H420 H 0.66256 0.88739 1.00456 0.0
H421 H 0.49265 0.72838 0.01919 0.0
H422 H 0.49959 0.75523 0.97983 0.0
H423 H 0.50184 0.7879 0.01688 0.0
C424 C 0.29259 0.77192 0.96304 0.0
C425 C 0.30708 0.79617 0.99315 0.0
C426 C 0.26333 0.72616 0.96214 0.0
C427 C 0.24762 0.70365 0.99204 0.0
C428 C 0.26261 0.72738 0.02252 0.0
C429 C 0.29198 0.77304 0.02271 0.0
C430 C 0.24839 0.7027 0.929 0.0
C431 C 0.24712 0.70483 0.05505 0.0
C432 C 0.14934 0.61069 0.99176 0.0
C433 C 0.15039 0.56869 0.99286 0.0
C434 C 0.18059 0.65438 0.99101 0.0
C435 C 0.21419 0.65679 0.99149 0.0
C436 C 0.21556 0.61456 0.99196 0.0
C437 C 0.18377 0.57115 0.99257 0.0
C438 C 0.17759 0.69818 0.99018 0.0
C439 C 0.25068 0.61527 0.99224 0.0
H440 H 0.30344 0.78921 0.93993 0.0
H441 H 0.30314 0.79066 0.04619 0.0
H442 H 0.24176 0.66557 0.92915 0.0
H443 H 0.22349 0.70341 0.92368 0.0
H444 H 0.26715 0.72046 0.90864 0.0
H445 H 0.26286 0.72664 0.07663 0.0
H446 H 0.21961 0.69871 0.05694 0.0
H447 H 0.24573 0.67032 0.05636 0.0
H448 H 0.12392 0.60961 0.99186 0.0
H449 H 0.18514 0.53917 0.99335 0.0
H450 H 0.1915 0.71902 0.96832 0.0
H451 H 0.19066 0.72015 0.01252 0.0
H452 H 0.14958 0.6905 0.98915 0.0
H453 H 0.26625 0.63404 0.97038 0.0
H454 H 0.24741 0.57961 0.99211 0.0
H455 H 0.26643 0.63457 0.01454 0.0
C456 C 0.51231 0.22778 0.02434 0.0
C457 C 0.53657 0.21199 0.01581 0.0
C458 C 0.52105 0.27683 0.02374 0.0
C459 C 0.55506 0.31419 0.01316 0.0
C460 C 0.57899 0.29777 1.0035 0.0
C461 C 0.57004 0.24913 1.00568 0.0
C462 C 0.49304 0.28786 0.03547 0.0
C463 C 0.61507 0.33147 0.99044 0.0
C464 C 0.55891 0.43515 0.98725 0.0
C465 C 0.58559 0.47151 1.00755 0.0
C466 C 0.54954 0.38618 0.98841 0.0
C467 C 0.56547 0.36882 0.01166 0.0
C468 C 0.59223 0.40542 0.03268 0.0
C469 C 0.602 0.4546 0.03005 0.0
C470 C 0.52211 0.35319 0.96373 0.0
C471 C 0.61112 0.39355 0.05903 0.0
H472 H 0.48644 0.20193 0.03289 0.0
H473 H 0.59009 0.24007 0.99889 0.0
H474 H 0.50404 0.32516 0.04258 0.0
H475 H 0.47295 0.27883 0.01541 0.0
H476 H 0.47905 0.26618 0.05703 0.0
H477 H 0.62354 0.3141 0.97172 0.0
H478 H 0.6157 0.36236 0.97905 0.0
H479 H 0.63474 0.34354 0.01113 0.0
H480 H 0.54508 0.44506 0.96945 0.0
H481 H 0.62237 0.47991 0.04662 0.0
H482 H 0.49533 0.34074 0.97403 0.0
H483 H 0.52535 0.32247 0.95789 0.0
H484 H 0.52338 0.37121 0.9403 0.0
H485 H 0.59691 0.356 0.06523 0.0
H486 H 0.61455 0.41441 0.08196 0.0
H487 H 0.63808 0.40311 0.05038 0.0
C488 C 0.79413 0.27762 0.02972 0.0
C489 C 0.77248 0.23113 0.03873 0.0
C490 C 0.83059 0.29533 0.02447 0.0
C491 C 0.84537 0.26546 0.02771 0.0
C492 C 0.82314 0.21792 0.03524 0.0
C493 C 0.78703 0.20146 0.04094 0.0
C494 C 0.85355 0.34644 0.01693 0.0
C495 C 0.83773 0.18486 0.03855 0.0
C496 C 0.9388 0.30949 0.9955 0.0
C497 C 0.9592 0.32933 0.02438 0.0
C498 C 0.90153 0.28741 0.9962 0.0
C499 C 0.8845 0.28492 0.02653 0.0
C500 C 0.90503 0.30253 0.05599 0.0
C501 C 0.94208 0.32451 0.05453 0.0
C502 C 0.88055 0.26902 0.96428 0.0
C503 C 0.88799 0.3005 0.08886 0.0
H504 H 0.7828 0.30049 0.02802 0.0
H505 H 0.7701 0.16529 0.04747 0.0
H506 H 0.87249 0.36437 0.03778 0.0
H507 H 0.86945 0.3506 0.99455 0.0
H508 H 0.83768 0.36418 0.01295 0.0
H509 H 0.81641 0.14809 0.04132 0.0
H510 H 0.85362 0.1869 0.0166 0.0
H511 H 0.85568 0.19507 0.06053 0.0
H512 H 0.95195 0.31396 0.97203 0.0
H513 H 0.95783 0.34007 0.07685 0.0
H514 H 0.86723 0.28949 0.95823 0.0
H515 H 0.85949 0.23218 0.96703 0.0
H516 H 0.89756 0.27108 0.9432 0.0
H517 H 0.87465 0.32191 0.088 0.0
H518 H 0.90759 0.31361 0.10969 0.0
H519 H 0.86739 0.26413 0.09402 0.0
C520 C 0.86355 0.51796 0.06039 0.0
C521 C 0.87205 0.48928 0.07917 0.0
C522 C 0.83585 0.52593 0.06953 0.0
C523 C 0.8157 0.50395 0.09783 0.0
C524 C 0.82273 0.4726 0.11572 0.0
C525 C 0.85127 0.46615 0.10644 0.0
C526 C 0.82946 0.55995 0.04986 0.0
C527 C 0.80118 0.44739 0.14537 0.0
C528 C 0.77969 0.57774 0.13443 0.0
C529 C 0.74768 0.56078 0.11655 0.0
C530 C 0.80097 0.55686 0.1309 0.0
C531 C 0.78946 0.51732 0.10967 0.0
C532 C 0.75513 0.49642 0.09511 0.0
C533 C 0.73475 0.51868 0.0984 0.0
C534 C 0.83735 0.58015 0.14709 0.0
C535 C 0.74127 0.45314 0.0734 0.0
H536 H 0.87987 0.53628 0.03955 0.0
H537 H 0.85778 0.44374 0.12086 0.0
H538 H 0.80148 0.54306 0.04104 0.0
H539 H 0.83424 0.59019 0.0659 0.0
H540 H 0.84696 0.57321 0.02808 0.0
H541 H 0.80476 0.41726 0.15191 0.0
H542 H 0.80965 0.47178 0.16698 0.0
H543 H 0.77254 0.43469 0.14077 0.0
H544 H 0.78934 0.60937 0.14937 0.0
H545 H 0.71003 0.50495 0.08449 0.0
H546 H 0.85774 0.59756 0.12791 0.0
H547 H 0.84262 0.55398 0.15902 0.0
H548 H 0.84052 0.6068 0.16597 0.0
H549 H 0.75328 0.46289 0.04859 0.0
H550 H 0.71196 0.43559 0.07023 0.0
H551 H 0.74861 0.42798 0.08387 0.0
C552 C 0.99139 0.87982 0.3514 0.0
C553 C 0.96614 0.8447 0.32946 0.0
C554 C 1.0291 0.89579 0.35106 0.0
C555 C 1.04439 0.87747 0.32806 0.0
C556 C 1.01926 0.84227 0.30573 0.0
C557 C 0.98159 0.82665 0.30674 0.0
C558 C 0.05284 0.93253 0.37606 0.0
C559 C 1.0323 0.82069 0.28026 0.0
C560 C 0.149 0.94584 0.31027 0.0
C561 C 0.16315 0.92233 0.32902 0.0
C562 C 0.11152 0.9321 0.30964 0.0
C563 C 0.08568 0.89349 0.32827 0.0
C564 C 0.09998 0.87013 0.34736 0.0
C565 C 0.13727 0.88425 0.34735 0.0
C566 C 0.09942 0.95907 0.28845 0.0
C567 C 0.07556 0.82935 0.36817 0.0
H568 H 0.98171 0.89483 0.36976 0.0
H569 H 0.96419 0.8002 0.28899 0.0
H570 H 0.06616 0.91843 0.39207 0.0
H571 H 0.07395 0.96306 0.36322 0.0
H572 H 1.03803 0.94458 0.39199 0.0
H573 H 1.01059 0.79519 0.26374 0.0
H574 H 0.05286 0.8484 0.26492 0.0
H575 H 1.04492 0.80263 0.29276 0.0
H576 H 0.16722 0.97494 0.29552 0.0
H577 H 0.14623 0.86469 0.36213 0.0
H578 H 0.08633 0.97402 0.30401 0.0
H579 H 0.07943 0.9352 0.26994 0.0
H580 H 0.12171 0.98784 0.27526 0.0
H581 H 0.06137 0.84022 0.38583 0.0
H582 H 0.08998 0.81498 0.38236 0.0
H583 H 0.05519 0.80115 0.35212 0.0
C584 C 0.25035 0.36159 0.4103 0.0
C585 C 0.21863 0.33342 0.39289 0.0
C586 C 0.27228 0.34378 0.4203 0.0
C587 C 0.26255 0.29728 0.41147 0.0
C588 C 0.22911 0.26776 0.39601 0.0
C589 C 0.20722 0.2862 0.38731 0.0
C590 C 0.30679 0.37582 0.43812 0.0
C591 C 0.21782 0.21795 0.3859 0.0
C592 C 0.32626 0.26173 0.37892 0.0
C593 C 0.32103 0.22665 0.40113 0.0
C594 C 0.31033 0.2892 0.38398 0.0
C595 C 0.2892 0.28167 0.41221 0.0
C596 C 0.28838 0.25143 0.43715 0.0
C597 C 0.30403 0.22361 0.43113 0.0
C598 C 0.31235 0.32172 0.35694 0.0
C599 C 0.26807 0.24505 0.46858 0.0
H600 H 0.25832 0.39783 0.41546 0.0
H601 H 0.18241 0.26461 0.37405 0.0
H602 H 0.31571 0.35621 0.45404 0.0
H603 H 0.32764 0.39513 0.41972 0.0
H604 H 0.30421 0.40207 0.45366 0.0
H605 H 0.19024 0.19912 0.37581 0.0
H606 H 0.23589 0.21768 0.36668 0.0
H607 H 0.21961 0.19849 0.40733 0.0
H608 H 0.33943 0.26432 0.35571 0.0
H609 H 0.30071 0.19716 0.4487 0.0
H610 H 0.31927 0.35645 0.3675 0.0
H611 H 0.28606 0.30737 0.34439 0.0
H612 H 0.3323 0.32646 0.33805 0.0
H613 H 0.27036 0.27858 0.47725 0.0
H614 H 0.27767 0.23092 0.48854 0.0
H615 H 0.23956 0.22002 0.46387 0.0
C616 C 0.95526 0.075 0.36081 0.0
C617 C 0.96232 0.10809 0.33639 0.0
C618 C 0.92167 1.03517 0.36253 0.0
C619 C 0.89481 1.02922 0.33959 0.0
C620 C 0.90178 0.06305 0.31529 0.0
C621 C 0.93555 0.10207 0.31394 0.0
C622 C 0.91502 0.99924 0.38846 0.0
C623 C 0.87362 0.05796 0.29062 0.0
C624 C 0.81743 0.91029 0.31886 0.0
C625 C 0.79042 0.91064 0.33754 0.0
C626 C 0.85199 0.94801 0.32038 0.0
C627 C 0.85937 0.98736 0.34042 0.0
C628 C 0.83226 0.98806 0.35927 0.0
C629 C 0.79803 0.94945 0.35774 0.0
C630 C 0.88047 0.94596 0.30026 0.0
C631 C 0.8393 1.02984 0.38062 0.0
H632 H 0.97616 0.07992 0.37808 0.0
H633 H 0.94104 0.12824 0.29542 0.0
H634 H 0.89232 0.99382 0.40396 0.0
H635 H 0.90779 0.9652 0.37633 0.0
H636 H 0.93857 1.0096 0.40481 0.0
H637 H 0.88328 0.0881 0.27379 0.0
H638 H 0.86468 1.02569 0.27541 0.0
H639 H 0.85013 0.05462 0.3038 0.0
H640 H 0.81172 0.88032 0.30324 0.0
H641 H 0.77726 0.94974 0.37236 0.0
H642 H 0.90351 0.95309 0.31638 0.0
H643 H 0.89009 0.97329 0.28118 0.0
H644 H 0.8708 0.91147 0.28772 0.0
H645 H 0.86142 1.03824 0.39833 0.0
H646 H 0.81561 1.024 0.39478 0.0
H647 H 0.84752 0.06079 0.36489 0.0
C648 C 0.16684 0.61583 0.23331 0.0
C649 C 0.15467 0.64802 0.23488 0.0
C650 C 0.14998 0.57513 0.25171 0.0
C651 C 0.11886 0.56536 0.26914 0.0
C652 C 0.10168 0.59146 0.26297 0.0
C653 C 0.11975 0.6327 0.24522 0.0
C654 C 0.16889 0.54751 0.25711 0.0
C655 C 0.06765 0.58078 0.27986 0.0
C656 C 0.09453 0.46022 0.31887 0.0
C657 C 0.12258 0.48056 0.34225 0.0
C658 C 0.089 0.48793 0.29639 0.0
C659 C 0.11065 0.53677 0.29899 0.0
C660 C 0.13276 0.55714 0.32739 0.0
C661 C 0.13914 0.52861 0.34851 0.0
C662 C 0.06338 0.46403 0.26787 0.0
C663 C 0.15414 0.6094 0.33251 0.0
H664 H 0.19302 0.62671 0.22363 0.0
H665 H 0.1091 0.65639 0.24501 0.0
H666 H 0.18362 0.55824 0.28108 0.0
H667 H 0.1497 0.50959 0.25804 0.0
H668 H 0.18838 0.55394 0.23741 0.0
H669 H 0.05336 0.59589 0.2663 0.0
H670 H 0.04987 0.54261 0.28203 0.0
H671 H 0.07394 0.59631 0.30522 0.0
H672 H 0.07986 0.42264 0.31515 0.0
H673 H 0.15968 0.54447 0.36752 0.0
H674 H 0.07098 0.44078 0.25436 0.0
H675 H 0.06206 0.48859 0.25015 0.0
H676 H 1.03644 0.44142 0.2777 0.0
H677 H 0.17851 0.62332 0.31752 0.0
H678 H 0.16233 0.61886 0.35886 0.0
H679 H 0.13884 0.62656 0.32453 0.0
C680 C 0.43941 0.53905 0.36209 0.0
C681 C 0.42674 0.57111 0.36567 0.0
C682 C 0.47623 0.55363 0.35866 0.0
C683 C 0.50229 0.60189 0.35899 0.0
C684 C 0.48975 0.63444 0.36239 0.0
C685 C 0.45279 0.61895 0.36555 0.0
C686 C 0.48732 0.51703 0.35468 0.0
C687 C 0.51565 0.68619 0.36317 0.0
C688 C 0.60047 0.64642 0.38585 0.0
C689 C 0.6196 0.66085 0.35613 0.0
C690 C 0.56285 0.6256 0.38688 0.0
C691 C 0.54246 0.61843 0.35743 0.0
C692 C 0.56127 0.63 0.32702 0.0
C693 C 0.59913 0.65105 0.32677 0.0
C694 C 0.54518 0.6144 0.4201 0.0
C695 C 0.54176 0.62319 0.29461 0.0
H696 H 0.4204 0.50206 0.36152 0.0
H697 H 0.44443 0.6448 0.36869 0.0
H698 H 0.50273 0.5231 0.33169 0.0
H699 H 0.50494 0.51969 0.37565 0.0
H700 H 0.46427 0.48108 0.35363 0.0
H701 H 0.5022 0.70742 0.36526 0.0
H702 H 0.53436 0.69508 0.38446 0.0
H703 H 0.53165 0.69612 0.34036 0.0
H704 H 0.6154 0.655 0.40897 0.0
H705 H 0.61289 0.66326 0.30364 0.0
H706 H 0.52233 0.57836 0.41984 0.0
H707 H 0.53472 0.63848 0.42549 0.0
H708 H 0.56376 0.61782 0.44044 0.0
H709 H 0.51644 0.5896 0.29395 0.0
H710 H 0.55802 0.62393 0.27327 0.0
H711 H 0.53528 0.65167 0.29175 0.0
C712 C 0.36393 0.8854 0.35073 0.0
C713 C 0.36674 0.9289 0.34293 0.0
C714 C 0.39372 0.87832 0.35258 0.0
C715 C 0.42847 0.91554 0.34685 0.0
C716 C 0.43181 0.95981 0.33919 0.0
C717 C 0.40125 0.96589 0.33717 0.0
C718 C 0.38775 0.83026 0.36039 0.0
C719 C 0.46786 1.00098 0.33293 0.0
C720 C 0.50626 0.89951 0.38127 0.0
C721 C 0.51773 0.88457 0.35334 0.0
C722 C 0.47853 0.91103 0.37932 0.0
C723 C 0.46065 0.90738 0.34874 0.0
C724 C 0.47218 0.89261 0.32043 0.0
C725 C 0.50022 0.88177 0.323 0.0
C726 C 0.46812 0.92693 0.41034 0.0
C727 C 0.45423 0.88718 0.28724 0.0
H728 H 0.33793 0.85594 0.3552 0.0
H729 H 0.40446 0.99965 0.33089 0.0
H730 H 0.40272 0.83182 0.38321 0.0
H731 H 0.35928 0.80464 0.36395 0.0
H732 H 0.39787 0.81733 0.34003 0.0
H733 H 0.46671 1.03355 0.32893 0.0
H734 H 0.486 1.00661 0.35419 0.0
H735 H 0.47948 0.99376 0.31078 0.0
H736 H 0.51931 0.90281 0.40491 0.0
H737 H 0.50783 0.86987 0.30104 0.0
H738 H 0.44042 0.90127 0.41667 0.0
H739 H 0.46908 0.9608 0.40617 0.0
H740 H 0.48567 0.93096 0.43179 0.0
H741 H 0.42585 0.86012 0.28859 0.0
H742 H 0.46673 0.87708 0.26725 0.0
H743 H 0.45513 0.92032 0.28053 0.0
C744 C 0.67393 0.21333 0.6729 0.0
C745 C 0.70768 0.22991 0.68708 0.0
C746 C 0.64355 0.18576 0.69112 0.0
C747 C 0.64733 0.17543 0.72435 0.0
C748 C 0.6809 0.19851 0.74024 0.0
C749 C 0.71097 0.22519 0.72125 0.0
C750 C 0.60773 0.1641 0.67383 0.0
C751 C 0.68538 0.19169 0.77643 0.0
C752 C 0.55563 0.09832 0.75474 0.0
C753 C 0.55065 0.05453 0.74445 0.0
C754 C 0.5889 0.13844 0.75277 0.0
C755 C 0.61737 0.13451 0.73957 0.0
C756 C 0.61364 0.08973 0.73356 0.0
C757 C 0.58025 0.05005 0.73662 0.0
C758 C 0.59269 0.18522 0.76219 0.0
C759 C 0.6435 0.08393 0.71951 0.0
H760 H 0.67141 0.21849 0.64678 0.0
H761 H 0.73702 0.23858 0.73262 0.0
H762 H 0.596 0.12557 0.67249 0.0
H763 H 0.58937 0.17191 0.68801 0.0
H764 H 0.60941 0.1771 0.6483 0.0
H765 H 0.7108 0.22032 0.78671 0.0
H766 H 0.66311 0.19001 0.79091 0.0
H767 H 0.68539 0.15828 0.77962 0.0
H768 H 0.53296 0.10219 0.76125 0.0
H769 H 0.57654 1.0161 0.7293 0.0
H770 H 0.60826 0.21212 0.7438 0.0
H771 H 0.60719 0.19705 0.78624 0.0
H772 H 0.5665 0.18325 0.76479 0.0
H773 H 0.64846 0.09662 0.69372 0.0
H774 H 0.63731 0.04691 0.71925 0.0
H775 H 0.66833 0.10498 0.73403 0.0
C776 C 0.88126 0.41805 0.69561 0.0
C777 C 0.91355 0.42316 0.68284 0.0
C778 C 0.87213 0.45503 0.69701 0.0
C779 C 0.89443 0.50063 0.68369 0.0
C780 C 0.92704 0.50585 0.6702 0.0
C781 C 0.93608 0.46853 0.67038 0.0
C782 C 0.83762 0.44384 0.71306 0.0
C783 C 0.95299 0.5509 0.65433 0.0
C784 C 0.84525 0.57639 0.66605 0.0
C785 C 0.864 0.61838 0.68526 0.0
C786 C 0.8549 0.53966 0.66472 0.0
C787 C 0.88386 0.54154 0.68403 0.0
C788 C 0.90223 0.5835 0.70407 0.0
C789 C 0.89289 0.62035 0.70382 0.0
C790 C 0.83343 0.4988 0.64163 0.0
C791 C 0.93232 0.59044 0.72671 0.0
H792 H 0.86238 0.38408 0.70491 0.0
H793 H 0.96068 0.47473 0.65927 0.0
H794 H 0.83731 0.47552 0.7223 0.0
H795 H 0.81565 0.42539 0.69474 0.0
H796 H 0.83225 0.41996 0.73409 0.0
H797 H 0.96493 0.54387 0.63229 0.0
H798 H 0.94063 0.57194 0.64662 0.0
H799 H 0.97494 0.57181 0.67218 0.0
H800 H 0.82304 0.57231 0.65103 0.0
H801 H 0.9085 0.65124 0.71912 0.0
H802 H 0.80824 0.47439 0.65374 0.0
H803 H 0.84762 0.47964 0.63482 0.0
H804 H 0.82635 0.51062 0.6186 0.0
H805 H 0.93041 0.55691 0.73403 0.0
H806 H 0.93307 0.61016 0.74949 0.0
H807 H 0.95778 0.6115 0.71388 0.0
C808 C 0.64707 0.42052 0.65857 0.0
C809 C 0.64002 0.45224 0.67616 0.0
C810 C 0.62258 0.372 0.6575 0.0
C811 C 0.58988 0.35415 0.67422 0.0
C812 C 0.58314 0.38569 0.69288 0.0
C813 C 0.60806 0.43391 0.69363 0.0
C814 C 0.6314 0.33984 0.63792 0.0
C815 C 0.54922 0.36844 0.71188 0.0
C816 C 0.50653 0.244 0.64355 0.0
C817 C 0.50236 0.21053 0.66701 0.0
C818 C 0.53558 0.28976 0.64481 0.0
C819 C 0.56152 0.30337 0.67042 0.0
C820 C 0.55845 0.26913 0.69336 0.0
C821 C 0.52917 0.22306 0.69119 0.0
C822 C 0.53735 0.32439 0.61967 0.0
C823 C 0.5855 0.28118 0.72081 0.0
H824 H 0.67139 0.43369 0.64478 0.0
H825 H 0.60241 0.45736 0.70809 0.0
H826 H 0.6294 0.3115 0.65393 0.0
H827 H 0.61193 0.32313 0.61726 0.0
H828 H 0.65848 0.35848 0.62752 0.0
H829 H 0.54844 0.39681 0.72639 0.0
H830 H 0.52615 0.35278 0.69448 0.0
H831 H 0.54619 0.34071 0.72907 0.0
H832 H 0.48603 0.2349 0.62477 0.0
H833 H 0.52622 0.19781 0.70965 0.0
H834 H 0.56377 0.34177 0.60797 0.0
H835 H 0.53379 0.35195 0.63223 0.0
H836 H 0.51666 0.30771 0.59994 0.0
H837 H 0.59611 0.31753 0.73016 0.0
H838 H 0.60806 0.27775 0.71118 0.0
H839 H 0.57406 0.25729 0.74191 0.0
C840 C 0.87596 0.91588 0.66153 0.0
C841 C 0.84895 0.88201 0.68188 0.0
C842 C 0.88539 0.96476 0.66011 0.0
C843 C 0.86914 0.9847 0.68057 0.0
C844 C 0.84187 0.95095 0.70146 0.0
C845 C 0.8323 0.90158 0.70181 0.0
C846 C 0.91378 0.99564 0.63648 0.0
C847 C 0.82317 0.96746 0.72468 0.0
C848 C 0.92004 0.125 0.6971 0.0
C849 C 0.9026 0.14275 0.67654 0.0
C850 C 0.90949 0.07547 0.69903 0.0
C851 C 0.88048 1.03952 0.67975 0.0
C852 C 0.86317 0.0574 0.65875 0.0
C853 C 0.87379 0.1068 0.65774 0.0
C854 C 0.92968 0.06147 0.72243 0.0
C855 C 0.83295 1.02384 0.63659 0.0
H856 H 0.89068 0.90406 0.64645 0.0
H857 H 0.81249 0.87862 0.71898 0.0
H858 H 0.90427 1.01511 0.62109 0.0
H859 H 0.93747 1.02176 0.65064 0.0
H860 H 0.92185 0.97549 0.61986 0.0
H861 H 0.80291 0.93865 0.73954 0.0
H862 H 0.84286 0.99482 0.74173 0.0
H863 H 0.81008 0.98356 0.71046 0.0
H864 H 0.94204 0.15 0.71238 0.0
H865 H 0.85911 0.11737 0.6415 0.0
H866 H 0.94327 0.04597 0.70822 0.0
H867 H 0.91099 1.03431 0.73933 0.0
H868 H 0.94981 0.0915 0.73743 0.0
H869 H 0.84189 1.00427 0.62038 0.0
H870 H 0.82241 0.04178 0.62082 0.0
H871 H 0.81109 0.99788 0.6518 0.0
C872 C 0.12593 0.93805 0.67999 0.0
C873 C 0.10501 0.90366 0.70271 0.0
C874 C 0.16309 0.95766 0.67979 0.0
C875 C 0.18 0.94248 0.70276 0.0
C876 C 0.15905 0.90747 0.72556 0.0
C877 C 0.12193 0.88867 0.72535 0.0
C878 C 0.18432 0.99529 0.65532 0.0
C879 C 0.1759 0.89004 0.75032 0.0
C880 C 0.27529 0.97131 0.68446 0.0
C881 C 0.29513 1.01158 0.70416 0.0
C882 C 0.23783 0.9478 0.68424 0.0
C883 C 0.21971 0.96505 0.70403 0.0
C884 C 0.23964 1.00511 0.72442 0.0
C885 C 0.27688 1.02762 0.72435 0.0
C886 C 0.21766 0.90526 0.66211 0.0
C887 C 0.22166 1.0252 0.74564 0.0
H888 H 0.11325 0.95028 0.66262 0.0
H889 H 0.10605 0.86168 0.74268 0.0
H890 H 0.20263 1.02822 0.66876 0.0
H891 H 0.20085 0.98514 0.64028 0.0
H892 H 0.16716 1.00218 0.63838 0.0
H893 H 0.1559 0.86141 0.76551 0.0
H894 H 0.19203 0.87725 0.73732 0.0
H895 H 0.1941 0.91913 0.76711 0.0
H896 H 0.28899 0.9588 0.66855 0.0
H897 H 0.29174 0.05875 0.73963 0.0
H898 H 0.20322 0.91281 0.64251 0.0
H899 H 0.19758 0.87574 0.67655 0.0
H900 H 0.23541 0.89424 0.65009 0.0
H901 H 0.20634 1.03641 0.7297 0.0
H902 H 0.24089 0.05571 0.76087 0.0
H903 H 0.20258 0.99819 0.76236 0.0
C904 C 0.22436 0.20482 0.70438 0.0
C905 C 0.2512 0.21903 0.7286 0.0
C906 C 0.19613 0.21392 0.70836 0.0
C907 C 0.19467 0.23748 0.73737 0.0
C908 C 0.22077 0.24984 0.7626 0.0
C909 C 0.24879 0.24059 0.75786 0.0
C910 C 0.16886 0.20035 0.68084 0.0
C911 C 0.21992 0.27453 0.79403 0.0
C912 C 0.1496 0.31093 0.73034 0.0
C913 C 0.1163 0.28177 0.74394 0.0
C914 C 0.17532 0.29694 0.72824 0.0
C915 C 0.16761 0.25268 0.7401 0.0
C916 C 0.13422 0.22323 0.75424 0.0
C917 C 0.10889 0.23809 0.75591 0.0
C918 C 0.21057 0.32929 0.71285 0.0
C919 C 0.12519 0.17597 0.76736 0.0
H920 H 0.22626 0.18841 0.68164 0.0
H921 H 0.26924 0.25099 0.77686 0.0
H922 H 0.14169 0.18042 0.69076 0.0
H923 H 0.17125 0.2323 0.66951 0.0
H924 H 0.17211 0.17894 0.66116 0.0
H925 H 0.24027 0.2779 0.81244 0.0
H926 H 0.2247 0.31001 0.7882 0.0
H927 H 0.1934 0.25547 0.80542 0.0
H928 H 0.15527 0.34435 0.72048 0.0
H929 H 0.08327 0.21555 0.76665 0.0
H930 H 0.21462 0.31201 0.69087 0.0
H931 H 0.2325 0.33725 0.7307 0.0
H932 H 0.21246 0.3627 0.70508 0.0
H933 H 0.12649 0.15378 0.74713 0.0
H934 H 0.0983 0.15764 0.77817 0.0
H935 H 0.14492 0.17982 0.7866 0.0
C936 C 0.1962 0.46699 0.24027 0.0
C937 C 0.17373 0.43238 0.26217 0.0
C938 C 0.18409 0.47092 0.20821 0.0
C939 C 0.14828 0.44057 0.19788 0.0
C940 C 0.12545 0.40644 0.22041 0.0
C941 C 0.13847 0.40236 0.25169 0.0
C942 C 0.20969 0.50759 0.18529 0.0
C943 C 0.08696 0.37395 0.21149 0.0
C944 C 0.10531 0.47365 0.12626 0.0
C945 C 0.10463 0.44496 0.09991 0.0
C946 C 0.11945 0.47289 0.15784 0.0
C947 C 0.13453 0.44366 0.16362 0.0
C948 C 0.13465 0.41539 0.1368 0.0
C949 C 0.11955 0.41604 0.10565 0.0
C950 C 0.11835 0.50396 0.18485 0.0
C951 C 0.15053 0.38395 0.14105 0.0
H952 H 0.22342 0.49046 0.24793 0.0
H953 H 0.12062 0.37577 0.26839 0.0
H954 H 0.21235 0.49064 0.16241 0.0
H955 H 0.19929 0.53097 0.1778 0.0
H956 H 0.23638 0.52908 0.19687 0.0
H957 H 0.07186 0.352 0.23257 0.0
H958 H 0.0742 0.39431 0.20326 0.0
H959 H 0.08505 0.35067 0.19056 0.0
H960 H 0.09407 0.49631 0.12245 0.0
H961 H 0.11957 0.39381 0.08565 0.0
H962 H 0.14504 0.53511 0.18743 0.0
H963 H 0.11132 0.48577 0.20877 0.0
H964 H 0.09905 0.51603 0.17919 0.0
H965 H 0.17815 0.40444 0.15075 0.0
H966 H 0.15072 0.36634 0.11749 0.0
H967 H 0.13518 0.35684 0.15944 0.0
C968 C 0.68331 0.73097 0.22346 0.0
C969 C 0.66581 0.73809 0.25029 0.0
C970 C 0.66566 0.71114 0.19282 0.0
C971 C 0.62903 0.69669 0.18849 0.0
C972 C 0.61124 0.70397 0.2154 0.0
C973 C 0.62974 0.72485 0.24553 0.0
C974 C 0.6863 0.70522 0.16504 0.0
C975 C 0.57218 0.68829 0.21277 0.0
C976 C 0.59041 0.67397 0.09891 0.0
C977 C 0.57898 0.62622 0.09382 0.0
C978 C 0.60585 0.69712 0.12958 0.0
C979 C 0.60925 0.672 0.15652 0.0
C980 C 0.59536 0.62315 0.15209 0.0
C981 C 0.58112 0.60131 0.12099 0.0
C982 C 0.6207 0.74921 0.13235 0.0
C983 C 0.59709 0.59403 0.17983 0.0
H984 H 0.71107 0.74099 0.22634 0.0
H985 H 0.6155 0.72951 0.26582 0.0
H986 H 0.67577 0.66756 0.15943 0.0
H987 H 0.68313 0.72129 0.1422 0.0
H988 H 0.71504 0.7212 0.17116 0.0
H989 H 0.56247 0.69869 0.2349 0.0
H990 H 0.56656 0.70314 0.19054 0.0
H991 H 0.55689 0.64972 0.20985 0.0
H992 H 0.58966 0.6941 0.07826 0.0
H993 H 0.57305 0.56468 0.11744 0.0
H994 H 0.65005 0.76665 0.13461 0.0
H995 H 0.61094 0.75839 0.15495 0.0
H996 H 0.61362 0.76329 0.1105 0.0
H997 H 0.62504 0.60289 0.18429 0.0
H998 H 0.5812 0.55603 0.17412 0.0
H999 H 0.58733 0.60167 0.20311 0.0
C1000 C 0.47424 0.05079 0.14232 0.0
C1001 C 0.46724 1.02483 0.11251 0.0
C1002 C 0.44828 1.03748 0.16768 0.0
C1003 C 0.41383 0.99756 0.16343 0.0
C1004 C 0.40686 0.97136 0.13345 0.0
C1005 C 0.43326 0.98487 0.10895 0.0
C1006 C 0.45768 0.06655 0.19909 0.0
C1007 C 0.37092 0.92918 0.12673 0.0
C1008 C 0.35048 0.93725 0.23711 0.0
C1009 C 0.32766 0.95643 0.23648 0.0
C1010 C 0.37874 0.95078 0.21428 0.0
C1011 C 0.38457 0.98396 0.1893 0.0
C1012 C 0.36114 1.00269 0.18826 0.0
C1013 C 0.33369 0.98935 0.2118 0.0
C1014 C 0.40292 0.93015 0.2174 0.0
C1015 C 0.36513 1.03725 0.16217 0.0
H1016 H 0.49995 0.08169 0.14583 0.0
H1017 H 0.42669 0.96412 0.08631 0.0
H1018 H 0.4406 0.08281 0.20131 0.0
H1019 H 0.45258 0.04403 0.22087 0.0
H1020 H 0.48588 0.0946 0.19987 0.0
H1021 H 0.36942 0.91216 0.1024 0.0
H1022 H 0.36467 0.90317 0.1464 0.0
H1023 H 0.35014 0.93958 0.12719 0.0
H1024 H 0.34713 0.91282 0.25635 0.0
H1025 H 0.31687 1.00515 0.21096 0.0
H1026 H 0.43076 0.9585 0.22099 0.0
H1027 H 0.40181 0.91099 0.19425 0.0
H1028 H 0.39579 0.90587 0.23843 0.0
H1029 H 0.39175 0.0687 0.16441 0.0
H1030 H 0.34472 0.04827 0.1641 0.0
H1031 H 0.36306 1.0217 0.13717 0.0
C1032 C 0.52413 0.14237 0.92887 0.0
C1033 C 0.5437 0.11865 0.92963 0.0
C1034 C 0.50945 0.14825 0.89911 0.0
C1035 C 0.51509 0.13119 0.86863 0.0
C1036 C 0.53754 0.11094 0.86896 0.0
C1037 C 0.55077 0.10394 0.8993 0.0
C1038 C 0.48494 0.16855 0.90098 0.0
C1039 C 0.54659 0.0951 0.83725 0.0
C1040 C 0.44161 0.08456 0.80137 0.0
C1041 C 0.4525 0.12214 0.77969 0.0
C1042 C 0.46135 0.08752 0.83019 0.0
C1043 C 0.49388 0.12872 0.83766 0.0
C1044 C 0.50529 0.16688 0.81576 0.0
C1045 C 0.48434 0.16339 0.7874 0.0
C1046 C 0.44724 0.04609 0.85271 0.0
C1047 C 0.53982 0.21134 0.82207 0.0
H1048 H 0.51727 0.15248 0.95202 0.0
H1049 H 0.565 0.08454 0.89945 0.0
H1050 H 0.49088 0.19448 0.88136 0.0
H1051 H 0.45717 0.14018 0.89692 0.0
H1052 H 0.48678 0.18558 0.92539 0.0
H1053 H 0.55975 0.12541 0.82079 0.0
H1054 H 0.56457 0.08046 0.84128 0.0
H1055 H 0.5221 0.06835 0.82446 0.0
H1056 H 0.41727 0.05237 0.79578 0.0
H1057 H 0.49354 0.19245 0.77069 0.0
H1058 H 0.44576 0.05713 0.87844 0.0
H1059 H 0.46554 1.03155 0.85302 0.0
H1060 H 0.42047 1.0179 0.84482 0.0
H1061 H 0.53715 0.23043 0.84366 0.0
H1062 H 0.5478 0.23475 0.80048 0.0
H1063 H 0.56131 0.2034 0.8281 0.0
C1064 C 1.01309 0.41056 0.88924 0.0
C1065 C 0.99764 0.41305 0.91921 0.0
C1066 C 0.9926 0.39041 0.86001 0.0
C1067 C 0.9552 0.37163 0.86009 0.0
C1068 C 0.93943 0.37486 0.89007 0.0
C1069 C 0.96066 0.3954 0.91904 0.0
C1070 C 1.01106 0.38799 0.82911 0.0
C1071 C 0.89987 0.3553 0.89187 0.0
C1072 C 0.91027 0.34659 0.77319 0.0
C1073 C 0.90105 0.29969 0.76734 0.0
C1074 C 0.92608 0.36984 0.80375 0.0
C1075 C 0.93291 0.34592 0.82945 0.0
C1076 C 0.92131 0.29774 0.82434 0.0
C1077 C 0.90588 0.27559 0.79364 0.0
C1078 C 0.9376 0.42098 0.80765 0.0
C1079 C 0.9274 0.27005 0.85055 0.0
H1080 H 1.04146 0.42374 0.88867 0.0
H1081 H 0.94805 0.39638 0.94186 0.0
H1082 H 1.0018 0.35096 0.82223 0.0
H1083 H 1.00427 0.40372 0.80812 0.0
H1084 H 1.04037 0.40626 0.83233 0.0
H1085 H 0.89184 0.36387 0.91585 0.0
H1086 H 0.89051 0.36902 0.87148 0.0
H1087 H 0.88624 0.31677 0.88871 0.0
H1088 H 0.90751 0.36615 0.75312 0.0
H1089 H 0.89945 0.23963 0.78946 0.0
H1090 H 0.96697 0.4417 0.80693 0.0
H1091 H 0.92933 0.42809 0.83197 0.0
H1092 H 0.92645 0.43316 0.78772 0.0
H1093 H 0.95623 0.28241 0.85305 0.0
H1094 H 0.91351 0.23207 0.84449 0.0
H1095 H 0.91822 0.27541 0.87492 0.0
C1096 C 0.78491 0.67299 0.79555 0.0
C1097 C 0.8053 0.71865 0.78339 0.0
C1098 C 0.7603 0.66199 0.82166 0.0
C1099 C 0.75439 0.69697 0.83646 0.0
C1100 C 0.77518 0.74341 0.82462 0.0
C1101 C 0.80025 0.75366 0.79868 0.0
C1102 C 0.74012 0.61224 0.83314 0.0
C1103 C 0.77012 0.78229 0.83874 0.0
C1104 C 0.66558 0.65489 0.88461 0.0
C1105 C 0.67619 0.65814 0.91809 0.0
C1106 C 0.69044 0.66825 0.85817 0.0
C1107 C 0.7273 0.68483 0.8646 0.0
C1108 C 0.73793 0.68774 0.89831 0.0
C1109 C 0.71279 0.67497 0.92412 0.0
C1110 C 0.67716 0.66469 0.8231 0.0
C1111 C 0.77617 0.70383 0.9073 0.0
H1112 H 0.78777 0.64511 0.78407 0.0
H1113 H 0.81469 0.78882 0.78936 0.0
H1114 H 0.7441 0.61102 0.86018 0.0
H1115 H 0.7113 0.598 0.82856 0.0
H1116 H 0.74848 0.58925 0.82033 0.0
H1117 H 0.78804 0.81643 0.82742 0.0
H1118 H 0.74224 0.77401 0.83459 0.0
H1119 H 0.77505 0.78549 0.86586 0.0
H1120 H 0.63781 0.64238 0.87897 0.0
H1121 H 0.72207 0.67779 0.94946 0.0
H1122 H 0.68161 0.63912 0.80876 0.0
H1123 H 0.6923 0.69891 0.81093 0.0
H1124 H 0.64846 0.65369 0.82184 0.0
H1125 H 0.78453 0.68019 0.89556 0.0
H1126 H 0.78064 0.70463 0.93445 0.0
H1127 H 0.7935 0.73929 0.89767 0.0
C1128 C 0.78625 0.81426 0.44292 0.0
C1129 C 0.75087 0.80522 0.44336 0.0
C1130 C 0.80445 0.8129 0.4718 0.0
C1131 C 0.7871 0.80143 0.50271 0.0
C1132 C 0.75177 0.79418 0.50369 0.0
C1133 C 0.73418 0.79623 0.47422 0.0
C1134 C 0.84185 0.82134 0.46873 0.0
C1135 C 0.73178 0.78177 0.53567 0.0
C1136 C 0.8158 0.73777 0.56523 0.0
C1137 C 0.83676 0.77259 0.58893 0.0
C1138 C 0.79991 0.74682 0.53757 0.0
C1139 C 0.80453 0.79213 0.5327 0.0
C1140 C 0.82645 0.82796 0.55603 0.0
C1141 C 0.84219 0.81786 0.58364 0.0
C1142 C 0.77738 0.70717 0.51379 0.0
C1143 C 0.83259 0.87689 0.5523 0.0
H1144 H 0.79952 0.82085 0.41935 0.0
H1145 H 0.70675 0.78819 0.47509 0.0
H1146 H 0.85936 0.84666 0.48804 0.0
H1147 H 0.84211 0.78819 0.4726 0.0
H1148 H 0.85311 0.83481 0.44405 0.0
H1149 H 0.70633 0.78215 0.53351 0.0
H1150 H 0.72597 0.74636 0.54304 0.0
H1151 H 0.7482 0.80647 0.55576 0.0
H1152 H 0.81091 0.70251 0.56877 0.0
H1153 H 0.85752 0.84506 0.6018 0.0
H1154 H 0.78804 0.71605 0.48844 0.0
H1155 H 0.74994 0.70157 0.51296 0.0
H1156 H 0.77629 0.67394 0.52078 0.0
H1157 H 0.84381 0.89034 0.52766 0.0
H1158 H 0.85086 0.90122 0.57173 0.0
H1159 H 0.80691 0.87664 0.55367 0.0
C1160 C 0.2845 0.93628 0.45409 0.0
C1161 C 0.27813 0.96296 0.43094 0.0
C1162 C 0.29669 0.95346 0.48684 0.0
C1163 C 0.30339 0.99883 0.49681 0.0
C1164 C 0.29588 1.02506 0.47383 0.0
C1165 C 0.28315 1.00681 0.44175 0.0
C1166 C 0.30351 0.92358 0.51048 0.0
C1167 C 0.303 0.07376 0.48248 0.0
C1168 C 0.31793 0.04176 0.58821 0.0
C1169 C 0.35511 0.06552 0.59148 0.0
C1170 C 0.30068 1.01896 0.55804 0.0
C1171 C 0.32094 1.02074 0.52996 0.0
C1172 C 0.35851 0.04572 0.53311 0.0
C1173 C 0.37493 0.06695 0.56369 0.0
C1174 C 0.2607 0.99206 0.55644 0.0
C1175 C 0.38156 0.05013 0.50403 0.0
H1176 H 0.281 0.90259 0.44639 0.0
H1177 H 0.27838 1.02822 0.42459 0.0
H1178 H 0.33247 0.93911 0.51497 0.0
H1179 H 0.2912 0.92237 0.5347 0.0
H1180 H 0.293 0.88735 0.50077 0.0
H1181 H 0.29436 0.08899 0.46248 0.0
H1182 H 0.28917 0.07352 0.5055 0.0
H1183 H 0.33184 0.09693 0.48714 0.0
H1184 H 0.30226 1.03932 0.60965 0.0
H1185 H 0.40362 0.08479 0.56592 0.0
H1186 H 0.2515 0.95539 0.54856 0.0
H1187 H 0.25078 1.00736 0.53768 0.0
H1188 H 0.24867 0.99206 0.58063 0.0
H1189 H 0.37605 1.01502 0.49544 0.0
H1190 H 0.4103 0.07142 0.51018 0.0
H1191 H 0.37528 0.06648 0.48309 0.0
C1192 C 0.98058 0.33024 0.55435 0.0
C1193 C 0.98871 0.32054 0.58614 0.0
C1194 C 1.00557 0.34452 0.52798 0.0
C1195 C 1.04002 0.34949 0.53285 0.0
C1196 C 1.04816 0.33962 0.56483 0.0
C1197 C 1.02293 0.32561 0.59054 0.0
C1198 C 0.99504 0.35435 0.49469 0.0
C1199 C 0.08377 0.34345 0.57201 0.0
C1200 C 0.09122 0.3366 0.45864 0.0
C1201 C 0.11746 0.3828 0.45143 0.0
C1202 C 0.06637 0.32578 0.48438 0.0
C1203 C 0.06668 0.36172 0.50442 0.0
C1204 C 0.09348 0.40857 0.49789 0.0
C1205 C 0.11834 0.41851 0.47177 0.0
C1206 C 1.03933 0.27529 0.48987 0.0
C1207 C 0.09544 0.4485 0.51817 0.0
H1208 H 0.95477 0.32715 0.55007 0.0
H1209 H 1.03037 0.31855 0.61454 0.0
H1210 H 1.01452 0.39023 0.48713 0.0
H1211 H 0.99542 0.3299 0.47577 0.0
H1212 H 0.96817 0.35082 0.49476 0.0
H1213 H 0.08683 0.33627 0.59826 0.0
H1214 H 0.08722 0.31838 0.55601 0.0
H1215 H 0.10538 0.37895 0.56617 0.0
H1216 H 0.08967 0.30816 0.44356 0.0
H1217 H 0.13763 0.45438 0.4666 0.0
H1218 H 1.01214 0.27027 0.48723 0.0
H1219 H 1.04212 0.26543 0.51541 0.0
H1220 H 1.0421 0.2512 0.47219 0.0
H1221 H 0.07012 0.44906 0.5156 0.0
H1222 H 0.11756 0.48279 0.51058 0.0
H1223 H 0.09902 0.44358 0.54475 0.0
loop_
_geom_bond_atom_site_label_1
_geom_bond_atom_site_label_2
_geom_bond_distance
_geom_bond_site_symmetry_2
_ccdc_geom_bond_type
Tb0 C9 2.764 . S
Tb0 O10 2.325 . S
Tb0 O13 2.302 1_556 S
Tb0 O17 2.322 1_456 S
Tb0 O18 2.351 . S
Tb0 O21 2.414 1_556 S
Tb0 O22 2.400 . S
Tb1 O11 2.322 1_655 S
Tb1 O12 2.350 1_655 S
Tb1 O14 2.415 1_554 S
Tb1 O15 2.399 . S
Tb1 O16 2.325 . S
Tb1 O19 2.303 1_554 S
Tb1 C30 2.764 . S
C2 O18 1.261 1_655 S
C2 O19 1.257 . S
C3 C6 1.360 1_554 S
C3 C7 1.330 . S
C3 C9 1.504 1_554 S
C4 C5 1.373 1_554 S
C4 C8 1.308 . S
C5 C4 1.373 1_556 S
C5 C6 1.429 . S
C5 H32 0.932 . S
C6 C3 1.360 1_556 S
C6 C5 1.429 . S
C6 H33 0.930 . S
C7 C3 1.330 . S
C7 C8 1.394 . S
C7 H34 0.932 . S
C8 C4 1.308 . S
C8 C7 1.394 . S
C8 H35 0.929 . S
C9 Tb0 2.764 . S
C9 C3 1.504 1_556 S
C9 O21 1.227 1_556 S
C9 O22 1.275 . S
O10 Tb0 2.325 . S
O10 C20 1.236 1_556 S
O11 Tb1 2.322 1_455 S
O11 C20 1.257 . S
O12 Tb1 2.350 1_455 S
O12 C23 1.261 . S
O13 Tb0 2.302 1_554 S
O13 C23 1.257 . S
O14 Tb1 2.415 1_556 S
O14 C30 1.239 1_556 S
O15 Tb1 2.399 . S
O15 C30 1.263 . S
O16 Tb1 2.325 . S
O16 C31 1.236 . S
O17 Tb0 2.322 1_654 S
O17 C31 1.257 . S
O18 Tb0 2.351 . S
O18 C2 1.261 1_455 S
O19 Tb1 2.303 1_556 S
O19 C2 1.257 . S
C20 O10 1.236 1_554 S
C20 O11 1.257 . S
O21 Tb0 2.414 1_554 S
O21 C9 1.227 1_554 S
O22 Tb0 2.400 . S
O22 C9 1.275 . S
C23 O12 1.261 . S
C23 O13 1.257 . S
C24 C27 1.358 . S
C24 C28 1.332 1_554 S
C24 C30 1.504 . S
C25 C26 1.373 . S
C25 C29 1.308 1_554 S
C26 C25 1.373 . S
C26 C27 1.429 . S
C26 H36 0.932 . S
C27 C24 1.358 . S
C27 C26 1.429 . S
C27 H37 0.930 . S
C28 C24 1.332 1_556 S
C28 C29 1.394 . S
C28 H38 0.932 . S
C29 C25 1.308 1_556 S
C29 C28 1.394 . S
C29 H39 0.929 . S
C30 Tb1 2.764 . S
C30 O14 1.239 1_554 S
C30 O15 1.263 . S
C30 C24 1.504 . S
C31 O16 1.236 . S
C31 O17 1.257 . S
H32 C5 0.932 . S
H33 C6 0.930 . S
H34 C7 0.932 . S
H35 C8 0.929 . S
H36 C26 0.932 . S
H37 C27 0.930 . S
H38 C28 0.932 . S
H39 C29 0.929 . S
Tb40 C49 2.764 . S
Tb40 O50 2.325 . S
Tb40 O53 2.303 1_554 S
Tb40 O57 2.322 . S
Tb40 O58 2.349 . S
Tb40 O61 2.415 1_554 S
Tb40 O62 2.399 . S
Tb41 O51 2.322 . S
Tb41 O52 2.349 . S
Tb41 O54 2.415 1_556 S
Tb41 O55 2.399 . S
Tb41 O56 2.325 . S
Tb41 O59 2.303 1_556 S
Tb41 C70 2.764 . S
C42 O58 1.261 . S
C42 O59 1.257 . S
C43 C46 1.358 . S
C43 C47 1.332 1_554 S
C43 C49 1.504 . S
C44 C45 1.373 . S
C44 C48 1.308 1_554 S
C45 C44 1.373 . S
C45 C46 1.429 . S
C45 H72 0.932 . S
C46 C43 1.358 . S
C46 C45 1.429 . S
C46 H73 0.930 . S
C47 C43 1.332 1_556 S
C47 C48 1.394 . S
C47 H74 0.932 . S
C48 C44 1.308 1_556 S
C48 C47 1.394 . S
C48 H75 0.929 . S
C49 Tb40 2.764 . S
C49 C43 1.504 . S
C49 O61 1.239 1_554 S
C49 O62 1.263 . S
O50 Tb40 2.325 . S
O50 C60 1.236 . S
O51 Tb41 2.322 . S
O51 C60 1.257 1_556 S
O52 Tb41 2.349 . S
O52 C63 1.261 . S
O53 Tb40 2.303 1_556 S
O53 C63 1.257 . S
O54 Tb41 2.415 1_554 S
O54 C70 1.239 1_554 S
O55 Tb41 2.399 . S
O55 C70 1.263 . S
O56 Tb41 2.325 . S
O56 C71 1.236 . S
O57 Tb40 2.322 . S
O57 C71 1.257 1_554 S
O58 Tb40 2.349 . S
O58 C42 1.261 . S
O59 Tb41 2.303 1_554 S
O59 C42 1.257 . S
C60 O50 1.236 . S
C60 O51 1.257 1_554 S
O61 Tb40 2.415 1_556 S
O61 C49 1.239 1_556 S
O62 Tb40 2.399 . S
O62 C49 1.263 . S
C63 O52 1.261 . S
C63 O53 1.257 . S
C64 C67 1.358 . S
C64 C68 1.332 1_556 S
C64 C70 1.504 . S
C65 C66 1.373 . S
C65 C69 1.308 1_556 S
C66 C65 1.373 . S
C66 C67 1.429 . S
C66 H76 0.932 . S
C67 C64 1.358 . S
C67 C66 1.429 . S
C67 H77 0.930 . S
C68 C64 1.332 1_554 S
C68 C69 1.394 . S
C68 H78 0.932 . S
C69 C65 1.308 1_554 S
C69 C68 1.394 . S
C69 H79 0.929 . S
C70 Tb41 2.764 . S
C70 O54 1.239 1_556 S
C70 O55 1.263 . S
C70 C64 1.504 . S
C71 O56 1.236 . S
C71 O57 1.257 1_556 S
H72 C45 0.932 . S
H73 C46 0.930 . S
H74 C47 0.932 . S
H75 C48 0.929 . S
H76 C66 0.932 . S
H77 C67 0.930 . S
H78 C68 0.932 . S
H79 C69 0.929 . S
Tb80 C89 2.764 . S
Tb80 O90 2.325 . S
Tb80 O93 2.303 1_556 S
Tb80 O97 2.322 1_566 S
Tb80 O98 2.349 . S
Tb80 O101 2.415 1_556 S
Tb80 O102 2.399 . S
Tb81 O91 2.322 1_545 S
Tb81 O92 2.349 . S
Tb81 O94 2.415 1_554 S
Tb81 O95 2.399 . S
Tb81 O96 2.325 . S
Tb81 O99 2.303 1_554 S
Tb81 C110 2.764 . S
C82 O98 1.261 1_545 S
C82 O99 1.257 . S
C83 C86 1.370 . S
C83 C87 1.319 1_556 S
C83 C89 1.505 . S
C84 C85 1.344 1_554 S
C84 C88 1.334 . S
C85 C84 1.344 1_556 S
C85 C86 1.429 . S
C85 H112 0.932 . S
C86 C83 1.370 . S
C86 C85 1.429 . S
C86 H113 0.930 . S
C87 C83 1.319 1_554 S
C87 C88 1.394 . S
C87 H114 0.932 . S
C88 C84 1.334 . S
C88 C87 1.394 . S
C88 H115 0.929 . S
C89 Tb80 2.764 . S
C89 C83 1.505 . S
C89 O101 1.239 1_556 S
C89 O102 1.263 . S
O90 Tb80 2.325 . S
O90 C100 1.236 1_556 S
O91 Tb81 2.322 1_565 S
O91 C100 1.257 . S
O92 Tb81 2.349 . S
O92 C103 1.261 1_545 S
O93 Tb80 2.303 1_554 S
O93 C103 1.257 . S
O94 Tb81 2.415 1_556 S
O94 C110 1.239 1_556 S
O95 Tb81 2.399 . S
O95 C110 1.263 . S
O96 Tb81 2.325 . S
O96 C111 1.236 . S
O97 Tb80 2.322 1_544 S
O97 C111 1.257 . S
O98 Tb80 2.349 . S
O98 C82 1.261 1_565 S
O99 Tb81 2.303 1_556 S
O99 C82 1.257 . S
C100 O90 1.236 1_554 S
C100 O91 1.257 . S
O101 Tb80 2.415 1_554 S
O101 C89 1.239 1_554 S
O102 Tb80 2.399 . S
O102 C89 1.263 . S
C103 O92 1.261 1_565 S
C103 O93 1.257 . S
C104 C107 1.358 . S
C104 C108 1.332 1_554 S
C104 C110 1.504 . S
C105 C106 1.373 . S
C105 C109 1.308 1_554 S
C106 C105 1.373 . S
C106 C107 1.429 . S
C106 H116 0.932 . S
C107 C104 1.358 . S
C107 C106 1.429 . S
C107 H117 0.930 . S
C108 C104 1.332 1_556 S
C108 C109 1.394 . S
C108 H118 0.932 . S
C109 C105 1.308 1_556 S
C109 C108 1.394 . S
C109 H119 0.929 . S
C110 Tb81 2.764 . S
C110 O94 1.239 1_554 S
C110 O95 1.263 . S
C110 C104 1.504 . S
C111 O96 1.236 . S
C111 O97 1.257 . S
H112 C85 0.932 . S
H113 C86 0.930 . S
H114 C87 0.932 . S
H115 C88 0.929 . S
H116 C106 0.932 . S
H117 C107 0.930 . S
H118 C108 0.932 . S
H119 C109 0.929 . S
Tb120 C129 2.764 . S
Tb120 O130 2.325 . S
Tb120 O133 2.303 . S
Tb120 O137 2.322 . S
Tb120 O138 2.349 . S
Tb120 O141 2.415 . S
Tb120 O142 2.399 . S
Tb121 O131 2.322 . S
Tb121 O132 2.349 . S
Tb121 O134 2.415 . S
Tb121 O135 2.399 . S
Tb121 O136 2.325 . S
Tb121 O139 2.303 . S
Tb121 C150 2.764 . S
C122 O138 1.261 . S
C122 O139 1.257 . S
C123 C126 1.358 . S
C123 C127 1.332 . S
C123 C129 1.504 . S
C124 C125 1.373 . S
C124 C128 1.308 . S
C125 C124 1.373 . S
C125 C126 1.429 . S
C125 H152 0.932 . S
C126 C123 1.358 . S
C126 C125 1.429 . S
C126 H153 0.930 . S
C127 C123 1.332 . S
C127 C128 1.394 . S
C127 H154 0.932 . S
C128 C124 1.308 . S
C128 C127 1.394 . S
C128 H155 0.929 . S
C129 Tb120 2.764 . S
C129 C123 1.504 . S
C129 O141 1.239 . S
C129 O142 1.263 . S
O130 Tb120 2.325 . S
O130 C140 1.236 . S
O131 Tb121 2.322 . S
O131 C140 1.257 . S
O132 Tb121 2.349 . S
O132 C143 1.261 . S
O133 Tb120 2.303 . S
O133 C143 1.257 . S
O134 Tb121 2.415 . S
O134 C150 1.239 . S
O135 Tb121 2.399 . S
O135 C150 1.263 . S
O136 Tb121 2.325 . S
O136 C151 1.236 . S
O137 Tb120 2.322 . S
O137 C151 1.257 . S
O138 Tb120 2.349 . S
O138 C122 1.261 . S
O139 Tb121 2.303 . S
O139 C122 1.257 . S
C140 O130 1.236 . S
C140 O131 1.257 . S
O141 Tb120 2.415 . S
O141 C129 1.239 . S
O142 Tb120 2.399 . S
O142 C129 1.263 . S
C143 O132 1.261 . S
C143 O133 1.257 . S
C144 C147 1.358 . S
C144 C148 1.332 . S
C144 C150 1.504 . S
C145 C146 1.373 . S
C145 C149 1.308 . S
C146 C145 1.373 . S
C146 C147 1.429 . S
C146 H156 0.932 . S
C147 C144 1.358 . S
C147 C146 1.429 . S
C147 H157 0.930 . S
C148 C144 1.332 . S
C148 C149 1.394 . S
C148 H158 0.932 . S
C149 C145 1.308 . S
C149 C148 1.394 . S
C149 H159 0.929 . S
C150 Tb121 2.764 . S
C150 O134 1.239 . S
C150 O135 1.263 . S
C150 C144 1.504 . S
C151 O136 1.236 . S
C151 O137 1.257 . S
H152 C125 0.932 . S
H153 C126 0.930 . S
H154 C127 0.932 . S
H155 C128 0.929 . S
H156 C146 0.932 . S
H157 C147 0.930 . S
H158 C148 0.932 . S
H159 C149 0.929 . S
Tb160 C169 2.764 1_565 S
Tb160 O170 2.325 . S
Tb160 O173 2.303 . S
Tb160 O177 2.322 . S
Tb160 O178 2.349 . S
Tb160 O181 2.415 . S
Tb160 O182 2.399 1_565 S
Tb161 O171 2.322 . S
Tb161 O172 2.349 . S
Tb161 O174 2.415 . S
Tb161 O175 2.399 . S
Tb161 O176 2.325 . S
Tb161 O179 2.303 . S
Tb161 C190 2.764 . S
C162 O178 1.261 . S
C162 O179 1.257 . S
C163 C166 1.358 . S
C163 C167 1.332 . S
C163 C169 1.504 . S
C164 C165 1.373 . S
C164 C168 1.308 . S
C165 C164 1.373 . S
C165 C166 1.429 . S
C165 H192 0.932 . S
C166 C163 1.358 . S
C166 C165 1.429 . S
C166 H193 0.930 . S
C167 C163 1.332 . S
C167 C168 1.394 . S
C167 H194 0.932 . S
C168 C164 1.308 . S
C168 C167 1.394 . S
C168 H195 0.929 . S
C169 Tb160 2.764 1_545 S
C169 C163 1.504 . S
C169 O181 1.239 1_545 S
C169 O182 1.263 . S
O170 Tb160 2.325 . S
O170 C180 1.236 . S
O171 Tb161 2.322 . S
O171 C180 1.257 . S
O172 Tb161 2.349 . S
O172 C183 1.261 . S
O173 Tb160 2.303 . S
O173 C183 1.257 . S
O174 Tb161 2.415 . S
O174 C190 1.239 . S
O175 Tb161 2.399 . S
O175 C190 1.263 . S
O176 Tb161 2.325 . S
O176 C191 1.236 . S
O177 Tb160 2.322 . S
O177 C191 1.257 . S
O178 Tb160 2.349 . S
O178 C162 1.261 . S
O179 Tb161 2.303 . S
O179 C162 1.257 . S
C180 O170 1.236 . S
C180 O171 1.257 . S
O181 Tb160 2.415 . S
O181 C169 1.239 1_565 S
O182 Tb160 2.399 1_545 S
O182 C169 1.263 . S
C183 O172 1.261 . S
C183 O173 1.257 . S
C184 C187 1.358 . S
C184 C188 1.332 . S
C184 C190 1.504 . S
C185 C186 1.373 . S
C185 C189 1.308 . S
C186 C185 1.373 . S
C186 C187 1.429 . S
C186 H196 0.932 . S
C187 C184 1.358 . S
C187 C186 1.429 . S
C187 H197 0.930 . S
C188 C184 1.332 . S
C188 C189 1.394 . S
C188 H198 0.932 . S
C189 C185 1.308 . S
C189 C188 1.394 . S
C189 H199 0.929 . S
C190 Tb161 2.764 . S
C190 O174 1.239 . S
C190 O175 1.263 . S
C190 C184 1.504 . S
C191 O176 1.236 . S
C191 O177 1.257 . S
H192 C165 0.932 . S
H193 C166 0.930 . S
H194 C167 0.932 . S
H195 C168 0.929 . S
H196 C186 0.932 . S
H197 C187 0.930 . S
H198 C188 0.932 . S
H199 C189 0.929 . S
Tb200 C209 2.764 . S
Tb200 O210 2.325 . S
Tb200 O213 2.303 . S
Tb200 O217 2.322 . S
Tb200 O218 2.349 . S
Tb200 O221 2.415 . S
Tb200 O222 2.399 . S
Tb201 O211 2.322 . S
Tb201 O212 2.349 . S
Tb201 O214 2.415 . S
Tb201 O215 2.399 . S
Tb201 O216 2.325 . S
Tb201 O219 2.303 . S
Tb201 C230 2.764 . S
C202 O218 1.261 . S
C202 O219 1.257 . S
C203 C206 1.358 . S
C203 C207 1.332 . S
C203 C209 1.504 1_655 S
C204 C205 1.373 . S
C204 C208 1.308 . S
C205 C204 1.373 . S
C205 C206 1.429 . S
C205 H232 0.932 . S
C206 C203 1.358 . S
C206 C205 1.429 . S
C206 H233 0.930 . S
C207 C203 1.332 . S
C207 C208 1.394 . S
C207 H234 0.932 . S
C208 C204 1.308 . S
C208 C207 1.394 . S
C208 H235 0.929 . S
C209 Tb200 2.764 . S
C209 C203 1.504 1_455 S
C209 O221 1.239 . S
C209 O222 1.263 . S
O210 Tb200 2.325 . S
O210 C220 1.236 . S
O211 Tb201 2.322 . S
O211 C220 1.257 . S
O212 Tb201 2.349 . S
O212 C223 1.261 . S
O213 Tb200 2.303 . S
O213 C223 1.257 . S
O214 Tb201 2.415 . S
O214 C230 1.239 . S
O215 Tb201 2.399 . S
O215 C230 1.263 . S
O216 Tb201 2.325 . S
O216 C231 1.236 . S
O217 Tb200 2.322 . S
O217 C231 1.257 . S
O218 Tb200 2.349 . S
O218 C202 1.261 . S
O219 Tb201 2.303 . S
O219 C202 1.257 . S
C220 O210 1.236 . S
C220 O211 1.257 . S
O221 Tb200 2.415 . S
O221 C209 1.239 . S
O222 Tb200 2.399 . S
O222 C209 1.263 . S
C223 O212 1.261 . S
C223 O213 1.257 . S
C224 C227 1.358 . S
C224 C228 1.332 . S
C224 C230 1.504 . S
C225 C226 1.373 . S
C225 C229 1.308 . S
C226 C225 1.373 . S
C226 C227 1.429 . S
C226 H236 0.932 . S
C227 C224 1.358 . S
C227 C226 1.429 . S
C227 H237 0.930 . S
C228 C224 1.332 . S
C228 C229 1.394 . S
C228 H238 0.932 . S
C229 C225 1.308 . S
C229 C228 1.394 . S
C229 H239 0.929 . S
C230 Tb201 2.764 . S
C230 O214 1.239 . S
C230 O215 1.263 . S
C230 C224 1.504 . S
C231 O216 1.236 . S
C231 O217 1.257 . S
H232 C205 0.932 . S
H233 C206 0.930 . S
H234 C207 0.932 . S
H235 C208 0.929 . S
H236 C226 0.932 . S
H237 C227 0.930 . S
H238 C228 0.932 . S
H239 C229 0.929 . S
Tb240 C249 2.764 . S
Tb240 O250 2.325 . S
Tb240 O253 2.303 . S
Tb240 O257 2.322 . S
Tb240 O258 2.349 . S
Tb240 O261 2.415 . S
Tb240 O262 2.399 . S
Tb241 O251 2.322 . S
Tb241 O252 2.349 . S
Tb241 O254 2.415 . S
Tb241 O255 2.399 . S
Tb241 O256 2.325 . S
Tb241 O259 2.303 . S
Tb241 C270 2.764 . S
C242 O258 1.261 . S
C242 O259 1.257 . S
C243 C246 1.358 . S
C243 C247 1.332 . S
C243 C249 1.504 . S
C244 C245 1.373 . S
C244 C248 1.308 . S
C245 C244 1.373 . S
C245 C246 1.429 . S
C245 H272 0.932 . S
C246 C243 1.358 . S
C246 C245 1.429 . S
C246 H273 0.930 . S
C247 C243 1.332 . S
C247 C248 1.394 . S
C247 H274 0.932 . S
C248 C244 1.308 . S
C248 C247 1.394 . S
C248 H275 0.929 . S
C249 Tb240 2.764 . S
C249 C243 1.504 . S
C249 O261 1.239 . S
C249 O262 1.263 . S
O250 Tb240 2.325 . S
O250 C260 1.236 . S
O251 Tb241 2.322 . S
O251 C260 1.257 . S
O252 Tb241 2.349 . S
O252 C263 1.261 . S
O253 Tb240 2.303 . S
O253 C263 1.257 . S
O254 Tb241 2.415 . S
O254 C270 1.239 . S
O255 Tb241 2.399 . S
O255 C270 1.263 . S
O256 Tb241 2.325 . S
O256 C271 1.236 . S
O257 Tb240 2.322 . S
O257 C271 1.257 . S
O258 Tb240 2.349 . S
O258 C242 1.261 . S
O259 Tb241 2.303 . S
O259 C242 1.257 . S
C260 O250 1.236 . S
C260 O251 1.257 . S
O261 Tb240 2.415 . S
O261 C249 1.239 . S
O262 Tb240 2.399 . S
O262 C249 1.263 . S
C263 O252 1.261 . S
C263 O253 1.257 . S
C264 C267 1.358 . S
C264 C268 1.332 . S
C264 C270 1.504 . S
C265 C266 1.373 . S
C265 C269 1.308 . S
C266 C265 1.373 . S
C266 C267 1.429 . S
C266 H276 0.932 . S
C267 C264 1.358 . S
C267 C266 1.429 . S
C267 H277 0.930 . S
C268 C264 1.332 . S
C268 C269 1.394 . S
C268 H278 0.932 . S
C269 C265 1.308 . S
C269 C268 1.394 . S
C269 H279 0.929 . S
C270 Tb241 2.764 . S
C270 O254 1.239 . S
C270 O255 1.263 . S
C270 C264 1.504 . S
C271 O256 1.236 . S
C271 O257 1.257 . S
H272 C245 0.932 . S
H273 C246 0.930 . S
H274 C247 0.932 . S
H275 C248 0.929 . S
H276 C266 0.932 . S
H277 C267 0.930 . S
H278 C268 0.932 . S
H279 C269 0.929 . S
Tb280 C289 2.764 . S
Tb280 O290 2.325 . S
Tb280 O293 2.303 . S
Tb280 O297 2.322 . S
Tb280 O298 2.349 . S
Tb280 O301 2.415 . S
Tb280 O302 2.399 . S
Tb281 O291 2.322 . S
Tb281 O292 2.349 . S
Tb281 O294 2.415 . S
Tb281 O295 2.399 . S
Tb281 O296 2.325 . S
Tb281 O299 2.303 . S
Tb281 C310 2.764 . S
C282 O298 1.261 . S
C282 O299 1.257 . S
C283 C286 1.358 . S
C283 C287 1.332 . S
C283 C289 1.504 1_455 S
C284 C285 1.373 . S
C284 C288 1.308 . S
C285 C284 1.373 . S
C285 C286 1.429 . S
C285 H312 0.932 . S
C286 C283 1.358 . S
C286 C285 1.429 . S
C286 H313 0.930 . S
C287 C283 1.332 . S
C287 C288 1.394 . S
C287 H314 0.932 . S
C288 C284 1.308 . S
C288 C287 1.394 . S
C288 H315 0.929 . S
C289 Tb280 2.764 . S
C289 C283 1.504 1_655 S
C289 O301 1.239 . S
C289 O302 1.263 . S
O290 Tb280 2.325 . S
O290 C300 1.236 . S
O291 Tb281 2.322 . S
O291 C300 1.257 . S
O292 Tb281 2.349 . S
O292 C303 1.261 . S
O293 Tb280 2.303 . S
O293 C303 1.257 . S
O294 Tb281 2.415 . S
O294 C310 1.239 . S
O295 Tb281 2.399 . S
O295 C310 1.263 . S
O296 Tb281 2.325 . S
O296 C311 1.236 . S
O297 Tb280 2.322 . S
O297 C311 1.257 . S
O298 Tb280 2.349 . S
O298 C282 1.261 . S
O299 Tb281 2.303 . S
O299 C282 1.257 . S
C300 O290 1.236 . S
C300 O291 1.257 . S
O301 Tb280 2.415 . S
O301 C289 1.239 . S
O302 Tb280 2.399 . S
O302 C289 1.263 . S
C303 O292 1.261 . S
C303 O293 1.257 . S
C304 C307 1.358 . S
C304 C308 1.332 . S
C304 C310 1.504 . S
C305 C306 1.373 . S
C305 C309 1.308 . S
C306 C305 1.373 . S
C306 C307 1.429 . S
C306 H316 0.932 . S
C307 C304 1.358 . S
C307 C306 1.429 . S
C307 H317 0.930 . S
C308 C304 1.332 . S
C308 C309 1.394 . S
C308 H318 0.932 . S
C309 C305 1.308 . S
C309 C308 1.394 . S
C309 H319 0.929 . S
C310 Tb281 2.764 . S
C310 O294 1.239 . S
C310 O295 1.263 . S
C310 C304 1.504 . S
C311 O296 1.236 . S
C311 O297 1.257 . S
H312 C285 0.932 . S
H313 C286 0.930 . S
H314 C287 0.932 . S
H315 C288 0.929 . S
H316 C306 0.932 . S
H317 C307 0.930 . S
H318 C308 0.932 . S
H319 C309 0.929 . S
Tb320 C329 2.764 . S
Tb320 O330 2.325 . S
Tb320 O333 2.303 . S
Tb320 O337 2.322 . S
Tb320 O338 2.349 . S
Tb320 O341 2.415 . S
Tb320 O342 2.399 . S
Tb321 O331 2.322 . S
Tb321 O332 2.349 . S
Tb321 O334 2.415 . S
Tb321 O335 2.399 . S
Tb321 O336 2.325 . S
Tb321 O339 2.303 . S
Tb321 C350 2.764 . S
C322 O338 1.261 . S
C322 O339 1.257 . S
C323 C326 1.358 . S
C323 C327 1.332 . S
C323 C329 1.504 . S
C324 C325 1.373 . S
C324 C328 1.308 . S
C325 C324 1.373 . S
C325 C326 1.429 . S
C325 H352 0.932 . S
C326 C323 1.358 . S
C326 C325 1.429 . S
C326 H353 0.930 . S
C327 C323 1.332 . S
C327 C328 1.394 . S
C327 H354 0.932 . S
C328 C324 1.308 . S
C328 C327 1.394 . S
C328 H355 0.929 . S
C329 Tb320 2.764 . S
C329 C323 1.504 . S
C329 O341 1.239 . S
C329 O342 1.263 . S
O330 Tb320 2.325 . S
O330 C340 1.236 . S
O331 Tb321 2.322 . S
O331 C340 1.257 . S
O332 Tb321 2.349 . S
O332 C343 1.261 . S
O333 Tb320 2.303 . S
O333 C343 1.257 . S
O334 Tb321 2.415 . S
O334 C350 1.239 . S
O335 Tb321 2.399 . S
O335 C350 1.263 . S
O336 Tb321 2.325 . S
O336 C351 1.236 . S
O337 Tb320 2.322 . S
O337 C351 1.257 . S
O338 Tb320 2.349 . S
O338 C322 1.261 . S
O339 Tb321 2.303 . S
O339 C322 1.257 . S
C340 O330 1.236 . S
C340 O331 1.257 . S
O341 Tb320 2.415 . S
O341 C329 1.239 . S
O342 Tb320 2.399 . S
O342 C329 1.263 . S
C343 O332 1.261 . S
C343 O333 1.257 . S
C344 C347 1.358 . S
C344 C348 1.332 . S
C344 C350 1.504 . S
C345 C346 1.373 1_455 S
C345 C349 1.308 1_455 S
C346 C345 1.373 1_655 S
C346 C347 1.429 . S
C346 H356 0.932 1_655 S
C347 C344 1.358 . S
C347 C346 1.429 . S
C347 H357 0.930 . S
C348 C344 1.332 . S
C348 C349 1.394 . S
C348 H358 0.932 . S
C349 C345 1.308 1_655 S
C349 C348 1.394 . S
C349 H359 0.929 . S
C350 Tb321 2.764 . S
C350 O334 1.239 . S
C350 O335 1.263 . S
C350 C344 1.504 . S
C351 O336 1.236 . S
C351 O337 1.257 . S
H352 C325 0.932 . S
H353 C326 0.930 . S
H354 C327 0.932 . S
H355 C328 0.929 . S
H356 C346 0.932 1_455 S
H357 C347 0.930 . S
H358 C348 0.932 . S
H359 C349 0.929 . S
C360 C361 1.391 . S
C360 C362 1.394 . S
C360 H376 0.931 . S
C361 C360 1.391 . S
C361 C365 1.376 . S
C362 C360 1.394 . S
C362 C363 1.369 . S
C362 C366 1.531 . S
C363 C362 1.369 . S
C363 C364 1.410 . S
C363 C371 1.503 . S
C364 C363 1.410 . S
C364 C365 1.392 . S
C364 C367 1.511 . S
C365 C361 1.376 . S
C365 C364 1.392 . S
C365 H377 0.929 . S
C366 C362 1.531 . S
C366 H378 0.960 . S
C366 H379 0.962 1_556 S
C366 H380 0.960 . S
C367 C364 1.511 . S
C367 H381 0.961 . S
C367 H382 0.961 . S
C367 H383 0.961 . S
C368 C369 1.346 1_554 S
C368 C370 1.363 . S
C368 H384 0.931 . S
C369 C368 1.346 1_556 S
C369 C373 1.438 . S
C370 C368 1.363 . S
C370 C371 1.370 1_554 S
C370 C374 1.524 . S
C371 C363 1.503 . S
C371 C370 1.370 1_556 S
C371 C372 1.403 . S
C372 C371 1.403 . S
C372 C373 1.404 . S
C372 C375 1.539 . S
C373 C369 1.438 . S
C373 C372 1.404 . S
C373 H385 0.930 . S
C374 C370 1.524 . S
C374 H386 0.956 . S
C374 H387 0.961 . S
C374 H388 0.961 . S
C375 C372 1.539 . S
C375 H389 0.958 . S
C375 H390 0.961 . S
C375 H391 0.960 . S
H376 C360 0.931 . S
H377 C365 0.929 . S
H378 C366 0.960 . S
H379 C366 0.962 1_554 S
H380 C366 0.960 . S
H381 C367 0.961 . S
H382 C367 0.961 . S
H383 C367 0.961 . S
H384 C368 0.931 . S
H385 C373 0.930 . S
H386 C374 0.956 . S
H387 C374 0.961 . S
H388 C374 0.961 . S
H389 C375 0.958 . S
H390 C375 0.961 . S
H391 C375 0.960 . S
C392 C393 1.391 . S
C392 C394 1.394 . S
C392 H408 0.931 . S
C393 C392 1.391 . S
C393 C397 1.376 1_554 S
C394 C392 1.394 . S
C394 C395 1.369 . S
C394 C398 1.531 . S
C395 C394 1.369 . S
C395 C396 1.410 1_554 S
C395 C403 1.503 . S
C396 C395 1.410 1_556 S
C396 C397 1.392 . S
C396 C399 1.511 . S
C397 C393 1.376 1_556 S
C397 C396 1.392 . S
C397 H409 0.929 . S
C398 C394 1.531 . S
C398 H410 0.960 . S
C398 H411 0.962 . S
C398 H412 0.960 . S
C399 C396 1.511 . S
C399 H413 0.961 . S
C399 H414 0.961 . S
C399 H415 0.961 . S
C400 C401 1.370 . S
C400 C402 1.363 . S
C400 H416 0.931 . S
C401 C400 1.370 . S
C401 C405 1.408 1_556 S
C402 C400 1.363 . S
C402 C403 1.370 1_556 S
C402 C406 1.524 . S
C403 C395 1.503 . S
C403 C402 1.370 1_554 S
C403 C404 1.403 . S
C404 C403 1.403 . S
C404 C405 1.404 . S
C404 C407 1.539 . S
C405 C401 1.408 1_554 S
C405 C404 1.404 . S
C405 H417 0.930 . S
C406 C402 1.524 . S
C406 H418 0.956 1_556 S
C406 H419 0.961 . S
C406 H420 0.961 . S
C407 C404 1.539 . S
C407 H421 0.958 . S
C407 H422 0.961 . S
C407 H423 0.960 . S
H408 C392 0.931 . S
H409 C397 0.929 . S
H410 C398 0.960 . S
H411 C398 0.962 . S
H412 C398 0.960 . S
H413 C399 0.961 . S
H414 C399 0.961 . S
H415 C399 0.961 . S
H416 C400 0.931 . S
H417 C405 0.930 . S
H418 C406 0.956 1_554 S
H419 C406 0.961 . S
H420 C406 0.961 . S
H421 C407 0.958 . S
H422 C407 0.961 . S
H423 C407 0.960 . S
C424 C425 1.391 . S
C424 C426 1.394 . S
C424 H440 0.931 . S
C425 C424 1.391 . S
C425 C429 1.376 1_556 S
C426 C424 1.394 . S
C426 C427 1.369 . S
C426 C430 1.531 . S
C427 C426 1.369 . S
C427 C428 1.410 1_556 S
C427 C435 1.500 1_556 S
C428 C427 1.410 1_554 S
C428 C429 1.392 . S
C428 C431 1.511 . S
C429 C425 1.376 1_554 S
C429 C428 1.392 . S
C429 H441 0.929 . S
C430 C426 1.531 . S
C430 H442 0.960 . S
C430 H443 0.962 . S
C430 H444 0.960 . S
C431 C428 1.511 . S
C431 H445 0.961 . S
C431 H446 0.961 . S
C431 H447 0.961 . S
C432 C433 1.370 . S
C432 C434 1.363 . S
C432 H448 0.931 . S
C433 C432 1.370 . S
C433 C437 1.408 1_554 S
C434 C432 1.363 . S
C434 C435 1.386 . S
C434 C438 1.524 . S
C435 C427 1.500 1_554 S
C435 C434 1.386 . S
C435 C436 1.391 1_554 S
C436 C435 1.391 1_556 S
C436 C437 1.404 . S
C436 C439 1.539 . S
C437 C433 1.408 1_556 S
C437 C436 1.404 . S
C437 H449 0.930 . S
C438 C434 1.524 . S
C438 H450 0.956 . S
C438 H451 0.961 . S
C438 H452 0.961 . S
C439 C436 1.539 . S
C439 H453 0.958 . S
C439 H454 0.961 . S
C439 H455 0.960 . S
H440 C424 0.931 . S
H441 C429 0.929 . S
H442 C430 0.960 . S
H443 C430 0.962 . S
H444 C430 0.960 . S
H445 C431 0.961 . S
H446 C431 0.961 . S
H447 C431 0.961 . S
H448 C432 0.931 . S
H449 C437 0.930 . S
H450 C438 0.956 . S
H451 C438 0.961 . S
H452 C438 0.961 . S
H453 C439 0.958 . S
H454 C439 0.961 . S
H455 C439 0.960 . S
C456 C457 1.391 . S
C456 C458 1.394 . S
C456 H472 0.931 . S
C457 C456 1.391 . S
C457 C461 1.376 1_554 S
C458 C456 1.394 . S
C458 C459 1.369 . S
C458 C462 1.531 . S
C459 C458 1.369 . S
C459 C460 1.399 1_554 S
C459 C467 1.503 . S
C460 C459 1.399 1_556 S
C460 C461 1.392 . S
C460 C463 1.522 . S
C461 C457 1.376 1_556 S
C461 C460 1.392 . S
C461 H473 0.929 . S
C462 C458 1.531 . S
C462 H474 0.960 . S
C462 H475 0.962 . S
C462 H476 0.960 . S
C463 C460 1.522 . S
C463 H477 0.961 . S
C463 H478 0.961 . S
C463 H479 0.961 . S
C464 C465 1.370 1_556 S
C464 C466 1.363 . S
C464 H480 0.931 . S
C465 C464 1.370 1_554 S
C465 C469 1.408 . S
C466 C464 1.363 . S
C466 C467 1.370 1_556 S
C466 C470 1.524 . S
C467 C459 1.503 . S
C467 C466 1.370 1_554 S
C467 C468 1.403 . S
C468 C467 1.403 . S
C468 C469 1.404 . S
C468 C471 1.539 . S
C469 C465 1.408 . S
C469 C468 1.404 . S
C469 H481 0.930 . S
C470 C466 1.524 . S
C470 H482 0.956 . S
C470 H483 0.961 . S
C470 H484 0.961 . S
C471 C468 1.539 . S
C471 H485 0.958 . S
C471 H486 0.961 . S
C471 H487 0.960 . S
H472 C456 0.931 . S
H473 C461 0.929 . S
H474 C462 0.960 . S
H475 C462 0.962 . S
H476 C462 0.960 . S
H477 C463 0.961 . S
H478 C463 0.961 . S
H479 C463 0.961 . S
H480 C464 0.931 . S
H481 C469 0.930 . S
H482 C470 0.956 . S
H483 C470 0.961 . S
H484 C470 0.961 . S
H485 C471 0.958 . S
H486 C471 0.961 . S
H487 C471 0.960 . S
C488 C489 1.391 . S
C488 C490 1.394 . S
C488 H504 0.931 . S
C489 C488 1.391 . S
C489 C493 1.376 . S
C490 C488 1.394 . S
C490 C491 1.369 . S
C490 C494 1.531 . S
C491 C490 1.369 . S
C491 C492 1.410 . S
C491 C499 1.503 . S
C492 C491 1.410 . S
C492 C493 1.392 . S
C492 C495 1.511 1_554 S
C493 C489 1.376 . S
C493 C492 1.392 . S
C493 H505 0.929 . S
C494 C490 1.531 . S
C494 H506 0.960 . S
C494 H507 0.962 . S
C494 H508 0.960 . S
C495 C492 1.511 1_556 S
C495 H509 0.962 . S
C495 H510 0.962 . S
C495 H511 0.959 1_556 S
C496 C497 1.370 1_556 S
C496 C498 1.363 . S
C496 H512 0.931 . S
C497 C496 1.370 1_554 S
C497 C501 1.408 . S
C498 C496 1.363 . S
C498 C499 1.370 1_556 S
C498 C502 1.524 . S
C499 C491 1.503 . S
C499 C498 1.370 1_554 S
C499 C500 1.403 . S
C500 C499 1.403 . S
C500 C501 1.404 . S
C500 C503 1.539 . S
C501 C497 1.408 . S
C501 C500 1.404 . S
C501 H513 0.930 . S
C502 C498 1.524 . S
C502 H514 0.956 . S
C502 H515 0.961 . S
C502 H516 0.961 . S
C503 C500 1.539 . S
C503 H517 0.958 . S
C503 H518 0.961 . S
C503 H519 0.960 . S
H504 C488 0.931 . S
H505 C493 0.929 . S
H506 C494 0.960 . S
H507 C494 0.962 . S
H508 C494 0.960 . S
H509 C495 0.962 . S
H510 C495 0.962 . S
H511 C495 0.959 1_554 S
H512 C496 0.931 . S
H513 C501 0.930 . S
H514 C502 0.956 . S
H515 C502 0.961 . S
H516 C502 0.961 . S
H517 C503 0.958 . S
H518 C503 0.961 . S
H519 C503 0.960 . S
C520 C521 1.391 . S
C520 C522 1.398 . S
C520 H536 0.931 1_554 S
C521 C520 1.391 . S
C521 C525 1.376 . S
C522 C520 1.398 . S
C522 C523 1.377 . S
C522 C526 1.519 1_554 S
C523 C522 1.377 . S
C523 C524 1.410 . S
C523 C531 1.503 . S
C524 C523 1.410 . S
C524 C525 1.392 . S
C524 C527 1.511 . S
C525 C521 1.376 . S
C525 C524 1.392 . S
C525 H537 0.929 . S
C526 C522 1.519 1_556 S
C526 H538 0.960 . S
C526 H539 0.962 1_556 S
C526 H540 0.960 . S
C527 C524 1.511 . S
C527 H541 0.961 . S
C527 H542 0.961 . S
C527 H543 0.961 . S
C528 C529 1.370 . S
C528 C530 1.363 . S
C528 H544 0.931 . S
C529 C528 1.370 . S
C529 C533 1.408 1_554 S
C530 C528 1.363 . S
C530 C531 1.370 . S
C530 C534 1.524 . S
C531 C523 1.503 . S
C531 C530 1.370 . S
C531 C532 1.403 1_554 S
C532 C531 1.403 1_556 S
C532 C533 1.404 . S
C532 C535 1.539 . S
C533 C529 1.408 1_556 S
C533 C532 1.404 . S
C533 H545 0.930 . S
C534 C530 1.524 . S
C534 H546 0.956 . S
C534 H547 0.961 . S
C534 H548 0.961 . S
C535 C532 1.539 . S
C535 H549 0.958 . S
C535 H550 0.961 . S
C535 H551 0.960 . S
H536 C520 0.931 1_556 S
H537 C525 0.929 . S
H538 C526 0.960 . S
H539 C526 0.962 1_554 S
H540 C526 0.960 . S
H541 C527 0.961 . S
H542 C527 0.961 . S
H543 C527 0.961 . S
H544 C528 0.931 . S
H545 C533 0.930 . S
H546 C534 0.956 . S
H547 C534 0.961 . S
H548 C534 0.961 . S
H549 C535 0.958 . S
H550 C535 0.961 . S
H551 C535 0.960 . S
C552 C553 1.391 . S
C552 C554 1.394 . S
C552 H568 0.931 . S
C553 C552 1.391 . S
C553 C557 1.376 . S
C554 C552 1.394 . S
C554 C555 1.369 . S
C554 C558 1.531 1_655 S
C555 C554 1.369 . S
C555 C556 1.410 . S
C555 C563 1.503 1_655 S
C556 C555 1.410 . S
C556 C557 1.392 . S
C556 C559 1.511 . S
C557 C553 1.376 . S
C557 C556 1.392 . S
C557 H569 0.929 . S
C558 C554 1.531 1_455 S
C558 H570 0.960 . S
C558 H571 0.962 . S
C558 H572 0.960 1_455 S
C559 C556 1.511 . S
C559 H573 0.961 . S
C559 H574 0.961 . S
C559 H575 0.961 . S
C560 C561 1.370 . S
C560 C562 1.363 . S
C560 H576 0.931 . S
C561 C560 1.370 . S
C561 C565 1.408 . S
C562 C560 1.363 . S
C562 C563 1.370 . S
C562 C566 1.524 . S
C563 C555 1.503 1_455 S
C563 C562 1.370 . S
C563 C564 1.403 . S
C564 C563 1.403 . S
C564 C565 1.404 . S
C564 C567 1.539 . S
C565 C561 1.408 . S
C565 C564 1.404 . S
C565 H577 0.930 . S
C566 C562 1.524 . S
C566 H578 0.956 . S
C566 H579 0.961 . S
C566 H580 0.961 . S
C567 C564 1.539 . S
C567 H581 0.958 . S
C567 H582 0.961 . S
C567 H583 0.960 . S
H568 C552 0.931 . S
H569 C557 0.929 . S
H570 C558 0.960 . S
H571 C558 0.962 . S
H572 C558 0.960 1_655 S
H573 C559 0.961 . S
H574 C559 0.961 . S
H575 C559 0.961 . S
H576 C560 0.931 . S
H577 C565 0.930 . S
H578 C566 0.956 . S
H579 C566 0.961 . S
H580 C566 0.961 . S
H581 C567 0.958 . S
H582 C567 0.961 . S
H583 C567 0.960 . S
C584 C585 1.391 . S
C584 C586 1.394 . S
C584 H600 0.931 . S
C585 C584 1.391 . S
C585 C589 1.376 . S
C586 C584 1.394 . S
C586 C587 1.369 . S
C586 C590 1.531 . S
C587 C586 1.369 . S
C587 C588 1.410 . S
C587 C595 1.503 . S
C588 C587 1.410 . S
C588 C589 1.392 . S
C588 C591 1.511 . S
C589 C585 1.376 . S
C589 C588 1.392 . S
C589 H601 0.929 . S
C590 C586 1.531 . S
C590 H602 0.960 . S
C590 H603 0.962 . S
C590 H604 0.960 . S
C591 C588 1.511 . S
C591 H605 0.961 . S
C591 H606 0.961 . S
C591 H607 0.961 . S
C592 C593 1.370 . S
C592 C594 1.363 . S
C592 H608 0.931 . S
C593 C592 1.370 . S
C593 C597 1.408 . S
C594 C592 1.363 . S
C594 C595 1.370 . S
C594 C598 1.524 . S
C595 C587 1.503 . S
C595 C594 1.370 . S
C595 C596 1.403 . S
C596 C595 1.403 . S
C596 C597 1.404 . S
C596 C599 1.539 . S
C597 C593 1.408 . S
C597 C596 1.404 . S
C597 H609 0.930 . S
C598 C594 1.524 . S
C598 H610 0.956 . S
C598 H611 0.961 . S
C598 H612 0.961 . S
C599 C596 1.539 . S
C599 H613 0.958 . S
C599 H614 0.961 . S
C599 H615 0.960 . S
H600 C584 0.931 . S
H601 C589 0.929 . S
H602 C590 0.960 . S
H603 C590 0.962 . S
H604 C590 0.960 . S
H605 C591 0.961 . S
H606 C591 0.961 . S
H607 C591 0.961 . S
H608 C592 0.931 . S
H609 C597 0.930 . S
H610 C598 0.956 . S
H611 C598 0.961 . S
H612 C598 0.961 . S
H613 C599 0.958 . S
H614 C599 0.961 . S
H615 C599 0.960 . S
C616 C617 1.391 . S
C616 C618 1.394 . S
C616 H632 0.931 . S
C617 C616 1.391 . S
C617 C621 1.376 . S
C618 C616 1.394 . S
C618 C619 1.369 . S
C618 C622 1.531 1_545 S
C619 C618 1.369 . S
C619 C620 1.410 . S
C619 C627 1.503 1_545 S
C620 C619 1.410 . S
C620 C621 1.392 . S
C620 C623 1.511 . S
C621 C617 1.376 . S
C621 C620 1.392 . S
C621 H633 0.929 . S
C622 C618 1.531 1_565 S
C622 H634 0.960 . S
C622 H635 0.962 . S
C622 H636 0.960 . S
C623 C620 1.511 . S
C623 H637 0.961 . S
C623 H638 0.961 . S
C623 H639 0.961 . S
C624 C625 1.370 . S
C624 C626 1.363 . S
C624 H640 0.931 . S
C625 C624 1.370 . S
C625 C629 1.408 . S
C626 C624 1.363 . S
C626 C627 1.370 . S
C626 C630 1.524 . S
C627 C619 1.503 1_565 S
C627 C626 1.370 . S
C627 C628 1.403 . S
C628 C627 1.403 . S
C628 C629 1.404 . S
C628 C631 1.539 . S
C629 C625 1.408 . S
C629 C628 1.404 . S
C629 H641 0.930 . S
C630 C626 1.524 . S
C630 H642 0.956 . S
C630 H643 0.961 . S
C630 H644 0.961 . S
C631 C628 1.539 . S
C631 H645 0.958 . S
C631 H646 0.961 . S
C631 H647 0.960 1_565 S
H632 C616 0.931 . S
H633 C621 0.929 . S
H634 C622 0.960 . S
H635 C622 0.962 . S
H636 C622 0.960 . S
H637 C623 0.961 . S
H638 C623 0.961 . S
H639 C623 0.961 . S
H640 C624 0.931 . S
H641 C629 0.930 . S
H642 C630 0.956 . S
H643 C630 0.961 . S
H644 C630 0.961 . S
H645 C631 0.958 . S
H646 C631 0.961 . S
H647 C631 0.960 1_545 S
C648 C649 1.391 . S
C648 C650 1.394 . S
C648 H664 0.931 . S
C649 C648 1.391 . S
C649 C653 1.376 . S
C650 C648 1.394 . S
C650 C651 1.369 . S
C650 C654 1.531 . S
C651 C650 1.369 . S
C651 C652 1.410 . S
C651 C659 1.503 . S
C652 C651 1.410 . S
C652 C653 1.392 . S
C652 C655 1.511 . S
C653 C649 1.376 . S
C653 C652 1.392 . S
C653 H665 0.929 . S
C654 C650 1.531 . S
C654 H666 0.960 . S
C654 H667 0.962 . S
C654 H668 0.960 . S
C655 C652 1.511 . S
C655 H669 0.961 . S
C655 H670 0.961 . S
C655 H671 0.961 . S
C656 C657 1.370 . S
C656 C658 1.363 . S
C656 H672 0.931 . S
C657 C656 1.370 . S
C657 C661 1.408 . S
C658 C656 1.363 . S
C658 C659 1.370 . S
C658 C662 1.524 . S
C659 C651 1.503 . S
C659 C658 1.370 . S
C659 C660 1.403 . S
C660 C659 1.403 . S
C660 C661 1.404 . S
C660 C663 1.539 . S
C661 C657 1.408 . S
C661 C660 1.404 . S
C661 H673 0.930 . S
C662 C658 1.524 . S
C662 H674 0.956 . S
C662 H675 0.961 . S
C662 H676 0.961 . S
C663 C660 1.539 . S
C663 H677 0.958 . S
C663 H678 0.961 . S
C663 H679 0.960 . S
H664 C648 0.931 . S
H665 C653 0.929 . S
H666 C654 0.960 . S
H667 C654 0.962 . S
H668 C654 0.960 . S
H669 C655 0.961 . S
H670 C655 0.961 . S
H671 C655 0.961 . S
H672 C656 0.931 . S
H673 C661 0.930 . S
H674 C662 0.956 . S
H675 C662 0.961 . S
H676 C662 0.961 . S
H677 C663 0.958 . S
H678 C663 0.961 . S
H679 C663 0.960 . S
C680 C681 1.391 . S
C680 C682 1.394 . S
C680 H696 0.931 . S
C681 C680 1.391 . S
C681 C685 1.376 . S
C682 C680 1.394 . S
C682 C683 1.369 . S
C682 C686 1.531 . S
C683 C682 1.369 . S
C683 C684 1.410 . S
C683 C691 1.503 . S
C684 C683 1.410 . S
C684 C685 1.392 . S
C684 C687 1.511 . S
C685 C681 1.376 . S
C685 C684 1.392 . S
C685 H697 0.929 . S
C686 C682 1.531 . S
C686 H698 0.960 . S
C686 H699 0.962 . S
C686 H700 0.960 . S
C687 C684 1.511 . S
C687 H701 0.961 . S
C687 H702 0.961 . S
C687 H703 0.961 . S
C688 C689 1.370 . S
C688 C690 1.363 . S
C688 H704 0.931 . S
C689 C688 1.370 . S
C689 C693 1.408 . S
C690 C688 1.363 . S
C690 C691 1.370 . S
C690 C694 1.524 . S
C691 C683 1.503 . S
C691 C690 1.370 . S
C691 C692 1.403 . S
C692 C691 1.403 . S
C692 C693 1.404 . S
C692 C695 1.539 . S
C693 C689 1.408 . S
C693 C692 1.404 . S
C693 H705 0.930 . S
C694 C690 1.524 . S
C694 H706 0.956 . S
C694 H707 0.961 . S
C694 H708 0.961 . S
C695 C692 1.539 . S
C695 H709 0.958 . S
C695 H710 0.961 . S
C695 H711 0.960 . S
H696 C680 0.931 . S
H697 C685 0.929 . S
H698 C686 0.960 . S
H699 C686 0.962 . S
H700 C686 0.960 . S
H701 C687 0.961 . S
H702 C687 0.961 . S
H703 C687 0.961 . S
H704 C688 0.931 . S
H705 C693 0.930 . S
H706 C694 0.956 . S
H707 C694 0.961 . S
H708 C694 0.961 . S
H709 C695 0.958 . S
H710 C695 0.961 . S
H711 C695 0.960 . S
C712 C713 1.391 . S
C712 C714 1.394 . S
C712 H728 0.931 . S
C713 C712 1.391 . S
C713 C717 1.376 . S
C714 C712 1.394 . S
C714 C715 1.369 . S
C714 C718 1.531 . S
C715 C714 1.369 . S
C715 C716 1.410 . S
C715 C723 1.503 . S
C716 C715 1.410 . S
C716 C717 1.392 . S
C716 C719 1.511 . S
C717 C713 1.376 . S
C717 C716 1.392 . S
C717 H729 0.929 . S
C718 C714 1.531 . S
C718 H730 0.960 . S
C718 H731 0.962 . S
C718 H732 0.960 . S
C719 C716 1.511 . S
C719 H733 0.961 . S
C719 H734 0.961 . S
C719 H735 0.961 . S
C720 C721 1.370 . S
C720 C722 1.363 . S
C720 H736 0.931 . S
C721 C720 1.370 . S
C721 C725 1.408 . S
C722 C720 1.363 . S
C722 C723 1.370 . S
C722 C726 1.524 . S
C723 C715 1.503 . S
C723 C722 1.370 . S
C723 C724 1.403 . S
C724 C723 1.403 . S
C724 C725 1.404 . S
C724 C727 1.539 . S
C725 C721 1.408 . S
C725 C724 1.404 . S
C725 H737 0.930 . S
C726 C722 1.524 . S
C726 H738 0.956 . S
C726 H739 0.961 . S
C726 H740 0.961 . S
C727 C724 1.539 . S
C727 H741 0.958 . S
C727 H742 0.961 . S
C727 H743 0.960 . S
H728 C712 0.931 . S
H729 C717 0.929 . S
H730 C718 0.960 . S
H731 C718 0.962 . S
H732 C718 0.960 . S
H733 C719 0.961 . S
H734 C719 0.961 . S
H735 C719 0.961 . S
H736 C720 0.931 . S
H737 C725 0.930 . S
H738 C726 0.956 . S
H739 C726 0.961 . S
H740 C726 0.961 . S
H741 C727 0.958 . S
H742 C727 0.961 . S
H743 C727 0.960 . S
C744 C745 1.391 . S
C744 C746 1.394 . S
C744 H760 0.931 . S
C745 C744 1.391 . S
C745 C749 1.376 . S
C746 C744 1.394 . S
C746 C747 1.369 . S
C746 C750 1.531 . S
C747 C746 1.369 . S
C747 C748 1.410 . S
C747 C755 1.503 . S
C748 C747 1.410 . S
C748 C749 1.392 . S
C748 C751 1.511 . S
C749 C745 1.376 . S
C749 C748 1.392 . S
C749 H761 0.929 . S
C750 C746 1.531 . S
C750 H762 0.960 . S
C750 H763 0.962 . S
C750 H764 0.960 . S
C751 C748 1.511 . S
C751 H765 0.961 . S
C751 H766 0.961 . S
C751 H767 0.961 . S
C752 C753 1.370 . S
C752 C754 1.363 . S
C752 H768 0.931 . S
C753 C752 1.370 . S
C753 C757 1.408 . S
C754 C752 1.363 . S
C754 C755 1.370 . S
C754 C758 1.524 . S
C755 C747 1.503 . S
C755 C754 1.370 . S
C755 C756 1.403 . S
C756 C755 1.403 . S
C756 C757 1.404 . S
C756 C759 1.539 . S
C757 C753 1.408 . S
C757 C756 1.404 . S
C757 H769 0.930 . S
C758 C754 1.524 . S
C758 H770 0.956 . S
C758 H771 0.961 . S
C758 H772 0.961 . S
C759 C756 1.539 . S
C759 H773 0.958 . S
C759 H774 0.961 . S
C759 H775 0.960 . S
H760 C744 0.931 . S
H761 C749 0.929 . S
H762 C750 0.960 . S
H763 C750 0.962 . S
H764 C750 0.960 . S
H765 C751 0.961 . S
H766 C751 0.961 . S
H767 C751 0.961 . S
H768 C752 0.931 . S
H769 C757 0.930 . S
H770 C758 0.956 . S
H771 C758 0.961 . S
H772 C758 0.961 . S
H773 C759 0.958 . S
H774 C759 0.961 . S
H775 C759 0.960 . S
C776 C777 1.391 . S
C776 C778 1.394 . S
C776 H792 0.931 . S
C777 C776 1.391 . S
C777 C781 1.376 . S
C778 C776 1.394 . S
C778 C779 1.369 . S
C778 C782 1.531 . S
C779 C778 1.369 . S
C779 C780 1.410 . S
C779 C787 1.503 . S
C780 C779 1.410 . S
C780 C781 1.392 . S
C780 C783 1.511 . S
C781 C777 1.376 . S
C781 C780 1.392 . S
C781 H793 0.929 . S
C782 C778 1.531 . S
C782 H794 0.960 . S
C782 H795 0.962 . S
C782 H796 0.960 . S
C783 C780 1.511 . S
C783 H797 0.961 . S
C783 H798 0.961 . S
C783 H799 0.961 . S
C784 C785 1.370 . S
C784 C786 1.363 . S
C784 H800 0.931 . S
C785 C784 1.370 . S
C785 C789 1.408 . S
C786 C784 1.363 . S
C786 C787 1.370 . S
C786 C790 1.524 . S
C787 C779 1.503 . S
C787 C786 1.370 . S
C787 C788 1.403 . S
C788 C787 1.403 . S
C788 C789 1.404 . S
C788 C791 1.539 . S
C789 C785 1.408 . S
C789 C788 1.404 . S
C789 H801 0.930 . S
C790 C786 1.524 . S
C790 H802 0.956 . S
C790 H803 0.961 . S
C790 H804 0.961 . S
C791 C788 1.539 . S
C791 H805 0.958 . S
C791 H806 0.961 . S
C791 H807 0.960 . S
H792 C776 0.931 . S
H793 C781 0.929 . S
H794 C782 0.960 . S
H795 C782 0.962 . S
H796 C782 0.960 . S
H797 C783 0.961 . S
H798 C783 0.961 . S
H799 C783 0.961 . S
H800 C784 0.931 . S
H801 C789 0.930 . S
H802 C790 0.956 . S
H803 C790 0.961 . S
H804 C790 0.961 . S
H805 C791 0.958 . S
H806 C791 0.961 . S
H807 C791 0.960 . S
C808 C809 1.391 . S
C808 C810 1.394 . S
C808 H824 0.931 . S
C809 C808 1.391 . S
C809 C813 1.376 . S
C810 C808 1.394 . S
C810 C811 1.369 . S
C810 C814 1.531 . S
C811 C810 1.369 . S
C811 C812 1.410 . S
C811 C819 1.503 . S
C812 C811 1.410 . S
C812 C813 1.392 . S
C812 C815 1.511 . S
C813 C809 1.376 . S
C813 C812 1.392 . S
C813 H825 0.929 . S
C814 C810 1.531 . S
C814 H826 0.960 . S
C814 H827 0.962 . S
C814 H828 0.960 . S
C815 C812 1.511 . S
C815 H829 0.961 . S
C815 H830 0.961 . S
C815 H831 0.961 . S
C816 C817 1.370 . S
C816 C818 1.363 . S
C816 H832 0.931 . S
C817 C816 1.370 . S
C817 C821 1.408 . S
C818 C816 1.363 . S
C818 C819 1.370 . S
C818 C822 1.524 . S
C819 C811 1.503 . S
C819 C818 1.370 . S
C819 C820 1.403 . S
C820 C819 1.403 . S
C820 C821 1.404 . S
C820 C823 1.539 . S
C821 C817 1.408 . S
C821 C820 1.404 . S
C821 H833 0.930 . S
C822 C818 1.524 . S
C822 H834 0.956 . S
C822 H835 0.961 . S
C822 H836 0.961 . S
C823 C820 1.539 . S
C823 H837 0.958 . S
C823 H838 0.961 . S
C823 H839 0.960 . S
H824 C808 0.931 . S
H825 C813 0.929 . S
H826 C814 0.960 . S
H827 C814 0.962 . S
H828 C814 0.960 . S
H829 C815 0.961 . S
H830 C815 0.961 . S
H831 C815 0.961 . S
H832 C816 0.931 . S
H833 C821 0.930 . S
H834 C822 0.956 . S
H835 C822 0.961 . S
H836 C822 0.961 . S
H837 C823 0.958 . S
H838 C823 0.961 . S
H839 C823 0.960 . S
C840 C841 1.391 . S
C840 C842 1.394 . S
C840 H856 0.931 . S
C841 C840 1.391 . S
C841 C845 1.376 . S
C842 C840 1.394 . S
C842 C843 1.369 . S
C842 C846 1.531 . S
C843 C842 1.369 . S
C843 C844 1.410 . S
C843 C851 1.503 . S
C844 C843 1.410 . S
C844 C845 1.392 . S
C844 C847 1.511 . S
C845 C841 1.376 . S
C845 C844 1.392 . S
C845 H857 0.929 . S
C846 C842 1.531 . S
C846 H858 0.960 . S
C846 H859 0.962 . S
C846 H860 0.960 . S
C847 C844 1.511 . S
C847 H861 0.961 . S
C847 H862 0.961 . S
C847 H863 0.961 . S
C848 C849 1.370 . S
C848 C850 1.376 . S
C848 H864 0.931 . S
C849 C848 1.370 . S
C849 C853 1.408 . S
C850 C848 1.376 . S
C850 C851 1.367 1_545 S
C850 C854 1.514 1_545 S
C851 C843 1.503 . S
C851 C850 1.367 1_565 S
C851 C852 1.403 . S
C852 C851 1.403 . S
C852 C853 1.404 1_565 S
C852 C855 1.539 . S
C853 C849 1.408 . S
C853 C852 1.404 1_545 S
C853 H865 0.930 . S
C854 C850 1.514 1_565 S
C854 H866 0.956 . S
C854 H867 0.961 . S
C854 H868 0.961 1_565 S
C855 C852 1.539 . S
C855 H869 0.958 . S
C855 H870 0.961 . S
C855 H871 0.960 . S
H856 C840 0.931 . S
H857 C845 0.929 . S
H858 C846 0.960 . S
H859 C846 0.962 . S
H860 C846 0.960 . S
H861 C847 0.961 . S
H862 C847 0.961 . S
H863 C847 0.961 . S
H864 C848 0.931 . S
H865 C853 0.930 . S
H866 C854 0.956 . S
H867 C854 0.961 . S
H868 C854 0.961 1_545 S
H869 C855 0.958 . S
H870 C855 0.961 . S
H871 C855 0.960 . S
C872 C873 1.391 . S
C872 C874 1.394 . S
C872 H888 0.954 . S
C873 C872 1.391 . S
C873 C877 1.376 . S
C874 C872 1.394 . S
C874 C875 1.369 . S
C874 C878 1.531 1_565 S
C875 C874 1.369 . S
C875 C876 1.410 . S
C875 C883 1.503 . S
C876 C875 1.410 . S
C876 C877 1.392 . S
C876 C879 1.511 . S
C877 C873 1.376 . S
C877 C876 1.392 . S
C877 H889 0.929 . S
C878 C874 1.531 1_545 S
C878 H890 0.960 . S
C878 H891 0.962 . S
C878 H892 0.960 . S
C879 C876 1.511 . S
C879 H893 0.961 . S
C879 H894 0.961 . S
C879 H895 0.961 . S
C880 C881 1.370 1_565 S
C880 C882 1.363 . S
C880 H896 0.931 . S
C881 C880 1.370 1_545 S
C881 C885 1.408 . S
C882 C880 1.363 . S
C882 C883 1.370 . S
C882 C886 1.524 . S
C883 C875 1.503 . S
C883 C882 1.370 . S
C883 C884 1.403 1_565 S
C884 C883 1.403 1_545 S
C884 C885 1.404 . S
C884 C887 1.539 . S
C885 C881 1.408 . S
C885 C884 1.404 . S
C885 H897 0.930 . S
C886 C882 1.524 . S
C886 H898 0.956 . S
C886 H899 0.961 . S
C886 H900 0.961 . S
C887 C884 1.539 . S
C887 H901 0.958 . S
C887 H902 0.961 . S
C887 H903 0.960 1_545 S
H888 C872 0.954 . S
H889 C877 0.929 . S
H890 C878 0.960 . S
H891 C878 0.962 . S
H892 C878 0.960 . S
H893 C879 0.961 . S
H894 C879 0.961 . S
H895 C879 0.961 . S
H896 C880 0.931 . S
H897 C885 0.930 . S
H898 C886 0.956 . S
H899 C886 0.961 . S
H900 C886 0.961 . S
H901 C887 0.958 . S
H902 C887 0.961 . S
H903 C887 0.960 1_565 S
C904 C905 1.391 . S
C904 C906 1.394 . S
C904 H920 0.931 . S
C905 C904 1.391 . S
C905 C909 1.376 . S
C906 C904 1.394 . S
C906 C907 1.369 . S
C906 C910 1.531 . S
C907 C906 1.369 . S
C907 C908 1.410 . S
C907 C915 1.503 . S
C908 C907 1.410 . S
C908 C909 1.392 . S
C908 C911 1.511 . S
C909 C905 1.376 . S
C909 C908 1.392 . S
C909 H921 0.929 . S
C910 C906 1.531 . S
C910 H922 0.960 . S
C910 H923 0.962 . S
C910 H924 0.960 . S
C911 C908 1.511 . S
C911 H925 0.961 . S
C911 H926 0.961 . S
C911 H927 0.961 . S
C912 C913 1.370 . S
C912 C914 1.363 . S
C912 H928 0.931 . S
C913 C912 1.370 . S
C913 C917 1.408 . S
C914 C912 1.363 . S
C914 C915 1.370 . S
C914 C918 1.524 . S
C915 C907 1.503 . S
C915 C914 1.370 . S
C915 C916 1.403 . S
C916 C915 1.403 . S
C916 C917 1.404 . S
C916 C919 1.539 . S
C917 C913 1.408 . S
C917 C916 1.404 . S
C917 H929 0.930 . S
C918 C914 1.524 . S
C918 H930 0.956 . S
C918 H931 0.961 . S
C918 H932 0.961 . S
C919 C916 1.539 . S
C919 H933 0.958 . S
C919 H934 0.961 . S
C919 H935 0.960 . S
H920 C904 0.931 . S
H921 C909 0.929 . S
H922 C910 0.960 . S
H923 C910 0.962 . S
H924 C910 0.960 . S
H925 C911 0.961 . S
H926 C911 0.961 . S
H927 C911 0.961 . S
H928 C912 0.931 . S
H929 C917 0.930 . S
H930 C918 0.956 . S
H931 C918 0.961 . S
H932 C918 0.961 . S
H933 C919 0.958 . S
H934 C919 0.961 . S
H935 C919 0.960 . S
C936 C937 1.391 . S
C936 C938 1.394 . S
C936 H952 0.931 . S
C937 C936 1.391 . S
C937 C941 1.376 . S
C938 C936 1.394 . S
C938 C939 1.369 . S
C938 C942 1.531 . S
C939 C938 1.369 . S
C939 C940 1.410 . S
C939 C947 1.503 . S
C940 C939 1.410 . S
C940 C941 1.392 . S
C940 C943 1.511 . S
C941 C937 1.376 . S
C941 C940 1.392 . S
C941 H953 0.929 . S
C942 C938 1.531 . S
C942 H954 0.960 . S
C942 H955 0.962 . S
C942 H956 0.960 . S
C943 C940 1.511 . S
C943 H957 0.961 . S
C943 H958 0.961 . S
C943 H959 0.961 . S
C944 C945 1.370 . S
C944 C946 1.363 . S
C944 H960 0.931 . S
C945 C944 1.370 . S
C945 C949 1.408 . S
C946 C944 1.363 . S
C946 C947 1.370 . S
C946 C950 1.524 . S
C947 C939 1.503 . S
C947 C946 1.370 . S
C947 C948 1.403 . S
C948 C947 1.403 . S
C948 C949 1.404 . S
C948 C951 1.539 . S
C949 C945 1.408 . S
C949 C948 1.404 . S
C949 H961 0.930 . S
C950 C946 1.524 . S
C950 H962 0.956 . S
C950 H963 0.961 . S
C950 H964 0.961 . S
C951 C948 1.539 . S
C951 H965 0.958 . S
C951 H966 0.961 1_455 S
C951 H967 0.960 . S
H952 C936 0.931 . S
H953 C941 0.929 . S
H954 C942 0.960 . S
H955 C942 0.962 . S
H956 C942 0.960 . S
H957 C943 0.961 . S
H958 C943 0.961 . S
H959 C943 0.961 . S
H960 C944 0.931 . S
H961 C949 0.930 . S
H962 C950 0.956 . S
H963 C950 0.961 . S
H964 C950 0.961 . S
H965 C951 0.958 . S
H966 C951 0.961 1_655 S
H967 C951 0.960 . S
C968 C969 1.391 . S
C968 C970 1.394 . S
C968 H984 0.931 . S
C969 C968 1.391 . S
C969 C973 1.376 . S
C970 C968 1.394 . S
C970 C971 1.369 . S
C970 C974 1.531 . S
C971 C970 1.369 . S
C971 C972 1.410 . S
C971 C979 1.503 . S
C972 C971 1.410 . S
C972 C973 1.392 . S
C972 C975 1.511 . S
C973 C969 1.376 . S
C973 C972 1.392 . S
C973 H985 0.929 . S
C974 C970 1.531 . S
C974 H986 0.960 . S
C974 H987 0.962 . S
C974 H988 0.960 . S
C975 C972 1.511 . S
C975 H989 0.961 . S
C975 H990 0.961 . S
C975 H991 0.961 . S
C976 C977 1.370 . S
C976 C978 1.363 . S
C976 H992 0.931 . S
C977 C976 1.370 . S
C977 C981 1.408 . S
C978 C976 1.363 . S
C978 C979 1.370 . S
C978 C982 1.524 . S
C979 C971 1.503 . S
C979 C978 1.370 . S
C979 C980 1.403 . S
C980 C979 1.403 . S
C980 C981 1.404 . S
C980 C983 1.539 . S
C981 C977 1.408 . S
C981 C980 1.404 . S
C981 H993 0.930 . S
C982 C978 1.524 . S
C982 H994 0.956 . S
C982 H995 0.961 . S
C982 H996 0.961 . S
C983 C980 1.539 . S
C983 H997 0.958 . S
C983 H998 0.961 . S
C983 H999 0.960 . S
H984 C968 0.931 . S
H985 C973 0.929 . S
H986 C974 0.960 . S
H987 C974 0.962 . S
H988 C974 0.960 . S
H989 C975 0.961 . S
H990 C975 0.961 . S
H991 C975 0.961 . S
H992 C976 0.931 . S
H993 C981 0.930 . S
H994 C982 0.956 . S
H995 C982 0.961 . S
H996 C982 0.961 . S
H997 C983 0.958 . S
H998 C983 0.961 . S
H999 C983 0.960 . S
C1000 C1001 1.391 . S
C1000 C1002 1.394 . S
C1000 H1016 0.931 1_565 S
C1001 C1000 1.391 . S
C1001 C1005 1.376 . S
C1002 C1000 1.394 . S
C1002 C1003 1.369 . S
C1002 C1006 1.531 . S
C1003 C1002 1.369 . S
C1003 C1004 1.410 . S
C1003 C1011 1.503 . S
C1004 C1003 1.410 . S
C1004 C1005 1.392 . S
C1004 C1007 1.511 . S
C1005 C1001 1.376 . S
C1005 C1004 1.392 . S
C1005 H1017 0.929 . S
C1006 C1002 1.531 . S
C1006 H1018 0.960 . S
C1006 H1019 0.962 1_565 S
C1006 H1020 0.960 1_565 S
C1007 C1004 1.511 . S
C1007 H1021 0.961 . S
C1007 H1022 0.961 . S
C1007 H1023 0.961 . S
C1008 C1009 1.370 . S
C1008 C1010 1.363 . S
C1008 H1024 0.931 . S
C1009 C1008 1.370 . S
C1009 C1013 1.408 . S
C1010 C1008 1.363 . S
C1010 C1011 1.370 . S
C1010 C1014 1.524 . S
C1011 C1003 1.503 . S
C1011 C1010 1.370 . S
C1011 C1012 1.403 . S
C1012 C1011 1.403 . S
C1012 C1013 1.404 . S
C1012 C1015 1.539 . S
C1013 C1009 1.408 . S
C1013 C1012 1.404 . S
C1013 H1025 0.930 . S
C1014 C1010 1.524 . S
C1014 H1026 0.956 . S
C1014 H1027 0.961 . S
C1014 H1028 0.961 . S
C1015 C1012 1.539 . S
C1015 H1029 0.958 . S
C1015 H1030 0.961 . S
C1015 H1031 0.960 . S
H1016 C1000 0.931 1_545 S
H1017 C1005 0.929 . S
H1018 C1006 0.960 . S
H1019 C1006 0.962 1_545 S
H1020 C1006 0.960 1_545 S
H1021 C1007 0.961 . S
H1022 C1007 0.961 . S
H1023 C1007 0.961 . S
H1024 C1008 0.931 . S
H1025 C1013 0.930 . S
H1026 C1014 0.956 . S
H1027 C1014 0.961 . S
H1028 C1014 0.961 . S
H1029 C1015 0.958 . S
H1030 C1015 0.961 . S
H1031 C1015 0.960 . S
C1032 C1033 1.391 . S
C1032 C1034 1.394 . S
C1032 H1048 0.931 . S
C1033 C1032 1.391 . S
C1033 C1037 1.376 . S
C1034 C1032 1.394 . S
C1034 C1035 1.369 . S
C1034 C1038 1.531 . S
C1035 C1034 1.369 . S
C1035 C1036 1.410 . S
C1035 C1043 1.503 . S
C1036 C1035 1.410 . S
C1036 C1037 1.392 . S
C1036 C1039 1.511 . S
C1037 C1033 1.376 . S
C1037 C1036 1.392 . S
C1037 H1049 0.929 . S
C1038 C1034 1.531 . S
C1038 H1050 0.960 . S
C1038 H1051 0.962 . S
C1038 H1052 0.960 . S
C1039 C1036 1.511 . S
C1039 H1053 0.958 . S
C1039 H1054 0.961 . S
C1039 H1055 0.961 . S
C1040 C1041 1.370 . S
C1040 C1042 1.363 . S
C1040 H1056 0.931 . S
C1041 C1040 1.370 . S
C1041 C1045 1.408 . S
C1042 C1040 1.363 . S
C1042 C1043 1.370 . S
C1042 C1046 1.524 . S
C1043 C1035 1.503 . S
C1043 C1042 1.370 . S
C1043 C1044 1.403 . S
C1044 C1043 1.403 . S
C1044 C1045 1.404 . S
C1044 C1047 1.539 . S
C1045 C1041 1.408 . S
C1045 C1044 1.404 . S
C1045 H1057 0.930 . S
C1046 C1042 1.524 . S
C1046 H1058 0.956 . S
C1046 H1059 0.961 . S
C1046 H1060 0.961 . S
C1047 C1044 1.539 . S
C1047 H1061 0.958 . S
C1047 H1062 0.961 . S
C1047 H1063 0.960 . S
H1048 C1032 0.931 . S
H1049 C1037 0.929 . S
H1050 C1038 0.960 . S
H1051 C1038 0.962 . S
H1052 C1038 0.960 . S
H1053 C1039 0.958 . S
H1054 C1039 0.961 . S
H1055 C1039 0.961 . S
H1056 C1040 0.931 . S
H1057 C1045 0.930 . S
H1058 C1046 0.956 . S
H1059 C1046 0.961 . S
H1060 C1046 0.961 . S
H1061 C1047 0.958 . S
H1062 C1047 0.961 . S
H1063 C1047 0.960 . S
C1064 C1065 1.391 . S
C1064 C1066 1.394 . S
C1064 H1080 0.931 1_655 S
C1065 C1064 1.391 . S
C1065 C1069 1.376 . S
C1066 C1064 1.394 . S
C1066 C1067 1.369 . S
C1066 C1070 1.531 . S
C1067 C1066 1.369 . S
C1067 C1068 1.410 . S
C1067 C1075 1.503 . S
C1068 C1067 1.410 . S
C1068 C1069 1.392 . S
C1068 C1071 1.511 . S
C1069 C1065 1.376 . S
C1069 C1068 1.392 . S
C1069 H1081 0.929 . S
C1070 C1066 1.531 . S
C1070 H1082 0.960 . S
C1070 H1083 0.962 1_655 S
C1070 H1084 0.960 1_655 S
C1071 C1068 1.511 . S
C1071 H1085 0.961 . S
C1071 H1086 0.961 . S
C1071 H1087 0.961 . S
C1072 C1073 1.370 . S
C1072 C1074 1.363 . S
C1072 H1088 0.931 . S
C1073 C1072 1.370 . S
C1073 C1077 1.408 . S
C1074 C1072 1.363 . S
C1074 C1075 1.370 . S
C1074 C1078 1.524 . S
C1075 C1067 1.503 . S
C1075 C1074 1.370 . S
C1075 C1076 1.403 . S
C1076 C1075 1.403 . S
C1076 C1077 1.404 . S
C1076 C1079 1.539 . S
C1077 C1073 1.408 . S
C1077 C1076 1.404 . S
C1077 H1089 0.930 . S
C1078 C1074 1.524 . S
C1078 H1090 0.956 . S
C1078 H1091 0.961 . S
C1078 H1092 0.961 . S
C1079 C1076 1.539 . S
C1079 H1093 0.958 . S
C1079 H1094 0.961 . S
C1079 H1095 0.960 . S
H1080 C1064 0.931 1_455 S
H1081 C1069 0.929 . S
H1082 C1070 0.960 . S
H1083 C1070 0.962 1_455 S
H1084 C1070 0.960 1_455 S
H1085 C1071 0.961 . S
H1086 C1071 0.961 . S
H1087 C1071 0.961 . S
H1088 C1072 0.931 . S
H1089 C1077 0.930 . S
H1090 C1078 0.956 . S
H1091 C1078 0.961 . S
H1092 C1078 0.961 . S
H1093 C1079 0.958 . S
H1094 C1079 0.961 . S
H1095 C1079 0.960 . S
C1096 C1097 1.391 . S
C1096 C1098 1.394 . S
C1096 H1112 0.931 . S
C1097 C1096 1.391 . S
C1097 C1101 1.376 . S
C1098 C1096 1.394 . S
C1098 C1099 1.369 . S
C1098 C1102 1.531 . S
C1099 C1098 1.369 . S
C1099 C1100 1.410 . S
C1099 C1107 1.503 . S
C1100 C1099 1.410 . S
C1100 C1101 1.392 . S
C1100 C1103 1.511 . S
C1101 C1097 1.376 . S
C1101 C1100 1.392 . S
C1101 H1113 0.929 . S
C1102 C1098 1.531 . S
C1102 H1114 0.960 . S
C1102 H1115 0.962 . S
C1102 H1116 0.960 . S
C1103 C1100 1.511 . S
C1103 H1117 0.961 . S
C1103 H1118 0.961 . S
C1103 H1119 0.961 . S
C1104 C1105 1.370 . S
C1104 C1106 1.363 . S
C1104 H1120 0.931 . S
C1105 C1104 1.370 . S
C1105 C1109 1.408 . S
C1106 C1104 1.363 . S
C1106 C1107 1.370 . S
C1106 C1110 1.524 . S
C1107 C1099 1.503 . S
C1107 C1106 1.370 . S
C1107 C1108 1.403 . S
C1108 C1107 1.403 . S
C1108 C1109 1.404 . S
C1108 C1111 1.539 . S
C1109 C1105 1.408 . S
C1109 C1108 1.404 . S
C1109 H1121 0.930 . S
C1110 C1106 1.524 . S
C1110 H1122 0.956 . S
C1110 H1123 0.961 . S
C1110 H1124 0.961 . S
C1111 C1108 1.539 . S
C1111 H1125 0.958 . S
C1111 H1126 0.961 . S
C1111 H1127 0.960 . S
H1112 C1096 0.931 . S
H1113 C1101 0.929 . S
H1114 C1102 0.960 . S
H1115 C1102 0.962 . S
H1116 C1102 0.960 . S
H1117 C1103 0.961 . S
H1118 C1103 0.961 . S
H1119 C1103 0.961 . S
H1120 C1104 0.931 . S
H1121 C1109 0.930 . S
H1122 C1110 0.956 . S
H1123 C1110 0.961 . S
H1124 C1110 0.961 . S
H1125 C1111 0.958 . S
H1126 C1111 0.961 . S
H1127 C1111 0.960 . S
C1128 C1129 1.391 . S
C1128 C1130 1.394 . S
C1128 H1144 0.931 . S
C1129 C1128 1.391 . S
C1129 C1133 1.376 . S
C1130 C1128 1.394 . S
C1130 C1131 1.369 . S
C1130 C1134 1.531 . S
C1131 C1130 1.369 . S
C1131 C1132 1.410 . S
C1131 C1139 1.503 . S
C1132 C1131 1.410 . S
C1132 C1133 1.392 . S
C1132 C1135 1.511 . S
C1133 C1129 1.376 . S
C1133 C1132 1.392 . S
C1133 H1145 0.929 . S
C1134 C1130 1.531 . S
C1134 H1146 0.960 . S
C1134 H1147 0.962 . S
C1134 H1148 0.960 . S
C1135 C1132 1.511 . S
C1135 H1149 0.961 . S
C1135 H1150 0.961 . S
C1135 H1151 0.961 . S
C1136 C1137 1.370 . S
C1136 C1138 1.363 . S
C1136 H1152 0.931 . S
C1137 C1136 1.370 . S
C1137 C1141 1.408 . S
C1138 C1136 1.363 . S
C1138 C1139 1.370 . S
C1138 C1142 1.524 . S
C1139 C1131 1.503 . S
C1139 C1138 1.370 . S
C1139 C1140 1.403 . S
C1140 C1139 1.403 . S
C1140 C1141 1.404 . S
C1140 C1143 1.539 . S
C1141 C1137 1.408 . S
C1141 C1140 1.404 . S
C1141 H1153 0.930 . S
C1142 C1138 1.524 . S
C1142 H1154 0.956 . S
C1142 H1155 0.961 . S
C1142 H1156 0.961 . S
C1143 C1140 1.539 . S
C1143 H1157 0.958 . S
C1143 H1158 0.961 . S
C1143 H1159 0.960 . S
H1144 C1128 0.931 . S
H1145 C1133 0.929 . S
H1146 C1134 0.960 . S
H1147 C1134 0.962 . S
H1148 C1134 0.960 . S
H1149 C1135 0.961 . S
H1150 C1135 0.961 . S
H1151 C1135 0.961 . S
H1152 C1136 0.931 . S
H1153 C1141 0.930 . S
H1154 C1142 0.956 . S
H1155 C1142 0.961 . S
H1156 C1142 0.961 . S
H1157 C1143 0.958 . S
H1158 C1143 0.961 . S
H1159 C1143 0.960 . S
C1160 C1161 1.391 . S
C1160 C1162 1.394 . S
C1160 H1176 0.931 . S
C1161 C1160 1.391 . S
C1161 C1165 1.376 . S
C1162 C1160 1.394 . S
C1162 C1163 1.369 . S
C1162 C1166 1.531 1_565 S
C1163 C1162 1.369 . S
C1163 C1164 1.410 . S
C1163 C1171 1.503 1_565 S
C1164 C1163 1.410 . S
C1164 C1165 1.392 . S
C1164 C1167 1.511 . S
C1165 C1161 1.376 . S
C1165 C1164 1.392 . S
C1165 H1177 0.929 . S
C1166 C1162 1.531 1_545 S
C1166 H1178 0.960 . S
C1166 H1179 0.962 1_545 S
C1166 H1180 0.960 . S
C1167 C1164 1.511 . S
C1167 H1181 0.961 . S
C1167 H1182 0.961 . S
C1167 H1183 0.961 1_565 S
C1168 C1169 1.370 . S
C1168 C1170 1.363 . S
C1168 H1184 0.931 . S
C1169 C1168 1.370 . S
C1169 C1173 1.408 . S
C1170 C1168 1.363 . S
C1170 C1171 1.370 . S
C1170 C1174 1.524 1_545 S
C1171 C1163 1.503 1_545 S
C1171 C1170 1.370 . S
C1171 C1172 1.403 . S
C1172 C1171 1.403 . S
C1172 C1173 1.404 . S
C1172 C1175 1.539 . S
C1173 C1169 1.408 . S
C1173 C1172 1.404 . S
C1173 H1185 0.930 . S
C1174 C1170 1.524 1_565 S
C1174 H1186 0.956 . S
C1174 H1187 0.961 . S
C1174 H1188 0.961 . S
C1175 C1172 1.539 . S
C1175 H1189 0.958 . S
C1175 H1190 0.961 . S
C1175 H1191 0.960 . S
H1176 C1160 0.931 . S
H1177 C1165 0.929 . S
H1178 C1166 0.960 . S
H1179 C1166 0.962 1_565 S
H1180 C1166 0.960 . S
H1181 C1167 0.961 . S
H1182 C1167 0.961 . S
H1183 C1167 0.961 1_545 S
H1184 C1168 0.931 . S
H1185 C1173 0.930 . S
H1186 C1174 0.956 . S
H1187 C1174 0.961 . S
H1188 C1174 0.961 . S
H1189 C1175 0.958 . S
H1190 C1175 0.961 . S
H1191 C1175 0.960 . S
C1192 C1193 1.391 . S
C1192 C1194 1.394 . S
C1192 H1208 0.931 . S
C1193 C1192 1.391 . S
C1193 C1197 1.376 . S
C1194 C1192 1.394 . S
C1194 C1195 1.369 . S
C1194 C1198 1.531 . S
C1195 C1194 1.369 . S
C1195 C1196 1.410 1_655 S
C1195 C1203 1.503 1_655 S
C1196 C1195 1.410 1_455 S
C1196 C1197 1.392 1_455 S
C1196 C1199 1.511 . S
C1197 C1193 1.376 . S
C1197 C1196 1.392 1_655 S
C1197 H1209 0.929 . S
C1198 C1194 1.531 . S
C1198 H1210 0.960 . S
C1198 H1211 0.962 . S
C1198 H1212 0.960 . S
C1199 C1196 1.511 . S
C1199 H1213 0.961 . S
C1199 H1214 0.961 . S
C1199 H1215 0.961 . S
C1200 C1201 1.370 . S
C1200 C1202 1.363 . S
C1200 H1216 0.931 . S
C1201 C1200 1.370 . S
C1201 C1205 1.408 . S
C1202 C1200 1.363 . S
C1202 C1203 1.370 . S
C1202 C1206 1.524 . S
C1203 C1195 1.503 1_455 S
C1203 C1202 1.370 . S
C1203 C1204 1.403 . S
C1204 C1203 1.403 . S
C1204 C1205 1.404 . S
C1204 C1207 1.539 . S
C1205 C1201 1.408 . S
C1205 C1204 1.404 . S
C1205 H1217 0.930 . S
C1206 C1202 1.524 . S
C1206 H1218 0.956 1_455 S
C1206 H1219 0.961 . S
C1206 H1220 0.961 . S
C1207 C1204 1.539 . S
C1207 H1221 0.958 . S
C1207 H1222 0.961 . S
C1207 H1223 0.960 . S
H1208 C1192 0.931 . S
H1209 C1197 0.929 . S
H1210 C1198 0.960 . S
H1211 C1198 0.962 . S
H1212 C1198 0.960 . S
H1213 C1199 0.961 . S
H1214 C1199 0.961 . S
H1215 C1199 0.961 . S
H1216 C1200 0.931 . S
H1217 C1205 0.930 . S
H1218 C1206 0.956 1_655 S
H1219 C1206 0.961 . S
H1220 C1206 0.961 . S
H1221 C1207 0.958 . S
H1222 C1207 0.961 . S
H1223 C1207 0.960 . S
C361 C65 0.570 . S
C369 C4 0.588 1_556 S
C393 C100 3.364 . S
C401 C71 3.389 . S
C425 C84 0.966 1_556 S
C433 C20 0.988 . S
C457 C111 3.012 . S
C465 C60 3.002 . S
C489 C105 1.990 . S
C497 C31 2.003 . S
C521 C25 0.585 . S
C529 C44 0.661 . S
C553 C124 2.824 . S
C561 C180 2.854 . S
C585 C220 0.866 . S
C593 C164 0.826 . S
C617 C204 0.831 . S
C625 C140 0.836 . S
C649 C185 0.306 . S
C657 C231 0.352 . S
C681 C225 2.073 . S
C689 C151 2.091 . S
C713 C191 2.310 . S
C721 C145 2.317 . S
C745 C305 0.428 . S
C753 C244 0.631 . S
C777 C311 3.429 . S
C785 C340 3.394 . S
C809 C324 0.990 . S
C817 C260 1.004 . S
C841 C351 2.957 . S
C849 C300 2.936 . S
C873 C345 2.021 . S
C881 C271 2.011 . S
C905 C265 0.603 . S
C913 C284 0.624 . S
C937 C202 2.301 . S
C945 C23 2.604 . S
C969 C122 2.028 . S
C977 C42 1.999 . S
C1001 C103 2.977 . S
C1009 C162 2.793 . S
C1033 C82 2.357 . S
C1041 C263 2.614 . S
C1065 C2 1.943 . S
C1073 C282 1.946 . S
C1097 C343 2.980 . S
C1105 C63 2.993 . S
C1129 C143 2.662 . S
C1137 C322 2.385 . S
C1161 C183 2.142 . S
C1169 C242 2.008 . S
C1193 C303 2.942 . S
C1201 C223 2.928 . S
