# Generated by pormake.
# Topology wir, (6)-cn, num edge types: 1
# Building blocks:
#     Node 0, Type 0, BuildingBlock: CUKXOW_clean_sbu_0, # of connection points: 6
#     Node 1, Type 0, BuildingBlock: CUKXOW_clean_sbu_0, # of connection points: 6
#     Node 2, Type 0, BuildingBlock: CUKXOW_clean_sbu_0, # of connection points: 6
#     Node 3, Type 0, BuildingBlock: CUKXOW_clean_sbu_0, # of connection points: 6
#     Node 4, Type 0, BuildingBlock: CUKXOW_clean_sbu_0, # of connection points: 6
#     Node 5, Type 0, BuildingBlock: CUKXOW_clean_sbu_0, # of connection points: 6
#     Node 6, Type 0, BuildingBlock: CUKXOW_clean_sbu_0, # of connection points: 6
#     Node 7, Type 0, BuildingBlock: CUKXOW_clean_sbu_0, # of connection points: 6
#     Node 8, Type 0, BuildingBlock: CUKXOW_clean_sbu_0, # of connection points: 6
#     Node 9, Type 0, BuildingBlock: CUKXOW_clean_sbu_0, # of connection points: 6
#     Node 10, Type 0, BuildingBlock: CUKXOW_clean_sbu_0, # of connection points: 6
#     Node 11, Type 0, BuildingBlock: CUKXOW_clean_sbu_0, # of connection points: 6
#     Node 12, Type 0, BuildingBlock: CUKXOW_clean_sbu_0, # of connection points: 6
#     Node 13, Type 0, BuildingBlock: CUKXOW_clean_sbu_0, # of connection points: 6
#     Node 14, Type 0, BuildingBlock: CUKXOW_clean_sbu_0, # of connection points: 6
#     Node 15, Type 0, BuildingBlock: CUKXOW_clean_sbu_0, # of connection points: 6
#     Node 16, Type 0, BuildingBlock: CUKXOW_clean_sbu_0, # of connection points: 6
#     Node 17, Type 0, BuildingBlock: CUKXOW_clean_sbu_0, # of connection points: 6
#     Node 18, Type 0, BuildingBlock: CUKXOW_clean_sbu_0, # of connection points: 6
#     Node 19, Type 0, BuildingBlock: CUKXOW_clean_sbu_0, # of connection points: 6
#     Node 20, Type 0, BuildingBlock: CUKXOW_clean_sbu_0, # of connection points: 6
#     Node 21, Type 0, BuildingBlock: CUKXOW_clean_sbu_0, # of connection points: 6
#     Node 22, Type 0, BuildingBlock: CUKXOW_clean_sbu_0, # of connection points: 6
#     Node 23, Type 0, BuildingBlock: CUKXOW_clean_sbu_0, # of connection points: 6
#     Node 24, Type 0, BuildingBlock: CUKXOW_clean_sbu_0, # of connection points: 6
#     Node 25, Type 0, BuildingBlock: CUKXOW_clean_sbu_0, # of connection points: 6
#     Node 26, Type 0, BuildingBlock: CUKXOW_clean_sbu_0, # of connection points: 6
#     Node 27, Type 0, BuildingBlock: CUKXOW_clean_sbu_0, # of connection points: 6
#     Node 28, Type 0, BuildingBlock: CUKXOW_clean_sbu_0, # of connection points: 6
#     Node 29, Type 0, BuildingBlock: CUKXOW_clean_sbu_0, # of connection points: 6
#     Node 30, Type 0, BuildingBlock: CUKXOW_clean_sbu_0, # of connection points: 6
#     Node 31, Type 0, BuildingBlock: CUKXOW_clean_sbu_0, # of connection points: 6
#     Edge 32, Type (0, 0), BuildingBlock: CIFDUS_clean_linker_0, # of connection points: 2
#     Edge 33, Type (0, 0), BuildingBlock: CIFDUS_clean_linker_0, # of connection points: 2
#     Edge 34, Type (0, 0), BuildingBlock: CIFDUS_clean_linker_0, # of connection points: 2
#     Edge 35, Type (0, 0), BuildingBlock: CIFDUS_clean_linker_0, # of connection points: 2
#     Edge 36, Type (0, 0), BuildingBlock: CIFDUS_clean_linker_0, # of connection points: 2
#     Edge 37, Type (0, 0), BuildingBlock: CIFDUS_clean_linker_0, # of connection points: 2
#     Edge 38, Type (0, 0), BuildingBlock: CIFDUS_clean_linker_0, # of connection points: 2
#     Edge 39, Type (0, 0), BuildingBlock: CIFDUS_clean_linker_0, # of connection points: 2
#     Edge 40, Type (0, 0), BuildingBlock: CIFDUS_clean_linker_0, # of connection points: 2
#     Edge 41, Type (0, 0), BuildingBlock: CIFDUS_clean_linker_0, # of connection points: 2
#     Edge 42, Type (0, 0), BuildingBlock: CIFDUS_clean_linker_0, # of connection points: 2
#     Edge 43, Type (0, 0), BuildingBlock: CIFDUS_clean_linker_0, # of connection points: 2
#     Edge 44, Type (0, 0), BuildingBlock: CIFDUS_clean_linker_0, # of connection points: 2
#     Edge 45, Type (0, 0), BuildingBlock: CIFDUS_clean_linker_0, # of connection points: 2
#     Edge 46, Type (0, 0), BuildingBlock: CIFDUS_clean_linker_0, # of connection points: 2
#     Edge 47, Type (0, 0), BuildingBlock: CIFDUS_clean_linker_0, # of connection points: 2
#     Edge 48, Type (0, 0), BuildingBlock: CIFDUS_clean_linker_0, # of connection points: 2
#     Edge 49, Type (0, 0), BuildingBlock: CIFDUS_clean_linker_0, # of connection points: 2
#     Edge 50, Type (0, 0), BuildingBlock: CIFDUS_clean_linker_0, # of connection points: 2
#     Edge 51, Type (0, 0), BuildingBlock: CIFDUS_clean_linker_0, # of connection points: 2
#     Edge 52, Type (0, 0), BuildingBlock: CIFDUS_clean_linker_0, # of connection points: 2
#     Edge 53, Type (0, 0), BuildingBlock: CIFDUS_clean_linker_0, # of connection points: 2
#     Edge 54, Type (0, 0), BuildingBlock: CIFDUS_clean_linker_0, # of connection points: 2
#     Edge 55, Type (0, 0), BuildingBlock: CIFDUS_clean_linker_0, # of connection points: 2
#     Edge 56, Type (0, 0), BuildingBlock: CIFDUS_clean_linker_0, # of connection points: 2
#     Edge 57, Type (0, 0), BuildingBlock: CIFDUS_clean_linker_0, # of connection points: 2
#     Edge 58, Type (0, 0), BuildingBlock: CIFDUS_clean_linker_0, # of connection points: 2
#     Edge 59, Type (0, 0), BuildingBlock: CIFDUS_clean_linker_0, # of connection points: 2
#     Edge 60, Type (0, 0), BuildingBlock: CIFDUS_clean_linker_0, # of connection points: 2
#     Edge 61, Type (0, 0), BuildingBlock: CIFDUS_clean_linker_0, # of connection points: 2
#     Edge 62, Type (0, 0), BuildingBlock: CIFDUS_clean_linker_0, # of connection points: 2
#     Edge 63, Type (0, 0), BuildingBlock: CIFDUS_clean_linker_0, # of connection points: 2
#     Edge 64, Type (0, 0), BuildingBlock: CIFDUS_clean_linker_0, # of connection points: 2
#     Edge 65, Type (0, 0), BuildingBlock: CIFDUS_clean_linker_0, # of connection points: 2
#     Edge 66, Type (0, 0), BuildingBlock: CIFDUS_clean_linker_0, # of connection points: 2
#     Edge 67, Type (0, 0), BuildingBlock: CIFDUS_clean_linker_0, # of connection points: 2
#     Edge 68, Type (0, 0), BuildingBlock: CIFDUS_clean_linker_0, # of connection points: 2
#     Edge 69, Type (0, 0), BuildingBlock: CIFDUS_clean_linker_0, # of connection points: 2
#     Edge 70, Type (0, 0), BuildingBlock: CIFDUS_clean_linker_0, # of connection points: 2
#     Edge 71, Type (0, 0), BuildingBlock: CIFDUS_clean_linker_0, # of connection points: 2
#     Edge 72, Type (0, 0), BuildingBlock: CIFDUS_clean_linker_0, # of connection points: 2
#     Edge 73, Type (0, 0), BuildingBlock: CIFDUS_clean_linker_0, # of connection points: 2
#     Edge 74, Type (0, 0), BuildingBlock: CIFDUS_clean_linker_0, # of connection points: 2
#     Edge 75, Type (0, 0), BuildingBlock: CIFDUS_clean_linker_0, # of connection points: 2
#     Edge 76, Type (0, 0), BuildingBlock: CIFDUS_clean_linker_0, # of connection points: 2
#     Edge 77, Type (0, 0), BuildingBlock: CIFDUS_clean_linker_0, # of connection points: 2
#     Edge 78, Type (0, 0), BuildingBlock: CIFDUS_clean_linker_0, # of connection points: 2
#     Edge 79, Type (0, 0), BuildingBlock: CIFDUS_clean_linker_0, # of connection points: 2
#     Edge 80, Type (0, 0), BuildingBlock: CIFDUS_clean_linker_0, # of connection points: 2
#     Edge 81, Type (0, 0), BuildingBlock: CIFDUS_clean_linker_0, # of connection points: 2
#     Edge 82, Type (0, 0), BuildingBlock: CIFDUS_clean_linker_0, # of connection points: 2
#     Edge 83, Type (0, 0), BuildingBlock: CIFDUS_clean_linker_0, # of connection points: 2
#     Edge 84, Type (0, 0), BuildingBlock: CIFDUS_clean_linker_0, # of connection points: 2
#     Edge 85, Type (0, 0), BuildingBlock: CIFDUS_clean_linker_0, # of connection points: 2
#     Edge 86, Type (0, 0), BuildingBlock: CIFDUS_clean_linker_0, # of connection points: 2
#     Edge 87, Type (0, 0), BuildingBlock: CIFDUS_clean_linker_0, # of connection points: 2
#     Edge 88, Type (0, 0), BuildingBlock: CIFDUS_clean_linker_0, # of connection points: 2
#     Edge 89, Type (0, 0), BuildingBlock: CIFDUS_clean_linker_0, # of connection points: 2
#     Edge 90, Type (0, 0), BuildingBlock: CIFDUS_clean_linker_0, # of connection points: 2
#     Edge 91, Type (0, 0), BuildingBlock: CIFDUS_clean_linker_0, # of connection points: 2
#     Edge 92, Type (0, 0), BuildingBlock: CIFDUS_clean_linker_0, # of connection points: 2
#     Edge 93, Type (0, 0), BuildingBlock: CIFDUS_clean_linker_0, # of connection points: 2
#     Edge 94, Type (0, 0), BuildingBlock: CIFDUS_clean_linker_0, # of connection points: 2
#     Edge 95, Type (0, 0), BuildingBlock: CIFDUS_clean_linker_0, # of connection points: 2
#     Edge 96, Type (0, 0), BuildingBlock: CIFDUS_clean_linker_0, # of connection points: 2
#     Edge 97, Type (0, 0), BuildingBlock: CIFDUS_clean_linker_0, # of connection points: 2
#     Edge 98, Type (0, 0), BuildingBlock: CIFDUS_clean_linker_0, # of connection points: 2
#     Edge 99, Type (0, 0), BuildingBlock: CIFDUS_clean_linker_0, # of connection points: 2
#     Edge 100, Type (0, 0), BuildingBlock: CIFDUS_clean_linker_0, # of connection points: 2
#     Edge 101, Type (0, 0), BuildingBlock: CIFDUS_clean_linker_0, # of connection points: 2
#     Edge 102, Type (0, 0), BuildingBlock: CIFDUS_clean_linker_0, # of connection points: 2
#     Edge 103, Type (0, 0), BuildingBlock: CIFDUS_clean_linker_0, # of connection points: 2
#     Edge 104, Type (0, 0), BuildingBlock: CIFDUS_clean_linker_0, # of connection points: 2
#     Edge 105, Type (0, 0), BuildingBlock: CIFDUS_clean_linker_0, # of connection points: 2
#     Edge 106, Type (0, 0), BuildingBlock: CIFDUS_clean_linker_0, # of connection points: 2
#     Edge 107, Type (0, 0), BuildingBlock: CIFDUS_clean_linker_0, # of connection points: 2
#     Edge 108, Type (0, 0), BuildingBlock: CIFDUS_clean_linker_0, # of connection points: 2
#     Edge 109, Type (0, 0), BuildingBlock: CIFDUS_clean_linker_0, # of connection points: 2
#     Edge 110, Type (0, 0), BuildingBlock: CIFDUS_clean_linker_0, # of connection points: 2
#     Edge 111, Type (0, 0), BuildingBlock: CIFDUS_clean_linker_0, # of connection points: 2
#     Edge 112, Type (0, 0), BuildingBlock: CIFDUS_clean_linker_0, # of connection points: 2
#     Edge 113, Type (0, 0), BuildingBlock: CIFDUS_clean_linker_0, # of connection points: 2
#     Edge 114, Type (0, 0), BuildingBlock: CIFDUS_clean_linker_0, # of connection points: 2
#     Edge 115, Type (0, 0), BuildingBlock: CIFDUS_clean_linker_0, # of connection points: 2
#     Edge 116, Type (0, 0), BuildingBlock: CIFDUS_clean_linker_0, # of connection points: 2
#     Edge 117, Type (0, 0), BuildingBlock: CIFDUS_clean_linker_0, # of connection points: 2
#     Edge 118, Type (0, 0), BuildingBlock: CIFDUS_clean_linker_0, # of connection points: 2
#     Edge 119, Type (0, 0), BuildingBlock: CIFDUS_clean_linker_0, # of connection points: 2
#     Edge 120, Type (0, 0), BuildingBlock: CIFDUS_clean_linker_0, # of connection points: 2
#     Edge 121, Type (0, 0), BuildingBlock: CIFDUS_clean_linker_0, # of connection points: 2
#     Edge 122, Type (0, 0), BuildingBlock: CIFDUS_clean_linker_0, # of connection points: 2
#     Edge 123, Type (0, 0), BuildingBlock: CIFDUS_clean_linker_0, # of connection points: 2
#     Edge 124, Type (0, 0), BuildingBlock: CIFDUS_clean_linker_0, # of connection points: 2
#     Edge 125, Type (0, 0), BuildingBlock: CIFDUS_clean_linker_0, # of connection points: 2
#     Edge 126, Type (0, 0), BuildingBlock: CIFDUS_clean_linker_0, # of connection points: 2
#     Edge 127, Type (0, 0), BuildingBlock: CIFDUS_clean_linker_0, # of connection points: 2
# Relax obj value: 0.274
# Max RMSD: 0.203
# Mean RMSD: 0.203
data_MOF--net-wir--node1-CUKXOW_clean_sbu_0--edge1-CIFDUS_clean_linker_0
_symmetry_space_group_name_H-M    P1
_symmetry_Int_Tables_number       1
_symmetry_cell_setting            triclinic
loop_
_symmetry_equiv_pos_as_xyz
'x, y, z'
_cell_length_a     34.10038
_cell_length_b     33.963286
_cell_length_c     79.485688
_cell_angle_alpha  90.042021
_cell_angle_beta   90.082254
_cell_angle_gamma 89.945421
loop_
_atom_site_label
_atom_site_type_symbol
_atom_site_fract_x
_atom_site_fract_y
_atom_site_fract_z
_atom_type_partial_charge
Tb0 Tb 0.13285 0.09799 0.34272 0.0
C1 C 0.22216 0.08314 0.3518 0.0
Tb2 Tb 0.19228 0.1492 0.32372 0.0
O3 O 0.12753 0.04972 0.32377 0.0
O4 O 0.16112 0.09795 0.31951 0.0
O5 O 0.18503 0.07879 0.35632 0.0
C6 C 0.22711 0.18889 0.29869 0.0
O7 O 0.23178 0.1046 0.33784 0.0
C8 C 0.1882 0.16425 0.355 0.0
C9 C 0.0994 0.17788 0.32666 0.0
O10 O 0.21798 0.20289 0.31334 0.0
O11 O 0.21815 0.15159 0.29831 0.0
O12 O 0.2198 0.1698 0.34606 0.0
O13 O 0.15931 0.15444 0.34581 0.0
O14 O 0.13535 0.18399 0.32004 0.0
O15 O 0.09274 0.14645 0.3362 0.0
C16 C 0.08237 0.07271 0.36494 0.0
O17 O 0.07425 0.08023 0.34932 0.0
O18 O 0.11945 0.07798 0.36785 0.0
C19 C 0.14986 0.06664 0.31275 0.0
Tb20 Tb 0.17777 0.88286 0.58968 0.0
C21 C 0.19969 0.97077 0.6005 0.0
Tb22 Tb 0.12926 0.94918 0.57397 0.0
O23 O 0.2234 0.87708 0.5701 0.0
O24 O 0.17854 0.91633 0.56733 0.0
O25 O 0.20243 0.93254 0.60407 0.0
C26 C 0.08693 0.99043 0.55157 0.0
O27 O 0.17777 0.98359 0.58727 0.0
C28 C 0.11756 0.93885 0.60535 0.0
C29 C 0.09353 0.85859 0.57482 0.0
O30 O 0.08091 0.98884 0.56763 0.0
O31 O 0.11836 0.97025 0.54813 0.0
O32 O 0.11354 0.97283 0.59794 0.0
O33 O 0.12393 0.91179 0.59473 0.0
O34 O 0.08927 0.89655 0.57024 0.0
O35 O 0.12605 0.8468 0.58262 0.0
C36 C 0.20485 0.82471 0.60798 0.0
O37 O 0.19901 0.82309 0.59192 0.0
O38 O 0.19498 0.85901 0.61385 0.0
C39 C 0.2081 0.90252 0.55992 0.0
Tb40 Tb 0.40116 0.93361 0.83863 0.0
C41 C 0.31416 0.95446 0.85063 0.0
Tb42 Tb 0.33608 0.89029 0.82171 0.0
O43 O 0.41119 0.98233 0.82107 0.0
O44 O 0.3692 0.94062 0.81585 0.0
O45 O 0.3521 0.95437 0.85444 0.0
C46 C 0.29525 0.85265 0.79784 0.0
O47 O 0.3013 0.93591 0.83656 0.0
C48 C 0.34588 0.87113 0.85255 0.0
C49 C 0.42596 0.85248 0.82161 0.0
O50 O 0.30417 0.83893 0.81253 0.0
O51 O 0.3077 0.88878 0.79679 0.0
O52 O 0.31168 0.87078 0.84518 0.0
O53 O 0.37264 0.87913 0.84216 0.0
O54 O 0.38848 0.85066 0.81621 0.0
O55 O 0.43756 0.88278 0.83093 0.0
C56 C 0.45347 0.95751 0.8602 0.0
O57 O 0.46157 0.94217 0.84568 0.0
O58 O 0.41593 0.95968 0.86251 0.0
C59 C 0.38525 0.97135 0.8102 0.0
Tb60 Tb 0.35248 0.15167 0.09053 0.0
C61 C 0.32971 0.06504 0.10286 0.0
Tb62 Tb 0.39695 0.08883 0.07636 0.0
O63 O 0.32947 0.16821 0.06589 0.0
O64 O 0.33965 0.10953 0.07092 0.0
O65 O 0.32608 0.10355 0.10547 0.0
C66 C 0.43629 0.04682 0.05321 0.0
O67 O 0.35197 0.05205 0.09 0.0
C68 C 0.41511 0.10079 0.10726 0.0
C69 C 0.43457 0.17873 0.07619 0.0
O70 O 0.4355 0.03983 0.06924 0.0
O71 O 0.41327 0.0764 0.0501 0.0
O72 O 0.41684 0.06649 0.10005 0.0
O73 O 0.40773 0.12725 0.09654 0.0
O74 O 0.43689 0.1412 0.07082 0.0
O75 O 0.40418 0.1891 0.08556 0.0
C76 C 0.31804 0.20491 0.11021 0.0
O77 O 0.32982 0.17028 0.11473 0.0
O78 O 0.32384 0.20844 0.09423 0.0
C79 C 0.33021 0.13337 0.05945 0.0
Tb80 Tb 0.12746 0.93582 0.19288 0.0
C81 C 0.21429 0.94895 0.17935 0.0
Tb82 Tb 0.18897 0.88007 0.20693 0.0
O83 O 0.12283 0.97802 0.21393 0.0
O84 O 0.15881 0.92992 0.21552 0.0
O85 O 0.1763 0.95693 0.17729 0.0
C86 C 0.23707 0.84379 0.22855 0.0
O87 O 0.22642 0.92248 0.19115 0.0
C88 C 0.15714 0.85598 0.17888 0.0
C89 C 0.09802 0.85344 0.20827 0.0
O90 O 0.24139 0.84436 0.21227 0.0
O91 O 0.20734 0.8658 0.23253 0.0
O92 O 0.17094 0.83286 0.19051 0.0
O93 O 0.16441 0.891 0.18307 0.0
O94 O 0.13428 0.84714 0.21417 0.0
O95 O 0.09013 0.88507 0.19912 0.0
C96 C 0.06543 0.96157 0.17665 0.0
O97 O 0.0673 0.92952 0.18537 0.0
O98 O 0.09925 0.97934 0.17671 0.0
C99 C 0.1465 0.95908 0.22374 0.0
Tb100 Tb 0.35413 0.88205 0.44254 0.0
C101 C 0.33533 0.96762 0.42966 0.0
Tb102 Tb 0.39638 0.94234 0.46043 0.0
O103 O 0.30258 0.89185 0.45881 0.0
O104 O 0.35848 0.89755 0.46851 0.0
O105 O 0.3362 0.92981 0.42537 0.0
C106 C 0.4246 0.99189 0.48384 0.0
O107 O 0.35333 0.97885 0.44419 0.0
C108 C 0.43237 0.92052 0.43356 0.0
C109 C 0.43192 0.85376 0.46136 0.0
O110 O 0.43634 0.98931 0.46838 0.0
O111 O 0.39465 0.96868 0.48572 0.0
O112 O 0.44973 0.93056 0.44742 0.0
O113 O 0.39581 0.92471 0.43502 0.0
O114 O 0.43335 0.8902 0.46781 0.0
O115 O 0.40272 0.84386 0.45121 0.0
C116 C 0.33685 0.81848 0.42502 0.0
O117 O 0.31099 0.84324 0.43067 0.0
O118 O 0.37172 0.8301 0.42889 0.0
C119 C 0.32275 0.90164 0.47196 0.0
Tb120 Tb 0.39754 0.10699 0.69117 0.0
C121 C 0.31293 0.08654 0.67821 0.0
Tb122 Tb 0.33754 0.14791 0.70909 0.0
O123 O 0.38623 0.05295 0.70484 0.0
O124 O 0.38058 0.10682 0.71727 0.0
O125 O 0.3507 0.08749 0.67411 0.0
C126 C 0.28854 0.17624 0.73273 0.0
O127 O 0.30125 0.10515 0.69256 0.0
C128 C 0.3582 0.18432 0.68187 0.0
C129 C 0.42536 0.18416 0.71047 0.0
O130 O 0.28939 0.18666 0.71705 0.0
O131 O 0.31307 0.14733 0.73471 0.0
O132 O 0.34825 0.20193 0.69569 0.0
O133 O 0.35454 0.14781 0.68373 0.0
O134 O 0.38863 0.18628 0.7163 0.0
O135 O 0.43582 0.15398 0.70102 0.0
C136 C 0.46155 0.09303 0.67381 0.0
O137 O 0.44507 0.12697 0.67559 0.0
O138 O 0.44108 0.06593 0.6812 0.0
C139 C 0.37604 0.06988 0.71875 0.0
Tb140 Tb 0.18673 0.15261 0.94206 0.0
C141 C 0.20427 0.0673 0.92978 0.0
Tb142 Tb 0.14047 0.09404 0.95803 0.0
O143 O 0.23714 0.15996 0.95845 0.0
O144 O 0.19394 0.12001 0.96533 0.0
O145 O 0.20388 0.10468 0.92531 0.0
C146 C 0.0985 0.05485 0.98142 0.0
O147 O 0.18688 0.05681 0.94445 0.0
C148 C 0.12086 0.10146 0.92709 0.0
C149 C 0.10772 0.18536 0.95755 0.0
O150 O 0.10223 0.0452 0.96575 0.0
O151 O 0.12021 0.0855 0.98417 0.0
O152 O 0.12073 0.06827 0.93518 0.0
O153 O 0.12986 0.12951 0.93685 0.0
O154 O 0.10013 0.14749 0.96128 0.0
O155 O 0.14155 0.19412 0.95041 0.0
C156 C 0.21282 0.20847 0.92242 0.0
O157 O 0.19454 0.21415 0.93645 0.0
O158 O 0.21666 0.17115 0.91936 0.0
C159 C 0.22603 0.13543 0.96982 0.0
Tb160 Tb 0.83823 0.87974 0.7082 0.0
C161 C 0.92775 0.84701 0.70962 0.0
Tb162 Tb 0.90268 0.92979 0.69307 0.0
O163 O 0.85402 0.83062 0.69259 0.0
O164 O 0.86175 0.88789 0.68404 0.0
O165 O 0.89078 0.84319 0.71506 0.0
C166 C 0.96519 0.9452 0.67541 0.0
O167 O 0.93845 0.87859 0.70099 0.0
C168 C 0.88732 0.95526 0.72406 0.0
C169 C 0.81578 0.94781 0.67966 0.0
O170 O 0.95477 0.91066 0.68054 0.0
O171 O 0.93944 0.97179 0.67965 0.0
O172 O 0.91201 0.97199 0.71398 0.0
O173 O 0.87263 0.92696 0.71605 0.0
O174 O 0.85424 0.95392 0.67767 0.0
O175 O 0.80251 0.92255 0.69172 0.0
C176 C 0.78984 0.84617 0.73035 0.0
O177 O 0.78505 0.84616 0.71408 0.0
O178 O 0.82001 0.86787 0.73403 0.0
C179 C 0.86665 0.85225 0.68024 0.0
Tb180 Tb 0.89412 0.08273 0.45522 0.0
C181 C 0.92946 0.17355 0.45598 0.0
Tb182 Tb 0.8445 0.14938 0.44209 0.0
O183 O 0.90754 0.06294 0.43034 0.0
O184 O 0.89864 0.12297 0.43534 0.0
O185 O 0.93438 0.13507 0.45956 0.0
C186 C 0.81676 0.20619 0.42323 0.0
O187 O 0.89614 0.18578 0.44899 0.0
C188 C 0.81608 0.12714 0.47171 0.0
C189 C 0.82423 0.0624 0.4288 0.0
O190 O 0.83436 0.21129 0.43752 0.0
O191 O 0.81384 0.16894 0.41982 0.0
O192 O 0.80075 0.15447 0.46247 0.0
O193 O 0.84494 0.11365 0.46371 0.0
O194 O 0.82105 0.10105 0.42632 0.0
O195 O 0.84669 0.04819 0.44152 0.0
C196 C 0.93772 0.04044 0.47682 0.0
O197 O 0.94364 0.04368 0.46078 0.0
O198 O 0.90577 0.05938 0.4806 0.0
C199 C 0.9048 0.09804 0.42382 0.0
Tb200 Tb 0.70137 0.14812 0.20723 0.0
C201 C 0.61234 0.18844 0.20757 0.0
Tb202 Tb 0.63884 0.10914 0.19121 0.0
O203 O 0.7286 0.1685 0.18493 0.0
O204 O 0.66668 0.16399 0.18646 0.0
O205 O 0.65025 0.19029 0.21232 0.0
C206 C 0.58549 0.08231 0.17014 0.0
O207 O 0.60058 0.15804 0.19858 0.0
C208 C 0.65149 0.08395 0.22225 0.0
C209 C 0.72336 0.08131 0.17971 0.0
O210 O 0.59242 0.06731 0.18481 0.0
O211 O 0.60974 0.11057 0.16722 0.0
O212 O 0.61732 0.08971 0.21559 0.0
O213 O 0.67754 0.09162 0.21144 0.0
O214 O 0.68521 0.07981 0.17669 0.0
O215 O 0.73676 0.10233 0.19294 0.0
C216 C 0.74305 0.18467 0.23134 0.0
O217 O 0.75078 0.18459 0.2154 0.0
O218 O 0.7129 0.16213 0.23387 0.0
C219 C 0.69557 0.17102 0.17689 0.0
Tb220 Tb 0.63176 0.94694 0.95926 0.0
C221 C 0.59306 0.85707 0.95805 0.0
Tb222 Tb 0.67722 0.88078 0.9434 0.0
O223 O 0.61464 0.97109 0.93572 0.0
O224 O 0.62299 0.90986 0.93842 0.0
O225 O 0.58949 0.89544 0.9623 0.0
C226 C 0.70637 0.8287 0.92258 0.0
O227 O 0.62566 0.84452 0.95053 0.0
C228 C 0.711 0.9003 0.97244 0.0
C229 C 0.69869 0.96787 0.93176 0.0
O230 O 0.68727 0.82008 0.93619 0.0
O231 O 0.70892 0.86653 0.92081 0.0
O232 O 0.72385 0.87293 0.96259 0.0
O233 O 0.68129 0.91457 0.96548 0.0
O234 O 0.69763 0.93002 0.92758 0.0
O235 O 0.68072 0.98036 0.94602 0.0
C236 C 0.59227 0.98886 0.98238 0.0
O237 O 0.59196 0.99489 0.96629 0.0
O238 O 0.61649 0.96029 0.98558 0.0
C239 C 0.61576 0.93721 0.92808 0.0
Tb240 Tb 0.83148 0.14625 0.824 0.0
C241 C 0.92114 0.18346 0.82583 0.0
Tb242 Tb 0.8955 0.1019 0.84204 0.0
O243 O 0.80271 0.16408 0.84632 0.0
O244 O 0.86471 0.15635 0.84597 0.0
O245 O 0.88452 0.1853 0.8195 0.0
C246 C 0.95001 0.07853 0.86285 0.0
O247 O 0.93157 0.1535 0.83555 0.0
C248 C 0.88106 0.06816 0.8122 0.0
C249 C 0.80843 0.08038 0.85259 0.0
O250 O 0.95649 0.09432 0.8483 0.0
O251 O 0.91266 0.07516 0.8656 0.0
O252 O 0.90565 0.05433 0.8231 0.0
O253 O 0.86616 0.09785 0.81897 0.0
O254 O 0.846 0.08023 0.85693 0.0
O255 O 0.79647 0.09942 0.8384 0.0
C256 C 0.79272 0.18435 0.79969 0.0
O257 O 0.80324 0.19886 0.81405 0.0
O258 O 0.80246 0.14724 0.79919 0.0
C259 C 0.835 0.16398 0.85512 0.0
Tb260 Tb 0.63036 0.08856 0.57488 0.0
C261 C 0.60245 0.18189 0.57542 0.0
Tb262 Tb 0.68415 0.15101 0.59102 0.0
O263 O 0.61179 0.06603 0.59862 0.0
O264 O 0.62803 0.1261 0.59573 0.0
O265 O 0.59499 0.14463 0.57049 0.0
C266 C 0.71225 0.20745 0.61009 0.0
O267 O 0.63552 0.19035 0.58358 0.0
C268 C 0.71197 0.12849 0.56118 0.0
C269 C 0.69862 0.06176 0.60225 0.0
O270 O 0.69986 0.17366 0.61555 0.0
O271 O 0.70929 0.20912 0.59387 0.0
O272 O 0.73022 0.15226 0.57125 0.0
O273 O 0.68135 0.11848 0.56879 0.0
O274 O 0.70532 0.09979 0.60516 0.0
O275 O 0.67458 0.0502 0.58941 0.0
C276 C 0.58937 0.05131 0.55088 0.0
O277 O 0.57642 0.06115 0.56563 0.0
O278 O 0.62634 0.06068 0.54992 0.0
C279 C 0.6188 0.09948 0.60618 0.0
Tb280 Tb 0.6893 0.88491 0.32063 0.0
C281 C 0.59954 0.84703 0.32267 0.0
Tb282 Tb 0.62653 0.92836 0.3383 0.0
O283 O 0.7177 0.86591 0.34323 0.0
O284 O 0.65602 0.87424 0.34222 0.0
O285 O 0.63616 0.84536 0.31629 0.0
C286 C 0.57701 0.95675 0.36022 0.0
O287 O 0.58933 0.87716 0.33234 0.0
C288 C 0.63658 0.96434 0.30904 0.0
C289 C 0.71395 0.94982 0.34923 0.0
O290 O 0.56711 0.93816 0.34662 0.0
O291 O 0.61482 0.95874 0.36159 0.0
O292 O 0.6117 0.97451 0.32042 0.0
O293 O 0.65515 0.93469 0.31446 0.0
O294 O 0.67614 0.95091 0.35301 0.0
O295 O 0.72602 0.92993 0.33533 0.0
C296 C 0.72792 0.84655 0.29615 0.0
O297 O 0.71818 0.83238 0.31065 0.0
O298 O 0.71742 0.8834 0.29562 0.0
C299 C 0.68498 0.8667 0.35169 0.0
Tb300 Tb 0.90608 0.94701 0.07266 0.0
C301 C 0.93792 0.85694 0.0711 0.0
Tb302 Tb 0.85681 0.88198 0.0887 0.0
O303 O 0.95635 0.93203 0.08775 0.0
O304 O 0.90004 0.92265 0.09682 0.0
O305 O 0.94068 0.89365 0.06503 0.0
C306 C 0.83803 0.8192 0.1059 0.0
O307 O 0.90818 0.84671 0.08088 0.0
C308 C 0.82879 0.89904 0.05837 0.0
C309 C 0.841 0.96929 0.10236 0.0
O310 O 0.87091 0.82468 0.09817 0.0
O311 O 0.81547 0.85 0.10451 0.0
O312 O 0.81252 0.87429 0.06856 0.0
O313 O 0.85801 0.91274 0.06593 0.0
O314 O 0.8362 0.93065 0.10485 0.0
O315 O 0.86417 0.98246 0.08956 0.0
C316 C 0.93799 0.99683 0.05048 0.0
O317 O 0.9383 1.00123 0.06676 0.0
O318 O 0.9171 0.966 0.0468 0.0
C319 C 0.93582 0.91806 0.10015 0.0
Tb320 Tb 0.62763 0.60558 0.83977 0.0
C321 C 0.71517 0.58711 0.85174 0.0
Tb322 Tb 0.69173 0.65106 0.82149 0.0
O323 O 0.61681 0.55993 0.81996 0.0
O324 O 0.65468 0.60485 0.81631 0.0
O325 O 0.67702 0.58384 0.85521 0.0
C326 C 0.74024 0.6812 0.79853 0.0
O327 O 0.7274 0.60869 0.83826 0.0
C328 C 0.66588 0.68559 0.8483 0.0
C329 C 0.60197 0.68509 0.82077 0.0
O330 O 0.74563 0.68221 0.81474 0.0
O331 O 0.70928 0.66017 0.79533 0.0
O332 O 0.67796 0.70358 0.83488 0.0
O333 O 0.67027 0.64894 0.8464 0.0
O334 O 0.63828 0.68652 0.81423 0.0
O335 O 0.59184 0.65603 0.83102 0.0
C336 C 0.56746 0.59105 0.85899 0.0
O337 O 0.57654 0.62523 0.85299 0.0
O338 O 0.59313 0.56454 0.85465 0.0
C339 C 0.64064 0.57533 0.80913 0.0
Tb340 Tb 0.6801 0.38594 0.088 0.0
C341 C 0.6997 0.47389 0.09967 0.0
Tb342 Tb 0.63001 0.45143 0.07287 0.0
O343 O 0.7239 0.37964 0.06755 0.0
O344 O 0.67855 0.41834 0.06559 0.0
O345 O 0.70331 0.43555 0.10275 0.0
C346 C 0.58944 0.49138 0.04965 0.0
O347 O 0.67663 0.48715 0.0869 0.0
C348 C 0.61963 0.44217 0.10441 0.0
C349 C 0.59574 0.36023 0.07419 0.0
O350 O 0.57597 0.47898 0.06392 0.0
O351 O 0.62665 0.48288 0.04872 0.0
O352 O 0.61415 0.47572 0.09672 0.0
O353 O 0.62652 0.41481 0.09397 0.0
O354 O 0.59167 0.39761 0.06876 0.0
O355 O 0.62791 0.34945 0.08247 0.0
C356 C 0.70935 0.32901 0.10617 0.0
O357 O 0.68838 0.32407 0.09275 0.0
O358 O 0.71392 0.36615 0.10949 0.0
C359 C 0.70777 0.40536 0.05777 0.0
Tb360 Tb 0.89885 0.43596 0.34066 0.0
C361 C 0.81138 0.45377 0.35134 0.0
Tb362 Tb 0.83829 0.38357 0.32542 0.0
O363 O 0.90174 0.48267 0.32128 0.0
O364 O 0.86568 0.43527 0.31824 0.0
O365 O 0.84895 0.45815 0.35523 0.0
C366 C 0.79766 0.33935 0.30345 0.0
O367 O 0.8006 0.43091 0.33806 0.0
C368 C 0.8483 0.37161 0.35701 0.0
C369 C 0.93047 0.35372 0.32604 0.0
O370 O 0.79729 0.3357 0.31966 0.0
O371 O 0.81981 0.36906 0.29957 0.0
O372 O 0.81453 0.37054 0.34938 0.0
O373 O 0.87543 0.37901 0.34655 0.0
O374 O 0.89299 0.34546 0.32193 0.0
O375 O 0.9389 0.38788 0.33333 0.0
C376 C 0.95587 0.46672 0.35857 0.0
O377 O 0.95725 0.46009 0.34257 0.0
O378 O 0.92212 0.45588 0.36453 0.0
C379 C 0.87767 0.4658 0.31101 0.0
Tb380 Tb 0.84622 0.65567 0.59007 0.0
C381 C 0.82504 0.56837 0.60188 0.0
Tb382 Tb 0.89339 0.58915 0.57427 0.0
O383 O 0.80127 0.66238 0.5699 0.0
O384 O 0.84607 0.62375 0.56765 0.0
O385 O 0.82314 0.60671 0.60532 0.0
C386 C 0.93181 0.54838 0.55054 0.0
O387 O 0.8464 0.55492 0.58862 0.0
C388 C 0.90713 0.59807 0.60586 0.0
C389 C 0.93016 0.67927 0.5753 0.0
O390 O 0.94641 0.5606 0.56468 0.0
O391 O 0.89466 0.5574 0.5501 0.0
O392 O 0.90833 0.56429 0.59799 0.0
O393 O 0.90016 0.62567 0.59551 0.0
O394 O 0.93278 0.64192 0.56967 0.0
O395 O 0.89915 0.69062 0.58419 0.0
C396 C 0.81834 0.71611 0.60677 0.0
O397 O 0.83928 0.7184 0.59325 0.0
O398 O 0.81358 0.67956 0.61116 0.0
C399 C 0.81693 0.63682 0.55993 0.0
Tb400 Tb 0.62631 0.43078 0.69145 0.0
C401 C 0.71455 0.45184 0.67999 0.0
Tb402 Tb 0.69314 0.3848 0.70796 0.0
O403 O 0.61786 0.47737 0.71068 0.0
O404 O 0.65876 0.4337 0.71374 0.0
O405 O 0.67619 0.4547 0.67699 0.0
C406 C 0.73401 0.34629 0.73149 0.0
O407 O 0.72803 0.43023 0.69315 0.0
C408 C 0.68169 0.36863 0.67685 0.0
C409 C 0.60287 0.34872 0.70844 0.0
O410 O 0.72305 0.3322 0.7171 0.0
O411 O 0.72355 0.38315 0.73239 0.0
O412 O 0.71603 0.36643 0.68406 0.0
O413 O 0.65549 0.37644 0.68757 0.0
O414 O 0.64056 0.34593 0.71344 0.0
O415 O 0.59091 0.37953 0.69947 0.0
C416 C 0.57459 0.44883 0.66829 0.0
O417 O 0.56611 0.44048 0.68381 0.0
O418 O 0.61232 0.44984 0.66633 0.0
C419 C 0.64406 0.46321 0.7209 0.0
Tb420 Tb 0.8487 0.38429 0.94105 0.0
C421 C 0.83498 0.47163 0.92821 0.0
Tb422 Tb 0.90333 0.44588 0.95525 0.0
O423 O 0.80294 0.38336 0.96063 0.0
O424 O 0.85055 0.41979 0.9629 0.0
O425 O 0.83101 0.43351 0.92479 0.0
C426 C 0.94787 0.4842 0.9781 0.0
O427 O 0.85675 0.48324 0.94174 0.0
C428 C 0.91449 0.43133 0.92395 0.0
C429 C 0.93124 0.35284 0.95559 0.0
O430 O 0.94778 0.49015 0.96198 0.0
O431 O 0.92123 0.45808 0.98146 0.0
O432 O 0.92254 0.4651 0.9309 0.0
O433 O 0.90516 0.40635 0.93501 0.0
O434 O 0.94043 0.39058 0.95904 0.0
O435 O 0.89673 0.34446 0.94866 0.0
C436 C 0.81897 0.32482 0.92438 0.0
O437 O 0.83924 0.32193 0.93806 0.0
O438 O 0.8151 0.36144 0.91995 0.0
C439 C 0.81982 0.4088 0.9703 0.0
Tb440 Tb 0.90056 0.59641 0.19175 0.0
C441 C 0.81401 0.58725 0.17749 0.0
Tb442 Tb 0.84363 0.65013 0.20675 0.0
O443 O 0.88484 0.54919 0.20927 0.0
O444 O 0.88206 0.6072 0.21697 0.0
O445 O 0.85197 0.58107 0.17474 0.0
C446 C 0.79532 0.68457 0.22905 0.0
O447 O 0.8033 0.61084 0.19054 0.0
C448 C 0.87222 0.67677 0.17883 0.0
C449 C 0.93438 0.6762 0.20727 0.0
O450 O 0.8029 0.69728 0.21403 0.0
O451 O 0.813 0.65101 0.23108 0.0
O452 O 0.86064 0.69897 0.1912 0.0
O453 O 0.86438 0.6415 0.18218 0.0
O454 O 0.89903 0.68163 0.21425 0.0
O455 O 0.94044 0.64583 0.1971 0.0
C456 C 0.96112 0.5652 0.17548 0.0
O457 O 0.96274 0.59414 0.186 0.0
O458 O 0.9252 0.55301 0.17447 0.0
C459 C 0.87433 0.57241 0.22135 0.0
Tb460 Tb 0.67588 0.65195 0.44189 0.0
C461 C 0.69255 0.5644 0.42866 0.0
Tb462 Tb 0.62965 0.5856 0.45925 0.0
O463 O 0.7211 0.66093 0.46181 0.0
O464 O 0.67663 0.62185 0.46476 0.0
O465 O 0.69561 0.60299 0.42567 0.0
C466 C 0.5992 0.53601 0.48184 0.0
O467 O 0.67154 0.55105 0.44208 0.0
C468 C 0.59574 0.61556 0.43321 0.0
C469 C 0.59666 0.67606 0.46114 0.0
O470 O 0.5994 0.53061 0.46562 0.0
O471 O 0.61913 0.56764 0.48528 0.0
O472 O 0.57729 0.59917 0.44565 0.0
O473 O 0.63211 0.61057 0.43497 0.0
O474 O 0.59503 0.63915 0.46722 0.0
O475 O 0.62559 0.68704 0.45103 0.0
C476 C 0.69296 0.71265 0.42315 0.0
O477 O 0.65904 0.70586 0.42982 0.0
O478 O 0.71764 0.68454 0.42662 0.0
C479 C 0.70594 0.6357 0.47213 0.0
Tb480 Tb 0.3398 0.37952 0.20777 0.0
C481 C 0.43067 0.34913 0.21048 0.0
Tb482 Tb 0.40438 0.42825 0.19153 0.0
O483 O 0.35646 0.32756 0.19391 0.0
O484 O 0.36514 0.38364 0.18374 0.0
O485 O 0.39373 0.34611 0.21627 0.0
C486 C 0.46687 0.44495 0.17411 0.0
O487 O 0.44086 0.37907 0.20077 0.0
C488 C 0.38656 0.45924 0.22139 0.0
C489 C 0.31763 0.44158 0.17681 0.0
O490 O 0.45866 0.41073 0.18027 0.0
O491 O 0.43898 0.47019 0.17714 0.0
O492 O 0.41121 0.47442 0.21088 0.0
O493 O 0.37346 0.42865 0.21438 0.0
O494 O 0.35617 0.4471 0.1748 0.0
O495 O 0.30403 0.41841 0.18956 0.0
C496 C 0.29104 0.35096 0.23114 0.0
O497 O 0.29114 0.34109 0.21532 0.0
O498 O 0.31645 0.37898 0.23342 0.0
C499 C 0.37202 0.34753 0.18169 0.0
Tb500 Tb 0.38841 0.59024 0.95781 0.0
C501 C 0.4255 0.68057 0.9573 0.0
Tb502 Tb 0.34406 0.6556 0.94037 0.0
O503 O 0.40784 0.5645 0.93477 0.0
O504 O 0.39836 0.62615 0.93692 0.0
O505 O 0.42745 0.64323 0.96299 0.0
C506 C 0.31972 0.71304 0.92111 0.0
O507 O 0.39513 0.69183 0.94797 0.0
C508 C 0.30739 0.6381 0.96913 0.0
C509 C 0.32353 0.56795 0.92863 0.0
O510 O 0.32496 0.71576 0.93718 0.0
O511 O 0.32884 0.67809 0.91575 0.0
O512 O 0.2949 0.663 0.95807 0.0
O513 O 0.33839 0.62348 0.96314 0.0
O514 O 0.32158 0.60625 0.92514 0.0
O515 O 0.34344 0.55512 0.94246 0.0
C516 C 0.42657 0.55021 0.98183 0.0
O517 O 0.44059 0.56047 0.96738 0.0
O518 O 0.38987 0.56082 0.98255 0.0
C519 C 0.40646 0.59819 0.92692 0.0
Tb520 Tb 0.19791 0.64923 0.70699 0.0
C521 C 0.10731 0.68432 0.70723 0.0
Tb522 Tb 0.13193 0.60157 0.69118 0.0
O523 O 0.22029 0.6672 0.68295 0.0
O524 O 0.15994 0.65613 0.68653 0.0
O525 O 0.14479 0.68742 0.71247 0.0
C526 C 0.07743 0.57629 0.67064 0.0
O527 O 0.09602 0.65336 0.69818 0.0
C528 C 0.15013 0.57135 0.72113 0.0
C529 C 0.21987 0.58168 0.67944 0.0
O530 O 0.07088 0.59187 0.68526 0.0
O531 O 0.11481 0.57407 0.66777 0.0
O532 O 0.1244 0.55628 0.71101 0.0
O533 O 0.16443 0.60042 0.71359 0.0
O534 O 0.18171 0.57971 0.67596 0.0
O535 O 0.23284 0.60261 0.69288 0.0
C536 C 0.23856 0.68857 0.73033 0.0
O537 O 0.22754 0.70224 0.71587 0.0
O538 O 0.22837 0.65172 0.73137 0.0
C539 C 0.18598 0.66414 0.67578 0.0
Tb540 Tb 0.12676 0.44525 0.45676 0.0
C541 C 0.0913 0.35455 0.45629 0.0
Tb542 Tb 0.17508 0.3785 0.44117 0.0
O543 O 0.10896 0.46849 0.43293 0.0
O544 O 0.12102 0.40762 0.43599 0.0
O545 O 0.08828 0.39197 0.46183 0.0
C546 C 0.20055 0.31529 0.42596 0.0
O547 O 0.12238 0.34345 0.4474 0.0
C548 C 0.20437 0.39914 0.47113 0.0
C549 C 0.19405 0.46549 0.42842 0.0
O550 O 0.17665 0.31549 0.43855 0.0
O551 O 0.20989 0.35093 0.42153 0.0
O552 O 0.2204 0.37354 0.46128 0.0
O553 O 0.17479 0.41125 0.46339 0.0
O554 O 0.1953 0.42709 0.42486 0.0
O555 O 0.17394 0.47883 0.44209 0.0
C556 C 0.08874 0.48623 0.48054 0.0
O557 O 0.07391 0.47377 0.46649 0.0
O558 O 0.12592 0.47736 0.48086 0.0
C559 C 0.1131 0.43443 0.42547 0.0
Tb560 Tb 0.33137 0.64385 0.32214 0.0
C561 C 0.42083 0.68233 0.32303 0.0
Tb562 Tb 0.39475 0.60079 0.33931 0.0
O563 O 0.30619 0.66671 0.34492 0.0
O564 O 0.36683 0.65576 0.34296 0.0
O565 O 0.38267 0.68618 0.31883 0.0
C566 C 0.44415 0.57927 0.36279 0.0
O567 O 0.43269 0.64991 0.33087 0.0
C568 C 0.37879 0.56013 0.31163 0.0
C569 C 0.30809 0.57907 0.35033 0.0
O570 O 0.45426 0.59139 0.34795 0.0
O571 O 0.40632 0.57796 0.36404 0.0
O572 O 0.4048 0.55049 0.32273 0.0
O573 O 0.36241 0.59167 0.31642 0.0
O574 O 0.34539 0.58078 0.35492 0.0
O575 O 0.29673 0.59602 0.33569 0.0
C576 C 0.29203 0.68229 0.29781 0.0
O577 O 0.28123 0.67877 0.31336 0.0
O578 O 0.32397 0.66213 0.29571 0.0
C579 C 0.33939 0.66479 0.35291 0.0
Tb580 Tb 0.13506 0.58802 0.07296 0.0
C581 C 0.09797 0.67573 0.07105 0.0
Tb582 Tb 0.17695 0.64956 0.08904 0.0
O583 O 0.0813 0.59959 0.08623 0.0
O584 O 0.13496 0.60889 0.09809 0.0
O585 O 0.09564 0.63847 0.06571 0.0
C586 C 0.19432 0.71643 0.10458 0.0
O587 O 0.12821 0.68679 0.08025 0.0
C588 C 0.2134 0.6244 0.06158 0.0
C589 C 0.19497 0.56576 0.10411 0.0
O590 O 0.16195 0.70857 0.09692 0.0
O591 O 0.21752 0.68615 0.10375 0.0
O592 O 0.23044 0.63724 0.07502 0.0
O593 O 0.17676 0.62911 0.06333 0.0
O594 O 0.19291 0.60409 0.10745 0.0
O595 O 0.17769 0.55242 0.08977 0.0
C596 C 0.10458 0.53783 0.05007 0.0
O597 O 0.10271 0.534 0.06632 0.0
O598 O 0.12661 0.56801 0.04687 0.0
C599 C 0.09836 0.61187 0.09983 0.0
Tb600 Tb 0.18892 0.38477 0.82245 0.0
C601 C 0.10116 0.34578 0.82493 0.0
Tb602 Tb 0.12812 0.42897 0.83887 0.0
O603 O 0.22076 0.37197 0.84465 0.0
O604 O 0.15843 0.37562 0.8451 0.0
O605 O 0.13868 0.34168 0.82014 0.0
C606 C 0.06559 0.45489 0.85491 0.0
O607 O 0.08982 0.37883 0.83234 0.0
C608 C 0.15304 0.45951 0.80997 0.0
C609 C 0.21211 0.45393 0.84982 0.0
O610 O 0.06908 0.45347 0.83873 0.0
O611 O 0.09751 0.44241 0.86197 0.0
O612 O 0.14426 0.48021 0.82313 0.0
O613 O 0.14656 0.42401 0.81338 0.0
O614 O 0.17511 0.45236 0.85463 0.0
O615 O 0.22307 0.43505 0.83545 0.0
C616 C 0.22769 0.34373 0.79874 0.0
O617 O 0.2163 0.33059 0.8132 0.0
O618 O 0.21897 0.38105 0.79787 0.0
C619 C 0.18924 0.37035 0.85385 0.0
Tb620 Tb 0.39592 0.43925 0.57267 0.0
C621 C 0.42325 0.3464 0.57489 0.0
Tb622 Tb 0.33925 0.37612 0.58926 0.0
O623 O 0.43948 0.44307 0.59258 0.0
O624 O 0.39063 0.40684 0.5943 0.0
O625 O 0.43006 0.3826 0.56856 0.0
C626 C 0.30704 0.32023 0.60731 0.0
O627 O 0.39064 0.33863 0.58356 0.0
C628 C 0.31302 0.4 0.55923 0.0
C629 C 0.33243 0.465 0.60201 0.0
O630 O 0.33095 0.31459 0.59485 0.0
O631 O 0.30125 0.35771 0.6096 0.0
O632 O 0.29453 0.37578 0.56895 0.0
O633 O 0.34366 0.40932 0.56703 0.0
O634 O 0.32692 0.42704 0.60557 0.0
O635 O 0.35309 0.47642 0.58818 0.0
C636 C 0.43279 0.47953 0.54845 0.0
O637 O 0.42493 0.49272 0.56347 0.0
O638 O 0.41756 0.44466 0.54682 0.0
C639 C 0.42091 0.41763 0.60189 0.0
H640 H 0.24761 0.19255 0.37261 0.0
H641 H 0.12357 0.16821 0.37553 0.0
H642 H 0.11908 0.20833 0.40117 0.0
H643 H 0.14821 0.26011 0.41875 0.0
H644 H 0.26835 0.29497 0.4108 0.0
H645 H 0.27709 0.24102 0.3907 0.0
C646 C 0.21962 0.19555 0.37898 0.0
C647 C 0.18572 0.17869 0.37216 0.0
C648 C 0.2168 0.22102 0.39252 0.0
C649 C 0.14984 0.18168 0.38061 0.0
C650 C 0.1473 0.20474 0.3951 0.0
C651 C 0.17647 0.25507 0.41284 0.0
C652 C 0.20781 0.28066 0.41599 0.0
C653 C 0.18021 0.22612 0.40057 0.0
C654 C 0.24416 0.27513 0.40829 0.0
C655 C 0.24902 0.24451 0.39692 0.0
H656 H 0.09769 0.99512 0.62687 0.0
H657 H 0.10526 0.86886 0.62144 0.0
H658 H 0.06244 0.86039 0.64587 0.0
H659 H 1.01289 0.88917 0.66414 0.0
H660 H 0.99676 1.01524 0.66585 0.0
H661 H 0.05291 0.02399 0.64705 0.0
C662 C 0.09054 0.96574 0.63126 0.0
C663 C 0.10322 0.93261 0.6223 0.0
C664 C 0.06376 0.96135 0.64423 0.0
C665 C 0.09506 0.89465 0.62818 0.0
C666 C 0.07037 0.8899 0.64196 0.0
C667 C 0.02205 0.9186 0.66057 0.0
C668 C 1.00077 0.95163 0.66591 0.0
C669 C 0.05282 0.92307 0.64933 0.0
C670 C 1.01274 0.9896 0.66151 0.0
C671 C 0.04473 0.9945 0.65089 0.0
H672 H 0.29437 0.86199 0.87722 0.0
H673 H 0.41177 0.83156 0.86173 0.0
H674 H 0.41405 0.77909 0.88273 0.0
H675 H 0.37851 0.73622 0.90216 0.0
H676 H 0.26135 0.7663 0.9178 0.0
H677 H 0.26233 0.82476 0.89962 0.0
C678 C 0.32072 0.84441 0.87882 0.0
C679 C 0.35247 0.8495 0.86795 0.0
C680 C 0.32122 0.81384 0.89041 0.0
C681 C 0.38697 0.82759 0.87007 0.0
C682 C 0.38807 0.7974 0.88185 0.0
C683 C 0.35329 0.75573 0.90145 0.0
C684 C 0.31933 0.74715 0.91049 0.0
C685 C 0.35463 0.78917 0.89143 0.0
C686 C 0.28716 0.7726 0.91034 0.0
C687 C 0.28794 0.80587 0.90016 0.0
H688 H 0.54944 0.14175 0.15523 0.0
H689 H 0.5379 0.01824 0.16683 0.0
H690 H 0.47627 1.01571 0.15078 0.0
H691 H 0.43211 0.04707 0.13053 0.0
H692 H 0.44641 0.16999 0.11818 0.0
H693 H 0.50006 0.17519 0.13844 0.0
C694 C 0.53339 0.11424 0.15421 0.0
C695 C 0.54828 0.07974 0.16145 0.0
C696 C 0.49851 0.11334 0.14525 0.0
C697 C 0.52691 0.04469 0.16084 0.0
C698 C 0.49183 0.04342 0.15183 0.0
C699 C 0.44643 0.07518 0.13264 0.0
C700 C 0.43661 0.10782 0.12272 0.0
C701 C 0.47815 0.07733 0.1436 0.0
C702 C 0.45417 0.14446 0.12565 0.0
C703 C 0.48503 0.14727 0.13702 0.0
H704 H 0.22171 0.8269 0.16533 0.0
H705 H 0.10147 0.85628 0.1543 0.0
H706 H 0.10594 0.82076 0.1274 0.0
H707 H 0.14053 0.7722 0.1102 0.0
H708 H 0.25792 0.73605 0.12355 0.0
H709 H 0.25878 0.78429 0.14644 0.0
C710 C 0.19683 0.82607 0.1568 0.0
C711 C 0.16116 0.84321 0.16156 0.0
C712 C 0.19924 0.80433 0.142 0.0
C713 C 0.12901 0.84283 0.15065 0.0
C714 C 0.13159 0.82245 0.13544 0.0
C715 C 0.16664 0.77556 0.11789 0.0
C716 C 0.19899 0.75055 0.11551 0.0
C717 C 0.16601 0.80167 0.13142 0.0
C718 C 0.23273 0.75504 0.12536 0.0
C719 C 0.23309 0.78235 0.13843 0.0
H720 H 0.50068 0.93835 0.36122 0.0
H721 H 0.59554 0.98876 0.39016 0.0
H722 H 0.55759 0.98146 0.41586 0.0
H723 H 0.50235 0.9534 0.43001 0.0
H724 H 0.40612 0.90284 0.402 0.0
H725 H 0.44075 0.91655 0.37554 0.0
C726 C 0.51243 0.94871 0.37312 0.0
C727 C 0.55066 0.96351 0.37409 0.0
C728 C 0.49108 0.94318 0.38781 0.0
C729 C 0.566 0.97714 0.38935 0.0
C730 C 0.54463 0.97254 0.40399 0.0
C731 C 0.4888 0.94524 0.41814 0.0
C732 C 0.45238 0.92643 0.41773 0.0
C733 C 0.50803 0.95409 0.40336 0.0
C734 C 0.43469 0.91677 0.40237 0.0
C735 C 0.45418 0.92492 0.38738 0.0
H736 H 0.3401 0.24883 0.60894 0.0
H737 H 0.26097 0.3275 0.63481 0.0
H738 H 0.26905 0.28968 0.66068 0.0
H739 H 0.30674 0.24196 0.67656 0.0
H740 H 0.38846 0.16479 0.65145 0.0
H741 H 0.37218 0.19542 0.62434 0.0
C742 C 0.32369 0.25688 0.62012 0.0
C743 C 0.30049 0.29097 0.62026 0.0
C744 C 0.33024 0.23648 0.63504 0.0
C745 C 0.27911 0.3013 0.63463 0.0
C746 C 0.28418 0.28012 0.6494 0.0
C747 C 0.32118 0.23204 0.66515 0.0
C748 C 0.34973 0.20249 0.6658 0.0
C749 C 0.31127 0.24914 0.64989 0.0
C750 C 0.36715 0.18847 0.65103 0.0
C751 C 0.35757 0.20559 0.63564 0.0
H752 H 0.04818 0.0768 0.92837 0.0
H753 H 0.13183 0.13516 0.89636 0.0
H754 H 0.08568 0.13069 0.87256 0.0
H755 H 0.02302 0.10699 0.8612 0.0
H756 H 0.94104 0.04711 0.89372 0.0
H757 H 0.98648 0.05361 0.91728 0.0
C758 C 0.05608 0.08873 0.91616 0.0
C759 C 0.09273 0.10605 0.91374 0.0
C760 C 0.03052 0.08465 0.90278 0.0
C761 C 0.10322 0.12199 0.8982 0.0
C762 C 0.07724 0.11892 0.88469 0.0
C763 C 0.01553 0.0948 0.87339 0.0
C764 C 0.97933 0.07623 0.87591 0.0
C765 C 0.04122 0.09949 0.88683 0.0
C766 C 0.9692 0.06106 0.89167 0.0
C767 C 0.9948 0.06517 0.90509 0.0
H768 H 0.80319 0.81315 0.67122 0.0
H769 H 0.90995 0.86336 0.65176 0.0
H770 H 0.89757 0.83184 0.62435 0.0
H771 H 0.86279 0.78053 0.60854 0.0
H772 H 0.76221 0.72322 0.63046 0.0
H773 H 0.7648 0.76807 0.65448 0.0
C774 C 0.82366 0.81727 0.66091 0.0
C775 C 0.85813 0.83885 0.66335 0.0
C776 C 0.81708 0.79814 0.6458 0.0
C777 C 0.88377 0.84578 0.64998 0.0
C778 C 0.87662 0.82792 0.63445 0.0
C779 C 0.8407 0.77891 0.61833 0.0
C780 C 0.81243 0.74896 0.61805 0.0
C781 C 0.84426 0.80267 0.63253 0.0
C782 C 0.7841 0.74633 0.63068 0.0
C783 C 0.78583 0.77161 0.64438 0.0
H784 H 0.98012 0.10747 0.42764 0.0
H785 H 0.88815 0.10218 0.39054 0.0
H786 H 0.93694 0.09171 0.36825 0.0
H787 H 1.00475 0.07705 0.36036 0.0
H788 H 0.09518 0.07459 0.39847 0.0
H789 H 0.04728 0.09266 0.41989 0.0
C790 C 0.97117 0.10538 0.41454 0.0
C791 C 0.93144 0.10637 0.41034 0.0
C792 C 0.99861 0.09585 0.40236 0.0
C793 C 0.9191 0.10245 0.39366 0.0
C794 C 0.94674 0.09558 0.38112 0.0
C795 C 1.01373 0.07984 0.37342 0.0
C796 C 0.05299 0.0743 0.37803 0.0
C797 C 0.98632 0.09064 0.3855 0.0
C798 C 0.06476 0.07823 0.39483 0.0
C799 C 0.03767 0.08921 0.40697 0.0
H800 H 0.66346 0.26717 0.11138 0.0
H801 H 0.76949 0.32435 0.12814 0.0
H802 H 0.77571 0.27695 0.15117 0.0
H803 H 0.74833 0.22351 0.16723 0.0
H804 H 0.63721 0.17219 0.15324 0.0
H805 H 0.63512 0.2137 0.12803 0.0
C806 C 0.68835 0.26849 0.11989 0.0
C807 C 0.71654 0.29814 0.11818 0.0
C808 C 0.6903 0.24288 0.13349 0.0
C809 C 0.74802 0.30103 0.12936 0.0
C810 C 0.75134 0.27429 0.14247 0.0
C811 C 0.72378 0.22104 0.15859 0.0
C812 C 0.69311 0.19475 0.16178 0.0
C813 C 0.72222 0.24573 0.14477 0.0
C814 C 0.6611 0.19226 0.15081 0.0
C815 C 0.66 0.21585 0.13648 0.0
H816 H 0.52696 0.92991 0.86003 0.0
H817 H 0.44085 0.99017 0.8905 0.0
H818 H 0.48311 0.98398 0.9151 0.0
H819 H 0.54293 0.96057 0.92768 0.0
H820 H 0.6314 0.90301 0.89778 0.0
H821 H 0.5884 0.90685 0.87288 0.0
C822 C 0.51796 0.94231 0.87201 0.0
C823 C 0.48143 0.96071 0.87369 0.0
C824 C 0.54188 0.93786 0.88604 0.0
C825 C 0.46928 0.97626 0.88913 0.0
C826 C 0.49304 0.9723 0.90314 0.0
C827 C 0.55255 0.94867 0.91568 0.0
C828 C 0.58962 0.93176 0.91414 0.0
C829 C 0.52896 0.95274 0.9017 0.0
C830 C 0.60242 0.91586 0.8989 0.0
C831 C 0.57825 0.91861 0.88478 0.0
H832 H 0.77797 0.20888 0.86715 0.0
H833 H 0.89518 0.16781 0.87805 0.0
H834 H 0.89753 0.21112 0.90288 0.0
H835 H 0.86828 0.26537 0.91917 0.0
H836 H 0.75616 0.31314 0.90438 0.0
H837 H 0.74935 0.26181 0.88295 0.0
C838 C 0.804 0.20892 0.87502 0.0
C839 C 0.8365 0.18555 0.87092 0.0
C840 C 0.80581 0.23506 0.88836 0.0
C841 C 0.87 0.18593 0.88111 0.0
C842 C 0.87129 0.21059 0.89517 0.0
C843 C 0.84205 0.26376 0.91144 0.0
C844 C 0.81228 0.29196 0.91325 0.0
C845 C 0.83966 0.23593 0.89861 0.0
C846 C 0.77892 0.29106 0.90307 0.0
C847 C 0.77521 0.26201 0.8909 0.0
H848 H 0.60107 0.04462 0.62863 0.0
H849 H 0.60358 0.17038 0.62107 0.0
H850 H 0.55809 0.17942 0.64455 0.0
H851 H 0.50746 0.15027 0.66223 0.0
H852 H 0.49828 0.02393 0.66667 0.0
H853 H 0.55649 1.01591 0.649 0.0
C854 C 0.59233 0.07406 0.63244 0.0
C855 C 0.60423 0.10676 0.62304 0.0
C856 C 0.56428 0.07858 0.64493 0.0
C857 C 0.59406 0.14488 0.62815 0.0
C858 C 0.56778 0.14993 0.64137 0.0
C859 C 0.51857 0.121 0.65948 0.0
C860 C 0.49858 0.08758 0.6652 0.0
C861 C 0.55091 0.1168 0.64902 0.0
C862 C 0.51326 0.04985 0.66202 0.0
C863 C 0.54641 0.04535 0.65203 0.0
H864 H 0.74327 0.83356 0.36895 0.0
H865 H 0.61943 0.85972 0.371 0.0
H866 H 0.61268 0.81745 0.39578 0.0
H867 H 0.64024 0.766 0.41355 0.0
H868 H 0.76225 0.73371 0.40891 0.0
H869 H 0.77183 0.78591 0.38811 0.0
C870 C 0.71491 0.83049 0.37499 0.0
C871 C 0.68167 0.84872 0.36817 0.0
C872 C 0.71104 0.80482 0.38846 0.0
C873 C 0.64518 0.84527 0.37609 0.0
C874 C 0.64136 0.8211 0.39012 0.0
C875 C 0.66905 0.77079 0.40813 0.0
C876 C 0.7005 0.74618 0.41239 0.0
C877 C 0.67378 0.79953 0.39589 0.0
C878 C 0.73773 0.75243 0.40554 0.0
C879 C 0.74313 0.78211 0.39373 0.0
H880 H 1.00068 0.91822 0.17314 0.0
H881 H 0.06073 0.02017 0.1535 0.0
H882 H 0.02005 0.01791 0.12819 0.0
H883 H 0.97784 0.97947 0.10995 0.0
H884 H 0.92269 0.87343 0.12801 0.0
H885 H 0.95168 0.88424 0.156 0.0
C886 C 1.00406 0.94057 0.1635 0.0
C887 C 0.0339 0.96885 0.16479 0.0
C888 C 0.98255 0.93745 0.14869 0.0
C889 C 0.03795 0.99806 0.15253 0.0
C890 C 0.01512 0.99645 0.13805 0.0
C891 C 0.97225 0.95871 0.12004 0.0
C892 C 0.94991 0.92485 0.11708 0.0
C893 C 0.9892 0.96492 0.13567 0.0
C894 C 0.94098 0.89901 0.1302 0.0
C895 C 0.95727 0.90536 0.14607 0.0
H896 H 0.68487 0.75229 0.92138 0.0
H897 H 0.73785 0.84621 0.89264 0.0
H898 H 0.72717 0.80976 0.86679 0.0
H899 H 0.69695 0.75625 0.85253 0.0
H900 H 0.64757 0.6583 0.87989 0.0
H901 H 0.66151 0.69247 0.90661 0.0
C902 C 0.69514 0.76401 0.90948 0.0
C903 C 0.7116 0.80179 0.90868 0.0
C904 C 0.68834 0.74316 0.89464 0.0
C905 C 0.72501 0.81708 0.89339 0.0
C906 C 0.71847 0.79659 0.87864 0.0
C907 C 0.68913 0.74202 0.86428 0.0
C908 C 0.67072 0.70525 0.8644 0.0
C909 C 0.69888 0.76051 0.87915 0.0
C910 C 0.66126 0.68707 0.87969 0.0
C911 C 0.66961 0.7063 0.89483 0.0
H912 H 0.51739 0.3906 0.16362 0.0
H913 H 0.4952 0.51578 0.16396 0.0
H914 H 0.55124 0.52625 0.14529 0.0
H915 H 0.59753 0.49854 0.12548 0.0
H916 H 0.61089 0.37254 0.12118 0.0
H917 H 0.56848 0.36328 0.1457 0.0
C918 C 0.52526 0.42022 0.15978 0.0
C919 C 0.50231 0.45246 0.16469 0.0
C920 C 0.55594 0.42559 0.14857 0.0
C921 C 0.5125 0.49071 0.15994 0.0
C922 C 0.54443 0.49661 0.1494 0.0
C923 C 0.59176 0.46908 0.13014 0.0
C924 C 0.60587 0.43615 0.12146 0.0
C925 C 0.56513 0.46408 0.14312 0.0
C926 C 0.59951 0.39815 0.1277 0.0
C927 C 0.57506 0.39292 0.14152 0.0
H928 H 0.85035 0.2778 0.42425 0.0
H929 H 0.78067 0.19991 0.39331 0.0
H930 H 0.79062 0.24267 0.36912 0.0
H931 H 0.82047 0.29978 0.35686 0.0
H932 H 0.88552 0.38212 0.3873 0.0
H933 H 0.87863 0.33805 0.4118 0.0
C934 C 0.83661 0.27086 0.41229 0.0
C935 C 0.81461 0.23622 0.41038 0.0
C936 C 0.84309 0.29512 0.39844 0.0
C937 C 0.79735 0.2268 0.39492 0.0
C938 C 0.80352 0.25078 0.38111 0.0
C939 C 0.83329 0.30801 0.36888 0.0
C940 C 0.85319 0.34375 0.3706 0.0
C941 C 0.82686 0.28441 0.38273 0.0
C942 C 0.87034 0.35429 0.38593 0.0
C943 C 0.86576 0.32958 0.39986 0.0
H944 H 0.98085 0.57696 0.60465 0.0
H945 H 0.89378 0.62858 0.63715 0.0
H946 H 0.93947 0.62388 0.66114 0.0
H947 H 1.00303 0.60183 0.67248 0.0
H948 H 0.08763 0.54711 0.63946 0.0
H949 H 0.04272 0.55434 0.61578 0.0
C950 C 0.9721 0.58742 0.61702 0.0
C951 C 0.93463 0.60297 0.61948 0.0
C952 C 0.99731 0.58281 0.6305 0.0
C953 C 0.923 0.61685 0.63525 0.0
C954 C 0.94875 0.6136 0.64886 0.0
C955 C 1.01118 0.59085 0.66015 0.0
C956 C 0.04809 0.57368 0.65754 0.0
C957 C 0.98562 0.59578 0.64663 0.0
C958 C 0.05899 0.56001 0.6416 0.0
C959 C 0.03367 0.56457 0.62811 0.0
H960 H 0.65313 0.22962 0.62928 0.0
H961 H 0.76781 0.26419 0.61209 0.0
H962 H 0.76425 0.32435 0.62921 0.0
H963 H 0.7313 0.36185 0.65135 0.0
H964 H 0.61655 0.32678 0.66847 0.0
H965 H 0.61599 0.2726 0.64819 0.0
C966 C 0.67732 0.2504 0.62944 0.0
C967 C 0.71141 0.24254 0.62028 0.0
C968 C 0.67443 0.28483 0.63881 0.0
C969 C 0.74201 0.2698 0.61967 0.0
C970 C 0.73972 0.30407 0.62923 0.0
C971 C 0.70574 0.34298 0.6502 0.0
C972 C 0.67441 0.34727 0.66138 0.0
C973 C 0.70642 0.31132 0.63911 0.0
C974 C 0.64098 0.32356 0.65987 0.0
C975 C 0.64096 0.29232 0.64853 0.0
H976 H 0.03884 0.39354 0.87165 0.0
H977 H 1.00936 0.51154 0.85627 0.0
H978 H 0.95052 0.50994 0.87407 0.0
H979 H 0.91625 0.47929 0.89771 0.0
H980 H 0.94856 0.36269 0.9141 0.0
H981 H 0.99683 0.35813 0.89145 0.0
C982 C 0.01903 0.41859 0.87209 0.0
C983 C 0.02819 0.45309 0.86335 0.0
C984 C 0.98594 0.41728 0.88226 0.0
C985 C 1.00254 0.48516 0.86333 0.0
C986 C 0.96914 0.4841 0.8734 0.0
C987 C 0.93294 0.45239 0.89583 0.0
C988 C 0.93 0.42172 0.9075 0.0
C989 C 0.96163 0.45094 0.88343 0.0
C990 C 0.95082 0.3866 0.90513 0.0
C991 C 0.97872 0.38429 0.8924 0.0
H992 H 0.88688 0.75885 0.11002 0.0
H993 H 0.77497 0.80521 0.12597 0.0
H994 H 0.77299 0.75737 0.14896 0.0
H995 H 0.80916 0.71251 0.16718 0.0
H996 H 0.92459 0.67242 0.15327 0.0
H997 H 0.91948 0.70787 0.12641 0.0
C998 C 0.86167 0.75789 0.11834 0.0
C999 C 0.83145 0.78565 0.11676 0.0
C1000 C 0.8619 0.73209 0.13187 0.0
C1001 C 0.79862 0.7841 0.12726 0.0
C1002 C 0.79765 0.75706 0.14038 0.0
C1003 C 0.83285 0.71126 0.15807 0.0
C1004 C 0.86758 0.69134 0.16196 0.0
C1005 C 0.83009 0.73255 0.14325 0.0
C1006 C 0.89798 0.68844 0.15028 0.0
C1007 C 0.895 0.7086 0.13509 0.0
H1008 H 0.5202 0.62663 0.4302 0.0
H1009 H 0.62637 0.61581 0.40115 0.0
H1010 H 0.58733 0.60285 0.37568 0.0
H1011 H 0.52292 0.58638 0.36304 0.0
H1012 H 0.42012 0.58419 0.39481 0.0
H1013 H 0.45849 0.60746 0.41848 0.0
C1014 C 0.5348 0.62186 0.41822 0.0
C1015 C 0.57562 0.62131 0.41736 0.0
C1016 C 0.51293 0.6101 0.40449 0.0
C1017 C 0.59465 0.61622 0.40189 0.0
C1018 C 0.57247 0.60798 0.38753 0.0
C1019 C 0.50935 0.59028 0.37527 0.0
C1020 C 0.46913 0.58354 0.37736 0.0
C1021 C 0.53171 0.60299 0.38893 0.0
C1022 C 0.4513 0.58877 0.39308 0.0
C1023 C 0.47295 0.60274 0.40651 0.0
H1024 H 0.32249 0.35455 0.15594 0.0
H1025 H 0.42832 0.29702 0.17255 0.0
H1026 H 0.42109 0.24733 0.15049 0.0
H1027 H 0.37905 0.2152 0.13002 0.0
H1028 H 0.2715 0.27001 0.11373 0.0
H1029 H 0.28433 0.32636 0.13248 0.0
C1030 C 0.34478 0.33214 0.1541 0.0
C1031 C 0.37614 0.32916 0.16542 0.0
C1032 C 0.33908 0.30268 0.1421 0.0
C1033 C 0.40445 0.29968 0.1636 0.0
C1034 C 0.3999 0.2711 0.15125 0.0
C1035 C 0.35829 0.23943 0.13071 0.0
C1036 C 0.32358 0.23832 0.1213 0.0
C1037 C 0.36627 0.27129 0.14111 0.0
C1038 C 0.29768 0.27025 0.12146 0.0
C1039 C 0.30526 0.30235 0.13197 0.0
H1040 H 0.43493 0.54075 0.90777 0.0
H1041 H 0.42006 0.66691 0.91012 0.0
H1042 H 0.46623 0.6749 0.8868 0.0
H1043 H 0.51821 0.6465 0.86964 0.0
H1044 H 0.53932 0.52113 0.87033 0.0
H1045 H 0.48318 0.51199 0.88908 0.0
C1046 C 0.44132 0.56997 0.90298 0.0
C1047 C 0.42524 0.60332 0.91071 0.0
C1048 C 0.46944 0.5743 0.89054 0.0
C1049 C 0.43277 0.64098 0.90433 0.0
C1050 C 0.45928 0.6455 0.89118 0.0
C1051 C 0.51022 0.61714 0.87378 0.0
C1052 C 0.53274 0.58447 0.86903 0.0
C1053 C 0.47909 0.61247 0.88483 0.0
C1054 C 0.52233 0.54654 0.87418 0.0
C1055 C 0.49034 0.54139 0.88477 0.0
H1056 H 0.23636 0.67498 0.65074 0.0
H1057 H 0.11796 0.70006 0.66657 0.0
H1058 H 0.11315 0.75263 0.6457 0.0
H1059 H 0.14682 0.79777 0.62653 0.0
H1060 H 0.26521 0.77344 0.61079 0.0
H1061 H 0.26661 0.71417 0.62849 0.0
C1062 C 0.2092 0.69133 0.64922 0.0
C1063 C 0.1779 0.68475 0.6602 0.0
C1064 C 0.2073 0.72215 0.63775 0.0
C1065 C 0.14243 0.70513 0.65817 0.0
C1066 C 0.1399 0.73544 0.64646 0.0
C1067 C 0.1728 0.77928 0.62709 0.0
C1068 C 0.20642 0.78978 0.61816 0.0
C1069 C 0.17288 0.74539 0.63688 0.0
C1070 C 0.23962 0.76568 0.61814 0.0
C1071 C 0.24021 0.73193 0.62805 0.0
H1072 H 0.10776 0.4862 0.4007 0.0
H1073 H 0.07671 0.36768 0.41484 0.0
H1074 H 0.02468 0.36706 0.39365 0.0
H1075 H 0.98084 0.40522 0.3755 0.0
H1076 H 1.00973 0.52466 0.36221 0.0
H1077 H 0.06985 0.52083 0.37924 0.0
C1078 C 0.09032 0.45987 0.39867 0.0
C1079 C 0.09482 0.42746 0.40933 0.0
C1080 C 0.05944 0.46069 0.38728 0.0
C1081 C 0.07317 0.39298 0.40667 0.0
C1082 C 0.04312 0.39291 0.39483 0.0
C1083 C 1.00047 0.4303 0.37646 0.0
C1084 C 0.99101 0.46573 0.36852 0.0
C1085 C 0.03463 0.42747 0.3859 0.0
C1086 C 0.01662 0.49775 0.36891 0.0
C1087 C 0.05086 0.49533 0.37839 0.0
H1088 H 0.39071 0.76869 0.41318 0.0
H1089 H 0.26624 0.79189 0.41383 0.0
H1090 H 0.2557 0.73951 0.39313 0.0
H1091 H 0.28309 0.69449 0.37242 0.0
H1092 H 0.40822 0.67615 0.36976 0.0
H1093 H 0.41756 0.71894 0.39425 0.0
C1094 C 0.36122 0.76185 0.40895 0.0
C1095 C 0.32922 0.78409 0.41465 0.0
C1096 C 0.35573 0.73288 0.39679 0.0
C1097 C 0.29114 0.77506 0.40936 0.0
C1098 C 0.2852 0.7453 0.39758 0.0
C1099 C 0.31235 0.69943 0.37737 0.0
C1100 C 0.34505 0.68327 0.36925 0.0
C1101 C 0.31745 0.7251 0.39083 0.0
C1102 C 0.38278 0.68899 0.37581 0.0
C1103 C 0.38807 0.71347 0.3897 0.0
H1104 H 0.03087 0.60163 0.17289 0.0
H1105 H 0.95487 0.518 0.14815 0.0
H1106 H 0.99226 0.52503 0.1222 0.0
H1107 H 0.0403 0.56113 0.1059 0.0
H1108 H 0.1168 0.64518 0.12997 0.0
H1109 H 0.08476 0.63236 0.15711 0.0
C1110 C 0.02331 0.58409 0.16194 0.0
C1111 C 0.99015 0.5596 0.16224 0.0
C1112 C 0.04404 0.58935 0.14697 0.0
C1113 C 0.98042 0.53694 0.14811 0.0
C1114 C 1.0014 0.54137 0.13325 0.0
C1115 C 0.04986 0.57683 0.11707 0.0
C1116 C 0.07977 0.605 0.11605 0.0
C1117 C 0.03205 0.56872 0.13241 0.0
C1118 C 0.09304 0.62407 0.1306 0.0
C1119 C 0.07501 0.61651 0.14603 0.0
H1120 H 0.23706 0.31052 0.85906 0.0
H1121 H 0.14228 0.37629 0.88152 0.0
H1122 H 0.14519 0.33358 0.90652 0.0
H1123 H 0.17309 0.27591 0.92073 0.0
H1124 H 0.26273 0.2069 0.89618 0.0
H1125 H 0.2643 0.25378 0.87288 0.0
C1126 C 0.21736 0.3159 0.86953 0.0
C1127 C 0.18985 0.3464 0.86884 0.0
C1128 C 0.21866 0.29108 0.88328 0.0
C1129 C 0.16367 0.35271 0.88209 0.0
C1130 C 0.16548 0.32856 0.89625 0.0
C1131 C 0.19353 0.27178 0.91043 0.0
C1132 C 0.21828 0.23885 0.91002 0.0
C1133 C 0.19277 0.29756 0.89686 0.0
C1134 C 0.24394 0.23263 0.89659 0.0
C1135 C 0.2446 0.2591 0.88333 0.0
H1136 H 0.49084 0.38779 0.60419 0.0
H1137 H 0.38851 0.41634 0.6333 0.0
H1138 H 0.42961 0.42771 0.65826 0.0
H1139 H 0.49568 0.44331 0.66939 0.0
H1140 H 0.59631 0.42913 0.63694 0.0
H1141 H 0.55516 0.40088 0.61515 0.0
C1142 C 0.47763 0.39493 0.61627 0.0
C1143 C 0.43744 0.4019 0.61717 0.0
C1144 C 0.50144 0.40658 0.62949 0.0
C1145 C 0.41974 0.41079 0.63259 0.0
C1146 C 0.4433 0.41843 0.64661 0.0
C1147 C 0.50824 0.43447 0.65743 0.0
C1148 C 0.54851 0.43894 0.65452 0.0
C1149 C 0.48427 0.41917 0.64477 0.0
C1150 C 0.56506 0.42689 0.63921 0.0
C1151 C 0.54178 0.41001 0.6269 0.0
H1152 H 0.09682 0.26123 0.32217 0.0
H1153 H 0.0213 0.16019 0.32687 0.0
H1154 H 0.96367 0.20267 0.32618 0.0
H1155 H 0.93255 0.26977 0.32543 0.0
H1156 H 1.0082 0.37103 0.32225 0.0
H1157 H 0.06565 0.32832 0.32112 0.0
C1158 C 0.06784 0.24826 0.32277 0.0
C1159 C 0.06453 0.20657 0.32437 0.0
C1160 C 0.03372 0.27351 0.32273 0.0
C1161 C 0.02587 0.19158 0.32553 0.0
C1162 C 0.99235 0.21616 0.32516 0.0
C1163 C 0.96146 0.28266 0.32422 0.0
C1164 C 0.96488 0.3245 0.32374 0.0
C1165 C 0.99553 0.25739 0.32391 0.0
C1166 C 1.00353 0.3395 0.32257 0.0
C1167 C 0.03695 0.3148 0.32194 0.0
H1168 H 0.93038 0.76174 0.57514 0.0
H1169 H 1.00912 0.66273 0.57192 0.0
H1170 H 0.06534 0.70767 0.57167 0.0
H1171 H 0.09352 0.77594 0.57315 0.0
H1172 H 1.01437 0.87493 0.57382 0.0
H1173 H 0.95829 0.82996 0.5742 0.0
C1174 C 0.95978 0.74979 0.5742 0.0
C1175 C 0.96469 0.70807 0.57351 0.0
C1176 C 0.99256 0.77629 0.57363 0.0
C1177 C 1.00359 0.69412 0.5723 0.0
C1178 C 0.0361 0.72009 0.57224 0.0
C1179 C 0.06403 0.78788 0.57319 0.0
C1180 C 0.059 0.82962 0.5734 0.0
C1181 C 0.03119 0.76137 0.57299 0.0
C1182 C 0.01999 0.84355 0.57347 0.0
C1183 C 0.98756 0.81756 0.57378 0.0
H1184 H 0.50807 0.85064 0.81897 0.0
H1185 H 0.40804 0.77337 0.82046 0.0
H1186 H 0.45179 0.71604 0.82047 0.0
H1187 H 0.51946 0.68652 0.82103 0.0
H1188 H 0.61912 0.76369 0.81662 0.0
H1189 H 0.57536 0.82094 0.81669 0.0
C1190 C 0.49563 0.8213 0.81905 0.0
C1191 C 0.45397 0.81718 0.8196 0.0
C1192 C 0.52139 0.78775 0.81856 0.0
C1193 C 0.43937 0.7783 0.81978 0.0
C1194 C 0.46468 0.74515 0.8199 0.0
C1195 C 0.53177 0.71578 0.8198 0.0
C1196 C 0.57337 0.71989 0.81867 0.0
C1197 C 0.50588 0.74926 0.81938 0.0
C1198 C 0.58779 0.7587 0.81723 0.0
C1199 C 0.56251 0.79184 0.8174 0.0
H1200 H 0.43379 0.26113 0.07502 0.0
H1201 H 0.51386 0.16304 0.07329 0.0
H1202 H 0.56952 0.20874 0.07275 0.0
H1203 H 0.59677 0.2775 0.07356 0.0
H1204 H 0.51633 0.37542 0.07257 0.0
H1205 H 0.46083 0.32969 0.07328 0.0
C1206 C 0.46336 0.24954 0.07433 0.0
C1207 C 0.46882 0.20785 0.07416 0.0
C1208 C 0.49581 0.27646 0.07356 0.0
C1209 C 0.50793 0.19437 0.07327 0.0
C1210 C 0.5401 0.22079 0.07305 0.0
C1211 C 0.56713 0.28903 0.0733 0.0
C1212 C 0.56157 0.33074 0.07295 0.0
C1213 C 0.53465 0.26204 0.07327 0.0
C1214 C 0.52237 0.34411 0.07265 0.0
C1215 C 0.49027 0.31767 0.07316 0.0
H1216 H 0.93461 0.75849 0.21166 0.0
H1217 H 1.01256 0.65902 0.20779 0.0
H1218 H 0.06928 0.70279 0.20906 0.0
H1219 H 0.09835 0.77051 0.20982 0.0
H1220 H 0.02017 0.87014 0.21152 0.0
H1221 H 0.96366 0.82613 0.2126 0.0
C1222 C 0.96396 0.74623 0.2114 0.0
C1223 C 0.96855 0.70477 0.20989 0.0
C1224 C 0.99723 0.77212 0.21166 0.0
C1225 C 1.00739 0.69035 0.2091 0.0
C1226 C 0.04022 0.7156 0.20978 0.0
C1227 C 0.06905 0.78268 0.21076 0.0
C1228 C 0.06434 0.82429 0.21088 0.0
C1229 C 0.0358 0.75674 0.2109 0.0
C1230 C 0.02547 0.83869 0.21158 0.0
C1231 C 0.99274 0.8133 0.21215 0.0
H1232 H 0.4325 0.77106 0.46201 0.0
H1233 H 0.51027 0.87074 0.46489 0.0
H1234 H 0.56697 0.82639 0.46501 0.0
H1235 H 0.59587 0.75852 0.46321 0.0
H1236 H 0.51807 0.65866 0.46332 0.0
H1237 H 0.46132 0.70299 0.46322 0.0
C1238 C 0.46179 0.78323 0.46294 0.0
C1239 C 0.46631 0.82497 0.46357 0.0
C1240 C 0.49491 0.75706 0.46351 0.0
C1241 C 0.50508 0.83929 0.46466 0.0
C1242 C 0.53786 0.81368 0.46461 0.0
C1243 C 0.56654 0.74628 0.46351 0.0
C1244 C 0.56204 0.70452 0.46344 0.0
C1245 C 0.53339 0.77239 0.46394 0.0
C1246 C 0.52323 0.69011 0.46368 0.0
C1247 C 0.49043 0.71573 0.46349 0.0
H1248 H 0.52111 0.3482 0.71231 0.0
H1249 H 0.6199 0.26948 0.70875 0.0
H1250 H 0.57545 0.21283 0.70903 0.0
H1251 H 0.50755 0.18445 0.70929 0.0
H1252 H 0.4092 0.26282 0.71557 0.0
H1253 H 0.45366 0.31945 0.71537 0.0
C1254 C 0.53313 0.31867 0.71183 0.0
C1255 C 0.5746 0.31389 0.71059 0.0
C1256 C 0.50701 0.28552 0.71249 0.0
C1257 C 0.58871 0.27484 0.70994 0.0
C1258 C 0.56301 0.2421 0.71 0.0
C1259 C 0.4957 0.21383 0.7109 0.0
C1260 C 0.45428 0.21852 0.71259 0.0
C1261 C 0.52197 0.24686 0.71118 0.0
C1262 C 0.4404 0.25743 0.71451 0.0
C1263 C 0.46607 0.29019 0.71427 0.0
H1264 H 0.02414 0.1863 0.95828 0.0
H1265 H 0.12419 0.26356 0.96068 0.0
H1266 H 0.08114 0.32081 0.96099 0.0
H1267 H 1.01421 0.35124 0.95946 0.0
H1268 H 0.91416 0.27411 0.95616 0.0
H1269 H 0.957 0.21678 0.95736 0.0
C1270 C 0.03667 0.21553 0.95917 0.0
C1271 C 0.07825 0.21951 0.95965 0.0
C1272 C 1.0112 0.24948 0.95907 0.0
C1273 C 0.09284 0.25851 0.96039 0.0
C1274 C 0.06797 0.29181 0.96053 0.0
C1275 C 1.00155 0.322 0.95923 0.0
C1276 C 0.96008 0.31816 0.95783 0.0
C1277 C 0.02693 0.28804 0.95973 0.0
C1278 C 0.94541 0.27914 0.95727 0.0
C1279 C 0.97018 0.24577 0.95795 0.0
H1280 H 0.02531 0.68385 0.70944 0.0
H1281 H 0.12342 0.76368 0.70924 0.0
H1282 H 0.07829 0.81987 0.70984 0.0
H1283 H 1.01006 0.84763 0.70957 0.0
H1284 H 0.91221 0.76771 0.71243 0.0
H1285 H 0.95733 0.7116 0.71175 0.0
C1286 C 0.03701 0.7135 0.70974 0.0
C1287 C 0.0785 0.71875 0.70936 0.0
C1288 C 1.01047 0.7463 0.71056 0.0
C1289 C 0.0922 0.75794 0.70973 0.0
C1290 C 0.06613 0.79042 0.70998 0.0
C1291 C 0.99844 0.81799 0.7103 0.0
C1292 C 0.95698 0.81273 0.71119 0.0
C1293 C 0.02507 0.78519 0.71032 0.0
C1294 C 0.94341 0.77351 0.712 0.0
C1295 C 0.96947 0.74106 0.71149 0.0
H1296 H 0.92896 0.25603 0.459 0.0
H1297 H 1.00889 0.15796 0.45565 0.0
H1298 H 0.06452 0.20353 0.45536 0.0
H1299 H 0.09175 0.27208 0.45525 0.0
H1300 H 1.01235 0.36997 0.46089 0.0
H1301 H 0.95661 0.32443 0.46115 0.0
C1302 C 0.95853 0.24439 0.45839 0.0
C1303 C 0.96388 0.20272 0.45743 0.0
C1304 C 0.99114 0.27122 0.45861 0.0
C1305 C 1.00301 0.18922 0.45662 0.0
C1306 C 0.03518 0.21558 0.45635 0.0
C1307 C 0.06233 0.28365 0.45674 0.0
C1308 C 0.05711 0.32527 0.45811 0.0
C1309 C 0.02984 0.25677 0.45726 0.0
C1310 C 0.01816 0.33869 0.45998 0.0
C1311 C 0.98592 0.31237 0.46004 0.0
H1312 H 0.53068 0.18734 0.21104 0.0
H1313 H 0.62771 0.26834 0.20927 0.0
H1314 H 0.58176 0.32398 0.21006 0.0
H1315 H 0.51299 0.3508 0.21013 0.0
H1316 H 0.41643 0.26972 0.21451 0.0
H1317 H 0.46241 0.21423 0.21394 0.0
C1318 C 0.54202 0.21714 0.21107 0.0
C1319 C 0.58349 0.22284 0.21016 0.0
C1320 C 0.51501 0.24959 0.21199 0.0
C1321 C 0.59663 0.26222 0.21017 0.0
C1322 C 0.57004 0.29437 0.21052 0.0
C1323 C 0.50184 0.32106 0.21128 0.0
C1324 C 0.46042 0.31532 0.21258 0.0
C1325 C 0.52902 0.28864 0.21133 0.0
C1326 C 0.44753 0.27595 0.21384 0.0
C1327 C 0.47411 0.24385 0.21336 0.0
H1328 H 0.5909 0.77438 0.96075 0.0
H1329 H 0.5141 0.87493 0.95756 0.0
H1330 H 0.45708 0.83113 0.95689 0.0
H1331 H 0.4276 0.76337 0.95642 0.0
H1332 H 0.5039 0.66307 0.96219 0.0
H1333 H 0.561 0.70682 0.9627 0.0
C1334 C 0.56172 0.78695 0.96009 0.0
C1335 C 0.55773 0.82881 0.95927 0.0
C1336 C 0.52824 0.76112 0.96015 0.0
C1337 C 0.51901 0.84348 0.95841 0.0
C1338 C 0.48601 0.81813 0.95793 0.0
C1339 C 0.45662 0.75087 0.958 0.0
C1340 C 0.46047 0.70907 0.95934 0.0
C1341 C 0.49 0.77676 0.95872 0.0
C1342 C 0.49903 0.69451 0.96132 0.0
C1343 C 0.5321 0.71982 0.96152 0.0
H1344 H 0.01898 0.34642 0.82266 0.0
H1345 H 0.11681 0.26615 0.82484 0.0
H1346 H 0.07147 0.21026 0.82543 0.0
H1347 H 1.00322 0.18294 0.8262 0.0
H1348 H 0.90549 0.26262 0.82128 0.0
H1349 H 0.9508 0.31866 0.82081 0.0
C1350 C 0.03058 0.31672 0.8231 0.0
C1351 C 0.0721 0.31129 0.82371 0.0
C1352 C 1.00389 0.28399 0.82297 0.0
C1353 C 0.08562 0.27203 0.82422 0.0
C1354 C 0.05941 0.23973 0.82464 0.0
C1355 C 0.99164 0.2125 0.82483 0.0
C1356 C 0.95017 0.21775 0.82375 0.0
C1357 C 0.01836 0.24512 0.82412 0.0
C1358 C 0.93669 0.25683 0.82197 0.0
C1359 C 0.96286 0.28923 0.8218 0.0
H1360 H 0.5063 0.34639 0.57208 0.0
H1361 H 0.40756 0.26747 0.57424 0.0
H1362 H 0.45162 0.21087 0.57357 0.0
H1363 H 0.51931 0.18175 0.57344 0.0
H1364 H 0.61816 0.26066 0.57298 0.0
H1365 H 0.57405 0.31722 0.57186 0.0
C1366 C 0.49423 0.31689 0.57214 0.0
C1367 C 0.45273 0.31221 0.57299 0.0
C1368 C 0.52034 0.28345 0.57213 0.0
C1369 C 0.43879 0.27299 0.57348 0.0
C1370 C 0.46426 0.24011 0.57313 0.0
C1371 C 0.53138 0.21121 0.57282 0.0
C1372 C 0.57291 0.2159 0.57307 0.0
C1373 C 0.50528 0.24463 0.57256 0.0
C1374 C 0.58689 0.25513 0.57269 0.0
C1375 C 0.56139 0.28798 0.57208 0.0
H1376 H 0.51728 0.84652 0.32365 0.0
H1377 H 0.61566 0.76792 0.31809 0.0
H1378 H 0.57096 0.71139 0.31791 0.0
H1379 H 0.50311 0.68278 0.32014 0.0
H1380 H 0.4045 0.76192 0.32301 0.0
H1381 H 0.44925 0.81831 0.32336 0.0
C1382 C 0.52914 0.8171 0.3222 0.0
C1383 C 0.57066 0.81237 0.32083 0.0
C1384 C 0.50271 0.78412 0.32165 0.0
C1385 C 0.58444 0.77339 0.31899 0.0
C1386 C 0.55859 0.74068 0.31898 0.0
C1387 C 0.49117 0.71233 0.32064 0.0
C1388 C 0.44957 0.7172 0.32148 0.0
C1389 C 0.51754 0.74541 0.32038 0.0
C1390 C 0.43571 0.75636 0.32215 0.0
C1391 C 0.46161 0.78899 0.32245 0.0
H1392 H 0.93635 0.77452 0.07016 0.0
H1393 H 0.0167 0.87218 0.0677 0.0
H1394 H 0.07221 0.82634 0.06747 0.0
H1395 H 0.09919 0.75782 0.06909 0.0
H1396 H 0.01889 0.65997 0.06873 0.0
H1397 H 0.96328 0.70578 0.06882 0.0
C1398 C 0.96595 0.78593 0.06931 0.0
C1399 C 0.97162 0.82751 0.06884 0.0
C1400 C 0.99831 0.75892 0.06871 0.0
C1401 C 1.0107 0.84088 0.06783 0.0
C1402 C 0.04277 0.81442 0.06781 0.0
C1403 C 0.06955 0.74634 0.06875 0.0
C1404 C 0.06394 0.70475 0.06878 0.0
C1405 C 0.03715 0.77328 0.06835 0.0
C1406 C 0.02482 0.69128 0.06845 0.0
C1407 C 0.99272 0.71774 0.06862 0.0
H1408 H 0.24419 0.26674 0.29894 0.0
H1409 H 0.23635 0.16642 0.26585 0.0
H1410 H 0.25201 0.20844 0.24169 0.0
H1411 H 0.26879 0.27393 0.23004 0.0
H1412 H 0.27927 0.37326 0.26354 0.0
H1413 H 0.26104 0.33171 0.28741 0.0
C1414 C 0.24615 0.25401 0.28645 0.0
C1415 C 0.23943 0.21344 0.2842 0.0
C1416 C 0.25506 0.27838 0.27266 0.0
C1417 C 0.24182 0.19746 0.26793 0.0
C1418 C 0.2505 0.22156 0.25411 0.0
C1419 C 0.26632 0.28658 0.24253 0.0
C1420 C 0.27464 0.32683 0.24499 0.0
C1421 C 0.25705 0.26212 0.2563 0.0
C1422 C 0.27243 0.34256 0.2613 0.0
C1423 C 0.26232 0.31871 0.27497 0.0
H1424 H 0.94049 0.05274 0.51065 0.0
H1425 H 1.00257 0.9968 0.46991 0.0
H1426 H 0.05548 0.97804 0.48913 0.0
H1427 H 0.08456 0.9779 0.51764 0.0
H1428 H 0.02254 0.03453 0.55824 0.0
H1429 H 0.96972 0.0531 0.53902 0.0
C1430 C 0.96537 0.03598 0.50605 0.0
C1431 C 0.96736 0.02569 0.48893 0.0
C1432 C 0.9961 0.02597 0.51712 0.0
C1433 C 1.00015 1.00467 0.48308 0.0
C1434 C 0.03056 0.99417 0.49404 0.0
C1435 C 0.05972 0.99477 0.52219 0.0
C1436 C 0.05767 1.00519 0.5393 0.0
C1437 C 0.02905 1.00491 0.51108 0.0
C1438 C 0.02499 0.02648 0.54509 0.0
C1439 C 0.99461 0.03689 0.53413 0.0
H1440 H 0.28483 0.77383 0.79798 0.0
H1441 H 0.2769 0.87587 0.76589 0.0
H1442 H 0.26025 0.83359 0.74191 0.0
H1443 H 0.24872 0.76755 0.73012 0.0
H1444 H 0.25723 0.66554 0.76222 0.0
H1445 H 0.27362 0.70785 0.78618 0.0
C1446 C 0.27904 0.78685 0.78577 0.0
C1447 C 0.28162 0.82794 0.7837 0.0
C1448 C 0.27026 0.76232 0.77205 0.0
C1449 C 0.27465 0.84437 0.76779 0.0
C1450 C 0.26541 0.82018 0.75409 0.0
C1451 C 0.2546 0.75456 0.74233 0.0
C1452 C 0.25222 0.71346 0.7444 0.0
C1453 C 0.26344 0.77911 0.75605 0.0
C1454 C 0.25936 0.69705 0.7603 0.0
C1455 C 0.26843 0.72125 0.77401 0.0
H1456 H 0.45391 0.07188 0.02161 0.0
H1457 H 0.48462 0.9844 0.05864 0.0
H1458 H 0.53705 0.95988 0.04044 0.0
H1459 H 0.57481 0.9637 1.01402 0.0
H1460 H 0.54385 0.05106 0.97697 0.0
H1461 H 0.49148 0.07558 0.99518 0.0
C1462 C 0.4718 0.04714 0.02558 0.0
C1463 C 0.46515 0.0297 0.04137 0.0
C1464 C 0.50233 0.03359 1.01515 0.0
C1465 C 0.48894 0.99808 0.04647 0.0
C1466 C 0.5191 0.98421 0.03612 0.0
C1467 C 0.55688 0.98842 1.01005 0.0
C1468 C 0.56347 1.00586 0.99426 0.0
C1469 C 0.52631 1.00193 0.02049 0.0
C1470 C 0.53959 0.0374 0.98915 0.0
C1471 C 0.50947 0.05128 0.99951 0.0
H1472 H 0.32068 0.70354 0.26701 0.0
H1473 H 0.22828 0.7287 0.30245 0.0
H1474 H 0.20514 0.78266 0.28476 0.0
H1475 H 0.21113 0.82304 0.25937 0.0
H1476 H 0.30147 0.79723 0.22312 0.0
H1477 H 0.32593 0.74375 0.24106 0.0
C1478 C 0.29519 0.72056 0.27072 0.0
C1479 C 0.27599 0.71188 0.28596 0.0
C1480 C 0.28212 0.75188 0.26048 0.0
C1481 C 0.24333 0.73451 0.29072 0.0
C1482 C 0.23024 0.76558 0.28066 0.0
C1483 C 0.23651 0.80606 0.25548 0.0
C1484 C 0.25487 0.81444 0.24005 0.0
C1485 C 0.24956 0.77472 0.2656 0.0
C1486 C 0.28719 0.79164 0.23504 0.0
C1487 C 0.30095 0.76088 0.24524 0.0
H1488 H 0.51126 0.03586 0.55164 0.0
H1489 H 0.61037 0.04059 0.51807 0.0
H1490 H 0.56745 0.02589 0.49414 0.0
H1491 H 0.5017 1.01135 0.48279 0.0
H1492 H 0.40305 1.00381 0.51649 0.0
H1493 H 0.44559 0.02066 0.54031 0.0
C1494 C 0.5235 0.03333 0.53909 0.0
C1495 C 0.56403 0.03896 0.53664 0.0
C1496 C 0.49857 0.02501 0.5254 0.0
C1497 C 0.57939 0.03595 0.52031 0.0
C1498 C 0.55479 0.02783 0.50662 0.0
C1499 C 0.48939 1.01407 0.49531 0.0
C1500 C 0.44909 1.00708 0.49784 0.0
C1501 C 0.5143 0.02251 0.50899 0.0
C1502 C 0.43381 1.00967 0.51419 0.0
C1503 C 0.4582 0.01898 0.52782 0.0
H1504 H 0.26742 0.25339 0.73111 0.0
H1505 H 0.27916 0.15638 0.7657 0.0
H1506 H 0.26254 0.19992 0.78924 0.0
H1507 H 0.24578 0.26593 0.80005 0.0
H1508 H 0.23715 0.36368 0.76567 0.0
H1509 H 0.25202 0.31978 0.74203 0.0
C1510 C 0.26567 0.24165 0.74377 0.0
C1511 C 0.27369 0.20144 0.74662 0.0
C1512 C 0.25736 0.26721 0.75731 0.0
C1513 C 0.27243 0.18698 0.76315 0.0
C1514 C 0.26325 0.21197 0.77662 0.0
C1515 C 0.24751 0.27769 0.7874 0.0
C1516 C 0.24065 0.31813 0.78464 0.0
C1517 C 0.25601 0.25221 0.77387 0.0
C1518 C 0.24275 0.33283 0.76816 0.0
C1519 C 0.25094 0.30764 0.75462 0.0
H1520 H 0.07693 0.08236 1.01241 0.0
H1521 H 0.05114 0.99197 0.97592 0.0
H1522 H 0.99729 0.9681 0.99339 0.0
H1523 H 0.95755 0.9725 0.01909 0.0
H1524 H 0.9838 0.0615 0.05611 0.0
H1525 H 0.03678 0.08676 0.03832 0.0
C1526 C 0.05975 0.05719 1.0084 0.0
C1527 C 0.06832 0.0387 0.99295 0.0
C1528 C 0.02844 0.04378 0.01848 0.0
C1529 C 0.04543 1.00648 0.98781 0.0
C1530 C 1.01443 0.99296 0.99775 0.0
C1531 C 0.97445 0.99783 0.02315 0.0
C1532 C 0.96637 1.01547 0.03881 0.0
C1533 C 1.00552 1.01148 1.01306 0.0
C1534 C 0.98909 0.04774 0.04402 0.0
C1535 C 0.01961 0.06197 0.03391 0.0
H1536 H 0.71301 0.70112 0.76752 0.0
H1537 H 0.80343 0.72862 0.80364 0.0
H1538 H 0.82487 0.78402 0.78629 0.0
H1539 H 0.8171 0.82547 0.76113 0.0
H1540 H 0.72713 0.79794 0.72483 0.0
H1541 H 0.70564 0.74234 0.74215 0.0
C1542 C 0.73787 0.71882 0.77143 0.0
C1543 C 0.75702 0.71042 0.78674 0.0
C1544 C 0.74945 0.7512 0.76156 0.0
C1545 C 0.78861 0.73413 0.79181 0.0
C1546 C 0.80061 0.76606 0.78197 0.0
C1547 C 0.79238 0.80767 0.75714 0.0
C1548 C 0.77329 0.81618 0.74184 0.0
C1549 C 0.78093 0.77518 0.76694 0.0
C1550 C 0.74189 0.79233 0.73667 0.0
C1551 C 0.72988 0.76032 0.74649 0.0
H1552 H 0.81958 0.32634 0.27106 0.0
H1553 H 0.74107 0.28511 0.30965 0.0
H1554 H 0.71808 0.23241 0.29108 0.0
H1555 H 0.72064 0.19761 0.26381 0.0
H1556 H 0.8011 0.23754 0.22567 0.0
H1557 H 0.82338 0.29056 0.24411 0.0
C1558 C 0.79711 0.30606 0.2753 0.0
C1559 C 0.7816 0.30988 0.29159 0.0
C1560 C 0.78484 0.27515 0.26471 0.0
C1561 C 0.75313 0.28294 0.29708 0.0
C1562 C 0.74015 0.25267 0.28651 0.0
C1563 C 0.74342 0.21761 0.25965 0.0
C1564 C 0.75943 0.21344 0.24345 0.0
C1565 C 0.756 0.24827 0.27033 0.0
C1566 C 0.78858 0.23988 0.23815 0.0
C1567 C 0.80115 0.27042 0.24865 0.0
H1568 H 0.74331 0.26713 0.73176 0.0
H1569 H 0.75514 0.3704 0.76298 0.0
H1570 H 0.77295 0.32891 0.78701 0.0
H1571 H 0.78414 0.26335 0.79916 0.0
H1572 H 0.77243 0.15993 0.76805 0.0
H1573 H 0.7549 0.2014 0.74392 0.0
C1574 C 0.7502 0.28058 0.74379 0.0
C1575 C 0.74831 0.32181 0.74559 0.0
C1576 C 0.7598 0.25648 0.75757 0.0
C1577 C 0.75679 0.33879 0.76127 0.0
C1578 C 0.76671 0.31506 0.77501 0.0
C1579 C 0.77741 0.24984 0.78713 0.0
C1580 C 0.77914 0.20861 0.78539 0.0
C1581 C 0.76798 0.27389 0.77333 0.0
C1582 C 0.77087 0.19156 0.7697 0.0
C1583 C 0.76111 0.21528 0.75591 0.0
H1584 H 0.74388 0.7685 0.29641 0.0
H1585 H 0.74175 0.86971 0.26372 0.0
H1586 H 0.75981 0.82797 0.23976 0.0
H1587 H 0.77655 0.76248 0.22816 0.0
H1588 H 0.77964 0.66177 0.26115 0.0
H1589 H 0.7603 0.70334 0.28489 0.0
C1590 C 0.74766 0.78149 0.28406 0.0
C1591 C 0.74184 0.82223 0.28186 0.0
C1592 C 0.75769 0.75724 0.27036 0.0
C1593 C 0.74648 0.83854 0.26576 0.0
C1594 C 0.75655 0.81461 0.25205 0.0
C1595 C 0.7724 0.74957 0.2405 0.0
C1596 C 0.779 0.70895 0.24285 0.0
C1597 C 0.76207 0.77388 0.25418 0.0
C1598 C 0.77424 0.6928 0.25898 0.0
C1599 C 0.76348 0.71663 0.27258 0.0
H1600 H 0.51026 0.49902 0.04941 0.0
H1601 H 0.61272 0.51405 0.01832 0.0
H1602 H 0.571 0.53198 0.99441 0.0
H1603 H 0.50546 0.5426 0.98231 0.0
H1604 H 0.40283 0.52831 1.01334 0.0
H1605 H 0.4445 0.51025 0.03731 0.0
C1606 C 0.52346 0.50661 0.03743 0.0
C1607 C 0.56455 0.50558 0.03564 0.0
C1608 C 0.49923 0.51643 0.02372 0.0
C1609 C 0.58122 0.51502 0.02003 0.0
C1610 C 0.55735 0.52502 1.00635 0.0
C1611 C 0.49217 0.53518 0.99428 0.0
C1612 C 0.45107 0.53632 0.99603 0.0
C1613 C 0.51634 0.52554 1.00802 0.0
C1614 C 0.43433 0.52721 1.01166 0.0
C1615 C 0.45818 0.51714 0.02537 0.0
H1616 H 1.01109 0.54145 0.5489 0.0
H1617 H 0.90572 0.52385 0.5198 0.0
H1618 H 0.94512 0.50452 0.4954 0.0
H1619 H 1.00959 0.49317 0.48226 0.0
H1620 H 0.11502 0.51069 0.51132 0.0
H1621 H 0.07565 0.53001 0.53575 0.0
C1622 C 0.99675 0.53301 0.53726 0.0
C1623 C 0.95547 0.53367 0.5362 0.0
C1624 C 0.01966 0.52245 0.52322 0.0
C1625 C 0.93737 0.52319 0.52098 0.0
C1626 C 0.95992 0.51236 0.507 0.0
C1627 C 0.02396 0.50159 0.4939 0.0
C1628 C 0.06523 0.50093 0.49493 0.0
C1629 C 1.00108 0.51212 0.50794 0.0
C1630 C 0.08337 0.51137 0.51016 0.0
C1631 C 0.06084 0.52219 0.52415 0.0
H1632 H 0.09077 0.55987 0.01763 0.0
H1633 H 0.05307 0.47766 0.05558 0.0
H1634 H 1.00033 0.45472 0.03706 0.0
H1635 H 0.96356 0.45923 1.01018 0.0
H1636 H 1.0015 0.54179 0.97239 0.0
H1637 H 0.05485 0.56369 0.99073 0.0
C1638 C 0.07142 0.53647 0.02175 0.0
C1639 C 0.07627 0.52015 0.03793 0.0
C1640 C 0.04062 0.52396 1.01112 0.0
C1641 C 0.05039 0.49037 0.04314 0.0
C1642 C 0.01997 0.47747 0.03258 0.0
C1643 C 0.98331 0.48227 1.00604 0.0
C1644 C 0.97822 0.49917 0.98998 0.0
C1645 C 1.01446 0.49436 0.01661 0.0
C1646 C 1.00448 0.52854 0.98472 0.0
C1647 C 0.03519 0.54093 0.99518 0.0
H1648 H 0.46156 0.44772 0.51948 0.0
H1649 H 0.47193 0.54888 0.552 0.0
H1650 H 0.5264 0.57361 0.53505 0.0
H1651 H 0.57158 0.5663 0.51111 0.0
H1652 H 0.55997 0.4666 0.4779 0.0
H1653 H 0.50614 0.44105 0.49513 0.0
C1654 C 0.47545 0.47542 0.52273 0.0
C1655 C 0.46247 0.49661 0.53693 0.0
C1656 C 0.50707 0.4893 0.51298 0.0
C1657 C 0.48108 0.53221 0.54106 0.0
C1658 C 0.51245 0.54621 0.53144 0.0
C1659 C 0.5577 0.53862 0.5078 0.0
C1660 C 0.57027 0.51792 0.49342 0.0
C1661 C 0.52597 0.52483 0.51747 0.0
C1662 C 0.55126 0.4827 0.48905 0.0
C1663 C 0.52025 0.4683 0.49883 0.0
H1664 H 0.22078 0.08186 0.38669 0.0
H1665 H 0.29068 0.03961 0.34535 0.0
H1666 H 0.33114 1.00146 0.36525 0.0
H1667 H 0.34475 0.97608 0.39471 0.0
H1668 H 0.27825 0.02372 0.43603 0.0
H1669 H 0.23914 0.06287 0.41616 0.0
C1670 C 0.24526 0.06482 0.38191 0.0
C1671 C 0.25207 0.06431 0.3641 0.0
C1672 C 0.2692 0.04326 0.39366 0.0
C1673 C 0.28431 0.0416 0.35866 0.0
C1674 C 0.30747 0.01929 0.37019 0.0
C1675 C 0.32215 0.99554 0.39949 0.0
C1676 C 0.31518 0.99651 0.4173 0.0
C1677 C 0.30002 0.01931 0.38776 0.0
C1678 C 0.28529 0.02219 0.42277 0.0
C1679 C 0.26253 0.0446 0.41124 0.0
H1680 H 0.32624 0.06663 0.64473 0.0
H1681 H 0.23474 0.06201 0.68201 0.0
H1682 H 0.19179 0.02843 0.66161 0.0
H1683 H 0.18055 0.99695 0.63302 0.0
H1684 H 0.27175 1.00509 0.59578 0.0
H1685 H 0.31356 0.04001 0.616 0.0
C1686 C 0.29685 0.05852 0.64856 0.0
C1687 C 0.28458 0.06716 0.66539 0.0
C1688 C 0.27175 0.03956 0.63649 0.0
C1689 C 0.24582 0.05621 0.66949 0.0
C1690 C 0.22103 0.03675 0.65768 0.0
C1691 C 0.20922 1.00722 0.62914 0.0
C1692 C 0.22207 0.99882 0.61234 0.0
C1693 C 0.23358 0.02792 0.64109 0.0
C1694 C 0.26006 1.01168 0.60813 0.0
C1695 C 0.28434 0.0315 0.61989 0.0
H1696 H 0.20197 0.0681 0.89485 0.0
H1697 H 0.25135 1.00122 0.93575 0.0
H1698 H 0.2885 0.96118 0.91541 0.0
H1699 H 0.31046 0.94693 0.88564 0.0
H1700 H 0.25575 1.0097 0.84479 0.0
H1701 H 0.21785 0.04875 0.86514 0.0
C1702 C 0.22047 0.04444 0.89943 0.0
C1703 C 0.2234 0.03834 0.91723 0.0
C1704 C 0.24131 0.02058 0.88744 0.0
C1705 C 0.24772 1.00704 0.92245 0.0
C1706 C 0.26937 0.98411 0.91067 0.0
C1707 C 0.28983 0.96878 0.88109 0.0
C1708 C 0.28648 0.97485 0.8633 0.0
C1709 C 0.26692 0.99078 0.89309 0.0
C1710 C 0.2592 1.00355 0.85808 0.0
C1711 C 0.23752 0.02625 0.86986 0.0
H1712 H 0.25106 0.92745 0.1488 0.0
H1713 H 0.23687 0.02517 0.1828 0.0
H1714 H 0.26925 0.06875 0.16265 0.0
H1715 H 0.29968 0.08103 0.13472 0.0
H1716 H 0.31622 0.984 0.10051 0.0
H1717 H 0.28562 0.93934 0.12099 0.0
C1718 C 0.25612 0.95801 0.15207 0.0
C1719 C 0.24232 0.97218 0.16796 0.0
C1720 C 0.27487 0.98368 0.14004 0.0
C1721 C 0.24798 1.01259 0.17121 0.0
C1722 C 0.26626 0.03787 0.15948 0.0
C1723 C 0.29664 0.05013 0.13157 0.0
C1724 C 0.31028 0.03671 0.11557 0.0
C1725 C 0.27946 0.02408 0.14372 0.0
C1726 C 0.30612 0.99601 0.11236 0.0
C1727 C 0.28852 0.97018 0.12424 0.0
H1728 H 0.77223 0.92424 0.65064 0.0
H1729 H 0.80133 0.02626 0.68037 0.0
H1730 H 0.7694 0.06877 0.65969 0.0
H1731 H 0.73514 0.0788 0.63263 0.0
H1732 H 0.70416 0.9786 0.60211 0.0
H1733 H 0.73416 0.93468 0.62323 0.0
C1734 C 0.77064 0.95568 0.65288 0.0
C1735 C 0.7886 0.97137 0.6678 0.0
C1736 C 0.75215 0.98082 0.64045 0.0
C1737 C 0.7872 1.01263 0.66963 0.0
C1738 C 0.76909 0.03726 0.65757 0.0
C1739 C 0.73475 0.04735 0.63035 0.0
C1740 C 0.71715 0.03289 0.61518 0.0
C1741 C 0.75181 0.02197 0.64281 0.0
C1742 C 0.71725 0.99152 0.61323 0.0
C1743 C 0.73456 0.96612 0.6255 0.0
H1744 H 0.84739 0.02927 0.39767 0.0
H1745 H 0.74788 0.03875 0.43074 0.0
H1746 H 0.70652 1.00661 0.4096 0.0
H1747 H 0.69681 0.97731 0.38133 0.0
H1748 H 0.79531 0.96528 0.34779 0.0
H1749 H 0.83793 0.99603 0.36916 0.0
C1750 C 0.81687 0.02339 0.40048 0.0
C1751 C 0.80154 0.03578 0.41644 0.0
C1752 C 0.79255 1.00459 0.38789 0.0
C1753 C 0.76132 0.02886 0.41914 0.0
C1754 C 0.73735 1.01065 0.40683 0.0
C1755 C 0.72761 0.98126 0.37846 0.0
C1756 C 0.74197 0.96879 0.36237 0.0
C1757 C 0.75234 0.99864 0.39108 0.0
C1758 C 0.78251 0.97434 0.35963 0.0
C1759 C 0.80715 0.99208 0.37204 0.0
H1760 H 0.8004 0.95025 0.13161 0.0
H1761 H 0.83912 0.05195 0.10384 0.0
H1762 H 0.8097 0.09506 0.12531 0.0
H1763 H 0.77034 0.10462 0.15217 0.0
H1764 H 0.73246 1.00172 0.17925 0.0
H1765 H 0.76383 0.95941 0.15827 0.0
C1766 C 0.80262 0.98186 0.13006 0.0
C1767 C 0.82232 0.9971 0.11557 0.0
C1768 C 0.78573 1.0068 0.14271 0.0
C1769 C 0.82439 0.03856 0.11444 0.0
C1770 C 0.80745 0.06347 0.12691 0.0
C1771 C 0.76987 0.07294 0.15378 0.0
C1772 C 0.74979 0.05686 0.16802 0.0
C1773 C 0.78789 0.04812 0.1412 0.0
C1774 C 0.74842 1.01547 0.16905 0.0
C1775 C 0.76618 0.99103 0.15682 0.0
H1776 H 0.69269 0.96999 0.89675 0.0
H1777 H 0.75128 0.02898 0.93765 0.0
H1778 H 0.78902 0.06809 0.9173 0.0
H1779 H 0.80837 0.08399 0.88753 0.0
H1780 H 0.74519 0.03004 0.84663 0.0
H1781 H 0.7067 0.99155 0.86698 0.0
C1782 C 0.71339 0.99174 0.90131 0.0
C1783 C 0.71872 0.99591 0.91912 0.0
C1784 C 0.73453 1.01532 0.88931 0.0
C1785 C 0.74581 0.02475 0.92435 0.0
C1786 C 0.76774 0.04716 0.91256 0.0
C1787 C 0.78581 0.06419 0.88297 0.0
C1788 C 0.78026 0.06042 0.86516 0.0
C1789 C 0.76278 0.04255 0.89497 0.0
C1790 C 0.75046 0.03439 0.85993 0.0
C1791 C 0.72845 1.01198 0.87172 0.0
H1792 H 0.74743 0.60746 0.88352 0.0
H1793 H 0.74398 0.5126 0.84757 0.0
H1794 H 0.77887 0.46994 0.86743 0.0
H1795 H 0.80894 0.45751 0.89551 0.0
H1796 H 0.81612 0.55212 0.93152 0.0
H1797 H 0.78241 0.59596 0.91147 0.0
C1798 C 0.75518 0.57777 0.87979 0.0
C1799 C 0.7435 0.56423 0.86341 0.0
C1800 C 0.77596 0.55276 0.89157 0.0
C1801 C 0.75312 0.52488 0.85953 0.0
C1802 C 0.77296 0.50009 0.8711 0.0
C1803 C 0.80338 0.48775 0.89915 0.0
C1804 C 0.81542 0.50058 0.91556 0.0
C1805 C 0.78432 0.51336 0.88725 0.0
C1806 C 0.80769 0.54049 0.91935 0.0
C1807 C 0.78813 0.56583 0.90772 0.0
H1808 H 0.67675 0.52229 0.12719 0.0
H1809 H 0.77855 0.4822 0.10008 0.0
H1810 H 0.82122 0.51205 0.12123 0.0
H1811 H 0.83114 0.54728 0.14803 0.0
H1812 H 0.73122 0.58898 0.176 0.0
H1813 H 0.68734 0.5615 0.15427 0.0
C1814 C 0.70828 0.52119 0.12558 0.0
C1815 C 0.72394 0.50084 0.11126 0.0
C1816 C 0.73342 0.53841 0.13828 0.0
C1817 C 0.76513 0.4985 0.11028 0.0
C1818 C 0.78978 0.51534 0.12263 0.0
C1819 C 0.79975 0.55067 0.14958 0.0
C1820 C 0.78526 0.57049 0.16418 0.0
C1821 C 0.77449 0.535 0.1368 0.0
C1822 C 0.74405 0.57406 0.1653 0.0
C1823 C 0.71871 0.55823 0.15269 0.0
H1824 H 0.78319 0.43308 0.3833 0.0
H1825 H 0.77646 0.52576 0.34649 0.0
H1826 H 0.74061 0.5671 0.3666 0.0
H1827 H 0.71322 0.57913 0.39529 0.0
H1828 H 0.71627 0.48579 0.43196 0.0
H1829 H 0.75043 0.44334 0.41159 0.0
C1830 C 0.77292 0.46192 0.37945 0.0
C1831 C 0.78201 0.47533 0.36282 0.0
C1832 C 0.75173 0.486 0.39134 0.0
C1833 C 0.76927 0.51361 0.35869 0.0
C1834 C 0.74895 0.53763 0.3704 0.0
C1835 C 0.7211 0.54943 0.39896 0.0
C1836 C 0.71189 0.53649 0.41565 0.0
C1837 C 0.74032 0.52452 0.38687 0.0
C1838 C 0.72248 0.49735 0.41955 0.0
C1839 C 0.74229 0.47284 0.40776 0.0
H1840 H 0.6961 0.48481 0.64886 0.0
H1841 H 0.79628 0.46261 0.68059 0.0
H1842 H 0.83906 0.49329 0.65941 0.0
H1843 H 0.84847 0.52946 0.63168 0.0
H1844 H 0.74743 0.54943 0.60027 0.0
H1845 H 0.70562 0.51715 0.62113 0.0
C1846 C 0.72729 0.48658 0.65135 0.0
C1847 C 0.74213 0.47128 0.6669 0.0
C1848 C 0.75215 0.50397 0.63882 0.0
C1849 C 0.78314 0.47399 0.66918 0.0
C1850 C 0.80788 0.49166 0.65688 0.0
C1851 C 0.81746 0.52579 0.62914 0.0
C1852 C 0.80182 0.54117 0.61373 0.0
C1853 C 0.7929 0.50698 0.64157 0.0
C1854 C 0.76104 0.53715 0.61141 0.0
C1855 C 0.73683 0.51888 0.62358 0.0
H1856 H 0.25322 0.4954 0.17567 0.0
H1857 H 0.3257 0.42353 0.1437 0.0
H1858 H 0.29409 0.45112 0.11873 0.0
H1859 H 0.24812 0.49987 0.105 0.0
H1860 H 0.17787 0.57365 0.1372 0.0
H1861 H 0.20544 0.54192 0.16203 0.0
C1862 C 0.26155 0.48494 0.1633 0.0
C1863 C 0.2918 0.45606 0.16204 0.0
C1864 C 0.2435 0.50204 0.14853 0.0
C1865 C 0.30235 0.44476 0.1455 0.0
C1866 C 0.28425 0.46093 0.13099 0.0
C1867 C 0.23807 0.50852 0.11739 0.0
C1868 C 0.20992 0.53953 0.11872 0.0
C1869 C 0.25499 0.49015 0.13216 0.0
C1870 C 0.19893 0.55015 0.1353 0.0
C1871 C 0.21495 0.53187 0.14975 0.0
H1872 H 0.30893 0.57997 0.89442 0.0
H1873 H 0.29533 0.491 0.93258 0.0
H1874 H 0.26228 0.44819 0.91198 0.0
H1875 H 0.23348 0.43658 0.88301 0.0
H1876 H 0.25196 0.52376 0.84454 0.0
H1877 H 0.28616 0.56576 0.86501 0.0
C1878 C 0.2989 0.55117 0.89838 0.0
C1879 C 0.30469 0.53967 0.91558 0.0
C1880 C 0.28052 0.52588 0.88614 0.0
C1881 C 0.29163 0.50153 0.91982 0.0
C1882 C 0.27248 0.47682 0.90788 0.0
C1883 C 0.24585 0.46435 0.87891 0.0
C1884 C 0.2404 0.47602 0.86172 0.0
C1885 C 0.26635 0.48862 0.89097 0.0
C1886 C 0.25618 0.51286 0.85721 0.0
C1887 C 0.27555 0.5373 0.86913 0.0
H1888 H 0.34061 0.47264 0.6369 0.0
H1889 H 0.27729 0.52268 0.59516 0.0
H1890 H 0.23757 0.56178 0.61483 0.0
H1891 H 0.2178 0.58007 0.64433 0.0
H1892 H 0.28566 0.53552 0.68592 0.0
H1893 H 0.32603 0.49706 0.66622 0.0
C1894 C 0.31868 0.49269 0.63199 0.0
C1895 C 0.31281 0.49446 0.61416 0.0
C1896 C 0.29618 0.51624 0.64358 0.0
C1897 C 0.28358 0.52069 0.60849 0.0
C1898 C 0.2604 0.543 0.61989 0.0
C1899 C 0.24167 0.56226 0.64917 0.0
C1900 C 0.24794 0.56103 0.66699 0.0
C1901 C 0.26596 0.54082 0.63752 0.0
C1902 C 0.27961 0.5377 0.67257 0.0
C1903 C 0.30281 0.51537 0.66117 0.0
H1904 H 0.19072 0.46702 0.39321 0.0
H1905 H 0.24556 0.52706 0.43477 0.0
H1906 H 0.28451 0.56628 0.4149 0.0
H1907 H 0.30597 0.58226 0.38539 0.0
H1908 H 0.24622 0.52752 0.34374 0.0
H1909 H 0.20681 0.4886 0.36359 0.0
C1910 C 0.21086 0.48901 0.39802 0.0
C1911 C 0.21472 0.49343 0.41589 0.0
C1912 C 0.23273 0.51272 0.38627 0.0
C1913 C 0.24117 0.5226 0.42141 0.0
C1914 C 0.26382 0.54509 0.4099 0.0
C1915 C 0.28402 0.56215 0.38054 0.0
C1916 C 0.27976 0.55832 0.36266 0.0
C1917 C 0.26031 0.5403 0.39226 0.0
C1918 C 0.2506 0.53191 0.3571 0.0
C1919 C 0.22801 0.50925 0.36861 0.0
H1920 H 0.15536 0.99074 0.30195 0.0
H1921 H 0.15913 0.11072 0.28446 0.0
H1922 H 0.16157 0.08772 0.25527 0.0
H1923 H 0.15633 0.03354 0.23468 0.0
H1924 H 0.1565 0.91329 0.25184 0.0
H1925 H 0.1593 0.93603 0.28117 0.0
C1926 C 0.15745 1.01176 0.29173 0.0
C1927 C 0.15726 0.05244 0.29536 0.0
C1928 C 0.15938 0.99817 0.27494 0.0
C1929 C 0.15994 0.07936 0.28202 0.0
C1930 C 0.16096 0.06617 0.26532 0.0
C1931 C 0.1579 1.01231 0.24485 0.0
C1932 C 0.15637 0.97177 0.24112 0.0
C1933 C 0.15992 0.02569 0.26162 0.0
C1934 C 0.15828 0.94457 0.25438 0.0
C1935 C 0.15945 0.95765 0.27115 0.0
H1936 H 0.2829 0.896 0.54963 0.0
H1937 H 0.16748 0.92519 0.53149 0.0
H1938 H 0.19261 0.92829 0.50256 0.0
H1939 H 0.24736 0.9182 0.48212 0.0
H1940 H 0.36295 0.8916 0.50113 0.0
H1941 H 0.33796 0.89182 0.52987 0.0
C1942 C 0.26333 0.9037 0.53937 0.0
C1943 C 0.2234 0.91076 0.54275 0.0
C1944 C 0.27806 0.90534 0.52284 0.0
C1945 C 0.19843 0.9205 0.52931 0.0
C1946 C 0.21279 0.92177 0.51272 0.0
C1947 C 0.26703 0.91269 0.49259 0.0
C1948 C 0.30697 0.90447 0.48941 0.0
C1949 C 0.25249 0.91357 0.50928 0.0
C1950 C 0.33214 0.89785 0.50314 0.0
C1951 C 0.31785 0.89795 0.51962 0.0
H1952 H 0.37701 0.09675 0.75157 0.0
H1953 H 0.36436 0.99142 0.72177 0.0
H1954 H 0.36147 0.95142 0.74721 0.0
H1955 H 0.36745 0.94525 0.77821 0.0
H1956 H 0.3839 0.05024 0.80781 0.0
H1957 H 0.37962 0.09094 0.78258 0.0
C1958 C 0.37316 0.06513 0.75067 0.0
C1959 C 0.37108 0.04724 0.73471 0.0
C1960 C 0.37209 0.04194 0.76547 0.0
C1961 C 0.36626 1.00609 0.73385 0.0
C1962 C 0.36456 0.98305 0.74844 0.0
C1963 C 0.36916 0.97707 0.77912 0.0
C1964 C 0.37561 0.99469 0.79491 0.0
C1965 C 0.36804 1.00046 0.76436 0.0
C1966 C 0.37874 0.03595 0.79582 0.0
C1967 C 0.3765 0.05932 0.78136 0.0
H1968 H 0.2021 0.11575 1.00211 0.0
H1969 H 0.30433 0.13764 0.97165 0.0
H1970 H 0.34617 0.13499 0.99643 0.0
H1971 H 0.35362 0.13342 0.02712 0.0
H1972 H 0.25267 0.11376 0.05835 0.0
H1973 H 0.2107 0.10858 0.03326 0.0
C1974 C 0.23361 0.11903 1.00093 0.0
C1975 C 0.25006 0.12689 0.98501 0.0
C1976 C 0.2578 0.11836 1.01548 0.0
C1977 C 0.29089 0.1317 0.98373 0.0
C1978 C 0.31493 0.1303 0.99793 0.0
C1979 C 0.32258 0.12708 0.02836 0.0
C1980 C 0.30629 0.12341 0.04447 0.0
C1981 C 0.29871 0.12468 1.01391 0.0
C1982 C 0.2659 0.116 0.04601 0.0
C1983 C 0.24189 0.11332 0.03166 0.0
H1984 H 0.87617 0.03054 0.73429 0.0
H1985 H 0.88012 0.91138 0.7527 0.0
H1986 H 0.87756 0.93567 0.7818 0.0
H1987 H 0.87976 0.99156 0.80204 0.0
H1988 H 0.86902 0.11023 0.78349 0.0
H1989 H 0.86828 0.08567 0.75447 0.0
C1990 C 0.87564 1.0099 0.7447 0.0
C1991 C 0.87834 0.96919 0.74137 0.0
C1992 C 0.87323 0.02413 0.76136 0.0
C1993 C 0.87762 0.94275 0.75493 0.0
C1994 C 0.87649 0.95671 0.77157 0.0
C1995 C 0.87658 1.01192 0.79162 0.0
C1996 C 0.8746 0.05272 0.79489 0.0
C1997 C 0.8751 0.9974 0.77496 0.0
C1998 C 0.87028 0.07876 0.78131 0.0
C1999 C 0.87013 0.06469 0.76471 0.0
H2000 H 0.78626 0.1177 0.54993 0.0
H2001 H 0.66603 0.12021 0.53325 0.0
H2002 H 0.68772 0.11757 0.50386 0.0
H2003 H 0.74138 0.12138 0.48291 0.0
H2004 H 0.86144 0.11385 0.4995 0.0
H2005 H 0.8396 0.11121 0.52889 0.0
C2006 C 0.76483 0.11672 0.53984 0.0
C2007 C 0.72454 0.11897 0.54375 0.0
C2008 C 0.77761 0.11461 0.52297 0.0
C2009 C 0.69709 0.11784 0.53059 0.0
C2010 C 0.70955 0.11675 0.51377 0.0
C2011 C 0.76267 0.11822 0.49297 0.0
C2012 C 0.803 0.11768 0.48906 0.0
C2013 C 0.74976 0.11604 0.50981 0.0
C2014 C 0.8303 0.11372 0.50217 0.0
C2015 C 0.81777 0.1126 0.51899 0.0
H2016 H 0.69762 0.98035 0.2865 0.0
H2017 H 0.57238 0.9893 0.29337 0.0
H2018 H 0.56626 0.02698 0.26763 0.0
H2019 H 0.59556 0.06002 0.24374 0.0
H2020 H 0.72028 0.05408 0.23573 0.0
H2021 H 0.72758 1.01325 0.26113 0.0
C2022 C 0.66905 0.98995 0.28212 0.0
C2023 C 0.63543 0.9817 0.29186 0.0
C2024 C 0.66562 1.01276 0.26718 0.0
C2025 C 0.59871 0.99507 0.28616 0.0
C2026 C 0.5951 0.01685 0.27143 0.0
C2027 C 0.62443 0.04981 0.2475 0.0
C2028 C 0.65727 0.0602 0.23783 0.0
C2029 C 0.62828 0.0264 0.26198 0.0
C2030 C 0.69444 0.04667 0.24297 0.0
C2031 C 0.69859 0.02316 0.25748 0.0
H2032 H 0.75328 0.90943 0.04938 0.0
H2033 H 0.87062 0.90827 0.02942 0.0
H2034 H 0.84431 0.91063 1.00066 0.0
H2035 H 0.78735 0.90612 0.9813 0.0
H2036 H 0.67027 0.91256 1.00139 0.0
H2037 H 0.69678 0.91548 0.03005 0.0
C2038 C 0.77304 0.91064 0.03871 0.0
C2039 C 0.81379 0.90871 0.04142 0.0
C2040 C 0.75764 0.91264 0.02229 0.0
C2041 C 0.8392 0.91025 0.02758 0.0
C2042 C 0.82411 0.91121 1.01117 0.0
C2043 C 0.76778 0.90901 0.99198 0.0
C2044 C 0.72694 0.90914 0.98932 0.0
C2045 C 0.78335 0.91144 1.00837 0.0
C2046 C 0.70176 0.91293 1.00316 0.0
C2047 C 0.71694 0.91425 0.01953 0.0
H2048 H 0.64951 0.49938 0.79888 0.0
H2049 H 0.64738 0.61867 0.78054 0.0
H2050 H 0.64992 0.59464 0.75146 0.0
H2051 H 0.64724 0.53921 0.73121 0.0
H2052 H 0.65616 0.42013 0.74941 0.0
H2053 H 0.65693 0.44424 0.77854 0.0
C2054 C 0.65029 0.52004 0.78849 0.0
C2055 C 0.6482 0.56077 0.79182 0.0
C2056 C 0.65279 0.50594 0.7718 0.0
C2057 C 0.64939 0.58728 0.77829 0.0
C2058 C 0.65054 0.57349 0.76166 0.0
C2059 C 0.65012 0.51865 0.74157 0.0
C2060 C 0.65153 0.47794 0.7382 0.0
C2061 C 0.65152 0.53286 0.75825 0.0
C2062 C 0.65538 0.45157 0.75169 0.0
C2063 C 0.65551 0.46538 0.76835 0.0
H2064 H 0.74497 0.42043 0.98035 0.0
H2065 H 0.86354 0.41575 0.99901 0.0
H2066 H 0.83911 0.41662 0.02803 0.0
H2067 H 0.78346 0.41158 0.04796 0.0
H2068 H 0.66508 0.42129 0.02943 0.0
H2069 H 0.68974 0.42607 1.0005 0.0
C2070 C 0.76546 0.42066 0.99081 0.0
C2071 C 0.80606 0.41825 0.98756 0.0
C2072 C 0.7511 0.42171 1.00745 0.0
C2073 C 0.83229 0.4183 1.00117 0.0
C2074 C 0.81824 0.41836 0.01777 0.0
C2075 C 0.76315 0.41562 0.03759 0.0
C2076 C 0.72246 0.416 0.04079 0.0
C2077 C 0.77768 0.41907 0.02104 0.0
C2078 C 0.69644 0.42131 0.0273 0.0
C2079 C 0.71059 0.42372 1.01075 0.0
H2080 H 0.87825 0.54088 0.29981 0.0
H2081 H 0.86069 0.42156 0.2831 0.0
H2082 H 0.8564 0.44414 0.25386 0.0
H2083 H 0.86213 0.49773 0.23284 0.0
H2084 H 0.87804 0.61728 0.24985 0.0
H2085 H 0.87808 0.59495 0.27909 0.0
C2086 C 0.87282 0.51993 0.28977 0.0
C2087 C 0.86936 0.47961 0.29364 0.0
C2088 C 0.87037 0.53325 0.27301 0.0
C2089 C 0.86253 0.45276 0.28052 0.0
C2090 C 0.86053 0.46569 0.26377 0.0
C2091 C 0.86521 0.51891 0.24297 0.0
C2092 C 0.87039 0.55913 0.23912 0.0
C2093 C 0.865 0.50582 0.25983 0.0
C2094 C 0.8741 0.58621 0.25241 0.0
C2095 C 0.87424 0.57342 0.26916 0.0
H2096 H 0.78137 0.62705 0.48227 0.0
H2097 H 0.66253 0.62732 0.50056 0.0
H2098 H 0.68651 0.62523 0.52964 0.0
H2099 H 0.74162 0.62996 0.54982 0.0
H2100 H 0.86044 0.62378 0.53169 0.0
H2101 H 0.83643 0.62099 0.50258 0.0
C2102 C 0.76082 0.6258 0.49265 0.0
C2103 C 0.72025 0.62733 0.48935 0.0
C2104 C 0.7749 0.62376 0.50932 0.0
C2105 C 0.69382 0.62566 0.50283 0.0
C2106 C 0.70757 0.62481 0.51945 0.0
C2107 C 0.76216 0.62711 0.53948 0.0
C2108 C 0.80271 0.62716 0.54282 0.0
C2109 C 0.74804 0.62474 0.52284 0.0
C2110 C 0.82912 0.6234 0.52939 0.0
C2111 C 0.81536 0.62216 0.51276 0.0
H2112 H 0.35975 0.58371 0.2793 0.0
H2113 H 0.38189 0.48118 0.30974 0.0
H2114 H 0.38025 0.43918 0.28484 0.0
H2115 H 0.38037 0.43208 0.25383 0.0
H2116 H 0.36436 0.53523 0.22317 0.0
H2117 H 0.35526 0.57582 0.24827 0.0
C2118 C 0.36319 0.55208 0.28048 0.0
C2119 C 0.37064 0.53564 0.29643 0.0
C2120 C 0.36362 0.52796 0.26588 0.0
C2121 C 0.37599 0.49463 0.29765 0.0
C2122 C 0.37519 0.4705 0.28336 0.0
C2123 C 0.37363 0.46317 0.25269 0.0
C2124 C 0.37232 0.48044 0.23662 0.0
C2125 C 0.37005 0.48683 0.26732 0.0
C2126 C 0.36494 0.52111 0.23538 0.0
C2127 C 0.36003 0.54447 0.24978 0.0
H2128 H 0.33484 0.61768 1.00083 0.0
H2129 H 0.22902 0.63788 0.97243 0.0
H2130 H 0.18978 0.63267 0.99795 0.0
H2131 H 0.18534 0.62784 0.02894 0.0
H2132 H 0.29126 0.61131 0.05771 0.0
H2133 H 0.32996 0.60947 0.03188 0.0
C2134 C 0.30315 0.61998 1.00022 0.0
C2135 C 0.28496 0.62777 0.98464 0.0
C2136 C 0.28051 0.61817 1.0152 0.0
C2137 C 0.24385 0.63166 0.9842 0.0
C2138 C 0.22128 0.62887 0.99885 0.0
C2139 C 0.21679 0.62333 0.02953 0.0
C2140 C 0.23522 0.6198 0.04534 0.0
C2141 C 0.23923 0.623 1.01452 0.0
C2142 C 0.27617 0.61427 0.04577 0.0
C2143 C 0.29846 0.61322 0.03095 0.0
H2144 H 0.14699 0.4963 0.73197 0.0
H2145 H 0.16971 0.61422 0.74929 0.0
H2146 H 0.17341 0.59044 0.77846 0.0
H2147 H 0.16604 0.53582 0.79932 0.0
H2148 H 0.14715 0.41767 0.78103 0.0
H2149 H 0.1464 0.44159 0.75215 0.0
C2150 C 0.15336 0.5167 0.74212 0.0
C2151 C 0.15824 0.55693 0.73846 0.0
C2152 C 0.15582 0.50269 0.75877 0.0
C2153 C 0.16646 0.58304 0.75173 0.0
C2154 C 0.1682 0.56943 0.76844 0.0
C2155 C 0.16207 0.51535 0.78898 0.0
C2156 C 0.15614 0.47498 0.79244 0.0
C2157 C 0.16232 0.52932 0.77217 0.0
C2158 C 0.15149 0.44885 0.77884 0.0
C2159 C 0.15102 0.46252 0.76226 0.0
H2160 H 0.2799 0.40392 0.4814 0.0
H2161 H 0.16115 0.41628 0.49907 0.0
H2162 H 0.18491 0.42107 0.52815 0.0
H2163 H 0.23918 0.41426 0.54867 0.0
H2164 H 0.3582 0.40587 0.53097 0.0
H2165 H 0.33495 0.40764 0.50175 0.0
C2166 C 0.25935 0.40858 0.49162 0.0
C2167 C 0.21881 0.40978 0.48814 0.0
C2168 C 0.27337 0.41184 0.50826 0.0
C2169 C 0.19244 0.41579 0.50142 0.0
C2170 C 0.20605 0.41817 0.51805 0.0
C2171 C 0.26005 0.41391 0.53838 0.0
C2172 C 0.30039 0.4102 0.54193 0.0
C2173 C 0.24637 0.41526 0.52165 0.0
C2174 C 0.32716 0.4095 0.52855 0.0
C2175 C 0.31376 0.41002 0.51185 0.0
loop_
_geom_bond_atom_site_label_1
_geom_bond_atom_site_label_2
_geom_bond_distance
_geom_bond_site_symmetry_2
_ccdc_geom_bond_type
Tb0 O3 2.453 . S
Tb0 O4 2.596 . S
Tb0 O5 2.374 . S
Tb0 O13 2.343 . S
Tb0 O15 2.353 . S
Tb0 O17 2.427 . S
Tb0 O18 2.513 . S
C1 O5 1.251 . S
C1 O7 1.263 . S
Tb2 O4 2.343 . S
Tb2 O7 2.353 . S
Tb2 O10 2.427 . S
Tb2 O11 2.513 . S
Tb2 O12 2.453 . S
Tb2 O13 2.596 . S
Tb2 O14 2.374 . S
O3 Tb0 2.453 . S
O3 C19 1.245 . S
O4 Tb0 2.596 . S
O4 Tb2 2.343 . S
O4 C19 1.259 . S
O5 Tb0 2.374 . S
O5 C1 1.251 . S
C6 O10 1.275 . S
C6 O11 1.246 . S
O7 C1 1.263 . S
O7 Tb2 2.353 . S
C8 O12 1.245 . S
C8 O13 1.259 . S
C9 O14 1.250 . S
C9 O15 1.263 . S
O10 Tb2 2.427 . S
O10 C6 1.275 . S
O11 Tb2 2.513 . S
O11 C6 1.246 . S
O12 Tb2 2.453 . S
O12 C8 1.245 . S
O13 Tb0 2.343 . S
O13 Tb2 2.596 . S
O13 C8 1.259 . S
O14 Tb2 2.374 . S
O14 C9 1.250 . S
O15 Tb0 2.353 . S
O15 C9 1.263 . S
C16 O17 1.275 . S
C16 O18 1.246 . S
O17 Tb0 2.427 . S
O17 C16 1.275 . S
O18 Tb0 2.513 . S
O18 C16 1.246 . S
C19 O3 1.245 . S
C19 O4 1.259 . S
Tb20 O23 2.453 . S
Tb20 O24 2.596 . S
Tb20 O25 2.374 . S
Tb20 O33 2.343 . S
Tb20 O35 2.353 . S
Tb20 O37 2.427 . S
Tb20 O38 2.513 . S
C21 O25 1.251 . S
C21 O27 1.263 . S
Tb22 O24 2.343 . S
Tb22 O27 2.353 . S
Tb22 O30 2.427 . S
Tb22 O31 2.513 . S
Tb22 O32 2.453 . S
Tb22 O33 2.596 . S
Tb22 O34 2.374 . S
O23 Tb20 2.453 . S
O23 C39 1.245 . S
O24 Tb20 2.596 . S
O24 Tb22 2.343 . S
O24 C39 1.259 . S
O25 Tb20 2.374 . S
O25 C21 1.251 . S
C26 O30 1.275 . S
C26 O31 1.246 . S
O27 C21 1.263 . S
O27 Tb22 2.353 . S
C28 O32 1.245 . S
C28 O33 1.259 . S
C29 O34 1.250 . S
C29 O35 1.263 . S
O30 Tb22 2.427 . S
O30 C26 1.275 . S
O31 Tb22 2.513 . S
O31 C26 1.246 . S
O32 Tb22 2.453 . S
O32 C28 1.245 . S
O33 Tb20 2.343 . S
O33 Tb22 2.596 . S
O33 C28 1.259 . S
O34 Tb22 2.374 . S
O34 C29 1.250 . S
O35 Tb20 2.353 . S
O35 C29 1.263 . S
C36 O37 1.275 . S
C36 O38 1.246 . S
O37 Tb20 2.427 . S
O37 C36 1.275 . S
O38 Tb20 2.513 . S
O38 C36 1.246 . S
C39 O23 1.245 . S
C39 O24 1.259 . S
Tb40 O43 2.453 . S
Tb40 O44 2.596 . S
Tb40 O45 2.374 . S
Tb40 O53 2.343 . S
Tb40 O55 2.353 . S
Tb40 O57 2.427 . S
Tb40 O58 2.513 . S
C41 O45 1.251 . S
C41 O47 1.263 . S
Tb42 O44 2.343 . S
Tb42 O47 2.353 . S
Tb42 O50 2.427 . S
Tb42 O51 2.513 . S
Tb42 O52 2.453 . S
Tb42 O53 2.596 . S
Tb42 O54 2.374 . S
O43 Tb40 2.453 . S
O43 C59 1.245 . S
O44 Tb40 2.596 . S
O44 Tb42 2.343 . S
O44 C59 1.259 . S
O45 Tb40 2.374 . S
O45 C41 1.251 . S
C46 O50 1.275 . S
C46 O51 1.246 . S
O47 C41 1.263 . S
O47 Tb42 2.353 . S
C48 O52 1.245 . S
C48 O53 1.259 . S
C49 O54 1.250 . S
C49 O55 1.263 . S
O50 Tb42 2.427 . S
O50 C46 1.275 . S
O51 Tb42 2.513 . S
O51 C46 1.246 . S
O52 Tb42 2.453 . S
O52 C48 1.245 . S
O53 Tb40 2.343 . S
O53 Tb42 2.596 . S
O53 C48 1.259 . S
O54 Tb42 2.374 . S
O54 C49 1.250 . S
O55 Tb40 2.353 . S
O55 C49 1.263 . S
C56 O57 1.275 . S
C56 O58 1.246 . S
O57 Tb40 2.427 . S
O57 C56 1.275 . S
O58 Tb40 2.513 . S
O58 C56 1.246 . S
C59 O43 1.245 . S
C59 O44 1.259 . S
Tb60 O63 2.453 . S
Tb60 O64 2.596 . S
Tb60 O65 2.374 . S
Tb60 O73 2.343 . S
Tb60 O75 2.353 . S
Tb60 O77 2.427 . S
Tb60 O78 2.513 . S
C61 O65 1.251 . S
C61 O67 1.263 . S
Tb62 O64 2.343 . S
Tb62 O67 2.353 . S
Tb62 O70 2.427 . S
Tb62 O71 2.513 . S
Tb62 O72 2.453 . S
Tb62 O73 2.596 . S
Tb62 O74 2.374 . S
O63 Tb60 2.453 . S
O63 C79 1.245 . S
O64 Tb60 2.596 . S
O64 Tb62 2.343 . S
O64 C79 1.259 . S
O65 Tb60 2.374 . S
O65 C61 1.251 . S
C66 O70 1.275 . S
C66 O71 1.246 . S
O67 C61 1.263 . S
O67 Tb62 2.353 . S
C68 O72 1.245 . S
C68 O73 1.259 . S
C69 O74 1.250 . S
C69 O75 1.263 . S
O70 Tb62 2.427 . S
O70 C66 1.275 . S
O71 Tb62 2.513 . S
O71 C66 1.246 . S
O72 Tb62 2.453 . S
O72 C68 1.245 . S
O73 Tb60 2.343 . S
O73 Tb62 2.596 . S
O73 C68 1.259 . S
O74 Tb62 2.374 . S
O74 C69 1.250 . S
O75 Tb60 2.353 . S
O75 C69 1.263 . S
C76 O77 1.275 . S
C76 O78 1.246 . S
O77 Tb60 2.427 . S
O77 C76 1.275 . S
O78 Tb60 2.513 . S
O78 C76 1.246 . S
C79 O63 1.245 . S
C79 O64 1.259 . S
Tb80 O83 2.453 . S
Tb80 O84 2.596 . S
Tb80 O85 2.374 . S
Tb80 O93 2.343 . S
Tb80 O95 2.353 . S
Tb80 O97 2.427 . S
Tb80 O98 2.513 . S
C81 O85 1.251 . S
C81 O87 1.263 . S
Tb82 O84 2.343 . S
Tb82 O87 2.353 . S
Tb82 O90 2.427 . S
Tb82 O91 2.513 . S
Tb82 O92 2.453 . S
Tb82 O93 2.596 . S
Tb82 O94 2.374 . S
O83 Tb80 2.453 . S
O83 C99 1.245 . S
O84 Tb80 2.596 . S
O84 Tb82 2.343 . S
O84 C99 1.259 . S
O85 Tb80 2.374 . S
O85 C81 1.251 . S
C86 O90 1.275 . S
C86 O91 1.246 . S
O87 C81 1.263 . S
O87 Tb82 2.353 . S
C88 O92 1.245 . S
C88 O93 1.259 . S
C89 O94 1.250 . S
C89 O95 1.263 . S
O90 Tb82 2.427 . S
O90 C86 1.275 . S
O91 Tb82 2.513 . S
O91 C86 1.246 . S
O92 Tb82 2.453 . S
O92 C88 1.245 . S
O93 Tb80 2.343 . S
O93 Tb82 2.596 . S
O93 C88 1.259 . S
O94 Tb82 2.374 . S
O94 C89 1.250 . S
O95 Tb80 2.353 . S
O95 C89 1.263 . S
C96 O97 1.275 . S
C96 O98 1.246 . S
O97 Tb80 2.427 . S
O97 C96 1.275 . S
O98 Tb80 2.513 . S
O98 C96 1.246 . S
C99 O83 1.245 . S
C99 O84 1.259 . S
Tb100 O103 2.453 . S
Tb100 O104 2.596 . S
Tb100 O105 2.374 . S
Tb100 O113 2.343 . S
Tb100 O115 2.353 . S
Tb100 O117 2.427 . S
Tb100 O118 2.513 . S
C101 O105 1.251 . S
C101 O107 1.263 . S
Tb102 O104 2.343 . S
Tb102 O107 2.353 . S
Tb102 O110 2.427 . S
Tb102 O111 2.513 . S
Tb102 O112 2.453 . S
Tb102 O113 2.596 . S
Tb102 O114 2.374 . S
O103 Tb100 2.453 . S
O103 C119 1.245 . S
O104 Tb100 2.596 . S
O104 Tb102 2.343 . S
O104 C119 1.259 . S
O105 Tb100 2.374 . S
O105 C101 1.251 . S
C106 O110 1.275 . S
C106 O111 1.246 . S
O107 C101 1.263 . S
O107 Tb102 2.353 . S
C108 O112 1.245 . S
C108 O113 1.259 . S
C109 O114 1.250 . S
C109 O115 1.263 . S
O110 Tb102 2.427 . S
O110 C106 1.275 . S
O111 Tb102 2.513 . S
O111 C106 1.246 . S
O112 Tb102 2.453 . S
O112 C108 1.245 . S
O113 Tb100 2.343 . S
O113 Tb102 2.596 . S
O113 C108 1.259 . S
O114 Tb102 2.374 . S
O114 C109 1.250 . S
O115 Tb100 2.353 . S
O115 C109 1.263 . S
C116 O117 1.275 . S
C116 O118 1.246 . S
O117 Tb100 2.427 . S
O117 C116 1.275 . S
O118 Tb100 2.513 . S
O118 C116 1.246 . S
C119 O103 1.245 . S
C119 O104 1.259 . S
Tb120 O123 2.453 . S
Tb120 O124 2.596 . S
Tb120 O125 2.374 . S
Tb120 O133 2.343 . S
Tb120 O135 2.353 . S
Tb120 O137 2.427 . S
Tb120 O138 2.513 . S
C121 O125 1.251 . S
C121 O127 1.263 . S
Tb122 O124 2.343 . S
Tb122 O127 2.353 . S
Tb122 O130 2.427 . S
Tb122 O131 2.513 . S
Tb122 O132 2.453 . S
Tb122 O133 2.596 . S
Tb122 O134 2.374 . S
O123 Tb120 2.453 . S
O123 C139 1.245 . S
O124 Tb120 2.596 . S
O124 Tb122 2.343 . S
O124 C139 1.259 . S
O125 Tb120 2.374 . S
O125 C121 1.251 . S
C126 O130 1.275 . S
C126 O131 1.246 . S
O127 C121 1.263 . S
O127 Tb122 2.353 . S
C128 O132 1.245 . S
C128 O133 1.259 . S
C129 O134 1.250 . S
C129 O135 1.263 . S
O130 Tb122 2.427 . S
O130 C126 1.275 . S
O131 Tb122 2.513 . S
O131 C126 1.246 . S
O132 Tb122 2.453 . S
O132 C128 1.245 . S
O133 Tb120 2.343 . S
O133 Tb122 2.596 . S
O133 C128 1.259 . S
O134 Tb122 2.374 . S
O134 C129 1.250 . S
O135 Tb120 2.353 . S
O135 C129 1.263 . S
C136 O137 1.275 . S
C136 O138 1.246 . S
O137 Tb120 2.427 . S
O137 C136 1.275 . S
O138 Tb120 2.513 . S
O138 C136 1.246 . S
C139 O123 1.245 . S
C139 O124 1.259 . S
Tb140 O143 2.453 . S
Tb140 O144 2.596 . S
Tb140 O145 2.374 . S
Tb140 O153 2.343 . S
Tb140 O155 2.353 . S
Tb140 O157 2.427 . S
Tb140 O158 2.513 . S
C141 O145 1.251 . S
C141 O147 1.263 . S
Tb142 O144 2.343 . S
Tb142 O147 2.353 . S
Tb142 O150 2.427 . S
Tb142 O151 2.513 . S
Tb142 O152 2.453 . S
Tb142 O153 2.596 . S
Tb142 O154 2.374 . S
O143 Tb140 2.453 . S
O143 C159 1.245 . S
O144 Tb140 2.596 . S
O144 Tb142 2.343 . S
O144 C159 1.259 . S
O145 Tb140 2.374 . S
O145 C141 1.251 . S
C146 O150 1.275 . S
C146 O151 1.246 . S
O147 C141 1.263 . S
O147 Tb142 2.353 . S
C148 O152 1.245 . S
C148 O153 1.259 . S
C149 O154 1.250 . S
C149 O155 1.263 . S
O150 Tb142 2.427 . S
O150 C146 1.275 . S
O151 Tb142 2.513 . S
O151 C146 1.246 . S
O152 Tb142 2.453 . S
O152 C148 1.245 . S
O153 Tb140 2.343 . S
O153 Tb142 2.596 . S
O153 C148 1.259 . S
O154 Tb142 2.374 . S
O154 C149 1.250 . S
O155 Tb140 2.353 . S
O155 C149 1.263 . S
C156 O157 1.275 . S
C156 O158 1.246 . S
O157 Tb140 2.427 . S
O157 C156 1.275 . S
O158 Tb140 2.513 . S
O158 C156 1.246 . S
C159 O143 1.245 . S
C159 O144 1.259 . S
Tb160 O163 2.453 . S
Tb160 O164 2.596 . S
Tb160 O165 2.374 . S
Tb160 O173 2.343 . S
Tb160 O175 2.353 . S
Tb160 O177 2.427 . S
Tb160 O178 2.513 . S
C161 O165 1.251 . S
C161 O167 1.263 . S
Tb162 O164 2.343 . S
Tb162 O167 2.353 . S
Tb162 O170 2.427 . S
Tb162 O171 2.513 . S
Tb162 O172 2.453 . S
Tb162 O173 2.596 . S
Tb162 O174 2.374 . S
O163 Tb160 2.453 . S
O163 C179 1.245 . S
O164 Tb160 2.596 . S
O164 Tb162 2.343 . S
O164 C179 1.259 . S
O165 Tb160 2.374 . S
O165 C161 1.251 . S
C166 O170 1.275 . S
C166 O171 1.246 . S
O167 C161 1.263 . S
O167 Tb162 2.353 . S
C168 O172 1.245 . S
C168 O173 1.259 . S
C169 O174 1.250 . S
C169 O175 1.263 . S
O170 Tb162 2.427 . S
O170 C166 1.275 . S
O171 Tb162 2.513 . S
O171 C166 1.246 . S
O172 Tb162 2.453 . S
O172 C168 1.245 . S
O173 Tb160 2.343 . S
O173 Tb162 2.596 . S
O173 C168 1.259 . S
O174 Tb162 2.374 . S
O174 C169 1.250 . S
O175 Tb160 2.353 . S
O175 C169 1.263 . S
C176 O177 1.275 . S
C176 O178 1.246 . S
O177 Tb160 2.427 . S
O177 C176 1.275 . S
O178 Tb160 2.513 . S
O178 C176 1.246 . S
C179 O163 1.245 . S
C179 O164 1.259 . S
Tb180 O183 2.453 . S
Tb180 O184 2.596 . S
Tb180 O185 2.374 . S
Tb180 O193 2.343 . S
Tb180 O195 2.353 . S
Tb180 O197 2.427 . S
Tb180 O198 2.513 . S
C181 O185 1.251 . S
C181 O187 1.263 . S
Tb182 O184 2.343 . S
Tb182 O187 2.353 . S
Tb182 O190 2.427 . S
Tb182 O191 2.513 . S
Tb182 O192 2.453 . S
Tb182 O193 2.596 . S
Tb182 O194 2.374 . S
O183 Tb180 2.453 . S
O183 C199 1.245 . S
O184 Tb180 2.596 . S
O184 Tb182 2.343 . S
O184 C199 1.259 . S
O185 Tb180 2.374 . S
O185 C181 1.251 . S
C186 O190 1.275 . S
C186 O191 1.246 . S
O187 C181 1.263 . S
O187 Tb182 2.353 . S
C188 O192 1.245 . S
C188 O193 1.259 . S
C189 O194 1.250 . S
C189 O195 1.263 . S
O190 Tb182 2.427 . S
O190 C186 1.275 . S
O191 Tb182 2.513 . S
O191 C186 1.246 . S
O192 Tb182 2.453 . S
O192 C188 1.245 . S
O193 Tb180 2.343 . S
O193 Tb182 2.596 . S
O193 C188 1.259 . S
O194 Tb182 2.374 . S
O194 C189 1.250 . S
O195 Tb180 2.353 . S
O195 C189 1.263 . S
C196 O197 1.275 . S
C196 O198 1.246 . S
O197 Tb180 2.427 . S
O197 C196 1.275 . S
O198 Tb180 2.513 . S
O198 C196 1.246 . S
C199 O183 1.245 . S
C199 O184 1.259 . S
Tb200 O203 2.453 . S
Tb200 O204 2.596 . S
Tb200 O205 2.374 . S
Tb200 O213 2.343 . S
Tb200 O215 2.353 . S
Tb200 O217 2.427 . S
Tb200 O218 2.513 . S
C201 O205 1.251 . S
C201 O207 1.263 . S
Tb202 O204 2.343 . S
Tb202 O207 2.353 . S
Tb202 O210 2.427 . S
Tb202 O211 2.513 . S
Tb202 O212 2.453 . S
Tb202 O213 2.596 . S
Tb202 O214 2.374 . S
O203 Tb200 2.453 . S
O203 C219 1.245 . S
O204 Tb200 2.596 . S
O204 Tb202 2.343 . S
O204 C219 1.259 . S
O205 Tb200 2.374 . S
O205 C201 1.251 . S
C206 O210 1.275 . S
C206 O211 1.246 . S
O207 C201 1.263 . S
O207 Tb202 2.353 . S
C208 O212 1.245 . S
C208 O213 1.259 . S
C209 O214 1.250 . S
C209 O215 1.263 . S
O210 Tb202 2.427 . S
O210 C206 1.275 . S
O211 Tb202 2.513 . S
O211 C206 1.246 . S
O212 Tb202 2.453 . S
O212 C208 1.245 . S
O213 Tb200 2.343 . S
O213 Tb202 2.596 . S
O213 C208 1.259 . S
O214 Tb202 2.374 . S
O214 C209 1.250 . S
O215 Tb200 2.353 . S
O215 C209 1.263 . S
C216 O217 1.275 . S
C216 O218 1.246 . S
O217 Tb200 2.427 . S
O217 C216 1.275 . S
O218 Tb200 2.513 . S
O218 C216 1.246 . S
C219 O203 1.245 . S
C219 O204 1.259 . S
Tb220 O223 2.453 . S
Tb220 O224 2.596 . S
Tb220 O225 2.374 . S
Tb220 O233 2.343 . S
Tb220 O235 2.353 . S
Tb220 O237 2.427 . S
Tb220 O238 2.513 . S
C221 O225 1.251 . S
C221 O227 1.263 . S
Tb222 O224 2.343 . S
Tb222 O227 2.353 . S
Tb222 O230 2.427 . S
Tb222 O231 2.513 . S
Tb222 O232 2.453 . S
Tb222 O233 2.596 . S
Tb222 O234 2.374 . S
O223 Tb220 2.453 . S
O223 C239 1.245 . S
O224 Tb220 2.596 . S
O224 Tb222 2.343 . S
O224 C239 1.259 . S
O225 Tb220 2.374 . S
O225 C221 1.251 . S
C226 O230 1.275 . S
C226 O231 1.246 . S
O227 C221 1.263 . S
O227 Tb222 2.353 . S
C228 O232 1.245 . S
C228 O233 1.259 . S
C229 O234 1.250 . S
C229 O235 1.263 . S
O230 Tb222 2.427 . S
O230 C226 1.275 . S
O231 Tb222 2.513 . S
O231 C226 1.246 . S
O232 Tb222 2.453 . S
O232 C228 1.245 . S
O233 Tb220 2.343 . S
O233 Tb222 2.596 . S
O233 C228 1.259 . S
O234 Tb222 2.374 . S
O234 C229 1.250 . S
O235 Tb220 2.353 . S
O235 C229 1.263 . S
C236 O237 1.275 . S
C236 O238 1.246 . S
O237 Tb220 2.427 . S
O237 C236 1.275 . S
O238 Tb220 2.513 . S
O238 C236 1.246 . S
C239 O223 1.245 . S
C239 O224 1.259 . S
Tb240 O243 2.453 . S
Tb240 O244 2.596 . S
Tb240 O245 2.374 . S
Tb240 O253 2.343 . S
Tb240 O255 2.353 . S
Tb240 O257 2.427 . S
Tb240 O258 2.513 . S
C241 O245 1.251 . S
C241 O247 1.263 . S
Tb242 O244 2.343 . S
Tb242 O247 2.353 . S
Tb242 O250 2.427 . S
Tb242 O251 2.513 . S
Tb242 O252 2.453 . S
Tb242 O253 2.596 . S
Tb242 O254 2.374 . S
O243 Tb240 2.453 . S
O243 C259 1.245 . S
O244 Tb240 2.596 . S
O244 Tb242 2.343 . S
O244 C259 1.259 . S
O245 Tb240 2.374 . S
O245 C241 1.251 . S
C246 O250 1.275 . S
C246 O251 1.246 . S
O247 C241 1.263 . S
O247 Tb242 2.353 . S
C248 O252 1.245 . S
C248 O253 1.259 . S
C249 O254 1.250 . S
C249 O255 1.263 . S
O250 Tb242 2.427 . S
O250 C246 1.275 . S
O251 Tb242 2.513 . S
O251 C246 1.246 . S
O252 Tb242 2.453 . S
O252 C248 1.245 . S
O253 Tb240 2.343 . S
O253 Tb242 2.596 . S
O253 C248 1.259 . S
O254 Tb242 2.374 . S
O254 C249 1.250 . S
O255 Tb240 2.353 . S
O255 C249 1.263 . S
C256 O257 1.275 . S
C256 O258 1.246 . S
O257 Tb240 2.427 . S
O257 C256 1.275 . S
O258 Tb240 2.513 . S
O258 C256 1.246 . S
C259 O243 1.245 . S
C259 O244 1.259 . S
Tb260 O263 2.453 . S
Tb260 O264 2.596 . S
Tb260 O265 2.374 . S
Tb260 O273 2.343 . S
Tb260 O275 2.353 . S
Tb260 O277 2.427 . S
Tb260 O278 2.513 . S
C261 O265 1.251 . S
C261 O267 1.263 . S
Tb262 O264 2.343 . S
Tb262 O267 2.353 . S
Tb262 O270 2.427 . S
Tb262 O271 2.513 . S
Tb262 O272 2.453 . S
Tb262 O273 2.596 . S
Tb262 O274 2.374 . S
O263 Tb260 2.453 . S
O263 C279 1.245 . S
O264 Tb260 2.596 . S
O264 Tb262 2.343 . S
O264 C279 1.259 . S
O265 Tb260 2.374 . S
O265 C261 1.251 . S
C266 O270 1.275 . S
C266 O271 1.246 . S
O267 C261 1.263 . S
O267 Tb262 2.353 . S
C268 O272 1.245 . S
C268 O273 1.259 . S
C269 O274 1.250 . S
C269 O275 1.263 . S
O270 Tb262 2.427 . S
O270 C266 1.275 . S
O271 Tb262 2.513 . S
O271 C266 1.246 . S
O272 Tb262 2.453 . S
O272 C268 1.245 . S
O273 Tb260 2.343 . S
O273 Tb262 2.596 . S
O273 C268 1.259 . S
O274 Tb262 2.374 . S
O274 C269 1.250 . S
O275 Tb260 2.353 . S
O275 C269 1.263 . S
C276 O277 1.275 . S
C276 O278 1.246 . S
O277 Tb260 2.427 . S
O277 C276 1.275 . S
O278 Tb260 2.513 . S
O278 C276 1.246 . S
C279 O263 1.245 . S
C279 O264 1.259 . S
Tb280 O283 2.453 . S
Tb280 O284 2.596 . S
Tb280 O285 2.374 . S
Tb280 O293 2.343 . S
Tb280 O295 2.353 . S
Tb280 O297 2.427 . S
Tb280 O298 2.513 . S
C281 O285 1.251 . S
C281 O287 1.263 . S
Tb282 O284 2.343 . S
Tb282 O287 2.353 . S
Tb282 O290 2.427 . S
Tb282 O291 2.513 . S
Tb282 O292 2.453 . S
Tb282 O293 2.596 . S
Tb282 O294 2.374 . S
O283 Tb280 2.453 . S
O283 C299 1.245 . S
O284 Tb280 2.596 . S
O284 Tb282 2.343 . S
O284 C299 1.259 . S
O285 Tb280 2.374 . S
O285 C281 1.251 . S
C286 O290 1.275 . S
C286 O291 1.246 . S
O287 C281 1.263 . S
O287 Tb282 2.353 . S
C288 O292 1.245 . S
C288 O293 1.259 . S
C289 O294 1.250 . S
C289 O295 1.263 . S
O290 Tb282 2.427 . S
O290 C286 1.275 . S
O291 Tb282 2.513 . S
O291 C286 1.246 . S
O292 Tb282 2.453 . S
O292 C288 1.245 . S
O293 Tb280 2.343 . S
O293 Tb282 2.596 . S
O293 C288 1.259 . S
O294 Tb282 2.374 . S
O294 C289 1.250 . S
O295 Tb280 2.353 . S
O295 C289 1.263 . S
C296 O297 1.275 . S
C296 O298 1.246 . S
O297 Tb280 2.427 . S
O297 C296 1.275 . S
O298 Tb280 2.513 . S
O298 C296 1.246 . S
C299 O283 1.245 . S
C299 O284 1.259 . S
Tb300 O303 2.453 . S
Tb300 O304 2.596 . S
Tb300 O305 2.374 . S
Tb300 O313 2.343 . S
Tb300 O315 2.353 . S
Tb300 O317 2.427 . S
Tb300 O318 2.513 . S
C301 O305 1.251 . S
C301 O307 1.263 . S
Tb302 O304 2.343 . S
Tb302 O307 2.353 . S
Tb302 O310 2.427 . S
Tb302 O311 2.513 . S
Tb302 O312 2.453 . S
Tb302 O313 2.596 . S
Tb302 O314 2.374 . S
O303 Tb300 2.453 . S
O303 C319 1.245 . S
O304 Tb300 2.596 . S
O304 Tb302 2.343 . S
O304 C319 1.259 . S
O305 Tb300 2.374 . S
O305 C301 1.251 . S
C306 O310 1.275 . S
C306 O311 1.246 . S
O307 C301 1.263 . S
O307 Tb302 2.353 . S
C308 O312 1.245 . S
C308 O313 1.259 . S
C309 O314 1.250 . S
C309 O315 1.263 . S
O310 Tb302 2.427 . S
O310 C306 1.275 . S
O311 Tb302 2.513 . S
O311 C306 1.246 . S
O312 Tb302 2.453 . S
O312 C308 1.245 . S
O313 Tb300 2.343 . S
O313 Tb302 2.596 . S
O313 C308 1.259 . S
O314 Tb302 2.374 . S
O314 C309 1.250 . S
O315 Tb300 2.353 . S
O315 C309 1.263 . S
C316 O317 1.275 . S
C316 O318 1.246 . S
O317 Tb300 2.427 . S
O317 C316 1.275 . S
O318 Tb300 2.513 . S
O318 C316 1.246 . S
C319 O303 1.245 . S
C319 O304 1.259 . S
Tb320 O323 2.453 . S
Tb320 O324 2.596 . S
Tb320 O325 2.374 . S
Tb320 O333 2.343 . S
Tb320 O335 2.353 . S
Tb320 O337 2.427 . S
Tb320 O338 2.513 . S
C321 O325 1.251 . S
C321 O327 1.263 . S
Tb322 O324 2.343 . S
Tb322 O327 2.353 . S
Tb322 O330 2.427 . S
Tb322 O331 2.513 . S
Tb322 O332 2.453 . S
Tb322 O333 2.596 . S
Tb322 O334 2.374 . S
O323 Tb320 2.453 . S
O323 C339 1.245 . S
O324 Tb320 2.596 . S
O324 Tb322 2.343 . S
O324 C339 1.259 . S
O325 Tb320 2.374 . S
O325 C321 1.251 . S
C326 O330 1.275 . S
C326 O331 1.246 . S
O327 C321 1.263 . S
O327 Tb322 2.353 . S
C328 O332 1.245 . S
C328 O333 1.259 . S
C329 O334 1.250 . S
C329 O335 1.263 . S
O330 Tb322 2.427 . S
O330 C326 1.275 . S
O331 Tb322 2.513 . S
O331 C326 1.246 . S
O332 Tb322 2.453 . S
O332 C328 1.245 . S
O333 Tb320 2.343 . S
O333 Tb322 2.596 . S
O333 C328 1.259 . S
O334 Tb322 2.374 . S
O334 C329 1.250 . S
O335 Tb320 2.353 . S
O335 C329 1.263 . S
C336 O337 1.275 . S
C336 O338 1.246 . S
O337 Tb320 2.427 . S
O337 C336 1.275 . S
O338 Tb320 2.513 . S
O338 C336 1.246 . S
C339 O323 1.245 . S
C339 O324 1.259 . S
Tb340 O343 2.453 . S
Tb340 O344 2.596 . S
Tb340 O345 2.374 . S
Tb340 O353 2.343 . S
Tb340 O355 2.353 . S
Tb340 O357 2.427 . S
Tb340 O358 2.513 . S
C341 O345 1.251 . S
C341 O347 1.263 . S
Tb342 O344 2.343 . S
Tb342 O347 2.353 . S
Tb342 O350 2.427 . S
Tb342 O351 2.513 . S
Tb342 O352 2.453 . S
Tb342 O353 2.596 . S
Tb342 O354 2.374 . S
O343 Tb340 2.453 . S
O343 C359 1.245 . S
O344 Tb340 2.596 . S
O344 Tb342 2.343 . S
O344 C359 1.259 . S
O345 Tb340 2.374 . S
O345 C341 1.251 . S
C346 O350 1.275 . S
C346 O351 1.246 . S
O347 C341 1.263 . S
O347 Tb342 2.353 . S
C348 O352 1.245 . S
C348 O353 1.259 . S
C349 O354 1.250 . S
C349 O355 1.263 . S
O350 Tb342 2.427 . S
O350 C346 1.275 . S
O351 Tb342 2.513 . S
O351 C346 1.246 . S
O352 Tb342 2.453 . S
O352 C348 1.245 . S
O353 Tb340 2.343 . S
O353 Tb342 2.596 . S
O353 C348 1.259 . S
O354 Tb342 2.374 . S
O354 C349 1.250 . S
O355 Tb340 2.353 . S
O355 C349 1.263 . S
C356 O357 1.275 . S
C356 O358 1.246 . S
O357 Tb340 2.427 . S
O357 C356 1.275 . S
O358 Tb340 2.513 . S
O358 C356 1.246 . S
C359 O343 1.245 . S
C359 O344 1.259 . S
Tb360 O363 2.453 . S
Tb360 O364 2.596 . S
Tb360 O365 2.374 . S
Tb360 O373 2.343 . S
Tb360 O375 2.353 . S
Tb360 O377 2.427 . S
Tb360 O378 2.513 . S
C361 O365 1.251 . S
C361 O367 1.263 . S
Tb362 O364 2.343 . S
Tb362 O367 2.353 . S
Tb362 O370 2.427 . S
Tb362 O371 2.513 . S
Tb362 O372 2.453 . S
Tb362 O373 2.596 . S
Tb362 O374 2.374 . S
O363 Tb360 2.453 . S
O363 C379 1.245 . S
O364 Tb360 2.596 . S
O364 Tb362 2.343 . S
O364 C379 1.259 . S
O365 Tb360 2.374 . S
O365 C361 1.251 . S
C366 O370 1.275 . S
C366 O371 1.246 . S
O367 C361 1.263 . S
O367 Tb362 2.353 . S
C368 O372 1.245 . S
C368 O373 1.259 . S
C369 O374 1.250 . S
C369 O375 1.263 . S
O370 Tb362 2.427 . S
O370 C366 1.275 . S
O371 Tb362 2.513 . S
O371 C366 1.246 . S
O372 Tb362 2.453 . S
O372 C368 1.245 . S
O373 Tb360 2.343 . S
O373 Tb362 2.596 . S
O373 C368 1.259 . S
O374 Tb362 2.374 . S
O374 C369 1.250 . S
O375 Tb360 2.353 . S
O375 C369 1.263 . S
C376 O377 1.275 . S
C376 O378 1.246 . S
O377 Tb360 2.427 . S
O377 C376 1.275 . S
O378 Tb360 2.513 . S
O378 C376 1.246 . S
C379 O363 1.245 . S
C379 O364 1.259 . S
Tb380 O383 2.453 . S
Tb380 O384 2.596 . S
Tb380 O385 2.374 . S
Tb380 O393 2.343 . S
Tb380 O395 2.353 . S
Tb380 O397 2.427 . S
Tb380 O398 2.513 . S
C381 O385 1.251 . S
C381 O387 1.263 . S
Tb382 O384 2.343 . S
Tb382 O387 2.353 . S
Tb382 O390 2.427 . S
Tb382 O391 2.513 . S
Tb382 O392 2.453 . S
Tb382 O393 2.596 . S
Tb382 O394 2.374 . S
O383 Tb380 2.453 . S
O383 C399 1.245 . S
O384 Tb380 2.596 . S
O384 Tb382 2.343 . S
O384 C399 1.259 . S
O385 Tb380 2.374 . S
O385 C381 1.251 . S
C386 O390 1.275 . S
C386 O391 1.246 . S
O387 C381 1.263 . S
O387 Tb382 2.353 . S
C388 O392 1.245 . S
C388 O393 1.259 . S
C389 O394 1.250 . S
C389 O395 1.263 . S
O390 Tb382 2.427 . S
O390 C386 1.275 . S
O391 Tb382 2.513 . S
O391 C386 1.246 . S
O392 Tb382 2.453 . S
O392 C388 1.245 . S
O393 Tb380 2.343 . S
O393 Tb382 2.596 . S
O393 C388 1.259 . S
O394 Tb382 2.374 . S
O394 C389 1.250 . S
O395 Tb380 2.353 . S
O395 C389 1.263 . S
C396 O397 1.275 . S
C396 O398 1.246 . S
O397 Tb380 2.427 . S
O397 C396 1.275 . S
O398 Tb380 2.513 . S
O398 C396 1.246 . S
C399 O383 1.245 . S
C399 O384 1.259 . S
Tb400 O403 2.453 . S
Tb400 O404 2.596 . S
Tb400 O405 2.374 . S
Tb400 O413 2.343 . S
Tb400 O415 2.353 . S
Tb400 O417 2.427 . S
Tb400 O418 2.513 . S
C401 O405 1.251 . S
C401 O407 1.263 . S
Tb402 O404 2.343 . S
Tb402 O407 2.353 . S
Tb402 O410 2.427 . S
Tb402 O411 2.513 . S
Tb402 O412 2.453 . S
Tb402 O413 2.596 . S
Tb402 O414 2.374 . S
O403 Tb400 2.453 . S
O403 C419 1.245 . S
O404 Tb400 2.596 . S
O404 Tb402 2.343 . S
O404 C419 1.259 . S
O405 Tb400 2.374 . S
O405 C401 1.251 . S
C406 O410 1.275 . S
C406 O411 1.246 . S
O407 C401 1.263 . S
O407 Tb402 2.353 . S
C408 O412 1.245 . S
C408 O413 1.259 . S
C409 O414 1.250 . S
C409 O415 1.263 . S
O410 Tb402 2.427 . S
O410 C406 1.275 . S
O411 Tb402 2.513 . S
O411 C406 1.246 . S
O412 Tb402 2.453 . S
O412 C408 1.245 . S
O413 Tb400 2.343 . S
O413 Tb402 2.596 . S
O413 C408 1.259 . S
O414 Tb402 2.374 . S
O414 C409 1.250 . S
O415 Tb400 2.353 . S
O415 C409 1.263 . S
C416 O417 1.275 . S
C416 O418 1.246 . S
O417 Tb400 2.427 . S
O417 C416 1.275 . S
O418 Tb400 2.513 . S
O418 C416 1.246 . S
C419 O403 1.245 . S
C419 O404 1.259 . S
Tb420 O423 2.453 . S
Tb420 O424 2.596 . S
Tb420 O425 2.374 . S
Tb420 O433 2.343 . S
Tb420 O435 2.353 . S
Tb420 O437 2.427 . S
Tb420 O438 2.513 . S
C421 O425 1.251 . S
C421 O427 1.263 . S
Tb422 O424 2.343 . S
Tb422 O427 2.353 . S
Tb422 O430 2.427 . S
Tb422 O431 2.513 . S
Tb422 O432 2.453 . S
Tb422 O433 2.596 . S
Tb422 O434 2.374 . S
O423 Tb420 2.453 . S
O423 C439 1.245 . S
O424 Tb420 2.596 . S
O424 Tb422 2.343 . S
O424 C439 1.259 . S
O425 Tb420 2.374 . S
O425 C421 1.251 . S
C426 O430 1.275 . S
C426 O431 1.246 . S
O427 C421 1.263 . S
O427 Tb422 2.353 . S
C428 O432 1.245 . S
C428 O433 1.259 . S
C429 O434 1.250 . S
C429 O435 1.263 . S
O430 Tb422 2.427 . S
O430 C426 1.275 . S
O431 Tb422 2.513 . S
O431 C426 1.246 . S
O432 Tb422 2.453 . S
O432 C428 1.245 . S
O433 Tb420 2.343 . S
O433 Tb422 2.596 . S
O433 C428 1.259 . S
O434 Tb422 2.374 . S
O434 C429 1.250 . S
O435 Tb420 2.353 . S
O435 C429 1.263 . S
C436 O437 1.275 . S
C436 O438 1.246 . S
O437 Tb420 2.427 . S
O437 C436 1.275 . S
O438 Tb420 2.513 . S
O438 C436 1.246 . S
C439 O423 1.245 . S
C439 O424 1.259 . S
Tb440 O443 2.453 . S
Tb440 O444 2.596 . S
Tb440 O445 2.374 . S
Tb440 O453 2.343 . S
Tb440 O455 2.353 . S
Tb440 O457 2.427 . S
Tb440 O458 2.513 . S
C441 O445 1.251 . S
C441 O447 1.263 . S
Tb442 O444 2.343 . S
Tb442 O447 2.353 . S
Tb442 O450 2.427 . S
Tb442 O451 2.513 . S
Tb442 O452 2.453 . S
Tb442 O453 2.596 . S
Tb442 O454 2.374 . S
O443 Tb440 2.453 . S
O443 C459 1.245 . S
O444 Tb440 2.596 . S
O444 Tb442 2.343 . S
O444 C459 1.259 . S
O445 Tb440 2.374 . S
O445 C441 1.251 . S
C446 O450 1.275 . S
C446 O451 1.246 . S
O447 C441 1.263 . S
O447 Tb442 2.353 . S
C448 O452 1.245 . S
C448 O453 1.259 . S
C449 O454 1.250 . S
C449 O455 1.263 . S
O450 Tb442 2.427 . S
O450 C446 1.275 . S
O451 Tb442 2.513 . S
O451 C446 1.246 . S
O452 Tb442 2.453 . S
O452 C448 1.245 . S
O453 Tb440 2.343 . S
O453 Tb442 2.596 . S
O453 C448 1.259 . S
O454 Tb442 2.374 . S
O454 C449 1.250 . S
O455 Tb440 2.353 . S
O455 C449 1.263 . S
C456 O457 1.275 . S
C456 O458 1.246 . S
O457 Tb440 2.427 . S
O457 C456 1.275 . S
O458 Tb440 2.513 . S
O458 C456 1.246 . S
C459 O443 1.245 . S
C459 O444 1.259 . S
Tb460 O463 2.453 . S
Tb460 O464 2.596 . S
Tb460 O465 2.374 . S
Tb460 O473 2.343 . S
Tb460 O475 2.353 . S
Tb460 O477 2.427 . S
Tb460 O478 2.513 . S
C461 O465 1.251 . S
C461 O467 1.263 . S
Tb462 O464 2.343 . S
Tb462 O467 2.353 . S
Tb462 O470 2.427 . S
Tb462 O471 2.513 . S
Tb462 O472 2.453 . S
Tb462 O473 2.596 . S
Tb462 O474 2.374 . S
O463 Tb460 2.453 . S
O463 C479 1.245 . S
O464 Tb460 2.596 . S
O464 Tb462 2.343 . S
O464 C479 1.259 . S
O465 Tb460 2.374 . S
O465 C461 1.251 . S
C466 O470 1.275 . S
C466 O471 1.246 . S
O467 C461 1.263 . S
O467 Tb462 2.353 . S
C468 O472 1.245 . S
C468 O473 1.259 . S
C469 O474 1.250 . S
C469 O475 1.263 . S
O470 Tb462 2.427 . S
O470 C466 1.275 . S
O471 Tb462 2.513 . S
O471 C466 1.246 . S
O472 Tb462 2.453 . S
O472 C468 1.245 . S
O473 Tb460 2.343 . S
O473 Tb462 2.596 . S
O473 C468 1.259 . S
O474 Tb462 2.374 . S
O474 C469 1.250 . S
O475 Tb460 2.353 . S
O475 C469 1.263 . S
C476 O477 1.275 . S
C476 O478 1.246 . S
O477 Tb460 2.427 . S
O477 C476 1.275 . S
O478 Tb460 2.513 . S
O478 C476 1.246 . S
C479 O463 1.245 . S
C479 O464 1.259 . S
Tb480 O483 2.453 . S
Tb480 O484 2.596 . S
Tb480 O485 2.374 . S
Tb480 O493 2.343 . S
Tb480 O495 2.353 . S
Tb480 O497 2.427 . S
Tb480 O498 2.513 . S
C481 O485 1.251 . S
C481 O487 1.263 . S
Tb482 O484 2.343 . S
Tb482 O487 2.353 . S
Tb482 O490 2.427 . S
Tb482 O491 2.513 . S
Tb482 O492 2.453 . S
Tb482 O493 2.596 . S
Tb482 O494 2.374 . S
O483 Tb480 2.453 . S
O483 C499 1.245 . S
O484 Tb480 2.596 . S
O484 Tb482 2.343 . S
O484 C499 1.259 . S
O485 Tb480 2.374 . S
O485 C481 1.251 . S
C486 O490 1.275 . S
C486 O491 1.246 . S
O487 C481 1.263 . S
O487 Tb482 2.353 . S
C488 O492 1.245 . S
C488 O493 1.259 . S
C489 O494 1.250 . S
C489 O495 1.263 . S
O490 Tb482 2.427 . S
O490 C486 1.275 . S
O491 Tb482 2.513 . S
O491 C486 1.246 . S
O492 Tb482 2.453 . S
O492 C488 1.245 . S
O493 Tb480 2.343 . S
O493 Tb482 2.596 . S
O493 C488 1.259 . S
O494 Tb482 2.374 . S
O494 C489 1.250 . S
O495 Tb480 2.353 . S
O495 C489 1.263 . S
C496 O497 1.275 . S
C496 O498 1.246 . S
O497 Tb480 2.427 . S
O497 C496 1.275 . S
O498 Tb480 2.513 . S
O498 C496 1.246 . S
C499 O483 1.245 . S
C499 O484 1.259 . S
Tb500 O503 2.453 . S
Tb500 O504 2.596 . S
Tb500 O505 2.374 . S
Tb500 O513 2.343 . S
Tb500 O515 2.353 . S
Tb500 O517 2.427 . S
Tb500 O518 2.513 . S
C501 O505 1.251 . S
C501 O507 1.263 . S
Tb502 O504 2.343 . S
Tb502 O507 2.353 . S
Tb502 O510 2.427 . S
Tb502 O511 2.513 . S
Tb502 O512 2.453 . S
Tb502 O513 2.596 . S
Tb502 O514 2.374 . S
O503 Tb500 2.453 . S
O503 C519 1.245 . S
O504 Tb500 2.596 . S
O504 Tb502 2.343 . S
O504 C519 1.259 . S
O505 Tb500 2.374 . S
O505 C501 1.251 . S
C506 O510 1.275 . S
C506 O511 1.246 . S
O507 C501 1.263 . S
O507 Tb502 2.353 . S
C508 O512 1.245 . S
C508 O513 1.259 . S
C509 O514 1.250 . S
C509 O515 1.263 . S
O510 Tb502 2.427 . S
O510 C506 1.275 . S
O511 Tb502 2.513 . S
O511 C506 1.246 . S
O512 Tb502 2.453 . S
O512 C508 1.245 . S
O513 Tb500 2.343 . S
O513 Tb502 2.596 . S
O513 C508 1.259 . S
O514 Tb502 2.374 . S
O514 C509 1.250 . S
O515 Tb500 2.353 . S
O515 C509 1.263 . S
C516 O517 1.275 . S
C516 O518 1.246 . S
O517 Tb500 2.427 . S
O517 C516 1.275 . S
O518 Tb500 2.513 . S
O518 C516 1.246 . S
C519 O503 1.245 . S
C519 O504 1.259 . S
Tb520 O523 2.453 . S
Tb520 O524 2.596 . S
Tb520 O525 2.374 . S
Tb520 O533 2.343 . S
Tb520 O535 2.353 . S
Tb520 O537 2.427 . S
Tb520 O538 2.513 . S
C521 O525 1.251 . S
C521 O527 1.263 . S
Tb522 O524 2.343 . S
Tb522 O527 2.353 . S
Tb522 O530 2.427 . S
Tb522 O531 2.513 . S
Tb522 O532 2.453 . S
Tb522 O533 2.596 . S
Tb522 O534 2.374 . S
O523 Tb520 2.453 . S
O523 C539 1.245 . S
O524 Tb520 2.596 . S
O524 Tb522 2.343 . S
O524 C539 1.259 . S
O525 Tb520 2.374 . S
O525 C521 1.251 . S
C526 O530 1.275 . S
C526 O531 1.246 . S
O527 C521 1.263 . S
O527 Tb522 2.353 . S
C528 O532 1.245 . S
C528 O533 1.259 . S
C529 O534 1.250 . S
C529 O535 1.263 . S
O530 Tb522 2.427 . S
O530 C526 1.275 . S
O531 Tb522 2.513 . S
O531 C526 1.246 . S
O532 Tb522 2.453 . S
O532 C528 1.245 . S
O533 Tb520 2.343 . S
O533 Tb522 2.596 . S
O533 C528 1.259 . S
O534 Tb522 2.374 . S
O534 C529 1.250 . S
O535 Tb520 2.353 . S
O535 C529 1.263 . S
C536 O537 1.275 . S
C536 O538 1.246 . S
O537 Tb520 2.427 . S
O537 C536 1.275 . S
O538 Tb520 2.513 . S
O538 C536 1.246 . S
C539 O523 1.245 . S
C539 O524 1.259 . S
Tb540 O543 2.453 . S
Tb540 O544 2.596 . S
Tb540 O545 2.374 . S
Tb540 O553 2.343 . S
Tb540 O555 2.353 . S
Tb540 O557 2.427 . S
Tb540 O558 2.513 . S
C541 O545 1.251 . S
C541 O547 1.263 . S
Tb542 O544 2.343 . S
Tb542 O547 2.353 . S
Tb542 O550 2.427 . S
Tb542 O551 2.513 . S
Tb542 O552 2.453 . S
Tb542 O553 2.596 . S
Tb542 O554 2.374 . S
O543 Tb540 2.453 . S
O543 C559 1.245 . S
O544 Tb540 2.596 . S
O544 Tb542 2.343 . S
O544 C559 1.259 . S
O545 Tb540 2.374 . S
O545 C541 1.251 . S
C546 O550 1.275 . S
C546 O551 1.246 . S
O547 C541 1.263 . S
O547 Tb542 2.353 . S
C548 O552 1.245 . S
C548 O553 1.259 . S
C549 O554 1.250 . S
C549 O555 1.263 . S
O550 Tb542 2.427 . S
O550 C546 1.275 . S
O551 Tb542 2.513 . S
O551 C546 1.246 . S
O552 Tb542 2.453 . S
O552 C548 1.245 . S
O553 Tb540 2.343 . S
O553 Tb542 2.596 . S
O553 C548 1.259 . S
O554 Tb542 2.374 . S
O554 C549 1.250 . S
O555 Tb540 2.353 . S
O555 C549 1.263 . S
C556 O557 1.275 . S
C556 O558 1.246 . S
O557 Tb540 2.427 . S
O557 C556 1.275 . S
O558 Tb540 2.513 . S
O558 C556 1.246 . S
C559 O543 1.245 . S
C559 O544 1.259 . S
Tb560 O563 2.453 . S
Tb560 O564 2.596 . S
Tb560 O565 2.374 . S
Tb560 O573 2.343 . S
Tb560 O575 2.353 . S
Tb560 O577 2.427 . S
Tb560 O578 2.513 . S
C561 O565 1.251 . S
C561 O567 1.263 . S
Tb562 O564 2.343 . S
Tb562 O567 2.353 . S
Tb562 O570 2.427 . S
Tb562 O571 2.513 . S
Tb562 O572 2.453 . S
Tb562 O573 2.596 . S
Tb562 O574 2.374 . S
O563 Tb560 2.453 . S
O563 C579 1.245 . S
O564 Tb560 2.596 . S
O564 Tb562 2.343 . S
O564 C579 1.259 . S
O565 Tb560 2.374 . S
O565 C561 1.251 . S
C566 O570 1.275 . S
C566 O571 1.246 . S
O567 C561 1.263 . S
O567 Tb562 2.353 . S
C568 O572 1.245 . S
C568 O573 1.259 . S
C569 O574 1.250 . S
C569 O575 1.263 . S
O570 Tb562 2.427 . S
O570 C566 1.275 . S
O571 Tb562 2.513 . S
O571 C566 1.246 . S
O572 Tb562 2.453 . S
O572 C568 1.245 . S
O573 Tb560 2.343 . S
O573 Tb562 2.596 . S
O573 C568 1.259 . S
O574 Tb562 2.374 . S
O574 C569 1.250 . S
O575 Tb560 2.353 . S
O575 C569 1.263 . S
C576 O577 1.275 . S
C576 O578 1.246 . S
O577 Tb560 2.427 . S
O577 C576 1.275 . S
O578 Tb560 2.513 . S
O578 C576 1.246 . S
C579 O563 1.245 . S
C579 O564 1.259 . S
Tb580 O583 2.453 . S
Tb580 O584 2.596 . S
Tb580 O585 2.374 . S
Tb580 O593 2.343 . S
Tb580 O595 2.353 . S
Tb580 O597 2.427 . S
Tb580 O598 2.513 . S
C581 O585 1.251 . S
C581 O587 1.263 . S
Tb582 O584 2.343 . S
Tb582 O587 2.353 . S
Tb582 O590 2.427 . S
Tb582 O591 2.513 . S
Tb582 O592 2.453 . S
Tb582 O593 2.596 . S
Tb582 O594 2.374 . S
O583 Tb580 2.453 . S
O583 C599 1.245 . S
O584 Tb580 2.596 . S
O584 Tb582 2.343 . S
O584 C599 1.259 . S
O585 Tb580 2.374 . S
O585 C581 1.251 . S
C586 O590 1.275 . S
C586 O591 1.246 . S
O587 C581 1.263 . S
O587 Tb582 2.353 . S
C588 O592 1.245 . S
C588 O593 1.259 . S
C589 O594 1.250 . S
C589 O595 1.263 . S
O590 Tb582 2.427 . S
O590 C586 1.275 . S
O591 Tb582 2.513 . S
O591 C586 1.246 . S
O592 Tb582 2.453 . S
O592 C588 1.245 . S
O593 Tb580 2.343 . S
O593 Tb582 2.596 . S
O593 C588 1.259 . S
O594 Tb582 2.374 . S
O594 C589 1.250 . S
O595 Tb580 2.353 . S
O595 C589 1.263 . S
C596 O597 1.275 . S
C596 O598 1.246 . S
O597 Tb580 2.427 . S
O597 C596 1.275 . S
O598 Tb580 2.513 . S
O598 C596 1.246 . S
C599 O583 1.245 . S
C599 O584 1.259 . S
Tb600 O603 2.453 . S
Tb600 O604 2.596 . S
Tb600 O605 2.374 . S
Tb600 O613 2.343 . S
Tb600 O615 2.353 . S
Tb600 O617 2.427 . S
Tb600 O618 2.513 . S
C601 O605 1.251 . S
C601 O607 1.263 . S
Tb602 O604 2.343 . S
Tb602 O607 2.353 . S
Tb602 O610 2.427 . S
Tb602 O611 2.513 . S
Tb602 O612 2.453 . S
Tb602 O613 2.596 . S
Tb602 O614 2.374 . S
O603 Tb600 2.453 . S
O603 C619 1.245 . S
O604 Tb600 2.596 . S
O604 Tb602 2.343 . S
O604 C619 1.259 . S
O605 Tb600 2.374 . S
O605 C601 1.251 . S
C606 O610 1.275 . S
C606 O611 1.246 . S
O607 C601 1.263 . S
O607 Tb602 2.353 . S
C608 O612 1.245 . S
C608 O613 1.259 . S
C609 O614 1.250 . S
C609 O615 1.263 . S
O610 Tb602 2.427 . S
O610 C606 1.275 . S
O611 Tb602 2.513 . S
O611 C606 1.246 . S
O612 Tb602 2.453 . S
O612 C608 1.245 . S
O613 Tb600 2.343 . S
O613 Tb602 2.596 . S
O613 C608 1.259 . S
O614 Tb602 2.374 . S
O614 C609 1.250 . S
O615 Tb600 2.353 . S
O615 C609 1.263 . S
C616 O617 1.275 . S
C616 O618 1.246 . S
O617 Tb600 2.427 . S
O617 C616 1.275 . S
O618 Tb600 2.513 . S
O618 C616 1.246 . S
C619 O603 1.245 . S
C619 O604 1.259 . S
Tb620 O623 2.453 . S
Tb620 O624 2.596 . S
Tb620 O625 2.374 . S
Tb620 O633 2.343 . S
Tb620 O635 2.353 . S
Tb620 O637 2.427 . S
Tb620 O638 2.513 . S
C621 O625 1.251 . S
C621 O627 1.263 . S
Tb622 O624 2.343 . S
Tb622 O627 2.353 . S
Tb622 O630 2.427 . S
Tb622 O631 2.513 . S
Tb622 O632 2.453 . S
Tb622 O633 2.596 . S
Tb622 O634 2.374 . S
O623 Tb620 2.453 . S
O623 C639 1.245 . S
O624 Tb620 2.596 . S
O624 Tb622 2.343 . S
O624 C639 1.259 . S
O625 Tb620 2.374 . S
O625 C621 1.251 . S
C626 O630 1.275 . S
C626 O631 1.246 . S
O627 C621 1.263 . S
O627 Tb622 2.353 . S
C628 O632 1.245 . S
C628 O633 1.259 . S
C629 O634 1.250 . S
C629 O635 1.263 . S
O630 Tb622 2.427 . S
O630 C626 1.275 . S
O631 Tb622 2.513 . S
O631 C626 1.246 . S
O632 Tb622 2.453 . S
O632 C628 1.245 . S
O633 Tb620 2.343 . S
O633 Tb622 2.596 . S
O633 C628 1.259 . S
O634 Tb622 2.374 . S
O634 C629 1.250 . S
O635 Tb620 2.353 . S
O635 C629 1.263 . S
C636 O637 1.275 . S
C636 O638 1.246 . S
O637 Tb620 2.427 . S
O637 C636 1.275 . S
O638 Tb620 2.513 . S
O638 C636 1.246 . S
C639 O623 1.245 . S
C639 O624 1.259 . S
H640 C646 0.930 . S
H641 C649 0.930 . S
H642 C650 0.930 . S
H643 C651 0.930 . S
H644 C654 0.930 . S
H645 C655 0.930 . S
C646 H640 0.930 . S
C646 C647 1.355 . S
C646 C648 1.415 . S
C647 C646 1.355 . S
C647 C649 1.419 . S
C648 C646 1.415 . S
C648 C653 1.425 . S
C648 C655 1.409 . S
C649 H641 0.930 . S
C649 C647 1.419 . S
C649 C650 1.362 . S
C650 H642 0.930 . S
C650 C649 1.362 . S
C650 C653 1.409 . S
C651 H643 0.930 . S
C651 C652 1.355 . S
C651 C653 1.415 . S
C652 C651 1.355 . S
C652 C654 1.419 . S
C653 C648 1.425 . S
C653 C650 1.409 . S
C653 C651 1.415 . S
C654 H644 0.930 . S
C654 C652 1.419 . S
C654 C655 1.362 . S
C655 H645 0.930 . S
C655 C648 1.409 . S
C655 C654 1.362 . S
H656 C662 0.930 . S
H657 C665 0.930 . S
H658 C666 0.930 . S
H659 C667 0.930 . S
H660 C670 0.930 . S
H661 C671 0.930 . S
C662 H656 0.930 . S
C662 C663 1.355 . S
C662 C664 1.415 1_455 S
C663 C662 1.355 . S
C663 C665 1.419 . S
C664 C662 1.415 1_655 S
C664 C669 1.426 . S
C664 C671 1.409 . S
C665 H657 0.930 . S
C665 C663 1.419 . S
C665 C666 1.362 . S
C666 H658 0.930 . S
C666 C665 1.362 . S
C666 C669 1.405 1_455 S
C667 H659 0.930 . S
C667 C668 1.355 . S
C667 C669 1.418 . S
C668 C667 1.355 . S
C668 C670 1.419 . S
C669 C664 1.426 . S
C669 C666 1.405 1_655 S
C669 C667 1.418 . S
C670 H660 0.930 . S
C670 C668 1.419 . S
C670 C671 1.362 . S
C671 H661 0.930 . S
C671 C664 1.409 . S
C671 C670 1.362 . S
H672 C678 0.930 . S
H673 C681 0.930 . S
H674 C682 0.930 . S
H675 C683 0.930 . S
H676 C686 0.930 . S
H677 C687 0.930 . S
C678 H672 0.930 . S
C678 C679 1.355 . S
C678 C680 1.415 . S
C679 C678 1.355 . S
C679 C681 1.419 . S
C680 C678 1.415 . S
C680 C685 1.425 . S
C680 C687 1.409 . S
C681 H673 0.930 . S
C681 C679 1.419 . S
C681 C682 1.362 . S
C682 H674 0.930 . S
C682 C681 1.362 . S
C682 C685 1.409 . S
C683 H675 0.930 . S
C683 C684 1.355 . S
C683 C685 1.415 . S
C684 C683 1.355 . S
C684 C686 1.419 . S
C685 C680 1.425 . S
C685 C682 1.409 . S
C685 C683 1.415 . S
C686 H676 0.930 . S
C686 C684 1.419 . S
C686 C687 1.362 . S
C687 H677 0.930 . S
C687 C680 1.409 . S
C687 C686 1.362 . S
H688 C694 0.930 . S
H689 C697 0.930 . S
H690 C698 0.930 . S
H691 C699 0.930 . S
H692 C702 0.930 . S
H693 C703 0.930 . S
C694 H688 0.930 . S
C694 C695 1.355 . S
C694 C696 1.415 . S
C695 C694 1.355 . S
C695 C697 1.419 . S
C696 C694 1.415 . S
C696 C701 1.425 . S
C696 C703 1.409 . S
C697 H689 0.930 . S
C697 C695 1.419 . S
C697 C698 1.362 . S
C698 H690 0.930 . S
C698 C697 1.362 . S
C698 C701 1.409 . S
C699 H691 0.930 . S
C699 C700 1.355 . S
C699 C701 1.415 . S
C700 C699 1.355 . S
C700 C702 1.419 . S
C701 C696 1.425 . S
C701 C698 1.409 . S
C701 C699 1.415 . S
C702 H692 0.930 . S
C702 C700 1.419 . S
C702 C703 1.362 . S
C703 H693 0.930 . S
C703 C696 1.409 . S
C703 C702 1.362 . S
H704 C710 0.930 . S
H705 C713 0.930 . S
H706 C714 0.930 . S
H707 C715 0.930 . S
H708 C718 0.930 . S
H709 C719 0.930 . S
C710 H704 0.930 . S
C710 C711 1.355 . S
C710 C712 1.415 . S
C711 C710 1.355 . S
C711 C713 1.419 . S
C712 C710 1.415 . S
C712 C717 1.425 . S
C712 C719 1.409 . S
C713 H705 0.930 . S
C713 C711 1.419 . S
C713 C714 1.362 . S
C714 H706 0.930 . S
C714 C713 1.362 . S
C714 C717 1.409 . S
C715 H707 0.930 . S
C715 C716 1.355 . S
C715 C717 1.415 . S
C716 C715 1.355 . S
C716 C718 1.419 . S
C717 C712 1.425 . S
C717 C714 1.409 . S
C717 C715 1.415 . S
C718 H708 0.930 . S
C718 C716 1.419 . S
C718 C719 1.362 . S
C719 H709 0.930 . S
C719 C712 1.409 . S
C719 C718 1.362 . S
H720 C726 0.930 . S
H721 C729 0.930 . S
H722 C730 0.930 . S
H723 C731 0.930 . S
H724 C734 0.930 . S
H725 C735 0.930 . S
C726 H720 0.930 . S
C726 C727 1.355 . S
C726 C728 1.415 . S
C727 C726 1.355 . S
C727 C729 1.419 . S
C728 C726 1.415 . S
C728 C733 1.425 . S
C728 C735 1.409 . S
C729 H721 0.930 . S
C729 C727 1.419 . S
C729 C730 1.362 . S
C730 H722 0.930 . S
C730 C729 1.362 . S
C730 C733 1.409 . S
C731 H723 0.930 . S
C731 C732 1.355 . S
C731 C733 1.415 . S
C732 C731 1.355 . S
C732 C734 1.419 . S
C733 C728 1.425 . S
C733 C730 1.409 . S
C733 C731 1.415 . S
C734 H724 0.930 . S
C734 C732 1.419 . S
C734 C735 1.362 . S
C735 H725 0.930 . S
C735 C728 1.409 . S
C735 C734 1.362 . S
H736 C742 0.930 . S
H737 C745 0.930 . S
H738 C746 0.930 . S
H739 C747 0.930 . S
H740 C750 0.930 . S
H741 C751 0.930 . S
C742 H736 0.930 . S
C742 C743 1.355 . S
C742 C744 1.415 . S
C743 C742 1.355 . S
C743 C745 1.419 . S
C744 C742 1.415 . S
C744 C749 1.425 . S
C744 C751 1.409 . S
C745 H737 0.930 . S
C745 C743 1.419 . S
C745 C746 1.362 . S
C746 H738 0.930 . S
C746 C745 1.362 . S
C746 C749 1.409 . S
C747 H739 0.930 . S
C747 C748 1.355 . S
C747 C749 1.415 . S
C748 C747 1.355 . S
C748 C750 1.419 . S
C749 C744 1.425 . S
C749 C746 1.409 . S
C749 C747 1.415 . S
C750 H740 0.930 . S
C750 C748 1.419 . S
C750 C751 1.362 . S
C751 H741 0.930 . S
C751 C744 1.409 . S
C751 C750 1.362 . S
H752 C758 0.930 . S
H753 C761 0.930 . S
H754 C762 0.930 . S
H755 C763 0.930 . S
H756 C766 0.930 . S
H757 C767 0.930 . S
C758 H752 0.930 . S
C758 C759 1.355 . S
C758 C760 1.415 1_455 S
C759 C758 1.355 . S
C759 C761 1.419 . S
C760 C758 1.415 1_655 S
C760 C765 1.425 . S
C760 C767 1.409 . S
C761 H753 0.930 . S
C761 C759 1.419 . S
C761 C762 1.362 . S
C762 H754 0.930 . S
C762 C761 1.362 . S
C762 C765 1.409 1_455 S
C763 H755 0.930 . S
C763 C764 1.355 . S
C763 C765 1.414 . S
C764 C763 1.355 . S
C764 C766 1.419 . S
C765 C760 1.425 . S
C765 C762 1.409 1_655 S
C765 C763 1.414 . S
C766 H756 0.930 . S
C766 C764 1.419 . S
C766 C767 1.362 . S
C767 H757 0.930 . S
C767 C760 1.409 . S
C767 C766 1.362 . S
H768 C774 0.930 . S
H769 C777 0.930 . S
H770 C778 0.930 . S
H771 C779 0.930 . S
H772 C782 0.930 . S
H773 C783 0.930 . S
C774 H768 0.930 . S
C774 C775 1.355 . S
C774 C776 1.415 . S
C775 C774 1.355 . S
C775 C777 1.419 . S
C776 C774 1.415 . S
C776 C781 1.425 . S
C776 C783 1.409 . S
C777 H769 0.930 . S
C777 C775 1.419 . S
C777 C778 1.362 . S
C778 H770 0.930 . S
C778 C777 1.362 . S
C778 C781 1.409 . S
C779 H771 0.930 . S
C779 C780 1.355 . S
C779 C781 1.415 . S
C780 C779 1.355 . S
C780 C782 1.419 . S
C781 C776 1.425 . S
C781 C778 1.409 . S
C781 C779 1.415 . S
C782 H772 0.930 . S
C782 C780 1.419 . S
C782 C783 1.362 . S
C783 H773 0.930 . S
C783 C776 1.409 . S
C783 C782 1.362 . S
H784 C790 0.930 . S
H785 C793 0.930 . S
H786 C794 0.930 . S
H787 C795 0.930 . S
H788 C798 0.930 . S
H789 C799 0.930 . S
C790 H784 0.930 . S
C790 C791 1.355 . S
C790 C792 1.415 1_655 S
C791 C790 1.355 . S
C791 C793 1.419 . S
C792 C790 1.415 1_455 S
C792 C797 1.425 . S
C792 C799 1.409 . S
C793 H785 0.930 . S
C793 C791 1.419 . S
C793 C794 1.362 . S
C794 H786 0.930 . S
C794 C793 1.362 . S
C794 C797 1.409 1_655 S
C795 H787 0.930 . S
C795 C796 1.355 . S
C795 C797 1.415 . S
C796 C795 1.355 . S
C796 C798 1.419 . S
C797 C792 1.425 . S
C797 C794 1.409 1_455 S
C797 C795 1.415 . S
C798 H788 0.930 . S
C798 C796 1.419 . S
C798 C799 1.362 . S
C799 H789 0.930 . S
C799 C792 1.409 . S
C799 C798 1.362 . S
H800 C806 0.930 . S
H801 C809 0.930 . S
H802 C810 0.930 . S
H803 C811 0.930 . S
H804 C814 0.930 . S
H805 C815 0.930 . S
C806 H800 0.930 . S
C806 C807 1.355 . S
C806 C808 1.415 . S
C807 C806 1.355 . S
C807 C809 1.419 . S
C808 C806 1.415 . S
C808 C813 1.425 . S
C808 C815 1.409 . S
C809 H801 0.930 . S
C809 C807 1.419 . S
C809 C810 1.362 . S
C810 H802 0.930 . S
C810 C809 1.362 . S
C810 C813 1.409 . S
C811 H803 0.930 . S
C811 C812 1.355 . S
C811 C813 1.415 . S
C812 C811 1.355 . S
C812 C814 1.419 . S
C813 C808 1.425 . S
C813 C810 1.409 . S
C813 C811 1.415 . S
C814 H804 0.930 . S
C814 C812 1.419 . S
C814 C815 1.362 . S
C815 H805 0.930 . S
C815 C808 1.409 . S
C815 C814 1.362 . S
H816 C822 0.930 . S
H817 C825 0.930 . S
H818 C826 0.930 . S
H819 C827 0.930 . S
H820 C830 0.930 . S
H821 C831 0.930 . S
C822 H816 0.930 . S
C822 C823 1.355 . S
C822 C824 1.415 . S
C823 C822 1.355 . S
C823 C825 1.419 . S
C824 C822 1.415 . S
C824 C829 1.425 . S
C824 C831 1.409 . S
C825 H817 0.930 . S
C825 C823 1.419 . S
C825 C826 1.362 . S
C826 H818 0.930 . S
C826 C825 1.362 . S
C826 C829 1.409 . S
C827 H819 0.930 . S
C827 C828 1.355 . S
C827 C829 1.415 . S
C828 C827 1.355 . S
C828 C830 1.419 . S
C829 C824 1.425 . S
C829 C826 1.409 . S
C829 C827 1.415 . S
C830 H820 0.930 . S
C830 C828 1.419 . S
C830 C831 1.362 . S
C831 H821 0.930 . S
C831 C824 1.409 . S
C831 C830 1.362 . S
H832 C838 0.930 . S
H833 C841 0.930 . S
H834 C842 0.930 . S
H835 C843 0.930 . S
H836 C846 0.930 . S
H837 C847 0.930 . S
C838 H832 0.930 . S
C838 C839 1.355 . S
C838 C840 1.415 . S
C839 C838 1.355 . S
C839 C841 1.419 . S
C840 C838 1.415 . S
C840 C845 1.425 . S
C840 C847 1.409 . S
C841 H833 0.930 . S
C841 C839 1.419 . S
C841 C842 1.362 . S
C842 H834 0.930 . S
C842 C841 1.362 . S
C842 C845 1.409 . S
C843 H835 0.930 . S
C843 C844 1.355 . S
C843 C845 1.415 . S
C844 C843 1.355 . S
C844 C846 1.419 . S
C845 C840 1.425 . S
C845 C842 1.409 . S
C845 C843 1.415 . S
C846 H836 0.930 . S
C846 C844 1.419 . S
C846 C847 1.362 . S
C847 H837 0.930 . S
C847 C840 1.409 . S
C847 C846 1.362 . S
H848 C854 0.930 . S
H849 C857 0.930 . S
H850 C858 0.930 . S
H851 C859 0.930 . S
H852 C862 0.930 . S
H853 C863 0.930 . S
C854 H848 0.930 . S
C854 C855 1.355 . S
C854 C856 1.415 . S
C855 C854 1.355 . S
C855 C857 1.419 . S
C856 C854 1.415 . S
C856 C861 1.425 . S
C856 C863 1.409 . S
C857 H849 0.930 . S
C857 C855 1.419 . S
C857 C858 1.362 . S
C858 H850 0.930 . S
C858 C857 1.362 . S
C858 C861 1.409 . S
C859 H851 0.930 . S
C859 C860 1.355 . S
C859 C861 1.415 . S
C860 C859 1.355 . S
C860 C862 1.419 . S
C861 C856 1.425 . S
C861 C858 1.409 . S
C861 C859 1.415 . S
C862 H852 0.930 . S
C862 C860 1.419 . S
C862 C863 1.362 . S
C863 H853 0.930 . S
C863 C856 1.409 . S
C863 C862 1.362 . S
H864 C870 0.930 . S
H865 C873 0.930 . S
H866 C874 0.930 . S
H867 C875 0.930 . S
H868 C878 0.930 . S
H869 C879 0.930 . S
C870 H864 0.930 . S
C870 C871 1.355 . S
C870 C872 1.415 . S
C871 C870 1.355 . S
C871 C873 1.419 . S
C872 C870 1.415 . S
C872 C877 1.425 . S
C872 C879 1.409 . S
C873 H865 0.930 . S
C873 C871 1.419 . S
C873 C874 1.362 . S
C874 H866 0.930 . S
C874 C873 1.362 . S
C874 C877 1.409 . S
C875 H867 0.930 . S
C875 C876 1.355 . S
C875 C877 1.415 . S
C876 C875 1.355 . S
C876 C878 1.419 . S
C877 C872 1.425 . S
C877 C874 1.409 . S
C877 C875 1.415 . S
C878 H868 0.930 . S
C878 C876 1.419 . S
C878 C879 1.362 . S
C879 H869 0.930 . S
C879 C872 1.409 . S
C879 C878 1.362 . S
H880 C886 0.930 . S
H881 C889 0.930 . S
H882 C890 0.930 . S
H883 C891 0.930 . S
H884 C894 0.930 . S
H885 C895 0.930 . S
C886 H880 0.930 . S
C886 C887 1.355 . S
C886 C888 1.415 . S
C887 C886 1.355 . S
C887 C889 1.419 . S
C888 C886 1.415 . S
C888 C893 1.430 . S
C888 C895 1.409 1_455 S
C889 H881 0.930 . S
C889 C887 1.419 . S
C889 C890 1.362 . S
C890 H882 0.930 . S
C890 C889 1.362 . S
C890 C893 1.421 . S
C891 H883 0.930 . S
C891 C892 1.355 . S
C891 C893 1.398 1_655 S
C892 C891 1.355 . S
C892 C894 1.419 . S
C893 C888 1.430 . S
C893 C890 1.421 . S
C893 C891 1.398 1_455 S
C894 H884 0.930 . S
C894 C892 1.419 . S
C894 C895 1.362 . S
C895 H885 0.930 . S
C895 C888 1.409 1_655 S
C895 C894 1.362 . S
H896 C902 0.930 . S
H897 C905 0.930 . S
H898 C906 0.930 . S
H899 C907 0.930 . S
H900 C910 0.930 . S
H901 C911 0.930 . S
C902 H896 0.930 . S
C902 C903 1.355 . S
C902 C904 1.415 . S
C903 C902 1.355 . S
C903 C905 1.419 . S
C904 C902 1.415 . S
C904 C909 1.425 . S
C904 C911 1.409 . S
C905 H897 0.930 . S
C905 C903 1.419 . S
C905 C906 1.362 . S
C906 H898 0.930 . S
C906 C905 1.362 . S
C906 C909 1.409 . S
C907 H899 0.930 . S
C907 C908 1.355 . S
C907 C909 1.415 . S
C908 C907 1.355 . S
C908 C910 1.419 . S
C909 C904 1.425 . S
C909 C906 1.409 . S
C909 C907 1.415 . S
C910 H900 0.930 . S
C910 C908 1.419 . S
C910 C911 1.362 . S
C911 H901 0.930 . S
C911 C904 1.409 . S
C911 C910 1.362 . S
H912 C918 0.930 . S
H913 C921 0.930 . S
H914 C922 0.930 . S
H915 C923 0.930 . S
H916 C926 0.930 . S
H917 C927 0.930 . S
C918 H912 0.930 . S
C918 C919 1.355 . S
C918 C920 1.415 . S
C919 C918 1.355 . S
C919 C921 1.419 . S
C920 C918 1.415 . S
C920 C925 1.425 . S
C920 C927 1.409 . S
C921 H913 0.930 . S
C921 C919 1.419 . S
C921 C922 1.362 . S
C922 H914 0.930 . S
C922 C921 1.362 . S
C922 C925 1.409 . S
C923 H915 0.930 . S
C923 C924 1.355 . S
C923 C925 1.415 . S
C924 C923 1.355 . S
C924 C926 1.419 . S
C925 C920 1.425 . S
C925 C922 1.409 . S
C925 C923 1.415 . S
C926 H916 0.930 . S
C926 C924 1.419 . S
C926 C927 1.362 . S
C927 H917 0.930 . S
C927 C920 1.409 . S
C927 C926 1.362 . S
H928 C934 0.930 . S
H929 C937 0.930 . S
H930 C938 0.930 . S
H931 C939 0.930 . S
H932 C942 0.930 . S
H933 C943 0.930 . S
C934 H928 0.930 . S
C934 C935 1.355 . S
C934 C936 1.415 . S
C935 C934 1.355 . S
C935 C937 1.419 . S
C936 C934 1.415 . S
C936 C941 1.425 . S
C936 C943 1.409 . S
C937 H929 0.930 . S
C937 C935 1.419 . S
C937 C938 1.362 . S
C938 H930 0.930 . S
C938 C937 1.362 . S
C938 C941 1.409 . S
C939 H931 0.930 . S
C939 C940 1.355 . S
C939 C941 1.415 . S
C940 C939 1.355 . S
C940 C942 1.419 . S
C941 C936 1.425 . S
C941 C938 1.409 . S
C941 C939 1.415 . S
C942 H932 0.930 . S
C942 C940 1.419 . S
C942 C943 1.362 . S
C943 H933 0.930 . S
C943 C936 1.409 . S
C943 C942 1.362 . S
H944 C950 0.930 . S
H945 C953 0.930 . S
H946 C954 0.930 . S
H947 C955 0.930 . S
H948 C958 0.930 . S
H949 C959 0.930 . S
C950 H944 0.930 . S
C950 C951 1.355 . S
C950 C952 1.415 1_655 S
C951 C950 1.355 . S
C951 C953 1.419 . S
C952 C950 1.415 1_455 S
C952 C957 1.428 . S
C952 C959 1.409 . S
C953 H945 0.930 . S
C953 C951 1.419 . S
C953 C954 1.362 . S
C954 H946 0.930 . S
C954 C953 1.362 . S
C954 C957 1.399 1_655 S
C955 H947 0.930 . S
C955 C956 1.355 . S
C955 C957 1.422 . S
C956 C955 1.355 . S
C956 C958 1.419 . S
C957 C952 1.428 . S
C957 C954 1.399 1_455 S
C957 C955 1.422 . S
C958 H948 0.930 . S
C958 C956 1.419 . S
C958 C959 1.362 . S
C959 H949 0.930 . S
C959 C952 1.409 . S
C959 C958 1.362 . S
H960 C966 0.930 . S
H961 C969 0.930 . S
H962 C970 0.930 . S
H963 C971 0.930 . S
H964 C974 0.930 . S
H965 C975 0.930 . S
C966 H960 0.930 . S
C966 C967 1.355 . S
C966 C968 1.415 . S
C967 C966 1.355 . S
C967 C969 1.419 . S
C968 C966 1.415 . S
C968 C973 1.425 . S
C968 C975 1.409 . S
C969 H961 0.930 . S
C969 C967 1.419 . S
C969 C970 1.362 . S
C970 H962 0.930 . S
C970 C969 1.362 . S
C970 C973 1.409 . S
C971 H963 0.930 . S
C971 C972 1.355 . S
C971 C973 1.415 . S
C972 C971 1.355 . S
C972 C974 1.419 . S
C973 C968 1.425 . S
C973 C970 1.409 . S
C973 C971 1.415 . S
C974 H964 0.930 . S
C974 C972 1.419 . S
C974 C975 1.362 . S
C975 H965 0.930 . S
C975 C968 1.409 . S
C975 C974 1.362 . S
H976 C982 0.930 . S
H977 C985 0.930 . S
H978 C986 0.930 . S
H979 C987 0.930 . S
H980 C990 0.930 . S
H981 C991 0.930 . S
C982 H976 0.930 . S
C982 C983 1.355 . S
C982 C984 1.415 . S
C983 C982 1.355 . S
C983 C985 1.419 . S
C984 C982 1.415 . S
C984 C989 1.425 1_455 S
C984 C991 1.409 . S
C985 H977 0.930 . S
C985 C983 1.419 . S
C985 C986 1.362 1_455 S
C986 H978 0.930 . S
C986 C985 1.362 1_655 S
C986 C989 1.409 . S
C987 H979 0.930 . S
C987 C988 1.355 . S
C987 C989 1.415 . S
C988 C987 1.355 . S
C988 C990 1.419 . S
C989 C984 1.425 1_655 S
C989 C986 1.409 . S
C989 C987 1.415 . S
C990 H980 0.930 . S
C990 C988 1.419 . S
C990 C991 1.362 1_655 S
C991 H981 0.930 . S
C991 C984 1.409 . S
C991 C990 1.362 1_455 S
H992 C998 0.930 . S
H993 C1001 0.930 . S
H994 C1002 0.930 . S
H995 C1003 0.930 . S
H996 C1006 0.930 . S
H997 C1007 0.930 . S
C998 H992 0.930 . S
C998 C999 1.355 . S
C998 C1000 1.415 . S
C999 C998 1.355 . S
C999 C1001 1.419 . S
C1000 C998 1.415 . S
C1000 C1005 1.425 . S
C1000 C1007 1.409 . S
C1001 H993 0.930 . S
C1001 C999 1.419 . S
C1001 C1002 1.362 . S
C1002 H994 0.930 . S
C1002 C1001 1.362 . S
C1002 C1005 1.409 . S
C1003 H995 0.930 . S
C1003 C1004 1.355 . S
C1003 C1005 1.415 . S
C1004 C1003 1.355 . S
C1004 C1006 1.419 . S
C1005 C1000 1.425 . S
C1005 C1002 1.409 . S
C1005 C1003 1.415 . S
C1006 H996 0.930 . S
C1006 C1004 1.419 . S
C1006 C1007 1.362 . S
C1007 H997 0.930 . S
C1007 C1000 1.409 . S
C1007 C1006 1.362 . S
H1008 C1014 0.930 . S
H1009 C1017 0.930 . S
H1010 C1018 0.930 . S
H1011 C1019 0.930 . S
H1012 C1022 0.930 . S
H1013 C1023 0.930 . S
C1014 H1008 0.930 . S
C1014 C1015 1.355 . S
C1014 C1016 1.415 . S
C1015 C1014 1.355 . S
C1015 C1017 1.419 . S
C1016 C1014 1.415 . S
C1016 C1021 1.425 . S
C1016 C1023 1.409 . S
C1017 H1009 0.930 . S
C1017 C1015 1.419 . S
C1017 C1018 1.362 . S
C1018 H1010 0.930 . S
C1018 C1017 1.362 . S
C1018 C1021 1.409 . S
C1019 H1011 0.930 . S
C1019 C1020 1.355 . S
C1019 C1021 1.415 . S
C1020 C1019 1.355 . S
C1020 C1022 1.419 . S
C1021 C1016 1.425 . S
C1021 C1018 1.409 . S
C1021 C1019 1.415 . S
C1022 H1012 0.930 . S
C1022 C1020 1.419 . S
C1022 C1023 1.362 . S
C1023 H1013 0.930 . S
C1023 C1016 1.409 . S
C1023 C1022 1.362 . S
H1024 C1030 0.930 . S
H1025 C1033 0.930 . S
H1026 C1034 0.930 . S
H1027 C1035 0.930 . S
H1028 C1038 0.930 . S
H1029 C1039 0.930 . S
C1030 H1024 0.930 . S
C1030 C1031 1.355 . S
C1030 C1032 1.415 . S
C1031 C1030 1.355 . S
C1031 C1033 1.419 . S
C1032 C1030 1.415 . S
C1032 C1037 1.425 . S
C1032 C1039 1.409 . S
C1033 H1025 0.930 . S
C1033 C1031 1.419 . S
C1033 C1034 1.362 . S
C1034 H1026 0.930 . S
C1034 C1033 1.362 . S
C1034 C1037 1.409 . S
C1035 H1027 0.930 . S
C1035 C1036 1.355 . S
C1035 C1037 1.415 . S
C1036 C1035 1.355 . S
C1036 C1038 1.419 . S
C1037 C1032 1.425 . S
C1037 C1034 1.409 . S
C1037 C1035 1.415 . S
C1038 H1028 0.930 . S
C1038 C1036 1.419 . S
C1038 C1039 1.362 . S
C1039 H1029 0.930 . S
C1039 C1032 1.409 . S
C1039 C1038 1.362 . S
H1040 C1046 0.930 . S
H1041 C1049 0.930 . S
H1042 C1050 0.930 . S
H1043 C1051 0.930 . S
H1044 C1054 0.930 . S
H1045 C1055 0.930 . S
C1046 H1040 0.930 . S
C1046 C1047 1.355 . S
C1046 C1048 1.415 . S
C1047 C1046 1.355 . S
C1047 C1049 1.419 . S
C1048 C1046 1.415 . S
C1048 C1053 1.425 . S
C1048 C1055 1.409 . S
C1049 H1041 0.930 . S
C1049 C1047 1.419 . S
C1049 C1050 1.362 . S
C1050 H1042 0.930 . S
C1050 C1049 1.362 . S
C1050 C1053 1.409 . S
C1051 H1043 0.930 . S
C1051 C1052 1.355 . S
C1051 C1053 1.415 . S
C1052 C1051 1.355 . S
C1052 C1054 1.419 . S
C1053 C1048 1.425 . S
C1053 C1050 1.409 . S
C1053 C1051 1.415 . S
C1054 H1044 0.930 . S
C1054 C1052 1.419 . S
C1054 C1055 1.362 . S
C1055 H1045 0.930 . S
C1055 C1048 1.409 . S
C1055 C1054 1.362 . S
H1056 C1062 0.930 . S
H1057 C1065 0.930 . S
H1058 C1066 0.930 . S
H1059 C1067 0.930 . S
H1060 C1070 0.930 . S
H1061 C1071 0.930 . S
C1062 H1056 0.930 . S
C1062 C1063 1.355 . S
C1062 C1064 1.415 . S
C1063 C1062 1.355 . S
C1063 C1065 1.419 . S
C1064 C1062 1.415 . S
C1064 C1069 1.425 . S
C1064 C1071 1.409 . S
C1065 H1057 0.930 . S
C1065 C1063 1.419 . S
C1065 C1066 1.362 . S
C1066 H1058 0.930 . S
C1066 C1065 1.362 . S
C1066 C1069 1.409 . S
C1067 H1059 0.930 . S
C1067 C1068 1.355 . S
C1067 C1069 1.415 . S
C1068 C1067 1.355 . S
C1068 C1070 1.419 . S
C1069 C1064 1.425 . S
C1069 C1066 1.409 . S
C1069 C1067 1.415 . S
C1070 H1060 0.930 . S
C1070 C1068 1.419 . S
C1070 C1071 1.362 . S
C1071 H1061 0.930 . S
C1071 C1064 1.409 . S
C1071 C1070 1.362 . S
H1072 C1078 0.930 . S
H1073 C1081 0.930 . S
H1074 C1082 0.930 . S
H1075 C1083 0.930 . S
H1076 C1086 0.930 . S
H1077 C1087 0.930 . S
C1078 H1072 0.930 . S
C1078 C1079 1.355 . S
C1078 C1080 1.415 . S
C1079 C1078 1.355 . S
C1079 C1081 1.419 . S
C1080 C1078 1.415 . S
C1080 C1085 1.425 1_455 S
C1080 C1087 1.409 . S
C1081 H1073 0.930 . S
C1081 C1079 1.419 . S
C1081 C1082 1.362 1_455 S
C1082 H1074 0.930 . S
C1082 C1081 1.362 1_655 S
C1082 C1085 1.409 . S
C1083 H1075 0.930 . S
C1083 C1084 1.355 . S
C1083 C1085 1.415 . S
C1084 C1083 1.355 . S
C1084 C1086 1.419 . S
C1085 C1080 1.425 1_655 S
C1085 C1082 1.409 . S
C1085 C1083 1.415 . S
C1086 H1076 0.930 . S
C1086 C1084 1.419 . S
C1086 C1087 1.362 1_655 S
C1087 H1077 0.930 . S
C1087 C1080 1.409 . S
C1087 C1086 1.362 1_455 S
H1088 C1094 0.930 . S
H1089 C1097 0.930 . S
H1090 C1098 0.930 . S
H1091 C1099 0.930 . S
H1092 C1102 0.930 . S
H1093 C1103 0.930 . S
C1094 H1088 0.930 . S
C1094 C1095 1.355 . S
C1094 C1096 1.415 . S
C1095 C1094 1.355 . S
C1095 C1097 1.419 . S
C1096 C1094 1.415 . S
C1096 C1101 1.425 . S
C1096 C1103 1.409 . S
C1097 H1089 0.930 . S
C1097 C1095 1.419 . S
C1097 C1098 1.362 . S
C1098 H1090 0.930 . S
C1098 C1097 1.362 . S
C1098 C1101 1.409 . S
C1099 H1091 0.930 . S
C1099 C1100 1.355 . S
C1099 C1101 1.415 . S
C1100 C1099 1.355 . S
C1100 C1102 1.419 . S
C1101 C1096 1.425 . S
C1101 C1098 1.409 . S
C1101 C1099 1.415 . S
C1102 H1092 0.930 . S
C1102 C1100 1.419 . S
C1102 C1103 1.362 . S
C1103 H1093 0.930 . S
C1103 C1096 1.409 . S
C1103 C1102 1.362 . S
H1104 C1110 0.930 . S
H1105 C1113 0.930 . S
H1106 C1114 0.930 . S
H1107 C1115 0.930 . S
H1108 C1118 0.930 . S
H1109 C1119 0.930 . S
C1110 H1104 0.930 . S
C1110 C1111 1.355 . S
C1110 C1112 1.415 . S
C1111 C1110 1.355 . S
C1111 C1113 1.419 . S
C1112 C1110 1.415 . S
C1112 C1117 1.425 . S
C1112 C1119 1.409 1_655 S
C1113 H1105 0.930 . S
C1113 C1111 1.419 . S
C1113 C1114 1.362 . S
C1114 H1106 0.930 . S
C1114 C1113 1.362 . S
C1114 C1117 1.409 . S
C1115 H1107 0.930 . S
C1115 C1116 1.355 . S
C1115 C1117 1.415 1_455 S
C1116 C1115 1.355 . S
C1116 C1118 1.419 . S
C1117 C1112 1.425 . S
C1117 C1114 1.409 . S
C1117 C1115 1.415 1_655 S
C1118 H1108 0.930 . S
C1118 C1116 1.419 . S
C1118 C1119 1.362 . S
C1119 H1109 0.930 . S
C1119 C1112 1.409 1_455 S
C1119 C1118 1.362 . S
H1120 C1126 0.930 . S
H1121 C1129 0.930 . S
H1122 C1130 0.930 . S
H1123 C1131 0.930 . S
H1124 C1134 0.930 . S
H1125 C1135 0.930 . S
C1126 H1120 0.930 . S
C1126 C1127 1.355 . S
C1126 C1128 1.415 . S
C1127 C1126 1.355 . S
C1127 C1129 1.419 . S
C1128 C1126 1.415 . S
C1128 C1133 1.425 . S
C1128 C1135 1.409 . S
C1129 H1121 0.930 . S
C1129 C1127 1.419 . S
C1129 C1130 1.362 . S
C1130 H1122 0.930 . S
C1130 C1129 1.362 . S
C1130 C1133 1.409 . S
C1131 H1123 0.930 . S
C1131 C1132 1.355 . S
C1131 C1133 1.415 . S
C1132 C1131 1.355 . S
C1132 C1134 1.419 . S
C1133 C1128 1.425 . S
C1133 C1130 1.409 . S
C1133 C1131 1.415 . S
C1134 H1124 0.930 . S
C1134 C1132 1.419 . S
C1134 C1135 1.362 . S
C1135 H1125 0.930 . S
C1135 C1128 1.409 . S
C1135 C1134 1.362 . S
H1136 C1142 0.930 . S
H1137 C1145 0.930 . S
H1138 C1146 0.930 . S
H1139 C1147 0.930 . S
H1140 C1150 0.930 . S
H1141 C1151 0.930 . S
C1142 H1136 0.930 . S
C1142 C1143 1.355 . S
C1142 C1144 1.415 . S
C1143 C1142 1.355 . S
C1143 C1145 1.419 . S
C1144 C1142 1.415 . S
C1144 C1149 1.425 . S
C1144 C1151 1.409 . S
C1145 H1137 0.930 . S
C1145 C1143 1.419 . S
C1145 C1146 1.362 . S
C1146 H1138 0.930 . S
C1146 C1145 1.362 . S
C1146 C1149 1.409 . S
C1147 H1139 0.930 . S
C1147 C1148 1.355 . S
C1147 C1149 1.415 . S
C1148 C1147 1.355 . S
C1148 C1150 1.419 . S
C1149 C1144 1.425 . S
C1149 C1146 1.409 . S
C1149 C1147 1.415 . S
C1150 H1140 0.930 . S
C1150 C1148 1.419 . S
C1150 C1151 1.362 . S
C1151 H1141 0.930 . S
C1151 C1144 1.409 . S
C1151 C1150 1.362 . S
H1152 C1158 0.930 . S
H1153 C1161 0.930 . S
H1154 C1162 0.930 1_655 S
H1155 C1163 0.930 . S
H1156 C1166 0.930 . S
H1157 C1167 0.930 1_455 S
C1158 H1152 0.930 . S
C1158 C1159 1.355 . S
C1158 C1160 1.415 . S
C1159 C1158 1.355 . S
C1159 C1161 1.419 . S
C1160 C1158 1.415 . S
C1160 C1165 1.425 1_455 S
C1160 C1167 1.409 1_455 S
C1161 H1153 0.930 . S
C1161 C1159 1.419 . S
C1161 C1162 1.362 . S
C1162 H1154 0.930 1_455 S
C1162 C1161 1.362 . S
C1162 C1165 1.409 1_455 S
C1163 H1155 0.930 . S
C1163 C1164 1.355 . S
C1163 C1165 1.415 . S
C1164 C1163 1.355 . S
C1164 C1166 1.419 . S
C1165 C1160 1.425 1_655 S
C1165 C1162 1.409 1_655 S
C1165 C1163 1.415 . S
C1166 H1156 0.930 . S
C1166 C1164 1.419 . S
C1166 C1167 1.362 . S
C1167 H1157 0.930 1_655 S
C1167 C1160 1.409 1_655 S
C1167 C1166 1.362 . S
H1168 C1174 0.930 . S
H1169 C1177 0.930 . S
H1170 C1178 0.930 . S
H1171 C1179 0.930 . S
H1172 C1182 0.930 . S
H1173 C1183 0.930 . S
C1174 H1168 0.930 . S
C1174 C1175 1.355 . S
C1174 C1176 1.415 . S
C1175 C1174 1.355 . S
C1175 C1177 1.419 1_655 S
C1176 C1174 1.415 . S
C1176 C1181 1.425 1_655 S
C1176 C1183 1.409 . S
C1177 H1169 0.930 . S
C1177 C1175 1.419 1_455 S
C1177 C1178 1.362 . S
C1178 H1170 0.930 . S
C1178 C1177 1.362 . S
C1178 C1181 1.409 . S
C1179 H1171 0.930 . S
C1179 C1180 1.355 . S
C1179 C1181 1.415 . S
C1180 C1179 1.355 . S
C1180 C1182 1.419 1_455 S
C1181 C1176 1.425 1_455 S
C1181 C1178 1.409 . S
C1181 C1179 1.415 . S
C1182 H1172 0.930 . S
C1182 C1180 1.419 1_655 S
C1182 C1183 1.362 . S
C1183 H1173 0.930 . S
C1183 C1176 1.409 . S
C1183 C1182 1.362 . S
H1184 C1190 0.930 . S
H1185 C1193 0.930 . S
H1186 C1194 0.930 . S
H1187 C1195 0.930 . S
H1188 C1198 0.930 . S
H1189 C1199 0.930 . S
C1190 H1184 0.930 . S
C1190 C1191 1.355 . S
C1190 C1192 1.415 . S
C1191 C1190 1.355 . S
C1191 C1193 1.419 . S
C1192 C1190 1.415 . S
C1192 C1197 1.425 . S
C1192 C1199 1.409 . S
C1193 H1185 0.930 . S
C1193 C1191 1.419 . S
C1193 C1194 1.362 . S
C1194 H1186 0.930 . S
C1194 C1193 1.362 . S
C1194 C1197 1.409 . S
C1195 H1187 0.930 . S
C1195 C1196 1.355 . S
C1195 C1197 1.415 . S
C1196 C1195 1.355 . S
C1196 C1198 1.419 . S
C1197 C1192 1.425 . S
C1197 C1194 1.409 . S
C1197 C1195 1.415 . S
C1198 H1188 0.930 . S
C1198 C1196 1.419 . S
C1198 C1199 1.362 . S
C1199 H1189 0.930 . S
C1199 C1192 1.409 . S
C1199 C1198 1.362 . S
H1200 C1206 0.930 . S
H1201 C1209 0.930 . S
H1202 C1210 0.930 . S
H1203 C1211 0.930 . S
H1204 C1214 0.930 . S
H1205 C1215 0.930 . S
C1206 H1200 0.930 . S
C1206 C1207 1.355 . S
C1206 C1208 1.415 . S
C1207 C1206 1.355 . S
C1207 C1209 1.419 . S
C1208 C1206 1.415 . S
C1208 C1213 1.425 . S
C1208 C1215 1.409 . S
C1209 H1201 0.930 . S
C1209 C1207 1.419 . S
C1209 C1210 1.362 . S
C1210 H1202 0.930 . S
C1210 C1209 1.362 . S
C1210 C1213 1.409 . S
C1211 H1203 0.930 . S
C1211 C1212 1.355 . S
C1211 C1213 1.415 . S
C1212 C1211 1.355 . S
C1212 C1214 1.419 . S
C1213 C1208 1.425 . S
C1213 C1210 1.409 . S
C1213 C1211 1.415 . S
C1214 H1204 0.930 . S
C1214 C1212 1.419 . S
C1214 C1215 1.362 . S
C1215 H1205 0.930 . S
C1215 C1208 1.409 . S
C1215 C1214 1.362 . S
H1216 C1222 0.930 . S
H1217 C1225 0.930 . S
H1218 C1226 0.930 . S
H1219 C1227 0.930 . S
H1220 C1230 0.930 . S
H1221 C1231 0.930 . S
C1222 H1216 0.930 . S
C1222 C1223 1.355 . S
C1222 C1224 1.415 . S
C1223 C1222 1.355 . S
C1223 C1225 1.419 . S
C1224 C1222 1.415 . S
C1224 C1229 1.425 1_655 S
C1224 C1231 1.409 . S
C1225 H1217 0.930 . S
C1225 C1223 1.419 . S
C1225 C1226 1.362 1_655 S
C1226 H1218 0.930 . S
C1226 C1225 1.362 1_455 S
C1226 C1229 1.409 . S
C1227 H1219 0.930 . S
C1227 C1228 1.355 . S
C1227 C1229 1.415 . S
C1228 C1227 1.355 . S
C1228 C1230 1.419 . S
C1229 C1224 1.425 1_455 S
C1229 C1226 1.409 . S
C1229 C1227 1.415 . S
C1230 H1220 0.930 . S
C1230 C1228 1.419 . S
C1230 C1231 1.362 1_455 S
C1231 H1221 0.930 . S
C1231 C1224 1.409 . S
C1231 C1230 1.362 1_655 S
H1232 C1238 0.930 . S
H1233 C1241 0.930 . S
H1234 C1242 0.930 . S
H1235 C1243 0.930 . S
H1236 C1246 0.930 . S
H1237 C1247 0.930 . S
C1238 H1232 0.930 . S
C1238 C1239 1.355 . S
C1238 C1240 1.415 . S
C1239 C1238 1.355 . S
C1239 C1241 1.419 . S
C1240 C1238 1.415 . S
C1240 C1245 1.425 . S
C1240 C1247 1.409 . S
C1241 H1233 0.930 . S
C1241 C1239 1.419 . S
C1241 C1242 1.362 . S
C1242 H1234 0.930 . S
C1242 C1241 1.362 . S
C1242 C1245 1.409 . S
C1243 H1235 0.930 . S
C1243 C1244 1.355 . S
C1243 C1245 1.415 . S
C1244 C1243 1.355 . S
C1244 C1246 1.419 . S
C1245 C1240 1.425 . S
C1245 C1242 1.409 . S
C1245 C1243 1.415 . S
C1246 H1236 0.930 . S
C1246 C1244 1.419 . S
C1246 C1247 1.362 . S
C1247 H1237 0.930 . S
C1247 C1240 1.409 . S
C1247 C1246 1.362 . S
H1248 C1254 0.930 . S
H1249 C1257 0.930 . S
H1250 C1258 0.930 . S
H1251 C1259 0.930 . S
H1252 C1262 0.930 . S
H1253 C1263 0.930 . S
C1254 H1248 0.930 . S
C1254 C1255 1.355 . S
C1254 C1256 1.415 . S
C1255 C1254 1.355 . S
C1255 C1257 1.419 . S
C1256 C1254 1.415 . S
C1256 C1261 1.425 . S
C1256 C1263 1.409 . S
C1257 H1249 0.930 . S
C1257 C1255 1.419 . S
C1257 C1258 1.362 . S
C1258 H1250 0.930 . S
C1258 C1257 1.362 . S
C1258 C1261 1.409 . S
C1259 H1251 0.930 . S
C1259 C1260 1.355 . S
C1259 C1261 1.415 . S
C1260 C1259 1.355 . S
C1260 C1262 1.419 . S
C1261 C1256 1.425 . S
C1261 C1258 1.409 . S
C1261 C1259 1.415 . S
C1262 H1252 0.930 . S
C1262 C1260 1.419 . S
C1262 C1263 1.362 . S
C1263 H1253 0.930 . S
C1263 C1256 1.409 . S
C1263 C1262 1.362 . S
H1264 C1270 0.930 1_655 S
H1265 C1273 0.930 . S
H1266 C1274 0.930 . S
H1267 C1275 0.930 1_455 S
H1268 C1278 0.930 . S
H1269 C1279 0.930 . S
C1270 H1264 0.930 1_455 S
C1270 C1271 1.355 . S
C1270 C1272 1.415 1_455 S
C1271 C1270 1.355 . S
C1271 C1273 1.419 . S
C1272 C1270 1.415 1_655 S
C1272 C1277 1.425 1_655 S
C1272 C1279 1.409 . S
C1273 H1265 0.930 . S
C1273 C1271 1.419 . S
C1273 C1274 1.362 . S
C1274 H1266 0.930 . S
C1274 C1273 1.362 . S
C1274 C1277 1.409 . S
C1275 H1267 0.930 1_655 S
C1275 C1276 1.355 . S
C1275 C1277 1.415 1_655 S
C1276 C1275 1.355 . S
C1276 C1278 1.419 . S
C1277 C1272 1.425 1_455 S
C1277 C1274 1.409 . S
C1277 C1275 1.415 1_455 S
C1278 H1268 0.930 . S
C1278 C1276 1.419 . S
C1278 C1279 1.362 . S
C1279 H1269 0.930 . S
C1279 C1272 1.409 . S
C1279 C1278 1.362 . S
H1280 C1286 0.930 . S
H1281 C1289 0.930 . S
H1282 C1290 0.930 . S
H1283 C1291 0.930 . S
H1284 C1294 0.930 . S
H1285 C1295 0.930 . S
C1286 H1280 0.930 . S
C1286 C1287 1.355 . S
C1286 C1288 1.415 . S
C1287 C1286 1.355 . S
C1287 C1289 1.419 . S
C1288 C1286 1.415 . S
C1288 C1293 1.425 1_455 S
C1288 C1295 1.409 1_455 S
C1289 H1281 0.930 . S
C1289 C1287 1.419 . S
C1289 C1290 1.362 . S
C1290 H1282 0.930 . S
C1290 C1289 1.362 . S
C1290 C1293 1.409 1_455 S
C1291 H1283 0.930 . S
C1291 C1292 1.355 . S
C1291 C1293 1.415 . S
C1292 C1291 1.355 . S
C1292 C1294 1.419 . S
C1293 C1288 1.425 1_655 S
C1293 C1290 1.409 1_655 S
C1293 C1291 1.415 . S
C1294 H1284 0.930 . S
C1294 C1292 1.419 . S
C1294 C1295 1.362 . S
C1295 H1285 0.930 . S
C1295 C1288 1.409 1_655 S
C1295 C1294 1.362 . S
H1296 C1302 0.930 . S
H1297 C1305 0.930 . S
H1298 C1306 0.930 . S
H1299 C1307 0.930 . S
H1300 C1310 0.930 . S
H1301 C1311 0.930 . S
C1302 H1296 0.930 . S
C1302 C1303 1.355 . S
C1302 C1304 1.415 . S
C1303 C1302 1.355 . S
C1303 C1305 1.419 . S
C1304 C1302 1.415 . S
C1304 C1309 1.425 1_655 S
C1304 C1311 1.409 . S
C1305 H1297 0.930 . S
C1305 C1303 1.419 . S
C1305 C1306 1.362 1_655 S
C1306 H1298 0.930 . S
C1306 C1305 1.362 1_455 S
C1306 C1309 1.409 . S
C1307 H1299 0.930 . S
C1307 C1308 1.355 . S
C1307 C1309 1.415 . S
C1308 C1307 1.355 . S
C1308 C1310 1.419 . S
C1309 C1304 1.425 1_455 S
C1309 C1306 1.409 . S
C1309 C1307 1.415 . S
C1310 H1300 0.930 . S
C1310 C1308 1.419 . S
C1310 C1311 1.362 1_455 S
C1311 H1301 0.930 . S
C1311 C1304 1.409 . S
C1311 C1310 1.362 1_655 S
H1312 C1318 0.930 . S
H1313 C1321 0.930 . S
H1314 C1322 0.930 . S
H1315 C1323 0.930 . S
H1316 C1326 0.930 . S
H1317 C1327 0.930 . S
C1318 H1312 0.930 . S
C1318 C1319 1.355 . S
C1318 C1320 1.415 . S
C1319 C1318 1.355 . S
C1319 C1321 1.419 . S
C1320 C1318 1.415 . S
C1320 C1325 1.425 . S
C1320 C1327 1.409 . S
C1321 H1313 0.930 . S
C1321 C1319 1.419 . S
C1321 C1322 1.362 . S
C1322 H1314 0.930 . S
C1322 C1321 1.362 . S
C1322 C1325 1.409 . S
C1323 H1315 0.930 . S
C1323 C1324 1.355 . S
C1323 C1325 1.415 . S
C1324 C1323 1.355 . S
C1324 C1326 1.419 . S
C1325 C1320 1.425 . S
C1325 C1322 1.409 . S
C1325 C1323 1.415 . S
C1326 H1316 0.930 . S
C1326 C1324 1.419 . S
C1326 C1327 1.362 . S
C1327 H1317 0.930 . S
C1327 C1320 1.409 . S
C1327 C1326 1.362 . S
H1328 C1334 0.930 . S
H1329 C1337 0.930 . S
H1330 C1338 0.930 . S
H1331 C1339 0.930 . S
H1332 C1342 0.930 . S
H1333 C1343 0.930 . S
C1334 H1328 0.930 . S
C1334 C1335 1.355 . S
C1334 C1336 1.415 . S
C1335 C1334 1.355 . S
C1335 C1337 1.419 . S
C1336 C1334 1.415 . S
C1336 C1341 1.425 . S
C1336 C1343 1.409 . S
C1337 H1329 0.930 . S
C1337 C1335 1.419 . S
C1337 C1338 1.362 . S
C1338 H1330 0.930 . S
C1338 C1337 1.362 . S
C1338 C1341 1.409 . S
C1339 H1331 0.930 . S
C1339 C1340 1.355 . S
C1339 C1341 1.415 . S
C1340 C1339 1.355 . S
C1340 C1342 1.419 . S
C1341 C1336 1.425 . S
C1341 C1338 1.409 . S
C1341 C1339 1.415 . S
C1342 H1332 0.930 . S
C1342 C1340 1.419 . S
C1342 C1343 1.362 . S
C1343 H1333 0.930 . S
C1343 C1336 1.409 . S
C1343 C1342 1.362 . S
H1344 C1350 0.930 . S
H1345 C1353 0.930 . S
H1346 C1354 0.930 . S
H1347 C1355 0.930 . S
H1348 C1358 0.930 . S
H1349 C1359 0.930 . S
C1350 H1344 0.930 . S
C1350 C1351 1.355 . S
C1350 C1352 1.415 1_455 S
C1351 C1350 1.355 . S
C1351 C1353 1.419 . S
C1352 C1350 1.415 1_655 S
C1352 C1357 1.425 1_655 S
C1352 C1359 1.409 . S
C1353 H1345 0.930 . S
C1353 C1351 1.419 . S
C1353 C1354 1.362 . S
C1354 H1346 0.930 . S
C1354 C1353 1.362 . S
C1354 C1357 1.409 . S
C1355 H1347 0.930 . S
C1355 C1356 1.355 . S
C1355 C1357 1.415 1_655 S
C1356 C1355 1.355 . S
C1356 C1358 1.419 . S
C1357 C1352 1.425 1_455 S
C1357 C1354 1.409 . S
C1357 C1355 1.415 1_455 S
C1358 H1348 0.930 . S
C1358 C1356 1.419 . S
C1358 C1359 1.362 . S
C1359 H1349 0.930 . S
C1359 C1352 1.409 . S
C1359 C1358 1.362 . S
H1360 C1366 0.930 . S
H1361 C1369 0.930 . S
H1362 C1370 0.930 . S
H1363 C1371 0.930 . S
H1364 C1374 0.930 . S
H1365 C1375 0.930 . S
C1366 H1360 0.930 . S
C1366 C1367 1.355 . S
C1366 C1368 1.415 . S
C1367 C1366 1.355 . S
C1367 C1369 1.419 . S
C1368 C1366 1.415 . S
C1368 C1373 1.425 . S
C1368 C1375 1.409 . S
C1369 H1361 0.930 . S
C1369 C1367 1.419 . S
C1369 C1370 1.362 . S
C1370 H1362 0.930 . S
C1370 C1369 1.362 . S
C1370 C1373 1.409 . S
C1371 H1363 0.930 . S
C1371 C1372 1.355 . S
C1371 C1373 1.415 . S
C1372 C1371 1.355 . S
C1372 C1374 1.419 . S
C1373 C1368 1.425 . S
C1373 C1370 1.409 . S
C1373 C1371 1.415 . S
C1374 H1364 0.930 . S
C1374 C1372 1.419 . S
C1374 C1375 1.362 . S
C1375 H1365 0.930 . S
C1375 C1368 1.409 . S
C1375 C1374 1.362 . S
H1376 C1382 0.930 . S
H1377 C1385 0.930 . S
H1378 C1386 0.930 . S
H1379 C1387 0.930 . S
H1380 C1390 0.930 . S
H1381 C1391 0.930 . S
C1382 H1376 0.930 . S
C1382 C1383 1.355 . S
C1382 C1384 1.415 . S
C1383 C1382 1.355 . S
C1383 C1385 1.419 . S
C1384 C1382 1.415 . S
C1384 C1389 1.425 . S
C1384 C1391 1.409 . S
C1385 H1377 0.930 . S
C1385 C1383 1.419 . S
C1385 C1386 1.362 . S
C1386 H1378 0.930 . S
C1386 C1385 1.362 . S
C1386 C1389 1.409 . S
C1387 H1379 0.930 . S
C1387 C1388 1.355 . S
C1387 C1389 1.415 . S
C1388 C1387 1.355 . S
C1388 C1390 1.419 . S
C1389 C1384 1.425 . S
C1389 C1386 1.409 . S
C1389 C1387 1.415 . S
C1390 H1380 0.930 . S
C1390 C1388 1.419 . S
C1390 C1391 1.362 . S
C1391 H1381 0.930 . S
C1391 C1384 1.409 . S
C1391 C1390 1.362 . S
H1392 C1398 0.930 . S
H1393 C1401 0.930 . S
H1394 C1402 0.930 . S
H1395 C1403 0.930 . S
H1396 C1406 0.930 . S
H1397 C1407 0.930 . S
C1398 H1392 0.930 . S
C1398 C1399 1.355 . S
C1398 C1400 1.415 . S
C1399 C1398 1.355 . S
C1399 C1401 1.419 1_655 S
C1400 C1398 1.415 . S
C1400 C1405 1.425 1_655 S
C1400 C1407 1.409 . S
C1401 H1393 0.930 . S
C1401 C1399 1.419 1_455 S
C1401 C1402 1.362 . S
C1402 H1394 0.930 . S
C1402 C1401 1.362 . S
C1402 C1405 1.409 . S
C1403 H1395 0.930 . S
C1403 C1404 1.355 . S
C1403 C1405 1.415 . S
C1404 C1403 1.355 . S
C1404 C1406 1.419 1_455 S
C1405 C1400 1.425 1_455 S
C1405 C1402 1.409 . S
C1405 C1403 1.415 . S
C1406 H1396 0.930 . S
C1406 C1404 1.419 1_655 S
C1406 C1407 1.362 . S
C1407 H1397 0.930 . S
C1407 C1400 1.409 . S
C1407 C1406 1.362 . S
H1408 C1414 0.930 . S
H1409 C1417 0.930 . S
H1410 C1418 0.930 . S
H1411 C1419 0.930 . S
H1412 C1422 0.930 . S
H1413 C1423 0.930 . S
C1414 H1408 0.930 . S
C1414 C1415 1.355 . S
C1414 C1416 1.415 . S
C1415 C1414 1.355 . S
C1415 C1417 1.419 . S
C1416 C1414 1.415 . S
C1416 C1421 1.425 . S
C1416 C1423 1.409 . S
C1417 H1409 0.930 . S
C1417 C1415 1.419 . S
C1417 C1418 1.362 . S
C1418 H1410 0.930 . S
C1418 C1417 1.362 . S
C1418 C1421 1.409 . S
C1419 H1411 0.930 . S
C1419 C1420 1.355 . S
C1419 C1421 1.415 . S
C1420 C1419 1.355 . S
C1420 C1422 1.419 . S
C1421 C1416 1.425 . S
C1421 C1418 1.409 . S
C1421 C1419 1.415 . S
C1422 H1412 0.930 . S
C1422 C1420 1.419 . S
C1422 C1423 1.362 . S
C1423 H1413 0.930 . S
C1423 C1416 1.409 . S
C1423 C1422 1.362 . S
H1424 C1430 0.930 . S
H1425 C1433 0.930 . S
H1426 C1434 0.930 . S
H1427 C1435 0.930 . S
H1428 C1438 0.930 . S
H1429 C1439 0.930 . S
C1430 H1424 0.930 . S
C1430 C1431 1.355 . S
C1430 C1432 1.415 . S
C1431 C1430 1.355 . S
C1431 C1433 1.419 1_545 S
C1432 C1430 1.415 . S
C1432 C1437 1.425 1_645 S
C1432 C1439 1.409 1_655 S
C1433 H1425 0.930 . S
C1433 C1431 1.419 1_565 S
C1433 C1434 1.362 . S
C1434 H1426 0.930 . S
C1434 C1433 1.362 . S
C1434 C1437 1.409 1_655 S
C1435 H1427 0.930 . S
C1435 C1436 1.355 . S
C1435 C1437 1.415 . S
C1436 C1435 1.355 . S
C1436 C1438 1.419 1_565 S
C1437 C1432 1.425 1_465 S
C1437 C1434 1.409 1_455 S
C1437 C1435 1.415 . S
C1438 H1428 0.930 . S
C1438 C1436 1.419 1_545 S
C1438 C1439 1.362 . S
C1439 H1429 0.930 . S
C1439 C1432 1.409 1_455 S
C1439 C1438 1.362 . S
H1440 C1446 0.930 . S
H1441 C1449 0.930 . S
H1442 C1450 0.930 . S
H1443 C1451 0.930 . S
H1444 C1454 0.930 . S
H1445 C1455 0.930 . S
C1446 H1440 0.930 . S
C1446 C1447 1.355 . S
C1446 C1448 1.415 . S
C1447 C1446 1.355 . S
C1447 C1449 1.419 . S
C1448 C1446 1.415 . S
C1448 C1453 1.425 . S
C1448 C1455 1.409 . S
C1449 H1441 0.930 . S
C1449 C1447 1.419 . S
C1449 C1450 1.362 . S
C1450 H1442 0.930 . S
C1450 C1449 1.362 . S
C1450 C1453 1.409 . S
C1451 H1443 0.930 . S
C1451 C1452 1.355 . S
C1451 C1453 1.415 . S
C1452 C1451 1.355 . S
C1452 C1454 1.419 . S
C1453 C1448 1.425 . S
C1453 C1450 1.409 . S
C1453 C1451 1.415 . S
C1454 H1444 0.930 . S
C1454 C1452 1.419 . S
C1454 C1455 1.362 . S
C1455 H1445 0.930 . S
C1455 C1448 1.409 . S
C1455 C1454 1.362 . S
H1456 C1462 0.911 1_566 S
H1457 C1465 0.930 . S
H1458 C1466 0.930 . S
H1459 C1467 0.911 1_544 S
H1460 C1470 0.930 . S
H1461 C1471 0.930 . S
C1462 H1456 0.911 1_544 S
C1462 C1463 1.355 . S
C1462 C1464 1.415 1_544 S
C1463 C1462 1.355 . S
C1463 C1465 1.419 . S
C1464 C1462 1.415 1_566 S
C1464 C1469 1.425 1_566 S
C1464 C1471 1.409 . S
C1465 H1457 0.930 . S
C1465 C1463 1.419 . S
C1465 C1466 1.362 . S
C1466 H1458 0.930 . S
C1466 C1465 1.362 . S
C1466 C1469 1.409 . S
C1467 H1459 0.911 1_566 S
C1467 C1468 1.355 . S
C1467 C1469 1.415 1_566 S
C1468 C1467 1.355 . S
C1468 C1470 1.419 . S
C1469 C1464 1.425 1_544 S
C1469 C1466 1.409 . S
C1469 C1467 1.415 1_544 S
C1470 H1460 0.930 . S
C1470 C1468 1.419 . S
C1470 C1471 1.362 . S
C1471 H1461 0.930 . S
C1471 C1464 1.409 . S
C1471 C1470 1.362 . S
H1472 C1478 0.930 . S
H1473 C1481 0.930 . S
H1474 C1482 0.930 . S
H1475 C1483 0.930 . S
H1476 C1486 0.930 . S
H1477 C1487 0.930 . S
C1478 H1472 0.930 . S
C1478 C1479 1.355 . S
C1478 C1480 1.415 . S
C1479 C1478 1.355 . S
C1479 C1481 1.419 . S
C1480 C1478 1.415 . S
C1480 C1485 1.425 . S
C1480 C1487 1.409 . S
C1481 H1473 0.930 . S
C1481 C1479 1.419 . S
C1481 C1482 1.362 . S
C1482 H1474 0.930 . S
C1482 C1481 1.362 . S
C1482 C1485 1.409 . S
C1483 H1475 0.930 . S
C1483 C1484 1.355 . S
C1483 C1485 1.415 . S
C1484 C1483 1.355 . S
C1484 C1486 1.419 . S
C1485 C1480 1.425 . S
C1485 C1482 1.409 . S
C1485 C1483 1.415 . S
C1486 H1476 0.930 . S
C1486 C1484 1.419 . S
C1486 C1487 1.362 . S
C1487 H1477 0.930 . S
C1487 C1480 1.409 . S
C1487 C1486 1.362 . S
H1488 C1494 0.930 1_565 S
H1489 C1497 0.930 . S
H1490 C1498 0.930 . S
H1491 C1499 0.930 1_545 S
H1492 C1502 0.930 . S
H1493 C1503 0.930 . S
C1494 H1488 0.930 1_545 S
C1494 C1495 1.355 . S
C1494 C1496 1.415 1_545 S
C1495 C1494 1.355 . S
C1495 C1497 1.419 . S
C1496 C1494 1.415 1_565 S
C1496 C1501 1.425 1_565 S
C1496 C1503 1.409 . S
C1497 H1489 0.930 . S
C1497 C1495 1.419 . S
C1497 C1498 1.362 . S
C1498 H1490 0.930 . S
C1498 C1497 1.362 . S
C1498 C1501 1.409 . S
C1499 H1491 0.930 1_565 S
C1499 C1500 1.355 . S
C1499 C1501 1.415 1_565 S
C1500 C1499 1.355 . S
C1500 C1502 1.419 . S
C1501 C1496 1.425 1_545 S
C1501 C1498 1.409 . S
C1501 C1499 1.415 1_545 S
C1502 H1492 0.930 . S
C1502 C1500 1.419 . S
C1502 C1503 1.362 . S
C1503 H1493 0.930 . S
C1503 C1496 1.409 . S
C1503 C1502 1.362 . S
H1504 C1510 0.930 . S
H1505 C1513 0.930 . S
H1506 C1514 0.930 . S
H1507 C1515 0.930 . S
H1508 C1518 0.930 . S
H1509 C1519 0.930 . S
C1510 H1504 0.930 . S
C1510 C1511 1.355 . S
C1510 C1512 1.415 . S
C1511 C1510 1.355 . S
C1511 C1513 1.419 . S
C1512 C1510 1.415 . S
C1512 C1517 1.425 . S
C1512 C1519 1.409 . S
C1513 H1505 0.930 . S
C1513 C1511 1.419 . S
C1513 C1514 1.362 . S
C1514 H1506 0.930 . S
C1514 C1513 1.362 . S
C1514 C1517 1.409 . S
C1515 H1507 0.930 . S
C1515 C1516 1.355 . S
C1515 C1517 1.415 . S
C1516 C1515 1.355 . S
C1516 C1518 1.419 . S
C1517 C1512 1.425 . S
C1517 C1514 1.409 . S
C1517 C1515 1.415 . S
C1518 H1508 0.930 . S
C1518 C1516 1.419 . S
C1518 C1519 1.362 . S
C1519 H1509 0.930 . S
C1519 C1512 1.409 . S
C1519 C1518 1.362 . S
H1520 C1526 0.930 1_554 S
H1521 C1529 0.930 . S
H1522 C1530 0.930 . S
H1523 C1531 0.930 1_556 S
H1524 C1534 0.930 . S
H1525 C1535 0.930 . S
C1526 H1520 0.930 1_556 S
C1526 C1527 1.355 . S
C1526 C1528 1.415 1_556 S
C1527 C1526 1.355 . S
C1527 C1529 1.419 . S
C1528 C1526 1.415 1_554 S
C1528 C1533 1.425 1_444 S
C1528 C1535 1.409 1_545 S
C1529 H1521 0.930 . S
C1529 C1527 1.419 . S
C1529 C1530 1.362 1_455 S
C1530 H1522 0.930 . S
C1530 C1529 1.362 1_655 S
C1530 C1533 1.409 1_545 S
C1531 H1523 0.930 1_554 S
C1531 C1532 1.355 . S
C1531 C1533 1.415 1_554 S
C1532 C1531 1.355 . S
C1532 C1534 1.419 . S
C1533 C1528 1.425 1_666 S
C1533 C1530 1.409 1_565 S
C1533 C1531 1.415 1_556 S
C1534 H1524 0.930 . S
C1534 C1532 1.419 . S
C1534 C1535 1.362 1_655 S
C1535 H1525 0.930 . S
C1535 C1528 1.409 1_565 S
C1535 C1534 1.362 1_455 S
H1536 C1542 0.930 . S
H1537 C1545 0.930 . S
H1538 C1546 0.930 . S
H1539 C1547 0.930 . S
H1540 C1550 0.930 . S
H1541 C1551 0.930 . S
C1542 H1536 0.930 . S
C1542 C1543 1.355 . S
C1542 C1544 1.415 . S
C1543 C1542 1.355 . S
C1543 C1545 1.419 . S
C1544 C1542 1.415 . S
C1544 C1549 1.425 . S
C1544 C1551 1.409 . S
C1545 H1537 0.930 . S
C1545 C1543 1.419 . S
C1545 C1546 1.362 . S
C1546 H1538 0.930 . S
C1546 C1545 1.362 . S
C1546 C1549 1.409 . S
C1547 H1539 0.930 . S
C1547 C1548 1.355 . S
C1547 C1549 1.415 . S
C1548 C1547 1.355 . S
C1548 C1550 1.419 . S
C1549 C1544 1.425 . S
C1549 C1546 1.409 . S
C1549 C1547 1.415 . S
C1550 H1540 0.930 . S
C1550 C1548 1.419 . S
C1550 C1551 1.362 . S
C1551 H1541 0.930 . S
C1551 C1544 1.409 . S
C1551 C1550 1.362 . S
H1552 C1558 0.930 . S
H1553 C1561 0.930 . S
H1554 C1562 0.930 . S
H1555 C1563 0.930 . S
H1556 C1566 0.930 . S
H1557 C1567 0.930 . S
C1558 H1552 0.930 . S
C1558 C1559 1.355 . S
C1558 C1560 1.415 . S
C1559 C1558 1.355 . S
C1559 C1561 1.419 . S
C1560 C1558 1.415 . S
C1560 C1565 1.425 . S
C1560 C1567 1.409 . S
C1561 H1553 0.930 . S
C1561 C1559 1.419 . S
C1561 C1562 1.362 . S
C1562 H1554 0.930 . S
C1562 C1561 1.362 . S
C1562 C1565 1.409 . S
C1563 H1555 0.930 . S
C1563 C1564 1.355 . S
C1563 C1565 1.415 . S
C1564 C1563 1.355 . S
C1564 C1566 1.419 . S
C1565 C1560 1.425 . S
C1565 C1562 1.409 . S
C1565 C1563 1.415 . S
C1566 H1556 0.930 . S
C1566 C1564 1.419 . S
C1566 C1567 1.362 . S
C1567 H1557 0.930 . S
C1567 C1560 1.409 . S
C1567 C1566 1.362 . S
H1568 C1574 0.930 . S
H1569 C1577 0.930 . S
H1570 C1578 0.930 . S
H1571 C1579 0.930 . S
H1572 C1582 0.930 . S
H1573 C1583 0.930 . S
C1574 H1568 0.930 . S
C1574 C1575 1.355 . S
C1574 C1576 1.415 . S
C1575 C1574 1.355 . S
C1575 C1577 1.419 . S
C1576 C1574 1.415 . S
C1576 C1581 1.425 . S
C1576 C1583 1.409 . S
C1577 H1569 0.930 . S
C1577 C1575 1.419 . S
C1577 C1578 1.362 . S
C1578 H1570 0.930 . S
C1578 C1577 1.362 . S
C1578 C1581 1.409 . S
C1579 H1571 0.930 . S
C1579 C1580 1.355 . S
C1579 C1581 1.415 . S
C1580 C1579 1.355 . S
C1580 C1582 1.419 . S
C1581 C1576 1.425 . S
C1581 C1578 1.409 . S
C1581 C1579 1.415 . S
C1582 H1572 0.930 . S
C1582 C1580 1.419 . S
C1582 C1583 1.362 . S
C1583 H1573 0.930 . S
C1583 C1576 1.409 . S
C1583 C1582 1.362 . S
H1584 C1590 0.930 . S
H1585 C1593 0.930 . S
H1586 C1594 0.930 . S
H1587 C1595 0.930 . S
H1588 C1598 0.930 . S
H1589 C1599 0.930 . S
C1590 H1584 0.930 . S
C1590 C1591 1.355 . S
C1590 C1592 1.415 . S
C1591 C1590 1.355 . S
C1591 C1593 1.419 . S
C1592 C1590 1.415 . S
C1592 C1597 1.425 . S
C1592 C1599 1.409 . S
C1593 H1585 0.930 . S
C1593 C1591 1.419 . S
C1593 C1594 1.362 . S
C1594 H1586 0.930 . S
C1594 C1593 1.362 . S
C1594 C1597 1.409 . S
C1595 H1587 0.930 . S
C1595 C1596 1.355 . S
C1595 C1597 1.415 . S
C1596 C1595 1.355 . S
C1596 C1598 1.419 . S
C1597 C1592 1.425 . S
C1597 C1594 1.409 . S
C1597 C1595 1.415 . S
C1598 H1588 0.930 . S
C1598 C1596 1.419 . S
C1598 C1599 1.362 . S
C1599 H1589 0.930 . S
C1599 C1592 1.409 . S
C1599 C1598 1.362 . S
H1600 C1606 0.930 . S
H1601 C1609 0.941 . S
H1602 C1610 0.930 . S
H1603 C1611 0.930 . S
H1604 C1614 0.941 . S
H1605 C1615 0.930 . S
C1606 H1600 0.930 . S
C1606 C1607 1.355 . S
C1606 C1608 1.415 . S
C1607 C1606 1.355 . S
C1607 C1609 1.380 1_554 S
C1608 C1606 1.415 . S
C1608 C1613 1.425 1_554 S
C1608 C1615 1.409 . S
C1609 H1601 0.941 . S
C1609 C1607 1.380 1_556 S
C1609 C1610 1.391 . S
C1610 H1602 0.930 . S
C1610 C1609 1.391 . S
C1610 C1613 1.409 . S
C1611 H1603 0.930 . S
C1611 C1612 1.355 . S
C1611 C1613 1.415 . S
C1612 C1611 1.355 . S
C1612 C1614 1.380 1_556 S
C1613 C1608 1.425 1_556 S
C1613 C1610 1.409 . S
C1613 C1611 1.415 . S
C1614 H1604 0.941 . S
C1614 C1612 1.380 1_554 S
C1614 C1615 1.391 . S
C1615 H1605 0.930 . S
C1615 C1608 1.409 . S
C1615 C1614 1.391 . S
H1616 C1622 0.930 . S
H1617 C1625 0.930 . S
H1618 C1626 0.930 . S
H1619 C1627 0.930 . S
H1620 C1630 0.930 . S
H1621 C1631 0.930 . S
C1622 H1616 0.930 . S
C1622 C1623 1.355 . S
C1622 C1624 1.415 1_655 S
C1623 C1622 1.355 . S
C1623 C1625 1.419 . S
C1624 C1622 1.415 1_455 S
C1624 C1629 1.425 1_455 S
C1624 C1631 1.409 . S
C1625 H1617 0.930 . S
C1625 C1623 1.419 . S
C1625 C1626 1.362 . S
C1626 H1618 0.930 . S
C1626 C1625 1.362 . S
C1626 C1629 1.409 . S
C1627 H1619 0.930 . S
C1627 C1628 1.355 . S
C1627 C1629 1.415 1_455 S
C1628 C1627 1.355 . S
C1628 C1630 1.419 . S
C1629 C1624 1.425 1_655 S
C1629 C1626 1.409 . S
C1629 C1627 1.415 1_655 S
C1630 H1620 0.930 . S
C1630 C1628 1.419 . S
C1630 C1631 1.362 . S
C1631 H1621 0.930 . S
C1631 C1624 1.409 . S
C1631 C1630 1.362 . S
H1632 C1638 0.930 1_556 S
H1633 C1641 0.930 . S
H1634 C1642 0.930 . S
H1635 C1643 0.930 1_554 S
H1636 C1646 0.930 . S
H1637 C1647 0.930 . S
C1638 H1632 0.930 1_554 S
C1638 C1639 1.355 . S
C1638 C1640 1.415 1_554 S
C1639 C1638 1.355 . S
C1639 C1641 1.419 . S
C1640 C1638 1.415 1_556 S
C1640 C1645 1.425 1_456 S
C1640 C1647 1.409 . S
C1641 H1633 0.930 . S
C1641 C1639 1.419 . S
C1641 C1642 1.362 1_455 S
C1642 H1634 0.930 . S
C1642 C1641 1.362 1_655 S
C1642 C1645 1.409 . S
C1643 H1635 0.930 1_556 S
C1643 C1644 1.355 . S
C1643 C1645 1.415 1_556 S
C1644 C1643 1.355 . S
C1644 C1646 1.419 . S
C1645 C1640 1.425 1_654 S
C1645 C1642 1.409 . S
C1645 C1643 1.415 1_554 S
C1646 H1636 0.930 . S
C1646 C1644 1.419 . S
C1646 C1647 1.362 1_655 S
C1647 H1637 0.930 . S
C1647 C1640 1.409 . S
C1647 C1646 1.362 1_455 S
H1648 C1654 0.930 . S
H1649 C1657 0.930 . S
H1650 C1658 0.930 . S
H1651 C1659 0.930 . S
H1652 C1662 0.930 . S
H1653 C1663 0.930 . S
C1654 H1648 0.930 . S
C1654 C1655 1.355 . S
C1654 C1656 1.415 . S
C1655 C1654 1.355 . S
C1655 C1657 1.419 . S
C1656 C1654 1.415 . S
C1656 C1661 1.425 . S
C1656 C1663 1.409 . S
C1657 H1649 0.930 . S
C1657 C1655 1.419 . S
C1657 C1658 1.362 . S
C1658 H1650 0.930 . S
C1658 C1657 1.362 . S
C1658 C1661 1.409 . S
C1659 H1651 0.930 . S
C1659 C1660 1.355 . S
C1659 C1661 1.415 . S
C1660 C1659 1.355 . S
C1660 C1662 1.419 . S
C1661 C1656 1.425 . S
C1661 C1658 1.409 . S
C1661 C1659 1.415 . S
C1662 H1652 0.930 . S
C1662 C1660 1.419 . S
C1662 C1663 1.362 . S
C1663 H1653 0.930 . S
C1663 C1656 1.409 . S
C1663 C1662 1.362 . S
H1664 C1670 0.930 . S
H1665 C1673 0.930 . S
H1666 C1674 0.930 . S
H1667 C1675 0.930 . S
H1668 C1678 0.930 . S
H1669 C1679 0.930 . S
C1670 H1664 0.930 . S
C1670 C1671 1.355 . S
C1670 C1672 1.415 . S
C1671 C1670 1.355 . S
C1671 C1673 1.419 . S
C1672 C1670 1.415 . S
C1672 C1677 1.425 . S
C1672 C1679 1.409 1_545 S
C1673 H1665 0.930 . S
C1673 C1671 1.419 . S
C1673 C1674 1.362 . S
C1674 H1666 0.930 . S
C1674 C1673 1.362 . S
C1674 C1677 1.409 . S
C1675 H1667 0.930 . S
C1675 C1676 1.355 1_545 S
C1675 C1677 1.415 . S
C1676 C1675 1.355 1_565 S
C1676 C1678 1.419 . S
C1677 C1672 1.425 . S
C1677 C1674 1.409 . S
C1677 C1675 1.415 . S
C1678 H1668 0.930 . S
C1678 C1676 1.419 . S
C1678 C1679 1.362 . S
C1679 H1669 0.930 . S
C1679 C1672 1.409 1_565 S
C1679 C1678 1.362 . S
H1680 C1686 0.930 . S
H1681 C1689 0.930 . S
H1682 C1690 0.930 . S
H1683 C1691 0.930 . S
H1684 C1694 0.930 . S
H1685 C1695 0.930 . S
C1686 H1680 0.930 . S
C1686 C1687 1.355 . S
C1686 C1688 1.415 . S
C1687 C1686 1.355 . S
C1687 C1689 1.419 . S
C1688 C1686 1.415 . S
C1688 C1693 1.425 . S
C1688 C1695 1.409 1_545 S
C1689 H1681 0.930 . S
C1689 C1687 1.419 . S
C1689 C1690 1.362 . S
C1690 H1682 0.930 . S
C1690 C1689 1.362 . S
C1690 C1693 1.409 . S
C1691 H1683 0.930 . S
C1691 C1692 1.355 1_545 S
C1691 C1693 1.415 . S
C1692 C1691 1.355 1_565 S
C1692 C1694 1.419 . S
C1693 C1688 1.425 . S
C1693 C1690 1.409 . S
C1693 C1691 1.415 . S
C1694 H1684 0.930 . S
C1694 C1692 1.419 . S
C1694 C1695 1.362 . S
C1695 H1685 0.930 . S
C1695 C1688 1.409 1_565 S
C1695 C1694 1.362 . S
H1696 C1702 0.930 . S
H1697 C1705 0.930 . S
H1698 C1706 0.930 . S
H1699 C1707 0.930 . S
H1700 C1710 0.930 . S
H1701 C1711 0.930 . S
C1702 H1696 0.930 . S
C1702 C1703 1.355 . S
C1702 C1704 1.415 1_545 S
C1703 C1702 1.355 . S
C1703 C1705 1.419 1_545 S
C1704 C1702 1.415 1_565 S
C1704 C1709 1.425 . S
C1704 C1711 1.409 1_565 S
C1705 H1697 0.930 . S
C1705 C1703 1.419 1_565 S
C1705 C1706 1.362 . S
C1706 H1698 0.930 . S
C1706 C1705 1.362 . S
C1706 C1709 1.409 . S
C1707 H1699 0.930 . S
C1707 C1708 1.355 . S
C1707 C1709 1.415 . S
C1708 C1707 1.355 . S
C1708 C1710 1.419 . S
C1709 C1704 1.425 . S
C1709 C1706 1.409 . S
C1709 C1707 1.415 . S
C1710 H1700 0.930 . S
C1710 C1708 1.419 . S
C1710 C1711 1.362 1_565 S
C1711 H1701 0.930 . S
C1711 C1704 1.409 1_545 S
C1711 C1710 1.362 1_545 S
H1712 C1718 0.930 . S
H1713 C1721 0.930 . S
H1714 C1722 0.930 . S
H1715 C1723 0.930 . S
H1716 C1726 0.930 . S
H1717 C1727 0.930 . S
C1718 H1712 0.930 . S
C1718 C1719 1.355 . S
C1718 C1720 1.415 . S
C1719 C1718 1.355 . S
C1719 C1721 1.419 . S
C1720 C1718 1.415 . S
C1720 C1725 1.425 . S
C1720 C1727 1.409 . S
C1721 H1713 0.930 . S
C1721 C1719 1.419 . S
C1721 C1722 1.362 1_565 S
C1722 H1714 0.930 . S
C1722 C1721 1.362 1_545 S
C1722 C1725 1.409 1_545 S
C1723 H1715 0.930 . S
C1723 C1724 1.355 . S
C1723 C1725 1.415 1_545 S
C1724 C1723 1.355 . S
C1724 C1726 1.419 1_545 S
C1725 C1720 1.425 . S
C1725 C1722 1.409 1_565 S
C1725 C1723 1.415 1_565 S
C1726 H1716 0.930 . S
C1726 C1724 1.419 1_565 S
C1726 C1727 1.362 . S
C1727 H1717 0.930 . S
C1727 C1720 1.409 . S
C1727 C1726 1.362 . S
H1728 C1734 0.930 . S
H1729 C1737 0.930 . S
H1730 C1738 0.930 1_545 S
H1731 C1739 0.930 . S
H1732 C1742 0.930 . S
H1733 C1743 0.930 . S
C1734 H1728 0.930 . S
C1734 C1735 1.355 . S
C1734 C1736 1.415 . S
C1735 C1734 1.355 . S
C1735 C1737 1.419 . S
C1736 C1734 1.415 . S
C1736 C1741 1.425 . S
C1736 C1743 1.409 . S
C1737 H1729 0.930 . S
C1737 C1735 1.419 . S
C1737 C1738 1.362 . S
C1738 H1730 0.930 1_565 S
C1738 C1737 1.362 . S
C1738 C1741 1.409 . S
C1739 H1731 0.930 . S
C1739 C1740 1.355 . S
C1739 C1741 1.415 1_545 S
C1740 C1739 1.355 . S
C1740 C1742 1.419 1_545 S
C1741 C1736 1.425 . S
C1741 C1738 1.409 . S
C1741 C1739 1.415 1_565 S
C1742 H1732 0.930 . S
C1742 C1740 1.419 1_565 S
C1742 C1743 1.362 . S
C1743 H1733 0.930 . S
C1743 C1736 1.409 . S
C1743 C1742 1.362 . S
H1744 C1750 0.930 . S
H1745 C1753 0.930 . S
H1746 C1754 0.930 . S
H1747 C1755 0.930 . S
H1748 C1758 0.930 . S
H1749 C1759 0.930 . S
C1750 H1744 0.930 . S
C1750 C1751 1.355 1_565 S
C1750 C1752 1.415 . S
C1751 C1750 1.355 1_545 S
C1751 C1753 1.419 . S
C1752 C1750 1.415 . S
C1752 C1757 1.425 . S
C1752 C1759 1.409 . S
C1753 H1745 0.930 . S
C1753 C1751 1.419 . S
C1753 C1754 1.362 . S
C1754 H1746 0.930 . S
C1754 C1753 1.362 . S
C1754 C1757 1.409 1_545 S
C1755 H1747 0.930 . S
C1755 C1756 1.355 . S
C1755 C1757 1.415 . S
C1756 C1755 1.355 . S
C1756 C1758 1.419 . S
C1757 C1752 1.425 . S
C1757 C1754 1.409 1_565 S
C1757 C1755 1.415 . S
C1758 H1748 0.930 . S
C1758 C1756 1.419 . S
C1758 C1759 1.362 . S
C1759 H1749 0.930 . S
C1759 C1752 1.409 . S
C1759 C1758 1.362 . S
H1760 C1766 0.930 . S
H1761 C1769 0.930 . S
H1762 C1770 0.930 . S
H1763 C1771 0.930 . S
H1764 C1774 0.930 . S
H1765 C1775 0.930 . S
C1766 H1760 0.930 . S
C1766 C1767 1.355 . S
C1766 C1768 1.415 1_565 S
C1767 C1766 1.355 . S
C1767 C1769 1.419 1_565 S
C1768 C1766 1.415 1_545 S
C1768 C1773 1.425 . S
C1768 C1775 1.409 1_545 S
C1769 H1761 0.930 . S
C1769 C1767 1.419 1_545 S
C1769 C1770 1.362 . S
C1770 H1762 0.930 . S
C1770 C1769 1.362 . S
C1770 C1773 1.409 . S
C1771 H1763 0.930 . S
C1771 C1772 1.355 . S
C1771 C1773 1.415 . S
C1772 C1771 1.355 . S
C1772 C1774 1.419 . S
C1773 C1768 1.425 . S
C1773 C1770 1.409 . S
C1773 C1771 1.415 . S
C1774 H1764 0.930 . S
C1774 C1772 1.419 . S
C1774 C1775 1.362 1_545 S
C1775 H1765 0.930 . S
C1775 C1768 1.409 1_565 S
C1775 C1774 1.362 1_565 S
H1776 C1782 0.930 1_565 S
H1777 C1785 0.930 . S
H1778 C1786 0.930 . S
H1779 C1787 0.930 . S
H1780 C1790 0.930 . S
H1781 C1791 0.930 . S
C1782 H1776 0.930 1_545 S
C1782 C1783 1.355 1_545 S
C1782 C1784 1.415 . S
C1783 C1782 1.355 1_565 S
C1783 C1785 1.419 . S
C1784 C1782 1.415 . S
C1784 C1789 1.425 . S
C1784 C1791 1.409 . S
C1785 H1777 0.930 . S
C1785 C1783 1.419 . S
C1785 C1786 1.362 1_565 S
C1786 H1778 0.930 . S
C1786 C1785 1.362 1_545 S
C1786 C1789 1.409 . S
C1787 H1779 0.930 . S
C1787 C1788 1.355 . S
C1787 C1789 1.415 . S
C1788 C1787 1.355 . S
C1788 C1790 1.419 . S
C1789 C1784 1.425 . S
C1789 C1786 1.409 . S
C1789 C1787 1.415 . S
C1790 H1780 0.930 . S
C1790 C1788 1.419 . S
C1790 C1791 1.362 . S
C1791 H1781 0.930 . S
C1791 C1784 1.409 . S
C1791 C1790 1.362 . S
H1792 C1798 0.930 . S
H1793 C1801 0.930 . S
H1794 C1802 0.930 . S
H1795 C1803 0.930 . S
H1796 C1806 0.930 . S
H1797 C1807 0.930 . S
C1798 H1792 0.930 . S
C1798 C1799 1.355 . S
C1798 C1800 1.415 . S
C1799 C1798 1.355 . S
C1799 C1801 1.419 . S
C1800 C1798 1.415 . S
C1800 C1805 1.425 . S
C1800 C1807 1.409 . S
C1801 H1793 0.930 . S
C1801 C1799 1.419 . S
C1801 C1802 1.362 . S
C1802 H1794 0.930 . S
C1802 C1801 1.362 . S
C1802 C1805 1.409 . S
C1803 H1795 0.930 . S
C1803 C1804 1.355 . S
C1803 C1805 1.415 . S
C1804 C1803 1.355 . S
C1804 C1806 1.419 . S
C1805 C1800 1.425 . S
C1805 C1802 1.409 . S
C1805 C1803 1.415 . S
C1806 H1796 0.930 . S
C1806 C1804 1.419 . S
C1806 C1807 1.362 . S
C1807 H1797 0.930 . S
C1807 C1800 1.409 . S
C1807 C1806 1.362 . S
H1808 C1814 0.930 . S
H1809 C1817 0.930 . S
H1810 C1818 0.930 . S
H1811 C1819 0.930 . S
H1812 C1822 0.930 . S
H1813 C1823 0.930 . S
C1814 H1808 0.930 . S
C1814 C1815 1.355 . S
C1814 C1816 1.415 . S
C1815 C1814 1.355 . S
C1815 C1817 1.419 . S
C1816 C1814 1.415 . S
C1816 C1821 1.425 . S
C1816 C1823 1.409 . S
C1817 H1809 0.930 . S
C1817 C1815 1.419 . S
C1817 C1818 1.362 . S
C1818 H1810 0.930 . S
C1818 C1817 1.362 . S
C1818 C1821 1.409 . S
C1819 H1811 0.930 . S
C1819 C1820 1.355 . S
C1819 C1821 1.415 . S
C1820 C1819 1.355 . S
C1820 C1822 1.419 . S
C1821 C1816 1.425 . S
C1821 C1818 1.409 . S
C1821 C1819 1.415 . S
C1822 H1812 0.930 . S
C1822 C1820 1.419 . S
C1822 C1823 1.362 . S
C1823 H1813 0.930 . S
C1823 C1816 1.409 . S
C1823 C1822 1.362 . S
H1824 C1830 0.930 . S
H1825 C1833 0.930 . S
H1826 C1834 0.930 . S
H1827 C1835 0.930 . S
H1828 C1838 0.930 . S
H1829 C1839 0.930 . S
C1830 H1824 0.930 . S
C1830 C1831 1.355 . S
C1830 C1832 1.415 . S
C1831 C1830 1.355 . S
C1831 C1833 1.419 . S
C1832 C1830 1.415 . S
C1832 C1837 1.425 . S
C1832 C1839 1.409 . S
C1833 H1825 0.930 . S
C1833 C1831 1.419 . S
C1833 C1834 1.362 . S
C1834 H1826 0.930 . S
C1834 C1833 1.362 . S
C1834 C1837 1.409 . S
C1835 H1827 0.930 . S
C1835 C1836 1.355 . S
C1835 C1837 1.415 . S
C1836 C1835 1.355 . S
C1836 C1838 1.419 . S
C1837 C1832 1.425 . S
C1837 C1834 1.409 . S
C1837 C1835 1.415 . S
C1838 H1828 0.930 . S
C1838 C1836 1.419 . S
C1838 C1839 1.362 . S
C1839 H1829 0.930 . S
C1839 C1832 1.409 . S
C1839 C1838 1.362 . S
H1840 C1846 0.930 . S
H1841 C1849 0.930 . S
H1842 C1850 0.930 . S
H1843 C1851 0.930 . S
H1844 C1854 0.930 . S
H1845 C1855 0.930 . S
C1846 H1840 0.930 . S
C1846 C1847 1.355 . S
C1846 C1848 1.415 . S
C1847 C1846 1.355 . S
C1847 C1849 1.419 . S
C1848 C1846 1.415 . S
C1848 C1853 1.425 . S
C1848 C1855 1.409 . S
C1849 H1841 0.930 . S
C1849 C1847 1.419 . S
C1849 C1850 1.362 . S
C1850 H1842 0.930 . S
C1850 C1849 1.362 . S
C1850 C1853 1.409 . S
C1851 H1843 0.930 . S
C1851 C1852 1.355 . S
C1851 C1853 1.415 . S
C1852 C1851 1.355 . S
C1852 C1854 1.419 . S
C1853 C1848 1.425 . S
C1853 C1850 1.409 . S
C1853 C1851 1.415 . S
C1854 H1844 0.930 . S
C1854 C1852 1.419 . S
C1854 C1855 1.362 . S
C1855 H1845 0.930 . S
C1855 C1848 1.409 . S
C1855 C1854 1.362 . S
H1856 C1862 0.930 . S
H1857 C1865 0.930 . S
H1858 C1866 0.930 . S
H1859 C1867 0.930 . S
H1860 C1870 0.930 . S
H1861 C1871 0.930 . S
C1862 H1856 0.930 . S
C1862 C1863 1.355 . S
C1862 C1864 1.415 . S
C1863 C1862 1.355 . S
C1863 C1865 1.419 . S
C1864 C1862 1.415 . S
C1864 C1869 1.425 . S
C1864 C1871 1.409 . S
C1865 H1857 0.930 . S
C1865 C1863 1.419 . S
C1865 C1866 1.362 . S
C1866 H1858 0.930 . S
C1866 C1865 1.362 . S
C1866 C1869 1.409 . S
C1867 H1859 0.930 . S
C1867 C1868 1.355 . S
C1867 C1869 1.415 . S
C1868 C1867 1.355 . S
C1868 C1870 1.419 . S
C1869 C1864 1.425 . S
C1869 C1866 1.409 . S
C1869 C1867 1.415 . S
C1870 H1860 0.930 . S
C1870 C1868 1.419 . S
C1870 C1871 1.362 . S
C1871 H1861 0.930 . S
C1871 C1864 1.409 . S
C1871 C1870 1.362 . S
H1872 C1878 0.930 . S
H1873 C1881 0.930 . S
H1874 C1882 0.930 . S
H1875 C1883 0.930 . S
H1876 C1886 0.930 . S
H1877 C1887 0.930 . S
C1878 H1872 0.930 . S
C1878 C1879 1.355 . S
C1878 C1880 1.415 . S
C1879 C1878 1.355 . S
C1879 C1881 1.419 . S
C1880 C1878 1.415 . S
C1880 C1885 1.425 . S
C1880 C1887 1.409 . S
C1881 H1873 0.930 . S
C1881 C1879 1.419 . S
C1881 C1882 1.362 . S
C1882 H1874 0.930 . S
C1882 C1881 1.362 . S
C1882 C1885 1.409 . S
C1883 H1875 0.930 . S
C1883 C1884 1.355 . S
C1883 C1885 1.415 . S
C1884 C1883 1.355 . S
C1884 C1886 1.419 . S
C1885 C1880 1.425 . S
C1885 C1882 1.409 . S
C1885 C1883 1.415 . S
C1886 H1876 0.930 . S
C1886 C1884 1.419 . S
C1886 C1887 1.362 . S
C1887 H1877 0.930 . S
C1887 C1880 1.409 . S
C1887 C1886 1.362 . S
H1888 C1894 0.930 . S
H1889 C1897 0.930 . S
H1890 C1898 0.930 . S
H1891 C1899 0.930 . S
H1892 C1902 0.930 . S
H1893 C1903 0.930 . S
C1894 H1888 0.930 . S
C1894 C1895 1.355 . S
C1894 C1896 1.415 . S
C1895 C1894 1.355 . S
C1895 C1897 1.419 . S
C1896 C1894 1.415 . S
C1896 C1901 1.425 . S
C1896 C1903 1.409 . S
C1897 H1889 0.930 . S
C1897 C1895 1.419 . S
C1897 C1898 1.362 . S
C1898 H1890 0.930 . S
C1898 C1897 1.362 . S
C1898 C1901 1.409 . S
C1899 H1891 0.930 . S
C1899 C1900 1.355 . S
C1899 C1901 1.415 . S
C1900 C1899 1.355 . S
C1900 C1902 1.419 . S
C1901 C1896 1.425 . S
C1901 C1898 1.409 . S
C1901 C1899 1.415 . S
C1902 H1892 0.930 . S
C1902 C1900 1.419 . S
C1902 C1903 1.362 . S
C1903 H1893 0.930 . S
C1903 C1896 1.409 . S
C1903 C1902 1.362 . S
H1904 C1910 0.930 . S
H1905 C1913 0.930 . S
H1906 C1914 0.930 . S
H1907 C1915 0.930 . S
H1908 C1918 0.930 . S
H1909 C1919 0.930 . S
C1910 H1904 0.930 . S
C1910 C1911 1.355 . S
C1910 C1912 1.415 . S
C1911 C1910 1.355 . S
C1911 C1913 1.419 . S
C1912 C1910 1.415 . S
C1912 C1917 1.425 . S
C1912 C1919 1.409 . S
C1913 H1905 0.930 . S
C1913 C1911 1.419 . S
C1913 C1914 1.362 . S
C1914 H1906 0.930 . S
C1914 C1913 1.362 . S
C1914 C1917 1.409 . S
C1915 H1907 0.930 . S
C1915 C1916 1.355 . S
C1915 C1917 1.415 . S
C1916 C1915 1.355 . S
C1916 C1918 1.419 . S
C1917 C1912 1.425 . S
C1917 C1914 1.409 . S
C1917 C1915 1.415 . S
C1918 H1908 0.930 . S
C1918 C1916 1.419 . S
C1918 C1919 1.362 . S
C1919 H1909 0.930 . S
C1919 C1912 1.409 . S
C1919 C1918 1.362 . S
H1920 C1926 0.930 . S
H1921 C1929 0.930 . S
H1922 C1930 0.930 . S
H1923 C1931 0.930 . S
H1924 C1934 0.930 . S
H1925 C1935 0.930 . S
C1926 H1920 0.930 . S
C1926 C1927 1.355 . S
C1926 C1928 1.415 . S
C1927 C1926 1.355 . S
C1927 C1929 1.419 . S
C1928 C1926 1.415 . S
C1928 C1933 1.425 1_545 S
C1928 C1935 1.409 1_545 S
C1929 H1921 0.930 . S
C1929 C1927 1.419 . S
C1929 C1930 1.362 . S
C1930 H1922 0.930 . S
C1930 C1929 1.362 . S
C1930 C1933 1.409 1_545 S
C1931 H1923 0.930 . S
C1931 C1932 1.355 . S
C1931 C1933 1.415 . S
C1932 C1931 1.355 . S
C1932 C1934 1.419 . S
C1933 C1928 1.425 1_565 S
C1933 C1930 1.409 1_565 S
C1933 C1931 1.415 . S
C1934 H1924 0.930 . S
C1934 C1932 1.419 . S
C1934 C1935 1.362 . S
C1935 H1925 0.930 . S
C1935 C1928 1.409 1_565 S
C1935 C1934 1.362 . S
H1936 C1942 0.930 . S
H1937 C1945 0.930 . S
H1938 C1946 0.930 . S
H1939 C1947 0.930 . S
H1940 C1950 0.930 . S
H1941 C1951 0.930 . S
C1942 H1936 0.930 . S
C1942 C1943 1.355 . S
C1942 C1944 1.415 . S
C1943 C1942 1.355 . S
C1943 C1945 1.419 . S
C1944 C1942 1.415 . S
C1944 C1949 1.425 . S
C1944 C1951 1.409 . S
C1945 H1937 0.930 . S
C1945 C1943 1.419 . S
C1945 C1946 1.362 . S
C1946 H1938 0.930 . S
C1946 C1945 1.362 . S
C1946 C1949 1.409 . S
C1947 H1939 0.930 . S
C1947 C1948 1.355 . S
C1947 C1949 1.415 . S
C1948 C1947 1.355 . S
C1948 C1950 1.419 . S
C1949 C1944 1.425 . S
C1949 C1946 1.409 . S
C1949 C1947 1.415 . S
C1950 H1940 0.930 . S
C1950 C1948 1.419 . S
C1950 C1951 1.362 . S
C1951 H1941 0.930 . S
C1951 C1944 1.409 . S
C1951 C1950 1.362 . S
H1952 C1958 0.930 . S
H1953 C1961 0.930 . S
H1954 C1962 0.930 . S
H1955 C1963 0.930 . S
H1956 C1966 0.930 . S
H1957 C1967 0.930 . S
C1958 H1952 0.930 . S
C1958 C1959 1.355 . S
C1958 C1960 1.415 . S
C1959 C1958 1.355 . S
C1959 C1961 1.419 . S
C1960 C1958 1.415 . S
C1960 C1965 1.425 1_545 S
C1960 C1967 1.409 . S
C1961 H1953 0.930 . S
C1961 C1959 1.419 . S
C1961 C1962 1.362 1_545 S
C1962 H1954 0.930 . S
C1962 C1961 1.362 1_565 S
C1962 C1965 1.409 . S
C1963 H1955 0.930 . S
C1963 C1964 1.355 . S
C1963 C1965 1.415 . S
C1964 C1963 1.355 . S
C1964 C1966 1.419 . S
C1965 C1960 1.425 1_565 S
C1965 C1962 1.409 . S
C1965 C1963 1.415 . S
C1966 H1956 0.930 . S
C1966 C1964 1.419 . S
C1966 C1967 1.362 1_565 S
C1967 H1957 0.930 . S
C1967 C1960 1.409 . S
C1967 C1966 1.362 1_545 S
H1968 C1974 0.930 . S
H1969 C1977 0.930 . S
H1970 C1978 0.930 . S
H1971 C1979 0.930 . S
H1972 C1982 0.930 . S
H1973 C1983 0.930 . S
C1974 H1968 0.930 . S
C1974 C1975 1.355 . S
C1974 C1976 1.415 1_556 S
C1975 C1974 1.355 . S
C1975 C1977 1.419 . S
C1976 C1974 1.415 1_554 S
C1976 C1981 1.425 1_554 S
C1976 C1983 1.409 . S
C1977 H1969 0.930 . S
C1977 C1975 1.419 . S
C1977 C1978 1.362 . S
C1978 H1970 0.930 . S
C1978 C1977 1.362 . S
C1978 C1981 1.409 . S
C1979 H1971 0.930 . S
C1979 C1980 1.355 . S
C1979 C1981 1.415 1_554 S
C1980 C1979 1.355 . S
C1980 C1982 1.419 . S
C1981 C1976 1.425 1_556 S
C1981 C1978 1.409 . S
C1981 C1979 1.415 1_556 S
C1982 H1972 0.930 . S
C1982 C1980 1.419 . S
C1982 C1983 1.362 . S
C1983 H1973 0.930 . S
C1983 C1976 1.409 . S
C1983 C1982 1.362 . S
H1984 C1990 0.930 . S
H1985 C1993 0.930 . S
H1986 C1994 0.930 . S
H1987 C1995 0.930 . S
H1988 C1998 0.930 . S
H1989 C1999 0.930 . S
C1990 H1984 0.930 . S
C1990 C1991 1.355 . S
C1990 C1992 1.415 . S
C1991 C1990 1.355 . S
C1991 C1993 1.419 . S
C1992 C1990 1.415 . S
C1992 C1997 1.425 1_565 S
C1992 C1999 1.409 1_565 S
C1993 H1985 0.930 . S
C1993 C1991 1.419 . S
C1993 C1994 1.362 . S
C1994 H1986 0.930 . S
C1994 C1993 1.362 . S
C1994 C1997 1.409 1_565 S
C1995 H1987 0.930 . S
C1995 C1996 1.355 . S
C1995 C1997 1.415 . S
C1996 C1995 1.355 . S
C1996 C1998 1.419 . S
C1997 C1992 1.425 1_545 S
C1997 C1994 1.409 1_545 S
C1997 C1995 1.415 . S
C1998 H1988 0.930 . S
C1998 C1996 1.419 . S
C1998 C1999 1.362 . S
C1999 H1989 0.930 . S
C1999 C1992 1.409 1_545 S
C1999 C1998 1.362 . S
H2000 C2006 0.930 . S
H2001 C2009 0.930 . S
H2002 C2010 0.930 . S
H2003 C2011 0.930 . S
H2004 C2014 0.930 . S
H2005 C2015 0.930 . S
C2006 H2000 0.930 . S
C2006 C2007 1.355 . S
C2006 C2008 1.415 . S
C2007 C2006 1.355 . S
C2007 C2009 1.419 . S
C2008 C2006 1.415 . S
C2008 C2013 1.425 . S
C2008 C2015 1.409 . S
C2009 H2001 0.930 . S
C2009 C2007 1.419 . S
C2009 C2010 1.362 . S
C2010 H2002 0.930 . S
C2010 C2009 1.362 . S
C2010 C2013 1.409 . S
C2011 H2003 0.930 . S
C2011 C2012 1.355 . S
C2011 C2013 1.415 . S
C2012 C2011 1.355 . S
C2012 C2014 1.419 . S
C2013 C2008 1.425 . S
C2013 C2010 1.409 . S
C2013 C2011 1.415 . S
C2014 H2004 0.930 . S
C2014 C2012 1.419 . S
C2014 C2015 1.362 . S
C2015 H2005 0.930 . S
C2015 C2008 1.409 . S
C2015 C2014 1.362 . S
H2016 C2022 0.930 . S
H2017 C2025 0.930 . S
H2018 C2026 0.930 . S
H2019 C2027 0.930 . S
H2020 C2030 0.930 . S
H2021 C2031 0.930 . S
C2022 H2016 0.930 . S
C2022 C2023 1.355 . S
C2022 C2024 1.415 . S
C2023 C2022 1.355 . S
C2023 C2025 1.419 . S
C2024 C2022 1.415 . S
C2024 C2029 1.425 1_565 S
C2024 C2031 1.409 . S
C2025 H2017 0.930 . S
C2025 C2023 1.419 . S
C2025 C2026 1.362 1_565 S
C2026 H2018 0.930 . S
C2026 C2025 1.362 1_545 S
C2026 C2029 1.409 . S
C2027 H2019 0.930 . S
C2027 C2028 1.355 . S
C2027 C2029 1.415 . S
C2028 C2027 1.355 . S
C2028 C2030 1.419 . S
C2029 C2024 1.425 1_545 S
C2029 C2026 1.409 . S
C2029 C2027 1.415 . S
C2030 H2020 0.930 . S
C2030 C2028 1.419 . S
C2030 C2031 1.362 1_545 S
C2031 H2021 0.930 . S
C2031 C2024 1.409 . S
C2031 C2030 1.362 1_565 S
H2032 C2038 0.930 . S
H2033 C2041 0.930 . S
H2034 C2042 0.930 1_556 S
H2035 C2043 0.930 . S
H2036 C2046 0.930 . S
H2037 C2047 0.930 1_554 S
C2038 H2032 0.930 . S
C2038 C2039 1.355 . S
C2038 C2040 1.415 . S
C2039 C2038 1.355 . S
C2039 C2041 1.419 . S
C2040 C2038 1.415 . S
C2040 C2045 1.425 1_554 S
C2040 C2047 1.409 1_554 S
C2041 H2033 0.930 . S
C2041 C2039 1.419 . S
C2041 C2042 1.362 . S
C2042 H2034 0.930 1_554 S
C2042 C2041 1.362 . S
C2042 C2045 1.409 1_554 S
C2043 H2035 0.930 . S
C2043 C2044 1.355 . S
C2043 C2045 1.415 . S
C2044 C2043 1.355 . S
C2044 C2046 1.419 . S
C2045 C2040 1.425 1_556 S
C2045 C2042 1.409 1_556 S
C2045 C2043 1.415 . S
C2046 H2036 0.930 . S
C2046 C2044 1.419 . S
C2046 C2047 1.362 . S
C2047 H2037 0.930 1_556 S
C2047 C2040 1.409 1_556 S
C2047 C2046 1.362 . S
H2048 C2054 0.930 . S
H2049 C2057 0.930 . S
H2050 C2058 0.930 . S
H2051 C2059 0.930 . S
H2052 C2062 0.930 . S
H2053 C2063 0.930 . S
C2054 H2048 0.930 . S
C2054 C2055 1.355 . S
C2054 C2056 1.415 . S
C2055 C2054 1.355 . S
C2055 C2057 1.419 . S
C2056 C2054 1.415 . S
C2056 C2061 1.425 . S
C2056 C2063 1.409 . S
C2057 H2049 0.930 . S
C2057 C2055 1.419 . S
C2057 C2058 1.362 . S
C2058 H2050 0.930 . S
C2058 C2057 1.362 . S
C2058 C2061 1.409 . S
C2059 H2051 0.930 . S
C2059 C2060 1.355 . S
C2059 C2061 1.415 . S
C2060 C2059 1.355 . S
C2060 C2062 1.419 . S
C2061 C2056 1.425 . S
C2061 C2058 1.409 . S
C2061 C2059 1.415 . S
C2062 H2052 0.930 . S
C2062 C2060 1.419 . S
C2062 C2063 1.362 . S
C2063 H2053 0.930 . S
C2063 C2056 1.409 . S
C2063 C2062 1.362 . S
H2064 C2070 0.930 . S
H2065 C2073 0.930 . S
H2066 C2074 0.930 . S
H2067 C2075 0.930 . S
H2068 C2078 0.930 . S
H2069 C2079 0.930 . S
C2070 H2064 0.930 . S
C2070 C2071 1.355 . S
C2070 C2072 1.415 . S
C2071 C2070 1.355 . S
C2071 C2073 1.419 . S
C2072 C2070 1.415 . S
C2072 C2077 1.425 1_556 S
C2072 C2079 1.409 . S
C2073 H2065 0.930 . S
C2073 C2071 1.419 . S
C2073 C2074 1.362 1_556 S
C2074 H2066 0.930 . S
C2074 C2073 1.362 1_554 S
C2074 C2077 1.409 . S
C2075 H2067 0.930 . S
C2075 C2076 1.355 . S
C2075 C2077 1.415 . S
C2076 C2075 1.355 . S
C2076 C2078 1.419 . S
C2077 C2072 1.425 1_554 S
C2077 C2074 1.409 . S
C2077 C2075 1.415 . S
C2078 H2068 0.930 . S
C2078 C2076 1.419 . S
C2078 C2079 1.362 1_554 S
C2079 H2069 0.930 . S
C2079 C2072 1.409 . S
C2079 C2078 1.362 1_556 S
H2080 C2086 0.930 . S
H2081 C2089 0.930 . S
H2082 C2090 0.930 . S
H2083 C2091 0.930 . S
H2084 C2094 0.930 . S
H2085 C2095 0.930 . S
C2086 H2080 0.930 . S
C2086 C2087 1.355 . S
C2086 C2088 1.415 . S
C2087 C2086 1.355 . S
C2087 C2089 1.419 . S
C2088 C2086 1.415 . S
C2088 C2093 1.425 . S
C2088 C2095 1.409 . S
C2089 H2081 0.930 . S
C2089 C2087 1.419 . S
C2089 C2090 1.362 . S
C2090 H2082 0.930 . S
C2090 C2089 1.362 . S
C2090 C2093 1.409 . S
C2091 H2083 0.930 . S
C2091 C2092 1.355 . S
C2091 C2093 1.415 . S
C2092 C2091 1.355 . S
C2092 C2094 1.419 . S
C2093 C2088 1.425 . S
C2093 C2090 1.409 . S
C2093 C2091 1.415 . S
C2094 H2084 0.930 . S
C2094 C2092 1.419 . S
C2094 C2095 1.362 . S
C2095 H2085 0.930 . S
C2095 C2088 1.409 . S
C2095 C2094 1.362 . S
H2096 C2102 0.930 . S
H2097 C2105 0.930 . S
H2098 C2106 0.930 . S
H2099 C2107 0.930 . S
H2100 C2110 0.930 . S
H2101 C2111 0.930 . S
C2102 H2096 0.930 . S
C2102 C2103 1.355 . S
C2102 C2104 1.415 . S
C2103 C2102 1.355 . S
C2103 C2105 1.419 . S
C2104 C2102 1.415 . S
C2104 C2109 1.425 . S
C2104 C2111 1.409 . S
C2105 H2097 0.930 . S
C2105 C2103 1.419 . S
C2105 C2106 1.362 . S
C2106 H2098 0.930 . S
C2106 C2105 1.362 . S
C2106 C2109 1.409 . S
C2107 H2099 0.930 . S
C2107 C2108 1.355 . S
C2107 C2109 1.415 . S
C2108 C2107 1.355 . S
C2108 C2110 1.419 . S
C2109 C2104 1.425 . S
C2109 C2106 1.409 . S
C2109 C2107 1.415 . S
C2110 H2100 0.930 . S
C2110 C2108 1.419 . S
C2110 C2111 1.362 . S
C2111 H2101 0.930 . S
C2111 C2104 1.409 . S
C2111 C2110 1.362 . S
H2112 C2118 0.930 . S
H2113 C2121 0.930 . S
H2114 C2122 0.930 . S
H2115 C2123 0.930 . S
H2116 C2126 0.930 . S
H2117 C2127 0.930 . S
C2118 H2112 0.930 . S
C2118 C2119 1.355 . S
C2118 C2120 1.415 . S
C2119 C2118 1.355 . S
C2119 C2121 1.419 . S
C2120 C2118 1.415 . S
C2120 C2125 1.425 . S
C2120 C2127 1.409 . S
C2121 H2113 0.930 . S
C2121 C2119 1.419 . S
C2121 C2122 1.362 . S
C2122 H2114 0.930 . S
C2122 C2121 1.362 . S
C2122 C2125 1.409 . S
C2123 H2115 0.930 . S
C2123 C2124 1.355 . S
C2123 C2125 1.415 . S
C2124 C2123 1.355 . S
C2124 C2126 1.419 . S
C2125 C2120 1.425 . S
C2125 C2122 1.409 . S
C2125 C2123 1.415 . S
C2126 H2116 0.930 . S
C2126 C2124 1.419 . S
C2126 C2127 1.362 . S
C2127 H2117 0.930 . S
C2127 C2120 1.409 . S
C2127 C2126 1.362 . S
H2128 C2134 0.930 . S
H2129 C2137 0.930 . S
H2130 C2138 0.930 . S
H2131 C2139 0.930 . S
H2132 C2142 0.930 . S
H2133 C2143 0.930 . S
C2134 H2128 0.930 . S
C2134 C2135 1.355 . S
C2134 C2136 1.415 1_556 S
C2135 C2134 1.355 . S
C2135 C2137 1.419 . S
C2136 C2134 1.415 1_554 S
C2136 C2141 1.425 1_554 S
C2136 C2143 1.409 . S
C2137 H2129 0.930 . S
C2137 C2135 1.419 . S
C2137 C2138 1.362 . S
C2138 H2130 0.930 . S
C2138 C2137 1.362 . S
C2138 C2141 1.409 . S
C2139 H2131 0.930 . S
C2139 C2140 1.355 . S
C2139 C2141 1.415 1_554 S
C2140 C2139 1.355 . S
C2140 C2142 1.419 . S
C2141 C2136 1.425 1_556 S
C2141 C2138 1.409 . S
C2141 C2139 1.415 1_556 S
C2142 H2132 0.930 . S
C2142 C2140 1.419 . S
C2142 C2143 1.362 . S
C2143 H2133 0.930 . S
C2143 C2136 1.409 . S
C2143 C2142 1.362 . S
H2144 C2150 0.930 . S
H2145 C2153 0.930 . S
H2146 C2154 0.930 . S
H2147 C2155 0.930 . S
H2148 C2158 0.930 . S
H2149 C2159 0.930 . S
C2150 H2144 0.930 . S
C2150 C2151 1.355 . S
C2150 C2152 1.415 . S
C2151 C2150 1.355 . S
C2151 C2153 1.419 . S
C2152 C2150 1.415 . S
C2152 C2157 1.425 . S
C2152 C2159 1.409 . S
C2153 H2145 0.930 . S
C2153 C2151 1.419 . S
C2153 C2154 1.362 . S
C2154 H2146 0.930 . S
C2154 C2153 1.362 . S
C2154 C2157 1.409 . S
C2155 H2147 0.930 . S
C2155 C2156 1.355 . S
C2155 C2157 1.415 . S
C2156 C2155 1.355 . S
C2156 C2158 1.419 . S
C2157 C2152 1.425 . S
C2157 C2154 1.409 . S
C2157 C2155 1.415 . S
C2158 H2148 0.930 . S
C2158 C2156 1.419 . S
C2158 C2159 1.362 . S
C2159 H2149 0.930 . S
C2159 C2152 1.409 . S
C2159 C2158 1.362 . S
H2160 C2166 0.930 . S
H2161 C2169 0.930 . S
H2162 C2170 0.930 . S
H2163 C2171 0.930 . S
H2164 C2174 0.930 . S
H2165 C2175 0.930 . S
C2166 H2160 0.930 . S
C2166 C2167 1.355 . S
C2166 C2168 1.415 . S
C2167 C2166 1.355 . S
C2167 C2169 1.419 . S
C2168 C2166 1.415 . S
C2168 C2173 1.425 . S
C2168 C2175 1.409 . S
C2169 H2161 0.930 . S
C2169 C2167 1.419 . S
C2169 C2170 1.362 . S
C2170 H2162 0.930 . S
C2170 C2169 1.362 . S
C2170 C2173 1.409 . S
C2171 H2163 0.930 . S
C2171 C2172 1.355 . S
C2171 C2173 1.415 . S
C2172 C2171 1.355 . S
C2172 C2174 1.419 . S
C2173 C2168 1.425 . S
C2173 C2170 1.409 . S
C2173 C2171 1.415 . S
C2174 H2164 0.930 . S
C2174 C2172 1.419 . S
C2174 C2175 1.362 . S
C2175 H2165 0.930 . S
C2175 C2168 1.409 . S
C2175 C2174 1.362 . S
C647 C8 0.752 . S
C652 C546 0.628 . S
C663 C28 0.655 . S
C668 C166 0.669 . S
C679 C48 0.654 . S
C684 C506 0.521 . S
C695 C206 0.588 . S
C700 C68 0.523 . S
C711 C88 0.662 . S
C716 C586 0.524 . S
C727 C286 0.655 . S
C732 C108 0.740 . S
C743 C626 0.671 . S
C748 C128 0.698 . S
C759 C148 0.663 . S
C764 C246 0.670 . S
C775 C179 0.714 . S
C780 C396 0.557 . S
C791 C199 0.751 . S
C796 C16 0.635 . S
C807 C356 0.660 . S
C812 C219 0.622 . S
C823 C56 0.671 . S
C828 C239 0.699 . S
C839 C259 0.741 . S
C844 C436 0.653 . S
C855 C279 0.552 . S
C860 C136 0.522 . S
C871 C299 0.742 . S
C876 C476 0.653 . S
C887 C96 0.610 . S
C892 C319 0.749 . S
C903 C226 0.669 . S
C908 C328 0.657 . S
C919 C486 0.514 . S
C924 C348 0.577 . S
C935 C186 0.643 . S
C940 C368 0.748 . S
C951 C388 0.703 . S
C956 C526 0.671 . S
C967 C266 0.529 . S
C972 C408 0.541 . S
C983 C606 0.525 . S
C988 C428 0.546 . S
C999 C306 0.512 . S
C1004 C448 0.601 . S
C1015 C468 0.657 . S
C1020 C566 0.669 . S
C1031 C499 0.577 . S
C1036 C76 0.514 . S
C1047 C519 0.586 . S
C1052 C336 0.513 . S
C1063 C539 0.659 . S
C1068 C36 0.523 . S
C1079 C559 0.525 . S
C1084 C376 0.545 . S
C1095 C116 0.513 . S
C1100 C579 0.616 . S
C1111 C456 0.639 . S
C1116 C599 0.750 . S
C1127 C619 0.742 . S
C1132 C156 0.591 . S
C1143 C639 0.711 . S
C1148 C416 0.669 . S
C1159 C9 1.102 . S
C1164 C369 1.108 . S
C1175 C389 1.125 . S
C1180 C29 1.121 . S
C1191 C49 1.126 . S
C1196 C329 1.122 . S
C1207 C69 1.127 . S
C1212 C349 1.128 . S
C1223 C449 1.094 . S
C1228 C89 1.098 . S
C1239 C109 1.128 . S
C1244 C469 1.126 . S
C1255 C409 1.116 . S
C1260 C129 1.121 . S
C1271 C149 1.096 . S
C1276 C429 1.100 . S
C1287 C521 1.125 . S
C1292 C161 1.121 . S
C1303 C181 1.126 . S
C1308 C541 1.123 . S
C1319 C201 1.115 . S
C1324 C481 1.120 . S
C1335 C221 1.127 . S
C1340 C501 1.125 . S
C1351 C601 1.126 . S
C1356 C241 1.128 . S
C1367 C621 1.101 . S
C1372 C261 1.097 . S
C1383 C281 1.127 . S
C1388 C561 1.128 . S
C1399 C301 1.128 . S
C1404 C581 1.127 . S
C1415 C6 1.473 . S
C1420 C496 1.473 . S
C1431 C196 1.517 . S
C1436 C26 1.517 . S
C1447 C46 1.500 . S
C1452 C536 1.500 . S
C1463 C66 1.470 . S
C1468 C236 1.470 . S
C1479 C576 1.476 . S
C1484 C86 1.476 . S
C1495 C276 1.576 . S
C1500 C106 1.576 . S
C1511 C126 1.551 . S
C1516 C616 1.551 . S
C1527 C146 1.483 . S
C1532 C316 1.483 . S
C1543 C326 1.558 . S
C1548 C176 1.558 . S
C1559 C366 1.523 . S
C1564 C216 1.523 . S
C1575 C406 1.486 . S
C1580 C256 1.486 . S
C1591 C296 1.574 . S
C1596 C446 1.574 . S
C1607 C346 1.548 . S
C1612 C516 1.548 . S
C1623 C386 1.581 . S
C1628 C556 1.581 . S
C1639 C596 1.472 . S
C1644 C426 1.472 . S
C1655 C636 1.470 . S
C1660 C466 1.470 . S
C1671 C1 2.652 . S
C1676 C101 2.651 . S
C1687 C121 2.656 . S
C1692 C21 2.655 . S
C1703 C141 2.672 . S
C1708 C41 2.670 . S
C1719 C81 2.691 . S
C1724 C61 2.693 . S
C1735 C169 2.660 . S
C1740 C269 2.662 . S
C1751 C189 2.648 . S
C1756 C289 2.649 . S
C1767 C309 2.704 . S
C1772 C209 2.704 . S
C1783 C229 2.690 . S
C1788 C249 2.692 . S
C1799 C321 2.681 . S
C1804 C421 2.682 . S
C1815 C341 2.649 . S
C1820 C441 2.650 . S
C1831 C361 2.694 . S
C1836 C461 2.695 . S
C1847 C401 2.649 . S
C1852 C381 2.649 . S
C1863 C489 2.650 . S
C1868 C589 2.650 . S
C1879 C509 2.663 . S
C1884 C609 2.661 . S
C1895 C629 2.675 . S
C1900 C529 2.677 . S
C1911 C549 2.694 . S
C1916 C569 2.695 . S
C1927 C19 2.670 . S
C1932 C99 2.629 . S
C1943 C39 2.678 . S
C1948 C119 2.635 . S
C1959 C139 2.631 . S
C1964 C59 2.662 . S
C1975 C159 2.644 . S
C1980 C79 2.642 . S
C1991 C168 2.630 . S
C1996 C248 2.674 . S
C2007 C268 2.660 . S
C2012 C188 2.670 . S
C2023 C288 2.659 . S
C2028 C208 2.632 . S
C2039 C308 2.678 . S
C2044 C228 2.644 . S
C2055 C339 2.678 . S
C2060 C419 2.635 . S
C2071 C439 2.676 . S
C2076 C359 2.651 . S
C2087 C379 2.661 . S
C2092 C459 2.631 . S
C2103 C479 2.677 . S
C2108 C399 2.633 . S
C2119 C568 2.661 . S
C2124 C488 2.631 . S
C2135 C508 2.653 . S
C2140 C588 2.635 . S
C2151 C528 2.653 . S
C2156 C608 2.674 . S
C2167 C548 2.679 . S
C2172 C628 2.640 . S
