# Generated by pormake.
# Topology wfz, (7)-cn, num edge types: 1
# Building blocks:
#     Node 0, Type 0, BuildingBlock: HICVOG_clean_sbu_0, # of connection points: 7
#     Node 1, Type 0, BuildingBlock: HICVOG_clean_sbu_0, # of connection points: 7
#     Node 2, Type 0, BuildingBlock: HICVOG_clean_sbu_0, # of connection points: 7
#     Node 3, Type 0, BuildingBlock: HICVOG_clean_sbu_0, # of connection points: 7
#     Node 4, Type 0, BuildingBlock: HICVOG_clean_sbu_0, # of connection points: 7
#     Node 5, Type 0, BuildingBlock: HICVOG_clean_sbu_0, # of connection points: 7
#     Node 6, Type 0, BuildingBlock: HICVOG_clean_sbu_0, # of connection points: 7
#     Node 7, Type 0, BuildingBlock: HICVOG_clean_sbu_0, # of connection points: 7
#     Edge 8, Type (0, 0), BuildingBlock: AJUNOK_clean_linker_0, # of connection points: 2
#     Edge 9, Type (0, 0), BuildingBlock: AJUNOK_clean_linker_0, # of connection points: 2
#     Edge 10, Type (0, 0), BuildingBlock: AJUNOK_clean_linker_0, # of connection points: 2
#     Edge 11, Type (0, 0), BuildingBlock: AJUNOK_clean_linker_0, # of connection points: 2
#     Edge 12, Type (0, 0), BuildingBlock: AJUNOK_clean_linker_0, # of connection points: 2
#     Edge 13, Type (0, 0), BuildingBlock: AJUNOK_clean_linker_0, # of connection points: 2
#     Edge 14, Type (0, 0), BuildingBlock: AJUNOK_clean_linker_0, # of connection points: 2
#     Edge 15, Type (0, 0), BuildingBlock: AJUNOK_clean_linker_0, # of connection points: 2
#     Edge 16, Type (0, 0), BuildingBlock: AJUNOK_clean_linker_0, # of connection points: 2
#     Edge 17, Type (0, 0), BuildingBlock: AJUNOK_clean_linker_0, # of connection points: 2
#     Edge 18, Type (0, 0), BuildingBlock: AJUNOK_clean_linker_0, # of connection points: 2
#     Edge 19, Type (0, 0), BuildingBlock: AJUNOK_clean_linker_0, # of connection points: 2
#     Edge 20, Type (0, 0), BuildingBlock: AJUNOK_clean_linker_0, # of connection points: 2
#     Edge 21, Type (0, 0), BuildingBlock: AJUNOK_clean_linker_0, # of connection points: 2
#     Edge 22, Type (0, 0), BuildingBlock: AJUNOK_clean_linker_0, # of connection points: 2
#     Edge 23, Type (0, 0), BuildingBlock: AJUNOK_clean_linker_0, # of connection points: 2
#     Edge 24, Type (0, 0), BuildingBlock: AJUNOK_clean_linker_0, # of connection points: 2
#     Edge 25, Type (0, 0), BuildingBlock: AJUNOK_clean_linker_0, # of connection points: 2
#     Edge 26, Type (0, 0), BuildingBlock: AJUNOK_clean_linker_0, # of connection points: 2
#     Edge 27, Type (0, 0), BuildingBlock: AJUNOK_clean_linker_0, # of connection points: 2
#     Edge 28, Type (0, 0), BuildingBlock: AJUNOK_clean_linker_0, # of connection points: 2
#     Edge 29, Type (0, 0), BuildingBlock: AJUNOK_clean_linker_0, # of connection points: 2
#     Edge 30, Type (0, 0), BuildingBlock: AJUNOK_clean_linker_0, # of connection points: 2
#     Edge 31, Type (0, 0), BuildingBlock: AJUNOK_clean_linker_0, # of connection points: 2
#     Edge 32, Type (0, 0), BuildingBlock: AJUNOK_clean_linker_0, # of connection points: 2
#     Edge 33, Type (0, 0), BuildingBlock: AJUNOK_clean_linker_0, # of connection points: 2
#     Edge 34, Type (0, 0), BuildingBlock: AJUNOK_clean_linker_0, # of connection points: 2
#     Edge 35, Type (0, 0), BuildingBlock: AJUNOK_clean_linker_0, # of connection points: 2
# Relax obj value: 0.185
# Max RMSD: 0.263
# Mean RMSD: 0.263
data_MOF--net-wfz--node1-HICVOG_clean_sbu_0--edge1-AJUNOK_clean_linker_0
_symmetry_space_group_name_H-M    P1
_symmetry_Int_Tables_number       1
_symmetry_cell_setting            triclinic
loop_
_symmetry_equiv_pos_as_xyz
'x, y, z'
_cell_length_a     18.124728
_cell_length_b     17.99354
_cell_length_c     48.64214
_cell_angle_alpha  89.278175
_cell_angle_beta   90.111452
_cell_angle_gamma 90.389755
loop_
_atom_site_label
_atom_site_type_symbol
_atom_site_fract_x
_atom_site_fract_y
_atom_site_fract_z
_atom_type_partial_charge
Zn0 Zn 0.2402 0.45495 0.40079 0.0
C1 C 0.39647 0.4307 0.45913 0.0
N2 N 0.40952 0.36694 0.44601 0.0
C3 C 0.36736 0.37207 0.42343 0.0
N4 N 0.32845 0.43563 0.42286 0.0
N5 N 0.34788 0.47401 0.44493 0.0
C6 C 0.30251 0.68632 0.49072 0.0
O7 O 0.28988 0.73268 0.4702 0.0
O8 O 0.23222 0.39317 0.36553 0.0
Zn9 Zn 0.33083 0.58195 0.44612 0.0
N10 N 0.15522 0.42977 0.42374 0.0
C11 C 0.0792 0.45086 0.46285 0.0
C12 C 0.14378 0.46507 0.44792 0.0
C13 C 0.10582 0.37869 0.41456 0.0
N14 N 0.02901 0.40093 0.45328 0.0
C15 C 0.04118 0.36403 0.42953 0.0
O16 O 0.23381 0.61577 0.42941 0.0
C17 C 0.2071 0.613 0.40522 0.0
O18 O 0.22523 0.56223 0.38873 0.0
H19 H 0.18407 0.50425 0.45552 0.0
H20 H 0.11616 0.35 0.39557 0.0
C21 C 0.45599 0.68255 0.42548 0.0
C22 C 0.50468 0.70179 0.40374 0.0
C23 C 0.44886 0.61039 0.37578 0.0
C24 C 0.4017 0.59105 0.39709 0.0
N25 N 0.40594 0.62623 0.42163 0.0
N26 N 0.49918 0.66482 0.37963 0.0
H27 H 0.45849 0.71097 0.44494 0.0
C28 C 0.18143 0.41478 0.34917 0.0
O29 O 0.14033 0.47096 0.35656 0.0
O30 O 0.32444 0.62092 0.48535 0.0
H31 H 0.36137 0.54805 0.39394 0.0
H32 H 0.06911 0.47934 0.48192 0.0
H33 H 0.44541 0.58276 0.35622 0.0
Zn34 Zn 0.97871 0.87832 0.69117 0.0
C35 C 0.17138 0.94471 0.67127 0.0
N36 N 0.16365 0.98531 0.69414 0.0
C37 C 0.1102 0.94883 0.7079 0.0
N38 N 0.08515 0.88975 0.69364 0.0
N39 N 0.12583 0.88494 0.67114 0.0
C40 C 0.17578 0.74237 0.59805 0.0
O41 O 0.1287 0.6898 0.60513 0.0
O42 O 0.93861 0.8605 0.7299 0.0
Zn43 Zn 0.13149 0.79053 0.65131 0.0
N44 N 0.94763 0.96548 0.67 0.0
C45 C 0.97394 1.02064 0.62632 0.0
C46 C 0.98178 0.96286 0.64515 0.0
C47 C 0.90228 1.02315 0.67634 0.0
N48 N 0.92962 0.07805 0.63253 0.0
C49 C 0.89281 0.08146 0.65684 0.0
O50 O 0.03122 0.74303 0.64349 0.0
C51 C 0.96395 0.7451 0.65094 0.0
O52 O 0.94162 0.79193 0.66838 0.0
H53 H 1.01537 0.91576 0.63998 0.0
H54 H 0.87442 1.02371 0.696 0.0
C55 C 0.21263 0.65733 0.66447 0.0
C56 C 0.2469 0.60435 0.68163 0.0
C57 C 0.22134 0.67938 0.72004 0.0
C58 C 0.18745 0.73161 0.70279 0.0
N59 N 0.18316 0.71957 0.67531 0.0
N60 N 0.25064 0.61715 0.70911 0.0
H61 H 0.21135 0.64986 0.64253 0.0
C62 C 0.96099 0.79632 0.7374 0.0
O63 O 0.99949 0.75791 0.71975 0.0
O64 O 0.18625 0.79678 0.61423 0.0
H65 H 0.16525 0.7813 0.71119 0.0
H66 H 1.0019 1.01943 0.6067 0.0
H67 H 0.22484 0.68865 0.74196 0.0
Zn68 Zn 0.7231 0.49536 0.94201 0.0
C69 C 0.71373 0.7039 0.91245 0.0
N70 N 0.68436 0.72166 0.93667 0.0
C71 C 0.69346 0.65992 0.95206 0.0
N72 N 0.72576 0.60492 0.9374 0.0
N73 N 0.74072 0.63436 0.91286 0.0
C74 C 0.8962 0.65444 0.84352 0.0
O75 O 0.93486 0.59672 0.8516 0.0
O76 O 0.75249 0.46367 0.98142 0.0
Zn77 Zn 0.83551 0.61911 0.89576 0.0
N78 N 0.62166 0.46435 0.93176 0.0
C79 C 0.49976 0.50547 0.92108 0.0
C80 C 0.571 0.51996 0.93014 0.0
C81 C 0.60316 0.39397 0.92374 0.0
N82 N 0.48184 0.43624 0.91285 0.0
C83 C 0.5313 0.37984 0.91369 0.0
O84 O 0.85804 0.51222 0.8884 0.0
C85 C 0.84131 0.4477 0.89732 0.0
O86 O 0.79396 0.43843 0.91653 0.0
H87 H 0.5852 0.57591 0.93557 0.0
H88 H 0.64437 0.35071 0.92405 0.0
C89 C 0.97381 0.68707 0.91011 0.0
C90 C 0.03071 0.71168 0.92749 0.0
C91 C 0.96144 0.67063 0.96604 0.0
C92 C 0.90548 0.64533 0.94861 0.0
N93 N 0.91242 0.65433 0.92091 0.0
N94 N 1.02252 0.70379 0.95515 0.0
H95 H 0.97779 0.69564 0.88817 0.0
C96 C 0.82116 0.45847 0.98673 0.0
O97 O 0.86844 0.47332 0.96695 0.0
O98 O 0.84521 0.677 0.85929 0.0
H99 H 0.85705 0.61898 0.95722 0.0
H100 H 0.45937 0.54941 0.91997 0.0
H101 H 0.95613 0.66421 0.9881 0.0
Zn102 Zn 0.08882 0.20441 0.19483 0.0
C103 C 0.87948 0.21178 0.16984 0.0
N104 N 0.86315 0.18159 0.19443 0.0
C105 C 0.92693 0.18659 0.20837 0.0
N106 N 0.98116 0.21788 0.19264 0.0
N107 N 0.94979 0.23632 0.16884 0.0
C108 C 0.94555 0.38558 0.09488 0.0
O109 O 1.00451 0.42368 0.10193 0.0
O110 O 0.12282 0.22241 0.23446 0.0
Zn111 Zn 0.96848 0.3313 0.15028 0.0
N112 N 0.11008 0.10248 0.18085 0.0
C113 C 0.05357 0.98989 0.16563 0.0
C114 C 0.04833 0.06056 0.17648 0.0
C115 C 0.17816 0.07529 0.17403 0.0
N116 N 0.12053 0.96322 0.15889 0.0
C117 C 0.18365 1.00315 0.16258 0.0
O118 O 0.07677 0.35652 0.14611 0.0
C119 C 0.13976 0.33647 0.15497 0.0
O120 O 0.14665 0.28207 0.17192 0.0
H121 H 0.99451 0.08134 0.18122 0.0
H122 H 0.22657 0.11 0.17662 0.0
C123 C 0.8982 0.4708 0.16042 0.0
C124 C 0.86633 0.52711 0.17622 0.0
C125 C 0.89095 0.45639 0.21659 0.0
C126 C 0.92294 0.40095 0.20078 0.0
N127 N 0.92578 0.40896 0.17296 0.0
N128 N 0.86281 0.51782 0.20399 0.0
H129 H 0.89914 0.47516 0.13826 0.0
C130 C 0.11404 0.2897 0.24149 0.0
O131 O 0.08635 0.33623 0.22325 0.0
O132 O 0.91859 0.33901 0.11217 0.0
H133 H 0.9446 0.35175 0.21068 0.0
H134 H 1.00452 0.95661 0.16227 0.0
H135 H 0.88791 0.45028 0.23871 0.0
Zn136 Zn 0.83679 0.96958 0.33761 0.0
C137 C 0.88472 0.16847 0.36145 0.0
N138 N 0.92961 0.16835 0.33951 0.0
C139 C 0.90278 0.11257 0.32427 0.0
N140 N 0.84488 0.07872 0.33698 0.0
N141 N 0.83158 0.11607 0.35969 0.0
C142 C 0.7029 0.13056 0.43642 0.0
O143 O 0.66583 0.06903 0.43195 0.0
O144 O 0.83714 0.93147 0.29823 0.0
Zn145 Zn 0.73826 0.10793 0.37966 0.0
N146 N 0.91265 0.93269 0.36303 0.0
C147 C 0.95006 0.95033 0.4095 0.0
C148 C 0.90666 0.96968 0.38715 0.0
C149 C 0.95816 0.87257 0.36103 0.0
N150 N 0.99553 0.89167 0.40755 0.0
C151 C 1.00061 0.85088 0.38427 0.0
O152 O 0.70305 1.00289 0.38676 0.0
C153 C 0.70455 0.93922 0.37589 0.0
O154 O 0.74578 0.92547 0.35546 0.0
H155 H 0.86617 1.01243 0.38954 0.0
H156 H 0.95802 0.8402 0.34245 0.0
C157 C 0.59865 0.17633 0.36902 0.0
C158 C 0.5411 0.20557 0.35275 0.0
C159 C 0.61173 0.18279 0.31279 0.0
C160 C 0.66861 0.15427 0.32907 0.0
N161 N 0.66123 0.15182 0.35686 0.0
N162 N 0.54963 0.20829 0.32497 0.0
H163 H 0.59468 0.17446 0.3912 0.0
C164 C 0.7816 0.95946 0.28592 0.0
O165 O 0.73789 1.00299 0.29984 0.0
O166 O 0.73982 0.16039 0.41684 0.0
H167 H 0.71801 0.13401 0.31959 0.0
H168 H 0.94599 0.98016 0.4286 0.0
H169 H 0.61712 0.18511 0.29065 0.0
Zn170 Zn 0.61718 0.37624 0.58205 0.0
C171 C 0.41912 0.43103 0.61243 0.0
N172 N 0.41199 0.46676 0.58811 0.0
C173 C 0.47214 0.44555 0.57429 0.0
N174 N 0.51441 0.39956 0.58979 0.0
N175 N 0.47988 0.38844 0.61348 0.0
C176 C 0.45072 0.24115 0.6879 0.0
O177 O 0.50307 0.19682 0.67948 0.0
O178 O 0.62565 0.32162 0.54595 0.0
Zn179 Zn 0.49171 0.29885 0.63618 0.0
N180 N 0.67094 0.46969 0.57652 0.0
C181 C 0.69406 0.57092 0.54566 0.0
C182 C 0.66019 0.50295 0.55162 0.0
C183 C 0.71714 0.50063 0.59552 0.0
N184 N 0.73893 0.60242 0.56465 0.0
C185 C 0.75222 0.56905 0.58939 0.0
O186 O 0.59713 0.27948 0.64676 0.0
C187 C 0.66046 0.28639 0.63584 0.0
O188 O 0.66942 0.31868 0.61259 0.0
H189 H 0.62541 0.47664 0.53648 0.0
H190 H 0.72598 0.47285 0.61511 0.0
C191 C 0.40363 0.17066 0.62265 0.0
C192 C 0.38838 0.10335 0.6093 0.0
C193 C 0.4893 0.12649 0.57941 0.0
C194 C 0.5048 0.19276 0.59303 0.0
N195 N 0.46216 0.21321 0.61456 0.0
N196 N 0.43209 0.08283 0.58803 0.0
H197 H 0.37104 0.1875 0.64007 0.0
C198 C 0.66488 0.26374 0.54364 0.0
O199 O 0.69791 0.23597 0.56547 0.0
O200 O 0.43115 0.29479 0.67216 0.0
H201 H 0.55149 0.22683 0.58696 0.0
H202 H 0.68504 0.59833 0.52603 0.0
H203 H 0.52331 0.10926 0.56242 0.0
Zn204 Zn 0.23134 0.10602 0.83668 0.0
C205 C 0.19047 0.90197 0.8603 0.0
N206 N 0.13917 0.90399 0.84051 0.0
C207 C 0.15882 0.96328 0.82512 0.0
N208 N 0.21974 0.99732 0.83567 0.0
N209 N 0.24073 0.95686 0.85739 0.0
C210 C 0.32841 0.90105 0.93233 0.0
O211 O 0.28768 0.9596 0.93703 0.0
O212 O 0.25171 0.15499 0.79887 0.0
Zn213 Zn 0.3399 0.95661 0.874 0.0
N214 N 0.14806 0.14117 0.85923 0.0
C215 C 0.09701 0.1113 0.90318 0.0
C216 C 0.15053 0.10171 0.88326 0.0
C217 C 0.09457 0.19369 0.85493 0.0
N218 N 0.04365 0.1622 0.8989 0.0
C219 C 0.04026 0.20449 0.87556 0.0
O220 O 0.38264 0.05682 0.88403 0.0
C221 C 0.37321 0.12253 0.87489 0.0
O222 O 0.32119 0.13803 0.85825 0.0
H223 H 0.19453 0.06286 0.88706 0.0
H224 H 0.09402 0.22599 0.83602 0.0
C225 C 0.47374 0.89163 0.85811 0.0
C226 C 0.52541 0.85766 0.8409 0.0
C227 C 0.44372 0.87464 0.80324 0.0
C228 C 0.39247 0.9082 0.82051 0.0
N229 N 0.4084 0.91555 0.84767 0.0
N230 N 0.5085 0.84925 0.81384 0.0
H231 H 0.48401 0.89666 0.87994 0.0
C232 C 0.31536 0.13718 0.79012 0.0
O233 O 0.35276 0.08763 0.80437 0.0
O234 O 0.35098 0.88919 0.90803 0.0
H235 H 0.34025 0.92719 0.81239 0.0
H236 H 0.0984 0.07925 0.92214 0.0
H237 H 0.43156 0.86777 0.78163 0.0
Zn238 Zn 0.61666 0.83297 0.12771 0.0
C239 C 0.6457 0.69414 0.06825 0.0
N240 N 0.71094 0.68425 0.08075 0.0
C241 C 0.69993 0.71276 0.10574 0.0
N242 N 0.63134 0.74053 0.10824 0.0
N243 N 0.59606 0.72718 0.08489 0.0
C244 C 0.4669 0.77383 0.02938 0.0
O245 O 0.52491 0.81343 0.03615 0.0
O246 O 0.67389 0.83615 0.16425 0.0
Zn247 Zn 0.48795 0.7116 0.08496 0.0
N248 N 0.65508 0.91402 0.10414 0.0
C249 C 0.67686 0.96564 0.05939 0.0
C250 C 0.64916 0.90881 0.07637 0.0
C251 C 0.68711 0.975 0.11548 0.0
N252 N 0.70908 1.02628 0.07081 0.0
C253 C 0.71416 0.03284 0.09856 0.0
O254 O 0.43397 0.78765 0.109 0.0
C255 C 0.44423 0.83873 0.12671 0.0
O256 O 0.5088 0.85663 0.13477 0.0
H257 H 0.62354 0.86083 0.06745 0.0
H258 H 0.69334 0.97827 0.13746 0.0
C259 C 0.40356 0.57956 0.10812 0.0
C260 C 0.4003 0.50613 0.11922 0.0
C261 C 0.52896 0.49432 0.11188 0.0
C262 C 0.53228 0.56657 0.1017 0.0
N263 N 0.47012 0.6085 0.09962 0.0
N264 N 0.46358 0.4661 0.12039 0.0
H265 H 0.35457 0.61349 0.10691 0.0
C266 C 0.65547 0.88929 0.1798 0.0
O267 O 0.59992 0.93125 0.1722 0.0
O268 O 0.44225 0.72509 0.04631 0.0
H269 H 0.58503 0.58836 0.09573 0.0
H270 H 0.67289 0.96142 0.03727 0.0
H271 H 0.57832 0.46098 0.11331 0.0
C272 C 0.39837 0.24792 0.40659 0.0
C273 C 0.38064 0.32213 0.40019 0.0
C274 C 0.44528 0.20725 0.38972 0.0
C275 C 0.47557 0.23932 0.36574 0.0
H276 H 0.38249 0.22386 0.42626 0.0
H277 H 0.46227 0.15247 0.3966 0.0
S278 S 0.43178 0.42506 0.33649 0.0
N279 N 0.38684 0.42143 0.36598 0.0
N280 N 0.47287 0.34394 0.33366 0.0
C281 C 0.4497 0.30936 0.35712 0.0
C282 C 0.40255 0.35118 0.37453 0.0
C283 C 0.25821 0.08495 0.62435 0.0
C284 C 0.32773 0.05423 0.61915 0.0
C285 C 0.20424 0.04451 0.6387 0.0
C286 C 0.21778 0.97203 0.64849 0.0
H287 H 0.24682 0.14208 0.61856 0.0
H288 H 0.15331 0.07219 0.64394 0.0
S289 S 0.38769 0.86347 0.63786 0.0
N290 N 0.40474 0.94426 0.62249 0.0
N291 N 0.30314 0.86892 0.65032 0.0
C292 C 0.28474 0.93846 0.64172 0.0
C293 C 0.33981 0.97949 0.62676 0.0
C294 C 0.60828 0.74879 0.84859 0.0
C295 C 0.59322 0.82447 0.85275 0.0
C296 C 0.65795 0.71039 0.86579 0.0
C297 C 0.69374 0.74685 0.88753 0.0
H298 H 0.5763 0.71747 0.83382 0.0
H299 H 0.66159 0.65056 0.86402 0.0
S300 S 0.68827 0.94845 0.90192 0.0
N301 N 0.62967 0.93735 0.87623 0.0
N302 N 0.72222 0.86519 0.90862 0.0
C303 C 0.68667 0.82431 0.88931 0.0
C304 C 0.63631 0.8632 0.87193 0.0
C305 C 0.75792 0.18162 0.14987 0.0
C306 C 0.83389 0.1933 0.14567 0.0
C307 C 0.71736 0.13413 0.13294 0.0
C308 C 0.75116 0.09777 0.11095 0.0
H309 H 0.73133 0.20331 0.16799 0.0
H310 H 0.66058 0.12155 0.1383 0.0
S311 S 0.94466 0.12111 0.08794 0.0
N312 N 0.93873 0.17305 0.11559 0.0
N313 N 0.86146 0.08541 0.08319 0.0
C314 C 0.82445 0.11636 0.10439 0.0
C315 C 0.86618 0.16412 0.12188 0.0
C316 C 0.92149 0.33035 0.4072 0.0
C317 C 0.98827 0.30814 0.4195 0.0
C318 C 0.88105 0.28104 0.39061 0.0
C319 C 0.90619 0.20842 0.38633 0.0
H320 H 0.90395 0.38764 0.40844 0.0
H321 H 0.83383 0.3017 0.37924 0.0
S322 S 0.07379 0.12245 0.41626 0.0
N323 N 0.0739 0.20775 0.42837 0.0
N324 N 0.99875 0.11576 0.39714 0.0
C325 C 0.9695 0.18438 0.40041 0.0
C326 C 1.01044 0.23418 0.41707 0.0
C327 C 0.25265 0.50472 0.64648 0.0
C328 C 0.28394 0.53934 0.66957 0.0
C329 C 0.29518 0.45975 0.62961 0.0
C330 C 0.36991 0.44696 0.6355 0.0
H331 H 0.1967 0.51725 0.64015 0.0
H332 H 0.27134 0.4406 0.61049 0.0
S333 S 0.47307 0.51047 0.69671 0.0
N334 N 0.39028 0.5471 0.70004 0.0
N335 N 0.47014 0.46169 0.66819 0.0
C336 C 0.39895 0.47262 0.66042 0.0
C337 C 0.35576 0.51908 0.67757 0.0
C338 C 0.15391 0.8726 0.90783 0.0
C339 C 0.18423 0.84808 0.88299 0.0
C340 C 0.11044 0.8248 0.92422 0.0
C341 C 0.09508 0.75182 0.91582 0.0
H342 H 0.15598 0.93105 0.91286 0.0
H343 H 0.0823 0.84752 0.94182 0.0
S344 S 0.17401 0.65753 0.85545 0.0
N345 N 0.20602 0.74356 0.8532 0.0
N346 N 0.12403 0.65368 0.8838 0.0
C347 C 0.13245 0.72441 0.89284 0.0
C348 C 0.17723 0.77271 0.87645 0.0
C349 C 0.75848 0.61155 0.16965 0.0
C350 C 0.83124 0.59228 0.16277 0.0
C351 C 0.71761 0.66036 0.15285 0.0
C352 C 0.74867 0.69143 0.12881 0.0
H353 H 0.73086 0.58385 0.18669 0.0
H354 H 0.65948 0.66747 0.15718 0.0
S355 S 0.94267 0.67374 0.10597 0.0
N356 N 0.93687 0.61952 0.13354 0.0
N357 N 0.86012 0.7107 0.10196 0.0
C358 C 0.82399 0.67985 0.12379 0.0
C359 C 0.86533 0.63016 0.14074 0.0
C360 C 0.24387 0.66279 0.56534 0.0
C361 C 0.21816 0.73372 0.57229 0.0
C362 C 0.27515 0.6492 0.53955 0.0
C363 C 0.28042 0.70566 0.5193 0.0
H364 H 0.2382 0.61676 0.57979 0.0
H365 H 0.29227 0.59304 0.5351 0.0
S366 S 0.22538 0.90269 0.52814 0.0
N367 N 0.20438 0.86229 0.55781 0.0
N368 N 0.26128 0.83707 0.50894 0.0
C369 C 0.25771 0.77784 0.5265 0.0
C370 C 0.22708 0.79181 0.55307 0.0
C371 C 0.87194 0.75302 0.80708 0.0
C372 C 0.91455 0.69309 0.81706 0.0
C373 C 0.88809 0.78813 0.78167 0.0
C374 C 0.94717 0.7643 0.7653 0.0
H375 H 0.82516 0.77235 0.81876 0.0
H376 H 0.85297 0.83286 0.77452 0.0
S377 S 0.0803 0.61493 0.7832 0.0
N378 N 1.02173 0.61524 0.80908 0.0
N379 N 0.0518 0.68086 0.76198 0.0
C380 C 0.99161 0.70627 0.77554 0.0
C381 C 0.97537 0.67077 0.80122 0.0
C382 C 0.92341 0.45442 0.02119 0.0
C383 C 0.84938 0.43819 0.01466 0.0
C384 C 0.95338 0.43631 0.04696 0.0
C385 C 0.9112 0.40018 0.06746 0.0
H386 H 0.95884 0.48227 1.00634 0.0
H387 H 1.01056 0.45088 0.05075 0.0
S388 S 0.7144 0.34441 0.06106 0.0
N389 N 0.7342 0.38347 0.03101 0.0
N390 N 0.79099 0.34856 0.07947 0.0
C391 C 0.83712 0.38283 0.06127 0.0
C392 C 0.80611 0.40221 0.03495 0.0
C393 C 0.10634 0.38733 0.27718 0.0
C394 C 0.13259 0.3172 0.26947 0.0
C395 C 0.12291 0.41746 0.30282 0.0
C396 C 0.16715 0.37943 0.32211 0.0
H397 H 0.07212 0.41975 0.2633 0.0
H398 H 0.10089 0.47174 0.30739 0.0
S399 S 0.24983 0.1934 0.31252 0.0
N400 N 0.20481 0.20963 0.2835 0.0
N401 N 0.23686 0.26706 0.33183 0.0
C402 C 0.19412 0.3091 0.31485 0.0
C403 C 0.17647 0.27775 0.28858 0.0
C404 C 0.73521 0.854 0.22061 0.0
C405 C 0.69777 0.90849 0.20498 0.0
C406 C 0.76723 0.87129 0.24627 0.0
C407 C 0.7627 0.94353 0.25693 0.0
H408 H 0.73676 0.79709 0.21364 0.0
H409 H 0.79187 0.82713 0.25843 0.0
S410 S 0.68368 0.10883 0.22169 0.0
N411 N 0.66799 0.03981 0.2004 0.0
N412 N 0.72667 0.07141 0.24833 0.0
C413 C 0.73023 0.99921 0.24054 0.0
C414 C 0.69814 0.98193 0.21463 0.0
C415 C 0.67908 0.27376 0.49243 0.0
C416 C 0.67559 0.22937 0.51647 0.0
C417 C 0.6913 0.24201 0.46656 0.0
C418 C 0.69839 0.16468 0.46386 0.0
H419 H 0.67305 0.3335 0.49364 0.0
H420 H 0.69294 0.2779 0.44852 0.0
S421 S 0.69287 1.02431 0.52039 0.0
N422 N 0.6811 0.10448 0.53588 0.0
N423 N 0.70157 0.0447 0.48736 0.0
C424 C 0.6949 0.11989 0.48774 0.0
C425 C 0.68415 0.15225 0.51403 0.0
C426 C 0.30673 0.20424 0.74392 0.0
C427 C 0.34958 0.17207 0.76515 0.0
C428 C 0.3396 0.23071 0.71929 0.0
C429 C 0.41633 0.22582 0.71515 0.0
H430 H 0.24734 0.20657 0.74589 0.0
H431 H 0.30449 0.25186 0.70297 0.0
S432 S 0.55417 0.15824 0.76594 0.0
N433 N 0.47399 0.14582 0.78137 0.0
N434 N 0.53465 0.1944 0.73548 0.0
C435 C 0.4598 0.1979 0.73682 0.0
C436 C 0.42676 0.17137 0.76171 0.0
C437 C 0.4677 0.80667 0.97934 0.0
C438 C 0.42725 0.79295 1.00357 0.0
C439 C 0.43399 0.83711 0.95575 0.0
C440 C 0.35905 0.85738 0.9558 0.0
H441 H 0.52642 0.79571 0.97888 0.0
H442 H 0.46795 0.84876 0.93787 0.0
S443 S 0.22798 0.82907 1.01349 0.0
N444 N 0.30722 0.79747 0.02558 0.0
N445 N 0.24454 0.85754 0.98165 0.0
C446 C 0.31746 0.84163 0.97957 0.0
C447 C 0.35136 0.80862 1.00335 0.0
C448 C 0.58821 0.89395 0.39905 0.0
C449 C 0.65795 0.87872 0.38766 0.0
C450 C 0.5402 0.83599 0.40732 0.0
C451 C 0.56113 0.76127 0.40486 0.0
H452 H 0.5689 0.9507 0.40006 0.0
H453 H 0.48471 0.84953 0.4137 0.0
S454 S 0.74266 0.69263 0.38147 0.0
N455 N 0.7489 0.78387 0.37806 0.0
N456 N 0.65927 0.67566 0.39375 0.0
C457 C 0.63296 0.74595 0.39581 0.0
C458 C 0.68122 0.80445 0.38714 0.0
C459 C 0.70966 0.17813 0.66292 0.0
C460 C 0.72309 0.24481 0.64811 0.0
C461 C 0.76681 0.12781 0.66863 0.0
C462 C 0.83937 0.14288 0.65992 0.0
H463 H 0.6538 0.16159 0.66813 0.0
H464 H 0.75274 0.07425 0.67765 0.0
S465 S 0.90619 0.31732 0.62655 0.0
N466 N 0.81617 0.32857 0.6292 0.0
N467 N 0.92359 0.23489 0.6403 0.0
C468 C 0.85462 0.21302 0.64798 0.0
C469 C 0.79651 0.26376 0.64194 0.0
C470 C 0.49764 0.24482 0.91902 0.0
C471 C 0.50747 0.30804 0.9021 0.0
C472 C 0.45684 0.18299 0.90974 0.0
C473 C 0.42396 0.1832 0.88343 0.0
H474 H 0.51767 0.24495 0.94002 0.0
H475 H 0.44771 0.13659 0.92376 0.0
S476 S 0.44419 0.33109 0.83001 0.0
N477 N 0.4887 0.36377 0.85698 0.0
N478 N 0.41259 0.24847 0.83952 0.0
C479 C 0.43801 0.24425 0.86581 0.0
C480 C 0.47957 0.30647 0.87518 0.0
C481 C 0.252 0.92331 0.1297 0.0
C482 C 0.25385 0.96834 0.15324 0.0
C483 C 0.31315 0.88156 0.12157 0.0
C484 C 0.37957 0.88252 0.13658 0.0
H485 H 0.20219 0.91965 0.11742 0.0
H486 H 0.30813 0.84845 0.1032 0.0
S487 S 0.41311 0.98878 0.2006 0.0
N488 N 0.32754 1.00979 0.19195 0.0
N489 N 0.44271 0.93177 0.17674 0.0
C490 C 0.38253 0.92768 0.16017 0.0
C491 C 0.31987 0.97047 0.16844 0.0
C492 C 0.04747 0.7444 0.41166 0.0
C493 C 0.04593 0.78251 0.38617 0.0
C494 C 0.09858 0.68856 0.41717 0.0
C495 C 0.14975 0.66713 0.39727 0.0
H496 H 1.01028 0.75965 0.42805 0.0
H497 H 0.09878 0.66275 0.43743 0.0
S498 S 0.1662 0.74419 0.32647 0.0
N499 N 0.09841 0.79204 0.34025 0.0
N500 N 0.19334 0.68419 0.35037 0.0
C501 C 0.14636 0.70104 0.37106 0.0
C502 C 0.09463 0.75936 0.36553 0.0
C503 C 0.78427 0.67581 0.61939 0.0
C504 C 0.80332 0.60639 0.60867 0.0
C505 C 0.83574 0.71873 0.63401 0.0
C506 C 0.90901 0.69485 0.63776 0.0
H507 H 0.7296 0.69798 0.61582 0.0
H508 H 0.81876 0.77252 0.64139 0.0
S509 S 0.98574 0.51572 0.6143 0.0
N510 N 0.8992 0.5142 0.60353 0.0
N511 N 0.99671 0.59526 0.63046 0.0
C512 C 0.9282 0.62457 0.62761 0.0
C513 C 0.8752 0.58027 0.61319 0.0
C514 C 1.00037 0.3367 0.86716 0.0
C515 C 0.98235 0.26301 0.87448 0.0
C516 C 0.9525 0.39555 0.87328 0.0
C517 C 0.88476 0.38323 0.88709 0.0
H518 H 0.0539 0.34975 0.85842 0.0
H519 H 0.97097 0.45157 0.8685 0.0
S520 S 0.80649 0.1987 0.90627 0.0
N521 N 0.88788 0.17986 0.89295 0.0
N522 N 0.79861 0.28999 0.90454 0.0
C523 C 0.86386 0.30914 0.89259 0.0
C524 C 0.91238 0.24933 0.88625 0.0
C525 C 0.26398 0.47537 0.11608 0.0
C526 C 0.33181 0.46956 0.13 0.0
C527 C 0.20242 0.43216 0.12422 0.0
C528 C 0.20612 0.38118 0.14655 0.0
H529 H 0.25903 0.51147 0.0982 0.0
H530 H 0.15186 0.43796 0.11255 0.0
S531 S 0.36926 0.35106 0.19158 0.0
N532 N 0.39737 0.41304 0.16854 0.0
N533 N 0.28274 0.3321 0.18357 0.0
C534 C 0.27316 0.37679 0.16111 0.0
C535 C 0.3355 0.42085 0.15293 0.0
C536 C 0.4459 0.37699 0.5321 0.0
C537 C 0.46917 0.44355 0.54403 0.0
C538 C 0.42256 0.37514 0.50475 0.0
C539 C 0.42273 0.43945 0.48786 0.0
H540 H 0.44135 0.32664 0.54449 0.0
H541 H 0.40222 0.32264 0.49698 0.0
S542 S 0.49539 0.62406 0.5078 0.0
N543 N 0.49779 0.57431 0.5366 0.0
N544 N 0.46315 0.56814 0.48378 0.0
C545 C 0.45187 0.50522 0.49888 0.0
C546 C 0.47257 0.50795 0.52735 0.0
C547 C 0.12982 0.89582 0.7824 0.0
C548 C 0.13638 0.96473 0.7957 0.0
C549 C 0.11343 0.89133 0.75445 0.0
C550 C 0.10451 0.9554 0.73818 0.0
H551 H 0.14006 0.84418 0.79343 0.0
H552 H 0.11228 0.83701 0.74543 0.0
S553 S 0.09511 0.14799 0.76404 0.0
N554 N 0.11485 0.09736 0.79167 0.0
N555 N 0.09128 0.08967 0.73806 0.0
C556 C 0.10551 1.02461 0.75141 0.0
C557 C 0.11978 0.02909 0.78039 0.0
C558 C 0.67442 0.74204 0.02242 0.0
C559 C 0.64052 0.68628 0.03832 0.0
C560 C 0.69186 0.73061 0.99493 0.0
C561 C 0.67706 0.6625 0.98196 0.0
H562 H 0.691 0.79404 0.03166 0.0
H563 H 0.71888 0.77576 0.98384 0.0
S564 S 0.58575 0.49893 0.0148 0.0
N565 N 0.59185 0.56043 0.03964 0.0
N566 N 0.62229 0.53936 0.9873 0.0
C567 C 0.64177 0.60628 0.99755 0.0
C568 C 0.62416 0.6181 0.0259 0.0
C569 C 0.86741 0.19011 0.25368 0.0
C570 C 0.92836 0.1671 0.23812 0.0
C571 C 0.85767 0.16739 0.28097 0.0
C572 C 0.90836 0.12042 0.29413 0.0
H573 H 0.82628 0.22642 0.2446 0.0
H574 H 0.81125 0.18925 0.29219 0.0
S575 S 0.07673 0.0421 0.26307 0.0
N576 N 0.03897 0.09136 0.23788 0.0
N577 N 1.02266 0.05207 0.29009 0.0
C578 C 0.97006 0.09702 0.27917 0.0
C579 C 0.97954 0.11938 0.25093 0.0
loop_
_geom_bond_atom_site_label_1
_geom_bond_atom_site_label_2
_geom_bond_distance
_geom_bond_site_symmetry_2
_ccdc_geom_bond_type
Zn0 N4 2.020 . S
Zn0 O8 2.019 . S
Zn0 N10 2.119 . S
Zn0 O18 1.975 . S
C1 N2 1.334 . S
C1 N5 1.336 . S
N2 C1 1.334 . S
N2 C3 1.334 . S
C3 N2 1.334 . S
C3 N4 1.336 . S
N4 Zn0 2.020 . S
N4 C3 1.336 . S
N4 N5 1.354 . S
N5 C1 1.336 . S
N5 N4 1.354 . S
N5 Zn9 2.020 . S
C6 O7 1.244 . S
C6 O30 1.257 . S
O7 C6 1.244 . S
O8 Zn0 2.019 . S
O8 C28 1.257 . S
Zn9 N5 2.020 . S
Zn9 O16 1.975 . S
Zn9 N25 2.119 . S
Zn9 O30 2.019 . S
N10 Zn0 2.119 . S
N10 C12 1.334 . S
N10 C13 1.328 . S
C11 C12 1.391 . S
C11 N14 1.329 . S
C11 H32 0.930 . S
C12 N10 1.334 . S
C12 C11 1.391 . S
C12 H19 0.930 . S
C13 N10 1.328 . S
C13 C15 1.392 . S
C13 H20 0.930 . S
N14 C11 1.329 . S
N14 C15 1.331 . S
C15 C13 1.392 . S
C15 N14 1.331 . S
O16 Zn9 1.975 . S
O16 C17 1.252 . S
C17 O16 1.252 . S
C17 O18 1.252 . S
O18 Zn0 1.975 . S
O18 C17 1.252 . S
H19 C12 0.930 . S
H20 C13 0.930 . S
C21 C22 1.392 . S
C21 N25 1.328 . S
C21 H27 0.930 . S
C22 C21 1.392 . S
C22 N26 1.331 . S
C23 C24 1.391 . S
C23 N26 1.329 . S
C23 H33 0.930 . S
C24 C23 1.391 . S
C24 N25 1.334 . S
C24 H31 0.930 . S
N25 Zn9 2.119 . S
N25 C21 1.328 . S
N25 C24 1.334 . S
N26 C22 1.331 . S
N26 C23 1.329 . S
H27 C21 0.930 . S
C28 O8 1.257 . S
C28 O29 1.244 . S
O29 C28 1.244 . S
O30 C6 1.257 . S
O30 Zn9 2.019 . S
H31 C24 0.930 . S
H32 C11 0.930 . S
H33 C23 0.930 . S
Zn34 N38 2.020 1_655 S
Zn34 O42 2.019 . S
Zn34 N44 2.119 . S
Zn34 O52 1.975 . S
C35 N36 1.334 . S
C35 N39 1.336 . S
N36 C35 1.334 . S
N36 C37 1.334 . S
C37 N36 1.334 . S
C37 N38 1.336 . S
N38 Zn34 2.020 1_455 S
N38 C37 1.336 . S
N38 N39 1.354 . S
N39 C35 1.336 . S
N39 N38 1.354 . S
N39 Zn43 2.020 . S
C40 O41 1.244 . S
C40 O64 1.257 . S
O41 C40 1.244 . S
O42 Zn34 2.019 . S
O42 C62 1.257 . S
Zn43 N39 2.020 . S
Zn43 O50 1.975 1_455 S
Zn43 N59 2.119 . S
Zn43 O64 2.019 . S
N44 Zn34 2.119 . S
N44 C46 1.334 . S
N44 C47 1.328 . S
C45 C46 1.391 . S
C45 N48 1.329 . S
C45 H66 0.930 . S
C46 N44 1.334 . S
C46 C45 1.391 . S
C46 H53 0.930 . S
C47 N44 1.328 . S
C47 C49 1.392 . S
C47 H54 0.930 . S
N48 C45 1.329 . S
N48 C49 1.331 . S
C49 C47 1.392 . S
C49 N48 1.331 . S
O50 Zn43 1.975 1_655 S
O50 C51 1.252 . S
C51 O50 1.252 . S
C51 O52 1.252 . S
O52 Zn34 1.975 . S
O52 C51 1.252 . S
H53 C46 0.930 . S
H54 C47 0.930 . S
C55 C56 1.392 . S
C55 N59 1.328 . S
C55 H61 0.930 . S
C56 C55 1.392 . S
C56 N60 1.331 . S
C57 C58 1.391 . S
C57 N60 1.329 . S
C57 H67 0.930 . S
C58 C57 1.391 . S
C58 N59 1.334 . S
C58 H65 0.930 . S
N59 Zn43 2.119 . S
N59 C55 1.328 . S
N59 C58 1.334 . S
N60 C56 1.331 . S
N60 C57 1.329 . S
H61 C55 0.930 . S
C62 O42 1.257 . S
C62 O63 1.244 . S
O63 C62 1.244 . S
O64 C40 1.257 . S
O64 Zn43 2.019 . S
H65 C58 0.930 . S
H66 C45 0.930 . S
H67 C57 0.930 . S
Zn68 N72 2.020 . S
Zn68 O76 2.019 . S
Zn68 N78 2.119 . S
Zn68 O86 1.975 . S
C69 N70 1.334 . S
C69 N73 1.336 . S
N70 C69 1.334 . S
N70 C71 1.334 . S
C71 N70 1.334 . S
C71 N72 1.336 . S
N72 Zn68 2.020 . S
N72 C71 1.336 . S
N72 N73 1.354 . S
N73 C69 1.336 . S
N73 N72 1.354 . S
N73 Zn77 2.020 . S
C74 O75 1.244 . S
C74 O98 1.257 . S
O75 C74 1.244 . S
O76 Zn68 2.019 . S
O76 C96 1.257 . S
Zn77 N73 2.020 . S
Zn77 O84 1.975 . S
Zn77 N93 2.119 . S
Zn77 O98 2.019 . S
N78 Zn68 2.119 . S
N78 C80 1.334 . S
N78 C81 1.328 . S
C79 C80 1.391 . S
C79 N82 1.329 . S
C79 H100 0.930 . S
C80 N78 1.334 . S
C80 C79 1.391 . S
C80 H87 0.930 . S
C81 N78 1.328 . S
C81 C83 1.392 . S
C81 H88 0.930 . S
N82 C79 1.329 . S
N82 C83 1.331 . S
C83 C81 1.392 . S
C83 N82 1.331 . S
O84 Zn77 1.975 . S
O84 C85 1.252 . S
C85 O84 1.252 . S
C85 O86 1.252 . S
O86 Zn68 1.975 . S
O86 C85 1.252 . S
H87 C80 0.930 . S
H88 C81 0.930 . S
C89 C90 1.384 1_655 S
C89 N93 1.328 . S
C89 H95 0.930 . S
C90 C89 1.384 1_455 S
C90 N94 1.334 . S
C91 C92 1.391 . S
C91 N94 1.329 1_655 S
C91 H101 0.930 1_655 S
C92 C91 1.391 . S
C92 N93 1.334 . S
C92 H99 0.930 . S
N93 Zn77 2.119 . S
N93 C89 1.328 . S
N93 C92 1.334 . S
N94 C90 1.334 . S
N94 C91 1.329 1_455 S
H95 C89 0.930 . S
C96 O76 1.257 . S
C96 O97 1.244 . S
O97 C96 1.244 . S
O98 C74 1.257 . S
O98 Zn77 2.019 . S
H99 C92 0.930 . S
H100 C79 0.930 . S
H101 C91 0.930 1_455 S
Zn102 N106 2.020 1_455 S
Zn102 O110 2.019 . S
Zn102 N112 2.119 . S
Zn102 O120 1.975 . S
C103 N104 1.334 . S
C103 N107 1.336 . S
N104 C103 1.334 . S
N104 C105 1.334 . S
C105 N104 1.334 . S
C105 N106 1.336 . S
N106 Zn102 2.020 1_655 S
N106 C105 1.336 . S
N106 N107 1.354 . S
N107 C103 1.336 . S
N107 N106 1.354 . S
N107 Zn111 2.020 . S
C108 O109 1.244 . S
C108 O132 1.257 . S
O109 C108 1.244 . S
O110 Zn102 2.019 . S
O110 C130 1.257 . S
Zn111 N107 2.020 . S
Zn111 O118 1.975 1_655 S
Zn111 N127 2.119 . S
Zn111 O132 2.019 . S
N112 Zn102 2.119 . S
N112 C114 1.334 . S
N112 C115 1.328 . S
C113 C114 1.391 . S
C113 N116 1.329 . S
C113 H134 0.930 . S
C114 N112 1.334 . S
C114 C113 1.391 . S
C114 H121 0.930 . S
C115 N112 1.328 . S
C115 C117 1.392 . S
C115 H122 0.930 . S
N116 C113 1.329 . S
N116 C117 1.331 . S
C117 C115 1.392 . S
C117 N116 1.331 . S
O118 Zn111 1.975 1_455 S
O118 C119 1.252 . S
C119 O118 1.252 . S
C119 O120 1.252 . S
O120 Zn102 1.975 . S
O120 C119 1.252 . S
H121 C114 0.930 . S
H122 C115 0.930 . S
C123 C124 1.392 . S
C123 N127 1.328 . S
C123 H129 0.930 . S
C124 C123 1.392 . S
C124 N128 1.331 . S
C125 C126 1.391 . S
C125 N128 1.329 . S
C125 H135 0.930 . S
C126 C125 1.391 . S
C126 N127 1.334 . S
C126 H133 0.930 . S
N127 Zn111 2.119 . S
N127 C123 1.328 . S
N127 C126 1.334 . S
N128 C124 1.331 . S
N128 C125 1.329 . S
H129 C123 0.930 . S
C130 O110 1.257 . S
C130 O131 1.244 . S
O131 C130 1.244 . S
O132 C108 1.257 . S
O132 Zn111 2.019 . S
H133 C126 0.930 . S
H134 C113 0.930 . S
H135 C125 0.930 . S
Zn136 N140 2.020 1_565 S
Zn136 O144 2.019 . S
Zn136 N146 2.119 . S
Zn136 O154 1.975 . S
C137 N138 1.334 . S
C137 N141 1.336 . S
N138 C137 1.334 . S
N138 C139 1.334 . S
C139 N138 1.334 . S
C139 N140 1.336 . S
N140 Zn136 2.020 1_545 S
N140 C139 1.336 . S
N140 N141 1.354 . S
N141 C137 1.336 . S
N141 N140 1.354 . S
N141 Zn145 2.020 . S
C142 O143 1.244 . S
C142 O166 1.257 . S
O143 C142 1.244 . S
O144 Zn136 2.019 . S
O144 C164 1.257 . S
Zn145 N141 2.020 . S
Zn145 O152 1.975 1_545 S
Zn145 N161 2.119 . S
Zn145 O166 2.019 . S
N146 Zn136 2.119 . S
N146 C148 1.334 . S
N146 C149 1.328 . S
C147 C148 1.391 . S
C147 N150 1.329 . S
C147 H168 0.930 . S
C148 N146 1.334 . S
C148 C147 1.391 . S
C148 H155 0.930 . S
C149 N146 1.328 . S
C149 C151 1.392 . S
C149 H156 0.930 . S
N150 C147 1.329 . S
N150 C151 1.331 . S
C151 C149 1.392 . S
C151 N150 1.331 . S
O152 Zn145 1.975 1_565 S
O152 C153 1.252 . S
C153 O152 1.252 . S
C153 O154 1.252 . S
O154 Zn136 1.975 . S
O154 C153 1.252 . S
H155 C148 0.930 . S
H156 C149 0.930 . S
C157 C158 1.392 . S
C157 N161 1.328 . S
C157 H163 0.930 . S
C158 C157 1.392 . S
C158 N162 1.331 . S
C159 C160 1.391 . S
C159 N162 1.329 . S
C159 H169 0.930 . S
C160 C159 1.391 . S
C160 N161 1.334 . S
C160 H167 0.930 . S
N161 Zn145 2.119 . S
N161 C157 1.328 . S
N161 C160 1.334 . S
N162 C158 1.331 . S
N162 C159 1.329 . S
H163 C157 0.930 . S
C164 O144 1.257 . S
C164 O165 1.244 . S
O165 C164 1.244 . S
O166 C142 1.257 . S
O166 Zn145 2.019 . S
H167 C160 0.930 . S
H168 C147 0.930 . S
H169 C159 0.930 . S
Zn170 N174 2.020 . S
Zn170 O178 2.019 . S
Zn170 N180 2.119 . S
Zn170 O188 1.975 . S
C171 N172 1.334 . S
C171 N175 1.336 . S
N172 C171 1.334 . S
N172 C173 1.334 . S
C173 N172 1.334 . S
C173 N174 1.336 . S
N174 Zn170 2.020 . S
N174 C173 1.336 . S
N174 N175 1.354 . S
N175 C171 1.336 . S
N175 N174 1.354 . S
N175 Zn179 2.020 . S
C176 O177 1.244 . S
C176 O200 1.257 . S
O177 C176 1.244 . S
O178 Zn170 2.019 . S
O178 C198 1.257 . S
Zn179 N175 2.020 . S
Zn179 O186 1.975 . S
Zn179 N195 2.119 . S
Zn179 O200 2.019 . S
N180 Zn170 2.119 . S
N180 C182 1.334 . S
N180 C183 1.328 . S
C181 C182 1.391 . S
C181 N184 1.329 . S
C181 H202 0.930 . S
C182 N180 1.334 . S
C182 C181 1.391 . S
C182 H189 0.930 . S
C183 N180 1.328 . S
C183 C185 1.392 . S
C183 H190 0.930 . S
N184 C181 1.329 . S
N184 C185 1.331 . S
C185 C183 1.392 . S
C185 N184 1.331 . S
O186 Zn179 1.975 . S
O186 C187 1.252 . S
C187 O186 1.252 . S
C187 O188 1.252 . S
O188 Zn170 1.975 . S
O188 C187 1.252 . S
H189 C182 0.930 . S
H190 C183 0.930 . S
C191 C192 1.392 . S
C191 N195 1.328 . S
C191 H197 0.930 . S
C192 C191 1.392 . S
C192 N196 1.331 . S
C193 C194 1.391 . S
C193 N196 1.329 . S
C193 H203 0.930 . S
C194 C193 1.391 . S
C194 N195 1.334 . S
C194 H201 0.930 . S
N195 Zn179 2.119 . S
N195 C191 1.328 . S
N195 C194 1.334 . S
N196 C192 1.331 . S
N196 C193 1.329 . S
H197 C191 0.930 . S
C198 O178 1.257 . S
C198 O199 1.244 . S
O199 C198 1.244 . S
O200 C176 1.257 . S
O200 Zn179 2.019 . S
H201 C194 0.930 . S
H202 C181 0.930 . S
H203 C193 0.930 . S
Zn204 N208 2.020 1_545 S
Zn204 O212 2.019 . S
Zn204 N214 2.119 . S
Zn204 O222 1.975 . S
C205 N206 1.334 . S
C205 N209 1.336 . S
N206 C205 1.334 . S
N206 C207 1.334 . S
C207 N206 1.334 . S
C207 N208 1.336 . S
N208 Zn204 2.020 1_565 S
N208 C207 1.336 . S
N208 N209 1.354 . S
N209 C205 1.336 . S
N209 N208 1.354 . S
N209 Zn213 2.020 . S
C210 O211 1.244 . S
C210 O234 1.257 . S
O211 C210 1.244 . S
O212 Zn204 2.019 . S
O212 C232 1.257 . S
Zn213 N209 2.020 . S
Zn213 O220 1.975 1_565 S
Zn213 N229 2.119 . S
Zn213 O234 2.019 . S
N214 Zn204 2.119 . S
N214 C216 1.334 . S
N214 C217 1.328 . S
C215 C216 1.391 . S
C215 N218 1.329 . S
C215 H236 0.930 . S
C216 N214 1.334 . S
C216 C215 1.391 . S
C216 H223 0.930 . S
C217 N214 1.328 . S
C217 C219 1.392 . S
C217 H224 0.930 . S
N218 C215 1.329 . S
N218 C219 1.331 . S
C219 C217 1.392 . S
C219 N218 1.331 . S
O220 Zn213 1.975 1_545 S
O220 C221 1.252 . S
C221 O220 1.252 . S
C221 O222 1.252 . S
O222 Zn204 1.975 . S
O222 C221 1.252 . S
H223 C216 0.930 . S
H224 C217 0.930 . S
C225 C226 1.392 . S
C225 N229 1.328 . S
C225 H231 0.930 . S
C226 C225 1.392 . S
C226 N230 1.331 . S
C227 C228 1.391 . S
C227 N230 1.329 . S
C227 H237 0.930 . S
C228 C227 1.391 . S
C228 N229 1.334 . S
C228 H235 0.930 . S
N229 Zn213 2.119 . S
N229 C225 1.328 . S
N229 C228 1.334 . S
N230 C226 1.331 . S
N230 C227 1.329 . S
H231 C225 0.930 . S
C232 O212 1.257 . S
C232 O233 1.244 . S
O233 C232 1.244 . S
O234 C210 1.257 . S
O234 Zn213 2.019 . S
H235 C228 0.930 . S
H236 C215 0.930 . S
H237 C227 0.930 . S
Zn238 N242 2.020 . S
Zn238 O246 2.019 . S
Zn238 N248 2.119 . S
Zn238 O256 1.975 . S
C239 N240 1.334 . S
C239 N243 1.336 . S
N240 C239 1.334 . S
N240 C241 1.334 . S
C241 N240 1.334 . S
C241 N242 1.336 . S
N242 Zn238 2.020 . S
N242 C241 1.336 . S
N242 N243 1.354 . S
N243 C239 1.336 . S
N243 N242 1.354 . S
N243 Zn247 2.020 . S
C244 O245 1.244 . S
C244 O268 1.257 . S
O245 C244 1.244 . S
O246 Zn238 2.019 . S
O246 C266 1.257 . S
Zn247 N243 2.020 . S
Zn247 O254 1.975 . S
Zn247 N263 2.119 . S
Zn247 O268 2.019 . S
N248 Zn238 2.119 . S
N248 C250 1.334 . S
N248 C251 1.328 . S
C249 C250 1.391 . S
C249 N252 1.329 1_565 S
C249 H270 0.930 1_565 S
C250 N248 1.334 . S
C250 C249 1.391 . S
C250 H257 0.930 . S
C251 N248 1.328 . S
C251 C253 1.384 1_565 S
C251 H258 0.930 . S
N252 C249 1.329 1_545 S
N252 C253 1.334 . S
C253 C251 1.384 1_545 S
C253 N252 1.334 . S
O254 Zn247 1.975 . S
O254 C255 1.252 . S
C255 O254 1.252 . S
C255 O256 1.252 . S
O256 Zn238 1.975 . S
O256 C255 1.252 . S
H257 C250 0.930 . S
H258 C251 0.930 . S
C259 C260 1.392 . S
C259 N263 1.328 . S
C259 H265 0.930 . S
C260 C259 1.392 . S
C260 N264 1.331 . S
C261 C262 1.391 . S
C261 N264 1.329 . S
C261 H271 0.930 . S
C262 C261 1.391 . S
C262 N263 1.334 . S
C262 H269 0.930 . S
N263 Zn247 2.119 . S
N263 C259 1.328 . S
N263 C262 1.334 . S
N264 C260 1.331 . S
N264 C261 1.329 . S
H265 C259 0.930 . S
C266 O246 1.257 . S
C266 O267 1.244 . S
O267 C266 1.244 . S
O268 C244 1.257 . S
O268 Zn247 2.019 . S
H269 C262 0.930 . S
H270 C249 0.930 1_545 S
H271 C261 0.930 . S
C272 C273 1.369 . S
C272 C274 1.419 . S
C272 H276 0.930 . S
C273 C272 1.369 . S
C273 C282 1.429 . S
C274 C272 1.419 . S
C274 C275 1.363 . S
C274 H277 0.929 . S
C275 C274 1.363 . S
C275 C281 1.428 . S
H276 C272 0.930 . S
H277 C274 0.929 . S
S278 N279 1.613 . S
S278 N280 1.610 . S
N279 S278 1.613 . S
N279 C282 1.350 . S
N280 S278 1.610 . S
N280 C281 1.351 . S
C281 C275 1.428 . S
C281 N280 1.351 . S
C281 C282 1.434 . S
C282 C273 1.429 . S
C282 N279 1.350 . S
C282 C281 1.434 . S
C283 C284 1.369 . S
C283 C285 1.419 . S
C283 H287 0.930 1_565 S
C284 C283 1.369 . S
C284 C293 1.429 . S
C285 C283 1.419 . S
C285 C286 1.363 . S
C285 H288 0.929 . S
C286 C285 1.363 . S
C286 C292 1.428 . S
H287 C283 0.930 1_545 S
H288 C285 0.929 . S
S289 N290 1.613 . S
S289 N291 1.610 . S
N290 S289 1.613 . S
N290 C293 1.350 . S
N291 S289 1.610 . S
N291 C292 1.351 . S
C292 C286 1.428 . S
C292 N291 1.351 . S
C292 C293 1.434 . S
C293 C284 1.429 . S
C293 N290 1.350 . S
C293 C292 1.434 . S
C294 C295 1.369 . S
C294 C296 1.419 . S
C294 H298 0.930 . S
C295 C294 1.369 . S
C295 C304 1.429 . S
C296 C294 1.419 . S
C296 C297 1.363 . S
C296 H299 0.929 . S
C297 C296 1.363 . S
C297 C303 1.428 . S
H298 C294 0.930 . S
H299 C296 0.929 . S
S300 N301 1.613 . S
S300 N302 1.610 . S
N301 S300 1.613 . S
N301 C304 1.350 . S
N302 S300 1.610 . S
N302 C303 1.351 . S
C303 C297 1.428 . S
C303 N302 1.351 . S
C303 C304 1.434 . S
C304 C295 1.429 . S
C304 N301 1.350 . S
C304 C303 1.434 . S
C305 C306 1.369 . S
C305 C307 1.419 . S
C305 H309 0.930 . S
C306 C305 1.369 . S
C306 C315 1.429 . S
C307 C305 1.419 . S
C307 C308 1.363 . S
C307 H310 0.929 . S
C308 C307 1.363 . S
C308 C314 1.428 . S
H309 C305 0.930 . S
H310 C307 0.929 . S
S311 N312 1.613 . S
S311 N313 1.615 . S
N312 S311 1.613 . S
N312 C315 1.350 . S
N313 S311 1.615 . S
N313 C314 1.361 . S
C314 C308 1.428 . S
C314 N313 1.361 . S
C314 C315 1.434 . S
C315 C306 1.429 . S
C315 N312 1.350 . S
C315 C314 1.434 . S
C316 C317 1.369 . S
C316 C318 1.419 . S
C316 H320 0.930 . S
C317 C316 1.369 . S
C317 C326 1.429 . S
C318 C316 1.419 . S
C318 C319 1.363 . S
C318 H321 0.929 . S
C319 C318 1.363 . S
C319 C325 1.428 . S
H320 C316 0.930 . S
H321 C318 0.929 . S
S322 N323 1.613 . S
S322 N324 1.610 1_455 S
N323 S322 1.613 . S
N323 C326 1.350 1_455 S
N324 S322 1.610 1_655 S
N324 C325 1.351 . S
C325 C319 1.428 . S
C325 N324 1.351 . S
C325 C326 1.434 . S
C326 C317 1.429 . S
C326 N323 1.350 1_655 S
C326 C325 1.434 . S
C327 C328 1.369 . S
C327 C329 1.419 . S
C327 H331 0.930 . S
C328 C327 1.369 . S
C328 C337 1.429 . S
C329 C327 1.419 . S
C329 C330 1.363 . S
C329 H332 0.929 . S
C330 C329 1.363 . S
C330 C336 1.428 . S
H331 C327 0.930 . S
H332 C329 0.929 . S
S333 N334 1.613 . S
S333 N335 1.610 . S
N334 S333 1.613 . S
N334 C337 1.350 . S
N335 S333 1.610 . S
N335 C336 1.351 . S
C336 C330 1.428 . S
C336 N335 1.351 . S
C336 C337 1.434 . S
C337 C328 1.429 . S
C337 N334 1.350 . S
C337 C336 1.434 . S
C338 C339 1.369 . S
C338 C340 1.419 . S
C338 H342 0.930 . S
C339 C338 1.369 . S
C339 C348 1.429 . S
C340 C338 1.419 . S
C340 C341 1.363 . S
C340 H343 0.929 . S
C341 C340 1.363 . S
C341 C347 1.428 . S
H342 C338 0.930 . S
H343 C340 0.929 . S
S344 N345 1.613 . S
S344 N346 1.610 . S
N345 S344 1.613 . S
N345 C348 1.350 . S
N346 S344 1.610 . S
N346 C347 1.351 . S
C347 C341 1.428 . S
C347 N346 1.351 . S
C347 C348 1.434 . S
C348 C339 1.429 . S
C348 N345 1.350 . S
C348 C347 1.434 . S
C349 C350 1.369 . S
C349 C351 1.419 . S
C349 H353 0.930 . S
C350 C349 1.369 . S
C350 C359 1.429 . S
C351 C349 1.419 . S
C351 C352 1.363 . S
C351 H354 0.929 . S
C352 C351 1.363 . S
C352 C358 1.428 . S
H353 C349 0.930 . S
H354 C351 0.929 . S
S355 N356 1.613 . S
S355 N357 1.610 . S
N356 S355 1.613 . S
N356 C359 1.350 . S
N357 S355 1.610 . S
N357 C358 1.351 . S
C358 C352 1.428 . S
C358 N357 1.351 . S
C358 C359 1.434 . S
C359 C350 1.429 . S
C359 N356 1.350 . S
C359 C358 1.434 . S
C360 C361 1.369 . S
C360 C362 1.419 . S
C360 H364 0.930 . S
C361 C360 1.369 . S
C361 C370 1.429 . S
C362 C360 1.419 . S
C362 C363 1.363 . S
C362 H365 0.929 . S
C363 C362 1.363 . S
C363 C369 1.428 . S
H364 C360 0.930 . S
H365 C362 0.929 . S
S366 N367 1.613 . S
S366 N368 1.610 . S
N367 S366 1.613 . S
N367 C370 1.350 . S
N368 S366 1.610 . S
N368 C369 1.351 . S
C369 C363 1.428 . S
C369 N368 1.351 . S
C369 C370 1.434 . S
C370 C361 1.429 . S
C370 N367 1.350 . S
C370 C369 1.434 . S
C371 C372 1.369 . S
C371 C373 1.419 . S
C371 H375 0.930 . S
C372 C371 1.369 . S
C372 C381 1.429 . S
C373 C371 1.419 . S
C373 C374 1.363 . S
C373 H376 0.929 . S
C374 C373 1.363 . S
C374 C380 1.428 . S
H375 C371 0.930 . S
H376 C373 0.929 . S
S377 N378 1.613 . S
S377 N379 1.610 . S
N378 S377 1.613 . S
N378 C381 1.350 . S
N379 S377 1.610 . S
N379 C380 1.351 . S
C380 C374 1.428 . S
C380 N379 1.351 . S
C380 C381 1.434 . S
C381 C372 1.429 . S
C381 N378 1.350 . S
C381 C380 1.434 . S
C382 C383 1.369 . S
C382 C384 1.419 . S
C382 H386 0.917 1_554 S
C383 C382 1.369 . S
C383 C392 1.429 . S
C384 C382 1.419 . S
C384 C385 1.363 . S
C384 H387 0.929 . S
C385 C384 1.363 . S
C385 C391 1.428 . S
H386 C382 0.917 1_556 S
H387 C384 0.929 . S
S388 N389 1.613 . S
S388 N390 1.610 . S
N389 S388 1.613 . S
N389 C392 1.350 . S
N390 S388 1.610 . S
N390 C391 1.351 . S
C391 C385 1.428 . S
C391 N390 1.351 . S
C391 C392 1.434 . S
C392 C383 1.429 . S
C392 N389 1.350 . S
C392 C391 1.434 . S
C393 C394 1.369 . S
C393 C395 1.419 . S
C393 H397 0.930 . S
C394 C393 1.369 . S
C394 C403 1.429 . S
C395 C393 1.419 . S
C395 C396 1.363 . S
C395 H398 0.929 . S
C396 C395 1.363 . S
C396 C402 1.428 . S
H397 C393 0.930 . S
H398 C395 0.929 . S
S399 N400 1.613 . S
S399 N401 1.610 . S
N400 S399 1.613 . S
N400 C403 1.350 . S
N401 S399 1.610 . S
N401 C402 1.351 . S
C402 C396 1.428 . S
C402 N401 1.351 . S
C402 C403 1.434 . S
C403 C394 1.429 . S
C403 N400 1.350 . S
C403 C402 1.434 . S
C404 C405 1.369 . S
C404 C406 1.419 . S
C404 H408 0.930 . S
C405 C404 1.369 . S
C405 C414 1.429 . S
C406 C404 1.419 . S
C406 C407 1.363 . S
C406 H409 0.929 . S
C407 C406 1.363 . S
C407 C413 1.428 . S
H408 C404 0.930 . S
H409 C406 0.929 . S
S410 N411 1.613 1_545 S
S410 N412 1.610 1_545 S
N411 S410 1.613 1_565 S
N411 C414 1.350 . S
N412 S410 1.610 1_565 S
N412 C413 1.351 . S
C413 C407 1.428 . S
C413 N412 1.351 . S
C413 C414 1.434 . S
C414 C405 1.429 . S
C414 N411 1.350 . S
C414 C413 1.434 . S
C415 C416 1.369 . S
C415 C417 1.419 . S
C415 H419 0.930 . S
C416 C415 1.369 . S
C416 C425 1.429 . S
C417 C415 1.419 . S
C417 C418 1.363 . S
C417 H420 0.929 . S
C418 C417 1.363 . S
C418 C424 1.428 . S
H419 C415 0.930 . S
H420 C417 0.929 . S
S421 N422 1.613 . S
S421 N423 1.610 . S
N422 S421 1.613 . S
N422 C425 1.350 . S
N423 S421 1.610 . S
N423 C424 1.351 . S
C424 C418 1.428 . S
C424 N423 1.351 . S
C424 C425 1.434 . S
C425 C416 1.429 . S
C425 N422 1.350 . S
C425 C424 1.434 . S
C426 C427 1.369 . S
C426 C428 1.419 . S
C426 H430 0.930 . S
C427 C426 1.369 . S
C427 C436 1.429 . S
C428 C426 1.419 . S
C428 C429 1.363 . S
C428 H431 0.929 . S
C429 C428 1.363 . S
C429 C435 1.428 . S
H430 C426 0.930 . S
H431 C428 0.929 . S
S432 N433 1.613 . S
S432 N434 1.610 . S
N433 S432 1.613 . S
N433 C436 1.350 . S
N434 S432 1.610 . S
N434 C435 1.351 . S
C435 C429 1.428 . S
C435 N434 1.351 . S
C435 C436 1.434 . S
C436 C427 1.429 . S
C436 N433 1.350 . S
C436 C435 1.434 . S
C437 C438 1.369 . S
C437 C439 1.419 . S
C437 H441 0.930 . S
C438 C437 1.369 . S
C438 C447 1.429 . S
C439 C437 1.419 . S
C439 C440 1.363 . S
C439 H442 0.929 . S
C440 C439 1.363 . S
C440 C446 1.428 . S
H441 C437 0.930 . S
H442 C439 0.929 . S
S443 N444 1.613 1_556 S
S443 N445 1.610 . S
N444 S443 1.613 1_554 S
N444 C447 1.350 1_554 S
N445 S443 1.610 . S
N445 C446 1.351 . S
C446 C440 1.428 . S
C446 N445 1.351 . S
C446 C447 1.434 . S
C447 C438 1.429 . S
C447 N444 1.350 1_556 S
C447 C446 1.434 . S
C448 C449 1.369 . S
C448 C450 1.419 . S
C448 H452 0.930 . S
C449 C448 1.369 . S
C449 C458 1.429 . S
C450 C448 1.419 . S
C450 C451 1.363 . S
C450 H453 0.929 . S
C451 C450 1.363 . S
C451 C457 1.428 . S
H452 C448 0.930 . S
H453 C450 0.929 . S
S454 N455 1.613 . S
S454 N456 1.610 . S
N455 S454 1.613 . S
N455 C458 1.350 . S
N456 S454 1.610 . S
N456 C457 1.351 . S
C457 C451 1.428 . S
C457 N456 1.351 . S
C457 C458 1.434 . S
C458 C449 1.429 . S
C458 N455 1.350 . S
C458 C457 1.434 . S
C459 C460 1.369 . S
C459 C461 1.419 1_545 S
C459 H463 0.930 . S
C460 C459 1.369 . S
C460 C469 1.429 . S
C461 C459 1.419 1_565 S
C461 C462 1.363 . S
C461 H464 0.929 . S
C462 C461 1.363 . S
C462 C468 1.428 1_565 S
H463 C459 0.930 . S
H464 C461 0.929 . S
S465 N466 1.613 . S
S465 N467 1.610 . S
N466 S465 1.613 . S
N466 C469 1.350 . S
N467 S465 1.610 . S
N467 C468 1.351 . S
C468 C462 1.428 1_545 S
C468 N467 1.351 . S
C468 C469 1.434 . S
C469 C460 1.429 . S
C469 N466 1.350 . S
C469 C468 1.434 . S
C470 C471 1.369 . S
C470 C472 1.419 . S
C470 H474 0.930 . S
C471 C470 1.369 . S
C471 C480 1.429 . S
C472 C470 1.419 . S
C472 C473 1.363 . S
C472 H475 0.929 . S
C473 C472 1.363 . S
C473 C479 1.428 . S
H474 C470 0.930 . S
H475 C472 0.929 . S
S476 N477 1.613 . S
S476 N478 1.610 . S
N477 S476 1.613 . S
N477 C480 1.350 . S
N478 S476 1.610 . S
N478 C479 1.351 . S
C479 C473 1.428 . S
C479 N478 1.351 . S
C479 C480 1.434 . S
C480 C471 1.429 . S
C480 N477 1.350 . S
C480 C479 1.434 . S
C481 C482 1.369 . S
C481 C483 1.419 . S
C481 H485 0.930 . S
C482 C481 1.369 . S
C482 C491 1.429 1_545 S
C483 C481 1.419 . S
C483 C484 1.363 1_545 S
C483 H486 0.929 . S
C484 C483 1.363 1_565 S
C484 C490 1.428 . S
H485 C481 0.930 . S
H486 C483 0.929 . S
S487 N488 1.613 . S
S487 N489 1.610 . S
N488 S487 1.613 . S
N488 C491 1.350 . S
N489 S487 1.610 . S
N489 C490 1.351 . S
C490 C484 1.428 . S
C490 N489 1.351 . S
C490 C491 1.434 . S
C491 C482 1.429 1_565 S
C491 N488 1.350 . S
C491 C490 1.434 . S
C492 C493 1.369 . S
C492 C494 1.419 1_655 S
C492 H496 0.930 . S
C493 C492 1.369 . S
C493 C502 1.429 1_655 S
C494 C492 1.419 1_455 S
C494 C495 1.363 . S
C494 H497 0.929 . S
C495 C494 1.363 . S
C495 C501 1.428 . S
H496 C492 0.930 . S
H497 C494 0.929 . S
S498 N499 1.613 . S
S498 N500 1.610 . S
N499 S498 1.613 . S
N499 C502 1.350 . S
N500 S498 1.610 . S
N500 C501 1.351 . S
C501 C495 1.428 . S
C501 N500 1.351 . S
C501 C502 1.434 . S
C502 C493 1.429 1_455 S
C502 N499 1.350 . S
C502 C501 1.434 . S
C503 C504 1.369 . S
C503 C505 1.419 . S
C503 H507 0.930 . S
C504 C503 1.369 . S
C504 C513 1.429 . S
C505 C503 1.419 . S
C505 C506 1.363 . S
C505 H508 0.929 . S
C506 C505 1.363 . S
C506 C512 1.428 . S
H507 C503 0.930 . S
H508 C505 0.929 . S
S509 N510 1.613 . S
S509 N511 1.610 . S
N510 S509 1.613 . S
N510 C513 1.350 . S
N511 S509 1.610 . S
N511 C512 1.351 . S
C512 C506 1.428 . S
C512 N511 1.351 . S
C512 C513 1.434 . S
C513 C504 1.429 . S
C513 N510 1.350 . S
C513 C512 1.434 . S
C514 C515 1.369 . S
C514 C516 1.419 . S
C514 H518 0.930 . S
C515 C514 1.369 . S
C515 C524 1.429 1_455 S
C516 C514 1.419 . S
C516 C517 1.363 1_455 S
C516 H519 0.929 . S
C517 C516 1.363 1_655 S
C517 C523 1.428 . S
H518 C514 0.930 . S
H519 C516 0.929 . S
S520 N521 1.613 . S
S520 N522 1.610 . S
N521 S520 1.613 . S
N521 C524 1.350 . S
N522 S520 1.610 . S
N522 C523 1.351 . S
C523 C517 1.428 . S
C523 N522 1.351 . S
C523 C524 1.434 . S
C524 C515 1.429 1_655 S
C524 N521 1.350 . S
C524 C523 1.434 . S
C525 C526 1.369 . S
C525 C527 1.419 . S
C525 H529 0.930 . S
C526 C525 1.369 . S
C526 C535 1.429 . S
C527 C525 1.419 . S
C527 C528 1.363 . S
C527 H530 0.929 . S
C528 C527 1.363 . S
C528 C534 1.428 . S
H529 C525 0.930 . S
H530 C527 0.929 . S
S531 N532 1.613 . S
S531 N533 1.610 . S
N532 S531 1.613 . S
N532 C535 1.350 . S
N533 S531 1.610 . S
N533 C534 1.351 . S
C534 C528 1.428 . S
C534 N533 1.351 . S
C534 C535 1.434 . S
C535 C526 1.429 . S
C535 N532 1.350 . S
C535 C534 1.434 . S
C536 C537 1.369 . S
C536 C538 1.419 . S
C536 H540 0.930 . S
C537 C536 1.369 . S
C537 C546 1.429 . S
C538 C536 1.419 . S
C538 C539 1.363 . S
C538 H541 0.929 . S
C539 C538 1.363 . S
C539 C545 1.428 . S
H540 C536 0.930 . S
H541 C538 0.929 . S
S542 N543 1.613 . S
S542 N544 1.610 . S
N543 S542 1.613 . S
N543 C546 1.350 . S
N544 S542 1.610 . S
N544 C545 1.351 . S
C545 C539 1.428 . S
C545 N544 1.351 . S
C545 C546 1.434 . S
C546 C537 1.429 . S
C546 N543 1.350 . S
C546 C545 1.434 . S
C547 C548 1.369 . S
C547 C549 1.419 . S
C547 H551 0.930 . S
C548 C547 1.369 . S
C548 C557 1.429 . S
C549 C547 1.419 . S
C549 C550 1.363 . S
C549 H552 0.929 . S
C550 C549 1.363 . S
C550 C556 1.428 . S
H551 C547 0.930 . S
H552 C549 0.929 . S
S553 N554 1.613 1_655 S
S553 N555 1.610 1_655 S
N554 S553 1.613 1_455 S
N554 C557 1.350 1_545 S
N555 S553 1.610 1_455 S
N555 C556 1.352 1_545 S
C556 C550 1.428 . S
C556 N555 1.352 1_565 S
C556 C557 1.434 . S
C557 C548 1.429 . S
C557 N554 1.350 1_565 S
C557 C556 1.434 . S
C558 C559 1.369 . S
C558 C560 1.419 1_554 S
C558 H562 0.930 . S
C559 C558 1.369 . S
C559 C568 1.429 . S
C560 C558 1.419 1_556 S
C560 C561 1.363 . S
C560 H563 0.929 . S
C561 C560 1.363 . S
C561 C567 1.428 . S
H562 C558 0.930 . S
H563 C560 0.929 . S
S564 N565 1.613 . S
S564 N566 1.610 1_554 S
N565 S564 1.613 . S
N565 C568 1.350 . S
N566 S564 1.610 1_556 S
N566 C567 1.351 . S
C567 C561 1.428 . S
C567 N566 1.351 . S
C567 C568 1.434 1_556 S
C568 C559 1.429 . S
C568 N565 1.350 . S
C568 C567 1.434 1_554 S
C569 C570 1.369 . S
C569 C571 1.419 . S
C569 H573 0.930 . S
C570 C569 1.369 . S
C570 C579 1.429 . S
C571 C569 1.419 . S
C571 C572 1.363 . S
C571 H574 0.929 . S
C572 C571 1.363 . S
C572 C578 1.428 . S
H573 C569 0.930 . S
H574 C571 0.929 . S
S575 N576 1.613 1_565 S
S575 N577 1.610 1_455 S
N576 S575 1.613 1_545 S
N576 C579 1.350 1_455 S
N577 S575 1.610 1_655 S
N577 C578 1.351 1_565 S
C578 C572 1.428 . S
C578 N577 1.351 1_545 S
C578 C579 1.434 . S
C579 C570 1.429 . S
C579 N576 1.350 1_655 S
C579 C578 1.434 . S
C273 C3 1.284 . S
C275 C158 1.426 . S
C284 C192 1.423 1_565 S
C286 C35 1.288 . S
C295 C226 1.423 . S
C297 C69 1.288 . S
C306 C103 1.273 . S
C308 C253 1.437 . S
C317 C15 1.432 1_655 S
C319 C137 1.275 . S
C328 C56 1.432 . S
C330 C171 1.275 . S
C339 C205 1.289 . S
C341 C90 1.431 . S
C350 C124 1.424 . S
C352 C241 1.288 . S
C361 C40 1.487 . S
C363 C6 1.529 . S
C372 C74 1.491 . S
C374 C62 1.528 . S
C383 C96 1.533 1_554 S
C385 C108 1.487 . S
C394 C130 1.532 . S
C396 C28 1.490 . S
C405 C266 1.484 . S
C407 C164 1.532 . S
C416 C198 1.527 . S
C418 C142 1.491 . S
C427 C232 1.527 . S
C429 C176 1.490 . S
C438 C244 1.532 1_556 S
C440 C210 1.490 . S
C449 C153 1.945 . S
C451 C22 1.658 . S
C460 C187 1.945 . S
C462 C49 1.659 . S
C471 C83 1.656 . S
C473 C221 1.944 . S
C482 C117 1.669 . S
C484 C255 1.942 . S
C493 C151 1.670 . S
C495 C17 1.942 . S
C504 C185 1.670 . S
C506 C51 1.942 . S
C515 C219 1.667 . S
C517 C85 1.943 . S
C526 C260 1.657 . S
C528 C119 1.944 . S
C537 C173 2.187 . S
C539 C1 2.190 . S
C548 C207 2.190 . S
C550 C37 2.191 . S
C559 C239 2.189 . S
C561 C71 2.191 . S
C570 C105 2.190 . S
C572 C139 2.191 . S
