# Generated by pormake.
# Topology snk, (6)-cn, num edge types: 1
# Building blocks:
#     Node 0, Type 0, BuildingBlock: KUMJIN_clean_sbu_1, # of connection points: 6
#     Node 1, Type 0, BuildingBlock: KUMJIN_clean_sbu_1, # of connection points: 6
#     Node 2, Type 0, BuildingBlock: KUMJIN_clean_sbu_1, # of connection points: 6
#     Node 3, Type 0, BuildingBlock: KUMJIN_clean_sbu_1, # of connection points: 6
#     Node 4, Type 0, BuildingBlock: KUMJIN_clean_sbu_1, # of connection points: 6
#     Node 5, Type 0, BuildingBlock: KUMJIN_clean_sbu_1, # of connection points: 6
#     Node 6, Type 0, BuildingBlock: KUMJIN_clean_sbu_1, # of connection points: 6
#     Node 7, Type 0, BuildingBlock: KUMJIN_clean_sbu_1, # of connection points: 6
#     Edge 8, Type (0, 0), BuildingBlock: XIVTED_clean_linker_0, # of connection points: 2
#     Edge 9, Type (0, 0), BuildingBlock: XIVTED_clean_linker_0, # of connection points: 2
#     Edge 10, Type (0, 0), BuildingBlock: XIVTED_clean_linker_0, # of connection points: 2
#     Edge 11, Type (0, 0), BuildingBlock: XIVTED_clean_linker_0, # of connection points: 2
#     Edge 12, Type (0, 0), BuildingBlock: XIVTED_clean_linker_0, # of connection points: 2
#     Edge 13, Type (0, 0), BuildingBlock: XIVTED_clean_linker_0, # of connection points: 2
#     Edge 14, Type (0, 0), BuildingBlock: XIVTED_clean_linker_0, # of connection points: 2
#     Edge 15, Type (0, 0), BuildingBlock: XIVTED_clean_linker_0, # of connection points: 2
#     Edge 16, Type (0, 0), BuildingBlock: XIVTED_clean_linker_0, # of connection points: 2
#     Edge 17, Type (0, 0), BuildingBlock: XIVTED_clean_linker_0, # of connection points: 2
#     Edge 18, Type (0, 0), BuildingBlock: XIVTED_clean_linker_0, # of connection points: 2
#     Edge 19, Type (0, 0), BuildingBlock: XIVTED_clean_linker_0, # of connection points: 2
#     Edge 20, Type (0, 0), BuildingBlock: XIVTED_clean_linker_0, # of connection points: 2
#     Edge 21, Type (0, 0), BuildingBlock: XIVTED_clean_linker_0, # of connection points: 2
#     Edge 22, Type (0, 0), BuildingBlock: XIVTED_clean_linker_0, # of connection points: 2
#     Edge 23, Type (0, 0), BuildingBlock: XIVTED_clean_linker_0, # of connection points: 2
#     Edge 24, Type (0, 0), BuildingBlock: XIVTED_clean_linker_0, # of connection points: 2
#     Edge 25, Type (0, 0), BuildingBlock: XIVTED_clean_linker_0, # of connection points: 2
#     Edge 26, Type (0, 0), BuildingBlock: XIVTED_clean_linker_0, # of connection points: 2
#     Edge 27, Type (0, 0), BuildingBlock: XIVTED_clean_linker_0, # of connection points: 2
#     Edge 28, Type (0, 0), BuildingBlock: XIVTED_clean_linker_0, # of connection points: 2
#     Edge 29, Type (0, 0), BuildingBlock: XIVTED_clean_linker_0, # of connection points: 2
#     Edge 30, Type (0, 0), BuildingBlock: XIVTED_clean_linker_0, # of connection points: 2
#     Edge 31, Type (0, 0), BuildingBlock: XIVTED_clean_linker_0, # of connection points: 2
# Relax obj value: 0.008
# Max RMSD: 0.072
# Mean RMSD: 0.071
data_MOF--net-snk--node1-KUMJIN_clean_sbu_1--edge1-XIVTED_clean_linker_0
_symmetry_space_group_name_H-M    P1
_symmetry_Int_Tables_number       1
_symmetry_cell_setting            triclinic
loop_
_symmetry_equiv_pos_as_xyz
'x, y, z'
_cell_length_a     38.745952
_cell_length_b     38.742825
_cell_length_c     24.779177
_cell_angle_alpha  90.490105
_cell_angle_beta   89.890446
_cell_angle_gamma 89.978794
loop_
_atom_site_label
_atom_site_type_symbol
_atom_site_fract_x
_atom_site_fract_y
_atom_site_fract_z
_atom_type_partial_charge
Eu0 Eu 0.99425 0.03139 0.58879 0.0
C1 C 0.96514 0.90247 0.44479 0.0
N2 N 0.99668 0.91532 0.45821 0.0
C3 C 0.01673 0.85871 0.48025 0.0
C4 C 0.95801 0.86696 0.44983 0.0
C5 C 0.02256 0.89413 0.475 0.0
C6 C 0.98429 0.84507 0.46783 0.0
C7 C 0.9066 0.91254 0.41408 0.0
C8 C 0.9396 0.92523 0.42788 0.0
C9 C 0.89933 0.87721 0.41949 0.0
C10 C 0.92493 0.85451 0.43736 0.0
Eu11 Eu 0.00413 0.97533 0.44945 0.0
N12 N 0.94717 0.9595 0.42386 0.0
C13 C 0.88206 0.93561 0.39414 0.0
C14 C 0.92425 0.98134 0.39995 0.0
C15 C 0.89116 0.97001 0.3861 0.0
H16 H 0.0477 0.90462 0.48418 0.0
H17 H 0.87291 0.98769 0.36821 0.0
H18 H 0.94774 0.10032 0.55414 0.0
H19 H 0.12735 0.02362 0.66349 0.0
H20 H 0.93147 0.00724 0.38952 0.0
H21 H 0.85646 0.92687 0.38301 0.0
H22 H 0.06945 0.00172 0.64348 0.0
H23 H 0.03724 0.84195 0.49391 0.0
H24 H 0.87405 0.86712 0.4094 0.0
H25 H 0.91892 0.82733 0.4412 0.0
H26 H 0.95579 0.16328 0.54387 0.0
H27 H 0.97981 0.81763 0.47225 0.0
H28 H 0.14087 0.0853 0.65007 0.0
N29 N 0.99933 0.09158 0.57921 0.0
C30 C 0.03045 0.10563 0.59211 0.0
C31 C 0.97701 0.14734 0.55725 0.0
C32 C 0.03618 0.14138 0.58686 0.0
C33 C 0.97257 0.11174 0.56272 0.0
C34 C 0.00897 0.16223 0.56919 0.0
N35 N 0.05095 0.04927 0.61211 0.0
C36 C 0.07526 0.0281 0.63401 0.0
C37 C 0.0897 0.09779 0.62119 0.0
C38 C 0.05704 0.08386 0.60839 0.0
C39 C 0.11548 0.07559 0.63973 0.0
C40 C 0.10804 0.04072 0.64698 0.0
H41 H 0.01237 0.18981 0.56463 0.0
H42 H 0.07376 0.1825 0.59479 0.0
H43 H 0.12048 0.14444 0.62529 0.0
O44 O 0.99385 0.01855 0.6759 0.0
O45 O 0.02027 0.05655 0.51632 0.0
O46 O 0.04753 0.01083 0.47566 0.0
O47 O 0.95922 0.05785 0.64405 0.0
O48 O 0.02129 0.97921 0.59294 0.0
O49 O 0.04792 0.97163 0.50976 0.0
O50 O 0.00603 0.98876 0.36268 0.0
O51 O 0.97832 0.94993 0.52188 0.0
O52 O 0.95096 0.99521 0.56399 0.0
O53 O 0.03913 0.94826 0.39472 0.0
O54 O 0.97735 0.02777 0.44613 0.0
O55 O 0.95019 0.03342 0.52903 0.0
C56 C 0.04446 0.04407 0.48456 0.0
C57 C 0.95454 0.04762 0.74041 0.0
C58 C 0.95367 0.04041 0.83888 0.0
C59 C 0.92373 0.06094 0.84128 0.0
C60 C 0.92458 0.06794 0.74453 0.0
C61 C 0.90938 0.0745 0.79453 0.0
C62 C 0.96914 0.03391 0.78794 0.0
C63 C 0.04466 0.96448 0.56143 0.0
C64 C 0.96974 0.04114 0.6862 0.0
C65 C 0.06885 0.1551 0.59872 0.0
C66 C 0.0955 0.13339 0.61589 0.0
C67 C 0.95406 0.96208 0.55384 0.0
C68 C 0.04521 0.95918 0.2987 0.0
C69 C 0.04652 0.96622 0.2002 0.0
C70 C 0.07662 0.94591 0.19828 0.0
C71 C 0.07532 0.93908 0.29507 0.0
C72 C 0.03077 0.97272 0.25093 0.0
C73 C 0.09083 0.93256 0.24528 0.0
C74 C 0.9534 0.04135 0.47775 0.0
C75 C 0.02958 0.96557 0.35262 0.0
H76 H 0.91158 0.06706 0.87958 0.0
H77 H 0.9127 0.07879 0.70895 0.0
H78 H 0.88638 0.0903 0.7971 0.0
H79 H 0.99216 0.01811 0.78527 0.0
H80 H 0.089 0.9398 0.16015 0.0
H81 H 0.08707 0.92838 0.33087 0.0
H82 H 0.00761 0.98835 0.25326 0.0
H83 H 0.11396 0.91692 0.24307 0.0
Eu84 Eu 0.2193 0.74492 0.83502 0.0
C85 C 0.35223 0.72407 0.69197 0.0
N86 N 0.33578 0.75435 0.70298 0.0
C87 C 0.38994 0.78272 0.71715 0.0
C88 C 0.38854 0.72199 0.69373 0.0
C89 C 0.3539 0.78356 0.71498 0.0
C90 C 0.40735 0.75181 0.70656 0.0
C91 C 0.34904 0.66305 0.66928 0.0
C92 C 0.33258 0.69485 0.68015 0.0
C93 C 0.38521 0.66093 0.67105 0.0
C94 C 0.40489 0.69029 0.68323 0.0
Eu95 Eu 0.2752 0.75338 0.69747 0.0
N96 N 0.29747 0.69745 0.67982 0.0
C97 C 0.32867 0.63432 0.65657 0.0
C98 C 0.27771 0.66994 0.66455 0.0
C99 C 0.2929 0.63789 0.65363 0.0
H100 H 0.34056 0.80765 0.72205 0.0
H101 H 0.27701 0.61607 0.64216 0.0
H102 H 0.15612 0.68753 0.81313 0.0
H103 H 0.21199 0.88255 0.88625 0.0
H104 H 0.25036 0.67255 0.6591 0.0
H105 H 0.34035 0.60946 0.64792 0.0
H106 H 0.24096 0.82712 0.86955 0.0
H107 H 0.40427 0.80594 0.72676 0.0
H108 H 0.39824 0.63668 0.66293 0.0
H109 H 0.43277 0.68818 0.68451 0.0
H110 H 0.0924 0.68655 0.80872 0.0
H111 H 0.43528 0.75124 0.70836 0.0
H112 H 0.14834 0.88629 0.88228 0.0
N113 N 0.15875 0.74122 0.8304 0.0
C114 C 0.14108 0.77088 0.84085 0.0
C115 C 0.10578 0.71045 0.81755 0.0
C116 C 0.1047 0.77142 0.83943 0.0
C117 C 0.14182 0.71114 0.81948 0.0
C118 C 0.08712 0.74072 0.82745 0.0
N119 N 0.19467 0.79989 0.85188 0.0
C120 C 0.21341 0.82843 0.86549 0.0
C121 C 0.14177 0.83214 0.86251 0.0
C122 C 0.1595 0.80098 0.85215 0.0
C123 C 0.161 0.86186 0.87406 0.0
C124 C 0.19694 0.8599 0.87602 0.0
H125 H 0.05918 0.7401 0.82593 0.0
H126 H 0.05913 0.80339 0.84859 0.0
H127 H 0.09153 0.85647 0.86886 0.0
O128 O 0.23722 0.75011 0.91842 0.0
O129 O 0.1944 0.77269 0.7641 0.0
O130 O 0.24045 0.79774 0.7216 0.0
O131 O 0.19792 0.71259 0.89863 0.0
O132 O 0.27093 0.77309 0.83923 0.0
O133 O 0.27855 0.7985 0.75584 0.0
O134 O 0.25824 0.7492 0.61346 0.0
O135 O 0.30032 0.72696 0.76933 0.0
O136 O 0.25442 0.7009 0.81041 0.0
O137 O 0.29788 0.78589 0.63517 0.0
O138 O 0.22291 0.72638 0.69336 0.0
O139 O 0.21662 0.70014 0.77611 0.0
C140 C 0.20719 0.79533 0.73033 0.0
C141 C 0.19539 0.73869 0.98544 0.0
C142 C 0.19348 0.74916 0.08289 0.0
C143 C 0.15877 0.75935 0.07806 0.0
C144 C 0.16064 0.74864 0.98178 0.0
C145 C 0.14255 0.75906 0.02783 0.0
C146 C 0.21169 0.73902 0.03606 0.0
C147 C 0.28583 0.79583 0.8075 0.0
C148 C 0.21504 0.72791 0.93711 0.0
C149 C 0.08707 0.80247 0.8496 0.0
C150 C 0.10554 0.83272 0.86111 0.0
C151 C 0.28773 0.70392 0.80255 0.0
C152 C 0.30107 0.76038 0.54794 0.0
C153 C 0.30355 0.74952 0.45061 0.0
C154 C 0.33832 0.73966 0.45596 0.0
C155 C 0.33589 0.75073 0.55214 0.0
C156 C 0.28504 0.75971 0.49712 0.0
C157 C 0.35429 0.7403 0.5064 0.0
C158 C 0.20816 0.70356 0.72508 0.0
C159 C 0.28102 0.77114 0.59589 0.0
H160 H 0.14419 0.76786 0.11306 0.0
H161 H 0.14735 0.74821 0.94356 0.0
H162 H 0.11581 0.76688 0.02457 0.0
H163 H 0.23836 0.73081 0.03897 0.0
H164 H 0.35314 0.73114 0.42121 0.0
H165 H 0.34898 0.75139 0.59055 0.0
H166 H 0.25831 0.76769 0.49381 0.0
H167 H 0.38107 0.73271 0.51005 0.0
Eu168 Eu 0.5017 0.97344 0.08131 0.0
C169 C 0.52104 0.11109 0.95439 0.0
N170 N 0.49132 0.09252 0.95737 0.0
C171 C 0.45855 0.1443 0.97086 0.0
C172 C 0.52058 0.1473 0.96053 0.0
C173 C 0.46026 0.10843 0.96481 0.0
C174 C 0.48883 0.16382 0.96885 0.0
C175 C 0.5835 0.11224 0.94554 0.0
C176 C 0.55223 0.09365 0.94724 0.0
C177 C 0.58307 0.14833 0.9515 0.0
C178 C 0.55173 0.16579 0.95897 0.0
Eu179 Eu 0.49695 0.03232 0.94775 0.0
N180 N 0.55205 0.05851 0.94346 0.0
C181 C 0.61434 0.094 0.93801 0.0
C182 C 0.58183 0.04085 0.93329 0.0
C183 C 0.61343 0.0582 0.93125 0.0
H184 H 0.43675 0.09347 0.96565 0.0
H185 H 0.63705 0.04398 0.92388 0.0
H186 H 0.56697 0.91697 0.06726 0.0
H187 H 0.36312 0.95108 0.10391 0.0
H188 H 0.58142 0.01356 0.92546 0.0
H189 H 0.63889 0.10734 0.93648 0.0
H190 H 0.41619 0.98593 0.09936 0.0
H191 H 0.43389 0.15687 0.97705 0.0
H192 H 0.60687 0.16298 0.95049 0.0
H193 H 0.55188 0.19362 0.96374 0.0
H194 H 0.57496 0.85384 0.05904 0.0
H195 H 0.48742 0.1916 0.9738 0.0
H196 H 0.36653 0.88744 0.0968 0.0
N197 N 0.51243 0.91372 0.0747 0.0
C198 C 0.48431 0.89286 0.07863 0.0
C199 C 0.54934 0.86449 0.06433 0.0
C200 C 0.48774 0.85669 0.0747 0.0
C201 C 0.54471 0.90021 0.06845 0.0
C202 C 0.52074 0.84263 0.06732 0.0
N203 N 0.44913 0.94283 0.08673 0.0
C204 C 0.41797 0.95838 0.09485 0.0
C205 C 0.42217 0.88677 0.08826 0.0
C206 C 0.45182 0.90776 0.08529 0.0
C207 C 0.38993 0.90267 0.09443 0.0
C208 C 0.38787 0.9386 0.09816 0.0
H209 H 0.52442 0.81497 0.06403 0.0
H210 H 0.46036 0.80791 0.07474 0.0
H211 H 0.40304 0.83422 0.08659 0.0
O212 O 0.48777 0.98912 0.16344 0.0
O213 O 0.47702 0.94994 1.00586 0.0
O214 O 0.45256 0.99513 0.95955 0.0
O215 O 0.5288 0.95214 0.15067 0.0
O216 O 0.47033 0.02313 0.08462 0.0
O217 O 0.44853 0.03225 0.99879 0.0
O218 O 0.51077 0.02017 0.86418 0.0
O219 O 0.51767 0.05595 0.02585 0.0
O220 O 0.54542 0.01109 0.06708 0.0
O221 O 0.46881 0.05538 0.8808 0.0
O222 O 0.52527 0.98085 0.94372 0.0
O223 O 0.54907 0.97467 0.02827 0.0
C224 C 0.45437 0.96222 0.97155 0.0
C225 C 0.53263 0.98857 0.22739 0.0
C226 C 0.54004 0.00646 0.32145 0.0
C227 C 0.57083 0.02334 0.30699 0.0
C228 C 0.56353 0.0052 0.21397 0.0
C229 C 0.58243 0.02266 0.25356 0.0
C230 C 0.52098 0.98922 0.28105 0.0
C231 C 0.44812 0.03733 0.05133 0.0
C232 C 0.512 0.97085 0.18584 0.0
C233 C 0.45822 0.83575 0.07776 0.0
C234 C 0.42556 0.85074 0.08453 0.0
C235 C 0.54135 0.04425 0.05878 0.0
C236 C 0.4652 0.02105 0.80166 0.0
C237 C 0.45829 0.00357 0.7073 0.0
C238 C 0.42745 0.98659 0.7212 0.0
C239 C 0.43433 0.00415 0.81453 0.0
C240 C 0.47708 0.02073 0.7481 0.0
C241 C 0.41562 0.98694 0.77449 0.0
C242 C 0.5476 0.9667 0.97676 0.0
C243 C 0.48574 0.0383 0.84382 0.0
H244 H 0.58628 0.03656 0.33711 0.0
H245 H 0.57299 0.00446 0.17296 0.0
H246 H 0.60626 0.03551 0.24288 0.0
H247 H 0.49687 0.9766 0.29111 0.0
H248 H 0.41219 0.97347 0.69075 0.0
H249 H 0.42477 0.0044 0.85549 0.0
H250 H 0.50122 0.03343 0.73847 0.0
H251 H 0.3918 0.97392 0.78475 0.0
Eu252 Eu 0.22248 0.25922 0.20091 0.0
C253 C 0.35581 0.27484 0.34022 0.0
N254 N 0.33957 0.24484 0.32689 0.0
C255 C 0.39354 0.21874 0.30294 0.0
C256 C 0.39186 0.27804 0.33437 0.0
C257 C 0.35772 0.21682 0.30908 0.0
C258 C 0.41069 0.24949 0.31552 0.0
C259 C 0.35219 0.3345 0.3705 0.0
C260 C 0.33601 0.3029 0.35745 0.0
C261 C 0.38813 0.33773 0.36478 0.0
C262 C 0.40788 0.30962 0.34671 0.0
Eu263 Eu 0.27922 0.24407 0.33761 0.0
N264 N 0.30105 0.29934 0.36133 0.0
C265 C 0.33183 0.36186 0.38947 0.0
C266 C 0.28155 0.32521 0.38335 0.0
C267 C 0.29645 0.35701 0.39667 0.0
H268 H 0.34454 0.19291 0.29996 0.0
H269 H 0.2807 0.37759 0.41333 0.0
H270 H 0.15719 0.31075 0.23744 0.0
H271 H 0.22041 0.12628 0.12278 0.0
H272 H 0.25473 0.32136 0.39255 0.0
H273 H 0.34329 0.38651 0.40001 0.0
H274 H 0.24652 0.18238 0.14406 0.0
H275 H 0.4079 0.19652 0.28855 0.0
H276 H 0.40092 0.36187 0.3744 0.0
H277 H 0.43555 0.31258 0.34236 0.0
H278 H 0.09384 0.30733 0.24895 0.0
H279 H 0.43843 0.25094 0.31045 0.0
H280 H 0.15784 0.11737 0.13648 0.0
N281 N 0.16205 0.25875 0.21087 0.0
C282 C 0.14571 0.22882 0.19748 0.0
C283 C 0.10813 0.28505 0.23462 0.0
C284 C 0.10964 0.22573 0.20327 0.0
C285 C 0.14396 0.28686 0.22848 0.0
C286 C 0.0909 0.25433 0.22214 0.0
N287 N 0.20035 0.20424 0.17612 0.0
C288 C 0.21974 0.17848 0.15351 0.0
C289 C 0.14912 0.16926 0.1667 0.0
C290 C 0.16541 0.20075 0.18006 0.0
C291 C 0.16938 0.14194 0.14728 0.0
C292 C 0.20475 0.14678 0.13987 0.0
H293 H 0.06315 0.25296 0.22719 0.0
H294 H 0.06584 0.19134 0.19512 0.0
H295 H 0.10031 0.14204 0.16266 0.0
O296 O 0.23632 0.25939 0.11401 0.0
O297 O 0.19665 0.23217 0.27194 0.0
O298 O 0.24132 0.20274 0.31111 0.0
O299 O 0.19866 0.29606 0.14646 0.0
O300 O 0.27323 0.22974 0.19383 0.0
O301 O 0.27895 0.20108 0.2751 0.0
O302 O 0.26635 0.24442 0.42486 0.0
O303 O 0.30492 0.27058 0.2659 0.0
O304 O 0.26009 0.30045 0.22852 0.0
O305 O 0.30337 0.2073 0.39186 0.0
O306 O 0.22817 0.27283 0.34524 0.0
O307 O 0.22233 0.30177 0.2643 0.0
C308 C 0.20822 0.20729 0.30273 0.0
C309 C 0.21033 0.30053 0.05024 0.0
C310 C 0.21797 0.30092 0.95162 0.0
C311 C 0.19998 0.33246 0.95006 0.0
C312 C 0.19258 0.33207 0.04687 0.0
C313 C 0.18749 0.34781 0.99722 0.0
C314 C 0.22298 0.2849 1.00225 0.0
C315 C 0.28634 0.20497 0.22365 0.0
C316 C 0.21522 0.28477 0.10416 0.0
C317 C 0.09352 0.19422 0.19078 0.0
C318 C 0.11318 0.1661 0.17248 0.0
C319 C 0.29325 0.29566 0.23564 0.0
C320 C 0.2927 0.2034 0.48845 0.0
C321 C 0.28533 0.20314 0.58711 0.0
C322 C 0.30372 0.17183 0.58874 0.0
C323 C 0.31087 0.1721 0.49188 0.0
C324 C 0.28 0.21899 0.53643 0.0
C325 C 0.31629 0.15654 0.54159 0.0
C326 C 0.2144 0.29721 0.31541 0.0
C327 C 0.28733 0.2189 0.43445 0.0
H328 H 0.195 0.34514 0.91207 0.0
H329 H 0.1826 0.34475 0.08278 0.0
H330 H 0.17364 0.37204 0.99525 0.0
H331 H 0.23679 0.26063 1.00431 0.0
H332 H 0.30892 0.1593 0.62678 0.0
H333 H 0.3209 0.15946 0.45598 0.0
H334 H 0.26586 0.24306 0.53433 0.0
H335 H 0.33044 0.13249 0.54361 0.0
Eu336 Eu 0.72279 0.24906 0.33974 0.0
C337 C 0.83765 0.18682 0.20985 0.0
N338 N 0.83441 0.2216 0.21345 0.0
C339 C 0.89449 0.22719 0.23439 0.0
C340 C 0.86943 0.1706 0.22074 0.0
C341 C 0.86231 0.24205 0.22383 0.0
C342 C 0.89798 0.19126 0.23354 0.0
C343 C 0.81214 0.1315 0.1877 0.0
C344 C 0.80928 0.16763 0.19384 0.0
C345 C 0.84314 0.11494 0.20143 0.0
C346 C 0.87176 0.13446 0.21785 0.0
Eu347 Eu 0.77935 0.24518 0.19751 0.0
N348 N 0.7798 0.18453 0.18033 0.0
C349 C 0.78432 0.1133 0.16557 0.0
C350 C 0.75443 0.16735 0.15289 0.0
C351 C 0.75571 0.13145 0.14675 0.0
H352 H 0.85942 0.2698 0.22503 0.0
H353 H 0.73491 0.11789 0.12662 0.0
H354 H 0.69178 0.16855 0.34978 0.0
H355 H 0.65713 0.36875 0.39371 0.0
H356 H 0.73329 0.18114 0.13479 0.0
H357 H 0.78545 0.08554 0.16017 0.0
H358 H 0.70729 0.33027 0.37669 0.0
H359 H 0.91648 0.2434 0.24359 0.0
H360 H 0.84562 0.08716 0.19771 0.0
H361 H 0.89579 0.12145 0.22695 0.0
H362 H 0.63515 0.13894 0.34968 0.0
H363 H 0.92285 0.17979 0.24215 0.0
H364 H 0.59773 0.34582 0.38463 0.0
N365 N 0.66993 0.21874 0.34529 0.0
C366 C 0.64078 0.23802 0.34825 0.0
C367 C 0.63634 0.16684 0.3488 0.0
C368 C 0.60794 0.2224 0.34981 0.0
C369 C 0.66831 0.18363 0.34845 0.0
C370 C 0.60598 0.18632 0.34851 0.0
N371 N 0.67626 0.28687 0.35676 0.0
C372 C 0.68135 0.3203 0.37271 0.0
C373 C 0.61474 0.29406 0.3641 0.0
C374 C 0.64408 0.27329 0.35482 0.0
C375 C 0.61958 0.329 0.37704 0.0
C376 C 0.65308 0.34202 0.38236 0.0
H377 H 0.58125 0.17328 0.34948 0.0
H378 H 0.55288 0.23172 0.35587 0.0
H379 H 0.55886 0.29455 0.36875 0.0
O380 O 0.76221 0.25306 0.40267 0.0
O381 O 0.71047 0.29203 0.28038 0.0
O382 O 0.72993 0.27665 0.19372 0.0
O383 O 0.70964 0.24123 0.42452 0.0
O384 O 0.76045 0.29324 0.3282 0.0
O385 O 0.79347 0.29156 0.24857 0.0
O386 O 0.78851 0.2376 0.11074 0.0
O387 O 0.80026 0.2338 0.28151 0.0
O388 O 0.75585 0.20351 0.31694 0.0
O389 O 0.80483 0.28464 0.14948 0.0
O390 O 0.72301 0.22898 0.19491 0.0
O391 O 0.72025 0.20546 0.27844 0.0
C392 C 0.71104 0.29552 0.22731 0.0
C393 C 0.75323 0.22088 0.48225 0.0
C394 C 0.76683 0.20834 0.57644 0.0
C395 C 0.77597 0.17451 0.56089 0.0
C396 C 0.76159 0.18688 0.46785 0.0
C397 C 0.77331 0.16393 0.50694 0.0
C398 C 0.75576 0.23149 0.53643 0.0
C399 C 0.78448 0.30535 0.29547 0.0
C400 C 0.74104 0.24549 0.44172 0.0
C401 C 0.57838 0.24319 0.35517 0.0
C402 C 0.58178 0.27897 0.36249 0.0
C403 C 0.789 0.20801 0.31058 0.0
C404 C 0.78682 0.28848 0.05806 0.0
C405 C 0.77179 0.29243 0.96221 0.0
C406 C 0.76066 0.32658 0.97125 0.0
C407 C 0.77573 0.32274 0.06565 0.0
C408 C 0.78502 0.27354 1.00603 0.0
C409 C 0.76264 0.34151 0.02254 0.0
C410 C 0.7069 0.20994 0.23054 0.0
C411 C 0.80081 0.26843 0.10376 0.0
H412 H 0.78433 0.15597 0.5906 0.0
H413 H 0.75872 0.17814 0.42658 0.0
H414 H 0.77992 0.13771 0.49552 0.0
H415 H 0.74914 0.25783 0.54733 0.0
H416 H 0.75089 0.34203 0.93842 0.0
H417 H 0.77702 0.33512 0.10495 0.0
H418 H 0.79354 0.24715 0.99988 0.0
H419 H 0.75411 0.36785 0.02887 0.0
Eu420 Eu 0.71673 0.76087 0.69257 0.0
C421 C 0.84938 0.78054 0.82989 0.0
N422 N 0.83468 0.74971 0.81687 0.0
C423 C 0.88981 0.72657 0.79192 0.0
C424 C 0.88515 0.78572 0.82326 0.0
C425 C 0.85419 0.72271 0.79874 0.0
C426 C 0.90535 0.75823 0.80403 0.0
C427 C 0.84286 0.83965 0.86138 0.0
C428 C 0.82826 0.80734 0.84796 0.0
C429 C 0.87845 0.84499 0.85442 0.0
C430 C 0.89952 0.81812 0.83536 0.0
Eu431 Eu 0.77447 0.74561 0.82809 0.0
N432 N 0.7937 0.80166 0.85339 0.0
C433 C 0.82137 0.86548 0.88247 0.0
C434 C 0.7734 0.82576 0.87843 0.0
C435 C 0.78663 0.85825 0.89199 0.0
H436 H 0.84222 0.69819 0.7897 0.0
H437 H 0.77015 0.87747 0.9108 0.0
H438 H 0.65594 0.81842 0.72731 0.0
H439 H 0.70378 0.62639 0.62505 0.0
H440 H 0.74733 0.81987 0.89003 0.0
H441 H 0.83158 0.89061 0.89336 0.0
H442 H 0.73468 0.68033 0.6444 0.0
H443 H 0.90523 0.70515 0.77726 0.0
H444 H 0.89 0.86972 0.86419 0.0
H445 H 0.92693 0.82263 0.83031 0.0
H446 H 0.5926 0.82043 0.73918 0.0
H447 H 0.93292 0.7612 0.79839 0.0
H448 H 0.64045 0.6236 0.63654 0.0
N449 N 0.65651 0.76569 0.70326 0.0
C450 C 0.6377 0.73701 0.69118 0.0
C451 C 0.60498 0.79679 0.72588 0.0
C452 C 0.6015 0.73707 0.69703 0.0
C453 C 0.64082 0.79549 0.71966 0.0
C454 C 0.58522 0.76743 0.71468 0.0
N455 N 0.69003 0.70747 0.6712 0.0
C456 C 0.70741 0.67932 0.6519 0.0
C457 C 0.63604 0.67682 0.66311 0.0
C458 C 0.6549 0.7071 0.67476 0.0
C459 C 0.654 0.64735 0.64597 0.0
C460 C 0.68978 0.64875 0.63977 0.0
H461 H 0.55746 0.76849 0.71972 0.0
H462 H 0.55493 0.70641 0.69006 0.0
H463 H 0.58511 0.65377 0.66014 0.0
O464 O 0.73101 0.75896 0.60566 0.0
O465 O 0.69179 0.73237 0.76302 0.0
O466 O 0.73704 0.70375 0.80229 0.0
O467 O 0.69425 0.79718 0.63623 0.0
O468 O 0.76619 0.72958 0.68371 0.0
O469 O 0.77587 0.70243 0.76568 0.0
O470 O 0.76215 0.74474 0.91544 0.0
O471 O 0.79979 0.77066 0.7549 0.0
O472 O 0.75522 0.80161 0.71904 0.0
O473 O 0.79998 0.70897 0.88123 0.0
O474 O 0.72288 0.77358 0.83565 0.0
O475 O 0.71854 0.80337 0.75565 0.0
C476 C 0.7039 0.70763 0.79363 0.0
C477 C 0.70623 0.79993 0.54007 0.0
C478 C 0.71481 0.79967 0.44162 0.0
C479 C 0.69671 0.83111 0.4391 0.0
C480 C 0.68843 0.8314 0.53568 0.0
C481 C 0.68373 0.84675 0.48566 0.0
C482 C 0.71936 0.78397 0.49263 0.0
C483 C 0.78065 0.7053 0.71312 0.0
C484 C 0.71066 0.78476 0.59456 0.0
C485 C 0.58276 0.70686 0.68572 0.0
C486 C 0.59996 0.67685 0.66877 0.0
C487 C 0.78836 0.79623 0.72548 0.0
C488 C 0.78982 0.704 0.97793 0.0
C489 C 0.783 0.70307 0.07669 0.0
C490 C 0.80173 0.67196 0.07761 0.0
C491 C 0.80839 0.67291 0.98066 0.0
C492 C 0.7772 0.71915 0.02632 0.0
C493 C 0.81424 0.65711 0.03006 0.0
C494 C 0.70999 0.7987 0.8064 0.0
C495 C 0.78384 0.71973 0.92425 0.0
H496 H 0.69206 0.84351 0.40078 0.0
H497 H 0.67808 0.84436 0.57109 0.0
H498 H 0.66983 0.87092 0.48294 0.0
H499 H 0.73323 0.75976 0.49543 0.0
H500 H 0.80728 0.65926 0.11539 0.0
H501 H 0.81835 0.66061 0.94442 0.0
H502 H 0.76276 0.74306 0.02475 0.0
H503 H 0.82868 0.6332 0.03154 0.0
Eu504 Eu 0.49458 0.52918 0.08308 0.0
C505 C 0.46593 0.39831 0.9439 0.0
N506 N 0.49753 0.41161 0.95571 0.0
C507 C 0.51853 0.35545 0.97843 0.0
C508 C 0.45925 0.3628 0.95019 0.0
C509 C 0.52389 0.39086 0.97199 0.0
C510 C 0.48603 0.34137 0.96772 0.0
C511 C 0.40685 0.40744 0.91505 0.0
C512 C 0.43991 0.42061 0.92729 0.0
C513 C 0.40002 0.37212 0.92175 0.0
C514 C 0.42612 0.34989 0.93932 0.0
Eu515 Eu 0.50425 0.47159 0.94511 0.0
N516 N 0.44709 0.45489 0.92195 0.0
C517 C 0.38179 0.43001 0.89528 0.0
C518 C 0.42361 0.47619 0.89818 0.0
C519 C 0.39044 0.46438 0.88585 0.0
H520 H 0.54906 0.4017 0.9798 0.0
H521 H 0.37177 0.48165 0.86803 0.0
H522 H 0.44563 0.59656 0.04908 0.0
H523 H 0.62828 0.52613 0.15608 0.0
H524 H 0.43042 0.502 0.88665 0.0
H525 H 0.35613 0.42089 0.88532 0.0
H526 H 0.57096 0.50236 0.13727 0.0
H527 H 0.53944 0.33906 0.99166 0.0
H528 H 0.3747 0.36167 0.91288 0.0
H529 H 0.42045 0.3227 0.94413 0.0
H530 H 0.45166 0.65962 0.03751 0.0
H531 H 0.48191 0.31395 0.97303 0.0
H532 H 0.63985 0.58807 0.14134 0.0
N533 N 0.49773 0.58949 0.07282 0.0
C534 C 0.52851 0.60458 0.08473 0.0
C535 C 0.4735 0.64442 0.05057 0.0
C536 C 0.53309 0.64045 0.07884 0.0
C537 C 0.47021 0.60874 0.05671 0.0
C538 C 0.50511 0.66035 0.06147 0.0
N539 N 0.55081 0.54907 0.1054 0.0
C540 C 0.5759 0.52882 0.12728 0.0
C541 C 0.58815 0.59878 0.11298 0.0
C542 C 0.55585 0.58378 0.10094 0.0
C543 C 0.61471 0.57753 0.13155 0.0
C544 C 0.60836 0.54251 0.13955 0.0
H545 H 0.50761 0.68799 0.05645 0.0
H546 H 0.56944 0.68276 0.08544 0.0
H547 H 0.61753 0.64637 0.11577 0.0
O548 O 0.49454 0.51593 0.17015 0.0
O549 O 0.52014 0.55402 1.01006 0.0
O550 O 0.54732 0.50833 0.96876 0.0
O551 O 0.45963 0.55516 0.13891 0.0
O552 O 0.52345 0.47786 0.08783 0.0
O553 O 0.54889 0.46913 1.00396 0.0
O554 O 0.50487 0.48375 0.8578 0.0
O555 O 0.47996 0.4467 0.01928 0.0
O556 O 0.45189 0.49239 0.05843 0.0
O557 O 0.53914 0.44442 0.89032 0.0
O558 O 0.47711 0.52373 0.94058 0.0
O559 O 0.45027 0.53062 0.02349 0.0
C560 C 0.54399 0.54159 0.9776 0.0
C561 C 0.4551 0.54457 0.23513 0.0
C562 C 0.45405 0.53696 0.33356 0.0
C563 C 0.42412 0.55751 0.33601 0.0
C564 C 0.42513 0.56487 0.23936 0.0
C565 C 0.40986 0.57125 0.28935 0.0
C566 C 0.46964 0.53067 0.28261 0.0
C567 C 0.54683 0.46319 0.05618 0.0
C568 C 0.47032 0.53834 0.18082 0.0
C569 C 0.56541 0.65526 0.08988 0.0
C570 C 0.59283 0.6345 0.10696 0.0
C571 C 0.45574 0.45909 0.05105 0.0
C572 C 0.54394 0.45406 0.79372 0.0
C573 C 0.54516 0.46122 0.69521 0.0
C574 C 0.57479 0.44024 0.69302 0.0
C575 C 0.57358 0.43328 0.78979 0.0
C576 C 0.52965 0.46796 0.74607 0.0
C577 C 0.5888 0.42647 0.73987 0.0
C578 C 0.45335 0.53793 0.97189 0.0
C579 C 0.52882 0.46096 0.84789 0.0
H580 H 0.4119 0.56348 0.37431 0.0
H581 H 0.4133 0.57587 0.20385 0.0
H582 H 0.38686 0.58705 0.29198 0.0
H583 H 0.49266 0.51487 0.27989 0.0
H584 H 0.58695 0.43394 0.6548 0.0
H585 H 0.58521 0.42227 0.82545 0.0
H586 H 0.50688 0.48414 0.74859 0.0
H587 H 0.61157 0.41032 0.73745 0.0
Eu588 Eu 0.99704 0.47151 0.57879 0.0
C589 C 0.06335 0.5877 0.44751 0.0
N590 N 0.02867 0.58499 0.4528 0.0
C591 C 0.02452 0.64531 0.47405 0.0
C592 C 0.08036 0.61922 0.4578 0.0
C593 C 0.0089 0.61335 0.46382 0.0
C594 C 0.06049 0.64812 0.47202 0.0
C595 C 0.11716 0.56185 0.41854 0.0
C596 C 0.08138 0.5594 0.42837 0.0
C597 C 0.13476 0.5924 0.43224 0.0
C598 C 0.11637 0.62108 0.45182 0.0
Eu599 Eu 0.00395 0.52996 0.43937 0.0
N600 N 0.06334 0.53065 0.4145 0.0
C601 C 0.13377 0.53421 0.39268 0.0
C602 C 0.07874 0.50536 0.38414 0.0
C603 C 0.11428 0.50623 0.37416 0.0
H604 H 0.98114 0.61096 0.46602 0.0
H605 H 0.12654 0.48548 0.35172 0.0
H606 H 0.07434 0.43275 0.5921 0.0
H607 H 0.87206 0.40762 0.59873 0.0
H608 H 0.06375 0.48428 0.36763 0.0
H609 H 0.16122 0.53502 0.38438 0.0
H610 H 0.91409 0.45566 0.60765 0.0
H611 H 0.00887 0.66763 0.48395 0.0
H612 H 0.16234 0.59458 0.42577 0.0
H613 H 0.13004 0.64489 0.46039 0.0
H614 H 0.1006 0.37557 0.57359 0.0
H615 H 0.07256 0.67283 0.48017 0.0
H616 H 0.8915 0.35059 0.56444 0.0
N617 N 0.02375 0.41662 0.57043 0.0
C618 C 0.00287 0.38959 0.5585 0.0
C619 C 0.07308 0.3792 0.56875 0.0
C620 C 0.01647 0.35636 0.5487 0.0
C621 C 0.05818 0.41151 0.57903 0.0
C622 C 0.05222 0.35165 0.55229 0.0
N623 N 0.95603 0.42618 0.57676 0.0
C624 C 0.92259 0.43067 0.59303 0.0
C625 C 0.9449 0.36636 0.55655 0.0
C626 C 0.96768 0.39451 0.56208 0.0
C627 C 0.90988 0.37155 0.56817 0.0
C628 C 0.89884 0.40364 0.58782 0.0
H629 H 0.06375 0.32657 0.54487 0.0
H630 H 0.0038 0.30305 0.53019 0.0
H631 H 0.94097 0.3118 0.53729 0.0
O632 O 0.99056 0.50363 0.65101 0.0
O633 O 0.95264 0.46977 0.51815 0.0
O634 O 0.98166 0.47614 0.43855 0.0
O635 O 0.00449 0.45033 0.65967 0.0
O636 O 0.95725 0.51405 0.5724 0.0
O637 O 0.95933 0.54679 0.49304 0.0
O638 O 0.0071 0.5416 0.35297 0.0
O639 O 0.01585 0.55263 0.52269 0.0
O640 O 0.04216 0.507 0.56323 0.0
O641 O 0.95862 0.54676 0.39467 0.0
O642 O 0.02328 0.47448 0.44067 0.0
O643 O 0.04517 0.47249 0.52602 0.0
C644 C 0.95407 0.46689 0.46531 0.0
C645 C 0.02366 0.4893 0.727 0.0
C646 C 0.03554 0.50109 0.82229 0.0
C647 C 0.06934 0.51085 0.80823 0.0
C648 C 0.05758 0.49862 0.71395 0.0
C649 C 0.08024 0.50949 0.75442 0.0
C650 C 0.01278 0.49037 0.78111 0.0
C651 C 0.94623 0.53905 0.54079 0.0
C652 C 0.99905 0.47949 0.6845 0.0
C653 C 0.99387 0.32869 0.53859 0.0
C654 C 0.95809 0.33368 0.54261 0.0
C655 C 0.03861 0.54035 0.55673 0.0
C656 C 0.95667 0.52666 0.30382 0.0
C657 C 0.95458 0.50765 0.20913 0.0
C658 C 0.9239 0.48961 0.22047 0.0
C659 C 0.92603 0.50829 0.31375 0.0
C660 C 0.97074 0.52631 0.25127 0.0
C661 C 0.90988 0.48992 0.27233 0.0
C662 C 0.04496 0.46163 0.47584 0.0
C663 C 0.97401 0.54606 0.34794 0.0
H664 H 0.08753 0.51898 0.83894 0.0
H665 H 0.06636 0.49755 0.67251 0.0
H666 H 0.10637 0.51682 0.74405 0.0
H667 H 0.98644 0.48337 0.79098 0.0
H668 H 0.91034 0.47557 0.18905 0.0
H669 H 0.91446 0.50797 0.35356 0.0
H670 H 0.99452 0.54016 0.24354 0.0
H671 H 0.88629 0.47591 0.28045 0.0
H672 H 0.10763 0.02904 0.44097 0.0
H673 H 0.1388 0.21671 0.31917 0.0
H674 H 0.03677 0.11349 0.4674 0.0
H675 H 0.22097 0.14337 0.34427 0.0
H676 H 0.09857 0.17708 0.3633 0.0
H677 H 0.14722 0.06866 0.39586 0.0
C678 C 0.1004 0.05593 0.43732 0.0
C679 C 0.0689 0.068 0.45819 0.0
C680 C 0.12542 0.16972 0.35912 0.0
C681 C 0.11398 0.11342 0.40611 0.0
C682 C 0.14834 0.1922 0.3336 0.0
C683 C 0.18332 0.18332 0.32796 0.0
C684 C 0.13746 0.13797 0.37858 0.0
C685 C 0.19428 0.15135 0.34795 0.0
C686 C 0.12306 0.07854 0.4117 0.0
C687 C 0.06093 0.10315 0.45237 0.0
N688 N 0.17143 0.1298 0.37215 0.0
N689 N 0.08323 0.1246 0.4266 0.0
H690 H 0.03358 0.92513 0.65046 0.0
H691 H 0.22387 0.8481 0.66189 0.0
H692 H 0.10961 0.94626 0.52765 0.0
H693 H 0.13655 0.79873 0.73732 0.0
H694 H 0.18438 0.88904 0.61954 0.0
H695 H 0.07319 0.88357 0.6909 0.0
C696 C 0.05867 0.92108 0.63211 0.0
C697 C 0.06839 0.93915 0.5857 0.0
C698 C 0.17398 0.86925 0.64553 0.0
C699 C 0.11384 0.89186 0.6319 0.0
C700 C 0.19647 0.84592 0.66988 0.0
C701 C 0.18362 0.8202 0.70413 0.0
C702 C 0.13843 0.86711 0.65595 0.0
C703 C 0.1478 0.81853 0.71244 0.0
C704 C 0.08116 0.89725 0.65503 0.0
C705 C 0.10109 0.93273 0.56332 0.0
N706 N 0.1265 0.84181 0.68889 0.0
N707 N 0.12279 0.90975 0.58688 0.0
H708 H 0.32901 0.78427 0.89202 0.0
H709 H 0.39269 0.97759 0.92333 0.0
H710 H 0.29915 0.86247 0.77835 0.0
H711 H 0.45781 0.89164 0.96592 0.0
H712 H 0.35199 0.93716 0.88154 0.0
H713 H 0.37032 0.82489 0.9323 0.0
C714 C 0.33108 0.81005 0.87574 0.0
C715 C 0.31074 0.82013 0.83185 0.0
C716 C 0.37528 0.92728 0.89995 0.0
C717 C 0.35743 0.8666 0.87798 0.0
C718 C 0.39865 0.9503 0.92342 0.0
C719 C 0.42903 0.93807 0.94739 0.0
C720 C 0.38187 0.89171 0.9018 0.0
C721 C 0.43468 0.90226 0.94815 0.0
C722 C 0.35473 0.83307 0.8985 0.0
C723 C 0.31454 0.85371 0.81198 0.0
N724 N 0.41122 0.88031 0.92597 0.0
N725 N 0.33726 0.87592 0.83552 0.0
H726 H 0.46411 0.09846 0.09785 0.0
H727 H 0.28499 0.13497 0.23142 0.0
H728 H 0.37796 0.03333 0.05575 0.0
H729 H 0.3402 0.21871 0.15708 0.0
H730 H 0.32388 0.0937 0.18573 0.0
H731 H 0.42377 0.14051 0.13809 0.0
C732 C 0.43665 0.09314 0.09731 0.0
C733 C 0.42401 0.06272 0.07377 0.0
C734 C 0.3273 0.12114 0.17952 0.0
C735 C 0.37841 0.10963 0.12055 0.0
C736 C 0.30545 0.14453 0.2057 0.0
C737 C 0.3096 0.18002 0.19758 0.0
C738 C 0.35401 0.13357 0.14675 0.0
C739 C 0.33621 0.19141 0.16378 0.0
C740 C 0.41382 0.11701 0.11993 0.0
C741 C 0.3884 0.05669 0.0736 0.0
N742 N 0.35783 0.1682 0.14003 0.0
N743 N 0.36668 0.07981 0.09751 0.0
H744 H 0.89019 0.97643 0.59552 0.0
H745 H 0.85737 0.78607 0.70661 0.0
H746 H 0.96172 0.89253 0.56938 0.0
H747 H 0.77621 0.86131 0.68787 0.0
H748 H 0.89801 0.82638 0.6651 0.0
H749 H 0.84997 0.93611 0.6377 0.0
C750 C 0.89743 0.94952 0.59863 0.0
C751 C 0.9293 0.9378 0.57866 0.0
C752 C 0.8713 0.83402 0.67004 0.0
C753 C 0.88347 0.89154 0.62728 0.0
C754 C 0.84814 0.81113 0.69407 0.0
C755 C 0.81335 0.82037 0.70088 0.0
C756 C 0.85967 0.86651 0.65306 0.0
C757 C 0.80275 0.85304 0.68324 0.0
C758 C 0.87441 0.92649 0.62255 0.0
C759 C 0.93727 0.90261 0.58367 0.0
N760 N 0.82583 0.87496 0.66036 0.0
N761 N 0.91459 0.88074 0.60771 0.0
H762 H 0.88498 0.04858 0.50089 0.0
H763 H 0.85627 0.22024 0.3378 0.0
H764 H 0.9664 0.09031 0.40213 0.0
H765 H 0.77727 0.14192 0.34318 0.0
H766 H 0.89704 0.17941 0.37806 0.0
H767 H 0.84441 0.08974 0.46054 0.0
C768 C 0.89426 0.06654 0.47091 0.0
C769 C 0.92888 0.0661 0.45444 0.0
C770 C 0.87074 0.17132 0.37041 0.0
C771 C 0.88314 0.11324 0.40927 0.0
C772 C 0.84756 0.19446 0.34733 0.0
C773 C 0.81351 0.18428 0.33671 0.0
C774 C 0.8594 0.13821 0.38438 0.0
C775 C 0.8033 0.15082 0.35092 0.0
C776 C 0.87118 0.08977 0.44783 0.0
C777 C 0.93976 0.08973 0.41538 0.0
N778 N 0.8261 0.129 0.37447 0.0
N779 N 0.91699 0.11266 0.39438 0.0
H780 H 0.6989 0.14173 0.25428 0.0
H781 H 0.53191 0.11376 0.0724 0.0
H782 H 0.65532 0.22371 0.15956 0.0
H783 H 0.60458 0.03202 0.10425 0.0
H784 H 0.57106 0.15484 0.11612 0.0
H785 H 0.65754 0.10131 0.21372 0.0
C786 C 0.68015 0.1513 0.22569 0.0
C787 C 0.68015 0.18607 0.21049 0.0
C788 C 0.57828 0.12786 0.11373 0.0
C789 C 0.63327 0.1401 0.16365 0.0
C790 C 0.55606 0.1044 0.08864 0.0
C791 C 0.56481 0.06928 0.08521 0.0
C792 C 0.60919 0.11601 0.13643 0.0
C793 C 0.59636 0.05866 0.10725 0.0
C794 C 0.6569 0.1282 0.20214 0.0
C795 C 0.65597 0.19705 0.17231 0.0
N796 N 0.61731 0.08188 0.13233 0.0
N797 N 0.63334 0.17414 0.15027 0.0
H798 H 0.71286 0.86876 0.8032 0.0
H799 H 0.53108 0.90862 0.92116 0.0
H800 H 0.65399 0.78437 0.8684 0.0
H801 H 0.61779 0.96638 0.98255 0.0
H802 H 0.57134 0.8661 0.88174 0.0
H803 H 0.67357 0.90967 0.84883 0.0
C804 C 0.69152 0.85898 0.8269 0.0
C805 C 0.68646 0.82341 0.83251 0.0
C806 C 0.5814 0.88809 0.90396 0.0
C807 C 0.64157 0.86949 0.8831 0.0
C808 C 0.55863 0.91227 0.92607 0.0
C809 C 0.57144 0.9408 0.95472 0.0
C810 C 0.61702 0.89337 0.90906 0.0
C811 C 0.60718 0.94453 0.96067 0.0
C812 C 0.66943 0.88217 0.85302 0.0
C813 C 0.65869 0.81174 0.86371 0.0
N814 N 0.62892 0.9213 0.93712 0.0
N815 N 0.63684 0.8348 0.88736 0.0
H816 H 0.60701 0.52735 0.93261 0.0
H817 H 0.63413 0.71516 0.80899 0.0
H818 H 0.5351 0.61079 0.9601 0.0
H819 H 0.7181 0.64408 0.83555 0.0
H820 H 0.59482 0.67469 0.85331 0.0
H821 H 0.64563 0.56752 0.88652 0.0
C822 C 0.59934 0.55412 0.92896 0.0
C823 C 0.56785 0.56576 0.95045 0.0
C824 C 0.62186 0.66801 0.84938 0.0
C825 C 0.61177 0.61177 0.89723 0.0
C826 C 0.64427 0.69096 0.82377 0.0
C827 C 0.67949 0.68301 0.81856 0.0
C828 C 0.63466 0.63668 0.86931 0.0
C829 C 0.6912 0.65138 0.8389 0.0
C830 C 0.62144 0.57704 0.90278 0.0
C831 C 0.55928 0.60077 0.9446 0.0
N832 N 0.66884 0.62935 0.86318 0.0
N833 N 0.58103 0.6225 0.91827 0.0
H834 H 0.653 0.32492 0.27141 0.0
H835 H 0.60622 0.43658 1.01146 0.0
H836 H 0.71363 0.32313 0.12572 0.0
H837 H 0.54465 0.43466 0.15683 0.0
H838 H 0.64665 0.39616 0.05273 0.0
H839 H 0.61409 0.36634 0.23077 0.0
C840 C 0.65862 0.33372 0.23134 0.0
C841 C 0.6873 0.32109 0.20283 0.0
C842 C 0.6243 0.40461 0.07558 0.0
C843 C 0.64203 0.36814 0.15465 0.0
C844 C 0.60116 0.42768 0.05203 0.0
C845 C 0.57191 0.43904 0.08066 0.0
C846 C 0.61822 0.39285 0.12822 0.0
C847 C 0.56685 0.42672 0.13321 0.0
C848 C 0.63607 0.35718 0.2077 0.0
C849 C 0.69218 0.33246 0.14965 0.0
N850 N 0.58973 0.40433 0.15522 0.0
N851 N 0.66986 0.35538 0.12732 0.0
H852 H 0.9583 0.43617 0.36583 0.0
H853 H 0.77508 0.34336 0.38858 0.0
H854 H 0.8878 0.45344 0.49833 0.0
H855 H 0.84175 0.3348 0.24908 0.0
H856 H 0.81413 0.38633 0.42695 0.0
H857 H 0.9144 0.4016 0.32036 0.0
C858 C 0.93356 0.43268 0.38546 0.0
C859 C 0.92697 0.44713 0.4366 0.0
C860 C 0.82002 0.3753 0.3877 0.0
C861 C 0.87649 0.40735 0.38464 0.0
C862 C 0.79766 0.35074 0.36559 0.0
C863 C 0.80519 0.33501 0.31559 0.0
C864 C 0.8503 0.38417 0.35986 0.0
C865 C 0.83486 0.34593 0.28784 0.0
C866 C 0.90846 0.41291 0.3594 0.0
C867 C 0.89433 0.44195 0.45971 0.0
N868 N 0.85646 0.36953 0.31059 0.0
N869 N 0.87038 0.42226 0.43377 0.0
H870 H 0.80642 0.70813 0.6103 0.0
H871 H 0.9094 0.53009 0.63409 0.0
H872 H 0.80518 0.64388 0.75187 0.0
H873 H 0.91848 0.59811 0.49746 0.0
H874 H 0.86709 0.56907 0.67388 0.0
H875 H 0.8437 0.66603 0.5652 0.0
C876 C 0.81388 0.68512 0.63191 0.0
C877 C 0.80278 0.67963 0.68515 0.0
C878 C 0.8782 0.57543 0.63509 0.0
C879 C 0.84548 0.6313 0.63355 0.0
C880 C 0.90241 0.55311 0.61215 0.0
C881 C 0.91793 0.56091 0.56241 0.0
C882 C 0.8693 0.6059 0.60829 0.0
C883 C 0.90742 0.59106 0.53595 0.0
C884 C 0.83521 0.6611 0.60607 0.0
C885 C 0.81331 0.64934 0.71101 0.0
N886 N 0.88392 0.61256 0.5594 0.0
N887 N 0.83412 0.62636 0.68499 0.0
H888 H 0.36262 0.28628 0.21827 0.0
H889 H 0.39237 0.47371 0.09428 0.0
H890 H 0.28021 0.35942 0.19366 0.0
H891 H 0.46425 0.3899 0.06981 0.0
H892 H 0.35316 0.43401 0.13993 0.0
H893 H 0.40259 0.32591 0.17354 0.0
C894 C 0.35297 0.31074 0.20381 0.0
C895 C 0.318 0.31957 0.20982 0.0
C896 C 0.37746 0.42427 0.12442 0.0
C897 C 0.36357 0.36493 0.15848 0.0
C898 C 0.39992 0.44694 0.09849 0.0
C899 C 0.4316 0.43508 0.07799 0.0
C900 C 0.38689 0.38953 0.13067 0.0
C901 C 0.43995 0.40008 0.08454 0.0
C902 C 0.37575 0.33323 0.17796 0.0
C903 C 0.30689 0.35147 0.18976 0.0
N904 N 0.41782 0.37856 0.11057 0.0
N905 N 0.3296 0.37302 0.16521 0.0
H906 H 0.4643 0.57888 0.88468 0.0
H907 H 0.27165 0.6496 0.86847 0.0
H908 H 0.38731 0.5533 1.00381 0.0
H909 H 0.35845 0.70309 0.79877 0.0
H910 H 0.31182 0.60933 0.91097 0.0
H911 H 0.42382 0.61962 0.8442 0.0
C912 C 0.43881 0.5818 0.9022 0.0
C913 C 0.42908 0.56275 0.94762 0.0
C914 C 0.32196 0.62987 0.88618 0.0
C915 C 0.38264 0.60906 0.90136 0.0
C916 C 0.29908 0.65283 0.86178 0.0
C917 C 0.31161 0.67948 0.82904 0.0
C918 C 0.35758 0.63335 0.87731 0.0
C919 C 0.34748 0.6825 0.82234 0.0
C920 C 0.41582 0.60514 0.87927 0.0
C921 C 0.39584 0.56766 0.96895 0.0
N922 N 0.36916 0.65958 0.84588 0.0
N923 N 0.37367 0.5902 0.94539 0.0
H924 H 0.16181 0.71738 0.64569 0.0
H925 H 0.10122 0.52473 0.60094 0.0
H926 H 0.19623 0.63613 0.75062 0.0
H927 H 0.03151 0.60981 0.57505 0.0
H928 H 0.14178 0.56451 0.6445 0.0
H929 H 0.11926 0.6776 0.60624 0.0
C930 C 0.16043 0.69112 0.66023 0.0
C931 C 0.18244 0.67989 0.70136 0.0
C932 C 0.11758 0.57439 0.6292 0.0
C933 C 0.1344 0.63446 0.65623 0.0
C934 C 0.09437 0.55176 0.60452 0.0
C935 C 0.06302 0.56407 0.58389 0.0
C936 C 0.10973 0.60968 0.63222 0.0
C937 C 0.05573 0.59941 0.58916 0.0
C938 C 0.13609 0.66861 0.63803 0.0
C939 C 0.17955 0.64574 0.71913 0.0
N940 N 0.07909 0.62111 0.61228 0.0
N941 N 0.15616 0.62405 0.69605 0.0
H942 H 0.15705 0.27959 0.37147 0.0
H943 H 0.11429 0.46191 0.49292 0.0
H944 H 0.21545 0.36743 0.31726 0.0
H945 H 0.03277 0.40391 0.41636 0.0
H946 H 0.15672 0.42102 0.45459 0.0
H947 H 0.115 0.31915 0.41391 0.0
C948 C 0.16103 0.30721 0.36898 0.0
C949 C 0.18941 0.32057 0.34101 0.0
C950 C 0.12948 0.41726 0.44674 0.0
C951 C 0.14262 0.36527 0.39023 0.0
C952 C 0.10544 0.44026 0.46868 0.0
C953 C 0.07031 0.43607 0.45725 0.0
C954 C 0.11795 0.38945 0.41501 0.0
C955 C 0.05981 0.40793 0.42547 0.0
C956 C 0.13716 0.32957 0.39288 0.0
C957 C 0.19361 0.35641 0.33831 0.0
N958 N 0.08359 0.38534 0.40572 0.0
N959 N 0.17059 0.37769 0.36331 0.0
H960 H 0.02181 0.03762 0.87043 0.0
H961 H 0.97844 0.96868 0.16829 0.0
H962 H 0.91907 0.01256 0.92486 0.0
H963 H 0.0812 0.99382 0.11403 0.0
H964 H 0.95603 0.98556 0.07989 0.0
H965 H 0.04429 0.02053 0.95872 0.0
C966 C 0.00402 0.02815 0.90064 0.0
C967 C 0.96845 0.0268 0.89015 0.0
C968 C 0.98349 0.98745 0.08737 0.0
C969 C 0.99393 0.00768 0.99184 0.0
C970 C 0.99625 0.97811 0.13809 0.0
C971 C 0.03181 0.97957 0.14869 0.0
C972 C 0.0064 0.99845 0.04684 0.0
C973 C 0.05366 0.99168 0.10754 0.0
C974 C 0.01682 0.01869 0.95129 0.0
C975 C 0.94662 0.01463 0.93129 0.0
N976 N 0.04066 0.0005 0.05859 0.0
N977 N 0.95965 0.0057 0.98017 0.0
H978 H 0.23801 0.72837 0.42403 0.0
H979 H 0.25929 0.76965 0.10916 0.0
H980 H 0.33092 0.77023 0.35394 0.0
H981 H 0.16629 0.72816 0.1795 0.0
H982 H 0.28624 0.76943 0.19829 0.0
H983 H 0.21124 0.72824 0.33479 0.0
C984 C 0.25274 0.73772 0.38996 0.0
C985 C 0.28681 0.74932 0.39661 0.0
C986 C 0.25993 0.76038 0.19423 0.0
C987 C 0.2564 0.7489 0.29404 0.0
C988 C 0.24459 0.7603 0.14326 0.0
C989 C 0.21042 0.74895 0.13673 0.0
C990 C 0.24103 0.74898 0.23915 0.0
C991 C 0.1925 0.73761 0.18264 0.0
C992 C 0.2375 0.73745 0.33892 0.0
C993 C 0.30478 0.76062 0.35071 0.0
N994 N 0.208 0.73791 0.23179 0.0
N995 N 0.28936 0.76015 0.30148 0.0
H996 H 0.45797 0.94986 0.63432 0.0
H997 H 0.54097 0.06013 0.3946 0.0
H998 H 0.4869 0.05701 0.65054 0.0
H999 H 0.51178 0.95303 0.37856 0.0
H1000 H 0.52173 0.05942 0.48857 0.0
H1001 H 0.47756 0.95055 0.54057 0.0
C1002 C 0.4683 0.9736 0.61812 0.0
C1003 C 0.47071 0.00345 0.65044 0.0
C1004 C 0.51952 0.03607 0.4645 0.0
C1005 C 0.49352 0.00434 0.54304 0.0
C1006 C 0.53066 0.03641 0.41088 0.0
C1007 C 0.52801 0.00659 0.37852 0.0
C1008 C 0.50563 0.00567 0.48615 0.0
C1009 C 0.51392 0.97676 0.40169 0.0
C1010 C 0.47965 0.97392 0.56462 0.0
C1011 C 0.48489 0.03328 0.62741 0.0
N1012 N 0.50332 0.97706 0.45402 0.0
N1013 N 0.49568 0.03298 0.57516 0.0
H1014 H 0.2153 0.23281 0.91842 0.0
H1015 H 0.28742 0.2713 0.62007 0.0
H1016 H 0.2487 0.33331 0.86595 0.0
H1017 H 0.25496 0.17058 0.67293 0.0
H1018 H 0.27213 0.29482 0.70919 0.0
H1019 H 0.2305 0.20927 0.82928 0.0
C1020 C 0.2262 0.24986 0.88847 0.0
C1021 C 0.23045 0.28518 0.8998 0.0
C1022 C 0.26827 0.26757 0.70123 0.0
C1023 C 0.24743 0.25851 0.79708 0.0
C1024 C 0.2767 0.2542 0.65011 0.0
C1025 C 0.27275 0.21883 0.6389 0.0
C1026 C 0.25565 0.24548 0.74158 0.0
C1027 C 0.25904 0.1979 0.67987 0.0
C1028 C 0.23459 0.23648 0.83733 0.0
C1029 C 0.24439 0.30604 0.85893 0.0
N1030 N 0.25114 0.21146 0.72921 0.0
N1031 N 0.25221 0.29247 0.80956 0.0
H1032 H 0.71936 0.29848 0.88885 0.0
H1033 H 0.8162 0.19366 0.65274 0.0
H1034 H 0.81943 0.25147 0.90923 0.0
H1035 H 0.71967 0.24754 0.63231 0.0
H1036 H 0.8168 0.21164 0.74777 0.0
H1037 H 0.71796 0.27706 0.7961 0.0
C1038 C 0.74111 0.28367 0.87381 0.0
C1039 C 0.76972 0.2771 0.90691 0.0
C1040 C 0.7955 0.21952 0.72247 0.0
C1041 C 0.76816 0.25212 0.80028 0.0
C1042 C 0.79506 0.20915 0.66823 0.0
C1043 C 0.7679 0.21921 0.63427 0.0
C1044 C 0.7685 0.23998 0.7431 0.0
C1045 C 0.74141 0.2396 0.65659 0.0
C1046 C 0.74023 0.27132 0.82078 0.0
C1047 C 0.79676 0.25704 0.88537 0.0
N1048 N 0.74238 0.24925 0.70943 0.0
N1049 N 0.7954 0.24543 0.83336 0.0
H1050 H 0.71229 0.73151 0.40836 0.0
H1051 H 0.78457 0.77107 0.1104 0.0
H1052 H 0.74676 0.83187 0.357 0.0
H1053 H 0.7535 0.66979 0.16266 0.0
H1054 H 0.7694 0.79408 0.19986 0.0
H1055 H 0.7279 0.70807 0.31923 0.0
C1056 C 0.72353 0.74852 0.37868 0.0
C1057 C 0.72791 0.7838 0.39025 0.0
C1058 C 0.76583 0.76682 0.19172 0.0
C1059 C 0.74533 0.75728 0.2876 0.0
C1060 C 0.77419 0.75374 0.1404 0.0
C1061 C 0.77057 0.71838 0.12887 0.0
C1062 C 0.7536 0.74445 0.23198 0.0
C1063 C 0.75729 0.69713 0.16982 0.0
C1064 C 0.73215 0.73521 0.32755 0.0
C1065 C 0.74233 0.80464 0.34976 0.0
N1066 N 0.74943 0.71042 0.21936 0.0
N1067 N 0.75032 0.79116 0.30042 0.0
H1068 H 0.47717 0.4649 0.6631 0.0
H1069 H 0.52208 0.53405 0.36582 0.0
H1070 H 0.58039 0.48865 0.60949 0.0
H1071 H 0.41912 0.50872 0.41888 0.0
H1072 H 0.54415 0.51679 0.45431 0.0
H1073 H 0.45521 0.48222 0.57462 0.0
C1074 C 0.49518 0.47413 0.63303 0.0
C1075 C 0.53073 0.47504 0.64382 0.0
C1076 C 0.51672 0.51492 0.44653 0.0
C1077 C 0.50584 0.49444 0.54187 0.0
C1078 C 0.50416 0.52448 0.39577 0.0
C1079 C 0.46864 0.52312 0.38483 0.0
C1080 C 0.49364 0.50381 0.48676 0.0
C1081 C 0.44663 0.51081 0.42565 0.0
C1082 C 0.48267 0.48372 0.58226 0.0
C1083 C 0.55284 0.48693 0.60284 0.0
N1084 N 0.45943 0.5018 0.47464 0.0
N1085 N 0.54009 0.49601 0.55384 0.0
H1086 H 0.99803 0.45245 0.8765 0.0
H1087 H 0.98577 0.56038 0.15289 0.0
H1088 H 0.04721 0.55139 0.89906 0.0
H1089 H 0.95678 0.45315 0.13753 0.0
H1090 H 0.00666 0.55886 0.05956 0.0
H1091 H 0.97978 0.45389 0.97098 0.0
C1092 C 0.00484 0.47457 0.90127 0.0
C1093 C 0.02415 0.50185 0.87974 0.0
C1094 C 0.99581 0.53566 0.07675 0.0
C1095 C 0.00348 0.50362 0.98831 0.0
C1096 C 0.98405 0.53643 0.13021 0.0
C1097 C 0.96919 0.50692 0.1533 0.0
C1098 C 0.99256 0.50522 0.04591 0.0
C1099 C 0.96731 0.47678 0.12137 0.0
C1100 C 0.99462 0.47528 0.95536 0.0
C1101 C 0.03263 0.52965 0.91406 0.0
N1102 N 0.97864 0.47679 0.06943 0.0
N1103 N 0.02212 0.52989 0.96653 0.0
loop_
_geom_bond_atom_site_label_1
_geom_bond_atom_site_label_2
_geom_bond_distance
_geom_bond_site_symmetry_2
_ccdc_geom_bond_type
Eu0 N29 2.601 . S
Eu0 N35 2.544 1_655 S
Eu0 O44 2.458 1_655 S
Eu0 O45 2.361 1_655 S
Eu0 O47 2.443 . S
Eu0 O48 2.277 1_645 S
Eu0 O52 2.349 1_545 S
Eu0 O55 2.388 . S
Eu0 C64 2.791 . S
C1 N2 1.365 1_655 S
C1 C4 1.405 . S
C1 C8 1.448 . S
N2 C1 1.365 1_455 S
N2 C5 1.319 . S
N2 Eu11 2.601 . S
C3 C5 1.397 . S
C3 C6 1.367 . S
C3 H23 0.931 . S
C4 C1 1.405 . S
C4 C6 1.403 1_655 S
C4 C10 1.439 . S
C5 N2 1.319 . S
C5 C3 1.397 . S
C5 H16 0.930 . S
C6 C3 1.367 . S
C6 C4 1.403 1_455 S
C6 H27 0.929 . S
C7 C8 1.430 . S
C7 C9 1.387 . S
C7 C13 1.404 . S
C8 C1 1.448 . S
C8 C7 1.430 . S
C8 N12 1.351 . S
C9 C7 1.387 . S
C9 C10 1.374 . S
C9 H24 0.931 . S
C10 C4 1.439 . S
C10 C9 1.374 . S
C10 H25 0.931 . S
Eu11 N2 2.601 . S
Eu11 N12 2.537 1_455 S
Eu11 O46 2.353 1_565 S
Eu11 O49 2.394 . S
Eu11 O50 2.457 1_455 S
Eu11 O51 2.357 1_455 S
Eu11 O53 2.448 . S
Eu11 O54 2.272 1_465 S
Eu11 C75 2.793 . S
N12 C8 1.351 . S
N12 Eu11 2.537 1_655 S
N12 C14 1.325 . S
C13 C7 1.404 . S
C13 C15 1.366 . S
C13 H21 0.930 . S
C14 N12 1.325 . S
C14 C15 1.416 . S
C14 H20 0.929 . S
C15 C13 1.366 . S
C15 C14 1.416 . S
C15 H17 0.930 . S
H16 C5 0.930 . S
H17 C15 0.930 . S
H18 C33 0.930 . S
H19 C40 0.930 . S
H20 C14 0.929 . S
H21 C13 0.930 . S
H22 C36 0.929 . S
H23 C3 0.931 . S
H24 C9 0.931 . S
H25 C10 0.931 . S
H26 C31 0.931 . S
H27 C6 0.929 . S
H28 C39 0.930 . S
N29 Eu0 2.601 . S
N29 C30 1.365 1_655 S
N29 C33 1.319 . S
C30 N29 1.365 1_455 S
C30 C32 1.405 . S
C30 C38 1.448 . S
C31 H26 0.931 . S
C31 C33 1.397 . S
C31 C34 1.367 . S
C32 C30 1.405 . S
C32 C34 1.403 1_455 S
C32 C65 1.439 . S
C33 H18 0.930 . S
C33 N29 1.319 . S
C33 C31 1.397 . S
C34 C31 1.367 . S
C34 C32 1.403 1_655 S
C34 H41 0.929 . S
N35 Eu0 2.544 1_455 S
N35 C36 1.325 . S
N35 C38 1.351 . S
C36 H22 0.929 . S
C36 N35 1.325 . S
C36 C40 1.416 . S
C37 C38 1.430 . S
C37 C39 1.404 . S
C37 C66 1.387 . S
C38 C30 1.448 . S
C38 N35 1.351 . S
C38 C37 1.430 . S
C39 H28 0.930 . S
C39 C37 1.404 . S
C39 C40 1.366 . S
C40 H19 0.930 . S
C40 C36 1.416 . S
C40 C39 1.366 . S
H41 C34 0.929 . S
H42 C65 0.931 . S
H43 C66 0.931 . S
O44 Eu0 2.458 1_455 S
O44 C64 1.252 1_455 S
O45 Eu0 2.361 1_455 S
O45 C56 1.249 . S
O46 Eu11 2.353 1_545 S
O46 C56 1.264 . S
O47 Eu0 2.443 . S
O47 C64 1.268 . S
O48 Eu0 2.277 1_465 S
O48 C63 1.255 . S
O49 Eu11 2.394 . S
O49 C63 1.257 . S
O50 Eu11 2.457 1_655 S
O50 C75 1.252 1_655 S
O51 Eu11 2.357 1_655 S
O51 C67 1.249 . S
O52 Eu0 2.349 1_565 S
O52 C67 1.264 . S
O53 Eu11 2.448 . S
O53 C75 1.268 . S
O54 Eu11 2.272 1_645 S
O54 C74 1.255 . S
O55 Eu0 2.388 . S
O55 C74 1.257 . S
C56 O45 1.249 . S
C56 O46 1.264 . S
C57 C60 1.382 . S
C57 C62 1.390 . S
C57 C64 1.506 . S
C58 C59 1.398 . S
C58 C62 1.392 . S
C59 C58 1.398 . S
C59 C61 1.372 . S
C59 H76 0.931 . S
C60 C57 1.382 . S
C60 C61 1.390 . S
C60 H77 0.931 . S
C61 C59 1.372 . S
C61 C60 1.390 . S
C61 H78 0.929 . S
C62 C57 1.390 . S
C62 C58 1.392 . S
C62 H79 0.930 1_645 S
C63 O48 1.255 . S
C63 O49 1.257 . S
C64 Eu0 2.791 . S
C64 O44 1.252 1_655 S
C64 O47 1.268 . S
C64 C57 1.506 . S
C65 C32 1.439 . S
C65 H42 0.931 . S
C65 C66 1.374 . S
C66 C37 1.387 . S
C66 H43 0.931 . S
C66 C65 1.374 . S
C67 O51 1.249 . S
C67 O52 1.264 . S
C68 C71 1.382 . S
C68 C72 1.390 . S
C68 C75 1.506 . S
C69 C70 1.398 . S
C69 C72 1.392 . S
C70 C69 1.398 . S
C70 C73 1.372 . S
C70 H80 0.931 . S
C71 C68 1.382 . S
C71 C73 1.390 . S
C71 H81 0.931 . S
C72 C68 1.390 . S
C72 C69 1.392 . S
C72 H82 0.930 1_465 S
C73 C70 1.372 . S
C73 C71 1.390 . S
C73 H83 0.929 . S
C74 O54 1.255 . S
C74 O55 1.257 . S
C75 Eu11 2.793 . S
C75 O50 1.252 1_455 S
C75 O53 1.268 . S
C75 C68 1.506 . S
H76 C59 0.931 . S
H77 C60 0.931 . S
H78 C61 0.929 . S
H79 C62 0.930 1_465 S
H80 C70 0.931 . S
H81 C71 0.931 . S
H82 C72 0.930 1_645 S
H83 C73 0.929 . S
Eu84 N113 2.600 . S
Eu84 N119 2.562 . S
Eu84 O128 2.462 . S
Eu84 O129 2.373 . S
Eu84 O131 2.432 . S
Eu84 O132 2.291 . S
Eu84 O136 2.335 . S
Eu84 O139 2.372 . S
Eu84 C148 2.787 . S
C85 N86 1.365 . S
C85 C88 1.405 . S
C85 C92 1.448 . S
N86 C85 1.365 . S
N86 C89 1.319 . S
N86 Eu95 2.600 . S
C87 C89 1.397 . S
C87 C90 1.367 . S
C87 H107 0.931 . S
C88 C85 1.405 . S
C88 C90 1.403 . S
C88 C94 1.439 . S
C89 N86 1.319 . S
C89 C87 1.397 . S
C89 H100 0.930 . S
C90 C87 1.367 . S
C90 C88 1.403 . S
C90 H111 0.929 . S
C91 C92 1.430 . S
C91 C93 1.387 . S
C91 C97 1.404 . S
C92 C85 1.448 . S
C92 C91 1.430 . S
C92 N96 1.351 . S
C93 C91 1.387 . S
C93 C94 1.374 . S
C93 H108 0.931 . S
C94 C88 1.439 . S
C94 C93 1.374 . S
C94 H109 0.931 . S
Eu95 N86 2.600 . S
Eu95 N96 2.562 . S
Eu95 O130 2.335 . S
Eu95 O133 2.372 . S
Eu95 O134 2.462 . S
Eu95 O135 2.373 . S
Eu95 O137 2.432 . S
Eu95 O138 2.291 . S
Eu95 C159 2.787 . S
N96 C92 1.351 . S
N96 Eu95 2.562 . S
N96 C98 1.325 . S
C97 C91 1.404 . S
C97 C99 1.366 . S
C97 H105 0.930 . S
C98 N96 1.325 . S
C98 C99 1.416 . S
C98 H104 0.929 . S
C99 C97 1.366 . S
C99 C98 1.416 . S
C99 H101 0.930 . S
H100 C89 0.930 . S
H101 C99 0.930 . S
H102 C117 0.930 . S
H103 C124 0.930 . S
H104 C98 0.929 . S
H105 C97 0.930 . S
H106 C120 0.929 . S
H107 C87 0.931 . S
H108 C93 0.931 . S
H109 C94 0.931 . S
H110 C115 0.931 . S
H111 C90 0.929 . S
H112 C123 0.930 . S
N113 Eu84 2.600 . S
N113 C114 1.365 . S
N113 C117 1.319 . S
C114 N113 1.365 . S
C114 C116 1.405 . S
C114 C122 1.448 . S
C115 H110 0.931 . S
C115 C117 1.397 . S
C115 C118 1.367 . S
C116 C114 1.405 . S
C116 C118 1.403 . S
C116 C149 1.439 . S
C117 H102 0.930 . S
C117 N113 1.319 . S
C117 C115 1.397 . S
C118 C115 1.367 . S
C118 C116 1.403 . S
C118 H125 0.929 . S
N119 Eu84 2.562 . S
N119 C120 1.325 . S
N119 C122 1.351 . S
C120 H106 0.929 . S
C120 N119 1.325 . S
C120 C124 1.416 . S
C121 C122 1.430 . S
C121 C123 1.404 . S
C121 C150 1.387 . S
C122 C114 1.448 . S
C122 N119 1.351 . S
C122 C121 1.430 . S
C123 H112 0.930 . S
C123 C121 1.404 . S
C123 C124 1.366 . S
C124 H103 0.930 . S
C124 C120 1.416 . S
C124 C123 1.366 . S
H125 C118 0.929 . S
H126 C149 0.931 . S
H127 C150 0.931 . S
O128 Eu84 2.462 . S
O128 C148 1.252 . S
O129 Eu84 2.373 . S
O129 C140 1.249 . S
O130 Eu95 2.335 . S
O130 C140 1.264 . S
O131 Eu84 2.432 . S
O131 C148 1.268 . S
O132 Eu84 2.291 . S
O132 C147 1.255 . S
O133 Eu95 2.372 . S
O133 C147 1.257 . S
O134 Eu95 2.462 . S
O134 C159 1.252 . S
O135 Eu95 2.373 . S
O135 C151 1.249 . S
O136 Eu84 2.335 . S
O136 C151 1.264 . S
O137 Eu95 2.432 . S
O137 C159 1.268 . S
O138 Eu95 2.291 . S
O138 C158 1.255 . S
O139 Eu84 2.372 . S
O139 C158 1.257 . S
C140 O129 1.249 . S
C140 O130 1.264 . S
C141 C144 1.382 1_556 S
C141 C146 1.390 1_556 S
C141 C148 1.506 . S
C142 C143 1.398 . S
C142 C146 1.392 . S
C143 C142 1.398 . S
C143 C145 1.372 . S
C143 H160 0.931 . S
C144 C141 1.382 1_554 S
C144 C145 1.390 . S
C144 H161 0.931 1_554 S
C145 C143 1.372 . S
C145 C144 1.390 . S
C145 H162 0.929 . S
C146 C141 1.390 1_554 S
C146 C142 1.392 . S
C146 H163 0.928 1_554 S
C147 O132 1.255 . S
C147 O133 1.257 . S
C148 Eu84 2.787 . S
C148 O128 1.252 . S
C148 O131 1.268 . S
C148 C141 1.506 . S
C149 C116 1.439 . S
C149 H126 0.931 . S
C149 C150 1.374 . S
C150 C121 1.387 . S
C150 H127 0.931 . S
C150 C149 1.374 . S
C151 O135 1.249 . S
C151 O136 1.264 . S
C152 C155 1.382 . S
C152 C156 1.390 . S
C152 C159 1.506 . S
C153 C154 1.398 . S
C153 C156 1.392 . S
C154 C153 1.398 . S
C154 C157 1.372 . S
C154 H164 0.931 . S
C155 C152 1.382 . S
C155 C157 1.390 . S
C155 H165 0.931 . S
C156 C152 1.390 . S
C156 C153 1.392 . S
C156 H166 0.930 . S
C157 C154 1.372 . S
C157 C155 1.390 . S
C157 H167 0.929 . S
C158 O138 1.255 . S
C158 O139 1.257 . S
C159 Eu95 2.787 . S
C159 O134 1.252 . S
C159 O137 1.268 . S
C159 C152 1.506 . S
H160 C143 0.931 . S
H161 C144 0.931 1_556 S
H162 C145 0.929 . S
H163 C146 0.928 1_556 S
H164 C154 0.931 . S
H165 C155 0.931 . S
H166 C156 0.930 . S
H167 C157 0.929 . S
Eu168 N197 2.600 . S
Eu168 N203 2.562 . S
Eu168 O212 2.462 . S
Eu168 O213 2.373 1_554 S
Eu168 O215 2.432 . S
Eu168 O216 2.291 1_565 S
Eu168 O220 2.335 1_565 S
Eu168 O223 2.372 . S
Eu168 C232 2.787 . S
C169 N170 1.365 . S
C169 C172 1.405 . S
C169 C176 1.448 . S
N170 C169 1.365 . S
N170 C173 1.319 . S
N170 Eu179 2.600 . S
C171 C173 1.397 . S
C171 C174 1.367 . S
C171 H191 0.931 . S
C172 C169 1.405 . S
C172 C174 1.403 . S
C172 C178 1.439 . S
C173 N170 1.319 . S
C173 C171 1.397 . S
C173 H184 0.930 . S
C174 C171 1.367 . S
C174 C172 1.403 . S
C174 H195 0.929 . S
C175 C176 1.430 . S
C175 C177 1.387 . S
C175 C181 1.404 . S
C176 C169 1.448 . S
C176 C175 1.430 . S
C176 N180 1.351 . S
C177 C175 1.387 . S
C177 C178 1.374 . S
C177 H192 0.931 . S
C178 C172 1.439 . S
C178 C177 1.374 . S
C178 H193 0.931 . S
Eu179 N170 2.600 . S
Eu179 N180 2.562 . S
Eu179 O214 2.335 1_545 S
Eu179 O217 2.372 . S
Eu179 O218 2.462 . S
Eu179 O219 2.373 1_556 S
Eu179 O221 2.432 . S
Eu179 O222 2.291 1_545 S
Eu179 C243 2.787 . S
N180 C176 1.351 . S
N180 Eu179 2.562 . S
N180 C182 1.325 . S
C181 C175 1.404 . S
C181 C183 1.366 . S
C181 H189 0.930 . S
C182 N180 1.325 . S
C182 C183 1.416 . S
C182 H188 0.929 . S
C183 C181 1.366 . S
C183 C182 1.416 . S
C183 H185 0.930 . S
H184 C173 0.930 . S
H185 C183 0.930 . S
H186 C201 0.930 . S
H187 C208 0.930 . S
H188 C182 0.929 . S
H189 C181 0.930 . S
H190 C204 0.929 . S
H191 C171 0.931 . S
H192 C177 0.931 . S
H193 C178 0.931 . S
H194 C199 0.931 . S
H195 C174 0.929 . S
H196 C207 0.930 . S
N197 Eu168 2.600 . S
N197 C198 1.365 . S
N197 C201 1.319 . S
C198 N197 1.365 . S
C198 C200 1.405 . S
C198 C206 1.448 . S
C199 H194 0.931 . S
C199 C201 1.397 . S
C199 C202 1.367 . S
C200 C198 1.405 . S
C200 C202 1.403 . S
C200 C233 1.439 . S
C201 H186 0.930 . S
C201 N197 1.319 . S
C201 C199 1.397 . S
C202 C199 1.367 . S
C202 C200 1.403 . S
C202 H209 0.929 . S
N203 Eu168 2.562 . S
N203 C204 1.325 . S
N203 C206 1.351 . S
C204 H190 0.929 . S
C204 N203 1.325 . S
C204 C208 1.416 . S
C205 C206 1.430 . S
C205 C207 1.404 . S
C205 C234 1.387 . S
C206 C198 1.448 . S
C206 N203 1.351 . S
C206 C205 1.430 . S
C207 H196 0.930 . S
C207 C205 1.404 . S
C207 C208 1.366 . S
C208 H187 0.930 . S
C208 C204 1.416 . S
C208 C207 1.366 . S
H209 C202 0.929 . S
H210 C233 0.931 . S
H211 C234 0.931 . S
O212 Eu168 2.462 . S
O212 C232 1.252 . S
O213 Eu168 2.373 1_556 S
O213 C224 1.249 . S
O214 Eu179 2.335 1_565 S
O214 C224 1.264 . S
O215 Eu168 2.432 . S
O215 C232 1.268 . S
O216 Eu168 2.291 1_545 S
O216 C231 1.255 . S
O217 Eu179 2.372 . S
O217 C231 1.257 1_556 S
O218 Eu179 2.462 . S
O218 C243 1.252 . S
O219 Eu179 2.373 1_554 S
O219 C235 1.249 . S
O220 Eu168 2.335 1_545 S
O220 C235 1.264 . S
O221 Eu179 2.432 . S
O221 C243 1.268 . S
O222 Eu179 2.291 1_565 S
O222 C242 1.255 . S
O223 Eu168 2.372 . S
O223 C242 1.257 1_554 S
C224 O213 1.249 . S
C224 O214 1.264 . S
C225 C228 1.382 . S
C225 C230 1.390 . S
C225 C232 1.506 . S
C226 C227 1.398 . S
C226 C230 1.392 . S
C227 C226 1.398 . S
C227 C229 1.372 . S
C227 H244 0.931 . S
C228 C225 1.382 . S
C228 C229 1.390 . S
C228 H245 0.931 . S
C229 C227 1.372 . S
C229 C228 1.390 . S
C229 H246 0.929 . S
C230 C225 1.390 . S
C230 C226 1.392 . S
C230 H247 0.930 1_565 S
C231 O216 1.255 . S
C231 O217 1.257 1_554 S
C232 Eu168 2.787 . S
C232 O212 1.252 . S
C232 O215 1.268 . S
C232 C225 1.506 . S
C233 C200 1.439 . S
C233 H210 0.931 . S
C233 C234 1.374 . S
C234 C205 1.387 . S
C234 H211 0.931 . S
C234 C233 1.374 . S
C235 O219 1.249 . S
C235 O220 1.264 . S
C236 C239 1.382 . S
C236 C240 1.390 . S
C236 C243 1.506 . S
C237 C238 1.398 . S
C237 C240 1.392 . S
C238 C237 1.398 . S
C238 C241 1.372 . S
C238 H248 0.931 . S
C239 C236 1.382 . S
C239 C241 1.390 . S
C239 H249 0.931 . S
C240 C236 1.390 . S
C240 C237 1.392 . S
C240 H250 0.930 1_545 S
C241 C238 1.372 . S
C241 C239 1.390 . S
C241 H251 0.929 . S
C242 O222 1.255 . S
C242 O223 1.257 1_556 S
C243 Eu179 2.787 . S
C243 O218 1.252 . S
C243 O221 1.268 . S
C243 C236 1.506 . S
H244 C227 0.931 . S
H245 C228 0.931 . S
H246 C229 0.929 . S
H247 C230 0.930 1_545 S
H248 C238 0.931 . S
H249 C239 0.931 . S
H250 C240 0.930 1_565 S
H251 C241 0.929 . S
Eu252 N281 2.600 . S
Eu252 N287 2.562 . S
Eu252 O296 2.462 . S
Eu252 O297 2.373 . S
Eu252 O299 2.432 . S
Eu252 O300 2.291 . S
Eu252 O304 2.335 . S
Eu252 O307 2.372 . S
Eu252 C316 2.787 . S
C253 N254 1.365 . S
C253 C256 1.405 . S
C253 C260 1.448 . S
N254 C253 1.365 . S
N254 C257 1.319 . S
N254 Eu263 2.600 . S
C255 C257 1.397 . S
C255 C258 1.367 . S
C255 H275 0.931 . S
C256 C253 1.405 . S
C256 C258 1.403 . S
C256 C262 1.439 . S
C257 N254 1.319 . S
C257 C255 1.397 . S
C257 H268 0.930 . S
C258 C255 1.367 . S
C258 C256 1.403 . S
C258 H279 0.929 . S
C259 C260 1.430 . S
C259 C261 1.387 . S
C259 C265 1.404 . S
C260 C253 1.448 . S
C260 C259 1.430 . S
C260 N264 1.351 . S
C261 C259 1.387 . S
C261 C262 1.374 . S
C261 H276 0.931 . S
C262 C256 1.439 . S
C262 C261 1.374 . S
C262 H277 0.931 . S
Eu263 N254 2.600 . S
Eu263 N264 2.562 . S
Eu263 O298 2.335 . S
Eu263 O301 2.372 . S
Eu263 O302 2.462 . S
Eu263 O303 2.373 . S
Eu263 O305 2.432 . S
Eu263 O306 2.291 . S
Eu263 C327 2.787 . S
N264 C260 1.351 . S
N264 Eu263 2.562 . S
N264 C266 1.325 . S
C265 C259 1.404 . S
C265 C267 1.366 . S
C265 H273 0.930 . S
C266 N264 1.325 . S
C266 C267 1.416 . S
C266 H272 0.929 . S
C267 C265 1.366 . S
C267 C266 1.416 . S
C267 H269 0.930 . S
H268 C257 0.930 . S
H269 C267 0.930 . S
H270 C285 0.930 . S
H271 C292 0.930 . S
H272 C266 0.929 . S
H273 C265 0.930 . S
H274 C288 0.929 . S
H275 C255 0.931 . S
H276 C261 0.931 . S
H277 C262 0.931 . S
H278 C283 0.931 . S
H279 C258 0.929 . S
H280 C291 0.930 . S
N281 Eu252 2.600 . S
N281 C282 1.365 . S
N281 C285 1.319 . S
C282 N281 1.365 . S
C282 C284 1.405 . S
C282 C290 1.448 . S
C283 H278 0.931 . S
C283 C285 1.397 . S
C283 C286 1.367 . S
C284 C282 1.405 . S
C284 C286 1.403 . S
C284 C317 1.439 . S
C285 H270 0.930 . S
C285 N281 1.319 . S
C285 C283 1.397 . S
C286 C283 1.367 . S
C286 C284 1.403 . S
C286 H293 0.929 . S
N287 Eu252 2.562 . S
N287 C288 1.325 . S
N287 C290 1.351 . S
C288 H274 0.929 . S
C288 N287 1.325 . S
C288 C292 1.416 . S
C289 C290 1.430 . S
C289 C291 1.404 . S
C289 C318 1.387 . S
C290 C282 1.448 . S
C290 N287 1.351 . S
C290 C289 1.430 . S
C291 H280 0.930 . S
C291 C289 1.404 . S
C291 C292 1.366 . S
C292 H271 0.930 . S
C292 C288 1.416 . S
C292 C291 1.366 . S
H293 C286 0.929 . S
H294 C317 0.931 . S
H295 C318 0.931 . S
O296 Eu252 2.462 . S
O296 C316 1.252 . S
O297 Eu252 2.373 . S
O297 C308 1.249 . S
O298 Eu263 2.335 . S
O298 C308 1.264 . S
O299 Eu252 2.432 . S
O299 C316 1.268 . S
O300 Eu252 2.291 . S
O300 C315 1.255 . S
O301 Eu263 2.372 . S
O301 C315 1.257 . S
O302 Eu263 2.462 . S
O302 C327 1.252 . S
O303 Eu263 2.373 . S
O303 C319 1.249 . S
O304 Eu252 2.335 . S
O304 C319 1.264 . S
O305 Eu263 2.432 . S
O305 C327 1.268 . S
O306 Eu263 2.291 . S
O306 C326 1.255 . S
O307 Eu252 2.372 . S
O307 C326 1.257 . S
C308 O297 1.249 . S
C308 O298 1.264 . S
C309 C312 1.382 1_554 S
C309 C314 1.390 1_554 S
C309 C316 1.506 . S
C310 C311 1.398 . S
C310 C314 1.392 . S
C311 C310 1.398 . S
C311 C313 1.372 . S
C311 H328 0.931 . S
C312 C309 1.382 1_556 S
C312 C313 1.390 . S
C312 H329 0.931 1_556 S
C313 C311 1.372 . S
C313 C312 1.390 . S
C313 H330 0.929 . S
C314 C309 1.390 1_556 S
C314 C310 1.392 . S
C314 H331 0.928 1_556 S
C315 O300 1.255 . S
C315 O301 1.257 . S
C316 Eu252 2.787 . S
C316 O296 1.252 . S
C316 O299 1.268 . S
C316 C309 1.506 . S
C317 C284 1.439 . S
C317 H294 0.931 . S
C317 C318 1.374 . S
C318 C289 1.387 . S
C318 H295 0.931 . S
C318 C317 1.374 . S
C319 O303 1.249 . S
C319 O304 1.264 . S
C320 C323 1.382 . S
C320 C324 1.390 . S
C320 C327 1.506 . S
C321 C322 1.398 . S
C321 C324 1.392 . S
C322 C321 1.398 . S
C322 C325 1.372 . S
C322 H332 0.931 . S
C323 C320 1.382 . S
C323 C325 1.390 . S
C323 H333 0.931 . S
C324 C320 1.390 . S
C324 C321 1.392 . S
C324 H334 0.930 . S
C325 C322 1.372 . S
C325 C323 1.390 . S
C325 H335 0.929 . S
C326 O306 1.255 . S
C326 O307 1.257 . S
C327 Eu263 2.787 . S
C327 O302 1.252 . S
C327 O305 1.268 . S
C327 C320 1.506 . S
H328 C311 0.931 . S
H329 C312 0.931 1_554 S
H330 C313 0.929 . S
H331 C314 0.928 1_554 S
H332 C322 0.931 . S
H333 C323 0.931 . S
H334 C324 0.930 . S
H335 C325 0.929 . S
Eu336 N365 2.600 . S
Eu336 N371 2.562 . S
Eu336 O380 2.462 . S
Eu336 O381 2.373 . S
Eu336 O383 2.432 . S
Eu336 O384 2.291 . S
Eu336 O388 2.335 . S
Eu336 O391 2.372 . S
Eu336 C400 2.787 . S
C337 N338 1.365 . S
C337 C340 1.405 . S
C337 C344 1.448 . S
N338 C337 1.365 . S
N338 C341 1.319 . S
N338 Eu347 2.600 . S
C339 C341 1.397 . S
C339 C342 1.367 . S
C339 H359 0.931 . S
C340 C337 1.405 . S
C340 C342 1.403 . S
C340 C346 1.439 . S
C341 N338 1.319 . S
C341 C339 1.397 . S
C341 H352 0.930 . S
C342 C339 1.367 . S
C342 C340 1.403 . S
C342 H363 0.929 . S
C343 C344 1.430 . S
C343 C345 1.387 . S
C343 C349 1.404 . S
C344 C337 1.448 . S
C344 C343 1.430 . S
C344 N348 1.351 . S
C345 C343 1.387 . S
C345 C346 1.374 . S
C345 H360 0.931 . S
C346 C340 1.439 . S
C346 C345 1.374 . S
C346 H361 0.931 . S
Eu347 N338 2.600 . S
Eu347 N348 2.562 . S
Eu347 O382 2.335 . S
Eu347 O385 2.372 . S
Eu347 O386 2.462 . S
Eu347 O387 2.373 . S
Eu347 O389 2.432 . S
Eu347 O390 2.291 . S
Eu347 C411 2.787 . S
N348 C344 1.351 . S
N348 Eu347 2.562 . S
N348 C350 1.325 . S
C349 C343 1.404 . S
C349 C351 1.366 . S
C349 H357 0.930 . S
C350 N348 1.325 . S
C350 C351 1.416 . S
C350 H356 0.929 . S
C351 C349 1.366 . S
C351 C350 1.416 . S
C351 H353 0.930 . S
H352 C341 0.930 . S
H353 C351 0.930 . S
H354 C369 0.930 . S
H355 C376 0.930 . S
H356 C350 0.929 . S
H357 C349 0.930 . S
H358 C372 0.929 . S
H359 C339 0.931 . S
H360 C345 0.931 . S
H361 C346 0.931 . S
H362 C367 0.931 . S
H363 C342 0.929 . S
H364 C375 0.930 . S
N365 Eu336 2.600 . S
N365 C366 1.365 . S
N365 C369 1.319 . S
C366 N365 1.365 . S
C366 C368 1.405 . S
C366 C374 1.448 . S
C367 H362 0.931 . S
C367 C369 1.397 . S
C367 C370 1.367 . S
C368 C366 1.405 . S
C368 C370 1.403 . S
C368 C401 1.439 . S
C369 H354 0.930 . S
C369 N365 1.319 . S
C369 C367 1.397 . S
C370 C367 1.367 . S
C370 C368 1.403 . S
C370 H377 0.929 . S
N371 Eu336 2.562 . S
N371 C372 1.325 . S
N371 C374 1.351 . S
C372 H358 0.929 . S
C372 N371 1.325 . S
C372 C376 1.416 . S
C373 C374 1.430 . S
C373 C375 1.404 . S
C373 C402 1.387 . S
C374 C366 1.448 . S
C374 N371 1.351 . S
C374 C373 1.430 . S
C375 H364 0.930 . S
C375 C373 1.404 . S
C375 C376 1.366 . S
C376 H355 0.930 . S
C376 C372 1.416 . S
C376 C375 1.366 . S
H377 C370 0.929 . S
H378 C401 0.931 . S
H379 C402 0.931 . S
O380 Eu336 2.462 . S
O380 C400 1.252 . S
O381 Eu336 2.373 . S
O381 C392 1.249 . S
O382 Eu347 2.335 . S
O382 C392 1.264 . S
O383 Eu336 2.432 . S
O383 C400 1.268 . S
O384 Eu336 2.291 . S
O384 C399 1.255 . S
O385 Eu347 2.372 . S
O385 C399 1.257 . S
O386 Eu347 2.462 . S
O386 C411 1.252 . S
O387 Eu347 2.373 . S
O387 C403 1.249 . S
O388 Eu336 2.335 . S
O388 C403 1.264 . S
O389 Eu347 2.432 . S
O389 C411 1.268 . S
O390 Eu347 2.291 . S
O390 C410 1.255 . S
O391 Eu336 2.372 . S
O391 C410 1.257 . S
C392 O381 1.249 . S
C392 O382 1.264 . S
C393 C396 1.382 . S
C393 C398 1.390 . S
C393 C400 1.506 . S
C394 C395 1.398 . S
C394 C398 1.392 . S
C395 C394 1.398 . S
C395 C397 1.372 . S
C395 H412 0.931 . S
C396 C393 1.382 . S
C396 C397 1.390 . S
C396 H413 0.931 . S
C397 C395 1.372 . S
C397 C396 1.390 . S
C397 H414 0.929 . S
C398 C393 1.390 . S
C398 C394 1.392 . S
C398 H415 0.930 . S
C399 O384 1.255 . S
C399 O385 1.257 . S
C400 Eu336 2.787 . S
C400 O380 1.252 . S
C400 O383 1.268 . S
C400 C393 1.506 . S
C401 C368 1.439 . S
C401 H378 0.931 . S
C401 C402 1.374 . S
C402 C373 1.387 . S
C402 H379 0.931 . S
C402 C401 1.374 . S
C403 O387 1.249 . S
C403 O388 1.264 . S
C404 C407 1.382 1_554 S
C404 C408 1.390 1_554 S
C404 C411 1.506 . S
C405 C406 1.398 . S
C405 C408 1.392 . S
C406 C405 1.398 . S
C406 C409 1.372 . S
C406 H416 0.931 . S
C407 C404 1.382 1_556 S
C407 C409 1.390 . S
C407 H417 0.931 1_556 S
C408 C404 1.390 1_556 S
C408 C405 1.392 . S
C408 H418 0.928 1_556 S
C409 C406 1.372 . S
C409 C407 1.390 . S
C409 H419 0.929 . S
C410 O390 1.255 . S
C410 O391 1.257 . S
C411 Eu347 2.787 . S
C411 O386 1.252 . S
C411 O389 1.268 . S
C411 C404 1.506 . S
H412 C395 0.931 . S
H413 C396 0.931 . S
H414 C397 0.929 . S
H415 C398 0.930 . S
H416 C406 0.931 . S
H417 C407 0.931 1_554 S
H418 C408 0.928 1_554 S
H419 C409 0.929 . S
Eu420 N449 2.600 . S
Eu420 N455 2.562 . S
Eu420 O464 2.462 . S
Eu420 O465 2.373 . S
Eu420 O467 2.432 . S
Eu420 O468 2.291 . S
Eu420 O472 2.335 . S
Eu420 O475 2.372 . S
Eu420 C484 2.787 . S
C421 N422 1.365 . S
C421 C424 1.405 . S
C421 C428 1.448 . S
N422 C421 1.365 . S
N422 C425 1.319 . S
N422 Eu431 2.600 . S
C423 C425 1.397 . S
C423 C426 1.367 . S
C423 H443 0.931 . S
C424 C421 1.405 . S
C424 C426 1.403 . S
C424 C430 1.439 . S
C425 N422 1.319 . S
C425 C423 1.397 . S
C425 H436 0.930 . S
C426 C423 1.367 . S
C426 C424 1.403 . S
C426 H447 0.929 . S
C427 C428 1.430 . S
C427 C429 1.387 . S
C427 C433 1.404 . S
C428 C421 1.448 . S
C428 C427 1.430 . S
C428 N432 1.351 . S
C429 C427 1.387 . S
C429 C430 1.374 . S
C429 H444 0.931 . S
C430 C424 1.439 . S
C430 C429 1.374 . S
C430 H445 0.931 . S
Eu431 N422 2.600 . S
Eu431 N432 2.562 . S
Eu431 O466 2.335 . S
Eu431 O469 2.372 . S
Eu431 O470 2.462 . S
Eu431 O471 2.373 . S
Eu431 O473 2.432 . S
Eu431 O474 2.291 . S
Eu431 C495 2.787 . S
N432 C428 1.351 . S
N432 Eu431 2.562 . S
N432 C434 1.325 . S
C433 C427 1.404 . S
C433 C435 1.366 . S
C433 H441 0.930 . S
C434 N432 1.325 . S
C434 C435 1.416 . S
C434 H440 0.929 . S
C435 C433 1.366 . S
C435 C434 1.416 . S
C435 H437 0.930 . S
H436 C425 0.930 . S
H437 C435 0.930 . S
H438 C453 0.930 . S
H439 C460 0.930 . S
H440 C434 0.929 . S
H441 C433 0.930 . S
H442 C456 0.929 . S
H443 C423 0.931 . S
H444 C429 0.931 . S
H445 C430 0.931 . S
H446 C451 0.931 . S
H447 C426 0.929 . S
H448 C459 0.930 . S
N449 Eu420 2.600 . S
N449 C450 1.365 . S
N449 C453 1.319 . S
C450 N449 1.365 . S
C450 C452 1.405 . S
C450 C458 1.448 . S
C451 H446 0.931 . S
C451 C453 1.397 . S
C451 C454 1.367 . S
C452 C450 1.405 . S
C452 C454 1.403 . S
C452 C485 1.439 . S
C453 H438 0.930 . S
C453 N449 1.319 . S
C453 C451 1.397 . S
C454 C451 1.367 . S
C454 C452 1.403 . S
C454 H461 0.929 . S
N455 Eu420 2.562 . S
N455 C456 1.325 . S
N455 C458 1.351 . S
C456 H442 0.929 . S
C456 N455 1.325 . S
C456 C460 1.416 . S
C457 C458 1.430 . S
C457 C459 1.404 . S
C457 C486 1.387 . S
C458 C450 1.448 . S
C458 N455 1.351 . S
C458 C457 1.430 . S
C459 H448 0.930 . S
C459 C457 1.404 . S
C459 C460 1.366 . S
C460 H439 0.930 . S
C460 C456 1.416 . S
C460 C459 1.366 . S
H461 C454 0.929 . S
H462 C485 0.931 . S
H463 C486 0.931 . S
O464 Eu420 2.462 . S
O464 C484 1.252 . S
O465 Eu420 2.373 . S
O465 C476 1.249 . S
O466 Eu431 2.335 . S
O466 C476 1.264 . S
O467 Eu420 2.432 . S
O467 C484 1.268 . S
O468 Eu420 2.291 . S
O468 C483 1.255 . S
O469 Eu431 2.372 . S
O469 C483 1.257 . S
O470 Eu431 2.462 . S
O470 C495 1.252 . S
O471 Eu431 2.373 . S
O471 C487 1.249 . S
O472 Eu420 2.335 . S
O472 C487 1.264 . S
O473 Eu431 2.432 . S
O473 C495 1.268 . S
O474 Eu431 2.291 . S
O474 C494 1.255 . S
O475 Eu420 2.372 . S
O475 C494 1.257 . S
C476 O465 1.249 . S
C476 O466 1.264 . S
C477 C480 1.382 . S
C477 C482 1.390 . S
C477 C484 1.506 . S
C478 C479 1.398 . S
C478 C482 1.392 . S
C479 C478 1.398 . S
C479 C481 1.372 . S
C479 H496 0.931 . S
C480 C477 1.382 . S
C480 C481 1.390 . S
C480 H497 0.931 . S
C481 C479 1.372 . S
C481 C480 1.390 . S
C481 H498 0.929 . S
C482 C477 1.390 . S
C482 C478 1.392 . S
C482 H499 0.930 . S
C483 O468 1.255 . S
C483 O469 1.257 . S
C484 Eu420 2.787 . S
C484 O464 1.252 . S
C484 O467 1.268 . S
C484 C477 1.506 . S
C485 C452 1.439 . S
C485 H462 0.931 . S
C485 C486 1.374 . S
C486 C457 1.387 . S
C486 H463 0.931 . S
C486 C485 1.374 . S
C487 O471 1.249 . S
C487 O472 1.264 . S
C488 C491 1.382 1_556 S
C488 C492 1.390 1_556 S
C488 C495 1.506 . S
C489 C490 1.398 . S
C489 C492 1.392 . S
C490 C489 1.398 . S
C490 C493 1.372 . S
C490 H500 0.931 . S
C491 C488 1.382 1_554 S
C491 C493 1.390 . S
C491 H501 0.931 1_554 S
C492 C488 1.390 1_554 S
C492 C489 1.392 . S
C492 H502 0.928 1_554 S
C493 C490 1.372 . S
C493 C491 1.390 . S
C493 H503 0.929 . S
C494 O474 1.255 . S
C494 O475 1.257 . S
C495 Eu431 2.787 . S
C495 O470 1.252 . S
C495 O473 1.268 . S
C495 C488 1.506 . S
H496 C479 0.931 . S
H497 C480 0.931 . S
H498 C481 0.929 . S
H499 C482 0.930 . S
H500 C490 0.931 . S
H501 C491 0.931 1_556 S
H502 C492 0.928 1_556 S
H503 C493 0.929 . S
Eu504 N533 2.600 . S
Eu504 N539 2.562 . S
Eu504 O548 2.462 . S
Eu504 O549 2.373 1_554 S
Eu504 O551 2.432 . S
Eu504 O552 2.291 . S
Eu504 O556 2.335 . S
Eu504 O559 2.372 . S
Eu504 C568 2.787 . S
C505 N506 1.365 . S
C505 C508 1.405 . S
C505 C512 1.448 . S
N506 C505 1.365 . S
N506 C509 1.319 . S
N506 Eu515 2.600 . S
C507 C509 1.397 . S
C507 C510 1.367 . S
C507 H527 0.931 . S
C508 C505 1.405 . S
C508 C510 1.403 . S
C508 C514 1.439 . S
C509 N506 1.319 . S
C509 C507 1.397 . S
C509 H520 0.930 . S
C510 C507 1.367 . S
C510 C508 1.403 . S
C510 H531 0.929 . S
C511 C512 1.430 . S
C511 C513 1.387 . S
C511 C517 1.404 . S
C512 C505 1.448 . S
C512 C511 1.430 . S
C512 N516 1.351 . S
C513 C511 1.387 . S
C513 C514 1.374 . S
C513 H528 0.931 . S
C514 C508 1.439 . S
C514 C513 1.374 . S
C514 H529 0.931 . S
Eu515 N506 2.600 . S
Eu515 N516 2.562 . S
Eu515 O550 2.335 . S
Eu515 O553 2.372 . S
Eu515 O554 2.462 . S
Eu515 O555 2.373 1_556 S
Eu515 O557 2.432 . S
Eu515 O558 2.291 . S
Eu515 C579 2.787 . S
N516 C512 1.351 . S
N516 Eu515 2.562 . S
N516 C518 1.325 . S
C517 C511 1.404 . S
C517 C519 1.366 . S
C517 H525 0.930 . S
C518 N516 1.325 . S
C518 C519 1.416 . S
C518 H524 0.929 . S
C519 C517 1.366 . S
C519 C518 1.416 . S
C519 H521 0.930 . S
H520 C509 0.930 . S
H521 C519 0.930 . S
H522 C537 0.930 . S
H523 C544 0.930 . S
H524 C518 0.929 . S
H525 C517 0.930 . S
H526 C540 0.929 . S
H527 C507 0.931 . S
H528 C513 0.931 . S
H529 C514 0.931 . S
H530 C535 0.931 . S
H531 C510 0.929 . S
H532 C543 0.930 . S
N533 Eu504 2.600 . S
N533 C534 1.365 . S
N533 C537 1.319 . S
C534 N533 1.365 . S
C534 C536 1.405 . S
C534 C542 1.448 . S
C535 H530 0.931 . S
C535 C537 1.397 . S
C535 C538 1.367 . S
C536 C534 1.405 . S
C536 C538 1.403 . S
C536 C569 1.439 . S
C537 H522 0.930 . S
C537 N533 1.319 . S
C537 C535 1.397 . S
C538 C535 1.367 . S
C538 C536 1.403 . S
C538 H545 0.929 . S
N539 Eu504 2.562 . S
N539 C540 1.325 . S
N539 C542 1.351 . S
C540 H526 0.929 . S
C540 N539 1.325 . S
C540 C544 1.416 . S
C541 C542 1.430 . S
C541 C543 1.404 . S
C541 C570 1.387 . S
C542 C534 1.448 . S
C542 N539 1.351 . S
C542 C541 1.430 . S
C543 H532 0.930 . S
C543 C541 1.404 . S
C543 C544 1.366 . S
C544 H523 0.930 . S
C544 C540 1.416 . S
C544 C543 1.366 . S
H545 C538 0.929 . S
H546 C569 0.931 . S
H547 C570 0.931 . S
O548 Eu504 2.462 . S
O548 C568 1.252 . S
O549 Eu504 2.373 1_556 S
O549 C560 1.249 . S
O550 Eu515 2.335 . S
O550 C560 1.264 . S
O551 Eu504 2.432 . S
O551 C568 1.268 . S
O552 Eu504 2.291 . S
O552 C567 1.255 . S
O553 Eu515 2.372 . S
O553 C567 1.257 1_556 S
O554 Eu515 2.462 . S
O554 C579 1.252 . S
O555 Eu515 2.373 1_554 S
O555 C571 1.249 . S
O556 Eu504 2.335 . S
O556 C571 1.264 . S
O557 Eu515 2.432 . S
O557 C579 1.268 . S
O558 Eu515 2.291 . S
O558 C578 1.255 . S
O559 Eu504 2.372 . S
O559 C578 1.257 1_554 S
C560 O549 1.249 . S
C560 O550 1.264 . S
C561 C564 1.382 . S
C561 C566 1.390 . S
C561 C568 1.506 . S
C562 C563 1.398 . S
C562 C566 1.392 . S
C563 C562 1.398 . S
C563 C565 1.372 . S
C563 H580 0.931 . S
C564 C561 1.382 . S
C564 C565 1.390 . S
C564 H581 0.931 . S
C565 C563 1.372 . S
C565 C564 1.390 . S
C565 H582 0.929 . S
C566 C561 1.390 . S
C566 C562 1.392 . S
C566 H583 0.930 . S
C567 O552 1.255 . S
C567 O553 1.257 1_554 S
C568 Eu504 2.787 . S
C568 O548 1.252 . S
C568 O551 1.268 . S
C568 C561 1.506 . S
C569 C536 1.439 . S
C569 H546 0.931 . S
C569 C570 1.374 . S
C570 C541 1.387 . S
C570 H547 0.931 . S
C570 C569 1.374 . S
C571 O555 1.249 . S
C571 O556 1.264 . S
C572 C575 1.382 . S
C572 C576 1.390 . S
C572 C579 1.506 . S
C573 C574 1.398 . S
C573 C576 1.392 . S
C574 C573 1.398 . S
C574 C577 1.372 . S
C574 H584 0.931 . S
C575 C572 1.382 . S
C575 C577 1.390 . S
C575 H585 0.931 . S
C576 C572 1.390 . S
C576 C573 1.392 . S
C576 H586 0.930 . S
C577 C574 1.372 . S
C577 C575 1.390 . S
C577 H587 0.929 . S
C578 O558 1.255 . S
C578 O559 1.257 1_556 S
C579 Eu515 2.787 . S
C579 O554 1.252 . S
C579 O557 1.268 . S
C579 C572 1.506 . S
H580 C563 0.931 . S
H581 C564 0.931 . S
H582 C565 0.929 . S
H583 C566 0.930 . S
H584 C574 0.931 . S
H585 C575 0.931 . S
H586 C576 0.930 . S
H587 C577 0.929 . S
Eu588 N617 2.601 . S
Eu588 N623 2.537 1_455 S
Eu588 O632 2.457 1_455 S
Eu588 O633 2.357 1_455 S
Eu588 O635 2.447 . S
Eu588 O636 2.272 1_455 S
Eu588 O640 2.353 . S
Eu588 O643 2.394 . S
Eu588 C652 2.793 . S
C589 N590 1.365 1_455 S
C589 C592 1.405 . S
C589 C596 1.448 . S
N590 C589 1.365 1_655 S
N590 C593 1.319 . S
N590 Eu599 2.601 . S
C591 C593 1.397 . S
C591 C594 1.367 . S
C591 H611 0.931 . S
C592 C589 1.405 . S
C592 C594 1.403 1_455 S
C592 C598 1.439 . S
C593 N590 1.319 . S
C593 C591 1.397 . S
C593 H604 0.930 . S
C594 C591 1.367 . S
C594 C592 1.403 1_655 S
C594 H615 0.929 . S
C595 C596 1.430 . S
C595 C597 1.387 . S
C595 C601 1.404 . S
C596 C589 1.448 . S
C596 C595 1.430 . S
C596 N600 1.351 . S
C597 C595 1.387 . S
C597 C598 1.374 . S
C597 H612 0.931 . S
C598 C592 1.439 . S
C598 C597 1.374 . S
C598 H613 0.931 . S
Eu599 N590 2.601 . S
Eu599 N600 2.544 1_655 S
Eu599 O634 2.349 . S
Eu599 O637 2.388 . S
Eu599 O638 2.458 1_655 S
Eu599 O639 2.361 1_655 S
Eu599 O641 2.443 . S
Eu599 O642 2.277 1_655 S
Eu599 C663 2.791 . S
N600 C596 1.351 . S
N600 Eu599 2.544 1_455 S
N600 C602 1.325 . S
C601 C595 1.404 . S
C601 C603 1.366 . S
C601 H609 0.930 . S
C602 N600 1.325 . S
C602 C603 1.416 . S
C602 H608 0.929 . S
C603 C601 1.366 . S
C603 C602 1.416 . S
C603 H605 0.930 . S
H604 C593 0.930 . S
H605 C603 0.930 . S
H606 C621 0.930 . S
H607 C628 0.930 . S
H608 C602 0.929 . S
H609 C601 0.930 . S
H610 C624 0.929 . S
H611 C591 0.931 . S
H612 C597 0.931 . S
H613 C598 0.931 . S
H614 C619 0.931 . S
H615 C594 0.929 . S
H616 C627 0.930 . S
N617 Eu588 2.601 . S
N617 C618 1.365 1_455 S
N617 C621 1.319 . S
C618 N617 1.365 1_655 S
C618 C620 1.405 . S
C618 C626 1.448 . S
C619 H614 0.931 . S
C619 C621 1.397 . S
C619 C622 1.367 . S
C620 C618 1.405 . S
C620 C622 1.403 1_655 S
C620 C653 1.439 . S
C621 H606 0.930 . S
C621 N617 1.319 . S
C621 C619 1.397 . S
C622 C619 1.367 . S
C622 C620 1.403 1_455 S
C622 H629 0.929 . S
N623 Eu588 2.537 1_655 S
N623 C624 1.325 . S
N623 C626 1.351 . S
C624 H610 0.929 . S
C624 N623 1.325 . S
C624 C628 1.416 . S
C625 C626 1.430 . S
C625 C627 1.404 . S
C625 C654 1.387 . S
C626 C618 1.448 . S
C626 N623 1.351 . S
C626 C625 1.430 . S
C627 H616 0.930 . S
C627 C625 1.404 . S
C627 C628 1.366 . S
C628 H607 0.930 . S
C628 C624 1.416 . S
C628 C627 1.366 . S
H629 C622 0.929 . S
H630 C653 0.931 . S
H631 C654 0.931 . S
O632 Eu588 2.457 1_655 S
O632 C652 1.252 1_655 S
O633 Eu588 2.357 1_655 S
O633 C644 1.249 . S
O634 Eu599 2.349 . S
O634 C644 1.264 . S
O635 Eu588 2.447 . S
O635 C652 1.268 . S
O636 Eu588 2.272 1_655 S
O636 C651 1.255 . S
O637 Eu599 2.388 . S
O637 C651 1.257 . S
O638 Eu599 2.458 1_455 S
O638 C663 1.252 1_455 S
O639 Eu599 2.361 1_455 S
O639 C655 1.249 . S
O640 Eu588 2.353 . S
O640 C655 1.264 . S
O641 Eu599 2.443 . S
O641 C663 1.268 . S
O642 Eu599 2.277 1_455 S
O642 C662 1.255 . S
O643 Eu588 2.394 . S
O643 C662 1.257 . S
C644 O633 1.249 . S
C644 O634 1.264 . S
C645 C648 1.382 . S
C645 C650 1.390 . S
C645 C652 1.506 . S
C646 C647 1.398 . S
C646 C650 1.392 . S
C647 C646 1.398 . S
C647 C649 1.372 . S
C647 H664 0.931 . S
C648 C645 1.382 . S
C648 C649 1.390 . S
C648 H665 0.931 . S
C649 C647 1.372 . S
C649 C648 1.390 . S
C649 H666 0.929 . S
C650 C645 1.390 . S
C650 C646 1.392 . S
C650 H667 0.930 1_455 S
C651 O636 1.255 . S
C651 O637 1.257 . S
C652 Eu588 2.793 . S
C652 O632 1.252 1_455 S
C652 O635 1.268 . S
C652 C645 1.506 . S
C653 C620 1.439 . S
C653 H630 0.931 . S
C653 C654 1.374 . S
C654 C625 1.387 . S
C654 H631 0.931 . S
C654 C653 1.374 . S
C655 O639 1.249 . S
C655 O640 1.264 . S
C656 C659 1.382 . S
C656 C660 1.390 . S
C656 C663 1.506 . S
C657 C658 1.398 . S
C657 C660 1.392 . S
C658 C657 1.398 . S
C658 C661 1.372 . S
C658 H668 0.931 . S
C659 C656 1.382 . S
C659 C661 1.390 . S
C659 H669 0.931 . S
C660 C656 1.390 . S
C660 C657 1.392 . S
C660 H670 0.930 1_655 S
C661 C658 1.372 . S
C661 C659 1.390 . S
C661 H671 0.929 . S
C662 O642 1.255 . S
C662 O643 1.257 . S
C663 Eu599 2.791 . S
C663 O638 1.252 1_655 S
C663 O641 1.268 . S
C663 C656 1.506 . S
H664 C647 0.931 . S
H665 C648 0.931 . S
H666 C649 0.929 . S
H667 C650 0.930 1_655 S
H668 C658 0.931 . S
H669 C659 0.931 . S
H670 C660 0.930 1_455 S
H671 C661 0.929 . S
H672 C678 0.930 . S
H673 C682 0.930 . S
H674 C687 0.929 . S
H675 C685 0.929 . S
H676 C680 0.929 . S
H677 C686 0.929 . S
C678 H672 0.930 . S
C678 C679 1.367 . S
C678 C686 1.378 . S
C679 C678 1.367 . S
C679 C687 1.433 . S
C680 H676 0.929 . S
C680 C682 1.378 . S
C680 C684 1.350 . S
C681 C684 1.463 . S
C681 C686 1.350 . S
C681 N689 1.427 . S
C682 H673 0.930 . S
C682 C680 1.378 . S
C682 C683 1.367 . S
C683 C682 1.367 . S
C683 C685 1.433 . S
C684 C680 1.350 . S
C684 C681 1.463 . S
C684 N688 1.427 . S
C685 H675 0.929 . S
C685 C683 1.433 . S
C685 N688 1.384 . S
C686 H677 0.929 . S
C686 C678 1.378 . S
C686 C681 1.350 . S
C687 H674 0.929 . S
C687 C679 1.433 . S
C687 N689 1.384 . S
N688 C684 1.427 . S
N688 C685 1.384 . S
N689 C681 1.427 . S
N689 C687 1.384 . S
H690 C696 0.930 . S
H691 C700 0.930 . S
H692 C705 0.929 . S
H693 C703 0.929 . S
H694 C698 0.929 . S
H695 C704 0.929 . S
C696 H690 0.930 . S
C696 C697 1.367 . S
C696 C704 1.378 . S
C697 C696 1.367 . S
C697 C705 1.433 . S
C698 H694 0.929 . S
C698 C700 1.378 . S
C698 C702 1.350 . S
C699 C702 1.463 . S
C699 C704 1.350 . S
C699 N707 1.427 . S
C700 H691 0.930 . S
C700 C698 1.378 . S
C700 C701 1.367 . S
C701 C700 1.367 . S
C701 C703 1.433 . S
C702 C698 1.350 . S
C702 C699 1.463 . S
C702 N706 1.427 . S
C703 H693 0.929 . S
C703 C701 1.433 . S
C703 N706 1.384 . S
C704 H695 0.929 . S
C704 C696 1.378 . S
C704 C699 1.350 . S
C705 H692 0.929 . S
C705 C697 1.433 . S
C705 N707 1.384 . S
N706 C702 1.427 . S
N706 C703 1.384 . S
N707 C699 1.427 . S
N707 C705 1.384 . S
H708 C714 0.930 . S
H709 C718 0.930 . S
H710 C723 0.929 . S
H711 C721 0.929 . S
H712 C716 0.929 . S
H713 C722 0.929 . S
C714 H708 0.930 . S
C714 C715 1.367 . S
C714 C722 1.378 . S
C715 C714 1.367 . S
C715 C723 1.433 . S
C716 H712 0.929 . S
C716 C718 1.378 . S
C716 C720 1.350 . S
C717 C720 1.463 . S
C717 C722 1.350 . S
C717 N725 1.427 . S
C718 H709 0.930 . S
C718 C716 1.378 . S
C718 C719 1.367 . S
C719 C718 1.367 . S
C719 C721 1.433 . S
C720 C716 1.350 . S
C720 C717 1.463 . S
C720 N724 1.427 . S
C721 H711 0.929 . S
C721 C719 1.433 . S
C721 N724 1.384 . S
C722 H713 0.929 . S
C722 C714 1.378 . S
C722 C717 1.350 . S
C723 H710 0.929 . S
C723 C715 1.433 . S
C723 N725 1.384 . S
N724 C720 1.427 . S
N724 C721 1.384 . S
N725 C717 1.427 . S
N725 C723 1.384 . S
H726 C732 0.930 . S
H727 C736 0.930 . S
H728 C741 0.929 . S
H729 C739 0.929 . S
H730 C734 0.929 . S
H731 C740 0.929 . S
C732 H726 0.930 . S
C732 C733 1.367 . S
C732 C740 1.378 . S
C733 C732 1.367 . S
C733 C741 1.433 . S
C734 H730 0.929 . S
C734 C736 1.378 . S
C734 C738 1.350 . S
C735 C738 1.463 . S
C735 C740 1.350 . S
C735 N743 1.427 . S
C736 H727 0.930 . S
C736 C734 1.378 . S
C736 C737 1.367 . S
C737 C736 1.367 . S
C737 C739 1.433 . S
C738 C734 1.350 . S
C738 C735 1.463 . S
C738 N742 1.427 . S
C739 H729 0.929 . S
C739 C737 1.433 . S
C739 N742 1.384 . S
C740 H731 0.929 . S
C740 C732 1.378 . S
C740 C735 1.350 . S
C741 H728 0.929 . S
C741 C733 1.433 . S
C741 N743 1.384 . S
N742 C738 1.427 . S
N742 C739 1.384 . S
N743 C735 1.427 . S
N743 C741 1.384 . S
H744 C750 0.930 . S
H745 C754 0.930 . S
H746 C759 0.929 . S
H747 C757 0.929 . S
H748 C752 0.929 . S
H749 C758 0.929 . S
C750 H744 0.930 . S
C750 C751 1.367 . S
C750 C758 1.378 . S
C751 C750 1.367 . S
C751 C759 1.433 . S
C752 H748 0.929 . S
C752 C754 1.378 . S
C752 C756 1.350 . S
C753 C756 1.463 . S
C753 C758 1.350 . S
C753 N761 1.427 . S
C754 H745 0.930 . S
C754 C752 1.378 . S
C754 C755 1.367 . S
C755 C754 1.367 . S
C755 C757 1.433 . S
C756 C752 1.350 . S
C756 C753 1.463 . S
C756 N760 1.427 . S
C757 H747 0.929 . S
C757 C755 1.433 . S
C757 N760 1.384 . S
C758 H749 0.929 . S
C758 C750 1.378 . S
C758 C753 1.350 . S
C759 H746 0.929 . S
C759 C751 1.433 . S
C759 N761 1.384 . S
N760 C756 1.427 . S
N760 C757 1.384 . S
N761 C753 1.427 . S
N761 C759 1.384 . S
H762 C768 0.930 . S
H763 C772 0.930 . S
H764 C777 0.929 . S
H765 C775 0.929 . S
H766 C770 0.929 . S
H767 C776 0.929 . S
C768 H762 0.930 . S
C768 C769 1.367 . S
C768 C776 1.378 . S
C769 C768 1.367 . S
C769 C777 1.433 . S
C770 H766 0.929 . S
C770 C772 1.378 . S
C770 C774 1.350 . S
C771 C774 1.463 . S
C771 C776 1.350 . S
C771 N779 1.427 . S
C772 H763 0.930 . S
C772 C770 1.378 . S
C772 C773 1.367 . S
C773 C772 1.367 . S
C773 C775 1.433 . S
C774 C770 1.350 . S
C774 C771 1.463 . S
C774 N778 1.427 . S
C775 H765 0.929 . S
C775 C773 1.433 . S
C775 N778 1.384 . S
C776 H767 0.929 . S
C776 C768 1.378 . S
C776 C771 1.350 . S
C777 H764 0.929 . S
C777 C769 1.433 . S
C777 N779 1.384 . S
N778 C774 1.427 . S
N778 C775 1.384 . S
N779 C771 1.427 . S
N779 C777 1.384 . S
H780 C786 0.930 . S
H781 C790 0.930 . S
H782 C795 0.929 . S
H783 C793 0.929 . S
H784 C788 0.929 . S
H785 C794 0.929 . S
C786 H780 0.930 . S
C786 C787 1.367 . S
C786 C794 1.378 . S
C787 C786 1.367 . S
C787 C795 1.433 . S
C788 H784 0.929 . S
C788 C790 1.378 . S
C788 C792 1.350 . S
C789 C792 1.463 . S
C789 C794 1.350 . S
C789 N797 1.427 . S
C790 H781 0.930 . S
C790 C788 1.378 . S
C790 C791 1.367 . S
C791 C790 1.367 . S
C791 C793 1.433 . S
C792 C788 1.350 . S
C792 C789 1.463 . S
C792 N796 1.427 . S
C793 H783 0.929 . S
C793 C791 1.433 . S
C793 N796 1.384 . S
C794 H785 0.929 . S
C794 C786 1.378 . S
C794 C789 1.350 . S
C795 H782 0.929 . S
C795 C787 1.433 . S
C795 N797 1.384 . S
N796 C792 1.427 . S
N796 C793 1.384 . S
N797 C789 1.427 . S
N797 C795 1.384 . S
H798 C804 0.930 . S
H799 C808 0.930 . S
H800 C813 0.929 . S
H801 C811 0.929 . S
H802 C806 0.929 . S
H803 C812 0.929 . S
C804 H798 0.930 . S
C804 C805 1.367 . S
C804 C812 1.378 . S
C805 C804 1.367 . S
C805 C813 1.433 . S
C806 H802 0.929 . S
C806 C808 1.378 . S
C806 C810 1.350 . S
C807 C810 1.463 . S
C807 C812 1.350 . S
C807 N815 1.427 . S
C808 H799 0.930 . S
C808 C806 1.378 . S
C808 C809 1.367 . S
C809 C808 1.367 . S
C809 C811 1.433 . S
C810 C806 1.350 . S
C810 C807 1.463 . S
C810 N814 1.427 . S
C811 H801 0.929 . S
C811 C809 1.433 . S
C811 N814 1.384 . S
C812 H803 0.929 . S
C812 C804 1.378 . S
C812 C807 1.350 . S
C813 H800 0.929 . S
C813 C805 1.433 . S
C813 N815 1.384 . S
N814 C810 1.427 . S
N814 C811 1.384 . S
N815 C807 1.427 . S
N815 C813 1.384 . S
H816 C822 0.930 . S
H817 C826 0.930 . S
H818 C831 0.929 . S
H819 C829 0.929 . S
H820 C824 0.929 . S
H821 C830 0.929 . S
C822 H816 0.930 . S
C822 C823 1.367 . S
C822 C830 1.378 . S
C823 C822 1.367 . S
C823 C831 1.433 . S
C824 H820 0.929 . S
C824 C826 1.378 . S
C824 C828 1.350 . S
C825 C828 1.463 . S
C825 C830 1.350 . S
C825 N833 1.427 . S
C826 H817 0.930 . S
C826 C824 1.378 . S
C826 C827 1.367 . S
C827 C826 1.367 . S
C827 C829 1.433 . S
C828 C824 1.350 . S
C828 C825 1.463 . S
C828 N832 1.427 . S
C829 H819 0.929 . S
C829 C827 1.433 . S
C829 N832 1.384 . S
C830 H821 0.929 . S
C830 C822 1.378 . S
C830 C825 1.350 . S
C831 H818 0.929 . S
C831 C823 1.433 . S
C831 N833 1.384 . S
N832 C828 1.427 . S
N832 C829 1.384 . S
N833 C825 1.427 . S
N833 C831 1.384 . S
H834 C840 0.930 . S
H835 C844 0.930 . S
H836 C849 0.929 . S
H837 C847 0.929 . S
H838 C842 0.929 . S
H839 C848 0.929 . S
C840 H834 0.930 . S
C840 C841 1.367 . S
C840 C848 1.378 . S
C841 C840 1.367 . S
C841 C849 1.433 . S
C842 H838 0.929 . S
C842 C844 1.378 . S
C842 C846 1.350 . S
C843 C846 1.463 . S
C843 C848 1.350 . S
C843 N851 1.427 . S
C844 H835 0.930 . S
C844 C842 1.378 . S
C844 C845 1.367 . S
C845 C844 1.367 . S
C845 C847 1.433 . S
C846 C842 1.350 . S
C846 C843 1.463 . S
C846 N850 1.427 . S
C847 H837 0.929 . S
C847 C845 1.433 . S
C847 N850 1.384 . S
C848 H839 0.929 . S
C848 C840 1.378 . S
C848 C843 1.350 . S
C849 H836 0.929 . S
C849 C841 1.433 . S
C849 N851 1.384 . S
N850 C846 1.427 . S
N850 C847 1.384 . S
N851 C843 1.427 . S
N851 C849 1.384 . S
H852 C858 0.930 . S
H853 C862 0.930 . S
H854 C867 0.929 . S
H855 C865 0.929 . S
H856 C860 0.929 . S
H857 C866 0.929 . S
C858 H852 0.930 . S
C858 C859 1.367 . S
C858 C866 1.378 . S
C859 C858 1.367 . S
C859 C867 1.433 . S
C860 H856 0.929 . S
C860 C862 1.378 . S
C860 C864 1.350 . S
C861 C864 1.463 . S
C861 C866 1.350 . S
C861 N869 1.427 . S
C862 H853 0.930 . S
C862 C860 1.378 . S
C862 C863 1.367 . S
C863 C862 1.367 . S
C863 C865 1.433 . S
C864 C860 1.350 . S
C864 C861 1.463 . S
C864 N868 1.427 . S
C865 H855 0.929 . S
C865 C863 1.433 . S
C865 N868 1.384 . S
C866 H857 0.929 . S
C866 C858 1.378 . S
C866 C861 1.350 . S
C867 H854 0.929 . S
C867 C859 1.433 . S
C867 N869 1.384 . S
N868 C864 1.427 . S
N868 C865 1.384 . S
N869 C861 1.427 . S
N869 C867 1.384 . S
H870 C876 0.930 . S
H871 C880 0.930 . S
H872 C885 0.929 . S
H873 C883 0.929 . S
H874 C878 0.929 . S
H875 C884 0.929 . S
C876 H870 0.930 . S
C876 C877 1.367 . S
C876 C884 1.378 . S
C877 C876 1.367 . S
C877 C885 1.433 . S
C878 H874 0.929 . S
C878 C880 1.378 . S
C878 C882 1.350 . S
C879 C882 1.463 . S
C879 C884 1.350 . S
C879 N887 1.427 . S
C880 H871 0.930 . S
C880 C878 1.378 . S
C880 C881 1.367 . S
C881 C880 1.367 . S
C881 C883 1.433 . S
C882 C878 1.350 . S
C882 C879 1.463 . S
C882 N886 1.427 . S
C883 H873 0.929 . S
C883 C881 1.433 . S
C883 N886 1.384 . S
C884 H875 0.929 . S
C884 C876 1.378 . S
C884 C879 1.350 . S
C885 H872 0.929 . S
C885 C877 1.433 . S
C885 N887 1.384 . S
N886 C882 1.427 . S
N886 C883 1.384 . S
N887 C879 1.427 . S
N887 C885 1.384 . S
H888 C894 0.930 . S
H889 C898 0.930 . S
H890 C903 0.929 . S
H891 C901 0.929 . S
H892 C896 0.929 . S
H893 C902 0.929 . S
C894 H888 0.930 . S
C894 C895 1.367 . S
C894 C902 1.378 . S
C895 C894 1.367 . S
C895 C903 1.433 . S
C896 H892 0.929 . S
C896 C898 1.378 . S
C896 C900 1.350 . S
C897 C900 1.463 . S
C897 C902 1.350 . S
C897 N905 1.427 . S
C898 H889 0.930 . S
C898 C896 1.378 . S
C898 C899 1.367 . S
C899 C898 1.367 . S
C899 C901 1.433 . S
C900 C896 1.350 . S
C900 C897 1.463 . S
C900 N904 1.427 . S
C901 H891 0.929 . S
C901 C899 1.433 . S
C901 N904 1.384 . S
C902 H893 0.929 . S
C902 C894 1.378 . S
C902 C897 1.350 . S
C903 H890 0.929 . S
C903 C895 1.433 . S
C903 N905 1.384 . S
N904 C900 1.427 . S
N904 C901 1.384 . S
N905 C897 1.427 . S
N905 C903 1.384 . S
H906 C912 0.930 . S
H907 C916 0.930 . S
H908 C921 0.929 . S
H909 C919 0.929 . S
H910 C914 0.929 . S
H911 C920 0.929 . S
C912 H906 0.930 . S
C912 C913 1.367 . S
C912 C920 1.378 . S
C913 C912 1.367 . S
C913 C921 1.433 . S
C914 H910 0.929 . S
C914 C916 1.378 . S
C914 C918 1.350 . S
C915 C918 1.463 . S
C915 C920 1.350 . S
C915 N923 1.427 . S
C916 H907 0.930 . S
C916 C914 1.378 . S
C916 C917 1.367 . S
C917 C916 1.367 . S
C917 C919 1.433 . S
C918 C914 1.350 . S
C918 C915 1.463 . S
C918 N922 1.427 . S
C919 H909 0.929 . S
C919 C917 1.433 . S
C919 N922 1.384 . S
C920 H911 0.929 . S
C920 C912 1.378 . S
C920 C915 1.350 . S
C921 H908 0.929 . S
C921 C913 1.433 . S
C921 N923 1.384 . S
N922 C918 1.427 . S
N922 C919 1.384 . S
N923 C915 1.427 . S
N923 C921 1.384 . S
H924 C930 0.930 . S
H925 C934 0.930 . S
H926 C939 0.929 . S
H927 C937 0.929 . S
H928 C932 0.929 . S
H929 C938 0.929 . S
C930 H924 0.930 . S
C930 C931 1.367 . S
C930 C938 1.378 . S
C931 C930 1.367 . S
C931 C939 1.433 . S
C932 H928 0.929 . S
C932 C934 1.378 . S
C932 C936 1.350 . S
C933 C936 1.463 . S
C933 C938 1.350 . S
C933 N941 1.427 . S
C934 H925 0.930 . S
C934 C932 1.378 . S
C934 C935 1.367 . S
C935 C934 1.367 . S
C935 C937 1.433 . S
C936 C932 1.350 . S
C936 C933 1.463 . S
C936 N940 1.427 . S
C937 H927 0.929 . S
C937 C935 1.433 . S
C937 N940 1.384 . S
C938 H929 0.929 . S
C938 C930 1.378 . S
C938 C933 1.350 . S
C939 H926 0.929 . S
C939 C931 1.433 . S
C939 N941 1.384 . S
N940 C936 1.427 . S
N940 C937 1.384 . S
N941 C933 1.427 . S
N941 C939 1.384 . S
H942 C948 0.930 . S
H943 C952 0.930 . S
H944 C957 0.929 . S
H945 C955 0.929 . S
H946 C950 0.929 . S
H947 C956 0.929 . S
C948 H942 0.930 . S
C948 C949 1.367 . S
C948 C956 1.378 . S
C949 C948 1.367 . S
C949 C957 1.433 . S
C950 H946 0.929 . S
C950 C952 1.378 . S
C950 C954 1.350 . S
C951 C954 1.463 . S
C951 C956 1.350 . S
C951 N959 1.427 . S
C952 H943 0.930 . S
C952 C950 1.378 . S
C952 C953 1.367 . S
C953 C952 1.367 . S
C953 C955 1.433 . S
C954 C950 1.350 . S
C954 C951 1.463 . S
C954 N958 1.427 . S
C955 H945 0.929 . S
C955 C953 1.433 . S
C955 N958 1.384 . S
C956 H947 0.929 . S
C956 C948 1.378 . S
C956 C951 1.350 . S
C957 H944 0.929 . S
C957 C949 1.433 . S
C957 N959 1.384 . S
N958 C954 1.427 . S
N958 C955 1.384 . S
N959 C951 1.427 . S
N959 C957 1.384 . S
H960 C966 0.930 . S
H961 C970 0.930 . S
H962 C975 0.929 . S
H963 C973 0.929 . S
H964 C968 0.929 . S
H965 C974 0.929 . S
C966 H960 0.930 . S
C966 C967 1.343 1_455 S
C966 C974 1.378 . S
C967 C966 1.343 1_655 S
C967 C975 1.457 1_565 S
C968 H964 0.929 . S
C968 C970 1.378 . S
C968 C972 1.360 . S
C969 C972 1.462 1_466 S
C969 C974 1.365 . S
C969 N977 1.411 1_465 S
C970 H961 0.930 . S
C970 C968 1.378 . S
C970 C971 1.367 1_655 S
C971 C970 1.367 1_455 S
C971 C973 1.433 1_545 S
C972 C968 1.360 . S
C972 C969 1.462 1_644 S
C972 N976 1.417 1_645 S
C973 H963 0.929 . S
C973 C971 1.433 1_565 S
C973 N976 1.384 . S
C974 H965 0.929 . S
C974 C966 1.378 . S
C974 C969 1.365 . S
C975 H962 0.929 . S
C975 C967 1.457 1_545 S
C975 N977 1.384 . S
N976 C972 1.417 1_465 S
N976 C973 1.384 . S
N977 C969 1.411 1_645 S
N977 C975 1.384 . S
H978 C984 0.930 . S
H979 C988 0.930 . S
H980 C993 0.929 . S
H981 C991 0.929 . S
H982 C986 0.929 . S
H983 C992 0.929 . S
C984 H978 0.930 . S
C984 C985 1.367 . S
C984 C992 1.378 . S
C985 C984 1.367 . S
C985 C993 1.433 . S
C986 H982 0.929 . S
C986 C988 1.378 . S
C986 C990 1.350 . S
C987 C990 1.463 . S
C987 C992 1.350 . S
C987 N995 1.427 . S
C988 H979 0.930 . S
C988 C986 1.378 . S
C988 C989 1.367 . S
C989 C988 1.367 . S
C989 C991 1.433 . S
C990 C986 1.350 . S
C990 C987 1.463 . S
C990 N994 1.427 . S
C991 H981 0.929 . S
C991 C989 1.433 . S
C991 N994 1.384 . S
C992 H983 0.929 . S
C992 C984 1.378 . S
C992 C987 1.350 . S
C993 H980 0.929 . S
C993 C985 1.433 . S
C993 N995 1.384 . S
N994 C990 1.427 . S
N994 C991 1.384 . S
N995 C987 1.427 . S
N995 C993 1.384 . S
H996 C1002 0.930 . S
H997 C1006 0.930 . S
H998 C1011 0.929 . S
H999 C1009 0.929 . S
H1000 C1004 0.929 . S
H1001 C1010 0.929 . S
C1002 H996 0.930 . S
C1002 C1003 1.367 . S
C1002 C1010 1.378 . S
C1003 C1002 1.367 . S
C1003 C1011 1.433 1_565 S
C1004 H1000 0.929 . S
C1004 C1006 1.378 . S
C1004 C1008 1.350 . S
C1005 C1008 1.463 1_565 S
C1005 C1010 1.350 . S
C1005 N1013 1.427 1_565 S
C1006 H997 0.930 . S
C1006 C1004 1.378 . S
C1006 C1007 1.367 . S
C1007 C1006 1.367 . S
C1007 C1009 1.433 1_545 S
C1008 C1004 1.350 . S
C1008 C1005 1.463 1_545 S
C1008 N1012 1.427 1_545 S
C1009 H999 0.929 . S
C1009 C1007 1.433 1_565 S
C1009 N1012 1.384 . S
C1010 H1001 0.929 . S
C1010 C1002 1.378 . S
C1010 C1005 1.350 . S
C1011 H998 0.929 . S
C1011 C1003 1.433 1_545 S
C1011 N1013 1.384 . S
N1012 C1008 1.427 1_565 S
N1012 C1009 1.384 . S
N1013 C1005 1.427 1_545 S
N1013 C1011 1.384 . S
H1014 C1020 0.930 . S
H1015 C1024 0.930 . S
H1016 C1029 0.929 . S
H1017 C1027 0.929 . S
H1018 C1022 0.929 . S
H1019 C1028 0.929 . S
C1020 H1014 0.930 . S
C1020 C1021 1.367 . S
C1020 C1028 1.378 . S
C1021 C1020 1.367 . S
C1021 C1029 1.433 . S
C1022 H1018 0.929 . S
C1022 C1024 1.378 . S
C1022 C1026 1.350 . S
C1023 C1026 1.463 . S
C1023 C1028 1.350 . S
C1023 N1031 1.427 . S
C1024 H1015 0.930 . S
C1024 C1022 1.378 . S
C1024 C1025 1.367 . S
C1025 C1024 1.367 . S
C1025 C1027 1.433 . S
C1026 C1022 1.350 . S
C1026 C1023 1.463 . S
C1026 N1030 1.427 . S
C1027 H1017 0.929 . S
C1027 C1025 1.433 . S
C1027 N1030 1.384 . S
C1028 H1019 0.929 . S
C1028 C1020 1.378 . S
C1028 C1023 1.350 . S
C1029 H1016 0.929 . S
C1029 C1021 1.433 . S
C1029 N1031 1.384 . S
N1030 C1026 1.427 . S
N1030 C1027 1.384 . S
N1031 C1023 1.427 . S
N1031 C1029 1.384 . S
H1032 C1038 0.930 . S
H1033 C1042 0.930 . S
H1034 C1047 0.929 . S
H1035 C1045 0.929 . S
H1036 C1040 0.929 . S
H1037 C1046 0.929 . S
C1038 H1032 0.930 . S
C1038 C1039 1.367 . S
C1038 C1046 1.378 . S
C1039 C1038 1.367 . S
C1039 C1047 1.433 . S
C1040 H1036 0.929 . S
C1040 C1042 1.378 . S
C1040 C1044 1.350 . S
C1041 C1044 1.463 . S
C1041 C1046 1.350 . S
C1041 N1049 1.427 . S
C1042 H1033 0.930 . S
C1042 C1040 1.378 . S
C1042 C1043 1.367 . S
C1043 C1042 1.367 . S
C1043 C1045 1.433 . S
C1044 C1040 1.350 . S
C1044 C1041 1.463 . S
C1044 N1048 1.427 . S
C1045 H1035 0.929 . S
C1045 C1043 1.433 . S
C1045 N1048 1.384 . S
C1046 H1037 0.929 . S
C1046 C1038 1.378 . S
C1046 C1041 1.350 . S
C1047 H1034 0.929 . S
C1047 C1039 1.433 . S
C1047 N1049 1.384 . S
N1048 C1044 1.427 . S
N1048 C1045 1.384 . S
N1049 C1041 1.427 . S
N1049 C1047 1.384 . S
H1050 C1056 0.930 . S
H1051 C1060 0.930 . S
H1052 C1065 0.929 . S
H1053 C1063 0.929 . S
H1054 C1058 0.929 . S
H1055 C1064 0.929 . S
C1056 H1050 0.930 . S
C1056 C1057 1.367 . S
C1056 C1064 1.378 . S
C1057 C1056 1.367 . S
C1057 C1065 1.433 . S
C1058 H1054 0.929 . S
C1058 C1060 1.378 . S
C1058 C1062 1.350 . S
C1059 C1062 1.463 . S
C1059 C1064 1.350 . S
C1059 N1067 1.427 . S
C1060 H1051 0.930 . S
C1060 C1058 1.378 . S
C1060 C1061 1.367 . S
C1061 C1060 1.367 . S
C1061 C1063 1.433 . S
C1062 C1058 1.350 . S
C1062 C1059 1.463 . S
C1062 N1066 1.427 . S
C1063 H1053 0.929 . S
C1063 C1061 1.433 . S
C1063 N1066 1.384 . S
C1064 H1055 0.929 . S
C1064 C1056 1.378 . S
C1064 C1059 1.350 . S
C1065 H1052 0.929 . S
C1065 C1057 1.433 . S
C1065 N1067 1.384 . S
N1066 C1062 1.427 . S
N1066 C1063 1.384 . S
N1067 C1059 1.427 . S
N1067 C1065 1.384 . S
H1068 C1074 0.930 . S
H1069 C1078 0.930 . S
H1070 C1083 0.929 . S
H1071 C1081 0.929 . S
H1072 C1076 0.929 . S
H1073 C1082 0.929 . S
C1074 H1068 0.930 . S
C1074 C1075 1.367 . S
C1074 C1082 1.378 . S
C1075 C1074 1.367 . S
C1075 C1083 1.433 . S
C1076 H1072 0.929 . S
C1076 C1078 1.378 . S
C1076 C1080 1.350 . S
C1077 C1080 1.463 . S
C1077 C1082 1.350 . S
C1077 N1085 1.427 . S
C1078 H1069 0.930 . S
C1078 C1076 1.378 . S
C1078 C1079 1.367 . S
C1079 C1078 1.367 . S
C1079 C1081 1.433 . S
C1080 C1076 1.350 . S
C1080 C1077 1.463 . S
C1080 N1084 1.427 . S
C1081 H1071 0.929 . S
C1081 C1079 1.433 . S
C1081 N1084 1.384 . S
C1082 H1073 0.929 . S
C1082 C1074 1.378 . S
C1082 C1077 1.350 . S
C1083 H1070 0.929 . S
C1083 C1075 1.433 . S
C1083 N1085 1.384 . S
N1084 C1080 1.427 . S
N1084 C1081 1.384 . S
N1085 C1077 1.427 . S
N1085 C1083 1.384 . S
H1086 C1092 0.930 . S
H1087 C1096 0.930 . S
H1088 C1101 0.929 . S
H1089 C1099 0.929 . S
H1090 C1094 0.929 . S
H1091 C1100 0.929 . S
C1092 H1086 0.930 . S
C1092 C1093 1.367 . S
C1092 C1100 1.378 . S
C1093 C1092 1.367 . S
C1093 C1101 1.433 1_455 S
C1094 H1090 0.929 . S
C1094 C1096 1.378 . S
C1094 C1098 1.368 . S
C1095 C1098 1.461 1_456 S
C1095 C1100 1.350 . S
C1095 N1103 1.427 1_455 S
C1096 H1087 0.930 . S
C1096 C1094 1.378 . S
C1096 C1097 1.367 . S
C1097 C1096 1.367 . S
C1097 C1099 1.433 1_655 S
C1098 C1094 1.368 . S
C1098 C1095 1.461 1_654 S
C1098 N1102 1.410 1_655 S
C1099 H1089 0.929 . S
C1099 C1097 1.433 1_455 S
C1099 N1102 1.384 . S
C1100 H1091 0.929 . S
C1100 C1092 1.378 . S
C1100 C1095 1.350 . S
C1101 H1088 0.929 . S
C1101 C1093 1.433 1_655 S
C1101 N1103 1.384 . S
N1102 C1098 1.410 1_455 S
N1102 C1099 1.384 . S
N1103 C1095 1.427 1_655 S
N1103 C1101 1.384 . S
C679 C56 1.498 . S
C683 C308 1.488 . S
C697 C63 1.497 . S
C701 C140 1.496 . S
C715 C147 1.502 . S
C719 C224 1.511 . S
C733 C231 1.503 . S
C737 C315 1.498 . S
C751 C67 1.498 . S
C755 C487 1.497 . S
C769 C74 1.490 . S
C773 C403 1.493 . S
C787 C410 1.499 . S
C791 C235 1.499 . S
C805 C494 1.504 . S
C809 C242 1.508 . S
C823 C560 1.498 . S
C827 C476 1.495 . S
C841 C392 1.492 . S
C845 C567 1.491 . S
C859 C644 1.503 . S
C863 C399 1.507 . S
C877 C483 1.504 . S
C881 C651 1.505 . S
C895 C319 1.494 . S
C899 C571 1.497 . S
C913 C578 1.494 . S
C917 C151 1.500 . S
C931 C158 1.503 . S
C935 C655 1.505 . S
C949 C326 1.500 . S
C953 C662 1.497 . S
C967 C58 1.373 1_565 S
C971 C69 1.363 1_545 S
C985 C153 1.358 . S
C989 C142 1.358 . S
C1003 C237 1.354 1_565 S
C1007 C226 1.354 1_545 S
C1021 C310 1.356 . S
C1025 C321 1.356 . S
C1039 C405 1.336 . S
C1043 C394 1.336 . S
C1057 C478 1.349 . S
C1061 C489 1.349 . S
C1075 C573 1.351 . S
C1079 C562 1.351 . S
C1093 C646 1.339 . S
C1097 C657 1.339 . S
