# Generated by pormake.
# Topology ukk, (4)-cn, num edge types: 1
# Building blocks:
#     Node 0, Type 0, BuildingBlock: MUDLON_clean_sbu_0, # of connection points: 4
#     Node 1, Type 0, BuildingBlock: MUDLON_clean_sbu_0, # of connection points: 4
#     Node 2, Type 0, BuildingBlock: MUDLON_clean_sbu_0, # of connection points: 4
#     Node 3, Type 0, BuildingBlock: MUDLON_clean_sbu_0, # of connection points: 4
#     Node 4, Type 0, BuildingBlock: MUDLON_clean_sbu_0, # of connection points: 4
#     Node 5, Type 0, BuildingBlock: MUDLON_clean_sbu_0, # of connection points: 4
#     Node 6, Type 0, BuildingBlock: MUDLON_clean_sbu_0, # of connection points: 4
#     Node 7, Type 0, BuildingBlock: MUDLON_clean_sbu_0, # of connection points: 4
#     Node 8, Type 0, BuildingBlock: MUDLON_clean_sbu_0, # of connection points: 4
#     Node 9, Type 0, BuildingBlock: MUDLON_clean_sbu_0, # of connection points: 4
#     Node 10, Type 0, BuildingBlock: MUDLON_clean_sbu_0, # of connection points: 4
#     Node 11, Type 0, BuildingBlock: MUDLON_clean_sbu_0, # of connection points: 4
#     Node 12, Type 0, BuildingBlock: MUDLON_clean_sbu_0, # of connection points: 4
#     Node 13, Type 0, BuildingBlock: MUDLON_clean_sbu_0, # of connection points: 4
#     Node 14, Type 0, BuildingBlock: MUDLON_clean_sbu_0, # of connection points: 4
#     Node 15, Type 0, BuildingBlock: MUDLON_clean_sbu_0, # of connection points: 4
#     Edge 16, Type (0, 0), BuildingBlock: XUDNAN_clean_linker_2, # of connection points: 2
#     Edge 17, Type (0, 0), BuildingBlock: XUDNAN_clean_linker_2, # of connection points: 2
#     Edge 18, Type (0, 0), BuildingBlock: XUDNAN_clean_linker_2, # of connection points: 2
#     Edge 19, Type (0, 0), BuildingBlock: XUDNAN_clean_linker_2, # of connection points: 2
#     Edge 20, Type (0, 0), BuildingBlock: XUDNAN_clean_linker_2, # of connection points: 2
#     Edge 21, Type (0, 0), BuildingBlock: XUDNAN_clean_linker_2, # of connection points: 2
#     Edge 22, Type (0, 0), BuildingBlock: XUDNAN_clean_linker_2, # of connection points: 2
#     Edge 23, Type (0, 0), BuildingBlock: XUDNAN_clean_linker_2, # of connection points: 2
#     Edge 24, Type (0, 0), BuildingBlock: XUDNAN_clean_linker_2, # of connection points: 2
#     Edge 25, Type (0, 0), BuildingBlock: XUDNAN_clean_linker_2, # of connection points: 2
#     Edge 26, Type (0, 0), BuildingBlock: XUDNAN_clean_linker_2, # of connection points: 2
#     Edge 27, Type (0, 0), BuildingBlock: XUDNAN_clean_linker_2, # of connection points: 2
#     Edge 28, Type (0, 0), BuildingBlock: XUDNAN_clean_linker_2, # of connection points: 2
#     Edge 29, Type (0, 0), BuildingBlock: XUDNAN_clean_linker_2, # of connection points: 2
#     Edge 30, Type (0, 0), BuildingBlock: XUDNAN_clean_linker_2, # of connection points: 2
#     Edge 31, Type (0, 0), BuildingBlock: XUDNAN_clean_linker_2, # of connection points: 2
#     Edge 32, Type (0, 0), BuildingBlock: XUDNAN_clean_linker_2, # of connection points: 2
#     Edge 33, Type (0, 0), BuildingBlock: XUDNAN_clean_linker_2, # of connection points: 2
#     Edge 34, Type (0, 0), BuildingBlock: XUDNAN_clean_linker_2, # of connection points: 2
#     Edge 35, Type (0, 0), BuildingBlock: XUDNAN_clean_linker_2, # of connection points: 2
#     Edge 36, Type (0, 0), BuildingBlock: XUDNAN_clean_linker_2, # of connection points: 2
#     Edge 37, Type (0, 0), BuildingBlock: XUDNAN_clean_linker_2, # of connection points: 2
#     Edge 38, Type (0, 0), BuildingBlock: XUDNAN_clean_linker_2, # of connection points: 2
#     Edge 39, Type (0, 0), BuildingBlock: XUDNAN_clean_linker_2, # of connection points: 2
#     Edge 40, Type (0, 0), BuildingBlock: XUDNAN_clean_linker_2, # of connection points: 2
#     Edge 41, Type (0, 0), BuildingBlock: XUDNAN_clean_linker_2, # of connection points: 2
#     Edge 42, Type (0, 0), BuildingBlock: XUDNAN_clean_linker_2, # of connection points: 2
#     Edge 43, Type (0, 0), BuildingBlock: XUDNAN_clean_linker_2, # of connection points: 2
#     Edge 44, Type (0, 0), BuildingBlock: XUDNAN_clean_linker_2, # of connection points: 2
#     Edge 45, Type (0, 0), BuildingBlock: XUDNAN_clean_linker_2, # of connection points: 2
#     Edge 46, Type (0, 0), BuildingBlock: XUDNAN_clean_linker_2, # of connection points: 2
#     Edge 47, Type (0, 0), BuildingBlock: XUDNAN_clean_linker_2, # of connection points: 2
# Relax obj value: 0.000
# Max RMSD: 0.072
# Mean RMSD: 0.072
data_MOF--net-ukk--node1-MUDLON_clean_sbu_0--edge1-XUDNAN_clean_linker_2
_symmetry_space_group_name_H-M    P1
_symmetry_Int_Tables_number       1
_symmetry_cell_setting            triclinic
loop_
_symmetry_equiv_pos_as_xyz
'x, y, z'
_cell_length_a     60.279732
_cell_length_b     60.410429
_cell_length_c     9.2518709
_cell_angle_alpha  90.173037
_cell_angle_beta   89.799853
_cell_angle_gamma 89.955247
loop_
_atom_site_label
_atom_site_type_symbol
_atom_site_fract_x
_atom_site_fract_y
_atom_site_fract_z
_atom_type_partial_charge
Mg0 Mg 0.3918 0.1348 0.10156 0.0
C1 C 0.38253 0.18062 0.03586 0.0
O2 O 0.37921 0.16918 0.91696 0.0
C3 C 0.39237 0.09081 0.20713 0.0
O4 O 0.39434 0.09054 0.06557 0.0
C5 C 0.34565 0.11826 0.02136 0.0
O6 O 0.34729 0.10947 0.15041 0.0
O7 O 0.36239 0.12821 0.96724 0.0
O8 O 0.38837 0.1702 0.1493 0.0
O9 O 0.42539 0.13039 0.01297 0.0
C10 C 0.43707 0.14554 0.95494 0.0
O11 O 0.42778 0.16458 0.92348 0.0
O12 O 0.39094 0.10951 0.2706 0.0
Mg13 Mg 0.13218 0.63949 0.8982 0.0
C14 C 0.17915 0.65614 0.84588 0.0
O15 O 0.17149 0.67373 0.91311 0.0
C16 C 0.0866 0.63797 0.82548 0.0
O17 O 0.08891 0.63437 0.9647 0.0
C18 C 0.12435 0.68594 0.98959 0.0
O19 O 0.12293 0.6868 0.848 0.0
O20 O 0.12795 0.66724 0.04889 0.0
O21 O 0.1658 0.64069 0.81183 0.0
O22 O 0.13015 0.60536 0.97874 0.0
C23 C 0.12958 0.59218 0.87097 0.0
O24 O 0.1301 0.60079 0.74071 0.0
O25 O 0.10402 0.64164 0.75128 0.0
Mg26 Mg 0.6384 0.88687 0.1521 0.0
C27 C 0.63761 0.83779 0.14406 0.0
O28 O 0.63472 0.84349 0.00846 0.0
C29 C 0.63725 0.93324 0.22096 0.0
O30 O 0.63823 0.93101 0.07969 0.0
C31 C 0.68564 0.87868 0.06397 0.0
O32 O 0.6822 0.86227 0.15388 0.0
O33 O 0.66959 0.89158 0.03364 0.0
O34 O 0.63935 0.85307 0.23893 0.0
O35 O 0.60733 0.88952 0.03171 0.0
C36 C 0.59106 0.87978 0.09243 0.0
O37 O 0.59482 0.86838 0.21051 0.0
O38 O 0.63706 0.91568 0.29715 0.0
Mg39 Mg 0.89789 0.38331 0.86237 0.0
C40 C 0.84945 0.37065 0.8192 0.0
O41 O 0.85623 0.35286 0.8872 0.0
C42 C 0.92977 0.38209 0.58296 0.0
O43 O 0.91255 0.37825 0.50007 0.0
C44 C 0.90448 0.33601 0.88335 0.0
O45 O 0.90559 0.34108 0.74553 0.0
O46 O 0.90138 0.35163 0.97418 0.0
O47 O 0.86374 0.38506 0.7805 0.0
O48 O 0.90035 0.415 0.97668 0.0
C49 C 0.90108 0.42983 0.87907 0.0
O50 O 0.90049 0.42338 0.74332 0.0
O51 O 0.92703 0.38447 0.71858 0.0
Mg52 Mg 0.38452 0.39075 0.16176 0.0
C53 C 0.38567 0.3428 0.1448 0.0
O54 O 0.38986 0.34767 0.28052 0.0
C55 C 0.392 0.43672 0.0864 0.0
O56 O 0.39949 0.43419 0.21857 0.0
C57 C 0.34007 0.40581 0.29289 0.0
O58 O 0.3452 0.42463 0.23059 0.0
O59 O 0.35439 0.39028 0.29544 0.0
O60 O 0.38258 0.35862 0.05627 0.0
O61 O 0.41836 0.39073 0.25055 0.0
C62 C 0.43178 0.38844 0.14467 0.0
O63 O 0.42331 0.3864 0.01456 0.0
O64 O 0.38358 0.41999 0.0232 0.0
Mg65 Mg 0.38848 0.64293 0.89938 0.0
C66 C 0.3409 0.65781 0.95486 0.0
O67 O 0.3482 0.67641 0.89932 0.0
C68 C 0.43396 0.64974 0.97914 0.0
O69 O 0.43281 0.65143 0.83779 0.0
C70 C 0.39483 0.68947 0.80736 0.0
O71 O 0.39613 0.6908 0.94888 0.0
O72 O 0.39155 0.67058 0.74941 0.0
O73 O 0.35462 0.64234 0.98138 0.0
O74 O 0.39243 0.60947 0.81245 0.0
C75 C 0.39645 0.59595 0.91443 0.0
O76 O 0.39832 0.60386 0.04628 0.0
O77 O 0.4161 0.64643 0.04955 0.0
Mg78 Mg 0.64027 0.62939 0.12032 0.0
C79 C 0.6468 0.675 0.20344 0.0
O80 O 0.64483 0.66323 0.32202 0.0
C81 C 0.62773 0.59478 0.88805 0.0
O82 O 0.60788 0.60347 0.90269 0.0
C83 C 0.68531 0.62205 0.21801 0.0
O84 O 0.68709 0.62793 0.08181 0.0
O85 O 0.66601 0.62061 0.27349 0.0
O86 O 0.6462 0.66484 0.0824 0.0
O87 O 0.60611 0.62836 0.19867 0.0
C88 C 0.59365 0.6406 0.12201 0.0
O89 O 0.60268 0.65152 0.01422 0.0
O90 O 0.64405 0.60385 0.95228 0.0
Mg91 Mg 0.63867 0.38798 0.89773 0.0
C92 C 0.68708 0.37361 0.92892 0.0
O93 O 0.67939 0.35572 0.86573 0.0
C94 C 0.59291 0.38918 0.97617 0.0
O95 O 0.59487 0.38747 0.835 0.0
C96 C 0.62935 0.34057 0.89071 0.0
O97 O 0.62927 0.34652 0.02744 0.0
O98 O 0.63312 0.35542 0.79591 0.0
O99 O 0.67349 0.38866 0.96843 0.0
O100 O 0.6351 0.41899 0.77517 0.0
C101 C 0.6453 0.43521 0.83374 0.0
O102 O 0.65736 0.4313 0.94883 0.0
O103 O 0.61068 0.39031 0.05029 0.0
Mg104 Mg 0.87992 0.6332 0.66829 0.0
C105 C 0.87205 0.67879 0.60658 0.0
O106 O 0.86936 0.66737 0.48679 0.0
C107 C 0.88795 0.5892 0.75442 0.0
O108 O 0.8894 0.59107 0.61317 0.0
C109 C 0.83395 0.62101 0.64557 0.0
O110 O 0.83864 0.62221 0.78398 0.0
O111 O 0.84945 0.62467 0.55471 0.0
O112 O 0.87645 0.66824 0.72214 0.0
O113 O 0.91252 0.63225 0.56443 0.0
C114 C 0.92628 0.63552 0.66648 0.0
O115 O 0.91833 0.63929 0.7968 0.0
O116 O 0.88318 0.6065 0.82735 0.0
Mg117 Mg 0.63252 0.14167 0.42222 0.0
C118 C 0.67819 0.14776 0.50386 0.0
O119 O 0.66638 0.14656 0.62324 0.0
C120 C 0.59027 0.13472 0.27433 0.0
O121 O 0.58856 0.12413 0.3977 0.0
C122 C 0.62739 0.18802 0.5084 0.0
O123 O 0.63427 0.18852 0.3735 0.0
O124 O 0.62421 0.1692 0.56717 0.0
O125 O 0.66806 0.14631 0.38342 0.0
O126 O 0.63015 0.10715 0.49544 0.0
C127 C 0.63455 0.09413 0.39048 0.0
O128 O 0.63961 0.10298 0.26501 0.0
O129 O 0.60854 0.14439 0.24522 0.0
Mg130 Mg 0.13487 0.38722 0.59339 0.0
C131 C 0.1404 0.34132 0.52832 0.0
O132 O 0.13927 0.35257 0.40726 0.0
C133 C 0.1296 0.43205 0.6858 0.0
O134 O 0.12401 0.43026 0.54905 0.0
C135 C 0.17941 0.40522 0.48513 0.0
O136 O 0.17636 0.41906 0.59304 0.0
O137 O 0.16378 0.39201 0.45047 0.0
O138 O 0.1388 0.35203 0.64713 0.0
O139 O 0.1004 0.38905 0.51736 0.0
C140 C 0.09093 0.38571 0.39653 0.0
O141 O 0.10293 0.38079 0.28208 0.0
O142 O 0.13582 0.41454 0.75102 0.0
Mg143 Mg 0.39521 0.88559 0.36038 0.0
C144 C 0.3468 0.8826 0.36883 0.0
O145 O 0.35269 0.88547 0.50423 0.0
C146 C 0.43155 0.89945 0.13602 0.0
O147 O 0.42131 0.91862 0.13121 0.0
C148 C 0.39817 0.83915 0.38922 0.0
O149 O 0.39601 0.8444 0.2522 0.0
O150 O 0.39873 0.85484 0.48176 0.0
O151 O 0.36192 0.88184 0.27229 0.0
O152 O 0.39586 0.91866 0.45958 0.0
C153 C 0.3859 0.93232 0.37743 0.0
O154 O 0.37668 0.92458 0.25922 0.0
O155 O 0.42332 0.88381 0.21087 0.0
Mg156 Mg 0.88843 0.88883 0.69897 0.0
C157 C 0.8919 0.84014 0.68215 0.0
O158 O 0.90063 0.84487 0.80849 0.0
C159 C 0.88645 0.93505 0.63125 0.0
O160 O 0.8878 0.93309 0.77242 0.0
C161 C 0.84528 0.87845 0.85511 0.0
O162 O 0.84973 0.85862 0.80441 0.0
O163 O 0.85967 0.89371 0.84081 0.0
O164 O 0.88544 0.85602 0.6022 0.0
O165 O 0.92218 0.89077 0.78483 0.0
C166 C 0.93561 0.89323 0.67954 0.0
O167 O 0.92737 0.89405 0.54832 0.0
O168 O 0.88616 0.91742 0.5555 0.0
Mg169 Mg 0.88948 0.14208 0.41916 0.0
C170 C 0.84113 0.14605 0.41904 0.0
O171 O 0.84651 0.14199 0.28376 0.0
C172 C 0.93627 0.14622 0.48271 0.0
O173 O 0.93424 0.1471 0.34146 0.0
C174 C 0.89281 0.18762 0.31431 0.0
O175 O 0.88964 0.18966 0.45433 0.0
O176 O 0.89342 0.16823 0.25976 0.0
O177 O 0.85662 0.14741 0.51216 0.0
O178 O 0.8893 0.10775 0.34517 0.0
C179 C 0.88648 0.09514 0.45364 0.0
O180 O 0.88413 0.1044 0.58157 0.0
O181 O 0.9187 0.14438 0.55855 0.0
Mg182 Mg 0.1445 0.13061 0.63134 0.0
C183 C 0.14576 0.17877 0.62135 0.0
O184 O 0.1422 0.17359 0.75733 0.0
C185 C 0.13509 0.09323 0.40495 0.0
O186 O 0.11829 0.10566 0.3658 0.0
C187 C 0.18667 0.11588 0.79006 0.0
O188 O 0.18136 0.09622 0.74017 0.0
O189 O 0.17298 0.13181 0.77647 0.0
O190 O 0.14787 0.16309 0.52947 0.0
O191 O 0.11034 0.13097 0.71586 0.0
C192 C 0.09715 0.1393 0.62324 0.0
O193 O 0.10559 0.14647 0.50098 0.0
O194 O 0.14841 0.10034 0.50105 0.0
Mg195 Mg 0.13856 0.88457 0.3909 0.0
C196 C 0.18375 0.8786 0.31233 0.0
O197 O 0.17145 0.87764 0.19546 0.0
C198 C 0.09497 0.89181 0.49241 0.0
O199 O 0.09577 0.89371 0.35098 0.0
C200 C 0.13041 0.83765 0.38302 0.0
O201 O 0.13422 0.84338 0.51783 0.0
O202 O 0.13054 0.85283 0.28747 0.0
O203 O 0.17403 0.88147 0.43355 0.0
O204 O 0.13612 0.91649 0.27886 0.0
C205 C 0.14562 0.93172 0.35166 0.0
O206 O 0.15594 0.9261 0.47097 0.0
O207 O 0.11299 0.88754 0.5585 0.0
H208 H 0.36756 0.96334 0.20475 0.0
H209 H 0.4052 0.95649 0.60084 0.0
H210 H 0.40759 0.99753 0.61954 0.0
H211 H 0.39921 1.00529 0.05932 0.0
H212 H 0.37623 0.01905 0.97363 0.0
H213 H 0.37507 0.98976 0.00558 0.0
H214 H 0.33826 0.99479 0.14822 0.0
H215 H 0.33931 0.02419 0.11669 0.0
H216 H 0.33721 0.01381 0.29866 0.0
H217 H 0.40789 0.04039 0.57884 0.0
H218 H 0.40801 0.07853 0.47685 0.0
H219 H 0.37147 0.05481 0.10525 0.0
C220 C 0.37601 0.9703 0.29738 0.0
C221 C 0.38611 0.95664 0.40175 0.0
C222 C 0.39721 0.96663 0.5199 0.0
C223 C 0.39861 0.98992 0.53133 0.0
C224 C 0.38881 1.00288 0.42382 0.0
C225 C 0.37772 0.99322 0.30928 0.0
C226 C 0.37019 1.01013 0.20022 0.0
C227 C 0.38082 1.0058 0.05101 0.0
C228 C 0.34473 1.01076 0.19047 0.0
C229 C 0.37913 0.03094 0.26872 0.0
C230 C 0.38951 0.02674 0.39892 0.0
C231 C 0.39965 0.04376 0.47753 0.0
C232 C 0.39958 0.06537 0.41945 0.0
C233 C 0.3898 0.06949 0.28325 0.0
C234 C 0.37912 0.0521 0.20953 0.0
H235 H 0.04814 0.63034 0.96823 0.0
H236 H 0.07394 0.64431 0.5398 0.0
H237 H 0.03548 0.64336 0.44297 0.0
H238 H 1.00491 0.59289 0.85977 0.0
H239 H 0.98612 0.60273 0.99767 0.0
H240 H 0.0156 0.60366 0.02758 0.0
H241 H 1.0131 0.64577 0.08026 0.0
H242 H 0.98365 0.64497 0.05103 0.0
H243 H 1.00066 0.6638 0.94836 0.0
H244 H 0.99257 0.64142 0.39841 0.0
H245 H 0.95131 0.64046 0.4153 0.0
H246 H 0.95631 0.62816 0.87553 0.0
C247 C 0.0459 0.63313 0.85364 0.0
C248 C 0.06408 0.6374 0.7616 0.0
C249 C 0.06022 0.64099 0.61243 0.0
C250 C 0.03845 0.64043 0.55662 0.0
C251 C 0.02086 0.6362 0.65155 0.0
C252 C 0.02455 0.63264 0.79708 0.0
C253 C 1.00325 0.62907 0.8795 0.0
C254 C 1.00243 0.6057 0.94491 0.0
C255 C 0.99998 0.64698 0.99657 0.0
C256 C 0.98675 0.63154 0.75864 0.0
C257 C 0.99697 0.6354 0.6271 0.0
C258 C 0.98452 0.63838 0.50119 0.0
C259 C 0.96113 0.63775 0.51143 0.0
C260 C 0.95063 0.63441 0.64685 0.0
C261 C 0.96377 0.63097 0.77049 0.0
H262 H 0.64022 0.97208 0.07538 0.0
H263 H 0.63223 0.94593 0.5086 0.0
H264 H 0.63027 0.9844 0.60476 0.0
H265 H 0.67486 0.01774 0.1684 0.0
H266 H 0.66263 0.03574 0.03556 0.0
H267 H 0.66322 1.00631 0.00516 0.0
H268 H 0.62058 1.00626 0.97085 0.0
H269 H 0.61984 0.03568 0.00144 0.0
H270 H 0.60301 0.01758 0.11084 0.0
H271 H 0.62885 0.02722 0.64935 0.0
H272 H 0.6291 0.06835 0.63661 0.0
H273 H 0.6384 0.06423 0.17215 0.0
C274 C 0.63804 0.97427 0.19079 0.0
C275 C 0.63634 0.9559 0.28437 0.0
C276 C 0.63359 0.95973 0.43465 0.0
C277 C 0.63243 0.98153 0.49004 0.0
C278 C 0.63409 0.99927 0.3937 0.0
C279 C 0.63691 0.99569 0.24713 0.0
C280 C 0.63845 0.01716 0.16447 0.0
C281 C 0.66114 0.01936 0.08904 0.0
C282 C 0.61933 0.01929 0.05555 0.0
C283 C 0.63605 0.03359 0.28686 0.0
C284 C 0.63348 0.02317 0.41872 0.0
C285 C 0.63088 0.03542 0.5463 0.0
C286 C 0.63101 0.05878 0.53819 0.0
C287 C 0.63384 0.06959 0.40355 0.0
C288 C 0.6363 0.05663 0.27717 0.0
H289 H 0.06162 0.39232 0.62003 0.0
H290 H 0.06416 0.37939 0.15849 0.0
H291 H 0.0231 0.37814 0.15246 0.0
H292 H 0.01701 0.35616 0.70005 0.0
H293 H 1.00492 0.37402 0.83548 0.0
H294 H 0.0343 0.37496 0.80101 0.0
H295 H 0.03171 0.41706 0.75169 0.0
H296 H 1.0023 0.41626 0.78645 0.0
H297 H 1.01256 0.42711 0.61771 0.0
H298 H 0.98118 0.37707 0.20115 0.0
H299 H 0.94288 0.37639 0.29914 0.0
H300 H 0.96862 0.38983 0.72814 0.0
C301 C 0.05363 0.3894 0.5171 0.0
C302 C 0.06623 0.386 0.38953 0.0
C303 C 0.05494 0.38209 0.25768 0.0
C304 C 0.03159 0.38134 0.25325 0.0
C305 C 0.01973 0.38454 0.38158 0.0
C306 C 0.03043 0.38854 0.51092 0.0
C307 C 0.01405 0.39092 0.63457 0.0
C308 C 0.0178 0.37294 0.74948 0.0
C309 C 0.01523 0.41422 0.70148 0.0
C310 C 0.9924 0.38741 0.55523 0.0
C311 C 0.99592 0.38385 0.40931 0.0
C312 C 0.97828 0.37992 0.31522 0.0
C313 C 0.95656 0.37956 0.37189 0.0
C314 C 0.95263 0.38306 0.52144 0.0
C315 C 0.97092 0.38712 0.6133 0.0
H316 H 0.40985 0.47399 0.20179 0.0
H317 H 0.37597 0.44989 0.81956 0.0
H318 H 0.37632 0.48796 0.71855 0.0
H319 H 0.38058 0.52341 0.23644 0.0
H320 H 0.40405 0.53916 0.29921 0.0
H321 H 0.4028 0.50987 0.33155 0.0
H322 H 0.44092 0.50482 0.20449 0.0
H323 H 0.44225 0.53416 0.17134 0.0
H324 H 0.44474 0.51491 0.02293 0.0
H325 H 0.37865 0.53017 0.66902 0.0
H326 H 0.38116 0.57119 0.68262 0.0
H327 H 0.41327 0.56576 0.09971 0.0
C328 C 0.40269 0.47653 0.09594 0.0
C329 C 0.3929 0.45892 0.01852 0.0
C330 C 0.38363 0.46313 0.88072 0.0
C331 C 0.3838 0.48469 0.82248 0.0
C332 C 0.39342 0.50174 0.90321 0.0
C333 C 0.4027 0.49774 0.03705 0.0
C334 C 0.41089 0.51875 0.10754 0.0
C335 C 0.39885 0.52304 0.25212 0.0
C336 C 0.4362 0.51812 0.12769 0.0
C337 C 0.40434 0.53544 0.99438 0.0
C338 C 0.39453 0.52548 0.87604 0.0
C339 C 0.38645 0.53804 0.76093 0.0
C340 C 0.38801 0.56131 0.76916 0.0
C341 C 0.39736 0.57166 0.89232 0.0
C342 C 0.406 0.5584 0.00407 0.0
H343 H 0.47157 0.66738 0.8697 0.0
H344 H 0.44628 0.63176 0.24134 0.0
H345 H 0.48476 0.62753 0.33289 0.0
H346 H 0.51733 0.63448 0.80737 0.0
H347 H 0.53535 0.65674 0.75249 0.0
H348 H 0.50588 0.65919 0.72812 0.0
H349 H 0.50561 0.6957 0.87642 0.0
H350 H 0.53518 0.6935 0.90006 0.0
H351 H 0.51726 0.69607 0.05561 0.0
H352 H 0.5272 0.62357 0.36511 0.0
H353 H 0.56826 0.62232 0.3416 0.0
H354 H 0.5639 0.66123 0.94931 0.0
C355 C 0.47402 0.65906 0.97195 0.0
C356 C 0.456 0.6499 0.04857 0.0
C357 C 0.4599 0.63908 0.18171 0.0
C358 C 0.48169 0.63654 0.23401 0.0
C359 C 0.49922 0.64519 0.15262 0.0
C360 C 0.49545 0.65652 0.02539 0.0
C361 C 0.51683 0.66329 0.95275 0.0
C362 C 0.51896 0.65279 0.80133 0.0
C363 C 0.51884 0.68865 0.9459 0.0
C364 C 0.53338 0.65355 0.05664 0.0
C365 C 0.5231 0.6432 0.17184 0.0
C366 C 0.53537 0.63192 0.27634 0.0
C367 C 0.55865 0.63123 0.262 0.0
C368 C 0.56932 0.64176 0.14409 0.0
C369 C 0.55638 0.65318 0.04169 0.0
H370 H 0.67 0.47098 0.91247 0.0
H371 H 0.6128 0.45243 0.65632 0.0
H372 H 0.60469 0.49214 0.61409 0.0
H373 H 0.6457 0.51447 0.09267 0.0
H374 H 0.66997 0.53188 0.0957 0.0
H375 H 0.67302 0.50231 0.0864 0.0
H376 H 0.6967 0.50614 0.85347 0.0
H377 H 0.69377 0.53581 0.8623 0.0
H378 H 0.68572 0.52107 0.70116 0.0
H379 H 0.59987 0.53403 0.6323 0.0
H380 H 0.59939 0.5736 0.70215 0.0
H381 H 0.66052 0.56438 0.94012 0.0
C382 C 0.65605 0.47519 0.84441 0.0
C383 C 0.64206 0.45854 0.78731 0.0
C384 C 0.62388 0.46485 0.69999 0.0
C385 C 0.61915 0.48739 0.67572 0.0
C386 C 0.63294 0.50339 0.73766 0.0
C387 C 0.65121 0.4975 0.81865 0.0
C388 C 0.66252 0.51764 0.88288 0.0
C389 C 0.6628 0.5165 0.04919 0.0
C390 C 0.68608 0.52032 0.82122 0.0
C391 C 0.64733 0.53585 0.83006 0.0
C392 C 0.63045 0.52738 0.74541 0.0
C393 C 0.61328 0.54084 0.69578 0.0
C394 C 0.61314 0.56333 0.7361 0.0
C395 C 0.63008 0.57222 0.82491 0.0
C396 C 0.64765 0.5583 0.86902 0.0
H397 H 0.46208 0.38228 0.93135 0.0
H398 H 0.45727 0.39481 0.3923 0.0
H399 H 0.49851 0.39577 0.40641 0.0
H400 H 0.50985 0.34693 0.94134 0.0
H401 H 0.52075 0.3576 0.77385 0.0
H402 H 0.49127 0.35737 0.80528 0.0
H403 H 0.48962 0.39957 0.75621 0.0
H404 H 0.51908 0.39994 0.72496 0.0
H405 H 0.50701 0.418 0.85931 0.0
H406 H 0.54169 0.39596 0.36122 0.0
H407 H 0.58025 0.39543 0.26361 0.0
H408 H 0.55412 0.38307 0.83468 0.0
C409 C 0.46952 0.38517 0.03607 0.0
C410 C 0.45635 0.38848 0.16081 0.0
C411 C 0.467 0.39219 0.29514 0.0
C412 C 0.49042 0.39277 0.30394 0.0
C413 C 0.50287 0.3896 0.17749 0.0
C414 C 0.49258 0.38582 0.0464 0.0
C415 C 0.50912 0.38316 0.92474 0.0
C416 C 0.50766 0.35988 0.85743 0.0
C417 C 0.50602 0.40125 0.80963 0.0
C418 C 0.53051 0.38622 0.00652 0.0
C419 C 0.52685 0.38982 0.15229 0.0
C420 C 0.5446 0.39312 0.24715 0.0
C421 C 0.56645 0.3928 0.19096 0.0
C422 C 0.5703 0.38928 0.04135 0.0
C423 C 0.55194 0.38589 0.9495 0.0
H424 H 0.91385 0.46184 0.69476 0.0
H425 H 0.8892 0.45233 0.13082 0.0
H426 H 0.88595 0.49321 0.16011 0.0
H427 H 0.945 0.51292 0.76039 0.0
H428 H 0.93759 0.52385 0.586 0.0
H429 H 0.94031 0.4944 0.61041 0.0
H430 H 0.90036 0.48887 0.51363 0.0
H431 H 0.89745 0.51823 0.48993 0.0
H432 H 0.87768 0.50337 0.59923 0.0
H433 H 0.88187 0.53617 0.1253 0.0
H434 H 0.87821 0.5747 0.03319 0.0
H435 H 0.90572 0.55348 0.6218 0.0
C436 C 0.90809 0.46825 0.79773 0.0
C437 C 0.90174 0.45391 0.91044 0.0
C438 C 0.89431 0.46306 0.04328 0.0
C439 C 0.89236 0.48625 0.06046 0.0
C440 C 0.89813 0.49991 0.94427 0.0
C441 C 0.90608 0.49105 0.81616 0.0
C442 C 0.90997 0.50858 0.70325 0.0
C443 C 0.93469 0.51002 0.66272 0.0
C444 C 0.8955 0.50451 0.56872 0.0
C445 C 0.90249 0.52883 0.78564 0.0
C446 C 0.89585 0.52381 0.92491 0.0
C447 C 0.88728 0.54019 0.01687 0.0
C448 C 0.88527 0.56203 0.96394 0.0
C449 C 0.89162 0.56712 0.82021 0.0
C450 C 0.90065 0.55025 0.73217 0.0
H451 H 0.55205 0.11094 0.29527 0.0
H452 H 0.58322 0.16296 0.04438 0.0
H453 H 0.54801 0.16852 0.91131 0.0
H454 H 0.51615 0.08886 0.00435 0.0
H455 H 0.49374 0.08353 0.12895 0.0
H456 H 0.52208 0.08197 0.18972 0.0
H457 H 0.51335 0.11042 0.39239 0.0
H458 H 0.48509 0.1121 0.33229 0.0
H459 H 0.50161 0.13688 0.34521 0.0
H460 H 0.50767 0.1715 0.82991 0.0
H461 H 0.46681 0.1711 0.80433 0.0
H462 H 0.46291 0.11625 0.10471 0.0
C463 C 0.55169 0.12323 0.21033 0.0
C464 C 0.57044 0.13652 0.18019 0.0
C465 C 0.56914 0.15248 0.06872 0.0
C466 C 0.54919 0.15574 0.9927 0.0
C467 C 0.53082 0.14269 0.02812 0.0
C468 C 0.53205 0.12658 0.13343 0.0
C469 C 0.50974 0.11573 0.15899 0.0
C470 C 0.51048 0.09106 0.118 0.0
C471 C 0.502 0.11899 0.31648 0.0
C472 C 0.49548 0.12869 0.05491 0.0
C473 C 0.5079 0.14408 0.97944 0.0
C474 C 0.4979 0.15921 0.88639 0.0
C475 C 0.47467 0.15887 0.87256 0.0
C476 C 0.46164 0.14347 0.95099 0.0
C477 C 0.47237 0.12789 0.04047 0.0
H478 H 0.12026 0.5626 0.65946 0.0
H479 H 0.13732 0.56624 0.11386 0.0
H480 H 0.13836 0.52507 0.12364 0.0
H481 H 0.08495 0.5145 0.68214 0.0
H482 H 0.09398 0.50415 0.50871 0.0
H483 H 0.09379 0.53349 0.54348 0.0
H484 H 0.13544 0.5356 0.4739 0.0
H485 H 0.13579 0.50629 0.43963 0.0
H486 H 0.15511 0.5182 0.5661 0.0
H487 H 0.1395 0.48224 0.07239 0.0
H488 H 0.13901 0.44405 0.97026 0.0
H489 H 0.12061 0.47095 0.5533 0.0
C490 C 0.12411 0.55487 0.76182 0.0
C491 C 0.1288 0.56769 0.88581 0.0
C492 C 0.13361 0.55675 0.01743 0.0
C493 C 0.1343 0.53338 0.02368 0.0
C494 C 0.12995 0.52127 0.89768 0.0
C495 C 0.12476 0.53184 0.76979 0.0
C496 C 0.12098 0.51561 0.64804 0.0
C497 C 0.097 0.51702 0.59241 0.0
C498 C 0.13784 0.51914 0.52475 0.0
C499 C 0.12511 0.49409 0.72588 0.0
C500 C 0.13027 0.49743 0.86975 0.0
C501 C 0.1353 0.47957 0.96005 0.0
C502 C 0.13502 0.45793 0.90128 0.0
C503 C 0.12969 0.4544 0.75385 0.0
C504 C 0.12462 0.47287 0.66663 0.0
H505 H 0.46171 0.86702 0.19667 0.0
H506 H 0.45346 0.9273 0.94897 0.0
H507 H 0.49319 0.92602 0.88081 0.0
H508 H 0.51135 0.88167 0.34892 0.0
H509 H 0.52317 0.85426 0.34813 0.0
H510 H 0.49358 0.85769 0.35463 0.0
H511 H 0.48947 0.83329 0.12536 0.0
H512 H 0.51914 0.82968 0.11842 0.0
H513 H 0.50461 0.84037 0.96362 0.0
H514 H 0.53505 0.92032 0.86384 0.0
H515 H 0.57463 0.91169 0.90883 0.0
H516 H 0.55487 0.85595 0.17395 0.0
C517 C 0.46804 0.87961 0.12436 0.0
C518 C 0.45438 0.89715 0.07695 0.0
C519 C 0.46355 0.91361 0.98577 0.0
C520 C 0.4861 0.91298 0.9462 0.0
C521 C 0.49927 0.89579 -0.00132 0.0
C522 C 0.49048 0.87937 0.08559 0.0
C523 C 0.50839 0.86412 0.14168 0.0
C524 C 0.50916 0.86448 0.30812 0.0
C525 C 0.50521 0.84046 0.08375 0.0
C526 C 0.52874 0.87485 0.07648 0.0
C527 C 0.52322 0.89285 0.99205 0.0
C528 C 0.53951 0.90607 0.92812 0.0
C529 C 0.56196 0.90103 0.95395 0.0
C530 C 0.56785 0.88314 0.04468 0.0
C531 C 0.55094 0.86968 0.10345 0.0
H532 H 0.8821 0.97396 0.77542 0.0
H533 H 0.88916 0.94705 0.3424 0.0
H534 H 0.88931 0.98529 0.24361 0.0
H535 H 0.84576 0.01898 0.68473 0.0
H536 H 0.85819 0.03741 0.81477 0.0
H537 H 0.85809 1.00804 0.84679 0.0
H538 H 0.90084 1.00857 0.8751 0.0
H539 H 0.9011 0.03791 0.8428 0.0
H540 H 0.91778 0.01977 0.73195 0.0
H541 H 0.88987 0.02779 0.19668 0.0
H542 H 0.89004 0.06892 0.20761 0.0
H543 H 0.88235 0.06582 0.67361 0.0
C544 C 0.88361 0.97595 0.65951 0.0
C545 C 0.88566 0.95748 0.56664 0.0
C546 C 0.88752 0.96098 0.41565 0.0
C547 C 0.88765 0.98263 0.35877 0.0
C548 C 0.8858 1.00051 0.45444 0.0
C549 C 0.8837 0.99723 0.60168 0.0
C550 C 0.88217 0.01883 0.68348 0.0
C551 C 0.85972 0.02093 0.76199 0.0
C552 C 0.90164 0.02141 0.78949 0.0
C553 C 0.88393 0.03497 0.55985 0.0
C554 C 0.88598 0.02429 0.4281 0.0
C555 C 0.88818 0.03622 0.29954 0.0
C556 C 0.88828 0.05957 0.30664 0.0
C557 C 0.88618 0.07064 0.44135 0.0
C558 C 0.88393 0.05799 0.5686 0.0
H559 H 0.97446 0.15811 0.34884 0.0
H560 H 0.94926 0.13406 0.75882 0.0
H561 H 0.98794 0.13102 0.84957 0.0
H562 H 0.02011 0.1228 0.32255 0.0
H563 H 0.03804 0.14313 0.241 0.0
H564 H 1.00853 0.14487 0.21588 0.0
H565 H 1.00856 0.18491 0.31787 0.0
H566 H 0.03814 0.18334 0.34251 0.0
H567 H 0.02039 0.19026 0.49323 0.0
H568 H 0.03084 0.12809 0.88491 0.0
H569 H 0.07199 0.12705 0.86281 0.0
H570 H 0.06683 0.1536 0.429 0.0
C571 C 0.97694 0.15241 0.45848 0.0
C572 C 0.95883 0.14628 0.54663 0.0
C573 C 0.96291 0.13896 0.68954 0.0
C574 C 0.98482 0.13712 0.74167 0.0
C575 C 1.00237 0.14288 0.64989 0.0
C576 C 0.99848 0.15059 0.51169 0.0
C577 C 0.0198 0.15517 0.43123 0.0
C578 C 0.02172 0.14062 0.2947 0.0
C579 C 0.02184 0.17989 0.39411 0.0
C580 C 0.03648 0.14846 0.54423 0.0
C581 C 0.02634 0.14145 0.67022 0.0
C582 C 0.03886 0.13374 0.78688 0.0
C583 C 0.06221 0.13317 0.77349 0.0
C584 C 0.07272 0.14029 0.64445 0.0
C585 C 0.05949 0.14814 0.52975 0.0
H586 H 0.16699 0.96622 0.48069 0.0
H587 H 0.11973 0.95135 0.14148 0.0
H588 H 0.11432 0.99158 0.10132 0.0
H589 H 0.1381 1.01038 0.63285 0.0
H590 H 0.16239 0.02645 0.67596 0.0
H591 H 0.16423 0.99678 0.66569 0.0
H592 H 0.19579 0.99997 0.47587 0.0
H593 H 0.19409 0.02972 0.4859 0.0
H594 H 0.19133 0.01588 0.31401 0.0
H595 H 0.11148 0.03381 0.11736 0.0
H596 H 0.1118 0.07347 0.18459 0.0
H597 H 0.16139 0.05998 0.51158 0.0
C598 C 0.15575 0.97133 0.39602 0.0
C599 C 0.14381 0.95556 0.31391 0.0
C600 C 0.12918 0.96308 0.20506 0.0
C601 C 0.126 0.98591 0.18169 0.0
C602 C 0.13772 1.00099 0.26717 0.0
C603 C 0.15245 0.99392 0.37138 0.0
C604 C 0.16212 0.01321 0.45496 0.0
C605 C 0.15636 1.0116 0.61688 0.0
C606 C 0.18733 0.01478 0.4312 0.0
C607 C 0.15016 0.03234 0.38421 0.0
C608 C 0.13626 0.02504 0.27544 0.0
C609 C 0.12255 0.03967 0.20097 0.0
C610 C 0.12283 0.0622 0.24008 0.0
C611 C 0.13674 0.06995 0.35274 0.0
C612 C 0.15082 0.05475 0.4235 0.0
H613 H 0.96525 0.90741 0.48065 0.0
H614 H 0.96121 0.88206 0.91788 0.0
H615 H 1.00245 0.88157 0.93023 0.0
H616 H 1.00912 0.87479 0.36449 0.0
H617 H 0.02142 0.89593 0.25304 0.0
H618 H 0.99207 0.89624 0.28751 0.0
H619 H 0.99497 0.93628 0.38766 0.0
H620 H 0.02439 0.93612 0.35301 0.0
H621 H 0.0141 0.94225 0.53189 0.0
H622 H 0.04521 0.88091 0.87955 0.0
H623 H 0.08329 0.88065 0.77429 0.0
H624 H 0.05695 0.90688 0.37417 0.0
C625 C 0.97292 0.90197 0.58012 0.0
C626 C 0.96001 0.8947 0.69815 0.0
C627 C 0.9708 0.88779 0.8262 0.0
C628 C 0.9942 0.88744 0.8339 0.0
C629 C 1.00644 0.89427 0.71321 0.0
C630 C 0.99598 0.9016 0.58945 0.0
C631 C 1.01233 0.90715 0.47123 0.0
C632 C 1.0085 0.89266 0.33624 0.0
C633 C 1.01139 0.93192 0.43384 0.0
C634 C 0.03376 0.9013 0.54553 0.0
C635 C 0.03031 0.89405 0.68538 0.0
C636 C 0.04801 0.88681 0.77067 0.0
C637 C 0.06958 0.88674 0.71031 0.0
C638 C 0.07313 0.89373 0.56598 0.0
C639 C 0.05493 0.90142 0.48482 0.0
H640 H 0.39304 0.30607 0.31089 0.0
H641 H 0.3746 0.32632 0.87753 0.0
H642 H 0.37114 0.287 0.80622 0.0
H643 H 0.42582 0.25892 0.20488 0.0
H644 H 0.41715 0.24224 0.35606 0.0
H645 H 0.41801 0.27193 0.37319 0.0
H646 H 0.37674 0.27217 0.45179 0.0
H647 H 0.37571 0.24249 0.43434 0.0
H648 H 0.35626 0.25945 0.33683 0.0
H649 H 0.36941 0.24586 0.78285 0.0
H650 H 0.37071 0.20539 0.80363 0.0
H651 H 0.39074 0.21139 0.25279 0.0
C652 C 0.38827 0.30228 0.20082 0.0
C653 C 0.38404 0.31931 0.09962 0.0
C654 C 0.37792 0.31359 0.95676 0.0
C655 C 0.37587 0.29131 0.91547 0.0
C656 C 0.38002 0.27499 0.01827 0.0
C657 C 0.38619 0.28016 0.15782 0.0
C658 C 0.38998 0.25943 0.24681 0.0
C659 C 0.41418 0.25805 0.29821 0.0
C660 C 0.3737 0.25833 0.37499 0.0
C661 C 0.38497 0.24172 0.13527 0.0
C662 C 0.37919 0.25113 0.00452 0.0
C663 C 0.37391 0.23831 0.88458 0.0
C664 C 0.37471 0.21527 0.89787 0.0
C665 C 0.38085 0.20511 0.03003 0.0
C666 C 0.38593 0.21861 0.15057 0.0
H667 H 0.21243 0.6869 0.8669 0.0
H668 H 0.20056 0.61638 0.81983 0.0
H669 H 0.2405 0.60916 0.85339 0.0
H670 H 0.26578 0.68695 0.67382 0.0
H671 H 0.27744 0.70787 0.79022 0.0
H672 H 0.24801 0.70735 0.75738 0.0
H673 H 0.24091 0.70576 0.0336 0.0
H674 H 0.27032 0.70579 0.06718 0.0
H675 H 0.25325 0.68385 0.13812 0.0
H676 H 0.28108 0.60936 0.91433 0.0
H677 H 0.32073 0.61728 0.95476 0.0
H678 H 0.30668 0.68777 0.94864 0.0
C679 C 0.2183 0.66997 0.86124 0.0
C680 C 0.20337 0.65221 0.84096 0.0
C681 C 0.21168 0.63028 0.83417 0.0
C682 C 0.23433 0.62598 0.85442 0.0
C683 C 0.24847 0.64381 0.87909 0.0
C684 C 0.2409 0.66541 0.87894 0.0
C685 C 0.25968 0.68159 0.905 0.0
C686 C 0.26292 0.69683 0.77377 0.0
C687 C 0.25579 0.69503 0.04426 0.0
C688 C 0.27894 0.66569 0.92161 0.0
C689 C 0.27205 0.64397 0.90831 0.0
C690 C 0.28672 0.62631 0.92337 0.0
C691 C 0.30919 0.63098 0.94768 0.0
C692 C 0.31681 0.65315 0.95461 0.0
C693 C 0.30136 0.67067 0.94363 0.0
H694 H 0.63407 0.80188 0.96272 0.0
H695 H 0.64674 0.81978 0.40983 0.0
H696 H 0.65183 0.78022 0.46912 0.0
H697 H 0.60319 0.75225 0.03752 0.0
H698 H 0.61436 0.73721 0.88518 0.0
H699 H 0.61196 0.7669 0.87774 0.0
H700 H 0.65385 0.76986 0.81829 0.0
H701 H 0.65641 0.74018 0.82646 0.0
H702 H 0.67379 0.75741 0.93805 0.0
H703 H 0.65538 0.73898 0.4801 0.0
H704 H 0.65579 0.69861 0.44648 0.0
H705 H 0.64083 0.70692 0.99098 0.0
C706 C 0.63792 0.79753 0.07329 0.0
C707 C 0.64003 0.81401 0.18183 0.0
C708 C 0.64501 0.80752 0.32499 0.0
C709 C 0.648 0.78508 0.3595 0.0
C710 C 0.64596 0.76932 0.24968 0.0
C711 C 0.64094 0.77522 0.10957 0.0
C712 C 0.63929 0.75495 0.01235 0.0
C713 C 0.6158 0.7527 0.94955 0.0
C714 C 0.65689 0.75565 0.89168 0.0
C715 C 0.64416 0.73668 0.11989 0.0
C716 C 0.648 0.74542 0.25594 0.0
C717 C 0.65243 0.73197 0.37409 0.0
C718 C 0.65261 0.709 0.35357 0.0
C719 C 0.64837 0.6995 0.21591 0.0
C720 C 0.64435 0.71363 0.09711 0.0
H721 H 0.72065 0.34301 0.91577 0.0
H722 H 0.70835 0.41373 0.93321 0.0
H723 H 0.74835 0.42076 0.89429 0.0
H724 H 0.77356 0.34501 0.10745 0.0
H725 H 0.78546 0.32296 0.00079 0.0
H726 H 0.75597 0.32381 0.03228 0.0
H727 H 0.74936 0.32262 0.75572 0.0
H728 H 0.77884 0.3222 0.72333 0.0
H729 H 0.76192 0.34338 0.64232 0.0
H730 H 0.7896 0.41991 0.83494 0.0
H731 H 0.82944 0.41138 0.80077 0.0
H732 H 0.81494 0.34126 0.8358 0.0
C733 C 0.72641 0.35998 0.91332 0.0
C734 C 0.71135 0.37782 0.92756 0.0
C735 C 0.71957 0.39979 0.92392 0.0
C736 C 0.74226 0.40394 0.90048 0.0
C737 C 0.75657 0.38596 0.88299 0.0
C738 C 0.74903 0.36441 0.89252 0.0
C739 C 0.7679 0.34802 0.87419 0.0
C740 C 0.7709 0.33414 0.01188 0.0
C741 C 0.76428 0.33318 0.74096 0.0
C742 C 0.78722 0.36368 0.85136 0.0
C743 C 0.78032 0.3855 0.85474 0.0
C744 C 0.79519 0.40289 0.83332 0.0
C745 C 0.81777 0.39787 0.81261 0.0
C746 C 0.82533 0.37566 0.81549 0.0
C747 C 0.8097 0.35841 0.83302 0.0
H748 H 0.8858 0.70923 0.81246 0.0
H749 H 0.85761 0.70387 0.38239 0.0
H750 H 0.85954 0.74429 0.35532 0.0
H751 H 0.8579 0.76111 0.91175 0.0
H752 H 0.88156 0.7717 0.00834 0.0
H753 H 0.87695 0.74229 0.99747 0.0
H754 H 0.91636 0.73707 0.8899 0.0
H755 H 0.921 0.76648 0.8992 0.0
H756 H 0.92415 0.75208 0.72943 0.0
H757 H 0.86567 0.78515 0.3692 0.0
H758 H 0.87452 0.82407 0.42875 0.0
H759 H 0.89903 0.80325 0.84785 0.0
C760 C 0.87972 0.71661 0.71368 0.0
C761 C 0.87152 0.70332 0.59978 0.0
C762 C 0.86399 0.71363 0.47136 0.0
C763 C 0.865 0.73663 0.45467 0.0
C764 C 0.87355 0.74923 0.56743 0.0
C765 C 0.88065 0.73967 0.69489 0.0
C766 C 0.88961 0.75709 0.79757 0.0
C767 C 0.87567 0.75811 0.93701 0.0
C768 C 0.91425 0.75293 0.83092 0.0
C769 C 0.88657 0.77779 0.7072 0.0
C770 C 0.87723 0.77288 0.57497 0.0
C771 C 0.87292 0.78924 0.47273 0.0
C772 C 0.87806 0.81129 0.50728 0.0
C773 C 0.88751 0.81675 0.64266 0.0
C774 C 0.8919 0.79967 0.74313 0.0
H775 H 0.80492 0.14295 0.24148 0.0
H776 H 0.82358 0.15444 0.68842 0.0
H777 H 0.78393 0.15759 0.75494 0.0
H778 H 0.75795 0.1806 0.23451 0.0
H779 H 0.7415 0.16278 0.1209 0.0
H780 H 0.77132 0.1622 0.10742 0.0
H781 H 0.77113 0.12001 0.15517 0.0
H782 H 0.74134 0.12043 0.16871 0.0
H783 H 0.75764 0.10948 0.31502 0.0
H784 H 0.7425 0.1583 0.77392 0.0
H785 H 0.702 0.15626 0.74692 0.0
H786 H 0.70986 0.14431 0.28636 0.0
C787 C 0.80073 0.14627 0.35337 0.0
C788 C 0.81742 0.14849 0.45992 0.0
C789 C 0.81114 0.15271 0.60499 0.0
C790 C 0.78866 0.15456 0.64366 0.0
C791 C 0.77267 0.15219 0.53594 0.0
C792 C 0.7784 0.14816 0.39372 0.0
C793 C 0.75795 0.14571 0.29953 0.0
C794 C 0.75714 0.16391 0.18378 0.0
C795 C 0.75696 0.12253 0.2306 0.0
C796 C 0.73976 0.14882 0.41138 0.0
C797 C 0.74868 0.15261 0.54681 0.0
C798 C 0.73534 0.15545 0.66835 0.0
C799 C 0.71229 0.15422 0.65162 0.0
C800 C 0.70265 0.15014 0.51433 0.0
C801 C 0.71666 0.1476 0.39242 0.0
H802 H 0.13772 0.31001 0.74839 0.0
H803 H 0.14959 0.31719 0.28744 0.0
H804 H 0.15304 0.2769 0.26235 0.0
H805 H 0.17586 0.2637 0.80231 0.0
H806 H 0.15802 0.24991 0.93023 0.0
H807 H 0.15722 0.27961 0.9146 0.0
H808 H 0.11496 0.27792 0.86667 0.0
H809 H 0.11566 0.24822 0.88178 0.0
H810 H 0.10467 0.26091 0.72113 0.0
H811 H 0.1541 0.23569 0.28261 0.0
H812 H 0.15302 0.19614 0.35076 0.0
H813 H 0.14058 0.21509 0.79697 0.0
C814 C 0.14124 0.3031 0.64267 0.0
C815 C 0.14336 0.3169 0.52013 0.0
C816 C 0.14781 0.3071 0.38333 0.0
C817 C 0.14986 0.28415 0.36757 0.0
C818 C 0.14746 0.27099 0.48954 0.0
C819 C 0.14331 0.28003 0.62465 0.0
C820 C 0.14096 0.26193 0.73707 0.0
C821 C 0.1591 0.26391 0.85286 0.0
C822 C 0.11768 0.26227 0.80565 0.0
C823 C 0.14433 0.24147 0.64354 0.0
C824 C 0.14809 0.24708 0.50116 0.0
C825 C 0.15128 0.23105 0.39406 0.0
C826 C 0.15062 0.20862 0.43361 0.0
C827 C 0.14678 0.20244 0.57898 0.0
C828 C 0.14364 0.21919 0.68482 0.0
H829 H 0.21596 0.88363 0.52358 0.0
H830 H 0.20702 0.87045 0.06556 0.0
H831 H 0.24742 0.86951 0.03135 0.0
H832 H 0.26285 0.91944 0.48382 0.0
H833 H 0.27698 0.90947 0.64223 0.0
H834 H 0.24716 0.90842 0.63346 0.0
H835 H 0.24817 0.86629 0.68395 0.0
H836 H 0.27799 0.86724 0.69334 0.0
H837 H 0.26463 0.84848 0.56935 0.0
H838 H 0.28875 0.87113 0.04264 0.0
H839 H 0.32855 0.87444 0.10244 0.0
H840 H 0.31113 0.88624 0.55208 0.0
C841 C 0.22252 0.88037 0.41653 0.0
C842 C 0.20823 0.87712 0.29749 0.0
C843 C 0.21753 0.87302 0.1588 0.0
C844 C 0.24052 0.87243 0.1379 0.0
C845 C 0.25414 0.87589 0.2567 0.0
C846 C 0.24557 0.87969 0.39349 0.0
C847 C 0.26404 0.88325 0.50193 0.0
C848 C 0.26267 0.90653 0.56927 0.0
C849 C 0.26368 0.86524 0.61902 0.0
C850 C 0.28421 0.88095 0.40428 0.0
C851 C 0.27811 0.87671 0.26327 0.0
C852 C 0.29378 0.87433 0.15293 0.0
C853 C 0.31634 0.87627 0.18778 0.0
C854 C 0.323 0.88054 0.33175 0.0
C855 C 0.30663 0.88288 0.44096 0.0
H856 H 0.21749 0.08813 0.91378 0.0
H857 H 0.20901 0.15436 0.74242 0.0
H858 H 0.24919 0.16108 0.76742 0.0
H859 H 0.25885 0.10431 0.1835 0.0
H860 H 0.27411 0.07876 0.16643 0.0
H861 H 0.2447 0.07918 0.13305 0.0
H862 H 0.25162 0.06217 0.87942 0.0
H863 H 0.2811 0.06211 0.911 0.0
H864 H 0.27001 0.076 0.75495 0.0
H865 H 0.29078 0.15956 0.79252 0.0
H866 H 0.32976 0.15282 0.86272 0.0
H867 H 0.311 0.08907 0.03927 0.0
C868 C 0.22409 0.10412 0.8833 0.0
C869 C 0.21012 0.12071 0.82605 0.0
C870 C 0.21934 0.14147 0.78776 0.0
C871 C 0.2422 0.14537 0.80014 0.0
C872 C 0.25561 0.12852 0.85375 0.0
C873 C 0.24684 0.10853 0.89865 0.0
C874 C 0.2648 0.09367 0.95974 0.0
C875 C 0.26035 0.08869 0.12021 0.0
C876 C 0.267 0.07222 0.87094 0.0
C877 C 0.28502 0.10834 0.94065 0.0
C878 C 0.27941 0.12818 0.8765 0.0
C879 C 0.29534 0.14417 0.84412 0.0
C880 C 0.31748 0.14012 0.88299 0.0
C881 C 0.32338 0.12043 0.95609 0.0
C882 C 0.30694 0.10425 0.98329 0.0
H883 H 0.12786 0.81737 0.11333 0.0
H884 H 0.12585 0.80381 0.57411 0.0
H885 H 0.12281 0.764 0.5238 0.0
H886 H 0.08867 0.77378 0.0071 0.0
H887 H 0.10364 0.76698 0.8438 0.0
H888 H 0.10458 0.79475 0.9151 0.0
H889 H 0.14748 0.7929 0.91966 0.0
H890 H 0.1466 0.76513 0.84883 0.0
H891 H 0.16096 0.77073 0.01556 0.0
H892 H 0.12205 0.72534 0.42618 0.0
H893 H 0.12253 0.69052 0.28497 0.0
H894 H 0.12438 0.72858 0.8877 0.0
C895 C 0.12651 0.80603 0.20337 0.0
C896 C 0.1271 0.81385 0.34769 0.0
C897 C 0.12548 0.79838 0.46248 0.0
C898 C 0.12371 0.77563 0.4352 0.0
C899 C 0.12349 0.76844 0.29231 0.0
C900 C 0.12471 0.78312 0.17803 0.0
C901 C 0.12468 0.77081 0.03472 0.0
C902 C 0.10417 0.77694 0.94493 0.0
C903 C 0.14622 0.77515 0.94976 0.0
C904 C 0.12349 0.74701 0.08689 0.0
C905 C 0.1228 0.74603 0.23585 0.0
C906 C 0.12239 0.72588 0.30928 0.0
C907 C 0.12271 0.70617 0.22827 0.0
C908 C 0.12337 0.70674 0.07537 0.0
C909 C 0.12365 0.72752 0.00443 0.0
H910 H 0.71965 0.8492 0.03988 0.0
H911 H 0.70357 0.91861 0.98288 0.0
H912 H 0.74324 0.92667 0.93461 0.0
H913 H 0.77086 0.85617 0.21868 0.0
H914 H 0.78441 0.83329 0.12921 0.0
H915 H 0.7548 0.83295 0.15525 0.0
H916 H 0.74888 0.82754 0.87998 0.0
H917 H 0.77848 0.82742 0.85345 0.0
H918 H 0.76144 0.84669 0.75512 0.0
H919 H 0.78543 0.92714 0.90832 0.0
H920 H 0.82534 0.91933 0.87047 0.0
H921 H 0.81292 0.84934 0.93645 0.0
C922 C 0.72442 0.86608 0.01574 0.0
C923 C 0.70858 0.88331 0.01535 0.0
C924 C 0.71544 0.90515 0.98257 0.0
C925 C 0.73795 0.90989 0.95632 0.0
C926 C 0.75325 0.89255 0.96145 0.0
C927 C 0.74666 0.87101 0.98743 0.0
C928 C 0.76617 0.85523 0.98368 0.0
C929 C 0.76923 0.84374 0.13046 0.0
C930 C 0.76359 0.83822 0.86073 0.0
C931 C 0.78487 0.87123 0.95321 0.0
C932 C 0.77719 0.89273 0.94218 0.0
C933 C 0.79157 0.91035 0.91583 0.0
C934 C 0.81425 0.90577 0.89574 0.0
C935 C 0.82227 0.88372 0.90056 0.0
C936 C 0.80734 0.86637 0.93216 0.0
H937 H 0.89055 0.23097 0.40191 0.0
H938 H 0.9022 0.1897 0.02395 0.0
H939 H 0.90768 0.22329 0.87621 0.0
H940 H 0.85997 0.27342 0.22083 0.0
H941 H 0.87151 0.29568 0.32668 0.0
H942 H 0.86906 0.26842 0.40334 0.0
H943 H 0.91105 0.26841 0.4606 0.0
H944 H 0.91368 0.29564 0.38373 0.0
H945 H 0.93077 0.2733 0.31725 0.0
H946 H 0.91142 0.2611 0.76961 0.0
H947 H 0.91226 0.30061 0.70759 0.0
H948 H 0.89799 0.31775 0.15481 0.0
C949 C 0.89431 0.22894 0.28809 0.0
C950 C 0.89597 0.20765 0.22442 0.0
C951 C 0.90083 0.20579 0.07506 0.0
C952 C 0.90403 0.22478 0.99043 0.0
C953 C 0.9023 0.24549 0.0568 0.0
C954 C 0.89751 0.2477 0.20212 0.0
C955 C 0.89611 0.2719 0.24618 0.0
C956 C 0.87277 0.27769 0.30254 0.0
C957 C 0.91397 0.27764 0.35856 0.0
C958 C 0.9008 0.28298 0.10248 0.0
C959 C 0.9044 0.26739 0.99508 0.0
C960 C 0.90869 0.27345 0.85283 0.0
C961 C 0.90912 0.29601 0.81885 0.0
C962 C 0.90522 0.31238 0.92636 0.0
C963 C 0.90117 0.30569 0.07042 0.0
H964 H 0.21333 0.43544 0.47251 0.0
H965 H 0.19742 0.36688 0.3786 0.0
H966 H 0.23702 0.35934 0.32791 0.0
H967 H 0.25605 0.44066 0.18818 0.0
H968 H 0.27303 0.45873 0.29667 0.0
H969 H 0.24336 0.45868 0.32037 0.0
H970 H 0.24862 0.45055 0.5929 0.0
H971 H 0.27829 0.45013 0.56952 0.0
H972 H 0.26434 0.42659 0.64709 0.0
H973 H 0.27895 0.35847 0.31309 0.0
H974 H 0.31912 0.3657 0.28902 0.0
H975 H 0.30757 0.43546 0.37331 0.0
C976 C 0.21813 0.41894 0.43855 0.0
C977 C 0.20226 0.40175 0.42928 0.0
C978 C 0.20921 0.38037 0.38487 0.0
C979 C 0.23172 0.37588 0.35725 0.0
C980 C 0.24703 0.39304 0.37182 0.0
C981 C 0.24046 0.41429 0.40751 0.0
C982 C 0.26019 0.42987 0.41266 0.0
C983 C 0.25803 0.44806 0.29759 0.0
C984 C 0.26302 0.43987 0.56459 0.0
C985 C 0.27894 0.414 0.37663 0.0
C986 C 0.27102 0.39277 0.35576 0.0
C987 C 0.28528 0.37509 0.32727 0.0
C988 C 0.30813 0.37933 0.31525 0.0
C989 C 0.31651 0.40114 0.32917 0.0
C990 C 0.30166 0.41862 0.36176 0.0
H991 H 0.39873 0.82022 0.66284 0.0
H992 H 0.39991 0.80414 0.20462 0.0
H993 H 0.40007 0.76455 0.26211 0.0
H994 H 0.4348 0.77478 0.77676 0.0
H995 H 0.41949 0.76973 0.94115 0.0
H996 H 0.42025 0.79715 0.86523 0.0
H997 H 0.37731 0.79801 0.86092 0.0
H998 H 0.3765 0.77059 0.93646 0.0
H999 H 0.36245 0.77627 0.76889 0.0
H1000 H 0.3986 0.72666 0.36552 0.0
H1001 H 0.39644 0.6926 0.51196 0.0
H1002 H 0.39667 0.73247 0.90346 0.0
C1003 C 0.39921 0.80836 0.57494 0.0
C1004 C 0.39929 0.81541 0.42926 0.0
C1005 C 0.3998 0.79929 0.31724 0.0
C1006 C 0.39992 0.77667 0.34855 0.0
C1007 C 0.3996 0.77025 0.49262 0.0
C1008 C 0.39936 0.78553 0.60432 0.0
C1009 C 0.39867 0.77396 0.74968 0.0
C1010 C 0.41955 0.77922 0.83838 0.0
C1011 C 0.37747 0.78007 0.83388 0.0
C1012 C 0.39835 0.74991 0.70141 0.0
C1013 C 0.39893 0.74818 0.55269 0.0
C1014 C 0.39828 0.72775 0.48229 0.0
C1015 C 0.39701 0.70849 0.56628 0.0
C1016 C 0.39645 0.70982 0.71901 0.0
C1017 C 0.39721 0.73086 0.7869 0.0
H1018 H 0.7284 0.62644 0.12876 0.0
H1019 H 0.68818 0.60932 0.50234 0.0
H1020 H 0.72229 0.60461 0.64691 0.0
H1021 H 0.7744 0.58862 0.20106 0.0
H1022 H 0.79506 0.60802 0.13957 0.0
H1023 H 0.76763 0.6085 0.06308 0.0
H1024 H 0.76376 0.64991 0.13137 0.0
H1025 H 0.79115 0.64959 0.20808 0.0
H1026 H 0.76783 0.65842 0.31637 0.0
H1027 H 0.76039 0.60399 0.75361 0.0
H1028 H 0.79976 0.60783 0.81779 0.0
H1029 H 0.81544 0.62546 0.37426 0.0
C1030 C 0.72672 0.62144 0.24056 0.0
C1031 C 0.70559 0.61817 0.30426 0.0
C1032 C 0.70416 0.61185 0.45121 0.0
C1033 C 0.72344 0.60909 0.53398 0.0
C1034 C 0.74398 0.61265 0.46796 0.0
C1035 C 0.74575 0.61865 0.32453 0.0
C1036 C 0.76973 0.62252 0.28133 0.0
C1037 C 0.77714 0.60592 0.16436 0.0
C1038 C 0.77332 0.64654 0.23141 0.0
C1039 C 0.78121 0.61811 0.4238 0.0
C1040 C 0.76602 0.61229 0.52957 0.0
C1041 C 0.77243 0.60832 0.67144 0.0
C1042 C 0.79488 0.6106 0.70674 0.0
C1043 C 0.81074 0.61688 0.60089 0.0
C1044 C 0.80378 0.62039 0.45708 0.0
H1045 H 0.63424 0.23016 0.40812 0.0
H1046 H 0.61433 0.19384 0.79152 0.0
H1047 H 0.61113 0.22917 0.92612 0.0
H1048 H 0.66764 0.27002 0.58741 0.0
H1049 H 0.6599 0.29264 0.47127 0.0
H1050 H 0.65952 0.26469 0.40319 0.0
H1051 H 0.61838 0.26935 0.32989 0.0
H1052 H 0.61862 0.29734 0.39762 0.0
H1053 H 0.59831 0.27793 0.46375 0.0
H1054 H 0.61172 0.26814 0.02125 0.0
H1055 H 0.61581 0.30786 0.07233 0.0
H1056 H 0.63528 0.31933 0.62635 0.0
C1057 C 0.62901 0.22958 0.52014 0.0
C1058 C 0.62449 0.20914 0.58923 0.0
C1059 C 0.61784 0.20922 0.73614 0.0
C1060 C 0.61596 0.22923 0.81336 0.0
C1061 C 0.62072 0.24902 0.74206 0.0
C1062 C 0.62705 0.24937 0.59861 0.0
C1063 C 0.63186 0.27282 0.54849 0.0
C1064 C 0.65617 0.27517 0.49977 0.0
C1065 C 0.61583 0.27976 0.42782 0.0
C1066 C 0.62745 0.28566 0.68682 0.0
C1067 C 0.62098 0.27156 0.79679 0.0
C1068 C 0.61662 0.27932 0.93572 0.0
C1069 C 0.61905 0.302 0.96355 0.0
C1070 C 0.62583 0.31685 0.85329 0.0
C1071 C 0.62989 0.3085 0.7126 0.0
loop_
_geom_bond_atom_site_label_1
_geom_bond_atom_site_label_2
_geom_bond_distance
_geom_bond_site_symmetry_2
_ccdc_geom_bond_type
Mg0 O7 2.141 . S
Mg0 O8 2.048 . S
Mg0 O9 2.048 . S
Mg0 O12 2.141 . S
C1 O2 1.313 1_554 S
C1 O8 1.195 . S
O2 C1 1.313 1_556 S
C3 O4 1.245 . S
C3 O12 1.289 . S
O4 C3 1.245 . S
C5 O6 1.245 1_554 S
C5 O7 1.289 . S
O6 C5 1.245 1_556 S
O7 Mg0 2.141 . S
O7 C5 1.289 . S
O8 Mg0 2.048 . S
O8 C1 1.195 . S
O9 Mg0 2.048 . S
O9 C10 1.195 . S
C10 O9 1.195 . S
C10 O11 1.313 . S
O11 C10 1.313 . S
O12 Mg0 2.141 . S
O12 C3 1.289 . S
Mg13 O20 2.141 . S
Mg13 O21 2.048 . S
Mg13 O22 2.048 . S
Mg13 O25 2.141 . S
C14 O15 1.313 . S
C14 O21 1.195 . S
O15 C14 1.313 . S
C16 O17 1.245 . S
C16 O25 1.289 . S
O17 C16 1.245 . S
C18 O19 1.245 . S
C18 O20 1.289 . S
O19 C18 1.245 . S
O20 Mg13 2.141 . S
O20 C18 1.289 . S
O21 Mg13 2.048 . S
O21 C14 1.195 . S
O22 Mg13 2.048 . S
O22 C23 1.195 . S
C23 O22 1.195 . S
C23 O24 1.313 . S
O24 C23 1.313 . S
O25 Mg13 2.141 . S
O25 C16 1.289 . S
Mg26 O33 2.141 . S
Mg26 O34 2.048 . S
Mg26 O35 2.048 . S
Mg26 O38 2.141 . S
C27 O28 1.313 1_554 S
C27 O34 1.195 . S
O28 C27 1.313 1_556 S
C29 O30 1.245 . S
C29 O38 1.289 . S
O30 C29 1.245 . S
C31 O32 1.245 1_554 S
C31 O33 1.289 . S
O32 C31 1.245 1_556 S
O33 Mg26 2.141 . S
O33 C31 1.289 . S
O34 Mg26 2.048 . S
O34 C27 1.195 . S
O35 Mg26 2.048 . S
O35 C36 1.195 . S
C36 O35 1.195 . S
C36 O37 1.313 . S
O37 C36 1.313 . S
O38 Mg26 2.141 . S
O38 C29 1.289 . S
Mg39 O46 2.141 . S
Mg39 O47 2.048 . S
Mg39 O48 2.048 . S
Mg39 O51 2.141 . S
C40 O41 1.313 . S
C40 O47 1.195 . S
O41 C40 1.313 . S
C42 O43 1.245 . S
C42 O51 1.289 . S
O43 C42 1.245 . S
C44 O45 1.245 . S
C44 O46 1.289 . S
O45 C44 1.245 . S
O46 Mg39 2.141 . S
O46 C44 1.289 . S
O47 Mg39 2.048 . S
O47 C40 1.195 . S
O48 Mg39 2.048 . S
O48 C49 1.195 . S
C49 O48 1.195 . S
C49 O50 1.313 . S
O50 C49 1.313 . S
O51 Mg39 2.141 . S
O51 C42 1.289 . S
Mg52 O59 2.141 . S
Mg52 O60 2.048 . S
Mg52 O61 2.048 1_554 S
Mg52 O64 2.141 . S
C53 O54 1.313 . S
C53 O60 1.195 . S
O54 C53 1.313 . S
C55 O56 1.245 . S
C55 O64 1.289 . S
O56 C55 1.245 . S
C57 O58 1.245 . S
C57 O59 1.289 . S
O58 C57 1.245 . S
O59 Mg52 2.141 . S
O59 C57 1.289 . S
O60 Mg52 2.048 . S
O60 C53 1.195 . S
O61 Mg52 2.048 1_556 S
O61 C62 1.195 1_556 S
C62 O61 1.195 1_554 S
C62 O63 1.313 . S
O63 C62 1.313 . S
O64 Mg52 2.141 . S
O64 C55 1.289 . S
Mg65 O72 2.141 . S
Mg65 O73 2.048 . S
Mg65 O74 2.048 . S
Mg65 O77 2.141 . S
C66 O67 1.313 1_556 S
C66 O73 1.195 . S
O67 C66 1.313 1_554 S
C68 O69 1.245 1_556 S
C68 O77 1.289 . S
O69 C68 1.245 1_554 S
C70 O71 1.245 . S
C70 O72 1.289 . S
O71 C70 1.245 . S
O72 Mg65 2.141 . S
O72 C70 1.289 . S
O73 Mg65 2.048 . S
O73 C66 1.195 . S
O74 Mg65 2.048 . S
O74 C75 1.195 . S
C75 O74 1.195 . S
C75 O76 1.313 1_556 S
O76 C75 1.313 1_554 S
O77 Mg65 2.141 . S
O77 C68 1.289 . S
Mg78 O85 2.141 . S
Mg78 O86 2.048 . S
Mg78 O87 2.048 1_554 S
Mg78 O90 2.141 . S
C79 O80 1.313 . S
C79 O86 1.195 . S
O80 C79 1.313 . S
C81 O82 1.245 . S
C81 O90 1.289 . S
O82 C81 1.245 . S
C83 O84 1.245 . S
C83 O85 1.289 . S
O84 C83 1.245 . S
O85 Mg78 2.141 . S
O85 C83 1.289 . S
O86 Mg78 2.048 . S
O86 C79 1.195 . S
O87 Mg78 2.048 1_556 S
O87 C88 1.195 1_556 S
C88 O87 1.195 1_554 S
C88 O89 1.313 . S
O89 C88 1.313 . S
O90 Mg78 2.141 . S
O90 C81 1.289 . S
Mg91 O98 2.141 . S
Mg91 O99 2.048 . S
Mg91 O100 2.048 . S
Mg91 O103 2.141 . S
C92 O93 1.313 1_556 S
C92 O99 1.195 . S
O93 C92 1.313 1_554 S
C94 O95 1.245 1_556 S
C94 O103 1.289 . S
O95 C94 1.245 1_554 S
C96 O97 1.245 . S
C96 O98 1.289 . S
O97 C96 1.245 . S
O98 Mg91 2.141 . S
O98 C96 1.289 . S
O99 Mg91 2.048 . S
O99 C92 1.195 . S
O100 Mg91 2.048 . S
O100 C101 1.195 . S
C101 O100 1.195 . S
C101 O102 1.313 1_556 S
O102 C101 1.313 1_554 S
O103 Mg91 2.141 . S
O103 C94 1.289 . S
Mg104 O111 2.141 . S
Mg104 O112 2.048 . S
Mg104 O113 2.048 . S
Mg104 O116 2.141 . S
C105 O106 1.313 . S
C105 O112 1.195 . S
O106 C105 1.313 . S
C107 O108 1.245 . S
C107 O116 1.289 . S
O108 C107 1.245 . S
C109 O110 1.245 . S
C109 O111 1.289 . S
O110 C109 1.245 . S
O111 Mg104 2.141 . S
O111 C109 1.289 . S
O112 Mg104 2.048 . S
O112 C105 1.195 . S
O113 Mg104 2.048 . S
O113 C114 1.195 . S
C114 O113 1.195 . S
C114 O115 1.313 . S
O115 C114 1.313 . S
O116 Mg104 2.141 . S
O116 C107 1.289 . S
Mg117 O124 2.141 . S
Mg117 O125 2.048 . S
Mg117 O126 2.048 . S
Mg117 O129 2.141 . S
C118 O119 1.313 . S
C118 O125 1.195 . S
O119 C118 1.313 . S
C120 O121 1.245 . S
C120 O129 1.289 . S
O121 C120 1.245 . S
C122 O123 1.245 . S
C122 O124 1.289 . S
O123 C122 1.245 . S
O124 Mg117 2.141 . S
O124 C122 1.289 . S
O125 Mg117 2.048 . S
O125 C118 1.195 . S
O126 Mg117 2.048 . S
O126 C127 1.195 . S
C127 O126 1.195 . S
C127 O128 1.313 . S
O128 C127 1.313 . S
O129 Mg117 2.141 . S
O129 C120 1.289 . S
Mg130 O137 2.141 . S
Mg130 O138 2.048 . S
Mg130 O139 2.048 . S
Mg130 O142 2.141 . S
C131 O132 1.313 . S
C131 O138 1.195 . S
O132 C131 1.313 . S
C133 O134 1.245 . S
C133 O142 1.289 . S
O134 C133 1.245 . S
C135 O136 1.245 . S
C135 O137 1.289 . S
O136 C135 1.245 . S
O137 Mg130 2.141 . S
O137 C135 1.289 . S
O138 Mg130 2.048 . S
O138 C131 1.195 . S
O139 Mg130 2.048 . S
O139 C140 1.195 . S
C140 O139 1.195 . S
C140 O141 1.313 . S
O141 C140 1.313 . S
O142 Mg130 2.141 . S
O142 C133 1.289 . S
Mg143 O150 2.141 . S
Mg143 O151 2.048 . S
Mg143 O152 2.048 . S
Mg143 O155 2.141 . S
C144 O145 1.313 . S
C144 O151 1.195 . S
O145 C144 1.313 . S
C146 O147 1.245 . S
C146 O155 1.289 . S
O147 C146 1.245 . S
C148 O149 1.245 . S
C148 O150 1.289 . S
O149 C148 1.245 . S
O150 Mg143 2.141 . S
O150 C148 1.289 . S
O151 Mg143 2.048 . S
O151 C144 1.195 . S
O152 Mg143 2.048 . S
O152 C153 1.195 . S
C153 O152 1.195 . S
C153 O154 1.313 . S
O154 C153 1.313 . S
O155 Mg143 2.141 . S
O155 C146 1.289 . S
Mg156 O163 2.141 . S
Mg156 O164 2.048 . S
Mg156 O165 2.048 . S
Mg156 O168 2.141 . S
C157 O158 1.313 . S
C157 O164 1.195 . S
O158 C157 1.313 . S
C159 O160 1.245 . S
C159 O168 1.289 . S
O160 C159 1.245 . S
C161 O162 1.245 . S
C161 O163 1.289 . S
O162 C161 1.245 . S
O163 Mg156 2.141 . S
O163 C161 1.289 . S
O164 Mg156 2.048 . S
O164 C157 1.195 . S
O165 Mg156 2.048 . S
O165 C166 1.195 . S
C166 O165 1.195 . S
C166 O167 1.313 . S
O167 C166 1.313 . S
O168 Mg156 2.141 . S
O168 C159 1.289 . S
Mg169 O176 2.141 . S
Mg169 O177 2.048 . S
Mg169 O178 2.048 . S
Mg169 O181 2.141 . S
C170 O171 1.313 . S
C170 O177 1.195 . S
O171 C170 1.313 . S
C172 O173 1.245 . S
C172 O181 1.289 . S
O173 C172 1.245 . S
C174 O175 1.245 . S
C174 O176 1.289 . S
O175 C174 1.245 . S
O176 Mg169 2.141 . S
O176 C174 1.289 . S
O177 Mg169 2.048 . S
O177 C170 1.195 . S
O178 Mg169 2.048 . S
O178 C179 1.195 . S
C179 O178 1.195 . S
C179 O180 1.313 . S
O180 C179 1.313 . S
O181 Mg169 2.141 . S
O181 C172 1.289 . S
Mg182 O189 2.141 . S
Mg182 O190 2.048 . S
Mg182 O191 2.048 . S
Mg182 O194 2.141 . S
C183 O184 1.313 . S
C183 O190 1.195 . S
O184 C183 1.313 . S
C185 O186 1.245 . S
C185 O194 1.289 . S
O186 C185 1.245 . S
C187 O188 1.245 . S
C187 O189 1.289 . S
O188 C187 1.245 . S
O189 Mg182 2.141 . S
O189 C187 1.289 . S
O190 Mg182 2.048 . S
O190 C183 1.195 . S
O191 Mg182 2.048 . S
O191 C192 1.195 . S
C192 O191 1.195 . S
C192 O193 1.313 . S
O193 C192 1.313 . S
O194 Mg182 2.141 . S
O194 C185 1.289 . S
Mg195 O202 2.141 . S
Mg195 O203 2.048 . S
Mg195 O204 2.048 . S
Mg195 O207 2.141 . S
C196 O197 1.313 . S
C196 O203 1.195 . S
O197 C196 1.313 . S
C198 O199 1.245 . S
C198 O207 1.289 . S
O199 C198 1.245 . S
C200 O201 1.245 . S
C200 O202 1.289 . S
O201 C200 1.245 . S
O202 Mg195 2.141 . S
O202 C200 1.289 . S
O203 Mg195 2.048 . S
O203 C196 1.195 . S
O204 Mg195 2.048 . S
O204 C205 1.195 . S
C205 O204 1.195 . S
C205 O206 1.313 . S
O206 C205 1.313 . S
O207 Mg195 2.141 . S
O207 C198 1.289 . S
H208 C220 0.930 . S
H209 C222 0.930 . S
H210 C223 0.930 . S
H211 C227 0.959 1_565 S
H212 C227 0.956 . S
H213 C227 0.964 1_565 S
H214 C228 0.960 1_565 S
H215 C228 0.961 . S
H216 C228 0.959 . S
H217 C231 0.929 1_556 S
H218 C232 0.931 1_556 S
H219 C234 0.930 . S
C220 H208 0.930 . S
C220 C221 1.399 . S
C220 C225 1.399 . S
C221 C220 1.399 . S
C221 C222 1.376 . S
C222 H209 0.930 . S
C222 C221 1.376 . S
C222 C223 1.388 . S
C223 H210 0.930 . S
C223 C222 1.388 . S
C223 C224 1.390 . S
C224 C223 1.390 . S
C224 C225 1.394 . S
C224 C230 1.465 1_565 S
C225 C220 1.399 . S
C225 C224 1.394 . S
C225 C226 1.558 . S
C226 C225 1.558 . S
C226 C227 1.501 1_565 S
C226 C228 1.557 1_565 S
C226 C229 1.491 1_565 S
C227 H211 0.959 1_545 S
C227 H212 0.956 . S
C227 H213 0.964 1_545 S
C227 C226 1.501 1_545 S
C228 H214 0.960 1_545 S
C228 H215 0.961 . S
C228 H216 0.959 . S
C228 C226 1.557 1_545 S
C229 C226 1.491 1_545 S
C229 C230 1.396 . S
C229 C234 1.390 . S
C230 C224 1.465 1_545 S
C230 C229 1.396 . S
C230 C231 1.399 . S
C231 H217 0.929 1_554 S
C231 C230 1.399 . S
C231 C232 1.385 . S
C232 H218 0.931 1_554 S
C232 C231 1.385 . S
C232 C233 1.389 . S
C233 C232 1.389 . S
C233 C234 1.387 . S
C234 H219 0.930 . S
C234 C229 1.390 . S
C234 C233 1.387 . S
H235 C247 0.930 . S
H236 C249 0.930 . S
H237 C250 0.930 . S
H238 C254 0.959 . S
H239 C254 0.959 . S
H240 C254 0.961 1_455 S
H241 C255 0.960 1_455 S
H242 C255 0.961 . S
H243 C255 0.959 1_554 S
H244 C258 0.929 . S
H245 C259 0.931 . S
H246 C261 0.930 . S
C247 H235 0.930 . S
C247 C248 1.399 . S
C247 C252 1.399 . S
C248 C247 1.399 . S
C248 C249 1.376 . S
C249 H236 0.930 . S
C249 C248 1.376 . S
C249 C250 1.388 . S
C250 H237 0.930 . S
C250 C249 1.388 . S
C250 C251 1.390 . S
C251 C250 1.390 . S
C251 C252 1.394 . S
C251 C257 1.465 1_455 S
C252 C247 1.399 . S
C252 C251 1.394 . S
C252 C253 1.516 1_455 S
C253 C252 1.516 1_655 S
C253 C254 1.502 . S
C253 C255 1.561 . S
C253 C256 1.526 . S
C254 H238 0.959 . S
C254 H239 0.959 . S
C254 H240 0.961 1_655 S
C254 C253 1.502 . S
C255 H241 0.960 1_655 S
C255 H242 0.961 . S
C255 H243 0.959 1_556 S
C255 C253 1.561 . S
C256 C253 1.526 . S
C256 C257 1.396 . S
C256 C261 1.390 . S
C257 C251 1.465 1_655 S
C257 C256 1.396 . S
C257 C258 1.399 . S
C258 H244 0.929 . S
C258 C257 1.399 . S
C258 C259 1.385 . S
C259 H245 0.931 . S
C259 C258 1.385 . S
C259 C260 1.389 . S
C260 C259 1.389 . S
C260 C261 1.387 . S
C261 H246 0.930 . S
C261 C256 1.390 . S
C261 C260 1.387 . S
H262 C274 0.931 . S
H263 C276 0.930 . S
H264 C277 0.930 . S
H265 C281 0.959 1_554 S
H266 C281 0.959 . S
H267 C281 0.961 1_565 S
H268 C282 0.960 1_565 S
H269 C282 0.961 . S
H270 C282 0.959 . S
H271 C285 0.929 . S
H272 C286 0.931 . S
H273 C288 0.930 . S
C274 H262 0.931 . S
C274 C275 1.399 . S
C274 C279 1.399 . S
C275 C274 1.399 . S
C275 C276 1.376 . S
C276 H263 0.930 . S
C276 C275 1.376 . S
C276 C277 1.388 . S
C277 H264 0.930 . S
C277 C276 1.388 . S
C277 C278 1.390 . S
C278 C277 1.390 . S
C278 C279 1.394 . S
C278 C284 1.465 1_565 S
C279 C274 1.399 . S
C279 C278 1.394 . S
C279 C280 1.516 1_565 S
C280 C279 1.516 1_545 S
C280 C281 1.502 1_554 S
C280 C282 1.561 1_554 S
C280 C283 1.526 . S
C281 H265 0.959 1_556 S
C281 H266 0.959 . S
C281 H267 0.961 1_545 S
C281 C280 1.502 1_556 S
C282 H268 0.960 1_545 S
C282 H269 0.961 . S
C282 H270 0.959 . S
C282 C280 1.561 1_556 S
C283 C280 1.526 . S
C283 C284 1.396 . S
C283 C288 1.390 . S
C284 C278 1.465 1_545 S
C284 C283 1.396 . S
C284 C285 1.399 . S
C285 H271 0.929 . S
C285 C284 1.399 . S
C285 C286 1.385 . S
C286 H272 0.931 . S
C286 C285 1.385 . S
C286 C287 1.389 . S
C287 C286 1.389 . S
C287 C288 1.387 . S
C288 H273 0.930 . S
C288 C283 1.390 . S
C288 C287 1.387 . S
H289 C301 0.930 . S
H290 C303 0.930 . S
H291 C304 0.930 . S
H292 C308 0.959 . S
H293 C308 0.959 1_655 S
H294 C308 0.961 . S
H295 C309 0.960 . S
H296 C309 0.961 1_654 S
H297 C309 0.959 . S
H298 C312 0.929 . S
H299 C313 0.931 . S
H300 C315 0.930 . S
C301 H289 0.930 . S
C301 C302 1.399 . S
C301 C306 1.399 . S
C302 C301 1.399 . S
C302 C303 1.376 . S
C303 H290 0.930 . S
C303 C302 1.376 . S
C303 C304 1.388 . S
C304 H291 0.930 . S
C304 C303 1.388 . S
C304 C305 1.390 . S
C305 C304 1.390 . S
C305 C306 1.394 . S
C305 C311 1.465 1_455 S
C306 C301 1.399 . S
C306 C305 1.394 . S
C306 C307 1.516 . S
C307 C306 1.516 . S
C307 C308 1.502 1_556 S
C307 C309 1.561 . S
C307 C310 1.526 1_455 S
C308 H292 0.959 . S
C308 H293 0.959 1_455 S
C308 H294 0.961 . S
C308 C307 1.502 1_554 S
C309 H295 0.960 . S
C309 H296 0.961 1_456 S
C309 H297 0.959 . S
C309 C307 1.561 . S
C310 C307 1.526 1_655 S
C310 C311 1.396 . S
C310 C315 1.390 . S
C311 C305 1.465 1_655 S
C311 C310 1.396 . S
C311 C312 1.399 . S
C312 H298 0.929 . S
C312 C311 1.399 . S
C312 C313 1.385 . S
C313 H299 0.931 . S
C313 C312 1.385 . S
C313 C314 1.389 . S
C314 C313 1.389 . S
C314 C315 1.387 . S
C315 H300 0.930 . S
C315 C310 1.390 . S
C315 C314 1.387 . S
H316 C328 0.930 . S
H317 C330 0.930 . S
H318 C331 0.930 . S
H319 C335 0.959 . S
H320 C335 0.959 . S
H321 C335 0.961 . S
H322 C336 0.960 . S
H323 C336 0.961 . S
H324 C336 0.959 . S
H325 C339 0.929 . S
H326 C340 0.931 . S
H327 C342 0.930 . S
C328 H316 0.930 . S
C328 C329 1.399 1_556 S
C328 C333 1.399 . S
C329 C328 1.399 1_554 S
C329 C330 1.376 . S
C330 H317 0.930 . S
C330 C329 1.376 . S
C330 C331 1.388 . S
C331 H318 0.930 . S
C331 C330 1.388 . S
C331 C332 1.390 . S
C332 C331 1.390 . S
C332 C333 1.394 1_554 S
C332 C338 1.465 . S
C333 C328 1.399 . S
C333 C332 1.394 1_556 S
C333 C334 1.516 . S
C334 C333 1.516 . S
C334 C335 1.502 . S
C334 C336 1.561 . S
C334 C337 1.526 . S
C335 H319 0.959 . S
C335 H320 0.959 . S
C335 H321 0.961 . S
C335 C334 1.502 . S
C336 H322 0.960 . S
C336 H323 0.961 . S
C336 H324 0.959 . S
C336 C334 1.561 . S
C337 C334 1.526 . S
C337 C338 1.396 1_556 S
C337 C342 1.390 . S
C338 C332 1.465 . S
C338 C337 1.396 1_554 S
C338 C339 1.399 . S
C339 H325 0.929 . S
C339 C338 1.399 . S
C339 C340 1.385 . S
C340 H326 0.931 . S
C340 C339 1.385 . S
C340 C341 1.389 1_554 S
C341 C340 1.389 1_556 S
C341 C342 1.387 . S
C342 H327 0.930 . S
C342 C337 1.390 . S
C342 C341 1.387 . S
H343 C355 0.930 . S
H344 C357 0.930 . S
H345 C358 0.930 . S
H346 C362 0.959 . S
H347 C362 0.959 . S
H348 C362 0.961 . S
H349 C363 0.960 . S
H350 C363 0.961 . S
H351 C363 0.959 . S
H352 C366 0.929 . S
H353 C367 0.931 . S
H354 C369 0.930 . S
C355 H343 0.930 . S
C355 C356 1.399 . S
C355 C360 1.399 . S
C356 C355 1.399 . S
C356 C357 1.376 1_556 S
C357 H344 0.930 . S
C357 C356 1.376 1_554 S
C357 C358 1.388 . S
C358 H345 0.930 . S
C358 C357 1.388 . S
C358 C359 1.390 . S
C359 C358 1.390 . S
C359 C360 1.394 1_554 S
C359 C365 1.465 . S
C360 C355 1.399 . S
C360 C359 1.394 1_556 S
C360 C361 1.516 . S
C361 C360 1.516 . S
C361 C362 1.502 . S
C361 C363 1.561 1_556 S
C361 C364 1.526 . S
C362 H346 0.959 . S
C362 H347 0.959 . S
C362 H348 0.961 . S
C362 C361 1.502 . S
C363 H349 0.960 . S
C363 H350 0.961 . S
C363 H351 0.959 . S
C363 C361 1.561 1_554 S
C364 C361 1.526 . S
C364 C365 1.396 1_556 S
C364 C369 1.390 . S
C365 C359 1.465 . S
C365 C364 1.396 1_554 S
C365 C366 1.399 . S
C366 H352 0.929 . S
C366 C365 1.399 . S
C366 C367 1.385 . S
C367 H353 0.931 . S
C367 C366 1.385 . S
C367 C368 1.389 . S
C368 C367 1.389 . S
C368 C369 1.387 1_554 S
C369 H354 0.930 . S
C369 C364 1.390 . S
C369 C368 1.387 1_556 S
H370 C382 0.930 . S
H371 C384 0.930 . S
H372 C385 0.930 . S
H373 C389 0.959 . S
H374 C389 0.959 . S
H375 C389 0.961 . S
H376 C390 0.960 . S
H377 C390 0.961 . S
H378 C390 0.959 . S
H379 C393 0.929 . S
H380 C394 0.931 . S
H381 C396 0.930 . S
C382 H370 0.930 . S
C382 C383 1.399 . S
C382 C387 1.399 . S
C383 C382 1.399 . S
C383 C384 1.376 1_556 S
C384 H371 0.930 . S
C384 C383 1.376 1_554 S
C384 C385 1.388 . S
C385 H372 0.930 . S
C385 C384 1.388 . S
C385 C386 1.390 . S
C386 C385 1.390 . S
C386 C387 1.394 1_554 S
C386 C392 1.465 . S
C387 C382 1.399 . S
C387 C386 1.394 1_556 S
C387 C388 1.516 . S
C388 C387 1.516 . S
C388 C389 1.502 . S
C388 C390 1.561 . S
C388 C391 1.526 . S
C389 H373 0.959 . S
C389 H374 0.959 . S
C389 H375 0.961 . S
C389 C388 1.502 . S
C390 H376 0.960 . S
C390 H377 0.961 . S
C390 H378 0.959 . S
C390 C388 1.561 . S
C391 C388 1.526 . S
C391 C392 1.396 1_556 S
C391 C396 1.390 . S
C392 C386 1.465 . S
C392 C391 1.396 1_554 S
C392 C393 1.399 . S
C393 H379 0.929 . S
C393 C392 1.399 . S
C393 C394 1.385 . S
C394 H380 0.931 . S
C394 C393 1.385 . S
C394 C395 1.389 . S
C395 C394 1.389 . S
C395 C396 1.387 1_554 S
C396 H381 0.930 . S
C396 C391 1.390 . S
C396 C395 1.387 1_556 S
H397 C409 0.930 . S
H398 C411 0.930 . S
H399 C412 0.930 . S
H400 C416 0.959 . S
H401 C416 0.959 . S
H402 C416 0.961 . S
H403 C417 0.960 . S
H404 C417 0.961 . S
H405 C417 0.959 . S
H406 C420 0.929 . S
H407 C421 0.931 . S
H408 C423 0.930 1_554 S
C409 H397 0.930 . S
C409 C410 1.399 . S
C409 C414 1.399 . S
C410 C409 1.399 . S
C410 C411 1.376 1_554 S
C411 H398 0.930 . S
C411 C410 1.376 1_556 S
C411 C412 1.388 . S
C412 H399 0.930 . S
C412 C411 1.388 . S
C412 C413 1.390 . S
C413 C412 1.390 . S
C413 C414 1.394 1_556 S
C413 C419 1.465 . S
C414 C409 1.399 . S
C414 C413 1.394 1_554 S
C414 C415 1.516 . S
C415 C414 1.516 . S
C415 C416 1.502 . S
C415 C417 1.561 1_554 S
C415 C418 1.526 1_554 S
C416 H400 0.959 . S
C416 H401 0.959 . S
C416 H402 0.961 . S
C416 C415 1.502 . S
C417 H403 0.960 . S
C417 H404 0.961 . S
C417 H405 0.959 . S
C417 C415 1.561 1_556 S
C418 C415 1.526 1_556 S
C418 C419 1.396 . S
C418 C423 1.390 . S
C419 C413 1.465 . S
C419 C418 1.396 . S
C419 C420 1.399 . S
C420 H406 0.929 . S
C420 C419 1.399 . S
C420 C421 1.385 . S
C421 H407 0.931 . S
C421 C420 1.385 . S
C421 C422 1.389 . S
C422 C421 1.389 . S
C422 C423 1.387 . S
C423 H408 0.930 1_556 S
C423 C418 1.390 . S
C423 C422 1.387 . S
H424 C436 0.930 . S
H425 C438 0.930 . S
H426 C439 0.930 . S
H427 C443 0.959 . S
H428 C443 0.959 . S
H429 C443 0.961 . S
H430 C444 0.960 . S
H431 C444 0.961 . S
H432 C444 0.959 . S
H433 C447 0.929 . S
H434 C448 0.931 . S
H435 C450 0.930 . S
C436 H424 0.930 . S
C436 C437 1.399 . S
C436 C441 1.399 . S
C437 C436 1.399 . S
C437 C438 1.376 . S
C438 H425 0.930 . S
C438 C437 1.376 . S
C438 C439 1.388 . S
C439 H426 0.930 . S
C439 C438 1.388 . S
C439 C440 1.390 . S
C440 C439 1.390 . S
C440 C441 1.394 . S
C440 C446 1.465 . S
C441 C436 1.399 . S
C441 C440 1.394 . S
C441 C442 1.516 . S
C442 C441 1.516 . S
C442 C443 1.502 . S
C442 C444 1.561 . S
C442 C445 1.526 . S
C443 H427 0.959 . S
C443 H428 0.959 . S
C443 H429 0.961 . S
C443 C442 1.502 . S
C444 H430 0.960 . S
C444 H431 0.961 . S
C444 H432 0.959 . S
C444 C442 1.561 . S
C445 C442 1.526 . S
C445 C446 1.396 . S
C445 C450 1.390 . S
C446 C440 1.465 . S
C446 C445 1.396 . S
C446 C447 1.399 . S
C447 H433 0.929 . S
C447 C446 1.399 . S
C447 C448 1.385 . S
C448 H434 0.931 . S
C448 C447 1.385 . S
C448 C449 1.389 . S
C449 C448 1.389 . S
C449 C450 1.387 . S
C450 H435 0.930 . S
C450 C445 1.390 . S
C450 C449 1.387 . S
H451 C463 0.930 . S
H452 C465 0.930 . S
H453 C466 0.930 . S
H454 C470 0.959 . S
H455 C470 0.959 . S
H456 C470 0.961 . S
H457 C471 0.960 . S
H458 C471 0.961 . S
H459 C471 0.959 . S
H460 C474 0.929 . S
H461 C475 0.931 . S
H462 C477 0.930 . S
C463 H451 0.930 . S
C463 C464 1.399 . S
C463 C468 1.399 . S
C464 C463 1.399 . S
C464 C465 1.376 . S
C465 H452 0.930 . S
C465 C464 1.376 . S
C465 C466 1.388 . S
C466 H453 0.930 . S
C466 C465 1.388 . S
C466 C467 1.390 . S
C467 C466 1.390 . S
C467 C468 1.394 . S
C467 C473 1.465 . S
C468 C463 1.399 . S
C468 C467 1.394 . S
C468 C469 1.516 . S
C469 C468 1.516 . S
C469 C470 1.502 . S
C469 C471 1.561 . S
C469 C472 1.526 . S
C470 H454 0.959 . S
C470 H455 0.959 . S
C470 H456 0.961 . S
C470 C469 1.502 . S
C471 H457 0.960 . S
C471 H458 0.961 . S
C471 H459 0.959 . S
C471 C469 1.561 . S
C472 C469 1.526 . S
C472 C473 1.396 . S
C472 C477 1.390 . S
C473 C467 1.465 . S
C473 C472 1.396 . S
C473 C474 1.399 . S
C474 H460 0.929 . S
C474 C473 1.399 . S
C474 C475 1.385 . S
C475 H461 0.931 . S
C475 C474 1.385 . S
C475 C476 1.389 . S
C476 C475 1.389 . S
C476 C477 1.387 . S
C477 H462 0.930 . S
C477 C472 1.390 . S
C477 C476 1.387 . S
H478 C490 0.930 . S
H479 C492 0.930 . S
H480 C493 0.930 . S
H481 C497 0.959 . S
H482 C497 0.959 . S
H483 C497 0.961 . S
H484 C498 0.960 . S
H485 C498 0.961 . S
H486 C498 0.959 . S
H487 C501 0.929 . S
H488 C502 0.931 . S
H489 C504 0.930 . S
C490 H478 0.930 . S
C490 C491 1.399 . S
C490 C495 1.399 . S
C491 C490 1.399 . S
C491 C492 1.376 . S
C492 H479 0.930 . S
C492 C491 1.376 . S
C492 C493 1.388 . S
C493 H480 0.930 . S
C493 C492 1.388 . S
C493 C494 1.390 . S
C494 C493 1.390 . S
C494 C495 1.394 . S
C494 C500 1.465 . S
C495 C490 1.399 . S
C495 C494 1.394 . S
C495 C496 1.516 . S
C496 C495 1.516 . S
C496 C497 1.502 . S
C496 C498 1.561 . S
C496 C499 1.526 . S
C497 H481 0.959 . S
C497 H482 0.959 . S
C497 H483 0.961 . S
C497 C496 1.502 . S
C498 H484 0.960 . S
C498 H485 0.961 . S
C498 H486 0.959 . S
C498 C496 1.561 . S
C499 C496 1.526 . S
C499 C500 1.396 . S
C499 C504 1.390 . S
C500 C494 1.465 . S
C500 C499 1.396 . S
C500 C501 1.399 . S
C501 H487 0.929 . S
C501 C500 1.399 . S
C501 C502 1.385 . S
C502 H488 0.931 . S
C502 C501 1.385 . S
C502 C503 1.389 . S
C503 C502 1.389 . S
C503 C504 1.387 . S
C504 H489 0.930 . S
C504 C499 1.390 . S
C504 C503 1.387 . S
H505 C517 0.930 . S
H506 C519 0.930 . S
H507 C520 0.930 . S
H508 C524 0.959 . S
H509 C524 0.959 . S
H510 C524 0.961 . S
H511 C525 0.960 . S
H512 C525 0.961 . S
H513 C525 0.959 . S
H514 C528 0.929 . S
H515 C529 0.931 . S
H516 C531 0.930 . S
C517 H505 0.930 . S
C517 C518 1.399 . S
C517 C522 1.399 . S
C518 C517 1.399 . S
C518 C519 1.376 . S
C519 H506 0.930 . S
C519 C518 1.376 . S
C519 C520 1.388 . S
C520 H507 0.930 . S
C520 C519 1.388 . S
C520 C521 1.390 . S
C521 C520 1.390 . S
C521 C522 1.394 . S
C521 C527 1.465 . S
C522 C517 1.399 . S
C522 C521 1.394 . S
C522 C523 1.516 . S
C523 C522 1.516 . S
C523 C524 1.502 . S
C523 C525 1.561 . S
C523 C526 1.526 . S
C524 H508 0.959 . S
C524 H509 0.959 . S
C524 H510 0.961 . S
C524 C523 1.502 . S
C525 H511 0.960 . S
C525 H512 0.961 . S
C525 H513 0.959 . S
C525 C523 1.561 . S
C526 C523 1.526 . S
C526 C527 1.396 . S
C526 C531 1.390 . S
C527 C521 1.465 . S
C527 C526 1.396 . S
C527 C528 1.399 . S
C528 H514 0.929 . S
C528 C527 1.399 . S
C528 C529 1.385 . S
C529 H515 0.931 . S
C529 C528 1.385 . S
C529 C530 1.389 . S
C530 C529 1.389 . S
C530 C531 1.387 . S
C531 H516 0.930 . S
C531 C526 1.390 . S
C531 C530 1.387 . S
H532 C544 0.930 . S
H533 C546 0.930 . S
H534 C547 0.930 . S
H535 C551 0.959 . S
H536 C551 0.959 . S
H537 C551 0.961 1_565 S
H538 C552 0.960 1_565 S
H539 C552 0.961 . S
H540 C552 0.959 . S
H541 C555 0.929 . S
H542 C556 0.931 . S
H543 C558 0.930 . S
C544 H532 0.930 . S
C544 C545 1.399 . S
C544 C549 1.399 . S
C545 C544 1.399 . S
C545 C546 1.376 . S
C546 H533 0.930 . S
C546 C545 1.376 . S
C546 C547 1.388 . S
C547 H534 0.930 . S
C547 C546 1.388 . S
C547 C548 1.390 . S
C548 C547 1.390 . S
C548 C549 1.394 . S
C548 C554 1.465 1_565 S
C549 C544 1.399 . S
C549 C548 1.394 . S
C549 C550 1.516 1_565 S
C550 C549 1.516 1_545 S
C550 C551 1.502 . S
C550 C552 1.561 . S
C550 C553 1.526 . S
C551 H535 0.959 . S
C551 H536 0.959 . S
C551 H537 0.961 1_545 S
C551 C550 1.502 . S
C552 H538 0.960 1_545 S
C552 H539 0.961 . S
C552 H540 0.959 . S
C552 C550 1.561 . S
C553 C550 1.526 . S
C553 C554 1.396 . S
C553 C558 1.390 . S
C554 C548 1.465 1_545 S
C554 C553 1.396 . S
C554 C555 1.399 . S
C555 H541 0.929 . S
C555 C554 1.399 . S
C555 C556 1.385 . S
C556 H542 0.931 . S
C556 C555 1.385 . S
C556 C557 1.389 . S
C557 C556 1.389 . S
C557 C558 1.387 . S
C558 H543 0.930 . S
C558 C553 1.390 . S
C558 C557 1.387 . S
H559 C571 0.930 . S
H560 C573 0.930 . S
H561 C574 0.930 . S
H562 C578 0.959 . S
H563 C578 0.959 . S
H564 C578 0.961 1_655 S
H565 C579 0.960 1_655 S
H566 C579 0.961 . S
H567 C579 0.959 . S
H568 C582 0.929 . S
H569 C583 0.931 . S
H570 C585 0.930 . S
C571 H559 0.930 . S
C571 C572 1.399 . S
C571 C576 1.399 . S
C572 C571 1.399 . S
C572 C573 1.376 . S
C573 H560 0.930 . S
C573 C572 1.376 . S
C573 C574 1.388 . S
C574 H561 0.930 . S
C574 C573 1.388 . S
C574 C575 1.390 . S
C575 C574 1.390 . S
C575 C576 1.394 . S
C575 C581 1.465 1_655 S
C576 C571 1.399 . S
C576 C575 1.394 . S
C576 C577 1.516 1_655 S
C577 C576 1.516 1_455 S
C577 C578 1.502 . S
C577 C579 1.561 . S
C577 C580 1.526 . S
C578 H562 0.959 . S
C578 H563 0.959 . S
C578 H564 0.961 1_455 S
C578 C577 1.502 . S
C579 H565 0.960 1_455 S
C579 H566 0.961 . S
C579 H567 0.959 . S
C579 C577 1.561 . S
C580 C577 1.526 . S
C580 C581 1.396 . S
C580 C585 1.390 . S
C581 C575 1.465 1_455 S
C581 C580 1.396 . S
C581 C582 1.399 . S
C582 H568 0.929 . S
C582 C581 1.399 . S
C582 C583 1.385 . S
C583 H569 0.931 . S
C583 C582 1.385 . S
C583 C584 1.389 . S
C584 C583 1.389 . S
C584 C585 1.387 . S
C585 H570 0.930 . S
C585 C580 1.390 . S
C585 C584 1.387 . S
H586 C598 0.930 . S
H587 C600 0.930 . S
H588 C601 0.930 . S
H589 C605 0.959 1_565 S
H590 C605 0.956 . S
H591 C605 0.964 1_565 S
H592 C606 0.960 1_565 S
H593 C606 0.961 . S
H594 C606 0.959 . S
H595 C609 0.929 . S
H596 C610 0.931 . S
H597 C612 0.930 . S
C598 H586 0.930 . S
C598 C599 1.399 . S
C598 C603 1.399 . S
C599 C598 1.399 . S
C599 C600 1.376 . S
C600 H587 0.930 . S
C600 C599 1.376 . S
C600 C601 1.388 . S
C601 H588 0.930 . S
C601 C600 1.388 . S
C601 C602 1.390 . S
C602 C601 1.390 . S
C602 C603 1.394 . S
C602 C608 1.465 1_565 S
C603 C598 1.399 . S
C603 C602 1.394 . S
C603 C604 1.558 . S
C604 C603 1.558 . S
C604 C605 1.501 1_565 S
C604 C606 1.557 1_565 S
C604 C607 1.491 1_565 S
C605 H589 0.959 1_545 S
C605 H590 0.956 . S
C605 H591 0.964 1_545 S
C605 C604 1.501 1_545 S
C606 H592 0.960 1_545 S
C606 H593 0.961 . S
C606 H594 0.959 . S
C606 C604 1.557 1_545 S
C607 C604 1.491 1_545 S
C607 C608 1.396 . S
C607 C612 1.390 . S
C608 C602 1.465 1_545 S
C608 C607 1.396 . S
C608 C609 1.399 . S
C609 H595 0.929 . S
C609 C608 1.399 . S
C609 C610 1.385 . S
C610 H596 0.931 . S
C610 C609 1.385 . S
C610 C611 1.389 . S
C611 C610 1.389 . S
C611 C612 1.387 . S
C612 H597 0.930 . S
C612 C607 1.390 . S
C612 C611 1.387 . S
H613 C625 0.930 . S
H614 C627 0.930 . S
H615 C628 0.930 . S
H616 C632 0.959 . S
H617 C632 0.959 1_455 S
H618 C632 0.961 . S
H619 C633 0.960 1_655 S
H620 C633 0.961 . S
H621 C633 0.959 . S
H622 C636 0.929 . S
H623 C637 0.931 . S
H624 C639 0.930 . S
C625 H613 0.930 . S
C625 C626 1.399 . S
C625 C630 1.399 . S
C626 C625 1.399 . S
C626 C627 1.376 . S
C627 H614 0.930 . S
C627 C626 1.376 . S
C627 C628 1.388 . S
C628 H615 0.930 . S
C628 C627 1.388 . S
C628 C629 1.390 . S
C629 C628 1.390 . S
C629 C630 1.394 . S
C629 C635 1.465 1_655 S
C630 C625 1.399 . S
C630 C629 1.394 . S
C630 C631 1.516 . S
C631 C630 1.516 . S
C631 C632 1.502 . S
C631 C633 1.561 1_655 S
C631 C634 1.526 1_655 S
C632 H616 0.959 . S
C632 H617 0.959 1_655 S
C632 H618 0.961 . S
C632 C631 1.502 . S
C633 H619 0.960 1_455 S
C633 H620 0.961 . S
C633 H621 0.959 . S
C633 C631 1.561 1_455 S
C634 C631 1.526 1_455 S
C634 C635 1.396 . S
C634 C639 1.390 . S
C635 C629 1.465 1_455 S
C635 C634 1.396 . S
C635 C636 1.399 . S
C636 H622 0.929 . S
C636 C635 1.399 . S
C636 C637 1.385 . S
C637 H623 0.931 . S
C637 C636 1.385 . S
C637 C638 1.389 . S
C638 C637 1.389 . S
C638 C639 1.387 . S
C639 H624 0.930 . S
C639 C634 1.390 . S
C639 C638 1.387 . S
H640 C652 0.930 . S
H641 C654 0.930 . S
H642 C655 0.930 . S
H643 C659 0.959 . S
H644 C659 0.959 . S
H645 C659 0.961 . S
H646 C660 0.960 . S
H647 C660 0.961 . S
H648 C660 0.959 . S
H649 C663 0.929 . S
H650 C664 0.931 . S
H651 C666 0.930 . S
C652 H640 0.930 . S
C652 C653 1.399 . S
C652 C657 1.399 . S
C653 C652 1.399 . S
C653 C654 1.376 1_554 S
C654 H641 0.930 . S
C654 C653 1.376 1_556 S
C654 C655 1.388 . S
C655 H642 0.930 . S
C655 C654 1.388 . S
C655 C656 1.390 1_556 S
C656 C655 1.390 1_554 S
C656 C657 1.394 . S
C656 C662 1.465 . S
C657 C652 1.399 . S
C657 C656 1.394 . S
C657 C658 1.516 . S
C658 C657 1.516 . S
C658 C659 1.502 . S
C658 C660 1.561 . S
C658 C661 1.526 . S
C659 H643 0.959 . S
C659 H644 0.959 . S
C659 H645 0.961 . S
C659 C658 1.502 . S
C660 H646 0.960 . S
C660 H647 0.961 . S
C660 H648 0.959 . S
C660 C658 1.561 . S
C661 C658 1.526 . S
C661 C662 1.396 . S
C661 C666 1.390 . S
C662 C656 1.465 . S
C662 C661 1.396 . S
C662 C663 1.399 1_554 S
C663 H649 0.929 . S
C663 C662 1.399 1_556 S
C663 C664 1.385 . S
C664 H650 0.931 . S
C664 C663 1.385 . S
C664 C665 1.389 1_556 S
C665 C664 1.389 1_554 S
C665 C666 1.387 . S
C666 H651 0.930 . S
C666 C661 1.390 . S
C666 C665 1.387 . S
H667 C679 0.930 . S
H668 C681 0.930 . S
H669 C682 0.930 1_554 S
H670 C686 0.959 . S
H671 C686 0.959 . S
H672 C686 0.961 . S
H673 C687 0.960 . S
H674 C687 0.961 . S
H675 C687 0.959 1_554 S
H676 C690 0.929 1_554 S
H677 C691 0.931 . S
H678 C693 0.930 . S
C679 H667 0.930 . S
C679 C680 1.399 . S
C679 C684 1.399 . S
C680 C679 1.399 . S
C680 C681 1.376 . S
C681 H668 0.930 . S
C681 C680 1.376 . S
C681 C682 1.388 . S
C682 H669 0.930 1_556 S
C682 C681 1.388 . S
C682 C683 1.390 . S
C683 C682 1.390 . S
C683 C684 1.394 . S
C683 C689 1.465 . S
C684 C679 1.399 . S
C684 C683 1.394 . S
C684 C685 1.516 . S
C685 C684 1.516 . S
C685 C686 1.502 . S
C685 C687 1.561 . S
C685 C688 1.526 . S
C686 H670 0.959 . S
C686 H671 0.959 . S
C686 H672 0.961 . S
C686 C685 1.502 . S
C687 H673 0.960 . S
C687 H674 0.961 . S
C687 H675 0.959 1_556 S
C687 C685 1.561 . S
C688 C685 1.526 . S
C688 C689 1.396 . S
C688 C693 1.390 . S
C689 C683 1.465 . S
C689 C688 1.396 . S
C689 C690 1.399 . S
C690 H676 0.929 1_556 S
C690 C689 1.399 . S
C690 C691 1.385 . S
C691 H677 0.931 . S
C691 C690 1.385 . S
C691 C692 1.389 . S
C692 C691 1.389 . S
C692 C693 1.387 . S
C693 H678 0.930 . S
C693 C688 1.390 . S
C693 C692 1.387 . S
H694 C706 0.930 1_556 S
H695 C708 0.930 . S
H696 C709 0.930 . S
H697 C713 0.959 . S
H698 C713 0.959 . S
H699 C713 0.961 . S
H700 C714 0.960 . S
H701 C714 0.961 . S
H702 C714 0.959 . S
H703 C717 0.929 . S
H704 C718 0.931 . S
H705 C720 0.930 1_556 S
C706 H694 0.930 1_554 S
C706 C707 1.399 . S
C706 C711 1.399 . S
C707 C706 1.399 . S
C707 C708 1.376 . S
C708 H695 0.930 . S
C708 C707 1.376 . S
C708 C709 1.388 . S
C709 H696 0.930 . S
C709 C708 1.388 . S
C709 C710 1.390 . S
C710 C709 1.390 . S
C710 C711 1.394 . S
C710 C716 1.465 . S
C711 C706 1.399 . S
C711 C710 1.394 . S
C711 C712 1.516 1_554 S
C712 C711 1.516 1_556 S
C712 C713 1.502 . S
C712 C714 1.561 . S
C712 C715 1.526 1_556 S
C713 H697 0.959 . S
C713 H698 0.959 . S
C713 H699 0.961 . S
C713 C712 1.502 . S
C714 H700 0.960 . S
C714 H701 0.961 . S
C714 H702 0.959 . S
C714 C712 1.561 . S
C715 C712 1.526 1_554 S
C715 C716 1.396 . S
C715 C720 1.390 . S
C716 C710 1.465 . S
C716 C715 1.396 . S
C716 C717 1.399 . S
C717 H703 0.929 . S
C717 C716 1.399 . S
C717 C718 1.385 . S
C718 H704 0.931 . S
C718 C717 1.385 . S
C718 C719 1.389 . S
C719 C718 1.389 . S
C719 C720 1.387 . S
C720 H705 0.930 1_554 S
C720 C715 1.390 . S
C720 C719 1.387 . S
H721 C733 0.930 . S
H722 C735 0.930 . S
H723 C736 0.930 . S
H724 C740 0.959 . S
H725 C740 0.959 . S
H726 C740 0.961 . S
H727 C741 0.960 . S
H728 C741 0.961 . S
H729 C741 0.959 . S
H730 C744 0.929 . S
H731 C745 0.931 . S
H732 C747 0.930 . S
C733 H721 0.930 . S
C733 C734 1.399 . S
C733 C738 1.399 . S
C734 C733 1.399 . S
C734 C735 1.376 . S
C735 H722 0.930 . S
C735 C734 1.376 . S
C735 C736 1.388 . S
C736 H723 0.930 . S
C736 C735 1.388 . S
C736 C737 1.390 . S
C737 C736 1.390 . S
C737 C738 1.394 . S
C737 C743 1.465 . S
C738 C733 1.399 . S
C738 C737 1.394 . S
C738 C739 1.516 . S
C739 C738 1.516 . S
C739 C740 1.502 1_556 S
C739 C741 1.561 . S
C739 C742 1.526 . S
C740 H724 0.959 . S
C740 H725 0.959 . S
C740 H726 0.961 . S
C740 C739 1.502 1_554 S
C741 H727 0.960 . S
C741 H728 0.961 . S
C741 H729 0.959 . S
C741 C739 1.561 . S
C742 C739 1.526 . S
C742 C743 1.396 . S
C742 C747 1.390 . S
C743 C737 1.465 . S
C743 C742 1.396 . S
C743 C744 1.399 . S
C744 H730 0.929 . S
C744 C743 1.399 . S
C744 C745 1.385 . S
C745 H731 0.931 . S
C745 C744 1.385 . S
C745 C746 1.389 . S
C746 C745 1.389 . S
C746 C747 1.387 . S
C747 H732 0.930 . S
C747 C742 1.390 . S
C747 C746 1.387 . S
H748 C760 0.930 . S
H749 C762 0.930 . S
H750 C763 0.930 . S
H751 C767 0.959 . S
H752 C767 0.959 . S
H753 C767 0.961 . S
H754 C768 0.960 . S
H755 C768 0.961 . S
H756 C768 0.959 . S
H757 C771 0.929 . S
H758 C772 0.931 . S
H759 C774 0.930 . S
C760 H748 0.930 . S
C760 C761 1.399 . S
C760 C765 1.399 . S
C761 C760 1.399 . S
C761 C762 1.376 . S
C762 H749 0.930 . S
C762 C761 1.376 . S
C762 C763 1.388 . S
C763 H750 0.930 . S
C763 C762 1.388 . S
C763 C764 1.390 . S
C764 C763 1.390 . S
C764 C765 1.394 . S
C764 C770 1.465 . S
C765 C760 1.399 . S
C765 C764 1.394 . S
C765 C766 1.516 . S
C766 C765 1.516 . S
C766 C767 1.502 . S
C766 C768 1.561 . S
C766 C769 1.526 . S
C767 H751 0.959 . S
C767 H752 0.959 . S
C767 H753 0.961 . S
C767 C766 1.502 . S
C768 H754 0.960 . S
C768 H755 0.961 . S
C768 H756 0.959 . S
C768 C766 1.561 . S
C769 C766 1.526 . S
C769 C770 1.396 . S
C769 C774 1.390 . S
C770 C764 1.465 . S
C770 C769 1.396 . S
C770 C771 1.399 . S
C771 H757 0.929 . S
C771 C770 1.399 . S
C771 C772 1.385 . S
C772 H758 0.931 . S
C772 C771 1.385 . S
C772 C773 1.389 . S
C773 C772 1.389 . S
C773 C774 1.387 . S
C774 H759 0.930 . S
C774 C769 1.390 . S
C774 C773 1.387 . S
H775 C787 0.930 . S
H776 C789 0.930 . S
H777 C790 0.930 . S
H778 C794 0.959 . S
H779 C794 0.959 . S
H780 C794 0.961 . S
H781 C795 0.960 . S
H782 C795 0.961 . S
H783 C795 0.959 . S
H784 C798 0.929 . S
H785 C799 0.931 . S
H786 C801 0.930 . S
C787 H775 0.930 . S
C787 C788 1.399 . S
C787 C792 1.399 . S
C788 C787 1.399 . S
C788 C789 1.376 . S
C789 H776 0.930 . S
C789 C788 1.376 . S
C789 C790 1.388 . S
C790 H777 0.930 . S
C790 C789 1.388 . S
C790 C791 1.390 . S
C791 C790 1.390 . S
C791 C792 1.394 . S
C791 C797 1.465 . S
C792 C787 1.399 . S
C792 C791 1.394 . S
C792 C793 1.516 . S
C793 C792 1.516 . S
C793 C794 1.502 . S
C793 C795 1.561 . S
C793 C796 1.526 . S
C794 H778 0.959 . S
C794 H779 0.959 . S
C794 H780 0.961 . S
C794 C793 1.502 . S
C795 H781 0.960 . S
C795 H782 0.961 . S
C795 H783 0.959 . S
C795 C793 1.561 . S
C796 C793 1.526 . S
C796 C797 1.396 . S
C796 C801 1.390 . S
C797 C791 1.465 . S
C797 C796 1.396 . S
C797 C798 1.399 . S
C798 H784 0.929 . S
C798 C797 1.399 . S
C798 C799 1.385 . S
C799 H785 0.931 . S
C799 C798 1.385 . S
C799 C800 1.389 . S
C800 C799 1.389 . S
C800 C801 1.387 . S
C801 H786 0.930 . S
C801 C796 1.390 . S
C801 C800 1.387 . S
H802 C814 0.930 . S
H803 C816 0.930 . S
H804 C817 0.930 . S
H805 C821 0.959 . S
H806 C821 0.959 . S
H807 C821 0.961 . S
H808 C822 0.960 . S
H809 C822 0.961 . S
H810 C822 0.959 . S
H811 C825 0.929 . S
H812 C826 0.931 . S
H813 C828 0.930 . S
C814 H802 0.930 . S
C814 C815 1.399 . S
C814 C819 1.399 . S
C815 C814 1.399 . S
C815 C816 1.376 . S
C816 H803 0.930 . S
C816 C815 1.376 . S
C816 C817 1.388 . S
C817 H804 0.930 . S
C817 C816 1.388 . S
C817 C818 1.390 . S
C818 C817 1.390 . S
C818 C819 1.394 . S
C818 C824 1.465 . S
C819 C814 1.399 . S
C819 C818 1.394 . S
C819 C820 1.516 . S
C820 C819 1.516 . S
C820 C821 1.502 . S
C820 C822 1.561 . S
C820 C823 1.526 . S
C821 H805 0.959 . S
C821 H806 0.959 . S
C821 H807 0.961 . S
C821 C820 1.502 . S
C822 H808 0.960 . S
C822 H809 0.961 . S
C822 H810 0.959 . S
C822 C820 1.561 . S
C823 C820 1.526 . S
C823 C824 1.396 . S
C823 C828 1.390 . S
C824 C818 1.465 . S
C824 C823 1.396 . S
C824 C825 1.399 . S
C825 H811 0.929 . S
C825 C824 1.399 . S
C825 C826 1.385 . S
C826 H812 0.931 . S
C826 C825 1.385 . S
C826 C827 1.389 . S
C827 C826 1.389 . S
C827 C828 1.387 . S
C828 H813 0.930 . S
C828 C823 1.390 . S
C828 C827 1.387 . S
H829 C841 0.930 . S
H830 C843 0.930 . S
H831 C844 0.930 . S
H832 C848 0.959 . S
H833 C848 0.959 . S
H834 C848 0.961 . S
H835 C849 0.960 . S
H836 C849 0.961 . S
H837 C849 0.959 . S
H838 C852 0.929 . S
H839 C853 0.931 . S
H840 C855 0.930 . S
C841 H829 0.930 . S
C841 C842 1.399 . S
C841 C846 1.399 . S
C842 C841 1.399 . S
C842 C843 1.376 . S
C843 H830 0.930 . S
C843 C842 1.376 . S
C843 C844 1.388 . S
C844 H831 0.930 . S
C844 C843 1.388 . S
C844 C845 1.390 . S
C845 C844 1.390 . S
C845 C846 1.394 . S
C845 C851 1.465 . S
C846 C841 1.399 . S
C846 C845 1.394 . S
C846 C847 1.516 . S
C847 C846 1.516 . S
C847 C848 1.502 . S
C847 C849 1.561 . S
C847 C850 1.526 . S
C848 H832 0.959 . S
C848 H833 0.959 . S
C848 H834 0.961 . S
C848 C847 1.502 . S
C849 H835 0.960 . S
C849 H836 0.961 . S
C849 H837 0.959 . S
C849 C847 1.561 . S
C850 C847 1.526 . S
C850 C851 1.396 . S
C850 C855 1.390 . S
C851 C845 1.465 . S
C851 C850 1.396 . S
C851 C852 1.399 . S
C852 H838 0.929 . S
C852 C851 1.399 . S
C852 C853 1.385 . S
C853 H839 0.931 . S
C853 C852 1.385 . S
C853 C854 1.389 . S
C854 C853 1.389 . S
C854 C855 1.387 . S
C855 H840 0.930 . S
C855 C850 1.390 . S
C855 C854 1.387 . S
H856 C868 0.930 . S
H857 C870 0.930 . S
H858 C871 0.930 . S
H859 C875 0.959 1_554 S
H860 C875 0.959 . S
H861 C875 0.961 . S
H862 C876 0.960 . S
H863 C876 0.961 . S
H864 C876 0.959 . S
H865 C879 0.929 . S
H866 C880 0.931 1_554 S
H867 C882 0.930 . S
C868 H856 0.930 . S
C868 C869 1.399 . S
C868 C873 1.399 . S
C869 C868 1.399 . S
C869 C870 1.376 . S
C870 H857 0.930 . S
C870 C869 1.376 . S
C870 C871 1.388 . S
C871 H858 0.930 . S
C871 C870 1.388 . S
C871 C872 1.390 . S
C872 C871 1.390 . S
C872 C873 1.394 . S
C872 C878 1.465 . S
C873 C868 1.399 . S
C873 C872 1.394 . S
C873 C874 1.516 . S
C874 C873 1.516 . S
C874 C875 1.502 . S
C874 C876 1.561 . S
C874 C877 1.526 . S
C875 H859 0.959 1_556 S
C875 H860 0.959 . S
C875 H861 0.961 . S
C875 C874 1.502 . S
C876 H862 0.960 . S
C876 H863 0.961 . S
C876 H864 0.959 . S
C876 C874 1.561 . S
C877 C874 1.526 . S
C877 C878 1.396 . S
C877 C882 1.390 . S
C878 C872 1.465 . S
C878 C877 1.396 . S
C878 C879 1.399 . S
C879 H865 0.929 . S
C879 C878 1.399 . S
C879 C880 1.385 . S
C880 H866 0.931 1_556 S
C880 C879 1.385 . S
C880 C881 1.389 1_556 S
C881 C880 1.389 1_554 S
C881 C882 1.387 1_554 S
C882 H867 0.930 . S
C882 C877 1.390 . S
C882 C881 1.387 1_556 S
H883 C895 0.930 . S
H884 C897 0.930 . S
H885 C898 0.930 . S
H886 C902 0.959 . S
H887 C902 0.959 . S
H888 C902 0.961 . S
H889 C903 0.960 . S
H890 C903 0.961 . S
H891 C903 0.959 . S
H892 C906 0.929 . S
H893 C907 0.931 . S
H894 C909 0.930 . S
C895 H883 0.930 . S
C895 C896 1.399 . S
C895 C900 1.399 . S
C896 C895 1.399 . S
C896 C897 1.376 . S
C897 H884 0.930 . S
C897 C896 1.376 . S
C897 C898 1.388 . S
C898 H885 0.930 . S
C898 C897 1.388 . S
C898 C899 1.390 . S
C899 C898 1.390 . S
C899 C900 1.394 . S
C899 C905 1.465 . S
C900 C895 1.399 . S
C900 C899 1.394 . S
C900 C901 1.516 1_554 S
C901 C900 1.516 1_556 S
C901 C902 1.502 . S
C901 C903 1.561 . S
C901 C904 1.526 1_556 S
C902 H886 0.959 . S
C902 H887 0.959 . S
C902 H888 0.961 . S
C902 C901 1.502 . S
C903 H889 0.960 . S
C903 H890 0.961 . S
C903 H891 0.959 . S
C903 C901 1.561 . S
C904 C901 1.526 1_554 S
C904 C905 1.396 . S
C904 C909 1.390 1_554 S
C905 C899 1.465 . S
C905 C904 1.396 . S
C905 C906 1.399 . S
C906 H892 0.929 . S
C906 C905 1.399 . S
C906 C907 1.385 . S
C907 H893 0.931 . S
C907 C906 1.385 . S
C907 C908 1.389 1_554 S
C908 C907 1.389 1_556 S
C908 C909 1.387 . S
C909 H894 0.930 . S
C909 C904 1.390 1_556 S
C909 C908 1.387 . S
H910 C922 0.930 . S
H911 C924 0.930 . S
H912 C925 0.930 . S
H913 C929 0.959 . S
H914 C929 0.959 . S
H915 C929 0.961 . S
H916 C930 0.960 . S
H917 C930 0.961 . S
H918 C930 0.959 . S
H919 C933 0.929 . S
H920 C934 0.931 . S
H921 C936 0.930 . S
C922 H910 0.930 . S
C922 C923 1.399 . S
C922 C927 1.399 1_554 S
C923 C922 1.399 . S
C923 C924 1.376 1_554 S
C924 H911 0.930 . S
C924 C923 1.376 1_556 S
C924 C925 1.388 . S
C925 H912 0.930 . S
C925 C924 1.388 . S
C925 C926 1.390 . S
C926 C925 1.390 . S
C926 C927 1.394 . S
C926 C932 1.465 . S
C927 C922 1.399 1_556 S
C927 C926 1.394 . S
C927 C928 1.516 . S
C928 C927 1.516 . S
C928 C929 1.502 1_556 S
C928 C930 1.561 . S
C928 C931 1.526 . S
C929 H913 0.959 . S
C929 H914 0.959 . S
C929 H915 0.961 . S
C929 C928 1.502 1_554 S
C930 H916 0.960 . S
C930 H917 0.961 . S
C930 H918 0.959 . S
C930 C928 1.561 . S
C931 C928 1.526 . S
C931 C932 1.396 . S
C931 C936 1.390 . S
C932 C926 1.465 . S
C932 C931 1.396 . S
C932 C933 1.399 . S
C933 H919 0.929 . S
C933 C932 1.399 . S
C933 C934 1.385 . S
C934 H920 0.931 . S
C934 C933 1.385 . S
C934 C935 1.389 . S
C935 C934 1.389 . S
C935 C936 1.387 . S
C936 H921 0.930 . S
C936 C931 1.390 . S
C936 C935 1.387 . S
H937 C949 0.930 . S
H938 C951 0.930 . S
H939 C952 0.930 1_556 S
H940 C956 0.959 . S
H941 C956 0.959 . S
H942 C956 0.961 . S
H943 C957 0.960 . S
H944 C957 0.961 . S
H945 C957 0.959 . S
H946 C960 0.929 . S
H947 C961 0.931 . S
H948 C963 0.930 . S
C949 H937 0.930 . S
C949 C950 1.399 . S
C949 C954 1.399 . S
C950 C949 1.399 . S
C950 C951 1.376 . S
C951 H938 0.930 . S
C951 C950 1.376 . S
C951 C952 1.388 . S
C952 H939 0.930 1_554 S
C952 C951 1.388 . S
C952 C953 1.390 . S
C953 C952 1.390 . S
C953 C954 1.394 . S
C953 C959 1.465 . S
C954 C949 1.399 . S
C954 C953 1.394 . S
C954 C955 1.516 . S
C955 C954 1.516 . S
C955 C956 1.502 . S
C955 C957 1.561 . S
C955 C958 1.526 . S
C956 H940 0.959 . S
C956 H941 0.959 . S
C956 H942 0.961 . S
C956 C955 1.502 . S
C957 H943 0.960 . S
C957 H944 0.961 . S
C957 H945 0.959 . S
C957 C955 1.561 . S
C958 C955 1.526 . S
C958 C959 1.396 . S
C958 C963 1.390 . S
C959 C953 1.465 . S
C959 C958 1.396 . S
C959 C960 1.399 1_554 S
C960 H946 0.929 . S
C960 C959 1.399 1_556 S
C960 C961 1.385 . S
C961 H947 0.931 . S
C961 C960 1.385 . S
C961 C962 1.389 . S
C962 C961 1.389 . S
C962 C963 1.387 1_556 S
C963 H948 0.930 . S
C963 C958 1.390 . S
C963 C962 1.387 1_554 S
H964 C976 0.930 . S
H965 C978 0.930 . S
H966 C979 0.930 . S
H967 C983 0.959 . S
H968 C983 0.959 . S
H969 C983 0.961 . S
H970 C984 0.960 . S
H971 C984 0.961 . S
H972 C984 0.959 . S
H973 C987 0.929 . S
H974 C988 0.931 . S
H975 C990 0.930 . S
C976 H964 0.930 . S
C976 C977 1.399 . S
C976 C981 1.399 . S
C977 C976 1.399 . S
C977 C978 1.376 . S
C978 H965 0.930 . S
C978 C977 1.376 . S
C978 C979 1.388 . S
C979 H966 0.930 . S
C979 C978 1.388 . S
C979 C980 1.390 . S
C980 C979 1.390 . S
C980 C981 1.394 . S
C980 C986 1.465 . S
C981 C976 1.399 . S
C981 C980 1.394 . S
C981 C982 1.516 . S
C982 C981 1.516 . S
C982 C983 1.502 . S
C982 C984 1.561 . S
C982 C985 1.526 . S
C983 H967 0.959 . S
C983 H968 0.959 . S
C983 H969 0.961 . S
C983 C982 1.502 . S
C984 H970 0.960 . S
C984 H971 0.961 . S
C984 H972 0.959 . S
C984 C982 1.561 . S
C985 C982 1.526 . S
C985 C986 1.396 . S
C985 C990 1.390 . S
C986 C980 1.465 . S
C986 C985 1.396 . S
C986 C987 1.399 . S
C987 H973 0.929 . S
C987 C986 1.399 . S
C987 C988 1.385 . S
C988 H974 0.931 . S
C988 C987 1.385 . S
C988 C989 1.389 . S
C989 C988 1.389 . S
C989 C990 1.387 . S
C990 H975 0.930 . S
C990 C985 1.390 . S
C990 C989 1.387 . S
H991 C1003 0.930 . S
H992 C1005 0.930 . S
H993 C1006 0.930 . S
H994 C1010 0.959 . S
H995 C1010 0.959 . S
H996 C1010 0.961 . S
H997 C1011 0.960 . S
H998 C1011 0.961 . S
H999 C1011 0.959 . S
H1000 C1014 0.929 . S
H1001 C1015 0.931 . S
H1002 C1017 0.930 . S
C1003 H991 0.930 . S
C1003 C1004 1.399 . S
C1003 C1008 1.399 . S
C1004 C1003 1.399 . S
C1004 C1005 1.376 . S
C1005 H992 0.930 . S
C1005 C1004 1.376 . S
C1005 C1006 1.388 . S
C1006 H993 0.930 . S
C1006 C1005 1.388 . S
C1006 C1007 1.390 . S
C1007 C1006 1.390 . S
C1007 C1008 1.394 . S
C1007 C1013 1.465 . S
C1008 C1003 1.399 . S
C1008 C1007 1.394 . S
C1008 C1009 1.516 . S
C1009 C1008 1.516 . S
C1009 C1010 1.502 . S
C1009 C1011 1.561 . S
C1009 C1012 1.526 . S
C1010 H994 0.959 . S
C1010 H995 0.959 . S
C1010 H996 0.961 . S
C1010 C1009 1.502 . S
C1011 H997 0.960 . S
C1011 H998 0.961 . S
C1011 H999 0.959 . S
C1011 C1009 1.561 . S
C1012 C1009 1.526 . S
C1012 C1013 1.396 . S
C1012 C1017 1.390 . S
C1013 C1007 1.465 . S
C1013 C1012 1.396 . S
C1013 C1014 1.399 . S
C1014 H1000 0.929 . S
C1014 C1013 1.399 . S
C1014 C1015 1.385 . S
C1015 H1001 0.931 . S
C1015 C1014 1.385 . S
C1015 C1016 1.389 . S
C1016 C1015 1.389 . S
C1016 C1017 1.387 . S
C1017 H1002 0.930 . S
C1017 C1012 1.390 . S
C1017 C1016 1.387 . S
H1018 C1030 0.930 . S
H1019 C1032 0.930 . S
H1020 C1033 0.930 . S
H1021 C1037 0.959 . S
H1022 C1037 0.959 . S
H1023 C1037 0.961 . S
H1024 C1038 0.960 . S
H1025 C1038 0.961 . S
H1026 C1038 0.959 . S
H1027 C1041 0.929 . S
H1028 C1042 0.931 . S
H1029 C1044 0.930 . S
C1030 H1018 0.930 . S
C1030 C1031 1.399 . S
C1030 C1035 1.399 . S
C1031 C1030 1.399 . S
C1031 C1032 1.376 . S
C1032 H1019 0.930 . S
C1032 C1031 1.376 . S
C1032 C1033 1.388 . S
C1033 H1020 0.930 . S
C1033 C1032 1.388 . S
C1033 C1034 1.390 . S
C1034 C1033 1.390 . S
C1034 C1035 1.394 . S
C1034 C1040 1.465 . S
C1035 C1030 1.399 . S
C1035 C1034 1.394 . S
C1035 C1036 1.516 . S
C1036 C1035 1.516 . S
C1036 C1037 1.502 . S
C1036 C1038 1.561 . S
C1036 C1039 1.526 . S
C1037 H1021 0.959 . S
C1037 H1022 0.959 . S
C1037 H1023 0.961 . S
C1037 C1036 1.502 . S
C1038 H1024 0.960 . S
C1038 H1025 0.961 . S
C1038 H1026 0.959 . S
C1038 C1036 1.561 . S
C1039 C1036 1.526 . S
C1039 C1040 1.396 . S
C1039 C1044 1.390 . S
C1040 C1034 1.465 . S
C1040 C1039 1.396 . S
C1040 C1041 1.399 . S
C1041 H1027 0.929 . S
C1041 C1040 1.399 . S
C1041 C1042 1.385 . S
C1042 H1028 0.931 . S
C1042 C1041 1.385 . S
C1042 C1043 1.389 . S
C1043 C1042 1.389 . S
C1043 C1044 1.387 . S
C1044 H1029 0.930 . S
C1044 C1039 1.390 . S
C1044 C1043 1.387 . S
H1045 C1057 0.930 . S
H1046 C1059 0.930 . S
H1047 C1060 0.930 . S
H1048 C1064 0.959 . S
H1049 C1064 0.959 . S
H1050 C1064 0.961 . S
H1051 C1065 0.960 . S
H1052 C1065 0.961 . S
H1053 C1065 0.959 . S
H1054 C1068 0.929 . S
H1055 C1069 0.931 . S
H1056 C1071 0.930 . S
C1057 H1045 0.930 . S
C1057 C1058 1.399 . S
C1057 C1062 1.399 . S
C1058 C1057 1.399 . S
C1058 C1059 1.376 . S
C1059 H1046 0.930 . S
C1059 C1058 1.376 . S
C1059 C1060 1.388 . S
C1060 H1047 0.930 . S
C1060 C1059 1.388 . S
C1060 C1061 1.390 . S
C1061 C1060 1.390 . S
C1061 C1062 1.394 . S
C1061 C1067 1.465 . S
C1062 C1057 1.399 . S
C1062 C1061 1.394 . S
C1062 C1063 1.516 . S
C1063 C1062 1.516 . S
C1063 C1064 1.502 . S
C1063 C1065 1.561 . S
C1063 C1066 1.526 . S
C1064 H1048 0.959 . S
C1064 H1049 0.959 . S
C1064 H1050 0.961 . S
C1064 C1063 1.502 . S
C1065 H1051 0.960 . S
C1065 H1052 0.961 . S
C1065 H1053 0.959 . S
C1065 C1063 1.561 . S
C1066 C1063 1.526 . S
C1066 C1067 1.396 . S
C1066 C1071 1.390 . S
C1067 C1061 1.465 . S
C1067 C1066 1.396 . S
C1067 C1068 1.399 . S
C1068 H1054 0.929 . S
C1068 C1067 1.399 . S
C1068 C1069 1.385 . S
C1069 H1055 0.931 . S
C1069 C1068 1.385 . S
C1069 C1070 1.389 . S
C1070 C1069 1.389 . S
C1070 C1071 1.387 . S
C1071 H1056 0.930 . S
C1071 C1066 1.390 . S
C1071 C1070 1.387 . S
C221 C153 1.517 . S
C233 C3 1.498 . S
C248 C16 1.503 . S
C260 C114 1.499 . S
C275 C29 1.521 . S
C287 C127 1.522 . S
C302 C140 1.480 . S
C314 C42 1.484 . S
C329 C55 1.502 . S
C341 C75 1.509 . S
C356 C68 1.495 . S
C368 C88 1.495 . S
C383 C101 1.516 . S
C395 C81 1.497 . S
C410 C62 1.520 . S
C422 C94 1.519 . S
C437 C49 1.512 . S
C449 C107 1.518 . S
C464 C120 1.494 . S
C476 C10 1.490 . S
C491 C23 1.515 . S
C503 C133 1.523 . S
C518 C146 1.493 . S
C530 C36 1.492 . S
C545 C159 1.518 . S
C557 C179 1.523 . S
C572 C172 1.495 . S
C584 C192 1.495 . S
C599 C205 1.517 . S
C611 C185 1.498 . S
C626 C166 1.500 . S
C638 C198 1.504 . S
C653 C53 1.515 . S
C665 C1 1.505 . S
C680 C14 1.509 . S
C692 C66 1.482 . S
C707 C27 1.516 . S
C719 C79 1.508 . S
C734 C92 1.505 . S
C746 C40 1.485 . S
C761 C105 1.503 . S
C773 C157 1.513 . S
C788 C170 1.510 . S
C800 C118 1.480 . S
C815 C131 1.498 . S
C827 C183 1.507 . S
C842 C196 1.482 . S
C854 C144 1.504 . S
C869 C187 1.527 . S
C881 C5 1.513 . S
C896 C200 1.540 . S
C908 C18 1.548 . S
C923 C31 1.488 . S
C935 C161 1.523 . S
C950 C174 1.545 . S
C962 C44 1.538 . S
C977 C135 1.536 . S
C989 C57 1.501 . S
C1004 C148 1.541 . S
C1016 C70 1.548 . S
C1031 C83 1.538 . S
C1043 C109 1.496 . S
C1058 C122 1.543 . S
C1070 C96 1.538 . S
