# Generated by pormake.
# Topology qtz-x, (6)-cn, num edge types: 1
# Building blocks:
#     Node 0, Type 0, BuildingBlock: INOVEN_clean_sbu_0, # of connection points: 6
#     Node 1, Type 0, BuildingBlock: INOVEN_clean_sbu_0, # of connection points: 6
#     Node 2, Type 0, BuildingBlock: INOVEN_clean_sbu_0, # of connection points: 6
#     Edge 3, Type (0, 0), BuildingBlock: XUDNAN_clean_linker_2, # of connection points: 2
#     Edge 4, Type (0, 0), BuildingBlock: XUDNAN_clean_linker_2, # of connection points: 2
#     Edge 5, Type (0, 0), BuildingBlock: XUDNAN_clean_linker_2, # of connection points: 2
#     Edge 6, Type (0, 0), BuildingBlock: XUDNAN_clean_linker_2, # of connection points: 2
#     Edge 7, Type (0, 0), BuildingBlock: XUDNAN_clean_linker_2, # of connection points: 2
#     Edge 8, Type (0, 0), BuildingBlock: XUDNAN_clean_linker_2, # of connection points: 2
#     Edge 9, Type (0, 0), BuildingBlock: XUDNAN_clean_linker_2, # of connection points: 2
#     Edge 10, Type (0, 0), BuildingBlock: XUDNAN_clean_linker_2, # of connection points: 2
#     Edge 11, Type (0, 0), BuildingBlock: XUDNAN_clean_linker_2, # of connection points: 2
# Relax obj value: 0.224
# Max RMSD: 0.267
# Mean RMSD: 0.239
data_MOF--net-qtz-x--node1-INOVEN_clean_sbu_0--edge1-XUDNAN_clean_linker_2
_symmetry_space_group_name_H-M    P1
_symmetry_Int_Tables_number       1
_symmetry_cell_setting            triclinic
loop_
_symmetry_equiv_pos_as_xyz
'x, y, z'
_cell_length_a     14.910892
_cell_length_b     14.751157
_cell_length_c     53.069717
_cell_angle_alpha  69.988665
_cell_angle_beta   114.73696
_cell_angle_gamma 121.36592
loop_
_atom_site_label
_atom_site_type_symbol
_atom_site_fract_x
_atom_site_fract_y
_atom_site_fract_z
_atom_type_partial_charge
Gd0 Gd 1.01333 0.62582 0.19666 0.0
Gd1 Gd 0.21869 0.76165 0.18387 0.0
C2 C 0.24131 0.72294 0.24639 0.0
C3 C 0.86694 0.47985 0.2218 0.0
C4 C 0.85488 0.44962 0.25038 0.0
C5 C 0.7554 0.42658 0.2532 0.0
C6 C 0.93839 0.43705 0.2748 0.0
C7 C 0.81964 0.3722 0.30394 0.0
C8 C 0.92118 0.39938 0.30131 0.0
C9 C 0.73794 0.38839 0.2796 0.0
C10 C 0.05633 0.83627 0.18441 0.0
C11 C 0.99977 0.68606 0.13176 0.0
C12 C 0.37854 0.90148 0.16361 0.0
C13 C 0.40931 0.90115 0.14091 0.0
C14 C 0.40149 0.80616 0.13792 0.0
C15 C 0.43407 -0.00765 0.12027 0.0
C16 C 0.43615 0.89158 0.09291 0.0
C17 C 0.44735 -0.01232 0.09634 0.0
C18 C 0.41618 0.80191 0.11426 0.0
C19 C 0.16355 0.5469 0.19305 0.0
O20 O 0.14384 0.6406 0.23962 0.0
O21 O 0.28174 0.79655 0.2267 0.0
O22 O 0.86222 0.56899 0.20655 0.0
O23 O 0.94233 0.46582 0.21943 0.0
O24 O 0.96103 0.75722 0.17589 0.0
O25 O 0.12668 0.80019 0.19936 0.0
O26 O 0.09904 0.7623 0.1408 0.0
O27 O 0.94863 0.6099 0.1501 0.0
O28 O 0.38956 0.83085 0.18623 0.0
O29 O 0.28555 0.90696 0.15555 0.0
O30 O 0.26283 0.62079 0.20094 0.0
O31 O 0.09981 0.59024 0.17952 0.0
H32 H 0.6898 0.43559 0.23483 0.0
H33 H 1.0158 0.45322 0.27334 0.0
H34 H 0.98557 0.38727 0.31955 0.0
H35 H 0.65938 0.36993 0.28089 0.0
H36 H 0.38051 0.73401 0.15337 0.0
H37 H 0.43837 0.06555 0.12211 0.0
H38 H 0.46076 0.0574 0.07995 0.0
H39 H 0.40862 0.72731 0.1123 0.0
Gd40 Gd 0.872 0.15506 0.55998 0.0
Gd41 Gd 0.74582 0.92557 0.55326 0.0
C42 C 0.81155 0.96991 0.61407 0.0
C43 C 0.97514 0.33863 0.57644 0.0
C44 C 0.99809 0.38175 0.6007 0.0
C45 C 0.10831 0.43874 0.61553 0.0
C46 C 0.91401 0.36552 0.60975 0.0
C47 C 1.05154 0.46824 0.64747 0.0
C48 C 0.94067 0.40907 0.63295 0.0
C49 C 0.13486 0.48075 0.63881 0.0
C50 C 0.99035 0.07275 0.55601 0.0
C51 C 0.77157 0.11505 0.49784 0.0
C52 C 0.6964 0.75638 0.53668 0.0
C53 C 0.6395 0.72996 0.50782 0.0
C54 C 0.53528 0.72791 0.49237 0.0
C55 C 0.69816 0.72415 0.49399 0.0
C56 C 0.55562 0.72548 0.44954 0.0
C57 C 0.65697 0.7225 0.46514 0.0
C58 C 0.49324 0.72468 0.46345 0.0
C59 C 0.59185 -0.01747 0.54838 0.0
O60 O 0.83844 0.07104 0.60165 0.0
O61 O 0.78309 0.89399 0.60051 0.0
O62 O 1.02122 0.27651 0.58184 0.0
O63 O 0.87463 0.30436 0.55919 0.0
O64 O 0.99187 0.16481 0.54275 0.0
O65 O 0.92375 0.02661 0.57043 0.0
O66 O 0.74506 0.01311 0.50899 0.0
O67 O 0.81353 0.18922 0.51321 0.0
O68 O 0.63875 0.75649 0.54973 0.0
O69 O 0.79369 0.83889 0.53975 0.0
O70 O 0.57286 0.88973 0.54575 0.0
O71 O 0.69431 0.04569 0.55263 0.0
H72 H 0.17426 0.45058 0.6091 0.0
H73 H 0.82819 0.32021 0.59886 0.0
H74 H 0.87467 0.39832 0.63913 0.0
H75 H 0.22097 0.52315 0.65002 0.0
H76 H 0.48864 0.73416 0.50226 0.0
H77 H 0.77905 0.72704 0.50524 0.0
H78 H 0.70637 0.72304 0.45479 0.0
H79 H 0.41531 0.72806 0.45171 0.0
Gd80 Gd 0.81204 0.88983 0.86353 0.0
Gd81 Gd 0.95397 0.789 0.87902 0.0
C82 C 0.90415 0.79992 0.9293 0.0
C83 C 0.6774 0.95595 0.85991 0.0
C84 C 0.62705 0.94277 0.8801 0.0
C85 C 0.62172 0.03098 0.88278 0.0
C86 C 0.5937 0.84555 0.89855 0.0
C87 C 0.54576 0.92362 0.92147 0.0
C88 C 0.55307 0.83601 0.91904 0.0
C89 C 0.58138 0.02158 0.90343 0.0
C90 C 1.0174 0.03091 0.86213 0.0
C91 C 0.8404 0.85869 0.81191 0.0
C92 C 0.09885 0.73719 0.88216 0.0
C93 C 0.12405 0.72581 0.85977 0.0
C94 C 0.11158 0.62564 0.85905 0.0
C95 C 0.14887 0.81058 0.83745 0.0
C96 C 0.14478 0.69391 0.81362 0.0
C97 C 0.15989 0.79489 0.8147 0.0
C98 C 0.12154 0.60963 0.83611 0.0
C99 C 0.7419 0.64684 0.87558 0.0
O100 O 0.82121 0.81517 0.90921 0.0
O101 O 0.98204 0.80216 0.92303 0.0
O102 O 0.7839 0.01451 0.8667 0.0
O103 O 0.64524 0.86898 0.85058 0.0
O104 O 0.92976 0.035 0.84312 0.0
O105 O 0.99403 0.95227 0.88167 0.0
O106 O 0.9207 0.83479 0.83096 0.0
O107 O 0.77546 0.87164 0.81983 0.0
O108 O 1.00254 0.66597 0.88532 0.0
O109 O 0.1225 0.83466 0.88339 0.0
O110 O 0.82498 0.63521 0.89543 0.0
O111 O 0.77476 0.7314 0.85847 0.0
H112 H 0.64992 0.1073 0.86911 0.0
H113 H 0.60033 0.77739 0.89741 0.0
H114 H 0.52883 0.76051 0.93326 0.0
H115 H 0.57715 0.09025 0.90515 0.0
H116 H 0.09122 0.55895 0.8759 0.0
H117 H 0.15703 0.88833 0.83713 0.0
H118 H 0.17743 0.86123 0.79765 0.0
H119 H 0.11077 0.53131 0.83594 0.0
H120 H 0.22337 0.04722 0.18256 0.0
H121 H 0.90088 0.84653 0.19514 0.0
H122 H 0.8965 0.00501 0.19914 0.0
H123 H 0.33178 0.23623 0.22957 0.0
H124 H 0.39803 0.35334 0.20647 0.0
H125 H 0.37976 0.22386 0.2054 0.0
H126 H 0.278 0.24542 0.15206 0.0
H127 H 0.2951 0.37459 0.15305 0.0
H128 H 0.15957 0.27099 0.13979 0.0
H129 H 0.91571 0.18317 0.19732 0.0
H130 H 0.96852 0.37288 0.1953 0.0
H131 H 0.28536 0.46531 0.18816 0.0
C132 C 0.15276 0.03708 0.18649 0.0
C133 C 0.06205 0.93431 0.18839 0.0
C134 C 0.97059 0.92429 0.19325 0.0
C135 C 0.96732 0.01395 0.19562 0.0
C136 C 0.056 0.11418 0.19297 0.0
C137 C 0.14759 0.12699 0.1887 0.0
C138 C 0.22926 0.24572 0.18568 0.0
C139 C 0.34135 0.2659 0.20814 0.0
C140 C 0.24122 0.28659 0.15589 0.0
C141 C 0.17115 0.29587 0.19026 0.0
C142 C 0.06988 0.21825 0.19356 0.0
C143 C 0.99616 0.24444 0.19557 0.0
C144 C 1.02726 0.35266 0.19467 0.0
C145 C 0.13289 0.43351 0.19304 0.0
C146 C 0.20558 0.40463 0.19054 0.0
H147 H 0.52792 0.14944 0.53173 0.0
H148 H 0.466 0.83078 0.58064 0.0
H149 H 0.30986 0.8203 0.5886 0.0
H150 H 0.44843 0.23577 0.57437 0.0
H151 H 0.3833 0.30786 0.54418 0.0
H152 H 0.49703 0.29552 0.54394 0.0
H153 H 0.37668 0.21258 0.4982 0.0
H154 H 0.2625 0.22387 0.49847 0.0
H155 H 0.24654 0.09518 0.49751 0.0
H156 H 0.15207 0.83663 0.58931 0.0
H157 H 1.00834 0.88512 0.58404 0.0
H158 H 0.1655 0.19119 0.53442 0.0
C159 C 0.48308 0.07893 0.54466 0.0
C160 C 0.51025 -0.00887 0.5557 0.0
C161 C 0.44737 0.89919 0.57197 0.0
C162 C 0.35806 0.89221 0.57664 0.0
C163 C 0.33111 0.97797 0.56496 0.0
C164 C 0.39197 0.07018 0.5495 0.0
C165 C 0.34143 0.14854 0.53858 0.0
C166 C 0.42237 0.25313 0.55101 0.0
C167 C 0.30462 0.17136 0.50627 0.0
C168 C 0.24266 0.08502 0.54993 0.0
C169 C 0.23876 -0.01298 0.56522 0.0
C170 C 0.15469 0.91363 0.57751 0.0
C171 C 0.07306 0.94157 0.57437 0.0
C172 C 0.0752 0.04168 0.55886 0.0
C173 C 0.16127 0.11385 0.54642 0.0
H174 H 0.20879 0.11572 0.90507 0.0
H175 H 0.07156 0.13232 0.81451 0.0
H176 H 0.24367 0.28918 0.80841 0.0
H177 H 0.34606 0.39797 0.90397 0.0
H178 H 0.46635 0.39989 0.93289 0.0
H179 H 0.33625 0.28192 0.93108 0.0
H180 H 0.42351 0.16465 0.93361 0.0
H181 H 0.55438 0.28257 0.93589 0.0
H182 H 0.49558 0.20262 0.90887 0.0
H183 H 0.41878 0.45347 0.81127 0.0
H184 H 0.6011 0.60794 0.82348 0.0
H185 H 0.63311 0.48599 0.91214 0.0
C186 C 0.21676 0.15088 0.8841 0.0
C187 C 0.12772 0.11211 0.86021 0.0
C188 C 0.13931 0.16126 0.83302 0.0
C189 C 0.23652 0.25038 0.82932 0.0
C190 C 0.32157 0.28957 0.85308 0.0
C191 C 0.31381 0.24121 0.87998 0.0
C192 C 0.41678 0.30366 0.90165 0.0
C193 C 0.38968 0.34846 0.91839 0.0
C194 C 0.47608 0.23415 0.92118 0.0
C195 C 0.48294 0.39362 0.88269 0.0
C196 C 0.42542 0.38438 0.85474 0.0
C197 C 0.46569 0.46089 0.83309 0.0
C198 C 0.56878 0.54855 0.84021 0.0
C199 C 0.63091 0.55771 0.8687 0.0
C200 C 0.58743 0.47953 0.89021 0.0
H201 H 0.63273 0.06072 0.95856 0.0
H202 H 0.36075 0.75838 0.93314 0.0
H203 H 0.29956 0.72303 0.97344 0.0
H204 H 0.69789 0.97014 1.03017 0.0
H205 H 0.72865 0.08898 0.04103 0.0
H206 H 0.74579 0.09954 1.00838 0.0
H207 H 0.61711 0.1916 0.98187 0.0
H208 H 0.59946 0.1819 1.01437 0.0
H209 H 0.48056 0.12637 0.98545 0.0
H210 H 0.28425 0.70639 1.01871 0.0
H211 H 0.29783 0.72025 0.06503 0.0
H212 H 0.57218 0.03849 0.06062 0.0
C213 C 0.55847 -0.01117 0.96109 0.0
C214 C 0.50157 0.91156 0.94307 0.0
C215 C 0.40593 0.81743 0.94709 0.0
C216 C 0.3703 0.79703 0.96974 0.0
C217 C 0.43043 0.87245 0.98776 0.0
C218 C 0.52112 0.96754 0.98354 0.0
C219 C 0.57389 0.03141 1.00722 0.0
C220 C 0.69361 0.04841 1.0226 0.0
C221 C 0.56717 0.13919 0.99655 0.0
C222 C 0.50002 0.95553 1.02557 0.0
C223 C 0.41842 0.86442 1.01392 0.0
C224 C 0.34586 0.77841 1.02784 0.0
C225 C 0.35514 0.78671 0.05425 0.0
C226 C 0.43463 0.88138 0.0661 0.0
C227 C 0.50867 0.96646 0.05166 0.0
H228 H 0.91972 0.28164 0.47054 0.0
H229 H 0.59653 0.00922 0.45698 0.0
H230 H 0.57526 0.0463 0.40629 0.0
H231 H 0.8677 0.45953 0.406 0.0
H232 H 0.99734 0.50712 0.40031 0.0
H233 H 0.98696 0.46257 0.43552 0.0
H234 H 0.06125 0.32675 0.44431 0.0
H235 H 0.07186 0.37108 0.40909 0.0
H236 H 0.99304 0.23077 0.42076 0.0
H237 H 0.58566 0.11353 0.35751 0.0
H238 H 0.63117 0.20031 0.31297 0.0
H239 H 0.95305 0.42496 0.3572 0.0
C240 C 0.84372 0.23162 0.45668 0.0
C241 C 0.75786 0.14461 0.46737 0.0
C242 C 0.66178 0.07757 0.44899 0.0
C243 C 0.64924 0.09781 0.42024 0.0
C244 C 0.73479 0.18404 0.41025 0.0
C245 C 0.831 0.2491 0.42786 0.0
C246 C 0.91238 0.33228 0.41166 0.0
C247 C 0.94282 0.44719 0.41348 0.0
C248 C 1.01574 0.31411 0.42208 0.0
C249 C 0.84472 0.30638 0.38207 0.0
C250 C 0.74287 0.2202 0.38192 0.0
C251 C 0.66509 0.18115 0.3573 0.0
C252 C 0.69156 0.23159 0.33204 0.0
C253 C 0.79519 0.32036 0.3314 0.0
C254 C 0.8732 0.35733 0.35693 0.0
H255 H 0.92688 0.80862 0.78312 0.0
H256 H 0.71447 0.94973 0.77029 0.0
H257 H 0.68097 -0.01722 0.71954 0.0
H258 H 1.04787 -0.00993 0.72762 0.0
H259 H 1.04873 0.88959 0.71579 0.0
H260 H 0.05752 0.87275 0.75181 0.0
H261 H 0.88906 0.68782 0.74764 0.0
H262 H 0.87871 0.70356 0.71146 0.0
H263 H 0.76209 0.67687 0.72035 0.0
H264 H 0.67194 0.00774 0.67091 0.0
H265 H 0.68817 0.0234 0.62524 0.0
H266 H 0.90065 0.86351 0.66574 0.0
C267 C 0.8732 0.8462 0.76957 0.0
C268 C 0.823 0.87595 0.78104 0.0
C269 C 0.75343 0.92506 0.76241 0.0
C270 C 0.73374 0.94453 0.73335 0.0
C271 C 0.78319 0.91397 0.72274 0.0
C272 C 0.85131 0.86562 0.74002 0.0
C273 C 0.89324 0.84181 0.72232 0.0
C274 C 1.01936 0.90229 0.72982 0.0
C275 C 0.85334 0.72023 0.72567 0.0
C276 C 0.8389 0.88575 0.69267 0.0
C277 C 0.77586 0.92667 0.69374 0.0
C278 C 0.72008 0.97505 0.66971 0.0
C279 C 0.72965 -0.01664 0.64383 0.0
C280 C 0.79407 0.94333 0.64181 0.0
C281 C 0.8487 0.89253 0.66658 0.0
H282 H 1.05149 0.89913 0.9757 0.0
H283 H 0.74338 0.62308 0.94875 0.0
H284 H 0.72827 0.56285 0.99713 0.0
H285 H 0.15361 0.77386 0.04409 0.0
H286 H 0.21218 0.88783 0.06107 0.0
H287 H 0.19949 0.90838 1.02449 0.0
H288 H 0.08518 0.01203 1.01163 0.0
H289 H 0.09841 -0.00791 0.04822 0.0
H290 H 0.96382 0.94865 1.02276 0.0
H291 H 0.75183 0.52971 0.05011 0.0
H292 H 0.80952 0.53217 0.10127 0.0
H293 H 0.0945 0.83647 0.09175 0.0
C294 C 0.98131 0.82582 0.98012 0.0
C295 C 0.89929 0.76464 0.95867 0.0
C296 C 0.80748 0.67036 0.96503 0.0
C297 C 0.79809 0.63576 0.99242 0.0
C298 C 0.87989 0.69788 1.01321 0.0
C299 C 0.96889 0.7919 1.0072 0.0
C300 C 1.04386 0.8456 1.03304 0.0
C301 C 0.15942 0.85472 0.04114 0.0
C302 C 1.048 0.95615 1.02863 0.0
C303 C 0.9853 0.76589 0.05461 0.0
C304 C 0.89066 0.68113 0.04294 0.0
C305 C 0.82545 0.5965 0.05937 0.0
C306 C 0.85851 0.59853 0.08843 0.0
C307 C 0.9559 0.68469 0.10077 0.0
C308 C 1.01883 0.76936 0.08327 0.0
H309 H 0.17694 0.60253 0.29375 0.0
H310 H 0.44651 0.87992 0.2654 0.0
H311 H 0.5515 0.91123 0.31408 0.0
H312 H 0.20138 0.71384 0.3486 0.0
H313 H 0.1697 0.58784 0.3724 0.0
H314 H 0.11461 0.58869 0.33499 0.0
H315 H 0.2005 0.46687 0.34004 0.0
H316 H 0.25585 0.46622 0.37744 0.0
H317 H 0.346 0.50903 0.35698 0.0
H318 H 0.6287 0.913 0.36472 0.0
H319 H 0.67711 0.8836 0.41633 0.0
H320 H 0.35969 0.6056 0.41317 0.0
C321 C 0.25806 0.66941 0.29782 0.0
C322 C 0.30346 0.73837 0.2758 0.0
C323 C 0.40982 0.82577 0.28192 0.0
C324 C 0.47027 0.84448 0.3095 0.0
C325 C 0.42325 0.77517 0.3307 0.0
C326 C 0.31983 0.68942 0.32533 0.0
C327 C 0.28983 0.62666 0.35225 0.0
C328 C 0.18786 0.62949 0.35204 0.0
C329 C 0.27206 0.51031 0.35696 0.0
C330 C 0.39315 0.69087 0.37355 0.0
C331 C 0.46858 0.77609 0.36046 0.0
C332 C 0.57081 0.84653 0.37533 0.0
C333 C 0.59766 0.82899 0.40456 0.0
C334 C 0.52249 0.74201 0.41856 0.0
C335 C 0.41832 0.67272 0.40286 0.0
H336 H 1.00814 0.51925 0.7863 0.0
H337 H 0.2948 0.82926 0.78483 0.0
H338 H 0.30052 0.80414 0.74204 0.0
H339 H 0.09919 0.38317 0.76325 0.0
H340 H 0.9626 0.30472 0.74239 0.0
H341 H 0.98116 0.34594 0.77319 0.0
H342 H 0.85099 0.43686 0.74298 0.0
H343 H 0.8321 0.3945 0.71234 0.0
H344 H 0.87999 0.53458 0.7123 0.0
H345 H 0.27245 0.75017 0.69926 0.0
H346 H 0.21621 0.66663 0.65889 0.0
H347 H 0.95402 0.38618 0.68942 0.0
C348 C 0.07312 0.58106 0.77722 0.0
C349 C 0.15101 0.67636 0.78878 0.0
C350 C 0.23354 0.75635 0.77604 0.0
C351 C 0.23783 0.7426 0.75188 0.0
C352 C 0.15944 0.64824 0.74092 0.0
C353 C 0.07908 0.56835 0.7532 0.0
C354 C 1.00452 0.47497 0.73696 0.0
C355 C 1.01242 0.3711 0.75503 0.0
C356 C 0.88484 0.45938 0.72548 0.0
C357 C 0.05536 0.51575 0.71352 0.0
C358 C 0.14443 0.61582 0.71627 0.0
C359 C 0.20363 0.6713 0.69697 0.0
C360 C 0.17138 0.6228 0.67423 0.0
C361 C 0.08156 0.51931 0.6712 0.0
C362 C 1.02258 0.46554 0.69108 0.0
loop_
_geom_bond_atom_site_label_1
_geom_bond_atom_site_label_2
_geom_bond_distance
_geom_bond_site_symmetry_2
_ccdc_geom_bond_type
Gd0 C3 2.818 . S
Gd0 O20 2.377 1_655 S
Gd0 O22 2.448 . S
Gd0 O23 2.506 . S
Gd0 O24 2.435 . S
Gd0 O25 2.717 1_655 S
Gd0 O27 2.395 . S
Gd0 O31 2.327 . S
Gd1 C12 2.818 . S
Gd1 O21 2.395 . S
Gd1 O25 2.327 . S
Gd1 O26 2.377 1_455 S
Gd1 O28 2.448 . S
Gd1 O29 2.506 . S
Gd1 O30 2.435 . S
Gd1 O31 2.717 1_455 S
C2 O20 1.240 . S
C2 O21 1.240 . S
C3 Gd0 2.818 . S
C3 C4 1.510 . S
C3 O22 1.249 . S
C3 O23 1.252 . S
C4 C3 1.510 . S
C4 C5 1.404 . S
C4 C6 1.352 . S
C5 C4 1.404 . S
C5 C9 1.389 . S
C5 H32 0.930 . S
C6 C4 1.352 . S
C6 C8 1.374 . S
C6 H33 0.931 . S
C7 C8 1.359 . S
C7 C9 1.364 . S
C8 C6 1.374 . S
C8 C7 1.359 . S
C8 H34 0.931 . S
C9 C5 1.389 . S
C9 C7 1.364 . S
C9 H35 0.931 . S
C10 O24 1.256 . S
C10 O25 1.257 1_655 S
C11 O26 1.240 . S
C11 O27 1.240 . S
C12 Gd1 2.818 . S
C12 C13 1.510 . S
C12 O28 1.249 . S
C12 O29 1.252 . S
C13 C12 1.510 . S
C13 C14 1.404 . S
C13 C15 1.352 . S
C14 C13 1.404 . S
C14 C18 1.389 . S
C14 H36 0.930 . S
C15 C13 1.352 . S
C15 C17 1.374 1_565 S
C15 H37 0.931 . S
C16 C17 1.359 1_565 S
C16 C18 1.364 . S
C17 C15 1.374 1_545 S
C17 C16 1.359 1_545 S
C17 H38 0.931 . S
C18 C14 1.389 . S
C18 C16 1.364 . S
C18 H39 0.931 . S
C19 O30 1.256 . S
C19 O31 1.257 1_455 S
O20 Gd0 2.377 1_455 S
O20 C2 1.240 . S
O21 Gd1 2.395 . S
O21 C2 1.240 . S
O22 Gd0 2.448 . S
O22 C3 1.249 . S
O23 Gd0 2.506 . S
O23 C3 1.252 . S
O24 Gd0 2.435 . S
O24 C10 1.256 . S
O25 Gd0 2.717 1_455 S
O25 Gd1 2.327 . S
O25 C10 1.257 1_455 S
O26 Gd1 2.377 1_655 S
O26 C11 1.240 . S
O27 Gd0 2.395 . S
O27 C11 1.240 . S
O28 Gd1 2.448 . S
O28 C12 1.249 . S
O29 Gd1 2.506 . S
O29 C12 1.252 . S
O30 Gd1 2.435 . S
O30 C19 1.256 . S
O31 Gd0 2.327 . S
O31 Gd1 2.717 1_655 S
O31 C19 1.257 1_655 S
H32 C5 0.930 . S
H33 C6 0.931 . S
H34 C8 0.931 . S
H35 C9 0.931 . S
H36 C14 0.930 . S
H37 C15 0.931 . S
H38 C17 0.931 . S
H39 C18 0.931 . S
Gd40 C43 2.818 . S
Gd40 O60 2.377 . S
Gd40 O62 2.448 . S
Gd40 O63 2.506 . S
Gd40 O64 2.435 . S
Gd40 O65 2.717 1_545 S
Gd40 O67 2.395 . S
Gd40 O71 2.327 . S
Gd41 C52 2.818 . S
Gd41 O61 2.395 . S
Gd41 O65 2.327 . S
Gd41 O66 2.377 1_565 S
Gd41 O68 2.448 . S
Gd41 O69 2.506 . S
Gd41 O70 2.435 . S
Gd41 O71 2.717 1_565 S
C42 O60 1.240 1_565 S
C42 O61 1.240 . S
C43 Gd40 2.818 . S
C43 C44 1.510 . S
C43 O62 1.249 . S
C43 O63 1.252 . S
C44 C43 1.510 . S
C44 C45 1.404 1_655 S
C44 C46 1.352 . S
C45 C44 1.404 1_455 S
C45 C49 1.389 . S
C45 H72 0.930 . S
C46 C44 1.352 . S
C46 C48 1.374 . S
C46 H73 0.931 . S
C47 C48 1.359 . S
C47 C49 1.364 1_655 S
C48 C46 1.374 . S
C48 C47 1.359 . S
C48 H74 0.931 . S
C49 C45 1.389 . S
C49 C47 1.364 1_455 S
C49 H75 0.931 . S
C50 O64 1.256 . S
C50 O65 1.257 1_545 S
C51 O66 1.240 . S
C51 O67 1.240 . S
C52 Gd41 2.818 . S
C52 C53 1.510 . S
C52 O68 1.249 . S
C52 O69 1.252 . S
C53 C52 1.510 . S
C53 C54 1.404 . S
C53 C55 1.352 . S
C54 C53 1.404 . S
C54 C58 1.389 . S
C54 H76 0.930 . S
C55 C53 1.352 . S
C55 C57 1.374 . S
C55 H77 0.931 . S
C56 C57 1.359 . S
C56 C58 1.364 . S
C57 C55 1.374 . S
C57 C56 1.359 . S
C57 H78 0.931 . S
C58 C54 1.389 . S
C58 C56 1.364 . S
C58 H79 0.931 . S
C59 O70 1.256 . S
C59 O71 1.257 1_565 S
O60 Gd40 2.377 . S
O60 C42 1.240 1_545 S
O61 Gd41 2.395 . S
O61 C42 1.240 . S
O62 Gd40 2.448 . S
O62 C43 1.249 . S
O63 Gd40 2.506 . S
O63 C43 1.252 . S
O64 Gd40 2.435 . S
O64 C50 1.256 . S
O65 Gd40 2.717 1_565 S
O65 Gd41 2.327 . S
O65 C50 1.257 1_565 S
O66 Gd41 2.377 1_545 S
O66 C51 1.240 . S
O67 Gd40 2.395 . S
O67 C51 1.240 . S
O68 Gd41 2.448 . S
O68 C52 1.249 . S
O69 Gd41 2.506 . S
O69 C52 1.252 . S
O70 Gd41 2.435 . S
O70 C59 1.256 . S
O71 Gd40 2.327 . S
O71 Gd41 2.717 1_545 S
O71 C59 1.257 1_545 S
H72 C45 0.930 . S
H73 C46 0.931 . S
H74 C48 0.931 . S
H75 C49 0.931 . S
H76 C54 0.930 . S
H77 C55 0.931 . S
H78 C57 0.931 . S
H79 C58 0.931 . S
Gd80 C83 2.818 . S
Gd80 O100 2.377 1_545 S
Gd80 O102 2.448 . S
Gd80 O103 2.506 1_545 S
Gd80 O104 2.435 1_655 S
Gd80 O105 2.717 . S
Gd80 O107 2.395 . S
Gd80 O111 2.327 1_545 S
Gd81 C92 2.818 1_655 S
Gd81 O101 2.395 . S
Gd81 O105 2.327 1_565 S
Gd81 O106 2.377 . S
Gd81 O108 2.448 . S
Gd81 O109 2.506 1_655 S
Gd81 O110 2.435 . S
Gd81 O111 2.717 . S
C82 O100 1.240 . S
C82 O101 1.240 . S
C83 Gd80 2.818 . S
C83 C84 1.510 . S
C83 O102 1.249 . S
C83 O103 1.252 1_545 S
C84 C83 1.510 . S
C84 C85 1.404 . S
C84 C86 1.352 1_545 S
C85 C84 1.404 . S
C85 C89 1.389 . S
C85 H112 0.930 . S
C86 C84 1.352 1_565 S
C86 C88 1.374 . S
C86 H113 0.931 . S
C87 C88 1.359 1_545 S
C87 C89 1.364 . S
C88 C86 1.374 . S
C88 C87 1.359 1_565 S
C88 H114 0.931 . S
C89 C85 1.389 . S
C89 C87 1.364 . S
C89 H115 0.931 . S
C90 O104 1.256 . S
C90 O105 1.257 1_455 S
C91 O106 1.240 . S
C91 O107 1.240 1_565 S
C92 Gd81 2.818 1_455 S
C92 C93 1.510 . S
C92 O108 1.249 1_455 S
C92 O109 1.252 . S
C93 C92 1.510 . S
C93 C94 1.404 . S
C93 C95 1.352 . S
C94 C93 1.404 . S
C94 C98 1.389 . S
C94 H116 0.930 1_455 S
C95 C93 1.352 . S
C95 C97 1.374 . S
C95 H117 0.931 . S
C96 C97 1.359 . S
C96 C98 1.364 . S
C97 C95 1.374 . S
C97 C96 1.359 . S
C97 H118 0.931 . S
C98 C94 1.389 . S
C98 C96 1.364 . S
C98 H119 0.931 . S
C99 O110 1.256 . S
C99 O111 1.257 . S
O100 Gd80 2.377 1_565 S
O100 C82 1.240 . S
O101 Gd81 2.395 . S
O101 C82 1.240 . S
O102 Gd80 2.448 . S
O102 C83 1.249 . S
O103 Gd80 2.506 1_565 S
O103 C83 1.252 1_565 S
O104 Gd80 2.435 1_455 S
O104 C90 1.256 . S
O105 Gd80 2.717 . S
O105 Gd81 2.327 1_545 S
O105 C90 1.257 1_655 S
O106 Gd81 2.377 . S
O106 C91 1.240 . S
O107 Gd80 2.395 . S
O107 C91 1.240 1_545 S
O108 Gd81 2.448 . S
O108 C92 1.249 1_655 S
O109 Gd81 2.506 1_455 S
O109 C92 1.252 . S
O110 Gd81 2.435 . S
O110 C99 1.256 . S
O111 Gd80 2.327 1_565 S
O111 Gd81 2.717 . S
O111 C99 1.257 . S
H112 C85 0.930 . S
H113 C86 0.931 . S
H114 C88 0.931 . S
H115 C89 0.931 . S
H116 C94 0.930 1_655 S
H117 C95 0.931 . S
H118 C97 0.931 . S
H119 C98 0.931 . S
H120 C132 0.930 . S
H121 C134 0.930 . S
H122 C135 0.930 . S
H123 C139 0.959 . S
H124 C139 0.959 . S
H125 C139 0.961 . S
H126 C140 0.960 . S
H127 C140 0.961 . S
H128 C140 0.959 1_655 S
H129 C143 0.929 . S
H130 C144 0.931 . S
H131 C146 0.930 . S
C132 H120 0.930 . S
C132 C133 1.399 1_445 S
C132 C137 1.399 . S
C133 C132 1.399 1_665 S
C133 C134 1.376 . S
C134 H121 0.930 . S
C134 C133 1.376 . S
C134 C135 1.388 . S
C135 H122 0.930 . S
C135 C134 1.388 . S
C135 C136 1.390 1_565 S
C136 C135 1.390 1_545 S
C136 C137 1.394 1_655 S
C136 C142 1.465 . S
C137 C132 1.399 . S
C137 C136 1.394 1_455 S
C137 C138 1.516 . S
C138 C137 1.516 . S
C138 C139 1.502 . S
C138 C140 1.561 . S
C138 C141 1.526 . S
C139 H123 0.959 . S
C139 H124 0.959 . S
C139 H125 0.961 . S
C139 C138 1.502 . S
C140 H126 0.960 . S
C140 H127 0.961 . S
C140 H128 0.959 1_455 S
C140 C138 1.561 . S
C141 C138 1.526 . S
C141 C142 1.396 1_455 S
C141 C146 1.390 . S
C142 C136 1.465 . S
C142 C141 1.396 1_655 S
C142 C143 1.399 . S
C143 H129 0.929 . S
C143 C142 1.399 . S
C143 C144 1.385 . S
C144 H130 0.931 . S
C144 C143 1.385 . S
C144 C145 1.389 . S
C145 C144 1.389 . S
C145 C146 1.387 1_655 S
C146 H131 0.930 . S
C146 C141 1.390 . S
C146 C145 1.387 1_455 S
H147 C159 0.930 . S
H148 C161 0.930 . S
H149 C162 0.930 . S
H150 C166 0.959 . S
H151 C166 0.959 . S
H152 C166 0.961 . S
H153 C167 0.960 . S
H154 C167 0.961 . S
H155 C167 0.959 . S
H156 C170 0.929 . S
H157 C171 0.932 . S
H158 C173 0.930 . S
C159 H147 0.930 . S
C159 C160 1.399 1_545 S
C159 C164 1.399 . S
C160 C159 1.399 1_565 S
C160 C161 1.376 . S
C161 H148 0.930 . S
C161 C160 1.376 . S
C161 C162 1.388 . S
C162 H149 0.930 . S
C162 C161 1.388 . S
C162 C163 1.390 . S
C163 C162 1.390 . S
C163 C164 1.394 1_565 S
C163 C169 1.465 . S
C164 C159 1.399 . S
C164 C163 1.394 1_545 S
C164 C165 1.516 . S
C165 C164 1.516 . S
C165 C166 1.502 . S
C165 C167 1.561 . S
C165 C168 1.526 . S
C166 H150 0.959 . S
C166 H151 0.959 . S
C166 H152 0.961 . S
C166 C165 1.502 . S
C167 H153 0.960 . S
C167 H154 0.961 . S
C167 H155 0.959 . S
C167 C165 1.561 . S
C168 C165 1.526 . S
C168 C169 1.396 1_545 S
C168 C173 1.390 . S
C169 C163 1.465 . S
C169 C168 1.396 1_565 S
C169 C170 1.399 . S
C170 H156 0.929 . S
C170 C169 1.399 . S
C170 C171 1.384 1_455 S
C171 H157 0.932 . S
C171 C170 1.384 1_655 S
C171 C172 1.390 1_655 S
C172 C171 1.390 1_455 S
C172 C173 1.387 1_565 S
C173 H158 0.930 . S
C173 C168 1.390 . S
C173 C172 1.387 1_545 S
H174 C186 0.930 . S
H175 C188 0.930 . S
H176 C189 0.930 . S
H177 C193 0.959 . S
H178 C193 0.959 . S
H179 C193 0.961 . S
H180 C194 0.960 . S
H181 C194 0.961 . S
H182 C194 0.959 . S
H183 C197 0.929 . S
H184 C198 0.931 . S
H185 C200 0.930 . S
C186 H174 0.930 . S
C186 C187 1.399 . S
C186 C191 1.399 . S
C187 C186 1.399 . S
C187 C188 1.376 . S
C188 H175 0.930 . S
C188 C187 1.376 . S
C188 C189 1.388 . S
C189 H176 0.930 . S
C189 C188 1.388 . S
C189 C190 1.390 . S
C190 C189 1.390 . S
C190 C191 1.394 . S
C190 C196 1.465 . S
C191 C186 1.399 . S
C191 C190 1.394 . S
C191 C192 1.516 . S
C192 C191 1.516 . S
C192 C193 1.502 . S
C192 C194 1.561 . S
C192 C195 1.526 . S
C193 H177 0.959 . S
C193 H178 0.959 . S
C193 H179 0.961 . S
C193 C192 1.502 . S
C194 H180 0.960 . S
C194 H181 0.961 . S
C194 H182 0.959 . S
C194 C192 1.561 . S
C195 C192 1.526 . S
C195 C196 1.396 . S
C195 C200 1.390 . S
C196 C190 1.465 . S
C196 C195 1.396 . S
C196 C197 1.399 . S
C197 H183 0.929 . S
C197 C196 1.399 . S
C197 C198 1.385 . S
C198 H184 0.931 . S
C198 C197 1.385 . S
C198 C199 1.389 . S
C199 C198 1.389 . S
C199 C200 1.387 . S
C200 H185 0.930 . S
C200 C195 1.390 . S
C200 C199 1.387 . S
H201 C213 0.930 . S
H202 C215 0.930 1_565 S
H203 C216 0.930 . S
H204 C220 0.959 . S
H205 C220 0.959 . S
H206 C220 0.961 . S
H207 C221 0.960 . S
H208 C221 0.961 . S
H209 C221 0.959 . S
H210 C224 0.929 . S
H211 C225 0.935 . S
H212 C227 0.930 . S
C213 H201 0.930 . S
C213 C214 1.399 . S
C213 C218 1.399 . S
C214 C213 1.399 . S
C214 C215 1.376 . S
C215 H202 0.930 1_545 S
C215 C214 1.376 . S
C215 C216 1.388 1_545 S
C216 H203 0.930 . S
C216 C215 1.388 1_565 S
C216 C217 1.390 1_565 S
C217 C216 1.390 1_545 S
C217 C218 1.394 . S
C217 C223 1.465 . S
C218 C213 1.399 . S
C218 C217 1.394 . S
C218 C219 1.516 . S
C219 C218 1.516 . S
C219 C220 1.502 1_556 S
C219 C221 1.561 . S
C219 C222 1.526 . S
C220 H204 0.959 . S
C220 H205 0.959 . S
C220 H206 0.961 . S
C220 C219 1.502 1_554 S
C221 H207 0.960 . S
C221 H208 0.961 . S
C221 H209 0.959 . S
C221 C219 1.561 . S
C222 C219 1.526 . S
C222 C223 1.396 . S
C222 C227 1.390 1_556 S
C223 C217 1.465 . S
C223 C222 1.396 . S
C223 C224 1.399 1_545 S
C224 H210 0.929 . S
C224 C223 1.399 1_565 S
C224 C225 1.385 . S
C225 H211 0.935 . S
C225 C224 1.385 . S
C225 C226 1.389 1_556 S
C226 C225 1.389 1_554 S
C226 C227 1.387 1_565 S
C227 H212 0.930 . S
C227 C222 1.390 1_554 S
C227 C226 1.387 1_545 S
H228 C240 0.930 . S
H229 C242 0.930 . S
H230 C243 0.930 . S
H231 C247 0.959 . S
H232 C247 0.959 . S
H233 C247 0.961 . S
H234 C248 0.960 . S
H235 C248 0.961 . S
H236 C248 0.959 . S
H237 C251 0.929 . S
H238 C252 0.931 . S
H239 C254 0.930 . S
C240 H228 0.930 . S
C240 C241 1.399 . S
C240 C245 1.399 . S
C241 C240 1.399 . S
C241 C242 1.376 . S
C242 H229 0.930 . S
C242 C241 1.376 . S
C242 C243 1.388 . S
C243 H230 0.930 . S
C243 C242 1.388 . S
C243 C244 1.390 . S
C244 C243 1.390 . S
C244 C245 1.394 . S
C244 C250 1.465 . S
C245 C240 1.399 . S
C245 C244 1.394 . S
C245 C246 1.516 . S
C246 C245 1.516 . S
C246 C247 1.502 . S
C246 C248 1.561 . S
C246 C249 1.526 . S
C247 H231 0.959 . S
C247 H232 0.959 . S
C247 H233 0.961 . S
C247 C246 1.502 . S
C248 H234 0.960 . S
C248 H235 0.961 . S
C248 H236 0.959 . S
C248 C246 1.561 . S
C249 C246 1.526 . S
C249 C250 1.396 . S
C249 C254 1.390 . S
C250 C244 1.465 . S
C250 C249 1.396 . S
C250 C251 1.399 . S
C251 H237 0.929 . S
C251 C250 1.399 . S
C251 C252 1.385 . S
C252 H238 0.931 . S
C252 C251 1.385 . S
C252 C253 1.389 . S
C253 C252 1.389 . S
C253 C254 1.387 . S
C254 H239 0.930 . S
C254 C249 1.390 . S
C254 C253 1.387 . S
H255 C267 0.930 . S
H256 C269 0.930 . S
H257 C270 0.930 . S
H258 C274 0.959 . S
H259 C274 0.959 . S
H260 C274 0.961 . S
H261 C275 0.960 . S
H262 C275 0.961 . S
H263 C275 0.959 . S
H264 C278 0.929 . S
H265 C279 0.931 . S
H266 C281 0.930 . S
C267 H255 0.930 . S
C267 C268 1.399 . S
C267 C272 1.399 . S
C268 C267 1.399 . S
C268 C269 1.376 1_565 S
C269 H256 0.930 . S
C269 C268 1.376 1_545 S
C269 C270 1.388 . S
C270 H257 0.930 . S
C270 C269 1.388 . S
C270 C271 1.390 1_545 S
C271 C270 1.390 1_565 S
C271 C272 1.394 . S
C271 C277 1.465 . S
C272 C267 1.399 . S
C272 C271 1.394 . S
C272 C273 1.516 . S
C273 C272 1.516 . S
C273 C274 1.502 . S
C273 C275 1.561 . S
C273 C276 1.526 . S
C274 H258 0.959 . S
C274 H259 0.959 . S
C274 H260 0.961 . S
C274 C273 1.502 . S
C275 H261 0.960 . S
C275 H262 0.961 . S
C275 H263 0.959 . S
C275 C273 1.561 . S
C276 C273 1.526 . S
C276 C277 1.396 . S
C276 C281 1.390 . S
C277 C271 1.465 . S
C277 C276 1.396 . S
C277 C278 1.399 1_565 S
C278 H264 0.929 . S
C278 C277 1.399 1_545 S
C278 C279 1.385 . S
C279 H265 0.931 . S
C279 C278 1.385 . S
C279 C280 1.389 1_545 S
C280 C279 1.389 1_565 S
C280 C281 1.387 . S
C281 H266 0.930 . S
C281 C276 1.390 . S
C281 C280 1.387 . S
H282 C294 0.930 1_455 S
H283 C296 0.930 . S
H284 C297 0.930 . S
H285 C301 0.959 . S
H286 C301 0.959 . S
H287 C301 0.950 1_556 S
H288 C302 0.960 1_545 S
H289 C302 0.961 1_544 S
H290 C302 0.959 1_655 S
H291 C305 0.929 1_556 S
H292 C306 0.931 . S
H293 C308 0.930 1_455 S
C294 H282 0.930 1_655 S
C294 C295 1.399 . S
C294 C299 1.399 . S
C295 C294 1.399 . S
C295 C296 1.376 . S
C296 H283 0.930 . S
C296 C295 1.376 . S
C296 C297 1.388 . S
C297 H284 0.930 . S
C297 C296 1.388 . S
C297 C298 1.390 . S
C298 C297 1.390 . S
C298 C299 1.394 . S
C298 C304 1.465 . S
C299 C294 1.399 . S
C299 C298 1.394 . S
C299 C300 1.546 1_655 S
C300 C299 1.546 1_455 S
C300 C301 1.502 1_556 S
C300 C302 1.554 . S
C300 C303 1.504 1_456 S
C301 H285 0.959 . S
C301 H286 0.959 . S
C301 H287 0.950 1_554 S
C301 C300 1.502 1_554 S
C302 H288 0.960 1_565 S
C302 H289 0.961 1_566 S
C302 H290 0.959 1_455 S
C302 C300 1.554 . S
C303 C300 1.504 1_654 S
C303 C304 1.396 1_554 S
C303 C308 1.390 . S
C304 C298 1.465 . S
C304 C303 1.396 1_556 S
C304 C305 1.399 1_556 S
C305 H291 0.929 1_554 S
C305 C304 1.399 1_554 S
C305 C306 1.385 . S
C306 H292 0.931 . S
C306 C305 1.385 . S
C306 C307 1.389 . S
C307 C306 1.389 . S
C307 C308 1.387 . S
C308 H293 0.930 1_655 S
C308 C303 1.390 . S
C308 C307 1.387 . S
H309 C321 0.930 . S
H310 C323 0.930 . S
H311 C324 0.930 . S
H312 C328 0.959 . S
H313 C328 0.959 . S
H314 C328 0.961 . S
H315 C329 0.960 . S
H316 C329 0.961 . S
H317 C329 0.959 . S
H318 C332 0.929 . S
H319 C333 0.931 . S
H320 C335 0.930 . S
C321 H309 0.930 . S
C321 C322 1.399 . S
C321 C326 1.399 . S
C322 C321 1.399 . S
C322 C323 1.376 . S
C323 H310 0.930 . S
C323 C322 1.376 . S
C323 C324 1.388 . S
C324 H311 0.930 . S
C324 C323 1.388 . S
C324 C325 1.390 . S
C325 C324 1.390 . S
C325 C326 1.394 . S
C325 C331 1.465 . S
C326 C321 1.399 . S
C326 C325 1.394 . S
C326 C327 1.516 . S
C327 C326 1.516 . S
C327 C328 1.502 . S
C327 C329 1.561 . S
C327 C330 1.526 . S
C328 H312 0.959 . S
C328 H313 0.959 . S
C328 H314 0.961 . S
C328 C327 1.502 . S
C329 H315 0.960 . S
C329 H316 0.961 . S
C329 H317 0.959 . S
C329 C327 1.561 . S
C330 C327 1.526 . S
C330 C331 1.396 . S
C330 C335 1.390 . S
C331 C325 1.465 . S
C331 C330 1.396 . S
C331 C332 1.399 . S
C332 H318 0.929 . S
C332 C331 1.399 . S
C332 C333 1.385 . S
C333 H319 0.931 . S
C333 C332 1.385 . S
C333 C334 1.389 . S
C334 C333 1.389 . S
C334 C335 1.387 . S
C335 H320 0.930 . S
C335 C330 1.390 . S
C335 C334 1.387 . S
H336 C348 0.930 1_655 S
H337 C350 0.930 . S
H338 C351 0.930 . S
H339 C355 0.959 1_455 S
H340 C355 0.959 . S
H341 C355 0.961 . S
H342 C356 0.960 . S
H343 C356 0.961 . S
H344 C356 0.959 . S
H345 C359 0.929 . S
H346 C360 0.931 . S
H347 C362 0.930 . S
C348 H336 0.930 1_455 S
C348 C349 1.399 . S
C348 C353 1.399 . S
C349 C348 1.399 . S
C349 C350 1.376 . S
C350 H337 0.930 . S
C350 C349 1.376 . S
C350 C351 1.388 . S
C351 H338 0.930 . S
C351 C350 1.388 . S
C351 C352 1.390 . S
C352 C351 1.390 . S
C352 C353 1.394 . S
C352 C358 1.465 . S
C353 C348 1.399 . S
C353 C352 1.394 . S
C353 C354 1.516 1_455 S
C354 C353 1.516 1_655 S
C354 C355 1.502 . S
C354 C356 1.561 . S
C354 C357 1.526 1_655 S
C355 H339 0.959 1_655 S
C355 H340 0.959 . S
C355 H341 0.961 . S
C355 C354 1.502 . S
C356 H342 0.960 . S
C356 H343 0.961 . S
C356 H344 0.959 . S
C356 C354 1.561 . S
C357 C354 1.526 1_455 S
C357 C358 1.396 . S
C357 C362 1.390 1_455 S
C358 C352 1.465 . S
C358 C357 1.396 . S
C358 C359 1.399 . S
C359 H345 0.929 . S
C359 C358 1.399 . S
C359 C360 1.385 . S
C360 H346 0.931 . S
C360 C359 1.385 . S
C360 C361 1.389 . S
C361 C360 1.389 . S
C361 C362 1.387 1_455 S
C362 H347 0.930 . S
C362 C357 1.390 1_655 S
C362 C361 1.387 1_655 S
C133 C10 1.501 . S
C145 C19 1.590 1_655 S
C160 C59 1.619 . S
C172 C50 1.667 1_465 S
C187 C90 1.378 . S
C199 C99 1.305 . S
C214 C87 0.955 . S
C226 C16 0.991 . S
C241 C51 1.988 . S
C253 C7 1.957 . S
C268 C91 2.476 . S
C280 C42 2.439 . S
C295 C82 2.343 . S
C307 C11 2.315 . S
C322 C2 1.707 . S
C334 C56 1.602 . S
C349 C96 1.021 . S
C361 C47 0.978 1_455 S
