# Generated by pormake.
# Topology bcu-k, (6)-cn, num edge types: 1
# Building blocks:
#     Node 0, Type 0, BuildingBlock: OJICUG_clean_sbu_0, # of connection points: 6
#     Node 1, Type 0, BuildingBlock: OJICUG_clean_sbu_0, # of connection points: 6
#     Node 2, Type 0, BuildingBlock: OJICUG_clean_sbu_0, # of connection points: 6
#     Node 3, Type 0, BuildingBlock: OJICUG_clean_sbu_0, # of connection points: 6
#     Node 4, Type 0, BuildingBlock: OJICUG_clean_sbu_0, # of connection points: 6
#     Node 5, Type 0, BuildingBlock: OJICUG_clean_sbu_0, # of connection points: 6
#     Node 6, Type 0, BuildingBlock: OJICUG_clean_sbu_0, # of connection points: 6
#     Node 7, Type 0, BuildingBlock: OJICUG_clean_sbu_0, # of connection points: 6
#     Node 8, Type 0, BuildingBlock: OJICUG_clean_sbu_0, # of connection points: 6
#     Node 9, Type 0, BuildingBlock: OJICUG_clean_sbu_0, # of connection points: 6
#     Node 10, Type 0, BuildingBlock: OJICUG_clean_sbu_0, # of connection points: 6
#     Node 11, Type 0, BuildingBlock: OJICUG_clean_sbu_0, # of connection points: 6
#     Node 12, Type 0, BuildingBlock: OJICUG_clean_sbu_0, # of connection points: 6
#     Node 13, Type 0, BuildingBlock: OJICUG_clean_sbu_0, # of connection points: 6
#     Node 14, Type 0, BuildingBlock: OJICUG_clean_sbu_0, # of connection points: 6
#     Node 15, Type 0, BuildingBlock: OJICUG_clean_sbu_0, # of connection points: 6
#     Node 16, Type 0, BuildingBlock: OJICUG_clean_sbu_0, # of connection points: 6
#     Node 17, Type 0, BuildingBlock: OJICUG_clean_sbu_0, # of connection points: 6
#     Node 18, Type 0, BuildingBlock: OJICUG_clean_sbu_0, # of connection points: 6
#     Node 19, Type 0, BuildingBlock: OJICUG_clean_sbu_0, # of connection points: 6
#     Node 20, Type 0, BuildingBlock: OJICUG_clean_sbu_0, # of connection points: 6
#     Node 21, Type 0, BuildingBlock: OJICUG_clean_sbu_0, # of connection points: 6
#     Node 22, Type 0, BuildingBlock: OJICUG_clean_sbu_0, # of connection points: 6
#     Node 23, Type 0, BuildingBlock: OJICUG_clean_sbu_0, # of connection points: 6
#     Node 24, Type 0, BuildingBlock: OJICUG_clean_sbu_0, # of connection points: 6
#     Node 25, Type 0, BuildingBlock: OJICUG_clean_sbu_0, # of connection points: 6
#     Node 26, Type 0, BuildingBlock: OJICUG_clean_sbu_0, # of connection points: 6
#     Node 27, Type 0, BuildingBlock: OJICUG_clean_sbu_0, # of connection points: 6
#     Node 28, Type 0, BuildingBlock: OJICUG_clean_sbu_0, # of connection points: 6
#     Node 29, Type 0, BuildingBlock: OJICUG_clean_sbu_0, # of connection points: 6
#     Node 30, Type 0, BuildingBlock: OJICUG_clean_sbu_0, # of connection points: 6
#     Node 31, Type 0, BuildingBlock: OJICUG_clean_sbu_0, # of connection points: 6
#     Node 32, Type 0, BuildingBlock: OJICUG_clean_sbu_0, # of connection points: 6
#     Node 33, Type 0, BuildingBlock: OJICUG_clean_sbu_0, # of connection points: 6
#     Node 34, Type 0, BuildingBlock: OJICUG_clean_sbu_0, # of connection points: 6
#     Node 35, Type 0, BuildingBlock: OJICUG_clean_sbu_0, # of connection points: 6
#     Node 36, Type 0, BuildingBlock: OJICUG_clean_sbu_0, # of connection points: 6
#     Node 37, Type 0, BuildingBlock: OJICUG_clean_sbu_0, # of connection points: 6
#     Node 38, Type 0, BuildingBlock: OJICUG_clean_sbu_0, # of connection points: 6
#     Node 39, Type 0, BuildingBlock: OJICUG_clean_sbu_0, # of connection points: 6
#     Node 40, Type 0, BuildingBlock: OJICUG_clean_sbu_0, # of connection points: 6
#     Node 41, Type 0, BuildingBlock: OJICUG_clean_sbu_0, # of connection points: 6
#     Node 42, Type 0, BuildingBlock: OJICUG_clean_sbu_0, # of connection points: 6
#     Node 43, Type 0, BuildingBlock: OJICUG_clean_sbu_0, # of connection points: 6
#     Node 44, Type 0, BuildingBlock: OJICUG_clean_sbu_0, # of connection points: 6
#     Node 45, Type 0, BuildingBlock: OJICUG_clean_sbu_0, # of connection points: 6
#     Node 46, Type 0, BuildingBlock: OJICUG_clean_sbu_0, # of connection points: 6
#     Node 47, Type 0, BuildingBlock: OJICUG_clean_sbu_0, # of connection points: 6
#     Edge 48, Type (0, 0), BuildingBlock: UVAHIK_clean_linker_0, # of connection points: 2
#     Edge 49, Type (0, 0), BuildingBlock: UVAHIK_clean_linker_0, # of connection points: 2
#     Edge 50, Type (0, 0), BuildingBlock: UVAHIK_clean_linker_0, # of connection points: 2
#     Edge 51, Type (0, 0), BuildingBlock: UVAHIK_clean_linker_0, # of connection points: 2
#     Edge 52, Type (0, 0), BuildingBlock: UVAHIK_clean_linker_0, # of connection points: 2
#     Edge 53, Type (0, 0), BuildingBlock: UVAHIK_clean_linker_0, # of connection points: 2
#     Edge 54, Type (0, 0), BuildingBlock: UVAHIK_clean_linker_0, # of connection points: 2
#     Edge 55, Type (0, 0), BuildingBlock: UVAHIK_clean_linker_0, # of connection points: 2
#     Edge 56, Type (0, 0), BuildingBlock: UVAHIK_clean_linker_0, # of connection points: 2
#     Edge 57, Type (0, 0), BuildingBlock: UVAHIK_clean_linker_0, # of connection points: 2
#     Edge 58, Type (0, 0), BuildingBlock: UVAHIK_clean_linker_0, # of connection points: 2
#     Edge 59, Type (0, 0), BuildingBlock: UVAHIK_clean_linker_0, # of connection points: 2
#     Edge 60, Type (0, 0), BuildingBlock: UVAHIK_clean_linker_0, # of connection points: 2
#     Edge 61, Type (0, 0), BuildingBlock: UVAHIK_clean_linker_0, # of connection points: 2
#     Edge 62, Type (0, 0), BuildingBlock: UVAHIK_clean_linker_0, # of connection points: 2
#     Edge 63, Type (0, 0), BuildingBlock: UVAHIK_clean_linker_0, # of connection points: 2
#     Edge 64, Type (0, 0), BuildingBlock: UVAHIK_clean_linker_0, # of connection points: 2
#     Edge 65, Type (0, 0), BuildingBlock: UVAHIK_clean_linker_0, # of connection points: 2
#     Edge 66, Type (0, 0), BuildingBlock: UVAHIK_clean_linker_0, # of connection points: 2
#     Edge 67, Type (0, 0), BuildingBlock: UVAHIK_clean_linker_0, # of connection points: 2
#     Edge 68, Type (0, 0), BuildingBlock: UVAHIK_clean_linker_0, # of connection points: 2
#     Edge 69, Type (0, 0), BuildingBlock: UVAHIK_clean_linker_0, # of connection points: 2
#     Edge 70, Type (0, 0), BuildingBlock: UVAHIK_clean_linker_0, # of connection points: 2
#     Edge 71, Type (0, 0), BuildingBlock: UVAHIK_clean_linker_0, # of connection points: 2
#     Edge 72, Type (0, 0), BuildingBlock: UVAHIK_clean_linker_0, # of connection points: 2
#     Edge 73, Type (0, 0), BuildingBlock: UVAHIK_clean_linker_0, # of connection points: 2
#     Edge 74, Type (0, 0), BuildingBlock: UVAHIK_clean_linker_0, # of connection points: 2
#     Edge 75, Type (0, 0), BuildingBlock: UVAHIK_clean_linker_0, # of connection points: 2
#     Edge 76, Type (0, 0), BuildingBlock: UVAHIK_clean_linker_0, # of connection points: 2
#     Edge 77, Type (0, 0), BuildingBlock: UVAHIK_clean_linker_0, # of connection points: 2
#     Edge 78, Type (0, 0), BuildingBlock: UVAHIK_clean_linker_0, # of connection points: 2
#     Edge 79, Type (0, 0), BuildingBlock: UVAHIK_clean_linker_0, # of connection points: 2
#     Edge 80, Type (0, 0), BuildingBlock: UVAHIK_clean_linker_0, # of connection points: 2
#     Edge 81, Type (0, 0), BuildingBlock: UVAHIK_clean_linker_0, # of connection points: 2
#     Edge 82, Type (0, 0), BuildingBlock: UVAHIK_clean_linker_0, # of connection points: 2
#     Edge 83, Type (0, 0), BuildingBlock: UVAHIK_clean_linker_0, # of connection points: 2
#     Edge 84, Type (0, 0), BuildingBlock: UVAHIK_clean_linker_0, # of connection points: 2
#     Edge 85, Type (0, 0), BuildingBlock: UVAHIK_clean_linker_0, # of connection points: 2
#     Edge 86, Type (0, 0), BuildingBlock: UVAHIK_clean_linker_0, # of connection points: 2
#     Edge 87, Type (0, 0), BuildingBlock: UVAHIK_clean_linker_0, # of connection points: 2
#     Edge 88, Type (0, 0), BuildingBlock: UVAHIK_clean_linker_0, # of connection points: 2
#     Edge 89, Type (0, 0), BuildingBlock: UVAHIK_clean_linker_0, # of connection points: 2
#     Edge 90, Type (0, 0), BuildingBlock: UVAHIK_clean_linker_0, # of connection points: 2
#     Edge 91, Type (0, 0), BuildingBlock: UVAHIK_clean_linker_0, # of connection points: 2
#     Edge 92, Type (0, 0), BuildingBlock: UVAHIK_clean_linker_0, # of connection points: 2
#     Edge 93, Type (0, 0), BuildingBlock: UVAHIK_clean_linker_0, # of connection points: 2
#     Edge 94, Type (0, 0), BuildingBlock: UVAHIK_clean_linker_0, # of connection points: 2
#     Edge 95, Type (0, 0), BuildingBlock: UVAHIK_clean_linker_0, # of connection points: 2
#     Edge 96, Type (0, 0), BuildingBlock: UVAHIK_clean_linker_0, # of connection points: 2
#     Edge 97, Type (0, 0), BuildingBlock: UVAHIK_clean_linker_0, # of connection points: 2
#     Edge 98, Type (0, 0), BuildingBlock: UVAHIK_clean_linker_0, # of connection points: 2
#     Edge 99, Type (0, 0), BuildingBlock: UVAHIK_clean_linker_0, # of connection points: 2
#     Edge 100, Type (0, 0), BuildingBlock: UVAHIK_clean_linker_0, # of connection points: 2
#     Edge 101, Type (0, 0), BuildingBlock: UVAHIK_clean_linker_0, # of connection points: 2
#     Edge 102, Type (0, 0), BuildingBlock: UVAHIK_clean_linker_0, # of connection points: 2
#     Edge 103, Type (0, 0), BuildingBlock: UVAHIK_clean_linker_0, # of connection points: 2
#     Edge 104, Type (0, 0), BuildingBlock: UVAHIK_clean_linker_0, # of connection points: 2
#     Edge 105, Type (0, 0), BuildingBlock: UVAHIK_clean_linker_0, # of connection points: 2
#     Edge 106, Type (0, 0), BuildingBlock: UVAHIK_clean_linker_0, # of connection points: 2
#     Edge 107, Type (0, 0), BuildingBlock: UVAHIK_clean_linker_0, # of connection points: 2
#     Edge 108, Type (0, 0), BuildingBlock: UVAHIK_clean_linker_0, # of connection points: 2
#     Edge 109, Type (0, 0), BuildingBlock: UVAHIK_clean_linker_0, # of connection points: 2
#     Edge 110, Type (0, 0), BuildingBlock: UVAHIK_clean_linker_0, # of connection points: 2
#     Edge 111, Type (0, 0), BuildingBlock: UVAHIK_clean_linker_0, # of connection points: 2
#     Edge 112, Type (0, 0), BuildingBlock: UVAHIK_clean_linker_0, # of connection points: 2
#     Edge 113, Type (0, 0), BuildingBlock: UVAHIK_clean_linker_0, # of connection points: 2
#     Edge 114, Type (0, 0), BuildingBlock: UVAHIK_clean_linker_0, # of connection points: 2
#     Edge 115, Type (0, 0), BuildingBlock: UVAHIK_clean_linker_0, # of connection points: 2
#     Edge 116, Type (0, 0), BuildingBlock: UVAHIK_clean_linker_0, # of connection points: 2
#     Edge 117, Type (0, 0), BuildingBlock: UVAHIK_clean_linker_0, # of connection points: 2
#     Edge 118, Type (0, 0), BuildingBlock: UVAHIK_clean_linker_0, # of connection points: 2
#     Edge 119, Type (0, 0), BuildingBlock: UVAHIK_clean_linker_0, # of connection points: 2
#     Edge 120, Type (0, 0), BuildingBlock: UVAHIK_clean_linker_0, # of connection points: 2
#     Edge 121, Type (0, 0), BuildingBlock: UVAHIK_clean_linker_0, # of connection points: 2
#     Edge 122, Type (0, 0), BuildingBlock: UVAHIK_clean_linker_0, # of connection points: 2
#     Edge 123, Type (0, 0), BuildingBlock: UVAHIK_clean_linker_0, # of connection points: 2
#     Edge 124, Type (0, 0), BuildingBlock: UVAHIK_clean_linker_0, # of connection points: 2
#     Edge 125, Type (0, 0), BuildingBlock: UVAHIK_clean_linker_0, # of connection points: 2
#     Edge 126, Type (0, 0), BuildingBlock: UVAHIK_clean_linker_0, # of connection points: 2
#     Edge 127, Type (0, 0), BuildingBlock: UVAHIK_clean_linker_0, # of connection points: 2
#     Edge 128, Type (0, 0), BuildingBlock: UVAHIK_clean_linker_0, # of connection points: 2
#     Edge 129, Type (0, 0), BuildingBlock: UVAHIK_clean_linker_0, # of connection points: 2
#     Edge 130, Type (0, 0), BuildingBlock: UVAHIK_clean_linker_0, # of connection points: 2
#     Edge 131, Type (0, 0), BuildingBlock: UVAHIK_clean_linker_0, # of connection points: 2
#     Edge 132, Type (0, 0), BuildingBlock: UVAHIK_clean_linker_0, # of connection points: 2
#     Edge 133, Type (0, 0), BuildingBlock: UVAHIK_clean_linker_0, # of connection points: 2
#     Edge 134, Type (0, 0), BuildingBlock: UVAHIK_clean_linker_0, # of connection points: 2
#     Edge 135, Type (0, 0), BuildingBlock: UVAHIK_clean_linker_0, # of connection points: 2
#     Edge 136, Type (0, 0), BuildingBlock: UVAHIK_clean_linker_0, # of connection points: 2
#     Edge 137, Type (0, 0), BuildingBlock: UVAHIK_clean_linker_0, # of connection points: 2
#     Edge 138, Type (0, 0), BuildingBlock: UVAHIK_clean_linker_0, # of connection points: 2
#     Edge 139, Type (0, 0), BuildingBlock: UVAHIK_clean_linker_0, # of connection points: 2
#     Edge 140, Type (0, 0), BuildingBlock: UVAHIK_clean_linker_0, # of connection points: 2
#     Edge 141, Type (0, 0), BuildingBlock: UVAHIK_clean_linker_0, # of connection points: 2
#     Edge 142, Type (0, 0), BuildingBlock: UVAHIK_clean_linker_0, # of connection points: 2
#     Edge 143, Type (0, 0), BuildingBlock: UVAHIK_clean_linker_0, # of connection points: 2
#     Edge 144, Type (0, 0), BuildingBlock: UVAHIK_clean_linker_0, # of connection points: 2
#     Edge 145, Type (0, 0), BuildingBlock: UVAHIK_clean_linker_0, # of connection points: 2
#     Edge 146, Type (0, 0), BuildingBlock: UVAHIK_clean_linker_0, # of connection points: 2
#     Edge 147, Type (0, 0), BuildingBlock: UVAHIK_clean_linker_0, # of connection points: 2
#     Edge 148, Type (0, 0), BuildingBlock: UVAHIK_clean_linker_0, # of connection points: 2
#     Edge 149, Type (0, 0), BuildingBlock: UVAHIK_clean_linker_0, # of connection points: 2
#     Edge 150, Type (0, 0), BuildingBlock: UVAHIK_clean_linker_0, # of connection points: 2
#     Edge 151, Type (0, 0), BuildingBlock: UVAHIK_clean_linker_0, # of connection points: 2
#     Edge 152, Type (0, 0), BuildingBlock: UVAHIK_clean_linker_0, # of connection points: 2
#     Edge 153, Type (0, 0), BuildingBlock: UVAHIK_clean_linker_0, # of connection points: 2
#     Edge 154, Type (0, 0), BuildingBlock: UVAHIK_clean_linker_0, # of connection points: 2
#     Edge 155, Type (0, 0), BuildingBlock: UVAHIK_clean_linker_0, # of connection points: 2
#     Edge 156, Type (0, 0), BuildingBlock: UVAHIK_clean_linker_0, # of connection points: 2
#     Edge 157, Type (0, 0), BuildingBlock: UVAHIK_clean_linker_0, # of connection points: 2
#     Edge 158, Type (0, 0), BuildingBlock: UVAHIK_clean_linker_0, # of connection points: 2
#     Edge 159, Type (0, 0), BuildingBlock: UVAHIK_clean_linker_0, # of connection points: 2
#     Edge 160, Type (0, 0), BuildingBlock: UVAHIK_clean_linker_0, # of connection points: 2
#     Edge 161, Type (0, 0), BuildingBlock: UVAHIK_clean_linker_0, # of connection points: 2
#     Edge 162, Type (0, 0), BuildingBlock: UVAHIK_clean_linker_0, # of connection points: 2
#     Edge 163, Type (0, 0), BuildingBlock: UVAHIK_clean_linker_0, # of connection points: 2
#     Edge 164, Type (0, 0), BuildingBlock: UVAHIK_clean_linker_0, # of connection points: 2
#     Edge 165, Type (0, 0), BuildingBlock: UVAHIK_clean_linker_0, # of connection points: 2
#     Edge 166, Type (0, 0), BuildingBlock: UVAHIK_clean_linker_0, # of connection points: 2
#     Edge 167, Type (0, 0), BuildingBlock: UVAHIK_clean_linker_0, # of connection points: 2
#     Edge 168, Type (0, 0), BuildingBlock: UVAHIK_clean_linker_0, # of connection points: 2
#     Edge 169, Type (0, 0), BuildingBlock: UVAHIK_clean_linker_0, # of connection points: 2
#     Edge 170, Type (0, 0), BuildingBlock: UVAHIK_clean_linker_0, # of connection points: 2
#     Edge 171, Type (0, 0), BuildingBlock: UVAHIK_clean_linker_0, # of connection points: 2
#     Edge 172, Type (0, 0), BuildingBlock: UVAHIK_clean_linker_0, # of connection points: 2
#     Edge 173, Type (0, 0), BuildingBlock: UVAHIK_clean_linker_0, # of connection points: 2
#     Edge 174, Type (0, 0), BuildingBlock: UVAHIK_clean_linker_0, # of connection points: 2
#     Edge 175, Type (0, 0), BuildingBlock: UVAHIK_clean_linker_0, # of connection points: 2
#     Edge 176, Type (0, 0), BuildingBlock: UVAHIK_clean_linker_0, # of connection points: 2
#     Edge 177, Type (0, 0), BuildingBlock: UVAHIK_clean_linker_0, # of connection points: 2
#     Edge 178, Type (0, 0), BuildingBlock: UVAHIK_clean_linker_0, # of connection points: 2
#     Edge 179, Type (0, 0), BuildingBlock: UVAHIK_clean_linker_0, # of connection points: 2
#     Edge 180, Type (0, 0), BuildingBlock: UVAHIK_clean_linker_0, # of connection points: 2
#     Edge 181, Type (0, 0), BuildingBlock: UVAHIK_clean_linker_0, # of connection points: 2
#     Edge 182, Type (0, 0), BuildingBlock: UVAHIK_clean_linker_0, # of connection points: 2
#     Edge 183, Type (0, 0), BuildingBlock: UVAHIK_clean_linker_0, # of connection points: 2
#     Edge 184, Type (0, 0), BuildingBlock: UVAHIK_clean_linker_0, # of connection points: 2
#     Edge 185, Type (0, 0), BuildingBlock: UVAHIK_clean_linker_0, # of connection points: 2
#     Edge 186, Type (0, 0), BuildingBlock: UVAHIK_clean_linker_0, # of connection points: 2
#     Edge 187, Type (0, 0), BuildingBlock: UVAHIK_clean_linker_0, # of connection points: 2
#     Edge 188, Type (0, 0), BuildingBlock: UVAHIK_clean_linker_0, # of connection points: 2
#     Edge 189, Type (0, 0), BuildingBlock: UVAHIK_clean_linker_0, # of connection points: 2
#     Edge 190, Type (0, 0), BuildingBlock: UVAHIK_clean_linker_0, # of connection points: 2
#     Edge 191, Type (0, 0), BuildingBlock: UVAHIK_clean_linker_0, # of connection points: 2
# Relax obj value: 0.432
# Max RMSD: 0.178
# Mean RMSD: 0.178
data_MOF--net-bcu-k--node1-OJICUG_clean_sbu_0--edge1-UVAHIK_clean_linker_0
_symmetry_space_group_name_H-M    P1
_symmetry_Int_Tables_number       1
_symmetry_cell_setting            triclinic
loop_
_symmetry_equiv_pos_as_xyz
'x, y, z'
_cell_length_a     75.924341
_cell_length_b     75.848853
_cell_length_c     75.879711
_cell_angle_alpha  89.983627
_cell_angle_beta   90.052937
_cell_angle_gamma 89.991122
loop_
_atom_site_label
_atom_site_type_symbol
_atom_site_fract_x
_atom_site_fract_y
_atom_site_fract_z
_atom_type_partial_charge
Sc0 Sc 0.15279 0.1538 0.33352 0.0
Sc1 Sc 0.12244 0.12411 0.35233 0.0
Sc2 Sc 0.12743 0.1261 0.30614 0.0
O3 O 0.13422 0.13468 0.33065 0.0
C4 C 0.13138 0.16765 0.30003 0.0
C5 C 0.12496 0.16451 0.36319 0.0
C6 C 0.09021 0.12747 0.32557 0.0
C7 C 0.16236 0.12734 0.36481 0.0
C8 C 0.16898 0.13101 0.30197 0.0
C9 C 0.12769 0.09023 0.32801 0.0
O10 O 0.14112 0.17023 0.31344 0.0
O11 O 0.11783 0.14942 0.36438 0.0
O12 O 0.09964 0.12741 0.31173 0.0
O13 O 0.16627 0.13941 0.35386 0.0
O14 O 0.15441 0.12395 0.29767 0.0
O15 O 0.12541 0.09768 0.34281 0.0
O16 O 0.17036 0.14204 0.31452 0.0
O17 O 0.14714 0.12047 0.36589 0.0
O18 O 0.12863 0.09873 0.31361 0.0
O19 O 0.13765 0.16787 0.35283 0.0
O20 O 0.1256 0.15249 0.29579 0.0
O21 O 0.09665 0.12636 0.34099 0.0
Sc22 Sc 0.86466 0.12608 0.3059 0.0
Sc23 Sc 0.86927 0.12455 0.35231 0.0
Sc24 Sc 0.84009 0.15479 0.33262 0.0
O25 O 0.85798 0.13507 0.33026 0.0
C26 C 0.86157 0.16721 0.29856 0.0
C27 C 0.90175 0.1266 0.32581 0.0
C28 C 0.86898 0.16561 0.36099 0.0
C29 C 0.86322 0.09054 0.32817 0.0
C30 C 0.82296 0.13175 0.30206 0.0
C31 C 0.82989 0.1297 0.36504 0.0
O32 O 0.86801 0.15214 0.29515 0.0
O33 O 0.8952 0.12633 0.34122 0.0
O34 O 0.85721 0.16928 0.34968 0.0
O35 O 0.8621 0.099 0.31377 0.0
O36 O 0.82158 0.14218 0.31513 0.0
O37 O 0.84443 0.12145 0.36555 0.0
O38 O 0.83761 0.12526 0.29714 0.0
O39 O 0.86606 0.09798 0.34291 0.0
O40 O 0.82688 0.14227 0.35436 0.0
O41 O 0.8924 0.12614 0.31191 0.0
O42 O 0.85105 0.16987 0.31129 0.0
O43 O 0.87409 0.15 0.36429 0.0
Sc44 Sc 0.86579 0.86509 0.30897 0.0
Sc45 Sc 0.86763 0.86783 0.35539 0.0
Sc46 Sc 0.83728 0.83922 0.33484 0.0
O47 O 0.85691 0.85737 0.33306 0.0
C48 C 0.82435 0.86241 0.30217 0.0
C49 C 0.86519 0.9014 0.33021 0.0
C50 C 0.82697 0.8661 0.36546 0.0
C51 C 0.90149 0.86302 0.33099 0.0
C52 C 0.86008 0.82384 0.30294 0.0
C53 C 0.86308 0.82745 0.36595 0.0
O54 O 0.83965 0.8681 0.29852 0.0
O55 O 0.86619 0.89424 0.34532 0.0
O56 O 0.82337 0.85404 0.35443 0.0
O57 O 0.89297 0.86297 0.31658 0.0
O58 O 0.84902 0.8222 0.31542 0.0
O59 O 0.87047 0.84237 0.36776 0.0
O60 O 0.86737 0.83846 0.29917 0.0
O61 O 0.8941 0.86465 0.34592 0.0
O62 O 0.85096 0.8245 0.35477 0.0
O63 O 0.865 0.89258 0.31596 0.0
O64 O 0.82137 0.85201 0.31498 0.0
O65 O 0.84228 0.87259 0.36732 0.0
Sc66 Sc 0.15248 0.83652 0.3324 0.0
Sc67 Sc 0.12463 0.86691 0.3537 0.0
Sc68 Sc 0.12652 0.86542 0.30717 0.0
O69 O 0.13457 0.85634 0.33107 0.0
C70 C 0.16802 0.85976 0.3012 0.0
C71 C 0.16449 0.86147 0.36436 0.0
C72 C 0.12932 0.90094 0.32933 0.0
C73 C 0.12508 0.82582 0.36221 0.0
C74 C 0.1293 0.82434 0.29932 0.0
C75 C 0.09064 0.86501 0.32916 0.0
O76 O 0.17012 0.84925 0.31412 0.0
O77 O 0.15011 0.86989 0.3655 0.0
O78 O 0.12955 0.89251 0.31487 0.0
O79 O 0.13606 0.82202 0.35018 0.0
O80 O 0.12253 0.83941 0.29657 0.0
O81 O 0.09814 0.86526 0.34413 0.0
O82 O 0.14057 0.82159 0.3114 0.0
O83 O 0.12048 0.84149 0.3659 0.0
O84 O 0.09912 0.86538 0.3147 0.0
O85 O 0.16684 0.84881 0.35364 0.0
O86 O 0.15309 0.86624 0.29706 0.0
O87 O 0.12736 0.89346 0.34419 0.0
Sc88 Sc 0.1276 0.86579 0.68538 0.0
Sc89 Sc 0.12236 0.869 0.63909 0.0
Sc90 Sc 0.15157 0.83782 0.6573 0.0
O91 O 0.13386 0.85759 0.6606 0.0
C92 C 0.16937 0.85997 0.68824 0.0
C93 C 0.12945 0.90211 0.66395 0.0
C94 C 0.16135 0.86323 0.62511 0.0
C95 C 0.09026 0.86704 0.66622 0.0
C96 C 0.13087 0.82434 0.6914 0.0
C97 C 0.12159 0.82818 0.62948 0.0
O98 O 0.15488 0.8666 0.69347 0.0
O99 O 0.12713 0.89507 0.64892 0.0
O100 O 0.16469 0.85084 0.63586 0.0
O101 O 0.09969 0.86556 0.67999 0.0
O102 O 0.14085 0.82207 0.67818 0.0
O103 O 0.11613 0.84386 0.62715 0.0
O104 O 0.12472 0.83936 0.69557 0.0
O105 O 0.09665 0.86859 0.65083 0.0
O106 O 0.13404 0.82415 0.63991 0.0
O107 O 0.12972 0.89327 0.67821 0.0
O108 O 0.1704 0.84967 0.67503 0.0
O109 O 0.14673 0.87133 0.62483 0.0
Sc110 Sc 0.12714 0.12776 0.68545 0.0
Sc111 Sc 0.12225 0.12491 0.63913 0.0
Sc112 Sc 0.15197 0.15527 0.65768 0.0
O113 O 0.1338 0.13592 0.66077 0.0
C114 C 0.13109 0.16908 0.6916 0.0
C115 C 0.08994 0.12821 0.66574 0.0
C116 C 0.12306 0.16568 0.62918 0.0
C117 C 0.12796 0.09152 0.66424 0.0
C118 C 0.16899 0.13271 0.68867 0.0
C119 C 0.16151 0.12918 0.62586 0.0
O120 O 0.12426 0.15426 0.69544 0.0
O121 O 0.09642 0.12743 0.65031 0.0
O122 O 0.13484 0.16959 0.64042 0.0
O123 O 0.12925 0.10032 0.67844 0.0
O124 O 0.17047 0.14272 0.67527 0.0
O125 O 0.14693 0.121 0.62583 0.0
O126 O 0.15423 0.12676 0.69397 0.0
O127 O 0.12515 0.09865 0.64934 0.0
O128 O 0.16472 0.14206 0.63609 0.0
O129 O 0.09935 0.12803 0.67961 0.0
O130 O 0.14159 0.17108 0.67874 0.0
O131 O 0.11783 0.15002 0.62635 0.0
Sc132 Sc 0.83934 0.15269 0.65921 0.0
Sc133 Sc 0.86898 0.12262 0.63999 0.0
Sc134 Sc 0.86443 0.12471 0.68631 0.0
O135 O 0.85755 0.13329 0.66185 0.0
C136 C 0.86058 0.16589 0.69318 0.0
C137 C 0.86784 0.16355 0.63055 0.0
C138 C 0.90148 0.12579 0.66638 0.0
C139 C 0.82955 0.12683 0.62722 0.0
C140 C 0.82261 0.1296 0.68992 0.0
C141 C 0.86374 0.08883 0.66463 0.0
O142 O 0.85002 0.16826 0.6804 0.0
O143 O 0.87309 0.14795 0.62745 0.0
O144 O 0.89218 0.12526 0.68031 0.0
O145 O 0.82637 0.13966 0.63753 0.0
O146 O 0.83738 0.12339 0.6949 0.0
O147 O 0.86646 0.09614 0.64981 0.0
O148 O 0.82103 0.14 0.67684 0.0
O149 O 0.84416 0.11871 0.62698 0.0
O150 O 0.86241 0.09747 0.6789 0.0
O151 O 0.85621 0.16726 0.64197 0.0
O152 O 0.86726 0.15095 0.69672 0.0
O153 O 0.89488 0.12523 0.65099 0.0
Sc154 Sc 0.8388 0.83579 0.65839 0.0
Sc155 Sc 0.86854 0.86641 0.6403 0.0
Sc156 Sc 0.86388 0.86308 0.68652 0.0
O157 O 0.85706 0.8551 0.66176 0.0
C158 C 0.82238 0.85713 0.69082 0.0
C159 C 0.82862 0.86297 0.62787 0.0
C160 C 0.86291 0.89951 0.66574 0.0
C161 C 0.86658 0.82635 0.62828 0.0
C162 C 0.86081 0.8213 0.69126 0.0
C163 C 0.90097 0.86287 0.6667 0.0
O164 O 0.82103 0.84689 0.67761 0.0
O165 O 0.84363 0.87037 0.62711 0.0
O166 O 0.86169 0.89065 0.67991 0.0
O167 O 0.85422 0.82235 0.63882 0.0
O168 O 0.86669 0.83633 0.69585 0.0
O169 O 0.89444 0.86366 0.6513 0.0
O170 O 0.85069 0.81914 0.67806 0.0
O171 O 0.87316 0.84168 0.62728 0.0
O172 O 0.89169 0.86308 0.68064 0.0
O173 O 0.82513 0.85038 0.63837 0.0
O174 O 0.83694 0.86399 0.69549 0.0
O175 O 0.86564 0.89245 0.65082 0.0
Sc176 Sc 0.33224 0.15428 0.15193 0.0
Sc177 Sc 0.3507 0.12354 0.12252 0.0
Sc178 Sc 0.30444 0.12676 0.12706 0.0
O179 O 0.32911 0.13481 0.13386 0.0
C180 C 0.30105 0.13199 0.16889 0.0
C181 C 0.36374 0.12797 0.1619 0.0
C182 C 0.3254 0.09037 0.12818 0.0
C183 C 0.36098 0.16418 0.12308 0.0
C184 C 0.29857 0.16819 0.13074 0.0
C185 C 0.32426 0.12673 0.08997 0.0
O186 O 0.31431 0.14216 0.1704 0.0
O187 O 0.36388 0.1198 0.14731 0.0
O188 O 0.31125 0.09926 0.1292 0.0
O189 O 0.34982 0.16827 0.13484 0.0
O190 O 0.29459 0.15331 0.12413 0.0
O191 O 0.33962 0.12578 0.09658 0.0
O192 O 0.31147 0.17025 0.1412 0.0
O193 O 0.36361 0.14848 0.11789 0.0
O194 O 0.31034 0.12693 0.09928 0.0
O195 O 0.35355 0.14089 0.16502 0.0
O196 O 0.29595 0.1258 0.15415 0.0
O197 O 0.34036 0.0974 0.1256 0.0
Sc198 Sc 0.83853 0.3342 0.15482 0.0
Sc199 Sc 0.8667 0.35477 0.12423 0.0
Sc200 Sc 0.86308 0.30825 0.12541 0.0
O201 O 0.85609 0.33239 0.13476 0.0
C202 C 0.86091 0.30048 0.16654 0.0
C203 C 0.86723 0.36296 0.16536 0.0
C204 C 0.89978 0.32886 0.12516 0.0
C205 C 0.82707 0.36654 0.13021 0.0
C206 C 0.82156 0.30353 0.13174 0.0
C207 C 0.86047 0.33091 0.09011 0.0
O208 O 0.85033 0.31309 0.16952 0.0
O209 O 0.87201 0.36647 0.1497 0.0
O210 O 0.89071 0.31476 0.12508 0.0
O211 O 0.82449 0.35563 0.14266 0.0
O212 O 0.83617 0.2991 0.1248 0.0
O213 O 0.86297 0.34566 0.09765 0.0
O214 O 0.82015 0.3163 0.14254 0.0
O215 O 0.84152 0.36758 0.12189 0.0
O216 O 0.85998 0.31638 0.09845 0.0
O217 O 0.85554 0.35159 0.16907 0.0
O218 O 0.86701 0.29721 0.1513 0.0
O219 O 0.8929 0.34414 0.12507 0.0
Sc220 Sc 0.68749 0.86553 0.12553 0.0
Sc221 Sc 0.64088 0.86902 0.12469 0.0
Sc222 Sc 0.66184 0.84036 0.15458 0.0
O223 O 0.66342 0.85833 0.13489 0.0
C224 C 0.6928 0.82425 0.13124 0.0
C225 C 0.66478 0.8645 0.09026 0.0
C226 C 0.63091 0.82858 0.12839 0.0
C227 C 0.66671 0.90206 0.12732 0.0
C228 C 0.69489 0.86288 0.16703 0.0
C229 C 0.63171 0.86757 0.1655 0.0
O230 O 0.69656 0.83861 0.12345 0.0
O231 O 0.65007 0.86656 0.09797 0.0
O232 O 0.64206 0.8258 0.14058 0.0
O233 O 0.68086 0.89313 0.12645 0.0
O234 O 0.68181 0.85293 0.17015 0.0
O235 O 0.62871 0.87325 0.15006 0.0
O236 O 0.69868 0.86829 0.15161 0.0
O237 O 0.65141 0.89521 0.12701 0.0
O238 O 0.64313 0.85585 0.16887 0.0
O239 O 0.67931 0.8637 0.09851 0.0
O240 O 0.68087 0.82306 0.14289 0.0
O241 O 0.62845 0.84361 0.12139 0.0
Sc242 Sc 0.12496 0.68574 0.12448 0.0
Sc243 Sc 0.12206 0.63927 0.12245 0.0
Sc244 Sc 0.15063 0.65965 0.15285 0.0
O245 O 0.13257 0.66157 0.13321 0.0
C246 C 0.16662 0.69069 0.12975 0.0
C247 C 0.12731 0.66389 0.08872 0.0
C248 C 0.16168 0.6276 0.12764 0.0
C249 C 0.08866 0.66456 0.12467 0.0
C250 C 0.12825 0.69308 0.16558 0.0
C251 C 0.12244 0.63051 0.16348 0.0
O252 O 0.15171 0.69524 0.12355 0.0
O253 O 0.12514 0.64895 0.09599 0.0
O254 O 0.16441 0.63823 0.1403 0.0
O255 O 0.09743 0.67884 0.12458 0.0
O256 O 0.13932 0.68077 0.16808 0.0
O257 O 0.11756 0.62708 0.14782 0.0
O258 O 0.12137 0.69613 0.15062 0.0
O259 O 0.09583 0.64945 0.1241 0.0
O260 O 0.13387 0.64214 0.16726 0.0
O261 O 0.12768 0.67824 0.09733 0.0
O262 O 0.16858 0.67764 0.14013 0.0
O263 O 0.14719 0.62681 0.11938 0.0
Sc264 Sc 0.33466 0.83653 0.83716 0.0
Sc265 Sc 0.35243 0.86767 0.86668 0.0
Sc266 Sc 0.30633 0.86338 0.86236 0.0
O267 O 0.33113 0.85585 0.8554 0.0
C268 C 0.30225 0.85792 0.82075 0.0
C269 C 0.36539 0.8633 0.82702 0.0
C270 C 0.32669 0.90017 0.86047 0.0
C271 C 0.36442 0.82758 0.86569 0.0
C272 C 0.30181 0.82159 0.85876 0.0
C273 C 0.32602 0.86442 0.89936 0.0
O274 O 0.31528 0.84745 0.81945 0.0
O275 O 0.36636 0.8704 0.84213 0.0
O276 O 0.31264 0.89107 0.86098 0.0
O277 O 0.35442 0.82363 0.85282 0.0
O278 O 0.29711 0.83661 0.86454 0.0
O279 O 0.34115 0.86668 0.8926 0.0
O280 O 0.31519 0.81947 0.84891 0.0
O281 O 0.36494 0.84283 0.87258 0.0
O282 O 0.31215 0.86264 0.89015 0.0
O283 O 0.35445 0.8512 0.82328 0.0
O284 O 0.29763 0.86486 0.8353 0.0
O285 O 0.34199 0.89352 0.86192 0.0
Sc286 Sc 0.15524 0.33505 0.83712 0.0
Sc287 Sc 0.12621 0.35671 0.86603 0.0
Sc288 Sc 0.12638 0.31016 0.86319 0.0
O289 O 0.13586 0.33396 0.85542 0.0
C290 C 0.13123 0.30468 0.82149 0.0
C291 C 0.1311 0.36804 0.82626 0.0
C292 C 0.09153 0.33329 0.86135 0.0
C293 C 0.16752 0.36381 0.86489 0.0
C294 C 0.16702 0.30127 0.85961 0.0
C295 C 0.12784 0.33161 0.89952 0.0
O296 O 0.14139 0.31784 0.81925 0.0
O297 O 0.12268 0.36891 0.84067 0.0
O298 O 0.09955 0.31865 0.85991 0.0
O299 O 0.1707 0.35168 0.85381 0.0
O300 O 0.15224 0.29908 0.86716 0.0
O301 O 0.1285 0.34673 0.89235 0.0
O302 O 0.16956 0.31313 0.84806 0.0
O303 O 0.15206 0.36823 0.86954 0.0
O304 O 0.1264 0.3174 0.89072 0.0
O305 O 0.14359 0.35718 0.82367 0.0
O306 O 0.12548 0.30013 0.83658 0.0
O307 O 0.09935 0.34782 0.86423 0.0
Sc308 Sc 0.6865 0.12403 0.86425 0.0
Sc309 Sc 0.64004 0.12337 0.86821 0.0
Sc310 Sc 0.66064 0.15372 0.83981 0.0
O311 O 0.66241 0.13365 0.8574 0.0
C312 C 0.69474 0.16511 0.86175 0.0
C313 C 0.66628 0.12426 0.9011 0.0
C314 C 0.63227 0.16462 0.86874 0.0
C315 C 0.66343 0.08896 0.86193 0.0
C316 C 0.69072 0.13005 0.82265 0.0
C317 C 0.62785 0.12957 0.82871 0.0
O318 O 0.69795 0.14982 0.86779 0.0
O319 O 0.65097 0.12409 0.8943 0.0
O320 O 0.64353 0.16821 0.85691 0.0
O321 O 0.67806 0.09709 0.86152 0.0
O322 O 0.67819 0.14113 0.82134 0.0
O323 O 0.62687 0.12124 0.84319 0.0
O324 O 0.69521 0.12306 0.83723 0.0
O325 O 0.64879 0.09671 0.86433 0.0
O326 O 0.63893 0.14182 0.82598 0.0
O327 O 0.68031 0.12411 0.89195 0.0
O328 O 0.68198 0.16823 0.85138 0.0
O329 O 0.62872 0.14899 0.87362 0.0
Sc330 Sc 0.83756 0.65872 0.84084 0.0
Sc331 Sc 0.86802 0.63908 0.86972 0.0
Sc332 Sc 0.8653 0.68559 0.86638 0.0
O333 O 0.85703 0.66115 0.85896 0.0
C334 C 0.86032 0.68985 0.82457 0.0
C335 C 0.86298 0.62675 0.8302 0.0
C336 C 0.9014 0.66415 0.86447 0.0
C337 C 0.82713 0.62992 0.86942 0.0
C338 C 0.82413 0.69223 0.86265 0.0
C339 C 0.86536 0.66474 0.90293 0.0
O340 O 0.85026 0.67654 0.82277 0.0
O341 O 0.87133 0.62624 0.84468 0.0
O342 O 0.89264 0.67843 0.86402 0.0
O343 O 0.82328 0.64132 0.85777 0.0
O344 O 0.83894 0.69575 0.86962 0.0
O345 O 0.86628 0.64958 0.89588 0.0
O346 O 0.82205 0.6797 0.85177 0.0
O347 O 0.84278 0.62669 0.87441 0.0
O348 O 0.86509 0.67895 0.89402 0.0
O349 O 0.85026 0.63726 0.8274 0.0
O350 O 0.86627 0.69483 0.83946 0.0
O351 O 0.89427 0.64913 0.86656 0.0
Sc352 Sc 0.12555 0.3067 0.1245 0.0
Sc353 Sc 0.12204 0.35325 0.1229 0.0
Sc354 Sc 0.15117 0.33298 0.15275 0.0
O355 O 0.13294 0.33096 0.13331 0.0
C356 C 0.12936 0.29921 0.16554 0.0
C357 C 0.08893 0.32738 0.12471 0.0
C358 C 0.12244 0.36136 0.16404 0.0
C359 C 0.12751 0.32907 0.0889 0.0
C360 C 0.16732 0.3022 0.12943 0.0
C361 C 0.16156 0.36564 0.12813 0.0
O362 O 0.12233 0.29598 0.15067 0.0
O363 O 0.09592 0.34259 0.1242 0.0
O364 O 0.13433 0.35009 0.16749 0.0
O365 O 0.12792 0.31456 0.09732 0.0
O366 O 0.1692 0.31535 0.13969 0.0
O367 O 0.14696 0.36643 0.12004 0.0
O368 O 0.15241 0.29743 0.12338 0.0
O369 O 0.1254 0.34391 0.09639 0.0
O370 O 0.16458 0.35467 0.14041 0.0
O371 O 0.0979 0.31322 0.12476 0.0
O372 O 0.14025 0.31169 0.16784 0.0
O373 O 0.11719 0.36484 0.14851 0.0
Sc374 Sc 0.12719 0.68382 0.86352 0.0
Sc375 Sc 0.12351 0.63755 0.86672 0.0
Sc376 Sc 0.15337 0.65649 0.83661 0.0
O377 O 0.13469 0.6593 0.85561 0.0
C378 C 0.13124 0.68921 0.82196 0.0
C379 C 0.09052 0.66335 0.86298 0.0
C380 C 0.12599 0.62616 0.82648 0.0
C381 C 0.12832 0.66282 0.89993 0.0
C382 C 0.16871 0.68889 0.85879 0.0
C383 C 0.16361 0.62577 0.86348 0.0
O384 O 0.1251 0.69351 0.83694 0.0
O385 O 0.09744 0.64819 0.86459 0.0
O386 O 0.1385 0.63668 0.82291 0.0
O387 O 0.12862 0.677 0.89102 0.0
O388 O 0.17052 0.67603 0.84818 0.0
O389 O 0.14845 0.62451 0.87042 0.0
O390 O 0.15394 0.69307 0.86548 0.0
O391 O 0.12657 0.64771 0.89293 0.0
O392 O 0.16727 0.63664 0.85127 0.0
O393 O 0.09954 0.67745 0.86238 0.0
O394 O 0.14144 0.67608 0.81977 0.0
O395 O 0.11895 0.62504 0.84161 0.0
Sc396 Sc 0.33206 0.15295 0.83844 0.0
Sc397 Sc 0.35037 0.12294 0.86884 0.0
Sc398 Sc 0.30426 0.12556 0.86357 0.0
O399 O 0.32889 0.13383 0.85696 0.0
C400 C 0.29867 0.16709 0.85998 0.0
C401 C 0.36171 0.16335 0.86627 0.0
C402 C 0.32381 0.1263 0.90097 0.0
C403 C 0.363 0.12592 0.82904 0.0
C404 C 0.30038 0.13085 0.8219 0.0
C405 C 0.32542 0.08943 0.86338 0.0
O406 O 0.31169 0.1694 0.84966 0.0
O407 O 0.36313 0.14807 0.87298 0.0
O408 O 0.30998 0.12578 0.8915 0.0
O409 O 0.35266 0.13859 0.82532 0.0
O410 O 0.29542 0.1244 0.83655 0.0
O411 O 0.3402 0.09658 0.86665 0.0
O412 O 0.31356 0.14108 0.82054 0.0
O413 O 0.36355 0.11859 0.84408 0.0
O414 O 0.31129 0.09817 0.86132 0.0
O415 O 0.351 0.16702 0.85395 0.0
O416 O 0.29462 0.15209 0.86628 0.0
O417 O 0.33924 0.12587 0.89454 0.0
Sc418 Sc 0.86763 0.30745 0.86593 0.0
Sc419 Sc 0.86723 0.3543 0.86644 0.0
Sc420 Sc 0.83887 0.33077 0.83827 0.0
O421 O 0.85795 0.33083 0.85691 0.0
C422 C 0.86366 0.29951 0.82487 0.0
C423 C 0.90222 0.33134 0.8634 0.0
C424 C 0.8635 0.36238 0.82554 0.0
C425 C 0.86521 0.33029 0.90106 0.0
C426 C 0.82663 0.29859 0.86223 0.0
C427 C 0.82612 0.36141 0.86422 0.0
O428 O 0.87081 0.29665 0.83977 0.0
O429 O 0.89415 0.34602 0.86346 0.0
O430 O 0.85248 0.35009 0.82289 0.0
O431 O 0.8653 0.31566 0.89291 0.0
O432 O 0.82352 0.31107 0.85151 0.0
O433 O 0.84118 0.36494 0.8706 0.0
O434 O 0.84192 0.29549 0.86835 0.0
O435 O 0.86626 0.3451 0.89327 0.0
O436 O 0.82362 0.34987 0.85236 0.0
O437 O 0.89445 0.31655 0.86467 0.0
O438 O 0.85194 0.31124 0.82252 0.0
O439 O 0.86956 0.36617 0.84067 0.0
Sc440 Sc 0.68263 0.86365 0.86403 0.0
Sc441 Sc 0.63633 0.8661 0.86779 0.0
Sc442 Sc 0.65565 0.83561 0.83862 0.0
O443 O 0.65822 0.85513 0.8568 0.0
C444 C 0.68786 0.85766 0.82266 0.0
C445 C 0.66093 0.89966 0.86192 0.0
C446 C 0.62438 0.86152 0.82779 0.0
C447 C 0.66227 0.86386 0.9008 0.0
C448 C 0.68853 0.82202 0.86117 0.0
C449 C 0.62555 0.82569 0.86636 0.0
O450 O 0.69194 0.86496 0.83719 0.0
O451 O 0.64597 0.89239 0.86381 0.0
O452 O 0.63569 0.84967 0.82428 0.0
O453 O 0.67635 0.86315 0.89177 0.0
O454 O 0.67537 0.81937 0.85111 0.0
O455 O 0.62439 0.84091 0.87321 0.0
O456 O 0.69271 0.83724 0.86681 0.0
O457 O 0.64711 0.86509 0.89384 0.0
O458 O 0.63594 0.82205 0.85375 0.0
O459 O 0.6753 0.89104 0.86191 0.0
O460 O 0.6751 0.84689 0.82122 0.0
O461 O 0.62295 0.86861 0.84288 0.0
Sc462 Sc 0.8365 0.65868 0.15486 0.0
Sc463 Sc 0.86631 0.6385 0.12572 0.0
Sc464 Sc 0.86381 0.68497 0.12844 0.0
O465 O 0.85553 0.66072 0.13627 0.0
C466 C 0.82203 0.69022 0.13173 0.0
C467 C 0.82644 0.62696 0.12889 0.0
C468 C 0.86283 0.66385 0.09221 0.0
C469 C 0.86403 0.62938 0.16667 0.0
C470 C 0.85861 0.69167 0.16929 0.0
C471 C 0.89984 0.66334 0.1296 0.0
O472 O 0.8192 0.67654 0.14103 0.0
O473 O 0.84111 0.62645 0.12094 0.0
O474 O 0.8618 0.67807 0.10102 0.0
O475 O 0.85261 0.64116 0.17005 0.0
O476 O 0.86675 0.6946 0.15497 0.0
O477 O 0.89263 0.64825 0.12894 0.0
O478 O 0.84691 0.67979 0.17072 0.0
O479 O 0.86928 0.62586 0.15115 0.0
O480 O 0.89115 0.67765 0.1291 0.0
O481 O 0.82342 0.63722 0.14176 0.0
O482 O 0.83736 0.69509 0.12705 0.0
O483 O 0.86484 0.64881 0.09936 0.0
Sc484 Sc 0.33191 0.83761 0.15171 0.0
Sc485 Sc 0.35102 0.8677 0.12189 0.0
Sc486 Sc 0.30476 0.86462 0.12538 0.0
O487 O 0.32923 0.85664 0.13299 0.0
C488 C 0.29939 0.82302 0.12932 0.0
C489 C 0.36228 0.82736 0.12447 0.0
C490 C 0.32533 0.86433 0.08873 0.0
C491 C 0.36275 0.86423 0.16206 0.0
C492 C 0.29952 0.85976 0.16693 0.0
C493 C 0.32579 0.90101 0.12666 0.0
O494 O 0.31229 0.82087 0.13979 0.0
O495 O 0.3635 0.84251 0.11742 0.0
O496 O 0.31124 0.86375 0.09774 0.0
O497 O 0.35182 0.85206 0.16564 0.0
O498 O 0.29531 0.86636 0.15211 0.0
O499 O 0.34085 0.89393 0.12489 0.0
O500 O 0.31245 0.84927 0.16883 0.0
O501 O 0.36403 0.8713 0.14694 0.0
O502 O 0.31157 0.89215 0.12701 0.0
O503 O 0.35166 0.82382 0.1369 0.0
O504 O 0.2952 0.83798 0.12299 0.0
O505 O 0.34049 0.86571 0.0957 0.0
Sc506 Sc 0.68625 0.12842 0.12707 0.0
Sc507 Sc 0.64018 0.12341 0.12251 0.0
Sc508 Sc 0.65749 0.15353 0.15336 0.0
O509 O 0.66132 0.13514 0.13427 0.0
C510 C 0.69112 0.13313 0.16853 0.0
C511 C 0.6669 0.0912 0.12659 0.0
C512 C 0.62905 0.12414 0.16293 0.0
C513 C 0.66617 0.12889 0.09005 0.0
C514 C 0.68906 0.17041 0.13148 0.0
C515 C 0.62624 0.16254 0.12641 0.0
O516 O 0.69554 0.12641 0.15385 0.0
O517 O 0.65163 0.09769 0.12445 0.0
O518 O 0.63965 0.13643 0.16707 0.0
O519 O 0.68012 0.12955 0.09932 0.0
O520 O 0.67564 0.17194 0.14142 0.0
O521 O 0.62638 0.14776 0.11865 0.0
O522 O 0.69437 0.15563 0.12553 0.0
O523 O 0.65094 0.12692 0.09667 0.0
O524 O 0.63634 0.16623 0.13925 0.0
O525 O 0.68072 0.10054 0.12806 0.0
O526 O 0.67794 0.14332 0.17014 0.0
O527 O 0.62715 0.11839 0.14731 0.0
Sc528 Sc 0.65192 0.65323 0.83193 0.0
Sc529 Sc 0.62365 0.62202 0.85128 0.0
Sc530 Sc 0.62678 0.62526 0.80491 0.0
O531 O 0.63414 0.63345 0.82935 0.0
C532 C 0.6297 0.66654 0.79853 0.0
C533 C 0.62359 0.66286 0.86113 0.0
C534 C 0.59033 0.62464 0.82594 0.0
C535 C 0.66304 0.62728 0.86344 0.0
C536 C 0.66848 0.6311 0.80054 0.0
C537 C 0.6293 0.58895 0.82583 0.0
O538 O 0.64077 0.66881 0.8109 0.0
O539 O 0.61905 0.64703 0.86425 0.0
O540 O 0.59914 0.62482 0.81168 0.0
O541 O 0.6656 0.64044 0.85338 0.0
O542 O 0.65366 0.62502 0.79549 0.0
O543 O 0.6268 0.59585 0.84088 0.0
O544 O 0.67017 0.64094 0.81402 0.0
O545 O 0.64877 0.61863 0.86367 0.0
O546 O 0.62988 0.59792 0.8117 0.0
O547 O 0.6348 0.66713 0.84948 0.0
O548 O 0.62286 0.65163 0.79522 0.0
O549 O 0.59747 0.62391 0.84106 0.0
Sc550 Sc 0.36581 0.62873 0.80583 0.0
Sc551 Sc 0.36744 0.62501 0.85225 0.0
Sc552 Sc 0.337 0.65369 0.832 0.0
O553 O 0.35683 0.63586 0.83002 0.0
C554 C 0.36011 0.67047 0.80138 0.0
C555 C 0.40136 0.63067 0.828 0.0
C556 C 0.36167 0.6644 0.86466 0.0
C557 C 0.36557 0.59196 0.82637 0.0
C558 C 0.32479 0.63173 0.79815 0.0
C559 C 0.32636 0.62498 0.86064 0.0
O560 O 0.36657 0.6557 0.79671 0.0
O561 O 0.39399 0.62825 0.84284 0.0
O562 O 0.34917 0.66716 0.85384 0.0
O563 O 0.36577 0.60104 0.81228 0.0
O564 O 0.32205 0.6426 0.81057 0.0
O565 O 0.34201 0.6202 0.86417 0.0
O566 O 0.33984 0.62508 0.79516 0.0
O567 O 0.36597 0.59885 0.84163 0.0
O568 O 0.32257 0.6365 0.84909 0.0
O569 O 0.39284 0.63141 0.8136 0.0
O570 O 0.34966 0.6721 0.8144 0.0
O571 O 0.37018 0.65001 0.86524 0.0
Sc572 Sc 0.36352 0.36664 0.80362 0.0
Sc573 Sc 0.36933 0.36938 0.84979 0.0
Sc574 Sc 0.33896 0.33931 0.83178 0.0
O575 O 0.35724 0.3585 0.82838 0.0
C576 C 0.32158 0.3619 0.80106 0.0
C577 C 0.3636 0.40284 0.82475 0.0
C578 C 0.33029 0.36569 0.86367 0.0
C579 C 0.40107 0.36563 0.82267 0.0
C580 C 0.35921 0.32542 0.7975 0.0
C581 C 0.3681 0.3286 0.85986 0.0
O582 O 0.33628 0.36776 0.7955 0.0
O583 O 0.36679 0.39571 0.83958 0.0
O584 O 0.32677 0.3527 0.85367 0.0
O585 O 0.39142 0.36618 0.80896 0.0
O586 O 0.34883 0.3234 0.81047 0.0
O587 O 0.37352 0.3442 0.86264 0.0
O588 O 0.36608 0.3402 0.79366 0.0
O589 O 0.39488 0.36631 0.83821 0.0
O590 O 0.35621 0.3248 0.84873 0.0
O591 O 0.36169 0.39402 0.81065 0.0
O592 O 0.32027 0.35198 0.81453 0.0
O593 O 0.34491 0.37377 0.86335 0.0
Sc594 Sc 0.65101 0.33643 0.83077 0.0
Sc595 Sc 0.62121 0.36688 0.849 0.0
Sc596 Sc 0.62652 0.36399 0.80276 0.0
O597 O 0.63293 0.35583 0.82749 0.0
C598 C 0.66839 0.35889 0.80003 0.0
C599 C 0.66034 0.36252 0.86266 0.0
C600 C 0.62744 0.40019 0.82397 0.0
C601 C 0.62161 0.32603 0.85874 0.0
C602 C 0.6303 0.32271 0.79667 0.0
C603 C 0.58915 0.36373 0.82206 0.0
O604 O 0.66974 0.34895 0.81348 0.0
O605 O 0.64581 0.37078 0.86252 0.0
O606 O 0.62885 0.39135 0.80981 0.0
O607 O 0.63359 0.32217 0.84772 0.0
O608 O 0.6235 0.33753 0.79282 0.0
O609 O 0.59549 0.36443 0.83755 0.0
O610 O 0.64081 0.32068 0.80954 0.0
O611 O 0.61652 0.34173 0.86168 0.0
O612 O 0.59868 0.36394 0.80829 0.0
O613 O 0.66358 0.34954 0.85258 0.0
O614 O 0.65369 0.3648 0.7945 0.0
O615 O 0.62432 0.39314 0.83883 0.0
Sc616 Sc 0.624 0.36307 0.1826 0.0
Sc617 Sc 0.62023 0.36401 0.13614 0.0
Sc618 Sc 0.64914 0.33411 0.15672 0.0
O619 O 0.63114 0.35378 0.1585 0.0
C620 C 0.66567 0.35773 0.1871 0.0
C621 C 0.62603 0.39829 0.15983 0.0
C622 C 0.65983 0.35876 0.12415 0.0
C623 C 0.58727 0.36236 0.16207 0.0
C624 C 0.62725 0.32204 0.19068 0.0
C625 C 0.62057 0.32286 0.12817 0.0
O626 O 0.65086 0.36402 0.19178 0.0
O627 O 0.62333 0.39061 0.14521 0.0
O628 O 0.66262 0.34625 0.13493 0.0
O629 O 0.5964 0.36298 0.17611 0.0
O630 O 0.63811 0.31935 0.17825 0.0
O631 O 0.61567 0.33844 0.12447 0.0
O632 O 0.62044 0.33707 0.1936 0.0
O633 O 0.59406 0.36238 0.14677 0.0
O634 O 0.63214 0.31932 0.13974 0.0
O635 O 0.62683 0.39009 0.17442 0.0
O636 O 0.66739 0.34718 0.17416 0.0
O637 O 0.64531 0.36701 0.12333 0.0
Sc638 Sc 0.62355 0.62098 0.18681 0.0
Sc639 Sc 0.62015 0.62247 0.14033 0.0
Sc640 Sc 0.64814 0.65193 0.16283 0.0
O641 O 0.63063 0.63174 0.16332 0.0
C642 C 0.62528 0.66156 0.19689 0.0
C643 C 0.58702 0.62107 0.16604 0.0
C644 C 0.61926 0.66408 0.13481 0.0
C645 C 0.62713 0.58715 0.16219 0.0
C646 C 0.66495 0.62736 0.1923 0.0
C647 C 0.65968 0.62972 0.12887 0.0
O648 O 0.61896 0.6462 0.19903 0.0
O649 O 0.5939 0.6221 0.15082 0.0
O650 O 0.63104 0.66714 0.14631 0.0
O651 O 0.62736 0.59463 0.17718 0.0
O652 O 0.66658 0.63859 0.17994 0.0
O653 O 0.64528 0.62139 0.1273 0.0
O654 O 0.65025 0.6204 0.19634 0.0
O655 O 0.62443 0.59545 0.14788 0.0
O656 O 0.66226 0.64132 0.14067 0.0
O657 O 0.59606 0.62036 0.18011 0.0
O658 O 0.63626 0.66521 0.18481 0.0
O659 O 0.6145 0.64863 0.13038 0.0
Sc660 Sc 0.33855 0.65323 0.15894 0.0
Sc661 Sc 0.36601 0.62172 0.13881 0.0
Sc662 Sc 0.36126 0.62254 0.18517 0.0
O663 O 0.35525 0.63245 0.16098 0.0
C664 C 0.36054 0.6636 0.19343 0.0
C665 C 0.36806 0.66294 0.13088 0.0
C666 C 0.39839 0.62096 0.16543 0.0
C667 C 0.32717 0.62942 0.12591 0.0
C668 C 0.3199 0.63062 0.18885 0.0
C669 C 0.35786 0.5876 0.16225 0.0
O670 O 0.35013 0.66717 0.1808 0.0
O671 O 0.37225 0.64711 0.1273 0.0
O672 O 0.38901 0.62083 0.17931 0.0
O673 O 0.32477 0.64196 0.13677 0.0
O674 O 0.33415 0.62327 0.19382 0.0
O675 O 0.36126 0.59517 0.14769 0.0
O676 O 0.31922 0.6413 0.17593 0.0
O677 O 0.3412 0.62038 0.12542 0.0
O678 O 0.35704 0.59583 0.17681 0.0
O679 O 0.35657 0.66708 0.14229 0.0
O680 O 0.36623 0.64812 0.19634 0.0
O681 O 0.39188 0.62165 0.15002 0.0
Sc682 Sc 0.33643 0.33449 0.1546 0.0
Sc683 Sc 0.36604 0.36521 0.13635 0.0
Sc684 Sc 0.36147 0.36194 0.18255 0.0
O685 O 0.35465 0.35387 0.15785 0.0
C686 C 0.31998 0.35641 0.18664 0.0
C687 C 0.32616 0.36137 0.12389 0.0
C688 C 0.3603 0.39837 0.1615 0.0
C689 C 0.36447 0.32502 0.1247 0.0
C690 C 0.35806 0.32018 0.18779 0.0
C691 C 0.39854 0.36179 0.16281 0.0
O692 O 0.3187 0.34573 0.17378 0.0
O693 O 0.34121 0.36863 0.12293 0.0
O694 O 0.35977 0.38954 0.17575 0.0
O695 O 0.35191 0.32109 0.13504 0.0
O696 O 0.36377 0.33529 0.19232 0.0
O697 O 0.39192 0.36328 0.1475 0.0
O698 O 0.34828 0.31785 0.17436 0.0
O699 O 0.37114 0.34033 0.12375 0.0
O700 O 0.38925 0.36121 0.17673 0.0
O701 O 0.32263 0.34899 0.13459 0.0
O702 O 0.3345 0.36343 0.19119 0.0
O703 O 0.3625 0.39128 0.14652 0.0
Sc704 Sc 0.8325 0.65574 0.65261 0.0
Sc705 Sc 0.8524 0.62521 0.62402 0.0
Sc706 Sc 0.80596 0.62796 0.62677 0.0
O707 O 0.83026 0.63624 0.63449 0.0
C708 C 0.80137 0.6328 0.66859 0.0
C709 C 0.86415 0.62992 0.66364 0.0
C710 C 0.82719 0.59176 0.62836 0.0
C711 C 0.86187 0.66609 0.62475 0.0
C712 C 0.79897 0.6691 0.63075 0.0
C713 C 0.82731 0.62859 0.59047 0.0
O714 O 0.81466 0.64286 0.67052 0.0
O715 O 0.86452 0.62134 0.64931 0.0
O716 O 0.81297 0.60056 0.62907 0.0
O717 O 0.84996 0.67013 0.63577 0.0
O718 O 0.79583 0.65432 0.62354 0.0
O719 O 0.84239 0.62773 0.59772 0.0
O720 O 0.81137 0.67126 0.64178 0.0
O721 O 0.8653 0.65034 0.62019 0.0
O722 O 0.81299 0.62841 0.59918 0.0
O723 O 0.85399 0.64301 0.66614 0.0
O724 O 0.79648 0.62689 0.65363 0.0
O725 O 0.84219 0.59891 0.62633 0.0
Sc726 Sc 0.33596 0.83728 0.65506 0.0
Sc727 Sc 0.36549 0.8568 0.62501 0.0
Sc728 Sc 0.3626 0.81043 0.62813 0.0
O729 O 0.3547 0.83483 0.63608 0.0
C730 C 0.35859 0.80484 0.66969 0.0
C731 C 0.36274 0.8681 0.66529 0.0
C732 C 0.39897 0.83163 0.6286 0.0
C733 C 0.32521 0.86792 0.62823 0.0
C734 C 0.32111 0.80472 0.63286 0.0
C735 C 0.36118 0.83146 0.59173 0.0
O736 O 0.34792 0.8176 0.67179 0.0
O737 O 0.3695 0.86953 0.65006 0.0
O738 O 0.39016 0.81738 0.62895 0.0
O739 O 0.32187 0.85711 0.64058 0.0
O740 O 0.33601 0.80055 0.62645 0.0
O741 O 0.36292 0.84652 0.59883 0.0
O742 O 0.31904 0.81775 0.6432 0.0
O743 O 0.34028 0.86928 0.62111 0.0
O744 O 0.3608 0.81721 0.60057 0.0
O745 O 0.35066 0.85708 0.66896 0.0
O746 O 0.36514 0.80087 0.65478 0.0
O747 O 0.39181 0.84672 0.62734 0.0
Sc748 Sc 0.18693 0.36498 0.62581 0.0
Sc749 Sc 0.14083 0.36845 0.62064 0.0
Sc750 Sc 0.15866 0.33787 0.65076 0.0
O751 O 0.16215 0.3571 0.63239 0.0
C752 C 0.19184 0.32326 0.62933 0.0
C753 C 0.16742 0.36487 0.58844 0.0
C754 C 0.12884 0.32826 0.62278 0.0
C755 C 0.16634 0.40153 0.62602 0.0
C756 C 0.19062 0.35955 0.66746 0.0
C757 C 0.12809 0.36516 0.66045 0.0
O758 O 0.19625 0.33825 0.62323 0.0
O759 O 0.152 0.36578 0.59486 0.0
O760 O 0.13941 0.3243 0.63514 0.0
O761 O 0.18038 0.39257 0.62779 0.0
O762 O 0.17744 0.34929 0.66873 0.0
O763 O 0.12757 0.37263 0.64546 0.0
O764 O 0.19558 0.36612 0.65287 0.0
O765 O 0.15139 0.39459 0.62316 0.0
O766 O 0.1384 0.35245 0.66403 0.0
O767 O 0.18124 0.36475 0.59793 0.0
O768 O 0.17865 0.32112 0.63944 0.0
O769 O 0.12776 0.3436 0.61616 0.0
Sc770 Sc 0.62542 0.18315 0.62419 0.0
Sc771 Sc 0.62413 0.13658 0.62163 0.0
Sc772 Sc 0.65357 0.15764 0.6506 0.0
O773 O 0.6343 0.15914 0.63216 0.0
C774 C 0.66624 0.19127 0.62849 0.0
C775 C 0.62683 0.16164 0.58801 0.0
C776 C 0.66532 0.12866 0.62282 0.0
C777 C 0.58992 0.16078 0.62579 0.0
C778 C 0.62971 0.18833 0.66598 0.0
C779 C 0.62877 0.12522 0.66145 0.0
O780 O 0.65149 0.19395 0.62103 0.0
O781 O 0.6264 0.14654 0.59527 0.0
O782 O 0.66868 0.14056 0.6341 0.0
O783 O 0.5983 0.17527 0.62641 0.0
O784 O 0.63998 0.17525 0.66821 0.0
O785 O 0.6205 0.12436 0.64695 0.0
O786 O 0.62392 0.19293 0.6509 0.0
O787 O 0.59748 0.14596 0.62384 0.0
O788 O 0.64137 0.13591 0.66413 0.0
O789 O 0.6262 0.17596 0.59671 0.0
O790 O 0.66855 0.17911 0.63976 0.0
O791 O 0.64981 0.12468 0.6179 0.0
Sc792 Sc 0.82822 0.33904 0.33743 0.0
Sc793 Sc 0.84636 0.36926 0.36746 0.0
Sc794 Sc 0.80014 0.3649 0.36355 0.0
O795 O 0.82489 0.35772 0.35622 0.0
C796 C 0.79498 0.36034 0.3224 0.0
C797 C 0.85644 0.36814 0.32674 0.0
C798 C 0.82022 0.40191 0.36413 0.0
C799 C 0.85982 0.32996 0.36386 0.0
C800 C 0.79649 0.32291 0.35902 0.0
C801 C 0.82048 0.36367 0.40023 0.0
O802 O 0.80721 0.34898 0.32122 0.0
O803 O 0.85929 0.37351 0.34237 0.0
O804 O 0.80626 0.39266 0.36396 0.0
O805 O 0.84984 0.32653 0.35087 0.0
O806 O 0.79091 0.33799 0.36384 0.0
O807 O 0.83552 0.3665 0.39343 0.0
O808 O 0.81067 0.32078 0.35034 0.0
O809 O 0.85962 0.34461 0.37189 0.0
O810 O 0.80643 0.36237 0.39116 0.0
O811 O 0.84543 0.35609 0.323 0.0
O812 O 0.7913 0.3682 0.33673 0.0
O813 O 0.83552 0.3952 0.36484 0.0
Sc814 Sc 0.6497 0.82891 0.33723 0.0
Sc815 Sc 0.62263 0.84989 0.36859 0.0
Sc816 Sc 0.62709 0.80345 0.36853 0.0
O817 O 0.63316 0.82742 0.35817 0.0
C818 C 0.62732 0.7944 0.32773 0.0
C819 C 0.61951 0.85642 0.32723 0.0
C820 C 0.5902 0.82334 0.37084 0.0
C821 C 0.66137 0.86276 0.3596 0.0
C822 C 0.6683 0.79927 0.36018 0.0
C823 C 0.63176 0.82726 0.40287 0.0
O824 O 0.63786 0.80683 0.32386 0.0
O825 O 0.61532 0.86025 0.343 0.0
O826 O 0.59945 0.8094 0.37025 0.0
O827 O 0.66377 0.85122 0.3477 0.0
O828 O 0.65403 0.79452 0.36759 0.0
O829 O 0.62866 0.84177 0.39505 0.0
O830 O 0.66917 0.8121 0.34941 0.0
O831 O 0.64731 0.86371 0.36857 0.0
O832 O 0.63169 0.81244 0.39502 0.0
O833 O 0.63145 0.84536 0.3233 0.0
O834 O 0.62174 0.79183 0.34328 0.0
O835 O 0.59673 0.83874 0.37034 0.0
Sc836 Sc 0.1817 0.62855 0.36141 0.0
Sc837 Sc 0.13562 0.6245 0.36571 0.0
Sc838 Sc 0.15351 0.65558 0.33616 0.0
O839 O 0.15696 0.63622 0.35443 0.0
C840 C 0.18636 0.6703 0.35808 0.0
C841 C 0.16178 0.62795 0.3984 0.0
C842 C 0.12359 0.66463 0.36431 0.0
C843 C 0.16136 0.59181 0.35988 0.0
C844 C 0.18588 0.63419 0.31984 0.0
C845 C 0.12306 0.62838 0.32591 0.0
O846 O 0.19081 0.65528 0.36406 0.0
O847 O 0.14656 0.62633 0.39165 0.0
O848 O 0.13392 0.66874 0.3518 0.0
O849 O 0.17542 0.6009 0.35945 0.0
O850 O 0.17272 0.64449 0.31841 0.0
O851 O 0.12232 0.62101 0.34091 0.0
O852 O 0.19058 0.62745 0.33446 0.0
O853 O 0.14623 0.59859 0.36207 0.0
O854 O 0.13352 0.64097 0.32237 0.0
O855 O 0.17574 0.62889 0.3892 0.0
O856 O 0.17322 0.67249 0.34788 0.0
O857 O 0.12273 0.64925 0.37087 0.0
Sc858 Sc 0.33635 0.15821 0.3387 0.0
Sc859 Sc 0.36657 0.13721 0.36692 0.0
Sc860 Sc 0.36555 0.18376 0.36394 0.0
O861 O 0.35623 0.15974 0.35649 0.0
C862 C 0.35973 0.18878 0.32226 0.0
C863 C 0.36069 0.12556 0.32736 0.0
C864 C 0.4008 0.16113 0.36148 0.0
C865 C 0.32537 0.12932 0.36696 0.0
C866 C 0.32464 0.19198 0.36111 0.0
C867 C 0.36529 0.16253 0.40036 0.0
O868 O 0.34931 0.17575 0.32055 0.0
O869 O 0.36925 0.12471 0.3417 0.0
O870 O 0.39252 0.17568 0.36088 0.0
O871 O 0.3217 0.14115 0.35569 0.0
O872 O 0.33969 0.19467 0.36791 0.0
O873 O 0.36527 0.1474 0.39318 0.0
O874 O 0.32179 0.17975 0.35005 0.0
O875 O 0.341 0.12545 0.37155 0.0
O876 O 0.36573 0.17681 0.39156 0.0
O877 O 0.34815 0.1364 0.32486 0.0
O878 O 0.36617 0.1934 0.33708 0.0
O879 O 0.39319 0.14639 0.36383 0.0
Sc880 Sc 0.62444 0.80874 0.6272 0.0
Sc881 Sc 0.6226 0.85521 0.62509 0.0
Sc882 Sc 0.6509 0.83432 0.65551 0.0
O883 O 0.63263 0.83275 0.63595 0.0
C884 C 0.62726 0.80207 0.66871 0.0
C885 C 0.58852 0.83058 0.62712 0.0
C886 C 0.62439 0.86546 0.66565 0.0
C887 C 0.62759 0.83063 0.59142 0.0
C888 C 0.6656 0.80196 0.6329 0.0
C889 C 0.66303 0.86544 0.62994 0.0
O890 O 0.62118 0.79847 0.6535 0.0
O891 O 0.59599 0.84554 0.6261 0.0
O892 O 0.63632 0.85429 0.66932 0.0
O893 O 0.62701 0.8162 0.59992 0.0
O894 O 0.66767 0.81453 0.64381 0.0
O895 O 0.64813 0.86746 0.62257 0.0
O896 O 0.65083 0.79845 0.62582 0.0
O897 O 0.62614 0.8456 0.59879 0.0
O898 O 0.66588 0.85404 0.64187 0.0
O899 O 0.59707 0.81617 0.62766 0.0
O900 O 0.63795 0.81468 0.67145 0.0
O901 O 0.61785 0.86724 0.65034 0.0
Sc902 Sc 0.62638 0.18101 0.36288 0.0
Sc903 Sc 0.62361 0.13469 0.36575 0.0
Sc904 Sc 0.65135 0.15451 0.33415 0.0
O905 O 0.63378 0.15673 0.35425 0.0
C906 C 0.62835 0.18706 0.3211 0.0
C907 C 0.59006 0.16003 0.36335 0.0
C908 C 0.62428 0.12347 0.32542 0.0
C909 C 0.62901 0.15964 0.39904 0.0
C910 C 0.66737 0.1867 0.35623 0.0
C911 C 0.66387 0.12405 0.36036 0.0
O912 O 0.6236 0.19135 0.33658 0.0
O913 O 0.59729 0.14501 0.3651 0.0
O914 O 0.63648 0.13416 0.32131 0.0
O915 O 0.62832 0.17386 0.39022 0.0
O916 O 0.66845 0.17467 0.3446 0.0
O917 O 0.64902 0.12215 0.36785 0.0
O918 O 0.65323 0.19014 0.36452 0.0
O919 O 0.62783 0.14452 0.39197 0.0
O920 O 0.66664 0.13524 0.34819 0.0
O921 O 0.59881 0.17428 0.3621 0.0
O922 O 0.63792 0.17366 0.31796 0.0
O923 O 0.61787 0.12232 0.34082 0.0
Sc924 Sc 0.83326 0.65014 0.33543 0.0
Sc925 Sc 0.8516 0.62221 0.36774 0.0
Sc926 Sc 0.80548 0.62846 0.3655 0.0
O927 O 0.83009 0.63364 0.35628 0.0
C928 C 0.80357 0.66987 0.35757 0.0
C929 C 0.86576 0.66083 0.3602 0.0
C930 C 0.82764 0.63081 0.40118 0.0
C931 C 0.86057 0.61938 0.3269 0.0
C932 C 0.79839 0.62969 0.32401 0.0
C933 C 0.82373 0.59064 0.36731 0.0
O934 O 0.81599 0.66991 0.34631 0.0
O935 O 0.86594 0.64662 0.36904 0.0
O936 O 0.81327 0.63139 0.39261 0.0
O937 O 0.85007 0.63161 0.32241 0.0
O938 O 0.79444 0.62477 0.33952 0.0
O939 O 0.83933 0.59672 0.36796 0.0
O940 O 0.81192 0.63892 0.32067 0.0
O941 O 0.86334 0.61497 0.34282 0.0
O942 O 0.81016 0.60044 0.36636 0.0
O943 O 0.85509 0.66359 0.34758 0.0
O944 O 0.79845 0.65604 0.36557 0.0
O945 O 0.84241 0.62776 0.39393 0.0
Sc946 Sc 0.36406 0.80336 0.36792 0.0
Sc947 Sc 0.36919 0.84967 0.36755 0.0
Sc948 Sc 0.3402 0.82921 0.33778 0.0
O949 O 0.35777 0.8274 0.35782 0.0
C950 C 0.36181 0.79457 0.32708 0.0
C951 C 0.4013 0.82295 0.36714 0.0
C952 C 0.36918 0.85706 0.32625 0.0
C953 C 0.36242 0.8268 0.40245 0.0
C954 C 0.32239 0.79963 0.36136 0.0
C955 C 0.33009 0.86254 0.36178 0.0
O956 O 0.36834 0.79196 0.34229 0.0
O957 O 0.39496 0.83838 0.36569 0.0
O958 O 0.35776 0.84535 0.32279 0.0
O959 O 0.36046 0.81218 0.39453 0.0
O960 O 0.3212 0.81259 0.35077 0.0
O961 O 0.34441 0.86292 0.37039 0.0
O962 O 0.33697 0.79465 0.36802 0.0
O963 O 0.36624 0.84105 0.39447 0.0
O964 O 0.32722 0.85176 0.34925 0.0
O965 O 0.39186 0.80923 0.36899 0.0
O966 O 0.35103 0.80698 0.32386 0.0
O967 O 0.37377 0.86114 0.34183 0.0
Sc968 Sc 0.18628 0.36706 0.36216 0.0
Sc969 Sc 0.14007 0.36915 0.36746 0.0
Sc970 Sc 0.15885 0.3379 0.33884 0.0
O971 O 0.16175 0.35808 0.35613 0.0
C972 C 0.18917 0.36015 0.32049 0.0
C973 C 0.16443 0.40274 0.36008 0.0
C974 C 0.12655 0.36317 0.32853 0.0
C975 C 0.167 0.3679 0.39961 0.0
C976 C 0.19326 0.32581 0.36007 0.0
C977 C 0.13082 0.3282 0.36835 0.0
O978 O 0.19457 0.36686 0.33491 0.0
O979 O 0.14976 0.39546 0.36354 0.0
O980 O 0.1368 0.3502 0.32573 0.0
O981 O 0.18077 0.36807 0.39006 0.0
O982 O 0.18046 0.32295 0.34965 0.0
O983 O 0.12771 0.34401 0.37292 0.0
O984 O 0.19666 0.34099 0.36625 0.0
O985 O 0.15152 0.36785 0.39325 0.0
O986 O 0.14208 0.32399 0.35673 0.0
O987 O 0.17875 0.39417 0.35878 0.0
O988 O 0.17591 0.34994 0.31964 0.0
O989 O 0.1266 0.37192 0.34276 0.0
Sc990 Sc 0.33783 0.15736 0.65331 0.0
Sc991 Sc 0.36666 0.13639 0.62366 0.0
Sc992 Sc 0.36462 0.18297 0.6256 0.0
O993 O 0.35634 0.15892 0.63412 0.0
C994 C 0.32291 0.1887 0.62981 0.0
C995 C 0.32669 0.12541 0.62801 0.0
C996 C 0.36296 0.1611 0.58975 0.0
C997 C 0.36517 0.12772 0.66471 0.0
C998 C 0.36034 0.19045 0.66658 0.0
C999 C 0.40055 0.16106 0.62673 0.0
O1000 O 0.32052 0.17569 0.64014 0.0
O1001 O 0.3413 0.12434 0.61997 0.0
O1002 O 0.36263 0.17546 0.59836 0.0
O1003 O 0.35389 0.13958 0.66818 0.0
O1004 O 0.3676 0.19349 0.65181 0.0
O1005 O 0.3931 0.14608 0.62592 0.0
O1006 O 0.34914 0.17822 0.66877 0.0
O1007 O 0.37036 0.12415 0.64919 0.0
O1008 O 0.39203 0.17551 0.62653 0.0
O1009 O 0.32396 0.13617 0.64055 0.0
O1010 O 0.33802 0.19297 0.6239 0.0
O1011 O 0.36448 0.14611 0.5971 0.0
Sc1012 Sc 0.8322 0.33871 0.65174 0.0
Sc1013 Sc 0.85057 0.36873 0.62144 0.0
Sc1014 Sc 0.80443 0.36617 0.62653 0.0
O1015 O 0.82906 0.35786 0.63323 0.0
C1016 C 0.79878 0.32458 0.63035 0.0
C1017 C 0.86186 0.32836 0.62387 0.0
C1018 C 0.82386 0.36518 0.58923 0.0
C1019 C 0.86316 0.3656 0.6613 0.0
C1020 C 0.80059 0.36112 0.66816 0.0
C1021 C 0.82575 0.40233 0.62673 0.0
O1022 O 0.81205 0.32213 0.64032 0.0
O1023 O 0.86307 0.34355 0.61694 0.0
O1024 O 0.81004 0.36524 0.59868 0.0
O1025 O 0.85257 0.35318 0.66509 0.0
O1026 O 0.79586 0.36792 0.65358 0.0
O1027 O 0.84062 0.39506 0.62423 0.0
O1028 O 0.81345 0.35046 0.66945 0.0
O1029 O 0.86398 0.37271 0.64617 0.0
O1030 O 0.8115 0.39363 0.62797 0.0
O1031 O 0.85138 0.32478 0.63639 0.0
O1032 O 0.79456 0.33968 0.6244 0.0
O1033 O 0.83928 0.36623 0.59567 0.0
Sc1034 Sc 0.18654 0.62798 0.62317 0.0
Sc1035 Sc 0.14027 0.62357 0.62167 0.0
Sc1036 Sc 0.15986 0.65296 0.65149 0.0
O1037 O 0.16225 0.6349 0.63202 0.0
C1038 C 0.19388 0.63141 0.66412 0.0
C1039 C 0.16627 0.59101 0.62469 0.0
C1040 C 0.13132 0.62471 0.66264 0.0
C1041 C 0.16476 0.62863 0.58764 0.0
C1042 C 0.19037 0.66989 0.62862 0.0
C1043 C 0.12768 0.66287 0.62582 0.0
O1044 O 0.19672 0.62412 0.64933 0.0
O1045 O 0.15093 0.59768 0.62539 0.0
O1046 O 0.1434 0.63564 0.66639 0.0
O1047 O 0.17899 0.63102 0.5961 0.0
O1048 O 0.1768 0.6715 0.63832 0.0
O1049 O 0.12787 0.6486 0.61708 0.0
O1050 O 0.1957 0.65503 0.62286 0.0
O1051 O 0.15022 0.62505 0.59513 0.0
O1052 O 0.13756 0.66561 0.63909 0.0
O1053 O 0.18019 0.60016 0.62269 0.0
O1054 O 0.1817 0.64265 0.66645 0.0
O1055 O 0.12741 0.62033 0.64696 0.0
C1056 C 0.13042 0.06162 0.31158 0.0
C1057 C 0.12917 0.07079 0.32764 0.0
C1058 C 0.13136 0.04323 0.31139 0.0
C1059 C 0.1202 0.00468 0.3385 0.0
H1060 H 0.15215 0.97961 0.30751 0.0
C1061 C 0.13095 0.93014 0.34459 0.0
C1062 C 0.13095 0.92036 0.32885 0.0
C1063 C 0.13163 0.9485 0.34416 0.0
C1064 C 0.14306 0.98645 0.31611 0.0
H1065 H 0.12841 0.06777 0.35612 0.0
H1066 H 0.13018 0.03582 0.35572 0.0
H1067 H 0.15156 0.01183 0.30713 0.0
H1068 H 0.13214 0.92227 0.30031 0.0
H1069 H 0.13316 0.95437 0.29962 0.0
H1070 H 0.11164 0.97939 0.34746 0.0
C1071 C 0.13013 0.04283 0.34328 0.0
C1072 C 0.14271 0.00486 0.31589 0.0
C1073 C 0.12919 0.06117 0.34349 0.0
C1074 C 0.13208 0.92938 0.31269 0.0
C1075 C 0.13277 0.94777 0.31227 0.0
C1076 C 0.12055 0.98632 0.33873 0.0
C1077 C 0.13105 0.03366 0.32724 0.0
C1078 C 0.13133 0.01415 0.32715 0.0
C1079 C 0.13233 0.95751 0.328 0.0
C1080 C 0.13203 0.97701 0.32761 0.0
H1081 H 0.13046 0.06862 0.29914 0.0
H1082 H 0.13193 0.03648 0.29882 0.0
H1083 H 0.11104 0.01146 0.34708 0.0
H1084 H 0.13024 0.92365 0.35729 0.0
H1085 H 0.13157 0.95567 0.35651 0.0
C1086 C 0.06028 0.13076 0.33886 0.0
C1087 C 0.07086 0.12897 0.32377 0.0
C1088 C 0.04205 0.13209 0.33733 0.0
C1089 C 0.00503 0.14443 0.32991 0.0
H1090 H 0.98006 0.11108 0.30028 0.0
C1091 C 0.9292 0.1274 0.30737 0.0
C1092 C 0.92112 0.1278 0.32405 0.0
C1093 C 0.94749 0.12879 0.30584 0.0
C1094 C 0.98686 0.12066 0.3084 0.0
H1095 H 0.07052 0.12728 0.2952 0.0
H1096 H 0.03853 0.12961 0.29259 0.0
H1097 H 0.01224 0.11151 0.30015 0.0
H1098 H 0.92601 0.12996 0.35219 0.0
H1099 H 0.95778 0.13222 0.34948 0.0
H1100 H 0.97972 0.15336 0.33843 0.0
C1101 C 0.04445 0.12988 0.30558 0.0
C1102 C 0.00526 0.12091 0.30832 0.0
C1103 C 0.06276 0.12862 0.30709 0.0
C1104 C 0.93174 0.12961 0.33913 0.0
C1105 C 0.94997 0.13106 0.33758 0.0
C1106 C 0.98668 0.14418 0.33 0.0
C1107 C 0.03393 0.13164 0.3207 0.0
C1108 C 0.01451 0.13255 0.31936 0.0
C1109 C 0.95803 0.13071 0.32094 0.0
C1110 C 0.97742 0.13205 0.31952 0.0
H1111 H 0.06604 0.1311 0.35192 0.0
H1112 H 0.03426 0.13315 0.34924 0.0
H1113 H 0.01182 0.15379 0.3383 0.0
H1114 H 0.92142 0.12605 0.29548 0.0
H1115 H 0.95336 0.12858 0.29284 0.0
C1116 C 0.86194 0.06128 0.34344 0.0
C1117 C 0.86145 0.07112 0.32774 0.0
C1118 C 0.86087 0.04293 0.343 0.0
C1119 C 0.86913 0.00526 0.31397 0.0
H1120 H 0.8417 0.97962 0.34862 0.0
C1121 C 0.86239 0.92943 0.31288 0.0
C1122 C 0.86394 0.92084 0.32923 0.0
C1123 C 0.86102 0.94777 0.31205 0.0
C1124 C 0.84952 0.9866 0.33895 0.0
H1125 H 0.85911 0.06932 0.29925 0.0
H1126 H 0.85719 0.03727 0.29856 0.0
H1127 H 0.84093 0.01177 0.34834 0.0
H1128 H 0.86529 0.92486 0.35755 0.0
H1129 H 0.86314 0.95678 0.35605 0.0
H1130 H 0.87793 0.98011 0.30473 0.0
C1131 C 0.85858 0.04381 0.31117 0.0
C1132 C 0.84907 0.00499 0.33878 0.0
C1133 C 0.8596 0.06217 0.3116 0.0
C1134 C 0.86409 0.93101 0.34472 0.0
C1135 C 0.86272 0.94932 0.34389 0.0
C1136 C 0.8696 0.98687 0.31415 0.0
C1137 C 0.85932 0.034 0.32686 0.0
C1138 C 0.85901 0.0145 0.32641 0.0
C1139 C 0.86116 0.95789 0.32755 0.0
C1140 C 0.85995 0.97736 0.32676 0.0
H1141 H 0.86332 0.06772 0.35611 0.0
H1142 H 0.86167 0.0357 0.35529 0.0
H1143 H 0.8771 0.01225 0.30442 0.0
H1144 H 0.86215 0.92202 0.30068 0.0
H1145 H 0.85966 0.95402 0.29928 0.0
C1146 C 0.93081 0.86126 0.34602 0.0
C1147 C 0.92091 0.86163 0.33035 0.0
C1148 C 0.94916 0.86086 0.34544 0.0
C1149 C 0.98697 0.85093 0.3167 0.0
H1150 H 0.01184 0.88204 0.34874 0.0
C1151 C 0.06202 0.86389 0.31256 0.0
C1152 C 0.07118 0.86419 0.32868 0.0
C1153 C 0.04363 0.86321 0.31229 0.0
C1154 C 0.00509 0.87316 0.33983 0.0
H1155 H 0.9226 0.86141 0.30177 0.0
H1156 H 0.95466 0.86088 0.30083 0.0
H1157 H 0.97981 0.8811 0.34927 0.0
H1158 H 0.06813 0.86374 0.35716 0.0
H1159 H 0.03621 0.86245 0.35662 0.0
H1160 H 0.01235 0.84303 0.30726 0.0
C1161 C 0.94817 0.86076 0.31354 0.0
C1162 C 0.98675 0.8726 0.34015 0.0
C1163 C 0.9298 0.86116 0.3141 0.0
C1164 C 0.06155 0.86365 0.34449 0.0
C1165 C 0.04322 0.863 0.34421 0.0
C1166 C 0.00535 0.8515 0.31637 0.0
C1167 C 0.95802 0.86083 0.3292 0.0
C1168 C 0.9775 0.86141 0.32867 0.0
C1169 C 0.03407 0.86287 0.32813 0.0
C1170 C 0.01458 0.86254 0.32802 0.0
H1171 H 0.92441 0.86146 0.35877 0.0
H1172 H 0.95641 0.86061 0.35774 0.0
H1173 H 0.98017 0.84207 0.3078 0.0
H1174 H 0.06903 0.86426 0.30013 0.0
H1175 H 0.03689 0.86326 0.29971 0.0
C1176 C 0.13228 0.93034 0.68107 0.0
C1177 C 0.13134 0.92152 0.66479 0.0
C1178 C 0.13297 0.94876 0.6817 0.0
C1179 C 0.12078 0.98744 0.65531 0.0
H1180 H 0.15163 0.01321 0.68689 0.0
C1181 C 0.12956 0.06213 0.64936 0.0
C1182 C 0.1296 0.07208 0.66499 0.0
C1183 C 0.13049 0.04379 0.64994 0.0
C1184 C 0.14281 0.00617 0.67814 0.0
H1185 H 0.13114 0.92519 0.63638 0.0
H1186 H 0.13245 0.95715 0.63754 0.0
H1187 H 0.15215 0.98095 0.68686 0.0
H1188 H 0.13103 0.07046 0.69353 0.0
H1189 H 0.13246 0.03833 0.69451 0.0
H1190 H 0.11137 0.0125 0.64661 0.0
C1191 C 0.13232 0.94985 0.64981 0.0
C1192 C 0.14312 0.98773 0.67812 0.0
C1193 C 0.13165 0.93151 0.64917 0.0
C1194 C 0.13095 0.06322 0.68123 0.0
C1195 C 0.13186 0.04482 0.68181 0.0
C1196 C 0.12046 0.0058 0.65535 0.0
C1197 C 0.1327 0.95868 0.66607 0.0
C1198 C 0.13222 0.9782 0.66657 0.0
C1199 C 0.13144 0.03492 0.66616 0.0
C1200 C 0.13158 0.01538 0.66663 0.0
H1201 H 0.13212 0.92307 0.69336 0.0
H1202 H 0.13318 0.95523 0.69442 0.0
H1203 H 0.11195 0.98045 0.64654 0.0
H1204 H 0.12872 0.06849 0.63659 0.0
H1205 H 0.13049 0.03655 0.63764 0.0
C1206 C 0.06254 0.12907 0.68423 0.0
C1207 C 0.07058 0.12947 0.66753 0.0
C1208 C 0.04423 0.13019 0.68577 0.0
C1209 C 0.0051 0.12102 0.68324 0.0
H1210 H 0.97921 0.1533 0.65319 0.0
C1211 C 0.93132 0.12927 0.65291 0.0
C1212 C 0.92083 0.12736 0.66805 0.0
C1213 C 0.94953 0.13091 0.65435 0.0
C1214 C 0.98626 0.14418 0.66161 0.0
H1215 H 0.06564 0.13147 0.63939 0.0
H1216 H 0.03384 0.13328 0.64213 0.0
H1217 H 0.01131 0.1538 0.65307 0.0
H1218 H 0.92135 0.1257 0.69662 0.0
H1219 H 0.95329 0.12857 0.69907 0.0
H1220 H 0.98 0.11117 0.69152 0.0
C1221 C 0.04168 0.1323 0.65402 0.0
C1222 C 0.00461 0.14446 0.66155 0.0
C1223 C 0.05992 0.13112 0.65246 0.0
C1224 C 0.92903 0.12712 0.68469 0.0
C1225 C 0.94732 0.1287 0.68611 0.0
C1226 C 0.9867 0.12074 0.68331 0.0
C1227 C 0.03364 0.13183 0.67067 0.0
C1228 C 0.01422 0.13265 0.67209 0.0
C1229 C 0.95773 0.13065 0.67094 0.0
C1230 C 0.97713 0.13207 0.67222 0.0
H1231 H 0.07035 0.12784 0.69611 0.0
H1232 H 0.03837 0.12991 0.69878 0.0
H1233 H 0.01217 0.11167 0.6914 0.0
H1234 H 0.92549 0.12951 0.63988 0.0
H1235 H 0.95725 0.1321 0.6424 0.0
C1236 C 0.86051 0.0606 0.68155 0.0
C1237 C 0.86234 0.06939 0.66533 0.0
C1238 C 0.85979 0.04222 0.6822 0.0
C1239 C 0.87264 0.00316 0.65667 0.0
H1240 H 0.83991 0.97838 0.6871 0.0
C1241 C 0.86189 0.92884 0.65079 0.0
C1242 C 0.86146 0.91895 0.66647 0.0
C1243 C 0.86135 0.94718 0.65129 0.0
C1244 C 0.84924 0.98515 0.67869 0.0
H1245 H 0.86435 0.0657 0.63701 0.0
H1246 H 0.86293 0.03371 0.63818 0.0
H1247 H 0.84004 0.01062 0.68667 0.0
H1248 H 0.85965 0.92065 0.69497 0.0
H1249 H 0.85883 0.95286 0.6958 0.0
H1250 H 0.88183 0.97779 0.64865 0.0
C1251 C 0.86236 0.04103 0.65041 0.0
C1252 C 0.84931 0.00357 0.67843 0.0
C1253 C 0.8631 0.05939 0.64975 0.0
C1254 C 0.86004 0.92786 0.68266 0.0
C1255 C 0.8595 0.94629 0.68314 0.0
C1256 C 0.87256 0.9848 0.65692 0.0
C1257 C 0.86089 0.03225 0.66665 0.0
C1258 C 0.86092 0.01274 0.6673 0.0
C1259 C 0.86039 0.9561 0.66746 0.0
C1260 C 0.86075 0.9756 0.6678 0.0
H1261 H 0.85987 0.06789 0.69381 0.0
H1262 H 0.85879 0.0358 0.69492 0.0
H1263 H 0.88201 0.00986 0.64825 0.0
H1264 H 0.86278 0.92245 0.63806 0.0
H1265 H 0.86172 0.95439 0.63897 0.0
C1266 C 0.93013 0.85325 0.65518 0.0
C1267 C 0.92028 0.86173 0.66832 0.0
C1268 C 0.94846 0.85277 0.65616 0.0
C1269 C 0.98656 0.86152 0.68612 0.0
H1270 H 0.01136 0.8649 0.64165 0.0
C1271 C 0.06056 0.87635 0.65589 0.0
C1272 C 0.07093 0.86697 0.668 0.0
C1273 C 0.04225 0.87583 0.65695 0.0
C1274 C 0.00471 0.86422 0.65424 0.0
H1275 H 0.92176 0.87614 0.69291 0.0
H1276 H 0.95386 0.87613 0.69423 0.0
H1277 H 0.97958 0.86402 0.64177 0.0
H1278 H 0.07037 0.84981 0.69081 0.0
H1279 H 0.03829 0.84818 0.69222 0.0
H1280 H 0.0118 0.8628 0.6986 0.0
C1281 C 0.94748 0.86934 0.68343 0.0
C1282 C 0.98638 0.86334 0.65429 0.0
C1283 C 0.92907 0.86946 0.68264 0.0
C1284 C 0.06265 0.85723 0.68137 0.0
C1285 C 0.04426 0.85639 0.6822 0.0
C1286 C 0.00495 0.86273 0.68609 0.0
C1287 C 0.95743 0.86116 0.67007 0.0
C1288 C 0.97703 0.86191 0.67021 0.0
C1289 C 0.03382 0.86556 0.66988 0.0
C1290 C 0.01426 0.86414 0.67013 0.0
H1291 H 0.92364 0.84692 0.64414 0.0
H1292 H 0.95558 0.84587 0.64591 0.0
H1293 H 0.97987 0.8602 0.69864 0.0
H1294 H 0.06662 0.88419 0.64562 0.0
H1295 H 0.03472 0.88351 0.64756 0.0
C1296 C 0.30596 0.12747 0.06236 0.0
C1297 C 0.3226 0.12727 0.07054 0.0
C1298 C 0.30456 0.12733 0.04398 0.0
C1299 C 0.32974 0.11477 0.0046 0.0
H1300 H 0.29773 0.14566 0.97937 0.0
C1301 C 0.33727 0.12748 0.93099 0.0
C1302 C 0.32208 0.12703 0.92039 0.0
C1303 C 0.33592 0.12737 0.94927 0.0
C1304 C 0.30655 0.13681 0.98627 0.0
H1305 H 0.35081 0.12727 0.06575 0.0
H1306 H 0.34834 0.12716 0.03388 0.0
H1307 H 0.29796 0.14577 0.01165 0.0
H1308 H 0.29348 0.12661 0.9208 0.0
H1309 H 0.29118 0.12639 0.95297 0.0
H1310 H 0.33852 0.10596 0.97936 0.0
C1311 C 0.33637 0.12711 0.04165 0.0
C1312 C 0.30669 0.13687 0.00471 0.0
C1313 C 0.33778 0.12727 0.05995 0.0
C1314 C 0.30545 0.1269 0.92857 0.0
C1315 C 0.30411 0.12684 0.94696 0.0
C1316 C 0.32962 0.11473 0.98625 0.0
C1317 C 0.31977 0.12693 0.03347 0.0
C1318 C 0.31854 0.12608 0.01402 0.0
C1319 C 0.31937 0.12682 0.95745 0.0
C1320 C 0.31828 0.12598 0.9769 0.0
H1321 H 0.29399 0.12751 0.07011 0.0
H1322 H 0.2916 0.12713 0.03801 0.0
H1323 H 0.33872 0.10601 0.01142 0.0
H1324 H 0.3503 0.12775 0.9252 0.0
H1325 H 0.3479 0.12772 0.95704 0.0
C1326 C 0.86177 0.31402 0.92959 0.0
C1327 C 0.8636 0.33007 0.92049 0.0
C1328 C 0.86014 0.3138 0.9479 0.0
C1329 C 0.84849 0.3418 0.98585 0.0
H1330 H 0.8752 0.30727 0.01247 0.0
C1331 C 0.85914 0.34634 0.06094 0.0
C1332 C 0.85857 0.33059 0.07071 0.0
C1333 C 0.85831 0.34597 0.04258 0.0
C1334 C 0.86746 0.31683 0.00521 0.0
H1335 H 0.8651 0.3585 0.92358 0.0
H1336 H 0.86249 0.35805 0.95554 0.0
H1337 H 0.87672 0.30722 0.98041 0.0
H1338 H 0.85614 0.30212 0.06879 0.0
H1339 H 0.8546 0.30153 0.03675 0.0
H1340 H 0.8394 0.35152 0.01071 0.0
C1341 C 0.86208 0.34566 0.94846 0.0
C1342 C 0.86834 0.31681 0.98685 0.0
C1343 C 0.8637 0.3459 0.93014 0.0
C1344 C 0.85673 0.3145 0.0617 0.0
C1345 C 0.85593 0.31414 0.04333 0.0
C1346 C 0.84762 0.34182 0.00422 0.0
C1347 C 0.86032 0.32961 0.95752 0.0
C1348 C 0.85895 0.32935 0.97699 0.0
C1349 C 0.85692 0.32985 0.03358 0.0
C1350 C 0.85718 0.3294 0.01408 0.0
H1351 H 0.86153 0.30158 0.9226 0.0
H1352 H 0.85859 0.30124 0.95452 0.0
H1353 H 0.84089 0.35146 0.97858 0.0
H1354 H 0.86052 0.35898 0.06743 0.0
H1355 H 0.85928 0.35828 0.0354 0.0
C1356 C 0.6479 0.86404 0.93042 0.0
C1357 C 0.66337 0.86334 0.92027 0.0
C1358 C 0.64873 0.86385 0.94876 0.0
C1359 C 0.67688 0.85161 0.98616 0.0
H1360 H 0.64652 0.88378 0.01177 0.0
C1361 C 0.68107 0.86181 0.06164 0.0
C1362 C 0.66503 0.86336 0.07078 0.0
C1363 C 0.68133 0.86141 0.04324 0.0
C1364 C 0.65493 0.87458 0.00481 0.0
H1365 H 0.6919 0.86165 0.92153 0.0
H1366 H 0.69331 0.86143 0.95371 0.0
H1367 H 0.64639 0.88403 0.97969 0.0
H1368 H 0.63665 0.86525 0.06769 0.0
H1369 H 0.63714 0.86437 0.03566 0.0
H1370 H 0.68537 0.84214 0.01137 0.0
C1371 C 0.68054 0.86202 0.94735 0.0
C1372 C 0.65488 0.87474 0.98645 0.0
C1373 C 0.67972 0.86223 0.92894 0.0
C1374 C 0.64925 0.86417 0.06111 0.0
C1375 C 0.64953 0.86377 0.04273 0.0
C1376 C 0.67693 0.85144 0.00458 0.0
C1377 C 0.66504 0.86296 0.95743 0.0
C1378 C 0.66573 0.86317 0.97693 0.0
C1379 C 0.66558 0.86255 0.0336 0.0
C1380 C 0.66584 0.86284 0.01408 0.0
H1381 H 0.63505 0.86477 0.92424 0.0
H1382 H 0.63655 0.86428 0.95616 0.0
H1383 H 0.68525 0.84242 0.97916 0.0
H1384 H 0.69348 0.86115 0.06865 0.0
H1385 H 0.69391 0.86061 0.03657 0.0
C1386 C 0.13028 0.6484 0.92953 0.0
C1387 C 0.13009 0.66387 0.91932 0.0
C1388 C 0.13172 0.64932 0.94782 0.0
C1389 C 0.12368 0.67894 0.98505 0.0
H1390 H 0.15237 0.64518 0.01061 0.0
C1391 C 0.13108 0.6809 0.06065 0.0
C1392 C 0.12941 0.66461 0.06936 0.0
C1393 C 0.13268 0.68158 0.04235 0.0
C1394 C 0.14423 0.65462 0.00364 0.0
H1395 H 0.13151 0.69245 0.92036 0.0
H1396 H 0.13411 0.69399 0.95235 0.0
H1397 H 0.15254 0.64509 0.97846 0.0
H1398 H 0.12838 0.63623 0.0656 0.0
H1399 H 0.131 0.63748 0.03368 0.0
H1400 H 0.11517 0.6883 0.01023 0.0
C1401 C 0.13296 0.68118 0.94615 0.0
C1402 C 0.14433 0.65457 0.98526 0.0
C1403 C 0.13154 0.68028 0.92782 0.0
C1404 C 0.12962 0.64901 0.05935 0.0
C1405 C 0.13125 0.64971 0.04106 0.0
C1406 C 0.12359 0.67899 0.00344 0.0
C1407 C 0.13301 0.6657 0.95632 0.0
C1408 C 0.13387 0.66657 0.97579 0.0
C1409 C 0.1327 0.666 0.03237 0.0
C1410 C 0.13369 0.66668 0.01291 0.0
H1411 H 0.1292 0.63553 0.92344 0.0
H1412 H 0.13147 0.63717 0.95533 0.0
H1413 H 0.11532 0.6882 0.9781 0.0
H1414 H 0.13105 0.69318 0.06794 0.0
H1415 H 0.13396 0.69431 0.036 0.0
C1416 C 0.30818 0.86232 0.92721 0.0
C1417 C 0.32462 0.86407 0.91883 0.0
C1418 C 0.30702 0.86242 0.9456 0.0
C1419 C 0.3315 0.87697 0.98495 0.0
H1420 H 0.30239 0.84328 0.01001 0.0
C1421 C 0.33947 0.86506 0.05897 0.0
C1422 C 0.32413 0.86376 0.06926 0.0
C1423 C 0.33844 0.86518 0.04063 0.0
C1424 C 0.3104 0.8529 0.00317 0.0
H1425 H 0.35275 0.86692 0.92331 0.0
H1426 H 0.35069 0.86694 0.95521 0.0
H1427 H 0.30247 0.84341 0.97777 0.0
H1428 H 0.29566 0.8612 0.06822 0.0
H1429 H 0.29391 0.86148 0.03608 0.0
H1430 H 0.33959 0.88636 0.01024 0.0
C1431 C 0.33867 0.8658 0.94758 0.0
C1432 C 0.31044 0.85298 0.98474 0.0
C1433 C 0.33985 0.86569 0.92926 0.0
C1434 C 0.30774 0.86226 0.06072 0.0
C1435 C 0.30672 0.86234 0.04231 0.0
C1436 C 0.33147 0.87687 0.00331 0.0
C1437 C 0.32226 0.86431 0.95596 0.0
C1438 C 0.32121 0.86485 0.97546 0.0
C1439 C 0.32206 0.86399 0.03211 0.0
C1440 C 0.32114 0.86467 0.01262 0.0
H1441 H 0.29619 0.86104 0.91958 0.0
H1442 H 0.29418 0.86135 0.95171 0.0
H1443 H 0.33964 0.88654 0.97816 0.0
H1444 H 0.35234 0.86612 0.06505 0.0
H1445 H 0.35052 0.86615 0.03311 0.0
C1446 C 0.12987 0.34614 0.92904 0.0
C1447 C 0.12867 0.33062 0.91898 0.0
C1448 C 0.13033 0.34537 0.94738 0.0
C1449 C 0.13996 0.31612 0.98477 0.0
H1450 H 0.11122 0.34953 0.01062 0.0
C1451 C 0.12927 0.31259 0.06027 0.0
C1452 C 0.12911 0.32869 0.06947 0.0
C1453 C 0.12987 0.31236 0.04187 0.0
C1454 C 0.11949 0.34025 0.00361 0.0
H1455 H 0.12729 0.30205 0.92041 0.0
H1456 H 0.12799 0.30077 0.95255 0.0
H1457 H 0.11091 0.34988 0.97856 0.0
H1458 H 0.1301 0.35716 0.0665 0.0
H1459 H 0.13134 0.3567 0.03451 0.0
H1460 H 0.14856 0.30653 0.0099 0.0
C1461 C 0.12868 0.31352 0.94614 0.0
C1462 C 0.11928 0.34044 0.98524 0.0
C1463 C 0.12818 0.31427 0.92774 0.0
C1464 C 0.13001 0.34452 0.05987 0.0
C1465 C 0.13064 0.34427 0.04151 0.0
C1466 C 0.14019 0.31595 0.00318 0.0
C1467 C 0.12963 0.32908 0.95613 0.0
C1468 C 0.1296 0.32846 0.97563 0.0
C1469 C 0.13034 0.32821 0.03231 0.0
C1470 C 0.13003 0.3281 0.01278 0.0
H1471 H 0.13039 0.35897 0.92278 0.0
H1472 H 0.13135 0.35758 0.95473 0.0
H1473 H 0.14817 0.30684 0.97768 0.0
H1474 H 0.12859 0.30014 0.06725 0.0
H1475 H 0.12949 0.29977 0.03514 0.0
C1476 C 0.65243 0.12436 0.93097 0.0
C1477 C 0.66772 0.12469 0.92054 0.0
C1478 C 0.65363 0.12468 0.94928 0.0
C1479 C 0.68255 0.13711 0.98594 0.0
H1480 H 0.65153 0.10645 0.01256 0.0
C1481 C 0.68418 0.13019 0.0623 0.0
C1482 C 0.66764 0.12974 0.07063 0.0
C1483 C 0.68537 0.12974 0.04391 0.0
C1484 C 0.66018 0.11518 0.00531 0.0
H1485 H 0.6963 0.12576 0.92125 0.0
H1486 H 0.69834 0.12622 0.95337 0.0
H1487 H 0.65159 0.10494 0.98053 0.0
H1488 H 0.63937 0.12919 0.06609 0.0
H1489 H 0.64151 0.12853 0.03421 0.0
H1490 H 0.69101 0.14743 0.01085 0.0
C1491 C 0.68545 0.12582 0.94727 0.0
C1492 C 0.66022 0.11431 0.98698 0.0
C1493 C 0.68426 0.12546 0.92889 0.0
C1494 C 0.65234 0.12937 0.06017 0.0
C1495 C 0.65355 0.12889 0.04187 0.0
C1496 C 0.68252 0.13797 0.00434 0.0
C1497 C 0.67013 0.12533 0.95762 0.0
C1498 C 0.67117 0.12546 0.97709 0.0
C1499 C 0.67005 0.12878 0.03356 0.0
C1500 C 0.67109 0.12722 0.01416 0.0
H1501 H 0.63946 0.12386 0.92503 0.0
H1502 H 0.64159 0.12459 0.95692 0.0
H1503 H 0.69105 0.14593 0.97863 0.0
H1504 H 0.69622 0.13052 0.06995 0.0
H1505 H 0.69827 0.12964 0.03782 0.0
C1506 C 0.86523 0.6502 0.93249 0.0
C1507 C 0.86471 0.66574 0.9224 0.0
C1508 C 0.86492 0.65096 0.95082 0.0
C1509 C 0.85247 0.67895 0.98819 0.0
H1510 H 0.88409 0.64811 0.01397 0.0
C1511 C 0.86097 0.6812 0.06409 0.0
C1512 C 0.8621 0.66483 0.07275 0.0
C1513 C 0.86106 0.68207 0.04571 0.0
C1514 C 0.87507 0.65667 0.00696 0.0
H1515 H 0.86322 0.6943 0.92374 0.0
H1516 H 0.86276 0.69557 0.95591 0.0
H1517 H 0.8849 0.64845 0.9819 0.0
H1518 H 0.86369 0.6365 0.06878 0.0
H1519 H 0.86368 0.63807 0.03681 0.0
H1520 H 0.84258 0.68708 0.01335 0.0
C1521 C 0.86332 0.68282 0.94952 0.0
C1522 C 0.87554 0.65688 0.98861 0.0
C1523 C 0.86366 0.68208 0.93111 0.0
C1524 C 0.86295 0.64935 0.06259 0.0
C1525 C 0.86304 0.65024 0.04425 0.0
C1526 C 0.85198 0.67874 0.0066 0.0
C1527 C 0.86408 0.66726 0.95953 0.0
C1528 C 0.86411 0.66785 0.97903 0.0
C1529 C 0.8623 0.6666 0.03562 0.0
C1530 C 0.86315 0.66743 0.01614 0.0
H1531 H 0.86593 0.63737 0.92627 0.0
H1532 H 0.86521 0.63873 0.9582 0.0
H1533 H 0.84341 0.68743 0.98113 0.0
H1534 H 0.86028 0.69339 0.0715 0.0
H1535 H 0.86057 0.69488 0.0394 0.0
C1536 C 0.92963 0.34283 0.1248 0.0
C1537 C 0.91923 0.3275 0.12517 0.0
C1538 C 0.94794 0.34166 0.12445 0.0
C1539 C 0.98504 0.31237 0.13476 0.0
H1540 H 0.01051 0.34387 0.1036 0.0
C1541 C 0.06085 0.30983 0.12522 0.0
C1542 C 0.06947 0.32625 0.12496 0.0
C1543 C 0.04246 0.30895 0.12499 0.0
C1544 C 0.00358 0.33508 0.11246 0.0
H1545 H 0.92002 0.29887 0.12569 0.0
H1546 H 0.9521 0.2969 0.125 0.0
H1547 H 0.97845 0.34418 0.10363 0.0
H1548 H 0.06543 0.35462 0.12461 0.0
H1549 H 0.03352 0.35303 0.12434 0.0
H1550 H 0.01028 0.3034 0.14368 0.0
C1551 C 0.94599 0.3098 0.12508 0.0
C1552 C 0.98524 0.33526 0.11248 0.0
C1553 C 0.92762 0.31095 0.12539 0.0
C1554 C 0.05929 0.34173 0.1247 0.0
C1555 C 0.04097 0.34084 0.12444 0.0
C1556 C 0.00344 0.31219 0.13474 0.0
C1557 C 0.95631 0.32515 0.12448 0.0
C1558 C 0.97577 0.32411 0.1238 0.0
C1559 C 0.03236 0.32446 0.12444 0.0
C1560 C 0.01288 0.32374 0.12377 0.0
H1561 H 0.92365 0.3558 0.12472 0.0
H1562 H 0.95556 0.35373 0.1243 0.0
H1563 H 0.97807 0.30372 0.14371 0.0
H1564 H 0.06829 0.29764 0.12544 0.0
H1565 H 0.03615 0.29614 0.12491 0.0
C1566 C 0.06248 0.6809 0.86132 0.0
C1567 C 0.07109 0.66448 0.86201 0.0
C1568 C 0.04409 0.68177 0.86103 0.0
C1569 C 0.00515 0.65579 0.8733 0.0
H1570 H 0.97979 0.68724 0.84194 0.0
C1571 C 0.93083 0.64941 0.86286 0.0
C1572 C 0.92081 0.665 0.86293 0.0
C1573 C 0.94915 0.65012 0.86226 0.0
C1574 C 0.98672 0.67853 0.85089 0.0
H1575 H 0.06705 0.63611 0.86242 0.0
H1576 H 0.03515 0.6377 0.86179 0.0
H1577 H 0.01202 0.68721 0.84187 0.0
H1578 H 0.92226 0.69358 0.86195 0.0
H1579 H 0.95436 0.69476 0.86103 0.0
H1580 H 0.97998 0.64706 0.88232 0.0
C1581 C 0.04259 0.64989 0.86178 0.0
C1582 C 0.00514 0.67853 0.85086 0.0
C1583 C 0.06091 0.649 0.86206 0.0
C1584 C 0.92957 0.68132 0.86195 0.0
C1585 C 0.94795 0.68201 0.86134 0.0
C1586 C 0.98681 0.6558 0.87333 0.0
C1587 C 0.03398 0.66626 0.86146 0.0
C1588 C 0.01451 0.66699 0.86193 0.0
C1589 C 0.95791 0.66641 0.86172 0.0
C1590 C 0.9774 0.66701 0.862 0.0
H1591 H 0.06992 0.69308 0.86123 0.0
H1592 H 0.03778 0.69458 0.86087 0.0
H1593 H 0.01202 0.64703 0.88225 0.0
H1594 H 0.92455 0.6366 0.86344 0.0
H1595 H 0.95648 0.63786 0.86223 0.0
C1596 C 0.31193 0.06175 0.85156 0.0
C1597 C 0.32474 0.07006 0.86201 0.0
C1598 C 0.31168 0.04339 0.84998 0.0
C1599 C 0.30796 0.00408 0.85593 0.0
H1600 H 0.3522 0.97871 0.85834 0.0
C1601 C 0.31091 0.92865 0.86536 0.0
C1602 C 0.32529 0.91941 0.85832 0.0
C1603 C 0.31028 0.94703 0.86437 0.0
C1604 C 0.33971 0.98552 0.85732 0.0
H1605 H 0.34695 0.06576 0.87945 0.0
H1606 H 0.34602 0.03384 0.87744 0.0
H1607 H 0.35234 0.01057 0.85873 0.0
H1608 H 0.34976 0.92191 0.84386 0.0
H1609 H 0.34825 0.95384 0.84129 0.0
H1610 H 0.29542 0.97896 0.85363 0.0
C1611 C 0.3366 0.04138 0.86983 0.0
C1612 C 0.33977 0.00388 0.8579 0.0
C1613 C 0.33706 0.0597 0.87111 0.0
C1614 C 0.33865 0.92877 0.84965 0.0
C1615 C 0.33783 0.94709 0.84829 0.0
C1616 C 0.30793 0.98568 0.855 0.0
C1617 C 0.32403 0.03296 0.8591 0.0
C1618 C 0.32389 0.01341 0.85751 0.0
C1619 C 0.32383 0.95651 0.85598 0.0
C1620 C 0.3238 0.97614 0.85591 0.0
H1621 H 0.30234 0.06945 0.84429 0.0
H1622 H 0.30197 0.03743 0.84139 0.0
H1623 H 0.29545 0.01092 0.85575 0.0
H1624 H 0.30048 0.92171 0.8722 0.0
H1625 H 0.29942 0.95377 0.87069 0.0
C1626 C 0.93012 0.34518 0.85285 0.0
C1627 C 0.92155 0.33146 0.86181 0.0
C1628 C 0.94844 0.34526 0.85132 0.0
C1629 C 0.98792 0.31647 0.85693 0.0
H1630 H 0.01223 0.36137 0.85818 0.0
C1631 C 0.06229 0.34629 0.86878 0.0
C1632 C 0.07217 0.3334 0.85995 0.0
C1633 C 0.04394 0.34612 0.86797 0.0
C1634 C 0.0057 0.34868 0.85803 0.0
H1635 H 0.92534 0.30719 0.8764 0.0
H1636 H 0.95731 0.30774 0.87456 0.0
H1637 H 0.98037 0.36073 0.85955 0.0
H1638 H 0.07069 0.31053 0.8429 0.0
H1639 H 0.03868 0.31068 0.84076 0.0
H1640 H 0.01329 0.30437 0.8566 0.0
C1641 C 0.94995 0.31813 0.86809 0.0
C1642 C 0.98734 0.34833 0.85849 0.0
C1643 C 0.93162 0.31786 0.86928 0.0
C1644 C 0.06337 0.32052 0.84999 0.0
C1645 C 0.04501 0.32056 0.84887 0.0
C1646 C 0.0063 0.31681 0.85683 0.0
C1647 C 0.95862 0.33182 0.85906 0.0
C1648 C 0.97819 0.33221 0.85802 0.0
C1649 C 0.03504 0.33327 0.85799 0.0
C1650 C 0.01545 0.33292 0.85746 0.0
H1651 H 0.92263 0.35573 0.84678 0.0
H1652 H 0.95457 0.35582 0.84394 0.0
H1653 H 0.98138 0.30381 0.8562 0.0
H1654 H 0.06874 0.35628 0.8767 0.0
H1655 H 0.03677 0.35588 0.87551 0.0
C1656 C 0.64583 0.92886 0.85916 0.0
C1657 C 0.66154 0.91907 0.85997 0.0
C1658 C 0.64628 0.94719 0.85807 0.0
C1659 C 0.67465 0.98493 0.84682 0.0
H1660 H 0.64245 0.01059 0.87707 0.0
C1661 C 0.67935 0.06012 0.85893 0.0
C1662 C 0.66343 0.06955 0.85989 0.0
C1663 C 0.67928 0.04174 0.85783 0.0
C1664 C 0.65137 0.00363 0.86837 0.0
H1665 H 0.69009 0.92094 0.85982 0.0
H1666 H 0.69082 0.95304 0.85808 0.0
H1667 H 0.64211 0.97853 0.87714 0.0
H1668 H 0.63492 0.06703 0.85981 0.0
H1669 H 0.63485 0.03505 0.85772 0.0
H1670 H 0.68395 0.01014 0.83814 0.0
C1671 C 0.67817 0.94644 0.85816 0.0
C1672 C 0.65118 0.98526 0.86842 0.0
C1673 C 0.67773 0.92806 0.85925 0.0
C1674 C 0.64744 0.06021 0.85928 0.0
C1675 C 0.64739 0.04186 0.85816 0.0
C1676 C 0.67484 0.00336 0.84676 0.0
C1677 C 0.66243 0.95619 0.85778 0.0
C1678 C 0.66277 0.97571 0.85762 0.0
C1679 C 0.6633 0.03242 0.85765 0.0
C1680 C 0.66315 0.01289 0.85751 0.0
H1681 H 0.63311 0.92239 0.85951 0.0
H1682 H 0.63394 0.95434 0.85749 0.0
H1683 H 0.68363 0.97791 0.83824 0.0
H1684 H 0.69191 0.06688 0.85935 0.0
H1685 H 0.69175 0.03481 0.85761 0.0
C1686 C 0.05931 0.6498 0.126 0.0
C1687 C 0.06924 0.66543 0.1255 0.0
C1688 C 0.041 0.65043 0.12668 0.0
C1689 C 0.00377 0.67881 0.13848 0.0
H1690 H 0.97755 0.64618 0.10911 0.0
C1691 C 0.92794 0.68067 0.13043 0.0
C1692 C 0.91926 0.66428 0.13044 0.0
C1693 C 0.9463 0.68147 0.13029 0.0
C1694 C 0.9847 0.65524 0.11751 0.0
H1695 H 0.06767 0.69402 0.1255 0.0
H1696 H 0.03555 0.69507 0.12654 0.0
H1697 H 0.00956 0.6466 0.10761 0.0
H1698 H 0.92312 0.6359 0.13093 0.0
H1699 H 0.95509 0.63736 0.1308 0.0
H1700 H 0.97879 0.6874 0.14838 0.0
C1701 C 0.04204 0.68235 0.12654 0.0
C1702 C 0.00301 0.6555 0.11664 0.0
C1703 C 0.06042 0.68173 0.12585 0.0
C1704 C 0.92935 0.64874 0.13076 0.0
C1705 C 0.94767 0.64956 0.1306 0.0
C1706 C 0.9854 0.67856 0.13934 0.0
C1707 C 0.03218 0.66669 0.12685 0.0
C1708 C 0.01273 0.66714 0.12725 0.0
C1709 C 0.95632 0.66591 0.13013 0.0
C1710 C 0.97573 0.66664 0.12899 0.0
H1711 H 0.06563 0.637 0.12589 0.0
H1712 H 0.03375 0.63814 0.12722 0.0
H1713 H 0.01097 0.6878 0.14691 0.0
H1714 H 0.92058 0.6929 0.13022 0.0
H1715 H 0.95265 0.69425 0.12982 0.0
C1716 C 0.30851 0.92916 0.12915 0.0
C1717 C 0.32484 0.92045 0.12809 0.0
C1718 C 0.30776 0.94756 0.12986 0.0
C1719 C 0.33377 0.98667 0.11815 0.0
H1720 H 0.30252 0.01151 0.15005 0.0
C1721 C 0.3401 0.0609 0.12947 0.0
C1722 C 0.32452 0.07093 0.1296 0.0
C1723 C 0.3394 0.04255 0.1299 0.0
C1724 C 0.31117 0.00473 0.14095 0.0
H1725 H 0.3532 0.92431 0.12748 0.0
H1726 H 0.35183 0.95625 0.12884 0.0
H1727 H 0.30259 0.97925 0.14964 0.0
H1728 H 0.29598 0.06947 0.13079 0.0
H1729 H 0.29482 0.0373 0.1314 0.0
H1730 H 0.34238 0.01201 0.10945 0.0
C1731 C 0.33961 0.94887 0.12882 0.0
C1732 C 0.31121 0.9863 0.14071 0.0
C1733 C 0.34038 0.93054 0.12812 0.0
C1734 C 0.30823 0.06215 0.13064 0.0
C1735 C 0.30755 0.04373 0.13107 0.0
C1736 C 0.33373 0.00503 0.11839 0.0
C1737 C 0.32331 0.95759 0.1295 0.0
C1738 C 0.32266 0.9771 0.12944 0.0
C1739 C 0.32314 0.03377 0.13045 0.0
C1740 C 0.32258 0.01426 0.12991 0.0
H1741 H 0.29629 0.9218 0.12919 0.0
H1742 H 0.295 0.95394 0.13028 0.0
H1743 H 0.34246 0.97995 0.10905 0.0
H1744 H 0.35289 0.06718 0.12887 0.0
H1745 H 0.35165 0.03523 0.12977 0.0
C1746 C 0.65629 0.06152 0.11777 0.0
C1747 C 0.66846 0.07187 0.12707 0.0
C1748 C 0.65716 0.04321 0.11851 0.0
C1749 C 0.65419 0.00582 0.13035 0.0
H1750 H 0.6985 0.98059 0.13285 0.0
C1751 C 0.6551 0.93076 0.13817 0.0
C1752 C 0.66804 0.92135 0.12895 0.0
C1753 C 0.6561 0.94906 0.13951 0.0
C1754 C 0.686 0.98741 0.13197 0.0
H1755 H 0.69119 0.0713 0.14434 0.0
H1756 H 0.6923 0.03914 0.1463 0.0
H1757 H 0.69859 0.01263 0.13116 0.0
H1758 H 0.69223 0.92351 0.11399 0.0
H1759 H 0.69353 0.95558 0.11547 0.0
H1760 H 0.64158 0.98076 0.13003 0.0
C1761 C 0.68236 0.04517 0.13804 0.0
C1762 C 0.68605 0.00583 0.13128 0.0
C1763 C 0.68169 0.06357 0.13699 0.0
C1764 C 0.68212 0.9305 0.12124 0.0
C1765 C 0.68291 0.94887 0.12222 0.0
C1766 C 0.65415 0.98747 0.13072 0.0
C1767 C 0.66998 0.03478 0.12892 0.0
C1768 C 0.67013 0.01524 0.13032 0.0
C1769 C 0.66983 0.9584 0.13127 0.0
C1770 C 0.67004 0.978 0.13148 0.0
H1771 H 0.64613 0.06759 0.10977 0.0
H1772 H 0.64775 0.03569 0.11087 0.0
H1773 H 0.64164 0.0126 0.13003 0.0
H1774 H 0.64426 0.92396 0.1445 0.0
H1775 H 0.64605 0.95586 0.147 0.0
C1776 C 0.63214 0.42818 0.80697 0.0
C1777 C 0.62961 0.41956 0.82319 0.0
C1778 C 0.634 0.44649 0.80631 0.0
C1779 C 0.64492 0.48507 0.8338 0.0
H1780 H 0.61785 0.51112 0.79912 0.0
C1781 C 0.63106 0.55923 0.84008 0.0
C1782 C 0.63144 0.56959 0.82473 0.0
C1783 C 0.63261 0.54094 0.83906 0.0
C1784 C 0.62571 0.50403 0.8087 0.0
H1785 H 0.62726 0.42347 0.85145 0.0
H1786 H 0.63034 0.45533 0.85023 0.0
H1787 H 0.61737 0.47899 0.79877 0.0
H1788 H 0.63413 0.56882 0.79623 0.0
H1789 H 0.63692 0.53686 0.7945 0.0
H1790 H 0.65303 0.51011 0.8439 0.0
C1791 C 0.63107 0.44791 0.83806 0.0
C1792 C 0.62543 0.48563 0.8085 0.0
C1793 C 0.62916 0.42965 0.83872 0.0
C1794 C 0.63368 0.56124 0.80833 0.0
C1795 C 0.63522 0.54293 0.80731 0.0
C1796 C 0.64521 0.50345 0.83399 0.0
C1797 C 0.63345 0.45653 0.82185 0.0
C1798 C 0.63482 0.47598 0.82121 0.0
C1799 C 0.63459 0.53259 0.82266 0.0
C1800 C 0.63539 0.51312 0.82161 0.0
H1801 H 0.63261 0.42082 0.79475 0.0
H1802 H 0.63597 0.45278 0.79364 0.0
H1803 H 0.65253 0.47795 0.84357 0.0
H1804 H 0.62937 0.56519 0.85294 0.0
H1805 H 0.63184 0.53331 0.8511 0.0
C1806 C 0.42954 0.6336 0.81106 0.0
C1807 C 0.42079 0.63188 0.82731 0.0
C1808 C 0.4479 0.63346 0.81029 0.0
C1809 C 0.48711 0.64143 0.81382 0.0
H1810 H 0.51094 0.60655 0.84263 0.0
C1811 C 0.56098 0.62463 0.84076 0.0
C1812 C 0.57088 0.62542 0.82512 0.0
C1813 C 0.54267 0.62545 0.84025 0.0
C1814 C 0.50448 0.61645 0.83461 0.0
H1815 H 0.42457 0.62937 0.85558 0.0
H1816 H 0.45659 0.6293 0.85421 0.0
H1817 H 0.47897 0.60861 0.84349 0.0
H1818 H 0.56921 0.62779 0.79665 0.0
H1819 H 0.53705 0.62911 0.79581 0.0
H1820 H 0.51274 0.64926 0.80498 0.0
C1821 C 0.4492 0.63043 0.84204 0.0
C1822 C 0.48619 0.61766 0.83514 0.0
C1823 C 0.43085 0.63058 0.84282 0.0
C1824 C 0.56199 0.62711 0.80893 0.0
C1825 C 0.5436 0.62797 0.80844 0.0
C1826 C 0.50546 0.64021 0.81329 0.0
C1827 C 0.4579 0.6316 0.82575 0.0
C1828 C 0.47732 0.63027 0.82488 0.0
C1829 C 0.53379 0.62707 0.82411 0.0
C1830 C 0.51432 0.62782 0.82382 0.0
H1831 H 0.42222 0.63466 0.79884 0.0
H1832 H 0.45425 0.63427 0.79754 0.0
H1833 H 0.48061 0.65135 0.80585 0.0
H1834 H 0.56733 0.62341 0.85349 0.0
H1835 H 0.53547 0.62501 0.85256 0.0
C1836 C 0.3645 0.56214 0.84042 0.0
C1837 C 0.36451 0.57252 0.82507 0.0
C1838 C 0.36318 0.54385 0.83934 0.0
C1839 C 0.37026 0.50652 0.80941 0.0
H1840 H 0.34125 0.48163 0.84333 0.0
C1841 C 0.36046 0.43096 0.8076 0.0
C1842 C 0.36217 0.42228 0.8239 0.0
C1843 C 0.35951 0.44933 0.80685 0.0
C1844 C 0.34947 0.4884 0.83384 0.0
H1845 H 0.36315 0.57172 0.79649 0.0
H1846 H 0.36074 0.5397 0.79466 0.0
H1847 H 0.34192 0.51375 0.84352 0.0
H1848 H 0.36397 0.42615 0.85221 0.0
H1849 H 0.36241 0.45814 0.85084 0.0
H1850 H 0.37795 0.4811 0.79986 0.0
C1851 C 0.36191 0.54579 0.80751 0.0
C1852 C 0.34987 0.50678 0.83395 0.0
C1853 C 0.36324 0.56414 0.80858 0.0
C1854 C 0.36268 0.43238 0.83943 0.0
C1855 C 0.36166 0.45072 0.83866 0.0
C1856 C 0.36984 0.48811 0.80928 0.0
C1857 C 0.3618 0.53548 0.8229 0.0
C1858 C 0.36048 0.51602 0.82192 0.0
C1859 C 0.36014 0.45938 0.82237 0.0
C1860 C 0.35964 0.47888 0.82167 0.0
H1861 H 0.36552 0.56811 0.85335 0.0
H1862 H 0.36344 0.53624 0.85142 0.0
H1863 H 0.37869 0.51327 0.8001 0.0
H1864 H 0.35999 0.42359 0.79538 0.0
H1865 H 0.35819 0.45567 0.79412 0.0
C1866 C 0.5591 0.36036 0.83504 0.0
C1867 C 0.56982 0.36238 0.82008 0.0
C1868 C 0.54089 0.35896 0.83331 0.0
C1869 C 0.50411 0.34634 0.8253 0.0
H1870 H 0.47907 0.38027 0.79638 0.0
C1871 C 0.42817 0.36437 0.80374 0.0
C1872 C 0.42035 0.3639 0.82054 0.0
C1873 C 0.44641 0.36267 0.80191 0.0
C1874 C 0.4859 0.37052 0.80427 0.0
H1875 H 0.56974 0.3645 0.79153 0.0
H1876 H 0.53779 0.36209 0.78858 0.0
H1877 H 0.51125 0.37995 0.79629 0.0
H1878 H 0.42562 0.36118 0.84857 0.0
H1879 H 0.45728 0.35837 0.84534 0.0
H1880 H 0.47883 0.33716 0.8336 0.0
C1881 C 0.54359 0.36165 0.80162 0.0
C1882 C 0.50429 0.37034 0.80422 0.0
C1883 C 0.56187 0.36298 0.80333 0.0
C1884 C 0.43115 0.36161 0.83542 0.0
C1885 C 0.44931 0.35984 0.83358 0.0
C1886 C 0.48577 0.34652 0.82535 0.0
C1887 C 0.53295 0.35959 0.81661 0.0
C1888 C 0.51356 0.35852 0.81507 0.0
C1889 C 0.45713 0.36034 0.81683 0.0
C1890 C 0.47648 0.35888 0.81516 0.0
H1891 H 0.56474 0.35984 0.84815 0.0
H1892 H 0.53299 0.35767 0.84513 0.0
H1893 H 0.51093 0.33684 0.83352 0.0
H1894 H 0.42023 0.36608 0.792 0.0
H1895 H 0.45211 0.36301 0.78884 0.0
C1896 C 0.63013 0.42706 0.17563 0.0
C1897 C 0.62826 0.41766 0.15976 0.0
C1898 C 0.63179 0.44539 0.17547 0.0
C1899 C 0.62127 0.48383 0.14809 0.0
H1900 H 0.65355 0.50835 0.17923 0.0
C1901 C 0.62978 0.55899 0.14514 0.0
C1902 C 0.62969 0.56783 0.16143 0.0
C1903 C 0.6313 0.54068 0.14449 0.0
C1904 C 0.6444 0.50167 0.17054 0.0
H1905 H 0.62717 0.42018 0.13125 0.0
H1906 H 0.63017 0.45207 0.13103 0.0
H1907 H 0.65299 0.47614 0.17903 0.0
H1908 H 0.63165 0.56434 0.18978 0.0
H1909 H 0.63407 0.53239 0.1886 0.0
H1910 H 0.6125 0.50927 0.13975 0.0
C1911 C 0.63007 0.44528 0.14359 0.0
C1912 C 0.64407 0.48326 0.17044 0.0
C1913 C 0.62841 0.42698 0.14374 0.0
C1914 C 0.63163 0.55797 0.17701 0.0
C1915 C 0.63314 0.53965 0.17634 0.0
C1916 C 0.62159 0.5022 0.14819 0.0
C1917 C 0.63161 0.45468 0.15945 0.0
C1918 C 0.63243 0.47417 0.15927 0.0
C1919 C 0.63277 0.53081 0.16009 0.0
C1920 C 0.6331 0.51131 0.15948 0.0
H1921 H 0.6301 0.4203 0.1882 0.0
H1922 H 0.63278 0.45232 0.18791 0.0
H1923 H 0.61195 0.4772 0.13955 0.0
H1924 H 0.62847 0.56617 0.13287 0.0
H1925 H 0.63124 0.53422 0.13176 0.0
C1926 C 0.55718 0.61987 0.1521 0.0
C1927 C 0.56761 0.62041 0.1674 0.0
C1928 C 0.53889 0.61892 0.15333 0.0
C1929 C 0.50184 0.62835 0.18267 0.0
H1930 H 0.47673 0.59693 0.15111 0.0
C1931 C 0.42594 0.61988 0.18377 0.0
C1932 C 0.41777 0.62012 0.16713 0.0
C1933 C 0.44428 0.61894 0.18515 0.0
C1934 C 0.48356 0.60582 0.15994 0.0
H1935 H 0.56693 0.62055 0.19603 0.0
H1936 H 0.53492 0.61884 0.1981 0.0
H1937 H 0.50881 0.59717 0.15101 0.0
H1938 H 0.42254 0.61967 0.13888 0.0
H1939 H 0.45433 0.61817 0.14134 0.0
H1940 H 0.47651 0.6372 0.19137 0.0
C1941 C 0.54098 0.61923 0.18519 0.0
C1942 C 0.5019 0.60597 0.15988 0.0
C1943 C 0.5593 0.62013 0.18397 0.0
C1944 C 0.42833 0.61944 0.15193 0.0
C1945 C 0.44658 0.61846 0.15332 0.0
C1946 C 0.48345 0.62822 0.18272 0.0
C1947 C 0.53062 0.61851 0.16987 0.0
C1948 C 0.51122 0.61746 0.171 0.0
C1949 C 0.45474 0.61813 0.16991 0.0
C1950 C 0.47415 0.61718 0.17111 0.0
H1951 H 0.5631 0.62012 0.13913 0.0
H1952 H 0.53121 0.61867 0.1413 0.0
H1953 H 0.50871 0.63742 0.19129 0.0
H1954 H 0.4182 0.62039 0.19574 0.0
H1955 H 0.45025 0.61862 0.19811 0.0
C1956 C 0.35371 0.55904 0.17839 0.0
C1957 C 0.35549 0.56823 0.16238 0.0
C1958 C 0.35279 0.54065 0.17857 0.0
C1959 C 0.36576 0.50244 0.15194 0.0
H1960 H 0.33484 0.47632 0.18315 0.0
C1961 C 0.35814 0.42761 0.14648 0.0
C1962 C 0.35839 0.41778 0.1622 0.0
C1963 C 0.35685 0.44592 0.14691 0.0
C1964 C 0.34366 0.48347 0.1745 0.0
H1965 H 0.35689 0.56528 0.13394 0.0
H1966 H 0.35509 0.53326 0.13429 0.0
H1967 H 0.33376 0.50855 0.18288 0.0
H1968 H 0.35708 0.41956 0.19072 0.0
H1969 H 0.35498 0.45171 0.19143 0.0
H1970 H 0.37571 0.47747 0.14358 0.0
C1971 C 0.35477 0.54028 0.14672 0.0
C1972 C 0.34303 0.50189 0.17433 0.0
C1973 C 0.35571 0.55864 0.14653 0.0
C1974 C 0.35697 0.42672 0.17837 0.0
C1975 C 0.35567 0.44512 0.17879 0.0
C1976 C 0.36637 0.48409 0.1521 0.0
C1977 C 0.3536 0.53108 0.16275 0.0
C1978 C 0.35403 0.51155 0.16297 0.0
C1979 C 0.3558 0.45488 0.16304 0.0
C1980 C 0.35527 0.4744 0.1633 0.0
H1981 H 0.35346 0.56599 0.19085 0.0
H1982 H 0.35202 0.53393 0.19114 0.0
H1983 H 0.37468 0.50951 0.14335 0.0
H1984 H 0.35901 0.4212 0.13375 0.0
H1985 H 0.35666 0.45307 0.13455 0.0
C1986 C 0.55964 0.36156 0.18019 0.0
C1987 C 0.56787 0.36131 0.16359 0.0
C1988 C 0.54133 0.36037 0.18154 0.0
C1989 C 0.5021 0.36885 0.17904 0.0
H1990 H 0.4769 0.33659 0.14841 0.0
C1991 C 0.42835 0.35931 0.14907 0.0
C1992 C 0.41793 0.36054 0.16434 0.0
C1993 C 0.44661 0.35813 0.15033 0.0
C1994 C 0.48376 0.34571 0.15699 0.0
H1995 H 0.56322 0.35965 0.13538 0.0
H1996 H 0.53138 0.35776 0.13777 0.0
H1997 H 0.509 0.33691 0.14814 0.0
H1998 H 0.41862 0.36143 0.19294 0.0
H1999 H 0.45067 0.35936 0.19508 0.0
H2000 H 0.4768 0.37783 0.18768 0.0
C2001 C 0.5391 0.35864 0.14975 0.0
C2002 C 0.50212 0.34591 0.15683 0.0
C2003 C 0.55737 0.35986 0.14839 0.0
C2004 C 0.42625 0.36052 0.18091 0.0
C2005 C 0.44459 0.35941 0.18216 0.0
C2006 C 0.48371 0.36865 0.17921 0.0
C2007 C 0.53089 0.35884 0.16633 0.0
C2008 C 0.51147 0.3577 0.1676 0.0
C2009 C 0.45493 0.35817 0.16686 0.0
C2010 C 0.47437 0.3573 0.16794 0.0
H2011 H 0.56731 0.36263 0.19218 0.0
H2012 H 0.53535 0.36044 0.1945 0.0
H2013 H 0.50897 0.37818 0.18739 0.0
H2014 H 0.42243 0.35927 0.13608 0.0
H2015 H 0.45426 0.35747 0.1383 0.0
C2016 C 0.81092 0.63407 0.42952 0.0
C2017 C 0.82711 0.63298 0.42056 0.0
C2018 C 0.81045 0.63474 0.44791 0.0
C2019 C 0.83707 0.62225 0.48634 0.0
H2020 H 0.80481 0.6521 0.5124 0.0
C2021 C 0.84227 0.63033 0.56117 0.0
C2022 C 0.82658 0.62986 0.57101 0.0
C2023 C 0.84178 0.63131 0.54285 0.0
C2024 C 0.81375 0.64356 0.50528 0.0
H2025 H 0.85552 0.63259 0.42395 0.0
H2026 H 0.85466 0.63395 0.45595 0.0
H2027 H 0.80514 0.6533 0.48019 0.0
H2028 H 0.79804 0.63029 0.5692 0.0
H2029 H 0.79724 0.63185 0.53705 0.0
H2030 H 0.84569 0.61249 0.51131 0.0
C2031 C 0.84233 0.63391 0.44875 0.0
C2032 C 0.81396 0.64426 0.48686 0.0
C2033 C 0.84281 0.63321 0.4304 0.0
C2034 C 0.81037 0.6306 0.56204 0.0
C2035 C 0.8099 0.6316 0.54364 0.0
C2036 C 0.83687 0.62156 0.50469 0.0
C2037 C 0.82615 0.63436 0.45772 0.0
C2038 C 0.82572 0.63369 0.47723 0.0
C2039 C 0.82562 0.63182 0.53387 0.0
C2040 C 0.82531 0.63229 0.51436 0.0
H2041 H 0.79857 0.63395 0.42236 0.0
H2042 H 0.79778 0.63497 0.45445 0.0
H2043 H 0.846 0.61365 0.47928 0.0
H2044 H 0.85501 0.62993 0.5676 0.0
H2045 H 0.85411 0.63176 0.5357 0.0
C2046 C 0.35827 0.81435 0.56352 0.0
C2047 C 0.35978 0.83061 0.57229 0.0
C2048 C 0.35751 0.81371 0.54512 0.0
C2049 C 0.37 0.83942 0.50609 0.0
H2050 H 0.33733 0.8089 0.48131 0.0
C2051 C 0.36142 0.84327 0.43104 0.0
C2052 C 0.36054 0.8272 0.42185 0.0
C2053 C 0.36036 0.84358 0.44939 0.0
C2054 C 0.34663 0.81737 0.48806 0.0
H2055 H 0.3612 0.859 0.56854 0.0
H2056 H 0.35979 0.85781 0.5366 0.0
H2057 H 0.33737 0.80941 0.51352 0.0
H2058 H 0.35749 0.79888 0.42479 0.0
H2059 H 0.3559 0.79945 0.45682 0.0
H2060 H 0.37939 0.84729 0.48076 0.0
C2061 C 0.35946 0.84556 0.54393 0.0
C2062 C 0.34665 0.81765 0.50648 0.0
C2063 C 0.36019 0.84621 0.56226 0.0
C2064 C 0.35822 0.81149 0.43143 0.0
C2065 C 0.3572 0.81181 0.4498 0.0
C2066 C 0.37 0.83911 0.48773 0.0
C2067 C 0.35829 0.82931 0.53516 0.0
C2068 C 0.3583 0.82874 0.51566 0.0
C2069 C 0.35845 0.82784 0.45898 0.0
C2070 C 0.35828 0.82814 0.47851 0.0
H2071 H 0.35789 0.80209 0.57082 0.0
H2072 H 0.35672 0.80099 0.53868 0.0
H2073 H 0.37934 0.84786 0.51282 0.0
H2074 H 0.36304 0.85564 0.4241 0.0
H2075 H 0.36106 0.85617 0.45609 0.0
C2076 C 0.15391 0.36862 0.4298 0.0
C2077 C 0.16894 0.36788 0.41902 0.0
C2078 C 0.15552 0.36883 0.44807 0.0
C2079 C 0.18488 0.3571 0.48451 0.0
H2080 H 0.15441 0.38865 0.51073 0.0
C2081 C 0.18591 0.36416 0.56095 0.0
C2082 C 0.16922 0.36457 0.56902 0.0
C2083 C 0.18741 0.36484 0.54259 0.0
C2084 C 0.16293 0.37971 0.50359 0.0
H2085 H 0.19752 0.36657 0.41911 0.0
H2086 H 0.20029 0.367 0.45122 0.0
H2087 H 0.15442 0.38967 0.47867 0.0
H2088 H 0.14104 0.36546 0.56401 0.0
H2089 H 0.14373 0.36656 0.53218 0.0
H2090 H 0.1932 0.347 0.50958 0.0
C2091 C 0.18727 0.36735 0.44538 0.0
C2092 C 0.16294 0.38029 0.48525 0.0
C2093 C 0.18566 0.36719 0.42701 0.0
C2094 C 0.15412 0.36526 0.55831 0.0
C2095 C 0.15564 0.366 0.54004 0.0
C2096 C 0.18488 0.35652 0.50294 0.0
C2097 C 0.1722 0.36832 0.45606 0.0
C2098 C 0.17362 0.36874 0.47551 0.0
C2099 C 0.17228 0.36603 0.532 0.0
C2100 C 0.17361 0.36757 0.51261 0.0
H2101 H 0.1408 0.36907 0.42415 0.0
H2102 H 0.14365 0.36925 0.45597 0.0
H2103 H 0.19318 0.34799 0.47732 0.0
H2104 H 0.19782 0.36358 0.5688 0.0
H2105 H 0.20041 0.36487 0.53671 0.0
C2106 C 0.63194 0.14538 0.42869 0.0
C2107 C 0.63092 0.16078 0.41842 0.0
C2108 C 0.63311 0.14645 0.44701 0.0
C2109 C 0.62261 0.17579 0.48392 0.0
H2110 H 0.65272 0.14403 0.51034 0.0
C2111 C 0.62882 0.1788 0.55978 0.0
C2112 C 0.62835 0.16248 0.56859 0.0
C2113 C 0.63035 0.17947 0.54145 0.0
C2114 C 0.64417 0.1529 0.50313 0.0
H2115 H 0.63074 0.18941 0.4194 0.0
H2116 H 0.63288 0.1912 0.45138 0.0
H2117 H 0.65347 0.14361 0.4782 0.0
H2118 H 0.62916 0.13408 0.56494 0.0
H2119 H 0.63162 0.1353 0.53306 0.0
H2120 H 0.61311 0.18491 0.50884 0.0
C2121 C 0.63256 0.17832 0.44522 0.0
C2122 C 0.6446 0.15266 0.48475 0.0
C2123 C 0.63141 0.17727 0.42689 0.0
C2124 C 0.62949 0.14688 0.55864 0.0
C2125 C 0.63105 0.14757 0.54035 0.0
C2126 C 0.62217 0.17603 0.50231 0.0
C2127 C 0.63329 0.16292 0.45547 0.0
C2128 C 0.63367 0.16395 0.47496 0.0
C2129 C 0.63149 0.16385 0.53156 0.0
C2130 C 0.63278 0.16443 0.51209 0.0
H2131 H 0.63162 0.13246 0.42263 0.0
H2132 H 0.63345 0.13434 0.45458 0.0
H2133 H 0.61387 0.1845 0.47672 0.0
H2134 H 0.62804 0.19107 0.56703 0.0
H2135 H 0.63082 0.19222 0.53503 0.0
C2136 C 0.80301 0.36163 0.42829 0.0
C2137 C 0.81938 0.36233 0.41965 0.0
C2138 C 0.80218 0.36145 0.44671 0.0
C2139 C 0.82834 0.3745 0.48526 0.0
H2140 H 0.79744 0.34348 0.51161 0.0
C2141 C 0.83718 0.36385 0.55916 0.0
C2142 C 0.82206 0.3641 0.56984 0.0
C2143 C 0.83567 0.36343 0.54088 0.0
C2144 C 0.80598 0.35236 0.50439 0.0
H2145 H 0.84774 0.3626 0.42363 0.0
H2146 H 0.84624 0.36213 0.45555 0.0
H2147 H 0.7969 0.34292 0.47934 0.0
H2148 H 0.79346 0.36365 0.5696 0.0
H2149 H 0.79089 0.363 0.5375 0.0
H2150 H 0.83754 0.38387 0.51015 0.0
C2151 C 0.83404 0.3621 0.44813 0.0
C2152 C 0.80567 0.35203 0.48596 0.0
C2153 C 0.83488 0.36229 0.42981 0.0
C2154 C 0.80537 0.36353 0.56177 0.0
C2155 C 0.80388 0.36308 0.54341 0.0
C2156 C 0.82865 0.37481 0.50359 0.0
C2157 C 0.81771 0.36198 0.45678 0.0
C2158 C 0.81708 0.3629 0.47625 0.0
C2159 C 0.81903 0.36324 0.5328 0.0
C2160 C 0.8177 0.36355 0.51335 0.0
H2161 H 0.79082 0.36161 0.42087 0.0
H2162 H 0.78941 0.3614 0.45305 0.0
H2163 H 0.83698 0.38333 0.47811 0.0
H2164 H 0.85025 0.36411 0.56488 0.0
H2165 H 0.84759 0.36322 0.53304 0.0
C2166 C 0.63626 0.84374 0.43108 0.0
C2167 C 0.63482 0.82759 0.42211 0.0
C2168 C 0.63769 0.84412 0.44939 0.0
C2169 C 0.64734 0.81689 0.48865 0.0
H2170 H 0.61693 0.85065 0.51202 0.0
C2171 C 0.63076 0.81398 0.56301 0.0
C2172 C 0.63012 0.83013 0.57211 0.0
C2173 C 0.63283 0.81367 0.54472 0.0
C2174 C 0.62567 0.84131 0.50571 0.0
H2175 H 0.6345 0.79913 0.42535 0.0
H2176 H 0.63675 0.79986 0.45734 0.0
H2177 H 0.61843 0.85026 0.48003 0.0
H2178 H 0.63168 0.85858 0.56911 0.0
H2179 H 0.63539 0.85797 0.53734 0.0
H2180 H 0.65437 0.80782 0.51446 0.0
C2181 C 0.63693 0.81221 0.45017 0.0
C2182 C 0.62656 0.8411 0.48738 0.0
C2183 C 0.63554 0.81181 0.43183 0.0
C2184 C 0.63192 0.84591 0.56255 0.0
C2185 C 0.634 0.84558 0.54431 0.0
C2186 C 0.64645 0.8171 0.50704 0.0
C2187 C 0.63767 0.82838 0.45915 0.0
C2188 C 0.63737 0.82889 0.47865 0.0
C2189 C 0.63431 0.82949 0.53519 0.0
C2190 C 0.63558 0.8293 0.51573 0.0
H2191 H 0.63597 0.85614 0.424 0.0
H2192 H 0.63858 0.85678 0.45595 0.0
H2193 H 0.65592 0.80744 0.48227 0.0
H2194 H 0.62945 0.80158 0.56997 0.0
H2195 H 0.63286 0.80107 0.53801 0.0
C2196 C 0.18117 0.63222 0.55918 0.0
C2197 C 0.16518 0.62962 0.56817 0.0
C2198 C 0.18162 0.63239 0.54079 0.0
C2199 C 0.15657 0.6168 0.50238 0.0
H2200 H 0.1843 0.65098 0.4764 0.0
C2201 C 0.14789 0.62699 0.42822 0.0
C2202 C 0.16314 0.62858 0.41784 0.0
C2203 C 0.14899 0.62721 0.44653 0.0
C2204 C 0.17668 0.64123 0.4835 0.0
H2205 H 0.13704 0.62569 0.56481 0.0
H2206 H 0.13783 0.62618 0.5328 0.0
H2207 H 0.18449 0.65148 0.50862 0.0
H2208 H 0.19154 0.63193 0.41866 0.0
H2209 H 0.19342 0.63224 0.45081 0.0
H2210 H 0.14864 0.60662 0.47735 0.0
C2211 C 0.15007 0.62776 0.53999 0.0
C2212 C 0.17677 0.64152 0.50192 0.0
C2213 C 0.14961 0.62757 0.55835 0.0
C2214 C 0.17953 0.63064 0.42625 0.0
C2215 C 0.18062 0.6309 0.44465 0.0
C2216 C 0.15646 0.61652 0.48403 0.0
C2217 C 0.16609 0.62997 0.53102 0.0
C2218 C 0.16655 0.62942 0.51152 0.0
C2219 C 0.16536 0.62904 0.45493 0.0
C2220 C 0.16634 0.62886 0.4744 0.0
H2221 H 0.19342 0.63385 0.56633 0.0
H2222 H 0.19418 0.634 0.53422 0.0
H2223 H 0.14887 0.60706 0.50942 0.0
H2224 H 0.13502 0.6255 0.42223 0.0
H2225 H 0.13697 0.62606 0.45413 0.0
C2226 C 0.36473 0.1477 0.42978 0.0
C2227 C 0.3648 0.16336 0.41985 0.0
C2228 C 0.3644 0.14826 0.44812 0.0
C2229 C 0.35278 0.1763 0.48571 0.0
H2230 H 0.38301 0.14403 0.51141 0.0
C2231 C 0.36137 0.17824 0.56152 0.0
C2232 C 0.36204 0.1619 0.57029 0.0
C2233 C 0.36137 0.17899 0.54313 0.0
C2234 C 0.37435 0.15298 0.50442 0.0
H2235 H 0.36442 0.19194 0.42151 0.0
H2236 H 0.36395 0.19287 0.4537 0.0
H2237 H 0.38399 0.14457 0.47935 0.0
H2238 H 0.36271 0.13352 0.56652 0.0
H2239 H 0.36253 0.13488 0.5345 0.0
H2240 H 0.3431 0.18465 0.51087 0.0
C2241 C 0.36404 0.18017 0.44716 0.0
C2242 C 0.37493 0.15331 0.48607 0.0
C2243 C 0.3644 0.17962 0.42874 0.0
C2244 C 0.36232 0.14634 0.56023 0.0
C2245 C 0.36232 0.14711 0.54187 0.0
C2246 C 0.35219 0.17597 0.50412 0.0
C2247 C 0.36414 0.16448 0.45701 0.0
C2248 C 0.36404 0.16485 0.47652 0.0
C2249 C 0.36205 0.16344 0.53313 0.0
C2250 C 0.36286 0.16418 0.51364 0.0
H2251 H 0.36493 0.13492 0.42342 0.0
H2252 H 0.3642 0.13594 0.45534 0.0
H2253 H 0.34411 0.18521 0.47867 0.0
H2254 H 0.36113 0.1905 0.56883 0.0
H2255 H 0.36128 0.19177 0.53676 0.0
C2256 C 0.42851 0.8463 0.62901 0.0
C2257 C 0.41846 0.83072 0.62929 0.0
C2258 C 0.44686 0.84557 0.62897 0.0
C2259 C 0.48464 0.81702 0.63944 0.0
H2260 H 0.50951 0.84869 0.60796 0.0
C2261 C 0.56006 0.81374 0.62836 0.0
C2262 C 0.56902 0.82996 0.6276 0.0
C2263 C 0.54166 0.81324 0.62861 0.0
C2264 C 0.50277 0.83989 0.61695 0.0
H2265 H 0.41992 0.80214 0.63009 0.0
H2266 H 0.45205 0.80092 0.62992 0.0
H2267 H 0.47745 0.84883 0.60846 0.0
H2268 H 0.56558 0.85838 0.62676 0.0
H2269 H 0.53359 0.85746 0.62733 0.0
H2270 H 0.51004 0.80814 0.64797 0.0
C2271 C 0.44564 0.81368 0.62984 0.0
C2272 C 0.48441 0.83996 0.61723 0.0
C2273 C 0.42724 0.8144 0.62985 0.0
C2274 C 0.55915 0.84564 0.62724 0.0
C2275 C 0.54079 0.84512 0.62747 0.0
C2276 C 0.50305 0.81695 0.63916 0.0
C2277 C 0.45563 0.82927 0.62922 0.0
C2278 C 0.47514 0.82866 0.62859 0.0
C2279 C 0.53183 0.82893 0.62807 0.0
C2280 C 0.5123 0.8285 0.62802 0.0
H2281 H 0.42224 0.85912 0.6287 0.0
H2282 H 0.45419 0.85782 0.62881 0.0
H2283 H 0.47785 0.80827 0.64844 0.0
H2284 H 0.56722 0.80139 0.62866 0.0
H2285 H 0.53512 0.80055 0.62892 0.0
C2286 C 0.42991 0.14562 0.36077 0.0
C2287 C 0.42024 0.16141 0.35999 0.0
C2288 C 0.44827 0.14591 0.36042 0.0
C2289 C 0.48655 0.17329 0.34859 0.0
H2290 H 0.51084 0.14326 0.38211 0.0
C2291 C 0.56174 0.17701 0.36101 0.0
C2292 C 0.5706 0.1608 0.36264 0.0
C2293 C 0.54335 0.17757 0.3604 0.0
C2294 C 0.50426 0.15159 0.37256 0.0
H2295 H 0.42235 0.18989 0.35773 0.0
H2296 H 0.45443 0.19034 0.35725 0.0
H2297 H 0.4788 0.14319 0.3811 0.0
H2298 H 0.567 0.13244 0.36466 0.0
H2299 H 0.53508 0.13347 0.36345 0.0
H2300 H 0.5121 0.18166 0.34005 0.0
C2301 C 0.44775 0.17775 0.35802 0.0
C2302 C 0.48592 0.15153 0.37196 0.0
C2303 C 0.42937 0.17747 0.35838 0.0
C2304 C 0.56065 0.14519 0.36352 0.0
C2305 C 0.54232 0.14576 0.36292 0.0
C2306 C 0.50495 0.17334 0.34918 0.0
C2307 C 0.45738 0.16199 0.35927 0.0
C2308 C 0.47687 0.16228 0.3599 0.0
C2309 C 0.53347 0.16194 0.36143 0.0
C2310 C 0.51398 0.16239 0.36109 0.0
H2311 H 0.42334 0.13299 0.36187 0.0
H2312 H 0.45535 0.13353 0.36109 0.0
H2313 H 0.47992 0.1816 0.33906 0.0
H2314 H 0.56899 0.18929 0.36028 0.0
H2315 H 0.53686 0.19025 0.35939 0.0
C2316 C 0.83614 0.56022 0.36968 0.0
C2317 C 0.82141 0.57128 0.36772 0.0
C2318 C 0.83414 0.54198 0.3701 0.0
C2319 C 0.8048 0.50612 0.35667 0.0
H2320 H 0.83298 0.47925 0.38983 0.0
C2321 C 0.80217 0.42969 0.36311 0.0
C2322 C 0.8187 0.42136 0.36416 0.0
C2323 C 0.80089 0.44806 0.36401 0.0
C2324 C 0.82509 0.48658 0.38045 0.0
H2325 H 0.79297 0.57174 0.36458 0.0
H2326 H 0.78953 0.53972 0.36539 0.0
H2327 H 0.83346 0.51133 0.39096 0.0
H2328 H 0.84687 0.4259 0.36656 0.0
H2329 H 0.84458 0.45776 0.36806 0.0
H2330 H 0.79664 0.48124 0.34604 0.0
C2331 C 0.80261 0.54529 0.36651 0.0
C2332 C 0.82536 0.50492 0.38109 0.0
C2333 C 0.8046 0.56361 0.36613 0.0
C2334 C 0.83391 0.43181 0.36581 0.0
C2335 C 0.83261 0.45009 0.36679 0.0
C2336 C 0.8045 0.4877 0.35605 0.0
C2337 C 0.81737 0.53431 0.36858 0.0
C2338 C 0.81555 0.51489 0.36896 0.0
C2339 C 0.8161 0.45839 0.3661 0.0
C2340 C 0.81497 0.47779 0.36769 0.0
H2341 H 0.84929 0.56561 0.37087 0.0
H2342 H 0.8458 0.53384 0.3714 0.0
H2343 H 0.79718 0.51348 0.3471 0.0
H2344 H 0.7902 0.42204 0.3618 0.0
H2345 H 0.788 0.45416 0.36348 0.0
C2346 C 0.43076 0.83296 0.35696 0.0
C2347 C 0.42058 0.82107 0.36678 0.0
C2348 C 0.44906 0.8319 0.35723 0.0
C2349 C 0.48659 0.80322 0.37057 0.0
H2350 H 0.51156 0.84776 0.36904 0.0
C2351 C 0.56097 0.83468 0.38039 0.0
C2352 C 0.57093 0.82164 0.3719 0.0
C2353 C 0.54266 0.83357 0.38077 0.0
C2354 C 0.50485 0.83518 0.36978 0.0
H2355 H 0.42141 0.79858 0.38437 0.0
H2356 H 0.4535 0.7972 0.38555 0.0
H2357 H 0.47977 0.84762 0.368 0.0
H2358 H 0.56971 0.79713 0.35729 0.0
H2359 H 0.53764 0.7956 0.35714 0.0
H2360 H 0.51176 0.79089 0.37332 0.0
C2361 C 0.44738 0.80703 0.37721 0.0
C2362 C 0.48655 0.83508 0.36881 0.0
C2363 C 0.429 0.80786 0.37662 0.0
C2364 C 0.5623 0.80731 0.36401 0.0
C2365 C 0.54392 0.8064 0.36404 0.0
C2366 C 0.50495 0.80334 0.37187 0.0
C2367 C 0.45764 0.8192 0.36768 0.0
C2368 C 0.47716 0.81911 0.36901 0.0
C2369 C 0.53387 0.81963 0.37226 0.0
C2370 C 0.51431 0.81934 0.3714 0.0
H2371 H 0.42455 0.84309 0.34903 0.0
H2372 H 0.45648 0.84115 0.34929 0.0
H2373 H 0.47983 0.79065 0.3706 0.0
H2374 H 0.56735 0.84573 0.38681 0.0
H2375 H 0.53541 0.84374 0.38767 0.0
C2376 C 0.14904 0.43179 0.35786 0.0
C2377 C 0.16483 0.42212 0.35795 0.0
C2378 C 0.14935 0.45013 0.35687 0.0
C2379 C 0.17693 0.48829 0.34508 0.0
H2380 H 0.1454 0.51299 0.3768 0.0
C2381 C 0.17896 0.56389 0.35708 0.0
C2382 C 0.16254 0.57243 0.35808 0.0
C2383 C 0.17987 0.5455 0.35617 0.0
C2384 C 0.15415 0.50629 0.36773 0.0
H2385 H 0.19333 0.42414 0.35654 0.0
H2386 H 0.19381 0.45627 0.35501 0.0
H2387 H 0.1458 0.48094 0.37666 0.0
H2388 H 0.1342 0.56832 0.35826 0.0
H2389 H 0.13587 0.53642 0.35659 0.0
H2390 H 0.18529 0.5138 0.33624 0.0
C2391 C 0.18121 0.44959 0.35557 0.0
C2392 C 0.15437 0.48794 0.36764 0.0
C2393 C 0.18092 0.43119 0.35652 0.0
C2394 C 0.14709 0.56221 0.35771 0.0
C2395 C 0.14802 0.54391 0.35682 0.0
C2396 C 0.17672 0.50672 0.34518 0.0
C2397 C 0.16543 0.45923 0.35601 0.0
C2398 C 0.16563 0.47874 0.35621 0.0
C2399 C 0.1644 0.53535 0.35629 0.0
C2400 C 0.16519 0.51587 0.3564 0.0
H2401 H 0.1364 0.42524 0.35872 0.0
H2402 H 0.13695 0.4572 0.35688 0.0
H2403 H 0.18567 0.48153 0.33605 0.0
H2404 H 0.19111 0.57136 0.35729 0.0
H2405 H 0.19268 0.53922 0.35586 0.0
C2406 C 0.42911 0.17773 0.62819 0.0
C2407 C 0.42002 0.16158 0.62773 0.0
C2408 C 0.44751 0.17806 0.62866 0.0
C2409 C 0.48598 0.15085 0.6175 0.0
H2410 H 0.51148 0.18285 0.64814 0.0
C2411 C 0.56076 0.14541 0.62722 0.0
C2412 C 0.57047 0.16119 0.62712 0.0
C2413 C 0.5424 0.14577 0.62791 0.0
C2414 C 0.50453 0.17397 0.63939 0.0
H2415 H 0.42321 0.1331 0.62781 0.0
H2416 H 0.45516 0.13374 0.62875 0.0
H2417 H 0.47929 0.18306 0.64814 0.0
H2418 H 0.56844 0.18975 0.62799 0.0
H2419 H 0.53638 0.19032 0.62899 0.0
H2420 H 0.51112 0.14179 0.60868 0.0
C2421 C 0.44808 0.14614 0.62847 0.0
C2422 C 0.48612 0.17409 0.63939 0.0
C2423 C 0.42974 0.1458 0.62802 0.0
C2424 C 0.56139 0.17733 0.62803 0.0
C2425 C 0.54301 0.17768 0.6287 0.0
C2426 C 0.50434 0.15074 0.61748 0.0
C2427 C 0.45717 0.16225 0.62865 0.0
C2428 C 0.47668 0.16246 0.6285 0.0
C2429 C 0.53333 0.16191 0.62849 0.0
C2430 C 0.51382 0.16222 0.62849 0.0
H2431 H 0.42205 0.19014 0.628 0.0
H2432 H 0.45419 0.19068 0.62867 0.0
H2433 H 0.47906 0.14197 0.60872 0.0
H2434 H 0.5673 0.13273 0.62668 0.0
H2435 H 0.53531 0.13338 0.62802 0.0
C2436 C 0.84182 0.5622 0.62881 0.0
C2437 C 0.82631 0.5723 0.62954 0.0
C2438 C 0.84105 0.54385 0.62911 0.0
C2439 C 0.81294 0.50622 0.64109 0.0
H2440 H 0.84282 0.48113 0.60811 0.0
C2441 C 0.80895 0.43071 0.62965 0.0
C2442 C 0.82511 0.42179 0.628 0.0
C2443 C 0.80846 0.44913 0.63026 0.0
C2444 C 0.83453 0.48793 0.61751 0.0
H2445 H 0.79781 0.57094 0.63159 0.0
H2446 H 0.79651 0.53881 0.632 0.0
H2447 H 0.84313 0.5132 0.60854 0.0
H2448 H 0.85346 0.42528 0.62617 0.0
H2449 H 0.85255 0.45724 0.62738 0.0
H2450 H 0.80439 0.48085 0.65007 0.0
C2451 C 0.80926 0.54518 0.63129 0.0
C2452 C 0.83471 0.5063 0.61776 0.0
C2453 C 0.81002 0.56358 0.63097 0.0
C2454 C 0.84075 0.43168 0.62729 0.0
C2455 C 0.84025 0.45003 0.62789 0.0
C2456 C 0.81277 0.4878 0.64084 0.0
C2457 C 0.82477 0.53514 0.63016 0.0
C2458 C 0.82406 0.51564 0.62966 0.0
C2459 C 0.8241 0.45896 0.6292 0.0
C2460 C 0.8237 0.47848 0.62916 0.0
H2461 H 0.85462 0.56844 0.62784 0.0
H2462 H 0.85325 0.53646 0.62853 0.0
H2463 H 0.80469 0.51309 0.65048 0.0
H2464 H 0.79664 0.42352 0.63025 0.0
H2465 H 0.79581 0.45567 0.63116 0.0
C2466 C 0.18135 0.56242 0.61803 0.0
C2467 C 0.16786 0.57174 0.62656 0.0
C2468 C 0.18211 0.54403 0.61917 0.0
C2469 C 0.15362 0.50571 0.63004 0.0
H2470 H 0.19771 0.48004 0.62803 0.0
C2471 C 0.18113 0.42942 0.63588 0.0
C2472 C 0.16737 0.42095 0.62685 0.0
C2473 C 0.18177 0.44784 0.63672 0.0
C2474 C 0.18528 0.48699 0.62885 0.0
H2475 H 0.14523 0.56938 0.64378 0.0
H2476 H 0.147 0.53753 0.64649 0.0
H2477 H 0.19807 0.51212 0.629 0.0
H2478 H 0.14386 0.42506 0.61112 0.0
H2479 H 0.14535 0.45697 0.61194 0.0
H2480 H 0.14083 0.48071 0.63072 0.0
C2481 C 0.15656 0.54418 0.63825 0.0
C2482 C 0.18547 0.50543 0.62912 0.0
C2483 C 0.15558 0.56247 0.63679 0.0
C2484 C 0.15448 0.4312 0.61842 0.0
C2485 C 0.15529 0.44954 0.61899 0.0
C2486 C 0.15344 0.48734 0.63006 0.0
C2487 C 0.1696 0.53465 0.62915 0.0
C2488 C 0.16962 0.51503 0.62956 0.0
C2489 C 0.16882 0.45813 0.62831 0.0
C2490 C 0.16924 0.47772 0.62921 0.0
H2491 H 0.19097 0.56928 0.61003 0.0
H2492 H 0.19221 0.53717 0.6118 0.0
H2493 H 0.14111 0.51256 0.63008 0.0
H2494 H 0.19121 0.42183 0.64256 0.0
H2495 H 0.19226 0.45397 0.6442 0.0
C2496 C 0.11841 0.1801 0.27224 0.0
C2497 C 0.12738 0.18276 0.28826 0.0
C2498 C 0.11606 0.19398 0.26037 0.0
C2499 C 0.13627 0.23625 0.24815 0.0
H2500 H 0.09477 0.24149 0.21876 0.0
C2501 C 0.13122 0.29227 0.19773 0.0
C2502 C 0.12548 0.28756 0.18074 0.0
C2503 C 0.12921 0.28067 0.21186 0.0
C2504 C 0.10647 0.24013 0.22682 0.0
H2505 H 0.14009 0.20243 0.3047 0.0
H2506 H 0.13578 0.22667 0.28409 0.0
H2507 H 0.09518 0.21917 0.24201 0.0
H2508 H 0.11238 0.26722 0.16549 0.0
H2509 H 0.10909 0.24684 0.19018 0.0
H2510 H 0.14771 0.25693 0.23286 0.0
C2511 C 0.13089 0.21373 0.28057 0.0
C2512 C 0.10671 0.22735 0.24013 0.0
C2513 C 0.13328 0.19983 0.29242 0.0
C2514 C 0.11697 0.27126 0.17839 0.0
C2515 C 0.11501 0.2596 0.19256 0.0
C2516 C 0.13602 0.249 0.2349 0.0
C2517 C 0.12257 0.21089 0.26424 0.0
C2518 C 0.12169 0.22518 0.25086 0.0
C2519 C 0.12147 0.26404 0.20936 0.0
C2520 C 0.12118 0.25101 0.22399 0.0
H2521 H 0.11365 0.16714 0.26857 0.0
H2522 H 0.10975 0.19129 0.24785 0.0
H2523 H 0.14816 0.23471 0.25591 0.0
H2524 H 0.13759 0.30482 0.20011 0.0
H2525 H 0.13399 0.28464 0.22471 0.0
C2526 C 0.71774 0.11965 0.18292 0.0
C2527 C 0.70218 0.12962 0.18428 0.0
C2528 C 0.72883 0.11753 0.19749 0.0
C2529 C 0.74056 0.13956 0.23895 0.0
H2530 H 0.76639 0.09644 0.24824 0.0
C2531 C 0.79068 0.13551 0.29569 0.0
C2532 C 0.80704 0.12799 0.29132 0.0
C2533 C 0.7762 0.13361 0.28445 0.0
C2534 C 0.75932 0.10859 0.24577 0.0
H2535 H 0.68573 0.14451 0.20236 0.0
H2536 H 0.705 0.14068 0.22772 0.0
H2537 H 0.74407 0.09697 0.22503 0.0
H2538 H 0.82068 0.1118 0.27206 0.0
H2539 H 0.79556 0.10872 0.25245 0.0
H2540 H 0.75605 0.15135 0.25931 0.0
C2541 C 0.70876 0.13476 0.21529 0.0
C2542 C 0.74654 0.1089 0.23248 0.0
C2543 C 0.69768 0.13688 0.20074 0.0
C2544 C 0.80832 0.11783 0.27586 0.0
C2545 C 0.79385 0.11596 0.26463 0.0
C2546 C 0.75332 0.13927 0.25221 0.0
C2547 C 0.72461 0.12531 0.21376 0.0
C2548 C 0.73719 0.12446 0.22876 0.0
C2549 C 0.77773 0.12415 0.26859 0.0
C2550 C 0.76304 0.12385 0.25562 0.0
H2551 H 0.72162 0.11384 0.17048 0.0
H2552 H 0.74102 0.11032 0.19582 0.0
H2553 H 0.7338 0.15185 0.23626 0.0
H2554 H 0.78914 0.14329 0.30755 0.0
H2555 H 0.76387 0.13983 0.28804 0.0
C2556 C 0.87386 0.80999 0.27624 0.0
C2557 C 0.86372 0.8083 0.29166 0.0
C2558 C 0.8757 0.79579 0.26464 0.0
C2559 C 0.85227 0.75562 0.25137 0.0
H2560 H 0.89481 0.74577 0.22488 0.0
C2561 C 0.85466 0.69908 0.20122 0.0
C2562 C 0.86224 0.70301 0.18478 0.0
C2563 C 0.8568 0.71048 0.21549 0.0
C2564 C 0.88281 0.74843 0.23212 0.0
H2565 H 0.84843 0.78997 0.30744 0.0
H2566 H 0.85181 0.76523 0.28732 0.0
H2567 H 0.89522 0.76829 0.24792 0.0
H2568 H 0.87863 0.72174 0.1707 0.0
H2569 H 0.88213 0.74178 0.19556 0.0
H2570 H 0.83972 0.73612 0.23542 0.0
C2571 C 0.85803 0.77765 0.28403 0.0
C2572 C 0.88305 0.76132 0.24531 0.0
C2573 C 0.85617 0.79183 0.2956 0.0
C2574 C 0.87259 0.7183 0.18316 0.0
C2575 C 0.87468 0.72976 0.19745 0.0
C2576 C 0.85203 0.74278 0.23821 0.0
C2577 C 0.86748 0.77958 0.26822 0.0
C2578 C 0.86773 0.76514 0.25499 0.0
C2579 C 0.86652 0.72614 0.21368 0.0
C2580 C 0.86724 0.73912 0.22833 0.0
H2581 H 0.8799 0.82245 0.27278 0.0
H2582 H 0.88295 0.79776 0.25252 0.0
H2583 H 0.84015 0.75848 0.25832 0.0
H2584 H 0.84679 0.68731 0.20304 0.0
H2585 H 0.85062 0.70714 0.22792 0.0
C2586 C 0.19942 0.85479 0.29193 0.0
C2587 C 0.18335 0.86378 0.28974 0.0
C2588 C 0.21318 0.85717 0.27992 0.0
C2589 C 0.22021 0.86999 0.23373 0.0
H2590 H 0.26964 0.86956 0.24664 0.0
C2591 C 0.27414 0.87561 0.181 0.0
C2592 C 0.28823 0.86364 0.18241 0.0
C2593 C 0.26246 0.87801 0.19501 0.0
C2594 C 0.25589 0.86961 0.24283 0.0
H2595 H 0.1696 0.88313 0.27372 0.0
H2596 H 0.19365 0.88741 0.25299 0.0
H2597 H 0.24717 0.86961 0.26969 0.0
H2598 H 0.30144 0.84537 0.20005 0.0
H2599 H 0.28093 0.8494 0.22436 0.0
H2600 H 0.22881 0.86961 0.20694 0.0
C2601 C 0.19546 0.87822 0.26377 0.0
C2602 C 0.24302 0.86964 0.25603 0.0
C2603 C 0.1817 0.87582 0.27573 0.0
C2604 C 0.29074 0.85468 0.19846 0.0
C2605 C 0.27902 0.85706 0.21247 0.0
C2606 C 0.23304 0.86995 0.22057 0.0
C2607 C 0.21121 0.86863 0.26548 0.0
C2608 C 0.22503 0.86969 0.25162 0.0
C2609 C 0.26453 0.86849 0.21078 0.0
C2610 C 0.25103 0.86962 0.22493 0.0
H2611 H 0.20119 0.84543 0.30256 0.0
H2612 H 0.22509 0.84947 0.28156 0.0
H2613 H 0.20649 0.86967 0.22984 0.0
H2614 H 0.27188 0.88289 0.16893 0.0
H2615 H 0.25163 0.88717 0.1934 0.0
C2616 C 0.11833 0.81094 0.719 0.0
C2617 C 0.12702 0.80891 0.70276 0.0
C2618 C 0.11619 0.79655 0.73033 0.0
C2619 C 0.13691 0.75406 0.74062 0.0
H2620 H 0.09536 0.74644 0.76929 0.0
C2621 C 0.13359 0.6965 0.78975 0.0
C2622 C 0.12723 0.70069 0.80664 0.0
C2623 C 0.13134 0.70824 0.77572 0.0
C2624 C 0.10708 0.74845 0.76143 0.0
H2625 H 0.13942 0.78987 0.68534 0.0
H2626 H 0.13557 0.76488 0.70502 0.0
H2627 H 0.09542 0.76993 0.74723 0.0
H2628 H 0.11279 0.72024 0.82176 0.0
H2629 H 0.10915 0.74074 0.79742 0.0
H2630 H 0.14879 0.73298 0.75502 0.0
C2631 C 0.13071 0.77766 0.70913 0.0
C2632 C 0.10711 0.7619 0.7488 0.0
C2633 C 0.13286 0.79201 0.69783 0.0
C2634 C 0.11791 0.71656 0.80896 0.0
C2635 C 0.11571 0.7283 0.79495 0.0
C2636 C 0.1369 0.74067 0.75324 0.0
C2637 C 0.12269 0.77982 0.72566 0.0
C2638 C 0.12209 0.76494 0.73837 0.0
C2639 C 0.12271 0.72445 0.77825 0.0
C2640 C 0.12206 0.73781 0.76392 0.0
H2641 H 0.11364 0.82375 0.72321 0.0
H2642 H 0.11006 0.79867 0.74303 0.0
H2643 H 0.14878 0.75625 0.73301 0.0
H2644 H 0.14069 0.68434 0.78741 0.0
H2645 H 0.13661 0.70472 0.76293 0.0
C2646 C 0.29469 0.13432 0.78948 0.0
C2647 C 0.28979 0.12716 0.80587 0.0
C2648 C 0.28384 0.13232 0.77474 0.0
C2649 C 0.24566 0.10736 0.75703 0.0
H2650 H 0.23701 0.15035 0.73074 0.0
C2651 C 0.18364 0.11842 0.71465 0.0
C2652 C 0.18495 0.12865 0.69923 0.0
C2653 C 0.19823 0.11607 0.72562 0.0
C2654 C 0.2395 0.13812 0.73768 0.0
H2655 H 0.26992 0.11159 0.81932 0.0
H2656 H 0.25095 0.1083 0.79367 0.0
H2657 H 0.25937 0.15005 0.75368 0.0
H2658 H 0.20296 0.14366 0.68285 0.0
H2659 H 0.22844 0.13939 0.70195 0.0
H2660 H 0.22542 0.09558 0.74126 0.0
C2661 C 0.26327 0.11534 0.79219 0.0
C2662 C 0.25233 0.13795 0.75087 0.0
C2663 C 0.27412 0.11732 0.80695 0.0
C2664 C 0.20142 0.13582 0.69468 0.0
C2665 C 0.21602 0.13345 0.70567 0.0
C2666 C 0.23281 0.10753 0.74381 0.0
C2667 C 0.26783 0.12312 0.77601 0.0
C2668 C 0.25536 0.12266 0.7609 0.0
C2669 C 0.2145 0.12385 0.72146 0.0
C2670 C 0.22937 0.12301 0.73419 0.0
H2671 H 0.30673 0.14184 0.78809 0.0
H2672 H 0.28787 0.13823 0.76239 0.0
H2673 H 0.24786 0.0953 0.76435 0.0
H2674 H 0.17121 0.11264 0.71858 0.0
H2675 H 0.19653 0.10875 0.73776 0.0
C2676 C 0.85893 0.1981 0.70039 0.0
C2677 C 0.86468 0.18104 0.70481 0.0
C2678 C 0.86162 0.21217 0.71193 0.0
C2679 C 0.88643 0.22642 0.75167 0.0
H2680 H 0.84588 0.2567 0.75857 0.0
C2681 C 0.87687 0.27185 0.81236 0.0
C2682 C 0.86817 0.28801 0.80976 0.0
C2683 C 0.87896 0.26002 0.79837 0.0
C2684 C 0.85746 0.24859 0.75661 0.0
H2685 H 0.8784 0.16558 0.72462 0.0
H2686 H 0.8828 0.19009 0.74488 0.0
H2687 H 0.84485 0.23381 0.73626 0.0
H2688 H 0.85605 0.30497 0.79013 0.0
H2689 H 0.85992 0.28448 0.7658 0.0
H2690 H 0.89884 0.24107 0.77242 0.0
C2691 C 0.87639 0.19262 0.73237 0.0
C2692 C 0.85686 0.23544 0.74379 0.0
C2693 C 0.87376 0.17853 0.72079 0.0
C2694 C 0.86255 0.29251 0.79267 0.0
C2695 C 0.86471 0.28074 0.77872 0.0
C2696 C 0.88702 0.23961 0.76455 0.0
C2697 C 0.87007 0.20953 0.72821 0.0
C2698 C 0.87128 0.22411 0.74123 0.0
C2699 C 0.87246 0.26415 0.78151 0.0
C2700 C 0.87248 0.25077 0.76722 0.0
H2701 H 0.85209 0.20058 0.6881 0.0
H2702 H 0.85689 0.22511 0.70818 0.0
H2703 H 0.89783 0.21803 0.74989 0.0
H2704 H 0.88137 0.26797 0.82534 0.0
H2705 H 0.88491 0.2473 0.80097 0.0
C2706 C 0.71447 0.87129 0.8084 0.0
C2707 C 0.69916 0.86093 0.807 0.0
C2708 C 0.72605 0.87291 0.79416 0.0
C2709 C 0.73953 0.84917 0.75404 0.0
H2710 H 0.76541 0.89209 0.74408 0.0
C2711 C 0.79033 0.85238 0.69773 0.0
C2712 C 0.80654 0.86037 0.70186 0.0
C2713 C 0.77587 0.85412 0.709 0.0
C2714 C 0.75835 0.87998 0.74675 0.0
H2715 H 0.68365 0.84485 0.7891 0.0
H2716 H 0.70372 0.84787 0.76427 0.0
H2717 H 0.74242 0.89224 0.76656 0.0
H2718 H 0.81994 0.87706 0.72087 0.0
H2719 H 0.79482 0.87991 0.74055 0.0
H2720 H 0.75563 0.83681 0.73452 0.0
C2721 C 0.70694 0.85446 0.77651 0.0
C2722 C 0.74518 0.88006 0.75964 0.0
C2723 C 0.69537 0.85282 0.79075 0.0
C2724 C 0.8077 0.87068 0.71724 0.0
C2725 C 0.79324 0.87241 0.7285 0.0
C2726 C 0.75267 0.84909 0.74117 0.0
C2727 C 0.72259 0.86425 0.77815 0.0
C2728 C 0.73573 0.8646 0.76359 0.0
C2729 C 0.77724 0.8639 0.72469 0.0
C2730 C 0.7624 0.86443 0.7375 0.0
H2731 H 0.71785 0.87774 0.82068 0.0
H2732 H 0.73805 0.88041 0.79596 0.0
H2733 H 0.73275 0.83695 0.75693 0.0
H2734 H 0.78887 0.84444 0.68595 0.0
H2735 H 0.76365 0.84762 0.70552 0.0
C2736 C 0.27695 0.11521 0.18394 0.0
C2737 C 0.29034 0.12799 0.18473 0.0
C2738 C 0.26552 0.11273 0.19812 0.0
C2739 C 0.25824 0.12295 0.24546 0.0
H2740 H 0.20905 0.11985 0.23205 0.0
C2741 C 0.20034 0.13694 0.29317 0.0
C2742 C 0.18474 0.12712 0.29109 0.0
C2743 C 0.21444 0.13467 0.28155 0.0
C2744 C 0.22273 0.12038 0.23607 0.0
H2745 H 0.30271 0.14761 0.20149 0.0
H2746 H 0.28255 0.14347 0.22614 0.0
H2747 H 0.23156 0.12011 0.20938 0.0
H2748 H 0.17226 0.10642 0.27577 0.0
H2749 H 0.19691 0.10234 0.25572 0.0
H2750 H 0.24923 0.12361 0.27223 0.0
C2751 C 0.28102 0.13523 0.21459 0.0
C2752 C 0.23567 0.12053 0.22304 0.0
C2753 C 0.29254 0.13766 0.2004 0.0
C2754 C 0.18396 0.11437 0.27766 0.0
C2755 C 0.19807 0.11208 0.26609 0.0
C2756 C 0.24525 0.1228 0.25854 0.0
C2757 C 0.26711 0.12304 0.21343 0.0
C2758 C 0.25358 0.12192 0.22754 0.0
C2759 C 0.2133 0.12252 0.26761 0.0
C2760 C 0.22732 0.12162 0.25397 0.0
H2761 H 0.27501 0.10734 0.17219 0.0
H2762 H 0.25519 0.10295 0.19695 0.0
H2763 H 0.27193 0.12386 0.24937 0.0
H2764 H 0.20143 0.14686 0.30337 0.0
H2765 H 0.22592 0.14302 0.28302 0.0
C2766 C 0.86093 0.29327 0.19872 0.0
C2767 C 0.86553 0.28866 0.18138 0.0
C2768 C 0.86356 0.28145 0.21255 0.0
C2769 C 0.88595 0.24001 0.22559 0.0
H2770 H 0.8455 0.23507 0.25635 0.0
C2771 C 0.87397 0.1794 0.27042 0.0
C2772 C 0.8658 0.18221 0.2868 0.0
C2773 C 0.87639 0.19338 0.25866 0.0
C2774 C 0.85706 0.23646 0.24811 0.0
H2775 H 0.87736 0.2683 0.16514 0.0
H2776 H 0.8817 0.24753 0.18931 0.0
H2777 H 0.84552 0.2578 0.23385 0.0
H2778 H 0.85478 0.20215 0.30412 0.0
H2779 H 0.85922 0.22649 0.28375 0.0
H2780 H 0.8973 0.21834 0.23976 0.0
C2781 C 0.87619 0.26038 0.1922 0.0
C2782 C 0.85707 0.24951 0.23519 0.0
C2783 C 0.87362 0.27226 0.17833 0.0
C2784 C 0.86087 0.19945 0.2915 0.0
C2785 C 0.86337 0.21341 0.2798 0.0
C2786 C 0.88595 0.22691 0.23858 0.0
C2787 C 0.87079 0.2647 0.20938 0.0
C2788 C 0.87145 0.25139 0.2237 0.0
C2789 C 0.87076 0.21048 0.26308 0.0
C2790 C 0.87143 0.22494 0.24991 0.0
H2791 H 0.85493 0.3059 0.2016 0.0
H2792 H 0.8596 0.28531 0.22571 0.0
H2793 H 0.8973 0.24124 0.21703 0.0
H2794 H 0.87795 0.16629 0.26639 0.0
H2795 H 0.88201 0.19065 0.24584 0.0
C2796 C 0.70342 0.86086 0.19888 0.0
C2797 C 0.70662 0.86764 0.18192 0.0
C2798 C 0.71521 0.86402 0.21264 0.0
C2799 C 0.76189 0.87423 0.22 0.0
H2800 H 0.74716 0.87906 0.26869 0.0
C2801 C 0.81258 0.87871 0.27594 0.0
C2802 C 0.80963 0.86733 0.29029 0.0
C2803 C 0.79931 0.88192 0.26362 0.0
C2804 C 0.75145 0.87768 0.25516 0.0
H2805 H 0.72437 0.88384 0.16642 0.0
H2806 H 0.74484 0.88953 0.19053 0.0
H2807 H 0.72509 0.87935 0.24523 0.0
H2808 H 0.79001 0.85113 0.30335 0.0
H2809 H 0.7669 0.85665 0.28173 0.0
H2810 H 0.78817 0.87221 0.22988 0.0
C2811 C 0.73334 0.88147 0.19306 0.0
C2812 C 0.73883 0.87784 0.24172 0.0
C2813 C 0.72156 0.87827 0.17926 0.0
C2814 C 0.79279 0.85992 0.29245 0.0
C2815 C 0.77949 0.86316 0.2801 0.0
C2816 C 0.77448 0.87413 0.2334 0.0
C2817 C 0.73048 0.8741 0.20983 0.0
C2818 C 0.74389 0.87581 0.224 0.0
C2819 C 0.78275 0.87387 0.26534 0.0
C2820 C 0.76939 0.87558 0.25114 0.0
H2821 H 0.69203 0.85266 0.20147 0.0
H2822 H 0.71268 0.85796 0.22531 0.0
H2823 H 0.76624 0.87232 0.20654 0.0
H2824 H 0.82532 0.88482 0.27393 0.0
H2825 H 0.80212 0.89048 0.25254 0.0
C2826 C 0.1123 0.71918 0.17824 0.0
C2827 C 0.12386 0.70487 0.18054 0.0
C2828 C 0.10934 0.73112 0.19194 0.0
C2829 C 0.11509 0.73784 0.2401 0.0
H2830 H 0.11805 0.7872 0.22712 0.0
C2831 C 0.1325 0.79294 0.28944 0.0
C2832 C 0.1246 0.80959 0.28738 0.0
C2833 C 0.12933 0.77949 0.27727 0.0
C2834 C 0.11686 0.7735 0.23098 0.0
H2835 H 0.14079 0.69153 0.19939 0.0
H2836 H 0.1358 0.71245 0.22313 0.0
H2837 H 0.11792 0.76478 0.20422 0.0
H2838 H 0.10645 0.82482 0.27131 0.0
H2839 H 0.10085 0.8013 0.25018 0.0
H2840 H 0.1145 0.74661 0.26693 0.0
C2841 C 0.12889 0.71436 0.21078 0.0
C2842 C 0.11678 0.76063 0.21783 0.0
C2843 C 0.13185 0.70242 0.19709 0.0
C2844 C 0.11289 0.81223 0.27324 0.0
C2845 C 0.10973 0.79877 0.26107 0.0
C2846 C 0.11517 0.75073 0.25327 0.0
C2847 C 0.11785 0.72902 0.20827 0.0
C2848 C 0.11619 0.74264 0.22224 0.0
C2849 C 0.11817 0.78236 0.26276 0.0
C2850 C 0.11634 0.76869 0.24886 0.0
H2851 H 0.10579 0.72141 0.16572 0.0
H2852 H 0.10055 0.74214 0.18968 0.0
H2853 H 0.11436 0.7241 0.24392 0.0
H2854 H 0.14155 0.79039 0.30019 0.0
H2855 H 0.13619 0.76707 0.27887 0.0
C2856 C 0.20162 0.85537 0.6943 0.0
C2857 C 0.18553 0.86342 0.69875 0.0
C2858 C 0.21632 0.85706 0.7053 0.0
C2859 C 0.2345 0.8825 0.7431 0.0
H2860 H 0.25902 0.83883 0.75336 0.0
C2861 C 0.27623 0.87201 0.80586 0.0
C2862 C 0.29142 0.86144 0.80481 0.0
C2863 C 0.2652 0.87407 0.79124 0.0
C2864 C 0.25256 0.85123 0.75044 0.0
H2865 H 0.17262 0.88031 0.7179 0.0
H2866 H 0.19812 0.88307 0.73709 0.0
H2867 H 0.23647 0.83936 0.73059 0.0
H2868 H 0.3073 0.84542 0.78721 0.0
H2869 H 0.28812 0.84916 0.76173 0.0
H2870 H 0.25034 0.89424 0.76331 0.0
C2871 C 0.19944 0.87555 0.72503 0.0
C2872 C 0.23961 0.85153 0.73735 0.0
C2873 C 0.18475 0.87386 0.71405 0.0
C2874 C 0.29564 0.85354 0.78858 0.0
C2875 C 0.2846 0.85561 0.77396 0.0
C2876 C 0.24747 0.88219 0.75621 0.0
C2877 C 0.21529 0.86687 0.72099 0.0
C2878 C 0.23022 0.86709 0.73371 0.0
C2879 C 0.26909 0.86565 0.7752 0.0
C2880 C 0.25645 0.86648 0.76023 0.0
H2881 H 0.20278 0.84733 0.68256 0.0
H2882 H 0.22842 0.85044 0.70166 0.0
H2883 H 0.22771 0.89477 0.74043 0.0
H2884 H 0.27255 0.87833 0.81811 0.0
H2885 H 0.25326 0.88175 0.79272 0.0
C2886 C 0.13334 0.29752 0.78922 0.0
C2887 C 0.12695 0.29336 0.80611 0.0
C2888 C 0.13106 0.28578 0.7752 0.0
C2889 C 0.10688 0.24554 0.76089 0.0
H2890 H 0.14893 0.23741 0.73311 0.0
C2891 C 0.11828 0.18274 0.71894 0.0
C2892 C 0.12731 0.18459 0.70288 0.0
C2893 C 0.1161 0.19721 0.73017 0.0
C2894 C 0.13696 0.23969 0.74052 0.0
H2895 H 0.11233 0.27393 0.82121 0.0
H2896 H 0.10862 0.25344 0.79689 0.0
H2897 H 0.14869 0.26086 0.7549 0.0
H2898 H 0.1403 0.20339 0.68562 0.0
H2899 H 0.13634 0.22853 0.70509 0.0
H2900 H 0.09534 0.22399 0.74671 0.0
C2901 C 0.11525 0.26584 0.79441 0.0
C2902 C 0.13681 0.25318 0.75302 0.0
C2903 C 0.11749 0.27758 0.80842 0.0
C2904 C 0.13347 0.20139 0.698 0.0
C2905 C 0.13127 0.21582 0.70918 0.0
C2906 C 0.10704 0.23199 0.74837 0.0
C2907 C 0.12236 0.26961 0.77774 0.0
C2908 C 0.12184 0.25617 0.76349 0.0
C2909 C 0.12287 0.21384 0.72555 0.0
C2910 C 0.12215 0.22882 0.73816 0.0
H2911 H 0.14054 0.30962 0.7869 0.0
H2912 H 0.13641 0.28924 0.76244 0.0
H2913 H 0.09506 0.24763 0.76859 0.0
H2914 H 0.11334 0.17002 0.72312 0.0
H2915 H 0.10968 0.19522 0.74276 0.0
C2916 C 0.71443 0.11281 0.80744 0.0
C2917 C 0.70133 0.12591 0.80677 0.0
C2918 C 0.72578 0.1102 0.79322 0.0
C2919 C 0.7332 0.12064 0.74596 0.0
H2920 H 0.78237 0.11717 0.75936 0.0
C2921 C 0.79112 0.13509 0.69846 0.0
C2922 C 0.80679 0.12542 0.70058 0.0
C2923 C 0.77697 0.13259 0.70998 0.0
C2924 C 0.7687 0.11778 0.75533 0.0
H2925 H 0.68936 0.14592 0.79016 0.0
H2926 H 0.70935 0.14152 0.76545 0.0
H2927 H 0.75986 0.1173 0.78202 0.0
H2928 H 0.81937 0.10466 0.71576 0.0
H2929 H 0.79464 0.10014 0.7356 0.0
H2930 H 0.74221 0.12151 0.7192 0.0
C2931 C 0.71073 0.13316 0.77694 0.0
C2932 C 0.75576 0.11787 0.76836 0.0
C2933 C 0.69932 0.13574 0.79117 0.0
C2934 C 0.80761 0.11253 0.71388 0.0
C2935 C 0.79345 0.10998 0.72532 0.0
C2936 C 0.74619 0.12054 0.73288 0.0
C2937 C 0.72437 0.12066 0.77798 0.0
C2938 C 0.73787 0.11943 0.76387 0.0
C2939 C 0.77815 0.12032 0.72383 0.0
C2940 C 0.76411 0.11924 0.73744 0.0
H2941 H 0.71623 0.10482 0.81914 0.0
H2942 H 0.73592 0.10021 0.7943 0.0
H2943 H 0.71952 0.12169 0.74207 0.0
H2944 H 0.79001 0.14511 0.68835 0.0
H2945 H 0.76543 0.14087 0.70852 0.0
C2946 C 0.8583 0.69565 0.79204 0.0
C2947 C 0.86449 0.70062 0.80879 0.0
C2948 C 0.86076 0.70668 0.77749 0.0
C2949 C 0.88536 0.74598 0.76156 0.0
H2950 H 0.84368 0.75319 0.73288 0.0
C2951 C 0.87414 0.8077 0.71836 0.0
C2952 C 0.86502 0.80573 0.70234 0.0
C2953 C 0.87648 0.79331 0.72964 0.0
C2954 C 0.85556 0.75113 0.74052 0.0
H2955 H 0.87885 0.7208 0.82316 0.0
H2956 H 0.88287 0.74008 0.79789 0.0
H2957 H 0.84353 0.73065 0.75563 0.0
H2958 H 0.85212 0.78678 0.68518 0.0
H2959 H 0.85637 0.76173 0.70477 0.0
H2960 H 0.89718 0.76688 0.74668 0.0
C2961 C 0.87628 0.72757 0.79594 0.0
C2962 C 0.85548 0.73818 0.75358 0.0
C2963 C 0.87385 0.71654 0.81048 0.0
C2964 C 0.85903 0.78886 0.6975 0.0
C2965 C 0.8614 0.77449 0.70876 0.0
C2966 C 0.88543 0.75898 0.74848 0.0
C2967 C 0.86945 0.72295 0.77936 0.0
C2968 C 0.87028 0.73561 0.76443 0.0
C2969 C 0.86979 0.77662 0.72513 0.0
C2970 C 0.87044 0.76186 0.73798 0.0
H2971 H 0.85118 0.68342 0.79019 0.0
H2972 H 0.8556 0.70259 0.76483 0.0
H2973 H 0.89706 0.74417 0.76953 0.0
H2974 H 0.87897 0.82048 0.72252 0.0
H2975 H 0.88288 0.79544 0.74222 0.0
C2976 C 0.27142 0.18185 0.11749 0.0
C2977 C 0.28734 0.18371 0.1268 0.0
C2978 C 0.2602 0.1963 0.11516 0.0
C2979 C 0.2493 0.23858 0.13603 0.0
H2980 H 0.22175 0.24644 0.09371 0.0
C2981 C 0.19966 0.2956 0.13204 0.0
C2982 C 0.18295 0.29117 0.12536 0.0
C2983 C 0.21392 0.28415 0.1299 0.0
C2984 C 0.2293 0.24437 0.10564 0.0
H2985 H 0.30433 0.20251 0.14014 0.0
H2986 H 0.28485 0.22761 0.13594 0.0
H2987 H 0.24392 0.22308 0.0942 0.0
H2988 H 0.16843 0.27156 0.11038 0.0
H2989 H 0.19318 0.25156 0.10692 0.0
H2990 H 0.23447 0.25947 0.14767 0.0
C2991 C 0.28089 0.21492 0.13074 0.0
C2992 C 0.24199 0.23099 0.10592 0.0
C2993 C 0.29208 0.20051 0.13309 0.0
C2994 C 0.18107 0.27541 0.11576 0.0
C2995 C 0.19532 0.26396 0.11367 0.0
C2996 C 0.23663 0.25191 0.13577 0.0
C2997 C 0.26466 0.21291 0.12206 0.0
C2998 C 0.252 0.22783 0.12119 0.0
C2999 C 0.21182 0.268 0.12105 0.0
C3000 C 0.22633 0.25484 0.12065 0.0
H3001 H 0.26736 0.16913 0.11244 0.0
H3002 H 0.24772 0.19428 0.10853 0.0
H3003 H 0.25657 0.23631 0.14812 0.0
H3004 H 0.20165 0.3077 0.13935 0.0
H3005 H 0.22654 0.28781 0.13548 0.0
C3006 C 0.20019 0.69777 0.85365 0.0
C3007 C 0.1842 0.70017 0.8627 0.0
C3008 C 0.21416 0.70957 0.85602 0.0
C3009 C 0.22194 0.75561 0.86882 0.0
H3010 H 0.27117 0.742 0.86865 0.0
C3011 C 0.27639 0.8077 0.87465 0.0
C3012 C 0.29051 0.80614 0.86277 0.0
C3013 C 0.2646 0.79377 0.87705 0.0
C3014 C 0.25748 0.746 0.86862 0.0
H3015 H 0.17079 0.71634 0.88212 0.0
H3016 H 0.19516 0.73672 0.88635 0.0
H3017 H 0.24834 0.71925 0.86857 0.0
H3018 H 0.30373 0.78832 0.84471 0.0
H3019 H 0.283 0.76415 0.84872 0.0
H3020 H 0.23092 0.78228 0.86846 0.0
C3021 C 0.19677 0.72593 0.87714 0.0
C3022 C 0.24441 0.73298 0.86858 0.0
C3023 C 0.18282 0.71418 0.87476 0.0
C3024 C 0.293 0.79001 0.85395 0.0
C3025 C 0.28115 0.77609 0.85632 0.0
C3026 C 0.23496 0.76859 0.86884 0.0
C3027 C 0.21246 0.72401 0.8675 0.0
C3028 C 0.22648 0.73765 0.86857 0.0
C3029 C 0.26658 0.77796 0.8676 0.0
C3030 C 0.25289 0.76397 0.86862 0.0
H3031 H 0.20176 0.68712 0.84428 0.0
H3032 H 0.22601 0.70777 0.84829 0.0
H3033 H 0.20827 0.7597 0.86844 0.0
H3034 H 0.27417 0.81983 0.88183 0.0
H3035 H 0.25373 0.79551 0.88612 0.0
C3036 C 0.27281 0.1803 0.87575 0.0
C3037 C 0.28706 0.1823 0.86408 0.0
C3038 C 0.26086 0.19405 0.87838 0.0
C3039 C 0.25383 0.24199 0.8716 0.0
H3040 H 0.20457 0.22863 0.86964 0.0
C3041 C 0.19819 0.29115 0.85548 0.0
C3042 C 0.18174 0.28908 0.86377 0.0
C3043 C 0.21168 0.27894 0.85823 0.0
C3044 C 0.21824 0.2326 0.87055 0.0
H3045 H 0.30027 0.20067 0.84659 0.0
H3046 H 0.27931 0.22457 0.85104 0.0
H3047 H 0.22714 0.20589 0.8696 0.0
H3048 H 0.16691 0.27286 0.88207 0.0
H3049 H 0.19055 0.25162 0.88696 0.0
H3050 H 0.24487 0.26876 0.87218 0.0
C3051 C 0.27747 0.2124 0.85828 0.0
C3052 C 0.2312 0.21954 0.87051 0.0
C3053 C 0.28945 0.19864 0.85565 0.0
C3054 C 0.17935 0.27481 0.87537 0.0
C3055 C 0.19287 0.26258 0.87811 0.0
C3056 C 0.24085 0.25507 0.87166 0.0
C3057 C 0.26284 0.21014 0.86941 0.0
C3058 C 0.24916 0.22408 0.87081 0.0
C3059 C 0.20909 0.26435 0.86934 0.0
C3060 C 0.2229 0.25053 0.87089 0.0
H3061 H 0.27062 0.16798 0.88263 0.0
H3062 H 0.24991 0.192 0.88729 0.0
H3063 H 0.26754 0.24591 0.87209 0.0
H3064 H 0.20057 0.30199 0.8465 0.0
H3065 H 0.22392 0.2806 0.85111 0.0
C3066 C 0.72327 0.17668 0.87395 0.0
C3067 C 0.70672 0.17985 0.86623 0.0
C3068 C 0.73519 0.19052 0.87649 0.0
C3069 C 0.74555 0.23405 0.85805 0.0
H3070 H 0.77726 0.23798 0.89794 0.0
C3071 C 0.79452 0.29114 0.86252 0.0
C3072 C 0.81195 0.28661 0.8669 0.0
C3073 C 0.78085 0.27912 0.86506 0.0
C3074 C 0.76854 0.23699 0.88669 0.0
H3075 H 0.68931 0.20025 0.85619 0.0
H3076 H 0.70996 0.22428 0.86083 0.0
H3077 H 0.7547 0.21494 0.8977 0.0
H3078 H 0.8285 0.26621 0.87823 0.0
H3079 H 0.80461 0.24512 0.88239 0.0
H3080 H 0.75948 0.25574 0.84682 0.0
C3081 C 0.71391 0.21106 0.86452 0.0
C3082 C 0.75563 0.22381 0.88655 0.0
C3083 C 0.70205 0.19727 0.86191 0.0
C3084 C 0.81523 0.27011 0.87469 0.0
C3085 C 0.80153 0.25804 0.87715 0.0
C3086 C 0.7584 0.24716 0.85818 0.0
C3087 C 0.73078 0.20779 0.87142 0.0
C3088 C 0.74404 0.22217 0.87218 0.0
C3089 C 0.78426 0.26226 0.87195 0.0
C3090 C 0.77009 0.24877 0.87246 0.0
H3091 H 0.72728 0.16343 0.87746 0.0
H3092 H 0.74813 0.18754 0.88174 0.0
H3093 H 0.7371 0.23292 0.84659 0.0
H3094 H 0.79147 0.30384 0.85675 0.0
H3095 H 0.76762 0.28293 0.86128 0.0
C3096 C 0.81079 0.71979 0.87533 0.0
C3097 C 0.80873 0.70355 0.86665 0.0
C3098 C 0.79641 0.73113 0.8775 0.0
C3099 C 0.75379 0.74113 0.85682 0.0
H3100 H 0.74652 0.7706 0.89792 0.0
C3101 C 0.696 0.7898 0.85979 0.0
C3102 C 0.70015 0.80692 0.86557 0.0
C3103 C 0.70785 0.77593 0.86231 0.0
C3104 C 0.74843 0.7625 0.88632 0.0
H3105 H 0.78967 0.68604 0.85442 0.0
H3106 H 0.76469 0.70568 0.85838 0.0
H3107 H 0.77005 0.74857 0.89806 0.0
H3108 H 0.71974 0.82262 0.87932 0.0
H3109 H 0.74045 0.79852 0.88344 0.0
H3110 H 0.73255 0.75522 0.84489 0.0
C3111 C 0.77748 0.70985 0.86314 0.0
C3112 C 0.76191 0.7499 0.8864 0.0
C3113 C 0.79182 0.69856 0.86093 0.0
C3114 C 0.71609 0.80964 0.87464 0.0
C3115 C 0.72796 0.79577 0.87711 0.0
C3116 C 0.74038 0.75369 0.85673 0.0
C3117 C 0.77968 0.72643 0.87108 0.0
C3118 C 0.76481 0.73917 0.87159 0.0
C3119 C 0.72415 0.77884 0.87063 0.0
C3120 C 0.73762 0.76464 0.87141 0.0
H3121 H 0.82362 0.72404 0.87992 0.0
H3122 H 0.79857 0.74388 0.88356 0.0
H3123 H 0.75588 0.73332 0.84505 0.0
H3124 H 0.68377 0.78715 0.85292 0.0
H3125 H 0.70437 0.76296 0.85745 0.0
C3126 C 0.78976 0.69509 0.12617 0.0
C3127 C 0.80703 0.70168 0.12693 0.0
C3128 C 0.77564 0.70638 0.12247 0.0
C3129 C 0.74759 0.73437 0.12693 0.0
H3130 H 0.75511 0.77798 0.1014 0.0
C3131 C 0.70538 0.7953 0.14028 0.0
C3132 C 0.70326 0.80832 0.12731 0.0
C3133 C 0.71605 0.78067 0.13719 0.0
C3134 C 0.75251 0.76576 0.10828 0.0
H3135 H 0.82307 0.72521 0.12437 0.0
H3136 H 0.79864 0.74489 0.1189 0.0
H3137 H 0.77716 0.755 0.10015 0.0
H3138 H 0.70995 0.81587 0.10061 0.0
H3139 H 0.72796 0.78986 0.09482 0.0
H3140 H 0.72259 0.7448 0.13441 0.0
C3141 C 0.79585 0.73097 0.12038 0.0
C3142 C 0.76539 0.75263 0.10784 0.0
C3143 C 0.80993 0.71967 0.12369 0.0
C3144 C 0.71153 0.80612 0.11092 0.0
C3145 C 0.72192 0.79123 0.10767 0.0
C3146 C 0.73451 0.74731 0.12701 0.0
C3147 C 0.77847 0.72455 0.11983 0.0
C3148 C 0.76346 0.73707 0.11777 0.0
C3149 C 0.72458 0.77844 0.12088 0.0
C3150 C 0.73709 0.7635 0.1183 0.0
H3151 H 0.78717 0.68124 0.12845 0.0
H3152 H 0.76251 0.70085 0.12185 0.0
H3153 H 0.74552 0.72263 0.13477 0.0
H3154 H 0.69929 0.7967 0.15311 0.0
H3155 H 0.71804 0.77146 0.14791 0.0
C3156 C 0.27412 0.80923 0.11303 0.0
C3157 C 0.28808 0.80763 0.12512 0.0
C3158 C 0.26239 0.7953 0.1104 0.0
C3159 C 0.25529 0.7475 0.1186 0.0
H3160 H 0.20606 0.76107 0.11877 0.0
C3161 C 0.19822 0.69943 0.13439 0.0
C3162 C 0.18213 0.70177 0.12547 0.0
C3163 C 0.21218 0.71114 0.13171 0.0
C3164 C 0.21974 0.75702 0.11838 0.0
H3165 H 0.30108 0.78974 0.14331 0.0
H3166 H 0.28045 0.76558 0.1389 0.0
H3167 H 0.22865 0.78372 0.11867 0.0
H3168 H 0.16856 0.71767 0.1059 0.0
H3169 H 0.19293 0.7379 0.10113 0.0
H3170 H 0.24624 0.72073 0.11876 0.0
C3171 C 0.27868 0.77756 0.13132 0.0
C3172 C 0.23271 0.77003 0.11831 0.0
C3173 C 0.29046 0.79147 0.13392 0.0
C3174 C 0.18066 0.71557 0.11318 0.0
C3175 C 0.19461 0.72724 0.11048 0.0
C3176 C 0.24227 0.73444 0.11869 0.0
C3177 C 0.26429 0.77945 0.11981 0.0
C3178 C 0.25065 0.76545 0.11859 0.0
C3179 C 0.21038 0.72542 0.12003 0.0
C3180 C 0.22434 0.73908 0.11873 0.0
H3181 H 0.27198 0.8214 0.10586 0.0
H3182 H 0.25162 0.79706 0.10118 0.0
H3183 H 0.269 0.74353 0.11861 0.0
H3184 H 0.19984 0.68893 0.14393 0.0
H3185 H 0.2241 0.70945 0.13937 0.0
C3186 C 0.69745 0.20199 0.13717 0.0
C3187 C 0.6998 0.18629 0.12757 0.0
C3188 C 0.70905 0.21616 0.13497 0.0
C3189 C 0.75473 0.22452 0.12117 0.0
H3190 H 0.74131 0.27376 0.12404 0.0
C3191 C 0.80664 0.27904 0.11529 0.0
C3192 C 0.80581 0.29259 0.12792 0.0
C3193 C 0.79253 0.26746 0.11301 0.0
C3194 C 0.74525 0.26006 0.1233 0.0
H3195 H 0.71551 0.1737 0.10726 0.0
H3196 H 0.73546 0.19844 0.10326 0.0
H3197 H 0.71852 0.25096 0.12392 0.0
H3198 H 0.78904 0.30504 0.14746 0.0
H3199 H 0.76452 0.28465 0.14362 0.0
H3200 H 0.78139 0.23345 0.12088 0.0
C3201 C 0.72494 0.19964 0.11282 0.0
C3202 C 0.7322 0.247 0.12324 0.0
C3203 C 0.71343 0.18547 0.11506 0.0
C3204 C 0.79017 0.29475 0.13763 0.0
C3205 C 0.77605 0.2831 0.13537 0.0
C3206 C 0.76772 0.23752 0.12122 0.0
C3207 C 0.7232 0.21497 0.12308 0.0
C3208 C 0.73681 0.22906 0.12225 0.0
C3209 C 0.77724 0.26906 0.12333 0.0
C3210 C 0.76317 0.25544 0.12237 0.0
H3211 H 0.68709 0.20309 0.14691 0.0
H3212 H 0.70738 0.22772 0.14317 0.0
H3213 H 0.7588 0.21084 0.1208 0.0
H3214 H 0.81836 0.27709 0.10741 0.0
H3215 H 0.79373 0.25701 0.10336 0.0
C3216 C 0.63078 0.79243 0.70019 0.0
C3217 C 0.62271 0.79025 0.68364 0.0
C3218 C 0.62812 0.78011 0.71362 0.0
C3219 C 0.61683 0.73337 0.71929 0.0
H3220 H 0.6154 0.74546 0.76892 0.0
C3221 C 0.61353 0.67967 0.77278 0.0
C3222 C 0.62524 0.68172 0.78701 0.0
C3223 C 0.61043 0.69357 0.76109 0.0
C3224 C 0.61585 0.74189 0.75511 0.0
H3225 H 0.60463 0.77389 0.66865 0.0
H3226 H 0.59985 0.75255 0.69215 0.0
H3227 H 0.61464 0.76885 0.74678 0.0
H3228 H 0.64235 0.70034 0.80043 0.0
H3229 H 0.63709 0.72445 0.77995 0.0
H3230 H 0.61845 0.70648 0.72754 0.0
C3231 C 0.60854 0.76361 0.6946 0.0
C3232 C 0.61542 0.75528 0.74243 0.0
C3233 C 0.61122 0.77591 0.68115 0.0
C3234 C 0.63328 0.69823 0.78961 0.0
C3235 C 0.63017 0.71213 0.77792 0.0
C3236 C 0.61725 0.72001 0.73194 0.0
C3237 C 0.61728 0.76533 0.71085 0.0
C3238 C 0.61614 0.75118 0.72437 0.0
C3239 C 0.61895 0.70987 0.76335 0.0
C3240 C 0.61701 0.7241 0.75 0.0
H3241 H 0.63969 0.80331 0.70262 0.0
H3242 H 0.63518 0.78177 0.72592 0.0
H3243 H 0.61773 0.72974 0.70552 0.0
H3244 H 0.60698 0.6672 0.77043 0.0
H3245 H 0.60149 0.69149 0.75016 0.0
C3246 C 0.31254 0.61545 0.77209 0.0
C3247 C 0.31003 0.62726 0.78616 0.0
C3248 C 0.29906 0.61239 0.75993 0.0
C3249 C 0.25118 0.61837 0.75202 0.0
H3250 H 0.26535 0.62075 0.70299 0.0
C3251 C 0.20335 0.63542 0.69554 0.0
C3252 C 0.20567 0.62715 0.67911 0.0
C3253 C 0.21521 0.63243 0.70929 0.0
C3254 C 0.26116 0.61972 0.71659 0.0
H3255 H 0.29106 0.64451 0.79886 0.0
H3256 H 0.26771 0.63934 0.77753 0.0
H3257 H 0.28769 0.62075 0.72595 0.0
H3258 H 0.2219 0.6086 0.66458 0.0
H3259 H 0.2425 0.60333 0.68864 0.0
H3260 H 0.22458 0.61783 0.74258 0.0
C3261 C 0.28004 0.63232 0.776 0.0
C3262 C 0.27399 0.61972 0.72978 0.0
C3263 C 0.2935 0.63538 0.78817 0.0
C3264 C 0.21978 0.61532 0.67699 0.0
C3265 C 0.23164 0.61234 0.69075 0.0
C3266 C 0.23833 0.61839 0.73881 0.0
C3267 C 0.28278 0.62105 0.76156 0.0
C3268 C 0.26914 0.61932 0.74764 0.0
C3269 C 0.22965 0.62109 0.70695 0.0
C3270 C 0.24319 0.61935 0.72096 0.0
H3271 H 0.32503 0.60882 0.77022 0.0
H3272 H 0.30148 0.60341 0.7491 0.0
H3273 H 0.24704 0.6178 0.76566 0.0
H3274 H 0.19261 0.64457 0.69769 0.0
H3275 H 0.21341 0.63952 0.72154 0.0
C3276 C 0.37215 0.31209 0.77012 0.0
C3277 C 0.36282 0.31005 0.786 0.0
C3278 C 0.37432 0.29785 0.75864 0.0
C3279 C 0.35319 0.25587 0.74706 0.0
H3280 H 0.39545 0.24817 0.71944 0.0
C3281 C 0.35775 0.19816 0.69856 0.0
C3282 C 0.36424 0.2022 0.68169 0.0
C3283 C 0.35977 0.21004 0.71246 0.0
C3284 C 0.38354 0.25022 0.72701 0.0
H3285 H 0.34924 0.29113 0.80263 0.0
H3286 H 0.3532 0.26632 0.78271 0.0
H3287 H 0.39502 0.27137 0.74181 0.0
H3288 H 0.37871 0.2216 0.66643 0.0
H3289 H 0.38201 0.24244 0.69066 0.0
H3290 H 0.34156 0.23504 0.73213 0.0
C3291 C 0.35852 0.27903 0.77897 0.0
C3292 C 0.38329 0.2635 0.7398 0.0
C3293 C 0.35631 0.29326 0.79042 0.0
C3294 C 0.37352 0.21807 0.67925 0.0
C3295 C 0.37549 0.22999 0.69316 0.0
C3296 C 0.35344 0.24264 0.73431 0.0
C3297 C 0.36726 0.28123 0.7628 0.0
C3298 C 0.36805 0.26654 0.74988 0.0
C3299 C 0.36828 0.22628 0.70982 0.0
C3300 C 0.36857 0.23972 0.72404 0.0
H3301 H 0.37737 0.32481 0.76628 0.0
H3302 H 0.38098 0.30003 0.74621 0.0
H3303 H 0.34113 0.25808 0.75434 0.0
H3304 H 0.35074 0.18597 0.701 0.0
H3305 H 0.35438 0.20663 0.72522 0.0
C3306 C 0.79487 0.3576 0.70055 0.0
C3307 C 0.79005 0.36488 0.68418 0.0
C3308 C 0.78401 0.35961 0.71526 0.0
C3309 C 0.74586 0.38465 0.73291 0.0
H3310 H 0.73684 0.34146 0.75873 0.0
C3311 C 0.68335 0.37331 0.77432 0.0
C3312 C 0.68447 0.36298 0.78969 0.0
C3313 C 0.69807 0.37574 0.76358 0.0
C3314 C 0.73943 0.35374 0.75193 0.0
H3315 H 0.77036 0.38073 0.67075 0.0
H3316 H 0.75136 0.38403 0.69635 0.0
H3317 H 0.7594 0.34188 0.73603 0.0
H3318 H 0.70228 0.34787 0.80624 0.0
H3319 H 0.728 0.35227 0.78753 0.0
H3320 H 0.72551 0.39636 0.74855 0.0
C3321 C 0.76362 0.37688 0.69783 0.0
C3322 C 0.75238 0.35398 0.73888 0.0
C3323 C 0.77449 0.37489 0.68311 0.0
C3324 C 0.70088 0.35579 0.79444 0.0
C3325 C 0.71562 0.35823 0.78367 0.0
C3326 C 0.73289 0.38441 0.74599 0.0
C3327 C 0.76807 0.36895 0.71398 0.0
C3328 C 0.75554 0.36934 0.72901 0.0
C3329 C 0.71429 0.36793 0.76793 0.0
C3330 C 0.72932 0.36886 0.75543 0.0
H3331 H 0.80684 0.34995 0.70194 0.0
H3332 H 0.78796 0.35358 0.72759 0.0
H3333 H 0.74816 0.39676 0.72572 0.0
H3334 H 0.67096 0.37911 0.77025 0.0
H3335 H 0.69653 0.38313 0.75146 0.0
C3336 C 0.6308 0.19656 0.28946 0.0
C3337 C 0.62349 0.19892 0.30632 0.0
C3338 C 0.62778 0.20893 0.27612 0.0
C3339 C 0.61712 0.25588 0.27089 0.0
H3340 H 0.61258 0.24379 0.22146 0.0
C3341 C 0.61217 0.30962 0.21745 0.0
C3342 C 0.623 0.30714 0.20263 0.0
C3343 C 0.60934 0.29585 0.22938 0.0
C3344 C 0.6139 0.24737 0.23521 0.0
H3345 H 0.60639 0.21566 0.32201 0.0
H3346 H 0.60101 0.23706 0.29872 0.0
H3347 H 0.61271 0.22042 0.24362 0.0
H3348 H 0.63879 0.28794 0.18843 0.0
H3349 H 0.63405 0.26414 0.2093 0.0
H3350 H 0.61876 0.28274 0.26254 0.0
C3351 C 0.60938 0.22583 0.29593 0.0
C3352 C 0.61398 0.23399 0.2479 0.0
C3353 C 0.61241 0.2135 0.30926 0.0
C3354 C 0.63042 0.29039 0.19972 0.0
C3355 C 0.62759 0.27665 0.21163 0.0
C3356 C 0.61705 0.26923 0.25823 0.0
C3357 C 0.61736 0.22392 0.27934 0.0
C3358 C 0.61582 0.23808 0.26587 0.0
C3359 C 0.61725 0.27929 0.22676 0.0
C3360 C 0.61569 0.26514 0.24022 0.0
H3361 H 0.63938 0.1855 0.2867 0.0
H3362 H 0.63424 0.20713 0.26353 0.0
H3363 H 0.61886 0.25949 0.28459 0.0
H3364 H 0.60614 0.3223 0.22006 0.0
H3365 H 0.6011 0.29824 0.24078 0.0
C3366 C 0.67892 0.61089 0.21729 0.0
C3367 C 0.68048 0.62304 0.20336 0.0
C3368 C 0.69278 0.60832 0.2291 0.0
C3369 C 0.7403 0.61594 0.23661 0.0
H3370 H 0.72633 0.61877 0.28569 0.0
C3371 C 0.78897 0.63269 0.29248 0.0
C3372 C 0.78638 0.62521 0.30925 0.0
C3373 C 0.77696 0.62967 0.27888 0.0
C3374 C 0.73049 0.61759 0.27209 0.0
H3375 H 0.69831 0.64127 0.1904 0.0
H3376 H 0.72249 0.63681 0.21113 0.0
H3377 H 0.70391 0.61822 0.26283 0.0
H3378 H 0.7695 0.60795 0.32456 0.0
H3379 H 0.7487 0.60241 0.30072 0.0
H3380 H 0.76693 0.61553 0.24591 0.0
C3381 C 0.71051 0.62925 0.21283 0.0
C3382 C 0.71761 0.61731 0.25897 0.0
C3383 C 0.69661 0.63186 0.201 0.0
C3384 C 0.77182 0.61408 0.31188 0.0
C3385 C 0.75984 0.61096 0.29822 0.0
C3386 C 0.75322 0.61612 0.24977 0.0
C3387 C 0.70856 0.61779 0.22727 0.0
C3388 C 0.72236 0.61671 0.24108 0.0
C3389 C 0.76209 0.61899 0.28165 0.0
C3390 C 0.74847 0.61719 0.26767 0.0
H3391 H 0.66679 0.60369 0.21943 0.0
H3392 H 0.69101 0.59917 0.23992 0.0
H3393 H 0.74434 0.61528 0.22294 0.0
H3394 H 0.80003 0.64135 0.28995 0.0
H3395 H 0.77901 0.63626 0.26639 0.0
C3396 C 0.35964 0.78501 0.29553 0.0
C3397 C 0.36639 0.78229 0.31259 0.0
C3398 C 0.36286 0.77283 0.28214 0.0
C3399 C 0.37275 0.72601 0.27593 0.0
H3400 H 0.37916 0.73983 0.22715 0.0
C3401 C 0.37624 0.67437 0.2205 0.0
C3402 C 0.36556 0.6779 0.20576 0.0
C3403 C 0.37969 0.68751 0.23293 0.0
C3404 C 0.37734 0.73578 0.24071 0.0
H3405 H 0.38247 0.76491 0.32868 0.0
H3406 H 0.38814 0.7437 0.30522 0.0
H3407 H 0.37933 0.76228 0.25021 0.0
H3408 H 0.35077 0.69833 0.19218 0.0
H3409 H 0.35661 0.72111 0.21394 0.0
H3410 H 0.37026 0.69959 0.26645 0.0
C3411 C 0.38015 0.75517 0.30233 0.0
C3412 C 0.37743 0.74862 0.25391 0.0
C3413 C 0.37695 0.76738 0.31575 0.0
C3414 C 0.359 0.69509 0.2034 0.0
C3415 C 0.36245 0.70822 0.21582 0.0
C3416 C 0.37265 0.71317 0.26275 0.0
C3417 C 0.37291 0.75763 0.28545 0.0
C3418 C 0.3748 0.74391 0.27163 0.0
C3419 C 0.37257 0.70449 0.23089 0.0
C3420 C 0.37461 0.71794 0.24496 0.0
H3421 H 0.3515 0.79637 0.29257 0.0
H3422 H 0.35691 0.77502 0.26934 0.0
H3423 H 0.37043 0.72195 0.28942 0.0
H3424 H 0.38165 0.66133 0.22269 0.0
H3425 H 0.38774 0.68431 0.24428 0.0
C3426 C 0.19471 0.35537 0.2882 0.0
C3427 C 0.19948 0.36344 0.3042 0.0
C3428 C 0.20546 0.35694 0.27334 0.0
C3429 C 0.24294 0.38206 0.25438 0.0
H3430 H 0.25285 0.3381 0.23028 0.0
C3431 C 0.30518 0.37098 0.21237 0.0
C3432 C 0.30407 0.36013 0.19738 0.0
C3433 C 0.29063 0.37326 0.2234 0.0
C3434 C 0.25001 0.35057 0.23661 0.0
H3435 H 0.21895 0.38023 0.31678 0.0
H3436 H 0.23771 0.3828 0.29095 0.0
H3437 H 0.23042 0.3389 0.25312 0.0
H3438 H 0.28643 0.34382 0.18183 0.0
H3439 H 0.26103 0.34794 0.20099 0.0
H3440 H 0.26288 0.39362 0.23811 0.0
C3441 C 0.22559 0.37535 0.28986 0.0
C3442 C 0.23713 0.35103 0.24973 0.0
C3443 C 0.21486 0.37378 0.30472 0.0
C3444 C 0.28783 0.35216 0.19333 0.0
C3445 C 0.27327 0.35445 0.20436 0.0
C3446 C 0.25583 0.38161 0.24123 0.0
C3447 C 0.22121 0.36665 0.2741 0.0
C3448 C 0.23365 0.36671 0.25898 0.0
C3449 C 0.27459 0.36477 0.21969 0.0
C3450 C 0.25973 0.36578 0.2324 0.0
H3451 H 0.1829 0.34742 0.28724 0.0
H3452 H 0.20157 0.3503 0.26131 0.0
H3453 H 0.24038 0.39441 0.26108 0.0
H3454 H 0.31744 0.37737 0.21592 0.0
H3455 H 0.29217 0.38114 0.2352 0.0
C3456 C 0.6828 0.61796 0.77376 0.0
C3457 C 0.68429 0.62739 0.78966 0.0
C3458 C 0.69734 0.61593 0.76267 0.0
C3459 C 0.73909 0.63778 0.75185 0.0
H3460 H 0.74718 0.59594 0.72364 0.0
C3461 C 0.79516 0.63516 0.70102 0.0
C3462 C 0.79048 0.62866 0.68429 0.0
C3463 C 0.784 0.63277 0.71546 0.0
C3464 C 0.74505 0.60774 0.73139 0.0
H3465 H 0.70259 0.64128 0.80674 0.0
H3466 H 0.72794 0.63756 0.78747 0.0
H3467 H 0.72433 0.59569 0.74629 0.0
H3468 H 0.77068 0.61382 0.6699 0.0
H3469 H 0.75118 0.60987 0.69501 0.0
H3470 H 0.75944 0.65 0.73673 0.0
C3471 C 0.71542 0.63203 0.78344 0.0
C3472 C 0.73197 0.6076 0.74435 0.0
C3473 C 0.70088 0.63408 0.79453 0.0
C3474 C 0.77472 0.61906 0.68255 0.0
C3475 C 0.76356 0.61669 0.697 0.0
C3476 C 0.75215 0.63792 0.73891 0.0
C3477 C 0.71374 0.62324 0.76722 0.0
C3478 C 0.72866 0.62271 0.75456 0.0
C3479 C 0.76789 0.62383 0.71353 0.0
C3480 C 0.75511 0.623 0.72834 0.0
H3481 H 0.67026 0.61259 0.76957 0.0
H3482 H 0.69554 0.60924 0.7502 0.0
H3483 H 0.73671 0.64975 0.75925 0.0
H3484 H 0.80726 0.64248 0.70291 0.0
H3485 H 0.78786 0.63818 0.72809 0.0
C3486 C 0.35477 0.70209 0.79288 0.0
C3487 C 0.36399 0.68619 0.79037 0.0
C3488 C 0.35696 0.71618 0.78118 0.0
C3489 C 0.36973 0.7244 0.73517 0.0
H3490 H 0.36856 0.77359 0.749 0.0
C3491 C 0.3748 0.77944 0.68343 0.0
C3492 C 0.36268 0.79337 0.68503 0.0
C3493 C 0.37731 0.76752 0.69725 0.0
C3494 C 0.36881 0.75991 0.74493 0.0
H3495 H 0.38357 0.67312 0.77413 0.0
H3496 H 0.38753 0.69772 0.75395 0.0
H3497 H 0.36883 0.75064 0.77163 0.0
H3498 H 0.34426 0.80608 0.70286 0.0
H3499 H 0.34849 0.78516 0.72683 0.0
H3500 H 0.36933 0.73353 0.70854 0.0
C3501 C 0.3783 0.69915 0.76473 0.0
C3502 C 0.36897 0.74677 0.75789 0.0
C3503 C 0.37609 0.68506 0.77638 0.0
C3504 C 0.35369 0.79551 0.70111 0.0
C3505 C 0.35618 0.78355 0.71493 0.0
C3506 C 0.36956 0.7375 0.72225 0.0
C3507 C 0.36845 0.71472 0.76673 0.0
C3508 C 0.36931 0.72885 0.75315 0.0
C3509 C 0.36774 0.7692 0.71302 0.0
C3510 C 0.36898 0.75542 0.72694 0.0
H3511 H 0.34535 0.70346 0.80351 0.0
H3512 H 0.34908 0.72793 0.78304 0.0
H3513 H 0.36962 0.71074 0.73102 0.0
H3514 H 0.38209 0.77746 0.67133 0.0
H3515 H 0.38658 0.75681 0.69547 0.0
C3516 C 0.30654 0.37586 0.7751 0.0
C3517 C 0.30549 0.36573 0.7906 0.0
C3518 C 0.29189 0.37776 0.76411 0.0
C3519 C 0.25137 0.35435 0.75218 0.0
H3520 H 0.24172 0.39661 0.72506 0.0
C3521 C 0.19642 0.35592 0.69987 0.0
C3522 C 0.20114 0.3633 0.68352 0.0
C3523 C 0.20713 0.35825 0.71467 0.0
C3524 C 0.24429 0.3847 0.7325 0.0
H3525 H 0.28782 0.35049 0.80716 0.0
H3526 H 0.26225 0.35396 0.78803 0.0
H3527 H 0.26405 0.3973 0.74824 0.0
H3528 H 0.22057 0.37953 0.6702 0.0
H3529 H 0.23931 0.38337 0.69592 0.0
H3530 H 0.232 0.3416 0.73619 0.0
C3531 C 0.27452 0.36017 0.78425 0.0
C3532 C 0.25707 0.38509 0.74578 0.0
C3533 C 0.28918 0.35827 0.79526 0.0
C3534 C 0.21651 0.37361 0.68253 0.0
C3535 C 0.22722 0.37592 0.69734 0.0
C3536 C 0.23861 0.35396 0.73892 0.0
C3537 C 0.27582 0.3696 0.76835 0.0
C3538 C 0.26097 0.36983 0.75557 0.0
C3539 C 0.22282 0.36802 0.7135 0.0
C3540 C 0.23513 0.36903 0.72872 0.0
H3541 H 0.31885 0.38185 0.77109 0.0
H3542 H 0.29341 0.38497 0.75189 0.0
H3543 H 0.25423 0.34229 0.75927 0.0
H3544 H 0.18461 0.34802 0.70118 0.0
H3545 H 0.20323 0.35221 0.727 0.0
C3546 C 0.61733 0.30917 0.76936 0.0
C3547 C 0.62642 0.30723 0.7854 0.0
C3548 C 0.61497 0.29473 0.75814 0.0
C3549 C 0.63541 0.25211 0.7477 0.0
H3550 H 0.59347 0.24487 0.71941 0.0
C3551 C 0.63142 0.19496 0.69836 0.0
C3552 C 0.62531 0.19947 0.68144 0.0
C3553 C 0.62908 0.20649 0.71252 0.0
C3554 C 0.60529 0.24676 0.72719 0.0
H3555 H 0.63933 0.28833 0.80262 0.0
H3556 H 0.63505 0.26322 0.78316 0.0
H3557 H 0.59394 0.26827 0.74155 0.0
H3558 H 0.6111 0.21929 0.66642 0.0
H3559 H 0.60729 0.23944 0.69103 0.0
H3560 H 0.64695 0.23098 0.73314 0.0
C3561 C 0.63007 0.27597 0.77909 0.0
C3562 C 0.60556 0.26017 0.73985 0.0
C3563 C 0.63247 0.29038 0.79026 0.0
C3564 C 0.61604 0.21538 0.67923 0.0
C3565 C 0.61375 0.22692 0.69339 0.0
C3566 C 0.63514 0.23876 0.73507 0.0
C3567 C 0.6216 0.27804 0.76274 0.0
C3568 C 0.6207 0.26311 0.75011 0.0
C3569 C 0.62062 0.2228 0.7101 0.0
C3570 C 0.62016 0.23604 0.72452 0.0
H3571 H 0.61247 0.32194 0.7652 0.0
H3572 H 0.60852 0.2968 0.74557 0.0
H3573 H 0.6474 0.25421 0.75515 0.0
H3574 H 0.63845 0.18274 0.70061 0.0
H3575 H 0.63424 0.20278 0.72531 0.0
C3576 C 0.69795 0.35483 0.19388 0.0
C3577 C 0.68137 0.36203 0.19793 0.0
C3578 C 0.71226 0.35736 0.20521 0.0
C3579 C 0.72798 0.38347 0.24369 0.0
H3580 H 0.75413 0.34089 0.2544 0.0
C3581 C 0.76857 0.37376 0.30753 0.0
C3582 C 0.78424 0.36393 0.30647 0.0
C3583 C 0.75775 0.37572 0.29273 0.0
C3584 C 0.74719 0.35299 0.25137 0.0
H3585 H 0.66713 0.37831 0.21668 0.0
H3586 H 0.69192 0.38244 0.23647 0.0
H3587 H 0.73236 0.34057 0.23093 0.0
H3588 H 0.8013 0.34934 0.28872 0.0
H3589 H 0.78253 0.3529 0.263 0.0
H3590 H 0.74256 0.39572 0.26456 0.0
C3591 C 0.69395 0.37499 0.22447 0.0
C3592 C 0.73471 0.35282 0.23787 0.0
C3593 C 0.67967 0.37249 0.21314 0.0
C3594 C 0.7892 0.35678 0.2901 0.0
C3595 C 0.77842 0.35877 0.27534 0.0
C3596 C 0.74048 0.38364 0.25724 0.0
C3597 C 0.7103 0.36712 0.22085 0.0
C3598 C 0.72477 0.36798 0.23402 0.0
C3599 C 0.76239 0.36793 0.27656 0.0
C3600 C 0.75006 0.36833 0.26137 0.0
H3601 H 0.6998 0.34683 0.18221 0.0
H3602 H 0.72478 0.35138 0.2019 0.0
H3603 H 0.72071 0.39544 0.24089 0.0
H3604 H 0.76436 0.37946 0.31991 0.0
H3605 H 0.74541 0.38274 0.29413 0.0
C3606 C 0.62621 0.69309 0.20657 0.0
C3607 C 0.6202 0.67576 0.20929 0.0
C3608 C 0.62265 0.70628 0.21886 0.0
C3609 C 0.61367 0.71179 0.26584 0.0
H3610 H 0.60579 0.76051 0.25245 0.0
C3611 C 0.61144 0.76719 0.31761 0.0
C3612 C 0.62194 0.78196 0.31366 0.0
C3613 C 0.60755 0.75473 0.30463 0.0
C3614 C 0.608 0.74696 0.25638 0.0
H3615 H 0.60505 0.65893 0.22676 0.0
H3616 H 0.59879 0.68206 0.24822 0.0
H3617 H 0.60527 0.73752 0.22994 0.0
H3618 H 0.63592 0.79554 0.29272 0.0
H3619 H 0.62929 0.77373 0.2702 0.0
H3620 H 0.61692 0.72124 0.29218 0.0
C3621 C 0.60644 0.68532 0.23664 0.0
C3622 C 0.6077 0.73381 0.24351 0.0
C3623 C 0.60998 0.6721 0.2243 0.0
C3624 C 0.62787 0.7843 0.29627 0.0
C3625 C 0.62395 0.77186 0.2833 0.0
C3626 C 0.61395 0.72493 0.27871 0.0
C3627 C 0.61299 0.70249 0.23418 0.0
C3628 C 0.61094 0.71613 0.24804 0.0
C3629 C 0.61401 0.75678 0.28741 0.0
C3630 C 0.61153 0.7427 0.27406 0.0
H3631 H 0.63404 0.69645 0.19512 0.0
H3632 H 0.62807 0.7193 0.21667 0.0
H3633 H 0.61644 0.69833 0.26974 0.0
H3634 H 0.60653 0.76501 0.33083 0.0
H3635 H 0.59968 0.74335 0.30813 0.0
C3636 C 0.30413 0.61698 0.21453 0.0
C3637 C 0.30365 0.6275 0.19926 0.0
C3638 C 0.28932 0.6155 0.22535 0.0
C3639 C 0.24944 0.64012 0.23731 0.0
H3640 H 0.23762 0.5974 0.26277 0.0
C3641 C 0.19279 0.63866 0.28775 0.0
C3642 C 0.19676 0.63062 0.30399 0.0
C3643 C 0.20393 0.6365 0.27325 0.0
C3644 C 0.2408 0.60945 0.2558 0.0
H3645 H 0.28683 0.64398 0.18298 0.0
H3646 H 0.26099 0.64124 0.20179 0.0
H3647 H 0.26055 0.59666 0.24022 0.0
H3648 H 0.21529 0.6134 0.31741 0.0
H3649 H 0.23473 0.60982 0.29223 0.0
H3650 H 0.23004 0.65303 0.25313 0.0
C3651 C 0.27294 0.6344 0.20553 0.0
C3652 C 0.25393 0.60902 0.24288 0.0
C3653 C 0.28775 0.63589 0.1947 0.0
C3654 C 0.2118 0.61984 0.30515 0.0
C3655 C 0.22292 0.61767 0.29065 0.0
C3656 C 0.23633 0.64055 0.2502 0.0
C3657 C 0.27366 0.62448 0.22117 0.0
C3658 C 0.2586 0.62442 0.23369 0.0
C3659 C 0.21928 0.62622 0.27462 0.0
C3660 C 0.23204 0.62528 0.2598 0.0
H3661 H 0.31611 0.61029 0.21847 0.0
H3662 H 0.29039 0.60789 0.23739 0.0
H3663 H 0.25288 0.65229 0.23069 0.0
H3664 H 0.18127 0.64696 0.28631 0.0
H3665 H 0.20062 0.64305 0.261 0.0
C3666 C 0.35693 0.19502 0.28986 0.0
C3667 C 0.36357 0.19977 0.30652 0.0
C3668 C 0.35891 0.20627 0.27541 0.0
C3669 C 0.38291 0.24585 0.25921 0.0
H3670 H 0.34069 0.25278 0.23127 0.0
C3671 C 0.37137 0.30697 0.21512 0.0
C3672 C 0.36206 0.30479 0.19922 0.0
C3673 C 0.37364 0.29281 0.2267 0.0
C3674 C 0.35271 0.25081 0.23871 0.0
H3675 H 0.3782 0.21982 0.32076 0.0
H3676 H 0.38143 0.23949 0.29563 0.0
H3677 H 0.34105 0.23035 0.25414 0.0
H3678 H 0.34861 0.28566 0.18271 0.0
H3679 H 0.35274 0.26099 0.20283 0.0
H3680 H 0.3944 0.26666 0.24397 0.0
C3681 C 0.37484 0.22698 0.2937 0.0
C3682 C 0.35292 0.23792 0.25185 0.0
C3683 C 0.37289 0.21571 0.30816 0.0
C3684 C 0.35571 0.28791 0.19489 0.0
C3685 C 0.358 0.27375 0.20647 0.0
C3686 C 0.3827 0.25878 0.24605 0.0
C3687 C 0.36755 0.22257 0.27724 0.0
C3688 C 0.36794 0.2354 0.2624 0.0
C3689 C 0.36668 0.27611 0.22267 0.0
C3690 C 0.36752 0.26154 0.23578 0.0
H3691 H 0.34983 0.18277 0.28803 0.0
H3692 H 0.35342 0.20232 0.26284 0.0
H3693 H 0.39478 0.24409 0.26694 0.0
H3694 H 0.37648 0.31976 0.2189 0.0
H3695 H 0.38026 0.29513 0.23913 0.0
C3696 C 0.67899 0.7763 0.61689 0.0
C3697 C 0.68078 0.79027 0.62895 0.0
C3698 C 0.69272 0.76432 0.61429 0.0
C3699 C 0.74044 0.75694 0.62179 0.0
H3700 H 0.72692 0.70764 0.62191 0.0
C3701 C 0.78938 0.70036 0.63582 0.0
C3702 C 0.7871 0.6842 0.627 0.0
C3703 C 0.77729 0.71407 0.6336 0.0
C3704 C 0.73095 0.72133 0.62152 0.0
H3705 H 0.6988 0.80293 0.64723 0.0
H3706 H 0.72266 0.78192 0.64281 0.0
H3707 H 0.70427 0.73029 0.62246 0.0
H3708 H 0.77068 0.67018 0.60823 0.0
H3709 H 0.74972 0.69419 0.60421 0.0
H3710 H 0.76717 0.74791 0.62117 0.0
C3711 C 0.71066 0.78033 0.63525 0.0
C3712 C 0.71794 0.73434 0.62186 0.0
C3713 C 0.69692 0.79233 0.63785 0.0
C3714 C 0.77279 0.68237 0.61535 0.0
C3715 C 0.76071 0.6961 0.61312 0.0
C3716 C 0.75348 0.74391 0.62143 0.0
C3717 C 0.70859 0.76599 0.62369 0.0
C3718 C 0.72252 0.7523 0.62218 0.0
C3719 C 0.76263 0.712 0.62247 0.0
C3720 C 0.74888 0.72594 0.62149 0.0
H3721 H 0.66684 0.77436 0.60966 0.0
H3722 H 0.69082 0.7536 0.60506 0.0
H3723 H 0.7444 0.77066 0.6218 0.0
H3724 H 0.80025 0.7023 0.64488 0.0
H3725 H 0.77909 0.72605 0.64115 0.0
C3726 C 0.68543 0.20608 0.37594 0.0
C3727 C 0.68303 0.19778 0.35959 0.0
C3728 C 0.69969 0.21743 0.37867 0.0
C3729 C 0.74179 0.23329 0.35793 0.0
H3730 H 0.73251 0.27454 0.38653 0.0
C3731 C 0.76717 0.30961 0.36568 0.0
C3732 C 0.78529 0.30737 0.36271 0.0
C3733 C 0.75615 0.29504 0.36773 0.0
C3734 C 0.73531 0.2632 0.37834 0.0
H3735 H 0.69374 0.19466 0.33331 0.0
H3736 H 0.71795 0.21508 0.33764 0.0
H3737 H 0.71068 0.25141 0.3848 0.0
H3738 H 0.80619 0.28806 0.3603 0.0
H3739 H 0.78708 0.26256 0.36468 0.0
H3740 H 0.7658 0.2458 0.35033 0.0
C3741 C 0.70934 0.21242 0.34869 0.0
C3742 C 0.72286 0.24968 0.37761 0.0
C3743 C 0.69533 0.20077 0.34612 0.0
C3744 C 0.79225 0.2902 0.36243 0.0
C3745 C 0.78124 0.27558 0.36482 0.0
C3746 C 0.75408 0.24701 0.35835 0.0
C3747 C 0.71164 0.22109 0.36494 0.0
C3748 C 0.72575 0.23465 0.36713 0.0
C3749 C 0.76297 0.2778 0.36723 0.0
C3750 C 0.75085 0.26233 0.36828 0.0
H3751 H 0.67625 0.20384 0.38664 0.0
H3752 H 0.7012 0.22345 0.39151 0.0
H3753 H 0.74476 0.22177 0.35005 0.0
H3754 H 0.76133 0.32264 0.36577 0.0
H3755 H 0.74216 0.2974 0.36911 0.0
C3756 C 0.79033 0.69789 0.34657 0.0
C3757 C 0.79376 0.68637 0.36063 0.0
C3758 C 0.77916 0.71235 0.34885 0.0
C3759 C 0.74387 0.72816 0.37913 0.0
H3760 H 0.74507 0.76847 0.3478 0.0
C3761 C 0.7012 0.79556 0.36075 0.0
C3762 C 0.68428 0.78856 0.36337 0.0
C3763 C 0.71615 0.78493 0.36286 0.0
C3764 C 0.74463 0.75752 0.35694 0.0
H3765 H 0.78927 0.68153 0.38837 0.0
H3766 H 0.77075 0.70737 0.39275 0.0
H3767 H 0.7693 0.74769 0.34768 0.0
H3768 H 0.66974 0.76492 0.37017 0.0
H3769 H 0.69544 0.74629 0.37296 0.0
H3770 H 0.71969 0.73844 0.38904 0.0
C3771 C 0.77587 0.70487 0.37969 0.0
C3772 C 0.75846 0.74534 0.35663 0.0
C3773 C 0.78664 0.69012 0.37726 0.0
C3774 C 0.68261 0.77079 0.36828 0.0
C3775 C 0.69745 0.76011 0.37002 0.0
C3776 C 0.7303 0.74056 0.37975 0.0
C3777 C 0.77149 0.71591 0.36539 0.0
C3778 C 0.75803 0.73016 0.36733 0.0
C3779 C 0.71447 0.76696 0.36729 0.0
C3780 C 0.73015 0.75511 0.36825 0.0
H3781 H 0.79555 0.69521 0.33356 0.0
H3782 H 0.77597 0.72022 0.33739 0.0
H3783 H 0.74279 0.71666 0.3875 0.0
H3784 H 0.7029 0.80926 0.35707 0.0
H3785 H 0.72898 0.79083 0.36095 0.0
C3786 C 0.30697 0.77519 0.37741 0.0
C3787 C 0.30637 0.78907 0.36514 0.0
C3788 C 0.29258 0.76391 0.37951 0.0
C3789 C 0.24507 0.75796 0.36918 0.0
H3790 H 0.25741 0.70837 0.37013 0.0
C3791 C 0.1959 0.70167 0.35315 0.0
C3792 C 0.19771 0.68565 0.36234 0.0
C3793 C 0.2079 0.71542 0.35582 0.0
C3794 C 0.25368 0.72215 0.37019 0.0
H3795 H 0.28974 0.80248 0.34609 0.0
H3796 H 0.26476 0.78265 0.34958 0.0
H3797 H 0.28055 0.73042 0.37082 0.0
H3798 H 0.21295 0.672 0.38236 0.0
H3799 H 0.23363 0.696 0.38716 0.0
H3800 H 0.21812 0.74954 0.36817 0.0
C3801 C 0.27631 0.78058 0.3577 0.0
C3802 C 0.26698 0.73483 0.37059 0.0
C3803 C 0.2907 0.79191 0.35564 0.0
C3804 C 0.21127 0.68405 0.37487 0.0
C3805 C 0.2232 0.69779 0.37758 0.0
C3806 C 0.23171 0.74523 0.36878 0.0
C3807 C 0.27725 0.76619 0.36935 0.0
C3808 C 0.26287 0.75289 0.36998 0.0
C3809 C 0.22194 0.71347 0.36778 0.0
C3810 C 0.23589 0.72717 0.36917 0.0
H3811 H 0.31873 0.77271 0.38512 0.0
H3812 H 0.29361 0.75317 0.38886 0.0
H3813 H 0.24145 0.77177 0.36886 0.0
H3814 H 0.18561 0.70339 0.34341 0.0
H3815 H 0.20661 0.72727 0.34796 0.0
C3816 C 0.21972 0.31359 0.37575 0.0
C3817 C 0.20519 0.31097 0.36455 0.0
C3818 C 0.23174 0.29998 0.37883 0.0
C3819 C 0.2384 0.25169 0.37436 0.0
H3820 H 0.28764 0.26461 0.37029 0.0
C3821 C 0.29326 0.20184 0.35789 0.0
C3822 C 0.30999 0.20413 0.36555 0.0
C3823 C 0.27987 0.21412 0.3608 0.0
C3824 C 0.27399 0.26079 0.3718 0.0
H3825 H 0.19156 0.29168 0.34836 0.0
H3826 H 0.21263 0.26809 0.35356 0.0
H3827 H 0.26522 0.2875 0.36998 0.0
H3828 H 0.32542 0.22076 0.38299 0.0
H3829 H 0.30199 0.2421 0.38814 0.0
H3830 H 0.24723 0.2249 0.37572 0.0
C3831 C 0.21465 0.28062 0.36011 0.0
C3832 C 0.26111 0.27393 0.37162 0.0
C3833 C 0.20262 0.29422 0.35703 0.0
C3834 C 0.31276 0.21864 0.37676 0.0
C3835 C 0.29936 0.23093 0.37966 0.0
C3836 C 0.2513 0.23853 0.37454 0.0
C3837 C 0.22951 0.28343 0.3708 0.0
C3838 C 0.24316 0.26952 0.37262 0.0
C3839 C 0.28287 0.22898 0.37145 0.0
C3840 C 0.26922 0.24292 0.37298 0.0
H3841 H 0.22205 0.32626 0.3819 0.0
H3842 H 0.24292 0.30248 0.38736 0.0
H3843 H 0.2247 0.24789 0.37542 0.0
H3844 H 0.2906 0.1908 0.34923 0.0
H3845 H 0.26738 0.21231 0.35413 0.0
C3846 C 0.29134 0.19785 0.63385 0.0
C3847 C 0.30768 0.20017 0.62541 0.0
C3848 C 0.27765 0.20991 0.63122 0.0
C3849 C 0.27109 0.25634 0.61907 0.0
H3850 H 0.22163 0.24366 0.61804 0.0
C3851 C 0.21749 0.30949 0.61364 0.0
C3852 C 0.20317 0.30783 0.62528 0.0
C3853 C 0.22916 0.29548 0.6111 0.0
C3854 C 0.23539 0.2474 0.6184 0.0
H3855 H 0.32197 0.21644 0.60671 0.0
H3856 H 0.29804 0.23726 0.602 0.0
H3857 H 0.24402 0.22049 0.61801 0.0
H3858 H 0.18952 0.28977 0.64277 0.0
H3859 H 0.21002 0.26546 0.63851 0.0
H3860 H 0.26258 0.28316 0.61987 0.0
C3861 C 0.29596 0.22634 0.61096 0.0
C3862 C 0.24821 0.23413 0.61838 0.0
C3863 C 0.30966 0.21433 0.61361 0.0
C3864 C 0.20041 0.29155 0.63374 0.0
C3865 C 0.21212 0.27755 0.63122 0.0
C3866 C 0.25831 0.26956 0.6191 0.0
C3867 C 0.27995 0.22453 0.62006 0.0
C3868 C 0.26622 0.23846 0.61887 0.0
C3869 C 0.22683 0.27947 0.62014 0.0
C3870 C 0.2403 0.26527 0.61892 0.0
H3871 H 0.28931 0.18709 0.64301 0.0
H3872 H 0.26553 0.20818 0.63854 0.0
H3873 H 0.28482 0.26015 0.61982 0.0
H3874 H 0.21994 0.32175 0.60675 0.0
H3875 H 0.24017 0.29728 0.60222 0.0
C3876 C 0.78948 0.29305 0.63455 0.0
C3877 C 0.78713 0.30944 0.62619 0.0
C3878 C 0.77746 0.27934 0.63184 0.0
C3879 C 0.73118 0.27246 0.61939 0.0
H3880 H 0.7446 0.22319 0.6173 0.0
C3881 C 0.67904 0.21771 0.61317 0.0
C3882 C 0.68117 0.20328 0.62462 0.0
C3883 C 0.69271 0.22983 0.61076 0.0
C3884 C 0.74065 0.23689 0.61794 0.0
H3885 H 0.77075 0.32389 0.60767 0.0
H3886 H 0.74998 0.29997 0.60284 0.0
H3887 H 0.76739 0.24591 0.61782 0.0
H3888 H 0.69967 0.18994 0.64194 0.0
H3889 H 0.7233 0.21114 0.63789 0.0
H3890 H 0.70449 0.26352 0.61992 0.0
C3891 C 0.76091 0.29783 0.61177 0.0
C3892 C 0.7537 0.2499 0.61825 0.0
C3893 C 0.77289 0.31153 0.6145 0.0
C3894 C 0.69751 0.20091 0.63306 0.0
C3895 C 0.71114 0.21302 0.63065 0.0
C3896 C 0.71815 0.25948 0.61909 0.0
C3897 C 0.76284 0.28171 0.62068 0.0
C3898 C 0.74911 0.26783 0.61916 0.0
C3899 C 0.70881 0.22779 0.61971 0.0
C3900 C 0.72272 0.24153 0.61857 0.0
H3901 H 0.80029 0.29094 0.64363 0.0
H3902 H 0.77925 0.26713 0.63902 0.0
H3903 H 0.72717 0.28613 0.62041 0.0
H3904 H 0.6667 0.2199 0.60635 0.0
H3905 H 0.69059 0.24093 0.60203 0.0
C3906 C 0.28893 0.79745 0.63566 0.0
C3907 C 0.30568 0.79335 0.62887 0.0
C3908 C 0.27474 0.78595 0.63318 0.0
C3909 C 0.25957 0.74719 0.60723 0.0
H3910 H 0.23127 0.73783 0.64869 0.0
C3911 C 0.21717 0.68448 0.61578 0.0
C3912 C 0.20115 0.68582 0.62499 0.0
C3913 C 0.22828 0.69909 0.61411 0.0
C3914 C 0.23881 0.74048 0.63687 0.0
H3915 H 0.32039 0.77418 0.61357 0.0
H3916 H 0.29577 0.75408 0.60949 0.0
H3917 H 0.25364 0.76073 0.64967 0.0
H3918 H 0.18386 0.70395 0.63883 0.0
H3919 H 0.20318 0.72939 0.63577 0.0
H3920 H 0.24496 0.72657 0.5946 0.0
C3921 C 0.29354 0.76628 0.61657 0.0
C3922 C 0.25167 0.75364 0.63743 0.0
C3923 C 0.30771 0.77778 0.61901 0.0
C3924 C 0.19616 0.70235 0.63178 0.0
C3925 C 0.20728 0.71694 0.63011 0.0
C3926 C 0.24671 0.73399 0.60667 0.0
C3927 C 0.27695 0.77007 0.62388 0.0
C3928 C 0.26236 0.75702 0.6227 0.0
C3929 C 0.22364 0.71539 0.6216 0.0
C3930 C 0.23633 0.73034 0.62157 0.0
H3931 H 0.2868 0.80938 0.64319 0.0
H3932 H 0.26207 0.78942 0.63874 0.0
H3933 H 0.2674 0.74963 0.59555 0.0
H3934 H 0.22145 0.672 0.61034 0.0
H3935 H 0.24085 0.69739 0.6076 0.0
C3936 C 0.12984 0.19131 0.38121 0.0
C3937 C 0.11807 0.17907 0.37395 0.0
C3938 C 0.12358 0.20653 0.38931 0.0
C3939 C 0.09015 0.23795 0.38209 0.0
H3940 H 0.11489 0.2615 0.42009 0.0
C3941 C 0.10398 0.31187 0.37851 0.0
C3942 C 0.12236 0.31374 0.37797 0.0
C3943 C 0.09649 0.29641 0.38535 0.0
C3944 C 0.10748 0.25511 0.40969 0.0
H3945 H 0.09055 0.17257 0.37009 0.0
H3946 H 0.0795 0.19986 0.38368 0.0
H3947 H 0.11424 0.22934 0.41903 0.0
H3948 H 0.1473 0.30199 0.38521 0.0
H3949 H 0.13443 0.27536 0.39737 0.0
H3950 H 0.08505 0.26364 0.37167 0.0
C3951 C 0.09355 0.19738 0.38344 0.0
C3952 C 0.1071 0.23672 0.4091 0.0
C3953 C 0.09986 0.18185 0.37569 0.0
C3954 C 0.13308 0.30073 0.38546 0.0
C3955 C 0.12566 0.28558 0.39261 0.0
C3956 C 0.0906 0.25636 0.38263 0.0
C3957 C 0.10541 0.21002 0.38997 0.0
C3958 C 0.09959 0.22805 0.39458 0.0
C3959 C 0.10734 0.28295 0.39211 0.0
C3960 C 0.10047 0.26503 0.39569 0.0
H3961 H 0.14394 0.18938 0.38009 0.0
H3962 H 0.13305 0.21616 0.39394 0.0
H3963 H 0.08424 0.23159 0.37075 0.0
H3964 H 0.09553 0.32183 0.37272 0.0
H3965 H 0.08235 0.29465 0.38472 0.0
C3966 C 0.69319 0.11027 0.35555 0.0
C3967 C 0.67907 0.11388 0.36689 0.0
C3968 C 0.70896 0.10363 0.36219 0.0
C3969 C 0.73516 0.10982 0.40069 0.0
H3970 H 0.76827 0.08275 0.3728 0.0
C3971 C 0.81363 0.10552 0.38051 0.0
C3972 C 0.81512 0.12345 0.37601 0.0
C3973 C 0.79783 0.09897 0.38738 0.0
C3974 C 0.75924 0.08996 0.38118 0.0
H3975 H 0.66985 0.11221 0.39388 0.0
H3976 H 0.69776 0.10098 0.40563 0.0
H3977 H 0.73679 0.07837 0.36865 0.0
H3978 H 0.80211 0.14886 0.37691 0.0
H3979 H 0.77473 0.13754 0.38889 0.0
H3980 H 0.75763 0.1224 0.41223 0.0
C3981 C 0.69651 0.10314 0.39158 0.0
C3982 C 0.74119 0.08753 0.37868 0.0
C3983 C 0.68056 0.10953 0.38485 0.0
C3984 C 0.80125 0.13495 0.38008 0.0
C3985 C 0.78561 0.12847 0.38715 0.0
C3986 C 0.75322 0.11227 0.40317 0.0
C3987 C 0.71103 0.10069 0.38037 0.0
C3988 C 0.72903 0.09831 0.38753 0.0
C3989 C 0.78343 0.11029 0.39009 0.0
C3990 C 0.76539 0.10324 0.39254 0.0
H3991 H 0.69233 0.11337 0.34163 0.0
H3992 H 0.71995 0.10212 0.35323 0.0
H3993 H 0.72612 0.11831 0.40775 0.0
H3994 H 0.82415 0.09635 0.37753 0.0
H3995 H 0.79653 0.08492 0.3896 0.0
C3996 C 0.88074 0.68944 0.35419 0.0
C3997 C 0.87704 0.67563 0.36592 0.0
C3998 C 0.88807 0.70513 0.36033 0.0
C3999 C 0.90483 0.73759 0.37577 0.0
H4000 H 0.87213 0.75428 0.41126 0.0
C4001 C 0.88781 0.81054 0.37974 0.0
C4002 C 0.86973 0.81229 0.37613 0.0
C4003 C 0.89455 0.79446 0.38581 0.0
C4004 C 0.88167 0.7498 0.40165 0.0
H4005 H 0.87956 0.66677 0.393 0.0
H4006 H 0.89213 0.69443 0.40379 0.0
H4007 H 0.87568 0.72274 0.40656 0.0
H4008 H 0.84433 0.7994 0.37763 0.0
H4009 H 0.85593 0.77156 0.38837 0.0
H4010 H 0.90949 0.7647 0.36968 0.0
C4011 C 0.88937 0.69306 0.38985 0.0
C4012 C 0.88382 0.73171 0.39902 0.0
C4013 C 0.88221 0.67723 0.38365 0.0
C4014 C 0.85833 0.79834 0.3802 0.0
C4015 C 0.86499 0.78244 0.38652 0.0
C4016 C 0.9027 0.75569 0.37842 0.0
C4017 C 0.89169 0.70741 0.37836 0.0
C4018 C 0.89451 0.72549 0.38523 0.0
C4019 C 0.88323 0.78007 0.38866 0.0
C4020 C 0.89019 0.76192 0.39056 0.0
H4021 H 0.87707 0.68851 0.34042 0.0
H4022 H 0.88951 0.71596 0.35113 0.0
H4023 H 0.91337 0.73313 0.36524 0.0
H4024 H 0.89688 0.82113 0.37667 0.0
H4025 H 0.90865 0.79298 0.38736 0.0
C4026 C 0.18131 0.88542 0.37955 0.0
C4027 C 0.1797 0.86757 0.37479 0.0
C4028 C 0.19719 0.89184 0.38634 0.0
C4029 C 0.24141 0.87834 0.40249 0.0
H4030 H 0.25878 0.91156 0.36776 0.0
C4031 C 0.30164 0.87782 0.35592 0.0
C4032 C 0.3154 0.87385 0.3676 0.0
C4033 C 0.28612 0.88539 0.36212 0.0
C4034 C 0.2541 0.90263 0.37788 0.0
H4035 H 0.1927 0.84213 0.37502 0.0
H4036 H 0.22025 0.85322 0.38697 0.0
H4037 H 0.22716 0.90762 0.37148 0.0
H4038 H 0.32438 0.87604 0.39468 0.0
H4039 H 0.29694 0.88892 0.40561 0.0
H4040 H 0.26834 0.87205 0.40763 0.0
C4041 C 0.20936 0.86232 0.38545 0.0
C4042 C 0.23599 0.90045 0.3801 0.0
C4043 C 0.19364 0.85598 0.3784 0.0
C4044 C 0.31394 0.87892 0.38537 0.0
C4045 C 0.29826 0.88628 0.39165 0.0
C4046 C 0.25952 0.88057 0.40031 0.0
C4047 C 0.21154 0.88042 0.38879 0.0
C4048 C 0.22954 0.88736 0.39152 0.0
C4049 C 0.28397 0.88893 0.38018 0.0
C4050 C 0.26598 0.89181 0.38708 0.0
H4051 H 0.17074 0.89466 0.37691 0.0
H4052 H 0.19855 0.90584 0.38881 0.0
H4053 H 0.23674 0.86834 0.41155 0.0
H4054 H 0.30249 0.87422 0.34212 0.0
H4055 H 0.2753 0.88708 0.35297 0.0
C4056 C 0.10969 0.68957 0.63199 0.0
C4057 C 0.11639 0.67746 0.61974 0.0
C4058 C 0.10134 0.70489 0.62626 0.0
C4059 C 0.08097 0.73546 0.61084 0.0
H4060 H 0.11688 0.76203 0.58609 0.0
C4061 C 0.11093 0.81068 0.60356 0.0
C4062 C 0.11164 0.81352 0.62181 0.0
C4063 C 0.10391 0.79488 0.59697 0.0
C4064 C 0.10631 0.75484 0.59244 0.0
H4065 H 0.11881 0.67131 0.59195 0.0
H4066 H 0.1047 0.69864 0.58189 0.0
H4067 H 0.11794 0.73 0.58597 0.0
H4068 H 0.10461 0.80319 0.64741 0.0
H4069 H 0.09231 0.77594 0.63614 0.0
H4070 H 0.07014 0.76036 0.61847 0.0
C4071 C 0.10565 0.69603 0.59589 0.0
C4072 C 0.10695 0.73644 0.59239 0.0
C4073 C 0.1137 0.68045 0.60165 0.0
C4074 C 0.10418 0.80116 0.63327 0.0
C4075 C 0.09695 0.78565 0.62675 0.0
C4076 C 0.08024 0.75385 0.61076 0.0
C4077 C 0.0998 0.70858 0.60817 0.0
C4078 C 0.09504 0.72668 0.60267 0.0
C4079 C 0.09729 0.782 0.60859 0.0
C4080 C 0.09371 0.7637 0.60271 0.0
H4081 H 0.11151 0.68751 0.646 0.0
H4082 H 0.0972 0.71444 0.63604 0.0
H4083 H 0.07147 0.72819 0.61863 0.0
H4084 H 0.11669 0.82013 0.59454 0.0
H4085 H 0.10438 0.79239 0.58293 0.0
C4086 C 0.29782 0.11085 0.63332 0.0
C4087 C 0.31167 0.11478 0.62175 0.0
C4088 C 0.28216 0.10372 0.62695 0.0
C4089 C 0.25539 0.10882 0.58859 0.0
H4090 H 0.2231 0.082 0.61765 0.0
C4091 C 0.17748 0.10458 0.61074 0.0
C4092 C 0.17605 0.12262 0.61477 0.0
C4093 C 0.19311 0.09788 0.60362 0.0
C4094 C 0.23188 0.08911 0.60895 0.0
H4095 H 0.32057 0.11311 0.59465 0.0
H4096 H 0.29286 0.10096 0.58339 0.0
H4097 H 0.25468 0.07803 0.62132 0.0
H4098 H 0.18894 0.14803 0.61281 0.0
H4099 H 0.21601 0.13647 0.60042 0.0
H4100 H 0.23259 0.12088 0.57716 0.0
C4101 C 0.29423 0.1033 0.59741 0.0
C4102 C 0.25 0.08692 0.61116 0.0
C4103 C 0.31006 0.11022 0.60386 0.0
C4104 C 0.18977 0.13404 0.61001 0.0
C4105 C 0.20523 0.12741 0.60271 0.0
C4106 C 0.23726 0.111 0.58636 0.0
C4107 C 0.27992 0.10056 0.60882 0.0
C4108 C 0.26188 0.0977 0.60192 0.0
C4109 C 0.20739 0.10916 0.60019 0.0
C4110 C 0.22539 0.10211 0.59744 0.0
H4111 H 0.29876 0.11408 0.6472 0.0
H4112 H 0.27134 0.10199 0.63608 0.0
H4113 H 0.26419 0.11727 0.5812 0.0
H4114 H 0.16707 0.09548 0.61424 0.0
H4115 H 0.1944 0.08378 0.60175 0.0
C4116 C 0.88033 0.30191 0.62885 0.0
C4117 C 0.87276 0.31389 0.617 0.0
C4118 C 0.88828 0.28657 0.62272 0.0
C4119 C 0.90738 0.2558 0.60662 0.0
H4120 H 0.86974 0.22888 0.58497 0.0
C4121 C 0.87741 0.18034 0.60372 0.0
C4122 C 0.87685 0.17842 0.62211 0.0
C4123 C 0.88389 0.19599 0.59627 0.0
C4124 C 0.88074 0.23616 0.59043 0.0
H4125 H 0.86828 0.31986 0.58945 0.0
H4126 H 0.88167 0.29237 0.57863 0.0
H4127 H 0.86897 0.26094 0.58387 0.0
H4128 H 0.88363 0.19034 0.64711 0.0
H4129 H 0.89519 0.21729 0.63429 0.0
H4130 H 0.91824 0.23102 0.61463 0.0
C4131 C 0.88175 0.29513 0.59264 0.0
C4132 C 0.8803 0.25458 0.58981 0.0
C4133 C 0.87412 0.31078 0.5988 0.0
C4134 C 0.88389 0.19164 0.63288 0.0
C4135 C 0.89069 0.20697 0.6255 0.0
C4136 C 0.90785 0.23741 0.6072 0.0
C4137 C 0.88851 0.28269 0.60461 0.0
C4138 C 0.8929 0.2645 0.59906 0.0
C4139 C 0.89029 0.20957 0.60717 0.0
C4140 C 0.89381 0.22751 0.60029 0.0
H4141 H 0.87947 0.30409 0.64294 0.0
H4142 H 0.8931 0.27713 0.6323 0.0
H4143 H 0.91741 0.26318 0.61362 0.0
H4144 H 0.87198 0.17023 0.59523 0.0
H4145 H 0.88332 0.19774 0.58212 0.0
C4146 C 0.81241 0.88802 0.6137 0.0
C4147 C 0.81405 0.86986 0.61704 0.0
C4148 C 0.79669 0.8948 0.6068 0.0
C4149 C 0.75772 0.90288 0.61212 0.0
H4150 H 0.72593 0.87516 0.58329 0.0
C4151 C 0.69198 0.87966 0.63554 0.0
C4152 C 0.67813 0.87605 0.62386 0.0
C4153 C 0.70762 0.88701 0.6294 0.0
C4154 C 0.73458 0.8835 0.59101 0.0
H4155 H 0.80146 0.8444 0.61412 0.0
H4156 H 0.77427 0.85608 0.60206 0.0
H4157 H 0.7576 0.8722 0.5793 0.0
H4158 H 0.66922 0.87835 0.5968 0.0
H4159 H 0.69694 0.89087 0.5859 0.0
H4160 H 0.73472 0.91319 0.62471 0.0
C4161 C 0.78494 0.86518 0.60472 0.0
C4162 C 0.75275 0.88169 0.5888 0.0
C4163 C 0.80046 0.85847 0.61183 0.0
C4164 C 0.67974 0.88102 0.60608 0.0
C4165 C 0.69557 0.88814 0.59985 0.0
C4166 C 0.73956 0.90471 0.6143 0.0
C4167 C 0.78255 0.88348 0.60287 0.0
C4168 C 0.76446 0.89037 0.60023 0.0
C4169 C 0.70985 0.8907 0.61138 0.0
C4170 C 0.72788 0.89405 0.60466 0.0
H4171 H 0.82273 0.89707 0.6176 0.0
H4172 H 0.79523 0.90894 0.60546 0.0
H4173 H 0.76637 0.90983 0.6211 0.0
H4174 H 0.69103 0.8761 0.64934 0.0
H4175 H 0.71842 0.88855 0.63862 0.0
C4176 C 0.37819 0.10314 0.17812 0.0
C4177 C 0.37458 0.12126 0.17657 0.0
C4178 C 0.38494 0.09633 0.19388 0.0
C4179 C 0.37862 0.08811 0.23266 0.0
H4180 H 0.40719 0.11527 0.26515 0.0
C4181 C 0.35478 0.11127 0.2984 0.0
C4182 C 0.36645 0.11466 0.31233 0.0
C4183 C 0.36088 0.10382 0.28278 0.0
C4184 C 0.39954 0.10709 0.2563 0.0
H4185 H 0.37697 0.14667 0.18938 0.0
H4186 H 0.38879 0.13492 0.21669 0.0
H4187 H 0.41165 0.11854 0.23355 0.0
H4188 H 0.3934 0.11164 0.3214 0.0
H4189 H 0.40416 0.09893 0.29379 0.0
H4190 H 0.36556 0.07773 0.25539 0.0
C4191 C 0.38642 0.12588 0.20589 0.0
C4192 C 0.40203 0.10907 0.23818 0.0
C4193 C 0.37945 0.13263 0.19031 0.0
C4194 C 0.3841 0.10922 0.31084 0.0
C4195 C 0.39028 0.10197 0.29506 0.0
C4196 C 0.37612 0.08615 0.25078 0.0
C4197 C 0.38845 0.10759 0.20816 0.0
C4198 C 0.39073 0.10056 0.22623 0.0
C4199 C 0.37883 0.09978 0.28067 0.0
C4200 C 0.38571 0.09657 0.2627 0.0
H4201 H 0.37457 0.09407 0.1677 0.0
H4202 H 0.38643 0.08219 0.19527 0.0
H4203 H 0.36973 0.08132 0.2238 0.0
H4204 H 0.34107 0.11516 0.29924 0.0
H4205 H 0.35174 0.10251 0.27188 0.0
C4206 C 0.88251 0.38283 0.3124 0.0
C4207 C 0.86483 0.37737 0.31188 0.0
C4208 C 0.89032 0.39033 0.2974 0.0
C4209 C 0.87967 0.40863 0.25307 0.0
H4210 H 0.91483 0.37589 0.23592 0.0
C4211 C 0.88105 0.36059 0.19472 0.0
C4212 C 0.87659 0.37115 0.18024 0.0
C4213 C 0.88826 0.36805 0.2098 0.0
C4214 C 0.90538 0.38553 0.24054 0.0
H4215 H 0.84108 0.37667 0.29603 0.0
H4216 H 0.85445 0.38979 0.27022 0.0
H4217 H 0.90985 0.37861 0.26749 0.0
H4218 H 0.87711 0.39763 0.16958 0.0
H4219 H 0.88914 0.41103 0.19661 0.0
H4220 H 0.87363 0.41388 0.22607 0.0
C4221 C 0.86242 0.38832 0.28198 0.0
C4222 C 0.9026 0.38718 0.25866 0.0
C4223 C 0.85482 0.38052 0.29668 0.0
C4224 C 0.88038 0.38927 0.18069 0.0
C4225 C 0.88731 0.39688 0.19606 0.0
C4226 C 0.88238 0.40691 0.23495 0.0
C4227 C 0.88034 0.39295 0.28198 0.0
C4228 C 0.88863 0.39755 0.26493 0.0
C4229 C 0.89094 0.38635 0.21091 0.0
C4230 C 0.89414 0.39414 0.22855 0.0
H4231 H 0.89043 0.3806 0.32407 0.0
H4232 H 0.90419 0.39363 0.29767 0.0
H4233 H 0.86906 0.41701 0.25764 0.0
H4234 H 0.87846 0.34653 0.19458 0.0
H4235 H 0.89056 0.35956 0.22106 0.0
C4236 C 0.60509 0.88229 0.31234 0.0
C4237 C 0.60962 0.86433 0.31253 0.0
C4238 C 0.59802 0.88989 0.29703 0.0
C4239 C 0.58136 0.87876 0.25192 0.0
H4240 H 0.61615 0.91277 0.23652 0.0
C4241 C 0.60487 0.88033 0.18021 0.0
C4242 C 0.62284 0.8759 0.1806 0.0
C4243 C 0.5966 0.88673 0.19547 0.0
C4244 C 0.60596 0.90364 0.24062 0.0
H4245 H 0.60883 0.83991 0.29777 0.0
H4246 H 0.59652 0.85293 0.27137 0.0
H4247 H 0.6113 0.90825 0.26786 0.0
H4248 H 0.64655 0.87594 0.1965 0.0
H4249 H 0.63238 0.88718 0.22277 0.0
H4250 H 0.57764 0.87263 0.22466 0.0
C4251 C 0.59834 0.8613 0.2828 0.0
C4252 C 0.60308 0.90113 0.25861 0.0
C4253 C 0.60567 0.85385 0.29784 0.0
C4254 C 0.63262 0.87903 0.19595 0.0
C4255 C 0.62453 0.88574 0.21093 0.0
C4256 C 0.58431 0.88122 0.23391 0.0
C4257 C 0.59502 0.87951 0.28194 0.0
C4258 C 0.5919 0.88756 0.26439 0.0
C4259 C 0.60636 0.88925 0.21104 0.0
C4260 C 0.59774 0.89259 0.22822 0.0
H4261 H 0.60797 0.89059 0.32359 0.0
H4262 H 0.59564 0.90397 0.29671 0.0
H4263 H 0.57233 0.8685 0.25604 0.0
H4264 H 0.59711 0.87809 0.16844 0.0
H4265 H 0.58255 0.88919 0.19527 0.0
C4266 C 0.10543 0.63305 0.29874 0.0
C4267 C 0.112 0.62148 0.31155 0.0
C4268 C 0.09725 0.62649 0.28368 0.0
C4269 C 0.07764 0.60966 0.25359 0.0
H4270 H 0.11508 0.58523 0.22891 0.0
C4271 C 0.11082 0.6042 0.17989 0.0
C4272 C 0.11285 0.62252 0.17822 0.0
C4273 C 0.10312 0.59713 0.19514 0.0
C4274 C 0.10409 0.59142 0.23557 0.0
H4275 H 0.11443 0.59407 0.31927 0.0
H4276 H 0.1007 0.58249 0.29233 0.0
H4277 H 0.11464 0.58525 0.26097 0.0
H4278 H 0.10739 0.64787 0.19012 0.0
H4279 H 0.09375 0.63573 0.21634 0.0
H4280 H 0.06815 0.61734 0.22817 0.0
C4281 C 0.10155 0.59662 0.29421 0.0
C4282 C 0.10384 0.59146 0.25398 0.0
C4283 C 0.10939 0.60324 0.30955 0.0
C4284 C 0.1061 0.63368 0.19127 0.0
C4285 C 0.09807 0.62671 0.20614 0.0
C4286 C 0.07784 0.60955 0.23521 0.0
C4287 C 0.09581 0.60821 0.28095 0.0
C4288 C 0.09147 0.60181 0.26306 0.0
C4289 C 0.09688 0.60838 0.20849 0.0
C4290 C 0.09194 0.60171 0.22613 0.0
H4291 H 0.10721 0.64716 0.30005 0.0
H4292 H 0.09324 0.63574 0.27356 0.0
H4293 H 0.0678 0.61749 0.26033 0.0
H4294 H 0.11594 0.59541 0.16987 0.0
H4295 H 0.10251 0.58295 0.19676 0.0
C4296 C 0.38163 0.88792 0.81219 0.0
C4297 C 0.37666 0.87007 0.81273 0.0
C4298 C 0.38939 0.89493 0.797 0.0
C4299 C 0.40692 0.88275 0.75269 0.0
H4300 H 0.37316 0.91718 0.73581 0.0
C4301 C 0.35882 0.88342 0.69394 0.0
C4302 C 0.36978 0.87892 0.67978 0.0
C4303 C 0.36589 0.89092 0.70912 0.0
C4304 C 0.38304 0.90791 0.74034 0.0
H4305 H 0.37752 0.8452 0.79872 0.0
H4306 H 0.39103 0.85728 0.77242 0.0
H4307 H 0.37674 0.91264 0.76734 0.0
H4308 H 0.39649 0.87993 0.66975 0.0
H4309 H 0.40902 0.89263 0.69671 0.0
H4310 H 0.41173 0.8766 0.72566 0.0
C4311 C 0.389 0.86597 0.78357 0.0
C4312 C 0.3852 0.90538 0.75843 0.0
C4313 C 0.38102 0.85905 0.79856 0.0
C4314 C 0.38777 0.88326 0.68054 0.0
C4315 C 0.39493 0.89052 0.69592 0.0
C4316 C 0.40474 0.88526 0.73459 0.0
C4317 C 0.39257 0.88412 0.78231 0.0
C4318 C 0.39609 0.89176 0.76469 0.0
C4319 C 0.38412 0.89385 0.71057 0.0
C4320 C 0.39171 0.89684 0.72831 0.0
H4321 H 0.37843 0.8967 0.82298 0.0
H4322 H 0.39202 0.90896 0.79638 0.0
H4323 H 0.41569 0.87242 0.7572 0.0
H4324 H 0.34488 0.88038 0.69361 0.0
H4325 H 0.3572 0.89307 0.72023 0.0
C4326 C 0.10764 0.38417 0.80948 0.0
C4327 C 0.12533 0.37897 0.81122 0.0
C4328 C 0.10157 0.39139 0.79361 0.0
C4329 C 0.1163 0.40735 0.74945 0.0
H4330 H 0.08038 0.37559 0.73184 0.0
C4331 C 0.11202 0.36101 0.68864 0.0
C4332 C 0.11737 0.37227 0.67499 0.0
C4333 C 0.10524 0.36791 0.70422 0.0
C4334 C 0.09015 0.38486 0.73657 0.0
H4335 H 0.15087 0.37884 0.79848 0.0
H4336 H 0.14041 0.39137 0.771 0.0
H4337 H 0.08472 0.37863 0.76347 0.0
H4338 H 0.11849 0.39945 0.66626 0.0
H4339 H 0.10691 0.41163 0.69385 0.0
H4340 H 0.12296 0.41216 0.72253 0.0
C4341 C 0.13114 0.38994 0.78175 0.0
C4342 C 0.09256 0.38673 0.75472 0.0
C4343 C 0.13713 0.38255 0.79745 0.0
C4344 C 0.11446 0.39049 0.67662 0.0
C4345 C 0.10789 0.39746 0.69239 0.0
C4346 C 0.11391 0.40546 0.7313 0.0
C4347 C 0.11317 0.39376 0.77937 0.0
C4348 C 0.1065 0.39702 0.76128 0.0
C4349 C 0.10387 0.38624 0.7066 0.0
C4350 C 0.10165 0.39322 0.72472 0.0
H4351 H 0.09825 0.38159 0.8199 0.0
H4352 H 0.08767 0.39428 0.79216 0.0
H4353 H 0.12692 0.41565 0.75416 0.0
H4354 H 0.11398 0.3469 0.68765 0.0
H4355 H 0.10248 0.35888 0.71493 0.0
C4356 C 0.61188 0.10601 0.812 0.0
C4357 C 0.6169 0.12378 0.81372 0.0
C4358 C 0.60487 0.09984 0.79609 0.0
C4359 C 0.6103 0.09104 0.75724 0.0
H4360 H 0.58372 0.12032 0.72488 0.0
C4361 C 0.63429 0.11042 0.69019 0.0
C4362 C 0.62255 0.11472 0.67657 0.0
C4363 C 0.62803 0.10386 0.70614 0.0
C4364 C 0.59077 0.11159 0.73371 0.0
H4365 H 0.61688 0.14932 0.80093 0.0
H4366 H 0.60461 0.13868 0.77337 0.0
H4367 H 0.58033 0.1245 0.75651 0.0
H4368 H 0.59518 0.11421 0.66838 0.0
H4369 H 0.58414 0.10306 0.69659 0.0
H4370 H 0.62175 0.07906 0.73441 0.0
C4371 C 0.60607 0.12944 0.78416 0.0
C4372 C 0.58892 0.1141 0.75185 0.0
C4373 C 0.61329 0.13554 0.79991 0.0
C4374 C 0.60453 0.111 0.67869 0.0
C4375 C 0.5982 0.10467 0.69482 0.0
C4376 C 0.61218 0.08856 0.7391 0.0
C4377 C 0.6025 0.1114 0.7818 0.0
C4378 C 0.59954 0.10465 0.76372 0.0
C4379 C 0.60985 0.10168 0.70891 0.0
C4380 C 0.60331 0.09962 0.72719 0.0
H4381 H 0.61451 0.09665 0.82245 0.0
H4382 H 0.60218 0.08589 0.79463 0.0
H4383 H 0.61866 0.08352 0.76604 0.0
H4384 H 0.64826 0.11303 0.68885 0.0
H4385 H 0.63736 0.10189 0.71678 0.0
C4386 C 0.87895 0.63531 0.69244 0.0
C4387 C 0.87479 0.62368 0.67869 0.0
C4388 C 0.8861 0.62898 0.70813 0.0
C4389 C 0.90303 0.61323 0.74029 0.0
H4390 H 0.86939 0.57919 0.75815 0.0
C4391 C 0.88711 0.61188 0.81334 0.0
C4392 C 0.86914 0.61591 0.8153 0.0
C4393 C 0.8934 0.60506 0.7974 0.0
C4394 C 0.87918 0.58841 0.75334 0.0
H4395 H 0.87611 0.59646 0.67 0.0
H4396 H 0.88833 0.5853 0.69771 0.0
H4397 H 0.87242 0.58335 0.72649 0.0
H4398 H 0.84344 0.61427 0.80298 0.0
H4399 H 0.85427 0.60237 0.77537 0.0
H4400 H 0.90847 0.61957 0.76717 0.0
C4401 C 0.88611 0.59934 0.69626 0.0
C4402 C 0.88102 0.59071 0.73518 0.0
C4403 C 0.87915 0.60573 0.68042 0.0
C4404 C 0.85738 0.61146 0.80175 0.0
C4405 C 0.8636 0.60444 0.78598 0.0
C4406 C 0.90118 0.61094 0.75845 0.0
C4407 C 0.88907 0.61083 0.71048 0.0
C4408 C 0.89206 0.60402 0.72855 0.0
C4409 C 0.88175 0.60192 0.78333 0.0
C4410 C 0.88833 0.59939 0.76512 0.0
H4411 H 0.87589 0.64923 0.69141 0.0
H4412 H 0.88801 0.63818 0.71887 0.0
H4413 H 0.91187 0.62337 0.7355 0.0
H4414 H 0.89647 0.61518 0.82361 0.0
H4415 H 0.90744 0.60319 0.79573 0.0
C4416 C 0.17769 0.38193 0.10437 0.0
C4417 C 0.17632 0.37678 0.12212 0.0
C4418 C 0.19339 0.38918 0.098 0.0
C4419 C 0.23203 0.38399 0.08854 0.0
H4420 H 0.26494 0.40943 0.11818 0.0
C4421 C 0.29757 0.35737 0.10845 0.0
C4422 C 0.31156 0.36846 0.11321 0.0
C4423 C 0.28207 0.36443 0.1016 0.0
C4424 C 0.25597 0.40273 0.10933 0.0
H4425 H 0.18948 0.37687 0.14748 0.0
H4426 H 0.21668 0.38949 0.1365 0.0
H4427 H 0.23343 0.41354 0.12235 0.0
H4428 H 0.32095 0.39545 0.1133 0.0
H4429 H 0.29351 0.40791 0.10165 0.0
H4430 H 0.25457 0.37217 0.07643 0.0
C4431 C 0.20578 0.38797 0.1274 0.0
C4432 C 0.23789 0.40499 0.11184 0.0
C4433 C 0.19024 0.38053 0.13369 0.0
C4434 C 0.31032 0.38662 0.10971 0.0
C4435 C 0.29464 0.39375 0.1031 0.0
C4436 C 0.2501 0.38175 0.08603 0.0
C4437 C 0.20783 0.39165 0.10935 0.0
C4438 C 0.2258 0.39466 0.10235 0.0
C4439 C 0.28014 0.38276 0.0996 0.0
C4440 C 0.2622 0.39011 0.09729 0.0
H4441 H 0.16712 0.37921 0.09516 0.0
H4442 H 0.19459 0.39195 0.08405 0.0
H4443 H 0.22307 0.37588 0.08094 0.0
H4444 H 0.29825 0.34331 0.11088 0.0
H4445 H 0.27111 0.35559 0.09926 0.0
C4446 C 0.19068 0.60812 0.85866 0.0
C4447 C 0.17799 0.61471 0.87032 0.0
C4448 C 0.2058 0.59998 0.8651 0.0
C4449 C 0.23586 0.60665 0.89982 0.0
H4450 H 0.26138 0.5709 0.87378 0.0
C4451 C 0.30994 0.61333 0.8869 0.0
C4452 C 0.31162 0.61533 0.86858 0.0
C4453 C 0.29465 0.6057 0.89396 0.0
C4454 C 0.25443 0.58061 0.8816 0.0
H4455 H 0.17054 0.61722 0.89776 0.0
H4456 H 0.19761 0.60355 0.90914 0.0
H4457 H 0.22924 0.57057 0.87388 0.0
H4458 H 0.29969 0.60992 0.84324 0.0
H4459 H 0.2734 0.59641 0.85537 0.0
H4460 H 0.261 0.61786 0.90588 0.0
C4461 C 0.19559 0.60435 0.89503 0.0
C4462 C 0.23606 0.58042 0.88164 0.0
C4463 C 0.18017 0.61216 0.88854 0.0
C4464 C 0.29854 0.60863 0.85742 0.0
C4465 C 0.28362 0.60068 0.86439 0.0
C4466 C 0.25427 0.60687 0.89973 0.0
C4467 C 0.20872 0.59859 0.88334 0.0
C4468 C 0.22668 0.59426 0.88957 0.0
C4469 C 0.28126 0.59954 0.88272 0.0
C4470 C 0.26361 0.5947 0.88939 0.0
H4471 H 0.18922 0.60988 0.84456 0.0
H4472 H 0.21581 0.59595 0.85576 0.0
H4473 H 0.22895 0.61746 0.90608 0.0
H4474 H 0.31997 0.61841 0.89569 0.0
H4475 H 0.29303 0.60512 0.90813 0.0
C4476 C 0.37388 0.18101 0.89132 0.0
C4477 C 0.37263 0.1778 0.87313 0.0
C4478 C 0.38143 0.19672 0.89745 0.0
C4479 C 0.37988 0.23728 0.90006 0.0
H4480 H 0.41817 0.26076 0.87577 0.0
C4481 C 0.38466 0.30081 0.85755 0.0
C4482 C 0.37721 0.31379 0.86832 0.0
C4483 C 0.3913 0.28537 0.86487 0.0
C4484 C 0.40765 0.25439 0.88302 0.0
H4485 H 0.37943 0.18747 0.84718 0.0
H4486 H 0.39297 0.21452 0.85778 0.0
H4487 H 0.41718 0.2286 0.87665 0.0
H4488 H 0.37142 0.32145 0.89516 0.0
H4489 H 0.38256 0.2938 0.90815 0.0
H4490 H 0.36936 0.26299 0.90485 0.0
C4491 C 0.38812 0.20512 0.86737 0.0
C4492 C 0.40711 0.236 0.88354 0.0
C4493 C 0.38023 0.18973 0.86127 0.0
C4494 C 0.3772 0.31154 0.88668 0.0
C4495 C 0.38355 0.2958 0.89405 0.0
C4496 C 0.38039 0.25569 0.89948 0.0
C4497 C 0.38823 0.2091 0.88547 0.0
C4498 C 0.39255 0.22733 0.89095 0.0
C4499 C 0.39032 0.28241 0.88313 0.0
C4500 C 0.39359 0.26434 0.88982 0.0
H4501 H 0.36799 0.17198 0.90068 0.0
H4502 H 0.38127 0.19955 0.91144 0.0
H4503 H 0.36849 0.23094 0.90587 0.0
H4504 H 0.38478 0.30235 0.84335 0.0
H4505 H 0.39608 0.27523 0.85604 0.0
C4506 C 0.79691 0.35702 0.87753 0.0
C4507 C 0.81037 0.36872 0.87274 0.0
C4508 C 0.78146 0.36326 0.88504 0.0
C4509 C 0.75225 0.37897 0.90655 0.0
H4510 H 0.72603 0.40458 0.87097 0.0
C4511 C 0.6774 0.38716 0.87643 0.0
C4512 C 0.67476 0.36898 0.87394 0.0
C4513 C 0.69304 0.39332 0.88404 0.0
C4514 C 0.73314 0.39797 0.88144 0.0
H4515 H 0.81864 0.39603 0.87245 0.0
H4516 H 0.79072 0.40726 0.88489 0.0
H4517 H 0.75811 0.40474 0.87021 0.0
H4518 H 0.68547 0.34298 0.87883 0.0
H4519 H 0.71249 0.35359 0.89232 0.0
H4520 H 0.72729 0.37072 0.9167 0.0
C4521 C 0.7925 0.3932 0.88317 0.0
C4522 C 0.75155 0.39809 0.88101 0.0
C4523 C 0.80833 0.38683 0.87602 0.0
C4524 C 0.68724 0.35706 0.88051 0.0
C4525 C 0.70264 0.36317 0.8884 0.0
C4526 C 0.73388 0.37885 0.90699 0.0
C4527 C 0.77893 0.3814 0.88766 0.0
C4528 C 0.76116 0.38749 0.89274 0.0
C4529 C 0.70603 0.38135 0.88961 0.0
C4530 C 0.7242 0.38724 0.89362 0.0
H4531 H 0.79828 0.34297 0.8753 0.0
H4532 H 0.7711 0.3539 0.88803 0.0
H4533 H 0.75943 0.37085 0.91586 0.0
H4534 H 0.66796 0.39663 0.8714 0.0
H4535 H 0.69537 0.40739 0.88477 0.0
C4536 C 0.60749 0.79884 0.86199 0.0
C4537 C 0.6148 0.81126 0.87353 0.0
C4538 C 0.5996 0.78363 0.86854 0.0
C4539 C 0.58072 0.75317 0.88552 0.0
H4540 H 0.61908 0.72742 0.90732 0.0
C4541 C 0.61343 0.67894 0.88817 0.0
C4542 C 0.61404 0.67726 0.86976 0.0
C4543 C 0.60624 0.69419 0.8958 0.0
C4544 C 0.60787 0.73437 0.90186 0.0
H4545 H 0.61888 0.81816 0.90093 0.0
H4546 H 0.60565 0.79092 0.91249 0.0
H4547 H 0.61908 0.75948 0.90804 0.0
H4548 H 0.60659 0.68911 0.84491 0.0
H4549 H 0.59385 0.71534 0.85801 0.0
H4550 H 0.57043 0.72806 0.87784 0.0
C4551 C 0.6057 0.79322 0.8984 0.0
C4552 C 0.60787 0.75279 0.90226 0.0
C4553 C 0.61324 0.80873 0.89181 0.0
C4554 C 0.60633 0.69025 0.85915 0.0
C4555 C 0.59884 0.70515 0.8667 0.0
C4556 C 0.58067 0.73478 0.88519 0.0
C4557 C 0.59919 0.78035 0.88677 0.0
C4558 C 0.59505 0.76229 0.89285 0.0
C4559 C 0.59918 0.70758 0.88505 0.0
C4560 C 0.59502 0.7253 0.89208 0.0
H4561 H 0.60848 0.80057 0.84785 0.0
H4562 H 0.59499 0.77383 0.85923 0.0
H4563 H 0.57053 0.76024 0.87841 0.0
H4564 H 0.61934 0.66899 0.89655 0.0
H4565 H 0.60678 0.69582 0.90997 0.0
C4566 C 0.68848 0.63674 0.11485 0.0
C4567 C 0.67472 0.62472 0.11762 0.0
C4568 C 0.70419 0.63123 0.10714 0.0
C4569 C 0.73127 0.59275 0.10837 0.0
H4570 H 0.7632 0.62404 0.08368 0.0
C4571 C 0.80949 0.6139 0.1038 0.0
C4572 C 0.81154 0.61656 0.12202 0.0
C4573 C 0.79347 0.60773 0.09706 0.0
C4574 C 0.75449 0.61477 0.09015 0.0
H4575 H 0.66605 0.59782 0.11331 0.0
H4576 H 0.69382 0.58805 0.10013 0.0
H4577 H 0.73153 0.62824 0.08079 0.0
H4578 H 0.79933 0.61316 0.14757 0.0
H4579 H 0.77159 0.60226 0.13596 0.0
H4580 H 0.75426 0.58017 0.11884 0.0
C4581 C 0.69234 0.60176 0.10383 0.0
C4582 C 0.73633 0.61728 0.0886 0.0
C4583 C 0.67647 0.60737 0.11134 0.0
C4584 C 0.79802 0.61136 0.13347 0.0
C4585 C 0.78218 0.60494 0.12679 0.0
C4586 C 0.74943 0.59026 0.10996 0.0
C4587 C 0.70656 0.61351 0.10223 0.0
C4588 C 0.72463 0.60705 0.09863 0.0
C4589 C 0.77943 0.60384 0.10849 0.0
C4590 C 0.76118 0.60201 0.10181 0.0
H4591 H 0.68744 0.65023 0.11942 0.0
H4592 H 0.71495 0.64057 0.10629 0.0
H4593 H 0.72259 0.58462 0.11625 0.0
H4594 H 0.81974 0.61784 0.09468 0.0
H4595 H 0.7917 0.60697 0.08292 0.0
C4596 C 0.38068 0.80093 0.12983 0.0
C4597 C 0.37332 0.81289 0.11783 0.0
C4598 C 0.38882 0.78561 0.12385 0.0
C4599 C 0.40844 0.75497 0.10805 0.0
H4600 H 0.37139 0.72787 0.08563 0.0
C4601 C 0.37843 0.67955 0.10426 0.0
C4602 C 0.3778 0.67746 0.12263 0.0
C4603 C 0.38519 0.69515 0.09698 0.0
C4604 C 0.38225 0.7352 0.09131 0.0
H4605 H 0.36938 0.81885 0.09019 0.0
H4606 H 0.38308 0.79142 0.07964 0.0
H4607 H 0.3704 0.75992 0.08466 0.0
H4608 H 0.38482 0.68899 0.14774 0.0
H4609 H 0.39683 0.71586 0.13522 0.0
H4610 H 0.41941 0.73024 0.11607 0.0
C4611 C 0.38286 0.79416 0.09365 0.0
C4612 C 0.38166 0.75361 0.09076 0.0
C4613 C 0.37506 0.80979 0.09966 0.0
C4614 C 0.38515 0.69041 0.13353 0.0
C4615 C 0.3922 0.70571 0.12631 0.0
C4616 C 0.40907 0.73658 0.10853 0.0
C4617 C 0.38944 0.78175 0.10575 0.0
C4618 C 0.39403 0.76359 0.10027 0.0
C4619 C 0.39176 0.70855 0.10801 0.0
C4620 C 0.39522 0.72659 0.10134 0.0
H4621 H 0.37954 0.8031 0.1439 0.0
H4622 H 0.39348 0.77618 0.13352 0.0
H4623 H 0.41829 0.7624 0.11524 0.0
H4624 H 0.37276 0.66967 0.09566 0.0
H4625 H 0.38462 0.69706 0.08284 0.0
C4626 C 0.60777 0.18915 0.13133 0.0
C4627 C 0.61443 0.17642 0.11974 0.0
C4628 C 0.59851 0.20361 0.12487 0.0
C4629 C 0.57664 0.2323 0.10847 0.0
H4630 H 0.61191 0.25821 0.08217 0.0
C4631 C 0.60768 0.30676 0.10226 0.0
C4632 C 0.61096 0.30797 0.12044 0.0
C4633 C 0.59979 0.29155 0.0953 0.0
C4634 C 0.60146 0.25118 0.08888 0.0
H4635 H 0.61588 0.16823 0.09239 0.0
H4636 H 0.60024 0.19414 0.08096 0.0
H4637 H 0.61264 0.22617 0.08234 0.0
H4638 H 0.60746 0.29526 0.14575 0.0
H4639 H 0.59352 0.26911 0.13383 0.0
H4640 H 0.56668 0.2574 0.11656 0.0
C4641 C 0.60188 0.19264 0.09506 0.0
C4642 C 0.60189 0.23278 0.08901 0.0
C4643 C 0.61084 0.1779 0.10161 0.0
C4644 C 0.60526 0.29448 0.13165 0.0
C4645 C 0.59701 0.27964 0.12483 0.0
C4646 C 0.57617 0.25068 0.10827 0.0
C4647 C 0.59601 0.20583 0.10663 0.0
C4648 C 0.59045 0.22332 0.10007 0.0
C4649 C 0.59458 0.27778 0.10658 0.0
C4650 C 0.58958 0.26022 0.0998 0.0
H4651 H 0.61024 0.18823 0.14537 0.0
H4652 H 0.59442 0.21372 0.13409 0.0
H4653 H 0.56748 0.22525 0.11684 0.0
H4654 H 0.61195 0.31713 0.09343 0.0
H4655 H 0.59823 0.29029 0.08117 0.0
C4656 C 0.86263 0.79955 0.61002 0.0
C4657 C 0.8739 0.81228 0.61717 0.0
C4658 C 0.86951 0.78483 0.60152 0.0
C4659 C 0.88699 0.75563 0.58127 0.0
H4660 H 0.9096 0.72971 0.61908 0.0
C4661 C 0.88899 0.68147 0.61371 0.0
C4662 C 0.8706 0.68062 0.61546 0.0
C4663 C 0.89686 0.69646 0.60625 0.0
C4664 C 0.90395 0.73672 0.60798 0.0
H4665 H 0.90113 0.82024 0.62041 0.0
H4666 H 0.91329 0.79379 0.60617 0.0
H4667 H 0.91018 0.76178 0.61928 0.0
H4668 H 0.84592 0.69373 0.60974 0.0
H4669 H 0.85944 0.7195 0.5965 0.0
H4670 H 0.87909 0.73056 0.57107 0.0
C4671 C 0.89914 0.79552 0.60676 0.0
C4672 C 0.90427 0.75514 0.6081 0.0
C4673 C 0.8922 0.81055 0.61491 0.0
C4674 C 0.86015 0.69424 0.60867 0.0
C4675 C 0.86791 0.70885 0.60086 0.0
C4676 C 0.88673 0.73724 0.58112 0.0
C4677 C 0.88782 0.78235 0.60035 0.0
C4678 C 0.89445 0.76465 0.5956 0.0
C4679 C 0.88633 0.71037 0.59996 0.0
C4680 C 0.89384 0.72774 0.59535 0.0
H4681 H 0.84848 0.80068 0.61153 0.0
H4682 H 0.86045 0.77475 0.59701 0.0
H4683 H 0.87957 0.76272 0.57134 0.0
H4684 H 0.89724 0.67101 0.61885 0.0
H4685 H 0.91109 0.69745 0.60589 0.0
C4686 C 0.29637 0.88286 0.63222 0.0
C4687 C 0.31045 0.87837 0.62115 0.0
C4688 C 0.28089 0.88976 0.62519 0.0
C4689 C 0.25488 0.8827 0.58675 0.0
H4690 H 0.22211 0.91082 0.61398 0.0
C4691 C 0.17692 0.88718 0.60856 0.0
C4692 C 0.17576 0.86938 0.61361 0.0
C4693 C 0.19242 0.8937 0.601 0.0
C4694 C 0.23103 0.90332 0.60575 0.0
H4695 H 0.31997 0.87875 0.59423 0.0
H4696 H 0.29252 0.89044 0.58179 0.0
H4697 H 0.25362 0.91527 0.61766 0.0
H4698 H 0.18901 0.84409 0.613 0.0
H4699 H 0.21586 0.85532 0.59987 0.0
H4700 H 0.23229 0.86979 0.57587 0.0
C4701 C 0.2936 0.88877 0.59593 0.0
C4702 C 0.24911 0.90579 0.60798 0.0
C4703 C 0.30927 0.88211 0.60304 0.0
C4704 C 0.18963 0.85791 0.60942 0.0
C4705 C 0.20496 0.86434 0.60169 0.0
C4706 C 0.23679 0.88023 0.58451 0.0
C4707 C 0.27905 0.89208 0.60689 0.0
C4708 C 0.26115 0.89458 0.59951 0.0
C4709 C 0.20685 0.88244 0.59815 0.0
C4710 C 0.22475 0.88959 0.59499 0.0
H4711 H 0.297 0.88025 0.64625 0.0
H4712 H 0.26988 0.89193 0.634 0.0
H4713 H 0.26382 0.8739 0.57995 0.0
H4714 H 0.16638 0.89632 0.61159 0.0
H4715 H 0.19349 0.90769 0.59833 0.0
C4716 C 0.10705 0.19381 0.63124 0.0
C4717 C 0.11385 0.18036 0.62062 0.0
C4718 C 0.09981 0.20884 0.62367 0.0
C4719 C 0.0816 0.23846 0.60502 0.0
H4720 H 0.12018 0.26208 0.5814 0.0
C4721 C 0.11591 0.31152 0.59748 0.0
C4722 C 0.11764 0.31412 0.61573 0.0
C4723 C 0.10789 0.29618 0.59102 0.0
C4724 C 0.10891 0.2557 0.58739 0.0
H4725 H 0.11787 0.17144 0.59383 0.0
H4726 H 0.10584 0.1985 0.58034 0.0
H4727 H 0.11949 0.23003 0.58246 0.0
H4728 H 0.11119 0.30378 0.64151 0.0
H4729 H 0.0969 0.27736 0.63038 0.0
H4730 H 0.07209 0.26419 0.61161 0.0
C4731 C 0.10576 0.19712 0.59454 0.0
C4732 C 0.10851 0.23729 0.58799 0.0
C4733 C 0.11265 0.18175 0.60221 0.0
C4734 C 0.11006 0.30198 0.62738 0.0
C4735 C 0.10172 0.28696 0.62098 0.0
C4736 C 0.08201 0.25685 0.60446 0.0
C4737 C 0.09954 0.21091 0.60526 0.0
C4738 C 0.09563 0.22862 0.59805 0.0
C4739 C 0.10111 0.28357 0.60277 0.0
C4740 C 0.09644 0.26557 0.59685 0.0
H4741 H 0.10778 0.19291 0.64549 0.0
H4742 H 0.09548 0.21936 0.6323 0.0
H4743 H 0.07135 0.23204 0.61261 0.0
H4744 H 0.12175 0.32074 0.58827 0.0
H4745 H 0.1077 0.29379 0.57695 0.0
C4746 C 0.81278 0.10229 0.61295 0.0
C4747 C 0.81512 0.12044 0.61593 0.0
C4748 C 0.79738 0.09611 0.60489 0.0
C4749 C 0.75711 0.0914 0.60657 0.0
H4750 H 0.73213 0.11773 0.5706 0.0
C4751 C 0.69318 0.13256 0.6068 0.0
C4752 C 0.68039 0.12104 0.61343 0.0
C4753 C 0.70849 0.12602 0.59922 0.0
C4754 C 0.73894 0.10988 0.58039 0.0
H4755 H 0.8041 0.14641 0.61156 0.0
H4756 H 0.77749 0.13573 0.59721 0.0
H4757 H 0.76428 0.11817 0.57119 0.0
H4758 H 0.67292 0.0937 0.6167 0.0
H4759 H 0.70048 0.08202 0.60401 0.0
H4760 H 0.7318 0.08475 0.61697 0.0
C4761 C 0.78741 0.12623 0.60112 0.0
C4762 C 0.75732 0.11014 0.58073 0.0
C4763 C 0.80255 0.13236 0.6095 0.0
C4764 C 0.68273 0.10277 0.61167 0.0
C4765 C 0.69838 0.09614 0.60439 0.0
C4766 C 0.73871 0.09124 0.6063 0.0
C4767 C 0.78438 0.10804 0.5993 0.0
C4768 C 0.76646 0.10199 0.5946 0.0
C4769 C 0.71152 0.10777 0.59837 0.0
C4770 C 0.72951 0.10164 0.59404 0.0
H4771 H 0.8223 0.09284 0.61785 0.0
H4772 H 0.79528 0.08203 0.60373 0.0
H4773 H 0.76384 0.08498 0.6174 0.0
H4774 H 0.69154 0.14672 0.60788 0.0
H4775 H 0.71845 0.13535 0.59506 0.0
C4776 C 0.87912 0.1831 0.38717 0.0
C4777 C 0.87841 0.18052 0.36887 0.0
C4778 C 0.88578 0.19895 0.39398 0.0
C4779 C 0.88253 0.23903 0.39873 0.0
H4780 H 0.91745 0.2662 0.3732 0.0
C4781 C 0.87854 0.30363 0.3585 0.0
C4782 C 0.87135 0.31577 0.37041 0.0
C4783 C 0.88716 0.28862 0.36462 0.0
C4784 C 0.90793 0.2588 0.38083 0.0
H4785 H 0.88519 0.19142 0.34341 0.0
H4786 H 0.89695 0.21873 0.35511 0.0
H4787 H 0.91926 0.23407 0.3734 0.0
H4788 H 0.86826 0.32234 0.39804 0.0
H4789 H 0.88282 0.2955 0.40882 0.0
H4790 H 0.87034 0.26369 0.40488 0.0
C4791 C 0.89249 0.20878 0.36434 0.0
C4792 C 0.90894 0.24042 0.38094 0.0
C4793 C 0.88557 0.19324 0.35758 0.0
C4794 C 0.87377 0.31316 0.38859 0.0
C4795 C 0.88207 0.29786 0.39476 0.0
C4796 C 0.88159 0.25743 0.39873 0.0
C4797 C 0.89215 0.21212 0.38255 0.0
C4798 C 0.89545 0.23038 0.38869 0.0
C4799 C 0.88845 0.28526 0.3828 0.0
C4800 C 0.89352 0.26735 0.38865 0.0
H4801 H 0.87362 0.17337 0.39605 0.0
H4802 H 0.88529 0.20123 0.40807 0.0
H4803 H 0.87194 0.23167 0.40484 0.0
H4804 H 0.87691 0.30541 0.34442 0.0
H4805 H 0.89169 0.27902 0.35508 0.0
C4806 C 0.69018 0.87678 0.35229 0.0
C4807 C 0.67621 0.87451 0.36417 0.0
C4808 C 0.70557 0.88529 0.35757 0.0
C4809 C 0.73693 0.90568 0.37073 0.0
H4810 H 0.7545 0.87931 0.41085 0.0
C4811 C 0.81012 0.89197 0.37682 0.0
C4812 C 0.8122 0.87362 0.37545 0.0
C4813 C 0.794 0.89906 0.3823 0.0
C4814 C 0.74975 0.88717 0.3999 0.0
H4815 H 0.66684 0.88062 0.39049 0.0
H4816 H 0.69399 0.89526 0.39982 0.0
H4817 H 0.72294 0.88069 0.40538 0.0
H4818 H 0.80003 0.8483 0.38036 0.0
H4819 H 0.77217 0.86052 0.39022 0.0
H4820 H 0.76386 0.91064 0.36427 0.0
C4821 C 0.69296 0.89047 0.38641 0.0
C4822 C 0.73165 0.88805 0.3968 0.0
C4823 C 0.67743 0.8821 0.38105 0.0
C4824 C 0.79867 0.86249 0.38126 0.0
C4825 C 0.78277 0.86954 0.38706 0.0
C4826 C 0.75504 0.90482 0.37386 0.0
C4827 C 0.70739 0.8916 0.3749 0.0
C4828 C 0.72518 0.89626 0.38149 0.0
C4829 C 0.77996 0.88786 0.38682 0.0
C4830 C 0.76163 0.89449 0.38776 0.0
H4831 H 0.68957 0.87125 0.33914 0.0
H4832 H 0.71651 0.88574 0.34843 0.0
H4833 H 0.73226 0.91236 0.35901 0.0
H4834 H 0.82039 0.9008 0.37231 0.0
H4835 H 0.79216 0.91322 0.382 0.0
C4836 C 0.10901 0.79772 0.3599 0.0
C4837 C 0.11578 0.81111 0.37065 0.0
C4838 C 0.10097 0.78306 0.36734 0.0
C4839 C 0.10695 0.75428 0.40278 0.0
H4840 H 0.06903 0.7302 0.37841 0.0
C4841 C 0.10548 0.6916 0.36087 0.0
C4842 C 0.1127 0.67871 0.37194 0.0
C4843 C 0.09761 0.70656 0.36798 0.0
C4844 C 0.07935 0.73676 0.3858 0.0
H4845 H 0.11901 0.82022 0.39749 0.0
H4846 H 0.10565 0.79367 0.41077 0.0
H4847 H 0.07021 0.76235 0.37823 0.0
H4848 H 0.11657 0.67069 0.39908 0.0
H4849 H 0.10338 0.69748 0.41164 0.0
H4850 H 0.1172 0.72869 0.40864 0.0
C4851 C 0.1062 0.79489 0.39656 0.0
C4852 C 0.08 0.75514 0.38573 0.0
C4853 C 0.11388 0.80994 0.38902 0.0
C4854 C 0.11101 0.68049 0.3903 0.0
C4855 C 0.10347 0.69574 0.39747 0.0
C4856 C 0.10629 0.73587 0.40287 0.0
C4857 C 0.09982 0.78127 0.38572 0.0
C4858 C 0.09463 0.76392 0.3929 0.0
C4859 C 0.09713 0.70912 0.38633 0.0
C4860 C 0.0933 0.72701 0.39307 0.0
H4861 H 0.11019 0.79846 0.34568 0.0
H4862 H 0.09654 0.77261 0.35866 0.0
H4863 H 0.11835 0.76075 0.40845 0.0
H4864 H 0.10657 0.69045 0.34667 0.0
H4865 H 0.09313 0.71676 0.35903 0.0
C4866 C 0.17869 0.10227 0.37865 0.0
C4867 C 0.17656 0.1205 0.37611 0.0
C4868 C 0.19406 0.09575 0.38654 0.0
C4869 C 0.23432 0.09091 0.38439 0.0
H4870 H 0.2598 0.11664 0.42043 0.0
C4871 C 0.29766 0.13272 0.38342 0.0
C4872 C 0.31055 0.12145 0.37655 0.0
C4873 C 0.28258 0.12587 0.39119 0.0
C4874 C 0.25285 0.10892 0.41061 0.0
H4875 H 0.18779 0.14625 0.38105 0.0
H4876 H 0.21429 0.13501 0.39514 0.0
H4877 H 0.22765 0.11678 0.4205 0.0
H4878 H 0.3184 0.09425 0.373 0.0
H4879 H 0.29123 0.08204 0.386 0.0
H4880 H 0.25948 0.08472 0.37334 0.0
C4881 C 0.20429 0.12568 0.39104 0.0
C4882 C 0.23448 0.10901 0.41066 0.0
C4883 C 0.18921 0.13215 0.38281 0.0
C4884 C 0.30853 0.10313 0.37823 0.0
C4885 C 0.2931 0.09619 0.38568 0.0
C4886 C 0.25272 0.09089 0.38429 0.0
C4887 C 0.20719 0.10742 0.39238 0.0
C4888 C 0.22512 0.10116 0.39676 0.0
C4889 C 0.27987 0.10756 0.39198 0.0
C4890 C 0.26207 0.1011 0.39659 0.0
H4891 H 0.16909 0.09305 0.37349 0.0
H4892 H 0.19606 0.08163 0.38731 0.0
H4893 H 0.22743 0.08472 0.37352 0.0
H4894 H 0.29905 0.1469 0.38238 0.0
H4895 H 0.27252 0.135 0.39557 0.0
C4896 C 0.60737 0.88553 0.81277 0.0
C4897 C 0.61307 0.86789 0.81333 0.0
C4898 C 0.59928 0.8922 0.79759 0.0
C4899 C 0.6026 0.90266 0.75886 0.0
H4900 H 0.57643 0.87285 0.72668 0.0
C4901 C 0.62839 0.88093 0.69418 0.0
C4902 C 0.61732 0.87617 0.68018 0.0
C4903 C 0.6214 0.88836 0.7094 0.0
C4904 C 0.58328 0.88179 0.73546 0.0
H4905 H 0.6133 0.84302 0.7993 0.0
H4906 H 0.59921 0.85452 0.773 0.0
H4907 H 0.57332 0.86861 0.75831 0.0
H4908 H 0.59047 0.87658 0.67046 0.0
H4909 H 0.57805 0.88912 0.69755 0.0
H4910 H 0.61376 0.91478 0.73597 0.0
C4911 C 0.60091 0.86328 0.78414 0.0
C4912 C 0.58159 0.87925 0.7536 0.0
C4913 C 0.60922 0.85671 0.79913 0.0
C4914 C 0.59926 0.88014 0.68113 0.0
C4915 C 0.59217 0.88731 0.69658 0.0
C4916 C 0.60429 0.90521 0.74072 0.0
C4917 C 0.59648 0.88124 0.78292 0.0
C4918 C 0.59234 0.88869 0.76536 0.0
C4919 C 0.60313 0.89093 0.71107 0.0
C4920 C 0.59575 0.89379 0.7289 0.0
H4921 H 0.61016 0.89442 0.82358 0.0
H4922 H 0.59602 0.90609 0.79697 0.0
H4923 H 0.61098 0.91024 0.76759 0.0
H4924 H 0.64238 0.87815 0.69368 0.0
H4925 H 0.63019 0.89075 0.7204 0.0
C4926 C 0.13379 0.60831 0.69054 0.0
C4927 C 0.12296 0.61543 0.6774 0.0
C4928 C 0.12647 0.60084 0.70557 0.0
C4929 C 0.10832 0.58194 0.73502 0.0
H4930 H 0.08484 0.61978 0.76 0.0
C4931 C 0.1008 0.61369 0.80925 0.0
C4932 C 0.11903 0.61531 0.812 0.0
C4933 C 0.09441 0.60624 0.7936 0.0
C4934 C 0.0908 0.60872 0.75322 0.0
H4935 H 0.09604 0.61976 0.66905 0.0
H4936 H 0.08301 0.6073 0.69611 0.0
H4937 H 0.08564 0.6201 0.72793 0.0
H4938 H 0.14483 0.60917 0.80158 0.0
H4939 H 0.13381 0.59584 0.77461 0.0
H4940 H 0.11512 0.57162 0.76039 0.0
C4941 C 0.09718 0.60718 0.69448 0.0
C4942 C 0.09125 0.6089 0.73481 0.0
C4943 C 0.10458 0.61432 0.67911 0.0
C4944 C 0.13072 0.60812 0.79968 0.0
C4945 C 0.12437 0.60033 0.78433 0.0
C4946 C 0.10792 0.58179 0.75341 0.0
C4947 C 0.10812 0.60062 0.70796 0.0
C4948 C 0.10121 0.59627 0.72566 0.0
C4949 C 0.1062 0.59991 0.78081 0.0
C4950 C 0.10033 0.59592 0.76264 0.0
H4951 H 0.14801 0.60891 0.68939 0.0
H4952 H 0.13527 0.59624 0.71583 0.0
H4953 H 0.11584 0.57188 0.72823 0.0
H4954 H 0.09155 0.61925 0.81859 0.0
H4955 H 0.08035 0.60617 0.79113 0.0
C4956 C 0.38144 0.13083 0.69257 0.0
C4957 C 0.37428 0.11966 0.67974 0.0
C4958 C 0.38878 0.12391 0.70784 0.0
C4959 C 0.40741 0.10662 0.73795 0.0
H4960 H 0.36962 0.0837 0.76346 0.0
C4961 C 0.37579 0.10057 0.81234 0.0
C4962 C 0.374 0.11886 0.81473 0.0
C4963 C 0.38326 0.09394 0.79682 0.0
C4964 C 0.38065 0.08953 0.75654 0.0
H4965 H 0.36973 0.09252 0.67222 0.0
H4966 H 0.382 0.08019 0.69974 0.0
H4967 H 0.36936 0.08366 0.73138 0.0
H4968 H 0.37988 0.14453 0.80377 0.0
H4969 H 0.39325 0.13308 0.77701 0.0
H4970 H 0.41764 0.11414 0.76315 0.0
C4971 C 0.38223 0.09432 0.69767 0.0
C4972 C 0.38051 0.08949 0.73813 0.0
C4973 C 0.3752 0.10132 0.68204 0.0
C4974 C 0.38106 0.13039 0.80217 0.0
C4975 C 0.38887 0.1238 0.78693 0.0
C4976 C 0.40751 0.10673 0.75634 0.0
C4977 C 0.38885 0.10562 0.71081 0.0
C4978 C 0.39314 0.09922 0.72875 0.0
C4979 C 0.38944 0.10554 0.78378 0.0
C4980 C 0.39341 0.09933 0.76573 0.0
H4981 H 0.38095 0.14503 0.69096 0.0
H4982 H 0.39342 0.133 0.71783 0.0
H4983 H 0.41747 0.11397 0.73098 0.0
H4984 H 0.37034 0.09143 0.82186 0.0
H4985 H 0.38346 0.07983 0.79464 0.0
C4986 C 0.8746 0.38884 0.80881 0.0
C4987 C 0.87144 0.37061 0.80991 0.0
C4988 C 0.88161 0.3961 0.7933 0.0
C4989 C 0.87935 0.4022 0.75212 0.0
H4990 H 0.91675 0.37699 0.72812 0.0
C4991 C 0.88097 0.36117 0.68835 0.0
C4992 C 0.87413 0.37268 0.67563 0.0
C4993 C 0.88861 0.36779 0.70366 0.0
C4994 C 0.90658 0.38458 0.73465 0.0
H4995 H 0.87401 0.34558 0.7964 0.0
H4996 H 0.88654 0.35805 0.76977 0.0
H4997 H 0.91536 0.37663 0.76025 0.0
H4998 H 0.87072 0.40008 0.6683 0.0
H4999 H 0.88357 0.41175 0.69565 0.0
H5000 H 0.86937 0.40844 0.72649 0.0
C5001 C 0.88351 0.36681 0.78063 0.0
C5002 C 0.90583 0.38443 0.75302 0.0
C5003 C 0.87611 0.3597 0.79577 0.0
C5004 C 0.87601 0.39097 0.67795 0.0
C5005 C 0.88333 0.39763 0.69353 0.0
C5006 C 0.88009 0.40234 0.73371 0.0
C5007 C 0.88613 0.38506 0.77912 0.0
C5008 C 0.89142 0.39205 0.76177 0.0
C5009 C 0.88924 0.38606 0.70674 0.0
C5010 C 0.8929 0.39232 0.72486 0.0
H5011 H 0.87113 0.39745 0.81965 0.0
H5012 H 0.88331 0.41024 0.79227 0.0
H5013 H 0.8681 0.40814 0.75859 0.0
H5014 H 0.8797 0.34702 0.68681 0.0
H5015 H 0.89278 0.35851 0.7137 0.0
C5016 C 0.60216 0.11379 0.17906 0.0
C5017 C 0.62055 0.11464 0.17741 0.0
C5018 C 0.59461 0.10639 0.19423 0.0
C5019 C 0.60524 0.08005 0.23419 0.0
H5020 H 0.58231 0.11771 0.25992 0.0
C5021 C 0.62838 0.10493 0.2989 0.0
C5022 C 0.61696 0.11246 0.31127 0.0
C5023 C 0.62172 0.0972 0.28365 0.0
C5024 C 0.5881 0.1067 0.25293 0.0
H5025 H 0.64548 0.10758 0.18929 0.0
H5026 H 0.63249 0.09442 0.21542 0.0
H5027 H 0.58314 0.11868 0.2279 0.0
H5028 H 0.58964 0.11701 0.31811 0.0
H5029 H 0.5779 0.10404 0.29083 0.0
H5030 H 0.61183 0.06908 0.25934 0.0
C5031 C 0.62378 0.09938 0.20523 0.0
C5032 C 0.58857 0.10726 0.23453 0.0
C5033 C 0.63125 0.10709 0.1904 0.0
C5034 C 0.59867 0.11118 0.30872 0.0
C5035 C 0.59198 0.10379 0.29318 0.0
C5036 C 0.60478 0.0795 0.25257 0.0
C5037 C 0.60542 0.09935 0.20757 0.0
C5038 C 0.59838 0.09469 0.22514 0.0
C5039 C 0.60351 0.0972 0.28028 0.0
C5040 C 0.59744 0.09357 0.26209 0.0
H5041 H 0.59373 0.1196 0.1691 0.0
H5042 H 0.58044 0.10668 0.19582 0.0
H5043 H 0.61262 0.07003 0.2272 0.0
H5044 H 0.64252 0.10573 0.30065 0.0
H5045 H 0.63098 0.09251 0.27386 0.0
C5046 C 0.87511 0.63036 0.19733 0.0
C5047 C 0.87267 0.6207 0.18176 0.0
C5048 C 0.88293 0.62261 0.21195 0.0
C5049 C 0.88364 0.58219 0.23466 0.0
H5050 H 0.91048 0.61144 0.26684 0.0
C5051 C 0.85784 0.60362 0.29864 0.0
C5052 C 0.86856 0.609 0.31267 0.0
C5053 C 0.86519 0.59589 0.28377 0.0
C5054 C 0.9035 0.60259 0.25808 0.0
H5055 H 0.87698 0.59551 0.16901 0.0
H5056 H 0.89003 0.58147 0.19528 0.0
H5057 H 0.91271 0.61639 0.23529 0.0
H5058 H 0.89517 0.60949 0.32291 0.0
H5059 H 0.90836 0.59651 0.29625 0.0
H5060 H 0.87317 0.56948 0.25755 0.0
C5061 C 0.88618 0.59521 0.19585 0.0
C5062 C 0.90471 0.60552 0.23996 0.0
C5063 C 0.87866 0.60318 0.18094 0.0
C5064 C 0.8867 0.60548 0.31214 0.0
C5065 C 0.89419 0.59802 0.29697 0.0
C5066 C 0.8825 0.57918 0.2528 0.0
C5067 C 0.88831 0.6049 0.21151 0.0
C5068 C 0.89353 0.59646 0.2283 0.0
C5069 C 0.88353 0.59366 0.28241 0.0
C5070 C 0.89112 0.59053 0.26468 0.0
H5071 H 0.87086 0.64397 0.19826 0.0
H5072 H 0.88401 0.63031 0.22393 0.0
H5073 H 0.87503 0.57486 0.22594 0.0
H5074 H 0.84377 0.60603 0.2989 0.0
H5075 H 0.85657 0.59301 0.27276 0.0
C5076 C 0.38451 0.85396 0.29779 0.0
C5077 C 0.37845 0.86503 0.31126 0.0
C5078 C 0.39175 0.86104 0.28254 0.0
C5079 C 0.41036 0.87855 0.25248 0.0
H5080 H 0.37284 0.90419 0.22914 0.0
C5081 C 0.37655 0.88865 0.17942 0.0
C5082 C 0.3741 0.87054 0.17644 0.0
C5083 C 0.38471 0.89447 0.19494 0.0
C5084 C 0.38383 0.8976 0.23545 0.0
H5085 H 0.37583 0.89209 0.31991 0.0
H5086 H 0.38789 0.90472 0.29249 0.0
H5087 H 0.37368 0.90299 0.26119 0.0
H5088 H 0.3794 0.8443 0.18634 0.0
H5089 H 0.39391 0.85431 0.21308 0.0
H5090 H 0.41939 0.87161 0.22669 0.0
C5091 C 0.38735 0.89053 0.29403 0.0
C5092 C 0.38431 0.89692 0.25385 0.0
C5093 C 0.38045 0.88336 0.30961 0.0
C5094 C 0.38109 0.85834 0.18842 0.0
C5095 C 0.38956 0.8641 0.20363 0.0
C5096 C 0.40985 0.8792 0.23411 0.0
C5097 C 0.3928 0.87939 0.28025 0.0
C5098 C 0.39677 0.88625 0.26243 0.0
C5099 C 0.3909 0.8822 0.20738 0.0
C5100 C 0.39579 0.88759 0.22548 0.0
H5101 H 0.38321 0.83977 0.29888 0.0
H5102 H 0.3955 0.8521 0.27206 0.0
H5103 H 0.42028 0.87047 0.25883 0.0
H5104 H 0.37118 0.89828 0.17034 0.0
H5105 H 0.38548 0.90848 0.1976 0.0
C5106 C 0.10904 0.35685 0.3015 0.0
C5107 C 0.11505 0.36905 0.31401 0.0
C5108 C 0.10047 0.36262 0.28631 0.0
C5109 C 0.10464 0.39763 0.25589 0.0
H5110 H 0.06975 0.36999 0.23085 0.0
C5111 C 0.11028 0.38675 0.18149 0.0
C5112 C 0.1127 0.36857 0.17908 0.0
C5113 C 0.10271 0.39304 0.19715 0.0
C5114 C 0.07923 0.3782 0.23768 0.0
H5115 H 0.11599 0.39676 0.32102 0.0
H5116 H 0.1015 0.40692 0.29396 0.0
H5117 H 0.07039 0.36946 0.26301 0.0
H5118 H 0.10803 0.34265 0.19008 0.0
H5119 H 0.09472 0.35341 0.21701 0.0
H5120 H 0.11474 0.40479 0.23059 0.0
C5121 C 0.10316 0.3929 0.29613 0.0
C5122 C 0.07959 0.37788 0.25606 0.0
C5123 C 0.11143 0.38708 0.31156 0.0
C5124 C 0.10642 0.35675 0.19179 0.0
C5125 C 0.09857 0.36294 0.2071 0.0
C5126 C 0.10435 0.39785 0.23748 0.0
C5127 C 0.09801 0.38073 0.28318 0.0
C5128 C 0.09312 0.38655 0.26523 0.0
C5129 C 0.09707 0.38113 0.21022 0.0
C5130 C 0.09252 0.38701 0.22826 0.0
H5131 H 0.11157 0.34289 0.30313 0.0
H5132 H 0.09689 0.35294 0.27643 0.0
H5133 H 0.1152 0.40447 0.26264 0.0
H5134 H 0.11502 0.39604 0.17174 0.0
H5135 H 0.10182 0.40712 0.19932 0.0
C5136 C 0.80996 0.60391 0.88054 0.0
C5137 C 0.81239 0.6222 0.87919 0.0
C5138 C 0.79435 0.59722 0.88783 0.0
C5139 C 0.75344 0.61099 0.91151 0.0
H5140 H 0.72941 0.58607 0.87397 0.0
C5141 C 0.69035 0.63322 0.88064 0.0
C5142 C 0.67777 0.62116 0.87453 0.0
C5143 C 0.70548 0.62728 0.88919 0.0
C5144 C 0.7359 0.59252 0.88493 0.0
H5145 H 0.80155 0.64781 0.88552 0.0
H5146 H 0.77468 0.63636 0.8983 0.0
H5147 H 0.76141 0.58577 0.87517 0.0
H5148 H 0.67063 0.59349 0.87325 0.0
H5149 H 0.69763 0.58303 0.88763 0.0
H5150 H 0.7279 0.61944 0.91999 0.0
C5151 C 0.78454 0.62703 0.89388 0.0
C5152 C 0.75428 0.59231 0.88566 0.0
C5153 C 0.79982 0.63364 0.88633 0.0
C5154 C 0.68015 0.60307 0.87789 0.0
C5155 C 0.69552 0.59708 0.88611 0.0
C5156 C 0.73508 0.61135 0.91067 0.0
C5157 C 0.78132 0.60879 0.8942 0.0
C5158 C 0.7632 0.60271 0.89812 0.0
C5159 C 0.70847 0.60913 0.8915 0.0
C5160 C 0.72628 0.60317 0.89662 0.0
H5161 H 0.81961 0.59491 0.8751 0.0
H5162 H 0.79215 0.58311 0.88784 0.0
H5163 H 0.76001 0.61881 0.92149 0.0
H5164 H 0.68877 0.64723 0.87831 0.0
H5165 H 0.71538 0.63685 0.89295 0.0
C5166 C 0.81002 0.38127 0.1061 0.0
C5167 C 0.81185 0.37696 0.12404 0.0
C5168 C 0.79388 0.38736 0.09959 0.0
C5169 C 0.75545 0.37967 0.09081 0.0
H5170 H 0.72164 0.40593 0.11863 0.0
C5171 C 0.68895 0.35369 0.10994 0.0
C5172 C 0.67488 0.3651 0.1136 0.0
C5173 C 0.7048 0.3603 0.10347 0.0
C5174 C 0.73087 0.39893 0.1103 0.0
H5175 H 0.79896 0.37741 0.1495 0.0
H5176 H 0.77098 0.38813 0.13826 0.0
H5177 H 0.75303 0.41093 0.123 0.0
H5178 H 0.6658 0.39218 0.11199 0.0
H5179 H 0.69377 0.40381 0.10095 0.0
H5180 H 0.7333 0.36672 0.07906 0.0
C5181 C 0.78187 0.38679 0.12915 0.0
C5182 C 0.74886 0.40171 0.11292 0.0
C5183 C 0.79787 0.38048 0.13559 0.0
C5184 C 0.67646 0.38307 0.10929 0.0
C5185 C 0.69245 0.38974 0.10303 0.0
C5186 C 0.73746 0.37686 0.08822 0.0
C5187 C 0.77945 0.38952 0.11098 0.0
C5188 C 0.76129 0.39129 0.10401 0.0
C5189 C 0.70698 0.3785 0.10072 0.0
C5190 C 0.72504 0.38565 0.09876 0.0
H5191 H 0.82061 0.37868 0.09689 0.0
H5192 H 0.79239 0.38943 0.08554 0.0
H5193 H 0.76469 0.37143 0.08372 0.0
H5194 H 0.68805 0.33976 0.11301 0.0
H5195 H 0.71577 0.35129 0.10202 0.0
C5196 C 0.60621 0.6937 0.13845 0.0
C5197 C 0.61 0.67942 0.12736 0.0
C5198 C 0.59912 0.70915 0.13162 0.0
C5199 C 0.58194 0.74067 0.11536 0.0
H5200 H 0.61731 0.758 0.08295 0.0
C5201 C 0.60452 0.81333 0.1152 0.0
C5202 C 0.6222 0.81304 0.12069 0.0
C5203 C 0.59658 0.79791 0.1087 0.0
C5204 C 0.60693 0.75336 0.09158 0.0
H5205 H 0.60839 0.66954 0.10064 0.0
H5206 H 0.59656 0.69719 0.08837 0.0
H5207 H 0.61273 0.7264 0.08592 0.0
H5208 H 0.64577 0.79702 0.12265 0.0
H5209 H 0.63218 0.7705 0.11116 0.0
H5210 H 0.57768 0.76763 0.12251 0.0
C5211 C 0.59884 0.69621 0.10243 0.0
C5212 C 0.60423 0.73523 0.09323 0.0
C5213 C 0.60565 0.68047 0.1094 0.0
C5214 C 0.63204 0.79752 0.11875 0.0
C5215 C 0.62432 0.78241 0.1119 0.0
C5216 C 0.58466 0.75881 0.11371 0.0
C5217 C 0.59589 0.71083 0.11346 0.0
C5218 C 0.59279 0.72872 0.10623 0.0
C5219 C 0.60647 0.78231 0.10707 0.0
C5220 C 0.59822 0.76516 0.10289 0.0
H5221 H 0.60923 0.6931 0.1524 0.0
H5222 H 0.59733 0.72022 0.14047 0.0
H5223 H 0.57277 0.73597 0.12524 0.0
H5224 H 0.59673 0.82522 0.11651 0.0
H5225 H 0.58274 0.79806 0.10526 0.0
C5226 C 0.19059 0.61293 0.13266 0.0
C5227 C 0.17663 0.617 0.12125 0.0
C5228 C 0.2062 0.60593 0.12604 0.0
C5229 C 0.23811 0.58936 0.10929 0.0
H5230 H 0.25533 0.62541 0.07741 0.0
C5231 C 0.31068 0.60649 0.10889 0.0
C5232 C 0.31226 0.62405 0.11464 0.0
C5233 C 0.29491 0.60053 0.10146 0.0
C5234 C 0.2507 0.61494 0.08595 0.0
H5235 H 0.16748 0.61571 0.09417 0.0
H5236 H 0.19512 0.60391 0.08252 0.0
H5237 H 0.22372 0.62147 0.08128 0.0
H5238 H 0.2994 0.64956 0.11538 0.0
H5239 H 0.27203 0.63924 0.10241 0.0
H5240 H 0.26507 0.58403 0.11529 0.0
C5241 C 0.19384 0.60596 0.09658 0.0
C5242 C 0.23259 0.61258 0.08808 0.0
C5243 C 0.17807 0.6127 0.10327 0.0
C5244 C 0.29848 0.63591 0.11127 0.0
C5245 C 0.28286 0.63002 0.10363 0.0
C5246 C 0.25621 0.59166 0.10709 0.0
C5247 C 0.20825 0.60311 0.10784 0.0
C5248 C 0.22621 0.60065 0.10072 0.0
C5249 C 0.28063 0.61211 0.0994 0.0
C5250 C 0.26261 0.60533 0.09636 0.0
H5251 H 0.18977 0.61597 0.14658 0.0
H5252 H 0.21714 0.60408 0.13503 0.0
H5253 H 0.23348 0.57992 0.11895 0.0
H5254 H 0.32112 0.59705 0.11126 0.0
H5255 H 0.29353 0.58667 0.09827 0.0
C5256 C 0.3879 0.17977 0.1119 0.0
C5257 C 0.36952 0.17868 0.11361 0.0
C5258 C 0.39557 0.19481 0.10436 0.0
C5259 C 0.385 0.23526 0.0789 0.0
H5260 H 0.40825 0.26041 0.11678 0.0
C5261 C 0.36068 0.2981 0.10658 0.0
C5262 C 0.3719 0.31087 0.11376 0.0
C5263 C 0.36762 0.28325 0.09835 0.0
C5264 C 0.40238 0.2536 0.10569 0.0
H5265 H 0.34468 0.19143 0.10784 0.0
H5266 H 0.35786 0.2173 0.09443 0.0
H5267 H 0.40785 0.22834 0.11699 0.0
H5268 H 0.39911 0.31877 0.11727 0.0
H5269 H 0.41137 0.29214 0.10348 0.0
H5270 H 0.37777 0.26057 0.06875 0.0
C5271 C 0.36647 0.20679 0.09886 0.0
C5272 C 0.40217 0.23518 0.1058 0.0
C5273 C 0.3589 0.19211 0.10675 0.0
C5274 C 0.39022 0.30906 0.11175 0.0
C5275 C 0.39721 0.29391 0.10386 0.0
C5276 C 0.38518 0.25365 0.07881 0.0
C5277 C 0.38487 0.20854 0.09797 0.0
C5278 C 0.39216 0.22598 0.09325 0.0
C5279 C 0.38594 0.28069 0.09746 0.0
C5280 C 0.39257 0.26291 0.09303 0.0
H5281 H 0.39627 0.16945 0.11713 0.0
H5282 H 0.40979 0.19599 0.10401 0.0
H5283 H 0.37744 0.22841 0.06891 0.0
H5284 H 0.34652 0.29928 0.1079 0.0
H5285 H 0.35859 0.27315 0.09384 0.0
C5286 C 0.19595 0.36002 0.8801 0.0
C5287 C 0.18266 0.37142 0.87424 0.0
C5288 C 0.21095 0.36666 0.88819 0.0
C5289 C 0.24026 0.40206 0.88377 0.0
H5290 H 0.26489 0.37495 0.91946 0.0
C5291 C 0.31401 0.39052 0.87798 0.0
C5292 C 0.31619 0.37232 0.87521 0.0
C5293 C 0.29873 0.39691 0.88608 0.0
C5294 C 0.25819 0.38305 0.90978 0.0
H5295 H 0.17414 0.39862 0.87273 0.0
H5296 H 0.20126 0.41052 0.8862 0.0
H5297 H 0.23275 0.37499 0.91883 0.0
H5298 H 0.30512 0.34648 0.88011 0.0
H5299 H 0.27871 0.35749 0.89445 0.0
H5300 H 0.26567 0.40858 0.87356 0.0
C5301 C 0.1997 0.39639 0.88488 0.0
C5302 C 0.23982 0.3831 0.90944 0.0
C5303 C 0.18432 0.38963 0.87713 0.0
C5304 C 0.30367 0.36056 0.88198 0.0
C5305 C 0.28865 0.3669 0.89037 0.0
C5306 C 0.25866 0.40203 0.88413 0.0
C5307 C 0.2132 0.38491 0.89032 0.0
C5308 C 0.2308 0.39139 0.89555 0.0
C5309 C 0.28567 0.38514 0.89188 0.0
C5310 C 0.26772 0.39132 0.89626 0.0
H5311 H 0.19484 0.34589 0.8782 0.0
H5312 H 0.22127 0.3575 0.8919 0.0
H5313 H 0.23363 0.40859 0.87294 0.0
H5314 H 0.3235 0.39985 0.87282 0.0
H5315 H 0.2967 0.41101 0.88701 0.0
C5316 C 0.60621 0.17943 0.88291 0.0
C5317 C 0.62404 0.17958 0.87796 0.0
C5318 C 0.59844 0.19465 0.88999 0.0
C5319 C 0.60914 0.23953 0.90715 0.0
H5320 H 0.57454 0.25556 0.8732 0.0
C5321 C 0.60824 0.31138 0.88529 0.0
C5322 C 0.61238 0.31127 0.86725 0.0
C5323 C 0.6014 0.29617 0.89329 0.0
C5324 C 0.58383 0.25127 0.88316 0.0
H5325 H 0.64808 0.19497 0.87786 0.0
H5326 H 0.63477 0.2212 0.89021 0.0
H5327 H 0.57942 0.22409 0.87718 0.0
H5328 H 0.61126 0.29606 0.84313 0.0
H5329 H 0.59927 0.26986 0.85683 0.0
H5330 H 0.61511 0.26671 0.9115 0.0
C5331 C 0.62664 0.20956 0.88868 0.0
C5332 C 0.58655 0.23321 0.88553 0.0
C5333 C 0.63424 0.19461 0.88132 0.0
C5334 C 0.60838 0.29636 0.85712 0.0
C5335 C 0.60124 0.28143 0.86496 0.0
C5336 C 0.60648 0.25759 0.90471 0.0
C5337 C 0.60857 0.20997 0.89264 0.0
C5338 C 0.60033 0.22728 0.89638 0.0
C5339 C 0.59818 0.28092 0.88321 0.0
C5340 C 0.59492 0.26354 0.89153 0.0
H5341 H 0.59814 0.1679 0.88051 0.0
H5342 H 0.58446 0.19467 0.8928 0.0
H5343 H 0.61958 0.23525 0.9159 0.0
H5344 H 0.61116 0.32282 0.89331 0.0
H5345 H 0.59927 0.29607 0.9074 0.0
C5346 C 0.38448 0.68012 0.88271 0.0
C5347 C 0.36713 0.67905 0.87625 0.0
C5348 C 0.39035 0.69545 0.89113 0.0
C5349 C 0.37532 0.73915 0.90813 0.0
H5350 H 0.41327 0.75739 0.87927 0.0
C5351 C 0.38121 0.7997 0.86261 0.0
C5352 C 0.37499 0.81329 0.87347 0.0
C5353 C 0.3881 0.78437 0.86997 0.0
C5354 C 0.40294 0.75247 0.88781 0.0
H5355 H 0.34191 0.6924 0.87504 0.0
H5356 H 0.35206 0.71898 0.88956 0.0
H5357 H 0.40867 0.72572 0.8812 0.0
H5358 H 0.37237 0.82225 0.90045 0.0
H5359 H 0.38405 0.79502 0.91345 0.0
H5360 H 0.36838 0.76596 0.91311 0.0
C5361 C 0.36119 0.7081 0.88823 0.0
C5362 C 0.40036 0.73428 0.88902 0.0
C5363 C 0.35541 0.69293 0.87967 0.0
C5364 C 0.37708 0.8119 0.89182 0.0
C5365 C 0.38373 0.79636 0.89924 0.0
C5366 C 0.37788 0.75733 0.90687 0.0
C5367 C 0.37889 0.70982 0.89344 0.0
C5368 C 0.38567 0.72756 0.89806 0.0
C5369 C 0.38867 0.78218 0.88837 0.0
C5370 C 0.39085 0.76414 0.89555 0.0
H5371 H 0.3938 0.66958 0.88033 0.0
H5372 H 0.40404 0.6964 0.89504 0.0
H5373 H 0.36414 0.73427 0.91553 0.0
H5374 H 0.37989 0.80054 0.84842 0.0
H5375 H 0.39156 0.77366 0.86119 0.0
loop_
_geom_bond_atom_site_label_1
_geom_bond_atom_site_label_2
_geom_bond_distance
_geom_bond_site_symmetry_2
_ccdc_geom_bond_type
Sc0 O3 2.025 . S
Sc0 O10 2.105 . S
Sc0 O13 2.105 . S
Sc0 O16 2.105 . S
Sc0 O19 2.105 . S
Sc1 O3 2.025 . S
Sc1 O11 2.105 . S
Sc1 O15 2.105 . S
Sc1 O17 2.105 . S
Sc1 O21 2.105 . S
Sc2 O3 2.025 . S
Sc2 O12 2.105 . S
Sc2 O14 2.105 . S
Sc2 O18 2.105 . S
Sc2 O20 2.105 . S
O3 Sc0 2.025 . S
O3 Sc1 2.025 . S
O3 Sc2 2.025 . S
C4 O10 1.268 . S
C4 O20 1.268 . S
C5 O11 1.268 . S
C5 O19 1.268 . S
C6 O12 1.268 . S
C6 O21 1.268 . S
C7 O13 1.268 . S
C7 O17 1.268 . S
C8 O14 1.268 . S
C8 O16 1.268 . S
C9 O15 1.268 . S
C9 O18 1.268 . S
O10 Sc0 2.105 . S
O10 C4 1.268 . S
O11 Sc1 2.105 . S
O11 C5 1.268 . S
O12 Sc2 2.105 . S
O12 C6 1.268 . S
O13 Sc0 2.105 . S
O13 C7 1.268 . S
O14 Sc2 2.105 . S
O14 C8 1.268 . S
O15 Sc1 2.105 . S
O15 C9 1.268 . S
O16 Sc0 2.105 . S
O16 C8 1.268 . S
O17 Sc1 2.105 . S
O17 C7 1.268 . S
O18 Sc2 2.105 . S
O18 C9 1.268 . S
O19 Sc0 2.105 . S
O19 C5 1.268 . S
O20 Sc2 2.105 . S
O20 C4 1.268 . S
O21 Sc1 2.105 . S
O21 C6 1.268 . S
Sc22 O25 2.025 . S
Sc22 O32 2.105 . S
Sc22 O35 2.105 . S
Sc22 O38 2.105 . S
Sc22 O41 2.105 . S
Sc23 O25 2.025 . S
Sc23 O33 2.105 . S
Sc23 O37 2.105 . S
Sc23 O39 2.105 . S
Sc23 O43 2.105 . S
Sc24 O25 2.025 . S
Sc24 O34 2.105 . S
Sc24 O36 2.105 . S
Sc24 O40 2.105 . S
Sc24 O42 2.105 . S
O25 Sc22 2.025 . S
O25 Sc23 2.025 . S
O25 Sc24 2.025 . S
C26 O32 1.268 . S
C26 O42 1.268 . S
C27 O33 1.268 . S
C27 O41 1.268 . S
C28 O34 1.268 . S
C28 O43 1.268 . S
C29 O35 1.268 . S
C29 O39 1.268 . S
C30 O36 1.268 . S
C30 O38 1.268 . S
C31 O37 1.268 . S
C31 O40 1.268 . S
O32 Sc22 2.105 . S
O32 C26 1.268 . S
O33 Sc23 2.105 . S
O33 C27 1.268 . S
O34 Sc24 2.105 . S
O34 C28 1.268 . S
O35 Sc22 2.105 . S
O35 C29 1.268 . S
O36 Sc24 2.105 . S
O36 C30 1.268 . S
O37 Sc23 2.105 . S
O37 C31 1.268 . S
O38 Sc22 2.105 . S
O38 C30 1.268 . S
O39 Sc23 2.105 . S
O39 C29 1.268 . S
O40 Sc24 2.105 . S
O40 C31 1.268 . S
O41 Sc22 2.105 . S
O41 C27 1.268 . S
O42 Sc24 2.105 . S
O42 C26 1.268 . S
O43 Sc23 2.105 . S
O43 C28 1.268 . S
Sc44 O47 2.025 . S
Sc44 O54 2.105 . S
Sc44 O57 2.105 . S
Sc44 O60 2.105 . S
Sc44 O63 2.105 . S
Sc45 O47 2.025 . S
Sc45 O55 2.105 . S
Sc45 O59 2.105 . S
Sc45 O61 2.105 . S
Sc45 O65 2.105 . S
Sc46 O47 2.025 . S
Sc46 O56 2.105 . S
Sc46 O58 2.105 . S
Sc46 O62 2.105 . S
Sc46 O64 2.105 . S
O47 Sc44 2.025 . S
O47 Sc45 2.025 . S
O47 Sc46 2.025 . S
C48 O54 1.268 . S
C48 O64 1.268 . S
C49 O55 1.268 . S
C49 O63 1.268 . S
C50 O56 1.268 . S
C50 O65 1.268 . S
C51 O57 1.268 . S
C51 O61 1.268 . S
C52 O58 1.268 . S
C52 O60 1.268 . S
C53 O59 1.268 . S
C53 O62 1.268 . S
O54 Sc44 2.105 . S
O54 C48 1.268 . S
O55 Sc45 2.105 . S
O55 C49 1.268 . S
O56 Sc46 2.105 . S
O56 C50 1.268 . S
O57 Sc44 2.105 . S
O57 C51 1.268 . S
O58 Sc46 2.105 . S
O58 C52 1.268 . S
O59 Sc45 2.105 . S
O59 C53 1.268 . S
O60 Sc44 2.105 . S
O60 C52 1.268 . S
O61 Sc45 2.105 . S
O61 C51 1.268 . S
O62 Sc46 2.105 . S
O62 C53 1.268 . S
O63 Sc44 2.105 . S
O63 C49 1.268 . S
O64 Sc46 2.105 . S
O64 C48 1.268 . S
O65 Sc45 2.105 . S
O65 C50 1.268 . S
Sc66 O69 2.025 . S
Sc66 O76 2.105 . S
Sc66 O79 2.105 . S
Sc66 O82 2.105 . S
Sc66 O85 2.105 . S
Sc67 O69 2.025 . S
Sc67 O77 2.105 . S
Sc67 O81 2.105 . S
Sc67 O83 2.105 . S
Sc67 O87 2.105 . S
Sc68 O69 2.025 . S
Sc68 O78 2.105 . S
Sc68 O80 2.105 . S
Sc68 O84 2.105 . S
Sc68 O86 2.105 . S
O69 Sc66 2.025 . S
O69 Sc67 2.025 . S
O69 Sc68 2.025 . S
C70 O76 1.268 . S
C70 O86 1.268 . S
C71 O77 1.268 . S
C71 O85 1.268 . S
C72 O78 1.268 . S
C72 O87 1.268 . S
C73 O79 1.268 . S
C73 O83 1.268 . S
C74 O80 1.268 . S
C74 O82 1.268 . S
C75 O81 1.268 . S
C75 O84 1.268 . S
O76 Sc66 2.105 . S
O76 C70 1.268 . S
O77 Sc67 2.105 . S
O77 C71 1.268 . S
O78 Sc68 2.105 . S
O78 C72 1.268 . S
O79 Sc66 2.105 . S
O79 C73 1.268 . S
O80 Sc68 2.105 . S
O80 C74 1.268 . S
O81 Sc67 2.105 . S
O81 C75 1.268 . S
O82 Sc66 2.105 . S
O82 C74 1.268 . S
O83 Sc67 2.105 . S
O83 C73 1.268 . S
O84 Sc68 2.105 . S
O84 C75 1.268 . S
O85 Sc66 2.105 . S
O85 C71 1.268 . S
O86 Sc68 2.105 . S
O86 C70 1.268 . S
O87 Sc67 2.105 . S
O87 C72 1.268 . S
Sc88 O91 2.025 . S
Sc88 O98 2.105 . S
Sc88 O101 2.105 . S
Sc88 O104 2.105 . S
Sc88 O107 2.105 . S
Sc89 O91 2.025 . S
Sc89 O99 2.105 . S
Sc89 O103 2.105 . S
Sc89 O105 2.105 . S
Sc89 O109 2.105 . S
Sc90 O91 2.025 . S
Sc90 O100 2.105 . S
Sc90 O102 2.105 . S
Sc90 O106 2.105 . S
Sc90 O108 2.105 . S
O91 Sc88 2.025 . S
O91 Sc89 2.025 . S
O91 Sc90 2.025 . S
C92 O98 1.268 . S
C92 O108 1.268 . S
C93 O99 1.268 . S
C93 O107 1.268 . S
C94 O100 1.268 . S
C94 O109 1.268 . S
C95 O101 1.268 . S
C95 O105 1.268 . S
C96 O102 1.268 . S
C96 O104 1.268 . S
C97 O103 1.268 . S
C97 O106 1.268 . S
O98 Sc88 2.105 . S
O98 C92 1.268 . S
O99 Sc89 2.105 . S
O99 C93 1.268 . S
O100 Sc90 2.105 . S
O100 C94 1.268 . S
O101 Sc88 2.105 . S
O101 C95 1.268 . S
O102 Sc90 2.105 . S
O102 C96 1.268 . S
O103 Sc89 2.105 . S
O103 C97 1.268 . S
O104 Sc88 2.105 . S
O104 C96 1.268 . S
O105 Sc89 2.105 . S
O105 C95 1.268 . S
O106 Sc90 2.105 . S
O106 C97 1.268 . S
O107 Sc88 2.105 . S
O107 C93 1.268 . S
O108 Sc90 2.105 . S
O108 C92 1.268 . S
O109 Sc89 2.105 . S
O109 C94 1.268 . S
Sc110 O113 2.025 . S
Sc110 O120 2.105 . S
Sc110 O123 2.105 . S
Sc110 O126 2.105 . S
Sc110 O129 2.105 . S
Sc111 O113 2.025 . S
Sc111 O121 2.105 . S
Sc111 O125 2.105 . S
Sc111 O127 2.105 . S
Sc111 O131 2.105 . S
Sc112 O113 2.025 . S
Sc112 O122 2.105 . S
Sc112 O124 2.105 . S
Sc112 O128 2.105 . S
Sc112 O130 2.105 . S
O113 Sc110 2.025 . S
O113 Sc111 2.025 . S
O113 Sc112 2.025 . S
C114 O120 1.268 . S
C114 O130 1.268 . S
C115 O121 1.268 . S
C115 O129 1.268 . S
C116 O122 1.268 . S
C116 O131 1.268 . S
C117 O123 1.268 . S
C117 O127 1.268 . S
C118 O124 1.268 . S
C118 O126 1.268 . S
C119 O125 1.268 . S
C119 O128 1.268 . S
O120 Sc110 2.105 . S
O120 C114 1.268 . S
O121 Sc111 2.105 . S
O121 C115 1.268 . S
O122 Sc112 2.105 . S
O122 C116 1.268 . S
O123 Sc110 2.105 . S
O123 C117 1.268 . S
O124 Sc112 2.105 . S
O124 C118 1.268 . S
O125 Sc111 2.105 . S
O125 C119 1.268 . S
O126 Sc110 2.105 . S
O126 C118 1.268 . S
O127 Sc111 2.105 . S
O127 C117 1.268 . S
O128 Sc112 2.105 . S
O128 C119 1.268 . S
O129 Sc110 2.105 . S
O129 C115 1.268 . S
O130 Sc112 2.105 . S
O130 C114 1.268 . S
O131 Sc111 2.105 . S
O131 C116 1.268 . S
Sc132 O135 2.025 . S
Sc132 O142 2.105 . S
Sc132 O145 2.105 . S
Sc132 O148 2.105 . S
Sc132 O151 2.105 . S
Sc133 O135 2.025 . S
Sc133 O143 2.105 . S
Sc133 O147 2.105 . S
Sc133 O149 2.105 . S
Sc133 O153 2.105 . S
Sc134 O135 2.025 . S
Sc134 O144 2.105 . S
Sc134 O146 2.105 . S
Sc134 O150 2.105 . S
Sc134 O152 2.105 . S
O135 Sc132 2.025 . S
O135 Sc133 2.025 . S
O135 Sc134 2.025 . S
C136 O142 1.268 . S
C136 O152 1.268 . S
C137 O143 1.268 . S
C137 O151 1.268 . S
C138 O144 1.268 . S
C138 O153 1.268 . S
C139 O145 1.268 . S
C139 O149 1.268 . S
C140 O146 1.268 . S
C140 O148 1.268 . S
C141 O147 1.268 . S
C141 O150 1.268 . S
O142 Sc132 2.105 . S
O142 C136 1.268 . S
O143 Sc133 2.105 . S
O143 C137 1.268 . S
O144 Sc134 2.105 . S
O144 C138 1.268 . S
O145 Sc132 2.105 . S
O145 C139 1.268 . S
O146 Sc134 2.105 . S
O146 C140 1.268 . S
O147 Sc133 2.105 . S
O147 C141 1.268 . S
O148 Sc132 2.105 . S
O148 C140 1.268 . S
O149 Sc133 2.105 . S
O149 C139 1.268 . S
O150 Sc134 2.105 . S
O150 C141 1.268 . S
O151 Sc132 2.105 . S
O151 C137 1.268 . S
O152 Sc134 2.105 . S
O152 C136 1.268 . S
O153 Sc133 2.105 . S
O153 C138 1.268 . S
Sc154 O157 2.025 . S
Sc154 O164 2.105 . S
Sc154 O167 2.105 . S
Sc154 O170 2.105 . S
Sc154 O173 2.105 . S
Sc155 O157 2.025 . S
Sc155 O165 2.105 . S
Sc155 O169 2.105 . S
Sc155 O171 2.105 . S
Sc155 O175 2.105 . S
Sc156 O157 2.025 . S
Sc156 O166 2.105 . S
Sc156 O168 2.105 . S
Sc156 O172 2.105 . S
Sc156 O174 2.105 . S
O157 Sc154 2.025 . S
O157 Sc155 2.025 . S
O157 Sc156 2.025 . S
C158 O164 1.268 . S
C158 O174 1.268 . S
C159 O165 1.268 . S
C159 O173 1.268 . S
C160 O166 1.268 . S
C160 O175 1.268 . S
C161 O167 1.268 . S
C161 O171 1.268 . S
C162 O168 1.268 . S
C162 O170 1.268 . S
C163 O169 1.268 . S
C163 O172 1.268 . S
O164 Sc154 2.105 . S
O164 C158 1.268 . S
O165 Sc155 2.105 . S
O165 C159 1.268 . S
O166 Sc156 2.105 . S
O166 C160 1.268 . S
O167 Sc154 2.105 . S
O167 C161 1.268 . S
O168 Sc156 2.105 . S
O168 C162 1.268 . S
O169 Sc155 2.105 . S
O169 C163 1.268 . S
O170 Sc154 2.105 . S
O170 C162 1.268 . S
O171 Sc155 2.105 . S
O171 C161 1.268 . S
O172 Sc156 2.105 . S
O172 C163 1.268 . S
O173 Sc154 2.105 . S
O173 C159 1.268 . S
O174 Sc156 2.105 . S
O174 C158 1.268 . S
O175 Sc155 2.105 . S
O175 C160 1.268 . S
Sc176 O179 2.025 . S
Sc176 O186 2.105 . S
Sc176 O189 2.105 . S
Sc176 O192 2.105 . S
Sc176 O195 2.105 . S
Sc177 O179 2.025 . S
Sc177 O187 2.105 . S
Sc177 O191 2.105 . S
Sc177 O193 2.105 . S
Sc177 O197 2.105 . S
Sc178 O179 2.025 . S
Sc178 O188 2.105 . S
Sc178 O190 2.105 . S
Sc178 O194 2.105 . S
Sc178 O196 2.105 . S
O179 Sc176 2.025 . S
O179 Sc177 2.025 . S
O179 Sc178 2.025 . S
C180 O186 1.268 . S
C180 O196 1.268 . S
C181 O187 1.268 . S
C181 O195 1.268 . S
C182 O188 1.268 . S
C182 O197 1.268 . S
C183 O189 1.268 . S
C183 O193 1.268 . S
C184 O190 1.268 . S
C184 O192 1.268 . S
C185 O191 1.268 . S
C185 O194 1.268 . S
O186 Sc176 2.105 . S
O186 C180 1.268 . S
O187 Sc177 2.105 . S
O187 C181 1.268 . S
O188 Sc178 2.105 . S
O188 C182 1.268 . S
O189 Sc176 2.105 . S
O189 C183 1.268 . S
O190 Sc178 2.105 . S
O190 C184 1.268 . S
O191 Sc177 2.105 . S
O191 C185 1.268 . S
O192 Sc176 2.105 . S
O192 C184 1.268 . S
O193 Sc177 2.105 . S
O193 C183 1.268 . S
O194 Sc178 2.105 . S
O194 C185 1.268 . S
O195 Sc176 2.105 . S
O195 C181 1.268 . S
O196 Sc178 2.105 . S
O196 C180 1.268 . S
O197 Sc177 2.105 . S
O197 C182 1.268 . S
Sc198 O201 2.025 . S
Sc198 O208 2.105 . S
Sc198 O211 2.105 . S
Sc198 O214 2.105 . S
Sc198 O217 2.105 . S
Sc199 O201 2.025 . S
Sc199 O209 2.105 . S
Sc199 O213 2.105 . S
Sc199 O215 2.105 . S
Sc199 O219 2.105 . S
Sc200 O201 2.025 . S
Sc200 O210 2.105 . S
Sc200 O212 2.105 . S
Sc200 O216 2.105 . S
Sc200 O218 2.105 . S
O201 Sc198 2.025 . S
O201 Sc199 2.025 . S
O201 Sc200 2.025 . S
C202 O208 1.268 . S
C202 O218 1.268 . S
C203 O209 1.268 . S
C203 O217 1.268 . S
C204 O210 1.268 . S
C204 O219 1.268 . S
C205 O211 1.268 . S
C205 O215 1.268 . S
C206 O212 1.268 . S
C206 O214 1.268 . S
C207 O213 1.268 . S
C207 O216 1.268 . S
O208 Sc198 2.105 . S
O208 C202 1.268 . S
O209 Sc199 2.105 . S
O209 C203 1.268 . S
O210 Sc200 2.105 . S
O210 C204 1.268 . S
O211 Sc198 2.105 . S
O211 C205 1.268 . S
O212 Sc200 2.105 . S
O212 C206 1.268 . S
O213 Sc199 2.105 . S
O213 C207 1.268 . S
O214 Sc198 2.105 . S
O214 C206 1.268 . S
O215 Sc199 2.105 . S
O215 C205 1.268 . S
O216 Sc200 2.105 . S
O216 C207 1.268 . S
O217 Sc198 2.105 . S
O217 C203 1.268 . S
O218 Sc200 2.105 . S
O218 C202 1.268 . S
O219 Sc199 2.105 . S
O219 C204 1.268 . S
Sc220 O223 2.025 . S
Sc220 O230 2.105 . S
Sc220 O233 2.105 . S
Sc220 O236 2.105 . S
Sc220 O239 2.105 . S
Sc221 O223 2.025 . S
Sc221 O231 2.105 . S
Sc221 O235 2.105 . S
Sc221 O237 2.105 . S
Sc221 O241 2.105 . S
Sc222 O223 2.025 . S
Sc222 O232 2.105 . S
Sc222 O234 2.105 . S
Sc222 O238 2.105 . S
Sc222 O240 2.105 . S
O223 Sc220 2.025 . S
O223 Sc221 2.025 . S
O223 Sc222 2.025 . S
C224 O230 1.268 . S
C224 O240 1.268 . S
C225 O231 1.268 . S
C225 O239 1.268 . S
C226 O232 1.268 . S
C226 O241 1.268 . S
C227 O233 1.268 . S
C227 O237 1.268 . S
C228 O234 1.268 . S
C228 O236 1.268 . S
C229 O235 1.268 . S
C229 O238 1.268 . S
O230 Sc220 2.105 . S
O230 C224 1.268 . S
O231 Sc221 2.105 . S
O231 C225 1.268 . S
O232 Sc222 2.105 . S
O232 C226 1.268 . S
O233 Sc220 2.105 . S
O233 C227 1.268 . S
O234 Sc222 2.105 . S
O234 C228 1.268 . S
O235 Sc221 2.105 . S
O235 C229 1.268 . S
O236 Sc220 2.105 . S
O236 C228 1.268 . S
O237 Sc221 2.105 . S
O237 C227 1.268 . S
O238 Sc222 2.105 . S
O238 C229 1.268 . S
O239 Sc220 2.105 . S
O239 C225 1.268 . S
O240 Sc222 2.105 . S
O240 C224 1.268 . S
O241 Sc221 2.105 . S
O241 C226 1.268 . S
Sc242 O245 2.025 . S
Sc242 O252 2.105 . S
Sc242 O255 2.105 . S
Sc242 O258 2.105 . S
Sc242 O261 2.105 . S
Sc243 O245 2.025 . S
Sc243 O253 2.105 . S
Sc243 O257 2.105 . S
Sc243 O259 2.105 . S
Sc243 O263 2.105 . S
Sc244 O245 2.025 . S
Sc244 O254 2.105 . S
Sc244 O256 2.105 . S
Sc244 O260 2.105 . S
Sc244 O262 2.105 . S
O245 Sc242 2.025 . S
O245 Sc243 2.025 . S
O245 Sc244 2.025 . S
C246 O252 1.268 . S
C246 O262 1.268 . S
C247 O253 1.268 . S
C247 O261 1.268 . S
C248 O254 1.268 . S
C248 O263 1.268 . S
C249 O255 1.268 . S
C249 O259 1.268 . S
C250 O256 1.268 . S
C250 O258 1.268 . S
C251 O257 1.268 . S
C251 O260 1.268 . S
O252 Sc242 2.105 . S
O252 C246 1.268 . S
O253 Sc243 2.105 . S
O253 C247 1.268 . S
O254 Sc244 2.105 . S
O254 C248 1.268 . S
O255 Sc242 2.105 . S
O255 C249 1.268 . S
O256 Sc244 2.105 . S
O256 C250 1.268 . S
O257 Sc243 2.105 . S
O257 C251 1.268 . S
O258 Sc242 2.105 . S
O258 C250 1.268 . S
O259 Sc243 2.105 . S
O259 C249 1.268 . S
O260 Sc244 2.105 . S
O260 C251 1.268 . S
O261 Sc242 2.105 . S
O261 C247 1.268 . S
O262 Sc244 2.105 . S
O262 C246 1.268 . S
O263 Sc243 2.105 . S
O263 C248 1.268 . S
Sc264 O267 2.025 . S
Sc264 O274 2.105 . S
Sc264 O277 2.105 . S
Sc264 O280 2.105 . S
Sc264 O283 2.105 . S
Sc265 O267 2.025 . S
Sc265 O275 2.105 . S
Sc265 O279 2.105 . S
Sc265 O281 2.105 . S
Sc265 O285 2.105 . S
Sc266 O267 2.025 . S
Sc266 O276 2.105 . S
Sc266 O278 2.105 . S
Sc266 O282 2.105 . S
Sc266 O284 2.105 . S
O267 Sc264 2.025 . S
O267 Sc265 2.025 . S
O267 Sc266 2.025 . S
C268 O274 1.268 . S
C268 O284 1.268 . S
C269 O275 1.268 . S
C269 O283 1.268 . S
C270 O276 1.268 . S
C270 O285 1.268 . S
C271 O277 1.268 . S
C271 O281 1.268 . S
C272 O278 1.268 . S
C272 O280 1.268 . S
C273 O279 1.268 . S
C273 O282 1.268 . S
O274 Sc264 2.105 . S
O274 C268 1.268 . S
O275 Sc265 2.105 . S
O275 C269 1.268 . S
O276 Sc266 2.105 . S
O276 C270 1.268 . S
O277 Sc264 2.105 . S
O277 C271 1.268 . S
O278 Sc266 2.105 . S
O278 C272 1.268 . S
O279 Sc265 2.105 . S
O279 C273 1.268 . S
O280 Sc264 2.105 . S
O280 C272 1.268 . S
O281 Sc265 2.105 . S
O281 C271 1.268 . S
O282 Sc266 2.105 . S
O282 C273 1.268 . S
O283 Sc264 2.105 . S
O283 C269 1.268 . S
O284 Sc266 2.105 . S
O284 C268 1.268 . S
O285 Sc265 2.105 . S
O285 C270 1.268 . S
Sc286 O289 2.025 . S
Sc286 O296 2.105 . S
Sc286 O299 2.105 . S
Sc286 O302 2.105 . S
Sc286 O305 2.105 . S
Sc287 O289 2.025 . S
Sc287 O297 2.105 . S
Sc287 O301 2.105 . S
Sc287 O303 2.105 . S
Sc287 O307 2.105 . S
Sc288 O289 2.025 . S
Sc288 O298 2.105 . S
Sc288 O300 2.105 . S
Sc288 O304 2.105 . S
Sc288 O306 2.105 . S
O289 Sc286 2.025 . S
O289 Sc287 2.025 . S
O289 Sc288 2.025 . S
C290 O296 1.268 . S
C290 O306 1.268 . S
C291 O297 1.268 . S
C291 O305 1.268 . S
C292 O298 1.268 . S
C292 O307 1.268 . S
C293 O299 1.268 . S
C293 O303 1.268 . S
C294 O300 1.268 . S
C294 O302 1.268 . S
C295 O301 1.268 . S
C295 O304 1.268 . S
O296 Sc286 2.105 . S
O296 C290 1.268 . S
O297 Sc287 2.105 . S
O297 C291 1.268 . S
O298 Sc288 2.105 . S
O298 C292 1.268 . S
O299 Sc286 2.105 . S
O299 C293 1.268 . S
O300 Sc288 2.105 . S
O300 C294 1.268 . S
O301 Sc287 2.105 . S
O301 C295 1.268 . S
O302 Sc286 2.105 . S
O302 C294 1.268 . S
O303 Sc287 2.105 . S
O303 C293 1.268 . S
O304 Sc288 2.105 . S
O304 C295 1.268 . S
O305 Sc286 2.105 . S
O305 C291 1.268 . S
O306 Sc288 2.105 . S
O306 C290 1.268 . S
O307 Sc287 2.105 . S
O307 C292 1.268 . S
Sc308 O311 2.025 . S
Sc308 O318 2.105 . S
Sc308 O321 2.105 . S
Sc308 O324 2.105 . S
Sc308 O327 2.105 . S
Sc309 O311 2.025 . S
Sc309 O319 2.105 . S
Sc309 O323 2.105 . S
Sc309 O325 2.105 . S
Sc309 O329 2.105 . S
Sc310 O311 2.025 . S
Sc310 O320 2.105 . S
Sc310 O322 2.105 . S
Sc310 O326 2.105 . S
Sc310 O328 2.105 . S
O311 Sc308 2.025 . S
O311 Sc309 2.025 . S
O311 Sc310 2.025 . S
C312 O318 1.268 . S
C312 O328 1.268 . S
C313 O319 1.268 . S
C313 O327 1.268 . S
C314 O320 1.268 . S
C314 O329 1.268 . S
C315 O321 1.268 . S
C315 O325 1.268 . S
C316 O322 1.268 . S
C316 O324 1.268 . S
C317 O323 1.268 . S
C317 O326 1.268 . S
O318 Sc308 2.105 . S
O318 C312 1.268 . S
O319 Sc309 2.105 . S
O319 C313 1.268 . S
O320 Sc310 2.105 . S
O320 C314 1.268 . S
O321 Sc308 2.105 . S
O321 C315 1.268 . S
O322 Sc310 2.105 . S
O322 C316 1.268 . S
O323 Sc309 2.105 . S
O323 C317 1.268 . S
O324 Sc308 2.105 . S
O324 C316 1.268 . S
O325 Sc309 2.105 . S
O325 C315 1.268 . S
O326 Sc310 2.105 . S
O326 C317 1.268 . S
O327 Sc308 2.105 . S
O327 C313 1.268 . S
O328 Sc310 2.105 . S
O328 C312 1.268 . S
O329 Sc309 2.105 . S
O329 C314 1.268 . S
Sc330 O333 2.025 . S
Sc330 O340 2.105 . S
Sc330 O343 2.105 . S
Sc330 O346 2.105 . S
Sc330 O349 2.105 . S
Sc331 O333 2.025 . S
Sc331 O341 2.105 . S
Sc331 O345 2.105 . S
Sc331 O347 2.105 . S
Sc331 O351 2.105 . S
Sc332 O333 2.025 . S
Sc332 O342 2.105 . S
Sc332 O344 2.105 . S
Sc332 O348 2.105 . S
Sc332 O350 2.105 . S
O333 Sc330 2.025 . S
O333 Sc331 2.025 . S
O333 Sc332 2.025 . S
C334 O340 1.268 . S
C334 O350 1.268 . S
C335 O341 1.268 . S
C335 O349 1.268 . S
C336 O342 1.268 . S
C336 O351 1.268 . S
C337 O343 1.268 . S
C337 O347 1.268 . S
C338 O344 1.268 . S
C338 O346 1.268 . S
C339 O345 1.268 . S
C339 O348 1.268 . S
O340 Sc330 2.105 . S
O340 C334 1.268 . S
O341 Sc331 2.105 . S
O341 C335 1.268 . S
O342 Sc332 2.105 . S
O342 C336 1.268 . S
O343 Sc330 2.105 . S
O343 C337 1.268 . S
O344 Sc332 2.105 . S
O344 C338 1.268 . S
O345 Sc331 2.105 . S
O345 C339 1.268 . S
O346 Sc330 2.105 . S
O346 C338 1.268 . S
O347 Sc331 2.105 . S
O347 C337 1.268 . S
O348 Sc332 2.105 . S
O348 C339 1.268 . S
O349 Sc330 2.105 . S
O349 C335 1.268 . S
O350 Sc332 2.105 . S
O350 C334 1.268 . S
O351 Sc331 2.105 . S
O351 C336 1.268 . S
Sc352 O355 2.025 . S
Sc352 O362 2.105 . S
Sc352 O365 2.105 . S
Sc352 O368 2.105 . S
Sc352 O371 2.105 . S
Sc353 O355 2.025 . S
Sc353 O363 2.105 . S
Sc353 O367 2.105 . S
Sc353 O369 2.105 . S
Sc353 O373 2.105 . S
Sc354 O355 2.025 . S
Sc354 O364 2.105 . S
Sc354 O366 2.105 . S
Sc354 O370 2.105 . S
Sc354 O372 2.105 . S
O355 Sc352 2.025 . S
O355 Sc353 2.025 . S
O355 Sc354 2.025 . S
C356 O362 1.268 . S
C356 O372 1.268 . S
C357 O363 1.268 . S
C357 O371 1.268 . S
C358 O364 1.268 . S
C358 O373 1.268 . S
C359 O365 1.268 . S
C359 O369 1.268 . S
C360 O366 1.268 . S
C360 O368 1.268 . S
C361 O367 1.268 . S
C361 O370 1.268 . S
O362 Sc352 2.105 . S
O362 C356 1.268 . S
O363 Sc353 2.105 . S
O363 C357 1.268 . S
O364 Sc354 2.105 . S
O364 C358 1.268 . S
O365 Sc352 2.105 . S
O365 C359 1.268 . S
O366 Sc354 2.105 . S
O366 C360 1.268 . S
O367 Sc353 2.105 . S
O367 C361 1.268 . S
O368 Sc352 2.105 . S
O368 C360 1.268 . S
O369 Sc353 2.105 . S
O369 C359 1.268 . S
O370 Sc354 2.105 . S
O370 C361 1.268 . S
O371 Sc352 2.105 . S
O371 C357 1.268 . S
O372 Sc354 2.105 . S
O372 C356 1.268 . S
O373 Sc353 2.105 . S
O373 C358 1.268 . S
Sc374 O377 2.025 . S
Sc374 O384 2.105 . S
Sc374 O387 2.105 . S
Sc374 O390 2.105 . S
Sc374 O393 2.105 . S
Sc375 O377 2.025 . S
Sc375 O385 2.105 . S
Sc375 O389 2.105 . S
Sc375 O391 2.105 . S
Sc375 O395 2.105 . S
Sc376 O377 2.025 . S
Sc376 O386 2.105 . S
Sc376 O388 2.105 . S
Sc376 O392 2.105 . S
Sc376 O394 2.105 . S
O377 Sc374 2.025 . S
O377 Sc375 2.025 . S
O377 Sc376 2.025 . S
C378 O384 1.268 . S
C378 O394 1.268 . S
C379 O385 1.268 . S
C379 O393 1.268 . S
C380 O386 1.268 . S
C380 O395 1.268 . S
C381 O387 1.268 . S
C381 O391 1.268 . S
C382 O388 1.268 . S
C382 O390 1.268 . S
C383 O389 1.268 . S
C383 O392 1.268 . S
O384 Sc374 2.105 . S
O384 C378 1.268 . S
O385 Sc375 2.105 . S
O385 C379 1.268 . S
O386 Sc376 2.105 . S
O386 C380 1.268 . S
O387 Sc374 2.105 . S
O387 C381 1.268 . S
O388 Sc376 2.105 . S
O388 C382 1.268 . S
O389 Sc375 2.105 . S
O389 C383 1.268 . S
O390 Sc374 2.105 . S
O390 C382 1.268 . S
O391 Sc375 2.105 . S
O391 C381 1.268 . S
O392 Sc376 2.105 . S
O392 C383 1.268 . S
O393 Sc374 2.105 . S
O393 C379 1.268 . S
O394 Sc376 2.105 . S
O394 C378 1.268 . S
O395 Sc375 2.105 . S
O395 C380 1.268 . S
Sc396 O399 2.025 . S
Sc396 O406 2.105 . S
Sc396 O409 2.105 . S
Sc396 O412 2.105 . S
Sc396 O415 2.105 . S
Sc397 O399 2.025 . S
Sc397 O407 2.105 . S
Sc397 O411 2.105 . S
Sc397 O413 2.105 . S
Sc397 O417 2.105 . S
Sc398 O399 2.025 . S
Sc398 O408 2.105 . S
Sc398 O410 2.105 . S
Sc398 O414 2.105 . S
Sc398 O416 2.105 . S
O399 Sc396 2.025 . S
O399 Sc397 2.025 . S
O399 Sc398 2.025 . S
C400 O406 1.268 . S
C400 O416 1.268 . S
C401 O407 1.268 . S
C401 O415 1.268 . S
C402 O408 1.268 . S
C402 O417 1.268 . S
C403 O409 1.268 . S
C403 O413 1.268 . S
C404 O410 1.268 . S
C404 O412 1.268 . S
C405 O411 1.268 . S
C405 O414 1.268 . S
O406 Sc396 2.105 . S
O406 C400 1.268 . S
O407 Sc397 2.105 . S
O407 C401 1.268 . S
O408 Sc398 2.105 . S
O408 C402 1.268 . S
O409 Sc396 2.105 . S
O409 C403 1.268 . S
O410 Sc398 2.105 . S
O410 C404 1.268 . S
O411 Sc397 2.105 . S
O411 C405 1.268 . S
O412 Sc396 2.105 . S
O412 C404 1.268 . S
O413 Sc397 2.105 . S
O413 C403 1.268 . S
O414 Sc398 2.105 . S
O414 C405 1.268 . S
O415 Sc396 2.105 . S
O415 C401 1.268 . S
O416 Sc398 2.105 . S
O416 C400 1.268 . S
O417 Sc397 2.105 . S
O417 C402 1.268 . S
Sc418 O421 2.025 . S
Sc418 O428 2.105 . S
Sc418 O431 2.105 . S
Sc418 O434 2.105 . S
Sc418 O437 2.105 . S
Sc419 O421 2.025 . S
Sc419 O429 2.105 . S
Sc419 O433 2.105 . S
Sc419 O435 2.105 . S
Sc419 O439 2.105 . S
Sc420 O421 2.025 . S
Sc420 O430 2.105 . S
Sc420 O432 2.105 . S
Sc420 O436 2.105 . S
Sc420 O438 2.105 . S
O421 Sc418 2.025 . S
O421 Sc419 2.025 . S
O421 Sc420 2.025 . S
C422 O428 1.268 . S
C422 O438 1.268 . S
C423 O429 1.268 . S
C423 O437 1.268 . S
C424 O430 1.268 . S
C424 O439 1.268 . S
C425 O431 1.268 . S
C425 O435 1.268 . S
C426 O432 1.268 . S
C426 O434 1.268 . S
C427 O433 1.268 . S
C427 O436 1.268 . S
O428 Sc418 2.105 . S
O428 C422 1.268 . S
O429 Sc419 2.105 . S
O429 C423 1.268 . S
O430 Sc420 2.105 . S
O430 C424 1.268 . S
O431 Sc418 2.105 . S
O431 C425 1.268 . S
O432 Sc420 2.105 . S
O432 C426 1.268 . S
O433 Sc419 2.105 . S
O433 C427 1.268 . S
O434 Sc418 2.105 . S
O434 C426 1.268 . S
O435 Sc419 2.105 . S
O435 C425 1.268 . S
O436 Sc420 2.105 . S
O436 C427 1.268 . S
O437 Sc418 2.105 . S
O437 C423 1.268 . S
O438 Sc420 2.105 . S
O438 C422 1.268 . S
O439 Sc419 2.105 . S
O439 C424 1.268 . S
Sc440 O443 2.025 . S
Sc440 O450 2.105 . S
Sc440 O453 2.105 . S
Sc440 O456 2.105 . S
Sc440 O459 2.105 . S
Sc441 O443 2.025 . S
Sc441 O451 2.105 . S
Sc441 O455 2.105 . S
Sc441 O457 2.105 . S
Sc441 O461 2.105 . S
Sc442 O443 2.025 . S
Sc442 O452 2.105 . S
Sc442 O454 2.105 . S
Sc442 O458 2.105 . S
Sc442 O460 2.105 . S
O443 Sc440 2.025 . S
O443 Sc441 2.025 . S
O443 Sc442 2.025 . S
C444 O450 1.268 . S
C444 O460 1.268 . S
C445 O451 1.268 . S
C445 O459 1.268 . S
C446 O452 1.268 . S
C446 O461 1.268 . S
C447 O453 1.268 . S
C447 O457 1.268 . S
C448 O454 1.268 . S
C448 O456 1.268 . S
C449 O455 1.268 . S
C449 O458 1.268 . S
O450 Sc440 2.105 . S
O450 C444 1.268 . S
O451 Sc441 2.105 . S
O451 C445 1.268 . S
O452 Sc442 2.105 . S
O452 C446 1.268 . S
O453 Sc440 2.105 . S
O453 C447 1.268 . S
O454 Sc442 2.105 . S
O454 C448 1.268 . S
O455 Sc441 2.105 . S
O455 C449 1.268 . S
O456 Sc440 2.105 . S
O456 C448 1.268 . S
O457 Sc441 2.105 . S
O457 C447 1.268 . S
O458 Sc442 2.105 . S
O458 C449 1.268 . S
O459 Sc440 2.105 . S
O459 C445 1.268 . S
O460 Sc442 2.105 . S
O460 C444 1.268 . S
O461 Sc441 2.105 . S
O461 C446 1.268 . S
Sc462 O465 2.025 . S
Sc462 O472 2.105 . S
Sc462 O475 2.105 . S
Sc462 O478 2.105 . S
Sc462 O481 2.105 . S
Sc463 O465 2.025 . S
Sc463 O473 2.105 . S
Sc463 O477 2.105 . S
Sc463 O479 2.105 . S
Sc463 O483 2.105 . S
Sc464 O465 2.025 . S
Sc464 O474 2.105 . S
Sc464 O476 2.105 . S
Sc464 O480 2.105 . S
Sc464 O482 2.105 . S
O465 Sc462 2.025 . S
O465 Sc463 2.025 . S
O465 Sc464 2.025 . S
C466 O472 1.268 . S
C466 O482 1.268 . S
C467 O473 1.268 . S
C467 O481 1.268 . S
C468 O474 1.268 . S
C468 O483 1.268 . S
C469 O475 1.268 . S
C469 O479 1.268 . S
C470 O476 1.268 . S
C470 O478 1.268 . S
C471 O477 1.268 . S
C471 O480 1.268 . S
O472 Sc462 2.105 . S
O472 C466 1.268 . S
O473 Sc463 2.105 . S
O473 C467 1.268 . S
O474 Sc464 2.105 . S
O474 C468 1.268 . S
O475 Sc462 2.105 . S
O475 C469 1.268 . S
O476 Sc464 2.105 . S
O476 C470 1.268 . S
O477 Sc463 2.105 . S
O477 C471 1.268 . S
O478 Sc462 2.105 . S
O478 C470 1.268 . S
O479 Sc463 2.105 . S
O479 C469 1.268 . S
O480 Sc464 2.105 . S
O480 C471 1.268 . S
O481 Sc462 2.105 . S
O481 C467 1.268 . S
O482 Sc464 2.105 . S
O482 C466 1.268 . S
O483 Sc463 2.105 . S
O483 C468 1.268 . S
Sc484 O487 2.025 . S
Sc484 O494 2.105 . S
Sc484 O497 2.105 . S
Sc484 O500 2.105 . S
Sc484 O503 2.105 . S
Sc485 O487 2.025 . S
Sc485 O495 2.105 . S
Sc485 O499 2.105 . S
Sc485 O501 2.105 . S
Sc485 O505 2.105 . S
Sc486 O487 2.025 . S
Sc486 O496 2.105 . S
Sc486 O498 2.105 . S
Sc486 O502 2.105 . S
Sc486 O504 2.105 . S
O487 Sc484 2.025 . S
O487 Sc485 2.025 . S
O487 Sc486 2.025 . S
C488 O494 1.268 . S
C488 O504 1.268 . S
C489 O495 1.268 . S
C489 O503 1.268 . S
C490 O496 1.268 . S
C490 O505 1.268 . S
C491 O497 1.268 . S
C491 O501 1.268 . S
C492 O498 1.268 . S
C492 O500 1.268 . S
C493 O499 1.268 . S
C493 O502 1.268 . S
O494 Sc484 2.105 . S
O494 C488 1.268 . S
O495 Sc485 2.105 . S
O495 C489 1.268 . S
O496 Sc486 2.105 . S
O496 C490 1.268 . S
O497 Sc484 2.105 . S
O497 C491 1.268 . S
O498 Sc486 2.105 . S
O498 C492 1.268 . S
O499 Sc485 2.105 . S
O499 C493 1.268 . S
O500 Sc484 2.105 . S
O500 C492 1.268 . S
O501 Sc485 2.105 . S
O501 C491 1.268 . S
O502 Sc486 2.105 . S
O502 C493 1.268 . S
O503 Sc484 2.105 . S
O503 C489 1.268 . S
O504 Sc486 2.105 . S
O504 C488 1.268 . S
O505 Sc485 2.105 . S
O505 C490 1.268 . S
Sc506 O509 2.025 . S
Sc506 O516 2.105 . S
Sc506 O519 2.105 . S
Sc506 O522 2.105 . S
Sc506 O525 2.105 . S
Sc507 O509 2.025 . S
Sc507 O517 2.105 . S
Sc507 O521 2.105 . S
Sc507 O523 2.105 . S
Sc507 O527 2.105 . S
Sc508 O509 2.025 . S
Sc508 O518 2.105 . S
Sc508 O520 2.105 . S
Sc508 O524 2.105 . S
Sc508 O526 2.105 . S
O509 Sc506 2.025 . S
O509 Sc507 2.025 . S
O509 Sc508 2.025 . S
C510 O516 1.268 . S
C510 O526 1.268 . S
C511 O517 1.268 . S
C511 O525 1.268 . S
C512 O518 1.268 . S
C512 O527 1.268 . S
C513 O519 1.268 . S
C513 O523 1.268 . S
C514 O520 1.268 . S
C514 O522 1.268 . S
C515 O521 1.268 . S
C515 O524 1.268 . S
O516 Sc506 2.105 . S
O516 C510 1.268 . S
O517 Sc507 2.105 . S
O517 C511 1.268 . S
O518 Sc508 2.105 . S
O518 C512 1.268 . S
O519 Sc506 2.105 . S
O519 C513 1.268 . S
O520 Sc508 2.105 . S
O520 C514 1.268 . S
O521 Sc507 2.105 . S
O521 C515 1.268 . S
O522 Sc506 2.105 . S
O522 C514 1.268 . S
O523 Sc507 2.105 . S
O523 C513 1.268 . S
O524 Sc508 2.105 . S
O524 C515 1.268 . S
O525 Sc506 2.105 . S
O525 C511 1.268 . S
O526 Sc508 2.105 . S
O526 C510 1.268 . S
O527 Sc507 2.105 . S
O527 C512 1.268 . S
Sc528 O531 2.025 . S
Sc528 O538 2.105 . S
Sc528 O541 2.105 . S
Sc528 O544 2.105 . S
Sc528 O547 2.105 . S
Sc529 O531 2.025 . S
Sc529 O539 2.105 . S
Sc529 O543 2.105 . S
Sc529 O545 2.105 . S
Sc529 O549 2.105 . S
Sc530 O531 2.025 . S
Sc530 O540 2.105 . S
Sc530 O542 2.105 . S
Sc530 O546 2.105 . S
Sc530 O548 2.105 . S
O531 Sc528 2.025 . S
O531 Sc529 2.025 . S
O531 Sc530 2.025 . S
C532 O538 1.268 . S
C532 O548 1.268 . S
C533 O539 1.268 . S
C533 O547 1.268 . S
C534 O540 1.268 . S
C534 O549 1.268 . S
C535 O541 1.268 . S
C535 O545 1.268 . S
C536 O542 1.268 . S
C536 O544 1.268 . S
C537 O543 1.268 . S
C537 O546 1.268 . S
O538 Sc528 2.105 . S
O538 C532 1.268 . S
O539 Sc529 2.105 . S
O539 C533 1.268 . S
O540 Sc530 2.105 . S
O540 C534 1.268 . S
O541 Sc528 2.105 . S
O541 C535 1.268 . S
O542 Sc530 2.105 . S
O542 C536 1.268 . S
O543 Sc529 2.105 . S
O543 C537 1.268 . S
O544 Sc528 2.105 . S
O544 C536 1.268 . S
O545 Sc529 2.105 . S
O545 C535 1.268 . S
O546 Sc530 2.105 . S
O546 C537 1.268 . S
O547 Sc528 2.105 . S
O547 C533 1.268 . S
O548 Sc530 2.105 . S
O548 C532 1.268 . S
O549 Sc529 2.105 . S
O549 C534 1.268 . S
Sc550 O553 2.025 . S
Sc550 O560 2.105 . S
Sc550 O563 2.105 . S
Sc550 O566 2.105 . S
Sc550 O569 2.105 . S
Sc551 O553 2.025 . S
Sc551 O561 2.105 . S
Sc551 O565 2.105 . S
Sc551 O567 2.105 . S
Sc551 O571 2.105 . S
Sc552 O553 2.025 . S
Sc552 O562 2.105 . S
Sc552 O564 2.105 . S
Sc552 O568 2.105 . S
Sc552 O570 2.105 . S
O553 Sc550 2.025 . S
O553 Sc551 2.025 . S
O553 Sc552 2.025 . S
C554 O560 1.268 . S
C554 O570 1.268 . S
C555 O561 1.268 . S
C555 O569 1.268 . S
C556 O562 1.268 . S
C556 O571 1.268 . S
C557 O563 1.268 . S
C557 O567 1.268 . S
C558 O564 1.268 . S
C558 O566 1.268 . S
C559 O565 1.268 . S
C559 O568 1.268 . S
O560 Sc550 2.105 . S
O560 C554 1.268 . S
O561 Sc551 2.105 . S
O561 C555 1.268 . S
O562 Sc552 2.105 . S
O562 C556 1.268 . S
O563 Sc550 2.105 . S
O563 C557 1.268 . S
O564 Sc552 2.105 . S
O564 C558 1.268 . S
O565 Sc551 2.105 . S
O565 C559 1.268 . S
O566 Sc550 2.105 . S
O566 C558 1.268 . S
O567 Sc551 2.105 . S
O567 C557 1.268 . S
O568 Sc552 2.105 . S
O568 C559 1.268 . S
O569 Sc550 2.105 . S
O569 C555 1.268 . S
O570 Sc552 2.105 . S
O570 C554 1.268 . S
O571 Sc551 2.105 . S
O571 C556 1.268 . S
Sc572 O575 2.025 . S
Sc572 O582 2.105 . S
Sc572 O585 2.105 . S
Sc572 O588 2.105 . S
Sc572 O591 2.105 . S
Sc573 O575 2.025 . S
Sc573 O583 2.105 . S
Sc573 O587 2.105 . S
Sc573 O589 2.105 . S
Sc573 O593 2.105 . S
Sc574 O575 2.025 . S
Sc574 O584 2.105 . S
Sc574 O586 2.105 . S
Sc574 O590 2.105 . S
Sc574 O592 2.105 . S
O575 Sc572 2.025 . S
O575 Sc573 2.025 . S
O575 Sc574 2.025 . S
C576 O582 1.268 . S
C576 O592 1.268 . S
C577 O583 1.268 . S
C577 O591 1.268 . S
C578 O584 1.268 . S
C578 O593 1.268 . S
C579 O585 1.268 . S
C579 O589 1.268 . S
C580 O586 1.268 . S
C580 O588 1.268 . S
C581 O587 1.268 . S
C581 O590 1.268 . S
O582 Sc572 2.105 . S
O582 C576 1.268 . S
O583 Sc573 2.105 . S
O583 C577 1.268 . S
O584 Sc574 2.105 . S
O584 C578 1.268 . S
O585 Sc572 2.105 . S
O585 C579 1.268 . S
O586 Sc574 2.105 . S
O586 C580 1.268 . S
O587 Sc573 2.105 . S
O587 C581 1.268 . S
O588 Sc572 2.105 . S
O588 C580 1.268 . S
O589 Sc573 2.105 . S
O589 C579 1.268 . S
O590 Sc574 2.105 . S
O590 C581 1.268 . S
O591 Sc572 2.105 . S
O591 C577 1.268 . S
O592 Sc574 2.105 . S
O592 C576 1.268 . S
O593 Sc573 2.105 . S
O593 C578 1.268 . S
Sc594 O597 2.025 . S
Sc594 O604 2.105 . S
Sc594 O607 2.105 . S
Sc594 O610 2.105 . S
Sc594 O613 2.105 . S
Sc595 O597 2.025 . S
Sc595 O605 2.105 . S
Sc595 O609 2.105 . S
Sc595 O611 2.105 . S
Sc595 O615 2.105 . S
Sc596 O597 2.025 . S
Sc596 O606 2.105 . S
Sc596 O608 2.105 . S
Sc596 O612 2.105 . S
Sc596 O614 2.105 . S
O597 Sc594 2.025 . S
O597 Sc595 2.025 . S
O597 Sc596 2.025 . S
C598 O604 1.268 . S
C598 O614 1.268 . S
C599 O605 1.268 . S
C599 O613 1.268 . S
C600 O606 1.268 . S
C600 O615 1.268 . S
C601 O607 1.268 . S
C601 O611 1.268 . S
C602 O608 1.268 . S
C602 O610 1.268 . S
C603 O609 1.268 . S
C603 O612 1.268 . S
O604 Sc594 2.105 . S
O604 C598 1.268 . S
O605 Sc595 2.105 . S
O605 C599 1.268 . S
O606 Sc596 2.105 . S
O606 C600 1.268 . S
O607 Sc594 2.105 . S
O607 C601 1.268 . S
O608 Sc596 2.105 . S
O608 C602 1.268 . S
O609 Sc595 2.105 . S
O609 C603 1.268 . S
O610 Sc594 2.105 . S
O610 C602 1.268 . S
O611 Sc595 2.105 . S
O611 C601 1.268 . S
O612 Sc596 2.105 . S
O612 C603 1.268 . S
O613 Sc594 2.105 . S
O613 C599 1.268 . S
O614 Sc596 2.105 . S
O614 C598 1.268 . S
O615 Sc595 2.105 . S
O615 C600 1.268 . S
Sc616 O619 2.025 . S
Sc616 O626 2.105 . S
Sc616 O629 2.105 . S
Sc616 O632 2.105 . S
Sc616 O635 2.105 . S
Sc617 O619 2.025 . S
Sc617 O627 2.105 . S
Sc617 O631 2.105 . S
Sc617 O633 2.105 . S
Sc617 O637 2.105 . S
Sc618 O619 2.025 . S
Sc618 O628 2.105 . S
Sc618 O630 2.105 . S
Sc618 O634 2.105 . S
Sc618 O636 2.105 . S
O619 Sc616 2.025 . S
O619 Sc617 2.025 . S
O619 Sc618 2.025 . S
C620 O626 1.268 . S
C620 O636 1.268 . S
C621 O627 1.268 . S
C621 O635 1.268 . S
C622 O628 1.268 . S
C622 O637 1.268 . S
C623 O629 1.268 . S
C623 O633 1.268 . S
C624 O630 1.268 . S
C624 O632 1.268 . S
C625 O631 1.268 . S
C625 O634 1.268 . S
O626 Sc616 2.105 . S
O626 C620 1.268 . S
O627 Sc617 2.105 . S
O627 C621 1.268 . S
O628 Sc618 2.105 . S
O628 C622 1.268 . S
O629 Sc616 2.105 . S
O629 C623 1.268 . S
O630 Sc618 2.105 . S
O630 C624 1.268 . S
O631 Sc617 2.105 . S
O631 C625 1.268 . S
O632 Sc616 2.105 . S
O632 C624 1.268 . S
O633 Sc617 2.105 . S
O633 C623 1.268 . S
O634 Sc618 2.105 . S
O634 C625 1.268 . S
O635 Sc616 2.105 . S
O635 C621 1.268 . S
O636 Sc618 2.105 . S
O636 C620 1.268 . S
O637 Sc617 2.105 . S
O637 C622 1.268 . S
Sc638 O641 2.025 . S
Sc638 O648 2.105 . S
Sc638 O651 2.105 . S
Sc638 O654 2.105 . S
Sc638 O657 2.105 . S
Sc639 O641 2.025 . S
Sc639 O649 2.105 . S
Sc639 O653 2.105 . S
Sc639 O655 2.105 . S
Sc639 O659 2.105 . S
Sc640 O641 2.025 . S
Sc640 O650 2.105 . S
Sc640 O652 2.105 . S
Sc640 O656 2.105 . S
Sc640 O658 2.105 . S
O641 Sc638 2.025 . S
O641 Sc639 2.025 . S
O641 Sc640 2.025 . S
C642 O648 1.268 . S
C642 O658 1.268 . S
C643 O649 1.268 . S
C643 O657 1.268 . S
C644 O650 1.268 . S
C644 O659 1.268 . S
C645 O651 1.268 . S
C645 O655 1.268 . S
C646 O652 1.268 . S
C646 O654 1.268 . S
C647 O653 1.268 . S
C647 O656 1.268 . S
O648 Sc638 2.105 . S
O648 C642 1.268 . S
O649 Sc639 2.105 . S
O649 C643 1.268 . S
O650 Sc640 2.105 . S
O650 C644 1.268 . S
O651 Sc638 2.105 . S
O651 C645 1.268 . S
O652 Sc640 2.105 . S
O652 C646 1.268 . S
O653 Sc639 2.105 . S
O653 C647 1.268 . S
O654 Sc638 2.105 . S
O654 C646 1.268 . S
O655 Sc639 2.105 . S
O655 C645 1.268 . S
O656 Sc640 2.105 . S
O656 C647 1.268 . S
O657 Sc638 2.105 . S
O657 C643 1.268 . S
O658 Sc640 2.105 . S
O658 C642 1.268 . S
O659 Sc639 2.105 . S
O659 C644 1.268 . S
Sc660 O663 2.025 . S
Sc660 O670 2.105 . S
Sc660 O673 2.105 . S
Sc660 O676 2.105 . S
Sc660 O679 2.105 . S
Sc661 O663 2.025 . S
Sc661 O671 2.105 . S
Sc661 O675 2.105 . S
Sc661 O677 2.105 . S
Sc661 O681 2.105 . S
Sc662 O663 2.025 . S
Sc662 O672 2.105 . S
Sc662 O674 2.105 . S
Sc662 O678 2.105 . S
Sc662 O680 2.105 . S
O663 Sc660 2.025 . S
O663 Sc661 2.025 . S
O663 Sc662 2.025 . S
C664 O670 1.268 . S
C664 O680 1.268 . S
C665 O671 1.268 . S
C665 O679 1.268 . S
C666 O672 1.268 . S
C666 O681 1.268 . S
C667 O673 1.268 . S
C667 O677 1.268 . S
C668 O674 1.268 . S
C668 O676 1.268 . S
C669 O675 1.268 . S
C669 O678 1.268 . S
O670 Sc660 2.105 . S
O670 C664 1.268 . S
O671 Sc661 2.105 . S
O671 C665 1.268 . S
O672 Sc662 2.105 . S
O672 C666 1.268 . S
O673 Sc660 2.105 . S
O673 C667 1.268 . S
O674 Sc662 2.105 . S
O674 C668 1.268 . S
O675 Sc661 2.105 . S
O675 C669 1.268 . S
O676 Sc660 2.105 . S
O676 C668 1.268 . S
O677 Sc661 2.105 . S
O677 C667 1.268 . S
O678 Sc662 2.105 . S
O678 C669 1.268 . S
O679 Sc660 2.105 . S
O679 C665 1.268 . S
O680 Sc662 2.105 . S
O680 C664 1.268 . S
O681 Sc661 2.105 . S
O681 C666 1.268 . S
Sc682 O685 2.025 . S
Sc682 O692 2.105 . S
Sc682 O695 2.105 . S
Sc682 O698 2.105 . S
Sc682 O701 2.105 . S
Sc683 O685 2.025 . S
Sc683 O693 2.105 . S
Sc683 O697 2.105 . S
Sc683 O699 2.105 . S
Sc683 O703 2.105 . S
Sc684 O685 2.025 . S
Sc684 O694 2.105 . S
Sc684 O696 2.105 . S
Sc684 O700 2.105 . S
Sc684 O702 2.105 . S
O685 Sc682 2.025 . S
O685 Sc683 2.025 . S
O685 Sc684 2.025 . S
C686 O692 1.268 . S
C686 O702 1.268 . S
C687 O693 1.268 . S
C687 O701 1.268 . S
C688 O694 1.268 . S
C688 O703 1.268 . S
C689 O695 1.268 . S
C689 O699 1.268 . S
C690 O696 1.268 . S
C690 O698 1.268 . S
C691 O697 1.268 . S
C691 O700 1.268 . S
O692 Sc682 2.105 . S
O692 C686 1.268 . S
O693 Sc683 2.105 . S
O693 C687 1.268 . S
O694 Sc684 2.105 . S
O694 C688 1.268 . S
O695 Sc682 2.105 . S
O695 C689 1.268 . S
O696 Sc684 2.105 . S
O696 C690 1.268 . S
O697 Sc683 2.105 . S
O697 C691 1.268 . S
O698 Sc682 2.105 . S
O698 C690 1.268 . S
O699 Sc683 2.105 . S
O699 C689 1.268 . S
O700 Sc684 2.105 . S
O700 C691 1.268 . S
O701 Sc682 2.105 . S
O701 C687 1.268 . S
O702 Sc684 2.105 . S
O702 C686 1.268 . S
O703 Sc683 2.105 . S
O703 C688 1.268 . S
Sc704 O707 2.025 . S
Sc704 O714 2.105 . S
Sc704 O717 2.105 . S
Sc704 O720 2.105 . S
Sc704 O723 2.105 . S
Sc705 O707 2.025 . S
Sc705 O715 2.105 . S
Sc705 O719 2.105 . S
Sc705 O721 2.105 . S
Sc705 O725 2.105 . S
Sc706 O707 2.025 . S
Sc706 O716 2.105 . S
Sc706 O718 2.105 . S
Sc706 O722 2.105 . S
Sc706 O724 2.105 . S
O707 Sc704 2.025 . S
O707 Sc705 2.025 . S
O707 Sc706 2.025 . S
C708 O714 1.268 . S
C708 O724 1.268 . S
C709 O715 1.268 . S
C709 O723 1.268 . S
C710 O716 1.268 . S
C710 O725 1.268 . S
C711 O717 1.268 . S
C711 O721 1.268 . S
C712 O718 1.268 . S
C712 O720 1.268 . S
C713 O719 1.268 . S
C713 O722 1.268 . S
O714 Sc704 2.105 . S
O714 C708 1.268 . S
O715 Sc705 2.105 . S
O715 C709 1.268 . S
O716 Sc706 2.105 . S
O716 C710 1.268 . S
O717 Sc704 2.105 . S
O717 C711 1.268 . S
O718 Sc706 2.105 . S
O718 C712 1.268 . S
O719 Sc705 2.105 . S
O719 C713 1.268 . S
O720 Sc704 2.105 . S
O720 C712 1.268 . S
O721 Sc705 2.105 . S
O721 C711 1.268 . S
O722 Sc706 2.105 . S
O722 C713 1.268 . S
O723 Sc704 2.105 . S
O723 C709 1.268 . S
O724 Sc706 2.105 . S
O724 C708 1.268 . S
O725 Sc705 2.105 . S
O725 C710 1.268 . S
Sc726 O729 2.025 . S
Sc726 O736 2.105 . S
Sc726 O739 2.105 . S
Sc726 O742 2.105 . S
Sc726 O745 2.105 . S
Sc727 O729 2.025 . S
Sc727 O737 2.105 . S
Sc727 O741 2.105 . S
Sc727 O743 2.105 . S
Sc727 O747 2.105 . S
Sc728 O729 2.025 . S
Sc728 O738 2.105 . S
Sc728 O740 2.105 . S
Sc728 O744 2.105 . S
Sc728 O746 2.105 . S
O729 Sc726 2.025 . S
O729 Sc727 2.025 . S
O729 Sc728 2.025 . S
C730 O736 1.268 . S
C730 O746 1.268 . S
C731 O737 1.268 . S
C731 O745 1.268 . S
C732 O738 1.268 . S
C732 O747 1.268 . S
C733 O739 1.268 . S
C733 O743 1.268 . S
C734 O740 1.268 . S
C734 O742 1.268 . S
C735 O741 1.268 . S
C735 O744 1.268 . S
O736 Sc726 2.105 . S
O736 C730 1.268 . S
O737 Sc727 2.105 . S
O737 C731 1.268 . S
O738 Sc728 2.105 . S
O738 C732 1.268 . S
O739 Sc726 2.105 . S
O739 C733 1.268 . S
O740 Sc728 2.105 . S
O740 C734 1.268 . S
O741 Sc727 2.105 . S
O741 C735 1.268 . S
O742 Sc726 2.105 . S
O742 C734 1.268 . S
O743 Sc727 2.105 . S
O743 C733 1.268 . S
O744 Sc728 2.105 . S
O744 C735 1.268 . S
O745 Sc726 2.105 . S
O745 C731 1.268 . S
O746 Sc728 2.105 . S
O746 C730 1.268 . S
O747 Sc727 2.105 . S
O747 C732 1.268 . S
Sc748 O751 2.025 . S
Sc748 O758 2.105 . S
Sc748 O761 2.105 . S
Sc748 O764 2.105 . S
Sc748 O767 2.105 . S
Sc749 O751 2.025 . S
Sc749 O759 2.105 . S
Sc749 O763 2.105 . S
Sc749 O765 2.105 . S
Sc749 O769 2.105 . S
Sc750 O751 2.025 . S
Sc750 O760 2.105 . S
Sc750 O762 2.105 . S
Sc750 O766 2.105 . S
Sc750 O768 2.105 . S
O751 Sc748 2.025 . S
O751 Sc749 2.025 . S
O751 Sc750 2.025 . S
C752 O758 1.268 . S
C752 O768 1.268 . S
C753 O759 1.268 . S
C753 O767 1.268 . S
C754 O760 1.268 . S
C754 O769 1.268 . S
C755 O761 1.268 . S
C755 O765 1.268 . S
C756 O762 1.268 . S
C756 O764 1.268 . S
C757 O763 1.268 . S
C757 O766 1.268 . S
O758 Sc748 2.105 . S
O758 C752 1.268 . S
O759 Sc749 2.105 . S
O759 C753 1.268 . S
O760 Sc750 2.105 . S
O760 C754 1.268 . S
O761 Sc748 2.105 . S
O761 C755 1.268 . S
O762 Sc750 2.105 . S
O762 C756 1.268 . S
O763 Sc749 2.105 . S
O763 C757 1.268 . S
O764 Sc748 2.105 . S
O764 C756 1.268 . S
O765 Sc749 2.105 . S
O765 C755 1.268 . S
O766 Sc750 2.105 . S
O766 C757 1.268 . S
O767 Sc748 2.105 . S
O767 C753 1.268 . S
O768 Sc750 2.105 . S
O768 C752 1.268 . S
O769 Sc749 2.105 . S
O769 C754 1.268 . S
Sc770 O773 2.025 . S
Sc770 O780 2.105 . S
Sc770 O783 2.105 . S
Sc770 O786 2.105 . S
Sc770 O789 2.105 . S
Sc771 O773 2.025 . S
Sc771 O781 2.105 . S
Sc771 O785 2.105 . S
Sc771 O787 2.105 . S
Sc771 O791 2.105 . S
Sc772 O773 2.025 . S
Sc772 O782 2.105 . S
Sc772 O784 2.105 . S
Sc772 O788 2.105 . S
Sc772 O790 2.105 . S
O773 Sc770 2.025 . S
O773 Sc771 2.025 . S
O773 Sc772 2.025 . S
C774 O780 1.268 . S
C774 O790 1.268 . S
C775 O781 1.268 . S
C775 O789 1.268 . S
C776 O782 1.268 . S
C776 O791 1.268 . S
C777 O783 1.268 . S
C777 O787 1.268 . S
C778 O784 1.268 . S
C778 O786 1.268 . S
C779 O785 1.268 . S
C779 O788 1.268 . S
O780 Sc770 2.105 . S
O780 C774 1.268 . S
O781 Sc771 2.105 . S
O781 C775 1.268 . S
O782 Sc772 2.105 . S
O782 C776 1.268 . S
O783 Sc770 2.105 . S
O783 C777 1.268 . S
O784 Sc772 2.105 . S
O784 C778 1.268 . S
O785 Sc771 2.105 . S
O785 C779 1.268 . S
O786 Sc770 2.105 . S
O786 C778 1.268 . S
O787 Sc771 2.105 . S
O787 C777 1.268 . S
O788 Sc772 2.105 . S
O788 C779 1.268 . S
O789 Sc770 2.105 . S
O789 C775 1.268 . S
O790 Sc772 2.105 . S
O790 C774 1.268 . S
O791 Sc771 2.105 . S
O791 C776 1.268 . S
Sc792 O795 2.025 . S
Sc792 O802 2.105 . S
Sc792 O805 2.105 . S
Sc792 O808 2.105 . S
Sc792 O811 2.105 . S
Sc793 O795 2.025 . S
Sc793 O803 2.105 . S
Sc793 O807 2.105 . S
Sc793 O809 2.105 . S
Sc793 O813 2.105 . S
Sc794 O795 2.025 . S
Sc794 O804 2.105 . S
Sc794 O806 2.105 . S
Sc794 O810 2.105 . S
Sc794 O812 2.105 . S
O795 Sc792 2.025 . S
O795 Sc793 2.025 . S
O795 Sc794 2.025 . S
C796 O802 1.268 . S
C796 O812 1.268 . S
C797 O803 1.268 . S
C797 O811 1.268 . S
C798 O804 1.268 . S
C798 O813 1.268 . S
C799 O805 1.268 . S
C799 O809 1.268 . S
C800 O806 1.268 . S
C800 O808 1.268 . S
C801 O807 1.268 . S
C801 O810 1.268 . S
O802 Sc792 2.105 . S
O802 C796 1.268 . S
O803 Sc793 2.105 . S
O803 C797 1.268 . S
O804 Sc794 2.105 . S
O804 C798 1.268 . S
O805 Sc792 2.105 . S
O805 C799 1.268 . S
O806 Sc794 2.105 . S
O806 C800 1.268 . S
O807 Sc793 2.105 . S
O807 C801 1.268 . S
O808 Sc792 2.105 . S
O808 C800 1.268 . S
O809 Sc793 2.105 . S
O809 C799 1.268 . S
O810 Sc794 2.105 . S
O810 C801 1.268 . S
O811 Sc792 2.105 . S
O811 C797 1.268 . S
O812 Sc794 2.105 . S
O812 C796 1.268 . S
O813 Sc793 2.105 . S
O813 C798 1.268 . S
Sc814 O817 2.025 . S
Sc814 O824 2.105 . S
Sc814 O827 2.105 . S
Sc814 O830 2.105 . S
Sc814 O833 2.105 . S
Sc815 O817 2.025 . S
Sc815 O825 2.105 . S
Sc815 O829 2.105 . S
Sc815 O831 2.105 . S
Sc815 O835 2.105 . S
Sc816 O817 2.025 . S
Sc816 O826 2.105 . S
Sc816 O828 2.105 . S
Sc816 O832 2.105 . S
Sc816 O834 2.105 . S
O817 Sc814 2.025 . S
O817 Sc815 2.025 . S
O817 Sc816 2.025 . S
C818 O824 1.268 . S
C818 O834 1.268 . S
C819 O825 1.268 . S
C819 O833 1.268 . S
C820 O826 1.268 . S
C820 O835 1.268 . S
C821 O827 1.268 . S
C821 O831 1.268 . S
C822 O828 1.268 . S
C822 O830 1.268 . S
C823 O829 1.268 . S
C823 O832 1.268 . S
O824 Sc814 2.105 . S
O824 C818 1.268 . S
O825 Sc815 2.105 . S
O825 C819 1.268 . S
O826 Sc816 2.105 . S
O826 C820 1.268 . S
O827 Sc814 2.105 . S
O827 C821 1.268 . S
O828 Sc816 2.105 . S
O828 C822 1.268 . S
O829 Sc815 2.105 . S
O829 C823 1.268 . S
O830 Sc814 2.105 . S
O830 C822 1.268 . S
O831 Sc815 2.105 . S
O831 C821 1.268 . S
O832 Sc816 2.105 . S
O832 C823 1.268 . S
O833 Sc814 2.105 . S
O833 C819 1.268 . S
O834 Sc816 2.105 . S
O834 C818 1.268 . S
O835 Sc815 2.105 . S
O835 C820 1.268 . S
Sc836 O839 2.025 . S
Sc836 O846 2.105 . S
Sc836 O849 2.105 . S
Sc836 O852 2.105 . S
Sc836 O855 2.105 . S
Sc837 O839 2.025 . S
Sc837 O847 2.105 . S
Sc837 O851 2.105 . S
Sc837 O853 2.105 . S
Sc837 O857 2.105 . S
Sc838 O839 2.025 . S
Sc838 O848 2.105 . S
Sc838 O850 2.105 . S
Sc838 O854 2.105 . S
Sc838 O856 2.105 . S
O839 Sc836 2.025 . S
O839 Sc837 2.025 . S
O839 Sc838 2.025 . S
C840 O846 1.268 . S
C840 O856 1.268 . S
C841 O847 1.268 . S
C841 O855 1.268 . S
C842 O848 1.268 . S
C842 O857 1.268 . S
C843 O849 1.268 . S
C843 O853 1.268 . S
C844 O850 1.268 . S
C844 O852 1.268 . S
C845 O851 1.268 . S
C845 O854 1.268 . S
O846 Sc836 2.105 . S
O846 C840 1.268 . S
O847 Sc837 2.105 . S
O847 C841 1.268 . S
O848 Sc838 2.105 . S
O848 C842 1.268 . S
O849 Sc836 2.105 . S
O849 C843 1.268 . S
O850 Sc838 2.105 . S
O850 C844 1.268 . S
O851 Sc837 2.105 . S
O851 C845 1.268 . S
O852 Sc836 2.105 . S
O852 C844 1.268 . S
O853 Sc837 2.105 . S
O853 C843 1.268 . S
O854 Sc838 2.105 . S
O854 C845 1.268 . S
O855 Sc836 2.105 . S
O855 C841 1.268 . S
O856 Sc838 2.105 . S
O856 C840 1.268 . S
O857 Sc837 2.105 . S
O857 C842 1.268 . S
Sc858 O861 2.025 . S
Sc858 O868 2.105 . S
Sc858 O871 2.105 . S
Sc858 O874 2.105 . S
Sc858 O877 2.105 . S
Sc859 O861 2.025 . S
Sc859 O869 2.105 . S
Sc859 O873 2.105 . S
Sc859 O875 2.105 . S
Sc859 O879 2.105 . S
Sc860 O861 2.025 . S
Sc860 O870 2.105 . S
Sc860 O872 2.105 . S
Sc860 O876 2.105 . S
Sc860 O878 2.105 . S
O861 Sc858 2.025 . S
O861 Sc859 2.025 . S
O861 Sc860 2.025 . S
C862 O868 1.268 . S
C862 O878 1.268 . S
C863 O869 1.268 . S
C863 O877 1.268 . S
C864 O870 1.268 . S
C864 O879 1.268 . S
C865 O871 1.268 . S
C865 O875 1.268 . S
C866 O872 1.268 . S
C866 O874 1.268 . S
C867 O873 1.268 . S
C867 O876 1.268 . S
O868 Sc858 2.105 . S
O868 C862 1.268 . S
O869 Sc859 2.105 . S
O869 C863 1.268 . S
O870 Sc860 2.105 . S
O870 C864 1.268 . S
O871 Sc858 2.105 . S
O871 C865 1.268 . S
O872 Sc860 2.105 . S
O872 C866 1.268 . S
O873 Sc859 2.105 . S
O873 C867 1.268 . S
O874 Sc858 2.105 . S
O874 C866 1.268 . S
O875 Sc859 2.105 . S
O875 C865 1.268 . S
O876 Sc860 2.105 . S
O876 C867 1.268 . S
O877 Sc858 2.105 . S
O877 C863 1.268 . S
O878 Sc860 2.105 . S
O878 C862 1.268 . S
O879 Sc859 2.105 . S
O879 C864 1.268 . S
Sc880 O883 2.025 . S
Sc880 O890 2.105 . S
Sc880 O893 2.105 . S
Sc880 O896 2.105 . S
Sc880 O899 2.105 . S
Sc881 O883 2.025 . S
Sc881 O891 2.105 . S
Sc881 O895 2.105 . S
Sc881 O897 2.105 . S
Sc881 O901 2.105 . S
Sc882 O883 2.025 . S
Sc882 O892 2.105 . S
Sc882 O894 2.105 . S
Sc882 O898 2.105 . S
Sc882 O900 2.105 . S
O883 Sc880 2.025 . S
O883 Sc881 2.025 . S
O883 Sc882 2.025 . S
C884 O890 1.268 . S
C884 O900 1.268 . S
C885 O891 1.268 . S
C885 O899 1.268 . S
C886 O892 1.268 . S
C886 O901 1.268 . S
C887 O893 1.268 . S
C887 O897 1.268 . S
C888 O894 1.268 . S
C888 O896 1.268 . S
C889 O895 1.268 . S
C889 O898 1.268 . S
O890 Sc880 2.105 . S
O890 C884 1.268 . S
O891 Sc881 2.105 . S
O891 C885 1.268 . S
O892 Sc882 2.105 . S
O892 C886 1.268 . S
O893 Sc880 2.105 . S
O893 C887 1.268 . S
O894 Sc882 2.105 . S
O894 C888 1.268 . S
O895 Sc881 2.105 . S
O895 C889 1.268 . S
O896 Sc880 2.105 . S
O896 C888 1.268 . S
O897 Sc881 2.105 . S
O897 C887 1.268 . S
O898 Sc882 2.105 . S
O898 C889 1.268 . S
O899 Sc880 2.105 . S
O899 C885 1.268 . S
O900 Sc882 2.105 . S
O900 C884 1.268 . S
O901 Sc881 2.105 . S
O901 C886 1.268 . S
Sc902 O905 2.025 . S
Sc902 O912 2.105 . S
Sc902 O915 2.105 . S
Sc902 O918 2.105 . S
Sc902 O921 2.105 . S
Sc903 O905 2.025 . S
Sc903 O913 2.105 . S
Sc903 O917 2.105 . S
Sc903 O919 2.105 . S
Sc903 O923 2.105 . S
Sc904 O905 2.025 . S
Sc904 O914 2.105 . S
Sc904 O916 2.105 . S
Sc904 O920 2.105 . S
Sc904 O922 2.105 . S
O905 Sc902 2.025 . S
O905 Sc903 2.025 . S
O905 Sc904 2.025 . S
C906 O912 1.268 . S
C906 O922 1.268 . S
C907 O913 1.268 . S
C907 O921 1.268 . S
C908 O914 1.268 . S
C908 O923 1.268 . S
C909 O915 1.268 . S
C909 O919 1.268 . S
C910 O916 1.268 . S
C910 O918 1.268 . S
C911 O917 1.268 . S
C911 O920 1.268 . S
O912 Sc902 2.105 . S
O912 C906 1.268 . S
O913 Sc903 2.105 . S
O913 C907 1.268 . S
O914 Sc904 2.105 . S
O914 C908 1.268 . S
O915 Sc902 2.105 . S
O915 C909 1.268 . S
O916 Sc904 2.105 . S
O916 C910 1.268 . S
O917 Sc903 2.105 . S
O917 C911 1.268 . S
O918 Sc902 2.105 . S
O918 C910 1.268 . S
O919 Sc903 2.105 . S
O919 C909 1.268 . S
O920 Sc904 2.105 . S
O920 C911 1.268 . S
O921 Sc902 2.105 . S
O921 C907 1.268 . S
O922 Sc904 2.105 . S
O922 C906 1.268 . S
O923 Sc903 2.105 . S
O923 C908 1.268 . S
Sc924 O927 2.025 . S
Sc924 O934 2.105 . S
Sc924 O937 2.105 . S
Sc924 O940 2.105 . S
Sc924 O943 2.105 . S
Sc925 O927 2.025 . S
Sc925 O935 2.105 . S
Sc925 O939 2.105 . S
Sc925 O941 2.105 . S
Sc925 O945 2.105 . S
Sc926 O927 2.025 . S
Sc926 O936 2.105 . S
Sc926 O938 2.105 . S
Sc926 O942 2.105 . S
Sc926 O944 2.105 . S
O927 Sc924 2.025 . S
O927 Sc925 2.025 . S
O927 Sc926 2.025 . S
C928 O934 1.268 . S
C928 O944 1.268 . S
C929 O935 1.268 . S
C929 O943 1.268 . S
C930 O936 1.268 . S
C930 O945 1.268 . S
C931 O937 1.268 . S
C931 O941 1.268 . S
C932 O938 1.268 . S
C932 O940 1.268 . S
C933 O939 1.268 . S
C933 O942 1.268 . S
O934 Sc924 2.105 . S
O934 C928 1.268 . S
O935 Sc925 2.105 . S
O935 C929 1.268 . S
O936 Sc926 2.105 . S
O936 C930 1.268 . S
O937 Sc924 2.105 . S
O937 C931 1.268 . S
O938 Sc926 2.105 . S
O938 C932 1.268 . S
O939 Sc925 2.105 . S
O939 C933 1.268 . S
O940 Sc924 2.105 . S
O940 C932 1.268 . S
O941 Sc925 2.105 . S
O941 C931 1.268 . S
O942 Sc926 2.105 . S
O942 C933 1.268 . S
O943 Sc924 2.105 . S
O943 C929 1.268 . S
O944 Sc926 2.105 . S
O944 C928 1.268 . S
O945 Sc925 2.105 . S
O945 C930 1.268 . S
Sc946 O949 2.025 . S
Sc946 O956 2.105 . S
Sc946 O959 2.105 . S
Sc946 O962 2.105 . S
Sc946 O965 2.105 . S
Sc947 O949 2.025 . S
Sc947 O957 2.105 . S
Sc947 O961 2.105 . S
Sc947 O963 2.105 . S
Sc947 O967 2.105 . S
Sc948 O949 2.025 . S
Sc948 O958 2.105 . S
Sc948 O960 2.105 . S
Sc948 O964 2.105 . S
Sc948 O966 2.105 . S
O949 Sc946 2.025 . S
O949 Sc947 2.025 . S
O949 Sc948 2.025 . S
C950 O956 1.268 . S
C950 O966 1.268 . S
C951 O957 1.268 . S
C951 O965 1.268 . S
C952 O958 1.268 . S
C952 O967 1.268 . S
C953 O959 1.268 . S
C953 O963 1.268 . S
C954 O960 1.268 . S
C954 O962 1.268 . S
C955 O961 1.268 . S
C955 O964 1.268 . S
O956 Sc946 2.105 . S
O956 C950 1.268 . S
O957 Sc947 2.105 . S
O957 C951 1.268 . S
O958 Sc948 2.105 . S
O958 C952 1.268 . S
O959 Sc946 2.105 . S
O959 C953 1.268 . S
O960 Sc948 2.105 . S
O960 C954 1.268 . S
O961 Sc947 2.105 . S
O961 C955 1.268 . S
O962 Sc946 2.105 . S
O962 C954 1.268 . S
O963 Sc947 2.105 . S
O963 C953 1.268 . S
O964 Sc948 2.105 . S
O964 C955 1.268 . S
O965 Sc946 2.105 . S
O965 C951 1.268 . S
O966 Sc948 2.105 . S
O966 C950 1.268 . S
O967 Sc947 2.105 . S
O967 C952 1.268 . S
Sc968 O971 2.025 . S
Sc968 O978 2.105 . S
Sc968 O981 2.105 . S
Sc968 O984 2.105 . S
Sc968 O987 2.105 . S
Sc969 O971 2.025 . S
Sc969 O979 2.105 . S
Sc969 O983 2.105 . S
Sc969 O985 2.105 . S
Sc969 O989 2.105 . S
Sc970 O971 2.025 . S
Sc970 O980 2.105 . S
Sc970 O982 2.105 . S
Sc970 O986 2.105 . S
Sc970 O988 2.105 . S
O971 Sc968 2.025 . S
O971 Sc969 2.025 . S
O971 Sc970 2.025 . S
C972 O978 1.268 . S
C972 O988 1.268 . S
C973 O979 1.268 . S
C973 O987 1.268 . S
C974 O980 1.268 . S
C974 O989 1.268 . S
C975 O981 1.268 . S
C975 O985 1.268 . S
C976 O982 1.268 . S
C976 O984 1.268 . S
C977 O983 1.268 . S
C977 O986 1.268 . S
O978 Sc968 2.105 . S
O978 C972 1.268 . S
O979 Sc969 2.105 . S
O979 C973 1.268 . S
O980 Sc970 2.105 . S
O980 C974 1.268 . S
O981 Sc968 2.105 . S
O981 C975 1.268 . S
O982 Sc970 2.105 . S
O982 C976 1.268 . S
O983 Sc969 2.105 . S
O983 C977 1.268 . S
O984 Sc968 2.105 . S
O984 C976 1.268 . S
O985 Sc969 2.105 . S
O985 C975 1.268 . S
O986 Sc970 2.105 . S
O986 C977 1.268 . S
O987 Sc968 2.105 . S
O987 C973 1.268 . S
O988 Sc970 2.105 . S
O988 C972 1.268 . S
O989 Sc969 2.105 . S
O989 C974 1.268 . S
Sc990 O993 2.025 . S
Sc990 O1000 2.105 . S
Sc990 O1003 2.105 . S
Sc990 O1006 2.105 . S
Sc990 O1009 2.105 . S
Sc991 O993 2.025 . S
Sc991 O1001 2.105 . S
Sc991 O1005 2.105 . S
Sc991 O1007 2.105 . S
Sc991 O1011 2.105 . S
Sc992 O993 2.025 . S
Sc992 O1002 2.105 . S
Sc992 O1004 2.105 . S
Sc992 O1008 2.105 . S
Sc992 O1010 2.105 . S
O993 Sc990 2.025 . S
O993 Sc991 2.025 . S
O993 Sc992 2.025 . S
C994 O1000 1.268 . S
C994 O1010 1.268 . S
C995 O1001 1.268 . S
C995 O1009 1.268 . S
C996 O1002 1.268 . S
C996 O1011 1.268 . S
C997 O1003 1.268 . S
C997 O1007 1.268 . S
C998 O1004 1.268 . S
C998 O1006 1.268 . S
C999 O1005 1.268 . S
C999 O1008 1.268 . S
O1000 Sc990 2.105 . S
O1000 C994 1.268 . S
O1001 Sc991 2.105 . S
O1001 C995 1.268 . S
O1002 Sc992 2.105 . S
O1002 C996 1.268 . S
O1003 Sc990 2.105 . S
O1003 C997 1.268 . S
O1004 Sc992 2.105 . S
O1004 C998 1.268 . S
O1005 Sc991 2.105 . S
O1005 C999 1.268 . S
O1006 Sc990 2.105 . S
O1006 C998 1.268 . S
O1007 Sc991 2.105 . S
O1007 C997 1.268 . S
O1008 Sc992 2.105 . S
O1008 C999 1.268 . S
O1009 Sc990 2.105 . S
O1009 C995 1.268 . S
O1010 Sc992 2.105 . S
O1010 C994 1.268 . S
O1011 Sc991 2.105 . S
O1011 C996 1.268 . S
Sc1012 O1015 2.025 . S
Sc1012 O1022 2.105 . S
Sc1012 O1025 2.105 . S
Sc1012 O1028 2.105 . S
Sc1012 O1031 2.105 . S
Sc1013 O1015 2.025 . S
Sc1013 O1023 2.105 . S
Sc1013 O1027 2.105 . S
Sc1013 O1029 2.105 . S
Sc1013 O1033 2.105 . S
Sc1014 O1015 2.025 . S
Sc1014 O1024 2.105 . S
Sc1014 O1026 2.105 . S
Sc1014 O1030 2.105 . S
Sc1014 O1032 2.105 . S
O1015 Sc1012 2.025 . S
O1015 Sc1013 2.025 . S
O1015 Sc1014 2.025 . S
C1016 O1022 1.268 . S
C1016 O1032 1.268 . S
C1017 O1023 1.268 . S
C1017 O1031 1.268 . S
C1018 O1024 1.268 . S
C1018 O1033 1.268 . S
C1019 O1025 1.268 . S
C1019 O1029 1.268 . S
C1020 O1026 1.268 . S
C1020 O1028 1.268 . S
C1021 O1027 1.268 . S
C1021 O1030 1.268 . S
O1022 Sc1012 2.105 . S
O1022 C1016 1.268 . S
O1023 Sc1013 2.105 . S
O1023 C1017 1.268 . S
O1024 Sc1014 2.105 . S
O1024 C1018 1.268 . S
O1025 Sc1012 2.105 . S
O1025 C1019 1.268 . S
O1026 Sc1014 2.105 . S
O1026 C1020 1.268 . S
O1027 Sc1013 2.105 . S
O1027 C1021 1.268 . S
O1028 Sc1012 2.105 . S
O1028 C1020 1.268 . S
O1029 Sc1013 2.105 . S
O1029 C1019 1.268 . S
O1030 Sc1014 2.105 . S
O1030 C1021 1.268 . S
O1031 Sc1012 2.105 . S
O1031 C1017 1.268 . S
O1032 Sc1014 2.105 . S
O1032 C1016 1.268 . S
O1033 Sc1013 2.105 . S
O1033 C1018 1.268 . S
Sc1034 O1037 2.025 . S
Sc1034 O1044 2.105 . S
Sc1034 O1047 2.105 . S
Sc1034 O1050 2.105 . S
Sc1034 O1053 2.105 . S
Sc1035 O1037 2.025 . S
Sc1035 O1045 2.105 . S
Sc1035 O1049 2.105 . S
Sc1035 O1051 2.105 . S
Sc1035 O1055 2.105 . S
Sc1036 O1037 2.025 . S
Sc1036 O1046 2.105 . S
Sc1036 O1048 2.105 . S
Sc1036 O1052 2.105 . S
Sc1036 O1054 2.105 . S
O1037 Sc1034 2.025 . S
O1037 Sc1035 2.025 . S
O1037 Sc1036 2.025 . S
C1038 O1044 1.268 . S
C1038 O1054 1.268 . S
C1039 O1045 1.268 . S
C1039 O1053 1.268 . S
C1040 O1046 1.268 . S
C1040 O1055 1.268 . S
C1041 O1047 1.268 . S
C1041 O1051 1.268 . S
C1042 O1048 1.268 . S
C1042 O1050 1.268 . S
C1043 O1049 1.268 . S
C1043 O1052 1.268 . S
O1044 Sc1034 2.105 . S
O1044 C1038 1.268 . S
O1045 Sc1035 2.105 . S
O1045 C1039 1.268 . S
O1046 Sc1036 2.105 . S
O1046 C1040 1.268 . S
O1047 Sc1034 2.105 . S
O1047 C1041 1.268 . S
O1048 Sc1036 2.105 . S
O1048 C1042 1.268 . S
O1049 Sc1035 2.105 . S
O1049 C1043 1.268 . S
O1050 Sc1034 2.105 . S
O1050 C1042 1.268 . S
O1051 Sc1035 2.105 . S
O1051 C1041 1.268 . S
O1052 Sc1036 2.105 . S
O1052 C1043 1.268 . S
O1053 Sc1034 2.105 . S
O1053 C1039 1.268 . S
O1054 Sc1036 2.105 . S
O1054 C1038 1.268 . S
O1055 Sc1035 2.105 . S
O1055 C1040 1.268 . S
C1056 C1057 1.349 . S
C1056 C1058 1.327 . S
C1056 H1081 0.950 . S
C1057 C1056 1.349 . S
C1057 C1073 1.349 . S
C1058 C1056 1.327 . S
C1058 C1077 1.429 . S
C1058 H1082 0.950 . S
C1059 C1076 1.574 1_545 S
C1059 C1078 1.368 . S
C1059 H1083 0.949 . S
H1060 C1064 0.949 . S
C1061 C1062 1.349 . S
C1061 C1063 1.327 . S
C1061 H1084 0.950 . S
C1062 C1061 1.349 . S
C1062 C1074 1.349 . S
C1063 C1061 1.327 . S
C1063 C1079 1.429 . S
C1063 H1085 0.950 . S
C1064 H1060 0.949 . S
C1064 C1072 1.574 1_565 S
C1064 C1080 1.368 . S
H1065 C1073 0.950 . S
H1066 C1071 0.950 . S
H1067 C1072 0.949 . S
H1068 C1074 0.950 . S
H1069 C1075 0.950 . S
H1070 C1076 0.949 . S
C1071 H1066 0.950 . S
C1071 C1073 1.327 . S
C1071 C1077 1.429 . S
C1072 C1064 1.574 1_545 S
C1072 H1067 0.949 . S
C1072 C1078 1.368 . S
C1073 C1057 1.349 . S
C1073 H1065 0.950 . S
C1073 C1071 1.327 . S
C1074 C1062 1.349 . S
C1074 H1068 0.950 . S
C1074 C1075 1.327 . S
C1075 H1069 0.950 . S
C1075 C1074 1.327 . S
C1075 C1079 1.429 . S
C1076 C1059 1.574 1_565 S
C1076 H1070 0.949 . S
C1076 C1080 1.368 . S
C1077 C1058 1.429 . S
C1077 C1071 1.429 . S
C1077 C1078 1.523 . S
C1078 C1059 1.368 . S
C1078 C1072 1.368 . S
C1078 C1077 1.523 . S
C1079 C1063 1.429 . S
C1079 C1075 1.429 . S
C1079 C1080 1.523 . S
C1080 C1064 1.368 . S
C1080 C1076 1.368 . S
C1080 C1079 1.523 . S
H1081 C1056 0.950 . S
H1082 C1058 0.950 . S
H1083 C1059 0.949 . S
H1084 C1061 0.950 . S
H1085 C1063 0.950 . S
C1086 C1087 1.349 . S
C1086 C1088 1.327 . S
C1086 H1111 0.950 . S
C1087 C1086 1.349 . S
C1087 C1103 1.349 . S
C1088 C1086 1.327 . S
C1088 C1107 1.429 . S
C1088 H1112 0.950 . S
C1089 C1106 1.574 1_455 S
C1089 C1108 1.368 . S
C1089 H1113 0.949 . S
H1090 C1094 0.949 . S
C1091 C1092 1.349 . S
C1091 C1093 1.327 . S
C1091 H1114 0.950 . S
C1092 C1091 1.349 . S
C1092 C1104 1.349 . S
C1093 C1091 1.327 . S
C1093 C1109 1.429 . S
C1093 H1115 0.950 . S
C1094 H1090 0.949 . S
C1094 C1102 1.574 1_655 S
C1094 C1110 1.368 . S
H1095 C1103 0.950 . S
H1096 C1101 0.950 . S
H1097 C1102 0.949 . S
H1098 C1104 0.950 . S
H1099 C1105 0.950 . S
H1100 C1106 0.949 . S
C1101 H1096 0.950 . S
C1101 C1103 1.327 . S
C1101 C1107 1.429 . S
C1102 C1094 1.574 1_455 S
C1102 H1097 0.949 . S
C1102 C1108 1.368 . S
C1103 C1087 1.349 . S
C1103 H1095 0.950 . S
C1103 C1101 1.327 . S
C1104 C1092 1.349 . S
C1104 H1098 0.950 . S
C1104 C1105 1.327 . S
C1105 H1099 0.950 . S
C1105 C1104 1.327 . S
C1105 C1109 1.429 . S
C1106 C1089 1.574 1_655 S
C1106 H1100 0.949 . S
C1106 C1110 1.368 . S
C1107 C1088 1.429 . S
C1107 C1101 1.429 . S
C1107 C1108 1.523 . S
C1108 C1089 1.368 . S
C1108 C1102 1.368 . S
C1108 C1107 1.523 . S
C1109 C1093 1.429 . S
C1109 C1105 1.429 . S
C1109 C1110 1.523 . S
C1110 C1094 1.368 . S
C1110 C1106 1.368 . S
C1110 C1109 1.523 . S
H1111 C1086 0.950 . S
H1112 C1088 0.950 . S
H1113 C1089 0.949 . S
H1114 C1091 0.950 . S
H1115 C1093 0.950 . S
C1116 C1117 1.349 . S
C1116 C1118 1.327 . S
C1116 H1141 0.950 . S
C1117 C1116 1.349 . S
C1117 C1133 1.349 . S
C1118 C1116 1.327 . S
C1118 C1137 1.429 . S
C1118 H1142 0.950 . S
C1119 C1136 1.574 1_545 S
C1119 C1138 1.368 . S
C1119 H1143 0.949 . S
H1120 C1124 0.949 . S
C1121 C1122 1.349 . S
C1121 C1123 1.327 . S
C1121 H1144 0.950 . S
C1122 C1121 1.349 . S
C1122 C1134 1.349 . S
C1123 C1121 1.327 . S
C1123 C1139 1.429 . S
C1123 H1145 0.950 . S
C1124 H1120 0.949 . S
C1124 C1132 1.574 1_565 S
C1124 C1140 1.368 . S
H1125 C1133 0.950 . S
H1126 C1131 0.950 . S
H1127 C1132 0.949 . S
H1128 C1134 0.950 . S
H1129 C1135 0.950 . S
H1130 C1136 0.949 . S
C1131 H1126 0.950 . S
C1131 C1133 1.327 . S
C1131 C1137 1.429 . S
C1132 C1124 1.574 1_545 S
C1132 H1127 0.949 . S
C1132 C1138 1.368 . S
C1133 C1117 1.349 . S
C1133 H1125 0.950 . S
C1133 C1131 1.327 . S
C1134 C1122 1.349 . S
C1134 H1128 0.950 . S
C1134 C1135 1.327 . S
C1135 H1129 0.950 . S
C1135 C1134 1.327 . S
C1135 C1139 1.429 . S
C1136 C1119 1.574 1_565 S
C1136 H1130 0.949 . S
C1136 C1140 1.368 . S
C1137 C1118 1.429 . S
C1137 C1131 1.429 . S
C1137 C1138 1.523 . S
C1138 C1119 1.368 . S
C1138 C1132 1.368 . S
C1138 C1137 1.523 . S
C1139 C1123 1.429 . S
C1139 C1135 1.429 . S
C1139 C1140 1.523 . S
C1140 C1124 1.368 . S
C1140 C1136 1.368 . S
C1140 C1139 1.523 . S
H1141 C1116 0.950 . S
H1142 C1118 0.950 . S
H1143 C1119 0.949 . S
H1144 C1121 0.950 . S
H1145 C1123 0.950 . S
C1146 C1147 1.349 . S
C1146 C1148 1.327 . S
C1146 H1171 0.950 . S
C1147 C1146 1.349 . S
C1147 C1163 1.349 . S
C1148 C1146 1.327 . S
C1148 C1167 1.429 . S
C1148 H1172 0.950 . S
C1149 C1166 1.574 1_655 S
C1149 C1168 1.368 . S
C1149 H1173 0.949 . S
H1150 C1154 0.949 . S
C1151 C1152 1.349 . S
C1151 C1153 1.327 . S
C1151 H1174 0.950 . S
C1152 C1151 1.349 . S
C1152 C1164 1.349 . S
C1153 C1151 1.327 . S
C1153 C1169 1.429 . S
C1153 H1175 0.950 . S
C1154 H1150 0.949 . S
C1154 C1162 1.574 1_455 S
C1154 C1170 1.368 . S
H1155 C1163 0.950 . S
H1156 C1161 0.950 . S
H1157 C1162 0.949 . S
H1158 C1164 0.950 . S
H1159 C1165 0.950 . S
H1160 C1166 0.949 . S
C1161 H1156 0.950 . S
C1161 C1163 1.327 . S
C1161 C1167 1.429 . S
C1162 C1154 1.574 1_655 S
C1162 H1157 0.949 . S
C1162 C1168 1.368 . S
C1163 C1147 1.349 . S
C1163 H1155 0.950 . S
C1163 C1161 1.327 . S
C1164 C1152 1.349 . S
C1164 H1158 0.950 . S
C1164 C1165 1.327 . S
C1165 H1159 0.950 . S
C1165 C1164 1.327 . S
C1165 C1169 1.429 . S
C1166 C1149 1.574 1_455 S
C1166 H1160 0.949 . S
C1166 C1170 1.368 . S
C1167 C1148 1.429 . S
C1167 C1161 1.429 . S
C1167 C1168 1.523 . S
C1168 C1149 1.368 . S
C1168 C1162 1.368 . S
C1168 C1167 1.523 . S
C1169 C1153 1.429 . S
C1169 C1165 1.429 . S
C1169 C1170 1.523 . S
C1170 C1154 1.368 . S
C1170 C1166 1.368 . S
C1170 C1169 1.523 . S
H1171 C1146 0.950 . S
H1172 C1148 0.950 . S
H1173 C1149 0.949 . S
H1174 C1151 0.950 . S
H1175 C1153 0.950 . S
C1176 C1177 1.349 . S
C1176 C1178 1.327 . S
C1176 H1201 0.950 . S
C1177 C1176 1.349 . S
C1177 C1193 1.349 . S
C1178 C1176 1.327 . S
C1178 C1197 1.429 . S
C1178 H1202 0.950 . S
C1179 C1196 1.574 1_565 S
C1179 C1198 1.368 . S
C1179 H1203 0.949 . S
H1180 C1184 0.949 . S
C1181 C1182 1.349 . S
C1181 C1183 1.327 . S
C1181 H1204 0.950 . S
C1182 C1181 1.349 . S
C1182 C1194 1.349 . S
C1183 C1181 1.327 . S
C1183 C1199 1.429 . S
C1183 H1205 0.950 . S
C1184 H1180 0.949 . S
C1184 C1192 1.574 1_545 S
C1184 C1200 1.368 . S
H1185 C1193 0.950 . S
H1186 C1191 0.950 . S
H1187 C1192 0.949 . S
H1188 C1194 0.950 . S
H1189 C1195 0.950 . S
H1190 C1196 0.949 . S
C1191 H1186 0.950 . S
C1191 C1193 1.327 . S
C1191 C1197 1.429 . S
C1192 C1184 1.574 1_565 S
C1192 H1187 0.949 . S
C1192 C1198 1.368 . S
C1193 C1177 1.349 . S
C1193 H1185 0.950 . S
C1193 C1191 1.327 . S
C1194 C1182 1.349 . S
C1194 H1188 0.950 . S
C1194 C1195 1.327 . S
C1195 H1189 0.950 . S
C1195 C1194 1.327 . S
C1195 C1199 1.429 . S
C1196 C1179 1.574 1_545 S
C1196 H1190 0.949 . S
C1196 C1200 1.368 . S
C1197 C1178 1.429 . S
C1197 C1191 1.429 . S
C1197 C1198 1.523 . S
C1198 C1179 1.368 . S
C1198 C1192 1.368 . S
C1198 C1197 1.523 . S
C1199 C1183 1.429 . S
C1199 C1195 1.429 . S
C1199 C1200 1.523 . S
C1200 C1184 1.368 . S
C1200 C1196 1.368 . S
C1200 C1199 1.523 . S
H1201 C1176 0.950 . S
H1202 C1178 0.950 . S
H1203 C1179 0.949 . S
H1204 C1181 0.950 . S
H1205 C1183 0.950 . S
C1206 C1207 1.349 . S
C1206 C1208 1.327 . S
C1206 H1231 0.950 . S
C1207 C1206 1.349 . S
C1207 C1223 1.349 . S
C1208 C1206 1.327 . S
C1208 C1227 1.429 . S
C1208 H1232 0.950 . S
C1209 C1226 1.574 1_455 S
C1209 C1228 1.368 . S
C1209 H1233 0.949 . S
H1210 C1214 0.949 . S
C1211 C1212 1.349 . S
C1211 C1213 1.327 . S
C1211 H1234 0.950 . S
C1212 C1211 1.349 . S
C1212 C1224 1.349 . S
C1213 C1211 1.327 . S
C1213 C1229 1.429 . S
C1213 H1235 0.950 . S
C1214 H1210 0.949 . S
C1214 C1222 1.574 1_655 S
C1214 C1230 1.368 . S
H1215 C1223 0.950 . S
H1216 C1221 0.950 . S
H1217 C1222 0.949 . S
H1218 C1224 0.950 . S
H1219 C1225 0.950 . S
H1220 C1226 0.949 . S
C1221 H1216 0.950 . S
C1221 C1223 1.327 . S
C1221 C1227 1.429 . S
C1222 C1214 1.574 1_455 S
C1222 H1217 0.949 . S
C1222 C1228 1.368 . S
C1223 C1207 1.349 . S
C1223 H1215 0.950 . S
C1223 C1221 1.327 . S
C1224 C1212 1.349 . S
C1224 H1218 0.950 . S
C1224 C1225 1.327 . S
C1225 H1219 0.950 . S
C1225 C1224 1.327 . S
C1225 C1229 1.429 . S
C1226 C1209 1.574 1_655 S
C1226 H1220 0.949 . S
C1226 C1230 1.368 . S
C1227 C1208 1.429 . S
C1227 C1221 1.429 . S
C1227 C1228 1.523 . S
C1228 C1209 1.368 . S
C1228 C1222 1.368 . S
C1228 C1227 1.523 . S
C1229 C1213 1.429 . S
C1229 C1225 1.429 . S
C1229 C1230 1.523 . S
C1230 C1214 1.368 . S
C1230 C1226 1.368 . S
C1230 C1229 1.523 . S
H1231 C1206 0.950 . S
H1232 C1208 0.950 . S
H1233 C1209 0.949 . S
H1234 C1211 0.950 . S
H1235 C1213 0.950 . S
C1236 C1237 1.349 . S
C1236 C1238 1.327 . S
C1236 H1261 0.950 . S
C1237 C1236 1.349 . S
C1237 C1253 1.349 . S
C1238 C1236 1.327 . S
C1238 C1257 1.429 . S
C1238 H1262 0.950 . S
C1239 C1256 1.574 1_545 S
C1239 C1258 1.368 . S
C1239 H1263 0.949 . S
H1240 C1244 0.949 . S
C1241 C1242 1.349 . S
C1241 C1243 1.327 . S
C1241 H1264 0.950 . S
C1242 C1241 1.349 . S
C1242 C1254 1.349 . S
C1243 C1241 1.327 . S
C1243 C1259 1.429 . S
C1243 H1265 0.950 . S
C1244 H1240 0.949 . S
C1244 C1252 1.574 1_565 S
C1244 C1260 1.368 . S
H1245 C1253 0.950 . S
H1246 C1251 0.950 . S
H1247 C1252 0.949 . S
H1248 C1254 0.950 . S
H1249 C1255 0.950 . S
H1250 C1256 0.949 . S
C1251 H1246 0.950 . S
C1251 C1253 1.327 . S
C1251 C1257 1.429 . S
C1252 C1244 1.574 1_545 S
C1252 H1247 0.949 . S
C1252 C1258 1.368 . S
C1253 C1237 1.349 . S
C1253 H1245 0.950 . S
C1253 C1251 1.327 . S
C1254 C1242 1.349 . S
C1254 H1248 0.950 . S
C1254 C1255 1.327 . S
C1255 H1249 0.950 . S
C1255 C1254 1.327 . S
C1255 C1259 1.429 . S
C1256 C1239 1.574 1_565 S
C1256 H1250 0.949 . S
C1256 C1260 1.368 . S
C1257 C1238 1.429 . S
C1257 C1251 1.429 . S
C1257 C1258 1.523 . S
C1258 C1239 1.368 . S
C1258 C1252 1.368 . S
C1258 C1257 1.523 . S
C1259 C1243 1.429 . S
C1259 C1255 1.429 . S
C1259 C1260 1.523 . S
C1260 C1244 1.368 . S
C1260 C1256 1.368 . S
C1260 C1259 1.523 . S
H1261 C1236 0.950 . S
H1262 C1238 0.950 . S
H1263 C1239 0.949 . S
H1264 C1241 0.950 . S
H1265 C1243 0.950 . S
C1266 C1267 1.349 . S
C1266 C1268 1.327 . S
C1266 H1291 0.950 . S
C1267 C1266 1.349 . S
C1267 C1283 1.349 . S
C1268 C1266 1.327 . S
C1268 C1287 1.429 . S
C1268 H1292 0.950 . S
C1269 C1286 1.574 1_655 S
C1269 C1288 1.368 . S
C1269 H1293 0.949 . S
H1270 C1274 0.949 . S
C1271 C1272 1.349 . S
C1271 C1273 1.327 . S
C1271 H1294 0.950 . S
C1272 C1271 1.349 . S
C1272 C1284 1.349 . S
C1273 C1271 1.327 . S
C1273 C1289 1.429 . S
C1273 H1295 0.950 . S
C1274 H1270 0.949 . S
C1274 C1282 1.574 1_455 S
C1274 C1290 1.368 . S
H1275 C1283 0.950 . S
H1276 C1281 0.950 . S
H1277 C1282 0.949 . S
H1278 C1284 0.950 . S
H1279 C1285 0.950 . S
H1280 C1286 0.949 . S
C1281 H1276 0.950 . S
C1281 C1283 1.327 . S
C1281 C1287 1.429 . S
C1282 C1274 1.574 1_655 S
C1282 H1277 0.949 . S
C1282 C1288 1.368 . S
C1283 C1267 1.349 . S
C1283 H1275 0.950 . S
C1283 C1281 1.327 . S
C1284 C1272 1.349 . S
C1284 H1278 0.950 . S
C1284 C1285 1.327 . S
C1285 H1279 0.950 . S
C1285 C1284 1.327 . S
C1285 C1289 1.429 . S
C1286 C1269 1.574 1_455 S
C1286 H1280 0.949 . S
C1286 C1290 1.368 . S
C1287 C1268 1.429 . S
C1287 C1281 1.429 . S
C1287 C1288 1.523 . S
C1288 C1269 1.368 . S
C1288 C1282 1.368 . S
C1288 C1287 1.523 . S
C1289 C1273 1.429 . S
C1289 C1285 1.429 . S
C1289 C1290 1.523 . S
C1290 C1274 1.368 . S
C1290 C1286 1.368 . S
C1290 C1289 1.523 . S
H1291 C1266 0.950 . S
H1292 C1268 0.950 . S
H1293 C1269 0.949 . S
H1294 C1271 0.950 . S
H1295 C1273 0.950 . S
C1296 C1297 1.349 . S
C1296 C1298 1.327 . S
C1296 H1321 0.950 . S
C1297 C1296 1.349 . S
C1297 C1313 1.349 . S
C1298 C1296 1.327 . S
C1298 C1317 1.429 . S
C1298 H1322 0.950 . S
C1299 C1316 1.574 1_554 S
C1299 C1318 1.368 . S
C1299 H1323 0.949 . S
H1300 C1304 0.949 . S
C1301 C1302 1.349 . S
C1301 C1303 1.327 . S
C1301 H1324 0.950 . S
C1302 C1301 1.349 . S
C1302 C1314 1.349 . S
C1303 C1301 1.327 . S
C1303 C1319 1.429 . S
C1303 H1325 0.950 . S
C1304 H1300 0.949 . S
C1304 C1312 1.574 1_556 S
C1304 C1320 1.368 . S
H1305 C1313 0.950 . S
H1306 C1311 0.950 . S
H1307 C1312 0.949 . S
H1308 C1314 0.950 . S
H1309 C1315 0.950 . S
H1310 C1316 0.949 . S
C1311 H1306 0.950 . S
C1311 C1313 1.327 . S
C1311 C1317 1.429 . S
C1312 C1304 1.574 1_554 S
C1312 H1307 0.949 . S
C1312 C1318 1.368 . S
C1313 C1297 1.349 . S
C1313 H1305 0.950 . S
C1313 C1311 1.327 . S
C1314 C1302 1.349 . S
C1314 H1308 0.950 . S
C1314 C1315 1.327 . S
C1315 H1309 0.950 . S
C1315 C1314 1.327 . S
C1315 C1319 1.429 . S
C1316 C1299 1.574 1_556 S
C1316 H1310 0.949 . S
C1316 C1320 1.368 . S
C1317 C1298 1.429 . S
C1317 C1311 1.429 . S
C1317 C1318 1.523 . S
C1318 C1299 1.368 . S
C1318 C1312 1.368 . S
C1318 C1317 1.523 . S
C1319 C1303 1.429 . S
C1319 C1315 1.429 . S
C1319 C1320 1.523 . S
C1320 C1304 1.368 . S
C1320 C1316 1.368 . S
C1320 C1319 1.523 . S
H1321 C1296 0.950 . S
H1322 C1298 0.950 . S
H1323 C1299 0.949 . S
H1324 C1301 0.950 . S
H1325 C1303 0.950 . S
C1326 C1327 1.349 . S
C1326 C1328 1.327 . S
C1326 H1351 0.950 . S
C1327 C1326 1.349 . S
C1327 C1343 1.349 . S
C1328 C1326 1.327 . S
C1328 C1347 1.429 . S
C1328 H1352 0.950 . S
C1329 C1346 1.574 1_556 S
C1329 C1348 1.368 . S
C1329 H1353 0.949 . S
H1330 C1334 0.949 . S
C1331 C1332 1.349 . S
C1331 C1333 1.327 . S
C1331 H1354 0.950 . S
C1332 C1331 1.349 . S
C1332 C1344 1.349 . S
C1333 C1331 1.327 . S
C1333 C1349 1.429 . S
C1333 H1355 0.950 . S
C1334 H1330 0.949 . S
C1334 C1342 1.574 1_554 S
C1334 C1350 1.368 . S
H1335 C1343 0.950 . S
H1336 C1341 0.950 . S
H1337 C1342 0.949 . S
H1338 C1344 0.950 . S
H1339 C1345 0.950 . S
H1340 C1346 0.949 . S
C1341 H1336 0.950 . S
C1341 C1343 1.327 . S
C1341 C1347 1.429 . S
C1342 C1334 1.574 1_556 S
C1342 H1337 0.949 . S
C1342 C1348 1.368 . S
C1343 C1327 1.349 . S
C1343 H1335 0.950 . S
C1343 C1341 1.327 . S
C1344 C1332 1.349 . S
C1344 H1338 0.950 . S
C1344 C1345 1.327 . S
C1345 H1339 0.950 . S
C1345 C1344 1.327 . S
C1345 C1349 1.429 . S
C1346 C1329 1.574 1_554 S
C1346 H1340 0.949 . S
C1346 C1350 1.368 . S
C1347 C1328 1.429 . S
C1347 C1341 1.429 . S
C1347 C1348 1.523 . S
C1348 C1329 1.368 . S
C1348 C1342 1.368 . S
C1348 C1347 1.523 . S
C1349 C1333 1.429 . S
C1349 C1345 1.429 . S
C1349 C1350 1.523 . S
C1350 C1334 1.368 . S
C1350 C1346 1.368 . S
C1350 C1349 1.523 . S
H1351 C1326 0.950 . S
H1352 C1328 0.950 . S
H1353 C1329 0.949 . S
H1354 C1331 0.950 . S
H1355 C1333 0.950 . S
C1356 C1357 1.349 . S
C1356 C1358 1.327 . S
C1356 H1381 0.950 . S
C1357 C1356 1.349 . S
C1357 C1373 1.349 . S
C1358 C1356 1.327 . S
C1358 C1377 1.429 . S
C1358 H1382 0.950 . S
C1359 C1376 1.574 1_556 S
C1359 C1378 1.368 . S
C1359 H1383 0.949 . S
H1360 C1364 0.949 . S
C1361 C1362 1.349 . S
C1361 C1363 1.327 . S
C1361 H1384 0.950 . S
C1362 C1361 1.349 . S
C1362 C1374 1.349 . S
C1363 C1361 1.327 . S
C1363 C1379 1.429 . S
C1363 H1385 0.950 . S
C1364 H1360 0.949 . S
C1364 C1372 1.574 1_554 S
C1364 C1380 1.368 . S
H1365 C1373 0.950 . S
H1366 C1371 0.950 . S
H1367 C1372 0.949 . S
H1368 C1374 0.950 . S
H1369 C1375 0.950 . S
H1370 C1376 0.949 . S
C1371 H1366 0.950 . S
C1371 C1373 1.327 . S
C1371 C1377 1.429 . S
C1372 C1364 1.574 1_556 S
C1372 H1367 0.949 . S
C1372 C1378 1.368 . S
C1373 C1357 1.349 . S
C1373 H1365 0.950 . S
C1373 C1371 1.327 . S
C1374 C1362 1.349 . S
C1374 H1368 0.950 . S
C1374 C1375 1.327 . S
C1375 H1369 0.950 . S
C1375 C1374 1.327 . S
C1375 C1379 1.429 . S
C1376 C1359 1.574 1_554 S
C1376 H1370 0.949 . S
C1376 C1380 1.368 . S
C1377 C1358 1.429 . S
C1377 C1371 1.429 . S
C1377 C1378 1.523 . S
C1378 C1359 1.368 . S
C1378 C1372 1.368 . S
C1378 C1377 1.523 . S
C1379 C1363 1.429 . S
C1379 C1375 1.429 . S
C1379 C1380 1.523 . S
C1380 C1364 1.368 . S
C1380 C1376 1.368 . S
C1380 C1379 1.523 . S
H1381 C1356 0.950 . S
H1382 C1358 0.950 . S
H1383 C1359 0.949 . S
H1384 C1361 0.950 . S
H1385 C1363 0.950 . S
C1386 C1387 1.349 . S
C1386 C1388 1.327 . S
C1386 H1411 0.950 . S
C1387 C1386 1.349 . S
C1387 C1403 1.349 . S
C1388 C1386 1.327 . S
C1388 C1407 1.429 . S
C1388 H1412 0.950 . S
C1389 C1406 1.574 1_556 S
C1389 C1408 1.368 . S
C1389 H1413 0.949 . S
H1390 C1394 0.949 . S
C1391 C1392 1.349 . S
C1391 C1393 1.327 . S
C1391 H1414 0.950 . S
C1392 C1391 1.349 . S
C1392 C1404 1.349 . S
C1393 C1391 1.327 . S
C1393 C1409 1.429 . S
C1393 H1415 0.950 . S
C1394 H1390 0.949 . S
C1394 C1402 1.574 1_554 S
C1394 C1410 1.368 . S
H1395 C1403 0.950 . S
H1396 C1401 0.950 . S
H1397 C1402 0.949 . S
H1398 C1404 0.950 . S
H1399 C1405 0.950 . S
H1400 C1406 0.949 . S
C1401 H1396 0.950 . S
C1401 C1403 1.327 . S
C1401 C1407 1.429 . S
C1402 C1394 1.574 1_556 S
C1402 H1397 0.949 . S
C1402 C1408 1.368 . S
C1403 C1387 1.349 . S
C1403 H1395 0.950 . S
C1403 C1401 1.327 . S
C1404 C1392 1.349 . S
C1404 H1398 0.950 . S
C1404 C1405 1.327 . S
C1405 H1399 0.950 . S
C1405 C1404 1.327 . S
C1405 C1409 1.429 . S
C1406 C1389 1.574 1_554 S
C1406 H1400 0.949 . S
C1406 C1410 1.368 . S
C1407 C1388 1.429 . S
C1407 C1401 1.429 . S
C1407 C1408 1.523 . S
C1408 C1389 1.368 . S
C1408 C1402 1.368 . S
C1408 C1407 1.523 . S
C1409 C1393 1.429 . S
C1409 C1405 1.429 . S
C1409 C1410 1.523 . S
C1410 C1394 1.368 . S
C1410 C1406 1.368 . S
C1410 C1409 1.523 . S
H1411 C1386 0.950 . S
H1412 C1388 0.950 . S
H1413 C1389 0.949 . S
H1414 C1391 0.950 . S
H1415 C1393 0.950 . S
C1416 C1417 1.349 . S
C1416 C1418 1.327 . S
C1416 H1441 0.950 . S
C1417 C1416 1.349 . S
C1417 C1433 1.349 . S
C1418 C1416 1.327 . S
C1418 C1437 1.429 . S
C1418 H1442 0.950 . S
C1419 C1436 1.574 1_556 S
C1419 C1438 1.368 . S
C1419 H1443 0.949 . S
H1420 C1424 0.949 . S
C1421 C1422 1.349 . S
C1421 C1423 1.327 . S
C1421 H1444 0.950 . S
C1422 C1421 1.349 . S
C1422 C1434 1.349 . S
C1423 C1421 1.327 . S
C1423 C1439 1.429 . S
C1423 H1445 0.950 . S
C1424 H1420 0.949 . S
C1424 C1432 1.574 1_554 S
C1424 C1440 1.368 . S
H1425 C1433 0.950 . S
H1426 C1431 0.950 . S
H1427 C1432 0.949 . S
H1428 C1434 0.950 . S
H1429 C1435 0.950 . S
H1430 C1436 0.949 . S
C1431 H1426 0.950 . S
C1431 C1433 1.327 . S
C1431 C1437 1.429 . S
C1432 C1424 1.574 1_556 S
C1432 H1427 0.949 . S
C1432 C1438 1.368 . S
C1433 C1417 1.349 . S
C1433 H1425 0.950 . S
C1433 C1431 1.327 . S
C1434 C1422 1.349 . S
C1434 H1428 0.950 . S
C1434 C1435 1.327 . S
C1435 H1429 0.950 . S
C1435 C1434 1.327 . S
C1435 C1439 1.429 . S
C1436 C1419 1.574 1_554 S
C1436 H1430 0.949 . S
C1436 C1440 1.368 . S
C1437 C1418 1.429 . S
C1437 C1431 1.429 . S
C1437 C1438 1.523 . S
C1438 C1419 1.368 . S
C1438 C1432 1.368 . S
C1438 C1437 1.523 . S
C1439 C1423 1.429 . S
C1439 C1435 1.429 . S
C1439 C1440 1.523 . S
C1440 C1424 1.368 . S
C1440 C1436 1.368 . S
C1440 C1439 1.523 . S
H1441 C1416 0.950 . S
H1442 C1418 0.950 . S
H1443 C1419 0.949 . S
H1444 C1421 0.950 . S
H1445 C1423 0.950 . S
C1446 C1447 1.349 . S
C1446 C1448 1.327 . S
C1446 H1471 0.950 . S
C1447 C1446 1.349 . S
C1447 C1463 1.349 . S
C1448 C1446 1.327 . S
C1448 C1467 1.429 . S
C1448 H1472 0.950 . S
C1449 C1466 1.574 1_556 S
C1449 C1468 1.368 . S
C1449 H1473 0.949 . S
H1450 C1454 0.949 . S
C1451 C1452 1.349 . S
C1451 C1453 1.327 . S
C1451 H1474 0.950 . S
C1452 C1451 1.349 . S
C1452 C1464 1.349 . S
C1453 C1451 1.327 . S
C1453 C1469 1.429 . S
C1453 H1475 0.950 . S
C1454 H1450 0.949 . S
C1454 C1462 1.574 1_554 S
C1454 C1470 1.368 . S
H1455 C1463 0.950 . S
H1456 C1461 0.950 . S
H1457 C1462 0.949 . S
H1458 C1464 0.950 . S
H1459 C1465 0.950 . S
H1460 C1466 0.949 . S
C1461 H1456 0.950 . S
C1461 C1463 1.327 . S
C1461 C1467 1.429 . S
C1462 C1454 1.574 1_556 S
C1462 H1457 0.949 . S
C1462 C1468 1.368 . S
C1463 C1447 1.349 . S
C1463 H1455 0.950 . S
C1463 C1461 1.327 . S
C1464 C1452 1.349 . S
C1464 H1458 0.950 . S
C1464 C1465 1.327 . S
C1465 H1459 0.950 . S
C1465 C1464 1.327 . S
C1465 C1469 1.429 . S
C1466 C1449 1.574 1_554 S
C1466 H1460 0.949 . S
C1466 C1470 1.368 . S
C1467 C1448 1.429 . S
C1467 C1461 1.429 . S
C1467 C1468 1.523 . S
C1468 C1449 1.368 . S
C1468 C1462 1.368 . S
C1468 C1467 1.523 . S
C1469 C1453 1.429 . S
C1469 C1465 1.429 . S
C1469 C1470 1.523 . S
C1470 C1454 1.368 . S
C1470 C1466 1.368 . S
C1470 C1469 1.523 . S
H1471 C1446 0.950 . S
H1472 C1448 0.950 . S
H1473 C1449 0.949 . S
H1474 C1451 0.950 . S
H1475 C1453 0.950 . S
C1476 C1477 1.349 . S
C1476 C1478 1.327 . S
C1476 H1501 0.950 . S
C1477 C1476 1.349 . S
C1477 C1493 1.349 . S
C1478 C1476 1.327 . S
C1478 C1497 1.429 . S
C1478 H1502 0.950 . S
C1479 C1496 1.574 1_556 S
C1479 C1498 1.368 . S
C1479 H1503 0.949 . S
H1480 C1484 0.949 . S
C1481 C1482 1.349 . S
C1481 C1483 1.327 . S
C1481 H1504 0.950 . S
C1482 C1481 1.349 . S
C1482 C1494 1.349 . S
C1483 C1481 1.327 . S
C1483 C1499 1.429 . S
C1483 H1505 0.950 . S
C1484 H1480 0.949 . S
C1484 C1492 1.574 1_554 S
C1484 C1500 1.368 . S
H1485 C1493 0.950 . S
H1486 C1491 0.950 . S
H1487 C1492 0.949 . S
H1488 C1494 0.950 . S
H1489 C1495 0.950 . S
H1490 C1496 0.949 . S
C1491 H1486 0.950 . S
C1491 C1493 1.327 . S
C1491 C1497 1.429 . S
C1492 C1484 1.574 1_556 S
C1492 H1487 0.949 . S
C1492 C1498 1.368 . S
C1493 C1477 1.349 . S
C1493 H1485 0.950 . S
C1493 C1491 1.327 . S
C1494 C1482 1.349 . S
C1494 H1488 0.950 . S
C1494 C1495 1.327 . S
C1495 H1489 0.950 . S
C1495 C1494 1.327 . S
C1495 C1499 1.429 . S
C1496 C1479 1.574 1_554 S
C1496 H1490 0.949 . S
C1496 C1500 1.368 . S
C1497 C1478 1.429 . S
C1497 C1491 1.429 . S
C1497 C1498 1.523 . S
C1498 C1479 1.368 . S
C1498 C1492 1.368 . S
C1498 C1497 1.523 . S
C1499 C1483 1.429 . S
C1499 C1495 1.429 . S
C1499 C1500 1.523 . S
C1500 C1484 1.368 . S
C1500 C1496 1.368 . S
C1500 C1499 1.523 . S
H1501 C1476 0.950 . S
H1502 C1478 0.950 . S
H1503 C1479 0.949 . S
H1504 C1481 0.950 . S
H1505 C1483 0.950 . S
C1506 C1507 1.349 . S
C1506 C1508 1.327 . S
C1506 H1531 0.950 . S
C1507 C1506 1.349 . S
C1507 C1523 1.349 . S
C1508 C1506 1.327 . S
C1508 C1527 1.429 . S
C1508 H1532 0.950 . S
C1509 C1526 1.574 1_556 S
C1509 C1528 1.368 . S
C1509 H1533 0.949 . S
H1510 C1514 0.949 . S
C1511 C1512 1.349 . S
C1511 C1513 1.327 . S
C1511 H1534 0.950 . S
C1512 C1511 1.349 . S
C1512 C1524 1.349 . S
C1513 C1511 1.327 . S
C1513 C1529 1.429 . S
C1513 H1535 0.950 . S
C1514 H1510 0.949 . S
C1514 C1522 1.574 1_554 S
C1514 C1530 1.368 . S
H1515 C1523 0.950 . S
H1516 C1521 0.950 . S
H1517 C1522 0.949 . S
H1518 C1524 0.950 . S
H1519 C1525 0.950 . S
H1520 C1526 0.949 . S
C1521 H1516 0.950 . S
C1521 C1523 1.327 . S
C1521 C1527 1.429 . S
C1522 C1514 1.574 1_556 S
C1522 H1517 0.949 . S
C1522 C1528 1.368 . S
C1523 C1507 1.349 . S
C1523 H1515 0.950 . S
C1523 C1521 1.327 . S
C1524 C1512 1.349 . S
C1524 H1518 0.950 . S
C1524 C1525 1.327 . S
C1525 H1519 0.950 . S
C1525 C1524 1.327 . S
C1525 C1529 1.429 . S
C1526 C1509 1.574 1_554 S
C1526 H1520 0.949 . S
C1526 C1530 1.368 . S
C1527 C1508 1.429 . S
C1527 C1521 1.429 . S
C1527 C1528 1.523 . S
C1528 C1509 1.368 . S
C1528 C1522 1.368 . S
C1528 C1527 1.523 . S
C1529 C1513 1.429 . S
C1529 C1525 1.429 . S
C1529 C1530 1.523 . S
C1530 C1514 1.368 . S
C1530 C1526 1.368 . S
C1530 C1529 1.523 . S
H1531 C1506 0.950 . S
H1532 C1508 0.950 . S
H1533 C1509 0.949 . S
H1534 C1511 0.950 . S
H1535 C1513 0.950 . S
C1536 C1537 1.349 . S
C1536 C1538 1.327 . S
C1536 H1561 0.950 . S
C1537 C1536 1.349 . S
C1537 C1553 1.349 . S
C1538 C1536 1.327 . S
C1538 C1557 1.429 . S
C1538 H1562 0.950 . S
C1539 C1556 1.574 1_655 S
C1539 C1558 1.368 . S
C1539 H1563 0.949 . S
H1540 C1544 0.949 . S
C1541 C1542 1.349 . S
C1541 C1543 1.327 . S
C1541 H1564 0.950 . S
C1542 C1541 1.349 . S
C1542 C1554 1.349 . S
C1543 C1541 1.327 . S
C1543 C1559 1.429 . S
C1543 H1565 0.950 . S
C1544 H1540 0.949 . S
C1544 C1552 1.574 1_455 S
C1544 C1560 1.368 . S
H1545 C1553 0.950 . S
H1546 C1551 0.950 . S
H1547 C1552 0.949 . S
H1548 C1554 0.950 . S
H1549 C1555 0.950 . S
H1550 C1556 0.949 . S
C1551 H1546 0.950 . S
C1551 C1553 1.327 . S
C1551 C1557 1.429 . S
C1552 C1544 1.574 1_655 S
C1552 H1547 0.949 . S
C1552 C1558 1.368 . S
C1553 C1537 1.349 . S
C1553 H1545 0.950 . S
C1553 C1551 1.327 . S
C1554 C1542 1.349 . S
C1554 H1548 0.950 . S
C1554 C1555 1.327 . S
C1555 H1549 0.950 . S
C1555 C1554 1.327 . S
C1555 C1559 1.429 . S
C1556 C1539 1.574 1_455 S
C1556 H1550 0.949 . S
C1556 C1560 1.368 . S
C1557 C1538 1.429 . S
C1557 C1551 1.429 . S
C1557 C1558 1.523 . S
C1558 C1539 1.368 . S
C1558 C1552 1.368 . S
C1558 C1557 1.523 . S
C1559 C1543 1.429 . S
C1559 C1555 1.429 . S
C1559 C1560 1.523 . S
C1560 C1544 1.368 . S
C1560 C1556 1.368 . S
C1560 C1559 1.523 . S
H1561 C1536 0.950 . S
H1562 C1538 0.950 . S
H1563 C1539 0.949 . S
H1564 C1541 0.950 . S
H1565 C1543 0.950 . S
C1566 C1567 1.349 . S
C1566 C1568 1.327 . S
C1566 H1591 0.950 . S
C1567 C1566 1.349 . S
C1567 C1583 1.349 . S
C1568 C1566 1.327 . S
C1568 C1587 1.429 . S
C1568 H1592 0.950 . S
C1569 C1586 1.574 1_455 S
C1569 C1588 1.368 . S
C1569 H1593 0.949 . S
H1570 C1574 0.949 . S
C1571 C1572 1.349 . S
C1571 C1573 1.327 . S
C1571 H1594 0.950 . S
C1572 C1571 1.349 . S
C1572 C1584 1.349 . S
C1573 C1571 1.327 . S
C1573 C1589 1.429 . S
C1573 H1595 0.950 . S
C1574 H1570 0.949 . S
C1574 C1582 1.574 1_655 S
C1574 C1590 1.368 . S
H1575 C1583 0.950 . S
H1576 C1581 0.950 . S
H1577 C1582 0.949 . S
H1578 C1584 0.950 . S
H1579 C1585 0.950 . S
H1580 C1586 0.949 . S
C1581 H1576 0.950 . S
C1581 C1583 1.327 . S
C1581 C1587 1.429 . S
C1582 C1574 1.574 1_455 S
C1582 H1577 0.949 . S
C1582 C1588 1.368 . S
C1583 C1567 1.349 . S
C1583 H1575 0.950 . S
C1583 C1581 1.327 . S
C1584 C1572 1.349 . S
C1584 H1578 0.950 . S
C1584 C1585 1.327 . S
C1585 H1579 0.950 . S
C1585 C1584 1.327 . S
C1585 C1589 1.429 . S
C1586 C1569 1.574 1_655 S
C1586 H1580 0.949 . S
C1586 C1590 1.368 . S
C1587 C1568 1.429 . S
C1587 C1581 1.429 . S
C1587 C1588 1.523 . S
C1588 C1569 1.368 . S
C1588 C1582 1.368 . S
C1588 C1587 1.523 . S
C1589 C1573 1.429 . S
C1589 C1585 1.429 . S
C1589 C1590 1.523 . S
C1590 C1574 1.368 . S
C1590 C1586 1.368 . S
C1590 C1589 1.523 . S
H1591 C1566 0.950 . S
H1592 C1568 0.950 . S
H1593 C1569 0.949 . S
H1594 C1571 0.950 . S
H1595 C1573 0.950 . S
C1596 C1597 1.349 . S
C1596 C1598 1.327 . S
C1596 H1621 0.950 . S
C1597 C1596 1.349 . S
C1597 C1613 1.349 . S
C1598 C1596 1.327 . S
C1598 C1617 1.429 . S
C1598 H1622 0.950 . S
C1599 C1616 1.574 1_545 S
C1599 C1618 1.368 . S
C1599 H1623 0.949 . S
H1600 C1604 0.949 . S
C1601 C1602 1.349 . S
C1601 C1603 1.327 . S
C1601 H1624 0.950 . S
C1602 C1601 1.349 . S
C1602 C1614 1.349 . S
C1603 C1601 1.327 . S
C1603 C1619 1.429 . S
C1603 H1625 0.950 . S
C1604 H1600 0.949 . S
C1604 C1612 1.574 1_565 S
C1604 C1620 1.368 . S
H1605 C1613 0.950 . S
H1606 C1611 0.950 . S
H1607 C1612 0.949 . S
H1608 C1614 0.950 . S
H1609 C1615 0.950 . S
H1610 C1616 0.949 . S
C1611 H1606 0.950 . S
C1611 C1613 1.327 . S
C1611 C1617 1.429 . S
C1612 C1604 1.574 1_545 S
C1612 H1607 0.949 . S
C1612 C1618 1.368 . S
C1613 C1597 1.349 . S
C1613 H1605 0.950 . S
C1613 C1611 1.327 . S
C1614 C1602 1.349 . S
C1614 H1608 0.950 . S
C1614 C1615 1.327 . S
C1615 H1609 0.950 . S
C1615 C1614 1.327 . S
C1615 C1619 1.429 . S
C1616 C1599 1.574 1_565 S
C1616 H1610 0.949 . S
C1616 C1620 1.368 . S
C1617 C1598 1.429 . S
C1617 C1611 1.429 . S
C1617 C1618 1.523 . S
C1618 C1599 1.368 . S
C1618 C1612 1.368 . S
C1618 C1617 1.523 . S
C1619 C1603 1.429 . S
C1619 C1615 1.429 . S
C1619 C1620 1.523 . S
C1620 C1604 1.368 . S
C1620 C1616 1.368 . S
C1620 C1619 1.523 . S
H1621 C1596 0.950 . S
H1622 C1598 0.950 . S
H1623 C1599 0.949 . S
H1624 C1601 0.950 . S
H1625 C1603 0.950 . S
C1626 C1627 1.349 . S
C1626 C1628 1.327 . S
C1626 H1651 0.950 . S
C1627 C1626 1.349 . S
C1627 C1643 1.349 . S
C1628 C1626 1.327 . S
C1628 C1647 1.429 . S
C1628 H1652 0.950 . S
C1629 C1646 1.574 1_655 S
C1629 C1648 1.368 . S
C1629 H1653 0.949 . S
H1630 C1634 0.949 . S
C1631 C1632 1.349 . S
C1631 C1633 1.327 . S
C1631 H1654 0.950 . S
C1632 C1631 1.349 . S
C1632 C1644 1.349 . S
C1633 C1631 1.327 . S
C1633 C1649 1.429 . S
C1633 H1655 0.950 . S
C1634 H1630 0.949 . S
C1634 C1642 1.574 1_455 S
C1634 C1650 1.368 . S
H1635 C1643 0.950 . S
H1636 C1641 0.950 . S
H1637 C1642 0.949 . S
H1638 C1644 0.950 . S
H1639 C1645 0.950 . S
H1640 C1646 0.949 . S
C1641 H1636 0.950 . S
C1641 C1643 1.327 . S
C1641 C1647 1.429 . S
C1642 C1634 1.574 1_655 S
C1642 H1637 0.949 . S
C1642 C1648 1.368 . S
C1643 C1627 1.349 . S
C1643 H1635 0.950 . S
C1643 C1641 1.327 . S
C1644 C1632 1.349 . S
C1644 H1638 0.950 . S
C1644 C1645 1.327 . S
C1645 H1639 0.950 . S
C1645 C1644 1.327 . S
C1645 C1649 1.429 . S
C1646 C1629 1.574 1_455 S
C1646 H1640 0.949 . S
C1646 C1650 1.368 . S
C1647 C1628 1.429 . S
C1647 C1641 1.429 . S
C1647 C1648 1.523 . S
C1648 C1629 1.368 . S
C1648 C1642 1.368 . S
C1648 C1647 1.523 . S
C1649 C1633 1.429 . S
C1649 C1645 1.429 . S
C1649 C1650 1.523 . S
C1650 C1634 1.368 . S
C1650 C1646 1.368 . S
C1650 C1649 1.523 . S
H1651 C1626 0.950 . S
H1652 C1628 0.950 . S
H1653 C1629 0.949 . S
H1654 C1631 0.950 . S
H1655 C1633 0.950 . S
C1656 C1657 1.349 . S
C1656 C1658 1.327 . S
C1656 H1681 0.950 . S
C1657 C1656 1.349 . S
C1657 C1673 1.349 . S
C1658 C1656 1.327 . S
C1658 C1677 1.429 . S
C1658 H1682 0.950 . S
C1659 C1676 1.574 1_565 S
C1659 C1678 1.368 . S
C1659 H1683 0.949 . S
H1660 C1664 0.949 . S
C1661 C1662 1.349 . S
C1661 C1663 1.327 . S
C1661 H1684 0.950 . S
C1662 C1661 1.349 . S
C1662 C1674 1.349 . S
C1663 C1661 1.327 . S
C1663 C1679 1.429 . S
C1663 H1685 0.950 . S
C1664 H1660 0.949 . S
C1664 C1672 1.574 1_545 S
C1664 C1680 1.368 . S
H1665 C1673 0.950 . S
H1666 C1671 0.950 . S
H1667 C1672 0.949 . S
H1668 C1674 0.950 . S
H1669 C1675 0.950 . S
H1670 C1676 0.949 . S
C1671 H1666 0.950 . S
C1671 C1673 1.327 . S
C1671 C1677 1.429 . S
C1672 C1664 1.574 1_565 S
C1672 H1667 0.949 . S
C1672 C1678 1.368 . S
C1673 C1657 1.349 . S
C1673 H1665 0.950 . S
C1673 C1671 1.327 . S
C1674 C1662 1.349 . S
C1674 H1668 0.950 . S
C1674 C1675 1.327 . S
C1675 H1669 0.950 . S
C1675 C1674 1.327 . S
C1675 C1679 1.429 . S
C1676 C1659 1.574 1_545 S
C1676 H1670 0.949 . S
C1676 C1680 1.368 . S
C1677 C1658 1.429 . S
C1677 C1671 1.429 . S
C1677 C1678 1.523 . S
C1678 C1659 1.368 . S
C1678 C1672 1.368 . S
C1678 C1677 1.523 . S
C1679 C1663 1.429 . S
C1679 C1675 1.429 . S
C1679 C1680 1.523 . S
C1680 C1664 1.368 . S
C1680 C1676 1.368 . S
C1680 C1679 1.523 . S
H1681 C1656 0.950 . S
H1682 C1658 0.950 . S
H1683 C1659 0.949 . S
H1684 C1661 0.950 . S
H1685 C1663 0.950 . S
C1686 C1687 1.349 . S
C1686 C1688 1.327 . S
C1686 H1711 0.950 . S
C1687 C1686 1.349 . S
C1687 C1703 1.349 . S
C1688 C1686 1.327 . S
C1688 C1707 1.429 . S
C1688 H1712 0.950 . S
C1689 C1706 1.574 1_455 S
C1689 C1708 1.368 . S
C1689 H1713 0.949 . S
H1690 C1694 0.949 . S
C1691 C1692 1.349 . S
C1691 C1693 1.327 . S
C1691 H1714 0.950 . S
C1692 C1691 1.349 . S
C1692 C1704 1.349 . S
C1693 C1691 1.327 . S
C1693 C1709 1.429 . S
C1693 H1715 0.950 . S
C1694 H1690 0.949 . S
C1694 C1702 1.574 1_655 S
C1694 C1710 1.368 . S
H1695 C1703 0.950 . S
H1696 C1701 0.950 . S
H1697 C1702 0.949 . S
H1698 C1704 0.950 . S
H1699 C1705 0.950 . S
H1700 C1706 0.949 . S
C1701 H1696 0.950 . S
C1701 C1703 1.327 . S
C1701 C1707 1.429 . S
C1702 C1694 1.574 1_455 S
C1702 H1697 0.949 . S
C1702 C1708 1.368 . S
C1703 C1687 1.349 . S
C1703 H1695 0.950 . S
C1703 C1701 1.327 . S
C1704 C1692 1.349 . S
C1704 H1698 0.950 . S
C1704 C1705 1.327 . S
C1705 H1699 0.950 . S
C1705 C1704 1.327 . S
C1705 C1709 1.429 . S
C1706 C1689 1.574 1_655 S
C1706 H1700 0.949 . S
C1706 C1710 1.368 . S
C1707 C1688 1.429 . S
C1707 C1701 1.429 . S
C1707 C1708 1.523 . S
C1708 C1689 1.368 . S
C1708 C1702 1.368 . S
C1708 C1707 1.523 . S
C1709 C1693 1.429 . S
C1709 C1705 1.429 . S
C1709 C1710 1.523 . S
C1710 C1694 1.368 . S
C1710 C1706 1.368 . S
C1710 C1709 1.523 . S
H1711 C1686 0.950 . S
H1712 C1688 0.950 . S
H1713 C1689 0.949 . S
H1714 C1691 0.950 . S
H1715 C1693 0.950 . S
C1716 C1717 1.349 . S
C1716 C1718 1.327 . S
C1716 H1741 0.950 . S
C1717 C1716 1.349 . S
C1717 C1733 1.349 . S
C1718 C1716 1.327 . S
C1718 C1737 1.429 . S
C1718 H1742 0.950 . S
C1719 C1736 1.574 1_565 S
C1719 C1738 1.368 . S
C1719 H1743 0.949 . S
H1720 C1724 0.949 . S
C1721 C1722 1.349 . S
C1721 C1723 1.327 . S
C1721 H1744 0.950 . S
C1722 C1721 1.349 . S
C1722 C1734 1.349 . S
C1723 C1721 1.327 . S
C1723 C1739 1.429 . S
C1723 H1745 0.950 . S
C1724 H1720 0.949 . S
C1724 C1732 1.574 1_545 S
C1724 C1740 1.368 . S
H1725 C1733 0.950 . S
H1726 C1731 0.950 . S
H1727 C1732 0.949 . S
H1728 C1734 0.950 . S
H1729 C1735 0.950 . S
H1730 C1736 0.949 . S
C1731 H1726 0.950 . S
C1731 C1733 1.327 . S
C1731 C1737 1.429 . S
C1732 C1724 1.574 1_565 S
C1732 H1727 0.949 . S
C1732 C1738 1.368 . S
C1733 C1717 1.349 . S
C1733 H1725 0.950 . S
C1733 C1731 1.327 . S
C1734 C1722 1.349 . S
C1734 H1728 0.950 . S
C1734 C1735 1.327 . S
C1735 H1729 0.950 . S
C1735 C1734 1.327 . S
C1735 C1739 1.429 . S
C1736 C1719 1.574 1_545 S
C1736 H1730 0.949 . S
C1736 C1740 1.368 . S
C1737 C1718 1.429 . S
C1737 C1731 1.429 . S
C1737 C1738 1.523 . S
C1738 C1719 1.368 . S
C1738 C1732 1.368 . S
C1738 C1737 1.523 . S
C1739 C1723 1.429 . S
C1739 C1735 1.429 . S
C1739 C1740 1.523 . S
C1740 C1724 1.368 . S
C1740 C1736 1.368 . S
C1740 C1739 1.523 . S
H1741 C1716 0.950 . S
H1742 C1718 0.950 . S
H1743 C1719 0.949 . S
H1744 C1721 0.950 . S
H1745 C1723 0.950 . S
C1746 C1747 1.349 . S
C1746 C1748 1.327 . S
C1746 H1771 0.950 . S
C1747 C1746 1.349 . S
C1747 C1763 1.349 . S
C1748 C1746 1.327 . S
C1748 C1767 1.429 . S
C1748 H1772 0.950 . S
C1749 C1766 1.574 1_545 S
C1749 C1768 1.368 . S
C1749 H1773 0.949 . S
H1750 C1754 0.949 . S
C1751 C1752 1.349 . S
C1751 C1753 1.327 . S
C1751 H1774 0.950 . S
C1752 C1751 1.349 . S
C1752 C1764 1.349 . S
C1753 C1751 1.327 . S
C1753 C1769 1.429 . S
C1753 H1775 0.950 . S
C1754 H1750 0.949 . S
C1754 C1762 1.574 1_565 S
C1754 C1770 1.368 . S
H1755 C1763 0.950 . S
H1756 C1761 0.950 . S
H1757 C1762 0.949 . S
H1758 C1764 0.950 . S
H1759 C1765 0.950 . S
H1760 C1766 0.949 . S
C1761 H1756 0.950 . S
C1761 C1763 1.327 . S
C1761 C1767 1.429 . S
C1762 C1754 1.574 1_545 S
C1762 H1757 0.949 . S
C1762 C1768 1.368 . S
C1763 C1747 1.349 . S
C1763 H1755 0.950 . S
C1763 C1761 1.327 . S
C1764 C1752 1.349 . S
C1764 H1758 0.950 . S
C1764 C1765 1.327 . S
C1765 H1759 0.950 . S
C1765 C1764 1.327 . S
C1765 C1769 1.429 . S
C1766 C1749 1.574 1_565 S
C1766 H1760 0.949 . S
C1766 C1770 1.368 . S
C1767 C1748 1.429 . S
C1767 C1761 1.429 . S
C1767 C1768 1.523 . S
C1768 C1749 1.368 . S
C1768 C1762 1.368 . S
C1768 C1767 1.523 . S
C1769 C1753 1.429 . S
C1769 C1765 1.429 . S
C1769 C1770 1.523 . S
C1770 C1754 1.368 . S
C1770 C1766 1.368 . S
C1770 C1769 1.523 . S
H1771 C1746 0.950 . S
H1772 C1748 0.950 . S
H1773 C1749 0.949 . S
H1774 C1751 0.950 . S
H1775 C1753 0.950 . S
C1776 C1777 1.349 . S
C1776 C1778 1.327 . S
C1776 H1801 0.950 . S
C1777 C1776 1.349 . S
C1777 C1793 1.349 . S
C1778 C1776 1.327 . S
C1778 C1797 1.429 . S
C1778 H1802 0.950 . S
C1779 C1796 1.574 . S
C1779 C1798 1.368 . S
C1779 H1803 0.949 . S
H1780 C1784 0.949 . S
C1781 C1782 1.349 . S
C1781 C1783 1.327 . S
C1781 H1804 0.950 . S
C1782 C1781 1.349 . S
C1782 C1794 1.349 . S
C1783 C1781 1.327 . S
C1783 C1799 1.429 . S
C1783 H1805 0.950 . S
C1784 H1780 0.949 . S
C1784 C1792 1.574 . S
C1784 C1800 1.368 . S
H1785 C1793 0.950 . S
H1786 C1791 0.950 . S
H1787 C1792 0.949 . S
H1788 C1794 0.950 . S
H1789 C1795 0.950 . S
H1790 C1796 0.949 . S
C1791 H1786 0.950 . S
C1791 C1793 1.327 . S
C1791 C1797 1.429 . S
C1792 C1784 1.574 . S
C1792 H1787 0.949 . S
C1792 C1798 1.368 . S
C1793 C1777 1.349 . S
C1793 H1785 0.950 . S
C1793 C1791 1.327 . S
C1794 C1782 1.349 . S
C1794 H1788 0.950 . S
C1794 C1795 1.327 . S
C1795 H1789 0.950 . S
C1795 C1794 1.327 . S
C1795 C1799 1.429 . S
C1796 C1779 1.574 . S
C1796 H1790 0.949 . S
C1796 C1800 1.368 . S
C1797 C1778 1.429 . S
C1797 C1791 1.429 . S
C1797 C1798 1.523 . S
C1798 C1779 1.368 . S
C1798 C1792 1.368 . S
C1798 C1797 1.523 . S
C1799 C1783 1.429 . S
C1799 C1795 1.429 . S
C1799 C1800 1.523 . S
C1800 C1784 1.368 . S
C1800 C1796 1.368 . S
C1800 C1799 1.523 . S
H1801 C1776 0.950 . S
H1802 C1778 0.950 . S
H1803 C1779 0.949 . S
H1804 C1781 0.950 . S
H1805 C1783 0.950 . S
C1806 C1807 1.349 . S
C1806 C1808 1.327 . S
C1806 H1831 0.950 . S
C1807 C1806 1.349 . S
C1807 C1823 1.349 . S
C1808 C1806 1.327 . S
C1808 C1827 1.429 . S
C1808 H1832 0.950 . S
C1809 C1826 1.574 . S
C1809 C1828 1.368 . S
C1809 H1833 0.949 . S
H1810 C1814 0.949 . S
C1811 C1812 1.349 . S
C1811 C1813 1.327 . S
C1811 H1834 0.950 . S
C1812 C1811 1.349 . S
C1812 C1824 1.349 . S
C1813 C1811 1.327 . S
C1813 C1829 1.429 . S
C1813 H1835 0.950 . S
C1814 H1810 0.949 . S
C1814 C1822 1.574 . S
C1814 C1830 1.368 . S
H1815 C1823 0.950 . S
H1816 C1821 0.950 . S
H1817 C1822 0.949 . S
H1818 C1824 0.950 . S
H1819 C1825 0.950 . S
H1820 C1826 0.949 . S
C1821 H1816 0.950 . S
C1821 C1823 1.327 . S
C1821 C1827 1.429 . S
C1822 C1814 1.574 . S
C1822 H1817 0.949 . S
C1822 C1828 1.368 . S
C1823 C1807 1.349 . S
C1823 H1815 0.950 . S
C1823 C1821 1.327 . S
C1824 C1812 1.349 . S
C1824 H1818 0.950 . S
C1824 C1825 1.327 . S
C1825 H1819 0.950 . S
C1825 C1824 1.327 . S
C1825 C1829 1.429 . S
C1826 C1809 1.574 . S
C1826 H1820 0.949 . S
C1826 C1830 1.368 . S
C1827 C1808 1.429 . S
C1827 C1821 1.429 . S
C1827 C1828 1.523 . S
C1828 C1809 1.368 . S
C1828 C1822 1.368 . S
C1828 C1827 1.523 . S
C1829 C1813 1.429 . S
C1829 C1825 1.429 . S
C1829 C1830 1.523 . S
C1830 C1814 1.368 . S
C1830 C1826 1.368 . S
C1830 C1829 1.523 . S
H1831 C1806 0.950 . S
H1832 C1808 0.950 . S
H1833 C1809 0.949 . S
H1834 C1811 0.950 . S
H1835 C1813 0.950 . S
C1836 C1837 1.349 . S
C1836 C1838 1.327 . S
C1836 H1861 0.950 . S
C1837 C1836 1.349 . S
C1837 C1853 1.349 . S
C1838 C1836 1.327 . S
C1838 C1857 1.429 . S
C1838 H1862 0.950 . S
C1839 C1856 1.574 . S
C1839 C1858 1.368 . S
C1839 H1863 0.949 . S
H1840 C1844 0.949 . S
C1841 C1842 1.349 . S
C1841 C1843 1.327 . S
C1841 H1864 0.950 . S
C1842 C1841 1.349 . S
C1842 C1854 1.349 . S
C1843 C1841 1.327 . S
C1843 C1859 1.429 . S
C1843 H1865 0.950 . S
C1844 H1840 0.949 . S
C1844 C1852 1.574 . S
C1844 C1860 1.368 . S
H1845 C1853 0.950 . S
H1846 C1851 0.950 . S
H1847 C1852 0.949 . S
H1848 C1854 0.950 . S
H1849 C1855 0.950 . S
H1850 C1856 0.949 . S
C1851 H1846 0.950 . S
C1851 C1853 1.327 . S
C1851 C1857 1.429 . S
C1852 C1844 1.574 . S
C1852 H1847 0.949 . S
C1852 C1858 1.368 . S
C1853 C1837 1.349 . S
C1853 H1845 0.950 . S
C1853 C1851 1.327 . S
C1854 C1842 1.349 . S
C1854 H1848 0.950 . S
C1854 C1855 1.327 . S
C1855 H1849 0.950 . S
C1855 C1854 1.327 . S
C1855 C1859 1.429 . S
C1856 C1839 1.574 . S
C1856 H1850 0.949 . S
C1856 C1860 1.368 . S
C1857 C1838 1.429 . S
C1857 C1851 1.429 . S
C1857 C1858 1.523 . S
C1858 C1839 1.368 . S
C1858 C1852 1.368 . S
C1858 C1857 1.523 . S
C1859 C1843 1.429 . S
C1859 C1855 1.429 . S
C1859 C1860 1.523 . S
C1860 C1844 1.368 . S
C1860 C1856 1.368 . S
C1860 C1859 1.523 . S
H1861 C1836 0.950 . S
H1862 C1838 0.950 . S
H1863 C1839 0.949 . S
H1864 C1841 0.950 . S
H1865 C1843 0.950 . S
C1866 C1867 1.349 . S
C1866 C1868 1.327 . S
C1866 H1891 0.950 . S
C1867 C1866 1.349 . S
C1867 C1883 1.349 . S
C1868 C1866 1.327 . S
C1868 C1887 1.429 . S
C1868 H1892 0.950 . S
C1869 C1886 1.574 . S
C1869 C1888 1.368 . S
C1869 H1893 0.949 . S
H1870 C1874 0.949 . S
C1871 C1872 1.349 . S
C1871 C1873 1.327 . S
C1871 H1894 0.950 . S
C1872 C1871 1.349 . S
C1872 C1884 1.349 . S
C1873 C1871 1.327 . S
C1873 C1889 1.429 . S
C1873 H1895 0.950 . S
C1874 H1870 0.949 . S
C1874 C1882 1.574 . S
C1874 C1890 1.368 . S
H1875 C1883 0.950 . S
H1876 C1881 0.950 . S
H1877 C1882 0.949 . S
H1878 C1884 0.950 . S
H1879 C1885 0.950 . S
H1880 C1886 0.949 . S
C1881 H1876 0.950 . S
C1881 C1883 1.327 . S
C1881 C1887 1.429 . S
C1882 C1874 1.574 . S
C1882 H1877 0.949 . S
C1882 C1888 1.368 . S
C1883 C1867 1.349 . S
C1883 H1875 0.950 . S
C1883 C1881 1.327 . S
C1884 C1872 1.349 . S
C1884 H1878 0.950 . S
C1884 C1885 1.327 . S
C1885 H1879 0.950 . S
C1885 C1884 1.327 . S
C1885 C1889 1.429 . S
C1886 C1869 1.574 . S
C1886 H1880 0.949 . S
C1886 C1890 1.368 . S
C1887 C1868 1.429 . S
C1887 C1881 1.429 . S
C1887 C1888 1.523 . S
C1888 C1869 1.368 . S
C1888 C1882 1.368 . S
C1888 C1887 1.523 . S
C1889 C1873 1.429 . S
C1889 C1885 1.429 . S
C1889 C1890 1.523 . S
C1890 C1874 1.368 . S
C1890 C1886 1.368 . S
C1890 C1889 1.523 . S
H1891 C1866 0.950 . S
H1892 C1868 0.950 . S
H1893 C1869 0.949 . S
H1894 C1871 0.950 . S
H1895 C1873 0.950 . S
C1896 C1897 1.349 . S
C1896 C1898 1.327 . S
C1896 H1921 0.950 . S
C1897 C1896 1.349 . S
C1897 C1913 1.349 . S
C1898 C1896 1.327 . S
C1898 C1917 1.429 . S
C1898 H1922 0.950 . S
C1899 C1916 1.574 . S
C1899 C1918 1.368 . S
C1899 H1923 0.949 . S
H1900 C1904 0.949 . S
C1901 C1902 1.349 . S
C1901 C1903 1.327 . S
C1901 H1924 0.950 . S
C1902 C1901 1.349 . S
C1902 C1914 1.349 . S
C1903 C1901 1.327 . S
C1903 C1919 1.429 . S
C1903 H1925 0.950 . S
C1904 H1900 0.949 . S
C1904 C1912 1.574 . S
C1904 C1920 1.368 . S
H1905 C1913 0.950 . S
H1906 C1911 0.950 . S
H1907 C1912 0.949 . S
H1908 C1914 0.950 . S
H1909 C1915 0.950 . S
H1910 C1916 0.949 . S
C1911 H1906 0.950 . S
C1911 C1913 1.327 . S
C1911 C1917 1.429 . S
C1912 C1904 1.574 . S
C1912 H1907 0.949 . S
C1912 C1918 1.368 . S
C1913 C1897 1.349 . S
C1913 H1905 0.950 . S
C1913 C1911 1.327 . S
C1914 C1902 1.349 . S
C1914 H1908 0.950 . S
C1914 C1915 1.327 . S
C1915 H1909 0.950 . S
C1915 C1914 1.327 . S
C1915 C1919 1.429 . S
C1916 C1899 1.574 . S
C1916 H1910 0.949 . S
C1916 C1920 1.368 . S
C1917 C1898 1.429 . S
C1917 C1911 1.429 . S
C1917 C1918 1.523 . S
C1918 C1899 1.368 . S
C1918 C1912 1.368 . S
C1918 C1917 1.523 . S
C1919 C1903 1.429 . S
C1919 C1915 1.429 . S
C1919 C1920 1.523 . S
C1920 C1904 1.368 . S
C1920 C1916 1.368 . S
C1920 C1919 1.523 . S
H1921 C1896 0.950 . S
H1922 C1898 0.950 . S
H1923 C1899 0.949 . S
H1924 C1901 0.950 . S
H1925 C1903 0.950 . S
C1926 C1927 1.349 . S
C1926 C1928 1.327 . S
C1926 H1951 0.950 . S
C1927 C1926 1.349 . S
C1927 C1943 1.349 . S
C1928 C1926 1.327 . S
C1928 C1947 1.429 . S
C1928 H1952 0.950 . S
C1929 C1946 1.574 . S
C1929 C1948 1.368 . S
C1929 H1953 0.949 . S
H1930 C1934 0.949 . S
C1931 C1932 1.349 . S
C1931 C1933 1.327 . S
C1931 H1954 0.950 . S
C1932 C1931 1.349 . S
C1932 C1944 1.349 . S
C1933 C1931 1.327 . S
C1933 C1949 1.429 . S
C1933 H1955 0.950 . S
C1934 H1930 0.949 . S
C1934 C1942 1.574 . S
C1934 C1950 1.368 . S
H1935 C1943 0.950 . S
H1936 C1941 0.950 . S
H1937 C1942 0.949 . S
H1938 C1944 0.950 . S
H1939 C1945 0.950 . S
H1940 C1946 0.949 . S
C1941 H1936 0.950 . S
C1941 C1943 1.327 . S
C1941 C1947 1.429 . S
C1942 C1934 1.574 . S
C1942 H1937 0.949 . S
C1942 C1948 1.368 . S
C1943 C1927 1.349 . S
C1943 H1935 0.950 . S
C1943 C1941 1.327 . S
C1944 C1932 1.349 . S
C1944 H1938 0.950 . S
C1944 C1945 1.327 . S
C1945 H1939 0.950 . S
C1945 C1944 1.327 . S
C1945 C1949 1.429 . S
C1946 C1929 1.574 . S
C1946 H1940 0.949 . S
C1946 C1950 1.368 . S
C1947 C1928 1.429 . S
C1947 C1941 1.429 . S
C1947 C1948 1.523 . S
C1948 C1929 1.368 . S
C1948 C1942 1.368 . S
C1948 C1947 1.523 . S
C1949 C1933 1.429 . S
C1949 C1945 1.429 . S
C1949 C1950 1.523 . S
C1950 C1934 1.368 . S
C1950 C1946 1.368 . S
C1950 C1949 1.523 . S
H1951 C1926 0.950 . S
H1952 C1928 0.950 . S
H1953 C1929 0.949 . S
H1954 C1931 0.950 . S
H1955 C1933 0.950 . S
C1956 C1957 1.349 . S
C1956 C1958 1.327 . S
C1956 H1981 0.950 . S
C1957 C1956 1.349 . S
C1957 C1973 1.349 . S
C1958 C1956 1.327 . S
C1958 C1977 1.429 . S
C1958 H1982 0.950 . S
C1959 C1976 1.574 . S
C1959 C1978 1.368 . S
C1959 H1983 0.949 . S
H1960 C1964 0.949 . S
C1961 C1962 1.349 . S
C1961 C1963 1.327 . S
C1961 H1984 0.950 . S
C1962 C1961 1.349 . S
C1962 C1974 1.349 . S
C1963 C1961 1.327 . S
C1963 C1979 1.429 . S
C1963 H1985 0.950 . S
C1964 H1960 0.949 . S
C1964 C1972 1.574 . S
C1964 C1980 1.368 . S
H1965 C1973 0.950 . S
H1966 C1971 0.950 . S
H1967 C1972 0.949 . S
H1968 C1974 0.950 . S
H1969 C1975 0.950 . S
H1970 C1976 0.949 . S
C1971 H1966 0.950 . S
C1971 C1973 1.327 . S
C1971 C1977 1.429 . S
C1972 C1964 1.574 . S
C1972 H1967 0.949 . S
C1972 C1978 1.368 . S
C1973 C1957 1.349 . S
C1973 H1965 0.950 . S
C1973 C1971 1.327 . S
C1974 C1962 1.349 . S
C1974 H1968 0.950 . S
C1974 C1975 1.327 . S
C1975 H1969 0.950 . S
C1975 C1974 1.327 . S
C1975 C1979 1.429 . S
C1976 C1959 1.574 . S
C1976 H1970 0.949 . S
C1976 C1980 1.368 . S
C1977 C1958 1.429 . S
C1977 C1971 1.429 . S
C1977 C1978 1.523 . S
C1978 C1959 1.368 . S
C1978 C1972 1.368 . S
C1978 C1977 1.523 . S
C1979 C1963 1.429 . S
C1979 C1975 1.429 . S
C1979 C1980 1.523 . S
C1980 C1964 1.368 . S
C1980 C1976 1.368 . S
C1980 C1979 1.523 . S
H1981 C1956 0.950 . S
H1982 C1958 0.950 . S
H1983 C1959 0.949 . S
H1984 C1961 0.950 . S
H1985 C1963 0.950 . S
C1986 C1987 1.349 . S
C1986 C1988 1.327 . S
C1986 H2011 0.950 . S
C1987 C1986 1.349 . S
C1987 C2003 1.349 . S
C1988 C1986 1.327 . S
C1988 C2007 1.429 . S
C1988 H2012 0.950 . S
C1989 C2006 1.574 . S
C1989 C2008 1.368 . S
C1989 H2013 0.949 . S
H1990 C1994 0.949 . S
C1991 C1992 1.349 . S
C1991 C1993 1.327 . S
C1991 H2014 0.950 . S
C1992 C1991 1.349 . S
C1992 C2004 1.349 . S
C1993 C1991 1.327 . S
C1993 C2009 1.429 . S
C1993 H2015 0.950 . S
C1994 H1990 0.949 . S
C1994 C2002 1.574 . S
C1994 C2010 1.368 . S
H1995 C2003 0.950 . S
H1996 C2001 0.950 . S
H1997 C2002 0.949 . S
H1998 C2004 0.950 . S
H1999 C2005 0.950 . S
H2000 C2006 0.949 . S
C2001 H1996 0.950 . S
C2001 C2003 1.327 . S
C2001 C2007 1.429 . S
C2002 C1994 1.574 . S
C2002 H1997 0.949 . S
C2002 C2008 1.368 . S
C2003 C1987 1.349 . S
C2003 H1995 0.950 . S
C2003 C2001 1.327 . S
C2004 C1992 1.349 . S
C2004 H1998 0.950 . S
C2004 C2005 1.327 . S
C2005 H1999 0.950 . S
C2005 C2004 1.327 . S
C2005 C2009 1.429 . S
C2006 C1989 1.574 . S
C2006 H2000 0.949 . S
C2006 C2010 1.368 . S
C2007 C1988 1.429 . S
C2007 C2001 1.429 . S
C2007 C2008 1.523 . S
C2008 C1989 1.368 . S
C2008 C2002 1.368 . S
C2008 C2007 1.523 . S
C2009 C1993 1.429 . S
C2009 C2005 1.429 . S
C2009 C2010 1.523 . S
C2010 C1994 1.368 . S
C2010 C2006 1.368 . S
C2010 C2009 1.523 . S
H2011 C1986 0.950 . S
H2012 C1988 0.950 . S
H2013 C1989 0.949 . S
H2014 C1991 0.950 . S
H2015 C1993 0.950 . S
C2016 C2017 1.349 . S
C2016 C2018 1.327 . S
C2016 H2041 0.950 . S
C2017 C2016 1.349 . S
C2017 C2033 1.349 . S
C2018 C2016 1.327 . S
C2018 C2037 1.429 . S
C2018 H2042 0.950 . S
C2019 C2036 1.574 . S
C2019 C2038 1.368 . S
C2019 H2043 0.949 . S
H2020 C2024 0.949 . S
C2021 C2022 1.349 . S
C2021 C2023 1.327 . S
C2021 H2044 0.950 . S
C2022 C2021 1.349 . S
C2022 C2034 1.349 . S
C2023 C2021 1.327 . S
C2023 C2039 1.429 . S
C2023 H2045 0.950 . S
C2024 H2020 0.949 . S
C2024 C2032 1.574 . S
C2024 C2040 1.368 . S
H2025 C2033 0.950 . S
H2026 C2031 0.950 . S
H2027 C2032 0.949 . S
H2028 C2034 0.950 . S
H2029 C2035 0.950 . S
H2030 C2036 0.949 . S
C2031 H2026 0.950 . S
C2031 C2033 1.327 . S
C2031 C2037 1.429 . S
C2032 C2024 1.574 . S
C2032 H2027 0.949 . S
C2032 C2038 1.368 . S
C2033 C2017 1.349 . S
C2033 H2025 0.950 . S
C2033 C2031 1.327 . S
C2034 C2022 1.349 . S
C2034 H2028 0.950 . S
C2034 C2035 1.327 . S
C2035 H2029 0.950 . S
C2035 C2034 1.327 . S
C2035 C2039 1.429 . S
C2036 C2019 1.574 . S
C2036 H2030 0.949 . S
C2036 C2040 1.368 . S
C2037 C2018 1.429 . S
C2037 C2031 1.429 . S
C2037 C2038 1.523 . S
C2038 C2019 1.368 . S
C2038 C2032 1.368 . S
C2038 C2037 1.523 . S
C2039 C2023 1.429 . S
C2039 C2035 1.429 . S
C2039 C2040 1.523 . S
C2040 C2024 1.368 . S
C2040 C2036 1.368 . S
C2040 C2039 1.523 . S
H2041 C2016 0.950 . S
H2042 C2018 0.950 . S
H2043 C2019 0.949 . S
H2044 C2021 0.950 . S
H2045 C2023 0.950 . S
C2046 C2047 1.349 . S
C2046 C2048 1.327 . S
C2046 H2071 0.950 . S
C2047 C2046 1.349 . S
C2047 C2063 1.349 . S
C2048 C2046 1.327 . S
C2048 C2067 1.429 . S
C2048 H2072 0.950 . S
C2049 C2066 1.574 . S
C2049 C2068 1.368 . S
C2049 H2073 0.949 . S
H2050 C2054 0.949 . S
C2051 C2052 1.349 . S
C2051 C2053 1.327 . S
C2051 H2074 0.950 . S
C2052 C2051 1.349 . S
C2052 C2064 1.349 . S
C2053 C2051 1.327 . S
C2053 C2069 1.429 . S
C2053 H2075 0.950 . S
C2054 H2050 0.949 . S
C2054 C2062 1.574 . S
C2054 C2070 1.368 . S
H2055 C2063 0.950 . S
H2056 C2061 0.950 . S
H2057 C2062 0.949 . S
H2058 C2064 0.950 . S
H2059 C2065 0.950 . S
H2060 C2066 0.949 . S
C2061 H2056 0.950 . S
C2061 C2063 1.327 . S
C2061 C2067 1.429 . S
C2062 C2054 1.574 . S
C2062 H2057 0.949 . S
C2062 C2068 1.368 . S
C2063 C2047 1.349 . S
C2063 H2055 0.950 . S
C2063 C2061 1.327 . S
C2064 C2052 1.349 . S
C2064 H2058 0.950 . S
C2064 C2065 1.327 . S
C2065 H2059 0.950 . S
C2065 C2064 1.327 . S
C2065 C2069 1.429 . S
C2066 C2049 1.574 . S
C2066 H2060 0.949 . S
C2066 C2070 1.368 . S
C2067 C2048 1.429 . S
C2067 C2061 1.429 . S
C2067 C2068 1.523 . S
C2068 C2049 1.368 . S
C2068 C2062 1.368 . S
C2068 C2067 1.523 . S
C2069 C2053 1.429 . S
C2069 C2065 1.429 . S
C2069 C2070 1.523 . S
C2070 C2054 1.368 . S
C2070 C2066 1.368 . S
C2070 C2069 1.523 . S
H2071 C2046 0.950 . S
H2072 C2048 0.950 . S
H2073 C2049 0.949 . S
H2074 C2051 0.950 . S
H2075 C2053 0.950 . S
C2076 C2077 1.349 . S
C2076 C2078 1.327 . S
C2076 H2101 0.950 . S
C2077 C2076 1.349 . S
C2077 C2093 1.349 . S
C2078 C2076 1.327 . S
C2078 C2097 1.429 . S
C2078 H2102 0.950 . S
C2079 C2096 1.574 . S
C2079 C2098 1.368 . S
C2079 H2103 0.949 . S
H2080 C2084 0.949 . S
C2081 C2082 1.349 . S
C2081 C2083 1.327 . S
C2081 H2104 0.950 . S
C2082 C2081 1.349 . S
C2082 C2094 1.349 . S
C2083 C2081 1.327 . S
C2083 C2099 1.429 . S
C2083 H2105 0.950 . S
C2084 H2080 0.949 . S
C2084 C2092 1.574 . S
C2084 C2100 1.368 . S
H2085 C2093 0.950 . S
H2086 C2091 0.950 . S
H2087 C2092 0.949 . S
H2088 C2094 0.950 . S
H2089 C2095 0.950 . S
H2090 C2096 0.949 . S
C2091 H2086 0.950 . S
C2091 C2093 1.327 . S
C2091 C2097 1.429 . S
C2092 C2084 1.574 . S
C2092 H2087 0.949 . S
C2092 C2098 1.368 . S
C2093 C2077 1.349 . S
C2093 H2085 0.950 . S
C2093 C2091 1.327 . S
C2094 C2082 1.349 . S
C2094 H2088 0.950 . S
C2094 C2095 1.327 . S
C2095 H2089 0.950 . S
C2095 C2094 1.327 . S
C2095 C2099 1.429 . S
C2096 C2079 1.574 . S
C2096 H2090 0.949 . S
C2096 C2100 1.368 . S
C2097 C2078 1.429 . S
C2097 C2091 1.429 . S
C2097 C2098 1.523 . S
C2098 C2079 1.368 . S
C2098 C2092 1.368 . S
C2098 C2097 1.523 . S
C2099 C2083 1.429 . S
C2099 C2095 1.429 . S
C2099 C2100 1.523 . S
C2100 C2084 1.368 . S
C2100 C2096 1.368 . S
C2100 C2099 1.523 . S
H2101 C2076 0.950 . S
H2102 C2078 0.950 . S
H2103 C2079 0.949 . S
H2104 C2081 0.950 . S
H2105 C2083 0.950 . S
C2106 C2107 1.349 . S
C2106 C2108 1.327 . S
C2106 H2131 0.950 . S
C2107 C2106 1.349 . S
C2107 C2123 1.349 . S
C2108 C2106 1.327 . S
C2108 C2127 1.429 . S
C2108 H2132 0.950 . S
C2109 C2126 1.574 . S
C2109 C2128 1.368 . S
C2109 H2133 0.949 . S
H2110 C2114 0.949 . S
C2111 C2112 1.349 . S
C2111 C2113 1.327 . S
C2111 H2134 0.950 . S
C2112 C2111 1.349 . S
C2112 C2124 1.349 . S
C2113 C2111 1.327 . S
C2113 C2129 1.429 . S
C2113 H2135 0.950 . S
C2114 H2110 0.949 . S
C2114 C2122 1.574 . S
C2114 C2130 1.368 . S
H2115 C2123 0.950 . S
H2116 C2121 0.950 . S
H2117 C2122 0.949 . S
H2118 C2124 0.950 . S
H2119 C2125 0.950 . S
H2120 C2126 0.949 . S
C2121 H2116 0.950 . S
C2121 C2123 1.327 . S
C2121 C2127 1.429 . S
C2122 C2114 1.574 . S
C2122 H2117 0.949 . S
C2122 C2128 1.368 . S
C2123 C2107 1.349 . S
C2123 H2115 0.950 . S
C2123 C2121 1.327 . S
C2124 C2112 1.349 . S
C2124 H2118 0.950 . S
C2124 C2125 1.327 . S
C2125 H2119 0.950 . S
C2125 C2124 1.327 . S
C2125 C2129 1.429 . S
C2126 C2109 1.574 . S
C2126 H2120 0.949 . S
C2126 C2130 1.368 . S
C2127 C2108 1.429 . S
C2127 C2121 1.429 . S
C2127 C2128 1.523 . S
C2128 C2109 1.368 . S
C2128 C2122 1.368 . S
C2128 C2127 1.523 . S
C2129 C2113 1.429 . S
C2129 C2125 1.429 . S
C2129 C2130 1.523 . S
C2130 C2114 1.368 . S
C2130 C2126 1.368 . S
C2130 C2129 1.523 . S
H2131 C2106 0.950 . S
H2132 C2108 0.950 . S
H2133 C2109 0.949 . S
H2134 C2111 0.950 . S
H2135 C2113 0.950 . S
C2136 C2137 1.349 . S
C2136 C2138 1.327 . S
C2136 H2161 0.950 . S
C2137 C2136 1.349 . S
C2137 C2153 1.349 . S
C2138 C2136 1.327 . S
C2138 C2157 1.429 . S
C2138 H2162 0.950 . S
C2139 C2156 1.574 . S
C2139 C2158 1.368 . S
C2139 H2163 0.949 . S
H2140 C2144 0.949 . S
C2141 C2142 1.349 . S
C2141 C2143 1.327 . S
C2141 H2164 0.950 . S
C2142 C2141 1.349 . S
C2142 C2154 1.349 . S
C2143 C2141 1.327 . S
C2143 C2159 1.429 . S
C2143 H2165 0.950 . S
C2144 H2140 0.949 . S
C2144 C2152 1.574 . S
C2144 C2160 1.368 . S
H2145 C2153 0.950 . S
H2146 C2151 0.950 . S
H2147 C2152 0.949 . S
H2148 C2154 0.950 . S
H2149 C2155 0.950 . S
H2150 C2156 0.949 . S
C2151 H2146 0.950 . S
C2151 C2153 1.327 . S
C2151 C2157 1.429 . S
C2152 C2144 1.574 . S
C2152 H2147 0.949 . S
C2152 C2158 1.368 . S
C2153 C2137 1.349 . S
C2153 H2145 0.950 . S
C2153 C2151 1.327 . S
C2154 C2142 1.349 . S
C2154 H2148 0.950 . S
C2154 C2155 1.327 . S
C2155 H2149 0.950 . S
C2155 C2154 1.327 . S
C2155 C2159 1.429 . S
C2156 C2139 1.574 . S
C2156 H2150 0.949 . S
C2156 C2160 1.368 . S
C2157 C2138 1.429 . S
C2157 C2151 1.429 . S
C2157 C2158 1.523 . S
C2158 C2139 1.368 . S
C2158 C2152 1.368 . S
C2158 C2157 1.523 . S
C2159 C2143 1.429 . S
C2159 C2155 1.429 . S
C2159 C2160 1.523 . S
C2160 C2144 1.368 . S
C2160 C2156 1.368 . S
C2160 C2159 1.523 . S
H2161 C2136 0.950 . S
H2162 C2138 0.950 . S
H2163 C2139 0.949 . S
H2164 C2141 0.950 . S
H2165 C2143 0.950 . S
C2166 C2167 1.349 . S
C2166 C2168 1.327 . S
C2166 H2191 0.950 . S
C2167 C2166 1.349 . S
C2167 C2183 1.349 . S
C2168 C2166 1.327 . S
C2168 C2187 1.429 . S
C2168 H2192 0.950 . S
C2169 C2186 1.574 . S
C2169 C2188 1.368 . S
C2169 H2193 0.949 . S
H2170 C2174 0.949 . S
C2171 C2172 1.349 . S
C2171 C2173 1.327 . S
C2171 H2194 0.950 . S
C2172 C2171 1.349 . S
C2172 C2184 1.349 . S
C2173 C2171 1.327 . S
C2173 C2189 1.429 . S
C2173 H2195 0.950 . S
C2174 H2170 0.949 . S
C2174 C2182 1.574 . S
C2174 C2190 1.368 . S
H2175 C2183 0.950 . S
H2176 C2181 0.950 . S
H2177 C2182 0.949 . S
H2178 C2184 0.950 . S
H2179 C2185 0.950 . S
H2180 C2186 0.949 . S
C2181 H2176 0.950 . S
C2181 C2183 1.327 . S
C2181 C2187 1.429 . S
C2182 C2174 1.574 . S
C2182 H2177 0.949 . S
C2182 C2188 1.368 . S
C2183 C2167 1.349 . S
C2183 H2175 0.950 . S
C2183 C2181 1.327 . S
C2184 C2172 1.349 . S
C2184 H2178 0.950 . S
C2184 C2185 1.327 . S
C2185 H2179 0.950 . S
C2185 C2184 1.327 . S
C2185 C2189 1.429 . S
C2186 C2169 1.574 . S
C2186 H2180 0.949 . S
C2186 C2190 1.368 . S
C2187 C2168 1.429 . S
C2187 C2181 1.429 . S
C2187 C2188 1.523 . S
C2188 C2169 1.368 . S
C2188 C2182 1.368 . S
C2188 C2187 1.523 . S
C2189 C2173 1.429 . S
C2189 C2185 1.429 . S
C2189 C2190 1.523 . S
C2190 C2174 1.368 . S
C2190 C2186 1.368 . S
C2190 C2189 1.523 . S
H2191 C2166 0.950 . S
H2192 C2168 0.950 . S
H2193 C2169 0.949 . S
H2194 C2171 0.950 . S
H2195 C2173 0.950 . S
C2196 C2197 1.349 . S
C2196 C2198 1.327 . S
C2196 H2221 0.950 . S
C2197 C2196 1.349 . S
C2197 C2213 1.349 . S
C2198 C2196 1.327 . S
C2198 C2217 1.429 . S
C2198 H2222 0.950 . S
C2199 C2216 1.574 . S
C2199 C2218 1.368 . S
C2199 H2223 0.949 . S
H2200 C2204 0.949 . S
C2201 C2202 1.349 . S
C2201 C2203 1.327 . S
C2201 H2224 0.950 . S
C2202 C2201 1.349 . S
C2202 C2214 1.349 . S
C2203 C2201 1.327 . S
C2203 C2219 1.429 . S
C2203 H2225 0.950 . S
C2204 H2200 0.949 . S
C2204 C2212 1.574 . S
C2204 C2220 1.368 . S
H2205 C2213 0.950 . S
H2206 C2211 0.950 . S
H2207 C2212 0.949 . S
H2208 C2214 0.950 . S
H2209 C2215 0.950 . S
H2210 C2216 0.949 . S
C2211 H2206 0.950 . S
C2211 C2213 1.327 . S
C2211 C2217 1.429 . S
C2212 C2204 1.574 . S
C2212 H2207 0.949 . S
C2212 C2218 1.368 . S
C2213 C2197 1.349 . S
C2213 H2205 0.950 . S
C2213 C2211 1.327 . S
C2214 C2202 1.349 . S
C2214 H2208 0.950 . S
C2214 C2215 1.327 . S
C2215 H2209 0.950 . S
C2215 C2214 1.327 . S
C2215 C2219 1.429 . S
C2216 C2199 1.574 . S
C2216 H2210 0.949 . S
C2216 C2220 1.368 . S
C2217 C2198 1.429 . S
C2217 C2211 1.429 . S
C2217 C2218 1.523 . S
C2218 C2199 1.368 . S
C2218 C2212 1.368 . S
C2218 C2217 1.523 . S
C2219 C2203 1.429 . S
C2219 C2215 1.429 . S
C2219 C2220 1.523 . S
C2220 C2204 1.368 . S
C2220 C2216 1.368 . S
C2220 C2219 1.523 . S
H2221 C2196 0.950 . S
H2222 C2198 0.950 . S
H2223 C2199 0.949 . S
H2224 C2201 0.950 . S
H2225 C2203 0.950 . S
C2226 C2227 1.349 . S
C2226 C2228 1.327 . S
C2226 H2251 0.950 . S
C2227 C2226 1.349 . S
C2227 C2243 1.349 . S
C2228 C2226 1.327 . S
C2228 C2247 1.429 . S
C2228 H2252 0.950 . S
C2229 C2246 1.574 . S
C2229 C2248 1.368 . S
C2229 H2253 0.949 . S
H2230 C2234 0.949 . S
C2231 C2232 1.349 . S
C2231 C2233 1.327 . S
C2231 H2254 0.950 . S
C2232 C2231 1.349 . S
C2232 C2244 1.349 . S
C2233 C2231 1.327 . S
C2233 C2249 1.429 . S
C2233 H2255 0.950 . S
C2234 H2230 0.949 . S
C2234 C2242 1.574 . S
C2234 C2250 1.368 . S
H2235 C2243 0.950 . S
H2236 C2241 0.950 . S
H2237 C2242 0.949 . S
H2238 C2244 0.950 . S
H2239 C2245 0.950 . S
H2240 C2246 0.949 . S
C2241 H2236 0.950 . S
C2241 C2243 1.327 . S
C2241 C2247 1.429 . S
C2242 C2234 1.574 . S
C2242 H2237 0.949 . S
C2242 C2248 1.368 . S
C2243 C2227 1.349 . S
C2243 H2235 0.950 . S
C2243 C2241 1.327 . S
C2244 C2232 1.349 . S
C2244 H2238 0.950 . S
C2244 C2245 1.327 . S
C2245 H2239 0.950 . S
C2245 C2244 1.327 . S
C2245 C2249 1.429 . S
C2246 C2229 1.574 . S
C2246 H2240 0.949 . S
C2246 C2250 1.368 . S
C2247 C2228 1.429 . S
C2247 C2241 1.429 . S
C2247 C2248 1.523 . S
C2248 C2229 1.368 . S
C2248 C2242 1.368 . S
C2248 C2247 1.523 . S
C2249 C2233 1.429 . S
C2249 C2245 1.429 . S
C2249 C2250 1.523 . S
C2250 C2234 1.368 . S
C2250 C2246 1.368 . S
C2250 C2249 1.523 . S
H2251 C2226 0.950 . S
H2252 C2228 0.950 . S
H2253 C2229 0.949 . S
H2254 C2231 0.950 . S
H2255 C2233 0.950 . S
C2256 C2257 1.349 . S
C2256 C2258 1.327 . S
C2256 H2281 0.950 . S
C2257 C2256 1.349 . S
C2257 C2273 1.349 . S
C2258 C2256 1.327 . S
C2258 C2277 1.429 . S
C2258 H2282 0.950 . S
C2259 C2276 1.574 . S
C2259 C2278 1.368 . S
C2259 H2283 0.949 . S
H2260 C2264 0.949 . S
C2261 C2262 1.349 . S
C2261 C2263 1.327 . S
C2261 H2284 0.950 . S
C2262 C2261 1.349 . S
C2262 C2274 1.349 . S
C2263 C2261 1.327 . S
C2263 C2279 1.429 . S
C2263 H2285 0.950 . S
C2264 H2260 0.949 . S
C2264 C2272 1.574 . S
C2264 C2280 1.368 . S
H2265 C2273 0.950 . S
H2266 C2271 0.950 . S
H2267 C2272 0.949 . S
H2268 C2274 0.950 . S
H2269 C2275 0.950 . S
H2270 C2276 0.949 . S
C2271 H2266 0.950 . S
C2271 C2273 1.327 . S
C2271 C2277 1.429 . S
C2272 C2264 1.574 . S
C2272 H2267 0.949 . S
C2272 C2278 1.368 . S
C2273 C2257 1.349 . S
C2273 H2265 0.950 . S
C2273 C2271 1.327 . S
C2274 C2262 1.349 . S
C2274 H2268 0.950 . S
C2274 C2275 1.327 . S
C2275 H2269 0.950 . S
C2275 C2274 1.327 . S
C2275 C2279 1.429 . S
C2276 C2259 1.574 . S
C2276 H2270 0.949 . S
C2276 C2280 1.368 . S
C2277 C2258 1.429 . S
C2277 C2271 1.429 . S
C2277 C2278 1.523 . S
C2278 C2259 1.368 . S
C2278 C2272 1.368 . S
C2278 C2277 1.523 . S
C2279 C2263 1.429 . S
C2279 C2275 1.429 . S
C2279 C2280 1.523 . S
C2280 C2264 1.368 . S
C2280 C2276 1.368 . S
C2280 C2279 1.523 . S
H2281 C2256 0.950 . S
H2282 C2258 0.950 . S
H2283 C2259 0.949 . S
H2284 C2261 0.950 . S
H2285 C2263 0.950 . S
C2286 C2287 1.349 . S
C2286 C2288 1.327 . S
C2286 H2311 0.950 . S
C2287 C2286 1.349 . S
C2287 C2303 1.349 . S
C2288 C2286 1.327 . S
C2288 C2307 1.429 . S
C2288 H2312 0.950 . S
C2289 C2306 1.574 . S
C2289 C2308 1.368 . S
C2289 H2313 0.949 . S
H2290 C2294 0.949 . S
C2291 C2292 1.349 . S
C2291 C2293 1.327 . S
C2291 H2314 0.950 . S
C2292 C2291 1.349 . S
C2292 C2304 1.349 . S
C2293 C2291 1.327 . S
C2293 C2309 1.429 . S
C2293 H2315 0.950 . S
C2294 H2290 0.949 . S
C2294 C2302 1.574 . S
C2294 C2310 1.368 . S
H2295 C2303 0.950 . S
H2296 C2301 0.950 . S
H2297 C2302 0.949 . S
H2298 C2304 0.950 . S
H2299 C2305 0.950 . S
H2300 C2306 0.949 . S
C2301 H2296 0.950 . S
C2301 C2303 1.327 . S
C2301 C2307 1.429 . S
C2302 C2294 1.574 . S
C2302 H2297 0.949 . S
C2302 C2308 1.368 . S
C2303 C2287 1.349 . S
C2303 H2295 0.950 . S
C2303 C2301 1.327 . S
C2304 C2292 1.349 . S
C2304 H2298 0.950 . S
C2304 C2305 1.327 . S
C2305 H2299 0.950 . S
C2305 C2304 1.327 . S
C2305 C2309 1.429 . S
C2306 C2289 1.574 . S
C2306 H2300 0.949 . S
C2306 C2310 1.368 . S
C2307 C2288 1.429 . S
C2307 C2301 1.429 . S
C2307 C2308 1.523 . S
C2308 C2289 1.368 . S
C2308 C2302 1.368 . S
C2308 C2307 1.523 . S
C2309 C2293 1.429 . S
C2309 C2305 1.429 . S
C2309 C2310 1.523 . S
C2310 C2294 1.368 . S
C2310 C2306 1.368 . S
C2310 C2309 1.523 . S
H2311 C2286 0.950 . S
H2312 C2288 0.950 . S
H2313 C2289 0.949 . S
H2314 C2291 0.950 . S
H2315 C2293 0.950 . S
C2316 C2317 1.349 . S
C2316 C2318 1.327 . S
C2316 H2341 0.950 . S
C2317 C2316 1.349 . S
C2317 C2333 1.349 . S
C2318 C2316 1.327 . S
C2318 C2337 1.429 . S
C2318 H2342 0.950 . S
C2319 C2336 1.574 . S
C2319 C2338 1.368 . S
C2319 H2343 0.949 . S
H2320 C2324 0.949 . S
C2321 C2322 1.349 . S
C2321 C2323 1.327 . S
C2321 H2344 0.950 . S
C2322 C2321 1.349 . S
C2322 C2334 1.349 . S
C2323 C2321 1.327 . S
C2323 C2339 1.429 . S
C2323 H2345 0.950 . S
C2324 H2320 0.949 . S
C2324 C2332 1.574 . S
C2324 C2340 1.368 . S
H2325 C2333 0.950 . S
H2326 C2331 0.950 . S
H2327 C2332 0.949 . S
H2328 C2334 0.950 . S
H2329 C2335 0.950 . S
H2330 C2336 0.949 . S
C2331 H2326 0.950 . S
C2331 C2333 1.327 . S
C2331 C2337 1.429 . S
C2332 C2324 1.574 . S
C2332 H2327 0.949 . S
C2332 C2338 1.368 . S
C2333 C2317 1.349 . S
C2333 H2325 0.950 . S
C2333 C2331 1.327 . S
C2334 C2322 1.349 . S
C2334 H2328 0.950 . S
C2334 C2335 1.327 . S
C2335 H2329 0.950 . S
C2335 C2334 1.327 . S
C2335 C2339 1.429 . S
C2336 C2319 1.574 . S
C2336 H2330 0.949 . S
C2336 C2340 1.368 . S
C2337 C2318 1.429 . S
C2337 C2331 1.429 . S
C2337 C2338 1.523 . S
C2338 C2319 1.368 . S
C2338 C2332 1.368 . S
C2338 C2337 1.523 . S
C2339 C2323 1.429 . S
C2339 C2335 1.429 . S
C2339 C2340 1.523 . S
C2340 C2324 1.368 . S
C2340 C2336 1.368 . S
C2340 C2339 1.523 . S
H2341 C2316 0.950 . S
H2342 C2318 0.950 . S
H2343 C2319 0.949 . S
H2344 C2321 0.950 . S
H2345 C2323 0.950 . S
C2346 C2347 1.349 . S
C2346 C2348 1.327 . S
C2346 H2371 0.950 . S
C2347 C2346 1.349 . S
C2347 C2363 1.349 . S
C2348 C2346 1.327 . S
C2348 C2367 1.429 . S
C2348 H2372 0.950 . S
C2349 C2366 1.574 . S
C2349 C2368 1.368 . S
C2349 H2373 0.949 . S
H2350 C2354 0.949 . S
C2351 C2352 1.349 . S
C2351 C2353 1.327 . S
C2351 H2374 0.950 . S
C2352 C2351 1.349 . S
C2352 C2364 1.349 . S
C2353 C2351 1.327 . S
C2353 C2369 1.429 . S
C2353 H2375 0.950 . S
C2354 H2350 0.949 . S
C2354 C2362 1.574 . S
C2354 C2370 1.368 . S
H2355 C2363 0.950 . S
H2356 C2361 0.950 . S
H2357 C2362 0.949 . S
H2358 C2364 0.950 . S
H2359 C2365 0.950 . S
H2360 C2366 0.949 . S
C2361 H2356 0.950 . S
C2361 C2363 1.327 . S
C2361 C2367 1.429 . S
C2362 C2354 1.574 . S
C2362 H2357 0.949 . S
C2362 C2368 1.368 . S
C2363 C2347 1.349 . S
C2363 H2355 0.950 . S
C2363 C2361 1.327 . S
C2364 C2352 1.349 . S
C2364 H2358 0.950 . S
C2364 C2365 1.327 . S
C2365 H2359 0.950 . S
C2365 C2364 1.327 . S
C2365 C2369 1.429 . S
C2366 C2349 1.574 . S
C2366 H2360 0.949 . S
C2366 C2370 1.368 . S
C2367 C2348 1.429 . S
C2367 C2361 1.429 . S
C2367 C2368 1.523 . S
C2368 C2349 1.368 . S
C2368 C2362 1.368 . S
C2368 C2367 1.523 . S
C2369 C2353 1.429 . S
C2369 C2365 1.429 . S
C2369 C2370 1.523 . S
C2370 C2354 1.368 . S
C2370 C2366 1.368 . S
C2370 C2369 1.523 . S
H2371 C2346 0.950 . S
H2372 C2348 0.950 . S
H2373 C2349 0.949 . S
H2374 C2351 0.950 . S
H2375 C2353 0.950 . S
C2376 C2377 1.349 . S
C2376 C2378 1.327 . S
C2376 H2401 0.950 . S
C2377 C2376 1.349 . S
C2377 C2393 1.349 . S
C2378 C2376 1.327 . S
C2378 C2397 1.429 . S
C2378 H2402 0.950 . S
C2379 C2396 1.574 . S
C2379 C2398 1.368 . S
C2379 H2403 0.949 . S
H2380 C2384 0.949 . S
C2381 C2382 1.349 . S
C2381 C2383 1.327 . S
C2381 H2404 0.950 . S
C2382 C2381 1.349 . S
C2382 C2394 1.349 . S
C2383 C2381 1.327 . S
C2383 C2399 1.429 . S
C2383 H2405 0.950 . S
C2384 H2380 0.949 . S
C2384 C2392 1.574 . S
C2384 C2400 1.368 . S
H2385 C2393 0.950 . S
H2386 C2391 0.950 . S
H2387 C2392 0.949 . S
H2388 C2394 0.950 . S
H2389 C2395 0.950 . S
H2390 C2396 0.949 . S
C2391 H2386 0.950 . S
C2391 C2393 1.327 . S
C2391 C2397 1.429 . S
C2392 C2384 1.574 . S
C2392 H2387 0.949 . S
C2392 C2398 1.368 . S
C2393 C2377 1.349 . S
C2393 H2385 0.950 . S
C2393 C2391 1.327 . S
C2394 C2382 1.349 . S
C2394 H2388 0.950 . S
C2394 C2395 1.327 . S
C2395 H2389 0.950 . S
C2395 C2394 1.327 . S
C2395 C2399 1.429 . S
C2396 C2379 1.574 . S
C2396 H2390 0.949 . S
C2396 C2400 1.368 . S
C2397 C2378 1.429 . S
C2397 C2391 1.429 . S
C2397 C2398 1.523 . S
C2398 C2379 1.368 . S
C2398 C2392 1.368 . S
C2398 C2397 1.523 . S
C2399 C2383 1.429 . S
C2399 C2395 1.429 . S
C2399 C2400 1.523 . S
C2400 C2384 1.368 . S
C2400 C2396 1.368 . S
C2400 C2399 1.523 . S
H2401 C2376 0.950 . S
H2402 C2378 0.950 . S
H2403 C2379 0.949 . S
H2404 C2381 0.950 . S
H2405 C2383 0.950 . S
C2406 C2407 1.349 . S
C2406 C2408 1.327 . S
C2406 H2431 0.950 . S
C2407 C2406 1.349 . S
C2407 C2423 1.349 . S
C2408 C2406 1.327 . S
C2408 C2427 1.429 . S
C2408 H2432 0.950 . S
C2409 C2426 1.574 . S
C2409 C2428 1.368 . S
C2409 H2433 0.949 . S
H2410 C2414 0.949 . S
C2411 C2412 1.349 . S
C2411 C2413 1.327 . S
C2411 H2434 0.950 . S
C2412 C2411 1.349 . S
C2412 C2424 1.349 . S
C2413 C2411 1.327 . S
C2413 C2429 1.429 . S
C2413 H2435 0.950 . S
C2414 H2410 0.949 . S
C2414 C2422 1.574 . S
C2414 C2430 1.368 . S
H2415 C2423 0.950 . S
H2416 C2421 0.950 . S
H2417 C2422 0.949 . S
H2418 C2424 0.950 . S
H2419 C2425 0.950 . S
H2420 C2426 0.949 . S
C2421 H2416 0.950 . S
C2421 C2423 1.327 . S
C2421 C2427 1.429 . S
C2422 C2414 1.574 . S
C2422 H2417 0.949 . S
C2422 C2428 1.368 . S
C2423 C2407 1.349 . S
C2423 H2415 0.950 . S
C2423 C2421 1.327 . S
C2424 C2412 1.349 . S
C2424 H2418 0.950 . S
C2424 C2425 1.327 . S
C2425 H2419 0.950 . S
C2425 C2424 1.327 . S
C2425 C2429 1.429 . S
C2426 C2409 1.574 . S
C2426 H2420 0.949 . S
C2426 C2430 1.368 . S
C2427 C2408 1.429 . S
C2427 C2421 1.429 . S
C2427 C2428 1.523 . S
C2428 C2409 1.368 . S
C2428 C2422 1.368 . S
C2428 C2427 1.523 . S
C2429 C2413 1.429 . S
C2429 C2425 1.429 . S
C2429 C2430 1.523 . S
C2430 C2414 1.368 . S
C2430 C2426 1.368 . S
C2430 C2429 1.523 . S
H2431 C2406 0.950 . S
H2432 C2408 0.950 . S
H2433 C2409 0.949 . S
H2434 C2411 0.950 . S
H2435 C2413 0.950 . S
C2436 C2437 1.349 . S
C2436 C2438 1.327 . S
C2436 H2461 0.950 . S
C2437 C2436 1.349 . S
C2437 C2453 1.349 . S
C2438 C2436 1.327 . S
C2438 C2457 1.429 . S
C2438 H2462 0.950 . S
C2439 C2456 1.574 . S
C2439 C2458 1.368 . S
C2439 H2463 0.949 . S
H2440 C2444 0.949 . S
C2441 C2442 1.349 . S
C2441 C2443 1.327 . S
C2441 H2464 0.950 . S
C2442 C2441 1.349 . S
C2442 C2454 1.349 . S
C2443 C2441 1.327 . S
C2443 C2459 1.429 . S
C2443 H2465 0.950 . S
C2444 H2440 0.949 . S
C2444 C2452 1.574 . S
C2444 C2460 1.368 . S
H2445 C2453 0.950 . S
H2446 C2451 0.950 . S
H2447 C2452 0.949 . S
H2448 C2454 0.950 . S
H2449 C2455 0.950 . S
H2450 C2456 0.949 . S
C2451 H2446 0.950 . S
C2451 C2453 1.327 . S
C2451 C2457 1.429 . S
C2452 C2444 1.574 . S
C2452 H2447 0.949 . S
C2452 C2458 1.368 . S
C2453 C2437 1.349 . S
C2453 H2445 0.950 . S
C2453 C2451 1.327 . S
C2454 C2442 1.349 . S
C2454 H2448 0.950 . S
C2454 C2455 1.327 . S
C2455 H2449 0.950 . S
C2455 C2454 1.327 . S
C2455 C2459 1.429 . S
C2456 C2439 1.574 . S
C2456 H2450 0.949 . S
C2456 C2460 1.368 . S
C2457 C2438 1.429 . S
C2457 C2451 1.429 . S
C2457 C2458 1.523 . S
C2458 C2439 1.368 . S
C2458 C2452 1.368 . S
C2458 C2457 1.523 . S
C2459 C2443 1.429 . S
C2459 C2455 1.429 . S
C2459 C2460 1.523 . S
C2460 C2444 1.368 . S
C2460 C2456 1.368 . S
C2460 C2459 1.523 . S
H2461 C2436 0.950 . S
H2462 C2438 0.950 . S
H2463 C2439 0.949 . S
H2464 C2441 0.950 . S
H2465 C2443 0.950 . S
C2466 C2467 1.349 . S
C2466 C2468 1.327 . S
C2466 H2491 0.950 . S
C2467 C2466 1.349 . S
C2467 C2483 1.349 . S
C2468 C2466 1.327 . S
C2468 C2487 1.429 . S
C2468 H2492 0.950 . S
C2469 C2486 1.574 . S
C2469 C2488 1.368 . S
C2469 H2493 0.949 . S
H2470 C2474 0.949 . S
C2471 C2472 1.349 . S
C2471 C2473 1.327 . S
C2471 H2494 0.950 . S
C2472 C2471 1.349 . S
C2472 C2484 1.349 . S
C2473 C2471 1.327 . S
C2473 C2489 1.429 . S
C2473 H2495 0.950 . S
C2474 H2470 0.949 . S
C2474 C2482 1.574 . S
C2474 C2490 1.368 . S
H2475 C2483 0.950 . S
H2476 C2481 0.950 . S
H2477 C2482 0.949 . S
H2478 C2484 0.950 . S
H2479 C2485 0.950 . S
H2480 C2486 0.949 . S
C2481 H2476 0.950 . S
C2481 C2483 1.327 . S
C2481 C2487 1.429 . S
C2482 C2474 1.574 . S
C2482 H2477 0.949 . S
C2482 C2488 1.368 . S
C2483 C2467 1.349 . S
C2483 H2475 0.950 . S
C2483 C2481 1.327 . S
C2484 C2472 1.349 . S
C2484 H2478 0.950 . S
C2484 C2485 1.327 . S
C2485 H2479 0.950 . S
C2485 C2484 1.327 . S
C2485 C2489 1.429 . S
C2486 C2469 1.574 . S
C2486 H2480 0.949 . S
C2486 C2490 1.368 . S
C2487 C2468 1.429 . S
C2487 C2481 1.429 . S
C2487 C2488 1.523 . S
C2488 C2469 1.368 . S
C2488 C2482 1.368 . S
C2488 C2487 1.523 . S
C2489 C2473 1.429 . S
C2489 C2485 1.429 . S
C2489 C2490 1.523 . S
C2490 C2474 1.368 . S
C2490 C2486 1.368 . S
C2490 C2489 1.523 . S
H2491 C2466 0.950 . S
H2492 C2468 0.950 . S
H2493 C2469 0.949 . S
H2494 C2471 0.950 . S
H2495 C2473 0.950 . S
C2496 C2497 1.349 . S
C2496 C2498 1.327 . S
C2496 H2521 0.950 . S
C2497 C2496 1.349 . S
C2497 C2513 1.349 . S
C2498 C2496 1.327 . S
C2498 C2517 1.429 . S
C2498 H2522 0.950 . S
C2499 C2516 1.574 . S
C2499 C2518 1.368 . S
C2499 H2523 0.949 . S
H2500 C2504 0.949 . S
C2501 C2502 1.349 . S
C2501 C2503 1.327 . S
C2501 H2524 0.950 . S
C2502 C2501 1.349 . S
C2502 C2514 1.349 . S
C2503 C2501 1.327 . S
C2503 C2519 1.429 . S
C2503 H2525 0.950 . S
C2504 H2500 0.949 . S
C2504 C2512 1.574 . S
C2504 C2520 1.368 . S
H2505 C2513 0.950 . S
H2506 C2511 0.950 . S
H2507 C2512 0.949 . S
H2508 C2514 0.950 . S
H2509 C2515 0.950 . S
H2510 C2516 0.949 . S
C2511 H2506 0.950 . S
C2511 C2513 1.327 . S
C2511 C2517 1.429 . S
C2512 C2504 1.574 . S
C2512 H2507 0.949 . S
C2512 C2518 1.368 . S
C2513 C2497 1.349 . S
C2513 H2505 0.950 . S
C2513 C2511 1.327 . S
C2514 C2502 1.349 . S
C2514 H2508 0.950 . S
C2514 C2515 1.327 . S
C2515 H2509 0.950 . S
C2515 C2514 1.327 . S
C2515 C2519 1.429 . S
C2516 C2499 1.574 . S
C2516 H2510 0.949 . S
C2516 C2520 1.368 . S
C2517 C2498 1.429 . S
C2517 C2511 1.429 . S
C2517 C2518 1.523 . S
C2518 C2499 1.368 . S
C2518 C2512 1.368 . S
C2518 C2517 1.523 . S
C2519 C2503 1.429 . S
C2519 C2515 1.429 . S
C2519 C2520 1.523 . S
C2520 C2504 1.368 . S
C2520 C2516 1.368 . S
C2520 C2519 1.523 . S
H2521 C2496 0.950 . S
H2522 C2498 0.950 . S
H2523 C2499 0.949 . S
H2524 C2501 0.950 . S
H2525 C2503 0.950 . S
C2526 C2527 1.349 . S
C2526 C2528 1.327 . S
C2526 H2551 0.950 . S
C2527 C2526 1.349 . S
C2527 C2543 1.349 . S
C2528 C2526 1.327 . S
C2528 C2547 1.429 . S
C2528 H2552 0.950 . S
C2529 C2546 1.574 . S
C2529 C2548 1.368 . S
C2529 H2553 0.949 . S
H2530 C2534 0.949 . S
C2531 C2532 1.349 . S
C2531 C2533 1.327 . S
C2531 H2554 0.950 . S
C2532 C2531 1.349 . S
C2532 C2544 1.349 . S
C2533 C2531 1.327 . S
C2533 C2549 1.429 . S
C2533 H2555 0.950 . S
C2534 H2530 0.949 . S
C2534 C2542 1.574 . S
C2534 C2550 1.368 . S
H2535 C2543 0.950 . S
H2536 C2541 0.950 . S
H2537 C2542 0.949 . S
H2538 C2544 0.950 . S
H2539 C2545 0.950 . S
H2540 C2546 0.949 . S
C2541 H2536 0.950 . S
C2541 C2543 1.327 . S
C2541 C2547 1.429 . S
C2542 C2534 1.574 . S
C2542 H2537 0.949 . S
C2542 C2548 1.368 . S
C2543 C2527 1.349 . S
C2543 H2535 0.950 . S
C2543 C2541 1.327 . S
C2544 C2532 1.349 . S
C2544 H2538 0.950 . S
C2544 C2545 1.327 . S
C2545 H2539 0.950 . S
C2545 C2544 1.327 . S
C2545 C2549 1.429 . S
C2546 C2529 1.574 . S
C2546 H2540 0.949 . S
C2546 C2550 1.368 . S
C2547 C2528 1.429 . S
C2547 C2541 1.429 . S
C2547 C2548 1.523 . S
C2548 C2529 1.368 . S
C2548 C2542 1.368 . S
C2548 C2547 1.523 . S
C2549 C2533 1.429 . S
C2549 C2545 1.429 . S
C2549 C2550 1.523 . S
C2550 C2534 1.368 . S
C2550 C2546 1.368 . S
C2550 C2549 1.523 . S
H2551 C2526 0.950 . S
H2552 C2528 0.950 . S
H2553 C2529 0.949 . S
H2554 C2531 0.950 . S
H2555 C2533 0.950 . S
C2556 C2557 1.349 . S
C2556 C2558 1.327 . S
C2556 H2581 0.950 . S
C2557 C2556 1.349 . S
C2557 C2573 1.349 . S
C2558 C2556 1.327 . S
C2558 C2577 1.429 . S
C2558 H2582 0.950 . S
C2559 C2576 1.574 . S
C2559 C2578 1.368 . S
C2559 H2583 0.949 . S
H2560 C2564 0.949 . S
C2561 C2562 1.349 . S
C2561 C2563 1.327 . S
C2561 H2584 0.950 . S
C2562 C2561 1.349 . S
C2562 C2574 1.349 . S
C2563 C2561 1.327 . S
C2563 C2579 1.429 . S
C2563 H2585 0.950 . S
C2564 H2560 0.949 . S
C2564 C2572 1.574 . S
C2564 C2580 1.368 . S
H2565 C2573 0.950 . S
H2566 C2571 0.950 . S
H2567 C2572 0.949 . S
H2568 C2574 0.950 . S
H2569 C2575 0.950 . S
H2570 C2576 0.949 . S
C2571 H2566 0.950 . S
C2571 C2573 1.327 . S
C2571 C2577 1.429 . S
C2572 C2564 1.574 . S
C2572 H2567 0.949 . S
C2572 C2578 1.368 . S
C2573 C2557 1.349 . S
C2573 H2565 0.950 . S
C2573 C2571 1.327 . S
C2574 C2562 1.349 . S
C2574 H2568 0.950 . S
C2574 C2575 1.327 . S
C2575 H2569 0.950 . S
C2575 C2574 1.327 . S
C2575 C2579 1.429 . S
C2576 C2559 1.574 . S
C2576 H2570 0.949 . S
C2576 C2580 1.368 . S
C2577 C2558 1.429 . S
C2577 C2571 1.429 . S
C2577 C2578 1.523 . S
C2578 C2559 1.368 . S
C2578 C2572 1.368 . S
C2578 C2577 1.523 . S
C2579 C2563 1.429 . S
C2579 C2575 1.429 . S
C2579 C2580 1.523 . S
C2580 C2564 1.368 . S
C2580 C2576 1.368 . S
C2580 C2579 1.523 . S
H2581 C2556 0.950 . S
H2582 C2558 0.950 . S
H2583 C2559 0.949 . S
H2584 C2561 0.950 . S
H2585 C2563 0.950 . S
C2586 C2587 1.349 . S
C2586 C2588 1.327 . S
C2586 H2611 0.950 . S
C2587 C2586 1.349 . S
C2587 C2603 1.349 . S
C2588 C2586 1.327 . S
C2588 C2607 1.429 . S
C2588 H2612 0.950 . S
C2589 C2606 1.574 . S
C2589 C2608 1.368 . S
C2589 H2613 0.949 . S
H2590 C2594 0.949 . S
C2591 C2592 1.349 . S
C2591 C2593 1.327 . S
C2591 H2614 0.950 . S
C2592 C2591 1.349 . S
C2592 C2604 1.349 . S
C2593 C2591 1.327 . S
C2593 C2609 1.429 . S
C2593 H2615 0.950 . S
C2594 H2590 0.949 . S
C2594 C2602 1.574 . S
C2594 C2610 1.368 . S
H2595 C2603 0.950 . S
H2596 C2601 0.950 . S
H2597 C2602 0.949 . S
H2598 C2604 0.950 . S
H2599 C2605 0.950 . S
H2600 C2606 0.949 . S
C2601 H2596 0.950 . S
C2601 C2603 1.327 . S
C2601 C2607 1.429 . S
C2602 C2594 1.574 . S
C2602 H2597 0.949 . S
C2602 C2608 1.368 . S
C2603 C2587 1.349 . S
C2603 H2595 0.950 . S
C2603 C2601 1.327 . S
C2604 C2592 1.349 . S
C2604 H2598 0.950 . S
C2604 C2605 1.327 . S
C2605 H2599 0.950 . S
C2605 C2604 1.327 . S
C2605 C2609 1.429 . S
C2606 C2589 1.574 . S
C2606 H2600 0.949 . S
C2606 C2610 1.368 . S
C2607 C2588 1.429 . S
C2607 C2601 1.429 . S
C2607 C2608 1.523 . S
C2608 C2589 1.368 . S
C2608 C2602 1.368 . S
C2608 C2607 1.523 . S
C2609 C2593 1.429 . S
C2609 C2605 1.429 . S
C2609 C2610 1.523 . S
C2610 C2594 1.368 . S
C2610 C2606 1.368 . S
C2610 C2609 1.523 . S
H2611 C2586 0.950 . S
H2612 C2588 0.950 . S
H2613 C2589 0.949 . S
H2614 C2591 0.950 . S
H2615 C2593 0.950 . S
C2616 C2617 1.349 . S
C2616 C2618 1.327 . S
C2616 H2641 0.950 . S
C2617 C2616 1.349 . S
C2617 C2633 1.349 . S
C2618 C2616 1.327 . S
C2618 C2637 1.429 . S
C2618 H2642 0.950 . S
C2619 C2636 1.574 . S
C2619 C2638 1.368 . S
C2619 H2643 0.949 . S
H2620 C2624 0.949 . S
C2621 C2622 1.349 . S
C2621 C2623 1.327 . S
C2621 H2644 0.950 . S
C2622 C2621 1.349 . S
C2622 C2634 1.349 . S
C2623 C2621 1.327 . S
C2623 C2639 1.429 . S
C2623 H2645 0.950 . S
C2624 H2620 0.949 . S
C2624 C2632 1.574 . S
C2624 C2640 1.368 . S
H2625 C2633 0.950 . S
H2626 C2631 0.950 . S
H2627 C2632 0.949 . S
H2628 C2634 0.950 . S
H2629 C2635 0.950 . S
H2630 C2636 0.949 . S
C2631 H2626 0.950 . S
C2631 C2633 1.327 . S
C2631 C2637 1.429 . S
C2632 C2624 1.574 . S
C2632 H2627 0.949 . S
C2632 C2638 1.368 . S
C2633 C2617 1.349 . S
C2633 H2625 0.950 . S
C2633 C2631 1.327 . S
C2634 C2622 1.349 . S
C2634 H2628 0.950 . S
C2634 C2635 1.327 . S
C2635 H2629 0.950 . S
C2635 C2634 1.327 . S
C2635 C2639 1.429 . S
C2636 C2619 1.574 . S
C2636 H2630 0.949 . S
C2636 C2640 1.368 . S
C2637 C2618 1.429 . S
C2637 C2631 1.429 . S
C2637 C2638 1.523 . S
C2638 C2619 1.368 . S
C2638 C2632 1.368 . S
C2638 C2637 1.523 . S
C2639 C2623 1.429 . S
C2639 C2635 1.429 . S
C2639 C2640 1.523 . S
C2640 C2624 1.368 . S
C2640 C2636 1.368 . S
C2640 C2639 1.523 . S
H2641 C2616 0.950 . S
H2642 C2618 0.950 . S
H2643 C2619 0.949 . S
H2644 C2621 0.950 . S
H2645 C2623 0.950 . S
C2646 C2647 1.349 . S
C2646 C2648 1.327 . S
C2646 H2671 0.950 . S
C2647 C2646 1.349 . S
C2647 C2663 1.349 . S
C2648 C2646 1.327 . S
C2648 C2667 1.429 . S
C2648 H2672 0.950 . S
C2649 C2666 1.574 . S
C2649 C2668 1.368 . S
C2649 H2673 0.949 . S
H2650 C2654 0.949 . S
C2651 C2652 1.349 . S
C2651 C2653 1.327 . S
C2651 H2674 0.950 . S
C2652 C2651 1.349 . S
C2652 C2664 1.349 . S
C2653 C2651 1.327 . S
C2653 C2669 1.429 . S
C2653 H2675 0.950 . S
C2654 H2650 0.949 . S
C2654 C2662 1.574 . S
C2654 C2670 1.368 . S
H2655 C2663 0.950 . S
H2656 C2661 0.950 . S
H2657 C2662 0.949 . S
H2658 C2664 0.950 . S
H2659 C2665 0.950 . S
H2660 C2666 0.949 . S
C2661 H2656 0.950 . S
C2661 C2663 1.327 . S
C2661 C2667 1.429 . S
C2662 C2654 1.574 . S
C2662 H2657 0.949 . S
C2662 C2668 1.368 . S
C2663 C2647 1.349 . S
C2663 H2655 0.950 . S
C2663 C2661 1.327 . S
C2664 C2652 1.349 . S
C2664 H2658 0.950 . S
C2664 C2665 1.327 . S
C2665 H2659 0.950 . S
C2665 C2664 1.327 . S
C2665 C2669 1.429 . S
C2666 C2649 1.574 . S
C2666 H2660 0.949 . S
C2666 C2670 1.368 . S
C2667 C2648 1.429 . S
C2667 C2661 1.429 . S
C2667 C2668 1.523 . S
C2668 C2649 1.368 . S
C2668 C2662 1.368 . S
C2668 C2667 1.523 . S
C2669 C2653 1.429 . S
C2669 C2665 1.429 . S
C2669 C2670 1.523 . S
C2670 C2654 1.368 . S
C2670 C2666 1.368 . S
C2670 C2669 1.523 . S
H2671 C2646 0.950 . S
H2672 C2648 0.950 . S
H2673 C2649 0.949 . S
H2674 C2651 0.950 . S
H2675 C2653 0.950 . S
C2676 C2677 1.349 . S
C2676 C2678 1.327 . S
C2676 H2701 0.950 . S
C2677 C2676 1.349 . S
C2677 C2693 1.349 . S
C2678 C2676 1.327 . S
C2678 C2697 1.429 . S
C2678 H2702 0.950 . S
C2679 C2696 1.574 . S
C2679 C2698 1.368 . S
C2679 H2703 0.949 . S
H2680 C2684 0.949 . S
C2681 C2682 1.349 . S
C2681 C2683 1.327 . S
C2681 H2704 0.950 . S
C2682 C2681 1.349 . S
C2682 C2694 1.349 . S
C2683 C2681 1.327 . S
C2683 C2699 1.429 . S
C2683 H2705 0.950 . S
C2684 H2680 0.949 . S
C2684 C2692 1.574 . S
C2684 C2700 1.368 . S
H2685 C2693 0.950 . S
H2686 C2691 0.950 . S
H2687 C2692 0.949 . S
H2688 C2694 0.950 . S
H2689 C2695 0.950 . S
H2690 C2696 0.949 . S
C2691 H2686 0.950 . S
C2691 C2693 1.327 . S
C2691 C2697 1.429 . S
C2692 C2684 1.574 . S
C2692 H2687 0.949 . S
C2692 C2698 1.368 . S
C2693 C2677 1.349 . S
C2693 H2685 0.950 . S
C2693 C2691 1.327 . S
C2694 C2682 1.349 . S
C2694 H2688 0.950 . S
C2694 C2695 1.327 . S
C2695 H2689 0.950 . S
C2695 C2694 1.327 . S
C2695 C2699 1.429 . S
C2696 C2679 1.574 . S
C2696 H2690 0.949 . S
C2696 C2700 1.368 . S
C2697 C2678 1.429 . S
C2697 C2691 1.429 . S
C2697 C2698 1.523 . S
C2698 C2679 1.368 . S
C2698 C2692 1.368 . S
C2698 C2697 1.523 . S
C2699 C2683 1.429 . S
C2699 C2695 1.429 . S
C2699 C2700 1.523 . S
C2700 C2684 1.368 . S
C2700 C2696 1.368 . S
C2700 C2699 1.523 . S
H2701 C2676 0.950 . S
H2702 C2678 0.950 . S
H2703 C2679 0.949 . S
H2704 C2681 0.950 . S
H2705 C2683 0.950 . S
C2706 C2707 1.349 . S
C2706 C2708 1.327 . S
C2706 H2731 0.950 . S
C2707 C2706 1.349 . S
C2707 C2723 1.349 . S
C2708 C2706 1.327 . S
C2708 C2727 1.429 . S
C2708 H2732 0.950 . S
C2709 C2726 1.574 . S
C2709 C2728 1.368 . S
C2709 H2733 0.949 . S
H2710 C2714 0.949 . S
C2711 C2712 1.349 . S
C2711 C2713 1.327 . S
C2711 H2734 0.950 . S
C2712 C2711 1.349 . S
C2712 C2724 1.349 . S
C2713 C2711 1.327 . S
C2713 C2729 1.429 . S
C2713 H2735 0.950 . S
C2714 H2710 0.949 . S
C2714 C2722 1.574 . S
C2714 C2730 1.368 . S
H2715 C2723 0.950 . S
H2716 C2721 0.950 . S
H2717 C2722 0.949 . S
H2718 C2724 0.950 . S
H2719 C2725 0.950 . S
H2720 C2726 0.949 . S
C2721 H2716 0.950 . S
C2721 C2723 1.327 . S
C2721 C2727 1.429 . S
C2722 C2714 1.574 . S
C2722 H2717 0.949 . S
C2722 C2728 1.368 . S
C2723 C2707 1.349 . S
C2723 H2715 0.950 . S
C2723 C2721 1.327 . S
C2724 C2712 1.349 . S
C2724 H2718 0.950 . S
C2724 C2725 1.327 . S
C2725 H2719 0.950 . S
C2725 C2724 1.327 . S
C2725 C2729 1.429 . S
C2726 C2709 1.574 . S
C2726 H2720 0.949 . S
C2726 C2730 1.368 . S
C2727 C2708 1.429 . S
C2727 C2721 1.429 . S
C2727 C2728 1.523 . S
C2728 C2709 1.368 . S
C2728 C2722 1.368 . S
C2728 C2727 1.523 . S
C2729 C2713 1.429 . S
C2729 C2725 1.429 . S
C2729 C2730 1.523 . S
C2730 C2714 1.368 . S
C2730 C2726 1.368 . S
C2730 C2729 1.523 . S
H2731 C2706 0.950 . S
H2732 C2708 0.950 . S
H2733 C2709 0.949 . S
H2734 C2711 0.950 . S
H2735 C2713 0.950 . S
C2736 C2737 1.349 . S
C2736 C2738 1.327 . S
C2736 H2761 0.950 . S
C2737 C2736 1.349 . S
C2737 C2753 1.349 . S
C2738 C2736 1.327 . S
C2738 C2757 1.429 . S
C2738 H2762 0.950 . S
C2739 C2756 1.574 . S
C2739 C2758 1.368 . S
C2739 H2763 0.949 . S
H2740 C2744 0.949 . S
C2741 C2742 1.349 . S
C2741 C2743 1.327 . S
C2741 H2764 0.950 . S
C2742 C2741 1.349 . S
C2742 C2754 1.349 . S
C2743 C2741 1.327 . S
C2743 C2759 1.429 . S
C2743 H2765 0.950 . S
C2744 H2740 0.949 . S
C2744 C2752 1.574 . S
C2744 C2760 1.368 . S
H2745 C2753 0.950 . S
H2746 C2751 0.950 . S
H2747 C2752 0.949 . S
H2748 C2754 0.950 . S
H2749 C2755 0.950 . S
H2750 C2756 0.949 . S
C2751 H2746 0.950 . S
C2751 C2753 1.327 . S
C2751 C2757 1.429 . S
C2752 C2744 1.574 . S
C2752 H2747 0.949 . S
C2752 C2758 1.368 . S
C2753 C2737 1.349 . S
C2753 H2745 0.950 . S
C2753 C2751 1.327 . S
C2754 C2742 1.349 . S
C2754 H2748 0.950 . S
C2754 C2755 1.327 . S
C2755 H2749 0.950 . S
C2755 C2754 1.327 . S
C2755 C2759 1.429 . S
C2756 C2739 1.574 . S
C2756 H2750 0.949 . S
C2756 C2760 1.368 . S
C2757 C2738 1.429 . S
C2757 C2751 1.429 . S
C2757 C2758 1.523 . S
C2758 C2739 1.368 . S
C2758 C2752 1.368 . S
C2758 C2757 1.523 . S
C2759 C2743 1.429 . S
C2759 C2755 1.429 . S
C2759 C2760 1.523 . S
C2760 C2744 1.368 . S
C2760 C2756 1.368 . S
C2760 C2759 1.523 . S
H2761 C2736 0.950 . S
H2762 C2738 0.950 . S
H2763 C2739 0.949 . S
H2764 C2741 0.950 . S
H2765 C2743 0.950 . S
C2766 C2767 1.349 . S
C2766 C2768 1.327 . S
C2766 H2791 0.950 . S
C2767 C2766 1.349 . S
C2767 C2783 1.349 . S
C2768 C2766 1.327 . S
C2768 C2787 1.429 . S
C2768 H2792 0.950 . S
C2769 C2786 1.574 . S
C2769 C2788 1.368 . S
C2769 H2793 0.949 . S
H2770 C2774 0.949 . S
C2771 C2772 1.349 . S
C2771 C2773 1.327 . S
C2771 H2794 0.950 . S
C2772 C2771 1.349 . S
C2772 C2784 1.349 . S
C2773 C2771 1.327 . S
C2773 C2789 1.429 . S
C2773 H2795 0.950 . S
C2774 H2770 0.949 . S
C2774 C2782 1.574 . S
C2774 C2790 1.368 . S
H2775 C2783 0.950 . S
H2776 C2781 0.950 . S
H2777 C2782 0.949 . S
H2778 C2784 0.950 . S
H2779 C2785 0.950 . S
H2780 C2786 0.949 . S
C2781 H2776 0.950 . S
C2781 C2783 1.327 . S
C2781 C2787 1.429 . S
C2782 C2774 1.574 . S
C2782 H2777 0.949 . S
C2782 C2788 1.368 . S
C2783 C2767 1.349 . S
C2783 H2775 0.950 . S
C2783 C2781 1.327 . S
C2784 C2772 1.349 . S
C2784 H2778 0.950 . S
C2784 C2785 1.327 . S
C2785 H2779 0.950 . S
C2785 C2784 1.327 . S
C2785 C2789 1.429 . S
C2786 C2769 1.574 . S
C2786 H2780 0.949 . S
C2786 C2790 1.368 . S
C2787 C2768 1.429 . S
C2787 C2781 1.429 . S
C2787 C2788 1.523 . S
C2788 C2769 1.368 . S
C2788 C2782 1.368 . S
C2788 C2787 1.523 . S
C2789 C2773 1.429 . S
C2789 C2785 1.429 . S
C2789 C2790 1.523 . S
C2790 C2774 1.368 . S
C2790 C2786 1.368 . S
C2790 C2789 1.523 . S
H2791 C2766 0.950 . S
H2792 C2768 0.950 . S
H2793 C2769 0.949 . S
H2794 C2771 0.950 . S
H2795 C2773 0.950 . S
C2796 C2797 1.349 . S
C2796 C2798 1.327 . S
C2796 H2821 0.950 . S
C2797 C2796 1.349 . S
C2797 C2813 1.349 . S
C2798 C2796 1.327 . S
C2798 C2817 1.429 . S
C2798 H2822 0.950 . S
C2799 C2816 1.574 . S
C2799 C2818 1.368 . S
C2799 H2823 0.949 . S
H2800 C2804 0.949 . S
C2801 C2802 1.349 . S
C2801 C2803 1.327 . S
C2801 H2824 0.950 . S
C2802 C2801 1.349 . S
C2802 C2814 1.349 . S
C2803 C2801 1.327 . S
C2803 C2819 1.429 . S
C2803 H2825 0.950 . S
C2804 H2800 0.949 . S
C2804 C2812 1.574 . S
C2804 C2820 1.368 . S
H2805 C2813 0.950 . S
H2806 C2811 0.950 . S
H2807 C2812 0.949 . S
H2808 C2814 0.950 . S
H2809 C2815 0.950 . S
H2810 C2816 0.949 . S
C2811 H2806 0.950 . S
C2811 C2813 1.327 . S
C2811 C2817 1.429 . S
C2812 C2804 1.574 . S
C2812 H2807 0.949 . S
C2812 C2818 1.368 . S
C2813 C2797 1.349 . S
C2813 H2805 0.950 . S
C2813 C2811 1.327 . S
C2814 C2802 1.349 . S
C2814 H2808 0.950 . S
C2814 C2815 1.327 . S
C2815 H2809 0.950 . S
C2815 C2814 1.327 . S
C2815 C2819 1.429 . S
C2816 C2799 1.574 . S
C2816 H2810 0.949 . S
C2816 C2820 1.368 . S
C2817 C2798 1.429 . S
C2817 C2811 1.429 . S
C2817 C2818 1.523 . S
C2818 C2799 1.368 . S
C2818 C2812 1.368 . S
C2818 C2817 1.523 . S
C2819 C2803 1.429 . S
C2819 C2815 1.429 . S
C2819 C2820 1.523 . S
C2820 C2804 1.368 . S
C2820 C2816 1.368 . S
C2820 C2819 1.523 . S
H2821 C2796 0.950 . S
H2822 C2798 0.950 . S
H2823 C2799 0.949 . S
H2824 C2801 0.950 . S
H2825 C2803 0.950 . S
C2826 C2827 1.349 . S
C2826 C2828 1.327 . S
C2826 H2851 0.950 . S
C2827 C2826 1.349 . S
C2827 C2843 1.349 . S
C2828 C2826 1.327 . S
C2828 C2847 1.429 . S
C2828 H2852 0.950 . S
C2829 C2846 1.574 . S
C2829 C2848 1.368 . S
C2829 H2853 0.949 . S
H2830 C2834 0.949 . S
C2831 C2832 1.349 . S
C2831 C2833 1.327 . S
C2831 H2854 0.950 . S
C2832 C2831 1.349 . S
C2832 C2844 1.349 . S
C2833 C2831 1.327 . S
C2833 C2849 1.429 . S
C2833 H2855 0.950 . S
C2834 H2830 0.949 . S
C2834 C2842 1.574 . S
C2834 C2850 1.368 . S
H2835 C2843 0.950 . S
H2836 C2841 0.950 . S
H2837 C2842 0.949 . S
H2838 C2844 0.950 . S
H2839 C2845 0.950 . S
H2840 C2846 0.949 . S
C2841 H2836 0.950 . S
C2841 C2843 1.327 . S
C2841 C2847 1.429 . S
C2842 C2834 1.574 . S
C2842 H2837 0.949 . S
C2842 C2848 1.368 . S
C2843 C2827 1.349 . S
C2843 H2835 0.950 . S
C2843 C2841 1.327 . S
C2844 C2832 1.349 . S
C2844 H2838 0.950 . S
C2844 C2845 1.327 . S
C2845 H2839 0.950 . S
C2845 C2844 1.327 . S
C2845 C2849 1.429 . S
C2846 C2829 1.574 . S
C2846 H2840 0.949 . S
C2846 C2850 1.368 . S
C2847 C2828 1.429 . S
C2847 C2841 1.429 . S
C2847 C2848 1.523 . S
C2848 C2829 1.368 . S
C2848 C2842 1.368 . S
C2848 C2847 1.523 . S
C2849 C2833 1.429 . S
C2849 C2845 1.429 . S
C2849 C2850 1.523 . S
C2850 C2834 1.368 . S
C2850 C2846 1.368 . S
C2850 C2849 1.523 . S
H2851 C2826 0.950 . S
H2852 C2828 0.950 . S
H2853 C2829 0.949 . S
H2854 C2831 0.950 . S
H2855 C2833 0.950 . S
C2856 C2857 1.349 . S
C2856 C2858 1.327 . S
C2856 H2881 0.950 . S
C2857 C2856 1.349 . S
C2857 C2873 1.349 . S
C2858 C2856 1.327 . S
C2858 C2877 1.429 . S
C2858 H2882 0.950 . S
C2859 C2876 1.574 . S
C2859 C2878 1.368 . S
C2859 H2883 0.949 . S
H2860 C2864 0.949 . S
C2861 C2862 1.349 . S
C2861 C2863 1.327 . S
C2861 H2884 0.950 . S
C2862 C2861 1.349 . S
C2862 C2874 1.349 . S
C2863 C2861 1.327 . S
C2863 C2879 1.429 . S
C2863 H2885 0.950 . S
C2864 H2860 0.949 . S
C2864 C2872 1.574 . S
C2864 C2880 1.368 . S
H2865 C2873 0.950 . S
H2866 C2871 0.950 . S
H2867 C2872 0.949 . S
H2868 C2874 0.950 . S
H2869 C2875 0.950 . S
H2870 C2876 0.949 . S
C2871 H2866 0.950 . S
C2871 C2873 1.327 . S
C2871 C2877 1.429 . S
C2872 C2864 1.574 . S
C2872 H2867 0.949 . S
C2872 C2878 1.368 . S
C2873 C2857 1.349 . S
C2873 H2865 0.950 . S
C2873 C2871 1.327 . S
C2874 C2862 1.349 . S
C2874 H2868 0.950 . S
C2874 C2875 1.327 . S
C2875 H2869 0.950 . S
C2875 C2874 1.327 . S
C2875 C2879 1.429 . S
C2876 C2859 1.574 . S
C2876 H2870 0.949 . S
C2876 C2880 1.368 . S
C2877 C2858 1.429 . S
C2877 C2871 1.429 . S
C2877 C2878 1.523 . S
C2878 C2859 1.368 . S
C2878 C2872 1.368 . S
C2878 C2877 1.523 . S
C2879 C2863 1.429 . S
C2879 C2875 1.429 . S
C2879 C2880 1.523 . S
C2880 C2864 1.368 . S
C2880 C2876 1.368 . S
C2880 C2879 1.523 . S
H2881 C2856 0.950 . S
H2882 C2858 0.950 . S
H2883 C2859 0.949 . S
H2884 C2861 0.950 . S
H2885 C2863 0.950 . S
C2886 C2887 1.349 . S
C2886 C2888 1.327 . S
C2886 H2911 0.950 . S
C2887 C2886 1.349 . S
C2887 C2903 1.349 . S
C2888 C2886 1.327 . S
C2888 C2907 1.429 . S
C2888 H2912 0.950 . S
C2889 C2906 1.574 . S
C2889 C2908 1.368 . S
C2889 H2913 0.949 . S
H2890 C2894 0.949 . S
C2891 C2892 1.349 . S
C2891 C2893 1.327 . S
C2891 H2914 0.950 . S
C2892 C2891 1.349 . S
C2892 C2904 1.349 . S
C2893 C2891 1.327 . S
C2893 C2909 1.429 . S
C2893 H2915 0.950 . S
C2894 H2890 0.949 . S
C2894 C2902 1.574 . S
C2894 C2910 1.368 . S
H2895 C2903 0.950 . S
H2896 C2901 0.950 . S
H2897 C2902 0.949 . S
H2898 C2904 0.950 . S
H2899 C2905 0.950 . S
H2900 C2906 0.949 . S
C2901 H2896 0.950 . S
C2901 C2903 1.327 . S
C2901 C2907 1.429 . S
C2902 C2894 1.574 . S
C2902 H2897 0.949 . S
C2902 C2908 1.368 . S
C2903 C2887 1.349 . S
C2903 H2895 0.950 . S
C2903 C2901 1.327 . S
C2904 C2892 1.349 . S
C2904 H2898 0.950 . S
C2904 C2905 1.327 . S
C2905 H2899 0.950 . S
C2905 C2904 1.327 . S
C2905 C2909 1.429 . S
C2906 C2889 1.574 . S
C2906 H2900 0.949 . S
C2906 C2910 1.368 . S
C2907 C2888 1.429 . S
C2907 C2901 1.429 . S
C2907 C2908 1.523 . S
C2908 C2889 1.368 . S
C2908 C2902 1.368 . S
C2908 C2907 1.523 . S
C2909 C2893 1.429 . S
C2909 C2905 1.429 . S
C2909 C2910 1.523 . S
C2910 C2894 1.368 . S
C2910 C2906 1.368 . S
C2910 C2909 1.523 . S
H2911 C2886 0.950 . S
H2912 C2888 0.950 . S
H2913 C2889 0.949 . S
H2914 C2891 0.950 . S
H2915 C2893 0.950 . S
C2916 C2917 1.349 . S
C2916 C2918 1.327 . S
C2916 H2941 0.950 . S
C2917 C2916 1.349 . S
C2917 C2933 1.349 . S
C2918 C2916 1.327 . S
C2918 C2937 1.429 . S
C2918 H2942 0.950 . S
C2919 C2936 1.574 . S
C2919 C2938 1.368 . S
C2919 H2943 0.949 . S
H2920 C2924 0.949 . S
C2921 C2922 1.349 . S
C2921 C2923 1.327 . S
C2921 H2944 0.950 . S
C2922 C2921 1.349 . S
C2922 C2934 1.349 . S
C2923 C2921 1.327 . S
C2923 C2939 1.429 . S
C2923 H2945 0.950 . S
C2924 H2920 0.949 . S
C2924 C2932 1.574 . S
C2924 C2940 1.368 . S
H2925 C2933 0.950 . S
H2926 C2931 0.950 . S
H2927 C2932 0.949 . S
H2928 C2934 0.950 . S
H2929 C2935 0.950 . S
H2930 C2936 0.949 . S
C2931 H2926 0.950 . S
C2931 C2933 1.327 . S
C2931 C2937 1.429 . S
C2932 C2924 1.574 . S
C2932 H2927 0.949 . S
C2932 C2938 1.368 . S
C2933 C2917 1.349 . S
C2933 H2925 0.950 . S
C2933 C2931 1.327 . S
C2934 C2922 1.349 . S
C2934 H2928 0.950 . S
C2934 C2935 1.327 . S
C2935 H2929 0.950 . S
C2935 C2934 1.327 . S
C2935 C2939 1.429 . S
C2936 C2919 1.574 . S
C2936 H2930 0.949 . S
C2936 C2940 1.368 . S
C2937 C2918 1.429 . S
C2937 C2931 1.429 . S
C2937 C2938 1.523 . S
C2938 C2919 1.368 . S
C2938 C2932 1.368 . S
C2938 C2937 1.523 . S
C2939 C2923 1.429 . S
C2939 C2935 1.429 . S
C2939 C2940 1.523 . S
C2940 C2924 1.368 . S
C2940 C2936 1.368 . S
C2940 C2939 1.523 . S
H2941 C2916 0.950 . S
H2942 C2918 0.950 . S
H2943 C2919 0.949 . S
H2944 C2921 0.950 . S
H2945 C2923 0.950 . S
C2946 C2947 1.349 . S
C2946 C2948 1.327 . S
C2946 H2971 0.950 . S
C2947 C2946 1.349 . S
C2947 C2963 1.349 . S
C2948 C2946 1.327 . S
C2948 C2967 1.429 . S
C2948 H2972 0.950 . S
C2949 C2966 1.574 . S
C2949 C2968 1.368 . S
C2949 H2973 0.949 . S
H2950 C2954 0.949 . S
C2951 C2952 1.349 . S
C2951 C2953 1.327 . S
C2951 H2974 0.950 . S
C2952 C2951 1.349 . S
C2952 C2964 1.349 . S
C2953 C2951 1.327 . S
C2953 C2969 1.429 . S
C2953 H2975 0.950 . S
C2954 H2950 0.949 . S
C2954 C2962 1.574 . S
C2954 C2970 1.368 . S
H2955 C2963 0.950 . S
H2956 C2961 0.950 . S
H2957 C2962 0.949 . S
H2958 C2964 0.950 . S
H2959 C2965 0.950 . S
H2960 C2966 0.949 . S
C2961 H2956 0.950 . S
C2961 C2963 1.327 . S
C2961 C2967 1.429 . S
C2962 C2954 1.574 . S
C2962 H2957 0.949 . S
C2962 C2968 1.368 . S
C2963 C2947 1.349 . S
C2963 H2955 0.950 . S
C2963 C2961 1.327 . S
C2964 C2952 1.349 . S
C2964 H2958 0.950 . S
C2964 C2965 1.327 . S
C2965 H2959 0.950 . S
C2965 C2964 1.327 . S
C2965 C2969 1.429 . S
C2966 C2949 1.574 . S
C2966 H2960 0.949 . S
C2966 C2970 1.368 . S
C2967 C2948 1.429 . S
C2967 C2961 1.429 . S
C2967 C2968 1.523 . S
C2968 C2949 1.368 . S
C2968 C2962 1.368 . S
C2968 C2967 1.523 . S
C2969 C2953 1.429 . S
C2969 C2965 1.429 . S
C2969 C2970 1.523 . S
C2970 C2954 1.368 . S
C2970 C2966 1.368 . S
C2970 C2969 1.523 . S
H2971 C2946 0.950 . S
H2972 C2948 0.950 . S
H2973 C2949 0.949 . S
H2974 C2951 0.950 . S
H2975 C2953 0.950 . S
C2976 C2977 1.349 . S
C2976 C2978 1.327 . S
C2976 H3001 0.950 . S
C2977 C2976 1.349 . S
C2977 C2993 1.349 . S
C2978 C2976 1.327 . S
C2978 C2997 1.429 . S
C2978 H3002 0.950 . S
C2979 C2996 1.574 . S
C2979 C2998 1.368 . S
C2979 H3003 0.949 . S
H2980 C2984 0.949 . S
C2981 C2982 1.349 . S
C2981 C2983 1.327 . S
C2981 H3004 0.950 . S
C2982 C2981 1.349 . S
C2982 C2994 1.349 . S
C2983 C2981 1.327 . S
C2983 C2999 1.429 . S
C2983 H3005 0.950 . S
C2984 H2980 0.949 . S
C2984 C2992 1.574 . S
C2984 C3000 1.368 . S
H2985 C2993 0.950 . S
H2986 C2991 0.950 . S
H2987 C2992 0.949 . S
H2988 C2994 0.950 . S
H2989 C2995 0.950 . S
H2990 C2996 0.949 . S
C2991 H2986 0.950 . S
C2991 C2993 1.327 . S
C2991 C2997 1.429 . S
C2992 C2984 1.574 . S
C2992 H2987 0.949 . S
C2992 C2998 1.368 . S
C2993 C2977 1.349 . S
C2993 H2985 0.950 . S
C2993 C2991 1.327 . S
C2994 C2982 1.349 . S
C2994 H2988 0.950 . S
C2994 C2995 1.327 . S
C2995 H2989 0.950 . S
C2995 C2994 1.327 . S
C2995 C2999 1.429 . S
C2996 C2979 1.574 . S
C2996 H2990 0.949 . S
C2996 C3000 1.368 . S
C2997 C2978 1.429 . S
C2997 C2991 1.429 . S
C2997 C2998 1.523 . S
C2998 C2979 1.368 . S
C2998 C2992 1.368 . S
C2998 C2997 1.523 . S
C2999 C2983 1.429 . S
C2999 C2995 1.429 . S
C2999 C3000 1.523 . S
C3000 C2984 1.368 . S
C3000 C2996 1.368 . S
C3000 C2999 1.523 . S
H3001 C2976 0.950 . S
H3002 C2978 0.950 . S
H3003 C2979 0.949 . S
H3004 C2981 0.950 . S
H3005 C2983 0.950 . S
C3006 C3007 1.349 . S
C3006 C3008 1.327 . S
C3006 H3031 0.950 . S
C3007 C3006 1.349 . S
C3007 C3023 1.349 . S
C3008 C3006 1.327 . S
C3008 C3027 1.429 . S
C3008 H3032 0.950 . S
C3009 C3026 1.574 . S
C3009 C3028 1.368 . S
C3009 H3033 0.949 . S
H3010 C3014 0.949 . S
C3011 C3012 1.349 . S
C3011 C3013 1.327 . S
C3011 H3034 0.950 . S
C3012 C3011 1.349 . S
C3012 C3024 1.349 . S
C3013 C3011 1.327 . S
C3013 C3029 1.429 . S
C3013 H3035 0.950 . S
C3014 H3010 0.949 . S
C3014 C3022 1.574 . S
C3014 C3030 1.368 . S
H3015 C3023 0.950 . S
H3016 C3021 0.950 . S
H3017 C3022 0.949 . S
H3018 C3024 0.950 . S
H3019 C3025 0.950 . S
H3020 C3026 0.949 . S
C3021 H3016 0.950 . S
C3021 C3023 1.327 . S
C3021 C3027 1.429 . S
C3022 C3014 1.574 . S
C3022 H3017 0.949 . S
C3022 C3028 1.368 . S
C3023 C3007 1.349 . S
C3023 H3015 0.950 . S
C3023 C3021 1.327 . S
C3024 C3012 1.349 . S
C3024 H3018 0.950 . S
C3024 C3025 1.327 . S
C3025 H3019 0.950 . S
C3025 C3024 1.327 . S
C3025 C3029 1.429 . S
C3026 C3009 1.574 . S
C3026 H3020 0.949 . S
C3026 C3030 1.368 . S
C3027 C3008 1.429 . S
C3027 C3021 1.429 . S
C3027 C3028 1.523 . S
C3028 C3009 1.368 . S
C3028 C3022 1.368 . S
C3028 C3027 1.523 . S
C3029 C3013 1.429 . S
C3029 C3025 1.429 . S
C3029 C3030 1.523 . S
C3030 C3014 1.368 . S
C3030 C3026 1.368 . S
C3030 C3029 1.523 . S
H3031 C3006 0.950 . S
H3032 C3008 0.950 . S
H3033 C3009 0.949 . S
H3034 C3011 0.950 . S
H3035 C3013 0.950 . S
C3036 C3037 1.349 . S
C3036 C3038 1.327 . S
C3036 H3061 0.950 . S
C3037 C3036 1.349 . S
C3037 C3053 1.349 . S
C3038 C3036 1.327 . S
C3038 C3057 1.429 . S
C3038 H3062 0.950 . S
C3039 C3056 1.574 . S
C3039 C3058 1.368 . S
C3039 H3063 0.949 . S
H3040 C3044 0.949 . S
C3041 C3042 1.349 . S
C3041 C3043 1.327 . S
C3041 H3064 0.950 . S
C3042 C3041 1.349 . S
C3042 C3054 1.349 . S
C3043 C3041 1.327 . S
C3043 C3059 1.429 . S
C3043 H3065 0.950 . S
C3044 H3040 0.949 . S
C3044 C3052 1.574 . S
C3044 C3060 1.368 . S
H3045 C3053 0.950 . S
H3046 C3051 0.950 . S
H3047 C3052 0.949 . S
H3048 C3054 0.950 . S
H3049 C3055 0.950 . S
H3050 C3056 0.949 . S
C3051 H3046 0.950 . S
C3051 C3053 1.327 . S
C3051 C3057 1.429 . S
C3052 C3044 1.574 . S
C3052 H3047 0.949 . S
C3052 C3058 1.368 . S
C3053 C3037 1.349 . S
C3053 H3045 0.950 . S
C3053 C3051 1.327 . S
C3054 C3042 1.349 . S
C3054 H3048 0.950 . S
C3054 C3055 1.327 . S
C3055 H3049 0.950 . S
C3055 C3054 1.327 . S
C3055 C3059 1.429 . S
C3056 C3039 1.574 . S
C3056 H3050 0.949 . S
C3056 C3060 1.368 . S
C3057 C3038 1.429 . S
C3057 C3051 1.429 . S
C3057 C3058 1.523 . S
C3058 C3039 1.368 . S
C3058 C3052 1.368 . S
C3058 C3057 1.523 . S
C3059 C3043 1.429 . S
C3059 C3055 1.429 . S
C3059 C3060 1.523 . S
C3060 C3044 1.368 . S
C3060 C3056 1.368 . S
C3060 C3059 1.523 . S
H3061 C3036 0.950 . S
H3062 C3038 0.950 . S
H3063 C3039 0.949 . S
H3064 C3041 0.950 . S
H3065 C3043 0.950 . S
C3066 C3067 1.349 . S
C3066 C3068 1.327 . S
C3066 H3091 0.950 . S
C3067 C3066 1.349 . S
C3067 C3083 1.349 . S
C3068 C3066 1.327 . S
C3068 C3087 1.429 . S
C3068 H3092 0.950 . S
C3069 C3086 1.574 . S
C3069 C3088 1.368 . S
C3069 H3093 0.949 . S
H3070 C3074 0.949 . S
C3071 C3072 1.349 . S
C3071 C3073 1.327 . S
C3071 H3094 0.950 . S
C3072 C3071 1.349 . S
C3072 C3084 1.349 . S
C3073 C3071 1.327 . S
C3073 C3089 1.429 . S
C3073 H3095 0.950 . S
C3074 H3070 0.949 . S
C3074 C3082 1.574 . S
C3074 C3090 1.368 . S
H3075 C3083 0.950 . S
H3076 C3081 0.950 . S
H3077 C3082 0.949 . S
H3078 C3084 0.950 . S
H3079 C3085 0.950 . S
H3080 C3086 0.949 . S
C3081 H3076 0.950 . S
C3081 C3083 1.327 . S
C3081 C3087 1.429 . S
C3082 C3074 1.574 . S
C3082 H3077 0.949 . S
C3082 C3088 1.368 . S
C3083 C3067 1.349 . S
C3083 H3075 0.950 . S
C3083 C3081 1.327 . S
C3084 C3072 1.349 . S
C3084 H3078 0.950 . S
C3084 C3085 1.327 . S
C3085 H3079 0.950 . S
C3085 C3084 1.327 . S
C3085 C3089 1.429 . S
C3086 C3069 1.574 . S
C3086 H3080 0.949 . S
C3086 C3090 1.368 . S
C3087 C3068 1.429 . S
C3087 C3081 1.429 . S
C3087 C3088 1.523 . S
C3088 C3069 1.368 . S
C3088 C3082 1.368 . S
C3088 C3087 1.523 . S
C3089 C3073 1.429 . S
C3089 C3085 1.429 . S
C3089 C3090 1.523 . S
C3090 C3074 1.368 . S
C3090 C3086 1.368 . S
C3090 C3089 1.523 . S
H3091 C3066 0.950 . S
H3092 C3068 0.950 . S
H3093 C3069 0.949 . S
H3094 C3071 0.950 . S
H3095 C3073 0.950 . S
C3096 C3097 1.349 . S
C3096 C3098 1.327 . S
C3096 H3121 0.950 . S
C3097 C3096 1.349 . S
C3097 C3113 1.349 . S
C3098 C3096 1.327 . S
C3098 C3117 1.429 . S
C3098 H3122 0.950 . S
C3099 C3116 1.574 . S
C3099 C3118 1.368 . S
C3099 H3123 0.949 . S
H3100 C3104 0.949 . S
C3101 C3102 1.349 . S
C3101 C3103 1.327 . S
C3101 H3124 0.950 . S
C3102 C3101 1.349 . S
C3102 C3114 1.349 . S
C3103 C3101 1.327 . S
C3103 C3119 1.429 . S
C3103 H3125 0.950 . S
C3104 H3100 0.949 . S
C3104 C3112 1.574 . S
C3104 C3120 1.368 . S
H3105 C3113 0.950 . S
H3106 C3111 0.950 . S
H3107 C3112 0.949 . S
H3108 C3114 0.950 . S
H3109 C3115 0.950 . S
H3110 C3116 0.949 . S
C3111 H3106 0.950 . S
C3111 C3113 1.327 . S
C3111 C3117 1.429 . S
C3112 C3104 1.574 . S
C3112 H3107 0.949 . S
C3112 C3118 1.368 . S
C3113 C3097 1.349 . S
C3113 H3105 0.950 . S
C3113 C3111 1.327 . S
C3114 C3102 1.349 . S
C3114 H3108 0.950 . S
C3114 C3115 1.327 . S
C3115 H3109 0.950 . S
C3115 C3114 1.327 . S
C3115 C3119 1.429 . S
C3116 C3099 1.574 . S
C3116 H3110 0.949 . S
C3116 C3120 1.368 . S
C3117 C3098 1.429 . S
C3117 C3111 1.429 . S
C3117 C3118 1.523 . S
C3118 C3099 1.368 . S
C3118 C3112 1.368 . S
C3118 C3117 1.523 . S
C3119 C3103 1.429 . S
C3119 C3115 1.429 . S
C3119 C3120 1.523 . S
C3120 C3104 1.368 . S
C3120 C3116 1.368 . S
C3120 C3119 1.523 . S
H3121 C3096 0.950 . S
H3122 C3098 0.950 . S
H3123 C3099 0.949 . S
H3124 C3101 0.950 . S
H3125 C3103 0.950 . S
C3126 C3127 1.349 . S
C3126 C3128 1.327 . S
C3126 H3151 0.950 . S
C3127 C3126 1.349 . S
C3127 C3143 1.349 . S
C3128 C3126 1.327 . S
C3128 C3147 1.429 . S
C3128 H3152 0.950 . S
C3129 C3146 1.574 . S
C3129 C3148 1.368 . S
C3129 H3153 0.949 . S
H3130 C3134 0.949 . S
C3131 C3132 1.349 . S
C3131 C3133 1.327 . S
C3131 H3154 0.950 . S
C3132 C3131 1.349 . S
C3132 C3144 1.349 . S
C3133 C3131 1.327 . S
C3133 C3149 1.429 . S
C3133 H3155 0.950 . S
C3134 H3130 0.949 . S
C3134 C3142 1.574 . S
C3134 C3150 1.368 . S
H3135 C3143 0.950 . S
H3136 C3141 0.950 . S
H3137 C3142 0.949 . S
H3138 C3144 0.950 . S
H3139 C3145 0.950 . S
H3140 C3146 0.949 . S
C3141 H3136 0.950 . S
C3141 C3143 1.327 . S
C3141 C3147 1.429 . S
C3142 C3134 1.574 . S
C3142 H3137 0.949 . S
C3142 C3148 1.368 . S
C3143 C3127 1.349 . S
C3143 H3135 0.950 . S
C3143 C3141 1.327 . S
C3144 C3132 1.349 . S
C3144 H3138 0.950 . S
C3144 C3145 1.327 . S
C3145 H3139 0.950 . S
C3145 C3144 1.327 . S
C3145 C3149 1.429 . S
C3146 C3129 1.574 . S
C3146 H3140 0.949 . S
C3146 C3150 1.368 . S
C3147 C3128 1.429 . S
C3147 C3141 1.429 . S
C3147 C3148 1.523 . S
C3148 C3129 1.368 . S
C3148 C3142 1.368 . S
C3148 C3147 1.523 . S
C3149 C3133 1.429 . S
C3149 C3145 1.429 . S
C3149 C3150 1.523 . S
C3150 C3134 1.368 . S
C3150 C3146 1.368 . S
C3150 C3149 1.523 . S
H3151 C3126 0.950 . S
H3152 C3128 0.950 . S
H3153 C3129 0.949 . S
H3154 C3131 0.950 . S
H3155 C3133 0.950 . S
C3156 C3157 1.349 . S
C3156 C3158 1.327 . S
C3156 H3181 0.950 . S
C3157 C3156 1.349 . S
C3157 C3173 1.349 . S
C3158 C3156 1.327 . S
C3158 C3177 1.429 . S
C3158 H3182 0.950 . S
C3159 C3176 1.574 . S
C3159 C3178 1.368 . S
C3159 H3183 0.949 . S
H3160 C3164 0.949 . S
C3161 C3162 1.349 . S
C3161 C3163 1.327 . S
C3161 H3184 0.950 . S
C3162 C3161 1.349 . S
C3162 C3174 1.349 . S
C3163 C3161 1.327 . S
C3163 C3179 1.429 . S
C3163 H3185 0.950 . S
C3164 H3160 0.949 . S
C3164 C3172 1.574 . S
C3164 C3180 1.368 . S
H3165 C3173 0.950 . S
H3166 C3171 0.950 . S
H3167 C3172 0.949 . S
H3168 C3174 0.950 . S
H3169 C3175 0.950 . S
H3170 C3176 0.949 . S
C3171 H3166 0.950 . S
C3171 C3173 1.327 . S
C3171 C3177 1.429 . S
C3172 C3164 1.574 . S
C3172 H3167 0.949 . S
C3172 C3178 1.368 . S
C3173 C3157 1.349 . S
C3173 H3165 0.950 . S
C3173 C3171 1.327 . S
C3174 C3162 1.349 . S
C3174 H3168 0.950 . S
C3174 C3175 1.327 . S
C3175 H3169 0.950 . S
C3175 C3174 1.327 . S
C3175 C3179 1.429 . S
C3176 C3159 1.574 . S
C3176 H3170 0.949 . S
C3176 C3180 1.368 . S
C3177 C3158 1.429 . S
C3177 C3171 1.429 . S
C3177 C3178 1.523 . S
C3178 C3159 1.368 . S
C3178 C3172 1.368 . S
C3178 C3177 1.523 . S
C3179 C3163 1.429 . S
C3179 C3175 1.429 . S
C3179 C3180 1.523 . S
C3180 C3164 1.368 . S
C3180 C3176 1.368 . S
C3180 C3179 1.523 . S
H3181 C3156 0.950 . S
H3182 C3158 0.950 . S
H3183 C3159 0.949 . S
H3184 C3161 0.950 . S
H3185 C3163 0.950 . S
C3186 C3187 1.349 . S
C3186 C3188 1.327 . S
C3186 H3211 0.950 . S
C3187 C3186 1.349 . S
C3187 C3203 1.349 . S
C3188 C3186 1.327 . S
C3188 C3207 1.429 . S
C3188 H3212 0.950 . S
C3189 C3206 1.574 . S
C3189 C3208 1.368 . S
C3189 H3213 0.949 . S
H3190 C3194 0.949 . S
C3191 C3192 1.349 . S
C3191 C3193 1.327 . S
C3191 H3214 0.950 . S
C3192 C3191 1.349 . S
C3192 C3204 1.349 . S
C3193 C3191 1.327 . S
C3193 C3209 1.429 . S
C3193 H3215 0.950 . S
C3194 H3190 0.949 . S
C3194 C3202 1.574 . S
C3194 C3210 1.368 . S
H3195 C3203 0.950 . S
H3196 C3201 0.950 . S
H3197 C3202 0.949 . S
H3198 C3204 0.950 . S
H3199 C3205 0.950 . S
H3200 C3206 0.949 . S
C3201 H3196 0.950 . S
C3201 C3203 1.327 . S
C3201 C3207 1.429 . S
C3202 C3194 1.574 . S
C3202 H3197 0.949 . S
C3202 C3208 1.368 . S
C3203 C3187 1.349 . S
C3203 H3195 0.950 . S
C3203 C3201 1.327 . S
C3204 C3192 1.349 . S
C3204 H3198 0.950 . S
C3204 C3205 1.327 . S
C3205 H3199 0.950 . S
C3205 C3204 1.327 . S
C3205 C3209 1.429 . S
C3206 C3189 1.574 . S
C3206 H3200 0.949 . S
C3206 C3210 1.368 . S
C3207 C3188 1.429 . S
C3207 C3201 1.429 . S
C3207 C3208 1.523 . S
C3208 C3189 1.368 . S
C3208 C3202 1.368 . S
C3208 C3207 1.523 . S
C3209 C3193 1.429 . S
C3209 C3205 1.429 . S
C3209 C3210 1.523 . S
C3210 C3194 1.368 . S
C3210 C3206 1.368 . S
C3210 C3209 1.523 . S
H3211 C3186 0.950 . S
H3212 C3188 0.950 . S
H3213 C3189 0.949 . S
H3214 C3191 0.950 . S
H3215 C3193 0.950 . S
C3216 C3217 1.349 . S
C3216 C3218 1.327 . S
C3216 H3241 0.950 . S
C3217 C3216 1.349 . S
C3217 C3233 1.349 . S
C3218 C3216 1.327 . S
C3218 C3237 1.429 . S
C3218 H3242 0.950 . S
C3219 C3236 1.574 . S
C3219 C3238 1.368 . S
C3219 H3243 0.949 . S
H3220 C3224 0.949 . S
C3221 C3222 1.349 . S
C3221 C3223 1.327 . S
C3221 H3244 0.950 . S
C3222 C3221 1.349 . S
C3222 C3234 1.349 . S
C3223 C3221 1.327 . S
C3223 C3239 1.429 . S
C3223 H3245 0.950 . S
C3224 H3220 0.949 . S
C3224 C3232 1.574 . S
C3224 C3240 1.368 . S
H3225 C3233 0.950 . S
H3226 C3231 0.950 . S
H3227 C3232 0.949 . S
H3228 C3234 0.950 . S
H3229 C3235 0.950 . S
H3230 C3236 0.949 . S
C3231 H3226 0.950 . S
C3231 C3233 1.327 . S
C3231 C3237 1.429 . S
C3232 C3224 1.574 . S
C3232 H3227 0.949 . S
C3232 C3238 1.368 . S
C3233 C3217 1.349 . S
C3233 H3225 0.950 . S
C3233 C3231 1.327 . S
C3234 C3222 1.349 . S
C3234 H3228 0.950 . S
C3234 C3235 1.327 . S
C3235 H3229 0.950 . S
C3235 C3234 1.327 . S
C3235 C3239 1.429 . S
C3236 C3219 1.574 . S
C3236 H3230 0.949 . S
C3236 C3240 1.368 . S
C3237 C3218 1.429 . S
C3237 C3231 1.429 . S
C3237 C3238 1.523 . S
C3238 C3219 1.368 . S
C3238 C3232 1.368 . S
C3238 C3237 1.523 . S
C3239 C3223 1.429 . S
C3239 C3235 1.429 . S
C3239 C3240 1.523 . S
C3240 C3224 1.368 . S
C3240 C3236 1.368 . S
C3240 C3239 1.523 . S
H3241 C3216 0.950 . S
H3242 C3218 0.950 . S
H3243 C3219 0.949 . S
H3244 C3221 0.950 . S
H3245 C3223 0.950 . S
C3246 C3247 1.349 . S
C3246 C3248 1.327 . S
C3246 H3271 0.950 . S
C3247 C3246 1.349 . S
C3247 C3263 1.349 . S
C3248 C3246 1.327 . S
C3248 C3267 1.429 . S
C3248 H3272 0.950 . S
C3249 C3266 1.574 . S
C3249 C3268 1.368 . S
C3249 H3273 0.949 . S
H3250 C3254 0.949 . S
C3251 C3252 1.349 . S
C3251 C3253 1.327 . S
C3251 H3274 0.950 . S
C3252 C3251 1.349 . S
C3252 C3264 1.349 . S
C3253 C3251 1.327 . S
C3253 C3269 1.429 . S
C3253 H3275 0.950 . S
C3254 H3250 0.949 . S
C3254 C3262 1.574 . S
C3254 C3270 1.368 . S
H3255 C3263 0.950 . S
H3256 C3261 0.950 . S
H3257 C3262 0.949 . S
H3258 C3264 0.950 . S
H3259 C3265 0.950 . S
H3260 C3266 0.949 . S
C3261 H3256 0.950 . S
C3261 C3263 1.327 . S
C3261 C3267 1.429 . S
C3262 C3254 1.574 . S
C3262 H3257 0.949 . S
C3262 C3268 1.368 . S
C3263 C3247 1.349 . S
C3263 H3255 0.950 . S
C3263 C3261 1.327 . S
C3264 C3252 1.349 . S
C3264 H3258 0.950 . S
C3264 C3265 1.327 . S
C3265 H3259 0.950 . S
C3265 C3264 1.327 . S
C3265 C3269 1.429 . S
C3266 C3249 1.574 . S
C3266 H3260 0.949 . S
C3266 C3270 1.368 . S
C3267 C3248 1.429 . S
C3267 C3261 1.429 . S
C3267 C3268 1.523 . S
C3268 C3249 1.368 . S
C3268 C3262 1.368 . S
C3268 C3267 1.523 . S
C3269 C3253 1.429 . S
C3269 C3265 1.429 . S
C3269 C3270 1.523 . S
C3270 C3254 1.368 . S
C3270 C3266 1.368 . S
C3270 C3269 1.523 . S
H3271 C3246 0.950 . S
H3272 C3248 0.950 . S
H3273 C3249 0.949 . S
H3274 C3251 0.950 . S
H3275 C3253 0.950 . S
C3276 C3277 1.349 . S
C3276 C3278 1.327 . S
C3276 H3301 0.950 . S
C3277 C3276 1.349 . S
C3277 C3293 1.349 . S
C3278 C3276 1.327 . S
C3278 C3297 1.429 . S
C3278 H3302 0.950 . S
C3279 C3296 1.574 . S
C3279 C3298 1.368 . S
C3279 H3303 0.949 . S
H3280 C3284 0.949 . S
C3281 C3282 1.349 . S
C3281 C3283 1.327 . S
C3281 H3304 0.950 . S
C3282 C3281 1.349 . S
C3282 C3294 1.349 . S
C3283 C3281 1.327 . S
C3283 C3299 1.429 . S
C3283 H3305 0.950 . S
C3284 H3280 0.949 . S
C3284 C3292 1.574 . S
C3284 C3300 1.368 . S
H3285 C3293 0.950 . S
H3286 C3291 0.950 . S
H3287 C3292 0.949 . S
H3288 C3294 0.950 . S
H3289 C3295 0.950 . S
H3290 C3296 0.949 . S
C3291 H3286 0.950 . S
C3291 C3293 1.327 . S
C3291 C3297 1.429 . S
C3292 C3284 1.574 . S
C3292 H3287 0.949 . S
C3292 C3298 1.368 . S
C3293 C3277 1.349 . S
C3293 H3285 0.950 . S
C3293 C3291 1.327 . S
C3294 C3282 1.349 . S
C3294 H3288 0.950 . S
C3294 C3295 1.327 . S
C3295 H3289 0.950 . S
C3295 C3294 1.327 . S
C3295 C3299 1.429 . S
C3296 C3279 1.574 . S
C3296 H3290 0.949 . S
C3296 C3300 1.368 . S
C3297 C3278 1.429 . S
C3297 C3291 1.429 . S
C3297 C3298 1.523 . S
C3298 C3279 1.368 . S
C3298 C3292 1.368 . S
C3298 C3297 1.523 . S
C3299 C3283 1.429 . S
C3299 C3295 1.429 . S
C3299 C3300 1.523 . S
C3300 C3284 1.368 . S
C3300 C3296 1.368 . S
C3300 C3299 1.523 . S
H3301 C3276 0.950 . S
H3302 C3278 0.950 . S
H3303 C3279 0.949 . S
H3304 C3281 0.950 . S
H3305 C3283 0.950 . S
C3306 C3307 1.349 . S
C3306 C3308 1.327 . S
C3306 H3331 0.950 . S
C3307 C3306 1.349 . S
C3307 C3323 1.349 . S
C3308 C3306 1.327 . S
C3308 C3327 1.429 . S
C3308 H3332 0.950 . S
C3309 C3326 1.574 . S
C3309 C3328 1.368 . S
C3309 H3333 0.949 . S
H3310 C3314 0.949 . S
C3311 C3312 1.349 . S
C3311 C3313 1.327 . S
C3311 H3334 0.950 . S
C3312 C3311 1.349 . S
C3312 C3324 1.349 . S
C3313 C3311 1.327 . S
C3313 C3329 1.429 . S
C3313 H3335 0.950 . S
C3314 H3310 0.949 . S
C3314 C3322 1.574 . S
C3314 C3330 1.368 . S
H3315 C3323 0.950 . S
H3316 C3321 0.950 . S
H3317 C3322 0.949 . S
H3318 C3324 0.950 . S
H3319 C3325 0.950 . S
H3320 C3326 0.949 . S
C3321 H3316 0.950 . S
C3321 C3323 1.327 . S
C3321 C3327 1.429 . S
C3322 C3314 1.574 . S
C3322 H3317 0.949 . S
C3322 C3328 1.368 . S
C3323 C3307 1.349 . S
C3323 H3315 0.950 . S
C3323 C3321 1.327 . S
C3324 C3312 1.349 . S
C3324 H3318 0.950 . S
C3324 C3325 1.327 . S
C3325 H3319 0.950 . S
C3325 C3324 1.327 . S
C3325 C3329 1.429 . S
C3326 C3309 1.574 . S
C3326 H3320 0.949 . S
C3326 C3330 1.368 . S
C3327 C3308 1.429 . S
C3327 C3321 1.429 . S
C3327 C3328 1.523 . S
C3328 C3309 1.368 . S
C3328 C3322 1.368 . S
C3328 C3327 1.523 . S
C3329 C3313 1.429 . S
C3329 C3325 1.429 . S
C3329 C3330 1.523 . S
C3330 C3314 1.368 . S
C3330 C3326 1.368 . S
C3330 C3329 1.523 . S
H3331 C3306 0.950 . S
H3332 C3308 0.950 . S
H3333 C3309 0.949 . S
H3334 C3311 0.950 . S
H3335 C3313 0.950 . S
C3336 C3337 1.349 . S
C3336 C3338 1.327 . S
C3336 H3361 0.950 . S
C3337 C3336 1.349 . S
C3337 C3353 1.349 . S
C3338 C3336 1.327 . S
C3338 C3357 1.429 . S
C3338 H3362 0.950 . S
C3339 C3356 1.574 . S
C3339 C3358 1.368 . S
C3339 H3363 0.949 . S
H3340 C3344 0.949 . S
C3341 C3342 1.349 . S
C3341 C3343 1.327 . S
C3341 H3364 0.950 . S
C3342 C3341 1.349 . S
C3342 C3354 1.349 . S
C3343 C3341 1.327 . S
C3343 C3359 1.429 . S
C3343 H3365 0.950 . S
C3344 H3340 0.949 . S
C3344 C3352 1.574 . S
C3344 C3360 1.368 . S
H3345 C3353 0.950 . S
H3346 C3351 0.950 . S
H3347 C3352 0.949 . S
H3348 C3354 0.950 . S
H3349 C3355 0.950 . S
H3350 C3356 0.949 . S
C3351 H3346 0.950 . S
C3351 C3353 1.327 . S
C3351 C3357 1.429 . S
C3352 C3344 1.574 . S
C3352 H3347 0.949 . S
C3352 C3358 1.368 . S
C3353 C3337 1.349 . S
C3353 H3345 0.950 . S
C3353 C3351 1.327 . S
C3354 C3342 1.349 . S
C3354 H3348 0.950 . S
C3354 C3355 1.327 . S
C3355 H3349 0.950 . S
C3355 C3354 1.327 . S
C3355 C3359 1.429 . S
C3356 C3339 1.574 . S
C3356 H3350 0.949 . S
C3356 C3360 1.368 . S
C3357 C3338 1.429 . S
C3357 C3351 1.429 . S
C3357 C3358 1.523 . S
C3358 C3339 1.368 . S
C3358 C3352 1.368 . S
C3358 C3357 1.523 . S
C3359 C3343 1.429 . S
C3359 C3355 1.429 . S
C3359 C3360 1.523 . S
C3360 C3344 1.368 . S
C3360 C3356 1.368 . S
C3360 C3359 1.523 . S
H3361 C3336 0.950 . S
H3362 C3338 0.950 . S
H3363 C3339 0.949 . S
H3364 C3341 0.950 . S
H3365 C3343 0.950 . S
C3366 C3367 1.349 . S
C3366 C3368 1.327 . S
C3366 H3391 0.950 . S
C3367 C3366 1.349 . S
C3367 C3383 1.349 . S
C3368 C3366 1.327 . S
C3368 C3387 1.429 . S
C3368 H3392 0.950 . S
C3369 C3386 1.574 . S
C3369 C3388 1.368 . S
C3369 H3393 0.949 . S
H3370 C3374 0.949 . S
C3371 C3372 1.349 . S
C3371 C3373 1.327 . S
C3371 H3394 0.950 . S
C3372 C3371 1.349 . S
C3372 C3384 1.349 . S
C3373 C3371 1.327 . S
C3373 C3389 1.429 . S
C3373 H3395 0.950 . S
C3374 H3370 0.949 . S
C3374 C3382 1.574 . S
C3374 C3390 1.368 . S
H3375 C3383 0.950 . S
H3376 C3381 0.950 . S
H3377 C3382 0.949 . S
H3378 C3384 0.950 . S
H3379 C3385 0.950 . S
H3380 C3386 0.949 . S
C3381 H3376 0.950 . S
C3381 C3383 1.327 . S
C3381 C3387 1.429 . S
C3382 C3374 1.574 . S
C3382 H3377 0.949 . S
C3382 C3388 1.368 . S
C3383 C3367 1.349 . S
C3383 H3375 0.950 . S
C3383 C3381 1.327 . S
C3384 C3372 1.349 . S
C3384 H3378 0.950 . S
C3384 C3385 1.327 . S
C3385 H3379 0.950 . S
C3385 C3384 1.327 . S
C3385 C3389 1.429 . S
C3386 C3369 1.574 . S
C3386 H3380 0.949 . S
C3386 C3390 1.368 . S
C3387 C3368 1.429 . S
C3387 C3381 1.429 . S
C3387 C3388 1.523 . S
C3388 C3369 1.368 . S
C3388 C3382 1.368 . S
C3388 C3387 1.523 . S
C3389 C3373 1.429 . S
C3389 C3385 1.429 . S
C3389 C3390 1.523 . S
C3390 C3374 1.368 . S
C3390 C3386 1.368 . S
C3390 C3389 1.523 . S
H3391 C3366 0.950 . S
H3392 C3368 0.950 . S
H3393 C3369 0.949 . S
H3394 C3371 0.950 . S
H3395 C3373 0.950 . S
C3396 C3397 1.349 . S
C3396 C3398 1.327 . S
C3396 H3421 0.950 . S
C3397 C3396 1.349 . S
C3397 C3413 1.349 . S
C3398 C3396 1.327 . S
C3398 C3417 1.429 . S
C3398 H3422 0.950 . S
C3399 C3416 1.574 . S
C3399 C3418 1.368 . S
C3399 H3423 0.949 . S
H3400 C3404 0.949 . S
C3401 C3402 1.349 . S
C3401 C3403 1.327 . S
C3401 H3424 0.950 . S
C3402 C3401 1.349 . S
C3402 C3414 1.349 . S
C3403 C3401 1.327 . S
C3403 C3419 1.429 . S
C3403 H3425 0.950 . S
C3404 H3400 0.949 . S
C3404 C3412 1.574 . S
C3404 C3420 1.368 . S
H3405 C3413 0.950 . S
H3406 C3411 0.950 . S
H3407 C3412 0.949 . S
H3408 C3414 0.950 . S
H3409 C3415 0.950 . S
H3410 C3416 0.949 . S
C3411 H3406 0.950 . S
C3411 C3413 1.327 . S
C3411 C3417 1.429 . S
C3412 C3404 1.574 . S
C3412 H3407 0.949 . S
C3412 C3418 1.368 . S
C3413 C3397 1.349 . S
C3413 H3405 0.950 . S
C3413 C3411 1.327 . S
C3414 C3402 1.349 . S
C3414 H3408 0.950 . S
C3414 C3415 1.327 . S
C3415 H3409 0.950 . S
C3415 C3414 1.327 . S
C3415 C3419 1.429 . S
C3416 C3399 1.574 . S
C3416 H3410 0.949 . S
C3416 C3420 1.368 . S
C3417 C3398 1.429 . S
C3417 C3411 1.429 . S
C3417 C3418 1.523 . S
C3418 C3399 1.368 . S
C3418 C3412 1.368 . S
C3418 C3417 1.523 . S
C3419 C3403 1.429 . S
C3419 C3415 1.429 . S
C3419 C3420 1.523 . S
C3420 C3404 1.368 . S
C3420 C3416 1.368 . S
C3420 C3419 1.523 . S
H3421 C3396 0.950 . S
H3422 C3398 0.950 . S
H3423 C3399 0.949 . S
H3424 C3401 0.950 . S
H3425 C3403 0.950 . S
C3426 C3427 1.349 . S
C3426 C3428 1.327 . S
C3426 H3451 0.950 . S
C3427 C3426 1.349 . S
C3427 C3443 1.349 . S
C3428 C3426 1.327 . S
C3428 C3447 1.429 . S
C3428 H3452 0.950 . S
C3429 C3446 1.574 . S
C3429 C3448 1.368 . S
C3429 H3453 0.949 . S
H3430 C3434 0.949 . S
C3431 C3432 1.349 . S
C3431 C3433 1.327 . S
C3431 H3454 0.950 . S
C3432 C3431 1.349 . S
C3432 C3444 1.349 . S
C3433 C3431 1.327 . S
C3433 C3449 1.429 . S
C3433 H3455 0.950 . S
C3434 H3430 0.949 . S
C3434 C3442 1.574 . S
C3434 C3450 1.368 . S
H3435 C3443 0.950 . S
H3436 C3441 0.950 . S
H3437 C3442 0.949 . S
H3438 C3444 0.950 . S
H3439 C3445 0.950 . S
H3440 C3446 0.949 . S
C3441 H3436 0.950 . S
C3441 C3443 1.327 . S
C3441 C3447 1.429 . S
C3442 C3434 1.574 . S
C3442 H3437 0.949 . S
C3442 C3448 1.368 . S
C3443 C3427 1.349 . S
C3443 H3435 0.950 . S
C3443 C3441 1.327 . S
C3444 C3432 1.349 . S
C3444 H3438 0.950 . S
C3444 C3445 1.327 . S
C3445 H3439 0.950 . S
C3445 C3444 1.327 . S
C3445 C3449 1.429 . S
C3446 C3429 1.574 . S
C3446 H3440 0.949 . S
C3446 C3450 1.368 . S
C3447 C3428 1.429 . S
C3447 C3441 1.429 . S
C3447 C3448 1.523 . S
C3448 C3429 1.368 . S
C3448 C3442 1.368 . S
C3448 C3447 1.523 . S
C3449 C3433 1.429 . S
C3449 C3445 1.429 . S
C3449 C3450 1.523 . S
C3450 C3434 1.368 . S
C3450 C3446 1.368 . S
C3450 C3449 1.523 . S
H3451 C3426 0.950 . S
H3452 C3428 0.950 . S
H3453 C3429 0.949 . S
H3454 C3431 0.950 . S
H3455 C3433 0.950 . S
C3456 C3457 1.349 . S
C3456 C3458 1.327 . S
C3456 H3481 0.950 . S
C3457 C3456 1.349 . S
C3457 C3473 1.349 . S
C3458 C3456 1.327 . S
C3458 C3477 1.429 . S
C3458 H3482 0.950 . S
C3459 C3476 1.574 . S
C3459 C3478 1.368 . S
C3459 H3483 0.949 . S
H3460 C3464 0.949 . S
C3461 C3462 1.349 . S
C3461 C3463 1.327 . S
C3461 H3484 0.950 . S
C3462 C3461 1.349 . S
C3462 C3474 1.349 . S
C3463 C3461 1.327 . S
C3463 C3479 1.429 . S
C3463 H3485 0.950 . S
C3464 H3460 0.949 . S
C3464 C3472 1.574 . S
C3464 C3480 1.368 . S
H3465 C3473 0.950 . S
H3466 C3471 0.950 . S
H3467 C3472 0.949 . S
H3468 C3474 0.950 . S
H3469 C3475 0.950 . S
H3470 C3476 0.949 . S
C3471 H3466 0.950 . S
C3471 C3473 1.327 . S
C3471 C3477 1.429 . S
C3472 C3464 1.574 . S
C3472 H3467 0.949 . S
C3472 C3478 1.368 . S
C3473 C3457 1.349 . S
C3473 H3465 0.950 . S
C3473 C3471 1.327 . S
C3474 C3462 1.349 . S
C3474 H3468 0.950 . S
C3474 C3475 1.327 . S
C3475 H3469 0.950 . S
C3475 C3474 1.327 . S
C3475 C3479 1.429 . S
C3476 C3459 1.574 . S
C3476 H3470 0.949 . S
C3476 C3480 1.368 . S
C3477 C3458 1.429 . S
C3477 C3471 1.429 . S
C3477 C3478 1.523 . S
C3478 C3459 1.368 . S
C3478 C3472 1.368 . S
C3478 C3477 1.523 . S
C3479 C3463 1.429 . S
C3479 C3475 1.429 . S
C3479 C3480 1.523 . S
C3480 C3464 1.368 . S
C3480 C3476 1.368 . S
C3480 C3479 1.523 . S
H3481 C3456 0.950 . S
H3482 C3458 0.950 . S
H3483 C3459 0.949 . S
H3484 C3461 0.950 . S
H3485 C3463 0.950 . S
C3486 C3487 1.349 . S
C3486 C3488 1.327 . S
C3486 H3511 0.950 . S
C3487 C3486 1.349 . S
C3487 C3503 1.349 . S
C3488 C3486 1.327 . S
C3488 C3507 1.429 . S
C3488 H3512 0.950 . S
C3489 C3506 1.574 . S
C3489 C3508 1.368 . S
C3489 H3513 0.949 . S
H3490 C3494 0.949 . S
C3491 C3492 1.349 . S
C3491 C3493 1.327 . S
C3491 H3514 0.950 . S
C3492 C3491 1.349 . S
C3492 C3504 1.349 . S
C3493 C3491 1.327 . S
C3493 C3509 1.429 . S
C3493 H3515 0.950 . S
C3494 H3490 0.949 . S
C3494 C3502 1.574 . S
C3494 C3510 1.368 . S
H3495 C3503 0.950 . S
H3496 C3501 0.950 . S
H3497 C3502 0.949 . S
H3498 C3504 0.950 . S
H3499 C3505 0.950 . S
H3500 C3506 0.949 . S
C3501 H3496 0.950 . S
C3501 C3503 1.327 . S
C3501 C3507 1.429 . S
C3502 C3494 1.574 . S
C3502 H3497 0.949 . S
C3502 C3508 1.368 . S
C3503 C3487 1.349 . S
C3503 H3495 0.950 . S
C3503 C3501 1.327 . S
C3504 C3492 1.349 . S
C3504 H3498 0.950 . S
C3504 C3505 1.327 . S
C3505 H3499 0.950 . S
C3505 C3504 1.327 . S
C3505 C3509 1.429 . S
C3506 C3489 1.574 . S
C3506 H3500 0.949 . S
C3506 C3510 1.368 . S
C3507 C3488 1.429 . S
C3507 C3501 1.429 . S
C3507 C3508 1.523 . S
C3508 C3489 1.368 . S
C3508 C3502 1.368 . S
C3508 C3507 1.523 . S
C3509 C3493 1.429 . S
C3509 C3505 1.429 . S
C3509 C3510 1.523 . S
C3510 C3494 1.368 . S
C3510 C3506 1.368 . S
C3510 C3509 1.523 . S
H3511 C3486 0.950 . S
H3512 C3488 0.950 . S
H3513 C3489 0.949 . S
H3514 C3491 0.950 . S
H3515 C3493 0.950 . S
C3516 C3517 1.349 . S
C3516 C3518 1.327 . S
C3516 H3541 0.950 . S
C3517 C3516 1.349 . S
C3517 C3533 1.349 . S
C3518 C3516 1.327 . S
C3518 C3537 1.429 . S
C3518 H3542 0.950 . S
C3519 C3536 1.574 . S
C3519 C3538 1.368 . S
C3519 H3543 0.949 . S
H3520 C3524 0.949 . S
C3521 C3522 1.349 . S
C3521 C3523 1.327 . S
C3521 H3544 0.950 . S
C3522 C3521 1.349 . S
C3522 C3534 1.349 . S
C3523 C3521 1.327 . S
C3523 C3539 1.429 . S
C3523 H3545 0.950 . S
C3524 H3520 0.949 . S
C3524 C3532 1.574 . S
C3524 C3540 1.368 . S
H3525 C3533 0.950 . S
H3526 C3531 0.950 . S
H3527 C3532 0.949 . S
H3528 C3534 0.950 . S
H3529 C3535 0.950 . S
H3530 C3536 0.949 . S
C3531 H3526 0.950 . S
C3531 C3533 1.327 . S
C3531 C3537 1.429 . S
C3532 C3524 1.574 . S
C3532 H3527 0.949 . S
C3532 C3538 1.368 . S
C3533 C3517 1.349 . S
C3533 H3525 0.950 . S
C3533 C3531 1.327 . S
C3534 C3522 1.349 . S
C3534 H3528 0.950 . S
C3534 C3535 1.327 . S
C3535 H3529 0.950 . S
C3535 C3534 1.327 . S
C3535 C3539 1.429 . S
C3536 C3519 1.574 . S
C3536 H3530 0.949 . S
C3536 C3540 1.368 . S
C3537 C3518 1.429 . S
C3537 C3531 1.429 . S
C3537 C3538 1.523 . S
C3538 C3519 1.368 . S
C3538 C3532 1.368 . S
C3538 C3537 1.523 . S
C3539 C3523 1.429 . S
C3539 C3535 1.429 . S
C3539 C3540 1.523 . S
C3540 C3524 1.368 . S
C3540 C3536 1.368 . S
C3540 C3539 1.523 . S
H3541 C3516 0.950 . S
H3542 C3518 0.950 . S
H3543 C3519 0.949 . S
H3544 C3521 0.950 . S
H3545 C3523 0.950 . S
C3546 C3547 1.349 . S
C3546 C3548 1.327 . S
C3546 H3571 0.950 . S
C3547 C3546 1.349 . S
C3547 C3563 1.349 . S
C3548 C3546 1.327 . S
C3548 C3567 1.429 . S
C3548 H3572 0.950 . S
C3549 C3566 1.574 . S
C3549 C3568 1.368 . S
C3549 H3573 0.949 . S
H3550 C3554 0.949 . S
C3551 C3552 1.349 . S
C3551 C3553 1.327 . S
C3551 H3574 0.950 . S
C3552 C3551 1.349 . S
C3552 C3564 1.349 . S
C3553 C3551 1.327 . S
C3553 C3569 1.429 . S
C3553 H3575 0.950 . S
C3554 H3550 0.949 . S
C3554 C3562 1.574 . S
C3554 C3570 1.368 . S
H3555 C3563 0.950 . S
H3556 C3561 0.950 . S
H3557 C3562 0.949 . S
H3558 C3564 0.950 . S
H3559 C3565 0.950 . S
H3560 C3566 0.949 . S
C3561 H3556 0.950 . S
C3561 C3563 1.327 . S
C3561 C3567 1.429 . S
C3562 C3554 1.574 . S
C3562 H3557 0.949 . S
C3562 C3568 1.368 . S
C3563 C3547 1.349 . S
C3563 H3555 0.950 . S
C3563 C3561 1.327 . S
C3564 C3552 1.349 . S
C3564 H3558 0.950 . S
C3564 C3565 1.327 . S
C3565 H3559 0.950 . S
C3565 C3564 1.327 . S
C3565 C3569 1.429 . S
C3566 C3549 1.574 . S
C3566 H3560 0.949 . S
C3566 C3570 1.368 . S
C3567 C3548 1.429 . S
C3567 C3561 1.429 . S
C3567 C3568 1.523 . S
C3568 C3549 1.368 . S
C3568 C3562 1.368 . S
C3568 C3567 1.523 . S
C3569 C3553 1.429 . S
C3569 C3565 1.429 . S
C3569 C3570 1.523 . S
C3570 C3554 1.368 . S
C3570 C3566 1.368 . S
C3570 C3569 1.523 . S
H3571 C3546 0.950 . S
H3572 C3548 0.950 . S
H3573 C3549 0.949 . S
H3574 C3551 0.950 . S
H3575 C3553 0.950 . S
C3576 C3577 1.349 . S
C3576 C3578 1.327 . S
C3576 H3601 0.950 . S
C3577 C3576 1.349 . S
C3577 C3593 1.349 . S
C3578 C3576 1.327 . S
C3578 C3597 1.429 . S
C3578 H3602 0.950 . S
C3579 C3596 1.574 . S
C3579 C3598 1.368 . S
C3579 H3603 0.949 . S
H3580 C3584 0.949 . S
C3581 C3582 1.349 . S
C3581 C3583 1.327 . S
C3581 H3604 0.950 . S
C3582 C3581 1.349 . S
C3582 C3594 1.349 . S
C3583 C3581 1.327 . S
C3583 C3599 1.429 . S
C3583 H3605 0.950 . S
C3584 H3580 0.949 . S
C3584 C3592 1.574 . S
C3584 C3600 1.368 . S
H3585 C3593 0.950 . S
H3586 C3591 0.950 . S
H3587 C3592 0.949 . S
H3588 C3594 0.950 . S
H3589 C3595 0.950 . S
H3590 C3596 0.949 . S
C3591 H3586 0.950 . S
C3591 C3593 1.327 . S
C3591 C3597 1.429 . S
C3592 C3584 1.574 . S
C3592 H3587 0.949 . S
C3592 C3598 1.368 . S
C3593 C3577 1.349 . S
C3593 H3585 0.950 . S
C3593 C3591 1.327 . S
C3594 C3582 1.349 . S
C3594 H3588 0.950 . S
C3594 C3595 1.327 . S
C3595 H3589 0.950 . S
C3595 C3594 1.327 . S
C3595 C3599 1.429 . S
C3596 C3579 1.574 . S
C3596 H3590 0.949 . S
C3596 C3600 1.368 . S
C3597 C3578 1.429 . S
C3597 C3591 1.429 . S
C3597 C3598 1.523 . S
C3598 C3579 1.368 . S
C3598 C3592 1.368 . S
C3598 C3597 1.523 . S
C3599 C3583 1.429 . S
C3599 C3595 1.429 . S
C3599 C3600 1.523 . S
C3600 C3584 1.368 . S
C3600 C3596 1.368 . S
C3600 C3599 1.523 . S
H3601 C3576 0.950 . S
H3602 C3578 0.950 . S
H3603 C3579 0.949 . S
H3604 C3581 0.950 . S
H3605 C3583 0.950 . S
C3606 C3607 1.349 . S
C3606 C3608 1.327 . S
C3606 H3631 0.950 . S
C3607 C3606 1.349 . S
C3607 C3623 1.349 . S
C3608 C3606 1.327 . S
C3608 C3627 1.429 . S
C3608 H3632 0.950 . S
C3609 C3626 1.574 . S
C3609 C3628 1.368 . S
C3609 H3633 0.949 . S
H3610 C3614 0.949 . S
C3611 C3612 1.349 . S
C3611 C3613 1.327 . S
C3611 H3634 0.950 . S
C3612 C3611 1.349 . S
C3612 C3624 1.349 . S
C3613 C3611 1.327 . S
C3613 C3629 1.429 . S
C3613 H3635 0.950 . S
C3614 H3610 0.949 . S
C3614 C3622 1.574 . S
C3614 C3630 1.368 . S
H3615 C3623 0.950 . S
H3616 C3621 0.950 . S
H3617 C3622 0.949 . S
H3618 C3624 0.950 . S
H3619 C3625 0.950 . S
H3620 C3626 0.949 . S
C3621 H3616 0.950 . S
C3621 C3623 1.327 . S
C3621 C3627 1.429 . S
C3622 C3614 1.574 . S
C3622 H3617 0.949 . S
C3622 C3628 1.368 . S
C3623 C3607 1.349 . S
C3623 H3615 0.950 . S
C3623 C3621 1.327 . S
C3624 C3612 1.349 . S
C3624 H3618 0.950 . S
C3624 C3625 1.327 . S
C3625 H3619 0.950 . S
C3625 C3624 1.327 . S
C3625 C3629 1.429 . S
C3626 C3609 1.574 . S
C3626 H3620 0.949 . S
C3626 C3630 1.368 . S
C3627 C3608 1.429 . S
C3627 C3621 1.429 . S
C3627 C3628 1.523 . S
C3628 C3609 1.368 . S
C3628 C3622 1.368 . S
C3628 C3627 1.523 . S
C3629 C3613 1.429 . S
C3629 C3625 1.429 . S
C3629 C3630 1.523 . S
C3630 C3614 1.368 . S
C3630 C3626 1.368 . S
C3630 C3629 1.523 . S
H3631 C3606 0.950 . S
H3632 C3608 0.950 . S
H3633 C3609 0.949 . S
H3634 C3611 0.950 . S
H3635 C3613 0.950 . S
C3636 C3637 1.349 . S
C3636 C3638 1.327 . S
C3636 H3661 0.950 . S
C3637 C3636 1.349 . S
C3637 C3653 1.349 . S
C3638 C3636 1.327 . S
C3638 C3657 1.429 . S
C3638 H3662 0.950 . S
C3639 C3656 1.574 . S
C3639 C3658 1.368 . S
C3639 H3663 0.949 . S
H3640 C3644 0.949 . S
C3641 C3642 1.349 . S
C3641 C3643 1.327 . S
C3641 H3664 0.950 . S
C3642 C3641 1.349 . S
C3642 C3654 1.349 . S
C3643 C3641 1.327 . S
C3643 C3659 1.429 . S
C3643 H3665 0.950 . S
C3644 H3640 0.949 . S
C3644 C3652 1.574 . S
C3644 C3660 1.368 . S
H3645 C3653 0.950 . S
H3646 C3651 0.950 . S
H3647 C3652 0.949 . S
H3648 C3654 0.950 . S
H3649 C3655 0.950 . S
H3650 C3656 0.949 . S
C3651 H3646 0.950 . S
C3651 C3653 1.327 . S
C3651 C3657 1.429 . S
C3652 C3644 1.574 . S
C3652 H3647 0.949 . S
C3652 C3658 1.368 . S
C3653 C3637 1.349 . S
C3653 H3645 0.950 . S
C3653 C3651 1.327 . S
C3654 C3642 1.349 . S
C3654 H3648 0.950 . S
C3654 C3655 1.327 . S
C3655 H3649 0.950 . S
C3655 C3654 1.327 . S
C3655 C3659 1.429 . S
C3656 C3639 1.574 . S
C3656 H3650 0.949 . S
C3656 C3660 1.368 . S
C3657 C3638 1.429 . S
C3657 C3651 1.429 . S
C3657 C3658 1.523 . S
C3658 C3639 1.368 . S
C3658 C3652 1.368 . S
C3658 C3657 1.523 . S
C3659 C3643 1.429 . S
C3659 C3655 1.429 . S
C3659 C3660 1.523 . S
C3660 C3644 1.368 . S
C3660 C3656 1.368 . S
C3660 C3659 1.523 . S
H3661 C3636 0.950 . S
H3662 C3638 0.950 . S
H3663 C3639 0.949 . S
H3664 C3641 0.950 . S
H3665 C3643 0.950 . S
C3666 C3667 1.349 . S
C3666 C3668 1.327 . S
C3666 H3691 0.950 . S
C3667 C3666 1.349 . S
C3667 C3683 1.349 . S
C3668 C3666 1.327 . S
C3668 C3687 1.429 . S
C3668 H3692 0.950 . S
C3669 C3686 1.574 . S
C3669 C3688 1.368 . S
C3669 H3693 0.949 . S
H3670 C3674 0.949 . S
C3671 C3672 1.349 . S
C3671 C3673 1.327 . S
C3671 H3694 0.950 . S
C3672 C3671 1.349 . S
C3672 C3684 1.349 . S
C3673 C3671 1.327 . S
C3673 C3689 1.429 . S
C3673 H3695 0.950 . S
C3674 H3670 0.949 . S
C3674 C3682 1.574 . S
C3674 C3690 1.368 . S
H3675 C3683 0.950 . S
H3676 C3681 0.950 . S
H3677 C3682 0.949 . S
H3678 C3684 0.950 . S
H3679 C3685 0.950 . S
H3680 C3686 0.949 . S
C3681 H3676 0.950 . S
C3681 C3683 1.327 . S
C3681 C3687 1.429 . S
C3682 C3674 1.574 . S
C3682 H3677 0.949 . S
C3682 C3688 1.368 . S
C3683 C3667 1.349 . S
C3683 H3675 0.950 . S
C3683 C3681 1.327 . S
C3684 C3672 1.349 . S
C3684 H3678 0.950 . S
C3684 C3685 1.327 . S
C3685 H3679 0.950 . S
C3685 C3684 1.327 . S
C3685 C3689 1.429 . S
C3686 C3669 1.574 . S
C3686 H3680 0.949 . S
C3686 C3690 1.368 . S
C3687 C3668 1.429 . S
C3687 C3681 1.429 . S
C3687 C3688 1.523 . S
C3688 C3669 1.368 . S
C3688 C3682 1.368 . S
C3688 C3687 1.523 . S
C3689 C3673 1.429 . S
C3689 C3685 1.429 . S
C3689 C3690 1.523 . S
C3690 C3674 1.368 . S
C3690 C3686 1.368 . S
C3690 C3689 1.523 . S
H3691 C3666 0.950 . S
H3692 C3668 0.950 . S
H3693 C3669 0.949 . S
H3694 C3671 0.950 . S
H3695 C3673 0.950 . S
C3696 C3697 1.349 . S
C3696 C3698 1.327 . S
C3696 H3721 0.950 . S
C3697 C3696 1.349 . S
C3697 C3713 1.349 . S
C3698 C3696 1.327 . S
C3698 C3717 1.429 . S
C3698 H3722 0.950 . S
C3699 C3716 1.574 . S
C3699 C3718 1.368 . S
C3699 H3723 0.949 . S
H3700 C3704 0.949 . S
C3701 C3702 1.349 . S
C3701 C3703 1.327 . S
C3701 H3724 0.950 . S
C3702 C3701 1.349 . S
C3702 C3714 1.349 . S
C3703 C3701 1.327 . S
C3703 C3719 1.429 . S
C3703 H3725 0.950 . S
C3704 H3700 0.949 . S
C3704 C3712 1.574 . S
C3704 C3720 1.368 . S
H3705 C3713 0.950 . S
H3706 C3711 0.950 . S
H3707 C3712 0.949 . S
H3708 C3714 0.950 . S
H3709 C3715 0.950 . S
H3710 C3716 0.949 . S
C3711 H3706 0.950 . S
C3711 C3713 1.327 . S
C3711 C3717 1.429 . S
C3712 C3704 1.574 . S
C3712 H3707 0.949 . S
C3712 C3718 1.368 . S
C3713 C3697 1.349 . S
C3713 H3705 0.950 . S
C3713 C3711 1.327 . S
C3714 C3702 1.349 . S
C3714 H3708 0.950 . S
C3714 C3715 1.327 . S
C3715 H3709 0.950 . S
C3715 C3714 1.327 . S
C3715 C3719 1.429 . S
C3716 C3699 1.574 . S
C3716 H3710 0.949 . S
C3716 C3720 1.368 . S
C3717 C3698 1.429 . S
C3717 C3711 1.429 . S
C3717 C3718 1.523 . S
C3718 C3699 1.368 . S
C3718 C3712 1.368 . S
C3718 C3717 1.523 . S
C3719 C3703 1.429 . S
C3719 C3715 1.429 . S
C3719 C3720 1.523 . S
C3720 C3704 1.368 . S
C3720 C3716 1.368 . S
C3720 C3719 1.523 . S
H3721 C3696 0.950 . S
H3722 C3698 0.950 . S
H3723 C3699 0.949 . S
H3724 C3701 0.950 . S
H3725 C3703 0.950 . S
C3726 C3727 1.349 . S
C3726 C3728 1.327 . S
C3726 H3751 0.950 . S
C3727 C3726 1.349 . S
C3727 C3743 1.349 . S
C3728 C3726 1.327 . S
C3728 C3747 1.429 . S
C3728 H3752 0.950 . S
C3729 C3746 1.574 . S
C3729 C3748 1.368 . S
C3729 H3753 0.949 . S
H3730 C3734 0.949 . S
C3731 C3732 1.349 . S
C3731 C3733 1.327 . S
C3731 H3754 0.950 . S
C3732 C3731 1.349 . S
C3732 C3744 1.349 . S
C3733 C3731 1.327 . S
C3733 C3749 1.429 . S
C3733 H3755 0.950 . S
C3734 H3730 0.949 . S
C3734 C3742 1.574 . S
C3734 C3750 1.368 . S
H3735 C3743 0.950 . S
H3736 C3741 0.950 . S
H3737 C3742 0.949 . S
H3738 C3744 0.950 . S
H3739 C3745 0.950 . S
H3740 C3746 0.949 . S
C3741 H3736 0.950 . S
C3741 C3743 1.327 . S
C3741 C3747 1.429 . S
C3742 C3734 1.574 . S
C3742 H3737 0.949 . S
C3742 C3748 1.368 . S
C3743 C3727 1.349 . S
C3743 H3735 0.950 . S
C3743 C3741 1.327 . S
C3744 C3732 1.349 . S
C3744 H3738 0.950 . S
C3744 C3745 1.327 . S
C3745 H3739 0.950 . S
C3745 C3744 1.327 . S
C3745 C3749 1.429 . S
C3746 C3729 1.574 . S
C3746 H3740 0.949 . S
C3746 C3750 1.368 . S
C3747 C3728 1.429 . S
C3747 C3741 1.429 . S
C3747 C3748 1.523 . S
C3748 C3729 1.368 . S
C3748 C3742 1.368 . S
C3748 C3747 1.523 . S
C3749 C3733 1.429 . S
C3749 C3745 1.429 . S
C3749 C3750 1.523 . S
C3750 C3734 1.368 . S
C3750 C3746 1.368 . S
C3750 C3749 1.523 . S
H3751 C3726 0.950 . S
H3752 C3728 0.950 . S
H3753 C3729 0.949 . S
H3754 C3731 0.950 . S
H3755 C3733 0.950 . S
C3756 C3757 1.349 . S
C3756 C3758 1.327 . S
C3756 H3781 0.950 . S
C3757 C3756 1.349 . S
C3757 C3773 1.349 . S
C3758 C3756 1.327 . S
C3758 C3777 1.429 . S
C3758 H3782 0.950 . S
C3759 C3776 1.574 . S
C3759 C3778 1.368 . S
C3759 H3783 0.949 . S
H3760 C3764 0.949 . S
C3761 C3762 1.349 . S
C3761 C3763 1.327 . S
C3761 H3784 0.950 . S
C3762 C3761 1.349 . S
C3762 C3774 1.349 . S
C3763 C3761 1.327 . S
C3763 C3779 1.429 . S
C3763 H3785 0.950 . S
C3764 H3760 0.949 . S
C3764 C3772 1.574 . S
C3764 C3780 1.368 . S
H3765 C3773 0.950 . S
H3766 C3771 0.950 . S
H3767 C3772 0.949 . S
H3768 C3774 0.950 . S
H3769 C3775 0.950 . S
H3770 C3776 0.949 . S
C3771 H3766 0.950 . S
C3771 C3773 1.327 . S
C3771 C3777 1.429 . S
C3772 C3764 1.574 . S
C3772 H3767 0.949 . S
C3772 C3778 1.368 . S
C3773 C3757 1.349 . S
C3773 H3765 0.950 . S
C3773 C3771 1.327 . S
C3774 C3762 1.349 . S
C3774 H3768 0.950 . S
C3774 C3775 1.327 . S
C3775 H3769 0.950 . S
C3775 C3774 1.327 . S
C3775 C3779 1.429 . S
C3776 C3759 1.574 . S
C3776 H3770 0.949 . S
C3776 C3780 1.368 . S
C3777 C3758 1.429 . S
C3777 C3771 1.429 . S
C3777 C3778 1.523 . S
C3778 C3759 1.368 . S
C3778 C3772 1.368 . S
C3778 C3777 1.523 . S
C3779 C3763 1.429 . S
C3779 C3775 1.429 . S
C3779 C3780 1.523 . S
C3780 C3764 1.368 . S
C3780 C3776 1.368 . S
C3780 C3779 1.523 . S
H3781 C3756 0.950 . S
H3782 C3758 0.950 . S
H3783 C3759 0.949 . S
H3784 C3761 0.950 . S
H3785 C3763 0.950 . S
C3786 C3787 1.349 . S
C3786 C3788 1.327 . S
C3786 H3811 0.950 . S
C3787 C3786 1.349 . S
C3787 C3803 1.349 . S
C3788 C3786 1.327 . S
C3788 C3807 1.429 . S
C3788 H3812 0.950 . S
C3789 C3806 1.574 . S
C3789 C3808 1.368 . S
C3789 H3813 0.949 . S
H3790 C3794 0.949 . S
C3791 C3792 1.349 . S
C3791 C3793 1.327 . S
C3791 H3814 0.950 . S
C3792 C3791 1.349 . S
C3792 C3804 1.349 . S
C3793 C3791 1.327 . S
C3793 C3809 1.429 . S
C3793 H3815 0.950 . S
C3794 H3790 0.949 . S
C3794 C3802 1.574 . S
C3794 C3810 1.368 . S
H3795 C3803 0.950 . S
H3796 C3801 0.950 . S
H3797 C3802 0.949 . S
H3798 C3804 0.950 . S
H3799 C3805 0.950 . S
H3800 C3806 0.949 . S
C3801 H3796 0.950 . S
C3801 C3803 1.327 . S
C3801 C3807 1.429 . S
C3802 C3794 1.574 . S
C3802 H3797 0.949 . S
C3802 C3808 1.368 . S
C3803 C3787 1.349 . S
C3803 H3795 0.950 . S
C3803 C3801 1.327 . S
C3804 C3792 1.349 . S
C3804 H3798 0.950 . S
C3804 C3805 1.327 . S
C3805 H3799 0.950 . S
C3805 C3804 1.327 . S
C3805 C3809 1.429 . S
C3806 C3789 1.574 . S
C3806 H3800 0.949 . S
C3806 C3810 1.368 . S
C3807 C3788 1.429 . S
C3807 C3801 1.429 . S
C3807 C3808 1.523 . S
C3808 C3789 1.368 . S
C3808 C3802 1.368 . S
C3808 C3807 1.523 . S
C3809 C3793 1.429 . S
C3809 C3805 1.429 . S
C3809 C3810 1.523 . S
C3810 C3794 1.368 . S
C3810 C3806 1.368 . S
C3810 C3809 1.523 . S
H3811 C3786 0.950 . S
H3812 C3788 0.950 . S
H3813 C3789 0.949 . S
H3814 C3791 0.950 . S
H3815 C3793 0.950 . S
C3816 C3817 1.349 . S
C3816 C3818 1.327 . S
C3816 H3841 0.950 . S
C3817 C3816 1.349 . S
C3817 C3833 1.349 . S
C3818 C3816 1.327 . S
C3818 C3837 1.429 . S
C3818 H3842 0.950 . S
C3819 C3836 1.574 . S
C3819 C3838 1.368 . S
C3819 H3843 0.949 . S
H3820 C3824 0.949 . S
C3821 C3822 1.349 . S
C3821 C3823 1.327 . S
C3821 H3844 0.950 . S
C3822 C3821 1.349 . S
C3822 C3834 1.349 . S
C3823 C3821 1.327 . S
C3823 C3839 1.429 . S
C3823 H3845 0.950 . S
C3824 H3820 0.949 . S
C3824 C3832 1.574 . S
C3824 C3840 1.368 . S
H3825 C3833 0.950 . S
H3826 C3831 0.950 . S
H3827 C3832 0.949 . S
H3828 C3834 0.950 . S
H3829 C3835 0.950 . S
H3830 C3836 0.949 . S
C3831 H3826 0.950 . S
C3831 C3833 1.327 . S
C3831 C3837 1.429 . S
C3832 C3824 1.574 . S
C3832 H3827 0.949 . S
C3832 C3838 1.368 . S
C3833 C3817 1.349 . S
C3833 H3825 0.950 . S
C3833 C3831 1.327 . S
C3834 C3822 1.349 . S
C3834 H3828 0.950 . S
C3834 C3835 1.327 . S
C3835 H3829 0.950 . S
C3835 C3834 1.327 . S
C3835 C3839 1.429 . S
C3836 C3819 1.574 . S
C3836 H3830 0.949 . S
C3836 C3840 1.368 . S
C3837 C3818 1.429 . S
C3837 C3831 1.429 . S
C3837 C3838 1.523 . S
C3838 C3819 1.368 . S
C3838 C3832 1.368 . S
C3838 C3837 1.523 . S
C3839 C3823 1.429 . S
C3839 C3835 1.429 . S
C3839 C3840 1.523 . S
C3840 C3824 1.368 . S
C3840 C3836 1.368 . S
C3840 C3839 1.523 . S
H3841 C3816 0.950 . S
H3842 C3818 0.950 . S
H3843 C3819 0.949 . S
H3844 C3821 0.950 . S
H3845 C3823 0.950 . S
C3846 C3847 1.349 . S
C3846 C3848 1.327 . S
C3846 H3871 0.950 . S
C3847 C3846 1.349 . S
C3847 C3863 1.349 . S
C3848 C3846 1.327 . S
C3848 C3867 1.429 . S
C3848 H3872 0.950 . S
C3849 C3866 1.574 . S
C3849 C3868 1.368 . S
C3849 H3873 0.949 . S
H3850 C3854 0.949 . S
C3851 C3852 1.349 . S
C3851 C3853 1.327 . S
C3851 H3874 0.950 . S
C3852 C3851 1.349 . S
C3852 C3864 1.349 . S
C3853 C3851 1.327 . S
C3853 C3869 1.429 . S
C3853 H3875 0.950 . S
C3854 H3850 0.949 . S
C3854 C3862 1.574 . S
C3854 C3870 1.368 . S
H3855 C3863 0.950 . S
H3856 C3861 0.950 . S
H3857 C3862 0.949 . S
H3858 C3864 0.950 . S
H3859 C3865 0.950 . S
H3860 C3866 0.949 . S
C3861 H3856 0.950 . S
C3861 C3863 1.327 . S
C3861 C3867 1.429 . S
C3862 C3854 1.574 . S
C3862 H3857 0.949 . S
C3862 C3868 1.368 . S
C3863 C3847 1.349 . S
C3863 H3855 0.950 . S
C3863 C3861 1.327 . S
C3864 C3852 1.349 . S
C3864 H3858 0.950 . S
C3864 C3865 1.327 . S
C3865 H3859 0.950 . S
C3865 C3864 1.327 . S
C3865 C3869 1.429 . S
C3866 C3849 1.574 . S
C3866 H3860 0.949 . S
C3866 C3870 1.368 . S
C3867 C3848 1.429 . S
C3867 C3861 1.429 . S
C3867 C3868 1.523 . S
C3868 C3849 1.368 . S
C3868 C3862 1.368 . S
C3868 C3867 1.523 . S
C3869 C3853 1.429 . S
C3869 C3865 1.429 . S
C3869 C3870 1.523 . S
C3870 C3854 1.368 . S
C3870 C3866 1.368 . S
C3870 C3869 1.523 . S
H3871 C3846 0.950 . S
H3872 C3848 0.950 . S
H3873 C3849 0.949 . S
H3874 C3851 0.950 . S
H3875 C3853 0.950 . S
C3876 C3877 1.349 . S
C3876 C3878 1.327 . S
C3876 H3901 0.950 . S
C3877 C3876 1.349 . S
C3877 C3893 1.349 . S
C3878 C3876 1.327 . S
C3878 C3897 1.429 . S
C3878 H3902 0.950 . S
C3879 C3896 1.574 . S
C3879 C3898 1.368 . S
C3879 H3903 0.949 . S
H3880 C3884 0.949 . S
C3881 C3882 1.349 . S
C3881 C3883 1.327 . S
C3881 H3904 0.950 . S
C3882 C3881 1.349 . S
C3882 C3894 1.349 . S
C3883 C3881 1.327 . S
C3883 C3899 1.429 . S
C3883 H3905 0.950 . S
C3884 H3880 0.949 . S
C3884 C3892 1.574 . S
C3884 C3900 1.368 . S
H3885 C3893 0.950 . S
H3886 C3891 0.950 . S
H3887 C3892 0.949 . S
H3888 C3894 0.950 . S
H3889 C3895 0.950 . S
H3890 C3896 0.949 . S
C3891 H3886 0.950 . S
C3891 C3893 1.327 . S
C3891 C3897 1.429 . S
C3892 C3884 1.574 . S
C3892 H3887 0.949 . S
C3892 C3898 1.368 . S
C3893 C3877 1.349 . S
C3893 H3885 0.950 . S
C3893 C3891 1.327 . S
C3894 C3882 1.349 . S
C3894 H3888 0.950 . S
C3894 C3895 1.327 . S
C3895 H3889 0.950 . S
C3895 C3894 1.327 . S
C3895 C3899 1.429 . S
C3896 C3879 1.574 . S
C3896 H3890 0.949 . S
C3896 C3900 1.368 . S
C3897 C3878 1.429 . S
C3897 C3891 1.429 . S
C3897 C3898 1.523 . S
C3898 C3879 1.368 . S
C3898 C3892 1.368 . S
C3898 C3897 1.523 . S
C3899 C3883 1.429 . S
C3899 C3895 1.429 . S
C3899 C3900 1.523 . S
C3900 C3884 1.368 . S
C3900 C3896 1.368 . S
C3900 C3899 1.523 . S
H3901 C3876 0.950 . S
H3902 C3878 0.950 . S
H3903 C3879 0.949 . S
H3904 C3881 0.950 . S
H3905 C3883 0.950 . S
C3906 C3907 1.349 . S
C3906 C3908 1.327 . S
C3906 H3931 0.950 . S
C3907 C3906 1.349 . S
C3907 C3923 1.349 . S
C3908 C3906 1.327 . S
C3908 C3927 1.429 . S
C3908 H3932 0.950 . S
C3909 C3926 1.574 . S
C3909 C3928 1.368 . S
C3909 H3933 0.949 . S
H3910 C3914 0.949 . S
C3911 C3912 1.349 . S
C3911 C3913 1.327 . S
C3911 H3934 0.950 . S
C3912 C3911 1.349 . S
C3912 C3924 1.349 . S
C3913 C3911 1.327 . S
C3913 C3929 1.429 . S
C3913 H3935 0.950 . S
C3914 H3910 0.949 . S
C3914 C3922 1.574 . S
C3914 C3930 1.368 . S
H3915 C3923 0.950 . S
H3916 C3921 0.950 . S
H3917 C3922 0.949 . S
H3918 C3924 0.950 . S
H3919 C3925 0.950 . S
H3920 C3926 0.949 . S
C3921 H3916 0.950 . S
C3921 C3923 1.327 . S
C3921 C3927 1.429 . S
C3922 C3914 1.574 . S
C3922 H3917 0.949 . S
C3922 C3928 1.368 . S
C3923 C3907 1.349 . S
C3923 H3915 0.950 . S
C3923 C3921 1.327 . S
C3924 C3912 1.349 . S
C3924 H3918 0.950 . S
C3924 C3925 1.327 . S
C3925 H3919 0.950 . S
C3925 C3924 1.327 . S
C3925 C3929 1.429 . S
C3926 C3909 1.574 . S
C3926 H3920 0.949 . S
C3926 C3930 1.368 . S
C3927 C3908 1.429 . S
C3927 C3921 1.429 . S
C3927 C3928 1.523 . S
C3928 C3909 1.368 . S
C3928 C3922 1.368 . S
C3928 C3927 1.523 . S
C3929 C3913 1.429 . S
C3929 C3925 1.429 . S
C3929 C3930 1.523 . S
C3930 C3914 1.368 . S
C3930 C3926 1.368 . S
C3930 C3929 1.523 . S
H3931 C3906 0.950 . S
H3932 C3908 0.950 . S
H3933 C3909 0.949 . S
H3934 C3911 0.950 . S
H3935 C3913 0.950 . S
C3936 C3937 1.349 . S
C3936 C3938 1.327 . S
C3936 H3961 0.950 . S
C3937 C3936 1.349 . S
C3937 C3953 1.349 . S
C3938 C3936 1.327 . S
C3938 C3957 1.429 . S
C3938 H3962 0.950 . S
C3939 C3956 1.574 . S
C3939 C3958 1.368 . S
C3939 H3963 0.949 . S
H3940 C3944 0.949 . S
C3941 C3942 1.349 . S
C3941 C3943 1.327 . S
C3941 H3964 0.950 . S
C3942 C3941 1.349 . S
C3942 C3954 1.349 . S
C3943 C3941 1.327 . S
C3943 C3959 1.429 . S
C3943 H3965 0.950 . S
C3944 H3940 0.949 . S
C3944 C3952 1.574 . S
C3944 C3960 1.368 . S
H3945 C3953 0.950 . S
H3946 C3951 0.950 . S
H3947 C3952 0.949 . S
H3948 C3954 0.950 . S
H3949 C3955 0.950 . S
H3950 C3956 0.949 . S
C3951 H3946 0.950 . S
C3951 C3953 1.327 . S
C3951 C3957 1.429 . S
C3952 C3944 1.574 . S
C3952 H3947 0.949 . S
C3952 C3958 1.368 . S
C3953 C3937 1.349 . S
C3953 H3945 0.950 . S
C3953 C3951 1.327 . S
C3954 C3942 1.349 . S
C3954 H3948 0.950 . S
C3954 C3955 1.327 . S
C3955 H3949 0.950 . S
C3955 C3954 1.327 . S
C3955 C3959 1.429 . S
C3956 C3939 1.574 . S
C3956 H3950 0.949 . S
C3956 C3960 1.368 . S
C3957 C3938 1.429 . S
C3957 C3951 1.429 . S
C3957 C3958 1.523 . S
C3958 C3939 1.368 . S
C3958 C3952 1.368 . S
C3958 C3957 1.523 . S
C3959 C3943 1.429 . S
C3959 C3955 1.429 . S
C3959 C3960 1.523 . S
C3960 C3944 1.368 . S
C3960 C3956 1.368 . S
C3960 C3959 1.523 . S
H3961 C3936 0.950 . S
H3962 C3938 0.950 . S
H3963 C3939 0.949 . S
H3964 C3941 0.950 . S
H3965 C3943 0.950 . S
C3966 C3967 1.349 . S
C3966 C3968 1.327 . S
C3966 H3991 0.950 . S
C3967 C3966 1.349 . S
C3967 C3983 1.349 . S
C3968 C3966 1.327 . S
C3968 C3987 1.429 . S
C3968 H3992 0.950 . S
C3969 C3986 1.574 . S
C3969 C3988 1.368 . S
C3969 H3993 0.949 . S
H3970 C3974 0.949 . S
C3971 C3972 1.349 . S
C3971 C3973 1.327 . S
C3971 H3994 0.950 . S
C3972 C3971 1.349 . S
C3972 C3984 1.349 . S
C3973 C3971 1.327 . S
C3973 C3989 1.429 . S
C3973 H3995 0.950 . S
C3974 H3970 0.949 . S
C3974 C3982 1.574 . S
C3974 C3990 1.368 . S
H3975 C3983 0.950 . S
H3976 C3981 0.950 . S
H3977 C3982 0.949 . S
H3978 C3984 0.950 . S
H3979 C3985 0.950 . S
H3980 C3986 0.949 . S
C3981 H3976 0.950 . S
C3981 C3983 1.327 . S
C3981 C3987 1.429 . S
C3982 C3974 1.574 . S
C3982 H3977 0.949 . S
C3982 C3988 1.368 . S
C3983 C3967 1.349 . S
C3983 H3975 0.950 . S
C3983 C3981 1.327 . S
C3984 C3972 1.349 . S
C3984 H3978 0.950 . S
C3984 C3985 1.327 . S
C3985 H3979 0.950 . S
C3985 C3984 1.327 . S
C3985 C3989 1.429 . S
C3986 C3969 1.574 . S
C3986 H3980 0.949 . S
C3986 C3990 1.368 . S
C3987 C3968 1.429 . S
C3987 C3981 1.429 . S
C3987 C3988 1.523 . S
C3988 C3969 1.368 . S
C3988 C3982 1.368 . S
C3988 C3987 1.523 . S
C3989 C3973 1.429 . S
C3989 C3985 1.429 . S
C3989 C3990 1.523 . S
C3990 C3974 1.368 . S
C3990 C3986 1.368 . S
C3990 C3989 1.523 . S
H3991 C3966 0.950 . S
H3992 C3968 0.950 . S
H3993 C3969 0.949 . S
H3994 C3971 0.950 . S
H3995 C3973 0.950 . S
C3996 C3997 1.349 . S
C3996 C3998 1.327 . S
C3996 H4021 0.950 . S
C3997 C3996 1.349 . S
C3997 C4013 1.349 . S
C3998 C3996 1.327 . S
C3998 C4017 1.429 . S
C3998 H4022 0.950 . S
C3999 C4016 1.574 . S
C3999 C4018 1.368 . S
C3999 H4023 0.949 . S
H4000 C4004 0.949 . S
C4001 C4002 1.349 . S
C4001 C4003 1.327 . S
C4001 H4024 0.950 . S
C4002 C4001 1.349 . S
C4002 C4014 1.349 . S
C4003 C4001 1.327 . S
C4003 C4019 1.429 . S
C4003 H4025 0.950 . S
C4004 H4000 0.949 . S
C4004 C4012 1.574 . S
C4004 C4020 1.368 . S
H4005 C4013 0.950 . S
H4006 C4011 0.950 . S
H4007 C4012 0.949 . S
H4008 C4014 0.950 . S
H4009 C4015 0.950 . S
H4010 C4016 0.949 . S
C4011 H4006 0.950 . S
C4011 C4013 1.327 . S
C4011 C4017 1.429 . S
C4012 C4004 1.574 . S
C4012 H4007 0.949 . S
C4012 C4018 1.368 . S
C4013 C3997 1.349 . S
C4013 H4005 0.950 . S
C4013 C4011 1.327 . S
C4014 C4002 1.349 . S
C4014 H4008 0.950 . S
C4014 C4015 1.327 . S
C4015 H4009 0.950 . S
C4015 C4014 1.327 . S
C4015 C4019 1.429 . S
C4016 C3999 1.574 . S
C4016 H4010 0.949 . S
C4016 C4020 1.368 . S
C4017 C3998 1.429 . S
C4017 C4011 1.429 . S
C4017 C4018 1.523 . S
C4018 C3999 1.368 . S
C4018 C4012 1.368 . S
C4018 C4017 1.523 . S
C4019 C4003 1.429 . S
C4019 C4015 1.429 . S
C4019 C4020 1.523 . S
C4020 C4004 1.368 . S
C4020 C4016 1.368 . S
C4020 C4019 1.523 . S
H4021 C3996 0.950 . S
H4022 C3998 0.950 . S
H4023 C3999 0.949 . S
H4024 C4001 0.950 . S
H4025 C4003 0.950 . S
C4026 C4027 1.349 . S
C4026 C4028 1.327 . S
C4026 H4051 0.950 . S
C4027 C4026 1.349 . S
C4027 C4043 1.349 . S
C4028 C4026 1.327 . S
C4028 C4047 1.429 . S
C4028 H4052 0.950 . S
C4029 C4046 1.574 . S
C4029 C4048 1.368 . S
C4029 H4053 0.949 . S
H4030 C4034 0.949 . S
C4031 C4032 1.349 . S
C4031 C4033 1.327 . S
C4031 H4054 0.950 . S
C4032 C4031 1.349 . S
C4032 C4044 1.349 . S
C4033 C4031 1.327 . S
C4033 C4049 1.429 . S
C4033 H4055 0.950 . S
C4034 H4030 0.949 . S
C4034 C4042 1.574 . S
C4034 C4050 1.368 . S
H4035 C4043 0.950 . S
H4036 C4041 0.950 . S
H4037 C4042 0.949 . S
H4038 C4044 0.950 . S
H4039 C4045 0.950 . S
H4040 C4046 0.949 . S
C4041 H4036 0.950 . S
C4041 C4043 1.327 . S
C4041 C4047 1.429 . S
C4042 C4034 1.574 . S
C4042 H4037 0.949 . S
C4042 C4048 1.368 . S
C4043 C4027 1.349 . S
C4043 H4035 0.950 . S
C4043 C4041 1.327 . S
C4044 C4032 1.349 . S
C4044 H4038 0.950 . S
C4044 C4045 1.327 . S
C4045 H4039 0.950 . S
C4045 C4044 1.327 . S
C4045 C4049 1.429 . S
C4046 C4029 1.574 . S
C4046 H4040 0.949 . S
C4046 C4050 1.368 . S
C4047 C4028 1.429 . S
C4047 C4041 1.429 . S
C4047 C4048 1.523 . S
C4048 C4029 1.368 . S
C4048 C4042 1.368 . S
C4048 C4047 1.523 . S
C4049 C4033 1.429 . S
C4049 C4045 1.429 . S
C4049 C4050 1.523 . S
C4050 C4034 1.368 . S
C4050 C4046 1.368 . S
C4050 C4049 1.523 . S
H4051 C4026 0.950 . S
H4052 C4028 0.950 . S
H4053 C4029 0.949 . S
H4054 C4031 0.950 . S
H4055 C4033 0.950 . S
C4056 C4057 1.349 . S
C4056 C4058 1.327 . S
C4056 H4081 0.950 . S
C4057 C4056 1.349 . S
C4057 C4073 1.349 . S
C4058 C4056 1.327 . S
C4058 C4077 1.429 . S
C4058 H4082 0.950 . S
C4059 C4076 1.574 . S
C4059 C4078 1.368 . S
C4059 H4083 0.949 . S
H4060 C4064 0.949 . S
C4061 C4062 1.349 . S
C4061 C4063 1.327 . S
C4061 H4084 0.950 . S
C4062 C4061 1.349 . S
C4062 C4074 1.349 . S
C4063 C4061 1.327 . S
C4063 C4079 1.429 . S
C4063 H4085 0.950 . S
C4064 H4060 0.949 . S
C4064 C4072 1.574 . S
C4064 C4080 1.368 . S
H4065 C4073 0.950 . S
H4066 C4071 0.950 . S
H4067 C4072 0.949 . S
H4068 C4074 0.950 . S
H4069 C4075 0.950 . S
H4070 C4076 0.949 . S
C4071 H4066 0.950 . S
C4071 C4073 1.327 . S
C4071 C4077 1.429 . S
C4072 C4064 1.574 . S
C4072 H4067 0.949 . S
C4072 C4078 1.368 . S
C4073 C4057 1.349 . S
C4073 H4065 0.950 . S
C4073 C4071 1.327 . S
C4074 C4062 1.349 . S
C4074 H4068 0.950 . S
C4074 C4075 1.327 . S
C4075 H4069 0.950 . S
C4075 C4074 1.327 . S
C4075 C4079 1.429 . S
C4076 C4059 1.574 . S
C4076 H4070 0.949 . S
C4076 C4080 1.368 . S
C4077 C4058 1.429 . S
C4077 C4071 1.429 . S
C4077 C4078 1.523 . S
C4078 C4059 1.368 . S
C4078 C4072 1.368 . S
C4078 C4077 1.523 . S
C4079 C4063 1.429 . S
C4079 C4075 1.429 . S
C4079 C4080 1.523 . S
C4080 C4064 1.368 . S
C4080 C4076 1.368 . S
C4080 C4079 1.523 . S
H4081 C4056 0.950 . S
H4082 C4058 0.950 . S
H4083 C4059 0.949 . S
H4084 C4061 0.950 . S
H4085 C4063 0.950 . S
C4086 C4087 1.349 . S
C4086 C4088 1.327 . S
C4086 H4111 0.950 . S
C4087 C4086 1.349 . S
C4087 C4103 1.349 . S
C4088 C4086 1.327 . S
C4088 C4107 1.429 . S
C4088 H4112 0.950 . S
C4089 C4106 1.574 . S
C4089 C4108 1.368 . S
C4089 H4113 0.949 . S
H4090 C4094 0.949 . S
C4091 C4092 1.349 . S
C4091 C4093 1.327 . S
C4091 H4114 0.950 . S
C4092 C4091 1.349 . S
C4092 C4104 1.349 . S
C4093 C4091 1.327 . S
C4093 C4109 1.429 . S
C4093 H4115 0.950 . S
C4094 H4090 0.949 . S
C4094 C4102 1.574 . S
C4094 C4110 1.368 . S
H4095 C4103 0.950 . S
H4096 C4101 0.950 . S
H4097 C4102 0.949 . S
H4098 C4104 0.950 . S
H4099 C4105 0.950 . S
H4100 C4106 0.949 . S
C4101 H4096 0.950 . S
C4101 C4103 1.327 . S
C4101 C4107 1.429 . S
C4102 C4094 1.574 . S
C4102 H4097 0.949 . S
C4102 C4108 1.368 . S
C4103 C4087 1.349 . S
C4103 H4095 0.950 . S
C4103 C4101 1.327 . S
C4104 C4092 1.349 . S
C4104 H4098 0.950 . S
C4104 C4105 1.327 . S
C4105 H4099 0.950 . S
C4105 C4104 1.327 . S
C4105 C4109 1.429 . S
C4106 C4089 1.574 . S
C4106 H4100 0.949 . S
C4106 C4110 1.368 . S
C4107 C4088 1.429 . S
C4107 C4101 1.429 . S
C4107 C4108 1.523 . S
C4108 C4089 1.368 . S
C4108 C4102 1.368 . S
C4108 C4107 1.523 . S
C4109 C4093 1.429 . S
C4109 C4105 1.429 . S
C4109 C4110 1.523 . S
C4110 C4094 1.368 . S
C4110 C4106 1.368 . S
C4110 C4109 1.523 . S
H4111 C4086 0.950 . S
H4112 C4088 0.950 . S
H4113 C4089 0.949 . S
H4114 C4091 0.950 . S
H4115 C4093 0.950 . S
C4116 C4117 1.349 . S
C4116 C4118 1.327 . S
C4116 H4141 0.950 . S
C4117 C4116 1.349 . S
C4117 C4133 1.349 . S
C4118 C4116 1.327 . S
C4118 C4137 1.429 . S
C4118 H4142 0.950 . S
C4119 C4136 1.574 . S
C4119 C4138 1.368 . S
C4119 H4143 0.949 . S
H4120 C4124 0.949 . S
C4121 C4122 1.349 . S
C4121 C4123 1.327 . S
C4121 H4144 0.950 . S
C4122 C4121 1.349 . S
C4122 C4134 1.349 . S
C4123 C4121 1.327 . S
C4123 C4139 1.429 . S
C4123 H4145 0.950 . S
C4124 H4120 0.949 . S
C4124 C4132 1.574 . S
C4124 C4140 1.368 . S
H4125 C4133 0.950 . S
H4126 C4131 0.950 . S
H4127 C4132 0.949 . S
H4128 C4134 0.950 . S
H4129 C4135 0.950 . S
H4130 C4136 0.949 . S
C4131 H4126 0.950 . S
C4131 C4133 1.327 . S
C4131 C4137 1.429 . S
C4132 C4124 1.574 . S
C4132 H4127 0.949 . S
C4132 C4138 1.368 . S
C4133 C4117 1.349 . S
C4133 H4125 0.950 . S
C4133 C4131 1.327 . S
C4134 C4122 1.349 . S
C4134 H4128 0.950 . S
C4134 C4135 1.327 . S
C4135 H4129 0.950 . S
C4135 C4134 1.327 . S
C4135 C4139 1.429 . S
C4136 C4119 1.574 . S
C4136 H4130 0.949 . S
C4136 C4140 1.368 . S
C4137 C4118 1.429 . S
C4137 C4131 1.429 . S
C4137 C4138 1.523 . S
C4138 C4119 1.368 . S
C4138 C4132 1.368 . S
C4138 C4137 1.523 . S
C4139 C4123 1.429 . S
C4139 C4135 1.429 . S
C4139 C4140 1.523 . S
C4140 C4124 1.368 . S
C4140 C4136 1.368 . S
C4140 C4139 1.523 . S
H4141 C4116 0.950 . S
H4142 C4118 0.950 . S
H4143 C4119 0.949 . S
H4144 C4121 0.950 . S
H4145 C4123 0.950 . S
C4146 C4147 1.349 . S
C4146 C4148 1.327 . S
C4146 H4171 0.950 . S
C4147 C4146 1.349 . S
C4147 C4163 1.349 . S
C4148 C4146 1.327 . S
C4148 C4167 1.429 . S
C4148 H4172 0.950 . S
C4149 C4166 1.574 . S
C4149 C4168 1.368 . S
C4149 H4173 0.949 . S
H4150 C4154 0.949 . S
C4151 C4152 1.349 . S
C4151 C4153 1.327 . S
C4151 H4174 0.950 . S
C4152 C4151 1.349 . S
C4152 C4164 1.349 . S
C4153 C4151 1.327 . S
C4153 C4169 1.429 . S
C4153 H4175 0.950 . S
C4154 H4150 0.949 . S
C4154 C4162 1.574 . S
C4154 C4170 1.368 . S
H4155 C4163 0.950 . S
H4156 C4161 0.950 . S
H4157 C4162 0.949 . S
H4158 C4164 0.950 . S
H4159 C4165 0.950 . S
H4160 C4166 0.949 . S
C4161 H4156 0.950 . S
C4161 C4163 1.327 . S
C4161 C4167 1.429 . S
C4162 C4154 1.574 . S
C4162 H4157 0.949 . S
C4162 C4168 1.368 . S
C4163 C4147 1.349 . S
C4163 H4155 0.950 . S
C4163 C4161 1.327 . S
C4164 C4152 1.349 . S
C4164 H4158 0.950 . S
C4164 C4165 1.327 . S
C4165 H4159 0.950 . S
C4165 C4164 1.327 . S
C4165 C4169 1.429 . S
C4166 C4149 1.574 . S
C4166 H4160 0.949 . S
C4166 C4170 1.368 . S
C4167 C4148 1.429 . S
C4167 C4161 1.429 . S
C4167 C4168 1.523 . S
C4168 C4149 1.368 . S
C4168 C4162 1.368 . S
C4168 C4167 1.523 . S
C4169 C4153 1.429 . S
C4169 C4165 1.429 . S
C4169 C4170 1.523 . S
C4170 C4154 1.368 . S
C4170 C4166 1.368 . S
C4170 C4169 1.523 . S
H4171 C4146 0.950 . S
H4172 C4148 0.950 . S
H4173 C4149 0.949 . S
H4174 C4151 0.950 . S
H4175 C4153 0.950 . S
C4176 C4177 1.349 . S
C4176 C4178 1.327 . S
C4176 H4201 0.950 . S
C4177 C4176 1.349 . S
C4177 C4193 1.349 . S
C4178 C4176 1.327 . S
C4178 C4197 1.429 . S
C4178 H4202 0.950 . S
C4179 C4196 1.574 . S
C4179 C4198 1.368 . S
C4179 H4203 0.949 . S
H4180 C4184 0.949 . S
C4181 C4182 1.349 . S
C4181 C4183 1.327 . S
C4181 H4204 0.950 . S
C4182 C4181 1.349 . S
C4182 C4194 1.349 . S
C4183 C4181 1.327 . S
C4183 C4199 1.429 . S
C4183 H4205 0.950 . S
C4184 H4180 0.949 . S
C4184 C4192 1.574 . S
C4184 C4200 1.368 . S
H4185 C4193 0.950 . S
H4186 C4191 0.950 . S
H4187 C4192 0.949 . S
H4188 C4194 0.950 . S
H4189 C4195 0.950 . S
H4190 C4196 0.949 . S
C4191 H4186 0.950 . S
C4191 C4193 1.327 . S
C4191 C4197 1.429 . S
C4192 C4184 1.574 . S
C4192 H4187 0.949 . S
C4192 C4198 1.368 . S
C4193 C4177 1.349 . S
C4193 H4185 0.950 . S
C4193 C4191 1.327 . S
C4194 C4182 1.349 . S
C4194 H4188 0.950 . S
C4194 C4195 1.327 . S
C4195 H4189 0.950 . S
C4195 C4194 1.327 . S
C4195 C4199 1.429 . S
C4196 C4179 1.574 . S
C4196 H4190 0.949 . S
C4196 C4200 1.368 . S
C4197 C4178 1.429 . S
C4197 C4191 1.429 . S
C4197 C4198 1.523 . S
C4198 C4179 1.368 . S
C4198 C4192 1.368 . S
C4198 C4197 1.523 . S
C4199 C4183 1.429 . S
C4199 C4195 1.429 . S
C4199 C4200 1.523 . S
C4200 C4184 1.368 . S
C4200 C4196 1.368 . S
C4200 C4199 1.523 . S
H4201 C4176 0.950 . S
H4202 C4178 0.950 . S
H4203 C4179 0.949 . S
H4204 C4181 0.950 . S
H4205 C4183 0.950 . S
C4206 C4207 1.349 . S
C4206 C4208 1.327 . S
C4206 H4231 0.950 . S
C4207 C4206 1.349 . S
C4207 C4223 1.349 . S
C4208 C4206 1.327 . S
C4208 C4227 1.429 . S
C4208 H4232 0.950 . S
C4209 C4226 1.574 . S
C4209 C4228 1.368 . S
C4209 H4233 0.949 . S
H4210 C4214 0.949 . S
C4211 C4212 1.349 . S
C4211 C4213 1.327 . S
C4211 H4234 0.950 . S
C4212 C4211 1.349 . S
C4212 C4224 1.349 . S
C4213 C4211 1.327 . S
C4213 C4229 1.429 . S
C4213 H4235 0.950 . S
C4214 H4210 0.949 . S
C4214 C4222 1.574 . S
C4214 C4230 1.368 . S
H4215 C4223 0.950 . S
H4216 C4221 0.950 . S
H4217 C4222 0.949 . S
H4218 C4224 0.950 . S
H4219 C4225 0.950 . S
H4220 C4226 0.949 . S
C4221 H4216 0.950 . S
C4221 C4223 1.327 . S
C4221 C4227 1.429 . S
C4222 C4214 1.574 . S
C4222 H4217 0.949 . S
C4222 C4228 1.368 . S
C4223 C4207 1.349 . S
C4223 H4215 0.950 . S
C4223 C4221 1.327 . S
C4224 C4212 1.349 . S
C4224 H4218 0.950 . S
C4224 C4225 1.327 . S
C4225 H4219 0.950 . S
C4225 C4224 1.327 . S
C4225 C4229 1.429 . S
C4226 C4209 1.574 . S
C4226 H4220 0.949 . S
C4226 C4230 1.368 . S
C4227 C4208 1.429 . S
C4227 C4221 1.429 . S
C4227 C4228 1.523 . S
C4228 C4209 1.368 . S
C4228 C4222 1.368 . S
C4228 C4227 1.523 . S
C4229 C4213 1.429 . S
C4229 C4225 1.429 . S
C4229 C4230 1.523 . S
C4230 C4214 1.368 . S
C4230 C4226 1.368 . S
C4230 C4229 1.523 . S
H4231 C4206 0.950 . S
H4232 C4208 0.950 . S
H4233 C4209 0.949 . S
H4234 C4211 0.950 . S
H4235 C4213 0.950 . S
C4236 C4237 1.349 . S
C4236 C4238 1.327 . S
C4236 H4261 0.950 . S
C4237 C4236 1.349 . S
C4237 C4253 1.349 . S
C4238 C4236 1.327 . S
C4238 C4257 1.429 . S
C4238 H4262 0.950 . S
C4239 C4256 1.574 . S
C4239 C4258 1.368 . S
C4239 H4263 0.949 . S
H4240 C4244 0.949 . S
C4241 C4242 1.349 . S
C4241 C4243 1.327 . S
C4241 H4264 0.950 . S
C4242 C4241 1.349 . S
C4242 C4254 1.349 . S
C4243 C4241 1.327 . S
C4243 C4259 1.429 . S
C4243 H4265 0.950 . S
C4244 H4240 0.949 . S
C4244 C4252 1.574 . S
C4244 C4260 1.368 . S
H4245 C4253 0.950 . S
H4246 C4251 0.950 . S
H4247 C4252 0.949 . S
H4248 C4254 0.950 . S
H4249 C4255 0.950 . S
H4250 C4256 0.949 . S
C4251 H4246 0.950 . S
C4251 C4253 1.327 . S
C4251 C4257 1.429 . S
C4252 C4244 1.574 . S
C4252 H4247 0.949 . S
C4252 C4258 1.368 . S
C4253 C4237 1.349 . S
C4253 H4245 0.950 . S
C4253 C4251 1.327 . S
C4254 C4242 1.349 . S
C4254 H4248 0.950 . S
C4254 C4255 1.327 . S
C4255 H4249 0.950 . S
C4255 C4254 1.327 . S
C4255 C4259 1.429 . S
C4256 C4239 1.574 . S
C4256 H4250 0.949 . S
C4256 C4260 1.368 . S
C4257 C4238 1.429 . S
C4257 C4251 1.429 . S
C4257 C4258 1.523 . S
C4258 C4239 1.368 . S
C4258 C4252 1.368 . S
C4258 C4257 1.523 . S
C4259 C4243 1.429 . S
C4259 C4255 1.429 . S
C4259 C4260 1.523 . S
C4260 C4244 1.368 . S
C4260 C4256 1.368 . S
C4260 C4259 1.523 . S
H4261 C4236 0.950 . S
H4262 C4238 0.950 . S
H4263 C4239 0.949 . S
H4264 C4241 0.950 . S
H4265 C4243 0.950 . S
C4266 C4267 1.349 . S
C4266 C4268 1.327 . S
C4266 H4291 0.950 . S
C4267 C4266 1.349 . S
C4267 C4283 1.349 . S
C4268 C4266 1.327 . S
C4268 C4287 1.429 . S
C4268 H4292 0.950 . S
C4269 C4286 1.574 . S
C4269 C4288 1.368 . S
C4269 H4293 0.949 . S
H4270 C4274 0.949 . S
C4271 C4272 1.349 . S
C4271 C4273 1.327 . S
C4271 H4294 0.950 . S
C4272 C4271 1.349 . S
C4272 C4284 1.349 . S
C4273 C4271 1.327 . S
C4273 C4289 1.429 . S
C4273 H4295 0.950 . S
C4274 H4270 0.949 . S
C4274 C4282 1.574 . S
C4274 C4290 1.368 . S
H4275 C4283 0.950 . S
H4276 C4281 0.950 . S
H4277 C4282 0.949 . S
H4278 C4284 0.950 . S
H4279 C4285 0.950 . S
H4280 C4286 0.949 . S
C4281 H4276 0.950 . S
C4281 C4283 1.327 . S
C4281 C4287 1.429 . S
C4282 C4274 1.574 . S
C4282 H4277 0.949 . S
C4282 C4288 1.368 . S
C4283 C4267 1.349 . S
C4283 H4275 0.950 . S
C4283 C4281 1.327 . S
C4284 C4272 1.349 . S
C4284 H4278 0.950 . S
C4284 C4285 1.327 . S
C4285 H4279 0.950 . S
C4285 C4284 1.327 . S
C4285 C4289 1.429 . S
C4286 C4269 1.574 . S
C4286 H4280 0.949 . S
C4286 C4290 1.368 . S
C4287 C4268 1.429 . S
C4287 C4281 1.429 . S
C4287 C4288 1.523 . S
C4288 C4269 1.368 . S
C4288 C4282 1.368 . S
C4288 C4287 1.523 . S
C4289 C4273 1.429 . S
C4289 C4285 1.429 . S
C4289 C4290 1.523 . S
C4290 C4274 1.368 . S
C4290 C4286 1.368 . S
C4290 C4289 1.523 . S
H4291 C4266 0.950 . S
H4292 C4268 0.950 . S
H4293 C4269 0.949 . S
H4294 C4271 0.950 . S
H4295 C4273 0.950 . S
C4296 C4297 1.349 . S
C4296 C4298 1.327 . S
C4296 H4321 0.950 . S
C4297 C4296 1.349 . S
C4297 C4313 1.349 . S
C4298 C4296 1.327 . S
C4298 C4317 1.429 . S
C4298 H4322 0.950 . S
C4299 C4316 1.574 . S
C4299 C4318 1.368 . S
C4299 H4323 0.949 . S
H4300 C4304 0.949 . S
C4301 C4302 1.349 . S
C4301 C4303 1.327 . S
C4301 H4324 0.950 . S
C4302 C4301 1.349 . S
C4302 C4314 1.349 . S
C4303 C4301 1.327 . S
C4303 C4319 1.429 . S
C4303 H4325 0.950 . S
C4304 H4300 0.949 . S
C4304 C4312 1.574 . S
C4304 C4320 1.368 . S
H4305 C4313 0.950 . S
H4306 C4311 0.950 . S
H4307 C4312 0.949 . S
H4308 C4314 0.950 . S
H4309 C4315 0.950 . S
H4310 C4316 0.949 . S
C4311 H4306 0.950 . S
C4311 C4313 1.327 . S
C4311 C4317 1.429 . S
C4312 C4304 1.574 . S
C4312 H4307 0.949 . S
C4312 C4318 1.368 . S
C4313 C4297 1.349 . S
C4313 H4305 0.950 . S
C4313 C4311 1.327 . S
C4314 C4302 1.349 . S
C4314 H4308 0.950 . S
C4314 C4315 1.327 . S
C4315 H4309 0.950 . S
C4315 C4314 1.327 . S
C4315 C4319 1.429 . S
C4316 C4299 1.574 . S
C4316 H4310 0.949 . S
C4316 C4320 1.368 . S
C4317 C4298 1.429 . S
C4317 C4311 1.429 . S
C4317 C4318 1.523 . S
C4318 C4299 1.368 . S
C4318 C4312 1.368 . S
C4318 C4317 1.523 . S
C4319 C4303 1.429 . S
C4319 C4315 1.429 . S
C4319 C4320 1.523 . S
C4320 C4304 1.368 . S
C4320 C4316 1.368 . S
C4320 C4319 1.523 . S
H4321 C4296 0.950 . S
H4322 C4298 0.950 . S
H4323 C4299 0.949 . S
H4324 C4301 0.950 . S
H4325 C4303 0.950 . S
C4326 C4327 1.349 . S
C4326 C4328 1.327 . S
C4326 H4351 0.950 . S
C4327 C4326 1.349 . S
C4327 C4343 1.349 . S
C4328 C4326 1.327 . S
C4328 C4347 1.429 . S
C4328 H4352 0.950 . S
C4329 C4346 1.574 . S
C4329 C4348 1.368 . S
C4329 H4353 0.949 . S
H4330 C4334 0.949 . S
C4331 C4332 1.349 . S
C4331 C4333 1.327 . S
C4331 H4354 0.950 . S
C4332 C4331 1.349 . S
C4332 C4344 1.349 . S
C4333 C4331 1.327 . S
C4333 C4349 1.429 . S
C4333 H4355 0.950 . S
C4334 H4330 0.949 . S
C4334 C4342 1.574 . S
C4334 C4350 1.368 . S
H4335 C4343 0.950 . S
H4336 C4341 0.950 . S
H4337 C4342 0.949 . S
H4338 C4344 0.950 . S
H4339 C4345 0.950 . S
H4340 C4346 0.949 . S
C4341 H4336 0.950 . S
C4341 C4343 1.327 . S
C4341 C4347 1.429 . S
C4342 C4334 1.574 . S
C4342 H4337 0.949 . S
C4342 C4348 1.368 . S
C4343 C4327 1.349 . S
C4343 H4335 0.950 . S
C4343 C4341 1.327 . S
C4344 C4332 1.349 . S
C4344 H4338 0.950 . S
C4344 C4345 1.327 . S
C4345 H4339 0.950 . S
C4345 C4344 1.327 . S
C4345 C4349 1.429 . S
C4346 C4329 1.574 . S
C4346 H4340 0.949 . S
C4346 C4350 1.368 . S
C4347 C4328 1.429 . S
C4347 C4341 1.429 . S
C4347 C4348 1.523 . S
C4348 C4329 1.368 . S
C4348 C4342 1.368 . S
C4348 C4347 1.523 . S
C4349 C4333 1.429 . S
C4349 C4345 1.429 . S
C4349 C4350 1.523 . S
C4350 C4334 1.368 . S
C4350 C4346 1.368 . S
C4350 C4349 1.523 . S
H4351 C4326 0.950 . S
H4352 C4328 0.950 . S
H4353 C4329 0.949 . S
H4354 C4331 0.950 . S
H4355 C4333 0.950 . S
C4356 C4357 1.349 . S
C4356 C4358 1.327 . S
C4356 H4381 0.950 . S
C4357 C4356 1.349 . S
C4357 C4373 1.349 . S
C4358 C4356 1.327 . S
C4358 C4377 1.429 . S
C4358 H4382 0.950 . S
C4359 C4376 1.574 . S
C4359 C4378 1.368 . S
C4359 H4383 0.949 . S
H4360 C4364 0.949 . S
C4361 C4362 1.349 . S
C4361 C4363 1.327 . S
C4361 H4384 0.950 . S
C4362 C4361 1.349 . S
C4362 C4374 1.349 . S
C4363 C4361 1.327 . S
C4363 C4379 1.429 . S
C4363 H4385 0.950 . S
C4364 H4360 0.949 . S
C4364 C4372 1.574 . S
C4364 C4380 1.368 . S
H4365 C4373 0.950 . S
H4366 C4371 0.950 . S
H4367 C4372 0.949 . S
H4368 C4374 0.950 . S
H4369 C4375 0.950 . S
H4370 C4376 0.949 . S
C4371 H4366 0.950 . S
C4371 C4373 1.327 . S
C4371 C4377 1.429 . S
C4372 C4364 1.574 . S
C4372 H4367 0.949 . S
C4372 C4378 1.368 . S
C4373 C4357 1.349 . S
C4373 H4365 0.950 . S
C4373 C4371 1.327 . S
C4374 C4362 1.349 . S
C4374 H4368 0.950 . S
C4374 C4375 1.327 . S
C4375 H4369 0.950 . S
C4375 C4374 1.327 . S
C4375 C4379 1.429 . S
C4376 C4359 1.574 . S
C4376 H4370 0.949 . S
C4376 C4380 1.368 . S
C4377 C4358 1.429 . S
C4377 C4371 1.429 . S
C4377 C4378 1.523 . S
C4378 C4359 1.368 . S
C4378 C4372 1.368 . S
C4378 C4377 1.523 . S
C4379 C4363 1.429 . S
C4379 C4375 1.429 . S
C4379 C4380 1.523 . S
C4380 C4364 1.368 . S
C4380 C4376 1.368 . S
C4380 C4379 1.523 . S
H4381 C4356 0.950 . S
H4382 C4358 0.950 . S
H4383 C4359 0.949 . S
H4384 C4361 0.950 . S
H4385 C4363 0.950 . S
C4386 C4387 1.349 . S
C4386 C4388 1.327 . S
C4386 H4411 0.950 . S
C4387 C4386 1.349 . S
C4387 C4403 1.349 . S
C4388 C4386 1.327 . S
C4388 C4407 1.429 . S
C4388 H4412 0.950 . S
C4389 C4406 1.574 . S
C4389 C4408 1.368 . S
C4389 H4413 0.949 . S
H4390 C4394 0.949 . S
C4391 C4392 1.349 . S
C4391 C4393 1.327 . S
C4391 H4414 0.950 . S
C4392 C4391 1.349 . S
C4392 C4404 1.349 . S
C4393 C4391 1.327 . S
C4393 C4409 1.429 . S
C4393 H4415 0.950 . S
C4394 H4390 0.949 . S
C4394 C4402 1.574 . S
C4394 C4410 1.368 . S
H4395 C4403 0.950 . S
H4396 C4401 0.950 . S
H4397 C4402 0.949 . S
H4398 C4404 0.950 . S
H4399 C4405 0.950 . S
H4400 C4406 0.949 . S
C4401 H4396 0.950 . S
C4401 C4403 1.327 . S
C4401 C4407 1.429 . S
C4402 C4394 1.574 . S
C4402 H4397 0.949 . S
C4402 C4408 1.368 . S
C4403 C4387 1.349 . S
C4403 H4395 0.950 . S
C4403 C4401 1.327 . S
C4404 C4392 1.349 . S
C4404 H4398 0.950 . S
C4404 C4405 1.327 . S
C4405 H4399 0.950 . S
C4405 C4404 1.327 . S
C4405 C4409 1.429 . S
C4406 C4389 1.574 . S
C4406 H4400 0.949 . S
C4406 C4410 1.368 . S
C4407 C4388 1.429 . S
C4407 C4401 1.429 . S
C4407 C4408 1.523 . S
C4408 C4389 1.368 . S
C4408 C4402 1.368 . S
C4408 C4407 1.523 . S
C4409 C4393 1.429 . S
C4409 C4405 1.429 . S
C4409 C4410 1.523 . S
C4410 C4394 1.368 . S
C4410 C4406 1.368 . S
C4410 C4409 1.523 . S
H4411 C4386 0.950 . S
H4412 C4388 0.950 . S
H4413 C4389 0.949 . S
H4414 C4391 0.950 . S
H4415 C4393 0.950 . S
C4416 C4417 1.349 . S
C4416 C4418 1.327 . S
C4416 H4441 0.950 . S
C4417 C4416 1.349 . S
C4417 C4433 1.349 . S
C4418 C4416 1.327 . S
C4418 C4437 1.429 . S
C4418 H4442 0.950 . S
C4419 C4436 1.574 . S
C4419 C4438 1.368 . S
C4419 H4443 0.949 . S
H4420 C4424 0.949 . S
C4421 C4422 1.349 . S
C4421 C4423 1.327 . S
C4421 H4444 0.950 . S
C4422 C4421 1.349 . S
C4422 C4434 1.349 . S
C4423 C4421 1.327 . S
C4423 C4439 1.429 . S
C4423 H4445 0.950 . S
C4424 H4420 0.949 . S
C4424 C4432 1.574 . S
C4424 C4440 1.368 . S
H4425 C4433 0.950 . S
H4426 C4431 0.950 . S
H4427 C4432 0.949 . S
H4428 C4434 0.950 . S
H4429 C4435 0.950 . S
H4430 C4436 0.949 . S
C4431 H4426 0.950 . S
C4431 C4433 1.327 . S
C4431 C4437 1.429 . S
C4432 C4424 1.574 . S
C4432 H4427 0.949 . S
C4432 C4438 1.368 . S
C4433 C4417 1.349 . S
C4433 H4425 0.950 . S
C4433 C4431 1.327 . S
C4434 C4422 1.349 . S
C4434 H4428 0.950 . S
C4434 C4435 1.327 . S
C4435 H4429 0.950 . S
C4435 C4434 1.327 . S
C4435 C4439 1.429 . S
C4436 C4419 1.574 . S
C4436 H4430 0.949 . S
C4436 C4440 1.368 . S
C4437 C4418 1.429 . S
C4437 C4431 1.429 . S
C4437 C4438 1.523 . S
C4438 C4419 1.368 . S
C4438 C4432 1.368 . S
C4438 C4437 1.523 . S
C4439 C4423 1.429 . S
C4439 C4435 1.429 . S
C4439 C4440 1.523 . S
C4440 C4424 1.368 . S
C4440 C4436 1.368 . S
C4440 C4439 1.523 . S
H4441 C4416 0.950 . S
H4442 C4418 0.950 . S
H4443 C4419 0.949 . S
H4444 C4421 0.950 . S
H4445 C4423 0.950 . S
C4446 C4447 1.349 . S
C4446 C4448 1.327 . S
C4446 H4471 0.950 . S
C4447 C4446 1.349 . S
C4447 C4463 1.349 . S
C4448 C4446 1.327 . S
C4448 C4467 1.429 . S
C4448 H4472 0.950 . S
C4449 C4466 1.574 . S
C4449 C4468 1.368 . S
C4449 H4473 0.949 . S
H4450 C4454 0.949 . S
C4451 C4452 1.349 . S
C4451 C4453 1.327 . S
C4451 H4474 0.950 . S
C4452 C4451 1.349 . S
C4452 C4464 1.349 . S
C4453 C4451 1.327 . S
C4453 C4469 1.429 . S
C4453 H4475 0.950 . S
C4454 H4450 0.949 . S
C4454 C4462 1.574 . S
C4454 C4470 1.368 . S
H4455 C4463 0.950 . S
H4456 C4461 0.950 . S
H4457 C4462 0.949 . S
H4458 C4464 0.950 . S
H4459 C4465 0.950 . S
H4460 C4466 0.949 . S
C4461 H4456 0.950 . S
C4461 C4463 1.327 . S
C4461 C4467 1.429 . S
C4462 C4454 1.574 . S
C4462 H4457 0.949 . S
C4462 C4468 1.368 . S
C4463 C4447 1.349 . S
C4463 H4455 0.950 . S
C4463 C4461 1.327 . S
C4464 C4452 1.349 . S
C4464 H4458 0.950 . S
C4464 C4465 1.327 . S
C4465 H4459 0.950 . S
C4465 C4464 1.327 . S
C4465 C4469 1.429 . S
C4466 C4449 1.574 . S
C4466 H4460 0.949 . S
C4466 C4470 1.368 . S
C4467 C4448 1.429 . S
C4467 C4461 1.429 . S
C4467 C4468 1.523 . S
C4468 C4449 1.368 . S
C4468 C4462 1.368 . S
C4468 C4467 1.523 . S
C4469 C4453 1.429 . S
C4469 C4465 1.429 . S
C4469 C4470 1.523 . S
C4470 C4454 1.368 . S
C4470 C4466 1.368 . S
C4470 C4469 1.523 . S
H4471 C4446 0.950 . S
H4472 C4448 0.950 . S
H4473 C4449 0.949 . S
H4474 C4451 0.950 . S
H4475 C4453 0.950 . S
C4476 C4477 1.349 . S
C4476 C4478 1.327 . S
C4476 H4501 0.950 . S
C4477 C4476 1.349 . S
C4477 C4493 1.349 . S
C4478 C4476 1.327 . S
C4478 C4497 1.429 . S
C4478 H4502 0.950 . S
C4479 C4496 1.574 . S
C4479 C4498 1.368 . S
C4479 H4503 0.949 . S
H4480 C4484 0.949 . S
C4481 C4482 1.349 . S
C4481 C4483 1.327 . S
C4481 H4504 0.950 . S
C4482 C4481 1.349 . S
C4482 C4494 1.349 . S
C4483 C4481 1.327 . S
C4483 C4499 1.429 . S
C4483 H4505 0.950 . S
C4484 H4480 0.949 . S
C4484 C4492 1.574 . S
C4484 C4500 1.368 . S
H4485 C4493 0.950 . S
H4486 C4491 0.950 . S
H4487 C4492 0.949 . S
H4488 C4494 0.950 . S
H4489 C4495 0.950 . S
H4490 C4496 0.949 . S
C4491 H4486 0.950 . S
C4491 C4493 1.327 . S
C4491 C4497 1.429 . S
C4492 C4484 1.574 . S
C4492 H4487 0.949 . S
C4492 C4498 1.368 . S
C4493 C4477 1.349 . S
C4493 H4485 0.950 . S
C4493 C4491 1.327 . S
C4494 C4482 1.349 . S
C4494 H4488 0.950 . S
C4494 C4495 1.327 . S
C4495 H4489 0.950 . S
C4495 C4494 1.327 . S
C4495 C4499 1.429 . S
C4496 C4479 1.574 . S
C4496 H4490 0.949 . S
C4496 C4500 1.368 . S
C4497 C4478 1.429 . S
C4497 C4491 1.429 . S
C4497 C4498 1.523 . S
C4498 C4479 1.368 . S
C4498 C4492 1.368 . S
C4498 C4497 1.523 . S
C4499 C4483 1.429 . S
C4499 C4495 1.429 . S
C4499 C4500 1.523 . S
C4500 C4484 1.368 . S
C4500 C4496 1.368 . S
C4500 C4499 1.523 . S
H4501 C4476 0.950 . S
H4502 C4478 0.950 . S
H4503 C4479 0.949 . S
H4504 C4481 0.950 . S
H4505 C4483 0.950 . S
C4506 C4507 1.349 . S
C4506 C4508 1.327 . S
C4506 H4531 0.950 . S
C4507 C4506 1.349 . S
C4507 C4523 1.349 . S
C4508 C4506 1.327 . S
C4508 C4527 1.429 . S
C4508 H4532 0.950 . S
C4509 C4526 1.574 . S
C4509 C4528 1.368 . S
C4509 H4533 0.949 . S
H4510 C4514 0.949 . S
C4511 C4512 1.349 . S
C4511 C4513 1.327 . S
C4511 H4534 0.950 . S
C4512 C4511 1.349 . S
C4512 C4524 1.349 . S
C4513 C4511 1.327 . S
C4513 C4529 1.429 . S
C4513 H4535 0.950 . S
C4514 H4510 0.949 . S
C4514 C4522 1.574 . S
C4514 C4530 1.368 . S
H4515 C4523 0.950 . S
H4516 C4521 0.950 . S
H4517 C4522 0.949 . S
H4518 C4524 0.950 . S
H4519 C4525 0.950 . S
H4520 C4526 0.949 . S
C4521 H4516 0.950 . S
C4521 C4523 1.327 . S
C4521 C4527 1.429 . S
C4522 C4514 1.574 . S
C4522 H4517 0.949 . S
C4522 C4528 1.368 . S
C4523 C4507 1.349 . S
C4523 H4515 0.950 . S
C4523 C4521 1.327 . S
C4524 C4512 1.349 . S
C4524 H4518 0.950 . S
C4524 C4525 1.327 . S
C4525 H4519 0.950 . S
C4525 C4524 1.327 . S
C4525 C4529 1.429 . S
C4526 C4509 1.574 . S
C4526 H4520 0.949 . S
C4526 C4530 1.368 . S
C4527 C4508 1.429 . S
C4527 C4521 1.429 . S
C4527 C4528 1.523 . S
C4528 C4509 1.368 . S
C4528 C4522 1.368 . S
C4528 C4527 1.523 . S
C4529 C4513 1.429 . S
C4529 C4525 1.429 . S
C4529 C4530 1.523 . S
C4530 C4514 1.368 . S
C4530 C4526 1.368 . S
C4530 C4529 1.523 . S
H4531 C4506 0.950 . S
H4532 C4508 0.950 . S
H4533 C4509 0.949 . S
H4534 C4511 0.950 . S
H4535 C4513 0.950 . S
C4536 C4537 1.349 . S
C4536 C4538 1.327 . S
C4536 H4561 0.950 . S
C4537 C4536 1.349 . S
C4537 C4553 1.349 . S
C4538 C4536 1.327 . S
C4538 C4557 1.429 . S
C4538 H4562 0.950 . S
C4539 C4556 1.574 . S
C4539 C4558 1.368 . S
C4539 H4563 0.949 . S
H4540 C4544 0.949 . S
C4541 C4542 1.349 . S
C4541 C4543 1.327 . S
C4541 H4564 0.950 . S
C4542 C4541 1.349 . S
C4542 C4554 1.349 . S
C4543 C4541 1.327 . S
C4543 C4559 1.429 . S
C4543 H4565 0.950 . S
C4544 H4540 0.949 . S
C4544 C4552 1.574 . S
C4544 C4560 1.368 . S
H4545 C4553 0.950 . S
H4546 C4551 0.950 . S
H4547 C4552 0.949 . S
H4548 C4554 0.950 . S
H4549 C4555 0.950 . S
H4550 C4556 0.949 . S
C4551 H4546 0.950 . S
C4551 C4553 1.327 . S
C4551 C4557 1.429 . S
C4552 C4544 1.574 . S
C4552 H4547 0.949 . S
C4552 C4558 1.368 . S
C4553 C4537 1.349 . S
C4553 H4545 0.950 . S
C4553 C4551 1.327 . S
C4554 C4542 1.349 . S
C4554 H4548 0.950 . S
C4554 C4555 1.327 . S
C4555 H4549 0.950 . S
C4555 C4554 1.327 . S
C4555 C4559 1.429 . S
C4556 C4539 1.574 . S
C4556 H4550 0.949 . S
C4556 C4560 1.368 . S
C4557 C4538 1.429 . S
C4557 C4551 1.429 . S
C4557 C4558 1.523 . S
C4558 C4539 1.368 . S
C4558 C4552 1.368 . S
C4558 C4557 1.523 . S
C4559 C4543 1.429 . S
C4559 C4555 1.429 . S
C4559 C4560 1.523 . S
C4560 C4544 1.368 . S
C4560 C4556 1.368 . S
C4560 C4559 1.523 . S
H4561 C4536 0.950 . S
H4562 C4538 0.950 . S
H4563 C4539 0.949 . S
H4564 C4541 0.950 . S
H4565 C4543 0.950 . S
C4566 C4567 1.349 . S
C4566 C4568 1.327 . S
C4566 H4591 0.950 . S
C4567 C4566 1.349 . S
C4567 C4583 1.349 . S
C4568 C4566 1.327 . S
C4568 C4587 1.429 . S
C4568 H4592 0.950 . S
C4569 C4586 1.574 . S
C4569 C4588 1.368 . S
C4569 H4593 0.949 . S
H4570 C4574 0.949 . S
C4571 C4572 1.349 . S
C4571 C4573 1.327 . S
C4571 H4594 0.950 . S
C4572 C4571 1.349 . S
C4572 C4584 1.349 . S
C4573 C4571 1.327 . S
C4573 C4589 1.429 . S
C4573 H4595 0.950 . S
C4574 H4570 0.949 . S
C4574 C4582 1.574 . S
C4574 C4590 1.368 . S
H4575 C4583 0.950 . S
H4576 C4581 0.950 . S
H4577 C4582 0.949 . S
H4578 C4584 0.950 . S
H4579 C4585 0.950 . S
H4580 C4586 0.949 . S
C4581 H4576 0.950 . S
C4581 C4583 1.327 . S
C4581 C4587 1.429 . S
C4582 C4574 1.574 . S
C4582 H4577 0.949 . S
C4582 C4588 1.368 . S
C4583 C4567 1.349 . S
C4583 H4575 0.950 . S
C4583 C4581 1.327 . S
C4584 C4572 1.349 . S
C4584 H4578 0.950 . S
C4584 C4585 1.327 . S
C4585 H4579 0.950 . S
C4585 C4584 1.327 . S
C4585 C4589 1.429 . S
C4586 C4569 1.574 . S
C4586 H4580 0.949 . S
C4586 C4590 1.368 . S
C4587 C4568 1.429 . S
C4587 C4581 1.429 . S
C4587 C4588 1.523 . S
C4588 C4569 1.368 . S
C4588 C4582 1.368 . S
C4588 C4587 1.523 . S
C4589 C4573 1.429 . S
C4589 C4585 1.429 . S
C4589 C4590 1.523 . S
C4590 C4574 1.368 . S
C4590 C4586 1.368 . S
C4590 C4589 1.523 . S
H4591 C4566 0.950 . S
H4592 C4568 0.950 . S
H4593 C4569 0.949 . S
H4594 C4571 0.950 . S
H4595 C4573 0.950 . S
C4596 C4597 1.349 . S
C4596 C4598 1.327 . S
C4596 H4621 0.950 . S
C4597 C4596 1.349 . S
C4597 C4613 1.349 . S
C4598 C4596 1.327 . S
C4598 C4617 1.429 . S
C4598 H4622 0.950 . S
C4599 C4616 1.574 . S
C4599 C4618 1.368 . S
C4599 H4623 0.949 . S
H4600 C4604 0.949 . S
C4601 C4602 1.349 . S
C4601 C4603 1.327 . S
C4601 H4624 0.950 . S
C4602 C4601 1.349 . S
C4602 C4614 1.349 . S
C4603 C4601 1.327 . S
C4603 C4619 1.429 . S
C4603 H4625 0.950 . S
C4604 H4600 0.949 . S
C4604 C4612 1.574 . S
C4604 C4620 1.368 . S
H4605 C4613 0.950 . S
H4606 C4611 0.950 . S
H4607 C4612 0.949 . S
H4608 C4614 0.950 . S
H4609 C4615 0.950 . S
H4610 C4616 0.949 . S
C4611 H4606 0.950 . S
C4611 C4613 1.327 . S
C4611 C4617 1.429 . S
C4612 C4604 1.574 . S
C4612 H4607 0.949 . S
C4612 C4618 1.368 . S
C4613 C4597 1.349 . S
C4613 H4605 0.950 . S
C4613 C4611 1.327 . S
C4614 C4602 1.349 . S
C4614 H4608 0.950 . S
C4614 C4615 1.327 . S
C4615 H4609 0.950 . S
C4615 C4614 1.327 . S
C4615 C4619 1.429 . S
C4616 C4599 1.574 . S
C4616 H4610 0.949 . S
C4616 C4620 1.368 . S
C4617 C4598 1.429 . S
C4617 C4611 1.429 . S
C4617 C4618 1.523 . S
C4618 C4599 1.368 . S
C4618 C4612 1.368 . S
C4618 C4617 1.523 . S
C4619 C4603 1.429 . S
C4619 C4615 1.429 . S
C4619 C4620 1.523 . S
C4620 C4604 1.368 . S
C4620 C4616 1.368 . S
C4620 C4619 1.523 . S
H4621 C4596 0.950 . S
H4622 C4598 0.950 . S
H4623 C4599 0.949 . S
H4624 C4601 0.950 . S
H4625 C4603 0.950 . S
C4626 C4627 1.349 . S
C4626 C4628 1.327 . S
C4626 H4651 0.950 . S
C4627 C4626 1.349 . S
C4627 C4643 1.349 . S
C4628 C4626 1.327 . S
C4628 C4647 1.429 . S
C4628 H4652 0.950 . S
C4629 C4646 1.574 . S
C4629 C4648 1.368 . S
C4629 H4653 0.949 . S
H4630 C4634 0.949 . S
C4631 C4632 1.349 . S
C4631 C4633 1.327 . S
C4631 H4654 0.950 . S
C4632 C4631 1.349 . S
C4632 C4644 1.349 . S
C4633 C4631 1.327 . S
C4633 C4649 1.429 . S
C4633 H4655 0.950 . S
C4634 H4630 0.949 . S
C4634 C4642 1.574 . S
C4634 C4650 1.368 . S
H4635 C4643 0.950 . S
H4636 C4641 0.950 . S
H4637 C4642 0.949 . S
H4638 C4644 0.950 . S
H4639 C4645 0.950 . S
H4640 C4646 0.949 . S
C4641 H4636 0.950 . S
C4641 C4643 1.327 . S
C4641 C4647 1.429 . S
C4642 C4634 1.574 . S
C4642 H4637 0.949 . S
C4642 C4648 1.368 . S
C4643 C4627 1.349 . S
C4643 H4635 0.950 . S
C4643 C4641 1.327 . S
C4644 C4632 1.349 . S
C4644 H4638 0.950 . S
C4644 C4645 1.327 . S
C4645 H4639 0.950 . S
C4645 C4644 1.327 . S
C4645 C4649 1.429 . S
C4646 C4629 1.574 . S
C4646 H4640 0.949 . S
C4646 C4650 1.368 . S
C4647 C4628 1.429 . S
C4647 C4641 1.429 . S
C4647 C4648 1.523 . S
C4648 C4629 1.368 . S
C4648 C4642 1.368 . S
C4648 C4647 1.523 . S
C4649 C4633 1.429 . S
C4649 C4645 1.429 . S
C4649 C4650 1.523 . S
C4650 C4634 1.368 . S
C4650 C4646 1.368 . S
C4650 C4649 1.523 . S
H4651 C4626 0.950 . S
H4652 C4628 0.950 . S
H4653 C4629 0.949 . S
H4654 C4631 0.950 . S
H4655 C4633 0.950 . S
C4656 C4657 1.349 . S
C4656 C4658 1.327 . S
C4656 H4681 0.950 . S
C4657 C4656 1.349 . S
C4657 C4673 1.349 . S
C4658 C4656 1.327 . S
C4658 C4677 1.429 . S
C4658 H4682 0.950 . S
C4659 C4676 1.574 . S
C4659 C4678 1.368 . S
C4659 H4683 0.949 . S
H4660 C4664 0.949 . S
C4661 C4662 1.349 . S
C4661 C4663 1.327 . S
C4661 H4684 0.950 . S
C4662 C4661 1.349 . S
C4662 C4674 1.349 . S
C4663 C4661 1.327 . S
C4663 C4679 1.429 . S
C4663 H4685 0.950 . S
C4664 H4660 0.949 . S
C4664 C4672 1.574 . S
C4664 C4680 1.368 . S
H4665 C4673 0.950 . S
H4666 C4671 0.950 . S
H4667 C4672 0.949 . S
H4668 C4674 0.950 . S
H4669 C4675 0.950 . S
H4670 C4676 0.949 . S
C4671 H4666 0.950 . S
C4671 C4673 1.327 . S
C4671 C4677 1.429 . S
C4672 C4664 1.574 . S
C4672 H4667 0.949 . S
C4672 C4678 1.368 . S
C4673 C4657 1.349 . S
C4673 H4665 0.950 . S
C4673 C4671 1.327 . S
C4674 C4662 1.349 . S
C4674 H4668 0.950 . S
C4674 C4675 1.327 . S
C4675 H4669 0.950 . S
C4675 C4674 1.327 . S
C4675 C4679 1.429 . S
C4676 C4659 1.574 . S
C4676 H4670 0.949 . S
C4676 C4680 1.368 . S
C4677 C4658 1.429 . S
C4677 C4671 1.429 . S
C4677 C4678 1.523 . S
C4678 C4659 1.368 . S
C4678 C4672 1.368 . S
C4678 C4677 1.523 . S
C4679 C4663 1.429 . S
C4679 C4675 1.429 . S
C4679 C4680 1.523 . S
C4680 C4664 1.368 . S
C4680 C4676 1.368 . S
C4680 C4679 1.523 . S
H4681 C4656 0.950 . S
H4682 C4658 0.950 . S
H4683 C4659 0.949 . S
H4684 C4661 0.950 . S
H4685 C4663 0.950 . S
C4686 C4687 1.349 . S
C4686 C4688 1.327 . S
C4686 H4711 0.950 . S
C4687 C4686 1.349 . S
C4687 C4703 1.349 . S
C4688 C4686 1.327 . S
C4688 C4707 1.429 . S
C4688 H4712 0.950 . S
C4689 C4706 1.574 . S
C4689 C4708 1.368 . S
C4689 H4713 0.949 . S
H4690 C4694 0.949 . S
C4691 C4692 1.349 . S
C4691 C4693 1.327 . S
C4691 H4714 0.950 . S
C4692 C4691 1.349 . S
C4692 C4704 1.349 . S
C4693 C4691 1.327 . S
C4693 C4709 1.429 . S
C4693 H4715 0.950 . S
C4694 H4690 0.949 . S
C4694 C4702 1.574 . S
C4694 C4710 1.368 . S
H4695 C4703 0.950 . S
H4696 C4701 0.950 . S
H4697 C4702 0.949 . S
H4698 C4704 0.950 . S
H4699 C4705 0.950 . S
H4700 C4706 0.949 . S
C4701 H4696 0.950 . S
C4701 C4703 1.327 . S
C4701 C4707 1.429 . S
C4702 C4694 1.574 . S
C4702 H4697 0.949 . S
C4702 C4708 1.368 . S
C4703 C4687 1.349 . S
C4703 H4695 0.950 . S
C4703 C4701 1.327 . S
C4704 C4692 1.349 . S
C4704 H4698 0.950 . S
C4704 C4705 1.327 . S
C4705 H4699 0.950 . S
C4705 C4704 1.327 . S
C4705 C4709 1.429 . S
C4706 C4689 1.574 . S
C4706 H4700 0.949 . S
C4706 C4710 1.368 . S
C4707 C4688 1.429 . S
C4707 C4701 1.429 . S
C4707 C4708 1.523 . S
C4708 C4689 1.368 . S
C4708 C4702 1.368 . S
C4708 C4707 1.523 . S
C4709 C4693 1.429 . S
C4709 C4705 1.429 . S
C4709 C4710 1.523 . S
C4710 C4694 1.368 . S
C4710 C4706 1.368 . S
C4710 C4709 1.523 . S
H4711 C4686 0.950 . S
H4712 C4688 0.950 . S
H4713 C4689 0.949 . S
H4714 C4691 0.950 . S
H4715 C4693 0.950 . S
C4716 C4717 1.349 . S
C4716 C4718 1.327 . S
C4716 H4741 0.950 . S
C4717 C4716 1.349 . S
C4717 C4733 1.349 . S
C4718 C4716 1.327 . S
C4718 C4737 1.429 . S
C4718 H4742 0.950 . S
C4719 C4736 1.574 . S
C4719 C4738 1.368 . S
C4719 H4743 0.949 . S
H4720 C4724 0.949 . S
C4721 C4722 1.349 . S
C4721 C4723 1.327 . S
C4721 H4744 0.950 . S
C4722 C4721 1.349 . S
C4722 C4734 1.349 . S
C4723 C4721 1.327 . S
C4723 C4739 1.429 . S
C4723 H4745 0.950 . S
C4724 H4720 0.949 . S
C4724 C4732 1.574 . S
C4724 C4740 1.368 . S
H4725 C4733 0.950 . S
H4726 C4731 0.950 . S
H4727 C4732 0.949 . S
H4728 C4734 0.950 . S
H4729 C4735 0.950 . S
H4730 C4736 0.949 . S
C4731 H4726 0.950 . S
C4731 C4733 1.327 . S
C4731 C4737 1.429 . S
C4732 C4724 1.574 . S
C4732 H4727 0.949 . S
C4732 C4738 1.368 . S
C4733 C4717 1.349 . S
C4733 H4725 0.950 . S
C4733 C4731 1.327 . S
C4734 C4722 1.349 . S
C4734 H4728 0.950 . S
C4734 C4735 1.327 . S
C4735 H4729 0.950 . S
C4735 C4734 1.327 . S
C4735 C4739 1.429 . S
C4736 C4719 1.574 . S
C4736 H4730 0.949 . S
C4736 C4740 1.368 . S
C4737 C4718 1.429 . S
C4737 C4731 1.429 . S
C4737 C4738 1.523 . S
C4738 C4719 1.368 . S
C4738 C4732 1.368 . S
C4738 C4737 1.523 . S
C4739 C4723 1.429 . S
C4739 C4735 1.429 . S
C4739 C4740 1.523 . S
C4740 C4724 1.368 . S
C4740 C4736 1.368 . S
C4740 C4739 1.523 . S
H4741 C4716 0.950 . S
H4742 C4718 0.950 . S
H4743 C4719 0.949 . S
H4744 C4721 0.950 . S
H4745 C4723 0.950 . S
C4746 C4747 1.349 . S
C4746 C4748 1.327 . S
C4746 H4771 0.950 . S
C4747 C4746 1.349 . S
C4747 C4763 1.349 . S
C4748 C4746 1.327 . S
C4748 C4767 1.429 . S
C4748 H4772 0.950 . S
C4749 C4766 1.574 . S
C4749 C4768 1.368 . S
C4749 H4773 0.949 . S
H4750 C4754 0.949 . S
C4751 C4752 1.349 . S
C4751 C4753 1.327 . S
C4751 H4774 0.950 . S
C4752 C4751 1.349 . S
C4752 C4764 1.349 . S
C4753 C4751 1.327 . S
C4753 C4769 1.429 . S
C4753 H4775 0.950 . S
C4754 H4750 0.949 . S
C4754 C4762 1.574 . S
C4754 C4770 1.368 . S
H4755 C4763 0.950 . S
H4756 C4761 0.950 . S
H4757 C4762 0.949 . S
H4758 C4764 0.950 . S
H4759 C4765 0.950 . S
H4760 C4766 0.949 . S
C4761 H4756 0.950 . S
C4761 C4763 1.327 . S
C4761 C4767 1.429 . S
C4762 C4754 1.574 . S
C4762 H4757 0.949 . S
C4762 C4768 1.368 . S
C4763 C4747 1.349 . S
C4763 H4755 0.950 . S
C4763 C4761 1.327 . S
C4764 C4752 1.349 . S
C4764 H4758 0.950 . S
C4764 C4765 1.327 . S
C4765 H4759 0.950 . S
C4765 C4764 1.327 . S
C4765 C4769 1.429 . S
C4766 C4749 1.574 . S
C4766 H4760 0.949 . S
C4766 C4770 1.368 . S
C4767 C4748 1.429 . S
C4767 C4761 1.429 . S
C4767 C4768 1.523 . S
C4768 C4749 1.368 . S
C4768 C4762 1.368 . S
C4768 C4767 1.523 . S
C4769 C4753 1.429 . S
C4769 C4765 1.429 . S
C4769 C4770 1.523 . S
C4770 C4754 1.368 . S
C4770 C4766 1.368 . S
C4770 C4769 1.523 . S
H4771 C4746 0.950 . S
H4772 C4748 0.950 . S
H4773 C4749 0.949 . S
H4774 C4751 0.950 . S
H4775 C4753 0.950 . S
C4776 C4777 1.349 . S
C4776 C4778 1.327 . S
C4776 H4801 0.950 . S
C4777 C4776 1.349 . S
C4777 C4793 1.349 . S
C4778 C4776 1.327 . S
C4778 C4797 1.429 . S
C4778 H4802 0.950 . S
C4779 C4796 1.574 . S
C4779 C4798 1.368 . S
C4779 H4803 0.949 . S
H4780 C4784 0.949 . S
C4781 C4782 1.349 . S
C4781 C4783 1.327 . S
C4781 H4804 0.950 . S
C4782 C4781 1.349 . S
C4782 C4794 1.349 . S
C4783 C4781 1.327 . S
C4783 C4799 1.429 . S
C4783 H4805 0.950 . S
C4784 H4780 0.949 . S
C4784 C4792 1.574 . S
C4784 C4800 1.368 . S
H4785 C4793 0.950 . S
H4786 C4791 0.950 . S
H4787 C4792 0.949 . S
H4788 C4794 0.950 . S
H4789 C4795 0.950 . S
H4790 C4796 0.949 . S
C4791 H4786 0.950 . S
C4791 C4793 1.327 . S
C4791 C4797 1.429 . S
C4792 C4784 1.574 . S
C4792 H4787 0.949 . S
C4792 C4798 1.368 . S
C4793 C4777 1.349 . S
C4793 H4785 0.950 . S
C4793 C4791 1.327 . S
C4794 C4782 1.349 . S
C4794 H4788 0.950 . S
C4794 C4795 1.327 . S
C4795 H4789 0.950 . S
C4795 C4794 1.327 . S
C4795 C4799 1.429 . S
C4796 C4779 1.574 . S
C4796 H4790 0.949 . S
C4796 C4800 1.368 . S
C4797 C4778 1.429 . S
C4797 C4791 1.429 . S
C4797 C4798 1.523 . S
C4798 C4779 1.368 . S
C4798 C4792 1.368 . S
C4798 C4797 1.523 . S
C4799 C4783 1.429 . S
C4799 C4795 1.429 . S
C4799 C4800 1.523 . S
C4800 C4784 1.368 . S
C4800 C4796 1.368 . S
C4800 C4799 1.523 . S
H4801 C4776 0.950 . S
H4802 C4778 0.950 . S
H4803 C4779 0.949 . S
H4804 C4781 0.950 . S
H4805 C4783 0.950 . S
C4806 C4807 1.349 . S
C4806 C4808 1.327 . S
C4806 H4831 0.950 . S
C4807 C4806 1.349 . S
C4807 C4823 1.349 . S
C4808 C4806 1.327 . S
C4808 C4827 1.429 . S
C4808 H4832 0.950 . S
C4809 C4826 1.574 . S
C4809 C4828 1.368 . S
C4809 H4833 0.949 . S
H4810 C4814 0.949 . S
C4811 C4812 1.349 . S
C4811 C4813 1.327 . S
C4811 H4834 0.950 . S
C4812 C4811 1.349 . S
C4812 C4824 1.349 . S
C4813 C4811 1.327 . S
C4813 C4829 1.429 . S
C4813 H4835 0.950 . S
C4814 H4810 0.949 . S
C4814 C4822 1.574 . S
C4814 C4830 1.368 . S
H4815 C4823 0.950 . S
H4816 C4821 0.950 . S
H4817 C4822 0.949 . S
H4818 C4824 0.950 . S
H4819 C4825 0.950 . S
H4820 C4826 0.949 . S
C4821 H4816 0.950 . S
C4821 C4823 1.327 . S
C4821 C4827 1.429 . S
C4822 C4814 1.574 . S
C4822 H4817 0.949 . S
C4822 C4828 1.368 . S
C4823 C4807 1.349 . S
C4823 H4815 0.950 . S
C4823 C4821 1.327 . S
C4824 C4812 1.349 . S
C4824 H4818 0.950 . S
C4824 C4825 1.327 . S
C4825 H4819 0.950 . S
C4825 C4824 1.327 . S
C4825 C4829 1.429 . S
C4826 C4809 1.574 . S
C4826 H4820 0.949 . S
C4826 C4830 1.368 . S
C4827 C4808 1.429 . S
C4827 C4821 1.429 . S
C4827 C4828 1.523 . S
C4828 C4809 1.368 . S
C4828 C4822 1.368 . S
C4828 C4827 1.523 . S
C4829 C4813 1.429 . S
C4829 C4825 1.429 . S
C4829 C4830 1.523 . S
C4830 C4814 1.368 . S
C4830 C4826 1.368 . S
C4830 C4829 1.523 . S
H4831 C4806 0.950 . S
H4832 C4808 0.950 . S
H4833 C4809 0.949 . S
H4834 C4811 0.950 . S
H4835 C4813 0.950 . S
C4836 C4837 1.349 . S
C4836 C4838 1.327 . S
C4836 H4861 0.950 . S
C4837 C4836 1.349 . S
C4837 C4853 1.349 . S
C4838 C4836 1.327 . S
C4838 C4857 1.429 . S
C4838 H4862 0.950 . S
C4839 C4856 1.574 . S
C4839 C4858 1.368 . S
C4839 H4863 0.949 . S
H4840 C4844 0.949 . S
C4841 C4842 1.349 . S
C4841 C4843 1.327 . S
C4841 H4864 0.950 . S
C4842 C4841 1.349 . S
C4842 C4854 1.349 . S
C4843 C4841 1.327 . S
C4843 C4859 1.429 . S
C4843 H4865 0.950 . S
C4844 H4840 0.949 . S
C4844 C4852 1.574 . S
C4844 C4860 1.368 . S
H4845 C4853 0.950 . S
H4846 C4851 0.950 . S
H4847 C4852 0.949 . S
H4848 C4854 0.950 . S
H4849 C4855 0.950 . S
H4850 C4856 0.949 . S
C4851 H4846 0.950 . S
C4851 C4853 1.327 . S
C4851 C4857 1.429 . S
C4852 C4844 1.574 . S
C4852 H4847 0.949 . S
C4852 C4858 1.368 . S
C4853 C4837 1.349 . S
C4853 H4845 0.950 . S
C4853 C4851 1.327 . S
C4854 C4842 1.349 . S
C4854 H4848 0.950 . S
C4854 C4855 1.327 . S
C4855 H4849 0.950 . S
C4855 C4854 1.327 . S
C4855 C4859 1.429 . S
C4856 C4839 1.574 . S
C4856 H4850 0.949 . S
C4856 C4860 1.368 . S
C4857 C4838 1.429 . S
C4857 C4851 1.429 . S
C4857 C4858 1.523 . S
C4858 C4839 1.368 . S
C4858 C4852 1.368 . S
C4858 C4857 1.523 . S
C4859 C4843 1.429 . S
C4859 C4855 1.429 . S
C4859 C4860 1.523 . S
C4860 C4844 1.368 . S
C4860 C4856 1.368 . S
C4860 C4859 1.523 . S
H4861 C4836 0.950 . S
H4862 C4838 0.950 . S
H4863 C4839 0.949 . S
H4864 C4841 0.950 . S
H4865 C4843 0.950 . S
C4866 C4867 1.349 . S
C4866 C4868 1.327 . S
C4866 H4891 0.950 . S
C4867 C4866 1.349 . S
C4867 C4883 1.349 . S
C4868 C4866 1.327 . S
C4868 C4887 1.429 . S
C4868 H4892 0.950 . S
C4869 C4886 1.574 . S
C4869 C4888 1.368 . S
C4869 H4893 0.949 . S
H4870 C4874 0.949 . S
C4871 C4872 1.349 . S
C4871 C4873 1.327 . S
C4871 H4894 0.950 . S
C4872 C4871 1.349 . S
C4872 C4884 1.349 . S
C4873 C4871 1.327 . S
C4873 C4889 1.429 . S
C4873 H4895 0.950 . S
C4874 H4870 0.949 . S
C4874 C4882 1.574 . S
C4874 C4890 1.368 . S
H4875 C4883 0.950 . S
H4876 C4881 0.950 . S
H4877 C4882 0.949 . S
H4878 C4884 0.950 . S
H4879 C4885 0.950 . S
H4880 C4886 0.949 . S
C4881 H4876 0.950 . S
C4881 C4883 1.327 . S
C4881 C4887 1.429 . S
C4882 C4874 1.574 . S
C4882 H4877 0.949 . S
C4882 C4888 1.368 . S
C4883 C4867 1.349 . S
C4883 H4875 0.950 . S
C4883 C4881 1.327 . S
C4884 C4872 1.349 . S
C4884 H4878 0.950 . S
C4884 C4885 1.327 . S
C4885 H4879 0.950 . S
C4885 C4884 1.327 . S
C4885 C4889 1.429 . S
C4886 C4869 1.574 . S
C4886 H4880 0.949 . S
C4886 C4890 1.368 . S
C4887 C4868 1.429 . S
C4887 C4881 1.429 . S
C4887 C4888 1.523 . S
C4888 C4869 1.368 . S
C4888 C4882 1.368 . S
C4888 C4887 1.523 . S
C4889 C4873 1.429 . S
C4889 C4885 1.429 . S
C4889 C4890 1.523 . S
C4890 C4874 1.368 . S
C4890 C4886 1.368 . S
C4890 C4889 1.523 . S
H4891 C4866 0.950 . S
H4892 C4868 0.950 . S
H4893 C4869 0.949 . S
H4894 C4871 0.950 . S
H4895 C4873 0.950 . S
C4896 C4897 1.349 . S
C4896 C4898 1.327 . S
C4896 H4921 0.950 . S
C4897 C4896 1.349 . S
C4897 C4913 1.349 . S
C4898 C4896 1.327 . S
C4898 C4917 1.429 . S
C4898 H4922 0.950 . S
C4899 C4916 1.574 . S
C4899 C4918 1.368 . S
C4899 H4923 0.949 . S
H4900 C4904 0.949 . S
C4901 C4902 1.349 . S
C4901 C4903 1.327 . S
C4901 H4924 0.950 . S
C4902 C4901 1.349 . S
C4902 C4914 1.349 . S
C4903 C4901 1.327 . S
C4903 C4919 1.429 . S
C4903 H4925 0.950 . S
C4904 H4900 0.949 . S
C4904 C4912 1.574 . S
C4904 C4920 1.368 . S
H4905 C4913 0.950 . S
H4906 C4911 0.950 . S
H4907 C4912 0.949 . S
H4908 C4914 0.950 . S
H4909 C4915 0.950 . S
H4910 C4916 0.949 . S
C4911 H4906 0.950 . S
C4911 C4913 1.327 . S
C4911 C4917 1.429 . S
C4912 C4904 1.574 . S
C4912 H4907 0.949 . S
C4912 C4918 1.368 . S
C4913 C4897 1.349 . S
C4913 H4905 0.950 . S
C4913 C4911 1.327 . S
C4914 C4902 1.349 . S
C4914 H4908 0.950 . S
C4914 C4915 1.327 . S
C4915 H4909 0.950 . S
C4915 C4914 1.327 . S
C4915 C4919 1.429 . S
C4916 C4899 1.574 . S
C4916 H4910 0.949 . S
C4916 C4920 1.368 . S
C4917 C4898 1.429 . S
C4917 C4911 1.429 . S
C4917 C4918 1.523 . S
C4918 C4899 1.368 . S
C4918 C4912 1.368 . S
C4918 C4917 1.523 . S
C4919 C4903 1.429 . S
C4919 C4915 1.429 . S
C4919 C4920 1.523 . S
C4920 C4904 1.368 . S
C4920 C4916 1.368 . S
C4920 C4919 1.523 . S
H4921 C4896 0.950 . S
H4922 C4898 0.950 . S
H4923 C4899 0.949 . S
H4924 C4901 0.950 . S
H4925 C4903 0.950 . S
C4926 C4927 1.349 . S
C4926 C4928 1.327 . S
C4926 H4951 0.950 . S
C4927 C4926 1.349 . S
C4927 C4943 1.349 . S
C4928 C4926 1.327 . S
C4928 C4947 1.429 . S
C4928 H4952 0.950 . S
C4929 C4946 1.574 . S
C4929 C4948 1.368 . S
C4929 H4953 0.949 . S
H4930 C4934 0.949 . S
C4931 C4932 1.349 . S
C4931 C4933 1.327 . S
C4931 H4954 0.950 . S
C4932 C4931 1.349 . S
C4932 C4944 1.349 . S
C4933 C4931 1.327 . S
C4933 C4949 1.429 . S
C4933 H4955 0.950 . S
C4934 H4930 0.949 . S
C4934 C4942 1.574 . S
C4934 C4950 1.368 . S
H4935 C4943 0.950 . S
H4936 C4941 0.950 . S
H4937 C4942 0.949 . S
H4938 C4944 0.950 . S
H4939 C4945 0.950 . S
H4940 C4946 0.949 . S
C4941 H4936 0.950 . S
C4941 C4943 1.327 . S
C4941 C4947 1.429 . S
C4942 C4934 1.574 . S
C4942 H4937 0.949 . S
C4942 C4948 1.368 . S
C4943 C4927 1.349 . S
C4943 H4935 0.950 . S
C4943 C4941 1.327 . S
C4944 C4932 1.349 . S
C4944 H4938 0.950 . S
C4944 C4945 1.327 . S
C4945 H4939 0.950 . S
C4945 C4944 1.327 . S
C4945 C4949 1.429 . S
C4946 C4929 1.574 . S
C4946 H4940 0.949 . S
C4946 C4950 1.368 . S
C4947 C4928 1.429 . S
C4947 C4941 1.429 . S
C4947 C4948 1.523 . S
C4948 C4929 1.368 . S
C4948 C4942 1.368 . S
C4948 C4947 1.523 . S
C4949 C4933 1.429 . S
C4949 C4945 1.429 . S
C4949 C4950 1.523 . S
C4950 C4934 1.368 . S
C4950 C4946 1.368 . S
C4950 C4949 1.523 . S
H4951 C4926 0.950 . S
H4952 C4928 0.950 . S
H4953 C4929 0.949 . S
H4954 C4931 0.950 . S
H4955 C4933 0.950 . S
C4956 C4957 1.349 . S
C4956 C4958 1.327 . S
C4956 H4981 0.950 . S
C4957 C4956 1.349 . S
C4957 C4973 1.349 . S
C4958 C4956 1.327 . S
C4958 C4977 1.429 . S
C4958 H4982 0.950 . S
C4959 C4976 1.574 . S
C4959 C4978 1.368 . S
C4959 H4983 0.949 . S
H4960 C4964 0.949 . S
C4961 C4962 1.349 . S
C4961 C4963 1.327 . S
C4961 H4984 0.950 . S
C4962 C4961 1.349 . S
C4962 C4974 1.349 . S
C4963 C4961 1.327 . S
C4963 C4979 1.429 . S
C4963 H4985 0.950 . S
C4964 H4960 0.949 . S
C4964 C4972 1.574 . S
C4964 C4980 1.368 . S
H4965 C4973 0.950 . S
H4966 C4971 0.950 . S
H4967 C4972 0.949 . S
H4968 C4974 0.950 . S
H4969 C4975 0.950 . S
H4970 C4976 0.949 . S
C4971 H4966 0.950 . S
C4971 C4973 1.327 . S
C4971 C4977 1.429 . S
C4972 C4964 1.574 . S
C4972 H4967 0.949 . S
C4972 C4978 1.368 . S
C4973 C4957 1.349 . S
C4973 H4965 0.950 . S
C4973 C4971 1.327 . S
C4974 C4962 1.349 . S
C4974 H4968 0.950 . S
C4974 C4975 1.327 . S
C4975 H4969 0.950 . S
C4975 C4974 1.327 . S
C4975 C4979 1.429 . S
C4976 C4959 1.574 . S
C4976 H4970 0.949 . S
C4976 C4980 1.368 . S
C4977 C4958 1.429 . S
C4977 C4971 1.429 . S
C4977 C4978 1.523 . S
C4978 C4959 1.368 . S
C4978 C4972 1.368 . S
C4978 C4977 1.523 . S
C4979 C4963 1.429 . S
C4979 C4975 1.429 . S
C4979 C4980 1.523 . S
C4980 C4964 1.368 . S
C4980 C4976 1.368 . S
C4980 C4979 1.523 . S
H4981 C4956 0.950 . S
H4982 C4958 0.950 . S
H4983 C4959 0.949 . S
H4984 C4961 0.950 . S
H4985 C4963 0.950 . S
C4986 C4987 1.349 . S
C4986 C4988 1.327 . S
C4986 H5011 0.950 . S
C4987 C4986 1.349 . S
C4987 C5003 1.349 . S
C4988 C4986 1.327 . S
C4988 C5007 1.429 . S
C4988 H5012 0.950 . S
C4989 C5006 1.574 . S
C4989 C5008 1.368 . S
C4989 H5013 0.949 . S
H4990 C4994 0.949 . S
C4991 C4992 1.349 . S
C4991 C4993 1.327 . S
C4991 H5014 0.950 . S
C4992 C4991 1.349 . S
C4992 C5004 1.349 . S
C4993 C4991 1.327 . S
C4993 C5009 1.429 . S
C4993 H5015 0.950 . S
C4994 H4990 0.949 . S
C4994 C5002 1.574 . S
C4994 C5010 1.368 . S
H4995 C5003 0.950 . S
H4996 C5001 0.950 . S
H4997 C5002 0.949 . S
H4998 C5004 0.950 . S
H4999 C5005 0.950 . S
H5000 C5006 0.949 . S
C5001 H4996 0.950 . S
C5001 C5003 1.327 . S
C5001 C5007 1.429 . S
C5002 C4994 1.574 . S
C5002 H4997 0.949 . S
C5002 C5008 1.368 . S
C5003 C4987 1.349 . S
C5003 H4995 0.950 . S
C5003 C5001 1.327 . S
C5004 C4992 1.349 . S
C5004 H4998 0.950 . S
C5004 C5005 1.327 . S
C5005 H4999 0.950 . S
C5005 C5004 1.327 . S
C5005 C5009 1.429 . S
C5006 C4989 1.574 . S
C5006 H5000 0.949 . S
C5006 C5010 1.368 . S
C5007 C4988 1.429 . S
C5007 C5001 1.429 . S
C5007 C5008 1.523 . S
C5008 C4989 1.368 . S
C5008 C5002 1.368 . S
C5008 C5007 1.523 . S
C5009 C4993 1.429 . S
C5009 C5005 1.429 . S
C5009 C5010 1.523 . S
C5010 C4994 1.368 . S
C5010 C5006 1.368 . S
C5010 C5009 1.523 . S
H5011 C4986 0.950 . S
H5012 C4988 0.950 . S
H5013 C4989 0.949 . S
H5014 C4991 0.950 . S
H5015 C4993 0.950 . S
C5016 C5017 1.349 . S
C5016 C5018 1.327 . S
C5016 H5041 0.950 . S
C5017 C5016 1.349 . S
C5017 C5033 1.349 . S
C5018 C5016 1.327 . S
C5018 C5037 1.429 . S
C5018 H5042 0.950 . S
C5019 C5036 1.574 . S
C5019 C5038 1.368 . S
C5019 H5043 0.949 . S
H5020 C5024 0.949 . S
C5021 C5022 1.349 . S
C5021 C5023 1.327 . S
C5021 H5044 0.950 . S
C5022 C5021 1.349 . S
C5022 C5034 1.349 . S
C5023 C5021 1.327 . S
C5023 C5039 1.429 . S
C5023 H5045 0.950 . S
C5024 H5020 0.949 . S
C5024 C5032 1.574 . S
C5024 C5040 1.368 . S
H5025 C5033 0.950 . S
H5026 C5031 0.950 . S
H5027 C5032 0.949 . S
H5028 C5034 0.950 . S
H5029 C5035 0.950 . S
H5030 C5036 0.949 . S
C5031 H5026 0.950 . S
C5031 C5033 1.327 . S
C5031 C5037 1.429 . S
C5032 C5024 1.574 . S
C5032 H5027 0.949 . S
C5032 C5038 1.368 . S
C5033 C5017 1.349 . S
C5033 H5025 0.950 . S
C5033 C5031 1.327 . S
C5034 C5022 1.349 . S
C5034 H5028 0.950 . S
C5034 C5035 1.327 . S
C5035 H5029 0.950 . S
C5035 C5034 1.327 . S
C5035 C5039 1.429 . S
C5036 C5019 1.574 . S
C5036 H5030 0.949 . S
C5036 C5040 1.368 . S
C5037 C5018 1.429 . S
C5037 C5031 1.429 . S
C5037 C5038 1.523 . S
C5038 C5019 1.368 . S
C5038 C5032 1.368 . S
C5038 C5037 1.523 . S
C5039 C5023 1.429 . S
C5039 C5035 1.429 . S
C5039 C5040 1.523 . S
C5040 C5024 1.368 . S
C5040 C5036 1.368 . S
C5040 C5039 1.523 . S
H5041 C5016 0.950 . S
H5042 C5018 0.950 . S
H5043 C5019 0.949 . S
H5044 C5021 0.950 . S
H5045 C5023 0.950 . S
C5046 C5047 1.349 . S
C5046 C5048 1.327 . S
C5046 H5071 0.950 . S
C5047 C5046 1.349 . S
C5047 C5063 1.349 . S
C5048 C5046 1.327 . S
C5048 C5067 1.429 . S
C5048 H5072 0.950 . S
C5049 C5066 1.574 . S
C5049 C5068 1.368 . S
C5049 H5073 0.949 . S
H5050 C5054 0.949 . S
C5051 C5052 1.349 . S
C5051 C5053 1.327 . S
C5051 H5074 0.950 . S
C5052 C5051 1.349 . S
C5052 C5064 1.349 . S
C5053 C5051 1.327 . S
C5053 C5069 1.429 . S
C5053 H5075 0.950 . S
C5054 H5050 0.949 . S
C5054 C5062 1.574 . S
C5054 C5070 1.368 . S
H5055 C5063 0.950 . S
H5056 C5061 0.950 . S
H5057 C5062 0.949 . S
H5058 C5064 0.950 . S
H5059 C5065 0.950 . S
H5060 C5066 0.949 . S
C5061 H5056 0.950 . S
C5061 C5063 1.327 . S
C5061 C5067 1.429 . S
C5062 C5054 1.574 . S
C5062 H5057 0.949 . S
C5062 C5068 1.368 . S
C5063 C5047 1.349 . S
C5063 H5055 0.950 . S
C5063 C5061 1.327 . S
C5064 C5052 1.349 . S
C5064 H5058 0.950 . S
C5064 C5065 1.327 . S
C5065 H5059 0.950 . S
C5065 C5064 1.327 . S
C5065 C5069 1.429 . S
C5066 C5049 1.574 . S
C5066 H5060 0.949 . S
C5066 C5070 1.368 . S
C5067 C5048 1.429 . S
C5067 C5061 1.429 . S
C5067 C5068 1.523 . S
C5068 C5049 1.368 . S
C5068 C5062 1.368 . S
C5068 C5067 1.523 . S
C5069 C5053 1.429 . S
C5069 C5065 1.429 . S
C5069 C5070 1.523 . S
C5070 C5054 1.368 . S
C5070 C5066 1.368 . S
C5070 C5069 1.523 . S
H5071 C5046 0.950 . S
H5072 C5048 0.950 . S
H5073 C5049 0.949 . S
H5074 C5051 0.950 . S
H5075 C5053 0.950 . S
C5076 C5077 1.349 . S
C5076 C5078 1.327 . S
C5076 H5101 0.950 . S
C5077 C5076 1.349 . S
C5077 C5093 1.349 . S
C5078 C5076 1.327 . S
C5078 C5097 1.429 . S
C5078 H5102 0.950 . S
C5079 C5096 1.574 . S
C5079 C5098 1.368 . S
C5079 H5103 0.949 . S
H5080 C5084 0.949 . S
C5081 C5082 1.349 . S
C5081 C5083 1.327 . S
C5081 H5104 0.950 . S
C5082 C5081 1.349 . S
C5082 C5094 1.349 . S
C5083 C5081 1.327 . S
C5083 C5099 1.429 . S
C5083 H5105 0.950 . S
C5084 H5080 0.949 . S
C5084 C5092 1.574 . S
C5084 C5100 1.368 . S
H5085 C5093 0.950 . S
H5086 C5091 0.950 . S
H5087 C5092 0.949 . S
H5088 C5094 0.950 . S
H5089 C5095 0.950 . S
H5090 C5096 0.949 . S
C5091 H5086 0.950 . S
C5091 C5093 1.327 . S
C5091 C5097 1.429 . S
C5092 C5084 1.574 . S
C5092 H5087 0.949 . S
C5092 C5098 1.368 . S
C5093 C5077 1.349 . S
C5093 H5085 0.950 . S
C5093 C5091 1.327 . S
C5094 C5082 1.349 . S
C5094 H5088 0.950 . S
C5094 C5095 1.327 . S
C5095 H5089 0.950 . S
C5095 C5094 1.327 . S
C5095 C5099 1.429 . S
C5096 C5079 1.574 . S
C5096 H5090 0.949 . S
C5096 C5100 1.368 . S
C5097 C5078 1.429 . S
C5097 C5091 1.429 . S
C5097 C5098 1.523 . S
C5098 C5079 1.368 . S
C5098 C5092 1.368 . S
C5098 C5097 1.523 . S
C5099 C5083 1.429 . S
C5099 C5095 1.429 . S
C5099 C5100 1.523 . S
C5100 C5084 1.368 . S
C5100 C5096 1.368 . S
C5100 C5099 1.523 . S
H5101 C5076 0.950 . S
H5102 C5078 0.950 . S
H5103 C5079 0.949 . S
H5104 C5081 0.950 . S
H5105 C5083 0.950 . S
C5106 C5107 1.349 . S
C5106 C5108 1.327 . S
C5106 H5131 0.950 . S
C5107 C5106 1.349 . S
C5107 C5123 1.349 . S
C5108 C5106 1.327 . S
C5108 C5127 1.429 . S
C5108 H5132 0.950 . S
C5109 C5126 1.574 . S
C5109 C5128 1.368 . S
C5109 H5133 0.949 . S
H5110 C5114 0.949 . S
C5111 C5112 1.349 . S
C5111 C5113 1.327 . S
C5111 H5134 0.950 . S
C5112 C5111 1.349 . S
C5112 C5124 1.349 . S
C5113 C5111 1.327 . S
C5113 C5129 1.429 . S
C5113 H5135 0.950 . S
C5114 H5110 0.949 . S
C5114 C5122 1.574 . S
C5114 C5130 1.368 . S
H5115 C5123 0.950 . S
H5116 C5121 0.950 . S
H5117 C5122 0.949 . S
H5118 C5124 0.950 . S
H5119 C5125 0.950 . S
H5120 C5126 0.949 . S
C5121 H5116 0.950 . S
C5121 C5123 1.327 . S
C5121 C5127 1.429 . S
C5122 C5114 1.574 . S
C5122 H5117 0.949 . S
C5122 C5128 1.368 . S
C5123 C5107 1.349 . S
C5123 H5115 0.950 . S
C5123 C5121 1.327 . S
C5124 C5112 1.349 . S
C5124 H5118 0.950 . S
C5124 C5125 1.327 . S
C5125 H5119 0.950 . S
C5125 C5124 1.327 . S
C5125 C5129 1.429 . S
C5126 C5109 1.574 . S
C5126 H5120 0.949 . S
C5126 C5130 1.368 . S
C5127 C5108 1.429 . S
C5127 C5121 1.429 . S
C5127 C5128 1.523 . S
C5128 C5109 1.368 . S
C5128 C5122 1.368 . S
C5128 C5127 1.523 . S
C5129 C5113 1.429 . S
C5129 C5125 1.429 . S
C5129 C5130 1.523 . S
C5130 C5114 1.368 . S
C5130 C5126 1.368 . S
C5130 C5129 1.523 . S
H5131 C5106 0.950 . S
H5132 C5108 0.950 . S
H5133 C5109 0.949 . S
H5134 C5111 0.950 . S
H5135 C5113 0.950 . S
C5136 C5137 1.349 . S
C5136 C5138 1.327 . S
C5136 H5161 0.950 . S
C5137 C5136 1.349 . S
C5137 C5153 1.349 . S
C5138 C5136 1.327 . S
C5138 C5157 1.429 . S
C5138 H5162 0.950 . S
C5139 C5156 1.574 . S
C5139 C5158 1.368 . S
C5139 H5163 0.949 . S
H5140 C5144 0.949 . S
C5141 C5142 1.349 . S
C5141 C5143 1.327 . S
C5141 H5164 0.950 . S
C5142 C5141 1.349 . S
C5142 C5154 1.349 . S
C5143 C5141 1.327 . S
C5143 C5159 1.429 . S
C5143 H5165 0.950 . S
C5144 H5140 0.949 . S
C5144 C5152 1.574 . S
C5144 C5160 1.368 . S
H5145 C5153 0.950 . S
H5146 C5151 0.950 . S
H5147 C5152 0.949 . S
H5148 C5154 0.950 . S
H5149 C5155 0.950 . S
H5150 C5156 0.949 . S
C5151 H5146 0.950 . S
C5151 C5153 1.327 . S
C5151 C5157 1.429 . S
C5152 C5144 1.574 . S
C5152 H5147 0.949 . S
C5152 C5158 1.368 . S
C5153 C5137 1.349 . S
C5153 H5145 0.950 . S
C5153 C5151 1.327 . S
C5154 C5142 1.349 . S
C5154 H5148 0.950 . S
C5154 C5155 1.327 . S
C5155 H5149 0.950 . S
C5155 C5154 1.327 . S
C5155 C5159 1.429 . S
C5156 C5139 1.574 . S
C5156 H5150 0.949 . S
C5156 C5160 1.368 . S
C5157 C5138 1.429 . S
C5157 C5151 1.429 . S
C5157 C5158 1.523 . S
C5158 C5139 1.368 . S
C5158 C5152 1.368 . S
C5158 C5157 1.523 . S
C5159 C5143 1.429 . S
C5159 C5155 1.429 . S
C5159 C5160 1.523 . S
C5160 C5144 1.368 . S
C5160 C5156 1.368 . S
C5160 C5159 1.523 . S
H5161 C5136 0.950 . S
H5162 C5138 0.950 . S
H5163 C5139 0.949 . S
H5164 C5141 0.950 . S
H5165 C5143 0.950 . S
C5166 C5167 1.349 . S
C5166 C5168 1.327 . S
C5166 H5191 0.950 . S
C5167 C5166 1.349 . S
C5167 C5183 1.349 . S
C5168 C5166 1.327 . S
C5168 C5187 1.429 . S
C5168 H5192 0.950 . S
C5169 C5186 1.574 . S
C5169 C5188 1.368 . S
C5169 H5193 0.949 . S
H5170 C5174 0.949 . S
C5171 C5172 1.349 . S
C5171 C5173 1.327 . S
C5171 H5194 0.950 . S
C5172 C5171 1.349 . S
C5172 C5184 1.349 . S
C5173 C5171 1.327 . S
C5173 C5189 1.429 . S
C5173 H5195 0.950 . S
C5174 H5170 0.949 . S
C5174 C5182 1.574 . S
C5174 C5190 1.368 . S
H5175 C5183 0.950 . S
H5176 C5181 0.950 . S
H5177 C5182 0.949 . S
H5178 C5184 0.950 . S
H5179 C5185 0.950 . S
H5180 C5186 0.949 . S
C5181 H5176 0.950 . S
C5181 C5183 1.327 . S
C5181 C5187 1.429 . S
C5182 C5174 1.574 . S
C5182 H5177 0.949 . S
C5182 C5188 1.368 . S
C5183 C5167 1.349 . S
C5183 H5175 0.950 . S
C5183 C5181 1.327 . S
C5184 C5172 1.349 . S
C5184 H5178 0.950 . S
C5184 C5185 1.327 . S
C5185 H5179 0.950 . S
C5185 C5184 1.327 . S
C5185 C5189 1.429 . S
C5186 C5169 1.574 . S
C5186 H5180 0.949 . S
C5186 C5190 1.368 . S
C5187 C5168 1.429 . S
C5187 C5181 1.429 . S
C5187 C5188 1.523 . S
C5188 C5169 1.368 . S
C5188 C5182 1.368 . S
C5188 C5187 1.523 . S
C5189 C5173 1.429 . S
C5189 C5185 1.429 . S
C5189 C5190 1.523 . S
C5190 C5174 1.368 . S
C5190 C5186 1.368 . S
C5190 C5189 1.523 . S
H5191 C5166 0.950 . S
H5192 C5168 0.950 . S
H5193 C5169 0.949 . S
H5194 C5171 0.950 . S
H5195 C5173 0.950 . S
C5196 C5197 1.349 . S
C5196 C5198 1.327 . S
C5196 H5221 0.950 . S
C5197 C5196 1.349 . S
C5197 C5213 1.349 . S
C5198 C5196 1.327 . S
C5198 C5217 1.429 . S
C5198 H5222 0.950 . S
C5199 C5216 1.574 . S
C5199 C5218 1.368 . S
C5199 H5223 0.949 . S
H5200 C5204 0.949 . S
C5201 C5202 1.349 . S
C5201 C5203 1.327 . S
C5201 H5224 0.950 . S
C5202 C5201 1.349 . S
C5202 C5214 1.349 . S
C5203 C5201 1.327 . S
C5203 C5219 1.429 . S
C5203 H5225 0.950 . S
C5204 H5200 0.949 . S
C5204 C5212 1.574 . S
C5204 C5220 1.368 . S
H5205 C5213 0.950 . S
H5206 C5211 0.950 . S
H5207 C5212 0.949 . S
H5208 C5214 0.950 . S
H5209 C5215 0.950 . S
H5210 C5216 0.949 . S
C5211 H5206 0.950 . S
C5211 C5213 1.327 . S
C5211 C5217 1.429 . S
C5212 C5204 1.574 . S
C5212 H5207 0.949 . S
C5212 C5218 1.368 . S
C5213 C5197 1.349 . S
C5213 H5205 0.950 . S
C5213 C5211 1.327 . S
C5214 C5202 1.349 . S
C5214 H5208 0.950 . S
C5214 C5215 1.327 . S
C5215 H5209 0.950 . S
C5215 C5214 1.327 . S
C5215 C5219 1.429 . S
C5216 C5199 1.574 . S
C5216 H5210 0.949 . S
C5216 C5220 1.368 . S
C5217 C5198 1.429 . S
C5217 C5211 1.429 . S
C5217 C5218 1.523 . S
C5218 C5199 1.368 . S
C5218 C5212 1.368 . S
C5218 C5217 1.523 . S
C5219 C5203 1.429 . S
C5219 C5215 1.429 . S
C5219 C5220 1.523 . S
C5220 C5204 1.368 . S
C5220 C5216 1.368 . S
C5220 C5219 1.523 . S
H5221 C5196 0.950 . S
H5222 C5198 0.950 . S
H5223 C5199 0.949 . S
H5224 C5201 0.950 . S
H5225 C5203 0.950 . S
C5226 C5227 1.349 . S
C5226 C5228 1.327 . S
C5226 H5251 0.950 . S
C5227 C5226 1.349 . S
C5227 C5243 1.349 . S
C5228 C5226 1.327 . S
C5228 C5247 1.429 . S
C5228 H5252 0.950 . S
C5229 C5246 1.574 . S
C5229 C5248 1.368 . S
C5229 H5253 0.949 . S
H5230 C5234 0.949 . S
C5231 C5232 1.349 . S
C5231 C5233 1.327 . S
C5231 H5254 0.950 . S
C5232 C5231 1.349 . S
C5232 C5244 1.349 . S
C5233 C5231 1.327 . S
C5233 C5249 1.429 . S
C5233 H5255 0.950 . S
C5234 H5230 0.949 . S
C5234 C5242 1.574 . S
C5234 C5250 1.368 . S
H5235 C5243 0.950 . S
H5236 C5241 0.950 . S
H5237 C5242 0.949 . S
H5238 C5244 0.950 . S
H5239 C5245 0.950 . S
H5240 C5246 0.949 . S
C5241 H5236 0.950 . S
C5241 C5243 1.327 . S
C5241 C5247 1.429 . S
C5242 C5234 1.574 . S
C5242 H5237 0.949 . S
C5242 C5248 1.368 . S
C5243 C5227 1.349 . S
C5243 H5235 0.950 . S
C5243 C5241 1.327 . S
C5244 C5232 1.349 . S
C5244 H5238 0.950 . S
C5244 C5245 1.327 . S
C5245 H5239 0.950 . S
C5245 C5244 1.327 . S
C5245 C5249 1.429 . S
C5246 C5229 1.574 . S
C5246 H5240 0.949 . S
C5246 C5250 1.368 . S
C5247 C5228 1.429 . S
C5247 C5241 1.429 . S
C5247 C5248 1.523 . S
C5248 C5229 1.368 . S
C5248 C5242 1.368 . S
C5248 C5247 1.523 . S
C5249 C5233 1.429 . S
C5249 C5245 1.429 . S
C5249 C5250 1.523 . S
C5250 C5234 1.368 . S
C5250 C5246 1.368 . S
C5250 C5249 1.523 . S
H5251 C5226 0.950 . S
H5252 C5228 0.950 . S
H5253 C5229 0.949 . S
H5254 C5231 0.950 . S
H5255 C5233 0.950 . S
C5256 C5257 1.349 . S
C5256 C5258 1.327 . S
C5256 H5281 0.950 . S
C5257 C5256 1.349 . S
C5257 C5273 1.349 . S
C5258 C5256 1.327 . S
C5258 C5277 1.429 . S
C5258 H5282 0.950 . S
C5259 C5276 1.574 . S
C5259 C5278 1.368 . S
C5259 H5283 0.949 . S
H5260 C5264 0.949 . S
C5261 C5262 1.349 . S
C5261 C5263 1.327 . S
C5261 H5284 0.950 . S
C5262 C5261 1.349 . S
C5262 C5274 1.349 . S
C5263 C5261 1.327 . S
C5263 C5279 1.429 . S
C5263 H5285 0.950 . S
C5264 H5260 0.949 . S
C5264 C5272 1.574 . S
C5264 C5280 1.368 . S
H5265 C5273 0.950 . S
H5266 C5271 0.950 . S
H5267 C5272 0.949 . S
H5268 C5274 0.950 . S
H5269 C5275 0.950 . S
H5270 C5276 0.949 . S
C5271 H5266 0.950 . S
C5271 C5273 1.327 . S
C5271 C5277 1.429 . S
C5272 C5264 1.574 . S
C5272 H5267 0.949 . S
C5272 C5278 1.368 . S
C5273 C5257 1.349 . S
C5273 H5265 0.950 . S
C5273 C5271 1.327 . S
C5274 C5262 1.349 . S
C5274 H5268 0.950 . S
C5274 C5275 1.327 . S
C5275 H5269 0.950 . S
C5275 C5274 1.327 . S
C5275 C5279 1.429 . S
C5276 C5259 1.574 . S
C5276 H5270 0.949 . S
C5276 C5280 1.368 . S
C5277 C5258 1.429 . S
C5277 C5271 1.429 . S
C5277 C5278 1.523 . S
C5278 C5259 1.368 . S
C5278 C5272 1.368 . S
C5278 C5277 1.523 . S
C5279 C5263 1.429 . S
C5279 C5275 1.429 . S
C5279 C5280 1.523 . S
C5280 C5264 1.368 . S
C5280 C5276 1.368 . S
C5280 C5279 1.523 . S
H5281 C5256 0.950 . S
H5282 C5258 0.950 . S
H5283 C5259 0.949 . S
H5284 C5261 0.950 . S
H5285 C5263 0.950 . S
C5286 C5287 1.349 . S
C5286 C5288 1.327 . S
C5286 H5311 0.950 . S
C5287 C5286 1.349 . S
C5287 C5303 1.349 . S
C5288 C5286 1.327 . S
C5288 C5307 1.429 . S
C5288 H5312 0.950 . S
C5289 C5306 1.574 . S
C5289 C5308 1.368 . S
C5289 H5313 0.949 . S
H5290 C5294 0.949 . S
C5291 C5292 1.349 . S
C5291 C5293 1.327 . S
C5291 H5314 0.950 . S
C5292 C5291 1.349 . S
C5292 C5304 1.349 . S
C5293 C5291 1.327 . S
C5293 C5309 1.429 . S
C5293 H5315 0.950 . S
C5294 H5290 0.949 . S
C5294 C5302 1.574 . S
C5294 C5310 1.368 . S
H5295 C5303 0.950 . S
H5296 C5301 0.950 . S
H5297 C5302 0.949 . S
H5298 C5304 0.950 . S
H5299 C5305 0.950 . S
H5300 C5306 0.949 . S
C5301 H5296 0.950 . S
C5301 C5303 1.327 . S
C5301 C5307 1.429 . S
C5302 C5294 1.574 . S
C5302 H5297 0.949 . S
C5302 C5308 1.368 . S
C5303 C5287 1.349 . S
C5303 H5295 0.950 . S
C5303 C5301 1.327 . S
C5304 C5292 1.349 . S
C5304 H5298 0.950 . S
C5304 C5305 1.327 . S
C5305 H5299 0.950 . S
C5305 C5304 1.327 . S
C5305 C5309 1.429 . S
C5306 C5289 1.574 . S
C5306 H5300 0.949 . S
C5306 C5310 1.368 . S
C5307 C5288 1.429 . S
C5307 C5301 1.429 . S
C5307 C5308 1.523 . S
C5308 C5289 1.368 . S
C5308 C5302 1.368 . S
C5308 C5307 1.523 . S
C5309 C5293 1.429 . S
C5309 C5305 1.429 . S
C5309 C5310 1.523 . S
C5310 C5294 1.368 . S
C5310 C5306 1.368 . S
C5310 C5309 1.523 . S
H5311 C5286 0.950 . S
H5312 C5288 0.950 . S
H5313 C5289 0.949 . S
H5314 C5291 0.950 . S
H5315 C5293 0.950 . S
C5316 C5317 1.349 . S
C5316 C5318 1.327 . S
C5316 H5341 0.950 . S
C5317 C5316 1.349 . S
C5317 C5333 1.349 . S
C5318 C5316 1.327 . S
C5318 C5337 1.429 . S
C5318 H5342 0.950 . S
C5319 C5336 1.574 . S
C5319 C5338 1.368 . S
C5319 H5343 0.949 . S
H5320 C5324 0.949 . S
C5321 C5322 1.349 . S
C5321 C5323 1.327 . S
C5321 H5344 0.950 . S
C5322 C5321 1.349 . S
C5322 C5334 1.349 . S
C5323 C5321 1.327 . S
C5323 C5339 1.429 . S
C5323 H5345 0.950 . S
C5324 H5320 0.949 . S
C5324 C5332 1.574 . S
C5324 C5340 1.368 . S
H5325 C5333 0.950 . S
H5326 C5331 0.950 . S
H5327 C5332 0.949 . S
H5328 C5334 0.950 . S
H5329 C5335 0.950 . S
H5330 C5336 0.949 . S
C5331 H5326 0.950 . S
C5331 C5333 1.327 . S
C5331 C5337 1.429 . S
C5332 C5324 1.574 . S
C5332 H5327 0.949 . S
C5332 C5338 1.368 . S
C5333 C5317 1.349 . S
C5333 H5325 0.950 . S
C5333 C5331 1.327 . S
C5334 C5322 1.349 . S
C5334 H5328 0.950 . S
C5334 C5335 1.327 . S
C5335 H5329 0.950 . S
C5335 C5334 1.327 . S
C5335 C5339 1.429 . S
C5336 C5319 1.574 . S
C5336 H5330 0.949 . S
C5336 C5340 1.368 . S
C5337 C5318 1.429 . S
C5337 C5331 1.429 . S
C5337 C5338 1.523 . S
C5338 C5319 1.368 . S
C5338 C5332 1.368 . S
C5338 C5337 1.523 . S
C5339 C5323 1.429 . S
C5339 C5335 1.429 . S
C5339 C5340 1.523 . S
C5340 C5324 1.368 . S
C5340 C5336 1.368 . S
C5340 C5339 1.523 . S
H5341 C5316 0.950 . S
H5342 C5318 0.950 . S
H5343 C5319 0.949 . S
H5344 C5321 0.950 . S
H5345 C5323 0.950 . S
C5346 C5347 1.349 . S
C5346 C5348 1.327 . S
C5346 H5371 0.950 . S
C5347 C5346 1.349 . S
C5347 C5363 1.349 . S
C5348 C5346 1.327 . S
C5348 C5367 1.429 . S
C5348 H5372 0.950 . S
C5349 C5366 1.574 . S
C5349 C5368 1.368 . S
C5349 H5373 0.949 . S
H5350 C5354 0.949 . S
C5351 C5352 1.349 . S
C5351 C5353 1.327 . S
C5351 H5374 0.950 . S
C5352 C5351 1.349 . S
C5352 C5364 1.349 . S
C5353 C5351 1.327 . S
C5353 C5369 1.429 . S
C5353 H5375 0.950 . S
C5354 H5350 0.949 . S
C5354 C5362 1.574 . S
C5354 C5370 1.368 . S
H5355 C5363 0.950 . S
H5356 C5361 0.950 . S
H5357 C5362 0.949 . S
H5358 C5364 0.950 . S
H5359 C5365 0.950 . S
H5360 C5366 0.949 . S
C5361 H5356 0.950 . S
C5361 C5363 1.327 . S
C5361 C5367 1.429 . S
C5362 C5354 1.574 . S
C5362 H5357 0.949 . S
C5362 C5368 1.368 . S
C5363 C5347 1.349 . S
C5363 H5355 0.950 . S
C5363 C5361 1.327 . S
C5364 C5352 1.349 . S
C5364 H5358 0.950 . S
C5364 C5365 1.327 . S
C5365 H5359 0.950 . S
C5365 C5364 1.327 . S
C5365 C5369 1.429 . S
C5366 C5349 1.574 . S
C5366 H5360 0.949 . S
C5366 C5370 1.368 . S
C5367 C5348 1.429 . S
C5367 C5361 1.429 . S
C5367 C5368 1.523 . S
C5368 C5349 1.368 . S
C5368 C5362 1.368 . S
C5368 C5367 1.523 . S
C5369 C5353 1.429 . S
C5369 C5365 1.429 . S
C5369 C5370 1.523 . S
C5370 C5354 1.368 . S
C5370 C5366 1.368 . S
C5370 C5369 1.523 . S
H5371 C5346 0.950 . S
H5372 C5348 0.950 . S
H5373 C5349 0.949 . S
H5374 C5351 0.950 . S
H5375 C5353 0.950 . S
C1057 C9 1.312 . S
C1062 C72 1.312 . S
C1087 C6 1.312 . S
C1092 C27 1.312 . S
C1117 C29 1.312 . S
C1122 C49 1.312 . S
C1147 C51 1.312 . S
C1152 C75 1.312 . S
C1177 C93 1.312 . S
C1182 C117 1.312 . S
C1207 C115 1.312 . S
C1212 C138 1.312 . S
C1237 C141 1.312 . S
C1242 C160 1.312 . S
C1267 C163 1.312 . S
C1272 C95 1.312 . S
C1297 C185 1.312 . S
C1302 C402 1.312 . S
C1327 C425 1.312 . S
C1332 C207 1.312 . S
C1357 C447 1.312 . S
C1362 C225 1.312 . S
C1387 C381 1.312 . S
C1392 C247 1.312 . S
C1417 C273 1.312 . S
C1422 C490 1.312 . S
C1447 C295 1.312 . S
C1452 C359 1.312 . S
C1477 C313 1.312 . S
C1482 C513 1.312 . S
C1507 C339 1.312 . S
C1512 C468 1.312 . S
C1537 C204 1.312 . S
C1542 C357 1.312 . S
C1567 C379 1.312 . S
C1572 C336 1.312 . S
C1597 C405 1.312 . S
C1602 C270 1.312 . S
C1627 C423 1.312 . S
C1632 C292 1.312 . S
C1657 C445 1.312 . S
C1662 C315 1.312 . S
C1687 C249 1.312 . S
C1692 C471 1.312 . S
C1717 C493 1.312 . S
C1722 C182 1.312 . S
C1747 C511 1.312 . S
C1752 C227 1.312 . S
C1777 C600 1.312 . S
C1782 C537 1.312 . S
C1807 C555 1.312 . S
C1812 C534 1.312 . S
C1837 C557 1.312 . S
C1842 C577 1.312 . S
C1867 C603 1.312 . S
C1872 C579 1.312 . S
C1897 C621 1.312 . S
C1902 C645 1.312 . S
C1927 C643 1.312 . S
C1932 C666 1.312 . S
C1957 C669 1.312 . S
C1962 C688 1.312 . S
C1987 C623 1.312 . S
C1992 C691 1.312 . S
C2017 C930 1.312 . S
C2022 C713 1.312 . S
C2047 C735 1.312 . S
C2052 C953 1.312 . S
C2077 C975 1.312 . S
C2082 C753 1.312 . S
C2107 C909 1.312 . S
C2112 C775 1.312 . S
C2137 C801 1.312 . S
C2142 C1018 1.312 . S
C2167 C823 1.312 . S
C2172 C887 1.312 . S
C2197 C1041 1.312 . S
C2202 C841 1.312 . S
C2227 C867 1.312 . S
C2232 C996 1.312 . S
C2257 C732 1.312 . S
C2262 C885 1.312 . S
C2287 C864 1.312 . S
C2292 C907 1.312 . S
C2317 C933 1.312 . S
C2322 C798 1.312 . S
C2347 C951 1.312 . S
C2352 C820 1.312 . S
C2377 C973 1.312 . S
C2382 C843 1.312 . S
C2407 C999 1.312 . S
C2412 C777 1.312 . S
C2437 C710 1.312 . S
C2442 C1021 1.312 . S
C2467 C1039 1.312 . S
C2472 C755 1.312 . S
C2497 C4 1.165 . S
C2502 C356 1.165 . S
C2527 C510 1.165 . S
C2532 C30 1.165 . S
C2557 C52 1.165 . S
C2562 C470 1.165 . S
C2587 C70 1.165 . S
C2592 C492 1.165 . S
C2617 C96 1.165 . S
C2622 C378 1.165 . S
C2647 C404 1.165 . S
C2652 C118 1.165 . S
C2677 C136 1.165 . S
C2682 C422 1.165 . S
C2707 C444 1.165 . S
C2712 C158 1.165 . S
C2737 C180 1.165 . S
C2742 C8 1.165 . S
C2767 C202 1.165 . S
C2772 C26 1.165 . S
C2797 C228 1.165 . S
C2802 C48 1.165 . S
C2827 C250 1.165 . S
C2832 C74 1.165 . S
C2857 C92 1.165 . S
C2862 C268 1.165 . S
C2887 C290 1.165 . S
C2892 C114 1.165 . S
C2917 C316 1.165 . S
C2922 C140 1.165 . S
C2947 C334 1.165 . S
C2952 C162 1.165 . S
C2977 C184 1.165 . S
C2982 C360 1.165 . S
C3007 C382 1.165 . S
C3012 C272 1.165 . S
C3037 C400 1.165 . S
C3042 C294 1.165 . S
C3067 C312 1.165 . S
C3072 C426 1.165 . S
C3097 C338 1.165 . S
C3102 C448 1.165 . S
C3127 C466 1.165 . S
C3132 C224 1.165 . S
C3157 C488 1.165 . S
C3162 C246 1.165 . S
C3187 C514 1.165 . S
C3192 C206 1.165 . S
C3217 C884 1.165 . S
C3222 C532 1.165 . S
C3247 C558 1.165 . S
C3252 C1038 1.165 . S
C3277 C580 1.165 . S
C3282 C998 1.165 . S
C3307 C1020 1.165 . S
C3312 C598 1.165 . S
C3337 C906 1.165 . S
C3342 C624 1.165 . S
C3367 C646 1.165 . S
C3372 C932 1.165 . S
C3397 C950 1.165 . S
C3402 C664 1.165 . S
C3427 C972 1.165 . S
C3432 C686 1.165 . S
C3457 C536 1.165 . S
C3462 C708 1.165 . S
C3487 C554 1.165 . S
C3492 C730 1.165 . S
C3517 C576 1.165 . S
C3522 C756 1.165 . S
C3547 C602 1.165 . S
C3552 C778 1.165 . S
C3577 C620 1.165 . S
C3582 C796 1.165 . S
C3607 C642 1.165 . S
C3612 C818 1.165 . S
C3637 C668 1.165 . S
C3642 C844 1.165 . S
C3667 C862 1.165 . S
C3672 C690 1.165 . S
C3697 C888 1.165 . S
C3702 C712 1.165 . S
C3727 C910 1.165 . S
C3732 C800 1.165 . S
C3757 C928 1.165 . S
C3762 C822 1.165 . S
C3787 C954 1.165 . S
C3792 C840 1.165 . S
C3817 C976 1.165 . S
C3822 C866 1.165 . S
C3847 C994 1.165 . S
C3852 C752 1.165 . S
C3877 C1016 1.165 . S
C3882 C774 1.165 . S
C3907 C734 1.165 . S
C3912 C1042 1.165 . S
C3937 C5 0.601 . S
C3942 C977 0.601 . S
C3967 C911 0.601 . S
C3972 C31 0.601 . S
C3997 C929 0.601 . S
C4002 C53 0.601 . S
C4027 C71 0.601 . S
C4032 C955 0.601 . S
C4057 C1043 0.601 . S
C4062 C97 0.601 . S
C4087 C995 0.601 . S
C4092 C119 0.601 . S
C4117 C1017 0.601 . S
C4122 C137 0.601 . S
C4147 C159 0.601 . S
C4152 C889 0.601 . S
C4177 C181 0.601 . S
C4182 C863 0.601 . S
C4207 C797 0.601 . S
C4212 C203 0.601 . S
C4237 C819 0.601 . S
C4242 C229 0.601 . S
C4267 C845 0.601 . S
C4272 C251 0.601 . S
C4297 C269 0.601 . S
C4302 C731 0.601 . S
C4327 C291 0.601 . S
C4332 C757 0.601 . S
C4357 C317 0.601 . S
C4362 C779 0.601 . S
C4387 C709 0.601 . S
C4392 C335 0.601 . S
C4417 C361 0.601 . S
C4422 C687 0.601 . S
C4447 C383 0.601 . S
C4452 C559 0.601 . S
C4477 C401 0.601 . S
C4482 C581 0.601 . S
C4507 C427 0.601 . S
C4512 C599 0.601 . S
C4537 C449 0.601 . S
C4542 C533 0.601 . S
C4567 C647 0.601 . S
C4572 C467 0.601 . S
C4597 C489 0.601 . S
C4602 C665 0.601 . S
C4627 C515 0.601 . S
C4632 C625 0.601 . S
C4657 C161 0.601 . S
C4662 C711 0.601 . S
C4687 C733 0.601 . S
C4692 C94 0.601 . S
C4717 C116 0.601 . S
C4722 C754 0.601 . S
C4747 C139 0.601 . S
C4752 C776 0.601 . S
C4777 C28 0.601 . S
C4782 C799 0.601 . S
C4807 C821 0.601 . S
C4812 C50 0.601 . S
C4837 C73 0.601 . S
C4842 C842 0.601 . S
C4867 C7 0.601 . S
C4872 C865 0.601 . S
C4897 C446 0.601 . S
C4902 C886 0.601 . S
C4927 C1040 0.601 . S
C4932 C380 0.601 . S
C4957 C997 0.601 . S
C4962 C403 0.601 . S
C4987 C424 0.601 . S
C4992 C1019 0.601 . S
C5017 C512 0.601 . S
C5022 C908 0.601 . S
C5047 C469 0.601 . S
C5052 C931 0.601 . S
C5077 C952 0.601 . S
C5082 C491 0.601 . S
C5107 C974 0.601 . S
C5112 C358 0.601 . S
C5137 C337 0.601 . S
C5142 C535 0.601 . S
C5167 C205 0.601 . S
C5172 C622 0.601 . S
C5197 C644 0.601 . S
C5202 C226 0.601 . S
C5227 C248 0.601 . S
C5232 C667 0.601 . S
C5257 C183 0.601 . S
C5262 C689 0.601 . S
C5287 C293 0.601 . S
C5292 C578 0.601 . S
C5317 C314 0.601 . S
C5322 C601 0.601 . S
C5347 C556 0.601 . S
C5352 C271 0.601 . S
