# Generated by pormake.
# Topology vmg, (6)-cn, num edge types: 1
# Building blocks:
#     Node 0, Type 0, BuildingBlock: VOLQOD_clean_sbu_1, # of connection points: 6
#     Node 1, Type 0, BuildingBlock: VOLQOD_clean_sbu_1, # of connection points: 6
#     Node 2, Type 0, BuildingBlock: VOLQOD_clean_sbu_1, # of connection points: 6
#     Node 3, Type 0, BuildingBlock: VOLQOD_clean_sbu_1, # of connection points: 6
#     Node 4, Type 0, BuildingBlock: VOLQOD_clean_sbu_1, # of connection points: 6
#     Node 5, Type 0, BuildingBlock: VOLQOD_clean_sbu_1, # of connection points: 6
#     Node 6, Type 0, BuildingBlock: VOLQOD_clean_sbu_1, # of connection points: 6
#     Node 7, Type 0, BuildingBlock: VOLQOD_clean_sbu_1, # of connection points: 6
#     Edge 8, Type (0, 0), BuildingBlock: UVAHIK_clean_linker_0, # of connection points: 2
#     Edge 9, Type (0, 0), BuildingBlock: UVAHIK_clean_linker_0, # of connection points: 2
#     Edge 10, Type (0, 0), BuildingBlock: UVAHIK_clean_linker_0, # of connection points: 2
#     Edge 11, Type (0, 0), BuildingBlock: UVAHIK_clean_linker_0, # of connection points: 2
#     Edge 12, Type (0, 0), BuildingBlock: UVAHIK_clean_linker_0, # of connection points: 2
#     Edge 13, Type (0, 0), BuildingBlock: UVAHIK_clean_linker_0, # of connection points: 2
#     Edge 14, Type (0, 0), BuildingBlock: UVAHIK_clean_linker_0, # of connection points: 2
#     Edge 15, Type (0, 0), BuildingBlock: UVAHIK_clean_linker_0, # of connection points: 2
#     Edge 16, Type (0, 0), BuildingBlock: UVAHIK_clean_linker_0, # of connection points: 2
#     Edge 17, Type (0, 0), BuildingBlock: UVAHIK_clean_linker_0, # of connection points: 2
#     Edge 18, Type (0, 0), BuildingBlock: UVAHIK_clean_linker_0, # of connection points: 2
#     Edge 19, Type (0, 0), BuildingBlock: UVAHIK_clean_linker_0, # of connection points: 2
#     Edge 20, Type (0, 0), BuildingBlock: UVAHIK_clean_linker_0, # of connection points: 2
#     Edge 21, Type (0, 0), BuildingBlock: UVAHIK_clean_linker_0, # of connection points: 2
#     Edge 22, Type (0, 0), BuildingBlock: UVAHIK_clean_linker_0, # of connection points: 2
#     Edge 23, Type (0, 0), BuildingBlock: UVAHIK_clean_linker_0, # of connection points: 2
#     Edge 24, Type (0, 0), BuildingBlock: UVAHIK_clean_linker_0, # of connection points: 2
#     Edge 25, Type (0, 0), BuildingBlock: UVAHIK_clean_linker_0, # of connection points: 2
#     Edge 26, Type (0, 0), BuildingBlock: UVAHIK_clean_linker_0, # of connection points: 2
#     Edge 27, Type (0, 0), BuildingBlock: UVAHIK_clean_linker_0, # of connection points: 2
#     Edge 28, Type (0, 0), BuildingBlock: UVAHIK_clean_linker_0, # of connection points: 2
#     Edge 29, Type (0, 0), BuildingBlock: UVAHIK_clean_linker_0, # of connection points: 2
#     Edge 30, Type (0, 0), BuildingBlock: UVAHIK_clean_linker_0, # of connection points: 2
#     Edge 31, Type (0, 0), BuildingBlock: UVAHIK_clean_linker_0, # of connection points: 2
# Relax obj value: 0.364
# Max RMSD: 0.272
# Mean RMSD: 0.272
data_MOF--net-vmg--node1-VOLQOD_clean_sbu_1--edge1-UVAHIK_clean_linker_0
_symmetry_space_group_name_H-M    P1
_symmetry_Int_Tables_number       1
_symmetry_cell_setting            triclinic
loop_
_symmetry_equiv_pos_as_xyz
'x, y, z'
_cell_length_a     36.163752
_cell_length_b     59.92348
_cell_length_c     35.043393
_cell_angle_alpha  90.015106
_cell_angle_beta   97.448081
_cell_angle_gamma 89.906356
loop_
_atom_site_label
_atom_site_type_symbol
_atom_site_fract_x
_atom_site_fract_y
_atom_site_fract_z
_atom_type_partial_charge
O0 O 0.17843 0.43962 0.11434 0.0
Zn1 Zn 0.23096 0.42961 0.1329 0.0
O2 O 0.23421 0.39719 0.13028 0.0
Zn3 Zn 0.24463 0.38459 0.18162 0.0
Zn4 Zn 0.18776 0.38508 0.10497 0.0
Zn5 Zn 0.27348 0.38911 0.10028 0.0
O6 O 0.29111 0.3655 0.18624 0.0
O7 O 0.31603 0.37515 0.13375 0.0
O8 O 0.24783 0.44108 0.18714 0.0
O9 O 0.25558 0.40924 0.21969 0.0
O10 O 0.20018 0.36772 0.1969 0.0
O11 O 0.16082 0.36896 0.14271 0.0
O12 O 0.19573 0.36235 0.06484 0.0
O13 O 0.26111 0.44364 0.09463 0.0
O14 O 0.25647 0.36512 0.06281 0.0
O15 O 0.28962 0.41514 0.07034 0.0
C16 C 0.15246 0.43023 0.09189 0.0
C17 C 0.31778 0.36486 0.16574 0.0
C18 C 0.16877 0.36308 0.17765 0.0
C19 C 0.25629 0.43046 0.21866 0.0
C20 C 0.22521 0.35603 0.05174 0.0
C21 C 0.28205 0.43588 0.07119 0.0
O22 O 0.15412 0.40966 0.08306 0.0
O23 O 0.81987 0.43646 0.38493 0.0
Zn24 Zn 0.76697 0.42794 0.36546 0.0
O25 O 0.76166 0.39573 0.36654 0.0
Zn26 Zn 0.75269 0.38393 0.31477 0.0
Zn27 Zn 0.80652 0.38251 0.39331 0.0
Zn28 Zn 0.72008 0.38807 0.39342 0.0
O29 O 0.70725 0.36418 0.30845 0.0
O30 O 0.67792 0.37587 0.35682 0.0
O31 O 0.75147 0.44032 0.31171 0.0
O32 O 0.74064 0.4091 0.2778 0.0
O33 O 0.79824 0.36791 0.30001 0.0
O34 O 0.83466 0.36663 0.35612 0.0
O35 O 0.79526 0.35946 0.43156 0.0
O36 O 0.73666 0.442 0.40361 0.0
O37 O 0.73405 0.36296 0.42974 0.0
O38 O 0.70447 0.41394 0.42423 0.0
C39 C 0.8445 0.42654 0.40831 0.0
C40 C 0.67843 0.36471 0.3259 0.0
C41 C 0.82854 0.36218 0.3204 0.0
C42 C 0.74129 0.4303 0.27994 0.0
C43 C 0.76455 0.35329 0.44219 0.0
C44 C 0.71392 0.43443 0.42533 0.0
O45 O 0.84095 0.40615 0.41749 0.0
O46 O 0.81974 0.54705 0.88082 0.0
Zn47 Zn 0.7663 0.55533 0.86307 0.0
O48 O 0.76021 0.58757 0.86421 0.0
Zn49 Zn 0.7473 0.59905 0.81237 0.0
Zn50 Zn 0.8061 0.60124 0.8876 0.0
Zn51 Zn 0.72123 0.59507 0.89494 0.0
O52 O 0.70124 0.61843 0.80912 0.0
O53 O 0.6776 0.60839 0.86215 0.0
O54 O 0.74918 0.54269 0.80981 0.0
O55 O 0.73405 0.5736 0.77623 0.0
O56 O 0.79102 0.61534 0.79395 0.0
O57 O 0.83086 0.61692 0.84779 0.0
O58 O 0.79734 0.62447 0.9266 0.0
O59 O 0.73788 0.54099 0.90252 0.0
O60 O 0.73758 0.61948 0.93187 0.0
O61 O 0.70684 0.56887 0.92551 0.0
C62 C 0.84529 0.55737 0.90234 0.0
C63 C 0.67508 0.61885 0.83028 0.0
C64 C 0.82225 0.62125 0.81225 0.0
C65 C 0.7364 0.55243 0.77846 0.0
C66 C 0.76809 0.62979 0.94109 0.0
C67 C 0.7162 0.54837 0.92556 0.0
O68 O 0.84212 0.57797 0.9104 0.0
O69 O 0.18286 0.54403 0.60906 0.0
Zn70 Zn 0.23436 0.55454 0.6302 0.0
O71 O 0.23609 0.58697 0.62905 0.0
Zn72 Zn 0.24292 0.59899 0.68081 0.0
Zn73 Zn 0.19051 0.59861 0.60112 0.0
Zn74 Zn 0.27712 0.59627 0.60282 0.0
O75 O 0.28716 0.61974 0.68812 0.0
O76 O 0.31793 0.60922 0.64009 0.0
O77 O 0.24934 0.54264 0.68436 0.0
O78 O 0.25585 0.57409 0.71829 0.0
O79 O 0.19574 0.61402 0.69402 0.0
O80 O 0.16025 0.61356 0.63729 0.0
O81 O 0.19999 0.62217 0.56291 0.0
O82 O 0.26741 0.54168 0.5933 0.0
O83 O 0.26159 0.62123 0.56686 0.0
O84 O 0.29478 0.57136 0.57147 0.0
C85 C 0.1576 0.55318 0.58534 0.0
C86 C 0.31628 0.62007 0.67112 0.0
C87 C 0.16529 0.6186 0.67282 0.0
C88 C 0.25737 0.55291 0.71627 0.0
C89 C 0.23037 0.62968 0.55339 0.0
C90 C 0.28853 0.55045 0.571 0.0
O91 O 0.15905 0.57377 0.57659 0.0
O92 O 0.67725 0.93835 0.11314 0.0
Zn93 Zn 0.72933 0.92855 0.1336 0.0
O94 O 0.73236 0.89608 0.13359 0.0
Zn95 Zn 0.7436 0.88497 0.18606 0.0
Zn96 Zn 0.68564 0.88348 0.10966 0.0
Zn97 Zn 0.77093 0.8869 0.10355 0.0
O98 O 0.78918 0.86506 0.19107 0.0
O99 O 0.8132 0.87287 0.13722 0.0
O100 O 0.74434 0.9413 0.18703 0.0
O101 O 0.75632 0.91061 0.22217 0.0
O102 O 0.69872 0.86929 0.2034 0.0
O103 O 0.65931 0.86873 0.14917 0.0
O104 O 0.69281 0.85964 0.07106 0.0
O105 O 0.76126 0.94166 0.09593 0.0
O106 O 0.75316 0.86263 0.06708 0.0
O107 O 0.78763 0.9121 0.07236 0.0
C108 C 0.6507 0.92844 0.09234 0.0
C109 C 0.81521 0.86334 0.1699 0.0
C110 C 0.66728 0.86413 0.18468 0.0
C111 C 0.75498 0.93178 0.21916 0.0
C112 C 0.7219 0.85326 0.05731 0.0
C113 C 0.78162 0.93303 0.07272 0.0
O114 O 0.65168 0.90753 0.08598 0.0
O115 O 0.30876 0.9414 0.39045 0.0
Zn116 Zn 0.25673 0.93179 0.36918 0.0
O117 O 0.25362 0.89936 0.3693 0.0
Zn118 Zn 0.24603 0.88782 0.31725 0.0
Zn119 Zn 0.29882 0.88684 0.39648 0.0
Zn120 Zn 0.21237 0.89035 0.39545 0.0
O121 O 0.20167 0.86712 0.31 0.0
O122 O 0.1713 0.87769 0.35829 0.0
O123 O 0.24176 0.94429 0.31532 0.0
O124 O 0.23312 0.91314 0.28072 0.0
O125 O 0.29282 0.8728 0.30299 0.0
O126 O 0.32843 0.87199 0.35962 0.0
O127 O 0.28865 0.86313 0.43407 0.0
O128 O 0.22446 0.94475 0.40685 0.0
O129 O 0.22722 0.86519 0.43129 0.0
O130 O 0.19517 0.91531 0.42687 0.0
C131 C 0.33358 0.93163 0.41384 0.0
C132 C 0.1727 0.86681 0.32726 0.0
C133 C 0.32316 0.8676 0.32384 0.0
C134 C 0.23264 0.93434 0.28326 0.0
C135 C 0.25815 0.85614 0.44408 0.0
C136 C 0.20255 0.93608 0.42844 0.0
O137 O 0.33121 0.91098 0.42178 0.0
O138 O 0.3166 0.0472 0.88545 0.0
Zn139 Zn 0.26389 0.05671 0.86684 0.0
O140 O 0.26025 0.0891 0.86809 0.0
Zn141 Zn 0.25065 0.10091 0.81607 0.0
Zn142 Zn 0.30617 0.10169 0.89387 0.0
Zn143 Zn 0.22015 0.09732 0.89691 0.0
O144 O 0.20364 0.11955 0.80966 0.0
O145 O 0.17799 0.11071 0.86211 0.0
O146 O 0.24713 0.0445 0.81317 0.0
O147 O 0.24109 0.07572 0.77871 0.0
O148 O 0.29497 0.1181 0.80133 0.0
O149 O 0.33317 0.118 0.85635 0.0
O150 O 0.29714 0.12449 0.93361 0.0
O151 O 0.23392 0.04305 0.90557 0.0
O152 O 0.23612 0.12176 0.93376 0.0
O153 O 0.20386 0.07163 0.92763 0.0
C154 C 0.34251 0.05686 0.90757 0.0
C155 C 0.17659 0.12044 0.82964 0.0
C156 C 0.32578 0.12341 0.82112 0.0
C157 C 0.23983 0.05455 0.78095 0.0
C158 C 0.26715 0.13091 0.94558 0.0
C159 C 0.21222 0.05097 0.92811 0.0
O160 O 0.34046 0.07745 0.91616 0.0
O161 O 0.67149 0.04689 0.61942 0.0
Zn162 Zn 0.72474 0.05578 0.63678 0.0
O163 O 0.72958 0.088 0.63383 0.0
Zn164 Zn 0.73937 0.10076 0.68489 0.0
Zn165 Zn 0.6842 0.10077 0.60735 0.0
Zn166 Zn 0.77034 0.09505 0.6053 0.0
O167 O 0.78594 0.11956 0.68975 0.0
O168 O 0.81341 0.10751 0.64031 0.0
O169 O 0.74183 0.04435 0.69092 0.0
O170 O 0.7497 0.07622 0.72338 0.0
O171 O 0.69502 0.11812 0.69921 0.0
O172 O 0.6572 0.11794 0.64397 0.0
O173 O 0.69427 0.12264 0.56678 0.0
O174 O 0.75344 0.04104 0.59798 0.0
O175 O 0.75549 0.11963 0.56807 0.0
O176 O 0.78478 0.06867 0.57487 0.0
C177 C 0.64619 0.05647 0.59633 0.0
C178 C 0.81408 0.11875 0.67128 0.0
C179 C 0.6644 0.12353 0.67914 0.0
C180 C 0.75028 0.05499 0.72241 0.0
C181 C 0.72462 0.12879 0.55532 0.0
C182 C 0.77524 0.04822 0.57494 0.0
O183 O 0.64933 0.07669 0.58604 0.0
C184 C 0.64148 0.34368 0.27208 0.0
C185 C 0.64421 0.35301 0.30915 0.0
C186 C 0.60763 0.33501 0.25465 0.0
C187 C 0.51135 0.31974 0.27157 0.0
H188 H 0.4837 0.34939 0.17376 0.0
C189 C 0.36335 0.34978 0.21926 0.0
C190 C 0.3523 0.35269 0.1797 0.0
C191 C 0.39869 0.34127 0.23242 0.0
C192 C 0.49093 0.34038 0.20047 0.0
H193 H 0.61439 0.35894 0.35814 0.0
H194 H 0.5554 0.34419 0.32755 0.0
H195 H 0.54823 0.34917 0.20224 0.0
H196 H 0.36766 0.34687 0.12273 0.0
H197 H 0.4288 0.33139 0.1456 0.0
H198 H 0.45349 0.31185 0.27044 0.0
C199 C 0.57938 0.3434 0.312 0.0
C200 C 0.52811 0.34027 0.21685 0.0
C201 C 0.61313 0.35213 0.32936 0.0
C202 C 0.37585 0.34526 0.15345 0.0
C203 C 0.41087 0.33641 0.16656 0.0
C204 C 0.47405 0.31973 0.25503 0.0
C205 C 0.57596 0.33542 0.27403 0.0
C206 C 0.53848 0.33076 0.25327 0.0
C207 C 0.42334 0.33522 0.20619 0.0
C208 C 0.46324 0.33085 0.22002 0.0
H209 H 0.66503 0.34388 0.25588 0.0
H210 H 0.60583 0.32875 0.22546 0.0
H211 H 0.51872 0.312 0.29946 0.0
H212 H 0.34565 0.35532 0.2401 0.0
H213 H 0.40744 0.34081 0.26315 0.0
C214 C 0.61714 0.63798 0.84436 0.0
C215 C 0.64038 0.63113 0.81739 0.0
C216 C 0.58215 0.64714 0.83217 0.0
C217 C 0.5187 0.66614 0.74549 0.0
H218 H 0.44455 0.63516 0.79611 0.0
C219 C 0.38074 0.63434 0.66861 0.0
C220 C 0.34966 0.63231 0.68862 0.0
C221 C 0.41402 0.64329 0.68668 0.0
C222 C 0.46465 0.64451 0.78218 0.0
H223 H 0.64643 0.62983 0.75671 0.0
H224 H 0.58469 0.64494 0.73522 0.0
H225 H 0.50911 0.63438 0.82445 0.0
H226 H 0.32818 0.63975 0.74226 0.0
H227 H 0.3866 0.65529 0.77393 0.0
H228 H 0.47401 0.67491 0.70177 0.0
C229 C 0.5937 0.64375 0.76585 0.0
C230 C 0.50185 0.64406 0.79848 0.0
C231 C 0.62899 0.63489 0.7781 0.0
C232 C 0.35177 0.64084 0.7262 0.0
C233 C 0.38518 0.64975 0.74435 0.0
C234 C 0.48138 0.66649 0.72905 0.0
C235 C 0.5694 0.64927 0.79273 0.0
C236 C 0.52954 0.65409 0.77955 0.0
C237 C 0.41697 0.65036 0.72516 0.0
C238 C 0.45426 0.65489 0.74649 0.0
H239 H 0.62559 0.63571 0.87492 0.0
H240 H 0.56447 0.6517 0.85363 0.0
H241 H 0.53928 0.67442 0.73063 0.0
H242 H 0.37991 0.62819 0.63944 0.0
H243 H 0.43809 0.6433 0.67122 0.0
C244 C 0.10844 0.85252 0.33071 0.0
C245 C 0.13941 0.85424 0.31047 0.0
C246 C 0.07544 0.84283 0.31352 0.0
C247 C 0.02457 0.83801 0.21832 0.0
H248 H 0.9512 0.80968 0.27372 0.0
C249 C 0.87195 0.84246 0.15722 0.0
C250 C 0.84932 0.85072 0.18372 0.0
C251 C 0.90682 0.83332 0.16996 0.0
C252 C 0.97144 0.81746 0.25777 0.0
H253 H 0.16098 0.84558 0.2574 0.0
H254 H 0.10303 0.8287 0.22725 0.0
H255 H 0.01663 0.81048 0.302 0.0
H256 H 0.84403 0.85441 0.24428 0.0
H257 H 0.9056 0.83931 0.26665 0.0
H258 H 0.97957 0.84636 0.17535 0.0
C259 C 0.10431 0.83508 0.25631 0.0
C260 C 0.00885 0.81787 0.2739 0.0
C261 C 0.13745 0.84476 0.27357 0.0
C262 C 0.86102 0.84825 0.22325 0.0
C263 C 0.89621 0.8394 0.23602 0.0
C264 C 0.98729 0.83765 0.20229 0.0
C265 C 0.07264 0.83465 0.2757 0.0
C266 C 0.03547 0.82903 0.25506 0.0
C267 C 0.92004 0.83262 0.20945 0.0
C268 C 0.96005 0.82823 0.22257 0.0
H269 H 0.10913 0.8594 0.35938 0.0
H270 H 0.05145 0.84303 0.32909 0.0
H271 H 0.04425 0.84697 0.20323 0.0
H272 H 0.86321 0.84371 0.12653 0.0
H273 H 0.92415 0.82776 0.1488 0.0
C274 C 0.13102 0.13398 0.7748 0.0
C275 C 0.14208 0.13228 0.81457 0.0
C276 C 0.09564 0.14216 0.7609 0.0
C277 C 0.00346 0.14436 0.79295 0.0
H278 H 0.97522 0.16988 0.69171 0.0
C279 C 0.85232 0.14053 0.72323 0.0
C280 C 0.84885 0.13031 0.68683 0.0
C281 C 0.88655 0.14922 0.73957 0.0
C282 C 0.98273 0.16293 0.7202 0.0
H283 H 0.12676 0.13991 0.87094 0.0
H284 H 0.06557 0.15486 0.84672 0.0
H285 H 0.04061 0.17046 0.72024 0.0
H286 H 0.87782 0.12274 0.63783 0.0
H287 H 0.93748 0.13748 0.66659 0.0
H288 H 0.94614 0.13593 0.79237 0.0
C289 C 0.08349 0.14912 0.82623 0.0
C290 C 0.02011 0.16319 0.73647 0.0
C291 C 0.11853 0.14059 0.84011 0.0
C292 C 0.87963 0.13026 0.66612 0.0
C293 C 0.91377 0.13897 0.68241 0.0
C294 C 0.96621 0.14422 0.77682 0.0
C295 C 0.07098 0.14908 0.78655 0.0
C296 C 0.03106 0.15313 0.77242 0.0
C297 C 0.91788 0.14791 0.71977 0.0
C298 C 0.95565 0.15272 0.73969 0.0
H299 H 0.14875 0.12774 0.75451 0.0
H300 H 0.08686 0.14168 0.73017 0.0
H301 H 0.01079 0.13613 0.8204 0.0
H302 H 0.82902 0.14109 0.73976 0.0
H303 H 0.88887 0.15624 0.76827 0.0
C304 C 0.25765 0.32769 0.01587 0.0
C305 C 0.22478 0.33519 0.02922 0.0
C306 C 0.26082 0.30563 0.00413 0.0
C307 C 0.22449 0.25119 0.02638 0.0
H308 H 0.28049 0.23025 0.94625 0.0
C309 C 0.23357 0.15923 0.98035 0.0
C310 C 0.26683 0.15188 0.96764 0.0
C311 C 0.22978 0.18133 0.99165 0.0
C312 C 0.26531 0.2359 0.96915 0.0
H313 H 0.16805 0.32613 0.03669 0.0
H314 H 0.17351 0.28765 0.01558 0.0
H315 H 0.26742 0.26999 0.95141 0.0
H316 H 0.32354 0.16128 0.96076 0.0
H317 H 0.31701 0.19984 0.98106 0.0
H318 H 0.22239 0.21709 0.04411 0.0
C319 C 0.1971 0.29872 0.01521 0.0
C320 C 0.25757 0.25861 0.97186 0.0
C321 C 0.19389 0.32083 0.02691 0.0
C322 C 0.29744 0.16646 0.97008 0.0
C323 C 0.2936 0.1886 0.98131 0.0
C324 C 0.23221 0.22848 0.02364 0.0
C325 C 0.23115 0.29068 0.00542 0.0
C326 C 0.23711 0.26648 0.00052 0.0
C327 C 0.25921 0.19645 0.99051 0.0
C328 C 0.25278 0.22062 0.99507 0.0
H329 H 0.28187 0.3384 0.01695 0.0
H330 H 0.28741 0.29993 0.99667 0.0
H331 H 0.20937 0.25684 0.04932 0.0
H332 H 0.20955 0.14834 0.97914 0.0
H333 H 0.20296 0.18689 0.99867 0.0
C334 C 0.79421 0.31798 0.469 0.0
C335 C 0.76304 0.33222 0.46374 0.0
C336 C 0.79035 0.2959 0.48048 0.0
C337 C 0.72717 0.25601 0.51969 0.0
H338 H 0.77076 0.21358 0.45462 0.0
C339 C 0.69351 0.1632 0.52639 0.0
C340 C 0.72519 0.14939 0.53232 0.0
C341 C 0.69654 0.1851 0.51366 0.0
C342 C 0.75856 0.22524 0.47307 0.0
H343 H 0.70429 0.33514 0.47013 0.0
H344 H 0.69765 0.29669 0.49005 0.0
H345 H 0.78198 0.2534 0.44754 0.0
H346 H 0.78392 0.14691 0.52558 0.0
H347 H 0.78911 0.18506 0.50352 0.0
H348 H 0.70384 0.22786 0.5453 0.0
C349 C 0.72498 0.30251 0.48511 0.0
C350 C 0.7652 0.24799 0.46927 0.0
C351 C 0.7288 0.32455 0.47359 0.0
C352 C 0.75905 0.15719 0.52168 0.0
C353 C 0.76203 0.17906 0.50891 0.0
C354 C 0.72053 0.23326 0.5235 0.0
C355 C 0.75534 0.28774 0.48708 0.0
C356 C 0.74967 0.26359 0.49262 0.0
C357 C 0.7312 0.1935 0.50644 0.0
C358 C 0.73619 0.21765 0.50026 0.0
H359 H 0.82107 0.3234 0.46196 0.0
H360 H 0.81441 0.28497 0.48267 0.0
H361 H 0.71505 0.26766 0.53823 0.0
H362 H 0.66692 0.15764 0.53396 0.0
H363 H 0.67213 0.19577 0.51112 0.0
C364 C 0.69111 0.81749 0.03453 0.0
C365 C 0.72119 0.83235 0.03498 0.0
C366 C 0.69443 0.79555 0.02198 0.0
C367 C 0.75276 0.75719 0.97222 0.0
H368 H 0.72419 0.71376 0.04512 0.0
C369 C 0.79695 0.66599 0.96429 0.0
C370 C 0.76744 0.65068 0.96332 0.0
C371 C 0.79243 0.68789 0.97639 0.0
C372 C 0.73213 0.72569 0.02445 0.0
H373 H 0.77679 0.83658 0.01897 0.0
H374 H 0.78252 0.79841 0.99725 0.0
H375 H 0.71008 0.75316 0.05327 0.0
H376 H 0.71154 0.64568 0.97809 0.0
H377 H 0.70376 0.68384 0.99915 0.0
H378 H 0.77497 0.72974 0.94351 0.0
C379 C 0.75648 0.80359 0.00673 0.0
C380 C 0.72379 0.7482 0.02889 0.0
C381 C 0.75322 0.82547 0.01933 0.0
C382 C 0.73471 0.65712 0.97815 0.0
C383 C 0.73025 0.67899 0.99032 0.0
C384 C 0.76114 0.73469 0.96782 0.0
C385 C 0.72775 0.78818 0.00947 0.0
C386 C 0.73411 0.76418 0.00286 0.0
C387 C 0.75844 0.69481 0.98795 0.0
C388 C 0.75104 0.71874 0.99398 0.0
H389 H 0.66596 0.82231 0.0462 0.0
H390 H 0.67154 0.78411 0.0236 0.0
H391 H 0.76076 0.76911 0.95156 0.0
H392 H 0.82264 0.66152 0.95334 0.0
H393 H 0.81493 0.69967 0.97513 0.0
C394 C 0.19843 0.66454 0.52748 0.0
C395 C 0.23027 0.65083 0.53183 0.0
C396 C 0.20094 0.68672 0.51596 0.0
C397 C 0.27075 0.73094 0.52221 0.0
H398 H 0.19475 0.76403 0.45735 0.0
C399 C 0.28925 0.8211 0.47025 0.0
C400 C 0.25764 0.83499 0.46554 0.0
C401 C 0.28631 0.79899 0.48197 0.0
C402 C 0.21593 0.75506 0.47604 0.0
H403 H 0.28866 0.64886 0.52353 0.0
H404 H 0.29277 0.68743 0.50282 0.0
H405 H 0.18807 0.72382 0.46454 0.0
H406 H 0.19914 0.83732 0.47329 0.0
H407 H 0.19429 0.79886 0.49436 0.0
H408 H 0.29862 0.76217 0.53372 0.0
C409 C 0.26621 0.68123 0.50944 0.0
C410 C 0.21219 0.73204 0.47991 0.0
C411 C 0.26374 0.6591 0.52101 0.0
C412 C 0.2239 0.82695 0.47611 0.0
C413 C 0.22101 0.80488 0.48788 0.0
C414 C 0.27448 0.75396 0.51836 0.0
C415 C 0.23527 0.69549 0.50843 0.0
C416 C 0.23963 0.71975 0.50294 0.0
C417 C 0.25178 0.79045 0.48935 0.0
C418 C 0.24712 0.76624 0.49522 0.0
H419 H 0.1722 0.65866 0.53552 0.0
H420 H 0.17661 0.69733 0.51538 0.0
H421 H 0.29196 0.72196 0.54086 0.0
H422 H 0.31567 0.82679 0.46244 0.0
H423 H 0.31052 0.78825 0.48286 0.0
C424 C 0.90719 0.55601 0.94353 0.0
C425 C 0.87869 0.545 0.91963 0.0
C426 C 0.93777 0.54413 0.96158 0.0
C427 C 0.98958 0.49139 0.95738 0.0
H428 H 0.02231 0.50338 0.06527 0.0
C429 C 0.09144 0.43352 0.04969 0.0
C430 C 0.12041 0.44366 0.07427 0.0
C431 C 0.06222 0.44628 0.03118 0.0
C432 C 0.01374 0.50002 0.03505 0.0
H433 H 0.86033 0.51291 0.89543 0.0
H434 H 0.91358 0.49219 0.9272 0.0
H435 H 0.97136 0.52516 0.03113 0.0
H436 H 0.14099 0.47515 0.09923 0.0
H437 H 0.08992 0.49745 0.06666 0.0
H438 H 0.0318 0.46618 0.96134 0.0
C439 C 0.91241 0.51005 0.93164 0.0
C440 C 0.98463 0.5125 0.01549 0.0
C441 C 0.88182 0.52192 0.91358 0.0
C442 C 0.11908 0.4668 0.08054 0.0
C443 C 0.08979 0.47958 0.06199 0.0
C444 C 0.01866 0.47892 0.97693 0.0
C445 C 0.94051 0.521 0.9561 0.0
C446 C 0.97214 0.50823 0.97651 0.0
C447 C 0.06129 0.46946 0.03681 0.0
C448 C 0.03089 0.48302 0.01601 0.0
H449 H 0.90577 0.5738 0.94867 0.0
H450 H 0.95929 0.55306 0.97983 0.0
H451 H 0.98092 0.48796 0.9272 0.0
H452 H 0.09145 0.41571 0.04437 0.0
H453 H 0.04029 0.43798 0.01245 0.0
C454 C 0.12364 0.51677 0.57572 0.0
C455 C 0.12604 0.53961 0.56718 0.0
C456 C 0.09394 0.504 0.55817 0.0
C457 C 0.02206 0.50296 0.47363 0.0
H458 H 0.97208 0.46146 0.53462 0.0
C459 C 0.88199 0.46169 0.41693 0.0
C460 C 0.87775 0.43901 0.42554 0.0
C461 C 0.91312 0.47352 0.43374 0.0
C462 C 0.98606 0.47278 0.51713 0.0
H463 H 0.09899 0.56693 0.53361 0.0
H464 H 0.04714 0.54468 0.50336 0.0
H465 H 0.02514 0.4829 0.5651 0.0
H466 H 0.90311 0.4109 0.4583 0.0
H467 H 0.95753 0.43154 0.48731 0.0
H468 H 0.98289 0.49293 0.42569 0.0
C469 C 0.06847 0.53661 0.52324 0.0
C470 C 0.01641 0.48504 0.53457 0.0
C471 C 0.09809 0.54938 0.54078 0.0
C472 C 0.90543 0.42838 0.45113 0.0
C473 C 0.93653 0.44022 0.46794 0.0
C474 C 0.99173 0.4907 0.45619 0.0
C475 C 0.06612 0.51379 0.53169 0.0
C476 C 0.03457 0.50034 0.51303 0.0
C477 C 0.94063 0.46291 0.45949 0.0
C478 C 0.97331 0.47557 0.4778 0.0
H479 H 0.14476 0.50871 0.59584 0.0
H480 H 0.09301 0.48639 0.56494 0.0
H481 H 0.03591 0.51438 0.45618 0.0
H482 H 0.86115 0.47041 0.39743 0.0
H483 H 0.91532 0.49108 0.42706 0.0
C484 C 0.617 0.96478 0.0798 0.0
C485 C 0.61848 0.94157 0.07429 0.0
C486 C 0.58713 0.97724 0.06168 0.0
C487 C 0.51335 0.97581 0.97909 0.0
H488 H 0.46828 0.02228 0.03485 0.0
C489 C 0.37699 0.02065 0.91844 0.0
C490 C 0.37517 0.04378 0.92469 0.0
C491 C 0.40711 0.0082 0.93607 0.0
C492 C 0.48087 0.00954 0.01877 0.0
H493 H 0.58942 0.91323 0.04581 0.0
H494 H 0.53722 0.93499 0.01452 0.0
H495 H 0.51982 0.00041 0.06753 0.0
H496 H 0.40402 0.07203 0.9537 0.0
H497 H 0.45668 0.05032 0.98403 0.0
H498 H 0.47441 0.98496 0.93032 0.0
C499 C 0.55943 0.94355 0.03245 0.0
C500 C 0.51034 -0.00299 0.03749 0.0
C501 C 0.58924 0.93108 0.05059 0.0
C502 C 0.40442 0.05423 0.94842 0.0
C503 C 0.43451 0.04178 0.96601 0.0
C504 C 0.4839 0.98835 0.96035 0.0
C505 C 0.55817 0.96676 0.03766 0.0
C506 C 0.52686 0.98002 0.01784 0.0
C507 C 0.43602 0.01862 0.96027 0.0
C508 C 0.46738 0.00535 0.98001 0.0
H509 H 0.6391 0.9734 0.09779 0.0
H510 H 0.58708 -0.00485 0.0659 0.0
H511 H 0.52593 0.96304 0.96306 0.0
H512 H 0.35489 0.01207 0.9004 0.0
H513 H 0.40735 0.99033 0.93142 0.0
C514 C 0.36863 0.96752 0.42598 0.0
C515 C 0.36564 0.94451 0.43274 0.0
C516 C 0.39864 0.97966 0.44453 0.0
C517 C 0.4943 0.97298 0.49355 0.0
H518 H 0.47699 0.03113 0.53657 0.0
C519 C 0.60963 0.02091 0.58849 0.0
C520 C 0.61284 0.04373 0.58022 0.0
C521 C 0.57879 0.00875 0.57186 0.0
C522 C 0.48227 0.01499 0.52442 0.0
H523 H 0.39193 0.91621 0.46423 0.0
H524 H 0.44399 0.93744 0.49668 0.0
H525 H 0.42454 0.01003 0.50387 0.0
H526 H 0.58583 0.07174 0.54854 0.0
H527 H 0.5323 0.05046 0.51939 0.0
H528 H 0.55203 0.97796 0.51395 0.0
C529 C 0.42336 0.94603 0.47675 0.0
C530 C 0.45228 0.00294 0.50567 0.0
C531 C 0.39339 0.9339 0.45827 0.0
C532 C 0.58426 0.05419 0.55553 0.0
C533 C 0.55344 0.04204 0.53898 0.0
C534 C 0.52427 0.98502 0.5123 0.0
C535 C 0.42626 0.96902 0.47013 0.0
C536 C 0.45803 0.98184 0.48998 0.0
C537 C 0.55054 0.01917 0.54673 0.0
C538 C 0.51856 0.00616 0.52784 0.0
H539 H 0.34777 0.9762 0.40645 0.0
H540 H 0.40042 -0.00267 0.43855 0.0
H541 H 0.49963 0.95688 0.48127 0.0
H542 H 0.6311 0.01236 0.60747 0.0
H543 H 0.57703 0.99119 0.5787 0.0
C544 C 0.11367 0.33812 0.17559 0.0
C545 C 0.13917 0.35258 0.19655 0.0
C546 C 0.08138 0.33149 0.19039 0.0
C547 C 0.00363 0.33576 0.21086 0.0
H548 H 0.9934 0.33693 0.31944 0.0
C549 C 0.86567 0.35899 0.26541 0.0
C550 C 0.85912 0.35216 0.30218 0.0
C551 C 0.89884 0.35309 0.25143 0.0
C552 C 0.99552 0.33602 0.28896 0.0
H553 H 0.1521 0.37068 0.25002 0.0
H554 H 0.095 0.3602 0.2752 0.0
H555 H 0.05502 0.33572 0.2996 0.0
H556 H 0.8802 0.33221 0.35183 0.0
H557 H 0.93695 0.32076 0.32663 0.0
H558 H 0.94415 0.3353 0.20022 0.0
C559 C 0.10016 0.35321 0.24791 0.0
C560 C 0.03112 0.33576 0.27753 0.0
C561 C 0.13297 0.35934 0.23348 0.0
C562 C 0.88485 0.3379 0.3235 0.0
C563 C 0.91756 0.33155 0.30918 0.0
C564 C 0.96805 0.33553 0.22229 0.0
C565 C 0.0733 0.33977 0.22599 0.0
C566 C 0.03572 0.3364 0.23832 0.0
C567 C 0.92578 0.33981 0.27364 0.0
C568 C 0.96344 0.33644 0.26147 0.0
H569 H 0.1181 0.33252 0.14712 0.0
H570 H 0.06213 0.32055 0.17317 0.0
H571 H 0.00569 0.33647 0.18036 0.0
H572 H 0.84641 0.37016 0.24855 0.0
H573 H 0.90413 0.36008 0.22419 0.0
C574 C 0.10764 0.64177 0.66688 0.0
C575 C 0.13363 0.62834 0.68965 0.0
C576 C 0.0743 0.64801 0.68002 0.0
C577 C 0.02266 0.64625 0.76605 0.0
H578 H 0.93655 0.64331 0.68782 0.0
C579 C 0.85786 0.6227 0.75599 0.0
C580 C 0.85125 0.63118 0.79177 0.0
C581 C 0.89076 0.6281 0.74106 0.0
C582 C 0.96021 0.64408 0.71012 0.0
H583 H 0.14608 0.61168 0.7446 0.0
H584 H 0.08728 0.62164 0.76706 0.0
H585 H -0.00137 0.64133 0.66906 0.0
H586 H 0.87158 0.65357 0.83826 0.0
H587 H 0.92772 0.66417 0.81119 0.0
H588 H 0.98434 0.64704 0.80735 0.0
C589 C 0.09285 0.62801 0.73948 0.0
C590 C -0.00396 0.64334 0.69929 0.0
C591 C 0.12661 0.62219 0.72662 0.0
C592 C 0.87631 0.64666 0.81073 0.0
C593 C 0.90869 0.65249 0.79539 0.0
C594 C 0.98686 0.64657 0.77693 0.0
C595 C 0.06577 0.64049 0.71588 0.0
C596 C 0.0278 0.64395 0.72718 0.0
C597 C 0.91728 0.64246 0.7613 0.0
C598 C 0.95509 0.64504 0.74917 0.0
H599 H 0.11263 0.64694 0.63836 0.0
H600 H 0.05477 0.65818 0.66149 0.0
H601 H 0.04632 0.64724 0.78833 0.0
H602 H 0.8391 0.61055 0.74103 0.0
H603 H 0.89633 0.61982 0.71495 0.0
C604 C 0.36167 0.86476 0.26977 0.0
C605 C 0.35454 0.85796 0.30639 0.0
C606 C 0.39533 0.85906 0.25658 0.0
C607 C 0.46526 0.84103 0.22906 0.0
H608 H 0.55134 0.84226 0.3075 0.0
C609 C 0.6119 0.83966 0.1849 0.0
C610 C 0.63751 0.85459 0.20454 0.0
C611 C 0.57914 0.83413 0.19978 0.0
C612 C 0.52769 0.84197 0.28515 0.0
H613 H 0.3752 0.83833 0.35658 0.0
H614 H 0.43287 0.82732 0.33281 0.0
H615 H 0.48926 0.84426 0.32628 0.0
H616 H 0.65018 0.87457 0.25598 0.0
H617 H 0.59232 0.86582 0.28135 0.0
H618 H 0.50365 0.84065 0.1878 0.0
C619 C 0.4135 0.83789 0.31487 0.0
C620 C 0.49185 0.84273 0.29596 0.0
C621 C 0.38028 0.84401 0.32836 0.0
C622 C 0.63098 0.86285 0.24049 0.0
C623 C 0.59773 0.85775 0.255 0.0
C624 C 0.50108 0.84068 0.21822 0.0
C625 C 0.42219 0.84606 0.27947 0.0
C626 C 0.46011 0.84269 0.26803 0.0
C627 C 0.57076 0.84392 0.23415 0.0
C628 C 0.53284 0.84157 0.24609 0.0
H629 H 0.34239 0.87569 0.25242 0.0
H630 H 0.40101 0.86592 0.22938 0.0
H631 H 0.44161 0.84052 0.20672 0.0
H632 H 0.61655 0.83292 0.15721 0.0
H633 H 0.55973 0.82286 0.1835 0.0
C634 C 0.60918 0.14868 0.67582 0.0
C635 C 0.63461 0.13438 0.69739 0.0
C636 C 0.57684 0.15564 0.69025 0.0
C637 C 0.52635 0.15254 0.77743 0.0
H638 H 0.43948 0.15207 0.70002 0.0
C639 C 0.36195 0.12758 0.76565 0.0
C640 C 0.35544 0.13413 0.80259 0.0
C641 C 0.39468 0.13405 0.75142 0.0
C642 C 0.46335 0.15211 0.72212 0.0
H643 H 0.64732 0.11697 0.7516 0.0
H644 H 0.5902 0.12801 0.77614 0.0
H645 H 0.50107 0.15095 0.68027 0.0
H646 H 0.3759 0.15418 0.85225 0.0
H647 H 0.43176 0.16671 0.82658 0.0
H648 H 0.48866 0.15148 0.81931 0.0
C649 C 0.59543 0.13463 0.74862 0.0
C650 C 0.49896 0.15191 0.71074 0.0
C651 C 0.62827 0.12816 0.73454 0.0
C652 C 0.38057 0.14872 0.82378 0.0
C653 C 0.41279 0.15567 0.80919 0.0
C654 C 0.49075 0.15221 0.78881 0.0
C655 C 0.56865 0.14788 0.72613 0.0
C656 C 0.53102 0.15153 0.73825 0.0
C657 C 0.42117 0.14763 0.77354 0.0
C658 C 0.4587 0.15139 0.76132 0.0
H659 H 0.61371 0.15389 0.64718 0.0
H660 H 0.55763 0.16642 0.67257 0.0
H661 H 0.55022 0.15284 0.79953 0.0
H662 H 0.34312 0.11617 0.7489 0.0
H663 H 0.40008 0.12721 0.7241 0.0
C664 C 0.2749 0.47122 0.033 0.0
C665 C 0.29275 0.45053 0.04037 0.0
C666 C 0.27894 0.4831 -0.00048 0.0
C667 C 0.30176 0.47325 0.90099 0.0
H668 H 0.29041 0.53747 0.8943 0.0
C669 C 0.29105 0.5506 0.78291 0.0
C670 C 0.26875 0.54028 0.7521 0.0
C671 C 0.30022 0.53945 0.8178 0.0
C672 C 0.29426 0.51955 0.89549 0.0
H673 H 0.33128 0.42698 0.01982 0.0
H674 H 0.33947 0.44813 0.9621 0.0
H675 H 0.29871 0.51964 0.95687 0.0
H676 H 0.23921 0.51 0.73336 0.0
H677 H 0.25376 0.49078 0.79488 0.0
H678 H 0.29836 0.47325 0.8396 0.0
C679 C 0.32126 0.45481 0.98153 0.0
C680 C 0.29846 0.50926 0.93154 0.0
C681 C 0.31687 0.44278 0.01485 0.0
C682 C 0.25654 0.51833 0.75659 0.0
C683 C 0.26512 0.50729 0.79185 0.0
C684 C 0.29809 0.48358 0.86491 0.0
C685 C 0.30134 0.47475 0.97277 0.0
C686 C 0.30145 0.48593 0.93478 0.0
C687 C 0.28669 0.51783 0.82312 0.0
C688 C 0.29356 0.50685 0.8616 0.0
H689 H 0.25597 0.47768 0.05189 0.0
H690 H 0.26277 0.49822 0.99373 0.0
H691 H 0.30355 0.45522 0.90216 0.0
H692 H 0.30139 0.5674 0.78009 0.0
H693 H 0.31772 0.54792 0.84071 0.0
C694 C 0.7198 0.46975 0.46374 0.0
C695 C 0.70278 0.44886 0.4563 0.0
C696 C 0.71512 0.48154 0.49715 0.0
C697 C 0.69341 0.50735 0.56476 0.0
H698 H 0.69799 0.4713 0.65713 0.0
C699 C 0.69985 0.54862 0.71332 0.0
C700 C 0.72454 0.53923 0.74334 0.0
C701 C 0.69061 0.53713 0.67877 0.0
C702 C 0.6969 0.48163 0.63167 0.0
H703 H 0.66508 0.42481 0.47676 0.0
H704 H 0.65607 0.44571 0.53453 0.0
H705 H 0.69316 0.45319 0.59455 0.0
H706 H 0.75806 0.51016 0.76113 0.0
H707 H 0.74305 0.49035 0.70024 0.0
H708 H 0.6995 0.53572 0.60183 0.0
C709 C 0.67397 0.45266 0.51508 0.0
C710 C 0.6935 0.47125 0.59564 0.0
C711 C 0.67887 0.44077 0.48174 0.0
C712 C 0.73889 0.51778 0.73853 0.0
C713 C 0.73008 0.50639 0.70365 0.0
C714 C 0.69717 0.51771 0.60075 0.0
C715 C 0.69301 0.47285 0.52382 0.0
C716 C 0.69233 0.48397 0.56174 0.0
C717 C 0.70629 0.5161 0.67307 0.0
C718 C 0.6995 0.50499 0.63475 0.0
H719 H 0.73846 0.47651 0.44487 0.0
H720 H 0.73054 0.49691 0.50298 0.0
H721 H 0.69205 0.51771 0.5393 0.0
H722 H 0.68784 0.56499 0.71637 0.0
H723 H 0.67145 0.54491 0.65635 0.0
C724 C 0.74331 0.46496 0.23998 0.0
C725 C 0.73012 0.44321 0.24436 0.0
C726 C 0.73496 0.47619 0.20487 0.0
C727 C 0.70543 0.46446 0.10134 0.0
H728 H 0.69673 0.52883 0.09508 0.0
C729 C 0.68201 0.54119 0.98224 0.0
C730 C 0.70631 0.53368 0.9567 0.0
C731 C 0.67805 0.52914 0.01564 0.0
C732 C 0.6984 0.5108 0.09618 0.0
H733 H 0.69601 0.41669 0.21631 0.0
H734 H 0.68031 0.43648 0.15591 0.0
H735 H 0.70191 0.51066 0.15759 0.0
H736 H 0.7439 0.50694 0.94526 0.0
H737 H 0.73768 0.4863 0.00355 0.0
H738 H 0.70109 0.46451 0.03995 0.0
C739 C 0.69828 0.44463 0.17884 0.0
C740 C 0.70202 0.50039 0.13218 0.0
C741 C 0.70711 0.43332 0.21361 0.0
C742 C 0.72484 0.51321 0.96418 0.0
C743 C 0.72115 0.50129 0.9977 0.0
C744 C 0.70139 0.47483 0.06537 0.0
C745 C 0.71277 0.46602 0.17365 0.0
C746 C 0.70622 0.47711 0.13529 0.0
C747 C 0.69851 0.50941 0.02441 0.0
C748 C 0.69855 0.49817 0.06232 0.0
H749 H 0.76119 0.47297 0.26317 0.0
H750 H 0.747 0.49253 0.20188 0.0
H751 H 0.70904 0.44652 0.10246 0.0
H752 H 0.66707 0.55682 0.9772 0.0
H753 H 0.65969 0.53563 0.03509 0.0
C754 C 0.27145 0.46595 0.25616 0.0
C755 C 0.26669 0.44265 0.25531 0.0
C756 C 0.28043 0.4771 0.29131 0.0
C757 C 0.2698 0.47135 0.39306 0.0
H758 H 0.34631 0.51676 0.41091 0.0
C759 C 0.29712 0.51342 0.54009 0.0
C760 C 0.30055 0.53676 0.53962 0.0
C761 C 0.30046 0.50092 0.50704 0.0
C762 C 0.32467 0.50422 0.40633 0.0
H763 H 0.26841 0.41283 0.29081 0.0
H764 H 0.28362 0.43226 0.35155 0.0
H765 H 0.33581 0.49778 0.34861 0.0
H766 H 0.31297 0.5651 0.50487 0.0
H767 H 0.31765 0.54347 0.44715 0.0
H768 H 0.25739 0.47812 0.44973 0.0
C769 C 0.28028 0.44191 0.32518 0.0
C770 C 0.3187 0.49338 0.37064 0.0
C771 C 0.27165 0.43078 0.29025 0.0
C772 C 0.31017 0.54713 0.50628 0.0
C773 C 0.31296 0.53467 0.47306 0.0
C774 C 0.27544 0.48229 0.42844 0.0
C775 C 0.28441 0.46517 0.32616 0.0
C776 C 0.29118 0.47684 0.36372 0.0
C777 C 0.3067 0.51151 0.47258 0.0
C778 C 0.30292 0.4989 0.43562 0.0
H779 H 0.26799 0.47558 0.22978 0.0
H780 H 0.28327 0.4951 0.29131 0.0
H781 H 0.24799 0.45889 0.38833 0.0
H782 H 0.29017 0.50489 0.56546 0.0
H783 H 0.29663 0.48303 0.5081 0.0
C784 C 0.78982 0.97034 0.04265 0.0
C785 C 0.79329 0.947 0.04155 0.0
C786 C 0.79326 0.98314 0.00997 0.0
C787 C 0.81819 0.98071 0.9095 0.0
H788 H 0.74155 0.02623 0.89197 0.0
C789 C 0.76548 0.01949 0.75981 0.0
C790 C 0.76055 0.04278 0.75906 0.0
C791 C 0.7744 0.00828 0.7949 0.0
C792 C 0.76336 0.01374 0.89658 0.0
H793 H 0.80578 0.91898 0.00605 0.0
H794 H 0.81063 0.94113 0.94899 0.0
H795 H 0.75062 0.00658 0.953 0.0
H796 H 0.76183 0.07255 0.79468 0.0
H797 H 0.77694 0.05301 0.85538 0.0
H798 H 0.82968 0.98752 0.85204 0.0
C799 C 0.80585 0.94969 0.97511 0.0
C800 C 0.76881 0.00255 0.93174 0.0
C801 C 0.80293 0.93693 0.00794 0.0
C802 C 0.76524 0.0546 0.79405 0.0
C803 C 0.7738 0.04342 0.82895 0.0
C804 C 0.81243 0.99179 0.87404 0.0
C805 C 0.79967 0.97287 0.97528 0.0
C806 C 0.79621 0.98583 0.93871 0.0
C807 C 0.77815 0.02015 0.82981 0.0
C808 C 0.78489 0.00838 0.86728 0.0
H809 H 0.78285 0.97864 0.06824 0.0
H810 H 0.78945 0.00103 0.01152 0.0
H811 H 0.83982 0.96811 0.91395 0.0
H812 H 0.76223 0.0099 0.73339 0.0
H813 H 0.77738 0.9903 0.79481 0.0
C814 C 0.21864 0.01921 0.74591 0.0
C815 C 0.2294 0.04171 0.74505 0.0
C816 C 0.20797 0.00756 0.71159 0.0
C817 C 0.17952 0.01657 0.60627 0.0
H818 H 0.21271 0.95544 0.59811 0.0
C819 C 0.19959 0.9723 0.46387 0.0
C820 C 0.19062 0.94951 0.46024 0.0
C821 C 0.1957 0.98377 0.49788 0.0
C822 C 0.20268 0.97239 0.60011 0.0
H823 H 0.23799 0.06948 0.70742 0.0
H824 H 0.22078 0.04912 0.64808 0.0
H825 H 0.22399 0.97457 0.65978 0.0
H826 H 0.1677 0.9214 0.48848 0.0
H827 H 0.16123 0.94144 0.54775 0.0
H828 H 0.15988 0.01457 0.54593 0.0
C829 C 0.2193 0.04056 0.67505 0.0
C830 C 0.2091 0.98337 0.63551 0.0
C831 C 0.22954 0.05221 0.70921 0.0
C832 C 0.1751 0.93891 0.49029 0.0
C833 C 0.17158 0.95032 0.52439 0.0
C834 C 0.17351 0.00565 0.57075 0.0
C835 C 0.2082 0.01811 0.67569 0.0
C836 C 0.19821 0.00574 0.63892 0.0
C837 C 0.18303 0.97264 0.529 0.0
C838 C 0.18551 0.98356 0.56722 0.0
H839 H 0.21798 0.01068 0.77306 0.0
H840 H 0.19923 0.99036 0.71322 0.0
H841 H 0.16995 0.03363 0.60797 0.0
H842 H 0.21149 0.98101 0.44128 0.0
H843 H 0.20482 0.00097 0.50068 0.0
C844 C 0.23475 0.96901 0.24334 0.0
C845 C 0.22138 0.94731 0.24776 0.0
C846 C 0.22654 0.98022 0.20818 0.0
C847 C 0.19677 0.9683 0.10461 0.0
H848 H 0.19057 0.03274 0.09772 0.0
C849 C 0.17736 0.04483 0.9847 0.0
C850 C 0.20129 0.03667 0.9593 0.0
C851 C 0.17263 0.03306 0.0182 0.0
C852 C 0.19152 0.01469 0.09897 0.0
H853 H 0.18701 0.92089 0.21982 0.0
H854 H 0.17142 0.94066 0.15939 0.0
H855 H 0.19488 0.01482 0.16038 0.0
H856 H 0.23734 0.00906 0.94822 0.0
H857 H 0.22985 0.98893 0.00663 0.0
H858 H 0.1925 0.9681 0.04324 0.0
C859 C 0.1895 0.94878 0.18226 0.0
C860 C 0.19466 0.00441 0.13509 0.0
C861 C 0.19825 0.93747 0.21706 0.0
C862 C 0.2186 0.01585 0.96702 0.0
C863 C 0.21417 0.00421 0.00063 0.0
C864 C 0.19317 0.97854 0.06854 0.0
C865 C 0.20426 0.97009 0.17695 0.0
C866 C 0.19802 0.98109 0.13846 0.0
C867 C 0.19194 0.01294 0.02721 0.0
C868 C 0.19129 0.0019 0.06524 0.0
H869 H 0.25273 0.97697 0.26651 0.0
H870 H 0.23881 -0.00351 0.20515 0.0
H871 H 0.19974 0.95032 0.10587 0.0
H872 H 0.16336 0.06074 0.9795 0.0
H873 H 0.1546 0.04004 0.03752 0.0
C874 C 0.80928 0.04052 0.51821 0.0
C875 C 0.78437 0.03348 0.54348 0.0
C876 C 0.81195 0.02881 0.48409 0.0
C877 C 0.75232 -0.0026 0.41342 0.0
H878 H 0.84186 0.97762 0.3732 0.0
C879 C 0.75016 0.96693 0.25712 0.0
C880 C 0.76478 0.94534 0.25428 0.0
C881 C 0.75648 0.97869 0.29184 0.0
C882 C 0.81671 0.98318 0.38411 0.0
H883 H 0.74465 0.00773 0.55386 0.0
H884 H 0.74904 0.98763 0.49417 0.0
H885 H 0.84669 -0.00514 0.43734 0.0
H886 H 0.79915 0.91966 0.28486 0.0
H887 H 0.81073 0.94044 0.34516 0.0
H888 H 0.7223 0.986 0.36034 0.0
C889 C 0.76635 0.00222 0.5008 0.0
C890 C 0.81949 -0.00698 0.42064 0.0
C891 C 0.76408 0.01368 0.5351 0.0
C892 C 0.78729 0.93621 0.28625 0.0
C893 C 0.79415 0.94813 0.32068 0.0
C894 C 0.74962 0.98799 0.37674 0.0
C895 C 0.78941 0.01007 0.47448 0.0
C896 C 0.78722 -8e-05 0.43575 0.0
C897 C 0.77813 0.96926 0.32405 0.0
C898 C 0.78172 0.98062 0.36187 0.0
H899 H 0.8254 0.05565 0.52385 0.0
H900 H 0.82997 0.03516 0.46421 0.0
H901 H 0.72708 0.00284 0.42429 0.0
H902 H 0.7327 0.97438 0.23301 0.0
H903 H 0.74397 -0.00497 0.29374 0.0
loop_
_geom_bond_atom_site_label_1
_geom_bond_atom_site_label_2
_geom_bond_distance
_geom_bond_site_symmetry_2
_ccdc_geom_bond_type
O0 Zn1 1.953 . S
O0 C16 1.225 . S
Zn1 O0 1.953 . S
Zn1 O2 1.949 . S
Zn1 O8 1.919 . S
Zn1 O13 1.924 . S
O2 Zn1 1.949 . S
O2 Zn3 1.923 . S
O2 Zn4 1.950 . S
O2 Zn5 1.945 . S
Zn3 O2 1.923 . S
Zn3 O6 1.933 . S
Zn3 O9 1.941 . S
Zn3 O10 1.965 . S
Zn4 O2 1.950 . S
Zn4 O11 1.938 . S
Zn4 O12 1.906 . S
Zn4 O22 1.953 . S
Zn5 O2 1.945 . S
Zn5 O7 1.932 . S
Zn5 O14 1.977 . S
Zn5 O15 1.910 . S
O6 Zn3 1.933 . S
O6 C17 1.226 . S
O7 Zn5 1.932 . S
O7 C17 1.307 . S
O8 Zn1 1.919 . S
O8 C19 1.253 . S
O9 Zn3 1.941 . S
O9 C19 1.283 . S
O10 Zn3 1.965 . S
O10 C18 1.303 . S
O11 Zn4 1.938 . S
O11 C18 1.247 . S
O12 Zn4 1.906 . S
O12 C20 1.304 . S
O13 Zn1 1.924 . S
O13 C21 1.311 . S
O14 Zn5 1.977 . S
O14 C20 1.272 . S
O15 Zn5 1.910 . S
O15 C21 1.231 . S
C16 O0 1.225 . S
C16 O22 1.298 . S
C17 O6 1.226 . S
C17 O7 1.307 . S
C18 O10 1.303 . S
C18 O11 1.247 . S
C19 O8 1.253 . S
C19 O9 1.283 . S
C20 O12 1.304 . S
C20 O14 1.272 . S
C21 O13 1.311 . S
C21 O15 1.231 . S
O22 Zn4 1.953 . S
O22 C16 1.298 . S
O23 Zn24 1.953 . S
O23 C39 1.225 . S
Zn24 O23 1.953 . S
Zn24 O25 1.949 . S
Zn24 O31 1.919 . S
Zn24 O36 1.924 . S
O25 Zn24 1.949 . S
O25 Zn26 1.923 . S
O25 Zn27 1.950 . S
O25 Zn28 1.945 . S
Zn26 O25 1.923 . S
Zn26 O29 1.933 . S
Zn26 O32 1.941 . S
Zn26 O33 1.965 . S
Zn27 O25 1.950 . S
Zn27 O34 1.938 . S
Zn27 O35 1.906 . S
Zn27 O45 1.953 . S
Zn28 O25 1.945 . S
Zn28 O30 1.932 . S
Zn28 O37 1.977 . S
Zn28 O38 1.910 . S
O29 Zn26 1.933 . S
O29 C40 1.226 . S
O30 Zn28 1.932 . S
O30 C40 1.307 . S
O31 Zn24 1.919 . S
O31 C42 1.253 . S
O32 Zn26 1.941 . S
O32 C42 1.283 . S
O33 Zn26 1.965 . S
O33 C41 1.303 . S
O34 Zn27 1.938 . S
O34 C41 1.247 . S
O35 Zn27 1.906 . S
O35 C43 1.304 . S
O36 Zn24 1.924 . S
O36 C44 1.311 . S
O37 Zn28 1.977 . S
O37 C43 1.272 . S
O38 Zn28 1.910 . S
O38 C44 1.231 . S
C39 O23 1.225 . S
C39 O45 1.298 . S
C40 O29 1.226 . S
C40 O30 1.307 . S
C41 O33 1.303 . S
C41 O34 1.247 . S
C42 O31 1.253 . S
C42 O32 1.283 . S
C43 O35 1.304 . S
C43 O37 1.272 . S
C44 O36 1.311 . S
C44 O38 1.231 . S
O45 Zn27 1.953 . S
O45 C39 1.298 . S
O46 Zn47 1.953 . S
O46 C62 1.225 . S
Zn47 O46 1.953 . S
Zn47 O48 1.949 . S
Zn47 O54 1.919 . S
Zn47 O59 1.924 . S
O48 Zn47 1.949 . S
O48 Zn49 1.923 . S
O48 Zn50 1.950 . S
O48 Zn51 1.945 . S
Zn49 O48 1.923 . S
Zn49 O52 1.933 . S
Zn49 O55 1.941 . S
Zn49 O56 1.965 . S
Zn50 O48 1.950 . S
Zn50 O57 1.938 . S
Zn50 O58 1.906 . S
Zn50 O68 1.953 . S
Zn51 O48 1.945 . S
Zn51 O53 1.932 . S
Zn51 O60 1.977 . S
Zn51 O61 1.910 . S
O52 Zn49 1.933 . S
O52 C63 1.226 . S
O53 Zn51 1.932 . S
O53 C63 1.307 . S
O54 Zn47 1.919 . S
O54 C65 1.253 . S
O55 Zn49 1.941 . S
O55 C65 1.283 . S
O56 Zn49 1.965 . S
O56 C64 1.303 . S
O57 Zn50 1.938 . S
O57 C64 1.247 . S
O58 Zn50 1.906 . S
O58 C66 1.304 . S
O59 Zn47 1.924 . S
O59 C67 1.311 . S
O60 Zn51 1.977 . S
O60 C66 1.272 . S
O61 Zn51 1.910 . S
O61 C67 1.231 . S
C62 O46 1.225 . S
C62 O68 1.298 . S
C63 O52 1.226 . S
C63 O53 1.307 . S
C64 O56 1.303 . S
C64 O57 1.247 . S
C65 O54 1.253 . S
C65 O55 1.283 . S
C66 O58 1.304 . S
C66 O60 1.272 . S
C67 O59 1.311 . S
C67 O61 1.231 . S
O68 Zn50 1.953 . S
O68 C62 1.298 . S
O69 Zn70 1.953 . S
O69 C85 1.225 . S
Zn70 O69 1.953 . S
Zn70 O71 1.949 . S
Zn70 O77 1.919 . S
Zn70 O82 1.924 . S
O71 Zn70 1.949 . S
O71 Zn72 1.923 . S
O71 Zn73 1.950 . S
O71 Zn74 1.945 . S
Zn72 O71 1.923 . S
Zn72 O75 1.933 . S
Zn72 O78 1.941 . S
Zn72 O79 1.965 . S
Zn73 O71 1.950 . S
Zn73 O80 1.938 . S
Zn73 O81 1.906 . S
Zn73 O91 1.953 . S
Zn74 O71 1.945 . S
Zn74 O76 1.932 . S
Zn74 O83 1.977 . S
Zn74 O84 1.910 . S
O75 Zn72 1.933 . S
O75 C86 1.226 . S
O76 Zn74 1.932 . S
O76 C86 1.307 . S
O77 Zn70 1.919 . S
O77 C88 1.253 . S
O78 Zn72 1.941 . S
O78 C88 1.283 . S
O79 Zn72 1.965 . S
O79 C87 1.303 . S
O80 Zn73 1.938 . S
O80 C87 1.247 . S
O81 Zn73 1.906 . S
O81 C89 1.304 . S
O82 Zn70 1.924 . S
O82 C90 1.311 . S
O83 Zn74 1.977 . S
O83 C89 1.272 . S
O84 Zn74 1.910 . S
O84 C90 1.231 . S
C85 O69 1.225 . S
C85 O91 1.298 . S
C86 O75 1.226 . S
C86 O76 1.307 . S
C87 O79 1.303 . S
C87 O80 1.247 . S
C88 O77 1.253 . S
C88 O78 1.283 . S
C89 O81 1.304 . S
C89 O83 1.272 . S
C90 O82 1.311 . S
C90 O84 1.231 . S
O91 Zn73 1.953 . S
O91 C85 1.298 . S
O92 Zn93 1.953 . S
O92 C108 1.225 . S
Zn93 O92 1.953 . S
Zn93 O94 1.949 . S
Zn93 O100 1.919 . S
Zn93 O105 1.924 . S
O94 Zn93 1.949 . S
O94 Zn95 1.923 . S
O94 Zn96 1.950 . S
O94 Zn97 1.945 . S
Zn95 O94 1.923 . S
Zn95 O98 1.933 . S
Zn95 O101 1.941 . S
Zn95 O102 1.965 . S
Zn96 O94 1.950 . S
Zn96 O103 1.938 . S
Zn96 O104 1.906 . S
Zn96 O114 1.953 . S
Zn97 O94 1.945 . S
Zn97 O99 1.932 . S
Zn97 O106 1.977 . S
Zn97 O107 1.910 . S
O98 Zn95 1.933 . S
O98 C109 1.226 . S
O99 Zn97 1.932 . S
O99 C109 1.307 . S
O100 Zn93 1.919 . S
O100 C111 1.253 . S
O101 Zn95 1.941 . S
O101 C111 1.283 . S
O102 Zn95 1.965 . S
O102 C110 1.303 . S
O103 Zn96 1.938 . S
O103 C110 1.247 . S
O104 Zn96 1.906 . S
O104 C112 1.304 . S
O105 Zn93 1.924 . S
O105 C113 1.311 . S
O106 Zn97 1.977 . S
O106 C112 1.272 . S
O107 Zn97 1.910 . S
O107 C113 1.231 . S
C108 O92 1.225 . S
C108 O114 1.298 . S
C109 O98 1.226 . S
C109 O99 1.307 . S
C110 O102 1.303 . S
C110 O103 1.247 . S
C111 O100 1.253 . S
C111 O101 1.283 . S
C112 O104 1.304 . S
C112 O106 1.272 . S
C113 O105 1.311 . S
C113 O107 1.231 . S
O114 Zn96 1.953 . S
O114 C108 1.298 . S
O115 Zn116 1.953 . S
O115 C131 1.225 . S
Zn116 O115 1.953 . S
Zn116 O117 1.949 . S
Zn116 O123 1.919 . S
Zn116 O128 1.924 . S
O117 Zn116 1.949 . S
O117 Zn118 1.923 . S
O117 Zn119 1.950 . S
O117 Zn120 1.945 . S
Zn118 O117 1.923 . S
Zn118 O121 1.933 . S
Zn118 O124 1.941 . S
Zn118 O125 1.965 . S
Zn119 O117 1.950 . S
Zn119 O126 1.938 . S
Zn119 O127 1.906 . S
Zn119 O137 1.953 . S
Zn120 O117 1.945 . S
Zn120 O122 1.932 . S
Zn120 O129 1.977 . S
Zn120 O130 1.910 . S
O121 Zn118 1.933 . S
O121 C132 1.226 . S
O122 Zn120 1.932 . S
O122 C132 1.307 . S
O123 Zn116 1.919 . S
O123 C134 1.253 . S
O124 Zn118 1.941 . S
O124 C134 1.283 . S
O125 Zn118 1.965 . S
O125 C133 1.303 . S
O126 Zn119 1.938 . S
O126 C133 1.247 . S
O127 Zn119 1.906 . S
O127 C135 1.304 . S
O128 Zn116 1.924 . S
O128 C136 1.311 . S
O129 Zn120 1.977 . S
O129 C135 1.272 . S
O130 Zn120 1.910 . S
O130 C136 1.231 . S
C131 O115 1.225 . S
C131 O137 1.298 . S
C132 O121 1.226 . S
C132 O122 1.307 . S
C133 O125 1.303 . S
C133 O126 1.247 . S
C134 O123 1.253 . S
C134 O124 1.283 . S
C135 O127 1.304 . S
C135 O129 1.272 . S
C136 O128 1.311 . S
C136 O130 1.231 . S
O137 Zn119 1.953 . S
O137 C131 1.298 . S
O138 Zn139 1.953 . S
O138 C154 1.225 . S
Zn139 O138 1.953 . S
Zn139 O140 1.949 . S
Zn139 O146 1.919 . S
Zn139 O151 1.924 . S
O140 Zn139 1.949 . S
O140 Zn141 1.923 . S
O140 Zn142 1.950 . S
O140 Zn143 1.945 . S
Zn141 O140 1.923 . S
Zn141 O144 1.933 . S
Zn141 O147 1.941 . S
Zn141 O148 1.965 . S
Zn142 O140 1.950 . S
Zn142 O149 1.938 . S
Zn142 O150 1.906 . S
Zn142 O160 1.953 . S
Zn143 O140 1.945 . S
Zn143 O145 1.932 . S
Zn143 O152 1.977 . S
Zn143 O153 1.910 . S
O144 Zn141 1.933 . S
O144 C155 1.226 . S
O145 Zn143 1.932 . S
O145 C155 1.307 . S
O146 Zn139 1.919 . S
O146 C157 1.253 . S
O147 Zn141 1.941 . S
O147 C157 1.283 . S
O148 Zn141 1.965 . S
O148 C156 1.303 . S
O149 Zn142 1.938 . S
O149 C156 1.247 . S
O150 Zn142 1.906 . S
O150 C158 1.304 . S
O151 Zn139 1.924 . S
O151 C159 1.311 . S
O152 Zn143 1.977 . S
O152 C158 1.272 . S
O153 Zn143 1.910 . S
O153 C159 1.231 . S
C154 O138 1.225 . S
C154 O160 1.298 . S
C155 O144 1.226 . S
C155 O145 1.307 . S
C156 O148 1.303 . S
C156 O149 1.247 . S
C157 O146 1.253 . S
C157 O147 1.283 . S
C158 O150 1.304 . S
C158 O152 1.272 . S
C159 O151 1.311 . S
C159 O153 1.231 . S
O160 Zn142 1.953 . S
O160 C154 1.298 . S
O161 Zn162 1.953 . S
O161 C177 1.225 . S
Zn162 O161 1.953 . S
Zn162 O163 1.949 . S
Zn162 O169 1.919 . S
Zn162 O174 1.924 . S
O163 Zn162 1.949 . S
O163 Zn164 1.923 . S
O163 Zn165 1.950 . S
O163 Zn166 1.945 . S
Zn164 O163 1.923 . S
Zn164 O167 1.933 . S
Zn164 O170 1.941 . S
Zn164 O171 1.965 . S
Zn165 O163 1.950 . S
Zn165 O172 1.938 . S
Zn165 O173 1.906 . S
Zn165 O183 1.953 . S
Zn166 O163 1.945 . S
Zn166 O168 1.932 . S
Zn166 O175 1.977 . S
Zn166 O176 1.910 . S
O167 Zn164 1.933 . S
O167 C178 1.226 . S
O168 Zn166 1.932 . S
O168 C178 1.307 . S
O169 Zn162 1.919 . S
O169 C180 1.253 . S
O170 Zn164 1.941 . S
O170 C180 1.283 . S
O171 Zn164 1.965 . S
O171 C179 1.303 . S
O172 Zn165 1.938 . S
O172 C179 1.247 . S
O173 Zn165 1.906 . S
O173 C181 1.304 . S
O174 Zn162 1.924 . S
O174 C182 1.311 . S
O175 Zn166 1.977 . S
O175 C181 1.272 . S
O176 Zn166 1.910 . S
O176 C182 1.231 . S
C177 O161 1.225 . S
C177 O183 1.298 . S
C178 O167 1.226 . S
C178 O168 1.307 . S
C179 O171 1.303 . S
C179 O172 1.247 . S
C180 O169 1.253 . S
C180 O170 1.283 . S
C181 O173 1.304 . S
C181 O175 1.272 . S
C182 O174 1.311 . S
C182 O176 1.231 . S
O183 Zn165 1.953 . S
O183 C177 1.298 . S
C184 C185 1.349 . S
C184 C186 1.327 . S
C184 H209 0.950 . S
C185 C184 1.349 . S
C185 C201 1.349 . S
C186 C184 1.327 . S
C186 C205 1.429 . S
C186 H210 0.950 . S
C187 C204 1.574 . S
C187 C206 1.368 . S
C187 H211 0.949 . S
H188 C192 0.949 . S
C189 C190 1.349 . S
C189 C191 1.327 . S
C189 H212 0.950 . S
C190 C189 1.349 . S
C190 C202 1.349 . S
C191 C189 1.327 . S
C191 C207 1.429 . S
C191 H213 0.950 . S
C192 H188 0.949 . S
C192 C200 1.574 . S
C192 C208 1.368 . S
H193 C201 0.950 . S
H194 C199 0.950 . S
H195 C200 0.949 . S
H196 C202 0.950 . S
H197 C203 0.950 . S
H198 C204 0.949 . S
C199 H194 0.950 . S
C199 C201 1.327 . S
C199 C205 1.429 . S
C200 C192 1.574 . S
C200 H195 0.949 . S
C200 C206 1.368 . S
C201 C185 1.349 . S
C201 H193 0.950 . S
C201 C199 1.327 . S
C202 C190 1.349 . S
C202 H196 0.950 . S
C202 C203 1.327 . S
C203 H197 0.950 . S
C203 C202 1.327 . S
C203 C207 1.429 . S
C204 C187 1.574 . S
C204 H198 0.949 . S
C204 C208 1.368 . S
C205 C186 1.429 . S
C205 C199 1.429 . S
C205 C206 1.523 . S
C206 C187 1.368 . S
C206 C200 1.368 . S
C206 C205 1.523 . S
C207 C191 1.429 . S
C207 C203 1.429 . S
C207 C208 1.523 . S
C208 C192 1.368 . S
C208 C204 1.368 . S
C208 C207 1.523 . S
H209 C184 0.950 . S
H210 C186 0.950 . S
H211 C187 0.949 . S
H212 C189 0.950 . S
H213 C191 0.950 . S
C214 C215 1.349 . S
C214 C216 1.327 . S
C214 H239 0.950 . S
C215 C214 1.349 . S
C215 C231 1.349 . S
C216 C214 1.327 . S
C216 C235 1.429 . S
C216 H240 0.950 . S
C217 C234 1.574 . S
C217 C236 1.368 . S
C217 H241 0.949 . S
H218 C222 0.949 . S
C219 C220 1.349 . S
C219 C221 1.327 . S
C219 H242 0.950 . S
C220 C219 1.349 . S
C220 C232 1.349 . S
C221 C219 1.327 . S
C221 C237 1.429 . S
C221 H243 0.950 . S
C222 H218 0.949 . S
C222 C230 1.574 . S
C222 C238 1.368 . S
H223 C231 0.950 . S
H224 C229 0.950 . S
H225 C230 0.949 . S
H226 C232 0.950 . S
H227 C233 0.950 . S
H228 C234 0.949 . S
C229 H224 0.950 . S
C229 C231 1.327 . S
C229 C235 1.429 . S
C230 C222 1.574 . S
C230 H225 0.949 . S
C230 C236 1.368 . S
C231 C215 1.349 . S
C231 H223 0.950 . S
C231 C229 1.327 . S
C232 C220 1.349 . S
C232 H226 0.950 . S
C232 C233 1.327 . S
C233 H227 0.950 . S
C233 C232 1.327 . S
C233 C237 1.429 . S
C234 C217 1.574 . S
C234 H228 0.949 . S
C234 C238 1.368 . S
C235 C216 1.429 . S
C235 C229 1.429 . S
C235 C236 1.523 . S
C236 C217 1.368 . S
C236 C230 1.368 . S
C236 C235 1.523 . S
C237 C221 1.429 . S
C237 C233 1.429 . S
C237 C238 1.523 . S
C238 C222 1.368 . S
C238 C234 1.368 . S
C238 C237 1.523 . S
H239 C214 0.950 . S
H240 C216 0.950 . S
H241 C217 0.949 . S
H242 C219 0.950 . S
H243 C221 0.950 . S
C244 C245 1.349 . S
C244 C246 1.327 . S
C244 H269 0.950 . S
C245 C244 1.349 . S
C245 C261 1.349 . S
C246 C244 1.327 . S
C246 C265 1.429 . S
C246 H270 0.950 . S
C247 C264 1.574 1_455 S
C247 C266 1.368 . S
C247 H271 0.949 . S
H248 C252 0.949 . S
C249 C250 1.349 . S
C249 C251 1.327 . S
C249 H272 0.950 . S
C250 C249 1.349 . S
C250 C262 1.349 . S
C251 C249 1.327 . S
C251 C267 1.429 . S
C251 H273 0.950 . S
C252 H248 0.949 . S
C252 C260 1.574 1_655 S
C252 C268 1.368 . S
H253 C261 0.950 . S
H254 C259 0.950 . S
H255 C260 0.949 . S
H256 C262 0.950 . S
H257 C263 0.950 . S
H258 C264 0.949 . S
C259 H254 0.950 . S
C259 C261 1.327 . S
C259 C265 1.429 . S
C260 C252 1.574 1_455 S
C260 H255 0.949 . S
C260 C266 1.368 . S
C261 C245 1.349 . S
C261 H253 0.950 . S
C261 C259 1.327 . S
C262 C250 1.349 . S
C262 H256 0.950 . S
C262 C263 1.327 . S
C263 H257 0.950 . S
C263 C262 1.327 . S
C263 C267 1.429 . S
C264 C247 1.574 1_655 S
C264 H258 0.949 . S
C264 C268 1.368 . S
C265 C246 1.429 . S
C265 C259 1.429 . S
C265 C266 1.523 . S
C266 C247 1.368 . S
C266 C260 1.368 . S
C266 C265 1.523 . S
C267 C251 1.429 . S
C267 C263 1.429 . S
C267 C268 1.523 . S
C268 C252 1.368 . S
C268 C264 1.368 . S
C268 C267 1.523 . S
H269 C244 0.950 . S
H270 C246 0.950 . S
H271 C247 0.949 . S
H272 C249 0.950 . S
H273 C251 0.950 . S
C274 C275 1.349 . S
C274 C276 1.327 . S
C274 H299 0.950 . S
C275 C274 1.349 . S
C275 C291 1.349 . S
C276 C274 1.327 . S
C276 C295 1.429 . S
C276 H300 0.950 . S
C277 C294 1.574 1_455 S
C277 C296 1.368 . S
C277 H301 0.949 . S
H278 C282 0.949 . S
C279 C280 1.349 . S
C279 C281 1.327 . S
C279 H302 0.950 . S
C280 C279 1.349 . S
C280 C292 1.349 . S
C281 C279 1.327 . S
C281 C297 1.429 . S
C281 H303 0.950 . S
C282 H278 0.949 . S
C282 C290 1.574 1_655 S
C282 C298 1.368 . S
H283 C291 0.950 . S
H284 C289 0.950 . S
H285 C290 0.949 . S
H286 C292 0.950 . S
H287 C293 0.950 . S
H288 C294 0.949 . S
C289 H284 0.950 . S
C289 C291 1.327 . S
C289 C295 1.429 . S
C290 C282 1.574 1_455 S
C290 H285 0.949 . S
C290 C296 1.368 . S
C291 C275 1.349 . S
C291 H283 0.950 . S
C291 C289 1.327 . S
C292 C280 1.349 . S
C292 H286 0.950 . S
C292 C293 1.327 . S
C293 H287 0.950 . S
C293 C292 1.327 . S
C293 C297 1.429 . S
C294 C277 1.574 1_655 S
C294 H288 0.949 . S
C294 C298 1.368 . S
C295 C276 1.429 . S
C295 C289 1.429 . S
C295 C296 1.523 . S
C296 C277 1.368 . S
C296 C290 1.368 . S
C296 C295 1.523 . S
C297 C281 1.429 . S
C297 C293 1.429 . S
C297 C298 1.523 . S
C298 C282 1.368 . S
C298 C294 1.368 . S
C298 C297 1.523 . S
H299 C274 0.950 . S
H300 C276 0.950 . S
H301 C277 0.949 . S
H302 C279 0.950 . S
H303 C281 0.950 . S
C304 C305 1.349 . S
C304 C306 1.327 . S
C304 H329 0.950 . S
C305 C304 1.349 . S
C305 C321 1.349 . S
C306 C304 1.327 . S
C306 C325 1.429 . S
C306 H330 0.950 . S
C307 C324 1.574 . S
C307 C326 1.368 . S
C307 H331 0.949 . S
H308 C312 0.949 . S
C309 C310 1.349 . S
C309 C311 1.327 . S
C309 H332 0.950 . S
C310 C309 1.349 . S
C310 C322 1.349 . S
C311 C309 1.327 . S
C311 C327 1.429 . S
C311 H333 0.950 . S
C312 H308 0.949 . S
C312 C320 1.574 . S
C312 C328 1.368 . S
H313 C321 0.950 . S
H314 C319 0.950 . S
H315 C320 0.949 . S
H316 C322 0.950 . S
H317 C323 0.950 . S
H318 C324 0.949 . S
C319 H314 0.950 . S
C319 C321 1.327 . S
C319 C325 1.429 . S
C320 C312 1.574 . S
C320 H315 0.949 . S
C320 C326 1.368 1_556 S
C321 C305 1.349 . S
C321 H313 0.950 . S
C321 C319 1.327 . S
C322 C310 1.349 . S
C322 H316 0.950 . S
C322 C323 1.327 . S
C323 H317 0.950 . S
C323 C322 1.327 . S
C323 C327 1.429 . S
C324 C307 1.574 . S
C324 H318 0.949 . S
C324 C328 1.368 1_554 S
C325 C306 1.429 . S
C325 C319 1.429 . S
C325 C326 1.523 . S
C326 C307 1.368 . S
C326 C320 1.368 1_554 S
C326 C325 1.523 . S
C327 C311 1.429 . S
C327 C323 1.429 . S
C327 C328 1.523 . S
C328 C312 1.368 . S
C328 C324 1.368 1_556 S
C328 C327 1.523 . S
H329 C304 0.950 . S
H330 C306 0.950 . S
H331 C307 0.949 . S
H332 C309 0.950 . S
H333 C311 0.950 . S
C334 C335 1.349 . S
C334 C336 1.327 . S
C334 H359 0.950 . S
C335 C334 1.349 . S
C335 C351 1.349 . S
C336 C334 1.327 . S
C336 C355 1.429 . S
C336 H360 0.950 . S
C337 C354 1.574 . S
C337 C356 1.368 . S
C337 H361 0.949 . S
H338 C342 0.949 . S
C339 C340 1.349 . S
C339 C341 1.327 . S
C339 H362 0.950 . S
C340 C339 1.349 . S
C340 C352 1.349 . S
C341 C339 1.327 . S
C341 C357 1.429 . S
C341 H363 0.950 . S
C342 H338 0.949 . S
C342 C350 1.574 . S
C342 C358 1.368 . S
H343 C351 0.950 . S
H344 C349 0.950 . S
H345 C350 0.949 . S
H346 C352 0.950 . S
H347 C353 0.950 . S
H348 C354 0.949 . S
C349 H344 0.950 . S
C349 C351 1.327 . S
C349 C355 1.429 . S
C350 C342 1.574 . S
C350 H345 0.949 . S
C350 C356 1.368 . S
C351 C335 1.349 . S
C351 H343 0.950 . S
C351 C349 1.327 . S
C352 C340 1.349 . S
C352 H346 0.950 . S
C352 C353 1.327 . S
C353 H347 0.950 . S
C353 C352 1.327 . S
C353 C357 1.429 . S
C354 C337 1.574 . S
C354 H348 0.949 . S
C354 C358 1.368 . S
C355 C336 1.429 . S
C355 C349 1.429 . S
C355 C356 1.523 . S
C356 C337 1.368 . S
C356 C350 1.368 . S
C356 C355 1.523 . S
C357 C341 1.429 . S
C357 C353 1.429 . S
C357 C358 1.523 . S
C358 C342 1.368 . S
C358 C354 1.368 . S
C358 C357 1.523 . S
H359 C334 0.950 . S
H360 C336 0.950 . S
H361 C337 0.949 . S
H362 C339 0.950 . S
H363 C341 0.950 . S
C364 C365 1.349 . S
C364 C366 1.327 . S
C364 H389 0.950 . S
C365 C364 1.349 . S
C365 C381 1.349 . S
C366 C364 1.327 . S
C366 C385 1.429 . S
C366 H390 0.950 . S
C367 C384 1.574 . S
C367 C386 1.368 1_556 S
C367 H391 0.949 . S
H368 C372 0.949 . S
C369 C370 1.349 . S
C369 C371 1.327 . S
C369 H392 0.950 . S
C370 C369 1.349 . S
C370 C382 1.349 . S
C371 C369 1.327 . S
C371 C387 1.429 . S
C371 H393 0.950 . S
C372 H368 0.949 . S
C372 C380 1.574 . S
C372 C388 1.368 1_554 S
H373 C381 0.950 . S
H374 C379 0.950 1_556 S
H375 C380 0.949 . S
H376 C382 0.950 . S
H377 C383 0.950 1_554 S
H378 C384 0.949 . S
C379 H374 0.950 1_554 S
C379 C381 1.327 . S
C379 C385 1.429 . S
C380 C372 1.574 . S
C380 H375 0.949 . S
C380 C386 1.368 . S
C381 C365 1.349 . S
C381 H373 0.950 . S
C381 C379 1.327 . S
C382 C370 1.349 . S
C382 H376 0.950 . S
C382 C383 1.327 . S
C383 H377 0.950 1_556 S
C383 C382 1.327 . S
C383 C387 1.429 . S
C384 C367 1.574 . S
C384 H378 0.949 . S
C384 C388 1.368 . S
C385 C366 1.429 . S
C385 C379 1.429 . S
C385 C386 1.523 . S
C386 C367 1.368 1_554 S
C386 C380 1.368 . S
C386 C385 1.523 . S
C387 C371 1.429 . S
C387 C383 1.429 . S
C387 C388 1.523 . S
C388 C372 1.368 1_556 S
C388 C384 1.368 . S
C388 C387 1.523 . S
H389 C364 0.950 . S
H390 C366 0.950 . S
H391 C367 0.949 . S
H392 C369 0.950 . S
H393 C371 0.950 . S
C394 C395 1.349 . S
C394 C396 1.327 . S
C394 H419 0.950 . S
C395 C394 1.349 . S
C395 C411 1.349 . S
C396 C394 1.327 . S
C396 C415 1.429 . S
C396 H420 0.950 . S
C397 C414 1.574 . S
C397 C416 1.368 . S
C397 H421 0.949 . S
H398 C402 0.949 . S
C399 C400 1.349 . S
C399 C401 1.327 . S
C399 H422 0.950 . S
C400 C399 1.349 . S
C400 C412 1.349 . S
C401 C399 1.327 . S
C401 C417 1.429 . S
C401 H423 0.950 . S
C402 H398 0.949 . S
C402 C410 1.574 . S
C402 C418 1.368 . S
H403 C411 0.950 . S
H404 C409 0.950 . S
H405 C410 0.949 . S
H406 C412 0.950 . S
H407 C413 0.950 . S
H408 C414 0.949 . S
C409 H404 0.950 . S
C409 C411 1.327 . S
C409 C415 1.429 . S
C410 C402 1.574 . S
C410 H405 0.949 . S
C410 C416 1.368 . S
C411 C395 1.349 . S
C411 H403 0.950 . S
C411 C409 1.327 . S
C412 C400 1.349 . S
C412 H406 0.950 . S
C412 C413 1.327 . S
C413 H407 0.950 . S
C413 C412 1.327 . S
C413 C417 1.429 . S
C414 C397 1.574 . S
C414 H408 0.949 . S
C414 C418 1.368 . S
C415 C396 1.429 . S
C415 C409 1.429 . S
C415 C416 1.523 . S
C416 C397 1.368 . S
C416 C410 1.368 . S
C416 C415 1.523 . S
C417 C401 1.429 . S
C417 C413 1.429 . S
C417 C418 1.523 . S
C418 C402 1.368 . S
C418 C414 1.368 . S
C418 C417 1.523 . S
H419 C394 0.950 . S
H420 C396 0.950 . S
H421 C397 0.949 . S
H422 C399 0.950 . S
H423 C401 0.950 . S
C424 C425 1.349 . S
C424 C426 1.327 . S
C424 H449 0.950 . S
C425 C424 1.349 . S
C425 C441 1.349 . S
C426 C424 1.327 . S
C426 C445 1.429 . S
C426 H450 0.950 1_556 S
C427 C444 1.574 1_655 S
C427 C446 1.368 . S
C427 H451 0.949 . S
H428 C432 0.949 . S
C429 C430 1.349 . S
C429 C431 1.327 . S
C429 H452 0.950 . S
C430 C429 1.349 . S
C430 C442 1.349 . S
C431 C429 1.327 . S
C431 C447 1.429 . S
C431 H453 0.950 1_554 S
C432 H428 0.949 . S
C432 C440 1.574 1_455 S
C432 C448 1.368 . S
H433 C441 0.950 . S
H434 C439 0.950 . S
H435 C440 0.949 . S
H436 C442 0.950 . S
H437 C443 0.950 . S
H438 C444 0.949 . S
C439 H434 0.950 . S
C439 C441 1.327 . S
C439 C445 1.429 . S
C440 C432 1.574 1_655 S
C440 H435 0.949 . S
C440 C446 1.368 1_554 S
C441 C425 1.349 . S
C441 H433 0.950 . S
C441 C439 1.327 . S
C442 C430 1.349 . S
C442 H436 0.950 . S
C442 C443 1.327 . S
C443 H437 0.950 . S
C443 C442 1.327 . S
C443 C447 1.429 . S
C444 C427 1.574 1_455 S
C444 H438 0.949 . S
C444 C448 1.368 1_556 S
C445 C426 1.429 . S
C445 C439 1.429 . S
C445 C446 1.523 . S
C446 C427 1.368 . S
C446 C440 1.368 1_556 S
C446 C445 1.523 . S
C447 C431 1.429 . S
C447 C443 1.429 . S
C447 C448 1.523 . S
C448 C432 1.368 . S
C448 C444 1.368 1_554 S
C448 C447 1.523 . S
H449 C424 0.950 . S
H450 C426 0.950 1_554 S
H451 C427 0.949 . S
H452 C429 0.950 . S
H453 C431 0.950 1_556 S
C454 C455 1.349 . S
C454 C456 1.327 . S
C454 H479 0.950 . S
C455 C454 1.349 . S
C455 C471 1.349 . S
C456 C454 1.327 . S
C456 C475 1.429 . S
C456 H480 0.950 . S
C457 C474 1.574 . S
C457 C476 1.368 1_655 S
C457 H481 0.949 . S
H458 C462 0.949 . S
C459 C460 1.349 . S
C459 C461 1.327 . S
C459 H482 0.950 . S
C460 C459 1.349 . S
C460 C472 1.349 . S
C461 C459 1.327 . S
C461 C477 1.429 . S
C461 H483 0.950 . S
C462 H458 0.949 . S
C462 C470 1.574 . S
C462 C478 1.368 1_455 S
H463 C471 0.950 . S
H464 C469 0.950 . S
H465 C470 0.949 . S
H466 C472 0.950 . S
H467 C473 0.950 . S
H468 C474 0.949 . S
C469 H464 0.950 . S
C469 C471 1.327 . S
C469 C475 1.429 . S
C470 C462 1.574 . S
C470 H465 0.949 . S
C470 C476 1.368 . S
C471 C455 1.349 . S
C471 H463 0.950 . S
C471 C469 1.327 . S
C472 C460 1.349 . S
C472 H466 0.950 . S
C472 C473 1.327 . S
C473 H467 0.950 . S
C473 C472 1.327 . S
C473 C477 1.429 . S
C474 C457 1.574 . S
C474 H468 0.949 . S
C474 C478 1.368 . S
C475 C456 1.429 . S
C475 C469 1.429 . S
C475 C476 1.523 . S
C476 C457 1.368 1_455 S
C476 C470 1.368 . S
C476 C475 1.523 . S
C477 C461 1.429 . S
C477 C473 1.429 . S
C477 C478 1.523 . S
C478 C462 1.368 1_655 S
C478 C474 1.368 . S
C478 C477 1.523 . S
H479 C454 0.950 . S
H480 C456 0.950 . S
H481 C457 0.949 . S
H482 C459 0.950 . S
H483 C461 0.950 . S
C484 C485 1.349 . S
C484 C486 1.327 . S
C484 H509 0.950 . S
C485 C484 1.349 . S
C485 C501 1.349 . S
C486 C484 1.327 . S
C486 C505 1.429 . S
C486 H510 0.950 . S
C487 C504 1.574 1_554 S
C487 C506 1.368 . S
C487 H511 0.949 . S
H488 C492 0.949 . S
C489 C490 1.349 . S
C489 C491 1.327 . S
C489 H512 0.950 . S
C490 C489 1.349 . S
C490 C502 1.349 . S
C491 C489 1.327 . S
C491 C507 1.429 . S
C491 H513 0.950 . S
C492 H488 0.949 . S
C492 C500 1.574 1_556 S
C492 C508 1.368 . S
H493 C501 0.950 . S
H494 C499 0.950 . S
H495 C500 0.949 . S
H496 C502 0.950 . S
H497 C503 0.950 . S
H498 C504 0.949 . S
C499 H494 0.950 . S
C499 C501 1.327 . S
C499 C505 1.429 . S
C500 C492 1.574 1_554 S
C500 H495 0.949 . S
C500 C506 1.368 1_545 S
C501 C485 1.349 . S
C501 H493 0.950 . S
C501 C499 1.327 . S
C502 C490 1.349 . S
C502 H496 0.950 . S
C502 C503 1.327 . S
C503 H497 0.950 . S
C503 C502 1.327 . S
C503 C507 1.429 . S
C504 C487 1.574 1_556 S
C504 H498 0.949 . S
C504 C508 1.368 1_565 S
C505 C486 1.429 . S
C505 C499 1.429 . S
C505 C506 1.523 . S
C506 C487 1.368 . S
C506 C500 1.368 1_565 S
C506 C505 1.523 . S
C507 C491 1.429 . S
C507 C503 1.429 . S
C507 C508 1.523 . S
C508 C492 1.368 . S
C508 C504 1.368 1_545 S
C508 C507 1.523 . S
H509 C484 0.950 . S
H510 C486 0.950 . S
H511 C487 0.949 . S
H512 C489 0.950 . S
H513 C491 0.950 . S
C514 C515 1.349 . S
C514 C516 1.327 . S
C514 H539 0.950 . S
C515 C514 1.349 . S
C515 C531 1.349 . S
C516 C514 1.327 . S
C516 C535 1.429 . S
C516 H540 0.950 . S
C517 C534 1.574 . S
C517 C536 1.368 . S
C517 H541 0.949 . S
H518 C522 0.949 . S
C519 C520 1.349 . S
C519 C521 1.327 . S
C519 H542 0.950 . S
C520 C519 1.349 . S
C520 C532 1.349 . S
C521 C519 1.327 . S
C521 C537 1.429 . S
C521 H543 0.950 . S
C522 H518 0.949 . S
C522 C530 1.574 . S
C522 C538 1.368 . S
H523 C531 0.950 . S
H524 C529 0.950 . S
H525 C530 0.949 . S
H526 C532 0.950 . S
H527 C533 0.950 . S
H528 C534 0.949 . S
C529 H524 0.950 . S
C529 C531 1.327 . S
C529 C535 1.429 . S
C530 C522 1.574 . S
C530 H525 0.949 . S
C530 C536 1.368 1_545 S
C531 C515 1.349 . S
C531 H523 0.950 . S
C531 C529 1.327 . S
C532 C520 1.349 . S
C532 H526 0.950 . S
C532 C533 1.327 . S
C533 H527 0.950 . S
C533 C532 1.327 . S
C533 C537 1.429 . S
C534 C517 1.574 . S
C534 H528 0.949 . S
C534 C538 1.368 1_565 S
C535 C516 1.429 . S
C535 C529 1.429 . S
C535 C536 1.523 . S
C536 C517 1.368 . S
C536 C530 1.368 1_565 S
C536 C535 1.523 . S
C537 C521 1.429 . S
C537 C533 1.429 . S
C537 C538 1.523 . S
C538 C522 1.368 . S
C538 C534 1.368 1_545 S
C538 C537 1.523 . S
H539 C514 0.950 . S
H540 C516 0.950 . S
H541 C517 0.949 . S
H542 C519 0.950 . S
H543 C521 0.950 . S
C544 C545 1.349 . S
C544 C546 1.327 . S
C544 H569 0.950 . S
C545 C544 1.349 . S
C545 C561 1.349 . S
C546 C544 1.327 . S
C546 C565 1.429 . S
C546 H570 0.950 . S
C547 C564 1.574 1_455 S
C547 C566 1.368 . S
C547 H571 0.949 . S
H548 C552 0.949 . S
C549 C550 1.349 . S
C549 C551 1.327 . S
C549 H572 0.950 . S
C550 C549 1.349 . S
C550 C562 1.349 . S
C551 C549 1.327 . S
C551 C567 1.429 . S
C551 H573 0.950 . S
C552 H548 0.949 . S
C552 C560 1.574 1_655 S
C552 C568 1.368 . S
H553 C561 0.950 . S
H554 C559 0.950 . S
H555 C560 0.949 . S
H556 C562 0.950 . S
H557 C563 0.950 . S
H558 C564 0.949 . S
C559 H554 0.950 . S
C559 C561 1.327 . S
C559 C565 1.429 . S
C560 C552 1.574 1_455 S
C560 H555 0.949 . S
C560 C566 1.368 . S
C561 C545 1.349 . S
C561 H553 0.950 . S
C561 C559 1.327 . S
C562 C550 1.349 . S
C562 H556 0.950 . S
C562 C563 1.327 . S
C563 H557 0.950 . S
C563 C562 1.327 . S
C563 C567 1.429 . S
C564 C547 1.574 1_655 S
C564 H558 0.949 . S
C564 C568 1.368 . S
C565 C546 1.429 . S
C565 C559 1.429 . S
C565 C566 1.523 . S
C566 C547 1.368 . S
C566 C560 1.368 . S
C566 C565 1.523 . S
C567 C551 1.429 . S
C567 C563 1.429 . S
C567 C568 1.523 . S
C568 C552 1.368 . S
C568 C564 1.368 . S
C568 C567 1.523 . S
H569 C544 0.950 . S
H570 C546 0.950 . S
H571 C547 0.949 . S
H572 C549 0.950 . S
H573 C551 0.950 . S
C574 C575 1.349 . S
C574 C576 1.327 . S
C574 H599 0.950 . S
C575 C574 1.349 . S
C575 C591 1.349 . S
C576 C574 1.327 . S
C576 C595 1.429 . S
C576 H600 0.950 . S
C577 C594 1.574 1_455 S
C577 C596 1.368 . S
C577 H601 0.949 . S
H578 C582 0.949 . S
C579 C580 1.349 . S
C579 C581 1.327 . S
C579 H602 0.950 . S
C580 C579 1.349 . S
C580 C592 1.349 . S
C581 C579 1.327 . S
C581 C597 1.429 . S
C581 H603 0.950 . S
C582 H578 0.949 . S
C582 C590 1.574 1_655 S
C582 C598 1.368 . S
H583 C591 0.950 . S
H584 C589 0.950 . S
H585 C590 0.949 . S
H586 C592 0.950 . S
H587 C593 0.950 . S
H588 C594 0.949 . S
C589 H584 0.950 . S
C589 C591 1.327 . S
C589 C595 1.429 . S
C590 C582 1.574 1_455 S
C590 H585 0.949 . S
C590 C596 1.368 . S
C591 C575 1.349 . S
C591 H583 0.950 . S
C591 C589 1.327 . S
C592 C580 1.349 . S
C592 H586 0.950 . S
C592 C593 1.327 . S
C593 H587 0.950 . S
C593 C592 1.327 . S
C593 C597 1.429 . S
C594 C577 1.574 1_655 S
C594 H588 0.949 . S
C594 C598 1.368 . S
C595 C576 1.429 . S
C595 C589 1.429 . S
C595 C596 1.523 . S
C596 C577 1.368 . S
C596 C590 1.368 . S
C596 C595 1.523 . S
C597 C581 1.429 . S
C597 C593 1.429 . S
C597 C598 1.523 . S
C598 C582 1.368 . S
C598 C594 1.368 . S
C598 C597 1.523 . S
H599 C574 0.950 . S
H600 C576 0.950 . S
H601 C577 0.949 . S
H602 C579 0.950 . S
H603 C581 0.950 . S
C604 C605 1.349 . S
C604 C606 1.327 . S
C604 H629 0.950 . S
C605 C604 1.349 . S
C605 C621 1.349 . S
C606 C604 1.327 . S
C606 C625 1.429 . S
C606 H630 0.950 . S
C607 C624 1.574 . S
C607 C626 1.368 . S
C607 H631 0.949 . S
H608 C612 0.949 . S
C609 C610 1.349 . S
C609 C611 1.327 . S
C609 H632 0.950 . S
C610 C609 1.349 . S
C610 C622 1.349 . S
C611 C609 1.327 . S
C611 C627 1.429 . S
C611 H633 0.950 . S
C612 H608 0.949 . S
C612 C620 1.574 . S
C612 C628 1.368 . S
H613 C621 0.950 . S
H614 C619 0.950 . S
H615 C620 0.949 . S
H616 C622 0.950 . S
H617 C623 0.950 . S
H618 C624 0.949 . S
C619 H614 0.950 . S
C619 C621 1.327 . S
C619 C625 1.429 . S
C620 C612 1.574 . S
C620 H615 0.949 . S
C620 C626 1.368 . S
C621 C605 1.349 . S
C621 H613 0.950 . S
C621 C619 1.327 . S
C622 C610 1.349 . S
C622 H616 0.950 . S
C622 C623 1.327 . S
C623 H617 0.950 . S
C623 C622 1.327 . S
C623 C627 1.429 . S
C624 C607 1.574 . S
C624 H618 0.949 . S
C624 C628 1.368 . S
C625 C606 1.429 . S
C625 C619 1.429 . S
C625 C626 1.523 . S
C626 C607 1.368 . S
C626 C620 1.368 . S
C626 C625 1.523 . S
C627 C611 1.429 . S
C627 C623 1.429 . S
C627 C628 1.523 . S
C628 C612 1.368 . S
C628 C624 1.368 . S
C628 C627 1.523 . S
H629 C604 0.950 . S
H630 C606 0.950 . S
H631 C607 0.949 . S
H632 C609 0.950 . S
H633 C611 0.950 . S
C634 C635 1.349 . S
C634 C636 1.327 . S
C634 H659 0.950 . S
C635 C634 1.349 . S
C635 C651 1.349 . S
C636 C634 1.327 . S
C636 C655 1.429 . S
C636 H660 0.950 . S
C637 C654 1.574 . S
C637 C656 1.368 . S
C637 H661 0.949 . S
H638 C642 0.949 . S
C639 C640 1.349 . S
C639 C641 1.327 . S
C639 H662 0.950 . S
C640 C639 1.349 . S
C640 C652 1.349 . S
C641 C639 1.327 . S
C641 C657 1.429 . S
C641 H663 0.950 . S
C642 H638 0.949 . S
C642 C650 1.574 . S
C642 C658 1.368 . S
H643 C651 0.950 . S
H644 C649 0.950 . S
H645 C650 0.949 . S
H646 C652 0.950 . S
H647 C653 0.950 . S
H648 C654 0.949 . S
C649 H644 0.950 . S
C649 C651 1.327 . S
C649 C655 1.429 . S
C650 C642 1.574 . S
C650 H645 0.949 . S
C650 C656 1.368 . S
C651 C635 1.349 . S
C651 H643 0.950 . S
C651 C649 1.327 . S
C652 C640 1.349 . S
C652 H646 0.950 . S
C652 C653 1.327 . S
C653 H647 0.950 . S
C653 C652 1.327 . S
C653 C657 1.429 . S
C654 C637 1.574 . S
C654 H648 0.949 . S
C654 C658 1.368 . S
C655 C636 1.429 . S
C655 C649 1.429 . S
C655 C656 1.523 . S
C656 C637 1.368 . S
C656 C650 1.368 . S
C656 C655 1.523 . S
C657 C641 1.429 . S
C657 C653 1.429 . S
C657 C658 1.523 . S
C658 C642 1.368 . S
C658 C654 1.368 . S
C658 C657 1.523 . S
H659 C634 0.950 . S
H660 C636 0.950 . S
H661 C637 0.949 . S
H662 C639 0.950 . S
H663 C641 0.950 . S
C664 C665 1.349 1_556 S
C664 C666 1.327 . S
C664 H689 0.950 1_556 S
C665 C664 1.349 1_554 S
C665 C681 1.349 1_554 S
C666 C664 1.327 . S
C666 C685 1.429 . S
C666 H690 0.950 . S
C667 C684 1.574 . S
C667 C686 1.368 . S
C667 H691 0.949 . S
H668 C672 0.949 . S
C669 C670 1.349 . S
C669 C671 1.327 . S
C669 H692 0.950 . S
C670 C669 1.349 . S
C670 C682 1.349 . S
C671 C669 1.327 . S
C671 C687 1.429 . S
C671 H693 0.950 . S
C672 H668 0.949 . S
C672 C680 1.574 . S
C672 C688 1.368 . S
H673 C681 0.950 . S
H674 C679 0.950 . S
H675 C680 0.949 . S
H676 C682 0.950 . S
H677 C683 0.950 . S
H678 C684 0.949 . S
C679 H674 0.950 . S
C679 C681 1.327 . S
C679 C685 1.429 . S
C680 C672 1.574 . S
C680 H675 0.949 . S
C680 C686 1.368 . S
C681 C665 1.349 1_556 S
C681 H673 0.950 . S
C681 C679 1.327 . S
C682 C670 1.349 . S
C682 H676 0.950 . S
C682 C683 1.327 . S
C683 H677 0.950 . S
C683 C682 1.327 . S
C683 C687 1.429 . S
C684 C667 1.574 . S
C684 H678 0.949 . S
C684 C688 1.368 . S
C685 C666 1.429 . S
C685 C679 1.429 . S
C685 C686 1.523 . S
C686 C667 1.368 . S
C686 C680 1.368 . S
C686 C685 1.523 . S
C687 C671 1.429 . S
C687 C683 1.429 . S
C687 C688 1.523 . S
C688 C672 1.368 . S
C688 C684 1.368 . S
C688 C687 1.523 . S
H689 C664 0.950 1_554 S
H690 C666 0.950 . S
H691 C667 0.949 . S
H692 C669 0.950 . S
H693 C671 0.950 . S
C694 C695 1.349 . S
C694 C696 1.327 . S
C694 H719 0.950 . S
C695 C694 1.349 . S
C695 C711 1.349 . S
C696 C694 1.327 . S
C696 C715 1.429 . S
C696 H720 0.950 . S
C697 C714 1.574 . S
C697 C716 1.368 . S
C697 H721 0.949 . S
H698 C702 0.949 . S
C699 C700 1.349 . S
C699 C701 1.327 . S
C699 H722 0.950 . S
C700 C699 1.349 . S
C700 C712 1.349 . S
C701 C699 1.327 . S
C701 C717 1.429 . S
C701 H723 0.950 . S
C702 H698 0.949 . S
C702 C710 1.574 . S
C702 C718 1.368 . S
H703 C711 0.950 . S
H704 C709 0.950 . S
H705 C710 0.949 . S
H706 C712 0.950 . S
H707 C713 0.950 . S
H708 C714 0.949 . S
C709 H704 0.950 . S
C709 C711 1.327 . S
C709 C715 1.429 . S
C710 C702 1.574 . S
C710 H705 0.949 . S
C710 C716 1.368 . S
C711 C695 1.349 . S
C711 H703 0.950 . S
C711 C709 1.327 . S
C712 C700 1.349 . S
C712 H706 0.950 . S
C712 C713 1.327 . S
C713 H707 0.950 . S
C713 C712 1.327 . S
C713 C717 1.429 . S
C714 C697 1.574 . S
C714 H708 0.949 . S
C714 C718 1.368 . S
C715 C696 1.429 . S
C715 C709 1.429 . S
C715 C716 1.523 . S
C716 C697 1.368 . S
C716 C710 1.368 . S
C716 C715 1.523 . S
C717 C701 1.429 . S
C717 C713 1.429 . S
C717 C718 1.523 . S
C718 C702 1.368 . S
C718 C714 1.368 . S
C718 C717 1.523 . S
H719 C694 0.950 . S
H720 C696 0.950 . S
H721 C697 0.949 . S
H722 C699 0.950 . S
H723 C701 0.950 . S
C724 C725 1.349 . S
C724 C726 1.327 . S
C724 H749 0.950 . S
C725 C724 1.349 . S
C725 C741 1.349 . S
C726 C724 1.327 . S
C726 C745 1.429 . S
C726 H750 0.950 . S
C727 C744 1.574 . S
C727 C746 1.368 . S
C727 H751 0.949 . S
H728 C732 0.949 . S
C729 C730 1.349 . S
C729 C731 1.327 1_556 S
C729 H752 0.950 . S
C730 C729 1.349 . S
C730 C742 1.349 1_556 S
C731 C729 1.327 1_554 S
C731 C747 1.429 . S
C731 H753 0.950 . S
C732 H728 0.949 . S
C732 C740 1.574 . S
C732 C748 1.368 . S
H733 C741 0.950 . S
H734 C739 0.950 . S
H735 C740 0.949 . S
H736 C742 0.950 . S
H737 C743 0.950 . S
H738 C744 0.949 . S
C739 H734 0.950 . S
C739 C741 1.327 . S
C739 C745 1.429 . S
C740 C732 1.574 . S
C740 H735 0.949 . S
C740 C746 1.368 . S
C741 C725 1.349 . S
C741 H733 0.950 . S
C741 C739 1.327 . S
C742 C730 1.349 1_554 S
C742 H736 0.950 . S
C742 C743 1.327 . S
C743 H737 0.950 . S
C743 C742 1.327 . S
C743 C747 1.429 . S
C744 C727 1.574 . S
C744 H738 0.949 . S
C744 C748 1.368 . S
C745 C726 1.429 . S
C745 C739 1.429 . S
C745 C746 1.523 . S
C746 C727 1.368 . S
C746 C740 1.368 . S
C746 C745 1.523 . S
C747 C731 1.429 . S
C747 C743 1.429 . S
C747 C748 1.523 . S
C748 C732 1.368 . S
C748 C744 1.368 . S
C748 C747 1.523 . S
H749 C724 0.950 . S
H750 C726 0.950 . S
H751 C727 0.949 . S
H752 C729 0.950 . S
H753 C731 0.950 . S
C754 C755 1.349 . S
C754 C756 1.327 . S
C754 H779 0.950 . S
C755 C754 1.349 . S
C755 C771 1.349 . S
C756 C754 1.327 . S
C756 C775 1.429 . S
C756 H780 0.950 . S
C757 C774 1.574 . S
C757 C776 1.368 . S
C757 H781 0.949 . S
H758 C762 0.949 . S
C759 C760 1.349 . S
C759 C761 1.327 . S
C759 H782 0.950 . S
C760 C759 1.349 . S
C760 C772 1.349 . S
C761 C759 1.327 . S
C761 C777 1.429 . S
C761 H783 0.950 . S
C762 H758 0.949 . S
C762 C770 1.574 . S
C762 C778 1.368 . S
H763 C771 0.950 . S
H764 C769 0.950 . S
H765 C770 0.949 . S
H766 C772 0.950 . S
H767 C773 0.950 . S
H768 C774 0.949 . S
C769 H764 0.950 . S
C769 C771 1.327 . S
C769 C775 1.429 . S
C770 C762 1.574 . S
C770 H765 0.949 . S
C770 C776 1.368 . S
C771 C755 1.349 . S
C771 H763 0.950 . S
C771 C769 1.327 . S
C772 C760 1.349 . S
C772 H766 0.950 . S
C772 C773 1.327 . S
C773 H767 0.950 . S
C773 C772 1.327 . S
C773 C777 1.429 . S
C774 C757 1.574 . S
C774 H768 0.949 . S
C774 C778 1.368 . S
C775 C756 1.429 . S
C775 C769 1.429 . S
C775 C776 1.523 . S
C776 C757 1.368 . S
C776 C770 1.368 . S
C776 C775 1.523 . S
C777 C761 1.429 . S
C777 C773 1.429 . S
C777 C778 1.523 . S
C778 C762 1.368 . S
C778 C774 1.368 . S
C778 C777 1.523 . S
H779 C754 0.950 . S
H780 C756 0.950 . S
H781 C757 0.949 . S
H782 C759 0.950 . S
H783 C761 0.950 . S
C784 C785 1.349 . S
C784 C786 1.327 1_554 S
C784 H809 0.950 . S
C785 C784 1.349 . S
C785 C801 1.349 1_554 S
C786 C784 1.327 1_556 S
C786 C805 1.429 . S
C786 H810 0.950 . S
C787 C804 1.574 . S
C787 C806 1.368 . S
C787 H811 0.949 . S
H788 C792 0.949 . S
C789 C790 1.349 . S
C789 C791 1.327 . S
C789 H812 0.950 . S
C790 C789 1.349 . S
C790 C802 1.349 . S
C791 C789 1.327 . S
C791 C807 1.429 . S
C791 H813 0.950 1_545 S
C792 H788 0.949 . S
C792 C800 1.574 . S
C792 C808 1.368 . S
H793 C801 0.950 . S
H794 C799 0.950 . S
H795 C800 0.949 . S
H796 C802 0.950 . S
H797 C803 0.950 . S
H798 C804 0.949 . S
C799 H794 0.950 . S
C799 C801 1.327 . S
C799 C805 1.429 . S
C800 C792 1.574 . S
C800 H795 0.949 . S
C800 C806 1.368 1_545 S
C801 C785 1.349 1_556 S
C801 H793 0.950 . S
C801 C799 1.327 . S
C802 C790 1.349 . S
C802 H796 0.950 . S
C802 C803 1.327 . S
C803 H797 0.950 . S
C803 C802 1.327 . S
C803 C807 1.429 . S
C804 C787 1.574 . S
C804 H798 0.949 . S
C804 C808 1.368 1_565 S
C805 C786 1.429 . S
C805 C799 1.429 . S
C805 C806 1.523 . S
C806 C787 1.368 . S
C806 C800 1.368 1_565 S
C806 C805 1.523 . S
C807 C791 1.429 . S
C807 C803 1.429 . S
C807 C808 1.523 . S
C808 C792 1.368 . S
C808 C804 1.368 1_545 S
C808 C807 1.523 . S
H809 C784 0.950 . S
H810 C786 0.950 . S
H811 C787 0.949 . S
H812 C789 0.950 . S
H813 C791 0.950 1_565 S
C814 C815 1.349 . S
C814 C816 1.327 . S
C814 H839 0.950 . S
C815 C814 1.349 . S
C815 C831 1.349 . S
C816 C814 1.327 . S
C816 C835 1.429 . S
C816 H840 0.950 1_545 S
C817 C834 1.574 . S
C817 C836 1.368 . S
C817 H841 0.949 . S
H818 C822 0.949 . S
C819 C820 1.349 . S
C819 C821 1.327 . S
C819 H842 0.950 . S
C820 C819 1.349 . S
C820 C832 1.349 . S
C821 C819 1.327 . S
C821 C837 1.429 . S
C821 H843 0.950 . S
C822 H818 0.949 . S
C822 C830 1.574 . S
C822 C838 1.368 . S
H823 C831 0.950 . S
H824 C829 0.950 . S
H825 C830 0.949 . S
H826 C832 0.950 . S
H827 C833 0.950 . S
H828 C834 0.949 . S
C829 H824 0.950 . S
C829 C831 1.327 . S
C829 C835 1.429 . S
C830 C822 1.574 . S
C830 H825 0.949 . S
C830 C836 1.368 1_565 S
C831 C815 1.349 . S
C831 H823 0.950 . S
C831 C829 1.327 . S
C832 C820 1.349 . S
C832 H826 0.950 . S
C832 C833 1.327 . S
C833 H827 0.950 . S
C833 C832 1.327 . S
C833 C837 1.429 . S
C834 C817 1.574 . S
C834 H828 0.949 . S
C834 C838 1.368 1_545 S
C835 C816 1.429 . S
C835 C829 1.429 . S
C835 C836 1.523 . S
C836 C817 1.368 . S
C836 C830 1.368 1_545 S
C836 C835 1.523 . S
C837 C821 1.429 . S
C837 C833 1.429 . S
C837 C838 1.523 . S
C838 C822 1.368 . S
C838 C834 1.368 1_565 S
C838 C837 1.523 . S
H839 C814 0.950 . S
H840 C816 0.950 1_565 S
H841 C817 0.949 . S
H842 C819 0.950 . S
H843 C821 0.950 . S
C844 C845 1.349 . S
C844 C846 1.327 . S
C844 H869 0.950 . S
C845 C844 1.349 . S
C845 C861 1.349 . S
C846 C844 1.327 . S
C846 C865 1.429 . S
C846 H870 0.950 1_565 S
C847 C864 1.558 1_565 S
C847 C866 1.368 . S
C847 H871 0.949 . S
H848 C852 0.949 . S
C849 C850 1.349 . S
C849 C851 1.327 1_556 S
C849 H872 0.950 . S
C850 C849 1.349 . S
C850 C862 1.349 1_556 S
C851 C849 1.327 1_554 S
C851 C867 1.429 . S
C851 H873 0.950 . S
C852 H848 0.949 . S
C852 C860 1.574 . S
C852 C868 1.368 . S
H853 C861 0.950 . S
H854 C859 0.950 . S
H855 C860 0.949 . S
H856 C862 0.950 . S
H857 C863 0.950 . S
H858 C864 0.940 1_565 S
C859 H854 0.950 . S
C859 C861 1.327 . S
C859 C865 1.429 . S
C860 C852 1.574 . S
C860 H855 0.949 . S
C860 C866 1.368 1_545 S
C861 C845 1.349 . S
C861 H853 0.950 . S
C861 C859 1.327 . S
C862 C850 1.349 1_554 S
C862 H856 0.950 . S
C862 C863 1.327 . S
C863 H857 0.950 . S
C863 C862 1.327 . S
C863 C867 1.429 . S
C864 C847 1.558 1_545 S
C864 H858 0.940 1_545 S
C864 C868 1.396 . S
C865 C846 1.429 . S
C865 C859 1.429 . S
C865 C866 1.523 . S
C866 C847 1.368 . S
C866 C860 1.368 1_565 S
C866 C865 1.523 . S
C867 C851 1.429 . S
C867 C863 1.429 . S
C867 C868 1.523 . S
C868 C852 1.368 . S
C868 C864 1.396 . S
C868 C867 1.523 . S
H869 C844 0.950 . S
H870 C846 0.950 1_545 S
H871 C847 0.949 . S
H872 C849 0.950 . S
H873 C851 0.950 . S
C874 C875 1.349 . S
C874 C876 1.327 . S
C874 H899 0.950 . S
C875 C874 1.349 . S
C875 C891 1.349 . S
C876 C874 1.327 . S
C876 C895 1.429 . S
C876 H900 0.950 . S
C877 C894 1.574 . S
C877 C896 1.368 . S
C877 H901 0.949 . S
H878 C882 0.949 1_565 S
C879 C880 1.349 . S
C879 C881 1.327 . S
C879 H902 0.950 . S
C880 C879 1.349 . S
C880 C892 1.349 . S
C881 C879 1.327 . S
C881 C897 1.429 . S
C881 H903 0.950 . S
C882 H878 0.949 1_545 S
C882 C890 1.574 . S
C882 C898 1.368 1_545 S
H883 C891 0.950 . S
H884 C889 0.950 . S
H885 C890 0.949 . S
H886 C892 0.950 . S
H887 C893 0.950 . S
H888 C894 0.949 1_565 S
C889 H884 0.950 . S
C889 C891 1.327 . S
C889 C895 1.429 . S
C890 C882 1.574 . S
C890 H885 0.949 . S
C890 C896 1.368 . S
C891 C875 1.349 . S
C891 H883 0.950 . S
C891 C889 1.327 . S
C892 C880 1.349 . S
C892 H886 0.950 . S
C892 C893 1.327 . S
C893 H887 0.950 . S
C893 C892 1.327 . S
C893 C897 1.429 . S
C894 C877 1.574 . S
C894 H888 0.949 1_545 S
C894 C898 1.368 1_545 S
C895 C876 1.429 . S
C895 C889 1.429 . S
C895 C896 1.523 . S
C896 C877 1.368 . S
C896 C890 1.368 . S
C896 C895 1.523 . S
C897 C881 1.429 . S
C897 C893 1.429 . S
C897 C898 1.523 . S
C898 C882 1.368 1_565 S
C898 C894 1.368 1_565 S
C898 C897 1.523 . S
H899 C874 0.950 . S
H900 C876 0.950 . S
H901 C877 0.949 . S
H902 C879 0.950 . S
H903 C881 0.950 . S
C185 C40 1.357 . S
C190 C17 1.357 . S
C215 C63 1.357 . S
C220 C86 1.357 . S
C245 C132 1.357 . S
C250 C109 1.357 . S
C275 C155 1.357 . S
C280 C178 1.357 . S
C305 C20 1.320 . S
C310 C158 1.320 . S
C335 C43 1.320 . S
C340 C181 1.320 . S
C365 C112 1.320 . S
C370 C66 1.320 . S
C395 C89 1.320 . S
C400 C135 1.320 . S
C425 C62 1.019 . S
C430 C16 1.019 . S
C455 C85 1.019 . S
C460 C39 1.019 . S
C485 C108 1.019 . S
C490 C154 1.019 . S
C515 C131 1.019 . S
C520 C177 1.019 . S
C545 C18 1.128 . S
C550 C41 1.128 . S
C575 C87 1.128 . S
C580 C64 1.128 . S
C605 C133 1.128 . S
C610 C110 1.128 . S
C635 C179 1.128 . S
C640 C156 1.128 . S
C665 C21 1.452 . S
C670 C88 1.383 . S
C695 C44 1.452 . S
C700 C65 1.383 . S
C725 C42 1.383 . S
C730 C67 1.452 . S
C755 C19 1.383 . S
C760 C90 1.452 . S
C785 C113 1.452 . S
C790 C180 1.383 . S
C815 C157 1.383 . S
C820 C136 1.452 . S
C845 C134 1.383 . S
C850 C159 1.452 . S
C875 C182 1.452 . S
C880 C111 1.383 . S
