# Generated by pormake.
# Topology bcu-l, (5)-cn, num edge types: 1
# Building blocks:
#     Node 0, Type 0, BuildingBlock: BEQFEK_clean_sbu_0, # of connection points: 5
#     Node 1, Type 0, BuildingBlock: BEQFEK_clean_sbu_0, # of connection points: 5
#     Node 2, Type 0, BuildingBlock: BEQFEK_clean_sbu_0, # of connection points: 5
#     Node 3, Type 0, BuildingBlock: BEQFEK_clean_sbu_0, # of connection points: 5
#     Node 4, Type 0, BuildingBlock: BEQFEK_clean_sbu_0, # of connection points: 5
#     Node 5, Type 0, BuildingBlock: BEQFEK_clean_sbu_0, # of connection points: 5
#     Node 6, Type 0, BuildingBlock: BEQFEK_clean_sbu_0, # of connection points: 5
#     Node 7, Type 0, BuildingBlock: BEQFEK_clean_sbu_0, # of connection points: 5
#     Node 8, Type 0, BuildingBlock: BEQFEK_clean_sbu_0, # of connection points: 5
#     Node 9, Type 0, BuildingBlock: BEQFEK_clean_sbu_0, # of connection points: 5
#     Node 10, Type 0, BuildingBlock: BEQFEK_clean_sbu_0, # of connection points: 5
#     Node 11, Type 0, BuildingBlock: BEQFEK_clean_sbu_0, # of connection points: 5
#     Node 12, Type 0, BuildingBlock: BEQFEK_clean_sbu_0, # of connection points: 5
#     Node 13, Type 0, BuildingBlock: BEQFEK_clean_sbu_0, # of connection points: 5
#     Node 14, Type 0, BuildingBlock: BEQFEK_clean_sbu_0, # of connection points: 5
#     Node 15, Type 0, BuildingBlock: BEQFEK_clean_sbu_0, # of connection points: 5
#     Node 16, Type 0, BuildingBlock: BEQFEK_clean_sbu_0, # of connection points: 5
#     Node 17, Type 0, BuildingBlock: BEQFEK_clean_sbu_0, # of connection points: 5
#     Node 18, Type 0, BuildingBlock: BEQFEK_clean_sbu_0, # of connection points: 5
#     Node 19, Type 0, BuildingBlock: BEQFEK_clean_sbu_0, # of connection points: 5
#     Node 20, Type 0, BuildingBlock: BEQFEK_clean_sbu_0, # of connection points: 5
#     Node 21, Type 0, BuildingBlock: BEQFEK_clean_sbu_0, # of connection points: 5
#     Node 22, Type 0, BuildingBlock: BEQFEK_clean_sbu_0, # of connection points: 5
#     Node 23, Type 0, BuildingBlock: BEQFEK_clean_sbu_0, # of connection points: 5
#     Node 24, Type 0, BuildingBlock: BEQFEK_clean_sbu_0, # of connection points: 5
#     Node 25, Type 0, BuildingBlock: BEQFEK_clean_sbu_0, # of connection points: 5
#     Node 26, Type 0, BuildingBlock: BEQFEK_clean_sbu_0, # of connection points: 5
#     Node 27, Type 0, BuildingBlock: BEQFEK_clean_sbu_0, # of connection points: 5
#     Node 28, Type 0, BuildingBlock: BEQFEK_clean_sbu_0, # of connection points: 5
#     Node 29, Type 0, BuildingBlock: BEQFEK_clean_sbu_0, # of connection points: 5
#     Node 30, Type 0, BuildingBlock: BEQFEK_clean_sbu_0, # of connection points: 5
#     Node 31, Type 0, BuildingBlock: BEQFEK_clean_sbu_0, # of connection points: 5
#     Node 32, Type 0, BuildingBlock: BEQFEK_clean_sbu_0, # of connection points: 5
#     Node 33, Type 0, BuildingBlock: BEQFEK_clean_sbu_0, # of connection points: 5
#     Node 34, Type 0, BuildingBlock: BEQFEK_clean_sbu_0, # of connection points: 5
#     Node 35, Type 0, BuildingBlock: BEQFEK_clean_sbu_0, # of connection points: 5
#     Node 36, Type 0, BuildingBlock: BEQFEK_clean_sbu_0, # of connection points: 5
#     Node 37, Type 0, BuildingBlock: BEQFEK_clean_sbu_0, # of connection points: 5
#     Node 38, Type 0, BuildingBlock: BEQFEK_clean_sbu_0, # of connection points: 5
#     Node 39, Type 0, BuildingBlock: BEQFEK_clean_sbu_0, # of connection points: 5
#     Node 40, Type 0, BuildingBlock: BEQFEK_clean_sbu_0, # of connection points: 5
#     Node 41, Type 0, BuildingBlock: BEQFEK_clean_sbu_0, # of connection points: 5
#     Node 42, Type 0, BuildingBlock: BEQFEK_clean_sbu_0, # of connection points: 5
#     Node 43, Type 0, BuildingBlock: BEQFEK_clean_sbu_0, # of connection points: 5
#     Node 44, Type 0, BuildingBlock: BEQFEK_clean_sbu_0, # of connection points: 5
#     Node 45, Type 0, BuildingBlock: BEQFEK_clean_sbu_0, # of connection points: 5
#     Node 46, Type 0, BuildingBlock: BEQFEK_clean_sbu_0, # of connection points: 5
#     Node 47, Type 0, BuildingBlock: BEQFEK_clean_sbu_0, # of connection points: 5
#     Edge 48, Type (0, 0), BuildingBlock: XIVTED_clean_linker_0, # of connection points: 2
#     Edge 49, Type (0, 0), BuildingBlock: XIVTED_clean_linker_0, # of connection points: 2
#     Edge 50, Type (0, 0), BuildingBlock: XIVTED_clean_linker_0, # of connection points: 2
#     Edge 51, Type (0, 0), BuildingBlock: XIVTED_clean_linker_0, # of connection points: 2
#     Edge 52, Type (0, 0), BuildingBlock: XIVTED_clean_linker_0, # of connection points: 2
#     Edge 53, Type (0, 0), BuildingBlock: XIVTED_clean_linker_0, # of connection points: 2
#     Edge 54, Type (0, 0), BuildingBlock: XIVTED_clean_linker_0, # of connection points: 2
#     Edge 55, Type (0, 0), BuildingBlock: XIVTED_clean_linker_0, # of connection points: 2
#     Edge 56, Type (0, 0), BuildingBlock: XIVTED_clean_linker_0, # of connection points: 2
#     Edge 57, Type (0, 0), BuildingBlock: XIVTED_clean_linker_0, # of connection points: 2
#     Edge 58, Type (0, 0), BuildingBlock: XIVTED_clean_linker_0, # of connection points: 2
#     Edge 59, Type (0, 0), BuildingBlock: XIVTED_clean_linker_0, # of connection points: 2
#     Edge 60, Type (0, 0), BuildingBlock: XIVTED_clean_linker_0, # of connection points: 2
#     Edge 61, Type (0, 0), BuildingBlock: XIVTED_clean_linker_0, # of connection points: 2
#     Edge 62, Type (0, 0), BuildingBlock: XIVTED_clean_linker_0, # of connection points: 2
#     Edge 63, Type (0, 0), BuildingBlock: XIVTED_clean_linker_0, # of connection points: 2
#     Edge 64, Type (0, 0), BuildingBlock: XIVTED_clean_linker_0, # of connection points: 2
#     Edge 65, Type (0, 0), BuildingBlock: XIVTED_clean_linker_0, # of connection points: 2
#     Edge 66, Type (0, 0), BuildingBlock: XIVTED_clean_linker_0, # of connection points: 2
#     Edge 67, Type (0, 0), BuildingBlock: XIVTED_clean_linker_0, # of connection points: 2
#     Edge 68, Type (0, 0), BuildingBlock: XIVTED_clean_linker_0, # of connection points: 2
#     Edge 69, Type (0, 0), BuildingBlock: XIVTED_clean_linker_0, # of connection points: 2
#     Edge 70, Type (0, 0), BuildingBlock: XIVTED_clean_linker_0, # of connection points: 2
#     Edge 71, Type (0, 0), BuildingBlock: XIVTED_clean_linker_0, # of connection points: 2
#     Edge 72, Type (0, 0), BuildingBlock: XIVTED_clean_linker_0, # of connection points: 2
#     Edge 73, Type (0, 0), BuildingBlock: XIVTED_clean_linker_0, # of connection points: 2
#     Edge 74, Type (0, 0), BuildingBlock: XIVTED_clean_linker_0, # of connection points: 2
#     Edge 75, Type (0, 0), BuildingBlock: XIVTED_clean_linker_0, # of connection points: 2
#     Edge 76, Type (0, 0), BuildingBlock: XIVTED_clean_linker_0, # of connection points: 2
#     Edge 77, Type (0, 0), BuildingBlock: XIVTED_clean_linker_0, # of connection points: 2
#     Edge 78, Type (0, 0), BuildingBlock: XIVTED_clean_linker_0, # of connection points: 2
#     Edge 79, Type (0, 0), BuildingBlock: XIVTED_clean_linker_0, # of connection points: 2
#     Edge 80, Type (0, 0), BuildingBlock: XIVTED_clean_linker_0, # of connection points: 2
#     Edge 81, Type (0, 0), BuildingBlock: XIVTED_clean_linker_0, # of connection points: 2
#     Edge 82, Type (0, 0), BuildingBlock: XIVTED_clean_linker_0, # of connection points: 2
#     Edge 83, Type (0, 0), BuildingBlock: XIVTED_clean_linker_0, # of connection points: 2
#     Edge 84, Type (0, 0), BuildingBlock: XIVTED_clean_linker_0, # of connection points: 2
#     Edge 85, Type (0, 0), BuildingBlock: XIVTED_clean_linker_0, # of connection points: 2
#     Edge 86, Type (0, 0), BuildingBlock: XIVTED_clean_linker_0, # of connection points: 2
#     Edge 87, Type (0, 0), BuildingBlock: XIVTED_clean_linker_0, # of connection points: 2
#     Edge 88, Type (0, 0), BuildingBlock: XIVTED_clean_linker_0, # of connection points: 2
#     Edge 89, Type (0, 0), BuildingBlock: XIVTED_clean_linker_0, # of connection points: 2
#     Edge 90, Type (0, 0), BuildingBlock: XIVTED_clean_linker_0, # of connection points: 2
#     Edge 91, Type (0, 0), BuildingBlock: XIVTED_clean_linker_0, # of connection points: 2
#     Edge 92, Type (0, 0), BuildingBlock: XIVTED_clean_linker_0, # of connection points: 2
#     Edge 93, Type (0, 0), BuildingBlock: XIVTED_clean_linker_0, # of connection points: 2
#     Edge 94, Type (0, 0), BuildingBlock: XIVTED_clean_linker_0, # of connection points: 2
#     Edge 95, Type (0, 0), BuildingBlock: XIVTED_clean_linker_0, # of connection points: 2
#     Edge 96, Type (0, 0), BuildingBlock: XIVTED_clean_linker_0, # of connection points: 2
#     Edge 97, Type (0, 0), BuildingBlock: XIVTED_clean_linker_0, # of connection points: 2
#     Edge 98, Type (0, 0), BuildingBlock: XIVTED_clean_linker_0, # of connection points: 2
#     Edge 99, Type (0, 0), BuildingBlock: XIVTED_clean_linker_0, # of connection points: 2
#     Edge 100, Type (0, 0), BuildingBlock: XIVTED_clean_linker_0, # of connection points: 2
#     Edge 101, Type (0, 0), BuildingBlock: XIVTED_clean_linker_0, # of connection points: 2
#     Edge 102, Type (0, 0), BuildingBlock: XIVTED_clean_linker_0, # of connection points: 2
#     Edge 103, Type (0, 0), BuildingBlock: XIVTED_clean_linker_0, # of connection points: 2
#     Edge 104, Type (0, 0), BuildingBlock: XIVTED_clean_linker_0, # of connection points: 2
#     Edge 105, Type (0, 0), BuildingBlock: XIVTED_clean_linker_0, # of connection points: 2
#     Edge 106, Type (0, 0), BuildingBlock: XIVTED_clean_linker_0, # of connection points: 2
#     Edge 107, Type (0, 0), BuildingBlock: XIVTED_clean_linker_0, # of connection points: 2
#     Edge 108, Type (0, 0), BuildingBlock: XIVTED_clean_linker_0, # of connection points: 2
#     Edge 109, Type (0, 0), BuildingBlock: XIVTED_clean_linker_0, # of connection points: 2
#     Edge 110, Type (0, 0), BuildingBlock: XIVTED_clean_linker_0, # of connection points: 2
#     Edge 111, Type (0, 0), BuildingBlock: XIVTED_clean_linker_0, # of connection points: 2
#     Edge 112, Type (0, 0), BuildingBlock: XIVTED_clean_linker_0, # of connection points: 2
#     Edge 113, Type (0, 0), BuildingBlock: XIVTED_clean_linker_0, # of connection points: 2
#     Edge 114, Type (0, 0), BuildingBlock: XIVTED_clean_linker_0, # of connection points: 2
#     Edge 115, Type (0, 0), BuildingBlock: XIVTED_clean_linker_0, # of connection points: 2
#     Edge 116, Type (0, 0), BuildingBlock: XIVTED_clean_linker_0, # of connection points: 2
#     Edge 117, Type (0, 0), BuildingBlock: XIVTED_clean_linker_0, # of connection points: 2
#     Edge 118, Type (0, 0), BuildingBlock: XIVTED_clean_linker_0, # of connection points: 2
#     Edge 119, Type (0, 0), BuildingBlock: XIVTED_clean_linker_0, # of connection points: 2
#     Edge 120, Type (0, 0), BuildingBlock: XIVTED_clean_linker_0, # of connection points: 2
#     Edge 121, Type (0, 0), BuildingBlock: XIVTED_clean_linker_0, # of connection points: 2
#     Edge 122, Type (0, 0), BuildingBlock: XIVTED_clean_linker_0, # of connection points: 2
#     Edge 123, Type (0, 0), BuildingBlock: XIVTED_clean_linker_0, # of connection points: 2
#     Edge 124, Type (0, 0), BuildingBlock: XIVTED_clean_linker_0, # of connection points: 2
#     Edge 125, Type (0, 0), BuildingBlock: XIVTED_clean_linker_0, # of connection points: 2
#     Edge 126, Type (0, 0), BuildingBlock: XIVTED_clean_linker_0, # of connection points: 2
#     Edge 127, Type (0, 0), BuildingBlock: XIVTED_clean_linker_0, # of connection points: 2
#     Edge 128, Type (0, 0), BuildingBlock: XIVTED_clean_linker_0, # of connection points: 2
#     Edge 129, Type (0, 0), BuildingBlock: XIVTED_clean_linker_0, # of connection points: 2
#     Edge 130, Type (0, 0), BuildingBlock: XIVTED_clean_linker_0, # of connection points: 2
#     Edge 131, Type (0, 0), BuildingBlock: XIVTED_clean_linker_0, # of connection points: 2
#     Edge 132, Type (0, 0), BuildingBlock: XIVTED_clean_linker_0, # of connection points: 2
#     Edge 133, Type (0, 0), BuildingBlock: XIVTED_clean_linker_0, # of connection points: 2
#     Edge 134, Type (0, 0), BuildingBlock: XIVTED_clean_linker_0, # of connection points: 2
#     Edge 135, Type (0, 0), BuildingBlock: XIVTED_clean_linker_0, # of connection points: 2
#     Edge 136, Type (0, 0), BuildingBlock: XIVTED_clean_linker_0, # of connection points: 2
#     Edge 137, Type (0, 0), BuildingBlock: XIVTED_clean_linker_0, # of connection points: 2
#     Edge 138, Type (0, 0), BuildingBlock: XIVTED_clean_linker_0, # of connection points: 2
#     Edge 139, Type (0, 0), BuildingBlock: XIVTED_clean_linker_0, # of connection points: 2
#     Edge 140, Type (0, 0), BuildingBlock: XIVTED_clean_linker_0, # of connection points: 2
#     Edge 141, Type (0, 0), BuildingBlock: XIVTED_clean_linker_0, # of connection points: 2
#     Edge 142, Type (0, 0), BuildingBlock: XIVTED_clean_linker_0, # of connection points: 2
#     Edge 143, Type (0, 0), BuildingBlock: XIVTED_clean_linker_0, # of connection points: 2
#     Edge 144, Type (0, 0), BuildingBlock: XIVTED_clean_linker_0, # of connection points: 2
#     Edge 145, Type (0, 0), BuildingBlock: XIVTED_clean_linker_0, # of connection points: 2
#     Edge 146, Type (0, 0), BuildingBlock: XIVTED_clean_linker_0, # of connection points: 2
#     Edge 147, Type (0, 0), BuildingBlock: XIVTED_clean_linker_0, # of connection points: 2
#     Edge 148, Type (0, 0), BuildingBlock: XIVTED_clean_linker_0, # of connection points: 2
#     Edge 149, Type (0, 0), BuildingBlock: XIVTED_clean_linker_0, # of connection points: 2
#     Edge 150, Type (0, 0), BuildingBlock: XIVTED_clean_linker_0, # of connection points: 2
#     Edge 151, Type (0, 0), BuildingBlock: XIVTED_clean_linker_0, # of connection points: 2
#     Edge 152, Type (0, 0), BuildingBlock: XIVTED_clean_linker_0, # of connection points: 2
#     Edge 153, Type (0, 0), BuildingBlock: XIVTED_clean_linker_0, # of connection points: 2
#     Edge 154, Type (0, 0), BuildingBlock: XIVTED_clean_linker_0, # of connection points: 2
#     Edge 155, Type (0, 0), BuildingBlock: XIVTED_clean_linker_0, # of connection points: 2
#     Edge 156, Type (0, 0), BuildingBlock: XIVTED_clean_linker_0, # of connection points: 2
#     Edge 157, Type (0, 0), BuildingBlock: XIVTED_clean_linker_0, # of connection points: 2
#     Edge 158, Type (0, 0), BuildingBlock: XIVTED_clean_linker_0, # of connection points: 2
#     Edge 159, Type (0, 0), BuildingBlock: XIVTED_clean_linker_0, # of connection points: 2
#     Edge 160, Type (0, 0), BuildingBlock: XIVTED_clean_linker_0, # of connection points: 2
#     Edge 161, Type (0, 0), BuildingBlock: XIVTED_clean_linker_0, # of connection points: 2
#     Edge 162, Type (0, 0), BuildingBlock: XIVTED_clean_linker_0, # of connection points: 2
#     Edge 163, Type (0, 0), BuildingBlock: XIVTED_clean_linker_0, # of connection points: 2
#     Edge 164, Type (0, 0), BuildingBlock: XIVTED_clean_linker_0, # of connection points: 2
#     Edge 165, Type (0, 0), BuildingBlock: XIVTED_clean_linker_0, # of connection points: 2
#     Edge 166, Type (0, 0), BuildingBlock: XIVTED_clean_linker_0, # of connection points: 2
#     Edge 167, Type (0, 0), BuildingBlock: XIVTED_clean_linker_0, # of connection points: 2
# Relax obj value: 0.106
# Max RMSD: 0.099
# Mean RMSD: 0.099
data_MOF--net-bcu-l--node1-BEQFEK_clean_sbu_0--edge1-XIVTED_clean_linker_0
_symmetry_space_group_name_H-M    P1
_symmetry_Int_Tables_number       1
_symmetry_cell_setting            triclinic
loop_
_symmetry_equiv_pos_as_xyz
'x, y, z'
_cell_length_a     68.434062
_cell_length_b     68.460362
_cell_length_c     68.462092
_cell_angle_alpha  90.001288
_cell_angle_beta   90.008028
_cell_angle_gamma 89.988316
loop_
_atom_site_label
_atom_site_type_symbol
_atom_site_fract_x
_atom_site_fract_y
_atom_site_fract_z
_atom_type_partial_charge
Co0 Co 0.02325 0.23366 0.38119 0.0
Co1 Co 0.99119 0.20728 0.36215 0.0
C2 C 0.98125 0.23575 0.39413 0.0
O3 O 0.99912 0.24061 0.39517 0.0
O4 O 0.97562 0.22283 0.38197 0.0
C5 C 0.0468 0.24193 0.41341 0.0
O6 O 0.0365 0.22744 0.42064 0.0
C7 C 0.96397 0.17427 0.36293 0.0
C8 C 0.96042 0.16711 0.3317 0.0
C9 C 0.95506 0.16099 0.35029 0.0
N10 N 0.97414 0.1873 0.35228 0.0
N11 N 0.97175 0.18309 0.33361 0.0
C12 C 0.96477 0.17362 0.38477 0.0
H13 H 0.97733 0.18229 0.39025 0.0
H14 H 0.96606 0.15833 0.38999 0.0
H15 H 0.95116 0.18006 0.39079 0.0
C16 C 0.04483 0.19657 0.38226 0.0
N17 N 0.02799 0.20657 0.38017 0.0
N18 N 0.01461 0.1951 0.37245 0.0
C19 C 0.0226 0.1772 0.36973 0.0
C20 C 0.04199 0.17753 0.37599 0.0
C21 C 0.06421 0.20602 0.38622 0.0
H22 H 0.06442 0.22109 0.38035 0.0
H23 H 0.06672 0.20652 0.40222 0.0
H24 H 0.07639 0.19775 0.37944 0.0
O25 O 0.02251 0.24328 0.3542 0.0
O26 O 0.99928 0.22527 0.34012 0.0
H27 H 1.00773 0.16498 0.34508 0.0
H28 H 0.02181 0.14737 0.35896 0.0
C29 C 0.01241 0.16052 0.35993 0.0
H30 H 0.99927 0.15657 0.36845 0.0
H31 H 0.97835 0.19074 0.3222 0.0
O32 O 0.04394 0.24726 0.39588 0.0
C33 C 0.01235 0.23862 0.33931 0.0
Co34 Co 0.81713 0.02321 0.38131 0.0
Co35 Co 0.84303 0.9908 0.36229 0.0
C36 C 0.81504 0.98143 0.39484 0.0
O37 O 0.81032 0.99933 0.39571 0.0
O38 O 0.82772 0.97553 0.38254 0.0
C39 C 0.8096 0.04681 0.41348 0.0
O40 O 0.82421 0.03644 0.42038 0.0
C41 C 0.876 0.96356 0.36297 0.0
C42 C 0.88275 0.95958 0.33171 0.0
C43 C 0.88912 0.95448 0.35029 0.0
N44 N 0.86281 0.97357 0.35235 0.0
N45 N 0.86678 0.97093 0.33366 0.0
C46 C 0.87695 0.96468 0.38479 0.0
H47 H 0.86836 0.97733 0.3902 0.0
H48 H 0.89232 0.96603 0.38977 0.0
H49 H 0.87059 0.95118 0.3911 0.0
C50 C 0.85429 0.04463 0.38158 0.0
N51 N 0.84421 0.02781 0.3798 0.0
N52 N 0.8555 0.01431 0.37206 0.0
C53 C 0.87341 0.0222 0.36901 0.0
C54 C 0.87325 0.04164 0.37509 0.0
C55 C 0.84497 0.06407 0.38548 0.0
H56 H 0.82979 0.06427 0.37985 0.0
H57 H 0.84473 0.06676 0.40146 0.0
H58 H 0.85316 0.07614 0.37843 0.0
O59 O 0.80703 0.02217 0.35453 0.0
O60 O 0.82466 0.99862 0.34048 0.0
H61 H 0.8852 1.00694 0.34439 0.0
H62 H 0.90306 0.02119 0.35775 0.0
C63 C 0.88992 0.01183 0.35909 0.0
H64 H 0.894 0.99882 0.36775 0.0
H65 H 0.85897 0.97737 0.32226 0.0
O66 O 0.80389 0.04403 0.39605 0.0
C67 C 0.81135 0.01175 0.33973 0.0
Co68 Co 0.02718 0.81708 0.38033 0.0
Co69 Co 0.05956 0.84297 0.36136 0.0
C70 C 0.06897 0.81469 0.39369 0.0
O71 O 0.05105 0.81005 0.39461 0.0
O72 O 0.07486 0.82738 0.3814 0.0
C73 C 1.00361 0.80886 0.41242 0.0
O74 O 0.01393 0.82331 0.41969 0.0
C75 C 0.08705 0.87569 0.3624 0.0
C76 C 0.09104 0.88279 0.33121 0.0
C77 C 0.09626 0.88885 0.34986 0.0
N78 N 0.07688 0.86276 0.35163 0.0
N79 N 0.07952 0.86694 0.33299 0.0
C80 C 0.086 0.87639 0.38423 0.0
H81 H 0.07324 0.86793 0.38957 0.0
H82 H 0.08489 0.89172 0.3894 0.0
H83 H 0.09943 0.86976 0.39043 0.0
C84 C 1.00592 0.8543 0.38119 0.0
N85 N 0.02268 0.84417 0.3792 0.0
N86 N 0.03618 0.85545 0.37144 0.0
C87 C 0.02834 0.8734 0.36856 0.0
C88 C 0.00892 0.87328 0.37478 0.0
C89 C 0.98647 0.84501 0.38515 0.0
H90 H 0.98615 0.82994 0.3793 0.0
H91 H 0.98396 0.84453 0.40115 0.0
H92 H 0.97434 0.85335 0.37836 0.0
O93 O 0.02799 0.80737 0.35342 0.0
O94 O 0.05145 0.82503 0.33928 0.0
H95 H 0.04339 0.88523 0.34383 0.0
H96 H 0.02936 0.90309 0.35744 0.0
C97 C 0.03868 0.8899 0.35861 0.0
H98 H 0.05182 0.89386 0.36714 0.0
H99 H 0.07298 0.85934 0.32151 0.0
O100 O 1.00639 0.80362 0.39485 0.0
C101 C 0.03821 0.81183 0.33852 0.0
Co102 Co 0.23429 0.02724 0.37948 0.0
Co103 Co 0.20701 0.0591 0.36152 0.0
C104 C 0.23659 0.06947 0.39197 0.0
O105 O 0.24239 0.05187 0.39205 0.0
O106 O 0.22214 0.0747 0.38146 0.0
C107 C 0.2425 1.00461 0.41208 0.0
O108 O 0.2279 0.0151 0.41882 0.0
C109 C 0.17378 0.08617 0.36219 0.0
C110 C 0.16649 0.08925 0.33094 0.0
C111 C 0.16042 0.09485 0.34947 0.0
N112 N 0.18681 0.07589 0.35162 0.0
N113 N 0.18251 0.07799 0.33294 0.0
C114 C 0.17326 0.08572 0.38404 0.0
H115 H 0.18201 0.07328 0.38968 0.0
H116 H 0.15799 0.08445 0.38935 0.0
H117 H 0.17967 0.09944 0.38981 0.0
C118 C 0.19736 1.00543 0.3814 0.0
N119 N 0.20708 0.02244 0.37934 0.0
N120 N 0.19527 0.03569 0.37195 0.0
C121 C 0.17742 0.0275 0.36948 0.0
C122 C 0.17814 1.00806 0.37548 0.0
C123 C 0.20719 0.98614 0.3848 0.0
H124 H 0.22219 0.98631 0.37872 0.0
H125 H 0.20797 0.9833 0.40073 0.0
H126 H 0.19904 0.97397 0.37788 0.0
O127 O 0.24297 0.02723 0.35236 0.0
O128 O 0.22512 0.05121 0.33929 0.0
H129 H 0.16447 0.04209 0.34503 0.0
H130 H 0.14729 0.02813 0.35955 0.0
C131 C 0.16044 0.03756 0.36006 0.0
H132 H 0.15669 0.05078 0.36854 0.0
H133 H 0.19016 0.07128 0.32159 0.0
O134 O 0.24805 1.00698 0.39454 0.0
C135 C 0.23816 0.03785 0.33786 0.0
Co136 Co 0.02368 0.816 0.67036 0.0
Co137 Co 0.99134 0.84215 0.68914 0.0
C138 C 0.98197 0.81423 0.65654 0.0
O139 O 0.99984 0.80937 0.65579 0.0
O140 O 0.97609 0.82694 0.66882 0.0
C141 C 0.04742 0.808 0.63837 0.0
O142 O 0.03723 0.82263 0.63126 0.0
C143 C 0.96423 0.87522 0.68822 0.0
C144 C 0.96036 0.88224 0.71944 0.0
C145 C 0.95526 0.88848 0.70083 0.0
N146 N 0.97419 0.86207 0.69892 0.0
N147 N 0.97161 0.86619 0.71759 0.0
C148 C 0.96531 0.87605 0.6664 0.0
H149 H 0.97795 0.86743 0.66102 0.0
H150 H 0.96664 0.89139 0.66133 0.0
H151 H 0.95179 0.86966 0.66015 0.0
C152 C 0.04533 0.85304 0.67 0.0
N153 N 0.02846 0.84304 0.6718 0.0
N154 N 0.01498 0.85443 0.67945 0.0
C155 C 0.02295 0.87231 0.68244 0.0
C156 C 0.04242 0.87203 0.67641 0.0
C157 C 0.06474 0.84362 0.66612 0.0
H158 H 0.06488 0.82848 0.67183 0.0
H159 H 0.0674 0.84329 0.65015 0.0
H160 H 0.07685 0.8518 0.67311 0.0
O161 O 0.02242 0.806 0.69717 0.0
O162 O 0.99892 0.82381 0.71107 0.0
H163 H 1.0077 0.88431 0.70697 0.0
H164 H 0.02204 0.90202 0.69352 0.0
C165 C 0.01263 0.88891 0.69224 0.0
H166 H 0.99964 0.89298 0.68354 0.0
H167 H 0.97805 0.85845 0.72903 0.0
O168 O 0.04449 0.80251 0.65584 0.0
C169 C 0.01196 0.81043 0.71192 0.0
Co170 Co 0.23213 0.02368 0.66921 0.0
Co171 Co 0.20731 0.99072 0.68887 0.0
C172 C 0.23551 0.98177 0.65624 0.0
O173 O 0.23983 0.99977 0.6551 0.0
O174 O 0.2229 0.97582 0.66858 0.0
C175 C 0.23882 0.04583 0.63616 0.0
O176 O 0.22676 0.0325 0.62941 0.0
C177 C 0.17483 0.96301 0.68833 0.0
C178 C 0.16864 0.95834 0.71961 0.0
C179 C 0.16204 0.95353 0.70104 0.0
N180 N 0.18806 0.97298 0.69893 0.0
N181 N 0.18444 0.96993 0.71763 0.0
C182 C 0.17348 0.96457 0.66656 0.0
H183 H 0.18184 0.97741 0.66125 0.0
H184 H 0.15801 0.96584 0.66188 0.0
H185 H 0.17988 0.95127 0.65987 0.0
C186 C 0.1943 0.04389 0.66899 0.0
N187 N 0.20487 0.02738 0.67091 0.0
N188 N 0.19411 0.01379 0.67922 0.0
C189 C 0.17613 0.02135 0.6827 0.0
C190 C 0.17564 0.04064 0.67618 0.0
C191 C 0.20299 0.0634 0.66412 0.0
H192 H 0.2178 0.06466 0.67053 0.0
H193 H 0.20408 0.06487 0.64802 0.0
H194 H 0.19398 0.07563 0.66976 0.0
O195 O 0.24254 0.02319 0.69603 0.0
O196 O 0.22569 0.99921 0.71035 0.0
H197 H 0.16588 1.00594 0.70791 0.0
H198 H 0.14725 0.02031 0.69579 0.0
C199 C 0.16027 0.01094 0.69357 0.0
H200 H 0.15565 0.99798 0.68509 0.0
H201 H 0.19233 0.97627 0.72902 0.0
O202 O 0.24383 0.04518 0.65402 0.0
C203 C 0.23865 0.01268 0.71092 0.0
Co204 Co 0.02958 0.23048 0.66508 0.0
Co205 Co 0.05938 0.20649 0.69013 0.0
C206 C 0.0718 0.2318 0.65558 0.0
O207 O 0.05416 0.23605 0.65199 0.0
O208 O 0.07625 0.22079 0.66995 0.0
C209 C 0.01126 0.24436 0.63108 0.0
O210 O 0.02711 0.23698 0.62316 0.0
C211 C 0.08414 0.17193 0.69067 0.0
C212 C 0.0911 0.16768 0.72183 0.0
C213 C 0.09407 0.15957 0.70346 0.0
N214 N 0.07587 0.18648 0.70098 0.0
N215 N 0.08018 0.18394 0.71962 0.0
C216 C 0.08111 0.16938 0.66916 0.0
H217 H 0.06839 0.17802 0.66408 0.0
H218 H 0.07888 0.15374 0.66554 0.0
H219 H 0.0942 0.17476 0.66127 0.0
C220 C 1.00858 0.19348 0.66441 0.0
N221 N 0.02502 0.20367 0.66782 0.0
N222 N 0.03633 0.19386 0.67983 0.0
C223 C 0.02692 0.17729 0.68512 0.0
C224 C 0.00889 0.17652 0.67558 0.0
C225 C 0.99238 0.20057 0.65153 0.0
H226 H 0.99859 0.20643 0.63779 0.0
H227 H 0.98205 0.18864 0.64783 0.0
H228 H 0.98437 0.21252 0.659 0.0
O229 O 0.0298 0.24252 0.69132 0.0
O230 O 0.05035 0.22589 0.71034 0.0
H231 H 0.04073 0.17325 0.71297 0.0
H232 H 0.02123 0.1562 0.70805 0.0
C233 C 0.03357 0.16437 0.70147 0.0
H234 H 0.0444 0.15375 0.69575 0.0
H235 H 0.07535 0.19305 0.73084 0.0
O236 O 1.00876 0.24291 0.64941 0.0
C237 C 0.03803 0.23974 0.70782 0.0
Co238 Co 0.81759 0.02677 0.66937 0.0
Co239 Co 0.84458 0.05827 0.68847 0.0
C240 C 0.81642 0.06899 0.65664 0.0
O241 O 0.8113 0.0512 0.65569 0.0
O242 O 0.8294 0.07453 0.66881 0.0
C243 C 0.8089 1.00371 0.63693 0.0
O244 O 0.82378 0.01353 0.62983 0.0
C245 C 0.8771 0.0864 0.68987 0.0
C246 C 0.88773 0.08293 0.72014 0.0
C247 C 0.89178 0.09222 0.70263 0.0
N248 N 0.86505 0.0741 0.69937 0.0
N249 N 0.87131 0.07236 0.71756 0.0
C250 C 0.87592 0.09037 0.66842 0.0
H251 H 0.86821 0.07828 0.66086 0.0
H252 H 0.89074 0.09224 0.66209 0.0
H253 H 0.86757 0.10406 0.66605 0.0
C254 C 0.85425 1.0046 0.66793 0.0
N255 N 0.84452 0.02155 0.67026 0.0
N256 N 0.85633 0.03484 0.67756 0.0
C257 C 0.87429 0.02674 0.67951 0.0
C258 C 0.87355 1.0073 0.67348 0.0
C259 C 0.84445 0.98534 0.66436 0.0
H260 H 0.82933 0.98554 0.67013 0.0
H261 H 0.844 0.98245 0.64842 0.0
H262 H 0.85247 0.97319 0.67149 0.0
O263 O 0.80797 0.02724 0.69622 0.0
O264 O 0.8263 0.05017 0.71033 0.0
H265 H 0.88925 0.0392 0.70391 0.0
H266 H 0.90523 0.0284 0.68589 0.0
C267 C 0.89162 0.03694 0.68805 0.0
H268 H 0.89346 0.05133 0.68095 0.0
H269 H 0.86491 0.06323 0.72795 0.0
O270 O 0.80357 1.00663 0.65444 0.0
C271 C 0.81279 0.03727 0.71112 0.0
Co272 Co 0.38102 0.02423 0.23155 0.0
Co273 Co 0.36129 0.99117 0.20694 0.0
C274 C 0.39345 0.98241 0.23581 0.0
O275 O 0.39472 1.00048 0.23968 0.0
O276 O 0.38112 0.97624 0.22329 0.0
C277 C 0.41364 0.04707 0.23992 0.0
O278 O 0.42117 0.03556 0.22653 0.0
C279 C 0.36202 0.96425 0.17355 0.0
C280 C 0.3308 0.95762 0.16898 0.0
C281 C 0.34925 0.95421 0.16128 0.0
N282 N 0.35154 0.97344 0.18744 0.0
N283 N 0.33289 0.96926 0.18472 0.0
C284 C 0.38386 0.96491 0.17252 0.0
H285 H 0.39013 0.96841 0.18703 0.0
H286 H 0.38844 0.97655 0.16223 0.0
H287 H 0.38975 0.95075 0.16726 0.0
C288 C 0.38277 0.04378 0.19342 0.0
N289 N 0.38029 0.02752 0.20425 0.0
N290 N 0.37138 0.01408 0.19375 0.0
C291 C 0.36765 0.02166 0.17585 0.0
C292 C 0.37508 0.04057 0.17499 0.0
C293 C 0.3886 0.06322 0.20165 0.0
H294 H 0.38191 0.0653 0.21624 0.0
H295 H 0.40472 0.06372 0.20316 0.0
H296 H 0.38406 0.07547 0.19206 0.0
O297 O 0.3539 0.02403 0.24117 0.0
O298 O 0.3394 0.99999 0.2246 0.0
H299 H 0.34141 1.0065 0.16794 0.0
H300 H 0.35068 0.02254 0.14909 0.0
C301 C 0.35482 0.01222 0.16087 0.0
H302 H 0.36273 0.99985 0.1541 0.0
H303 H 0.32156 0.97467 0.19337 0.0
O304 O 0.39572 0.04535 0.24438 0.0
C305 C 0.33887 0.01374 0.23726 0.0
Co306 Co 0.02683 0.37983 0.23457 0.0
Co307 Co 0.05889 0.36219 0.20727 0.0
C308 C 0.06905 0.39253 0.23707 0.0
O309 O 0.0514 0.39251 0.24277 0.0
O310 O 0.07438 0.38211 0.22259 0.0
C311 C 1.00368 0.41215 0.24275 0.0
O312 O 0.01395 0.41904 0.22808 0.0
C313 C 0.08605 0.36316 0.17414 0.0
C314 C 0.08921 0.33197 0.16663 0.0
C315 C 0.09479 0.35056 0.16071 0.0
N316 N 0.07576 0.35248 0.18707 0.0
N317 N 0.07792 0.33383 0.18264 0.0
C318 C 0.08555 0.38502 0.17377 0.0
H319 H 0.07307 0.39056 0.18252 0.0
H320 H 0.08431 0.39044 0.15855 0.0
H321 H 0.09924 0.39077 0.18027 0.0
C322 C 1.00503 0.38167 0.1976 0.0
N323 N 0.02205 0.37973 0.20735 0.0
N324 N 0.03541 0.37254 0.19553 0.0
C325 C 0.02729 0.37013 0.17765 0.0
C326 C 1.00777 0.37592 0.17836 0.0
C327 C 0.98568 0.38478 0.2074 0.0
H328 H 0.98592 0.37874 0.2224 0.0
H329 H 0.98256 0.40066 0.20812 0.0
H330 H 0.97364 0.37764 0.19923 0.0
O331 O 0.02701 0.35266 0.24316 0.0
O332 O 0.05108 0.33983 0.22526 0.0
H333 H 0.04209 0.34592 0.16449 0.0
H334 H 0.02813 0.36057 0.14742 0.0
C335 C 0.0375 0.36097 0.16062 0.0
H336 H 0.05069 0.36958 0.15705 0.0
H337 H 0.07121 0.32241 0.19018 0.0
O338 O 1.00641 0.39468 0.24836 0.0
C339 C 0.03772 0.33825 0.23829 0.0
Co340 Co 0.66961 0.02702 0.2319 0.0
Co341 Co 0.68954 0.05948 0.20684 0.0
C342 C 0.6565 0.06877 0.2345 0.0
O343 O 0.65532 0.05084 0.23897 0.0
O344 O 0.66909 0.07466 0.2221 0.0
C345 C 0.63716 1.00412 0.24054 0.0
O346 O 0.6296 0.01526 0.22685 0.0
C347 C 0.68907 0.08597 0.17333 0.0
C348 C 0.72036 0.09183 0.16823 0.0
C349 C 0.70187 0.09564 0.16077 0.0
N350 N 0.69955 0.07689 0.18727 0.0
N351 N 0.71824 0.08064 0.18427 0.0
C352 C 0.66743 0.08356 0.17128 0.0
H353 H 0.66227 0.07086 0.17992 0.0
H354 H 0.66337 0.08157 0.15571 0.0
H355 H 0.66003 0.09683 0.17693 0.0
C356 C 0.66862 1.0064 0.1942 0.0
N357 N 0.67101 0.02288 0.20474 0.0
N358 N 0.67994 0.03612 0.19403 0.0
C359 C 0.6837 0.02824 0.17627 0.0
C360 C 0.67636 0.00928 0.17573 0.0
C361 C 0.66259 0.98715 0.20272 0.0
H362 H 0.66903 0.98534 0.21746 0.0
H363 H 0.64645 0.98673 0.20399 0.0
H364 H 0.66725 0.97471 0.19344 0.0
O365 O 0.69647 0.02778 0.24216 0.0
O366 O 0.71109 0.05149 0.22527 0.0
H367 H 0.70959 0.04359 0.16766 0.0
H368 H 0.70003 0.02731 0.14914 0.0
C369 C 0.69608 0.03769 0.16094 0.0
H370 H 0.68788 0.04995 0.1543 0.0
H371 H 0.72958 0.07507 0.19281 0.0
O372 O 0.65504 1.00608 0.24504 0.0
C373 C 0.71147 0.03812 0.23832 0.0
Co374 Co 0.02388 0.66984 0.23439 0.0
Co375 Co 0.99212 0.68784 0.20705 0.0
C376 C 0.98156 0.6576 0.23684 0.0
O377 O 0.99919 0.65742 0.24261 0.0
O378 O 0.97639 0.66809 0.22237 0.0
C379 C 0.04655 0.63731 0.24304 0.0
O380 O 0.03607 0.63029 0.22857 0.0
C381 C 0.96523 0.68706 0.1737 0.0
C382 C 0.96186 0.71831 0.16658 0.0
C383 C 0.95647 0.69976 0.16037 0.0
N384 N 0.97535 0.69766 0.18682 0.0
N385 N 0.97306 0.71634 0.18262 0.0
C386 C 0.96586 0.66521 0.17314 0.0
H387 H 0.97818 0.65964 0.18211 0.0
H388 H 0.96747 0.65995 0.15789 0.0
H389 H 0.95206 0.65931 0.17926 0.0
C390 C 0.04569 0.66751 0.19747 0.0
N391 N 0.02869 0.66974 0.20718 0.0
N392 N 0.01549 0.67722 0.19535 0.0
C393 C 0.02372 0.6796 0.17752 0.0
C394 C 0.04312 0.67343 0.17826 0.0
C395 C 0.06496 0.66395 0.2073 0.0
H396 H 0.0649 0.6702 0.22222 0.0
H397 H 0.06758 0.64799 0.20825 0.0
H398 H 0.07721 0.6706 0.19905 0.0
O399 O 0.02406 0.69703 0.24283 0.0
O400 O 1.00019 0.71021 0.22492 0.0
H401 H 0.00912 0.70411 0.16468 0.0
H402 H 0.02333 0.68985 0.14749 0.0
C403 C 0.01377 0.68915 0.16055 0.0
H404 H 1.00064 0.68063 0.15658 0.0
H405 H 0.97963 0.72772 0.19036 0.0
O406 O 0.04413 0.65493 0.24831 0.0
C407 C 0.0136 0.71161 0.23791 0.0
Co408 Co 0.38065 0.02853 0.81644 0.0
Co409 Co 0.3617 0.06031 0.8431 0.0
C410 C 0.39169 0.07107 0.8131 0.0
O411 O 0.39201 0.05345 0.80739 0.0
O412 O 0.38143 0.07614 0.82778 0.0
C413 C 0.41456 0.01079 0.8044 0.0
O414 O 0.42124 0.02616 0.81377 0.0
C415 C 0.3626 0.08642 0.87685 0.0
C416 C 0.33139 0.09182 0.88283 0.0
C417 C 0.35003 0.09595 0.88973 0.0
N418 N 0.35188 0.07717 0.86322 0.0
N419 N 0.33322 0.0806 0.86677 0.0
C420 C 0.38434 0.08444 0.87826 0.0
H421 H 0.38947 0.07169 0.86967 0.0
H422 H 0.38892 0.08279 0.89373 0.0
H423 H 0.39131 0.09773 0.87215 0.0
C424 C 0.38426 1.00786 0.85363 0.0
N425 N 0.38131 0.0246 0.84371 0.0
N426 N 0.37249 0.0373 0.85512 0.0
C427 C 0.36941 0.02883 0.87273 0.0
C428 C 0.37685 0.0099 0.87237 0.0
C429 C 0.3913 0.9893 0.84442 0.0
H430 H 0.40636 0.99148 0.83889 0.0
H431 H 0.3915 0.97698 0.85494 0.0
H432 H 0.38177 0.98553 0.83186 0.0
O433 O 0.35328 0.02751 0.80805 0.0
O434 O 0.33975 0.05187 0.82503 0.0
H435 H 0.34284 0.04287 0.88153 0.0
H436 H 0.35269 0.02618 0.8995 0.0
C437 C 0.35646 0.0372 0.88823 0.0
H438 H 0.3641 0.04951 0.89545 0.0
H439 H 0.32174 0.07489 0.85852 0.0
O440 O 0.39622 1.00807 0.80349 0.0
C441 C 0.33859 0.03811 0.81239 0.0
Co442 Co 0.02058 0.38251 0.81742 0.0
Co443 Co 0.98952 0.36118 0.84322 0.0
C444 C 0.97929 0.39599 0.81769 0.0
O445 O 0.99711 0.39824 0.81315 0.0
O446 O 0.974 0.38206 0.82888 0.0
C447 C 0.04516 0.41424 0.81002 0.0
O448 O 0.03564 0.42117 0.82518 0.0
C449 C 0.96295 0.362 0.87662 0.0
C450 C 0.95785 0.33082 0.88292 0.0
C451 C 0.95343 0.34948 0.88959 0.0
N452 N 0.97249 0.35122 0.86322 0.0
N453 N 0.96922 0.33258 0.86694 0.0
C454 C 0.96485 0.38375 0.87786 0.0
H455 H 0.97768 0.38882 0.86935 0.0
H456 H 0.96638 0.38847 0.8933 0.0
H457 H 0.95158 0.39063 0.87159 0.0
C458 C 0.04362 0.38012 0.85374 0.0
N459 N 0.02656 0.37865 0.84402 0.0
N460 N 0.01345 0.37024 0.85528 0.0
C461 C 0.02182 0.36641 0.8728 0.0
C462 C 0.04121 0.37269 0.87243 0.0
C463 C 0.06274 0.38504 0.84424 0.0
H464 H 0.06271 0.38031 0.82877 0.0
H465 H 0.06506 0.40106 0.8449 0.0
H466 H 0.07515 0.37781 0.85175 0.0
O467 O 0.01705 0.35702 0.8048 0.0
O468 O 0.99656 0.34008 0.82367 0.0
H469 H 1.00676 0.34141 0.88402 0.0
H470 H 0.02147 0.35406 0.90203 0.0
C471 C 0.01182 0.35591 0.88917 0.0
H472 H 0.99891 0.36443 0.89385 0.0
H473 H 0.97515 0.32108 0.85889 0.0
O474 O 0.04142 0.39711 0.80398 0.0
C475 C 1.00769 0.34142 0.80869 0.0
Co476 Co 0.67025 0.02322 0.8172 0.0
Co477 Co 0.68984 0.99113 0.84305 0.0
C478 C 0.65779 0.98109 0.81472 0.0
O479 O 0.65661 0.99899 0.81007 0.0
O480 O 0.67003 0.97543 0.82757 0.0
C481 C 0.6375 0.04607 0.80977 0.0
O482 O 0.63083 0.03537 0.82424 0.0
C483 C 0.68958 0.96393 0.87597 0.0
C484 C 0.72091 0.96051 0.88282 0.0
C485 C 0.70239 0.95512 0.88915 0.0
N486 N 0.70006 0.97407 0.8628 0.0
N487 N 0.7188 0.97176 0.86681 0.0
C488 C 0.66774 0.9647 0.87688 0.0
H489 H 0.66212 0.9772 0.86822 0.0
H490 H 0.66271 0.96605 0.89223 0.0
H491 H 0.66166 0.95105 0.87059 0.0
C492 C 0.66929 0.04446 0.85442 0.0
N493 N 0.67145 0.02771 0.84431 0.0
N494 N 0.67948 0.01435 0.85557 0.0
C495 C 0.68239 0.02228 0.87348 0.0
C496 C 0.67587 0.04159 0.87335 0.0
C497 C 0.66502 0.06384 0.84513 0.0
H498 H 0.67076 0.06422 0.83001 0.0
H499 H 0.64898 0.06618 0.84479 0.0
H500 H 0.67173 0.07605 0.85341 0.0
O501 O 0.69714 0.02298 0.80735 0.0
O502 O 0.71158 0.99959 0.82488 0.0
H503 H 0.7074 1.00752 0.88509 0.0
H504 H 0.69396 0.02162 0.90301 0.0
C505 C 0.69265 0.01217 0.88993 0.0
H506 H 0.68427 0.99903 0.89415 0.0
H507 H 0.7301 0.97838 0.85903 0.0
O508 O 0.655 0.04375 0.80407 0.0
C509 C 0.71215 0.01286 0.81172 0.0
Co510 Co 0.02707 0.66855 0.81839 0.0
Co511 Co 0.05972 0.68777 0.84401 0.0
C512 C 0.06915 0.65605 0.81508 0.0
O513 O 0.05123 0.65517 0.81043 0.0
O514 O 0.07498 0.66793 0.82818 0.0
C515 C 1.00724 0.63517 0.8072 0.0
O516 O 0.02189 0.62763 0.81704 0.0
C517 C 0.08709 0.68652 0.8768 0.0
C518 C 0.09193 0.71767 0.88351 0.0
C519 C 0.09666 0.69896 0.88981 0.0
N520 N 0.0772 0.69741 0.86374 0.0
N521 N 0.08034 0.71602 0.86769 0.0
C522 C 0.08549 0.66474 0.87769 0.0
H523 H 0.07271 0.65962 0.86912 0.0
H524 H 0.08407 0.65975 0.89305 0.0
H525 H 0.09884 0.65814 0.87128 0.0
C526 C 1.00679 0.66638 0.85581 0.0
N527 N 0.02335 0.66905 0.84554 0.0
N528 N 0.0366 0.67746 0.85664 0.0
C529 C 0.02871 0.68039 0.87455 0.0
C530 C 0.00957 0.67336 0.87464 0.0
C531 C 0.98767 0.66094 0.84661 0.0
H532 H 0.98579 0.66907 0.83273 0.0
H533 H 0.98771 0.64509 0.84327 0.0
H534 H 0.97503 0.66423 0.85617 0.0
O535 O 0.02725 0.69566 0.809 0.0
O536 O 0.05125 0.7097 0.82606 0.0
H537 H 0.04345 0.70577 0.88538 0.0
H538 H 0.02906 0.69308 0.90363 0.0
C539 C 0.03866 0.69125 0.89072 0.0
H540 H 0.05174 0.68299 0.89541 0.0
H541 H 0.07411 0.72758 0.85995 0.0
O542 O 1.00588 0.65362 0.80579 0.0
C543 C 0.03769 0.7105 0.81319 0.0
Co544 Co 0.23286 0.38051 0.0229 0.0
Co545 Co 0.20677 0.36124 0.99078 0.0
C546 C 0.23519 0.39328 0.98089 0.0
O547 O 0.23992 0.39439 0.99878 0.0
O548 O 0.22235 0.38104 0.97521 0.0
C549 C 0.24102 0.41286 0.04633 0.0
O550 O 0.22649 0.42004 0.03603 0.0
C551 C 0.17391 0.36167 0.96334 0.0
C552 C 0.16707 0.33036 0.95985 0.0
C553 C 0.16082 0.34887 0.95436 0.0
N554 N 0.18696 0.35117 0.97366 0.0
N555 N 0.18294 0.33245 0.97132 0.0
C556 C 0.17309 0.38351 0.96403 0.0
H557 H 0.18166 0.38911 0.9766 0.0
H558 H 0.15774 0.3886 0.96521 0.0
H559 H 0.17955 0.38951 0.95043 0.0
C560 C 0.19568 0.38152 0.04425 0.0
N561 N 0.20575 0.37945 0.02746 0.0
N562 N 0.19439 0.37162 0.01406 0.0
C563 C 0.17646 0.36882 0.02198 0.0
C564 C 0.17667 0.37512 0.04135 0.0
C565 C 0.20506 0.38552 0.06365 0.0
H566 H 0.22017 0.37971 0.06389 0.0
H567 H 0.20549 0.40151 0.06616 0.0
H568 H 0.19681 0.37869 0.0758 0.0
O569 O 0.24254 0.35355 0.02241 0.0
O570 O 0.22475 0.33929 0.99912 0.0
H571 H 0.16447 0.34399 1.00722 0.0
H572 H 0.14668 0.3579 0.02105 0.0
C573 C 0.1599 0.35886 0.01174 0.0
H574 H 0.156 0.36725 0.9985 0.0
H575 H 0.19065 0.32113 0.97801 0.0
O576 O 0.24635 0.39531 0.04355 0.0
C577 C 0.23799 0.33859 0.01232 0.0
Co578 Co 0.23463 0.67 0.0275 0.0
Co579 Co 0.20781 0.68849 0.05944 0.0
C580 C 0.23811 0.65869 0.07002 0.0
O581 O 0.24375 0.65843 0.05236 0.0
O582 O 0.22346 0.66896 0.07518 0.0
C583 C 0.24678 0.63627 0.00907 0.0
O584 O 0.23745 0.6291 0.02424 0.0
C585 C 0.17479 0.68776 0.08667 0.0
C586 C 0.16756 0.719 0.09003 0.0
C587 C 0.16151 0.70043 0.09555 0.0
N588 N 0.18776 0.69838 0.07639 0.0
N589 N 0.1835 0.71706 0.07866 0.0
C590 C 0.17421 0.66591 0.08606 0.0
H591 H 0.18291 0.66035 0.07356 0.0
H592 H 0.15893 0.66065 0.08481 0.0
H593 H 0.18066 0.66003 0.09972 0.0
C594 C 0.19746 0.66635 1.00679 0.0
N595 N 0.20735 0.66924 0.02357 0.0
N596 N 0.19578 0.67742 0.03654 0.0
C597 C 0.17794 0.67987 0.02833 0.0
C598 C 0.1784 0.67292 0.00918 0.0
C599 C 0.20723 0.66134 0.98784 0.0
H600 H 0.22082 0.67 0.98626 0.0
H601 H 0.21121 0.64563 0.98792 0.0
H602 H 0.19778 0.66427 0.97503 0.0
O603 O 0.24272 0.69737 0.02644 0.0
O604 O 0.22544 0.71076 0.05065 0.0
H605 H 0.16605 0.70529 0.04215 0.0
H606 H 0.14832 0.69126 0.02836 0.0
C607 C 0.16134 0.69037 0.03795 0.0
H608 H 0.15706 0.68242 0.05134 0.0
H609 H 0.19112 0.72844 0.07197 0.0
O610 O 0.24766 0.65467 1.00691 0.0
C611 C 0.23804 0.71207 0.03686 0.0
Co612 Co 0.3797 0.23482 0.02706 0.0
Co613 Co 0.36176 0.20709 0.05876 0.0
C614 C 0.39127 0.23766 0.06951 0.0
O615 O 0.39176 0.24326 0.05184 0.0
O616 O 0.3808 0.22315 0.07462 0.0
C617 C 0.4123 0.24388 1.00457 0.0
O618 O 0.41944 0.22949 0.01508 0.0
C619 C 0.36192 0.17362 0.08617 0.0
C620 C 0.33074 0.16543 0.08679 0.0
C621 C 0.34897 0.15974 0.0936 0.0
N622 N 0.35182 0.18643 0.07512 0.0
N623 N 0.33316 0.18155 0.07579 0.0
C624 C 0.38351 0.17487 0.08951 0.0
H625 H 0.38869 0.19007 0.08781 0.0
H626 H 0.39121 0.16577 0.07853 0.0
H627 H 0.38733 0.16952 0.10433 0.0
C628 C 0.38277 0.1979 1.0054 0.0
N629 N 0.38031 0.2076 0.02237 0.0
N630 N 0.37304 0.19566 0.03557 0.0
C631 C 0.3711 0.17775 0.02739 0.0
C632 C 0.37726 0.17857 1.00801 0.0
C633 C 0.38613 0.20775 0.98612 0.0
H634 H 0.37965 0.22258 0.98618 0.0
H635 H 0.40207 0.20894 0.98346 0.0
H636 H 0.37957 0.19938 0.9739 0.0
O637 O 0.35236 0.24281 0.02666 0.0
O638 O 0.33921 0.22456 0.05029 0.0
H639 H 0.34648 0.16402 0.04089 0.0
H640 H 0.36246 0.14727 0.02809 0.0
C641 C 0.3619 0.16058 0.0373 0.0
H642 H 0.36981 0.15745 0.05102 0.0
H643 H 0.32212 0.18893 0.06829 0.0
O644 O 0.3946 0.24893 1.0069 0.0
C645 C 0.33775 0.2376 0.03694 0.0
Co646 Co 0.81604 0.38127 0.02734 0.0
Co647 Co 0.84294 0.36245 0.05907 0.0
C648 C 0.8127 0.39218 0.06999 0.0
O649 O 0.80704 0.39264 0.05234 0.0
O650 O 0.82737 0.38185 0.07501 0.0
C651 C 0.80405 0.41524 0.0093 0.0
O652 O 0.81354 0.42214 0.02448 0.0
C653 C 0.87591 0.36322 0.08629 0.0
C654 C 0.88344 0.33204 0.08953 0.0
C655 C 0.88927 0.35064 0.09517 0.0
N656 N 0.86308 0.35252 0.07591 0.0
N657 N 0.86752 0.33388 0.07808 0.0
C658 C 0.8763 0.38507 0.08576 0.0
H659 H 0.86777 0.3906 0.07312 0.0
H660 H 0.89156 0.39048 0.08479 0.0
H661 H 0.86956 0.39085 0.09931 0.0
C662 C 0.85311 0.38478 1.00645 0.0
N663 N 0.84329 0.38189 0.02327 0.0
N664 N 0.85489 0.37359 0.03614 0.0
C665 C 0.87266 0.37106 0.02783 0.0
C666 C 0.87215 0.37809 0.00871 0.0
C667 C 0.84327 0.38997 0.98758 0.0
H668 H 0.8296 0.38142 0.98604 0.0
H669 H 0.83941 0.4057 0.98776 0.0
H670 H 0.85263 0.38702 0.97471 0.0
O671 O 0.8078 0.35394 0.0262 0.0
O672 O 0.82511 0.34035 0.0503 0.0
H673 H 0.88456 0.34549 0.04137 0.0
H674 H 0.90229 0.35967 0.02773 0.0
C675 C 0.88927 0.36046 0.03733 0.0
H676 H 0.89354 0.36826 0.05083 0.0
H677 H 0.86004 0.32245 0.07132 0.0
O678 O 0.80298 0.39687 1.00694 0.0
C679 C 0.81241 0.33919 0.03657 0.0
Co680 Co 0.67122 0.81675 0.02561 0.0
Co681 Co 0.68923 0.84305 0.05856 0.0
C682 C 0.65745 0.814 0.06729 0.0
O683 O 0.65695 0.80949 0.04933 0.0
O684 O 0.66932 0.82693 0.07353 0.0
C685 C 0.63919 0.8088 1.00201 0.0
O686 O 0.63212 0.82317 0.01259 0.0
C687 C 0.68879 0.87621 0.08637 0.0
C688 C 0.72009 0.88371 0.08825 0.0
C689 C 0.70174 0.88975 0.09442 0.0
N690 N 0.69902 0.86325 0.07561 0.0
N691 N 0.71775 0.86772 0.07702 0.0
C692 C 0.66707 0.87537 0.08883 0.0
H693 H 0.66162 0.86034 0.08648 0.0
H694 H 0.66001 0.88495 0.07783 0.0
H695 H 0.6628 0.88039 0.10364 0.0
C696 C 0.67004 0.85398 1.00456 0.0
N697 N 0.67204 0.84384 0.02131 0.0
N698 N 0.67923 0.85529 0.03499 0.0
C699 C 0.6817 0.87335 0.02725 0.0
C700 C 0.67581 0.87311 1.00775 0.0
C701 C 0.66664 0.84468 0.98501 0.0
H702 H 0.67267 0.82968 0.98479 0.0
H703 H 0.6507 0.84406 0.98211 0.0
H704 H 0.67362 0.85314 0.97309 0.0
O705 O 0.69819 0.80728 0.02686 0.0
O706 O 0.71146 0.82506 0.05078 0.0
H707 H 0.70606 0.88621 0.04202 0.0
H708 H 0.69118 0.90356 0.02871 0.0
C709 C 0.69093 0.89014 0.03777 0.0
H710 H 0.68249 0.89333 0.05117 0.0
H711 H 0.7289 0.86018 0.06986 0.0
O712 O 0.65673 0.80335 1.00465 0.0
C713 C 0.71271 0.81184 0.03759 0.0
Co714 Co 0.8183 0.66839 0.02387 0.0
Co715 Co 0.84389 0.68798 0.99141 0.0
C716 C 0.81528 0.65618 0.98163 0.0
O717 O 0.81059 0.65521 0.99953 0.0
O718 O 0.82832 0.66816 0.97586 0.0
C719 C 0.80837 0.63443 0.04305 0.0
O720 O 0.81888 0.62771 0.02846 0.0
C721 C 0.87688 0.68758 0.96429 0.0
C722 C 0.88326 0.71889 0.9601 0.0
C723 C 0.88989 0.70035 0.95516 0.0
N724 N 0.86354 0.69812 0.97417 0.0
N725 N 0.86728 0.71684 0.97141 0.0
C726 C 0.87802 0.66578 0.96554 0.0
H727 H 0.8692 0.66033 0.978 0.0
H728 H 0.89341 0.66096 0.96728 0.0
H729 H 0.87204 0.65934 0.95192 0.0
C730 C 0.85573 0.6664 0.04423 0.0
N731 N 0.84546 0.66912 0.02767 0.0
N732 N 0.85657 0.67756 0.01446 0.0
C733 C 0.87449 0.68043 0.02236 0.0
C734 C 0.87458 0.67334 0.04147 0.0
C735 C 0.84654 0.66092 0.06334 0.0
H736 H 0.83237 0.66859 0.06501 0.0
H737 H 0.84376 0.64496 0.06351 0.0
H738 H 0.8559 0.66471 0.07599 0.0
O739 O 0.80859 0.69544 0.02395 0.0
O740 O 0.82572 0.7096 1.00007 0.0
H741 H 0.88544 0.70579 1.00766 0.0
H742 H 0.90363 0.69303 0.02205 0.0
C743 C 0.89072 0.69125 0.01245 0.0
H744 H 0.89543 0.68297 0.9994 0.0
H745 H 0.85932 0.72819 0.97774 0.0
O746 O 0.80594 0.65276 0.04471 0.0
C747 C 0.81277 0.71033 0.01357 0.0
Co748 Co 0.37901 0.81772 0.02208 0.0
Co749 Co 0.36032 0.84475 0.9904 0.0
C750 C 0.39083 0.81491 0.97988 0.0
O751 O 0.39132 0.80926 0.99752 0.0
O752 O 0.38008 0.82923 0.97475 0.0
C753 C 0.41178 0.80753 0.04363 0.0
O754 O 0.41935 0.82092 0.03215 0.0
C755 C 0.36117 0.87933 0.96482 0.0
C756 C 0.33007 0.88326 0.95726 0.0
C757 C 0.34845 0.89134 0.95442 0.0
N758 N 0.35073 0.86512 0.97356 0.0
N759 N 0.33215 0.86754 0.96892 0.0
C760 C 0.38297 0.88069 0.96587 0.0
H761 H 0.38938 0.86646 0.97019 0.0
H762 H 0.38716 0.89165 0.97703 0.0
H763 H 0.38904 0.88539 0.95158 0.0
C764 C 0.38189 0.85483 0.04344 0.0
N765 N 0.37944 0.845 0.02654 0.0
N766 N 0.37087 0.85648 0.0137 0.0
C767 C 0.36748 0.874 0.02223 0.0
C768 C 0.37466 0.87361 0.04123 0.0
C769 C 0.38758 0.84543 0.06238 0.0
H770 H 0.40351 0.84255 0.0623 0.0
H771 H 0.3843 0.8549 0.07511 0.0
H772 H 0.37978 0.83134 0.0641 0.0
O773 O 0.35165 0.80937 0.02235 0.0
O774 O 0.33801 0.82692 0.99849 0.0
H775 H 0.3411 0.8825 1.00761 0.0
H776 H 0.34996 0.90023 0.0251 0.0
C777 C 0.35436 0.88938 0.01388 0.0
H778 H 0.36214 0.8972 1.00206 0.0
H779 H 0.32087 0.85851 0.97377 0.0
O780 O 0.39368 0.8037 0.04242 0.0
C781 C 0.33689 0.81402 0.012 0.0
Co782 Co 0.66972 0.23262 0.023 0.0
Co783 Co 0.68931 0.20712 0.9906 0.0
C784 C 0.65655 0.23487 0.98111 0.0
O785 O 0.65549 0.23945 0.99903 0.0
O786 O 0.66904 0.22237 0.97523 0.0
C787 C 0.63719 0.23927 0.04632 0.0
O788 O 0.63085 0.22442 0.03594 0.0
C789 C 0.68905 0.17413 0.96342 0.0
C790 C 0.72041 0.16785 0.95935 0.0
C791 C 0.70191 0.16116 0.95435 0.0
N792 N 0.69951 0.18751 0.97333 0.0
N793 N 0.71826 0.18383 0.97063 0.0
C794 C 0.66724 0.17287 0.96461 0.0
H795 H 0.66173 0.18154 0.97715 0.0
H796 H 0.6625 0.15745 0.96616 0.0
H797 H 0.66081 0.17895 0.95104 0.0
C798 C 0.66951 0.1953 0.04414 0.0
N799 N 0.67144 0.20553 0.02743 0.0
N800 N 0.67945 0.19441 0.01395 0.0
C801 C 0.68259 0.17648 0.02176 0.0
C802 C 0.6762 0.17644 0.0411 0.0
C803 C 0.6653 0.20439 0.06363 0.0
H804 H 0.67066 0.21965 0.06401 0.0
H805 H 0.64931 0.20429 0.06623 0.0
H806 H 0.67242 0.19621 0.07568 0.0
O807 O 0.69647 0.24295 0.02233 0.0
O808 O 0.71093 0.22558 0.99883 0.0
H809 H 0.70746 0.16529 1.00643 0.0
H810 H 0.69477 0.1472 0.02099 0.0
C811 C 0.69294 0.16019 0.0115 0.0
H812 H 0.68431 0.15569 0.9986 0.0
H813 H 0.72956 0.19182 0.977 0.0
O814 O 0.65446 0.24553 0.04368 0.0
C815 C 0.71144 0.23879 0.01207 0.0
Co816 Co 0.52182 0.73536 0.87961 0.0
Co817 Co 0.49 0.7078 0.86189 0.0
C818 C 0.4797 0.73712 0.89266 0.0
O819 O 0.49726 0.74309 0.89263 0.0
O820 O 0.47452 0.7227 0.88209 0.0
C821 C 0.54534 0.74396 0.91169 0.0
O822 O 0.53528 0.72929 0.91889 0.0
C823 C 0.46346 0.67412 0.86278 0.0
C824 C 0.4598 0.66718 0.83151 0.0
C825 C 0.45471 0.66076 0.85008 0.0
N826 N 0.47329 0.68745 0.85215 0.0
N827 N 0.47083 0.68336 0.83347 0.0
C828 C 0.46436 0.67339 0.88461 0.0
H829 H 0.47664 0.68245 0.8901 0.0
H830 H 0.4662 0.65812 0.88973 0.0
H831 H 0.45056 0.67932 0.89072 0.0
C832 C 0.54411 0.69862 0.88104 0.0
N833 N 0.52697 0.70819 0.8792 0.0
N834 N 0.51375 0.6963 0.87189 0.0
C835 C 0.5221 0.67855 0.86925 0.0
C836 C 0.5416 0.67942 0.87506 0.0
C837 C 0.56334 0.70857 0.88434 0.0
H838 H 0.56302 0.72358 0.8783 0.0
H839 H 0.5663 0.70932 0.90026 0.0
H840 H 0.57553 0.70052 0.87731 0.0
O841 O 0.52119 0.74421 0.85253 0.0
O842 O 0.49724 0.72618 0.83966 0.0
H843 H 0.50712 0.66561 0.84502 0.0
H844 H 0.52171 0.64851 0.85901 0.0
C845 C 0.51209 0.66151 0.85989 0.0
H846 H 0.49915 0.65745 0.86866 0.0
H847 H 0.47716 0.69125 0.82207 0.0
O848 O 0.54229 0.74936 0.89421 0.0
C849 C 0.51039 0.73942 0.83816 0.0
Co850 Co 0.31788 0.52323 0.88145 0.0
Co851 Co 0.34339 0.49085 0.8617 0.0
C852 C 0.315 0.481 0.8937 0.0
O853 O 0.3103 0.49889 0.89466 0.0
O854 O 0.32798 0.47522 0.88165 0.0
C855 C 0.30797 0.54238 0.91542 0.0
O856 O 0.31851 0.52781 0.92213 0.0
C857 C 0.37639 0.46367 0.86176 0.0
C858 C 0.38275 0.45986 0.8304 0.0
C859 C 0.38938 0.45469 0.84887 0.0
N860 N 0.36304 0.47369 0.85136 0.0
N861 N 0.36678 0.47115 0.8326 0.0
C862 C 0.3776 0.46469 0.88357 0.0
H863 H 0.36894 0.4772 0.88917 0.0
H864 H 0.39302 0.46617 0.88837 0.0
H865 H 0.37148 0.45108 0.88988 0.0
C866 C 0.35525 0.54368 0.88328 0.0
N867 N 0.34501 0.52711 0.88057 0.0
N868 N 0.35611 0.51392 0.87206 0.0
C869 C 0.37401 0.52187 0.86914 0.0
C870 C 0.37408 0.54097 0.87627 0.0
C871 C 0.34603 0.56276 0.88884 0.0
H872 H 0.33183 0.56441 0.88122 0.0
H873 H 0.34332 0.56289 0.90481 0.0
H874 H 0.35534 0.57544 0.88503 0.0
O875 O 0.30802 0.52335 0.85449 0.0
O876 O 0.32503 0.49948 0.84018 0.0
H877 H 0.38495 0.50734 0.84368 0.0
H878 H 0.40316 0.52159 0.85658 0.0
C879 C 0.39022 0.512 0.85827 0.0
H880 H 0.39488 0.49886 0.86644 0.0
H881 H 0.35882 0.47764 0.82134 0.0
O882 O 0.30553 0.54403 0.89709 0.0
C883 C 0.31209 0.51299 0.83956 0.0
Co884 Co 0.52755 0.31717 0.88027 0.0
Co885 Co 0.55974 0.3435 0.86145 0.0
C886 C 0.56944 0.31506 0.89355 0.0
O887 O 0.55157 0.3102 0.89441 0.0
O888 O 0.57517 0.32799 0.88145 0.0
C889 C 0.50415 0.30908 0.91249 0.0
O890 O 0.51458 0.32356 0.91956 0.0
C891 C 0.58659 0.37684 0.86233 0.0
C892 C 0.5908 0.38345 0.83107 0.0
C893 C 0.59563 0.39001 0.84966 0.0
N894 N 0.57685 0.36348 0.85168 0.0
N895 N 0.57965 0.36736 0.833 0.0
C896 C 0.58531 0.37781 0.88414 0.0
H897 H 0.57291 0.36885 0.88951 0.0
H898 H 0.58344 0.39315 0.88906 0.0
H899 H 0.59898 0.37191 0.89055 0.0
C900 C 0.50596 0.35423 0.88122 0.0
N901 N 0.52282 0.34426 0.87921 0.0
N902 N 0.5362 0.3557 0.87147 0.0
C903 C 0.52816 0.37357 0.86859 0.0
C904 C 0.50876 0.37324 0.87484 0.0
C905 C 0.48659 0.34478 0.88522 0.0
H906 H 0.48637 0.32972 0.87932 0.0
H907 H 0.48412 0.34426 0.90122 0.0
H908 H 0.47439 0.35306 0.87849 0.0
O909 O 0.52842 0.30751 0.85329 0.0
O910 O 0.55182 0.32546 0.8394 0.0
H911 H 0.54342 0.38542 0.84399 0.0
H912 H 0.52868 0.40312 0.85704 0.0
C913 C 0.53828 0.39017 0.8586 0.0
H914 H 0.55113 0.39461 0.86734 0.0
H915 H 0.57343 0.35941 0.82158 0.0
O916 O 0.50684 0.30365 0.89496 0.0
C917 C 0.53872 0.31213 0.83849 0.0
Co918 Co 0.7322 0.52766 0.88105 0.0
Co919 Co 0.70638 0.56011 0.86175 0.0
C920 C 0.73514 0.56983 0.89346 0.0
O921 O 0.73992 0.55195 0.89433 0.0
O922 O 0.72198 0.57558 0.88159 0.0
C923 C 0.74268 0.50818 0.91474 0.0
O924 O 0.73235 0.52274 0.9218 0.0
C925 C 0.67363 0.58757 0.86248 0.0
C926 C 0.66672 0.59156 0.83125 0.0
C927 C 0.66056 0.59681 0.84986 0.0
N928 N 0.68661 0.57736 0.8518 0.0
N929 N 0.68254 0.57999 0.83313 0.0
C930 C 0.67282 0.58654 0.8843 0.0
H931 H 0.6812 0.57375 0.8897 0.0
H932 H 0.65746 0.58551 0.8894 0.0
H933 H 0.67949 0.59994 0.89052 0.0
C934 C 0.69486 0.50716 0.88315 0.0
N935 N 0.70505 0.52376 0.88045 0.0
N936 N 0.69385 0.53698 0.87213 0.0
C937 C 0.67593 0.52904 0.86935 0.0
C938 C 0.67595 0.50989 0.87634 0.0
C939 C 0.70416 0.48805 0.88849 0.0
H940 H 0.71825 0.48644 0.88065 0.0
H941 H 0.70712 0.48786 0.90442 0.0
H942 H 0.6948 0.47539 0.88477 0.0
O943 O 0.74175 0.52778 0.85398 0.0
O944 O 0.72452 0.55169 0.83999 0.0
H945 H 0.66465 0.54349 0.84401 0.0
H946 H 0.64656 0.52948 0.85733 0.0
C947 C 0.6596 0.53898 0.85872 0.0
H948 H 0.65523 0.55223 0.86688 0.0
H949 H 0.69019 0.57343 0.82169 0.0
O950 O 0.74477 0.5067 0.89636 0.0
C951 C 0.7375 0.53824 0.83916 0.0
Co952 Co 0.52277 0.3159 0.16898 0.0
Co953 Co 0.49159 0.34248 0.18904 0.0
C954 C 0.48044 0.31315 0.15814 0.0
O955 O 0.49804 0.30742 0.15718 0.0
O956 O 0.47563 0.32738 0.16914 0.0
C957 C 0.54242 0.30389 0.13567 0.0
O958 O 0.52898 0.31513 0.12782 0.0
C959 C 0.46619 0.37682 0.1878 0.0
C960 C 0.45905 0.38195 0.2188 0.0
C961 C 0.45598 0.38937 0.20017 0.0
N962 N 0.47476 0.36282 0.19863 0.0
N963 N 0.47033 0.36589 0.21715 0.0
C964 C 0.46921 0.37871 0.16623 0.0
H965 H 0.48224 0.37031 0.16154 0.0
H966 H 0.47093 0.39428 0.16207 0.0
H967 H 0.45631 0.37264 0.15851 0.0
C968 C 0.54373 0.3532 0.16544 0.0
N969 N 0.52704 0.34324 0.16862 0.0
N970 N 0.5149 0.35426 0.17865 0.0
C971 C 0.52383 0.37141 0.18275 0.0
C972 C 0.54251 0.37131 0.17457 0.0
C973 C 0.56107 0.34496 0.15491 0.0
H974 H 0.55649 0.34002 0.14023 0.0
H975 H 0.57278 0.35594 0.15283 0.0
H976 H 0.56688 0.33223 0.16308 0.0
O977 O 0.52347 0.3073 0.19641 0.0
O978 O 0.49976 0.32439 0.2109 0.0
H979 H 0.52779 0.39541 0.20309 0.0
H980 H 0.50496 0.39518 0.18997 0.0
C981 C 0.51609 0.38588 0.19721 0.0
H982 H 0.50901 0.37811 0.20952 0.0
H983 H 0.47529 0.35724 0.22868 0.0
O984 O 0.54313 0.30208 0.15411 0.0
C985 C 0.51338 0.31156 0.21148 0.0
Co986 Co 0.73368 0.52279 0.17041 0.0
Co987 Co 0.70571 0.49146 0.18845 0.0
C988 C 0.73625 0.47995 0.15943 0.0
O989 O 0.74219 0.49752 0.15922 0.0
O990 O 0.7213 0.47504 0.16943 0.0
C991 C 0.74662 0.54082 0.13666 0.0
O992 O 0.73715 0.52578 0.12941 0.0
C993 C 0.67347 0.46297 0.18929 0.0
C994 C 0.66149 0.46715 0.21895 0.0
C995 C 0.65835 0.45727 0.20157 0.0
N996 N 0.68491 0.47575 0.19892 0.0
N997 N 0.67783 0.47792 0.21675 0.0
C998 C 0.6757 0.45827 0.16806 0.0
H999 H 0.68287 0.47057 0.16032 0.0
H1000 H 0.6613 0.45515 0.16127 0.0
H1001 H 0.68507 0.44513 0.16654 0.0
C1002 C 0.69711 0.54438 0.16631 0.0
N1003 N 0.70659 0.52739 0.16928 0.0
N1004 N 0.69446 0.51444 0.17665 0.0
C1005 C 0.6766 0.5228 0.17812 0.0
C1006 C 0.67768 0.54212 0.17177 0.0
C1007 C 0.70743 0.56327 0.16225 0.0
H1008 H 0.72113 0.56399 0.17087 0.0
H1009 H 0.71129 0.56392 0.14652 0.0
H1010 H 0.69838 0.57616 0.16596 0.0
O1011 O 0.7415 0.52388 0.19778 0.0
O1012 O 0.72338 0.50009 0.21078 0.0
H1013 H 0.66123 0.51147 0.20281 0.0
H1014 H 0.64558 0.52161 0.18413 0.0
C1015 C 0.65909 0.51306 0.18684 0.0
H1016 H 0.65725 0.49838 0.18033 0.0
H1017 H 0.68365 0.48744 0.22714 0.0
O1018 O 0.74734 0.54298 0.15507 0.0
C1019 C 0.73632 0.51353 0.21234 0.0
Co1020 Co 0.52826 0.73159 0.16506 0.0
Co1021 Co 0.55935 0.70692 0.18747 0.0
C1022 C 0.56987 0.73267 0.15289 0.0
O1023 O 0.552 0.73663 0.15007 0.0
O1024 O 0.57507 0.72172 0.16704 0.0
C1025 C 0.50403 0.73903 0.13287 0.0
O1026 O 0.5137 0.72406 0.12573 0.0
C1027 C 0.58665 0.67431 0.18676 0.0
C1028 C 0.59129 0.66748 0.2179 0.0
C1029 C 0.59616 0.6613 0.19919 0.0
N1030 N 0.57667 0.68732 0.19761 0.0
N1031 N 0.57967 0.68331 0.21624 0.0
C1032 C 0.58506 0.67333 0.16497 0.0
H1033 H 0.57201 0.68149 0.15985 0.0
H1034 H 0.5841 0.65793 0.15999 0.0
H1035 H 0.5982 0.68014 0.15836 0.0
C1036 C 0.5062 0.69472 0.16675 0.0
N1037 N 0.52296 0.70488 0.16862 0.0
N1038 N 0.53606 0.69411 0.17767 0.0
C1039 C 0.528 0.67645 0.18153 0.0
C1040 C 0.50884 0.67624 0.17461 0.0
C1041 C 0.487 0.70372 0.16122 0.0
H1042 H 0.48647 0.71918 0.16597 0.0
H1043 H 0.48522 0.70304 0.14514 0.0
H1044 H 0.47455 0.6959 0.16803 0.0
O1045 O 0.5304 0.74388 0.19077 0.0
O1046 O 0.55112 0.72611 0.20851 0.0
H1047 H 0.54245 0.66617 0.20729 0.0
H1048 H 0.52857 0.64754 0.19458 0.0
C1049 C 0.538 0.66057 0.19275 0.0
H1050 H 0.5513 0.65598 0.18479 0.0
H1051 H 0.57334 0.69099 0.22778 0.0
O1052 O 0.50752 0.74473 0.15016 0.0
C1053 C 0.53931 0.74052 0.20676 0.0
Co1054 Co 0.31643 0.52674 0.17071 0.0
Co1055 Co 0.34351 0.55863 0.18886 0.0
C1056 C 0.31389 0.56904 0.15836 0.0
O1057 O 0.3082 0.55139 0.15814 0.0
O1058 O 0.32826 0.57426 0.16899 0.0
C1059 C 0.3078 0.50383 0.13821 0.0
O1060 O 0.32234 0.51416 0.13109 0.0
C1061 C 0.37669 0.58569 0.18837 0.0
C1062 C 0.38359 0.58903 0.21968 0.0
C1063 C 0.38989 0.59449 0.20118 0.0
N1064 N 0.36356 0.57549 0.19886 0.0
N1065 N 0.36761 0.57775 0.21758 0.0
C1066 C 0.37743 0.58509 0.16652 0.0
H1067 H 0.36862 0.5727 0.16088 0.0
H1068 H 0.39274 0.58363 0.16138 0.0
H1069 H 0.37121 0.59883 0.1606 0.0
C1070 C 0.35356 0.5051 0.1687 0.0
N1071 N 0.34371 0.52204 0.17081 0.0
N1072 N 0.35539 0.53531 0.17837 0.0
C1073 C 0.37326 0.5272 0.18096 0.0
C1074 C 0.3727 0.50779 0.17483 0.0
C1075 C 0.3439 0.48579 0.16498 0.0
H1076 H 0.32893 0.48573 0.17113 0.0
H1077 H 0.34305 0.48325 0.14901 0.0
H1078 H 0.35221 0.47357 0.17162 0.0
O1079 O 0.30777 0.52662 0.19789 0.0
O1080 O 0.32558 0.55052 0.2111 0.0
H1081 H 0.38574 0.54187 0.2056 0.0
H1082 H 0.40318 0.52778 0.19153 0.0
C1083 C 0.39007 0.53725 0.19069 0.0
H1084 H 0.39405 0.55039 0.1822 0.0
H1085 H 0.35983 0.57112 0.22888 0.0
O1086 O 0.30259 0.5064 0.15582 0.0
C1087 C 0.31259 0.53711 0.21248 0.0
Co1088 Co 0.87973 0.52427 0.7327 0.0
Co1089 Co 0.86077 0.49129 0.70726 0.0
C1090 C 0.8924 0.4822 0.73625 0.0
O1091 O 0.89293 0.50015 0.74077 0.0
O1092 O 0.88076 0.47608 0.72306 0.0
C1093 C 0.91348 0.54359 0.74277 0.0
O1094 O 0.92026 0.52906 0.73222 0.0
C1095 C 0.86152 0.46422 0.67415 0.0
C1096 C 0.83024 0.45956 0.66791 0.0
C1097 C 0.84882 0.45497 0.66113 0.0
N1098 N 0.85089 0.47384 0.68761 0.0
N1099 N 0.8322 0.47078 0.68395 0.0
C1100 C 0.88331 0.46581 0.67292 0.0
H1101 H 0.88862 0.47821 0.6819 0.0
H1102 H 0.88801 0.46784 0.65755 0.0
H1103 H 0.88998 0.4522 0.67866 0.0
C1104 C 0.88195 0.54426 0.69518 0.0
N1105 N 0.87924 0.52777 0.70554 0.0
N1106 N 0.87095 0.51442 0.69449 0.0
C1107 C 0.8681 0.52219 0.67651 0.0
C1108 C 0.87512 0.54133 0.67633 0.0
C1109 C 0.88729 0.56346 0.70426 0.0
H1110 H 0.87946 0.56524 0.71833 0.0
H1111 H 0.90323 0.56369 0.7072 0.0
H1112 H 0.88358 0.57602 0.69475 0.0
O1113 O 0.85264 0.52416 0.74216 0.0
O1114 O 0.83895 0.49975 0.72537 0.0
H1115 H 0.84294 0.50701 0.66572 0.0
H1116 H 0.85515 0.52186 0.64753 0.0
C1117 C 0.85731 0.51219 0.66033 0.0
H1118 H 0.86584 0.49938 0.6554 0.0
H1119 H 0.82078 0.47689 0.692 0.0
O1120 O 0.89514 0.54524 0.7451 0.0
C1121 C 0.83796 0.51343 0.7381 0.0
Co1122 Co 0.52761 0.88303 0.73205 0.0
Co1123 Co 0.55918 0.8615 0.70695 0.0
C1124 C 0.56994 0.89407 0.73482 0.0
O1125 O 0.55212 0.89571 0.73958 0.0
O1126 O 0.57525 0.88156 0.72207 0.0
C1127 C 0.50929 0.91685 0.74489 0.0
O1128 O 0.52482 0.92421 0.73636 0.0
C1129 C 0.58426 0.86156 0.67244 0.0
C1130 C 0.59165 0.83045 0.66846 0.0
C1131 C 0.59437 0.84879 0.66021 0.0
N1132 N 0.57608 0.85125 0.68703 0.0
N1133 N 0.58067 0.83266 0.68466 0.0
C1134 C 0.58092 0.883 0.66969 0.0
H1135 H 0.56817 0.88797 0.67835 0.0
H1136 H 0.57857 0.88642 0.65402 0.0
H1137 H 0.59394 0.89112 0.67491 0.0
C1138 C 0.50741 0.8855 0.69462 0.0
N1139 N 0.5239 0.88231 0.70485 0.0
N1140 N 0.53595 0.87157 0.69445 0.0
C1141 C 0.527 0.86684 0.67744 0.0
C1142 C 0.50849 0.87545 0.67701 0.0
C1143 C 0.49043 0.89703 0.7022 0.0
H1144 H 0.49573 0.91109 0.70817 0.0
H1145 H 0.47967 0.90029 0.69054 0.0
H1146 H 0.48319 0.8888 0.71414 0.0
O1147 O 0.52712 0.85582 0.74195 0.0
O1148 O 0.55058 0.84037 0.72537 0.0
H1149 H 0.5226 0.84508 0.65484 0.0
H1150 H 0.54536 0.85828 0.65373 0.0
C1151 C 0.53451 0.85156 0.66371 0.0
H1152 H 0.54185 0.83976 0.67204 0.0
H1153 H 0.57595 0.82144 0.69383 0.0
O1154 O 0.50671 0.89847 0.74464 0.0
C1155 C 0.53702 0.84045 0.73824 0.0
Co1156 Co 0.16966 0.52665 0.73312 0.0
Co1157 Co 0.18864 0.55904 0.70705 0.0
C1158 C 0.15594 0.56838 0.73487 0.0
O1159 O 0.15512 0.55051 0.73971 0.0
O1160 O 0.16827 0.57425 0.72221 0.0
C1161 C 0.13749 0.50304 0.74083 0.0
O1162 O 0.13058 0.51335 0.7262 0.0
C1163 C 0.18779 0.5861 0.67392 0.0
C1164 C 0.21905 0.59049 0.66736 0.0
C1165 C 0.20044 0.59534 0.66087 0.0
N1166 N 0.19847 0.57625 0.68718 0.0
N1167 N 0.21715 0.57913 0.68332 0.0
C1168 C 0.16598 0.58473 0.67288 0.0
H1169 H 0.16067 0.57206 0.68148 0.0
H1170 H 0.16109 0.58328 0.65749 0.0
H1171 H 0.15949 0.59819 0.67916 0.0
C1172 C 0.16956 0.50506 0.69609 0.0
N1173 N 0.17127 0.52193 0.70608 0.0
N1174 N 0.17902 0.53539 0.69475 0.0
C1175 C 0.18218 0.52741 0.67691 0.0
C1176 C 0.17614 0.50795 0.67716 0.0
C1177 C 0.16564 0.48567 0.7055 0.0
H1178 H 0.17126 0.48555 0.72067 0.0
H1179 H 0.14965 0.48301 0.70575 0.0
H1180 H 0.17268 0.47354 0.69738 0.0
O1181 O 0.19645 0.52794 0.74327 0.0
O1182 O 0.21045 0.55145 0.72555 0.0
H1183 H 0.2068 0.54273 0.6652 0.0
H1184 H 0.19368 0.52824 0.64735 0.0
C1185 C 0.19216 0.5377 0.66041 0.0
H1186 H 0.18345 0.55062 0.65615 0.0
H1187 H 0.22859 0.57286 0.69121 0.0
O1188 O 0.15495 0.50584 0.74648 0.0
C1189 C 0.21122 0.53842 0.73894 0.0
Co1190 Co 0.52379 0.1707 0.73502 0.0
Co1191 Co 0.4926 0.18819 0.70658 0.0
C1192 C 0.48117 0.15889 0.73683 0.0
O1193 O 0.49872 0.15874 0.74285 0.0
O1194 O 0.47626 0.16907 0.72203 0.0
C1195 C 0.54591 0.13798 0.74378 0.0
O1196 O 0.53558 0.13137 0.72901 0.0
C1197 C 0.46428 0.18805 0.67427 0.0
C1198 C 0.46785 0.21758 0.6618 0.0
C1199 C 0.45832 0.19995 0.65895 0.0
N1200 N 0.47685 0.19813 0.68555 0.0
N1201 N 0.47867 0.21588 0.67817 0.0
C1202 C 0.46007 0.16676 0.67683 0.0
H1203 H 0.47262 0.15939 0.684 0.0
H1204 H 0.457 0.15968 0.66257 0.0
H1205 H 0.44705 0.16507 0.68634 0.0
C1206 C 0.54628 0.16769 0.69859 0.0
N1207 N 0.52911 0.17011 0.70796 0.0
N1208 N 0.51595 0.17676 0.69564 0.0
C1209 C 0.52429 0.17808 0.67775 0.0
C1210 C 0.54382 0.17244 0.67903 0.0
C1211 C 0.56546 0.16502 0.70884 0.0
H1212 H 0.56481 0.17127 0.72376 0.0
H1213 H 0.5688 0.1492 0.70986 0.0
H1214 H 0.57754 0.17224 0.70081 0.0
O1215 O 0.52407 0.19798 0.74307 0.0
O1216 O 0.50065 0.21077 0.72429 0.0
H1217 H 0.51221 0.2018 0.66146 0.0
H1218 H 0.5228 0.18279 0.64653 0.0
C1219 C 0.51423 0.18581 0.65996 0.0
H1220 H 0.49973 0.17883 0.65845 0.0
H1221 H 0.48797 0.22656 0.68381 0.0
O1222 O 0.54359 0.15552 0.74935 0.0
C1223 C 0.51373 0.21244 0.7376 0.0
Co1224 Co 0.87916 0.52743 0.31559 0.0
Co1225 Co 0.86118 0.5596 0.34247 0.0
C1226 C 0.89185 0.56948 0.31273 0.0
O1227 O 0.8919 0.55182 0.30709 0.0
O1228 O 0.8813 0.57485 0.3271 0.0
C1229 C 0.91161 0.50506 0.30637 0.0
O1230 O 0.91902 0.51644 0.31994 0.0
C1231 C 0.86266 0.58565 0.37637 0.0
C1232 C 0.83153 0.59169 0.38221 0.0
C1233 C 0.85021 0.59536 0.38925 0.0
N1234 N 0.85181 0.5767 0.36263 0.0
N1235 N 0.83322 0.58053 0.36609 0.0
C1236 C 0.88434 0.5832 0.37786 0.0
H1237 H 0.88925 0.57047 0.36911 0.0
H1238 H 0.88881 0.58124 0.39332 0.0
H1239 H 0.89162 0.59643 0.37197 0.0
C1240 C 0.88162 0.50619 0.35289 0.0
N1241 N 0.87939 0.52303 0.3429 0.0
N1242 N 0.87129 0.53619 0.35435 0.0
C1243 C 0.86808 0.52797 0.37205 0.0
C1244 C 0.87482 0.50881 0.37177 0.0
C1245 C 0.88657 0.48697 0.34365 0.0
H1246 H 0.90258 0.48617 0.34132 0.0
H1247 H 0.88228 0.47446 0.35301 0.0
H1248 H 0.87915 0.48563 0.32932 0.0
O1249 O 0.85179 0.5276 0.30715 0.0
O1250 O 0.8388 0.55183 0.32468 0.0
H1251 H 0.84228 0.54307 0.38137 0.0
H1252 H 0.85197 0.52619 0.39925 0.0
C1253 C 0.85585 0.53697 0.38778 0.0
H1254 H 0.86413 0.54902 0.39472 0.0
H1255 H 0.82166 0.57511 0.35775 0.0
O1256 O 0.89368 0.50675 0.30189 0.0
C1257 C 0.8373 0.53832 0.31183 0.0
Co1258 Co 0.52119 0.88301 0.31759 0.0
Co1259 Co 0.49041 0.86076 0.34276 0.0
C1260 C 0.47971 0.89571 0.31754 0.0
O1261 O 0.49753 0.89834 0.31325 0.0
O1262 O 0.47454 0.88151 0.32845 0.0
C1263 C 0.54536 0.91507 0.30978 0.0
O1264 O 0.53588 0.92225 0.32484 0.0
C1265 C 0.4638 0.86092 0.376 0.0
C1266 C 0.45962 0.82964 0.38251 0.0
C1267 C 0.45475 0.84821 0.38908 0.0
N1268 N 0.47353 0.85035 0.36259 0.0
N1269 N 0.4708 0.83164 0.36642 0.0
C1270 C 0.46522 0.88271 0.37725 0.0
H1271 H 0.47801 0.88806 0.36885 0.0
H1272 H 0.46651 0.88748 0.39269 0.0
H1273 H 0.45186 0.8893 0.37086 0.0
C1274 C 0.54396 0.88101 0.35406 0.0
N1275 N 0.52703 0.87917 0.34416 0.0
N1276 N 0.51406 0.87022 0.35517 0.0
C1277 C 0.5224 0.86636 0.37271 0.0
C1278 C 0.54159 0.87322 0.37261 0.0
C1279 C 0.563 0.88665 0.34482 0.0
H1280 H 0.56334 0.88192 0.32935 0.0
H1281 H 0.56469 0.90275 0.34548 0.0
H1282 H 0.57559 0.87991 0.35248 0.0
O1283 O 0.51834 0.85754 0.30494 0.0
O1284 O 0.49801 0.83985 0.32322 0.0
H1285 H 0.50786 0.84081 0.38336 0.0
H1286 H 0.52225 0.85341 0.40167 0.0
C1287 C 0.51259 0.85531 0.38882 0.0
H1288 H 0.49949 0.86345 0.39365 0.0
H1289 H 0.47705 0.82026 0.35843 0.0
O1290 O 0.5418 0.89777 0.30415 0.0
C1291 C 0.50934 0.84165 0.30845 0.0
Co1292 Co 0.17117 0.52246 0.31635 0.0
Co1293 Co 0.18867 0.49044 0.34373 0.0
C1294 C 0.15842 0.48029 0.31381 0.0
O1295 O 0.15853 0.49792 0.30809 0.0
O1296 O 0.16876 0.47494 0.32835 0.0
C1297 C 0.13883 0.54537 0.3078 0.0
O1298 O 0.13182 0.53495 0.32232 0.0
C1299 C 0.18773 0.46332 0.37693 0.0
C1300 C 0.21895 0.46018 0.38436 0.0
C1301 C 0.20038 0.45459 0.39033 0.0
N1302 N 0.19838 0.4736 0.36398 0.0
N1303 N 0.21704 0.47146 0.36836 0.0
C1304 C 0.16586 0.46379 0.37735 0.0
H1305 H 0.16028 0.47626 0.36862 0.0
H1306 H 0.16048 0.465 0.39259 0.0
H1307 H 0.16012 0.4501 0.37086 0.0
C1308 C 0.16904 0.54424 0.35327 0.0
N1309 N 0.17105 0.52722 0.34356 0.0
N1310 N 0.17825 0.5139 0.35541 0.0
C1311 C 0.18065 0.52207 0.37328 0.0
C1312 C 0.1748 0.54157 0.37252 0.0
C1313 C 0.16588 0.56355 0.34341 0.0
H1314 H 0.17211 0.56334 0.32849 0.0
H1315 H 0.14997 0.56651 0.34247 0.0
H1316 H 0.1728 0.57567 0.35164 0.0
O1317 O 0.19839 0.52235 0.30796 0.0
O1318 O 0.21115 0.49829 0.3259 0.0
H1319 H 0.20497 0.50739 0.38636 0.0
H1320 H 0.19039 0.5214 0.40345 0.0
C1321 C 0.18993 0.51197 0.3903 0.0
H1322 H 0.18137 0.49878 0.39398 0.0
H1323 H 0.22844 0.47817 0.36079 0.0
O1324 O 0.15641 0.54283 0.30245 0.0
C1325 C 0.2128 0.51168 0.31292 0.0
Co1326 Co 0.52785 0.16915 0.31794 0.0
Co1327 Co 0.56033 0.18846 0.3436 0.0
C1328 C 0.56978 0.15612 0.31531 0.0
O1329 O 0.55184 0.15507 0.31075 0.0
O1330 O 0.57562 0.16841 0.32803 0.0
C1331 C 0.5043 0.13686 0.30985 0.0
O1332 O 0.51474 0.12958 0.32423 0.0
C1333 C 0.58769 0.18771 0.37651 0.0
C1334 C 0.59174 0.21896 0.38327 0.0
C1335 C 0.59681 0.20036 0.38963 0.0
N1336 N 0.57769 0.19836 0.36334 0.0
N1337 N 0.58038 0.21704 0.36731 0.0
C1338 C 0.58655 0.16589 0.37743 0.0
H1339 H 0.57393 0.16049 0.36879 0.0
H1340 H 0.58514 0.1609 0.39279 0.0
H1341 H 0.60008 0.15957 0.37113 0.0
C1342 C 0.50694 0.16806 0.35544 0.0
N1343 N 0.52354 0.17035 0.34509 0.0
N1344 N 0.53702 0.17838 0.35622 0.0
C1345 C 0.52931 0.18122 0.37424 0.0
C1346 C 0.51005 0.1746 0.37435 0.0
C1347 C 0.48747 0.16351 0.34649 0.0
H1348 H 0.48672 0.16936 0.33142 0.0
H1349 H 0.48543 0.14745 0.34605 0.0
H1350 H 0.4753 0.16992 0.35506 0.0
O1351 O 0.52854 0.19605 0.30807 0.0
O1352 O 0.55215 0.21034 0.32542 0.0
H1353 H 0.5446 0.20604 0.38559 0.0
H1354 H 0.53017 0.19314 0.40363 0.0
C1355 C 0.53961 0.19146 0.39058 0.0
H1356 H 0.55256 0.18284 0.39495 0.0
H1357 H 0.57395 0.22846 0.35952 0.0
O1358 O 0.50701 0.15445 0.30463 0.0
C1359 C 0.53884 0.21097 0.31229 0.0
Co1360 Co 0.73203 0.8805 0.52306 0.0
Co1361 Co 0.70672 0.86076 0.49066 0.0
C1362 C 0.73463 0.89342 0.48116 0.0
O1363 O 0.73913 0.89459 0.4991 0.0
O1364 O 0.72209 0.88094 0.47532 0.0
C1365 C 0.74009 0.91294 0.54638 0.0
O1366 O 0.72582 0.92025 0.53583 0.0
C1367 C 0.67383 0.86084 0.46332 0.0
C1368 C 0.66792 0.82943 0.45908 0.0
C1369 C 0.66108 0.84788 0.4541 0.0
N1370 N 0.68725 0.85048 0.4733 0.0
N1371 N 0.68379 0.83171 0.47051 0.0
C1372 C 0.67237 0.88262 0.46454 0.0
H1373 H 0.68094 0.88819 0.47713 0.0
H1374 H 0.6569 0.88723 0.46604 0.0
H1375 H 0.67846 0.88913 0.45101 0.0
C1376 C 0.69453 0.88121 0.54391 0.0
N1377 N 0.70489 0.87905 0.52731 0.0
N1378 N 0.6939 0.87075 0.51388 0.0
C1379 C 0.67596 0.86755 0.52164 0.0
C1380 C 0.67575 0.87424 0.54087 0.0
C1381 C 0.70346 0.88602 0.56332 0.0
H1382 H 0.71855 0.88021 0.56414 0.0
H1383 H 0.7039 0.90211 0.56514 0.0
H1384 H 0.69492 0.87976 0.57558 0.0
O1385 O 0.74217 0.85372 0.52256 0.0
O1386 O 0.72504 0.83913 0.49899 0.0
H1387 H 0.66522 0.84239 0.50647 0.0
H1388 H 0.64689 0.85485 0.52095 0.0
C1389 C 0.65985 0.85684 0.51145 0.0
H1390 H 0.6552 0.8653 0.49849 0.0
H1391 H 0.69186 0.82048 0.4769 0.0
O1392 O 0.74519 0.8953 0.54384 0.0
C1393 C 0.73812 0.8387 0.51236 0.0
Co1394 Co 0.73423 0.17023 0.52791 0.0
Co1395 Co 0.70824 0.18928 0.56022 0.0
C1396 C 0.73662 0.1571 0.5698 0.0
O1397 O 0.74131 0.15612 0.5519 0.0
O1398 O 0.7238 0.1693 0.57559 0.0
C1399 C 0.74194 0.13794 0.50454 0.0
O1400 O 0.72743 0.13102 0.51502 0.0
C1401 C 0.67546 0.18822 0.58765 0.0
C1402 C 0.66805 0.21937 0.59134 0.0
C1403 C 0.66212 0.20071 0.59666 0.0
N1404 N 0.68836 0.19901 0.57747 0.0
N1405 N 0.68401 0.21764 0.57994 0.0
C1406 C 0.67489 0.16638 0.58673 0.0
H1407 H 0.6834 0.16101 0.57401 0.0
H1408 H 0.65959 0.16111 0.58564 0.0
H1409 H 0.68154 0.16031 0.6002 0.0
C1410 C 0.69704 0.16951 0.50655 0.0
N1411 N 0.70713 0.17144 0.52335 0.0
N1412 N 0.69581 0.1792 0.53682 0.0
C1413 C 0.67787 0.18211 0.52892 0.0
C1414 C 0.67805 0.17592 0.5095 0.0
C1415 C 0.70638 0.16559 0.48713 0.0
H1416 H 0.72151 0.17134 0.48689 0.0
H1417 H 0.70675 0.1496 0.48451 0.0
H1418 H 0.69813 0.17251 0.47502 0.0
O1419 O 0.74403 0.19712 0.52867 0.0
O1420 O 0.72637 0.21127 0.55215 0.0
H1421 H 0.66592 0.20683 0.54387 0.0
H1422 H 0.64812 0.19308 0.52992 0.0
C1423 C 0.66133 0.19201 0.53923 0.0
H1424 H 0.65742 0.18352 0.55241 0.0
H1425 H 0.69153 0.22914 0.57334 0.0
O1426 O 0.74754 0.15543 0.50718 0.0
C1427 C 0.73962 0.212 0.53895 0.0
Co1428 Co 0.8809 0.73269 0.52727 0.0
Co1429 Co 0.86144 0.707 0.55951 0.0
C1430 C 0.89394 0.73501 0.56915 0.0
O1431 O 0.89506 0.73967 0.55125 0.0
O1432 O 0.88154 0.72236 0.5749 0.0
C1433 C 0.91313 0.74089 0.50375 0.0
O1434 O 0.92048 0.72648 0.51409 0.0
C1435 C 0.86188 0.67394 0.58658 0.0
C1436 C 0.83053 0.6677 0.59082 0.0
C1437 C 0.84906 0.66098 0.5957 0.0
N1438 N 0.85137 0.68734 0.57675 0.0
N1439 N 0.83263 0.68369 0.57955 0.0
C1440 C 0.88368 0.67271 0.5853 0.0
H1441 H 0.88914 0.68151 0.57283 0.0
H1442 H 0.88843 0.65731 0.58354 0.0
H1443 H 0.89017 0.67865 0.59891 0.0
C1444 C 0.88161 0.69541 0.50604 0.0
N1445 N 0.87957 0.70559 0.52277 0.0
N1446 N 0.87148 0.69442 0.53617 0.0
C1447 C 0.86837 0.67653 0.52829 0.0
C1448 C 0.87484 0.67654 0.50898 0.0
C1449 C 0.88601 0.70459 0.48665 0.0
H1450 H 0.8802 0.71969 0.48614 0.0
H1451 H 0.90206 0.70503 0.48448 0.0
H1452 H 0.87946 0.69622 0.47442 0.0
O1453 O 0.85406 0.74265 0.52792 0.0
O1454 O 0.83963 0.72522 0.55136 0.0
H1455 H 0.8434 0.66533 0.54346 0.0
H1456 H 0.85619 0.64723 0.52897 0.0
C1457 C 0.85795 0.66022 0.53847 0.0
H1458 H 0.86651 0.6557 0.5514 0.0
H1459 H 0.8213 0.69171 0.57326 0.0
O1460 O 0.89554 0.74606 0.50653 0.0
C1461 C 0.83908 0.7384 0.53811 0.0
Co1462 Co 0.31729 0.88125 0.52701 0.0
Co1463 Co 0.34394 0.86219 0.55886 0.0
C1464 C 0.31595 0.89439 0.5691 0.0
O1465 O 0.31095 0.89525 0.55127 0.0
O1466 O 0.32879 0.88214 0.57482 0.0
C1467 C 0.30965 0.91368 0.50379 0.0
O1468 O 0.32451 0.92035 0.51396 0.0
C1469 C 0.3762 0.86107 0.58731 0.0
C1470 C 0.38706 0.83086 0.58413 0.0
C1471 C 0.39092 0.84846 0.59334 0.0
N1472 N 0.3643 0.85141 0.57498 0.0
N1473 N 0.3707 0.83326 0.57342 0.0
C1474 C 0.37485 0.88254 0.59114 0.0
H1475 H 0.36754 0.89002 0.57875 0.0
H1476 H 0.38958 0.88892 0.5935 0.0
H1477 H 0.36601 0.88495 0.60451 0.0
C1478 C 0.35407 0.88199 0.50503 0.0
N1479 N 0.34425 0.87997 0.52196 0.0
N1480 N 0.35593 0.87271 0.5354 0.0
C1481 C 0.37391 0.87049 0.52739 0.0
C1482 C 0.37331 0.8763 0.50788 0.0
C1483 C 0.34439 0.88539 0.48567 0.0
H1484 H 0.32921 0.8798 0.48588 0.0
H1485 H 0.34415 0.90129 0.48255 0.0
H1486 H 0.35239 0.878 0.47367 0.0
O1487 O 0.30733 0.85447 0.52769 0.0
O1488 O 0.3255 0.8404 0.5508 0.0
H1489 H 0.38862 0.84606 0.54006 0.0
H1490 H 0.40479 0.86391 0.52928 0.0
C1491 C 0.39112 0.86189 0.53775 0.0
H1492 H 0.39291 0.86904 0.55213 0.0
H1493 H 0.36445 0.82276 0.5643 0.0
O1494 O 0.30377 0.89632 0.5066 0.0
C1495 C 0.312 0.83962 0.53787 0.0
Co1496 Co 0.17207 0.31562 0.52753 0.0
Co1497 Co 0.19043 0.34193 0.56007 0.0
C1498 C 0.15893 0.31294 0.56951 0.0
O1499 O 0.15833 0.30821 0.5516 0.0
O1500 O 0.1706 0.3262 0.57541 0.0
C1501 C 0.1398 0.3075 0.50416 0.0
O1502 O 0.13272 0.32196 0.51461 0.0
C1503 C 0.18938 0.37485 0.58736 0.0
C1504 C 0.22058 0.38213 0.59104 0.0
C1505 C 0.20193 0.38818 0.59632 0.0
N1506 N 0.20013 0.36186 0.57725 0.0
N1507 N 0.21879 0.36614 0.57972 0.0
C1508 C 0.16753 0.37542 0.58646 0.0
H1509 H 0.16214 0.36669 0.57391 0.0
H1510 H 0.16226 0.39069 0.58511 0.0
H1511 H 0.16147 0.369 0.60005 0.0
C1512 C 0.17074 0.35283 0.50629 0.0
N1513 N 0.17281 0.34275 0.52308 0.0
N1514 N 0.18028 0.3542 0.53661 0.0
C1515 C 0.18286 0.37219 0.52876 0.0
C1516 C 0.17676 0.37193 0.50932 0.0
C1517 C 0.16707 0.34345 0.48684 0.0
H1518 H 0.17303 0.32841 0.48663 0.0
H1519 H 0.1511 0.34288 0.48413 0.0
H1520 H 0.17396 0.35181 0.47479 0.0
O1521 O 0.1991 0.30624 0.52833 0.0
O1522 O 0.21257 0.32393 0.55218 0.0
H1523 H 0.20723 0.38457 0.54397 0.0
H1524 H 0.19334 0.40212 0.52982 0.0
C1525 C 0.19238 0.38891 0.53914 0.0
H1526 H 0.18367 0.39273 0.55219 0.0
H1527 H 0.23026 0.35854 0.57316 0.0
O1528 O 0.15735 0.3021 0.50681 0.0
C1529 C 0.21371 0.31078 0.53893 0.0
Co1530 Co 0.31734 0.16703 0.52355 0.0
Co1531 Co 0.34418 0.1867 0.49229 0.0
C1532 C 0.31449 0.15574 0.48147 0.0
O1533 O 0.30875 0.15474 0.49907 0.0
O1534 O 0.32871 0.16679 0.47663 0.0
C1535 C 0.28645 0.14769 0.54326 0.0
O1536 O 0.27674 0.15208 0.52729 0.0
C1537 C 0.37918 0.1859 0.46752 0.0
C1538 C 0.38326 0.21695 0.45991 0.0
C1539 C 0.39149 0.19858 0.45738 0.0
N1540 N 0.36455 0.19632 0.47554 0.0
N1541 N 0.36701 0.21487 0.47082 0.0
C1542 C 0.38181 0.16447 0.47093 0.0
H1543 H 0.3731 0.1596 0.48368 0.0
H1544 H 0.39747 0.16097 0.47331 0.0
H1545 H 0.37657 0.15633 0.45793 0.0
C1546 C 0.35433 0.16227 0.54405 0.0
N1547 N 0.34456 0.16614 0.52745 0.0
N1548 N 0.35576 0.17632 0.51566 0.0
C1549 C 0.37286 0.18005 0.52486 0.0
C1550 C 0.37253 0.1713 0.54331 0.0
C1551 C 0.34574 0.1511 0.56078 0.0
H1552 H 0.33731 0.13845 0.55514 0.0
H1553 H 0.35728 0.14568 0.57079 0.0
H1554 H 0.33557 0.16069 0.56898 0.0
O1555 O 0.30903 0.19459 0.52384 0.0
O1556 O 0.32638 0.20874 0.50018 0.0
H1557 H 0.38002 0.20644 0.50949 0.0
H1558 H 0.3959 0.20121 0.5298 0.0
C1559 C 0.38749 0.19462 0.51763 0.0
H1560 H 0.39783 0.1872 0.5076 0.0
H1561 H 0.35782 0.22615 0.47537 0.0
O1562 O 0.30407 0.1532 0.54497 0.0
C1563 C 0.31348 0.20954 0.51367 0.0
Co1564 Co 0.88157 0.31933 0.5235 0.0
Co1565 Co 0.86157 0.3444 0.49089 0.0
C1566 C 0.8935 0.31561 0.48134 0.0
O1567 O 0.89476 0.31137 0.49932 0.0
O1568 O 0.88123 0.32832 0.47544 0.0
C1569 C 0.91555 0.31028 0.54269 0.0
O1570 O 0.92186 0.32143 0.52841 0.0
C1571 C 0.86186 0.37749 0.46353 0.0
C1572 C 0.83048 0.38332 0.45898 0.0
C1573 C 0.84896 0.39023 0.45428 0.0
N1574 N 0.85148 0.3641 0.47354 0.0
N1575 N 0.83271 0.36757 0.47059 0.0
C1576 C 0.88373 0.37775 0.46279 0.0
H1577 H 0.88973 0.36303 0.46576 0.0
H1578 H 0.88941 0.38776 0.47419 0.0
H1579 H 0.88889 0.38293 0.44832 0.0
C1580 C 0.88333 0.35687 0.54354 0.0
N1581 N 0.88076 0.34649 0.52702 0.0
N1582 N 0.87206 0.35737 0.51378 0.0
C1583 C 0.86881 0.37525 0.52166 0.0
C1584 C 0.876 0.37555 0.54074 0.0
C1585 C 0.88891 0.34784 0.5627 0.0
H1586 H 0.88146 0.33356 0.5644 0.0
H1587 H 0.90492 0.34535 0.56295 0.0
H1588 H 0.88491 0.35717 0.57531 0.0
O1589 O 0.85457 0.30959 0.52381 0.0
O1590 O 0.83991 0.32637 0.49996 0.0
H1591 H 0.84282 0.38531 0.50741 0.0
H1592 H 0.85526 0.40395 0.52151 0.0
C1593 C 0.85729 0.39108 0.51191 0.0
H1594 H 0.86513 0.396 0.49867 0.0
H1595 H 0.82143 0.35944 0.47683 0.0
O1596 O 0.89732 0.30716 0.54427 0.0
C1597 C 0.83948 0.31358 0.51362 0.0
Co1598 Co 0.17031 0.73306 0.52274 0.0
Co1599 Co 0.18941 0.70706 0.49047 0.0
C1600 C 0.15698 0.73522 0.48093 0.0
O1601 O 0.15599 0.73998 0.49882 0.0
O1602 O 0.16928 0.72248 0.47517 0.0
C1603 C 0.13819 0.74126 0.54634 0.0
O1604 O 0.13089 0.72685 0.53596 0.0
C1605 C 0.1883 0.67419 0.46318 0.0
C1606 C 0.21948 0.66716 0.45895 0.0
C1607 C 0.2008 0.66102 0.45393 0.0
N1608 N 0.19912 0.6872 0.4732 0.0
N1609 N 0.21776 0.68306 0.47042 0.0
C1610 C 0.16647 0.67344 0.46442 0.0
H1611 H 0.16121 0.68194 0.47719 0.0
H1612 H 0.16135 0.65811 0.46563 0.0
H1613 H 0.16014 0.68001 0.45103 0.0
C1614 C 0.16962 0.69587 0.54415 0.0
N1615 N 0.1716 0.70597 0.52737 0.0
N1616 N 0.17946 0.69467 0.51394 0.0
C1617 C 0.18244 0.67677 0.52185 0.0
C1618 C 0.17616 0.67692 0.54123 0.0
C1619 C 0.16546 0.70517 0.56355 0.0
H1620 H 0.17129 0.72026 0.5639 0.0
H1621 H 0.14943 0.70564 0.56591 0.0
H1622 H 0.17215 0.69686 0.57574 0.0
O1623 O 0.19719 0.74295 0.52178 0.0
O1624 O 0.21137 0.72526 0.49836 0.0
H1625 H 0.20722 0.66508 0.50676 0.0
H1626 H 0.19387 0.64719 0.52098 0.0
C1627 C 0.19251 0.6603 0.51159 0.0
H1628 H 0.18395 0.65615 0.49852 0.0
H1629 H 0.22928 0.69072 0.47682 0.0
O1630 O 0.15576 0.7465 0.54354 0.0
C1631 C 0.21207 0.73857 0.51149 0.0
H1632 H 0.14238 0.26991 0.4912 0.0
H1633 H 0.05984 0.27945 0.41042 0.0
H1634 H 0.10935 0.3231 0.48385 0.0
H1635 H 0.06755 0.22643 0.44362 0.0
H1636 H 0.08376 0.29572 0.43164 0.0
H1637 H 0.12054 0.25363 0.46785 0.0
C1638 C 0.13064 0.27817 0.48453 0.0
C1639 C 0.1275 0.29779 0.48948 0.0
C1640 C 0.08022 0.2805 0.43416 0.0
C1641 C 0.10291 0.27948 0.46275 0.0
C1642 C 0.0667 0.27122 0.42208 0.0
C1643 C 0.0617 0.25166 0.42544 0.0
C1644 C 0.08909 0.26995 0.44932 0.0
C1645 C 0.07092 0.24161 0.44072 0.0
C1646 C 0.1182 0.26889 0.47134 0.0
C1647 C 0.11209 0.30789 0.48052 0.0
N1648 N 0.0843 0.25085 0.45208 0.0
N1649 N 0.10038 0.29863 0.46746 0.0
H1650 H 0.72609 0.10746 0.48449 0.0
H1651 H 0.82555 0.06718 0.4437 0.0
H1652 H 0.77945 0.14034 0.49135 0.0
H1653 H 0.77198 0.05974 0.41127 0.0
H1654 H 0.80894 0.09082 0.4649 0.0
H1655 H 0.74268 0.08625 0.46085 0.0
C1656 C 0.74129 0.11019 0.48099 0.0
C1657 C 0.75149 0.12558 0.48983 0.0
C1658 C 0.80092 0.08407 0.45305 0.0
C1659 C 0.77046 0.10136 0.46324 0.0
C1660 C 0.8103 0.07055 0.44107 0.0
C1661 C 0.80005 0.06155 0.42581 0.0
C1662 C 0.78107 0.08814 0.45002 0.0
C1663 C 0.78037 0.06646 0.42287 0.0
C1664 C 0.75066 0.09819 0.46748 0.0
C1665 C 0.7711 0.12863 0.48475 0.0
N1666 N 0.7714 0.07928 0.43507 0.0
N1667 N 0.78007 0.11643 0.47194 0.0
H1668 H 0.9097 0.77847 0.49112 0.0
H1669 H 0.99115 0.77119 0.40924 0.0
H1670 H 0.94381 0.72604 0.48318 0.0
H1671 H 0.98305 0.82377 0.44304 0.0
H1672 H 0.96793 0.75429 0.4307 0.0
H1673 H 0.93092 0.79533 0.46766 0.0
C1674 C 0.92155 0.77049 0.48431 0.0
C1675 C 0.92517 0.75091 0.4891 0.0
C1676 C 0.97123 0.76955 0.4333 0.0
C1677 C 0.94906 0.76991 0.46225 0.0
C1678 C 0.98434 0.77919 0.42107 0.0
C1679 C 0.98903 0.79882 0.42453 0.0
C1680 C 0.96245 0.7798 0.4487 0.0
C1681 C 0.97991 0.80856 0.44005 0.0
C1682 C 0.93364 0.78012 0.47106 0.0
C1683 C 0.94071 0.74121 0.47996 0.0
N1684 N 0.96691 0.79896 0.45155 0.0
N1685 N 0.95207 0.75079 0.46683 0.0
H1686 H 0.22653 0.98488 0.44268 0.0
H1687 H 0.32578 0.94378 0.48339 0.0
H1688 H 0.28004 0.9914 0.40999 0.0
H1689 H 0.27196 0.91185 0.49104 0.0
H1690 H 0.30933 0.96503 0.45969 0.0
H1691 H 0.24298 0.96139 0.46415 0.0
C1692 C 0.24173 0.98135 0.44006 0.0
C1693 C 0.25201 0.99005 0.42464 0.0
C1694 C 0.30121 0.95329 0.46651 0.0
C1695 C 0.27083 0.9636 0.44914 0.0
C1696 C 0.31051 0.94127 0.48006 0.0
C1697 C 0.30014 0.92613 0.48913 0.0
C1698 C 0.28133 0.95039 0.46246 0.0
C1699 C 0.28043 0.92336 0.48427 0.0
C1700 C 0.25103 0.96791 0.4522 0.0
C1701 C 0.27163 0.98492 0.42172 0.0
N1702 N 0.27155 0.93557 0.4714 0.0
N1703 N 0.28053 0.97217 0.43405 0.0
H1704 H 0.05974 0.77022 0.64097 0.0
H1705 H 0.1416 0.77868 0.5595 0.0
H1706 H 0.06828 0.82338 0.60819 0.0
H1707 H 0.1075 0.72615 0.56669 0.0
H1708 H 0.12035 0.79522 0.58317 0.0
H1709 H 0.08307 0.75363 0.61937 0.0
C1710 C 0.06667 0.77841 0.62934 0.0
C1711 C 0.06207 0.79812 0.6262 0.0
C1712 C 0.11764 0.78006 0.57957 0.0
C1713 C 0.08877 0.77943 0.60187 0.0
C1714 C 0.12974 0.77061 0.56619 0.0
C1715 C 0.12615 0.7511 0.56112 0.0
C1716 C 0.10221 0.76973 0.58821 0.0
C1717 C 0.1106 0.74127 0.57012 0.0
C1718 C 0.07985 0.76894 0.61703 0.0
C1719 C 0.07135 0.8081 0.61092 0.0
N1720 N 0.09921 0.75068 0.58336 0.0
N1721 N 0.08439 0.79866 0.59934 0.0
H1722 H 0.26646 0.07376 0.64388 0.0
H1723 H 0.2517 0.12804 0.54144 0.0
H1724 H 0.22575 0.05477 0.59959 0.0
H1725 H 0.30152 0.13777 0.57893 0.0
H1726 H 0.23913 0.10435 0.56497 0.0
H1727 H 0.27691 0.10029 0.6223 0.0
C1728 C 0.25971 0.07518 0.62964 0.0
C1729 C 0.24532 0.06196 0.62345 0.0
C1730 C 0.25276 0.11174 0.56807 0.0
C1731 C 0.25705 0.0923 0.59884 0.0
C1732 C 0.25991 0.12533 0.5547 0.0
C1733 C 0.27776 0.13477 0.55816 0.0
C1734 C 0.26349 0.10765 0.58508 0.0
C1735 C 0.28776 0.13071 0.57561 0.0
C1736 C 0.26568 0.0903 0.61735 0.0
C1737 C 0.23701 0.06453 0.60489 0.0
N1738 N 0.28051 0.11739 0.5884 0.0
N1739 N 0.24299 0.0794 0.59325 0.0
H1740 H 0.9737 0.25461 0.64056 0.0
H1741 H 0.95513 0.30898 0.53923 0.0
H1742 H 0.01568 0.25653 0.59352 0.0
H1743 H 0.90791 0.29119 0.5771 0.0
H1744 H 0.97828 0.29331 0.56124 0.0
H1745 H 0.94997 0.27125 0.61949 0.0
C1746 C 0.97792 0.25856 0.62583 0.0
C1747 C 0.99666 0.2542 0.61874 0.0
C1748 C 0.96285 0.29282 0.56474 0.0
C1749 C 0.96977 0.27324 0.59476 0.0
C1750 C 0.94963 0.30183 0.55223 0.0
C1751 C 0.92956 0.3013 0.55632 0.0
C1752 C 0.95601 0.28334 0.58157 0.0
C1753 C 0.92327 0.29181 0.57336 0.0
C1754 C 0.96438 0.26797 0.61383 0.0
C1755 C 1.00137 0.25955 0.59954 0.0
N1756 N 0.93648 0.2832 0.58543 0.0
N1757 N 0.98804 0.26887 0.58825 0.0
H1758 H 0.77755 0.90929 0.55935 0.0
H1759 H 0.77087 0.99223 0.63973 0.0
H1760 H 0.72548 0.94418 0.56628 0.0
H1761 H 0.82364 0.98262 0.60658 0.0
H1762 H 0.75372 0.96907 0.61839 0.0
H1763 H 0.79455 0.93076 0.58248 0.0
C1764 C 0.76968 0.92137 0.56588 0.0
C1765 C 0.75017 0.92512 0.56089 0.0
C1766 C 0.76907 0.97204 0.6159 0.0
C1767 C 0.76931 0.94932 0.58736 0.0
C1768 C 0.77885 0.98512 0.62805 0.0
C1769 C 0.79862 0.98934 0.62475 0.0
C1770 C 0.7793 0.96283 0.60074 0.0
C1771 C 0.80833 0.97984 0.60943 0.0
C1772 C 0.77939 0.9336 0.57894 0.0
C1773 C 0.7406 0.94096 0.56966 0.0
N1774 N 0.79858 0.96688 0.59802 0.0
N1775 N 0.75026 0.95247 0.58261 0.0
H1776 H 0.48334 0.10672 0.32517 0.0
H1777 H 0.44535 0.06597 0.2251 0.0
H1778 H 0.49216 0.13945 0.27204 0.0
H1779 H 0.40986 0.06115 0.27696 0.0
H1780 H 0.46648 0.08935 0.24221 0.0
H1781 H 0.45978 0.08588 0.30794 0.0
C1782 C 0.48028 0.10949 0.30989 0.0
C1783 C 0.48964 0.12473 0.29994 0.0
C1784 C 0.45398 0.08322 0.24974 0.0
C1785 C 0.46319 0.10093 0.28025 0.0
C1786 C 0.44203 0.06988 0.24007 0.0
C1787 C 0.42592 0.0617 0.2497 0.0
C1788 C 0.45005 0.08792 0.26929 0.0
C1789 C 0.42213 0.06725 0.26905 0.0
C1790 C 0.46682 0.09772 0.30015 0.0
C1791 C 0.48515 0.12786 0.2802 0.0
N1792 N 0.4343 0.07985 0.27835 0.0
N1793 N 0.4724 0.11585 0.27087 0.0
H1794 H 0.99124 0.41049 0.28055 0.0
H1795 H 0.90795 0.49018 0.2696 0.0
H1796 H 0.98254 0.44161 0.22644 0.0
H1797 H 0.94291 0.4861 0.3219 0.0
H1798 H 0.92953 0.46621 0.25383 0.0
H1799 H 0.96752 0.43227 0.29639 0.0
C1800 C 0.9842 0.4218 0.272 0.0
C1801 C 0.98887 0.42444 0.25225 0.0
C1802 C 0.93235 0.47056 0.26878 0.0
C1803 C 0.96172 0.44892 0.27005 0.0
C1804 C 0.92007 0.4841 0.27777 0.0
C1805 C 0.92383 0.49014 0.29697 0.0
C1806 C 0.94809 0.46271 0.27929 0.0
C1807 C 0.93969 0.48192 0.30699 0.0
C1808 C 0.9708 0.4342 0.28103 0.0
C1809 C 0.97944 0.43929 0.24177 0.0
N1810 N 0.95123 0.46849 0.29805 0.0
N1811 N 0.96617 0.45096 0.25079 0.0
H1812 H 0.6415 0.99039 0.27764 0.0
H1813 H 0.55633 0.91234 0.27164 0.0
H1814 H 0.60515 0.98518 0.2264 0.0
H1815 H 0.56756 0.94463 0.32461 0.0
H1816 H 0.57985 0.93318 0.25442 0.0
H1817 H 0.61986 0.96753 0.29482 0.0
C1818 C 0.62907 0.98428 0.26998 0.0
C1819 C 0.62496 0.98968 0.25066 0.0
C1820 C 0.57716 0.93559 0.26982 0.0
C1821 C 0.60056 0.96353 0.26999 0.0
C1822 C 0.56387 0.92371 0.27965 0.0
C1823 C 0.55999 0.92693 0.2995 0.0
C1824 C 0.58692 0.95037 0.28008 0.0
C1825 C 0.57006 0.94186 0.30924 0.0
C1826 C 0.61674 0.97138 0.27979 0.0
C1827 C 0.60867 0.98147 0.24136 0.0
N1828 N 0.58321 0.95301 0.29944 0.0
N1829 N 0.59707 0.96866 0.2511 0.0
H1830 H 0.14135 0.55843 0.27026 0.0
H1831 H 0.05977 0.63999 0.28052 0.0
H1832 H 0.1085 0.56569 0.32358 0.0
H1833 H 0.06675 0.60687 0.22734 0.0
H1834 H 0.0835 0.6184 0.29658 0.0
H1835 H 0.11965 0.58206 0.25419 0.0
C1836 C 0.12967 0.56513 0.27859 0.0
C1837 C 0.12654 0.56008 0.29818 0.0
C1838 C 0.07983 0.61598 0.28138 0.0
C1839 C 0.10213 0.58712 0.28011 0.0
C1840 C 0.06642 0.62827 0.27222 0.0
C1841 C 0.06127 0.62503 0.25267 0.0
C1842 C 0.08843 0.60075 0.27072 0.0
C1843 C 0.07022 0.60966 0.24251 0.0
C1844 C 0.11732 0.57848 0.26942 0.0
C1845 C 0.11122 0.56909 0.30837 0.0
N1846 N 0.08351 0.59811 0.25165 0.0
N1847 N 0.0996 0.58231 0.29923 0.0
H1848 H 0.45373 0.01531 0.79946 0.0
H1849 H 0.47205 0.90823 0.7571 0.0
H1850 H 0.4068 0.97427 0.78975 0.0
H1851 H 0.51376 0.95539 0.75326 0.0
H1852 H 0.44848 0.93087 0.77181 0.0
H1853 H 0.4766 0.99204 0.78534 0.0
C1854 C 0.44823 1.00138 0.79435 0.0
C1855 C 0.42833 0.99673 0.79571 0.0
C1856 C 0.4628 0.9362 0.7677 0.0
C1857 C 0.45448 0.96998 0.77956 0.0
C1858 C 0.47625 0.9233 0.7594 0.0
C1859 C 0.49486 0.92998 0.75396 0.0
C1860 C 0.46813 0.95578 0.77074 0.0
C1861 C 0.49955 0.94964 0.75716 0.0
C1862 C 0.4613 0.98812 0.78624 0.0
C1863 C 0.42203 0.97846 0.78885 0.0
N1864 N 0.4863 0.96182 0.76539 0.0
N1865 N 0.43511 0.96568 0.78109 0.0
H1866 H 0.06685 0.44375 0.82567 0.0
H1867 H 0.1067 0.48314 0.72537 0.0
H1868 H 0.05726 0.41187 0.77214 0.0
H1869 H 0.14004 0.49005 0.77843 0.0
H1870 H 0.08522 0.46004 0.74232 0.0
H1871 H 0.09083 0.46425 0.8087 0.0
C1872 C 0.06982 0.44108 0.81036 0.0
C1873 C 0.06009 0.42619 0.80023 0.0
C1874 C 0.09733 0.46654 0.75016 0.0
C1875 C 0.08712 0.4496 0.78082 0.0
C1876 C 0.10949 0.47975 0.74057 0.0
C1877 C 0.12507 0.48848 0.75058 0.0
C1878 C 0.10054 0.46246 0.76998 0.0
C1879 C 0.12818 0.48354 0.77021 0.0
C1880 C 0.08354 0.45267 0.80076 0.0
C1881 C 0.06452 0.4232 0.78045 0.0
N1882 N 0.11583 0.47102 0.77939 0.0
N1883 N 0.07757 0.435 0.77129 0.0
H1884 H 0.56602 0.10782 0.7275 0.0
H1885 H 0.60692 0.0656 0.82611 0.0
H1886 H 0.5587 0.13951 0.78149 0.0
H1887 H 0.63951 0.05981 0.77246 0.0
H1888 H 0.58542 0.08935 0.81004 0.0
H1889 H 0.58963 0.08634 0.74375 0.0
C1890 C 0.56939 0.11021 0.74278 0.0
C1891 C 0.56044 0.12536 0.75325 0.0
C1892 C 0.59736 0.08293 0.80188 0.0
C1893 C 0.58703 0.10083 0.77183 0.0
C1894 C 0.60951 0.06934 0.81096 0.0
C1895 C 0.62491 0.06078 0.80052 0.0
C1896 C 0.60038 0.08751 0.78215 0.0
C1897 C 0.6278 0.06618 0.78098 0.0
C1898 C 0.58289 0.09807 0.75196 0.0
C1899 C 0.56537 0.128 0.77295 0.0
N1900 N 0.61545 0.07906 0.77231 0.0
N1901 N 0.5782 0.11565 0.78173 0.0
H1902 H 0.97107 0.64476 0.79284 0.0
H1903 H 0.95268 0.53921 0.74753 0.0
H1904 H 0.01071 0.59624 0.80014 0.0
H1905 H 0.9054 0.57943 0.75882 0.0
H1906 H 0.97527 0.56187 0.76314 0.0
H1907 H 0.9477 0.62271 0.77691 0.0
C1908 C 0.97485 0.6295 0.79107 0.0
C1909 C 0.99283 0.62228 0.79778 0.0
C1910 C 0.95995 0.56573 0.76223 0.0
C1911 C 0.96638 0.59719 0.77956 0.0
C1912 C 0.94706 0.55286 0.75325 0.0
C1913 C 0.92714 0.55745 0.75194 0.0
C1914 C 0.95294 0.58345 0.76978 0.0
C1915 C 0.92065 0.57531 0.75965 0.0
C1916 C 0.96151 0.61695 0.78207 0.0
C1917 C 0.99699 0.60239 0.79523 0.0
N1918 N 0.93357 0.58775 0.7682 0.0
N1919 N 0.98391 0.59057 0.78622 0.0
H1920 H 0.27864 0.40987 0.05908 0.0
H1921 H 0.27014 0.49116 0.14108 0.0
H1922 H 0.22576 0.44331 0.06691 0.0
H1923 H 0.323 0.48351 0.10758 0.0
H1924 H 0.25354 0.46783 0.11946 0.0
H1925 H 0.29519 0.43126 0.08263 0.0
C1926 C 0.2705 0.42161 0.06589 0.0
C1927 C 0.25089 0.42499 0.06103 0.0
C1928 C 0.26879 0.47126 0.11696 0.0
C1929 C 0.26951 0.44907 0.08799 0.0
C1930 C 0.27826 0.48444 0.12927 0.0
C1931 C 0.29788 0.48928 0.12595 0.0
C1932 C 0.27921 0.46258 0.10161 0.0
C1933 C 0.30779 0.48026 0.11046 0.0
C1934 C 0.27994 0.4338 0.07919 0.0
C1935 C 0.24097 0.44039 0.07017 0.0
N1936 N 0.29836 0.4672 0.09888 0.0
N1937 N 0.25037 0.45185 0.08335 0.0
H1938 H 0.30384 0.53846 0.95473 0.0
H1939 H 0.25999 0.64488 0.97225 0.0
H1940 H 0.29216 0.57829 0.90724 0.0
H1941 H 0.25423 0.59748 0.01345 0.0
H1942 H 0.27507 0.62221 0.94896 0.0
H1943 H 0.28908 0.56163 0.97736 0.0
C1944 C 0.2982 0.55212 0.94907 0.0
C1945 C 0.29916 0.55646 0.92908 0.0
C1946 C 0.27045 0.61682 0.9631 0.0
C1947 C 0.28231 0.58306 0.95493 0.0
C1948 C 0.26194 0.62973 0.9764 0.0
C1949 C 0.25589 0.62301 0.99479 0.0
C1950 C 0.27312 0.59719 0.96839 0.0
C1951 C 0.25864 0.60326 0.99941 0.0
C1952 C 0.2897 0.5653 0.96199 0.0
C1953 C 0.29158 0.57435 0.92254 0.0
N1954 N 0.26714 0.59106 0.98633 0.0
N1955 N 0.28351 0.58708 0.93547 0.0
H1956 H 0.49114 0.27152 0.90993 0.0
H1957 H 0.40941 0.28136 0.99138 0.0
H1958 H 0.48366 0.32483 0.94273 0.0
H1959 H 0.44289 0.2284 0.98443 0.0
H1960 H 0.43095 0.29758 0.96771 0.0
H1961 H 0.46754 0.25538 0.93158 0.0
C1962 C 0.48439 0.27984 0.92158 0.0
C1963 C 0.48937 0.29945 0.92472 0.0
C1964 C 0.43346 0.28239 0.97138 0.0
C1965 C 0.46236 0.28129 0.94909 0.0
C1966 C 0.4212 0.27314 0.98475 0.0
C1967 C 0.42455 0.25361 0.98989 0.0
C1968 C 0.44877 0.27183 0.96279 0.0
C1969 C 0.44 0.24356 0.98096 0.0
C1970 C 0.47106 0.27063 0.93392 0.0
C1971 C 0.48031 0.30961 0.94001 0.0
N1972 N 0.45152 0.25277 0.96771 0.0
N1973 N 0.4671 0.30043 0.95161 0.0
H1974 H 0.79727 0.4541 0.01407 0.0
H1975 H 0.75817 0.47228 0.90592 0.0
H1976 H 0.79041 0.40719 0.97249 0.0
H1977 H 0.74765 0.51172 0.95399 0.0
H1978 H 0.77319 0.44912 0.9288 0.0
H1979 H 0.78237 0.47651 0.99075 0.0
C1980 C 0.79264 0.44852 1.00001 0.0
C1981 C 0.795 0.42876 0.99521 0.0
C1982 C 0.76753 0.46284 0.93428 0.0
C1983 C 0.77802 0.45435 0.96843 0.0
C1984 C 0.75905 0.47606 0.92126 0.0
C1985 C 0.75169 0.49392 0.9281 0.0
C1986 C 0.76885 0.46769 0.95416 0.0
C1987 C 0.75309 0.49809 0.9481 0.0
C1988 C 0.78407 0.46131 0.98674 0.0
C1989 C 0.78872 0.42231 0.97679 0.0
N1990 N 0.7616 0.48511 0.96041 0.0
N1991 N 0.78056 0.43512 0.96399 0.0
H1992 H 0.55831 0.78153 0.9088 0.0
H1993 H 0.64173 0.77133 0.98867 0.0
H1994 H 0.5665 0.72826 0.9415 0.0
H1995 H 0.60875 0.82463 0.98189 0.0
H1996 H 0.61974 0.75525 0.96532 0.0
H1997 H 0.58255 0.79763 0.92978 0.0
C1998 C 0.56533 0.77322 0.9203 0.0
C1999 C 0.56037 0.75363 0.9236 0.0
C2000 C 0.61745 0.77049 0.96893 0.0
C2001 C 0.58813 0.77174 0.94719 0.0
C2002 C 0.62998 0.77966 0.98211 0.0
C2003 C 0.62689 0.79925 0.98723 0.0
C2004 C 0.60211 0.78116 0.96052 0.0
C2005 C 0.61146 0.80943 0.97842 0.0
C2006 C 0.57904 0.7824 0.93224 0.0
C2007 C 0.56982 0.74346 0.93866 0.0
N2008 N 0.59965 0.80029 0.96537 0.0
N2009 N 0.58337 0.75262 0.94988 0.0
H2010 H 0.80431 0.5951 0.03913 0.0
H2011 H 0.76004 0.57754 0.14539 0.0
H2012 H 0.79253 0.64256 0.07897 0.0
H2013 H 0.75446 0.53636 0.09795 0.0
H2014 H 0.77536 0.60078 0.12284 0.0
H2015 H 0.78956 0.57244 0.06228 0.0
C2016 C 0.79865 0.60075 0.05279 0.0
C2017 C 0.79958 0.62074 0.05713 0.0
C2018 C 0.77074 0.58666 0.11742 0.0
C2019 C 0.78275 0.59485 0.08371 0.0
C2020 C 0.7621 0.57338 0.13027 0.0
C2021 C 0.756 0.55501 0.1235 0.0
C2022 C 0.7735 0.58137 0.0978 0.0
C2023 C 0.75889 0.55039 0.10376 0.0
C2024 C 0.79017 0.58781 0.06596 0.0
C2025 C 0.79198 0.62726 0.07503 0.0
N2026 N 0.76752 0.56345 0.09163 0.0
N2027 N 0.78392 0.61431 0.08774 0.0
H2028 H 0.49292 0.77713 0.13528 0.0
H2029 H 0.40726 0.77061 0.05786 0.0
H2030 H 0.48178 0.72383 0.10353 0.0
H2031 H 0.44424 0.8215 0.06183 0.0
H2032 H 0.42903 0.75353 0.08074 0.0
H2033 H 0.4693 0.7941 0.11432 0.0
C2034 C 0.48537 0.769 0.124 0.0
C2035 C 0.48931 0.74913 0.12096 0.0
C2036 C 0.43225 0.76846 0.0766 0.0
C2037 C 0.46226 0.76825 0.09739 0.0
C2038 C 0.41986 0.7782 0.06369 0.0
C2039 C 0.42412 0.79739 0.05795 0.0
C2040 C 0.44861 0.77822 0.08413 0.0
C2041 C 0.44062 0.80663 0.06581 0.0
C2042 C 0.47202 0.77867 0.11206 0.0
C2043 C 0.47923 0.73922 0.10615 0.0
N2044 N 0.45225 0.79698 0.07865 0.0
N2045 N 0.46601 0.74888 0.09493 0.0
H2046 H 0.60909 0.22178 0.06832 0.0
H2047 H 0.55776 0.31803 0.1019 0.0
H2048 H 0.63627 0.27753 0.05714 0.0
H2049 H 0.56084 0.26904 0.14144 0.0
H2050 H 0.5824 0.30232 0.08114 0.0
H2051 H 0.58688 0.23773 0.09157 0.0
C2052 C 0.61036 0.23736 0.07081 0.0
C2053 C 0.62442 0.24844 0.06088 0.0
C2054 C 0.57769 0.29511 0.09441 0.0
C2055 C 0.59904 0.26661 0.0869 0.0
C2056 C 0.56361 0.30394 0.10614 0.0
C2057 C 0.55733 0.29472 0.1233 0.0
C2058 C 0.58504 0.27673 0.09964 0.0
C2059 C 0.56542 0.27658 0.12831 0.0
C2060 C 0.59781 0.24637 0.08408 0.0
C2061 C 0.62562 0.26853 0.06462 0.0
N2062 N 0.57872 0.26798 0.11634 0.0
N2063 N 0.61285 0.27708 0.07716 0.0
H2064 H 0.99006 0.79793 0.62127 0.0
H2065 H 0.88855 0.74156 0.6087 0.0
H2066 H 0.9426 0.80656 0.66183 0.0
H2067 H 0.92867 0.75272 0.56139 0.0
H2068 H 0.9092 0.76176 0.63025 0.0
H2069 H 0.96864 0.77822 0.6008 0.0
C2070 C 0.97504 0.79579 0.62582 0.0
C2071 C 0.96812 0.804 0.64329 0.0
C2072 C 0.91343 0.7597 0.61515 0.0
C2073 C 0.94345 0.78097 0.61993 0.0
C2074 C 0.90178 0.74804 0.60291 0.0
C2075 C 0.90688 0.74541 0.58319 0.0
C2076 C 0.93044 0.7685 0.60768 0.0
C2077 C 0.92409 0.75434 0.57644 0.0
C2078 C 0.9628 0.78449 0.6141 0.0
C2079 C 0.94849 0.80066 0.64839 0.0
N2080 N 0.93521 0.76536 0.58863 0.0
N2081 N 0.93687 0.78923 0.63686 0.0
H2082 H 0.30054 0.93008 0.56128 0.0
H2083 H 0.24195 0.94218 0.66153 0.0
H2084 H 0.30752 0.88877 0.60832 0.0
H2085 H 0.25428 0.98973 0.62206 0.0
H2086 H 0.2626 0.9207 0.64127 0.0
H2087 H 0.28074 0.95061 0.58253 0.0
C2088 C 0.29803 0.92538 0.57618 0.0
C2089 C 0.30579 0.90766 0.58302 0.0
C2090 C 0.26072 0.93584 0.6371 0.0
C2091 C 0.28262 0.93112 0.60751 0.0
C2092 C 0.24879 0.94805 0.64853 0.0
C2093 C 0.24633 0.96782 0.6435 0.0
C2094 C 0.26996 0.94338 0.62036 0.0
C2095 C 0.25574 0.97465 0.62659 0.0
C2096 C 0.28667 0.93714 0.58833 0.0
C2097 C 0.30198 0.90238 0.6025 0.0
N2098 N 0.26701 0.96248 0.61566 0.0
N2099 N 0.29048 0.91397 0.61403 0.0
H2100 H 0.06903 0.23874 0.61683 0.0
H2101 H 0.16205 0.30947 0.60981 0.0
H2102 H 0.10823 0.24646 0.66551 0.0
H2103 H 0.12743 0.29038 0.56069 0.0
H2104 H 0.14239 0.28815 0.63123 0.0
H2105 H 0.09052 0.25847 0.59662 0.0
C2106 C 0.08238 0.2444 0.62321 0.0
C2107 C 0.08686 0.24087 0.64288 0.0
C2108 C 0.13916 0.2887 0.61575 0.0
C2109 C 0.11157 0.26408 0.61978 0.0
C2110 C 0.15025 0.30098 0.60356 0.0
C2111 C 0.14643 0.30176 0.58338 0.0
C2112 C 0.12406 0.27729 0.60771 0.0
C2113 C 0.13104 0.29029 0.57609 0.0
C2114 C 0.09465 0.25577 0.61165 0.0
C2115 C 0.10435 0.24865 0.65034 0.0
N2116 N 0.12051 0.27864 0.58819 0.0
N2117 N 0.116 0.2601 0.63883 0.0
H2118 H 0.74294 0.16224 0.60946 0.0
H2119 H 0.80077 0.06146 0.62104 0.0
H2120 H 0.75497 0.12276 0.56183 0.0
H2121 H 0.80826 0.10823 0.66258 0.0
H2122 H 0.781 0.08294 0.60074 0.0
H2123 H 0.76339 0.14172 0.63092 0.0
C2124 C 0.74966 0.14918 0.60358 0.0
C2125 C 0.7472 0.14423 0.58379 0.0
C2126 C 0.78703 0.08863 0.61422 0.0
C2127 C 0.77058 0.12081 0.60818 0.0
C2128 C 0.79837 0.07635 0.62584 0.0
C2129 C 0.80627 0.08305 0.64354 0.0
C2130 C 0.78315 0.10781 0.62036 0.0
C2131 C 0.80261 0.10252 0.64895 0.0
C2132 C 0.76147 0.13761 0.61577 0.0
C2133 C 0.75645 0.12724 0.57693 0.0
N2134 N 0.79114 0.1142 0.6375 0.0
N2135 N 0.7676 0.11619 0.58906 0.0
H2136 H 0.92882 0.29948 0.48937 0.0
H2137 H 0.94156 0.24166 0.38875 0.0
H2138 H 0.88775 0.30698 0.44215 0.0
H2139 H 0.98886 0.25422 0.42848 0.0
H2140 H 0.91975 0.26188 0.40914 0.0
H2141 H 0.94926 0.27959 0.46816 0.0
C2142 C 0.92413 0.29703 0.47445 0.0
C2143 C 0.90652 0.305 0.46754 0.0
C2144 C 0.9349 0.26013 0.41334 0.0
C2145 C 0.92992 0.28177 0.44308 0.0
C2146 C 0.9473 0.24845 0.40184 0.0
C2147 C 0.96709 0.24622 0.4069 0.0
C2148 C 0.9423 0.2693 0.43018 0.0
C2149 C 0.97376 0.25554 0.42392 0.0
C2150 C 0.93585 0.28563 0.46232 0.0
C2151 C 0.90128 0.30126 0.44803 0.0
N2152 N 0.96144 0.26655 0.43491 0.0
N2153 N 0.91285 0.28976 0.4365 0.0
H2154 H 0.79845 0.98942 0.43 0.0
H2155 H 0.74172 0.88796 0.4417 0.0
H2156 H 0.80721 0.94213 0.3893 0.0
H2157 H 0.75202 0.92825 0.48904 0.0
H2158 H 0.76219 0.90861 0.42039 0.0
H2159 H 0.77839 0.96803 0.45015 0.0
C2160 C 0.79627 0.97444 0.42535 0.0
C2161 C 0.80462 0.96756 0.40793 0.0
C2162 C 0.75988 0.91288 0.43544 0.0
C2163 C 0.78119 0.94293 0.43093 0.0
C2164 C 0.74806 0.90123 0.44754 0.0
C2165 C 0.74513 0.90637 0.46721 0.0
C2166 C 0.76852 0.92993 0.443 0.0
C2167 C 0.75389 0.92363 0.47403 0.0
C2168 C 0.78476 0.96222 0.43689 0.0
C2169 C 0.80121 0.94799 0.4027 0.0
N2170 N 0.76507 0.93475 0.46199 0.0
N2171 N 0.78959 0.93638 0.41406 0.0
H2172 H 0.16221 0.74154 0.44133 0.0
H2173 H 0.06094 0.79839 0.42896 0.0
H2174 H 0.12237 0.75315 0.48876 0.0
H2175 H 0.10828 0.80671 0.38821 0.0
H2176 H 0.08233 0.77858 0.44936 0.0
H2177 H 0.14157 0.76174 0.41976 0.0
C2178 C 0.14905 0.74812 0.44715 0.0
C2179 C 0.14403 0.74562 0.4669 0.0
C2180 C 0.08814 0.7848 0.43603 0.0
C2181 C 0.12046 0.7687 0.44239 0.0
C2182 C 0.07592 0.79615 0.42434 0.0
C2183 C 0.08281 0.80431 0.40684 0.0
C2184 C 0.10746 0.78118 0.43014 0.0
C2185 C 0.1024 0.80085 0.40167 0.0
C2186 C 0.1374 0.75978 0.43489 0.0
C2187 C 0.12689 0.75468 0.47368 0.0
N2188 N 0.11402 0.78938 0.41318 0.0
N2189 N 0.11576 0.76569 0.46149 0.0
H2190 H 0.32793 0.13889 0.44737 0.0
H2191 H 0.2232 0.10283 0.41022 0.0
H2192 H 0.27568 0.14726 0.48159 0.0
H2193 H 0.27548 0.06907 0.40025 0.0
H2194 H 0.24234 0.12532 0.43086 0.0
H2195 H 0.30883 0.11905 0.42411 0.0
C2196 C 0.31245 0.13671 0.44988 0.0
C2197 C 0.30342 0.14457 0.46652 0.0
C2198 C 0.24957 0.11303 0.42401 0.0
C2199 C 0.28151 0.1224 0.43988 0.0
C2200 C 0.23869 0.10026 0.41222 0.0
C2201 C 0.24772 0.08397 0.40367 0.0
C2202 C 0.26968 0.10977 0.42676 0.0
C2203 C 0.26788 0.08133 0.40675 0.0
C2204 C 0.3016 0.12538 0.43669 0.0
C2205 C 0.28329 0.14128 0.46908 0.0
N2206 N 0.27819 0.09412 0.41794 0.0
N2207 N 0.273 0.13057 0.45588 0.0
H2208 H 0.56323 0.9304 0.74895 0.0
H2209 H 0.66292 0.94129 0.80895 0.0
H2210 H 0.60879 0.88712 0.74436 0.0
H2211 H 0.62382 0.98894 0.79569 0.0
H2212 H 0.6426 0.91965 0.78844 0.0
H2213 H 0.58467 0.95062 0.76869 0.0
C2214 C 0.57786 0.92518 0.75198 0.0
C2215 C 0.58419 0.90701 0.7449 0.0
C2216 C 0.63853 0.93485 0.7901 0.0
C2217 C 0.60899 0.93018 0.76801 0.0
C2218 C 0.65 0.94715 0.80194 0.0
C2219 C 0.64509 0.96699 0.80408 0.0
C2220 C 0.62192 0.94241 0.78062 0.0
C2221 C 0.62828 0.97381 0.79447 0.0
C2222 C 0.59014 0.93678 0.76332 0.0
C2223 C 0.60337 0.90111 0.74936 0.0
N2224 N 0.61737 0.96159 0.78329 0.0
N2225 N 0.61507 0.91259 0.76081 0.0
H2226 H 0.10882 0.66111 0.8088 0.0
H2227 H 0.12048 0.56049 0.75084 0.0
H2228 H 0.06099 0.62198 0.79636 0.0
H2229 H 0.16158 0.60759 0.74296 0.0
H2230 H 0.10013 0.5819 0.7707 0.0
H2231 H 0.13023 0.64061 0.78827 0.0
C2232 C 0.10288 0.64814 0.80195 0.0
C2233 C 0.08306 0.64327 0.80432 0.0
C2234 C 0.11352 0.58766 0.76455 0.0
C2235 C 0.10739 0.61987 0.78091 0.0
C2236 C 0.12517 0.57543 0.75317 0.0
C2237 C 0.14275 0.58226 0.74513 0.0
C2238 C 0.11955 0.60689 0.76833 0.0
C2239 C 0.14805 0.60178 0.74871 0.0
C2240 C 0.11504 0.63657 0.79012 0.0
C2241 C 0.07612 0.62639 0.79494 0.0
N2242 N 0.13658 0.61339 0.76022 0.0
N2243 N 0.08823 0.61533 0.78378 0.0
H2244 H 0.48138 0.15111 0.7758 0.0
H2245 H 0.39956 0.07049 0.77415 0.0
H2246 H 0.44742 0.14104 0.72369 0.0
H2247 H 0.40975 0.10477 0.82601 0.0
H2248 H 0.41955 0.09343 0.75538 0.0
H2249 H 0.45799 0.13156 0.79448 0.0
C2250 C 0.46897 0.14478 0.76827 0.0
C2251 C 0.4664 0.14765 0.7481 0.0
C2252 C 0.41729 0.09602 0.77082 0.0
C2253 C 0.43971 0.125 0.76946 0.0
C2254 C 0.40598 0.08289 0.7816 0.0
C2255 C 0.40303 0.08568 0.80173 0.0
C2256 C 0.42621 0.11183 0.78028 0.0
C2257 C 0.41161 0.10209 0.81054 0.0
C2258 C 0.45558 0.13374 0.779 0.0
C2259 C 0.44995 0.13923 0.73919 0.0
N2260 N 0.42308 0.11439 0.79982 0.0
N2261 N 0.43738 0.12802 0.74987 0.0
H2262 H 0.94063 0.38846 0.80864 0.0
H2263 H 0.92627 0.49129 0.75473 0.0
H2264 H 0.98518 0.43278 0.804 0.0
H2265 H 0.88787 0.44258 0.74356 0.0
H2266 H 0.94616 0.47058 0.7756 0.0
H2267 H 0.91897 0.40879 0.78824 0.0
C2268 C 0.94572 0.40258 0.80365 0.0
C2269 C 0.96475 0.40894 0.80807 0.0
C2270 C 0.93346 0.46429 0.76855 0.0
C2271 C 0.9402 0.43209 0.78464 0.0
C2272 C 0.92206 0.47614 0.75657 0.0
C2273 C 0.90534 0.46869 0.7473 0.0
C2274 C 0.92813 0.44474 0.77164 0.0
C2275 C 0.90071 0.44889 0.75028 0.0
C2276 C 0.93345 0.41405 0.79183 0.0
C2277 C 0.97067 0.42724 0.80096 0.0
N2278 N 0.91197 0.43761 0.76233 0.0
N2279 N 0.9585 0.4381 0.78967 0.0
H2280 H 0.60939 0.16136 0.30881 0.0
H2281 H 0.62084 0.06101 0.25008 0.0
H2282 H 0.5618 0.12176 0.297 0.0
H2283 H 0.66242 0.10785 0.24326 0.0
H2284 H 0.60056 0.08225 0.27017 0.0
H2285 H 0.63079 0.14095 0.28819 0.0
C2286 C 0.60351 0.1483 0.3021 0.0
C2287 C 0.58375 0.14328 0.30467 0.0
C2288 C 0.61404 0.088 0.26421 0.0
C2289 C 0.60807 0.11999 0.2811 0.0
C2290 C 0.62565 0.07586 0.25269 0.0
C2291 C 0.64336 0.08265 0.24488 0.0
C2292 C 0.62021 0.10711 0.26835 0.0
C2293 C 0.6488 0.10207 0.24883 0.0
C2294 C 0.61567 0.13678 0.2902 0.0
C2295 C 0.57688 0.12628 0.29544 0.0
N2296 N 0.63735 0.11359 0.26045 0.0
N2297 N 0.58898 0.11529 0.28419 0.0
H2298 H 0.90036 0.56859 0.27392 0.0
H2299 H 0.98221 0.64918 0.27569 0.0
H2300 H 0.91014 0.60301 0.32576 0.0
H2301 H 0.94781 0.63975 0.22375 0.0
H2302 H 0.95899 0.62937 0.29433 0.0
H2303 H 0.92058 0.59143 0.25526 0.0
C2304 C 0.90677 0.58097 0.28139 0.0
C2305 C 0.90361 0.58386 0.30148 0.0
C2306 C 0.95646 0.63174 0.27889 0.0
C2307 C 0.92703 0.6099 0.28016 0.0
C2308 C 0.96976 0.64293 0.26819 0.0
C2309 C 0.96699 0.64607 0.24808 0.0
C2310 C 0.94051 0.62312 0.26938 0.0
C2311 C 0.95048 0.63773 0.23921 0.0
C2312 C 0.9182 0.59405 0.27068 0.0
C2313 C 0.91217 0.60026 0.31032 0.0
N2314 N 0.93801 0.62638 0.24985 0.0
N2315 N 0.92375 0.61251 0.29967 0.0
H2316 H 0.4412 0.88791 0.30783 0.0
H2317 H 0.42758 0.99109 0.25409 0.0
H2318 H 0.48529 0.93281 0.30465 0.0
H2319 H 0.38828 0.94295 0.24362 0.0
H2320 H 0.44718 0.97028 0.2751 0.0
H2321 H 0.41961 0.90838 0.28746 0.0
C2322 C 0.4462 0.90218 0.30317 0.0
C2323 C 0.4651 0.90865 0.30798 0.0
C2324 C 0.43434 0.96413 0.26819 0.0
C2325 C 0.44065 0.93196 0.28457 0.0
C2326 C 0.4231 0.97605 0.25611 0.0
C2327 C 0.40621 0.9688 0.24699 0.0
C2328 C 0.4287 0.9447 0.2715 0.0
C2329 C 0.40125 0.94912 0.25023 0.0
C2330 C 0.43397 0.91374 0.29137 0.0
C2331 C 0.4709 0.92715 0.3013 0.0
N2332 N 0.41238 0.93776 0.26233 0.0
N2333 N 0.45879 0.93806 0.29 0.0
H2334 H 0.15046 0.4811 0.2749 0.0
H2335 H 0.06797 0.4011 0.27587 0.0
H2336 H 0.13973 0.44692 0.32671 0.0
H2337 H 0.10297 0.41031 0.2243 0.0
H2338 H 0.0911 0.42081 0.29475 0.0
H2339 H 0.13027 0.45839 0.25604 0.0
C2340 C 0.14385 0.46879 0.28232 0.0
C2341 C 0.14674 0.46594 0.30246 0.0
C2342 C 0.09377 0.41842 0.27933 0.0
C2343 C 0.12334 0.44006 0.28092 0.0
C2344 C 0.08053 0.4073 0.2685 0.0
C2345 C 0.08349 0.40411 0.24842 0.0
C2346 C 0.10988 0.42693 0.26999 0.0
C2347 C 0.10013 0.41237 0.23972 0.0
C2348 C 0.13243 0.45579 0.2715 0.0
C2349 C 0.13792 0.44964 0.31124 0.0
N2350 N 0.11256 0.42365 0.25049 0.0
N2351 N 0.12636 0.43746 0.30047 0.0
H2352 H 0.74143 0.60949 0.88836 0.0
H2353 H 0.79852 0.62112 0.98947 0.0
H2354 H 0.75355 0.56177 0.9277 0.0
H2355 H 0.80736 0.66201 0.94235 0.0
H2356 H 0.7786 0.60101 0.96796 0.0
H2357 H 0.7618 0.63095 0.909 0.0
C2358 C 0.74817 0.60359 0.9014 0.0
C2359 C 0.74576 0.58379 0.90629 0.0
C2360 C 0.78495 0.61431 0.96222 0.0
C2361 C 0.76898 0.60815 0.92985 0.0
C2362 C 0.79636 0.62584 0.97451 0.0
C2363 C 0.80471 0.64328 0.96771 0.0
C2364 C 0.78146 0.6203 0.94292 0.0
C2365 C 0.80135 0.64859 0.94815 0.0
C2366 C 0.75992 0.61577 0.91305 0.0
C2367 C 0.75501 0.57688 0.92327 0.0
N2368 N 0.78981 0.63722 0.93645 0.0
N2369 N 0.76607 0.58901 0.9344 0.0
H2370 H 0.77384 0.40068 0.06916 0.0
H2371 H 0.77536 0.47989 0.15234 0.0
H2372 H 0.82546 0.40922 0.10427 0.0
H2373 H 0.72309 0.44667 0.14077 0.0
H2374 H 0.79409 0.45692 0.13231 0.0
H2375 H 0.75503 0.42014 0.09254 0.0
C2376 C 0.78123 0.40664 0.08182 0.0
C2377 C 0.80131 0.40336 0.08472 0.0
C2378 C 0.77856 0.45456 0.13428 0.0
C2379 C 0.77981 0.42592 0.11141 0.0
C2380 C 0.76782 0.46771 0.14561 0.0
C2381 C 0.74759 0.46523 0.14819 0.0
C2382 C 0.76898 0.43906 0.12495 0.0
C2383 C 0.73864 0.4491 0.13922 0.0
C2384 C 0.77043 0.41764 0.0952 0.0
C2385 C 0.81004 0.41135 0.10148 0.0
N2386 N 0.74934 0.43679 0.12773 0.0
N2387 N 0.7993 0.42252 0.11404 0.0
H2388 H 0.62351 0.79571 0.05805 0.0
H2389 H 0.60831 0.74225 0.16102 0.0
H2390 H 0.66168 0.80684 0.10696 0.0
H2391 H 0.56439 0.74623 0.11599 0.0
H2392 H 0.63009 0.7627 0.14087 0.0
H2393 H 0.60342 0.77498 0.0787 0.0
C2394 C 0.62762 0.7939 0.07323 0.0
C2395 C 0.64434 0.8031 0.08076 0.0
C2396 C 0.61571 0.75897 0.13543 0.0
C2397 C 0.62133 0.77893 0.10464 0.0
C2398 C 0.60337 0.74713 0.14681 0.0
C2399 C 0.58448 0.7425 0.14019 0.0
C2400 C 0.60917 0.76596 0.11724 0.0
C2401 C 0.57877 0.74945 0.12175 0.0
C2402 C 0.61612 0.78199 0.08504 0.0
C2403 C 0.64884 0.80016 0.10058 0.0
N2404 N 0.59101 0.76076 0.111 0.0
N2405 N 0.63748 0.78819 0.11183 0.0
H2406 H 0.27514 0.56821 0.14943 0.0
H2407 H 0.27708 0.65066 0.06947 0.0
H2408 H 0.32699 0.60294 0.14081 0.0
H2409 H 0.22506 0.64038 0.10349 0.0
H2410 H 0.29573 0.63043 0.09236 0.0
H2411 H 0.25656 0.5915 0.12962 0.0
C2412 C 0.28264 0.58074 0.14335 0.0
C2413 C 0.3027 0.58359 0.14674 0.0
C2414 C 0.28027 0.63272 0.09489 0.0
C2415 C 0.28148 0.61016 0.12379 0.0
C2416 C 0.26957 0.64416 0.0818 0.0
C2417 C 0.24944 0.64719 0.08455 0.0
C2418 C 0.27073 0.62372 0.11061 0.0
C2419 C 0.24054 0.63849 0.10085 0.0
C2420 C 0.27197 0.59408 0.13216 0.0
C2421 C 0.31157 0.6002 0.1386 0.0
N2422 N 0.25118 0.62689 0.11311 0.0
N2423 N 0.30096 0.61271 0.12725 0.0
H2424 H 0.39974 0.27651 0.06874 0.0
H2425 H 0.48032 0.27426 0.15038 0.0
H2426 H 0.40859 0.22475 0.10355 0.0
H2427 H 0.4468 0.32664 0.14031 0.0
H2428 H 0.45693 0.2558 0.13062 0.0
H2429 H 0.41952 0.29518 0.09199 0.0
C2430 C 0.40584 0.26906 0.08131 0.0
C2431 C 0.40258 0.24899 0.08417 0.0
C2432 C 0.4546 0.27129 0.13285 0.0
C2433 C 0.42547 0.2703 0.11067 0.0
C2434 C 0.46799 0.28188 0.14402 0.0
C2435 C 0.46554 0.30206 0.14694 0.0
C2436 C 0.43888 0.28099 0.12402 0.0
C2437 C 0.44921 0.31112 0.13846 0.0
C2438 C 0.41701 0.27978 0.09461 0.0
C2439 C 0.41071 0.24018 0.1008 0.0
N2440 N 0.43664 0.30058 0.12711 0.0
N2441 N 0.42205 0.25082 0.11327 0.0
H2442 H 0.2985 0.48897 0.92884 0.0
H2443 H 0.2416 0.38781 0.9413 0.0
H2444 H 0.30702 0.44167 0.8881 0.0
H2445 H 0.25323 0.42782 0.98857 0.0
H2446 H 0.26189 0.40831 0.91967 0.0
H2447 H 0.27865 0.46761 0.94915 0.0
C2448 C 0.29629 0.474 0.9242 0.0
C2449 C 0.30453 0.46711 0.90673 0.0
C2450 C 0.25992 0.41254 0.93478 0.0
C2451 C 0.28133 0.44248 0.92995 0.0
C2452 C 0.2482 0.40097 0.94707 0.0
C2453 C 0.24568 0.40609 0.9668 0.0
C2454 C 0.26885 0.42949 0.94222 0.0
C2455 C 0.25477 0.42322 0.97352 0.0
C2456 C 0.28491 0.46179 0.93584 0.0
C2457 C 0.3011 0.44753 0.90153 0.0
N2458 N 0.26582 0.43426 0.96129 0.0
N2459 N 0.28959 0.43592 0.91301 0.0
H2460 H 0.62095 0.25057 0.98895 0.0
H2461 H 0.60913 0.3089 0.88845 0.0
H2462 H 0.66234 0.24343 0.94198 0.0
H2463 H 0.5615 0.29666 0.92787 0.0
H2464 H 0.63065 0.28847 0.90893 0.0
H2465 H 0.60058 0.27052 0.96766 0.0
C2466 C 0.6257 0.25309 0.97406 0.0
C2467 C 0.64338 0.24522 0.96724 0.0
C2468 C 0.61549 0.29034 0.91305 0.0
C2469 C 0.62013 0.26854 0.94273 0.0
C2470 C 0.60326 0.30214 0.90149 0.0
C2471 C 0.58346 0.30453 0.90644 0.0
C2472 C 0.60791 0.28117 0.92981 0.0
C2473 C 0.57662 0.29523 0.92341 0.0
C2474 C 0.61404 0.26453 0.96189 0.0
C2475 C 0.64874 0.24904 0.94778 0.0
N2476 N 0.58878 0.28409 0.93444 0.0
N2477 N 0.63725 0.2606 0.93623 0.0
H2478 H 0.446 0.72365 0.91024 0.0
H2479 H 0.40889 0.82829 0.94641 0.0
H2480 H 0.48014 0.77588 0.90153 0.0
H2481 H 0.39911 0.77605 0.98023 0.0
H2482 H 0.42957 0.80918 0.92391 0.0
H2483 H 0.42298 0.7427 0.93037 0.0
C2484 C 0.44857 0.7391 0.91244 0.0
C2485 C 0.4651 0.74815 0.90436 0.0
C2486 C 0.42275 0.80195 0.93622 0.0
C2487 C 0.43869 0.77003 0.92685 0.0
C2488 C 0.41092 0.81281 0.94898 0.0
C2489 C 0.40241 0.80378 0.96529 0.0
C2490 C 0.42559 0.78186 0.93951 0.0
C2491 C 0.40557 0.78364 0.96795 0.0
C2492 C 0.4355 0.74993 0.92393 0.0
C2493 C 0.46772 0.76826 0.90768 0.0
N2494 N 0.41678 0.77335 0.95518 0.0
N2495 N 0.45462 0.77854 0.91854 0.0
H2496 H 0.12739 0.0973 0.32729 0.0
H2497 H 0.06844 0.16455 0.40269 0.0
H2498 H 0.15216 0.11897 0.38106 0.0
H2499 H 0.05178 0.15795 0.34235 0.0
H2500 H 0.09693 0.14362 0.39678 0.0
H2501 H 0.09758 0.11575 0.33407 0.0
C2502 C 0.12658 0.10581 0.3406 0.0
C2503 C 0.14229 0.10612 0.35383 0.0
C2504 C 0.08692 0.14656 0.38489 0.0
C2505 C 0.10801 0.12727 0.36172 0.0
C2506 C 0.07063 0.15839 0.38828 0.0
C2507 C 0.05762 0.16275 0.37306 0.0
C2508 C 0.09022 0.13896 0.36612 0.0
C2509 C 0.06119 0.15458 0.3546 0.0
C2510 C 0.1095 0.11631 0.34446 0.0
C2511 C 0.14031 0.11755 0.37077 0.0
N2512 N 0.07716 0.14309 0.35164 0.0
N2513 N 0.12348 0.12758 0.37425 0.0
H2514 H 0.93122 0.15293 0.38211 0.0
H2515 H 0.89248 0.05111 0.34116 0.0
H2516 H 0.95219 0.12794 0.32816 0.0
H2517 H 0.88658 0.06827 0.40143 0.0
H2518 H 0.91359 0.07949 0.33551 0.0
H2519 H 0.91361 0.12275 0.38883 0.0
C2520 C 0.93253 0.14103 0.37184 0.0
C2521 C 0.94377 0.14291 0.35478 0.0
C2522 C 0.90791 0.07691 0.35005 0.0
C2523 C 0.92283 0.10838 0.36208 0.0
C2524 C 0.89604 0.06059 0.35332 0.0
C2525 C 0.88806 0.05718 0.37188 0.0
C2526 C 0.91151 0.09011 0.36536 0.0
C2527 C 0.89256 0.07034 0.38694 0.0
C2528 C 0.92225 0.12379 0.37562 0.0
C2529 C 0.94385 0.12717 0.34157 0.0
N2530 N 0.90384 0.08629 0.38333 0.0
N2531 N 0.93355 0.11063 0.34547 0.0
H2532 H 0.9993 0.89244 0.34087 0.0
H2533 H 0.89755 0.93102 0.38226 0.0
H2534 H 0.98247 0.8867 0.40125 0.0
H2535 H 0.922 0.95155 0.3279 0.0
H2536 H 0.92789 0.91362 0.38892 0.0
H2537 H 0.97081 0.91344 0.33529 0.0
C2538 C 0.98987 0.89602 0.35306 0.0
C2539 C 0.99339 0.8881 0.37163 0.0
C2540 C 0.92669 0.92212 0.37563 0.0
C2541 C 0.96035 0.91144 0.3652 0.0
C2542 C 0.90937 0.93227 0.37188 0.0
C2543 C 0.90729 0.94332 0.35472 0.0
C2544 C 0.94199 0.92264 0.36196 0.0
C2545 C 0.92292 0.94335 0.34138 0.0
C2546 C 0.9735 0.90783 0.34983 0.0
C2547 C 0.98031 0.89263 0.38675 0.0
N2548 N 0.93956 0.93318 0.34526 0.0
N2549 N 0.96429 0.90385 0.38318 0.0
H2550 H 0.15848 0.99891 0.34175 0.0
H2551 H 0.12008 0.89646 0.38178 0.0
H2552 H 0.1659 0.98054 0.4015 0.0
H2553 H 0.09937 0.92204 0.328 0.0
H2554 H 0.13795 0.92646 0.38876 0.0
H2555 H 0.1375 0.97052 0.33596 0.0
C2556 C 0.1553 0.98914 0.35377 0.0
C2557 C 0.16363 0.99224 0.37223 0.0
C2558 C 0.12932 0.92558 0.37553 0.0
C2559 C 0.14028 0.95929 0.36553 0.0
C2560 C 0.1189 0.90846 0.3716 0.0
C2561 C 0.10767 0.9068 0.35451 0.0
C2562 C 0.12886 0.9411 0.36211 0.0
C2563 C 0.10771 0.92263 0.34143 0.0
C2564 C 0.14349 0.97281 0.35042 0.0
C2565 C 0.15962 0.97871 0.38709 0.0
N2566 N 0.11813 0.93907 0.34548 0.0
N2567 N 0.14835 0.96276 0.3834 0.0
H2568 H 0.15355 0.93041 0.66886 0.0
H2569 H 0.05194 0.89125 0.71032 0.0
H2570 H 0.12938 0.95002 0.72368 0.0
H2571 H 0.06909 0.88525 0.65006 0.0
H2572 H 0.0804 0.91225 0.71597 0.0
H2573 H 0.12331 0.91286 0.66221 0.0
C2574 C 0.14181 0.93142 0.67935 0.0
C2575 C 0.14394 0.94226 0.69664 0.0
C2576 C 0.0778 0.90657 0.70144 0.0
C2577 C 0.10933 0.92141 0.68939 0.0
C2578 C 0.06144 0.89476 0.69817 0.0
C2579 C 0.05801 0.88678 0.67961 0.0
C2580 C 0.09102 0.91014 0.68612 0.0
C2581 C 0.07118 0.89123 0.66455 0.0
C2582 C 0.12454 0.92117 0.6756 0.0
C2583 C 0.12842 0.94198 0.7101 0.0
N2584 N 0.08717 0.90247 0.66815 0.0
N2585 N 0.11182 0.93174 0.70621 0.0
H2586 H 0.15981 0.0654 0.64947 0.0
H2587 H 0.09894 0.12807 0.72753 0.0
H2588 H 0.15833 0.05134 0.71079 0.0
H2589 H 0.11489 0.14915 0.67033 0.0
H2590 H 0.11687 0.09781 0.72085 0.0
H2591 H 0.13883 0.09373 0.65578 0.0
C2592 C 0.15473 0.06811 0.66421 0.0
C2593 C 0.1606 0.05592 0.67959 0.0
C2594 C 0.11624 0.10901 0.7097 0.0
C2595 C 0.1368 0.08842 0.68702 0.0
C2596 C 0.10604 0.12633 0.7135 0.0
C2597 C 0.10487 0.14111 0.69929 0.0
C2598 C 0.12539 0.10639 0.69153 0.0
C2599 C 0.11455 0.138 0.68146 0.0
C2600 C 0.14288 0.08433 0.66784 0.0
C2601 C 0.15381 0.06016 0.69847 0.0
N2602 N 0.1243 0.12102 0.67808 0.0
N2603 N 0.14231 0.07609 0.70167 0.0
H2604 H 0.9714 0.18762 0.68365 0.0
H2605 H 0.92956 0.08395 0.71226 0.0
H2606 H 1.00769 0.13638 0.67847 0.0
H2607 H 0.894 0.12728 0.68357 0.0
H2608 H 0.9587 0.10388 0.7055 0.0
H2609 H 0.94308 0.16672 0.68929 0.0
C2610 C 0.97339 0.17194 0.68346 0.0
C2611 C 0.99188 0.16371 0.68002 0.0
C2612 C 0.94452 0.10893 0.70062 0.0
C2613 C 0.95955 0.13972 0.68737 0.0
C2614 C 0.92792 0.09767 0.70454 0.0
C2615 C 0.90942 0.10399 0.69835 0.0
C2616 C 0.94247 0.12689 0.69096 0.0
C2617 C 0.90804 0.12182 0.68839 0.0
C2618 C 0.95722 0.16004 0.68681 0.0
C2619 C 0.99368 0.1433 0.68091 0.0
N2620 N 0.92432 0.13276 0.68518 0.0
N2621 N 0.97771 0.13195 0.68458 0.0
H2622 H 0.95325 0.92178 0.72262 0.0
H2623 H 0.8847 0.97952 0.64723 0.0
H2624 H 0.93139 0.89663 0.66911 0.0
H2625 H 0.89507 0.9988 0.70625 0.0
H2626 H 0.9055 0.95099 0.65326 0.0
H2627 H 0.93518 0.95173 0.71543 0.0
C2628 C 0.94475 0.92255 0.70929 0.0
C2629 C 0.94425 0.90669 0.69626 0.0
C2630 C 0.9034 0.96156 0.66484 0.0
C2631 C 0.92352 0.9411 0.6879 0.0
C2632 C 0.89162 0.97787 0.66137 0.0
C2633 C 0.88828 0.99159 0.67622 0.0
C2634 C 0.91197 0.95894 0.6833 0.0
C2635 C 0.89753 0.98876 0.69429 0.0
C2636 C 0.93448 0.93971 0.70518 0.0
C2637 C 0.93289 0.9086 0.67926 0.0
N2638 N 0.9089 0.97273 0.69735 0.0
N2639 N 0.92304 0.92547 0.67557 0.0
H2640 H 0.32465 0.14174 0.11949 0.0
H2641 H 0.40136 0.06029 0.15269 0.0
H2642 H 0.38163 0.13573 0.09321 0.0
H2643 H 0.33985 0.05657 0.16534 0.0
H2644 H 0.39505 0.08891 0.13198 0.0
H2645 H 0.33042 0.11158 0.13778 0.0
C2646 C 0.33846 0.13422 0.11769 0.0
C2647 C 0.3529 0.14176 0.10521 0.0
C2648 C 0.38288 0.08168 0.13904 0.0
C2649 C 0.35957 0.10706 0.12606 0.0
C2650 C 0.38648 0.06533 0.15074 0.0
C2651 C 0.37104 0.05595 0.16034 0.0
C2652 C 0.36373 0.08892 0.13729 0.0
C2653 C 0.35206 0.06324 0.15782 0.0
C2654 C 0.34171 0.11696 0.1281 0.0
C2655 C 0.3704 0.13117 0.10329 0.0
N2656 N 0.34894 0.07939 0.14665 0.0
N2657 N 0.37328 0.11446 0.11367 0.0
H2658 H 0.89639 0.38212 0.11972 0.0
H2659 H 0.99902 0.34241 0.15812 0.0
H2660 H 0.92271 0.32908 0.09806 0.0
H2661 H 0.98 0.40184 0.16641 0.0
H2662 H 0.9708 0.33671 0.13685 0.0
H2663 H 0.92618 0.38903 0.13796 0.0
C2664 C 0.9085 0.3721 0.1184 0.0
C2665 C 0.90711 0.35524 0.10679 0.0
C2666 C 0.97292 0.35108 0.1431 0.0
C2667 C 0.94119 0.36274 0.12842 0.0
C2668 C 0.98915 0.35439 0.15508 0.0
C2669 C 0.99202 0.37274 0.16374 0.0
C2670 C 0.95927 0.36612 0.14004 0.0
C2671 C 0.97835 0.38753 0.15989 0.0
C2672 C 0.92551 0.37598 0.12904 0.0
C2673 C 0.9231 0.34233 0.10668 0.0
N2674 N 0.96251 0.38387 0.14845 0.0
N2675 N 0.93942 0.34632 0.11731 0.0
H2676 H 0.72591 0.90743 0.1207 0.0
H2677 H 0.64976 0.98915 0.15415 0.0
H2678 H 0.66928 0.91417 0.0938 0.0
H2679 H 0.71148 0.99334 0.16558 0.0
H2680 H 0.65584 0.96042 0.13351 0.0
H2681 H 0.72027 0.93759 0.13901 0.0
C2682 C 0.7122 0.91509 0.11876 0.0
C2683 C 0.69782 0.90774 0.10607 0.0
C2684 C 0.6681 0.96777 0.1403 0.0
C2685 C 0.69131 0.94246 0.127 0.0
C2686 C 0.66463 0.98418 0.15196 0.0
C2687 C 0.68019 0.99373 0.1612 0.0
C2688 C 0.68725 0.96063 0.13823 0.0
C2689 C 0.69916 0.98653 0.15836 0.0
C2690 C 0.70903 0.93236 0.12919 0.0
C2691 C 0.68045 0.91854 0.10402 0.0
N2692 N 0.70216 0.97031 0.14724 0.0
N2693 N 0.67764 0.93524 0.11445 0.0
H2694 H 0.07014 0.64694 0.16593 0.0
H2695 H 0.12845 0.72254 0.09828 0.0
H2696 H 0.05282 0.70701 0.15858 0.0
H2697 H 0.15348 0.66874 0.11961 0.0
H2698 H 0.09878 0.71563 0.1169 0.0
H2699 H 0.09868 0.65296 0.14509 0.0
C2700 C 0.07221 0.66131 0.15964 0.0
C2701 C 0.05897 0.67642 0.16373 0.0
C2702 C 0.11073 0.70526 0.11736 0.0
C2703 C 0.09162 0.6835 0.14004 0.0
C2704 C 0.12772 0.7092 0.10676 0.0
C2705 C 0.14346 0.696 0.10692 0.0
C2706 C 0.10935 0.68797 0.12828 0.0
C2707 C 0.14159 0.67902 0.1183 0.0
C2708 C 0.08852 0.66478 0.14786 0.0
C2709 C 0.0624 0.69484 0.15541 0.0
N2710 N 0.12485 0.67547 0.12844 0.0
N2711 N 0.07839 0.69786 0.14397 0.0
H2712 H 0.33009 0.90317 0.92122 0.0
H2713 H 0.39149 1.00244 0.90889 0.0
H2714 H 0.3757 0.92047 0.96109 0.0
H2715 H 0.35107 0.98047 0.866 0.0
H2716 H 0.38452 0.97381 0.92956 0.0
H2717 H 0.33621 0.93262 0.90202 0.0
C2718 C 0.34149 0.91311 0.92588 0.0
C2719 C 0.35269 0.90904 0.94256 0.0
C2720 C 0.37713 0.97528 0.91566 0.0
C2721 C 0.35968 0.94305 0.92072 0.0
C2722 C 0.38105 0.99163 0.90395 0.0
C2723 C 0.37189 0.99364 0.88577 0.0
C2724 C 0.36386 0.961 0.90911 0.0
C2725 C 0.35847 0.97932 0.87993 0.0
C2726 C 0.345 0.92993 0.9149 0.0
C2727 C 0.36715 0.92258 0.948 0.0
N2728 N 0.3549 0.9636 0.89152 0.0
N2729 N 0.37023 0.93896 0.93712 0.0
H2730 H 0.05151 0.33855 0.89086 0.0
H2731 H 0.15258 0.3806 0.93045 0.0
H2732 H 0.06757 0.39921 0.88596 0.0
H2733 H 0.12808 0.32632 0.95116 0.0
H2734 H 0.12244 0.38696 0.9126 0.0
H2735 H 0.08002 0.33306 0.91186 0.0
C2736 C 0.06079 0.3508 0.89458 0.0
C2737 C 0.05703 0.36943 0.88693 0.0
C2738 C 0.12359 0.37376 0.92123 0.0
C2739 C 0.09009 0.36313 0.91028 0.0
C2740 C 0.14079 0.37018 0.93165 0.0
C2741 C 0.1428 0.35314 0.9429 0.0
C2742 C 0.10835 0.36002 0.92167 0.0
C2743 C 0.12722 0.33973 0.94282 0.0
C2744 C 0.07718 0.34763 0.9064 0.0
C2745 C 0.06994 0.38464 0.89165 0.0
N2746 N 0.11071 0.34343 0.93239 0.0
N2747 N 0.08596 0.38114 0.90288 0.0
H2748 H 0.64894 0.06741 0.88702 0.0
H2749 H 0.72492 0.12871 0.95153 0.0
H2750 H 0.70977 0.052 0.8922 0.0
H2751 H 0.66986 0.15185 0.93125 0.0
H2752 H 0.71832 0.09852 0.93362 0.0
H2753 H 0.65479 0.09612 0.90762 0.0
C2754 C 0.66345 0.06991 0.89282 0.0
C2755 C 0.67883 0.0572 0.88813 0.0
C2756 C 0.70762 0.11017 0.93325 0.0
C2757 C 0.68572 0.09009 0.91152 0.0
C2758 C 0.71137 0.12746 0.94344 0.0
C2759 C 0.69773 0.14282 0.94337 0.0
C2760 C 0.69006 0.10811 0.92287 0.0
C2761 C 0.6805 0.14028 0.93249 0.0
C2762 C 0.66682 0.08634 0.90445 0.0
C2763 C 0.69741 0.06118 0.89583 0.0
N2764 N 0.67714 0.12327 0.92277 0.0
N2765 N 0.70035 0.07729 0.90712 0.0
H2766 H 0.92219 0.7235 0.95181 0.0
H2767 H 0.98472 0.64637 0.89004 0.0
H2768 H 0.89937 0.66795 0.93257 0.0
H2769 H 0.99824 0.70782 0.89165 0.0
H2770 H 0.95594 0.65252 0.91053 0.0
H2771 H 0.95241 0.71674 0.93401 0.0
C2772 C 0.92351 0.70981 0.94398 0.0
C2773 C 0.90823 0.69608 0.94419 0.0
C2774 C 0.96533 0.66463 0.90659 0.0
C2775 C 0.943 0.68821 0.92385 0.0
C2776 C 0.9818 0.6611 0.89504 0.0
C2777 C 0.99395 0.67658 0.88934 0.0
C2778 C 0.96106 0.68377 0.91262 0.0
C2779 C 0.98946 0.69542 0.89603 0.0
C2780 C 0.94082 0.70597 0.93386 0.0
C2781 C 0.91088 0.67867 0.93364 0.0
N2782 N 0.97336 0.69851 0.9073 0.0
N2783 N 0.92793 0.67521 0.924 0.0
H2784 H 0.15738 0.34128 0.05094 0.0
H2785 H 0.11889 0.38225 0.1528 0.0
H2786 H 0.16349 0.40156 0.06799 0.0
H2787 H 0.09743 0.32862 0.12753 0.0
H2788 H 0.13656 0.38897 0.12264 0.0
H2789 H 0.13628 0.33575 0.07933 0.0
C2790 C 0.15387 0.35346 0.0604 0.0
C2791 C 0.1619 0.37199 0.05695 0.0
C2792 C 0.1278 0.37583 0.12362 0.0
C2793 C 0.13845 0.36561 0.0899 0.0
C2794 C 0.11748 0.37206 0.14085 0.0
C2795 C 0.10609 0.35508 0.14265 0.0
C2796 C 0.1271 0.36236 0.10816 0.0
C2797 C 0.10589 0.34196 0.12684 0.0
C2798 C 0.142 0.35026 0.07672 0.0
C2799 C 0.15747 0.38709 0.0701 0.0
N2800 N 0.11623 0.34585 0.11031 0.0
N2801 N 0.14618 0.38354 0.08606 0.0
H2802 H 0.11923 0.66621 0.89808 0.0
H2803 H 0.16124 0.70744 0.99846 0.0
H2804 H 0.10108 0.72147 0.92242 0.0
H2805 H 0.1639 0.64648 0.98304 0.0
H2806 H 0.14032 0.7134 0.97005 0.0
H2807 H 0.13704 0.65923 0.92812 0.0
C2808 C 0.11857 0.67673 0.90981 0.0
C2809 C 0.10805 0.69425 0.90779 0.0
C2810 C 0.14527 0.69867 0.97299 0.0
C2811 C 0.12926 0.68662 0.94211 0.0
C2812 C 0.15706 0.69524 0.98931 0.0
C2813 C 0.16405 0.67638 0.99325 0.0
C2814 C 0.14072 0.6832 0.96028 0.0
C2815 C 0.1587 0.66121 0.98054 0.0
C2816 C 0.12897 0.67279 0.92695 0.0
C2817 C 0.10883 0.70771 0.92329 0.0
N2818 N 0.14749 0.66496 0.96454 0.0
N2819 N 0.11924 0.70364 0.93973 0.0
H2820 H 0.40368 0.16655 0.98077 0.0
H2821 H 0.3274 0.09952 0.92234 0.0
H2822 H 0.34387 0.15842 0.99869 0.0
H2823 H 0.38251 0.11859 0.89838 0.0
H2824 H 0.33442 0.11801 0.95207 0.0
H2825 H 0.39766 0.14553 0.95238 0.0
C2826 C 0.38937 0.16006 0.97885 0.0
C2827 C 0.37433 0.16399 0.9922 0.0
C2828 C 0.34506 0.118 0.94036 0.0
C2829 C 0.36724 0.14012 0.95971 0.0
C2830 C 0.34105 0.10747 0.92333 0.0
C2831 C 0.35456 0.10706 0.90788 0.0
C2832 C 0.36272 0.12831 0.94202 0.0
C2833 C 0.37195 0.11776 0.91005 0.0
C2834 C 0.3859 0.14816 0.96262 0.0
C2835 C 0.35599 0.15541 0.98899 0.0
N2836 N 0.37553 0.12789 0.92678 0.0
N2837 N 0.35295 0.14391 0.97306 0.0
H2838 H 0.94925 0.32664 0.922 0.0
H2839 H 0.88658 0.40468 0.98274 0.0
H2840 H 0.93125 0.38231 0.89851 0.0
H2841 H 0.8893 0.34361 0.99768 0.0
H2842 H 0.9071 0.3982 0.95403 0.0
H2843 H 0.93097 0.33384 0.95183 0.0
C2844 C 0.94159 0.34045 0.9231 0.0
C2845 C 0.94228 0.35407 0.90775 0.0
C2846 C 0.90337 0.38625 0.9637 0.0
C2847 C 0.92132 0.36243 0.94206 0.0
C2848 C 0.89177 0.38997 0.98011 0.0
C2849 C 0.88643 0.37471 0.99269 0.0
C2850 C 0.90979 0.36712 0.9599 0.0
C2851 C 0.8934 0.35586 0.98857 0.0
C2852 C 0.93118 0.34454 0.94019 0.0
C2853 C 0.93192 0.37165 0.9101 0.0
N2854 N 0.9047 0.3526 0.97254 0.0
N2855 N 0.92196 0.37534 0.92692 0.0
H2856 H 0.64919 0.88574 0.98111 0.0
H2857 H 0.72462 0.95303 0.92219 0.0
H2858 H 0.70913 0.89358 0.9987 0.0
H2859 H 0.67085 0.93111 0.89761 0.0
H2860 H 0.71775 0.93497 0.95223 0.0
H2861 H 0.65512 0.90665 0.95267 0.0
C2862 C 0.66351 0.89219 0.97914 0.0
C2863 C 0.67863 0.88812 0.99235 0.0
C2864 C 0.70738 0.93427 0.9403 0.0
C2865 C 0.68563 0.91187 0.95978 0.0
C2866 C 0.7113 0.94454 0.92309 0.0
C2867 C 0.69809 0.94404 0.90738 0.0
C2868 C 0.6901 0.92336 0.94189 0.0
C2869 C 0.68113 0.93266 0.90946 0.0
C2870 C 0.66693 0.904 0.96286 0.0
C2871 C 0.69697 0.89668 0.98908 0.0
N2872 N 0.67761 0.92285 0.92639 0.0
N2873 N 0.69998 0.90811 0.97309 0.0
H2874 H 0.95342 0.72252 0.1278 0.0
H2875 H 0.88967 0.64621 0.06636 0.0
H2876 H 0.93321 0.66764 0.15138 0.0
H2877 H 0.892 0.70761 0.05274 0.0
H2878 H 0.91049 0.65212 0.09497 0.0
H2879 H 0.93521 0.71583 0.09784 0.0
C2880 C 0.9453 0.70898 0.1267 0.0
C2881 C 0.94534 0.69543 0.14213 0.0
C2882 C 0.90663 0.66426 0.08559 0.0
C2883 C 0.92452 0.68765 0.10764 0.0
C2884 C 0.89489 0.66087 0.06923 0.0
C2885 C 0.88933 0.6764 0.05708 0.0
C2886 C 0.91299 0.68332 0.08975 0.0
C2887 C 0.89629 0.69517 0.0615 0.0
C2888 C 0.93494 0.70519 0.10953 0.0
C2889 C 0.93441 0.67821 0.13976 0.0
N2890 N 0.90775 0.69811 0.07748 0.0
N2891 N 0.92453 0.67478 0.12283 0.0
H2892 H 0.37779 0.96053 0.13333 0.0
H2893 H 0.34327 0.87156 0.06534 0.0
H2894 H 0.32932 0.92273 0.1472 0.0
H2895 H 0.39505 0.90541 0.05409 0.0
H2896 H 0.33671 0.89165 0.09428 0.0
H2897 H 0.38356 0.94173 0.10361 0.0
C2898 C 0.36861 0.94803 0.13042 0.0
C2899 C 0.35341 0.94286 0.14321 0.0
C2900 C 0.34944 0.89483 0.08545 0.0
C2901 C 0.35947 0.92166 0.10859 0.0
C2902 C 0.35309 0.88345 0.06891 0.0
C2903 C 0.36962 0.88702 0.0574 0.0
C2904 C 0.36247 0.90988 0.09053 0.0
C2905 C 0.38208 0.90237 0.06262 0.0
C2906 C 0.37175 0.93744 0.11323 0.0
C2907 C 0.34135 0.92713 0.13792 0.0
N2908 N 0.37829 0.91324 0.07886 0.0
N2909 N 0.34467 0.91707 0.12109 0.0
H2910 H 0.64915 0.16228 0.06646 0.0
H2911 H 0.72564 0.09942 0.12898 0.0
H2912 H 0.71018 0.15782 0.05166 0.0
H2913 H 0.66911 0.11721 0.15051 0.0
H2914 H 0.71917 0.11715 0.09864 0.0
H2915 H 0.6549 0.14154 0.09506 0.0
C2916 C 0.6637 0.1566 0.06907 0.0
C2917 C 0.67916 0.16153 0.05657 0.0
C2918 C 0.70812 0.117 0.10996 0.0
C2919 C 0.68594 0.13801 0.08937 0.0
C2920 C 0.7118 0.10692 0.12733 0.0
C2921 C 0.69773 0.10637 0.14228 0.0
C2922 C 0.69021 0.12668 0.10743 0.0
C2923 C 0.68012 0.11648 0.13925 0.0
C2924 C 0.667 0.14488 0.08544 0.0
C2925 C 0.69778 0.15399 0.06069 0.0
N2926 N 0.67686 0.12615 0.12219 0.0
N2927 N 0.70067 0.14265 0.07677 0.0
H2928 H 0.5508 0.65975 0.84134 0.0
H2929 H 0.65301 0.62074 0.88171 0.0
H2930 H 0.56923 0.66731 0.90105 0.0
H2931 H 0.62748 0.60022 0.82784 0.0
H2932 H 0.62314 0.6389 0.88852 0.0
H2933 H 0.57916 0.63867 0.83561 0.0
C2934 C 0.56058 0.65659 0.85336 0.0
C2935 C 0.55749 0.66497 0.8718 0.0
C2936 C 0.624 0.63026 0.8753 0.0
C2937 C 0.5904 0.64149 0.86517 0.0
C2938 C 0.64105 0.61966 0.87148 0.0
C2939 C 0.64268 0.60839 0.85441 0.0
C2940 C 0.60853 0.62993 0.86182 0.0
C2941 C 0.6269 0.60858 0.84125 0.0
C2942 C 0.57689 0.64472 0.85004 0.0
C2943 C 0.57105 0.66099 0.88666 0.0
N2944 N 0.61053 0.61915 0.84521 0.0
N2945 N 0.58696 0.64965 0.883 0.0
H2946 H 0.38913 0.56581 0.90347 0.0
H2947 H 0.45181 0.62833 0.82711 0.0
H2948 H 0.39148 0.5524 0.84202 0.0
H2949 H 0.43194 0.65123 0.8824 0.0
H2950 H 0.43402 0.59811 0.83374 0.0
H2951 H 0.4097 0.5946 0.89762 0.0
C2952 C 0.39431 0.56876 0.88881 0.0
C2953 C 0.3888 0.55662 0.87324 0.0
C2954 C 0.43373 0.60971 0.84449 0.0
C2955 C 0.41218 0.58952 0.8664 0.0
C2956 C 0.44385 0.62703 0.84072 0.0
C2957 C 0.44386 0.64236 0.8544 0.0
C2958 C 0.4235 0.60756 0.86211 0.0
C2959 C 0.43314 0.63971 0.87172 0.0
C2960 C 0.40591 0.58522 0.88546 0.0
C2961 C 0.39572 0.56115 0.85449 0.0
N2962 N 0.42349 0.62265 0.8751 0.0
N2963 N 0.40704 0.57724 0.85158 0.0
H2964 H 0.42193 0.45194 0.82599 0.0
H2965 H 0.48268 0.38655 0.90168 0.0
H2966 H 0.39845 0.43124 0.88071 0.0
H2967 H 0.49851 0.39233 0.84104 0.0
H2968 H 0.454 0.40721 0.89583 0.0
H2969 H 0.45204 0.43385 0.83256 0.0
C2970 C 0.42309 0.44372 0.83946 0.0
C2971 C 0.40766 0.44359 0.85302 0.0
C2972 C 0.46386 0.40416 0.88384 0.0
C2973 C 0.44227 0.42287 0.86066 0.0
C2974 C 0.48027 0.39249 0.88721 0.0
C2975 C 0.4931 0.38797 0.87189 0.0
C2976 C 0.46025 0.41143 0.865 0.0
C2977 C 0.48924 0.39584 0.85336 0.0
C2978 C 0.44033 0.43342 0.8432 0.0
C2979 C 0.41008 0.43254 0.87015 0.0
N2980 N 0.47314 0.40716 0.85042 0.0
N2981 N 0.42705 0.42271 0.8735 0.0
H2982 H 0.59875 0.42239 0.82663 0.0
H2983 H 0.66113 0.48478 0.90342 0.0
H2984 H 0.61808 0.3996 0.88215 0.0
H2985 H 0.65834 0.49875 0.84212 0.0
H2986 H 0.64062 0.45598 0.89745 0.0
H2987 H 0.61644 0.45264 0.83339 0.0
C2988 C 0.60658 0.42372 0.84032 0.0
C2989 C 0.60645 0.40842 0.85402 0.0
C2990 C 0.6443 0.46547 0.88534 0.0
C2991 C 0.62669 0.44324 0.86189 0.0
C2992 C 0.65587 0.48195 0.88877 0.0
C2993 C 0.66124 0.49423 0.87328 0.0
C2994 C 0.63795 0.46131 0.86628 0.0
C2995 C 0.65421 0.48986 0.85453 0.0
C2996 C 0.61664 0.44106 0.84416 0.0
C2997 C 0.61699 0.4111 0.87144 0.0
N2998 N 0.64295 0.47374 0.85154 0.0
N2999 N 0.6266 0.42817 0.8749 0.0
H3000 H 0.54333 0.41141 0.17199 0.0
H3001 H 0.65801 0.42102 0.18486 0.0
H3002 H 0.57907 0.36197 0.1877 0.0
H3003 H 0.61988 0.46549 0.20795 0.0
H3004 H 0.62931 0.4004 0.17834 0.0
H3005 H 0.57139 0.43307 0.17856 0.0
C3006 C 0.55706 0.40513 0.17673 0.0
C3007 C 0.559 0.38483 0.17887 0.0
C3008 C 0.62727 0.41471 0.18477 0.0
C3009 C 0.59104 0.40932 0.18593 0.0
C3010 C 0.64358 0.42647 0.18838 0.0
C3011 C 0.64123 0.44491 0.19695 0.0
C3012 C 0.6085 0.42166 0.18932 0.0
C3013 C 0.62224 0.45128 0.20142 0.0
C3014 C 0.573 0.41745 0.18044 0.0
C3015 C 0.57709 0.37745 0.1852 0.0
N3016 N 0.60654 0.43974 0.19739 0.0
N3017 N 0.59246 0.38963 0.18823 0.0
H3018 H 0.65777 0.55077 0.20537 0.0
H3019 H 0.61975 0.6541 0.16707 0.0
H3020 H 0.66582 0.57035 0.14609 0.0
H3021 H 0.59956 0.62789 0.22072 0.0
H3022 H 0.63757 0.62418 0.15955 0.0
H3023 H 0.63696 0.57916 0.2116 0.0
C3024 C 0.65483 0.56086 0.19354 0.0
C3025 C 0.66337 0.55812 0.17511 0.0
C3026 C 0.62907 0.6249 0.17287 0.0
C3027 C 0.64007 0.59103 0.18232 0.0
C3028 C 0.61869 0.64198 0.17712 0.0
C3029 C 0.6076 0.64343 0.19433 0.0
C3030 C 0.62871 0.60921 0.18608 0.0
C3031 C 0.60778 0.62745 0.20722 0.0
C3032 C 0.64309 0.57717 0.19716 0.0
C3033 C 0.65948 0.57195 0.16049 0.0
N3034 N 0.61814 0.61105 0.20285 0.0
N3035 N 0.64825 0.58788 0.16443 0.0
H3036 H 0.48359 0.66144 0.14773 0.0
H3037 H 0.42247 0.59742 0.22399 0.0
H3038 H 0.49786 0.65864 0.20898 0.0
H3039 H 0.39877 0.61801 0.1693 0.0
H3040 H 0.45244 0.61567 0.21738 0.0
H3041 H 0.45497 0.64076 0.15379 0.0
C3042 C 0.48085 0.65617 0.1624 0.0
C3043 C 0.49321 0.66154 0.17784 0.0
C3044 C 0.44072 0.61602 0.20676 0.0
C3045 C 0.46048 0.63802 0.18491 0.0
C3046 C 0.42355 0.60564 0.21052 0.0
C3047 C 0.40809 0.60568 0.19697 0.0
C3048 C 0.44257 0.62654 0.18928 0.0
C3049 C 0.41042 0.61675 0.17984 0.0
C3050 C 0.46448 0.64449 0.16587 0.0
C3051 C 0.48896 0.65447 0.1966 0.0
N3052 N 0.42734 0.62663 0.17645 0.0
N3053 N 0.47294 0.64307 0.19962 0.0
H3054 H 0.43475 0.39828 0.16682 0.0
H3055 H 0.39168 0.49828 0.20883 0.0
H3056 H 0.45056 0.42142 0.22328 0.0
H3057 H 0.3859 0.48085 0.14864 0.0
H3058 H 0.41315 0.47023 0.21457 0.0
H3059 H 0.41655 0.42809 0.16005 0.0
C3060 C 0.43483 0.40974 0.17766 0.0
C3061 C 0.44475 0.40743 0.19547 0.0
C3062 C 0.4074 0.47265 0.20004 0.0
C3063 C 0.42312 0.44153 0.18804 0.0
C3064 C 0.3953 0.48877 0.19672 0.0
C3065 C 0.38731 0.49206 0.17814 0.0
C3066 C 0.4113 0.45951 0.18473 0.0
C3067 C 0.39191 0.47888 0.16313 0.0
C3068 C 0.42418 0.42675 0.17384 0.0
C3069 C 0.44327 0.42255 0.20929 0.0
N3070 N 0.4035 0.46314 0.16677 0.0
N3071 N 0.43268 0.4389 0.20531 0.0
H3072 H 0.82576 0.6288 0.59891 0.0
H3073 H 0.90235 0.56588 0.66094 0.0
H3074 H 0.88143 0.65128 0.61824 0.0
H3075 H 0.8408 0.55276 0.65911 0.0
H3076 H 0.89648 0.59462 0.64033 0.0
H3077 H 0.83233 0.59853 0.61665 0.0
C3078 C 0.83943 0.62739 0.60675 0.0
C3079 C 0.85324 0.6426 0.6066 0.0
C3080 C 0.88429 0.58532 0.64423 0.0
C3081 C 0.8609 0.60777 0.62687 0.0
C3082 C 0.88766 0.56887 0.65585 0.0
C3083 C 0.87208 0.55684 0.6615 0.0
C3084 C 0.86519 0.5897 0.63812 0.0
C3085 C 0.85328 0.56143 0.65473 0.0
C3086 C 0.84317 0.61005 0.61684 0.0
C3087 C 0.87065 0.63983 0.61715 0.0
N3088 N 0.85035 0.57752 0.64341 0.0
N3089 N 0.874 0.62276 0.62677 0.0
H3090 H 0.3924 0.86698 0.62866 0.0
H3091 H 0.5077 0.87524 0.63676 0.0
H3092 H 0.42902 0.83998 0.58514 0.0
H3093 H 0.47146 0.86452 0.68715 0.0
H3094 H 0.47926 0.86856 0.61561 0.0
H3095 H 0.42157 0.87339 0.64861 0.0
C3096 C 0.40661 0.86257 0.62327 0.0
C3097 C 0.40838 0.85294 0.6053 0.0
C3098 C 0.47764 0.86778 0.63132 0.0
C3099 C 0.44168 0.86042 0.62779 0.0
C3100 C 0.4938 0.87154 0.64335 0.0
C3101 C 0.49185 0.87087 0.66375 0.0
C3102 C 0.45939 0.86372 0.63982 0.0
C3103 C 0.47351 0.8659 0.67154 0.0
C3104 C 0.42319 0.86613 0.63465 0.0
C3105 C 0.4271 0.84735 0.599 0.0
N3106 N 0.45797 0.86278 0.65961 0.0
N3107 N 0.44309 0.85132 0.61016 0.0
H3108 H 0.21026 0.49843 0.6583 0.0
H3109 H 0.16995 0.39625 0.61993 0.0
H3110 H 0.14995 0.4812 0.66376 0.0
H3111 H 0.22394 0.42132 0.59913 0.0
H3112 H 0.16299 0.42652 0.6373 0.0
H3113 H 0.21617 0.46993 0.63743 0.0
C3114 C 0.19816 0.48891 0.65469 0.0
C3115 C 0.17951 0.49233 0.66247 0.0
C3116 C 0.17626 0.42547 0.62875 0.0
C3117 C 0.18631 0.45927 0.63931 0.0
C3118 C 0.18018 0.40818 0.61861 0.0
C3119 C 0.19732 0.4063 0.60749 0.0
C3120 C 0.18974 0.44093 0.62815 0.0
C3121 C 0.21047 0.42208 0.60739 0.0
C3122 C 0.20157 0.47252 0.64296 0.0
C3123 C 0.16451 0.47912 0.65793 0.0
N3124 N 0.20643 0.43868 0.61755 0.0
N3125 N 0.16826 0.46309 0.64679 0.0
H3126 H 0.62844 0.22191 0.59868 0.0
H3127 H 0.57275 0.14681 0.66925 0.0
H3128 H 0.65477 0.16918 0.62102 0.0
H3129 H 0.55162 0.20475 0.65662 0.0
H3130 H 0.60125 0.15303 0.64844 0.0
H3131 H 0.59878 0.21444 0.61709 0.0
C3132 C 0.62799 0.2087 0.60736 0.0
C3133 C 0.6441 0.19597 0.6079 0.0
C3134 C 0.59028 0.16432 0.65005 0.0
C3135 C 0.61002 0.18729 0.62906 0.0
C3136 C 0.574 0.16074 0.66185 0.0
C3137 C 0.55974 0.17522 0.66452 0.0
C3138 C 0.59233 0.18253 0.6408 0.0
C3139 C 0.56206 0.19305 0.65467 0.0
C3140 C 0.611 0.20442 0.61784 0.0
C3141 C 0.6426 0.1791 0.61951 0.0
N3142 N 0.57807 0.19622 0.64331 0.0
N3143 N 0.62588 0.17525 0.62957 0.0
H3144 H 0.8415 0.48735 0.373 0.0
H3145 H 0.87889 0.41701 0.45886 0.0
H3146 H 0.89738 0.49395 0.40109 0.0
H3147 H 0.82771 0.40517 0.42403 0.0
H3148 H 0.88485 0.44636 0.43959 0.0
H3149 H 0.83481 0.45876 0.39359 0.0
C3150 C 0.85221 0.48286 0.38376 0.0
C3151 C 0.8699 0.49297 0.3856 0.0
C3152 C 0.87241 0.43726 0.43604 0.0
C3153 C 0.86258 0.46026 0.40898 0.0
C3154 C 0.86914 0.42026 0.44689 0.0
C3155 C 0.85313 0.40813 0.44267 0.0
C3156 C 0.85944 0.44239 0.42099 0.0
C3157 C 0.84037 0.41393 0.42767 0.0
C3158 C 0.84848 0.46651 0.3954 0.0
C3159 C 0.8835 0.48655 0.39946 0.0
N3160 N 0.84383 0.43057 0.41736 0.0
N3161 N 0.87957 0.47057 0.41064 0.0
H3162 H 0.62901 0.82443 0.45068 0.0
H3163 H 0.56683 0.9003 0.38703 0.0
H3164 H 0.65157 0.87997 0.43114 0.0
H3165 H 0.55291 0.83901 0.39031 0.0
H3166 H 0.59557 0.89455 0.40762 0.0
H3167 H 0.59894 0.83073 0.43246 0.0
C3168 C 0.62766 0.83802 0.44269 0.0
C3169 C 0.64282 0.85188 0.44292 0.0
C3170 C 0.58612 0.88239 0.40402 0.0
C3171 C 0.60823 0.85921 0.42208 0.0
C3172 C 0.56969 0.88568 0.39238 0.0
C3173 C 0.55738 0.87015 0.38717 0.0
C3174 C 0.59026 0.8634 0.41061 0.0
C3175 C 0.56177 0.85146 0.39435 0.0
C3176 C 0.61043 0.8416 0.43232 0.0
C3177 C 0.64015 0.86916 0.43216 0.0
N3178 N 0.57786 0.84859 0.40569 0.0
N3179 N 0.62319 0.87235 0.42227 0.0
H3180 H 0.16869 0.65327 0.4304 0.0
H3181 H 0.20851 0.55055 0.3923 0.0
H3182 H 0.2227 0.62785 0.45074 0.0
H3183 H 0.14886 0.56923 0.38465 0.0
H3184 H 0.2144 0.579 0.41319 0.0
H3185 H 0.16162 0.6232 0.41269 0.0
C3186 C 0.17891 0.64129 0.43153 0.0
C3187 C 0.19609 0.64302 0.44262 0.0
C3188 C 0.19994 0.57676 0.40716 0.0
C3189 C 0.18837 0.60862 0.42161 0.0
C3190 C 0.19653 0.5604 0.39541 0.0
C3191 C 0.17807 0.55737 0.38703 0.0
C3192 C 0.18488 0.59038 0.41028 0.0
C3193 C 0.16326 0.571 0.39096 0.0
C3194 C 0.17492 0.62413 0.4212 0.0
C3195 C 0.20921 0.6272 0.44252 0.0
N3196 N 0.16701 0.58697 0.40218 0.0
N3197 N 0.20509 0.61072 0.4322 0.0
H3198 H 0.48525 0.14714 0.3888 0.0
H3199 H 0.4225 0.22309 0.45221 0.0
H3200 H 0.49923 0.20834 0.39316 0.0
H3201 H 0.40258 0.1652 0.43722 0.0
H3202 H 0.45258 0.21701 0.43393 0.0
H3203 H 0.45707 0.15237 0.41029 0.0
C3204 C 0.48254 0.16162 0.3946 0.0
C3205 C 0.4947 0.17728 0.38945 0.0
C3206 C 0.44169 0.20557 0.43482 0.0
C3207 C 0.46238 0.18348 0.41382 0.0
C3208 C 0.42447 0.20903 0.44524 0.0
C3209 C 0.41003 0.1945 0.4467 0.0
C3210 C 0.44457 0.18744 0.42568 0.0
C3211 C 0.41345 0.17662 0.43723 0.0
C3212 C 0.46642 0.16463 0.40676 0.0
C3213 C 0.49047 0.1958 0.39714 0.0
N3214 N 0.43033 0.1736 0.42717 0.0
N3215 N 0.47463 0.1984 0.40889 0.0
H3216 H 0.5993 0.82437 0.62905 0.0
H3217 H 0.66069 0.90137 0.56564 0.0
H3218 H 0.61474 0.88203 0.64926 0.0
H3219 H 0.65792 0.84002 0.55189 0.0
H3220 H 0.63969 0.89562 0.59407 0.0
H3221 H 0.61718 0.8307 0.59874 0.0
C3222 C 0.60629 0.83843 0.6271 0.0
C3223 C 0.60503 0.85284 0.64167 0.0
C3224 C 0.64346 0.88344 0.58472 0.0
C3225 C 0.62553 0.8602 0.60689 0.0
C3226 C 0.65532 0.88674 0.56845 0.0
C3227 C 0.6608 0.8712 0.5563 0.0
C3228 C 0.63701 0.86441 0.5889 0.0
C3229 C 0.65368 0.85248 0.56066 0.0
C3230 C 0.61646 0.84203 0.60976 0.0
C3231 C 0.61453 0.87072 0.63829 0.0
N3232 N 0.64219 0.84959 0.57664 0.0
N3233 N 0.62431 0.87389 0.62128 0.0
H3234 H 0.65874 0.20978 0.4999 0.0
H3235 H 0.62015 0.16829 0.39815 0.0
H3236 H 0.66479 0.14947 0.48293 0.0
H3237 H 0.59987 0.22281 0.42246 0.0
H3238 H 0.63757 0.16165 0.42848 0.0
H3239 H 0.63775 0.21533 0.47141 0.0
C3240 C 0.65524 0.19759 0.49044 0.0
C3241 C 0.66324 0.17905 0.49393 0.0
C3242 C 0.62912 0.17497 0.42726 0.0
C3243 C 0.6399 0.18546 0.46087 0.0
C3244 C 0.61895 0.17871 0.40993 0.0
C3245 C 0.60797 0.19591 0.40781 0.0
C3246 C 0.62868 0.18869 0.44252 0.0
C3247 C 0.60802 0.20929 0.42341 0.0
C3248 C 0.64344 0.20081 0.47406 0.0
C3249 C 0.6588 0.16395 0.4808 0.0
N3250 N 0.6182 0.20542 0.44004 0.0
N3251 N 0.64757 0.1675 0.46478 0.0
H3252 H 0.8406 0.65837 0.49871 0.0
H3253 H 0.88334 0.61679 0.39866 0.0
H3254 H 0.90148 0.66225 0.48313 0.0
H3255 H 0.82707 0.5997 0.42143 0.0
H3256 H 0.88996 0.63416 0.429 0.0
H3257 H 0.83504 0.63723 0.47036 0.0
C3258 C 0.85289 0.65436 0.48958 0.0
C3259 C 0.8716 0.66176 0.49343 0.0
C3260 C 0.87625 0.62641 0.42745 0.0
C3261 C 0.86523 0.63824 0.46053 0.0
C3262 C 0.87251 0.61626 0.41012 0.0
C3263 C 0.8548 0.60622 0.40755 0.0
C3264 C 0.86204 0.62689 0.44226 0.0
C3265 C 0.84098 0.60711 0.42273 0.0
C3266 C 0.84968 0.64246 0.47328 0.0
C3267 C 0.88687 0.65669 0.48072 0.0
N3268 N 0.84487 0.61726 0.43937 0.0
N3269 N 0.88333 0.64538 0.46477 0.0
H3270 H 0.38478 0.90233 0.48008 0.0
H3271 H 0.45259 0.82626 0.42232 0.0
H3272 H 0.39465 0.84331 0.49963 0.0
H3273 H 0.43101 0.87994 0.3973 0.0
H3274 H 0.43463 0.83355 0.45236 0.0
H3275 H 0.40551 0.89601 0.4516 0.0
C3276 C 0.39158 0.88812 0.4785 0.0
C3277 C 0.3881 0.87336 0.49227 0.0
C3278 C 0.43398 0.84381 0.44034 0.0
C3279 C 0.41172 0.86593 0.45966 0.0
C3280 C 0.44419 0.83964 0.42314 0.0
C3281 C 0.44375 0.85271 0.40731 0.0
C3282 C 0.42316 0.86118 0.44178 0.0
C3283 C 0.43249 0.86976 0.40926 0.0
C3284 C 0.40332 0.88449 0.46221 0.0
C3285 C 0.39721 0.8552 0.48953 0.0
N3286 N 0.42271 0.87351 0.42616 0.0
N3287 N 0.40854 0.85197 0.47351 0.0
H3288 H 0.21028 0.39189 0.49997 0.0
H3289 H 0.16877 0.43038 0.39824 0.0
H3290 H 0.15018 0.38471 0.48262 0.0
H3291 H 0.2224 0.45195 0.42346 0.0
H3292 H 0.16224 0.41252 0.42834 0.0
H3293 H 0.21554 0.41322 0.4717 0.0
C3294 C 0.19807 0.39521 0.49047 0.0
C3295 C 0.17968 0.38682 0.4938 0.0
C3296 C 0.17533 0.42134 0.42736 0.0
C3297 C 0.18575 0.41054 0.46099 0.0
C3298 C 0.179 0.43177 0.41018 0.0
C3299 C 0.19593 0.44323 0.40837 0.0
C3300 C 0.18886 0.42202 0.44279 0.0
C3301 C 0.2091 0.44343 0.42415 0.0
C3302 C 0.20112 0.40721 0.47422 0.0
C3303 C 0.16455 0.39102 0.48061 0.0
N3304 N 0.20531 0.433 0.44063 0.0
N3305 N 0.16795 0.40245 0.46471 0.0
H3306 H 0.41276 0.17048 0.5438 0.0
H3307 H 0.42279 0.18169 0.65895 0.0
H3308 H 0.36294 0.18124 0.58086 0.0
H3309 H 0.46587 0.20665 0.6204 0.0
H3310 H 0.40228 0.1741 0.63046 0.0
H3311 H 0.43435 0.17714 0.57185 0.0
C3312 C 0.40637 0.17411 0.55781 0.0
C3313 C 0.38599 0.17494 0.56004 0.0
C3314 C 0.41627 0.18117 0.62828 0.0
C3315 C 0.41047 0.18209 0.59209 0.0
C3316 C 0.42798 0.1854 0.64447 0.0
C3317 C 0.446 0.19479 0.64195 0.0
C3318 C 0.42284 0.18598 0.60944 0.0
C3319 C 0.45199 0.19948 0.62291 0.0
C3320 C 0.41866 0.17786 0.57376 0.0
C3321 C 0.37849 0.17972 0.57855 0.0
N3322 N 0.44051 0.19489 0.60732 0.0
N3323 N 0.39069 0.18292 0.59387 0.0
H3324 H 0.82537 0.45135 0.62907 0.0
H3325 H 0.90296 0.39145 0.56527 0.0
H3326 H 0.88164 0.43317 0.65106 0.0
H3327 H 0.84131 0.39191 0.55251 0.0
H3328 H 0.89678 0.41173 0.59418 0.0
H3329 H 0.83212 0.43389 0.59867 0.0
C3330 C 0.83921 0.44383 0.62754 0.0
C3331 C 0.85313 0.44423 0.64265 0.0
C3332 C 0.88463 0.4076 0.58492 0.0
C3333 C 0.86099 0.42428 0.60765 0.0
C3334 C 0.88818 0.39618 0.56838 0.0
C3335 C 0.87266 0.39022 0.55639 0.0
C3336 C 0.86542 0.41323 0.58947 0.0
C3337 C 0.85374 0.39653 0.56114 0.0
C3338 C 0.84305 0.4339 0.61011 0.0
C3339 C 0.87074 0.43408 0.6397 0.0
N3340 N 0.85064 0.40767 0.57732 0.0
N3341 N 0.87418 0.42462 0.62255 0.0
H3342 H 0.1681 0.61828 0.65217 0.0
H3343 H 0.21015 0.65803 0.55112 0.0
H3344 H 0.22315 0.59889 0.62828 0.0
H3345 H 0.14959 0.66329 0.56751 0.0
H3346 H 0.21567 0.63696 0.57954 0.0
H3347 H 0.16153 0.6358 0.6219 0.0
C3348 C 0.17865 0.61729 0.64048 0.0
C3349 C 0.19599 0.60652 0.64271 0.0
C3350 C 0.20111 0.64249 0.57678 0.0
C3351 C 0.18884 0.62738 0.60808 0.0
C3352 C 0.19792 0.65434 0.56044 0.0
C3353 C 0.17931 0.66213 0.5568 0.0
C3354 C 0.18566 0.63869 0.58978 0.0
C3355 C 0.16413 0.65746 0.56976 0.0
C3356 C 0.17495 0.62753 0.6232 0.0
C3357 C 0.20953 0.60685 0.62725 0.0
N3358 N 0.16765 0.64618 0.58574 0.0
N3359 N 0.20569 0.6171 0.61065 0.0
H3360 H 0.98668 0.24722 0.30959 0.0
H3361 H 0.06476 0.31078 0.24959 0.0
H3362 H 0.04684 0.25409 0.32713 0.0
H3363 H 1.00305 0.32351 0.2506 0.0
H3364 H 0.05881 0.28271 0.27129 0.0
H3365 H 0.99312 0.26821 0.28113 0.0
C3366 C 1.00128 0.25287 0.30728 0.0
C3367 C 0.01617 0.24918 0.32085 0.0
C3368 C 0.04657 0.29151 0.26646 0.0
C3369 C 0.02368 0.27282 0.28838 0.0
C3370 C 0.04995 0.30741 0.25403 0.0
C3371 C 0.0344 0.31955 0.24854 0.0
C3372 C 0.02749 0.28761 0.27305 0.0
C3373 C 0.01547 0.31463 0.25475 0.0
C3374 C 1.00493 0.26487 0.29112 0.0
C3375 C 0.03486 0.25685 0.31718 0.0
N3376 N 0.01254 0.29909 0.26673 0.0
N3377 N 0.03807 0.26835 0.30134 0.0
H3378 H 0.74041 0.06394 0.24875 0.0
H3379 H 0.80067 0.98539 0.31135 0.0
H3380 H 0.72343 1.00344 0.25359 0.0
H3381 H 0.7971 0.0464 0.3267 0.0
H3382 H 0.77899 0.99171 0.28334 0.0
H3383 H 0.76809 0.05739 0.27075 0.0
C3384 C 0.74269 0.04925 0.25418 0.0
C3385 C 0.7295 0.03427 0.24958 0.0
C3386 C 0.78321 1.00371 0.29275 0.0
C3387 C 0.7611 0.02666 0.27437 0.0
C3388 C 0.7956 1.00013 0.30863 0.0
C3389 C 0.80044 0.01535 0.32145 0.0
C3390 C 0.77604 0.02269 0.28951 0.0
C3391 C 0.79347 0.0342 0.3173 0.0
C3392 C 0.7584 0.04555 0.26675 0.0
C3393 C 0.73311 0.01547 0.25702 0.0
N3394 N 0.7816 0.03735 0.30172 0.0
N3395 N 0.74854 0.01221 0.26907 0.0
H3396 H 0.04866 0.72574 0.2498 0.0
H3397 H 1.0033 0.7975 0.32631 0.0
H3398 H 0.98722 0.73969 0.24934 0.0
H3399 H 0.06373 0.80202 0.30901 0.0
H3400 H 0.99698 0.77677 0.298 0.0
H3401 H 0.05467 0.75391 0.27086 0.0
C3402 C 0.03645 0.73493 0.25395 0.0
C3403 C 0.01738 0.73031 0.24799 0.0
C3404 C 0.01156 0.78251 0.30019 0.0
C3405 C 0.02413 0.76237 0.27238 0.0
C3406 C 0.01522 0.79425 0.31642 0.0
C3407 C 0.03414 0.80129 0.32012 0.0
C3408 C 0.02701 0.77736 0.28777 0.0
C3409 C 0.04897 0.79684 0.30671 0.0
C3410 C 0.03992 0.75104 0.2659 0.0
C3411 C 1.00213 0.74276 0.25364 0.0
N3412 N 0.04517 0.78482 0.2913 0.0
N3413 N 1.00577 0.75803 0.26587 0.0
H3414 H 0.32747 0.04859 0.25263 0.0
H3415 H 0.2499 1.00297 0.32323 0.0
H3416 H 0.30893 0.98865 0.24671 0.0
H3417 H 0.2502 0.06464 0.31046 0.0
H3418 H 0.27118 0.99728 0.29515 0.0
H3419 H 0.29931 0.05494 0.27362 0.0
C3420 C 0.31735 0.03679 0.25563 0.0
C3421 C 0.32065 0.01799 0.24809 0.0
C3422 C 0.26635 0.01202 0.29826 0.0
C3423 C 0.28849 0.02516 0.27229 0.0
C3424 C 0.25427 0.0153 0.31431 0.0
C3425 C 0.24843 0.03433 0.31921 0.0
C3426 C 0.27309 0.02795 0.28729 0.0
C3427 C 0.25438 0.04976 0.30714 0.0
C3428 C 0.30122 0.04047 0.26751 0.0
C3429 C 0.30696 1.00333 0.25226 0.0
N3430 N 0.26673 0.04628 0.29192 0.0
N3431 N 0.29165 1.00713 0.26439 0.0
H3432 H 0.98551 0.80015 0.74039 0.0
H3433 H 0.06374 0.73924 0.80283 0.0
H3434 H 0.04649 0.79595 0.72503 0.0
H3435 H 1.00293 0.72318 0.79865 0.0
H3436 H 0.05737 0.76704 0.78096 0.0
H3437 H 0.99166 0.77864 0.76856 0.0
C3438 C 1.00021 0.79498 0.74314 0.0
C3439 C 0.01546 0.79959 0.73027 0.0
C3440 C 0.04541 0.75754 0.78509 0.0
C3441 C 0.02263 0.77538 0.7624 0.0
C3442 C 0.04902 0.74178 0.79761 0.0
C3443 C 0.03389 0.72879 0.80233 0.0
C3444 C 0.02649 0.7605 0.77763 0.0
C3445 C 0.01506 0.7327 0.79513 0.0
C3446 C 1.0037 0.78269 0.75912 0.0
C3447 C 0.03427 0.79249 0.73446 0.0
N3448 N 0.0119 0.74816 0.7831 0.0
N3449 N 0.03732 0.78072 0.75013 0.0
H3450 H 0.31069 0.06469 0.8012 0.0
H3451 H 0.24812 0.9868 0.74013 0.0
H3452 H 0.32488 1.00334 0.79893 0.0
H3453 H 0.25448 0.04711 0.72301 0.0
H3454 H 0.26954 0.99306 0.76831 0.0
H3455 H 0.28302 0.05862 0.77907 0.0
C3456 C 0.30774 0.04992 0.79637 0.0
C3457 C 0.32017 0.03453 0.8017 0.0
C3458 C 0.26601 1.00493 0.75846 0.0
C3459 C 0.28864 0.02749 0.77666 0.0
C3460 C 0.25378 1.00139 0.74246 0.0
C3461 C 0.24975 0.0164 0.7291 0.0
C3462 C 0.27388 0.02369 0.76129 0.0
C3463 C 0.25746 0.03506 0.7328 0.0
C3464 C 0.29206 0.04648 0.78369 0.0
C3465 C 0.31576 0.01565 0.79496 0.0
N3466 N 0.26917 0.03817 0.74852 0.0
N3467 N 0.3004 0.01266 0.78275 0.0
H3468 H 0.04566 0.23645 0.74756 0.0
H3469 H 0.0091 0.34434 0.76954 0.0
H3470 H 0.01855 0.27418 0.70486 0.0
H3471 H 0.01129 0.30176 0.81589 0.0
H3472 H 0.01577 0.3187 0.74591 0.0
H3473 H 0.03647 0.26002 0.77328 0.0
C3474 C 0.03783 0.24961 0.74358 0.0
C3475 C 0.03296 0.25334 0.72396 0.0
C3476 C 0.01465 0.31482 0.76121 0.0
C3477 C 0.02253 0.28017 0.75315 0.0
C3478 C 0.01085 0.32948 0.77471 0.0
C3479 C 0.00959 0.32513 0.79466 0.0
C3480 C 0.01763 0.29558 0.76762 0.0
C3481 C 0.01198 0.30562 0.80058 0.0
C3482 C 0.03249 0.26295 0.75825 0.0
C3483 C 0.02267 0.27058 0.71969 0.0
N3484 N 0.01614 0.2915 0.78709 0.0
N3485 N 0.01796 0.28331 0.73408 0.0
H3486 H 0.79935 1.00238 0.72417 0.0
H3487 H 0.72426 0.04776 0.79723 0.0
H3488 H 0.80191 0.06338 0.73965 0.0
H3489 H 0.74144 0.98729 0.80156 0.0
H3490 H 0.75238 0.05397 0.77614 0.0
H3491 H 0.77817 0.99638 0.75226 0.0
C3492 C 0.7956 0.01449 0.73365 0.0
C3493 C 0.80222 0.03345 0.72953 0.0
C3494 C 0.75019 0.03941 0.78193 0.0
C3495 C 0.77774 0.02671 0.7615 0.0
C3496 C 0.73409 0.03581 0.79387 0.0
C3497 C 0.73043 0.01692 0.80097 0.0
C3498 C 0.76249 0.02391 0.77663 0.0
C3499 C 0.74373 1.00204 0.79634 0.0
C3500 C 0.7836 0.01102 0.74972 0.0
C3501 C 0.79708 0.04857 0.74234 0.0
N3502 N 0.759 1.00577 0.78413 0.0
N3503 N 0.7848 0.04495 0.75758 0.0
H3504 H 0.32344 0.24921 1.00187 0.0
H3505 H 0.25274 0.32664 0.04716 0.0
H3506 H 0.30976 0.24908 0.06334 0.0
H3507 H 0.24728 0.30877 0.98699 0.0
H3508 H 0.27326 0.29816 0.05351 0.0
H3509 H 0.29533 0.2704 0.9959 0.0
C3510 C 0.3143 0.25344 0.01408 0.0
C3511 C 0.31897 0.24754 0.03316 0.0
C3512 C 0.26736 0.30028 0.03898 0.0
C3513 C 0.28703 0.27211 0.02646 0.0
C3514 C 0.25574 0.31659 0.0353 0.0
C3515 C 0.24849 0.32017 0.01645 0.0
C3516 C 0.27218 0.28764 0.02361 0.0
C3517 C 0.25264 0.30657 1.0017 0.0
C3518 C 0.29823 0.26547 0.01065 0.0
C3519 C 0.30662 0.25331 0.04843 0.0
N3520 N 0.26453 0.29106 1.00551 0.0
N3521 N 0.29141 0.26563 0.04481 0.0
H3522 H 0.32341 0.8014 0.04707 0.0
H3523 H 0.25124 0.72509 1.00176 0.0
H3524 H 0.30854 0.80262 0.98588 0.0
H3525 H 0.24788 0.74141 0.06251 0.0
H3526 H 0.27166 0.75366 0.99547 0.0
H3527 H 0.29549 0.78003 0.05318 0.0
C3528 C 0.31407 0.79735 0.03495 0.0
C3529 C 0.31836 0.80364 0.0159 0.0
C3530 C 0.26622 0.7512 0.01012 0.0
C3531 C 0.28657 0.77888 0.02276 0.0
C3532 C 0.25464 0.73485 0.01375 0.0
C3533 C 0.24803 0.73079 0.03274 0.0
C3534 C 0.27166 0.76339 0.02566 0.0
C3535 C 0.25271 0.744 0.04768 0.0
C3536 C 0.2981 0.78521 0.03847 0.0
C3537 C 0.30573 0.79808 1.00076 0.0
N3538 N 0.26457 0.75953 0.04389 0.0
N3539 N 0.2906 0.78568 1.00445 0.0
H3540 H 0.72348 0.25363 0.04684 0.0
H3541 H 0.79975 0.32572 1.00146 0.0
H3542 H 0.74072 0.24894 0.98643 0.0
H3543 H 0.80112 0.31083 0.06265 0.0
H3544 H 0.77836 0.29777 0.99539 0.0
H3545 H 0.75167 0.27461 0.053 0.0
C3546 C 0.73332 0.25691 0.03489 0.0
C3547 C 0.72967 0.24971 0.01603 0.0
C3548 C 0.78359 0.3004 0.01009 0.0
C3549 C 0.76186 0.27393 0.02298 0.0
C3550 C 0.79573 0.31638 0.01359 0.0
C3551 C 0.80207 0.32065 0.03262 0.0
C3552 C 0.7773 0.28888 0.02581 0.0
C3553 C 0.79656 0.30802 0.04777 0.0
C3554 C 0.74947 0.26879 0.03846 0.0
C3555 C 0.743 0.25424 1.00115 0.0
N3556 N 0.78415 0.2929 0.0441 0.0
N3557 N 0.75834 0.26638 1.00486 0.0
H3558 H 0.80395 0.7398 0.98778 0.0
H3559 H 0.74 0.80058 0.06482 0.0
H3560 H 0.79679 0.72243 0.04794 0.0
H3561 H 0.7271 0.79835 1.0032 0.0
H3562 H 0.76788 0.77851 0.05928 0.0
H3563 H 0.78259 0.76802 0.9939 0.0
C3564 C 0.79815 0.74209 1.00232 0.0
C3565 C 0.80191 0.72864 0.01731 0.0
C3566 C 0.75906 0.78313 0.04697 0.0
C3567 C 0.7778 0.76088 0.02444 0.0
C3568 C 0.74328 0.79576 0.05011 0.0
C3569 C 0.73116 0.80107 0.03448 0.0
C3570 C 0.76291 0.77617 0.02803 0.0
C3571 C 0.73596 0.79438 0.01569 0.0
C3572 C 0.78594 0.75812 1.00578 0.0
C3573 C 0.79401 0.73231 0.0359 0.0
N3574 N 0.75143 0.78224 0.01299 0.0
N3575 N 0.7823 0.74804 0.03893 0.0
H3576 H 0.48286 0.75261 0.81206 0.0
H3577 H 0.56124 0.80945 0.74617 0.0
H3578 H 0.54497 0.75059 0.82248 0.0
H3579 H 0.50261 0.83057 0.75581 0.0
H3580 H 0.55411 0.78141 0.76739 0.0
H3581 H 0.48874 0.77485 0.78437 0.0
C3582 C 0.49772 0.75649 0.80823 0.0
C3583 C 0.51345 0.74995 0.8196 0.0
C3584 C 0.54278 0.79211 0.76464 0.0
C3585 C 0.52026 0.77507 0.78812 0.0
C3586 C 0.54682 0.80806 0.75253 0.0
C3587 C 0.53259 0.82249 0.74945 0.0
C3588 C 0.52428 0.79041 0.77341 0.0
C3589 C 0.51411 0.81993 0.75804 0.0
C3590 C 0.50105 0.76924 0.79258 0.0
C3591 C 0.53243 0.7555 0.81416 0.0
N3592 N 0.51049 0.80424 0.76965 0.0
N3593 N 0.53531 0.76777 0.79885 0.0
H3594 H 0.30214 0.48711 0.81053 0.0
H3595 H 0.23934 0.56504 0.74969 0.0
H3596 H 0.29686 0.54762 0.82732 0.0
H3597 H 0.22446 0.50393 0.75337 0.0
H3598 H 0.26731 0.55902 0.77153 0.0
H3599 H 0.28034 0.49346 0.78268 0.0
C3600 C 0.29667 0.50177 0.80817 0.0
C3601 C 0.30108 0.5168 0.82136 0.0
C3602 C 0.25802 0.54693 0.7673 0.0
C3603 C 0.27648 0.52419 0.78956 0.0
C3604 C 0.24216 0.55034 0.75481 0.0
C3605 C 0.22948 0.535 0.74995 0.0
C3606 C 0.26138 0.528 0.77454 0.0
C3607 C 0.23375 0.51621 0.757 0.0
C3608 C 0.28421 0.50536 0.79236 0.0
C3609 C 0.29358 0.53555 0.81764 0.0
N3610 N 0.2493 0.51324 0.76896 0.0
N3611 N 0.28162 0.53871 0.80212 0.0
H3612 H 0.48673 0.24012 0.74842 0.0
H3613 H 0.56458 0.30352 0.80893 0.0
H3614 H 0.5484 0.22724 0.74983 0.0
H3615 H 0.50429 0.29672 0.82605 0.0
H3616 H 0.55828 0.2826 0.78038 0.0
H3617 H 0.49263 0.26825 0.77005 0.0
C3618 C 0.50153 0.24349 0.75291 0.0
C3619 C 0.51707 0.23128 0.74756 0.0
C3620 C 0.54641 0.28595 0.79029 0.0
C3621 C 0.52392 0.26328 0.77202 0.0
C3622 C 0.54998 0.29789 0.80651 0.0
C3623 C 0.53501 0.30159 0.81999 0.0
C3624 C 0.52766 0.27803 0.7874 0.0
C3625 C 0.51633 0.29396 0.81617 0.0
C3626 C 0.50488 0.25942 0.76531 0.0
C3627 C 0.53599 0.23619 0.75385 0.0
N3628 N 0.5132 0.28251 0.80028 0.0
N3629 N 0.53888 0.25175 0.76581 0.0
H3630 H 0.80976 0.4869 0.74871 0.0
H3631 H 0.74735 0.56445 0.8104 0.0
H3632 H 0.82467 0.54801 0.7525 0.0
H3633 H 0.75258 0.50373 0.82644 0.0
H3634 H 0.76901 0.55839 0.78237 0.0
H3635 H 0.78187 0.49287 0.77059 0.0
C3636 C 0.80696 0.5016 0.75385 0.0
C3637 C 0.81964 0.51694 0.74901 0.0
C3638 C 0.76516 0.54638 0.79193 0.0
C3639 C 0.78783 0.52387 0.77372 0.0
C3640 C 0.75278 0.54981 0.80783 0.0
C3641 C 0.74839 0.53462 0.82086 0.0
C3642 C 0.77283 0.52757 0.78887 0.0
C3643 C 0.75583 0.51591 0.81688 0.0
C3644 C 0.79114 0.50497 0.76638 0.0
C3645 C 0.81539 0.53572 0.75611 0.0
N3646 N 0.76771 0.51291 0.80128 0.0
N3647 N 0.79988 0.53866 0.76814 0.0
H3648 H 0.50383 0.22366 0.2986 0.0
H3649 H 0.54851 0.29741 0.2235 0.0
H3650 H 0.56477 0.23955 0.30097 0.0
H3651 H 0.48801 0.30099 0.24078 0.0
H3652 H 0.55498 0.27613 0.25143 0.0
H3653 H 0.49762 0.25158 0.27727 0.0
C3654 C 0.51589 0.23317 0.29476 0.0
C3655 C 0.53489 0.22921 0.30142 0.0
C3656 C 0.54036 0.2818 0.2493 0.0
C3657 C 0.5279 0.26104 0.27675 0.0
C3658 C 0.53662 0.29386 0.23332 0.0
C3659 C 0.51765 0.30083 0.22974 0.0
C3660 C 0.52492 0.27623 0.26157 0.0
C3661 C 0.50283 0.29592 0.24302 0.0
C3662 C 0.5123 0.24916 0.28267 0.0
C3663 C 0.54992 0.2421 0.29614 0.0
N3664 N 0.5067 0.2836 0.25816 0.0
N3665 N 0.54617 0.25725 0.28379 0.0
H3666 H 0.74611 0.48707 0.2409 0.0
H3667 H 0.80862 0.56483 0.30239 0.0
H3668 H 0.7496 0.54825 0.22626 0.0
H3669 H 0.8235 0.50375 0.29801 0.0
H3670 H 0.77996 0.55882 0.28152 0.0
H3671 H 0.76754 0.49312 0.26913 0.0
C3672 C 0.75103 0.50181 0.24388 0.0
C3673 C 0.74632 0.51714 0.23114 0.0
C3674 C 0.78939 0.54673 0.28541 0.0
C3675 C 0.77056 0.52416 0.26328 0.0
C3676 C 0.80565 0.55013 0.29734 0.0
C3677 C 0.81856 0.53482 0.30167 0.0
C3678 C 0.78587 0.52783 0.27813 0.0
C3679 C 0.81407 0.51602 0.29475 0.0
C3680 C 0.76331 0.50524 0.25988 0.0
C3681 C 0.75314 0.53598 0.23559 0.0
N3682 N 0.79815 0.51307 0.28327 0.0
N3683 N 0.76498 0.53895 0.25123 0.0
H3684 H 0.5439 0.73496 0.24679 0.0
H3685 H 0.51509 0.84542 0.26978 0.0
H3686 H 0.52596 0.77753 0.20384 0.0
H3687 H 0.51039 0.80155 0.31477 0.0
H3688 H 0.52276 0.82022 0.2462 0.0
H3689 H 0.53547 0.75863 0.2728 0.0
C3690 C 0.53833 0.74923 0.24283 0.0
C3691 C 0.53562 0.75426 0.2231 0.0
C3692 C 0.51995 0.81594 0.26117 0.0
C3693 C 0.52604 0.78112 0.25252 0.0
C3694 C 0.51557 0.83038 0.27468 0.0
C3695 C 0.51207 0.82558 0.29426 0.0
C3696 C 0.52112 0.79637 0.26715 0.0
C3697 C 0.51284 0.8058 0.29974 0.0
C3698 C 0.53338 0.76261 0.25764 0.0
C3699 C 0.52822 0.77288 0.21879 0.0
N3700 N 0.51747 0.79183 0.28623 0.0
N3701 N 0.5238 0.78554 0.2333 0.0
H3702 H 0.3033 0.56327 0.24154 0.0
H3703 H 0.24096 0.48495 0.30254 0.0
H3704 H 0.29874 0.50242 0.22584 0.0
H3705 H 0.22716 0.54638 0.30025 0.0
H3706 H 0.26934 0.49105 0.2813 0.0
H3707 H 0.28238 0.55694 0.27008 0.0
C3708 C 0.2982 0.54855 0.24431 0.0
C3709 C 0.30248 0.5334 0.2312 0.0
C3710 C 0.26023 0.5032 0.28575 0.0
C3711 C 0.27887 0.52604 0.26373 0.0
C3712 C 0.24415 0.49974 0.29791 0.0
C3713 C 0.23161 0.51514 0.30289 0.0
C3714 C 0.26391 0.52223 0.27891 0.0
C3715 C 0.23633 0.53405 0.29648 0.0
C3716 C 0.28624 0.54495 0.2605 0.0
C3717 C 0.29551 0.51457 0.23543 0.0
N3718 N 0.25204 0.53706 0.28475 0.0
N3719 N 0.28399 0.51143 0.25127 0.0
H3720 H 0.7522 0.82664 0.54742 0.0
H3721 H 0.82671 0.75217 0.50306 0.0
H3722 H 0.74914 0.80969 0.48682 0.0
H3723 H 0.81018 0.74942 0.56379 0.0
H3724 H 0.79871 0.77337 0.49666 0.0
H3725 H 0.77356 0.79879 0.55389 0.0
C3726 C 0.75591 0.81692 0.5355 0.0
C3727 C 0.74907 0.82056 0.5165 0.0
C3728 C 0.80101 0.76791 0.51133 0.0
C3729 C 0.77372 0.78881 0.52379 0.0
C3730 C 0.81704 0.75591 0.51503 0.0
C3731 C 0.82084 0.74921 0.53404 0.0
C3732 C 0.78893 0.77368 0.52682 0.0
C3733 C 0.80776 0.75431 0.54895 0.0
C3734 C 0.768 0.80097 0.53924 0.0
C3735 C 0.75414 0.8074 0.50165 0.0
N3736 N 0.79256 0.76658 0.5451 0.0
N3737 N 0.76649 0.79228 0.50553 0.0
H3738 H 0.75318 0.22485 0.504 0.0
H3739 H 0.82762 0.29928 0.54873 0.0
H3740 H 0.7507 0.24063 0.56493 0.0
H3741 H 0.8103 0.30268 0.48825 0.0
H3742 H 0.79989 0.27772 0.55518 0.0
H3743 H 0.77426 0.25296 0.49781 0.0
C3744 C 0.75695 0.23438 0.51606 0.0
C3745 C 0.75034 0.23034 0.53505 0.0
C3746 C 0.80197 0.2834 0.54056 0.0
C3747 C 0.77472 0.26238 0.52809 0.0
C3748 C 0.81783 0.29563 0.53683 0.0
C3749 C 0.82134 0.30263 0.51787 0.0
C3750 C 0.78976 0.27772 0.52513 0.0
C3751 C 0.80812 0.29758 0.50305 0.0
C3752 C 0.7689 0.25047 0.51249 0.0
C3753 C 0.7555 0.24324 0.55009 0.0
N3754 N 0.7931 0.28512 0.50692 0.0
N3755 N 0.76772 0.25852 0.54636 0.0
H3756 H 0.30182 0.81087 0.56404 0.0
H3757 H 0.24081 0.74899 0.48541 0.0
H3758 H 0.29771 0.82671 0.5032 0.0
H3759 H 0.22475 0.75303 0.5462 0.0
H3760 H 0.2687 0.77078 0.49187 0.0
H3761 H 0.28033 0.78273 0.55762 0.0
C3762 C 0.29668 0.80822 0.54931 0.0
C3763 C 0.3013 0.82123 0.53418 0.0
C3764 C 0.25917 0.76663 0.5038 0.0
C3765 C 0.27711 0.78914 0.52671 0.0
C3766 C 0.24336 0.75418 0.50014 0.0
C3767 C 0.23036 0.74945 0.51523 0.0
C3768 C 0.26216 0.774 0.52275 0.0
C3769 C 0.23428 0.75657 0.53408 0.0
C3770 C 0.2844 0.79227 0.54567 0.0
C3771 C 0.29425 0.81717 0.51533 0.0
N3772 N 0.24979 0.76852 0.5373 0.0
N3773 N 0.28248 0.80153 0.51213 0.0
H3774 H 0.24136 0.29967 0.56584 0.0
H3775 H 0.3047 0.23919 0.4881 0.0
H3776 H 0.22777 0.29736 0.50437 0.0
H3777 H 0.29799 0.22163 0.54825 0.0
H3778 H 0.28346 0.26745 0.4945 0.0
H3779 H 0.26931 0.27778 0.55998 0.0
C3780 C 0.2445 0.29487 0.5511 0.0
C3781 C 0.23216 0.30009 0.5356 0.0
C3782 C 0.2869 0.25751 0.50632 0.0
C3783 C 0.26401 0.27542 0.52879 0.0
C3784 C 0.29904 0.24147 0.5027 0.0
C3785 C 0.30287 0.22795 0.5176 0.0
C3786 C 0.27891 0.2602 0.52504 0.0
C3787 C 0.29516 0.23157 0.53627 0.0
C3788 C 0.26033 0.28235 0.54778 0.0
C3789 C 0.2368 0.29344 0.51676 0.0
N3790 N 0.2835 0.24731 0.53946 0.0
N3791 N 0.25231 0.28141 0.51388 0.0
loop_
_geom_bond_atom_site_label_1
_geom_bond_atom_site_label_2
_geom_bond_distance
_geom_bond_site_symmetry_2
_ccdc_geom_bond_type
Co0 O3 1.970 . S
Co0 N17 1.989 . S
Co0 O25 1.967 . S
Co0 O32 1.920 . S
Co1 O4 1.966 . S
Co1 N10 2.022 . S
Co1 N18 1.993 1_655 S
Co1 O26 1.941 . S
C2 O3 1.258 1_655 S
C2 O4 1.263 . S
O3 Co0 1.970 . S
O3 C2 1.258 1_455 S
O4 Co1 1.966 . S
O4 C2 1.263 . S
C5 O6 1.235 . S
C5 O32 1.289 . S
O6 C5 1.235 . S
C7 C9 1.400 . S
C7 N10 1.351 . S
C7 C12 1.501 . S
C8 C9 1.387 . S
C8 N11 1.341 . S
C9 C7 1.400 . S
C9 C8 1.387 . S
N10 Co1 2.022 . S
N10 C7 1.351 . S
N10 N11 1.365 . S
N11 C8 1.341 . S
N11 N10 1.365 . S
N11 H31 0.862 . S
C12 C7 1.501 . S
C12 H13 0.961 . S
C12 H14 0.961 . S
C12 H15 0.960 . S
H13 C12 0.961 . S
H14 C12 0.961 . S
H15 C12 0.960 . S
C16 N17 1.342 . S
C16 C20 1.401 . S
C16 C21 1.499 . S
N17 Co0 1.989 . S
N17 C16 1.342 . S
N17 N18 1.388 . S
N18 Co1 1.993 1_455 S
N18 N17 1.388 . S
N18 C19 1.346 . S
C19 N18 1.346 . S
C19 C20 1.396 . S
C19 C29 1.510 . S
C20 C16 1.401 . S
C20 C19 1.396 . S
C21 C16 1.499 . S
C21 H22 0.959 . S
C21 H23 0.960 . S
C21 H24 0.961 . S
H22 C21 0.959 . S
H23 C21 0.960 . S
H24 C21 0.961 . S
O25 Co0 1.967 . S
O25 C33 1.258 . S
O26 Co1 1.941 . S
O26 C33 1.266 1_655 S
H27 C29 0.959 . S
H28 C29 0.961 . S
C29 C19 1.510 . S
C29 H27 0.959 . S
C29 H28 0.961 . S
C29 H30 0.960 1_455 S
H30 C29 0.960 1_655 S
H31 N11 0.862 . S
O32 Co0 1.920 . S
O32 C5 1.289 . S
C33 O25 1.258 . S
C33 O26 1.266 1_455 S
Co34 O37 1.970 . S
Co34 N51 1.989 . S
Co34 O59 1.967 . S
Co34 O66 1.920 . S
Co35 O38 1.966 . S
Co35 N44 2.022 . S
Co35 N52 1.993 1_565 S
Co35 O60 1.941 . S
C36 O37 1.258 1_565 S
C36 O38 1.263 . S
O37 Co34 1.970 . S
O37 C36 1.258 1_545 S
O38 Co35 1.966 . S
O38 C36 1.263 . S
C39 O40 1.235 . S
C39 O66 1.289 . S
O40 C39 1.235 . S
C41 C43 1.400 . S
C41 N44 1.351 . S
C41 C46 1.501 . S
C42 C43 1.387 . S
C42 N45 1.341 . S
C43 C41 1.400 . S
C43 C42 1.387 . S
N44 Co35 2.022 . S
N44 C41 1.351 . S
N44 N45 1.365 . S
N45 C42 1.341 . S
N45 N44 1.365 . S
N45 H65 0.862 . S
C46 C41 1.501 . S
C46 H47 0.961 . S
C46 H48 0.961 . S
C46 H49 0.960 . S
H47 C46 0.961 . S
H48 C46 0.961 . S
H49 C46 0.960 . S
C50 N51 1.342 . S
C50 C54 1.401 . S
C50 C55 1.499 . S
N51 Co34 1.989 . S
N51 C50 1.342 . S
N51 N52 1.388 . S
N52 Co35 1.993 1_545 S
N52 N51 1.388 . S
N52 C53 1.346 . S
C53 N52 1.346 . S
C53 C54 1.396 . S
C53 C63 1.510 . S
C54 C50 1.401 . S
C54 C53 1.396 . S
C55 C50 1.499 . S
C55 H56 0.959 . S
C55 H57 0.960 . S
C55 H58 0.961 . S
H56 C55 0.959 . S
H57 C55 0.960 . S
H58 C55 0.961 . S
O59 Co34 1.967 . S
O59 C67 1.258 . S
O60 Co35 1.941 . S
O60 C67 1.266 1_565 S
H61 C63 0.959 . S
H62 C63 0.961 . S
C63 C53 1.510 . S
C63 H61 0.959 . S
C63 H62 0.961 . S
C63 H64 0.960 1_545 S
H64 C63 0.960 1_565 S
H65 N45 0.862 . S
O66 Co34 1.920 . S
O66 C39 1.289 . S
C67 O59 1.258 . S
C67 O60 1.266 1_545 S
Co68 O71 1.970 . S
Co68 N85 1.989 . S
Co68 O93 1.967 . S
Co68 O100 1.920 1_455 S
Co69 O72 1.966 . S
Co69 N78 2.022 . S
Co69 N86 1.993 . S
Co69 O94 1.941 . S
C70 O71 1.258 . S
C70 O72 1.263 . S
O71 Co68 1.970 . S
O71 C70 1.258 . S
O72 Co69 1.966 . S
O72 C70 1.263 . S
C73 O74 1.235 . S
C73 O100 1.289 . S
O74 C73 1.235 . S
C75 C77 1.400 . S
C75 N78 1.351 . S
C75 C80 1.501 . S
C76 C77 1.387 . S
C76 N79 1.341 . S
C77 C75 1.400 . S
C77 C76 1.387 . S
N78 Co69 2.022 . S
N78 C75 1.351 . S
N78 N79 1.365 . S
N79 C76 1.341 . S
N79 N78 1.365 . S
N79 H99 0.862 . S
C80 C75 1.501 . S
C80 H81 0.961 . S
C80 H82 0.961 . S
C80 H83 0.960 . S
H81 C80 0.961 . S
H82 C80 0.961 . S
H83 C80 0.960 . S
C84 N85 1.342 1_655 S
C84 C88 1.401 . S
C84 C89 1.499 . S
N85 Co68 1.989 . S
N85 C84 1.342 1_455 S
N85 N86 1.388 . S
N86 Co69 1.993 . S
N86 N85 1.388 . S
N86 C87 1.346 . S
C87 N86 1.346 . S
C87 C88 1.396 1_455 S
C87 C97 1.510 . S
C88 C84 1.401 . S
C88 C87 1.396 1_655 S
C89 C84 1.499 . S
C89 H90 0.959 . S
C89 H91 0.960 . S
C89 H92 0.961 . S
H90 C89 0.959 . S
H91 C89 0.960 . S
H92 C89 0.961 . S
O93 Co68 1.967 . S
O93 C101 1.258 . S
O94 Co69 1.941 . S
O94 C101 1.266 . S
H95 C97 0.959 . S
H96 C97 0.961 . S
C97 C87 1.510 . S
C97 H95 0.959 . S
C97 H96 0.961 . S
C97 H98 0.960 . S
H98 C97 0.960 . S
H99 N79 0.862 . S
O100 Co68 1.920 1_655 S
O100 C73 1.289 . S
C101 O93 1.258 . S
C101 O94 1.266 . S
Co102 O105 1.970 . S
Co102 N119 1.989 . S
Co102 O127 1.967 . S
Co102 O134 1.920 1_545 S
Co103 O106 1.966 . S
Co103 N112 2.022 . S
Co103 N120 1.993 . S
Co103 O128 1.941 . S
C104 O105 1.258 . S
C104 O106 1.263 . S
O105 Co102 1.970 . S
O105 C104 1.258 . S
O106 Co103 1.966 . S
O106 C104 1.263 . S
C107 O108 1.235 . S
C107 O134 1.289 . S
O108 C107 1.235 . S
C109 C111 1.400 . S
C109 N112 1.351 . S
C109 C114 1.501 . S
C110 C111 1.387 . S
C110 N113 1.341 . S
C111 C109 1.400 . S
C111 C110 1.387 . S
N112 Co103 2.022 . S
N112 C109 1.351 . S
N112 N113 1.365 . S
N113 C110 1.341 . S
N113 N112 1.365 . S
N113 H133 0.862 . S
C114 C109 1.501 . S
C114 H115 0.961 . S
C114 H116 0.961 . S
C114 H117 0.960 . S
H115 C114 0.961 . S
H116 C114 0.961 . S
H117 C114 0.960 . S
C118 N119 1.342 1_565 S
C118 C122 1.401 . S
C118 C123 1.499 . S
N119 Co102 1.989 . S
N119 C118 1.342 1_545 S
N119 N120 1.388 . S
N120 Co103 1.993 . S
N120 N119 1.388 . S
N120 C121 1.346 . S
C121 N120 1.346 . S
C121 C122 1.396 1_545 S
C121 C131 1.510 . S
C122 C118 1.401 . S
C122 C121 1.396 1_565 S
C123 C118 1.499 . S
C123 H124 0.959 . S
C123 H125 0.960 . S
C123 H126 0.961 . S
H124 C123 0.959 . S
H125 C123 0.960 . S
H126 C123 0.961 . S
O127 Co102 1.967 . S
O127 C135 1.258 . S
O128 Co103 1.941 . S
O128 C135 1.266 . S
H129 C131 0.959 . S
H130 C131 0.961 . S
C131 C121 1.510 . S
C131 H129 0.959 . S
C131 H130 0.961 . S
C131 H132 0.960 . S
H132 C131 0.960 . S
H133 N113 0.862 . S
O134 Co102 1.920 1_565 S
O134 C107 1.289 . S
C135 O127 1.258 . S
C135 O128 1.266 . S
Co136 O139 1.970 . S
Co136 N153 1.989 . S
Co136 O161 1.967 . S
Co136 O168 1.920 . S
Co137 O140 1.966 . S
Co137 N146 2.022 . S
Co137 N154 1.993 1_655 S
Co137 O162 1.941 . S
C138 O139 1.258 1_655 S
C138 O140 1.263 . S
O139 Co136 1.970 . S
O139 C138 1.258 1_455 S
O140 Co137 1.966 . S
O140 C138 1.263 . S
C141 O142 1.235 . S
C141 O168 1.289 . S
O142 C141 1.235 . S
C143 C145 1.400 . S
C143 N146 1.351 . S
C143 C148 1.501 . S
C144 C145 1.387 . S
C144 N147 1.341 . S
C145 C143 1.400 . S
C145 C144 1.387 . S
N146 Co137 2.022 . S
N146 C143 1.351 . S
N146 N147 1.365 . S
N147 C144 1.341 . S
N147 N146 1.365 . S
N147 H167 0.862 . S
C148 C143 1.501 . S
C148 H149 0.961 . S
C148 H150 0.961 . S
C148 H151 0.960 . S
H149 C148 0.961 . S
H150 C148 0.961 . S
H151 C148 0.960 . S
C152 N153 1.342 . S
C152 C156 1.401 . S
C152 C157 1.499 . S
N153 Co136 1.989 . S
N153 C152 1.342 . S
N153 N154 1.388 . S
N154 Co137 1.993 1_455 S
N154 N153 1.388 . S
N154 C155 1.346 . S
C155 N154 1.346 . S
C155 C156 1.396 . S
C155 C165 1.510 . S
C156 C152 1.401 . S
C156 C155 1.396 . S
C157 C152 1.499 . S
C157 H158 0.959 . S
C157 H159 0.960 . S
C157 H160 0.961 . S
H158 C157 0.959 . S
H159 C157 0.960 . S
H160 C157 0.961 . S
O161 Co136 1.967 . S
O161 C169 1.258 . S
O162 Co137 1.941 . S
O162 C169 1.266 1_655 S
H163 C165 0.959 . S
H164 C165 0.961 . S
C165 C155 1.510 . S
C165 H163 0.959 . S
C165 H164 0.961 . S
C165 H166 0.960 1_455 S
H166 C165 0.960 1_655 S
H167 N147 0.862 . S
O168 Co136 1.920 . S
O168 C141 1.289 . S
C169 O161 1.258 . S
C169 O162 1.266 1_455 S
Co170 O173 1.970 . S
Co170 N187 1.989 . S
Co170 O195 1.967 . S
Co170 O202 1.920 . S
Co171 O174 1.966 . S
Co171 N180 2.022 . S
Co171 N188 1.993 1_565 S
Co171 O196 1.941 . S
C172 O173 1.258 1_565 S
C172 O174 1.263 . S
O173 Co170 1.970 . S
O173 C172 1.258 1_545 S
O174 Co171 1.966 . S
O174 C172 1.263 . S
C175 O176 1.235 . S
C175 O202 1.289 . S
O176 C175 1.235 . S
C177 C179 1.400 . S
C177 N180 1.351 . S
C177 C182 1.501 . S
C178 C179 1.387 . S
C178 N181 1.341 . S
C179 C177 1.400 . S
C179 C178 1.387 . S
N180 Co171 2.022 . S
N180 C177 1.351 . S
N180 N181 1.365 . S
N181 C178 1.341 . S
N181 N180 1.365 . S
N181 H201 0.862 . S
C182 C177 1.501 . S
C182 H183 0.961 . S
C182 H184 0.961 . S
C182 H185 0.960 . S
H183 C182 0.961 . S
H184 C182 0.961 . S
H185 C182 0.960 . S
C186 N187 1.342 . S
C186 C190 1.401 . S
C186 C191 1.499 . S
N187 Co170 1.989 . S
N187 C186 1.342 . S
N187 N188 1.388 . S
N188 Co171 1.993 1_545 S
N188 N187 1.388 . S
N188 C189 1.346 . S
C189 N188 1.346 . S
C189 C190 1.396 . S
C189 C199 1.510 . S
C190 C186 1.401 . S
C190 C189 1.396 . S
C191 C186 1.499 . S
C191 H192 0.959 . S
C191 H193 0.960 . S
C191 H194 0.961 . S
H192 C191 0.959 . S
H193 C191 0.960 . S
H194 C191 0.961 . S
O195 Co170 1.967 . S
O195 C203 1.258 . S
O196 Co171 1.941 . S
O196 C203 1.266 1_565 S
H197 C199 0.959 . S
H198 C199 0.961 . S
C199 C189 1.510 . S
C199 H197 0.959 . S
C199 H198 0.961 . S
C199 H200 0.960 1_545 S
H200 C199 0.960 1_565 S
H201 N181 0.862 . S
O202 Co170 1.920 . S
O202 C175 1.289 . S
C203 O195 1.258 . S
C203 O196 1.266 1_545 S
Co204 O207 1.970 . S
Co204 N221 1.989 . S
Co204 O229 1.967 . S
Co204 O236 1.920 1_455 S
Co205 O208 1.966 . S
Co205 N214 2.022 . S
Co205 N222 1.993 . S
Co205 O230 1.941 . S
C206 O207 1.258 . S
C206 O208 1.263 . S
O207 Co204 1.970 . S
O207 C206 1.258 . S
O208 Co205 1.966 . S
O208 C206 1.263 . S
C209 O210 1.235 . S
C209 O236 1.289 . S
O210 C209 1.235 . S
C211 C213 1.400 . S
C211 N214 1.351 . S
C211 C216 1.501 . S
C212 C213 1.387 . S
C212 N215 1.341 . S
C213 C211 1.400 . S
C213 C212 1.387 . S
N214 Co205 2.022 . S
N214 C211 1.351 . S
N214 N215 1.365 . S
N215 C212 1.341 . S
N215 N214 1.365 . S
N215 H235 0.862 . S
C216 C211 1.501 . S
C216 H217 0.961 . S
C216 H218 0.961 . S
C216 H219 0.960 . S
H217 C216 0.961 . S
H218 C216 0.961 . S
H219 C216 0.960 . S
C220 N221 1.342 1_655 S
C220 C224 1.401 . S
C220 C225 1.499 . S
N221 Co204 1.989 . S
N221 C220 1.342 1_455 S
N221 N222 1.388 . S
N222 Co205 1.993 . S
N222 N221 1.388 . S
N222 C223 1.346 . S
C223 N222 1.346 . S
C223 C224 1.396 1_455 S
C223 C233 1.510 . S
C224 C220 1.401 . S
C224 C223 1.396 1_655 S
C225 C220 1.499 . S
C225 H226 0.959 . S
C225 H227 0.960 . S
C225 H228 0.961 . S
H226 C225 0.959 . S
H227 C225 0.960 . S
H228 C225 0.961 . S
O229 Co204 1.967 . S
O229 C237 1.258 . S
O230 Co205 1.941 . S
O230 C237 1.266 . S
H231 C233 0.959 . S
H232 C233 0.961 . S
C233 C223 1.510 . S
C233 H231 0.959 . S
C233 H232 0.961 . S
C233 H234 0.960 . S
H234 C233 0.960 . S
H235 N215 0.862 . S
O236 Co204 1.920 1_655 S
O236 C209 1.289 . S
C237 O229 1.258 . S
C237 O230 1.266 . S
Co238 O241 1.970 . S
Co238 N255 1.989 . S
Co238 O263 1.967 . S
Co238 O270 1.920 1_545 S
Co239 O242 1.966 . S
Co239 N248 2.022 . S
Co239 N256 1.993 . S
Co239 O264 1.941 . S
C240 O241 1.258 . S
C240 O242 1.263 . S
O241 Co238 1.970 . S
O241 C240 1.258 . S
O242 Co239 1.966 . S
O242 C240 1.263 . S
C243 O244 1.235 . S
C243 O270 1.289 . S
O244 C243 1.235 . S
C245 C247 1.400 . S
C245 N248 1.351 . S
C245 C250 1.501 . S
C246 C247 1.387 . S
C246 N249 1.341 . S
C247 C245 1.400 . S
C247 C246 1.387 . S
N248 Co239 2.022 . S
N248 C245 1.351 . S
N248 N249 1.365 . S
N249 C246 1.341 . S
N249 N248 1.365 . S
N249 H269 0.862 . S
C250 C245 1.501 . S
C250 H251 0.961 . S
C250 H252 0.961 . S
C250 H253 0.960 . S
H251 C250 0.961 . S
H252 C250 0.961 . S
H253 C250 0.960 . S
C254 N255 1.342 1_565 S
C254 C258 1.401 . S
C254 C259 1.499 . S
N255 Co238 1.989 . S
N255 C254 1.342 1_545 S
N255 N256 1.388 . S
N256 Co239 1.993 . S
N256 N255 1.388 . S
N256 C257 1.346 . S
C257 N256 1.346 . S
C257 C258 1.396 1_545 S
C257 C267 1.510 . S
C258 C254 1.401 . S
C258 C257 1.396 1_565 S
C259 C254 1.499 . S
C259 H260 0.959 . S
C259 H261 0.960 . S
C259 H262 0.961 . S
H260 C259 0.959 . S
H261 C259 0.960 . S
H262 C259 0.961 . S
O263 Co238 1.967 . S
O263 C271 1.258 . S
O264 Co239 1.941 . S
O264 C271 1.266 . S
H265 C267 0.959 . S
H266 C267 0.961 . S
C267 C257 1.510 . S
C267 H265 0.959 . S
C267 H266 0.961 . S
C267 H268 0.960 . S
H268 C267 0.960 . S
H269 N249 0.862 . S
O270 Co238 1.920 1_565 S
O270 C243 1.289 . S
C271 O263 1.258 . S
C271 O264 1.266 . S
Co272 O275 1.970 . S
Co272 N289 1.989 . S
Co272 O297 1.967 . S
Co272 O304 1.920 . S
Co273 O276 1.966 . S
Co273 N282 2.022 . S
Co273 N290 1.993 1_565 S
Co273 O298 1.941 . S
C274 O275 1.258 1_565 S
C274 O276 1.263 . S
O275 Co272 1.970 . S
O275 C274 1.258 1_545 S
O276 Co273 1.966 . S
O276 C274 1.263 . S
C277 O278 1.235 . S
C277 O304 1.289 . S
O278 C277 1.235 . S
C279 C281 1.400 . S
C279 N282 1.351 . S
C279 C284 1.501 . S
C280 C281 1.387 . S
C280 N283 1.341 . S
C281 C279 1.400 . S
C281 C280 1.387 . S
N282 Co273 2.022 . S
N282 C279 1.351 . S
N282 N283 1.365 . S
N283 C280 1.341 . S
N283 N282 1.365 . S
N283 H303 0.862 . S
C284 C279 1.501 . S
C284 H285 0.961 . S
C284 H286 0.961 . S
C284 H287 0.960 . S
H285 C284 0.961 . S
H286 C284 0.961 . S
H287 C284 0.960 . S
C288 N289 1.342 . S
C288 C292 1.401 . S
C288 C293 1.499 . S
N289 Co272 1.989 . S
N289 C288 1.342 . S
N289 N290 1.388 . S
N290 Co273 1.993 1_545 S
N290 N289 1.388 . S
N290 C291 1.346 . S
C291 N290 1.346 . S
C291 C292 1.396 . S
C291 C301 1.510 . S
C292 C288 1.401 . S
C292 C291 1.396 . S
C293 C288 1.499 . S
C293 H294 0.959 . S
C293 H295 0.960 . S
C293 H296 0.961 . S
H294 C293 0.959 . S
H295 C293 0.960 . S
H296 C293 0.961 . S
O297 Co272 1.967 . S
O297 C305 1.258 . S
O298 Co273 1.941 . S
O298 C305 1.266 1_565 S
H299 C301 0.959 . S
H300 C301 0.961 . S
C301 C291 1.510 . S
C301 H299 0.959 . S
C301 H300 0.961 . S
C301 H302 0.960 1_545 S
H302 C301 0.960 1_565 S
H303 N283 0.862 . S
O304 Co272 1.920 . S
O304 C277 1.289 . S
C305 O297 1.258 . S
C305 O298 1.266 1_545 S
Co306 O309 1.970 . S
Co306 N323 1.989 . S
Co306 O331 1.967 . S
Co306 O338 1.920 1_455 S
Co307 O310 1.966 . S
Co307 N316 2.022 . S
Co307 N324 1.993 . S
Co307 O332 1.941 . S
C308 O309 1.258 . S
C308 O310 1.263 . S
O309 Co306 1.970 . S
O309 C308 1.258 . S
O310 Co307 1.966 . S
O310 C308 1.263 . S
C311 O312 1.235 . S
C311 O338 1.289 . S
O312 C311 1.235 . S
C313 C315 1.400 . S
C313 N316 1.351 . S
C313 C318 1.501 . S
C314 C315 1.387 . S
C314 N317 1.341 . S
C315 C313 1.400 . S
C315 C314 1.387 . S
N316 Co307 2.022 . S
N316 C313 1.351 . S
N316 N317 1.365 . S
N317 C314 1.341 . S
N317 N316 1.365 . S
N317 H337 0.862 . S
C318 C313 1.501 . S
C318 H319 0.961 . S
C318 H320 0.961 . S
C318 H321 0.960 . S
H319 C318 0.961 . S
H320 C318 0.961 . S
H321 C318 0.960 . S
C322 N323 1.342 1_655 S
C322 C326 1.401 . S
C322 C327 1.499 . S
N323 Co306 1.989 . S
N323 C322 1.342 1_455 S
N323 N324 1.388 . S
N324 Co307 1.993 . S
N324 N323 1.388 . S
N324 C325 1.346 . S
C325 N324 1.346 . S
C325 C326 1.396 1_455 S
C325 C335 1.510 . S
C326 C322 1.401 . S
C326 C325 1.396 1_655 S
C327 C322 1.499 . S
C327 H328 0.959 . S
C327 H329 0.960 . S
C327 H330 0.961 . S
H328 C327 0.959 . S
H329 C327 0.960 . S
H330 C327 0.961 . S
O331 Co306 1.967 . S
O331 C339 1.258 . S
O332 Co307 1.941 . S
O332 C339 1.266 . S
H333 C335 0.959 . S
H334 C335 0.961 . S
C335 C325 1.510 . S
C335 H333 0.959 . S
C335 H334 0.961 . S
C335 H336 0.960 . S
H336 C335 0.960 . S
H337 N317 0.862 . S
O338 Co306 1.920 1_655 S
O338 C311 1.289 . S
C339 O331 1.258 . S
C339 O332 1.266 . S
Co340 O343 1.970 . S
Co340 N357 1.989 . S
Co340 O365 1.967 . S
Co340 O372 1.920 1_545 S
Co341 O344 1.966 . S
Co341 N350 2.022 . S
Co341 N358 1.993 . S
Co341 O366 1.941 . S
C342 O343 1.258 . S
C342 O344 1.263 . S
O343 Co340 1.970 . S
O343 C342 1.258 . S
O344 Co341 1.966 . S
O344 C342 1.263 . S
C345 O346 1.235 . S
C345 O372 1.289 . S
O346 C345 1.235 . S
C347 C349 1.400 . S
C347 N350 1.351 . S
C347 C352 1.501 . S
C348 C349 1.387 . S
C348 N351 1.341 . S
C349 C347 1.400 . S
C349 C348 1.387 . S
N350 Co341 2.022 . S
N350 C347 1.351 . S
N350 N351 1.365 . S
N351 C348 1.341 . S
N351 N350 1.365 . S
N351 H371 0.862 . S
C352 C347 1.501 . S
C352 H353 0.961 . S
C352 H354 0.961 . S
C352 H355 0.960 . S
H353 C352 0.961 . S
H354 C352 0.961 . S
H355 C352 0.960 . S
C356 N357 1.342 1_565 S
C356 C360 1.401 . S
C356 C361 1.499 . S
N357 Co340 1.989 . S
N357 C356 1.342 1_545 S
N357 N358 1.388 . S
N358 Co341 1.993 . S
N358 N357 1.388 . S
N358 C359 1.346 . S
C359 N358 1.346 . S
C359 C360 1.396 1_545 S
C359 C369 1.510 . S
C360 C356 1.401 . S
C360 C359 1.396 1_565 S
C361 C356 1.499 . S
C361 H362 0.959 . S
C361 H363 0.960 . S
C361 H364 0.961 . S
H362 C361 0.959 . S
H363 C361 0.960 . S
H364 C361 0.961 . S
O365 Co340 1.967 . S
O365 C373 1.258 . S
O366 Co341 1.941 . S
O366 C373 1.266 . S
H367 C369 0.959 . S
H368 C369 0.961 . S
C369 C359 1.510 . S
C369 H367 0.959 . S
C369 H368 0.961 . S
C369 H370 0.960 . S
H370 C369 0.960 . S
H371 N351 0.862 . S
O372 Co340 1.920 1_565 S
O372 C345 1.289 . S
C373 O365 1.258 . S
C373 O366 1.266 . S
Co374 O377 1.970 . S
Co374 N391 1.989 . S
Co374 O399 1.967 . S
Co374 O406 1.920 . S
Co375 O378 1.966 . S
Co375 N384 2.022 . S
Co375 N392 1.993 1_655 S
Co375 O400 1.941 . S
C376 O377 1.258 1_655 S
C376 O378 1.263 . S
O377 Co374 1.970 . S
O377 C376 1.258 1_455 S
O378 Co375 1.966 . S
O378 C376 1.263 . S
C379 O380 1.235 . S
C379 O406 1.289 . S
O380 C379 1.235 . S
C381 C383 1.400 . S
C381 N384 1.351 . S
C381 C386 1.501 . S
C382 C383 1.387 . S
C382 N385 1.341 . S
C383 C381 1.400 . S
C383 C382 1.387 . S
N384 Co375 2.022 . S
N384 C381 1.351 . S
N384 N385 1.365 . S
N385 C382 1.341 . S
N385 N384 1.365 . S
N385 H405 0.862 . S
C386 C381 1.501 . S
C386 H387 0.961 . S
C386 H388 0.961 . S
C386 H389 0.960 . S
H387 C386 0.961 . S
H388 C386 0.961 . S
H389 C386 0.960 . S
C390 N391 1.342 . S
C390 C394 1.401 . S
C390 C395 1.499 . S
N391 Co374 1.989 . S
N391 C390 1.342 . S
N391 N392 1.388 . S
N392 Co375 1.993 1_455 S
N392 N391 1.388 . S
N392 C393 1.346 . S
C393 N392 1.346 . S
C393 C394 1.396 . S
C393 C403 1.510 . S
C394 C390 1.401 . S
C394 C393 1.396 . S
C395 C390 1.499 . S
C395 H396 0.959 . S
C395 H397 0.960 . S
C395 H398 0.961 . S
H396 C395 0.959 . S
H397 C395 0.960 . S
H398 C395 0.961 . S
O399 Co374 1.967 . S
O399 C407 1.258 . S
O400 Co375 1.941 . S
O400 C407 1.266 1_655 S
H401 C403 0.959 . S
H402 C403 0.961 . S
C403 C393 1.510 . S
C403 H401 0.959 . S
C403 H402 0.961 . S
C403 H404 0.960 1_455 S
H404 C403 0.960 1_655 S
H405 N385 0.862 . S
O406 Co374 1.920 . S
O406 C379 1.289 . S
C407 O399 1.258 . S
C407 O400 1.266 1_455 S
Co408 O411 1.970 . S
Co408 N425 1.989 . S
Co408 O433 1.967 . S
Co408 O440 1.920 1_545 S
Co409 O412 1.966 . S
Co409 N418 2.022 . S
Co409 N426 1.993 . S
Co409 O434 1.941 . S
C410 O411 1.258 . S
C410 O412 1.263 . S
O411 Co408 1.970 . S
O411 C410 1.258 . S
O412 Co409 1.966 . S
O412 C410 1.263 . S
C413 O414 1.235 . S
C413 O440 1.289 . S
O414 C413 1.235 . S
C415 C417 1.400 . S
C415 N418 1.351 . S
C415 C420 1.501 . S
C416 C417 1.387 . S
C416 N419 1.341 . S
C417 C415 1.400 . S
C417 C416 1.387 . S
N418 Co409 2.022 . S
N418 C415 1.351 . S
N418 N419 1.365 . S
N419 C416 1.341 . S
N419 N418 1.365 . S
N419 H439 0.862 . S
C420 C415 1.501 . S
C420 H421 0.961 . S
C420 H422 0.961 . S
C420 H423 0.960 . S
H421 C420 0.961 . S
H422 C420 0.961 . S
H423 C420 0.960 . S
C424 N425 1.342 1_565 S
C424 C428 1.401 . S
C424 C429 1.499 . S
N425 Co408 1.989 . S
N425 C424 1.342 1_545 S
N425 N426 1.388 . S
N426 Co409 1.993 . S
N426 N425 1.388 . S
N426 C427 1.346 . S
C427 N426 1.346 . S
C427 C428 1.396 1_545 S
C427 C437 1.510 . S
C428 C424 1.401 . S
C428 C427 1.396 1_565 S
C429 C424 1.499 . S
C429 H430 0.959 . S
C429 H431 0.960 . S
C429 H432 0.961 . S
H430 C429 0.959 . S
H431 C429 0.960 . S
H432 C429 0.961 . S
O433 Co408 1.967 . S
O433 C441 1.258 . S
O434 Co409 1.941 . S
O434 C441 1.266 . S
H435 C437 0.959 . S
H436 C437 0.961 . S
C437 C427 1.510 . S
C437 H435 0.959 . S
C437 H436 0.961 . S
C437 H438 0.960 . S
H438 C437 0.960 . S
H439 N419 0.862 . S
O440 Co408 1.920 1_565 S
O440 C413 1.289 . S
C441 O433 1.258 . S
C441 O434 1.266 . S
Co442 O445 1.970 . S
Co442 N459 1.989 . S
Co442 O467 1.967 . S
Co442 O474 1.920 . S
Co443 O446 1.966 . S
Co443 N452 2.022 . S
Co443 N460 1.993 1_655 S
Co443 O468 1.941 . S
C444 O445 1.258 1_655 S
C444 O446 1.263 . S
O445 Co442 1.970 . S
O445 C444 1.258 1_455 S
O446 Co443 1.966 . S
O446 C444 1.263 . S
C447 O448 1.235 . S
C447 O474 1.289 . S
O448 C447 1.235 . S
C449 C451 1.400 . S
C449 N452 1.351 . S
C449 C454 1.501 . S
C450 C451 1.387 . S
C450 N453 1.341 . S
C451 C449 1.400 . S
C451 C450 1.387 . S
N452 Co443 2.022 . S
N452 C449 1.351 . S
N452 N453 1.365 . S
N453 C450 1.341 . S
N453 N452 1.365 . S
N453 H473 0.862 . S
C454 C449 1.501 . S
C454 H455 0.961 . S
C454 H456 0.961 . S
C454 H457 0.960 . S
H455 C454 0.961 . S
H456 C454 0.961 . S
H457 C454 0.960 . S
C458 N459 1.342 . S
C458 C462 1.401 . S
C458 C463 1.499 . S
N459 Co442 1.989 . S
N459 C458 1.342 . S
N459 N460 1.388 . S
N460 Co443 1.993 1_455 S
N460 N459 1.388 . S
N460 C461 1.346 . S
C461 N460 1.346 . S
C461 C462 1.396 . S
C461 C471 1.510 . S
C462 C458 1.401 . S
C462 C461 1.396 . S
C463 C458 1.499 . S
C463 H464 0.959 . S
C463 H465 0.960 . S
C463 H466 0.961 . S
H464 C463 0.959 . S
H465 C463 0.960 . S
H466 C463 0.961 . S
O467 Co442 1.967 . S
O467 C475 1.258 . S
O468 Co443 1.941 . S
O468 C475 1.266 1_655 S
H469 C471 0.959 . S
H470 C471 0.961 . S
C471 C461 1.510 . S
C471 H469 0.959 . S
C471 H470 0.961 . S
C471 H472 0.960 1_455 S
H472 C471 0.960 1_655 S
H473 N453 0.862 . S
O474 Co442 1.920 . S
O474 C447 1.289 . S
C475 O467 1.258 . S
C475 O468 1.266 1_455 S
Co476 O479 1.970 . S
Co476 N493 1.989 . S
Co476 O501 1.967 . S
Co476 O508 1.920 . S
Co477 O480 1.966 . S
Co477 N486 2.022 . S
Co477 N494 1.993 1_565 S
Co477 O502 1.941 . S
C478 O479 1.258 1_565 S
C478 O480 1.263 . S
O479 Co476 1.970 . S
O479 C478 1.258 1_545 S
O480 Co477 1.966 . S
O480 C478 1.263 . S
C481 O482 1.235 . S
C481 O508 1.289 . S
O482 C481 1.235 . S
C483 C485 1.400 . S
C483 N486 1.351 . S
C483 C488 1.501 . S
C484 C485 1.387 . S
C484 N487 1.341 . S
C485 C483 1.400 . S
C485 C484 1.387 . S
N486 Co477 2.022 . S
N486 C483 1.351 . S
N486 N487 1.365 . S
N487 C484 1.341 . S
N487 N486 1.365 . S
N487 H507 0.862 . S
C488 C483 1.501 . S
C488 H489 0.961 . S
C488 H490 0.961 . S
C488 H491 0.960 . S
H489 C488 0.961 . S
H490 C488 0.961 . S
H491 C488 0.960 . S
C492 N493 1.342 . S
C492 C496 1.401 . S
C492 C497 1.499 . S
N493 Co476 1.989 . S
N493 C492 1.342 . S
N493 N494 1.388 . S
N494 Co477 1.993 1_545 S
N494 N493 1.388 . S
N494 C495 1.346 . S
C495 N494 1.346 . S
C495 C496 1.396 . S
C495 C505 1.510 . S
C496 C492 1.401 . S
C496 C495 1.396 . S
C497 C492 1.499 . S
C497 H498 0.959 . S
C497 H499 0.960 . S
C497 H500 0.961 . S
H498 C497 0.959 . S
H499 C497 0.960 . S
H500 C497 0.961 . S
O501 Co476 1.967 . S
O501 C509 1.258 . S
O502 Co477 1.941 . S
O502 C509 1.266 1_565 S
H503 C505 0.959 . S
H504 C505 0.961 . S
C505 C495 1.510 . S
C505 H503 0.959 . S
C505 H504 0.961 . S
C505 H506 0.960 1_545 S
H506 C505 0.960 1_565 S
H507 N487 0.862 . S
O508 Co476 1.920 . S
O508 C481 1.289 . S
C509 O501 1.258 . S
C509 O502 1.266 1_545 S
Co510 O513 1.970 . S
Co510 N527 1.989 . S
Co510 O535 1.967 . S
Co510 O542 1.920 1_455 S
Co511 O514 1.966 . S
Co511 N520 2.022 . S
Co511 N528 1.993 . S
Co511 O536 1.941 . S
C512 O513 1.258 . S
C512 O514 1.263 . S
O513 Co510 1.970 . S
O513 C512 1.258 . S
O514 Co511 1.966 . S
O514 C512 1.263 . S
C515 O516 1.235 . S
C515 O542 1.289 . S
O516 C515 1.235 . S
C517 C519 1.400 . S
C517 N520 1.351 . S
C517 C522 1.501 . S
C518 C519 1.387 . S
C518 N521 1.341 . S
C519 C517 1.400 . S
C519 C518 1.387 . S
N520 Co511 2.022 . S
N520 C517 1.351 . S
N520 N521 1.365 . S
N521 C518 1.341 . S
N521 N520 1.365 . S
N521 H541 0.862 . S
C522 C517 1.501 . S
C522 H523 0.961 . S
C522 H524 0.961 . S
C522 H525 0.960 . S
H523 C522 0.961 . S
H524 C522 0.961 . S
H525 C522 0.960 . S
C526 N527 1.342 1_655 S
C526 C530 1.401 . S
C526 C531 1.499 . S
N527 Co510 1.989 . S
N527 C526 1.342 1_455 S
N527 N528 1.388 . S
N528 Co511 1.993 . S
N528 N527 1.388 . S
N528 C529 1.346 . S
C529 N528 1.346 . S
C529 C530 1.396 1_455 S
C529 C539 1.510 . S
C530 C526 1.401 . S
C530 C529 1.396 1_655 S
C531 C526 1.499 . S
C531 H532 0.959 . S
C531 H533 0.960 . S
C531 H534 0.961 . S
H532 C531 0.959 . S
H533 C531 0.960 . S
H534 C531 0.961 . S
O535 Co510 1.967 . S
O535 C543 1.258 . S
O536 Co511 1.941 . S
O536 C543 1.266 . S
H537 C539 0.959 . S
H538 C539 0.961 . S
C539 C529 1.510 . S
C539 H537 0.959 . S
C539 H538 0.961 . S
C539 H540 0.960 . S
H540 C539 0.960 . S
H541 N521 0.862 . S
O542 Co510 1.920 1_655 S
O542 C515 1.289 . S
C543 O535 1.258 . S
C543 O536 1.266 . S
Co544 O547 1.970 . S
Co544 N561 1.989 . S
Co544 O569 1.967 . S
Co544 O576 1.920 . S
Co545 O548 1.966 . S
Co545 N554 2.022 . S
Co545 N562 1.993 1_556 S
Co545 O570 1.941 . S
C546 O547 1.258 1_556 S
C546 O548 1.263 . S
O547 Co544 1.970 . S
O547 C546 1.258 1_554 S
O548 Co545 1.966 . S
O548 C546 1.263 . S
C549 O550 1.235 . S
C549 O576 1.289 . S
O550 C549 1.235 . S
C551 C553 1.400 . S
C551 N554 1.351 . S
C551 C556 1.501 . S
C552 C553 1.387 . S
C552 N555 1.341 . S
C553 C551 1.400 . S
C553 C552 1.387 . S
N554 Co545 2.022 . S
N554 C551 1.351 . S
N554 N555 1.365 . S
N555 C552 1.341 . S
N555 N554 1.365 . S
N555 H575 0.862 . S
C556 C551 1.501 . S
C556 H557 0.961 . S
C556 H558 0.961 . S
C556 H559 0.960 . S
H557 C556 0.961 . S
H558 C556 0.961 . S
H559 C556 0.960 . S
C560 N561 1.342 . S
C560 C564 1.401 . S
C560 C565 1.499 . S
N561 Co544 1.989 . S
N561 C560 1.342 . S
N561 N562 1.388 . S
N562 Co545 1.993 1_554 S
N562 N561 1.388 . S
N562 C563 1.346 . S
C563 N562 1.346 . S
C563 C564 1.396 . S
C563 C573 1.510 . S
C564 C560 1.401 . S
C564 C563 1.396 . S
C565 C560 1.499 . S
C565 H566 0.959 . S
C565 H567 0.960 . S
C565 H568 0.961 . S
H566 C565 0.959 . S
H567 C565 0.960 . S
H568 C565 0.961 . S
O569 Co544 1.967 . S
O569 C577 1.258 . S
O570 Co545 1.941 . S
O570 C577 1.266 1_556 S
H571 C573 0.959 . S
H572 C573 0.961 . S
C573 C563 1.510 . S
C573 H571 0.959 . S
C573 H572 0.961 . S
C573 H574 0.960 1_554 S
H574 C573 0.960 1_556 S
H575 N555 0.862 . S
O576 Co544 1.920 . S
O576 C549 1.289 . S
C577 O569 1.258 . S
C577 O570 1.266 1_554 S
Co578 O581 1.970 . S
Co578 N595 1.989 . S
Co578 O603 1.967 . S
Co578 O610 1.920 1_554 S
Co579 O582 1.966 . S
Co579 N588 2.022 . S
Co579 N596 1.993 . S
Co579 O604 1.941 . S
C580 O581 1.258 . S
C580 O582 1.263 . S
O581 Co578 1.970 . S
O581 C580 1.258 . S
O582 Co579 1.966 . S
O582 C580 1.263 . S
C583 O584 1.235 . S
C583 O610 1.289 . S
O584 C583 1.235 . S
C585 C587 1.400 . S
C585 N588 1.351 . S
C585 C590 1.501 . S
C586 C587 1.387 . S
C586 N589 1.341 . S
C587 C585 1.400 . S
C587 C586 1.387 . S
N588 Co579 2.022 . S
N588 C585 1.351 . S
N588 N589 1.365 . S
N589 C586 1.341 . S
N589 N588 1.365 . S
N589 H609 0.862 . S
C590 C585 1.501 . S
C590 H591 0.961 . S
C590 H592 0.961 . S
C590 H593 0.960 . S
H591 C590 0.961 . S
H592 C590 0.961 . S
H593 C590 0.960 . S
C594 N595 1.342 1_556 S
C594 C598 1.401 . S
C594 C599 1.499 . S
N595 Co578 1.989 . S
N595 C594 1.342 1_554 S
N595 N596 1.388 . S
N596 Co579 1.993 . S
N596 N595 1.388 . S
N596 C597 1.346 . S
C597 N596 1.346 . S
C597 C598 1.396 1_554 S
C597 C607 1.510 . S
C598 C594 1.401 . S
C598 C597 1.396 1_556 S
C599 C594 1.499 . S
C599 H600 0.959 . S
C599 H601 0.960 . S
C599 H602 0.961 . S
H600 C599 0.959 . S
H601 C599 0.960 . S
H602 C599 0.961 . S
O603 Co578 1.967 . S
O603 C611 1.258 . S
O604 Co579 1.941 . S
O604 C611 1.266 . S
H605 C607 0.959 . S
H606 C607 0.961 . S
C607 C597 1.510 . S
C607 H605 0.959 . S
C607 H606 0.961 . S
C607 H608 0.960 . S
H608 C607 0.960 . S
H609 N589 0.862 . S
O610 Co578 1.920 1_556 S
O610 C583 1.289 . S
C611 O603 1.258 . S
C611 O604 1.266 . S
Co612 O615 1.970 . S
Co612 N629 1.989 . S
Co612 O637 1.967 . S
Co612 O644 1.920 1_554 S
Co613 O616 1.966 . S
Co613 N622 2.022 . S
Co613 N630 1.993 . S
Co613 O638 1.941 . S
C614 O615 1.258 . S
C614 O616 1.263 . S
O615 Co612 1.970 . S
O615 C614 1.258 . S
O616 Co613 1.966 . S
O616 C614 1.263 . S
C617 O618 1.235 . S
C617 O644 1.289 . S
O618 C617 1.235 . S
C619 C621 1.400 . S
C619 N622 1.351 . S
C619 C624 1.501 . S
C620 C621 1.387 . S
C620 N623 1.341 . S
C621 C619 1.400 . S
C621 C620 1.387 . S
N622 Co613 2.022 . S
N622 C619 1.351 . S
N622 N623 1.365 . S
N623 C620 1.341 . S
N623 N622 1.365 . S
N623 H643 0.862 . S
C624 C619 1.501 . S
C624 H625 0.961 . S
C624 H626 0.961 . S
C624 H627 0.960 . S
H625 C624 0.961 . S
H626 C624 0.961 . S
H627 C624 0.960 . S
C628 N629 1.342 1_556 S
C628 C632 1.401 . S
C628 C633 1.499 . S
N629 Co612 1.989 . S
N629 C628 1.342 1_554 S
N629 N630 1.388 . S
N630 Co613 1.993 . S
N630 N629 1.388 . S
N630 C631 1.346 . S
C631 N630 1.346 . S
C631 C632 1.396 1_554 S
C631 C641 1.510 . S
C632 C628 1.401 . S
C632 C631 1.396 1_556 S
C633 C628 1.499 . S
C633 H634 0.959 . S
C633 H635 0.960 . S
C633 H636 0.961 . S
H634 C633 0.959 . S
H635 C633 0.960 . S
H636 C633 0.961 . S
O637 Co612 1.967 . S
O637 C645 1.258 . S
O638 Co613 1.941 . S
O638 C645 1.266 . S
H639 C641 0.959 . S
H640 C641 0.961 . S
C641 C631 1.510 . S
C641 H639 0.959 . S
C641 H640 0.961 . S
C641 H642 0.960 . S
H642 C641 0.960 . S
H643 N623 0.862 . S
O644 Co612 1.920 1_556 S
O644 C617 1.289 . S
C645 O637 1.258 . S
C645 O638 1.266 . S
Co646 O649 1.970 . S
Co646 N663 1.989 . S
Co646 O671 1.967 . S
Co646 O678 1.920 1_554 S
Co647 O650 1.966 . S
Co647 N656 2.022 . S
Co647 N664 1.993 . S
Co647 O672 1.941 . S
C648 O649 1.258 . S
C648 O650 1.263 . S
O649 Co646 1.970 . S
O649 C648 1.258 . S
O650 Co647 1.966 . S
O650 C648 1.263 . S
C651 O652 1.235 . S
C651 O678 1.289 . S
O652 C651 1.235 . S
C653 C655 1.400 . S
C653 N656 1.351 . S
C653 C658 1.501 . S
C654 C655 1.387 . S
C654 N657 1.341 . S
C655 C653 1.400 . S
C655 C654 1.387 . S
N656 Co647 2.022 . S
N656 C653 1.351 . S
N656 N657 1.365 . S
N657 C654 1.341 . S
N657 N656 1.365 . S
N657 H677 0.862 . S
C658 C653 1.501 . S
C658 H659 0.961 . S
C658 H660 0.961 . S
C658 H661 0.960 . S
H659 C658 0.961 . S
H660 C658 0.961 . S
H661 C658 0.960 . S
C662 N663 1.342 1_556 S
C662 C666 1.401 . S
C662 C667 1.499 . S
N663 Co646 1.989 . S
N663 C662 1.342 1_554 S
N663 N664 1.388 . S
N664 Co647 1.993 . S
N664 N663 1.388 . S
N664 C665 1.346 . S
C665 N664 1.346 . S
C665 C666 1.396 1_554 S
C665 C675 1.510 . S
C666 C662 1.401 . S
C666 C665 1.396 1_556 S
C667 C662 1.499 . S
C667 H668 0.959 . S
C667 H669 0.960 . S
C667 H670 0.961 . S
H668 C667 0.959 . S
H669 C667 0.960 . S
H670 C667 0.961 . S
O671 Co646 1.967 . S
O671 C679 1.258 . S
O672 Co647 1.941 . S
O672 C679 1.266 . S
H673 C675 0.959 . S
H674 C675 0.961 . S
C675 C665 1.510 . S
C675 H673 0.959 . S
C675 H674 0.961 . S
C675 H676 0.960 . S
H676 C675 0.960 . S
H677 N657 0.862 . S
O678 Co646 1.920 1_556 S
O678 C651 1.289 . S
C679 O671 1.258 . S
C679 O672 1.266 . S
Co680 O683 1.970 . S
Co680 N697 1.989 . S
Co680 O705 1.967 . S
Co680 O712 1.920 1_554 S
Co681 O684 1.966 . S
Co681 N690 2.022 . S
Co681 N698 1.993 . S
Co681 O706 1.941 . S
C682 O683 1.258 . S
C682 O684 1.263 . S
O683 Co680 1.970 . S
O683 C682 1.258 . S
O684 Co681 1.966 . S
O684 C682 1.263 . S
C685 O686 1.235 . S
C685 O712 1.289 . S
O686 C685 1.235 . S
C687 C689 1.400 . S
C687 N690 1.351 . S
C687 C692 1.501 . S
C688 C689 1.387 . S
C688 N691 1.341 . S
C689 C687 1.400 . S
C689 C688 1.387 . S
N690 Co681 2.022 . S
N690 C687 1.351 . S
N690 N691 1.365 . S
N691 C688 1.341 . S
N691 N690 1.365 . S
N691 H711 0.862 . S
C692 C687 1.501 . S
C692 H693 0.961 . S
C692 H694 0.961 . S
C692 H695 0.960 . S
H693 C692 0.961 . S
H694 C692 0.961 . S
H695 C692 0.960 . S
C696 N697 1.342 1_556 S
C696 C700 1.401 . S
C696 C701 1.499 . S
N697 Co680 1.989 . S
N697 C696 1.342 1_554 S
N697 N698 1.388 . S
N698 Co681 1.993 . S
N698 N697 1.388 . S
N698 C699 1.346 . S
C699 N698 1.346 . S
C699 C700 1.396 1_554 S
C699 C709 1.510 . S
C700 C696 1.401 . S
C700 C699 1.396 1_556 S
C701 C696 1.499 . S
C701 H702 0.959 . S
C701 H703 0.960 . S
C701 H704 0.961 . S
H702 C701 0.959 . S
H703 C701 0.960 . S
H704 C701 0.961 . S
O705 Co680 1.967 . S
O705 C713 1.258 . S
O706 Co681 1.941 . S
O706 C713 1.266 . S
H707 C709 0.959 . S
H708 C709 0.961 . S
C709 C699 1.510 . S
C709 H707 0.959 . S
C709 H708 0.961 . S
C709 H710 0.960 . S
H710 C709 0.960 . S
H711 N691 0.862 . S
O712 Co680 1.920 1_556 S
O712 C685 1.289 . S
C713 O705 1.258 . S
C713 O706 1.266 . S
Co714 O717 1.970 . S
Co714 N731 1.989 . S
Co714 O739 1.967 . S
Co714 O746 1.920 . S
Co715 O718 1.966 . S
Co715 N724 2.022 . S
Co715 N732 1.993 1_556 S
Co715 O740 1.941 . S
C716 O717 1.258 1_556 S
C716 O718 1.263 . S
O717 Co714 1.970 . S
O717 C716 1.258 1_554 S
O718 Co715 1.966 . S
O718 C716 1.263 . S
C719 O720 1.235 . S
C719 O746 1.289 . S
O720 C719 1.235 . S
C721 C723 1.400 . S
C721 N724 1.351 . S
C721 C726 1.501 . S
C722 C723 1.387 . S
C722 N725 1.341 . S
C723 C721 1.400 . S
C723 C722 1.387 . S
N724 Co715 2.022 . S
N724 C721 1.351 . S
N724 N725 1.365 . S
N725 C722 1.341 . S
N725 N724 1.365 . S
N725 H745 0.862 . S
C726 C721 1.501 . S
C726 H727 0.961 . S
C726 H728 0.961 . S
C726 H729 0.960 . S
H727 C726 0.961 . S
H728 C726 0.961 . S
H729 C726 0.960 . S
C730 N731 1.342 . S
C730 C734 1.401 . S
C730 C735 1.499 . S
N731 Co714 1.989 . S
N731 C730 1.342 . S
N731 N732 1.388 . S
N732 Co715 1.993 1_554 S
N732 N731 1.388 . S
N732 C733 1.346 . S
C733 N732 1.346 . S
C733 C734 1.396 . S
C733 C743 1.510 . S
C734 C730 1.401 . S
C734 C733 1.396 . S
C735 C730 1.499 . S
C735 H736 0.959 . S
C735 H737 0.960 . S
C735 H738 0.961 . S
H736 C735 0.959 . S
H737 C735 0.960 . S
H738 C735 0.961 . S
O739 Co714 1.967 . S
O739 C747 1.258 . S
O740 Co715 1.941 . S
O740 C747 1.266 1_556 S
H741 C743 0.959 . S
H742 C743 0.961 . S
C743 C733 1.510 . S
C743 H741 0.959 . S
C743 H742 0.961 . S
C743 H744 0.960 1_554 S
H744 C743 0.960 1_556 S
H745 N725 0.862 . S
O746 Co714 1.920 . S
O746 C719 1.289 . S
C747 O739 1.258 . S
C747 O740 1.266 1_554 S
Co748 O751 1.970 . S
Co748 N765 1.989 . S
Co748 O773 1.967 . S
Co748 O780 1.920 . S
Co749 O752 1.966 . S
Co749 N758 2.022 . S
Co749 N766 1.993 1_556 S
Co749 O774 1.941 . S
C750 O751 1.258 1_556 S
C750 O752 1.263 . S
O751 Co748 1.970 . S
O751 C750 1.258 1_554 S
O752 Co749 1.966 . S
O752 C750 1.263 . S
C753 O754 1.235 . S
C753 O780 1.289 . S
O754 C753 1.235 . S
C755 C757 1.400 . S
C755 N758 1.351 . S
C755 C760 1.501 . S
C756 C757 1.387 . S
C756 N759 1.341 . S
C757 C755 1.400 . S
C757 C756 1.387 . S
N758 Co749 2.022 . S
N758 C755 1.351 . S
N758 N759 1.365 . S
N759 C756 1.341 . S
N759 N758 1.365 . S
N759 H779 0.862 . S
C760 C755 1.501 . S
C760 H761 0.961 . S
C760 H762 0.961 . S
C760 H763 0.960 . S
H761 C760 0.961 . S
H762 C760 0.961 . S
H763 C760 0.960 . S
C764 N765 1.342 . S
C764 C768 1.401 . S
C764 C769 1.499 . S
N765 Co748 1.989 . S
N765 C764 1.342 . S
N765 N766 1.388 . S
N766 Co749 1.993 1_554 S
N766 N765 1.388 . S
N766 C767 1.346 . S
C767 N766 1.346 . S
C767 C768 1.396 . S
C767 C777 1.510 . S
C768 C764 1.401 . S
C768 C767 1.396 . S
C769 C764 1.499 . S
C769 H770 0.959 . S
C769 H771 0.960 . S
C769 H772 0.961 . S
H770 C769 0.959 . S
H771 C769 0.960 . S
H772 C769 0.961 . S
O773 Co748 1.967 . S
O773 C781 1.258 . S
O774 Co749 1.941 . S
O774 C781 1.266 1_556 S
H775 C777 0.959 . S
H776 C777 0.961 . S
C777 C767 1.510 . S
C777 H775 0.959 . S
C777 H776 0.961 . S
C777 H778 0.960 1_554 S
H778 C777 0.960 1_556 S
H779 N759 0.862 . S
O780 Co748 1.920 . S
O780 C753 1.289 . S
C781 O773 1.258 . S
C781 O774 1.266 1_554 S
Co782 O785 1.970 . S
Co782 N799 1.989 . S
Co782 O807 1.967 . S
Co782 O814 1.920 . S
Co783 O786 1.966 . S
Co783 N792 2.022 . S
Co783 N800 1.993 1_556 S
Co783 O808 1.941 . S
C784 O785 1.258 1_556 S
C784 O786 1.263 . S
O785 Co782 1.970 . S
O785 C784 1.258 1_554 S
O786 Co783 1.966 . S
O786 C784 1.263 . S
C787 O788 1.235 . S
C787 O814 1.289 . S
O788 C787 1.235 . S
C789 C791 1.400 . S
C789 N792 1.351 . S
C789 C794 1.501 . S
C790 C791 1.387 . S
C790 N793 1.341 . S
C791 C789 1.400 . S
C791 C790 1.387 . S
N792 Co783 2.022 . S
N792 C789 1.351 . S
N792 N793 1.365 . S
N793 C790 1.341 . S
N793 N792 1.365 . S
N793 H813 0.862 . S
C794 C789 1.501 . S
C794 H795 0.961 . S
C794 H796 0.961 . S
C794 H797 0.960 . S
H795 C794 0.961 . S
H796 C794 0.961 . S
H797 C794 0.960 . S
C798 N799 1.342 . S
C798 C802 1.401 . S
C798 C803 1.499 . S
N799 Co782 1.989 . S
N799 C798 1.342 . S
N799 N800 1.388 . S
N800 Co783 1.993 1_554 S
N800 N799 1.388 . S
N800 C801 1.346 . S
C801 N800 1.346 . S
C801 C802 1.396 . S
C801 C811 1.510 . S
C802 C798 1.401 . S
C802 C801 1.396 . S
C803 C798 1.499 . S
C803 H804 0.959 . S
C803 H805 0.960 . S
C803 H806 0.961 . S
H804 C803 0.959 . S
H805 C803 0.960 . S
H806 C803 0.961 . S
O807 Co782 1.967 . S
O807 C815 1.258 . S
O808 Co783 1.941 . S
O808 C815 1.266 1_556 S
H809 C811 0.959 . S
H810 C811 0.961 . S
C811 C801 1.510 . S
C811 H809 0.959 . S
C811 H810 0.961 . S
C811 H812 0.960 1_554 S
H812 C811 0.960 1_556 S
H813 N793 0.862 . S
O814 Co782 1.920 . S
O814 C787 1.289 . S
C815 O807 1.258 . S
C815 O808 1.266 1_554 S
Co816 O819 1.970 . S
Co816 N833 1.989 . S
Co816 O841 1.967 . S
Co816 O848 1.920 . S
Co817 O820 1.966 . S
Co817 N826 2.022 . S
Co817 N834 1.993 . S
Co817 O842 1.941 . S
C818 O819 1.258 . S
C818 O820 1.263 . S
O819 Co816 1.970 . S
O819 C818 1.258 . S
O820 Co817 1.966 . S
O820 C818 1.263 . S
C821 O822 1.235 . S
C821 O848 1.289 . S
O822 C821 1.235 . S
C823 C825 1.400 . S
C823 N826 1.351 . S
C823 C828 1.501 . S
C824 C825 1.387 . S
C824 N827 1.341 . S
C825 C823 1.400 . S
C825 C824 1.387 . S
N826 Co817 2.022 . S
N826 C823 1.351 . S
N826 N827 1.365 . S
N827 C824 1.341 . S
N827 N826 1.365 . S
N827 H847 0.862 . S
C828 C823 1.501 . S
C828 H829 0.961 . S
C828 H830 0.961 . S
C828 H831 0.960 . S
H829 C828 0.961 . S
H830 C828 0.961 . S
H831 C828 0.960 . S
C832 N833 1.342 . S
C832 C836 1.401 . S
C832 C837 1.499 . S
N833 Co816 1.989 . S
N833 C832 1.342 . S
N833 N834 1.388 . S
N834 Co817 1.993 . S
N834 N833 1.388 . S
N834 C835 1.346 . S
C835 N834 1.346 . S
C835 C836 1.396 . S
C835 C845 1.510 . S
C836 C832 1.401 . S
C836 C835 1.396 . S
C837 C832 1.499 . S
C837 H838 0.959 . S
C837 H839 0.960 . S
C837 H840 0.961 . S
H838 C837 0.959 . S
H839 C837 0.960 . S
H840 C837 0.961 . S
O841 Co816 1.967 . S
O841 C849 1.258 . S
O842 Co817 1.941 . S
O842 C849 1.266 . S
H843 C845 0.959 . S
H844 C845 0.961 . S
C845 C835 1.510 . S
C845 H843 0.959 . S
C845 H844 0.961 . S
C845 H846 0.960 . S
H846 C845 0.960 . S
H847 N827 0.862 . S
O848 Co816 1.920 . S
O848 C821 1.289 . S
C849 O841 1.258 . S
C849 O842 1.266 . S
Co850 O853 1.970 . S
Co850 N867 1.989 . S
Co850 O875 1.967 . S
Co850 O882 1.920 . S
Co851 O854 1.966 . S
Co851 N860 2.022 . S
Co851 N868 1.993 . S
Co851 O876 1.941 . S
C852 O853 1.258 . S
C852 O854 1.263 . S
O853 Co850 1.970 . S
O853 C852 1.258 . S
O854 Co851 1.966 . S
O854 C852 1.263 . S
C855 O856 1.235 . S
C855 O882 1.289 . S
O856 C855 1.235 . S
C857 C859 1.400 . S
C857 N860 1.351 . S
C857 C862 1.501 . S
C858 C859 1.387 . S
C858 N861 1.341 . S
C859 C857 1.400 . S
C859 C858 1.387 . S
N860 Co851 2.022 . S
N860 C857 1.351 . S
N860 N861 1.365 . S
N861 C858 1.341 . S
N861 N860 1.365 . S
N861 H881 0.862 . S
C862 C857 1.501 . S
C862 H863 0.961 . S
C862 H864 0.961 . S
C862 H865 0.960 . S
H863 C862 0.961 . S
H864 C862 0.961 . S
H865 C862 0.960 . S
C866 N867 1.342 . S
C866 C870 1.401 . S
C866 C871 1.499 . S
N867 Co850 1.989 . S
N867 C866 1.342 . S
N867 N868 1.388 . S
N868 Co851 1.993 . S
N868 N867 1.388 . S
N868 C869 1.346 . S
C869 N868 1.346 . S
C869 C870 1.396 . S
C869 C879 1.510 . S
C870 C866 1.401 . S
C870 C869 1.396 . S
C871 C866 1.499 . S
C871 H872 0.959 . S
C871 H873 0.960 . S
C871 H874 0.961 . S
H872 C871 0.959 . S
H873 C871 0.960 . S
H874 C871 0.961 . S
O875 Co850 1.967 . S
O875 C883 1.258 . S
O876 Co851 1.941 . S
O876 C883 1.266 . S
H877 C879 0.959 . S
H878 C879 0.961 . S
C879 C869 1.510 . S
C879 H877 0.959 . S
C879 H878 0.961 . S
C879 H880 0.960 . S
H880 C879 0.960 . S
H881 N861 0.862 . S
O882 Co850 1.920 . S
O882 C855 1.289 . S
C883 O875 1.258 . S
C883 O876 1.266 . S
Co884 O887 1.970 . S
Co884 N901 1.989 . S
Co884 O909 1.967 . S
Co884 O916 1.920 . S
Co885 O888 1.966 . S
Co885 N894 2.022 . S
Co885 N902 1.993 . S
Co885 O910 1.941 . S
C886 O887 1.258 . S
C886 O888 1.263 . S
O887 Co884 1.970 . S
O887 C886 1.258 . S
O888 Co885 1.966 . S
O888 C886 1.263 . S
C889 O890 1.235 . S
C889 O916 1.289 . S
O890 C889 1.235 . S
C891 C893 1.400 . S
C891 N894 1.351 . S
C891 C896 1.501 . S
C892 C893 1.387 . S
C892 N895 1.341 . S
C893 C891 1.400 . S
C893 C892 1.387 . S
N894 Co885 2.022 . S
N894 C891 1.351 . S
N894 N895 1.365 . S
N895 C892 1.341 . S
N895 N894 1.365 . S
N895 H915 0.862 . S
C896 C891 1.501 . S
C896 H897 0.961 . S
C896 H898 0.961 . S
C896 H899 0.960 . S
H897 C896 0.961 . S
H898 C896 0.961 . S
H899 C896 0.960 . S
C900 N901 1.342 . S
C900 C904 1.401 . S
C900 C905 1.499 . S
N901 Co884 1.989 . S
N901 C900 1.342 . S
N901 N902 1.388 . S
N902 Co885 1.993 . S
N902 N901 1.388 . S
N902 C903 1.346 . S
C903 N902 1.346 . S
C903 C904 1.396 . S
C903 C913 1.510 . S
C904 C900 1.401 . S
C904 C903 1.396 . S
C905 C900 1.499 . S
C905 H906 0.959 . S
C905 H907 0.960 . S
C905 H908 0.961 . S
H906 C905 0.959 . S
H907 C905 0.960 . S
H908 C905 0.961 . S
O909 Co884 1.967 . S
O909 C917 1.258 . S
O910 Co885 1.941 . S
O910 C917 1.266 . S
H911 C913 0.959 . S
H912 C913 0.961 . S
C913 C903 1.510 . S
C913 H911 0.959 . S
C913 H912 0.961 . S
C913 H914 0.960 . S
H914 C913 0.960 . S
H915 N895 0.862 . S
O916 Co884 1.920 . S
O916 C889 1.289 . S
C917 O909 1.258 . S
C917 O910 1.266 . S
Co918 O921 1.970 . S
Co918 N935 1.989 . S
Co918 O943 1.967 . S
Co918 O950 1.920 . S
Co919 O922 1.966 . S
Co919 N928 2.022 . S
Co919 N936 1.993 . S
Co919 O944 1.941 . S
C920 O921 1.258 . S
C920 O922 1.263 . S
O921 Co918 1.970 . S
O921 C920 1.258 . S
O922 Co919 1.966 . S
O922 C920 1.263 . S
C923 O924 1.235 . S
C923 O950 1.289 . S
O924 C923 1.235 . S
C925 C927 1.400 . S
C925 N928 1.351 . S
C925 C930 1.501 . S
C926 C927 1.387 . S
C926 N929 1.341 . S
C927 C925 1.400 . S
C927 C926 1.387 . S
N928 Co919 2.022 . S
N928 C925 1.351 . S
N928 N929 1.365 . S
N929 C926 1.341 . S
N929 N928 1.365 . S
N929 H949 0.862 . S
C930 C925 1.501 . S
C930 H931 0.961 . S
C930 H932 0.961 . S
C930 H933 0.960 . S
H931 C930 0.961 . S
H932 C930 0.961 . S
H933 C930 0.960 . S
C934 N935 1.342 . S
C934 C938 1.401 . S
C934 C939 1.499 . S
N935 Co918 1.989 . S
N935 C934 1.342 . S
N935 N936 1.388 . S
N936 Co919 1.993 . S
N936 N935 1.388 . S
N936 C937 1.346 . S
C937 N936 1.346 . S
C937 C938 1.396 . S
C937 C947 1.510 . S
C938 C934 1.401 . S
C938 C937 1.396 . S
C939 C934 1.499 . S
C939 H940 0.959 . S
C939 H941 0.960 . S
C939 H942 0.961 . S
H940 C939 0.959 . S
H941 C939 0.960 . S
H942 C939 0.961 . S
O943 Co918 1.967 . S
O943 C951 1.258 . S
O944 Co919 1.941 . S
O944 C951 1.266 . S
H945 C947 0.959 . S
H946 C947 0.961 . S
C947 C937 1.510 . S
C947 H945 0.959 . S
C947 H946 0.961 . S
C947 H948 0.960 . S
H948 C947 0.960 . S
H949 N929 0.862 . S
O950 Co918 1.920 . S
O950 C923 1.289 . S
C951 O943 1.258 . S
C951 O944 1.266 . S
Co952 O955 1.970 . S
Co952 N969 1.989 . S
Co952 O977 1.967 . S
Co952 O984 1.920 . S
Co953 O956 1.966 . S
Co953 N962 2.022 . S
Co953 N970 1.993 . S
Co953 O978 1.941 . S
C954 O955 1.258 . S
C954 O956 1.263 . S
O955 Co952 1.970 . S
O955 C954 1.258 . S
O956 Co953 1.966 . S
O956 C954 1.263 . S
C957 O958 1.235 . S
C957 O984 1.289 . S
O958 C957 1.235 . S
C959 C961 1.400 . S
C959 N962 1.351 . S
C959 C964 1.501 . S
C960 C961 1.387 . S
C960 N963 1.341 . S
C961 C959 1.400 . S
C961 C960 1.387 . S
N962 Co953 2.022 . S
N962 C959 1.351 . S
N962 N963 1.365 . S
N963 C960 1.341 . S
N963 N962 1.365 . S
N963 H983 0.862 . S
C964 C959 1.501 . S
C964 H965 0.961 . S
C964 H966 0.961 . S
C964 H967 0.960 . S
H965 C964 0.961 . S
H966 C964 0.961 . S
H967 C964 0.960 . S
C968 N969 1.342 . S
C968 C972 1.401 . S
C968 C973 1.499 . S
N969 Co952 1.989 . S
N969 C968 1.342 . S
N969 N970 1.388 . S
N970 Co953 1.993 . S
N970 N969 1.388 . S
N970 C971 1.346 . S
C971 N970 1.346 . S
C971 C972 1.396 . S
C971 C981 1.510 . S
C972 C968 1.401 . S
C972 C971 1.396 . S
C973 C968 1.499 . S
C973 H974 0.959 . S
C973 H975 0.960 . S
C973 H976 0.961 . S
H974 C973 0.959 . S
H975 C973 0.960 . S
H976 C973 0.961 . S
O977 Co952 1.967 . S
O977 C985 1.258 . S
O978 Co953 1.941 . S
O978 C985 1.266 . S
H979 C981 0.959 . S
H980 C981 0.961 . S
C981 C971 1.510 . S
C981 H979 0.959 . S
C981 H980 0.961 . S
C981 H982 0.960 . S
H982 C981 0.960 . S
H983 N963 0.862 . S
O984 Co952 1.920 . S
O984 C957 1.289 . S
C985 O977 1.258 . S
C985 O978 1.266 . S
Co986 O989 1.970 . S
Co986 N1003 1.989 . S
Co986 O1011 1.967 . S
Co986 O1018 1.920 . S
Co987 O990 1.966 . S
Co987 N996 2.022 . S
Co987 N1004 1.993 . S
Co987 O1012 1.941 . S
C988 O989 1.258 . S
C988 O990 1.263 . S
O989 Co986 1.970 . S
O989 C988 1.258 . S
O990 Co987 1.966 . S
O990 C988 1.263 . S
C991 O992 1.235 . S
C991 O1018 1.289 . S
O992 C991 1.235 . S
C993 C995 1.400 . S
C993 N996 1.351 . S
C993 C998 1.501 . S
C994 C995 1.387 . S
C994 N997 1.341 . S
C995 C993 1.400 . S
C995 C994 1.387 . S
N996 Co987 2.022 . S
N996 C993 1.351 . S
N996 N997 1.365 . S
N997 C994 1.341 . S
N997 N996 1.365 . S
N997 H1017 0.862 . S
C998 C993 1.501 . S
C998 H999 0.961 . S
C998 H1000 0.961 . S
C998 H1001 0.960 . S
H999 C998 0.961 . S
H1000 C998 0.961 . S
H1001 C998 0.960 . S
C1002 N1003 1.342 . S
C1002 C1006 1.401 . S
C1002 C1007 1.499 . S
N1003 Co986 1.989 . S
N1003 C1002 1.342 . S
N1003 N1004 1.388 . S
N1004 Co987 1.993 . S
N1004 N1003 1.388 . S
N1004 C1005 1.346 . S
C1005 N1004 1.346 . S
C1005 C1006 1.396 . S
C1005 C1015 1.510 . S
C1006 C1002 1.401 . S
C1006 C1005 1.396 . S
C1007 C1002 1.499 . S
C1007 H1008 0.959 . S
C1007 H1009 0.960 . S
C1007 H1010 0.961 . S
H1008 C1007 0.959 . S
H1009 C1007 0.960 . S
H1010 C1007 0.961 . S
O1011 Co986 1.967 . S
O1011 C1019 1.258 . S
O1012 Co987 1.941 . S
O1012 C1019 1.266 . S
H1013 C1015 0.959 . S
H1014 C1015 0.961 . S
C1015 C1005 1.510 . S
C1015 H1013 0.959 . S
C1015 H1014 0.961 . S
C1015 H1016 0.960 . S
H1016 C1015 0.960 . S
H1017 N997 0.862 . S
O1018 Co986 1.920 . S
O1018 C991 1.289 . S
C1019 O1011 1.258 . S
C1019 O1012 1.266 . S
Co1020 O1023 1.970 . S
Co1020 N1037 1.989 . S
Co1020 O1045 1.967 . S
Co1020 O1052 1.920 . S
Co1021 O1024 1.966 . S
Co1021 N1030 2.022 . S
Co1021 N1038 1.993 . S
Co1021 O1046 1.941 . S
C1022 O1023 1.258 . S
C1022 O1024 1.263 . S
O1023 Co1020 1.970 . S
O1023 C1022 1.258 . S
O1024 Co1021 1.966 . S
O1024 C1022 1.263 . S
C1025 O1026 1.235 . S
C1025 O1052 1.289 . S
O1026 C1025 1.235 . S
C1027 C1029 1.400 . S
C1027 N1030 1.351 . S
C1027 C1032 1.501 . S
C1028 C1029 1.387 . S
C1028 N1031 1.341 . S
C1029 C1027 1.400 . S
C1029 C1028 1.387 . S
N1030 Co1021 2.022 . S
N1030 C1027 1.351 . S
N1030 N1031 1.365 . S
N1031 C1028 1.341 . S
N1031 N1030 1.365 . S
N1031 H1051 0.862 . S
C1032 C1027 1.501 . S
C1032 H1033 0.961 . S
C1032 H1034 0.961 . S
C1032 H1035 0.960 . S
H1033 C1032 0.961 . S
H1034 C1032 0.961 . S
H1035 C1032 0.960 . S
C1036 N1037 1.342 . S
C1036 C1040 1.401 . S
C1036 C1041 1.499 . S
N1037 Co1020 1.989 . S
N1037 C1036 1.342 . S
N1037 N1038 1.388 . S
N1038 Co1021 1.993 . S
N1038 N1037 1.388 . S
N1038 C1039 1.346 . S
C1039 N1038 1.346 . S
C1039 C1040 1.396 . S
C1039 C1049 1.510 . S
C1040 C1036 1.401 . S
C1040 C1039 1.396 . S
C1041 C1036 1.499 . S
C1041 H1042 0.959 . S
C1041 H1043 0.960 . S
C1041 H1044 0.961 . S
H1042 C1041 0.959 . S
H1043 C1041 0.960 . S
H1044 C1041 0.961 . S
O1045 Co1020 1.967 . S
O1045 C1053 1.258 . S
O1046 Co1021 1.941 . S
O1046 C1053 1.266 . S
H1047 C1049 0.959 . S
H1048 C1049 0.961 . S
C1049 C1039 1.510 . S
C1049 H1047 0.959 . S
C1049 H1048 0.961 . S
C1049 H1050 0.960 . S
H1050 C1049 0.960 . S
H1051 N1031 0.862 . S
O1052 Co1020 1.920 . S
O1052 C1025 1.289 . S
C1053 O1045 1.258 . S
C1053 O1046 1.266 . S
Co1054 O1057 1.970 . S
Co1054 N1071 1.989 . S
Co1054 O1079 1.967 . S
Co1054 O1086 1.920 . S
Co1055 O1058 1.966 . S
Co1055 N1064 2.022 . S
Co1055 N1072 1.993 . S
Co1055 O1080 1.941 . S
C1056 O1057 1.258 . S
C1056 O1058 1.263 . S
O1057 Co1054 1.970 . S
O1057 C1056 1.258 . S
O1058 Co1055 1.966 . S
O1058 C1056 1.263 . S
C1059 O1060 1.235 . S
C1059 O1086 1.289 . S
O1060 C1059 1.235 . S
C1061 C1063 1.400 . S
C1061 N1064 1.351 . S
C1061 C1066 1.501 . S
C1062 C1063 1.387 . S
C1062 N1065 1.341 . S
C1063 C1061 1.400 . S
C1063 C1062 1.387 . S
N1064 Co1055 2.022 . S
N1064 C1061 1.351 . S
N1064 N1065 1.365 . S
N1065 C1062 1.341 . S
N1065 N1064 1.365 . S
N1065 H1085 0.862 . S
C1066 C1061 1.501 . S
C1066 H1067 0.961 . S
C1066 H1068 0.961 . S
C1066 H1069 0.960 . S
H1067 C1066 0.961 . S
H1068 C1066 0.961 . S
H1069 C1066 0.960 . S
C1070 N1071 1.342 . S
C1070 C1074 1.401 . S
C1070 C1075 1.499 . S
N1071 Co1054 1.989 . S
N1071 C1070 1.342 . S
N1071 N1072 1.388 . S
N1072 Co1055 1.993 . S
N1072 N1071 1.388 . S
N1072 C1073 1.346 . S
C1073 N1072 1.346 . S
C1073 C1074 1.396 . S
C1073 C1083 1.510 . S
C1074 C1070 1.401 . S
C1074 C1073 1.396 . S
C1075 C1070 1.499 . S
C1075 H1076 0.959 . S
C1075 H1077 0.960 . S
C1075 H1078 0.961 . S
H1076 C1075 0.959 . S
H1077 C1075 0.960 . S
H1078 C1075 0.961 . S
O1079 Co1054 1.967 . S
O1079 C1087 1.258 . S
O1080 Co1055 1.941 . S
O1080 C1087 1.266 . S
H1081 C1083 0.959 . S
H1082 C1083 0.961 . S
C1083 C1073 1.510 . S
C1083 H1081 0.959 . S
C1083 H1082 0.961 . S
C1083 H1084 0.960 . S
H1084 C1083 0.960 . S
H1085 N1065 0.862 . S
O1086 Co1054 1.920 . S
O1086 C1059 1.289 . S
C1087 O1079 1.258 . S
C1087 O1080 1.266 . S
Co1088 O1091 1.970 . S
Co1088 N1105 1.989 . S
Co1088 O1113 1.967 . S
Co1088 O1120 1.920 . S
Co1089 O1092 1.966 . S
Co1089 N1098 2.022 . S
Co1089 N1106 1.993 . S
Co1089 O1114 1.941 . S
C1090 O1091 1.258 . S
C1090 O1092 1.263 . S
O1091 Co1088 1.970 . S
O1091 C1090 1.258 . S
O1092 Co1089 1.966 . S
O1092 C1090 1.263 . S
C1093 O1094 1.235 . S
C1093 O1120 1.289 . S
O1094 C1093 1.235 . S
C1095 C1097 1.400 . S
C1095 N1098 1.351 . S
C1095 C1100 1.501 . S
C1096 C1097 1.387 . S
C1096 N1099 1.341 . S
C1097 C1095 1.400 . S
C1097 C1096 1.387 . S
N1098 Co1089 2.022 . S
N1098 C1095 1.351 . S
N1098 N1099 1.365 . S
N1099 C1096 1.341 . S
N1099 N1098 1.365 . S
N1099 H1119 0.862 . S
C1100 C1095 1.501 . S
C1100 H1101 0.961 . S
C1100 H1102 0.961 . S
C1100 H1103 0.960 . S
H1101 C1100 0.961 . S
H1102 C1100 0.961 . S
H1103 C1100 0.960 . S
C1104 N1105 1.342 . S
C1104 C1108 1.401 . S
C1104 C1109 1.499 . S
N1105 Co1088 1.989 . S
N1105 C1104 1.342 . S
N1105 N1106 1.388 . S
N1106 Co1089 1.993 . S
N1106 N1105 1.388 . S
N1106 C1107 1.346 . S
C1107 N1106 1.346 . S
C1107 C1108 1.396 . S
C1107 C1117 1.510 . S
C1108 C1104 1.401 . S
C1108 C1107 1.396 . S
C1109 C1104 1.499 . S
C1109 H1110 0.959 . S
C1109 H1111 0.960 . S
C1109 H1112 0.961 . S
H1110 C1109 0.959 . S
H1111 C1109 0.960 . S
H1112 C1109 0.961 . S
O1113 Co1088 1.967 . S
O1113 C1121 1.258 . S
O1114 Co1089 1.941 . S
O1114 C1121 1.266 . S
H1115 C1117 0.959 . S
H1116 C1117 0.961 . S
C1117 C1107 1.510 . S
C1117 H1115 0.959 . S
C1117 H1116 0.961 . S
C1117 H1118 0.960 . S
H1118 C1117 0.960 . S
H1119 N1099 0.862 . S
O1120 Co1088 1.920 . S
O1120 C1093 1.289 . S
C1121 O1113 1.258 . S
C1121 O1114 1.266 . S
Co1122 O1125 1.970 . S
Co1122 N1139 1.989 . S
Co1122 O1147 1.967 . S
Co1122 O1154 1.920 . S
Co1123 O1126 1.966 . S
Co1123 N1132 2.022 . S
Co1123 N1140 1.993 . S
Co1123 O1148 1.941 . S
C1124 O1125 1.258 . S
C1124 O1126 1.263 . S
O1125 Co1122 1.970 . S
O1125 C1124 1.258 . S
O1126 Co1123 1.966 . S
O1126 C1124 1.263 . S
C1127 O1128 1.235 . S
C1127 O1154 1.289 . S
O1128 C1127 1.235 . S
C1129 C1131 1.400 . S
C1129 N1132 1.351 . S
C1129 C1134 1.501 . S
C1130 C1131 1.387 . S
C1130 N1133 1.341 . S
C1131 C1129 1.400 . S
C1131 C1130 1.387 . S
N1132 Co1123 2.022 . S
N1132 C1129 1.351 . S
N1132 N1133 1.365 . S
N1133 C1130 1.341 . S
N1133 N1132 1.365 . S
N1133 H1153 0.862 . S
C1134 C1129 1.501 . S
C1134 H1135 0.961 . S
C1134 H1136 0.961 . S
C1134 H1137 0.960 . S
H1135 C1134 0.961 . S
H1136 C1134 0.961 . S
H1137 C1134 0.960 . S
C1138 N1139 1.342 . S
C1138 C1142 1.401 . S
C1138 C1143 1.499 . S
N1139 Co1122 1.989 . S
N1139 C1138 1.342 . S
N1139 N1140 1.388 . S
N1140 Co1123 1.993 . S
N1140 N1139 1.388 . S
N1140 C1141 1.346 . S
C1141 N1140 1.346 . S
C1141 C1142 1.396 . S
C1141 C1151 1.510 . S
C1142 C1138 1.401 . S
C1142 C1141 1.396 . S
C1143 C1138 1.499 . S
C1143 H1144 0.959 . S
C1143 H1145 0.960 . S
C1143 H1146 0.961 . S
H1144 C1143 0.959 . S
H1145 C1143 0.960 . S
H1146 C1143 0.961 . S
O1147 Co1122 1.967 . S
O1147 C1155 1.258 . S
O1148 Co1123 1.941 . S
O1148 C1155 1.266 . S
H1149 C1151 0.959 . S
H1150 C1151 0.961 . S
C1151 C1141 1.510 . S
C1151 H1149 0.959 . S
C1151 H1150 0.961 . S
C1151 H1152 0.960 . S
H1152 C1151 0.960 . S
H1153 N1133 0.862 . S
O1154 Co1122 1.920 . S
O1154 C1127 1.289 . S
C1155 O1147 1.258 . S
C1155 O1148 1.266 . S
Co1156 O1159 1.970 . S
Co1156 N1173 1.989 . S
Co1156 O1181 1.967 . S
Co1156 O1188 1.920 . S
Co1157 O1160 1.966 . S
Co1157 N1166 2.022 . S
Co1157 N1174 1.993 . S
Co1157 O1182 1.941 . S
C1158 O1159 1.258 . S
C1158 O1160 1.263 . S
O1159 Co1156 1.970 . S
O1159 C1158 1.258 . S
O1160 Co1157 1.966 . S
O1160 C1158 1.263 . S
C1161 O1162 1.235 . S
C1161 O1188 1.289 . S
O1162 C1161 1.235 . S
C1163 C1165 1.400 . S
C1163 N1166 1.351 . S
C1163 C1168 1.501 . S
C1164 C1165 1.387 . S
C1164 N1167 1.341 . S
C1165 C1163 1.400 . S
C1165 C1164 1.387 . S
N1166 Co1157 2.022 . S
N1166 C1163 1.351 . S
N1166 N1167 1.365 . S
N1167 C1164 1.341 . S
N1167 N1166 1.365 . S
N1167 H1187 0.862 . S
C1168 C1163 1.501 . S
C1168 H1169 0.961 . S
C1168 H1170 0.961 . S
C1168 H1171 0.960 . S
H1169 C1168 0.961 . S
H1170 C1168 0.961 . S
H1171 C1168 0.960 . S
C1172 N1173 1.342 . S
C1172 C1176 1.401 . S
C1172 C1177 1.499 . S
N1173 Co1156 1.989 . S
N1173 C1172 1.342 . S
N1173 N1174 1.388 . S
N1174 Co1157 1.993 . S
N1174 N1173 1.388 . S
N1174 C1175 1.346 . S
C1175 N1174 1.346 . S
C1175 C1176 1.396 . S
C1175 C1185 1.510 . S
C1176 C1172 1.401 . S
C1176 C1175 1.396 . S
C1177 C1172 1.499 . S
C1177 H1178 0.959 . S
C1177 H1179 0.960 . S
C1177 H1180 0.961 . S
H1178 C1177 0.959 . S
H1179 C1177 0.960 . S
H1180 C1177 0.961 . S
O1181 Co1156 1.967 . S
O1181 C1189 1.258 . S
O1182 Co1157 1.941 . S
O1182 C1189 1.266 . S
H1183 C1185 0.959 . S
H1184 C1185 0.961 . S
C1185 C1175 1.510 . S
C1185 H1183 0.959 . S
C1185 H1184 0.961 . S
C1185 H1186 0.960 . S
H1186 C1185 0.960 . S
H1187 N1167 0.862 . S
O1188 Co1156 1.920 . S
O1188 C1161 1.289 . S
C1189 O1181 1.258 . S
C1189 O1182 1.266 . S
Co1190 O1193 1.970 . S
Co1190 N1207 1.989 . S
Co1190 O1215 1.967 . S
Co1190 O1222 1.920 . S
Co1191 O1194 1.966 . S
Co1191 N1200 2.022 . S
Co1191 N1208 1.993 . S
Co1191 O1216 1.941 . S
C1192 O1193 1.258 . S
C1192 O1194 1.263 . S
O1193 Co1190 1.970 . S
O1193 C1192 1.258 . S
O1194 Co1191 1.966 . S
O1194 C1192 1.263 . S
C1195 O1196 1.235 . S
C1195 O1222 1.289 . S
O1196 C1195 1.235 . S
C1197 C1199 1.400 . S
C1197 N1200 1.351 . S
C1197 C1202 1.501 . S
C1198 C1199 1.387 . S
C1198 N1201 1.341 . S
C1199 C1197 1.400 . S
C1199 C1198 1.387 . S
N1200 Co1191 2.022 . S
N1200 C1197 1.351 . S
N1200 N1201 1.365 . S
N1201 C1198 1.341 . S
N1201 N1200 1.365 . S
N1201 H1221 0.862 . S
C1202 C1197 1.501 . S
C1202 H1203 0.961 . S
C1202 H1204 0.961 . S
C1202 H1205 0.960 . S
H1203 C1202 0.961 . S
H1204 C1202 0.961 . S
H1205 C1202 0.960 . S
C1206 N1207 1.342 . S
C1206 C1210 1.401 . S
C1206 C1211 1.499 . S
N1207 Co1190 1.989 . S
N1207 C1206 1.342 . S
N1207 N1208 1.388 . S
N1208 Co1191 1.993 . S
N1208 N1207 1.388 . S
N1208 C1209 1.346 . S
C1209 N1208 1.346 . S
C1209 C1210 1.396 . S
C1209 C1219 1.510 . S
C1210 C1206 1.401 . S
C1210 C1209 1.396 . S
C1211 C1206 1.499 . S
C1211 H1212 0.959 . S
C1211 H1213 0.960 . S
C1211 H1214 0.961 . S
H1212 C1211 0.959 . S
H1213 C1211 0.960 . S
H1214 C1211 0.961 . S
O1215 Co1190 1.967 . S
O1215 C1223 1.258 . S
O1216 Co1191 1.941 . S
O1216 C1223 1.266 . S
H1217 C1219 0.959 . S
H1218 C1219 0.961 . S
C1219 C1209 1.510 . S
C1219 H1217 0.959 . S
C1219 H1218 0.961 . S
C1219 H1220 0.960 . S
H1220 C1219 0.960 . S
H1221 N1201 0.862 . S
O1222 Co1190 1.920 . S
O1222 C1195 1.289 . S
C1223 O1215 1.258 . S
C1223 O1216 1.266 . S
Co1224 O1227 1.970 . S
Co1224 N1241 1.989 . S
Co1224 O1249 1.967 . S
Co1224 O1256 1.920 . S
Co1225 O1228 1.966 . S
Co1225 N1234 2.022 . S
Co1225 N1242 1.993 . S
Co1225 O1250 1.941 . S
C1226 O1227 1.258 . S
C1226 O1228 1.263 . S
O1227 Co1224 1.970 . S
O1227 C1226 1.258 . S
O1228 Co1225 1.966 . S
O1228 C1226 1.263 . S
C1229 O1230 1.235 . S
C1229 O1256 1.289 . S
O1230 C1229 1.235 . S
C1231 C1233 1.400 . S
C1231 N1234 1.351 . S
C1231 C1236 1.501 . S
C1232 C1233 1.387 . S
C1232 N1235 1.341 . S
C1233 C1231 1.400 . S
C1233 C1232 1.387 . S
N1234 Co1225 2.022 . S
N1234 C1231 1.351 . S
N1234 N1235 1.365 . S
N1235 C1232 1.341 . S
N1235 N1234 1.365 . S
N1235 H1255 0.862 . S
C1236 C1231 1.501 . S
C1236 H1237 0.961 . S
C1236 H1238 0.961 . S
C1236 H1239 0.960 . S
H1237 C1236 0.961 . S
H1238 C1236 0.961 . S
H1239 C1236 0.960 . S
C1240 N1241 1.342 . S
C1240 C1244 1.401 . S
C1240 C1245 1.499 . S
N1241 Co1224 1.989 . S
N1241 C1240 1.342 . S
N1241 N1242 1.388 . S
N1242 Co1225 1.993 . S
N1242 N1241 1.388 . S
N1242 C1243 1.346 . S
C1243 N1242 1.346 . S
C1243 C1244 1.396 . S
C1243 C1253 1.510 . S
C1244 C1240 1.401 . S
C1244 C1243 1.396 . S
C1245 C1240 1.499 . S
C1245 H1246 0.959 . S
C1245 H1247 0.960 . S
C1245 H1248 0.961 . S
H1246 C1245 0.959 . S
H1247 C1245 0.960 . S
H1248 C1245 0.961 . S
O1249 Co1224 1.967 . S
O1249 C1257 1.258 . S
O1250 Co1225 1.941 . S
O1250 C1257 1.266 . S
H1251 C1253 0.959 . S
H1252 C1253 0.961 . S
C1253 C1243 1.510 . S
C1253 H1251 0.959 . S
C1253 H1252 0.961 . S
C1253 H1254 0.960 . S
H1254 C1253 0.960 . S
H1255 N1235 0.862 . S
O1256 Co1224 1.920 . S
O1256 C1229 1.289 . S
C1257 O1249 1.258 . S
C1257 O1250 1.266 . S
Co1258 O1261 1.970 . S
Co1258 N1275 1.989 . S
Co1258 O1283 1.967 . S
Co1258 O1290 1.920 . S
Co1259 O1262 1.966 . S
Co1259 N1268 2.022 . S
Co1259 N1276 1.993 . S
Co1259 O1284 1.941 . S
C1260 O1261 1.258 . S
C1260 O1262 1.263 . S
O1261 Co1258 1.970 . S
O1261 C1260 1.258 . S
O1262 Co1259 1.966 . S
O1262 C1260 1.263 . S
C1263 O1264 1.235 . S
C1263 O1290 1.289 . S
O1264 C1263 1.235 . S
C1265 C1267 1.400 . S
C1265 N1268 1.351 . S
C1265 C1270 1.501 . S
C1266 C1267 1.387 . S
C1266 N1269 1.341 . S
C1267 C1265 1.400 . S
C1267 C1266 1.387 . S
N1268 Co1259 2.022 . S
N1268 C1265 1.351 . S
N1268 N1269 1.365 . S
N1269 C1266 1.341 . S
N1269 N1268 1.365 . S
N1269 H1289 0.862 . S
C1270 C1265 1.501 . S
C1270 H1271 0.961 . S
C1270 H1272 0.961 . S
C1270 H1273 0.960 . S
H1271 C1270 0.961 . S
H1272 C1270 0.961 . S
H1273 C1270 0.960 . S
C1274 N1275 1.342 . S
C1274 C1278 1.401 . S
C1274 C1279 1.499 . S
N1275 Co1258 1.989 . S
N1275 C1274 1.342 . S
N1275 N1276 1.388 . S
N1276 Co1259 1.993 . S
N1276 N1275 1.388 . S
N1276 C1277 1.346 . S
C1277 N1276 1.346 . S
C1277 C1278 1.396 . S
C1277 C1287 1.510 . S
C1278 C1274 1.401 . S
C1278 C1277 1.396 . S
C1279 C1274 1.499 . S
C1279 H1280 0.959 . S
C1279 H1281 0.960 . S
C1279 H1282 0.961 . S
H1280 C1279 0.959 . S
H1281 C1279 0.960 . S
H1282 C1279 0.961 . S
O1283 Co1258 1.967 . S
O1283 C1291 1.258 . S
O1284 Co1259 1.941 . S
O1284 C1291 1.266 . S
H1285 C1287 0.959 . S
H1286 C1287 0.961 . S
C1287 C1277 1.510 . S
C1287 H1285 0.959 . S
C1287 H1286 0.961 . S
C1287 H1288 0.960 . S
H1288 C1287 0.960 . S
H1289 N1269 0.862 . S
O1290 Co1258 1.920 . S
O1290 C1263 1.289 . S
C1291 O1283 1.258 . S
C1291 O1284 1.266 . S
Co1292 O1295 1.970 . S
Co1292 N1309 1.989 . S
Co1292 O1317 1.967 . S
Co1292 O1324 1.920 . S
Co1293 O1296 1.966 . S
Co1293 N1302 2.022 . S
Co1293 N1310 1.993 . S
Co1293 O1318 1.941 . S
C1294 O1295 1.258 . S
C1294 O1296 1.263 . S
O1295 Co1292 1.970 . S
O1295 C1294 1.258 . S
O1296 Co1293 1.966 . S
O1296 C1294 1.263 . S
C1297 O1298 1.235 . S
C1297 O1324 1.289 . S
O1298 C1297 1.235 . S
C1299 C1301 1.400 . S
C1299 N1302 1.351 . S
C1299 C1304 1.501 . S
C1300 C1301 1.387 . S
C1300 N1303 1.341 . S
C1301 C1299 1.400 . S
C1301 C1300 1.387 . S
N1302 Co1293 2.022 . S
N1302 C1299 1.351 . S
N1302 N1303 1.365 . S
N1303 C1300 1.341 . S
N1303 N1302 1.365 . S
N1303 H1323 0.862 . S
C1304 C1299 1.501 . S
C1304 H1305 0.961 . S
C1304 H1306 0.961 . S
C1304 H1307 0.960 . S
H1305 C1304 0.961 . S
H1306 C1304 0.961 . S
H1307 C1304 0.960 . S
C1308 N1309 1.342 . S
C1308 C1312 1.401 . S
C1308 C1313 1.499 . S
N1309 Co1292 1.989 . S
N1309 C1308 1.342 . S
N1309 N1310 1.388 . S
N1310 Co1293 1.993 . S
N1310 N1309 1.388 . S
N1310 C1311 1.346 . S
C1311 N1310 1.346 . S
C1311 C1312 1.396 . S
C1311 C1321 1.510 . S
C1312 C1308 1.401 . S
C1312 C1311 1.396 . S
C1313 C1308 1.499 . S
C1313 H1314 0.959 . S
C1313 H1315 0.960 . S
C1313 H1316 0.961 . S
H1314 C1313 0.959 . S
H1315 C1313 0.960 . S
H1316 C1313 0.961 . S
O1317 Co1292 1.967 . S
O1317 C1325 1.258 . S
O1318 Co1293 1.941 . S
O1318 C1325 1.266 . S
H1319 C1321 0.959 . S
H1320 C1321 0.961 . S
C1321 C1311 1.510 . S
C1321 H1319 0.959 . S
C1321 H1320 0.961 . S
C1321 H1322 0.960 . S
H1322 C1321 0.960 . S
H1323 N1303 0.862 . S
O1324 Co1292 1.920 . S
O1324 C1297 1.289 . S
C1325 O1317 1.258 . S
C1325 O1318 1.266 . S
Co1326 O1329 1.970 . S
Co1326 N1343 1.989 . S
Co1326 O1351 1.967 . S
Co1326 O1358 1.920 . S
Co1327 O1330 1.966 . S
Co1327 N1336 2.022 . S
Co1327 N1344 1.993 . S
Co1327 O1352 1.941 . S
C1328 O1329 1.258 . S
C1328 O1330 1.263 . S
O1329 Co1326 1.970 . S
O1329 C1328 1.258 . S
O1330 Co1327 1.966 . S
O1330 C1328 1.263 . S
C1331 O1332 1.235 . S
C1331 O1358 1.289 . S
O1332 C1331 1.235 . S
C1333 C1335 1.400 . S
C1333 N1336 1.351 . S
C1333 C1338 1.501 . S
C1334 C1335 1.387 . S
C1334 N1337 1.341 . S
C1335 C1333 1.400 . S
C1335 C1334 1.387 . S
N1336 Co1327 2.022 . S
N1336 C1333 1.351 . S
N1336 N1337 1.365 . S
N1337 C1334 1.341 . S
N1337 N1336 1.365 . S
N1337 H1357 0.862 . S
C1338 C1333 1.501 . S
C1338 H1339 0.961 . S
C1338 H1340 0.961 . S
C1338 H1341 0.960 . S
H1339 C1338 0.961 . S
H1340 C1338 0.961 . S
H1341 C1338 0.960 . S
C1342 N1343 1.342 . S
C1342 C1346 1.401 . S
C1342 C1347 1.499 . S
N1343 Co1326 1.989 . S
N1343 C1342 1.342 . S
N1343 N1344 1.388 . S
N1344 Co1327 1.993 . S
N1344 N1343 1.388 . S
N1344 C1345 1.346 . S
C1345 N1344 1.346 . S
C1345 C1346 1.396 . S
C1345 C1355 1.510 . S
C1346 C1342 1.401 . S
C1346 C1345 1.396 . S
C1347 C1342 1.499 . S
C1347 H1348 0.959 . S
C1347 H1349 0.960 . S
C1347 H1350 0.961 . S
H1348 C1347 0.959 . S
H1349 C1347 0.960 . S
H1350 C1347 0.961 . S
O1351 Co1326 1.967 . S
O1351 C1359 1.258 . S
O1352 Co1327 1.941 . S
O1352 C1359 1.266 . S
H1353 C1355 0.959 . S
H1354 C1355 0.961 . S
C1355 C1345 1.510 . S
C1355 H1353 0.959 . S
C1355 H1354 0.961 . S
C1355 H1356 0.960 . S
H1356 C1355 0.960 . S
H1357 N1337 0.862 . S
O1358 Co1326 1.920 . S
O1358 C1331 1.289 . S
C1359 O1351 1.258 . S
C1359 O1352 1.266 . S
Co1360 O1363 1.970 . S
Co1360 N1377 1.989 . S
Co1360 O1385 1.967 . S
Co1360 O1392 1.920 . S
Co1361 O1364 1.966 . S
Co1361 N1370 2.022 . S
Co1361 N1378 1.993 . S
Co1361 O1386 1.941 . S
C1362 O1363 1.258 . S
C1362 O1364 1.263 . S
O1363 Co1360 1.970 . S
O1363 C1362 1.258 . S
O1364 Co1361 1.966 . S
O1364 C1362 1.263 . S
C1365 O1366 1.235 . S
C1365 O1392 1.289 . S
O1366 C1365 1.235 . S
C1367 C1369 1.400 . S
C1367 N1370 1.351 . S
C1367 C1372 1.501 . S
C1368 C1369 1.387 . S
C1368 N1371 1.341 . S
C1369 C1367 1.400 . S
C1369 C1368 1.387 . S
N1370 Co1361 2.022 . S
N1370 C1367 1.351 . S
N1370 N1371 1.365 . S
N1371 C1368 1.341 . S
N1371 N1370 1.365 . S
N1371 H1391 0.862 . S
C1372 C1367 1.501 . S
C1372 H1373 0.961 . S
C1372 H1374 0.961 . S
C1372 H1375 0.960 . S
H1373 C1372 0.961 . S
H1374 C1372 0.961 . S
H1375 C1372 0.960 . S
C1376 N1377 1.342 . S
C1376 C1380 1.401 . S
C1376 C1381 1.499 . S
N1377 Co1360 1.989 . S
N1377 C1376 1.342 . S
N1377 N1378 1.388 . S
N1378 Co1361 1.993 . S
N1378 N1377 1.388 . S
N1378 C1379 1.346 . S
C1379 N1378 1.346 . S
C1379 C1380 1.396 . S
C1379 C1389 1.510 . S
C1380 C1376 1.401 . S
C1380 C1379 1.396 . S
C1381 C1376 1.499 . S
C1381 H1382 0.959 . S
C1381 H1383 0.960 . S
C1381 H1384 0.961 . S
H1382 C1381 0.959 . S
H1383 C1381 0.960 . S
H1384 C1381 0.961 . S
O1385 Co1360 1.967 . S
O1385 C1393 1.258 . S
O1386 Co1361 1.941 . S
O1386 C1393 1.266 . S
H1387 C1389 0.959 . S
H1388 C1389 0.961 . S
C1389 C1379 1.510 . S
C1389 H1387 0.959 . S
C1389 H1388 0.961 . S
C1389 H1390 0.960 . S
H1390 C1389 0.960 . S
H1391 N1371 0.862 . S
O1392 Co1360 1.920 . S
O1392 C1365 1.289 . S
C1393 O1385 1.258 . S
C1393 O1386 1.266 . S
Co1394 O1397 1.970 . S
Co1394 N1411 1.989 . S
Co1394 O1419 1.967 . S
Co1394 O1426 1.920 . S
Co1395 O1398 1.966 . S
Co1395 N1404 2.022 . S
Co1395 N1412 1.993 . S
Co1395 O1420 1.941 . S
C1396 O1397 1.258 . S
C1396 O1398 1.263 . S
O1397 Co1394 1.970 . S
O1397 C1396 1.258 . S
O1398 Co1395 1.966 . S
O1398 C1396 1.263 . S
C1399 O1400 1.235 . S
C1399 O1426 1.289 . S
O1400 C1399 1.235 . S
C1401 C1403 1.400 . S
C1401 N1404 1.351 . S
C1401 C1406 1.501 . S
C1402 C1403 1.387 . S
C1402 N1405 1.341 . S
C1403 C1401 1.400 . S
C1403 C1402 1.387 . S
N1404 Co1395 2.022 . S
N1404 C1401 1.351 . S
N1404 N1405 1.365 . S
N1405 C1402 1.341 . S
N1405 N1404 1.365 . S
N1405 H1425 0.862 . S
C1406 C1401 1.501 . S
C1406 H1407 0.961 . S
C1406 H1408 0.961 . S
C1406 H1409 0.960 . S
H1407 C1406 0.961 . S
H1408 C1406 0.961 . S
H1409 C1406 0.960 . S
C1410 N1411 1.342 . S
C1410 C1414 1.401 . S
C1410 C1415 1.499 . S
N1411 Co1394 1.989 . S
N1411 C1410 1.342 . S
N1411 N1412 1.388 . S
N1412 Co1395 1.993 . S
N1412 N1411 1.388 . S
N1412 C1413 1.346 . S
C1413 N1412 1.346 . S
C1413 C1414 1.396 . S
C1413 C1423 1.510 . S
C1414 C1410 1.401 . S
C1414 C1413 1.396 . S
C1415 C1410 1.499 . S
C1415 H1416 0.959 . S
C1415 H1417 0.960 . S
C1415 H1418 0.961 . S
H1416 C1415 0.959 . S
H1417 C1415 0.960 . S
H1418 C1415 0.961 . S
O1419 Co1394 1.967 . S
O1419 C1427 1.258 . S
O1420 Co1395 1.941 . S
O1420 C1427 1.266 . S
H1421 C1423 0.959 . S
H1422 C1423 0.961 . S
C1423 C1413 1.510 . S
C1423 H1421 0.959 . S
C1423 H1422 0.961 . S
C1423 H1424 0.960 . S
H1424 C1423 0.960 . S
H1425 N1405 0.862 . S
O1426 Co1394 1.920 . S
O1426 C1399 1.289 . S
C1427 O1419 1.258 . S
C1427 O1420 1.266 . S
Co1428 O1431 1.970 . S
Co1428 N1445 1.989 . S
Co1428 O1453 1.967 . S
Co1428 O1460 1.920 . S
Co1429 O1432 1.966 . S
Co1429 N1438 2.022 . S
Co1429 N1446 1.993 . S
Co1429 O1454 1.941 . S
C1430 O1431 1.258 . S
C1430 O1432 1.263 . S
O1431 Co1428 1.970 . S
O1431 C1430 1.258 . S
O1432 Co1429 1.966 . S
O1432 C1430 1.263 . S
C1433 O1434 1.235 . S
C1433 O1460 1.289 . S
O1434 C1433 1.235 . S
C1435 C1437 1.400 . S
C1435 N1438 1.351 . S
C1435 C1440 1.501 . S
C1436 C1437 1.387 . S
C1436 N1439 1.341 . S
C1437 C1435 1.400 . S
C1437 C1436 1.387 . S
N1438 Co1429 2.022 . S
N1438 C1435 1.351 . S
N1438 N1439 1.365 . S
N1439 C1436 1.341 . S
N1439 N1438 1.365 . S
N1439 H1459 0.862 . S
C1440 C1435 1.501 . S
C1440 H1441 0.961 . S
C1440 H1442 0.961 . S
C1440 H1443 0.960 . S
H1441 C1440 0.961 . S
H1442 C1440 0.961 . S
H1443 C1440 0.960 . S
C1444 N1445 1.342 . S
C1444 C1448 1.401 . S
C1444 C1449 1.499 . S
N1445 Co1428 1.989 . S
N1445 C1444 1.342 . S
N1445 N1446 1.388 . S
N1446 Co1429 1.993 . S
N1446 N1445 1.388 . S
N1446 C1447 1.346 . S
C1447 N1446 1.346 . S
C1447 C1448 1.396 . S
C1447 C1457 1.510 . S
C1448 C1444 1.401 . S
C1448 C1447 1.396 . S
C1449 C1444 1.499 . S
C1449 H1450 0.959 . S
C1449 H1451 0.960 . S
C1449 H1452 0.961 . S
H1450 C1449 0.959 . S
H1451 C1449 0.960 . S
H1452 C1449 0.961 . S
O1453 Co1428 1.967 . S
O1453 C1461 1.258 . S
O1454 Co1429 1.941 . S
O1454 C1461 1.266 . S
H1455 C1457 0.959 . S
H1456 C1457 0.961 . S
C1457 C1447 1.510 . S
C1457 H1455 0.959 . S
C1457 H1456 0.961 . S
C1457 H1458 0.960 . S
H1458 C1457 0.960 . S
H1459 N1439 0.862 . S
O1460 Co1428 1.920 . S
O1460 C1433 1.289 . S
C1461 O1453 1.258 . S
C1461 O1454 1.266 . S
Co1462 O1465 1.970 . S
Co1462 N1479 1.989 . S
Co1462 O1487 1.967 . S
Co1462 O1494 1.920 . S
Co1463 O1466 1.966 . S
Co1463 N1472 2.022 . S
Co1463 N1480 1.993 . S
Co1463 O1488 1.941 . S
C1464 O1465 1.258 . S
C1464 O1466 1.263 . S
O1465 Co1462 1.970 . S
O1465 C1464 1.258 . S
O1466 Co1463 1.966 . S
O1466 C1464 1.263 . S
C1467 O1468 1.235 . S
C1467 O1494 1.289 . S
O1468 C1467 1.235 . S
C1469 C1471 1.400 . S
C1469 N1472 1.351 . S
C1469 C1474 1.501 . S
C1470 C1471 1.387 . S
C1470 N1473 1.341 . S
C1471 C1469 1.400 . S
C1471 C1470 1.387 . S
N1472 Co1463 2.022 . S
N1472 C1469 1.351 . S
N1472 N1473 1.365 . S
N1473 C1470 1.341 . S
N1473 N1472 1.365 . S
N1473 H1493 0.862 . S
C1474 C1469 1.501 . S
C1474 H1475 0.961 . S
C1474 H1476 0.961 . S
C1474 H1477 0.960 . S
H1475 C1474 0.961 . S
H1476 C1474 0.961 . S
H1477 C1474 0.960 . S
C1478 N1479 1.342 . S
C1478 C1482 1.401 . S
C1478 C1483 1.499 . S
N1479 Co1462 1.989 . S
N1479 C1478 1.342 . S
N1479 N1480 1.388 . S
N1480 Co1463 1.993 . S
N1480 N1479 1.388 . S
N1480 C1481 1.346 . S
C1481 N1480 1.346 . S
C1481 C1482 1.396 . S
C1481 C1491 1.510 . S
C1482 C1478 1.401 . S
C1482 C1481 1.396 . S
C1483 C1478 1.499 . S
C1483 H1484 0.959 . S
C1483 H1485 0.960 . S
C1483 H1486 0.961 . S
H1484 C1483 0.959 . S
H1485 C1483 0.960 . S
H1486 C1483 0.961 . S
O1487 Co1462 1.967 . S
O1487 C1495 1.258 . S
O1488 Co1463 1.941 . S
O1488 C1495 1.266 . S
H1489 C1491 0.959 . S
H1490 C1491 0.961 . S
C1491 C1481 1.510 . S
C1491 H1489 0.959 . S
C1491 H1490 0.961 . S
C1491 H1492 0.960 . S
H1492 C1491 0.960 . S
H1493 N1473 0.862 . S
O1494 Co1462 1.920 . S
O1494 C1467 1.289 . S
C1495 O1487 1.258 . S
C1495 O1488 1.266 . S
Co1496 O1499 1.970 . S
Co1496 N1513 1.989 . S
Co1496 O1521 1.967 . S
Co1496 O1528 1.920 . S
Co1497 O1500 1.966 . S
Co1497 N1506 2.022 . S
Co1497 N1514 1.993 . S
Co1497 O1522 1.941 . S
C1498 O1499 1.258 . S
C1498 O1500 1.263 . S
O1499 Co1496 1.970 . S
O1499 C1498 1.258 . S
O1500 Co1497 1.966 . S
O1500 C1498 1.263 . S
C1501 O1502 1.235 . S
C1501 O1528 1.289 . S
O1502 C1501 1.235 . S
C1503 C1505 1.400 . S
C1503 N1506 1.351 . S
C1503 C1508 1.501 . S
C1504 C1505 1.387 . S
C1504 N1507 1.341 . S
C1505 C1503 1.400 . S
C1505 C1504 1.387 . S
N1506 Co1497 2.022 . S
N1506 C1503 1.351 . S
N1506 N1507 1.365 . S
N1507 C1504 1.341 . S
N1507 N1506 1.365 . S
N1507 H1527 0.862 . S
C1508 C1503 1.501 . S
C1508 H1509 0.961 . S
C1508 H1510 0.961 . S
C1508 H1511 0.960 . S
H1509 C1508 0.961 . S
H1510 C1508 0.961 . S
H1511 C1508 0.960 . S
C1512 N1513 1.342 . S
C1512 C1516 1.401 . S
C1512 C1517 1.499 . S
N1513 Co1496 1.989 . S
N1513 C1512 1.342 . S
N1513 N1514 1.388 . S
N1514 Co1497 1.993 . S
N1514 N1513 1.388 . S
N1514 C1515 1.346 . S
C1515 N1514 1.346 . S
C1515 C1516 1.396 . S
C1515 C1525 1.510 . S
C1516 C1512 1.401 . S
C1516 C1515 1.396 . S
C1517 C1512 1.499 . S
C1517 H1518 0.959 . S
C1517 H1519 0.960 . S
C1517 H1520 0.961 . S
H1518 C1517 0.959 . S
H1519 C1517 0.960 . S
H1520 C1517 0.961 . S
O1521 Co1496 1.967 . S
O1521 C1529 1.258 . S
O1522 Co1497 1.941 . S
O1522 C1529 1.266 . S
H1523 C1525 0.959 . S
H1524 C1525 0.961 . S
C1525 C1515 1.510 . S
C1525 H1523 0.959 . S
C1525 H1524 0.961 . S
C1525 H1526 0.960 . S
H1526 C1525 0.960 . S
H1527 N1507 0.862 . S
O1528 Co1496 1.920 . S
O1528 C1501 1.289 . S
C1529 O1521 1.258 . S
C1529 O1522 1.266 . S
Co1530 O1533 1.970 . S
Co1530 N1547 1.989 . S
Co1530 O1555 1.967 . S
Co1530 O1562 1.920 . S
Co1531 O1534 1.966 . S
Co1531 N1540 2.022 . S
Co1531 N1548 1.993 . S
Co1531 O1556 1.941 . S
C1532 O1533 1.258 . S
C1532 O1534 1.263 . S
O1533 Co1530 1.970 . S
O1533 C1532 1.258 . S
O1534 Co1531 1.966 . S
O1534 C1532 1.263 . S
C1535 O1536 1.235 . S
C1535 O1562 1.289 . S
O1536 C1535 1.235 . S
C1537 C1539 1.400 . S
C1537 N1540 1.351 . S
C1537 C1542 1.501 . S
C1538 C1539 1.387 . S
C1538 N1541 1.341 . S
C1539 C1537 1.400 . S
C1539 C1538 1.387 . S
N1540 Co1531 2.022 . S
N1540 C1537 1.351 . S
N1540 N1541 1.365 . S
N1541 C1538 1.341 . S
N1541 N1540 1.365 . S
N1541 H1561 0.862 . S
C1542 C1537 1.501 . S
C1542 H1543 0.961 . S
C1542 H1544 0.961 . S
C1542 H1545 0.960 . S
H1543 C1542 0.961 . S
H1544 C1542 0.961 . S
H1545 C1542 0.960 . S
C1546 N1547 1.342 . S
C1546 C1550 1.401 . S
C1546 C1551 1.499 . S
N1547 Co1530 1.989 . S
N1547 C1546 1.342 . S
N1547 N1548 1.388 . S
N1548 Co1531 1.993 . S
N1548 N1547 1.388 . S
N1548 C1549 1.346 . S
C1549 N1548 1.346 . S
C1549 C1550 1.396 . S
C1549 C1559 1.510 . S
C1550 C1546 1.401 . S
C1550 C1549 1.396 . S
C1551 C1546 1.499 . S
C1551 H1552 0.959 . S
C1551 H1553 0.960 . S
C1551 H1554 0.961 . S
H1552 C1551 0.959 . S
H1553 C1551 0.960 . S
H1554 C1551 0.961 . S
O1555 Co1530 1.967 . S
O1555 C1563 1.258 . S
O1556 Co1531 1.941 . S
O1556 C1563 1.266 . S
H1557 C1559 0.959 . S
H1558 C1559 0.961 . S
C1559 C1549 1.510 . S
C1559 H1557 0.959 . S
C1559 H1558 0.961 . S
C1559 H1560 0.960 . S
H1560 C1559 0.960 . S
H1561 N1541 0.862 . S
O1562 Co1530 1.920 . S
O1562 C1535 1.289 . S
C1563 O1555 1.258 . S
C1563 O1556 1.266 . S
Co1564 O1567 1.970 . S
Co1564 N1581 1.989 . S
Co1564 O1589 1.967 . S
Co1564 O1596 1.920 . S
Co1565 O1568 1.966 . S
Co1565 N1574 2.022 . S
Co1565 N1582 1.993 . S
Co1565 O1590 1.941 . S
C1566 O1567 1.258 . S
C1566 O1568 1.263 . S
O1567 Co1564 1.970 . S
O1567 C1566 1.258 . S
O1568 Co1565 1.966 . S
O1568 C1566 1.263 . S
C1569 O1570 1.235 . S
C1569 O1596 1.289 . S
O1570 C1569 1.235 . S
C1571 C1573 1.400 . S
C1571 N1574 1.351 . S
C1571 C1576 1.501 . S
C1572 C1573 1.387 . S
C1572 N1575 1.341 . S
C1573 C1571 1.400 . S
C1573 C1572 1.387 . S
N1574 Co1565 2.022 . S
N1574 C1571 1.351 . S
N1574 N1575 1.365 . S
N1575 C1572 1.341 . S
N1575 N1574 1.365 . S
N1575 H1595 0.862 . S
C1576 C1571 1.501 . S
C1576 H1577 0.961 . S
C1576 H1578 0.961 . S
C1576 H1579 0.960 . S
H1577 C1576 0.961 . S
H1578 C1576 0.961 . S
H1579 C1576 0.960 . S
C1580 N1581 1.342 . S
C1580 C1584 1.401 . S
C1580 C1585 1.499 . S
N1581 Co1564 1.989 . S
N1581 C1580 1.342 . S
N1581 N1582 1.388 . S
N1582 Co1565 1.993 . S
N1582 N1581 1.388 . S
N1582 C1583 1.346 . S
C1583 N1582 1.346 . S
C1583 C1584 1.396 . S
C1583 C1593 1.510 . S
C1584 C1580 1.401 . S
C1584 C1583 1.396 . S
C1585 C1580 1.499 . S
C1585 H1586 0.959 . S
C1585 H1587 0.960 . S
C1585 H1588 0.961 . S
H1586 C1585 0.959 . S
H1587 C1585 0.960 . S
H1588 C1585 0.961 . S
O1589 Co1564 1.967 . S
O1589 C1597 1.258 . S
O1590 Co1565 1.941 . S
O1590 C1597 1.266 . S
H1591 C1593 0.959 . S
H1592 C1593 0.961 . S
C1593 C1583 1.510 . S
C1593 H1591 0.959 . S
C1593 H1592 0.961 . S
C1593 H1594 0.960 . S
H1594 C1593 0.960 . S
H1595 N1575 0.862 . S
O1596 Co1564 1.920 . S
O1596 C1569 1.289 . S
C1597 O1589 1.258 . S
C1597 O1590 1.266 . S
Co1598 O1601 1.970 . S
Co1598 N1615 1.989 . S
Co1598 O1623 1.967 . S
Co1598 O1630 1.920 . S
Co1599 O1602 1.966 . S
Co1599 N1608 2.022 . S
Co1599 N1616 1.993 . S
Co1599 O1624 1.941 . S
C1600 O1601 1.258 . S
C1600 O1602 1.263 . S
O1601 Co1598 1.970 . S
O1601 C1600 1.258 . S
O1602 Co1599 1.966 . S
O1602 C1600 1.263 . S
C1603 O1604 1.235 . S
C1603 O1630 1.289 . S
O1604 C1603 1.235 . S
C1605 C1607 1.400 . S
C1605 N1608 1.351 . S
C1605 C1610 1.501 . S
C1606 C1607 1.387 . S
C1606 N1609 1.341 . S
C1607 C1605 1.400 . S
C1607 C1606 1.387 . S
N1608 Co1599 2.022 . S
N1608 C1605 1.351 . S
N1608 N1609 1.365 . S
N1609 C1606 1.341 . S
N1609 N1608 1.365 . S
N1609 H1629 0.862 . S
C1610 C1605 1.501 . S
C1610 H1611 0.961 . S
C1610 H1612 0.961 . S
C1610 H1613 0.960 . S
H1611 C1610 0.961 . S
H1612 C1610 0.961 . S
H1613 C1610 0.960 . S
C1614 N1615 1.342 . S
C1614 C1618 1.401 . S
C1614 C1619 1.499 . S
N1615 Co1598 1.989 . S
N1615 C1614 1.342 . S
N1615 N1616 1.388 . S
N1616 Co1599 1.993 . S
N1616 N1615 1.388 . S
N1616 C1617 1.346 . S
C1617 N1616 1.346 . S
C1617 C1618 1.396 . S
C1617 C1627 1.510 . S
C1618 C1614 1.401 . S
C1618 C1617 1.396 . S
C1619 C1614 1.499 . S
C1619 H1620 0.959 . S
C1619 H1621 0.960 . S
C1619 H1622 0.961 . S
H1620 C1619 0.959 . S
H1621 C1619 0.960 . S
H1622 C1619 0.961 . S
O1623 Co1598 1.967 . S
O1623 C1631 1.258 . S
O1624 Co1599 1.941 . S
O1624 C1631 1.266 . S
H1625 C1627 0.959 . S
H1626 C1627 0.961 . S
C1627 C1617 1.510 . S
C1627 H1625 0.959 . S
C1627 H1626 0.961 . S
C1627 H1628 0.960 . S
H1628 C1627 0.960 . S
H1629 N1609 0.862 . S
O1630 Co1598 1.920 . S
O1630 C1603 1.289 . S
C1631 O1623 1.258 . S
C1631 O1624 1.266 . S
H1632 C1638 0.930 . S
H1633 C1642 0.930 . S
H1634 C1647 0.929 . S
H1635 C1645 0.929 . S
H1636 C1640 0.929 . S
H1637 C1646 0.929 . S
C1638 H1632 0.930 . S
C1638 C1639 1.367 . S
C1638 C1646 1.378 . S
C1639 C1638 1.367 . S
C1639 C1647 1.433 . S
C1640 H1636 0.929 . S
C1640 C1642 1.378 . S
C1640 C1644 1.350 . S
C1641 C1644 1.463 . S
C1641 C1646 1.350 . S
C1641 N1649 1.427 . S
C1642 H1633 0.930 . S
C1642 C1640 1.378 . S
C1642 C1643 1.367 . S
C1643 C1642 1.367 . S
C1643 C1645 1.433 . S
C1644 C1640 1.350 . S
C1644 C1641 1.463 . S
C1644 N1648 1.427 . S
C1645 H1635 0.929 . S
C1645 C1643 1.433 . S
C1645 N1648 1.384 . S
C1646 H1637 0.929 . S
C1646 C1638 1.378 . S
C1646 C1641 1.350 . S
C1647 H1634 0.929 . S
C1647 C1639 1.433 . S
C1647 N1649 1.384 . S
N1648 C1644 1.427 . S
N1648 C1645 1.384 . S
N1649 C1641 1.427 . S
N1649 C1647 1.384 . S
H1650 C1656 0.930 . S
H1651 C1660 0.930 . S
H1652 C1665 0.929 . S
H1653 C1663 0.929 . S
H1654 C1658 0.929 . S
H1655 C1664 0.929 . S
C1656 H1650 0.930 . S
C1656 C1657 1.367 . S
C1656 C1664 1.378 . S
C1657 C1656 1.367 . S
C1657 C1665 1.433 . S
C1658 H1654 0.929 . S
C1658 C1660 1.378 . S
C1658 C1662 1.350 . S
C1659 C1662 1.463 . S
C1659 C1664 1.350 . S
C1659 N1667 1.427 . S
C1660 H1651 0.930 . S
C1660 C1658 1.378 . S
C1660 C1661 1.367 . S
C1661 C1660 1.367 . S
C1661 C1663 1.433 . S
C1662 C1658 1.350 . S
C1662 C1659 1.463 . S
C1662 N1666 1.427 . S
C1663 H1653 0.929 . S
C1663 C1661 1.433 . S
C1663 N1666 1.384 . S
C1664 H1655 0.929 . S
C1664 C1656 1.378 . S
C1664 C1659 1.350 . S
C1665 H1652 0.929 . S
C1665 C1657 1.433 . S
C1665 N1667 1.384 . S
N1666 C1662 1.427 . S
N1666 C1663 1.384 . S
N1667 C1659 1.427 . S
N1667 C1665 1.384 . S
H1668 C1674 0.930 . S
H1669 C1678 0.930 . S
H1670 C1683 0.929 . S
H1671 C1681 0.929 . S
H1672 C1676 0.929 . S
H1673 C1682 0.929 . S
C1674 H1668 0.930 . S
C1674 C1675 1.367 . S
C1674 C1682 1.378 . S
C1675 C1674 1.367 . S
C1675 C1683 1.433 . S
C1676 H1672 0.929 . S
C1676 C1678 1.378 . S
C1676 C1680 1.350 . S
C1677 C1680 1.463 . S
C1677 C1682 1.350 . S
C1677 N1685 1.427 . S
C1678 H1669 0.930 . S
C1678 C1676 1.378 . S
C1678 C1679 1.367 . S
C1679 C1678 1.367 . S
C1679 C1681 1.433 . S
C1680 C1676 1.350 . S
C1680 C1677 1.463 . S
C1680 N1684 1.427 . S
C1681 H1671 0.929 . S
C1681 C1679 1.433 . S
C1681 N1684 1.384 . S
C1682 H1673 0.929 . S
C1682 C1674 1.378 . S
C1682 C1677 1.350 . S
C1683 H1670 0.929 . S
C1683 C1675 1.433 . S
C1683 N1685 1.384 . S
N1684 C1680 1.427 . S
N1684 C1681 1.384 . S
N1685 C1677 1.427 . S
N1685 C1683 1.384 . S
H1686 C1692 0.930 . S
H1687 C1696 0.930 . S
H1688 C1701 0.929 . S
H1689 C1699 0.929 . S
H1690 C1694 0.929 . S
H1691 C1700 0.929 . S
C1692 H1686 0.930 . S
C1692 C1693 1.367 . S
C1692 C1700 1.378 . S
C1693 C1692 1.367 . S
C1693 C1701 1.433 . S
C1694 H1690 0.929 . S
C1694 C1696 1.378 . S
C1694 C1698 1.350 . S
C1695 C1698 1.463 . S
C1695 C1700 1.350 . S
C1695 N1703 1.427 . S
C1696 H1687 0.930 . S
C1696 C1694 1.378 . S
C1696 C1697 1.367 . S
C1697 C1696 1.367 . S
C1697 C1699 1.433 . S
C1698 C1694 1.350 . S
C1698 C1695 1.463 . S
C1698 N1702 1.427 . S
C1699 H1689 0.929 . S
C1699 C1697 1.433 . S
C1699 N1702 1.384 . S
C1700 H1691 0.929 . S
C1700 C1692 1.378 . S
C1700 C1695 1.350 . S
C1701 H1688 0.929 . S
C1701 C1693 1.433 . S
C1701 N1703 1.384 . S
N1702 C1698 1.427 . S
N1702 C1699 1.384 . S
N1703 C1695 1.427 . S
N1703 C1701 1.384 . S
H1704 C1710 0.930 . S
H1705 C1714 0.930 . S
H1706 C1719 0.929 . S
H1707 C1717 0.929 . S
H1708 C1712 0.929 . S
H1709 C1718 0.929 . S
C1710 H1704 0.930 . S
C1710 C1711 1.367 . S
C1710 C1718 1.378 . S
C1711 C1710 1.367 . S
C1711 C1719 1.433 . S
C1712 H1708 0.929 . S
C1712 C1714 1.378 . S
C1712 C1716 1.350 . S
C1713 C1716 1.463 . S
C1713 C1718 1.350 . S
C1713 N1721 1.427 . S
C1714 H1705 0.930 . S
C1714 C1712 1.378 . S
C1714 C1715 1.367 . S
C1715 C1714 1.367 . S
C1715 C1717 1.433 . S
C1716 C1712 1.350 . S
C1716 C1713 1.463 . S
C1716 N1720 1.427 . S
C1717 H1707 0.929 . S
C1717 C1715 1.433 . S
C1717 N1720 1.384 . S
C1718 H1709 0.929 . S
C1718 C1710 1.378 . S
C1718 C1713 1.350 . S
C1719 H1706 0.929 . S
C1719 C1711 1.433 . S
C1719 N1721 1.384 . S
N1720 C1716 1.427 . S
N1720 C1717 1.384 . S
N1721 C1713 1.427 . S
N1721 C1719 1.384 . S
H1722 C1728 0.930 . S
H1723 C1732 0.930 . S
H1724 C1737 0.929 . S
H1725 C1735 0.929 . S
H1726 C1730 0.929 . S
H1727 C1736 0.929 . S
C1728 H1722 0.930 . S
C1728 C1729 1.367 . S
C1728 C1736 1.378 . S
C1729 C1728 1.367 . S
C1729 C1737 1.433 . S
C1730 H1726 0.929 . S
C1730 C1732 1.378 . S
C1730 C1734 1.350 . S
C1731 C1734 1.463 . S
C1731 C1736 1.350 . S
C1731 N1739 1.427 . S
C1732 H1723 0.930 . S
C1732 C1730 1.378 . S
C1732 C1733 1.367 . S
C1733 C1732 1.367 . S
C1733 C1735 1.433 . S
C1734 C1730 1.350 . S
C1734 C1731 1.463 . S
C1734 N1738 1.427 . S
C1735 H1725 0.929 . S
C1735 C1733 1.433 . S
C1735 N1738 1.384 . S
C1736 H1727 0.929 . S
C1736 C1728 1.378 . S
C1736 C1731 1.350 . S
C1737 H1724 0.929 . S
C1737 C1729 1.433 . S
C1737 N1739 1.384 . S
N1738 C1734 1.427 . S
N1738 C1735 1.384 . S
N1739 C1731 1.427 . S
N1739 C1737 1.384 . S
H1740 C1746 0.930 . S
H1741 C1750 0.930 . S
H1742 C1755 0.929 . S
H1743 C1753 0.929 . S
H1744 C1748 0.929 . S
H1745 C1754 0.929 . S
C1746 H1740 0.930 . S
C1746 C1747 1.367 . S
C1746 C1754 1.378 . S
C1747 C1746 1.367 . S
C1747 C1755 1.433 . S
C1748 H1744 0.929 . S
C1748 C1750 1.378 . S
C1748 C1752 1.350 . S
C1749 C1752 1.463 . S
C1749 C1754 1.350 . S
C1749 N1757 1.427 . S
C1750 H1741 0.930 . S
C1750 C1748 1.378 . S
C1750 C1751 1.367 . S
C1751 C1750 1.367 . S
C1751 C1753 1.433 . S
C1752 C1748 1.350 . S
C1752 C1749 1.463 . S
C1752 N1756 1.427 . S
C1753 H1743 0.929 . S
C1753 C1751 1.433 . S
C1753 N1756 1.384 . S
C1754 H1745 0.929 . S
C1754 C1746 1.378 . S
C1754 C1749 1.350 . S
C1755 H1742 0.929 . S
C1755 C1747 1.433 . S
C1755 N1757 1.384 . S
N1756 C1752 1.427 . S
N1756 C1753 1.384 . S
N1757 C1749 1.427 . S
N1757 C1755 1.384 . S
H1758 C1764 0.930 . S
H1759 C1768 0.930 . S
H1760 C1773 0.929 . S
H1761 C1771 0.929 . S
H1762 C1766 0.929 . S
H1763 C1772 0.929 . S
C1764 H1758 0.930 . S
C1764 C1765 1.367 . S
C1764 C1772 1.378 . S
C1765 C1764 1.367 . S
C1765 C1773 1.433 . S
C1766 H1762 0.929 . S
C1766 C1768 1.378 . S
C1766 C1770 1.350 . S
C1767 C1770 1.463 . S
C1767 C1772 1.350 . S
C1767 N1775 1.427 . S
C1768 H1759 0.930 . S
C1768 C1766 1.378 . S
C1768 C1769 1.367 . S
C1769 C1768 1.367 . S
C1769 C1771 1.433 . S
C1770 C1766 1.350 . S
C1770 C1767 1.463 . S
C1770 N1774 1.427 . S
C1771 H1761 0.929 . S
C1771 C1769 1.433 . S
C1771 N1774 1.384 . S
C1772 H1763 0.929 . S
C1772 C1764 1.378 . S
C1772 C1767 1.350 . S
C1773 H1760 0.929 . S
C1773 C1765 1.433 . S
C1773 N1775 1.384 . S
N1774 C1770 1.427 . S
N1774 C1771 1.384 . S
N1775 C1767 1.427 . S
N1775 C1773 1.384 . S
H1776 C1782 0.930 . S
H1777 C1786 0.930 . S
H1778 C1791 0.929 . S
H1779 C1789 0.929 . S
H1780 C1784 0.929 . S
H1781 C1790 0.929 . S
C1782 H1776 0.930 . S
C1782 C1783 1.367 . S
C1782 C1790 1.378 . S
C1783 C1782 1.367 . S
C1783 C1791 1.433 . S
C1784 H1780 0.929 . S
C1784 C1786 1.378 . S
C1784 C1788 1.350 . S
C1785 C1788 1.463 . S
C1785 C1790 1.350 . S
C1785 N1793 1.427 . S
C1786 H1777 0.930 . S
C1786 C1784 1.378 . S
C1786 C1787 1.367 . S
C1787 C1786 1.367 . S
C1787 C1789 1.433 . S
C1788 C1784 1.350 . S
C1788 C1785 1.463 . S
C1788 N1792 1.427 . S
C1789 H1779 0.929 . S
C1789 C1787 1.433 . S
C1789 N1792 1.384 . S
C1790 H1781 0.929 . S
C1790 C1782 1.378 . S
C1790 C1785 1.350 . S
C1791 H1778 0.929 . S
C1791 C1783 1.433 . S
C1791 N1793 1.384 . S
N1792 C1788 1.427 . S
N1792 C1789 1.384 . S
N1793 C1785 1.427 . S
N1793 C1791 1.384 . S
H1794 C1800 0.930 . S
H1795 C1804 0.930 . S
H1796 C1809 0.929 . S
H1797 C1807 0.929 . S
H1798 C1802 0.929 . S
H1799 C1808 0.929 . S
C1800 H1794 0.930 . S
C1800 C1801 1.367 . S
C1800 C1808 1.378 . S
C1801 C1800 1.367 . S
C1801 C1809 1.433 . S
C1802 H1798 0.929 . S
C1802 C1804 1.378 . S
C1802 C1806 1.350 . S
C1803 C1806 1.463 . S
C1803 C1808 1.350 . S
C1803 N1811 1.427 . S
C1804 H1795 0.930 . S
C1804 C1802 1.378 . S
C1804 C1805 1.367 . S
C1805 C1804 1.367 . S
C1805 C1807 1.433 . S
C1806 C1802 1.350 . S
C1806 C1803 1.463 . S
C1806 N1810 1.427 . S
C1807 H1797 0.929 . S
C1807 C1805 1.433 . S
C1807 N1810 1.384 . S
C1808 H1799 0.929 . S
C1808 C1800 1.378 . S
C1808 C1803 1.350 . S
C1809 H1796 0.929 . S
C1809 C1801 1.433 . S
C1809 N1811 1.384 . S
N1810 C1806 1.427 . S
N1810 C1807 1.384 . S
N1811 C1803 1.427 . S
N1811 C1809 1.384 . S
H1812 C1818 0.930 . S
H1813 C1822 0.930 . S
H1814 C1827 0.929 . S
H1815 C1825 0.929 . S
H1816 C1820 0.929 . S
H1817 C1826 0.929 . S
C1818 H1812 0.930 . S
C1818 C1819 1.367 . S
C1818 C1826 1.378 . S
C1819 C1818 1.367 . S
C1819 C1827 1.433 . S
C1820 H1816 0.929 . S
C1820 C1822 1.378 . S
C1820 C1824 1.350 . S
C1821 C1824 1.463 . S
C1821 C1826 1.350 . S
C1821 N1829 1.427 . S
C1822 H1813 0.930 . S
C1822 C1820 1.378 . S
C1822 C1823 1.367 . S
C1823 C1822 1.367 . S
C1823 C1825 1.433 . S
C1824 C1820 1.350 . S
C1824 C1821 1.463 . S
C1824 N1828 1.427 . S
C1825 H1815 0.929 . S
C1825 C1823 1.433 . S
C1825 N1828 1.384 . S
C1826 H1817 0.929 . S
C1826 C1818 1.378 . S
C1826 C1821 1.350 . S
C1827 H1814 0.929 . S
C1827 C1819 1.433 . S
C1827 N1829 1.384 . S
N1828 C1824 1.427 . S
N1828 C1825 1.384 . S
N1829 C1821 1.427 . S
N1829 C1827 1.384 . S
H1830 C1836 0.930 . S
H1831 C1840 0.930 . S
H1832 C1845 0.929 . S
H1833 C1843 0.929 . S
H1834 C1838 0.929 . S
H1835 C1844 0.929 . S
C1836 H1830 0.930 . S
C1836 C1837 1.367 . S
C1836 C1844 1.378 . S
C1837 C1836 1.367 . S
C1837 C1845 1.433 . S
C1838 H1834 0.929 . S
C1838 C1840 1.378 . S
C1838 C1842 1.350 . S
C1839 C1842 1.463 . S
C1839 C1844 1.350 . S
C1839 N1847 1.427 . S
C1840 H1831 0.930 . S
C1840 C1838 1.378 . S
C1840 C1841 1.367 . S
C1841 C1840 1.367 . S
C1841 C1843 1.433 . S
C1842 C1838 1.350 . S
C1842 C1839 1.463 . S
C1842 N1846 1.427 . S
C1843 H1833 0.929 . S
C1843 C1841 1.433 . S
C1843 N1846 1.384 . S
C1844 H1835 0.929 . S
C1844 C1836 1.378 . S
C1844 C1839 1.350 . S
C1845 H1832 0.929 . S
C1845 C1837 1.433 . S
C1845 N1847 1.384 . S
N1846 C1842 1.427 . S
N1846 C1843 1.384 . S
N1847 C1839 1.427 . S
N1847 C1845 1.384 . S
H1848 C1854 0.930 . S
H1849 C1858 0.930 . S
H1850 C1863 0.929 . S
H1851 C1861 0.929 . S
H1852 C1856 0.929 . S
H1853 C1862 0.929 . S
C1854 H1848 0.930 . S
C1854 C1855 1.367 . S
C1854 C1862 1.378 . S
C1855 C1854 1.367 . S
C1855 C1863 1.433 . S
C1856 H1852 0.929 . S
C1856 C1858 1.378 . S
C1856 C1860 1.350 . S
C1857 C1860 1.463 . S
C1857 C1862 1.350 . S
C1857 N1865 1.427 . S
C1858 H1849 0.930 . S
C1858 C1856 1.378 . S
C1858 C1859 1.367 . S
C1859 C1858 1.367 . S
C1859 C1861 1.433 . S
C1860 C1856 1.350 . S
C1860 C1857 1.463 . S
C1860 N1864 1.427 . S
C1861 H1851 0.929 . S
C1861 C1859 1.433 . S
C1861 N1864 1.384 . S
C1862 H1853 0.929 . S
C1862 C1854 1.378 . S
C1862 C1857 1.350 . S
C1863 H1850 0.929 . S
C1863 C1855 1.433 . S
C1863 N1865 1.384 . S
N1864 C1860 1.427 . S
N1864 C1861 1.384 . S
N1865 C1857 1.427 . S
N1865 C1863 1.384 . S
H1866 C1872 0.930 . S
H1867 C1876 0.930 . S
H1868 C1881 0.929 . S
H1869 C1879 0.929 . S
H1870 C1874 0.929 . S
H1871 C1880 0.929 . S
C1872 H1866 0.930 . S
C1872 C1873 1.367 . S
C1872 C1880 1.378 . S
C1873 C1872 1.367 . S
C1873 C1881 1.433 . S
C1874 H1870 0.929 . S
C1874 C1876 1.378 . S
C1874 C1878 1.350 . S
C1875 C1878 1.463 . S
C1875 C1880 1.350 . S
C1875 N1883 1.427 . S
C1876 H1867 0.930 . S
C1876 C1874 1.378 . S
C1876 C1877 1.367 . S
C1877 C1876 1.367 . S
C1877 C1879 1.433 . S
C1878 C1874 1.350 . S
C1878 C1875 1.463 . S
C1878 N1882 1.427 . S
C1879 H1869 0.929 . S
C1879 C1877 1.433 . S
C1879 N1882 1.384 . S
C1880 H1871 0.929 . S
C1880 C1872 1.378 . S
C1880 C1875 1.350 . S
C1881 H1868 0.929 . S
C1881 C1873 1.433 . S
C1881 N1883 1.384 . S
N1882 C1878 1.427 . S
N1882 C1879 1.384 . S
N1883 C1875 1.427 . S
N1883 C1881 1.384 . S
H1884 C1890 0.930 . S
H1885 C1894 0.930 . S
H1886 C1899 0.929 . S
H1887 C1897 0.929 . S
H1888 C1892 0.929 . S
H1889 C1898 0.929 . S
C1890 H1884 0.930 . S
C1890 C1891 1.367 . S
C1890 C1898 1.378 . S
C1891 C1890 1.367 . S
C1891 C1899 1.433 . S
C1892 H1888 0.929 . S
C1892 C1894 1.378 . S
C1892 C1896 1.350 . S
C1893 C1896 1.463 . S
C1893 C1898 1.350 . S
C1893 N1901 1.427 . S
C1894 H1885 0.930 . S
C1894 C1892 1.378 . S
C1894 C1895 1.367 . S
C1895 C1894 1.367 . S
C1895 C1897 1.433 . S
C1896 C1892 1.350 . S
C1896 C1893 1.463 . S
C1896 N1900 1.427 . S
C1897 H1887 0.929 . S
C1897 C1895 1.433 . S
C1897 N1900 1.384 . S
C1898 H1889 0.929 . S
C1898 C1890 1.378 . S
C1898 C1893 1.350 . S
C1899 H1886 0.929 . S
C1899 C1891 1.433 . S
C1899 N1901 1.384 . S
N1900 C1896 1.427 . S
N1900 C1897 1.384 . S
N1901 C1893 1.427 . S
N1901 C1899 1.384 . S
H1902 C1908 0.930 . S
H1903 C1912 0.930 . S
H1904 C1917 0.929 . S
H1905 C1915 0.929 . S
H1906 C1910 0.929 . S
H1907 C1916 0.929 . S
C1908 H1902 0.930 . S
C1908 C1909 1.367 . S
C1908 C1916 1.378 . S
C1909 C1908 1.367 . S
C1909 C1917 1.433 . S
C1910 H1906 0.929 . S
C1910 C1912 1.378 . S
C1910 C1914 1.350 . S
C1911 C1914 1.463 . S
C1911 C1916 1.350 . S
C1911 N1919 1.427 . S
C1912 H1903 0.930 . S
C1912 C1910 1.378 . S
C1912 C1913 1.367 . S
C1913 C1912 1.367 . S
C1913 C1915 1.433 . S
C1914 C1910 1.350 . S
C1914 C1911 1.463 . S
C1914 N1918 1.427 . S
C1915 H1905 0.929 . S
C1915 C1913 1.433 . S
C1915 N1918 1.384 . S
C1916 H1907 0.929 . S
C1916 C1908 1.378 . S
C1916 C1911 1.350 . S
C1917 H1904 0.929 . S
C1917 C1909 1.433 . S
C1917 N1919 1.384 . S
N1918 C1914 1.427 . S
N1918 C1915 1.384 . S
N1919 C1911 1.427 . S
N1919 C1917 1.384 . S
H1920 C1926 0.930 . S
H1921 C1930 0.930 . S
H1922 C1935 0.929 . S
H1923 C1933 0.929 . S
H1924 C1928 0.929 . S
H1925 C1934 0.929 . S
C1926 H1920 0.930 . S
C1926 C1927 1.367 . S
C1926 C1934 1.378 . S
C1927 C1926 1.367 . S
C1927 C1935 1.433 . S
C1928 H1924 0.929 . S
C1928 C1930 1.378 . S
C1928 C1932 1.350 . S
C1929 C1932 1.463 . S
C1929 C1934 1.350 . S
C1929 N1937 1.427 . S
C1930 H1921 0.930 . S
C1930 C1928 1.378 . S
C1930 C1931 1.367 . S
C1931 C1930 1.367 . S
C1931 C1933 1.433 . S
C1932 C1928 1.350 . S
C1932 C1929 1.463 . S
C1932 N1936 1.427 . S
C1933 H1923 0.929 . S
C1933 C1931 1.433 . S
C1933 N1936 1.384 . S
C1934 H1925 0.929 . S
C1934 C1926 1.378 . S
C1934 C1929 1.350 . S
C1935 H1922 0.929 . S
C1935 C1927 1.433 . S
C1935 N1937 1.384 . S
N1936 C1932 1.427 . S
N1936 C1933 1.384 . S
N1937 C1929 1.427 . S
N1937 C1935 1.384 . S
H1938 C1944 0.930 . S
H1939 C1948 0.930 . S
H1940 C1953 0.929 . S
H1941 C1951 0.929 . S
H1942 C1946 0.929 . S
H1943 C1952 0.929 . S
C1944 H1938 0.930 . S
C1944 C1945 1.367 . S
C1944 C1952 1.378 . S
C1945 C1944 1.367 . S
C1945 C1953 1.433 . S
C1946 H1942 0.929 . S
C1946 C1948 1.378 . S
C1946 C1950 1.350 . S
C1947 C1950 1.463 . S
C1947 C1952 1.350 . S
C1947 N1955 1.427 . S
C1948 H1939 0.930 . S
C1948 C1946 1.378 . S
C1948 C1949 1.367 . S
C1949 C1948 1.367 . S
C1949 C1951 1.433 . S
C1950 C1946 1.350 . S
C1950 C1947 1.463 . S
C1950 N1954 1.427 . S
C1951 H1941 0.929 . S
C1951 C1949 1.433 . S
C1951 N1954 1.384 . S
C1952 H1943 0.929 . S
C1952 C1944 1.378 . S
C1952 C1947 1.350 . S
C1953 H1940 0.929 . S
C1953 C1945 1.433 . S
C1953 N1955 1.384 . S
N1954 C1950 1.427 . S
N1954 C1951 1.384 . S
N1955 C1947 1.427 . S
N1955 C1953 1.384 . S
H1956 C1962 0.930 . S
H1957 C1966 0.930 . S
H1958 C1971 0.929 . S
H1959 C1969 0.929 . S
H1960 C1964 0.929 . S
H1961 C1970 0.929 . S
C1962 H1956 0.930 . S
C1962 C1963 1.367 . S
C1962 C1970 1.378 . S
C1963 C1962 1.367 . S
C1963 C1971 1.433 . S
C1964 H1960 0.929 . S
C1964 C1966 1.378 . S
C1964 C1968 1.350 . S
C1965 C1968 1.463 . S
C1965 C1970 1.350 . S
C1965 N1973 1.427 . S
C1966 H1957 0.930 . S
C1966 C1964 1.378 . S
C1966 C1967 1.367 . S
C1967 C1966 1.367 . S
C1967 C1969 1.433 . S
C1968 C1964 1.350 . S
C1968 C1965 1.463 . S
C1968 N1972 1.427 . S
C1969 H1959 0.929 . S
C1969 C1967 1.433 . S
C1969 N1972 1.384 . S
C1970 H1961 0.929 . S
C1970 C1962 1.378 . S
C1970 C1965 1.350 . S
C1971 H1958 0.929 . S
C1971 C1963 1.433 . S
C1971 N1973 1.384 . S
N1972 C1968 1.427 . S
N1972 C1969 1.384 . S
N1973 C1965 1.427 . S
N1973 C1971 1.384 . S
H1974 C1980 0.930 . S
H1975 C1984 0.930 . S
H1976 C1989 0.929 . S
H1977 C1987 0.929 . S
H1978 C1982 0.929 . S
H1979 C1988 0.929 . S
C1980 H1974 0.930 . S
C1980 C1981 1.367 . S
C1980 C1988 1.378 . S
C1981 C1980 1.367 . S
C1981 C1989 1.433 . S
C1982 H1978 0.929 . S
C1982 C1984 1.378 . S
C1982 C1986 1.350 . S
C1983 C1986 1.463 . S
C1983 C1988 1.350 . S
C1983 N1991 1.427 . S
C1984 H1975 0.930 . S
C1984 C1982 1.378 . S
C1984 C1985 1.367 . S
C1985 C1984 1.367 . S
C1985 C1987 1.433 . S
C1986 C1982 1.350 . S
C1986 C1983 1.463 . S
C1986 N1990 1.427 . S
C1987 H1977 0.929 . S
C1987 C1985 1.433 . S
C1987 N1990 1.384 . S
C1988 H1979 0.929 . S
C1988 C1980 1.378 . S
C1988 C1983 1.350 . S
C1989 H1976 0.929 . S
C1989 C1981 1.433 . S
C1989 N1991 1.384 . S
N1990 C1986 1.427 . S
N1990 C1987 1.384 . S
N1991 C1983 1.427 . S
N1991 C1989 1.384 . S
H1992 C1998 0.930 . S
H1993 C2002 0.930 . S
H1994 C2007 0.929 . S
H1995 C2005 0.929 . S
H1996 C2000 0.929 . S
H1997 C2006 0.929 . S
C1998 H1992 0.930 . S
C1998 C1999 1.367 . S
C1998 C2006 1.378 . S
C1999 C1998 1.367 . S
C1999 C2007 1.433 . S
C2000 H1996 0.929 . S
C2000 C2002 1.378 . S
C2000 C2004 1.350 . S
C2001 C2004 1.463 . S
C2001 C2006 1.350 . S
C2001 N2009 1.427 . S
C2002 H1993 0.930 . S
C2002 C2000 1.378 . S
C2002 C2003 1.367 . S
C2003 C2002 1.367 . S
C2003 C2005 1.433 . S
C2004 C2000 1.350 . S
C2004 C2001 1.463 . S
C2004 N2008 1.427 . S
C2005 H1995 0.929 . S
C2005 C2003 1.433 . S
C2005 N2008 1.384 . S
C2006 H1997 0.929 . S
C2006 C1998 1.378 . S
C2006 C2001 1.350 . S
C2007 H1994 0.929 . S
C2007 C1999 1.433 . S
C2007 N2009 1.384 . S
N2008 C2004 1.427 . S
N2008 C2005 1.384 . S
N2009 C2001 1.427 . S
N2009 C2007 1.384 . S
H2010 C2016 0.930 . S
H2011 C2020 0.930 . S
H2012 C2025 0.929 . S
H2013 C2023 0.929 . S
H2014 C2018 0.929 . S
H2015 C2024 0.929 . S
C2016 H2010 0.930 . S
C2016 C2017 1.367 . S
C2016 C2024 1.378 . S
C2017 C2016 1.367 . S
C2017 C2025 1.433 . S
C2018 H2014 0.929 . S
C2018 C2020 1.378 . S
C2018 C2022 1.350 . S
C2019 C2022 1.463 . S
C2019 C2024 1.350 . S
C2019 N2027 1.427 . S
C2020 H2011 0.930 . S
C2020 C2018 1.378 . S
C2020 C2021 1.367 . S
C2021 C2020 1.367 . S
C2021 C2023 1.433 . S
C2022 C2018 1.350 . S
C2022 C2019 1.463 . S
C2022 N2026 1.427 . S
C2023 H2013 0.929 . S
C2023 C2021 1.433 . S
C2023 N2026 1.384 . S
C2024 H2015 0.929 . S
C2024 C2016 1.378 . S
C2024 C2019 1.350 . S
C2025 H2012 0.929 . S
C2025 C2017 1.433 . S
C2025 N2027 1.384 . S
N2026 C2022 1.427 . S
N2026 C2023 1.384 . S
N2027 C2019 1.427 . S
N2027 C2025 1.384 . S
H2028 C2034 0.930 . S
H2029 C2038 0.930 . S
H2030 C2043 0.929 . S
H2031 C2041 0.929 . S
H2032 C2036 0.929 . S
H2033 C2042 0.929 . S
C2034 H2028 0.930 . S
C2034 C2035 1.367 . S
C2034 C2042 1.378 . S
C2035 C2034 1.367 . S
C2035 C2043 1.433 . S
C2036 H2032 0.929 . S
C2036 C2038 1.378 . S
C2036 C2040 1.350 . S
C2037 C2040 1.463 . S
C2037 C2042 1.350 . S
C2037 N2045 1.427 . S
C2038 H2029 0.930 . S
C2038 C2036 1.378 . S
C2038 C2039 1.367 . S
C2039 C2038 1.367 . S
C2039 C2041 1.433 . S
C2040 C2036 1.350 . S
C2040 C2037 1.463 . S
C2040 N2044 1.427 . S
C2041 H2031 0.929 . S
C2041 C2039 1.433 . S
C2041 N2044 1.384 . S
C2042 H2033 0.929 . S
C2042 C2034 1.378 . S
C2042 C2037 1.350 . S
C2043 H2030 0.929 . S
C2043 C2035 1.433 . S
C2043 N2045 1.384 . S
N2044 C2040 1.427 . S
N2044 C2041 1.384 . S
N2045 C2037 1.427 . S
N2045 C2043 1.384 . S
H2046 C2052 0.930 . S
H2047 C2056 0.930 . S
H2048 C2061 0.929 . S
H2049 C2059 0.929 . S
H2050 C2054 0.929 . S
H2051 C2060 0.929 . S
C2052 H2046 0.930 . S
C2052 C2053 1.367 . S
C2052 C2060 1.378 . S
C2053 C2052 1.367 . S
C2053 C2061 1.433 . S
C2054 H2050 0.929 . S
C2054 C2056 1.378 . S
C2054 C2058 1.350 . S
C2055 C2058 1.463 . S
C2055 C2060 1.350 . S
C2055 N2063 1.427 . S
C2056 H2047 0.930 . S
C2056 C2054 1.378 . S
C2056 C2057 1.367 . S
C2057 C2056 1.367 . S
C2057 C2059 1.433 . S
C2058 C2054 1.350 . S
C2058 C2055 1.463 . S
C2058 N2062 1.427 . S
C2059 H2049 0.929 . S
C2059 C2057 1.433 . S
C2059 N2062 1.384 . S
C2060 H2051 0.929 . S
C2060 C2052 1.378 . S
C2060 C2055 1.350 . S
C2061 H2048 0.929 . S
C2061 C2053 1.433 . S
C2061 N2063 1.384 . S
N2062 C2058 1.427 . S
N2062 C2059 1.384 . S
N2063 C2055 1.427 . S
N2063 C2061 1.384 . S
H2064 C2070 0.930 . S
H2065 C2074 0.930 . S
H2066 C2079 0.929 . S
H2067 C2077 0.929 . S
H2068 C2072 0.929 . S
H2069 C2078 0.929 . S
C2070 H2064 0.930 . S
C2070 C2071 1.367 . S
C2070 C2078 1.378 . S
C2071 C2070 1.367 . S
C2071 C2079 1.433 . S
C2072 H2068 0.929 . S
C2072 C2074 1.378 . S
C2072 C2076 1.350 . S
C2073 C2076 1.463 . S
C2073 C2078 1.350 . S
C2073 N2081 1.427 . S
C2074 H2065 0.930 . S
C2074 C2072 1.378 . S
C2074 C2075 1.367 . S
C2075 C2074 1.367 . S
C2075 C2077 1.433 . S
C2076 C2072 1.350 . S
C2076 C2073 1.463 . S
C2076 N2080 1.427 . S
C2077 H2067 0.929 . S
C2077 C2075 1.433 . S
C2077 N2080 1.384 . S
C2078 H2069 0.929 . S
C2078 C2070 1.378 . S
C2078 C2073 1.350 . S
C2079 H2066 0.929 . S
C2079 C2071 1.433 . S
C2079 N2081 1.384 . S
N2080 C2076 1.427 . S
N2080 C2077 1.384 . S
N2081 C2073 1.427 . S
N2081 C2079 1.384 . S
H2082 C2088 0.930 . S
H2083 C2092 0.930 . S
H2084 C2097 0.929 . S
H2085 C2095 0.929 . S
H2086 C2090 0.929 . S
H2087 C2096 0.929 . S
C2088 H2082 0.930 . S
C2088 C2089 1.367 . S
C2088 C2096 1.378 . S
C2089 C2088 1.367 . S
C2089 C2097 1.433 . S
C2090 H2086 0.929 . S
C2090 C2092 1.378 . S
C2090 C2094 1.350 . S
C2091 C2094 1.463 . S
C2091 C2096 1.350 . S
C2091 N2099 1.427 . S
C2092 H2083 0.930 . S
C2092 C2090 1.378 . S
C2092 C2093 1.367 . S
C2093 C2092 1.367 . S
C2093 C2095 1.433 . S
C2094 C2090 1.350 . S
C2094 C2091 1.463 . S
C2094 N2098 1.427 . S
C2095 H2085 0.929 . S
C2095 C2093 1.433 . S
C2095 N2098 1.384 . S
C2096 H2087 0.929 . S
C2096 C2088 1.378 . S
C2096 C2091 1.350 . S
C2097 H2084 0.929 . S
C2097 C2089 1.433 . S
C2097 N2099 1.384 . S
N2098 C2094 1.427 . S
N2098 C2095 1.384 . S
N2099 C2091 1.427 . S
N2099 C2097 1.384 . S
H2100 C2106 0.930 . S
H2101 C2110 0.930 . S
H2102 C2115 0.929 . S
H2103 C2113 0.929 . S
H2104 C2108 0.929 . S
H2105 C2114 0.929 . S
C2106 H2100 0.930 . S
C2106 C2107 1.367 . S
C2106 C2114 1.378 . S
C2107 C2106 1.367 . S
C2107 C2115 1.433 . S
C2108 H2104 0.929 . S
C2108 C2110 1.378 . S
C2108 C2112 1.350 . S
C2109 C2112 1.463 . S
C2109 C2114 1.350 . S
C2109 N2117 1.427 . S
C2110 H2101 0.930 . S
C2110 C2108 1.378 . S
C2110 C2111 1.367 . S
C2111 C2110 1.367 . S
C2111 C2113 1.433 . S
C2112 C2108 1.350 . S
C2112 C2109 1.463 . S
C2112 N2116 1.427 . S
C2113 H2103 0.929 . S
C2113 C2111 1.433 . S
C2113 N2116 1.384 . S
C2114 H2105 0.929 . S
C2114 C2106 1.378 . S
C2114 C2109 1.350 . S
C2115 H2102 0.929 . S
C2115 C2107 1.433 . S
C2115 N2117 1.384 . S
N2116 C2112 1.427 . S
N2116 C2113 1.384 . S
N2117 C2109 1.427 . S
N2117 C2115 1.384 . S
H2118 C2124 0.930 . S
H2119 C2128 0.930 . S
H2120 C2133 0.929 . S
H2121 C2131 0.929 . S
H2122 C2126 0.929 . S
H2123 C2132 0.929 . S
C2124 H2118 0.930 . S
C2124 C2125 1.367 . S
C2124 C2132 1.378 . S
C2125 C2124 1.367 . S
C2125 C2133 1.433 . S
C2126 H2122 0.929 . S
C2126 C2128 1.378 . S
C2126 C2130 1.350 . S
C2127 C2130 1.463 . S
C2127 C2132 1.350 . S
C2127 N2135 1.427 . S
C2128 H2119 0.930 . S
C2128 C2126 1.378 . S
C2128 C2129 1.367 . S
C2129 C2128 1.367 . S
C2129 C2131 1.433 . S
C2130 C2126 1.350 . S
C2130 C2127 1.463 . S
C2130 N2134 1.427 . S
C2131 H2121 0.929 . S
C2131 C2129 1.433 . S
C2131 N2134 1.384 . S
C2132 H2123 0.929 . S
C2132 C2124 1.378 . S
C2132 C2127 1.350 . S
C2133 H2120 0.929 . S
C2133 C2125 1.433 . S
C2133 N2135 1.384 . S
N2134 C2130 1.427 . S
N2134 C2131 1.384 . S
N2135 C2127 1.427 . S
N2135 C2133 1.384 . S
H2136 C2142 0.930 . S
H2137 C2146 0.930 . S
H2138 C2151 0.929 . S
H2139 C2149 0.929 . S
H2140 C2144 0.929 . S
H2141 C2150 0.929 . S
C2142 H2136 0.930 . S
C2142 C2143 1.367 . S
C2142 C2150 1.378 . S
C2143 C2142 1.367 . S
C2143 C2151 1.433 . S
C2144 H2140 0.929 . S
C2144 C2146 1.378 . S
C2144 C2148 1.350 . S
C2145 C2148 1.463 . S
C2145 C2150 1.350 . S
C2145 N2153 1.427 . S
C2146 H2137 0.930 . S
C2146 C2144 1.378 . S
C2146 C2147 1.367 . S
C2147 C2146 1.367 . S
C2147 C2149 1.433 . S
C2148 C2144 1.350 . S
C2148 C2145 1.463 . S
C2148 N2152 1.427 . S
C2149 H2139 0.929 . S
C2149 C2147 1.433 . S
C2149 N2152 1.384 . S
C2150 H2141 0.929 . S
C2150 C2142 1.378 . S
C2150 C2145 1.350 . S
C2151 H2138 0.929 . S
C2151 C2143 1.433 . S
C2151 N2153 1.384 . S
N2152 C2148 1.427 . S
N2152 C2149 1.384 . S
N2153 C2145 1.427 . S
N2153 C2151 1.384 . S
H2154 C2160 0.930 . S
H2155 C2164 0.930 . S
H2156 C2169 0.929 . S
H2157 C2167 0.929 . S
H2158 C2162 0.929 . S
H2159 C2168 0.929 . S
C2160 H2154 0.930 . S
C2160 C2161 1.367 . S
C2160 C2168 1.378 . S
C2161 C2160 1.367 . S
C2161 C2169 1.433 . S
C2162 H2158 0.929 . S
C2162 C2164 1.378 . S
C2162 C2166 1.350 . S
C2163 C2166 1.463 . S
C2163 C2168 1.350 . S
C2163 N2171 1.427 . S
C2164 H2155 0.930 . S
C2164 C2162 1.378 . S
C2164 C2165 1.367 . S
C2165 C2164 1.367 . S
C2165 C2167 1.433 . S
C2166 C2162 1.350 . S
C2166 C2163 1.463 . S
C2166 N2170 1.427 . S
C2167 H2157 0.929 . S
C2167 C2165 1.433 . S
C2167 N2170 1.384 . S
C2168 H2159 0.929 . S
C2168 C2160 1.378 . S
C2168 C2163 1.350 . S
C2169 H2156 0.929 . S
C2169 C2161 1.433 . S
C2169 N2171 1.384 . S
N2170 C2166 1.427 . S
N2170 C2167 1.384 . S
N2171 C2163 1.427 . S
N2171 C2169 1.384 . S
H2172 C2178 0.930 . S
H2173 C2182 0.930 . S
H2174 C2187 0.929 . S
H2175 C2185 0.929 . S
H2176 C2180 0.929 . S
H2177 C2186 0.929 . S
C2178 H2172 0.930 . S
C2178 C2179 1.367 . S
C2178 C2186 1.378 . S
C2179 C2178 1.367 . S
C2179 C2187 1.433 . S
C2180 H2176 0.929 . S
C2180 C2182 1.378 . S
C2180 C2184 1.350 . S
C2181 C2184 1.463 . S
C2181 C2186 1.350 . S
C2181 N2189 1.427 . S
C2182 H2173 0.930 . S
C2182 C2180 1.378 . S
C2182 C2183 1.367 . S
C2183 C2182 1.367 . S
C2183 C2185 1.433 . S
C2184 C2180 1.350 . S
C2184 C2181 1.463 . S
C2184 N2188 1.427 . S
C2185 H2175 0.929 . S
C2185 C2183 1.433 . S
C2185 N2188 1.384 . S
C2186 H2177 0.929 . S
C2186 C2178 1.378 . S
C2186 C2181 1.350 . S
C2187 H2174 0.929 . S
C2187 C2179 1.433 . S
C2187 N2189 1.384 . S
N2188 C2184 1.427 . S
N2188 C2185 1.384 . S
N2189 C2181 1.427 . S
N2189 C2187 1.384 . S
H2190 C2196 0.930 . S
H2191 C2200 0.930 . S
H2192 C2205 0.929 . S
H2193 C2203 0.929 . S
H2194 C2198 0.929 . S
H2195 C2204 0.929 . S
C2196 H2190 0.930 . S
C2196 C2197 1.367 . S
C2196 C2204 1.378 . S
C2197 C2196 1.367 . S
C2197 C2205 1.433 . S
C2198 H2194 0.929 . S
C2198 C2200 1.378 . S
C2198 C2202 1.350 . S
C2199 C2202 1.463 . S
C2199 C2204 1.350 . S
C2199 N2207 1.427 . S
C2200 H2191 0.930 . S
C2200 C2198 1.378 . S
C2200 C2201 1.367 . S
C2201 C2200 1.367 . S
C2201 C2203 1.433 . S
C2202 C2198 1.350 . S
C2202 C2199 1.463 . S
C2202 N2206 1.427 . S
C2203 H2193 0.929 . S
C2203 C2201 1.433 . S
C2203 N2206 1.384 . S
C2204 H2195 0.929 . S
C2204 C2196 1.378 . S
C2204 C2199 1.350 . S
C2205 H2192 0.929 . S
C2205 C2197 1.433 . S
C2205 N2207 1.384 . S
N2206 C2202 1.427 . S
N2206 C2203 1.384 . S
N2207 C2199 1.427 . S
N2207 C2205 1.384 . S
H2208 C2214 0.930 . S
H2209 C2218 0.930 . S
H2210 C2223 0.929 . S
H2211 C2221 0.929 . S
H2212 C2216 0.929 . S
H2213 C2222 0.929 . S
C2214 H2208 0.930 . S
C2214 C2215 1.367 . S
C2214 C2222 1.378 . S
C2215 C2214 1.367 . S
C2215 C2223 1.433 . S
C2216 H2212 0.929 . S
C2216 C2218 1.378 . S
C2216 C2220 1.350 . S
C2217 C2220 1.463 . S
C2217 C2222 1.350 . S
C2217 N2225 1.427 . S
C2218 H2209 0.930 . S
C2218 C2216 1.378 . S
C2218 C2219 1.367 . S
C2219 C2218 1.367 . S
C2219 C2221 1.433 . S
C2220 C2216 1.350 . S
C2220 C2217 1.463 . S
C2220 N2224 1.427 . S
C2221 H2211 0.929 . S
C2221 C2219 1.433 . S
C2221 N2224 1.384 . S
C2222 H2213 0.929 . S
C2222 C2214 1.378 . S
C2222 C2217 1.350 . S
C2223 H2210 0.929 . S
C2223 C2215 1.433 . S
C2223 N2225 1.384 . S
N2224 C2220 1.427 . S
N2224 C2221 1.384 . S
N2225 C2217 1.427 . S
N2225 C2223 1.384 . S
H2226 C2232 0.930 . S
H2227 C2236 0.930 . S
H2228 C2241 0.929 . S
H2229 C2239 0.929 . S
H2230 C2234 0.929 . S
H2231 C2240 0.929 . S
C2232 H2226 0.930 . S
C2232 C2233 1.367 . S
C2232 C2240 1.378 . S
C2233 C2232 1.367 . S
C2233 C2241 1.433 . S
C2234 H2230 0.929 . S
C2234 C2236 1.378 . S
C2234 C2238 1.350 . S
C2235 C2238 1.463 . S
C2235 C2240 1.350 . S
C2235 N2243 1.427 . S
C2236 H2227 0.930 . S
C2236 C2234 1.378 . S
C2236 C2237 1.367 . S
C2237 C2236 1.367 . S
C2237 C2239 1.433 . S
C2238 C2234 1.350 . S
C2238 C2235 1.463 . S
C2238 N2242 1.427 . S
C2239 H2229 0.929 . S
C2239 C2237 1.433 . S
C2239 N2242 1.384 . S
C2240 H2231 0.929 . S
C2240 C2232 1.378 . S
C2240 C2235 1.350 . S
C2241 H2228 0.929 . S
C2241 C2233 1.433 . S
C2241 N2243 1.384 . S
N2242 C2238 1.427 . S
N2242 C2239 1.384 . S
N2243 C2235 1.427 . S
N2243 C2241 1.384 . S
H2244 C2250 0.930 . S
H2245 C2254 0.930 . S
H2246 C2259 0.929 . S
H2247 C2257 0.929 . S
H2248 C2252 0.929 . S
H2249 C2258 0.929 . S
C2250 H2244 0.930 . S
C2250 C2251 1.367 . S
C2250 C2258 1.378 . S
C2251 C2250 1.367 . S
C2251 C2259 1.433 . S
C2252 H2248 0.929 . S
C2252 C2254 1.378 . S
C2252 C2256 1.350 . S
C2253 C2256 1.463 . S
C2253 C2258 1.350 . S
C2253 N2261 1.427 . S
C2254 H2245 0.930 . S
C2254 C2252 1.378 . S
C2254 C2255 1.367 . S
C2255 C2254 1.367 . S
C2255 C2257 1.433 . S
C2256 C2252 1.350 . S
C2256 C2253 1.463 . S
C2256 N2260 1.427 . S
C2257 H2247 0.929 . S
C2257 C2255 1.433 . S
C2257 N2260 1.384 . S
C2258 H2249 0.929 . S
C2258 C2250 1.378 . S
C2258 C2253 1.350 . S
C2259 H2246 0.929 . S
C2259 C2251 1.433 . S
C2259 N2261 1.384 . S
N2260 C2256 1.427 . S
N2260 C2257 1.384 . S
N2261 C2253 1.427 . S
N2261 C2259 1.384 . S
H2262 C2268 0.930 . S
H2263 C2272 0.930 . S
H2264 C2277 0.929 . S
H2265 C2275 0.929 . S
H2266 C2270 0.929 . S
H2267 C2276 0.929 . S
C2268 H2262 0.930 . S
C2268 C2269 1.367 . S
C2268 C2276 1.378 . S
C2269 C2268 1.367 . S
C2269 C2277 1.433 . S
C2270 H2266 0.929 . S
C2270 C2272 1.378 . S
C2270 C2274 1.350 . S
C2271 C2274 1.463 . S
C2271 C2276 1.350 . S
C2271 N2279 1.427 . S
C2272 H2263 0.930 . S
C2272 C2270 1.378 . S
C2272 C2273 1.367 . S
C2273 C2272 1.367 . S
C2273 C2275 1.433 . S
C2274 C2270 1.350 . S
C2274 C2271 1.463 . S
C2274 N2278 1.427 . S
C2275 H2265 0.929 . S
C2275 C2273 1.433 . S
C2275 N2278 1.384 . S
C2276 H2267 0.929 . S
C2276 C2268 1.378 . S
C2276 C2271 1.350 . S
C2277 H2264 0.929 . S
C2277 C2269 1.433 . S
C2277 N2279 1.384 . S
N2278 C2274 1.427 . S
N2278 C2275 1.384 . S
N2279 C2271 1.427 . S
N2279 C2277 1.384 . S
H2280 C2286 0.930 . S
H2281 C2290 0.930 . S
H2282 C2295 0.929 . S
H2283 C2293 0.929 . S
H2284 C2288 0.929 . S
H2285 C2294 0.929 . S
C2286 H2280 0.930 . S
C2286 C2287 1.367 . S
C2286 C2294 1.378 . S
C2287 C2286 1.367 . S
C2287 C2295 1.433 . S
C2288 H2284 0.929 . S
C2288 C2290 1.378 . S
C2288 C2292 1.350 . S
C2289 C2292 1.463 . S
C2289 C2294 1.350 . S
C2289 N2297 1.427 . S
C2290 H2281 0.930 . S
C2290 C2288 1.378 . S
C2290 C2291 1.367 . S
C2291 C2290 1.367 . S
C2291 C2293 1.433 . S
C2292 C2288 1.350 . S
C2292 C2289 1.463 . S
C2292 N2296 1.427 . S
C2293 H2283 0.929 . S
C2293 C2291 1.433 . S
C2293 N2296 1.384 . S
C2294 H2285 0.929 . S
C2294 C2286 1.378 . S
C2294 C2289 1.350 . S
C2295 H2282 0.929 . S
C2295 C2287 1.433 . S
C2295 N2297 1.384 . S
N2296 C2292 1.427 . S
N2296 C2293 1.384 . S
N2297 C2289 1.427 . S
N2297 C2295 1.384 . S
H2298 C2304 0.930 . S
H2299 C2308 0.930 . S
H2300 C2313 0.929 . S
H2301 C2311 0.929 . S
H2302 C2306 0.929 . S
H2303 C2312 0.929 . S
C2304 H2298 0.930 . S
C2304 C2305 1.367 . S
C2304 C2312 1.378 . S
C2305 C2304 1.367 . S
C2305 C2313 1.433 . S
C2306 H2302 0.929 . S
C2306 C2308 1.378 . S
C2306 C2310 1.350 . S
C2307 C2310 1.463 . S
C2307 C2312 1.350 . S
C2307 N2315 1.427 . S
C2308 H2299 0.930 . S
C2308 C2306 1.378 . S
C2308 C2309 1.367 . S
C2309 C2308 1.367 . S
C2309 C2311 1.433 . S
C2310 C2306 1.350 . S
C2310 C2307 1.463 . S
C2310 N2314 1.427 . S
C2311 H2301 0.929 . S
C2311 C2309 1.433 . S
C2311 N2314 1.384 . S
C2312 H2303 0.929 . S
C2312 C2304 1.378 . S
C2312 C2307 1.350 . S
C2313 H2300 0.929 . S
C2313 C2305 1.433 . S
C2313 N2315 1.384 . S
N2314 C2310 1.427 . S
N2314 C2311 1.384 . S
N2315 C2307 1.427 . S
N2315 C2313 1.384 . S
H2316 C2322 0.930 . S
H2317 C2326 0.930 . S
H2318 C2331 0.929 . S
H2319 C2329 0.929 . S
H2320 C2324 0.929 . S
H2321 C2330 0.929 . S
C2322 H2316 0.930 . S
C2322 C2323 1.367 . S
C2322 C2330 1.378 . S
C2323 C2322 1.367 . S
C2323 C2331 1.433 . S
C2324 H2320 0.929 . S
C2324 C2326 1.378 . S
C2324 C2328 1.350 . S
C2325 C2328 1.463 . S
C2325 C2330 1.350 . S
C2325 N2333 1.427 . S
C2326 H2317 0.930 . S
C2326 C2324 1.378 . S
C2326 C2327 1.367 . S
C2327 C2326 1.367 . S
C2327 C2329 1.433 . S
C2328 C2324 1.350 . S
C2328 C2325 1.463 . S
C2328 N2332 1.427 . S
C2329 H2319 0.929 . S
C2329 C2327 1.433 . S
C2329 N2332 1.384 . S
C2330 H2321 0.929 . S
C2330 C2322 1.378 . S
C2330 C2325 1.350 . S
C2331 H2318 0.929 . S
C2331 C2323 1.433 . S
C2331 N2333 1.384 . S
N2332 C2328 1.427 . S
N2332 C2329 1.384 . S
N2333 C2325 1.427 . S
N2333 C2331 1.384 . S
H2334 C2340 0.930 . S
H2335 C2344 0.930 . S
H2336 C2349 0.929 . S
H2337 C2347 0.929 . S
H2338 C2342 0.929 . S
H2339 C2348 0.929 . S
C2340 H2334 0.930 . S
C2340 C2341 1.367 . S
C2340 C2348 1.378 . S
C2341 C2340 1.367 . S
C2341 C2349 1.433 . S
C2342 H2338 0.929 . S
C2342 C2344 1.378 . S
C2342 C2346 1.350 . S
C2343 C2346 1.463 . S
C2343 C2348 1.350 . S
C2343 N2351 1.427 . S
C2344 H2335 0.930 . S
C2344 C2342 1.378 . S
C2344 C2345 1.367 . S
C2345 C2344 1.367 . S
C2345 C2347 1.433 . S
C2346 C2342 1.350 . S
C2346 C2343 1.463 . S
C2346 N2350 1.427 . S
C2347 H2337 0.929 . S
C2347 C2345 1.433 . S
C2347 N2350 1.384 . S
C2348 H2339 0.929 . S
C2348 C2340 1.378 . S
C2348 C2343 1.350 . S
C2349 H2336 0.929 . S
C2349 C2341 1.433 . S
C2349 N2351 1.384 . S
N2350 C2346 1.427 . S
N2350 C2347 1.384 . S
N2351 C2343 1.427 . S
N2351 C2349 1.384 . S
H2352 C2358 0.930 . S
H2353 C2362 0.930 . S
H2354 C2367 0.929 . S
H2355 C2365 0.929 . S
H2356 C2360 0.929 . S
H2357 C2366 0.929 . S
C2358 H2352 0.930 . S
C2358 C2359 1.367 . S
C2358 C2366 1.378 . S
C2359 C2358 1.367 . S
C2359 C2367 1.433 . S
C2360 H2356 0.929 . S
C2360 C2362 1.378 . S
C2360 C2364 1.350 . S
C2361 C2364 1.463 . S
C2361 C2366 1.350 . S
C2361 N2369 1.427 . S
C2362 H2353 0.930 . S
C2362 C2360 1.378 . S
C2362 C2363 1.367 . S
C2363 C2362 1.367 . S
C2363 C2365 1.433 . S
C2364 C2360 1.350 . S
C2364 C2361 1.463 . S
C2364 N2368 1.427 . S
C2365 H2355 0.929 . S
C2365 C2363 1.433 . S
C2365 N2368 1.384 . S
C2366 H2357 0.929 . S
C2366 C2358 1.378 . S
C2366 C2361 1.350 . S
C2367 H2354 0.929 . S
C2367 C2359 1.433 . S
C2367 N2369 1.384 . S
N2368 C2364 1.427 . S
N2368 C2365 1.384 . S
N2369 C2361 1.427 . S
N2369 C2367 1.384 . S
H2370 C2376 0.930 . S
H2371 C2380 0.930 . S
H2372 C2385 0.929 . S
H2373 C2383 0.929 . S
H2374 C2378 0.929 . S
H2375 C2384 0.929 . S
C2376 H2370 0.930 . S
C2376 C2377 1.367 . S
C2376 C2384 1.378 . S
C2377 C2376 1.367 . S
C2377 C2385 1.433 . S
C2378 H2374 0.929 . S
C2378 C2380 1.378 . S
C2378 C2382 1.350 . S
C2379 C2382 1.463 . S
C2379 C2384 1.350 . S
C2379 N2387 1.427 . S
C2380 H2371 0.930 . S
C2380 C2378 1.378 . S
C2380 C2381 1.367 . S
C2381 C2380 1.367 . S
C2381 C2383 1.433 . S
C2382 C2378 1.350 . S
C2382 C2379 1.463 . S
C2382 N2386 1.427 . S
C2383 H2373 0.929 . S
C2383 C2381 1.433 . S
C2383 N2386 1.384 . S
C2384 H2375 0.929 . S
C2384 C2376 1.378 . S
C2384 C2379 1.350 . S
C2385 H2372 0.929 . S
C2385 C2377 1.433 . S
C2385 N2387 1.384 . S
N2386 C2382 1.427 . S
N2386 C2383 1.384 . S
N2387 C2379 1.427 . S
N2387 C2385 1.384 . S
H2388 C2394 0.930 . S
H2389 C2398 0.930 . S
H2390 C2403 0.929 . S
H2391 C2401 0.929 . S
H2392 C2396 0.929 . S
H2393 C2402 0.929 . S
C2394 H2388 0.930 . S
C2394 C2395 1.367 . S
C2394 C2402 1.378 . S
C2395 C2394 1.367 . S
C2395 C2403 1.433 . S
C2396 H2392 0.929 . S
C2396 C2398 1.378 . S
C2396 C2400 1.350 . S
C2397 C2400 1.463 . S
C2397 C2402 1.350 . S
C2397 N2405 1.427 . S
C2398 H2389 0.930 . S
C2398 C2396 1.378 . S
C2398 C2399 1.367 . S
C2399 C2398 1.367 . S
C2399 C2401 1.433 . S
C2400 C2396 1.350 . S
C2400 C2397 1.463 . S
C2400 N2404 1.427 . S
C2401 H2391 0.929 . S
C2401 C2399 1.433 . S
C2401 N2404 1.384 . S
C2402 H2393 0.929 . S
C2402 C2394 1.378 . S
C2402 C2397 1.350 . S
C2403 H2390 0.929 . S
C2403 C2395 1.433 . S
C2403 N2405 1.384 . S
N2404 C2400 1.427 . S
N2404 C2401 1.384 . S
N2405 C2397 1.427 . S
N2405 C2403 1.384 . S
H2406 C2412 0.930 . S
H2407 C2416 0.930 . S
H2408 C2421 0.929 . S
H2409 C2419 0.929 . S
H2410 C2414 0.929 . S
H2411 C2420 0.929 . S
C2412 H2406 0.930 . S
C2412 C2413 1.367 . S
C2412 C2420 1.378 . S
C2413 C2412 1.367 . S
C2413 C2421 1.433 . S
C2414 H2410 0.929 . S
C2414 C2416 1.378 . S
C2414 C2418 1.350 . S
C2415 C2418 1.463 . S
C2415 C2420 1.350 . S
C2415 N2423 1.427 . S
C2416 H2407 0.930 . S
C2416 C2414 1.378 . S
C2416 C2417 1.367 . S
C2417 C2416 1.367 . S
C2417 C2419 1.433 . S
C2418 C2414 1.350 . S
C2418 C2415 1.463 . S
C2418 N2422 1.427 . S
C2419 H2409 0.929 . S
C2419 C2417 1.433 . S
C2419 N2422 1.384 . S
C2420 H2411 0.929 . S
C2420 C2412 1.378 . S
C2420 C2415 1.350 . S
C2421 H2408 0.929 . S
C2421 C2413 1.433 . S
C2421 N2423 1.384 . S
N2422 C2418 1.427 . S
N2422 C2419 1.384 . S
N2423 C2415 1.427 . S
N2423 C2421 1.384 . S
H2424 C2430 0.930 . S
H2425 C2434 0.930 . S
H2426 C2439 0.929 . S
H2427 C2437 0.929 . S
H2428 C2432 0.929 . S
H2429 C2438 0.929 . S
C2430 H2424 0.930 . S
C2430 C2431 1.367 . S
C2430 C2438 1.378 . S
C2431 C2430 1.367 . S
C2431 C2439 1.433 . S
C2432 H2428 0.929 . S
C2432 C2434 1.378 . S
C2432 C2436 1.350 . S
C2433 C2436 1.463 . S
C2433 C2438 1.350 . S
C2433 N2441 1.427 . S
C2434 H2425 0.930 . S
C2434 C2432 1.378 . S
C2434 C2435 1.367 . S
C2435 C2434 1.367 . S
C2435 C2437 1.433 . S
C2436 C2432 1.350 . S
C2436 C2433 1.463 . S
C2436 N2440 1.427 . S
C2437 H2427 0.929 . S
C2437 C2435 1.433 . S
C2437 N2440 1.384 . S
C2438 H2429 0.929 . S
C2438 C2430 1.378 . S
C2438 C2433 1.350 . S
C2439 H2426 0.929 . S
C2439 C2431 1.433 . S
C2439 N2441 1.384 . S
N2440 C2436 1.427 . S
N2440 C2437 1.384 . S
N2441 C2433 1.427 . S
N2441 C2439 1.384 . S
H2442 C2448 0.930 . S
H2443 C2452 0.930 . S
H2444 C2457 0.929 . S
H2445 C2455 0.929 . S
H2446 C2450 0.929 . S
H2447 C2456 0.929 . S
C2448 H2442 0.930 . S
C2448 C2449 1.367 . S
C2448 C2456 1.378 . S
C2449 C2448 1.367 . S
C2449 C2457 1.433 . S
C2450 H2446 0.929 . S
C2450 C2452 1.378 . S
C2450 C2454 1.350 . S
C2451 C2454 1.463 . S
C2451 C2456 1.350 . S
C2451 N2459 1.427 . S
C2452 H2443 0.930 . S
C2452 C2450 1.378 . S
C2452 C2453 1.367 . S
C2453 C2452 1.367 . S
C2453 C2455 1.433 . S
C2454 C2450 1.350 . S
C2454 C2451 1.463 . S
C2454 N2458 1.427 . S
C2455 H2445 0.929 . S
C2455 C2453 1.433 . S
C2455 N2458 1.384 . S
C2456 H2447 0.929 . S
C2456 C2448 1.378 . S
C2456 C2451 1.350 . S
C2457 H2444 0.929 . S
C2457 C2449 1.433 . S
C2457 N2459 1.384 . S
N2458 C2454 1.427 . S
N2458 C2455 1.384 . S
N2459 C2451 1.427 . S
N2459 C2457 1.384 . S
H2460 C2466 0.930 . S
H2461 C2470 0.930 . S
H2462 C2475 0.929 . S
H2463 C2473 0.929 . S
H2464 C2468 0.929 . S
H2465 C2474 0.929 . S
C2466 H2460 0.930 . S
C2466 C2467 1.367 . S
C2466 C2474 1.378 . S
C2467 C2466 1.367 . S
C2467 C2475 1.433 . S
C2468 H2464 0.929 . S
C2468 C2470 1.378 . S
C2468 C2472 1.350 . S
C2469 C2472 1.463 . S
C2469 C2474 1.350 . S
C2469 N2477 1.427 . S
C2470 H2461 0.930 . S
C2470 C2468 1.378 . S
C2470 C2471 1.367 . S
C2471 C2470 1.367 . S
C2471 C2473 1.433 . S
C2472 C2468 1.350 . S
C2472 C2469 1.463 . S
C2472 N2476 1.427 . S
C2473 H2463 0.929 . S
C2473 C2471 1.433 . S
C2473 N2476 1.384 . S
C2474 H2465 0.929 . S
C2474 C2466 1.378 . S
C2474 C2469 1.350 . S
C2475 H2462 0.929 . S
C2475 C2467 1.433 . S
C2475 N2477 1.384 . S
N2476 C2472 1.427 . S
N2476 C2473 1.384 . S
N2477 C2469 1.427 . S
N2477 C2475 1.384 . S
H2478 C2484 0.930 . S
H2479 C2488 0.930 . S
H2480 C2493 0.929 . S
H2481 C2491 0.929 . S
H2482 C2486 0.929 . S
H2483 C2492 0.929 . S
C2484 H2478 0.930 . S
C2484 C2485 1.367 . S
C2484 C2492 1.378 . S
C2485 C2484 1.367 . S
C2485 C2493 1.433 . S
C2486 H2482 0.929 . S
C2486 C2488 1.378 . S
C2486 C2490 1.350 . S
C2487 C2490 1.463 . S
C2487 C2492 1.350 . S
C2487 N2495 1.427 . S
C2488 H2479 0.930 . S
C2488 C2486 1.378 . S
C2488 C2489 1.367 . S
C2489 C2488 1.367 . S
C2489 C2491 1.433 . S
C2490 C2486 1.350 . S
C2490 C2487 1.463 . S
C2490 N2494 1.427 . S
C2491 H2481 0.929 . S
C2491 C2489 1.433 . S
C2491 N2494 1.384 . S
C2492 H2483 0.929 . S
C2492 C2484 1.378 . S
C2492 C2487 1.350 . S
C2493 H2480 0.929 . S
C2493 C2485 1.433 . S
C2493 N2495 1.384 . S
N2494 C2490 1.427 . S
N2494 C2491 1.384 . S
N2495 C2487 1.427 . S
N2495 C2493 1.384 . S
H2496 C2502 0.930 . S
H2497 C2506 0.930 . S
H2498 C2511 0.929 . S
H2499 C2509 0.929 . S
H2500 C2504 0.929 . S
H2501 C2510 0.929 . S
C2502 H2496 0.930 . S
C2502 C2503 1.367 . S
C2502 C2510 1.378 . S
C2503 C2502 1.367 . S
C2503 C2511 1.433 . S
C2504 H2500 0.929 . S
C2504 C2506 1.378 . S
C2504 C2508 1.350 . S
C2505 C2508 1.463 . S
C2505 C2510 1.350 . S
C2505 N2513 1.427 . S
C2506 H2497 0.930 . S
C2506 C2504 1.378 . S
C2506 C2507 1.367 . S
C2507 C2506 1.367 . S
C2507 C2509 1.433 . S
C2508 C2504 1.350 . S
C2508 C2505 1.463 . S
C2508 N2512 1.427 . S
C2509 H2499 0.929 . S
C2509 C2507 1.433 . S
C2509 N2512 1.384 . S
C2510 H2501 0.929 . S
C2510 C2502 1.378 . S
C2510 C2505 1.350 . S
C2511 H2498 0.929 . S
C2511 C2503 1.433 . S
C2511 N2513 1.384 . S
N2512 C2508 1.427 . S
N2512 C2509 1.384 . S
N2513 C2505 1.427 . S
N2513 C2511 1.384 . S
H2514 C2520 0.930 . S
H2515 C2524 0.930 . S
H2516 C2529 0.929 . S
H2517 C2527 0.929 . S
H2518 C2522 0.929 . S
H2519 C2528 0.929 . S
C2520 H2514 0.930 . S
C2520 C2521 1.367 . S
C2520 C2528 1.378 . S
C2521 C2520 1.367 . S
C2521 C2529 1.433 . S
C2522 H2518 0.929 . S
C2522 C2524 1.378 . S
C2522 C2526 1.350 . S
C2523 C2526 1.463 . S
C2523 C2528 1.350 . S
C2523 N2531 1.427 . S
C2524 H2515 0.930 . S
C2524 C2522 1.378 . S
C2524 C2525 1.367 . S
C2525 C2524 1.367 . S
C2525 C2527 1.433 . S
C2526 C2522 1.350 . S
C2526 C2523 1.463 . S
C2526 N2530 1.427 . S
C2527 H2517 0.929 . S
C2527 C2525 1.433 . S
C2527 N2530 1.384 . S
C2528 H2519 0.929 . S
C2528 C2520 1.378 . S
C2528 C2523 1.350 . S
C2529 H2516 0.929 . S
C2529 C2521 1.433 . S
C2529 N2531 1.384 . S
N2530 C2526 1.427 . S
N2530 C2527 1.384 . S
N2531 C2523 1.427 . S
N2531 C2529 1.384 . S
H2532 C2538 0.930 . S
H2533 C2542 0.930 . S
H2534 C2547 0.929 . S
H2535 C2545 0.929 . S
H2536 C2540 0.929 . S
H2537 C2546 0.929 . S
C2538 H2532 0.930 . S
C2538 C2539 1.367 . S
C2538 C2546 1.378 . S
C2539 C2538 1.367 . S
C2539 C2547 1.433 . S
C2540 H2536 0.929 . S
C2540 C2542 1.378 . S
C2540 C2544 1.350 . S
C2541 C2544 1.463 . S
C2541 C2546 1.350 . S
C2541 N2549 1.427 . S
C2542 H2533 0.930 . S
C2542 C2540 1.378 . S
C2542 C2543 1.367 . S
C2543 C2542 1.367 . S
C2543 C2545 1.433 . S
C2544 C2540 1.350 . S
C2544 C2541 1.463 . S
C2544 N2548 1.427 . S
C2545 H2535 0.929 . S
C2545 C2543 1.433 . S
C2545 N2548 1.384 . S
C2546 H2537 0.929 . S
C2546 C2538 1.378 . S
C2546 C2541 1.350 . S
C2547 H2534 0.929 . S
C2547 C2539 1.433 . S
C2547 N2549 1.384 . S
N2548 C2544 1.427 . S
N2548 C2545 1.384 . S
N2549 C2541 1.427 . S
N2549 C2547 1.384 . S
H2550 C2556 0.930 . S
H2551 C2560 0.930 . S
H2552 C2565 0.929 . S
H2553 C2563 0.929 . S
H2554 C2558 0.929 . S
H2555 C2564 0.929 . S
C2556 H2550 0.930 . S
C2556 C2557 1.367 . S
C2556 C2564 1.378 . S
C2557 C2556 1.367 . S
C2557 C2565 1.433 . S
C2558 H2554 0.929 . S
C2558 C2560 1.378 . S
C2558 C2562 1.350 . S
C2559 C2562 1.463 . S
C2559 C2564 1.350 . S
C2559 N2567 1.427 . S
C2560 H2551 0.930 . S
C2560 C2558 1.378 . S
C2560 C2561 1.367 . S
C2561 C2560 1.367 . S
C2561 C2563 1.433 . S
C2562 C2558 1.350 . S
C2562 C2559 1.463 . S
C2562 N2566 1.427 . S
C2563 H2553 0.929 . S
C2563 C2561 1.433 . S
C2563 N2566 1.384 . S
C2564 H2555 0.929 . S
C2564 C2556 1.378 . S
C2564 C2559 1.350 . S
C2565 H2552 0.929 . S
C2565 C2557 1.433 . S
C2565 N2567 1.384 . S
N2566 C2562 1.427 . S
N2566 C2563 1.384 . S
N2567 C2559 1.427 . S
N2567 C2565 1.384 . S
H2568 C2574 0.930 . S
H2569 C2578 0.930 . S
H2570 C2583 0.929 . S
H2571 C2581 0.929 . S
H2572 C2576 0.929 . S
H2573 C2582 0.929 . S
C2574 H2568 0.930 . S
C2574 C2575 1.367 . S
C2574 C2582 1.378 . S
C2575 C2574 1.367 . S
C2575 C2583 1.433 . S
C2576 H2572 0.929 . S
C2576 C2578 1.378 . S
C2576 C2580 1.350 . S
C2577 C2580 1.463 . S
C2577 C2582 1.350 . S
C2577 N2585 1.427 . S
C2578 H2569 0.930 . S
C2578 C2576 1.378 . S
C2578 C2579 1.367 . S
C2579 C2578 1.367 . S
C2579 C2581 1.433 . S
C2580 C2576 1.350 . S
C2580 C2577 1.463 . S
C2580 N2584 1.427 . S
C2581 H2571 0.929 . S
C2581 C2579 1.433 . S
C2581 N2584 1.384 . S
C2582 H2573 0.929 . S
C2582 C2574 1.378 . S
C2582 C2577 1.350 . S
C2583 H2570 0.929 . S
C2583 C2575 1.433 . S
C2583 N2585 1.384 . S
N2584 C2580 1.427 . S
N2584 C2581 1.384 . S
N2585 C2577 1.427 . S
N2585 C2583 1.384 . S
H2586 C2592 0.930 . S
H2587 C2596 0.930 . S
H2588 C2601 0.929 . S
H2589 C2599 0.929 . S
H2590 C2594 0.929 . S
H2591 C2600 0.929 . S
C2592 H2586 0.930 . S
C2592 C2593 1.367 . S
C2592 C2600 1.378 . S
C2593 C2592 1.367 . S
C2593 C2601 1.433 . S
C2594 H2590 0.929 . S
C2594 C2596 1.378 . S
C2594 C2598 1.350 . S
C2595 C2598 1.463 . S
C2595 C2600 1.350 . S
C2595 N2603 1.427 . S
C2596 H2587 0.930 . S
C2596 C2594 1.378 . S
C2596 C2597 1.367 . S
C2597 C2596 1.367 . S
C2597 C2599 1.433 . S
C2598 C2594 1.350 . S
C2598 C2595 1.463 . S
C2598 N2602 1.427 . S
C2599 H2589 0.929 . S
C2599 C2597 1.433 . S
C2599 N2602 1.384 . S
C2600 H2591 0.929 . S
C2600 C2592 1.378 . S
C2600 C2595 1.350 . S
C2601 H2588 0.929 . S
C2601 C2593 1.433 . S
C2601 N2603 1.384 . S
N2602 C2598 1.427 . S
N2602 C2599 1.384 . S
N2603 C2595 1.427 . S
N2603 C2601 1.384 . S
H2604 C2610 0.930 . S
H2605 C2614 0.930 . S
H2606 C2619 0.929 . S
H2607 C2617 0.929 . S
H2608 C2612 0.929 . S
H2609 C2618 0.929 . S
C2610 H2604 0.930 . S
C2610 C2611 1.367 . S
C2610 C2618 1.378 . S
C2611 C2610 1.367 . S
C2611 C2619 1.433 . S
C2612 H2608 0.929 . S
C2612 C2614 1.378 . S
C2612 C2616 1.350 . S
C2613 C2616 1.463 . S
C2613 C2618 1.350 . S
C2613 N2621 1.427 . S
C2614 H2605 0.930 . S
C2614 C2612 1.378 . S
C2614 C2615 1.367 . S
C2615 C2614 1.367 . S
C2615 C2617 1.433 . S
C2616 C2612 1.350 . S
C2616 C2613 1.463 . S
C2616 N2620 1.427 . S
C2617 H2607 0.929 . S
C2617 C2615 1.433 . S
C2617 N2620 1.384 . S
C2618 H2609 0.929 . S
C2618 C2610 1.378 . S
C2618 C2613 1.350 . S
C2619 H2606 0.929 . S
C2619 C2611 1.433 . S
C2619 N2621 1.384 . S
N2620 C2616 1.427 . S
N2620 C2617 1.384 . S
N2621 C2613 1.427 . S
N2621 C2619 1.384 . S
H2622 C2628 0.930 . S
H2623 C2632 0.930 . S
H2624 C2637 0.929 . S
H2625 C2635 0.929 . S
H2626 C2630 0.929 . S
H2627 C2636 0.929 . S
C2628 H2622 0.930 . S
C2628 C2629 1.367 . S
C2628 C2636 1.378 . S
C2629 C2628 1.367 . S
C2629 C2637 1.433 . S
C2630 H2626 0.929 . S
C2630 C2632 1.378 . S
C2630 C2634 1.350 . S
C2631 C2634 1.463 . S
C2631 C2636 1.350 . S
C2631 N2639 1.427 . S
C2632 H2623 0.930 . S
C2632 C2630 1.378 . S
C2632 C2633 1.367 . S
C2633 C2632 1.367 . S
C2633 C2635 1.433 . S
C2634 C2630 1.350 . S
C2634 C2631 1.463 . S
C2634 N2638 1.427 . S
C2635 H2625 0.929 . S
C2635 C2633 1.433 . S
C2635 N2638 1.384 . S
C2636 H2627 0.929 . S
C2636 C2628 1.378 . S
C2636 C2631 1.350 . S
C2637 H2624 0.929 . S
C2637 C2629 1.433 . S
C2637 N2639 1.384 . S
N2638 C2634 1.427 . S
N2638 C2635 1.384 . S
N2639 C2631 1.427 . S
N2639 C2637 1.384 . S
H2640 C2646 0.930 . S
H2641 C2650 0.930 . S
H2642 C2655 0.929 . S
H2643 C2653 0.929 . S
H2644 C2648 0.929 . S
H2645 C2654 0.929 . S
C2646 H2640 0.930 . S
C2646 C2647 1.367 . S
C2646 C2654 1.378 . S
C2647 C2646 1.367 . S
C2647 C2655 1.433 . S
C2648 H2644 0.929 . S
C2648 C2650 1.378 . S
C2648 C2652 1.350 . S
C2649 C2652 1.463 . S
C2649 C2654 1.350 . S
C2649 N2657 1.427 . S
C2650 H2641 0.930 . S
C2650 C2648 1.378 . S
C2650 C2651 1.367 . S
C2651 C2650 1.367 . S
C2651 C2653 1.433 . S
C2652 C2648 1.350 . S
C2652 C2649 1.463 . S
C2652 N2656 1.427 . S
C2653 H2643 0.929 . S
C2653 C2651 1.433 . S
C2653 N2656 1.384 . S
C2654 H2645 0.929 . S
C2654 C2646 1.378 . S
C2654 C2649 1.350 . S
C2655 H2642 0.929 . S
C2655 C2647 1.433 . S
C2655 N2657 1.384 . S
N2656 C2652 1.427 . S
N2656 C2653 1.384 . S
N2657 C2649 1.427 . S
N2657 C2655 1.384 . S
H2658 C2664 0.930 . S
H2659 C2668 0.930 . S
H2660 C2673 0.929 . S
H2661 C2671 0.929 . S
H2662 C2666 0.929 . S
H2663 C2672 0.929 . S
C2664 H2658 0.930 . S
C2664 C2665 1.367 . S
C2664 C2672 1.378 . S
C2665 C2664 1.367 . S
C2665 C2673 1.433 . S
C2666 H2662 0.929 . S
C2666 C2668 1.378 . S
C2666 C2670 1.350 . S
C2667 C2670 1.463 . S
C2667 C2672 1.350 . S
C2667 N2675 1.427 . S
C2668 H2659 0.930 . S
C2668 C2666 1.378 . S
C2668 C2669 1.367 . S
C2669 C2668 1.367 . S
C2669 C2671 1.433 . S
C2670 C2666 1.350 . S
C2670 C2667 1.463 . S
C2670 N2674 1.427 . S
C2671 H2661 0.929 . S
C2671 C2669 1.433 . S
C2671 N2674 1.384 . S
C2672 H2663 0.929 . S
C2672 C2664 1.378 . S
C2672 C2667 1.350 . S
C2673 H2660 0.929 . S
C2673 C2665 1.433 . S
C2673 N2675 1.384 . S
N2674 C2670 1.427 . S
N2674 C2671 1.384 . S
N2675 C2667 1.427 . S
N2675 C2673 1.384 . S
H2676 C2682 0.930 . S
H2677 C2686 0.930 . S
H2678 C2691 0.929 . S
H2679 C2689 0.929 . S
H2680 C2684 0.929 . S
H2681 C2690 0.929 . S
C2682 H2676 0.930 . S
C2682 C2683 1.367 . S
C2682 C2690 1.378 . S
C2683 C2682 1.367 . S
C2683 C2691 1.433 . S
C2684 H2680 0.929 . S
C2684 C2686 1.378 . S
C2684 C2688 1.350 . S
C2685 C2688 1.463 . S
C2685 C2690 1.350 . S
C2685 N2693 1.427 . S
C2686 H2677 0.930 . S
C2686 C2684 1.378 . S
C2686 C2687 1.367 . S
C2687 C2686 1.367 . S
C2687 C2689 1.433 . S
C2688 C2684 1.350 . S
C2688 C2685 1.463 . S
C2688 N2692 1.427 . S
C2689 H2679 0.929 . S
C2689 C2687 1.433 . S
C2689 N2692 1.384 . S
C2690 H2681 0.929 . S
C2690 C2682 1.378 . S
C2690 C2685 1.350 . S
C2691 H2678 0.929 . S
C2691 C2683 1.433 . S
C2691 N2693 1.384 . S
N2692 C2688 1.427 . S
N2692 C2689 1.384 . S
N2693 C2685 1.427 . S
N2693 C2691 1.384 . S
H2694 C2700 0.930 . S
H2695 C2704 0.930 . S
H2696 C2709 0.929 . S
H2697 C2707 0.929 . S
H2698 C2702 0.929 . S
H2699 C2708 0.929 . S
C2700 H2694 0.930 . S
C2700 C2701 1.367 . S
C2700 C2708 1.378 . S
C2701 C2700 1.367 . S
C2701 C2709 1.433 . S
C2702 H2698 0.929 . S
C2702 C2704 1.378 . S
C2702 C2706 1.350 . S
C2703 C2706 1.463 . S
C2703 C2708 1.350 . S
C2703 N2711 1.427 . S
C2704 H2695 0.930 . S
C2704 C2702 1.378 . S
C2704 C2705 1.367 . S
C2705 C2704 1.367 . S
C2705 C2707 1.433 . S
C2706 C2702 1.350 . S
C2706 C2703 1.463 . S
C2706 N2710 1.427 . S
C2707 H2697 0.929 . S
C2707 C2705 1.433 . S
C2707 N2710 1.384 . S
C2708 H2699 0.929 . S
C2708 C2700 1.378 . S
C2708 C2703 1.350 . S
C2709 H2696 0.929 . S
C2709 C2701 1.433 . S
C2709 N2711 1.384 . S
N2710 C2706 1.427 . S
N2710 C2707 1.384 . S
N2711 C2703 1.427 . S
N2711 C2709 1.384 . S
H2712 C2718 0.930 . S
H2713 C2722 0.930 . S
H2714 C2727 0.929 . S
H2715 C2725 0.929 . S
H2716 C2720 0.929 . S
H2717 C2726 0.929 . S
C2718 H2712 0.930 . S
C2718 C2719 1.367 . S
C2718 C2726 1.378 . S
C2719 C2718 1.367 . S
C2719 C2727 1.433 . S
C2720 H2716 0.929 . S
C2720 C2722 1.378 . S
C2720 C2724 1.350 . S
C2721 C2724 1.463 . S
C2721 C2726 1.350 . S
C2721 N2729 1.427 . S
C2722 H2713 0.930 . S
C2722 C2720 1.378 . S
C2722 C2723 1.367 . S
C2723 C2722 1.367 . S
C2723 C2725 1.433 . S
C2724 C2720 1.350 . S
C2724 C2721 1.463 . S
C2724 N2728 1.427 . S
C2725 H2715 0.929 . S
C2725 C2723 1.433 . S
C2725 N2728 1.384 . S
C2726 H2717 0.929 . S
C2726 C2718 1.378 . S
C2726 C2721 1.350 . S
C2727 H2714 0.929 . S
C2727 C2719 1.433 . S
C2727 N2729 1.384 . S
N2728 C2724 1.427 . S
N2728 C2725 1.384 . S
N2729 C2721 1.427 . S
N2729 C2727 1.384 . S
H2730 C2736 0.930 . S
H2731 C2740 0.930 . S
H2732 C2745 0.929 . S
H2733 C2743 0.929 . S
H2734 C2738 0.929 . S
H2735 C2744 0.929 . S
C2736 H2730 0.930 . S
C2736 C2737 1.367 . S
C2736 C2744 1.378 . S
C2737 C2736 1.367 . S
C2737 C2745 1.433 . S
C2738 H2734 0.929 . S
C2738 C2740 1.378 . S
C2738 C2742 1.350 . S
C2739 C2742 1.463 . S
C2739 C2744 1.350 . S
C2739 N2747 1.427 . S
C2740 H2731 0.930 . S
C2740 C2738 1.378 . S
C2740 C2741 1.367 . S
C2741 C2740 1.367 . S
C2741 C2743 1.433 . S
C2742 C2738 1.350 . S
C2742 C2739 1.463 . S
C2742 N2746 1.427 . S
C2743 H2733 0.929 . S
C2743 C2741 1.433 . S
C2743 N2746 1.384 . S
C2744 H2735 0.929 . S
C2744 C2736 1.378 . S
C2744 C2739 1.350 . S
C2745 H2732 0.929 . S
C2745 C2737 1.433 . S
C2745 N2747 1.384 . S
N2746 C2742 1.427 . S
N2746 C2743 1.384 . S
N2747 C2739 1.427 . S
N2747 C2745 1.384 . S
H2748 C2754 0.930 . S
H2749 C2758 0.930 . S
H2750 C2763 0.929 . S
H2751 C2761 0.929 . S
H2752 C2756 0.929 . S
H2753 C2762 0.929 . S
C2754 H2748 0.930 . S
C2754 C2755 1.367 . S
C2754 C2762 1.378 . S
C2755 C2754 1.367 . S
C2755 C2763 1.433 . S
C2756 H2752 0.929 . S
C2756 C2758 1.378 . S
C2756 C2760 1.350 . S
C2757 C2760 1.463 . S
C2757 C2762 1.350 . S
C2757 N2765 1.427 . S
C2758 H2749 0.930 . S
C2758 C2756 1.378 . S
C2758 C2759 1.367 . S
C2759 C2758 1.367 . S
C2759 C2761 1.433 . S
C2760 C2756 1.350 . S
C2760 C2757 1.463 . S
C2760 N2764 1.427 . S
C2761 H2751 0.929 . S
C2761 C2759 1.433 . S
C2761 N2764 1.384 . S
C2762 H2753 0.929 . S
C2762 C2754 1.378 . S
C2762 C2757 1.350 . S
C2763 H2750 0.929 . S
C2763 C2755 1.433 . S
C2763 N2765 1.384 . S
N2764 C2760 1.427 . S
N2764 C2761 1.384 . S
N2765 C2757 1.427 . S
N2765 C2763 1.384 . S
H2766 C2772 0.930 . S
H2767 C2776 0.930 . S
H2768 C2781 0.929 . S
H2769 C2779 0.929 . S
H2770 C2774 0.929 . S
H2771 C2780 0.929 . S
C2772 H2766 0.930 . S
C2772 C2773 1.367 . S
C2772 C2780 1.378 . S
C2773 C2772 1.367 . S
C2773 C2781 1.433 . S
C2774 H2770 0.929 . S
C2774 C2776 1.378 . S
C2774 C2778 1.350 . S
C2775 C2778 1.463 . S
C2775 C2780 1.350 . S
C2775 N2783 1.427 . S
C2776 H2767 0.930 . S
C2776 C2774 1.378 . S
C2776 C2777 1.367 . S
C2777 C2776 1.367 . S
C2777 C2779 1.433 . S
C2778 C2774 1.350 . S
C2778 C2775 1.463 . S
C2778 N2782 1.427 . S
C2779 H2769 0.929 . S
C2779 C2777 1.433 . S
C2779 N2782 1.384 . S
C2780 H2771 0.929 . S
C2780 C2772 1.378 . S
C2780 C2775 1.350 . S
C2781 H2768 0.929 . S
C2781 C2773 1.433 . S
C2781 N2783 1.384 . S
N2782 C2778 1.427 . S
N2782 C2779 1.384 . S
N2783 C2775 1.427 . S
N2783 C2781 1.384 . S
H2784 C2790 0.930 . S
H2785 C2794 0.930 . S
H2786 C2799 0.929 . S
H2787 C2797 0.929 . S
H2788 C2792 0.929 . S
H2789 C2798 0.929 . S
C2790 H2784 0.930 . S
C2790 C2791 1.367 . S
C2790 C2798 1.378 . S
C2791 C2790 1.367 . S
C2791 C2799 1.433 . S
C2792 H2788 0.929 . S
C2792 C2794 1.378 . S
C2792 C2796 1.350 . S
C2793 C2796 1.463 . S
C2793 C2798 1.350 . S
C2793 N2801 1.427 . S
C2794 H2785 0.930 . S
C2794 C2792 1.378 . S
C2794 C2795 1.367 . S
C2795 C2794 1.367 . S
C2795 C2797 1.433 . S
C2796 C2792 1.350 . S
C2796 C2793 1.463 . S
C2796 N2800 1.427 . S
C2797 H2787 0.929 . S
C2797 C2795 1.433 . S
C2797 N2800 1.384 . S
C2798 H2789 0.929 . S
C2798 C2790 1.378 . S
C2798 C2793 1.350 . S
C2799 H2786 0.929 . S
C2799 C2791 1.433 . S
C2799 N2801 1.384 . S
N2800 C2796 1.427 . S
N2800 C2797 1.384 . S
N2801 C2793 1.427 . S
N2801 C2799 1.384 . S
H2802 C2808 0.930 . S
H2803 C2812 0.930 . S
H2804 C2817 0.929 . S
H2805 C2815 0.929 . S
H2806 C2810 0.929 . S
H2807 C2816 0.929 . S
C2808 H2802 0.930 . S
C2808 C2809 1.367 . S
C2808 C2816 1.378 . S
C2809 C2808 1.367 . S
C2809 C2817 1.433 . S
C2810 H2806 0.929 . S
C2810 C2812 1.378 . S
C2810 C2814 1.350 . S
C2811 C2814 1.463 . S
C2811 C2816 1.350 . S
C2811 N2819 1.427 . S
C2812 H2803 0.930 . S
C2812 C2810 1.378 . S
C2812 C2813 1.367 . S
C2813 C2812 1.367 . S
C2813 C2815 1.433 . S
C2814 C2810 1.350 . S
C2814 C2811 1.463 . S
C2814 N2818 1.427 . S
C2815 H2805 0.929 . S
C2815 C2813 1.433 . S
C2815 N2818 1.384 . S
C2816 H2807 0.929 . S
C2816 C2808 1.378 . S
C2816 C2811 1.350 . S
C2817 H2804 0.929 . S
C2817 C2809 1.433 . S
C2817 N2819 1.384 . S
N2818 C2814 1.427 . S
N2818 C2815 1.384 . S
N2819 C2811 1.427 . S
N2819 C2817 1.384 . S
H2820 C2826 0.930 . S
H2821 C2830 0.930 . S
H2822 C2835 0.929 . S
H2823 C2833 0.929 . S
H2824 C2828 0.929 . S
H2825 C2834 0.929 . S
C2826 H2820 0.930 . S
C2826 C2827 1.367 . S
C2826 C2834 1.378 . S
C2827 C2826 1.367 . S
C2827 C2835 1.433 . S
C2828 H2824 0.929 . S
C2828 C2830 1.378 . S
C2828 C2832 1.350 . S
C2829 C2832 1.463 . S
C2829 C2834 1.350 . S
C2829 N2837 1.427 . S
C2830 H2821 0.930 . S
C2830 C2828 1.378 . S
C2830 C2831 1.367 . S
C2831 C2830 1.367 . S
C2831 C2833 1.433 . S
C2832 C2828 1.350 . S
C2832 C2829 1.463 . S
C2832 N2836 1.427 . S
C2833 H2823 0.929 . S
C2833 C2831 1.433 . S
C2833 N2836 1.384 . S
C2834 H2825 0.929 . S
C2834 C2826 1.378 . S
C2834 C2829 1.350 . S
C2835 H2822 0.929 . S
C2835 C2827 1.433 . S
C2835 N2837 1.384 . S
N2836 C2832 1.427 . S
N2836 C2833 1.384 . S
N2837 C2829 1.427 . S
N2837 C2835 1.384 . S
H2838 C2844 0.930 . S
H2839 C2848 0.930 . S
H2840 C2853 0.929 . S
H2841 C2851 0.929 . S
H2842 C2846 0.929 . S
H2843 C2852 0.929 . S
C2844 H2838 0.930 . S
C2844 C2845 1.367 . S
C2844 C2852 1.378 . S
C2845 C2844 1.367 . S
C2845 C2853 1.433 . S
C2846 H2842 0.929 . S
C2846 C2848 1.378 . S
C2846 C2850 1.350 . S
C2847 C2850 1.463 . S
C2847 C2852 1.350 . S
C2847 N2855 1.427 . S
C2848 H2839 0.930 . S
C2848 C2846 1.378 . S
C2848 C2849 1.367 . S
C2849 C2848 1.367 . S
C2849 C2851 1.433 . S
C2850 C2846 1.350 . S
C2850 C2847 1.463 . S
C2850 N2854 1.427 . S
C2851 H2841 0.929 . S
C2851 C2849 1.433 . S
C2851 N2854 1.384 . S
C2852 H2843 0.929 . S
C2852 C2844 1.378 . S
C2852 C2847 1.350 . S
C2853 H2840 0.929 . S
C2853 C2845 1.433 . S
C2853 N2855 1.384 . S
N2854 C2850 1.427 . S
N2854 C2851 1.384 . S
N2855 C2847 1.427 . S
N2855 C2853 1.384 . S
H2856 C2862 0.930 . S
H2857 C2866 0.930 . S
H2858 C2871 0.929 . S
H2859 C2869 0.929 . S
H2860 C2864 0.929 . S
H2861 C2870 0.929 . S
C2862 H2856 0.930 . S
C2862 C2863 1.367 . S
C2862 C2870 1.378 . S
C2863 C2862 1.367 . S
C2863 C2871 1.433 . S
C2864 H2860 0.929 . S
C2864 C2866 1.378 . S
C2864 C2868 1.350 . S
C2865 C2868 1.463 . S
C2865 C2870 1.350 . S
C2865 N2873 1.427 . S
C2866 H2857 0.930 . S
C2866 C2864 1.378 . S
C2866 C2867 1.367 . S
C2867 C2866 1.367 . S
C2867 C2869 1.433 . S
C2868 C2864 1.350 . S
C2868 C2865 1.463 . S
C2868 N2872 1.427 . S
C2869 H2859 0.929 . S
C2869 C2867 1.433 . S
C2869 N2872 1.384 . S
C2870 H2861 0.929 . S
C2870 C2862 1.378 . S
C2870 C2865 1.350 . S
C2871 H2858 0.929 . S
C2871 C2863 1.433 . S
C2871 N2873 1.384 . S
N2872 C2868 1.427 . S
N2872 C2869 1.384 . S
N2873 C2865 1.427 . S
N2873 C2871 1.384 . S
H2874 C2880 0.930 . S
H2875 C2884 0.930 . S
H2876 C2889 0.929 . S
H2877 C2887 0.929 . S
H2878 C2882 0.929 . S
H2879 C2888 0.929 . S
C2880 H2874 0.930 . S
C2880 C2881 1.367 . S
C2880 C2888 1.378 . S
C2881 C2880 1.367 . S
C2881 C2889 1.433 . S
C2882 H2878 0.929 . S
C2882 C2884 1.378 . S
C2882 C2886 1.350 . S
C2883 C2886 1.463 . S
C2883 C2888 1.350 . S
C2883 N2891 1.427 . S
C2884 H2875 0.930 . S
C2884 C2882 1.378 . S
C2884 C2885 1.367 . S
C2885 C2884 1.367 . S
C2885 C2887 1.433 . S
C2886 C2882 1.350 . S
C2886 C2883 1.463 . S
C2886 N2890 1.427 . S
C2887 H2877 0.929 . S
C2887 C2885 1.433 . S
C2887 N2890 1.384 . S
C2888 H2879 0.929 . S
C2888 C2880 1.378 . S
C2888 C2883 1.350 . S
C2889 H2876 0.929 . S
C2889 C2881 1.433 . S
C2889 N2891 1.384 . S
N2890 C2886 1.427 . S
N2890 C2887 1.384 . S
N2891 C2883 1.427 . S
N2891 C2889 1.384 . S
H2892 C2898 0.930 . S
H2893 C2902 0.930 . S
H2894 C2907 0.929 . S
H2895 C2905 0.929 . S
H2896 C2900 0.929 . S
H2897 C2906 0.929 . S
C2898 H2892 0.930 . S
C2898 C2899 1.367 . S
C2898 C2906 1.378 . S
C2899 C2898 1.367 . S
C2899 C2907 1.433 . S
C2900 H2896 0.929 . S
C2900 C2902 1.378 . S
C2900 C2904 1.350 . S
C2901 C2904 1.463 . S
C2901 C2906 1.350 . S
C2901 N2909 1.427 . S
C2902 H2893 0.930 . S
C2902 C2900 1.378 . S
C2902 C2903 1.367 . S
C2903 C2902 1.367 . S
C2903 C2905 1.433 . S
C2904 C2900 1.350 . S
C2904 C2901 1.463 . S
C2904 N2908 1.427 . S
C2905 H2895 0.929 . S
C2905 C2903 1.433 . S
C2905 N2908 1.384 . S
C2906 H2897 0.929 . S
C2906 C2898 1.378 . S
C2906 C2901 1.350 . S
C2907 H2894 0.929 . S
C2907 C2899 1.433 . S
C2907 N2909 1.384 . S
N2908 C2904 1.427 . S
N2908 C2905 1.384 . S
N2909 C2901 1.427 . S
N2909 C2907 1.384 . S
H2910 C2916 0.930 . S
H2911 C2920 0.930 . S
H2912 C2925 0.929 . S
H2913 C2923 0.929 . S
H2914 C2918 0.929 . S
H2915 C2924 0.929 . S
C2916 H2910 0.930 . S
C2916 C2917 1.367 . S
C2916 C2924 1.378 . S
C2917 C2916 1.367 . S
C2917 C2925 1.433 . S
C2918 H2914 0.929 . S
C2918 C2920 1.378 . S
C2918 C2922 1.350 . S
C2919 C2922 1.463 . S
C2919 C2924 1.350 . S
C2919 N2927 1.427 . S
C2920 H2911 0.930 . S
C2920 C2918 1.378 . S
C2920 C2921 1.367 . S
C2921 C2920 1.367 . S
C2921 C2923 1.433 . S
C2922 C2918 1.350 . S
C2922 C2919 1.463 . S
C2922 N2926 1.427 . S
C2923 H2913 0.929 . S
C2923 C2921 1.433 . S
C2923 N2926 1.384 . S
C2924 H2915 0.929 . S
C2924 C2916 1.378 . S
C2924 C2919 1.350 . S
C2925 H2912 0.929 . S
C2925 C2917 1.433 . S
C2925 N2927 1.384 . S
N2926 C2922 1.427 . S
N2926 C2923 1.384 . S
N2927 C2919 1.427 . S
N2927 C2925 1.384 . S
H2928 C2934 0.930 . S
H2929 C2938 0.930 . S
H2930 C2943 0.929 . S
H2931 C2941 0.929 . S
H2932 C2936 0.929 . S
H2933 C2942 0.929 . S
C2934 H2928 0.930 . S
C2934 C2935 1.367 . S
C2934 C2942 1.378 . S
C2935 C2934 1.367 . S
C2935 C2943 1.433 . S
C2936 H2932 0.929 . S
C2936 C2938 1.378 . S
C2936 C2940 1.350 . S
C2937 C2940 1.463 . S
C2937 C2942 1.350 . S
C2937 N2945 1.427 . S
C2938 H2929 0.930 . S
C2938 C2936 1.378 . S
C2938 C2939 1.367 . S
C2939 C2938 1.367 . S
C2939 C2941 1.433 . S
C2940 C2936 1.350 . S
C2940 C2937 1.463 . S
C2940 N2944 1.427 . S
C2941 H2931 0.929 . S
C2941 C2939 1.433 . S
C2941 N2944 1.384 . S
C2942 H2933 0.929 . S
C2942 C2934 1.378 . S
C2942 C2937 1.350 . S
C2943 H2930 0.929 . S
C2943 C2935 1.433 . S
C2943 N2945 1.384 . S
N2944 C2940 1.427 . S
N2944 C2941 1.384 . S
N2945 C2937 1.427 . S
N2945 C2943 1.384 . S
H2946 C2952 0.930 . S
H2947 C2956 0.930 . S
H2948 C2961 0.929 . S
H2949 C2959 0.929 . S
H2950 C2954 0.929 . S
H2951 C2960 0.929 . S
C2952 H2946 0.930 . S
C2952 C2953 1.367 . S
C2952 C2960 1.378 . S
C2953 C2952 1.367 . S
C2953 C2961 1.433 . S
C2954 H2950 0.929 . S
C2954 C2956 1.378 . S
C2954 C2958 1.350 . S
C2955 C2958 1.463 . S
C2955 C2960 1.350 . S
C2955 N2963 1.427 . S
C2956 H2947 0.930 . S
C2956 C2954 1.378 . S
C2956 C2957 1.367 . S
C2957 C2956 1.367 . S
C2957 C2959 1.433 . S
C2958 C2954 1.350 . S
C2958 C2955 1.463 . S
C2958 N2962 1.427 . S
C2959 H2949 0.929 . S
C2959 C2957 1.433 . S
C2959 N2962 1.384 . S
C2960 H2951 0.929 . S
C2960 C2952 1.378 . S
C2960 C2955 1.350 . S
C2961 H2948 0.929 . S
C2961 C2953 1.433 . S
C2961 N2963 1.384 . S
N2962 C2958 1.427 . S
N2962 C2959 1.384 . S
N2963 C2955 1.427 . S
N2963 C2961 1.384 . S
H2964 C2970 0.930 . S
H2965 C2974 0.930 . S
H2966 C2979 0.929 . S
H2967 C2977 0.929 . S
H2968 C2972 0.929 . S
H2969 C2978 0.929 . S
C2970 H2964 0.930 . S
C2970 C2971 1.367 . S
C2970 C2978 1.378 . S
C2971 C2970 1.367 . S
C2971 C2979 1.433 . S
C2972 H2968 0.929 . S
C2972 C2974 1.378 . S
C2972 C2976 1.350 . S
C2973 C2976 1.463 . S
C2973 C2978 1.350 . S
C2973 N2981 1.427 . S
C2974 H2965 0.930 . S
C2974 C2972 1.378 . S
C2974 C2975 1.367 . S
C2975 C2974 1.367 . S
C2975 C2977 1.433 . S
C2976 C2972 1.350 . S
C2976 C2973 1.463 . S
C2976 N2980 1.427 . S
C2977 H2967 0.929 . S
C2977 C2975 1.433 . S
C2977 N2980 1.384 . S
C2978 H2969 0.929 . S
C2978 C2970 1.378 . S
C2978 C2973 1.350 . S
C2979 H2966 0.929 . S
C2979 C2971 1.433 . S
C2979 N2981 1.384 . S
N2980 C2976 1.427 . S
N2980 C2977 1.384 . S
N2981 C2973 1.427 . S
N2981 C2979 1.384 . S
H2982 C2988 0.930 . S
H2983 C2992 0.930 . S
H2984 C2997 0.929 . S
H2985 C2995 0.929 . S
H2986 C2990 0.929 . S
H2987 C2996 0.929 . S
C2988 H2982 0.930 . S
C2988 C2989 1.367 . S
C2988 C2996 1.378 . S
C2989 C2988 1.367 . S
C2989 C2997 1.433 . S
C2990 H2986 0.929 . S
C2990 C2992 1.378 . S
C2990 C2994 1.350 . S
C2991 C2994 1.463 . S
C2991 C2996 1.350 . S
C2991 N2999 1.427 . S
C2992 H2983 0.930 . S
C2992 C2990 1.378 . S
C2992 C2993 1.367 . S
C2993 C2992 1.367 . S
C2993 C2995 1.433 . S
C2994 C2990 1.350 . S
C2994 C2991 1.463 . S
C2994 N2998 1.427 . S
C2995 H2985 0.929 . S
C2995 C2993 1.433 . S
C2995 N2998 1.384 . S
C2996 H2987 0.929 . S
C2996 C2988 1.378 . S
C2996 C2991 1.350 . S
C2997 H2984 0.929 . S
C2997 C2989 1.433 . S
C2997 N2999 1.384 . S
N2998 C2994 1.427 . S
N2998 C2995 1.384 . S
N2999 C2991 1.427 . S
N2999 C2997 1.384 . S
H3000 C3006 0.930 . S
H3001 C3010 0.930 . S
H3002 C3015 0.929 . S
H3003 C3013 0.929 . S
H3004 C3008 0.929 . S
H3005 C3014 0.929 . S
C3006 H3000 0.930 . S
C3006 C3007 1.367 . S
C3006 C3014 1.378 . S
C3007 C3006 1.367 . S
C3007 C3015 1.433 . S
C3008 H3004 0.929 . S
C3008 C3010 1.378 . S
C3008 C3012 1.350 . S
C3009 C3012 1.463 . S
C3009 C3014 1.350 . S
C3009 N3017 1.427 . S
C3010 H3001 0.930 . S
C3010 C3008 1.378 . S
C3010 C3011 1.367 . S
C3011 C3010 1.367 . S
C3011 C3013 1.433 . S
C3012 C3008 1.350 . S
C3012 C3009 1.463 . S
C3012 N3016 1.427 . S
C3013 H3003 0.929 . S
C3013 C3011 1.433 . S
C3013 N3016 1.384 . S
C3014 H3005 0.929 . S
C3014 C3006 1.378 . S
C3014 C3009 1.350 . S
C3015 H3002 0.929 . S
C3015 C3007 1.433 . S
C3015 N3017 1.384 . S
N3016 C3012 1.427 . S
N3016 C3013 1.384 . S
N3017 C3009 1.427 . S
N3017 C3015 1.384 . S
H3018 C3024 0.930 . S
H3019 C3028 0.930 . S
H3020 C3033 0.929 . S
H3021 C3031 0.929 . S
H3022 C3026 0.929 . S
H3023 C3032 0.929 . S
C3024 H3018 0.930 . S
C3024 C3025 1.367 . S
C3024 C3032 1.378 . S
C3025 C3024 1.367 . S
C3025 C3033 1.433 . S
C3026 H3022 0.929 . S
C3026 C3028 1.378 . S
C3026 C3030 1.350 . S
C3027 C3030 1.463 . S
C3027 C3032 1.350 . S
C3027 N3035 1.427 . S
C3028 H3019 0.930 . S
C3028 C3026 1.378 . S
C3028 C3029 1.367 . S
C3029 C3028 1.367 . S
C3029 C3031 1.433 . S
C3030 C3026 1.350 . S
C3030 C3027 1.463 . S
C3030 N3034 1.427 . S
C3031 H3021 0.929 . S
C3031 C3029 1.433 . S
C3031 N3034 1.384 . S
C3032 H3023 0.929 . S
C3032 C3024 1.378 . S
C3032 C3027 1.350 . S
C3033 H3020 0.929 . S
C3033 C3025 1.433 . S
C3033 N3035 1.384 . S
N3034 C3030 1.427 . S
N3034 C3031 1.384 . S
N3035 C3027 1.427 . S
N3035 C3033 1.384 . S
H3036 C3042 0.930 . S
H3037 C3046 0.930 . S
H3038 C3051 0.929 . S
H3039 C3049 0.929 . S
H3040 C3044 0.929 . S
H3041 C3050 0.929 . S
C3042 H3036 0.930 . S
C3042 C3043 1.367 . S
C3042 C3050 1.378 . S
C3043 C3042 1.367 . S
C3043 C3051 1.433 . S
C3044 H3040 0.929 . S
C3044 C3046 1.378 . S
C3044 C3048 1.350 . S
C3045 C3048 1.463 . S
C3045 C3050 1.350 . S
C3045 N3053 1.427 . S
C3046 H3037 0.930 . S
C3046 C3044 1.378 . S
C3046 C3047 1.367 . S
C3047 C3046 1.367 . S
C3047 C3049 1.433 . S
C3048 C3044 1.350 . S
C3048 C3045 1.463 . S
C3048 N3052 1.427 . S
C3049 H3039 0.929 . S
C3049 C3047 1.433 . S
C3049 N3052 1.384 . S
C3050 H3041 0.929 . S
C3050 C3042 1.378 . S
C3050 C3045 1.350 . S
C3051 H3038 0.929 . S
C3051 C3043 1.433 . S
C3051 N3053 1.384 . S
N3052 C3048 1.427 . S
N3052 C3049 1.384 . S
N3053 C3045 1.427 . S
N3053 C3051 1.384 . S
H3054 C3060 0.930 . S
H3055 C3064 0.930 . S
H3056 C3069 0.929 . S
H3057 C3067 0.929 . S
H3058 C3062 0.929 . S
H3059 C3068 0.929 . S
C3060 H3054 0.930 . S
C3060 C3061 1.367 . S
C3060 C3068 1.378 . S
C3061 C3060 1.367 . S
C3061 C3069 1.433 . S
C3062 H3058 0.929 . S
C3062 C3064 1.378 . S
C3062 C3066 1.350 . S
C3063 C3066 1.463 . S
C3063 C3068 1.350 . S
C3063 N3071 1.427 . S
C3064 H3055 0.930 . S
C3064 C3062 1.378 . S
C3064 C3065 1.367 . S
C3065 C3064 1.367 . S
C3065 C3067 1.433 . S
C3066 C3062 1.350 . S
C3066 C3063 1.463 . S
C3066 N3070 1.427 . S
C3067 H3057 0.929 . S
C3067 C3065 1.433 . S
C3067 N3070 1.384 . S
C3068 H3059 0.929 . S
C3068 C3060 1.378 . S
C3068 C3063 1.350 . S
C3069 H3056 0.929 . S
C3069 C3061 1.433 . S
C3069 N3071 1.384 . S
N3070 C3066 1.427 . S
N3070 C3067 1.384 . S
N3071 C3063 1.427 . S
N3071 C3069 1.384 . S
H3072 C3078 0.930 . S
H3073 C3082 0.930 . S
H3074 C3087 0.929 . S
H3075 C3085 0.929 . S
H3076 C3080 0.929 . S
H3077 C3086 0.929 . S
C3078 H3072 0.930 . S
C3078 C3079 1.367 . S
C3078 C3086 1.378 . S
C3079 C3078 1.367 . S
C3079 C3087 1.433 . S
C3080 H3076 0.929 . S
C3080 C3082 1.378 . S
C3080 C3084 1.350 . S
C3081 C3084 1.463 . S
C3081 C3086 1.350 . S
C3081 N3089 1.427 . S
C3082 H3073 0.930 . S
C3082 C3080 1.378 . S
C3082 C3083 1.367 . S
C3083 C3082 1.367 . S
C3083 C3085 1.433 . S
C3084 C3080 1.350 . S
C3084 C3081 1.463 . S
C3084 N3088 1.427 . S
C3085 H3075 0.929 . S
C3085 C3083 1.433 . S
C3085 N3088 1.384 . S
C3086 H3077 0.929 . S
C3086 C3078 1.378 . S
C3086 C3081 1.350 . S
C3087 H3074 0.929 . S
C3087 C3079 1.433 . S
C3087 N3089 1.384 . S
N3088 C3084 1.427 . S
N3088 C3085 1.384 . S
N3089 C3081 1.427 . S
N3089 C3087 1.384 . S
H3090 C3096 0.930 . S
H3091 C3100 0.930 . S
H3092 C3105 0.929 . S
H3093 C3103 0.929 . S
H3094 C3098 0.929 . S
H3095 C3104 0.929 . S
C3096 H3090 0.930 . S
C3096 C3097 1.367 . S
C3096 C3104 1.378 . S
C3097 C3096 1.367 . S
C3097 C3105 1.433 . S
C3098 H3094 0.929 . S
C3098 C3100 1.378 . S
C3098 C3102 1.350 . S
C3099 C3102 1.463 . S
C3099 C3104 1.350 . S
C3099 N3107 1.427 . S
C3100 H3091 0.930 . S
C3100 C3098 1.378 . S
C3100 C3101 1.367 . S
C3101 C3100 1.367 . S
C3101 C3103 1.433 . S
C3102 C3098 1.350 . S
C3102 C3099 1.463 . S
C3102 N3106 1.427 . S
C3103 H3093 0.929 . S
C3103 C3101 1.433 . S
C3103 N3106 1.384 . S
C3104 H3095 0.929 . S
C3104 C3096 1.378 . S
C3104 C3099 1.350 . S
C3105 H3092 0.929 . S
C3105 C3097 1.433 . S
C3105 N3107 1.384 . S
N3106 C3102 1.427 . S
N3106 C3103 1.384 . S
N3107 C3099 1.427 . S
N3107 C3105 1.384 . S
H3108 C3114 0.930 . S
H3109 C3118 0.930 . S
H3110 C3123 0.929 . S
H3111 C3121 0.929 . S
H3112 C3116 0.929 . S
H3113 C3122 0.929 . S
C3114 H3108 0.930 . S
C3114 C3115 1.367 . S
C3114 C3122 1.378 . S
C3115 C3114 1.367 . S
C3115 C3123 1.433 . S
C3116 H3112 0.929 . S
C3116 C3118 1.378 . S
C3116 C3120 1.350 . S
C3117 C3120 1.463 . S
C3117 C3122 1.350 . S
C3117 N3125 1.427 . S
C3118 H3109 0.930 . S
C3118 C3116 1.378 . S
C3118 C3119 1.367 . S
C3119 C3118 1.367 . S
C3119 C3121 1.433 . S
C3120 C3116 1.350 . S
C3120 C3117 1.463 . S
C3120 N3124 1.427 . S
C3121 H3111 0.929 . S
C3121 C3119 1.433 . S
C3121 N3124 1.384 . S
C3122 H3113 0.929 . S
C3122 C3114 1.378 . S
C3122 C3117 1.350 . S
C3123 H3110 0.929 . S
C3123 C3115 1.433 . S
C3123 N3125 1.384 . S
N3124 C3120 1.427 . S
N3124 C3121 1.384 . S
N3125 C3117 1.427 . S
N3125 C3123 1.384 . S
H3126 C3132 0.930 . S
H3127 C3136 0.930 . S
H3128 C3141 0.929 . S
H3129 C3139 0.929 . S
H3130 C3134 0.929 . S
H3131 C3140 0.929 . S
C3132 H3126 0.930 . S
C3132 C3133 1.367 . S
C3132 C3140 1.378 . S
C3133 C3132 1.367 . S
C3133 C3141 1.433 . S
C3134 H3130 0.929 . S
C3134 C3136 1.378 . S
C3134 C3138 1.350 . S
C3135 C3138 1.463 . S
C3135 C3140 1.350 . S
C3135 N3143 1.427 . S
C3136 H3127 0.930 . S
C3136 C3134 1.378 . S
C3136 C3137 1.367 . S
C3137 C3136 1.367 . S
C3137 C3139 1.433 . S
C3138 C3134 1.350 . S
C3138 C3135 1.463 . S
C3138 N3142 1.427 . S
C3139 H3129 0.929 . S
C3139 C3137 1.433 . S
C3139 N3142 1.384 . S
C3140 H3131 0.929 . S
C3140 C3132 1.378 . S
C3140 C3135 1.350 . S
C3141 H3128 0.929 . S
C3141 C3133 1.433 . S
C3141 N3143 1.384 . S
N3142 C3138 1.427 . S
N3142 C3139 1.384 . S
N3143 C3135 1.427 . S
N3143 C3141 1.384 . S
H3144 C3150 0.930 . S
H3145 C3154 0.930 . S
H3146 C3159 0.929 . S
H3147 C3157 0.929 . S
H3148 C3152 0.929 . S
H3149 C3158 0.929 . S
C3150 H3144 0.930 . S
C3150 C3151 1.367 . S
C3150 C3158 1.378 . S
C3151 C3150 1.367 . S
C3151 C3159 1.433 . S
C3152 H3148 0.929 . S
C3152 C3154 1.378 . S
C3152 C3156 1.350 . S
C3153 C3156 1.463 . S
C3153 C3158 1.350 . S
C3153 N3161 1.427 . S
C3154 H3145 0.930 . S
C3154 C3152 1.378 . S
C3154 C3155 1.367 . S
C3155 C3154 1.367 . S
C3155 C3157 1.433 . S
C3156 C3152 1.350 . S
C3156 C3153 1.463 . S
C3156 N3160 1.427 . S
C3157 H3147 0.929 . S
C3157 C3155 1.433 . S
C3157 N3160 1.384 . S
C3158 H3149 0.929 . S
C3158 C3150 1.378 . S
C3158 C3153 1.350 . S
C3159 H3146 0.929 . S
C3159 C3151 1.433 . S
C3159 N3161 1.384 . S
N3160 C3156 1.427 . S
N3160 C3157 1.384 . S
N3161 C3153 1.427 . S
N3161 C3159 1.384 . S
H3162 C3168 0.930 . S
H3163 C3172 0.930 . S
H3164 C3177 0.929 . S
H3165 C3175 0.929 . S
H3166 C3170 0.929 . S
H3167 C3176 0.929 . S
C3168 H3162 0.930 . S
C3168 C3169 1.367 . S
C3168 C3176 1.378 . S
C3169 C3168 1.367 . S
C3169 C3177 1.433 . S
C3170 H3166 0.929 . S
C3170 C3172 1.378 . S
C3170 C3174 1.350 . S
C3171 C3174 1.463 . S
C3171 C3176 1.350 . S
C3171 N3179 1.427 . S
C3172 H3163 0.930 . S
C3172 C3170 1.378 . S
C3172 C3173 1.367 . S
C3173 C3172 1.367 . S
C3173 C3175 1.433 . S
C3174 C3170 1.350 . S
C3174 C3171 1.463 . S
C3174 N3178 1.427 . S
C3175 H3165 0.929 . S
C3175 C3173 1.433 . S
C3175 N3178 1.384 . S
C3176 H3167 0.929 . S
C3176 C3168 1.378 . S
C3176 C3171 1.350 . S
C3177 H3164 0.929 . S
C3177 C3169 1.433 . S
C3177 N3179 1.384 . S
N3178 C3174 1.427 . S
N3178 C3175 1.384 . S
N3179 C3171 1.427 . S
N3179 C3177 1.384 . S
H3180 C3186 0.930 . S
H3181 C3190 0.930 . S
H3182 C3195 0.929 . S
H3183 C3193 0.929 . S
H3184 C3188 0.929 . S
H3185 C3194 0.929 . S
C3186 H3180 0.930 . S
C3186 C3187 1.367 . S
C3186 C3194 1.378 . S
C3187 C3186 1.367 . S
C3187 C3195 1.433 . S
C3188 H3184 0.929 . S
C3188 C3190 1.378 . S
C3188 C3192 1.350 . S
C3189 C3192 1.463 . S
C3189 C3194 1.350 . S
C3189 N3197 1.427 . S
C3190 H3181 0.930 . S
C3190 C3188 1.378 . S
C3190 C3191 1.367 . S
C3191 C3190 1.367 . S
C3191 C3193 1.433 . S
C3192 C3188 1.350 . S
C3192 C3189 1.463 . S
C3192 N3196 1.427 . S
C3193 H3183 0.929 . S
C3193 C3191 1.433 . S
C3193 N3196 1.384 . S
C3194 H3185 0.929 . S
C3194 C3186 1.378 . S
C3194 C3189 1.350 . S
C3195 H3182 0.929 . S
C3195 C3187 1.433 . S
C3195 N3197 1.384 . S
N3196 C3192 1.427 . S
N3196 C3193 1.384 . S
N3197 C3189 1.427 . S
N3197 C3195 1.384 . S
H3198 C3204 0.930 . S
H3199 C3208 0.930 . S
H3200 C3213 0.929 . S
H3201 C3211 0.929 . S
H3202 C3206 0.929 . S
H3203 C3212 0.929 . S
C3204 H3198 0.930 . S
C3204 C3205 1.367 . S
C3204 C3212 1.378 . S
C3205 C3204 1.367 . S
C3205 C3213 1.433 . S
C3206 H3202 0.929 . S
C3206 C3208 1.378 . S
C3206 C3210 1.350 . S
C3207 C3210 1.463 . S
C3207 C3212 1.350 . S
C3207 N3215 1.427 . S
C3208 H3199 0.930 . S
C3208 C3206 1.378 . S
C3208 C3209 1.367 . S
C3209 C3208 1.367 . S
C3209 C3211 1.433 . S
C3210 C3206 1.350 . S
C3210 C3207 1.463 . S
C3210 N3214 1.427 . S
C3211 H3201 0.929 . S
C3211 C3209 1.433 . S
C3211 N3214 1.384 . S
C3212 H3203 0.929 . S
C3212 C3204 1.378 . S
C3212 C3207 1.350 . S
C3213 H3200 0.929 . S
C3213 C3205 1.433 . S
C3213 N3215 1.384 . S
N3214 C3210 1.427 . S
N3214 C3211 1.384 . S
N3215 C3207 1.427 . S
N3215 C3213 1.384 . S
H3216 C3222 0.930 . S
H3217 C3226 0.930 . S
H3218 C3231 0.929 . S
H3219 C3229 0.929 . S
H3220 C3224 0.929 . S
H3221 C3230 0.929 . S
C3222 H3216 0.930 . S
C3222 C3223 1.367 . S
C3222 C3230 1.378 . S
C3223 C3222 1.367 . S
C3223 C3231 1.433 . S
C3224 H3220 0.929 . S
C3224 C3226 1.378 . S
C3224 C3228 1.350 . S
C3225 C3228 1.463 . S
C3225 C3230 1.350 . S
C3225 N3233 1.427 . S
C3226 H3217 0.930 . S
C3226 C3224 1.378 . S
C3226 C3227 1.367 . S
C3227 C3226 1.367 . S
C3227 C3229 1.433 . S
C3228 C3224 1.350 . S
C3228 C3225 1.463 . S
C3228 N3232 1.427 . S
C3229 H3219 0.929 . S
C3229 C3227 1.433 . S
C3229 N3232 1.384 . S
C3230 H3221 0.929 . S
C3230 C3222 1.378 . S
C3230 C3225 1.350 . S
C3231 H3218 0.929 . S
C3231 C3223 1.433 . S
C3231 N3233 1.384 . S
N3232 C3228 1.427 . S
N3232 C3229 1.384 . S
N3233 C3225 1.427 . S
N3233 C3231 1.384 . S
H3234 C3240 0.930 . S
H3235 C3244 0.930 . S
H3236 C3249 0.929 . S
H3237 C3247 0.929 . S
H3238 C3242 0.929 . S
H3239 C3248 0.929 . S
C3240 H3234 0.930 . S
C3240 C3241 1.367 . S
C3240 C3248 1.378 . S
C3241 C3240 1.367 . S
C3241 C3249 1.433 . S
C3242 H3238 0.929 . S
C3242 C3244 1.378 . S
C3242 C3246 1.350 . S
C3243 C3246 1.463 . S
C3243 C3248 1.350 . S
C3243 N3251 1.427 . S
C3244 H3235 0.930 . S
C3244 C3242 1.378 . S
C3244 C3245 1.367 . S
C3245 C3244 1.367 . S
C3245 C3247 1.433 . S
C3246 C3242 1.350 . S
C3246 C3243 1.463 . S
C3246 N3250 1.427 . S
C3247 H3237 0.929 . S
C3247 C3245 1.433 . S
C3247 N3250 1.384 . S
C3248 H3239 0.929 . S
C3248 C3240 1.378 . S
C3248 C3243 1.350 . S
C3249 H3236 0.929 . S
C3249 C3241 1.433 . S
C3249 N3251 1.384 . S
N3250 C3246 1.427 . S
N3250 C3247 1.384 . S
N3251 C3243 1.427 . S
N3251 C3249 1.384 . S
H3252 C3258 0.930 . S
H3253 C3262 0.930 . S
H3254 C3267 0.929 . S
H3255 C3265 0.929 . S
H3256 C3260 0.929 . S
H3257 C3266 0.929 . S
C3258 H3252 0.930 . S
C3258 C3259 1.367 . S
C3258 C3266 1.378 . S
C3259 C3258 1.367 . S
C3259 C3267 1.433 . S
C3260 H3256 0.929 . S
C3260 C3262 1.378 . S
C3260 C3264 1.350 . S
C3261 C3264 1.463 . S
C3261 C3266 1.350 . S
C3261 N3269 1.427 . S
C3262 H3253 0.930 . S
C3262 C3260 1.378 . S
C3262 C3263 1.367 . S
C3263 C3262 1.367 . S
C3263 C3265 1.433 . S
C3264 C3260 1.350 . S
C3264 C3261 1.463 . S
C3264 N3268 1.427 . S
C3265 H3255 0.929 . S
C3265 C3263 1.433 . S
C3265 N3268 1.384 . S
C3266 H3257 0.929 . S
C3266 C3258 1.378 . S
C3266 C3261 1.350 . S
C3267 H3254 0.929 . S
C3267 C3259 1.433 . S
C3267 N3269 1.384 . S
N3268 C3264 1.427 . S
N3268 C3265 1.384 . S
N3269 C3261 1.427 . S
N3269 C3267 1.384 . S
H3270 C3276 0.930 . S
H3271 C3280 0.930 . S
H3272 C3285 0.929 . S
H3273 C3283 0.929 . S
H3274 C3278 0.929 . S
H3275 C3284 0.929 . S
C3276 H3270 0.930 . S
C3276 C3277 1.367 . S
C3276 C3284 1.378 . S
C3277 C3276 1.367 . S
C3277 C3285 1.433 . S
C3278 H3274 0.929 . S
C3278 C3280 1.378 . S
C3278 C3282 1.350 . S
C3279 C3282 1.463 . S
C3279 C3284 1.350 . S
C3279 N3287 1.427 . S
C3280 H3271 0.930 . S
C3280 C3278 1.378 . S
C3280 C3281 1.367 . S
C3281 C3280 1.367 . S
C3281 C3283 1.433 . S
C3282 C3278 1.350 . S
C3282 C3279 1.463 . S
C3282 N3286 1.427 . S
C3283 H3273 0.929 . S
C3283 C3281 1.433 . S
C3283 N3286 1.384 . S
C3284 H3275 0.929 . S
C3284 C3276 1.378 . S
C3284 C3279 1.350 . S
C3285 H3272 0.929 . S
C3285 C3277 1.433 . S
C3285 N3287 1.384 . S
N3286 C3282 1.427 . S
N3286 C3283 1.384 . S
N3287 C3279 1.427 . S
N3287 C3285 1.384 . S
H3288 C3294 0.930 . S
H3289 C3298 0.930 . S
H3290 C3303 0.929 . S
H3291 C3301 0.929 . S
H3292 C3296 0.929 . S
H3293 C3302 0.929 . S
C3294 H3288 0.930 . S
C3294 C3295 1.367 . S
C3294 C3302 1.378 . S
C3295 C3294 1.367 . S
C3295 C3303 1.433 . S
C3296 H3292 0.929 . S
C3296 C3298 1.378 . S
C3296 C3300 1.350 . S
C3297 C3300 1.463 . S
C3297 C3302 1.350 . S
C3297 N3305 1.427 . S
C3298 H3289 0.930 . S
C3298 C3296 1.378 . S
C3298 C3299 1.367 . S
C3299 C3298 1.367 . S
C3299 C3301 1.433 . S
C3300 C3296 1.350 . S
C3300 C3297 1.463 . S
C3300 N3304 1.427 . S
C3301 H3291 0.929 . S
C3301 C3299 1.433 . S
C3301 N3304 1.384 . S
C3302 H3293 0.929 . S
C3302 C3294 1.378 . S
C3302 C3297 1.350 . S
C3303 H3290 0.929 . S
C3303 C3295 1.433 . S
C3303 N3305 1.384 . S
N3304 C3300 1.427 . S
N3304 C3301 1.384 . S
N3305 C3297 1.427 . S
N3305 C3303 1.384 . S
H3306 C3312 0.930 . S
H3307 C3316 0.930 . S
H3308 C3321 0.929 . S
H3309 C3319 0.929 . S
H3310 C3314 0.929 . S
H3311 C3320 0.929 . S
C3312 H3306 0.930 . S
C3312 C3313 1.367 . S
C3312 C3320 1.378 . S
C3313 C3312 1.367 . S
C3313 C3321 1.433 . S
C3314 H3310 0.929 . S
C3314 C3316 1.378 . S
C3314 C3318 1.350 . S
C3315 C3318 1.463 . S
C3315 C3320 1.350 . S
C3315 N3323 1.427 . S
C3316 H3307 0.930 . S
C3316 C3314 1.378 . S
C3316 C3317 1.367 . S
C3317 C3316 1.367 . S
C3317 C3319 1.433 . S
C3318 C3314 1.350 . S
C3318 C3315 1.463 . S
C3318 N3322 1.427 . S
C3319 H3309 0.929 . S
C3319 C3317 1.433 . S
C3319 N3322 1.384 . S
C3320 H3311 0.929 . S
C3320 C3312 1.378 . S
C3320 C3315 1.350 . S
C3321 H3308 0.929 . S
C3321 C3313 1.433 . S
C3321 N3323 1.384 . S
N3322 C3318 1.427 . S
N3322 C3319 1.384 . S
N3323 C3315 1.427 . S
N3323 C3321 1.384 . S
H3324 C3330 0.930 . S
H3325 C3334 0.930 . S
H3326 C3339 0.929 . S
H3327 C3337 0.929 . S
H3328 C3332 0.929 . S
H3329 C3338 0.929 . S
C3330 H3324 0.930 . S
C3330 C3331 1.367 . S
C3330 C3338 1.378 . S
C3331 C3330 1.367 . S
C3331 C3339 1.433 . S
C3332 H3328 0.929 . S
C3332 C3334 1.378 . S
C3332 C3336 1.350 . S
C3333 C3336 1.463 . S
C3333 C3338 1.350 . S
C3333 N3341 1.427 . S
C3334 H3325 0.930 . S
C3334 C3332 1.378 . S
C3334 C3335 1.367 . S
C3335 C3334 1.367 . S
C3335 C3337 1.433 . S
C3336 C3332 1.350 . S
C3336 C3333 1.463 . S
C3336 N3340 1.427 . S
C3337 H3327 0.929 . S
C3337 C3335 1.433 . S
C3337 N3340 1.384 . S
C3338 H3329 0.929 . S
C3338 C3330 1.378 . S
C3338 C3333 1.350 . S
C3339 H3326 0.929 . S
C3339 C3331 1.433 . S
C3339 N3341 1.384 . S
N3340 C3336 1.427 . S
N3340 C3337 1.384 . S
N3341 C3333 1.427 . S
N3341 C3339 1.384 . S
H3342 C3348 0.930 . S
H3343 C3352 0.930 . S
H3344 C3357 0.929 . S
H3345 C3355 0.929 . S
H3346 C3350 0.929 . S
H3347 C3356 0.929 . S
C3348 H3342 0.930 . S
C3348 C3349 1.367 . S
C3348 C3356 1.378 . S
C3349 C3348 1.367 . S
C3349 C3357 1.433 . S
C3350 H3346 0.929 . S
C3350 C3352 1.378 . S
C3350 C3354 1.350 . S
C3351 C3354 1.463 . S
C3351 C3356 1.350 . S
C3351 N3359 1.427 . S
C3352 H3343 0.930 . S
C3352 C3350 1.378 . S
C3352 C3353 1.367 . S
C3353 C3352 1.367 . S
C3353 C3355 1.433 . S
C3354 C3350 1.350 . S
C3354 C3351 1.463 . S
C3354 N3358 1.427 . S
C3355 H3345 0.929 . S
C3355 C3353 1.433 . S
C3355 N3358 1.384 . S
C3356 H3347 0.929 . S
C3356 C3348 1.378 . S
C3356 C3351 1.350 . S
C3357 H3344 0.929 . S
C3357 C3349 1.433 . S
C3357 N3359 1.384 . S
N3358 C3354 1.427 . S
N3358 C3355 1.384 . S
N3359 C3351 1.427 . S
N3359 C3357 1.384 . S
H3360 C3366 0.930 . S
H3361 C3370 0.930 . S
H3362 C3375 0.929 . S
H3363 C3373 0.896 1_655 S
H3364 C3368 0.929 . S
H3365 C3374 0.929 . S
C3366 H3360 0.930 . S
C3366 C3367 1.367 1_655 S
C3366 C3374 1.378 . S
C3367 C3366 1.367 1_455 S
C3367 C3375 1.433 . S
C3368 H3364 0.929 . S
C3368 C3370 1.378 . S
C3368 C3372 1.350 . S
C3369 C3372 1.463 . S
C3369 C3374 1.350 1_455 S
C3369 N3377 1.427 . S
C3370 H3361 0.930 . S
C3370 C3368 1.378 . S
C3370 C3371 1.367 . S
C3371 C3370 1.367 . S
C3371 C3373 1.433 . S
C3372 C3368 1.350 . S
C3372 C3369 1.463 . S
C3372 N3376 1.427 . S
C3373 H3363 0.896 1_455 S
C3373 C3371 1.433 . S
C3373 N3376 1.384 . S
C3374 H3365 0.929 . S
C3374 C3366 1.378 . S
C3374 C3369 1.350 1_655 S
C3375 H3362 0.929 . S
C3375 C3367 1.433 . S
C3375 N3377 1.384 . S
N3376 C3372 1.427 . S
N3376 C3373 1.384 . S
N3377 C3369 1.427 . S
N3377 C3375 1.384 . S
H3378 C3384 0.930 . S
H3379 C3388 0.930 . S
H3380 C3393 0.929 1_565 S
H3381 C3391 0.929 . S
H3382 C3386 0.929 . S
H3383 C3392 0.929 . S
C3384 H3378 0.930 . S
C3384 C3385 1.367 . S
C3384 C3392 1.378 . S
C3385 C3384 1.367 . S
C3385 C3393 1.433 . S
C3386 H3382 0.929 . S
C3386 C3388 1.378 . S
C3386 C3390 1.350 1_565 S
C3387 C3390 1.463 . S
C3387 C3392 1.350 . S
C3387 N3395 1.427 . S
C3388 H3379 0.930 . S
C3388 C3386 1.378 . S
C3388 C3389 1.367 1_565 S
C3389 C3388 1.367 1_545 S
C3389 C3391 1.433 . S
C3390 C3386 1.350 1_545 S
C3390 C3387 1.463 . S
C3390 N3394 1.427 . S
C3391 H3381 0.929 . S
C3391 C3389 1.433 . S
C3391 N3394 1.384 . S
C3392 H3383 0.929 . S
C3392 C3384 1.378 . S
C3392 C3387 1.350 . S
C3393 H3380 0.929 1_545 S
C3393 C3385 1.433 . S
C3393 N3395 1.384 . S
N3394 C3390 1.427 . S
N3394 C3391 1.384 . S
N3395 C3387 1.427 . S
N3395 C3393 1.384 . S
H3396 C3402 0.930 . S
H3397 C3406 0.930 . S
H3398 C3411 0.929 . S
H3399 C3409 0.929 . S
H3400 C3404 0.929 1_655 S
H3401 C3410 0.929 . S
C3402 H3396 0.930 . S
C3402 C3403 1.367 . S
C3402 C3410 1.378 . S
C3403 C3402 1.367 . S
C3403 C3411 1.433 1_455 S
C3404 H3400 0.929 1_455 S
C3404 C3406 1.378 . S
C3404 C3408 1.350 . S
C3405 C3408 1.463 . S
C3405 C3410 1.350 . S
C3405 N3413 1.423 1_455 S
C3406 H3397 0.930 . S
C3406 C3404 1.378 . S
C3406 C3407 1.367 . S
C3407 C3406 1.367 . S
C3407 C3409 1.433 . S
C3408 C3404 1.350 . S
C3408 C3405 1.463 . S
C3408 N3412 1.427 . S
C3409 H3399 0.929 . S
C3409 C3407 1.433 . S
C3409 N3412 1.384 . S
C3410 H3401 0.929 . S
C3410 C3402 1.378 . S
C3410 C3405 1.350 . S
C3411 H3398 0.929 . S
C3411 C3403 1.433 1_655 S
C3411 N3413 1.384 . S
N3412 C3408 1.427 . S
N3412 C3409 1.384 . S
N3413 C3405 1.423 1_655 S
N3413 C3411 1.384 . S
H3414 C3420 0.930 . S
H3415 C3424 0.930 1_565 S
H3416 C3429 0.929 . S
H3417 C3427 0.929 . S
H3418 C3422 0.929 1_565 S
H3419 C3428 0.929 . S
C3420 H3414 0.930 . S
C3420 C3421 1.367 . S
C3420 C3428 1.378 . S
C3421 C3420 1.367 . S
C3421 C3429 1.433 1_545 S
C3422 H3418 0.929 1_545 S
C3422 C3424 1.378 . S
C3422 C3426 1.350 . S
C3423 C3426 1.463 . S
C3423 C3428 1.350 . S
C3423 N3431 1.427 1_545 S
C3424 H3415 0.930 1_545 S
C3424 C3422 1.378 . S
C3424 C3425 1.367 . S
C3425 C3424 1.367 . S
C3425 C3427 1.433 . S
C3426 C3422 1.350 . S
C3426 C3423 1.463 . S
C3426 N3430 1.427 . S
C3427 H3417 0.929 . S
C3427 C3425 1.433 . S
C3427 N3430 1.384 . S
C3428 H3419 0.929 . S
C3428 C3420 1.378 . S
C3428 C3423 1.350 . S
C3429 H3416 0.929 . S
C3429 C3421 1.433 1_565 S
C3429 N3431 1.384 . S
N3430 C3426 1.427 . S
N3430 C3427 1.384 . S
N3431 C3423 1.427 1_565 S
N3431 C3429 1.384 . S
H3432 C3438 0.930 . S
H3433 C3442 0.930 . S
H3434 C3447 0.929 . S
H3435 C3445 0.929 1_655 S
H3436 C3440 0.929 . S
H3437 C3446 0.929 . S
C3438 H3432 0.930 . S
C3438 C3439 1.367 1_655 S
C3438 C3446 1.378 . S
C3439 C3438 1.367 1_455 S
C3439 C3447 1.433 . S
C3440 H3436 0.929 . S
C3440 C3442 1.378 . S
C3440 C3444 1.350 . S
C3441 C3444 1.463 . S
C3441 C3446 1.350 1_455 S
C3441 N3449 1.427 . S
C3442 H3433 0.930 . S
C3442 C3440 1.378 . S
C3442 C3443 1.367 . S
C3443 C3442 1.367 . S
C3443 C3445 1.433 . S
C3444 C3440 1.350 . S
C3444 C3441 1.463 . S
C3444 N3448 1.427 . S
C3445 H3435 0.929 1_455 S
C3445 C3443 1.433 . S
C3445 N3448 1.384 . S
C3446 H3437 0.929 . S
C3446 C3438 1.378 . S
C3446 C3441 1.350 1_655 S
C3447 H3434 0.929 . S
C3447 C3439 1.433 . S
C3447 N3449 1.384 . S
N3448 C3444 1.427 . S
N3448 C3445 1.384 . S
N3449 C3441 1.427 . S
N3449 C3447 1.384 . S
H3450 C3456 0.930 . S
H3451 C3460 0.930 1_565 S
H3452 C3465 0.929 . S
H3453 C3463 0.929 . S
H3454 C3458 0.929 . S
H3455 C3464 0.929 . S
C3456 H3450 0.930 . S
C3456 C3457 1.367 . S
C3456 C3464 1.378 . S
C3457 C3456 1.367 . S
C3457 C3465 1.433 . S
C3458 H3454 0.929 . S
C3458 C3460 1.378 . S
C3458 C3462 1.350 . S
C3459 C3462 1.463 . S
C3459 C3464 1.350 . S
C3459 N3467 1.427 . S
C3460 H3451 0.930 1_545 S
C3460 C3458 1.378 . S
C3460 C3461 1.367 . S
C3461 C3460 1.367 . S
C3461 C3463 1.433 . S
C3462 C3458 1.350 . S
C3462 C3459 1.463 . S
C3462 N3466 1.427 . S
C3463 H3453 0.929 . S
C3463 C3461 1.433 . S
C3463 N3466 1.384 . S
C3464 H3455 0.929 . S
C3464 C3456 1.378 . S
C3464 C3459 1.350 . S
C3465 H3452 0.929 . S
C3465 C3457 1.433 . S
C3465 N3467 1.384 . S
N3466 C3462 1.427 . S
N3466 C3463 1.384 . S
N3467 C3459 1.427 . S
N3467 C3465 1.384 . S
H3468 C3474 0.930 . S
H3469 C3478 0.930 1_655 S
H3470 C3483 0.929 . S
H3471 C3481 0.929 . S
H3472 C3476 0.929 . S
H3473 C3482 0.929 . S
C3474 H3468 0.930 . S
C3474 C3475 1.367 . S
C3474 C3482 1.378 . S
C3475 C3474 1.367 . S
C3475 C3483 1.433 . S
C3476 H3472 0.929 . S
C3476 C3478 1.378 . S
C3476 C3480 1.350 . S
C3477 C3480 1.463 . S
C3477 C3482 1.350 . S
C3477 N3485 1.427 . S
C3478 H3469 0.930 1_455 S
C3478 C3476 1.378 . S
C3478 C3479 1.367 . S
C3479 C3478 1.367 . S
C3479 C3481 1.433 . S
C3480 C3476 1.350 . S
C3480 C3477 1.463 . S
C3480 N3484 1.427 . S
C3481 H3471 0.929 . S
C3481 C3479 1.433 . S
C3481 N3484 1.384 . S
C3482 H3473 0.929 . S
C3482 C3474 1.378 . S
C3482 C3477 1.350 . S
C3483 H3470 0.929 . S
C3483 C3475 1.433 . S
C3483 N3485 1.384 . S
N3484 C3480 1.427 . S
N3484 C3481 1.384 . S
N3485 C3477 1.427 . S
N3485 C3483 1.384 . S
H3486 C3492 0.930 1_565 S
H3487 C3496 0.930 . S
H3488 C3501 0.929 . S
H3489 C3499 0.929 . S
H3490 C3494 0.929 . S
H3491 C3500 0.929 1_565 S
C3492 H3486 0.930 1_545 S
C3492 C3493 1.367 . S
C3492 C3500 1.378 . S
C3493 C3492 1.367 . S
C3493 C3501 1.433 . S
C3494 H3490 0.929 . S
C3494 C3496 1.378 . S
C3494 C3498 1.350 . S
C3495 C3498 1.463 . S
C3495 C3500 1.350 . S
C3495 N3503 1.427 . S
C3496 H3487 0.930 . S
C3496 C3494 1.378 . S
C3496 C3497 1.367 . S
C3497 C3496 1.367 . S
C3497 C3499 1.433 1_545 S
C3498 C3494 1.350 . S
C3498 C3495 1.463 . S
C3498 N3502 1.427 1_545 S
C3499 H3489 0.929 . S
C3499 C3497 1.433 1_565 S
C3499 N3502 1.384 . S
C3500 H3491 0.929 1_545 S
C3500 C3492 1.378 . S
C3500 C3495 1.350 . S
C3501 H3488 0.929 . S
C3501 C3493 1.433 . S
C3501 N3503 1.384 . S
N3502 C3498 1.427 1_565 S
N3502 C3499 1.384 . S
N3503 C3495 1.427 . S
N3503 C3501 1.384 . S
H3504 C3510 0.930 1_556 S
H3505 C3514 0.930 . S
H3506 C3519 0.929 . S
H3507 C3517 0.929 . S
H3508 C3512 0.929 . S
H3509 C3518 0.929 1_556 S
C3510 H3504 0.930 1_554 S
C3510 C3511 1.367 . S
C3510 C3518 1.378 . S
C3511 C3510 1.367 . S
C3511 C3519 1.433 . S
C3512 H3508 0.929 . S
C3512 C3514 1.378 . S
C3512 C3516 1.350 . S
C3513 C3516 1.463 . S
C3513 C3518 1.350 . S
C3513 N3521 1.427 . S
C3514 H3505 0.930 . S
C3514 C3512 1.378 . S
C3514 C3515 1.367 . S
C3515 C3514 1.367 . S
C3515 C3517 1.433 1_554 S
C3516 C3512 1.350 . S
C3516 C3513 1.463 . S
C3516 N3520 1.427 1_554 S
C3517 H3507 0.929 . S
C3517 C3515 1.433 1_556 S
C3517 N3520 1.384 . S
C3518 H3509 0.929 1_554 S
C3518 C3510 1.378 . S
C3518 C3513 1.350 . S
C3519 H3506 0.929 . S
C3519 C3511 1.433 . S
C3519 N3521 1.384 . S
N3520 C3516 1.427 1_556 S
N3520 C3517 1.384 . S
N3521 C3513 1.427 . S
N3521 C3519 1.384 . S
H3522 C3528 0.930 . S
H3523 C3532 0.930 . S
H3524 C3537 0.899 1_556 S
H3525 C3535 0.929 . S
H3526 C3530 0.929 . S
H3527 C3536 0.929 . S
C3528 H3522 0.930 . S
C3528 C3529 1.367 . S
C3528 C3536 1.378 . S
C3529 C3528 1.367 . S
C3529 C3537 1.457 . S
C3530 H3526 0.929 . S
C3530 C3532 1.378 . S
C3530 C3534 1.350 . S
C3531 C3534 1.463 . S
C3531 C3536 1.350 . S
C3531 N3539 1.427 . S
C3532 H3523 0.930 . S
C3532 C3530 1.378 . S
C3532 C3533 1.367 . S
C3533 C3532 1.367 . S
C3533 C3535 1.433 . S
C3534 C3530 1.350 . S
C3534 C3531 1.463 . S
C3534 N3538 1.427 . S
C3535 H3525 0.929 . S
C3535 C3533 1.433 . S
C3535 N3538 1.384 . S
C3536 H3527 0.929 . S
C3536 C3528 1.378 . S
C3536 C3531 1.350 . S
C3537 H3524 0.899 1_554 S
C3537 C3529 1.457 . S
C3537 N3539 1.395 . S
N3538 C3534 1.427 . S
N3538 C3535 1.384 . S
N3539 C3531 1.427 . S
N3539 C3537 1.395 . S
H3540 C3546 0.930 . S
H3541 C3550 0.930 . S
H3542 C3555 0.929 . S
H3543 C3553 0.929 . S
H3544 C3548 0.929 1_556 S
H3545 C3554 0.929 . S
C3546 H3540 0.930 . S
C3546 C3547 1.367 . S
C3546 C3554 1.378 . S
C3547 C3546 1.367 . S
C3547 C3555 1.433 1_554 S
C3548 H3544 0.929 1_554 S
C3548 C3550 1.378 . S
C3548 C3552 1.350 . S
C3549 C3552 1.463 . S
C3549 C3554 1.350 . S
C3549 N3557 1.415 1_554 S
C3550 H3541 0.930 . S
C3550 C3548 1.378 . S
C3550 C3551 1.367 . S
C3551 C3550 1.367 . S
C3551 C3553 1.433 . S
C3552 C3548 1.350 . S
C3552 C3549 1.463 . S
C3552 N3556 1.427 . S
C3553 H3543 0.929 . S
C3553 C3551 1.433 . S
C3553 N3556 1.384 . S
C3554 H3545 0.929 . S
C3554 C3546 1.378 . S
C3554 C3549 1.350 . S
C3555 H3542 0.929 . S
C3555 C3547 1.433 1_556 S
C3555 N3557 1.386 . S
N3556 C3552 1.427 . S
N3556 C3553 1.384 . S
N3557 C3549 1.415 1_556 S
N3557 C3555 1.386 . S
H3558 C3564 0.930 . S
H3559 C3568 0.930 . S
H3560 C3573 0.929 . S
H3561 C3571 0.929 1_556 S
H3562 C3566 0.929 . S
H3563 C3572 0.929 . S
C3564 H3558 0.930 . S
C3564 C3565 1.367 1_556 S
C3564 C3572 1.378 . S
C3565 C3564 1.367 1_554 S
C3565 C3573 1.433 . S
C3566 H3562 0.929 . S
C3566 C3568 1.378 . S
C3566 C3570 1.350 . S
C3567 C3570 1.463 . S
C3567 C3572 1.350 1_554 S
C3567 N3575 1.427 . S
C3568 H3559 0.930 . S
C3568 C3566 1.378 . S
C3568 C3569 1.367 . S
C3569 C3568 1.367 . S
C3569 C3571 1.433 . S
C3570 C3566 1.350 . S
C3570 C3567 1.463 . S
C3570 N3574 1.427 . S
C3571 H3561 0.929 1_554 S
C3571 C3569 1.433 . S
C3571 N3574 1.384 . S
C3572 H3563 0.929 . S
C3572 C3564 1.378 . S
C3572 C3567 1.350 1_556 S
C3573 H3560 0.929 . S
C3573 C3565 1.433 . S
C3573 N3575 1.384 . S
N3574 C3570 1.427 . S
N3574 C3571 1.384 . S
N3575 C3567 1.427 . S
N3575 C3573 1.384 . S
H3576 C3582 0.930 . S
H3577 C3586 0.930 . S
H3578 C3591 0.929 . S
H3579 C3589 0.929 . S
H3580 C3584 0.929 . S
H3581 C3590 0.929 . S
C3582 H3576 0.930 . S
C3582 C3583 1.367 . S
C3582 C3590 1.378 . S
C3583 C3582 1.367 . S
C3583 C3591 1.433 . S
C3584 H3580 0.929 . S
C3584 C3586 1.378 . S
C3584 C3588 1.350 . S
C3585 C3588 1.463 . S
C3585 C3590 1.350 . S
C3585 N3593 1.427 . S
C3586 H3577 0.930 . S
C3586 C3584 1.378 . S
C3586 C3587 1.367 . S
C3587 C3586 1.367 . S
C3587 C3589 1.433 . S
C3588 C3584 1.350 . S
C3588 C3585 1.463 . S
C3588 N3592 1.427 . S
C3589 H3579 0.929 . S
C3589 C3587 1.433 . S
C3589 N3592 1.384 . S
C3590 H3581 0.929 . S
C3590 C3582 1.378 . S
C3590 C3585 1.350 . S
C3591 H3578 0.929 . S
C3591 C3583 1.433 . S
C3591 N3593 1.384 . S
N3592 C3588 1.427 . S
N3592 C3589 1.384 . S
N3593 C3585 1.427 . S
N3593 C3591 1.384 . S
H3594 C3600 0.930 . S
H3595 C3604 0.930 . S
H3596 C3609 0.929 . S
H3597 C3607 0.929 . S
H3598 C3602 0.929 . S
H3599 C3608 0.929 . S
C3600 H3594 0.930 . S
C3600 C3601 1.367 . S
C3600 C3608 1.378 . S
C3601 C3600 1.367 . S
C3601 C3609 1.433 . S
C3602 H3598 0.929 . S
C3602 C3604 1.378 . S
C3602 C3606 1.350 . S
C3603 C3606 1.463 . S
C3603 C3608 1.350 . S
C3603 N3611 1.427 . S
C3604 H3595 0.930 . S
C3604 C3602 1.378 . S
C3604 C3605 1.367 . S
C3605 C3604 1.367 . S
C3605 C3607 1.433 . S
C3606 C3602 1.350 . S
C3606 C3603 1.463 . S
C3606 N3610 1.427 . S
C3607 H3597 0.929 . S
C3607 C3605 1.433 . S
C3607 N3610 1.384 . S
C3608 H3599 0.929 . S
C3608 C3600 1.378 . S
C3608 C3603 1.350 . S
C3609 H3596 0.929 . S
C3609 C3601 1.433 . S
C3609 N3611 1.384 . S
N3610 C3606 1.427 . S
N3610 C3607 1.384 . S
N3611 C3603 1.427 . S
N3611 C3609 1.384 . S
H3612 C3618 0.930 . S
H3613 C3622 0.930 . S
H3614 C3627 0.929 . S
H3615 C3625 0.929 . S
H3616 C3620 0.929 . S
H3617 C3626 0.929 . S
C3618 H3612 0.930 . S
C3618 C3619 1.367 . S
C3618 C3626 1.378 . S
C3619 C3618 1.367 . S
C3619 C3627 1.433 . S
C3620 H3616 0.929 . S
C3620 C3622 1.378 . S
C3620 C3624 1.350 . S
C3621 C3624 1.463 . S
C3621 C3626 1.350 . S
C3621 N3629 1.427 . S
C3622 H3613 0.930 . S
C3622 C3620 1.378 . S
C3622 C3623 1.367 . S
C3623 C3622 1.367 . S
C3623 C3625 1.433 . S
C3624 C3620 1.350 . S
C3624 C3621 1.463 . S
C3624 N3628 1.427 . S
C3625 H3615 0.929 . S
C3625 C3623 1.433 . S
C3625 N3628 1.384 . S
C3626 H3617 0.929 . S
C3626 C3618 1.378 . S
C3626 C3621 1.350 . S
C3627 H3614 0.929 . S
C3627 C3619 1.433 . S
C3627 N3629 1.384 . S
N3628 C3624 1.427 . S
N3628 C3625 1.384 . S
N3629 C3621 1.427 . S
N3629 C3627 1.384 . S
H3630 C3636 0.930 . S
H3631 C3640 0.930 . S
H3632 C3645 0.929 . S
H3633 C3643 0.929 . S
H3634 C3638 0.929 . S
H3635 C3644 0.929 . S
C3636 H3630 0.930 . S
C3636 C3637 1.367 . S
C3636 C3644 1.378 . S
C3637 C3636 1.367 . S
C3637 C3645 1.433 . S
C3638 H3634 0.929 . S
C3638 C3640 1.378 . S
C3638 C3642 1.350 . S
C3639 C3642 1.463 . S
C3639 C3644 1.350 . S
C3639 N3647 1.427 . S
C3640 H3631 0.930 . S
C3640 C3638 1.378 . S
C3640 C3641 1.367 . S
C3641 C3640 1.367 . S
C3641 C3643 1.433 . S
C3642 C3638 1.350 . S
C3642 C3639 1.463 . S
C3642 N3646 1.427 . S
C3643 H3633 0.929 . S
C3643 C3641 1.433 . S
C3643 N3646 1.384 . S
C3644 H3635 0.929 . S
C3644 C3636 1.378 . S
C3644 C3639 1.350 . S
C3645 H3632 0.929 . S
C3645 C3637 1.433 . S
C3645 N3647 1.384 . S
N3646 C3642 1.427 . S
N3646 C3643 1.384 . S
N3647 C3639 1.427 . S
N3647 C3645 1.384 . S
H3648 C3654 0.930 . S
H3649 C3658 0.930 . S
H3650 C3663 0.929 . S
H3651 C3661 0.929 . S
H3652 C3656 0.929 . S
H3653 C3662 0.929 . S
C3654 H3648 0.930 . S
C3654 C3655 1.367 . S
C3654 C3662 1.378 . S
C3655 C3654 1.367 . S
C3655 C3663 1.433 . S
C3656 H3652 0.929 . S
C3656 C3658 1.378 . S
C3656 C3660 1.350 . S
C3657 C3660 1.463 . S
C3657 C3662 1.350 . S
C3657 N3665 1.427 . S
C3658 H3649 0.930 . S
C3658 C3656 1.378 . S
C3658 C3659 1.367 . S
C3659 C3658 1.367 . S
C3659 C3661 1.433 . S
C3660 C3656 1.350 . S
C3660 C3657 1.463 . S
C3660 N3664 1.427 . S
C3661 H3651 0.929 . S
C3661 C3659 1.433 . S
C3661 N3664 1.384 . S
C3662 H3653 0.929 . S
C3662 C3654 1.378 . S
C3662 C3657 1.350 . S
C3663 H3650 0.929 . S
C3663 C3655 1.433 . S
C3663 N3665 1.384 . S
N3664 C3660 1.427 . S
N3664 C3661 1.384 . S
N3665 C3657 1.427 . S
N3665 C3663 1.384 . S
H3666 C3672 0.930 . S
H3667 C3676 0.930 . S
H3668 C3681 0.929 . S
H3669 C3679 0.929 . S
H3670 C3674 0.929 . S
H3671 C3680 0.929 . S
C3672 H3666 0.930 . S
C3672 C3673 1.367 . S
C3672 C3680 1.378 . S
C3673 C3672 1.367 . S
C3673 C3681 1.433 . S
C3674 H3670 0.929 . S
C3674 C3676 1.378 . S
C3674 C3678 1.350 . S
C3675 C3678 1.463 . S
C3675 C3680 1.350 . S
C3675 N3683 1.427 . S
C3676 H3667 0.930 . S
C3676 C3674 1.378 . S
C3676 C3677 1.367 . S
C3677 C3676 1.367 . S
C3677 C3679 1.433 . S
C3678 C3674 1.350 . S
C3678 C3675 1.463 . S
C3678 N3682 1.427 . S
C3679 H3669 0.929 . S
C3679 C3677 1.433 . S
C3679 N3682 1.384 . S
C3680 H3671 0.929 . S
C3680 C3672 1.378 . S
C3680 C3675 1.350 . S
C3681 H3668 0.929 . S
C3681 C3673 1.433 . S
C3681 N3683 1.384 . S
N3682 C3678 1.427 . S
N3682 C3679 1.384 . S
N3683 C3675 1.427 . S
N3683 C3681 1.384 . S
H3684 C3690 0.930 . S
H3685 C3694 0.930 . S
H3686 C3699 0.929 . S
H3687 C3697 0.929 . S
H3688 C3692 0.929 . S
H3689 C3698 0.929 . S
C3690 H3684 0.930 . S
C3690 C3691 1.367 . S
C3690 C3698 1.378 . S
C3691 C3690 1.367 . S
C3691 C3699 1.433 . S
C3692 H3688 0.929 . S
C3692 C3694 1.378 . S
C3692 C3696 1.350 . S
C3693 C3696 1.463 . S
C3693 C3698 1.350 . S
C3693 N3701 1.427 . S
C3694 H3685 0.930 . S
C3694 C3692 1.378 . S
C3694 C3695 1.367 . S
C3695 C3694 1.367 . S
C3695 C3697 1.433 . S
C3696 C3692 1.350 . S
C3696 C3693 1.463 . S
C3696 N3700 1.427 . S
C3697 H3687 0.929 . S
C3697 C3695 1.433 . S
C3697 N3700 1.384 . S
C3698 H3689 0.929 . S
C3698 C3690 1.378 . S
C3698 C3693 1.350 . S
C3699 H3686 0.929 . S
C3699 C3691 1.433 . S
C3699 N3701 1.384 . S
N3700 C3696 1.427 . S
N3700 C3697 1.384 . S
N3701 C3693 1.427 . S
N3701 C3699 1.384 . S
H3702 C3708 0.930 . S
H3703 C3712 0.930 . S
H3704 C3717 0.929 . S
H3705 C3715 0.929 . S
H3706 C3710 0.929 . S
H3707 C3716 0.929 . S
C3708 H3702 0.930 . S
C3708 C3709 1.367 . S
C3708 C3716 1.378 . S
C3709 C3708 1.367 . S
C3709 C3717 1.433 . S
C3710 H3706 0.929 . S
C3710 C3712 1.378 . S
C3710 C3714 1.350 . S
C3711 C3714 1.463 . S
C3711 C3716 1.350 . S
C3711 N3719 1.427 . S
C3712 H3703 0.930 . S
C3712 C3710 1.378 . S
C3712 C3713 1.367 . S
C3713 C3712 1.367 . S
C3713 C3715 1.433 . S
C3714 C3710 1.350 . S
C3714 C3711 1.463 . S
C3714 N3718 1.427 . S
C3715 H3705 0.929 . S
C3715 C3713 1.433 . S
C3715 N3718 1.384 . S
C3716 H3707 0.929 . S
C3716 C3708 1.378 . S
C3716 C3711 1.350 . S
C3717 H3704 0.929 . S
C3717 C3709 1.433 . S
C3717 N3719 1.384 . S
N3718 C3714 1.427 . S
N3718 C3715 1.384 . S
N3719 C3711 1.427 . S
N3719 C3717 1.384 . S
H3720 C3726 0.930 . S
H3721 C3730 0.930 . S
H3722 C3735 0.929 . S
H3723 C3733 0.929 . S
H3724 C3728 0.929 . S
H3725 C3734 0.929 . S
C3726 H3720 0.930 . S
C3726 C3727 1.367 . S
C3726 C3734 1.378 . S
C3727 C3726 1.367 . S
C3727 C3735 1.433 . S
C3728 H3724 0.929 . S
C3728 C3730 1.378 . S
C3728 C3732 1.350 . S
C3729 C3732 1.463 . S
C3729 C3734 1.350 . S
C3729 N3737 1.427 . S
C3730 H3721 0.930 . S
C3730 C3728 1.378 . S
C3730 C3731 1.367 . S
C3731 C3730 1.367 . S
C3731 C3733 1.433 . S
C3732 C3728 1.350 . S
C3732 C3729 1.463 . S
C3732 N3736 1.427 . S
C3733 H3723 0.929 . S
C3733 C3731 1.433 . S
C3733 N3736 1.384 . S
C3734 H3725 0.929 . S
C3734 C3726 1.378 . S
C3734 C3729 1.350 . S
C3735 H3722 0.929 . S
C3735 C3727 1.433 . S
C3735 N3737 1.384 . S
N3736 C3732 1.427 . S
N3736 C3733 1.384 . S
N3737 C3729 1.427 . S
N3737 C3735 1.384 . S
H3738 C3744 0.930 . S
H3739 C3748 0.930 . S
H3740 C3753 0.929 . S
H3741 C3751 0.929 . S
H3742 C3746 0.929 . S
H3743 C3752 0.929 . S
C3744 H3738 0.930 . S
C3744 C3745 1.367 . S
C3744 C3752 1.378 . S
C3745 C3744 1.367 . S
C3745 C3753 1.433 . S
C3746 H3742 0.929 . S
C3746 C3748 1.378 . S
C3746 C3750 1.350 . S
C3747 C3750 1.463 . S
C3747 C3752 1.350 . S
C3747 N3755 1.427 . S
C3748 H3739 0.930 . S
C3748 C3746 1.378 . S
C3748 C3749 1.367 . S
C3749 C3748 1.367 . S
C3749 C3751 1.433 . S
C3750 C3746 1.350 . S
C3750 C3747 1.463 . S
C3750 N3754 1.427 . S
C3751 H3741 0.929 . S
C3751 C3749 1.433 . S
C3751 N3754 1.384 . S
C3752 H3743 0.929 . S
C3752 C3744 1.378 . S
C3752 C3747 1.350 . S
C3753 H3740 0.929 . S
C3753 C3745 1.433 . S
C3753 N3755 1.384 . S
N3754 C3750 1.427 . S
N3754 C3751 1.384 . S
N3755 C3747 1.427 . S
N3755 C3753 1.384 . S
H3756 C3762 0.930 . S
H3757 C3766 0.930 . S
H3758 C3771 0.929 . S
H3759 C3769 0.929 . S
H3760 C3764 0.929 . S
H3761 C3770 0.929 . S
C3762 H3756 0.930 . S
C3762 C3763 1.367 . S
C3762 C3770 1.378 . S
C3763 C3762 1.367 . S
C3763 C3771 1.433 . S
C3764 H3760 0.929 . S
C3764 C3766 1.378 . S
C3764 C3768 1.350 . S
C3765 C3768 1.463 . S
C3765 C3770 1.350 . S
C3765 N3773 1.427 . S
C3766 H3757 0.930 . S
C3766 C3764 1.378 . S
C3766 C3767 1.367 . S
C3767 C3766 1.367 . S
C3767 C3769 1.433 . S
C3768 C3764 1.350 . S
C3768 C3765 1.463 . S
C3768 N3772 1.427 . S
C3769 H3759 0.929 . S
C3769 C3767 1.433 . S
C3769 N3772 1.384 . S
C3770 H3761 0.929 . S
C3770 C3762 1.378 . S
C3770 C3765 1.350 . S
C3771 H3758 0.929 . S
C3771 C3763 1.433 . S
C3771 N3773 1.384 . S
N3772 C3768 1.427 . S
N3772 C3769 1.384 . S
N3773 C3765 1.427 . S
N3773 C3771 1.384 . S
H3774 C3780 0.930 . S
H3775 C3784 0.930 . S
H3776 C3789 0.929 . S
H3777 C3787 0.929 . S
H3778 C3782 0.929 . S
H3779 C3788 0.929 . S
C3780 H3774 0.930 . S
C3780 C3781 1.367 . S
C3780 C3788 1.378 . S
C3781 C3780 1.367 . S
C3781 C3789 1.433 . S
C3782 H3778 0.929 . S
C3782 C3784 1.378 . S
C3782 C3786 1.350 . S
C3783 C3786 1.463 . S
C3783 C3788 1.350 . S
C3783 N3791 1.427 . S
C3784 H3775 0.930 . S
C3784 C3782 1.378 . S
C3784 C3785 1.367 . S
C3785 C3784 1.367 . S
C3785 C3787 1.433 . S
C3786 C3782 1.350 . S
C3786 C3783 1.463 . S
C3786 N3790 1.427 . S
C3787 H3777 0.929 . S
C3787 C3785 1.433 . S
C3787 N3790 1.384 . S
C3788 H3779 0.929 . S
C3788 C3780 1.378 . S
C3788 C3783 1.350 . S
C3789 H3776 0.929 . S
C3789 C3781 1.433 . S
C3789 N3791 1.384 . S
N3790 C3786 1.427 . S
N3790 C3787 1.384 . S
N3791 C3783 1.427 . S
N3791 C3789 1.384 . S
C1639 C1501 1.209 . S
C1643 C5 1.211 . S
C1657 C1399 1.193 . S
C1661 C39 1.201 . S
C1675 C1433 1.207 . S
C1679 C73 1.212 . S
C1693 C107 1.193 . S
C1697 C1467 1.202 . S
C1711 C141 1.209 . S
C1715 C1603 1.211 . S
C1729 C175 1.212 . S
C1733 C1535 1.204 . S
C1747 C209 1.205 . S
C1751 C1569 1.194 . S
C1765 C1365 1.212 . S
C1769 C243 1.202 . S
C1783 C1331 1.204 . S
C1787 C277 1.193 . S
C1801 C311 1.209 . S
C1805 C1229 1.211 . S
C1819 C345 1.210 . S
C1823 C1263 1.209 . S
C1837 C1297 1.201 . S
C1841 C379 1.212 . S
C1855 C413 1.196 . S
C1859 C1127 1.208 . S
C1873 C447 1.197 . S
C1877 C1161 1.194 . S
C1891 C1195 1.196 . S
C1895 C481 1.195 . S
C1909 C515 1.208 . S
C1913 C1093 1.196 . S
C1927 C549 1.210 . S
C1931 C1059 1.209 . S
C1945 C855 1.198 . S
C1949 C583 1.210 . S
C1963 C889 1.203 . S
C1967 C617 1.212 . S
C1981 C651 1.198 . S
C1985 C923 1.210 . S
C1999 C821 1.211 . S
C2003 C685 1.208 . S
C2017 C719 1.198 . S
C2021 C991 1.210 . S
C2035 C1025 1.209 . S
C2039 C753 1.211 . S
C2053 C787 1.201 . S
C2057 C957 1.193 . S
C2071 C138 2.308 . S
C2075 C1430 2.311 . S
C2089 C1464 2.308 . S
C2093 C172 2.309 . S
C2107 C206 2.309 . S
C2111 C1498 2.311 . S
C2125 C1396 2.311 . S
C2129 C240 2.309 . S
C2143 C1566 2.310 . S
C2147 C2 2.311 . S
C2161 C36 2.309 . S
C2165 C1362 2.311 . S
C2179 C1600 2.309 . S
C2183 C70 2.308 . S
C2197 C1532 2.311 . S
C2201 C104 2.310 . S
C2215 C1124 2.308 . S
C2219 C478 2.311 . S
C2233 C512 2.309 . S
C2237 C1158 2.308 . S
C2251 C1192 2.309 . S
C2255 C410 2.308 . S
C2269 C444 2.311 . S
C2273 C1090 2.309 . S
C2287 C1328 2.309 . S
C2291 C342 2.308 . S
C2305 C1226 2.308 . S
C2309 C376 2.309 . S
C2323 C1260 2.310 . S
C2327 C274 2.308 . S
C2341 C1294 2.309 . S
C2345 C308 2.308 . S
C2359 C920 2.311 . S
C2363 C716 2.309 . S
C2377 C648 2.309 . S
C2381 C988 2.308 . S
C2395 C682 2.308 . S
C2399 C1022 2.311 . S
C2413 C1056 2.309 . S
C2417 C580 2.308 . S
C2431 C614 2.309 . S
C2435 C954 2.308 . S
C2449 C852 2.308 . S
C2453 C546 2.310 . S
C2467 C784 2.308 . S
C2471 C886 2.310 . S
C2485 C818 2.310 . S
C2489 C750 2.311 . S
C2503 C111 1.592 . S
C2507 C20 1.595 . S
C2521 C9 1.597 . S
C2525 C54 1.596 . S
C2539 C88 1.594 . S
C2543 C43 1.597 . S
C2557 C122 1.593 . S
C2561 C77 1.596 . S
C2575 C179 1.596 . S
C2579 C156 1.593 . S
C2593 C190 1.596 . S
C2597 C213 1.593 . S
C2611 C224 1.592 . S
C2615 C247 1.593 . S
C2629 C145 1.592 . S
C2633 C258 1.595 . S
C2647 C621 1.594 . S
C2651 C292 1.597 . S
C2665 C655 1.597 . S
C2669 C326 1.596 . S
C2683 C689 1.594 . S
C2687 C360 1.597 . S
C2701 C394 1.594 . S
C2705 C587 1.592 . S
C2719 C757 1.596 . S
C2723 C428 1.597 . S
C2737 C462 1.596 . S
C2741 C553 1.597 . S
C2755 C496 1.595 . S
C2759 C791 1.592 . S
C2773 C723 1.592 . S
C2777 C530 1.594 . S
C2791 C564 1.596 . S
C2795 C315 1.597 . S
C2809 C519 1.597 . S
C2813 C598 1.595 . S
C2827 C632 1.595 . S
C2831 C417 1.592 . S
C2845 C451 1.592 . S
C2849 C666 1.594 . S
C2863 C700 1.595 . S
C2867 C485 1.592 . S
C2881 C383 1.592 . S
C2885 C734 1.593 . S
C2899 C281 1.593 . S
C2903 C768 1.592 . S
C2917 C802 1.592 . S
C2921 C349 1.593 . S
C2935 C836 1.594 . S
C2939 C927 1.597 . S
C2953 C870 1.596 . S
C2957 C825 1.593 . S
C2971 C859 1.592 . S
C2975 C904 1.593 . S
C2989 C893 1.592 . S
C2993 C938 1.594 . S
C3007 C972 1.597 . S
C3011 C995 1.596 . S
C3025 C1006 1.594 . S
C3029 C1029 1.597 . S
C3043 C1040 1.593 . S
C3047 C1063 1.592 . S
C3061 C961 1.597 . S
C3065 C1074 1.594 . S
C3079 C1437 1.593 . S
C3083 C1108 1.592 . S
C3097 C1471 1.596 . S
C3101 C1142 1.597 . S
C3115 C1176 1.596 . S
C3119 C1505 1.597 . S
C3133 C1403 1.592 . S
C3137 C1210 1.594 . S
C3151 C1244 1.592 . S
C3155 C1573 1.593 . S
C3169 C1369 1.592 . S
C3173 C1278 1.595 . S
C3187 C1607 1.597 . S
C3191 C1312 1.596 . S
C3205 C1346 1.595 . S
C3209 C1539 1.592 . S
C3223 C1131 1.592 . S
C3227 C1380 1.594 . S
C3241 C1414 1.593 . S
C3245 C1335 1.596 . S
C3259 C1448 1.596 . S
C3263 C1233 1.597 . S
C3277 C1482 1.596 . S
C3281 C1267 1.593 . S
C3295 C1516 1.593 . S
C3299 C1301 1.596 . S
C3313 C1550 1.597 . S
C3317 C1199 1.596 . S
C3331 C1097 1.592 . S
C3335 C1584 1.594 . S
C3349 C1165 1.594 . S
C3353 C1618 1.592 . S
C3367 C33 1.480 . S
C3371 C339 1.481 . S
C3385 C373 1.481 . S
C3389 C67 1.481 . S
C3403 C407 1.477 . S
C3407 C101 1.479 . S
C3421 C305 1.478 . S
C3425 C135 1.477 . S
C3439 C169 1.481 . S
C3443 C543 1.481 . S
C3457 C441 1.479 . S
C3461 C203 1.481 . S
C3475 C237 1.481 . S
C3479 C475 1.479 . S
C3493 C271 1.477 . S
C3497 C509 1.478 . S
C3511 C645 1.477 . S
C3515 C577 1.477 . S
C3529 C781 1.479 . S
C3533 C611 1.477 . S
C3547 C815 1.477 . S
C3551 C679 1.479 . S
C3565 C747 1.480 . S
C3569 C713 1.481 . S
C3583 C849 1.481 . S
C3587 C1155 1.479 . S
C3601 C883 1.480 . S
C3605 C1189 1.481 . S
C3619 C1223 1.479 . S
C3623 C917 1.481 . S
C3637 C1121 1.480 . S
C3641 C951 1.481 . S
C3655 C1359 1.477 . S
C3659 C985 1.478 . S
C3673 C1019 1.481 . S
C3677 C1257 1.480 . S
C3691 C1053 1.481 . S
C3695 C1291 1.479 . S
C3709 C1087 1.480 . S
C3713 C1325 1.481 . S
C3727 C1393 1.477 . S
C3731 C1461 1.477 . S
C3745 C1427 1.479 . S
C3749 C1597 1.477 . S
C3763 C1495 1.479 . S
C3767 C1631 1.481 . S
C3781 C1529 1.481 . S
C3785 C1563 1.481 . S
