# Generated by pormake.
# Topology snp, (6)-cn, num edge types: 1
# Building blocks:
#     Node 0, Type 0, BuildingBlock: MIFKUJ_clean_sbu_0, # of connection points: 6
#     Node 1, Type 0, BuildingBlock: MIFKUJ_clean_sbu_0, # of connection points: 6
#     Node 2, Type 0, BuildingBlock: MIFKUJ_clean_sbu_0, # of connection points: 6
#     Node 3, Type 0, BuildingBlock: MIFKUJ_clean_sbu_0, # of connection points: 6
#     Edge 4, Type (0, 0), BuildingBlock: MIFKUJ_clean_linker_0, # of connection points: 2
#     Edge 5, Type (0, 0), BuildingBlock: MIFKUJ_clean_linker_0, # of connection points: 2
#     Edge 6, Type (0, 0), BuildingBlock: MIFKUJ_clean_linker_0, # of connection points: 2
#     Edge 7, Type (0, 0), BuildingBlock: MIFKUJ_clean_linker_0, # of connection points: 2
#     Edge 8, Type (0, 0), BuildingBlock: MIFKUJ_clean_linker_0, # of connection points: 2
#     Edge 9, Type (0, 0), BuildingBlock: MIFKUJ_clean_linker_0, # of connection points: 2
#     Edge 10, Type (0, 0), BuildingBlock: MIFKUJ_clean_linker_0, # of connection points: 2
#     Edge 11, Type (0, 0), BuildingBlock: MIFKUJ_clean_linker_0, # of connection points: 2
#     Edge 12, Type (0, 0), BuildingBlock: MIFKUJ_clean_linker_0, # of connection points: 2
#     Edge 13, Type (0, 0), BuildingBlock: MIFKUJ_clean_linker_0, # of connection points: 2
#     Edge 14, Type (0, 0), BuildingBlock: MIFKUJ_clean_linker_0, # of connection points: 2
#     Edge 15, Type (0, 0), BuildingBlock: MIFKUJ_clean_linker_0, # of connection points: 2
# Relax obj value: 0.291
# Max RMSD: 0.222
# Mean RMSD: 0.222
data_MOF--net-snp--node1-MIFKUJ_clean_sbu_0--edge1-MIFKUJ_clean_linker_0
_symmetry_space_group_name_H-M    P1
_symmetry_Int_Tables_number       1
_symmetry_cell_setting            triclinic
loop_
_symmetry_equiv_pos_as_xyz
'x, y, z'
_cell_length_a     30.557832
_cell_length_b     30.644472
_cell_length_c     38.295172
_cell_angle_alpha  89.933303
_cell_angle_beta   90.008741
_cell_angle_gamma 89.818016
loop_
_atom_site_label
_atom_site_type_symbol
_atom_site_fract_x
_atom_site_fract_y
_atom_site_fract_z
_atom_type_partial_charge
Zn0 Zn 0.29031 0.97734 0.06542 0.0
Zn1 Zn 0.3007 0.94671 0.96002 0.0
C2 C 0.23877 0.94931 0.11845 0.0
O3 O 0.22973 0.99092 0.11408 0.0
C4 C 0.33143 0.02038 0.9193 0.0
O5 O 0.36739 -0.00312 0.9174 0.0
O6 O 0.31368 0.02544 0.09612 0.0
O7 O 0.33628 0.95834 0.02993 0.0
O8 O 0.36184 0.93685 0.97934 0.0
C9 C 0.33505 0.01445 0.12327 0.0
O10 O 0.3438 0.97295 0.12854 0.0
O11 O 0.26621 0.93133 0.09794 0.0
C12 C 0.26403 0.91903 0.89534 0.0
O13 O 0.25842 0.96136 0.89309 0.0
O14 O 0.28133 0.90299 0.92283 0.0
O15 O 0.2618 0.94853 1.00164 0.0
O16 O 0.23972 -0.00026 0.03682 0.0
O17 O 0.30013 0.00697 0.93831 0.0
C18 C 0.3689 0.94849 0.01085 0.0
C19 C 0.2372 0.9811 0.0073 0.0
Zn20 Zn 0.15664 0.28351 0.55736 0.0
Zn21 Zn 0.20435 0.29968 0.45546 0.0
C22 C 0.18317 0.23849 0.61534 0.0
O23 O 0.14308 0.22524 0.60903 0.0
C24 C 0.11561 0.30717 0.42438 0.0
O25 O 0.10562 0.33248 0.45088 0.0
O26 O 0.1024 0.30233 0.58346 0.0
O27 O 0.17595 0.32919 0.52253 0.0
O28 O 0.19977 0.36149 0.4755 0.0
C29 C 0.10859 0.32832 0.60883 0.0
O30 O 0.14796 0.34436 0.61365 0.0
O31 O 0.20068 0.26543 0.59424 0.0
C32 C 0.28547 0.2589 0.42942 0.0
O33 O 0.28527 0.2358 0.45833 0.0
O34 O 0.25751 0.2893 0.42557 0.0
O35 O 0.19767 0.25788 0.49566 0.0
O36 O 0.14418 0.23154 0.52705 0.0
O37 O 0.15378 0.29066 0.42237 0.0
C38 C 0.18247 0.36423 0.50573 0.0
C39 C 0.16628 0.23112 0.49889 0.0
Zn40 Zn 0.83268 0.17006 0.06161 0.0
Zn41 Zn 0.82467 0.21103 0.95505 0.0
C42 C 0.88114 0.19861 0.11652 0.0
O43 O 0.89951 0.16238 0.1054 0.0
C44 C 0.80712 0.15272 0.89803 0.0
O45 O 0.77136 0.17648 0.89577 0.0
O46 O 0.8162 0.11421 0.08594 0.0
O47 O 0.78464 0.18546 0.02571 0.0
O48 O 0.76306 0.20818 0.9735 0.0
C49 C 0.79181 0.11624 0.11276 0.0
O50 O 0.77541 0.1542 0.12197 0.0
O51 O 0.84755 0.21298 0.10038 0.0
C52 C 0.87744 0.27417 0.92171 0.0
O53 O 0.90677 0.25594 0.94215 0.0
O54 O 0.83751 0.26403 0.92576 0.0
O55 O 0.85973 0.20372 0.99813 0.0
O56 O 0.88825 0.15787 0.03467 0.0
O57 O 0.8343 0.16048 0.92238 0.0
C58 C 0.75396 0.19444 0.00421 0.0
C59 C 0.88943 0.17623 0.0051 0.0
Zn60 Zn 0.96503 0.82713 0.56155 0.0
Zn61 Zn 0.92638 0.81847 0.45545 0.0
C62 C 0.94384 0.87147 0.62082 0.0
O63 O 0.98541 0.87948 0.61497 0.0
C64 C 0.98945 0.79097 0.40407 0.0
O65 O 0.96358 0.757 0.40122 0.0
O66 O 0.01903 0.80495 0.58624 0.0
O67 O 0.94304 0.78388 0.52486 0.0
O68 O 0.91935 0.75699 0.47543 0.0
C69 C 0.01655 0.78081 0.61318 0.0
O70 O 0.97829 0.76533 0.62265 0.0
O71 O 0.92298 0.8479 0.59911 0.0
C72 C 0.89185 0.87205 0.40499 0.0
O73 O 0.92871 0.89046 0.41429 0.0
O74 O 0.87936 0.83825 0.42151 0.0
O75 O 0.93498 0.85768 0.49679 0.0
O76 O 0.98384 0.87987 0.53397 0.0
O77 O 0.98146 0.81956 0.42718 0.0
C78 C 0.93276 0.75075 0.50665 0.0
C79 C 0.9669 0.88259 0.5038 0.0
H80 H 0.96777 0.20699 0.98538 0.0
H81 H 0.02307 0.1681 0.95186 0.0
H82 H 0.93068 0.06458 0.93164 0.0
H83 H 0.87637 0.10263 0.96756 0.0
H84 H 0.99534 0.03033 0.955 0.0
H85 H 0.98306 0.13248 0.86537 0.0
H86 H 0.974 0.20502 0.83877 0.0
H87 H 0.10233 0.24151 0.87338 0.0
H88 H 0.11123 0.17053 0.9023 0.0
H89 H 0.20054 0.938 0.95272 0.0
H90 H 0.14235 0.96521 0.91439 0.0
H91 H 0.15318 0.0924 0.96178 0.0
H92 H 0.21159 0.0656 0.99953 0.0
H93 H 0.12067 0.09533 0.89158 0.0
H94 H 0.09375 0.01652 0.00618 0.0
H95 H 0.10188 0.94966 0.04172 0.0
H96 H 0.04766 0.87343 0.95828 0.0
H97 H 0.03958 0.93995 0.92223 0.0
C98 C 0.95899 0.17669 0.97264 0.0
C99 C 0.91789 0.15804 0.97818 0.0
C100 C 0.99044 0.15455 0.9531 0.0
C101 C 0.98099 0.11363 0.93825 0.0
C102 C 0.93882 0.09618 0.94246 0.0
C103 C 0.90771 0.11794 0.96274 0.0
C104 C 0.01736 0.08589 0.92496 0.0
C105 C 0.02178 0.04411 0.93967 0.0
C106 C 0.0522 0.10321 0.90476 0.0
C107 C 0.04791 0.14564 0.88598 0.0
C108 C 0.00939 0.15593 0.86748 0.0
C109 C 0.00423 0.19696 0.85203 0.0
C110 C 0.03784 0.22764 0.85394 0.0
C111 C 0.07649 0.21756 0.87163 0.0
C112 C 0.08152 0.17694 0.88773 0.0
C113 C 0.1917 0.97222 0.95383 0.0
C114 C 0.20982 -0.00039 0.97938 0.0
C115 C 0.15865 0.98773 0.93182 0.0
C116 C 0.14317 0.03063 0.93557 0.0
C117 C 0.16476 0.05921 0.95838 0.0
C118 C 0.19764 0.04372 0.98035 0.0
C119 C 0.09863 0.04277 0.92413 0.0
C120 C 0.09267 0.08113 0.90468 0.0
C121 C 0.06208 0.02268 0.9399 0.0
C122 C 0.06636 0.98291 0.96156 0.0
C123 C 0.08363 0.98543 0.9955 0.0
C124 C 0.08827 0.94766 0.01568 0.0
C125 C 0.07535 0.90731 1.00225 0.0
C126 C 0.05771 0.90469 0.96862 0.0
C127 C 0.0531 0.94238 0.94831 0.0
H128 H 0.07895 0.87809 0.0179 0.0
H129 H 0.03395 0.25934 0.84193 0.0
H130 H 0.94036 0.9562 0.4714 0.0
H131 H 0.98646 0.00652 0.43846 0.0
H132 H 0.09365 0.91457 0.44403 0.0
H133 H 0.0474 0.86459 0.47772 0.0
H134 H 0.11462 0.98642 0.47405 0.0
H135 H 0.05845 0.95491 0.36411 0.0
H136 H 0.00573 0.93831 0.31732 0.0
H137 H 0.9475 0.06512 0.32921 0.0
H138 H -0.00079 0.08212 0.37654 0.0
H139 H 0.21994 0.18219 0.45819 0.0
H140 H 0.19838 0.11686 0.42599 0.0
H141 H 0.06253 0.14802 0.44411 0.0
H142 H 0.08409 0.21286 0.47681 0.0
H143 H 0.07817 0.09476 0.38207 0.0
H144 H 0.11048 0.10234 0.5088 0.0
H145 H 0.15998 0.12086 0.55746 0.0
H146 H 0.25949 0.03787 0.51397 0.0
H147 H 0.21066 0.01952 0.46469 0.0
C148 C 0.97322 0.94618 0.46434 0.0
C149 C 0.99047 0.90673 0.47671 0.0
C150 C -0.00049 0.97471 0.44523 0.0
C151 C 0.04358 0.96429 0.43853 0.0
C152 C 0.05975 0.92323 0.44873 0.0
C153 C 0.03345 0.89479 0.46799 0.0
C154 C 0.07424 -0.00019 0.429 0.0
C155 C 0.10773 0.00906 0.45292 0.0
C156 C 0.06504 0.0299 0.40184 0.0
C157 C 0.03291 0.01975 0.37391 0.0
C158 C 0.03417 0.97909 0.35694 0.0
C159 C 0.00452 0.96967 0.33023 0.0
C160 C 0.97356 0.00083 0.32008 0.0
C161 C 0.97176 0.04118 0.33692 0.0
C162 C 0.0013 0.05073 0.36368 0.0
C163 C 0.18554 0.17631 0.4537 0.0
C164 C 0.15361 0.20183 0.47038 0.0
C165 C 0.17324 0.13901 0.43526 0.0
C166 C 0.12892 0.12741 0.43311 0.0
C167 C 0.0969 0.15646 0.44544 0.0
C168 C 0.1092 0.1932 0.46444 0.0
C169 C 0.11631 0.08139 0.42801 0.0
C170 C 0.08629 0.07059 0.40175 0.0
C171 C 0.12816 0.04971 0.45319 0.0
C172 C 0.15728 0.06006 0.48295 0.0
C173 C 0.14303 0.08829 0.50956 0.0
C174 C 0.17093 0.09875 0.53722 0.0
C175 C 0.21292 0.08064 0.53875 0.0
C176 C 0.22702 0.05196 0.51267 0.0
C177 C 0.19928 0.04157 0.48486 0.0
H178 H 0.23448 0.08874 0.5602 0.0
H179 H 0.95097 0.99382 0.29917 0.0
H180 H 0.69855 0.1597 0.95734 0.0
H181 H 0.6314 0.12088 0.96875 0.0
H182 H 0.64041 0.15385 0.07822 0.0
H183 H 0.71091 0.18967 0.06704 0.0
H184 H 0.61523 0.07801 0.07678 0.0
H185 H 0.55814 0.1992 0.01802 0.0
H186 H 0.55021 0.25785 0.97434 0.0
H187 H 0.52841 0.16269 0.89405 0.0
H188 H 0.53686 0.10341 0.93709 0.0
H189 H 0.39386 0.98505 0.07265 0.0
H190 H 0.45929 0.0288 0.08233 0.0
H191 H 0.5098 0.98784 0.98241 0.0
H192 H 0.44412 0.94463 0.97235 0.0
H193 H 0.49477 0.07907 0.99 0.0
H194 H 0.565 0.95899 0.05915 0.0
H195 H 0.56053 0.90848 0.10934 0.0
H196 H 0.5391 0.01673 0.17845 0.0
H197 H 0.54416 0.0678 0.1288 0.0
C198 C 0.68582 0.15962 0.98375 0.0
C199 C 0.70953 0.1783 0.01124 0.0
C200 C 0.64703 0.13755 0.99029 0.0
C201 C 0.62967 0.13542 0.02423 0.0
C202 C 0.6528 0.1552 0.05175 0.0
C203 C 0.6928 0.17599 0.04536 0.0
C204 C 0.58927 0.10961 0.0306 0.0
C205 C 0.58862 0.07899 0.05806 0.0
C206 C 0.55351 0.11123 0.00702 0.0
C207 C 0.54829 0.14679 0.98086 0.0
C208 C 0.5519 0.19074 0.99102 0.0
C209 C 0.5473 0.22411 0.96636 0.0
C210 C 0.53885 0.214 0.93145 0.0
C211 C 0.53492 0.17048 0.92112 0.0
C212 C 0.53953 0.13697 0.94566 0.0
C213 C 0.41946 0.98422 0.05328 0.0
C214 C 0.41328 0.96223 0.02143 0.0
C215 C 0.45694 0.0092 0.05888 0.0
C216 C 0.489 0.01194 0.03286 0.0
C217 C 0.48509 0.98632 1.00267 0.0
C218 C 0.4476 0.96148 0.99703 0.0
C219 C 0.52293 0.04609 0.03424 0.0
C220 C 0.52156 0.07869 0.00861 0.0
C221 C 0.5553 0.04768 0.06045 0.0
C222 C 0.55496 0.01708 0.09035 0.0
C223 C 0.55962 0.97194 0.08511 0.0
C224 C 0.55703 0.94325 0.11346 0.0
C225 C 0.54959 0.95938 0.14708 0.0
C226 C 0.54513 0.00427 0.15247 0.0
C227 C 0.54813 0.03311 0.12428 0.0
H228 H 0.54736 0.93712 0.16896 0.0
H229 H 0.53531 0.23989 0.91239 0.0
H230 H 0.20667 0.44805 0.49093 0.0
H231 H 0.16351 0.51432 0.50167 0.0
H232 H 0.06436 0.43705 0.55272 0.0
H233 H 0.10774 0.37169 0.54289 0.0
H234 H 0.08876 0.53136 0.4747 0.0
H235 H 0.00176 0.49493 0.60556 0.0
H236 H 0.01777 0.45763 0.66131 0.0
H237 H 0.15459 0.48489 0.64878 0.0
H238 H 0.13941 0.52254 0.5931 0.0
H239 H 0.91046 0.67198 0.47775 0.0
H240 H 0.94778 0.60218 0.48756 0.0
H241 H 0.02537 0.66095 0.56894 0.0
H242 H 0.98751 0.72982 0.55979 0.0
H243 H 0.01337 0.57734 0.58342 0.0
H244 H 0.0583 0.66234 0.48241 0.0
H245 H 0.04628 0.69987 0.42612 0.0
H246 H 0.0031 0.57971 0.38016 0.0
H247 H 0.01422 0.54166 0.43628 0.0
C248 C 0.17627 0.44562 0.50535 0.0
C249 C 0.1609 0.40495 0.51674 0.0
C250 C 0.15157 0.48334 0.51136 0.0
C251 C 0.11084 0.4808 0.52835 0.0
C252 C 0.09617 0.44023 0.54053 0.0
C253 C 0.12114 0.40277 0.53502 0.0
C254 C 0.08152 0.51941 0.52988 0.0
C255 C 0.07258 0.54151 0.49859 0.0
C256 C 0.06011 0.53258 0.56096 0.0
C257 C 0.06942 0.51139 0.59506 0.0
C258 C 0.03522 0.49326 0.61484 0.0
C259 C 0.04416 0.47194 0.64637 0.0
C260 C 0.08716 0.46891 0.65857 0.0
C261 C 0.12131 0.48721 0.63928 0.0
C262 C 0.11256 0.50847 0.6077 0.0
C263 C 0.93447 0.66958 0.49848 0.0
C264 C 0.94641 0.70658 0.51787 0.0
C265 C 0.95589 0.62975 0.50398 0.0
C266 C 0.9902 0.62672 0.52835 0.0
C267 C -0.00084 0.66248 0.54991 0.0
C268 C 0.97738 0.70198 0.54472 0.0
C269 C 0.02068 0.58898 0.52821 0.0
C270 C 0.02974 0.56709 0.55966 0.0
C271 C 0.04295 0.57635 0.49739 0.0
C272 C 0.0367 0.59927 0.4636 0.0
C273 C 0.04602 0.64401 0.46034 0.0
C274 C 0.03936 0.66537 0.42847 0.0
C275 C 0.02384 0.64217 0.39963 0.0
C276 C 0.01504 0.59762 0.40254 0.0
C277 C 0.02151 0.57616 0.43435 0.0
H278 H 0.01869 0.65861 0.37496 0.0
H279 H 0.09401 0.4524 0.68297 0.0
H280 H 0.28745 0.29578 0.3645 0.0
H281 H 0.31081 0.26093 0.31043 0.0
H282 H 0.36036 0.151 0.36873 0.0
H283 H 0.33663 0.18544 0.42328 0.0
H284 H 0.41154 0.17444 0.30608 0.0
H285 H 0.266 0.13681 0.34237 0.0
H286 H 0.1901 0.14858 0.36211 0.0
H287 H 0.16413 0.22709 0.27155 0.0
H288 H 0.24007 0.21584 0.25121 0.0
H289 H 0.37924 0.00096 0.1843 0.0
H290 H 0.38525 0.05091 0.23361 0.0
H291 H 0.31862 0.15082 0.17436 0.0
H292 H 0.31189 0.10079 0.12497 0.0
H293 H 0.28021 0.13625 0.23634 0.0
H294 H 0.42655 0.16061 0.19612 0.0
H295 H 0.49964 0.13733 0.17608 0.0
H296 H 0.52375 0.07602 0.27512 0.0
H297 H 0.45044 0.09824 0.29558 0.0
C298 C 0.30433 0.26471 0.36606 0.0
C299 C 0.30947 0.24306 0.39824 0.0
C300 C 0.3177 0.24488 0.33506 0.0
C301 C 0.33675 0.20321 0.33562 0.0
C302 C 0.34569 0.18321 0.36782 0.0
C303 C 0.33202 0.20294 0.39896 0.0
C304 C 0.3413 0.17837 0.30268 0.0
C305 C 0.38295 0.16585 0.29081 0.0
C306 C 0.30392 0.16752 0.28275 0.0
C307 C 0.25885 0.17597 0.29551 0.0
C308 C 0.24431 0.1571 0.32691 0.0
C309 C 0.20126 0.16353 0.33815 0.0
C310 C 0.1724 0.18867 0.31818 0.0
C311 C 0.18658 0.20765 0.287 0.0
C312 C 0.2296 0.20121 0.27556 0.0
C313 C 0.36653 0.03381 0.18148 0.0
C314 C 0.34471 0.04678 0.15082 0.0
C315 C 0.37025 0.06243 0.20967 0.0
C316 C 0.35253 0.10466 0.20762 0.0
C317 C 0.33255 0.11837 0.17645 0.0
C318 C 0.32881 0.08976 0.14823 0.0
C319 C 0.35054 0.13262 0.23916 0.0
C320 C 0.30908 0.14549 0.25105 0.0
C321 C 0.3881 0.14308 0.25914 0.0
C322 C 0.4328 0.13088 0.24732 0.0
C323 C 0.44732 0.14199 0.2136 0.0
C324 C 0.48881 0.12898 0.20215 0.0
C325 C 0.51629 0.10516 0.2243 0.0
C326 C 0.50241 0.09447 0.25799 0.0
C327 C 0.46091 0.10732 0.26955 0.0
H328 H 0.54835 0.09501 0.21536 0.0
H329 H 0.13897 0.19308 0.32676 0.0
H330 H 0.1188 0.36359 0.67348 0.0
H331 H 0.06679 0.36197 0.72176 0.0
H332 H 0.96948 0.30491 0.65452 0.0
H333 H 0.02191 0.3053 0.60588 0.0
H334 H 0.94933 0.3852 0.71382 0.0
H335 H 0.98798 0.23472 0.69058 0.0
H336 H 0.03506 0.17114 0.67813 0.0
H337 H 0.11277 0.19949 0.76859 0.0
H338 H 0.06708 0.26429 0.78083 0.0
H339 H 0.829 0.29231 0.86303 0.0
H340 H 0.85757 0.31212 0.8054 0.0
H341 H 0.98693 0.32459 0.84908 0.0
H342 H 0.95905 0.30403 0.90645 0.0
H343 H 0.97953 0.26282 0.79514 0.0
H344 H 0.93429 0.41236 0.81955 0.0
H345 H 0.87961 0.46903 0.83362 0.0
H346 H 0.80679 0.43625 0.74145 0.0
H347 H 0.86076 0.37897 0.72708 0.0
C348 C 0.08614 0.35138 0.66865 0.0
C349 C 0.07461 0.33415 0.63592 0.0
C350 C 0.05647 0.35054 0.6963 0.0
C351 C 0.01458 0.33308 0.69162 0.0
C352 C 0.0018 0.31846 0.65849 0.0
C353 C 0.03177 0.31866 0.63083 0.0
C354 C 0.98649 0.32634 0.72246 0.0
C355 C 0.95533 0.35813 0.73148 0.0
C356 C 0.99454 0.2911 0.74534 0.0
C357 C 0.02461 0.2548 0.73624 0.0
C358 C 0.01584 0.22813 0.70725 0.0
C359 C 0.04212 0.19173 0.70036 0.0
C360 C 0.07697 0.1814 0.72251 0.0
C361 C 0.08595 0.20774 0.75136 0.0
C362 C 0.05998 0.24437 0.75821 0.0
C363 C 0.86332 0.30047 0.86058 0.0
C364 C 0.89188 0.29617 0.88928 0.0
C365 C 0.87955 0.31177 0.82759 0.0
C366 C 0.92442 0.31934 0.82298 0.0
C367 C 0.95226 0.31837 0.8521 0.0
C368 C 0.93622 0.30682 0.88491 0.0
C369 C 0.94371 0.32257 0.78759 0.0
C370 C 0.97328 0.28986 0.77762 0.0
C371 C 0.9335 0.3565 0.76384 0.0
C372 C 0.90131 0.39109 0.77245 0.0
C373 C 0.90641 0.41697 0.80245 0.0
C374 C 0.8756 0.44927 0.81044 0.0
C375 C 0.83968 0.45616 0.7885 0.0
C376 C 0.83458 0.43085 0.75845 0.0
C377 C 0.8653 0.39851 0.75035 0.0
H378 H 0.81586 0.48117 0.79473 0.0
H379 H 0.09697 0.15291 0.71735 0.0
H380 H 0.82706 0.83172 0.36672 0.0
H381 H 0.79883 0.85489 0.30934 0.0
H382 H 0.8789 0.97019 0.31393 0.0
H383 H 0.90741 0.94757 0.37045 0.0
H384 H 0.7565 0.93338 0.28718 0.0
H385 H 0.93059 0.97777 0.22922 0.0
H386 H 0.00616 0.95056 0.23355 0.0
H387 H 0.95941 0.82681 0.27014 0.0
H388 H 0.8833 0.85269 0.26503 0.0
H389 H 0.76051 0.11519 0.17936 0.0
H390 H 0.76484 0.05573 0.22128 0.0
H391 H 0.81817 0.97117 0.14176 0.0
H392 H 0.81548 0.03145 0.09981 0.0
H393 H 0.8661 0.9652 0.19514 0.0
H394 H 0.71502 0.9525 0.17984 0.0
H395 H 0.63841 0.97591 0.17284 0.0
H396 H 0.6378 0.02614 0.27746 0.0
H397 H 0.71483 0.00392 0.28488 0.0
C398 C 0.8382 0.86224 0.35561 0.0
C399 C 0.86973 0.8876 0.37296 0.0
C400 C 0.82223 0.87528 0.32285 0.0
C401 C 0.83792 0.91357 0.30709 0.0
C402 C 0.86762 0.93984 0.32522 0.0
C403 C 0.88351 0.92698 0.35768 0.0
C404 C 0.82388 0.92714 0.27173 0.0
C405 C 0.78024 0.93997 0.26681 0.0
C406 C 0.85481 0.93394 0.2447 0.0
C407 C 0.90082 0.91765 0.24732 0.0
C408 C 0.93616 0.94465 0.23798 0.0
C409 C 0.97922 0.9294 0.24048 0.0
C410 C 0.98758 0.88705 0.25222 0.0
C411 C 0.95287 0.85973 0.26123 0.0
C412 C 0.90971 0.87474 0.25858 0.0
C413 C 0.77233 0.08373 0.17052 0.0
C414 C 0.78788 0.07813 0.13629 0.0
C415 C 0.77449 0.04952 0.19453 0.0
C416 C 0.79136 0.00862 0.18469 0.0
C417 C 0.80498 0.00236 0.15001 0.0
C418 C 0.80336 0.03682 0.12604 0.0
C419 C 0.79945 0.97467 0.21174 0.0
C420 C 0.84204 0.95783 0.21507 0.0
C421 C 0.76746 0.96344 0.23694 0.0
C422 C 0.72087 0.97655 0.23288 0.0
C423 C 0.69867 0.96874 0.20132 0.0
C424 C 0.6551 0.98181 0.19728 0.0
C425 C 0.63318 0.00245 0.22472 0.0
C426 C 0.65481 0.01007 0.25626 0.0
C427 C 0.69843 -0.00281 0.26041 0.0
H428 H 0.59946 0.01257 0.2216 0.0
H429 H 0.02094 0.87545 0.25433 0.0
H430 H 0.03103 0.72075 0.66479 0.0
H431 H 0.08585 0.72501 0.71133 0.0
H432 H 0.13875 0.84154 0.6642 0.0
H433 H 0.08594 0.83597 0.61691 0.0
H434 H 0.20175 0.80166 0.69333 0.0
H435 H 0.05712 0.84366 0.73014 0.0
H436 H 0.97798 0.83383 0.74005 0.0
H437 H 0.00456 0.72553 0.80818 0.0
H438 H 0.0839 0.7345 0.79839 0.0
H439 H 0.24777 0.94587 0.82942 0.0
H440 H 0.21795 0.90391 0.78129 0.0
H441 H 0.21612 0.78852 0.84589 0.0
H442 H 0.2466 0.83081 0.89485 0.0
H443 H 0.13512 0.81004 0.81132 0.0
H444 H 0.28722 0.79004 0.78058 0.0
H445 H 0.36223 0.81739 0.77164 0.0
H446 H 0.31603 0.90437 0.69167 0.0
H447 H 0.2407 0.87778 0.70028 0.0
C448 C 0.05513 0.74658 0.66398 0.0
C449 C 0.05394 0.77828 0.63748 0.0
C450 C 0.08627 0.74915 0.69066 0.0
C451 C 0.11573 0.78428 0.69184 0.0
C452 C 0.11641 0.81416 0.66402 0.0
C453 C 0.08604 0.811 0.63696 0.0
C454 C 0.14274 0.79284 0.72337 0.0
C455 C 0.18719 0.80319 0.71914 0.0
C456 C 0.12396 0.7948 0.75721 0.0
C457 C 0.07634 0.78935 0.76318 0.0
C458 C 0.04604 0.81757 0.74705 0.0
C459 C 0.00118 0.8122 0.75267 0.0
C460 C 0.98625 0.77898 0.77462 0.0
C461 C 0.01617 0.75117 0.79111 0.0
C462 C 0.06109 0.75638 0.78555 0.0
C463 C 0.2416 0.91143 0.83343 0.0
C464 C 0.24946 0.89159 0.86595 0.0
C465 C 0.22477 0.88744 0.80576 0.0
C466 C 0.21532 0.84305 0.80993 0.0
C467 C 0.22361 0.82274 0.84219 0.0
C468 C 0.24105 0.84681 0.87 0.0
C469 C 0.19362 0.81955 0.78104 0.0
C470 C 0.15004 0.80675 0.78573 0.0
C471 C 0.21268 0.81726 0.74743 0.0
C472 C 0.2583 0.83182 0.74106 0.0
C473 C 0.29307 0.81495 0.76106 0.0
C474 C 0.33564 0.83035 0.75606 0.0
C475 C 0.34389 0.86257 0.73108 0.0
C476 C 0.30961 0.87931 0.71092 0.0
C477 C 0.267 0.86396 0.71576 0.0
H478 H 0.37683 0.87457 0.72736 0.0
H479 H 0.9515 0.77486 0.77895 0.0
H480 H 0.88454 0.11049 0.88707 0.0
H481 H 0.90219 0.05751 0.84181 0.0
H482 H 0.77115 0.0692 0.80076 0.0
H483 H 0.75272 0.12084 0.8473 0.0
H484 H 0.79687 0.98616 0.79927 0.0
H485 H 0.85914 0.12278 0.76282 0.0
H486 H 0.90432 0.18923 0.7668 0.0
H487 H 0.01963 0.11079 0.78066 0.0
H488 H 0.97515 0.04385 0.77724 0.0
H489 H 0.85767 0.89504 0.63081 0.0
H490 H 0.82823 0.93751 0.68005 0.0
H491 H 0.95446 0.93233 0.7305 0.0
H492 H 0.98391 0.89117 0.68149 0.0
H493 H 0.92682 0.01363 0.72501 0.0
H494 H 0.86526 0.87709 0.7624 0.0
H495 H 0.82109 0.81031 0.75658 0.0
H496 H 0.70556 0.88781 0.74022 0.0
H497 H 0.74918 0.95512 0.74546 0.0
C498 C 0.8592 0.10107 0.86897 0.0
C499 C 0.81715 0.11952 0.8711 0.0
C500 C 0.86949 0.07122 0.84272 0.0
C501 C 0.83819 0.05984 0.8175 0.0
C502 C 0.79586 0.07755 0.81988 0.0
C503 C 0.78544 0.10721 0.84641 0.0
C504 C 0.85004 0.03016 0.78832 0.0
C505 C 0.82495 0.99243 0.78269 0.0
C506 C 0.88709 0.03797 0.76703 0.0
C507 C 0.91372 0.07828 0.76998 0.0
C508 C 0.89406 0.11969 0.76702 0.0
C509 C 0.91956 0.15742 0.76908 0.0
C510 C 0.96476 0.15413 0.77385 0.0
C511 C 0.9846 0.11319 0.77684 0.0
C512 C 0.95928 0.07537 0.77484 0.0
C513 C 0.87872 0.90234 0.65277 0.0
C514 C 0.92316 0.89047 0.65216 0.0
C515 C 0.86194 0.92652 0.68088 0.0
C516 C 0.88928 0.93841 0.70886 0.0
C517 C 0.93289 0.92405 0.70906 0.0
C518 C 0.94967 0.90052 0.681 0.0
C519 C 0.87433 0.96909 0.73641 0.0
C520 C 0.89872 0.00729 0.74156 0.0
C521 C 0.83681 0.96158 0.75718 0.0
C522 C 0.81059 0.92115 0.75391 0.0
C523 C 0.83051 0.87991 0.75722 0.0
C524 C 0.80556 0.84195 0.7541 0.0
C525 C 0.76057 0.84481 0.74792 0.0
C526 C 0.74043 0.88565 0.74494 0.0
C527 C 0.76524 0.92371 0.74801 0.0
H528 H 0.74131 0.81539 0.74553 0.0
H529 H 0.98444 0.18328 0.7753 0.0
H530 H 0.23255 0.86058 0.1289 0.0
H531 H 0.19771 0.82335 0.17863 0.0
H532 H 0.16667 0.9481 0.22459 0.0
H533 H 0.20064 0.98515 0.17542 0.0
H534 H 0.20143 0.88998 0.27244 0.0
H535 H 0.08805 0.89718 0.18515 0.0
H536 H 0.05523 0.88489 0.12715 0.0
H537 H 0.07262 0.74659 0.13935 0.0
H538 H 0.10608 0.75818 0.1973 0.0
H539 H 0.02745 0.86884 0.38888 0.0
H540 H 0.07761 0.88508 0.34137 0.0
H541 H 0.07765 0.74973 0.31073 0.0
H542 H 0.02563 0.73343 0.35766 0.0
H543 H 0.06792 0.80064 0.25574 0.0
H544 H 0.1704 0.79843 0.35132 0.0
H545 H 0.19466 0.81752 0.41081 0.0
H546 H 0.19072 0.95366 0.38429 0.0
H547 H 0.16631 0.9354 0.32468 0.0
C548 C 0.21838 0.8799 0.14971 0.0
C549 C 0.21908 0.92573 0.14818 0.0
C550 C 0.19849 0.85868 0.17799 0.0
C551 C 0.17968 0.88307 0.20522 0.0
C552 C 0.18115 0.92871 0.20393 0.0
C553 C 0.20036 0.94981 0.17564 0.0
C554 C 0.15733 0.86171 0.23492 0.0
C555 C 0.17234 0.87027 0.26885 0.0
C556 C 0.11973 0.83565 0.23015 0.0
C557 C 0.10022 0.82858 0.19522 0.0
C558 C 0.08535 0.8642 0.17525 0.0
C559 C 0.06651 0.85736 0.14246 0.0
C560 C 0.06203 0.815 0.1295 0.0
C561 C 0.07626 0.77939 0.14937 0.0
C562 C 0.09517 0.78607 0.18218 0.0
C563 C 0.03874 0.84228 0.37254 0.0
C564 C 0.02316 0.79961 0.37738 0.0
C565 C 0.06753 0.85165 0.34539 0.0
C566 C 0.08229 0.81849 0.32302 0.0
C567 C 0.06705 0.77575 0.32791 0.0
C568 C 0.03755 0.76643 0.35481 0.0
C569 C 0.11155 0.82943 0.29341 0.0
C570 C 0.09784 0.81904 0.25945 0.0
C571 C 0.14993 0.85451 0.29819 0.0
C572 C 0.16659 0.8655 0.33352 0.0
C573 C 0.17483 0.83242 0.35816 0.0
C574 C 0.18857 0.84311 0.39191 0.0
C575 C 0.19425 0.88677 0.40131 0.0
C576 C 0.18646 0.91985 0.37693 0.0
C577 C 0.17286 0.90934 0.34311 0.0
H578 H 0.20468 0.89498 0.4275 0.0
H579 H 0.0474 0.80976 0.10411 0.0
H580 H 0.14483 0.20437 0.67278 0.0
H581 H 0.1796 0.17892 0.72639 0.0
H582 H 0.30606 0.2139 0.68536 0.0
H583 H 0.27114 0.24021 0.63123 0.0
H584 H 0.29731 0.12545 0.71475 0.0
H585 H 0.26857 0.27465 0.74448 0.0
H586 H 0.22229 0.3404 0.74892 0.0
H587 H 0.1363 0.2738 0.81957 0.0
H588 H 0.18142 0.20724 0.81501 0.0
H589 H 0.38999 0.05712 0.874 0.0
H590 H 0.37354 0.10549 0.82487 0.0
H591 H 0.23803 0.11032 0.85636 0.0
H592 H 0.25438 0.06301 0.90596 0.0
H593 H 0.26108 0.18673 0.83117 0.0
H594 H 0.27328 0.03791 0.79338 0.0
H595 H 0.30824 0.96586 0.78555 0.0
H596 H 0.41399 0.02545 0.72942 0.0
H597 H 0.37977 0.09791 0.73704 0.0
C598 C 0.18004 0.20678 0.67509 0.0
C599 C 0.20529 0.22412 0.64774 0.0
C600 C 0.19978 0.19246 0.70584 0.0
C601 C 0.24525 0.19488 0.7099 0.0
C602 C 0.27083 0.212 0.68268 0.0
C603 C 0.25091 0.22704 0.6519 0.0
C604 C 0.26548 0.17778 0.74232 0.0
C605 C 0.29049 0.13947 0.74019 0.0
C606 C 0.25488 0.19526 0.77548 0.0
C607 C 0.22828 0.23571 0.77912 0.0
C608 C 0.23961 0.27384 0.76076 0.0
C609 C 0.21356 0.31129 0.76332 0.0
C610 C 0.17629 0.31121 0.78443 0.0
C611 C 0.16517 0.27378 0.80323 0.0
C612 C 0.19101 0.23618 0.80068 0.0
C613 C 0.35687 0.0692 0.87088 0.0
C614 C 0.32343 0.05576 0.89366 0.0
C615 C 0.34746 0.09666 0.84266 0.0
C616 C 0.30436 0.11073 0.83644 0.0
C617 C 0.27151 0.09975 0.8605 0.0
C618 C 0.28094 0.07261 0.88889 0.0
C619 C 0.29273 0.13409 0.80366 0.0
C620 C 0.26899 0.17333 0.80572 0.0
C621 C 0.30333 0.11681 0.77039 0.0
C622 C 0.32427 0.07338 0.76616 0.0
C623 C 0.30419 0.03569 0.77963 0.0
C624 C 0.32379 0.99478 0.77517 0.0
C625 C 0.36338 0.99112 0.75714 0.0
C626 C 0.38337 0.02836 0.74345 0.0
C627 C 0.36387 0.06934 0.74778 0.0
H628 H 0.37849 0.95943 0.7537 0.0
H629 H 0.15608 0.34019 0.78629 0.0
H630 H 0.96224 0.1884 0.14326 0.0
H631 H 0.98951 0.21246 0.19958 0.0
H632 H 0.86734 0.27861 0.21978 0.0
H633 H 0.83954 0.25461 0.16246 0.0
H634 H 0.9411 0.3258 0.24286 0.0
H635 H 0.88219 0.18456 0.25777 0.0
H636 H 0.86783 0.10713 0.24482 0.0
H637 H 0.00428 0.07738 0.25758 0.0
H638 H 0.01967 0.15477 0.27 0.0
H639 H 0.0313 0.33817 0.41835 0.0
H640 H 0.97974 0.32517 0.37032 0.0
H641 H 0.07642 0.24568 0.31831 0.0
H642 H 0.12757 0.25786 0.36609 0.0
H643 H -0.00276 0.20692 0.31892 0.0
H644 H 0.05496 0.35275 0.2944 0.0
H645 H 0.06703 0.43033 0.30846 0.0
H646 H 0.92831 0.45065 0.31661 0.0
H647 H 0.91546 0.37303 0.303 0.0
C648 C 0.94114 0.20842 0.15942 0.0
C649 C 0.89851 0.21919 0.14858 0.0
C650 C 0.95679 0.22205 0.19172 0.0
C651 C 0.93011 0.24641 0.21425 0.0
C652 C 0.88831 0.25947 0.20286 0.0
C653 C 0.87253 0.24589 0.17015 0.0
C654 C 0.94628 0.25625 0.24995 0.0
C655 C 0.95251 0.29985 0.25991 0.0
C656 C 0.96106 0.22235 0.27224 0.0
C657 C 0.95211 0.17565 0.26462 0.0
C658 C 0.90922 0.16161 0.25751 0.0
C659 C 0.90089 0.11771 0.2503 0.0
C660 C 0.93513 0.08742 0.25031 0.0
C661 C 0.97781 0.10095 0.2575 0.0
C662 C 0.98634 0.14482 0.26471 0.0
C663 C 0.04147 0.31779 0.39672 0.0
C664 C 0.08357 0.29899 0.39607 0.0
C665 C 0.01203 0.31057 0.36924 0.0
C666 C 0.02432 0.2846 0.34064 0.0
C667 C 0.06617 0.26564 0.34018 0.0
C668 C 0.09543 0.27273 0.36752 0.0
C669 C 0.99412 0.27639 0.31097 0.0
C670 C 0.98506 0.23291 0.30224 0.0
C671 C 0.97643 0.31039 0.29014 0.0
C672 C 0.98429 0.35701 0.29812 0.0
C673 C 0.02706 0.37369 0.29946 0.0
C674 C 0.03404 0.41768 0.3073 0.0
C675 C -0.00153 0.44537 0.31355 0.0
C676 C 0.95583 0.42915 0.31184 0.0
C677 C 0.94869 0.38518 0.30405 0.0
H678 H 0.00394 0.47941 0.31962 0.0
H679 H 0.92855 0.05347 0.24488 0.0
loop_
_geom_bond_atom_site_label_1
_geom_bond_atom_site_label_2
_geom_bond_distance
_geom_bond_site_symmetry_2
_ccdc_geom_bond_type
Zn0 O6 1.969 . S
Zn0 O7 1.965 . S
Zn0 O11 2.024 1_545 S
Zn0 O16 1.969 . S
Zn1 O8 1.969 . S
Zn1 O14 1.969 . S
Zn1 O15 1.965 . S
Zn1 O17 2.024 1_565 S
C2 O3 1.229 . S
C2 O11 1.058 . S
O3 C2 1.229 . S
C4 O5 1.229 . S
C4 O17 1.058 . S
O5 C4 1.229 . S
O6 Zn0 1.969 . S
O6 C9 1.267 . S
O7 Zn0 1.965 . S
O7 C18 1.267 1_554 S
O8 Zn1 1.969 . S
O8 C18 1.255 1_565 S
C9 O6 1.267 . S
C9 O10 1.228 . S
O10 C9 1.228 . S
O11 Zn0 2.024 1_565 S
O11 C2 1.058 . S
C12 O13 1.228 . S
C12 O14 1.267 . S
O13 C12 1.228 . S
O14 Zn1 1.969 . S
O14 C12 1.267 . S
O15 Zn1 1.965 . S
O15 C19 1.264 1_556 S
O16 Zn0 1.969 . S
O16 C19 1.256 1_545 S
O17 Zn1 2.024 1_545 S
O17 C4 1.058 . S
C18 O7 1.267 1_556 S
C18 O8 1.255 1_545 S
C19 O15 1.264 1_554 S
C19 O16 1.256 1_565 S
Zn20 O26 1.969 . S
Zn20 O27 1.965 . S
Zn20 O31 2.024 . S
Zn20 O36 1.969 . S
Zn21 O28 1.969 . S
Zn21 O34 1.969 . S
Zn21 O35 1.965 . S
Zn21 O37 2.024 . S
C22 O23 1.229 . S
C22 O31 1.058 . S
O23 C22 1.229 . S
C24 O25 1.229 . S
C24 O37 1.058 . S
O25 C24 1.229 . S
O26 Zn20 1.969 . S
O26 C29 1.267 . S
O27 Zn20 1.965 . S
O27 C38 1.260 . S
O28 Zn21 1.969 . S
O28 C38 1.258 . S
C29 O26 1.267 . S
C29 O30 1.228 . S
O30 C29 1.228 . S
O31 Zn20 2.024 . S
O31 C22 1.058 . S
C32 O33 1.228 . S
C32 O34 1.267 . S
O33 C32 1.228 . S
O34 Zn21 1.969 . S
O34 C32 1.267 . S
O35 Zn21 1.965 . S
O35 C39 1.260 . S
O36 Zn20 1.969 . S
O36 C39 1.258 . S
O37 Zn21 2.024 . S
O37 C24 1.058 . S
C38 O27 1.260 . S
C38 O28 1.258 . S
C39 O35 1.260 . S
C39 O36 1.258 . S
Zn40 O46 1.969 . S
Zn40 O47 1.965 . S
Zn40 O51 2.024 . S
Zn40 O56 1.969 . S
Zn41 O48 1.969 . S
Zn41 O54 1.969 . S
Zn41 O55 1.965 . S
Zn41 O57 2.024 . S
C42 O43 1.229 . S
C42 O51 1.058 . S
O43 C42 1.229 . S
C44 O45 1.229 . S
C44 O57 1.058 . S
O45 C44 1.229 . S
O46 Zn40 1.969 . S
O46 C49 1.267 . S
O47 Zn40 1.965 . S
O47 C58 1.260 1_554 S
O48 Zn41 1.969 . S
O48 C58 1.258 . S
C49 O46 1.267 . S
C49 O50 1.228 . S
O50 C49 1.228 . S
O51 Zn40 2.024 . S
O51 C42 1.058 . S
C52 O53 1.228 . S
C52 O54 1.267 . S
O53 C52 1.228 . S
O54 Zn41 1.969 . S
O54 C52 1.267 . S
O55 Zn41 1.965 . S
O55 C59 1.260 1_556 S
O56 Zn40 1.969 . S
O56 C59 1.258 . S
O57 Zn41 2.024 . S
O57 C44 1.058 . S
C58 O47 1.260 1_556 S
C58 O48 1.258 . S
C59 O55 1.260 1_554 S
C59 O56 1.258 . S
Zn60 O66 1.969 . S
Zn60 O67 1.965 . S
Zn60 O71 2.024 1_455 S
Zn60 O76 1.969 . S
Zn61 O68 1.969 . S
Zn61 O74 1.969 . S
Zn61 O75 1.965 . S
Zn61 O77 2.024 1_655 S
C62 O63 1.229 . S
C62 O71 1.058 . S
O63 C62 1.229 . S
C64 O65 1.229 . S
C64 O77 1.058 . S
O65 C64 1.229 . S
O66 Zn60 1.969 . S
O66 C69 1.267 . S
O67 Zn60 1.965 . S
O67 C78 1.267 . S
O68 Zn61 1.969 . S
O68 C78 1.255 1_655 S
C69 O66 1.267 . S
C69 O70 1.228 . S
O70 C69 1.228 . S
O71 Zn60 2.024 1_655 S
O71 C62 1.058 . S
C72 O73 1.228 . S
C72 O74 1.267 . S
O73 C72 1.228 . S
O74 Zn61 1.969 . S
O74 C72 1.267 . S
O75 Zn61 1.965 . S
O75 C79 1.264 . S
O76 Zn60 1.969 . S
O76 C79 1.256 1_455 S
O77 Zn61 2.024 1_455 S
O77 C64 1.058 . S
C78 O67 1.267 . S
C78 O68 1.255 1_455 S
C79 O75 1.264 . S
C79 O76 1.256 1_655 S
H80 C98 0.951 . S
H81 C100 0.951 1_455 S
H82 C102 0.950 . S
H83 C103 0.950 . S
H84 C105 0.950 . S
H85 C108 0.950 . S
H86 C109 0.950 . S
H87 C111 0.950 . S
H88 C112 0.950 . S
H89 C113 0.951 . S
H90 C115 0.951 . S
H91 C117 0.950 . S
H92 C118 0.950 . S
H93 C120 0.950 . S
H94 C123 0.950 1_545 S
H95 C124 0.950 . S
H96 C126 0.950 . S
H97 C127 0.950 . S
C98 H80 0.951 . S
C98 C99 1.366 1_554 S
C98 C100 1.388 . S
C99 C98 1.366 1_556 S
C99 C103 1.385 . S
C100 H81 0.951 1_655 S
C100 C98 1.388 . S
C100 C101 1.366 1_554 S
C101 C100 1.366 1_556 S
C101 C102 1.414 . S
C101 C104 1.499 1_655 S
C102 H82 0.950 . S
C102 C101 1.414 . S
C102 C103 1.374 . S
C103 H83 0.950 . S
C103 C99 1.385 . S
C103 C102 1.374 . S
C104 C101 1.499 1_455 S
C104 C105 1.373 1_556 S
C104 C106 1.389 . S
C105 H84 0.950 . S
C105 C104 1.373 1_554 S
C105 C121 1.377 . S
C106 C104 1.389 . S
C106 C107 1.524 . S
C106 C120 1.377 . S
C107 C106 1.524 . S
C107 C108 1.397 . S
C107 C112 1.363 . S
C108 H85 0.950 . S
C108 C107 1.397 . S
C108 C109 1.334 . S
C109 H86 0.950 . S
C109 C108 1.334 . S
C109 C110 1.287 . S
C110 C109 1.287 . S
C110 C111 1.524 . S
C110 H129 0.913 . S
C111 H87 0.950 . S
C111 C110 1.524 . S
C111 C112 1.415 . S
C112 H88 0.950 . S
C112 C107 1.363 . S
C112 C111 1.415 . S
C113 H89 0.951 . S
C113 C114 1.366 . S
C113 C115 1.388 . S
C114 C113 1.366 . S
C114 C118 1.385 1_566 S
C115 H90 0.951 . S
C115 C113 1.388 . S
C115 C116 1.366 1_565 S
C116 C115 1.366 1_545 S
C116 C117 1.414 1_556 S
C116 C119 1.499 . S
C117 H91 0.950 . S
C117 C116 1.414 1_554 S
C117 C118 1.374 . S
C118 H92 0.950 . S
C118 C114 1.385 1_544 S
C118 C117 1.374 . S
C119 C116 1.499 . S
C119 C120 1.373 . S
C119 C121 1.389 1_556 S
C120 H93 0.950 . S
C120 C106 1.377 . S
C120 C119 1.373 . S
C121 C105 1.377 . S
C121 C119 1.389 1_554 S
C121 C122 1.524 1_545 S
C122 C121 1.524 1_565 S
C122 C123 1.397 . S
C122 C127 1.363 . S
C123 H94 0.950 1_565 S
C123 C122 1.397 . S
C123 C124 1.334 . S
C124 H95 0.950 . S
C124 C123 1.334 . S
C124 C125 1.287 . S
C125 C124 1.287 . S
C125 C126 1.524 . S
C125 H128 0.999 . S
C126 H96 0.950 . S
C126 C125 1.524 . S
C126 C127 1.415 . S
C127 H97 0.950 . S
C127 C122 1.363 . S
C127 C126 1.415 . S
H128 C125 0.999 . S
H129 C110 0.913 . S
H130 C148 0.951 . S
H131 C150 0.951 . S
H132 C152 0.950 . S
H133 C153 0.950 . S
H134 C155 0.950 . S
H135 C158 0.950 . S
H136 C159 0.950 . S
H137 C161 0.950 1_655 S
H138 C162 0.950 . S
H139 C163 0.951 . S
H140 C165 0.951 . S
H141 C167 0.950 . S
H142 C168 0.950 . S
H143 C170 0.950 . S
H144 C173 0.950 . S
H145 C174 0.950 . S
H146 C176 0.950 . S
H147 C177 0.950 . S
C148 H130 0.951 . S
C148 C149 1.366 . S
C148 C150 1.388 . S
C149 C148 1.366 . S
C149 C153 1.385 1_655 S
C150 H131 0.951 . S
C150 C148 1.388 . S
C150 C151 1.366 1_655 S
C151 C150 1.366 1_455 S
C151 C152 1.414 . S
C151 C154 1.499 1_565 S
C152 H132 0.950 . S
C152 C151 1.414 . S
C152 C153 1.374 . S
C153 H133 0.950 . S
C153 C149 1.385 1_455 S
C153 C152 1.374 . S
C154 C151 1.499 1_545 S
C154 C155 1.373 . S
C154 C156 1.389 . S
C155 H134 0.950 . S
C155 C154 1.373 . S
C155 C171 1.377 . S
C156 C154 1.389 . S
C156 C157 1.524 . S
C156 C170 1.377 . S
C157 C156 1.524 . S
C157 C158 1.397 1_545 S
C157 C162 1.363 . S
C158 H135 0.950 . S
C158 C157 1.397 1_565 S
C158 C159 1.334 . S
C159 H136 0.950 . S
C159 C158 1.334 . S
C159 C160 1.287 . S
C160 C159 1.287 . S
C160 C161 1.524 1_565 S
C160 H179 0.913 . S
C161 H137 0.950 1_455 S
C161 C160 1.524 1_545 S
C161 C162 1.415 . S
C162 H138 0.950 . S
C162 C157 1.363 . S
C162 C161 1.415 . S
C163 H139 0.951 . S
C163 C164 1.366 . S
C163 C165 1.388 . S
C164 C163 1.366 . S
C164 C168 1.385 . S
C165 H140 0.951 . S
C165 C163 1.388 . S
C165 C166 1.366 . S
C166 C165 1.366 . S
C166 C167 1.414 . S
C166 C169 1.499 . S
C167 H141 0.950 . S
C167 C166 1.414 . S
C167 C168 1.374 . S
C168 H142 0.950 . S
C168 C164 1.385 . S
C168 C167 1.374 . S
C169 C166 1.499 . S
C169 C170 1.373 . S
C169 C171 1.389 . S
C170 H143 0.950 . S
C170 C156 1.377 . S
C170 C169 1.373 . S
C171 C155 1.377 . S
C171 C169 1.389 . S
C171 C172 1.524 . S
C172 C171 1.524 . S
C172 C173 1.397 . S
C172 C177 1.363 . S
C173 H144 0.950 . S
C173 C172 1.397 . S
C173 C174 1.334 . S
C174 H145 0.950 . S
C174 C173 1.334 . S
C174 C175 1.287 . S
C175 C174 1.287 . S
C175 C176 1.524 . S
C175 H178 0.999 . S
C176 H146 0.950 . S
C176 C175 1.524 . S
C176 C177 1.415 . S
C177 H147 0.950 . S
C177 C172 1.363 . S
C177 C176 1.415 . S
H178 C175 0.999 . S
H179 C160 0.913 . S
H180 C198 0.951 . S
H181 C200 0.951 . S
H182 C202 0.950 . S
H183 C203 0.950 . S
H184 C205 0.950 . S
H185 C208 0.950 . S
H186 C209 0.950 . S
H187 C211 0.950 . S
H188 C212 0.950 . S
H189 C213 0.951 . S
H190 C215 0.951 . S
H191 C217 0.950 1_565 S
H192 C218 0.950 . S
H193 C220 0.950 . S
H194 C223 0.950 . S
H195 C224 0.950 . S
H196 C226 0.950 . S
H197 C227 0.950 . S
C198 H180 0.951 . S
C198 C199 1.366 1_556 S
C198 C200 1.388 . S
C199 C198 1.366 1_554 S
C199 C203 1.385 . S
C200 H181 0.951 . S
C200 C198 1.388 . S
C200 C201 1.366 1_556 S
C201 C200 1.366 1_554 S
C201 C202 1.414 . S
C201 C204 1.499 . S
C202 H182 0.950 . S
C202 C201 1.414 . S
C202 C203 1.374 . S
C203 H183 0.950 . S
C203 C199 1.385 . S
C203 C202 1.374 . S
C204 C201 1.499 . S
C204 C205 1.373 . S
C204 C206 1.389 1_554 S
C205 H184 0.950 . S
C205 C204 1.373 . S
C205 C221 1.377 . S
C206 C204 1.389 1_556 S
C206 C207 1.524 . S
C206 C220 1.377 . S
C207 C206 1.524 . S
C207 C208 1.397 . S
C207 C212 1.363 . S
C208 H185 0.950 . S
C208 C207 1.397 . S
C208 C209 1.334 . S
C209 H186 0.950 . S
C209 C208 1.334 . S
C209 C210 1.287 . S
C210 C209 1.287 . S
C210 C211 1.524 . S
C210 H229 0.913 . S
C211 H187 0.950 . S
C211 C210 1.524 . S
C211 C212 1.415 . S
C212 H188 0.950 . S
C212 C207 1.363 . S
C212 C211 1.415 . S
C213 H189 0.951 . S
C213 C214 1.350 1_545 S
C213 C215 1.388 . S
C214 C213 1.350 1_565 S
C214 C218 1.391 1_554 S
C215 H190 0.951 . S
C215 C213 1.388 . S
C215 C216 1.366 . S
C216 C215 1.366 . S
C216 C217 1.414 1_554 S
C216 C219 1.499 . S
C217 H191 0.950 1_545 S
C217 C216 1.414 1_556 S
C217 C218 1.374 1_545 S
C218 H192 0.950 . S
C218 C214 1.391 1_556 S
C218 C217 1.374 1_565 S
C219 C216 1.499 . S
C219 C220 1.373 1_554 S
C219 C221 1.389 . S
C220 H193 0.950 . S
C220 C206 1.377 . S
C220 C219 1.373 1_556 S
C221 C205 1.377 . S
C221 C219 1.389 . S
C221 C222 1.524 . S
C222 C221 1.524 . S
C222 C223 1.397 1_545 S
C222 C227 1.363 . S
C223 H194 0.950 . S
C223 C222 1.397 1_565 S
C223 C224 1.334 . S
C224 H195 0.950 . S
C224 C223 1.334 . S
C224 C225 1.287 . S
C225 C224 1.287 . S
C225 C226 1.524 1_565 S
C225 H228 0.999 . S
C226 H196 0.950 . S
C226 C225 1.524 1_545 S
C226 C227 1.415 . S
C227 H197 0.950 . S
C227 C222 1.363 . S
C227 C226 1.415 . S
H228 C225 0.999 . S
H229 C210 0.913 . S
H230 C248 0.951 . S
H231 C250 0.951 . S
H232 C252 0.950 . S
H233 C253 0.950 . S
H234 C255 0.950 . S
H235 C258 0.950 . S
H236 C259 0.950 . S
H237 C261 0.950 . S
H238 C262 0.950 . S
H239 C263 0.951 . S
H240 C265 0.951 . S
H241 C267 0.950 . S
H242 C268 0.950 . S
H243 C270 0.950 . S
H244 C273 0.950 . S
H245 C274 0.950 . S
H246 C276 0.950 . S
H247 C277 0.950 . S
C248 H230 0.951 . S
C248 C249 1.366 . S
C248 C250 1.388 . S
C249 C248 1.366 . S
C249 C253 1.385 . S
C250 H231 0.951 . S
C250 C248 1.388 . S
C250 C251 1.366 . S
C251 C250 1.366 . S
C251 C252 1.414 . S
C251 C254 1.499 . S
C252 H232 0.950 . S
C252 C251 1.414 . S
C252 C253 1.374 . S
C253 H233 0.950 . S
C253 C249 1.385 . S
C253 C252 1.374 . S
C254 C251 1.499 . S
C254 C255 1.373 . S
C254 C256 1.389 . S
C255 H234 0.950 . S
C255 C254 1.373 . S
C255 C271 1.377 . S
C256 C254 1.389 . S
C256 C257 1.524 . S
C256 C270 1.377 . S
C257 C256 1.524 . S
C257 C258 1.397 . S
C257 C262 1.363 . S
C258 H235 0.950 . S
C258 C257 1.397 . S
C258 C259 1.334 . S
C259 H236 0.950 . S
C259 C258 1.334 . S
C259 C260 1.287 . S
C260 C259 1.287 . S
C260 C261 1.524 . S
C260 H279 0.913 . S
C261 H237 0.950 . S
C261 C260 1.524 . S
C261 C262 1.415 . S
C262 H238 0.950 . S
C262 C257 1.363 . S
C262 C261 1.415 . S
C263 H239 0.951 . S
C263 C264 1.379 . S
C263 C265 1.388 . S
C264 C263 1.379 . S
C264 C268 1.362 1_655 S
C265 H240 0.951 . S
C265 C263 1.388 . S
C265 C266 1.366 1_655 S
C266 C265 1.366 1_455 S
C266 C267 1.414 . S
C266 C269 1.499 . S
C267 H241 0.950 . S
C267 C266 1.414 . S
C267 C268 1.374 . S
C268 H242 0.950 . S
C268 C264 1.362 1_455 S
C268 C267 1.374 . S
C269 C266 1.499 . S
C269 C270 1.373 . S
C269 C271 1.389 . S
C270 H243 0.950 . S
C270 C256 1.377 . S
C270 C269 1.373 . S
C271 C255 1.377 . S
C271 C269 1.389 . S
C271 C272 1.524 . S
C272 C271 1.524 . S
C272 C273 1.397 . S
C272 C277 1.363 1_455 S
C273 H244 0.950 . S
C273 C272 1.397 . S
C273 C274 1.334 . S
C274 H245 0.950 . S
C274 C273 1.334 . S
C274 C275 1.287 1_455 S
C275 C274 1.287 1_655 S
C275 C276 1.524 . S
C275 H278 0.999 . S
C276 H246 0.950 . S
C276 C275 1.524 . S
C276 C277 1.415 . S
C277 H247 0.950 . S
C277 C272 1.363 1_655 S
C277 C276 1.415 . S
H278 C275 0.999 . S
H279 C260 0.913 . S
H280 C298 0.951 . S
H281 C300 0.951 . S
H282 C302 0.950 . S
H283 C303 0.950 . S
H284 C305 0.950 . S
H285 C308 0.950 . S
H286 C309 0.950 . S
H287 C311 0.950 . S
H288 C312 0.950 . S
H289 C313 0.951 . S
H290 C315 0.951 . S
H291 C317 0.950 . S
H292 C318 0.950 . S
H293 C320 0.950 . S
H294 C323 0.950 . S
H295 C324 0.950 . S
H296 C326 0.950 . S
H297 C327 0.950 . S
C298 H280 0.951 . S
C298 C299 1.366 . S
C298 C300 1.388 . S
C299 C298 1.366 . S
C299 C303 1.385 . S
C300 H281 0.951 . S
C300 C298 1.388 . S
C300 C301 1.366 . S
C301 C300 1.366 . S
C301 C302 1.414 . S
C301 C304 1.499 . S
C302 H282 0.950 . S
C302 C301 1.414 . S
C302 C303 1.374 . S
C303 H283 0.950 . S
C303 C299 1.385 . S
C303 C302 1.374 . S
C304 C301 1.499 . S
C304 C305 1.373 . S
C304 C306 1.389 . S
C305 H284 0.950 . S
C305 C304 1.373 . S
C305 C321 1.377 . S
C306 C304 1.389 . S
C306 C307 1.524 . S
C306 C320 1.377 . S
C307 C306 1.524 . S
C307 C308 1.397 . S
C307 C312 1.363 . S
C308 H285 0.950 . S
C308 C307 1.397 . S
C308 C309 1.334 . S
C309 H286 0.950 . S
C309 C308 1.334 . S
C309 C310 1.287 . S
C310 C309 1.287 . S
C310 C311 1.524 . S
C310 H329 0.913 . S
C311 H287 0.950 . S
C311 C310 1.524 . S
C311 C312 1.415 . S
C312 H288 0.950 . S
C312 C307 1.363 . S
C312 C311 1.415 . S
C313 H289 0.951 . S
C313 C314 1.366 . S
C313 C315 1.388 . S
C314 C313 1.366 . S
C314 C318 1.385 . S
C315 H290 0.951 . S
C315 C313 1.388 . S
C315 C316 1.366 . S
C316 C315 1.366 . S
C316 C317 1.414 . S
C316 C319 1.499 . S
C317 H291 0.950 . S
C317 C316 1.414 . S
C317 C318 1.374 . S
C318 H292 0.950 . S
C318 C314 1.385 . S
C318 C317 1.374 . S
C319 C316 1.499 . S
C319 C320 1.373 . S
C319 C321 1.389 . S
C320 H293 0.950 . S
C320 C306 1.377 . S
C320 C319 1.373 . S
C321 C305 1.377 . S
C321 C319 1.389 . S
C321 C322 1.524 . S
C322 C321 1.524 . S
C322 C323 1.397 . S
C322 C327 1.363 . S
C323 H294 0.950 . S
C323 C322 1.397 . S
C323 C324 1.334 . S
C324 H295 0.950 . S
C324 C323 1.334 . S
C324 C325 1.287 . S
C325 C324 1.287 . S
C325 C326 1.524 . S
C325 H328 0.999 . S
C326 H296 0.950 . S
C326 C325 1.524 . S
C326 C327 1.415 . S
C327 H297 0.950 . S
C327 C322 1.363 . S
C327 C326 1.415 . S
H328 C325 0.999 . S
H329 C310 0.913 . S
H330 C348 0.951 . S
H331 C350 0.951 . S
H332 C352 0.950 . S
H333 C353 0.939 1_655 S
H334 C355 0.950 . S
H335 C358 0.950 . S
H336 C359 0.950 . S
H337 C361 0.950 . S
H338 C362 0.950 . S
H339 C363 0.951 . S
H340 C365 0.951 . S
H341 C367 0.950 . S
H342 C368 0.950 . S
H343 C370 0.950 . S
H344 C373 0.950 . S
H345 C374 0.950 . S
H346 C376 0.950 . S
H347 C377 0.950 . S
C348 H330 0.951 . S
C348 C349 1.366 . S
C348 C350 1.388 . S
C349 C348 1.366 . S
C349 C353 1.407 . S
C350 H331 0.951 . S
C350 C348 1.388 . S
C350 C351 1.366 . S
C351 C350 1.366 . S
C351 C352 1.414 1_455 S
C351 C354 1.499 1_455 S
C352 H332 0.950 . S
C352 C351 1.414 1_655 S
C352 C353 1.363 1_655 S
C353 H333 0.939 1_455 S
C353 C349 1.407 . S
C353 C352 1.363 1_455 S
C354 C351 1.499 1_655 S
C354 C355 1.373 . S
C354 C356 1.389 1_655 S
C355 H334 0.950 . S
C355 C354 1.373 . S
C355 C371 1.377 . S
C356 C354 1.389 1_455 S
C356 C357 1.524 . S
C356 C370 1.377 1_455 S
C357 C356 1.524 . S
C357 C358 1.397 . S
C357 C362 1.363 . S
C358 H335 0.950 . S
C358 C357 1.397 . S
C358 C359 1.334 . S
C359 H336 0.950 . S
C359 C358 1.334 . S
C359 C360 1.287 . S
C360 C359 1.287 . S
C360 C361 1.524 . S
C360 H379 0.913 . S
C361 H337 0.950 . S
C361 C360 1.524 . S
C361 C362 1.415 . S
C362 H338 0.950 . S
C362 C357 1.363 . S
C362 C361 1.415 . S
C363 H339 0.951 . S
C363 C364 1.366 . S
C363 C365 1.388 . S
C364 C363 1.366 . S
C364 C368 1.385 . S
C365 H340 0.951 . S
C365 C363 1.388 . S
C365 C366 1.366 . S
C366 C365 1.366 . S
C366 C367 1.414 . S
C366 C369 1.499 . S
C367 H341 0.950 . S
C367 C366 1.414 . S
C367 C368 1.374 . S
C368 H342 0.950 . S
C368 C364 1.385 . S
C368 C367 1.374 . S
C369 C366 1.499 . S
C369 C370 1.373 . S
C369 C371 1.389 . S
C370 H343 0.950 . S
C370 C356 1.377 1_655 S
C370 C369 1.373 . S
C371 C355 1.377 . S
C371 C369 1.389 . S
C371 C372 1.524 . S
C372 C371 1.524 . S
C372 C373 1.397 . S
C372 C377 1.363 . S
C373 H344 0.950 . S
C373 C372 1.397 . S
C373 C374 1.334 . S
C374 H345 0.950 . S
C374 C373 1.334 . S
C374 C375 1.287 . S
C375 C374 1.287 . S
C375 C376 1.524 . S
C375 H378 0.999 . S
C376 H346 0.950 . S
C376 C375 1.524 . S
C376 C377 1.415 . S
C377 H347 0.950 . S
C377 C372 1.363 . S
C377 C376 1.415 . S
H378 C375 0.999 . S
H379 C360 0.913 . S
H380 C398 0.951 . S
H381 C400 0.951 . S
H382 C402 0.950 . S
H383 C403 0.950 . S
H384 C405 0.950 . S
H385 C408 0.950 . S
H386 C409 0.950 . S
H387 C411 0.950 . S
H388 C412 0.950 . S
H389 C413 0.951 . S
H390 C415 0.951 . S
H391 C417 0.950 . S
H392 C418 0.950 1_565 S
H393 C420 0.950 . S
H394 C423 0.950 . S
H395 C424 0.950 . S
H396 C426 0.950 . S
H397 C427 0.950 . S
C398 H380 0.951 . S
C398 C399 1.366 . S
C398 C400 1.388 . S
C399 C398 1.366 . S
C399 C403 1.385 . S
C400 H381 0.951 . S
C400 C398 1.388 . S
C400 C401 1.366 . S
C401 C400 1.366 . S
C401 C402 1.414 . S
C401 C404 1.499 . S
C402 H382 0.950 . S
C402 C401 1.414 . S
C402 C403 1.374 . S
C403 H383 0.950 . S
C403 C399 1.385 . S
C403 C402 1.374 . S
C404 C401 1.499 . S
C404 C405 1.373 . S
C404 C406 1.389 . S
C405 H384 0.950 . S
C405 C404 1.373 . S
C405 C421 1.377 . S
C406 C404 1.389 . S
C406 C407 1.524 . S
C406 C420 1.377 . S
C407 C406 1.524 . S
C407 C408 1.397 . S
C407 C412 1.363 . S
C408 H385 0.950 . S
C408 C407 1.397 . S
C408 C409 1.334 1_655 S
C409 H386 0.950 . S
C409 C408 1.334 1_455 S
C409 C410 1.287 . S
C410 C409 1.287 . S
C410 C411 1.524 . S
C410 H429 0.913 . S
C411 H387 0.950 . S
C411 C410 1.524 . S
C411 C412 1.415 1_455 S
C412 H388 0.950 . S
C412 C407 1.363 . S
C412 C411 1.415 1_655 S
C413 H389 0.951 . S
C413 C414 1.366 . S
C413 C415 1.388 . S
C414 C413 1.366 . S
C414 C418 1.385 . S
C415 H390 0.951 . S
C415 C413 1.388 . S
C415 C416 1.358 1_545 S
C416 C415 1.358 1_565 S
C416 C417 1.417 . S
C416 C419 1.503 . S
C417 H391 0.950 . S
C417 C416 1.417 . S
C417 C418 1.374 1_565 S
C418 H392 0.950 1_545 S
C418 C414 1.385 . S
C418 C417 1.374 1_545 S
C419 C416 1.503 . S
C419 C420 1.373 . S
C419 C421 1.389 . S
C420 H393 0.950 . S
C420 C406 1.377 . S
C420 C419 1.373 . S
C421 C405 1.377 . S
C421 C419 1.389 . S
C421 C422 1.524 . S
C422 C421 1.524 . S
C422 C423 1.397 . S
C422 C427 1.363 . S
C423 H394 0.950 . S
C423 C422 1.397 . S
C423 C424 1.334 . S
C424 H395 0.950 . S
C424 C423 1.334 . S
C424 C425 1.287 . S
C425 C424 1.287 . S
C425 C426 1.524 . S
C425 H428 0.999 . S
C426 H396 0.950 . S
C426 C425 1.524 . S
C426 C427 1.415 . S
C427 H397 0.950 . S
C427 C422 1.363 . S
C427 C426 1.415 . S
H428 C425 0.999 . S
H429 C410 0.913 . S
H430 C448 0.951 . S
H431 C450 0.951 . S
H432 C452 0.950 . S
H433 C453 0.950 . S
H434 C455 0.950 . S
H435 C458 0.950 . S
H436 C459 0.950 1_655 S
H437 C461 0.950 . S
H438 C462 0.950 . S
H439 C463 0.951 . S
H440 C465 0.951 . S
H441 C467 0.950 . S
H442 C468 0.950 . S
H443 C470 0.950 . S
H444 C473 0.950 . S
H445 C474 0.950 . S
H446 C476 0.950 . S
H447 C477 0.950 . S
C448 H430 0.951 . S
C448 C449 1.366 . S
C448 C450 1.388 . S
C449 C448 1.366 . S
C449 C453 1.385 . S
C450 H431 0.951 . S
C450 C448 1.388 . S
C450 C451 1.366 . S
C451 C450 1.366 . S
C451 C452 1.414 . S
C451 C454 1.499 . S
C452 H432 0.950 . S
C452 C451 1.414 . S
C452 C453 1.374 . S
C453 H433 0.950 . S
C453 C449 1.385 . S
C453 C452 1.374 . S
C454 C451 1.499 . S
C454 C455 1.373 . S
C454 C456 1.389 . S
C455 H434 0.950 . S
C455 C454 1.373 . S
C455 C471 1.377 . S
C456 C454 1.389 . S
C456 C457 1.524 . S
C456 C470 1.377 . S
C457 C456 1.524 . S
C457 C458 1.397 . S
C457 C462 1.363 . S
C458 H435 0.950 . S
C458 C457 1.397 . S
C458 C459 1.334 . S
C459 H436 0.950 1_455 S
C459 C458 1.334 . S
C459 C460 1.287 . S
C460 C459 1.287 . S
C460 C461 1.524 . S
C460 H479 0.913 1_455 S
C461 H437 0.950 . S
C461 C460 1.524 . S
C461 C462 1.415 . S
C462 H438 0.950 . S
C462 C457 1.363 . S
C462 C461 1.415 . S
C463 H439 0.951 . S
C463 C464 1.366 . S
C463 C465 1.388 . S
C464 C463 1.366 . S
C464 C468 1.385 . S
C465 H440 0.951 . S
C465 C463 1.388 . S
C465 C466 1.366 . S
C466 C465 1.366 . S
C466 C467 1.414 . S
C466 C469 1.499 . S
C467 H441 0.950 . S
C467 C466 1.414 . S
C467 C468 1.374 . S
C468 H442 0.950 . S
C468 C464 1.385 . S
C468 C467 1.374 . S
C469 C466 1.499 . S
C469 C470 1.373 . S
C469 C471 1.389 . S
C470 H443 0.950 . S
C470 C456 1.377 . S
C470 C469 1.373 . S
C471 C455 1.377 . S
C471 C469 1.389 . S
C471 C472 1.524 . S
C472 C471 1.524 . S
C472 C473 1.397 . S
C472 C477 1.363 . S
C473 H444 0.950 . S
C473 C472 1.397 . S
C473 C474 1.334 . S
C474 H445 0.950 . S
C474 C473 1.334 . S
C474 C475 1.287 . S
C475 C474 1.287 . S
C475 C476 1.524 . S
C475 H478 0.999 . S
C476 H446 0.950 . S
C476 C475 1.524 . S
C476 C477 1.415 . S
C477 H447 0.950 . S
C477 C472 1.363 . S
C477 C476 1.415 . S
H478 C475 0.999 . S
H479 C460 0.913 1_655 S
H480 C498 0.951 . S
H481 C500 0.958 . S
H482 C502 0.950 . S
H483 C503 0.950 . S
H484 C505 0.950 . S
H485 C508 0.950 . S
H486 C509 0.950 . S
H487 C511 0.950 . S
H488 C512 0.950 1_565 S
H489 C513 0.951 . S
H490 C515 0.951 . S
H491 C517 0.950 . S
H492 C518 0.950 . S
H493 C520 0.950 . S
H494 C523 0.950 . S
H495 C524 0.950 . S
H496 C526 0.950 . S
H497 C527 0.950 . S
C498 H480 0.951 . S
C498 C499 1.366 . S
C498 C500 1.382 1_545 S
C499 C498 1.366 . S
C499 C503 1.385 . S
C500 H481 0.958 . S
C500 C498 1.382 1_565 S
C500 C501 1.365 1_565 S
C501 C500 1.365 1_545 S
C501 C502 1.414 . S
C501 C504 1.499 1_545 S
C502 H482 0.950 . S
C502 C501 1.414 . S
C502 C503 1.374 . S
C503 H483 0.950 . S
C503 C499 1.385 . S
C503 C502 1.374 . S
C504 C501 1.499 1_565 S
C504 C505 1.373 . S
C504 C506 1.389 . S
C505 H484 0.950 . S
C505 C504 1.373 . S
C505 C521 1.377 . S
C506 C504 1.389 . S
C506 C507 1.524 1_565 S
C506 C520 1.377 . S
C507 C506 1.524 1_545 S
C507 C508 1.397 . S
C507 C512 1.363 . S
C508 H485 0.950 . S
C508 C507 1.397 . S
C508 C509 1.334 . S
C509 H486 0.950 . S
C509 C508 1.334 . S
C509 C510 1.307 . S
C510 C509 1.307 . S
C510 C511 1.516 1_655 S
C510 H529 0.899 1_655 S
C511 H487 0.950 . S
C511 C510 1.516 1_455 S
C511 C512 1.415 1_455 S
C512 H488 0.950 1_545 S
C512 C507 1.363 . S
C512 C511 1.415 1_655 S
C513 H489 0.951 . S
C513 C514 1.366 . S
C513 C515 1.388 . S
C514 C513 1.366 . S
C514 C518 1.385 . S
C515 H490 0.951 . S
C515 C513 1.388 . S
C515 C516 1.366 . S
C516 C515 1.366 . S
C516 C517 1.414 . S
C516 C519 1.499 . S
C517 H491 0.950 . S
C517 C516 1.414 . S
C517 C518 1.374 . S
C518 H492 0.950 . S
C518 C514 1.385 . S
C518 C517 1.374 . S
C519 C516 1.499 . S
C519 C520 1.373 . S
C519 C521 1.389 . S
C520 H493 0.950 . S
C520 C506 1.377 . S
C520 C519 1.373 . S
C521 C505 1.377 . S
C521 C519 1.389 . S
C521 C522 1.524 . S
C522 C521 1.524 . S
C522 C523 1.397 . S
C522 C527 1.363 . S
C523 H494 0.950 . S
C523 C522 1.397 . S
C523 C524 1.334 . S
C524 H495 0.950 . S
C524 C523 1.334 . S
C524 C525 1.287 . S
C525 C524 1.287 . S
C525 C526 1.524 . S
C525 H528 0.999 . S
C526 H496 0.950 . S
C526 C525 1.524 . S
C526 C527 1.415 . S
C527 H497 0.950 . S
C527 C522 1.363 . S
C527 C526 1.415 . S
H528 C525 0.999 . S
H529 C510 0.899 1_455 S
H530 C548 0.951 . S
H531 C550 0.951 . S
H532 C552 0.950 . S
H533 C553 0.950 . S
H534 C555 0.950 . S
H535 C558 0.950 . S
H536 C559 0.950 . S
H537 C561 0.950 . S
H538 C562 0.950 . S
H539 C563 0.951 . S
H540 C565 0.951 . S
H541 C567 0.950 . S
H542 C568 0.950 . S
H543 C570 0.950 . S
H544 C573 0.950 . S
H545 C574 0.950 . S
H546 C576 0.950 . S
H547 C577 0.950 . S
C548 H530 0.951 . S
C548 C549 1.366 . S
C548 C550 1.388 . S
C549 C548 1.366 . S
C549 C553 1.385 . S
C550 H531 0.951 . S
C550 C548 1.388 . S
C550 C551 1.366 . S
C551 C550 1.366 . S
C551 C552 1.414 . S
C551 C554 1.499 . S
C552 H532 0.950 . S
C552 C551 1.414 . S
C552 C553 1.374 . S
C553 H533 0.950 . S
C553 C549 1.385 . S
C553 C552 1.374 . S
C554 C551 1.499 . S
C554 C555 1.373 . S
C554 C556 1.389 . S
C555 H534 0.950 . S
C555 C554 1.373 . S
C555 C571 1.377 . S
C556 C554 1.389 . S
C556 C557 1.524 . S
C556 C570 1.377 . S
C557 C556 1.524 . S
C557 C558 1.397 . S
C557 C562 1.363 . S
C558 H535 0.950 . S
C558 C557 1.397 . S
C558 C559 1.334 . S
C559 H536 0.950 . S
C559 C558 1.334 . S
C559 C560 1.287 . S
C560 C559 1.287 . S
C560 C561 1.524 . S
C560 H579 0.913 . S
C561 H537 0.950 . S
C561 C560 1.524 . S
C561 C562 1.415 . S
C562 H538 0.950 . S
C562 C557 1.363 . S
C562 C561 1.415 . S
C563 H539 0.951 . S
C563 C564 1.366 . S
C563 C565 1.388 . S
C564 C563 1.366 . S
C564 C568 1.385 . S
C565 H540 0.951 . S
C565 C563 1.388 . S
C565 C566 1.366 . S
C566 C565 1.366 . S
C566 C567 1.414 . S
C566 C569 1.499 . S
C567 H541 0.950 . S
C567 C566 1.414 . S
C567 C568 1.374 . S
C568 H542 0.950 . S
C568 C564 1.385 . S
C568 C567 1.374 . S
C569 C566 1.499 . S
C569 C570 1.373 . S
C569 C571 1.389 . S
C570 H543 0.950 . S
C570 C556 1.377 . S
C570 C569 1.373 . S
C571 C555 1.377 . S
C571 C569 1.389 . S
C571 C572 1.524 . S
C572 C571 1.524 . S
C572 C573 1.397 . S
C572 C577 1.363 . S
C573 H544 0.950 . S
C573 C572 1.397 . S
C573 C574 1.334 . S
C574 H545 0.950 . S
C574 C573 1.334 . S
C574 C575 1.287 . S
C575 C574 1.287 . S
C575 C576 1.524 . S
C575 H578 0.999 . S
C576 H546 0.950 . S
C576 C575 1.524 . S
C576 C577 1.415 . S
C577 H547 0.950 . S
C577 C572 1.363 . S
C577 C576 1.415 . S
H578 C575 0.999 . S
H579 C560 0.913 . S
H580 C598 0.951 . S
H581 C600 0.951 . S
H582 C602 0.950 . S
H583 C603 0.950 . S
H584 C605 0.950 . S
H585 C608 0.950 . S
H586 C609 0.950 . S
H587 C611 0.950 . S
H588 C612 0.950 . S
H589 C613 0.951 . S
H590 C615 0.951 . S
H591 C617 0.950 . S
H592 C618 0.950 . S
H593 C620 0.950 . S
H594 C623 0.950 . S
H595 C624 0.950 . S
H596 C626 0.950 . S
H597 C627 0.950 . S
C598 H580 0.951 . S
C598 C599 1.366 . S
C598 C600 1.388 . S
C599 C598 1.366 . S
C599 C603 1.385 . S
C600 H581 0.951 . S
C600 C598 1.388 . S
C600 C601 1.366 . S
C601 C600 1.366 . S
C601 C602 1.414 . S
C601 C604 1.499 . S
C602 H582 0.950 . S
C602 C601 1.414 . S
C602 C603 1.374 . S
C603 H583 0.950 . S
C603 C599 1.385 . S
C603 C602 1.374 . S
C604 C601 1.499 . S
C604 C605 1.373 . S
C604 C606 1.389 . S
C605 H584 0.950 . S
C605 C604 1.373 . S
C605 C621 1.377 . S
C606 C604 1.389 . S
C606 C607 1.524 . S
C606 C620 1.377 . S
C607 C606 1.524 . S
C607 C608 1.397 . S
C607 C612 1.363 . S
C608 H585 0.950 . S
C608 C607 1.397 . S
C608 C609 1.334 . S
C609 H586 0.950 . S
C609 C608 1.334 . S
C609 C610 1.287 . S
C610 C609 1.287 . S
C610 C611 1.524 . S
C610 H629 0.913 . S
C611 H587 0.950 . S
C611 C610 1.524 . S
C611 C612 1.415 . S
C612 H588 0.950 . S
C612 C607 1.363 . S
C612 C611 1.415 . S
C613 H589 0.951 . S
C613 C614 1.366 . S
C613 C615 1.388 . S
C614 C613 1.366 . S
C614 C618 1.385 . S
C615 H590 0.951 . S
C615 C613 1.388 . S
C615 C616 1.366 . S
C616 C615 1.366 . S
C616 C617 1.414 . S
C616 C619 1.499 . S
C617 H591 0.950 . S
C617 C616 1.414 . S
C617 C618 1.374 . S
C618 H592 0.950 . S
C618 C614 1.385 . S
C618 C617 1.374 . S
C619 C616 1.499 . S
C619 C620 1.373 . S
C619 C621 1.389 . S
C620 H593 0.950 . S
C620 C606 1.377 . S
C620 C619 1.373 . S
C621 C605 1.377 . S
C621 C619 1.389 . S
C621 C622 1.524 . S
C622 C621 1.524 . S
C622 C623 1.397 . S
C622 C627 1.363 . S
C623 H594 0.950 . S
C623 C622 1.397 . S
C623 C624 1.334 . S
C624 H595 0.950 . S
C624 C623 1.334 . S
C624 C625 1.287 . S
C625 C624 1.287 . S
C625 C626 1.524 . S
C625 H628 0.999 . S
C626 H596 0.950 . S
C626 C625 1.524 . S
C626 C627 1.415 . S
C627 H597 0.950 . S
C627 C622 1.363 . S
C627 C626 1.415 . S
H628 C625 0.999 . S
H629 C610 0.913 . S
H630 C648 0.951 . S
H631 C650 0.951 . S
H632 C652 0.950 . S
H633 C653 0.950 . S
H634 C655 0.950 . S
H635 C658 0.950 . S
H636 C659 0.950 . S
H637 C661 0.950 . S
H638 C662 0.950 . S
H639 C663 0.951 . S
H640 C665 0.951 . S
H641 C667 0.950 . S
H642 C668 0.950 . S
H643 C670 0.950 1_455 S
H644 C673 0.950 1_455 S
H645 C674 0.950 1_455 S
H646 C676 0.950 . S
H647 C677 0.950 . S
C648 H630 0.951 . S
C648 C649 1.366 . S
C648 C650 1.388 . S
C649 C648 1.366 . S
C649 C653 1.385 . S
C650 H631 0.951 . S
C650 C648 1.388 . S
C650 C651 1.366 . S
C651 C650 1.366 . S
C651 C652 1.414 . S
C651 C654 1.499 . S
C652 H632 0.950 . S
C652 C651 1.414 . S
C652 C653 1.374 . S
C653 H633 0.950 . S
C653 C649 1.385 . S
C653 C652 1.374 . S
C654 C651 1.499 . S
C654 C655 1.373 . S
C654 C656 1.389 . S
C655 H634 0.950 . S
C655 C654 1.373 . S
C655 C671 1.377 . S
C656 C654 1.389 . S
C656 C657 1.524 . S
C656 C670 1.377 . S
C657 C656 1.524 . S
C657 C658 1.397 . S
C657 C662 1.363 1_655 S
C658 H635 0.950 . S
C658 C657 1.397 . S
C658 C659 1.334 . S
C659 H636 0.950 . S
C659 C658 1.334 . S
C659 C660 1.287 . S
C660 C659 1.287 . S
C660 C661 1.524 1_655 S
C660 H679 0.913 . S
C661 H637 0.950 . S
C661 C660 1.524 1_455 S
C661 C662 1.415 . S
C662 H638 0.950 . S
C662 C657 1.363 1_455 S
C662 C661 1.415 . S
C663 H639 0.951 . S
C663 C664 1.366 1_655 S
C663 C665 1.388 . S
C664 C663 1.366 1_455 S
C664 C668 1.385 . S
C665 H640 0.951 . S
C665 C663 1.388 . S
C665 C666 1.354 1_655 S
C666 C665 1.354 1_455 S
C666 C667 1.437 . S
C666 C669 1.489 1_455 S
C667 H641 0.950 . S
C667 C666 1.437 . S
C667 C668 1.374 . S
C668 H642 0.950 . S
C668 C664 1.385 . S
C668 C667 1.374 . S
C669 C666 1.489 1_655 S
C669 C670 1.373 . S
C669 C671 1.389 . S
C670 H643 0.950 1_655 S
C670 C656 1.377 . S
C670 C669 1.373 . S
C671 C655 1.377 . S
C671 C669 1.389 . S
C671 C672 1.524 . S
C672 C671 1.524 . S
C672 C673 1.397 . S
C672 C677 1.363 . S
C673 H644 0.950 1_655 S
C673 C672 1.397 . S
C673 C674 1.334 . S
C674 H645 0.950 1_655 S
C674 C673 1.334 . S
C674 C675 1.287 . S
C675 C674 1.287 . S
C675 C676 1.524 . S
C675 H678 0.999 . S
C676 H646 0.950 . S
C676 C675 1.524 . S
C676 C677 1.415 . S
C677 H647 0.950 . S
C677 C672 1.363 . S
C677 C676 1.415 . S
H678 C675 0.999 . S
H679 C660 0.913 . S
C99 C59 0.557 1_556 S
C114 C19 0.565 1_556 S
C149 C79 0.564 . S
C164 C39 0.561 . S
C199 C58 1.056 1_554 S
C214 C18 1.054 1_564 S
C249 C38 1.054 . S
C264 C78 1.054 1_655 S
C299 C32 1.129 . S
C314 C9 1.174 . S
C349 C29 1.178 . S
C364 C52 1.127 . S
C399 C72 1.129 . S
C414 C49 1.176 . S
C449 C69 1.178 . S
C464 C12 1.130 . S
C499 C44 1.595 . S
C514 C62 1.488 . S
C549 C2 1.489 . S
C564 C64 1.595 . S
C599 C22 1.489 . S
C614 C4 1.593 . S
C649 C42 1.490 . S
C664 C24 1.595 . S
