# Generated by pormake.
# Topology wme, (6)-cn, num edge types: 1
# Building blocks:
#     Node 0, Type 0, BuildingBlock: CUKXOW_clean_sbu_0, # of connection points: 6
#     Node 1, Type 0, BuildingBlock: CUKXOW_clean_sbu_0, # of connection points: 6
#     Node 2, Type 0, BuildingBlock: CUKXOW_clean_sbu_0, # of connection points: 6
#     Node 3, Type 0, BuildingBlock: CUKXOW_clean_sbu_0, # of connection points: 6
#     Node 4, Type 0, BuildingBlock: CUKXOW_clean_sbu_0, # of connection points: 6
#     Node 5, Type 0, BuildingBlock: CUKXOW_clean_sbu_0, # of connection points: 6
#     Node 6, Type 0, BuildingBlock: CUKXOW_clean_sbu_0, # of connection points: 6
#     Node 7, Type 0, BuildingBlock: CUKXOW_clean_sbu_0, # of connection points: 6
#     Node 8, Type 0, BuildingBlock: CUKXOW_clean_sbu_0, # of connection points: 6
#     Node 9, Type 0, BuildingBlock: CUKXOW_clean_sbu_0, # of connection points: 6
#     Node 10, Type 0, BuildingBlock: CUKXOW_clean_sbu_0, # of connection points: 6
#     Node 11, Type 0, BuildingBlock: CUKXOW_clean_sbu_0, # of connection points: 6
#     Edge 12, Type (0, 0), BuildingBlock: AJUNOK_clean_linker_0, # of connection points: 2
#     Edge 13, Type (0, 0), BuildingBlock: AJUNOK_clean_linker_0, # of connection points: 2
#     Edge 14, Type (0, 0), BuildingBlock: AJUNOK_clean_linker_0, # of connection points: 2
#     Edge 15, Type (0, 0), BuildingBlock: AJUNOK_clean_linker_0, # of connection points: 2
#     Edge 16, Type (0, 0), BuildingBlock: AJUNOK_clean_linker_0, # of connection points: 2
#     Edge 17, Type (0, 0), BuildingBlock: AJUNOK_clean_linker_0, # of connection points: 2
#     Edge 18, Type (0, 0), BuildingBlock: AJUNOK_clean_linker_0, # of connection points: 2
#     Edge 19, Type (0, 0), BuildingBlock: AJUNOK_clean_linker_0, # of connection points: 2
#     Edge 20, Type (0, 0), BuildingBlock: AJUNOK_clean_linker_0, # of connection points: 2
#     Edge 21, Type (0, 0), BuildingBlock: AJUNOK_clean_linker_0, # of connection points: 2
#     Edge 22, Type (0, 0), BuildingBlock: AJUNOK_clean_linker_0, # of connection points: 2
#     Edge 23, Type (0, 0), BuildingBlock: AJUNOK_clean_linker_0, # of connection points: 2
#     Edge 24, Type (0, 0), BuildingBlock: AJUNOK_clean_linker_0, # of connection points: 2
#     Edge 25, Type (0, 0), BuildingBlock: AJUNOK_clean_linker_0, # of connection points: 2
#     Edge 26, Type (0, 0), BuildingBlock: AJUNOK_clean_linker_0, # of connection points: 2
#     Edge 27, Type (0, 0), BuildingBlock: AJUNOK_clean_linker_0, # of connection points: 2
#     Edge 28, Type (0, 0), BuildingBlock: AJUNOK_clean_linker_0, # of connection points: 2
#     Edge 29, Type (0, 0), BuildingBlock: AJUNOK_clean_linker_0, # of connection points: 2
#     Edge 30, Type (0, 0), BuildingBlock: AJUNOK_clean_linker_0, # of connection points: 2
#     Edge 31, Type (0, 0), BuildingBlock: AJUNOK_clean_linker_0, # of connection points: 2
#     Edge 32, Type (0, 0), BuildingBlock: AJUNOK_clean_linker_0, # of connection points: 2
#     Edge 33, Type (0, 0), BuildingBlock: AJUNOK_clean_linker_0, # of connection points: 2
#     Edge 34, Type (0, 0), BuildingBlock: AJUNOK_clean_linker_0, # of connection points: 2
#     Edge 35, Type (0, 0), BuildingBlock: AJUNOK_clean_linker_0, # of connection points: 2
#     Edge 36, Type (0, 0), BuildingBlock: AJUNOK_clean_linker_0, # of connection points: 2
#     Edge 37, Type (0, 0), BuildingBlock: AJUNOK_clean_linker_0, # of connection points: 2
#     Edge 38, Type (0, 0), BuildingBlock: AJUNOK_clean_linker_0, # of connection points: 2
#     Edge 39, Type (0, 0), BuildingBlock: AJUNOK_clean_linker_0, # of connection points: 2
#     Edge 40, Type (0, 0), BuildingBlock: AJUNOK_clean_linker_0, # of connection points: 2
#     Edge 41, Type (0, 0), BuildingBlock: AJUNOK_clean_linker_0, # of connection points: 2
#     Edge 42, Type (0, 0), BuildingBlock: AJUNOK_clean_linker_0, # of connection points: 2
#     Edge 43, Type (0, 0), BuildingBlock: AJUNOK_clean_linker_0, # of connection points: 2
#     Edge 44, Type (0, 0), BuildingBlock: AJUNOK_clean_linker_0, # of connection points: 2
#     Edge 45, Type (0, 0), BuildingBlock: AJUNOK_clean_linker_0, # of connection points: 2
#     Edge 46, Type (0, 0), BuildingBlock: AJUNOK_clean_linker_0, # of connection points: 2
#     Edge 47, Type (0, 0), BuildingBlock: AJUNOK_clean_linker_0, # of connection points: 2
# Relax obj value: 0.056
# Max RMSD: 0.151
# Mean RMSD: 0.150
data_MOF--net-wme--node1-CUKXOW_clean_sbu_0--edge1-AJUNOK_clean_linker_0
_symmetry_space_group_name_H-M    P1
_symmetry_Int_Tables_number       1
_symmetry_cell_setting            triclinic
loop_
_symmetry_equiv_pos_as_xyz
'x, y, z'
_cell_length_a     24.005202
_cell_length_b     23.994046
_cell_length_c     41.510292
_cell_angle_alpha  90.541977
_cell_angle_beta   89.334369
_cell_angle_gamma 120.22725
loop_
_atom_site_label
_atom_site_type_symbol
_atom_site_fract_x
_atom_site_fract_y
_atom_site_fract_z
_atom_type_partial_charge
Tb0 Tb 0.28566 0.41108 0.12254 0.0
C1 C 0.23088 0.32099 0.06186 0.0
Tb2 Tb 0.1388 0.29951 0.12227 0.0
O3 O 0.32463 0.34641 0.13468 0.0
O4 O 0.22887 0.31499 0.13283 0.0
O5 O 0.27177 0.38038 0.07232 0.0
C6 C 1.02157 0.19646 0.12482 0.0
O7 O 0.17663 0.28084 0.0776 0.0
C8 C 0.16156 0.41825 0.12206 0.0
C9 C 0.2072 0.36659 0.188 0.0
O10 O 0.04008 0.244 0.10471 0.0
O11 O 0.06997 0.20557 0.14233 0.0
O12 O 0.11008 0.36969 0.13382 0.0
O13 O 0.19514 0.39848 0.1077 0.0
O14 O 0.16086 0.314 0.17355 0.0
O15 O 0.25685 0.41402 0.17233 0.0
C16 C 0.38986 0.5281 0.11844 0.0
O17 O 0.33745 0.51418 0.13428 0.0
O18 O 0.3835 0.4761 0.10507 0.0
C19 C 0.26736 0.2953 0.13652 0.0
Tb20 Tb 0.89758 0.27168 0.6267 0.0
C21 C 0.92063 0.21931 0.55877 0.0
Tb22 Tb 0.8526 0.12192 0.61862 0.0
O23 O 0.99092 0.29181 0.64753 0.0
O24 O 0.93687 0.2122 0.61906 0.0
O25 O 0.92184 0.26766 0.57577 0.0
C26 C 0.84642 1.00891 0.62506 0.0
O27 O 0.89608 0.15948 0.57054 0.0
C28 C 0.75493 0.14325 0.61911 0.0
C29 C 0.85416 0.18387 0.68732 0.0
O30 O 0.82445 0.02542 0.60056 0.0
O31 O 0.87418 0.05711 0.64502 0.0
O32 O 0.74787 0.08612 0.61695 0.0
O33 O 0.81408 0.18223 0.62022 0.0
O34 O 0.86184 0.14048 0.67067 0.0
O35 O 0.85317 0.23304 0.67344 0.0
C36 C 0.8929 0.3801 0.62054 0.0
O37 O 0.9235 0.36914 0.64301 0.0
O38 O 0.8659 0.33041 0.60152 0.0
C39 C 0.98477 0.23751 0.63695 0.0
Tb40 Tb 0.64286 0.90323 0.13118 0.0
C41 C 0.72339 0.92989 0.06577 0.0
Tb42 Tb 0.75387 0.86589 0.12541 0.0
O43 O 0.70881 0.99491 0.15566 0.0
O44 O 0.74333 0.94779 0.12703 0.0
O45 O 0.66697 0.91475 0.07951 0.0
C46 C 0.86015 0.85662 0.12363 0.0
O47 O 0.76684 0.91984 0.08054 0.0
C48 C 0.63556 0.76517 0.11882 0.0
C49 C 0.69047 0.86648 0.19399 0.0
O50 O 0.81656 0.83667 0.10136 0.0
O51 O 0.84492 0.88397 0.14663 0.0
O52 O 0.68739 0.76152 0.11632 0.0
O53 O 0.65394 0.82318 0.12404 0.0
O54 O 0.74025 0.8691 0.1778 0.0
O55 O 0.64333 0.87144 0.18012 0.0
C56 C 0.52874 0.89597 0.12394 0.0
O57 O 0.58462 0.94644 0.11789 0.0
O58 O 0.53739 0.85011 0.1344 0.0
C59 C 0.76027 0.99296 0.14687 0.0
Tb60 Tb 0.76483 0.63088 0.63337 0.0
C61 C 0.81101 0.71151 0.56712 0.0
Tb62 Tb 0.90767 0.73294 0.62421 0.0
O63 O 0.7426 0.69979 0.65762 0.0
O64 O 0.8196 0.73046 0.62642 0.0
O65 O 0.7668 0.6579 0.58207 0.0
C66 C 0.02893 0.83353 0.62569 0.0
O67 O 0.86786 0.75087 0.58071 0.0
C68 C 0.87512 0.61192 0.61193 0.0
C69 C 0.85252 0.67693 0.69455 0.0
O70 O 1.0091 0.78096 0.60909 0.0
O71 O 0.9801 0.82972 0.64148 0.0
O72 O 0.92043 0.66142 0.59699 0.0
O73 O 0.85387 0.6323 0.63408 0.0
O74 O 0.89923 0.72365 0.67699 0.0
O75 O 0.7994 0.62911 0.68145 0.0
C76 C 0.65658 0.51589 0.62739 0.0
O77 O 0.66409 0.56281 0.64624 0.0
O78 O 0.71015 0.53402 0.61172 0.0
C79 C 0.79511 0.75006 0.64708 0.0
Tb80 Tb 0.15404 0.7641 0.13253 0.0
C81 C 0.11497 0.80798 0.06907 0.0
Tb82 Tb 0.18683 0.90969 0.12519 0.0
O83 O 0.04976 0.72816 0.13003 0.0
O84 O 0.11369 0.82183 0.14518 0.0
O85 O 0.13408 0.7698 0.08195 0.0
C86 C 0.20422 0.02787 0.13219 0.0
O87 O 0.12813 0.86435 0.08224 0.0
C88 C 0.28684 0.89375 0.11099 0.0
C89 C 0.19389 0.85426 0.19374 0.0
O90 O 0.16027 0.98283 0.11401 0.0
O91 O 0.23645 1.00546 0.14645 0.0
O92 O 0.28742 0.94757 0.10755 0.0
O93 O 0.23053 0.85397 0.1195 0.0
O94 O 0.18305 0.89548 0.17748 0.0
O95 O 0.19386 0.80404 0.17984 0.0
C96 C 0.16961 0.6616 0.13256 0.0
O97 O 0.13707 0.67387 0.15398 0.0
O98 O 0.19266 0.70676 0.11097 0.0
C99 C 0.05604 0.78399 0.13753 0.0
Tb100 Tb 0.40914 0.1474 0.62943 0.0
C101 C 0.32248 0.09698 0.56784 0.0
Tb102 Tb 0.29719 0.17047 0.62507 0.0
O103 O 0.34605 0.04226 0.62611 0.0
O104 O 0.31195 0.09937 0.64593 0.0
O105 O 0.38094 0.11802 0.57976 0.0
C106 C 0.19172 0.18008 0.63021 0.0
O107 O 0.28026 0.1103 0.5819 0.0
C108 C 0.41115 0.27525 0.61745 0.0
C109 C 0.36144 0.18395 0.69158 0.0
O110 O 0.20251 0.14916 0.60731 0.0
O111 O 0.23967 0.20465 0.64972 0.0
O112 O 0.36 0.27498 0.62724 0.0
O113 O 0.39496 0.21908 0.60799 0.0
O114 O 0.30582 0.16056 0.67641 0.0
O115 O 0.41377 0.19331 0.67593 0.0
C116 C 0.52652 0.16218 0.63181 0.0
O117 O 0.4775 0.1224 0.64929 0.0
O118 O 0.50933 0.19358 0.61299 0.0
C119 C 0.29523 0.043 0.63672 0.0
Tb120 Tb 0.64473 0.76046 0.3961 0.0
C121 C 0.71857 0.80712 0.46308 0.0
Tb122 Tb 0.74711 0.90265 0.40378 0.0
O123 O 0.71537 0.73771 0.37345 0.0
O124 O 0.74465 0.81471 0.4042 0.0
O125 O 0.66508 0.76383 0.44806 0.0
C126 C 0.84857 0.02275 0.39883 0.0
O127 O 0.76075 0.86232 0.44867 0.0
C128 C 0.628 0.87605 0.41524 0.0
C129 C 0.68942 0.84559 0.33418 0.0
O130 O 0.80552 1.00212 0.42164 0.0
O131 O 0.8349 0.97556 0.37901 0.0
O132 O 0.67884 0.92217 0.4287 0.0
O133 O 0.64622 0.85022 0.39421 0.0
O134 O 0.73816 0.89135 0.35098 0.0
O135 O 0.64142 0.79377 0.34802 0.0
C136 C 0.53077 0.65 0.39977 0.0
O137 O 0.58045 0.65921 0.38269 0.0
O138 O 0.54567 0.70304 0.41518 0.0
C139 C 0.76537 0.78918 0.38484 0.0
Tb140 Tb 0.90466 0.63125 0.89492 0.0
C141 C 0.93137 0.70659 0.96253 0.0
Tb142 Tb 0.86561 0.74016 0.9038 0.0
O143 O 0.99929 0.70233 0.87332 0.0
O144 O 0.948 0.73097 0.90207 0.0
O145 O 0.92915 0.65754 0.94579 0.0
C146 C 0.85673 0.84628 0.9036 0.0
O147 O 0.91035 0.74458 0.95081 0.0
C148 C 0.76433 0.62232 0.904 0.0
C149 C 0.8654 0.68096 0.83508 0.0
O150 O 0.83707 0.80444 0.92686 0.0
O151 O 0.8837 0.82953 0.88111 0.0
O152 O 0.7605 0.67407 0.90611 0.0
O153 O 0.82298 0.6401 0.90251 0.0
O154 O 0.87617 0.7333 0.85157 0.0
O155 O 0.86037 0.62906 0.8491 0.0
C156 C 0.89734 0.51594 0.89582 0.0
O157 O 0.93007 0.56187 0.87528 0.0
O158 O 0.87004 0.53577 0.91651 0.0
C159 C 0.9959 0.75203 0.88376 0.0
Tb160 Tb 0.28702 0.89441 0.39562 0.0
C161 C 0.23227 0.90198 0.46526 0.0
Tb162 Tb 0.14273 0.84761 0.40412 0.0
O163 O 0.30444 0.98566 0.37372 0.0
O164 O 0.22983 0.93505 0.40649 0.0
O165 O 0.27643 0.89603 0.44827 0.0
C166 C 1.02367 0.82853 0.39833 0.0
O167 O 0.17518 0.88618 0.45277 0.0
C168 C 0.17693 0.76127 0.41244 0.0
C169 C 0.20757 0.86558 0.33355 0.0
O170 O 0.07402 0.88171 0.40751 0.0
O171 O 0.04009 0.78541 0.39297 0.0
O172 O 0.12965 0.76112 0.42815 0.0
O173 O 0.19913 0.80611 0.39221 0.0
O174 O 0.15993 0.86302 0.35159 0.0
O175 O 0.26038 0.87054 0.34599 0.0
C176 C 0.39559 0.89034 0.39957 0.0
O177 O 0.39157 0.94232 0.40177 0.0
O178 O 0.33877 0.84107 0.39462 0.0
C179 C 0.25347 0.98182 0.38757 0.0
Tb180 Tb 0.40994 0.27754 0.89583 0.0
C181 C 0.32735 0.22177 0.95907 0.0
Tb182 Tb 0.30861 0.13392 0.89902 0.0
O183 O 0.33928 0.30857 0.90452 0.0
O184 O 0.31237 0.21929 0.88359 0.0
O185 O 0.38562 0.26274 0.94732 0.0
C186 C 0.20908 1.01539 0.89078 0.0
O187 O 0.28684 0.16863 0.94325 0.0
C188 C 0.42756 0.16527 0.91527 0.0
C189 C 0.36605 0.19895 0.83096 0.0
O190 O 0.20727 0.06245 0.90545 0.0
O191 O 0.26747 0.03487 0.88091 0.0
O192 O 0.37572 0.11767 0.92779 0.0
O193 O 0.40976 0.18968 0.89413 0.0
O194 O 0.32014 0.14903 0.84715 0.0
O195 O 0.41001 0.25309 0.84513 0.0
C196 C 0.52531 0.38242 0.89576 0.0
O197 O 0.47766 0.37333 0.87751 0.0
O198 O 0.5073 0.33317 0.91453 0.0
C199 C 0.291 0.25355 0.89519 0.0
Tb200 Tb 0.15727 0.40229 0.39307 0.0
C201 C 0.10561 0.30623 0.45118 0.0
Tb202 Tb 0.18193 0.291 0.39208 0.0
O203 O 0.05151 0.33888 0.39461 0.0
O204 O 0.11001 0.30767 0.3741 0.0
O205 O 0.1275 0.36662 0.44193 0.0
C206 C 0.18763 0.1831 0.38913 0.0
O207 O 0.11777 0.26618 0.43425 0.0
C208 C 0.28712 0.40486 0.39902 0.0
C209 C 0.19655 0.36375 0.32794 0.0
O210 O 0.18192 0.20971 0.41539 0.0
O211 O 0.18902 0.21658 0.36464 0.0
O212 O 0.28572 0.35442 0.38706 0.0
O213 O 0.23207 0.38793 0.41073 0.0
O214 O 0.17692 0.3067 0.34115 0.0
O215 O 0.20286 0.41311 0.34551 0.0
C216 C 0.17202 0.51965 0.39757 0.0
O217 O 0.14995 0.48214 0.37254 0.0
O218 O 0.1851 0.49096 0.41993 0.0
C219 C 0.0531 0.2893 0.38279 0.0
Tb220 Tb 0.76687 0.14042 0.89478 0.0
C221 C 0.81605 0.10877 0.95654 0.0
Tb222 Tb 0.90593 0.16962 0.89552 0.0
O223 O 0.72964 0.0359 0.89995 0.0
O224 O 0.81773 0.09542 0.87809 0.0
O225 O 0.78192 0.13418 0.94587 0.0
C226 C 1.02193 0.18171 0.90275 0.0
O227 O 0.86519 0.11305 0.93956 0.0
C228 C 0.89138 0.27067 0.89654 0.0
C229 C 0.84563 0.17089 0.82813 0.0
O230 O 0.99876 0.21115 0.91971 0.0
O231 O 0.97914 0.14442 0.88186 0.0
O232 O 0.93962 0.26904 0.8834 0.0
O233 O 0.85598 0.21833 0.91139 0.0
O234 O 0.89255 0.1678 0.84344 0.0
O235 O 0.79393 0.16548 0.84359 0.0
C236 C 0.66094 0.15083 0.89791 0.0
O237 O 0.66344 0.09925 0.90388 0.0
O238 O 0.71787 0.19629 0.88908 0.0
C239 C 0.78158 0.03928 0.88812 0.0
C240 C 0.17674 0.11406 0.12302 0.0
C241 C 0.2198 0.09568 0.13458 0.0
C242 C 0.19192 0.17863 0.12449 0.0
C243 C 0.25114 0.22722 0.13693 0.0
H244 H 0.13109 0.07843 0.11277 0.0
H245 H 0.1575 0.19048 0.11506 0.0
S246 S 0.38023 0.20419 0.17063 0.0
N247 N 0.32376 0.13112 0.15961 0.0
N248 N 0.3525 0.25252 0.1614 0.0
C249 C 0.29447 0.20947 0.14863 0.0
C250 C 0.27869 0.14365 0.14772 0.0
C251 C 0.14052 0.23941 0.65372 0.0
C252 C 0.13668 0.19066 0.63307 0.0
C253 C 0.09042 0.25334 0.65555 0.0
C254 C 0.03458 0.21843 0.63709 0.0
H255 H 0.18326 0.26821 0.668 0.0
H256 H 0.09598 0.29236 0.67106 0.0
S257 S 0.99944 0.08202 0.58141 0.0
N258 N 0.07201 0.10524 0.5953 0.0
N259 N 0.97739 0.13001 0.59888 0.0
C260 C 0.02946 0.16779 0.61731 0.0
C261 C 0.08072 0.15427 0.61522 0.0
C262 C 0.8778 0.0417 0.15451 0.0
C263 C 0.82557 0.04888 0.14561 0.0
C264 C 0.94132 0.08986 0.14767 0.0
C265 C 0.95431 0.14585 0.13092 0.0
H266 H 0.86941 0.99819 0.16644 0.0
H267 H 0.98041 0.08263 0.15499 0.0
S268 S 0.83363 0.18741 0.10274 0.0
N269 N 0.79031 0.11613 0.11988 0.0
N270 N 0.90968 0.20651 0.10644 0.0
C271 C 0.90232 0.15381 0.1222 0.0
C272 C 0.83782 0.1053 0.12974 0.0
C273 C 0.78303 0.83005 0.61549 0.0
C274 C 0.80276 0.81431 0.64404 0.0
C275 C 0.7983 0.89346 0.60929 0.0
C276 C 0.83402 0.94324 0.63145 0.0
H277 H 0.75654 0.79319 0.59754 0.0
H278 H 0.78211 0.90346 0.58697 0.0
S279 S 0.89776 0.92639 0.70962 0.0
N280 N 0.86019 0.85263 0.69439 0.0
N281 N 0.88889 0.9723 0.68315 0.0
C282 C 0.85392 0.9279 0.66019 0.0
C283 C 0.83821 0.86318 0.66642 0.0
C284 C 1.01092 0.85585 0.15001 0.0
C285 C 1.00678 0.80293 0.13295 0.0
C286 C 0.96384 0.87376 0.14653 0.0
C287 C 0.91218 0.84062 0.12514 0.0
H288 H 0.05003 0.88271 0.1667 0.0
H289 H 0.96779 0.91363 0.16079 0.0
S290 S 0.88211 0.70139 0.07324 0.0
N291 N 0.94791 0.71874 0.09332 0.0
N292 N 0.86136 0.75409 0.08561 0.0
C293 C 0.9089 0.78908 0.10709 0.0
C294 C 0.9557 0.76974 0.11133 0.0
C295 C 0.11282 0.94219 0.64646 0.0
C296 C 0.09677 0.88721 0.62753 0.0
C297 C 0.17711 0.99255 0.64926 0.0
C298 C 0.22774 0.98934 0.63357 0.0
H299 H 0.0755 0.94632 0.6593 0.0
H300 H 0.18725 0.034 0.66405 0.0
S301 S 0.21112 0.85748 0.57977 0.0
N302 N 0.13672 0.83408 0.5917 0.0
N303 N 0.25714 0.92773 0.5975 0.0
C304 C 0.21224 0.93499 0.61431 0.0
C305 C 0.14686 0.88421 0.61113 0.0
C306 C 0.91003 0.76453 0.37819 0.0
C307 C 0.9587 0.81954 0.39397 0.0
C308 C 0.84796 0.7558 0.37413 0.0
C309 C 0.83248 0.80146 0.38604 0.0
H310 H 0.91988 0.72794 0.36899 0.0
H311 H 0.8116 0.71239 0.36229 0.0
S312 S 0.94387 0.95415 0.42895 0.0
N313 N 0.98786 0.92062 0.42096 0.0
N314 N 0.87215 0.90409 0.41404 0.0
C315 C 0.88139 0.85691 0.40155 0.0
C316 C 0.94428 0.86598 0.40535 0.0
C317 C 0.10648 0.83904 0.86674 0.0
C318 C 0.04838 0.82036 0.88339 0.0
C319 C 0.1585 0.9027 0.86875 0.0
C320 C 0.15371 0.94957 0.8873 0.0
H321 H 0.11229 0.80404 0.85266 0.0
H322 H 0.20287 0.91505 0.85603 0.0
S323 S 1.01238 0.92606 0.93519 0.0
N324 N 0.98999 0.85497 0.91894 0.0
N325 N 0.08647 0.97366 0.92202 0.0
C326 C 0.09562 0.93195 0.90337 0.0
C327 C 0.04323 0.86752 0.90158 0.0
C328 C 0.23275 0.12148 0.36132 0.0
C329 C 0.19945 0.12875 0.38769 0.0
C330 C 0.25037 0.0738 0.36131 0.0
C331 C 0.2342 0.03144 0.38742 0.0
H332 H 0.24696 0.15402 0.34102 0.0
H333 H 0.27678 0.07013 0.34084 0.0
S334 S 0.14385 0.02929 0.46135 0.0
N335 N 0.1487 0.08877 0.43967 0.0
N336 N 0.18136 0.99961 0.43998 0.0
C337 C 0.19931 0.03757 0.41347 0.0
C338 C 0.18199 0.08616 0.41352 0.0
C339 C 0.1753 0.18076 0.88118 0.0
C340 C 0.2222 0.23323 0.89905 0.0
C341 C 0.10998 0.16283 0.88329 0.0
C342 C 0.08942 0.19619 0.90371 0.0
H343 H 0.18933 0.1545 0.86477 0.0
H344 H 0.07564 0.12349 0.86831 0.0
S345 S 0.1927 0.33259 0.95814 0.0
N346 N 0.24332 0.31558 0.93933 0.0
N347 N 0.12062 0.28092 0.944 0.0
C348 C 0.13556 0.2467 0.92287 0.0
C349 C 0.20203 0.26556 0.92032 0.0
C350 C 0.94913 0.20485 0.40733 0.0
C351 C 1.00107 0.22117 0.38603 0.0
C352 C 0.90073 0.14033 0.41191 0.0
C353 C 0.90199 0.08995 0.39493 0.0
H354 H 0.94629 0.24209 0.42096 0.0
H355 H 0.86166 0.12998 0.42857 0.0
S356 S 0.02804 0.10685 0.33682 0.0
N357 N 0.05132 0.18149 0.34824 0.0
N358 N 0.9601 0.06051 0.35653 0.0
C359 C 0.95373 0.10555 0.37368 0.0
C360 C 1.00334 0.17112 0.3693 0.0
C361 C 0.79573 0.90034 0.92143 0.0
C362 C 0.84178 0.89865 0.90077 0.0
C363 C 0.7755 0.94534 0.91689 0.0
C364 C 0.80134 0.9906 0.89183 0.0
H365 H 0.77402 0.86573 0.94078 0.0
H366 H 0.73989 0.94504 0.93328 0.0
S367 S 0.92428 1.00725 0.83171 0.0
N368 N 0.91346 0.94688 0.85478 0.0
N369 N 0.87556 0.03134 0.84631 0.0
C370 C 0.84817 0.9901 0.87141 0.0
C371 C 0.86843 0.94415 0.87588 0.0
C372 C 0.20166 0.58897 0.10431 0.0
C373 C 0.17701 0.604 0.13197 0.0
C374 C 0.20163 0.53039 0.10184 0.0
C375 C 0.17673 0.48534 0.12697 0.0
H376 H 0.21841 0.62128 0.08387 0.0
H377 H 0.21735 0.5187 0.07952 0.0
S378 S 0.11849 0.50702 0.20667 0.0
N379 N 0.13588 0.57298 0.18658 0.0
N380 N 0.13528 0.46319 0.18187 0.0
C381 C 0.1567 0.50209 0.15558 0.0
C382 C 0.15694 0.56143 0.15813 0.0
C383 C 0.65387 0.11802 0.64702 0.0
C384 C 0.70234 0.15626 0.62474 0.0
C385 C 0.59837 0.1227 0.65025 0.0
C386 C 0.58918 0.16502 0.63086 0.0
H387 H 0.65826 0.08317 0.66157 0.0
H388 H 0.56145 0.0912 0.66721 0.0
S389 S 0.70251 0.27542 0.56881 0.0
N390 N 0.73856 0.23781 0.58319 0.0
N391 N 0.63408 0.24713 0.58916 0.0
C392 C 0.63835 0.20494 0.60911 0.0
C393 C 0.69513 0.2004 0.60604 0.0
C394 C 0.55665 0.66066 0.09443 0.0
C395 C 0.56948 0.70976 0.1169 0.0
C396 C 0.49746 0.6028 0.09448 0.0
C397 C 0.4491 0.59188 0.11714 0.0
H398 H 0.59329 0.66645 0.0771 0.0
H399 H 0.49011 0.56584 0.07706 0.0
S400 S 0.4606 0.70289 0.1827 0.0
N401 N 0.53058 0.74216 0.16358 0.0
N402 N 0.41826 0.6341 0.1631 0.0
C403 C 0.46086 0.6409 0.13948 0.0
C404 C 0.52146 0.69975 0.13954 0.0
C405 C 0.89461 0.53482 0.64275 0.0
C406 C 0.87559 0.55092 0.61404 0.0
C407 C 0.90083 0.4798 0.64453 0.0
C408 C 0.88694 0.43837 0.61787 0.0
H409 H 0.90628 0.56584 0.66373 0.0
H410 H 0.91629 0.4695 0.667 0.0
S411 S 0.83262 0.45834 0.53764 0.0
N412 N 0.84204 0.52129 0.55867 0.0
N413 N 0.85161 0.41664 0.56212 0.0
C414 C 0.8665 0.45339 0.58924 0.0
C415 C 0.86145 0.51009 0.58729 0.0
C416 C 0.46096 0.93701 0.10028 0.0
C417 C 0.46544 0.89135 0.11934 0.0
C418 C 0.40198 0.93511 0.09654 0.0
C419 C 0.34528 0.88767 0.11177 0.0
H420 H 0.50345 0.97492 0.08839 0.0
H421 H 0.40113 0.97211 0.08215 0.0
S422 S 0.33218 0.75907 0.16568 0.0
N423 N 0.40838 0.79768 0.1539 0.0
N424 N 0.29838 0.79571 0.14781 0.0
C425 C 0.3491 0.84155 0.13076 0.0
C426 C 0.40902 0.84302 0.1343 0.0
C427 C 0.54525 0.43733 0.64622 0.0
C428 C 0.59638 0.45222 0.62469 0.0
C429 C 0.4867 0.37904 0.64393 0.0
C430 C 0.47659 0.33276 0.62012 0.0
H431 H 0.55012 0.47131 0.6649 0.0
H432 H 0.4486 0.37046 0.66092 0.0
S433 S 0.59404 0.34887 0.55697 0.0
N434 N 0.63291 0.41604 0.57832 0.0
N435 N 0.52217 0.30627 0.57403 0.0
C436 C 0.52741 0.34634 0.5986 0.0
C437 C 0.58742 0.40615 0.60087 0.0
C438 C 0.45923 0.83492 0.39117 0.0
C439 C 0.45442 0.88666 0.40427 0.0
C440 C 0.51512 0.83093 0.39527 0.0
C441 C 0.56728 0.87768 0.41331 0.0
H442 H 0.42007 0.79796 0.37712 0.0
H443 H 0.51774 0.79141 0.38398 0.0
S444 S 0.57571 0.01984 0.45474 0.0
N445 N 0.50487 0.98397 0.43693 0.0
N446 N 0.60872 0.97561 0.44581 0.0
C447 C 0.56183 0.92843 0.42747 0.0
C448 C 0.5057 0.9332 0.42261 0.0
C449 C 0.65835 0.55229 0.87971 0.0
C450 C 0.70879 0.55794 0.89885 0.0
C451 C 0.59981 0.49433 0.87792 0.0
C452 C 0.58954 0.44046 0.89566 0.0
H453 H 0.66359 0.59358 0.86663 0.0
H454 H 0.56167 0.49251 0.86343 0.0
S455 S 0.70754 0.43017 0.94859 0.0
N456 N 0.74577 0.50518 0.9353 0.0
N457 N 0.63567 0.39512 0.93173 0.0
C458 C 0.64049 0.44474 0.91402 0.0
C459 C 0.70034 0.50392 0.91567 0.0
C460 C 0.17072 0.66284 0.43516 0.0
C461 C 0.18224 0.70314 0.40862 0.0
C462 C 0.16972 0.60424 0.43151 0.0
C463 C 0.17804 0.58335 0.40102 0.0
H464 H 0.1618 0.6764 0.45881 0.0
H465 H 0.16013 0.5741 0.45249 0.0
S466 S 0.2122 0.67223 0.32414 0.0
N467 N 0.20535 0.71958 0.35107 0.0
N468 N 0.20073 0.60807 0.34415 0.0
C469 C 0.19065 0.62356 0.3744 0.0
C470 C 0.19351 0.68398 0.37823 0.0
C471 C 0.55362 0.11488 0.92376 0.0
C472 C 0.60353 0.15759 0.90304 0.0
C473 C 0.49819 0.11963 0.92885 0.0
C474 C 0.49002 0.16648 0.9129 0.0
H475 H 0.55739 0.0774 0.93618 0.0
H476 H 0.46074 0.08516 0.94471 0.0
S477 S 0.60683 0.28942 0.85578 0.0
N478 N 0.64223 0.24908 0.86709 0.0
N479 N 0.53692 0.25596 0.87504 0.0
C480 C 0.54 0.20971 0.89222 0.0
C481 C 0.59703 0.20578 0.88769 0.0
C482 C 0.39975 0.47865 0.38078 0.0
C483 C 0.34704 0.4692 0.40009 0.0
C484 C 0.45845 0.5371 0.38098 0.0
C485 C 0.46733 0.58908 0.40046 0.0
H486 H 0.39582 0.44035 0.36522 0.0
H487 H 0.49725 0.54143 0.36564 0.0
S488 S 0.34517 0.58984 0.45588 0.0
N489 N 0.30814 0.5168 0.43979 0.0
N490 N 0.41817 0.62763 0.43964 0.0
C491 C 0.41506 0.58079 0.41982 0.0
C492 C 0.35501 0.5207 0.41975 0.0
C493 C 0.86073 0.40691 0.92045 0.0
C494 C 0.89084 0.45099 0.89497 0.0
C495 C 0.85741 0.34645 0.92042 0.0
C496 C 0.88431 0.32849 0.89493 0.0
H497 H 0.84108 0.41984 0.94091 0.0
H498 H 0.83619 0.31496 0.94098 0.0
S499 S 0.95988 0.42221 0.82051 0.0
N500 N 0.94195 0.4691 0.84223 0.0
N501 N 0.93574 0.35652 0.84215 0.0
C502 C 0.91134 0.37074 0.86867 0.0
C503 C 0.91468 0.43177 0.86869 0.0
C504 C 0.17491 0.31033 0.2743 0.0
C505 C 0.20206 0.368 0.29235 0.0
C506 C 0.1764 0.31085 0.24071 0.0
C507 C 0.20585 0.36902 0.22356 0.0
H508 H 0.15132 0.26381 0.2861 0.0
H509 H 0.15487 0.26496 0.22814 0.0
S510 S 0.28388 0.53372 0.25886 0.0
N511 N 0.25891 0.48531 0.29039 0.0
N512 N 0.26268 0.48621 0.22683 0.0
C513 C 0.23367 0.42731 0.24106 0.0
C514 C 0.23141 0.42682 0.27554 0.0
C515 C 0.81717 0.20239 0.74142 0.0
C516 C 0.85138 0.17955 0.7231 0.0
C517 C 0.81505 0.1991 0.77533 0.0
C518 C 0.84842 0.17436 0.79224 0.0
H519 H 0.79122 0.22231 0.72948 0.0
H520 H 0.7877 0.21681 0.78838 0.0
S521 S 0.94713 0.1104 0.75542 0.0
N522 N 0.92011 0.13217 0.72444 0.0
N523 N 0.91749 0.12732 0.78768 0.0
C524 C 0.88354 0.15222 0.77408 0.0
C525 C 0.88461 0.15441 0.73968 0.0
C526 C 0.74668 0.88388 0.24701 0.0
C527 C 0.68885 0.86042 0.22974 0.0
C528 C 0.74661 0.88051 0.28083 0.0
C529 C 0.68863 0.85219 0.29867 0.0
H530 H 0.79256 0.90586 0.23437 0.0
H531 H 0.79228 0.89904 0.29303 0.0
S532 S 0.52412 0.78425 0.26541 0.0
N533 N 0.57204 0.80924 0.23347 0.0
N534 N 0.57196 0.80115 0.29668 0.0
C535 C 0.63053 0.82848 0.28179 0.0
C536 C 0.63064 0.83312 0.24745 0.0
C537 C 0.82246 0.62238 0.74848 0.0
C538 C 0.85862 0.67897 0.73028 0.0
C539 C 0.82485 0.62345 0.7823 0.0
C540 C 0.86225 0.68139 0.79936 0.0
H541 H 0.79218 0.57665 0.73653 0.0
H542 H 0.79651 0.57855 0.79518 0.0
S543 S 0.96662 0.84301 0.76344 0.0
N544 N 0.93414 0.79465 0.73215 0.0
N545 N 0.9373 0.79671 0.79555 0.0
C546 C 0.89857 0.73837 0.78155 0.0
C547 C 0.89718 0.73713 0.74709 0.0
C548 C 0.23103 0.83458 0.24612 0.0
C549 C 0.19811 0.85967 0.22929 0.0
C550 C 0.23376 0.83686 0.27982 0.0
C551 C 0.20252 0.86308 0.29805 0.0
H552 H 0.25526 0.81331 0.23315 0.0
H553 H 0.26002 0.81721 0.29169 0.0
S554 S 0.10903 0.93442 0.26573 0.0
N555 N 0.13331 0.91154 0.23345 0.0
N556 N 0.13784 0.91487 0.29685 0.0
C557 C 0.16904 0.88795 0.2816 0.0
C558 C 0.16711 0.88662 0.24721 0.0
C559 C 0.42137 0.22973 0.77729 0.0
C560 C 0.36438 0.19552 0.79554 0.0
C561 C 0.42022 0.22602 0.74355 0.0
C562 C 0.36188 0.18894 0.72704 0.0
H563 H 0.46726 0.25871 0.78915 0.0
H564 H 0.46524 0.25251 0.73035 0.0
S565 S 0.19883 0.09245 0.76399 0.0
N566 N 0.24787 0.12497 0.79477 0.0
N567 N 0.24542 0.11805 0.73165 0.0
C568 C 0.30439 0.15538 0.74512 0.0
C569 C 0.30573 0.15861 0.77933 0.0
C570 C 0.34194 0.30334 1.0015 0.0
C571 C 0.30214 0.24298 0.98688 0.0
C572 C 0.31772 0.32893 0.02461 0.0
C573 C 0.25245 0.29543 0.03442 0.0
H574 H 0.39234 0.33191 0.99476 0.0
H575 H 0.35119 0.37519 0.03522 0.0
S576 S 0.12663 0.1362 1.00302 0.0
N577 N 0.19298 0.1507 0.98364 0.0
N578 N 0.14796 0.19874 0.02709 0.0
C579 C 0.21189 0.23497 0.02004 0.0
C580 C 0.23654 0.20879 0.9964 0.0
C581 C 0.04705 0.32468 0.49661 0.0
C582 C 0.05853 0.28133 0.47867 0.0
C583 C 1.00005 0.30349 0.521 0.0
C584 C 0.96198 0.23768 0.52902 0.0
H585 H 0.0747 0.37599 0.4919 0.0
H586 H 0.99497 0.33987 0.53418 0.0
S587 S 0.96881 0.10293 0.4878 0.0
N588 N 1.02496 0.16833 0.46949 0.0
N589 N 0.93688 0.1285 0.51551 0.0
C590 C 0.97165 0.19327 0.51076 0.0
C591 C 1.01982 0.21502 0.48572 0.0
C592 C 0.80694 0.99675 0.02378 0.0
C593 C 0.74396 0.97153 0.03634 0.0
C594 C 0.83034 0.04217 0.99868 0.0
C595 C 0.79219 0.06517 0.98515 0.0
H596 H 0.83911 0.98206 0.03366 0.0
H597 H 0.87893 0.05938 0.98985 0.0
S598 S 0.62253 1.01264 1.00796 0.0
N599 N 0.64288 0.97169 0.03209 0.0
N600 N 0.68691 0.05703 0.9855 0.0
C601 C 0.72884 0.03989 0.99719 0.0
C602 C 0.70474 0.99312 0.02251 0.0
C603 C 0.73069 0.69633 0.52448 0.0
C604 C 0.78997 0.73651 0.53972 0.0
C605 C 0.70654 0.7202 0.50092 0.0
C606 C 0.74034 0.78556 0.49156 0.0
H607 H 0.70239 0.64578 0.53078 0.0
H608 H 0.66145 0.68649 0.48953 0.0
S609 S 0.8958 0.91279 0.52564 0.0
N610 N 0.88071 0.84638 0.54453 0.0
N611 N 0.83504 0.89088 0.50079 0.0
C612 C 0.79903 0.82671 0.50713 0.0
C613 C 0.82395 0.80233 0.53092 0.0
C614 C 0.99819 0.79285 1.00311 0.0
C615 C 0.97257 0.72891 0.9919 0.0
C616 C 0.04526 0.81854 0.02732 0.0
C617 C 0.06917 0.78161 0.04141 0.0
H618 H 0.98309 0.8242 0.9926 0.0
H619 H 0.06293 0.86786 0.035 0.0
S620 S 1.01396 0.60941 0.02259 0.0
N621 N 0.97181 0.62796 0.99837 0.0
N622 N 0.06022 0.67575 0.04325 0.0
C623 C 0.04275 0.71697 0.03089 0.0
C624 C 0.99451 0.69079 1.00644 0.0
C625 C 0.212 0.9594 0.51119 0.0
C626 C 0.25454 0.94473 0.49447 0.0
C627 C 0.23442 1.00984 0.53398 0.0
C628 C 0.3005 0.04793 0.54128 0.0
H629 H 0.16091 0.93284 0.50603 0.0
H630 H 0.19934 1.01855 0.54614 0.0
S631 S 0.43219 0.02703 0.50616 0.0
N632 N 0.36627 0.97075 0.48857 0.0
N633 N 0.40804 0.06519 0.53072 0.0
C634 C 0.34339 0.0325 0.52548 0.0
C635 C 0.32055 0.98095 0.50247 0.0
loop_
_geom_bond_atom_site_label_1
_geom_bond_atom_site_label_2
_geom_bond_distance
_geom_bond_site_symmetry_2
_ccdc_geom_bond_type
Tb0 O3 2.453 . S
Tb0 O4 2.596 . S
Tb0 O5 2.374 . S
Tb0 O13 2.343 . S
Tb0 O15 2.353 . S
Tb0 O17 2.427 . S
Tb0 O18 2.513 . S
C1 O5 1.251 . S
C1 O7 1.263 . S
Tb2 O4 2.343 . S
Tb2 O7 2.353 . S
Tb2 O10 2.427 . S
Tb2 O11 2.513 . S
Tb2 O12 2.453 . S
Tb2 O13 2.596 . S
Tb2 O14 2.374 . S
O3 Tb0 2.453 . S
O3 C19 1.245 . S
O4 Tb0 2.596 . S
O4 Tb2 2.343 . S
O4 C19 1.259 . S
O5 Tb0 2.374 . S
O5 C1 1.251 . S
C6 O10 1.275 . S
C6 O11 1.246 . S
O7 C1 1.263 . S
O7 Tb2 2.353 . S
C8 O12 1.245 . S
C8 O13 1.259 . S
C9 O14 1.250 . S
C9 O15 1.263 . S
O10 Tb2 2.427 . S
O10 C6 1.275 . S
O11 Tb2 2.513 . S
O11 C6 1.246 . S
O12 Tb2 2.453 . S
O12 C8 1.245 . S
O13 Tb0 2.343 . S
O13 Tb2 2.596 . S
O13 C8 1.259 . S
O14 Tb2 2.374 . S
O14 C9 1.250 . S
O15 Tb0 2.353 . S
O15 C9 1.263 . S
C16 O17 1.275 . S
C16 O18 1.246 . S
O17 Tb0 2.427 . S
O17 C16 1.275 . S
O18 Tb0 2.513 . S
O18 C16 1.246 . S
C19 O3 1.245 . S
C19 O4 1.259 . S
Tb20 O23 2.453 . S
Tb20 O24 2.596 . S
Tb20 O25 2.374 . S
Tb20 O33 2.343 . S
Tb20 O35 2.353 . S
Tb20 O37 2.427 . S
Tb20 O38 2.513 . S
C21 O25 1.251 . S
C21 O27 1.263 . S
Tb22 O24 2.343 . S
Tb22 O27 2.353 . S
Tb22 O30 2.427 . S
Tb22 O31 2.513 . S
Tb22 O32 2.453 . S
Tb22 O33 2.596 . S
Tb22 O34 2.374 . S
O23 Tb20 2.453 . S
O23 C39 1.245 . S
O24 Tb20 2.596 . S
O24 Tb22 2.343 . S
O24 C39 1.259 . S
O25 Tb20 2.374 . S
O25 C21 1.251 . S
C26 O30 1.275 . S
C26 O31 1.246 . S
O27 C21 1.263 . S
O27 Tb22 2.353 . S
C28 O32 1.245 . S
C28 O33 1.259 . S
C29 O34 1.250 . S
C29 O35 1.263 . S
O30 Tb22 2.427 . S
O30 C26 1.275 . S
O31 Tb22 2.513 . S
O31 C26 1.246 . S
O32 Tb22 2.453 . S
O32 C28 1.245 . S
O33 Tb20 2.343 . S
O33 Tb22 2.596 . S
O33 C28 1.259 . S
O34 Tb22 2.374 . S
O34 C29 1.250 . S
O35 Tb20 2.353 . S
O35 C29 1.263 . S
C36 O37 1.275 . S
C36 O38 1.246 . S
O37 Tb20 2.427 . S
O37 C36 1.275 . S
O38 Tb20 2.513 . S
O38 C36 1.246 . S
C39 O23 1.245 . S
C39 O24 1.259 . S
Tb40 O43 2.453 . S
Tb40 O44 2.596 . S
Tb40 O45 2.374 . S
Tb40 O53 2.343 . S
Tb40 O55 2.353 . S
Tb40 O57 2.427 . S
Tb40 O58 2.513 . S
C41 O45 1.251 . S
C41 O47 1.263 . S
Tb42 O44 2.343 . S
Tb42 O47 2.353 . S
Tb42 O50 2.427 . S
Tb42 O51 2.513 . S
Tb42 O52 2.453 . S
Tb42 O53 2.596 . S
Tb42 O54 2.374 . S
O43 Tb40 2.453 . S
O43 C59 1.245 . S
O44 Tb40 2.596 . S
O44 Tb42 2.343 . S
O44 C59 1.259 . S
O45 Tb40 2.374 . S
O45 C41 1.251 . S
C46 O50 1.275 . S
C46 O51 1.246 . S
O47 C41 1.263 . S
O47 Tb42 2.353 . S
C48 O52 1.245 . S
C48 O53 1.259 . S
C49 O54 1.250 . S
C49 O55 1.263 . S
O50 Tb42 2.427 . S
O50 C46 1.275 . S
O51 Tb42 2.513 . S
O51 C46 1.246 . S
O52 Tb42 2.453 . S
O52 C48 1.245 . S
O53 Tb40 2.343 . S
O53 Tb42 2.596 . S
O53 C48 1.259 . S
O54 Tb42 2.374 . S
O54 C49 1.250 . S
O55 Tb40 2.353 . S
O55 C49 1.263 . S
C56 O57 1.275 . S
C56 O58 1.246 . S
O57 Tb40 2.427 . S
O57 C56 1.275 . S
O58 Tb40 2.513 . S
O58 C56 1.246 . S
C59 O43 1.245 . S
C59 O44 1.259 . S
Tb60 O63 2.453 . S
Tb60 O64 2.596 . S
Tb60 O65 2.374 . S
Tb60 O73 2.343 . S
Tb60 O75 2.353 . S
Tb60 O77 2.427 . S
Tb60 O78 2.513 . S
C61 O65 1.251 . S
C61 O67 1.263 . S
Tb62 O64 2.343 . S
Tb62 O67 2.353 . S
Tb62 O70 2.427 . S
Tb62 O71 2.513 . S
Tb62 O72 2.453 . S
Tb62 O73 2.596 . S
Tb62 O74 2.374 . S
O63 Tb60 2.453 . S
O63 C79 1.245 . S
O64 Tb60 2.596 . S
O64 Tb62 2.343 . S
O64 C79 1.259 . S
O65 Tb60 2.374 . S
O65 C61 1.251 . S
C66 O70 1.275 . S
C66 O71 1.246 . S
O67 C61 1.263 . S
O67 Tb62 2.353 . S
C68 O72 1.245 . S
C68 O73 1.259 . S
C69 O74 1.250 . S
C69 O75 1.263 . S
O70 Tb62 2.427 . S
O70 C66 1.275 . S
O71 Tb62 2.513 . S
O71 C66 1.246 . S
O72 Tb62 2.453 . S
O72 C68 1.245 . S
O73 Tb60 2.343 . S
O73 Tb62 2.596 . S
O73 C68 1.259 . S
O74 Tb62 2.374 . S
O74 C69 1.250 . S
O75 Tb60 2.353 . S
O75 C69 1.263 . S
C76 O77 1.275 . S
C76 O78 1.246 . S
O77 Tb60 2.427 . S
O77 C76 1.275 . S
O78 Tb60 2.513 . S
O78 C76 1.246 . S
C79 O63 1.245 . S
C79 O64 1.259 . S
Tb80 O83 2.453 . S
Tb80 O84 2.596 . S
Tb80 O85 2.374 . S
Tb80 O93 2.343 . S
Tb80 O95 2.353 . S
Tb80 O97 2.427 . S
Tb80 O98 2.513 . S
C81 O85 1.251 . S
C81 O87 1.263 . S
Tb82 O84 2.343 . S
Tb82 O87 2.353 . S
Tb82 O90 2.427 . S
Tb82 O91 2.513 . S
Tb82 O92 2.453 . S
Tb82 O93 2.596 . S
Tb82 O94 2.374 . S
O83 Tb80 2.453 . S
O83 C99 1.245 . S
O84 Tb80 2.596 . S
O84 Tb82 2.343 . S
O84 C99 1.259 . S
O85 Tb80 2.374 . S
O85 C81 1.251 . S
C86 O90 1.275 . S
C86 O91 1.246 . S
O87 C81 1.263 . S
O87 Tb82 2.353 . S
C88 O92 1.245 . S
C88 O93 1.259 . S
C89 O94 1.250 . S
C89 O95 1.263 . S
O90 Tb82 2.427 . S
O90 C86 1.275 . S
O91 Tb82 2.513 . S
O91 C86 1.246 . S
O92 Tb82 2.453 . S
O92 C88 1.245 . S
O93 Tb80 2.343 . S
O93 Tb82 2.596 . S
O93 C88 1.259 . S
O94 Tb82 2.374 . S
O94 C89 1.250 . S
O95 Tb80 2.353 . S
O95 C89 1.263 . S
C96 O97 1.275 . S
C96 O98 1.246 . S
O97 Tb80 2.427 . S
O97 C96 1.275 . S
O98 Tb80 2.513 . S
O98 C96 1.246 . S
C99 O83 1.245 . S
C99 O84 1.259 . S
Tb100 O103 2.453 . S
Tb100 O104 2.596 . S
Tb100 O105 2.374 . S
Tb100 O113 2.343 . S
Tb100 O115 2.353 . S
Tb100 O117 2.427 . S
Tb100 O118 2.513 . S
C101 O105 1.251 . S
C101 O107 1.263 . S
Tb102 O104 2.343 . S
Tb102 O107 2.353 . S
Tb102 O110 2.427 . S
Tb102 O111 2.513 . S
Tb102 O112 2.453 . S
Tb102 O113 2.596 . S
Tb102 O114 2.374 . S
O103 Tb100 2.453 . S
O103 C119 1.245 . S
O104 Tb100 2.596 . S
O104 Tb102 2.343 . S
O104 C119 1.259 . S
O105 Tb100 2.374 . S
O105 C101 1.251 . S
C106 O110 1.275 . S
C106 O111 1.246 . S
O107 C101 1.263 . S
O107 Tb102 2.353 . S
C108 O112 1.245 . S
C108 O113 1.259 . S
C109 O114 1.250 . S
C109 O115 1.263 . S
O110 Tb102 2.427 . S
O110 C106 1.275 . S
O111 Tb102 2.513 . S
O111 C106 1.246 . S
O112 Tb102 2.453 . S
O112 C108 1.245 . S
O113 Tb100 2.343 . S
O113 Tb102 2.596 . S
O113 C108 1.259 . S
O114 Tb102 2.374 . S
O114 C109 1.250 . S
O115 Tb100 2.353 . S
O115 C109 1.263 . S
C116 O117 1.275 . S
C116 O118 1.246 . S
O117 Tb100 2.427 . S
O117 C116 1.275 . S
O118 Tb100 2.513 . S
O118 C116 1.246 . S
C119 O103 1.245 . S
C119 O104 1.259 . S
Tb120 O123 2.453 . S
Tb120 O124 2.596 . S
Tb120 O125 2.374 . S
Tb120 O133 2.343 . S
Tb120 O135 2.353 . S
Tb120 O137 2.427 . S
Tb120 O138 2.513 . S
C121 O125 1.251 . S
C121 O127 1.263 . S
Tb122 O124 2.343 . S
Tb122 O127 2.353 . S
Tb122 O130 2.427 . S
Tb122 O131 2.513 . S
Tb122 O132 2.453 . S
Tb122 O133 2.596 . S
Tb122 O134 2.374 . S
O123 Tb120 2.453 . S
O123 C139 1.245 . S
O124 Tb120 2.596 . S
O124 Tb122 2.343 . S
O124 C139 1.259 . S
O125 Tb120 2.374 . S
O125 C121 1.251 . S
C126 O130 1.275 . S
C126 O131 1.246 . S
O127 C121 1.263 . S
O127 Tb122 2.353 . S
C128 O132 1.245 . S
C128 O133 1.259 . S
C129 O134 1.250 . S
C129 O135 1.263 . S
O130 Tb122 2.427 . S
O130 C126 1.275 . S
O131 Tb122 2.513 . S
O131 C126 1.246 . S
O132 Tb122 2.453 . S
O132 C128 1.245 . S
O133 Tb120 2.343 . S
O133 Tb122 2.596 . S
O133 C128 1.259 . S
O134 Tb122 2.374 . S
O134 C129 1.250 . S
O135 Tb120 2.353 . S
O135 C129 1.263 . S
C136 O137 1.275 . S
C136 O138 1.246 . S
O137 Tb120 2.427 . S
O137 C136 1.275 . S
O138 Tb120 2.513 . S
O138 C136 1.246 . S
C139 O123 1.245 . S
C139 O124 1.259 . S
Tb140 O143 2.453 . S
Tb140 O144 2.596 . S
Tb140 O145 2.374 . S
Tb140 O153 2.343 . S
Tb140 O155 2.353 . S
Tb140 O157 2.427 . S
Tb140 O158 2.513 . S
C141 O145 1.251 . S
C141 O147 1.263 . S
Tb142 O144 2.343 . S
Tb142 O147 2.353 . S
Tb142 O150 2.427 . S
Tb142 O151 2.513 . S
Tb142 O152 2.453 . S
Tb142 O153 2.596 . S
Tb142 O154 2.374 . S
O143 Tb140 2.453 . S
O143 C159 1.245 . S
O144 Tb140 2.596 . S
O144 Tb142 2.343 . S
O144 C159 1.259 . S
O145 Tb140 2.374 . S
O145 C141 1.251 . S
C146 O150 1.275 . S
C146 O151 1.246 . S
O147 C141 1.263 . S
O147 Tb142 2.353 . S
C148 O152 1.245 . S
C148 O153 1.259 . S
C149 O154 1.250 . S
C149 O155 1.263 . S
O150 Tb142 2.427 . S
O150 C146 1.275 . S
O151 Tb142 2.513 . S
O151 C146 1.246 . S
O152 Tb142 2.453 . S
O152 C148 1.245 . S
O153 Tb140 2.343 . S
O153 Tb142 2.596 . S
O153 C148 1.259 . S
O154 Tb142 2.374 . S
O154 C149 1.250 . S
O155 Tb140 2.353 . S
O155 C149 1.263 . S
C156 O157 1.275 . S
C156 O158 1.246 . S
O157 Tb140 2.427 . S
O157 C156 1.275 . S
O158 Tb140 2.513 . S
O158 C156 1.246 . S
C159 O143 1.245 . S
C159 O144 1.259 . S
Tb160 O163 2.453 . S
Tb160 O164 2.596 . S
Tb160 O165 2.374 . S
Tb160 O173 2.343 . S
Tb160 O175 2.353 . S
Tb160 O177 2.427 . S
Tb160 O178 2.513 . S
C161 O165 1.251 . S
C161 O167 1.263 . S
Tb162 O164 2.343 . S
Tb162 O167 2.353 . S
Tb162 O170 2.427 . S
Tb162 O171 2.513 . S
Tb162 O172 2.453 . S
Tb162 O173 2.596 . S
Tb162 O174 2.374 . S
O163 Tb160 2.453 . S
O163 C179 1.245 . S
O164 Tb160 2.596 . S
O164 Tb162 2.343 . S
O164 C179 1.259 . S
O165 Tb160 2.374 . S
O165 C161 1.251 . S
C166 O170 1.275 . S
C166 O171 1.246 . S
O167 C161 1.263 . S
O167 Tb162 2.353 . S
C168 O172 1.245 . S
C168 O173 1.259 . S
C169 O174 1.250 . S
C169 O175 1.263 . S
O170 Tb162 2.427 . S
O170 C166 1.275 . S
O171 Tb162 2.513 . S
O171 C166 1.246 . S
O172 Tb162 2.453 . S
O172 C168 1.245 . S
O173 Tb160 2.343 . S
O173 Tb162 2.596 . S
O173 C168 1.259 . S
O174 Tb162 2.374 . S
O174 C169 1.250 . S
O175 Tb160 2.353 . S
O175 C169 1.263 . S
C176 O177 1.275 . S
C176 O178 1.246 . S
O177 Tb160 2.427 . S
O177 C176 1.275 . S
O178 Tb160 2.513 . S
O178 C176 1.246 . S
C179 O163 1.245 . S
C179 O164 1.259 . S
Tb180 O183 2.453 . S
Tb180 O184 2.596 . S
Tb180 O185 2.374 . S
Tb180 O193 2.343 . S
Tb180 O195 2.353 . S
Tb180 O197 2.427 . S
Tb180 O198 2.513 . S
C181 O185 1.251 . S
C181 O187 1.263 . S
Tb182 O184 2.343 . S
Tb182 O187 2.353 . S
Tb182 O190 2.427 . S
Tb182 O191 2.513 . S
Tb182 O192 2.453 . S
Tb182 O193 2.596 . S
Tb182 O194 2.374 . S
O183 Tb180 2.453 . S
O183 C199 1.245 . S
O184 Tb180 2.596 . S
O184 Tb182 2.343 . S
O184 C199 1.259 . S
O185 Tb180 2.374 . S
O185 C181 1.251 . S
C186 O190 1.275 . S
C186 O191 1.246 . S
O187 C181 1.263 . S
O187 Tb182 2.353 . S
C188 O192 1.245 . S
C188 O193 1.259 . S
C189 O194 1.250 . S
C189 O195 1.263 . S
O190 Tb182 2.427 . S
O190 C186 1.275 . S
O191 Tb182 2.513 . S
O191 C186 1.246 . S
O192 Tb182 2.453 . S
O192 C188 1.245 . S
O193 Tb180 2.343 . S
O193 Tb182 2.596 . S
O193 C188 1.259 . S
O194 Tb182 2.374 . S
O194 C189 1.250 . S
O195 Tb180 2.353 . S
O195 C189 1.263 . S
C196 O197 1.275 . S
C196 O198 1.246 . S
O197 Tb180 2.427 . S
O197 C196 1.275 . S
O198 Tb180 2.513 . S
O198 C196 1.246 . S
C199 O183 1.245 . S
C199 O184 1.259 . S
Tb200 O203 2.453 . S
Tb200 O204 2.596 . S
Tb200 O205 2.374 . S
Tb200 O213 2.343 . S
Tb200 O215 2.353 . S
Tb200 O217 2.427 . S
Tb200 O218 2.513 . S
C201 O205 1.251 . S
C201 O207 1.263 . S
Tb202 O204 2.343 . S
Tb202 O207 2.353 . S
Tb202 O210 2.427 . S
Tb202 O211 2.513 . S
Tb202 O212 2.453 . S
Tb202 O213 2.596 . S
Tb202 O214 2.374 . S
O203 Tb200 2.453 . S
O203 C219 1.245 . S
O204 Tb200 2.596 . S
O204 Tb202 2.343 . S
O204 C219 1.259 . S
O205 Tb200 2.374 . S
O205 C201 1.251 . S
C206 O210 1.275 . S
C206 O211 1.246 . S
O207 C201 1.263 . S
O207 Tb202 2.353 . S
C208 O212 1.245 . S
C208 O213 1.259 . S
C209 O214 1.250 . S
C209 O215 1.263 . S
O210 Tb202 2.427 . S
O210 C206 1.275 . S
O211 Tb202 2.513 . S
O211 C206 1.246 . S
O212 Tb202 2.453 . S
O212 C208 1.245 . S
O213 Tb200 2.343 . S
O213 Tb202 2.596 . S
O213 C208 1.259 . S
O214 Tb202 2.374 . S
O214 C209 1.250 . S
O215 Tb200 2.353 . S
O215 C209 1.263 . S
C216 O217 1.275 . S
C216 O218 1.246 . S
O217 Tb200 2.427 . S
O217 C216 1.275 . S
O218 Tb200 2.513 . S
O218 C216 1.246 . S
C219 O203 1.245 . S
C219 O204 1.259 . S
Tb220 O223 2.453 . S
Tb220 O224 2.596 . S
Tb220 O225 2.374 . S
Tb220 O233 2.343 . S
Tb220 O235 2.353 . S
Tb220 O237 2.427 . S
Tb220 O238 2.513 . S
C221 O225 1.251 . S
C221 O227 1.263 . S
Tb222 O224 2.343 . S
Tb222 O227 2.353 . S
Tb222 O230 2.427 . S
Tb222 O231 2.513 . S
Tb222 O232 2.453 . S
Tb222 O233 2.596 . S
Tb222 O234 2.374 . S
O223 Tb220 2.453 . S
O223 C239 1.245 . S
O224 Tb220 2.596 . S
O224 Tb222 2.343 . S
O224 C239 1.259 . S
O225 Tb220 2.374 . S
O225 C221 1.251 . S
C226 O230 1.275 . S
C226 O231 1.246 . S
O227 C221 1.263 . S
O227 Tb222 2.353 . S
C228 O232 1.245 . S
C228 O233 1.259 . S
C229 O234 1.250 . S
C229 O235 1.263 . S
O230 Tb222 2.427 . S
O230 C226 1.275 . S
O231 Tb222 2.513 . S
O231 C226 1.246 . S
O232 Tb222 2.453 . S
O232 C228 1.245 . S
O233 Tb220 2.343 . S
O233 Tb222 2.596 . S
O233 C228 1.259 . S
O234 Tb222 2.374 . S
O234 C229 1.250 . S
O235 Tb220 2.353 . S
O235 C229 1.263 . S
C236 O237 1.275 . S
C236 O238 1.246 . S
O237 Tb220 2.427 . S
O237 C236 1.275 . S
O238 Tb220 2.513 . S
O238 C236 1.246 . S
C239 O223 1.245 . S
C239 O224 1.259 . S
C240 C241 1.369 . S
C240 C242 1.419 . S
C240 H244 0.930 . S
C241 C240 1.369 . S
C241 C250 1.429 . S
C242 C240 1.419 . S
C242 C243 1.363 . S
C242 H245 0.929 . S
C243 C242 1.363 . S
C243 C249 1.428 . S
H244 C240 0.930 . S
H245 C242 0.929 . S
S246 N247 1.613 . S
S246 N248 1.610 . S
N247 S246 1.613 . S
N247 C250 1.350 . S
N248 S246 1.610 . S
N248 C249 1.351 . S
C249 C243 1.428 . S
C249 N248 1.351 . S
C249 C250 1.434 . S
C250 C241 1.429 . S
C250 N247 1.350 . S
C250 C249 1.434 . S
C251 C252 1.369 . S
C251 C253 1.419 . S
C251 H255 0.930 . S
C252 C251 1.369 . S
C252 C261 1.429 . S
C253 C251 1.419 . S
C253 C254 1.363 . S
C253 H256 0.929 . S
C254 C253 1.363 . S
C254 C260 1.428 . S
H255 C251 0.930 . S
H256 C253 0.929 . S
S257 N258 1.613 . S
S257 N259 1.610 1_455 S
N258 S257 1.613 . S
N258 C261 1.350 . S
N259 S257 1.610 1_655 S
N259 C260 1.351 1_655 S
C260 C254 1.428 . S
C260 N259 1.351 1_455 S
C260 C261 1.434 . S
C261 C252 1.429 . S
C261 N258 1.350 . S
C261 C260 1.434 . S
C262 C263 1.369 . S
C262 C264 1.419 . S
C262 H266 0.930 1_545 S
C263 C262 1.369 . S
C263 C272 1.429 . S
C264 C262 1.419 . S
C264 C265 1.363 . S
C264 H267 0.929 . S
C265 C264 1.363 . S
C265 C271 1.428 . S
H266 C262 0.930 1_565 S
H267 C264 0.929 . S
S268 N269 1.613 . S
S268 N270 1.610 . S
N269 S268 1.613 . S
N269 C272 1.350 . S
N270 S268 1.610 . S
N270 C271 1.351 . S
C271 C265 1.428 . S
C271 N270 1.351 . S
C271 C272 1.434 . S
C272 C263 1.429 . S
C272 N269 1.350 . S
C272 C271 1.434 . S
C273 C274 1.369 . S
C273 C275 1.419 . S
C273 H277 0.930 . S
C274 C273 1.369 . S
C274 C283 1.429 . S
C275 C273 1.419 . S
C275 C276 1.363 . S
C275 H278 0.929 . S
C276 C275 1.363 . S
C276 C282 1.428 . S
H277 C273 0.930 . S
H278 C275 0.929 . S
S279 N280 1.613 . S
S279 N281 1.610 . S
N280 S279 1.613 . S
N280 C283 1.350 . S
N281 S279 1.610 . S
N281 C282 1.351 . S
C282 C276 1.428 . S
C282 N281 1.351 . S
C282 C283 1.434 . S
C283 C274 1.429 . S
C283 N280 1.350 . S
C283 C282 1.434 . S
C284 C285 1.369 1_455 S
C284 C286 1.419 1_455 S
C284 H288 0.930 . S
C285 C284 1.369 1_655 S
C285 C294 1.429 . S
C286 C284 1.419 1_655 S
C286 C287 1.363 . S
C286 H289 0.929 . S
C287 C286 1.363 . S
C287 C293 1.428 . S
H288 C284 0.930 . S
H289 C286 0.929 . S
S290 N291 1.613 . S
S290 N292 1.610 . S
N291 S290 1.613 . S
N291 C294 1.350 . S
N292 S290 1.610 . S
N292 C293 1.351 . S
C293 C287 1.428 . S
C293 N292 1.351 . S
C293 C294 1.434 . S
C294 C285 1.429 . S
C294 N291 1.350 . S
C294 C293 1.434 . S
C295 C296 1.369 . S
C295 C297 1.419 1_565 S
C295 H299 0.930 . S
C296 C295 1.369 . S
C296 C305 1.429 . S
C297 C295 1.419 1_545 S
C297 C298 1.363 1_545 S
C297 H300 0.929 . S
C298 C297 1.363 1_565 S
C298 C304 1.428 . S
H299 C295 0.930 . S
H300 C297 0.929 . S
S301 N302 1.613 . S
S301 N303 1.610 . S
N302 S301 1.613 . S
N302 C305 1.350 . S
N303 S301 1.610 . S
N303 C304 1.351 . S
C304 C298 1.428 . S
C304 N303 1.351 . S
C304 C305 1.434 . S
C305 C296 1.429 . S
C305 N302 1.350 . S
C305 C304 1.434 . S
C306 C307 1.369 . S
C306 C308 1.419 . S
C306 H310 0.930 . S
C307 C306 1.369 . S
C307 C316 1.429 . S
C308 C306 1.419 . S
C308 C309 1.363 . S
C308 H311 0.929 . S
C309 C308 1.363 . S
C309 C315 1.428 . S
H310 C306 0.930 . S
H311 C308 0.929 . S
S312 N313 1.613 . S
S312 N314 1.610 . S
N313 S312 1.613 . S
N313 C316 1.350 . S
N314 S312 1.610 . S
N314 C315 1.351 . S
C315 C309 1.428 . S
C315 N314 1.351 . S
C315 C316 1.434 . S
C316 C307 1.429 . S
C316 N313 1.350 . S
C316 C315 1.434 . S
C317 C318 1.369 . S
C317 C319 1.419 . S
C317 H321 0.930 . S
C318 C317 1.369 . S
C318 C327 1.429 . S
C319 C317 1.419 . S
C319 C320 1.363 . S
C319 H322 0.929 . S
C320 C319 1.363 . S
C320 C326 1.428 . S
H321 C317 0.930 . S
H322 C319 0.929 . S
S323 N324 1.613 . S
S323 N325 1.610 1_655 S
N324 S323 1.613 . S
N324 C327 1.350 1_655 S
N325 S323 1.610 1_455 S
N325 C326 1.351 . S
C326 C320 1.428 . S
C326 N325 1.351 . S
C326 C327 1.434 . S
C327 C318 1.429 . S
C327 N324 1.350 1_455 S
C327 C326 1.434 . S
C328 C329 1.369 . S
C328 C330 1.419 . S
C328 H332 0.930 . S
C329 C328 1.369 . S
C329 C338 1.429 . S
C330 C328 1.419 . S
C330 C331 1.363 . S
C330 H333 0.929 . S
C331 C330 1.363 . S
C331 C337 1.428 1_545 S
H332 C328 0.930 . S
H333 C330 0.929 . S
S334 N335 1.613 1_565 S
S334 N336 1.610 . S
N335 S334 1.613 1_545 S
N335 C338 1.350 . S
N336 S334 1.610 . S
N336 C337 1.351 . S
C337 C331 1.428 1_565 S
C337 N336 1.351 . S
C337 C338 1.434 1_565 S
C338 C329 1.429 . S
C338 N335 1.350 . S
C338 C337 1.434 1_545 S
C339 C340 1.369 . S
C339 C341 1.419 . S
C339 H343 0.930 . S
C340 C339 1.369 . S
C340 C349 1.429 . S
C341 C339 1.419 . S
C341 C342 1.363 . S
C341 H344 0.929 . S
C342 C341 1.363 . S
C342 C348 1.428 . S
H343 C339 0.930 . S
H344 C341 0.929 . S
S345 N346 1.613 . S
S345 N347 1.610 . S
N346 S345 1.613 . S
N346 C349 1.350 . S
N347 S345 1.610 . S
N347 C348 1.351 . S
C348 C342 1.428 . S
C348 N347 1.351 . S
C348 C349 1.434 . S
C349 C340 1.429 . S
C349 N346 1.350 . S
C349 C348 1.434 . S
C350 C351 1.369 . S
C350 C352 1.419 . S
C350 H354 0.930 . S
C351 C350 1.369 . S
C351 C360 1.428 1_655 S
C352 C350 1.419 . S
C352 C353 1.363 . S
C352 H355 0.929 . S
C353 C352 1.363 . S
C353 C359 1.428 . S
H354 C350 0.930 . S
H355 C352 0.929 . S
S356 N357 1.613 . S
S356 N358 1.610 1_455 S
N357 S356 1.613 . S
N357 C360 1.350 . S
N358 S356 1.610 1_655 S
N358 C359 1.351 . S
C359 C353 1.428 . S
C359 N358 1.351 . S
C359 C360 1.434 1_655 S
C360 C351 1.428 1_455 S
C360 N357 1.350 . S
C360 C359 1.434 1_455 S
C361 C362 1.369 . S
C361 C363 1.419 . S
C361 H365 0.930 . S
C362 C361 1.369 . S
C362 C371 1.429 . S
C363 C361 1.419 . S
C363 C364 1.363 . S
C363 H366 0.929 . S
C364 C363 1.363 . S
C364 C370 1.428 . S
H365 C361 0.930 . S
H366 C363 0.929 . S
S367 N368 1.613 . S
S367 N369 1.610 1_565 S
N368 S367 1.613 . S
N368 C371 1.350 . S
N369 S367 1.610 1_545 S
N369 C370 1.351 1_545 S
C370 C364 1.428 . S
C370 N369 1.351 1_565 S
C370 C371 1.434 . S
C371 C362 1.429 . S
C371 N368 1.350 . S
C371 C370 1.434 . S
C372 C373 1.369 . S
C372 C374 1.419 . S
C372 H376 0.930 . S
C373 C372 1.369 . S
C373 C382 1.429 . S
C374 C372 1.419 . S
C374 C375 1.363 . S
C374 H377 0.929 . S
C375 C374 1.363 . S
C375 C381 1.428 . S
H376 C372 0.930 . S
H377 C374 0.929 . S
S378 N379 1.613 . S
S378 N380 1.610 . S
N379 S378 1.613 . S
N379 C382 1.350 . S
N380 S378 1.610 . S
N380 C381 1.351 . S
C381 C375 1.428 . S
C381 N380 1.351 . S
C381 C382 1.434 . S
C382 C373 1.429 . S
C382 N379 1.350 . S
C382 C381 1.434 . S
C383 C384 1.369 . S
C383 C385 1.419 . S
C383 H387 0.930 . S
C384 C383 1.369 . S
C384 C393 1.429 . S
C385 C383 1.419 . S
C385 C386 1.363 . S
C385 H388 0.929 . S
C386 C385 1.363 . S
C386 C392 1.428 . S
H387 C383 0.930 . S
H388 C385 0.929 . S
S389 N390 1.613 . S
S389 N391 1.610 . S
N390 S389 1.613 . S
N390 C393 1.350 . S
N391 S389 1.610 . S
N391 C392 1.351 . S
C392 C386 1.428 . S
C392 N391 1.351 . S
C392 C393 1.434 . S
C393 C384 1.429 . S
C393 N390 1.350 . S
C393 C392 1.434 . S
C394 C395 1.369 . S
C394 C396 1.419 . S
C394 H398 0.930 . S
C395 C394 1.369 . S
C395 C404 1.429 . S
C396 C394 1.419 . S
C396 C397 1.363 . S
C396 H399 0.929 . S
C397 C396 1.363 . S
C397 C403 1.428 . S
H398 C394 0.930 . S
H399 C396 0.929 . S
S400 N401 1.613 . S
S400 N402 1.610 . S
N401 S400 1.613 . S
N401 C404 1.350 . S
N402 S400 1.610 . S
N402 C403 1.351 . S
C403 C397 1.428 . S
C403 N402 1.351 . S
C403 C404 1.434 . S
C404 C395 1.429 . S
C404 N401 1.350 . S
C404 C403 1.434 . S
C405 C406 1.369 . S
C405 C407 1.419 . S
C405 H409 0.930 . S
C406 C405 1.369 . S
C406 C415 1.429 . S
C407 C405 1.419 . S
C407 C408 1.363 . S
C407 H410 0.929 . S
C408 C407 1.363 . S
C408 C414 1.428 . S
H409 C405 0.930 . S
H410 C407 0.929 . S
S411 N412 1.613 . S
S411 N413 1.610 . S
N412 S411 1.613 . S
N412 C415 1.350 . S
N413 S411 1.610 . S
N413 C414 1.351 . S
C414 C408 1.428 . S
C414 N413 1.351 . S
C414 C415 1.434 . S
C415 C406 1.429 . S
C415 N412 1.350 . S
C415 C414 1.434 . S
C416 C417 1.369 . S
C416 C418 1.419 . S
C416 H420 0.930 . S
C417 C416 1.369 . S
C417 C426 1.429 . S
C418 C416 1.419 . S
C418 C419 1.363 . S
C418 H421 0.929 . S
C419 C418 1.363 . S
C419 C425 1.428 . S
H420 C416 0.930 . S
H421 C418 0.929 . S
S422 N423 1.613 . S
S422 N424 1.610 . S
N423 S422 1.613 . S
N423 C426 1.350 . S
N424 S422 1.610 . S
N424 C425 1.351 . S
C425 C419 1.428 . S
C425 N424 1.351 . S
C425 C426 1.434 . S
C426 C417 1.429 . S
C426 N423 1.350 . S
C426 C425 1.434 . S
C427 C428 1.369 . S
C427 C429 1.419 . S
C427 H431 0.930 . S
C428 C427 1.369 . S
C428 C437 1.429 . S
C429 C427 1.419 . S
C429 C430 1.363 . S
C429 H432 0.929 . S
C430 C429 1.363 . S
C430 C436 1.428 . S
H431 C427 0.930 . S
H432 C429 0.929 . S
S433 N434 1.613 . S
S433 N435 1.610 . S
N434 S433 1.613 . S
N434 C437 1.350 . S
N435 S433 1.610 . S
N435 C436 1.351 . S
C436 C430 1.428 . S
C436 N435 1.351 . S
C436 C437 1.434 . S
C437 C428 1.429 . S
C437 N434 1.350 . S
C437 C436 1.434 . S
C438 C439 1.369 . S
C438 C440 1.419 . S
C438 H442 0.930 . S
C439 C438 1.369 . S
C439 C448 1.429 . S
C440 C438 1.419 . S
C440 C441 1.363 . S
C440 H443 0.929 . S
C441 C440 1.363 . S
C441 C447 1.428 . S
H442 C438 0.930 . S
H443 C440 0.929 . S
S444 N445 1.613 . S
S444 N446 1.610 . S
N445 S444 1.613 . S
N445 C448 1.350 . S
N446 S444 1.610 . S
N446 C447 1.351 . S
C447 C441 1.428 . S
C447 N446 1.351 . S
C447 C448 1.434 . S
C448 C439 1.429 . S
C448 N445 1.350 . S
C448 C447 1.434 . S
C449 C450 1.369 . S
C449 C451 1.419 . S
C449 H453 0.930 . S
C450 C449 1.369 . S
C450 C459 1.429 . S
C451 C449 1.419 . S
C451 C452 1.363 . S
C451 H454 0.929 . S
C452 C451 1.363 . S
C452 C458 1.428 . S
H453 C449 0.930 . S
H454 C451 0.929 . S
S455 N456 1.613 . S
S455 N457 1.610 . S
N456 S455 1.613 . S
N456 C459 1.350 . S
N457 S455 1.610 . S
N457 C458 1.351 . S
C458 C452 1.428 . S
C458 N457 1.351 . S
C458 C459 1.434 . S
C459 C450 1.429 . S
C459 N456 1.350 . S
C459 C458 1.434 . S
C460 C461 1.369 . S
C460 C462 1.419 . S
C460 H464 0.930 . S
C461 C460 1.369 . S
C461 C470 1.429 . S
C462 C460 1.419 . S
C462 C463 1.363 . S
C462 H465 0.929 . S
C463 C462 1.363 . S
C463 C469 1.428 . S
H464 C460 0.930 . S
H465 C462 0.929 . S
S466 N467 1.613 . S
S466 N468 1.610 . S
N467 S466 1.613 . S
N467 C470 1.350 . S
N468 S466 1.610 . S
N468 C469 1.351 . S
C469 C463 1.428 . S
C469 N468 1.351 . S
C469 C470 1.434 . S
C470 C461 1.429 . S
C470 N467 1.350 . S
C470 C469 1.434 . S
C471 C472 1.369 . S
C471 C473 1.419 . S
C471 H475 0.930 . S
C472 C471 1.369 . S
C472 C481 1.429 . S
C473 C471 1.419 . S
C473 C474 1.363 . S
C473 H476 0.929 . S
C474 C473 1.363 . S
C474 C480 1.428 . S
H475 C471 0.930 . S
H476 C473 0.929 . S
S477 N478 1.613 . S
S477 N479 1.610 . S
N478 S477 1.613 . S
N478 C481 1.350 . S
N479 S477 1.610 . S
N479 C480 1.351 . S
C480 C474 1.428 . S
C480 N479 1.351 . S
C480 C481 1.434 . S
C481 C472 1.429 . S
C481 N478 1.350 . S
C481 C480 1.434 . S
C482 C483 1.369 . S
C482 C484 1.419 . S
C482 H486 0.930 . S
C483 C482 1.369 . S
C483 C492 1.429 . S
C484 C482 1.419 . S
C484 C485 1.363 . S
C484 H487 0.929 . S
C485 C484 1.363 . S
C485 C491 1.428 . S
H486 C482 0.930 . S
H487 C484 0.929 . S
S488 N489 1.613 . S
S488 N490 1.610 . S
N489 S488 1.613 . S
N489 C492 1.350 . S
N490 S488 1.610 . S
N490 C491 1.351 . S
C491 C485 1.428 . S
C491 N490 1.351 . S
C491 C492 1.434 . S
C492 C483 1.429 . S
C492 N489 1.350 . S
C492 C491 1.434 . S
C493 C494 1.369 . S
C493 C495 1.419 . S
C493 H497 0.930 . S
C494 C493 1.369 . S
C494 C503 1.429 . S
C495 C493 1.419 . S
C495 C496 1.363 . S
C495 H498 0.929 . S
C496 C495 1.363 . S
C496 C502 1.428 . S
H497 C493 0.930 . S
H498 C495 0.929 . S
S499 N500 1.613 . S
S499 N501 1.610 . S
N500 S499 1.613 . S
N500 C503 1.350 . S
N501 S499 1.610 . S
N501 C502 1.351 . S
C502 C496 1.428 . S
C502 N501 1.351 . S
C502 C503 1.434 . S
C503 C494 1.429 . S
C503 N500 1.350 . S
C503 C502 1.434 . S
C504 C505 1.369 . S
C504 C506 1.419 . S
C504 H508 0.930 . S
C505 C504 1.369 . S
C505 C514 1.429 . S
C506 C504 1.419 . S
C506 C507 1.363 . S
C506 H509 0.929 . S
C507 C506 1.363 . S
C507 C513 1.428 . S
H508 C504 0.930 . S
H509 C506 0.929 . S
S510 N511 1.613 . S
S510 N512 1.610 . S
N511 S510 1.613 . S
N511 C514 1.350 . S
N512 S510 1.610 . S
N512 C513 1.351 . S
C513 C507 1.428 . S
C513 N512 1.351 . S
C513 C514 1.434 . S
C514 C505 1.429 . S
C514 N511 1.350 . S
C514 C513 1.434 . S
C515 C516 1.369 . S
C515 C517 1.419 . S
C515 H519 0.930 . S
C516 C515 1.369 . S
C516 C525 1.429 . S
C517 C515 1.419 . S
C517 C518 1.363 . S
C517 H520 0.929 . S
C518 C517 1.363 . S
C518 C524 1.428 . S
H519 C515 0.930 . S
H520 C517 0.929 . S
S521 N522 1.613 . S
S521 N523 1.610 . S
N522 S521 1.613 . S
N522 C525 1.350 . S
N523 S521 1.610 . S
N523 C524 1.351 . S
C524 C518 1.428 . S
C524 N523 1.351 . S
C524 C525 1.434 . S
C525 C516 1.429 . S
C525 N522 1.350 . S
C525 C524 1.434 . S
C526 C527 1.369 . S
C526 C528 1.419 . S
C526 H530 0.930 . S
C527 C526 1.369 . S
C527 C536 1.429 . S
C528 C526 1.419 . S
C528 C529 1.363 . S
C528 H531 0.929 . S
C529 C528 1.363 . S
C529 C535 1.428 . S
H530 C526 0.930 . S
H531 C528 0.929 . S
S532 N533 1.613 . S
S532 N534 1.610 . S
N533 S532 1.613 . S
N533 C536 1.350 . S
N534 S532 1.610 . S
N534 C535 1.351 . S
C535 C529 1.428 . S
C535 N534 1.351 . S
C535 C536 1.434 . S
C536 C527 1.429 . S
C536 N533 1.350 . S
C536 C535 1.434 . S
C537 C538 1.369 . S
C537 C539 1.419 . S
C537 H541 0.930 . S
C538 C537 1.369 . S
C538 C547 1.429 . S
C539 C537 1.419 . S
C539 C540 1.363 . S
C539 H542 0.929 . S
C540 C539 1.363 . S
C540 C546 1.428 . S
H541 C537 0.930 . S
H542 C539 0.929 . S
S543 N544 1.613 . S
S543 N545 1.610 . S
N544 S543 1.613 . S
N544 C547 1.350 . S
N545 S543 1.610 . S
N545 C546 1.351 . S
C546 C540 1.428 . S
C546 N545 1.351 . S
C546 C547 1.434 . S
C547 C538 1.429 . S
C547 N544 1.350 . S
C547 C546 1.434 . S
C548 C549 1.369 . S
C548 C550 1.419 . S
C548 H552 0.930 . S
C549 C548 1.369 . S
C549 C558 1.429 . S
C550 C548 1.419 . S
C550 C551 1.363 . S
C550 H553 0.929 . S
C551 C550 1.363 . S
C551 C557 1.428 . S
H552 C548 0.930 . S
H553 C550 0.929 . S
S554 N555 1.613 . S
S554 N556 1.610 . S
N555 S554 1.613 . S
N555 C558 1.350 . S
N556 S554 1.610 . S
N556 C557 1.351 . S
C557 C551 1.428 . S
C557 N556 1.351 . S
C557 C558 1.434 . S
C558 C549 1.429 . S
C558 N555 1.350 . S
C558 C557 1.434 . S
C559 C560 1.369 . S
C559 C561 1.419 . S
C559 H563 0.930 . S
C560 C559 1.369 . S
C560 C569 1.429 . S
C561 C559 1.419 . S
C561 C562 1.363 . S
C561 H564 0.929 . S
C562 C561 1.363 . S
C562 C568 1.428 . S
H563 C559 0.930 . S
H564 C561 0.929 . S
S565 N566 1.613 . S
S565 N567 1.610 . S
N566 S565 1.613 . S
N566 C569 1.350 . S
N567 S565 1.610 . S
N567 C568 1.351 . S
C568 C562 1.428 . S
C568 N567 1.351 . S
C568 C569 1.434 . S
C569 C560 1.429 . S
C569 N566 1.350 . S
C569 C568 1.434 . S
C570 C571 1.369 . S
C570 C572 1.419 1_556 S
C570 H574 0.930 . S
C571 C570 1.369 . S
C571 C580 1.429 . S
C572 C570 1.419 1_554 S
C572 C573 1.363 . S
C572 H575 0.929 . S
C573 C572 1.363 . S
C573 C579 1.428 . S
H574 C570 0.930 . S
H575 C572 0.929 . S
S576 N577 1.613 1_554 S
S576 N578 1.610 . S
N577 S576 1.613 1_556 S
N577 C580 1.350 . S
N578 S576 1.610 . S
N578 C579 1.351 . S
C579 C573 1.428 . S
C579 N578 1.351 . S
C579 C580 1.434 1_554 S
C580 C571 1.429 . S
C580 N577 1.350 . S
C580 C579 1.434 1_556 S
C581 C582 1.369 . S
C581 C583 1.419 1_455 S
C581 H585 0.930 . S
C582 C581 1.369 . S
C582 C591 1.429 . S
C583 C581 1.419 1_655 S
C583 C584 1.363 . S
C583 H586 0.929 . S
C584 C583 1.363 . S
C584 C590 1.428 . S
H585 C581 0.930 . S
H586 C583 0.929 . S
S587 N588 1.613 1_655 S
S587 N589 1.610 . S
N588 S587 1.613 1_455 S
N588 C591 1.350 . S
N589 S587 1.610 . S
N589 C590 1.351 . S
C590 C584 1.428 . S
C590 N589 1.351 . S
C590 C591 1.434 1_655 S
C591 C582 1.429 . S
C591 N588 1.350 . S
C591 C590 1.434 1_455 S
C592 C593 1.369 . S
C592 C594 1.419 1_565 S
C592 H596 0.930 . S
C593 C592 1.369 . S
C593 C602 1.429 1_554 S
C594 C592 1.419 1_545 S
C594 C595 1.363 1_554 S
C594 H597 0.929 . S
C595 C594 1.363 1_556 S
C595 C601 1.433 . S
H596 C592 0.930 . S
H597 C594 0.929 . S
S598 N599 1.613 . S
S598 N600 1.610 . S
N599 S598 1.613 . S
N599 C602 1.350 . S
N600 S598 1.610 . S
N600 C601 1.354 1_565 S
C601 C595 1.433 . S
C601 N600 1.354 1_545 S
C601 C602 1.426 1_545 S
C602 C593 1.429 1_556 S
C602 N599 1.350 . S
C602 C601 1.426 1_565 S
C603 C604 1.369 . S
C603 C605 1.419 . S
C603 H607 0.930 . S
C604 C603 1.369 . S
C604 C613 1.429 . S
C605 C603 1.419 . S
C605 C606 1.363 . S
C605 H608 0.929 . S
C606 C605 1.363 . S
C606 C612 1.428 . S
H607 C603 0.930 . S
H608 C605 0.929 . S
S609 N610 1.613 . S
S609 N611 1.610 . S
N610 S609 1.613 . S
N610 C613 1.350 . S
N611 S609 1.610 . S
N611 C612 1.351 . S
C612 C606 1.428 . S
C612 N611 1.351 . S
C612 C613 1.434 . S
C613 C604 1.429 . S
C613 N610 1.350 . S
C613 C612 1.434 . S
C614 C615 1.369 . S
C614 C616 1.419 1_656 S
C614 H618 0.930 . S
C615 C614 1.369 . S
C615 C624 1.434 . S
C616 C614 1.419 1_454 S
C616 C617 1.363 . S
C616 H619 0.929 . S
C617 C616 1.363 . S
C617 C623 1.428 . S
H618 C614 0.930 . S
H619 C616 0.929 . S
S620 N621 1.613 . S
S620 N622 1.610 1_655 S
N621 S620 1.613 . S
N621 C624 1.349 1_554 S
N622 S620 1.610 1_455 S
N622 C623 1.351 . S
C623 C617 1.428 . S
C623 N622 1.351 . S
C623 C624 1.429 1_454 S
C624 C615 1.434 . S
C624 N621 1.349 1_556 S
C624 C623 1.429 1_656 S
C625 C626 1.369 . S
C625 C627 1.419 . S
C625 H629 0.930 . S
C626 C625 1.369 . S
C626 C635 1.429 1_565 S
C627 C625 1.419 . S
C627 C628 1.363 1_565 S
C627 H630 0.929 . S
C628 C627 1.363 1_545 S
C628 C634 1.428 . S
H629 C625 0.930 . S
H630 C627 0.929 . S
S631 N632 1.613 . S
S631 N633 1.610 . S
N632 S631 1.613 . S
N632 C635 1.350 . S
N633 S631 1.610 . S
N633 C634 1.351 . S
C634 C628 1.428 . S
C634 N633 1.351 . S
C634 C635 1.434 . S
C635 C626 1.429 1_545 S
C635 N632 1.350 . S
C635 C634 1.434 . S
C241 C86 1.401 1_545 S
C243 C19 1.455 . S
C252 C106 1.404 . S
C254 C39 1.458 1_455 S
C263 C59 1.454 1_545 S
C265 C6 1.399 1_655 S
C274 C79 1.454 . S
C276 C26 1.402 1_565 S
C285 C99 1.456 1_655 S
C287 C46 1.400 . S
C296 C66 1.398 1_455 S
C298 C119 1.454 1_565 S
C307 C166 1.406 1_655 S
C309 C139 1.459 . S
C318 C159 1.459 1_455 S
C320 C186 1.406 1_565 S
C329 C206 1.406 . S
C331 C179 1.459 1_545 S
C340 C199 1.454 . S
C342 C226 1.399 1_455 S
C351 C219 1.459 1_655 S
C353 C126 1.407 1_545 S
C362 C146 1.406 . S
C364 C239 1.457 1_565 S
C373 C96 1.572 . S
C375 C8 1.486 . S
C384 C28 1.487 . S
C386 C116 1.571 . S
C395 C48 1.491 . S
C397 C16 1.573 . S
C406 C68 1.492 . S
C408 C36 1.573 . S
C417 C56 1.573 . S
C419 C88 1.491 . S
C428 C76 1.570 . S
C430 C108 1.485 . S
C439 C176 1.569 . S
C441 C128 1.482 . S
C450 C148 1.491 . S
C452 C196 1.572 . S
C461 C168 1.490 . S
C463 C216 1.573 . S
C472 C236 1.573 . S
C474 C188 1.491 . S
C483 C208 1.486 . S
C485 C136 1.571 . S
C494 C156 1.573 . S
C496 C228 1.491 . S
C505 C209 1.686 . S
C507 C9 1.683 . S
C516 C29 1.683 . S
C518 C229 1.679 . S
C527 C49 1.687 . S
C529 C129 1.682 . S
C538 C69 1.681 . S
C540 C149 1.679 . S
C549 C89 1.682 . S
C551 C169 1.679 . S
C560 C189 1.681 . S
C562 C109 1.679 . S
C571 C181 1.851 . S
C573 C1 1.850 . S
C582 C201 1.849 . S
C584 C21 1.851 . S
C593 C41 1.851 . S
C595 C221 1.847 . S
C604 C61 1.849 . S
C606 C121 1.851 . S
C615 C141 1.850 . S
C617 C81 1.847 . S
C626 C161 1.846 . S
C628 C101 1.851 . S
