# Generated by pormake.
# Topology wka, (5)-cn, num edge types: 1
# Building blocks:
#     Node 0, Type 0, BuildingBlock: XOMCOT_clean_sbu_0, # of connection points: 5
#     Node 1, Type 0, BuildingBlock: XOMCOT_clean_sbu_0, # of connection points: 5
#     Node 2, Type 0, BuildingBlock: XOMCOT_clean_sbu_0, # of connection points: 5
#     Node 3, Type 0, BuildingBlock: XOMCOT_clean_sbu_0, # of connection points: 5
#     Node 4, Type 0, BuildingBlock: XOMCOT_clean_sbu_0, # of connection points: 5
#     Node 5, Type 0, BuildingBlock: XOMCOT_clean_sbu_0, # of connection points: 5
#     Node 6, Type 0, BuildingBlock: XOMCOT_clean_sbu_0, # of connection points: 5
#     Node 7, Type 0, BuildingBlock: XOMCOT_clean_sbu_0, # of connection points: 5
#     Node 8, Type 0, BuildingBlock: XOMCOT_clean_sbu_0, # of connection points: 5
#     Node 9, Type 0, BuildingBlock: XOMCOT_clean_sbu_0, # of connection points: 5
#     Node 10, Type 0, BuildingBlock: XOMCOT_clean_sbu_0, # of connection points: 5
#     Node 11, Type 0, BuildingBlock: XOMCOT_clean_sbu_0, # of connection points: 5
#     Edge 12, Type (0, 0), BuildingBlock: KIFKEQ_clean_linker_1, # of connection points: 2
#     Edge 13, Type (0, 0), BuildingBlock: KIFKEQ_clean_linker_1, # of connection points: 2
#     Edge 14, Type (0, 0), BuildingBlock: KIFKEQ_clean_linker_1, # of connection points: 2
#     Edge 15, Type (0, 0), BuildingBlock: KIFKEQ_clean_linker_1, # of connection points: 2
#     Edge 16, Type (0, 0), BuildingBlock: KIFKEQ_clean_linker_1, # of connection points: 2
#     Edge 17, Type (0, 0), BuildingBlock: KIFKEQ_clean_linker_1, # of connection points: 2
#     Edge 18, Type (0, 0), BuildingBlock: KIFKEQ_clean_linker_1, # of connection points: 2
#     Edge 19, Type (0, 0), BuildingBlock: KIFKEQ_clean_linker_1, # of connection points: 2
#     Edge 20, Type (0, 0), BuildingBlock: KIFKEQ_clean_linker_1, # of connection points: 2
#     Edge 21, Type (0, 0), BuildingBlock: KIFKEQ_clean_linker_1, # of connection points: 2
#     Edge 22, Type (0, 0), BuildingBlock: KIFKEQ_clean_linker_1, # of connection points: 2
#     Edge 23, Type (0, 0), BuildingBlock: KIFKEQ_clean_linker_1, # of connection points: 2
#     Edge 24, Type (0, 0), BuildingBlock: KIFKEQ_clean_linker_1, # of connection points: 2
#     Edge 25, Type (0, 0), BuildingBlock: KIFKEQ_clean_linker_1, # of connection points: 2
#     Edge 26, Type (0, 0), BuildingBlock: KIFKEQ_clean_linker_1, # of connection points: 2
#     Edge 27, Type (0, 0), BuildingBlock: KIFKEQ_clean_linker_1, # of connection points: 2
#     Edge 28, Type (0, 0), BuildingBlock: KIFKEQ_clean_linker_1, # of connection points: 2
#     Edge 29, Type (0, 0), BuildingBlock: KIFKEQ_clean_linker_1, # of connection points: 2
#     Edge 30, Type (0, 0), BuildingBlock: KIFKEQ_clean_linker_1, # of connection points: 2
#     Edge 31, Type (0, 0), BuildingBlock: KIFKEQ_clean_linker_1, # of connection points: 2
#     Edge 32, Type (0, 0), BuildingBlock: KIFKEQ_clean_linker_1, # of connection points: 2
#     Edge 33, Type (0, 0), BuildingBlock: KIFKEQ_clean_linker_1, # of connection points: 2
#     Edge 34, Type (0, 0), BuildingBlock: KIFKEQ_clean_linker_1, # of connection points: 2
#     Edge 35, Type (0, 0), BuildingBlock: KIFKEQ_clean_linker_1, # of connection points: 2
#     Edge 36, Type (0, 0), BuildingBlock: KIFKEQ_clean_linker_1, # of connection points: 2
#     Edge 37, Type (0, 0), BuildingBlock: KIFKEQ_clean_linker_1, # of connection points: 2
#     Edge 38, Type (0, 0), BuildingBlock: KIFKEQ_clean_linker_1, # of connection points: 2
#     Edge 39, Type (0, 0), BuildingBlock: KIFKEQ_clean_linker_1, # of connection points: 2
#     Edge 40, Type (0, 0), BuildingBlock: KIFKEQ_clean_linker_1, # of connection points: 2
#     Edge 41, Type (0, 0), BuildingBlock: KIFKEQ_clean_linker_1, # of connection points: 2
# Relax obj value: 0.222
# Max RMSD: 0.185
# Mean RMSD: 0.184
data_MOF--net-wka--node1-XOMCOT_clean_sbu_0--edge1-KIFKEQ_clean_linker_1
_symmetry_space_group_name_H-M    P1
_symmetry_Int_Tables_number       1
_symmetry_cell_setting            triclinic
loop_
_symmetry_equiv_pos_as_xyz
'x, y, z'
_cell_length_a     68.209918
_cell_length_b     68.172261
_cell_length_c     17.520524
_cell_angle_alpha  89.98608
_cell_angle_beta   90.014229
_cell_angle_gamma 119.98502
loop_
_atom_site_label
_atom_site_type_symbol
_atom_site_fract_x
_atom_site_fract_y
_atom_site_fract_z
_atom_type_partial_charge
Co0 Co 0.10766 0.41308 0.09344 0.0
C1 C 0.09985 0.40949 0.26033 0.0
C2 C 0.07806 0.37819 0.20403 0.0
C3 C 0.07549 0.37464 0.28167 0.0
N4 N 0.09291 0.40026 0.19039 0.0
N5 N 0.08928 0.39441 0.31687 0.0
H6 H 0.1141 0.42613 0.27038 0.0
H7 H 0.0707 0.36517 0.16082 0.0
C8 C 0.05876 0.3854 0.04672 0.0
O9 O 0.05277 0.39238 0.10755 0.0
N10 N 0.12251 0.42512 0.99732 0.0
C11 C 0.13677 0.44691 0.97921 0.0
C12 C 0.13994 0.44839 0.90121 0.0
C13 C 0.1176 0.41362 0.93115 0.0
N14 N 0.12765 0.42743 0.87097 0.0
C15 C 0.10649 0.45205 0.15147 0.0
C16 C 0.0822 0.45596 0.0321 0.0
C17 C 0.08953 0.47192 0.09119 0.0
C18 C 0.10179 0.46976 0.15148 0.0
C19 C 0.08705 0.43833 0.03481 0.0
N20 N 0.0985 0.43606 0.0952 0.0
H21 H 0.11766 0.4521 0.19468 0.0
H22 H 0.08241 0.42712 0.98639 0.0
H23 H 0.1432 0.46087 0.01912 0.0
H24 H 0.1061 0.39559 0.92716 0.0
O25 O 0.13629 0.42968 0.14524 0.0
O26 O 0.12207 0.39479 0.1002 0.0
O27 O 0.0795 0.39141 0.03505 0.0
C28 C 0.13835 0.41185 0.13649 0.0
H29 H 0.06508 0.35855 0.30977 0.0
H30 H 0.14937 0.46393 0.86913 0.0
H31 H 0.07311 0.45728 0.98348 0.0
H32 H 0.10867 0.48231 0.19653 0.0
Co33 Co 0.69473 0.10994 0.26067 0.0
C34 C 0.68887 0.10175 0.4266 0.0
C35 C 0.70203 0.08246 0.37373 0.0
C36 C 0.70291 0.08045 0.45172 0.0
N37 N 0.69286 0.09554 0.3579 0.0
N38 N 0.69485 0.09285 0.48472 0.0
H39 H 0.68339 0.11392 0.43447 0.0
H40 H 0.70923 0.07625 0.33175 0.0
C41 C 0.67381 0.06058 0.21992 0.0
O42 O 0.66111 0.05537 0.28135 0.0
N43 N 0.69721 0.12455 0.1644 0.0
C44 C 0.69214 0.14089 0.14985 0.0
C45 C 0.69353 0.14462 0.07225 0.0
C46 C 0.70186 0.11874 0.09627 0.0
N47 N 0.69951 0.13054 0.03868 0.0
C48 C 0.65657 0.11308 0.31299 0.0
C49 C 0.62527 0.08314 0.21015 0.0
C50 C 0.61837 0.0942 0.26213 0.0
C51 C 0.63462 0.1096 0.31325 0.0
C52 C 0.64767 0.08764 0.21043 0.0
N53 N 0.66282 0.10161 0.26399 0.0
H54 H 0.6688 0.12604 0.34982 0.0
H55 H 0.65283 0.08046 0.16534 0.0
H56 H 0.68697 0.14891 0.19232 0.0
H57 H 0.70584 0.1054 0.08867 0.0
O58 O 0.70755 0.13883 0.31133 0.0
O59 O 0.72747 0.12389 0.26587 0.0
O60 O 0.68789 0.08129 0.20453 0.0
C61 C 0.7272 0.14048 0.30188 0.0
H62 H 0.71058 0.07209 0.48161 0.0
H63 H 0.68988 0.15639 0.04288 0.0
H64 H 0.6137 0.07134 0.16843 0.0
H65 H 0.63084 0.11971 0.35158 0.0
Co66 Co 0.59213 0.69658 0.43187 0.0
C67 C 0.59546 0.69351 0.59901 0.0
C68 C 0.62601 0.69979 0.5441 0.0
C69 C 0.62959 0.70169 0.62188 0.0
N70 N 0.60433 0.69405 0.52959 0.0
N71 N 0.61035 0.69794 0.65612 0.0
H72 H 0.57908 0.69185 0.60774 0.0
H73 H 0.63895 0.70417 0.50129 0.0
C74 C 0.61792 0.67354 0.38509 0.0
O75 O 0.60913 0.65992 0.44393 0.0
N76 N 0.58054 0.70003 0.3356 0.0
C77 C 0.5592 0.69491 0.31977 0.0
C78 C 0.55748 0.69722 0.24232 0.0
C79 C 0.59158 0.70574 0.26846 0.0
N80 N 0.57784 0.70383 0.20992 0.0
C81 C 0.55314 0.65642 0.48966 0.0
C82 C 0.54781 0.62903 0.36604 0.0
C83 C 0.5322 0.6202 0.42611 0.0
C84 C 0.5351 0.6342 0.48857 0.0
C85 C 0.56575 0.65133 0.36974 0.0
N86 N 0.56868 0.66463 0.43207 0.0
H87 H 0.55374 0.66724 0.53505 0.0
H88 H 0.57684 0.65809 0.321 0.0
H89 H 0.54565 0.689 0.36114 0.0
H90 H 0.60907 0.71024 0.26243 0.0
O91 O 0.57572 0.70891 0.48306 0.0
O92 O 0.61087 0.72922 0.43999 0.0
O93 O 0.61368 0.68961 0.37452 0.0
C94 C 0.59379 0.72865 0.47548 0.0
H95 H 0.64558 0.70715 0.65041 0.0
H96 H 0.54219 0.69368 0.21233 0.0
H97 H 0.54597 0.61894 0.31594 0.0
H98 H 0.52287 0.62842 0.53462 0.0
Co99 Co 0.89313 0.58927 0.58241 0.0
C100 C 0.89982 0.59228 0.74959 0.0
C101 C 0.9245 0.62258 0.69429 0.0
C102 C 0.92693 0.62595 0.772 0.0
N103 N 0.9079 0.60116 0.68003 0.0
N104 N 0.91132 0.6068 0.80654 0.0
H105 H 0.88436 0.57647 0.75882 0.0
H106 H 0.93328 0.63549 0.65156 0.0
C107 C 0.94203 0.61449 0.53569 0.0
O108 O 0.94667 0.60502 0.59298 0.0
N109 N 0.87818 0.57807 0.48591 0.0
C110 C 0.86271 0.55659 0.46799 0.0
C111 C 0.85926 0.55531 0.39019 0.0
C112 C 0.88356 0.58962 0.41986 0.0
N113 N 0.87259 0.57609 0.36001 0.0
C114 C 0.89389 0.55011 0.64087 0.0
C115 C 0.91606 0.54453 0.51809 0.0
C116 C 0.90974 0.52938 0.57947 0.0
C117 C 0.89845 0.53231 0.64127 0.0
C118 C 0.9114 0.56229 0.52045 0.0
N119 N 0.90108 0.56541 0.58254 0.0
H120 H 0.88372 0.55086 0.68616 0.0
H121 H 0.91568 0.57325 0.47131 0.0
H122 H 0.85552 0.54262 0.50794 0.0
H123 H 0.89586 0.60745 0.41557 0.0
O124 O 0.86417 0.57316 0.63259 0.0
O125 O 0.87997 0.60862 0.59083 0.0
O126 O 0.92183 0.6106 0.52576 0.0
C127 C 0.86308 0.59157 0.62501 0.0
H128 H 0.93858 0.64158 0.80051 0.0
H129 H 0.84887 0.53999 0.35802 0.0
H130 H 0.92442 0.5426 0.46847 0.0
H131 H 0.89238 0.5204 0.68831 0.0
Co132 Co 0.30799 0.88893 0.75545 0.0
C133 C 0.31322 0.89592 0.92027 0.0
C134 C 0.30689 0.92062 0.86747 0.0
C135 C 0.30638 0.92274 0.94573 0.0
N136 N 0.31114 0.90376 0.85201 0.0
N137 N 0.31008 0.90696 0.97864 0.0
H138 H 0.31584 0.88161 0.92683 0.0
H139 H 0.30296 0.9297 0.82516 0.0
C140 C 0.33452 0.92657 0.6479 0.0
O141 O 0.34443 0.91491 0.62956 0.0
N142 N 0.30354 0.87341 0.65768 0.0
C143 C 0.30144 0.85299 0.64308 0.0
C144 C 0.29793 0.84858 0.56607 0.0
C145 C 0.29929 0.88005 0.58993 0.0
N146 N 0.29685 0.8658 0.5326 0.0
C147 C 0.34309 0.87719 0.76433 0.0
C148 C 0.37855 0.92057 0.78926 0.0
C149 C 0.38324 0.90298 0.77821 0.0
C150 C 0.36511 0.88096 0.76798 0.0
C151 C 0.35619 0.91603 0.78456 0.0
N152 N 0.33894 0.89478 0.76686 0.0
H153 H 0.32943 0.86004 0.76083 0.0
H154 H 0.35281 0.92978 0.7927 0.0
H155 H 0.3015 0.84144 0.68504 0.0
H156 H 0.29822 0.89519 0.58227 0.0
O157 O 0.29288 0.86024 0.80637 0.0
O158 O 0.27549 0.87763 0.75876 0.0
O159 O 0.31899 0.91885 0.6992 0.0
C160 C 0.2741 0.8603 0.79557 0.0
H161 H 0.30205 0.93391 0.97583 0.0
H162 H 0.29603 0.83369 0.53723 0.0
H163 H 0.39204 0.93776 0.79923 0.0
H164 H 0.36792 0.8667 0.76339 0.0
Co165 Co 0.41008 0.30396 0.92692 0.0
C166 C 0.40676 0.30723 0.09388 0.0
C167 C 0.37762 0.30463 0.03892 0.0
C168 C 0.37471 0.30463 0.11683 0.0
N169 N 0.39818 0.30711 0.02438 0.0
N170 N 0.39317 0.30633 0.1513 0.0
H171 H 0.42168 0.30592 0.10265 0.0
H172 H 0.36501 0.30182 0.9964 0.0
C173 C 0.38702 0.32976 0.87791 0.0
O174 O 0.39648 0.34361 0.93579 0.0
N175 N 0.42153 0.30013 0.83108 0.0
C176 C 0.44314 0.30602 0.81559 0.0
C177 C 0.44539 0.30502 0.73781 0.0
C178 C 0.41078 0.29498 0.76337 0.0
N179 N 0.42504 0.29818 0.70536 0.0
C180 C 0.45021 0.34188 0.98814 0.0
C181 C 0.45837 0.37128 0.86816 0.0
C182 C 0.47383 0.37834 0.92885 0.0
C183 C 0.46938 0.36334 0.9896 0.0
C184 C 0.43924 0.34959 0.86918 0.0
N185 N 0.43498 0.33531 0.92974 0.0
H186 H 0.44841 0.33026 0.03246 0.0
H187 H 0.42838 0.34399 0.8196 0.0
H188 H 0.45661 0.31213 0.85733 0.0
H189 H 0.39331 0.29054 0.75609 0.0
O190 O 0.42487 0.2898 0.97732 0.0
O191 O 0.38962 0.2715 0.93355 0.0
O192 O 0.39003 0.31284 0.86882 0.0
C193 C 0.40612 0.27074 0.96839 0.0
H194 H 0.35984 0.30282 0.14543 0.0
H195 H 0.46097 0.31003 0.70717 0.0
H196 H 0.46149 0.38201 0.81878 0.0
H197 H 0.48093 0.3679 0.03739 0.0
Co198 Co 0.59434 0.89512 0.757 0.0
C199 C 0.59736 0.90245 0.59018 0.0
C200 C 0.6282 0.9262 0.6448 0.0
C201 C 0.6311 0.92914 0.56697 0.0
N202 N 0.6067 0.90994 0.6596 0.0
N203 N 0.6116 0.9141 0.53259 0.0
H204 H 0.58127 0.88734 0.58156 0.0
H205 H 0.64133 0.93459 0.68714 0.0
C206 C 0.62046 0.94386 0.80337 0.0
O207 O 0.61152 0.94854 0.74459 0.0
N208 N 0.58237 0.87999 0.85278 0.0
C209 C 0.56048 0.86508 0.86803 0.0
C210 C 0.558 0.86194 0.94581 0.0
C211 C 0.59301 0.88524 0.9207 0.0
N212 N 0.57846 0.8747 0.97852 0.0
C213 C 0.55526 0.89621 0.70021 0.0
C214 C 0.55077 0.9194 0.82204 0.0
C215 C 0.53481 0.9122 0.76293 0.0
C216 C 0.53725 0.90042 0.70154 0.0
C217 C 0.56853 0.91478 0.81847 0.0
N218 N 0.57114 0.90397 0.75675 0.0
H219 H 0.55555 0.88558 0.65564 0.0
H220 H 0.57974 0.91927 0.86694 0.0
H221 H 0.54705 0.85829 0.8261 0.0
H222 H 0.61065 0.89779 0.92833 0.0
O223 O 0.57767 0.86649 0.70545 0.0
O224 O 0.61273 0.88081 0.74882 0.0
O225 O 0.61611 0.92353 0.81464 0.0
C226 C 0.59552 0.86446 0.71322 0.0
H227 H 0.64667 0.94088 0.53837 0.0
H228 H 0.54224 0.852 0.97627 0.0
H229 H 0.54938 0.9282 0.87136 0.0
H230 H 0.52475 0.89352 0.6564 0.0
Co231 Co 0.69751 0.58896 0.91631 0.0
C232 C 0.69457 0.59236 0.74895 0.0
C233 C 0.69901 0.62218 0.8047 0.0
C234 C 0.7 0.62567 0.72703 0.0
N235 N 0.69488 0.60096 0.81859 0.0
N236 N 0.69717 0.60681 0.69226 0.0
H237 H 0.6948 0.57685 0.73946 0.0
H238 H 0.70255 0.63488 0.8477 0.0
C239 C 0.6725 0.61303 0.9621 0.0
O240 O 0.65864 0.60343 0.90434 0.0
N241 N 0.70097 0.57774 0.01307 0.0
C242 C 0.69525 0.55635 0.03124 0.0
C243 C 0.69744 0.55519 0.10911 0.0
C244 C 0.70696 0.58936 0.07896 0.0
N245 N 0.70459 0.57596 0.13896 0.0
C246 C 0.65935 0.54904 0.85549 0.0
C247 C 0.62986 0.54167 0.97436 0.0
C248 C 0.62271 0.52602 0.91419 0.0
C249 C 0.63775 0.53007 0.85398 0.0
C250 C 0.6517 0.56057 0.97342 0.0
N251 N 0.66603 0.56444 0.91336 0.0
H252 H 0.671 0.55052 0.81174 0.0
H253 H 0.65735 0.5716 0.0226 0.0
H254 H 0.68877 0.54238 0.99137 0.0
H255 H 0.71228 0.60715 0.083 0.0
O256 O 0.71125 0.57355 0.86737 0.0
O257 O 0.73002 0.60892 0.91022 0.0
O258 O 0.6891 0.6096 0.97251 0.0
C259 C 0.73047 0.59211 0.87648 0.0
H260 H 0.70344 0.64117 0.6987 0.0
H261 H 0.69279 0.53997 0.14152 0.0
H262 H 0.61908 0.53885 0.02333 0.0
H263 H 0.63312 0.51837 0.80662 0.0
Co264 Co 0.10436 0.69526 0.06308 0.0
C265 C 0.09726 0.69117 0.89596 0.0
C266 C 0.07329 0.69783 0.95135 0.0
C267 C 0.07089 0.69882 0.87363 0.0
N268 N 0.08944 0.69237 0.96562 0.0
N269 N 0.08606 0.69465 0.83902 0.0
H270 H 0.11244 0.69031 0.88661 0.0
H271 H 0.06489 0.70242 0.9941 0.0
C272 C 0.05566 0.67241 0.11033 0.0
O273 O 0.05091 0.65832 0.05292 0.0
N274 N 0.11948 0.69907 0.15938 0.0
C275 C 0.13466 0.69269 0.17739 0.0
C276 C 0.13817 0.69489 0.25519 0.0
C277 C 0.11434 0.70551 0.22541 0.0
N278 N 0.12516 0.70273 0.28537 0.0
C279 C 0.10265 0.65469 0.00662 0.0
C280 C 0.08137 0.62799 0.13243 0.0
C281 C 0.08766 0.61878 0.07217 0.0
C282 C 0.09837 0.63242 0.00861 0.0
C283 C 0.08572 0.65028 0.12769 0.0
N284 N 0.09576 0.66326 0.06441 0.0
H285 H 0.11252 0.66523 0.96015 0.0
H286 H 0.08163 0.65732 0.17628 0.0
H287 H 0.14157 0.6856 0.13757 0.0
H288 H 0.10228 0.71133 0.22959 0.0
O289 O 0.13296 0.70724 0.01158 0.0
O290 O 0.11833 0.72789 0.05335 0.0
O291 O 0.07593 0.6886 0.12027 0.0
C292 C 0.13474 0.72707 0.01809 0.0
H293 H 0.05961 0.70332 0.84516 0.0
H294 H 0.14833 0.68968 0.28732 0.0
H295 H 0.07342 0.61815 0.18325 0.0
H296 H 0.10435 0.62629 0.96219 0.0
Co297 Co 0.40731 0.10746 0.26136 0.0
C298 C 0.40489 0.10012 0.09481 0.0
C299 C 0.3724 0.08139 0.14793 0.0
C300 C 0.36941 0.07955 0.07008 0.0
N301 N 0.39472 0.09398 0.16344 0.0
N302 N 0.38988 0.09156 0.03701 0.0
H303 H 0.42263 0.11187 0.08676 0.0
H304 H 0.35909 0.07527 0.19027 0.0
C305 C 0.38057 0.05771 0.29218 0.0
O306 O 0.38836 0.05474 0.22722 0.0
N307 N 0.41943 0.12126 0.35826 0.0
C308 C 0.44064 0.13807 0.37261 0.0
C309 C 0.44294 0.14179 0.45012 0.0
C310 C 0.40904 0.11509 0.42631 0.0
N311 N 0.42305 0.12726 0.48364 0.0
C312 C 0.44923 0.11242 0.2058 0.0
C313 C 0.45121 0.08162 0.30312 0.0
C314 C 0.46919 0.09357 0.25188 0.0
C315 C 0.46801 0.10939 0.20349 0.0
C316 C 0.43312 0.08576 0.30526 0.0
N317 N 0.43157 0.1001 0.25416 0.0
H318 H 0.44963 0.12566 0.17118 0.0
H319 H 0.42089 0.07794 0.35036 0.0
H320 H 0.45365 0.14661 0.32992 0.0
H321 H 0.39186 0.1014 0.43394 0.0
O322 O 0.4226 0.13696 0.21442 0.0
O323 O 0.38766 0.12052 0.2604 0.0
O324 O 0.38635 0.07776 0.31449 0.0
C325 C 0.40425 0.13781 0.22611 0.0
H326 H 0.35335 0.0715 0.04032 0.0
H327 H 0.45815 0.15402 0.47948 0.0
H328 H 0.45111 0.06939 0.34266 0.0
H329 H 0.48185 0.12012 0.16588 0.0
Co330 Co 0.30636 0.41354 0.40907 0.0
C331 C 0.30932 0.41002 0.24173 0.0
C332 C 0.30431 0.37999 0.29751 0.0
C333 C 0.30331 0.37651 0.21981 0.0
N334 N 0.30882 0.40134 0.31144 0.0
N335 N 0.3065 0.3955 0.185 0.0
H336 H 0.30938 0.42567 0.2322 0.0
H337 H 0.30053 0.36721 0.34047 0.0
C338 C 0.3304 0.38872 0.45553 0.0
O339 O 0.34427 0.39827 0.39774 0.0
N340 N 0.30297 0.42495 0.50561 0.0
C341 C 0.309 0.44643 0.5237 0.0
C342 C 0.30686 0.44765 0.60158 0.0
C343 C 0.29682 0.41335 0.57158 0.0
N344 N 0.29941 0.42684 0.63154 0.0
C345 C 0.34582 0.45247 0.34877 0.0
C346 C 0.37394 0.45943 0.47167 0.0
C347 C 0.38215 0.47477 0.41055 0.0
C348 C 0.36777 0.47089 0.34826 0.0
C349 C 0.35184 0.441 0.46944 0.0
N350 N 0.33816 0.43735 0.40759 0.0
H351 H 0.33477 0.45118 0.30318 0.0
H352 H 0.34548 0.43013 0.51892 0.0
H353 H 0.31572 0.46041 0.48381 0.0
H354 H 0.29127 0.39551 0.57576 0.0
O355 O 0.29372 0.42976 0.35877 0.0
O356 O 0.27368 0.39456 0.40174 0.0
O357 O 0.31386 0.39226 0.46583 0.0
C358 C 0.27405 0.41165 0.36683 0.0
H359 H 0.29961 0.36093 0.19149 0.0
H360 H 0.31176 0.46294 0.63394 0.0
H361 H 0.38413 0.46208 0.52214 0.0
H362 H 0.37321 0.48226 0.29978 0.0
Co363 Co 0.89496 0.30652 0.57576 0.0
C364 C 0.90155 0.30941 0.4087 0.0
C365 C 0.92419 0.30087 0.46402 0.0
C366 C 0.92579 0.29885 0.38626 0.0
N367 N 0.90937 0.3081 0.47824 0.0
N368 N 0.91131 0.30403 0.35178 0.0
H369 H 0.88757 0.31226 0.39965 0.0
H370 H 0.93197 0.29562 0.50706 0.0
C371 C 0.94388 0.32763 0.62156 0.0
O372 O 0.94976 0.34059 0.56067 0.0
N373 N 0.88031 0.30402 0.67209 0.0
C374 C 0.8645 0.30974 0.68777 0.0
C375 C 0.86062 0.30776 0.76536 0.0
C376 C 0.88559 0.29836 0.73945 0.0
N377 N 0.87407 0.30077 0.79787 0.0
C378 C 0.89647 0.34667 0.51681 0.0
C379 C 0.92061 0.37498 0.63609 0.0
C380 C 0.91341 0.38354 0.5764 0.0
C381 C 0.90123 0.36907 0.5162 0.0
C382 C 0.91574 0.35247 0.63387 0.0
N383 N 0.90435 0.3387 0.57351 0.0
H384 H 0.8853 0.33553 0.47371 0.0
H385 H 0.92037 0.34593 0.68249 0.0
H386 H 0.857 0.31574 0.64617 0.0
H387 H 0.89843 0.29361 0.74584 0.0
O388 O 0.86627 0.29472 0.52478 0.0
O389 O 0.88019 0.27376 0.56953 0.0
O390 O 0.92317 0.31285 0.6334 0.0
C391 C 0.86396 0.27475 0.5336 0.0
H392 H 0.93549 0.29238 0.35788 0.0
H393 H 0.84917 0.31171 0.79536 0.0
H394 H 0.9296 0.38545 0.6847 0.0
H395 H 0.89441 0.37469 0.47077 0.0
H396 H 0.07133 0.58588 0.96261 0.0
H397 H 0.09739 0.59971 0.19273 0.0
H398 H 0.06883 0.54893 0.96754 0.0
H399 H 0.09558 0.56313 0.19726 0.0
H400 H 0.07549 0.48929 0.20554 0.0
H401 H 0.07207 0.52326 0.20191 0.0
H402 H 0.09324 0.53361 0.96566 0.0
H403 H 0.09597 0.49937 0.96908 0.0
C404 C 0.07652 0.58097 0.01426 0.0
C405 C 0.08457 0.59567 0.07724 0.0
C406 C 0.07519 0.55985 0.01705 0.0
C407 C 0.08214 0.55302 0.08262 0.0
C408 C 0.08973 0.56759 0.14623 0.0
C409 C 0.09082 0.58861 0.14366 0.0
C410 C 0.07925 0.4988 0.15279 0.0
C411 C 0.08598 0.49168 0.0876 0.0
C412 C 0.0774 0.51832 0.15071 0.0
C413 C 0.08247 0.53132 0.08358 0.0
C414 C 0.0888 0.52388 0.01801 0.0
C415 C 0.09043 0.50425 0.01992 0.0
H416 H 0.49805 0.09949 0.13243 0.0
H417 H 0.48711 0.08097 0.37137 0.0
H418 H 0.53293 0.09857 0.13571 0.0
H419 H 0.52023 0.07699 0.37163 0.0
H420 H 0.59391 0.09741 0.38168 0.0
H421 H 0.55817 0.09645 0.37734 0.0
H422 H 0.55191 0.07934 0.13732 0.0
H423 H 0.58913 0.08333 0.1395 0.0
C424 C 0.50285 0.09502 0.18571 0.0
C425 C 0.48957 0.09067 0.25187 0.0
C426 C 0.5228 0.09397 0.18711 0.0
C427 C 0.52981 0.08779 0.2541 0.0
C428 C 0.51597 0.08242 0.31927 0.0
C429 C 0.49643 0.0842 0.31857 0.0
C430 C 0.58523 0.09391 0.32737 0.0
C431 C 0.59494 0.09088 0.26072 0.0
C432 C 0.56425 0.09281 0.32523 0.0
C433 C 0.5518 0.08786 0.25685 0.0
C434 C 0.56102 0.08377 0.19088 0.0
C435 C 0.58237 0.08557 0.19252 0.0
H436 H 0.42177 0.47914 0.46747 0.0
H437 H 0.39428 0.51736 0.36042 0.0
H438 H 0.45919 0.51326 0.47002 0.0
H439 H 0.43156 0.55098 0.3613 0.0
H440 H 0.50444 0.60079 0.30342 0.0
H441 H 0.46915 0.56461 0.29863 0.0
H442 H 0.4783 0.55188 0.53371 0.0
H443 H 0.51389 0.588 0.53822 0.0
C444 C 0.42365 0.49476 0.44469 0.0
C445 C 0.40501 0.49539 0.41299 0.0
C446 C 0.44509 0.51426 0.44594 0.0
C447 C 0.44833 0.5347 0.41501 0.0
C448 C 0.42969 0.53535 0.38399 0.0
C449 C 0.40831 0.51601 0.38334 0.0
C450 C 0.49917 0.59009 0.35363 0.0
C451 C 0.51191 0.59726 0.42126 0.0
C452 C 0.47885 0.56948 0.35112 0.0
C453 C 0.47089 0.55552 0.41599 0.0
C454 C 0.48406 0.56225 0.48276 0.0
C455 C 0.50432 0.58298 0.48549 0.0
H456 H 0.92806 0.41484 0.4618 0.0
H457 H 0.90601 0.40448 0.69661 0.0
H458 H 0.93028 0.45169 0.46236 0.0
H459 H 0.90752 0.44094 0.69692 0.0
H460 H 0.92625 0.51439 0.69359 0.0
H461 H 0.93045 0.48088 0.6935 0.0
H462 H 0.90525 0.46628 0.46191 0.0
H463 H 0.90174 0.50011 0.46166 0.0
C464 C 0.92375 0.42052 0.5136 0.0
C465 C 0.91684 0.4068 0.57911 0.0
C466 C 0.92489 0.44157 0.51388 0.0
C467 C 0.91889 0.44929 0.57947 0.0
C468 C 0.9126 0.43577 0.64568 0.0
C469 C 0.91169 0.41483 0.64558 0.0
C470 C 0.92175 0.50404 0.6426 0.0
C471 C 0.91365 0.50984 0.57767 0.0
C472 C 0.92407 0.48479 0.64258 0.0
C473 C 0.9181 0.47074 0.57784 0.0
C474 C 0.9104 0.47686 0.51238 0.0
C475 C 0.90831 0.49623 0.5122 0.0
H476 H 0.40147 0.88722 0.6741 0.0
H477 H 0.4181 0.92859 0.87671 0.0
H478 H 0.43962 0.89278 0.67149 0.0
H479 H 0.4566 0.93437 0.87371 0.0
H480 H 0.50912 0.90831 0.88865 0.0
H481 H 0.47392 0.90937 0.89253 0.0
H482 H 0.47953 0.92357 0.65087 0.0
H483 H 0.51495 0.92293 0.64696 0.0
C484 C 0.41334 0.89755 0.71802 0.0
C485 C 0.4068 0.90735 0.7759 0.0
C486 C 0.43525 0.90093 0.71606 0.0
C487 C 0.45111 0.91407 0.77226 0.0
C488 C 0.44468 0.92409 0.82986 0.0
C489 C 0.42274 0.9209 0.83133 0.0
C490 C 0.50317 0.91221 0.83666 0.0
C491 C 0.51477 0.91533 0.7673 0.0
C492 C 0.48297 0.91278 0.83894 0.0
C493 C 0.47389 0.91634 0.77188 0.0
C494 C 0.48596 0.92042 0.70323 0.0
C495 C 0.5062 0.91999 0.701 0.0
H496 H 0.58152 0.52029 0.95887 0.0
H497 H 0.61348 0.48354 0.8747 0.0
H498 H 0.5451 0.48494 0.96291 0.0
H499 H 0.57724 0.44868 0.87582 0.0
H500 H 0.51598 0.38704 0.97047 0.0
H501 H 0.55113 0.42302 0.96935 0.0
H502 H 0.51598 0.45582 0.87816 0.0
H503 H 0.48032 0.41969 0.88218 0.0
C504 C 0.58077 0.50472 0.94114 0.0
C505 C 0.6004 0.50477 0.9162 0.0
C506 C 0.55989 0.48452 0.94267 0.0
C507 C 0.55827 0.46398 0.91981 0.0
C508 C 0.57791 0.46413 0.89469 0.0
C509 C 0.59867 0.48422 0.89312 0.0
C510 C 0.5156 0.40194 0.95115 0.0
C511 C 0.49527 0.40049 0.9269 0.0
C512 C 0.53586 0.42255 0.94959 0.0
C513 C 0.5364 0.44229 0.92332 0.0
C514 C 0.51608 0.44095 0.8993 0.0
C515 C 0.49572 0.42023 0.90083 0.0
H516 H 0.01467 0.35176 0.05874 0.0
H517 H 0.06567 0.39393 0.89539 0.0
H518 H 0.98719 0.33436 0.95588 0.0
H519 H 0.03819 0.37829 0.79315 0.0
H520 H 0.98858 0.34034 0.60825 0.0
H521 H 0.01625 0.35075 0.7106 0.0
H522 H 0.96426 0.33919 0.87571 0.0
H523 H 0.93665 0.32701 0.77397 0.0
C524 C 0.01991 0.35732 0.0006 0.0
C525 C 0.04226 0.374 0.98475 0.0
C526 C 0.00412 0.34757 0.94137 0.0
C527 C 0.01014 0.3549 0.86514 0.0
C528 C 0.03273 0.37159 0.85002 0.0
C529 C 0.04861 0.38076 0.90889 0.0
C530 C 0.98316 0.33974 0.66676 0.0
C531 C 0.96051 0.33275 0.68325 0.0
C532 C 0.99905 0.34595 0.72573 0.0
C533 C 0.99281 0.34614 0.8025 0.0
C534 C 0.96992 0.33887 0.81832 0.0
C535 C 0.95397 0.33197 0.75964 0.0
H536 H 0.63233 0.93806 0.9477 0.0
H537 H 0.63532 0.98916 0.79444 0.0
H538 H 0.64782 0.96598 0.05008 0.0
H539 H 0.65076 0.01702 0.89688 0.0
H540 H 0.69425 0.06604 0.08086 0.0
H541 H 0.68427 0.03795 0.98047 0.0
H542 H 0.63344 0.98693 0.12689 0.0
H543 H 0.64338 0.01506 0.22769 0.0
C544 C 0.63655 0.95528 0.93544 0.0
C545 C 0.63246 0.96132 0.86283 0.0
C546 C 0.64529 0.97125 0.99435 0.0
C547 C 0.6504 0.99367 0.98172 0.0
C548 C 0.64718 0.99992 0.90831 0.0
C549 C 0.63823 0.98392 0.84964 0.0
C550 C 0.68105 0.04883 0.09209 0.0
C551 C 0.66944 0.04291 0.16222 0.0
C552 C 0.6753 0.03274 0.03432 0.0
C553 C 0.65795 0.01027 0.04547 0.0
C554 C 0.647 0.00408 0.1167 0.0
C555 C 0.65264 0.02024 0.17438 0.0
H556 H 0.62786 0.69019 0.23926 0.0
H557 H 0.63421 0.64414 0.39317 0.0
H558 H 0.64304 0.67794 0.13568 0.0
H559 H 0.64966 0.63207 0.28922 0.0
H560 H 0.69463 0.63064 0.09687 0.0
H561 H 0.68369 0.64726 0.19988 0.0
H562 H 0.6281 0.64082 0.06325 0.0
H563 H 0.63871 0.62369 0.96061 0.0
C564 C 0.63276 0.6777 0.25145 0.0
C565 C 0.62969 0.66808 0.32466 0.0
C566 C 0.64134 0.67059 0.19181 0.0
C567 C 0.64741 0.65397 0.20424 0.0
C568 C 0.64524 0.64501 0.27807 0.0
C569 C 0.63633 0.65188 0.33753 0.0
C570 C 0.68009 0.63276 0.0886 0.0
C571 C 0.66737 0.62551 0.02078 0.0
C572 C 0.67383 0.64229 0.14772 0.0
C573 C 0.65497 0.64521 0.13979 0.0
C574 C 0.6428 0.63887 0.07081 0.0
C575 C 0.64885 0.62901 0.01209 0.0
H576 H 0.98699 0.62703 0.53786 0.0
H577 H 0.93647 0.63061 0.39936 0.0
H578 H 0.01435 0.644 0.4339 0.0
H579 H 0.96358 0.64677 0.29479 0.0
H580 H 0.01058 0.64047 0.10718 0.0
H581 H 0.98333 0.62952 0.21164 0.0
H582 H 0.03449 0.68171 0.35371 0.0
H583 H 0.06151 0.69324 0.24851 0.0
C584 C 0.98174 0.63157 0.48559 0.0
C585 C 0.9594 0.62713 0.47655 0.0
C586 C 0.99742 0.64132 0.42618 0.0
C587 C 0.99098 0.64649 0.35619 0.0
C588 C 0.9689 0.64272 0.34791 0.0
C589 C 0.95338 0.63342 0.4078 0.0
C590 C 0.01595 0.64986 0.16022 0.0
C591 C 0.03836 0.66753 0.16988 0.0
C592 C 1.00033 0.6436 0.21994 0.0
C593 C 0.00691 0.65465 0.29086 0.0
C594 C 0.02907 0.67276 0.29984 0.0
C595 C 0.04453 0.67933 0.23962 0.0
H596 H 0.36273 0.01302 0.25885 0.0
H597 H 0.37184 0.0583 0.44535 0.0
H598 H 0.3489 0.98149 0.3479 0.0
H599 H 0.3581 0.02653 0.53491 0.0
H600 H 0.31675 0.95518 0.65931 0.0
H601 H 0.32444 0.98698 0.57404 0.0
H602 H 0.37146 0.97481 0.44646 0.0
H603 H 0.36405 0.94365 0.52997 0.0
C604 C 0.36151 0.01622 0.31873 0.0
C605 C 0.36873 0.03826 0.34505 0.0
C606 C 0.35362 0.99815 0.36979 0.0
C607 C 0.35279 0.00163 0.44851 0.0
C608 C 0.35854 0.02335 0.47453 0.0
C609 C 0.36646 0.04154 0.4232 0.0
C610 C 0.32879 0.95944 0.61323 0.0
C611 C 0.33965 0.94675 0.6013 0.0
C612 C 0.33318 0.9776 0.56456 0.0
C613 C 0.34825 0.98309 0.50282 0.0
C614 C 0.35938 0.97068 0.49239 0.0
C615 C 0.3552 0.95286 0.5409 0.0
H616 H 0.37156 0.35986 0.88564 0.0
H617 H 0.37634 0.31268 0.73293 0.0
H618 H 0.3555 0.37154 0.78227 0.0
H619 H 0.36055 0.32451 0.62996 0.0
H620 H 0.36389 0.3777 0.45265 0.0
H621 H 0.37514 0.36119 0.55538 0.0
H622 H 0.32065 0.35589 0.6955 0.0
H623 H 0.30903 0.3719 0.59213 0.0
C624 C 0.369 0.35182 0.83037 0.0
C625 C 0.37531 0.33536 0.81767 0.0
C626 C 0.35972 0.35845 0.77128 0.0
C627 C 0.35688 0.349 0.69796 0.0
C628 C 0.36273 0.33221 0.68569 0.0
C629 C 0.37166 0.32535 0.74498 0.0
C630 C 0.3541 0.37275 0.50491 0.0
C631 C 0.3357 0.3764 0.51443 0.0
C632 C 0.36053 0.36324 0.56372 0.0
C633 C 0.34888 0.35742 0.63369 0.0
C634 C 0.33012 0.36048 0.64254 0.0
C635 C 0.32346 0.36964 0.58326 0.0
H636 H 0.17307 0.44465 0.21852 0.0
H637 H 0.14744 0.37689 0.13132 0.0
H638 H 0.20484 0.44347 0.27622 0.0
H639 H 0.17974 0.37586 0.18831 0.0
H640 H 0.23015 0.37617 0.36917 0.0
H641 H 0.19672 0.3753 0.31341 0.0
H642 H 0.23874 0.44394 0.23355 0.0
H643 H 0.27171 0.44495 0.28987 0.0
C644 C 0.1743 0.42953 0.21118 0.0
C645 C 0.15782 0.41093 0.16977 0.0
C646 C 0.19258 0.42888 0.24414 0.0
C647 C 0.19494 0.40963 0.23646 0.0
C648 C 0.17832 0.39088 0.19574 0.0
C649 C 0.15994 0.39153 0.1626 0.0
C650 C 0.23214 0.39106 0.33995 0.0
C651 C 0.25353 0.41068 0.33452 0.0
C652 C 0.21306 0.39052 0.30757 0.0
C653 C 0.21504 0.40961 0.26945 0.0
C654 C 0.23651 0.42908 0.26367 0.0
C655 C 0.25546 0.42962 0.2958 0.0
H656 H 0.7709 0.14849 0.29805 0.0
H657 H 0.72996 0.17605 0.38062 0.0
H658 H 0.80454 0.18058 0.35462 0.0
H659 H 0.76319 0.20759 0.4377 0.0
H660 H 0.85421 0.23045 0.53815 0.0
H661 H 0.82157 0.19748 0.4809 0.0
H662 H 0.79738 0.24092 0.39461 0.0
H663 H 0.82947 0.2735 0.45238 0.0
C664 C 0.76909 0.16137 0.32811 0.0
C665 C 0.74783 0.15985 0.33426 0.0
C666 C 0.7883 0.17964 0.36098 0.0
C667 C 0.78656 0.1967 0.40029 0.0
C668 C 0.76521 0.19497 0.40672 0.0
C669 C 0.74612 0.17681 0.37412 0.0
C670 C 0.84183 0.23287 0.50719 0.0
C671 C 0.84429 0.25453 0.50047 0.0
C672 C 0.82326 0.21404 0.47393 0.0
C673 C 0.80681 0.21656 0.4336 0.0
C674 C 0.8095 0.2383 0.4264 0.0
C675 C 0.82797 0.25702 0.45943 0.0
H676 H 0.56201 0.82943 0.63467 0.0
H677 H 0.63053 0.85537 0.71458 0.0
H678 H 0.56263 0.79748 0.57627 0.0
H679 H 0.631 0.82284 0.65676 0.0
H680 H 0.62907 0.77256 0.47187 0.0
H681 H 0.6304 0.80586 0.53047 0.0
H682 H 0.56263 0.76359 0.6171 0.0
H683 H 0.56115 0.73069 0.55787 0.0
C684 C 0.57719 0.82823 0.64028 0.0
C685 C 0.59618 0.84487 0.67976 0.0
C686 C 0.57751 0.80982 0.60695 0.0
C687 C 0.5968 0.8075 0.61227 0.0
C688 C 0.61593 0.82424 0.65121 0.0
C689 C 0.6156 0.84275 0.68478 0.0
C690 C 0.61446 0.77047 0.5032 0.0
C691 C 0.59492 0.74905 0.50956 0.0
C692 C 0.61528 0.78949 0.53724 0.0
C693 C 0.59656 0.7874 0.57808 0.0
C694 C 0.57719 0.76589 0.58493 0.0
C695 C 0.57637 0.74698 0.55108 0.0
H696 H 0.76627 0.62868 0.80968 0.0
H697 H 0.74148 0.55921 0.87469 0.0
H698 H 0.79848 0.62951 0.74537 0.0
H699 H 0.77426 0.56028 0.81618 0.0
H700 H 0.81973 0.55767 0.63933 0.0
H701 H 0.78841 0.55905 0.69968 0.0
H702 H 0.83267 0.63006 0.75093 0.0
H703 H 0.86357 0.62878 0.68497 0.0
C704 C 0.76808 0.61378 0.81169 0.0
C705 C 0.75145 0.59385 0.8466 0.0
C706 C 0.78656 0.61421 0.77502 0.0
C707 C 0.78898 0.59483 0.77413 0.0
C708 C 0.77273 0.5753 0.81284 0.0
C709 C 0.75403 0.57472 0.84742 0.0
C710 C 0.82263 0.5736 0.66288 0.0
C711 C 0.84398 0.59311 0.65754 0.0
C712 C 0.80474 0.5744 0.69849 0.0
C713 C 0.80793 0.59459 0.73197 0.0
C714 C 0.82936 0.61424 0.72535 0.0
C715 C 0.84713 0.61355 0.68775 0.0
H716 H 0.26907 0.82444 0.87729 0.0
H717 H 0.23088 0.85407 0.78602 0.0
H718 H 0.23482 0.79344 0.93016 0.0
H719 H 0.19599 0.82231 0.83888 0.0
H720 H 0.14428 0.77137 0.02197 0.0
H721 H 0.17713 0.80446 0.96556 0.0
H722 H 0.20106 0.76097 0.87809 0.0
H723 H 0.16885 0.72833 0.93486 0.0
C724 C 0.25329 0.82429 0.86802 0.0
C725 C 0.25269 0.84164 0.82666 0.0
C726 C 0.23359 0.8064 0.89825 0.0
C727 C 0.21263 0.80524 0.88793 0.0
C728 C 0.21194 0.82279 0.84785 0.0
C729 C 0.23184 0.84086 0.81723 0.0
C730 C 0.15661 0.76897 0.9907 0.0
C731 C 0.15414 0.74729 0.98379 0.0
C732 C 0.17529 0.78786 0.95795 0.0
C733 C 0.19179 0.78535 0.91802 0.0
C734 C 0.1889 0.76355 0.90971 0.0
C735 C 0.17037 0.74481 0.94224 0.0
H736 H 0.3673 0.13707 0.16244 0.0
H737 H 0.43721 0.18167 0.22217 0.0
H738 H 0.36641 0.16823 0.09625 0.0
H739 H 0.43612 0.21313 0.16147 0.0
H740 H 0.43881 0.25957 0.97921 0.0
H741 H 0.43681 0.22688 0.04182 0.0
H742 H 0.36662 0.2026 0.09874 0.0
H743 H 0.36848 0.23486 0.03072 0.0
C744 C 0.38227 0.15373 0.16306 0.0
C745 C 0.40235 0.15705 0.19692 0.0
C746 C 0.38181 0.17163 0.12519 0.0
C747 C 0.40133 0.19327 0.12186 0.0
C748 C 0.42097 0.19664 0.15997 0.0
C749 C 0.42157 0.17868 0.19585 0.0
C750 C 0.42289 0.24706 0.00434 0.0
C751 C 0.40381 0.24968 0.00026 0.0
C752 C 0.42176 0.22841 0.04129 0.0
C753 C 0.40169 0.21219 0.07741 0.0
C754 C 0.38235 0.21456 0.07141 0.0
C755 C 0.38337 0.23304 0.03252 0.0
H756 H 0.08524 0.36381 0.42428 0.0
H757 H 0.10483 0.43409 0.39188 0.0
H758 H 0.09551 0.37125 0.55883 0.0
H759 H 0.11522 0.44153 0.52608 0.0
H760 H 0.1532 0.45152 0.7496 0.0
H761 H 0.14402 0.443 0.61485 0.0
H762 H 0.0828 0.38152 0.67564 0.0
H763 H 0.09179 0.38987 0.80944 0.0
C764 C 0.0915 0.38078 0.44591 0.0
C765 C 0.09428 0.39838 0.39719 0.0
C766 C 0.09747 0.38506 0.52296 0.0
C767 C 0.10636 0.40702 0.55288 0.0
C768 C 0.10887 0.42454 0.50439 0.0
C769 C 0.10286 0.42025 0.42753 0.0
C770 C 0.13777 0.43621 0.73442 0.0
C771 C 0.12322 0.42156 0.7911 0.0
C772 C 0.1325 0.43133 0.65712 0.0
C773 C 0.11261 0.41165 0.63467 0.0
C774 C 0.09838 0.3967 0.69104 0.0
C775 C 0.1036 0.40157 0.76819 0.0
H776 H 0.67786 0.13904 0.9246 0.0
H777 H 0.72276 0.11277 0.96962 0.0
H778 H 0.6772 0.13002 0.79005 0.0
H779 H 0.72186 0.10353 0.83488 0.0
H780 H 0.69217 0.06686 0.60556 0.0
H781 H 0.69427 0.07673 0.7407 0.0
H782 H 0.70255 0.14178 0.67883 0.0
H783 H 0.70064 0.13208 0.5447 0.0
C784 C 0.68786 0.13166 0.90583 0.0
C785 C 0.70034 0.12662 0.9582 0.0
C786 C 0.68741 0.12641 0.82863 0.0
C787 C 0.69939 0.11597 0.80201 0.0
C788 C 0.71215 0.11123 0.85398 0.0
C789 C 0.71267 0.11656 0.93118 0.0
C790 C 0.69454 0.08328 0.62099 0.0
C791 C 0.69594 0.09853 0.56437 0.0
C792 C 0.69579 0.08896 0.69822 0.0
C793 C 0.69847 0.10999 0.72026 0.0
C794 C 0.70006 0.12528 0.66364 0.0
C795 C 0.69885 0.11965 0.58664 0.0
H796 H 0.63149 0.69198 0.77746 0.0
H797 H 0.58193 0.71105 0.7158 0.0
H798 H 0.62452 0.69534 0.91257 0.0
H799 H 0.57475 0.71393 0.84986 0.0
H800 H 0.54821 0.68618 0.09134 0.0
H801 H 0.55726 0.68647 0.9573 0.0
H802 H 0.62857 0.72456 0.00988 0.0
H803 H 0.61968 0.72485 0.14422 0.0
C804 C 0.61926 0.69702 0.79261 0.0
C805 C 0.60702 0.70084 0.73571 0.0
C806 C 0.61528 0.69896 0.86985 0.0
C807 C 0.59893 0.70469 0.89161 0.0
C808 C 0.58712 0.70905 0.83478 0.0
C809 C 0.59118 0.70725 0.75782 0.0
C810 C 0.56583 0.69501 0.07478 0.0
C811 C 0.58316 0.70541 0.12949 0.0
C812 C 0.57101 0.69509 0.99766 0.0
C813 C 0.59362 0.70543 0.97323 0.0
C814 C 0.61098 0.71616 0.0273 0.0
C815 C 0.60582 0.71628 0.10444 0.0
H816 H 0.91916 0.63855 0.91444 0.0
H817 H 0.89102 0.56663 0.88044 0.0
H818 H 0.90864 0.63183 0.04896 0.0
H819 H 0.8803 0.55994 0.01446 0.0
H820 H 0.84472 0.55473 0.24031 0.0
H821 H 0.85368 0.5628 0.1049 0.0
H822 H 0.91973 0.61837 0.16364 0.0
H823 H 0.911 0.61023 0.29784 0.0
C824 C 0.91091 0.62135 0.93564 0.0
C825 C 0.90588 0.60312 0.88657 0.0
C826 C 0.9048 0.6175 0.01261 0.0
C827 C 0.89349 0.59535 0.04196 0.0
C828 C 0.88858 0.57716 0.99308 0.0
C829 C 0.89477 0.58101 0.91634 0.0
C830 C 0.86112 0.56866 0.2243 0.0
C831 C 0.87709 0.58182 0.28027 0.0
C832 C 0.86625 0.57328 0.14684 0.0
C833 C 0.88742 0.5912 0.12382 0.0
C834 C 0.90316 0.60466 0.17963 0.0
C835 C 0.89808 0.6 0.25685 0.0
H836 H 0.28168 0.89161 0.46479 0.0
H837 H 0.3111 0.84962 0.41698 0.0
H838 H 0.28436 0.9015 0.33005 0.0
H839 H 0.31372 0.85944 0.28255 0.0
H840 H 0.29551 0.86509 0.03704 0.0
H841 H 0.29078 0.85428 0.17074 0.0
H842 H 0.31361 0.92356 0.23542 0.0
H843 H 0.31831 0.93441 0.10075 0.0
C844 C 0.2887 0.88446 0.42569 0.0
C845 C 0.29622 0.86984 0.45201 0.0
C846 C 0.29029 0.89019 0.34842 0.0
C847 C 0.29938 0.88138 0.29558 0.0
C848 C 0.30637 0.86632 0.32156 0.0
C849 C 0.30479 0.86061 0.39876 0.0
C850 C 0.29985 0.87812 0.07961 0.0
C851 C 0.30757 0.90071 0.05816 0.0
C852 C 0.29704 0.87188 0.1564 0.0
C853 C 0.30188 0.88805 0.21383 0.0
C854 C 0.30945 0.91062 0.19252 0.0
C855 C 0.31222 0.91688 0.11547 0.0
H856 H 0.45219 0.32948 0.60323 0.0
H857 H 0.38719 0.26905 0.62901 0.0
H858 H 0.44371 0.33237 0.47039 0.0
H859 H 0.37888 0.27104 0.49432 0.0
H860 H 0.36248 0.29223 0.26787 0.0
H861 H 0.36995 0.29079 0.40297 0.0
H862 H 0.44062 0.31609 0.35217 0.0
H863 H 0.43361 0.31937 0.21947 0.0
C864 C 0.43626 0.31652 0.57966 0.0
C865 C 0.42045 0.29888 0.62575 0.0
C866 C 0.43135 0.31812 0.50346 0.0
C867 C 0.41065 0.30182 0.471 0.0
C868 C 0.39484 0.28409 0.51742 0.0
C869 C 0.39963 0.28277 0.59425 0.0
C870 C 0.37966 0.2978 0.28555 0.0
C871 C 0.39734 0.3057 0.2319 0.0
C872 C 0.38391 0.29668 0.36316 0.0
C873 C 0.4059 0.30323 0.38884 0.0
C874 C 0.42352 0.3112 0.33514 0.0
C875 C 0.41937 0.31268 0.25816 0.0
H876 H 0.55259 0.88134 0.0792 0.0
H877 H 0.61516 0.8807 0.05615 0.0
H878 H 0.56134 0.89262 0.21209 0.0
H879 H 0.62363 0.89079 0.19085 0.0
H880 H 0.64232 0.92849 0.41591 0.0
H881 H 0.63447 0.9198 0.28116 0.0
H882 H 0.56304 0.87926 0.33137 0.0
H883 H 0.57057 0.88947 0.46399 0.0
C884 C 0.56801 0.88314 0.10343 0.0
C885 C 0.58309 0.8799 0.05811 0.0
C886 C 0.57307 0.88959 0.17965 0.0
C887 C 0.59315 0.89249 0.21287 0.0
C888 C 0.60819 0.88909 0.1672 0.0
C889 C 0.6033 0.88309 0.09036 0.0
C890 C 0.6249 0.91801 0.39833 0.0
C891 C 0.60716 0.90953 0.45193 0.0
C892 C 0.62041 0.91274 0.32079 0.0
C893 C 0.59811 0.89866 0.29497 0.0
C894 C 0.58042 0.89039 0.34849 0.0
C895 C 0.58484 0.89597 0.42547 0.0
H896 H 0.71215 0.55534 0.25854 0.0
H897 H 0.69952 0.60967 0.20068 0.0
H898 H 0.71154 0.56364 0.39385 0.0
H899 H 0.6992 0.61805 0.33491 0.0
H900 H 0.72028 0.63876 0.58408 0.0
H901 H 0.72401 0.63216 0.44926 0.0
H902 H 0.68186 0.56011 0.48443 0.0
H903 H 0.67791 0.56667 0.61855 0.0
C904 C 0.70933 0.56907 0.2745 0.0
C905 C 0.70591 0.58182 0.21854 0.0
C906 C 0.70899 0.57382 0.35188 0.0
C907 C 0.70529 0.59147 0.37479 0.0
C908 C 0.70242 0.60457 0.31894 0.0
C909 C 0.70268 0.59976 0.24177 0.0
C910 C 0.71164 0.62155 0.5629 0.0
C911 C 0.69888 0.60323 0.61215 0.0
C912 C 0.71385 0.61777 0.48582 0.0
C913 C 0.7034 0.59561 0.45663 0.0
C914 C 0.69051 0.57734 0.50569 0.0
C915 C 0.68822 0.58111 0.58249 0.0
H916 H 0.08758 0.70045 0.3477 0.0
H917 H 0.15246 0.70767 0.40556 0.0
H918 H 0.07879 0.69976 0.48174 0.0
H919 H 0.14345 0.70675 0.54084 0.0
H920 H 0.10526 0.67379 0.76453 0.0
H921 H 0.11615 0.67786 0.63064 0.0
H922 H 0.09026 0.72354 0.59744 0.0
H923 H 0.07953 0.71965 0.73175 0.0
C924 C 0.1002 0.70231 0.38866 0.0
C925 C 0.12077 0.70409 0.36523 0.0
C926 C 0.09509 0.70186 0.46589 0.0
C927 C 0.11038 0.70312 0.52183 0.0
C928 C 0.13118 0.70542 0.49886 0.0
C929 C 0.13634 0.70595 0.42138 0.0
C930 C 0.10207 0.68487 0.72891 0.0
C931 C 0.09157 0.69643 0.75899 0.0
C932 C 0.10837 0.68724 0.65224 0.0
C933 C 0.10421 0.70114 0.60371 0.0
C934 C 0.09352 0.71256 0.63342 0.0
C935 C 0.08728 0.71024 0.71029 0.0
H936 H 0.38214 0.11019 0.55191 0.0
H937 H 0.45313 0.13588 0.59757 0.0
H938 H 0.37372 0.10166 0.68706 0.0
H939 H 0.44472 0.12751 0.73252 0.0
H940 H 0.4234 0.13057 0.97682 0.0
H941 H 0.43124 0.13998 0.84241 0.0
H942 H 0.37432 0.07491 0.78178 0.0
H943 H 0.36649 0.06539 0.91707 0.0
C944 C 0.39593 0.11398 0.59069 0.0
C945 C 0.41829 0.12366 0.56396 0.0
C946 C 0.3911 0.10907 0.668 0.0
C947 C 0.40855 0.11384 0.7201 0.0
C948 C 0.43096 0.1239 0.69369 0.0
C949 C 0.43578 0.12877 0.6164 0.0
C950 C 0.41273 0.11811 0.93499 0.0
C951 C 0.39447 0.09708 0.95747 0.0
C952 C 0.41719 0.12356 0.85797 0.0
C953 C 0.40345 0.10815 0.80176 0.0
C954 C 0.38504 0.08721 0.82405 0.0
C955 C 0.38058 0.08174 0.90128 0.0
H956 H 0.30418 0.39295 0.69324 0.0
H957 H 0.29223 0.44769 0.75126 0.0
H958 H 0.30447 0.3845 0.8274 0.0
H959 H 0.29279 0.43931 0.88659 0.0
H960 H 0.32606 0.43572 0.11152 0.0
H961 H 0.32222 0.44245 0.97748 0.0
H962 H 0.27972 0.37049 0.94161 0.0
H963 H 0.28331 0.36371 0.07637 0.0
C964 C 0.30116 0.40293 0.73436 0.0
C965 C 0.29811 0.421 0.71116 0.0
C966 C 0.3014 0.39809 0.81152 0.0
C967 C 0.2987 0.41126 0.86744 0.0
C968 C 0.29521 0.42905 0.84458 0.0
C969 C 0.29489 0.43386 0.76718 0.0
C970 C 0.31569 0.42133 0.07535 0.0
C971 C 0.30488 0.39918 0.10485 0.0
C972 C 0.31346 0.42521 -0.00143 0.0
C973 C 0.30051 0.40702 0.94931 0.0
C974 C 0.28992 0.38483 0.97831 0.0
C975 C 0.29206 0.38094 0.05539 0.0
H976 H 0.93799 0.30847 0.23083 0.0
H977 H 0.8705 0.29349 0.29161 0.0
H978 H 0.928 0.30596 0.09555 0.0
H979 H 0.86078 0.29143 0.15744 0.0
H980 H 0.86377 0.31992 0.91604 0.0
H981 H 0.87227 0.31914 0.05024 0.0
H982 H 0.90191 0.27768 -0.0021 0.0
H983 H 0.89297 0.27792 0.86352 0.0
C984 C 0.92103 0.30451 0.21543 0.0
C985 C 0.90522 0.30159 0.27211 0.0
C986 C 0.91531 0.30306 0.13811 0.0
C987 C 0.89367 0.29873 0.11609 0.0
C988 C 0.87772 0.29525 0.17273 0.0
C989 C 0.88338 0.29657 0.24974 0.0
C990 C 0.87172 0.31028 0.9328 0.0
C991 C 0.87772 0.29906 0.87825 0.0
C992 C 0.87668 0.30991 0.00993 0.0
C993 C 0.88786 0.29844 0.03443 0.0
C994 C 0.89358 0.28694 0.98043 0.0
C995 C 0.88845 0.28713 0.90331 0.0
loop_
_geom_bond_atom_site_label_1
_geom_bond_atom_site_label_2
_geom_bond_distance
_geom_bond_site_symmetry_2
_ccdc_geom_bond_type
Co0 N4 2.148 . S
Co0 N10 2.128 1_554 S
Co0 N20 2.194 . S
Co0 O25 2.351 . S
Co0 O26 2.155 . S
Co0 O27 2.096 . S
C1 N4 1.301 . S
C1 N5 1.328 . S
C1 H6 0.930 . S
C2 C3 1.333 . S
C2 N4 1.317 . S
C2 H7 0.930 . S
C3 C2 1.333 . S
C3 N5 1.350 . S
C3 H29 0.931 . S
N4 Co0 2.148 . S
N4 C1 1.301 . S
N4 C2 1.317 . S
N5 C1 1.328 . S
N5 C3 1.350 . S
H6 C1 0.930 . S
H7 C2 0.930 . S
C8 O9 1.224 1_556 S
C8 O27 1.246 1_556 S
O9 C8 1.224 1_554 S
N10 Co0 2.128 1_556 S
N10 C11 1.355 . S
N10 C13 1.311 . S
C11 N10 1.355 . S
C11 C12 1.363 . S
C11 H23 0.929 . S
C12 C11 1.363 . S
C12 N14 1.375 . S
C12 H30 0.931 . S
C13 N10 1.311 . S
C13 N14 1.347 . S
C13 H24 0.929 . S
N14 C12 1.375 . S
N14 C13 1.347 . S
C15 C18 1.365 . S
C15 N20 1.328 . S
C15 H21 0.929 . S
C16 C17 1.362 . S
C16 C19 1.378 . S
C16 H31 0.929 . S
C17 C16 1.362 . S
C17 C18 1.366 . S
C18 C15 1.365 . S
C18 C17 1.366 . S
C18 H32 0.930 . S
C19 C16 1.378 . S
C19 N20 1.315 . S
C19 H22 0.930 . S
N20 Co0 2.194 . S
N20 C15 1.328 . S
N20 C19 1.315 . S
H21 C15 0.929 . S
H22 C19 0.930 . S
H23 C11 0.929 . S
H24 C13 0.929 . S
O25 Co0 2.351 . S
O25 C28 1.244 . S
O26 Co0 2.155 . S
O26 C28 1.240 . S
O27 Co0 2.096 . S
O27 C8 1.246 1_554 S
C28 O25 1.244 . S
C28 O26 1.240 . S
H29 C3 0.931 . S
H30 C12 0.931 . S
H31 C16 0.929 . S
H32 C18 0.930 . S
Co33 N37 2.148 . S
Co33 N43 2.128 . S
Co33 N53 2.194 . S
Co33 O58 2.351 . S
Co33 O59 2.155 . S
Co33 O60 2.096 . S
C34 N37 1.301 . S
C34 N38 1.328 . S
C34 H39 0.930 . S
C35 C36 1.333 . S
C35 N37 1.317 . S
C35 H40 0.930 . S
C36 C35 1.333 . S
C36 N38 1.350 . S
C36 H62 0.931 . S
N37 Co33 2.148 . S
N37 C34 1.301 . S
N37 C35 1.317 . S
N38 C34 1.328 . S
N38 C36 1.350 . S
H39 C34 0.930 . S
H40 C35 0.930 . S
C41 O42 1.224 . S
C41 O60 1.247 . S
O42 C41 1.224 . S
N43 Co33 2.128 . S
N43 C44 1.355 . S
N43 C46 1.311 . S
C44 N43 1.355 . S
C44 C45 1.363 . S
C44 H56 0.929 . S
C45 C44 1.363 . S
C45 N47 1.375 1_554 S
C45 H63 0.931 1_554 S
C46 N43 1.311 . S
C46 N47 1.347 1_554 S
C46 H57 0.929 . S
N47 C45 1.375 1_556 S
N47 C46 1.347 1_556 S
C48 C51 1.365 . S
C48 N53 1.328 . S
C48 H54 0.929 . S
C49 C50 1.362 . S
C49 C52 1.378 . S
C49 H64 0.929 . S
C50 C49 1.362 . S
C50 C51 1.366 . S
C51 C48 1.365 . S
C51 C50 1.366 . S
C51 H65 0.930 . S
C52 C49 1.378 . S
C52 N53 1.315 . S
C52 H55 0.930 . S
N53 Co33 2.194 . S
N53 C48 1.328 . S
N53 C52 1.315 . S
H54 C48 0.929 . S
H55 C52 0.930 . S
H56 C44 0.929 . S
H57 C46 0.929 . S
O58 Co33 2.351 . S
O58 C61 1.244 . S
O59 Co33 2.155 . S
O59 C61 1.240 . S
O60 Co33 2.096 . S
O60 C41 1.247 . S
C61 O58 1.244 . S
C61 O59 1.240 . S
H62 C36 0.931 . S
H63 C45 0.931 1_556 S
H64 C49 0.929 . S
H65 C51 0.930 . S
Co66 N70 2.148 . S
Co66 N76 2.128 . S
Co66 N86 2.194 . S
Co66 O91 2.351 . S
Co66 O92 2.155 . S
Co66 O93 2.096 . S
C67 N70 1.301 . S
C67 N71 1.328 . S
C67 H72 0.930 . S
C68 C69 1.333 . S
C68 N70 1.317 . S
C68 H73 0.930 . S
C69 C68 1.333 . S
C69 N71 1.350 . S
C69 H95 0.931 . S
N70 Co66 2.148 . S
N70 C67 1.301 . S
N70 C68 1.317 . S
N71 C67 1.328 . S
N71 C69 1.350 . S
H72 C67 0.930 . S
H73 C68 0.930 . S
C74 O75 1.224 . S
C74 O93 1.247 . S
O75 C74 1.224 . S
N76 Co66 2.128 . S
N76 C77 1.355 . S
N76 C79 1.311 . S
C77 N76 1.355 . S
C77 C78 1.363 . S
C77 H89 0.929 . S
C78 C77 1.363 . S
C78 N80 1.375 . S
C78 H96 0.931 . S
C79 N76 1.311 . S
C79 N80 1.347 . S
C79 H90 0.929 . S
N80 C78 1.375 . S
N80 C79 1.347 . S
C81 C84 1.365 . S
C81 N86 1.328 . S
C81 H87 0.929 . S
C82 C83 1.362 . S
C82 C85 1.378 . S
C82 H97 0.929 . S
C83 C82 1.362 . S
C83 C84 1.366 . S
C84 C81 1.365 . S
C84 C83 1.366 . S
C84 H98 0.930 . S
C85 C82 1.378 . S
C85 N86 1.315 . S
C85 H88 0.930 . S
N86 Co66 2.194 . S
N86 C81 1.328 . S
N86 C85 1.315 . S
H87 C81 0.929 . S
H88 C85 0.930 . S
H89 C77 0.929 . S
H90 C79 0.929 . S
O91 Co66 2.351 . S
O91 C94 1.244 . S
O92 Co66 2.155 . S
O92 C94 1.240 . S
O93 Co66 2.096 . S
O93 C74 1.247 . S
C94 O91 1.244 . S
C94 O92 1.240 . S
H95 C69 0.931 . S
H96 C78 0.931 . S
H97 C82 0.929 . S
H98 C84 0.930 . S
Co99 N103 2.148 . S
Co99 N109 2.128 . S
Co99 N119 2.194 . S
Co99 O124 2.351 . S
Co99 O125 2.155 . S
Co99 O126 2.096 . S
C100 N103 1.301 . S
C100 N104 1.328 . S
C100 H105 0.930 . S
C101 C102 1.333 . S
C101 N103 1.317 . S
C101 H106 0.930 . S
C102 C101 1.333 . S
C102 N104 1.350 . S
C102 H128 0.931 . S
N103 Co99 2.148 . S
N103 C100 1.301 . S
N103 C101 1.317 . S
N104 C100 1.328 . S
N104 C102 1.350 . S
H105 C100 0.930 . S
H106 C101 0.930 . S
C107 O108 1.224 . S
C107 O126 1.247 . S
O108 C107 1.224 . S
N109 Co99 2.128 . S
N109 C110 1.355 . S
N109 C112 1.311 . S
C110 N109 1.355 . S
C110 C111 1.363 . S
C110 H122 0.929 . S
C111 C110 1.363 . S
C111 N113 1.375 . S
C111 H129 0.931 . S
C112 N109 1.311 . S
C112 N113 1.347 . S
C112 H123 0.929 . S
N113 C111 1.375 . S
N113 C112 1.347 . S
C114 C117 1.365 . S
C114 N119 1.328 . S
C114 H120 0.929 . S
C115 C116 1.362 . S
C115 C118 1.378 . S
C115 H130 0.929 . S
C116 C115 1.362 . S
C116 C117 1.366 . S
C117 C114 1.365 . S
C117 C116 1.366 . S
C117 H131 0.930 . S
C118 C115 1.378 . S
C118 N119 1.315 . S
C118 H121 0.930 . S
N119 Co99 2.194 . S
N119 C114 1.328 . S
N119 C118 1.315 . S
H120 C114 0.929 . S
H121 C118 0.930 . S
H122 C110 0.929 . S
H123 C112 0.929 . S
O124 Co99 2.351 . S
O124 C127 1.244 . S
O125 Co99 2.155 . S
O125 C127 1.240 . S
O126 Co99 2.096 . S
O126 C107 1.247 . S
C127 O124 1.244 . S
C127 O125 1.240 . S
H128 C102 0.931 . S
H129 C111 0.931 . S
H130 C115 0.929 . S
H131 C117 0.930 . S
Co132 N136 2.148 . S
Co132 N142 2.128 . S
Co132 N152 2.194 . S
Co132 O157 2.351 . S
Co132 O158 2.155 . S
Co132 O159 2.096 . S
C133 N136 1.301 . S
C133 N137 1.328 . S
C133 H138 0.930 . S
C134 C135 1.333 . S
C134 N136 1.317 . S
C134 H139 0.930 . S
C135 C134 1.333 . S
C135 N137 1.350 . S
C135 H161 0.931 . S
N136 Co132 2.148 . S
N136 C133 1.301 . S
N136 C134 1.317 . S
N137 C133 1.328 . S
N137 C135 1.350 . S
H138 C133 0.930 . S
H139 C134 0.930 . S
C140 O141 1.224 . S
C140 O159 1.247 . S
O141 C140 1.224 . S
N142 Co132 2.128 . S
N142 C143 1.355 . S
N142 C145 1.311 . S
C143 N142 1.355 . S
C143 C144 1.363 . S
C143 H155 0.929 . S
C144 C143 1.363 . S
C144 N146 1.375 . S
C144 H162 0.931 . S
C145 N142 1.311 . S
C145 N146 1.347 . S
C145 H156 0.929 . S
N146 C144 1.375 . S
N146 C145 1.347 . S
C147 C150 1.365 . S
C147 N152 1.328 . S
C147 H153 0.929 . S
C148 C149 1.362 . S
C148 C151 1.378 . S
C148 H163 0.929 . S
C149 C148 1.362 . S
C149 C150 1.366 . S
C150 C147 1.365 . S
C150 C149 1.366 . S
C150 H164 0.930 . S
C151 C148 1.378 . S
C151 N152 1.315 . S
C151 H154 0.930 . S
N152 Co132 2.194 . S
N152 C147 1.328 . S
N152 C151 1.315 . S
H153 C147 0.929 . S
H154 C151 0.930 . S
H155 C143 0.929 . S
H156 C145 0.929 . S
O157 Co132 2.351 . S
O157 C160 1.244 . S
O158 Co132 2.155 . S
O158 C160 1.240 . S
O159 Co132 2.096 . S
O159 C140 1.247 . S
C160 O157 1.244 . S
C160 O158 1.240 . S
H161 C135 0.931 . S
H162 C144 0.931 . S
H163 C148 0.929 . S
H164 C150 0.930 . S
Co165 N169 2.148 1_556 S
Co165 N175 2.128 . S
Co165 N185 2.194 . S
Co165 O190 2.351 . S
Co165 O191 2.155 . S
Co165 O192 2.096 . S
C166 N169 1.301 . S
C166 N170 1.328 . S
C166 H171 0.930 . S
C167 C168 1.333 . S
C167 N169 1.317 . S
C167 H172 0.930 1_554 S
C168 C167 1.333 . S
C168 N170 1.350 . S
C168 H194 0.931 . S
N169 Co165 2.148 1_554 S
N169 C166 1.301 . S
N169 C167 1.317 . S
N170 C166 1.328 . S
N170 C168 1.350 . S
H171 C166 0.930 . S
H172 C167 0.930 1_556 S
C173 O174 1.224 . S
C173 O192 1.247 . S
O174 C173 1.224 . S
N175 Co165 2.128 . S
N175 C176 1.355 . S
N175 C178 1.311 . S
C176 N175 1.355 . S
C176 C177 1.363 . S
C176 H188 0.929 . S
C177 C176 1.363 . S
C177 N179 1.375 . S
C177 H195 0.931 . S
C178 N175 1.311 . S
C178 N179 1.347 . S
C178 H189 0.929 . S
N179 C177 1.375 . S
N179 C178 1.347 . S
C180 C183 1.365 . S
C180 N185 1.328 . S
C180 H186 0.929 . S
C181 C182 1.362 . S
C181 C184 1.378 . S
C181 H196 0.929 . S
C182 C181 1.362 . S
C182 C183 1.366 . S
C183 C180 1.365 . S
C183 C182 1.366 . S
C183 H197 0.930 . S
C184 C181 1.378 . S
C184 N185 1.315 . S
C184 H187 0.930 . S
N185 Co165 2.194 . S
N185 C180 1.328 . S
N185 C184 1.315 . S
H186 C180 0.929 . S
H187 C184 0.930 . S
H188 C176 0.929 . S
H189 C178 0.929 . S
O190 Co165 2.351 . S
O190 C193 1.244 . S
O191 Co165 2.155 . S
O191 C193 1.240 . S
O192 Co165 2.096 . S
O192 C173 1.247 . S
C193 O190 1.244 . S
C193 O191 1.240 . S
H194 C168 0.931 . S
H195 C177 0.931 . S
H196 C181 0.929 . S
H197 C183 0.930 . S
Co198 N202 2.148 . S
Co198 N208 2.128 . S
Co198 N218 2.194 . S
Co198 O223 2.351 . S
Co198 O224 2.155 . S
Co198 O225 2.096 . S
C199 N202 1.301 . S
C199 N203 1.328 . S
C199 H204 0.930 . S
C200 C201 1.333 . S
C200 N202 1.317 . S
C200 H205 0.930 . S
C201 C200 1.333 . S
C201 N203 1.350 . S
C201 H227 0.931 . S
N202 Co198 2.148 . S
N202 C199 1.301 . S
N202 C200 1.317 . S
N203 C199 1.328 . S
N203 C201 1.350 . S
H204 C199 0.930 . S
H205 C200 0.930 . S
C206 O207 1.224 . S
C206 O225 1.247 . S
O207 C206 1.224 . S
N208 Co198 2.128 . S
N208 C209 1.355 . S
N208 C211 1.311 . S
C209 N208 1.355 . S
C209 C210 1.363 . S
C209 H221 0.929 . S
C210 C209 1.363 . S
C210 N212 1.375 1_556 S
C210 H228 0.931 1_556 S
C211 N208 1.311 . S
C211 N212 1.347 1_556 S
C211 H222 0.929 . S
N212 C210 1.375 1_554 S
N212 C211 1.347 1_554 S
C213 C216 1.365 . S
C213 N218 1.328 . S
C213 H219 0.929 . S
C214 C215 1.362 . S
C214 C217 1.378 . S
C214 H229 0.929 . S
C215 C214 1.362 . S
C215 C216 1.366 . S
C216 C213 1.365 . S
C216 C215 1.366 . S
C216 H230 0.930 . S
C217 C214 1.378 . S
C217 N218 1.315 . S
C217 H220 0.930 . S
N218 Co198 2.194 . S
N218 C213 1.328 . S
N218 C217 1.315 . S
H219 C213 0.929 . S
H220 C217 0.930 . S
H221 C209 0.929 . S
H222 C211 0.929 . S
O223 Co198 2.351 . S
O223 C226 1.244 . S
O224 Co198 2.155 . S
O224 C226 1.240 . S
O225 Co198 2.096 . S
O225 C206 1.247 . S
C226 O223 1.244 . S
C226 O224 1.240 . S
H227 C201 0.931 . S
H228 C210 0.931 1_554 S
H229 C214 0.929 . S
H230 C216 0.930 . S
Co231 N235 2.148 . S
Co231 N241 2.128 1_556 S
Co231 N251 2.194 . S
Co231 O256 2.351 . S
Co231 O257 2.155 . S
Co231 O258 2.096 . S
C232 N235 1.301 . S
C232 N236 1.328 . S
C232 H237 0.930 . S
C233 C234 1.333 . S
C233 N235 1.317 . S
C233 H238 0.930 . S
C234 C233 1.333 . S
C234 N236 1.350 . S
C234 H260 0.931 . S
N235 Co231 2.148 . S
N235 C232 1.301 . S
N235 C233 1.317 . S
N236 C232 1.328 . S
N236 C234 1.350 . S
H237 C232 0.930 . S
H238 C233 0.930 . S
C239 O240 1.224 . S
C239 O258 1.247 1_554 S
O240 C239 1.224 . S
N241 Co231 2.128 1_554 S
N241 C242 1.355 . S
N241 C244 1.311 . S
C242 N241 1.355 . S
C242 C243 1.363 . S
C242 H254 0.929 . S
C243 C242 1.363 . S
C243 N245 1.375 . S
C243 H261 0.931 . S
C244 N241 1.311 . S
C244 N245 1.347 . S
C244 H255 0.929 . S
N245 C243 1.375 . S
N245 C244 1.347 . S
C246 C249 1.365 . S
C246 N251 1.328 . S
C246 H252 0.929 . S
C247 C248 1.362 . S
C247 C250 1.378 . S
C247 H262 0.929 . S
C248 C247 1.362 . S
C248 C249 1.366 . S
C249 C246 1.365 . S
C249 C248 1.366 . S
C249 H263 0.930 . S
C250 C247 1.378 . S
C250 N251 1.315 . S
C250 H253 0.930 . S
N251 Co231 2.194 . S
N251 C246 1.328 . S
N251 C250 1.315 . S
H252 C246 0.929 . S
H253 C250 0.930 . S
H254 C242 0.929 . S
H255 C244 0.929 . S
O256 Co231 2.351 . S
O256 C259 1.244 . S
O257 Co231 2.155 . S
O257 C259 1.240 . S
O258 Co231 2.096 . S
O258 C239 1.247 1_556 S
C259 O256 1.244 . S
C259 O257 1.240 . S
H260 C234 0.931 . S
H261 C243 0.931 . S
H262 C247 0.929 . S
H263 C249 0.930 . S
Co264 N268 2.148 . S
Co264 N274 2.128 . S
Co264 N284 2.194 . S
Co264 O289 2.351 . S
Co264 O290 2.155 . S
Co264 O291 2.096 . S
C265 N268 1.301 1_556 S
C265 N269 1.328 . S
C265 H270 0.930 . S
C266 C267 1.333 . S
C266 N268 1.317 1_556 S
C266 H271 0.930 1_556 S
C267 C266 1.333 . S
C267 N269 1.350 . S
C267 H293 0.931 . S
N268 Co264 2.148 . S
N268 C265 1.301 1_554 S
N268 C266 1.317 1_554 S
N269 C265 1.328 . S
N269 C267 1.350 . S
H270 C265 0.930 . S
H271 C266 0.930 1_554 S
C272 O273 1.224 . S
C272 O291 1.247 . S
O273 C272 1.224 . S
N274 Co264 2.128 . S
N274 C275 1.355 . S
N274 C277 1.311 . S
C275 N274 1.355 . S
C275 C276 1.363 . S
C275 H287 0.929 . S
C276 C275 1.363 . S
C276 N278 1.375 . S
C276 H294 0.931 . S
C277 N274 1.311 . S
C277 N278 1.347 . S
C277 H288 0.929 . S
N278 C276 1.375 . S
N278 C277 1.347 . S
C279 C282 1.365 . S
C279 N284 1.328 . S
C279 H285 0.929 . S
C280 C281 1.362 . S
C280 C283 1.378 . S
C280 H295 0.929 . S
C281 C280 1.362 . S
C281 C282 1.366 . S
C282 C279 1.365 . S
C282 C281 1.366 . S
C282 H296 0.930 . S
C283 C280 1.378 . S
C283 N284 1.315 . S
C283 H286 0.930 . S
N284 Co264 2.194 . S
N284 C279 1.328 . S
N284 C283 1.315 . S
H285 C279 0.929 . S
H286 C283 0.930 . S
H287 C275 0.929 . S
H288 C277 0.929 . S
O289 Co264 2.351 . S
O289 C292 1.244 . S
O290 Co264 2.155 . S
O290 C292 1.240 . S
O291 Co264 2.096 . S
O291 C272 1.247 . S
C292 O289 1.244 . S
C292 O290 1.240 . S
H293 C267 0.931 . S
H294 C276 0.931 . S
H295 C280 0.929 . S
H296 C282 0.930 . S
Co297 N301 2.148 . S
Co297 N307 2.128 . S
Co297 N317 2.194 . S
Co297 O322 2.351 . S
Co297 O323 2.155 . S
Co297 O324 2.096 . S
C298 N301 1.301 . S
C298 N302 1.328 . S
C298 H303 0.930 . S
C299 C300 1.333 . S
C299 N301 1.317 . S
C299 H304 0.930 . S
C300 C299 1.333 . S
C300 N302 1.350 . S
C300 H326 0.931 . S
N301 Co297 2.148 . S
N301 C298 1.301 . S
N301 C299 1.317 . S
N302 C298 1.328 . S
N302 C300 1.350 . S
H303 C298 0.930 . S
H304 C299 0.930 . S
C305 O306 1.224 . S
C305 O324 1.247 . S
O306 C305 1.224 . S
N307 Co297 2.128 . S
N307 C308 1.355 . S
N307 C310 1.311 . S
C308 N307 1.355 . S
C308 C309 1.363 . S
C308 H320 0.929 . S
C309 C308 1.363 . S
C309 N311 1.375 . S
C309 H327 0.931 . S
C310 N307 1.311 . S
C310 N311 1.347 . S
C310 H321 0.929 . S
N311 C309 1.375 . S
N311 C310 1.347 . S
C312 C315 1.365 . S
C312 N317 1.328 . S
C312 H318 0.929 . S
C313 C314 1.362 . S
C313 C316 1.378 . S
C313 H328 0.929 . S
C314 C313 1.362 . S
C314 C315 1.366 . S
C315 C312 1.365 . S
C315 C314 1.366 . S
C315 H329 0.930 . S
C316 C313 1.378 . S
C316 N317 1.315 . S
C316 H319 0.930 . S
N317 Co297 2.194 . S
N317 C312 1.328 . S
N317 C316 1.315 . S
H318 C312 0.929 . S
H319 C316 0.930 . S
H320 C308 0.929 . S
H321 C310 0.929 . S
O322 Co297 2.351 . S
O322 C325 1.244 . S
O323 Co297 2.155 . S
O323 C325 1.240 . S
O324 Co297 2.096 . S
O324 C305 1.247 . S
C325 O322 1.244 . S
C325 O323 1.240 . S
H326 C300 0.931 . S
H327 C309 0.931 . S
H328 C313 0.929 . S
H329 C315 0.930 . S
Co330 N334 2.148 . S
Co330 N340 2.128 . S
Co330 N350 2.194 . S
Co330 O355 2.351 . S
Co330 O356 2.155 . S
Co330 O357 2.096 . S
C331 N334 1.301 . S
C331 N335 1.328 . S
C331 H336 0.930 . S
C332 C333 1.333 . S
C332 N334 1.317 . S
C332 H337 0.930 . S
C333 C332 1.333 . S
C333 N335 1.350 . S
C333 H359 0.931 . S
N334 Co330 2.148 . S
N334 C331 1.301 . S
N334 C332 1.317 . S
N335 C331 1.328 . S
N335 C333 1.350 . S
H336 C331 0.930 . S
H337 C332 0.930 . S
C338 O339 1.224 . S
C338 O357 1.247 . S
O339 C338 1.224 . S
N340 Co330 2.128 . S
N340 C341 1.355 . S
N340 C343 1.311 . S
C341 N340 1.355 . S
C341 C342 1.363 . S
C341 H353 0.929 . S
C342 C341 1.363 . S
C342 N344 1.375 . S
C342 H360 0.931 . S
C343 N340 1.311 . S
C343 N344 1.347 . S
C343 H354 0.929 . S
N344 C342 1.375 . S
N344 C343 1.347 . S
C345 C348 1.365 . S
C345 N350 1.328 . S
C345 H351 0.929 . S
C346 C347 1.362 . S
C346 C349 1.378 . S
C346 H361 0.929 . S
C347 C346 1.362 . S
C347 C348 1.366 . S
C348 C345 1.365 . S
C348 C347 1.366 . S
C348 H362 0.930 . S
C349 C346 1.378 . S
C349 N350 1.315 . S
C349 H352 0.930 . S
N350 Co330 2.194 . S
N350 C345 1.328 . S
N350 C349 1.315 . S
H351 C345 0.929 . S
H352 C349 0.930 . S
H353 C341 0.929 . S
H354 C343 0.929 . S
O355 Co330 2.351 . S
O355 C358 1.244 . S
O356 Co330 2.155 . S
O356 C358 1.240 . S
O357 Co330 2.096 . S
O357 C338 1.247 . S
C358 O355 1.244 . S
C358 O356 1.240 . S
H359 C333 0.931 . S
H360 C342 0.931 . S
H361 C346 0.929 . S
H362 C348 0.930 . S
Co363 N367 2.148 . S
Co363 N373 2.128 . S
Co363 N383 2.194 . S
Co363 O388 2.351 . S
Co363 O389 2.155 . S
Co363 O390 2.096 . S
C364 N367 1.301 . S
C364 N368 1.328 . S
C364 H369 0.930 . S
C365 C366 1.333 . S
C365 N367 1.317 . S
C365 H370 0.930 . S
C366 C365 1.333 . S
C366 N368 1.350 . S
C366 H392 0.931 . S
N367 Co363 2.148 . S
N367 C364 1.301 . S
N367 C365 1.317 . S
N368 C364 1.328 . S
N368 C366 1.350 . S
H369 C364 0.930 . S
H370 C365 0.930 . S
C371 O372 1.224 . S
C371 O390 1.247 . S
O372 C371 1.224 . S
N373 Co363 2.128 . S
N373 C374 1.355 . S
N373 C376 1.311 . S
C374 N373 1.355 . S
C374 C375 1.363 . S
C374 H386 0.929 . S
C375 C374 1.363 . S
C375 N377 1.375 . S
C375 H393 0.931 . S
C376 N373 1.311 . S
C376 N377 1.347 . S
C376 H387 0.929 . S
N377 C375 1.375 . S
N377 C376 1.347 . S
C378 C381 1.365 . S
C378 N383 1.328 . S
C378 H384 0.929 . S
C379 C380 1.362 . S
C379 C382 1.378 . S
C379 H394 0.929 . S
C380 C379 1.362 . S
C380 C381 1.366 . S
C381 C378 1.365 . S
C381 C380 1.366 . S
C381 H395 0.930 . S
C382 C379 1.378 . S
C382 N383 1.315 . S
C382 H385 0.930 . S
N383 Co363 2.194 . S
N383 C378 1.328 . S
N383 C382 1.315 . S
H384 C378 0.929 . S
H385 C382 0.930 . S
H386 C374 0.929 . S
H387 C376 0.929 . S
O388 Co363 2.351 . S
O388 C391 1.244 . S
O389 Co363 2.155 . S
O389 C391 1.240 . S
O390 Co363 2.096 . S
O390 C371 1.247 . S
C391 O388 1.244 . S
C391 O389 1.240 . S
H392 C366 0.931 . S
H393 C375 0.931 . S
H394 C379 0.929 . S
H395 C381 0.930 . S
H396 C404 0.950 1_556 S
H397 C409 0.950 . S
H398 C406 0.950 1_556 S
H399 C408 0.950 . S
H400 C410 0.950 . S
H401 C412 0.950 . S
H402 C414 0.950 1_556 S
H403 C415 0.950 1_556 S
C404 H396 0.950 1_554 S
C404 C405 1.386 . S
C404 C406 1.391 . S
C405 C404 1.386 . S
C405 C409 1.393 . S
C406 H398 0.950 1_554 S
C406 C404 1.391 . S
C406 C407 1.400 . S
C407 C406 1.400 . S
C407 C408 1.398 . S
C407 C413 1.491 . S
C408 H399 0.950 . S
C408 C407 1.398 . S
C408 C409 1.391 . S
C409 H397 0.950 . S
C409 C405 1.393 . S
C409 C408 1.391 . S
C410 H400 0.950 . S
C410 C411 1.386 . S
C410 C412 1.391 . S
C411 C410 1.386 . S
C411 C415 1.393 . S
C412 H401 0.950 . S
C412 C410 1.391 . S
C412 C413 1.400 . S
C413 C407 1.491 . S
C413 C412 1.400 . S
C413 C414 1.398 . S
C414 H402 0.950 1_554 S
C414 C413 1.398 . S
C414 C415 1.391 . S
C415 H403 0.950 1_554 S
C415 C411 1.393 . S
C415 C414 1.391 . S
H416 C424 0.950 . S
H417 C429 0.950 . S
H418 C426 0.950 . S
H419 C428 0.950 . S
H420 C430 0.950 . S
H421 C432 0.950 . S
H422 C434 0.950 . S
H423 C435 0.950 . S
C424 H416 0.950 . S
C424 C425 1.386 . S
C424 C426 1.391 . S
C425 C424 1.386 . S
C425 C429 1.393 . S
C426 H418 0.950 . S
C426 C424 1.391 . S
C426 C427 1.400 . S
C427 C426 1.400 . S
C427 C428 1.398 . S
C427 C433 1.491 . S
C428 H419 0.950 . S
C428 C427 1.398 . S
C428 C429 1.391 . S
C429 H417 0.950 . S
C429 C425 1.393 . S
C429 C428 1.391 . S
C430 H420 0.950 . S
C430 C431 1.386 . S
C430 C432 1.391 . S
C431 C430 1.386 . S
C431 C435 1.393 . S
C432 H421 0.950 . S
C432 C430 1.391 . S
C432 C433 1.400 . S
C433 C427 1.491 . S
C433 C432 1.400 . S
C433 C434 1.398 . S
C434 H422 0.950 . S
C434 C433 1.398 . S
C434 C435 1.391 . S
C435 H423 0.950 . S
C435 C431 1.393 . S
C435 C434 1.391 . S
H436 C444 0.950 . S
H437 C449 0.950 . S
H438 C446 0.950 . S
H439 C448 0.950 . S
H440 C450 0.950 . S
H441 C452 0.950 . S
H442 C454 0.950 . S
H443 C455 0.950 . S
C444 H436 0.950 . S
C444 C445 1.386 . S
C444 C446 1.391 . S
C445 C444 1.386 . S
C445 C449 1.393 . S
C446 H438 0.950 . S
C446 C444 1.391 . S
C446 C447 1.400 . S
C447 C446 1.400 . S
C447 C448 1.398 . S
C447 C453 1.491 . S
C448 H439 0.950 . S
C448 C447 1.398 . S
C448 C449 1.391 . S
C449 H437 0.950 . S
C449 C445 1.393 . S
C449 C448 1.391 . S
C450 H440 0.950 . S
C450 C451 1.386 . S
C450 C452 1.391 . S
C451 C450 1.386 . S
C451 C455 1.393 . S
C452 H441 0.950 . S
C452 C450 1.391 . S
C452 C453 1.400 . S
C453 C447 1.491 . S
C453 C452 1.400 . S
C453 C454 1.398 . S
C454 H442 0.950 . S
C454 C453 1.398 . S
C454 C455 1.391 . S
C455 H443 0.950 . S
C455 C451 1.393 . S
C455 C454 1.391 . S
H456 C464 0.950 . S
H457 C469 0.950 . S
H458 C466 0.950 . S
H459 C468 0.950 . S
H460 C470 0.950 . S
H461 C472 0.950 . S
H462 C474 0.950 . S
H463 C475 0.950 . S
C464 H456 0.950 . S
C464 C465 1.386 . S
C464 C466 1.391 . S
C465 C464 1.386 . S
C465 C469 1.393 . S
C466 H458 0.950 . S
C466 C464 1.391 . S
C466 C467 1.400 . S
C467 C466 1.400 . S
C467 C468 1.398 . S
C467 C473 1.491 . S
C468 H459 0.950 . S
C468 C467 1.398 . S
C468 C469 1.391 . S
C469 H457 0.950 . S
C469 C465 1.393 . S
C469 C468 1.391 . S
C470 H460 0.950 . S
C470 C471 1.386 . S
C470 C472 1.391 . S
C471 C470 1.386 . S
C471 C475 1.393 . S
C472 H461 0.950 . S
C472 C470 1.391 . S
C472 C473 1.400 . S
C473 C467 1.491 . S
C473 C472 1.400 . S
C473 C474 1.398 . S
C474 H462 0.950 . S
C474 C473 1.398 . S
C474 C475 1.391 . S
C475 H463 0.950 . S
C475 C471 1.393 . S
C475 C474 1.391 . S
H476 C484 0.950 . S
H477 C489 0.950 . S
H478 C486 0.950 . S
H479 C488 0.950 . S
H480 C490 0.950 . S
H481 C492 0.950 . S
H482 C494 0.950 . S
H483 C495 0.950 . S
C484 H476 0.950 . S
C484 C485 1.386 . S
C484 C486 1.391 . S
C485 C484 1.386 . S
C485 C489 1.393 . S
C486 H478 0.950 . S
C486 C484 1.391 . S
C486 C487 1.400 . S
C487 C486 1.400 . S
C487 C488 1.398 . S
C487 C493 1.491 . S
C488 H479 0.950 . S
C488 C487 1.398 . S
C488 C489 1.391 . S
C489 H477 0.950 . S
C489 C485 1.393 . S
C489 C488 1.391 . S
C490 H480 0.950 . S
C490 C491 1.386 . S
C490 C492 1.391 . S
C491 C490 1.386 . S
C491 C495 1.393 . S
C492 H481 0.950 . S
C492 C490 1.391 . S
C492 C493 1.400 . S
C493 C487 1.491 . S
C493 C492 1.400 . S
C493 C494 1.398 . S
C494 H482 0.950 . S
C494 C493 1.398 . S
C494 C495 1.391 . S
C495 H483 0.950 . S
C495 C491 1.393 . S
C495 C494 1.391 . S
H496 C504 0.950 . S
H497 C509 0.950 . S
H498 C506 0.950 . S
H499 C508 0.950 . S
H500 C510 0.950 . S
H501 C512 0.950 . S
H502 C514 0.950 . S
H503 C515 0.950 . S
C504 H496 0.950 . S
C504 C505 1.386 . S
C504 C506 1.391 . S
C505 C504 1.386 . S
C505 C509 1.393 . S
C506 H498 0.950 . S
C506 C504 1.391 . S
C506 C507 1.400 . S
C507 C506 1.400 . S
C507 C508 1.398 . S
C507 C513 1.491 . S
C508 H499 0.950 . S
C508 C507 1.398 . S
C508 C509 1.391 . S
C509 H497 0.950 . S
C509 C505 1.393 . S
C509 C508 1.391 . S
C510 H500 0.950 . S
C510 C511 1.386 . S
C510 C512 1.391 . S
C511 C510 1.386 . S
C511 C515 1.393 . S
C512 H501 0.950 . S
C512 C510 1.391 . S
C512 C513 1.400 . S
C513 C507 1.491 . S
C513 C512 1.400 . S
C513 C514 1.398 . S
C514 H502 0.950 . S
C514 C513 1.398 . S
C514 C515 1.391 . S
C515 H503 0.950 . S
C515 C511 1.393 . S
C515 C514 1.391 . S
H516 C524 0.950 1_554 S
H517 C529 0.950 . S
H518 C526 0.950 1_655 S
H519 C528 0.950 . S
H520 C530 0.950 . S
H521 C532 0.950 1_455 S
H522 C534 0.950 . S
H523 C535 0.950 . S
C524 H516 0.950 1_556 S
C524 C525 1.386 . S
C524 C526 1.391 . S
C525 C524 1.386 . S
C525 C529 1.393 . S
C526 H518 0.950 1_455 S
C526 C524 1.391 . S
C526 C527 1.400 . S
C527 C526 1.400 . S
C527 C528 1.398 . S
C527 C533 1.491 1_455 S
C528 H519 0.950 . S
C528 C527 1.398 . S
C528 C529 1.391 . S
C529 H517 0.950 . S
C529 C525 1.393 . S
C529 C528 1.391 . S
C530 H520 0.950 . S
C530 C531 1.386 . S
C530 C532 1.391 . S
C531 C530 1.386 . S
C531 C535 1.393 . S
C532 H521 0.950 1_655 S
C532 C530 1.391 . S
C532 C533 1.400 . S
C533 C527 1.491 1_655 S
C533 C532 1.400 . S
C533 C534 1.398 . S
C534 H522 0.950 . S
C534 C533 1.398 . S
C534 C535 1.391 . S
C535 H523 0.950 . S
C535 C531 1.393 . S
C535 C534 1.391 . S
H536 C544 0.950 . S
H537 C549 0.950 . S
H538 C546 0.950 . S
H539 C548 0.950 1_545 S
H540 C550 0.950 . S
H541 C552 0.950 1_556 S
H542 C554 0.950 1_565 S
H543 C555 0.950 . S
C544 H536 0.950 . S
C544 C545 1.386 . S
C544 C546 1.391 1_556 S
C545 C544 1.386 . S
C545 C549 1.393 . S
C546 H538 0.950 . S
C546 C544 1.391 1_554 S
C546 C547 1.400 1_554 S
C547 C546 1.400 1_556 S
C547 C548 1.398 . S
C547 C553 1.491 1_566 S
C548 H539 0.950 1_565 S
C548 C547 1.398 . S
C548 C549 1.391 . S
C549 H537 0.950 . S
C549 C545 1.393 . S
C549 C548 1.391 . S
C550 H540 0.950 . S
C550 C551 1.386 . S
C550 C552 1.391 . S
C551 C550 1.386 . S
C551 C555 1.393 . S
C552 H541 0.950 1_554 S
C552 C550 1.391 . S
C552 C553 1.400 . S
C553 C547 1.491 1_544 S
C553 C552 1.400 . S
C553 C554 1.398 . S
C554 H542 0.950 1_545 S
C554 C553 1.398 . S
C554 C555 1.391 . S
C555 H543 0.950 . S
C555 C551 1.393 . S
C555 C554 1.391 . S
H556 C564 0.950 . S
H557 C569 0.950 . S
H558 C566 0.950 . S
H559 C568 0.950 . S
H560 C570 0.950 . S
H561 C572 0.950 . S
H562 C574 0.950 . S
H563 C575 0.950 1_556 S
C564 H556 0.950 . S
C564 C565 1.386 . S
C564 C566 1.391 . S
C565 C564 1.386 . S
C565 C569 1.393 . S
C566 H558 0.950 . S
C566 C564 1.391 . S
C566 C567 1.400 . S
C567 C566 1.400 . S
C567 C568 1.398 . S
C567 C573 1.491 . S
C568 H559 0.950 . S
C568 C567 1.398 . S
C568 C569 1.391 . S
C569 H557 0.950 . S
C569 C565 1.393 . S
C569 C568 1.391 . S
C570 H560 0.950 . S
C570 C571 1.386 . S
C570 C572 1.391 . S
C571 C570 1.386 . S
C571 C575 1.393 . S
C572 H561 0.950 . S
C572 C570 1.391 . S
C572 C573 1.400 . S
C573 C567 1.491 . S
C573 C572 1.400 . S
C573 C574 1.398 . S
C574 H562 0.950 . S
C574 C573 1.398 . S
C574 C575 1.391 . S
C575 H563 0.950 1_554 S
C575 C571 1.393 . S
C575 C574 1.391 . S
H576 C584 0.950 . S
H577 C589 0.950 . S
H578 C586 0.950 1_455 S
H579 C588 0.950 . S
H580 C590 0.950 . S
H581 C592 0.950 1_655 S
H582 C594 0.950 . S
H583 C595 0.950 . S
C584 H576 0.950 . S
C584 C585 1.386 . S
C584 C586 1.391 . S
C585 C584 1.386 . S
C585 C589 1.393 . S
C586 H578 0.950 1_655 S
C586 C584 1.391 . S
C586 C587 1.400 . S
C587 C586 1.400 . S
C587 C588 1.398 . S
C587 C593 1.491 1_655 S
C588 H579 0.950 . S
C588 C587 1.398 . S
C588 C589 1.391 . S
C589 H577 0.950 . S
C589 C585 1.393 . S
C589 C588 1.391 . S
C590 H580 0.950 . S
C590 C591 1.386 . S
C590 C592 1.391 . S
C591 C590 1.386 . S
C591 C595 1.393 . S
C592 H581 0.950 1_455 S
C592 C590 1.391 . S
C592 C593 1.400 . S
C593 C587 1.491 1_455 S
C593 C592 1.400 . S
C593 C594 1.398 . S
C594 H582 0.950 . S
C594 C593 1.398 . S
C594 C595 1.391 . S
C595 H583 0.950 . S
C595 C591 1.393 . S
C595 C594 1.391 . S
H596 C604 0.950 . S
H597 C609 0.950 . S
H598 C606 0.950 1_565 S
H599 C608 0.950 . S
H600 C610 0.950 . S
H601 C612 0.950 1_545 S
H602 C614 0.950 . S
H603 C615 0.950 . S
C604 H596 0.950 . S
C604 C605 1.386 . S
C604 C606 1.391 . S
C605 C604 1.386 . S
C605 C609 1.393 . S
C606 H598 0.950 1_545 S
C606 C604 1.391 . S
C606 C607 1.400 . S
C607 C606 1.400 . S
C607 C608 1.398 . S
C607 C613 1.491 1_545 S
C608 H599 0.950 . S
C608 C607 1.398 . S
C608 C609 1.391 . S
C609 H597 0.950 . S
C609 C605 1.393 . S
C609 C608 1.391 . S
C610 H600 0.950 . S
C610 C611 1.386 . S
C610 C612 1.391 . S
C611 C610 1.386 . S
C611 C615 1.393 . S
C612 H601 0.950 1_565 S
C612 C610 1.391 . S
C612 C613 1.400 . S
C613 C607 1.491 1_565 S
C613 C612 1.400 . S
C613 C614 1.398 . S
C614 H602 0.950 . S
C614 C613 1.398 . S
C614 C615 1.391 . S
C615 H603 0.950 . S
C615 C611 1.393 . S
C615 C614 1.391 . S
H616 C624 0.950 . S
H617 C629 0.950 . S
H618 C626 0.950 . S
H619 C628 0.950 . S
H620 C630 0.950 . S
H621 C632 0.950 . S
H622 C634 0.950 . S
H623 C635 0.950 . S
C624 H616 0.950 . S
C624 C625 1.386 . S
C624 C626 1.391 . S
C625 C624 1.386 . S
C625 C629 1.393 . S
C626 H618 0.950 . S
C626 C624 1.391 . S
C626 C627 1.400 . S
C627 C626 1.400 . S
C627 C628 1.398 . S
C627 C633 1.491 . S
C628 H619 0.950 . S
C628 C627 1.398 . S
C628 C629 1.391 . S
C629 H617 0.950 . S
C629 C625 1.393 . S
C629 C628 1.391 . S
C630 H620 0.950 . S
C630 C631 1.386 . S
C630 C632 1.391 . S
C631 C630 1.386 . S
C631 C635 1.393 . S
C632 H621 0.950 . S
C632 C630 1.391 . S
C632 C633 1.400 . S
C633 C627 1.491 . S
C633 C632 1.400 . S
C633 C634 1.398 . S
C634 H622 0.950 . S
C634 C633 1.398 . S
C634 C635 1.391 . S
C635 H623 0.950 . S
C635 C631 1.393 . S
C635 C634 1.391 . S
H636 C644 0.950 . S
H637 C649 0.950 . S
H638 C646 0.950 . S
H639 C648 0.950 . S
H640 C650 0.950 . S
H641 C652 0.950 . S
H642 C654 0.950 . S
H643 C655 0.950 . S
C644 H636 0.950 . S
C644 C645 1.386 . S
C644 C646 1.391 . S
C645 C644 1.386 . S
C645 C649 1.393 . S
C646 H638 0.950 . S
C646 C644 1.391 . S
C646 C647 1.400 . S
C647 C646 1.400 . S
C647 C648 1.398 . S
C647 C653 1.491 . S
C648 H639 0.950 . S
C648 C647 1.398 . S
C648 C649 1.391 . S
C649 H637 0.950 . S
C649 C645 1.393 . S
C649 C648 1.391 . S
C650 H640 0.950 . S
C650 C651 1.386 . S
C650 C652 1.391 . S
C651 C650 1.386 . S
C651 C655 1.393 . S
C652 H641 0.950 . S
C652 C650 1.391 . S
C652 C653 1.400 . S
C653 C647 1.491 . S
C653 C652 1.400 . S
C653 C654 1.398 . S
C654 H642 0.950 . S
C654 C653 1.398 . S
C654 C655 1.391 . S
C655 H643 0.950 . S
C655 C651 1.393 . S
C655 C654 1.391 . S
H656 C664 0.950 . S
H657 C669 0.950 . S
H658 C666 0.950 . S
H659 C668 0.950 . S
H660 C670 0.950 . S
H661 C672 0.950 . S
H662 C674 0.950 . S
H663 C675 0.950 . S
C664 H656 0.950 . S
C664 C665 1.386 . S
C664 C666 1.391 . S
C665 C664 1.386 . S
C665 C669 1.393 . S
C666 H658 0.950 . S
C666 C664 1.391 . S
C666 C667 1.400 . S
C667 C666 1.400 . S
C667 C668 1.398 . S
C667 C673 1.491 . S
C668 H659 0.950 . S
C668 C667 1.398 . S
C668 C669 1.391 . S
C669 H657 0.950 . S
C669 C665 1.393 . S
C669 C668 1.391 . S
C670 H660 0.950 . S
C670 C671 1.386 . S
C670 C672 1.391 . S
C671 C670 1.386 . S
C671 C675 1.393 . S
C672 H661 0.950 . S
C672 C670 1.391 . S
C672 C673 1.400 . S
C673 C667 1.491 . S
C673 C672 1.400 . S
C673 C674 1.398 . S
C674 H662 0.950 . S
C674 C673 1.398 . S
C674 C675 1.391 . S
C675 H663 0.950 . S
C675 C671 1.393 . S
C675 C674 1.391 . S
H676 C684 0.950 . S
H677 C689 0.950 . S
H678 C686 0.950 . S
H679 C688 0.950 . S
H680 C690 0.950 . S
H681 C692 0.950 . S
H682 C694 0.950 . S
H683 C695 0.950 . S
C684 H676 0.950 . S
C684 C685 1.386 . S
C684 C686 1.391 . S
C685 C684 1.386 . S
C685 C689 1.393 . S
C686 H678 0.950 . S
C686 C684 1.391 . S
C686 C687 1.400 . S
C687 C686 1.400 . S
C687 C688 1.398 . S
C687 C693 1.491 . S
C688 H679 0.950 . S
C688 C687 1.398 . S
C688 C689 1.391 . S
C689 H677 0.950 . S
C689 C685 1.393 . S
C689 C688 1.391 . S
C690 H680 0.950 . S
C690 C691 1.386 . S
C690 C692 1.391 . S
C691 C690 1.386 . S
C691 C695 1.393 . S
C692 H681 0.950 . S
C692 C690 1.391 . S
C692 C693 1.400 . S
C693 C687 1.491 . S
C693 C692 1.400 . S
C693 C694 1.398 . S
C694 H682 0.950 . S
C694 C693 1.398 . S
C694 C695 1.391 . S
C695 H683 0.950 . S
C695 C691 1.393 . S
C695 C694 1.391 . S
H696 C704 0.950 . S
H697 C709 0.950 . S
H698 C706 0.950 . S
H699 C708 0.950 . S
H700 C710 0.950 . S
H701 C712 0.950 . S
H702 C714 0.950 . S
H703 C715 0.950 . S
C704 H696 0.950 . S
C704 C705 1.386 . S
C704 C706 1.391 . S
C705 C704 1.386 . S
C705 C709 1.393 . S
C706 H698 0.950 . S
C706 C704 1.391 . S
C706 C707 1.400 . S
C707 C706 1.400 . S
C707 C708 1.398 . S
C707 C713 1.491 . S
C708 H699 0.950 . S
C708 C707 1.398 . S
C708 C709 1.391 . S
C709 H697 0.950 . S
C709 C705 1.393 . S
C709 C708 1.391 . S
C710 H700 0.950 . S
C710 C711 1.386 . S
C710 C712 1.391 . S
C711 C710 1.386 . S
C711 C715 1.393 . S
C712 H701 0.950 . S
C712 C710 1.391 . S
C712 C713 1.400 . S
C713 C707 1.491 . S
C713 C712 1.400 . S
C713 C714 1.398 . S
C714 H702 0.950 . S
C714 C713 1.398 . S
C714 C715 1.391 . S
C715 H703 0.950 . S
C715 C711 1.393 . S
C715 C714 1.391 . S
H716 C724 0.950 . S
H717 C729 0.950 . S
H718 C726 0.950 . S
H719 C728 0.950 . S
H720 C730 0.950 . S
H721 C732 0.950 . S
H722 C734 0.950 . S
H723 C735 0.950 . S
C724 H716 0.950 . S
C724 C725 1.386 . S
C724 C726 1.391 . S
C725 C724 1.386 . S
C725 C729 1.393 . S
C726 H718 0.950 . S
C726 C724 1.391 . S
C726 C727 1.400 . S
C727 C726 1.400 . S
C727 C728 1.398 . S
C727 C733 1.491 . S
C728 H719 0.950 . S
C728 C727 1.398 . S
C728 C729 1.391 . S
C729 H717 0.950 . S
C729 C725 1.393 . S
C729 C728 1.391 . S
C730 H720 0.950 . S
C730 C731 1.386 . S
C730 C732 1.391 . S
C731 C730 1.386 . S
C731 C735 1.393 1_554 S
C732 H721 0.950 . S
C732 C730 1.391 . S
C732 C733 1.400 1_554 S
C733 C727 1.491 . S
C733 C732 1.400 1_556 S
C733 C734 1.398 . S
C734 H722 0.950 . S
C734 C733 1.398 . S
C734 C735 1.391 . S
C735 H723 0.950 . S
C735 C731 1.393 1_556 S
C735 C734 1.391 . S
H736 C744 0.950 . S
H737 C749 0.950 . S
H738 C746 0.950 . S
H739 C748 0.950 . S
H740 C750 0.950 . S
H741 C752 0.950 . S
H742 C754 0.950 . S
H743 C755 0.950 . S
C744 H736 0.950 . S
C744 C745 1.386 . S
C744 C746 1.391 . S
C745 C744 1.386 . S
C745 C749 1.393 . S
C746 H738 0.950 . S
C746 C744 1.391 . S
C746 C747 1.400 . S
C747 C746 1.400 . S
C747 C748 1.398 . S
C747 C753 1.491 . S
C748 H739 0.950 . S
C748 C747 1.398 . S
C748 C749 1.391 . S
C749 H737 0.950 . S
C749 C745 1.393 . S
C749 C748 1.391 . S
C750 H740 0.950 . S
C750 C751 1.386 1_554 S
C750 C752 1.391 . S
C751 C750 1.386 1_556 S
C751 C755 1.393 . S
C752 H741 0.950 . S
C752 C750 1.391 . S
C752 C753 1.400 . S
C753 C747 1.491 . S
C753 C752 1.400 . S
C753 C754 1.397 1_554 S
C754 H742 0.950 . S
C754 C753 1.397 1_556 S
C754 C755 1.392 . S
C755 H743 0.950 . S
C755 C751 1.393 . S
C755 C754 1.392 . S
H756 C764 0.950 . S
H757 C769 0.950 . S
H758 C766 0.950 . S
H759 C768 0.950 . S
H760 C770 0.950 . S
H761 C772 0.950 . S
H762 C774 0.950 . S
H763 C775 0.950 . S
C764 H756 0.950 . S
C764 C765 1.386 . S
C764 C766 1.391 . S
C765 C764 1.386 . S
C765 C769 1.393 . S
C766 H758 0.950 . S
C766 C764 1.391 . S
C766 C767 1.400 . S
C767 C766 1.400 . S
C767 C768 1.398 . S
C767 C773 1.491 . S
C768 H759 0.950 . S
C768 C767 1.398 . S
C768 C769 1.391 . S
C769 H757 0.950 . S
C769 C765 1.393 . S
C769 C768 1.391 . S
C770 H760 0.950 . S
C770 C771 1.386 . S
C770 C772 1.391 . S
C771 C770 1.386 . S
C771 C775 1.393 . S
C772 H761 0.950 . S
C772 C770 1.391 . S
C772 C773 1.400 . S
C773 C767 1.491 . S
C773 C772 1.400 . S
C773 C774 1.398 . S
C774 H762 0.950 . S
C774 C773 1.398 . S
C774 C775 1.391 . S
C775 H763 0.950 . S
C775 C771 1.393 . S
C775 C774 1.391 . S
H776 C784 0.950 . S
H777 C789 0.950 . S
H778 C786 0.950 . S
H779 C788 0.950 . S
H780 C790 0.950 . S
H781 C792 0.950 . S
H782 C794 0.950 . S
H783 C795 0.950 . S
C784 H776 0.950 . S
C784 C785 1.386 . S
C784 C786 1.391 . S
C785 C784 1.386 . S
C785 C789 1.393 . S
C786 H778 0.950 . S
C786 C784 1.391 . S
C786 C787 1.400 . S
C787 C786 1.400 . S
C787 C788 1.398 . S
C787 C793 1.491 . S
C788 H779 0.950 . S
C788 C787 1.398 . S
C788 C789 1.391 . S
C789 H777 0.950 . S
C789 C785 1.393 . S
C789 C788 1.391 . S
C790 H780 0.950 . S
C790 C791 1.386 . S
C790 C792 1.391 . S
C791 C790 1.386 . S
C791 C795 1.393 . S
C792 H781 0.950 . S
C792 C790 1.391 . S
C792 C793 1.400 . S
C793 C787 1.491 . S
C793 C792 1.400 . S
C793 C794 1.398 . S
C794 H782 0.950 . S
C794 C793 1.398 . S
C794 C795 1.391 . S
C795 H783 0.950 . S
C795 C791 1.393 . S
C795 C794 1.391 . S
H796 C804 0.950 . S
H797 C809 0.950 . S
H798 C806 0.950 . S
H799 C808 0.950 . S
H800 C810 0.950 . S
H801 C812 0.950 . S
H802 C814 0.950 . S
H803 C815 0.950 . S
C804 H796 0.950 . S
C804 C805 1.386 . S
C804 C806 1.391 . S
C805 C804 1.386 . S
C805 C809 1.393 . S
C806 H798 0.950 . S
C806 C804 1.391 . S
C806 C807 1.400 . S
C807 C806 1.400 . S
C807 C808 1.398 . S
C807 C813 1.491 . S
C808 H799 0.950 . S
C808 C807 1.398 . S
C808 C809 1.391 . S
C809 H797 0.950 . S
C809 C805 1.393 . S
C809 C808 1.391 . S
C810 H800 0.950 . S
C810 C811 1.386 . S
C810 C812 1.391 1_554 S
C811 C810 1.386 . S
C811 C815 1.393 . S
C812 H801 0.950 . S
C812 C810 1.391 1_556 S
C812 C813 1.400 . S
C813 C807 1.491 . S
C813 C812 1.400 . S
C813 C814 1.398 . S
C814 H802 0.950 . S
C814 C813 1.398 . S
C814 C815 1.391 1_556 S
C815 H803 0.950 . S
C815 C811 1.393 . S
C815 C814 1.391 1_554 S
H816 C824 0.950 . S
H817 C829 0.950 . S
H818 C826 0.950 1_554 S
H819 C828 0.950 . S
H820 C830 0.950 . S
H821 C832 0.950 . S
H822 C834 0.950 . S
H823 C835 0.950 . S
C824 H816 0.950 . S
C824 C825 1.386 . S
C824 C826 1.391 . S
C825 C824 1.386 . S
C825 C829 1.393 . S
C826 H818 0.950 1_556 S
C826 C824 1.391 . S
C826 C827 1.400 1_556 S
C827 C826 1.400 1_554 S
C827 C828 1.398 1_554 S
C827 C833 1.491 . S
C828 H819 0.950 . S
C828 C827 1.398 1_556 S
C828 C829 1.391 . S
C829 H817 0.950 . S
C829 C825 1.393 . S
C829 C828 1.391 . S
C830 H820 0.950 . S
C830 C831 1.386 . S
C830 C832 1.391 . S
C831 C830 1.386 . S
C831 C835 1.393 . S
C832 H821 0.950 . S
C832 C830 1.391 . S
C832 C833 1.400 . S
C833 C827 1.491 . S
C833 C832 1.400 . S
C833 C834 1.398 . S
C834 H822 0.950 . S
C834 C833 1.398 . S
C834 C835 1.391 . S
C835 H823 0.950 . S
C835 C831 1.393 . S
C835 C834 1.391 . S
H836 C844 0.950 . S
H837 C849 0.950 . S
H838 C846 0.950 . S
H839 C848 0.950 . S
H840 C850 0.950 . S
H841 C852 0.950 . S
H842 C854 0.950 . S
H843 C855 0.950 . S
C844 H836 0.950 . S
C844 C845 1.386 . S
C844 C846 1.391 . S
C845 C844 1.386 . S
C845 C849 1.393 . S
C846 H838 0.950 . S
C846 C844 1.391 . S
C846 C847 1.400 . S
C847 C846 1.400 . S
C847 C848 1.398 . S
C847 C853 1.491 . S
C848 H839 0.950 . S
C848 C847 1.398 . S
C848 C849 1.391 . S
C849 H837 0.950 . S
C849 C845 1.393 . S
C849 C848 1.391 . S
C850 H840 0.950 . S
C850 C851 1.386 . S
C850 C852 1.391 . S
C851 C850 1.386 . S
C851 C855 1.393 . S
C852 H841 0.950 . S
C852 C850 1.391 . S
C852 C853 1.400 . S
C853 C847 1.491 . S
C853 C852 1.400 . S
C853 C854 1.398 . S
C854 H842 0.950 . S
C854 C853 1.398 . S
C854 C855 1.391 . S
C855 H843 0.950 . S
C855 C851 1.393 . S
C855 C854 1.391 . S
H856 C864 0.950 . S
H857 C869 0.950 . S
H858 C866 0.950 . S
H859 C868 0.950 . S
H860 C870 0.950 . S
H861 C872 0.950 . S
H862 C874 0.950 . S
H863 C875 0.950 . S
C864 H856 0.950 . S
C864 C865 1.386 . S
C864 C866 1.391 . S
C865 C864 1.386 . S
C865 C869 1.393 . S
C866 H858 0.950 . S
C866 C864 1.391 . S
C866 C867 1.400 . S
C867 C866 1.400 . S
C867 C868 1.398 . S
C867 C873 1.491 . S
C868 H859 0.950 . S
C868 C867 1.398 . S
C868 C869 1.391 . S
C869 H857 0.950 . S
C869 C865 1.393 . S
C869 C868 1.391 . S
C870 H860 0.950 . S
C870 C871 1.386 . S
C870 C872 1.391 . S
C871 C870 1.386 . S
C871 C875 1.393 . S
C872 H861 0.950 . S
C872 C870 1.391 . S
C872 C873 1.400 . S
C873 C867 1.491 . S
C873 C872 1.400 . S
C873 C874 1.398 . S
C874 H862 0.950 . S
C874 C873 1.398 . S
C874 C875 1.391 . S
C875 H863 0.950 . S
C875 C871 1.393 . S
C875 C874 1.391 . S
H876 C884 0.950 . S
H877 C889 0.950 . S
H878 C886 0.950 . S
H879 C888 0.950 . S
H880 C890 0.950 . S
H881 C892 0.950 . S
H882 C894 0.950 . S
H883 C895 0.950 . S
C884 H876 0.950 . S
C884 C885 1.386 . S
C884 C886 1.391 . S
C885 C884 1.386 . S
C885 C889 1.393 . S
C886 H878 0.950 . S
C886 C884 1.391 . S
C886 C887 1.400 . S
C887 C886 1.400 . S
C887 C888 1.398 . S
C887 C893 1.491 . S
C888 H879 0.950 . S
C888 C887 1.398 . S
C888 C889 1.391 . S
C889 H877 0.950 . S
C889 C885 1.393 . S
C889 C888 1.391 . S
C890 H880 0.950 . S
C890 C891 1.386 . S
C890 C892 1.391 . S
C891 C890 1.386 . S
C891 C895 1.393 . S
C892 H881 0.950 . S
C892 C890 1.391 . S
C892 C893 1.400 . S
C893 C887 1.491 . S
C893 C892 1.400 . S
C893 C894 1.398 . S
C894 H882 0.950 . S
C894 C893 1.398 . S
C894 C895 1.391 . S
C895 H883 0.950 . S
C895 C891 1.393 . S
C895 C894 1.391 . S
H896 C904 0.950 . S
H897 C909 0.950 . S
H898 C906 0.950 . S
H899 C908 0.950 . S
H900 C910 0.950 . S
H901 C912 0.950 . S
H902 C914 0.950 . S
H903 C915 0.950 . S
C904 H896 0.950 . S
C904 C905 1.386 . S
C904 C906 1.391 . S
C905 C904 1.386 . S
C905 C909 1.393 . S
C906 H898 0.950 . S
C906 C904 1.391 . S
C906 C907 1.400 . S
C907 C906 1.400 . S
C907 C908 1.398 . S
C907 C913 1.491 . S
C908 H899 0.950 . S
C908 C907 1.398 . S
C908 C909 1.391 . S
C909 H897 0.950 . S
C909 C905 1.393 . S
C909 C908 1.391 . S
C910 H900 0.950 . S
C910 C911 1.386 . S
C910 C912 1.391 . S
C911 C910 1.386 . S
C911 C915 1.393 . S
C912 H901 0.950 . S
C912 C910 1.391 . S
C912 C913 1.400 . S
C913 C907 1.491 . S
C913 C912 1.400 . S
C913 C914 1.398 . S
C914 H902 0.950 . S
C914 C913 1.398 . S
C914 C915 1.391 . S
C915 H903 0.950 . S
C915 C911 1.393 . S
C915 C914 1.391 . S
H916 C924 0.950 . S
H917 C929 0.950 . S
H918 C926 0.950 . S
H919 C928 0.950 . S
H920 C930 0.950 . S
H921 C932 0.950 . S
H922 C934 0.950 . S
H923 C935 0.950 . S
C924 H916 0.950 . S
C924 C925 1.386 . S
C924 C926 1.391 . S
C925 C924 1.386 . S
C925 C929 1.393 . S
C926 H918 0.950 . S
C926 C924 1.391 . S
C926 C927 1.400 . S
C927 C926 1.400 . S
C927 C928 1.398 . S
C927 C933 1.491 . S
C928 H919 0.950 . S
C928 C927 1.398 . S
C928 C929 1.391 . S
C929 H917 0.950 . S
C929 C925 1.393 . S
C929 C928 1.391 . S
C930 H920 0.950 . S
C930 C931 1.386 . S
C930 C932 1.391 . S
C931 C930 1.386 . S
C931 C935 1.393 . S
C932 H921 0.950 . S
C932 C930 1.391 . S
C932 C933 1.400 . S
C933 C927 1.491 . S
C933 C932 1.400 . S
C933 C934 1.398 . S
C934 H922 0.950 . S
C934 C933 1.398 . S
C934 C935 1.391 . S
C935 H923 0.950 . S
C935 C931 1.393 . S
C935 C934 1.391 . S
H936 C944 0.950 . S
H937 C949 0.950 . S
H938 C946 0.950 . S
H939 C948 0.950 . S
H940 C950 0.950 . S
H941 C952 0.950 . S
H942 C954 0.950 . S
H943 C955 0.950 . S
C944 H936 0.950 . S
C944 C945 1.386 . S
C944 C946 1.391 . S
C945 C944 1.386 . S
C945 C949 1.393 . S
C946 H938 0.950 . S
C946 C944 1.391 . S
C946 C947 1.400 . S
C947 C946 1.400 . S
C947 C948 1.398 . S
C947 C953 1.491 . S
C948 H939 0.950 . S
C948 C947 1.398 . S
C948 C949 1.391 . S
C949 H937 0.950 . S
C949 C945 1.393 . S
C949 C948 1.391 . S
C950 H940 0.950 . S
C950 C951 1.386 . S
C950 C952 1.391 . S
C951 C950 1.386 . S
C951 C955 1.393 . S
C952 H941 0.950 . S
C952 C950 1.391 . S
C952 C953 1.400 . S
C953 C947 1.491 . S
C953 C952 1.400 . S
C953 C954 1.398 . S
C954 H942 0.950 . S
C954 C953 1.398 . S
C954 C955 1.391 . S
C955 H943 0.950 . S
C955 C951 1.393 . S
C955 C954 1.391 . S
H956 C964 0.950 . S
H957 C969 0.950 . S
H958 C966 0.950 . S
H959 C968 0.950 . S
H960 C970 0.950 . S
H961 C972 0.950 . S
H962 C974 0.950 1_556 S
H963 C975 0.950 . S
C964 H956 0.950 . S
C964 C965 1.386 . S
C964 C966 1.391 . S
C965 C964 1.386 . S
C965 C969 1.393 . S
C966 H958 0.950 . S
C966 C964 1.391 . S
C966 C967 1.400 . S
C967 C966 1.400 . S
C967 C968 1.398 . S
C967 C973 1.491 . S
C968 H959 0.950 . S
C968 C967 1.398 . S
C968 C969 1.391 . S
C969 H957 0.950 . S
C969 C965 1.393 . S
C969 C968 1.391 . S
C970 H960 0.950 . S
C970 C971 1.386 . S
C970 C972 1.391 . S
C971 C970 1.386 . S
C971 C975 1.393 . S
C972 H961 0.950 . S
C972 C970 1.391 . S
C972 C973 1.400 1_554 S
C973 C967 1.491 . S
C973 C972 1.400 1_556 S
C973 C974 1.398 1_556 S
C974 H962 0.950 1_554 S
C974 C973 1.398 1_554 S
C974 C975 1.391 . S
C975 H963 0.950 . S
C975 C971 1.393 . S
C975 C974 1.391 . S
H976 C984 0.950 . S
H977 C989 0.950 . S
H978 C986 0.950 . S
H979 C988 0.950 . S
H980 C990 0.950 . S
H981 C992 0.950 . S
H982 C994 0.950 . S
H983 C995 0.950 . S
C984 H976 0.950 . S
C984 C985 1.386 . S
C984 C986 1.391 . S
C985 C984 1.386 . S
C985 C989 1.393 . S
C986 H978 0.950 . S
C986 C984 1.391 . S
C986 C987 1.400 . S
C987 C986 1.400 . S
C987 C988 1.398 . S
C987 C993 1.491 . S
C988 H979 0.950 . S
C988 C987 1.398 . S
C988 C989 1.391 . S
C989 H977 0.950 . S
C989 C985 1.393 . S
C989 C988 1.391 . S
C990 H980 0.950 . S
C990 C991 1.386 . S
C990 C992 1.391 1_556 S
C991 C990 1.386 . S
C991 C995 1.393 . S
C992 H981 0.950 . S
C992 C990 1.391 1_554 S
C992 C993 1.400 . S
C993 C987 1.491 . S
C993 C992 1.400 . S
C993 C994 1.398 . S
C994 H982 0.950 . S
C994 C993 1.398 . S
C994 C995 1.391 1_554 S
C995 H983 0.950 . S
C995 C991 1.393 . S
C995 C994 1.391 1_556 S
C405 C281 1.627 . S
C411 C17 1.622 . S
C425 C314 1.628 . S
C431 C50 1.622 . S
C445 C347 1.623 . S
C451 C83 1.624 . S
C465 C380 1.626 . S
C471 C116 1.622 . S
C485 C149 1.625 . S
C491 C215 1.629 . S
C505 C248 1.626 . S
C511 C182 1.622 . S
C525 C8 1.152 . S
C531 C371 1.175 . S
C545 C206 1.173 . S
C551 C41 1.148 . S
C565 C74 1.171 . S
C571 C239 1.145 . S
C585 C107 1.146 . S
C591 C272 1.171 . S
C605 C305 1.154 . S
C611 C140 1.175 . S
C625 C173 1.147 . S
C631 C338 1.173 . S
C645 C28 1.347 . S
C651 C358 1.350 . S
C665 C61 1.353 . S
C671 C391 1.359 . S
C685 C226 1.357 . S
C691 C94 1.351 . S
C705 C259 1.362 . S
C711 C127 1.357 . S
C725 C160 1.347 . S
C731 C292 1.352 . S
C745 C325 1.363 . S
C751 C193 1.359 . S
C765 N5 1.053 . S
C771 N14 1.051 . S
C785 N47 1.054 . S
C791 N38 1.055 . S
C805 N71 1.055 . S
C811 N80 1.053 . S
C825 N104 1.051 . S
C831 N113 1.048 . S
C845 N146 1.053 . S
C851 N137 1.054 1_554 S
C865 N179 1.053 . S
C871 N170 1.054 . S
C885 N212 1.051 . S
C891 N203 1.053 . S
C905 N245 1.055 . S
C911 N236 1.056 . S
C925 N278 1.057 . S
C931 N269 1.057 . S
C945 N311 1.048 . S
C951 N302 1.051 1_556 S
C965 N344 1.048 . S
C971 N335 1.051 . S
C985 N368 1.051 . S
C991 N377 1.048 . S
